# Generated by pormake.
# Topology tfs, (6)-cn, num edge types: 1
# Building blocks:
#     Node 0, Type 0, BuildingBlock: HISSIN_clean_sbu_0, # of connection points: 6
#     Node 1, Type 0, BuildingBlock: HISSIN_clean_sbu_0, # of connection points: 6
#     Node 2, Type 0, BuildingBlock: HISSIN_clean_sbu_0, # of connection points: 6
#     Node 3, Type 0, BuildingBlock: HISSIN_clean_sbu_0, # of connection points: 6
#     Node 4, Type 0, BuildingBlock: HISSIN_clean_sbu_0, # of connection points: 6
#     Node 5, Type 0, BuildingBlock: HISSIN_clean_sbu_0, # of connection points: 6
#     Edge 6, Type (0, 0), BuildingBlock: EZIPEK_clean_linker_0, # of connection points: 2
#     Edge 7, Type (0, 0), BuildingBlock: EZIPEK_clean_linker_0, # of connection points: 2
#     Edge 8, Type (0, 0), BuildingBlock: EZIPEK_clean_linker_0, # of connection points: 2
#     Edge 9, Type (0, 0), BuildingBlock: EZIPEK_clean_linker_0, # of connection points: 2
#     Edge 10, Type (0, 0), BuildingBlock: EZIPEK_clean_linker_0, # of connection points: 2
#     Edge 11, Type (0, 0), BuildingBlock: EZIPEK_clean_linker_0, # of connection points: 2
#     Edge 12, Type (0, 0), BuildingBlock: EZIPEK_clean_linker_0, # of connection points: 2
#     Edge 13, Type (0, 0), BuildingBlock: EZIPEK_clean_linker_0, # of connection points: 2
#     Edge 14, Type (0, 0), BuildingBlock: EZIPEK_clean_linker_0, # of connection points: 2
#     Edge 15, Type (0, 0), BuildingBlock: EZIPEK_clean_linker_0, # of connection points: 2
#     Edge 16, Type (0, 0), BuildingBlock: EZIPEK_clean_linker_0, # of connection points: 2
#     Edge 17, Type (0, 0), BuildingBlock: EZIPEK_clean_linker_0, # of connection points: 2
#     Edge 18, Type (0, 0), BuildingBlock: EZIPEK_clean_linker_0, # of connection points: 2
#     Edge 19, Type (0, 0), BuildingBlock: EZIPEK_clean_linker_0, # of connection points: 2
#     Edge 20, Type (0, 0), BuildingBlock: EZIPEK_clean_linker_0, # of connection points: 2
#     Edge 21, Type (0, 0), BuildingBlock: EZIPEK_clean_linker_0, # of connection points: 2
#     Edge 22, Type (0, 0), BuildingBlock: EZIPEK_clean_linker_0, # of connection points: 2
#     Edge 23, Type (0, 0), BuildingBlock: EZIPEK_clean_linker_0, # of connection points: 2
# Relax obj value: 0.577
# Max RMSD: 0.300
# Mean RMSD: 0.300
data_MOF--net-tfs--node1-HISSIN_clean_sbu_0--edge1-EZIPEK_clean_linker_0
_symmetry_space_group_name_H-M    P1
_symmetry_Int_Tables_number       1
_symmetry_cell_setting            triclinic
loop_
_symmetry_equiv_pos_as_xyz
'x, y, z'
_cell_length_a     44.860954
_cell_length_b     45.051606
_cell_length_c     11.202936
_cell_angle_alpha  90.050659
_cell_angle_beta   90.313367
_cell_angle_gamma 120.25851
loop_
_atom_site_label
_atom_site_type_symbol
_atom_site_fract_x
_atom_site_fract_y
_atom_site_fract_z
_atom_type_partial_charge
Eu0 Eu 0.22052 0.4001 0.97362 0.0
Eu1 Eu 0.17774 0.44462 0.973 0.0
C2 C 0.19808 0.42039 0.22247 0.0
C3 C 0.2633 0.34067 0.96164 0.0
C4 C 0.24149 0.30964 0.02028 0.0
C5 C 0.30508 0.32227 0.93139 0.0
C6 C 0.25165 0.28498 0.03461 0.0
C7 C 0.29498 0.34667 0.91713 0.0
C8 C 0.28369 0.29137 -0.00932 0.0
C9 C 0.25462 0.36777 0.94447 0.0
O10 O 0.23422 0.48489 0.96528 0.0
O11 O 0.26232 0.45463 0.00246 0.0
C12 C 0.26223 0.48346 -0.01171 0.0
O13 O 0.22426 0.42396 0.79461 0.0
O14 O 0.1515 0.46922 0.05597 0.0
O15 O 0.15963 0.47265 0.86523 0.0
O16 O 0.17139 0.4192 0.79494 0.0
C17 C 0.19744 0.42092 0.73758 0.0
O18 O 0.16361 0.35971 0.98413 0.0
O19 O 0.13482 0.39048 -0.00239 0.0
O20 O 0.18504 0.43703 0.16678 0.0
O21 O 0.22776 0.36155 0.87994 0.0
O22 O 0.26131 0.38998 0.02986 0.0
O23 O 0.21151 0.40398 0.16804 0.0
C24 C 0.16233 0.52058 0.96085 0.0
C25 C 0.19622 0.54474 0.92709 0.0
C26 C 0.15091 0.56719 -0.00439 0.0
C27 C 0.20719 0.57984 0.92615 0.0
C28 C 0.13987 0.53208 -0.00406 0.0
C29 C 0.18452 0.59123 0.95976 0.0
C30 C 0.14985 0.48343 0.95674 0.0
C31 C 0.13527 0.36153 -0.00448 0.0
H32 H 0.21691 0.30463 0.05508 0.0
H33 H 0.32981 0.32761 0.89681 0.0
H34 H 0.23482 0.26119 0.08048 0.0
H35 H 0.31209 0.37044 0.87142 0.0
H36 H 0.21403 0.53643 0.90011 0.0
H37 H 0.13313 0.57561 0.02181 0.0
H38 H 0.23323 0.5981 0.89845 0.0
H39 H 0.11368 0.51385 0.02234 0.0
Eu40 Eu 0.82797 0.22232 0.88932 0.0
Eu41 Eu 0.74117 0.18943 0.88696 0.0
C42 C 0.78353 0.2059 0.13546 0.0
C43 C 0.92666 0.24906 0.9221 0.0
C44 C 0.93892 0.25766 0.03962 0.0
C45 C 0.9814 0.25427 0.86629 0.0
C46 C 0.97229 0.26501 0.06987 0.0
C47 C 0.94809 0.24703 0.83635 0.0
C48 C 0.99449 0.26302 0.98453 0.0
C49 C 0.89496 0.2487 0.88236 0.0
O50 O 0.76319 0.24678 0.89336 0.0
O51 O 0.82226 0.26867 0.90576 0.0
C52 C 0.79509 0.27237 0.90514 0.0
O53 O 0.81203 0.23044 0.70753 0.0
O54 O 0.68875 0.15766 0.95372 0.0
O55 O 0.69724 0.18371 0.78384 0.0
O56 O 0.75879 0.18227 0.70792 0.0
C57 C 0.78509 0.20644 0.65085 0.0
O58 O 0.80452 0.16489 0.86569 0.0
O59 O 0.74801 0.14439 0.92352 0.0
O60 O 0.75603 0.20193 0.07884 0.0
O61 O 0.87371 0.2248 0.80868 0.0
O62 O 0.87922 0.25801 0.95821 0.0
O63 O 0.81098 0.2091 0.08076 0.0
C64 C 0.64813 0.17346 0.89168 0.0
C65 C 0.6157 0.15476 0.83636 0.0
C66 C 0.62939 0.2094 -0.01057 0.0
C67 C 0.5903 0.16336 0.8568 0.0
C68 C 0.65491 0.20082 0.96863 0.0
C69 C 0.59702 0.19076 0.93304 0.0
C70 C 0.67469 0.16468 0.86395 0.0
C71 C 0.77382 0.13976 0.89657 0.0
H72 H 0.9235 0.26068 0.10736 0.0
H73 H 0.99722 0.25512 0.7928 0.0
H74 H 0.98057 0.27434 0.15929 0.0
H75 H 0.93987 0.24186 0.74376 0.0
H76 H 0.61016 0.1337 0.77628 0.0
H77 H 0.63494 0.23071 0.04818 0.0
H78 H 0.56548 0.14884 0.81244 0.0
H79 H 0.67994 0.21565 0.01139 0.0
Eu80 Eu 0.61523 0.8268 0.05014 0.0
Eu81 Eu 0.55252 0.74496 0.04407 0.0
C82 C 0.58248 0.78521 0.28893 0.0
C83 C 0.68306 0.92528 0.01761 0.0
C84 C 0.66674 0.94465 0.03356 0.0
C85 C 0.73349 0.97584 0.93911 0.0
C86 C 0.68394 0.97953 0.00369 0.0
C87 C 0.71637 0.94108 0.96909 0.0
C88 C 0.71757 0.99535 0.95797 0.0
C89 C 0.6676 0.88959 0.05941 0.0
O90 O 0.52486 0.77392 0.00982 0.0
O91 O 0.566 0.82855 0.07294 0.0
C92 C 0.53425 0.80564 0.0403 0.0
O93 O 0.59321 0.81713 0.86398 0.0
O94 O 0.51834 0.69569 0.12891 0.0
O95 O 0.51886 0.69984 0.93604 0.0
O96 O 0.57699 0.76021 0.86216 0.0
C97 C 0.5844 0.78859 0.80577 0.0
O98 O 0.64011 0.79517 0.01102 0.0
O99 O 0.6003 0.74374 0.0934 0.0
O100 O 0.55387 0.76502 0.22999 0.0
O101 O 0.6416 0.87769 0.13289 0.0
O102 O 0.66491 0.86664 0.98242 0.0
O103 O 0.61152 0.80496 0.23348 0.0
C104 C 0.46778 0.6555 0.02187 0.0
C105 C 0.45606 0.62723 0.94463 0.0
C106 C 0.40898 0.63346 0.08999 0.0
C107 C 0.42124 0.60205 0.94096 0.0
C108 C 0.444 0.65882 0.09356 0.0
C109 C 0.39758 0.60473 0.01472 0.0
C110 C 0.50508 0.67998 0.02795 0.0
C111 C 0.6313 0.76477 0.0535 0.0
H112 H 0.6411 0.9331 0.07106 0.0
H113 H 0.75937 0.9877 0.90343 0.0
H114 H 0.67132 0.99433 0.01811 0.0
H115 H 0.72951 0.92665 0.95691 0.0
H116 H 0.47404 0.62428 0.88865 0.0
H117 H 0.39093 0.63582 0.14743 0.0
H118 H 0.41283 0.58002 0.88258 0.0
H119 H 0.45253 0.68056 0.15339 0.0
Eu120 Eu 0.785 0.60182 0.00748 0.0
Eu121 Eu 0.82442 0.5551 0.00744 0.0
C122 C 0.80554 0.58019 0.25705 0.0
C123 C 0.7509 0.66749 0.01263 0.0
C124 C 0.73573 0.66808 0.12153 0.0
C125 C 0.74224 0.71328 0.93895 0.0
C126 C 0.72238 0.68992 0.13645 0.0
C127 C 0.75551 0.6914 0.92384 0.0
C128 C 0.72409 0.71134 0.04286 0.0
C129 C 0.75493 0.63804 0.98007 0.0
O130 O 0.76756 0.51593 -0.01033 0.0
O131 O 0.74135 0.54791 0.0277 0.0
C132 C 0.74011 0.51857 0.00946 0.0
O133 O 0.78103 0.57897 0.82628 0.0
O134 O 0.84796 0.5283 0.0929 0.0
O135 O 0.84506 0.52937 0.90027 0.0
O136 O 0.83282 0.58156 0.83118 0.0
C137 C 0.8075 0.58093 0.77153 0.0
O138 O 0.84199 0.64107 0.02907 0.0
O139 O 0.86838 0.60817 0.03658 0.0
O140 O 0.81889 0.56392 0.2014 0.0
O141 O 0.78168 0.64326 0.91788 0.0
O142 O 0.74476 0.61278 0.05562 0.0
O143 O 0.79162 0.59611 0.20245 0.0
C144 C 0.84249 0.4808 -0.01393 0.0
C145 C 0.80738 0.45549 0.98394 0.0
C146 C 0.85797 0.43674 0.9668 0.0
C147 C 0.79762 0.42085 0.97291 0.0
C148 C 0.86769 0.47129 0.97797 0.0
C149 C 0.82293 0.4114 0.96353 0.0
C150 C 0.85328 0.51726 -0.00776 0.0
C151 C 0.86949 0.6378 0.03892 0.0
H152 H 0.73176 0.6499 0.19153 0.0
H153 H 0.74355 0.72959 0.86576 0.0
H154 H 0.70828 0.6881 0.21694 0.0
H155 H 0.76684 0.69124 0.83882 0.0
H156 H 0.78766 0.46258 -0.01028 0.0
H157 H 0.87772 0.42972 0.95985 0.0
H158 H 0.77048 0.40147 0.97072 0.0
H159 H 0.89486 0.49062 0.97914 0.0
Eu160 Eu 0.18092 0.78011 0.93717 0.0
Eu161 Eu 0.26677 0.81457 0.94182 0.0
C162 C 0.2224 0.79506 0.18817 0.0
C163 C 0.07972 0.74129 0.94616 0.0
C164 C 0.07456 0.76122 0.03103 0.0
C165 C 0.01789 0.70433 0.92482 0.0
C166 C 0.04087 0.75246 0.06304 0.0
C167 C 0.05124 0.71304 0.89305 0.0
C168 C 0.01241 0.72372 0.01044 0.0
C169 C 0.11406 0.7487 0.9091 0.0
O170 O 0.24814 0.75927 0.98139 0.0
O171 O 0.19302 0.73748 0.9062 0.0
C172 C 0.21828 0.73337 0.94729 0.0
O173 O 0.20132 0.80106 0.75612 0.0
O174 O 0.31753 0.84784 0.02291 0.0
O175 O 0.31366 0.82792 0.84419 0.0
O176 O 0.24753 0.79294 0.75903 0.0
C177 C 0.22427 0.79657 0.70101 0.0
O178 O 0.20027 0.83434 -0.00192 0.0
O179 O 0.2546 0.85712 0.9185 0.0
O180 O 0.25163 0.80399 0.13403 0.0
O181 O 0.1351 0.77876 0.86376 0.0
O182 O 0.12972 0.73647 0.97344 0.0
O183 O 0.19331 0.78669 0.13258 0.0
C184 C 0.36306 0.83884 0.95827 0.0
C185 C 0.37373 0.82357 0.87153 0.0
C186 C 0.4105 0.84657 0.08657 0.0
C187 C 0.40234 0.81978 0.89226 0.0
C188 C 0.38184 0.85041 0.0659 0.0
C189 C 0.4209 0.83131 -0.00038 0.0
C190 C 0.3342 0.84497 0.93273 0.0
C191 C 0.22999 0.86077 0.96697 0.0
H192 H 0.0964 0.78319 0.07257 0.0
H193 H 0.99623 0.68209 0.88354 0.0
H194 H 0.03697 0.76764 0.12947 0.0
H195 H 0.05482 0.6975 0.8271 0.0
H196 H 0.36023 0.81487 0.7869 0.0
H197 H 0.42468 0.85565 0.16986 0.0
H198 H 0.41014 0.80798 0.82429 0.0
H199 H 0.37463 0.86279 0.13355 0.0
Eu200 Eu 0.39882 0.17905 -0.00154 0.0
Eu201 Eu 0.45131 0.26602 0.00369 0.0
C202 C 0.42555 0.22117 0.23858 0.0
C203 C 0.3348 0.07688 0.0236 0.0
C204 C 0.34249 0.05397 0.08211 0.0
C205 C 0.27817 0.02876 0.97075 0.0
C206 C 0.31885 0.01872 0.08107 0.0
C207 C 0.30197 0.06413 0.97116 0.0
C208 C 0.28711 0.00577 0.02144 0.0
C209 C 0.36332 0.11204 -0.00057 0.0
O210 O 0.48891 0.24841 0.97025 0.0
O211 O 0.45401 0.18987 0.00071 0.0
C212 C 0.48426 0.21738 0.98029 0.0
O213 O 0.4104 0.19308 0.80655 0.0
O214 O 0.47937 0.31275 0.11125 0.0
O215 O 0.47817 0.3164 0.91928 0.0
O216 O 0.44119 0.25257 0.80905 0.0
C217 C 0.42606 0.22289 0.75277 0.0
O218 O 0.36123 0.19831 -0.01311 0.0
O219 O 0.39732 0.25636 0.0275 0.0
O220 O 0.45295 0.24389 0.18143 0.0
O221 O 0.3592 0.1309 0.92013 0.0
O222 O 0.38622 0.12993 0.08155 0.0
O223 O 0.39788 0.19799 0.18256 0.0
C224 C 0.52849 0.35755 0.01855 0.0
C225 C 0.5525 0.34647 0.00542 0.0
C226 C 0.57548 0.41665 0.02764 0.0
C227 C 0.5879 0.37046 0.0034 0.0
C228 C 0.54017 0.39272 0.02972 0.0
C229 C 0.59953 0.40569 0.01418 0.0
C230 C 0.49126 0.33287 0.01893 0.0
C231 C 0.36663 0.22942 0.00767 0.0
H232 H 0.36769 0.06307 0.12208 0.0
H233 H 0.25371 0.01915 0.92463 0.0
H234 H 0.32612 1.00135 0.12088 0.0
H235 H 0.2954 0.08117 0.92478 0.0
H236 H 0.54385 0.31937 -0.00346 0.0
H237 H 0.5841 0.44375 0.03648 0.0
H238 H 0.60618 0.36162 -0.00657 0.0
H239 H 0.52197 0.40165 0.03978 0.0
C240 C 0.33075 0.24797 0.11856 0.0
C241 C 0.33696 0.23532 0.01135 0.0
C242 C 0.29648 0.24766 0.90535 0.0
C243 C 0.29603 0.26651 0.0061 0.0
N244 N 0.31256 0.285 0.20995 0.0
N245 N 0.3255 0.22217 0.80155 0.0
C246 C 0.31256 0.26623 0.11406 0.0
C247 C 0.31915 0.23416 0.90477 0.0
N248 N 0.34216 0.24221 0.22453 0.0
N249 N 0.27535 0.24302 0.81022 0.0
H250 H 0.34109 0.21116 0.79836 0.0
H251 H 0.31682 0.2247 0.71791 0.0
H252 H 0.25857 0.25273 0.80901 0.0
H253 H 0.27209 0.22708 0.73797 0.0
H254 H 0.33621 0.24827 0.30742 0.0
H255 H 0.35477 0.22809 0.22965 0.0
H256 H 0.32767 0.28929 0.28599 0.0
H257 H 0.29881 0.298 0.21095 0.0
C258 C 0.08855 0.30457 0.91323 0.0
C259 C 0.10163 0.32919 0.00744 0.0
C260 C 0.04845 0.29338 0.11857 0.0
C261 C 0.03243 0.27558 0.01176 0.0
N262 N 0.04473 0.2468 0.85608 0.0
N263 N 0.09466 0.34512 0.20755 0.0
C264 C 0.05473 0.27568 0.92269 0.0
C265 C 0.08191 0.32289 0.11312 0.0
N266 N 0.10714 0.30974 0.81155 0.0
N267 N 0.03427 0.27904 0.22562 0.0
H268 H 0.11947 0.36649 0.2092 0.0
H269 H 0.07966 0.34316 0.28119 0.0
H270 H 0.01272 0.25435 0.23029 0.0
H271 H 0.04642 0.2893 0.30726 0.0
H272 H 0.09697 0.29427 0.73589 0.0
H273 H 0.1317 0.33091 0.79955 0.0
H274 H 0.06108 0.24411 0.7969 0.0
H275 H 0.02127 0.22433 0.87177 0.0
C276 C 0.77907 0.09184 -0.01274 0.0
C277 C 0.76633 0.1038 0.89441 0.0
C278 C 0.72809 0.04453 0.82629 0.0
C279 C 0.73634 0.03263 0.93142 0.0
N280 N 0.7683 0.04435 0.1163 0.0
N281 N 0.73068 0.09257 0.7195 0.0
C282 C 0.76184 0.05609 0.01241 0.0
C283 C 0.7416 0.08038 0.8114 0.0
N284 N 0.80763 0.1146 0.05087 0.0
N285 N 0.70785 0.02151 0.74015 0.0
H286 H 0.74242 0.11866 0.69972 0.0
H287 H 0.70956 0.07712 0.66503 0.0
H288 H 0.6975 0.99505 0.74883 0.0
H289 H 0.70344 0.02855 0.65635 0.0
H290 H 0.82005 0.10719 0.11259 0.0
H291 H 0.82093 0.1409 0.03375 0.0
H292 H 0.78354 0.06045 0.18529 0.0
H293 H 0.75637 0.01834 0.13778 0.0
C294 C 0.71094 0.75697 0.10739 0.0
C295 C 0.70126 0.72618 0.04384 0.0
C296 C 0.64829 0.72377 0.97438 0.0
C297 C 0.65615 0.7525 0.04761 0.0
N298 N 0.69248 0.79424 0.19567 0.0
N299 N 0.65822 0.67681 0.93344 0.0
C300 C 0.68693 0.76869 0.11704 0.0
C301 C 0.66924 0.70861 0.98181 0.0
N302 N 0.74323 0.77519 0.15657 0.0
N303 N 0.62151 0.71168 0.89438 0.0
H304 H 0.67273 0.66461 0.93602 0.0
H305 H 0.63337 0.66113 0.89978 0.0
H306 H 0.60556 0.72216 0.88544 0.0
H307 H 0.6171 0.69343 0.82902 0.0
H308 H 0.7532 0.79964 0.19339 0.0
H309 H 0.76112 0.76689 0.15246 0.0
H310 H 0.71252 0.8045 0.25803 0.0
H311 H 0.67547 0.80348 0.20506 0.0
C312 C 0.96159 0.68909 0.14197 0.0
C313 C 0.97631 0.71208 0.0452 0.0
C314 C 0.91894 0.69347 0.96193 0.0
C315 C 0.90427 0.66857 0.05402 0.0
N316 N 0.90983 0.64961 0.24955 0.0
N317 N 0.96984 0.74427 0.88695 0.0
C318 C 0.92511 0.66899 0.15063 0.0
C319 C 0.95507 0.71717 0.96389 0.0
N320 N 0.9825 0.68476 0.22056 0.0
N321 N 0.89908 0.69272 0.86775 0.0
H322 H 0.99637 0.76168 0.8873 0.0
H323 H 0.95574 0.75135 0.83173 0.0
H324 H 0.87254 0.67608 0.86287 0.0
H325 H 0.90915 0.7073 0.79086 0.0
H326 H 0.97346 0.66523 0.28368 0.0
H327 H 0.00933 0.69995 0.21912 0.0
H328 H 0.92316 0.65113 0.32779 0.0
H329 H 0.88315 0.63403 0.25679 0.0
C330 C 0.23499 0.91039 0.08961 0.0
C331 C 0.23592 0.89625 0.97706 0.0
C332 C 0.26581 0.95376 0.88922 0.0
C333 C 0.2654 0.96806 0.0018 0.0
N334 N 0.24231 0.96017 0.19995 0.0
N335 N 0.24143 0.90292 0.76373 0.0
C336 C 0.24745 0.94633 0.09901 0.0
C337 C 0.2478 0.91752 0.87484 0.0
N338 N 0.22413 0.89006 0.18871 0.0
N339 N 0.28508 0.97461 0.79787 0.0
H340 H 0.22745 0.87635 0.75047 0.0
H341 H 0.24666 0.91695 0.68508 0.0
H342 H 0.29884 1.00134 0.80392 0.0
H343 H 0.28964 0.96534 0.71897 0.0
H344 H 0.22715 0.89966 0.27524 0.0
H345 H 0.21381 0.86356 0.1858 0.0
H346 H 0.22664 0.9455 0.26992 0.0
H347 H 0.25126 0.98641 0.20886 0.0
C348 C 0.20365 0.67847 0.84193 0.0
C349 C 0.21304 0.69806 0.94912 0.0
C350 C 0.20912 0.64901 0.05897 0.0
C351 C 0.19564 0.62837 0.95497 0.0
N352 N 0.17677 0.622 0.74984 0.0
N353 N 0.22185 0.70135 0.16283 0.0
C354 C 0.19205 0.64272 0.84695 0.0
C355 C 0.21535 0.68329 0.05846 0.0
N356 N 0.20724 0.69438 0.7347 0.0
N357 N 0.2164 0.63593 0.15777 0.0
H358 H 0.22724 0.72668 0.16672 0.0
H359 H 0.2195 0.69055 0.24682 0.0
H360 H 0.2114 0.61069 0.16219 0.0
H361 H 0.22983 0.65072 0.2318 0.0
H362 H 0.20404 0.68228 0.65254 0.0
H363 H 0.21685 0.72074 0.72729 0.0
H364 H 0.16966 0.63005 0.67322 0.0
H365 H 0.16887 0.5959 0.74884 0.0
C366 C 0.52302 0.19781 0.06791 0.0
C367 C 0.51495 0.21319 0.97195 0.0
C368 C 0.56515 0.21988 0.86201 0.0
C369 C 0.57012 0.20029 0.95055 0.0
N370 N 0.55202 0.16744 0.1324 0.0
N371 N 0.52646 0.23634 0.77193 0.0
C372 C 0.54861 0.18842 0.05228 0.0
C373 C 0.53569 0.22386 0.86772 0.0
N374 N 0.50734 0.19367 0.17585 0.0
N375 N 0.58897 0.23518 0.7735 0.0
H376 H 0.50545 0.24021 0.77216 0.0
H377 H 0.538 0.24042 0.68855 0.0
H378 H 0.61067 0.23249 0.76586 0.0
H379 H 0.58891 0.25288 0.71394 0.0
H380 H 0.51447 0.18565 0.25252 0.0
H381 H 0.48968 0.20176 0.19208 0.0
H382 H 0.53449 0.15473 0.20067 0.0
H383 H 0.57102 0.16066 0.12549 0.0
C384 C 0.33907 0.57197 0.91939 0.0
C385 C 0.36127 0.5761 0.01631 0.0
C386 C 0.31615 0.52247 0.10421 0.0
C387 C 0.29569 0.51607 -0.00048 0.0
N388 N 0.29019 0.5322 0.79846 0.0
N389 N 0.37301 0.55364 0.19464 0.0
C390 C 0.30762 0.5403 0.90496 0.0
C391 C 0.35031 0.55101 0.10753 0.0
N392 N 0.34805 0.59844 0.84145 0.0
N393 N 0.30269 0.50181 0.20186 0.0
H394 H 0.39809 0.57444 0.20182 0.0
H395 H 0.36787 0.534 0.25461 0.0
H396 H 0.27795 0.48038 0.20333 0.0
H397 H 0.31488 0.50759 0.28499 0.0
H398 H 0.3314 0.59831 0.77603 0.0
H399 H 0.37104 0.62189 0.84944 0.0
H400 H 0.29957 0.54737 0.72245 0.0
H401 H 0.26797 0.50865 0.78202 0.0
C402 C 0.81703 0.35755 0.04871 0.0
C403 C 0.8131 0.37491 0.95 0.0
C404 C 0.79418 0.32386 0.82425 0.0
C405 C 0.80105 0.30758 0.92036 0.0
N406 N 0.82481 0.31108 0.11782 0.0
N407 N 0.80204 0.37697 0.74025 0.0
C408 C 0.81417 0.32504 0.03084 0.0
C409 C 0.8025 0.35863 0.83682 0.0
N410 N 0.82261 0.37181 0.16029 0.0
N411 N 0.78031 0.30628 0.72023 0.0
H412 H 0.80763 0.40238 0.74622 0.0
H413 H 0.79845 0.36799 0.65272 0.0
H414 H 0.777 0.28206 0.70379 0.0
H415 H 0.77063 0.3149 0.65241 0.0
H416 H 0.82183 0.35874 0.2379 0.0
H417 H 0.82485 0.39566 0.17668 0.0
H418 H 0.83829 0.32446 0.19405 0.0
H419 H 0.82258 0.287 0.11052 0.0
C420 C 0.48301 0.8498 0.96429 0.0
C421 C 0.45125 0.82712 0.0203 0.0
C422 C 0.47688 0.79544 0.10904 0.0
C423 C 0.50711 0.8152 0.04034 0.0
N424 N 0.53761 0.8587 0.89107 0.0
N425 N 0.41623 0.77604 0.13558 0.0
C426 C 0.51003 0.842 0.96568 0.0
C427 C 0.44774 0.79939 0.09044 0.0
N428 N 0.48743 0.87903 0.91099 0.0
N429 N 0.47636 0.77356 0.19462 0.0
H430 H 0.39435 0.77835 0.12573 0.0
H431 H 0.4111 0.75302 0.17494 0.0
H432 H 0.4973 0.77019 0.21197 0.0
H433 H 0.45652 0.76125 0.25609 0.0
H434 H 0.51111 0.89842 0.87964 0.0
H435 H 0.46804 0.88535 0.90743 0.0
H436 H 0.53907 0.8755 0.82454 0.0
H437 H 0.55793 0.85377 0.88861 0.0
C438 C 0.6871 0.47675 0.121 0.0
C439 C 0.70563 0.48703 0.01203 0.0
C440 C 0.65497 0.44242 0.90396 0.0
C441 C 0.63699 0.43152 0.01367 0.0
N442 N 0.63777 0.43284 0.22855 0.0
N443 N 0.70941 0.47723 0.80227 0.0
C444 C 0.65369 0.44702 0.12288 0.0
C445 C 0.69033 0.46885 0.9044 0.0
N446 N 0.70101 0.49597 0.2222 0.0
N447 N 0.63772 0.42869 0.79897 0.0
H448 H 0.73455 0.4979 0.797 0.0
H449 H 0.70119 0.46255 0.72444 0.0
H450 H 0.61201 0.40897 0.79527 0.0
H451 H 0.64799 0.43818 0.7152 0.0
H452 H 0.68722 0.49223 0.30062 0.0
H453 H 0.72574 0.5174 0.22584 0.0
H454 H 0.64994 0.44063 0.31142 0.0
H455 H 0.61324 0.41106 0.23303 0.0
C456 C 0.2058 0.45118 0.54374 0.0
C457 C 0.19718 0.42065 0.60633 0.0
C458 C 0.18553 0.3891 0.41807 0.0
C459 C 0.19776 0.42043 0.35472 0.0
N460 N 0.22636 0.48265 0.35953 0.0
N461 N 0.18446 0.36188 0.60546 0.0
C462 C 0.20965 0.45189 0.41803 0.0
C463 C 0.18887 0.39003 0.5442 0.0
N464 N 0.21024 0.47953 0.60423 0.0
N465 N 0.16907 0.35828 0.35899 0.0
H466 H 0.1859 0.36133 0.69825 0.0
H467 H 0.18222 0.34014 0.56389 0.0
H468 H 0.16492 0.35604 0.26705 0.0
H469 H 0.15634 0.33469 0.40245 0.0
H470 H 0.2126 0.50119 0.56195 0.0
H471 H 0.20884 0.48042 0.69693 0.0
H472 H 0.23896 0.50629 0.4034 0.0
H473 H 0.23081 0.48484 0.26801 0.0
C474 C 0.76826 0.22165 0.45809 0.0
C475 C 0.78434 0.20601 0.51966 0.0
C476 C 0.79372 0.18501 0.33087 0.0
C477 C 0.78297 0.20544 0.26798 0.0
N478 N 0.76458 0.24772 0.27502 0.0
N479 N 0.81575 0.17559 0.5161 0.0
C480 C 0.77139 0.22499 0.33232 0.0
C481 C 0.79834 0.18873 0.45642 0.0
N482 N 0.7491 0.23239 0.51917 0.0
N483 N 0.79702 0.16024 0.27217 0.0
H484 H 0.81859 0.17679 0.60879 0.0
H485 H 0.82957 0.1659 0.47278 0.0
H486 H 0.79048 0.15444 0.18242 0.0
H487 H 0.80188 0.14262 0.31534 0.0
H488 H 0.73394 0.24085 0.47726 0.0
H489 H 0.74548 0.22947 0.61118 0.0
H490 H 0.76005 0.26528 0.32021 0.0
H491 H 0.76654 0.25152 0.18322 0.0
C492 C 0.60662 0.78016 0.61126 0.0
C493 C 0.5843 0.7885 0.67343 0.0
C494 C 0.5627 0.79733 0.48289 0.0
C495 C 0.58241 0.78561 0.42122 0.0
N496 N 0.61877 0.76038 0.42659 0.0
N497 N 0.53675 0.79924 0.66976 0.0
C498 C 0.6032 0.77551 0.48539 0.0
C499 C 0.56114 0.79556 0.60966 0.0
N500 N 0.632 0.778 0.67188 0.0
N501 N 0.54664 0.81149 0.42079 0.0
H502 H 0.53448 0.79769 0.76241 0.0
H503 H 0.51684 0.80077 0.62742 0.0
H504 H 0.54776 0.81388 0.32813 0.0
H505 H 0.53492 0.82374 0.46159 0.0
H506 H 0.65131 0.77555 0.62993 0.0
H507 H 0.63581 0.78194 0.76374 0.0
H508 H 0.63119 0.74914 0.46999 0.0
H509 H 0.6166 0.75617 0.33462 0.0
C510 C 0.8165 0.61165 0.5784 0.0
C511 C 0.80801 0.58105 0.64048 0.0
C512 C 0.79472 0.54926 0.45241 0.0
C513 C 0.80634 0.58054 0.38913 0.0
N514 N 0.83481 0.64272 0.39252 0.0
N515 N 0.79427 0.52195 0.63896 0.0
C516 C 0.81892 0.61211 0.45216 0.0
C517 C 0.79889 0.55027 0.57815 0.0
N518 N 0.82206 0.64023 0.64001 0.0
N519 N 0.77792 0.51838 0.39375 0.0
H520 H 0.7957 0.5212 0.73173 0.0
H521 H 0.79164 0.50011 0.59706 0.0
H522 H 0.77343 0.516 0.30205 0.0
H523 H 0.76537 0.49481 0.43738 0.0
H524 H 0.82419 0.66195 0.599 0.0
H525 H 0.82201 0.64135 0.73295 0.0
H526 H 0.8479 0.66649 0.43537 0.0
H527 H 0.83805 0.64467 0.30035 0.0
C528 C 0.24667 0.82575 0.38153 0.0
C529 C 0.22267 0.79533 0.31964 0.0
C530 C 0.19813 0.7666 0.50913 0.0
C531 C 0.22401 0.79594 0.57027 0.0
N532 N 0.27538 0.85194 0.56842 0.0
N533 N 0.17929 0.73499 0.32298 0.0
C534 C 0.24915 0.82502 0.50753 0.0
C535 C 0.19925 0.76525 0.38289 0.0
N536 N 0.2658 0.85582 0.32062 0.0
N537 N 0.17234 0.74012 0.57169 0.0
H538 H 0.1793 0.7327 0.23043 0.0
H539 H 0.16486 0.7114 0.36525 0.0
H540 H 0.17149 0.73936 0.66471 0.0
H541 H 0.15048 0.71997 0.53165 0.0
H542 H 0.28064 0.87959 0.36214 0.0
H543 H 0.26453 0.85785 0.22833 0.0
H544 H 0.29682 0.87193 0.52698 0.0
H545 H 0.27703 0.85328 0.66137 0.0
C546 C 0.43635 0.20163 0.55889 0.0
C547 C 0.42642 0.22285 0.6208 0.0
C548 C 0.41975 0.24565 0.43061 0.0
C549 C 0.42592 0.22175 0.36958 0.0
N550 N 0.43435 0.17296 0.37358 0.0
N551 N 0.40098 0.25914 0.61402 0.0
C552 C 0.43237 0.19842 0.4331 0.0
C553 C 0.41613 0.24341 0.5564 0.0
N554 N 0.45107 0.18579 0.61904 0.0
N555 N 0.41743 0.27055 0.36868 0.0
H556 H 0.39632 0.25703 0.70548 0.0
H557 H 0.38968 0.27131 0.56939 0.0
H558 H 0.41895 0.27244 0.27588 0.0
H559 H 0.41671 0.29091 0.40999 0.0
H560 H 0.46224 0.17326 0.5764 0.0
H561 H 0.45535 0.18793 0.71091 0.0
H562 H 0.43521 0.15292 0.41664 0.0
H563 H 0.43224 0.1702 0.28097 0.0
loop_
_geom_bond_atom_site_label_1
_geom_bond_atom_site_label_2
_geom_bond_distance
_geom_bond_site_symmetry_2
_ccdc_geom_bond_type
Eu0 C9 2.828 1_556 S
Eu0 O11 2.392 . S
Eu0 O13 2.418 . S
Eu0 O18 2.373 . S
Eu0 O21 2.488 . S
Eu0 O22 2.471 1_556 S
Eu0 O23 2.349 1_556 S
Eu1 O10 2.373 . S
Eu1 O14 2.488 . S
Eu1 O15 2.471 1_554 S
Eu1 O16 2.349 1_554 S
Eu1 O19 2.392 . S
Eu1 O20 2.418 . S
Eu1 C30 2.828 1_554 S
C2 O20 1.244 . S
C2 O23 1.265 . S
C3 C4 1.379 . S
C3 C7 1.373 1_554 S
C3 C9 1.505 . S
C4 C3 1.379 . S
C4 C6 1.369 . S
C4 H32 0.930 . S
C5 C7 1.383 . S
C5 C8 1.382 1_556 S
C5 H33 0.930 . S
C6 C4 1.369 . S
C6 C8 1.392 . S
C6 H34 0.930 . S
C7 C3 1.373 1_556 S
C7 C5 1.383 . S
C7 H35 0.931 . S
C8 C5 1.382 1_554 S
C8 C6 1.392 . S
C9 Eu0 2.828 1_554 S
C9 C3 1.505 . S
C9 O21 1.249 1_554 S
C9 O22 1.244 . S
O10 Eu1 2.373 . S
O10 C12 1.258 . S
O11 Eu0 2.392 . S
O11 C12 1.242 1_556 S
C12 O10 1.258 . S
C12 O11 1.242 1_554 S
O13 Eu0 2.418 . S
O13 C17 1.244 . S
O14 Eu1 2.488 . S
O14 C30 1.249 1_554 S
O15 Eu1 2.471 1_556 S
O15 C30 1.244 . S
O16 Eu1 2.349 1_556 S
O16 C17 1.265 . S
C17 O13 1.244 . S
C17 O16 1.265 . S
O18 Eu0 2.373 . S
O18 C31 1.258 . S
O19 Eu1 2.392 . S
O19 C31 1.242 1_554 S
O20 Eu1 2.418 . S
O20 C2 1.244 . S
O21 Eu0 2.488 . S
O21 C9 1.249 1_556 S
O22 Eu0 2.471 1_554 S
O22 C9 1.244 . S
O23 Eu0 2.349 1_554 S
O23 C2 1.265 . S
C24 C25 1.379 . S
C24 C28 1.373 1_556 S
C24 C30 1.505 . S
C25 C24 1.379 . S
C25 C27 1.369 . S
C25 H36 0.930 . S
C26 C28 1.383 . S
C26 C29 1.382 1_554 S
C26 H37 0.930 . S
C27 C25 1.369 . S
C27 C29 1.392 . S
C27 H38 0.930 . S
C28 C24 1.373 1_554 S
C28 C26 1.383 . S
C28 H39 0.931 . S
C29 C26 1.382 1_556 S
C29 C27 1.392 . S
C30 Eu1 2.828 1_556 S
C30 O14 1.249 1_556 S
C30 O15 1.244 . S
C30 C24 1.505 . S
C31 O18 1.258 . S
C31 O19 1.242 1_556 S
H32 C4 0.930 . S
H33 C5 0.930 . S
H34 C6 0.930 . S
H35 C7 0.931 . S
H36 C25 0.930 . S
H37 C26 0.930 . S
H38 C27 0.930 . S
H39 C28 0.931 . S
Eu40 C49 2.828 1_556 S
Eu40 O51 2.392 . S
Eu40 O53 2.418 . S
Eu40 O58 2.373 . S
Eu40 O61 2.488 . S
Eu40 O62 2.471 1_556 S
Eu40 O63 2.349 1_556 S
Eu41 O50 2.373 . S
Eu41 O54 2.488 . S
Eu41 O55 2.471 1_554 S
Eu41 O56 2.349 1_554 S
Eu41 O59 2.392 . S
Eu41 O60 2.418 . S
Eu41 C70 2.828 1_554 S
C42 O60 1.244 . S
C42 O63 1.265 . S
C43 C44 1.379 . S
C43 C47 1.373 1_554 S
C43 C49 1.505 . S
C44 C43 1.379 . S
C44 C46 1.369 . S
C44 H72 0.930 . S
C45 C47 1.383 . S
C45 C48 1.382 1_556 S
C45 H73 0.929 . S
C46 C44 1.369 . S
C46 C48 1.392 . S
C46 H74 0.930 . S
C47 C43 1.373 1_556 S
C47 C45 1.383 . S
C47 H75 0.931 . S
C48 C45 1.382 1_554 S
C48 C46 1.392 . S
C49 Eu40 2.828 1_554 S
C49 C43 1.505 . S
C49 O61 1.249 1_554 S
C49 O62 1.244 . S
O50 Eu41 2.373 . S
O50 C52 1.258 . S
O51 Eu40 2.392 . S
O51 C52 1.242 1_556 S
C52 O50 1.258 . S
C52 O51 1.242 1_554 S
O53 Eu40 2.418 . S
O53 C57 1.244 . S
O54 Eu41 2.488 . S
O54 C70 1.249 1_554 S
O55 Eu41 2.471 1_556 S
O55 C70 1.244 . S
O56 Eu41 2.349 1_556 S
O56 C57 1.265 . S
C57 O53 1.244 . S
C57 O56 1.265 . S
O58 Eu40 2.373 . S
O58 C71 1.258 . S
O59 Eu41 2.392 . S
O59 C71 1.242 1_554 S
O60 Eu41 2.418 . S
O60 C42 1.244 . S
O61 Eu40 2.488 . S
O61 C49 1.249 1_556 S
O62 Eu40 2.471 1_554 S
O62 C49 1.244 . S
O63 Eu40 2.349 1_554 S
O63 C42 1.265 . S
C64 C65 1.379 . S
C64 C68 1.373 1_556 S
C64 C70 1.505 . S
C65 C64 1.379 . S
C65 C67 1.369 . S
C65 H76 0.930 . S
C66 C68 1.383 . S
C66 C69 1.382 1_554 S
C66 H77 0.930 . S
C67 C65 1.369 . S
C67 C69 1.392 . S
C67 H78 0.930 . S
C68 C64 1.373 1_554 S
C68 C66 1.383 . S
C68 H79 0.931 . S
C69 C66 1.382 1_556 S
C69 C67 1.392 . S
C70 Eu41 2.828 1_556 S
C70 O54 1.249 1_556 S
C70 O55 1.244 . S
C70 C64 1.505 . S
C71 O58 1.258 . S
C71 O59 1.242 1_556 S
H72 C44 0.930 . S
H73 C45 0.929 . S
H74 C46 0.930 . S
H75 C47 0.931 . S
H76 C65 0.930 . S
H77 C66 0.930 . S
H78 C67 0.930 . S
H79 C68 0.931 . S
Eu80 C89 2.828 1_556 S
Eu80 O91 2.392 . S
Eu80 O93 2.418 . S
Eu80 O98 2.373 . S
Eu80 O101 2.488 . S
Eu80 O102 2.471 1_556 S
Eu80 O103 2.349 1_556 S
Eu81 O90 2.373 . S
Eu81 O94 2.488 . S
Eu81 O95 2.471 1_554 S
Eu81 O96 2.349 1_554 S
Eu81 O99 2.392 . S
Eu81 O100 2.418 . S
Eu81 C110 2.828 1_554 S
C82 O100 1.244 . S
C82 O103 1.265 . S
C83 C84 1.379 . S
C83 C87 1.373 1_554 S
C83 C89 1.505 . S
C84 C83 1.379 . S
C84 C86 1.369 . S
C84 H112 0.930 . S
C85 C87 1.383 . S
C85 C88 1.382 1_556 S
C85 H113 0.929 . S
C86 C84 1.369 . S
C86 C88 1.392 . S
C86 H114 0.930 . S
C87 C83 1.373 1_556 S
C87 C85 1.383 . S
C87 H115 0.931 . S
C88 C85 1.382 1_554 S
C88 C86 1.392 . S
C89 Eu80 2.828 1_554 S
C89 C83 1.505 . S
C89 O101 1.249 1_554 S
C89 O102 1.244 . S
O90 Eu81 2.373 . S
O90 C92 1.258 . S
O91 Eu80 2.392 . S
O91 C92 1.242 1_556 S
C92 O90 1.258 . S
C92 O91 1.242 1_554 S
O93 Eu80 2.418 . S
O93 C97 1.244 . S
O94 Eu81 2.488 . S
O94 C110 1.249 1_554 S
O95 Eu81 2.471 1_556 S
O95 C110 1.244 . S
O96 Eu81 2.349 1_556 S
O96 C97 1.265 . S
C97 O93 1.244 . S
C97 O96 1.265 . S
O98 Eu80 2.373 . S
O98 C111 1.258 . S
O99 Eu81 2.392 . S
O99 C111 1.242 1_554 S
O100 Eu81 2.418 . S
O100 C82 1.244 . S
O101 Eu80 2.488 . S
O101 C89 1.249 1_556 S
O102 Eu80 2.471 1_554 S
O102 C89 1.244 . S
O103 Eu80 2.349 1_554 S
O103 C82 1.265 . S
C104 C105 1.379 . S
C104 C108 1.373 1_556 S
C104 C110 1.505 . S
C105 C104 1.379 . S
C105 C107 1.369 . S
C105 H116 0.930 . S
C106 C108 1.383 . S
C106 C109 1.382 1_554 S
C106 H117 0.930 . S
C107 C105 1.369 . S
C107 C109 1.392 . S
C107 H118 0.930 . S
C108 C104 1.373 1_554 S
C108 C106 1.383 . S
C108 H119 0.931 . S
C109 C106 1.382 1_556 S
C109 C107 1.392 . S
C110 Eu81 2.828 1_556 S
C110 O94 1.249 1_556 S
C110 O95 1.244 . S
C110 C104 1.505 . S
C111 O98 1.258 . S
C111 O99 1.242 1_556 S
H112 C84 0.930 . S
H113 C85 0.929 . S
H114 C86 0.930 . S
H115 C87 0.931 . S
H116 C105 0.930 . S
H117 C106 0.930 . S
H118 C107 0.930 . S
H119 C108 0.931 . S
Eu120 C129 2.828 1_556 S
Eu120 O131 2.392 . S
Eu120 O133 2.418 . S
Eu120 O138 2.373 . S
Eu120 O141 2.488 . S
Eu120 O142 2.471 1_556 S
Eu120 O143 2.349 1_556 S
Eu121 O130 2.373 . S
Eu121 O134 2.488 . S
Eu121 O135 2.471 1_554 S
Eu121 O136 2.349 1_554 S
Eu121 O139 2.392 . S
Eu121 O140 2.418 . S
Eu121 C150 2.828 1_554 S
C122 O140 1.244 . S
C122 O143 1.265 . S
C123 C124 1.379 . S
C123 C127 1.373 1_554 S
C123 C129 1.505 . S
C124 C123 1.379 . S
C124 C126 1.369 . S
C124 H152 0.930 . S
C125 C127 1.383 . S
C125 C128 1.382 1_556 S
C125 H153 0.930 . S
C126 C124 1.369 . S
C126 C128 1.392 . S
C126 H154 0.930 . S
C127 C123 1.373 1_556 S
C127 C125 1.383 . S
C127 H155 0.931 . S
C128 C125 1.382 1_554 S
C128 C126 1.392 . S
C129 Eu120 2.828 1_554 S
C129 C123 1.505 . S
C129 O141 1.249 1_554 S
C129 O142 1.244 . S
O130 Eu121 2.373 . S
O130 C132 1.258 . S
O131 Eu120 2.392 . S
O131 C132 1.242 1_556 S
C132 O130 1.258 . S
C132 O131 1.242 1_554 S
O133 Eu120 2.418 . S
O133 C137 1.244 . S
O134 Eu121 2.488 . S
O134 C150 1.249 1_554 S
O135 Eu121 2.471 1_556 S
O135 C150 1.244 . S
O136 Eu121 2.349 1_556 S
O136 C137 1.265 . S
C137 O133 1.244 . S
C137 O136 1.265 . S
O138 Eu120 2.373 . S
O138 C151 1.258 . S
O139 Eu121 2.392 . S
O139 C151 1.242 1_554 S
O140 Eu121 2.418 . S
O140 C122 1.244 . S
O141 Eu120 2.488 . S
O141 C129 1.249 1_556 S
O142 Eu120 2.471 1_554 S
O142 C129 1.244 . S
O143 Eu120 2.349 1_554 S
O143 C122 1.265 . S
C144 C145 1.379 . S
C144 C148 1.373 1_556 S
C144 C150 1.505 . S
C145 C144 1.379 . S
C145 C147 1.369 . S
C145 H156 0.930 . S
C146 C148 1.383 . S
C146 C149 1.382 1_554 S
C146 H157 0.930 . S
C147 C145 1.369 . S
C147 C149 1.392 . S
C147 H158 0.930 . S
C148 C144 1.373 1_554 S
C148 C146 1.383 . S
C148 H159 0.931 . S
C149 C146 1.382 1_556 S
C149 C147 1.392 . S
C150 Eu121 2.828 1_556 S
C150 O134 1.249 1_556 S
C150 O135 1.244 . S
C150 C144 1.505 . S
C151 O138 1.258 . S
C151 O139 1.242 1_556 S
H152 C124 0.930 . S
H153 C125 0.930 . S
H154 C126 0.930 . S
H155 C127 0.931 . S
H156 C145 0.930 . S
H157 C146 0.930 . S
H158 C147 0.930 . S
H159 C148 0.931 . S
Eu160 C169 2.828 1_556 S
Eu160 O171 2.392 . S
Eu160 O173 2.418 . S
Eu160 O178 2.373 . S
Eu160 O181 2.488 . S
Eu160 O182 2.471 1_556 S
Eu160 O183 2.349 1_556 S
Eu161 O170 2.373 . S
Eu161 O174 2.488 . S
Eu161 O175 2.471 1_554 S
Eu161 O176 2.349 1_554 S
Eu161 O179 2.392 . S
Eu161 O180 2.418 . S
Eu161 C190 2.828 1_554 S
C162 O180 1.244 . S
C162 O183 1.265 . S
C163 C164 1.379 . S
C163 C167 1.373 1_554 S
C163 C169 1.505 . S
C164 C163 1.379 . S
C164 C166 1.369 . S
C164 H192 0.930 . S
C165 C167 1.383 . S
C165 C168 1.382 1_556 S
C165 H193 0.929 . S
C166 C164 1.369 . S
C166 C168 1.392 . S
C166 H194 0.930 . S
C167 C163 1.373 1_556 S
C167 C165 1.383 . S
C167 H195 0.931 . S
C168 C165 1.382 1_554 S
C168 C166 1.392 . S
C169 Eu160 2.828 1_554 S
C169 C163 1.505 . S
C169 O181 1.249 1_554 S
C169 O182 1.244 . S
O170 Eu161 2.373 . S
O170 C172 1.258 . S
O171 Eu160 2.392 . S
O171 C172 1.242 1_556 S
C172 O170 1.258 . S
C172 O171 1.242 1_554 S
O173 Eu160 2.418 . S
O173 C177 1.244 . S
O174 Eu161 2.488 . S
O174 C190 1.249 1_554 S
O175 Eu161 2.471 1_556 S
O175 C190 1.244 . S
O176 Eu161 2.349 1_556 S
O176 C177 1.265 . S
C177 O173 1.244 . S
C177 O176 1.265 . S
O178 Eu160 2.373 . S
O178 C191 1.258 . S
O179 Eu161 2.392 . S
O179 C191 1.242 1_554 S
O180 Eu161 2.418 . S
O180 C162 1.244 . S
O181 Eu160 2.488 . S
O181 C169 1.249 1_556 S
O182 Eu160 2.471 1_554 S
O182 C169 1.244 . S
O183 Eu160 2.349 1_554 S
O183 C162 1.265 . S
C184 C185 1.379 . S
C184 C188 1.373 1_556 S
C184 C190 1.505 . S
C185 C184 1.379 . S
C185 C187 1.369 . S
C185 H196 0.930 . S
C186 C188 1.383 . S
C186 C189 1.382 1_554 S
C186 H197 0.930 . S
C187 C185 1.369 . S
C187 C189 1.392 . S
C187 H198 0.930 . S
C188 C184 1.373 1_554 S
C188 C186 1.383 . S
C188 H199 0.931 . S
C189 C186 1.382 1_556 S
C189 C187 1.392 . S
C190 Eu161 2.828 1_556 S
C190 O174 1.249 1_556 S
C190 O175 1.244 . S
C190 C184 1.505 . S
C191 O178 1.258 . S
C191 O179 1.242 1_556 S
H192 C164 0.930 . S
H193 C165 0.929 . S
H194 C166 0.930 . S
H195 C167 0.931 . S
H196 C185 0.930 . S
H197 C186 0.930 . S
H198 C187 0.930 . S
H199 C188 0.931 . S
Eu200 C209 2.828 1_556 S
Eu200 O211 2.392 . S
Eu200 O213 2.418 . S
Eu200 O218 2.373 . S
Eu200 O221 2.488 . S
Eu200 O222 2.471 1_556 S
Eu200 O223 2.349 1_556 S
Eu201 O210 2.373 . S
Eu201 O214 2.488 . S
Eu201 O215 2.471 1_554 S
Eu201 O216 2.349 1_554 S
Eu201 O219 2.392 . S
Eu201 O220 2.418 . S
Eu201 C230 2.828 1_554 S
C202 O220 1.244 . S
C202 O223 1.265 . S
C203 C204 1.379 . S
C203 C207 1.373 1_554 S
C203 C209 1.505 . S
C204 C203 1.379 . S
C204 C206 1.369 . S
C204 H232 0.930 . S
C205 C207 1.383 . S
C205 C208 1.382 1_556 S
C205 H233 0.929 . S
C206 C204 1.369 . S
C206 C208 1.392 . S
C206 H234 0.930 . S
C207 C203 1.373 1_556 S
C207 C205 1.383 . S
C207 H235 0.931 . S
C208 C205 1.382 1_554 S
C208 C206 1.392 . S
C209 Eu200 2.828 1_554 S
C209 C203 1.505 . S
C209 O221 1.249 1_554 S
C209 O222 1.244 . S
O210 Eu201 2.373 . S
O210 C212 1.258 . S
O211 Eu200 2.392 . S
O211 C212 1.242 1_556 S
C212 O210 1.258 . S
C212 O211 1.242 1_554 S
O213 Eu200 2.418 . S
O213 C217 1.244 . S
O214 Eu201 2.488 . S
O214 C230 1.249 1_554 S
O215 Eu201 2.471 1_556 S
O215 C230 1.244 . S
O216 Eu201 2.349 1_556 S
O216 C217 1.265 . S
C217 O213 1.244 . S
C217 O216 1.265 . S
O218 Eu200 2.373 . S
O218 C231 1.258 . S
O219 Eu201 2.392 . S
O219 C231 1.242 1_554 S
O220 Eu201 2.418 . S
O220 C202 1.244 . S
O221 Eu200 2.488 . S
O221 C209 1.249 1_556 S
O222 Eu200 2.471 1_554 S
O222 C209 1.244 . S
O223 Eu200 2.349 1_554 S
O223 C202 1.265 . S
C224 C225 1.379 . S
C224 C228 1.373 1_556 S
C224 C230 1.505 . S
C225 C224 1.379 . S
C225 C227 1.369 . S
C225 H236 0.930 . S
C226 C228 1.383 . S
C226 C229 1.382 1_554 S
C226 H237 0.930 . S
C227 C225 1.369 . S
C227 C229 1.392 . S
C227 H238 0.930 . S
C228 C224 1.373 1_554 S
C228 C226 1.383 . S
C228 H239 0.931 . S
C229 C226 1.382 1_556 S
C229 C227 1.392 . S
C230 Eu201 2.828 1_556 S
C230 O214 1.249 1_556 S
C230 O215 1.244 . S
C230 C224 1.505 . S
C231 O218 1.258 . S
C231 O219 1.242 1_556 S
H232 C204 0.930 . S
H233 C205 0.929 . S
H234 C206 0.930 . S
H235 C207 0.931 . S
H236 C225 0.930 . S
H237 C226 0.930 . S
H238 C227 0.930 . S
H239 C228 0.931 . S
C240 C241 1.363 . S
C240 C246 1.379 . S
C240 N248 1.356 . S
C241 C240 1.363 . S
C241 C247 1.363 1_554 S
C242 C243 1.363 1_556 S
C242 C247 1.379 . S
C242 N249 1.356 . S
C243 C242 1.363 1_554 S
C243 C246 1.363 . S
N244 C246 1.356 . S
N244 H256 0.984 . S
N244 H257 0.985 . S
N245 C247 1.356 . S
N245 H250 0.984 . S
N245 H251 0.985 . S
C246 C240 1.379 . S
C246 C243 1.363 . S
C246 N244 1.356 . S
C247 C241 1.363 1_556 S
C247 C242 1.379 . S
C247 N245 1.356 . S
N248 C240 1.356 . S
N248 H254 0.984 . S
N248 H255 0.984 . S
N249 C242 1.356 . S
N249 H252 0.984 . S
N249 H253 0.985 . S
H250 N245 0.984 . S
H251 N245 0.985 . S
H252 N249 0.984 . S
H253 N249 0.985 . S
H254 N248 0.984 . S
H255 N248 0.984 . S
H256 N244 0.984 . S
H257 N244 0.985 . S
C258 C259 1.363 1_556 S
C258 C264 1.379 . S
C258 N266 1.356 . S
C259 C258 1.363 1_554 S
C259 C265 1.363 . S
C260 C261 1.363 . S
C260 C265 1.379 . S
C260 N267 1.356 . S
C261 C260 1.363 . S
C261 C264 1.363 1_554 S
N262 C264 1.356 . S
N262 H274 0.984 . S
N262 H275 0.985 1_455 S
N263 C265 1.356 . S
N263 H268 0.984 . S
N263 H269 0.985 . S
C264 C258 1.379 . S
C264 C261 1.363 1_556 S
C264 N262 1.356 . S
C265 C259 1.363 . S
C265 C260 1.379 . S
C265 N263 1.356 . S
N266 C258 1.356 . S
N266 H272 0.984 . S
N266 H273 0.984 . S
N267 C260 1.356 . S
N267 H270 0.984 . S
N267 H271 0.985 . S
H268 N263 0.984 . S
H269 N263 0.985 . S
H270 N267 0.984 . S
H271 N267 0.985 . S
H272 N266 0.984 . S
H273 N266 0.984 . S
H274 N262 0.984 . S
H275 N262 0.985 1_655 S
C276 C277 1.363 . S
C276 C282 1.379 . S
C276 N284 1.356 . S
C277 C276 1.363 . S
C277 C283 1.363 1_554 S
C278 C279 1.363 1_556 S
C278 C283 1.379 . S
C278 N285 1.356 . S
C279 C278 1.363 1_554 S
C279 C282 1.363 . S
N280 C282 1.356 . S
N280 H292 0.984 . S
N280 H293 0.985 . S
N281 C283 1.356 . S
N281 H286 0.984 . S
N281 H287 0.985 . S
C282 C276 1.379 . S
C282 C279 1.363 . S
C282 N280 1.356 . S
C283 C277 1.363 1_556 S
C283 C278 1.379 . S
C283 N281 1.356 . S
N284 C276 1.356 . S
N284 H290 0.984 . S
N284 H291 0.984 . S
N285 C278 1.356 . S
N285 H288 0.984 1_545 S
N285 H289 0.985 1_545 S
H286 N281 0.984 . S
H287 N281 0.985 . S
H288 N285 0.984 1_565 S
H289 N285 0.985 1_565 S
H290 N284 0.984 . S
H291 N284 0.984 . S
H292 N280 0.984 . S
H293 N280 0.985 . S
C294 C295 1.363 . S
C294 C300 1.379 . S
C294 N302 1.356 . S
C295 C294 1.363 . S
C295 C301 1.363 1_554 S
C296 C297 1.363 1_556 S
C296 C301 1.379 . S
C296 N303 1.356 . S
C297 C296 1.363 1_554 S
C297 C300 1.363 . S
N298 C300 1.356 . S
N298 H310 0.984 . S
N298 H311 0.985 . S
N299 C301 1.356 . S
N299 H304 0.984 . S
N299 H305 0.985 . S
C300 C294 1.379 . S
C300 C297 1.363 . S
C300 N298 1.356 . S
C301 C295 1.363 1_556 S
C301 C296 1.379 . S
C301 N299 1.356 . S
N302 C294 1.356 . S
N302 H308 0.984 . S
N302 H309 0.984 . S
N303 C296 1.356 . S
N303 H306 0.984 . S
N303 H307 0.985 . S
H304 N299 0.984 . S
H305 N299 0.985 . S
H306 N303 0.984 . S
H307 N303 0.985 . S
H308 N302 0.984 . S
H309 N302 0.984 . S
H310 N298 0.984 . S
H311 N298 0.985 . S
C312 C313 1.363 . S
C312 C318 1.379 . S
C312 N320 1.356 . S
C313 C312 1.363 . S
C313 C319 1.363 1_554 S
C314 C315 1.363 1_556 S
C314 C319 1.379 . S
C314 N321 1.356 . S
C315 C314 1.363 1_554 S
C315 C318 1.363 . S
N316 C318 1.356 . S
N316 H328 0.984 . S
N316 H329 0.985 . S
N317 C319 1.356 . S
N317 H322 0.984 . S
N317 H323 0.985 . S
C318 C312 1.379 . S
C318 C315 1.363 . S
C318 N316 1.356 . S
C319 C313 1.363 1_556 S
C319 C314 1.379 . S
C319 N317 1.356 . S
N320 C312 1.356 . S
N320 H326 0.984 . S
N320 H327 0.984 1_655 S
N321 C314 1.356 . S
N321 H324 0.984 . S
N321 H325 0.985 . S
H322 N317 0.984 . S
H323 N317 0.985 . S
H324 N321 0.984 . S
H325 N321 0.985 . S
H326 N320 0.984 . S
H327 N320 0.984 1_455 S
H328 N316 0.984 . S
H329 N316 0.985 . S
C330 C331 1.363 . S
C330 C336 1.379 . S
C330 N338 1.356 . S
C331 C330 1.363 . S
C331 C337 1.363 1_554 S
C332 C333 1.363 1_556 S
C332 C337 1.379 . S
C332 N339 1.356 . S
C333 C332 1.363 1_554 S
C333 C336 1.363 . S
N334 C336 1.356 . S
N334 H346 0.984 . S
N334 H347 0.985 . S
N335 C337 1.356 . S
N335 H340 0.984 . S
N335 H341 0.985 . S
C336 C330 1.379 . S
C336 C333 1.363 . S
C336 N334 1.356 . S
C337 C331 1.363 1_556 S
C337 C332 1.379 . S
C337 N335 1.356 . S
N338 C330 1.356 . S
N338 H344 0.984 . S
N338 H345 0.984 . S
N339 C332 1.356 . S
N339 H342 0.984 1_565 S
N339 H343 0.985 1_565 S
H340 N335 0.984 . S
H341 N335 0.985 . S
H342 N339 0.984 1_545 S
H343 N339 0.985 1_545 S
H344 N338 0.984 . S
H345 N338 0.984 . S
H346 N334 0.984 . S
H347 N334 0.985 . S
C348 C349 1.363 . S
C348 C354 1.379 . S
C348 N356 1.356 . S
C349 C348 1.363 . S
C349 C355 1.363 1_556 S
C350 C351 1.363 1_554 S
C350 C355 1.379 . S
C350 N357 1.356 . S
C351 C350 1.363 1_556 S
C351 C354 1.363 . S
N352 C354 1.356 . S
N352 H364 0.984 . S
N352 H365 0.985 . S
N353 C355 1.356 . S
N353 H358 0.984 . S
N353 H359 0.985 . S
C354 C348 1.379 . S
C354 C351 1.363 . S
C354 N352 1.356 . S
C355 C349 1.363 1_554 S
C355 C350 1.379 . S
C355 N353 1.356 . S
N356 C348 1.356 . S
N356 H362 0.984 . S
N356 H363 0.984 . S
N357 C350 1.356 . S
N357 H360 0.984 . S
N357 H361 0.985 . S
H358 N353 0.984 . S
H359 N353 0.985 . S
H360 N357 0.984 . S
H361 N357 0.985 . S
H362 N356 0.984 . S
H363 N356 0.984 . S
H364 N352 0.984 . S
H365 N352 0.985 . S
C366 C367 1.363 1_554 S
C366 C372 1.379 . S
C366 N374 1.356 . S
C367 C366 1.363 1_556 S
C367 C373 1.363 . S
C368 C369 1.363 . S
C368 C373 1.379 . S
C368 N375 1.356 . S
C369 C368 1.363 . S
C369 C372 1.363 1_556 S
N370 C372 1.356 . S
N370 H382 0.984 . S
N370 H383 0.985 1_554 S
N371 C373 1.356 . S
N371 H376 0.984 . S
N371 H377 0.985 . S
C372 C366 1.379 . S
C372 C369 1.363 1_554 S
C372 N370 1.356 . S
C373 C367 1.363 . S
C373 C368 1.379 . S
C373 N371 1.356 . S
N374 C366 1.356 . S
N374 H380 0.984 . S
N374 H381 0.984 . S
N375 C368 1.356 . S
N375 H378 0.984 . S
N375 H379 0.985 . S
H376 N371 0.984 . S
H377 N371 0.985 . S
H378 N375 0.984 . S
H379 N375 0.985 . S
H380 N374 0.984 . S
H381 N374 0.984 . S
H382 N370 0.984 . S
H383 N370 0.985 1_556 S
C384 C385 1.363 . S
C384 C390 1.379 . S
C384 N392 1.356 . S
C385 C384 1.363 . S
C385 C391 1.363 1_556 S
C386 C387 1.363 1_554 S
C386 C391 1.379 . S
C386 N393 1.356 . S
C387 C386 1.363 1_556 S
C387 C390 1.363 . S
N388 C390 1.356 . S
N388 H400 0.984 . S
N388 H401 0.985 . S
N389 C391 1.356 . S
N389 H394 0.984 . S
N389 H395 0.985 . S
C390 C384 1.379 . S
C390 C387 1.363 . S
C390 N388 1.356 . S
C391 C385 1.363 1_554 S
C391 C386 1.379 . S
C391 N389 1.356 . S
N392 C384 1.356 . S
N392 H398 0.984 . S
N392 H399 0.984 . S
N393 C386 1.356 . S
N393 H396 0.984 . S
N393 H397 0.985 . S
H394 N389 0.984 . S
H395 N389 0.985 . S
H396 N393 0.984 . S
H397 N393 0.985 . S
H398 N392 0.984 . S
H399 N392 0.984 . S
H400 N388 0.984 . S
H401 N388 0.985 . S
C402 C403 1.363 1_554 S
C402 C408 1.379 . S
C402 N410 1.356 . S
C403 C402 1.363 1_556 S
C403 C409 1.363 . S
C404 C405 1.363 . S
C404 C409 1.379 . S
C404 N411 1.356 . S
C405 C404 1.363 . S
C405 C408 1.363 1_556 S
N406 C408 1.356 . S
N406 H418 0.984 . S
N406 H419 0.985 . S
N407 C409 1.356 . S
N407 H412 0.984 . S
N407 H413 0.985 . S
C408 C402 1.379 . S
C408 C405 1.363 1_554 S
C408 N406 1.356 . S
C409 C403 1.363 . S
C409 C404 1.379 . S
C409 N407 1.356 . S
N410 C402 1.356 . S
N410 H416 0.984 . S
N410 H417 0.984 . S
N411 C404 1.356 . S
N411 H414 0.984 . S
N411 H415 0.985 . S
H412 N407 0.984 . S
H413 N407 0.985 . S
H414 N411 0.984 . S
H415 N411 0.985 . S
H416 N410 0.984 . S
H417 N410 0.984 . S
H418 N406 0.984 . S
H419 N406 0.985 . S
C420 C421 1.363 . S
C420 C426 1.379 . S
C420 N428 1.356 . S
C421 C420 1.363 . S
C421 C427 1.363 1_556 S
C422 C423 1.363 1_554 S
C422 C427 1.379 . S
C422 N429 1.356 . S
C423 C422 1.363 1_556 S
C423 C426 1.363 . S
N424 C426 1.356 . S
N424 H436 0.984 . S
N424 H437 0.985 . S
N425 C427 1.356 . S
N425 H430 0.984 . S
N425 H431 0.985 . S
C426 C420 1.379 . S
C426 C423 1.363 . S
C426 N424 1.356 . S
C427 C421 1.363 1_554 S
C427 C422 1.379 . S
C427 N425 1.356 . S
N428 C420 1.356 . S
N428 H434 0.984 . S
N428 H435 0.984 . S
N429 C422 1.356 . S
N429 H432 0.984 . S
N429 H433 0.985 . S
H430 N425 0.984 . S
H431 N425 0.985 . S
H432 N429 0.984 . S
H433 N429 0.985 . S
H434 N428 0.984 . S
H435 N428 0.984 . S
H436 N424 0.984 . S
H437 N424 0.985 . S
C438 C439 1.363 1_554 S
C438 C444 1.379 . S
C438 N446 1.356 . S
C439 C438 1.363 1_556 S
C439 C445 1.363 . S
C440 C441 1.363 . S
C440 C445 1.379 . S
C440 N447 1.356 . S
C441 C440 1.363 . S
C441 C444 1.363 1_556 S
N442 C444 1.356 . S
N442 H454 0.984 . S
N442 H455 0.985 . S
N443 C445 1.356 . S
N443 H448 0.984 . S
N443 H449 0.985 . S
C444 C438 1.379 . S
C444 C441 1.363 1_554 S
C444 N442 1.356 . S
C445 C439 1.363 . S
C445 C440 1.379 . S
C445 N443 1.356 . S
N446 C438 1.356 . S
N446 H452 0.984 . S
N446 H453 0.984 . S
N447 C440 1.356 . S
N447 H450 0.984 . S
N447 H451 0.985 . S
H448 N443 0.984 . S
H449 N443 0.985 . S
H450 N447 0.984 . S
H451 N447 0.985 . S
H452 N446 0.984 . S
H453 N446 0.984 . S
H454 N442 0.984 . S
H455 N442 0.985 . S
C456 C457 1.363 . S
C456 C462 1.379 . S
C456 N464 1.356 . S
C457 C456 1.363 . S
C457 C463 1.363 . S
C458 C459 1.363 . S
C458 C463 1.379 . S
C458 N465 1.356 . S
C459 C458 1.363 . S
C459 C462 1.363 . S
N460 C462 1.356 . S
N460 H472 0.984 . S
N460 H473 0.985 . S
N461 C463 1.356 . S
N461 H466 0.984 . S
N461 H467 0.985 . S
C462 C456 1.379 . S
C462 C459 1.363 . S
C462 N460 1.356 . S
C463 C457 1.363 . S
C463 C458 1.379 . S
C463 N461 1.356 . S
N464 C456 1.356 . S
N464 H470 0.984 . S
N464 H471 0.984 . S
N465 C458 1.356 . S
N465 H468 0.984 . S
N465 H469 0.985 . S
H466 N461 0.984 . S
H467 N461 0.985 . S
H468 N465 0.984 . S
H469 N465 0.985 . S
H470 N464 0.984 . S
H471 N464 0.984 . S
H472 N460 0.984 . S
H473 N460 0.985 . S
C474 C475 1.363 . S
C474 C480 1.379 . S
C474 N482 1.356 . S
C475 C474 1.363 . S
C475 C481 1.363 . S
C476 C477 1.363 . S
C476 C481 1.379 . S
C476 N483 1.356 . S
C477 C476 1.363 . S
C477 C480 1.363 . S
N478 C480 1.356 . S
N478 H490 0.984 . S
N478 H491 0.985 . S
N479 C481 1.356 . S
N479 H484 0.984 . S
N479 H485 0.985 . S
C480 C474 1.379 . S
C480 C477 1.363 . S
C480 N478 1.356 . S
C481 C475 1.363 . S
C481 C476 1.379 . S
C481 N479 1.356 . S
N482 C474 1.356 . S
N482 H488 0.984 . S
N482 H489 0.984 . S
N483 C476 1.356 . S
N483 H486 0.984 . S
N483 H487 0.985 . S
H484 N479 0.984 . S
H485 N479 0.985 . S
H486 N483 0.984 . S
H487 N483 0.985 . S
H488 N482 0.984 . S
H489 N482 0.984 . S
H490 N478 0.984 . S
H491 N478 0.985 . S
C492 C493 1.363 . S
C492 C498 1.379 . S
C492 N500 1.356 . S
C493 C492 1.363 . S
C493 C499 1.363 . S
C494 C495 1.363 . S
C494 C499 1.379 . S
C494 N501 1.356 . S
C495 C494 1.363 . S
C495 C498 1.363 . S
N496 C498 1.356 . S
N496 H508 0.984 . S
N496 H509 0.985 . S
N497 C499 1.356 . S
N497 H502 0.984 . S
N497 H503 0.985 . S
C498 C492 1.379 . S
C498 C495 1.363 . S
C498 N496 1.356 . S
C499 C493 1.363 . S
C499 C494 1.379 . S
C499 N497 1.356 . S
N500 C492 1.356 . S
N500 H506 0.984 . S
N500 H507 0.984 . S
N501 C494 1.356 . S
N501 H504 0.984 . S
N501 H505 0.985 . S
H502 N497 0.984 . S
H503 N497 0.985 . S
H504 N501 0.984 . S
H505 N501 0.985 . S
H506 N500 0.984 . S
H507 N500 0.984 . S
H508 N496 0.984 . S
H509 N496 0.985 . S
C510 C511 1.363 . S
C510 C516 1.379 . S
C510 N518 1.356 . S
C511 C510 1.363 . S
C511 C517 1.363 . S
C512 C513 1.363 . S
C512 C517 1.379 . S
C512 N519 1.356 . S
C513 C512 1.363 . S
C513 C516 1.363 . S
N514 C516 1.356 . S
N514 H526 0.984 . S
N514 H527 0.985 . S
N515 C517 1.356 . S
N515 H520 0.984 . S
N515 H521 0.985 . S
C516 C510 1.379 . S
C516 C513 1.363 . S
C516 N514 1.356 . S
C517 C511 1.363 . S
C517 C512 1.379 . S
C517 N515 1.356 . S
N518 C510 1.356 . S
N518 H524 0.984 . S
N518 H525 0.984 . S
N519 C512 1.356 . S
N519 H522 0.984 . S
N519 H523 0.985 . S
H520 N515 0.984 . S
H521 N515 0.985 . S
H522 N519 0.984 . S
H523 N519 0.985 . S
H524 N518 0.984 . S
H525 N518 0.984 . S
H526 N514 0.984 . S
H527 N514 0.985 . S
C528 C529 1.363 . S
C528 C534 1.379 . S
C528 N536 1.356 . S
C529 C528 1.363 . S
C529 C535 1.363 . S
C530 C531 1.363 . S
C530 C535 1.379 . S
C530 N537 1.356 . S
C531 C530 1.363 . S
C531 C534 1.363 . S
N532 C534 1.356 . S
N532 H544 0.984 . S
N532 H545 0.985 . S
N533 C535 1.356 . S
N533 H538 0.984 . S
N533 H539 0.985 . S
C534 C528 1.379 . S
C534 C531 1.363 . S
C534 N532 1.356 . S
C535 C529 1.363 . S
C535 C530 1.379 . S
C535 N533 1.356 . S
N536 C528 1.356 . S
N536 H542 0.984 . S
N536 H543 0.984 . S
N537 C530 1.356 . S
N537 H540 0.984 . S
N537 H541 0.985 . S
H538 N533 0.984 . S
H539 N533 0.985 . S
H540 N537 0.984 . S
H541 N537 0.985 . S
H542 N536 0.984 . S
H543 N536 0.984 . S
H544 N532 0.984 . S
H545 N532 0.985 . S
C546 C547 1.363 . S
C546 C552 1.379 . S
C546 N554 1.356 . S
C547 C546 1.363 . S
C547 C553 1.363 . S
C548 C549 1.363 . S
C548 C553 1.379 . S
C548 N555 1.356 . S
C549 C548 1.363 . S
C549 C552 1.363 . S
N550 C552 1.356 . S
N550 H562 0.984 . S
N550 H563 0.985 . S
N551 C553 1.356 . S
N551 H556 0.984 . S
N551 H557 0.985 . S
C552 C546 1.379 . S
C552 C549 1.363 . S
C552 N550 1.356 . S
C553 C547 1.363 . S
C553 C548 1.379 . S
C553 N551 1.356 . S
N554 C546 1.356 . S
N554 H560 0.984 . S
N554 H561 0.984 . S
N555 C548 1.356 . S
N555 H558 0.984 . S
N555 H559 0.985 . S
H556 N551 0.984 . S
H557 N551 0.985 . S
H558 N555 0.984 . S
H559 N555 0.985 . S
H560 N554 0.984 . S
H561 N554 0.984 . S
H562 N550 0.984 . S
H563 N550 0.985 . S
C241 C231 2.281 1_554 S
C243 C8 1.856 . S
C259 C31 2.282 1_554 S
C261 C48 1.856 1_455 S
C277 C71 2.282 1_554 S
C279 C88 1.856 1_545 S
C295 C128 1.856 . S
C297 C111 2.281 1_554 S
C313 C168 1.856 1_655 S
C315 C151 2.282 1_554 S
C331 C191 2.282 1_554 S
C333 C208 1.856 1_565 S
C349 C172 1.868 1_556 S
C351 C29 1.838 . S
C367 C212 1.868 1_556 S
C369 C69 1.838 . S
C385 C109 1.838 . S
C387 C12 1.868 1_556 S
C403 C149 1.838 . S
C405 C52 1.868 1_556 S
C421 C189 1.838 . S
C423 C92 1.868 1_556 S
C439 C132 1.868 1_556 S
C441 C229 1.838 . S
C457 C17 1.452 . S
C459 C2 1.452 . S
C475 C57 1.452 . S
C477 C42 1.452 . S
C493 C97 1.452 . S
C495 C82 1.452 . S
C511 C137 1.452 . S
C513 C122 1.452 . S
C529 C162 1.452 . S
C531 C177 1.452 . S
C547 C217 1.452 . S
C549 C202 1.452 . S
