# Generated by pormake.
# Topology uni, (4)-cn, num edge types: 1
# Building blocks:
#     Node 0, Type 0, BuildingBlock: QUQFOY_clean_sbu_3, # of connection points: 4
#     Node 1, Type 0, BuildingBlock: QUQFOY_clean_sbu_3, # of connection points: 4
#     Node 2, Type 0, BuildingBlock: QUQFOY_clean_sbu_3, # of connection points: 4
#     Node 3, Type 0, BuildingBlock: QUQFOY_clean_sbu_3, # of connection points: 4
#     Node 4, Type 0, BuildingBlock: QUQFOY_clean_sbu_3, # of connection points: 4
#     Node 5, Type 0, BuildingBlock: QUQFOY_clean_sbu_3, # of connection points: 4
#     Edge 6, Type (0, 0), BuildingBlock: FUNLAD_clean_linker_1, # of connection points: 2
#     Edge 7, Type (0, 0), BuildingBlock: FUNLAD_clean_linker_1, # of connection points: 2
#     Edge 8, Type (0, 0), BuildingBlock: FUNLAD_clean_linker_1, # of connection points: 2
#     Edge 9, Type (0, 0), BuildingBlock: FUNLAD_clean_linker_1, # of connection points: 2
#     Edge 10, Type (0, 0), BuildingBlock: FUNLAD_clean_linker_1, # of connection points: 2
#     Edge 11, Type (0, 0), BuildingBlock: FUNLAD_clean_linker_1, # of connection points: 2
#     Edge 12, Type (0, 0), BuildingBlock: FUNLAD_clean_linker_1, # of connection points: 2
#     Edge 13, Type (0, 0), BuildingBlock: FUNLAD_clean_linker_1, # of connection points: 2
#     Edge 14, Type (0, 0), BuildingBlock: FUNLAD_clean_linker_1, # of connection points: 2
#     Edge 15, Type (0, 0), BuildingBlock: FUNLAD_clean_linker_1, # of connection points: 2
#     Edge 16, Type (0, 0), BuildingBlock: FUNLAD_clean_linker_1, # of connection points: 2
#     Edge 17, Type (0, 0), BuildingBlock: FUNLAD_clean_linker_1, # of connection points: 2
# Relax obj value: 0.064
# Max RMSD: 0.096
# Mean RMSD: 0.087
data_MOF--net-uni--node1-QUQFOY_clean_sbu_3--edge1-FUNLAD_clean_linker_1
_symmetry_space_group_name_H-M    P1
_symmetry_Int_Tables_number       1
_symmetry_cell_setting            triclinic
loop_
_symmetry_equiv_pos_as_xyz
'x, y, z'
_cell_length_a     41.278026
_cell_length_b     42.209015
_cell_length_c     24.257659
_cell_angle_alpha  89.936386
_cell_angle_beta   90.035458
_cell_angle_gamma 120.1468
loop_
_atom_site_label
_atom_site_type_symbol
_atom_site_fract_x
_atom_site_fract_y
_atom_site_fract_z
_atom_type_partial_charge
C0 C 0.71987 0.11888 0.06836 0.0
O1 O 0.70021 0.13133 0.08869 0.0
Cd2 Cd 0.63728 0.09562 0.12002 0.0
O3 O 0.70693 0.08444 0.06423 0.0
Cd4 Cd 0.64556 0.02898 0.08869 0.0
C5 C 0.59775 0.05158 -0.00028 0.0
O6 O 0.63494 0.04877 0.1781 0.0
O7 O 0.58605 0.00448 0.13995 0.0
O8 O 0.6756 0.9943 0.1196 0.0
C9 C 0.60102 0.0239 0.18238 0.0
O10 O 0.5982 0.0728 0.03736 0.0
C11 C 0.65479 0.96615 0.0908 0.0
O12 O 0.61576 0.03463 0.00527 0.0
O13 O 0.63096 0.9678 0.05975 0.0
C14 C 0.7307 0.64194 0.16744 0.0
O15 O 0.71692 0.61561 0.1334 0.0
Cd16 Cd 0.65363 0.58705 0.10319 0.0
O17 O 0.71301 0.65834 0.18097 0.0
Cd18 Cd 0.65491 0.65862 0.15148 0.0
C19 C 0.60942 0.582 0.22772 0.0
O20 O 0.64744 0.63381 0.05872 0.0
O21 O 0.59856 0.63229 0.09309 0.0
O22 O 0.69471 0.72405 0.1338 0.0
C23 C 0.61393 0.62634 0.05226 0.0
O24 O 0.61726 0.56666 0.18891 0.0
C25 C 0.67344 0.73355 0.15719 0.0
O26 O 0.62033 0.61612 0.22633 0.0
O27 O 0.64389 0.70839 0.17988 0.0
C28 C 0.90133 0.61375 0.43836 0.0
O29 O 0.88584 0.58446 0.46653 0.0
Cd30 Cd 0.91656 0.55221 0.49632 0.0
O31 O 0.93634 0.63017 0.42791 0.0
Cd32 Cd 0.99112 0.62333 0.45319 0.0
C33 C 0.95639 0.54694 0.37432 0.0
O34 O 0.97131 0.59567 0.54461 0.0
O35 O 0.01883 0.59479 0.50916 0.0
O36 O 0.02794 0.68783 0.47854 0.0
C37 C -0.00286 0.58801 0.54996 0.0
O38 O 0.93181 0.53079 0.41167 0.0
C39 C 0.055 0.69511 0.4462 0.0
O40 O 0.98058 0.58092 0.37782 0.0
O41 O 0.05185 0.66935 0.41556 0.0
C42 C 0.29881 0.93062 0.56261 0.0
O43 O 0.31937 0.9178 0.57794 0.0
Cd44 Cd 0.38146 0.95353 0.61306 0.0
O45 O 0.31078 0.96491 0.5648 0.0
Cd46 Cd 0.37138 0.02033 0.59103 0.0
C47 C 0.4211 0.00328 0.49706 0.0
O48 O 0.38163 0.99668 0.67745 0.0
O49 O 0.42935 0.04553 0.64564 0.0
O50 O 0.33488 0.04807 0.62319 0.0
C51 C 0.41454 0.02304 0.68505 0.0
O52 O 0.42067 0.98058 0.53206 0.0
C53 C 0.35611 0.07914 0.60153 0.0
O54 O 0.40273 0.01962 0.50554 0.0
O55 O 0.38364 0.08257 0.57345 0.0
C56 C 0.3128 0.4141 0.67066 0.0
O57 O 0.32452 0.44094 0.63761 0.0
Cd58 Cd 0.38754 0.47506 0.60599 0.0
O59 O 0.33315 0.40035 0.68353 0.0
Cd60 Cd 0.39482 0.40776 0.65445 0.0
C61 C 0.43456 0.48564 0.72933 0.0
O62 O 0.39953 0.43196 0.56162 0.0
O63 O 0.45081 0.43864 0.59599 0.0
O64 O 0.36431 0.34218 0.63522 0.0
C65 C 0.4339 0.44249 0.55518 0.0
O66 O 0.42467 0.49934 0.69053 0.0
C67 C 0.38715 0.33678 0.66311 0.0
O68 O 0.42646 0.45225 0.72816 0.0
O69 O 0.41298 0.36413 0.68848 0.0
C70 C 0.12798 0.41778 0.9419 0.0
O71 O 0.13996 0.44604 0.97195 0.0
Cd72 Cd 0.10155 0.47022 0.00146 0.0
O73 O 0.09322 0.39817 0.93054 0.0
Cd74 Cd 0.03318 0.39486 0.95689 0.0
C75 C 0.05903 0.46948 0.87782 0.0
O76 O 0.0498 0.42194 0.04895 0.0
O77 O -0.00011 0.41756 0.01292 0.0
O78 O 0.00966 0.3304 0.97773 0.0
C79 C 0.02152 0.42592 0.05415 0.0
O80 O 0.08222 0.48729 0.9161 0.0
C81 C 0.97856 0.3187 0.95323 0.0
O82 O 0.03815 0.43476 0.88032 0.0
O83 O 0.97323 0.34223 0.92837 0.0
H84 H 0.59453 0.03455 0.26928 0.0
C85 C 0.57925 0.02164 0.23168 0.0
H86 H 0.52634 0.99314 0.19318 0.0
H87 H 0.43148 0.9289 0.40986 0.0
H88 H 0.41812 0.87401 0.35982 0.0
H89 H 0.45178 0.87782 0.27387 0.0
H90 H 0.49865 0.93654 0.2371 0.0
C91 C 0.54177 0.00603 0.23069 0.0
C92 C 0.5203 0.00414 0.28117 0.0
C93 C 0.49334 0.96949 0.3025 0.0
C94 C 0.47461 0.96725 0.35279 0.0
C95 C 0.44719 0.93227 0.37249 0.0
C96 C 0.43911 0.90048 0.34407 0.0
C97 C 0.45801 0.90263 0.29564 0.0
C98 C 0.48485 0.9366 0.27495 0.0
H99 H 0.43808 0.02544 0.41275 0.0
C100 C 0.44203 0.00981 0.44504 0.0
H101 H 0.4685 0.98014 0.46823 0.0
H102 H 0.56357 0.0751 0.24546 0.0
H103 H 0.57883 0.13004 0.29699 0.0
H104 H 0.55252 0.12598 0.38974 0.0
H105 H 0.5099 0.06707 0.4306 0.0
C106 C 0.46509 0.99643 0.43649 0.0
C107 C 0.48341 -0.00039 0.3823 0.0
C108 C 0.51007 0.03434 0.36064 0.0
C109 C 0.52738 0.03663 0.30894 0.0
C110 C 0.55143 0.07169 0.28605 0.0
C111 C 0.56015 0.10349 0.31496 0.0
C112 C 0.54518 0.10121 0.36703 0.0
C113 C 0.52046 0.06714 0.38983 0.0
H114 H 0.58423 0.53198 0.2783 0.0
C115 C 0.58772 0.55922 0.2749 0.0
H116 H 0.57478 0.59734 0.30968 0.0
H117 H 0.45784 0.42982 0.4152 0.0
H118 H 0.4361 0.41131 0.32159 0.0
H119 H 0.46394 0.45501 0.24449 0.0
H120 H 0.51456 0.51698 0.26043 0.0
C121 C 0.57122 0.57006 0.31214 0.0
C122 C 0.54951 0.5459 0.35922 0.0
C123 C 0.51795 0.51065 0.34957 0.0
C124 C 0.49988 0.4864 0.39448 0.0
C125 C 0.47098 0.45015 0.38309 0.0
C126 C 0.45845 0.43903 0.32943 0.0
C127 C 0.47426 0.46355 0.28601 0.0
C128 C 0.50361 0.49897 0.29571 0.0
H129 H 0.4388 0.47009 0.47603 0.0
C130 C 0.45405 0.46326 0.50569 0.0
H131 H 0.50607 0.46863 0.52727 0.0
H132 H 0.6087 0.61167 0.39248 0.0
H133 H 0.62739 0.63169 0.4866 0.0
H134 H 0.59268 0.59157 0.56485 0.0
H135 H 0.53943 0.53099 0.54944 0.0
C136 C 0.49043 0.47459 0.49709 0.0
C137 C 0.51113 0.49858 0.44939 0.0
C138 C 0.54181 0.53428 0.45917 0.0
C139 C 0.56126 0.55779 0.41405 0.0
C140 C 0.59246 0.59288 0.42509 0.0
C141 C 0.60356 0.60474 0.47898 0.0
C142 C 0.58406 0.58213 0.52303 0.0
C143 C 0.55354 0.54733 0.51353 0.0
H144 H 0.07832 0.51885 0.82669 0.0
C145 C 0.05684 0.49014 0.83036 0.0
H146 H 0.00744 0.44674 0.79597 0.0
H147 H 0.03241 0.60507 0.69034 0.0
H148 H 0.02538 0.62068 0.78391 0.0
H149 H 0.0165 0.57892 0.86105 0.0
H150 H 0.01594 0.52199 0.84514 0.0
C151 C 0.02887 0.47549 0.79335 0.0
C152 C 0.02757 0.4976 0.7463 0.0
C153 C 0.02504 0.52947 0.75594 0.0
C154 C 0.02723 0.55215 0.71102 0.0
C155 C 0.0284 0.58563 0.72242 0.0
C156 C 0.02477 0.59514 0.77608 0.0
C157 C 0.01999 0.57174 0.81952 0.0
C158 C 0.02007 0.53927 0.80983 0.0
H159 H 0.97617 0.55834 0.62852 0.0
C160 C -0.00084 0.56866 0.5992 0.0
H161 H 0.0509 0.57305 0.57864 0.0
H162 H 0.03299 0.43836 0.71327 0.0
H163 H 0.03594 0.42072 0.61921 0.0
H164 H 0.03463 0.45736 0.54088 0.0
H165 H 0.03087 0.51211 0.55612 0.0
C166 C 0.02818 0.5633 0.60837 0.0
C167 C 0.02864 0.54128 0.65612 0.0
C168 C 0.03005 0.50884 0.6464 0.0
C169 C 0.02989 0.4872 0.69153 0.0
C170 C 0.03239 0.45552 0.6806 0.0
C171 C 0.03416 0.44507 0.62675 0.0
C172 C 0.03348 0.46573 0.58266 0.0
C173 C 0.03141 0.49721 0.59208 0.0
H174 H 0.58258 0.0346 0.91317 0.0
C175 C 0.57668 0.04681 0.94839 0.0
H176 H 0.5445 0.0689 0.9794 0.0
H177 H 0.50285 0.11472 0.75713 0.0
H178 H 0.54016 0.17314 0.80268 0.0
H179 H 0.57428 0.17774 0.88853 0.0
H180 H 0.57085 0.12388 0.92976 0.0
C181 C 0.55029 0.05645 0.94441 0.0
C182 C 0.5304 0.05329 0.8916 0.0
C183 C 0.53344 0.08527 0.8673 0.0
C184 C 0.5146 0.08278 0.81697 0.0
C185 C 0.51715 0.11502 0.79467 0.0
C186 C 0.53843 0.1488 0.82046 0.0
C187 C 0.55758 0.15138 0.86884 0.0
C188 C 0.55525 0.12014 0.89215 0.0
H189 H 0.41971 0.00818 0.77033 0.0
C190 C 0.43539 0.02508 0.73539 0.0
H191 H 0.48861 0.06321 0.70387 0.0
H192 H 0.51304 0.98547 0.93108 0.0
H193 H 0.47996 0.92786 0.88198 0.0
H194 H 0.45512 0.92512 0.7885 0.0
H195 H 0.46205 0.97977 0.74458 0.0
C196 C 0.47284 0.04607 0.73856 0.0
C197 C 0.49349 0.04847 0.79025 0.0
C198 C 0.49167 0.0167 0.81344 0.0
C199 C 0.50865 0.01881 0.86537 0.0
C200 C 0.50298 0.98598 0.89013 0.0
C201 C 0.48368 0.95259 0.86263 0.0
C202 C 0.4695 0.95101 0.81016 0.0
C203 C 0.47337 0.98258 0.78565 0.0
H204 H 0.60634 0.59806 0.97316 0.0
C205 C 0.5925 0.60624 0.00322 0.0
H206 H 0.54209 0.60389 0.02645 0.0
H207 H 0.52846 0.55282 0.76015 0.0
H208 H 0.57979 0.61416 0.74264 0.0
H209 H 0.60935 0.65825 0.81876 0.0
H210 H 0.58848 0.64074 0.91301 0.0
C211 C 0.55646 0.5967 0.99577 0.0
C212 C 0.53435 0.57285 0.94884 0.0
C213 C 0.54519 0.58442 0.89361 0.0
C214 C 0.52631 0.55991 0.84933 0.0
C215 C 0.54012 0.571 0.79507 0.0
C216 C 0.56987 0.60608 0.78444 0.0
C217 C 0.58664 0.63082 0.82731 0.0
C218 C 0.57458 0.62028 0.88131 0.0
H219 H 0.45824 0.53634 0.77831 0.0
C220 C 0.45575 0.50947 0.77593 0.0
H221 H 0.47034 0.47293 0.81252 0.0
H222 H 0.50594 0.54205 0.04979 0.0
H223 H 0.45183 0.48226 0.06686 0.0
H224 H 0.41611 0.44158 0.98973 0.0
H225 H 0.43461 0.46028 0.89506 0.0
C226 C 0.47304 0.4999 0.81381 0.0
C227 C 0.49458 0.52494 0.86005 0.0
C228 C 0.48296 0.51387 0.91519 0.0
C229 C 0.50305 0.5377 0.95964 0.0
C230 C 0.4914 0.52543 0.01434 0.0
C231 C 0.46038 0.49109 0.02479 0.0
C232 C 0.4403 0.46817 0.98138 0.0
C233 C 0.45131 0.47926 0.92718 0.0
H234 H 0.03834 0.45306 0.13512 0.0
C235 C 0.01701 0.44386 0.1032 0.0
H236 H 0.9675 0.44207 0.07607 0.0
H237 H 0.98645 0.4837 0.34596 0.0
H238 H 0.9779 0.42325 0.36095 0.0
H239 H 0.97091 0.38322 0.2824 0.0
H240 H 0.97359 0.40396 0.18841 0.0
C241 C 0.9883 0.45011 0.10857 0.0
C242 C 0.98632 0.4715 0.15589 0.0
C243 C 0.98238 0.45804 0.21054 0.0
C244 C 0.98382 0.48013 0.25576 0.0
C245 C 0.98319 0.46728 0.30997 0.0
C246 C 0.97867 0.43272 0.31921 0.0
C247 C 0.97493 0.41026 0.27501 0.0
C248 C 0.9768 0.42264 0.22124 0.0
H249 H 0.93274 0.49793 0.32134 0.0
C250 C 0.95673 0.52526 0.32697 0.0
H251 H 0.01023 0.56467 0.29775 0.0
H252 H -0.00579 0.50535 0.05624 0.0
H253 H -0.00115 0.56423 0.04088 0.0
H254 H -0.00292 0.60076 0.11891 0.0
H255 H 0.99107 0.5788 0.2128 0.0
C256 C 0.98623 0.53729 0.29285 0.0
C257 C 0.9864 0.51454 0.24604 0.0
C258 C 0.98924 0.52749 0.19127 0.0
C259 C 0.98947 0.50608 0.1462 0.0
C260 C -0.00671 0.52015 0.09202 0.0
C261 C -0.00395 0.55398 0.08257 0.0
C262 C -0.0049 0.57456 0.1265 0.0
C263 C 0.99172 0.56163 0.18026 0.0
H264 H 0.70975 0.7925 0.14029 0.0
C265 C 0.68211 0.77193 0.15465 0.0
H266 H 0.62829 0.76112 0.17826 0.0
H267 H 0.66788 0.92201 0.23289 0.0
H268 H 0.65321 0.89425 0.32358 0.0
H269 H 0.64399 0.83244 0.33848 0.0
H270 H 0.64899 0.79784 0.26252 0.0
C271 C 0.65599 0.78142 0.16376 0.0
C272 C 0.66386 0.81963 0.15474 0.0
C273 C 0.66166 0.83987 0.19974 0.0
C274 C 0.66778 0.87586 0.19132 0.0
C275 C 0.66419 0.89488 0.23687 0.0
C276 C 0.65569 0.87922 0.28926 0.0
C277 C 0.65045 0.84441 0.29763 0.0
C278 C 0.65334 0.82483 0.2536 0.0
H279 H 0.6354 0.90835 0.07203 0.0
C280 C 0.65606 0.93194 0.09518 0.0
H281 H 0.6999 0.95145 0.15339 0.0
H282 H 0.66523 0.787 0.05731 0.0
H283 H 0.6841 0.81623 0.96801 0.0
H284 H 0.70227 0.88112 0.95596 0.0
H285 H 0.70046 0.91673 0.03302 0.0
C286 C 0.67997 0.92834 0.12872 0.0
C287 C 0.67667 0.89184 0.13796 0.0
C288 C 0.6805 0.87219 0.0934 0.0
C289 C 0.67264 0.83558 0.10126 0.0
C290 C 0.67313 0.81555 0.05473 0.0
C291 C 0.68357 0.8319 0.00295 0.0
C292 C 0.6936 0.86836 0.9961 0.0
C293 C 0.69213 0.88839 0.04061 0.0
H294 H 0.84832 0.61347 0.42823 0.0
C295 C 0.87711 0.62628 0.41371 0.0
H296 H 0.91556 0.66068 0.35299 0.0
H297 H 0.741 0.59066 0.25524 0.0
H298 H 0.73843 0.53218 0.26056 0.0
H299 H 0.79218 0.528 0.29608 0.0
H300 H 0.84798 0.58205 0.32866 0.0
C301 C 0.88707 0.64774 0.36869 0.0
C302 C 0.85847 0.65164 0.33657 0.0
C303 C 0.82753 0.6202 0.313 0.0
C304 C 0.79812 0.62312 0.28772 0.0
C305 C 0.76549 0.59056 0.27084 0.0
C306 C 0.76342 0.55667 0.27427 0.0
C307 C 0.79354 0.55428 0.29459 0.0
C308 C 0.82528 0.58554 0.31376 0.0
H309 H 0.78299 0.64073 0.17546 0.0
C310 C 0.76578 0.65026 0.19519 0.0
H311 H 0.75554 0.67039 0.26905 0.0
H312 H 0.9143 0.71728 0.37561 0.0
H313 H 0.91891 0.7766 0.36425 0.0
H314 H 0.87025 0.78239 0.31364 0.0
H315 H 0.81643 0.72883 0.27454 0.0
C316 C 0.77283 0.66155 0.24785 0.0
C317 C 0.80166 0.65812 0.28016 0.0
C318 C 0.83308 0.68969 0.30218 0.0
C319 C 0.86141 0.68641 0.33077 0.0
C320 C 0.89217 0.71829 0.35318 0.0
C321 C 0.89515 0.75248 0.34694 0.0
C322 C 0.86774 0.75574 0.31846 0.0
C323 C 0.83701 0.72481 0.29621 0.0
H324 H 0.11302 0.73438 0.42112 0.0
C325 C 0.09018 0.73065 0.44775 0.0
H326 H 0.07411 0.75194 0.51428 0.0
H327 H 0.2372 0.83071 0.61478 0.0
H328 H 0.20533 0.77833 0.67552 0.0
H329 H 0.14087 0.72904 0.65558 0.0
H330 H 0.10784 0.73199 0.57494 0.0
C331 C 0.09618 0.75622 0.48561 0.0
C332 C 0.13474 0.78661 0.49728 0.0
C333 C 0.15362 0.7845 0.54473 0.0
C334 C 0.19097 0.81259 0.55568 0.0
C335 C 0.20904 0.80987 0.60372 0.0
C336 C 0.19102 0.77998 0.63916 0.0
C337 C 0.15472 0.75227 0.62798 0.0
C338 C 0.13608 0.75436 0.58149 0.0
H339 H 0.24039 0.91504 0.54183 0.0
C340 C 0.26027 0.90532 0.54354 0.0
H341 H 0.26922 0.86079 0.532 0.0
H342 H 0.10547 0.79999 0.40505 0.0
H343 H 0.13796 0.8513 0.34203 0.0
H344 H 0.2039 0.89854 0.35828 0.0
H345 H 0.23759 0.89511 0.43785 0.0
C346 C 0.24934 0.87051 0.52982 0.0
C347 C 0.2095 0.84269 0.519 0.0
C348 C 0.19059 0.84481 0.47146 0.0
C349 C 0.15294 0.81693 0.46105 0.0
C350 C 0.13431 0.82005 0.41416 0.0
C351 C 0.1526 0.84938 0.37778 0.0
C352 C 0.1897 0.87603 0.38701 0.0
C353 C 0.20866 0.87385 0.4331 0.0
H354 H 0.40887 0.29968 0.68168 0.0
C355 C 0.38572 0.30115 0.66294 0.0
H356 H 0.33568 0.2733 0.61714 0.0
H357 H 0.37232 0.16278 0.49915 0.0
H358 H 0.3703 0.19879 0.42273 0.0
H359 H 0.36466 0.25346 0.43914 0.0
H360 H 0.36064 0.27227 0.53189 0.0
C361 C 0.35834 0.27162 0.63715 0.0
C362 C 0.36093 0.23801 0.62801 0.0
C363 C 0.36364 0.2276 0.57334 0.0
C364 C 0.36772 0.19652 0.56386 0.0
C365 C 0.3698 0.18647 0.50881 0.0
C366 C 0.3686 0.20685 0.46449 0.0
C367 C 0.36536 0.23759 0.47372 0.0
C368 C 0.36296 0.24801 0.52733 0.0
H369 H 0.32365 0.10452 0.63052 0.0
C370 C 0.34959 0.11004 0.6107 0.0
H371 H 0.40145 0.1504 0.57792 0.0
H372 H 0.35064 0.24678 0.73732 0.0
H373 H 0.35544 0.21245 0.81397 0.0
H374 H 0.36868 0.16234 0.79801 0.0
H375 H 0.37623 0.14568 0.70538 0.0
C376 C 0.37562 0.1447 0.59828 0.0
C377 C 0.3696 0.17614 0.60897 0.0
C378 C 0.36701 0.18659 0.66371 0.0
C379 C 0.36155 0.21688 0.67313 0.0
C380 C 0.35663 0.2252 0.72794 0.0
C381 C 0.35903 0.20553 0.77233 0.0
C382 C 0.36632 0.17722 0.76333 0.0
C383 C 0.37032 0.16776 0.7098 0.0
H384 H 0.18428 0.42523 0.93186 0.0
C385 C 0.15564 0.40999 0.91667 0.0
H386 H 0.11991 0.37409 0.85486 0.0
H387 H 0.29658 0.4599 0.76103 0.0
H388 H 0.29332 0.51541 0.76854 0.0
H389 H 0.23633 0.51351 0.80385 0.0
H390 H 0.18311 0.45635 0.83403 0.0
C391 C 0.14825 0.38947 0.87101 0.0
C392 C 0.17911 0.38931 0.83938 0.0
C393 C 0.20853 0.42252 0.81724 0.0
C394 C 0.23984 0.42308 0.79206 0.0
C395 C 0.27083 0.45736 0.77653 0.0
C396 C 0.26954 0.48957 0.78121 0.0
C397 C 0.23758 0.48854 0.80142 0.0
C398 C 0.20736 0.45552 0.81922 0.0
H399 H 0.25775 0.40961 0.67902 0.0
C400 C 0.27678 0.40211 0.69827 0.0
H401 H 0.28944 0.38307 0.77132 0.0
H402 H 0.12713 0.32104 0.87599 0.0
H403 H 0.12855 0.26474 0.86256 0.0
H404 H 0.18052 0.26497 0.81201 0.0
H405 H 0.23167 0.32159 0.77505 0.0
C406 C 0.27042 0.38992 0.75055 0.0
C407 C 0.23974 0.38977 0.78315 0.0
C408 C 0.20993 0.35645 0.80391 0.0
C409 C 0.17968 0.35625 0.83243 0.0
C410 C 0.15059 0.32268 0.8536 0.0
C411 C 0.15107 0.29018 0.84619 0.0
C412 C 0.18035 0.29032 0.81774 0.0
C413 C 0.20951 0.32298 0.79672 0.0
H414 H 0.95631 0.26099 0.97696 0.0
C415 C 0.9489 0.28008 0.95888 0.0
H416 H 0.90486 0.28835 0.93305 0.0
H417 H 0.77398 0.12617 0.91684 0.0
H418 H 0.78551 0.1419 0.8197 0.0
H419 H 0.84162 0.19895 0.78971 0.0
H420 H 0.88641 0.24082 0.85668 0.0
C421 C 0.91267 0.2695 0.95091 0.0
C422 C 0.88188 0.23285 0.96878 0.0
C423 C 0.85651 0.20823 0.92909 0.0
C424 C 0.82439 0.17509 0.94631 0.0
C425 C 0.79889 0.15159 0.90592 0.0
C426 C 0.80522 0.16027 0.85007 0.0
C427 C 0.8368 0.1924 0.83318 0.0
C428 C 0.86224 0.21622 0.87203 0.0
H429 H 0.76767 0.17432 0.05799 0.0
C430 C 0.75793 0.14558 0.04965 0.0
H431 H 0.77109 0.10852 0.0109 0.0
H432 H 0.92313 0.27461 0.05754 0.0
H433 H 0.91389 0.2562 0.15318 0.0
H434 H 0.86191 0.19569 0.18126 0.0
H435 H 0.81819 0.15368 0.11336 0.0
C436 C 0.7805 0.13675 0.0221 0.0
C437 C 0.81783 0.16658 0.00315 0.0
C438 C 0.84482 0.18962 0.04246 0.0
C439 C 0.87613 0.22344 0.02568 0.0
C440 C 0.90019 0.24758 0.06696 0.0
C441 C 0.89498 0.23752 0.12237 0.0
C442 C 0.86563 0.20354 0.13823 0.0
C443 C 0.84066 0.17982 0.09894 0.0
loop_
_geom_bond_atom_site_label_1
_geom_bond_atom_site_label_2
_geom_bond_distance
_geom_bond_site_symmetry_2
_ccdc_geom_bond_type
C0 O1 1.306 . S
C0 O3 1.160 . S
O1 C0 1.306 . S
O1 Cd2 2.228 . S
Cd2 O1 2.228 . S
Cd2 O6 2.273 . S
Cd2 O10 2.277 . S
O3 C0 1.160 . S
O3 Cd4 2.203 . S
Cd4 O3 2.203 . S
Cd4 O6 2.411 . S
Cd4 O7 2.333 1_545 S
Cd4 O8 2.352 1_545 S
Cd4 O12 2.275 1_554 S
Cd4 O13 2.356 1_545 S
C5 O10 1.209 1_556 S
C5 O12 1.241 . S
O6 Cd2 2.273 . S
O6 Cd4 2.411 . S
O6 C9 1.320 . S
O7 Cd4 2.333 1_565 S
O7 C9 1.214 1_565 S
O8 Cd4 2.352 1_565 S
O8 C11 1.258 . S
C9 O6 1.320 . S
C9 O7 1.214 1_545 S
O10 Cd2 2.277 . S
O10 C5 1.209 1_554 S
C11 O8 1.258 . S
C11 O13 1.282 . S
O12 Cd4 2.275 1_556 S
O12 C5 1.241 . S
O13 Cd4 2.356 1_565 S
O13 C11 1.282 . S
C14 O15 1.306 . S
C14 O17 1.160 . S
O15 C14 1.306 . S
O15 Cd16 2.228 . S
Cd16 O15 2.228 . S
Cd16 O20 2.273 . S
Cd16 O24 2.277 . S
O17 C14 1.160 . S
O17 Cd18 2.203 . S
Cd18 O17 2.203 . S
Cd18 O20 2.411 . S
Cd18 O21 2.333 . S
Cd18 O22 2.352 . S
Cd18 O26 2.277 . S
Cd18 O27 2.356 . S
C19 O24 1.209 . S
C19 O26 1.226 . S
O20 Cd16 2.273 . S
O20 Cd18 2.411 . S
O20 C23 1.320 . S
O21 Cd18 2.333 . S
O21 C23 1.214 . S
O22 Cd18 2.352 . S
O22 C25 1.258 . S
C23 O20 1.320 . S
C23 O21 1.214 . S
O24 Cd16 2.277 . S
O24 C19 1.209 . S
C25 O22 1.258 . S
C25 O27 1.282 . S
O26 Cd18 2.277 . S
O26 C19 1.226 . S
O27 Cd18 2.356 . S
O27 C25 1.282 . S
C28 O29 1.306 . S
C28 O31 1.160 . S
O29 C28 1.306 . S
O29 Cd30 2.228 . S
Cd30 O29 2.228 . S
Cd30 O34 2.273 . S
Cd30 O38 2.277 . S
O31 C28 1.160 . S
O31 Cd32 2.203 1_655 S
Cd32 O31 2.203 1_455 S
Cd32 O34 2.411 1_455 S
Cd32 O35 2.333 . S
Cd32 O36 2.352 . S
Cd32 O40 2.277 . S
Cd32 O41 2.356 . S
C33 O38 1.209 1_455 S
C33 O40 1.226 . S
O34 Cd30 2.273 . S
O34 Cd32 2.411 1_655 S
O34 C37 1.320 1_655 S
O35 Cd32 2.333 . S
O35 C37 1.214 . S
O36 Cd32 2.352 . S
O36 C39 1.258 . S
C37 O34 1.320 1_455 S
C37 O35 1.214 . S
O38 Cd30 2.277 . S
O38 C33 1.209 1_655 S
C39 O36 1.258 . S
C39 O41 1.282 . S
O40 Cd32 2.277 . S
O40 C33 1.226 . S
O41 Cd32 2.356 . S
O41 C39 1.282 . S
C42 O43 1.306 . S
C42 O45 1.160 . S
O43 C42 1.306 . S
O43 Cd44 2.228 . S
Cd44 O43 2.228 . S
Cd44 O48 2.273 1_565 S
Cd44 O52 2.277 . S
O45 C42 1.160 . S
O45 Cd46 2.203 1_565 S
Cd46 O45 2.203 1_545 S
Cd46 O48 2.411 . S
Cd46 O49 2.333 . S
Cd46 O50 2.352 . S
Cd46 O54 2.277 . S
Cd46 O55 2.356 . S
C47 O52 1.209 1_545 S
C47 O54 1.226 . S
O48 Cd44 2.273 1_545 S
O48 Cd46 2.411 . S
O48 C51 1.320 . S
O49 Cd46 2.333 . S
O49 C51 1.214 . S
O50 Cd46 2.352 . S
O50 C53 1.258 . S
C51 O48 1.320 . S
C51 O49 1.214 . S
O52 Cd44 2.277 . S
O52 C47 1.209 1_565 S
C53 O50 1.258 . S
C53 O55 1.282 . S
O54 Cd46 2.277 . S
O54 C47 1.226 . S
O55 Cd46 2.356 . S
O55 C53 1.282 . S
C56 O57 1.306 . S
C56 O59 1.160 . S
O57 C56 1.306 . S
O57 Cd58 2.228 . S
Cd58 O57 2.228 . S
Cd58 O62 2.273 . S
Cd58 O66 2.277 . S
O59 C56 1.160 . S
O59 Cd60 2.203 . S
Cd60 O59 2.203 . S
Cd60 O62 2.411 . S
Cd60 O63 2.333 . S
Cd60 O64 2.352 . S
Cd60 O68 2.277 . S
Cd60 O69 2.356 . S
C61 O66 1.209 . S
C61 O68 1.226 . S
O62 Cd58 2.273 . S
O62 Cd60 2.411 . S
O62 C65 1.320 . S
O63 Cd60 2.333 . S
O63 C65 1.214 . S
O64 Cd60 2.352 . S
O64 C67 1.258 . S
C65 O62 1.320 . S
C65 O63 1.214 . S
O66 Cd58 2.277 . S
O66 C61 1.209 . S
C67 O64 1.258 . S
C67 O69 1.282 . S
O68 Cd60 2.277 . S
O68 C61 1.226 . S
O69 Cd60 2.356 . S
O69 C67 1.282 . S
C70 O71 1.306 . S
C70 O73 1.160 . S
O71 C70 1.306 . S
O71 Cd72 2.228 . S
Cd72 O71 2.228 . S
Cd72 O76 2.273 . S
Cd72 O80 2.277 . S
O73 C70 1.160 . S
O73 Cd74 2.203 . S
Cd74 O73 2.203 . S
Cd74 O76 2.411 . S
Cd74 O77 2.333 1_455 S
Cd74 O78 2.352 1_455 S
Cd74 O82 2.277 1_455 S
Cd74 O83 2.356 1_455 S
C75 O80 1.209 . S
C75 O82 1.226 1_455 S
O76 Cd72 2.273 . S
O76 Cd74 2.411 . S
O76 C79 1.320 . S
O77 Cd74 2.333 1_655 S
O77 C79 1.214 1_655 S
O78 Cd74 2.352 1_655 S
O78 C81 1.258 . S
C79 O76 1.320 . S
C79 O77 1.214 1_455 S
O80 Cd72 2.277 . S
O80 C75 1.209 . S
C81 O78 1.258 . S
C81 O83 1.282 . S
O82 Cd74 2.277 1_655 S
O82 C75 1.226 1_655 S
O83 Cd74 2.356 1_655 S
O83 C81 1.282 . S
H84 C85 0.951 . S
C85 H84 0.951 . S
C85 C91 1.265 . S
H86 C91 0.950 . S
H87 C95 0.949 . S
H88 C96 0.950 . S
H89 C97 0.951 . S
H90 C98 0.951 . S
C91 C85 1.265 . S
C91 H86 0.950 . S
C91 C92 1.478 . S
C92 C91 1.478 . S
C92 C93 1.397 1_545 S
C92 C109 1.394 . S
C93 C92 1.397 1_565 S
C93 C94 1.438 . S
C93 C98 1.429 . S
C94 C93 1.438 . S
C94 C95 1.428 . S
C94 C107 1.394 1_565 S
C95 H87 0.949 . S
C95 C94 1.428 . S
C95 C96 1.345 . S
C96 H88 0.950 . S
C96 C95 1.345 . S
C96 C97 1.424 . S
C97 H89 0.951 . S
C97 C96 1.424 . S
C97 C98 1.347 . S
C98 H90 0.951 . S
C98 C93 1.429 . S
C98 C97 1.347 . S
H99 C100 0.951 . S
C100 H99 0.951 . S
C100 C106 1.265 . S
H101 C106 0.950 . S
H102 C110 0.949 . S
H103 C111 0.950 . S
H104 C112 0.951 . S
H105 C113 0.951 . S
C106 C100 1.265 . S
C106 H101 0.950 . S
C106 C107 1.478 . S
C107 C94 1.394 1_545 S
C107 C106 1.478 . S
C107 C108 1.397 . S
C108 C107 1.397 . S
C108 C109 1.438 . S
C108 C113 1.429 . S
C109 C92 1.394 . S
C109 C108 1.438 . S
C109 C110 1.428 . S
C110 H102 0.949 . S
C110 C109 1.428 . S
C110 C111 1.345 . S
C111 H103 0.950 . S
C111 C110 1.345 . S
C111 C112 1.424 . S
C112 H104 0.951 . S
C112 C111 1.424 . S
C112 C113 1.347 . S
C113 H105 0.951 . S
C113 C108 1.429 . S
C113 C112 1.347 . S
H114 C115 0.951 . S
C115 H114 0.951 . S
C115 C121 1.265 . S
H116 C121 0.950 . S
H117 C125 0.949 . S
H118 C126 0.950 . S
H119 C127 0.951 . S
H120 C128 0.951 . S
C121 C115 1.265 . S
C121 H116 0.950 . S
C121 C122 1.478 . S
C122 C121 1.478 . S
C122 C123 1.397 . S
C122 C139 1.394 . S
C123 C122 1.397 . S
C123 C124 1.438 . S
C123 C128 1.429 . S
C124 C123 1.438 . S
C124 C125 1.428 . S
C124 C137 1.394 . S
C125 H117 0.949 . S
C125 C124 1.428 . S
C125 C126 1.345 . S
C126 H118 0.950 . S
C126 C125 1.345 . S
C126 C127 1.424 . S
C127 H119 0.951 . S
C127 C126 1.424 . S
C127 C128 1.347 . S
C128 H120 0.951 . S
C128 C123 1.429 . S
C128 C127 1.347 . S
H129 C130 0.951 . S
C130 H129 0.951 . S
C130 C136 1.265 . S
H131 C136 0.950 . S
H132 C140 0.949 . S
H133 C141 0.950 . S
H134 C142 0.951 . S
H135 C143 0.951 . S
C136 C130 1.265 . S
C136 H131 0.950 . S
C136 C137 1.478 . S
C137 C124 1.394 . S
C137 C136 1.478 . S
C137 C138 1.397 . S
C138 C137 1.397 . S
C138 C139 1.438 . S
C138 C143 1.429 . S
C139 C122 1.394 . S
C139 C138 1.438 . S
C139 C140 1.428 . S
C140 H132 0.949 . S
C140 C139 1.428 . S
C140 C141 1.345 . S
C141 H133 0.950 . S
C141 C140 1.345 . S
C141 C142 1.424 . S
C142 H134 0.951 . S
C142 C141 1.424 . S
C142 C143 1.347 . S
C143 H135 0.951 . S
C143 C138 1.429 . S
C143 C142 1.347 . S
H144 C145 0.951 . S
C145 H144 0.951 . S
C145 C151 1.265 . S
H146 C151 0.950 1_655 S
H147 C155 0.949 . S
H148 C156 0.950 . S
H149 C157 0.951 . S
H150 C158 0.951 . S
C151 C145 1.265 . S
C151 H146 0.950 1_455 S
C151 C152 1.478 . S
C152 C151 1.478 . S
C152 C153 1.419 . S
C152 C169 1.394 . S
C153 C152 1.419 . S
C153 C154 1.433 . S
C153 C158 1.411 1_455 S
C154 C153 1.433 . S
C154 C155 1.428 1_455 S
C154 C167 1.394 . S
C155 H147 0.949 . S
C155 C154 1.428 1_655 S
C155 C156 1.345 . S
C156 H148 0.950 . S
C156 C155 1.345 . S
C156 C157 1.424 . S
C157 H149 0.951 . S
C157 C156 1.424 . S
C157 C158 1.347 . S
C158 H150 0.951 . S
C158 C153 1.411 1_655 S
C158 C157 1.347 . S
H159 C160 0.951 1_655 S
C160 H159 0.951 1_455 S
C160 C166 1.265 . S
H161 C166 0.950 . S
H162 C170 0.949 . S
H163 C171 0.950 . S
H164 C172 0.951 . S
H165 C173 0.951 . S
C166 C160 1.265 . S
C166 H161 0.950 . S
C166 C167 1.478 . S
C167 C154 1.394 . S
C167 C166 1.478 . S
C167 C168 1.397 . S
C168 C167 1.397 . S
C168 C169 1.438 . S
C168 C173 1.429 . S
C169 C152 1.394 . S
C169 C168 1.438 . S
C169 C170 1.428 . S
C170 H162 0.949 . S
C170 C169 1.428 . S
C170 C171 1.345 . S
C171 H163 0.950 . S
C171 C170 1.345 . S
C171 C172 1.424 . S
C172 H164 0.951 . S
C172 C171 1.424 . S
C172 C173 1.347 . S
C173 H165 0.951 . S
C173 C168 1.429 . S
C173 C172 1.347 . S
H174 C175 0.951 . S
C175 H174 0.951 . S
C175 C181 1.265 . S
H176 C181 0.950 . S
H177 C185 0.949 . S
H178 C186 0.950 . S
H179 C187 0.951 . S
H180 C188 0.951 . S
C181 C175 1.265 . S
C181 H176 0.950 . S
C181 C182 1.478 . S
C182 C181 1.478 . S
C182 C183 1.397 . S
C182 C199 1.394 1_545 S
C183 C182 1.397 . S
C183 C184 1.438 . S
C183 C188 1.429 . S
C184 C183 1.438 . S
C184 C185 1.428 . S
C184 C197 1.394 . S
C185 H177 0.949 . S
C185 C184 1.428 . S
C185 C186 1.345 . S
C186 H178 0.950 . S
C186 C185 1.345 . S
C186 C187 1.424 . S
C187 H179 0.951 . S
C187 C186 1.424 . S
C187 C188 1.347 . S
C188 H180 0.951 . S
C188 C183 1.429 . S
C188 C187 1.347 . S
H189 C190 0.951 . S
C190 H189 0.951 . S
C190 C196 1.265 . S
H191 C196 0.950 . S
H192 C200 0.949 . S
H193 C201 0.950 . S
H194 C202 0.951 . S
H195 C203 0.951 . S
C196 C190 1.265 . S
C196 H191 0.950 . S
C196 C197 1.478 . S
C197 C184 1.394 . S
C197 C196 1.478 . S
C197 C198 1.397 1_545 S
C198 C197 1.397 1_565 S
C198 C199 1.438 . S
C198 C203 1.429 . S
C199 C182 1.394 1_565 S
C199 C198 1.438 . S
C199 C200 1.428 . S
C200 H192 0.949 . S
C200 C199 1.428 . S
C200 C201 1.345 . S
C201 H193 0.950 . S
C201 C200 1.345 . S
C201 C202 1.424 . S
C202 H194 0.951 . S
C202 C201 1.424 . S
C202 C203 1.347 . S
C203 H195 0.951 . S
C203 C198 1.429 . S
C203 C202 1.347 . S
H204 C205 0.951 . S
C205 H204 0.951 . S
C205 C211 1.265 . S
H206 C211 0.950 . S
H207 C215 0.949 . S
H208 C216 0.950 . S
H209 C217 0.951 . S
H210 C218 0.951 . S
C211 C205 1.265 . S
C211 H206 0.950 . S
C211 C212 1.478 . S
C212 C211 1.478 . S
C212 C213 1.397 1_554 S
C212 C229 1.394 . S
C213 C212 1.397 1_556 S
C213 C214 1.438 . S
C213 C218 1.429 . S
C214 C213 1.438 . S
C214 C215 1.428 . S
C214 C227 1.394 . S
C215 H207 0.949 . S
C215 C214 1.428 . S
C215 C216 1.345 . S
C216 H208 0.950 . S
C216 C215 1.345 . S
C216 C217 1.424 . S
C217 H209 0.951 . S
C217 C216 1.424 . S
C217 C218 1.347 . S
C218 H210 0.951 . S
C218 C213 1.429 . S
C218 C217 1.347 . S
H219 C220 0.951 . S
C220 H219 0.951 . S
C220 C226 1.265 . S
H221 C226 0.950 . S
H222 C230 0.949 . S
H223 C231 0.950 . S
H224 C232 0.951 . S
H225 C233 0.951 . S
C226 C220 1.265 . S
C226 H221 0.950 . S
C226 C227 1.478 . S
C227 C214 1.394 . S
C227 C226 1.478 . S
C227 C228 1.397 1_556 S
C228 C227 1.397 1_554 S
C228 C229 1.438 . S
C228 C233 1.429 . S
C229 C212 1.394 . S
C229 C228 1.438 . S
C229 C230 1.428 . S
C230 H222 0.949 . S
C230 C229 1.428 . S
C230 C231 1.345 . S
C231 H223 0.950 . S
C231 C230 1.345 . S
C231 C232 1.424 . S
C232 H224 0.951 . S
C232 C231 1.424 . S
C232 C233 1.347 . S
C233 H225 0.951 . S
C233 C228 1.429 . S
C233 C232 1.347 . S
H234 C235 0.951 . S
C235 H234 0.951 . S
C235 C241 1.265 . S
H236 C241 0.950 1_655 S
H237 C245 0.949 . S
H238 C246 0.950 . S
H239 C247 0.951 . S
H240 C248 0.951 . S
C241 C235 1.265 . S
C241 H236 0.950 1_455 S
C241 C242 1.478 . S
C242 C241 1.478 . S
C242 C243 1.397 1_455 S
C242 C259 1.394 . S
C243 C242 1.397 1_655 S
C243 C244 1.438 . S
C243 C248 1.429 . S
C244 C243 1.438 . S
C244 C245 1.428 . S
C244 C257 1.394 1_655 S
C245 H237 0.949 . S
C245 C244 1.428 . S
C245 C246 1.345 . S
C246 H238 0.950 . S
C246 C245 1.345 . S
C246 C247 1.424 . S
C247 H239 0.951 . S
C247 C246 1.424 . S
C247 C248 1.347 . S
C248 H240 0.951 . S
C248 C243 1.429 . S
C248 C247 1.347 . S
H249 C250 0.951 1_655 S
C250 H249 0.951 1_455 S
C250 C256 1.265 . S
H251 C256 0.950 . S
H252 C260 0.949 . S
H253 C261 0.950 . S
H254 C262 0.951 . S
H255 C263 0.951 . S
C256 C250 1.265 . S
C256 H251 0.950 . S
C256 C257 1.478 . S
C257 C244 1.394 1_455 S
C257 C256 1.478 . S
C257 C258 1.397 . S
C258 C257 1.397 . S
C258 C259 1.438 . S
C258 C263 1.429 . S
C259 C242 1.394 . S
C259 C258 1.438 . S
C259 C260 1.428 . S
C260 H252 0.949 . S
C260 C259 1.428 . S
C260 C261 1.345 . S
C261 H253 0.950 . S
C261 C260 1.345 . S
C261 C262 1.424 . S
C262 H254 0.951 . S
C262 C261 1.424 . S
C262 C263 1.347 . S
C263 H255 0.951 . S
C263 C258 1.429 . S
C263 C262 1.347 . S
H264 C265 0.951 . S
C265 H264 0.951 . S
C265 C271 1.265 . S
H266 C271 0.950 . S
H267 C275 0.949 . S
H268 C276 0.950 . S
H269 C277 0.951 . S
H270 C278 0.951 . S
C271 C265 1.265 . S
C271 H266 0.950 . S
C271 C272 1.478 . S
C272 C271 1.478 . S
C272 C273 1.397 . S
C272 C289 1.394 . S
C273 C272 1.397 . S
C273 C274 1.438 . S
C273 C278 1.429 . S
C274 C273 1.438 . S
C274 C275 1.428 . S
C274 C287 1.394 . S
C275 H267 0.949 . S
C275 C274 1.428 . S
C275 C276 1.345 . S
C276 H268 0.950 . S
C276 C275 1.345 . S
C276 C277 1.424 . S
C277 H269 0.951 . S
C277 C276 1.424 . S
C277 C278 1.347 . S
C278 H270 0.951 . S
C278 C273 1.429 . S
C278 C277 1.347 . S
H279 C280 0.951 . S
C280 H279 0.951 . S
C280 C286 1.265 . S
H281 C286 0.950 . S
H282 C290 0.949 . S
H283 C291 0.950 1_556 S
H284 C292 0.971 . S
H285 C293 0.951 . S
C286 C280 1.265 . S
C286 H281 0.950 . S
C286 C287 1.478 . S
C287 C274 1.394 . S
C287 C286 1.478 . S
C287 C288 1.397 . S
C288 C287 1.397 . S
C288 C289 1.438 . S
C288 C293 1.429 . S
C289 C272 1.394 . S
C289 C288 1.438 . S
C289 C290 1.428 . S
C290 H282 0.949 . S
C290 C289 1.428 . S
C290 C291 1.345 . S
C291 H283 0.950 1_554 S
C291 C290 1.345 . S
C291 C292 1.417 1_554 S
C292 H284 0.971 . S
C292 C291 1.417 1_556 S
C292 C293 1.334 1_556 S
C293 H285 0.951 . S
C293 C288 1.429 . S
C293 C292 1.334 1_554 S
H294 C295 0.951 . S
C295 H294 0.951 . S
C295 C301 1.265 . S
H296 C301 0.950 . S
H297 C305 0.949 . S
H298 C306 0.950 . S
H299 C307 0.951 . S
H300 C308 0.951 . S
C301 C295 1.265 . S
C301 H296 0.950 . S
C301 C302 1.478 . S
C302 C301 1.478 . S
C302 C303 1.397 . S
C302 C319 1.394 . S
C303 C302 1.397 . S
C303 C304 1.438 . S
C303 C308 1.429 . S
C304 C303 1.438 . S
C304 C305 1.428 . S
C304 C317 1.394 . S
C305 H297 0.949 . S
C305 C304 1.428 . S
C305 C306 1.345 . S
C306 H298 0.950 . S
C306 C305 1.345 . S
C306 C307 1.424 . S
C307 H299 0.951 . S
C307 C306 1.424 . S
C307 C308 1.347 . S
C308 H300 0.951 . S
C308 C303 1.429 . S
C308 C307 1.347 . S
H309 C310 0.951 . S
C310 H309 0.951 . S
C310 C316 1.265 . S
H311 C316 0.950 . S
H312 C320 0.949 . S
H313 C321 0.950 . S
H314 C322 0.951 . S
H315 C323 0.951 . S
C316 C310 1.265 . S
C316 H311 0.950 . S
C316 C317 1.478 . S
C317 C304 1.394 . S
C317 C316 1.478 . S
C317 C318 1.397 . S
C318 C317 1.397 . S
C318 C319 1.438 . S
C318 C323 1.429 . S
C319 C302 1.394 . S
C319 C318 1.438 . S
C319 C320 1.428 . S
C320 H312 0.949 . S
C320 C319 1.428 . S
C320 C321 1.345 . S
C321 H313 0.950 . S
C321 C320 1.345 . S
C321 C322 1.424 . S
C322 H314 0.951 . S
C322 C321 1.424 . S
C322 C323 1.347 . S
C323 H315 0.951 . S
C323 C318 1.429 . S
C323 C322 1.347 . S
H324 C325 0.951 . S
C325 H324 0.951 . S
C325 C331 1.265 . S
H326 C331 0.950 . S
H327 C335 0.949 . S
H328 C336 0.950 . S
H329 C337 0.951 . S
H330 C338 0.951 . S
C331 C325 1.265 . S
C331 H326 0.950 . S
C331 C332 1.478 . S
C332 C331 1.478 . S
C332 C333 1.397 . S
C332 C349 1.394 . S
C333 C332 1.397 . S
C333 C334 1.438 . S
C333 C338 1.429 . S
C334 C333 1.438 . S
C334 C335 1.428 . S
C334 C347 1.394 . S
C335 H327 0.949 . S
C335 C334 1.428 . S
C335 C336 1.345 . S
C336 H328 0.950 . S
C336 C335 1.345 . S
C336 C337 1.424 . S
C337 H329 0.951 . S
C337 C336 1.424 . S
C337 C338 1.347 . S
C338 H330 0.951 . S
C338 C333 1.429 . S
C338 C337 1.347 . S
H339 C340 0.951 . S
C340 H339 0.951 . S
C340 C346 1.265 . S
H341 C346 0.950 . S
H342 C350 0.949 . S
H343 C351 0.950 . S
H344 C352 0.951 . S
H345 C353 0.951 . S
C346 C340 1.265 . S
C346 H341 0.950 . S
C346 C347 1.478 . S
C347 C334 1.394 . S
C347 C346 1.478 . S
C347 C348 1.397 . S
C348 C347 1.397 . S
C348 C349 1.438 . S
C348 C353 1.429 . S
C349 C332 1.394 . S
C349 C348 1.438 . S
C349 C350 1.428 . S
C350 H342 0.949 . S
C350 C349 1.428 . S
C350 C351 1.345 . S
C351 H343 0.950 . S
C351 C350 1.345 . S
C351 C352 1.424 . S
C352 H344 0.951 . S
C352 C351 1.424 . S
C352 C353 1.347 . S
C353 H345 0.951 . S
C353 C348 1.429 . S
C353 C352 1.347 . S
H354 C355 0.951 . S
C355 H354 0.951 . S
C355 C361 1.265 . S
H356 C361 0.950 . S
H357 C365 0.949 . S
H358 C366 0.950 . S
H359 C367 0.951 . S
H360 C368 0.951 . S
C361 C355 1.265 . S
C361 H356 0.950 . S
C361 C362 1.478 . S
C362 C361 1.478 . S
C362 C363 1.397 . S
C362 C379 1.394 . S
C363 C362 1.397 . S
C363 C364 1.438 . S
C363 C368 1.429 . S
C364 C363 1.438 . S
C364 C365 1.428 . S
C364 C377 1.394 . S
C365 H357 0.949 . S
C365 C364 1.428 . S
C365 C366 1.345 . S
C366 H358 0.950 . S
C366 C365 1.345 . S
C366 C367 1.424 . S
C367 H359 0.951 . S
C367 C366 1.424 . S
C367 C368 1.347 . S
C368 H360 0.951 . S
C368 C363 1.429 . S
C368 C367 1.347 . S
H369 C370 0.951 . S
C370 H369 0.951 . S
C370 C376 1.265 . S
H371 C376 0.950 . S
H372 C380 0.949 . S
H373 C381 0.950 . S
H374 C382 0.951 . S
H375 C383 0.951 . S
C376 C370 1.265 . S
C376 H371 0.950 . S
C376 C377 1.478 . S
C377 C364 1.394 . S
C377 C376 1.478 . S
C377 C378 1.397 . S
C378 C377 1.397 . S
C378 C379 1.438 . S
C378 C383 1.429 . S
C379 C362 1.394 . S
C379 C378 1.438 . S
C379 C380 1.428 . S
C380 H372 0.949 . S
C380 C379 1.428 . S
C380 C381 1.345 . S
C381 H373 0.950 . S
C381 C380 1.345 . S
C381 C382 1.424 . S
C382 H374 0.951 . S
C382 C381 1.424 . S
C382 C383 1.347 . S
C383 H375 0.951 . S
C383 C378 1.429 . S
C383 C382 1.347 . S
H384 C385 0.951 . S
C385 H384 0.951 . S
C385 C391 1.265 . S
H386 C391 0.950 . S
H387 C395 0.949 . S
H388 C396 0.950 . S
H389 C397 0.951 . S
H390 C398 0.951 . S
C391 C385 1.265 . S
C391 H386 0.950 . S
C391 C392 1.478 . S
C392 C391 1.478 . S
C392 C393 1.397 . S
C392 C409 1.394 . S
C393 C392 1.397 . S
C393 C394 1.438 . S
C393 C398 1.429 . S
C394 C393 1.438 . S
C394 C395 1.428 . S
C394 C407 1.394 . S
C395 H387 0.949 . S
C395 C394 1.428 . S
C395 C396 1.345 . S
C396 H388 0.950 . S
C396 C395 1.345 . S
C396 C397 1.424 . S
C397 H389 0.951 . S
C397 C396 1.424 . S
C397 C398 1.347 . S
C398 H390 0.951 . S
C398 C393 1.429 . S
C398 C397 1.347 . S
H399 C400 0.951 . S
C400 H399 0.951 . S
C400 C406 1.265 . S
H401 C406 0.950 . S
H402 C410 0.949 . S
H403 C411 0.950 . S
H404 C412 0.951 . S
H405 C413 0.951 . S
C406 C400 1.265 . S
C406 H401 0.950 . S
C406 C407 1.478 . S
C407 C394 1.394 . S
C407 C406 1.478 . S
C407 C408 1.397 . S
C408 C407 1.397 . S
C408 C409 1.438 . S
C408 C413 1.429 . S
C409 C392 1.394 . S
C409 C408 1.438 . S
C409 C410 1.428 . S
C410 H402 0.949 . S
C410 C409 1.428 . S
C410 C411 1.345 . S
C411 H403 0.950 . S
C411 C410 1.345 . S
C411 C412 1.424 . S
C412 H404 0.951 . S
C412 C411 1.424 . S
C412 C413 1.347 . S
C413 H405 0.951 . S
C413 C408 1.429 . S
C413 C412 1.347 . S
H414 C415 0.951 . S
C415 H414 0.951 . S
C415 C421 1.265 . S
H416 C421 0.950 . S
H417 C425 0.949 . S
H418 C426 0.950 . S
H419 C427 0.951 . S
H420 C428 0.951 . S
C421 C415 1.265 . S
C421 H416 0.950 . S
C421 C422 1.478 . S
C422 C421 1.478 . S
C422 C423 1.397 . S
C422 C439 1.394 1_556 S
C423 C422 1.397 . S
C423 C424 1.438 . S
C423 C428 1.429 . S
C424 C423 1.438 . S
C424 C425 1.428 . S
C424 C437 1.394 . S
C425 H417 0.949 . S
C425 C424 1.428 . S
C425 C426 1.345 . S
C426 H418 0.950 . S
C426 C425 1.345 . S
C426 C427 1.424 . S
C427 H419 0.951 . S
C427 C426 1.424 . S
C427 C428 1.347 . S
C428 H420 0.951 . S
C428 C423 1.429 . S
C428 C427 1.347 . S
H429 C430 0.951 . S
C430 H429 0.951 . S
C430 C436 1.265 . S
H431 C436 0.950 . S
H432 C440 0.949 . S
H433 C441 0.950 . S
H434 C442 0.951 . S
H435 C443 0.951 . S
C436 C430 1.265 . S
C436 H431 0.950 . S
C436 C437 1.478 1_554 S
C437 C424 1.394 . S
C437 C436 1.478 1_556 S
C437 C438 1.397 1_556 S
C438 C437 1.397 1_554 S
C438 C439 1.438 . S
C438 C443 1.429 . S
C439 C422 1.394 1_554 S
C439 C438 1.438 . S
C439 C440 1.428 . S
C440 H432 0.949 . S
C440 C439 1.428 . S
C440 C441 1.345 . S
C441 H433 0.950 . S
C441 C440 1.345 . S
C441 C442 1.424 . S
C442 H434 0.951 . S
C442 C441 1.424 . S
C442 C443 1.347 . S
C443 H435 0.951 . S
C443 C438 1.429 . S
C443 C442 1.347 . S
C85 C9 1.627 . S
C100 C47 1.634 . S
C115 C19 1.663 . S
C130 C65 1.664 . S
C145 C75 1.687 . S
C160 C37 1.693 . S
C175 C5 1.634 . S
C190 C51 1.627 . S
C205 C23 1.664 . S
C220 C61 1.658 . S
C235 C79 1.691 1_554 S
C250 C33 1.691 . S
C265 C25 1.361 . S
C280 C11 1.307 . S
C295 C28 1.381 . S
C310 C14 1.380 . S
C325 C39 1.353 . S
C340 C42 1.349 . S
C355 C67 1.306 . S
C370 C53 1.360 . S
C385 C70 1.385 . S
C400 C56 1.375 . S
C415 C81 1.387 . S
C430 C0 1.317 . S
