# Generated by pormake.
# Topology und, (4)-cn, num edge types: 1
# Building blocks:
#     Node 0, Type 0, BuildingBlock: AZAVOO_clean_sbu_0, # of connection points: 4
#     Node 1, Type 0, BuildingBlock: AZAVOO_clean_sbu_0, # of connection points: 4
#     Node 2, Type 0, BuildingBlock: AZAVOO_clean_sbu_0, # of connection points: 4
#     Node 3, Type 0, BuildingBlock: AZAVOO_clean_sbu_0, # of connection points: 4
#     Node 4, Type 0, BuildingBlock: AZAVOO_clean_sbu_0, # of connection points: 4
#     Node 5, Type 0, BuildingBlock: AZAVOO_clean_sbu_0, # of connection points: 4
#     Node 6, Type 0, BuildingBlock: AZAVOO_clean_sbu_0, # of connection points: 4
#     Node 7, Type 0, BuildingBlock: AZAVOO_clean_sbu_0, # of connection points: 4
#     Node 8, Type 0, BuildingBlock: AZAVOO_clean_sbu_0, # of connection points: 4
#     Node 9, Type 0, BuildingBlock: AZAVOO_clean_sbu_0, # of connection points: 4
#     Node 10, Type 0, BuildingBlock: AZAVOO_clean_sbu_0, # of connection points: 4
#     Node 11, Type 0, BuildingBlock: AZAVOO_clean_sbu_0, # of connection points: 4
#     Node 12, Type 0, BuildingBlock: AZAVOO_clean_sbu_0, # of connection points: 4
#     Node 13, Type 0, BuildingBlock: AZAVOO_clean_sbu_0, # of connection points: 4
#     Node 14, Type 0, BuildingBlock: AZAVOO_clean_sbu_0, # of connection points: 4
#     Node 15, Type 0, BuildingBlock: AZAVOO_clean_sbu_0, # of connection points: 4
#     Edge 16, Type (0, 0), BuildingBlock: OJICUG_clean_linker_0, # of connection points: 2
#     Edge 17, Type (0, 0), BuildingBlock: OJICUG_clean_linker_0, # of connection points: 2
#     Edge 18, Type (0, 0), BuildingBlock: OJICUG_clean_linker_0, # of connection points: 2
#     Edge 19, Type (0, 0), BuildingBlock: OJICUG_clean_linker_0, # of connection points: 2
#     Edge 20, Type (0, 0), BuildingBlock: OJICUG_clean_linker_0, # of connection points: 2
#     Edge 21, Type (0, 0), BuildingBlock: OJICUG_clean_linker_0, # of connection points: 2
#     Edge 22, Type (0, 0), BuildingBlock: OJICUG_clean_linker_0, # of connection points: 2
#     Edge 23, Type (0, 0), BuildingBlock: OJICUG_clean_linker_0, # of connection points: 2
#     Edge 24, Type (0, 0), BuildingBlock: OJICUG_clean_linker_0, # of connection points: 2
#     Edge 25, Type (0, 0), BuildingBlock: OJICUG_clean_linker_0, # of connection points: 2
#     Edge 26, Type (0, 0), BuildingBlock: OJICUG_clean_linker_0, # of connection points: 2
#     Edge 27, Type (0, 0), BuildingBlock: OJICUG_clean_linker_0, # of connection points: 2
#     Edge 28, Type (0, 0), BuildingBlock: OJICUG_clean_linker_0, # of connection points: 2
#     Edge 29, Type (0, 0), BuildingBlock: OJICUG_clean_linker_0, # of connection points: 2
#     Edge 30, Type (0, 0), BuildingBlock: OJICUG_clean_linker_0, # of connection points: 2
#     Edge 31, Type (0, 0), BuildingBlock: OJICUG_clean_linker_0, # of connection points: 2
#     Edge 32, Type (0, 0), BuildingBlock: OJICUG_clean_linker_0, # of connection points: 2
#     Edge 33, Type (0, 0), BuildingBlock: OJICUG_clean_linker_0, # of connection points: 2
#     Edge 34, Type (0, 0), BuildingBlock: OJICUG_clean_linker_0, # of connection points: 2
#     Edge 35, Type (0, 0), BuildingBlock: OJICUG_clean_linker_0, # of connection points: 2
#     Edge 36, Type (0, 0), BuildingBlock: OJICUG_clean_linker_0, # of connection points: 2
#     Edge 37, Type (0, 0), BuildingBlock: OJICUG_clean_linker_0, # of connection points: 2
#     Edge 38, Type (0, 0), BuildingBlock: OJICUG_clean_linker_0, # of connection points: 2
#     Edge 39, Type (0, 0), BuildingBlock: OJICUG_clean_linker_0, # of connection points: 2
#     Edge 40, Type (0, 0), BuildingBlock: OJICUG_clean_linker_0, # of connection points: 2
#     Edge 41, Type (0, 0), BuildingBlock: OJICUG_clean_linker_0, # of connection points: 2
#     Edge 42, Type (0, 0), BuildingBlock: OJICUG_clean_linker_0, # of connection points: 2
#     Edge 43, Type (0, 0), BuildingBlock: OJICUG_clean_linker_0, # of connection points: 2
#     Edge 44, Type (0, 0), BuildingBlock: OJICUG_clean_linker_0, # of connection points: 2
#     Edge 45, Type (0, 0), BuildingBlock: OJICUG_clean_linker_0, # of connection points: 2
#     Edge 46, Type (0, 0), BuildingBlock: OJICUG_clean_linker_0, # of connection points: 2
#     Edge 47, Type (0, 0), BuildingBlock: OJICUG_clean_linker_0, # of connection points: 2
# Relax obj value: 0.168
# Max RMSD: 0.208
# Mean RMSD: 0.202
data_MOF--net-und--node1-AZAVOO_clean_sbu_0--edge1-OJICUG_clean_linker_0
_symmetry_space_group_name_H-M    P1
_symmetry_Int_Tables_number       1
_symmetry_cell_setting            triclinic
loop_
_symmetry_equiv_pos_as_xyz
'x, y, z'
_cell_length_a     42.530849
_cell_length_b     42.581775
_cell_length_c     16.10429
_cell_angle_alpha  92.910506
_cell_angle_beta   92.374952
_cell_angle_gamma 96.062258
loop_
_atom_site_label
_atom_site_type_symbol
_atom_site_fract_x
_atom_site_fract_y
_atom_site_fract_z
_atom_type_partial_charge
Mg0 Mg 0.26061 0.37271 0.19653 0.0
O1 O 0.25043 0.32992 0.10423 0.0
O2 O 0.20489 0.3025 0.13386 0.0
Mg3 Mg 0.18561 0.32807 0.24582 0.0
C4 C 0.22959 0.30612 0.09159 0.0
C5 C 0.30017 0.42461 0.10537 0.0
O6 O 0.28293 0.44151 0.15219 0.0
O7 O 0.22239 0.40048 0.1398 0.0
O8 O 0.17838 0.37326 0.17983 0.0
O9 O 0.28487 0.34057 0.27845 0.0
O10 O 0.23436 0.34823 0.28275 0.0
C11 C 0.19236 0.39691 0.14551 0.0
C12 C 0.25722 0.33304 0.30721 0.0
O13 O 0.29741 0.39475 0.11052 0.0
Mg14 Mg 0.90738 0.03103 0.19653 0.0
O15 O 0.94735 0.03045 0.29435 0.0
O16 O 0.98852 0.06436 0.26448 0.0
Mg17 Mg 0.97283 0.09028 0.15208 0.0
C18 C 0.97593 0.04264 0.30799 0.0
C19 C 0.87714 0.97957 0.31921 0.0
O20 O 0.90272 0.96561 0.30592 0.0
O21 O 0.8925 0.07788 0.24703 0.0
O22 O 0.93233 0.11275 0.21417 0.0
O23 O 0.93164 0.99538 0.12194 0.0
O24 O 0.94077 0.04714 0.11321 0.0
C25 C 0.90524 0.10631 0.24426 0.0
C26 C 0.94832 0.01937 0.09337 0.0
O27 O 0.87292 0.00465 0.28236 0.0
Mg28 Mg 0.30004 0.70484 0.44672 0.0
O29 O 0.29105 0.73707 0.55944 0.0
O30 O 0.25761 0.77153 0.52194 0.0
Mg31 Mg 0.24374 0.76036 0.3841 0.0
C32 C 0.27598 0.76089 0.57587 0.0
C33 C 0.35303 0.67725 0.55074 0.0
O34 O 0.36973 0.6999 0.51439 0.0
O35 O 0.2514 0.67534 0.44834 0.0
O36 O 0.22031 0.71126 0.40683 0.0
O37 O 0.33908 0.74198 0.41847 0.0
O38 O 0.28916 0.74083 0.37227 0.0
C39 C 0.22412 0.68342 0.42807 0.0
C40 C 0.31706 0.75574 0.38196 0.0
O41 O 0.32336 0.67239 0.53398 0.0
Mg42 Mg 0.56057 0.04937 0.77088 0.0
O43 O 0.55466 0.07442 0.64937 0.0
O44 O 0.53896 0.1217 0.68307 0.0
Mg45 Mg 0.53561 0.12813 0.82436 0.0
C46 C 0.54561 0.10075 0.62888 0.0
C47 C 0.6114 0.01624 0.66408 0.0
O48 O 0.62424 0.04541 0.6578 0.0
O49 O 0.60758 0.07936 0.81441 0.0
O50 O 0.58716 0.12345 0.85652 0.0
O51 O 0.50776 0.03165 0.76196 0.0
O52 O 0.52829 0.07673 0.82445 0.0
C53 C 0.61032 0.10686 0.85151 0.0
C54 C 0.5036 0.0582 0.80047 0.0
O55 O 0.58626 0.01125 0.70395 0.0
Mg56 Mg 0.75269 0.70815 0.15928 0.0
O57 O 0.70556 0.67555 0.16175 0.0
O58 O 0.66786 0.70722 0.18669 0.0
Mg59 Mg 0.68946 0.75849 0.20804 0.0
C60 C 0.67662 0.67975 0.17263 0.0
C61 C 0.79565 0.67756 0.03707 0.0
O62 O 0.79987 0.70772 0.02211 0.0
O63 O 0.73948 0.72816 0.03457 0.0
O64 O 0.70473 0.76113 0.07479 0.0
O65 O 0.76095 0.70614 0.2994 0.0
O66 O 0.73458 0.74089 0.23731 0.0
C67 C 0.72179 0.74986 0.01963 0.0
C68 C 0.74426 0.72983 0.30473 0.0
O69 O 0.77724 0.66885 0.09389 0.0
Mg70 Mg 0.07558 0.9805 0.69528 0.0
O71 O 0.10258 0.03066 0.69366 0.0
O72 O 0.06646 0.06345 0.66438 0.0
Mg73 Mg 0.01717 0.03642 0.65373 0.0
C74 C 0.09511 0.05827 0.67946 0.0
C75 C 0.13762 0.97195 0.80901 0.0
O76 O 0.13254 0.99903 0.84609 0.0
O77 O 0.05702 0.99074 0.82512 0.0
O78 O 0.02221 0.02414 0.78799 0.0
O79 O 0.0772 0.97612 0.55418 0.0
O80 O 0.0384 0.99346 0.62423 0.0
C81 C 0.03573 0.0088 0.8426 0.0
C82 C 0.05023 0.98766 0.55441 0.0
O83 O 0.11948 0.96043 0.74774 0.0
Mg84 Mg 0.71592 0.3736 0.69494 0.0
O85 O 0.76495 0.40068 0.68249 0.0
O86 O 0.80081 0.3677 0.7139 0.0
Mg87 Mg 0.77534 0.32026 0.74673 0.0
C88 C 0.79364 0.39479 0.6937 0.0
C89 C 0.66236 0.40064 0.60357 0.0
O90 O 0.64954 0.37459 0.63455 0.0
O91 O 0.71976 0.3431 0.57564 0.0
O92 O 0.75432 0.30989 0.61365 0.0
O93 O 0.71867 0.39079 0.83071 0.0
O94 O 0.73593 0.34673 0.78053 0.0
C95 C 0.73511 0.31944 0.5599 0.0
C96 C 0.7341 0.36661 0.84225 0.0
O97 O 0.6916 0.40911 0.62 0.0
Mg98 Mg 0.42669 0.10988 0.18421 0.0
O99 O 0.41701 0.05559 0.1745 0.0
O100 O 0.45826 0.03703 0.11364 0.0
Mg101 Mg 0.49467 0.07852 0.09062 0.0
C102 C 0.43093 0.03272 0.14383 0.0
C103 C 0.39702 0.13873 0.33121 0.0
O104 O 0.42328 0.15672 0.31879 0.0
O105 O 0.46365 0.10873 0.28988 0.0
O106 O 0.5047 0.08916 0.2319 0.0
O107 O 0.40279 0.10837 0.05664 0.0
O108 O 0.45427 0.10713 0.08244 0.0
C109 C 0.49148 0.10023 0.29512 0.0
C110 C 0.43042 0.10429 0.02967 0.0
O111 O 0.38905 0.1149 0.28094 0.0
Mg112 Mg 0.7491 0.88374 0.67024 0.0
O113 O 0.73815 0.8419 0.57605 0.0
O114 O 0.69259 0.81421 0.60416 0.0
Mg115 Mg 0.67358 0.83906 0.71772 0.0
C116 C 0.71729 0.81823 0.562 0.0
C117 C 0.78738 0.93294 0.5586 0.0
O118 O 0.76651 0.95117 0.58575 0.0
O119 O 0.7108 0.91252 0.61642 0.0
O120 O 0.66675 0.885 0.65522 0.0
O121 O 0.77271 0.85007 0.74966 0.0
O122 O 0.72252 0.85852 0.75578 0.0
C123 C 0.68075 0.90901 0.62249 0.0
C124 C 0.74507 0.84256 0.7784 0.0
O125 O 0.7868 0.90497 0.58348 0.0
Mg126 Mg 0.40199 0.54595 0.75651 0.0
O127 O 0.44962 0.5378 0.81978 0.0
O128 O 0.49065 0.56777 0.77056 0.0
Mg129 Mg 0.46726 0.60475 0.6978 0.0
C130 C 0.4794 0.54558 0.81513 0.0
C131 C 0.37804 0.48601 0.86081 0.0
O132 O 0.3983 0.47098 0.819 0.0
O133 O 0.39586 0.58906 0.84243 0.0
O134 O 0.44157 0.6117 0.81633 0.0
O135 O 0.41539 0.51507 0.6505 0.0
O136 O 0.42786 0.567 0.65998 0.0
C137 C 0.41183 0.61259 0.81383 0.0
C138 C 0.43045 0.54009 0.62236 0.0
O139 O 0.375 0.51468 0.84685 0.0
Mg140 Mg 0.77133 0.22877 0.09008 0.0
O141 O 0.74799 0.24316 0.20986 0.0
O142 O 0.70582 0.26785 0.17575 0.0
Mg143 Mg 0.69999 0.26633 0.03384 0.0
C144 C 0.7249 0.25844 0.2301 0.0
C145 C 0.82754 0.20577 0.20054 0.0
O146 O 0.83901 0.23568 0.2015 0.0
O147 O 0.73398 0.18676 0.05513 0.0
O148 O 0.69244 0.21238 0.02047 0.0
O149 O 0.79816 0.27778 0.0954 0.0
O150 O 0.75119 0.26438 0.03212 0.0
C151 C 0.70534 0.18692 0.02839 0.0
C152 C 0.7733 0.28607 0.05675 0.0
O153 O 0.80119 0.19681 0.16197 0.0
Mg154 Mg 0.06983 0.52935 0.31074 0.0
O155 O 0.05077 0.54945 0.19212 0.0
O156 O 0.02541 0.59117 0.22819 0.0
Mg157 Mg 0.0309 0.59994 0.36954 0.0
C158 C 0.03395 0.57146 0.17337 0.0
C159 C 0.12278 0.5027 0.19343 0.0
O160 O 0.13493 0.53224 0.18987 0.0
O161 O 0.1114 0.56874 0.32979 0.0
O162 O 0.08469 0.60885 0.36984 0.0
O163 O 0.02231 0.50096 0.31849 0.0
O164 O 0.03489 0.5494 0.3744 0.0
C165 C 0.1107 0.59749 0.35617 0.0
C166 C 0.01367 0.52609 0.3556 0.0
O167 O 0.09835 0.49625 0.23508 0.0
Mg168 Mg 0.26579 0.1986 0.68745 0.0
O169 O 0.22008 0.16338 0.68014 0.0
O170 O 0.18076 0.19315 0.70478 0.0
Mg171 Mg 0.19951 0.24463 0.73706 0.0
C172 C 0.19066 0.16638 0.68759 0.0
C173 C 0.32082 0.17871 0.59832 0.0
O174 O 0.3288 0.20741 0.63171 0.0
O175 O 0.253 0.22022 0.56603 0.0
O176 O 0.21637 0.25109 0.60614 0.0
O177 O 0.27347 0.19462 0.8277 0.0
O178 O 0.24479 0.22797 0.76821 0.0
C179 C 0.23465 0.24138 0.55174 0.0
C180 C 0.25524 0.21701 0.83483 0.0
O181 O 0.29412 0.1646 0.61465 0.0
Mg182 Mg 0.56 0.4978 0.22988 0.0
O183 O 0.587 0.54753 0.21953 0.0
O184 O 0.55238 0.57723 0.16274 0.0
Mg185 Mg 0.50428 0.54826 0.13923 0.0
C186 C 0.58013 0.5737 0.19156 0.0
C187 C 0.58679 0.46146 0.36505 0.0
O188 O 0.55644 0.45168 0.35523 0.0
O189 O 0.53237 0.51433 0.33988 0.0
O190 O 0.49858 0.54399 0.27895 0.0
O191 O 0.57245 0.48564 0.09747 0.0
O192 O 0.52889 0.50572 0.13445 0.0
C193 C 0.50954 0.53152 0.34298 0.0
C194 C 0.54621 0.49674 0.07665 0.0
O195 O 0.59835 0.48263 0.31859 0.0
Mg196 Mg 0.28636 0.8725 0.04096 0.0
O197 O 0.32807 0.91111 0.04919 0.0
O198 O 0.37253 0.88744 0.05443 0.0
Mg199 Mg 0.35961 0.83386 0.05373 0.0
C200 C 0.35821 0.91233 0.05538 0.0
C201 C 0.23075 0.89611 0.94392 0.0
O202 O 0.22885 0.86596 0.92017 0.0
O203 O 0.29403 0.85625 0.90689 0.0
O204 O 0.33501 0.82817 0.9243 0.0
O205 O 0.28689 0.87424 0.18052 0.0
O206 O 0.31417 0.84349 0.10367 0.0
C207 C 0.31257 0.83694 0.87896 0.0
C208 C 0.30728 0.8537 0.17623 0.0
O209 O 0.25252 0.90731 -0.0029 0.0
Mg210 Mg 0.91563 0.57519 0.71332 0.0
O211 O 0.88842 0.52588 0.72145 0.0
O212 O 0.92229 0.49052 0.69142 0.0
Mg213 Mg 0.97025 0.51617 0.6633 0.0
C214 C 0.89478 0.49732 0.7098 0.0
C215 C 0.866 0.59126 0.84909 0.0
O216 O 0.87337 0.56503 0.88086 0.0
O217 O 0.94429 0.57122 0.8351 0.0
O218 O 0.97837 0.53735 0.79641 0.0
O219 O 0.90133 0.57314 0.57591 0.0
O220 O 0.94428 0.55561 0.63059 0.0
C221 C 0.96811 0.55614 0.85067 0.0
C222 C 0.92588 0.55796 0.5667 0.0
O223 O 0.8782 0.5999 0.78195 0.0
C224 C 0.27349 0.28593 0.3798 0.0
C225 C 0.25082 0.30666 0.36215 0.0
H226 H 0.2858 0.24792 0.45294 0.0
C227 C 0.22139 0.30248 0.39889 0.0
H228 H 0.29626 0.28842 0.35172 0.0
C229 C 0.21519 0.27916 0.45498 0.0
C230 C 0.23842 0.25964 0.47681 0.0
H231 H 0.20342 0.31812 0.38737 0.0
H232 H 0.19274 0.2776 0.48475 0.0
C233 C 0.2673 0.26247 0.4367 0.0
C234 C 0.98215 0.00431 0.41764 0.0
C235 C 0.99598 0.028 0.36898 0.0
H236 H 0.98922 0.97214 0.5123 0.0
C237 C 0.02914 0.03547 0.37475 0.0
H238 H 0.95682 0.99764 0.41435 0.0
C239 C 0.04787 0.02018 0.43024 0.0
C240 C 0.03358 0.99733 0.48033 0.0
H241 H 0.04059 0.0533 0.33717 0.0
H242 H 0.07308 0.02741 0.43725 0.0
C243 C 1.00074 0.98927 0.47273 0.0
C244 C 0.31076 0.77403 0.70427 0.0
C245 C 0.2842 0.77983 0.65495 0.0
H246 H 0.34122 0.78807 0.81097 0.0
C247 C 0.268 0.80594 0.67732 0.0
H248 H 0.3242 0.75451 0.68833 0.0
C249 C 0.27793 0.82548 0.74813 0.0
C250 C 0.30446 0.8195 0.79759 0.0
H251 H 0.24767 0.81133 0.64009 0.0
H252 H 0.26452 0.84494 0.76476 0.0
C253 C 0.32087 0.79368 0.77419 0.0
C254 C 0.44922 0.11127 0.88862 0.0
C255 C 0.43465 0.0913 0.94529 0.0
H256 H 0.48078 0.11513 0.78901 0.0
C257 C 0.43452 0.05841 0.932 0.0
H258 H 0.44947 0.1367 0.8974 0.0
C259 C 0.45374 0.04612 0.87259 0.0
C260 C 0.47258 0.0668 0.82539 0.0
H261 H 0.42281 0.04253 0.97412 0.0
H262 H 0.45702 0.02122 0.87179 0.0
C263 C 0.4675 0.09892 0.82751 0.0
C264 C 0.34362 0.81952 0.24393 0.0
C265 C 0.31807 0.83791 0.2496 0.0
H266 H 0.36356 0.77831 0.28391 0.0
C267 C 0.29831 0.83447 0.31664 0.0
H268 H 0.36 0.82246 0.1948 0.0
C269 C 0.30061 0.80937 0.36793 0.0
C270 C 0.32276 0.78776 0.3529 0.0
H271 H 0.27881 0.84869 0.32362 0.0
H272 H 0.28335 0.80543 0.41453 0.0
C273 C 0.34592 0.79442 0.29543 0.0
C274 C 0.53226 0.08338 0.39612 0.0
C275 C 0.50864 0.10303 0.3775 0.0
H276 H 0.56278 0.06728 0.49063 0.0
C277 C 0.50048 0.12463 0.43969 0.0
H278 H 0.53915 0.06659 0.3493 0.0
C279 C 0.5145 0.12557 0.51982 0.0
C280 C 0.53657 0.10445 0.54025 0.0
H281 H 0.48266 0.14038 0.42699 0.0
H282 H 0.5066 0.14165 0.56688 0.0
C283 C 0.54588 0.08386 0.47697 0.0
C284 C 0.27362 0.25065 0.96022 0.0
C285 C 0.24869 0.23273 0.91424 0.0
H286 H 0.28702 0.28877 0.05085 0.0
C287 C 0.21733 0.23752 0.93068 0.0
H288 H 0.29797 0.24792 0.94682 0.0
C289 C 0.21097 0.26081 -0.00992 0.0
C290 C 0.23594 0.28034 0.03189 0.0
H291 H 0.19779 0.22436 0.8944 0.0
H292 H 0.1866 0.26455 0.00032 0.0
C293 C 0.26731 0.2745 0.01807 0.0
C294 C 0.01621 0.04032 0.95643 0.0
C295 C 0.0228 0.01055 0.9254 0.0
H296 H 0.98667 0.06631 0.02917 0.0
C297 C 0.00805 0.98327 0.95899 0.0
H298 H 0.02693 0.06165 0.93035 0.0
C299 C 0.98478 0.98589 0.01759 0.0
C300 C 0.976 0.0158 0.04229 0.0
H301 H 0.01231 0.96002 0.93443 0.0
H302 H 0.97237 0.96456 0.03931 0.0
C303 C 0.99285 0.04291 0.01322 0.0
C304 C 0.75454 0.77069 0.90428 0.0
C305 C 0.72546 0.76747 0.94336 0.0
H306 H 0.78392 0.79745 0.82158 0.0
C307 C 0.70218 0.78686 0.92095 0.0
H308 H 0.77311 0.7563 0.92102 0.0
C309 C 0.70861 0.81067 0.86626 0.0
C310 C 0.7383 0.81541 0.83104 0.0
H311 H 0.67957 0.78504 0.95002 0.0
H312 H 0.69064 0.82633 0.85517 0.0
C313 C 0.76094 0.79457 0.84847 0.0
C314 C 0.70798 0.31011 0.41777 0.0
C315 C 0.73035 0.30202 0.47746 0.0
H316 H 0.68806 0.30215 0.29343 0.0
C317 C 0.74828 0.27695 0.45772 0.0
H318 H 0.69346 0.32901 0.4312 0.0
C319 C 0.74506 0.26139 0.37891 0.0
C320 C 0.72377 0.27046 0.31784 0.0
H321 H 0.76548 0.26976 0.50243 0.0
H322 H 0.76015 0.24302 0.36501 0.0
C323 C 0.70466 0.29445 0.33893 0.0
C324 C 0.74068 0.33033 0.04352 0.0
C325 C 0.77012 0.31861 0.03467 0.0
H326 H 0.70588 0.3566 0.98764 0.0
C327 C 0.79134 0.3326 0.97978 0.0
H328 H 0.72419 0.32024 0.0869 0.0
C329 C 0.78091 0.35358 0.92346 0.0
C330 C 0.74937 0.3607 0.92235 0.0
H331 H 0.81416 0.32395 0.97199 0.0
H332 H 0.79617 0.36094 0.87435 0.0
C333 C 0.73026 0.35137 0.9873 0.0
C334 C 0.76213 0.76407 0.42929 0.0
C335 C 0.73744 0.74581 0.3834 0.0
H336 H 0.77498 0.80208 0.52039 0.0
C337 C 0.70595 0.75008 0.39973 0.0
H338 H 0.78656 0.7617 0.41593 0.0
C339 C 0.69921 0.77312 0.45936 0.0
C340 C 0.72393 0.79288 0.50146 0.0
H341 H 0.68659 0.73662 0.36345 0.0
H342 H 0.67474 0.77642 0.46975 0.0
C343 C 0.75544 0.78762 0.48742 0.0
C344 C 0.50781 0.48647 0.95882 0.0
C345 C 0.53654 0.50241 -0.00889 0.0
H346 H 0.46726 0.48758 0.87687 0.0
C347 C 0.54904 0.53011 0.95535 0.0
H348 H 0.49748 0.46542 0.98691 0.0
C349 C 0.53153 0.54319 0.89275 0.0
C350 C 0.50118 0.52884 0.86644 0.0
H351 H 0.57075 0.54323 0.9813 0.0
H352 H 0.54057 0.56576 0.87016 0.0
C353 C 0.4903 0.4995 0.89689 0.0
C354 C 0.96795 0.55705 0.37275 0.0
C355 C 0.98111 0.52834 0.38012 0.0
H356 H 0.93784 0.58895 0.42704 0.0
C357 C 0.96685 0.50552 0.43017 0.0
H358 H 0.97791 0.57456 0.33215 0.0
C359 C 0.94356 0.5136 0.48345 0.0
C360 C 0.93449 0.54443 0.48654 0.0
H361 H 0.97645 0.48312 0.43623 0.0
H362 H 0.93563 0.49716 0.52928 0.0
C363 C 0.94459 0.5651 0.42586 0.0
C364 C 0.02867 0.54942 0.02609 0.0
C365 C 0.01964 0.57071 0.08782 0.0
H366 H 0.0194 0.52789 0.90393 0.0
C367 C 0.99408 0.58815 0.06991 0.0
H368 H 0.04819 0.53557 0.03766 0.0
C369 C 0.97722 0.5835 -0.00695 0.0
C370 C 0.98567 0.56142 0.9324 0.0
H371 H 0.98631 0.6046 0.11626 0.0
H372 H 0.95737 0.59692 0.98166 0.0
C373 C 0.01193 0.54485 0.94943 0.0
C374 C 0.46649 0.51037 0.53625 0.0
C375 C 0.4522 0.53807 0.55392 0.0
H376 H 0.49707 0.48701 0.45661 0.0
C377 C 0.45911 0.56436 0.50606 0.0
H378 H 0.46182 0.48992 0.57298 0.0
C379 C 0.4788 0.56257 0.43927 0.0
C380 C 0.49267 0.53474 0.42047 0.0
H381 H 0.44851 0.58606 0.51869 0.0
H382 H 0.48279 0.5828 0.40136 0.0
C383 C 0.48693 0.50886 0.47055 0.0
C384 C 0.17192 0.48097 0.14414 0.0
C385 C 0.13949 0.47641 0.15943 0.0
H386 H 0.2144 0.45907 0.1257 0.0
C387 C 0.12379 0.44562 0.15103 0.0
H388 H 0.18462 0.50447 0.14926 0.0
C389 C 0.1407 0.41969 0.13644 0.0
C390 C 0.17378 0.4239 0.13086 0.0
H391 H 0.09867 0.44136 0.16057 0.0
H392 H 0.12811 0.39619 0.1361 0.0
C393 C 0.18897 0.4549 0.13006 0.0
C394 C 0.80807 0.97381 0.46189 0.0
C395 C 0.81054 0.94464 0.49753 0.0
H396 H 0.82678 0.00748 0.37761 0.0
C397 C 0.83499 0.92681 0.47332 0.0
H398 H 0.7895 0.98814 0.47874 0.0
C399 C 0.85657 0.93803 0.41529 0.0
C400 C 0.85401 0.96719 0.37958 0.0
H401 H 0.83757 0.90423 0.49944 0.0
H402 H 0.87522 0.92381 0.39836 0.0
C403 C 0.82943 0.98487 0.40349 0.0
C404 C 0.40079 0.66623 0.63623 0.0
C405 C 0.36834 0.65927 0.61452 0.0
H406 H 0.43983 0.65727 0.71648 0.0
C407 C 0.35053 0.63602 0.65689 0.0
H408 H 0.41522 0.68409 0.60504 0.0
C409 C 0.36471 0.62049 0.72059 0.0
C410 C 0.39711 0.62776 0.74317 0.0
H411 H 0.32547 0.63013 0.64185 0.0
H412 H 0.35012 0.60307 0.75279 0.0
C413 C 0.41497 0.65076 0.70002 0.0
C414 C 0.69255 0.14437 0.91684 0.0
C415 C 0.68668 0.15759 -0.00408 0.0
H416 H 0.67245 0.11714 0.80722 0.0
C417 C 0.65794 0.14866 0.03166 0.0
H418 H 0.71442 0.15162 0.88752 0.0
C419 C 0.63427 0.12917 0.98626 0.0
C420 C 0.63875 0.1186 0.90388 0.0
H421 H 0.65277 0.15895 0.09185 0.0
H422 H 0.61143 0.12446 0.01323 0.0
C423 C 0.6686 0.12484 0.87077 0.0
C424 C 0.13863 0.65018 0.40325 0.0
C425 C 0.14046 0.61843 0.37705 0.0
H426 H 0.16339 0.69496 0.44217 0.0
C427 C 0.17046 0.60729 0.37501 0.0
H428 H 0.11605 0.65969 0.40669 0.0
C429 C 0.198 0.62785 0.39659 0.0
C430 C 0.19588 0.65982 0.41996 0.0
H431 H 0.17268 0.58289 0.35609 0.0
H432 H 0.22088 0.61908 0.39171 0.0
C433 C 0.16586 0.67049 0.42431 0.0
C434 C 0.66027 0.99324 0.61723 0.0
C435 C 0.62798 0.9891 0.63455 0.0
H436 H 0.70251 0.97097 0.59812 0.0
C437 C 0.61232 0.95831 0.63095 0.0
H438 H 0.67297 0.0167 0.61867 0.0
C439 C 0.6291 0.93215 0.61791 0.0
C440 C 0.66207 0.9361 0.6092 0.0
H441 H 0.58732 0.9543 0.64232 0.0
H442 H 0.6165 0.90877 0.6205 0.0
C443 C 0.6772 0.96697 0.60485 0.0
C444 C 0.33982 0.48746 0.97469 0.0
C445 C 0.35881 0.47005 0.92439 0.0
H446 H 0.3068 0.48691 0.07117 0.0
C447 C 0.359 0.43752 0.93549 0.0
H448 H 0.33917 0.51258 0.96821 0.0
C449 C 0.34023 0.42269 -0.00521 0.0
C450 C 0.32106 0.44014 0.04451 0.0
H451 H 0.37339 0.42344 0.89785 0.0
H452 H 0.34062 0.39754 0.00127 0.0
C453 C 0.32127 0.47272 0.03406 0.0
C454 C 0.87998 0.18859 0.24465 0.0
C455 C 0.84703 0.18175 0.23234 0.0
H456 H 0.92452 0.16991 0.25985 0.0
C457 C 0.83329 0.1507 0.24158 0.0
H458 H 0.89126 0.21234 0.23885 0.0
C459 C 0.8523 0.12642 0.2549 0.0
C460 C 0.88548 0.13264 0.25792 0.0
H461 H 0.80789 0.1448 0.2339 0.0
H462 H 0.84097 0.10244 0.25587 0.0
C463 C 0.89905 0.16423 0.25692 0.0
C464 C 0.82689 0.66385 0.91494 0.0
C465 C 0.81216 0.65456 0.98766 0.0
H466 H 0.85486 0.65118 0.81388 0.0
C467 C 0.81398 0.6236 0.01258 0.0
H468 H 0.82575 0.68743 0.89352 0.0
C469 C 0.83098 0.60273 0.96688 0.0
C470 C 0.84615 0.6123 0.89488 0.0
H471 H 0.80284 0.61572 0.06825 0.0
H472 H 0.83252 0.57924 0.9885 0.0
C473 C 0.8435 0.64297 0.86894 0.0
C474 C 0.17572 0.10733 0.68696 0.0
C475 C 0.1669 0.13809 0.68045 0.0
H476 H 0.16002 0.0579 0.69287 0.0
C477 C 0.13455 0.14203 0.67188 0.0
H478 H 0.20043 0.10349 0.69406 0.0
C479 C 0.11157 0.11613 0.67117 0.0
C480 C 0.12016 0.08542 0.67946 0.0
H481 H 0.12682 0.1653 0.66632 0.0
H482 H 0.08694 0.12038 0.66496 0.0
C483 C 0.15255 0.08125 0.68683 0.0
C484 C 0.61061 0.40914 0.53451 0.0
C485 C 0.64331 0.41802 0.54602 0.0
H486 H 0.56741 0.41584 0.4692 0.0
C487 C 0.6574 0.44229 0.4992 0.0
H488 H 0.59892 0.39065 0.56964 0.0
C489 C 0.63917 0.45681 0.44068 0.0
C490 C 0.60654 0.44736 0.42827 0.0
H491 H 0.68258 0.44963 0.50653 0.0
H492 H 0.65068 0.47511 0.40463 0.0
C493 C 0.59249 0.42363 0.47662 0.0
C494 C 0.37949 0.998 0.13031 0.0
C495 C 0.41268 1.00123 0.12836 0.0
H496 H 0.33629 0.96784 0.10656 0.0
C497 C 0.42779 0.97504 0.10074 0.0
H498 H 0.36702 0.01779 0.14999 0.0
C499 C 0.41012 0.94637 0.07527 0.0
C500 C 0.3769 0.94332 0.07593 0.0
H501 H 0.45331 0.97679 0.0977 0.0
H502 H 0.42252 0.92662 0.05485 0.0
C503 C 0.36181 0.96946 0.10396 0.0
C504 C 0.81256 0.45269 0.697 0.0
C505 C 0.81939 0.42106 0.69341 0.0
H506 H 0.83091 0.50158 0.70703 0.0
C507 C 0.8512 0.41482 0.69729 0.0
H508 H 0.78831 0.45836 0.69521 0.0
C509 C 0.87559 0.43958 0.7045 0.0
C510 C 0.8688 0.47121 0.70865 0.0
H511 H 0.85733 0.39075 0.69523 0.0
H512 H 0.89982 0.43386 0.70669 0.0
C513 C 0.83699 0.4775 0.70495 0.0
C514 C 0.37124 0.18117 0.52447 0.0
C515 C 0.34102 0.16559 0.53516 0.0
H516 H 0.4123 0.18492 0.45267 0.0
C517 C 0.32978 0.13958 0.48059 0.0
H518 H 0.38077 0.20116 0.56553 0.0
C519 C 0.34804 0.1302 0.41478 0.0
C520 C 0.3778 0.14671 0.40261 0.0
H521 H 0.30653 0.12713 0.48706 0.0
H522 H 0.33857 0.11057 0.37249 0.0
C523 C 0.38934 0.17188 0.45927 0.0
C524 C 0.59683 0.63101 0.17403 0.0
C525 C 0.60521 0.6006 0.18819 0.0
H526 H 0.61258 0.67948 0.15745 0.0
C527 C 0.63752 0.59615 0.19497 0.0
H528 H 0.57222 0.63535 0.16824 0.0
C529 C 0.66087 0.62159 0.18755 0.0
C530 C 0.65235 0.65206 0.1743 0.0
H531 H 0.6448 0.57297 0.2051 0.0
H532 H 0.68554 0.6175 0.19369 0.0
C533 C 0.62005 0.65638 0.16762 0.0
C534 C 0.20626 0.94741 0.94067 0.0
C535 C 0.20786 0.91632 0.90844 0.0
H536 H 0.18276 0.98948 0.93467 0.0
C537 C 0.18702 0.90429 0.84168 0.0
H538 H 0.22205 0.95738 -0.008 0.0
C539 C 0.1648 0.92266 0.80856 0.0
C540 C 0.16264 0.9535 0.84169 0.0
H541 H 0.18772 0.88053 0.81492 0.0
H542 H 0.14895 0.91239 0.75765 0.0
C543 C 0.18376 0.96579 0.90781 0.0
loop_
_geom_bond_atom_site_label_1
_geom_bond_atom_site_label_2
_geom_bond_distance
_geom_bond_site_symmetry_2
_ccdc_geom_bond_type
Mg0 O1 2.028 1_554 S
Mg0 O7 1.986 . S
Mg0 O9 2.114 . S
Mg0 O10 2.251 . S
Mg0 O13 2.010 . S
O1 Mg0 2.028 1_556 S
O1 C4 1.250 . S
O2 Mg3 2.028 1_556 S
O2 C4 1.248 . S
Mg3 O2 2.028 1_554 S
Mg3 O8 2.032 . S
Mg3 O10 2.079 . S
C4 O1 1.250 . S
C4 O2 1.248 . S
C5 O6 1.264 . S
C5 O13 1.249 . S
O6 C5 1.264 . S
O7 Mg0 1.986 . S
O7 C11 1.246 . S
O8 Mg3 2.032 . S
O8 C11 1.259 . S
O9 Mg0 2.114 . S
O9 C12 1.252 . S
O10 Mg0 2.251 . S
O10 Mg3 2.079 . S
O10 C12 1.273 . S
C11 O7 1.246 . S
C11 O8 1.259 . S
C12 O9 1.252 . S
C12 O10 1.273 . S
O13 Mg0 2.010 . S
O13 C5 1.249 . S
Mg14 O15 2.028 . S
Mg14 O21 1.986 . S
Mg14 O23 2.114 . S
Mg14 O24 2.251 . S
Mg14 O27 2.010 . S
O15 Mg14 2.028 . S
O15 C18 1.250 . S
O16 Mg17 2.028 . S
O16 C18 1.248 . S
Mg17 O16 2.028 . S
Mg17 O22 2.032 . S
Mg17 O24 2.079 . S
C18 O15 1.250 . S
C18 O16 1.248 . S
C19 O20 1.264 . S
C19 O27 1.249 1_565 S
O20 C19 1.264 . S
O21 Mg14 1.986 . S
O21 C25 1.246 . S
O22 Mg17 2.032 . S
O22 C25 1.259 . S
O23 Mg14 2.114 . S
O23 C26 1.252 . S
O24 Mg14 2.251 . S
O24 Mg17 2.079 . S
O24 C26 1.273 . S
C25 O21 1.246 . S
C25 O22 1.259 . S
C26 O23 1.252 . S
C26 O24 1.273 . S
O27 Mg14 2.010 . S
O27 C19 1.249 1_545 S
Mg28 O29 2.028 . S
Mg28 O35 1.986 . S
Mg28 O37 2.114 . S
Mg28 O38 2.251 . S
Mg28 O41 2.010 . S
O29 Mg28 2.028 . S
O29 C32 1.250 . S
O30 Mg31 2.028 . S
O30 C32 1.248 . S
Mg31 O30 2.028 . S
Mg31 O36 2.032 . S
Mg31 O38 2.079 . S
C32 O29 1.250 . S
C32 O30 1.248 . S
C33 O34 1.264 . S
C33 O41 1.249 . S
O34 C33 1.264 . S
O35 Mg28 1.986 . S
O35 C39 1.246 . S
O36 Mg31 2.032 . S
O36 C39 1.259 . S
O37 Mg28 2.114 . S
O37 C40 1.252 . S
O38 Mg28 2.251 . S
O38 Mg31 2.079 . S
O38 C40 1.273 . S
C39 O35 1.246 . S
C39 O36 1.259 . S
C40 O37 1.252 . S
C40 O38 1.273 . S
O41 Mg28 2.010 . S
O41 C33 1.249 . S
Mg42 O43 2.028 . S
Mg42 O49 1.986 . S
Mg42 O51 2.114 1_545 S
Mg42 O52 2.251 . S
Mg42 O55 2.010 1_545 S
O43 Mg42 2.028 . S
O43 C46 1.250 . S
O44 Mg45 2.028 . S
O44 C46 1.248 . S
Mg45 O44 2.028 . S
Mg45 O50 2.032 . S
Mg45 O52 2.079 . S
C46 O43 1.250 . S
C46 O44 1.248 . S
C47 O48 1.264 . S
C47 O55 1.249 . S
O48 C47 1.264 . S
O49 Mg42 1.986 . S
O49 C53 1.246 . S
O50 Mg45 2.032 . S
O50 C53 1.259 . S
O51 Mg42 2.114 1_565 S
O51 C54 1.252 1_565 S
O52 Mg42 2.251 . S
O52 Mg45 2.079 . S
O52 C54 1.273 . S
C53 O49 1.246 . S
C53 O50 1.259 . S
C54 O51 1.252 1_545 S
C54 O52 1.273 . S
O55 Mg42 2.010 1_565 S
O55 C47 1.249 . S
Mg56 O57 2.028 . S
Mg56 O63 1.986 1_554 S
Mg56 O65 2.114 . S
Mg56 O66 2.251 . S
Mg56 O69 2.010 . S
O57 Mg56 2.028 . S
O57 C60 1.250 . S
O58 Mg59 2.028 . S
O58 C60 1.248 . S
Mg59 O58 2.028 . S
Mg59 O64 2.032 1_554 S
Mg59 O66 2.079 . S
C60 O57 1.250 . S
C60 O58 1.248 . S
C61 O62 1.264 . S
C61 O69 1.249 . S
O62 C61 1.264 . S
O63 Mg56 1.986 1_556 S
O63 C67 1.246 . S
O64 Mg59 2.032 1_556 S
O64 C67 1.259 . S
O65 Mg56 2.114 . S
O65 C68 1.252 . S
O66 Mg56 2.251 . S
O66 Mg59 2.079 . S
O66 C68 1.273 . S
C67 O63 1.246 . S
C67 O64 1.259 . S
C68 O65 1.252 . S
C68 O66 1.273 . S
O69 Mg56 2.010 . S
O69 C61 1.249 . S
Mg70 O71 2.028 . S
Mg70 O77 1.986 . S
Mg70 O79 2.114 . S
Mg70 O80 2.251 . S
Mg70 O83 2.031 . S
O71 Mg70 2.028 . S
O71 C74 1.250 . S
O72 Mg73 2.028 . S
O72 C74 1.248 . S
Mg73 O72 2.028 . S
Mg73 O78 2.032 . S
Mg73 O80 2.079 . S
C74 O71 1.250 . S
C74 O72 1.248 . S
C75 O76 1.264 . S
C75 O83 1.229 1_565 S
O76 C75 1.264 . S
O77 Mg70 1.986 . S
O77 C81 1.246 . S
O78 Mg73 2.032 . S
O78 C81 1.259 . S
O79 Mg70 2.114 . S
O79 C82 1.252 . S
O80 Mg70 2.251 . S
O80 Mg73 2.079 . S
O80 C82 1.273 . S
C81 O77 1.246 . S
C81 O78 1.259 . S
C82 O79 1.252 . S
C82 O80 1.273 . S
O83 Mg70 2.031 . S
O83 C75 1.229 1_545 S
Mg84 O85 2.028 . S
Mg84 O91 1.986 . S
Mg84 O93 2.114 . S
Mg84 O94 2.251 . S
Mg84 O97 2.010 . S
O85 Mg84 2.028 . S
O85 C88 1.250 . S
O86 Mg87 2.028 . S
O86 C88 1.248 . S
Mg87 O86 2.028 . S
Mg87 O92 2.032 . S
Mg87 O94 2.079 . S
C88 O85 1.250 . S
C88 O86 1.248 . S
C89 O90 1.264 . S
C89 O97 1.249 . S
O90 C89 1.264 . S
O91 Mg84 1.986 . S
O91 C95 1.246 . S
O92 Mg87 2.032 . S
O92 C95 1.259 . S
O93 Mg84 2.114 . S
O93 C96 1.252 . S
O94 Mg84 2.251 . S
O94 Mg87 2.079 . S
O94 C96 1.273 . S
C95 O91 1.246 . S
C95 O92 1.259 . S
C96 O93 1.252 . S
C96 O94 1.273 . S
O97 Mg84 2.010 . S
O97 C89 1.249 . S
Mg98 O99 2.028 . S
Mg98 O105 1.986 . S
Mg98 O107 2.114 . S
Mg98 O108 2.251 . S
Mg98 O111 2.010 . S
O99 Mg98 2.028 . S
O99 C102 1.250 1_545 S
O100 Mg101 2.028 . S
O100 C102 1.248 . S
Mg101 O100 2.028 . S
Mg101 O106 2.032 . S
Mg101 O108 2.079 1_565 S
C102 O99 1.250 1_565 S
C102 O100 1.248 . S
C103 O104 1.264 . S
C103 O111 1.249 . S
O104 C103 1.264 . S
O105 Mg98 1.986 . S
O105 C109 1.246 . S
O106 Mg101 2.032 . S
O106 C109 1.259 1_565 S
O107 Mg98 2.114 . S
O107 C110 1.252 . S
O108 Mg98 2.251 . S
O108 Mg101 2.079 1_545 S
O108 C110 1.273 . S
C109 O105 1.246 . S
C109 O106 1.259 1_545 S
C110 O107 1.252 . S
C110 O108 1.273 . S
O111 Mg98 2.010 . S
O111 C103 1.249 . S
Mg112 O113 2.028 . S
Mg112 O119 1.986 . S
Mg112 O121 2.114 . S
Mg112 O122 2.251 . S
Mg112 O125 2.010 . S
O113 Mg112 2.028 . S
O113 C116 1.250 . S
O114 Mg115 2.028 . S
O114 C116 1.248 . S
Mg115 O114 2.028 . S
Mg115 O120 2.032 . S
Mg115 O122 2.079 . S
C116 O113 1.250 . S
C116 O114 1.248 . S
C117 O118 1.264 . S
C117 O125 1.249 . S
O118 C117 1.264 . S
O119 Mg112 1.986 . S
O119 C123 1.246 . S
O120 Mg115 2.032 . S
O120 C123 1.259 . S
O121 Mg112 2.114 . S
O121 C124 1.252 . S
O122 Mg112 2.251 . S
O122 Mg115 2.079 . S
O122 C124 1.273 . S
C123 O119 1.246 . S
C123 O120 1.259 . S
C124 O121 1.252 . S
C124 O122 1.273 . S
O125 Mg112 2.010 . S
O125 C117 1.249 . S
Mg126 O127 2.028 . S
Mg126 O133 1.986 . S
Mg126 O135 2.114 . S
Mg126 O136 2.251 . S
Mg126 O139 2.010 . S
O127 Mg126 2.028 . S
O127 C130 1.250 . S
O128 Mg129 2.028 . S
O128 C130 1.248 . S
Mg129 O128 2.028 . S
Mg129 O134 2.032 . S
Mg129 O136 2.079 . S
C130 O127 1.250 . S
C130 O128 1.248 . S
C131 O132 1.264 . S
C131 O139 1.249 . S
O132 C131 1.264 . S
O133 Mg126 1.986 . S
O133 C137 1.246 . S
O134 Mg129 2.032 . S
O134 C137 1.259 . S
O135 Mg126 2.114 . S
O135 C138 1.252 . S
O136 Mg126 2.251 . S
O136 Mg129 2.079 . S
O136 C138 1.273 . S
C137 O133 1.246 . S
C137 O134 1.259 . S
C138 O135 1.252 . S
C138 O136 1.273 . S
O139 Mg126 2.010 . S
O139 C131 1.249 . S
Mg140 O141 2.028 . S
Mg140 O147 1.986 . S
Mg140 O149 2.114 1_554 S
Mg140 O150 2.251 1_554 S
Mg140 O153 2.010 . S
O141 Mg140 2.028 . S
O141 C144 1.250 . S
O142 Mg143 2.028 1_554 S
O142 C144 1.248 . S
Mg143 O142 2.028 1_556 S
Mg143 O148 2.032 1_556 S
Mg143 O150 2.079 . S
C144 O141 1.250 . S
C144 O142 1.248 . S
C145 O146 1.264 . S
C145 O153 1.249 . S
O146 C145 1.264 . S
O147 Mg140 1.986 . S
O147 C151 1.246 . S
O148 Mg143 2.032 1_554 S
O148 C151 1.259 . S
O149 Mg140 2.114 1_556 S
O149 C152 1.252 . S
O150 Mg140 2.251 1_556 S
O150 Mg143 2.079 . S
O150 C152 1.273 . S
C151 O147 1.246 . S
C151 O148 1.259 . S
C152 O149 1.252 . S
C152 O150 1.273 . S
O153 Mg140 2.010 . S
O153 C145 1.249 . S
Mg154 O155 2.028 . S
Mg154 O161 1.986 . S
Mg154 O163 2.114 . S
Mg154 O164 2.251 . S
Mg154 O167 2.010 . S
O155 Mg154 2.028 . S
O155 C158 1.250 . S
O156 Mg157 2.028 . S
O156 C158 1.248 . S
Mg157 O156 2.028 . S
Mg157 O162 2.032 . S
Mg157 O164 2.079 . S
C158 O155 1.250 . S
C158 O156 1.248 . S
C159 O160 1.264 . S
C159 O167 1.249 . S
O160 C159 1.264 . S
O161 Mg154 1.986 . S
O161 C165 1.246 . S
O162 Mg157 2.032 . S
O162 C165 1.259 . S
O163 Mg154 2.114 . S
O163 C166 1.252 . S
O164 Mg154 2.251 . S
O164 Mg157 2.079 . S
O164 C166 1.273 . S
C165 O161 1.246 . S
C165 O162 1.259 . S
C166 O163 1.252 . S
C166 O164 1.273 . S
O167 Mg154 2.010 . S
O167 C159 1.249 . S
Mg168 O169 2.028 . S
Mg168 O175 1.986 . S
Mg168 O177 2.114 . S
Mg168 O178 2.251 . S
Mg168 O181 2.010 . S
O169 Mg168 2.028 . S
O169 C172 1.250 . S
O170 Mg171 2.028 . S
O170 C172 1.248 . S
Mg171 O170 2.028 . S
Mg171 O176 2.032 . S
Mg171 O178 2.079 . S
C172 O169 1.250 . S
C172 O170 1.248 . S
C173 O174 1.264 . S
C173 O181 1.249 . S
O174 C173 1.264 . S
O175 Mg168 1.986 . S
O175 C179 1.246 . S
O176 Mg171 2.032 . S
O176 C179 1.259 . S
O177 Mg168 2.114 . S
O177 C180 1.252 . S
O178 Mg168 2.251 . S
O178 Mg171 2.079 . S
O178 C180 1.273 . S
C179 O175 1.246 . S
C179 O176 1.259 . S
C180 O177 1.252 . S
C180 O178 1.273 . S
O181 Mg168 2.010 . S
O181 C173 1.249 . S
Mg182 O183 2.028 . S
Mg182 O189 1.986 . S
Mg182 O191 2.114 . S
Mg182 O192 2.251 . S
Mg182 O195 2.010 . S
O183 Mg182 2.028 . S
O183 C186 1.250 . S
O184 Mg185 2.028 . S
O184 C186 1.248 . S
Mg185 O184 2.028 . S
Mg185 O190 2.032 . S
Mg185 O192 2.079 . S
C186 O183 1.250 . S
C186 O184 1.248 . S
C187 O188 1.264 . S
C187 O195 1.249 . S
O188 C187 1.264 . S
O189 Mg182 1.986 . S
O189 C193 1.246 . S
O190 Mg185 2.032 . S
O190 C193 1.259 . S
O191 Mg182 2.114 . S
O191 C194 1.252 . S
O192 Mg182 2.251 . S
O192 Mg185 2.079 . S
O192 C194 1.273 . S
C193 O189 1.246 . S
C193 O190 1.259 . S
C194 O191 1.252 . S
C194 O192 1.273 . S
O195 Mg182 2.010 . S
O195 C187 1.249 . S
Mg196 O197 2.028 . S
Mg196 O203 1.986 1_554 S
Mg196 O205 2.114 . S
Mg196 O206 2.251 . S
Mg196 O209 2.010 1_554 S
O197 Mg196 2.028 . S
O197 C200 1.250 . S
O198 Mg199 2.028 . S
O198 C200 1.248 . S
Mg199 O198 2.028 . S
Mg199 O204 2.032 1_554 S
Mg199 O206 2.079 . S
C200 O197 1.250 . S
C200 O198 1.248 . S
C201 O202 1.264 . S
C201 O209 1.249 . S
O202 C201 1.264 . S
O203 Mg196 1.986 1_556 S
O203 C207 1.246 . S
O204 Mg199 2.032 1_556 S
O204 C207 1.259 . S
O205 Mg196 2.114 . S
O205 C208 1.252 . S
O206 Mg196 2.251 . S
O206 Mg199 2.079 . S
O206 C208 1.273 . S
C207 O203 1.246 . S
C207 O204 1.259 . S
C208 O205 1.252 . S
C208 O206 1.273 . S
O209 Mg196 2.010 1_556 S
O209 C201 1.249 . S
Mg210 O211 2.028 . S
Mg210 O217 1.986 . S
Mg210 O219 2.114 . S
Mg210 O220 2.251 . S
Mg210 O223 2.010 . S
O211 Mg210 2.028 . S
O211 C214 1.250 . S
O212 Mg213 2.028 . S
O212 C214 1.248 . S
Mg213 O212 2.028 . S
Mg213 O218 2.032 . S
Mg213 O220 2.079 . S
C214 O211 1.250 . S
C214 O212 1.248 . S
C215 O216 1.264 . S
C215 O223 1.249 . S
O216 C215 1.264 . S
O217 Mg210 1.986 . S
O217 C221 1.246 . S
O218 Mg213 2.032 . S
O218 C221 1.259 . S
O219 Mg210 2.114 . S
O219 C222 1.252 . S
O220 Mg210 2.251 . S
O220 Mg213 2.079 . S
O220 C222 1.273 . S
C221 O217 1.246 . S
C221 O218 1.259 . S
C222 O219 1.252 . S
C222 O220 1.273 . S
O223 Mg210 2.010 . S
O223 C215 1.249 . S
C224 C225 1.387 . S
C224 H228 0.950 . S
C224 C233 1.390 . S
C225 C224 1.387 . S
C225 C227 1.387 . S
H226 C233 0.950 . S
C227 C225 1.387 . S
C227 C229 1.390 . S
C227 H231 0.950 . S
H228 C224 0.950 . S
C229 C227 1.390 . S
C229 C230 1.387 . S
C229 H232 0.950 . S
C230 C229 1.387 . S
C230 C233 1.387 . S
H231 C227 0.950 . S
H232 C229 0.950 . S
C233 C224 1.390 . S
C233 H226 0.950 . S
C233 C230 1.387 . S
C234 C235 1.387 . S
C234 H238 0.950 . S
C234 C243 1.390 1_655 S
C235 C234 1.387 . S
C235 C237 1.387 . S
H236 C243 0.950 . S
C237 C235 1.387 . S
C237 C239 1.390 1_655 S
C237 H241 0.950 . S
H238 C234 0.950 . S
C239 C237 1.390 1_455 S
C239 C240 1.387 . S
C239 H242 0.950 . S
C240 C239 1.387 . S
C240 C243 1.387 . S
H241 C237 0.950 . S
H242 C239 0.950 . S
C243 C234 1.390 1_455 S
C243 H236 0.950 . S
C243 C240 1.387 . S
C244 C245 1.387 . S
C244 H248 0.950 . S
C244 C253 1.390 . S
C245 C244 1.387 . S
C245 C247 1.387 . S
H246 C253 0.950 . S
C247 C245 1.387 . S
C247 C249 1.390 . S
C247 H251 0.950 . S
H248 C244 0.950 . S
C249 C247 1.390 . S
C249 C250 1.387 . S
C249 H252 0.950 . S
C250 C249 1.387 . S
C250 C253 1.387 . S
H251 C247 0.950 . S
H252 C249 0.950 . S
C253 C244 1.390 . S
C253 H246 0.950 . S
C253 C250 1.387 . S
C254 C255 1.387 . S
C254 H258 0.950 . S
C254 C263 1.390 . S
C255 C254 1.387 . S
C255 C257 1.387 . S
H256 C263 0.950 . S
C257 C255 1.387 . S
C257 C259 1.402 . S
C257 H261 0.950 1_545 S
H258 C254 0.950 . S
C259 C257 1.402 . S
C259 C260 1.405 . S
C259 H262 0.921 1_545 S
C260 C259 1.405 . S
C260 C263 1.387 . S
H261 C257 0.950 1_565 S
H262 C259 0.921 1_565 S
C263 C254 1.390 . S
C263 H256 0.950 . S
C263 C260 1.387 . S
C264 C265 1.387 . S
C264 H268 0.950 . S
C264 C273 1.390 . S
C265 C264 1.387 . S
C265 C267 1.387 . S
H266 C273 0.950 . S
C267 C265 1.387 . S
C267 C269 1.390 . S
C267 H271 0.950 . S
H268 C264 0.950 . S
C269 C267 1.390 . S
C269 C270 1.387 . S
C269 H272 0.950 . S
C270 C269 1.387 . S
C270 C273 1.387 . S
H271 C267 0.950 . S
H272 C269 0.950 . S
C273 C264 1.390 . S
C273 H266 0.950 . S
C273 C270 1.387 . S
C274 C275 1.387 1_565 S
C274 H278 0.950 . S
C274 C283 1.390 1_565 S
C275 C274 1.387 1_545 S
C275 C277 1.387 . S
H276 C283 0.950 1_565 S
C277 C275 1.387 . S
C277 C279 1.390 . S
C277 H281 0.950 . S
H278 C274 0.950 . S
C279 C277 1.390 . S
C279 C280 1.387 . S
C279 H282 0.950 . S
C280 C279 1.387 . S
C280 C283 1.387 . S
H281 C277 0.950 . S
H282 C279 0.950 . S
C283 C274 1.390 1_545 S
C283 H276 0.950 1_545 S
C283 C280 1.387 . S
C284 C285 1.387 . S
C284 H288 0.950 . S
C284 C293 1.390 . S
C285 C284 1.387 . S
C285 C287 1.387 . S
H286 C293 0.950 . S
C287 C285 1.387 . S
C287 C289 1.390 . S
C287 H291 0.950 . S
H288 C284 0.950 . S
C289 C287 1.390 . S
C289 C290 1.387 . S
C289 H292 0.950 . S
C290 C289 1.387 . S
C290 C293 1.387 . S
H291 C287 0.950 . S
H292 C289 0.950 . S
C293 C284 1.390 . S
C293 H286 0.950 . S
C293 C290 1.387 . S
C294 C295 1.387 . S
C294 H298 0.950 . S
C294 C303 1.390 1_455 S
C295 C294 1.387 . S
C295 C297 1.387 . S
H296 C303 0.950 . S
C297 C295 1.387 . S
C297 C299 1.390 . S
C297 H301 0.950 . S
H298 C294 0.950 . S
C299 C297 1.390 . S
C299 C300 1.387 1_455 S
C299 H302 0.950 . S
C300 C299 1.387 1_655 S
C300 C303 1.387 . S
H301 C297 0.950 . S
H302 C299 0.950 . S
C303 C294 1.390 1_655 S
C303 H296 0.950 . S
C303 C300 1.387 . S
C304 C305 1.387 . S
C304 H308 0.950 . S
C304 C313 1.390 . S
C305 C304 1.387 . S
C305 C307 1.387 . S
H306 C313 0.950 . S
C307 C305 1.387 . S
C307 C309 1.390 . S
C307 H311 0.950 . S
H308 C304 0.950 . S
C309 C307 1.390 . S
C309 C310 1.387 . S
C309 H312 0.950 . S
C310 C309 1.387 . S
C310 C313 1.387 . S
H311 C307 0.950 . S
H312 C309 0.950 . S
C313 C304 1.390 . S
C313 H306 0.950 . S
C313 C310 1.387 . S
C314 C315 1.387 . S
C314 H318 0.950 . S
C314 C323 1.390 . S
C315 C314 1.387 . S
C315 C317 1.387 . S
H316 C323 0.950 . S
C317 C315 1.387 . S
C317 C319 1.390 . S
C317 H321 0.950 . S
H318 C314 0.950 . S
C319 C317 1.390 . S
C319 C320 1.387 . S
C319 H322 0.950 . S
C320 C319 1.387 . S
C320 C323 1.387 . S
H321 C317 0.950 . S
H322 C319 0.950 . S
C323 C314 1.390 . S
C323 H316 0.950 . S
C323 C320 1.387 . S
C324 C325 1.387 . S
C324 H328 0.950 . S
C324 C333 1.390 . S
C325 C324 1.387 . S
C325 C327 1.387 . S
H326 C333 0.950 . S
C327 C325 1.387 . S
C327 C329 1.390 . S
C327 H331 0.950 . S
H328 C324 0.950 . S
C329 C327 1.390 . S
C329 C330 1.387 . S
C329 H332 0.950 . S
C330 C329 1.387 . S
C330 C333 1.387 . S
H331 C327 0.950 . S
H332 C329 0.950 . S
C333 C324 1.390 . S
C333 H326 0.950 . S
C333 C330 1.387 . S
C334 C335 1.387 . S
C334 H338 0.950 . S
C334 C343 1.390 . S
C335 C334 1.387 . S
C335 C337 1.387 . S
H336 C343 0.950 . S
C337 C335 1.387 . S
C337 C339 1.390 . S
C337 H341 0.950 . S
H338 C334 0.950 . S
C339 C337 1.390 . S
C339 C340 1.387 . S
C339 H342 0.950 . S
C340 C339 1.387 . S
C340 C343 1.387 . S
H341 C337 0.950 . S
H342 C339 0.950 . S
C343 C334 1.390 . S
C343 H336 0.950 . S
C343 C340 1.387 . S
C344 C345 1.387 . S
C344 H348 0.950 . S
C344 C353 1.390 1_554 S
C345 C344 1.387 . S
C345 C347 1.387 . S
H346 C353 0.950 . S
C347 C345 1.387 . S
C347 C349 1.390 . S
C347 H351 0.950 . S
H348 C344 0.950 . S
C349 C347 1.390 . S
C349 C350 1.387 1_554 S
C349 H352 0.950 . S
C350 C349 1.387 1_556 S
C350 C353 1.387 . S
H351 C347 0.950 . S
H352 C349 0.950 . S
C353 C344 1.390 1_556 S
C353 H346 0.950 . S
C353 C350 1.387 . S
C354 C355 1.387 1_655 S
C354 H358 0.950 . S
C354 C363 1.390 . S
C355 C354 1.387 1_455 S
C355 C357 1.387 . S
H356 C363 0.950 . S
C357 C355 1.387 . S
C357 C359 1.390 . S
C357 H361 0.950 . S
H358 C354 0.950 . S
C359 C357 1.390 . S
C359 C360 1.387 1_455 S
C359 H362 0.950 . S
C360 C359 1.387 1_655 S
C360 C363 1.387 . S
H361 C357 0.950 . S
H362 C359 0.950 . S
C363 C354 1.390 . S
C363 H356 0.950 . S
C363 C360 1.387 . S
C364 C365 1.387 . S
C364 H368 0.950 . S
C364 C373 1.390 . S
C365 C364 1.387 . S
C365 C367 1.387 1_455 S
H366 C373 0.950 1_556 S
C367 C365 1.387 1_655 S
C367 C369 1.390 . S
C367 H371 0.950 . S
H368 C364 0.950 . S
C369 C367 1.390 . S
C369 C370 1.387 . S
C369 H372 0.950 . S
C370 C369 1.387 . S
C370 C373 1.387 1_655 S
H371 C367 0.950 . S
H372 C369 0.950 . S
C373 C364 1.390 . S
C373 H366 0.950 1_554 S
C373 C370 1.387 1_455 S
C374 C375 1.387 . S
C374 H378 0.950 . S
C374 C383 1.390 . S
C375 C374 1.387 . S
C375 C377 1.387 . S
H376 C383 0.950 . S
C377 C375 1.387 . S
C377 C379 1.390 . S
C377 H381 0.950 . S
H378 C374 0.950 . S
C379 C377 1.390 . S
C379 C380 1.387 . S
C379 H382 0.950 . S
C380 C379 1.387 . S
C380 C383 1.387 . S
H381 C377 0.950 . S
H382 C379 0.950 . S
C383 C374 1.390 . S
C383 H376 0.950 . S
C383 C380 1.387 . S
C384 C385 1.387 . S
C384 H388 0.950 . S
C384 C393 1.390 . S
C385 C384 1.387 . S
C385 C387 1.387 . S
H386 C393 0.950 . S
C387 C385 1.387 . S
C387 C389 1.390 . S
C387 H391 0.950 . S
H388 C384 0.950 . S
C389 C387 1.390 . S
C389 C390 1.387 . S
C389 H392 0.950 . S
C390 C389 1.387 . S
C390 C393 1.387 . S
H391 C387 0.950 . S
H392 C389 0.950 . S
C393 C384 1.390 . S
C393 H386 0.950 . S
C393 C390 1.387 . S
C394 C395 1.387 . S
C394 H398 0.950 . S
C394 C403 1.390 . S
C395 C394 1.387 . S
C395 C397 1.387 . S
H396 C403 0.961 . S
C397 C395 1.387 . S
C397 C399 1.390 . S
C397 H401 0.950 . S
H398 C394 0.950 . S
C399 C397 1.390 . S
C399 C400 1.387 . S
C399 H402 0.950 . S
C400 C399 1.387 . S
C400 C403 1.387 . S
H401 C397 0.950 . S
H402 C399 0.950 . S
C403 C394 1.390 . S
C403 H396 0.961 . S
C403 C400 1.387 . S
C404 C405 1.387 . S
C404 H408 0.950 . S
C404 C413 1.390 . S
C405 C404 1.387 . S
C405 C407 1.387 . S
H406 C413 0.950 . S
C407 C405 1.387 . S
C407 C409 1.390 . S
C407 H411 0.950 . S
H408 C404 0.950 . S
C409 C407 1.390 . S
C409 C410 1.387 . S
C409 H412 0.950 . S
C410 C409 1.387 . S
C410 C413 1.387 . S
H411 C407 0.950 . S
H412 C409 0.950 . S
C413 C404 1.390 . S
C413 H406 0.950 . S
C413 C410 1.387 . S
C414 C415 1.387 . S
C414 H418 0.950 . S
C414 C423 1.390 . S
C415 C414 1.387 . S
C415 C417 1.387 1_556 S
H416 C423 0.950 . S
C417 C415 1.387 1_554 S
C417 C419 1.390 1_554 S
C417 H421 0.950 . S
H418 C414 0.950 . S
C419 C417 1.390 1_556 S
C419 C420 1.387 . S
C419 H422 0.950 1_556 S
C420 C419 1.387 . S
C420 C423 1.387 . S
H421 C417 0.950 . S
H422 C419 0.950 1_554 S
C423 C414 1.390 . S
C423 H416 0.950 . S
C423 C420 1.387 . S
C424 C425 1.387 . S
C424 H428 0.950 . S
C424 C433 1.390 . S
C425 C424 1.387 . S
C425 C427 1.387 . S
H426 C433 0.950 . S
C427 C425 1.387 . S
C427 C429 1.390 . S
C427 H431 0.950 . S
H428 C424 0.950 . S
C429 C427 1.390 . S
C429 C430 1.387 . S
C429 H432 0.950 . S
C430 C429 1.387 . S
C430 C433 1.387 . S
H431 C427 0.950 . S
H432 C429 0.950 . S
C433 C424 1.390 . S
C433 H426 0.950 . S
C433 C430 1.387 . S
C434 C435 1.387 . S
C434 H438 0.950 . S
C434 C443 1.390 . S
C435 C434 1.387 . S
C435 C437 1.387 . S
H436 C443 0.950 . S
C437 C435 1.387 . S
C437 C439 1.390 . S
C437 H441 0.950 . S
H438 C434 0.950 . S
C439 C437 1.390 . S
C439 C440 1.387 . S
C439 H442 0.950 . S
C440 C439 1.387 . S
C440 C443 1.387 . S
H441 C437 0.950 . S
H442 C439 0.950 . S
C443 C434 1.390 . S
C443 H436 0.950 . S
C443 C440 1.387 . S
C444 C445 1.387 . S
C444 H448 0.950 1_556 S
C444 C453 1.390 1_556 S
C445 C444 1.387 . S
C445 C447 1.387 . S
H446 C453 0.950 . S
C447 C445 1.387 . S
C447 C449 1.390 . S
C447 H451 0.950 . S
H448 C444 0.950 1_554 S
C449 C447 1.390 . S
C449 C450 1.387 . S
C449 H452 0.950 . S
C450 C449 1.387 . S
C450 C453 1.387 1_556 S
H451 C447 0.950 . S
H452 C449 0.950 . S
C453 C444 1.390 1_554 S
C453 H446 0.950 . S
C453 C450 1.387 1_554 S
C454 C455 1.387 . S
C454 H458 0.950 . S
C454 C463 1.390 . S
C455 C454 1.387 . S
C455 C457 1.387 . S
H456 C463 0.950 . S
C457 C455 1.387 . S
C457 C459 1.390 . S
C457 H461 0.950 . S
H458 C454 0.950 . S
C459 C457 1.390 . S
C459 C460 1.387 . S
C459 H462 0.950 . S
C460 C459 1.387 . S
C460 C463 1.387 . S
H461 C457 0.950 . S
H462 C459 0.950 . S
C463 C454 1.390 . S
C463 H456 0.950 . S
C463 C460 1.387 . S
C464 C465 1.387 . S
C464 H468 0.950 . S
C464 C473 1.390 1_554 S
C465 C464 1.387 . S
C465 C467 1.387 1_554 S
H466 C473 0.950 1_554 S
C467 C465 1.387 1_556 S
C467 C469 1.390 . S
C467 H471 0.950 . S
H468 C464 0.950 . S
C469 C467 1.390 . S
C469 C470 1.387 . S
C469 H472 0.950 . S
C470 C469 1.387 . S
C470 C473 1.387 . S
H471 C467 0.950 . S
H472 C469 0.950 . S
C473 C464 1.390 1_556 S
C473 H466 0.950 1_556 S
C473 C470 1.387 . S
C474 C475 1.387 . S
C474 H478 0.950 . S
C474 C483 1.390 . S
C475 C474 1.387 . S
C475 C477 1.387 . S
H476 C483 0.950 . S
C477 C475 1.387 . S
C477 C479 1.390 . S
C477 H481 0.950 . S
H478 C474 0.950 . S
C479 C477 1.390 . S
C479 C480 1.387 . S
C479 H482 0.950 . S
C480 C479 1.387 . S
C480 C483 1.387 . S
H481 C477 0.950 . S
H482 C479 0.950 . S
C483 C474 1.390 . S
C483 H476 0.950 . S
C483 C480 1.387 . S
C484 C485 1.387 . S
C484 H488 0.950 . S
C484 C493 1.390 . S
C485 C484 1.387 . S
C485 C487 1.387 . S
H486 C493 0.950 . S
C487 C485 1.387 . S
C487 C489 1.390 . S
C487 H491 0.950 . S
H488 C484 0.950 . S
C489 C487 1.390 . S
C489 C490 1.387 . S
C489 H492 0.950 . S
C490 C489 1.387 . S
C490 C493 1.387 . S
H491 C487 0.950 . S
H492 C489 0.950 . S
C493 C484 1.390 . S
C493 H486 0.950 . S
C493 C490 1.387 . S
C494 C495 1.387 . S
C494 H498 0.950 1_565 S
C494 C503 1.390 . S
C495 C494 1.387 . S
C495 C497 1.387 . S
H496 C503 0.950 . S
C497 C495 1.387 . S
C497 C499 1.390 . S
C497 H501 0.950 . S
H498 C494 0.950 1_545 S
C499 C497 1.390 . S
C499 C500 1.387 . S
C499 H502 0.950 . S
C500 C499 1.387 . S
C500 C503 1.387 . S
H501 C497 0.950 . S
H502 C499 0.950 . S
C503 C494 1.390 . S
C503 H496 0.950 . S
C503 C500 1.387 . S
C504 C505 1.387 . S
C504 H508 0.950 . S
C504 C513 1.390 . S
C505 C504 1.387 . S
C505 C507 1.387 . S
H506 C513 0.950 . S
C507 C505 1.387 . S
C507 C509 1.390 . S
C507 H511 0.950 . S
H508 C504 0.950 . S
C509 C507 1.390 . S
C509 C510 1.387 . S
C509 H512 0.950 . S
C510 C509 1.387 . S
C510 C513 1.387 . S
H511 C507 0.950 . S
H512 C509 0.950 . S
C513 C504 1.390 . S
C513 H506 0.950 . S
C513 C510 1.387 . S
C514 C515 1.387 . S
C514 H518 0.950 . S
C514 C523 1.390 . S
C515 C514 1.387 . S
C515 C517 1.387 . S
H516 C523 0.950 . S
C517 C515 1.387 . S
C517 C519 1.390 . S
C517 H521 0.950 . S
H518 C514 0.950 . S
C519 C517 1.390 . S
C519 C520 1.387 . S
C519 H522 0.950 . S
C520 C519 1.387 . S
C520 C523 1.387 . S
H521 C517 0.950 . S
H522 C519 0.950 . S
C523 C514 1.390 . S
C523 H516 0.950 . S
C523 C520 1.387 . S
C524 C525 1.387 . S
C524 H528 0.950 . S
C524 C533 1.390 . S
C525 C524 1.387 . S
C525 C527 1.387 . S
H526 C533 0.950 . S
C527 C525 1.387 . S
C527 C529 1.390 . S
C527 H531 0.950 . S
H528 C524 0.950 . S
C529 C527 1.390 . S
C529 C530 1.387 . S
C529 H532 0.950 . S
C530 C529 1.387 . S
C530 C533 1.387 . S
H531 C527 0.950 . S
H532 C529 0.950 . S
C533 C524 1.390 . S
C533 H526 0.950 . S
C533 C530 1.387 . S
C534 C535 1.387 . S
C534 H538 0.950 . S
C534 C543 1.390 . S
C535 C534 1.387 . S
C535 C537 1.387 1_556 S
H536 C543 0.950 . S
C537 C535 1.387 1_554 S
C537 C539 1.390 1_554 S
C537 H541 0.950 . S
H538 C534 0.950 . S
C539 C537 1.390 1_556 S
C539 C540 1.387 . S
C539 H542 0.950 . S
C540 C539 1.387 . S
C540 C543 1.387 . S
H541 C537 0.950 . S
H542 C539 0.950 . S
C543 C534 1.390 . S
C543 H536 0.950 . S
C543 C540 1.387 . S
C225 C12 1.266 . S
C230 C179 1.268 . S
C235 C18 1.322 . S
C240 C82 1.317 . S
C245 C32 1.228 . S
C250 C207 1.225 . S
C255 C110 1.297 . S
C260 C54 1.296 1_554 S
C265 C208 1.295 . S
C270 C40 1.294 . S
C275 C109 1.225 . S
C280 C46 1.229 . S
C285 C180 1.318 . S
C290 C4 1.321 . S
C295 C81 1.270 1_554 S
C300 C26 1.267 . S
C305 C67 1.269 . S
C310 C124 1.267 . S
C315 C95 1.223 . S
C320 C144 1.226 . S
C325 C152 1.296 . S
C330 C96 1.297 . S
C335 C68 1.316 . S
C340 C116 1.321 . S
C345 C194 1.317 . S
C350 C130 1.322 . S
C355 C166 1.293 . S
C360 C222 1.294 . S
C365 C158 1.227 . S
C370 C221 1.224 1_554 S
C375 C138 1.266 . S
C380 C193 1.268 . S
C385 C159 1.386 . S
C390 C11 1.509 . S
C395 C117 1.379 . S
C400 C19 1.381 . S
C405 C33 1.384 . S
C410 C137 1.510 . S
C415 C151 1.523 1_556 S
C420 C53 1.524 . S
C425 C165 1.524 . S
C430 C39 1.523 . S
C435 C47 1.386 . S
C440 C123 1.509 . S
C445 C131 1.380 . S
C450 C5 1.378 1_556 S
C455 C145 1.385 . S
C460 C25 1.509 . S
C465 C61 1.349 . S
C470 C215 1.359 . S
C475 C172 1.479 . S
C480 C74 1.477 . S
C485 C89 1.357 . S
C490 C187 1.349 . S
C495 C102 1.481 . S
C500 C200 1.481 . S
C505 C88 1.480 . S
C510 C214 1.481 . S
C515 C173 1.351 . S
C520 C103 1.354 . S
C525 C186 1.476 . S
C530 C60 1.477 . S
C535 C201 1.359 . S
C540 C75 1.348 . S
