# Generated by pormake.
# Topology wkh, (6)-cn, num edge types: 1
# Building blocks:
#     Node 0, Type 0, BuildingBlock: OJICUG_clean_sbu_0, # of connection points: 6
#     Node 1, Type 0, BuildingBlock: OJICUG_clean_sbu_0, # of connection points: 6
#     Node 2, Type 0, BuildingBlock: OJICUG_clean_sbu_0, # of connection points: 6
#     Node 3, Type 0, BuildingBlock: OJICUG_clean_sbu_0, # of connection points: 6
#     Node 4, Type 0, BuildingBlock: OJICUG_clean_sbu_0, # of connection points: 6
#     Node 5, Type 0, BuildingBlock: OJICUG_clean_sbu_0, # of connection points: 6
#     Node 6, Type 0, BuildingBlock: OJICUG_clean_sbu_0, # of connection points: 6
#     Node 7, Type 0, BuildingBlock: OJICUG_clean_sbu_0, # of connection points: 6
#     Node 8, Type 0, BuildingBlock: OJICUG_clean_sbu_0, # of connection points: 6
#     Node 9, Type 0, BuildingBlock: OJICUG_clean_sbu_0, # of connection points: 6
#     Node 10, Type 0, BuildingBlock: OJICUG_clean_sbu_0, # of connection points: 6
#     Node 11, Type 0, BuildingBlock: OJICUG_clean_sbu_0, # of connection points: 6
#     Edge 12, Type (0, 0), BuildingBlock: ZUJKAS_clean_linker_0, # of connection points: 2
#     Edge 13, Type (0, 0), BuildingBlock: ZUJKAS_clean_linker_0, # of connection points: 2
#     Edge 14, Type (0, 0), BuildingBlock: ZUJKAS_clean_linker_0, # of connection points: 2
#     Edge 15, Type (0, 0), BuildingBlock: ZUJKAS_clean_linker_0, # of connection points: 2
#     Edge 16, Type (0, 0), BuildingBlock: ZUJKAS_clean_linker_0, # of connection points: 2
#     Edge 17, Type (0, 0), BuildingBlock: ZUJKAS_clean_linker_0, # of connection points: 2
#     Edge 18, Type (0, 0), BuildingBlock: ZUJKAS_clean_linker_0, # of connection points: 2
#     Edge 19, Type (0, 0), BuildingBlock: ZUJKAS_clean_linker_0, # of connection points: 2
#     Edge 20, Type (0, 0), BuildingBlock: ZUJKAS_clean_linker_0, # of connection points: 2
#     Edge 21, Type (0, 0), BuildingBlock: ZUJKAS_clean_linker_0, # of connection points: 2
#     Edge 22, Type (0, 0), BuildingBlock: ZUJKAS_clean_linker_0, # of connection points: 2
#     Edge 23, Type (0, 0), BuildingBlock: ZUJKAS_clean_linker_0, # of connection points: 2
#     Edge 24, Type (0, 0), BuildingBlock: ZUJKAS_clean_linker_0, # of connection points: 2
#     Edge 25, Type (0, 0), BuildingBlock: ZUJKAS_clean_linker_0, # of connection points: 2
#     Edge 26, Type (0, 0), BuildingBlock: ZUJKAS_clean_linker_0, # of connection points: 2
#     Edge 27, Type (0, 0), BuildingBlock: ZUJKAS_clean_linker_0, # of connection points: 2
#     Edge 28, Type (0, 0), BuildingBlock: ZUJKAS_clean_linker_0, # of connection points: 2
#     Edge 29, Type (0, 0), BuildingBlock: ZUJKAS_clean_linker_0, # of connection points: 2
#     Edge 30, Type (0, 0), BuildingBlock: ZUJKAS_clean_linker_0, # of connection points: 2
#     Edge 31, Type (0, 0), BuildingBlock: ZUJKAS_clean_linker_0, # of connection points: 2
#     Edge 32, Type (0, 0), BuildingBlock: ZUJKAS_clean_linker_0, # of connection points: 2
#     Edge 33, Type (0, 0), BuildingBlock: ZUJKAS_clean_linker_0, # of connection points: 2
#     Edge 34, Type (0, 0), BuildingBlock: ZUJKAS_clean_linker_0, # of connection points: 2
#     Edge 35, Type (0, 0), BuildingBlock: ZUJKAS_clean_linker_0, # of connection points: 2
#     Edge 36, Type (0, 0), BuildingBlock: ZUJKAS_clean_linker_0, # of connection points: 2
#     Edge 37, Type (0, 0), BuildingBlock: ZUJKAS_clean_linker_0, # of connection points: 2
#     Edge 38, Type (0, 0), BuildingBlock: ZUJKAS_clean_linker_0, # of connection points: 2
#     Edge 39, Type (0, 0), BuildingBlock: ZUJKAS_clean_linker_0, # of connection points: 2
#     Edge 40, Type (0, 0), BuildingBlock: ZUJKAS_clean_linker_0, # of connection points: 2
#     Edge 41, Type (0, 0), BuildingBlock: ZUJKAS_clean_linker_0, # of connection points: 2
#     Edge 42, Type (0, 0), BuildingBlock: ZUJKAS_clean_linker_0, # of connection points: 2
#     Edge 43, Type (0, 0), BuildingBlock: ZUJKAS_clean_linker_0, # of connection points: 2
#     Edge 44, Type (0, 0), BuildingBlock: ZUJKAS_clean_linker_0, # of connection points: 2
#     Edge 45, Type (0, 0), BuildingBlock: ZUJKAS_clean_linker_0, # of connection points: 2
#     Edge 46, Type (0, 0), BuildingBlock: ZUJKAS_clean_linker_0, # of connection points: 2
#     Edge 47, Type (0, 0), BuildingBlock: ZUJKAS_clean_linker_0, # of connection points: 2
# Relax obj value: 0.288
# Max RMSD: 0.268
# Mean RMSD: 0.268
data_MOF--net-wkh--node1-OJICUG_clean_sbu_0--edge1-ZUJKAS_clean_linker_0
_symmetry_space_group_name_H-M    P1
_symmetry_Int_Tables_number       1
_symmetry_cell_setting            triclinic
loop_
_symmetry_equiv_pos_as_xyz
'x, y, z'
_cell_length_a     34.150685
_cell_length_b     34.121995
_cell_length_c     108.88213
_cell_angle_alpha  89.987738
_cell_angle_beta   90.072911
_cell_angle_gamma 120.05208
loop_
_atom_site_label
_atom_site_type_symbol
_atom_site_fract_x
_atom_site_fract_y
_atom_site_fract_z
_atom_type_partial_charge
Sc0 Sc 0.29463 0.31426 0.01781 0.0
Sc1 Sc 0.17984 0.277 0.01528 0.0
Sc2 Sc 0.25151 0.37602 0.03155 0.0
O3 O 0.24156 0.32262 0.02131 0.0
C4 C 0.30709 0.34042 0.04549 0.0
C5 C 0.22085 0.2167 0.0254 0.0
C6 C 0.15404 0.29992 0.04103 0.0
C7 C 0.23826 0.27738 0.99283 0.0
C8 C 0.3412 0.41658 0.01485 0.0
C9 C 0.18593 0.37351 0.01092 0.0
O10 O 0.32619 0.34156 0.03538 0.0
O11 O 0.18912 0.22101 0.02056 0.0
O12 O 0.18675 0.34052 0.04077 0.0
O13 O 0.2715 0.28599 0.99979 0.0
O14 O 0.3198 0.41973 0.02407 0.0
O15 O 0.16688 0.33046 0.01005 0.0
O16 O 0.32896 0.37923 0.0095 0.0
O17 O 0.20321 0.27744 0.99675 0.0
O18 O 0.22128 0.39746 0.01746 0.0
O19 O 0.26158 0.24878 0.02599 0.0
O20 O 0.27674 0.35152 0.04607 0.0
O21 O 0.1493 0.27083 0.03302 0.0
Sc22 Sc 0.901 0.28687 0.19627 0.0
Sc23 Sc 0.87365 0.18789 0.17935 0.0
Sc24 Sc 0.9867 0.27294 0.18246 0.0
O25 O 0.92033 0.24958 0.18595 0.0
C26 C 0.97746 0.36037 0.17829 0.0
C27 C 0.82104 0.242 0.17634 0.0
C28 C 0.94232 0.22375 0.15697 0.0
C29 C 0.83992 0.18662 0.20699 0.0
C30 C 0.99336 0.31031 0.20958 0.0
C31 C 0.95122 0.17047 0.18922 0.0
O32 O 0.94359 0.34783 0.18549 0.0
O33 O 0.82963 0.21121 0.17335 0.0
O34 O 0.97524 0.24905 0.16391 0.0
O35 O 0.85935 0.22956 0.20806 0.0
O36 O 0.00901 0.30067 0.20028 0.0
O37 O 0.91191 0.15734 0.18504 0.0
O38 O 0.95406 0.30561 0.20983 0.0
O39 O 0.84089 0.16735 0.19707 0.0
O40 O 0.98269 0.21164 0.18914 0.0
O41 O 0.84323 0.27157 0.18455 0.0
O42 O 0.99521 0.33604 0.17602 0.0
O43 O 0.90193 0.20089 0.16092 0.0
Sc44 Sc 0.70282 0.00119 0.34946 0.0
Sc45 Sc 0.71062 0.89619 0.34568 0.0
Sc46 Sc 0.63279 0.90426 0.36594 0.0
O47 O 0.68398 0.93397 0.35365 0.0
C48 C 0.68234 0.00084 0.37698 0.0
C49 C 0.76844 0.98931 0.35784 0.0
C50 C 0.69111 0.85717 0.37321 0.0
C51 C 0.72636 0.9677 0.32438 0.0
C52 C 0.60141 0.95867 0.34783 0.0
C53 C 0.60373 0.82616 0.34584 0.0
O54 O 0.67982 0.01505 0.36645 0.0
O55 O 0.72922 0.95547 0.35575 0.0
O56 O 0.66254 0.86984 0.37544 0.0
O57 O 0.72815 0.99742 0.33175 0.0
O58 O 0.59702 0.93703 0.35784 0.0
O59 O 0.64354 0.84171 0.34159 0.0
O60 O 0.63773 0.97652 0.34164 0.0
O61 O 0.71441 0.92726 0.3277 0.0
O62 O 0.59398 0.84508 0.35449 0.0
O63 O 0.7692 0.02642 0.35745 0.0
O64 O 0.67015 0.95951 0.37866 0.0
O65 O 0.71079 0.86357 0.36287 0.0
Sc66 Sc 0.73062 0.64661 0.53254 0.0
Sc67 Sc 0.82281 0.7088 0.51244 0.0
Sc68 Sc 0.73599 0.73476 0.51446 0.0
O69 O 0.76294 0.69641 0.51977 0.0
C70 C 0.64845 0.63543 0.51611 0.0
C71 C 0.77162 0.60239 0.51404 0.0
C72 C 0.77393 0.72293 0.48892 0.0
C73 C 0.83306 0.69066 0.5411 0.0
C74 C 0.71217 0.72432 0.5428 0.0
C75 C 0.84118 0.80797 0.51685 0.0
O76 O 0.66653 0.61821 0.52286 0.0
O77 O 0.79739 0.63916 0.50851 0.0
O78 O 0.74618 0.7282 0.49543 0.0
O79 O 0.79093 0.67132 0.54337 0.0
O80 O 0.72217 0.74578 0.53275 0.0
O81 O 0.85443 0.77949 0.51584 0.0
O82 O 0.71216 0.6872 0.54413 0.0
O83 O 0.84913 0.70352 0.53032 0.0
O84 O 0.7998 0.79718 0.51602 0.0
O85 O 0.74696 0.59981 0.52316 0.0
O86 O 0.66939 0.67662 0.51268 0.0
O87 O 0.8048 0.71691 0.49362 0.0
Sc88 Sc 0.01244 0.69322 0.68112 0.0
Sc89 Sc 0.09334 0.80888 0.68049 0.0
Sc90 Sc 0.10721 0.73501 0.70034 0.0
O91 O 0.07123 0.74581 0.68721 0.0
C92 C 0.00664 0.68087 0.71033 0.0
C93 C 0.98709 0.77059 0.68172 0.0
C94 C 0.12479 0.83325 0.70818 0.0
C95 C 0.05364 0.74845 0.65621 0.0
C96 C 0.06644 0.64229 0.68515 0.0
C97 C 0.18369 0.80136 0.68223 0.0
O98 O 0.98985 0.66954 0.69958 0.0
O99 O 0.02765 0.80316 0.68104 0.0
O100 O 0.12923 0.79869 0.70938 0.0
O101 O 0.02776 0.7125 0.66214 0.0
O102 O 0.09031 0.66805 0.69386 0.0
O103 O 0.16114 0.8203 0.67907 0.0
O104 O 0.04044 0.65035 0.67872 0.0
O105 O 0.08075 0.78574 0.66151 0.0
O106 O 0.16788 0.76654 0.68918 0.0
O107 O 0.97698 0.72952 0.68241 0.0
O108 O 0.04894 0.70604 0.71226 0.0
O109 O 0.1076 0.84004 0.6986 0.0
Sc110 Sc 0.35975 0.08615 0.86591 0.0
Sc111 Sc 0.28748 0.10726 0.84712 0.0
Sc112 Sc 0.28012 0.99397 0.84881 0.0
O113 O 0.3076 0.06238 0.85388 0.0
C114 C 0.38051 0.02464 0.84722 0.0
C115 C 0.39514 0.16971 0.84718 0.0
C116 C 0.26453 0.03915 0.82452 0.0
C117 C 0.31 0.14003 0.87497 0.0
C118 C 0.30088 0.9884 0.87643 0.0
C119 C 0.2202 0.01427 0.85766 0.0
O120 O 0.38876 0.04843 0.857 0.0
O121 O 0.35583 0.15929 0.84337 0.0
O122 O 0.25966 0.00616 0.83112 0.0
O123 O 0.33647 0.12425 0.87639 0.0
O124 O 0.29648 0.97213 0.86572 0.0
O125 O 0.26095 0.04489 0.85587 0.0
O126 O 0.31929 0.03072 0.87825 0.0
O127 O 0.28962 0.1367 0.8649 0.0
O128 O 0.21447 0.97524 0.8565 0.0
O129 O 0.40254 0.14611 0.85498 0.0
O130 O 0.34384 0.00994 0.84125 0.0
O131 O 0.28037 0.07935 0.82867 0.0
Sc132 Sc 0.73247 0.74245 0.8296 0.0
Sc133 Sc 0.69632 0.82113 0.83039 0.0
Sc134 Sc 0.64385 0.72774 0.81059 0.0
O135 O 0.69072 0.76373 0.82356 0.0
C136 C 0.73021 0.72103 0.80177 0.0
C137 C 0.798 0.85024 0.82886 0.0
C138 C 0.68124 0.82744 0.80132 0.0
C139 C 0.71203 0.77498 0.85441 0.0
C140 C 0.63815 0.649 0.82637 0.0
C141 C 0.59201 0.76458 0.82759 0.0
O142 O 0.75313 0.73967 0.81136 0.0
O143 O 0.76687 0.85936 0.82703 0.0
O144 O 0.66895 0.78628 0.79906 0.0
O145 O 0.71489 0.74458 0.84838 0.0
O146 O 0.61653 0.66644 0.82144 0.0
O147 O 0.62593 0.78768 0.83445 0.0
O148 O 0.6804 0.67171 0.82867 0.0
O149 O 0.70856 0.80667 0.84918 0.0
O150 O 0.59392 0.74372 0.81808 0.0
O151 O 0.79029 0.81027 0.83098 0.0
O152 O 0.68846 0.70933 0.80079 0.0
O153 O 0.68738 0.84336 0.81223 0.0
Sc154 Sc 0.98209 0.68507 0.9948 0.0
Sc155 Sc 0.89891 0.71685 0.99603 0.0
Sc156 Sc 0.88943 0.63445 0.97459 0.0
O157 O 0.92321 0.6786 0.98854 0.0
C158 C 0.99203 0.68372 0.9656 0.0
C159 C 0.00423 0.7873 0.99586 0.0
C160 C 0.87205 0.71602 0.96786 0.0
C161 C 0.93828 0.69222 0.0199 0.0
C162 C 0.92849 0.57997 0.98915 0.0
C163 C 0.80989 0.61933 0.99273 0.0
O164 O 0.00814 0.69117 0.97644 0.0
O165 O 0.96336 0.77846 0.99561 0.0
O166 O 0.87241 0.67976 0.9656 0.0
O167 O 0.96328 0.68157 0.01378 0.0
O168 O 0.90268 0.58197 0.98106 0.0
O169 O 0.83238 0.65881 0.99736 0.0
O170 O 0.95678 0.61408 0.99524 0.0
O171 O 0.91295 0.70505 0.01479 0.0
O172 O 0.8259 0.60403 0.98464 0.0
O173 O 0.01525 0.75698 0.99548 0.0
O174 O 0.94975 0.66399 0.96335 0.0
O175 O 0.88213 0.73491 0.97838 0.0
Sc176 Sc 0.25967 0.98949 0.16243 0.0
Sc177 Sc 0.18142 0.87467 0.16258 0.0
Sc178 Sc 0.26634 0.92025 0.14012 0.0
O179 O 0.23577 0.92799 0.15504 0.0
C180 C 0.26925 0.01445 0.1347 0.0
C181 C 0.15267 0.94619 0.16606 0.0
C182 C 0.16403 0.8573 0.13333 0.0
C183 C 0.23761 0.93254 0.18634 0.0
C184 C 0.35081 0.99058 0.15479 0.0
C185 C 0.23646 0.82856 0.15539 0.0
O186 O 0.2543 0.01668 0.1452 0.0
O187 O 0.142 0.90708 0.16219 0.0
O188 O 0.20357 0.88828 0.13034 0.0
O189 O 0.26655 0.96591 0.18007 0.0
O190 O 0.33201 0.95315 0.14896 0.0
O191 O 0.21682 0.83809 0.16377 0.0
O192 O 0.32888 0.00899 0.15879 0.0
O193 O 0.20276 0.89899 0.18151 0.0
O194 O 0.25326 0.85317 0.14585 0.0
O195 O 0.1935 0.97766 0.16738 0.0
O196 O 0.28043 0.98485 0.13209 0.0
O197 O 0.1526 0.84532 0.14451 0.0
Sc198 Sc 0.27685 0.26111 0.32845 0.0
Sc199 Sc 0.30568 0.17767 0.32914 0.0
Sc200 Sc 0.35451 0.2645 0.30746 0.0
O201 O 0.31251 0.23445 0.32167 0.0
C202 C 0.26775 0.27347 0.3007 0.0
C203 C 0.20668 0.15463 0.33008 0.0
C204 C 0.31134 0.16257 0.30008 0.0
C205 C 0.30165 0.23301 0.35277 0.0
C206 C 0.37092 0.34969 0.32177 0.0
C207 C 0.40818 0.22896 0.32421 0.0
O208 O 0.24834 0.25778 0.31091 0.0
O209 O 0.23428 0.14223 0.32668 0.0
O210 O 0.32144 0.20267 0.2972 0.0
O211 O 0.3039 0.26524 0.34639 0.0
O212 O 0.38929 0.32878 0.31699 0.0
O213 O 0.37677 0.21055 0.33208 0.0
O214 O 0.32956 0.32991 0.32496 0.0
O215 O 0.29744 0.19698 0.34787 0.0
O216 O 0.4038 0.24619 0.31423 0.0
O217 O 0.21884 0.19568 0.33252 0.0
O218 O 0.3087 0.2838 0.29867 0.0
O219 O 0.31092 0.15042 0.31124 0.0
Sc220 Sc -0.00211 0.30245 0.49196 0.0
Sc221 Sc 0.09796 0.28671 0.49182 0.0
Sc222 Sc 0.09155 0.36908 0.47338 0.0
O223 O 0.06197 0.31763 0.48572 0.0
C224 C 0.99202 0.31813 0.46363 0.0
C225 C 0.00039 0.22813 0.48502 0.0
C226 C 0.13389 0.3083 0.46424 0.0
C227 C 0.03801 0.27892 0.51572 0.0
C228 C 0.04088 0.40493 0.49125 0.0
C229 C 0.17173 0.39228 0.49266 0.0
O230 O 0.97735 0.31622 0.47447 0.0
O231 O 0.03585 0.26547 0.48298 0.0
O232 O 0.12315 0.33868 0.46281 0.0
O233 O 0.00964 0.28622 0.51012 0.0
O234 O 0.06191 0.40764 0.48132 0.0
O235 O 0.1558 0.35129 0.49612 0.0
O236 O 0.02502 0.3703 0.49804 0.0
O237 O 0.07156 0.27956 0.51041 0.0
O238 O 0.15213 0.40474 0.48479 0.0
O239 O 0.96642 0.23211 0.48688 0.0
O240 O 0.03379 0.33354 0.4614 0.0
O241 O 0.12681 0.2866 0.47422 0.0
Sc242 Sc 0.74146 0.10911 0.64355 0.0
Sc243 Sc 0.81417 0.08264 0.65943 0.0
Sc244 Sc 0.69845 0.00725 0.6588 0.0
O245 O 0.75192 0.067 0.65419 0.0
C246 C 0.65452 0.06491 0.66126 0.0
C247 C 0.81117 0.17519 0.66291 0.0
C248 C 0.75923 0.03002 0.68301 0.0
C249 C 0.83596 0.12632 0.633 0.0
C250 C 0.68246 0.01555 0.63124 0.0
C251 C 0.7683 0.97871 0.651 0.0
O252 O 0.67444 0.08667 0.65153 0.0
O253 O 0.82994 0.1509 0.66369 0.0
O254 O 0.72471 0.00461 0.67654 0.0
O255 O 0.80471 0.13611 0.63377 0.0
O256 O 0.66402 0.00129 0.64164 0.0
O257 O 0.80158 0.01531 0.65515 0.0
O258 O 0.71368 0.05641 0.62981 0.0
O259 O 0.84116 0.10221 0.64102 0.0
O260 O 0.72799 0.97136 0.65068 0.0
O261 O 0.77439 0.16294 0.65697 0.0
O262 O 0.66793 0.04172 0.66712 0.0
O263 O 0.79397 0.06416 0.67849 0.0
H264 H 0.77124 0.62484 0.01399 0.0
H265 H 0.6908 0.59398 0.01801 0.0
H266 H 0.65828 0.52483 0.98314 0.0
H267 H 0.73918 0.55586 0.97898 0.0
H268 H 0.62073 0.58394 0.98759 0.0
H269 H 0.58756 0.46409 0.02604 0.0
H270 H 0.63671 0.51923 0.02782 0.0
H271 H 0.63514 0.48247 0.01579 0.0
C272 C 0.74698 0.60221 0.00728 0.0
C273 C 0.76155 0.59279 0.99616 0.0
C274 C 0.70101 0.58456 0.00962 0.0
C275 C 0.66868 0.55714 1.00088 0.0
C276 C 0.68285 0.54592 0.99 0.0
H277 H 0.383 0.43311 0.99273 0.0
H278 H 0.46424 0.47622 0.98922 0.0
C279 C 0.72899 0.5633 0.98769 0.0
C280 C 0.62055 0.54333 1.00276 0.0
H281 H 0.52999 0.481 0.02138 0.0
C282 C 0.60074 0.56129 0.99495 0.0
C283 C 0.59496 0.51445 0.01248 0.0
C284 C 0.61442 0.49358 0.02098 0.0
C285 C 0.55584 0.55111 0.99661 0.0
C286 C 0.52991 0.52153 0.0062 0.0
C287 C 0.55001 0.50407 0.01411 0.0
C288 C 0.48076 0.50451 0.00755 0.0
C289 C 0.5368 0.57252 0.98816 0.0
C290 C 0.4627 0.50718 0.01891 0.0
C291 C 0.41596 0.48235 0.02096 0.0
C292 C 0.38679 0.45403 0.0117 0.0
C293 C 0.40468 0.45467 1.00003 0.0
C294 C 0.45121 0.47948 0.99799 0.0
H295 H 0.56401 0.60508 0.98438 0.0
H296 H 0.51963 0.54944 0.98031 0.0
H297 H 0.51178 0.57878 0.99297 0.0
H298 H 0.48497 0.52625 0.02642 0.0
H299 H 0.40324 0.48219 0.03008 0.0
H300 H 0.23374 0.78021 0.17555 0.0
H301 H 0.19606 0.69778 0.17685 0.0
H302 H 0.18099 0.68838 0.13747 0.0
H303 H 0.21892 0.77113 0.1361 0.0
H304 H 0.09836 0.64289 0.15105 0.0
H305 H 0.22304 0.59612 0.16774 0.0
H306 H 0.22337 0.64163 0.17613 0.0
H307 H 0.23958 0.64941 0.16022 0.0
C308 C 0.22421 0.76069 0.16712 0.0
C309 C 0.2294 0.78214 0.15572 0.0
C310 C 0.20255 0.71353 0.16788 0.0
C311 C 0.18562 0.68695 0.15726 0.0
C312 C 0.19394 0.70834 0.14577 0.0
H313 H 0.03966 0.39288 0.1598 0.0
H314 H 0.0875 0.47138 0.15352 0.0
C315 C 0.21611 0.75566 0.14498 0.0
C316 C 0.15409 0.63752 0.15841 0.0
H317 H 0.14494 0.54036 0.17 0.0
C318 C 0.10862 0.62028 0.15504 0.0
C319 C 0.16752 0.60819 0.16364 0.0
C320 C 0.21612 0.62459 0.16705 0.0
C321 C 0.07596 0.57472 0.1571 0.0
C322 C 0.08911 0.54581 0.16276 0.0
C323 C 0.13483 0.56272 0.16577 0.0
C324 C 0.05616 0.4978 0.16564 0.0
C325 C 0.02769 0.55787 0.15324 0.0
C326 C 0.02179 0.48639 0.17436 0.0
C327 C 0.99412 0.44124 0.17802 0.0
C328 C 0.00065 0.40686 0.17307 0.0
C329 C 0.03379 0.41841 0.16391 0.0
C330 C 0.06131 0.46334 0.16029 0.0
H331 H 0.02515 0.58103 0.14652 0.0
H332 H 0.01262 0.52358 0.1491 0.0
H333 H 0.00738 0.55559 0.16144 0.0
H334 H 0.0176 0.51259 0.17871 0.0
H335 H 0.9692 0.43366 0.18514 0.0
H336 H 0.44505 0.22203 0.3456 0.0
H337 H 0.48387 0.17927 0.34852 0.0
H338 H 0.49302 0.16918 0.30926 0.0
H339 H 0.45315 0.21141 0.30627 0.0
H340 H 0.44773 0.0867 0.32035 0.0
H341 H 0.60766 0.19344 0.3454 0.0
H342 H 0.56073 0.19395 0.35259 0.0
H343 H 0.57789 0.21704 0.33739 0.0
C344 C 0.45709 0.21244 0.33758 0.0
C345 C 0.44586 0.21986 0.32571 0.0
C346 C 0.47937 0.18798 0.33927 0.0
C347 C 0.4913 0.17091 0.32911 0.0
C348 C 0.48409 0.18207 0.31722 0.0
H349 H 0.58107 0.9755 0.32504 0.0
H350 H 0.54795 0.02261 0.32018 0.0
C351 C 0.46179 0.2067 0.31552 0.0
C352 C 0.50438 0.13593 0.331 0.0
H353 H 0.57659 0.1129 0.34695 0.0
C354 C 0.47632 0.09261 0.32602 0.0
C355 C 0.5413 0.14349 0.33852 0.0
C356 C 0.57385 0.18964 0.34368 0.0
C357 C 0.48354 0.05641 0.32861 0.0
C358 C 0.51986 0.06383 0.33634 0.0
C359 C 0.54828 0.1072 0.34119 0.0
C360 C 0.53079 0.02784 0.33899 0.0
C361 C 0.4517 0.01029 0.32333 0.0
C362 C 0.53051 0.01375 0.35113 0.0
C363 C 0.54903 0.98635 0.35392 0.0
C364 C 0.56883 0.97347 0.34463 0.0
C365 C 0.56585 0.98479 0.33237 0.0
C366 C 0.54699 0.01176 0.32958 0.0
H367 H 0.41971 0.00769 0.32001 0.0
H368 H 0.46826 0.00389 0.31543 0.0
H369 H 0.44349 0.9834 0.33027 0.0
H370 H 0.51819 0.02597 0.35851 0.0
H371 H 0.55142 0.97868 0.36346 0.0
H372 H 0.23324 0.47338 0.48216 0.0
H373 H 0.31444 0.51768 0.48672 0.0
H374 H 0.29644 0.42937 0.51714 0.0
H375 H 0.21566 0.38501 0.5127 0.0
H376 H 0.36698 0.56131 0.50931 0.0
H377 H 0.38454 0.41652 0.49296 0.0
H378 H 0.33534 0.42141 0.48966 0.0
H379 H 0.34228 0.40312 0.50456 0.0
C380 C 0.24633 0.4641 0.49002 0.0
C381 C 0.21801 0.42526 0.49696 0.0
C382 C 0.29277 0.4893 0.49256 0.0
C383 C 0.31145 0.47603 0.50207 0.0
C384 C 0.28276 0.43954 0.5096 0.0
H385 H 0.58395 0.5547 0.52615 0.0
H386 H 0.50209 0.5159 0.5226 0.0
C387 C 0.23653 0.41436 0.50707 0.0
C388 C 0.36113 0.4982 0.50367 0.0
H389 H 0.44962 0.47845 0.50165 0.0
C390 C 0.38516 0.54336 0.50759 0.0
C391 C 0.3846 0.47451 0.50145 0.0
C392 C 0.36056 0.42631 0.49683 0.0
C393 C 0.43211 0.5653 0.50959 0.0
C394 C 0.45565 0.54165 0.50732 0.0
C395 C 0.43152 0.49647 0.50339 0.0
C396 C 0.50539 0.56339 0.50889 0.0
C397 C 0.45588 0.61323 0.51439 0.0
C398 C 0.53446 0.60185 0.50201 0.0
C399 C 0.5811 0.62405 0.50401 0.0
C400 C 0.59979 0.608 0.51286 0.0
C401 C 0.57076 0.56799 0.51927 0.0
C402 C 0.52395 0.54589 0.51729 0.0
H403 H 0.43184 0.62188 0.5188 0.0
H404 H 0.48244 0.61859 0.52117 0.0
H405 H 0.47231 0.63699 0.50663 0.0
H406 H 0.52099 0.61516 0.49522 0.0
H407 H 0.60243 0.65442 0.49878 0.0
H408 H 0.79959 0.24805 0.65835 0.0
H409 H 0.85059 0.32688 0.66444 0.0
H410 H 0.93113 0.28572 0.68536 0.0
H411 H 0.88071 0.20719 0.67939 0.0
H412 H 0.88248 0.37021 0.68852 0.0
H413 H 0.01887 0.37685 0.65912 0.0
H414 H 0.96037 0.33309 0.65758 0.0
H415 H 0.99387 0.33128 0.67004 0.0
C416 C 0.8276 0.25562 0.66444 0.0
C417 C 0.83637 0.22134 0.66823 0.0
C418 C 0.85678 0.30067 0.66787 0.0
C419 C 0.89507 0.31205 0.67512 0.0
C420 C 0.90224 0.27764 0.67956 0.0
H421 H 0.06872 0.58746 0.70308 0.0
H422 H 0.03405 0.50492 0.70162 0.0
C423 C 0.87322 0.23275 0.67615 0.0
C424 C 0.92883 0.36005 0.6775 0.0
H425 H 0.03638 0.4427 0.67036 0.0
C426 C 0.91627 0.38605 0.68466 0.0
C427 C 0.97275 0.38047 0.67235 0.0
C428 C 0.9874 0.35423 0.66426 0.0
C429 C 0.94637 0.43228 0.68671 0.0
C430 C 0.99026 0.45276 0.68153 0.0
C431 C 0.00299 0.42662 0.67447 0.0
C432 C 0.02094 0.50232 0.6821 0.0
C433 C 0.93041 0.45933 0.69397 0.0
C434 C 0.02781 0.52812 0.67147 0.0
C435 C 0.04764 0.57504 0.67227 0.0
C436 C 0.06119 0.59692 0.68371 0.0
C437 C 0.05887 0.57153 0.69414 0.0
C438 C 0.03861 0.52437 0.69334 0.0
H439 H 0.89345 0.43983 0.69579 0.0
H440 H 0.94834 0.46913 0.70292 0.0
H441 H 0.93832 0.49087 0.689 0.0
H442 H 0.01466 0.51169 0.6627 0.0
H443 H 0.04915 0.59384 0.66408 0.0
H444 H 0.53848 0.77188 0.81011 0.0
H445 H 0.49648 0.81223 0.81282 0.0
H446 H 0.51882 0.81745 0.8519 0.0
H447 H 0.56075 0.77733 0.84929 0.0
H448 H 0.42082 0.80342 0.83067 0.0
H449 H 0.59285 0.95249 0.83732 0.0
H450 H 0.58351 0.90105 0.82997 0.0
H451 H 0.57911 0.90308 0.84635 0.0
C452 C 0.53256 0.77966 0.81933 0.0
C453 C 0.5532 0.77177 0.82948 0.0
C454 C 0.50895 0.80312 0.82085 0.0
C455 C 0.50554 0.8186 0.83253 0.0
C456 C 0.52165 0.80624 0.8428 0.0
H457 H 0.43941 0.01354 0.86196 0.0
H458 H 0.47185 0.96514 0.85772 0.0
C459 C 0.54529 0.78302 0.8413 0.0
C460 C 0.49074 0.8524 0.83386 0.0
H461 H 0.531 0.96423 0.84025 0.0
C462 C 0.44479 0.83863 0.83269 0.0
C463 C 0.52229 0.89826 0.83651 0.0
C464 C 0.57229 0.91494 0.83754 0.0
C465 C 0.42932 0.86944 0.83442 0.0
C466 C 0.46091 0.91539 0.8371 0.0
C467 C 0.50692 0.9291 0.83817 0.0
C468 C 0.44659 0.94942 0.83907 0.0
C469 C 0.37915 0.85223 0.83372 0.0
C470 C 0.42397 0.95871 0.82978 0.0
C471 C 0.4055 0.98635 0.83216 0.0
C472 C 0.40969 0.00563 0.84386 0.0
C473 C 0.4357 -0.00062 0.85284 0.0
C474 C 0.45395 0.97142 0.85046 0.0
H475 H 0.35901 0.81483 0.83473 0.0
H476 H 0.36856 0.86793 0.84095 0.0
H477 H 0.37097 0.86113 0.82465 0.0
H478 H 0.41911 0.94321 0.82081 0.0
H479 H 0.38606 0.99087 0.825 0.0
H480 H 0.55222 0.59393 0.83516 0.0
H481 H 0.51549 0.51228 0.83927 0.0
H482 H 0.63348 0.51116 0.82555 0.0
H483 H 0.67111 0.59273 0.82234 0.0
H484 H 0.48854 0.443 0.82608 0.0
H485 H 0.61975 0.44443 0.85592 0.0
H486 H 0.6215 0.4959 0.85123 0.0
H487 H 0.64376 0.46915 0.84137 0.0
C488 C 0.57032 0.57614 0.83318 0.0
C489 C 0.61472 0.59967 0.82864 0.0
C490 C 0.54938 0.5295 0.83551 0.0
C491 C 0.57211 0.50541 0.83308 0.0
C492 C 0.61583 0.52891 0.82806 0.0
H493 H 0.41555 0.21091 0.82474 0.0
H494 H 0.46301 0.2922 0.82081 0.0
C495 C 0.6372 0.57557 0.82611 0.0
C496 C 0.5496 0.45558 0.8353 0.0
H497 H 0.56657 0.3725 0.8472 0.0
C498 C 0.50551 0.42773 0.83082 0.0
C499 C 0.57114 0.43527 0.84169 0.0
C500 C 0.6164 0.46287 0.84794 0.0
C501 C 0.48268 0.38051 0.8324 0.0
C502 C 0.50545 0.35994 0.83801 0.0
C503 C 0.54931 0.38785 0.84264 0.0
C504 C 0.48346 0.3099 0.8398 0.0
C505 C 0.4338 0.35365 0.82841 0.0
C506 C 0.48279 0.29204 0.85149 0.0
C507 C 0.45762 0.24533 0.85359 0.0
C508 C 0.43197 0.21567 0.84409 0.0
C509 C 0.43507 0.23311 0.83222 0.0
C510 C 0.46146 0.27968 0.83004 0.0
H511 H 0.4178 0.37509 0.82816 0.0
H512 H 0.432 0.34046 0.81899 0.0
H513 H 0.41374 0.3247 0.83467 0.0
H514 H 0.49973 0.31435 0.85918 0.0
H515 H 0.45527 0.23287 0.86287 0.0
H516 H 0.94433 0.5461 0.00987 0.0
H517 H 0.97929 0.49884 0.01069 0.0
H518 H 0.96139 0.4774 0.97158 0.0
H519 H 0.92611 0.52478 0.9707 0.0
H520 H 0.95938 0.40923 1.00195 0.0
H521 H 0.1019 0.55551 0.97804 0.0
H522 H 0.05607 0.55935 0.98505 0.0
H523 H 0.04721 0.52976 0.97078 0.0
C524 C 0.94608 0.52972 1.00153 0.0
C525 C 0.93284 0.53928 0.99021 0.0
C526 C 0.96622 0.5029 1.002 0.0
C527 C 0.97376 0.48557 0.99115 0.0
C528 C 0.95625 0.491 0.98002 0.0
H529 H 0.12164 0.33827 0.99296 0.0
H530 H 0.07097 0.36545 0.98654 0.0
C531 C 0.93563 0.51759 0.97955 0.0
C532 C 0.00529 0.46776 0.99144 0.0
H533 H 0.11462 0.49757 0.98489 0.0
C534 C 0.99306 0.42802 0.99805 0.0
C535 C 0.04952 0.49309 0.98655 0.0
C536 C 0.06486 0.53698 0.97976 0.0
C537 C 0.02416 0.41319 1.00005 0.0
C538 C 0.06848 0.43873 0.99525 0.0
C539 C 0.08053 0.47808 0.98849 0.0
C540 C 0.10321 0.42593 0.99769 0.0
C541 C 0.01001 0.37129 0.00769 0.0
C542 C 0.13961 0.4523 0.00559 0.0
C543 C 0.16891 0.43697 0.00929 0.0
C544 C 0.1621 0.395 0.00512 0.0
C545 C 0.12753 0.37046 0.99649 0.0
C546 C 0.09839 0.38581 0.99282 0.0
H547 H 0.97747 0.36016 0.01252 0.0
H548 H 0.00582 0.34329 1.00163 0.0
H549 H 0.03639 0.37738 0.01461 0.0
H550 H 0.14396 0.4836 0.00938 0.0
H551 H 0.19512 0.45666 0.01594 0.0
H552 H 0.39648 0.05206 0.17269 0.0
H553 H 0.47796 0.10094 0.17483 0.0
H554 H 0.49941 0.03622 0.14362 0.0
H555 H 0.41708 0.98676 0.14134 0.0
H556 H 0.54608 0.07566 0.17791 0.0
H557 H 0.56831 0.17541 0.13542 0.0
H558 H 0.51377 0.14103 0.14256 0.0
H559 H 0.53902 0.11474 0.13388 0.0
C560 C 0.41842 0.04792 0.16629 0.0
C561 C 0.40032 0.01573 0.15677 0.0
C562 C 0.46499 0.07594 0.16754 0.0
C563 C 0.49454 0.07272 0.15925 0.0
C564 C 0.47694 0.03964 0.14998 0.0
H565 H 0.78258 0.20709 0.15421 0.0
H566 H 0.70227 0.1725 0.14941 0.0
C567 C 0.43004 0.01115 0.14876 0.0
C568 C 0.54374 0.10423 0.16051 0.0
H569 H 0.63411 0.19449 0.14698 0.0
C570 C 0.56539 0.1017 0.17117 0.0
C571 C 0.56857 0.13817 0.1517 0.0
C572 C 0.54638 0.14297 0.14026 0.0
C573 C 0.61155 0.13176 0.17319 0.0
C574 C 0.63644 0.16614 0.16445 0.0
C575 C 0.61477 0.16859 0.15375 0.0
C576 C 0.68583 0.19692 0.16583 0.0
C577 C 0.63353 0.12546 0.18449 0.0
C578 C 0.70376 0.22507 0.17618 0.0
C579 C 0.74988 0.24499 0.17897 0.0
C580 C 0.77842 0.23692 0.17141 0.0
C581 C 0.76124 0.21346 0.16028 0.0
C582 C 0.71531 0.19358 0.15753 0.0
H583 H 0.61216 0.09173 0.18877 0.0
H584 H 0.66693 0.12921 0.18222 0.0
H585 H 0.63894 0.15165 0.19138 0.0
H586 H 0.68158 0.22888 0.18256 0.0
H587 H 0.76211 0.26288 0.18759 0.0
H588 H 0.45461 0.40312 0.33207 0.0
H589 H 0.49168 0.48513 0.3359 0.0
H590 H 0.38274 0.48958 0.31702 0.0
H591 H 0.34465 0.40779 0.31394 0.0
H592 H 0.52492 0.55746 0.32269 0.0
H593 H 0.38067 0.54866 0.34793 0.0
H594 H 0.38237 0.4986 0.34359 0.0
H595 H 0.36369 0.52596 0.33278 0.0
C596 C 0.43888 0.42188 0.32875 0.0
C597 C 0.39665 0.39937 0.32287 0.0
C598 C 0.4599 0.4686 0.33094 0.0
C599 C 0.43927 0.49343 0.32711 0.0
C600 C 0.39844 0.47108 0.32055 0.0
H601 H 0.59167 0.78874 0.323 0.0
H602 H 0.54807 0.70807 0.31791 0.0
C603 C 0.37694 0.42443 0.31866 0.0
C604 C 0.46025 0.54262 0.3299 0.0
H605 H 0.43708 0.62229 0.34116 0.0
C606 C 0.50579 0.57157 0.32682 0.0
C607 C 0.43568 0.56112 0.33554 0.0
C608 C 0.38809 0.53184 0.34028 0.0
C609 C 0.5272 0.61838 0.32902 0.0
C610 C 0.50175 0.63725 0.33391 0.0
C611 C 0.45641 0.60817 0.33717 0.0
C612 C 0.52214 0.68665 0.33632 0.0
C613 C 0.57725 0.64667 0.32646 0.0
C614 C 0.51867 0.70195 0.34804 0.0
C615 C 0.54193 0.74819 0.35081 0.0
C616 C 0.56968 0.77993 0.34196 0.0
C617 C 0.57067 0.76492 0.33001 0.0
C618 C 0.5464 0.71876 0.32716 0.0
H619 H 0.59388 0.6258 0.32657 0.0
H620 H 0.58232 0.66195 0.31718 0.0
H621 H 0.59441 0.67427 0.3333 0.0
H622 H 0.49983 0.67801 0.35526 0.0
H623 H 0.54093 0.75872 0.36013 0.0
H624 H 0.01832 0.42462 0.5134 0.0
H625 H 0.96936 0.45656 0.51689 0.0
H626 H 0.97504 0.48778 0.47833 0.0
H627 H 0.02365 0.45504 0.47472 0.0
H628 H 0.97288 0.53844 0.51247 0.0
H629 H 0.83973 0.39982 0.4843 0.0
H630 H 0.89017 0.39979 0.48924 0.0
H631 H 0.89244 0.43442 0.47652 0.0
C632 C 0.01022 0.43945 0.50571 0.0
C633 C 0.02451 0.43692 0.49376 0.0
C634 C 0.98203 0.45748 0.50771 0.0
C635 C 0.96744 0.47322 0.49781 0.0
C636 C 0.98502 0.47471 0.48605 0.0
H637 H 0.78797 0.57916 0.49158 0.0
H638 H 0.83037 0.54018 0.48784 0.0
C639 C 0.01343 0.4567 0.48403 0.0
C640 C 0.93166 0.48515 0.49979 0.0
H641 H 0.82265 0.45411 0.49224 0.0
C642 C 0.94001 0.51998 0.50807 0.0
C643 C 0.8886 0.46062 0.49413 0.0
C644 C 0.87685 0.42129 0.48563 0.0
C645 C 0.90688 0.5317 0.51063 0.0
C646 C 0.86387 0.50729 0.50494 0.0
C647 C 0.85546 0.4724 0.49668 0.0
C648 C 0.82877 0.52023 0.50677 0.0
C649 C 0.91864 0.571 0.51915 0.0
C650 C 0.81078 0.51881 0.51847 0.0
C651 C 0.78601 0.54074 0.52061 0.0
C652 C 0.77922 0.56447 0.51107 0.0
C653 C 0.79273 0.56115 0.4991 0.0
C654 C 0.81725 0.53914 0.49696 0.0
H655 H 0.95568 0.59178 0.52077 0.0
H656 H 0.90643 0.5932 0.51537 0.0
H657 H 0.90193 0.55788 0.52815 0.0
H658 H 0.8186 0.50356 0.52611 0.0
H659 H 0.77639 0.54305 0.52995 0.0
H660 H 0.61246 0.04106 0.68344 0.0
H661 H 0.5308 0.00218 0.6868 0.0
H662 H 0.51037 0.02732 0.64921 0.0
H663 H 0.59225 0.06637 0.64571 0.0
H664 H 0.44924 0.03031 0.67304 0.0
H665 H 0.4623 0.87656 0.66369 0.0
H666 H 0.50446 0.92058 0.67328 0.0
H667 H 0.50184 0.93112 0.65726 0.0
C668 C 0.59076 0.03983 0.676 0.0
C669 C 0.6087 0.05628 0.66427 0.0
C670 C 0.54415 0.01752 0.67794 0.0
C671 C 0.51486 0.01146 0.6682 0.0
C672 C 0.53271 0.03176 0.65681 0.0
H673 H 0.22235 0.85789 0.66277 0.0
H674 H 0.30292 0.90756 0.6589 0.0
C675 C 0.57949 0.0543 0.65486 0.0
C676 C 0.46616 0.97862 0.66946 0.0
H677 H 0.39068 0.86506 0.66917 0.0
C678 C 0.43622 0.9942 0.67213 0.0
C679 C 0.44974 0.93163 0.66837 0.0
C680 C 0.48101 0.91362 0.66545 0.0
C681 C 0.38992 0.96368 0.67389 0.0
C682 C 0.37334 0.91656 0.67269 0.0
C683 C 0.40348 0.90113 0.67003 0.0
C684 C 0.32477 0.88282 0.67422 0.0
C685 C 0.35938 0.98207 0.67733 0.0
C686 C 0.31044 0.8504 0.68364 0.0
C687 C 0.26425 0.82137 0.68579 0.0
C688 C 0.23182 0.82452 0.67855 0.0
C689 C 0.24649 0.85503 0.66862 0.0
C690 C 0.29251 0.88372 0.66644 0.0
H691 H 0.37886 0.01711 0.681 0.0
H692 H 0.34088 0.98287 0.66903 0.0
H693 H 0.33411 0.96027 0.6843 0.0
H694 H 0.33495 0.84886 0.68964 0.0
H695 H 0.25403 0.79836 0.69352 0.0
H696 H 0.1773 0.26047 0.97405 0.0
H697 H 0.1836 0.24284 0.95253 0.0
H698 H 0.31162 0.25201 0.96052 0.0
H699 H 0.30616 0.27024 0.9818 0.0
H700 H 0.31399 0.29772 0.93937 0.0
H701 H 0.16558 0.1229 0.93915 0.0
H702 H 0.15466 0.16714 0.94372 0.0
H703 H 0.18961 0.15393 0.95319 0.0
C704 C 0.20676 0.25867 0.97122 0.0
C705 C 0.24112 0.26668 0.97972 0.0
C706 C 0.21019 0.24836 0.95893 0.0
C707 C 0.24785 0.24557 0.95493 0.0
C708 C 0.28223 0.25393 0.96337 0.0
H709 H 0.35832 0.16851 0.89635 0.0
H710 H 0.34094 0.198 0.91468 0.0
C711 C 0.27895 0.2643 0.97558 0.0
C712 C 0.25234 0.23425 0.94201 0.0
H713 H 0.20815 0.14832 0.92095 0.0
C714 C 0.29058 0.26521 0.93531 0.0
C715 C 0.22169 0.1919 0.93667 0.0
C716 C 0.18071 0.1568 0.94354 0.0
C717 C 0.29971 0.25449 0.9236 0.0
C718 C 0.27011 0.21148 0.91848 0.0
C719 C 0.2308 0.18127 0.92491 0.0
C720 C 0.28144 0.19582 0.907 0.0
C721 C 0.34138 0.28904 0.91685 0.0
C722 C 0.25353 0.18443 0.89659 0.0
C723 C 0.26348 0.16763 0.88602 0.0
C724 C 0.30115 0.16123 0.88574 0.0
C725 C 0.3291 0.17301 0.8962 0.0
C726 C 0.31935 0.19012 0.90669 0.0
H727 H 0.35319 0.32388 0.92028 0.0
H728 H 0.36903 0.2814 0.91831 0.0
H729 H 0.33488 0.28801 0.90683 0.0
H730 H 0.22391 0.18828 0.89668 0.0
H731 H 0.241 0.15855 0.87818 0.0
H732 H 0.88409 0.19255 0.13705 0.0
H733 H 0.90457 0.19279 0.11534 0.0
H734 H 0.04457 0.25014 0.12572 0.0
H735 H 0.02487 0.25005 0.14713 0.0
H736 H 0.96893 0.27149 0.10126 0.0
H737 H 0.01947 0.14092 0.10383 0.0
H738 H 0.98377 0.14594 0.11522 0.0
H739 H 0.04419 0.18236 0.11583 0.0
C740 C 0.91912 0.20476 0.13469 0.0
C741 C 0.95278 0.22132 0.14385 0.0
C742 C 0.93076 0.20496 0.1223 0.0
C743 C 0.97602 0.22091 0.11896 0.0
C744 C 0.00937 0.23696 0.1281 0.0
H745 H 0.15224 0.35235 0.05985 0.0
H746 H 0.10092 0.32841 0.07735 0.0
C747 C -0.00204 0.23716 0.14036 0.0
C748 C 0.98986 0.22341 0.10594 0.0
H749 H 0.05182 0.19475 0.08727 0.0
C750 C 0.98618 0.25399 0.09808 0.0
C751 C 0.01188 0.20018 0.10175 0.0
C752 C 0.0147 0.16515 0.10956 0.0
C753 C 0.00671 0.26424 0.08643 0.0
C754 C 0.03207 0.24386 0.08267 0.0
C755 C 0.03293 0.21088 0.0902 0.0
C756 C 0.06082 0.25865 0.07148 0.0
C757 C 0.00186 0.29756 0.07839 0.0
C758 C 0.056 0.22724 0.06243 0.0
C759 C 0.08562 0.2407 0.05241 0.0
C760 C 0.12098 0.28589 0.0513 0.0
C761 C 0.12534 0.3173 0.06034 0.0
C762 C 0.09574 0.3038 0.07033 0.0
H763 H 0.97034 0.29809 0.08054 0.0
H764 H 0.03084 0.33206 0.08007 0.0
H765 H 0.00156 0.28939 0.06851 0.0
H766 H 0.02956 0.1921 0.06319 0.0
H767 H 0.08123 0.21555 0.04567 0.0
H768 H 0.7996 0.09405 0.20888 0.0
H769 H 0.77286 0.04782 0.22746 0.0
H770 H 0.80793 0.16715 0.2489 0.0
H771 H 0.83424 0.21365 0.23039 0.0
H772 H 0.82216 0.0534 0.24806 0.0
H773 H 0.68068 0.08037 0.26085 0.0
H774 H 0.70651 0.09446 0.24584 0.0
H775 H 0.73254 0.13264 0.25855 0.0
C776 C 0.80094 0.11052 0.2175 0.0
C777 C 0.81892 0.15778 0.21805 0.0
C778 C 0.78578 0.08393 0.22814 0.0
C779 C 0.78784 0.1038 0.23959 0.0
C780 C 0.80505 0.15079 0.24016 0.0
H781 H 0.77006 0.05391 0.31565 0.0
H782 H 0.78191 0.07955 0.2945 0.0
C783 C 0.82025 0.17744 0.22953 0.0
C784 C 0.77427 0.07601 0.25103 0.0
H785 H 0.70877 0.05205 0.27672 0.0
C786 C 0.79681 0.05244 0.25423 0.0
C787 C 0.74093 0.07438 0.25906 0.0
C788 C 0.71343 0.09642 0.25585 0.0
C789 C 0.78874 0.02957 0.26555 0.0
C790 C 0.75706 0.02996 0.27382 0.0
C791 C 0.73316 0.05185 0.27038 0.0
C792 C 0.75178 0.01256 0.2866 0.0
C793 C 0.81569 0.00709 0.26888 0.0
C794 C 0.73144 0.96604 0.28927 0.0
C795 C 0.72437 0.95088 0.30154 0.0
C796 C 0.73738 0.98208 0.31129 0.0
C797 C 0.75901 0.02863 0.30846 0.0
C798 C 0.76592 0.04355 0.29632 0.0
H799 H 0.84219 0.01363 0.26196 0.0
H800 H 0.83207 0.01929 0.27798 0.0
H801 H 0.79262 0.96997 0.26957 0.0
H802 H 0.71999 0.94147 0.28189 0.0
H803 H 0.70753 0.91487 0.30337 0.0
H804 H 0.76597 0.84709 0.37529 0.0
H805 H 0.78733 0.8162 0.39278 0.0
H806 H 0.66518 0.78852 0.41161 0.0
H807 H 0.6437 0.81934 0.39431 0.0
H808 H 0.79815 0.84865 0.41826 0.0
H809 H 0.66775 0.66755 0.41365 0.0
H810 H 0.68392 0.7072 0.40106 0.0
H811 H 0.64587 0.70563 0.41269 0.0
C812 C 0.74336 0.83388 0.38308 0.0
C813 C 0.703 0.83563 0.38335 0.0
C814 C 0.75573 0.8164 0.39309 0.0
C815 C 0.72762 0.79959 0.40345 0.0
C816 C 0.68709 0.80068 0.40365 0.0
H817 H 0.70075 0.71222 0.47619 0.0
H818 H 0.6959 0.72769 0.45466 0.0
C819 C 0.67497 0.81856 0.39375 0.0
C820 C 0.74116 0.78292 0.41438 0.0
H821 H 0.70413 0.69106 0.43323 0.0
C822 C 0.77825 0.81398 0.42144 0.0
C823 C 0.71521 0.73767 0.41848 0.0
C824 C 0.67619 0.7024 0.41103 0.0
C825 C 0.78813 0.8018 0.43291 0.0
C826 C 0.76071 0.75701 0.43732 0.0
C827 C 0.72519 0.72536 0.42989 0.0
C828 C 0.76412 0.74401 0.45019 0.0
C829 C 0.82595 0.83773 0.44056 0.0
C830 C 0.80381 0.74664 0.4549 0.0
C831 C 0.80683 0.73781 0.4674 0.0
C832 C 0.77019 0.72625 0.47536 0.0
C833 C 0.72993 0.72156 0.47041 0.0
C834 C 0.72696 0.73026 0.45803 0.0
H835 H 0.83868 0.87224 0.43676 0.0
H836 H 0.8145 0.83708 0.45014 0.0
H837 H 0.85454 0.83103 0.44084 0.0
H838 H 0.83267 0.75627 0.44898 0.0
H839 H 0.83827 0.74164 0.47089 0.0
H840 H 0.92663 0.73801 0.54141 0.0
H841 H 0.97647 0.75489 0.5593 0.0
H842 H 0.86 0.68016 0.58252 0.0
H843 H 0.81025 0.66358 0.56492 0.0
H844 H 0.92128 0.76495 0.59185 0.0
H845 H 0.0073 0.66953 0.57844 0.0
H846 H 0.00921 0.70978 0.56744 0.0
H847 H 0.95604 0.66056 0.57108 0.0
C848 C 0.91164 0.72485 0.55031 0.0
C849 C 0.86427 0.69938 0.55166 0.0
C850 C 0.94022 0.73442 0.56053 0.0
C851 C 0.922 0.71852 0.57226 0.0
C852 C 0.87488 0.69284 0.57358 0.0
H853 H 0.00847 0.67428 0.64135 0.0
H854 H 0.9843 0.67255 0.62017 0.0
C855 C 0.84643 0.68332 0.56344 0.0
C856 C 0.95125 0.72933 0.58335 0.0
H857 H 0.02801 0.70771 0.59744 0.0
C858 C 0.94504 0.75292 0.59302 0.0
C859 C 0.98197 0.71329 0.5849 0.0
C860 C 0.98899 0.68658 0.57498 0.0
C861 C 0.96764 0.75981 0.6043 0.0
C862 C -0.00197 0.74337 0.60591 0.0
C863 C 0.00511 0.72071 0.59615 0.0
C864 C 0.01891 0.74532 0.61808 0.0
C865 C 0.95703 0.78264 0.6146 0.0
C866 C 0.04813 0.78685 0.6238 0.0
C867 C 0.06216 0.78802 0.63598 0.0
C868 C 0.04715 0.74763 0.64266 0.0
C869 C 0.02044 0.7061 0.63657 0.0
C870 C 0.00659 0.705 0.62442 0.0
H871 H 0.92675 0.78567 0.61258 0.0
H872 H 0.95113 0.7636 0.62332 0.0
H873 H 0.9862 0.81723 0.61601 0.0
H874 H 0.05872 0.8184 0.61901 0.0
H875 H 0.08275 0.82061 0.64034 0.0
H876 H 0.28291 0.09878 0.80522 0.0
H877 H 0.25864 0.07967 0.78369 0.0
H878 H 0.18893 0.93773 0.79284 0.0
H879 H 0.21269 0.95608 0.81411 0.0
H880 H 0.27666 0.02307 0.76761 0.0
H881 H 0.09289 0.95383 0.77389 0.0
H882 H 0.13434 0.99054 0.78504 0.0
H883 H 0.11601 0.93107 0.7847 0.0
C884 C 0.26218 0.06354 0.80265 0.0
C885 C 0.24991 0.02904 0.81145 0.0
C886 C 0.24834 0.05269 0.79035 0.0
C887 C 0.22133 0.00728 0.7867 0.0
C888 C 0.20899 0.97301 0.79547 0.0
H889 H 0.18008 0.83951 0.72703 0.0
H890 H 0.20467 0.89065 0.74451 0.0
C891 C 0.22305 0.98368 0.80765 0.0
C892 C 0.20772 0.99456 0.77368 0.0
H893 H 0.11511 0.92804 0.75594 0.0
C894 C 0.24135 0.00321 0.76497 0.0
C895 C 0.16168 0.96916 0.77015 0.0
C896 C 0.12414 0.96096 0.77891 0.0
C897 C 0.23008 0.98415 0.75314 0.0
C898 C 0.18405 0.95537 0.74999 0.0
C899 C 0.15041 0.9497 0.75837 0.0
C900 C 0.17048 0.92649 0.73879 0.0
C901 C 0.26765 0.99368 0.74425 0.0
C902 C 0.14226 0.92898 0.72978 0.0
C903 C 0.12792 0.89947 0.71964 0.0
C904 C 0.1409 0.86643 0.71849 0.0
C905 C 0.1692 0.86432 0.72757 0.0
C906 C 0.18373 0.8939 0.73756 0.0
H907 H 0.29853 0.02652 0.74631 0.0
H908 H 0.27655 0.96665 0.74505 0.0
H909 H 0.25715 0.99429 0.73462 0.0
H910 H 0.13122 0.95359 0.73062 0.0
H911 H 0.10602 0.90192 0.71286 0.0
H912 H 0.73956 0.84672 0.87035 0.0
H913 H 0.7628 0.8501 0.89186 0.0
H914 H 0.72312 0.70874 0.89046 0.0
H915 H 0.6997 0.70494 0.86912 0.0
H916 H 0.7008 0.73693 0.91311 0.0
H917 H 0.88079 0.84661 0.89921 0.0
H918 H 0.8417 0.86546 0.89529 0.0
H919 H 0.83646 0.81569 0.88813 0.0
C920 C 0.7348 0.81611 0.87471 0.0
C921 C 0.71814 0.77565 0.86795 0.0
C922 C 0.74844 0.8182 0.88698 0.0
C923 C 0.74537 0.77984 0.89271 0.0
C924 C 0.72598 0.73881 0.88623 0.0
H925 H 0.87799 0.70452 0.9434 0.0
H926 H 0.84809 0.72843 0.92648 0.0
C927 C 0.71268 0.73675 0.87399 0.0
C928 C 0.76541 0.78249 0.90503 0.0
H929 H 0.86703 0.81907 0.91938 0.0
C930 C 0.73707 0.75567 0.9146 0.0
C931 C 0.81282 0.80665 0.9069 0.0
C932 C 0.84496 0.83509 0.89686 0.0
C933 C 0.75497 0.75093 0.92579 0.0
C934 C 0.80243 0.77368 0.92746 0.0
C935 C 0.83066 0.80201 0.9181 0.0
C936 C 0.82342 0.76307 0.93797 0.0
C937 C 0.72323 0.71947 0.93547 0.0
C938 C 0.82049 0.77557 0.9501 0.0
C939 C 0.83798 0.7621 0.95989 0.0
C940 C 0.85818 0.73553 0.95768 0.0
C941 C 0.86227 0.72455 0.94547 0.0
C942 C 0.8453 0.73831 0.93575 0.0
H943 H 0.68748 0.70125 0.93231 0.0
H944 H 0.73311 0.69417 0.93811 0.0
H945 H 0.72555 0.73922 0.94381 0.0
H946 H 0.80406 0.79505 0.95199 0.0
H947 H 0.83424 0.77104 0.96918 0.0
H948 H 0.9892 0.66806 0.03404 0.0
H949 H 0.01106 0.68738 0.0554 0.0
H950 H 0.92328 0.74388 0.0583 0.0
H951 H 0.90202 0.72576 0.03668 0.0
H952 H 0.00483 0.80244 0.06618 0.0
H953 H 0.9569 0.6392 0.08828 0.0
H954 H 0.99016 0.64656 0.07486 0.0
H955 H 0.93569 0.64256 0.07335 0.0
C956 C 0.97358 0.68365 0.03924 0.0
C957 C 0.94391 0.6955 0.03353 0.0
C958 C 0.98594 0.6944 0.05156 0.0
C959 C 0.96852 0.71667 0.05859 0.0
C960 C 0.93711 0.72652 0.05311 0.0
H961 H 0.07294 0.7929 0.1348 0.0
H962 H 0.01931 0.75798 0.11768 0.0
C963 C 0.9248 0.71593 0.04073 0.0
C964 C 0.98741 0.73437 0.07106 0.0
H965 H 0.0185 0.70592 0.09802 0.0
C966 C 0.00694 0.78106 0.07322 0.0
C967 C 0.98977 0.7067 0.08041 0.0
C968 C 0.96652 0.65591 0.07915 0.0
C969 C 0.03103 0.8011 0.08407 0.0
C970 C 0.03681 0.77399 0.09293 0.0
C971 C 0.01481 0.72692 0.09116 0.0
C972 C 0.06862 0.79447 0.10348 0.0
C973 C 0.05075 0.85139 0.08582 0.0
C974 C 0.11428 0.82574 0.10121 0.0
C975 C 0.14477 0.8457 0.11089 0.0
C976 C 0.13067 0.83464 0.12319 0.0
C977 C 0.08502 0.80243 0.12548 0.0
C978 C 0.05431 0.78243 0.1157 0.0
H979 H 0.0309 0.86385 0.08073 0.0
H980 H 0.05182 0.86023 0.09568 0.0
H981 H 0.08577 0.86944 0.08216 0.0
H982 H 0.12654 0.83468 0.09188 0.0
H983 H 0.17962 0.86988 0.10867 0.0
H984 H 0.31474 0.96384 0.19977 0.0
H985 H 0.32627 0.98903 0.22115 0.0
H986 H 0.18374 0.94286 0.22445 0.0
H987 H 0.17191 0.91533 0.20325 0.0
H988 H 0.31786 0.05426 0.22879 0.0
H989 H 0.20333 0.90832 0.25759 0.0
H990 H 0.2154 0.90168 0.24184 0.0
H991 H 0.17268 0.91622 0.2454 0.0
C992 C 0.28562 0.95745 0.20523 0.0
C993 C 0.24237 0.93718 0.19988 0.0
C994 C 0.29224 0.97215 0.21745 0.0
C995 C 0.25594 0.96789 0.22457 0.0
C996 C 0.21225 0.94561 0.21938 0.0
H997 H 0.28352 0.16765 0.27701 0.0
H998 H 0.26996 0.1176 0.25963 0.0
C999 C 0.20545 0.92987 0.20721 0.0
C1000 C 0.26499 0.99212 0.23662 0.0
H1001 H 0.22868 0.9824 0.26637 0.0
C1002 C 0.29867 0.03809 0.23702 0.0
C1003 C 0.24057 0.97144 0.24752 0.0
C1004 C 0.20635 0.92157 0.24811 0.0
C1005 C 0.30759 0.06407 0.24775 0.0
C1006 C 0.28107 0.04426 0.25837 0.0
C1007 C 0.24855 0.9979 0.25819 0.0
C1008 C 0.28558 0.07199 0.26946 0.0
C1009 C 0.34564 0.11266 0.24755 0.0
C1010 C 0.29665 0.06192 0.28105 0.0
C1011 C 0.30391 0.09044 0.29117 0.0
C1012 C 0.30036 0.12961 0.28985 0.0
C1013 C 0.28747 0.13836 0.27835 0.0
C1014 C 0.2798 0.10976 0.26835 0.0
H1015 H 0.37138 0.11796 0.24051 0.0
H1016 H 0.33179 0.135 0.24518 0.0
H1017 H 0.36266 0.1232 0.25662 0.0
H1018 H 0.30091 0.03273 0.28218 0.0
H1019 H 0.31358 0.08257 0.2999 0.0
H1020 H 0.33346 0.30895 0.36684 0.0
H1021 H 0.31068 0.31428 0.38771 0.0
H1022 H 0.23361 0.16865 0.39004 0.0
H1023 H 0.25633 0.16301 0.36902 0.0
H1024 H 0.18321 0.21131 0.39491 0.0
H1025 H 0.34106 0.29025 0.42235 0.0
H1026 H 0.3461 0.31939 0.40819 0.0
H1027 H 0.33608 0.26239 0.40784 0.0
C1028 C 0.31274 0.27797 0.3719 0.0
C1029 C 0.29673 0.23553 0.36625 0.0
C1030 C 0.29986 0.2811 0.38388 0.0
C1031 C 0.27063 0.2419 0.39049 0.0
C1032 C 0.25643 0.19936 0.38513 0.0
H1033 H 0.17162 0.25353 0.4643 0.0
H1034 H 0.20436 0.23422 0.44693 0.0
C1035 C 0.2697 0.19618 0.37315 0.0
C1036 C 0.25085 0.24585 0.40228 0.0
H1037 H 0.27868 0.29569 0.43063 0.0
C1038 C 0.20402 0.22916 0.40279 0.0
C1039 C 0.27791 0.26899 0.41259 0.0
C1040 C 0.32803 0.28592 0.4128 0.0
C1041 C 0.18388 0.23672 0.41308 0.0
C1042 C 0.21128 0.26193 0.42311 0.0
C1043 C 0.25778 0.27683 0.42287 0.0
C1044 C 0.19233 0.27436 0.43373 0.0
C1045 C 0.13344 0.21814 0.41309 0.0
C1046 C 0.17531 0.30389 0.43211 0.0
C1047 C 0.15682 0.31526 0.44201 0.0
C1048 C 0.15479 0.29721 0.45378 0.0
C1049 C 0.17239 0.26797 0.45538 0.0
C1050 C 0.19122 0.25691 0.44547 0.0
H1051 H 0.11599 0.19085 0.40616 0.0
H1052 H 0.11889 0.20461 0.42228 0.0
H1053 H 0.12646 0.2458 0.41085 0.0
H1054 H 0.17635 0.3182 0.42315 0.0
H1055 H 0.1437 0.33787 0.4404 0.0
H1056 H 0.98797 0.29795 0.5315 0.0
H1057 H 0.96727 0.27259 0.55262 0.0
H1058 H 0.04627 0.20608 0.55118 0.0
H1059 H 0.0674 0.23155 0.52983 0.0
H1060 H 0.95565 0.15131 0.56041 0.0
H1061 H 0.04484 0.31715 0.58399 0.0
H1062 H 0.01207 0.31708 0.57108 0.0
H1063 H 0.0594 0.30857 0.56867 0.0
C1064 C 0.00151 0.27841 0.53567 0.0
C1065 C 0.02958 0.26701 0.52896 0.0
C1066 C 0.98978 0.26411 0.5478 0.0
C1067 C 0.00571 0.23799 0.55355 0.0
C1068 C 0.03398 0.22662 0.54695 0.0
H1069 H 0.90012 0.10459 0.62565 0.0
H1070 H 0.94714 0.13033 0.60708 0.0
C1071 C 0.0462 0.24139 0.53478 0.0
C1072 C 0.99039 0.22095 0.56622 0.0
H1073 H 0.98267 0.25687 0.59492 0.0
C1074 C 0.96229 0.1742 0.56805 0.0
C1075 C -0.00082 0.25089 0.57617 0.0
C1076 C 0.03089 0.3012 0.57494 0.0
C1077 C 0.94032 0.15692 0.57935 0.0
C1078 C 0.9472 0.1872 0.5891 0.0
C1079 C 0.97722 0.23369 0.58744 0.0
C1080 C 0.92022 0.1721 0.60061 0.0
C1081 C 0.90784 0.10676 0.58056 0.0
C1082 C 0.89031 0.18782 0.6033 0.0
C1083 C 0.86362 0.17339 0.61387 0.0
C1084 C 0.86632 0.14298 0.6221 0.0
C1085 C 0.89708 0.12794 0.61953 0.0
C1086 C 0.92378 0.14238 0.60887 0.0
H1087 H 0.90094 0.08897 0.57159 0.0
H1088 H 0.92244 0.09184 0.58685 0.0
H1089 H 0.87527 0.10046 0.58454 0.0
H1090 H 0.88708 0.21086 0.59708 0.0
H1091 H 0.84057 0.18593 0.61551 0.0
H1092 H 0.73486 0.92031 0.8003 0.0
H1093 H 0.75428 0.96875 0.78197 0.0
H1094 H 0.66768 0.85193 0.75994 0.0
H1095 H 0.64856 0.80348 0.77802 0.0
H1096 H 0.79102 0.94857 0.75761 0.0
H1097 H 0.63238 0.95523 0.75327 0.0
H1098 H 0.65234 0.9461 0.76779 0.0
H1099 H 0.62566 0.90072 0.75689 0.0
C1100 C 0.71953 0.90507 0.79158 0.0
C1101 C 0.69014 0.85798 0.79064 0.0
C1102 C 0.73086 0.93275 0.78112 0.0
C1103 C 0.71231 0.91387 0.76962 0.0
C1104 C 0.6822 0.86717 0.76874 0.0
H1105 H 0.6969 0.95256 0.69435 0.0
H1106 H 0.69134 0.93278 0.71592 0.0
C1107 C 0.67136 0.83952 0.7791 0.0
C1108 C 0.72505 0.94196 0.75833 0.0
H1109 H 0.67949 0.9756 0.7356 0.0
C1110 C 0.76715 0.95546 0.75288 0.0
C1111 C 0.69375 0.95069 0.75221 0.0
C1112 C 0.64856 0.9378 0.75784 0.0
C1113 C 0.7776 0.97488 0.74106 0.0
C1114 C 0.74531 0.98165 0.73466 0.0
C1115 C 0.70423 0.97038 0.74047 0.0
C1116 C 0.75076 0.99506 0.72148 0.0
C1117 C 0.82182 0.98532 0.73522 0.0
C1118 C 0.78632 0.03683 0.71729 0.0
C1119 C 0.78988 0.04835 0.70478 0.0
C1120 C 0.75765 0.01845 0.69626 0.0
C1121 C 0.7223 0.97671 0.70057 0.0
C1122 C 0.71896 0.96525 0.71296 0.0
H1123 H 0.83933 0.97069 0.74049 0.0
H1124 H 0.81624 0.97205 0.72568 0.0
H1125 H 0.84451 0.02256 0.73481 0.0
H1126 H 0.81091 0.06074 0.72371 0.0
H1127 H 0.81736 0.08085 0.70181 0.0
H1128 H 0.31288 0.03202 0.11242 0.0
H1129 H 0.32575 0.09176 0.09773 0.0
H1130 H 0.2514 0.13371 0.12103 0.0
H1131 H 0.23911 0.07502 0.13581 0.0
H1132 H 0.26606 0.1076 0.08478 0.0
H1133 H 0.36813 0.25201 0.11591 0.0
H1134 H 0.35525 0.19504 0.11935 0.0
H1135 H 0.31413 0.2122 0.12226 0.0
C1136 C 0.29926 0.05395 0.11442 0.0
C1137 C 0.27533 0.04889 0.12538 0.0
C1138 C 0.30671 0.08813 0.10602 0.0
C1139 C 0.29047 0.11792 0.10842 0.0
C1140 C 0.26542 0.11204 0.11915 0.0
H1141 H 0.26674 0.3231 0.06819 0.0
H1142 H 0.26666 0.27131 0.08377 0.0
C1143 C 0.25817 0.07815 0.12756 0.0
C1144 C 0.29879 0.15462 0.09962 0.0
H1145 H 0.34169 0.26896 0.09745 0.0
C1146 C 0.283 0.14291 0.08751 0.0
C1147 C 0.32098 0.20076 0.1032 0.0
C1148 C 0.341 0.21587 0.11585 0.0
C1149 C 0.2876 0.17589 0.079 0.0
C1150 C 0.30894 0.22182 0.08266 0.0
C1151 C 0.32521 0.23368 0.0947 0.0
C1152 C 0.3139 0.25777 0.0741 0.0
C1153 C 0.26861 0.1613 0.06621 0.0
C1154 C 0.34213 0.26886 0.06382 0.0
C1155 C 0.34264 0.29874 0.05495 0.0
C1156 C 0.3147 0.31797 0.05618 0.0
C1157 C 0.28871 0.30903 0.06693 0.0
C1158 C 0.28843 0.27926 0.07583 0.0
H1159 H 0.24586 0.12406 0.06553 0.0
H1160 H 0.24953 0.17826 0.06335 0.0
H1161 H 0.29685 0.1713 0.05964 0.0
H1162 H 0.36253 0.2531 0.06242 0.0
H1163 H 0.36315 0.30478 0.04683 0.0
H1164 H 0.96586 0.28619 0.23332 0.0
H1165 H 0.01446 0.29055 0.25053 0.0
H1166 H 0.13255 0.36596 0.22787 0.0
H1167 H 0.08447 0.36174 0.21076 0.0
H1168 H 0.06846 0.24978 0.24666 0.0
H1169 H 0.17417 0.4286 0.26153 0.0
H1170 H 0.12109 0.40812 0.25349 0.0
H1171 H 0.17137 0.4203 0.24519 0.0
C1172 C 0.00227 0.30529 0.23221 0.0
C1173 C 0.02151 0.32344 0.22074 0.0
C1174 C 0.02994 0.30756 0.242 0.0
C1175 C 0.07707 0.32874 0.24046 0.0
C1176 C 0.0964 0.35013 0.22932 0.0
H1177 H 0.29727 0.31909 0.27868 0.0
H1178 H 0.25193 0.33305 0.26359 0.0
C1179 C 0.06885 0.34747 0.21953 0.0
C1180 C 0.10527 0.32192 0.24955 0.0
H1181 H 0.19879 0.37731 0.26779 0.0
C1182 C 0.09663 0.2776 0.2514 0.0
C1183 C 0.14256 0.35841 0.25547 0.0
C1184 C 0.15276 0.40654 0.25392 0.0
C1185 C 0.12459 0.26876 0.25892 0.0
C1186 C 0.16164 0.30516 0.26495 0.0
C1187 C 0.17047 0.34956 0.26309 0.0
C1188 C 0.18952 0.29715 0.27386 0.0
C1189 C 0.1147 0.22058 0.26019 0.0
C1190 C 0.16937 0.27267 0.28457 0.0
C1191 C 0.19483 0.26455 0.29309 0.0
C1192 C 0.24129 0.28105 0.29116 0.0
C1193 C 0.26158 0.30571 0.2804 0.0
C1194 C 0.23584 0.3139 0.27182 0.0
H1195 H 0.09367 0.19901 0.25247 0.0
H1196 H 0.14647 0.21918 0.26059 0.0
H1197 H 0.09576 0.206 0.26884 0.0
H1198 H 0.13383 0.26003 0.28638 0.0
H1199 H 0.1779 0.24544 0.30126 0.0
H1200 H 0.71604 0.09208 0.37582 0.0
H1201 H 0.7649 0.14902 0.39066 0.0
H1202 H 0.74881 0.04387 0.41564 0.0
H1203 H 0.70079 0.98623 0.40061 0.0
H1204 H 0.75716 0.17051 0.41383 0.0
H1205 H 0.88454 0.11517 0.41142 0.0
H1206 H 0.837 0.09404 0.40106 0.0
H1207 H 0.8298 0.0714 0.41635 0.0
C1208 C 0.72235 0.08082 0.38452 0.0
C1209 C 0.70492 0.03446 0.38694 0.0
C1210 C 0.75036 0.11356 0.39301 0.0
C1211 C 0.76147 0.10078 0.40412 0.0
C1212 C 0.74169 0.05452 0.40696 0.0
H1213 H 0.89999 0.27586 0.46553 0.0
H1214 H 0.84444 0.22709 0.45045 0.0
C1215 C 0.71387 0.0216 0.39841 0.0
C1216 C 0.79535 0.1361 0.41239 0.0
H1217 H 0.89795 0.17209 0.42597 0.0
C1218 C 0.78799 0.17092 0.41648 0.0
C1219 C 0.83611 0.13724 0.41559 0.0
C1220 C 0.84768 0.10276 0.41079 0.0
C1221 C 0.81989 0.20642 0.42384 0.0
C1222 C 0.85974 0.20648 0.42746 0.0
C1223 C 0.86737 0.17201 0.42323 0.0
C1224 C 0.89322 0.24072 0.43604 0.0
C1225 C 0.8109 0.2439 0.42744 0.0
C1226 C 0.93941 0.26485 0.433 0.0
C1227 C 0.97164 0.29247 0.44172 0.0
C1228 C 0.95823 0.29639 0.45365 0.0
C1229 C 0.91171 0.27394 0.45643 0.0
C1230 C 0.87967 0.2461 0.44777 0.0
H1231 H 0.7882 0.24722 0.42072 0.0
H1232 H 0.79383 0.23592 0.4365 0.0
H1233 H 0.84278 0.27695 0.42813 0.0
H1234 H 0.95065 0.26112 0.42401 0.0
H1235 H 0.00711 0.3091 0.43926 0.0
H1236 H 0.68449 0.78602 0.54123 0.0
H1237 H 0.67131 0.82567 0.55775 0.0
H1238 H 0.69828 0.74882 0.58447 0.0
H1239 H 0.71234 0.70873 0.56775 0.0
H1240 H 0.60988 0.79459 0.57729 0.0
H1241 H 0.7892 0.88256 0.59312 0.0
H1242 H 0.77205 0.85306 0.57862 0.0
H1243 H 0.75996 0.82169 0.59269 0.0
C1244 C 0.68759 0.77722 0.5506 0.0
C1245 C 0.70009 0.74451 0.55316 0.0
C1246 C 0.67975 0.79987 0.56005 0.0
C1247 C 0.68432 0.79064 0.57233 0.0
C1248 C 0.69517 0.75686 0.57502 0.0
H1249 H 0.6215 0.92458 0.63158 0.0
H1250 H 0.61853 0.86722 0.61761 0.0
C1251 C 0.7029 0.7338 0.56549 0.0
C1252 C 0.67943 0.81836 0.58204 0.0
H1253 H 0.74067 0.90399 0.60233 0.0
C1254 C 0.63826 0.81811 0.5829 0.0
C1255 C 0.71674 0.84944 0.58921 0.0
C1256 C 0.76216 0.85219 0.58837 0.0
C1257 C 0.63373 0.84891 0.59048 0.0
C1258 C 0.67125 0.88045 0.59748 0.0
C1259 C 0.71203 0.87987 0.5969 0.0
C1260 C 0.66951 0.91525 0.60525 0.0
C1261 C 0.58945 0.84872 0.59056 0.0
C1262 C 0.69871 0.96141 0.60284 0.0
C1263 C 0.70055 0.99444 0.61081 0.0
C1264 C 0.67343 0.98188 0.62141 0.0
C1265 C 0.64267 0.9356 0.62347 0.0
C1266 C 0.64089 0.90264 0.61549 0.0
H1267 H 0.56748 0.82933 0.5827 0.0
H1268 H 0.57099 0.83273 0.59917 0.0
H1269 H 0.59534 0.8838 0.59024 0.0
H1270 H 0.72105 0.97183 0.59496 0.0
H1271 H 0.72486 0.02963 0.60897 0.0
H1272 H 0.91406 0.62879 0.70999 0.0
H1273 H 0.86175 0.62753 0.72546 0.0
H1274 H 0.97378 0.7085 0.7496 0.0
H1275 H 0.02663 0.71052 0.73417 0.0
H1276 H 0.84504 0.60404 0.75143 0.0
H1277 H 0.91455 0.78711 0.74203 0.0
H1278 H 0.92495 0.75094 0.73209 0.0
H1279 H 0.95616 0.77191 0.74617 0.0
C1280 C 0.92768 0.64552 0.71869 0.0
C1281 C 0.97477 0.67043 0.72072 0.0
C1282 C 0.89761 0.64473 0.72752 0.0
C1283 C 0.91403 0.66878 0.73853 0.0
C1284 C 0.96057 0.69039 0.74104 0.0
H1285 H 0.82033 0.7509 0.79993 0.0
H1286 H 0.85983 0.73499 0.78393 0.0
C1287 C 0.99071 0.69123 0.73223 0.0
C1288 C 0.88319 0.67484 0.74686 0.0
H1289 H 0.86333 0.75592 0.75866 0.0
C1290 C 0.84872 0.63712 0.75297 0.0
C1291 C 0.88774 0.71798 0.74867 0.0
C1292 C 0.92254 0.7593 0.74182 0.0
C1293 C 0.81997 0.64185 0.76134 0.0
C1294 C 0.82559 0.68529 0.76344 0.0
C1295 C 0.85916 0.72267 0.75702 0.0
C1296 C 0.79999 0.69368 0.77306 0.0
C1297 C 0.78501 0.6008 0.76821 0.0
C1298 C 0.75305 0.67607 0.7722 0.0
C1299 C 0.72999 0.6852 0.78141 0.0
C1300 C 0.75365 0.71204 0.79161 0.0
C1301 C 0.80077 0.72988 0.79228 0.0
C1302 C 0.82358 0.72088 0.78312 0.0
H1303 H 0.78973 0.57112 0.76695 0.0
H1304 H 0.78638 0.6083 0.77818 0.0
H1305 H 0.75079 0.5916 0.76483 0.0
H1306 H 0.73435 0.65556 0.76438 0.0
H1307 H 0.69376 0.67099 0.78059 0.0
H1308 H 0.07963 0.7021 0.96446 0.0
H1309 H 0.13643 0.7481 0.94908 0.0
H1310 H 0.03531 0.7615 0.92871 0.0
H1311 H 0.97801 0.71372 0.94371 0.0
H1312 H 0.09026 0.75476 0.91344 0.0
H1313 H 0.19392 0.88233 0.94863 0.0
H1314 H 0.1871 0.8277 0.9518 0.0
H1315 H 0.13853 0.83525 0.95193 0.0
C1316 C 0.06938 0.71419 0.95657 0.0
C1317 C 0.02441 0.70451 0.95533 0.0
C1318 C 0.10199 0.74094 0.94786 0.0
C1319 C 0.09058 0.75966 0.93795 0.0
C1320 C 0.04512 0.74785 0.93633 0.0
H1321 H 0.26679 0.0029 0.89749 0.0
H1322 H 0.21808 0.94618 0.91253 0.0
C1323 C 0.0123 0.72032 0.94489 0.0
C1324 C 0.12595 0.79276 0.92949 0.0
H1325 H 0.22524 0.89385 0.92869 0.0
C1326 C 0.1198 0.78515 0.91678 0.0
C1327 C 0.16412 0.83297 0.93382 0.0
C1328 C 0.17114 0.84537 0.94727 0.0
C1329 C 0.15041 0.81655 0.9083 0.0
C1330 C 0.18946 0.85593 0.91264 0.0
C1331 C 0.19574 0.86342 0.92535 0.0
C1332 C 0.22271 0.89105 0.90415 0.0
C1333 C 0.13938 0.80796 0.89478 0.0
C1334 C 0.24317 0.87956 0.89472 0.0
C1335 C 0.27043 0.9118 0.88599 0.0
C1336 C 0.27887 0.95652 0.88674 0.0
C1337 C 0.26113 0.9688 0.8967 0.0
C1338 C 0.23311 0.93631 0.90528 0.0
H1339 H 0.10275 0.78417 0.89323 0.0
H1340 H 0.14901 0.83992 0.8898 0.0
H1341 H 0.15828 0.79247 0.89076 0.0
H1342 H 0.2371 0.84534 0.8939 0.0
H1343 H 0.28401 0.90146 0.87848 0.0
H1344 H 0.28066 0.19064 0.03341 0.0
H1345 H 0.26531 0.11279 0.03536 0.0
H1346 H 0.12355 0.06332 0.02875 0.0
H1347 H 0.1382 0.14038 0.02689 0.0
H1348 H 0.14348 0.00707 0.04481 0.0
H1349 H 0.23922 0.05478 1.00057 0.0
H1350 H 0.26617 0.0845 0.0145 0.0
H1351 H 0.22286 0.09232 0.00755 0.0
C1352 C 0.24602 0.16318 0.03267 0.0
C1353 C 0.21079 0.17145 0.02948 0.0
C1354 C 0.23741 0.11883 0.03387 0.0
C1355 C 0.19358 0.08263 0.03191 0.0
C1356 C 0.15771 0.09101 0.03023 0.0
H1357 H 0.99412 0.85806 1.00341 0.0
H1358 H 0.05109 0.92636 0.01375 0.0
C1359 C 0.16622 0.1351 0.02902 0.0
C1360 C 0.18525 0.03715 0.02888 0.0
H1361 H 0.18128 0.97994 1.00284 0.0
C1362 C 0.15306 0.00073 0.03586 0.0
C1363 C 0.19836 0.02909 0.01724 0.0
C1364 C 0.23353 0.06706 0.00947 0.0
C1365 C 0.12932 0.95726 0.0308 0.0
C1366 C 0.13789 0.95079 0.01849 0.0
C1367 C 0.17437 0.98563 0.01219 0.0
C1368 C 0.10506 0.91113 0.01143 0.0
C1369 C 0.09294 0.91945 0.03832 0.0
C1370 C 0.11775 0.88221 0.0059 0.0
C1371 C 0.08547 0.84351 0.99979 0.0
C1372 C 0.0401 0.83338 0.99914 0.0
C1373 C 0.02859 0.86463 1.00381 0.0
C1374 C 0.06089 0.90323 0.00991 0.0
H1375 H 0.10099 0.92487 0.04828 0.0
H1376 H 0.06039 0.9187 0.03685 0.0
H1377 H 0.08847 0.88607 0.03561 0.0
H1378 H 0.1521 0.88864 0.00672 0.0
H1379 H 0.09557 0.82034 0.99616 0.0
H1380 H 0.06698 0.882 0.17275 0.0
H1381 H 0.01212 0.89463 0.18397 0.0
H1382 H 0.10285 0.03892 0.18191 0.0
H1383 H 0.15798 0.02681 0.17091 0.0
H1384 H 0.06561 0.00167 0.20645 0.0
H1385 H 0.93602 0.94807 0.16924 0.0
H1386 H 0.95692 0.91136 0.17403 0.0
H1387 H 0.99314 0.96206 0.16565 0.0
C1388 C 0.07488 0.91645 0.17451 0.0
C1389 C 0.11675 0.95353 0.17094 0.0
C1390 C 0.04368 0.92347 0.18099 0.0
C1391 C 0.0539 0.96758 0.18384 0.0
C1392 C 0.09487 0.00456 0.17992 0.0
H1393 H 0.03312 0.17667 0.19324 0.0
H1394 H 0.04631 0.1146 0.19809 0.0
C1395 C 0.1261 0.99764 0.17355 0.0
C1396 C 0.0221 0.97669 0.19057 0.0
H1397 H 0.93746 0.99816 0.18407 0.0
C1398 C 0.03646 -0.0004 0.20183 0.0
C1399 C 0.98347 0.97266 0.18467 0.0
C1400 C 0.96617 0.94724 0.17273 0.0
C1401 C 0.01697 0.02414 0.20644 0.0
C1402 C 0.98305 0.02595 0.19949 0.0
C1403 C 0.96408 0.99727 0.18929 0.0
C1404 C 0.97535 0.06462 0.20042 0.0
C1405 C 0.03551 0.05099 0.21811 0.0
C1406 C 0.93121 0.05735 0.20033 0.0
C1407 C 0.9236 0.09261 0.19728 0.0
C1408 C 0.96006 0.13562 0.19425 0.0
C1409 C 0.00442 0.14381 0.19541 0.0
C1410 C 0.01198 0.10844 0.19839 0.0
H1411 H 0.04475 0.03219 0.22474 0.0
H1412 H 0.06679 0.08333 0.21598 0.0
H1413 H 0.01077 0.05869 0.22249 0.0
H1414 H 0.90256 0.02374 0.20179 0.0
H1415 H 0.88899 0.08558 0.19674 0.0
H1416 H 0.13526 0.16804 0.33292 0.0
H1417 H 0.05784 0.11177 0.33822 0.0
H1418 H 0.09257 0.0065 0.3373 0.0
H1419 H 0.17078 0.06278 0.33192 0.0
H1420 H -0.00194 0.01168 0.32388 0.0
H1421 H 0.03647 0.0233 0.37389 0.0
H1422 H 0.06953 0.07297 0.36462 0.0
H1423 H 0.07469 0.0237 0.36234 0.0
C1424 C 0.12653 0.13294 0.33373 0.0
C1425 C 0.15914 0.11987 0.33209 0.0
C1426 C 0.08235 0.10091 0.33673 0.0
C1427 C 0.07011 0.05542 0.33818 0.0
C1428 C 0.10187 0.04166 0.3362 0.0
H1429 H 0.77985 0.91656 0.35231 0.0
H1430 H 0.8503 0.91704 0.34935 0.0
C1431 C 0.14629 0.07379 0.33311 0.0
C1432 C 0.02411 0.02367 0.34231 0.0
H1433 H 0.96106 0.00239 0.36823 0.0
C1434 C 0.98945 0.00766 0.33357 0.0
C1435 C 0.01375 0.01898 0.35495 0.0
C1436 C 0.05045 0.03537 0.36456 0.0
C1437 C 0.9446 0.99143 0.33715 0.0
C1438 C 0.93486 0.9912 0.34978 0.0
C1439 C 0.96895 0.0028 0.35857 0.0
C1440 C 0.89225 0.98796 0.35373 0.0
C1441 C 0.90887 0.97918 0.32739 0.0
C1442 C 0.8927 0.02731 0.35765 0.0
C1443 C 0.85221 0.02708 0.35943 0.0
C1444 C 0.81067 0.9875 0.35728 0.0
C1445 C 0.81062 0.94759 0.35403 0.0
C1446 C 0.8511 0.94775 0.3523 0.0
H1447 H 0.923 0.98446 0.31795 0.0
H1448 H 0.88248 0.94304 0.32835 0.0
H1449 H 0.89224 -0.00019 0.32851 0.0
H1450 H 0.9244 0.05875 0.35878 0.0
H1451 H 0.85352 0.05831 0.36209 0.0
H1452 H 0.93864 0.16354 0.50021 0.0
H1453 H 0.94489 0.10428 0.51075 0.0
H1454 H 0.07493 0.14925 0.49391 0.0
H1455 H 0.06799 0.20801 0.48286 0.0
H1456 H 0.02079 0.0616 0.49133 0.0
H1457 H 0.01445 0.10033 0.53993 0.0
H1458 H 0.97119 0.10507 0.53193 0.0
H1459 H 0.02978 0.14241 0.52801 0.0
C1460 C 0.96866 0.161 0.49874 0.0
C1461 C 0.00313 0.1907 0.4908 0.0
C1462 C 0.97268 0.12773 0.505 0.0
C1463 C 0.0113 0.12368 0.50352 0.0
C1464 C 0.04551 0.15279 0.49545 0.0
H1465 H 0.93245 0.84331 0.51955 0.0
H1466 H 0.99071 0.92325 0.51983 0.0
C1467 C 0.04141 0.18611 0.48911 0.0
C1468 C 0.01153 0.08433 0.50897 0.0
H1469 H 0.96995 0.01791 0.53435 0.0
C1470 C 0.01175 0.05253 0.50087 0.0
C1471 C 0.00074 0.07303 0.52147 0.0
C1472 C 0.00459 0.10739 0.53083 0.0
C1473 C 0.99435 0.00752 0.5045 0.0
C1474 C 0.97683 0.99475 0.51651 0.0
C1475 C 0.98275 0.02789 0.52508 0.0
C1476 C 0.94315 0.94743 0.51913 0.0
C1477 C 0.98967 0.97303 0.49505 0.0
C1478 C 0.8973 0.93504 0.5191 0.0
C1479 C 0.86389 0.88958 0.51885 0.0
C1480 C 0.87595 0.85585 0.51861 0.0
C1481 C 0.922 0.8685 0.51952 0.0
C1482 C 0.9554 0.91406 0.51976 0.0
H1483 H 0.00445 0.98873 0.48604 0.0
H1484 H 0.007 0.95486 0.49836 0.0
H1485 H 0.95339 0.94761 0.49367 0.0
H1486 H 0.88742 0.96063 0.51855 0.0
H1487 H 0.82881 0.88102 0.51831 0.0
H1488 H 0.89608 0.71099 0.68328 0.0
H1489 H 0.83631 0.71964 0.67351 0.0
H1490 H 0.93369 0.85766 0.6642 0.0
H1491 H 0.99372 0.84957 0.67379 0.0
H1492 H 0.80803 0.78512 0.67723 0.0
H1493 H 0.87612 0.79485 0.63068 0.0
H1494 H 0.89042 0.7711 0.64361 0.0
H1495 H 0.91959 0.83141 0.64123 0.0
C1496 C 0.90469 0.7435 0.67935 0.0
C1497 C 0.94986 0.7794 0.67911 0.0
C1498 C 0.87055 0.74812 0.6737 0.0
C1499 C 0.88126 0.78856 0.66774 0.0
C1500 C 0.92536 0.82564 0.66842 0.0
H1501 H 0.84928 0.98209 0.64857 0.0
H1502 H 0.86142 0.91785 0.64803 0.0
C1503 C 0.95946 0.82118 0.67408 0.0
C1504 C 0.84675 0.79327 0.66092 0.0
H1505 H 0.83543 0.83624 0.63382 0.0
C1506 C 0.81253 0.79462 0.66761 0.0
C1507 C 0.85226 0.80432 0.6483 0.0
C1508 C 0.88631 0.79984 0.64051 0.0
C1509 C 0.78808 0.8134 0.66246 0.0
C1510 C 0.79836 0.83072 0.65034 0.0
C1511 C 0.82799 0.82326 0.64314 0.0
C1512 C 0.79029 0.86753 0.64669 0.0
C1513 C 0.75573 0.81977 0.67052 0.0
C1514 C 0.74644 0.86044 0.64533 0.0
C1515 C 0.73931 0.89728 0.64576 0.0
C1516 C 0.77605 0.94138 0.64759 0.0
C1517 C 0.82022 0.94849 0.64748 0.0
C1518 C 0.82724 0.9118 0.64703 0.0
H1519 H 0.75217 0.80472 0.67978 0.0
H1520 H 0.76768 0.85642 0.67162 0.0
H1521 H 0.72181 0.80365 0.66615 0.0
H1522 H 0.71765 0.82642 0.64489 0.0
H1523 H 0.70485 0.8908 0.64554 0.0
H1524 H 0.21786 0.09138 0.85094 0.0
H1525 H 0.15102 0.09762 0.84752 0.0
H1526 H 0.0673 0.96125 0.86078 0.0
H1527 H 0.13422 0.95454 0.86414 0.0
H1528 H 0.08803 0.03665 0.83049 0.0
H1529 H 0.00427 0.02818 0.8745 0.0
H1530 H 0.06439 0.04895 0.87333 0.0
H1531 H 0.02489 0.98906 0.87428 0.0
C1532 C 0.1857 0.06305 0.85343 0.0
C1533 C 0.18147 0.02206 0.85757 0.0
C1534 C 0.14737 0.06691 0.85154 0.0
C1535 C 0.10443 0.03015 0.85402 0.0
C1536 C 0.10033 0.9904 0.85904 0.0
H1537 H 0.87603 0.84744 0.82652 0.0
H1538 H 0.95286 0.90912 0.83047 0.0
C1539 C 0.13854 0.98638 0.86079 0.0
C1540 C 0.06368 0.02883 0.84911 0.0
H1541 H 0.95372 0.98744 0.85712 0.0
C1542 C 0.05894 0.02774 0.83629 0.0
C1543 C 0.02613 0.018 0.85669 0.0
C1544 C 0.03031 0.02159 0.87047 0.0
C1545 C 0.01617 0.00972 0.8309 0.0
C1546 C 0.97789 0.99279 0.83856 0.0
C1547 C 0.98332 -8e-05 0.85129 0.0
C1548 C 0.93292 0.95914 0.83402 0.0
C1549 C 0.01177 0.00499 0.81713 0.0
C1550 C 0.89674 0.96731 0.83461 0.0
C1551 C 0.85289 0.93222 0.83227 0.0
C1552 C 0.84471 0.88833 0.82961 0.0
C1553 C 0.88134 0.8808 0.8286 0.0
C1554 C 0.92518 0.91605 0.83075 0.0
H1555 H 0.04297 0.03116 0.8125 0.0
H1556 H 0.00637 0.97125 0.81445 0.0
H1557 H 0.98244 0.0077 0.81381 0.0
H1558 H 0.90226 0.00028 0.83729 0.0
H1559 H 0.82523 0.93899 0.83316 0.0
loop_
_geom_bond_atom_site_label_1
_geom_bond_atom_site_label_2
_geom_bond_distance
_geom_bond_site_symmetry_2
_ccdc_geom_bond_type
Sc0 O3 2.025 . S
Sc0 O10 2.105 . S
Sc0 O13 2.105 1_554 S
Sc0 O16 2.105 . S
Sc0 O19 2.105 . S
Sc1 O3 2.025 . S
Sc1 O11 2.105 . S
Sc1 O15 2.105 . S
Sc1 O17 2.105 1_554 S
Sc1 O21 2.105 . S
Sc2 O3 2.025 . S
Sc2 O12 2.105 . S
Sc2 O14 2.105 . S
Sc2 O18 2.105 . S
Sc2 O20 2.105 . S
O3 Sc0 2.025 . S
O3 Sc1 2.025 . S
O3 Sc2 2.025 . S
C4 O10 1.268 . S
C4 O20 1.268 . S
C5 O11 1.268 . S
C5 O19 1.268 . S
C6 O12 1.268 . S
C6 O21 1.268 . S
C7 O13 1.268 . S
C7 O17 1.268 . S
C8 O14 1.268 . S
C8 O16 1.268 . S
C9 O15 1.268 . S
C9 O18 1.268 . S
O10 Sc0 2.105 . S
O10 C4 1.268 . S
O11 Sc1 2.105 . S
O11 C5 1.268 . S
O12 Sc2 2.105 . S
O12 C6 1.268 . S
O13 Sc0 2.105 1_556 S
O13 C7 1.268 . S
O14 Sc2 2.105 . S
O14 C8 1.268 . S
O15 Sc1 2.105 . S
O15 C9 1.268 . S
O16 Sc0 2.105 . S
O16 C8 1.268 . S
O17 Sc1 2.105 1_556 S
O17 C7 1.268 . S
O18 Sc2 2.105 . S
O18 C9 1.268 . S
O19 Sc0 2.105 . S
O19 C5 1.268 . S
O20 Sc2 2.105 . S
O20 C4 1.268 . S
O21 Sc1 2.105 . S
O21 C6 1.268 . S
Sc22 O25 2.025 . S
Sc22 O32 2.105 . S
Sc22 O35 2.105 . S
Sc22 O38 2.105 . S
Sc22 O41 2.105 . S
Sc23 O25 2.025 . S
Sc23 O33 2.105 . S
Sc23 O37 2.105 . S
Sc23 O39 2.105 . S
Sc23 O43 2.105 . S
Sc24 O25 2.025 . S
Sc24 O34 2.105 . S
Sc24 O36 2.105 . S
Sc24 O40 2.105 . S
Sc24 O42 2.105 . S
O25 Sc22 2.025 . S
O25 Sc23 2.025 . S
O25 Sc24 2.025 . S
C26 O32 1.268 . S
C26 O42 1.268 . S
C27 O33 1.268 . S
C27 O41 1.268 . S
C28 O34 1.268 . S
C28 O43 1.268 . S
C29 O35 1.268 . S
C29 O39 1.268 . S
C30 O36 1.268 . S
C30 O38 1.268 . S
C31 O37 1.268 . S
C31 O40 1.268 . S
O32 Sc22 2.105 . S
O32 C26 1.268 . S
O33 Sc23 2.105 . S
O33 C27 1.268 . S
O34 Sc24 2.105 . S
O34 C28 1.268 . S
O35 Sc22 2.105 . S
O35 C29 1.268 . S
O36 Sc24 2.105 . S
O36 C30 1.268 . S
O37 Sc23 2.105 . S
O37 C31 1.268 . S
O38 Sc22 2.105 . S
O38 C30 1.268 . S
O39 Sc23 2.105 . S
O39 C29 1.268 . S
O40 Sc24 2.105 . S
O40 C31 1.268 . S
O41 Sc22 2.105 . S
O41 C27 1.268 . S
O42 Sc24 2.105 . S
O42 C26 1.268 . S
O43 Sc23 2.105 . S
O43 C28 1.268 . S
Sc44 O47 2.025 . S
Sc44 O54 2.105 . S
Sc44 O57 2.105 . S
Sc44 O60 2.105 . S
Sc44 O63 2.105 . S
Sc45 O47 2.025 . S
Sc45 O55 2.105 . S
Sc45 O59 2.105 . S
Sc45 O61 2.105 . S
Sc45 O65 2.105 . S
Sc46 O47 2.025 . S
Sc46 O56 2.105 . S
Sc46 O58 2.105 . S
Sc46 O62 2.105 . S
Sc46 O64 2.105 . S
O47 Sc44 2.025 . S
O47 Sc45 2.025 . S
O47 Sc46 2.025 . S
C48 O54 1.268 . S
C48 O64 1.268 . S
C49 O55 1.268 . S
C49 O63 1.268 . S
C50 O56 1.268 . S
C50 O65 1.268 . S
C51 O57 1.268 . S
C51 O61 1.268 . S
C52 O58 1.268 . S
C52 O60 1.268 . S
C53 O59 1.268 . S
C53 O62 1.268 . S
O54 Sc44 2.105 . S
O54 C48 1.268 . S
O55 Sc45 2.105 . S
O55 C49 1.268 . S
O56 Sc46 2.105 . S
O56 C50 1.268 . S
O57 Sc44 2.105 . S
O57 C51 1.268 . S
O58 Sc46 2.105 . S
O58 C52 1.268 . S
O59 Sc45 2.105 . S
O59 C53 1.268 . S
O60 Sc44 2.105 . S
O60 C52 1.268 . S
O61 Sc45 2.105 . S
O61 C51 1.268 . S
O62 Sc46 2.105 . S
O62 C53 1.268 . S
O63 Sc44 2.105 . S
O63 C49 1.268 . S
O64 Sc46 2.105 . S
O64 C48 1.268 . S
O65 Sc45 2.105 . S
O65 C50 1.268 . S
Sc66 O69 2.025 . S
Sc66 O76 2.105 . S
Sc66 O79 2.105 . S
Sc66 O82 2.105 . S
Sc66 O85 2.105 . S
Sc67 O69 2.025 . S
Sc67 O77 2.105 . S
Sc67 O81 2.105 . S
Sc67 O83 2.105 . S
Sc67 O87 2.105 . S
Sc68 O69 2.025 . S
Sc68 O78 2.105 . S
Sc68 O80 2.105 . S
Sc68 O84 2.105 . S
Sc68 O86 2.105 . S
O69 Sc66 2.025 . S
O69 Sc67 2.025 . S
O69 Sc68 2.025 . S
C70 O76 1.268 . S
C70 O86 1.268 . S
C71 O77 1.268 . S
C71 O85 1.268 . S
C72 O78 1.268 . S
C72 O87 1.268 . S
C73 O79 1.268 . S
C73 O83 1.268 . S
C74 O80 1.268 . S
C74 O82 1.268 . S
C75 O81 1.268 . S
C75 O84 1.268 . S
O76 Sc66 2.105 . S
O76 C70 1.268 . S
O77 Sc67 2.105 . S
O77 C71 1.268 . S
O78 Sc68 2.105 . S
O78 C72 1.268 . S
O79 Sc66 2.105 . S
O79 C73 1.268 . S
O80 Sc68 2.105 . S
O80 C74 1.268 . S
O81 Sc67 2.105 . S
O81 C75 1.268 . S
O82 Sc66 2.105 . S
O82 C74 1.268 . S
O83 Sc67 2.105 . S
O83 C73 1.268 . S
O84 Sc68 2.105 . S
O84 C75 1.268 . S
O85 Sc66 2.105 . S
O85 C71 1.268 . S
O86 Sc68 2.105 . S
O86 C70 1.268 . S
O87 Sc67 2.105 . S
O87 C72 1.268 . S
Sc88 O91 2.025 . S
Sc88 O98 2.105 . S
Sc88 O101 2.105 . S
Sc88 O104 2.105 . S
Sc88 O107 2.105 . S
Sc89 O91 2.025 . S
Sc89 O99 2.105 . S
Sc89 O103 2.105 . S
Sc89 O105 2.105 . S
Sc89 O109 2.105 . S
Sc90 O91 2.025 . S
Sc90 O100 2.105 . S
Sc90 O102 2.105 . S
Sc90 O106 2.105 . S
Sc90 O108 2.105 . S
O91 Sc88 2.025 . S
O91 Sc89 2.025 . S
O91 Sc90 2.025 . S
C92 O98 1.268 . S
C92 O108 1.268 . S
C93 O99 1.268 . S
C93 O107 1.268 . S
C94 O100 1.268 . S
C94 O109 1.268 . S
C95 O101 1.268 . S
C95 O105 1.268 . S
C96 O102 1.268 . S
C96 O104 1.268 . S
C97 O103 1.268 . S
C97 O106 1.268 . S
O98 Sc88 2.105 . S
O98 C92 1.268 . S
O99 Sc89 2.105 . S
O99 C93 1.268 . S
O100 Sc90 2.105 . S
O100 C94 1.268 . S
O101 Sc88 2.105 . S
O101 C95 1.268 . S
O102 Sc90 2.105 . S
O102 C96 1.268 . S
O103 Sc89 2.105 . S
O103 C97 1.268 . S
O104 Sc88 2.105 . S
O104 C96 1.268 . S
O105 Sc89 2.105 . S
O105 C95 1.268 . S
O106 Sc90 2.105 . S
O106 C97 1.268 . S
O107 Sc88 2.105 . S
O107 C93 1.268 . S
O108 Sc90 2.105 . S
O108 C92 1.268 . S
O109 Sc89 2.105 . S
O109 C94 1.268 . S
Sc110 O113 2.025 . S
Sc110 O120 2.105 . S
Sc110 O123 2.105 . S
Sc110 O126 2.105 . S
Sc110 O129 2.105 . S
Sc111 O113 2.025 . S
Sc111 O121 2.105 . S
Sc111 O125 2.105 . S
Sc111 O127 2.105 . S
Sc111 O131 2.105 . S
Sc112 O113 2.025 . S
Sc112 O122 2.105 . S
Sc112 O124 2.105 . S
Sc112 O128 2.105 . S
Sc112 O130 2.105 . S
O113 Sc110 2.025 . S
O113 Sc111 2.025 . S
O113 Sc112 2.025 . S
C114 O120 1.268 . S
C114 O130 1.268 . S
C115 O121 1.268 . S
C115 O129 1.268 . S
C116 O122 1.268 . S
C116 O131 1.268 . S
C117 O123 1.268 . S
C117 O127 1.268 . S
C118 O124 1.268 . S
C118 O126 1.268 . S
C119 O125 1.268 . S
C119 O128 1.268 . S
O120 Sc110 2.105 . S
O120 C114 1.268 . S
O121 Sc111 2.105 . S
O121 C115 1.268 . S
O122 Sc112 2.105 . S
O122 C116 1.268 . S
O123 Sc110 2.105 . S
O123 C117 1.268 . S
O124 Sc112 2.105 . S
O124 C118 1.268 . S
O125 Sc111 2.105 . S
O125 C119 1.268 . S
O126 Sc110 2.105 . S
O126 C118 1.268 . S
O127 Sc111 2.105 . S
O127 C117 1.268 . S
O128 Sc112 2.105 . S
O128 C119 1.268 . S
O129 Sc110 2.105 . S
O129 C115 1.268 . S
O130 Sc112 2.105 . S
O130 C114 1.268 . S
O131 Sc111 2.105 . S
O131 C116 1.268 . S
Sc132 O135 2.025 . S
Sc132 O142 2.105 . S
Sc132 O145 2.105 . S
Sc132 O148 2.105 . S
Sc132 O151 2.105 . S
Sc133 O135 2.025 . S
Sc133 O143 2.105 . S
Sc133 O147 2.105 . S
Sc133 O149 2.105 . S
Sc133 O153 2.105 . S
Sc134 O135 2.025 . S
Sc134 O144 2.105 . S
Sc134 O146 2.105 . S
Sc134 O150 2.105 . S
Sc134 O152 2.105 . S
O135 Sc132 2.025 . S
O135 Sc133 2.025 . S
O135 Sc134 2.025 . S
C136 O142 1.268 . S
C136 O152 1.268 . S
C137 O143 1.268 . S
C137 O151 1.268 . S
C138 O144 1.268 . S
C138 O153 1.268 . S
C139 O145 1.268 . S
C139 O149 1.268 . S
C140 O146 1.268 . S
C140 O148 1.268 . S
C141 O147 1.268 . S
C141 O150 1.268 . S
O142 Sc132 2.105 . S
O142 C136 1.268 . S
O143 Sc133 2.105 . S
O143 C137 1.268 . S
O144 Sc134 2.105 . S
O144 C138 1.268 . S
O145 Sc132 2.105 . S
O145 C139 1.268 . S
O146 Sc134 2.105 . S
O146 C140 1.268 . S
O147 Sc133 2.105 . S
O147 C141 1.268 . S
O148 Sc132 2.105 . S
O148 C140 1.268 . S
O149 Sc133 2.105 . S
O149 C139 1.268 . S
O150 Sc134 2.105 . S
O150 C141 1.268 . S
O151 Sc132 2.105 . S
O151 C137 1.268 . S
O152 Sc134 2.105 . S
O152 C136 1.268 . S
O153 Sc133 2.105 . S
O153 C138 1.268 . S
Sc154 O157 2.025 . S
Sc154 O164 2.105 . S
Sc154 O167 2.105 1_556 S
Sc154 O170 2.105 . S
Sc154 O173 2.105 . S
Sc155 O157 2.025 . S
Sc155 O165 2.105 . S
Sc155 O169 2.105 . S
Sc155 O171 2.105 1_556 S
Sc155 O175 2.105 . S
Sc156 O157 2.025 . S
Sc156 O166 2.105 . S
Sc156 O168 2.105 . S
Sc156 O172 2.105 . S
Sc156 O174 2.105 . S
O157 Sc154 2.025 . S
O157 Sc155 2.025 . S
O157 Sc156 2.025 . S
C158 O164 1.268 . S
C158 O174 1.268 . S
C159 O165 1.268 . S
C159 O173 1.268 . S
C160 O166 1.268 . S
C160 O175 1.268 . S
C161 O167 1.268 . S
C161 O171 1.268 . S
C162 O168 1.268 . S
C162 O170 1.268 . S
C163 O169 1.268 . S
C163 O172 1.268 . S
O164 Sc154 2.105 . S
O164 C158 1.268 . S
O165 Sc155 2.105 . S
O165 C159 1.268 . S
O166 Sc156 2.105 . S
O166 C160 1.268 . S
O167 Sc154 2.105 1_554 S
O167 C161 1.268 . S
O168 Sc156 2.105 . S
O168 C162 1.268 . S
O169 Sc155 2.105 . S
O169 C163 1.268 . S
O170 Sc154 2.105 . S
O170 C162 1.268 . S
O171 Sc155 2.105 1_554 S
O171 C161 1.268 . S
O172 Sc156 2.105 . S
O172 C163 1.268 . S
O173 Sc154 2.105 . S
O173 C159 1.268 . S
O174 Sc156 2.105 . S
O174 C158 1.268 . S
O175 Sc155 2.105 . S
O175 C160 1.268 . S
Sc176 O179 2.025 . S
Sc176 O186 2.105 . S
Sc176 O189 2.105 . S
Sc176 O192 2.105 . S
Sc176 O195 2.105 . S
Sc177 O179 2.025 . S
Sc177 O187 2.105 . S
Sc177 O191 2.105 . S
Sc177 O193 2.105 . S
Sc177 O197 2.105 . S
Sc178 O179 2.025 . S
Sc178 O188 2.105 . S
Sc178 O190 2.105 . S
Sc178 O194 2.105 . S
Sc178 O196 2.105 . S
O179 Sc176 2.025 . S
O179 Sc177 2.025 . S
O179 Sc178 2.025 . S
C180 O186 1.268 . S
C180 O196 1.268 . S
C181 O187 1.268 . S
C181 O195 1.268 . S
C182 O188 1.268 . S
C182 O197 1.268 . S
C183 O189 1.268 . S
C183 O193 1.268 . S
C184 O190 1.268 . S
C184 O192 1.268 . S
C185 O191 1.268 . S
C185 O194 1.268 . S
O186 Sc176 2.105 . S
O186 C180 1.268 . S
O187 Sc177 2.105 . S
O187 C181 1.268 . S
O188 Sc178 2.105 . S
O188 C182 1.268 . S
O189 Sc176 2.105 . S
O189 C183 1.268 . S
O190 Sc178 2.105 . S
O190 C184 1.268 . S
O191 Sc177 2.105 . S
O191 C185 1.268 . S
O192 Sc176 2.105 . S
O192 C184 1.268 . S
O193 Sc177 2.105 . S
O193 C183 1.268 . S
O194 Sc178 2.105 . S
O194 C185 1.268 . S
O195 Sc176 2.105 . S
O195 C181 1.268 . S
O196 Sc178 2.105 . S
O196 C180 1.268 . S
O197 Sc177 2.105 . S
O197 C182 1.268 . S
Sc198 O201 2.025 . S
Sc198 O208 2.105 . S
Sc198 O211 2.105 . S
Sc198 O214 2.105 . S
Sc198 O217 2.105 . S
Sc199 O201 2.025 . S
Sc199 O209 2.105 . S
Sc199 O213 2.105 . S
Sc199 O215 2.105 . S
Sc199 O219 2.105 . S
Sc200 O201 2.025 . S
Sc200 O210 2.105 . S
Sc200 O212 2.105 . S
Sc200 O216 2.105 . S
Sc200 O218 2.105 . S
O201 Sc198 2.025 . S
O201 Sc199 2.025 . S
O201 Sc200 2.025 . S
C202 O208 1.268 . S
C202 O218 1.268 . S
C203 O209 1.268 . S
C203 O217 1.268 . S
C204 O210 1.268 . S
C204 O219 1.268 . S
C205 O211 1.268 . S
C205 O215 1.268 . S
C206 O212 1.268 . S
C206 O214 1.268 . S
C207 O213 1.268 . S
C207 O216 1.268 . S
O208 Sc198 2.105 . S
O208 C202 1.268 . S
O209 Sc199 2.105 . S
O209 C203 1.268 . S
O210 Sc200 2.105 . S
O210 C204 1.268 . S
O211 Sc198 2.105 . S
O211 C205 1.268 . S
O212 Sc200 2.105 . S
O212 C206 1.268 . S
O213 Sc199 2.105 . S
O213 C207 1.268 . S
O214 Sc198 2.105 . S
O214 C206 1.268 . S
O215 Sc199 2.105 . S
O215 C205 1.268 . S
O216 Sc200 2.105 . S
O216 C207 1.268 . S
O217 Sc198 2.105 . S
O217 C203 1.268 . S
O218 Sc200 2.105 . S
O218 C202 1.268 . S
O219 Sc199 2.105 . S
O219 C204 1.268 . S
Sc220 O223 2.025 . S
Sc220 O230 2.105 . S
Sc220 O233 2.105 . S
Sc220 O236 2.105 . S
Sc220 O239 2.105 . S
Sc221 O223 2.025 . S
Sc221 O231 2.105 . S
Sc221 O235 2.105 . S
Sc221 O237 2.105 . S
Sc221 O241 2.105 . S
Sc222 O223 2.025 . S
Sc222 O232 2.105 . S
Sc222 O234 2.105 . S
Sc222 O238 2.105 . S
Sc222 O240 2.105 . S
O223 Sc220 2.025 . S
O223 Sc221 2.025 . S
O223 Sc222 2.025 . S
C224 O230 1.268 . S
C224 O240 1.268 . S
C225 O231 1.268 . S
C225 O239 1.268 . S
C226 O232 1.268 . S
C226 O241 1.268 . S
C227 O233 1.268 . S
C227 O237 1.268 . S
C228 O234 1.268 . S
C228 O236 1.268 . S
C229 O235 1.268 . S
C229 O238 1.268 . S
O230 Sc220 2.105 . S
O230 C224 1.268 . S
O231 Sc221 2.105 . S
O231 C225 1.268 . S
O232 Sc222 2.105 . S
O232 C226 1.268 . S
O233 Sc220 2.105 . S
O233 C227 1.268 . S
O234 Sc222 2.105 . S
O234 C228 1.268 . S
O235 Sc221 2.105 . S
O235 C229 1.268 . S
O236 Sc220 2.105 . S
O236 C228 1.268 . S
O237 Sc221 2.105 . S
O237 C227 1.268 . S
O238 Sc222 2.105 . S
O238 C229 1.268 . S
O239 Sc220 2.105 . S
O239 C225 1.268 . S
O240 Sc222 2.105 . S
O240 C224 1.268 . S
O241 Sc221 2.105 . S
O241 C226 1.268 . S
Sc242 O245 2.025 . S
Sc242 O252 2.105 . S
Sc242 O255 2.105 . S
Sc242 O258 2.105 . S
Sc242 O261 2.105 . S
Sc243 O245 2.025 . S
Sc243 O253 2.105 . S
Sc243 O257 2.105 . S
Sc243 O259 2.105 . S
Sc243 O263 2.105 . S
Sc244 O245 2.025 . S
Sc244 O254 2.105 . S
Sc244 O256 2.105 . S
Sc244 O260 2.105 . S
Sc244 O262 2.105 . S
O245 Sc242 2.025 . S
O245 Sc243 2.025 . S
O245 Sc244 2.025 . S
C246 O252 1.268 . S
C246 O262 1.268 . S
C247 O253 1.268 . S
C247 O261 1.268 . S
C248 O254 1.268 . S
C248 O263 1.268 . S
C249 O255 1.268 . S
C249 O259 1.268 . S
C250 O256 1.268 . S
C250 O258 1.268 . S
C251 O257 1.268 . S
C251 O260 1.268 . S
O252 Sc242 2.105 . S
O252 C246 1.268 . S
O253 Sc243 2.105 . S
O253 C247 1.268 . S
O254 Sc244 2.105 . S
O254 C248 1.268 . S
O255 Sc242 2.105 . S
O255 C249 1.268 . S
O256 Sc244 2.105 . S
O256 C250 1.268 . S
O257 Sc243 2.105 . S
O257 C251 1.268 . S
O258 Sc242 2.105 . S
O258 C250 1.268 . S
O259 Sc243 2.105 . S
O259 C249 1.268 . S
O260 Sc244 2.105 . S
O260 C251 1.268 . S
O261 Sc242 2.105 . S
O261 C247 1.268 . S
O262 Sc244 2.105 . S
O262 C246 1.268 . S
O263 Sc243 2.105 . S
O263 C248 1.268 . S
H264 C272 0.929 . S
H265 C274 0.930 . S
H266 C276 0.930 . S
H267 C279 0.929 . S
H268 C282 0.930 . S
H269 C284 0.960 . S
H270 C284 0.960 . S
H271 C284 0.960 . S
C272 H264 0.929 . S
C272 C273 1.377 1_554 S
C272 C274 1.384 . S
C273 C272 1.377 1_556 S
C273 C279 1.390 . S
C274 H265 0.930 . S
C274 C272 1.384 . S
C274 C275 1.342 1_554 S
C275 C274 1.342 1_556 S
C275 C276 1.441 . S
C275 C280 1.478 1_556 S
C276 H266 0.930 . S
C276 C275 1.441 . S
C276 C279 1.386 . S
H277 C293 0.912 1_556 S
H278 C294 0.931 . S
C279 H267 0.929 . S
C279 C273 1.390 . S
C279 C276 1.386 . S
C280 C275 1.478 1_554 S
C280 C282 1.373 1_554 S
C280 C283 1.443 . S
H281 C287 0.930 . S
C282 H268 0.930 . S
C282 C280 1.373 1_556 S
C282 C285 1.403 . S
C283 C280 1.443 . S
C283 C284 1.524 . S
C283 C287 1.400 . S
C284 H269 0.960 . S
C284 H270 0.960 . S
C284 H271 0.960 . S
C284 C283 1.524 . S
C285 C282 1.403 . S
C285 C286 1.392 1_556 S
C285 C289 1.495 . S
C286 C285 1.392 1_554 S
C286 C287 1.385 . S
C286 C288 1.478 . S
C287 H281 0.930 . S
C287 C283 1.400 . S
C287 C286 1.385 . S
C288 C286 1.478 . S
C288 C290 1.381 . S
C288 C294 1.383 1_554 S
C289 C285 1.495 . S
C289 H295 0.959 . S
C289 H296 0.961 . S
C289 H297 0.960 1_556 S
C290 C288 1.381 . S
C290 C291 1.394 . S
C290 H298 0.930 . S
C291 C290 1.394 . S
C291 C292 1.383 . S
C291 H299 0.929 . S
C292 C291 1.383 . S
C292 C293 1.401 . S
C293 H277 0.912 1_554 S
C293 C292 1.401 . S
C293 C294 1.374 1_554 S
C294 H278 0.931 . S
C294 C288 1.383 1_556 S
C294 C293 1.374 1_556 S
H295 C289 0.959 . S
H296 C289 0.961 . S
H297 C289 0.960 1_554 S
H298 C290 0.930 . S
H299 C291 0.929 . S
H300 C308 0.929 . S
H301 C310 0.930 . S
H302 C312 0.930 . S
H303 C315 0.929 . S
H304 C318 0.930 . S
H305 C320 0.960 . S
H306 C320 0.960 . S
H307 C320 0.960 . S
C308 H300 0.929 . S
C308 C309 1.377 . S
C308 C310 1.384 . S
C309 C308 1.377 . S
C309 C315 1.390 . S
C310 H301 0.930 . S
C310 C308 1.384 . S
C310 C311 1.372 . S
C311 C310 1.372 . S
C311 C312 1.400 . S
C311 C316 1.490 . S
C312 H302 0.930 . S
C312 C311 1.400 . S
C312 C315 1.386 . S
H313 C329 0.930 . S
H314 C330 0.931 . S
C315 H303 0.929 . S
C315 C309 1.390 . S
C315 C312 1.386 . S
C316 C311 1.490 . S
C316 C318 1.395 . S
C316 C319 1.403 . S
H317 C323 0.930 . S
C318 H304 0.930 . S
C318 C316 1.395 . S
C318 C321 1.403 . S
C319 C316 1.403 . S
C319 C320 1.524 . S
C319 C323 1.400 . S
C320 H305 0.960 . S
C320 H306 0.960 . S
C320 H307 0.960 . S
C320 C319 1.524 . S
C321 C318 1.403 . S
C321 C322 1.392 . S
C321 C325 1.495 1_455 S
C322 C321 1.392 . S
C322 C323 1.385 . S
C322 C324 1.478 . S
C323 H317 0.930 . S
C323 C319 1.400 . S
C323 C322 1.385 . S
C324 C322 1.478 . S
C324 C326 1.381 1_455 S
C324 C330 1.383 . S
C325 C321 1.495 1_655 S
C325 H331 0.959 . S
C325 H332 0.961 . S
C325 H333 0.960 . S
C326 C324 1.381 1_655 S
C326 C327 1.394 . S
C326 H334 0.930 . S
C327 C326 1.394 . S
C327 C328 1.383 . S
C327 H335 0.929 . S
C328 C327 1.383 . S
C328 C329 1.377 . S
C329 H313 0.930 . S
C329 C328 1.377 . S
C329 C330 1.379 1_655 S
C330 H314 0.931 . S
C330 C324 1.383 . S
C330 C329 1.379 1_455 S
H331 C325 0.959 . S
H332 C325 0.961 . S
H333 C325 0.960 . S
H334 C326 0.930 . S
H335 C327 0.929 . S
H336 C344 0.929 . S
H337 C346 0.930 . S
H338 C348 0.930 . S
H339 C351 0.929 . S
H340 C354 0.930 . S
H341 C356 0.960 . S
H342 C356 0.960 . S
H343 C356 0.960 . S
C344 H336 0.929 . S
C344 C345 1.377 . S
C344 C346 1.384 . S
C345 C344 1.377 . S
C345 C351 1.390 . S
C346 H337 0.930 . S
C346 C344 1.384 . S
C346 C347 1.372 . S
C347 C346 1.372 . S
C347 C348 1.400 . S
C347 C352 1.490 . S
C348 H338 0.930 . S
C348 C347 1.400 . S
C348 C351 1.386 . S
H349 C365 0.930 . S
H350 C366 0.931 . S
C351 H339 0.929 . S
C351 C345 1.390 . S
C351 C348 1.386 . S
C352 C347 1.490 . S
C352 C354 1.395 . S
C352 C355 1.403 . S
H353 C359 0.930 . S
C354 H340 0.930 . S
C354 C352 1.395 . S
C354 C357 1.403 . S
C355 C352 1.403 . S
C355 C356 1.524 . S
C355 C359 1.400 . S
C356 H341 0.960 . S
C356 H342 0.960 . S
C356 H343 0.960 . S
C356 C355 1.524 . S
C357 C354 1.403 . S
C357 C358 1.392 . S
C357 C361 1.495 1_545 S
C358 C357 1.392 . S
C358 C359 1.385 . S
C358 C360 1.478 . S
C359 H353 0.930 . S
C359 C355 1.400 . S
C359 C358 1.385 . S
C360 C358 1.478 . S
C360 C362 1.381 1_545 S
C360 C366 1.383 . S
C361 C357 1.495 1_565 S
C361 H367 0.959 . S
C361 H368 0.961 1_565 S
C361 H369 0.960 . S
C362 C360 1.381 1_565 S
C362 C363 1.394 . S
C362 H370 0.930 . S
C363 C362 1.394 . S
C363 C364 1.383 . S
C363 H371 0.929 . S
C364 C363 1.383 . S
C364 C365 1.377 1_565 S
C365 H349 0.930 . S
C365 C364 1.377 1_545 S
C365 C366 1.379 . S
C366 H350 0.931 . S
C366 C360 1.383 . S
C366 C365 1.379 . S
H367 C361 0.959 . S
H368 C361 0.961 1_545 S
H369 C361 0.960 . S
H370 C362 0.930 . S
H371 C363 0.929 . S
H372 C380 0.929 . S
H373 C382 0.930 . S
H374 C384 0.930 . S
H375 C387 0.929 . S
H376 C390 0.930 . S
H377 C392 0.960 . S
H378 C392 0.960 . S
H379 C392 0.960 . S
C380 H372 0.929 . S
C380 C381 1.377 . S
C380 C382 1.384 . S
C381 C380 1.377 . S
C381 C387 1.390 . S
C382 H373 0.930 . S
C382 C380 1.384 . S
C382 C383 1.372 . S
C383 C382 1.372 . S
C383 C384 1.400 . S
C383 C388 1.490 . S
C384 H374 0.930 . S
C384 C383 1.400 . S
C384 C387 1.386 . S
H385 C401 0.930 . S
H386 C402 0.931 . S
C387 H375 0.929 . S
C387 C381 1.390 . S
C387 C384 1.386 . S
C388 C383 1.490 . S
C388 C390 1.395 . S
C388 C391 1.403 . S
H389 C395 0.930 . S
C390 H376 0.930 . S
C390 C388 1.395 . S
C390 C393 1.403 . S
C391 C388 1.403 . S
C391 C392 1.524 . S
C391 C395 1.400 . S
C392 H377 0.960 . S
C392 H378 0.960 . S
C392 H379 0.960 . S
C392 C391 1.524 . S
C393 C390 1.403 . S
C393 C394 1.392 . S
C393 C397 1.495 . S
C394 C393 1.392 . S
C394 C395 1.385 . S
C394 C396 1.478 . S
C395 H389 0.930 . S
C395 C391 1.400 . S
C395 C394 1.385 . S
C396 C394 1.478 . S
C396 C398 1.381 . S
C396 C402 1.383 . S
C397 C393 1.495 . S
C397 H403 0.959 . S
C397 H404 0.961 . S
C397 H405 0.960 . S
C398 C396 1.381 . S
C398 C399 1.394 . S
C398 H406 0.930 . S
C399 C398 1.394 . S
C399 C400 1.383 . S
C399 H407 0.929 . S
C400 C399 1.383 . S
C400 C401 1.377 . S
C401 H385 0.930 . S
C401 C400 1.377 . S
C401 C402 1.379 . S
C402 H386 0.931 . S
C402 C396 1.383 . S
C402 C401 1.379 . S
H403 C397 0.959 . S
H404 C397 0.961 . S
H405 C397 0.960 . S
H406 C398 0.930 . S
H407 C399 0.929 . S
H408 C416 0.929 . S
H409 C418 0.930 . S
H410 C420 0.930 . S
H411 C423 0.929 . S
H412 C426 0.930 . S
H413 C428 0.960 . S
H414 C428 0.960 . S
H415 C428 0.960 . S
C416 H408 0.929 . S
C416 C417 1.377 . S
C416 C418 1.384 . S
C417 C416 1.377 . S
C417 C423 1.390 . S
C418 H409 0.930 . S
C418 C416 1.384 . S
C418 C419 1.372 . S
C419 C418 1.372 . S
C419 C420 1.400 . S
C419 C424 1.490 . S
C420 H410 0.930 . S
C420 C419 1.400 . S
C420 C423 1.386 . S
H421 C437 0.930 . S
H422 C438 0.931 . S
C423 H411 0.929 . S
C423 C417 1.390 . S
C423 C420 1.386 . S
C424 C419 1.490 . S
C424 C426 1.395 . S
C424 C427 1.403 . S
H425 C431 0.930 . S
C426 H412 0.930 . S
C426 C424 1.395 . S
C426 C429 1.403 . S
C427 C424 1.403 . S
C427 C428 1.524 . S
C427 C431 1.400 . S
C428 H413 0.960 . S
C428 H414 0.960 . S
C428 H415 0.960 . S
C428 C427 1.524 . S
C429 C426 1.403 . S
C429 C430 1.392 . S
C429 C433 1.495 . S
C430 C429 1.392 . S
C430 C431 1.385 . S
C430 C432 1.478 . S
C431 H425 0.930 . S
C431 C427 1.400 . S
C431 C430 1.385 . S
C432 C430 1.478 . S
C432 C434 1.381 . S
C432 C438 1.383 1_655 S
C433 C429 1.495 . S
C433 H439 0.959 . S
C433 H440 0.961 . S
C433 H441 0.960 . S
C434 C432 1.381 . S
C434 C435 1.394 . S
C434 H442 0.930 . S
C435 C434 1.394 . S
C435 C436 1.383 1_655 S
C435 H443 0.929 . S
C436 C435 1.383 1_455 S
C436 C437 1.377 . S
C437 H421 0.930 . S
C437 C436 1.377 . S
C437 C438 1.379 . S
C438 H422 0.931 . S
C438 C432 1.383 1_455 S
C438 C437 1.379 . S
H439 C433 0.959 . S
H440 C433 0.961 . S
H441 C433 0.960 . S
H442 C434 0.930 . S
H443 C435 0.929 . S
H444 C452 0.929 . S
H445 C454 0.930 . S
H446 C456 0.930 . S
H447 C459 0.929 . S
H448 C462 0.930 . S
H449 C464 0.960 1_545 S
H450 C464 0.960 . S
H451 C464 0.960 . S
C452 H444 0.929 . S
C452 C453 1.377 . S
C452 C454 1.384 . S
C453 C452 1.377 . S
C453 C459 1.390 . S
C454 H445 0.930 . S
C454 C452 1.384 . S
C454 C455 1.372 . S
C455 C454 1.372 . S
C455 C456 1.400 . S
C455 C460 1.490 . S
C456 H446 0.930 . S
C456 C455 1.400 . S
C456 C459 1.386 . S
H457 C473 0.930 . S
H458 C474 0.931 . S
C459 H447 0.929 . S
C459 C453 1.390 . S
C459 C456 1.386 . S
C460 C455 1.490 . S
C460 C462 1.395 . S
C460 C463 1.403 . S
H461 C467 0.930 1_545 S
C462 H448 0.930 . S
C462 C460 1.395 . S
C462 C465 1.403 . S
C463 C460 1.403 . S
C463 C464 1.524 . S
C463 C467 1.400 . S
C464 H449 0.960 1_565 S
C464 H450 0.960 . S
C464 H451 0.960 . S
C464 C463 1.524 . S
C465 C462 1.403 . S
C465 C466 1.392 . S
C465 C469 1.495 . S
C466 C465 1.392 . S
C466 C467 1.385 . S
C466 C468 1.478 . S
C467 H461 0.930 1_565 S
C467 C463 1.400 . S
C467 C466 1.385 . S
C468 C466 1.478 . S
C468 C470 1.381 . S
C468 C474 1.383 . S
C469 C465 1.495 . S
C469 H475 0.959 . S
C469 H476 0.961 . S
C469 H477 0.960 . S
C470 C468 1.381 . S
C470 C471 1.394 1_565 S
C470 H478 0.930 . S
C471 C470 1.394 1_545 S
C471 C472 1.383 . S
C471 H479 0.929 . S
C472 C471 1.383 . S
C472 C473 1.377 . S
C473 H457 0.930 . S
C473 C472 1.377 . S
C473 C474 1.379 1_545 S
C474 H458 0.931 . S
C474 C468 1.383 . S
C474 C473 1.379 1_565 S
H475 C469 0.959 . S
H476 C469 0.961 . S
H477 C469 0.960 . S
H478 C470 0.930 . S
H479 C471 0.929 . S
H480 C488 0.929 . S
H481 C490 0.930 . S
H482 C492 0.930 . S
H483 C495 0.929 . S
H484 C498 0.930 . S
H485 C500 0.960 . S
H486 C500 0.960 . S
H487 C500 0.960 . S
C488 H480 0.929 . S
C488 C489 1.377 . S
C488 C490 1.384 . S
C489 C488 1.377 . S
C489 C495 1.390 . S
C490 H481 0.930 . S
C490 C488 1.384 . S
C490 C491 1.372 . S
C491 C490 1.372 . S
C491 C492 1.400 . S
C491 C496 1.490 . S
C492 H482 0.930 . S
C492 C491 1.400 . S
C492 C495 1.386 . S
H493 C509 0.930 . S
H494 C510 0.931 . S
C495 H483 0.929 . S
C495 C489 1.390 . S
C495 C492 1.386 . S
C496 C491 1.490 . S
C496 C498 1.395 . S
C496 C499 1.403 . S
H497 C503 0.930 . S
C498 H484 0.930 . S
C498 C496 1.395 . S
C498 C501 1.403 . S
C499 C496 1.403 . S
C499 C500 1.524 . S
C499 C503 1.400 . S
C500 H485 0.960 . S
C500 H486 0.960 . S
C500 H487 0.960 . S
C500 C499 1.524 . S
C501 C498 1.403 . S
C501 C502 1.392 . S
C501 C505 1.495 . S
C502 C501 1.392 . S
C502 C503 1.385 . S
C502 C504 1.478 . S
C503 H497 0.930 . S
C503 C499 1.400 . S
C503 C502 1.385 . S
C504 C502 1.478 . S
C504 C506 1.381 . S
C504 C510 1.383 . S
C505 C501 1.495 . S
C505 H511 0.959 . S
C505 H512 0.961 . S
C505 H513 0.960 . S
C506 C504 1.381 . S
C506 C507 1.394 . S
C506 H514 0.930 . S
C507 C506 1.394 . S
C507 C508 1.383 . S
C507 H515 0.929 . S
C508 C507 1.383 . S
C508 C509 1.377 . S
C509 H493 0.930 . S
C509 C508 1.377 . S
C509 C510 1.379 . S
C510 H494 0.931 . S
C510 C504 1.383 . S
C510 C509 1.379 . S
H511 C505 0.959 . S
H512 C505 0.961 . S
H513 C505 0.960 . S
H514 C506 0.930 . S
H515 C507 0.929 . S
H516 C524 0.929 . S
H517 C526 0.907 1_554 S
H518 C528 0.930 . S
H519 C531 0.929 . S
H520 C534 0.930 . S
H521 C536 0.960 . S
H522 C536 0.960 . S
H523 C536 0.960 1_655 S
C524 H516 0.929 . S
C524 C525 1.377 1_455 S
C524 C526 1.384 . S
C525 C524 1.377 1_655 S
C525 C531 1.390 . S
C526 H517 0.907 1_556 S
C526 C524 1.384 . S
C526 C527 1.372 . S
C527 C526 1.372 . S
C527 C528 1.400 1_455 S
C527 C532 1.490 . S
C528 H518 0.930 . S
C528 C527 1.400 1_655 S
C528 C531 1.386 . S
H529 C545 0.930 . S
H530 C546 0.931 . S
C531 H519 0.929 . S
C531 C525 1.390 . S
C531 C528 1.386 . S
C532 C527 1.490 . S
C532 C534 1.395 1_556 S
C532 C535 1.403 . S
H533 C539 0.930 . S
C534 H520 0.930 . S
C534 C532 1.395 1_554 S
C534 C537 1.403 . S
C535 C532 1.403 . S
C535 C536 1.524 . S
C535 C539 1.400 . S
C536 H521 0.960 . S
C536 H522 0.960 . S
C536 H523 0.960 1_455 S
C536 C535 1.524 . S
C537 C534 1.403 . S
C537 C538 1.392 . S
C537 C541 1.495 . S
C538 C537 1.392 . S
C538 C539 1.385 1_554 S
C538 C540 1.478 . S
C539 H533 0.930 . S
C539 C535 1.400 . S
C539 C538 1.385 1_556 S
C540 C538 1.478 . S
C540 C542 1.381 . S
C540 C546 1.383 . S
C541 C537 1.495 . S
C541 H547 0.959 . S
C541 H548 0.961 . S
C541 H549 0.960 . S
C542 C540 1.381 . S
C542 C543 1.394 . S
C542 H550 0.930 . S
C543 C542 1.394 . S
C543 C544 1.383 . S
C543 H551 0.929 . S
C544 C543 1.383 . S
C544 C545 1.377 . S
C545 H529 0.930 . S
C545 C544 1.377 . S
C545 C546 1.379 . S
C546 H530 0.931 . S
C546 C540 1.383 . S
C546 C545 1.379 . S
H547 C541 0.959 . S
H548 C541 0.961 . S
H549 C541 0.960 . S
H550 C542 0.930 . S
H551 C543 0.929 . S
H552 C560 0.929 . S
H553 C562 0.930 . S
H554 C564 0.930 . S
H555 C567 0.929 . S
H556 C570 0.930 . S
H557 C572 0.960 . S
H558 C572 0.960 . S
H559 C572 0.960 . S
C560 H552 0.929 . S
C560 C561 1.377 1_545 S
C560 C562 1.384 . S
C561 C560 1.377 1_565 S
C561 C567 1.390 . S
C562 H553 0.930 . S
C562 C560 1.384 . S
C562 C563 1.372 . S
C563 C562 1.372 . S
C563 C564 1.400 1_545 S
C563 C568 1.490 . S
C564 H554 0.930 . S
C564 C563 1.400 1_565 S
C564 C567 1.386 . S
H565 C581 0.930 . S
H566 C582 0.931 . S
C567 H555 0.929 . S
C567 C561 1.390 . S
C567 C564 1.386 . S
C568 C563 1.490 . S
C568 C570 1.395 . S
C568 C571 1.403 . S
H569 C575 0.930 . S
C570 H556 0.930 . S
C570 C568 1.395 . S
C570 C573 1.403 . S
C571 C568 1.403 . S
C571 C572 1.524 . S
C571 C575 1.400 . S
C572 H557 0.960 . S
C572 H558 0.960 . S
C572 H559 0.960 . S
C572 C571 1.524 . S
C573 C570 1.403 . S
C573 C574 1.392 . S
C573 C577 1.495 . S
C574 C573 1.392 . S
C574 C575 1.385 . S
C574 C576 1.478 . S
C575 H569 0.930 . S
C575 C571 1.400 . S
C575 C574 1.385 . S
C576 C574 1.478 . S
C576 C578 1.381 . S
C576 C582 1.383 . S
C577 C573 1.495 . S
C577 H583 0.959 . S
C577 H584 0.961 . S
C577 H585 0.960 . S
C578 C576 1.381 . S
C578 C579 1.394 . S
C578 H586 0.930 . S
C579 C578 1.394 . S
C579 C580 1.383 . S
C579 H587 0.929 . S
C580 C579 1.383 . S
C580 C581 1.377 . S
C581 H565 0.930 . S
C581 C580 1.377 . S
C581 C582 1.379 . S
C582 H566 0.931 . S
C582 C576 1.383 . S
C582 C581 1.379 . S
H583 C577 0.959 . S
H584 C577 0.961 . S
H585 C577 0.960 . S
H586 C578 0.930 . S
H587 C579 0.929 . S
H588 C596 0.929 . S
H589 C598 0.930 . S
H590 C600 0.930 . S
H591 C603 0.929 . S
H592 C606 0.930 . S
H593 C608 0.960 . S
H594 C608 0.960 . S
H595 C608 0.960 . S
C596 H588 0.929 . S
C596 C597 1.377 . S
C596 C598 1.384 . S
C597 C596 1.377 . S
C597 C603 1.390 . S
C598 H589 0.930 . S
C598 C596 1.384 . S
C598 C599 1.372 . S
C599 C598 1.372 . S
C599 C600 1.400 . S
C599 C604 1.490 . S
C600 H590 0.930 . S
C600 C599 1.400 . S
C600 C603 1.386 . S
H601 C617 0.930 . S
H602 C618 0.931 . S
C603 H591 0.929 . S
C603 C597 1.390 . S
C603 C600 1.386 . S
C604 C599 1.490 . S
C604 C606 1.395 . S
C604 C607 1.403 . S
H605 C611 0.930 . S
C606 H592 0.930 . S
C606 C604 1.395 . S
C606 C609 1.403 . S
C607 C604 1.403 . S
C607 C608 1.524 . S
C607 C611 1.400 . S
C608 H593 0.960 . S
C608 H594 0.960 . S
C608 H595 0.960 . S
C608 C607 1.524 . S
C609 C606 1.403 . S
C609 C610 1.392 . S
C609 C613 1.495 . S
C610 C609 1.392 . S
C610 C611 1.385 . S
C610 C612 1.478 . S
C611 H605 0.930 . S
C611 C607 1.400 . S
C611 C610 1.385 . S
C612 C610 1.478 . S
C612 C614 1.381 . S
C612 C618 1.383 . S
C613 C609 1.495 . S
C613 H619 0.959 . S
C613 H620 0.961 . S
C613 H621 0.960 . S
C614 C612 1.381 . S
C614 C615 1.394 . S
C614 H622 0.930 . S
C615 C614 1.394 . S
C615 C616 1.383 . S
C615 H623 0.929 . S
C616 C615 1.383 . S
C616 C617 1.377 . S
C617 H601 0.930 . S
C617 C616 1.377 . S
C617 C618 1.379 . S
C618 H602 0.931 . S
C618 C612 1.383 . S
C618 C617 1.379 . S
H619 C613 0.959 . S
H620 C613 0.961 . S
H621 C613 0.960 . S
H622 C614 0.930 . S
H623 C615 0.929 . S
H624 C632 0.929 . S
H625 C634 0.930 . S
H626 C636 0.930 . S
H627 C639 0.929 . S
H628 C642 0.930 1_455 S
H629 C644 0.960 . S
H630 C644 0.960 . S
H631 C644 0.960 . S
C632 H624 0.929 . S
C632 C633 1.377 . S
C632 C634 1.384 1_455 S
C633 C632 1.377 . S
C633 C639 1.390 . S
C634 H625 0.930 . S
C634 C632 1.384 1_655 S
C634 C635 1.372 . S
C635 C634 1.372 . S
C635 C636 1.400 1_655 S
C635 C640 1.490 . S
C636 H626 0.930 . S
C636 C635 1.400 1_455 S
C636 C639 1.386 . S
H637 C653 0.930 . S
H638 C654 0.931 . S
C639 H627 0.929 . S
C639 C633 1.390 . S
C639 C636 1.386 . S
C640 C635 1.490 . S
C640 C642 1.395 . S
C640 C643 1.403 . S
H641 C647 0.930 . S
C642 H628 0.930 1_655 S
C642 C640 1.395 . S
C642 C645 1.403 . S
C643 C640 1.403 . S
C643 C644 1.524 . S
C643 C647 1.400 . S
C644 H629 0.960 . S
C644 H630 0.960 . S
C644 H631 0.960 . S
C644 C643 1.524 . S
C645 C642 1.403 . S
C645 C646 1.392 . S
C645 C649 1.495 . S
C646 C645 1.392 . S
C646 C647 1.385 . S
C646 C648 1.478 . S
C647 H641 0.930 . S
C647 C643 1.400 . S
C647 C646 1.385 . S
C648 C646 1.478 . S
C648 C650 1.381 . S
C648 C654 1.383 . S
C649 C645 1.495 . S
C649 H655 0.959 1_655 S
C649 H656 0.961 . S
C649 H657 0.960 . S
C650 C648 1.381 . S
C650 C651 1.394 . S
C650 H658 0.930 . S
C651 C650 1.394 . S
C651 C652 1.383 . S
C651 H659 0.929 . S
C652 C651 1.383 . S
C652 C653 1.377 . S
C653 H637 0.930 . S
C653 C652 1.377 . S
C653 C654 1.379 . S
C654 H638 0.931 . S
C654 C648 1.383 . S
C654 C653 1.379 . S
H655 C649 0.959 1_455 S
H656 C649 0.961 . S
H657 C649 0.960 . S
H658 C650 0.930 . S
H659 C651 0.929 . S
H660 C668 0.929 . S
H661 C670 0.930 . S
H662 C672 0.930 . S
H663 C675 0.929 . S
H664 C678 0.930 1_545 S
H665 C680 0.960 . S
H666 C680 0.960 . S
H667 C680 0.960 . S
C668 H660 0.929 . S
C668 C669 1.377 . S
C668 C670 1.384 . S
C669 C668 1.377 . S
C669 C675 1.390 1_545 S
C670 H661 0.930 . S
C670 C668 1.384 . S
C670 C671 1.372 1_545 S
C671 C670 1.372 1_565 S
C671 C672 1.400 . S
C671 C676 1.490 . S
C672 H662 0.930 . S
C672 C671 1.400 . S
C672 C675 1.386 . S
H673 C689 0.930 . S
H674 C690 0.931 . S
C675 H663 0.929 . S
C675 C669 1.390 1_565 S
C675 C672 1.386 . S
C676 C671 1.490 . S
C676 C678 1.395 . S
C676 C679 1.403 . S
H677 C683 0.930 . S
C678 H664 0.930 1_565 S
C678 C676 1.395 . S
C678 C681 1.403 . S
C679 C676 1.403 . S
C679 C680 1.524 . S
C679 C683 1.400 . S
C680 H665 0.960 . S
C680 H666 0.960 . S
C680 H667 0.960 . S
C680 C679 1.524 . S
C681 C678 1.403 . S
C681 C682 1.392 . S
C681 C685 1.495 1_565 S
C682 C681 1.392 . S
C682 C683 1.385 . S
C682 C684 1.478 . S
C683 H677 0.930 . S
C683 C679 1.400 . S
C683 C682 1.385 . S
C684 C682 1.478 . S
C684 C686 1.381 . S
C684 C690 1.383 . S
C685 C681 1.495 1_545 S
C685 H691 0.959 . S
C685 H692 0.961 1_545 S
C685 H693 0.960 . S
C686 C684 1.381 . S
C686 C687 1.394 . S
C686 H694 0.930 . S
C687 C686 1.394 . S
C687 C688 1.383 . S
C687 H695 0.929 . S
C688 C687 1.383 . S
C688 C689 1.377 . S
C689 H673 0.930 . S
C689 C688 1.377 . S
C689 C690 1.379 . S
C690 H674 0.931 . S
C690 C684 1.383 . S
C690 C689 1.379 . S
H691 C685 0.959 . S
H692 C685 0.961 1_565 S
H693 C685 0.960 . S
H694 C686 0.930 . S
H695 C687 0.929 . S
H696 C704 0.929 . S
H697 C706 0.930 . S
H698 C708 0.930 . S
H699 C711 0.929 . S
H700 C714 0.930 . S
H701 C716 0.960 . S
H702 C716 0.960 . S
H703 C716 0.960 . S
C704 H696 0.929 . S
C704 C705 1.377 . S
C704 C706 1.384 . S
C705 C704 1.377 . S
C705 C711 1.390 . S
C706 H697 0.930 . S
C706 C704 1.384 . S
C706 C707 1.372 . S
C707 C706 1.372 . S
C707 C708 1.400 . S
C707 C712 1.490 . S
C708 H698 0.930 . S
C708 C707 1.400 . S
C708 C711 1.386 . S
H709 C725 0.930 . S
H710 C726 0.931 . S
C711 H699 0.929 . S
C711 C705 1.390 . S
C711 C708 1.386 . S
C712 C707 1.490 . S
C712 C714 1.395 . S
C712 C715 1.403 . S
H713 C719 0.930 . S
C714 H700 0.930 . S
C714 C712 1.395 . S
C714 C717 1.403 . S
C715 C712 1.403 . S
C715 C716 1.524 . S
C715 C719 1.400 . S
C716 H701 0.960 . S
C716 H702 0.960 . S
C716 H703 0.960 . S
C716 C715 1.524 . S
C717 C714 1.403 . S
C717 C718 1.392 . S
C717 C721 1.495 . S
C718 C717 1.392 . S
C718 C719 1.385 . S
C718 C720 1.478 . S
C719 H713 0.930 . S
C719 C715 1.400 . S
C719 C718 1.385 . S
C720 C718 1.478 . S
C720 C722 1.381 . S
C720 C726 1.383 . S
C721 C717 1.495 . S
C721 H727 0.959 . S
C721 H728 0.961 . S
C721 H729 0.960 . S
C722 C720 1.381 . S
C722 C723 1.394 . S
C722 H730 0.930 . S
C723 C722 1.394 . S
C723 C724 1.383 . S
C723 H731 0.929 . S
C724 C723 1.383 . S
C724 C725 1.377 . S
C725 H709 0.930 . S
C725 C724 1.377 . S
C725 C726 1.379 . S
C726 H710 0.931 . S
C726 C720 1.383 . S
C726 C725 1.379 . S
H727 C721 0.959 . S
H728 C721 0.961 . S
H729 C721 0.960 . S
H730 C722 0.930 . S
H731 C723 0.929 . S
H732 C740 0.929 . S
H733 C742 0.930 . S
H734 C744 0.930 1_455 S
H735 C747 0.929 . S
H736 C750 0.930 . S
H737 C752 0.960 . S
H738 C752 0.960 1_655 S
H739 C752 0.960 . S
C740 H732 0.929 . S
C740 C741 1.377 . S
C740 C742 1.384 . S
C741 C740 1.377 . S
C741 C747 1.390 . S
C742 H733 0.930 . S
C742 C740 1.384 . S
C742 C743 1.372 . S
C743 C742 1.372 . S
C743 C744 1.400 . S
C743 C748 1.490 . S
C744 H734 0.930 1_655 S
C744 C743 1.400 . S
C744 C747 1.386 . S
H745 C761 0.930 . S
H746 C762 0.931 . S
C747 H735 0.929 . S
C747 C741 1.390 . S
C747 C744 1.386 . S
C748 C743 1.490 . S
C748 C750 1.395 . S
C748 C751 1.403 1_655 S
H749 C755 0.930 . S
C750 H736 0.930 . S
C750 C748 1.395 . S
C750 C753 1.403 . S
C751 C748 1.403 1_455 S
C751 C752 1.524 . S
C751 C755 1.400 . S
C752 H737 0.960 . S
C752 H738 0.960 1_455 S
C752 H739 0.960 . S
C752 C751 1.524 . S
C753 C750 1.403 . S
C753 C754 1.392 1_655 S
C753 C757 1.495 . S
C754 C753 1.392 1_455 S
C754 C755 1.385 . S
C754 C756 1.478 . S
C755 H749 0.930 . S
C755 C751 1.400 . S
C755 C754 1.385 . S
C756 C754 1.478 . S
C756 C758 1.381 . S
C756 C762 1.383 . S
C757 C753 1.495 . S
C757 H763 0.959 . S
C757 H764 0.961 . S
C757 H765 0.960 . S
C758 C756 1.381 . S
C758 C759 1.394 . S
C758 H766 0.930 1_455 S
C759 C758 1.394 . S
C759 C760 1.383 . S
C759 H767 0.929 . S
C760 C759 1.383 . S
C760 C761 1.377 . S
C761 H745 0.930 . S
C761 C760 1.377 . S
C761 C762 1.379 . S
C762 H746 0.931 . S
C762 C756 1.383 . S
C762 C761 1.379 . S
H763 C757 0.959 . S
H764 C757 0.961 . S
H765 C757 0.960 . S
H766 C758 0.930 1_655 S
H767 C759 0.929 . S
H768 C776 0.929 . S
H769 C778 0.930 . S
H770 C780 0.930 . S
H771 C783 0.929 . S
H772 C786 0.930 . S
H773 C788 0.960 . S
H774 C788 0.960 . S
H775 C788 0.960 . S
C776 H768 0.929 . S
C776 C777 1.377 . S
C776 C778 1.384 . S
C777 C776 1.377 . S
C777 C783 1.390 . S
C778 H769 0.930 . S
C778 C776 1.384 . S
C778 C779 1.372 . S
C779 C778 1.372 . S
C779 C780 1.400 . S
C779 C784 1.490 . S
C780 H770 0.930 . S
C780 C779 1.400 . S
C780 C783 1.386 . S
H781 C797 0.930 . S
H782 C798 0.931 . S
C783 H771 0.929 . S
C783 C777 1.390 . S
C783 C780 1.386 . S
C784 C779 1.490 . S
C784 C786 1.395 . S
C784 C787 1.403 1_545 S
H785 C791 0.930 . S
C786 H772 0.930 . S
C786 C784 1.395 . S
C786 C789 1.403 . S
C787 C784 1.403 1_565 S
C787 C788 1.524 . S
C787 C791 1.400 . S
C788 H773 0.960 . S
C788 H774 0.960 . S
C788 H775 0.960 . S
C788 C787 1.524 . S
C789 C786 1.403 . S
C789 C790 1.392 1_545 S
C789 C793 1.495 . S
C790 C789 1.392 1_565 S
C790 C791 1.385 . S
C790 C792 1.478 . S
C791 H785 0.930 . S
C791 C787 1.400 . S
C791 C790 1.385 . S
C792 C790 1.478 . S
C792 C794 1.381 . S
C792 C798 1.383 . S
C793 C789 1.495 . S
C793 H799 0.959 . S
C793 H800 0.961 . S
C793 H801 0.960 . S
C794 C792 1.381 . S
C794 C795 1.394 . S
C794 H802 0.930 . S
C795 C794 1.394 . S
C795 C796 1.383 . S
C795 H803 0.929 . S
C796 C795 1.383 . S
C796 C797 1.377 . S
C797 H781 0.930 . S
C797 C796 1.377 . S
C797 C798 1.379 . S
C798 H782 0.931 . S
C798 C792 1.383 . S
C798 C797 1.379 . S
H799 C793 0.959 . S
H800 C793 0.961 . S
H801 C793 0.960 . S
H802 C794 0.930 . S
H803 C795 0.929 . S
H804 C812 0.929 . S
H805 C814 0.930 . S
H806 C816 0.930 . S
H807 C819 0.929 . S
H808 C822 0.930 . S
H809 C824 0.960 . S
H810 C824 0.960 . S
H811 C824 0.960 . S
C812 H804 0.929 . S
C812 C813 1.377 . S
C812 C814 1.384 . S
C813 C812 1.377 . S
C813 C819 1.390 . S
C814 H805 0.930 . S
C814 C812 1.384 . S
C814 C815 1.372 . S
C815 C814 1.372 . S
C815 C816 1.400 . S
C815 C820 1.490 . S
C816 H806 0.930 . S
C816 C815 1.400 . S
C816 C819 1.386 . S
H817 C833 0.930 . S
H818 C834 0.931 . S
C819 H807 0.929 . S
C819 C813 1.390 . S
C819 C816 1.386 . S
C820 C815 1.490 . S
C820 C822 1.395 . S
C820 C823 1.403 . S
H821 C827 0.930 . S
C822 H808 0.930 . S
C822 C820 1.395 . S
C822 C825 1.403 . S
C823 C820 1.403 . S
C823 C824 1.524 . S
C823 C827 1.400 . S
C824 H809 0.960 . S
C824 H810 0.960 . S
C824 H811 0.960 . S
C824 C823 1.524 . S
C825 C822 1.403 . S
C825 C826 1.392 . S
C825 C829 1.495 . S
C826 C825 1.392 . S
C826 C827 1.385 . S
C826 C828 1.478 . S
C827 H821 0.930 . S
C827 C823 1.400 . S
C827 C826 1.385 . S
C828 C826 1.478 . S
C828 C830 1.381 . S
C828 C834 1.383 . S
C829 C825 1.495 . S
C829 H835 0.959 . S
C829 H836 0.961 . S
C829 H837 0.960 . S
C830 C828 1.381 . S
C830 C831 1.394 . S
C830 H838 0.930 . S
C831 C830 1.394 . S
C831 C832 1.383 . S
C831 H839 0.929 . S
C832 C831 1.383 . S
C832 C833 1.377 . S
C833 H817 0.930 . S
C833 C832 1.377 . S
C833 C834 1.379 . S
C834 H818 0.931 . S
C834 C828 1.383 . S
C834 C833 1.379 . S
H835 C829 0.959 . S
H836 C829 0.961 . S
H837 C829 0.960 . S
H838 C830 0.930 . S
H839 C831 0.929 . S
H840 C848 0.929 . S
H841 C850 0.930 . S
H842 C852 0.930 . S
H843 C855 0.929 . S
H844 C858 0.930 . S
H845 C860 0.960 . S
H846 C860 0.960 . S
H847 C860 0.960 . S
C848 H840 0.929 . S
C848 C849 1.377 . S
C848 C850 1.384 . S
C849 C848 1.377 . S
C849 C855 1.390 . S
C850 H841 0.930 . S
C850 C848 1.384 . S
C850 C851 1.372 . S
C851 C850 1.372 . S
C851 C852 1.400 . S
C851 C856 1.490 . S
C852 H842 0.930 . S
C852 C851 1.400 . S
C852 C855 1.386 . S
H853 C869 0.930 . S
H854 C870 0.931 . S
C855 H843 0.929 . S
C855 C849 1.390 . S
C855 C852 1.386 . S
C856 C851 1.490 . S
C856 C858 1.395 . S
C856 C859 1.403 1_655 S
H857 C863 0.930 . S
C858 H844 0.930 . S
C858 C856 1.395 . S
C858 C861 1.403 . S
C859 C856 1.403 1_455 S
C859 C860 1.524 . S
C859 C863 1.400 . S
C860 H845 0.960 . S
C860 H846 0.960 . S
C860 H847 0.960 . S
C860 C859 1.524 . S
C861 C858 1.403 . S
C861 C862 1.392 1_655 S
C861 C865 1.495 . S
C862 C861 1.392 1_455 S
C862 C863 1.385 . S
C862 C864 1.478 . S
C863 H857 0.930 . S
C863 C859 1.400 . S
C863 C862 1.385 . S
C864 C862 1.478 . S
C864 C866 1.381 . S
C864 C870 1.383 . S
C865 C861 1.495 . S
C865 H871 0.959 . S
C865 H872 0.961 . S
C865 H873 0.960 . S
C866 C864 1.381 . S
C866 C867 1.394 . S
C866 H874 0.930 . S
C867 C866 1.394 . S
C867 C868 1.383 . S
C867 H875 0.929 . S
C868 C867 1.383 . S
C868 C869 1.377 . S
C869 H853 0.930 . S
C869 C868 1.377 . S
C869 C870 1.379 . S
C870 H854 0.931 . S
C870 C864 1.383 . S
C870 C869 1.379 . S
H871 C865 0.959 . S
H872 C865 0.961 . S
H873 C865 0.960 . S
H874 C866 0.930 . S
H875 C867 0.929 . S
H876 C884 0.929 . S
H877 C886 0.930 . S
H878 C888 0.931 1_565 S
H879 C891 0.929 . S
H880 C894 0.930 . S
H881 C896 0.960 . S
H882 C896 0.960 . S
H883 C896 0.960 . S
C884 H876 0.929 . S
C884 C885 1.377 . S
C884 C886 1.384 . S
C885 C884 1.377 . S
C885 C891 1.390 . S
C886 H877 0.930 . S
C886 C884 1.384 . S
C886 C887 1.372 . S
C887 C886 1.372 . S
C887 C888 1.400 . S
C887 C892 1.490 . S
C888 H878 0.931 1_545 S
C888 C887 1.400 . S
C888 C891 1.386 . S
H889 C905 0.930 . S
H890 C906 0.931 . S
C891 H879 0.929 . S
C891 C885 1.390 . S
C891 C888 1.386 . S
C892 C887 1.490 . S
C892 C894 1.395 . S
C892 C895 1.403 . S
H893 C899 0.930 . S
C894 H880 0.930 . S
C894 C892 1.395 . S
C894 C897 1.403 1_545 S
C895 C892 1.403 . S
C895 C896 1.524 . S
C895 C899 1.400 1_545 S
C896 H881 0.960 . S
C896 H882 0.960 . S
C896 H883 0.960 . S
C896 C895 1.524 . S
C897 C894 1.403 1_565 S
C897 C898 1.392 . S
C897 C901 1.495 . S
C898 C897 1.392 . S
C898 C899 1.385 . S
C898 C900 1.478 . S
C899 H893 0.930 . S
C899 C895 1.400 1_565 S
C899 C898 1.385 . S
C900 C898 1.478 . S
C900 C902 1.381 . S
C900 C906 1.383 . S
C901 C897 1.495 . S
C901 H907 0.959 . S
C901 H908 0.961 . S
C901 H909 0.960 . S
C902 C900 1.381 . S
C902 C903 1.394 . S
C902 H910 0.930 1_565 S
C903 C902 1.394 . S
C903 C904 1.383 . S
C903 H911 0.929 . S
C904 C903 1.383 . S
C904 C905 1.377 . S
C905 H889 0.930 . S
C905 C904 1.377 . S
C905 C906 1.379 . S
C906 H890 0.931 . S
C906 C900 1.383 . S
C906 C905 1.379 . S
H907 C901 0.959 . S
H908 C901 0.961 . S
H909 C901 0.960 . S
H910 C902 0.930 1_545 S
H911 C903 0.929 . S
H912 C920 0.929 . S
H913 C922 0.930 . S
H914 C924 0.930 . S
H915 C927 0.929 . S
H916 C930 0.930 . S
H917 C932 0.960 . S
H918 C932 0.960 . S
H919 C932 0.960 . S
C920 H912 0.929 . S
C920 C921 1.377 . S
C920 C922 1.384 . S
C921 C920 1.377 . S
C921 C927 1.390 . S
C922 H913 0.930 . S
C922 C920 1.384 . S
C922 C923 1.372 . S
C923 C922 1.372 . S
C923 C924 1.400 . S
C923 C928 1.490 . S
C924 H914 0.930 . S
C924 C923 1.400 . S
C924 C927 1.386 . S
H925 C941 0.930 . S
H926 C942 0.931 . S
C927 H915 0.929 . S
C927 C921 1.390 . S
C927 C924 1.386 . S
C928 C923 1.490 . S
C928 C930 1.395 . S
C928 C931 1.403 . S
H929 C935 0.930 . S
C930 H916 0.930 . S
C930 C928 1.395 . S
C930 C933 1.403 . S
C931 C928 1.403 . S
C931 C932 1.524 . S
C931 C935 1.400 . S
C932 H917 0.960 . S
C932 H918 0.960 . S
C932 H919 0.960 . S
C932 C931 1.524 . S
C933 C930 1.403 . S
C933 C934 1.392 . S
C933 C937 1.495 . S
C934 C933 1.392 . S
C934 C935 1.385 . S
C934 C936 1.478 . S
C935 H929 0.930 . S
C935 C931 1.400 . S
C935 C934 1.385 . S
C936 C934 1.478 . S
C936 C938 1.381 . S
C936 C942 1.383 . S
C937 C933 1.495 . S
C937 H943 0.959 . S
C937 H944 0.961 . S
C937 H945 0.960 . S
C938 C936 1.381 . S
C938 C939 1.394 . S
C938 H946 0.930 . S
C939 C938 1.394 . S
C939 C940 1.383 . S
C939 H947 0.929 . S
C940 C939 1.383 . S
C940 C941 1.377 . S
C941 H925 0.930 . S
C941 C940 1.377 . S
C941 C942 1.379 . S
C942 H926 0.931 . S
C942 C936 1.383 . S
C942 C941 1.379 . S
H943 C937 0.959 . S
H944 C937 0.961 . S
H945 C937 0.960 . S
H946 C938 0.930 . S
H947 C939 0.929 . S
H948 C956 0.929 . S
H949 C958 0.930 1_455 S
H950 C960 0.930 . S
H951 C963 0.929 . S
H952 C966 0.930 . S
H953 C968 0.960 . S
H954 C968 0.960 . S
H955 C968 0.960 . S
C956 H948 0.929 . S
C956 C957 1.377 . S
C956 C958 1.384 . S
C957 C956 1.377 . S
C957 C963 1.390 . S
C958 H949 0.930 1_655 S
C958 C956 1.384 . S
C958 C959 1.372 . S
C959 C958 1.372 . S
C959 C960 1.400 . S
C959 C964 1.490 . S
C960 H950 0.930 . S
C960 C959 1.400 . S
C960 C963 1.386 . S
H961 C977 0.930 . S
H962 C978 0.931 1_655 S
C963 H951 0.929 . S
C963 C957 1.390 . S
C963 C960 1.386 . S
C964 C959 1.490 . S
C964 C966 1.395 1_655 S
C964 C967 1.403 . S
H965 C971 0.930 . S
C966 H952 0.930 . S
C966 C964 1.395 1_455 S
C966 C969 1.403 . S
C967 C964 1.403 . S
C967 C968 1.524 . S
C967 C971 1.400 . S
C968 H953 0.960 . S
C968 H954 0.960 . S
C968 H955 0.960 . S
C968 C967 1.524 . S
C969 C966 1.403 . S
C969 C970 1.392 . S
C969 C973 1.495 . S
C970 C969 1.392 . S
C970 C971 1.385 1_455 S
C970 C972 1.478 . S
C971 H965 0.930 . S
C971 C967 1.400 . S
C971 C970 1.385 1_655 S
C972 C970 1.478 . S
C972 C974 1.381 . S
C972 C978 1.383 . S
C973 C969 1.495 . S
C973 H979 0.959 . S
C973 H980 0.961 . S
C973 H981 0.960 . S
C974 C972 1.381 . S
C974 C975 1.394 . S
C974 H982 0.930 . S
C975 C974 1.394 . S
C975 C976 1.383 . S
C975 H983 0.929 . S
C976 C975 1.383 . S
C976 C977 1.377 . S
C977 H961 0.930 . S
C977 C976 1.377 . S
C977 C978 1.379 . S
C978 H962 0.931 1_455 S
C978 C972 1.383 . S
C978 C977 1.379 . S
H979 C973 0.959 . S
H980 C973 0.961 . S
H981 C973 0.960 . S
H982 C974 0.930 . S
H983 C975 0.929 . S
H984 C992 0.929 . S
H985 C994 0.930 . S
H986 C996 0.930 . S
H987 C999 0.929 . S
H988 C1002 0.930 . S
H989 C1004 0.960 . S
H990 C1004 0.960 . S
H991 C1004 0.960 . S
C992 H984 0.929 . S
C992 C993 1.377 . S
C992 C994 1.384 . S
C993 C992 1.377 . S
C993 C999 1.390 . S
C994 H985 0.930 . S
C994 C992 1.384 . S
C994 C995 1.372 . S
C995 C994 1.372 . S
C995 C996 1.400 . S
C995 C1000 1.490 . S
C996 H986 0.930 . S
C996 C995 1.400 . S
C996 C999 1.386 . S
H997 C1013 0.930 . S
H998 C1014 0.931 . S
C999 H987 0.929 . S
C999 C993 1.390 . S
C999 C996 1.386 . S
C1000 C995 1.490 . S
C1000 C1002 1.395 1_565 S
C1000 C1003 1.403 . S
H1001 C1007 0.930 . S
C1002 H988 0.930 . S
C1002 C1000 1.395 1_545 S
C1002 C1005 1.403 . S
C1003 C1000 1.403 . S
C1003 C1004 1.524 . S
C1003 C1007 1.400 . S
C1004 H989 0.960 . S
C1004 H990 0.960 . S
C1004 H991 0.960 . S
C1004 C1003 1.524 . S
C1005 C1002 1.403 . S
C1005 C1006 1.392 . S
C1005 C1009 1.495 . S
C1006 C1005 1.392 . S
C1006 C1007 1.385 1_545 S
C1006 C1008 1.478 . S
C1007 H1001 0.930 . S
C1007 C1003 1.400 . S
C1007 C1006 1.385 1_565 S
C1008 C1006 1.478 . S
C1008 C1010 1.381 . S
C1008 C1014 1.383 . S
C1009 C1005 1.495 . S
C1009 H1015 0.959 . S
C1009 H1016 0.961 . S
C1009 H1017 0.960 . S
C1010 C1008 1.381 . S
C1010 C1011 1.394 . S
C1010 H1018 0.930 . S
C1011 C1010 1.394 . S
C1011 C1012 1.383 . S
C1011 H1019 0.929 . S
C1012 C1011 1.383 . S
C1012 C1013 1.377 . S
C1013 H997 0.930 . S
C1013 C1012 1.377 . S
C1013 C1014 1.379 . S
C1014 H998 0.931 . S
C1014 C1008 1.383 . S
C1014 C1013 1.379 . S
H1015 C1009 0.959 . S
H1016 C1009 0.961 . S
H1017 C1009 0.960 . S
H1018 C1010 0.930 . S
H1019 C1011 0.929 . S
H1020 C1028 0.929 . S
H1021 C1030 0.930 . S
H1022 C1032 0.930 . S
H1023 C1035 0.929 . S
H1024 C1038 0.930 . S
H1025 C1040 0.960 . S
H1026 C1040 0.960 . S
H1027 C1040 0.960 . S
C1028 H1020 0.929 . S
C1028 C1029 1.377 . S
C1028 C1030 1.384 . S
C1029 C1028 1.377 . S
C1029 C1035 1.390 . S
C1030 H1021 0.930 . S
C1030 C1028 1.384 . S
C1030 C1031 1.372 . S
C1031 C1030 1.372 . S
C1031 C1032 1.400 . S
C1031 C1036 1.490 . S
C1032 H1022 0.930 . S
C1032 C1031 1.400 . S
C1032 C1035 1.386 . S
H1033 C1049 0.930 . S
H1034 C1050 0.931 . S
C1035 H1023 0.929 . S
C1035 C1029 1.390 . S
C1035 C1032 1.386 . S
C1036 C1031 1.490 . S
C1036 C1038 1.395 . S
C1036 C1039 1.403 . S
H1037 C1043 0.930 . S
C1038 H1024 0.930 . S
C1038 C1036 1.395 . S
C1038 C1041 1.403 . S
C1039 C1036 1.403 . S
C1039 C1040 1.524 . S
C1039 C1043 1.400 . S
C1040 H1025 0.960 . S
C1040 H1026 0.960 . S
C1040 H1027 0.960 . S
C1040 C1039 1.524 . S
C1041 C1038 1.403 . S
C1041 C1042 1.392 . S
C1041 C1045 1.495 . S
C1042 C1041 1.392 . S
C1042 C1043 1.385 . S
C1042 C1044 1.478 . S
C1043 H1037 0.930 . S
C1043 C1039 1.400 . S
C1043 C1042 1.385 . S
C1044 C1042 1.478 . S
C1044 C1046 1.381 . S
C1044 C1050 1.383 . S
C1045 C1041 1.495 . S
C1045 H1051 0.959 . S
C1045 H1052 0.961 . S
C1045 H1053 0.960 . S
C1046 C1044 1.381 . S
C1046 C1047 1.394 . S
C1046 H1054 0.930 . S
C1047 C1046 1.394 . S
C1047 C1048 1.383 . S
C1047 H1055 0.929 . S
C1048 C1047 1.383 . S
C1048 C1049 1.377 . S
C1049 H1033 0.930 . S
C1049 C1048 1.377 . S
C1049 C1050 1.379 . S
C1050 H1034 0.931 . S
C1050 C1044 1.383 . S
C1050 C1049 1.379 . S
H1051 C1045 0.959 . S
H1052 C1045 0.961 . S
H1053 C1045 0.960 . S
H1054 C1046 0.930 . S
H1055 C1047 0.929 . S
H1056 C1064 0.929 . S
H1057 C1066 0.930 1_655 S
H1058 C1068 0.930 . S
H1059 C1071 0.929 . S
H1060 C1074 0.930 . S
H1061 C1076 0.960 . S
H1062 C1076 0.955 1_655 S
H1063 C1076 0.960 . S
C1064 H1056 0.929 . S
C1064 C1065 1.377 . S
C1064 C1066 1.384 . S
C1065 C1064 1.377 . S
C1065 C1071 1.390 . S
C1066 H1057 0.930 1_455 S
C1066 C1064 1.384 . S
C1066 C1067 1.372 . S
C1067 C1066 1.372 . S
C1067 C1068 1.400 . S
C1067 C1072 1.490 . S
C1068 H1058 0.930 . S
C1068 C1067 1.400 . S
C1068 C1071 1.386 . S
H1069 C1085 0.930 . S
H1070 C1086 0.931 1_455 S
C1071 H1059 0.929 . S
C1071 C1065 1.390 . S
C1071 C1068 1.386 . S
C1072 C1067 1.490 . S
C1072 C1074 1.395 . S
C1072 C1075 1.403 . S
H1073 C1079 0.930 . S
C1074 H1060 0.930 . S
C1074 C1072 1.395 . S
C1074 C1077 1.403 1_455 S
C1075 C1072 1.403 . S
C1075 C1076 1.524 . S
C1075 C1079 1.400 1_455 S
C1076 H1061 0.960 . S
C1076 H1062 0.955 1_455 S
C1076 H1063 0.960 . S
C1076 C1075 1.524 . S
C1077 C1074 1.403 1_655 S
C1077 C1078 1.392 . S
C1077 C1081 1.495 . S
C1078 C1077 1.392 . S
C1078 C1079 1.385 . S
C1078 C1080 1.478 . S
C1079 H1073 0.930 . S
C1079 C1075 1.400 1_655 S
C1079 C1078 1.385 . S
C1080 C1078 1.478 . S
C1080 C1082 1.381 . S
C1080 C1086 1.383 . S
C1081 C1077 1.495 . S
C1081 H1087 0.959 . S
C1081 H1088 0.961 . S
C1081 H1089 0.960 . S
C1082 C1080 1.381 . S
C1082 C1083 1.394 . S
C1082 H1090 0.930 . S
C1083 C1082 1.394 . S
C1083 C1084 1.383 . S
C1083 H1091 0.929 . S
C1084 C1083 1.383 . S
C1084 C1085 1.377 . S
C1085 H1069 0.930 . S
C1085 C1084 1.377 . S
C1085 C1086 1.379 . S
C1086 H1070 0.931 1_655 S
C1086 C1080 1.383 . S
C1086 C1085 1.379 . S
H1087 C1081 0.959 . S
H1088 C1081 0.961 . S
H1089 C1081 0.960 . S
H1090 C1082 0.930 . S
H1091 C1083 0.929 . S
H1092 C1100 0.929 . S
H1093 C1102 0.930 1_545 S
H1094 C1104 0.930 . S
H1095 C1107 0.929 . S
H1096 C1110 0.930 . S
H1097 C1112 0.960 . S
H1098 C1112 0.960 . S
H1099 C1112 0.960 . S
C1100 H1092 0.929 . S
C1100 C1101 1.377 . S
C1100 C1102 1.384 . S
C1101 C1100 1.377 . S
C1101 C1107 1.390 . S
C1102 H1093 0.930 1_565 S
C1102 C1100 1.384 . S
C1102 C1103 1.372 . S
C1103 C1102 1.372 . S
C1103 C1104 1.400 . S
C1103 C1108 1.490 . S
C1104 H1094 0.930 . S
C1104 C1103 1.400 . S
C1104 C1107 1.386 . S
H1105 C1121 0.930 . S
H1106 C1122 0.938 . S
C1107 H1095 0.929 . S
C1107 C1101 1.390 . S
C1107 C1104 1.386 . S
C1108 C1103 1.490 . S
C1108 C1110 1.395 1_565 S
C1108 C1111 1.403 . S
H1109 C1115 0.930 . S
C1110 H1096 0.930 . S
C1110 C1108 1.395 1_545 S
C1110 C1113 1.403 . S
C1111 C1108 1.403 . S
C1111 C1112 1.524 . S
C1111 C1115 1.400 . S
C1112 H1097 0.960 . S
C1112 H1098 0.960 . S
C1112 H1099 0.960 . S
C1112 C1111 1.524 . S
C1113 C1110 1.403 . S
C1113 C1114 1.392 . S
C1113 C1117 1.495 . S
C1114 C1113 1.392 . S
C1114 C1115 1.385 1_545 S
C1114 C1116 1.478 . S
C1115 H1109 0.930 . S
C1115 C1111 1.400 . S
C1115 C1114 1.385 1_565 S
C1116 C1114 1.478 . S
C1116 C1118 1.381 . S
C1116 C1122 1.383 . S
C1117 C1113 1.495 . S
C1117 H1123 0.959 . S
C1117 H1124 0.961 . S
C1117 H1125 0.960 . S
C1118 C1116 1.381 . S
C1118 C1119 1.394 . S
C1118 H1126 0.930 . S
C1119 C1118 1.394 . S
C1119 C1120 1.383 . S
C1119 H1127 0.929 . S
C1120 C1119 1.383 . S
C1120 C1121 1.377 . S
C1121 H1105 0.930 . S
C1121 C1120 1.377 . S
C1121 C1122 1.379 . S
C1122 H1106 0.938 . S
C1122 C1116 1.383 . S
C1122 C1121 1.379 . S
H1123 C1117 0.959 . S
H1124 C1117 0.961 . S
H1125 C1117 0.960 . S
H1126 C1118 0.930 . S
H1127 C1119 0.929 . S
H1128 C1136 0.929 1_565 S
H1129 C1138 0.930 . S
H1130 C1140 0.930 . S
H1131 C1143 0.929 . S
H1132 C1146 0.930 . S
H1133 C1148 0.960 . S
H1134 C1148 0.960 . S
H1135 C1148 0.960 . S
C1136 H1128 0.929 1_545 S
C1136 C1137 1.375 . S
C1136 C1138 1.384 . S
C1137 C1136 1.375 . S
C1137 C1143 1.401 . S
C1138 H1129 0.930 . S
C1138 C1136 1.384 . S
C1138 C1139 1.372 . S
C1139 C1138 1.372 . S
C1139 C1140 1.400 . S
C1139 C1144 1.490 . S
C1140 H1130 0.930 . S
C1140 C1139 1.400 . S
C1140 C1143 1.386 . S
H1141 C1157 0.930 . S
H1142 C1158 0.931 . S
C1143 H1131 0.929 . S
C1143 C1137 1.401 . S
C1143 C1140 1.386 . S
C1144 C1139 1.490 . S
C1144 C1146 1.395 . S
C1144 C1147 1.403 . S
H1145 C1151 0.930 . S
C1146 H1132 0.930 . S
C1146 C1144 1.395 . S
C1146 C1149 1.403 . S
C1147 C1144 1.403 . S
C1147 C1148 1.524 . S
C1147 C1151 1.400 . S
C1148 H1133 0.960 . S
C1148 H1134 0.960 . S
C1148 H1135 0.960 . S
C1148 C1147 1.524 . S
C1149 C1146 1.403 . S
C1149 C1150 1.392 . S
C1149 C1153 1.495 . S
C1150 C1149 1.392 . S
C1150 C1151 1.385 . S
C1150 C1152 1.478 . S
C1151 H1145 0.930 . S
C1151 C1147 1.400 . S
C1151 C1150 1.385 . S
C1152 C1150 1.478 . S
C1152 C1154 1.381 . S
C1152 C1158 1.383 . S
C1153 C1149 1.495 . S
C1153 H1159 0.959 . S
C1153 H1160 0.961 . S
C1153 H1161 0.960 . S
C1154 C1152 1.381 . S
C1154 C1155 1.394 . S
C1154 H1162 0.930 . S
C1155 C1154 1.394 . S
C1155 C1156 1.383 . S
C1155 H1163 0.929 . S
C1156 C1155 1.383 . S
C1156 C1157 1.377 . S
C1157 H1141 0.930 . S
C1157 C1156 1.377 . S
C1157 C1158 1.379 . S
C1158 H1142 0.931 . S
C1158 C1152 1.383 . S
C1158 C1157 1.379 . S
H1159 C1153 0.959 . S
H1160 C1153 0.961 . S
H1161 C1153 0.960 . S
H1162 C1154 0.930 . S
H1163 C1155 0.929 . S
H1164 C1172 0.929 . S
H1165 C1174 0.931 1_655 S
H1166 C1176 0.930 . S
H1167 C1179 0.929 . S
H1168 C1182 0.930 . S
H1169 C1184 0.960 . S
H1170 C1184 0.960 . S
H1171 C1184 0.960 . S
C1172 H1164 0.929 . S
C1172 C1173 1.377 . S
C1172 C1174 1.384 1_655 S
C1173 C1172 1.377 . S
C1173 C1179 1.385 1_655 S
C1174 H1165 0.931 1_455 S
C1174 C1172 1.384 1_455 S
C1174 C1175 1.372 . S
C1175 C1174 1.372 . S
C1175 C1176 1.400 . S
C1175 C1180 1.490 . S
C1176 H1166 0.930 . S
C1176 C1175 1.400 . S
C1176 C1179 1.386 . S
H1177 C1193 0.930 . S
H1178 C1194 0.931 . S
C1179 H1167 0.929 . S
C1179 C1173 1.385 1_455 S
C1179 C1176 1.386 . S
C1180 C1175 1.490 . S
C1180 C1182 1.395 . S
C1180 C1183 1.403 . S
H1181 C1187 0.930 . S
C1182 H1168 0.930 . S
C1182 C1180 1.395 . S
C1182 C1185 1.403 . S
C1183 C1180 1.403 . S
C1183 C1184 1.524 . S
C1183 C1187 1.400 . S
C1184 H1169 0.960 . S
C1184 H1170 0.960 . S
C1184 H1171 0.960 . S
C1184 C1183 1.524 . S
C1185 C1182 1.403 . S
C1185 C1186 1.392 . S
C1185 C1189 1.495 . S
C1186 C1185 1.392 . S
C1186 C1187 1.385 . S
C1186 C1188 1.478 . S
C1187 H1181 0.930 . S
C1187 C1183 1.400 . S
C1187 C1186 1.385 . S
C1188 C1186 1.478 . S
C1188 C1190 1.381 . S
C1188 C1194 1.383 . S
C1189 C1185 1.495 . S
C1189 H1195 0.959 . S
C1189 H1196 0.961 . S
C1189 H1197 0.960 . S
C1190 C1188 1.381 . S
C1190 C1191 1.394 . S
C1190 H1198 0.930 . S
C1191 C1190 1.394 . S
C1191 C1192 1.383 . S
C1191 H1199 0.929 . S
C1192 C1191 1.383 . S
C1192 C1193 1.377 . S
C1193 H1177 0.930 . S
C1193 C1192 1.377 . S
C1193 C1194 1.379 . S
C1194 H1178 0.931 . S
C1194 C1188 1.383 . S
C1194 C1193 1.379 . S
H1195 C1189 0.959 . S
H1196 C1189 0.961 . S
H1197 C1189 0.960 . S
H1198 C1190 0.930 . S
H1199 C1191 0.929 . S
H1200 C1208 0.929 . S
H1201 C1210 0.930 . S
H1202 C1212 0.930 . S
H1203 C1215 0.929 . S
H1204 C1218 0.930 . S
H1205 C1220 0.960 . S
H1206 C1220 0.960 . S
H1207 C1220 0.960 . S
C1208 H1200 0.929 . S
C1208 C1209 1.378 . S
C1208 C1210 1.384 . S
C1209 C1208 1.378 . S
C1209 C1215 1.390 1_545 S
C1210 H1201 0.930 . S
C1210 C1208 1.384 . S
C1210 C1211 1.372 . S
C1211 C1210 1.372 . S
C1211 C1212 1.400 . S
C1211 C1216 1.490 . S
C1212 H1202 0.930 . S
C1212 C1211 1.400 . S
C1212 C1215 1.386 1_545 S
H1213 C1229 0.930 . S
H1214 C1230 0.931 . S
C1215 H1203 0.929 . S
C1215 C1209 1.390 1_565 S
C1215 C1212 1.386 1_565 S
C1216 C1211 1.490 . S
C1216 C1218 1.395 . S
C1216 C1219 1.403 . S
H1217 C1223 0.930 . S
C1218 H1204 0.930 . S
C1218 C1216 1.395 . S
C1218 C1221 1.403 . S
C1219 C1216 1.403 . S
C1219 C1220 1.524 . S
C1219 C1223 1.400 . S
C1220 H1205 0.960 . S
C1220 H1206 0.960 . S
C1220 H1207 0.960 . S
C1220 C1219 1.524 . S
C1221 C1218 1.403 . S
C1221 C1222 1.392 . S
C1221 C1225 1.495 . S
C1222 C1221 1.392 . S
C1222 C1223 1.385 . S
C1222 C1224 1.478 . S
C1223 H1217 0.930 . S
C1223 C1219 1.400 . S
C1223 C1222 1.385 . S
C1224 C1222 1.478 . S
C1224 C1226 1.381 . S
C1224 C1230 1.383 . S
C1225 C1221 1.495 . S
C1225 H1231 0.959 . S
C1225 H1232 0.961 . S
C1225 H1233 0.960 . S
C1226 C1224 1.381 . S
C1226 C1227 1.394 1_655 S
C1226 H1234 0.935 . S
C1227 C1226 1.394 1_455 S
C1227 C1228 1.381 1_455 S
C1227 H1235 0.929 . S
C1228 C1227 1.381 1_655 S
C1228 C1229 1.382 . S
C1229 H1213 0.930 . S
C1229 C1228 1.382 . S
C1229 C1230 1.379 . S
C1230 H1214 0.931 . S
C1230 C1224 1.383 . S
C1230 C1229 1.379 . S
H1231 C1225 0.959 . S
H1232 C1225 0.961 . S
H1233 C1225 0.960 . S
H1234 C1226 0.935 . S
H1235 C1227 0.929 . S
H1236 C1244 0.929 . S
H1237 C1246 0.930 . S
H1238 C1248 0.930 . S
H1239 C1251 0.929 . S
H1240 C1254 0.930 . S
H1241 C1256 0.960 . S
H1242 C1256 0.960 . S
H1243 C1256 0.960 . S
C1244 H1236 0.929 . S
C1244 C1245 1.377 . S
C1244 C1246 1.384 . S
C1245 C1244 1.377 . S
C1245 C1251 1.390 . S
C1246 H1237 0.930 . S
C1246 C1244 1.384 . S
C1246 C1247 1.372 . S
C1247 C1246 1.372 . S
C1247 C1248 1.400 . S
C1247 C1252 1.490 . S
C1248 H1238 0.930 . S
C1248 C1247 1.400 . S
C1248 C1251 1.386 . S
H1249 C1265 0.930 . S
H1250 C1266 0.931 . S
C1251 H1239 0.929 . S
C1251 C1245 1.390 . S
C1251 C1248 1.386 . S
C1252 C1247 1.490 . S
C1252 C1254 1.395 . S
C1252 C1255 1.403 . S
H1253 C1259 0.930 . S
C1254 H1240 0.930 . S
C1254 C1252 1.395 . S
C1254 C1257 1.403 . S
C1255 C1252 1.403 . S
C1255 C1256 1.524 . S
C1255 C1259 1.400 . S
C1256 H1241 0.960 . S
C1256 H1242 0.960 . S
C1256 H1243 0.960 . S
C1256 C1255 1.524 . S
C1257 C1254 1.403 . S
C1257 C1258 1.392 . S
C1257 C1261 1.495 . S
C1258 C1257 1.392 . S
C1258 C1259 1.385 . S
C1258 C1260 1.478 . S
C1259 H1253 0.930 . S
C1259 C1255 1.400 . S
C1259 C1258 1.385 . S
C1260 C1258 1.478 . S
C1260 C1262 1.381 . S
C1260 C1266 1.383 . S
C1261 C1257 1.495 . S
C1261 H1267 0.959 . S
C1261 H1268 0.961 . S
C1261 H1269 0.960 . S
C1262 C1260 1.381 . S
C1262 C1263 1.394 1_565 S
C1262 H1270 0.930 . S
C1263 C1262 1.394 1_545 S
C1263 C1264 1.383 1_545 S
C1263 H1271 0.929 . S
C1264 C1263 1.383 1_565 S
C1264 C1265 1.377 . S
C1265 H1249 0.930 . S
C1265 C1264 1.377 . S
C1265 C1266 1.379 . S
C1266 H1250 0.931 . S
C1266 C1260 1.383 . S
C1266 C1265 1.379 . S
H1267 C1261 0.959 . S
H1268 C1261 0.961 . S
H1269 C1261 0.960 . S
H1270 C1262 0.930 . S
H1271 C1263 0.929 . S
H1272 C1280 0.929 . S
H1273 C1282 0.930 . S
H1274 C1284 0.930 . S
H1275 C1287 0.929 . S
H1276 C1290 0.930 . S
H1277 C1292 0.960 . S
H1278 C1292 0.960 . S
H1279 C1292 0.960 . S
C1280 H1272 0.929 . S
C1280 C1281 1.390 . S
C1280 C1282 1.384 . S
C1281 C1280 1.390 . S
C1281 C1287 1.389 1_655 S
C1282 H1273 0.930 . S
C1282 C1280 1.384 . S
C1282 C1283 1.372 . S
C1283 C1282 1.372 . S
C1283 C1284 1.400 . S
C1283 C1288 1.490 . S
C1284 H1274 0.930 . S
C1284 C1283 1.400 . S
C1284 C1287 1.386 1_655 S
H1285 C1301 0.930 . S
H1286 C1302 0.931 . S
C1287 H1275 0.929 . S
C1287 C1281 1.389 1_455 S
C1287 C1284 1.386 1_455 S
C1288 C1283 1.490 . S
C1288 C1290 1.395 . S
C1288 C1291 1.403 . S
H1289 C1295 0.930 . S
C1290 H1276 0.930 . S
C1290 C1288 1.395 . S
C1290 C1293 1.403 . S
C1291 C1288 1.403 . S
C1291 C1292 1.524 . S
C1291 C1295 1.400 . S
C1292 H1277 0.960 . S
C1292 H1278 0.960 . S
C1292 H1279 0.960 . S
C1292 C1291 1.524 . S
C1293 C1290 1.403 . S
C1293 C1294 1.392 . S
C1293 C1297 1.495 . S
C1294 C1293 1.392 . S
C1294 C1295 1.385 . S
C1294 C1296 1.478 . S
C1295 H1289 0.930 . S
C1295 C1291 1.400 . S
C1295 C1294 1.385 . S
C1296 C1294 1.478 . S
C1296 C1298 1.381 . S
C1296 C1302 1.383 . S
C1297 C1293 1.495 . S
C1297 H1303 0.959 . S
C1297 H1304 0.961 . S
C1297 H1305 0.960 . S
C1298 C1296 1.381 . S
C1298 C1299 1.394 . S
C1298 H1306 0.930 . S
C1299 C1298 1.394 . S
C1299 C1300 1.383 . S
C1299 H1307 0.929 . S
C1300 C1299 1.383 . S
C1300 C1301 1.377 . S
C1301 H1285 0.930 . S
C1301 C1300 1.377 . S
C1301 C1302 1.379 . S
C1302 H1286 0.931 . S
C1302 C1296 1.383 . S
C1302 C1301 1.379 . S
H1303 C1297 0.959 . S
H1304 C1297 0.961 . S
H1305 C1297 0.960 . S
H1306 C1298 0.930 . S
H1307 C1299 0.929 . S
H1308 C1316 0.929 . S
H1309 C1318 0.930 . S
H1310 C1320 0.930 . S
H1311 C1323 0.929 1_655 S
H1312 C1326 0.930 . S
H1313 C1328 0.960 . S
H1314 C1328 0.960 . S
H1315 C1328 0.960 . S
C1316 H1308 0.929 . S
C1316 C1317 1.396 . S
C1316 C1318 1.384 . S
C1317 C1316 1.396 . S
C1317 C1323 1.380 . S
C1318 H1309 0.930 . S
C1318 C1316 1.384 . S
C1318 C1319 1.372 . S
C1319 C1318 1.372 . S
C1319 C1320 1.400 . S
C1319 C1324 1.490 . S
C1320 H1310 0.930 . S
C1320 C1319 1.400 . S
C1320 C1323 1.386 . S
H1321 C1337 0.930 . S
H1322 C1338 0.931 . S
C1323 H1311 0.929 1_455 S
C1323 C1317 1.380 . S
C1323 C1320 1.386 . S
C1324 C1319 1.490 . S
C1324 C1326 1.395 . S
C1324 C1327 1.403 . S
H1325 C1331 0.930 . S
C1326 H1312 0.930 . S
C1326 C1324 1.395 . S
C1326 C1329 1.403 . S
C1327 C1324 1.403 . S
C1327 C1328 1.524 . S
C1327 C1331 1.400 . S
C1328 H1313 0.960 . S
C1328 H1314 0.960 . S
C1328 H1315 0.960 . S
C1328 C1327 1.524 . S
C1329 C1326 1.403 . S
C1329 C1330 1.392 . S
C1329 C1333 1.495 . S
C1330 C1329 1.392 . S
C1330 C1331 1.385 . S
C1330 C1332 1.478 . S
C1331 H1325 0.930 . S
C1331 C1327 1.400 . S
C1331 C1330 1.385 . S
C1332 C1330 1.478 . S
C1332 C1334 1.381 . S
C1332 C1338 1.383 . S
C1333 C1329 1.495 . S
C1333 H1339 0.959 . S
C1333 H1340 0.961 . S
C1333 H1341 0.960 . S
C1334 C1332 1.381 . S
C1334 C1335 1.394 . S
C1334 H1342 0.930 . S
C1335 C1334 1.394 . S
C1335 C1336 1.383 . S
C1335 H1343 0.929 . S
C1336 C1335 1.383 . S
C1336 C1337 1.377 1_565 S
C1337 H1321 0.930 . S
C1337 C1336 1.377 1_545 S
C1337 C1338 1.379 1_545 S
C1338 H1322 0.931 . S
C1338 C1332 1.383 . S
C1338 C1337 1.379 1_565 S
H1339 C1333 0.959 . S
H1340 C1333 0.961 . S
H1341 C1333 0.960 . S
H1342 C1334 0.930 . S
H1343 C1335 0.929 . S
H1344 C1352 0.929 . S
H1345 C1354 0.930 . S
H1346 C1356 0.930 . S
H1347 C1359 0.929 . S
H1348 C1362 0.930 . S
H1349 C1364 0.960 . S
H1350 C1364 0.960 . S
H1351 C1364 0.960 . S
C1352 H1344 0.929 . S
C1352 C1353 1.377 . S
C1352 C1354 1.384 . S
C1353 C1352 1.377 . S
C1353 C1359 1.390 . S
C1354 H1345 0.930 . S
C1354 C1352 1.384 . S
C1354 C1355 1.372 . S
C1355 C1354 1.372 . S
C1355 C1356 1.400 . S
C1355 C1360 1.490 . S
C1356 H1346 0.930 . S
C1356 C1355 1.400 . S
C1356 C1359 1.386 . S
H1357 C1373 0.930 . S
H1358 C1374 0.931 . S
C1359 H1347 0.929 . S
C1359 C1353 1.390 . S
C1359 C1356 1.386 . S
C1360 C1355 1.490 . S
C1360 C1362 1.395 . S
C1360 C1363 1.403 1_554 S
H1361 C1367 0.930 . S
C1362 H1348 0.930 . S
C1362 C1360 1.395 . S
C1362 C1365 1.403 1_545 S
C1363 C1360 1.403 1_556 S
C1363 C1364 1.524 . S
C1363 C1367 1.400 1_545 S
C1364 H1349 0.960 . S
C1364 H1350 0.960 . S
C1364 H1351 0.960 . S
C1364 C1363 1.524 . S
C1365 C1362 1.403 1_565 S
C1365 C1366 1.358 1_554 S
C1365 C1369 1.495 . S
C1366 C1365 1.358 1_556 S
C1366 C1367 1.411 . S
C1366 C1368 1.487 1_455 S
C1367 H1361 0.930 . S
C1367 C1363 1.400 1_565 S
C1367 C1366 1.411 . S
C1368 C1366 1.487 1_655 S
C1368 C1370 1.381 1_655 S
C1368 C1374 1.383 . S
C1369 C1365 1.495 . S
C1369 H1375 0.959 . S
C1369 H1376 0.961 1_455 S
C1369 H1377 0.960 . S
C1370 C1368 1.381 1_455 S
C1370 C1371 1.394 1_455 S
C1370 H1378 0.935 . S
C1371 C1370 1.394 1_655 S
C1371 C1372 1.383 . S
C1371 H1379 0.929 . S
C1372 C1371 1.383 . S
C1372 C1373 1.377 . S
C1373 H1357 0.930 . S
C1373 C1372 1.377 . S
C1373 C1374 1.379 . S
C1374 H1358 0.931 . S
C1374 C1368 1.383 . S
C1374 C1373 1.379 . S
H1375 C1369 0.959 . S
H1376 C1369 0.961 1_655 S
H1377 C1369 0.960 . S
H1378 C1370 0.935 . S
H1379 C1371 0.929 . S
H1380 C1388 0.929 . S
H1381 C1390 0.930 . S
H1382 C1392 0.930 . S
H1383 C1395 0.929 1_545 S
H1384 C1398 0.930 . S
H1385 C1400 0.960 . S
H1386 C1400 0.960 . S
H1387 C1400 0.960 . S
C1388 H1380 0.929 . S
C1388 C1389 1.377 . S
C1388 C1390 1.384 . S
C1389 C1388 1.377 . S
C1389 C1395 1.390 . S
C1390 H1381 0.930 . S
C1390 C1388 1.384 . S
C1390 C1391 1.372 . S
C1391 C1390 1.372 . S
C1391 C1392 1.400 1_565 S
C1391 C1396 1.490 1_565 S
C1392 H1382 0.930 . S
C1392 C1391 1.400 1_545 S
C1392 C1395 1.386 1_545 S
H1393 C1409 0.930 1_455 S
H1394 C1410 0.931 . S
C1395 H1383 0.929 1_565 S
C1395 C1389 1.390 . S
C1395 C1392 1.386 1_565 S
C1396 C1391 1.490 1_545 S
C1396 C1398 1.395 1_545 S
C1396 C1399 1.403 . S
H1397 C1403 0.930 . S
C1398 H1384 0.930 . S
C1398 C1396 1.395 1_565 S
C1398 C1401 1.403 1_565 S
C1399 C1396 1.403 . S
C1399 C1400 1.524 . S
C1399 C1403 1.400 . S
C1400 H1385 0.960 . S
C1400 H1386 0.960 . S
C1400 H1387 0.960 . S
C1400 C1399 1.524 . S
C1401 C1398 1.403 1_545 S
C1401 C1402 1.392 . S
C1401 C1405 1.495 1_455 S
C1402 C1401 1.392 . S
C1402 C1403 1.385 . S
C1402 C1404 1.478 1_455 S
C1403 H1397 0.930 . S
C1403 C1399 1.400 . S
C1403 C1402 1.385 . S
C1404 C1402 1.478 1_655 S
C1404 C1406 1.381 . S
C1404 C1410 1.383 1_655 S
C1405 C1401 1.495 1_655 S
C1405 H1411 0.962 1_545 S
C1405 H1412 0.959 . S
C1405 H1413 0.959 1_545 S
C1406 C1404 1.381 . S
C1406 C1407 1.394 . S
C1406 H1414 0.930 . S
C1407 C1406 1.394 . S
C1407 C1408 1.383 . S
C1407 H1415 0.929 . S
C1408 C1407 1.383 . S
C1408 C1409 1.377 . S
C1409 H1393 0.930 1_655 S
C1409 C1408 1.377 . S
C1409 C1410 1.379 1_655 S
C1410 H1394 0.931 . S
C1410 C1404 1.383 1_455 S
C1410 C1409 1.379 1_455 S
H1411 C1405 0.962 1_565 S
H1412 C1405 0.959 . S
H1413 C1405 0.959 1_565 S
H1414 C1406 0.930 . S
H1415 C1407 0.929 . S
H1416 C1424 0.929 . S
H1417 C1426 0.930 . S
H1418 C1428 0.930 . S
H1419 C1431 0.929 . S
H1420 C1434 0.930 . S
H1421 C1436 0.960 . S
H1422 C1436 0.960 1_545 S
H1423 C1436 0.960 . S
C1424 H1416 0.929 . S
C1424 C1425 1.377 . S
C1424 C1426 1.384 . S
C1425 C1424 1.377 . S
C1425 C1431 1.390 . S
C1426 H1417 0.930 . S
C1426 C1424 1.384 . S
C1426 C1427 1.372 . S
C1427 C1426 1.372 . S
C1427 C1428 1.400 . S
C1427 C1432 1.490 . S
C1428 H1418 0.930 . S
C1428 C1427 1.400 . S
C1428 C1431 1.386 . S
H1429 C1445 0.930 . S
H1430 C1446 0.931 . S
C1431 H1419 0.929 . S
C1431 C1425 1.390 . S
C1431 C1428 1.386 . S
C1432 C1427 1.490 . S
C1432 C1434 1.395 . S
C1432 C1435 1.403 . S
H1433 C1439 0.930 . S
C1434 H1420 0.930 . S
C1434 C1432 1.395 . S
C1434 C1437 1.403 1_455 S
C1435 C1432 1.403 . S
C1435 C1436 1.524 1_545 S
C1435 C1439 1.400 1_445 S
C1436 H1421 0.960 . S
C1436 H1422 0.960 1_565 S
C1436 H1423 0.960 . S
C1436 C1435 1.524 1_565 S
C1437 C1434 1.403 1_655 S
C1437 C1438 1.392 . S
C1437 C1441 1.495 . S
C1438 C1437 1.392 . S
C1438 C1439 1.385 1_545 S
C1438 C1440 1.478 1_545 S
C1439 H1433 0.930 . S
C1439 C1435 1.400 1_665 S
C1439 C1438 1.385 1_565 S
C1440 C1438 1.478 1_565 S
C1440 C1442 1.381 1_565 S
C1440 C1446 1.383 . S
C1441 C1437 1.495 . S
C1441 H1447 0.959 . S
C1441 H1448 0.961 . S
C1441 H1449 0.960 . S
C1442 C1440 1.381 1_545 S
C1442 C1443 1.394 1_545 S
C1442 H1450 0.930 . S
C1443 C1442 1.394 1_565 S
C1443 C1444 1.383 . S
C1443 H1451 0.929 . S
C1444 C1443 1.383 . S
C1444 C1445 1.377 . S
C1445 H1429 0.930 . S
C1445 C1444 1.377 . S
C1445 C1446 1.379 . S
C1446 H1430 0.931 . S
C1446 C1440 1.383 . S
C1446 C1445 1.379 . S
H1447 C1441 0.959 . S
H1448 C1441 0.961 . S
H1449 C1441 0.960 . S
H1450 C1442 0.930 . S
H1451 C1443 0.929 . S
H1452 C1460 0.931 . S
H1453 C1462 0.930 . S
H1454 C1464 0.930 . S
H1455 C1467 0.929 . S
H1456 C1470 0.930 . S
H1457 C1472 0.960 . S
H1458 C1472 0.960 . S
H1459 C1472 0.960 1_455 S
C1460 H1452 0.931 . S
C1460 C1461 1.377 . S
C1460 C1462 1.384 1_455 S
C1461 C1460 1.377 . S
C1461 C1467 1.390 . S
C1462 H1453 0.930 . S
C1462 C1460 1.384 1_655 S
C1462 C1463 1.372 1_655 S
C1463 C1462 1.372 1_455 S
C1463 C1464 1.400 . S
C1463 C1468 1.490 1_455 S
C1464 H1454 0.930 . S
C1464 C1463 1.400 . S
C1464 C1467 1.386 . S
H1465 C1481 0.930 . S
H1466 C1482 0.931 . S
C1467 H1455 0.929 . S
C1467 C1461 1.390 . S
C1467 C1464 1.386 . S
C1468 C1463 1.490 1_655 S
C1468 C1470 1.395 . S
C1468 C1471 1.403 . S
H1469 C1475 0.930 . S
C1470 H1456 0.930 . S
C1470 C1468 1.395 . S
C1470 C1473 1.403 1_545 S
C1471 C1468 1.403 . S
C1471 C1472 1.524 . S
C1471 C1475 1.400 1_545 S
C1472 H1457 0.960 . S
C1472 H1458 0.960 . S
C1472 H1459 0.960 1_655 S
C1472 C1471 1.524 . S
C1473 C1470 1.403 1_565 S
C1473 C1474 1.392 . S
C1473 C1477 1.495 . S
C1474 C1473 1.392 . S
C1474 C1475 1.385 . S
C1474 C1476 1.478 . S
C1475 H1469 0.930 . S
C1475 C1471 1.400 1_565 S
C1475 C1474 1.385 . S
C1476 C1474 1.478 . S
C1476 C1478 1.381 . S
C1476 C1482 1.383 . S
C1477 C1473 1.495 . S
C1477 H1483 0.959 . S
C1477 H1484 0.961 . S
C1477 H1485 0.960 . S
C1478 C1476 1.381 . S
C1478 C1479 1.394 . S
C1478 H1486 0.930 . S
C1479 C1478 1.394 . S
C1479 C1480 1.383 . S
C1479 H1487 0.929 . S
C1480 C1479 1.383 . S
C1480 C1481 1.377 . S
C1481 H1465 0.930 . S
C1481 C1480 1.377 . S
C1481 C1482 1.379 . S
C1482 H1466 0.931 . S
C1482 C1476 1.383 . S
C1482 C1481 1.379 . S
H1483 C1477 0.959 . S
H1484 C1477 0.961 . S
H1485 C1477 0.960 . S
H1486 C1478 0.930 . S
H1487 C1479 0.929 . S
H1488 C1496 0.929 . S
H1489 C1498 0.930 . S
H1490 C1500 0.930 . S
H1491 C1503 0.929 . S
H1492 C1506 0.930 . S
H1493 C1508 0.960 1_545 S
H1494 C1508 0.960 . S
H1495 C1508 0.959 . S
C1496 H1488 0.929 . S
C1496 C1497 1.377 . S
C1496 C1498 1.384 1_455 S
C1497 C1496 1.377 . S
C1497 C1503 1.390 . S
C1498 H1489 0.930 . S
C1498 C1496 1.384 1_655 S
C1498 C1499 1.372 1_655 S
C1499 C1498 1.372 1_455 S
C1499 C1500 1.400 . S
C1499 C1504 1.490 1_455 S
C1500 H1490 0.930 . S
C1500 C1499 1.400 . S
C1500 C1503 1.386 . S
H1501 C1517 0.930 . S
H1502 C1518 0.931 . S
C1503 H1491 0.929 . S
C1503 C1497 1.390 . S
C1503 C1500 1.386 . S
C1504 C1499 1.490 1_655 S
C1504 C1506 1.395 . S
C1504 C1507 1.403 1_655 S
H1505 C1511 0.930 1_545 S
C1506 H1492 0.930 . S
C1506 C1504 1.395 . S
C1506 C1509 1.403 . S
C1507 C1504 1.403 1_455 S
C1507 C1508 1.524 . S
C1507 C1511 1.400 1_455 S
C1508 H1493 0.960 1_565 S
C1508 H1494 0.960 . S
C1508 H1495 0.959 . S
C1508 C1507 1.524 . S
C1509 C1506 1.403 . S
C1509 C1510 1.392 . S
C1509 C1513 1.495 . S
C1510 C1509 1.392 . S
C1510 C1511 1.385 . S
C1510 C1512 1.478 1_565 S
C1511 H1505 0.930 1_565 S
C1511 C1507 1.400 1_655 S
C1511 C1510 1.385 . S
C1512 C1510 1.478 1_545 S
C1512 C1514 1.381 1_545 S
C1512 C1518 1.383 . S
C1513 C1509 1.495 . S
C1513 H1519 0.959 . S
C1513 H1520 0.961 . S
C1513 H1521 0.960 . S
C1514 C1512 1.381 1_565 S
C1514 C1515 1.394 1_565 S
C1514 H1522 0.930 . S
C1515 C1514 1.394 1_545 S
C1515 C1516 1.383 . S
C1515 H1523 0.929 1_545 S
C1516 C1515 1.383 . S
C1516 C1517 1.377 . S
C1517 H1501 0.930 . S
C1517 C1516 1.377 . S
C1517 C1518 1.379 . S
C1518 H1502 0.931 . S
C1518 C1512 1.383 . S
C1518 C1517 1.379 . S
H1519 C1513 0.959 . S
H1520 C1513 0.961 . S
H1521 C1513 0.960 . S
H1522 C1514 0.930 . S
H1523 C1515 0.929 1_565 S
H1524 C1532 0.929 . S
H1525 C1534 0.930 . S
H1526 C1536 0.930 . S
H1527 C1539 0.929 . S
H1528 C1542 0.930 . S
H1529 C1544 0.960 . S
H1530 C1544 0.960 . S
H1531 C1544 0.960 . S
C1532 H1524 0.929 . S
C1532 C1533 1.377 . S
C1532 C1534 1.384 . S
C1533 C1532 1.377 . S
C1533 C1539 1.390 . S
C1534 H1525 0.930 . S
C1534 C1532 1.384 . S
C1534 C1535 1.372 . S
C1535 C1534 1.372 . S
C1535 C1536 1.400 . S
C1535 C1540 1.490 1_545 S
C1536 H1526 0.930 . S
C1536 C1535 1.400 . S
C1536 C1539 1.386 . S
H1537 C1553 0.930 . S
H1538 C1554 0.931 . S
C1539 H1527 0.929 . S
C1539 C1533 1.390 . S
C1539 C1536 1.386 . S
C1540 C1535 1.490 1_565 S
C1540 C1542 1.395 . S
C1540 C1543 1.403 1_565 S
H1541 C1547 0.930 . S
C1542 H1528 0.930 . S
C1542 C1540 1.395 . S
C1542 C1545 1.403 1_455 S
C1543 C1540 1.403 1_545 S
C1543 C1544 1.524 . S
C1543 C1547 1.400 1_445 S
C1544 H1529 0.960 . S
C1544 H1530 0.960 . S
C1544 H1531 0.960 . S
C1544 C1543 1.524 . S
C1545 C1542 1.403 1_655 S
C1545 C1546 1.392 . S
C1545 C1549 1.495 . S
C1546 C1545 1.392 . S
C1546 C1547 1.385 . S
C1546 C1548 1.478 . S
C1547 H1541 0.930 . S
C1547 C1543 1.400 1_665 S
C1547 C1546 1.385 . S
C1548 C1546 1.478 . S
C1548 C1550 1.381 . S
C1548 C1554 1.383 . S
C1549 C1545 1.495 . S
C1549 H1555 0.959 . S
C1549 H1556 0.961 . S
C1549 H1557 0.960 . S
C1550 C1548 1.381 . S
C1550 C1551 1.394 . S
C1550 H1558 0.930 . S
C1551 C1550 1.394 . S
C1551 C1552 1.383 . S
C1551 H1559 0.929 . S
C1552 C1551 1.383 . S
C1552 C1553 1.377 . S
C1553 H1537 0.930 . S
C1553 C1552 1.377 . S
C1553 C1554 1.379 . S
C1554 H1538 0.931 . S
C1554 C1548 1.383 . S
C1554 C1553 1.379 . S
H1555 C1549 0.959 . S
H1556 C1549 0.961 . S
H1557 C1549 0.960 . S
H1558 C1550 0.930 . S
H1559 C1551 0.929 . S
C273 C163 1.912 . S
C292 C8 1.982 . S
C309 C185 1.913 . S
C328 C26 1.980 . S
C345 C207 1.907 . S
C364 C52 1.978 . S
C381 C229 1.904 . S
C400 C70 1.953 . S
C417 C247 1.910 . S
C436 C96 1.951 . S
C453 C141 1.903 . S
C472 C114 1.952 . S
C489 C140 1.972 . S
C508 C115 1.903 . S
C525 C162 1.965 . S
C544 C9 1.894 . S
C561 C184 1.965 . S
C580 C27 1.887 . S
C597 C206 1.970 . S
C616 C53 1.888 . S
C633 C228 1.966 . S
C652 C71 1.880 . S
C669 C246 1.970 . S
C688 C97 1.889 . S
C705 C7 1.349 . S
C724 C117 1.378 . S
C741 C28 1.347 . S
C760 C6 1.386 . S
C777 C29 1.393 . S
C796 C51 1.312 . S
C813 C50 1.390 . S
C832 C72 1.329 . S
C849 C73 1.393 . S
C868 C95 1.312 . S
C885 C116 1.351 . S
C904 C94 1.372 . S
C921 C139 1.348 . S
C940 C160 1.381 . S
C957 C161 1.349 . S
C976 C182 1.382 . S
C993 C183 1.354 . S
C1012 C204 1.367 . S
C1029 C205 1.347 . S
C1048 C226 1.388 . S
C1065 C227 1.344 . S
C1084 C249 1.395 . S
C1101 C138 1.388 . S
C1120 C248 1.352 . S
C1137 C180 1.213 1_545 S
C1156 C4 1.211 . S
C1173 C30 1.227 . S
C1192 C202 1.220 . S
C1209 C48 1.220 1_545 S
C1228 C224 1.221 1_655 S
C1245 C74 1.219 . S
C1264 C250 1.222 1_565 S
C1281 C92 1.208 1_655 S
C1300 C136 1.217 . S
C1317 C158 1.212 1_455 S
C1336 C118 1.211 1_565 S
C1353 C5 0.683 . S
C1372 C159 0.650 . S
C1389 C181 0.700 . S
C1408 C31 0.751 . S
C1425 C203 0.680 . S
C1444 C49 0.673 . S
C1461 C225 0.684 . S
C1480 C75 0.652 . S
C1497 C93 0.679 . S
C1516 C251 0.656 . S
C1533 C119 0.685 . S
C1552 C137 0.707 . S
