# Generated by pormake.
# Topology rkf, (6)-cn, num edge types: 1
# Building blocks:
#     Node 0, Type 0, BuildingBlock: PAMTUU_clean_sbu_0, # of connection points: 6
#     Node 1, Type 0, BuildingBlock: PAMTUU_clean_sbu_0, # of connection points: 6
#     Node 2, Type 0, BuildingBlock: PAMTUU_clean_sbu_0, # of connection points: 6
#     Node 3, Type 0, BuildingBlock: PAMTUU_clean_sbu_0, # of connection points: 6
#     Node 4, Type 0, BuildingBlock: PAMTUU_clean_sbu_0, # of connection points: 6
#     Node 5, Type 0, BuildingBlock: PAMTUU_clean_sbu_0, # of connection points: 6
#     Edge 6, Type (0, 0), BuildingBlock: EZIPEK_clean_linker_0, # of connection points: 2
#     Edge 7, Type (0, 0), BuildingBlock: EZIPEK_clean_linker_0, # of connection points: 2
#     Edge 8, Type (0, 0), BuildingBlock: EZIPEK_clean_linker_0, # of connection points: 2
#     Edge 9, Type (0, 0), BuildingBlock: EZIPEK_clean_linker_0, # of connection points: 2
#     Edge 10, Type (0, 0), BuildingBlock: EZIPEK_clean_linker_0, # of connection points: 2
#     Edge 11, Type (0, 0), BuildingBlock: EZIPEK_clean_linker_0, # of connection points: 2
#     Edge 12, Type (0, 0), BuildingBlock: EZIPEK_clean_linker_0, # of connection points: 2
#     Edge 13, Type (0, 0), BuildingBlock: EZIPEK_clean_linker_0, # of connection points: 2
#     Edge 14, Type (0, 0), BuildingBlock: EZIPEK_clean_linker_0, # of connection points: 2
#     Edge 15, Type (0, 0), BuildingBlock: EZIPEK_clean_linker_0, # of connection points: 2
#     Edge 16, Type (0, 0), BuildingBlock: EZIPEK_clean_linker_0, # of connection points: 2
#     Edge 17, Type (0, 0), BuildingBlock: EZIPEK_clean_linker_0, # of connection points: 2
#     Edge 18, Type (0, 0), BuildingBlock: EZIPEK_clean_linker_0, # of connection points: 2
#     Edge 19, Type (0, 0), BuildingBlock: EZIPEK_clean_linker_0, # of connection points: 2
#     Edge 20, Type (0, 0), BuildingBlock: EZIPEK_clean_linker_0, # of connection points: 2
#     Edge 21, Type (0, 0), BuildingBlock: EZIPEK_clean_linker_0, # of connection points: 2
#     Edge 22, Type (0, 0), BuildingBlock: EZIPEK_clean_linker_0, # of connection points: 2
#     Edge 23, Type (0, 0), BuildingBlock: EZIPEK_clean_linker_0, # of connection points: 2
# Relax obj value: 1.152
# Max RMSD: 0.276
# Mean RMSD: 0.266
data_MOF--net-rkf--node1-PAMTUU_clean_sbu_0--edge1-EZIPEK_clean_linker_0
_symmetry_space_group_name_H-M    P1
_symmetry_Int_Tables_number       1
_symmetry_cell_setting            triclinic
loop_
_symmetry_equiv_pos_as_xyz
'x, y, z'
_cell_length_a     19.639908
_cell_length_b     19.918518
_cell_length_c     31.465253
_cell_angle_alpha  90.0073
_cell_angle_beta   90.213629
_cell_angle_gamma 120.26045
loop_
_atom_site_label
_atom_site_type_symbol
_atom_site_fract_x
_atom_site_fract_y
_atom_site_fract_z
_atom_type_partial_charge
Tb0 Tb 0.21155 -0.01068 0.27148 0.0
Tb1 Tb 0.20628 0.13765 1.23259 0.0
C2 C 0.36138 0.13763 0.24362 0.0
C3 C 0.28364 0.89482 0.34333 0.0
C4 C 0.353 0.92445 0.42514 0.0
C5 C 0.39681 0.96895 0.39012 0.0
C6 C 0.36236 0.95446 0.34952 0.0
C7 C 0.24293 0.84609 0.37741 0.0
C8 C 0.27724 0.86034 0.41767 0.0
C9 C 0.23868 0.89026 0.30453 0.0
O10 O 0.19643 0.04735 0.32858 0.0
O11 O 0.23019 0.16716 0.30082 0.0
O12 O 0.09111 0.058 0.25966 0.0
O13 O 0.08862 0.94133 0.25823 0.0
O14 O 0.14565 0.18299 1.19907 0.0
O15 O 0.26409 0.25802 1.22332 0.0
O16 O 0.17767 0.06348 1.17586 0.0
O17 O 0.18569 0.9596 1.20196 0.0
O18 O 0.32666 0.09255 0.27585 0.0
O19 O 0.31981 0.15094 1.21603 0.0
C20 C 0.2142 0.12067 0.33384 0.0
O21 O 0.17471 0.89323 0.3115 0.0
O22 O 0.2785 0.9336 0.27228 0.0
C23 C 0.05303 -0.01849 0.25971 0.0
C24 C 0.1825 0.31383 1.21455 0.0
C25 C 0.17644 0.45164 1.21759 0.0
C26 C 0.1338 0.39484 1.18652 0.0
C27 C 0.13687 0.32665 1.18502 0.0
C28 C 0.21736 0.36593 0.24879 0.0
C29 C 0.21359 0.43435 0.25051 0.0
C30 C 0.20321 0.25426 1.20417 0.0
C31 C 0.16957 -0.00585 1.17029 0.0
H32 H 0.45573 0.01786 0.39446 0.0
H33 H 0.39559 -0.00683 0.32378 0.0
H34 H 0.18215 0.80016 0.37361 0.0
H35 H 0.24129 0.82508 0.44372 0.0
H36 H 0.10411 0.40635 1.16092 0.0
H37 H 0.10903 0.28709 1.15855 0.0
H38 H 0.25183 0.35654 0.27248 0.0
H39 H 0.24452 0.47607 0.27564 0.0
Tb40 Tb 0.23037 0.37871 0.57324 0.0
Tb41 Tb 0.2567 0.2428 0.60955 0.0
C42 C 0.39602 0.39799 0.57355 0.0
C43 C 0.24596 0.5519 0.51627 0.0
C44 C 0.23482 0.6403 0.45069 0.0
C45 C 0.25607 0.67156 0.49153 0.0
C46 C 0.26048 0.62712 0.52455 0.0
C47 C 0.23845 0.52605 0.47424 0.0
C48 C 0.23324 0.57034 0.44157 0.0
C49 C 0.22553 0.49761 0.55158 0.0
O50 O 0.21066 0.30509 0.51551 0.0
O51 O 0.25997 0.22865 0.53988 0.0
O52 O 0.12774 0.18815 0.6055 0.0
O53 O 0.11388 0.29506 0.59376 0.0
O54 O 0.24942 0.13378 0.60594 0.0
O55 O 0.30808 0.21198 0.65854 0.0
O56 O 0.20922 0.27295 0.66469 0.0
O57 O 0.24072 0.39447 0.64347 0.0
O58 O 0.34426 0.40435 0.55072 0.0
O59 O 0.3712 0.35113 0.60636 0.0
C60 C 0.2331 0.25307 0.50833 0.0
O61 O 0.16866 0.42643 0.54447 0.0
O62 O 0.28377 0.50049 0.57315 0.0
C63 C 0.08427 0.22137 0.60208 0.0
C64 C 0.35582 0.12775 0.63988 0.0
C65 C 0.45221 0.0604 0.65039 0.0
C66 C 0.45368 0.11408 0.68037 0.0
C67 C 0.40556 0.14645 0.67534 0.0
C68 C 0.36091 0.08196 0.60761 0.0
C69 C 0.40892 0.04913 0.61255 0.0
C70 C 0.29214 0.14703 0.64017 0.0
C71 C 0.21367 0.33974 0.67287 0.0
H72 H 0.26181 0.72697 0.49833 0.0
H73 H 0.26863 0.64881 0.55685 0.0
H74 H 0.2295 0.46892 0.4671 0.0
H75 H 0.22054 0.54625 0.40986 0.0
H76 H 0.4862 0.12627 0.7099 0.0
H77 H 0.40348 0.18204 0.70078 0.0
H78 H 0.32416 0.06778 0.57974 0.0
H79 H 0.40742 0.01062 0.58794 0.0
Tb80 Tb 0.04132 0.37874 0.93258 0.0
Tb81 Tb 0.90514 0.22133 0.88992 0.0
C82 C 0.89948 0.36883 0.89272 0.0
C83 C 0.13798 0.54387 1.00497 0.0
C84 C 0.16526 0.59306 1.08963 0.0
C85 C 0.20289 0.64745 1.05695 0.0
C86 C 0.19048 0.62239 1.01449 0.0
C87 C 0.09324 0.49274 1.03735 0.0
C88 C 0.10698 0.51687 1.07927 0.0
C89 C 0.13563 0.51131 0.96303 0.0
O90 O -0.02298 0.30636 0.98915 0.0
O91 O 0.86328 0.212 0.95645 0.0
O92 O -0.02828 0.18857 0.93113 0.0
O93 O 0.08967 0.30419 0.93625 0.0
O94 O 0.86771 0.12095 0.85319 0.0
O95 O 0.78558 0.15768 0.87309 0.0
O96 O 0.0026 0.25691 0.84524 0.0
O97 O 0.0758 0.3853 0.86437 0.0
O98 O 0.92807 0.37122 0.93019 0.0
O99 O 0.90356 0.32233 0.86529 0.0
C100 C 0.90437 0.24487 0.99163 0.0
O101 O 0.14766 0.45267 0.9637 0.0
O102 O 0.07535 0.49685 0.93922 0.0
C103 C 0.04645 0.22963 0.94231 0.0
C104 C 0.73386 0.02433 0.85699 0.0
C105 C 0.60896 0.8704 0.85895 0.0
C106 C 0.65129 0.90216 0.82134 0.0
C107 C 0.71302 -0.0216 0.82038 0.0
C108 C 0.69389 -0.00749 0.89529 0.0
C109 C 0.63147 0.91541 0.89624 0.0
C110 C 0.79495 0.10579 0.8527 0.0
C111 C 0.06032 0.32778 0.83755 0.0
H112 H 0.24646 0.70697 1.06443 0.0
H113 H 0.22484 0.66286 0.98961 0.0
H114 H 0.05231 0.43229 1.03056 0.0
H115 H 0.0761 0.47406 1.10381 0.0
H116 H 0.63545 0.86827 0.79229 0.0
H117 H 0.74355 0.0021 0.79065 0.0
H118 H 0.70975 0.02751 0.92393 0.0
H119 H 0.59924 0.89186 0.92542 0.0
Tb120 Tb 0.64817 0.0129 0.23653 0.0
Tb121 Tb 0.80514 0.15918 0.26723 0.0
C122 C 0.66268 0.17088 0.24357 0.0
C123 C 0.45723 0.91906 1.18453 0.0
C124 C 0.41702 0.85515 1.10395 0.0
C125 C 0.3631 0.81991 1.13728 0.0
C126 C 0.38407 0.85146 1.17821 0.0
C127 C 0.49791 0.96482 1.14928 0.0
C128 C 0.47837 0.93216 1.10876 0.0
C129 C 0.50445 0.92314 1.22162 0.0
O130 O 0.70611 0.05435 1.17332 0.0
O131 O 0.82005 0.16067 1.19746 0.0
O132 O 0.83147 0.06473 0.26275 0.0
O133 O 0.71839 0.9587 1.2356 0.0
O134 O 0.87982 0.27544 0.25178 0.0
O135 O 0.90913 0.22216 0.30343 0.0
O136 O 0.76013 0.10993 0.32988 0.0
O137 O 0.66168 -0.00755 0.30574 0.0
O138 O 0.65858 0.12093 1.21598 0.0
O139 O 0.70812 0.18197 0.27616 0.0
C140 C 0.77537 0.11775 1.1656 0.0
O141 O 0.55962 0.90678 1.21271 0.0
O142 O 0.53055 -0.01511 0.2457 0.0
C143 C 0.79091 -0.00837 0.24972 0.0
C144 C 0.95754 0.358 0.30741 0.0
C145 C 0.03682 0.50949 0.34072 0.0
C146 C 0.06646 0.45911 0.34697 0.0
C147 C 0.02745 0.38429 0.33038 0.0
C148 C 0.92536 0.40689 0.30256 0.0
C149 C -0.03444 0.48282 0.31866 0.0
C150 C 0.92833 0.28611 0.28283 0.0
C151 C 0.70747 0.03685 0.33732 0.0
H152 H 0.31355 0.76197 1.13353 0.0
H153 H 0.35067 0.81633 1.20504 0.0
H154 H 0.5532 0.01867 1.15358 0.0
H155 H 0.51925 0.9614 1.083 0.0
H156 H 0.12109 0.47825 0.36392 0.0
H157 H 0.05387 0.34815 0.33388 0.0
H158 H 0.87172 0.3881 0.28444 0.0
H159 H 0.94206 0.52096 0.31319 0.0
Tb160 Tb 0.65015 0.82184 0.59909 0.0
Tb161 Tb 0.81698 0.84958 0.56315 0.0
C162 C 0.66996 0.69075 0.5657 0.0
C163 C 0.47561 0.74616 0.6695 0.0
C164 C 0.4353 0.7017 0.75488 0.0
C165 C 0.40671 0.64517 0.72276 0.0
C166 C 0.42643 0.66734 0.68029 0.0
C167 C 0.4979 0.80288 0.7012 0.0
C168 C 0.47736 0.78086 0.74336 0.0
C169 C 0.51142 0.76647 0.62681 0.0
O170 O 0.71297 0.81169 0.65666 0.0
O171 O 0.83556 0.84281 0.63128 0.0
O172 O 0.82668 0.96115 0.57507 0.0
O173 O 0.72883 0.93634 0.62317 0.0
O174 O 0.93822 0.9233 0.55762 0.0
O175 O 0.87889 0.8145 0.52261 0.0
O176 O 0.75581 0.86204 0.50686 0.0
O177 O 0.66375 0.88519 0.53823 0.0
O178 O 0.63964 0.73339 0.55543 0.0
O179 O 0.74391 0.72597 0.57693 0.0
C180 C 0.78647 0.82629 0.66328 0.0
O181 O 0.55736 0.83997 0.61749 0.0
O182 O 0.54187 0.72479 0.61461 0.0
C183 C 0.79427 -0.01602 0.60375 0.0
C184 C 0.01614 0.86816 0.53843 0.0
C185 C 0.17044 0.89454 0.53512 0.0
C186 C 0.14536 0.91739 0.57116 0.0
C187 C 0.06842 0.90444 0.57279 0.0
C188 C 0.03921 0.83809 0.5048 0.0
C189 C 0.11583 0.85125 0.50314 0.0
C190 C 0.94621 0.87616 0.53217 0.0
C191 C 0.70635 0.88892 0.50456 0.0
H192 H 0.37306 0.584 0.73066 0.0
H193 H 0.40761 0.6225 0.65619 0.0
H194 H 0.53509 0.86402 0.69398 0.0
H195 H 0.4994 0.82603 0.76733 0.0
H196 H 0.18692 0.951 0.59606 0.0
H197 H 0.05212 0.9282 0.59923 0.0
H198 H 0.00027 0.81042 0.47791 0.0
H199 H 0.13433 0.83364 0.47497 0.0
Tb200 Tb 0.06369 0.84458 0.89828 0.0
Tb201 Tb 0.88654 0.77816 0.93446 0.0
C202 C 0.94467 0.67057 0.90233 0.0
C203 C 0.24625 0.89414 0.83342 0.0
C204 C 0.34699 0.90521 0.76679 0.0
C205 C 0.30485 0.83575 0.78952 0.0
C206 C 0.25457 0.83001 0.82266 0.0
C207 C 0.28776 0.96307 0.81002 0.0
C208 C 0.33717 0.96837 0.777 0.0
C209 C 0.20157 0.89404 0.87113 0.0
O210 O -0.00176 0.8535 0.84199 0.0
O211 O 0.87009 0.78681 0.86598 0.0
O212 O 0.93266 0.90129 0.92359 0.0
O213 O 0.06334 0.93807 0.93036 0.0
O214 O 0.80812 0.76299 0.98325 0.0
O215 O 0.76526 0.70066 0.92411 0.0
O216 O 0.96053 0.82662 0.99139 0.0
O217 O 0.0757 0.83661 0.96936 0.0
O218 O -0.00867 0.72614 0.87683 0.0
O219 O 0.91605 0.68663 0.93568 0.0
C220 C 0.92102 0.82162 0.83501 0.0
O221 O 0.1636 0.93199 0.86777 0.0
O222 O 0.16191 0.82961 0.89265 0.0
C223 C 0.00688 0.95396 0.93028 0.0
C224 C 0.67983 0.73087 0.96167 0.0
C225 C 0.55021 0.74465 0.98553 0.0
C226 C 0.62659 0.80961 0.98701 0.0
C227 C 0.69107 0.80309 0.97479 0.0
C228 C 0.60286 0.66828 0.95557 0.0
C229 C 0.53797 0.67529 0.96713 0.0
C230 C 0.74625 0.71652 0.96073 0.0
C231 C 0.03151 0.83936 1.00075 0.0
H232 H 0.31164 0.78668 0.78171 0.0
H233 H 0.2237 0.77622 0.84031 0.0
H234 H 0.28341 0.01375 0.81787 0.0
H235 H 0.36895 0.02259 0.75975 0.0
H236 H 0.63699 0.86352 1.00131 0.0
H237 H 0.7498 0.85264 0.97906 0.0
H238 H 0.59316 0.6123 0.94509 0.0
H239 H 0.47948 0.62446 0.9662 0.0
C240 C 0.85645 0.92246 1.2188 0.0
C241 C 0.82897 0.9446 0.25451 0.0
C242 C 0.93083 0.94714 0.29925 0.0
C243 C -0.03304 0.94066 0.26213 0.0
N244 N 0.9443 0.87831 1.19413 0.0
N245 N 0.80932 0.92834 0.32959 0.0
C246 C 0.92293 0.91327 1.22417 0.0
C247 C 0.85608 0.9404 0.29535 0.0
N248 N 0.82214 0.91438 1.18002 0.0
N249 N -0.03081 0.96283 0.33735 0.0
H250 H 0.75275 0.92005 0.32583 0.0
H251 H 0.8231 0.91779 0.35996 0.0
H252 H 0.02316 0.96491 0.34068 0.0
H253 H 0.94842 -0.0242 0.36478 0.0
H254 H 0.84591 0.90735 1.15197 0.0
H255 H 0.76994 0.91545 1.17641 0.0
H256 H 0.90945 0.85025 1.16767 0.0
H257 H -0.00711 0.87098 1.19831 0.0
C258 C 0.88346 0.08699 0.65134 0.0
C259 C 0.83801 0.06683 0.61416 0.0
C260 C 0.94633 0.16888 0.57436 0.0
C261 C -0.00219 0.1752 0.60826 0.0
N262 N 0.01398 0.15445 0.6826 0.0
N263 N 0.81026 0.10868 0.54909 0.0
C264 C -0.03419 0.13957 0.64828 0.0
C265 C 0.86435 0.11662 0.57897 0.0
N266 N 0.84725 0.05313 0.68866 0.0
N267 N -0.02416 0.20775 0.537 0.0
H268 H 0.75052 0.06764 0.55287 0.0
H269 H 0.8228 0.14496 0.52294 0.0
H270 H 0.03547 0.24612 0.53183 0.0
H271 H 0.94176 0.20009 0.51009 0.0
H272 H 0.87512 0.0658 0.71815 0.0
H273 H 0.7864 0.01523 0.68996 0.0
H274 H -0.00449 0.12752 0.71197 0.0
H275 H 0.07373 0.19437 0.68166 0.0
C276 C 0.00663 0.05203 0.97919 0.0
C277 C 0.03118 0.03404 0.94041 0.0
C278 C 0.12332 0.17131 0.92823 0.0
C279 C 0.08247 0.18716 0.95893 0.0
N280 N 0.01876 0.15549 1.02591 0.0
N281 N 0.11593 0.07633 0.87825 0.0
C282 C 0.03677 0.13124 0.98933 0.0
C283 C 0.09204 0.09361 0.91538 0.0
N284 N 0.95354 -0.00564 1.00504 0.0
N285 N 0.18844 0.23141 0.91012 0.0
H286 H 0.09216 0.01992 0.86662 0.0
H287 H 0.15495 0.11837 0.85721 0.0
H288 H 0.20996 0.28846 0.92051 0.0
H289 H 0.22435 0.22414 0.88858 0.0
H290 H 0.93123 0.00414 1.03278 0.0
H291 H 0.92936 0.93561 0.99816 0.0
H292 H -0.0127 0.11921 1.05101 0.0
H293 H 0.04046 0.21464 1.03145 0.0
C294 C 0.13055 0.54425 1.20051 0.0
C295 C 0.1945 0.53219 1.20853 0.0
C296 C 0.26148 0.60641 1.14598 0.0
C297 C 0.19211 0.60791 1.13447 0.0
N298 N 0.07382 0.60416 1.15784 0.0
N299 N 0.33523 0.59121 1.20325 0.0
C300 C 0.13332 0.58934 1.16539 0.0
C301 C 0.26567 0.57902 1.18679 0.0
N302 N 0.06289 0.50557 1.22294 0.0
N303 N 0.31853 0.6212 1.11683 0.0
H304 H 0.33869 0.57145 1.23339 0.0
H305 H 0.38942 0.62842 1.18913 0.0
H306 H 0.31803 0.64026 1.08615 0.0
H307 H 0.36422 0.61008 1.12263 0.0
H308 H 0.05713 0.469 0.24805 0.0
H309 H 0.05713 0.469 0.24805 0.0
H310 H 0.02742 0.5879 1.17912 0.0
H311 H 0.07409 0.63549 1.13114 0.0
C312 C 0.22032 0.67423 0.37738 0.0
C313 C 0.19668 0.66803 0.42015 0.0
C314 C 0.05887 0.60235 0.39886 0.0
C315 C 0.082 0.58867 0.35895 0.0
N316 N 0.17868 0.63865 0.30379 0.0
N317 N 0.09587 0.66409 0.46651 0.0
C318 C 0.16123 0.63577 0.3458 0.0
C319 C 0.1176 0.64712 0.42891 0.0
N320 N 0.2988 0.71029 0.36847 0.0
N321 N -0.0188 0.56896 0.40927 0.0
H322 H 0.13578 0.69958 0.48974 0.0
H323 H 0.13578 0.69958 0.48974 0.0
H324 H 0.93603 0.53629 0.38771 0.0
H325 H 0.96272 0.57576 0.43923 0.0
H326 H 0.32162 0.7129 0.33834 0.0
H327 H 0.3409 0.73818 0.39244 0.0
H328 H 0.23505 0.67175 0.29129 0.0
H329 H 0.1337 0.61148 0.28135 0.0
C330 C 0.5545 0.73105 0.84259 0.0
C331 C 0.54029 0.79055 0.85674 0.0
C332 C 0.40708 0.71626 0.82855 0.0
C333 C 0.43471 0.68107 0.80033 0.0
N334 N 0.51262 0.62034 0.79472 0.0
N335 N 0.44636 0.83342 0.86879 0.0
C336 C 0.50012 0.67489 0.81336 0.0
C337 C 0.46325 0.77967 0.85315 0.0
N338 N 0.62303 0.73396 0.85399 0.0
N339 N 0.32897 0.69225 0.82904 0.0
H340 H 0.48628 0.88087 0.88694 0.0
H341 H 0.39298 0.83111 0.86298 0.0
H342 H 0.28963 0.64763 0.80889 0.0
H343 H 0.30416 0.71208 0.85144 0.0
H344 H 0.63926 0.69417 0.84412 0.0
H345 H 0.66289 0.77646 0.87491 0.0
H346 H 0.56052 0.61322 0.80131 0.0
H347 H 0.4716 0.57969 0.77349 0.0
C348 C 0.41039 0.80375 1.02995 0.0
C349 C 0.43005 0.80585 1.07357 0.0
C350 C 0.49885 0.7348 1.05791 0.0
C351 C 0.49093 0.74494 1.01425 0.0
N352 N 0.41857 0.76182 0.9583 0.0
N353 N 0.4976 0.77668 1.12922 0.0
C354 C 0.43994 0.77099 1.00005 0.0
C355 C 0.47403 0.77074 1.08775 0.0
N356 N 0.36755 0.83698 1.01721 0.0
N357 N 0.53049 0.69067 1.07078 0.0
H358 H 0.47908 0.79899 1.15338 0.0
H359 H 0.53996 0.76357 1.13961 0.0
H360 H 0.5503 0.66418 1.04953 0.0
H361 H 0.52939 0.67331 1.10211 0.0
H362 H 0.35667 0.84396 0.98562 0.0
H363 H 0.34446 0.85995 1.03881 0.0
H364 H 0.37652 0.77341 0.94573 0.0
H365 H 0.43812 0.73487 0.93714 0.0
C366 C 0.29351 -0.00083 0.50219 0.0
C367 C 0.25513 0.92864 0.52537 0.0
C368 C 0.35528 0.89884 0.50189 0.0
C369 C 0.37449 0.95448 0.46954 0.0
N370 N 0.41141 0.08818 0.46338 0.0
N371 N 0.26289 0.82427 0.55854 0.0
C372 C 0.36113 0.01586 0.47848 0.0
C373 C 0.29187 0.88344 0.52985 0.0
N374 N 0.26267 0.04696 0.50035 0.0
N375 N 0.39496 0.8593 0.50341 0.0
H376 H 0.21711 0.81424 0.57912 0.0
H377 H 0.28467 0.78674 0.5625 0.0
H378 H 0.43894 0.87063 0.48122 0.0
H379 H 0.38776 0.8202 0.52733 0.0
H380 H 0.28439 0.09413 0.47987 0.0
H381 H 0.214 0.03767 0.51813 0.0
H382 H 0.40781 0.13665 0.47237 0.0
H383 H 0.46164 0.0998 0.44633 0.0
C384 C 0.48333 -0.02339 0.73763 0.0
C385 C 0.40374 0.91578 0.73282 0.0
C386 C 0.42333 0.92577 0.65666 0.0
C387 C 0.47942 0.0046 0.66293 0.0
N388 N 0.5977 0.08308 0.70214 0.0
N389 N 0.30525 0.81832 0.68585 0.0
C390 C 0.52325 0.02079 0.70094 0.0
C391 C 0.37643 0.88392 0.69175 0.0
N392 N 0.51677 -0.00574 0.77709 0.0
N393 N 0.41705 0.892 0.61829 0.0
H394 H 0.26968 0.78581 0.71105 0.0
H395 H 0.28154 0.79826 0.65565 0.0
H396 H 0.45379 0.92385 0.59314 0.0
H397 H 0.38258 0.8321 0.61389 0.0
H398 H 0.57352 0.03976 0.78333 0.0
H399 H 0.48682 0.96059 0.80348 0.0
H400 H 0.63387 0.10004 0.72893 0.0
H401 H 0.62297 0.11587 0.67474 0.0
C402 C 0.47975 0.15823 1.20192 0.0
C403 C 0.44782 0.17139 0.23915 0.0
C404 C 0.5743 0.21761 0.27646 0.0
C405 C 0.60264 0.19641 0.24039 0.0
N406 N 0.59873 0.19038 1.16382 0.0
N407 N 0.47235 0.2394 0.30568 0.0
C408 C 0.56074 0.18166 1.20139 0.0
C409 C 0.49771 0.20933 0.27462 0.0
N410 N 0.43255 0.11839 1.16818 0.0
N411 N 0.61972 0.24533 0.31218 0.0
H412 H 0.41825 0.23733 0.30364 0.0
H413 H 0.50719 0.27256 0.33107 0.0
H414 H 0.68012 0.26609 0.31207 0.0
H415 H 0.598 0.24979 0.34153 0.0
H416 H 0.45237 0.09959 1.14263 0.0
H417 H 0.37234 0.09832 1.16704 0.0
H418 H 0.57236 0.18563 1.1343 0.0
H419 H 0.65925 0.21196 1.16265 0.0
C420 C 0.50575 0.4982 0.52679 0.0
C421 C 0.48212 0.45595 0.56582 0.0
C422 C 0.60253 0.55759 0.60018 0.0
C423 C 0.61924 0.60461 0.56339 0.0
N424 N 0.60564 0.61051 0.48796 0.0
N425 N 0.53229 0.42717 0.62913 0.0
C426 C 0.57679 0.57156 0.52537 0.0
C427 C 0.53814 0.47962 0.59936 0.0
N428 N 0.45996 0.46849 0.49126 0.0
N429 N 0.64541 0.588 0.63651 0.0
H430 H 0.4925 0.36783 0.62608 0.0
H431 H 0.57436 0.44027 0.65284 0.0
H432 H 0.69539 0.64306 0.63786 0.0
H433 H 0.62908 0.55975 0.66573 0.0
H434 H 0.46659 0.50023 0.46378 0.0
H435 H 0.41452 0.41101 0.48924 0.0
H436 H 0.58159 0.58828 0.4582 0.0
H437 H 0.65875 0.66329 0.48644 0.0
C438 C 0.83592 0.44938 0.89683 0.0
C439 C 0.89548 0.43762 0.87966 0.0
C440 C -0.01388 0.57653 0.8779 0.0
C441 C 0.92621 0.58995 0.89347 0.0
N442 N 0.78627 0.53797 0.90358 0.0
N443 N 0.01279 0.48995 0.83712 0.0
C444 C 0.84834 0.52601 0.89864 0.0
C445 C -0.03474 0.50132 0.86397 0.0
N446 N 0.76853 0.38766 0.91219 0.0
N447 N 0.06371 0.63299 0.87987 0.0
H448 H -0.00421 0.43541 0.82449 0.0
H449 H 0.06282 0.53571 0.82323 0.0
H450 H 0.08289 0.68547 0.89558 0.0
H451 H 0.1093 0.62314 0.87155 0.0
H452 H 0.72685 0.39382 0.92951 0.0
H453 H 0.75663 0.33054 0.909 0.0
H454 H 0.72785 0.49282 0.90437 0.0
H455 H 0.79244 0.59293 0.90171 0.0
C456 C 0.15466 0.15982 0.39566 0.0
C457 C 0.21856 0.15364 0.37874 0.0
C458 C 0.29552 0.2211 0.44413 0.0
C459 C 0.22865 0.22017 0.46302 0.0
N460 N 0.08914 0.17193 0.45821 0.0
N461 N 0.34822 0.17279 0.38923 0.0
C462 C 0.15699 0.18543 0.43892 0.0
C463 C 0.28847 0.18285 0.40379 0.0
N464 N 0.09152 0.14243 0.3701 0.0
N465 N 0.36667 0.25929 0.46454 0.0
H466 H 0.34417 0.14373 0.36094 0.0
H467 H 0.3999 0.18859 0.4059 0.0
H468 H 0.37408 0.28377 0.49461 0.0
H469 H 0.41973 0.27141 0.45077 0.0
H470 H 0.04732 0.15422 0.37842 0.0
H471 H 0.08688 0.12241 0.339 0.0
H472 H 0.03367 0.13978 0.44423 0.0
H473 H 0.08731 0.18542 0.48999 0.0
C474 C 0.11056 0.35286 0.71686 0.0
C475 C 0.18183 0.35013 0.71544 0.0
C476 C 0.18192 0.3506 0.7948 0.0
C477 C 0.10543 0.34229 0.79574 0.0
N478 N -0.00732 0.32519 0.75604 0.0
N479 N 0.28343 0.34254 0.75431 0.0
C480 C 0.06883 0.34067 0.75625 0.0
C481 C 0.21684 0.34797 0.7549 0.0
N482 N 0.08257 0.36828 0.6806 0.0
N483 N 0.22174 0.36169 0.83219 0.0
H484 H 0.31314 0.34564 0.7263 0.0
H485 H 0.30703 0.33112 0.78116 0.0
H486 H 0.19791 0.36345 0.86144 0.0
H487 H 0.28031 0.37549 0.83408 0.0
H488 H 0.03568 0.37871 0.68015 0.0
H489 H 0.11134 0.37932 0.6516 0.0
H490 H 0.95886 0.31277 0.72847 0.0
H491 H 0.96099 0.3187 0.78373 0.0
C492 C 0.86512 0.25908 1.06829 0.0
C493 C 0.86767 0.21064 1.03559 0.0
C494 C 0.80835 0.09995 1.08757 0.0
C495 C 0.80362 0.14785 1.11984 0.0
N496 N 0.81675 0.27195 1.1372 0.0
N497 N 0.83073 0.08015 1.01372 0.0
C498 C 0.82986 0.22726 1.10913 0.0
C499 C 0.8354 0.12968 1.04515 0.0
N500 N 0.89519 0.33632 1.06014 0.0
N501 N 0.79177 0.02674 1.09811 0.0
H502 H 0.85714 0.09868 0.98417 0.0
H503 H 0.79748 0.01988 1.01617 0.0
H504 H 0.77158 0.00295 1.12802 0.0
H505 H 0.80385 -0.00822 1.07866 0.0
H506 H 0.90875 0.37801 1.08366 0.0
H507 H 0.90935 0.35969 1.02966 0.0
H508 H 0.8249 0.32652 1.13011 0.0
H509 H 0.79078 0.25229 1.16678 0.0
C510 C 0.63282 0.94672 0.40164 0.0
C511 C 0.70528 0.00169 0.3817 0.0
C512 C 0.77504 -0.00825 0.44596 0.0
C513 C 0.70397 0.92937 0.46306 0.0
N514 N 0.56505 0.8415 0.45287 0.0
N515 N 0.84794 0.06349 0.38402 0.0
C516 C 0.6328 0.90559 0.43971 0.0
C517 C 0.77687 0.02116 0.40392 0.0
N518 N 0.56344 0.93609 0.38547 0.0
N519 N 0.84181 0.02527 0.47035 0.0
H520 H 0.85413 0.08098 0.35247 0.0
H521 H 0.90067 0.07172 0.3967 0.0
H522 H 0.84448 0.00609 0.50067 0.0
H523 H 0.89209 0.07741 0.46241 0.0
H524 H 0.50938 0.9031 0.40054 0.0
H525 H 0.5609 0.96704 0.35939 0.0
H526 H 0.51325 0.81542 0.43496 0.0
H527 H 0.56252 0.81038 0.48005 0.0
C528 C 0.78035 0.76066 0.73603 0.0
C529 C 0.81803 0.82662 0.70858 0.0
C530 C 0.9192 0.89287 0.76603 0.0
C531 C 0.88771 0.82348 0.79061 0.0
N532 N 0.79591 0.68535 0.79212 0.0
N533 N 0.9325 0.95397 0.69753 0.0
C534 C 0.82007 0.75595 0.77372 0.0
C535 C 0.89041 0.89174 0.72356 0.0
N536 N 0.70627 0.70159 0.72651 0.0
N537 N -0.02679 0.96185 0.78413 0.0
H538 H 0.91166 0.96096 0.66839 0.0
H539 H -0.00958 -0.00305 0.70407 0.0
H540 H -0.00782 0.96616 0.81545 0.0
H541 H -0.0079 0.01558 0.76986 0.0
H542 H 0.67264 0.65646 0.74749 0.0
H543 H 0.67525 0.70106 0.69956 0.0
H544 H 0.75243 0.63303 0.77904 0.0
H545 H 0.8256 0.67781 0.81754 0.0
C546 C 0.02432 0.89342 1.07498 0.0
C547 C 0.06446 0.86847 1.04689 0.0
C548 C 0.17165 0.91728 1.10277 0.0
C549 C 0.13528 0.95165 1.12714 0.0
N550 N 0.03258 -0.01406 1.12691 0.0
N551 N 0.1646 0.83278 1.04417 0.0
C552 C 0.06442 0.94481 1.10993 0.0
C553 C 0.13566 0.8746 1.06344 0.0
N554 N 0.94422 0.85998 1.07249 0.0
N555 N 0.24354 0.92959 1.11575 0.0
H556 H 0.13577 0.79489 1.019 0.0
H557 H 0.21066 0.82695 1.05627 0.0
H558 H 0.27156 0.96062 1.14323 0.0
H559 H 0.27872 0.91503 1.09789 0.0
H560 H 0.91162 0.87451 1.09262 0.0
H561 H 0.90885 0.80747 1.05687 0.0
H562 H -0.01128 -0.00855 1.11125 0.0
H563 H 0.0505 0.01671 1.1553 0.0
loop_
_geom_bond_atom_site_label_1
_geom_bond_atom_site_label_2
_geom_bond_distance
_geom_bond_site_symmetry_2
_ccdc_geom_bond_type
Tb0 C9 2.764 . S
Tb0 O10 2.325 1_565 S
Tb0 O13 2.303 . S
Tb0 O17 2.322 1_554 S
Tb0 O18 2.349 . S
Tb0 O21 2.415 . S
Tb0 O22 2.399 . S
Tb1 O11 2.329 . S
Tb1 O12 2.350 . S
Tb1 O14 2.410 1_554 S
Tb1 O15 2.393 1_554 S
Tb1 O16 2.321 1_544 S
Tb1 O19 2.305 . S
Tb1 C30 2.758 1_554 S
C2 O18 1.261 . S
C2 O19 1.257 1_565 S
C3 C6 1.358 . S
C3 C7 1.332 . S
C3 C9 1.504 . S
C4 C5 1.373 . S
C4 C8 1.308 . S
C5 C4 1.373 . S
C5 C6 1.429 . S
C5 H32 0.932 . S
C6 C3 1.358 . S
C6 C5 1.429 . S
C6 H33 0.930 . S
C7 C3 1.332 . S
C7 C8 1.394 . S
C7 H34 0.932 . S
C8 C4 1.308 . S
C8 C7 1.394 . S
C8 H35 0.929 . S
C9 Tb0 2.764 . S
C9 C3 1.504 . S
C9 O21 1.239 . S
C9 O22 1.263 . S
O10 Tb0 2.325 1_545 S
O10 C20 1.236 . S
O11 Tb1 2.329 . S
O11 C20 1.257 . S
O12 Tb1 2.350 . S
O12 C23 1.261 . S
O13 Tb0 2.303 . S
O13 C23 1.257 1_565 S
O14 Tb1 2.410 1_556 S
O14 C30 1.239 . S
O15 Tb1 2.393 1_556 S
O15 C30 1.263 . S
O16 Tb1 2.321 1_566 S
O16 C31 1.236 . S
O17 Tb0 2.322 1_556 S
O17 C31 1.257 . S
O18 Tb0 2.349 . S
O18 C2 1.261 . S
O19 Tb1 2.305 . S
O19 C2 1.257 1_545 S
C20 O10 1.236 . S
C20 O11 1.257 . S
O21 Tb0 2.415 . S
O21 C9 1.239 . S
O22 Tb0 2.399 . S
O22 C9 1.263 . S
C23 O12 1.261 . S
C23 O13 1.257 1_545 S
C24 C27 1.358 . S
C24 C28 1.332 . S
C24 C30 1.504 . S
C25 C26 1.373 . S
C25 C29 1.308 . S
C26 C25 1.373 . S
C26 C27 1.429 . S
C26 H36 0.932 . S
C27 C24 1.358 . S
C27 C26 1.429 . S
C27 H37 0.930 . S
C28 C24 1.332 . S
C28 C29 1.394 . S
C28 H38 0.932 . S
C29 C25 1.308 . S
C29 C28 1.394 . S
C29 H39 0.929 . S
C30 Tb1 2.758 1_556 S
C30 O14 1.239 . S
C30 O15 1.263 . S
C30 C24 1.504 . S
C31 O16 1.236 . S
C31 O17 1.257 . S
H32 C5 0.932 . S
H33 C6 0.930 . S
H34 C7 0.932 . S
H35 C8 0.929 . S
H36 C26 0.932 . S
H37 C27 0.930 . S
H38 C28 0.932 . S
H39 C29 0.929 . S
Tb40 C49 2.764 . S
Tb40 O50 2.325 . S
Tb40 O53 2.303 . S
Tb40 O57 2.322 . S
Tb40 O58 2.349 . S
Tb40 O61 2.415 . S
Tb40 O62 2.399 . S
Tb41 O51 2.322 . S
Tb41 O52 2.349 . S
Tb41 O54 2.415 . S
Tb41 O55 2.399 . S
Tb41 O56 2.325 . S
Tb41 O59 2.303 . S
Tb41 C70 2.764 . S
C42 O58 1.261 . S
C42 O59 1.257 . S
C43 C46 1.358 . S
C43 C47 1.332 . S
C43 C49 1.504 . S
C44 C45 1.373 . S
C44 C48 1.308 . S
C45 C44 1.373 . S
C45 C46 1.429 . S
C45 H72 0.932 . S
C46 C43 1.358 . S
C46 C45 1.429 . S
C46 H73 0.930 . S
C47 C43 1.332 . S
C47 C48 1.394 . S
C47 H74 0.932 . S
C48 C44 1.308 . S
C48 C47 1.394 . S
C48 H75 0.929 . S
C49 Tb40 2.764 . S
C49 C43 1.504 . S
C49 O61 1.239 . S
C49 O62 1.263 . S
O50 Tb40 2.325 . S
O50 C60 1.236 . S
O51 Tb41 2.322 . S
O51 C60 1.257 . S
O52 Tb41 2.349 . S
O52 C63 1.261 . S
O53 Tb40 2.303 . S
O53 C63 1.257 . S
O54 Tb41 2.415 . S
O54 C70 1.239 . S
O55 Tb41 2.399 . S
O55 C70 1.263 . S
O56 Tb41 2.325 . S
O56 C71 1.236 . S
O57 Tb40 2.322 . S
O57 C71 1.257 . S
O58 Tb40 2.349 . S
O58 C42 1.261 . S
O59 Tb41 2.303 . S
O59 C42 1.257 . S
C60 O50 1.236 . S
C60 O51 1.257 . S
O61 Tb40 2.415 . S
O61 C49 1.239 . S
O62 Tb40 2.399 . S
O62 C49 1.263 . S
C63 O52 1.261 . S
C63 O53 1.257 . S
C64 C67 1.358 . S
C64 C68 1.332 . S
C64 C70 1.504 . S
C65 C66 1.373 . S
C65 C69 1.308 . S
C66 C65 1.373 . S
C66 C67 1.429 . S
C66 H76 0.932 . S
C67 C64 1.358 . S
C67 C66 1.429 . S
C67 H77 0.930 . S
C68 C64 1.332 . S
C68 C69 1.394 . S
C68 H78 0.932 . S
C69 C65 1.308 . S
C69 C68 1.394 . S
C69 H79 0.929 . S
C70 Tb41 2.764 . S
C70 O54 1.239 . S
C70 O55 1.263 . S
C70 C64 1.504 . S
C71 O56 1.236 . S
C71 O57 1.257 . S
H72 C45 0.932 . S
H73 C46 0.930 . S
H74 C47 0.932 . S
H75 C48 0.929 . S
H76 C66 0.932 . S
H77 C67 0.930 . S
H78 C68 0.932 . S
H79 C69 0.929 . S
Tb80 C89 2.764 . S
Tb80 O90 2.325 . S
Tb80 O93 2.303 . S
Tb80 O97 2.322 . S
Tb80 O98 2.349 . S
Tb80 O101 2.415 . S
Tb80 O102 2.399 . S
Tb81 O91 2.322 . S
Tb81 O92 2.349 . S
Tb81 O94 2.415 1_455 S
Tb81 O95 2.399 1_455 S
Tb81 O96 2.325 . S
Tb81 O99 2.303 . S
Tb81 C110 2.764 1_455 S
C82 O98 1.261 . S
C82 O99 1.257 . S
C83 C86 1.358 . S
C83 C87 1.332 . S
C83 C89 1.504 . S
C84 C85 1.373 . S
C84 C88 1.308 . S
C85 C84 1.373 . S
C85 C86 1.429 . S
C85 H112 0.932 . S
C86 C83 1.358 . S
C86 C85 1.429 . S
C86 H113 0.930 . S
C87 C83 1.332 . S
C87 C88 1.394 . S
C87 H114 0.932 . S
C88 C84 1.308 . S
C88 C87 1.394 . S
C88 H115 0.929 . S
C89 Tb80 2.764 . S
C89 C83 1.504 . S
C89 O101 1.239 . S
C89 O102 1.263 . S
O90 Tb80 2.325 . S
O90 C100 1.236 . S
O91 Tb81 2.322 . S
O91 C100 1.257 . S
O92 Tb81 2.349 . S
O92 C103 1.261 . S
O93 Tb80 2.303 . S
O93 C103 1.257 . S
O94 Tb81 2.415 1_655 S
O94 C110 1.239 . S
O95 Tb81 2.399 1_655 S
O95 C110 1.263 . S
O96 Tb81 2.325 . S
O96 C111 1.236 . S
O97 Tb80 2.322 . S
O97 C111 1.257 . S
O98 Tb80 2.349 . S
O98 C82 1.261 . S
O99 Tb81 2.303 . S
O99 C82 1.257 . S
C100 O90 1.236 . S
C100 O91 1.257 . S
O101 Tb80 2.415 . S
O101 C89 1.239 . S
O102 Tb80 2.399 . S
O102 C89 1.263 . S
C103 O92 1.261 . S
C103 O93 1.257 . S
C104 C107 1.358 . S
C104 C108 1.332 . S
C104 C110 1.504 . S
C105 C106 1.373 . S
C105 C109 1.308 . S
C106 C105 1.373 . S
C106 C107 1.429 . S
C106 H116 0.932 . S
C107 C104 1.358 . S
C107 C106 1.429 . S
C107 H117 0.930 . S
C108 C104 1.332 . S
C108 C109 1.394 . S
C108 H118 0.932 . S
C109 C105 1.308 . S
C109 C108 1.394 . S
C109 H119 0.929 . S
C110 Tb81 2.764 1_655 S
C110 O94 1.239 . S
C110 O95 1.263 . S
C110 C104 1.504 . S
C111 O96 1.236 . S
C111 O97 1.257 . S
H112 C85 0.932 . S
H113 C86 0.930 . S
H114 C87 0.932 . S
H115 C88 0.929 . S
H116 C106 0.932 . S
H117 C107 0.930 . S
H118 C108 0.932 . S
H119 C109 0.929 . S
Tb120 C129 2.764 1_545 S
Tb120 O130 2.325 . S
Tb120 O133 2.303 1_556 S
Tb120 O137 2.322 1_556 S
Tb120 O138 2.349 1_556 S
Tb120 O141 2.415 1_545 S
Tb120 O142 2.399 1_545 S
Tb121 O131 2.322 1_554 S
Tb121 O132 2.349 . S
Tb121 O134 2.415 . S
Tb121 O135 2.399 . S
Tb121 O136 2.325 . S
Tb121 O139 2.303 . S
Tb121 C150 2.764 . S
C122 O138 1.261 . S
C122 O139 1.257 . S
C123 C126 1.358 . S
C123 C127 1.332 . S
C123 C129 1.504 . S
C124 C125 1.373 . S
C124 C128 1.308 . S
C125 C124 1.373 . S
C125 C126 1.429 . S
C125 H152 0.932 . S
C126 C123 1.358 . S
C126 C125 1.429 . S
C126 H153 0.930 . S
C127 C123 1.332 . S
C127 C128 1.394 . S
C127 H154 0.932 . S
C128 C124 1.308 . S
C128 C127 1.394 . S
C128 H155 0.929 . S
C129 Tb120 2.764 1_565 S
C129 C123 1.504 . S
C129 O141 1.239 . S
C129 O142 1.263 . S
O130 Tb120 2.325 . S
O130 C140 1.236 . S
O131 Tb121 2.322 1_556 S
O131 C140 1.257 . S
O132 Tb121 2.349 . S
O132 C143 1.261 . S
O133 Tb120 2.303 1_554 S
O133 C143 1.257 . S
O134 Tb121 2.415 . S
O134 C150 1.239 . S
O135 Tb121 2.399 . S
O135 C150 1.263 . S
O136 Tb121 2.325 . S
O136 C151 1.236 . S
O137 Tb120 2.322 1_554 S
O137 C151 1.257 . S
O138 Tb120 2.349 1_554 S
O138 C122 1.261 . S
O139 Tb121 2.303 . S
O139 C122 1.257 . S
C140 O130 1.236 . S
C140 O131 1.257 . S
O141 Tb120 2.415 1_565 S
O141 C129 1.239 . S
O142 Tb120 2.399 1_565 S
O142 C129 1.263 . S
C143 O132 1.261 . S
C143 O133 1.257 . S
C144 C147 1.358 . S
C144 C148 1.332 . S
C144 C150 1.504 . S
C145 C146 1.373 . S
C145 C149 1.308 . S
C146 C145 1.373 . S
C146 C147 1.429 . S
C146 H156 0.932 . S
C147 C144 1.358 . S
C147 C146 1.429 . S
C147 H157 0.930 . S
C148 C144 1.332 . S
C148 C149 1.394 . S
C148 H158 0.932 . S
C149 C145 1.308 . S
C149 C148 1.394 . S
C149 H159 0.929 . S
C150 Tb121 2.764 . S
C150 O134 1.239 . S
C150 O135 1.263 . S
C150 C144 1.504 . S
C151 O136 1.236 . S
C151 O137 1.257 . S
H152 C125 0.932 . S
H153 C126 0.930 . S
H154 C127 0.932 . S
H155 C128 0.929 . S
H156 C146 0.932 . S
H157 C147 0.930 . S
H158 C148 0.932 . S
H159 C149 0.929 . S
Tb160 C169 2.764 . S
Tb160 O170 2.325 . S
Tb160 O173 2.303 . S
Tb160 O177 2.322 . S
Tb160 O178 2.349 . S
Tb160 O181 2.415 1_565 S
Tb160 O182 2.399 . S
Tb161 O171 2.322 . S
Tb161 O172 2.349 . S
Tb161 O174 2.415 . S
Tb161 O175 2.399 . S
Tb161 O176 2.325 . S
Tb161 O179 2.303 . S
Tb161 C190 2.764 . S
C162 O178 1.261 . S
C162 O179 1.257 . S
C163 C166 1.358 1_545 S
C163 C167 1.332 . S
C163 C169 1.504 1_545 S
C164 C165 1.373 . S
C164 C168 1.308 . S
C165 C164 1.373 . S
C165 C166 1.429 1_545 S
C165 H192 0.932 . S
C166 C163 1.358 1_565 S
C166 C165 1.429 1_565 S
C166 H193 0.930 . S
C167 C163 1.332 . S
C167 C168 1.394 . S
C167 H194 0.932 . S
C168 C164 1.308 . S
C168 C167 1.394 . S
C168 H195 0.929 . S
C169 Tb160 2.764 . S
C169 C163 1.504 1_565 S
C169 O181 1.239 1_565 S
C169 O182 1.263 . S
O170 Tb160 2.325 . S
O170 C180 1.236 . S
O171 Tb161 2.322 . S
O171 C180 1.257 . S
O172 Tb161 2.349 . S
O172 C183 1.261 1_565 S
O173 Tb160 2.303 . S
O173 C183 1.257 1_565 S
O174 Tb161 2.415 . S
O174 C190 1.239 . S
O175 Tb161 2.399 . S
O175 C190 1.263 . S
O176 Tb161 2.325 . S
O176 C191 1.236 . S
O177 Tb160 2.322 . S
O177 C191 1.257 . S
O178 Tb160 2.349 . S
O178 C162 1.261 . S
O179 Tb161 2.303 . S
O179 C162 1.257 . S
C180 O170 1.236 . S
C180 O171 1.257 . S
O181 Tb160 2.415 1_545 S
O181 C169 1.239 1_545 S
O182 Tb160 2.399 . S
O182 C169 1.263 . S
C183 O172 1.261 1_545 S
C183 O173 1.257 1_545 S
C184 C187 1.358 . S
C184 C188 1.332 . S
C184 C190 1.504 . S
C185 C186 1.373 . S
C185 C189 1.308 . S
C186 C185 1.373 . S
C186 C187 1.429 . S
C186 H196 0.932 . S
C187 C184 1.358 . S
C187 C186 1.429 . S
C187 H197 0.930 . S
C188 C184 1.332 . S
C188 C189 1.394 . S
C188 H198 0.932 . S
C189 C185 1.308 . S
C189 C188 1.394 . S
C189 H199 0.929 . S
C190 Tb161 2.764 . S
C190 O174 1.239 . S
C190 O175 1.263 . S
C190 C184 1.504 . S
C191 O176 1.236 . S
C191 O177 1.257 . S
H192 C165 0.932 . S
H193 C166 0.930 . S
H194 C167 0.932 . S
H195 C168 0.929 . S
H196 C186 0.932 . S
H197 C187 0.930 . S
H198 C188 0.932 . S
H199 C189 0.929 . S
Tb200 C209 2.764 . S
Tb200 O210 2.325 1_455 S
Tb200 O213 2.303 . S
Tb200 O217 2.322 . S
Tb200 O218 2.349 . S
Tb200 O221 2.415 . S
Tb200 O222 2.399 . S
Tb201 O211 2.322 . S
Tb201 O212 2.349 . S
Tb201 O214 2.415 . S
Tb201 O215 2.399 . S
Tb201 O216 2.325 1_655 S
Tb201 O219 2.303 . S
Tb201 C230 2.764 . S
C202 O218 1.257 1_655 S
C202 O219 1.261 . S
C203 C206 1.358 . S
C203 C207 1.332 . S
C203 C209 1.504 . S
C204 C205 1.373 . S
C204 C208 1.308 1_565 S
C205 C204 1.373 . S
C205 C206 1.429 . S
C205 H232 0.932 . S
C206 C203 1.358 . S
C206 C205 1.429 . S
C206 H233 0.930 . S
C207 C203 1.332 . S
C207 C208 1.394 1_565 S
C207 H234 0.932 1_565 S
C208 C204 1.308 1_545 S
C208 C207 1.394 1_545 S
C208 H235 0.929 . S
C209 Tb200 2.764 . S
C209 C203 1.504 . S
C209 O221 1.239 . S
C209 O222 1.263 . S
O210 Tb200 2.325 1_655 S
O210 C220 1.236 . S
O211 Tb201 2.322 . S
O211 C220 1.257 . S
O212 Tb201 2.349 . S
O212 C223 1.255 1_655 S
O213 Tb200 2.303 . S
O213 C223 1.264 . S
O214 Tb201 2.415 . S
O214 C230 1.239 . S
O215 Tb201 2.399 . S
O215 C230 1.263 . S
O216 Tb201 2.325 1_455 S
O216 C231 1.236 . S
O217 Tb200 2.322 . S
O217 C231 1.257 . S
O218 Tb200 2.349 . S
O218 C202 1.257 1_455 S
O219 Tb201 2.303 . S
O219 C202 1.261 . S
C220 O210 1.236 . S
C220 O211 1.257 . S
O221 Tb200 2.415 . S
O221 C209 1.239 . S
O222 Tb200 2.399 . S
O222 C209 1.263 . S
C223 O212 1.255 1_455 S
C223 O213 1.264 . S
C224 C227 1.358 . S
C224 C228 1.332 . S
C224 C230 1.504 . S
C225 C226 1.373 . S
C225 C229 1.308 . S
C226 C225 1.373 . S
C226 C227 1.429 . S
C226 H236 0.932 . S
C227 C224 1.358 . S
C227 C226 1.429 . S
C227 H237 0.930 . S
C228 C224 1.332 . S
C228 C229 1.394 . S
C228 H238 0.932 . S
C229 C225 1.308 . S
C229 C228 1.394 . S
C229 H239 0.929 . S
C230 Tb201 2.764 . S
C230 O214 1.239 . S
C230 O215 1.263 . S
C230 C224 1.504 . S
C231 O216 1.236 . S
C231 O217 1.257 . S
H232 C205 0.932 . S
H233 C206 0.930 . S
H234 C207 0.932 1_545 S
H235 C208 0.929 . S
H236 C226 0.932 . S
H237 C227 0.930 . S
H238 C228 0.932 . S
H239 C229 0.929 . S
C240 C241 1.363 . S
C240 C246 1.379 1_545 S
C240 N248 1.356 1_554 S
C241 C240 1.363 . S
C241 C247 1.363 1_655 S
C242 C243 1.363 . S
C242 C247 1.379 . S
C242 N249 1.356 . S
C243 C242 1.363 . S
C243 C246 1.363 1_445 S
N244 C246 1.356 1_556 S
N244 H256 0.984 . S
N244 H257 0.985 1_656 S
N245 C247 1.360 . S
N245 H250 0.978 1_455 S
N245 H251 0.987 . S
C246 C240 1.379 1_565 S
C246 C243 1.363 1_665 S
C246 N244 1.356 1_554 S
C247 C241 1.363 1_455 S
C247 C242 1.379 . S
C247 N245 1.360 . S
N248 C240 1.356 1_556 S
N248 H254 0.984 1_545 S
N248 H255 0.984 . S
N249 C242 1.356 . S
N249 H252 0.984 . S
N249 H253 0.985 . S
H250 N245 0.978 1_655 S
H251 N245 0.987 . S
H252 N249 0.984 . S
H253 N249 0.985 . S
H254 N248 0.984 1_565 S
H255 N248 0.984 . S
H256 N244 0.984 . S
H257 N244 0.985 1_454 S
C258 C259 1.363 . S
C258 C264 1.379 1_655 S
C258 N266 1.356 . S
C259 C258 1.363 . S
C259 C265 1.363 . S
C260 C261 1.363 . S
C260 C265 1.379 1_455 S
C260 N267 1.356 . S
C261 C260 1.363 . S
C261 C264 1.363 . S
N262 C264 1.356 . S
N262 H274 0.984 . S
N262 H275 0.985 . S
N263 C265 1.356 . S
N263 H268 0.984 . S
N263 H269 0.985 . S
C264 C258 1.379 1_455 S
C264 C261 1.363 . S
C264 N262 1.356 . S
C265 C259 1.363 . S
C265 C260 1.379 1_655 S
C265 N263 1.356 . S
N266 C258 1.356 . S
N266 H272 0.984 . S
N266 H273 0.984 . S
N267 C260 1.356 . S
N267 H270 0.984 . S
N267 H271 0.985 . S
H268 N263 0.984 . S
H269 N263 0.985 . S
H270 N267 0.984 . S
H271 N267 0.985 . S
H272 N266 0.984 . S
H273 N266 0.984 . S
H274 N262 0.984 . S
H275 N262 0.985 . S
C276 C277 1.363 . S
C276 C282 1.379 . S
C276 N284 1.359 1_455 S
C277 C276 1.363 . S
C277 C283 1.363 . S
C278 C279 1.363 . S
C278 C283 1.379 . S
C278 N285 1.356 . S
C279 C278 1.363 . S
C279 C282 1.363 . S
N280 C282 1.356 . S
N280 H292 0.984 1_455 S
N280 H293 0.985 . S
N281 C283 1.356 . S
N281 H286 0.984 1_545 S
N281 H287 0.985 . S
C282 C276 1.379 . S
C282 C279 1.363 . S
C282 N280 1.356 . S
C283 C277 1.363 . S
C283 C278 1.379 . S
C283 N281 1.356 . S
N284 C276 1.359 1_655 S
N284 H290 0.986 . S
N284 H291 0.981 1_545 S
N285 C278 1.356 . S
N285 H288 0.984 . S
N285 H289 0.985 . S
H286 N281 0.984 1_565 S
H287 N281 0.985 . S
H288 N285 0.984 . S
H289 N285 0.985 . S
H290 N284 0.986 . S
H291 N284 0.981 1_565 S
H292 N280 0.984 1_655 S
H293 N280 0.985 . S
C294 C295 1.363 . S
C294 C300 1.379 . S
C294 N302 1.356 . S
C295 C294 1.363 . S
C295 C301 1.363 . S
C296 C297 1.363 . S
C296 C301 1.379 . S
C296 N303 1.356 . S
C297 C296 1.363 . S
C297 C300 1.363 . S
N298 C300 1.356 . S
N298 H310 0.984 . S
N298 H311 0.985 . S
N299 C301 1.356 . S
N299 H304 0.984 . S
N299 H305 0.985 . S
C300 C294 1.379 . S
C300 C297 1.363 . S
C300 N298 1.356 . S
C301 C295 1.363 . S
C301 C296 1.379 . S
C301 N299 1.356 . S
N302 C294 1.356 . S
N302 H308 0.984 . S
N302 H309 0.984 . S
N303 C296 1.356 . S
N303 H306 0.984 . S
N303 H307 0.985 . S
H304 N299 0.984 . S
H305 N299 0.985 . S
H306 N303 0.984 . S
H307 N303 0.985 . S
H308 N302 0.984 . S
H309 N302 0.984 . S
H310 N298 0.984 . S
H311 N298 0.985 . S
C312 C313 1.363 . S
C312 C318 1.379 1_455 S
C312 N320 1.356 . S
C313 C312 1.363 . S
C313 C319 1.363 . S
C314 C315 1.363 . S
C314 C319 1.379 1_655 S
C314 N321 1.356 . S
C315 C314 1.363 . S
C315 C318 1.363 . S
N316 C318 1.356 . S
N316 H328 0.984 . S
N316 H329 0.985 . S
N317 C319 1.356 . S
N317 H322 0.984 . S
N317 H323 0.985 . S
C318 C312 1.379 1_655 S
C318 C315 1.363 . S
C318 N316 1.356 . S
C319 C313 1.363 . S
C319 C314 1.379 1_455 S
C319 N317 1.356 . S
N320 C312 1.356 . S
N320 H326 0.984 . S
N320 H327 0.984 . S
N321 C314 1.356 . S
N321 H324 0.984 . S
N321 H325 0.985 . S
H322 N317 0.984 . S
H323 N317 0.985 . S
H324 N321 0.984 . S
H325 N321 0.985 . S
H326 N320 0.984 . S
H327 N320 0.984 . S
H328 N316 0.984 . S
H329 N316 0.985 . S
C330 C331 1.363 . S
C330 C336 1.379 . S
C330 N338 1.356 . S
C331 C330 1.363 . S
C331 C337 1.363 . S
C332 C333 1.363 . S
C332 C337 1.379 . S
C332 N339 1.356 . S
C333 C332 1.363 . S
C333 C336 1.363 . S
N334 C336 1.356 . S
N334 H346 0.984 . S
N334 H347 0.985 . S
N335 C337 1.356 . S
N335 H340 0.984 . S
N335 H341 0.985 . S
C336 C330 1.379 . S
C336 C333 1.363 . S
C336 N334 1.356 . S
C337 C331 1.363 . S
C337 C332 1.379 . S
C337 N335 1.356 . S
N338 C330 1.356 . S
N338 H344 0.984 . S
N338 H345 0.984 . S
N339 C332 1.356 . S
N339 H342 0.984 . S
N339 H343 0.985 . S
H340 N335 0.984 . S
H341 N335 0.985 . S
H342 N339 0.984 . S
H343 N339 0.985 . S
H344 N338 0.984 . S
H345 N338 0.984 . S
H346 N334 0.984 . S
H347 N334 0.985 . S
C348 C349 1.363 . S
C348 C354 1.379 . S
C348 N356 1.356 . S
C349 C348 1.363 . S
C349 C355 1.363 . S
C350 C351 1.363 . S
C350 C355 1.379 . S
C350 N357 1.356 . S
C351 C350 1.363 . S
C351 C354 1.363 . S
N352 C354 1.356 . S
N352 H364 0.984 . S
N352 H365 0.985 . S
N353 C355 1.356 . S
N353 H358 0.984 . S
N353 H359 0.985 . S
C354 C348 1.379 . S
C354 C351 1.363 . S
C354 N352 1.356 . S
C355 C349 1.363 . S
C355 C350 1.379 . S
C355 N353 1.356 . S
N356 C348 1.356 . S
N356 H362 0.984 . S
N356 H363 0.984 . S
N357 C350 1.356 . S
N357 H360 0.984 . S
N357 H361 0.985 . S
H358 N353 0.984 . S
H359 N353 0.985 . S
H360 N357 0.984 . S
H361 N357 0.985 . S
H362 N356 0.984 . S
H363 N356 0.984 . S
H364 N352 0.984 . S
H365 N352 0.985 . S
C366 C367 1.363 . S
C366 C372 1.379 . S
C366 N374 1.356 . S
C367 C366 1.363 . S
C367 C373 1.363 . S
C368 C369 1.363 . S
C368 C373 1.379 . S
C368 N375 1.356 . S
C369 C368 1.363 . S
C369 C372 1.363 . S
N370 C372 1.356 1_455 S
N370 H382 0.984 . S
N370 H383 0.985 . S
N371 C373 1.356 . S
N371 H376 0.984 . S
N371 H377 0.985 . S
C372 C366 1.379 . S
C372 C369 1.363 . S
C372 N370 1.356 1_655 S
C373 C367 1.363 . S
C373 C368 1.379 . S
C373 N371 1.356 . S
N374 C366 1.356 . S
N374 H380 0.984 . S
N374 H381 0.984 . S
N375 C368 1.356 . S
N375 H378 0.984 1_655 S
N375 H379 0.985 . S
H376 N371 0.984 . S
H377 N371 0.985 . S
H378 N375 0.984 1_455 S
H379 N375 0.985 . S
H380 N374 0.984 . S
H381 N374 0.984 . S
H382 N370 0.984 . S
H383 N370 0.985 . S
C384 C385 1.363 . S
C384 C390 1.379 . S
C384 N392 1.356 . S
C385 C384 1.363 . S
C385 C391 1.363 . S
C386 C387 1.363 . S
C386 C391 1.379 . S
C386 N393 1.356 . S
C387 C386 1.363 . S
C387 C390 1.363 . S
N388 C390 1.356 . S
N388 H400 0.984 . S
N388 H401 0.985 . S
N389 C391 1.356 . S
N389 H394 0.984 1_545 S
N389 H395 0.985 . S
C390 C384 1.379 . S
C390 C387 1.363 . S
C390 N388 1.356 . S
C391 C385 1.363 . S
C391 C386 1.379 . S
C391 N389 1.356 . S
N392 C384 1.356 . S
N392 H398 0.984 . S
N392 H399 0.984 1_545 S
N393 C386 1.356 . S
N393 H396 0.984 . S
N393 H397 0.985 . S
H394 N389 0.984 1_565 S
H395 N389 0.985 . S
H396 N393 0.984 . S
H397 N393 0.985 . S
H398 N392 0.984 . S
H399 N392 0.984 1_565 S
H400 N388 0.984 . S
H401 N388 0.985 . S
C402 C403 1.363 1_556 S
C402 C408 1.374 1_556 S
C402 N410 1.356 1_545 S
C403 C402 1.363 1_554 S
C403 C409 1.363 . S
C404 C405 1.363 . S
C404 C409 1.379 . S
C404 N411 1.356 . S
C405 C404 1.363 . S
C405 C408 1.395 . S
N406 C408 1.337 1_556 S
N406 H418 0.984 . S
N406 H419 0.985 . S
N407 C409 1.356 . S
N407 H412 0.984 1_545 S
N407 H413 0.985 . S
C408 C402 1.374 1_554 S
C408 C405 1.395 . S
C408 N406 1.337 1_554 S
C409 C403 1.363 . S
C409 C404 1.379 . S
C409 N407 1.356 . S
N410 C402 1.356 1_565 S
N410 H416 0.984 . S
N410 H417 0.984 . S
N411 C404 1.356 . S
N411 H414 0.984 . S
N411 H415 0.985 . S
H412 N407 0.984 1_565 S
H413 N407 0.985 . S
H414 N411 0.984 . S
H415 N411 0.985 . S
H416 N410 0.984 . S
H417 N410 0.984 . S
H418 N406 0.984 . S
H419 N406 0.985 . S
C420 C421 1.363 . S
C420 C426 1.379 . S
C420 N428 1.356 . S
C421 C420 1.363 . S
C421 C427 1.363 . S
C422 C423 1.363 . S
C422 C427 1.379 . S
C422 N429 1.356 . S
C423 C422 1.363 . S
C423 C426 1.363 . S
N424 C426 1.356 . S
N424 H436 0.984 . S
N424 H437 0.985 . S
N425 C427 1.356 . S
N425 H430 0.984 . S
N425 H431 0.985 . S
C426 C420 1.379 . S
C426 C423 1.363 . S
C426 N424 1.356 . S
C427 C421 1.363 . S
C427 C422 1.379 . S
C427 N425 1.356 . S
N428 C420 1.356 . S
N428 H434 0.984 . S
N428 H435 0.984 . S
N429 C422 1.356 . S
N429 H432 0.984 . S
N429 H433 0.985 . S
H430 N425 0.984 . S
H431 N425 0.985 . S
H432 N429 0.984 . S
H433 N429 0.985 . S
H434 N428 0.984 . S
H435 N428 0.984 . S
H436 N424 0.984 . S
H437 N424 0.985 . S
C438 C439 1.363 . S
C438 C444 1.379 1_455 S
C438 N446 1.356 . S
C439 C438 1.363 . S
C439 C445 1.363 . S
C440 C441 1.363 1_455 S
C440 C445 1.379 . S
C440 N447 1.356 . S
C441 C440 1.363 1_655 S
C441 C444 1.363 . S
N442 C444 1.356 . S
N442 H454 0.984 . S
N442 H455 0.985 . S
N443 C445 1.356 . S
N443 H448 0.984 . S
N443 H449 0.985 . S
C444 C438 1.379 1_655 S
C444 C441 1.363 . S
C444 N442 1.356 . S
C445 C439 1.363 . S
C445 C440 1.379 . S
C445 N443 1.356 . S
N446 C438 1.356 . S
N446 H452 0.984 . S
N446 H453 0.984 . S
N447 C440 1.356 . S
N447 H450 0.978 1_455 S
N447 H451 0.985 . S
H448 N443 0.984 . S
H449 N443 0.985 . S
H450 N447 0.978 1_655 S
H451 N447 0.985 . S
H452 N446 0.984 . S
H453 N446 0.984 . S
H454 N442 0.984 . S
H455 N442 0.985 . S
C456 C457 1.363 . S
C456 C462 1.379 . S
C456 N464 1.356 . S
C457 C456 1.363 . S
C457 C463 1.363 . S
C458 C459 1.363 . S
C458 C463 1.379 . S
C458 N465 1.356 . S
C459 C458 1.363 . S
C459 C462 1.363 . S
N460 C462 1.356 . S
N460 H472 0.984 . S
N460 H473 0.985 . S
N461 C463 1.356 . S
N461 H466 0.984 . S
N461 H467 0.985 . S
C462 C456 1.379 . S
C462 C459 1.363 . S
C462 N460 1.356 . S
C463 C457 1.363 . S
C463 C458 1.379 . S
C463 N461 1.356 . S
N464 C456 1.356 . S
N464 H470 0.984 . S
N464 H471 0.984 . S
N465 C458 1.356 . S
N465 H468 0.984 . S
N465 H469 0.985 . S
H466 N461 0.984 . S
H467 N461 0.985 . S
H468 N465 0.984 . S
H469 N465 0.985 . S
H470 N464 0.984 . S
H471 N464 0.984 . S
H472 N460 0.984 . S
H473 N460 0.985 . S
C474 C475 1.363 . S
C474 C480 1.379 . S
C474 N482 1.356 . S
C475 C474 1.363 . S
C475 C481 1.363 . S
C476 C477 1.363 . S
C476 C481 1.379 . S
C476 N483 1.356 . S
C477 C476 1.363 . S
C477 C480 1.363 . S
N478 C480 1.356 . S
N478 H490 0.984 . S
N478 H491 0.985 . S
N479 C481 1.356 . S
N479 H484 0.984 . S
N479 H485 0.985 . S
C480 C474 1.379 . S
C480 C477 1.363 . S
C480 N478 1.356 . S
C481 C475 1.363 . S
C481 C476 1.379 . S
C481 N479 1.356 . S
N482 C474 1.356 . S
N482 H488 0.984 . S
N482 H489 0.984 . S
N483 C476 1.356 . S
N483 H486 0.984 . S
N483 H487 0.985 . S
H484 N479 0.984 . S
H485 N479 0.985 . S
H486 N483 0.984 . S
H487 N483 0.985 . S
H488 N482 0.984 . S
H489 N482 0.984 . S
H490 N478 0.984 . S
H491 N478 0.985 . S
C492 C493 1.363 1_455 S
C492 C498 1.379 1_455 S
C492 N500 1.356 . S
C493 C492 1.363 1_655 S
C493 C499 1.363 . S
C494 C495 1.363 . S
C494 C499 1.379 . S
C494 N501 1.356 . S
C495 C494 1.363 . S
C495 C498 1.363 . S
N496 C498 1.356 1_455 S
N496 H508 0.984 . S
N496 H509 0.985 1_455 S
N497 C499 1.356 . S
N497 H502 0.984 . S
N497 H503 0.985 . S
C498 C492 1.379 1_655 S
C498 C495 1.363 . S
C498 N496 1.356 1_655 S
C499 C493 1.363 . S
C499 C494 1.379 . S
C499 N497 1.356 . S
N500 C492 1.356 . S
N500 H506 0.984 . S
N500 H507 0.984 . S
N501 C494 1.356 . S
N501 H504 0.984 . S
N501 H505 0.985 . S
H502 N497 0.984 . S
H503 N497 0.985 . S
H504 N501 0.984 . S
H505 N501 0.985 . S
H506 N500 0.984 . S
H507 N500 0.984 . S
H508 N496 0.984 . S
H509 N496 0.985 1_655 S
C510 C511 1.363 . S
C510 C516 1.379 . S
C510 N518 1.356 . S
C511 C510 1.363 . S
C511 C517 1.363 1_565 S
C512 C513 1.363 1_545 S
C512 C517 1.379 . S
C512 N519 1.356 . S
C513 C512 1.363 1_565 S
C513 C516 1.363 . S
N514 C516 1.356 . S
N514 H526 0.984 . S
N514 H527 0.985 . S
N515 C517 1.356 . S
N515 H520 0.984 . S
N515 H521 0.985 . S
C516 C510 1.379 . S
C516 C513 1.363 . S
C516 N514 1.356 . S
C517 C511 1.363 1_545 S
C517 C512 1.379 . S
C517 N515 1.356 . S
N518 C510 1.356 . S
N518 H524 0.984 . S
N518 H525 0.984 . S
N519 C512 1.356 . S
N519 H522 0.984 . S
N519 H523 0.985 . S
H520 N515 0.984 . S
H521 N515 0.985 . S
H522 N519 0.984 . S
H523 N519 0.985 . S
H524 N518 0.984 . S
H525 N518 0.984 . S
H526 N514 0.984 . S
H527 N514 0.985 . S
C528 C529 1.363 . S
C528 C534 1.379 . S
C528 N536 1.356 . S
C529 C528 1.363 . S
C529 C535 1.363 . S
C530 C531 1.363 . S
C530 C535 1.379 . S
C530 N537 1.356 . S
C531 C530 1.363 . S
C531 C534 1.363 . S
N532 C534 1.356 . S
N532 H544 0.984 . S
N532 H545 0.985 . S
N533 C535 1.356 . S
N533 H538 0.984 . S
N533 H539 0.985 . S
C534 C528 1.379 . S
C534 C531 1.363 . S
C534 N532 1.356 . S
C535 C529 1.363 . S
C535 C530 1.379 . S
C535 N533 1.356 . S
N536 C528 1.356 . S
N536 H542 0.984 . S
N536 H543 0.984 . S
N537 C530 1.356 . S
N537 H540 0.984 . S
N537 H541 0.985 1_655 S
H538 N533 0.984 . S
H539 N533 0.985 . S
H540 N537 0.984 . S
H541 N537 0.985 1_455 S
H542 N536 0.984 . S
H543 N536 0.984 . S
H544 N532 0.984 . S
H545 N532 0.985 . S
C546 C547 1.363 . S
C546 C552 1.379 . S
C546 N554 1.356 . S
C547 C546 1.363 . S
C547 C553 1.363 . S
C548 C549 1.363 . S
C548 C553 1.379 . S
C548 N555 1.356 . S
C549 C548 1.363 . S
C549 C552 1.363 . S
N550 C552 1.356 . S
N550 H562 0.984 . S
N550 H563 0.985 . S
N551 C553 1.356 . S
N551 H556 0.984 . S
N551 H557 0.985 1_565 S
C552 C546 1.379 . S
C552 C549 1.363 . S
C552 N550 1.356 . S
C553 C547 1.363 . S
C553 C548 1.379 . S
C553 N551 1.356 . S
N554 C546 1.356 . S
N554 H560 0.984 1_455 S
N554 H561 0.984 . S
N555 C548 1.356 . S
N555 H558 0.984 . S
N555 H559 0.985 1_565 S
H556 N551 0.984 . S
H557 N551 0.985 1_545 S
H558 N555 0.984 . S
H559 N555 0.985 1_545 S
H560 N554 0.984 1_655 S
H561 N554 0.984 . S
H562 N550 0.984 . S
H563 N550 0.985 . S
C241 C143 1.397 . S
C243 C23 1.313 . S
C259 C183 1.313 . S
C261 C63 1.397 . S
C277 C223 1.395 1_545 S
C279 C103 1.313 . S
C295 C25 1.289 . S
C297 C84 1.136 . S
C313 C44 1.204 . S
C315 C145 1.077 . S
C331 C105 1.289 . S
C333 C164 1.136 . S
C349 C124 1.204 . S
C351 C225 1.078 . S
C367 C185 1.290 . S
C369 C4 1.136 1_655 S
C385 C204 1.204 1_545 S
C387 C65 1.077 . S
C403 C2 0.887 1_545 S
C405 C122 0.803 . S
C421 C42 0.804 . S
C423 C162 0.889 . S
C439 C82 0.886 . S
C441 C202 0.801 . S
C457 C20 4.309 . S
C459 C60 4.302 . S
C475 C71 4.183 . S
C477 C111 4.150 . S
C493 C100 4.309 1_655 S
C495 C140 4.302 . S
C511 C151 4.183 1_565 S
C513 C191 4.150 . S
C529 C180 4.309 . S
C531 C220 4.303 . S
C547 C231 4.183 . S
C549 C31 4.150 . S
