# Generated by pormake.
# Topology umh, (4)-cn, num edge types: 1
# Building blocks:
#     Node 0, Type 0, BuildingBlock: ICAMEG_clean_sbu_1, # of connection points: 4
#     Node 1, Type 0, BuildingBlock: ICAMEG_clean_sbu_1, # of connection points: 4
#     Node 2, Type 0, BuildingBlock: ICAMEG_clean_sbu_1, # of connection points: 4
#     Node 3, Type 0, BuildingBlock: ICAMEG_clean_sbu_1, # of connection points: 4
#     Node 4, Type 0, BuildingBlock: ICAMEG_clean_sbu_1, # of connection points: 4
#     Node 5, Type 0, BuildingBlock: ICAMEG_clean_sbu_1, # of connection points: 4
#     Node 6, Type 0, BuildingBlock: ICAMEG_clean_sbu_1, # of connection points: 4
#     Node 7, Type 0, BuildingBlock: ICAMEG_clean_sbu_1, # of connection points: 4
#     Node 8, Type 0, BuildingBlock: ICAMEG_clean_sbu_1, # of connection points: 4
#     Node 9, Type 0, BuildingBlock: ICAMEG_clean_sbu_1, # of connection points: 4
#     Node 10, Type 0, BuildingBlock: ICAMEG_clean_sbu_1, # of connection points: 4
#     Node 11, Type 0, BuildingBlock: ICAMEG_clean_sbu_1, # of connection points: 4
#     Node 12, Type 0, BuildingBlock: ICAMEG_clean_sbu_1, # of connection points: 4
#     Node 13, Type 0, BuildingBlock: ICAMEG_clean_sbu_1, # of connection points: 4
#     Node 14, Type 0, BuildingBlock: ICAMEG_clean_sbu_1, # of connection points: 4
#     Node 15, Type 0, BuildingBlock: ICAMEG_clean_sbu_1, # of connection points: 4
#     Edge 16, Type (0, 0), BuildingBlock: EZIPEK_clean_linker_0, # of connection points: 2
#     Edge 17, Type (0, 0), BuildingBlock: EZIPEK_clean_linker_0, # of connection points: 2
#     Edge 18, Type (0, 0), BuildingBlock: EZIPEK_clean_linker_0, # of connection points: 2
#     Edge 19, Type (0, 0), BuildingBlock: EZIPEK_clean_linker_0, # of connection points: 2
#     Edge 20, Type (0, 0), BuildingBlock: EZIPEK_clean_linker_0, # of connection points: 2
#     Edge 21, Type (0, 0), BuildingBlock: EZIPEK_clean_linker_0, # of connection points: 2
#     Edge 22, Type (0, 0), BuildingBlock: EZIPEK_clean_linker_0, # of connection points: 2
#     Edge 23, Type (0, 0), BuildingBlock: EZIPEK_clean_linker_0, # of connection points: 2
#     Edge 24, Type (0, 0), BuildingBlock: EZIPEK_clean_linker_0, # of connection points: 2
#     Edge 25, Type (0, 0), BuildingBlock: EZIPEK_clean_linker_0, # of connection points: 2
#     Edge 26, Type (0, 0), BuildingBlock: EZIPEK_clean_linker_0, # of connection points: 2
#     Edge 27, Type (0, 0), BuildingBlock: EZIPEK_clean_linker_0, # of connection points: 2
#     Edge 28, Type (0, 0), BuildingBlock: EZIPEK_clean_linker_0, # of connection points: 2
#     Edge 29, Type (0, 0), BuildingBlock: EZIPEK_clean_linker_0, # of connection points: 2
#     Edge 30, Type (0, 0), BuildingBlock: EZIPEK_clean_linker_0, # of connection points: 2
#     Edge 31, Type (0, 0), BuildingBlock: EZIPEK_clean_linker_0, # of connection points: 2
#     Edge 32, Type (0, 0), BuildingBlock: EZIPEK_clean_linker_0, # of connection points: 2
#     Edge 33, Type (0, 0), BuildingBlock: EZIPEK_clean_linker_0, # of connection points: 2
#     Edge 34, Type (0, 0), BuildingBlock: EZIPEK_clean_linker_0, # of connection points: 2
#     Edge 35, Type (0, 0), BuildingBlock: EZIPEK_clean_linker_0, # of connection points: 2
#     Edge 36, Type (0, 0), BuildingBlock: EZIPEK_clean_linker_0, # of connection points: 2
#     Edge 37, Type (0, 0), BuildingBlock: EZIPEK_clean_linker_0, # of connection points: 2
#     Edge 38, Type (0, 0), BuildingBlock: EZIPEK_clean_linker_0, # of connection points: 2
#     Edge 39, Type (0, 0), BuildingBlock: EZIPEK_clean_linker_0, # of connection points: 2
#     Edge 40, Type (0, 0), BuildingBlock: EZIPEK_clean_linker_0, # of connection points: 2
#     Edge 41, Type (0, 0), BuildingBlock: EZIPEK_clean_linker_0, # of connection points: 2
#     Edge 42, Type (0, 0), BuildingBlock: EZIPEK_clean_linker_0, # of connection points: 2
#     Edge 43, Type (0, 0), BuildingBlock: EZIPEK_clean_linker_0, # of connection points: 2
#     Edge 44, Type (0, 0), BuildingBlock: EZIPEK_clean_linker_0, # of connection points: 2
#     Edge 45, Type (0, 0), BuildingBlock: EZIPEK_clean_linker_0, # of connection points: 2
#     Edge 46, Type (0, 0), BuildingBlock: EZIPEK_clean_linker_0, # of connection points: 2
#     Edge 47, Type (0, 0), BuildingBlock: EZIPEK_clean_linker_0, # of connection points: 2
# Relax obj value: 0.088
# Max RMSD: 0.243
# Mean RMSD: 0.243
data_MOF--net-umh--node1-ICAMEG_clean_sbu_1--edge1-EZIPEK_clean_linker_0
_symmetry_space_group_name_H-M    P1
_symmetry_Int_Tables_number       1
_symmetry_cell_setting            triclinic
loop_
_symmetry_equiv_pos_as_xyz
'x, y, z'
_cell_length_a     31.775038
_cell_length_b     31.777628
_cell_length_c     42.612946
_cell_angle_alpha  90.021078
_cell_angle_beta   90.004308
_cell_angle_gamma 90.041947
loop_
_atom_site_label
_atom_site_type_symbol
_atom_site_fract_x
_atom_site_fract_y
_atom_site_fract_z
_atom_type_partial_charge
Co0 Co 0.29377 0.09114 0.12561 0.0
Co1 Co 0.37472 0.12371 0.1742 0.0
O2 O 0.35304 0.09383 0.13747 0.0
C3 C 0.3366 0.12918 0.07141 0.0
O4 O 0.35632 0.1529 0.09185 0.0
C5 C 0.40562 0.03695 0.1813 0.0
O6 O 0.36686 0.0246 0.17599 0.0
O7 O 0.33208 0.09649 0.20166 0.0
O8 O 0.27644 0.08214 0.17053 0.0
H9 H 0.36458 0.20405 0.27565 0.0
H10 H 0.35244 0.03667 0.08969 0.0
O11 O 0.31014 0.10152 0.08054 0.0
H12 H 0.25443 0.93939 0.14246 0.0
H13 H 0.17321 0.05037 0.0553 0.0
H14 H 0.21443 0.12573 0.15171 0.0
H15 H 0.24687 0.0161 0.14882 0.0
H16 H 0.24748 0.05225 0.07219 0.0
O17 O 0.41482 0.07596 0.18172 0.0
H18 H 0.337 0.16701 0.22918 0.0
H19 H 0.46116 0.13932 0.19899 0.0
H20 H 0.13984 0.12456 0.13577 0.0
H21 H 0.36054 0.96017 0.08206 0.0
H22 H 0.11881 0.08666 0.08724 0.0
H23 H 0.31156 0.91093 0.10881 0.0
O24 O 0.28713 0.15251 0.13165 0.0
H25 H 0.48646 0.12738 0.09069 0.0
H26 H 0.40268 0.21244 0.16457 0.0
H27 H 0.45339 0.24758 0.1295 0.0
H28 H 0.49578 0.20496 0.09224 0.0
H29 H 0.43499 0.09363 0.12589 0.0
H30 H 0.49027 0.17582 0.24529 0.0
H31 H 0.44184 0.20893 0.28384 0.0
O32 O 0.3349 0.17223 0.16733 0.0
C33 C 0.29429 0.08417 0.19738 0.0
C34 C 0.38605 0.19008 0.2589 0.0
C35 C 0.45656 0.17426 0.24184 0.0
N36 N 0.39737 0.15205 0.21091 0.0
C37 C 0.37057 0.16916 0.23247 0.0
C38 C 0.43989 0.15368 0.21564 0.0
C39 C 0.42938 0.19277 0.26348 0.0
C40 C 0.33073 0.01549 0.10113 0.0
N41 N 0.29943 0.03087 0.11984 0.0
C42 C 0.33557 0.97218 0.09683 0.0
C43 C 0.30811 0.94457 0.11187 0.0
C44 C 0.2761 0.96051 0.13079 0.0
C45 C 0.27213 0.004 0.13446 0.0
C46 C 0.18196 0.06686 0.07656 0.0
C47 C 0.20549 0.10888 0.13071 0.0
C48 C 0.22395 0.06802 0.08623 0.0
N49 N 0.23518 0.08867 0.11309 0.0
C50 C 0.16322 0.10845 0.12174 0.0
C51 C 0.15145 0.08723 0.09448 0.0
C52 C 0.30364 0.18023 0.14943 0.0
C53 C 0.46826 0.14628 0.10688 0.0
C54 C 0.4208 0.19368 0.14831 0.0
C55 C 0.4496 0.21375 0.12859 0.0
C56 C 0.47341 0.18982 0.10772 0.0
N57 N 0.41589 0.15096 0.14734 0.0
C58 C 0.43919 0.1273 0.12698 0.0
Co59 Co 0.4108 0.28959 0.62412 0.0
Co60 Co 0.3734 0.36194 0.67744 0.0
O61 O 0.40295 0.34697 0.63878 0.0
C62 C 0.37216 0.33496 0.57122 0.0
O63 O 0.34665 0.35153 0.59193 0.0
C64 C 0.45564 0.40269 0.68126 0.0
O65 O 0.47127 0.36586 0.67374 0.0
O66 O 0.40876 0.32223 0.70213 0.0
O67 O 0.4207 0.26922 0.66844 0.0
H68 H 0.30752 0.33756 0.78322 0.0
H69 H 0.46179 0.35519 0.59224 0.0
O70 O 0.40051 0.30893 0.57969 0.0
H71 H 0.56478 0.26073 0.64213 0.0
H72 H 0.46582 0.17895 0.55019 0.0
H73 H 0.3764 0.20629 0.6425 0.0
H74 H 0.48876 0.24633 0.64616 0.0
H75 H 0.45796 0.25098 0.57097 0.0
O76 O 0.41604 0.40768 0.6841 0.0
H77 H 0.33975 0.3161 0.73305 0.0
H78 H 0.34871 0.44408 0.70521 0.0
H79 H 0.38332 0.13381 0.62254 0.0
H80 H 0.53753 0.37059 0.58721 0.0
H81 H 0.42848 0.11972 0.57613 0.0
H82 H 0.58965 0.32329 0.61249 0.0
O83 O 0.34991 0.27836 0.6289 0.0
H84 H 0.34599 0.47702 0.59895 0.0
H85 H 0.28094 0.37626 0.67237 0.0
H86 H 0.23566 0.42285 0.64083 0.0
H87 H 0.26815 0.47376 0.60381 0.0
H88 H 0.38999 0.42948 0.63063 0.0
H89 H 0.31434 0.4665 0.75432 0.0
H90 H 0.29329 0.41287 0.79372 0.0
O91 O 0.33054 0.31575 0.67144 0.0
C92 C 0.42226 0.28528 0.69601 0.0
C93 C 0.3155 0.36094 0.76589 0.0
C94 C 0.31974 0.43341 0.74983 0.0
N95 N 0.34547 0.37872 0.71596 0.0
C96 C 0.33402 0.34905 0.73751 0.0
C97 C 0.33902 0.42049 0.722 0.0
C98 C 0.30794 0.40334 0.77191 0.0
C99 C 0.48421 0.33442 0.60312 0.0
N100 N 0.47072 0.30027 0.61974 0.0
C101 C 0.5271 0.3433 0.60026 0.0
C102 C 0.55632 0.31677 0.61448 0.0
C103 C 0.54238 0.28172 0.63115 0.0
C104 C 0.49923 0.27388 0.63351 0.0
C105 C 0.4464 0.18461 0.57063 0.0
C106 C 0.39644 0.20037 0.62249 0.0
C107 C 0.44199 0.22531 0.58259 0.0
N108 N 0.41779 0.23265 0.60854 0.0
C109 C 0.4001 0.15927 0.61122 0.0
C110 C 0.42539 0.1514 0.58516 0.0
C111 C 0.32406 0.28728 0.65073 0.0
C112 C 0.33145 0.45504 0.61504 0.0
C113 C 0.29536 0.39809 0.65616 0.0
C114 C 0.26954 0.42454 0.63846 0.0
C115 C 0.28779 0.45313 0.61773 0.0
N116 N 0.33819 0.40004 0.65332 0.0
C117 C 0.35628 0.42815 0.63317 0.0
Co118 Co 0.19758 0.40767 0.13493 0.0
Co119 Co 0.11352 0.37009 0.17948 0.0
O120 O 0.13763 0.40211 0.14448 0.0
C121 C 0.15216 0.38305 0.07505 0.0
O122 O 0.1163 0.3873 0.08977 0.0
C123 C 0.08201 0.45674 0.18679 0.0
O124 O 0.12097 0.46939 0.18297 0.0
O125 O 0.15344 0.39787 0.20925 0.0
O126 O 0.20897 0.42078 0.18101 0.0
H127 H 0.10978 0.26729 0.27027 0.0
H128 H 0.13314 0.45953 0.10066 0.0
O129 O 0.18694 0.39195 0.08896 0.0
H130 H 0.23831 0.56087 0.13886 0.0
H131 H 0.32485 0.44581 0.0701 0.0
H132 H 0.27474 0.38055 0.16819 0.0
H133 H 0.24713 0.48513 0.14862 0.0
H134 H 0.24903 0.44282 0.08221 0.0
O135 O 0.07278 0.41772 0.18606 0.0
H136 H 0.14279 0.30474 0.22657 0.0
H137 H 0.02659 0.36471 0.20543 0.0
H138 H 0.35086 0.38351 0.15737 0.0
H139 H 0.12322 0.53464 0.08999 0.0
H140 H 0.37639 0.41623 0.10796 0.0
H141 H 0.17586 0.58624 0.10936 0.0
O142 O 0.20694 0.34798 0.14305 0.0
H143 H 0.00085 0.36583 0.09623 0.0
H144 H 0.09176 0.28081 0.16513 0.0
H145 H 0.04331 0.24532 0.12872 0.0
H146 H 0.99733 0.28782 0.09388 0.0
H147 H 0.05032 0.40004 0.13253 0.0
H148 H 0.99247 0.32715 0.2488 0.0
H149 H 0.0341 0.27802 0.28179 0.0
O150 O 0.15498 0.32285 0.1734 0.0
C151 C 0.1898 0.41516 0.20738 0.0
C152 C 0.09142 0.28887 0.25625 0.0
C153 C 0.02569 0.32264 0.24435 0.0
N154 N 0.08756 0.33908 0.2141 0.0
C155 C 0.11005 0.3106 0.23138 0.0
C156 C 0.04551 0.34434 0.21996 0.0
C157 C 0.04897 0.29498 0.26276 0.0
C158 C 0.15612 0.48129 0.10934 0.0
N159 N 0.19001 0.46749 0.12613 0.0
C160 C 0.15037 0.52407 0.10314 0.0
C161 C 0.1799 0.553 0.11398 0.0
C162 C 0.21484 0.5388 0.13058 0.0
C163 C 0.21945 0.49578 0.13631 0.0
C164 C 0.31412 0.43147 0.09171 0.0
C165 C 0.28557 0.39525 0.14679 0.0
C166 C 0.27118 0.42946 0.09856 0.0
N167 N 0.25739 0.41173 0.1259 0.0
C168 C 0.32874 0.39665 0.14073 0.0
C169 C 0.34303 0.41493 0.11298 0.0
C170 C 0.18973 0.31896 0.15873 0.0
C171 C 0.02082 0.34694 0.11121 0.0
C172 C 0.07246 0.29972 0.14977 0.0
C173 C 0.04475 0.27934 0.12935 0.0
C174 C 0.01887 0.30319 0.10988 0.0
N175 N 0.07469 0.34271 0.15065 0.0
C176 C 0.04888 0.36622 0.13196 0.0
Co177 Co 0.08685 0.20083 0.62968 0.0
Co178 Co 0.11419 0.11672 0.67773 0.0
O179 O 0.08542 0.14111 0.64123 0.0
C180 C 0.1051 0.15078 0.57096 0.0
O181 O 0.10048 0.11589 0.58687 0.0
C182 C 0.02563 0.08995 0.68443 0.0
O183 O 0.01456 0.12916 0.67942 0.0
O184 O 0.08976 0.16073 0.70546 0.0
O185 O 0.07826 0.21735 0.67476 0.0
H186 H 0.18858 0.12084 0.78184 0.0
H187 H 0.02675 0.14694 0.59317 0.0
O188 O 0.09824 0.18646 0.58394 0.0
H189 H 0.93902 0.25263 0.64657 0.0
H190 H 0.0551 0.32716 0.56241 0.0
H191 H 0.12767 0.27612 0.65732 0.0
H192 H 0.01602 0.25334 0.65288 0.0
H193 H 0.05107 0.25238 0.57762 0.0
O194 O 0.06425 0.07958 0.68523 0.0
H195 H 0.1579 0.15104 0.73383 0.0
H196 H 0.12529 0.02904 0.70133 0.0
H197 H 0.13239 0.35119 0.64312 0.0
H198 H 0.95012 0.14559 0.58571 0.0
H199 H 0.09595 0.37716 0.59533 0.0
H200 H 0.9055 0.19853 0.61269 0.0
O201 O 0.14824 0.20258 0.63581 0.0
H202 H 0.11008 0.00124 0.59679 0.0
H203 H 0.20141 0.08527 0.66626 0.0
H204 H 0.23313 0.03245 0.63125 0.0
H205 H 0.1874 0.98993 0.59617 0.0
H206 H 0.07972 0.05513 0.63154 0.0
H207 H 0.15625 0.99734 0.7488 0.0
H208 H 0.18817 0.04335 0.78951 0.0
O209 O 0.16544 0.15294 0.67071 0.0
C210 C 0.07929 0.19909 0.70144 0.0
C211 C 0.17508 0.1004 0.76417 0.0
C212 C 0.157 0.03111 0.7456 0.0
N213 N 0.14084 0.09187 0.71432 0.0
C214 C 0.15782 0.11735 0.73683 0.0
C215 C 0.13976 0.04925 0.71865 0.0
C216 C 0.17479 0.05694 0.76847 0.0
C217 C 0.00793 0.17035 0.60475 0.0
N218 N 0.02618 0.19999 0.62354 0.0
C219 C 0.96434 0.16933 0.60053 0.0
C220 C 0.93931 0.19899 0.61571 0.0
C221 C 0.95809 0.22929 0.63474 0.0
C222 C 0.00178 0.22935 0.63837 0.0
C223 C 0.07106 0.31625 0.58332 0.0
C224 C 0.11149 0.28722 0.63661 0.0
C225 C 0.06894 0.27392 0.592 0.0
N226 N 0.08888 0.25994 0.61841 0.0
C227 C 0.11438 0.32975 0.62864 0.0
C228 C 0.09397 0.34429 0.6018 0.0
C229 C 0.17517 0.18357 0.65273 0.0
C230 C 0.13036 0.01963 0.61191 0.0
C231 C 0.18125 0.06747 0.65074 0.0
C232 C 0.19942 0.03729 0.63114 0.0
C233 C 0.17374 0.01335 0.61153 0.0
N234 N 0.13868 0.07389 0.65069 0.0
C235 C 0.1133 0.05008 0.63183 0.0
Co236 Co 0.29533 0.4181 0.39032 0.0
Co237 Co 0.36465 0.38509 0.33317 0.0
O238 O 0.35204 0.41123 0.37372 0.0
C239 C 0.34213 0.37539 0.44091 0.0
O240 O 0.35904 0.35183 0.41907 0.0
C241 C 0.40543 0.46783 0.3315 0.0
O242 O 0.36893 0.48281 0.34053 0.0
O243 O 0.32354 0.42223 0.31143 0.0
O244 O 0.27269 0.43121 0.34725 0.0
H245 H 0.33195 0.32498 0.22662 0.0
H246 H 0.3632 0.46572 0.42221 0.0
O247 O 0.31619 0.4044 0.43374 0.0
H248 H 0.26711 0.57351 0.38021 0.0
H249 H 0.18823 0.46735 0.46926 0.0
H250 H 0.21106 0.38608 0.37218 0.0
H251 H 0.2516 0.49809 0.37322 0.0
H252 H 0.25932 0.46095 0.44649 0.0
O253 O 0.41013 0.42845 0.32685 0.0
H254 H 0.31479 0.35515 0.27837 0.0
H255 H 0.4447 0.36336 0.30076 0.0
H256 H 0.13948 0.39165 0.39409 0.0
H257 H 0.3798 0.5408 0.43011 0.0
H258 H 0.12767 0.43268 0.44294 0.0
H259 H 0.33168 0.59532 0.40882 0.0
O260 O 0.28361 0.35772 0.38322 0.0
H261 H 0.48426 0.35136 0.40635 0.0
H262 H 0.37942 0.29248 0.33316 0.0
H263 H 0.42798 0.24474 0.36078 0.0
H264 H 0.48093 0.27412 0.39768 0.0
H265 H 0.43478 0.39783 0.37848 0.0
H266 H 0.46321 0.33204 0.24961 0.0
H267 H 0.40651 0.31234 0.21221 0.0
O268 O 0.31886 0.34161 0.33893 0.0
C269 C 0.2869 0.43481 0.31928 0.0
C270 C 0.35683 0.33266 0.24297 0.0
C271 C 0.43053 0.33689 0.25577 0.0
N272 N 0.37863 0.3603 0.29284 0.0
C273 C 0.34731 0.34983 0.2723 0.0
C274 C 0.41985 0.35454 0.28473 0.0
C275 C 0.39872 0.32584 0.2348 0.0
C276 C 0.34203 0.48922 0.41308 0.0
N277 N 0.30674 0.47746 0.39704 0.0
C278 C 0.3516 0.53171 0.41756 0.0
C279 C 0.32462 0.56228 0.40558 0.0
C280 C 0.28844 0.55006 0.38948 0.0
C281 C 0.27993 0.50727 0.38543 0.0
C282 C 0.19291 0.4497 0.44781 0.0
C283 C 0.20613 0.4043 0.39328 0.0
C284 C 0.23306 0.4461 0.43475 0.0
N285 N 0.23915 0.42411 0.40755 0.0
C286 C 0.16554 0.40721 0.40564 0.0
C287 C 0.15895 0.43019 0.43306 0.0
C288 C 0.2915 0.33348 0.36015 0.0
C289 C 0.46138 0.33817 0.3903 0.0
C290 C 0.40217 0.30554 0.34932 0.0
C291 C 0.42971 0.27833 0.3648 0.0
C292 C 0.45945 0.29484 0.38546 0.0
N293 N 0.40419 0.34803 0.35422 0.0
C294 C 0.43338 0.36441 0.37434 0.0
Co295 Co 0.09185 0.29282 0.88853 0.0
Co296 Co 0.12732 0.37276 0.83952 0.0
O297 O 0.09654 0.35213 0.87633 0.0
C298 C 0.12852 0.33788 0.94363 0.0
O299 O 0.14412 0.3644 0.92323 0.0
C300 C 0.04116 0.4053 0.83146 0.0
O301 O 0.02793 0.36699 0.83733 0.0
O302 O 0.0997 0.32991 0.81238 0.0
O303 O 0.07979 0.27636 0.84385 0.0
H304 H 0.20667 0.35928 0.73777 0.0
H305 H 0.04203 0.35515 0.92459 0.0
O306 O 0.10591 0.30729 0.93378 0.0
H307 H 0.93769 0.26024 0.8763 0.0
H308 H 0.04784 0.1732 0.95869 0.0
H309 H 0.12171 0.21234 0.8612 0.0
H310 H 0.01364 0.24892 0.86801 0.0
H311 H 0.05268 0.24752 0.94239 0.0
O312 O 0.08037 0.41357 0.83105 0.0
H313 H 0.16856 0.33325 0.78421 0.0
H314 H 0.14628 0.45847 0.81451 0.0
H315 H 0.11748 0.13764 0.87651 0.0
H316 H 0.96637 0.36702 0.93423 0.0
H317 H 0.08033 0.11765 0.92559 0.0
H318 H 0.91361 0.31961 0.90972 0.0
O319 O 0.15226 0.28338 0.88108 0.0
H320 H 0.1322 0.48893 0.91982 0.0
H321 H 0.21666 0.39781 0.85055 0.0
H322 H 0.25243 0.4485 0.88523 0.0
H323 H 0.21017 0.49457 0.92019 0.0
H324 H 0.09778 0.43715 0.88531 0.0
H325 H 0.18405 0.486 0.76831 0.0
H326 H 0.215 0.43624 0.7297 0.0
O327 O 0.17511 0.33235 0.84746 0.0
C328 C 0.08409 0.29339 0.81687 0.0
C329 C 0.19369 0.3813 0.75456 0.0
C330 C 0.18105 0.45238 0.77173 0.0
N331 N 0.15647 0.39417 0.8027 0.0
C332 C 0.17218 0.36671 0.78099 0.0
C333 C 0.15983 0.43659 0.79793 0.0
C334 C 0.19832 0.42447 0.75004 0.0
C335 C 0.01926 0.33405 0.91425 0.0
N336 N 0.03224 0.30135 0.89588 0.0
C337 C 0.97647 0.34104 0.91964 0.0
C338 C 0.94688 0.31445 0.90586 0.0
C339 C 0.96037 0.28118 0.88708 0.0
C340 C 0.00342 0.27504 0.88235 0.0
C341 C 0.06403 0.1815 0.93722 0.0
C342 C 0.10524 0.20388 0.88247 0.0
C343 C 0.06691 0.22354 0.9279 0.0
N344 N 0.08716 0.23423 0.90075 0.0
C345 C 0.10306 0.16153 0.89108 0.0
C346 C 0.08226 0.15035 0.91863 0.0
C347 C 0.18125 0.2999 0.86459 0.0
C348 C 0.15098 0.46904 0.90469 0.0
C349 C 0.19798 0.41736 0.86591 0.0
C350 C 0.21845 0.44623 0.88537 0.0
C351 C 0.19471 0.47213 0.90493 0.0
N352 N 0.15504 0.41424 0.86598 0.0
C353 C 0.13158 0.43982 0.88491 0.0
Co354 Co 0.19672 0.09748 0.38367 0.0
Co355 Co 0.11732 0.12615 0.33171 0.0
O356 O 0.13777 0.09858 0.36999 0.0
C357 C 0.14472 0.12386 0.43953 0.0
O358 O 0.11241 0.1283 0.42082 0.0
C359 C 0.08866 0.03831 0.32706 0.0
O360 O 0.12716 0.02728 0.33452 0.0
O361 O 0.16199 0.09844 0.30657 0.0
O362 O 0.21595 0.08608 0.33957 0.0
H363 H 0.13205 0.19489 0.22588 0.0
H364 H 0.13633 0.04305 0.41837 0.0
O365 O 0.17993 0.11083 0.42867 0.0
H366 H 0.24035 0.94598 0.37251 0.0
H367 H 0.3165 0.06167 0.45632 0.0
H368 H 0.2759 0.13324 0.35825 0.0
H369 H 0.24695 0.02254 0.36473 0.0
H370 H 0.24271 0.06112 0.43839 0.0
O371 O 0.07894 0.07698 0.32414 0.0
H372 H 0.15749 0.16475 0.27559 0.0
H373 H 0.03201 0.13997 0.30428 0.0
H374 H 0.35007 0.13443 0.3752 0.0
H375 H 0.12876 0.96681 0.4271 0.0
H376 H 0.3708 0.09845 0.42459 0.0
H377 H 0.18093 0.91761 0.40395 0.0
O378 O 0.20207 0.1584 0.37604 0.0
H379 H 0.99497 0.13213 0.40689 0.0
H380 H 0.0895 0.21526 0.33929 0.0
H381 H 0.03553 0.25146 0.37067 0.0
H382 H 0.98772 0.20989 0.4048 0.0
H383 H 0.05003 0.09732 0.37575 0.0
H384 H 0.00505 0.17062 0.25509 0.0
H385 H 0.05522 0.19839 0.21545 0.0
O386 O 0.15541 0.17612 0.33894 0.0
C387 C 0.19949 0.08653 0.31225 0.0
C388 C 0.10983 0.18318 0.24305 0.0
C389 C 0.03859 0.16966 0.25948 0.0
N390 N 0.09634 0.15174 0.29333 0.0
C391 C 0.12408 0.16624 0.27135 0.0
C392 C 0.05405 0.15262 0.28742 0.0
C393 C 0.06674 0.18509 0.2372 0.0
C394 C 0.15932 0.02198 0.40845 0.0
N395 N 0.19195 0.03736 0.39106 0.0
C396 C 0.15483 0.97876 0.4134 0.0
C397 C 0.18406 0.95118 0.40036 0.0
C398 C 0.21737 0.96708 0.3827 0.0
C399 C 0.22084 0.01049 0.37828 0.0
C400 C 0.30788 0.07739 0.43473 0.0
C401 C 0.28469 0.11729 0.37966 0.0
C402 C 0.26612 0.07723 0.42449 0.0
N403 N 0.25502 0.09687 0.3972 0.0
C404 C 0.32674 0.11817 0.38919 0.0
C405 C 0.33833 0.09802 0.41691 0.0
C406 C 0.18547 0.18533 0.35769 0.0
C407 C 0.01573 0.15063 0.39221 0.0
C408 C 0.06945 0.19687 0.3545 0.0
C409 C 0.03862 0.21759 0.37201 0.0
C410 C 0.01172 0.19424 0.39107 0.0
N411 N 0.07366 0.15407 0.35607 0.0
C412 C 0.04691 0.13099 0.37435 0.0
Co413 Co 0.41161 0.203 0.8858 0.0
Co414 Co 0.3817 0.11673 0.84159 0.0
O415 O 0.41002 0.14279 0.87716 0.0
C416 C 0.37452 0.16251 0.94118 0.0
O417 O 0.35119 0.14203 0.92098 0.0
C418 C 0.46998 0.08944 0.83859 0.0
O419 O 0.48014 0.12936 0.84047 0.0
O420 O 0.4096 0.15605 0.81233 0.0
O421 O 0.42011 0.21625 0.83922 0.0
H422 H 0.26344 0.08592 0.7641 0.0
H423 H 0.46786 0.14317 0.91833 0.0
O424 O 0.40158 0.18949 0.93167 0.0
H425 H 0.56185 0.25236 0.87589 0.0
H426 H 0.44456 0.33062 0.95147 0.0
H427 H 0.37719 0.27895 0.85456 0.0
H428 H 0.48499 0.25739 0.86892 0.0
H429 H 0.44559 0.25499 0.93831 0.0
O430 O 0.43151 0.07783 0.83872 0.0
H431 H 0.29398 0.11772 0.81036 0.0
H432 H 0.41199 0.06036 0.78905 0.0
H433 H 0.37585 0.35482 0.8666 0.0
H434 H 0.54447 0.13665 0.92623 0.0
H435 H 0.40969 0.38111 0.91538 0.0
H436 H 0.59214 0.19149 0.90465 0.0
O437 O 0.35062 0.20758 0.87981 0.0
H438 H 0.37926 0.00935 0.92842 0.0
H439 H 0.29115 0.09488 0.85829 0.0
H440 H 0.25756 0.0472 0.89547 0.0
H441 H 0.30142 0.00375 0.9311 0.0
H442 H 0.41183 0.05735 0.89064 0.0
H443 H 0.38143 0.02782 0.74298 0.0
H444 H 0.30644 0.0401 0.72981 0.0
O445 O 0.33301 0.15752 0.84488 0.0
C446 C 0.41867 0.1951 0.81338 0.0
C447 C 0.29578 0.07929 0.77012 0.0
C448 C 0.36193 0.04685 0.75822 0.0
N449 N 0.35497 0.08943 0.80494 0.0
C450 C 0.31373 0.09698 0.79699 0.0
C451 C 0.37899 0.06522 0.78516 0.0
C452 C 0.31997 0.05381 0.75077 0.0
C453 C 0.48841 0.16676 0.90872 0.0
N454 N 0.47206 0.19963 0.89214 0.0
C455 C 0.53177 0.16309 0.91334 0.0
C456 C 0.55847 0.19386 0.90124 0.0
C457 C 0.54151 0.22794 0.88503 0.0
C458 C 0.49798 0.2304 0.88085 0.0
C459 C 0.42985 0.31957 0.93009 0.0
C460 C 0.39246 0.29019 0.87563 0.0
C461 C 0.43024 0.27678 0.92256 0.0
N462 N 0.41201 0.26266 0.89548 0.0
C463 C 0.39138 0.33317 0.88242 0.0
C464 C 0.4103 0.34789 0.90982 0.0
C465 C 0.32461 0.18998 0.86148 0.0
C466 C 0.35975 0.02749 0.9126 0.0
C467 C 0.31105 0.07547 0.87256 0.0
C468 C 0.29154 0.0487 0.89412 0.0
C469 C 0.31612 0.02445 0.91417 0.0
N470 N 0.354 0.07785 0.87059 0.0
C471 C 0.37813 0.05455 0.89072 0.0
Co472 Co 0.71039 0.89861 0.88745 0.0
Co473 Co 0.62527 0.8743 0.84047 0.0
O474 O 0.65066 0.90144 0.87707 0.0
C475 C 0.66528 0.8694 0.94389 0.0
O476 O 0.64141 0.84759 0.92479 0.0
C477 C 0.59964 0.96283 0.83615 0.0
O478 O 0.6393 0.97282 0.84041 0.0
O479 O 0.66802 0.90026 0.8125 0.0
O480 O 0.7267 0.90449 0.84199 0.0
H481 H 0.6254 0.80615 0.73393 0.0
H482 H 0.65875 0.96033 0.92272 0.0
O483 O 0.6952 0.89203 0.93319 0.0
H484 H 0.76471 0.04477 0.86641 0.0
H485 H 0.83792 0.92905 0.95375 0.0
H486 H 0.78422 0.85461 0.86041 0.0
H487 H 0.76452 0.96742 0.86212 0.0
H488 H 0.76311 0.93451 0.93874 0.0
O489 O 0.58809 0.92453 0.83518 0.0
H490 H 0.65745 0.8339 0.78229 0.0
H491 H 0.53673 0.86387 0.81854 0.0
H492 H 0.85925 0.84837 0.87449 0.0
H493 H 0.65802 0.03758 0.92799 0.0
H494 H 0.88654 0.88579 0.92147 0.0
H495 H 0.71117 0.0804 0.89954 0.0
O496 O 0.70984 0.83659 0.8826 0.0
H497 H 0.51774 0.87404 0.92704 0.0
H498 H 0.59216 0.78713 0.84885 0.0
H499 H 0.54105 0.75374 0.88457 0.0
H500 H 0.50339 0.79729 0.92399 0.0
H501 H 0.56942 0.906 0.89111 0.0
H502 H 0.50318 0.83536 0.77088 0.0
H503 H 0.54762 0.80624 0.72811 0.0
O504 O 0.66199 0.82283 0.8453 0.0
C505 C 0.70728 0.90705 0.81579 0.0
C506 C 0.60564 0.81839 0.75251 0.0
C507 C 0.53708 0.83468 0.77327 0.0
N508 N 0.59904 0.84939 0.80368 0.0
C509 C 0.62365 0.83396 0.78006 0.0
C510 C 0.55626 0.85049 0.80033 0.0
C511 C 0.56202 0.81848 0.74925 0.0
C512 C 0.68209 0.97869 0.91044 0.0
N513 N 0.71134 0.95936 0.89194 0.0
C514 C 0.68149 0.02245 0.91346 0.0
C515 C 0.71129 0.04645 0.89746 0.0
C516 C 0.7413 0.02649 0.87884 0.0
C517 C 0.7409 0.98266 0.87638 0.0
C518 C 0.82643 0.91272 0.93317 0.0
C519 C 0.79594 0.87125 0.88073 0.0
C520 C 0.78412 0.91569 0.92456 0.0
N521 N 0.76945 0.89527 0.89854 0.0
C522 C 0.83842 0.86749 0.88865 0.0
C523 C 0.8537 0.88844 0.91505 0.0
C524 C 0.69155 0.81125 0.86376 0.0
C525 C 0.53384 0.85474 0.9099 0.0
C526 C 0.57609 0.80627 0.86605 0.0
C527 C 0.54705 0.78721 0.88614 0.0
C528 C 0.52588 0.81167 0.90822 0.0
N529 N 0.58377 0.84855 0.86786 0.0
C530 C 0.563 0.87274 0.88937 0.0
Co531 Co 0.58624 0.70574 0.39065 0.0
Co532 Co 0.62342 0.62398 0.34465 0.0
O533 O 0.59016 0.64629 0.3795 0.0
C534 C 0.62089 0.66435 0.44683 0.0
O535 O 0.64642 0.64493 0.4275 0.0
C536 C 0.53734 0.59271 0.3333 0.0
O537 O 0.52458 0.63163 0.33714 0.0
O538 O 0.59922 0.66639 0.3153 0.0
O539 O 0.58053 0.7221 0.34512 0.0
H540 H 0.71593 0.63238 0.24904 0.0
H541 H 0.52959 0.64751 0.42515 0.0
O542 O 0.59349 0.69021 0.43637 0.0
H543 H 0.43568 0.74299 0.36685 0.0
H544 H 0.53973 0.82719 0.45798 0.0
H545 H 0.622 0.78486 0.36508 0.0
H546 H 0.5127 0.75136 0.36379 0.0
H547 H 0.54326 0.75264 0.44195 0.0
O548 O 0.57632 0.58366 0.33506 0.0
H549 H 0.67429 0.66071 0.29301 0.0
H550 H 0.63976 0.53724 0.32073 0.0
H551 H 0.61922 0.85972 0.38019 0.0
H552 H 0.45272 0.63848 0.42937 0.0
H553 H 0.57785 0.88131 0.42696 0.0
H554 H 0.40519 0.6862 0.39986 0.0
O555 O 0.64783 0.71302 0.38712 0.0
H556 H 0.61878 0.51417 0.42961 0.0
H557 H 0.71082 0.59514 0.35878 0.0
H558 H 0.74237 0.54509 0.39608 0.0
H559 H 0.69622 0.5041 0.43186 0.0
H560 H 0.58874 0.56497 0.39219 0.0
H561 H 0.68066 0.50738 0.27683 0.0
H562 H 0.71948 0.55509 0.24078 0.0
O563 O 0.67109 0.66392 0.35379 0.0
C564 C 0.58587 0.70405 0.31856 0.0
C565 C 0.69936 0.61123 0.26466 0.0
C566 C 0.67957 0.54111 0.28028 0.0
N567 N 0.65529 0.60073 0.3098 0.0
C568 C 0.6758 0.62714 0.28966 0.0
C569 C 0.65644 0.5582 0.30509 0.0
C570 C 0.70131 0.56787 0.26004 0.0
C571 C 0.50914 0.66861 0.41245 0.0
N572 N 0.52567 0.6996 0.39399 0.0
C573 C 0.46562 0.66328 0.41486 0.0
C574 C 0.43897 0.69004 0.39826 0.0
C575 C 0.45606 0.72185 0.37971 0.0
C576 C 0.49973 0.72627 0.37791 0.0
C577 C 0.55773 0.81819 0.43749 0.0
C578 C 0.60363 0.79405 0.3853 0.0
C579 C 0.55983 0.77605 0.42831 0.0
N580 N 0.58241 0.76451 0.40242 0.0
C581 C 0.6023 0.83647 0.39381 0.0
C582 C 0.57913 0.84854 0.42008 0.0
C583 C 0.67725 0.69595 0.37134 0.0
C584 C 0.63923 0.5318 0.41412 0.0
C585 C 0.69053 0.57773 0.37437 0.0
C586 C 0.70858 0.54925 0.39538 0.0
C587 C 0.68268 0.52622 0.41541 0.0
N588 N 0.64789 0.58315 0.37328 0.0
C589 C 0.62233 0.56054 0.39278 0.0
Co590 Co 0.79844 0.57546 0.88898 0.0
Co591 Co 0.86875 0.61276 0.83402 0.0
O592 O 0.85533 0.58401 0.87336 0.0
C593 C 0.84389 0.61502 0.94184 0.0
O594 O 0.86138 0.63984 0.92102 0.0
C595 C 0.90987 0.53041 0.83022 0.0
O596 O 0.87312 0.51479 0.83803 0.0
O597 O 0.82839 0.57673 0.81032 0.0
O598 O 0.77677 0.56498 0.84512 0.0
H599 H 0.84044 0.67674 0.72804 0.0
H600 H 0.86597 0.52658 0.92017 0.0
O601 O 0.81835 0.58634 0.93314 0.0
H602 H 0.77242 0.42067 0.87235 0.0
H603 H 0.69063 0.51973 0.96493 0.0
H604 H 0.71428 0.60909 0.87205 0.0
H605 H 0.75608 0.49629 0.86815 0.0
H606 H 0.76183 0.52786 0.94273 0.0
O607 O 0.91463 0.57005 0.82699 0.0
H608 H 0.82087 0.64482 0.77877 0.0
H609 H 0.94973 0.63755 0.80451 0.0
H610 H 0.6426 0.60188 0.89345 0.0
H611 H 0.88334 0.45126 0.92519 0.0
H612 H 0.63035 0.55677 0.94017 0.0
H613 H 0.83651 0.39771 0.901 0.0
O614 O 0.78645 0.63606 0.88389 0.0
H615 H 0.98718 0.64342 0.90924 0.0
H616 H 0.88195 0.70545 0.83798 0.0
H617 H 0.92919 0.75205 0.8679 0.0
H618 H 0.98236 0.72109 0.90384 0.0
H619 H 0.93888 0.59811 0.87922 0.0
H620 H 0.97031 0.67156 0.75483 0.0
H621 H 0.91529 0.69167 0.71624 0.0
O622 O 0.82237 0.65542 0.84058 0.0
C623 C 0.7916 0.56345 0.81719 0.0
C624 C 0.86443 0.6692 0.74505 0.0
C625 C 0.93742 0.66591 0.75992 0.0
N626 N 0.88402 0.64005 0.79488 0.0
C627 C 0.8536 0.65088 0.77375 0.0
C628 C 0.92554 0.64681 0.78807 0.0
C629 C 0.90656 0.67718 0.7383 0.0
C630 C 0.84533 0.50348 0.90974 0.0
N631 N 0.81032 0.51589 0.89362 0.0
C632 C 0.85535 0.46086 0.91261 0.0
C633 C 0.8291 0.43084 0.89899 0.0
C634 C 0.79318 0.44371 0.88287 0.0
C635 C 0.78421 0.48661 0.88042 0.0
C636 C 0.69547 0.5391 0.94435 0.0
C637 C 0.70917 0.58902 0.89216 0.0
C638 C 0.73569 0.54364 0.93156 0.0
N639 N 0.74202 0.56782 0.90546 0.0
C640 C 0.66851 0.58521 0.90426 0.0
C641 C 0.66168 0.55995 0.93049 0.0
C642 C 0.79446 0.66182 0.86178 0.0
C643 C 0.96415 0.6573 0.89366 0.0
C644 C 0.90467 0.69166 0.85379 0.0
C645 C 0.93152 0.71825 0.87055 0.0
C646 C 0.96138 0.70087 0.89066 0.0
N647 N 0.90739 0.64892 0.85697 0.0
C648 C 0.93678 0.63171 0.8765 0.0
Co649 Co 0.90784 0.79524 0.382 0.0
Co650 Co 0.87106 0.88297 0.34189 0.0
O651 O 0.9043 0.85572 0.37481 0.0
C652 C 0.86952 0.83171 0.43888 0.0
O653 O 0.84585 0.85298 0.41944 0.0
C654 C 0.95844 0.91168 0.33183 0.0
O655 O 0.97005 0.87218 0.33387 0.0
O656 O 0.89448 0.84355 0.30969 0.0
O657 O 0.91764 0.78568 0.33535 0.0
H658 H 0.76562 0.89473 0.25335 0.0
H659 H 0.96183 0.8541 0.41784 0.0
O660 O 0.89692 0.80573 0.42838 0.0
H661 H 0.05947 0.75162 0.37102 0.0
H662 H 0.94494 0.66506 0.44346 0.0
H663 H 0.87717 0.72002 0.34779 0.0
H664 H 0.98298 0.74573 0.36229 0.0
H665 H 0.94304 0.74144 0.43306 0.0
O666 O 0.9199 0.92204 0.33468 0.0
H667 H 0.80123 0.85925 0.29679 0.0
H668 H 0.86785 0.97151 0.31867 0.0
H669 H 0.87882 0.64347 0.35705 0.0
H670 H 0.038 0.86119 0.42773 0.0
H671 H 0.91284 0.61552 0.4052 0.0
H672 H 0.0875 0.80981 0.40393 0.0
O673 O 0.84713 0.78804 0.37551 0.0
H674 H 0.87988 0.98104 0.43425 0.0
H675 H 0.78492 0.91304 0.35801 0.0
H676 H 0.75527 0.95947 0.39873 0.0
H677 H 0.80287 0.99378 0.43728 0.0
H678 H 0.9081 0.93431 0.39319 0.0
H679 H 0.83103 0.00868 0.27633 0.0
H680 H 0.77967 0.97024 0.24298 0.0
O681 O 0.82206 0.84356 0.34881 0.0
C682 C 0.91081 0.80664 0.30993 0.0
C683 C 0.78815 0.91175 0.26752 0.0
C684 C 0.82505 0.97557 0.28027 0.0
N685 N 0.83917 0.9121 0.30922 0.0
C686 C 0.80929 0.89149 0.29194 0.0
C687 C 0.84624 0.95405 0.30409 0.0
C688 C 0.79615 0.95407 0.26165 0.0
C689 C 0.98315 0.83189 0.40742 0.0
N690 N 0.96804 0.80038 0.38885 0.0
C691 C 0.02627 0.83592 0.4131 0.0
C692 C 0.05401 0.80708 0.39977 0.0
C693 C 0.03832 0.77449 0.38127 0.0
C694 C 0.99499 0.77149 0.37621 0.0
C695 C 0.93013 0.67686 0.42235 0.0
C696 C 0.89248 0.70809 0.36861 0.0
C697 C 0.92886 0.72006 0.41639 0.0
N698 N 0.91048 0.73512 0.38967 0.0
C699 C 0.89311 0.66471 0.37381 0.0
C700 C 0.91214 0.64907 0.40086 0.0
C701 C 0.81765 0.80778 0.36204 0.0
C702 C 0.85882 0.96641 0.41752 0.0
C703 C 0.80588 0.92798 0.37459 0.0
C704 C 0.78889 0.95423 0.39762 0.0
C705 C 0.81561 0.97348 0.41924 0.0
N706 N 0.84829 0.92109 0.37312 0.0
C707 C 0.87468 0.94004 0.39412 0.0
Co708 Co 0.69505 0.58495 0.6311 0.0
Co709 Co 0.61554 0.61933 0.68036 0.0
O710 O 0.63595 0.59082 0.64274 0.0
C711 C 0.65283 0.62529 0.57727 0.0
O712 O 0.63506 0.64971 0.59816 0.0
C713 C 0.58052 0.53373 0.68224 0.0
O714 O 0.61928 0.52029 0.67895 0.0
O715 O 0.65469 0.58631 0.70689 0.0
O716 O 0.71183 0.57443 0.67688 0.0
H717 H 0.60691 0.73282 0.76471 0.0
H718 H 0.62818 0.53389 0.6018 0.0
O719 O 0.67859 0.59662 0.5859 0.0
H720 H 0.73455 0.43127 0.63598 0.0
H721 H 0.81432 0.54511 0.55912 0.0
H722 H 0.77571 0.61348 0.65894 0.0
H723 H 0.74614 0.50734 0.6432 0.0
H724 H 0.74007 0.54877 0.57582 0.0
O725 O 0.57244 0.57304 0.68339 0.0
H726 H 0.63061 0.703 0.71564 0.0
H727 H 0.55514 0.5939 0.7324 0.0
H728 H 0.85032 0.61002 0.64335 0.0
H729 H 0.61493 0.45816 0.59369 0.0
H730 H 0.87006 0.57567 0.59309 0.0
H731 H 0.66836 0.40614 0.61117 0.0
O732 O 0.70421 0.64537 0.63746 0.0
H733 H 0.5021 0.63844 0.59897 0.0
H734 H 0.6005 0.71225 0.6691 0.0
H735 H 0.55361 0.75317 0.63554 0.0
H736 H 0.50374 0.71653 0.59996 0.0
H737 H 0.54954 0.59855 0.63306 0.0
H738 H 0.53023 0.62441 0.7809 0.0
H739 H 0.55585 0.6945 0.7979 0.0
O740 O 0.66024 0.66423 0.67636 0.0
C741 C 0.69312 0.57541 0.70374 0.0
C742 C 0.59459 0.70282 0.75707 0.0
C743 C 0.55188 0.64195 0.76627 0.0
N744 N 0.59369 0.6464 0.71897 0.0
C745 C 0.60782 0.68521 0.7287 0.0
C746 C 0.56616 0.62491 0.73798 0.0
C747 C 0.56623 0.68117 0.77584 0.0
C748 C 0.65107 0.51145 0.60974 0.0
N749 N 0.6868 0.52499 0.62434 0.0
C750 C 0.64364 0.4686 0.60496 0.0
C751 C 0.67362 0.43946 0.61474 0.0
C752 C 0.71067 0.45352 0.62876 0.0
C753 C 0.71683 0.49665 0.6332 0.0
C754 C 0.80613 0.56001 0.58113 0.0
C755 C 0.78405 0.59797 0.63724 0.0
C756 C 0.76414 0.56228 0.59066 0.0
N757 N 0.75361 0.58074 0.61856 0.0
C758 C 0.82636 0.59634 0.62845 0.0
C759 C 0.83739 0.57714 0.60021 0.0
C760 C 0.69112 0.67129 0.65788 0.0
C761 C 0.52328 0.65484 0.61467 0.0
C762 C 0.57857 0.69548 0.65454 0.0
C763 C 0.55215 0.71914 0.63518 0.0
C764 C 0.52427 0.69861 0.61518 0.0
N765 N 0.57724 0.65241 0.6543 0.0
C766 C 0.55014 0.63225 0.63438 0.0
Co767 Co 0.91184 0.70106 0.12576 0.0
Co768 Co 0.88256 0.63723 0.18694 0.0
O769 O 0.90609 0.64547 0.14488 0.0
C770 C 0.88342 0.64251 0.0736 0.0
O771 O 0.87525 0.61289 0.09408 0.0
C772 C 0.9631 0.59286 0.18786 0.0
O773 O 0.97943 0.62796 0.17719 0.0
O774 O 0.92357 0.6778 0.2047 0.0
O775 O 0.92395 0.72779 0.16786 0.0
H776 H 0.84226 0.68148 0.29613 0.0
H777 H 0.96255 0.63028 0.10088 0.0
O778 O 0.89884 0.67773 0.08243 0.0
H779 H 0.06585 0.73691 0.13429 0.0
H780 H 0.95973 0.80377 0.04312 0.0
H781 H 0.87442 0.78502 0.13868 0.0
H782 H 0.98971 0.75034 0.13938 0.0
H783 H 0.95568 0.73459 0.06911 0.0
O784 O 0.92385 0.59032 0.19363 0.0
H785 H 0.86374 0.69297 0.24128 0.0
H786 H 0.85724 0.56154 0.22369 0.0
H787 H 0.87752 0.85466 0.11347 0.0
H788 H 0.03832 0.61547 0.09512 0.0
H789 H 0.92062 0.86449 0.06538 0.0
H790 H 0.09061 0.66907 0.11196 0.0
O791 O 0.85119 0.71058 0.13253 0.0
H792 H 0.83657 0.51112 0.12401 0.0
H793 H 0.78927 0.62808 0.19128 0.0
H794 H 0.73689 0.57939 0.16904 0.0
H795 H 0.76039 0.52033 0.13511 0.0
H796 H 0.8878 0.56096 0.14638 0.0
H797 H 0.83264 0.54906 0.27778 0.0
H798 H 0.82506 0.60936 0.31446 0.0
O799 O 0.84075 0.68446 0.18071 0.0
C800 C 0.93166 0.71513 0.19577 0.0
C801 C 0.84445 0.65511 0.28017 0.0
C802 C 0.83934 0.58076 0.26993 0.0
N803 N 0.86098 0.62806 0.22903 0.0
C804 C 0.85691 0.66135 0.24911 0.0
C805 C 0.85294 0.58806 0.23924 0.0
C806 C 0.83514 0.61458 0.29051 0.0
C807 C 0.98507 0.65384 0.10789 0.0
N808 N 0.97167 0.69121 0.12007 0.0
C809 C 0.02796 0.64526 0.10471 0.0
C810 C 0.05727 0.6753 0.11422 0.0
C811 C 0.04339 0.71336 0.12677 0.0
C812 C 0.00023 0.72076 0.12962 0.0
C813 C 0.94127 0.80004 0.06428 0.0
C814 C 0.89371 0.78909 0.11805 0.0
C815 C 0.93905 0.76098 0.07922 0.0
N816 N 0.91612 0.75608 0.10614 0.0
C817 C 0.89515 0.8286 0.10375 0.0
C818 C 0.91927 0.83407 0.07675 0.0
C819 C 0.82884 0.70659 0.15725 0.0
C820 C 0.8259 0.53681 0.13866 0.0
C821 C 0.79982 0.60292 0.17616 0.0
C822 C 0.76996 0.5752 0.16383 0.0
C823 C 0.78317 0.54202 0.14487 0.0
N824 N 0.8417 0.59787 0.16974 0.0
C825 C 0.85486 0.56512 0.15147 0.0
Co826 Co 0.79271 0.89965 0.62541 0.0
Co827 Co 0.87484 0.86877 0.67344 0.0
O828 O 0.85213 0.89762 0.63665 0.0
C829 C 0.83475 0.86157 0.57047 0.0
O830 O 0.85541 0.83817 0.59057 0.0
C831 C 0.90215 0.9566 0.67964 0.0
O832 O 0.86296 0.96682 0.67377 0.0
O833 O 0.83194 0.89491 0.70112 0.0
O834 O 0.77587 0.90909 0.67048 0.0
H835 H 0.8681 0.78918 0.77537 0.0
H836 H 0.85122 0.9541 0.58945 0.0
O837 O 0.80833 0.88896 0.5801 0.0
H838 H 0.75251 0.0513 0.64148 0.0
H839 H 0.67053 0.93802 0.55598 0.0
H840 H 0.71426 0.86413 0.65234 0.0
H841 H 0.745 0.97454 0.64792 0.0
H842 H 0.74505 0.93755 0.57229 0.0
O843 O 0.91334 0.91809 0.6806 0.0
H844 H 0.83891 0.8254 0.72912 0.0
H845 H 0.96191 0.85564 0.69761 0.0
H846 H 0.63945 0.86387 0.63695 0.0
H847 H 0.85958 0.03062 0.582 0.0
H848 H 0.61716 0.90102 0.58845 0.0
H849 H 0.81014 0.07981 0.60831 0.0
O850 O 0.78698 0.83844 0.63208 0.0
H851 H 0.98576 0.86688 0.58923 0.0
H852 H 0.90463 0.78071 0.66407 0.0
H853 H 0.95563 0.74635 0.62883 0.0
H854 H 0.99667 0.78953 0.59107 0.0
H855 H 0.93413 0.89978 0.62469 0.0
H856 H 0.99262 0.82003 0.74369 0.0
H857 H 0.94558 0.78599 0.78277 0.0
O858 O 0.8361 0.81916 0.66695 0.0
C859 C 0.79407 0.90694 0.6972 0.0
C860 C 0.88897 0.80352 0.75837 0.0
C861 C 0.95882 0.82081 0.74057 0.0
N862 N 0.89864 0.84145 0.71016 0.0
C863 C 0.87259 0.82396 0.73206 0.0
C864 C 0.94126 0.84087 0.7145 0.0
C865 C 0.93243 0.80179 0.76252 0.0
C866 C 0.82936 0.97528 0.60071 0.0
N867 N 0.7978 0.95988 0.61918 0.0
C868 C 0.83432 0.01859 0.5965 0.0
C869 C 0.80661 0.04617 0.6113 0.0
C870 C 0.77431 0.0302 0.62995 0.0
C871 C 0.77032 0.9867 0.63361 0.0
C872 C 0.67983 0.92186 0.57722 0.0
C873 C 0.70476 0.88068 0.63135 0.0
C874 C 0.72196 0.92151 0.58658 0.0
N875 N 0.73389 0.90126 0.61343 0.0
C876 C 0.66237 0.88029 0.62269 0.0
C877 C 0.6499 0.90109 0.59545 0.0
C878 C 0.80428 0.81093 0.64962 0.0
C879 C 0.96816 0.84773 0.60563 0.0
C880 C 0.92219 0.79972 0.64761 0.0
C881 C 0.95115 0.78008 0.62778 0.0
C882 C 0.9742 0.80433 0.60663 0.0
N883 N 0.9164 0.84232 0.64648 0.0
C884 C 0.93898 0.86626 0.62586 0.0
Co885 Co 0.60001 0.80103 0.13138 0.0
Co886 Co 0.62378 0.88253 0.18188 0.0
O887 O 0.59753 0.86016 0.14372 0.0
C888 C 0.63133 0.84741 0.07614 0.0
O889 O 0.65261 0.87091 0.09582 0.0
C890 C 0.53537 0.90973 0.18488 0.0
O891 O 0.52512 0.8706 0.1787 0.0
O892 O 0.59604 0.83858 0.20789 0.0
O893 O 0.59347 0.78198 0.17623 0.0
H894 H 0.69254 0.87326 0.28788 0.0
H895 H 0.53943 0.85521 0.09746 0.0
O896 O 0.60741 0.81815 0.08619 0.0
H897 H 0.45299 0.7471 0.14973 0.0
H898 H 0.56966 0.67724 0.06117 0.0
H899 H 0.64402 0.72583 0.15609 0.0
H900 H 0.53031 0.74604 0.15445 0.0
H901 H 0.56396 0.7511 0.07856 0.0
O902 O 0.57384 0.92045 0.18754 0.0
H903 H 0.66453 0.84546 0.23809 0.0
H904 H 0.63346 0.96898 0.2082 0.0
H905 H 0.65054 0.65172 0.13961 0.0
H906 H 0.4622 0.85733 0.09188 0.0
H907 H 0.61317 0.62699 0.09182 0.0
H908 H 0.41841 0.80307 0.11827 0.0
O909 O 0.66187 0.80135 0.13641 0.0
H910 H 0.63008 0.99552 0.09936 0.0
H911 H 0.71178 0.91451 0.17696 0.0
H912 H 0.74777 0.96726 0.14412 0.0
H913 H 0.70686 0.00826 0.105 0.0
H914 H 0.59552 0.94219 0.13248 0.0
H915 H 0.66203 -0.00166 0.25742 0.0
H916 H 0.6918 0.95031 0.29769 0.0
O917 O 0.67473 0.84509 0.17664 0.0
C918 C 0.58984 0.79949 0.20308 0.0
C919 C 0.67985 0.89455 0.27046 0.0
C920 C 0.66279 0.96473 0.25334 0.0
N921 N 0.64808 0.90557 0.22 0.0
C922 C 0.6641 0.87897 0.24215 0.0
C923 C 0.64685 0.94795 0.22545 0.0
C924 C 0.67939 0.93777 0.27596 0.0
C925 C 0.5206 0.8314 0.10886 0.0
N926 N 0.53934 0.8008 0.12646 0.0
C927 C 0.47688 0.83278 0.10566 0.0
C928 C 0.45233 0.80237 0.12051 0.0
C929 C 0.47171 0.77099 0.13819 0.0
C930 C 0.51552 0.77066 0.14089 0.0
C931 C 0.58595 0.6876 0.08211 0.0
C932 C 0.62737 0.71522 0.13543 0.0
C933 C 0.58282 0.72936 0.09207 0.0
N934 N 0.60322 0.7426 0.11852 0.0
C935 C 0.6313 0.67325 0.12615 0.0
C936 C 0.61038 0.65942 0.09931 0.0
C937 C 0.68674 0.81781 0.15645 0.0
C938 C 0.64825 0.97794 0.11638 0.0
C939 C 0.69377 0.93203 0.15988 0.0
C940 C 0.71431 0.96199 0.14142 0.0
C941 C 0.69133 0.98501 0.11951 0.0
N942 N 0.65149 0.92523 0.15665 0.0
C943 C 0.62876 0.94781 0.13529 0.0
C944 C 0.33002 0.17302 0.9888 0.0
C945 C 0.36661 0.15545 0.97501 0.0
C946 C 0.38357 0.12015 0.0246 0.0
C947 C 0.34537 0.13527 0.0376 0.0
N948 N 0.27771 0.16801 0.03004 0.0
N949 N 0.42277 0.10455 0.97724 0.0
C950 C 0.31715 0.15926 0.01907 0.0
C951 C 0.39204 0.12692 0.99221 0.0
N952 N 0.30806 0.20353 0.97322 0.0
N953 N 0.41167 0.09915 0.04314 0.0
H954 H 0.4287 0.10753 0.95332 0.0
H955 H 0.43953 0.0802 0.98778 0.0
H956 H 0.40534 0.09116 0.0664 0.0
H957 H 0.44215 0.09184 0.03599 0.0
H958 H 0.28351 0.22051 0.98331 0.0
H959 H 0.31687 0.2146 0.95112 0.0
H960 H 0.25436 0.18197 0.01643 0.0
H961 H 0.26695 0.15758 0.0518 0.0
C962 C 0.38312 0.38565 0.49066 0.0
C963 C 0.35003 0.36532 0.47428 0.0
C964 C 0.33537 0.32148 0.52033 0.0
C965 C 0.36572 0.34459 0.53761 0.0
N966 N 0.41273 0.40398 0.54131 0.0
N967 N 0.28957 0.31942 0.47483 0.0
C968 C 0.38805 0.37822 0.52338 0.0
C969 C 0.32465 0.33476 0.48949 0.0
N970 N 0.41031 0.41139 0.47486 0.0
N971 N 0.31736 0.28641 0.53319 0.0
H972 H 0.28044 0.32896 0.45243 0.0
H973 H 0.26752 0.30019 0.48584 0.0
H974 H 0.32452 0.27579 0.55573 0.0
H975 H 0.29814 0.26584 0.52065 0.0
H976 H 0.43755 0.42374 0.48487 0.0
H977 H 0.40755 0.41752 0.4509 0.0
H978 H 0.42648 0.43149 0.53286 0.0
H979 H 0.41629 0.39998 0.56545 0.0
C980 C 0.10902 0.3309 1.00188 0.0
C981 C 0.13733 0.34461 0.97798 0.0
C982 C 0.17581 0.38509 0.01794 0.0
C983 C 0.15069 0.36733 0.042 0.0
N984 N 0.10314 0.31099 0.05633 0.0
N985 N 0.20773 0.37153 0.96775 0.0
C986 C 0.1206 0.33609 0.03381 0.0
C987 C 0.17396 0.36752 0.98733 0.0
N988 N 0.0699 0.31575 0.99491 0.0
N989 N 0.19942 0.42022 0.02333 0.0
H990 H 0.21015 0.35555 0.94648 0.0
H991 H 0.2357 0.38593 0.97478 0.0
H992 H 0.19823 0.43683 0.04435 0.0
H993 H 0.21565 0.43575 1.00547 0.0
H994 H 0.04771 0.30887 0.01221 0.0
H995 H 0.05716 0.31537 0.97251 0.0
H996 H 0.08357 0.28564 0.05092 0.0
H997 H 0.11218 0.3123 0.07981 0.0
C998 C 0.15105 0.11906 0.52932 0.0
C999 C 0.11864 0.14778 0.5376 0.0
C1000 C 0.1133 0.16837 0.48242 0.0
C1001 C 0.13911 0.13372 0.47356 0.0
N1002 N 0.17533 0.07025 0.49009 0.0
N1003 N 0.06253 0.19355 0.52008 0.0
C1004 C 0.15639 0.10756 0.49738 0.0
C1005 C 0.0981 0.17103 0.51368 0.0
N1006 N 0.17731 0.10316 0.55178 0.0
N1007 N 0.10393 0.19936 0.46133 0.0
H1008 H 0.04823 0.19385 0.54205 0.0
H1009 H 0.04449 0.20778 0.50262 0.0
H1010 H 0.11624 0.20012 0.43866 0.0
H1011 H 0.08809 0.22681 0.46762 0.0
H1012 H 0.20362 0.08497 0.54637 0.0
H1013 H 0.17576 0.11207 0.57531 0.0
H1014 H 0.18465 0.04861 0.5071 0.0
H1015 H 0.17719 0.05842 0.46742 0.0
C1016 C 0.6683 0.82651 0.02673 0.0
C1017 C 0.63845 0.85255 0.04201 0.0
C1018 C 0.62482 0.88925 0.99238 0.0
C1019 C 0.65792 0.86613 0.97812 0.0
N1020 N 0.71725 0.81949 0.98352 0.0
N1021 N 0.5917 0.91221 0.04085 0.0
C1022 C 0.68156 0.8368 0.99586 0.0
C1023 C 0.61774 0.88509 0.02528 0.0
N1024 N 0.68314 0.79123 0.04133 0.0
N1025 N 0.59972 0.91454 0.97443 0.0
H1026 H 0.58471 0.90912 0.06467 0.0
H1027 H 0.57923 0.93928 0.03072 0.0
H1028 H 0.60473 0.9192 0.95049 0.0
H1029 H 0.57231 0.92861 0.98273 0.0
H1030 H 0.70182 0.76889 0.03011 0.0
H1031 H 0.67352 0.78219 0.06374 0.0
H1032 H 0.7379 0.80091 0.9965 0.0
H1033 H 0.72846 0.82715 0.96124 0.0
C1034 C 0.61606 0.60914 0.52619 0.0
C1035 C 0.64496 0.63405 0.54354 0.0
C1036 C 0.64899 0.68394 0.49975 0.0
C1037 C 0.62502 0.65606 0.48093 0.0
N1038 N 0.58855 0.58997 0.47502 0.0
N1039 N 0.69468 0.69132 0.54492 0.0
C1040 C 0.60951 0.61788 0.49377 0.0
C1041 C 0.66304 0.67044 0.52977 0.0
N1042 N 0.59334 0.57852 0.54097 0.0
N1043 N 0.65755 0.72364 0.48928 0.0
H1044 H 0.70657 0.68151 0.56654 0.0
H1045 H 0.71187 0.71561 0.53465 0.0
H1046 H 0.64626 0.73499 0.46792 0.0
H1047 H 0.67187 0.74659 0.50311 0.0
H1048 H 0.56889 0.56202 0.53029 0.0
H1049 H 0.59617 0.57251 0.56489 0.0
H1050 H 0.5809 0.55952 0.48206 0.0
H1051 H 0.58097 0.59645 0.4517 0.0
C1052 C 0.89631 0.62138 0.98573 0.0
C1053 C 0.85377 0.62082 0.97569 0.0
C1054 C 0.8307 0.62997 0.03029 0.0
C1055 C 0.8733 0.63534 0.03981 0.0
N1056 N 0.94646 0.64301 0.02521 0.0
N1057 N 0.78052 0.63325 0.98751 0.0
C1058 C 0.90603 0.63336 0.01708 0.0
C1059 C 0.82089 0.62726 0.99773 0.0
N1060 N 0.92741 0.60833 0.96579 0.0
N1061 N 0.7994 0.62755 0.05222 0.0
H1062 H 0.77208 0.63298 0.96387 0.0
H1063 H 0.75607 0.64269 1.00219 0.0
H1064 H 0.80459 0.63115 0.07619 0.0
H1065 H 0.76865 0.61874 0.04682 0.0
H1066 H 0.95852 0.60398 0.97275 0.0
H1067 H 0.92139 0.59744 0.94314 0.0
H1068 H 0.97052 0.64685 0.00886 0.0
H1069 H 0.95539 0.65064 0.04795 0.0
C1070 C 0.88732 0.867 0.49013 0.0
C1071 C 0.8625 0.83773 0.47303 0.0
C1072 C 0.81475 0.83137 0.51806 0.0
C1073 C 0.84281 0.8559 0.53642 0.0
N1074 N 0.90832 0.89376 0.54107 0.0
N1075 N 0.80548 0.78772 0.47184 0.0
C1076 C 0.88003 0.8725 0.52283 0.0
C1077 C 0.82704 0.81859 0.48737 0.0
N1078 N 0.91615 0.8914 0.47482 0.0
N1079 N 0.77587 0.82138 0.52953 0.0
H1080 H 0.81365 0.77763 0.44934 0.0
H1081 H 0.78201 0.76961 0.48227 0.0
H1082 H 0.76536 0.83157 0.55142 0.0
H1083 H 0.75258 0.80678 0.5162 0.0
H1084 H 0.93223 0.91617 0.48544 0.0
H1085 H 0.9207 0.88981 0.45066 0.0
H1086 H 0.93822 0.90225 0.53327 0.0
H1087 H 0.90292 0.90061 0.56467 0.0
C1088 C 0.24329 0.27342 0.18453 0.0
C1089 C 0.21383 0.27941 0.1599 0.0
C1090 C 0.25401 0.2325 0.1261 0.0
C1091 C 0.2806 0.22158 0.15153 0.0
N1092 N 0.308 0.24095 0.20237 0.0
N1093 N 0.1864 0.2593 0.10962 0.0
C1094 C 0.27731 0.24457 0.18022 0.0
C1095 C 0.21769 0.25698 0.13152 0.0
N1096 N 0.23972 0.29707 0.21125 0.0
N1097 N 0.26548 0.22207 0.09625 0.0
H1098 H 0.15893 0.27649 0.11356 0.0
H1099 H 0.18579 0.2408 0.08943 0.0
H1100 H 0.29451 0.20825 0.09141 0.0
H1101 H 0.24925 0.23225 0.0764 0.0
H1102 H 0.26042 0.29599 0.23011 0.0
H1103 H 0.21522 0.31834 0.2148 0.0
H1104 H 0.30466 0.24985 0.22571 0.0
H1105 H 0.33855 0.2324 0.19642 0.0
C1106 C 0.2601 0.25634 0.62598 0.0
C1107 C 0.2859 0.26049 0.65282 0.0
C1108 C 0.24458 0.20538 0.67933 0.0
C1109 C 0.21904 0.20132 0.65194 0.0
N1110 N 0.21615 0.20965 0.59573 0.0
N1111 N 0.30833 0.23326 0.70296 0.0
C1112 C 0.23128 0.22261 0.62415 0.0
C1113 C 0.27955 0.23366 0.6791 0.0
N1114 N 0.26169 0.28578 0.6027 0.0
N1115 N 0.23651 0.18164 0.70525 0.0
H1116 H 0.33531 0.25182 0.70307 0.0
H1117 H 0.30722 0.21258 0.72183 0.0
H1118 H 0.22116 0.15289 0.70395 0.0
H1119 H 0.24717 0.18924 0.72766 0.0
H1120 H 0.24085 0.28606 0.5838 0.0
H1121 H 0.28044 0.31257 0.60432 0.0
H1122 H 0.22666 0.22201 0.57447 0.0
H1123 H 0.19715 0.18302 0.59343 0.0
C1124 C 0.23824 0.28897 0.33112 0.0
C1125 C 0.26495 0.29515 0.35746 0.0
C1126 C 0.22661 0.24067 0.38578 0.0
C1127 C 0.20527 0.22844 0.35793 0.0
N1128 N 0.189 0.24457 0.30357 0.0
N1129 N 0.29095 0.26895 0.40679 0.0
C1130 C 0.21064 0.25349 0.33034 0.0
C1131 C 0.26095 0.26868 0.38389 0.0
N1132 N 0.23702 0.31841 0.30775 0.0
N1133 N 0.21311 0.22663 0.41435 0.0
H1134 H 0.31817 0.28706 0.40501 0.0
H1135 H 0.29104 0.24758 0.42536 0.0
H1136 H 0.18574 0.20882 0.41689 0.0
H1137 H 0.22592 0.23722 0.43546 0.0
H1138 H 0.21646 0.31701 0.2888 0.0
H1139 H 0.2541 0.34633 0.3085 0.0
H1140 H 0.19822 0.25512 0.28146 0.0
H1141 H 0.16073 0.22841 0.30362 0.0
C1142 C 0.27854 0.24115 0.83341 0.0
C1143 C 0.28392 0.21197 0.85821 0.0
C1144 C 0.23179 0.24944 0.88948 0.0
C1145 C 0.22227 0.27617 0.86366 0.0
N1146 N 0.24055 0.2996 0.8114 0.0
N1147 N 0.25821 0.1817 0.90603 0.0
C1148 C 0.24663 0.2725 0.83564 0.0
C1149 C 0.25799 0.21403 0.88497 0.0
N1150 N 0.30586 0.2407 0.80863 0.0
N1151 N 0.21775 0.25934 0.91887 0.0
H1152 H 0.27593 0.15454 0.90229 0.0
H1153 H 0.23738 0.17984 0.92487 0.0
H1154 H 0.20186 0.2873 0.92362 0.0
H1155 H 0.22656 0.24274 0.93891 0.0
H1156 H 0.30661 0.26339 0.79106 0.0
H1157 H 0.32919 0.218 0.80617 0.0
H1158 H 0.24779 0.29214 0.7882 0.0
H1159 H 0.23191 0.33068 0.8152 0.0
C1160 C 0.7137 0.74362 0.8345 0.0
C1161 C 0.70868 0.76708 0.86284 0.0
C1162 C 0.76227 0.72386 0.88821 0.0
C1163 C 0.76768 0.70011 0.86044 0.0
N1164 N 0.7415 0.68097 0.80918 0.0
N1165 N 0.71289 0.76335 0.91912 0.0
C1166 C 0.74167 0.70835 0.83394 0.0
C1167 C 0.72824 0.75206 0.89047 0.0
N1168 N 0.69081 0.7536 0.80851 0.0
N1169 N 0.79054 0.72075 0.9122 0.0
H1170 H 0.68551 0.78113 0.92136 0.0
H1171 H 0.72382 0.75024 0.94002 0.0
H1172 H 0.8178 0.70278 0.91039 0.0
H1173 H 0.78944 0.74 0.93201 0.0
H1174 H 0.69881 0.74413 0.78589 0.0
H1175 H 0.66241 0.76951 0.80987 0.0
H1176 H 0.72171 0.6837 0.78987 0.0
H1177 H 0.75899 0.65331 0.80883 0.0
C1178 C 0.72646 0.74944 0.39445 0.0
C1179 C 0.71847 0.71936 0.37051 0.0
C1180 C 0.77225 0.75337 0.33769 0.0
C1181 C 0.77721 0.78502 0.3608 0.0
N1182 N 0.75248 0.81886 0.40753 0.0
N1183 N 0.74708 0.68348 0.32535 0.0
C1184 C 0.75219 0.78476 0.38807 0.0
C1185 C 0.74482 0.71878 0.34349 0.0
N1186 N 0.71235 0.74202 0.42417 0.0
N1187 N 0.7944 0.75646 0.31035 0.0
H1188 H 0.73649 0.65444 0.33327 0.0
H1189 H 0.76466 0.6809 0.30493 0.0
H1190 H 0.81557 0.78082 0.30628 0.0
H1191 H 0.78941 0.73739 0.29087 0.0
H1192 H 0.71971 0.7611 0.44329 0.0
H1193 H 0.69832 0.71348 0.43022 0.0
H1194 H 0.73231 0.82205 0.42665 0.0
H1195 H 0.76956 0.84596 0.40216 0.0
C1196 C 0.75411 0.7591 0.62684 0.0
C1197 C 0.78169 0.76936 0.65181 0.0
C1198 C 0.74597 0.71566 0.68419 0.0
C1199 C 0.71543 0.71076 0.66017 0.0
N1200 N 0.68394 0.73732 0.61301 0.0
N1201 N 0.8081 0.75144 0.7033 0.0
C1202 C 0.71746 0.73567 0.63295 0.0
C1203 C 0.77877 0.74606 0.68038 0.0
N1204 N 0.76429 0.76981 0.59682 0.0
N1205 N 0.74483 0.68972 0.70976 0.0
H1206 H 0.83867 0.76078 0.69811 0.0
H1207 H 0.803 0.74381 0.72675 0.0
H1208 H 0.72109 0.66763 0.7132 0.0
H1209 H 0.76747 0.68924 0.72736 0.0
H1210 H 0.74652 0.76038 0.57749 0.0
H1211 H 0.79343 0.78299 0.59132 0.0
H1212 H 0.68275 0.7577 0.59386 0.0
H1213 H 0.65571 0.72199 0.61807 0.0
C1214 C 0.77501 0.75141 0.18743 0.0
C1215 C 0.78947 0.73283 0.15885 0.0
C1216 C 0.74631 0.78286 0.12931 0.0
C1217 C 0.7302 0.79959 0.15748 0.0
N1218 N 0.74563 0.81371 0.21176 0.0
N1219 N 0.77508 0.72195 0.10378 0.0
C1220 C 0.7494 0.78815 0.1862 0.0
C1221 C 0.77139 0.74628 0.13006 0.0
N1222 N 0.78198 0.73229 0.2156 0.0
N1223 N 0.73915 0.80349 0.10181 0.0
H1224 H 0.78878 0.69216 0.10438 0.0
H1225 H 0.75954 0.72865 0.08283 0.0
H1226 H 0.72291 0.83199 0.10122 0.0
H1227 H 0.75388 0.79525 0.08082 0.0
H1228 H 0.7696 0.74346 0.23663 0.0
H1229 H 0.79279 0.70162 0.21754 0.0
H1230 H 0.7616 0.80856 0.23276 0.0
H1231 H 0.73238 0.84355 0.21021 0.0
C1232 C 0.24071 0.1208 0.27049 0.0
C1233 C 0.22757 0.08292 0.28476 0.0
C1234 C 0.25962 0.04316 0.24146 0.0
C1235 C 0.26752 0.08173 0.22572 0.0
N1236 N 0.2523 0.15583 0.22147 0.0
N1237 N 0.22138 0.00747 0.28335 0.0
C1238 C 0.25411 0.12012 0.23912 0.0
C1239 C 0.23612 0.04371 0.27013 0.0
N1240 N 0.24141 0.15749 0.28712 0.0
N1241 N 0.27477 0.00649 0.22922 0.0
H1242 H 0.20557 0.00724 0.30481 0.0
H1243 H 0.22303 0.97822 0.2724 0.0
H1244 H 0.29061 0.0054 0.20778 0.0
H1245 H 0.27352 0.9778 0.24097 0.0
H1246 H 0.25429 0.18527 0.2783 0.0
H1247 H 0.23378 0.15871 0.31082 0.0
H1248 H 0.23914 0.18384 0.22962 0.0
H1249 H 0.25885 0.15566 0.1976 0.0
C1250 C 0.41913 0.21652 0.72507 0.0
C1251 C 0.43444 0.25817 0.72343 0.0
C1252 C 0.45357 0.25142 0.77909 0.0
C1253 C 0.42573 0.21657 0.78224 0.0
N1254 N 0.3738 0.17262 0.75546 0.0
N1255 N 0.47153 0.31431 0.74989 0.0
C1256 C 0.4062 0.20076 0.75443 0.0
C1257 C 0.45294 0.27566 0.75091 0.0
N1258 N 0.41826 0.1913 0.69926 0.0
N1259 N 0.48328 0.25888 0.80141 0.0
H1260 H 0.47668 0.33031 0.7289 0.0
H1261 H 0.48104 0.33037 0.77003 0.0
H1262 H 0.48944 0.23679 0.81878 0.0
H1263 H 0.50591 0.28248 0.79953 0.0
H1264 H 0.40824 0.16006 0.70018 0.0
H1265 H 0.43495 0.19903 0.67906 0.0
H1266 H 0.35905 0.16135 0.73525 0.0
H1267 H 0.35752 0.16564 0.77592 0.0
C1268 C 0.1968 0.41542 0.2679 0.0
C1269 C 0.21086 0.42925 0.23769 0.0
C1270 C 0.27202 0.46139 0.2639 0.0
C1271 C 0.25725 0.44659 0.29332 0.0
N1272 N 0.19236 0.43718 0.32189 0.0
N1273 N 0.24872 0.48653 0.21341 0.0
C1274 C 0.21509 0.43308 0.29501 0.0
C1275 C 0.24503 0.45839 0.23727 0.0
N1276 N 0.16916 0.38316 0.27156 0.0
N1277 N 0.31053 0.48004 0.26156 0.0
H1278 H 0.22364 0.49156 0.19819 0.0
H1279 H 0.27202 0.50961 0.21264 0.0
H1280 H 0.32859 0.48751 0.28124 0.0
H1281 H 0.32423 0.48736 0.23999 0.0
H1282 H 0.15916 0.37279 0.29358 0.0
H1283 H 0.16397 0.36159 0.2539 0.0
H1284 H 0.16072 0.42856 0.32325 0.0
H1285 H 0.20317 0.45542 0.34056 0.0
C1286 C 0.11669 0.23718 0.74366 0.0
C1287 C 0.07787 0.22568 0.72992 0.0
C1288 C 0.04059 0.25947 0.77375 0.0
C1289 C 0.0799 0.26638 0.78874 0.0
N1290 N 0.15364 0.24903 0.79197 0.0
N1291 N 0.00228 0.22258 0.73247 0.0
C1292 C 0.11741 0.25136 0.77489 0.0
C1293 C 0.03944 0.23584 0.74514 0.0
N1294 N 0.15298 0.23602 0.72656 0.0
N1295 N 0.00484 0.27586 0.7866 0.0
H1296 H 0.00079 0.20664 0.71108 0.0
H1297 H 0.9734 0.22544 0.7438 0.0
H1298 H 0.00493 0.29178 0.80802 0.0
H1299 H 0.97572 0.2755 0.7754 0.0
H1300 H 0.18148 0.24797 0.73482 0.0
H1301 H 0.15339 0.22777 0.70297 0.0
H1302 H 0.18092 0.23461 0.78366 0.0
H1303 H 0.15464 0.25679 0.81564 0.0
C1304 C 0.74355 0.87128 0.77188 0.0
C1305 C 0.73235 0.90952 0.78659 0.0
C1306 C 0.76144 0.94855 0.74174 0.0
C1307 C 0.76808 0.90979 0.72596 0.0
N1308 N 0.7528 0.83563 0.72263 0.0
N1309 N 0.7269 0.98504 0.78493 0.0
C1310 C 0.75529 0.87158 0.74003 0.0
C1311 C 0.74014 0.94848 0.77132 0.0
N1312 N 0.74418 0.8346 0.78852 0.0
N1313 N 0.77594 0.985 0.72869 0.0
H1314 H 0.71292 0.98579 0.80707 0.0
H1315 H 0.72788 0.01412 0.77371 0.0
H1316 H 0.78994 0.98584 0.70655 0.0
H1317 H 0.77593 0.01381 0.74034 0.0
H1318 H 0.75622 0.8066 0.77945 0.0
H1319 H 0.73724 0.83336 0.81235 0.0
H1320 H 0.73994 0.80771 0.73119 0.0
H1321 H 0.75873 0.8354 0.69865 0.0
C1322 C 0.54619 0.73987 0.27424 0.0
C1323 C 0.58455 0.73036 0.28977 0.0
C1324 C 0.62428 0.75837 0.24542 0.0
C1325 C 0.58653 0.77225 0.23123 0.0
N1326 N 0.5112 0.77973 0.23294 0.0
N1327 N 0.65918 0.74293 0.2941 0.0
C1328 C 0.54722 0.76408 0.2459 0.0
C1329 C 0.62332 0.7432 0.27649 0.0
N1330 N 0.50914 0.72523 0.28625 0.0
N1331 N 0.66118 0.75875 0.22904 0.0
H1332 H 0.65913 0.73439 0.31763 0.0
H1333 H 0.6876 0.75574 0.28643 0.0
H1334 H 0.663 0.76852 0.2058 0.0
H1335 H 0.68872 0.74495 0.23743 0.0
H1336 H 0.48045 0.7275 0.27459 0.0
H1337 H 0.50762 0.70855 0.3073 0.0
H1338 H 0.48199 0.77857 0.24396 0.0
H1339 H 0.51108 0.79594 0.21165 0.0
C1340 C 0.72102 0.56758 0.79089 0.0
C1341 C 0.76278 0.55257 0.79038 0.0
C1342 C 0.75215 0.53786 0.73426 0.0
C1343 C 0.71705 0.56575 0.73363 0.0
N1344 N 0.67669 0.61639 0.76436 0.0
N1345 N 0.81711 0.51805 0.76027 0.0
C1346 C 0.70359 0.58313 0.76284 0.0
C1347 C 0.7784 0.53644 0.7615 0.0
N1348 N 0.69734 0.56601 0.81746 0.0
N1349 N 0.75803 0.5099 0.71051 0.0
H1350 H 0.83457 0.51145 0.7804 0.0
H1351 H 0.83175 0.51015 0.73917 0.0
H1352 H 0.73451 0.50472 0.69405 0.0
H1353 H 0.78185 0.48739 0.71046 0.0
H1354 H 0.66611 0.57612 0.81799 0.0
H1355 H 0.70637 0.5477 0.83657 0.0
H1356 H 0.66703 0.62951 0.78564 0.0
H1357 H 0.67035 0.63507 0.74498 0.0
C1358 C 0.90142 0.79805 0.25049 0.0
C1359 C 0.9231 0.78753 0.27875 0.0
C1360 C 0.96285 0.73472 0.24869 0.0
C1361 C 0.94104 0.74652 0.22101 0.0
N1362 N 0.9117 0.80709 0.19503 0.0
N1363 N 0.98901 0.76044 0.29838 0.0
C1364 C 0.91771 0.78414 0.22158 0.0
C1365 C 0.95821 0.75984 0.27621 0.0
N1366 N 0.86378 0.81827 0.25074 0.0
N1367 N 0.98877 0.70057 0.24851 0.0
H1368 H 0.99016 0.78419 0.31519 0.0
H1369 H 0.0163 0.74238 0.29681 0.0
H1370 H 0.99603 0.68437 0.2279 0.0
H1371 H 0.00192 0.68819 0.26895 0.0
H1372 H 0.84665 0.82416 0.2303 0.0
H1373 H 0.847 0.82248 0.27122 0.0
H1374 H 0.89537 0.83557 0.19506 0.0
H1375 H 0.92944 0.8013 0.17494 0.0
C1376 C 0.459 0.99504 0.21141 0.0
C1377 C 0.4398 0.00539 0.18235 0.0
C1378 C 0.4857 0.95547 0.15486 0.0
C1379 C 0.50257 0.94271 0.18418 0.0
N1380 N 0.50388 0.94696 0.24058 0.0
N1381 N 0.43334 0.99573 0.12647 0.0
C1382 C 0.48902 0.96176 0.21255 0.0
C1383 C 0.45269 0.98557 0.1541 0.0
N1384 N 0.44881 0.01741 0.23776 0.0
N1385 N 0.50261 0.94008 0.12765 0.0
H1386 H 0.41201 0.02043 0.12449 0.0
H1387 H 0.43695 0.97886 0.10572 0.0
H1388 H 0.52654 0.91775 0.1273 0.0
H1389 H 0.49529 0.95125 0.10538 0.0
H1390 H 0.46463 0.01468 0.25903 0.0
H1391 H 0.42596 0.04098 0.23791 0.0
H1392 H 0.49227 0.95623 0.26234 0.0
H1393 H 0.5263 0.92307 0.24216 0.0
C1394 C 0.53135 0.48583 0.71112 0.0
C1395 C 0.54586 0.50279 0.68228 0.0
C1396 C 0.49898 0.45589 0.65294 0.0
C1397 C 0.48387 0.4395 0.68177 0.0
N1398 N 0.47973 0.44245 0.73814 0.0
N1399 N 0.54074 0.5084 0.62601 0.0
C1400 C 0.49812 0.45576 0.71087 0.0
C1401 C 0.52876 0.48914 0.65326 0.0
N1402 N 0.55058 0.49724 0.73856 0.0
N1403 N 0.4854 0.43891 0.62523 0.0
H1404 H 0.56408 0.53127 0.62524 0.0
H1405 H 0.52621 0.5037 0.60442 0.0
H1406 H 0.46141 0.41665 0.62403 0.0
H1407 H 0.4989 0.44521 0.6035 0.0
H1408 H 0.54469 0.48293 0.76008 0.0
H1409 H 0.57479 0.5194 0.73958 0.0
H1410 H 0.48562 0.45589 0.75997 0.0
H1411 H 0.45603 0.41971 0.7387 0.0
C1412 C 0.03346 0.50558 0.1587 0.0
C1413 C 0.04803 0.48836 0.1874 0.0
C1414 C 0.0041 0.53784 0.21701 0.0
C1415 C 0.98931 0.55458 0.1882 0.0
N1416 N 0.98146 0.54826 0.13218 0.0
N1417 N 0.04251 0.48204 0.24356 0.0
C1418 C 0.00152 0.5366 0.15919 0.0
C1419 C 0.03171 0.50252 0.21652 0.0
N1420 N 0.05087 0.49292 0.13096 0.0
N1421 N 0.99303 0.55675 0.24463 0.0
H1422 H 0.06329 0.45662 0.24392 0.0
H1423 H 0.02874 0.48808 0.26525 0.0
H1424 H 0.97211 0.582 0.24574 0.0
H1425 H 0.00623 0.54914 0.26624 0.0
H1426 H 0.04576 0.50808 0.10964 0.0
H1427 H 0.07265 0.4686 0.12954 0.0
H1428 H 0.98575 0.53336 0.11066 0.0
H1429 H 0.9574 0.57046 0.13183 0.0
C1430 C 0.94723 0.01006 0.65295 0.0
C1431 C 0.9343 0.99017 0.68113 0.0
C1432 C 0.98297 0.03424 0.71151 0.0
C1433 C 0.9936 0.05616 0.6836 0.0
N1434 N 0.98557 0.06671 0.62789 0.0
N1435 N 0.93591 0.98493 0.73748 0.0
C1436 C 0.97547 0.04466 0.65437 0.0
C1437 C 0.95124 0.00255 0.71052 0.0
N1438 N 0.93391 0.99454 0.62469 0.0
N1439 N 0.00368 0.0434 0.73882 0.0
H1440 H 0.91328 0.96111 0.73749 0.0
H1441 H 0.94345 0.99551 0.7599 0.0
H1442 H 0.02578 0.06758 0.74064 0.0
H1443 H 0.00097 0.02564 0.75923 0.0
H1444 H 0.94558 0.00424 0.60306 0.0
H1445 H 0.91298 0.96948 0.62276 0.0
H1446 H 0.96948 0.0641 0.60671 0.0
H1447 H 0.00929 0.08928 0.62736 0.0
C1448 C 0.48691 0.54515 0.36109 0.0
C1449 C 0.5059 0.55831 0.33259 0.0
C1450 C 0.46063 0.50982 0.30295 0.0
C1451 C 0.4424 0.49618 0.33159 0.0
N1452 N 0.4446 0.49314 0.38803 0.0
N1453 N 0.51665 0.54888 0.2771 0.0
C1454 C 0.45742 0.51165 0.3607 0.0
C1455 C 0.49464 0.53915 0.30369 0.0
N1456 N 0.49657 0.56517 0.38854 0.0
N1457 N 0.44432 0.49597 0.2751 0.0
H1458 H 0.54093 0.571 0.2768 0.0
H1459 H 0.51297 0.53309 0.25587 0.0
H1460 H 0.42011 0.47383 0.27382 0.0
H1461 H 0.45291 0.50806 0.25333 0.0
H1462 H 0.47993 0.56094 0.40935 0.0
H1463 H 0.51975 0.58819 0.39011 0.0
H1464 H 0.45767 0.49972 0.40989 0.0
H1465 H 0.42336 0.46821 0.38857 0.0
C1466 C 0.99238 0.45407 0.85961 0.0
C1467 C 0.01042 0.44028 0.83094 0.0
C1468 C 0.96472 0.48844 0.80147 0.0
C1469 C 0.94687 0.50219 0.83021 0.0
N1470 N 0.94886 0.505 0.88668 0.0
N1471 N 0.01983 0.44862 0.77522 0.0
C1472 C 0.96224 0.48697 0.85931 0.0
C1473 C -0.00144 0.45897 0.80202 0.0
N1474 N 0.00372 0.43522 0.88716 0.0
N1475 N 0.94815 0.50233 0.77373 0.0
H1476 H 0.04394 0.42635 0.77478 0.0
H1477 H 0.01573 0.46395 0.75386 0.0
H1478 H 0.92415 0.52468 0.77261 0.0
H1479 H 0.95637 0.49022 0.75189 0.0
H1480 H 0.98798 0.43962 0.90832 0.0
H1481 H 0.02795 0.41332 0.88865 0.0
H1482 H 0.96202 0.4989 0.90856 0.0
H1483 H 0.92646 0.52884 0.88732 0.0
C1484 C 0.00082 0.96422 0.30129 0.0
C1485 C 0.99092 0.94491 0.33039 0.0
C1486 C 0.04197 0.98992 0.35735 0.0
C1487 C 0.05474 0.00648 0.32794 0.0
N1488 N 0.04947 0.00788 0.27158 0.0
N1489 N 0.00347 0.93652 0.38581 0.0
C1490 C 0.03486 0.99339 0.29977 0.0
C1491 C 0.012 0.9569 0.35831 0.0
N1492 N 0.97729 0.955 0.2753 0.0
N1493 N 0.057 0.00726 0.38449 0.0
H1494 H 0.97948 0.91444 0.38794 0.0
H1495 H 0.02156 0.93965 0.40605 0.0
H1496 H 0.07866 0.0318 0.38472 0.0
H1497 H 0.04551 7e-05 0.40672 0.0
H1498 H 0.97986 0.97103 0.2541 0.0
H1499 H 0.95294 0.93294 0.2755 0.0
H1500 H 0.03946 0.99643 0.24996 0.0
H1501 H 0.07391 0.0297 0.26977 0.0
C1502 C 0.54903 0.00977 0.80799 0.0
C1503 C 0.56723 0.99597 0.83657 0.0
C1504 C 0.52045 0.04225 0.86649 0.0
C1505 C 0.50371 0.05761 0.83785 0.0
N1506 N 0.50602 0.06187 0.78142 0.0
N1507 N 0.57387 0.00088 0.89281 0.0
C1508 C 0.51908 0.043 0.80857 0.0
C1509 C 0.55404 0.01285 0.86577 0.0
N1510 N 0.55992 0.99058 0.78043 0.0
N1511 N 0.50342 0.05502 0.89436 0.0
H1512 H 0.5966 0.97733 0.89343 0.0
H1513 H 0.56967 0.0156 0.91439 0.0
H1514 H 0.48007 0.07785 0.89579 0.0
H1515 H 0.51045 0.04154 0.91598 0.0
H1516 H 0.54446 0.99579 0.75925 0.0
H1517 H 0.58286 0.96717 0.77904 0.0
H1518 H 0.51909 0.05573 0.75951 0.0
H1519 H 0.48413 0.08633 0.78104 0.0
loop_
_geom_bond_atom_site_label_1
_geom_bond_atom_site_label_2
_geom_bond_distance
_geom_bond_site_symmetry_2
_ccdc_geom_bond_type
Co0 O2 2.143 . S
Co0 O8 2.074 . S
Co0 O11 2.093 . S
Co0 O24 2.097 . S
Co0 N41 2.151 . S
Co0 N49 2.214 . S
Co1 O2 2.160 . S
Co1 O7 2.058 . S
Co1 O17 2.057 . S
Co1 O32 2.037 . S
Co1 N36 2.145 . S
Co1 N57 2.257 . S
O2 Co0 2.143 . S
O2 Co1 2.160 . S
C3 O4 1.278 . S
C3 O11 1.224 . S
O4 C3 1.278 . S
C5 O6 1.245 . S
C5 O17 1.232 . S
O6 C5 1.245 . S
O7 Co1 2.058 . S
O7 C33 1.269 . S
O8 Co0 2.074 . S
O8 C33 1.257 . S
H9 C34 0.930 . S
H10 C40 0.930 . S
O11 Co0 2.093 . S
O11 C3 1.224 . S
H12 C44 0.929 . S
H13 C46 0.930 . S
H14 C47 0.930 . S
H15 C45 0.929 . S
H16 C48 0.928 . S
O17 Co1 2.057 . S
O17 C5 1.232 . S
H18 C37 0.929 . S
H19 C38 0.929 . S
H20 C50 0.931 . S
H21 C42 0.929 . S
H22 C51 0.930 . S
H23 C43 0.931 . S
O24 Co0 2.097 . S
O24 C52 1.214 . S
H25 C53 0.929 . S
H26 C54 0.929 . S
H27 C55 0.930 . S
H28 C56 0.929 . S
H29 C58 0.930 . S
H30 C35 0.930 . S
H31 C39 0.930 . S
O32 Co1 2.037 . S
O32 C52 1.234 . S
C33 O7 1.269 . S
C33 O8 1.257 . S
C34 H9 0.930 . S
C34 C37 1.388 . S
C34 C39 1.418 . S
C35 H30 0.930 . S
C35 C38 1.404 . S
C35 C39 1.353 . S
N36 Co1 2.145 . S
N36 C37 1.397 . S
N36 C38 1.334 . S
C37 H18 0.929 . S
C37 C34 1.388 . S
C37 N36 1.397 . S
C38 H19 0.929 . S
C38 C35 1.404 . S
C38 N36 1.334 . S
C39 H31 0.930 . S
C39 C34 1.418 . S
C39 C35 1.353 . S
C40 H10 0.930 . S
C40 N41 1.330 . S
C40 C42 1.446 1_545 S
N41 Co0 2.151 . S
N41 C40 1.330 . S
N41 C45 1.418 . S
C42 H21 0.929 . S
C42 C40 1.446 1_565 S
C42 C43 1.332 . S
C43 H23 0.931 . S
C43 C42 1.332 . S
C43 C44 1.267 . S
C44 H12 0.929 . S
C44 C43 1.267 . S
C44 C45 1.251 1_565 S
C45 H15 0.929 . S
C45 N41 1.418 . S
C45 C44 1.251 1_545 S
C46 H13 0.930 . S
C46 C48 1.406 . S
C46 C51 1.261 . S
C47 H14 0.930 . S
C47 N49 1.325 . S
C47 C50 1.357 . S
C48 H16 0.928 . S
C48 C46 1.406 . S
C48 N49 1.261 . S
N49 Co0 2.214 . S
N49 C47 1.325 . S
N49 C48 1.261 . S
C50 H20 0.931 . S
C50 C47 1.357 . S
C50 C51 1.312 . S
C51 H22 0.930 . S
C51 C46 1.261 . S
C51 C50 1.312 . S
C52 O24 1.214 . S
C52 O32 1.234 . S
C53 H25 0.929 . S
C53 C56 1.391 . S
C53 C58 1.391 . S
C54 H26 0.929 . S
C54 C55 1.390 . S
C54 N57 1.391 . S
C55 H27 0.930 . S
C55 C54 1.390 . S
C55 C56 1.392 . S
C56 H28 0.929 . S
C56 C53 1.391 . S
C56 C55 1.392 . S
N57 Co1 2.257 . S
N57 C54 1.391 . S
N57 C58 1.388 . S
C58 H29 0.930 . S
C58 C53 1.391 . S
C58 N57 1.388 . S
Co59 O61 2.143 . S
Co59 O67 2.074 . S
Co59 O70 2.093 . S
Co59 O83 2.097 . S
Co59 N100 2.151 . S
Co59 N108 2.214 . S
Co60 O61 2.160 . S
Co60 O66 2.058 . S
Co60 O76 2.057 . S
Co60 O91 2.037 . S
Co60 N95 2.145 . S
Co60 N116 2.257 . S
O61 Co59 2.143 . S
O61 Co60 2.160 . S
C62 O63 1.278 . S
C62 O70 1.224 . S
O63 C62 1.278 . S
C64 O65 1.245 . S
C64 O76 1.232 . S
O65 C64 1.245 . S
O66 Co60 2.058 . S
O66 C92 1.269 . S
O67 Co59 2.074 . S
O67 C92 1.257 . S
H68 C93 0.930 . S
H69 C99 0.930 . S
O70 Co59 2.093 . S
O70 C62 1.224 . S
H71 C103 0.929 . S
H72 C105 0.930 . S
H73 C106 0.930 . S
H74 C104 0.929 . S
H75 C107 0.928 . S
O76 Co60 2.057 . S
O76 C64 1.232 . S
H77 C96 0.929 . S
H78 C97 0.929 . S
H79 C109 0.931 . S
H80 C101 0.929 . S
H81 C110 0.930 . S
H82 C102 0.931 . S
O83 Co59 2.097 . S
O83 C111 1.214 . S
H84 C112 0.929 . S
H85 C113 0.929 . S
H86 C114 0.930 . S
H87 C115 0.929 . S
H88 C117 0.930 . S
H89 C94 0.930 . S
H90 C98 0.930 . S
O91 Co60 2.037 . S
O91 C111 1.234 . S
C92 O66 1.269 . S
C92 O67 1.257 . S
C93 H68 0.930 . S
C93 C96 1.388 . S
C93 C98 1.418 . S
C94 H89 0.930 . S
C94 C97 1.404 . S
C94 C98 1.353 . S
N95 Co60 2.145 . S
N95 C96 1.397 . S
N95 C97 1.334 . S
C96 H77 0.929 . S
C96 C93 1.388 . S
C96 N95 1.397 . S
C97 H78 0.929 . S
C97 C94 1.404 . S
C97 N95 1.334 . S
C98 H90 0.930 . S
C98 C93 1.418 . S
C98 C94 1.353 . S
C99 H69 0.930 . S
C99 N100 1.330 . S
C99 C101 1.446 . S
N100 Co59 2.151 . S
N100 C99 1.330 . S
N100 C104 1.418 . S
C101 H80 0.929 . S
C101 C99 1.446 . S
C101 C102 1.332 . S
C102 H82 0.931 . S
C102 C101 1.332 . S
C102 C103 1.267 . S
C103 H71 0.929 . S
C103 C102 1.267 . S
C103 C104 1.251 . S
C104 H74 0.929 . S
C104 N100 1.418 . S
C104 C103 1.251 . S
C105 H72 0.930 . S
C105 C107 1.406 . S
C105 C110 1.261 . S
C106 H73 0.930 . S
C106 N108 1.325 . S
C106 C109 1.357 . S
C107 H75 0.928 . S
C107 C105 1.406 . S
C107 N108 1.261 . S
N108 Co59 2.214 . S
N108 C106 1.325 . S
N108 C107 1.261 . S
C109 H79 0.931 . S
C109 C106 1.357 . S
C109 C110 1.312 . S
C110 H81 0.930 . S
C110 C105 1.261 . S
C110 C109 1.312 . S
C111 O83 1.214 . S
C111 O91 1.234 . S
C112 H84 0.929 . S
C112 C115 1.391 . S
C112 C117 1.391 . S
C113 H85 0.929 . S
C113 C114 1.390 . S
C113 N116 1.391 . S
C114 H86 0.930 . S
C114 C113 1.390 . S
C114 C115 1.392 . S
C115 H87 0.929 . S
C115 C112 1.391 . S
C115 C114 1.392 . S
N116 Co60 2.257 . S
N116 C113 1.391 . S
N116 C117 1.388 . S
C117 H88 0.930 . S
C117 C112 1.391 . S
C117 N116 1.388 . S
Co118 O120 2.143 . S
Co118 O126 2.074 . S
Co118 O129 2.093 . S
Co118 O142 2.097 . S
Co118 N159 2.151 . S
Co118 N167 2.214 . S
Co119 O120 2.160 . S
Co119 O125 2.058 . S
Co119 O135 2.057 . S
Co119 O150 2.037 . S
Co119 N154 2.145 . S
Co119 N175 2.257 . S
O120 Co118 2.143 . S
O120 Co119 2.160 . S
C121 O122 1.278 . S
C121 O129 1.224 . S
O122 C121 1.278 . S
C123 O124 1.245 . S
C123 O135 1.232 . S
O124 C123 1.245 . S
O125 Co119 2.058 . S
O125 C151 1.269 . S
O126 Co118 2.074 . S
O126 C151 1.257 . S
H127 C152 0.930 . S
H128 C158 0.930 . S
O129 Co118 2.093 . S
O129 C121 1.224 . S
H130 C162 0.929 . S
H131 C164 0.930 . S
H132 C165 0.930 . S
H133 C163 0.929 . S
H134 C166 0.928 . S
O135 Co119 2.057 . S
O135 C123 1.232 . S
H136 C155 0.929 . S
H137 C156 0.929 . S
H138 C168 0.931 . S
H139 C160 0.929 . S
H140 C169 0.930 . S
H141 C161 0.931 . S
O142 Co118 2.097 . S
O142 C170 1.214 . S
H143 C171 0.929 . S
H144 C172 0.929 . S
H145 C173 0.930 . S
H146 C174 0.929 . S
H147 C176 0.930 . S
H148 C153 0.930 . S
H149 C157 0.930 . S
O150 Co119 2.037 . S
O150 C170 1.234 . S
C151 O125 1.269 . S
C151 O126 1.257 . S
C152 H127 0.930 . S
C152 C155 1.388 . S
C152 C157 1.418 . S
C153 H148 0.930 . S
C153 C156 1.404 . S
C153 C157 1.353 . S
N154 Co119 2.145 . S
N154 C155 1.397 . S
N154 C156 1.334 . S
C155 H136 0.929 . S
C155 C152 1.388 . S
C155 N154 1.397 . S
C156 H137 0.929 . S
C156 C153 1.404 . S
C156 N154 1.334 . S
C157 H149 0.930 . S
C157 C152 1.418 . S
C157 C153 1.353 . S
C158 H128 0.930 . S
C158 N159 1.330 . S
C158 C160 1.446 . S
N159 Co118 2.151 . S
N159 C158 1.330 . S
N159 C163 1.418 . S
C160 H139 0.929 . S
C160 C158 1.446 . S
C160 C161 1.332 . S
C161 H141 0.931 . S
C161 C160 1.332 . S
C161 C162 1.267 . S
C162 H130 0.929 . S
C162 C161 1.267 . S
C162 C163 1.251 . S
C163 H133 0.929 . S
C163 N159 1.418 . S
C163 C162 1.251 . S
C164 H131 0.930 . S
C164 C166 1.406 . S
C164 C169 1.261 . S
C165 H132 0.930 . S
C165 N167 1.325 . S
C165 C168 1.357 . S
C166 H134 0.928 . S
C166 C164 1.406 . S
C166 N167 1.261 . S
N167 Co118 2.214 . S
N167 C165 1.325 . S
N167 C166 1.261 . S
C168 H138 0.931 . S
C168 C165 1.357 . S
C168 C169 1.312 . S
C169 H140 0.930 . S
C169 C164 1.261 . S
C169 C168 1.312 . S
C170 O142 1.214 . S
C170 O150 1.234 . S
C171 H143 0.929 . S
C171 C174 1.391 . S
C171 C176 1.391 . S
C172 H144 0.929 . S
C172 C173 1.390 . S
C172 N175 1.391 . S
C173 H145 0.930 . S
C173 C172 1.390 . S
C173 C174 1.392 . S
C174 H146 0.929 . S
C174 C171 1.391 . S
C174 C173 1.392 . S
N175 Co119 2.257 . S
N175 C172 1.391 . S
N175 C176 1.388 . S
C176 H147 0.930 . S
C176 C171 1.391 . S
C176 N175 1.388 . S
Co177 O179 2.143 . S
Co177 O185 2.074 . S
Co177 O188 2.093 . S
Co177 O201 2.097 . S
Co177 N218 2.151 . S
Co177 N226 2.214 . S
Co178 O179 2.160 . S
Co178 O184 2.058 . S
Co178 O194 2.057 . S
Co178 O209 2.037 . S
Co178 N213 2.145 . S
Co178 N234 2.257 . S
O179 Co177 2.143 . S
O179 Co178 2.160 . S
C180 O181 1.278 . S
C180 O188 1.224 . S
O181 C180 1.278 . S
C182 O183 1.245 . S
C182 O194 1.232 . S
O183 C182 1.245 . S
O184 Co178 2.058 . S
O184 C210 1.269 . S
O185 Co177 2.074 . S
O185 C210 1.257 . S
H186 C211 0.930 . S
H187 C217 0.930 . S
O188 Co177 2.093 . S
O188 C180 1.224 . S
H189 C221 0.929 . S
H190 C223 0.930 . S
H191 C224 0.930 . S
H192 C222 0.929 . S
H193 C225 0.928 . S
O194 Co178 2.057 . S
O194 C182 1.232 . S
H195 C214 0.929 . S
H196 C215 0.929 . S
H197 C227 0.931 . S
H198 C219 0.929 . S
H199 C228 0.930 . S
H200 C220 0.931 . S
O201 Co177 2.097 . S
O201 C229 1.214 . S
H202 C230 0.929 . S
H203 C231 0.929 . S
H204 C232 0.930 . S
H205 C233 0.929 . S
H206 C235 0.930 . S
H207 C212 0.930 . S
H208 C216 0.930 . S
O209 Co178 2.037 . S
O209 C229 1.234 . S
C210 O184 1.269 . S
C210 O185 1.257 . S
C211 H186 0.930 . S
C211 C214 1.388 . S
C211 C216 1.418 . S
C212 H207 0.930 . S
C212 C215 1.404 . S
C212 C216 1.353 . S
N213 Co178 2.145 . S
N213 C214 1.397 . S
N213 C215 1.334 . S
C214 H195 0.929 . S
C214 C211 1.388 . S
C214 N213 1.397 . S
C215 H196 0.929 . S
C215 C212 1.404 . S
C215 N213 1.334 . S
C216 H208 0.930 . S
C216 C211 1.418 . S
C216 C212 1.353 . S
C217 H187 0.930 . S
C217 N218 1.330 . S
C217 C219 1.446 1_455 S
N218 Co177 2.151 . S
N218 C217 1.330 . S
N218 C222 1.418 . S
C219 H198 0.929 . S
C219 C217 1.446 1_655 S
C219 C220 1.332 . S
C220 H200 0.931 . S
C220 C219 1.332 . S
C220 C221 1.267 . S
C221 H189 0.929 . S
C221 C220 1.267 . S
C221 C222 1.251 1_655 S
C222 H192 0.929 . S
C222 N218 1.418 . S
C222 C221 1.251 1_455 S
C223 H190 0.930 . S
C223 C225 1.406 . S
C223 C228 1.261 . S
C224 H191 0.930 . S
C224 N226 1.325 . S
C224 C227 1.357 . S
C225 H193 0.928 . S
C225 C223 1.406 . S
C225 N226 1.261 . S
N226 Co177 2.214 . S
N226 C224 1.325 . S
N226 C225 1.261 . S
C227 H197 0.931 . S
C227 C224 1.357 . S
C227 C228 1.312 . S
C228 H199 0.930 . S
C228 C223 1.261 . S
C228 C227 1.312 . S
C229 O201 1.214 . S
C229 O209 1.234 . S
C230 H202 0.929 . S
C230 C233 1.391 . S
C230 C235 1.391 . S
C231 H203 0.929 . S
C231 C232 1.390 . S
C231 N234 1.391 . S
C232 H204 0.930 . S
C232 C231 1.390 . S
C232 C233 1.392 . S
C233 H205 0.929 . S
C233 C230 1.391 . S
C233 C232 1.392 . S
N234 Co178 2.257 . S
N234 C231 1.391 . S
N234 C235 1.388 . S
C235 H206 0.930 . S
C235 C230 1.391 . S
C235 N234 1.388 . S
Co236 O238 2.143 . S
Co236 O244 2.074 . S
Co236 O247 2.093 . S
Co236 O260 2.097 . S
Co236 N277 2.151 . S
Co236 N285 2.214 . S
Co237 O238 2.160 . S
Co237 O243 2.058 . S
Co237 O253 2.057 . S
Co237 O268 2.037 . S
Co237 N272 2.145 . S
Co237 N293 2.257 . S
O238 Co236 2.143 . S
O238 Co237 2.160 . S
C239 O240 1.278 . S
C239 O247 1.224 . S
O240 C239 1.278 . S
C241 O242 1.245 . S
C241 O253 1.232 . S
O242 C241 1.245 . S
O243 Co237 2.058 . S
O243 C269 1.269 . S
O244 Co236 2.074 . S
O244 C269 1.257 . S
H245 C270 0.930 . S
H246 C276 0.930 . S
O247 Co236 2.093 . S
O247 C239 1.224 . S
H248 C280 0.929 . S
H249 C282 0.930 . S
H250 C283 0.930 . S
H251 C281 0.929 . S
H252 C284 0.928 . S
O253 Co237 2.057 . S
O253 C241 1.232 . S
H254 C273 0.929 . S
H255 C274 0.929 . S
H256 C286 0.931 . S
H257 C278 0.929 . S
H258 C287 0.930 . S
H259 C279 0.931 . S
O260 Co236 2.097 . S
O260 C288 1.214 . S
H261 C289 0.929 . S
H262 C290 0.929 . S
H263 C291 0.930 . S
H264 C292 0.929 . S
H265 C294 0.930 . S
H266 C271 0.930 . S
H267 C275 0.930 . S
O268 Co237 2.037 . S
O268 C288 1.234 . S
C269 O243 1.269 . S
C269 O244 1.257 . S
C270 H245 0.930 . S
C270 C273 1.388 . S
C270 C275 1.418 . S
C271 H266 0.930 . S
C271 C274 1.404 . S
C271 C275 1.353 . S
N272 Co237 2.145 . S
N272 C273 1.397 . S
N272 C274 1.334 . S
C273 H254 0.929 . S
C273 C270 1.388 . S
C273 N272 1.397 . S
C274 H255 0.929 . S
C274 C271 1.404 . S
C274 N272 1.334 . S
C275 H267 0.930 . S
C275 C270 1.418 . S
C275 C271 1.353 . S
C276 H246 0.930 . S
C276 N277 1.330 . S
C276 C278 1.446 . S
N277 Co236 2.151 . S
N277 C276 1.330 . S
N277 C281 1.418 . S
C278 H257 0.929 . S
C278 C276 1.446 . S
C278 C279 1.332 . S
C279 H259 0.931 . S
C279 C278 1.332 . S
C279 C280 1.267 . S
C280 H248 0.929 . S
C280 C279 1.267 . S
C280 C281 1.251 . S
C281 H251 0.929 . S
C281 N277 1.418 . S
C281 C280 1.251 . S
C282 H249 0.930 . S
C282 C284 1.406 . S
C282 C287 1.261 . S
C283 H250 0.930 . S
C283 N285 1.325 . S
C283 C286 1.357 . S
C284 H252 0.928 . S
C284 C282 1.406 . S
C284 N285 1.261 . S
N285 Co236 2.214 . S
N285 C283 1.325 . S
N285 C284 1.261 . S
C286 H256 0.931 . S
C286 C283 1.357 . S
C286 C287 1.312 . S
C287 H258 0.930 . S
C287 C282 1.261 . S
C287 C286 1.312 . S
C288 O260 1.214 . S
C288 O268 1.234 . S
C289 H261 0.929 . S
C289 C292 1.391 . S
C289 C294 1.391 . S
C290 H262 0.929 . S
C290 C291 1.390 . S
C290 N293 1.391 . S
C291 H263 0.930 . S
C291 C290 1.390 . S
C291 C292 1.392 . S
C292 H264 0.929 . S
C292 C289 1.391 . S
C292 C291 1.392 . S
N293 Co237 2.257 . S
N293 C290 1.391 . S
N293 C294 1.388 . S
C294 H265 0.930 . S
C294 C289 1.391 . S
C294 N293 1.388 . S
Co295 O297 2.143 . S
Co295 O303 2.074 . S
Co295 O306 2.093 . S
Co295 O319 2.097 . S
Co295 N336 2.151 . S
Co295 N344 2.214 . S
Co296 O297 2.160 . S
Co296 O302 2.058 . S
Co296 O312 2.057 . S
Co296 O327 2.037 . S
Co296 N331 2.145 . S
Co296 N352 2.257 . S
O297 Co295 2.143 . S
O297 Co296 2.160 . S
C298 O299 1.278 . S
C298 O306 1.224 . S
O299 C298 1.278 . S
C300 O301 1.245 . S
C300 O312 1.232 . S
O301 C300 1.245 . S
O302 Co296 2.058 . S
O302 C328 1.269 . S
O303 Co295 2.074 . S
O303 C328 1.257 . S
H304 C329 0.930 . S
H305 C335 0.930 . S
O306 Co295 2.093 . S
O306 C298 1.224 . S
H307 C339 0.929 . S
H308 C341 0.930 . S
H309 C342 0.930 . S
H310 C340 0.929 . S
H311 C343 0.928 . S
O312 Co296 2.057 . S
O312 C300 1.232 . S
H313 C332 0.929 . S
H314 C333 0.929 . S
H315 C345 0.931 . S
H316 C337 0.929 . S
H317 C346 0.930 . S
H318 C338 0.931 . S
O319 Co295 2.097 . S
O319 C347 1.214 . S
H320 C348 0.929 . S
H321 C349 0.929 . S
H322 C350 0.930 . S
H323 C351 0.929 . S
H324 C353 0.930 . S
H325 C330 0.930 . S
H326 C334 0.930 . S
O327 Co296 2.037 . S
O327 C347 1.234 . S
C328 O302 1.269 . S
C328 O303 1.257 . S
C329 H304 0.930 . S
C329 C332 1.388 . S
C329 C334 1.418 . S
C330 H325 0.930 . S
C330 C333 1.404 . S
C330 C334 1.353 . S
N331 Co296 2.145 . S
N331 C332 1.397 . S
N331 C333 1.334 . S
C332 H313 0.929 . S
C332 C329 1.388 . S
C332 N331 1.397 . S
C333 H314 0.929 . S
C333 C330 1.404 . S
C333 N331 1.334 . S
C334 H326 0.930 . S
C334 C329 1.418 . S
C334 C330 1.353 . S
C335 H305 0.930 . S
C335 N336 1.330 . S
C335 C337 1.446 1_455 S
N336 Co295 2.151 . S
N336 C335 1.330 . S
N336 C340 1.418 . S
C337 H316 0.929 . S
C337 C335 1.446 1_655 S
C337 C338 1.332 . S
C338 H318 0.931 . S
C338 C337 1.332 . S
C338 C339 1.267 . S
C339 H307 0.929 . S
C339 C338 1.267 . S
C339 C340 1.251 1_655 S
C340 H310 0.929 . S
C340 N336 1.418 . S
C340 C339 1.251 1_455 S
C341 H308 0.930 . S
C341 C343 1.406 . S
C341 C346 1.261 . S
C342 H309 0.930 . S
C342 N344 1.325 . S
C342 C345 1.357 . S
C343 H311 0.928 . S
C343 C341 1.406 . S
C343 N344 1.261 . S
N344 Co295 2.214 . S
N344 C342 1.325 . S
N344 C343 1.261 . S
C345 H315 0.931 . S
C345 C342 1.357 . S
C345 C346 1.312 . S
C346 H317 0.930 . S
C346 C341 1.261 . S
C346 C345 1.312 . S
C347 O319 1.214 . S
C347 O327 1.234 . S
C348 H320 0.929 . S
C348 C351 1.391 . S
C348 C353 1.391 . S
C349 H321 0.929 . S
C349 C350 1.390 . S
C349 N352 1.391 . S
C350 H322 0.930 . S
C350 C349 1.390 . S
C350 C351 1.392 . S
C351 H323 0.929 . S
C351 C348 1.391 . S
C351 C350 1.392 . S
N352 Co296 2.257 . S
N352 C349 1.391 . S
N352 C353 1.388 . S
C353 H324 0.930 . S
C353 C348 1.391 . S
C353 N352 1.388 . S
Co354 O356 2.143 . S
Co354 O362 2.074 . S
Co354 O365 2.093 . S
Co354 O378 2.097 . S
Co354 N395 2.151 . S
Co354 N403 2.214 . S
Co355 O356 2.160 . S
Co355 O361 2.058 . S
Co355 O371 2.057 . S
Co355 O386 2.037 . S
Co355 N390 2.145 . S
Co355 N411 2.257 . S
O356 Co354 2.143 . S
O356 Co355 2.160 . S
C357 O358 1.278 . S
C357 O365 1.224 . S
O358 C357 1.278 . S
C359 O360 1.245 . S
C359 O371 1.232 . S
O360 C359 1.245 . S
O361 Co355 2.058 . S
O361 C387 1.269 . S
O362 Co354 2.074 . S
O362 C387 1.257 . S
H363 C388 0.930 . S
H364 C394 0.930 . S
O365 Co354 2.093 . S
O365 C357 1.224 . S
H366 C398 0.929 . S
H367 C400 0.930 . S
H368 C401 0.930 . S
H369 C399 0.929 . S
H370 C402 0.928 . S
O371 Co355 2.057 . S
O371 C359 1.232 . S
H372 C391 0.929 . S
H373 C392 0.929 . S
H374 C404 0.931 . S
H375 C396 0.929 . S
H376 C405 0.930 . S
H377 C397 0.931 . S
O378 Co354 2.097 . S
O378 C406 1.214 . S
H379 C407 0.929 . S
H380 C408 0.929 . S
H381 C409 0.930 . S
H382 C410 0.929 . S
H383 C412 0.930 . S
H384 C389 0.930 . S
H385 C393 0.930 . S
O386 Co355 2.037 . S
O386 C406 1.234 . S
C387 O361 1.269 . S
C387 O362 1.257 . S
C388 H363 0.930 . S
C388 C391 1.388 . S
C388 C393 1.418 . S
C389 H384 0.930 . S
C389 C392 1.404 . S
C389 C393 1.353 . S
N390 Co355 2.145 . S
N390 C391 1.397 . S
N390 C392 1.334 . S
C391 H372 0.929 . S
C391 C388 1.388 . S
C391 N390 1.397 . S
C392 H373 0.929 . S
C392 C389 1.404 . S
C392 N390 1.334 . S
C393 H385 0.930 . S
C393 C388 1.418 . S
C393 C389 1.353 . S
C394 H364 0.930 . S
C394 N395 1.330 . S
C394 C396 1.446 1_545 S
N395 Co354 2.151 . S
N395 C394 1.330 . S
N395 C399 1.418 . S
C396 H375 0.929 . S
C396 C394 1.446 1_565 S
C396 C397 1.332 . S
C397 H377 0.931 . S
C397 C396 1.332 . S
C397 C398 1.267 . S
C398 H366 0.929 . S
C398 C397 1.267 . S
C398 C399 1.251 1_565 S
C399 H369 0.929 . S
C399 N395 1.418 . S
C399 C398 1.251 1_545 S
C400 H367 0.930 . S
C400 C402 1.406 . S
C400 C405 1.261 . S
C401 H368 0.930 . S
C401 N403 1.325 . S
C401 C404 1.357 . S
C402 H370 0.928 . S
C402 C400 1.406 . S
C402 N403 1.261 . S
N403 Co354 2.214 . S
N403 C401 1.325 . S
N403 C402 1.261 . S
C404 H374 0.931 . S
C404 C401 1.357 . S
C404 C405 1.312 . S
C405 H376 0.930 . S
C405 C400 1.261 . S
C405 C404 1.312 . S
C406 O378 1.214 . S
C406 O386 1.234 . S
C407 H379 0.929 . S
C407 C410 1.391 . S
C407 C412 1.391 . S
C408 H380 0.929 . S
C408 C409 1.390 . S
C408 N411 1.391 . S
C409 H381 0.930 . S
C409 C408 1.390 . S
C409 C410 1.392 . S
C410 H382 0.929 . S
C410 C407 1.391 . S
C410 C409 1.392 . S
N411 Co355 2.257 . S
N411 C408 1.391 . S
N411 C412 1.388 . S
C412 H383 0.930 . S
C412 C407 1.391 . S
C412 N411 1.388 . S
Co413 O415 2.143 . S
Co413 O421 2.074 . S
Co413 O424 2.093 . S
Co413 O437 2.097 . S
Co413 N454 2.151 . S
Co413 N462 2.214 . S
Co414 O415 2.160 . S
Co414 O420 2.058 . S
Co414 O430 2.057 . S
Co414 O445 2.037 . S
Co414 N449 2.145 . S
Co414 N470 2.257 . S
O415 Co413 2.143 . S
O415 Co414 2.160 . S
C416 O417 1.278 . S
C416 O424 1.224 . S
O417 C416 1.278 . S
C418 O419 1.245 . S
C418 O430 1.232 . S
O419 C418 1.245 . S
O420 Co414 2.058 . S
O420 C446 1.269 . S
O421 Co413 2.074 . S
O421 C446 1.257 . S
H422 C447 0.930 . S
H423 C453 0.930 . S
O424 Co413 2.093 . S
O424 C416 1.224 . S
H425 C457 0.929 . S
H426 C459 0.930 . S
H427 C460 0.930 . S
H428 C458 0.929 . S
H429 C461 0.928 . S
O430 Co414 2.057 . S
O430 C418 1.232 . S
H431 C450 0.929 . S
H432 C451 0.929 . S
H433 C463 0.931 . S
H434 C455 0.929 . S
H435 C464 0.930 . S
H436 C456 0.931 . S
O437 Co413 2.097 . S
O437 C465 1.214 . S
H438 C466 0.929 . S
H439 C467 0.929 . S
H440 C468 0.930 . S
H441 C469 0.929 . S
H442 C471 0.930 . S
H443 C448 0.930 . S
H444 C452 0.930 . S
O445 Co414 2.037 . S
O445 C465 1.234 . S
C446 O420 1.269 . S
C446 O421 1.257 . S
C447 H422 0.930 . S
C447 C450 1.388 . S
C447 C452 1.418 . S
C448 H443 0.930 . S
C448 C451 1.404 . S
C448 C452 1.353 . S
N449 Co414 2.145 . S
N449 C450 1.397 . S
N449 C451 1.334 . S
C450 H431 0.929 . S
C450 C447 1.388 . S
C450 N449 1.397 . S
C451 H432 0.929 . S
C451 C448 1.404 . S
C451 N449 1.334 . S
C452 H444 0.930 . S
C452 C447 1.418 . S
C452 C448 1.353 . S
C453 H423 0.930 . S
C453 N454 1.330 . S
C453 C455 1.446 . S
N454 Co413 2.151 . S
N454 C453 1.330 . S
N454 C458 1.418 . S
C455 H434 0.929 . S
C455 C453 1.446 . S
C455 C456 1.332 . S
C456 H436 0.931 . S
C456 C455 1.332 . S
C456 C457 1.267 . S
C457 H425 0.929 . S
C457 C456 1.267 . S
C457 C458 1.251 . S
C458 H428 0.929 . S
C458 N454 1.418 . S
C458 C457 1.251 . S
C459 H426 0.930 . S
C459 C461 1.406 . S
C459 C464 1.261 . S
C460 H427 0.930 . S
C460 N462 1.325 . S
C460 C463 1.357 . S
C461 H429 0.928 . S
C461 C459 1.406 . S
C461 N462 1.261 . S
N462 Co413 2.214 . S
N462 C460 1.325 . S
N462 C461 1.261 . S
C463 H433 0.931 . S
C463 C460 1.357 . S
C463 C464 1.312 . S
C464 H435 0.930 . S
C464 C459 1.261 . S
C464 C463 1.312 . S
C465 O437 1.214 . S
C465 O445 1.234 . S
C466 H438 0.929 . S
C466 C469 1.391 . S
C466 C471 1.391 . S
C467 H439 0.929 . S
C467 C468 1.390 . S
C467 N470 1.391 . S
C468 H440 0.930 . S
C468 C467 1.390 . S
C468 C469 1.392 . S
C469 H441 0.929 . S
C469 C466 1.391 . S
C469 C468 1.392 . S
N470 Co414 2.257 . S
N470 C467 1.391 . S
N470 C471 1.388 . S
C471 H442 0.930 . S
C471 C466 1.391 . S
C471 N470 1.388 . S
Co472 O474 2.143 . S
Co472 O480 2.074 . S
Co472 O483 2.093 . S
Co472 O496 2.097 . S
Co472 N513 2.151 . S
Co472 N521 2.214 . S
Co473 O474 2.160 . S
Co473 O479 2.058 . S
Co473 O489 2.057 . S
Co473 O504 2.037 . S
Co473 N508 2.145 . S
Co473 N529 2.257 . S
O474 Co472 2.143 . S
O474 Co473 2.160 . S
C475 O476 1.278 . S
C475 O483 1.224 . S
O476 C475 1.278 . S
C477 O478 1.245 . S
C477 O489 1.232 . S
O478 C477 1.245 . S
O479 Co473 2.058 . S
O479 C505 1.269 . S
O480 Co472 2.074 . S
O480 C505 1.257 . S
H481 C506 0.930 . S
H482 C512 0.930 . S
O483 Co472 2.093 . S
O483 C475 1.224 . S
H484 C516 0.929 . S
H485 C518 0.930 . S
H486 C519 0.930 . S
H487 C517 0.929 . S
H488 C520 0.928 . S
O489 Co473 2.057 . S
O489 C477 1.232 . S
H490 C509 0.929 . S
H491 C510 0.929 . S
H492 C522 0.931 . S
H493 C514 0.929 . S
H494 C523 0.930 . S
H495 C515 0.931 . S
O496 Co472 2.097 . S
O496 C524 1.214 . S
H497 C525 0.929 . S
H498 C526 0.929 . S
H499 C527 0.930 . S
H500 C528 0.929 . S
H501 C530 0.930 . S
H502 C507 0.930 . S
H503 C511 0.930 . S
O504 Co473 2.037 . S
O504 C524 1.234 . S
C505 O479 1.269 . S
C505 O480 1.257 . S
C506 H481 0.930 . S
C506 C509 1.388 . S
C506 C511 1.418 . S
C507 H502 0.930 . S
C507 C510 1.404 . S
C507 C511 1.353 . S
N508 Co473 2.145 . S
N508 C509 1.397 . S
N508 C510 1.334 . S
C509 H490 0.929 . S
C509 C506 1.388 . S
C509 N508 1.397 . S
C510 H491 0.929 . S
C510 C507 1.404 . S
C510 N508 1.334 . S
C511 H503 0.930 . S
C511 C506 1.418 . S
C511 C507 1.353 . S
C512 H482 0.930 . S
C512 N513 1.330 . S
C512 C514 1.446 1_565 S
N513 Co472 2.151 . S
N513 C512 1.330 . S
N513 C517 1.418 . S
C514 H493 0.929 . S
C514 C512 1.446 1_545 S
C514 C515 1.332 . S
C515 H495 0.931 . S
C515 C514 1.332 . S
C515 C516 1.267 . S
C516 H484 0.929 . S
C516 C515 1.267 . S
C516 C517 1.251 1_545 S
C517 H487 0.929 . S
C517 N513 1.418 . S
C517 C516 1.251 1_565 S
C518 H485 0.930 . S
C518 C520 1.406 . S
C518 C523 1.261 . S
C519 H486 0.930 . S
C519 N521 1.325 . S
C519 C522 1.357 . S
C520 H488 0.928 . S
C520 C518 1.406 . S
C520 N521 1.261 . S
N521 Co472 2.214 . S
N521 C519 1.325 . S
N521 C520 1.261 . S
C522 H492 0.931 . S
C522 C519 1.357 . S
C522 C523 1.312 . S
C523 H494 0.930 . S
C523 C518 1.261 . S
C523 C522 1.312 . S
C524 O496 1.214 . S
C524 O504 1.234 . S
C525 H497 0.929 . S
C525 C528 1.391 . S
C525 C530 1.391 . S
C526 H498 0.929 . S
C526 C527 1.390 . S
C526 N529 1.391 . S
C527 H499 0.930 . S
C527 C526 1.390 . S
C527 C528 1.392 . S
C528 H500 0.929 . S
C528 C525 1.391 . S
C528 C527 1.392 . S
N529 Co473 2.257 . S
N529 C526 1.391 . S
N529 C530 1.388 . S
C530 H501 0.930 . S
C530 C525 1.391 . S
C530 N529 1.388 . S
Co531 O533 2.143 . S
Co531 O539 2.074 . S
Co531 O542 2.093 . S
Co531 O555 2.097 . S
Co531 N572 2.151 . S
Co531 N580 2.214 . S
Co532 O533 2.160 . S
Co532 O538 2.058 . S
Co532 O548 2.057 . S
Co532 O563 2.037 . S
Co532 N567 2.145 . S
Co532 N588 2.257 . S
O533 Co531 2.143 . S
O533 Co532 2.160 . S
C534 O535 1.278 . S
C534 O542 1.224 . S
O535 C534 1.278 . S
C536 O537 1.245 . S
C536 O548 1.232 . S
O537 C536 1.245 . S
O538 Co532 2.058 . S
O538 C564 1.269 . S
O539 Co531 2.074 . S
O539 C564 1.257 . S
H540 C565 0.930 . S
H541 C571 0.930 . S
O542 Co531 2.093 . S
O542 C534 1.224 . S
H543 C575 0.929 . S
H544 C577 0.930 . S
H545 C578 0.930 . S
H546 C576 0.929 . S
H547 C579 0.928 . S
O548 Co532 2.057 . S
O548 C536 1.232 . S
H549 C568 0.929 . S
H550 C569 0.929 . S
H551 C581 0.931 . S
H552 C573 0.929 . S
H553 C582 0.930 . S
H554 C574 0.931 . S
O555 Co531 2.097 . S
O555 C583 1.214 . S
H556 C584 0.929 . S
H557 C585 0.929 . S
H558 C586 0.930 . S
H559 C587 0.929 . S
H560 C589 0.930 . S
H561 C566 0.930 . S
H562 C570 0.930 . S
O563 Co532 2.037 . S
O563 C583 1.234 . S
C564 O538 1.269 . S
C564 O539 1.257 . S
C565 H540 0.930 . S
C565 C568 1.388 . S
C565 C570 1.418 . S
C566 H561 0.930 . S
C566 C569 1.404 . S
C566 C570 1.353 . S
N567 Co532 2.145 . S
N567 C568 1.397 . S
N567 C569 1.334 . S
C568 H549 0.929 . S
C568 C565 1.388 . S
C568 N567 1.397 . S
C569 H550 0.929 . S
C569 C566 1.404 . S
C569 N567 1.334 . S
C570 H562 0.930 . S
C570 C565 1.418 . S
C570 C566 1.353 . S
C571 H541 0.930 . S
C571 N572 1.330 . S
C571 C573 1.446 . S
N572 Co531 2.151 . S
N572 C571 1.330 . S
N572 C576 1.418 . S
C573 H552 0.929 . S
C573 C571 1.446 . S
C573 C574 1.332 . S
C574 H554 0.931 . S
C574 C573 1.332 . S
C574 C575 1.267 . S
C575 H543 0.929 . S
C575 C574 1.267 . S
C575 C576 1.251 . S
C576 H546 0.929 . S
C576 N572 1.418 . S
C576 C575 1.251 . S
C577 H544 0.930 . S
C577 C579 1.406 . S
C577 C582 1.261 . S
C578 H545 0.930 . S
C578 N580 1.325 . S
C578 C581 1.357 . S
C579 H547 0.928 . S
C579 C577 1.406 . S
C579 N580 1.261 . S
N580 Co531 2.214 . S
N580 C578 1.325 . S
N580 C579 1.261 . S
C581 H551 0.931 . S
C581 C578 1.357 . S
C581 C582 1.312 . S
C582 H553 0.930 . S
C582 C577 1.261 . S
C582 C581 1.312 . S
C583 O555 1.214 . S
C583 O563 1.234 . S
C584 H556 0.929 . S
C584 C587 1.391 . S
C584 C589 1.391 . S
C585 H557 0.929 . S
C585 C586 1.390 . S
C585 N588 1.391 . S
C586 H558 0.930 . S
C586 C585 1.390 . S
C586 C587 1.392 . S
C587 H559 0.929 . S
C587 C584 1.391 . S
C587 C586 1.392 . S
N588 Co532 2.257 . S
N588 C585 1.391 . S
N588 C589 1.388 . S
C589 H560 0.930 . S
C589 C584 1.391 . S
C589 N588 1.388 . S
Co590 O592 2.143 . S
Co590 O598 2.074 . S
Co590 O601 2.093 . S
Co590 O614 2.097 . S
Co590 N631 2.151 . S
Co590 N639 2.214 . S
Co591 O592 2.160 . S
Co591 O597 2.058 . S
Co591 O607 2.057 . S
Co591 O622 2.037 . S
Co591 N626 2.145 . S
Co591 N647 2.257 . S
O592 Co590 2.143 . S
O592 Co591 2.160 . S
C593 O594 1.278 . S
C593 O601 1.224 . S
O594 C593 1.278 . S
C595 O596 1.245 . S
C595 O607 1.232 . S
O596 C595 1.245 . S
O597 Co591 2.058 . S
O597 C623 1.269 . S
O598 Co590 2.074 . S
O598 C623 1.257 . S
H599 C624 0.930 . S
H600 C630 0.930 . S
O601 Co590 2.093 . S
O601 C593 1.224 . S
H602 C634 0.929 . S
H603 C636 0.930 . S
H604 C637 0.930 . S
H605 C635 0.929 . S
H606 C638 0.928 . S
O607 Co591 2.057 . S
O607 C595 1.232 . S
H608 C627 0.929 . S
H609 C628 0.929 . S
H610 C640 0.931 . S
H611 C632 0.929 . S
H612 C641 0.930 . S
H613 C633 0.931 . S
O614 Co590 2.097 . S
O614 C642 1.214 . S
H615 C643 0.929 . S
H616 C644 0.929 . S
H617 C645 0.930 . S
H618 C646 0.929 . S
H619 C648 0.930 . S
H620 C625 0.930 . S
H621 C629 0.930 . S
O622 Co591 2.037 . S
O622 C642 1.234 . S
C623 O597 1.269 . S
C623 O598 1.257 . S
C624 H599 0.930 . S
C624 C627 1.388 . S
C624 C629 1.418 . S
C625 H620 0.930 . S
C625 C628 1.404 . S
C625 C629 1.353 . S
N626 Co591 2.145 . S
N626 C627 1.397 . S
N626 C628 1.334 . S
C627 H608 0.929 . S
C627 C624 1.388 . S
C627 N626 1.397 . S
C628 H609 0.929 . S
C628 C625 1.404 . S
C628 N626 1.334 . S
C629 H621 0.930 . S
C629 C624 1.418 . S
C629 C625 1.353 . S
C630 H600 0.930 . S
C630 N631 1.330 . S
C630 C632 1.446 . S
N631 Co590 2.151 . S
N631 C630 1.330 . S
N631 C635 1.418 . S
C632 H611 0.929 . S
C632 C630 1.446 . S
C632 C633 1.332 . S
C633 H613 0.931 . S
C633 C632 1.332 . S
C633 C634 1.267 . S
C634 H602 0.929 . S
C634 C633 1.267 . S
C634 C635 1.251 . S
C635 H605 0.929 . S
C635 N631 1.418 . S
C635 C634 1.251 . S
C636 H603 0.930 . S
C636 C638 1.406 . S
C636 C641 1.261 . S
C637 H604 0.930 . S
C637 N639 1.325 . S
C637 C640 1.357 . S
C638 H606 0.928 . S
C638 C636 1.406 . S
C638 N639 1.261 . S
N639 Co590 2.214 . S
N639 C637 1.325 . S
N639 C638 1.261 . S
C640 H610 0.931 . S
C640 C637 1.357 . S
C640 C641 1.312 . S
C641 H612 0.930 . S
C641 C636 1.261 . S
C641 C640 1.312 . S
C642 O614 1.214 . S
C642 O622 1.234 . S
C643 H615 0.929 . S
C643 C646 1.391 . S
C643 C648 1.391 . S
C644 H616 0.929 . S
C644 C645 1.390 . S
C644 N647 1.391 . S
C645 H617 0.930 . S
C645 C644 1.390 . S
C645 C646 1.392 . S
C646 H618 0.929 . S
C646 C643 1.391 . S
C646 C645 1.392 . S
N647 Co591 2.257 . S
N647 C644 1.391 . S
N647 C648 1.388 . S
C648 H619 0.930 . S
C648 C643 1.391 . S
C648 N647 1.388 . S
Co649 O651 2.143 . S
Co649 O657 2.074 . S
Co649 O660 2.093 . S
Co649 O673 2.097 . S
Co649 N690 2.151 . S
Co649 N698 2.214 . S
Co650 O651 2.160 . S
Co650 O656 2.058 . S
Co650 O666 2.057 . S
Co650 O681 2.037 . S
Co650 N685 2.145 . S
Co650 N706 2.257 . S
O651 Co649 2.143 . S
O651 Co650 2.160 . S
C652 O653 1.278 . S
C652 O660 1.224 . S
O653 C652 1.278 . S
C654 O655 1.245 . S
C654 O666 1.232 . S
O655 C654 1.245 . S
O656 Co650 2.058 . S
O656 C682 1.269 . S
O657 Co649 2.074 . S
O657 C682 1.257 . S
H658 C683 0.930 . S
H659 C689 0.930 . S
O660 Co649 2.093 . S
O660 C652 1.224 . S
H661 C693 0.929 . S
H662 C695 0.930 . S
H663 C696 0.930 . S
H664 C694 0.929 . S
H665 C697 0.928 . S
O666 Co650 2.057 . S
O666 C654 1.232 . S
H667 C686 0.929 . S
H668 C687 0.929 . S
H669 C699 0.931 . S
H670 C691 0.929 . S
H671 C700 0.930 . S
H672 C692 0.931 . S
O673 Co649 2.097 . S
O673 C701 1.214 . S
H674 C702 0.929 . S
H675 C703 0.929 . S
H676 C704 0.930 . S
H677 C705 0.929 . S
H678 C707 0.930 . S
H679 C684 0.930 . S
H680 C688 0.930 . S
O681 Co650 2.037 . S
O681 C701 1.234 . S
C682 O656 1.269 . S
C682 O657 1.257 . S
C683 H658 0.930 . S
C683 C686 1.388 . S
C683 C688 1.418 . S
C684 H679 0.930 . S
C684 C687 1.404 . S
C684 C688 1.353 . S
N685 Co650 2.145 . S
N685 C686 1.397 . S
N685 C687 1.334 . S
C686 H667 0.929 . S
C686 C683 1.388 . S
C686 N685 1.397 . S
C687 H668 0.929 . S
C687 C684 1.404 . S
C687 N685 1.334 . S
C688 H680 0.930 . S
C688 C683 1.418 . S
C688 C684 1.353 . S
C689 H659 0.930 . S
C689 N690 1.330 . S
C689 C691 1.446 1_655 S
N690 Co649 2.151 . S
N690 C689 1.330 . S
N690 C694 1.418 . S
C691 H670 0.929 . S
C691 C689 1.446 1_455 S
C691 C692 1.332 . S
C692 H672 0.931 . S
C692 C691 1.332 . S
C692 C693 1.267 . S
C693 H661 0.929 . S
C693 C692 1.267 . S
C693 C694 1.251 1_455 S
C694 H664 0.929 . S
C694 N690 1.418 . S
C694 C693 1.251 1_655 S
C695 H662 0.930 . S
C695 C697 1.406 . S
C695 C700 1.261 . S
C696 H663 0.930 . S
C696 N698 1.325 . S
C696 C699 1.357 . S
C697 H665 0.928 . S
C697 C695 1.406 . S
C697 N698 1.261 . S
N698 Co649 2.214 . S
N698 C696 1.325 . S
N698 C697 1.261 . S
C699 H669 0.931 . S
C699 C696 1.357 . S
C699 C700 1.312 . S
C700 H671 0.930 . S
C700 C695 1.261 . S
C700 C699 1.312 . S
C701 O673 1.214 . S
C701 O681 1.234 . S
C702 H674 0.929 . S
C702 C705 1.391 . S
C702 C707 1.391 . S
C703 H675 0.929 . S
C703 C704 1.390 . S
C703 N706 1.391 . S
C704 H676 0.930 . S
C704 C703 1.390 . S
C704 C705 1.392 . S
C705 H677 0.929 . S
C705 C702 1.391 . S
C705 C704 1.392 . S
N706 Co650 2.257 . S
N706 C703 1.391 . S
N706 C707 1.388 . S
C707 H678 0.930 . S
C707 C702 1.391 . S
C707 N706 1.388 . S
Co708 O710 2.143 . S
Co708 O716 2.074 . S
Co708 O719 2.093 . S
Co708 O732 2.097 . S
Co708 N749 2.151 . S
Co708 N757 2.214 . S
Co709 O710 2.160 . S
Co709 O715 2.058 . S
Co709 O725 2.057 . S
Co709 O740 2.037 . S
Co709 N744 2.145 . S
Co709 N765 2.257 . S
O710 Co708 2.143 . S
O710 Co709 2.160 . S
C711 O712 1.278 . S
C711 O719 1.224 . S
O712 C711 1.278 . S
C713 O714 1.245 . S
C713 O725 1.232 . S
O714 C713 1.245 . S
O715 Co709 2.058 . S
O715 C741 1.269 . S
O716 Co708 2.074 . S
O716 C741 1.257 . S
H717 C742 0.930 . S
H718 C748 0.930 . S
O719 Co708 2.093 . S
O719 C711 1.224 . S
H720 C752 0.929 . S
H721 C754 0.930 . S
H722 C755 0.930 . S
H723 C753 0.929 . S
H724 C756 0.928 . S
O725 Co709 2.057 . S
O725 C713 1.232 . S
H726 C745 0.929 . S
H727 C746 0.929 . S
H728 C758 0.931 . S
H729 C750 0.929 . S
H730 C759 0.930 . S
H731 C751 0.931 . S
O732 Co708 2.097 . S
O732 C760 1.214 . S
H733 C761 0.929 . S
H734 C762 0.929 . S
H735 C763 0.930 . S
H736 C764 0.929 . S
H737 C766 0.930 . S
H738 C743 0.930 . S
H739 C747 0.930 . S
O740 Co709 2.037 . S
O740 C760 1.234 . S
C741 O715 1.269 . S
C741 O716 1.257 . S
C742 H717 0.930 . S
C742 C745 1.388 . S
C742 C747 1.418 . S
C743 H738 0.930 . S
C743 C746 1.404 . S
C743 C747 1.353 . S
N744 Co709 2.145 . S
N744 C745 1.397 . S
N744 C746 1.334 . S
C745 H726 0.929 . S
C745 C742 1.388 . S
C745 N744 1.397 . S
C746 H727 0.929 . S
C746 C743 1.404 . S
C746 N744 1.334 . S
C747 H739 0.930 . S
C747 C742 1.418 . S
C747 C743 1.353 . S
C748 H718 0.930 . S
C748 N749 1.330 . S
C748 C750 1.446 . S
N749 Co708 2.151 . S
N749 C748 1.330 . S
N749 C753 1.418 . S
C750 H729 0.929 . S
C750 C748 1.446 . S
C750 C751 1.332 . S
C751 H731 0.931 . S
C751 C750 1.332 . S
C751 C752 1.267 . S
C752 H720 0.929 . S
C752 C751 1.267 . S
C752 C753 1.251 . S
C753 H723 0.929 . S
C753 N749 1.418 . S
C753 C752 1.251 . S
C754 H721 0.930 . S
C754 C756 1.406 . S
C754 C759 1.261 . S
C755 H722 0.930 . S
C755 N757 1.325 . S
C755 C758 1.357 . S
C756 H724 0.928 . S
C756 C754 1.406 . S
C756 N757 1.261 . S
N757 Co708 2.214 . S
N757 C755 1.325 . S
N757 C756 1.261 . S
C758 H728 0.931 . S
C758 C755 1.357 . S
C758 C759 1.312 . S
C759 H730 0.930 . S
C759 C754 1.261 . S
C759 C758 1.312 . S
C760 O732 1.214 . S
C760 O740 1.234 . S
C761 H733 0.929 . S
C761 C764 1.391 . S
C761 C766 1.391 . S
C762 H734 0.929 . S
C762 C763 1.390 . S
C762 N765 1.391 . S
C763 H735 0.930 . S
C763 C762 1.390 . S
C763 C764 1.392 . S
C764 H736 0.929 . S
C764 C761 1.391 . S
C764 C763 1.392 . S
N765 Co709 2.257 . S
N765 C762 1.391 . S
N765 C766 1.388 . S
C766 H737 0.930 . S
C766 C761 1.391 . S
C766 N765 1.388 . S
Co767 O769 2.143 . S
Co767 O775 2.074 . S
Co767 O778 2.093 . S
Co767 O791 2.097 . S
Co767 N808 2.151 . S
Co767 N816 2.214 . S
Co768 O769 2.160 . S
Co768 O774 2.058 . S
Co768 O784 2.057 . S
Co768 O799 2.037 . S
Co768 N803 2.145 . S
Co768 N824 2.257 . S
O769 Co767 2.143 . S
O769 Co768 2.160 . S
C770 O771 1.278 . S
C770 O778 1.224 . S
O771 C770 1.278 . S
C772 O773 1.245 . S
C772 O784 1.232 . S
O773 C772 1.245 . S
O774 Co768 2.058 . S
O774 C800 1.269 . S
O775 Co767 2.074 . S
O775 C800 1.257 . S
H776 C801 0.930 . S
H777 C807 0.930 . S
O778 Co767 2.093 . S
O778 C770 1.224 . S
H779 C811 0.929 . S
H780 C813 0.930 . S
H781 C814 0.930 . S
H782 C812 0.929 . S
H783 C815 0.928 . S
O784 Co768 2.057 . S
O784 C772 1.232 . S
H785 C804 0.929 . S
H786 C805 0.929 . S
H787 C817 0.931 . S
H788 C809 0.929 . S
H789 C818 0.930 . S
H790 C810 0.931 . S
O791 Co767 2.097 . S
O791 C819 1.214 . S
H792 C820 0.929 . S
H793 C821 0.929 . S
H794 C822 0.930 . S
H795 C823 0.929 . S
H796 C825 0.930 . S
H797 C802 0.930 . S
H798 C806 0.930 . S
O799 Co768 2.037 . S
O799 C819 1.234 . S
C800 O774 1.269 . S
C800 O775 1.257 . S
C801 H776 0.930 . S
C801 C804 1.388 . S
C801 C806 1.418 . S
C802 H797 0.930 . S
C802 C805 1.404 . S
C802 C806 1.353 . S
N803 Co768 2.145 . S
N803 C804 1.397 . S
N803 C805 1.334 . S
C804 H785 0.929 . S
C804 C801 1.388 . S
C804 N803 1.397 . S
C805 H786 0.929 . S
C805 C802 1.404 . S
C805 N803 1.334 . S
C806 H798 0.930 . S
C806 C801 1.418 . S
C806 C802 1.353 . S
C807 H777 0.930 . S
C807 N808 1.330 . S
C807 C809 1.446 1_655 S
N808 Co767 2.151 . S
N808 C807 1.330 . S
N808 C812 1.418 . S
C809 H788 0.929 . S
C809 C807 1.446 1_455 S
C809 C810 1.332 . S
C810 H790 0.931 . S
C810 C809 1.332 . S
C810 C811 1.267 . S
C811 H779 0.929 . S
C811 C810 1.267 . S
C811 C812 1.251 1_455 S
C812 H782 0.929 . S
C812 N808 1.418 . S
C812 C811 1.251 1_655 S
C813 H780 0.930 . S
C813 C815 1.406 . S
C813 C818 1.261 . S
C814 H781 0.930 . S
C814 N816 1.325 . S
C814 C817 1.357 . S
C815 H783 0.928 . S
C815 C813 1.406 . S
C815 N816 1.261 . S
N816 Co767 2.214 . S
N816 C814 1.325 . S
N816 C815 1.261 . S
C817 H787 0.931 . S
C817 C814 1.357 . S
C817 C818 1.312 . S
C818 H789 0.930 . S
C818 C813 1.261 . S
C818 C817 1.312 . S
C819 O791 1.214 . S
C819 O799 1.234 . S
C820 H792 0.929 . S
C820 C823 1.391 . S
C820 C825 1.391 . S
C821 H793 0.929 . S
C821 C822 1.390 . S
C821 N824 1.391 . S
C822 H794 0.930 . S
C822 C821 1.390 . S
C822 C823 1.392 . S
C823 H795 0.929 . S
C823 C820 1.391 . S
C823 C822 1.392 . S
N824 Co768 2.257 . S
N824 C821 1.391 . S
N824 C825 1.388 . S
C825 H796 0.930 . S
C825 C820 1.391 . S
C825 N824 1.388 . S
Co826 O828 2.143 . S
Co826 O834 2.074 . S
Co826 O837 2.093 . S
Co826 O850 2.097 . S
Co826 N867 2.151 . S
Co826 N875 2.214 . S
Co827 O828 2.160 . S
Co827 O833 2.058 . S
Co827 O843 2.057 . S
Co827 O858 2.037 . S
Co827 N862 2.145 . S
Co827 N883 2.257 . S
O828 Co826 2.143 . S
O828 Co827 2.160 . S
C829 O830 1.278 . S
C829 O837 1.224 . S
O830 C829 1.278 . S
C831 O832 1.245 . S
C831 O843 1.232 . S
O832 C831 1.245 . S
O833 Co827 2.058 . S
O833 C859 1.269 . S
O834 Co826 2.074 . S
O834 C859 1.257 . S
H835 C860 0.930 . S
H836 C866 0.930 . S
O837 Co826 2.093 . S
O837 C829 1.224 . S
H838 C870 0.929 . S
H839 C872 0.930 . S
H840 C873 0.930 . S
H841 C871 0.929 . S
H842 C874 0.928 . S
O843 Co827 2.057 . S
O843 C831 1.232 . S
H844 C863 0.929 . S
H845 C864 0.929 . S
H846 C876 0.931 . S
H847 C868 0.929 . S
H848 C877 0.930 . S
H849 C869 0.931 . S
O850 Co826 2.097 . S
O850 C878 1.214 . S
H851 C879 0.929 . S
H852 C880 0.929 . S
H853 C881 0.930 . S
H854 C882 0.929 . S
H855 C884 0.930 . S
H856 C861 0.930 . S
H857 C865 0.930 . S
O858 Co827 2.037 . S
O858 C878 1.234 . S
C859 O833 1.269 . S
C859 O834 1.257 . S
C860 H835 0.930 . S
C860 C863 1.388 . S
C860 C865 1.418 . S
C861 H856 0.930 . S
C861 C864 1.404 . S
C861 C865 1.353 . S
N862 Co827 2.145 . S
N862 C863 1.397 . S
N862 C864 1.334 . S
C863 H844 0.929 . S
C863 C860 1.388 . S
C863 N862 1.397 . S
C864 H845 0.929 . S
C864 C861 1.404 . S
C864 N862 1.334 . S
C865 H857 0.930 . S
C865 C860 1.418 . S
C865 C861 1.353 . S
C866 H836 0.930 . S
C866 N867 1.330 . S
C866 C868 1.446 1_565 S
N867 Co826 2.151 . S
N867 C866 1.330 . S
N867 C871 1.418 . S
C868 H847 0.929 . S
C868 C866 1.446 1_545 S
C868 C869 1.332 . S
C869 H849 0.931 . S
C869 C868 1.332 . S
C869 C870 1.267 . S
C870 H838 0.929 . S
C870 C869 1.267 . S
C870 C871 1.251 1_545 S
C871 H841 0.929 . S
C871 N867 1.418 . S
C871 C870 1.251 1_565 S
C872 H839 0.930 . S
C872 C874 1.406 . S
C872 C877 1.261 . S
C873 H840 0.930 . S
C873 N875 1.325 . S
C873 C876 1.357 . S
C874 H842 0.928 . S
C874 C872 1.406 . S
C874 N875 1.261 . S
N875 Co826 2.214 . S
N875 C873 1.325 . S
N875 C874 1.261 . S
C876 H846 0.931 . S
C876 C873 1.357 . S
C876 C877 1.312 . S
C877 H848 0.930 . S
C877 C872 1.261 . S
C877 C876 1.312 . S
C878 O850 1.214 . S
C878 O858 1.234 . S
C879 H851 0.929 . S
C879 C882 1.391 . S
C879 C884 1.391 . S
C880 H852 0.929 . S
C880 C881 1.390 . S
C880 N883 1.391 . S
C881 H853 0.930 . S
C881 C880 1.390 . S
C881 C882 1.392 . S
C882 H854 0.929 . S
C882 C879 1.391 . S
C882 C881 1.392 . S
N883 Co827 2.257 . S
N883 C880 1.391 . S
N883 C884 1.388 . S
C884 H855 0.930 . S
C884 C879 1.391 . S
C884 N883 1.388 . S
Co885 O887 2.143 . S
Co885 O893 2.074 . S
Co885 O896 2.093 . S
Co885 O909 2.097 . S
Co885 N926 2.151 . S
Co885 N934 2.214 . S
Co886 O887 2.160 . S
Co886 O892 2.058 . S
Co886 O902 2.057 . S
Co886 O917 2.037 . S
Co886 N921 2.145 . S
Co886 N942 2.257 . S
O887 Co885 2.143 . S
O887 Co886 2.160 . S
C888 O889 1.278 . S
C888 O896 1.224 . S
O889 C888 1.278 . S
C890 O891 1.245 . S
C890 O902 1.232 . S
O891 C890 1.245 . S
O892 Co886 2.058 . S
O892 C918 1.269 . S
O893 Co885 2.074 . S
O893 C918 1.257 . S
H894 C919 0.930 . S
H895 C925 0.930 . S
O896 Co885 2.093 . S
O896 C888 1.224 . S
H897 C929 0.929 . S
H898 C931 0.930 . S
H899 C932 0.930 . S
H900 C930 0.929 . S
H901 C933 0.928 . S
O902 Co886 2.057 . S
O902 C890 1.232 . S
H903 C922 0.929 . S
H904 C923 0.929 . S
H905 C935 0.931 . S
H906 C927 0.929 . S
H907 C936 0.930 . S
H908 C928 0.931 . S
O909 Co885 2.097 . S
O909 C937 1.214 . S
H910 C938 0.929 . S
H911 C939 0.929 . S
H912 C940 0.930 . S
H913 C941 0.929 . S
H914 C943 0.930 . S
H915 C920 0.930 . S
H916 C924 0.930 . S
O917 Co886 2.037 . S
O917 C937 1.234 . S
C918 O892 1.269 . S
C918 O893 1.257 . S
C919 H894 0.930 . S
C919 C922 1.388 . S
C919 C924 1.418 . S
C920 H915 0.930 . S
C920 C923 1.404 . S
C920 C924 1.353 . S
N921 Co886 2.145 . S
N921 C922 1.397 . S
N921 C923 1.334 . S
C922 H903 0.929 . S
C922 C919 1.388 . S
C922 N921 1.397 . S
C923 H904 0.929 . S
C923 C920 1.404 . S
C923 N921 1.334 . S
C924 H916 0.930 . S
C924 C919 1.418 . S
C924 C920 1.353 . S
C925 H895 0.930 . S
C925 N926 1.330 . S
C925 C927 1.446 . S
N926 Co885 2.151 . S
N926 C925 1.330 . S
N926 C930 1.418 . S
C927 H906 0.929 . S
C927 C925 1.446 . S
C927 C928 1.332 . S
C928 H908 0.931 . S
C928 C927 1.332 . S
C928 C929 1.267 . S
C929 H897 0.929 . S
C929 C928 1.267 . S
C929 C930 1.251 . S
C930 H900 0.929 . S
C930 N926 1.418 . S
C930 C929 1.251 . S
C931 H898 0.930 . S
C931 C933 1.406 . S
C931 C936 1.261 . S
C932 H899 0.930 . S
C932 N934 1.325 . S
C932 C935 1.357 . S
C933 H901 0.928 . S
C933 C931 1.406 . S
C933 N934 1.261 . S
N934 Co885 2.214 . S
N934 C932 1.325 . S
N934 C933 1.261 . S
C935 H905 0.931 . S
C935 C932 1.357 . S
C935 C936 1.312 . S
C936 H907 0.930 . S
C936 C931 1.261 . S
C936 C935 1.312 . S
C937 O909 1.214 . S
C937 O917 1.234 . S
C938 H910 0.929 . S
C938 C941 1.391 . S
C938 C943 1.391 . S
C939 H911 0.929 . S
C939 C940 1.390 . S
C939 N942 1.391 . S
C940 H912 0.930 . S
C940 C939 1.390 . S
C940 C941 1.392 . S
C941 H913 0.929 . S
C941 C938 1.391 . S
C941 C940 1.392 . S
N942 Co886 2.257 . S
N942 C939 1.391 . S
N942 C943 1.388 . S
C943 H914 0.930 . S
C943 C938 1.391 . S
C943 N942 1.388 . S
C944 C945 1.363 . S
C944 C950 1.379 . S
C944 N952 1.356 . S
C945 C944 1.363 . S
C945 C951 1.363 1_556 S
C946 C947 1.363 . S
C946 C951 1.379 . S
C946 N953 1.356 . S
C947 C946 1.363 . S
C947 C950 1.363 1_554 S
N948 C950 1.356 . S
N948 H960 0.984 . S
N948 H961 0.985 1_556 S
N949 C951 1.356 . S
N949 H954 0.984 1_554 S
N949 H955 0.985 . S
C950 C944 1.379 . S
C950 C947 1.363 1_556 S
C950 N948 1.356 . S
C951 C945 1.363 1_554 S
C951 C946 1.379 . S
C951 N949 1.356 . S
N952 C944 1.356 . S
N952 H958 0.984 . S
N952 H959 0.984 . S
N953 C946 1.356 . S
N953 H956 0.984 . S
N953 H957 0.985 . S
H954 N949 0.984 1_556 S
H955 N949 0.985 . S
H956 N953 0.984 . S
H957 N953 0.985 . S
H958 N952 0.984 . S
H959 N952 0.984 . S
H960 N948 0.984 . S
H961 N948 0.985 1_554 S
C962 C963 1.363 . S
C962 C968 1.379 . S
C962 N970 1.356 . S
C963 C962 1.363 . S
C963 C969 1.363 . S
C964 C965 1.363 . S
C964 C969 1.379 . S
C964 N971 1.356 . S
C965 C964 1.363 . S
C965 C968 1.363 . S
N966 C968 1.356 . S
N966 H978 0.984 . S
N966 H979 0.985 . S
N967 C969 1.356 . S
N967 H972 0.984 . S
N967 H973 0.985 . S
C968 C962 1.379 . S
C968 C965 1.363 . S
C968 N966 1.356 . S
C969 C963 1.363 . S
C969 C964 1.379 . S
C969 N967 1.356 . S
N970 C962 1.356 . S
N970 H976 0.984 . S
N970 H977 0.984 . S
N971 C964 1.356 . S
N971 H974 0.984 . S
N971 H975 0.985 . S
H972 N967 0.984 . S
H973 N967 0.985 . S
H974 N971 0.984 . S
H975 N971 0.985 . S
H976 N970 0.984 . S
H977 N970 0.984 . S
H978 N966 0.984 . S
H979 N966 0.985 . S
C980 C981 1.363 1_554 S
C980 C986 1.379 . S
C980 N988 1.356 . S
C981 C980 1.363 1_556 S
C981 C987 1.363 . S
C982 C983 1.363 1_556 S
C982 C987 1.379 . S
C982 N989 1.356 . S
C983 C982 1.363 1_554 S
C983 C986 1.363 . S
N984 C986 1.356 . S
N984 H996 0.984 . S
N984 H997 0.985 . S
N985 C987 1.356 . S
N985 H990 0.984 . S
N985 H991 0.985 . S
C986 C980 1.379 . S
C986 C983 1.363 . S
C986 N984 1.356 . S
C987 C981 1.363 . S
C987 C982 1.379 . S
C987 N985 1.356 . S
N988 C980 1.356 . S
N988 H994 0.984 . S
N988 H995 0.984 1_554 S
N989 C982 1.356 . S
N989 H992 0.984 1_556 S
N989 H993 0.985 . S
H990 N985 0.984 . S
H991 N985 0.985 . S
H992 N989 0.984 1_554 S
H993 N989 0.985 . S
H994 N988 0.984 . S
H995 N988 0.984 1_556 S
H996 N984 0.984 . S
H997 N984 0.985 . S
C998 C999 1.363 . S
C998 C1004 1.379 . S
C998 N1006 1.356 . S
C999 C998 1.363 . S
C999 C1005 1.363 . S
C1000 C1001 1.363 . S
C1000 C1005 1.379 . S
C1000 N1007 1.356 . S
C1001 C1000 1.363 . S
C1001 C1004 1.363 . S
N1002 C1004 1.356 . S
N1002 H1014 0.984 . S
N1002 H1015 0.985 . S
N1003 C1005 1.356 . S
N1003 H1008 0.984 . S
N1003 H1009 0.985 . S
C1004 C998 1.379 . S
C1004 C1001 1.363 . S
C1004 N1002 1.356 . S
C1005 C999 1.363 . S
C1005 C1000 1.379 . S
C1005 N1003 1.356 . S
N1006 C998 1.356 . S
N1006 H1012 0.984 . S
N1006 H1013 0.984 . S
N1007 C1000 1.356 . S
N1007 H1010 0.984 . S
N1007 H1011 0.985 . S
H1008 N1003 0.984 . S
H1009 N1003 0.985 . S
H1010 N1007 0.984 . S
H1011 N1007 0.985 . S
H1012 N1006 0.984 . S
H1013 N1006 0.984 . S
H1014 N1002 0.984 . S
H1015 N1002 0.985 . S
C1016 C1017 1.378 . S
C1016 C1022 1.364 1_554 S
C1016 N1024 1.362 . S
C1017 C1016 1.378 . S
C1017 C1023 1.363 . S
C1018 C1019 1.378 . S
C1018 C1023 1.364 1_556 S
C1018 N1025 1.362 . S
C1019 C1018 1.378 . S
C1019 C1022 1.363 . S
N1020 C1022 1.356 . S
N1020 H1032 0.984 . S
N1020 H1033 0.985 . S
N1021 C1023 1.356 . S
N1021 H1026 0.984 . S
N1021 H1027 0.985 . S
C1022 C1016 1.364 1_556 S
C1022 C1019 1.363 . S
C1022 N1020 1.356 . S
C1023 C1017 1.363 . S
C1023 C1018 1.364 1_554 S
C1023 N1021 1.356 . S
N1024 C1016 1.362 . S
N1024 H1030 0.984 1_554 S
N1024 H1031 0.984 . S
N1025 C1018 1.362 . S
N1025 H1028 0.984 . S
N1025 H1029 0.985 1_556 S
H1026 N1021 0.984 . S
H1027 N1021 0.985 . S
H1028 N1025 0.984 . S
H1029 N1025 0.985 1_554 S
H1030 N1024 0.984 1_556 S
H1031 N1024 0.984 . S
H1032 N1020 0.984 . S
H1033 N1020 0.985 . S
C1034 C1035 1.363 . S
C1034 C1040 1.379 . S
C1034 N1042 1.356 . S
C1035 C1034 1.363 . S
C1035 C1041 1.363 . S
C1036 C1037 1.363 . S
C1036 C1041 1.379 . S
C1036 N1043 1.356 . S
C1037 C1036 1.363 . S
C1037 C1040 1.363 . S
N1038 C1040 1.356 . S
N1038 H1050 0.984 . S
N1038 H1051 0.985 . S
N1039 C1041 1.356 . S
N1039 H1044 0.984 . S
N1039 H1045 0.985 . S
C1040 C1034 1.379 . S
C1040 C1037 1.363 . S
C1040 N1038 1.356 . S
C1041 C1035 1.363 . S
C1041 C1036 1.379 . S
C1041 N1039 1.356 . S
N1042 C1034 1.356 . S
N1042 H1048 0.984 . S
N1042 H1049 0.984 . S
N1043 C1036 1.356 . S
N1043 H1046 0.984 . S
N1043 H1047 0.985 . S
H1044 N1039 0.984 . S
H1045 N1039 0.985 . S
H1046 N1043 0.984 . S
H1047 N1043 0.985 . S
H1048 N1042 0.984 . S
H1049 N1042 0.984 . S
H1050 N1038 0.984 . S
H1051 N1038 0.985 . S
C1052 C1053 1.363 . S
C1052 C1058 1.379 . S
C1052 N1060 1.356 . S
C1053 C1052 1.363 . S
C1053 C1059 1.363 1_556 S
C1054 C1055 1.363 . S
C1054 C1059 1.379 . S
C1054 N1061 1.356 . S
C1055 C1054 1.363 . S
C1055 C1058 1.363 1_554 S
N1056 C1058 1.356 1_554 S
N1056 H1068 0.984 1_554 S
N1056 H1069 0.985 . S
N1057 C1059 1.356 1_556 S
N1057 H1062 0.984 . S
N1057 H1063 0.985 1_556 S
C1058 C1052 1.379 . S
C1058 C1055 1.363 1_556 S
C1058 N1056 1.356 1_556 S
C1059 C1053 1.363 1_554 S
C1059 C1054 1.379 . S
C1059 N1057 1.356 1_554 S
N1060 C1052 1.356 . S
N1060 H1066 0.984 . S
N1060 H1067 0.984 . S
N1061 C1054 1.356 . S
N1061 H1064 0.984 . S
N1061 H1065 0.985 . S
H1062 N1057 0.984 . S
H1063 N1057 0.985 1_554 S
H1064 N1061 0.984 . S
H1065 N1061 0.985 . S
H1066 N1060 0.984 . S
H1067 N1060 0.984 . S
H1068 N1056 0.984 1_556 S
H1069 N1056 0.985 . S
C1070 C1071 1.363 . S
C1070 C1076 1.379 . S
C1070 N1078 1.356 . S
C1071 C1070 1.363 . S
C1071 C1077 1.363 . S
C1072 C1073 1.363 . S
C1072 C1077 1.379 . S
C1072 N1079 1.356 . S
C1073 C1072 1.363 . S
C1073 C1076 1.363 . S
N1074 C1076 1.356 . S
N1074 H1086 0.984 . S
N1074 H1087 0.985 . S
N1075 C1077 1.356 . S
N1075 H1080 0.984 . S
N1075 H1081 0.985 . S
C1076 C1070 1.379 . S
C1076 C1073 1.363 . S
C1076 N1074 1.356 . S
C1077 C1071 1.363 . S
C1077 C1072 1.379 . S
C1077 N1075 1.356 . S
N1078 C1070 1.356 . S
N1078 H1084 0.984 . S
N1078 H1085 0.984 . S
N1079 C1072 1.356 . S
N1079 H1082 0.984 . S
N1079 H1083 0.985 . S
H1080 N1075 0.984 . S
H1081 N1075 0.985 . S
H1082 N1079 0.984 . S
H1083 N1079 0.985 . S
H1084 N1078 0.984 . S
H1085 N1078 0.984 . S
H1086 N1074 0.984 . S
H1087 N1074 0.985 . S
C1088 C1089 1.363 . S
C1088 C1094 1.379 . S
C1088 N1096 1.356 . S
C1089 C1088 1.363 . S
C1089 C1095 1.363 . S
C1090 C1091 1.363 . S
C1090 C1095 1.379 . S
C1090 N1097 1.356 . S
C1091 C1090 1.363 . S
C1091 C1094 1.363 . S
N1092 C1094 1.356 . S
N1092 H1104 0.984 . S
N1092 H1105 0.985 . S
N1093 C1095 1.356 . S
N1093 H1098 0.984 . S
N1093 H1099 0.985 . S
C1094 C1088 1.379 . S
C1094 C1091 1.363 . S
C1094 N1092 1.356 . S
C1095 C1089 1.363 . S
C1095 C1090 1.379 . S
C1095 N1093 1.356 . S
N1096 C1088 1.356 . S
N1096 H1102 0.984 . S
N1096 H1103 0.984 . S
N1097 C1090 1.356 . S
N1097 H1100 0.984 . S
N1097 H1101 0.985 . S
H1098 N1093 0.984 . S
H1099 N1093 0.985 . S
H1100 N1097 0.984 . S
H1101 N1097 0.985 . S
H1102 N1096 0.984 . S
H1103 N1096 0.984 . S
H1104 N1092 0.984 . S
H1105 N1092 0.985 . S
C1106 C1107 1.363 . S
C1106 C1112 1.379 . S
C1106 N1114 1.356 . S
C1107 C1106 1.363 . S
C1107 C1113 1.363 . S
C1108 C1109 1.363 . S
C1108 C1113 1.379 . S
C1108 N1115 1.356 . S
C1109 C1108 1.363 . S
C1109 C1112 1.363 . S
N1110 C1112 1.356 . S
N1110 H1122 0.984 . S
N1110 H1123 0.985 . S
N1111 C1113 1.356 . S
N1111 H1116 0.984 . S
N1111 H1117 0.985 . S
C1112 C1106 1.379 . S
C1112 C1109 1.363 . S
C1112 N1110 1.356 . S
C1113 C1107 1.363 . S
C1113 C1108 1.379 . S
C1113 N1111 1.356 . S
N1114 C1106 1.356 . S
N1114 H1120 0.984 . S
N1114 H1121 0.984 . S
N1115 C1108 1.356 . S
N1115 H1118 0.984 . S
N1115 H1119 0.985 . S
H1116 N1111 0.984 . S
H1117 N1111 0.985 . S
H1118 N1115 0.984 . S
H1119 N1115 0.985 . S
H1120 N1114 0.984 . S
H1121 N1114 0.984 . S
H1122 N1110 0.984 . S
H1123 N1110 0.985 . S
C1124 C1125 1.363 . S
C1124 C1130 1.379 . S
C1124 N1132 1.356 . S
C1125 C1124 1.363 . S
C1125 C1131 1.363 . S
C1126 C1127 1.363 . S
C1126 C1131 1.379 . S
C1126 N1133 1.356 . S
C1127 C1126 1.363 . S
C1127 C1130 1.363 . S
N1128 C1130 1.356 . S
N1128 H1140 0.984 . S
N1128 H1141 0.985 . S
N1129 C1131 1.356 . S
N1129 H1134 0.984 . S
N1129 H1135 0.985 . S
C1130 C1124 1.379 . S
C1130 C1127 1.363 . S
C1130 N1128 1.356 . S
C1131 C1125 1.363 . S
C1131 C1126 1.379 . S
C1131 N1129 1.356 . S
N1132 C1124 1.356 . S
N1132 H1138 0.984 . S
N1132 H1139 0.984 . S
N1133 C1126 1.356 . S
N1133 H1136 0.984 . S
N1133 H1137 0.985 . S
H1134 N1129 0.984 . S
H1135 N1129 0.985 . S
H1136 N1133 0.984 . S
H1137 N1133 0.985 . S
H1138 N1132 0.984 . S
H1139 N1132 0.984 . S
H1140 N1128 0.984 . S
H1141 N1128 0.985 . S
C1142 C1143 1.363 . S
C1142 C1148 1.379 . S
C1142 N1150 1.356 . S
C1143 C1142 1.363 . S
C1143 C1149 1.363 . S
C1144 C1145 1.363 . S
C1144 C1149 1.379 . S
C1144 N1151 1.356 . S
C1145 C1144 1.363 . S
C1145 C1148 1.363 . S
N1146 C1148 1.356 . S
N1146 H1158 0.984 . S
N1146 H1159 0.985 . S
N1147 C1149 1.356 . S
N1147 H1152 0.984 . S
N1147 H1153 0.985 . S
C1148 C1142 1.379 . S
C1148 C1145 1.363 . S
C1148 N1146 1.356 . S
C1149 C1143 1.363 . S
C1149 C1144 1.379 . S
C1149 N1147 1.356 . S
N1150 C1142 1.356 . S
N1150 H1156 0.984 . S
N1150 H1157 0.984 . S
N1151 C1144 1.356 . S
N1151 H1154 0.984 . S
N1151 H1155 0.985 . S
H1152 N1147 0.984 . S
H1153 N1147 0.985 . S
H1154 N1151 0.984 . S
H1155 N1151 0.985 . S
H1156 N1150 0.984 . S
H1157 N1150 0.984 . S
H1158 N1146 0.984 . S
H1159 N1146 0.985 . S
C1160 C1161 1.363 . S
C1160 C1166 1.379 . S
C1160 N1168 1.356 . S
C1161 C1160 1.363 . S
C1161 C1167 1.363 . S
C1162 C1163 1.363 . S
C1162 C1167 1.379 . S
C1162 N1169 1.356 . S
C1163 C1162 1.363 . S
C1163 C1166 1.363 . S
N1164 C1166 1.356 . S
N1164 H1176 0.984 . S
N1164 H1177 0.985 . S
N1165 C1167 1.356 . S
N1165 H1170 0.984 . S
N1165 H1171 0.985 . S
C1166 C1160 1.379 . S
C1166 C1163 1.363 . S
C1166 N1164 1.356 . S
C1167 C1161 1.363 . S
C1167 C1162 1.379 . S
C1167 N1165 1.356 . S
N1168 C1160 1.356 . S
N1168 H1174 0.984 . S
N1168 H1175 0.984 . S
N1169 C1162 1.356 . S
N1169 H1172 0.984 . S
N1169 H1173 0.985 . S
H1170 N1165 0.984 . S
H1171 N1165 0.985 . S
H1172 N1169 0.984 . S
H1173 N1169 0.985 . S
H1174 N1168 0.984 . S
H1175 N1168 0.984 . S
H1176 N1164 0.984 . S
H1177 N1164 0.985 . S
C1178 C1179 1.363 . S
C1178 C1184 1.379 . S
C1178 N1186 1.356 . S
C1179 C1178 1.363 . S
C1179 C1185 1.363 . S
C1180 C1181 1.363 . S
C1180 C1185 1.379 . S
C1180 N1187 1.356 . S
C1181 C1180 1.363 . S
C1181 C1184 1.363 . S
N1182 C1184 1.356 . S
N1182 H1194 0.984 . S
N1182 H1195 0.985 . S
N1183 C1185 1.356 . S
N1183 H1188 0.984 . S
N1183 H1189 0.985 . S
C1184 C1178 1.379 . S
C1184 C1181 1.363 . S
C1184 N1182 1.356 . S
C1185 C1179 1.363 . S
C1185 C1180 1.379 . S
C1185 N1183 1.356 . S
N1186 C1178 1.356 . S
N1186 H1192 0.984 . S
N1186 H1193 0.984 . S
N1187 C1180 1.356 . S
N1187 H1190 0.984 . S
N1187 H1191 0.985 . S
H1188 N1183 0.984 . S
H1189 N1183 0.985 . S
H1190 N1187 0.984 . S
H1191 N1187 0.985 . S
H1192 N1186 0.984 . S
H1193 N1186 0.984 . S
H1194 N1182 0.984 . S
H1195 N1182 0.985 . S
C1196 C1197 1.363 . S
C1196 C1202 1.379 . S
C1196 N1204 1.356 . S
C1197 C1196 1.363 . S
C1197 C1203 1.363 . S
C1198 C1199 1.363 . S
C1198 C1203 1.379 . S
C1198 N1205 1.356 . S
C1199 C1198 1.363 . S
C1199 C1202 1.363 . S
N1200 C1202 1.356 . S
N1200 H1212 0.984 . S
N1200 H1213 0.985 . S
N1201 C1203 1.356 . S
N1201 H1206 0.984 . S
N1201 H1207 0.985 . S
C1202 C1196 1.379 . S
C1202 C1199 1.363 . S
C1202 N1200 1.356 . S
C1203 C1197 1.363 . S
C1203 C1198 1.379 . S
C1203 N1201 1.356 . S
N1204 C1196 1.356 . S
N1204 H1210 0.984 . S
N1204 H1211 0.984 . S
N1205 C1198 1.356 . S
N1205 H1208 0.984 . S
N1205 H1209 0.985 . S
H1206 N1201 0.984 . S
H1207 N1201 0.985 . S
H1208 N1205 0.984 . S
H1209 N1205 0.985 . S
H1210 N1204 0.984 . S
H1211 N1204 0.984 . S
H1212 N1200 0.984 . S
H1213 N1200 0.985 . S
C1214 C1215 1.363 . S
C1214 C1220 1.379 . S
C1214 N1222 1.356 . S
C1215 C1214 1.363 . S
C1215 C1221 1.363 . S
C1216 C1217 1.363 . S
C1216 C1221 1.379 . S
C1216 N1223 1.356 . S
C1217 C1216 1.363 . S
C1217 C1220 1.363 . S
N1218 C1220 1.356 . S
N1218 H1230 0.984 . S
N1218 H1231 0.985 . S
N1219 C1221 1.356 . S
N1219 H1224 0.984 . S
N1219 H1225 0.985 . S
C1220 C1214 1.379 . S
C1220 C1217 1.363 . S
C1220 N1218 1.356 . S
C1221 C1215 1.363 . S
C1221 C1216 1.379 . S
C1221 N1219 1.356 . S
N1222 C1214 1.356 . S
N1222 H1228 0.984 . S
N1222 H1229 0.984 . S
N1223 C1216 1.356 . S
N1223 H1226 0.984 . S
N1223 H1227 0.985 . S
H1224 N1219 0.984 . S
H1225 N1219 0.985 . S
H1226 N1223 0.984 . S
H1227 N1223 0.985 . S
H1228 N1222 0.984 . S
H1229 N1222 0.984 . S
H1230 N1218 0.984 . S
H1231 N1218 0.985 . S
C1232 C1233 1.363 . S
C1232 C1238 1.379 . S
C1232 N1240 1.356 . S
C1233 C1232 1.363 . S
C1233 C1239 1.363 . S
C1234 C1235 1.363 . S
C1234 C1239 1.379 . S
C1234 N1241 1.356 . S
C1235 C1234 1.363 . S
C1235 C1238 1.363 . S
N1236 C1238 1.356 . S
N1236 H1248 0.984 . S
N1236 H1249 0.985 . S
N1237 C1239 1.356 . S
N1237 H1242 0.984 . S
N1237 H1243 0.985 1_545 S
C1238 C1232 1.379 . S
C1238 C1235 1.363 . S
C1238 N1236 1.356 . S
C1239 C1233 1.363 . S
C1239 C1234 1.379 . S
C1239 N1237 1.356 . S
N1240 C1232 1.356 . S
N1240 H1246 0.984 . S
N1240 H1247 0.984 . S
N1241 C1234 1.356 . S
N1241 H1244 0.984 . S
N1241 H1245 0.985 1_545 S
H1242 N1237 0.984 . S
H1243 N1237 0.985 1_565 S
H1244 N1241 0.984 . S
H1245 N1241 0.985 1_565 S
H1246 N1240 0.984 . S
H1247 N1240 0.984 . S
H1248 N1236 0.984 . S
H1249 N1236 0.985 . S
C1250 C1251 1.363 . S
C1250 C1256 1.379 . S
C1250 N1258 1.356 . S
C1251 C1250 1.363 . S
C1251 C1257 1.363 . S
C1252 C1253 1.363 . S
C1252 C1257 1.379 . S
C1252 N1259 1.356 . S
C1253 C1252 1.363 . S
C1253 C1256 1.363 . S
N1254 C1256 1.356 . S
N1254 H1266 0.984 . S
N1254 H1267 0.985 . S
N1255 C1257 1.356 . S
N1255 H1260 0.984 . S
N1255 H1261 0.985 . S
C1256 C1250 1.379 . S
C1256 C1253 1.363 . S
C1256 N1254 1.356 . S
C1257 C1251 1.363 . S
C1257 C1252 1.379 . S
C1257 N1255 1.356 . S
N1258 C1250 1.356 . S
N1258 H1264 0.984 . S
N1258 H1265 0.984 . S
N1259 C1252 1.356 . S
N1259 H1262 0.984 . S
N1259 H1263 0.985 . S
H1260 N1255 0.984 . S
H1261 N1255 0.985 . S
H1262 N1259 0.984 . S
H1263 N1259 0.985 . S
H1264 N1258 0.984 . S
H1265 N1258 0.984 . S
H1266 N1254 0.984 . S
H1267 N1254 0.985 . S
C1268 C1269 1.363 . S
C1268 C1274 1.379 . S
C1268 N1276 1.356 . S
C1269 C1268 1.363 . S
C1269 C1275 1.363 . S
C1270 C1271 1.363 . S
C1270 C1275 1.379 . S
C1270 N1277 1.356 . S
C1271 C1270 1.363 . S
C1271 C1274 1.363 . S
N1272 C1274 1.356 . S
N1272 H1284 0.984 . S
N1272 H1285 0.985 . S
N1273 C1275 1.356 . S
N1273 H1278 0.984 . S
N1273 H1279 0.985 . S
C1274 C1268 1.379 . S
C1274 C1271 1.363 . S
C1274 N1272 1.356 . S
C1275 C1269 1.363 . S
C1275 C1270 1.379 . S
C1275 N1273 1.356 . S
N1276 C1268 1.356 . S
N1276 H1282 0.984 . S
N1276 H1283 0.984 . S
N1277 C1270 1.356 . S
N1277 H1280 0.984 . S
N1277 H1281 0.985 . S
H1278 N1273 0.984 . S
H1279 N1273 0.985 . S
H1280 N1277 0.984 . S
H1281 N1277 0.985 . S
H1282 N1276 0.984 . S
H1283 N1276 0.984 . S
H1284 N1272 0.984 . S
H1285 N1272 0.985 . S
C1286 C1287 1.363 . S
C1286 C1292 1.379 . S
C1286 N1294 1.356 . S
C1287 C1286 1.363 . S
C1287 C1293 1.363 . S
C1288 C1289 1.363 . S
C1288 C1293 1.379 . S
C1288 N1295 1.356 . S
C1289 C1288 1.363 . S
C1289 C1292 1.363 . S
N1290 C1292 1.356 . S
N1290 H1302 0.984 . S
N1290 H1303 0.985 . S
N1291 C1293 1.356 . S
N1291 H1296 0.984 . S
N1291 H1297 0.985 . S
C1292 C1286 1.379 . S
C1292 C1289 1.363 . S
C1292 N1290 1.356 . S
C1293 C1287 1.363 . S
C1293 C1288 1.379 . S
C1293 N1291 1.356 . S
N1294 C1286 1.356 . S
N1294 H1300 0.984 . S
N1294 H1301 0.984 . S
N1295 C1288 1.356 . S
N1295 H1298 0.984 . S
N1295 H1299 0.985 . S
H1296 N1291 0.984 . S
H1297 N1291 0.985 . S
H1298 N1295 0.984 . S
H1299 N1295 0.985 . S
H1300 N1294 0.984 . S
H1301 N1294 0.984 . S
H1302 N1290 0.984 . S
H1303 N1290 0.985 . S
C1304 C1305 1.363 . S
C1304 C1310 1.379 . S
C1304 N1312 1.356 . S
C1305 C1304 1.363 . S
C1305 C1311 1.363 . S
C1306 C1307 1.363 . S
C1306 C1311 1.379 . S
C1306 N1313 1.356 . S
C1307 C1306 1.363 . S
C1307 C1310 1.363 . S
N1308 C1310 1.356 . S
N1308 H1320 0.984 . S
N1308 H1321 0.985 . S
N1309 C1311 1.356 . S
N1309 H1314 0.984 . S
N1309 H1315 0.985 1_565 S
C1310 C1304 1.379 . S
C1310 C1307 1.363 . S
C1310 N1308 1.356 . S
C1311 C1305 1.363 . S
C1311 C1306 1.379 . S
C1311 N1309 1.356 . S
N1312 C1304 1.356 . S
N1312 H1318 0.984 . S
N1312 H1319 0.984 . S
N1313 C1306 1.356 . S
N1313 H1316 0.984 . S
N1313 H1317 0.985 1_565 S
H1314 N1309 0.984 . S
H1315 N1309 0.985 1_545 S
H1316 N1313 0.984 . S
H1317 N1313 0.985 1_545 S
H1318 N1312 0.984 . S
H1319 N1312 0.984 . S
H1320 N1308 0.984 . S
H1321 N1308 0.985 . S
C1322 C1323 1.363 . S
C1322 C1328 1.379 . S
C1322 N1330 1.356 . S
C1323 C1322 1.363 . S
C1323 C1329 1.363 . S
C1324 C1325 1.363 . S
C1324 C1329 1.379 . S
C1324 N1331 1.356 . S
C1325 C1324 1.363 . S
C1325 C1328 1.363 . S
N1326 C1328 1.356 . S
N1326 H1338 0.984 . S
N1326 H1339 0.985 . S
N1327 C1329 1.356 . S
N1327 H1332 0.984 . S
N1327 H1333 0.985 . S
C1328 C1322 1.379 . S
C1328 C1325 1.363 . S
C1328 N1326 1.356 . S
C1329 C1323 1.363 . S
C1329 C1324 1.379 . S
C1329 N1327 1.356 . S
N1330 C1322 1.356 . S
N1330 H1336 0.984 . S
N1330 H1337 0.984 . S
N1331 C1324 1.356 . S
N1331 H1334 0.984 . S
N1331 H1335 0.985 . S
H1332 N1327 0.984 . S
H1333 N1327 0.985 . S
H1334 N1331 0.984 . S
H1335 N1331 0.985 . S
H1336 N1330 0.984 . S
H1337 N1330 0.984 . S
H1338 N1326 0.984 . S
H1339 N1326 0.985 . S
C1340 C1341 1.363 . S
C1340 C1346 1.379 . S
C1340 N1348 1.356 . S
C1341 C1340 1.363 . S
C1341 C1347 1.363 . S
C1342 C1343 1.363 . S
C1342 C1347 1.379 . S
C1342 N1349 1.356 . S
C1343 C1342 1.363 . S
C1343 C1346 1.363 . S
N1344 C1346 1.356 . S
N1344 H1356 0.984 . S
N1344 H1357 0.985 . S
N1345 C1347 1.356 . S
N1345 H1350 0.984 . S
N1345 H1351 0.985 . S
C1346 C1340 1.379 . S
C1346 C1343 1.363 . S
C1346 N1344 1.356 . S
C1347 C1341 1.363 . S
C1347 C1342 1.379 . S
C1347 N1345 1.356 . S
N1348 C1340 1.356 . S
N1348 H1354 0.984 . S
N1348 H1355 0.984 . S
N1349 C1342 1.356 . S
N1349 H1352 0.984 . S
N1349 H1353 0.985 . S
H1350 N1345 0.984 . S
H1351 N1345 0.985 . S
H1352 N1349 0.984 . S
H1353 N1349 0.985 . S
H1354 N1348 0.984 . S
H1355 N1348 0.984 . S
H1356 N1344 0.984 . S
H1357 N1344 0.985 . S
C1358 C1359 1.363 . S
C1358 C1364 1.379 . S
C1358 N1366 1.356 . S
C1359 C1358 1.363 . S
C1359 C1365 1.363 . S
C1360 C1361 1.363 . S
C1360 C1365 1.379 . S
C1360 N1367 1.356 . S
C1361 C1360 1.363 . S
C1361 C1364 1.363 . S
N1362 C1364 1.356 . S
N1362 H1374 0.984 . S
N1362 H1375 0.985 . S
N1363 C1365 1.356 . S
N1363 H1368 0.984 . S
N1363 H1369 0.985 . S
C1364 C1358 1.379 . S
C1364 C1361 1.363 . S
C1364 N1362 1.356 . S
C1365 C1359 1.363 . S
C1365 C1360 1.379 . S
C1365 N1363 1.356 . S
N1366 C1358 1.356 . S
N1366 H1372 0.984 . S
N1366 H1373 0.984 . S
N1367 C1360 1.356 . S
N1367 H1370 0.984 . S
N1367 H1371 0.985 . S
H1368 N1363 0.984 . S
H1369 N1363 0.985 . S
H1370 N1367 0.984 . S
H1371 N1367 0.985 . S
H1372 N1366 0.984 . S
H1373 N1366 0.984 . S
H1374 N1362 0.984 . S
H1375 N1362 0.985 . S
C1376 C1377 1.364 . S
C1376 C1382 1.379 . S
C1376 N1384 1.356 1_565 S
C1377 C1376 1.364 . S
C1377 C1383 1.382 . S
C1378 C1379 1.363 . S
C1378 C1383 1.379 . S
C1378 N1385 1.356 . S
C1379 C1378 1.363 . S
C1379 C1382 1.363 . S
N1380 C1382 1.356 . S
N1380 H1392 0.984 . S
N1380 H1393 0.985 . S
N1381 C1383 1.356 . S
N1381 H1386 0.984 1_565 S
N1381 H1387 0.985 . S
C1382 C1376 1.379 . S
C1382 C1379 1.363 . S
C1382 N1380 1.356 . S
C1383 C1377 1.382 . S
C1383 C1378 1.379 . S
C1383 N1381 1.356 . S
N1384 C1376 1.356 1_545 S
N1384 H1390 0.984 . S
N1384 H1391 0.984 . S
N1385 C1378 1.356 . S
N1385 H1388 0.984 . S
N1385 H1389 0.985 . S
H1386 N1381 0.984 1_545 S
H1387 N1381 0.985 . S
H1388 N1385 0.984 . S
H1389 N1385 0.985 . S
H1390 N1384 0.984 . S
H1391 N1384 0.984 . S
H1392 N1380 0.984 . S
H1393 N1380 0.985 . S
C1394 C1395 1.363 . S
C1394 C1400 1.379 . S
C1394 N1402 1.356 . S
C1395 C1394 1.363 . S
C1395 C1401 1.363 . S
C1396 C1397 1.363 . S
C1396 C1401 1.379 . S
C1396 N1403 1.356 . S
C1397 C1396 1.363 . S
C1397 C1400 1.363 . S
N1398 C1400 1.356 . S
N1398 H1410 0.984 . S
N1398 H1411 0.985 . S
N1399 C1401 1.356 . S
N1399 H1404 0.984 . S
N1399 H1405 0.985 . S
C1400 C1394 1.379 . S
C1400 C1397 1.363 . S
C1400 N1398 1.356 . S
C1401 C1395 1.363 . S
C1401 C1396 1.379 . S
C1401 N1399 1.356 . S
N1402 C1394 1.356 . S
N1402 H1408 0.984 . S
N1402 H1409 0.984 . S
N1403 C1396 1.356 . S
N1403 H1406 0.984 . S
N1403 H1407 0.985 . S
H1404 N1399 0.984 . S
H1405 N1399 0.985 . S
H1406 N1403 0.984 . S
H1407 N1403 0.985 . S
H1408 N1402 0.984 . S
H1409 N1402 0.984 . S
H1410 N1398 0.984 . S
H1411 N1398 0.985 . S
C1412 C1413 1.363 . S
C1412 C1418 1.379 . S
C1412 N1420 1.356 . S
C1413 C1412 1.363 . S
C1413 C1419 1.363 . S
C1414 C1415 1.364 . S
C1414 C1419 1.379 . S
C1414 N1421 1.356 1_455 S
C1415 C1414 1.364 . S
C1415 C1418 1.382 . S
N1416 C1418 1.356 . S
N1416 H1428 0.984 . S
N1416 H1429 0.985 1_455 S
N1417 C1419 1.356 . S
N1417 H1422 0.984 . S
N1417 H1423 0.985 . S
C1418 C1412 1.379 . S
C1418 C1415 1.382 . S
C1418 N1416 1.356 . S
C1419 C1413 1.363 . S
C1419 C1414 1.379 . S
C1419 N1417 1.356 . S
N1420 C1412 1.356 . S
N1420 H1426 0.984 . S
N1420 H1427 0.984 . S
N1421 C1414 1.356 1_655 S
N1421 H1424 0.984 . S
N1421 H1425 0.985 . S
H1422 N1417 0.984 . S
H1423 N1417 0.985 . S
H1424 N1421 0.984 . S
H1425 N1421 0.985 . S
H1426 N1420 0.984 . S
H1427 N1420 0.984 . S
H1428 N1416 0.984 . S
H1429 N1416 0.985 1_655 S
C1430 C1431 1.364 . S
C1430 C1436 1.379 . S
C1430 N1438 1.356 1_545 S
C1431 C1430 1.364 . S
C1431 C1437 1.382 . S
C1432 C1433 1.382 . S
C1432 C1437 1.379 . S
C1432 N1439 1.356 . S
C1433 C1432 1.382 . S
C1433 C1436 1.364 . S
N1434 C1436 1.356 1_455 S
N1434 H1446 0.984 . S
N1434 H1447 0.985 . S
N1435 C1437 1.356 . S
N1435 H1440 0.984 1_545 S
N1435 H1441 0.985 . S
C1436 C1430 1.379 . S
C1436 C1433 1.364 . S
C1436 N1434 1.356 1_655 S
C1437 C1431 1.382 . S
C1437 C1432 1.379 . S
C1437 N1435 1.356 . S
N1438 C1430 1.356 1_565 S
N1438 H1444 0.984 . S
N1438 H1445 0.984 . S
N1439 C1432 1.356 . S
N1439 H1442 0.984 1_655 S
N1439 H1443 0.985 . S
H1440 N1435 0.984 1_565 S
H1441 N1435 0.985 . S
H1442 N1439 0.984 1_455 S
H1443 N1439 0.985 . S
H1444 N1438 0.984 . S
H1445 N1438 0.984 . S
H1446 N1434 0.984 . S
H1447 N1434 0.985 . S
C1448 C1449 1.363 . S
C1448 C1454 1.379 . S
C1448 N1456 1.356 . S
C1449 C1448 1.363 . S
C1449 C1455 1.363 . S
C1450 C1451 1.363 . S
C1450 C1455 1.379 . S
C1450 N1457 1.356 . S
C1451 C1450 1.363 . S
C1451 C1454 1.363 . S
N1452 C1454 1.356 . S
N1452 H1464 0.984 . S
N1452 H1465 0.985 . S
N1453 C1455 1.356 . S
N1453 H1458 0.984 . S
N1453 H1459 0.985 . S
C1454 C1448 1.379 . S
C1454 C1451 1.363 . S
C1454 N1452 1.356 . S
C1455 C1449 1.363 . S
C1455 C1450 1.379 . S
C1455 N1453 1.356 . S
N1456 C1448 1.356 . S
N1456 H1462 0.984 . S
N1456 H1463 0.984 . S
N1457 C1450 1.356 . S
N1457 H1460 0.984 . S
N1457 H1461 0.985 . S
H1458 N1453 0.984 . S
H1459 N1453 0.985 . S
H1460 N1457 0.984 . S
H1461 N1457 0.985 . S
H1462 N1456 0.984 . S
H1463 N1456 0.984 . S
H1464 N1452 0.984 . S
H1465 N1452 0.985 . S
C1466 C1467 1.382 . S
C1466 C1472 1.379 . S
C1466 N1474 1.356 . S
C1467 C1466 1.382 . S
C1467 C1473 1.364 . S
C1468 C1469 1.363 . S
C1468 C1473 1.379 . S
C1468 N1475 1.356 . S
C1469 C1468 1.363 . S
C1469 C1472 1.363 . S
N1470 C1472 1.356 . S
N1470 H1482 0.984 . S
N1470 H1483 0.985 . S
N1471 C1473 1.356 1_455 S
N1471 H1476 0.984 . S
N1471 H1477 0.985 . S
C1472 C1466 1.379 . S
C1472 C1469 1.363 . S
C1472 N1470 1.356 . S
C1473 C1467 1.364 . S
C1473 C1468 1.379 . S
C1473 N1471 1.356 1_655 S
N1474 C1466 1.356 . S
N1474 H1480 0.984 . S
N1474 H1481 0.984 1_655 S
N1475 C1468 1.356 . S
N1475 H1478 0.984 . S
N1475 H1479 0.985 . S
H1476 N1471 0.984 . S
H1477 N1471 0.985 . S
H1478 N1475 0.984 . S
H1479 N1475 0.985 . S
H1480 N1474 0.984 . S
H1481 N1474 0.984 1_455 S
H1482 N1470 0.984 . S
H1483 N1470 0.985 . S
C1484 C1485 1.382 . S
C1484 C1490 1.379 . S
C1484 N1492 1.356 . S
C1485 C1484 1.382 . S
C1485 C1491 1.364 . S
C1486 C1487 1.364 . S
C1486 C1491 1.379 . S
C1486 N1493 1.356 1_565 S
C1487 C1486 1.364 . S
C1487 C1490 1.382 . S
N1488 C1490 1.356 . S
N1488 H1500 0.984 . S
N1488 H1501 0.985 1_565 S
N1489 C1491 1.356 1_655 S
N1489 H1494 0.984 . S
N1489 H1495 0.985 . S
C1490 C1484 1.379 . S
C1490 C1487 1.382 . S
C1490 N1488 1.356 . S
C1491 C1485 1.364 . S
C1491 C1486 1.379 . S
C1491 N1489 1.356 1_455 S
N1492 C1484 1.356 . S
N1492 H1498 0.984 . S
N1492 H1499 0.984 1_455 S
N1493 C1486 1.356 1_545 S
N1493 H1496 0.984 . S
N1493 H1497 0.985 . S
H1494 N1489 0.984 . S
H1495 N1489 0.985 . S
H1496 N1493 0.984 . S
H1497 N1493 0.985 . S
H1498 N1492 0.984 . S
H1499 N1492 0.984 1_655 S
H1500 N1488 0.984 . S
H1501 N1488 0.985 1_545 S
C1502 C1503 1.382 . S
C1502 C1508 1.379 . S
C1502 N1510 1.356 . S
C1503 C1502 1.382 . S
C1503 C1509 1.364 . S
C1504 C1505 1.363 . S
C1504 C1509 1.379 . S
C1504 N1511 1.356 . S
C1505 C1504 1.363 . S
C1505 C1508 1.363 . S
N1506 C1508 1.356 . S
N1506 H1518 0.984 . S
N1506 H1519 0.985 . S
N1507 C1509 1.356 1_565 S
N1507 H1512 0.984 . S
N1507 H1513 0.985 . S
C1508 C1502 1.379 . S
C1508 C1505 1.363 . S
C1508 N1506 1.356 . S
C1509 C1503 1.364 . S
C1509 C1504 1.379 . S
C1509 N1507 1.356 1_545 S
N1510 C1502 1.356 . S
N1510 H1516 0.984 . S
N1510 H1517 0.984 1_545 S
N1511 C1504 1.356 . S
N1511 H1514 0.984 . S
N1511 H1515 0.985 . S
H1512 N1507 0.984 . S
H1513 N1507 0.985 . S
H1514 N1511 0.984 . S
H1515 N1511 0.985 . S
H1516 N1510 0.984 . S
H1517 N1510 0.984 1_565 S
H1518 N1506 0.984 . S
H1519 N1506 0.985 . S
C945 C416 1.688 . S
C947 C3 1.688 . S
C963 C239 1.688 . S
C965 C62 1.688 . S
C981 C298 1.688 . S
C983 C121 1.688 . S
C999 C180 1.688 . S
C1001 C357 1.688 . S
C1017 C888 1.688 . S
C1019 C475 1.688 . S
C1035 C711 1.688 . S
C1037 C534 1.688 . S
C1053 C593 1.688 . S
C1055 C770 1.688 . S
C1071 C652 1.688 . S
C1073 C829 1.688 . S
C1089 C170 1.284 . S
C1091 C52 1.284 . S
C1107 C111 1.284 . S
C1109 C229 1.284 . S
C1125 C288 1.284 . S
C1127 C406 1.284 . S
C1143 C465 1.284 . S
C1145 C347 1.284 . S
C1161 C524 1.284 . S
C1163 C642 1.284 . S
C1179 C583 1.284 . S
C1181 C701 1.284 . S
C1197 C878 1.284 . S
C1199 C760 1.284 . S
C1215 C819 1.284 . S
C1217 C937 1.284 . S
C1233 C387 1.464 . S
C1235 C33 1.464 . S
C1251 C92 1.464 . S
C1253 C446 1.464 . S
C1269 C151 1.464 . S
C1271 C269 1.464 . S
C1287 C210 1.464 . S
C1289 C328 1.464 . S
C1305 C505 1.464 . S
C1307 C859 1.464 . S
C1323 C564 1.464 . S
C1325 C918 1.464 . S
C1341 C623 1.464 . S
C1343 C741 1.464 . S
C1359 C682 1.464 . S
C1361 C800 1.464 . S
C1377 C5 1.419 1_565 S
C1379 C890 1.436 . S
C1395 C713 1.436 . S
C1397 C64 1.436 . S
C1413 C123 1.436 . S
C1415 C772 1.419 1_455 S
C1431 C831 1.419 1_545 S
C1433 C182 1.419 1_655 S
C1449 C536 1.436 . S
C1451 C241 1.436 . S
C1467 C300 1.419 1_655 S
C1469 C595 1.436 . S
C1485 C654 1.419 1_455 S
C1487 C359 1.419 1_565 S
C1503 C477 1.419 1_545 S
C1505 C418 1.436 . S
