# Generated by pormake.
# Topology svh, (7)-cn, num edge types: 1
# Building blocks:
#     Node 0, Type 0, BuildingBlock: HICVOG_clean_sbu_0, # of connection points: 7
#     Node 1, Type 0, BuildingBlock: HICVOG_clean_sbu_0, # of connection points: 7
#     Node 2, Type 0, BuildingBlock: HICVOG_clean_sbu_0, # of connection points: 7
#     Node 3, Type 0, BuildingBlock: HICVOG_clean_sbu_0, # of connection points: 7
#     Node 4, Type 0, BuildingBlock: HICVOG_clean_sbu_0, # of connection points: 7
#     Node 5, Type 0, BuildingBlock: HICVOG_clean_sbu_0, # of connection points: 7
#     Node 6, Type 0, BuildingBlock: HICVOG_clean_sbu_0, # of connection points: 7
#     Node 7, Type 0, BuildingBlock: HICVOG_clean_sbu_0, # of connection points: 7
#     Edge 8, Type (0, 0), BuildingBlock: KIFKEQ_clean_linker_1, # of connection points: 2
#     Edge 9, Type (0, 0), BuildingBlock: KIFKEQ_clean_linker_1, # of connection points: 2
#     Edge 10, Type (0, 0), BuildingBlock: KIFKEQ_clean_linker_1, # of connection points: 2
#     Edge 11, Type (0, 0), BuildingBlock: KIFKEQ_clean_linker_1, # of connection points: 2
#     Edge 12, Type (0, 0), BuildingBlock: KIFKEQ_clean_linker_1, # of connection points: 2
#     Edge 13, Type (0, 0), BuildingBlock: KIFKEQ_clean_linker_1, # of connection points: 2
#     Edge 14, Type (0, 0), BuildingBlock: KIFKEQ_clean_linker_1, # of connection points: 2
#     Edge 15, Type (0, 0), BuildingBlock: KIFKEQ_clean_linker_1, # of connection points: 2
#     Edge 16, Type (0, 0), BuildingBlock: KIFKEQ_clean_linker_1, # of connection points: 2
#     Edge 17, Type (0, 0), BuildingBlock: KIFKEQ_clean_linker_1, # of connection points: 2
#     Edge 18, Type (0, 0), BuildingBlock: KIFKEQ_clean_linker_1, # of connection points: 2
#     Edge 19, Type (0, 0), BuildingBlock: KIFKEQ_clean_linker_1, # of connection points: 2
#     Edge 20, Type (0, 0), BuildingBlock: KIFKEQ_clean_linker_1, # of connection points: 2
#     Edge 21, Type (0, 0), BuildingBlock: KIFKEQ_clean_linker_1, # of connection points: 2
#     Edge 22, Type (0, 0), BuildingBlock: KIFKEQ_clean_linker_1, # of connection points: 2
#     Edge 23, Type (0, 0), BuildingBlock: KIFKEQ_clean_linker_1, # of connection points: 2
#     Edge 24, Type (0, 0), BuildingBlock: KIFKEQ_clean_linker_1, # of connection points: 2
#     Edge 25, Type (0, 0), BuildingBlock: KIFKEQ_clean_linker_1, # of connection points: 2
#     Edge 26, Type (0, 0), BuildingBlock: KIFKEQ_clean_linker_1, # of connection points: 2
#     Edge 27, Type (0, 0), BuildingBlock: KIFKEQ_clean_linker_1, # of connection points: 2
#     Edge 28, Type (0, 0), BuildingBlock: KIFKEQ_clean_linker_1, # of connection points: 2
#     Edge 29, Type (0, 0), BuildingBlock: KIFKEQ_clean_linker_1, # of connection points: 2
#     Edge 30, Type (0, 0), BuildingBlock: KIFKEQ_clean_linker_1, # of connection points: 2
#     Edge 31, Type (0, 0), BuildingBlock: KIFKEQ_clean_linker_1, # of connection points: 2
#     Edge 32, Type (0, 0), BuildingBlock: KIFKEQ_clean_linker_1, # of connection points: 2
#     Edge 33, Type (0, 0), BuildingBlock: KIFKEQ_clean_linker_1, # of connection points: 2
#     Edge 34, Type (0, 0), BuildingBlock: KIFKEQ_clean_linker_1, # of connection points: 2
#     Edge 35, Type (0, 0), BuildingBlock: KIFKEQ_clean_linker_1, # of connection points: 2
# Relax obj value: 0.276
# Max RMSD: 0.252
# Mean RMSD: 0.252
data_MOF--net-svh--node1-HICVOG_clean_sbu_0--edge1-KIFKEQ_clean_linker_1
_symmetry_space_group_name_H-M    P1
_symmetry_Int_Tables_number       1
_symmetry_cell_setting            triclinic
loop_
_symmetry_equiv_pos_as_xyz
'x, y, z'
_cell_length_a     18.758748
_cell_length_b     18.826122
_cell_length_c     103.57927
_cell_angle_alpha  91.33261
_cell_angle_beta   89.002873
_cell_angle_gamma 89.773816
loop_
_atom_site_label
_atom_site_type_symbol
_atom_site_fract_x
_atom_site_fract_y
_atom_site_fract_z
_atom_type_partial_charge
Zn0 Zn 0.06825 0.86467 0.0865 0.0
C1 C 0.93079 0.74062 0.06813 0.0
N2 N 0.92049 0.79768 0.06079 0.0
C3 C 0.95689 0.84921 0.06692 0.0
N4 N 0.9881 0.82494 0.07759 0.0
N5 N 0.97006 0.75729 0.07861 0.0
C6 C 0.05004 0.55101 0.09325 0.0
O7 O 0.09743 0.57866 0.10106 0.0
O8 O 0.07733 0.9727 0.08398 0.0
Zn9 Zn 0.98879 0.69741 0.09366 0.0
N10 N 0.1518 0.81209 0.0798 0.0
C11 C 0.19654 0.72866 0.06398 0.0
C12 C 0.14141 0.77047 0.06906 0.0
C13 C 0.21626 0.81313 0.0857 0.0
N14 N 0.2604 0.72961 0.06982 0.0
C15 C 0.27254 0.77053 0.08056 0.0
O16 O 0.06721 0.73286 0.10587 0.0
C17 C 0.0639 0.79309 0.11179 0.0
O18 O 0.05616 0.84991 0.10555 0.0
H19 H 0.09069 0.76946 0.06435 0.0
H20 H 0.2227 0.84526 0.09439 0.0
C21 C 0.8397 0.72085 0.10036 0.0
C22 C 0.78075 0.72377 0.10897 0.0
C23 C 0.85609 0.68906 0.12593 0.0
C24 C 0.91374 0.6847 0.1173 0.0
N25 N 0.9047 0.7014 0.10474 0.0
N26 N 0.79115 0.70825 0.12158 0.0
H27 H 0.83443 0.73435 0.09034 0.0
C28 C 0.02389 1.01354 0.08623 0.0
O29 O 0.96307 0.98502 0.08981 0.0
O30 O 1.00179 0.5912 0.08884 0.0
H31 H 0.96553 0.66841 0.12058 0.0
H32 H 0.18867 0.69545 0.05546 0.0
H33 H 0.8627 0.6767 0.13599 0.0
Zn34 Zn 0.43561 0.76755 0.34255 0.0
C35 C 0.59705 0.79203 0.31633 0.0
N36 N 0.54759 0.82746 0.30979 0.0
C37 C 0.48784 0.81945 0.31697 0.0
N38 N 0.50085 0.78271 0.32774 0.0
N39 N 0.56887 0.76356 0.32712 0.0
C40 C 0.75209 0.72972 0.33693 0.0
O41 O 0.7212 0.7898 0.3406 0.0
O42 O 0.33003 0.75935 0.33775 0.0
Zn43 Zn 0.60428 0.68464 0.33669 0.0
N44 N 0.44046 0.85087 0.35382 0.0
C45 C 0.42173 0.9012 0.37489 0.0
C46 C 0.41783 0.84366 0.36624 0.0
C47 C 0.46489 0.91423 0.34954 0.0
N48 N 0.44565 0.96457 0.37063 0.0
C49 C 0.46673 0.97338 0.35812 0.0
O50 O 0.58013 0.69831 0.35574 0.0
C51 C 0.51902 0.68976 0.36101 0.0
O52 O 0.46371 0.68555 0.35406 0.0
H53 H 0.39684 0.79349 0.36939 0.0
H54 H 0.48255 0.91813 0.3396 0.0
C55 C 0.55656 0.53618 0.33559 0.0
C56 C 0.51706 0.47926 0.33025 0.0
C57 C 0.47785 0.55443 0.31368 0.0
C58 C 0.51663 0.61015 0.31896 0.0
N59 N 0.5554 0.60051 0.32979 0.0
N60 N 0.47892 0.49073 0.31943 0.0
H61 H 0.58644 0.53025 0.34434 0.0
C62 C 0.29104 0.70657 0.34066 0.0
O63 O 0.31994 0.65287 0.34656 0.0
O64 O 0.713 0.67585 0.33459 0.0
H65 H 0.51577 0.66061 0.31429 0.0
H66 H 0.40482 0.89592 0.38485 0.0
H67 H 0.44695 0.5617 0.30509 0.0
Zn68 Zn 0.55072 0.38209 0.58895 0.0
C69 C 0.53102 0.20617 0.56616 0.0
N70 N 0.56204 0.24818 0.55746 0.0
C71 C 0.56425 0.31085 0.5638 0.0
N72 N 0.53597 0.30776 0.57584 0.0
N73 N 0.51508 0.24117 0.57739 0.0
C74 C 0.5 0.05406 0.59059 0.0
O75 O 0.56536 0.0789 0.59051 0.0
O76 O 0.49435 0.47523 0.58647 0.0
Zn77 Zn 0.46319 0.20694 0.59228 0.0
N78 N 0.64783 0.40929 0.58577 0.0
C79 C 0.73145 0.49124 0.57728 0.0
C80 C 0.66246 0.47525 0.58138 0.0
C81 C 0.69942 0.3587 0.58636 0.0
N82 N 0.7829 0.44059 0.57774 0.0
C83 C 0.76897 0.3745 0.5822 0.0
O84 O 0.50695 0.23577 0.60942 0.0
C85 C 0.53136 0.29322 0.61442 0.0
O86 O 0.54511 0.34756 0.60764 0.0
H87 H 0.62064 0.51443 0.58064 0.0
H88 H 0.68542 0.30612 0.58954 0.0
C89 C 0.30868 0.2237 0.59247 0.0
C90 C 0.24685 0.26508 0.59441 0.0
C91 C 0.3175 0.36872 0.5965 0.0
C92 C 0.37863 0.32773 0.59462 0.0
N93 N 0.3733 0.25624 0.59282 0.0
N94 N 0.25314 0.33646 0.59642 0.0
H95 H 0.30566 0.16669 0.59104 0.0
C96 C 0.48571 0.51972 0.59586 0.0
O97 O 0.5022 0.50005 0.60753 0.0
O98 O 0.44801 0.09798 0.59132 0.0
H99 H 0.43021 0.35256 0.59482 0.0
H100 H 0.74391 0.54315 0.57361 0.0
H101 H 0.32105 0.42556 0.59808 0.0
Zn102 Zn 0.91526 0.27343 0.84563 0.0
C103 C 0.07754 0.30141 0.81978 0.0
N104 N 0.02844 0.33824 0.8134 0.0
C105 C 0.96833 0.32876 0.8204 0.0
N106 N 0.98065 0.28953 0.8309 0.0
N107 N 0.04875 0.27064 0.83029 0.0
C108 C 0.22875 0.23493 0.84332 0.0
O109 O 0.19353 0.28429 0.84999 0.0
O110 O 0.80971 0.2623 0.84083 0.0
Zn111 Zn 0.08474 0.19101 0.83959 0.0
N112 N 0.92008 0.35699 0.85698 0.0
C113 C 0.90655 0.4077 0.87815 0.0
C114 C 0.90169 0.34974 0.86963 0.0
C115 C 0.94167 0.42082 0.85244 0.0
N116 N 0.92775 0.47139 0.87363 0.0
C117 C 0.94498 0.48026 0.86094 0.0
O118 O 0.0598 0.20173 0.8587 0.0
C119 C 0.99843 0.19283 0.86384 0.0
O120 O 0.9435 0.19001 0.85679 0.0
H121 H 0.88347 0.29929 0.87309 0.0
H122 H 0.95643 0.42478 0.84236 0.0
C123 C 0.03844 0.04209 0.83789 0.0
C124 C 0.99992 0.98535 0.83224 0.0
C125 C 0.96321 0.06138 0.81562 0.0
C126 C 1.00071 0.11702 0.82123 0.0
N127 N 0.03794 0.10681 0.83222 0.0
N128 N 0.96357 0.9973 0.82124 0.0
H129 H 0.0668 0.03576 0.8468 0.0
C130 C 0.76698 0.23806 0.84934 0.0
O131 O 0.79288 0.21909 0.86044 0.0
O132 O 0.19353 0.18609 0.83763 0.0
H133 H 0.99994 0.168 0.81673 0.0
H134 H 0.89285 0.40234 0.88827 0.0
H135 H 0.93362 0.06907 0.80688 0.0
Zn136 Zn 0.91922 0.35153 0.9845 0.0
C137 C 0.05271 0.23393 1.0048 0.0
N138 N 0.05949 0.29344 1.0121 0.0
C139 C 0.02368 0.34226 1.00551 0.0
N140 N 0.99591 0.31402 0.99462 0.0
N141 N 0.01614 0.24647 0.99394 0.0
C142 C 0.94636 0.03475 0.97909 0.0
O143 O 0.89962 0.06103 0.97118 0.0
O144 O 0.91403 0.46018 0.98638 0.0
Zn145 Zn 1.00184 0.18108 0.97911 0.0
N146 N 0.83102 0.30906 0.99107 0.0
C147 C 0.77719 0.23381 1.00661 0.0
C148 C 0.83742 0.2643 1.00113 0.0
C149 C 0.76577 0.32347 0.9861 0.0
N150 N 0.71241 0.24862 1.00177 0.0
C151 C 0.70437 0.29245 0.99163 0.0
O152 O 0.91901 0.2094 0.96776 0.0
C153 C 0.92508 0.26293 0.96052 0.0
O154 O 0.93387 0.32464 0.96553 0.0
H155 H 0.8887 0.25324 1.00515 0.0
H156 H 0.7619 0.35934 0.97813 0.0
C157 C 0.14777 0.21537 0.97142 0.0
C158 C 0.20565 0.21634 0.96253 0.0
C159 C 0.13349 0.15803 0.94692 0.0
C160 C 0.07721 0.15613 0.95581 0.0
N161 N 0.08495 0.18556 0.96779 0.0
N162 N 0.19614 0.18759 0.95049 0.0
H163 H 0.15263 0.236 0.98118 0.0
C164 C 0.96915 0.49875 0.98491 0.0
O165 O 0.03067 0.46766 0.98224 0.0
O166 O 0.99338 0.07589 0.98386 0.0
H167 H 0.02756 0.13109 0.95324 0.0
H168 H 0.78177 0.19874 1.01468 0.0
H169 H 0.12782 0.13538 0.9373 0.0
Zn170 Zn 0.9485 0.74241 0.22794 0.0
C171 C 0.10233 0.71449 0.25465 0.0
N172 N 0.05123 0.6786 0.26092 0.0
C173 C 0.99337 0.68781 0.25363 0.0
N174 N 1.00926 0.72571 0.24302 0.0
N175 N 0.07705 0.74433 0.24393 0.0
C176 C 0.26376 0.78211 0.23455 0.0
O177 O 0.2347 0.72347 0.23001 0.0
O178 O 0.84195 0.75391 0.23261 0.0
Zn179 Zn 0.11503 0.82461 0.23505 0.0
N180 N 0.95313 0.65785 0.21696 0.0
C181 C 0.94071 0.60814 0.1958 0.0
C182 C 0.93674 0.66616 0.20436 0.0
C183 C 0.97177 0.59317 0.22146 0.0
N184 N 0.95914 0.54356 0.20026 0.0
C185 C 0.97428 0.53383 0.21291 0.0
O186 O 0.09985 0.81201 0.21599 0.0
C187 C 0.0425 0.81833 0.20974 0.0
O188 O 0.98216 0.82038 0.21564 0.0
H189 H 0.92077 0.71762 0.20098 0.0
H190 H 0.98483 0.58844 0.23152 0.0
C191 C 0.06211 0.97168 0.23605 0.0
C192 C 0.01929 0.02755 0.24128 0.0
C193 C 0.97784 0.95122 0.2577 0.0
C194 C 0.02004 0.8966 0.25254 0.0
N195 N 0.06152 0.90733 0.24184 0.0
N196 N 0.97843 1.01501 0.25197 0.0
H197 H 0.09421 0.97838 0.2274 0.0
C198 C 0.80354 0.80809 0.23036 0.0
O199 O 0.83345 0.86355 0.22507 0.0
O200 O 0.2231 0.83442 0.23766 0.0
H201 H 0.01958 0.84605 0.2572 0.0
H202 H 0.92857 0.61416 0.18571 0.0
H203 H 0.94472 0.94305 0.26618 0.0
Zn204 Zn 0.48875 0.84241 0.48252 0.0
C205 C 0.59644 0.6986 0.50334 0.0
N206 N 0.5922 0.75001 0.51249 0.0
C207 C 0.55965 0.8028 0.50644 0.0
N208 N 0.54355 0.78472 0.49415 0.0
N209 N 0.56678 0.71867 0.49219 0.0
C210 C 0.51048 0.51769 0.4809 0.0
O211 O 0.44653 0.54627 0.48178 0.0
O212 O 0.52715 0.94319 0.48319 0.0
Zn213 Zn 0.56379 0.66356 0.47615 0.0
N214 N 0.39221 0.85322 0.48954 0.0
C215 C 0.3197 0.91786 0.50486 0.0
C216 C 0.3851 0.90591 0.49868 0.0
C217 C 0.33485 0.81389 0.48582 0.0
N218 N 0.26284 0.87842 0.5013 0.0
C219 C 0.26784 0.82712 0.49185 0.0
O220 O 0.48035 0.68836 0.46479 0.0
C221 C 0.47752 0.74505 0.45832 0.0
O222 O 0.48799 0.80569 0.46372 0.0
H223 H 0.43012 0.93852 0.50122 0.0
H224 H 0.34144 0.77306 0.47837 0.0
C225 C 0.71468 0.69106 0.47129 0.0
C226 C 0.77612 0.69318 0.46325 0.0
C227 C 0.70402 0.6713 0.44497 0.0
C228 C 0.64389 0.66775 0.45297 0.0
N229 N 0.64998 0.67845 0.46592 0.0
N230 N 0.76849 0.68338 0.45028 0.0
H231 H 0.71834 0.69628 0.48168 0.0
C232 C 0.52988 0.98391 0.47357 0.0
O233 O 0.51493 0.95812 0.46205 0.0
O234 O 0.56427 0.55736 0.47909 0.0
H235 H 0.593 0.65438 0.4489 0.0
H236 H 0.31389 0.95879 0.51231 0.0
H237 H 0.69979 0.66295 0.43465 0.0
Zn238 Zn 0.43054 0.2622 0.73089 0.0
C239 C 0.58429 0.23921 0.75753 0.0
N240 N 0.53358 0.20395 0.76401 0.0
C241 C 0.47549 0.21234 0.75676 0.0
N242 N 0.49075 0.24961 0.74605 0.0
N243 N 0.55861 0.26812 0.74676 0.0
C244 C 0.74666 0.29679 0.73737 0.0
O245 O 0.7171 0.23631 0.73389 0.0
O246 O 0.32454 0.2735 0.73558 0.0
Zn247 Zn 0.59869 0.34536 0.73727 0.0
N248 N 0.43667 0.17563 0.72054 0.0
C249 C 0.41886 0.11996 0.7 0.0
C250 C 0.41248 0.17904 0.70829 0.0
C251 C 0.4653 0.11464 0.72501 0.0
N252 N 0.44757 0.0591 0.70442 0.0
C253 C 0.47049 0.0543 0.71677 0.0
O254 O 0.58029 0.33465 0.71818 0.0
C255 C 0.52229 0.3398 0.71206 0.0
O256 O 0.46215 0.33778 0.71801 0.0
H257 H 0.38873 0.22753 0.70498 0.0
H258 H 0.48439 0.11347 0.73479 0.0
C259 C 0.56897 0.49676 0.73926 0.0
C260 C 0.53866 0.55807 0.74516 0.0
C261 C 0.47766 0.48644 0.76024 0.0
C262 C 0.5076 0.42592 0.7544 0.0
N263 N 0.55358 0.43197 0.74415 0.0
N264 N 0.49408 0.55097 0.75555 0.0
H265 H 0.6054 0.50049 0.73109 0.0
C266 C 0.28492 0.32336 0.73165 0.0
O267 O 0.31338 0.37293 0.72451 0.0
O268 O 0.70675 0.35085 0.73951 0.0
H269 H 0.49563 0.37477 0.75833 0.0
H270 H 0.40065 0.12223 0.69017 0.0
H271 H 0.44194 0.48225 0.7685 0.0
H272 H 0.15441 0.77648 0.19412 0.0
H273 H 0.93918 0.85804 0.19275 0.0
H274 H 0.16005 0.76957 0.17059 0.0
H275 H 0.94527 0.85151 0.1691 0.0
H276 H 0.01976 0.90413 0.12739 0.0
H277 H 0.01391 0.91072 0.15092 0.0
H278 H 0.10132 0.69879 0.15246 0.0
H279 H 0.10676 0.69172 0.1288 0.0
C280 C 0.10841 0.79355 0.18881 0.0
C281 C 0.04639 0.81822 0.19536 0.0
C282 C 0.11152 0.78891 0.1753 0.0
C283 C 0.05311 0.80977 0.16796 0.0
C284 C 0.99137 0.83543 0.17448 0.0
C285 C 0.98784 0.83912 0.18803 0.0
C286 C 0.03823 0.85895 0.13271 0.0
C287 C 0.06415 0.79746 0.12616 0.0
C288 C 0.03422 0.8626 0.14621 0.0
C289 C 0.05695 0.80529 0.15357 0.0
C290 C 0.0838 0.74406 0.14706 0.0
C291 C 0.08685 0.73996 0.13351 0.0
H292 H 0.40612 0.64531 0.37596 0.0
H293 H 0.61349 0.74293 0.3785 0.0
H294 H 0.38984 0.65989 0.39939 0.0
H295 H 0.59711 0.75752 0.40183 0.0
H296 H 0.51175 0.84526 0.44051 0.0
H297 H 0.51929 0.83004 0.41707 0.0
H298 H 0.44144 0.61557 0.42011 0.0
H299 H 0.43388 0.63059 0.44361 0.0
C300 C 0.44848 0.66927 0.38152 0.0
C301 C 0.51119 0.69278 0.37534 0.0
C302 C 0.43913 0.67762 0.39495 0.0
C303 C 0.4919 0.71046 0.40248 0.0
C304 C 0.55497 0.73296 0.3963 0.0
C305 C 0.56468 0.72385 0.38293 0.0
C306 C 0.49507 0.7952 0.4362 0.0
C307 C 0.47225 0.73914 0.444 0.0
C308 C 0.50013 0.78625 0.42275 0.0
C309 C 0.48171 0.72132 0.41672 0.0
C310 C 0.45585 0.66631 0.42445 0.0
C311 C 0.45155 0.67496 0.43792 0.0
H312 H 0.60633 0.39119 0.6288 0.0
H313 H 0.46615 0.21102 0.63254 0.0
H314 H 0.60545 0.40739 0.65236 0.0
H315 H 0.4645 0.2282 0.65597 0.0
H316 H 0.41036 0.33943 0.69525 0.0
H317 H 0.41592 0.32773 0.67172 0.0
H318 H 0.64547 0.33709 0.67254 0.0
H319 H 0.64048 0.34636 0.69612 0.0
C320 C 0.5758 0.35475 0.63462 0.0
C321 C 0.53654 0.29962 0.62874 0.0
C322 C 0.57531 0.36408 0.64811 0.0
C323 C 0.53436 0.31948 0.656 0.0
C324 C 0.49589 0.26392 0.65014 0.0
C325 C 0.49745 0.25371 0.6367 0.0
C326 C 0.46212 0.3389 0.69047 0.0
C327 C 0.52497 0.34255 0.69768 0.0
C328 C 0.46523 0.33213 0.67697 0.0
C329 C 0.53117 0.33068 0.67029 0.0
C330 C 0.59389 0.338 0.67741 0.0
C331 C 0.59089 0.34331 0.69094 0.0
H332 H 0.88567 0.14601 0.94604 0.0
H333 H 0.97787 0.35471 0.94265 0.0
H334 H 0.90457 0.12448 0.92286 0.0
H335 H 0.99598 0.33348 0.91951 0.0
H336 H 0.09182 0.24364 0.8818 0.0
H337 H 0.072 0.25902 0.90504 0.0
H338 H 0.86402 0.16375 0.90159 0.0
H339 H 0.88423 0.14753 0.87832 0.0
C340 C 0.90928 0.18759 0.94034 0.0
C341 C 0.9303 0.25208 0.94624 0.0
C342 C 0.92002 0.17527 0.92703 0.0
C343 C 0.95239 0.22697 0.91931 0.0
C344 C 0.972 0.29199 0.92518 0.0
C345 C 0.96085 0.30449 0.93845 0.0
C346 C 0.04227 0.22497 0.88601 0.0
C347 C 0.98955 0.1945 0.87816 0.0
C348 C 0.03055 0.23457 0.89933 0.0
C349 C 0.96605 0.21338 0.9052 0.0
C350 C 0.9144 0.18046 0.89742 0.0
C351 C 0.92593 0.17128 0.88407 0.0
H352 H 0.10935 0.44729 1.01388 0.0
H353 H 0.8892 0.38391 1.01285 0.0
H354 H 0.07932 0.53987 1.0299 0.0
H355 H 0.8589 0.47338 1.02943 0.0
H356 H 0.8278 0.68562 0.05284 0.0
H357 H 0.84552 0.59286 1.03623 0.0
H358 H 0.05206 0.5455 0.05191 0.0
H359 H 0.03665 0.64236 0.06752 0.0
C360 C 0.05412 0.45445 1.01689 0.0
C361 C 1.00144 0.40925 1.01201 0.0
C362 C 0.03696 0.50635 1.02629 0.0
C363 C 0.96693 0.51281 1.03134 0.0
C364 C 0.91338 0.47018 1.02584 0.0
C365 C 0.93054 0.41904 1.01623 0.0
C366 C 0.87578 0.65343 0.05298 0.0
C367 C 0.92971 0.6696 0.06181 0.0
C368 C 0.88628 0.60052 0.0434 0.0
C369 C 0.95098 0.56245 0.04249 0.0
C370 C 1.00233 0.57491 0.05203 0.0
C371 C 0.99239 0.62871 0.06139 0.0
H372 H 0.64356 0.6571 0.31029 0.0
H373 H 0.69803 0.87773 0.30657 0.0
H374 H 0.73162 0.62432 0.29373 0.0
H375 H 0.7903 0.84539 0.29067 0.0
H376 H 0.8943 0.79278 0.25363 0.0
H377 H 0.79789 0.81148 0.26917 0.0
H378 H 0.84879 0.61108 0.28651 0.0
H379 H 0.94023 0.58938 0.26987 0.0
C380 C 0.67617 0.69837 0.30627 0.0
C381 C 0.66402 0.76993 0.30974 0.0
C382 C 0.72687 0.67965 0.2967 0.0
C383 C 0.7671 0.73225 0.2905 0.0
C384 C 0.75855 0.80343 0.29479 0.0
C385 C 0.70684 0.82205 0.30414 0.0
C386 C 0.88129 0.75027 0.2601 0.0
C387 C 0.92268 0.68808 0.2601 0.0
C388 C 0.82786 0.7623 0.26945 0.0
C389 C 0.81653 0.71387 0.27943 0.0
C390 C 0.85535 0.64965 0.279 0.0
C391 C 0.90758 0.63684 0.26939 0.0
H392 H 0.49042 0.43399 0.56205 0.0
H393 H 0.68431 0.32767 0.54948 0.0
H394 H 0.50797 0.52215 0.54534 0.0
H395 H 0.70165 0.41513 0.5326 0.0
H396 H 0.49648 0.59832 0.50529 0.0
H397 H 0.49845 0.50375 0.52096 0.0
H398 H 0.72001 0.54773 0.52827 0.0
H399 H 0.71793 0.64167 0.51231 0.0
C400 C 0.53843 0.43154 0.5561 0.0
C401 C 0.58656 0.37504 0.55712 0.0
C402 C 0.54764 0.48074 0.54634 0.0
C403 C 0.60514 0.47403 0.53746 0.0
C404 C 0.65662 0.42109 0.53923 0.0
C405 C 0.64702 0.37157 0.54893 0.0
C406 C 0.54676 0.58444 0.50959 0.0
C407 C 0.60763 0.62548 0.50731 0.0
C408 C 0.54738 0.53193 0.51886 0.0
C409 C 0.60885 0.52006 0.52608 0.0
C410 C 0.67185 0.55616 0.52289 0.0
C411 C 0.67104 0.60899 0.51361 0.0
H412 H 0.92035 0.43052 0.80456 0.0
H413 H 0.8686 0.22555 0.81979 0.0
H414 H 0.83193 0.41304 0.78778 0.0
H415 H 0.77599 0.2106 0.80397 0.0
H416 H 0.6262 0.37263 0.76473 0.0
H417 H 0.71283 0.40221 0.78117 0.0
H418 H 0.77643 0.18126 0.78195 0.0
H419 H 0.68636 0.15199 0.76604 0.0
C420 C 0.88717 0.38356 0.80476 0.0
C421 C 0.89956 0.33061 0.81379 0.0
C422 C 0.83682 0.3732 0.79509 0.0
C423 C 0.79768 0.30967 0.79432 0.0
C424 C 0.80639 0.25937 0.80401 0.0
C425 C 0.85762 0.26915 0.81348 0.0
C426 C 0.66 0.33093 0.76816 0.0
C427 C 0.65007 0.26019 0.76406 0.0
C428 C 0.7096 0.34772 0.77767 0.0
C429 C 0.75045 0.2939 0.7832 0.0
C430 C 0.74411 0.22383 0.77829 0.0
C431 C 0.69368 0.20708 0.76897 0.0
H432 H 0.12803 0.16795 0.81351 0.0
H433 H 0.17623 0.39032 0.81025 0.0
H434 H 0.21632 0.13876 0.79678 0.0
H435 H 0.2686 0.36163 0.79416 0.0
H436 H 0.37304 0.31439 0.75689 0.0
H437 H 0.27639 0.32936 0.77255 0.0
H438 H 0.33353 0.12938 0.78942 0.0
H439 H 0.42527 0.11145 0.77273 0.0
C440 C 0.15934 0.2104 0.80956 0.0
C441 C 0.14529 0.28138 0.81321 0.0
C442 C 0.21014 0.19376 0.79989 0.0
C443 C 0.24857 0.2479 0.79375 0.0
C444 C 0.23825 0.3185 0.79823 0.0
C445 C 0.18651 0.33503 0.80769 0.0
C446 C 0.36146 0.27118 0.7633 0.0
C447 C 0.40474 0.21027 0.76318 0.0
C448 C 0.30783 0.28106 0.7727 0.0
C449 C 0.29813 0.23166 0.78259 0.0
C450 C 0.33879 0.16861 0.782 0.0
C451 C 0.39123 0.15798 0.77236 0.0
H452 H 0.3893 0.71504 0.31724 0.0
H453 H 0.43834 0.91631 0.30029 0.0
H454 H 0.2952 0.69586 0.30188 0.0
H455 H 0.34914 0.89404 0.28385 0.0
H456 H 0.20132 0.62832 0.26458 0.0
H457 H 0.29117 0.66064 0.28035 0.0
H458 H 0.23143 0.88178 0.27736 0.0
H459 H 0.14571 0.84906 0.26101 0.0
C460 C 0.37746 0.75699 0.31063 0.0
C461 C 0.41883 0.81884 0.3104 0.0
C462 C 0.32537 0.74466 0.30142 0.0
C463 C 0.31555 0.79241 0.29134 0.0
C464 C 0.3546 0.85614 0.29148 0.0
C465 C 0.40551 0.86926 0.30095 0.0
C466 C 0.20931 0.68397 0.26703 0.0
C467 C 0.16713 0.73622 0.26148 0.0
C468 C 0.25965 0.70257 0.27627 0.0
C469 C 0.26733 0.77382 0.28048 0.0
C470 C 0.22736 0.82643 0.27441 0.0
C471 C 0.178 0.80773 0.26497 0.0
H472 H 0.40577 0.14611 0.55898 0.0
H473 H 0.62934 0.10367 0.56405 0.0
H474 H 0.39925 0.04478 0.54361 0.0
H475 H 0.62317 1.00346 0.54878 0.0
H476 H 0.61482 0.93556 0.50639 0.0
H477 H 0.59571 0.02693 0.52338 0.0
H478 H 0.43194 0.89856 0.54086 0.0
H479 H 0.45183 0.80684 0.52392 0.0
C480 C 0.45231 0.11256 0.55738 0.0
C481 C 0.5178 0.13159 0.56281 0.0
C482 C 0.4489 0.05556 0.54845 0.0
C483 C 0.51124 0.01809 0.5448 0.0
C484 C 0.57475 0.0326 0.55128 0.0
C485 C 0.57797 0.08891 0.5602 0.0
C486 C 0.57295 0.92836 0.51357 0.0
C487 C 0.53378 0.86533 0.51378 0.0
C488 C 0.56261 0.97988 0.52336 0.0
C489 C 0.51303 0.9689 0.53348 0.0
C490 C 0.47033 0.90805 0.53316 0.0
C491 C 0.4814 0.85609 0.52347 0.0
H492 H 0.86831 0.94543 0.05686 0.0
H493 H 0.09097 0.89461 0.06054 0.0
H494 H 0.89856 0.0348 0.04107 0.0
H495 H 0.12169 0.97971 0.04413 0.0
H496 H 0.15161 0.1861 1.02131 0.0
H497 H 0.13169 0.09672 0.03762 0.0
H498 H 0.93308 0.03934 1.01958 0.0
H499 H 0.94976 0.13375 1.00437 0.0
C500 C 0.92392 0.95431 0.05441 0.0
C501 C 0.97731 0.91362 0.06 0.0
C502 C 0.94137 1.00437 0.04515 0.0
C503 C 0.01259 1.01322 0.04096 0.0
C504 C 0.06631 0.9747 0.04707 0.0
C505 C 0.04876 0.92568 0.05653 0.0
C506 C 0.105 0.15249 1.02062 0.0
C507 C 0.05369 0.16497 1.01121 0.0
C508 C 0.09323 0.10144 1.03002 0.0
C509 C 0.03001 0.06138 1.03013 0.0
C510 C 0.9815 0.07032 1.02007 0.0
C511 C 0.99242 0.1226 1.01093 0.0
H512 H 0.34475 0.87444 0.09456 0.0
H513 H 0.36425 0.65932 0.07927 0.0
H514 H 0.46857 0.86916 0.10163 0.0
H515 H 0.48691 0.6548 0.08618 0.0
H516 H 0.67306 0.78667 0.12316 0.0
H517 H 0.54885 0.80272 0.11702 0.0
H518 H 0.59867 0.71411 0.07911 0.0
H519 H 0.7217 0.69639 0.08523 0.0
C520 C 0.37469 0.82573 0.0929 0.0
C521 C 0.34445 0.76736 0.08629 0.0
C522 C 0.44573 0.82293 0.09688 0.0
C523 C 0.48766 0.76203 0.09423 0.0
C524 C 0.45649 0.70309 0.08807 0.0
C525 C 0.38596 0.7057 0.08416 0.0
C526 C 0.6576 0.7712 0.11347 0.0
C527 C 0.70761 0.74052 0.10469 0.0
C528 C 0.5866 0.78085 0.10995 0.0
C529 C 0.56405 0.75918 0.09763 0.0
C530 C 0.61444 0.73062 0.08873 0.0
C531 C 0.68535 0.72134 0.0922 0.0
H532 H 0.52526 0.0806 0.37256 0.0
H533 H 0.45102 0.03084 0.33411 0.0
H534 H 0.54346 0.20407 0.36649 0.0
H535 H 0.47096 0.15299 0.32807 0.0
H536 H 0.61871 0.40915 0.34453 0.0
H537 H 0.61449 0.28547 0.3514 0.0
H538 H 0.40541 0.26312 0.33507 0.0
H539 H 0.40877 0.38549 0.32839 0.0
C540 C 0.51401 0.09557 0.36277 0.0
C541 C 0.48683 0.04548 0.35384 0.0
C542 C 0.52488 0.16615 0.35929 0.0
C543 C 0.50799 0.1882 0.34686 0.0
C544 C 0.48369 0.1376 0.33778 0.0
C545 C 0.47315 0.06714 0.34122 0.0
C546 C 0.57132 0.37831 0.34263 0.0
C547 C 0.51417 0.40739 0.33584 0.0
C548 C 0.56917 0.30736 0.34649 0.0
C549 C 0.51021 0.26438 0.34354 0.0
C550 C 0.45235 0.29435 0.33719 0.0
C551 C 0.45427 0.36475 0.33341 0.0
H552 H 0.79318 0.27573 0.60076 0.0
H553 H 0.87816 0.3567 0.565 0.0
H554 H 0.90338 0.20893 0.6037 0.0
H555 H 0.98808 0.29098 0.568 0.0
H556 H 0.18723 0.18934 0.57468 0.0
H557 H 0.05883 0.18017 0.571 0.0
H558 H 0.01682 0.26921 0.60923 0.0
H559 H 0.14415 0.2784 0.61276 0.0
C560 C 0.83431 0.27733 0.59331 0.0
C561 C 0.82771 0.32228 0.58274 0.0
C562 C 0.8974 0.23915 0.59501 0.0
C563 C 0.95454 0.24508 0.58614 0.0
C564 C 0.94491 0.2846 0.57496 0.0
C565 C 0.8823 0.32314 0.57332 0.0
C566 C 0.15024 0.20349 0.58248 0.0
C567 C 0.17482 0.23516 0.59394 0.0
C568 C 0.07694 0.19866 0.58036 0.0
C569 C 0.02785 0.22501 0.58975 0.0
C570 C 0.05305 0.24805 0.60183 0.0
C571 C 0.12601 0.2537 0.60385 0.0
H572 H 0.89113 0.89242 0.8299 0.0
H573 H 0.09917 0.91419 0.84686 0.0
H574 H 0.88524 0.77043 0.83674 0.0
H575 H 0.09271 0.79082 0.85382 0.0
H576 H 0.92547 0.53708 0.83692 0.0
H577 H 0.94592 0.65859 0.83056 0.0
H578 H 0.02288 0.7112 0.86863 0.0
H579 H 1.00464 0.58837 0.87498 0.0
C580 C 0.93573 0.87128 0.83512 0.0
C581 C 0.99574 0.91335 0.83777 0.0
C582 C 0.9324 0.80105 0.83898 0.0
C583 C 0.98902 0.77059 0.84562 0.0
C584 C 0.04822 0.813 0.84872 0.0
C585 C 0.0517 0.88379 0.84479 0.0
C586 C 0.94857 0.57359 0.84389 0.0
C587 C 0.96375 0.55243 0.85648 0.0
C588 C 0.95936 0.64377 0.84027 0.0
C589 C 0.98527 0.69467 0.84914 0.0
C590 C 1.00313 0.67314 0.86157 0.0
C591 C 0.99216 0.60286 0.86521 0.0
H592 H 0.33272 0.1797 0.95116 0.0
H593 H 0.24264 0.31591 0.98151 0.0
H594 H 0.4516 0.21518 0.95735 0.0
H595 H 0.36228 0.35121 0.98769 0.0
H596 H 0.5816 0.29627 1.00576 0.0
H597 H 0.46032 0.29209 0.99801 0.0
H598 H 0.5392 0.30957 0.95878 0.0
H599 H 0.66149 0.3117 0.96656 0.0
C600 C 0.33797 0.21788 0.95906 0.0
C601 C 0.27756 0.24338 0.966 0.0
C602 C 0.40647 0.23866 0.96255 0.0
C603 C 0.41666 0.28581 0.97306 0.0
C604 C 0.35632 0.31381 0.97968 0.0
C605 C 0.28756 0.29303 0.97618 0.0
C606 C 0.57314 0.30037 0.99549 0.0
C607 C 0.63134 0.30383 0.98679 0.0
C608 C 0.50339 0.2986 0.99105 0.0
C609 C 0.48991 0.29993 0.97776 0.0
C610 C 0.54787 0.30757 0.96908 0.0
C611 C 0.61796 0.30962 0.97354 0.0
H612 H 0.90849 0.11998 0.24302 0.0
H613 H 0.12275 0.09922 0.22722 0.0
H614 H 0.90394 0.24219 0.23623 0.0
H615 H 0.11743 0.22245 0.22028 0.0
H616 H 0.9464 0.47649 0.2367 0.0
H617 H 0.96323 0.35405 0.24293 0.0
H618 H 0.05095 0.30168 0.20507 0.0
H619 H 0.03592 0.42515 0.19885 0.0
C620 C 0.95468 0.1413 0.23805 0.0
C621 C 0.01606 0.09946 0.23572 0.0
C622 C 0.95206 0.21161 0.23422 0.0
C623 C 0.01071 0.24222 0.22791 0.0
C624 C 0.07136 0.20006 0.22511 0.0
C625 C 0.07418 0.1293 0.22903 0.0
C626 C 0.97095 0.43966 0.22977 0.0
C627 C 0.99027 0.46102 0.21727 0.0
C628 C 0.97969 0.36909 0.2333 0.0
C629 C 1.00784 0.31817 0.22444 0.0
C630 C 0.02946 0.33982 0.21211 0.0
C631 C 0.02039 0.41042 0.20854 0.0
H632 H 0.15837 0.78757 0.50748 0.0
H633 H 0.22627 0.78696 0.46744 0.0
H634 H 0.04092 0.74615 0.5012 0.0
H635 H 0.10803 0.74763 0.46107 0.0
H636 H 0.81784 0.77341 0.4844 0.0
H637 H 0.93899 0.79527 0.49151 0.0
H638 H 0.02062 0.65697 0.46075 0.0
H639 H 0.89963 0.63669 0.45347 0.0
C640 C 0.14834 0.77773 0.49732 0.0
C641 C 0.20162 0.79038 0.48796 0.0
C642 C 0.08076 0.75464 0.49371 0.0
C643 C 0.06434 0.74453 0.48061 0.0
C644 C 0.11877 0.7541 0.47126 0.0
C645 C 0.1868 0.77651 0.4749 0.0
C646 C 0.86149 0.74679 0.47928 0.0
C647 C 0.84893 0.70318 0.46837 0.0
C648 C 0.93118 0.75923 0.48336 0.0
C649 C 0.98995 0.72793 0.4767 0.0
C650 C 0.97701 0.68298 0.46598 0.0
C651 C 0.90749 0.67112 0.46184 0.0
H652 H 0.57215 0.67486 0.75939 0.0
H653 H 0.53212 0.60332 0.72034 0.0
H654 H 0.57281 0.7977 0.75252 0.0
H655 H 0.52873 0.72637 0.71347 0.0
H656 H 0.54801 0.95538 0.70296 0.0
H657 H 0.58286 0.83678 0.70957 0.0
H658 H 0.48349 0.87766 0.74702 0.0
H659 H 0.4513 0.99622 0.74056 0.0
C660 C 0.5644 0.68568 0.74928 0.0
C661 C 0.55196 0.63 0.74039 0.0
C662 C 0.56405 0.75602 0.74535 0.0
C663 C 0.54932 0.77235 0.73248 0.0
C664 C 0.5409 0.71605 0.72343 0.0
C665 C 0.54271 0.64543 0.72734 0.0
C666 C 0.53469 0.93912 0.71267 0.0
C667 C 0.49744 0.98532 0.72126 0.0
C668 C 0.5543 0.87105 0.71644 0.0
C669 C 0.53603 0.84726 0.72884 0.0
C670 C 0.50011 0.89436 0.73751 0.0
C671 C 0.48139 0.96262 0.73379 0.0
H672 H 0.14524 0.45123 0.10126 0.0
H673 H 0.9551 0.47324 0.07875 0.0
H674 H 0.14092 0.32269 0.09809 0.0
H675 H 0.95121 0.34428 0.07546 0.0
H676 H 0.91646 0.11187 0.08818 0.0
H677 H 0.92539 0.24082 0.08841 0.0
H678 H 0.15328 0.22398 0.08246 0.0
H679 H 0.14437 0.09423 0.08236 0.0
C680 C 0.10283 0.4288 0.09552 0.0
C681 C 0.05016 0.47291 0.09037 0.0
C682 C 0.10062 0.35484 0.09362 0.0
C683 C 0.04553 0.32265 0.08657 0.0
C684 C 0.99389 0.36695 0.08111 0.0
C685 C 0.99629 0.44106 0.08295 0.0
C686 C 0.96856 0.13544 0.08684 0.0
C687 C 0.02979 0.09233 0.08536 0.0
C688 C 0.9736 0.20969 0.08688 0.0
C689 C 0.04009 0.24326 0.0855 0.0
C690 C 0.10125 0.20013 0.08371 0.0
C691 C 0.09613 0.12564 0.08358 0.0
H692 H 0.8482 0.83641 0.34087 0.0
H693 H 0.83584 0.61346 0.33041 0.0
H694 H 0.97771 0.82922 0.34031 0.0
H695 H 0.9661 0.60649 0.32963 0.0
H696 H 0.19291 0.60515 0.34682 0.0
H697 H 0.06407 0.60981 0.34455 0.0
H698 H 0.0825 0.81382 0.32659 0.0
H699 H 0.2118 0.80966 0.32906 0.0
C700 C 0.87307 0.78585 0.33834 0.0
C701 C 0.83131 0.72534 0.33581 0.0
C702 C 0.94764 0.78188 0.33792 0.0
C703 C 0.9828 0.71723 0.33496 0.0
C704 C 0.941 0.65697 0.33213 0.0
C705 C 0.86623 0.66101 0.33252 0.0
C706 C 0.16972 0.65085 0.34229 0.0
C707 C 0.21295 0.70734 0.33824 0.0
C708 C 0.09559 0.6533 0.34091 0.0
C709 C 0.06243 0.71235 0.33544 0.0
C710 C 0.10592 0.76797 0.33103 0.0
C711 C 0.1802 0.76546 0.3324 0.0
H712 H 0.43549 0.62025 0.6132 0.0
H713 H 0.50612 0.59359 0.57349 0.0
H714 H 0.43025 0.74886 0.61064 0.0
H715 H 0.50185 0.72272 0.571 0.0
H716 H 0.59054 0.95226 0.58061 0.0
H717 H 0.57612 0.82336 0.58051 0.0
H718 H 0.36886 0.84876 0.5988 0.0
H719 H 0.38289 0.97837 0.59872 0.0
C720 C 0.44869 0.64172 0.60385 0.0
C721 C 0.47122 0.59638 0.59356 0.0
C722 C 0.44553 0.71557 0.60238 0.0
C723 C 0.46607 0.74635 0.59065 0.0
C724 C 0.48619 0.70086 0.5802 0.0
C725 C 0.48806 0.62675 0.5816 0.0
C726 C 0.54159 0.93048 0.58453 0.0
C727 C 0.48812 0.97577 0.58978 0.0
C728 C 0.5331 0.85648 0.58438 0.0
C729 C 0.4714 0.82548 0.58968 0.0
C730 C 0.41724 0.87081 0.59471 0.0
C731 C 0.42514 0.94508 0.59462 0.0
H732 H 0.69215 0.25491 0.8268 0.0
H733 H 0.6639 0.21364 0.86743 0.0
H734 H 0.5619 0.25272 0.82429 0.0
H735 H 0.53542 0.21232 0.86492 0.0
H736 H 0.31588 0.30973 0.85927 0.0
H737 H 0.44552 0.30942 0.85963 0.0
H738 H 0.45256 0.1629 0.82697 0.0
H739 H 0.32138 0.16257 0.82664 0.0
C740 C 0.65841 0.2452 0.83516 0.0
C741 C 0.68864 0.23474 0.84733 0.0
C742 C 0.58395 0.24364 0.83371 0.0
C743 C 0.53844 0.23285 0.84443 0.0
C744 C 0.56894 0.22153 0.8565 0.0
C745 C 0.64282 0.22204 0.85792 0.0
C746 C 0.34473 0.27751 0.85211 0.0
C747 C 0.30807 0.2356 0.84301 0.0
C748 C 0.41917 0.27722 0.85235 0.0
C749 C 0.4593 0.23578 0.84339 0.0
C750 C 0.42302 0.19546 0.83399 0.0
C751 C 0.34802 0.19488 0.83386 0.0
H752 H 0.85302 0.93433 0.9703 0.0
H753 H 0.03998 0.95906 0.99372 0.0
H754 H 0.85719 0.80645 0.9731 0.0
H755 H 0.04366 0.83049 0.99665 0.0
H756 H 0.07821 0.59452 0.98358 0.0
H757 H 0.07065 0.72373 0.98361 0.0
H758 H 0.84195 0.71201 0.98851 0.0
H759 H 0.84943 0.58233 0.9883 0.0
C760 C 0.89472 0.91262 0.97617 0.0
C761 C 0.9465 0.95723 0.9817 0.0
C762 C 0.89681 0.83906 0.97784 0.0
C763 C 0.95087 0.80776 0.98507 0.0
C764 C 1.00178 0.85254 0.99087 0.0
C765 C 0.9995 0.92637 0.98924 0.0
C766 C 0.02624 0.61936 0.98473 0.0
C767 C 0.96434 0.57775 0.9858 0.0
C768 C 0.02198 0.6937 0.98485 0.0
C769 C 0.95566 0.72864 0.986 0.0
C770 C 0.89386 0.68702 0.98742 0.0
C771 C 0.89816 0.61257 0.98735 0.0
H772 H 0.34478 0.89634 0.24255 0.0
H773 H 0.36234 0.67834 0.22892 0.0
H774 H 0.47498 0.90407 0.24314 0.0
H775 H 0.49157 0.68632 0.22933 0.0
H776 H 0.72293 0.70099 0.24064 0.0
H777 H 0.59341 0.69616 0.2432 0.0
H778 H 0.57629 0.90743 0.22815 0.0
H779 H 0.70566 0.91266 0.22576 0.0
C780 C 0.37627 0.85003 0.23971 0.0
C781 C 0.34282 0.78688 0.23561 0.0
C782 C 0.45101 0.85453 0.24 0.0
C783 C 0.4942 0.79586 0.23626 0.0
C784 C 0.46043 0.73236 0.23244 0.0
C785 C 0.38599 0.72795 0.23212 0.0
C786 C 0.69163 0.74664 0.23795 0.0
C787 C 0.72498 0.80696 0.23287 0.0
C788 C 0.61717 0.74375 0.23937 0.0
C789 C 0.57393 0.80117 0.23579 0.0
C790 C 0.60758 0.8624 0.23112 0.0
C791 C 0.682 0.86522 0.22968 0.0
H792 H 0.62457 0.43912 0.47202 0.0
H793 H 0.41768 0.41941 0.49053 0.0
H794 H 0.63666 0.30973 0.47109 0.0
H795 H 0.43055 0.28984 0.48978 0.0
H796 H 0.51296 0.06128 0.49613 0.0
H797 H 0.51321 0.19074 0.49892 0.0
H798 H 0.5665 0.21171 0.4585 0.0
H799 H 0.56504 0.08243 0.45561 0.0
C800 C 0.58203 0.40723 0.47603 0.0
C801 C 0.51991 0.43951 0.48128 0.0
C802 C 0.58892 0.33318 0.47545 0.0
C803 C 0.53451 0.2898 0.48033 0.0
C804 C 0.47351 0.32205 0.486 0.0
C805 C 0.46598 0.39614 0.48637 0.0
C806 C 0.5257 0.09343 0.48787 0.0
C807 C 0.53887 0.06157 0.47562 0.0
C808 C 0.52534 0.16752 0.48947 0.0
C809 C 0.53959 0.2112 0.47892 0.0
C810 C 0.5557 0.1793 0.46681 0.0
C811 C 0.5547 0.10531 0.46515 0.0
H812 H 0.82755 0.41561 0.74219 0.0
H813 H 0.84484 0.18949 0.73472 0.0
H814 H 0.95755 0.42417 0.74242 0.0
H815 H 0.97432 0.19817 0.7348 0.0
H816 H 0.20682 0.22636 0.74531 0.0
H817 H 0.07739 0.22177 0.74826 0.0
H818 H 0.05628 0.41448 0.72681 0.0
H819 H 0.18533 0.41955 0.72399 0.0
C820 C 0.85898 0.36768 0.74065 0.0
C821 C 0.82557 0.30196 0.73833 0.0
C822 C 0.93358 0.37263 0.74072 0.0
C823 C 0.97667 0.31192 0.73856 0.0
C824 C 0.94306 0.24595 0.73663 0.0
C825 C 0.86861 0.24106 0.73649 0.0
C826 C 0.17461 0.26803 0.7413 0.0
C827 C 0.20665 0.32302 0.73432 0.0
C828 C 0.1003 0.26523 0.74294 0.0
C829 C 0.05613 0.31753 0.73771 0.0
C830 C 0.08846 0.37366 0.73109 0.0
C831 C 0.16265 0.37633 0.72941 0.0
loop_
_geom_bond_atom_site_label_1
_geom_bond_atom_site_label_2
_geom_bond_distance
_geom_bond_site_symmetry_2
_ccdc_geom_bond_type
Zn0 N4 2.020 . S
Zn0 O8 2.019 . S
Zn0 N10 2.119 . S
Zn0 O18 1.975 . S
C1 N2 1.334 1_655 S
C1 N5 1.336 . S
N2 C1 1.334 1_455 S
N2 C3 1.334 . S
C3 N2 1.334 . S
C3 N4 1.336 . S
N4 Zn0 2.020 . S
N4 C3 1.336 . S
N4 N5 1.354 1_455 S
N5 C1 1.336 . S
N5 N4 1.354 1_655 S
N5 Zn9 2.020 . S
C6 O7 1.244 1_655 S
C6 O30 1.257 . S
O7 C6 1.244 1_455 S
O8 Zn0 2.019 . S
O8 C28 1.257 . S
Zn9 N5 2.020 . S
Zn9 O16 1.975 . S
Zn9 N25 2.119 . S
Zn9 O30 2.019 . S
N10 Zn0 2.119 . S
N10 C12 1.334 . S
N10 C13 1.328 . S
C11 C12 1.391 . S
C11 N14 1.329 . S
C11 H32 0.930 . S
C12 N10 1.334 . S
C12 C11 1.391 . S
C12 H19 0.930 . S
C13 N10 1.328 . S
C13 C15 1.392 . S
C13 H20 0.930 . S
N14 C11 1.329 . S
N14 C15 1.331 . S
C15 C13 1.392 . S
C15 N14 1.331 . S
O16 Zn9 1.975 . S
O16 C17 1.252 1_655 S
C17 O16 1.252 1_455 S
C17 O18 1.252 . S
O18 Zn0 1.975 . S
O18 C17 1.252 . S
H19 C12 0.930 . S
H20 C13 0.930 . S
C21 C22 1.392 . S
C21 N25 1.328 . S
C21 H27 0.930 . S
C22 C21 1.392 . S
C22 N26 1.331 . S
C23 C24 1.391 . S
C23 N26 1.329 . S
C23 H33 0.930 . S
C24 C23 1.391 . S
C24 N25 1.334 . S
C24 H31 0.930 . S
N25 Zn9 2.119 . S
N25 C21 1.328 . S
N25 C24 1.334 . S
N26 C22 1.331 . S
N26 C23 1.329 . S
H27 C21 0.930 . S
C28 O8 1.257 . S
C28 O29 1.244 1_455 S
O29 C28 1.244 1_655 S
O30 C6 1.257 . S
O30 Zn9 2.019 . S
H31 C24 0.930 . S
H32 C11 0.930 . S
H33 C23 0.930 . S
Zn34 N38 2.020 . S
Zn34 O42 2.019 . S
Zn34 N44 2.119 . S
Zn34 O52 1.975 . S
C35 N36 1.334 . S
C35 N39 1.336 . S
N36 C35 1.334 . S
N36 C37 1.334 . S
C37 N36 1.334 . S
C37 N38 1.336 . S
N38 Zn34 2.020 . S
N38 C37 1.336 . S
N38 N39 1.354 . S
N39 C35 1.336 . S
N39 N38 1.354 . S
N39 Zn43 2.020 . S
C40 O41 1.244 . S
C40 O64 1.257 . S
O41 C40 1.244 . S
O42 Zn34 2.019 . S
O42 C62 1.257 . S
Zn43 N39 2.020 . S
Zn43 O50 1.975 . S
Zn43 N59 2.119 . S
Zn43 O64 2.019 . S
N44 Zn34 2.119 . S
N44 C46 1.334 . S
N44 C47 1.328 . S
C45 C46 1.391 . S
C45 N48 1.329 1_565 S
C45 H66 0.930 . S
C46 N44 1.334 . S
C46 C45 1.391 . S
C46 H53 0.930 . S
C47 N44 1.328 . S
C47 C49 1.392 1_565 S
C47 H54 0.930 . S
N48 C45 1.329 1_545 S
N48 C49 1.331 . S
C49 C47 1.392 1_545 S
C49 N48 1.331 . S
O50 Zn43 1.975 . S
O50 C51 1.252 . S
C51 O50 1.252 . S
C51 O52 1.252 . S
O52 Zn34 1.975 . S
O52 C51 1.252 . S
H53 C46 0.930 . S
H54 C47 0.930 . S
C55 C56 1.392 . S
C55 N59 1.328 . S
C55 H61 0.930 . S
C56 C55 1.392 . S
C56 N60 1.331 . S
C57 C58 1.391 . S
C57 N60 1.329 . S
C57 H67 0.930 . S
C58 C57 1.391 . S
C58 N59 1.334 . S
C58 H65 0.930 . S
N59 Zn43 2.119 . S
N59 C55 1.328 . S
N59 C58 1.334 . S
N60 C56 1.331 . S
N60 C57 1.329 . S
H61 C55 0.930 . S
C62 O42 1.257 . S
C62 O63 1.244 . S
O63 C62 1.244 . S
O64 C40 1.257 . S
O64 Zn43 2.019 . S
H65 C58 0.930 . S
H66 C45 0.930 . S
H67 C57 0.930 . S
Zn68 N72 2.020 . S
Zn68 O76 2.019 . S
Zn68 N78 2.119 . S
Zn68 O86 1.975 . S
C69 N70 1.334 . S
C69 N73 1.336 . S
N70 C69 1.334 . S
N70 C71 1.334 . S
C71 N70 1.334 . S
C71 N72 1.336 . S
N72 Zn68 2.020 . S
N72 C71 1.336 . S
N72 N73 1.354 . S
N73 C69 1.336 . S
N73 N72 1.354 . S
N73 Zn77 2.020 . S
C74 O75 1.244 . S
C74 O98 1.257 . S
O75 C74 1.244 . S
O76 Zn68 2.019 . S
O76 C96 1.257 . S
Zn77 N73 2.020 . S
Zn77 O84 1.975 . S
Zn77 N93 2.119 . S
Zn77 O98 2.019 . S
N78 Zn68 2.119 . S
N78 C80 1.334 . S
N78 C81 1.328 . S
C79 C80 1.391 . S
C79 N82 1.329 . S
C79 H100 0.930 . S
C80 N78 1.334 . S
C80 C79 1.391 . S
C80 H87 0.930 . S
C81 N78 1.328 . S
C81 C83 1.392 . S
C81 H88 0.930 . S
N82 C79 1.329 . S
N82 C83 1.331 . S
C83 C81 1.392 . S
C83 N82 1.331 . S
O84 Zn77 1.975 . S
O84 C85 1.252 . S
C85 O84 1.252 . S
C85 O86 1.252 . S
O86 Zn68 1.975 . S
O86 C85 1.252 . S
H87 C80 0.930 . S
H88 C81 0.930 . S
C89 C90 1.392 . S
C89 N93 1.328 . S
C89 H95 0.930 . S
C90 C89 1.392 . S
C90 N94 1.331 . S
C91 C92 1.391 . S
C91 N94 1.329 . S
C91 H101 0.930 . S
C92 C91 1.391 . S
C92 N93 1.334 . S
C92 H99 0.930 . S
N93 Zn77 2.119 . S
N93 C89 1.328 . S
N93 C92 1.334 . S
N94 C90 1.331 . S
N94 C91 1.329 . S
H95 C89 0.930 . S
C96 O76 1.257 . S
C96 O97 1.244 . S
O97 C96 1.244 . S
O98 C74 1.257 . S
O98 Zn77 2.019 . S
H99 C92 0.930 . S
H100 C79 0.930 . S
H101 C91 0.930 . S
Zn102 N106 2.020 . S
Zn102 O110 2.019 . S
Zn102 N112 2.119 . S
Zn102 O120 1.975 . S
C103 N104 1.334 . S
C103 N107 1.336 . S
N104 C103 1.334 . S
N104 C105 1.334 1_455 S
C105 N104 1.334 1_655 S
C105 N106 1.336 . S
N106 Zn102 2.020 . S
N106 C105 1.336 . S
N106 N107 1.354 1_655 S
N107 C103 1.336 . S
N107 N106 1.354 1_455 S
N107 Zn111 2.020 . S
C108 O109 1.244 . S
C108 O132 1.257 . S
O109 C108 1.244 . S
O110 Zn102 2.019 . S
O110 C130 1.257 . S
Zn111 N107 2.020 . S
Zn111 O118 1.975 . S
Zn111 N127 2.119 . S
Zn111 O132 2.019 . S
N112 Zn102 2.119 . S
N112 C114 1.334 1_655 S
N112 C115 1.328 . S
C113 C114 1.391 . S
C113 N116 1.329 1_455 S
C113 H134 0.930 . S
C114 N112 1.334 1_455 S
C114 C113 1.391 . S
C114 H121 0.930 . S
C115 N112 1.328 . S
C115 C117 1.392 . S
C115 H122 0.930 . S
N116 C113 1.329 1_655 S
N116 C117 1.331 . S
C117 C115 1.392 . S
C117 N116 1.331 . S
O118 Zn111 1.975 . S
O118 C119 1.252 . S
C119 O118 1.252 . S
C119 O120 1.252 1_455 S
O120 Zn102 1.975 . S
O120 C119 1.252 1_655 S
H121 C114 0.930 . S
H122 C115 0.930 . S
C123 C124 1.392 1_545 S
C123 N127 1.328 . S
C123 H129 0.930 . S
C124 C123 1.392 1_565 S
C124 N128 1.331 . S
C125 C126 1.391 . S
C125 N128 1.329 1_645 S
C125 H135 0.930 . S
C126 C125 1.391 . S
C126 N127 1.334 1_655 S
C126 H133 0.930 . S
N127 Zn111 2.119 . S
N127 C123 1.328 . S
N127 C126 1.334 1_455 S
N128 C124 1.331 . S
N128 C125 1.329 1_465 S
H129 C123 0.930 . S
C130 O110 1.257 . S
C130 O131 1.244 . S
O131 C130 1.244 . S
O132 C108 1.257 . S
O132 Zn111 2.019 . S
H133 C126 0.930 . S
H134 C113 0.930 . S
H135 C125 0.930 . S
Zn136 N140 2.020 . S
Zn136 O144 2.019 . S
Zn136 N146 2.119 . S
Zn136 O154 1.975 . S
C137 N138 1.334 . S
C137 N141 1.336 . S
N138 C137 1.334 . S
N138 C139 1.334 1_455 S
C139 N138 1.334 1_655 S
C139 N140 1.336 . S
N140 Zn136 2.020 . S
N140 C139 1.336 . S
N140 N141 1.354 1_655 S
N141 C137 1.336 . S
N141 N140 1.354 1_455 S
N141 Zn145 2.020 . S
C142 O143 1.244 1_455 S
C142 O166 1.257 . S
O143 C142 1.244 1_655 S
O144 Zn136 2.019 . S
O144 C164 1.257 . S
Zn145 N141 2.020 . S
Zn145 O152 1.975 . S
Zn145 N161 2.119 . S
Zn145 O166 2.019 . S
N146 Zn136 2.119 . S
N146 C148 1.334 . S
N146 C149 1.328 . S
C147 C148 1.391 . S
C147 N150 1.329 . S
C147 H168 0.930 . S
C148 N146 1.334 . S
C148 C147 1.391 . S
C148 H155 0.930 . S
C149 N146 1.328 . S
C149 C151 1.392 . S
C149 H156 0.930 . S
N150 C147 1.329 . S
N150 C151 1.331 . S
C151 C149 1.392 . S
C151 N150 1.331 . S
O152 Zn145 1.975 . S
O152 C153 1.252 . S
C153 O152 1.252 . S
C153 O154 1.252 1_455 S
O154 Zn136 1.975 . S
O154 C153 1.252 1_655 S
H155 C148 0.930 . S
H156 C149 0.930 . S
C157 C158 1.392 . S
C157 N161 1.328 . S
C157 H163 0.930 . S
C158 C157 1.392 . S
C158 N162 1.331 . S
C159 C160 1.391 . S
C159 N162 1.329 . S
C159 H169 0.930 . S
C160 C159 1.391 . S
C160 N161 1.334 . S
C160 H167 0.930 . S
N161 Zn145 2.119 . S
N161 C157 1.328 . S
N161 C160 1.334 . S
N162 C158 1.331 . S
N162 C159 1.329 . S
H163 C157 0.930 . S
C164 O144 1.257 . S
C164 O165 1.244 1_655 S
O165 C164 1.244 1_455 S
O166 C142 1.257 . S
O166 Zn145 2.019 . S
H167 C160 0.930 . S
H168 C147 0.930 . S
H169 C159 0.930 . S
Zn170 N174 2.020 . S
Zn170 O178 2.019 . S
Zn170 N180 2.119 . S
Zn170 O188 1.975 . S
C171 N172 1.334 . S
C171 N175 1.336 . S
N172 C171 1.334 . S
N172 C173 1.334 1_455 S
C173 N172 1.334 1_655 S
C173 N174 1.336 . S
N174 Zn170 2.020 . S
N174 C173 1.336 . S
N174 N175 1.354 1_655 S
N175 C171 1.336 . S
N175 N174 1.354 1_455 S
N175 Zn179 2.020 . S
C176 O177 1.244 . S
C176 O200 1.257 . S
O177 C176 1.244 . S
O178 Zn170 2.019 . S
O178 C198 1.257 . S
Zn179 N175 2.020 . S
Zn179 O186 1.975 . S
Zn179 N195 2.119 . S
Zn179 O200 2.019 . S
N180 Zn170 2.119 . S
N180 C182 1.334 1_655 S
N180 C183 1.328 . S
C181 C182 1.391 . S
C181 N184 1.329 1_455 S
C181 H202 0.930 . S
C182 N180 1.334 1_455 S
C182 C181 1.391 . S
C182 H189 0.930 . S
C183 N180 1.328 . S
C183 C185 1.392 . S
C183 H190 0.930 . S
N184 C181 1.329 1_655 S
N184 C185 1.331 . S
C185 C183 1.392 . S
C185 N184 1.331 . S
O186 Zn179 1.975 . S
O186 C187 1.252 . S
C187 O186 1.252 . S
C187 O188 1.252 1_455 S
O188 Zn170 1.975 . S
O188 C187 1.252 1_655 S
H189 C182 0.930 . S
H190 C183 0.930 . S
C191 C192 1.392 1_565 S
C191 N195 1.328 . S
C191 H197 0.930 . S
C192 C191 1.392 1_545 S
C192 N196 1.331 . S
C193 C194 1.391 . S
C193 N196 1.329 1_665 S
C193 H203 0.930 . S
C194 C193 1.391 . S
C194 N195 1.334 1_655 S
C194 H201 0.930 . S
N195 Zn179 2.119 . S
N195 C191 1.328 . S
N195 C194 1.334 1_455 S
N196 C192 1.331 . S
N196 C193 1.329 1_445 S
H197 C191 0.930 . S
C198 O178 1.257 . S
C198 O199 1.244 . S
O199 C198 1.244 . S
O200 C176 1.257 . S
O200 Zn179 2.019 . S
H201 C194 0.930 . S
H202 C181 0.930 . S
H203 C193 0.930 . S
Zn204 N208 2.020 . S
Zn204 O212 2.019 . S
Zn204 N214 2.119 . S
Zn204 O222 1.975 . S
C205 N206 1.334 . S
C205 N209 1.336 . S
N206 C205 1.334 . S
N206 C207 1.334 . S
C207 N206 1.334 . S
C207 N208 1.336 . S
N208 Zn204 2.020 . S
N208 C207 1.336 . S
N208 N209 1.354 . S
N209 C205 1.336 . S
N209 N208 1.354 . S
N209 Zn213 2.020 . S
C210 O211 1.244 . S
C210 O234 1.257 . S
O211 C210 1.244 . S
O212 Zn204 2.019 . S
O212 C232 1.257 . S
Zn213 N209 2.020 . S
Zn213 O220 1.975 . S
Zn213 N229 2.119 . S
Zn213 O234 2.019 . S
N214 Zn204 2.119 . S
N214 C216 1.334 . S
N214 C217 1.328 . S
C215 C216 1.391 . S
C215 N218 1.329 . S
C215 H236 0.930 . S
C216 N214 1.334 . S
C216 C215 1.391 . S
C216 H223 0.930 . S
C217 N214 1.328 . S
C217 C219 1.392 . S
C217 H224 0.930 . S
N218 C215 1.329 . S
N218 C219 1.331 . S
C219 C217 1.392 . S
C219 N218 1.331 . S
O220 Zn213 1.975 . S
O220 C221 1.252 . S
C221 O220 1.252 . S
C221 O222 1.252 . S
O222 Zn204 1.975 . S
O222 C221 1.252 . S
H223 C216 0.930 . S
H224 C217 0.930 . S
C225 C226 1.392 . S
C225 N229 1.328 . S
C225 H231 0.930 . S
C226 C225 1.392 . S
C226 N230 1.331 . S
C227 C228 1.391 . S
C227 N230 1.329 . S
C227 H237 0.930 . S
C228 C227 1.391 . S
C228 N229 1.334 . S
C228 H235 0.930 . S
N229 Zn213 2.119 . S
N229 C225 1.328 . S
N229 C228 1.334 . S
N230 C226 1.331 . S
N230 C227 1.329 . S
H231 C225 0.930 . S
C232 O212 1.257 . S
C232 O233 1.244 . S
O233 C232 1.244 . S
O234 C210 1.257 . S
O234 Zn213 2.019 . S
H235 C228 0.930 . S
H236 C215 0.930 . S
H237 C227 0.930 . S
Zn238 N242 2.020 . S
Zn238 O246 2.019 . S
Zn238 N248 2.119 . S
Zn238 O256 1.975 . S
C239 N240 1.334 . S
C239 N243 1.336 . S
N240 C239 1.334 . S
N240 C241 1.334 . S
C241 N240 1.334 . S
C241 N242 1.336 . S
N242 Zn238 2.020 . S
N242 C241 1.336 . S
N242 N243 1.354 . S
N243 C239 1.336 . S
N243 N242 1.354 . S
N243 Zn247 2.020 . S
C244 O245 1.244 . S
C244 O268 1.257 . S
O245 C244 1.244 . S
O246 Zn238 2.019 . S
O246 C266 1.257 . S
Zn247 N243 2.020 . S
Zn247 O254 1.975 . S
Zn247 N263 2.119 . S
Zn247 O268 2.019 . S
N248 Zn238 2.119 . S
N248 C250 1.334 . S
N248 C251 1.328 . S
C249 C250 1.391 . S
C249 N252 1.329 1_545 S
C249 H270 0.930 . S
C250 N248 1.334 . S
C250 C249 1.391 . S
C250 H257 0.930 . S
C251 N248 1.328 . S
C251 C253 1.392 1_545 S
C251 H258 0.930 . S
N252 C249 1.329 1_565 S
N252 C253 1.331 . S
C253 C251 1.392 1_565 S
C253 N252 1.331 . S
O254 Zn247 1.975 . S
O254 C255 1.252 . S
C255 O254 1.252 . S
C255 O256 1.252 . S
O256 Zn238 1.975 . S
O256 C255 1.252 . S
H257 C250 0.930 . S
H258 C251 0.930 . S
C259 C260 1.392 . S
C259 N263 1.328 . S
C259 H265 0.930 . S
C260 C259 1.392 . S
C260 N264 1.331 . S
C261 C262 1.391 . S
C261 N264 1.329 . S
C261 H271 0.930 . S
C262 C261 1.391 . S
C262 N263 1.334 . S
C262 H269 0.930 . S
N263 Zn247 2.119 . S
N263 C259 1.328 . S
N263 C262 1.334 . S
N264 C260 1.331 . S
N264 C261 1.329 . S
H265 C259 0.930 . S
C266 O246 1.257 . S
C266 O267 1.244 . S
O267 C266 1.244 . S
O268 C244 1.257 . S
O268 Zn247 2.019 . S
H269 C262 0.930 . S
H270 C249 0.930 . S
H271 C261 0.930 . S
H272 C280 0.950 . S
H273 C285 0.950 . S
H274 C282 0.950 . S
H275 C284 0.950 . S
H276 C286 0.950 . S
H277 C288 0.950 . S
H278 C290 0.950 . S
H279 C291 0.950 . S
C280 H272 0.950 . S
C280 C281 1.386 1_455 S
C280 C282 1.391 . S
C281 C280 1.386 1_655 S
C281 C285 1.393 . S
C282 H274 0.950 . S
C282 C280 1.391 . S
C282 C283 1.400 1_455 S
C283 C282 1.400 1_655 S
C283 C284 1.398 . S
C283 C289 1.491 1_655 S
C284 H275 0.950 . S
C284 C283 1.398 . S
C284 C285 1.391 . S
C285 H273 0.950 . S
C285 C281 1.393 . S
C285 C284 1.391 . S
C286 H276 0.950 . S
C286 C287 1.386 1_655 S
C286 C288 1.391 . S
C287 C286 1.386 1_455 S
C287 C291 1.393 . S
C288 H277 0.950 . S
C288 C286 1.391 . S
C288 C289 1.400 1_655 S
C289 C283 1.491 1_455 S
C289 C288 1.400 1_455 S
C289 C290 1.398 . S
C290 H278 0.950 . S
C290 C289 1.398 . S
C290 C291 1.391 . S
C291 H279 0.950 . S
C291 C287 1.393 . S
C291 C290 1.391 . S
H292 C300 0.950 . S
H293 C305 0.950 . S
H294 C302 0.950 . S
H295 C304 0.950 . S
H296 C306 0.950 . S
H297 C308 0.950 . S
H298 C310 0.950 . S
H299 C311 0.950 . S
C300 H292 0.950 . S
C300 C301 1.386 . S
C300 C302 1.391 . S
C301 C300 1.386 . S
C301 C305 1.393 . S
C302 H294 0.950 . S
C302 C300 1.391 . S
C302 C303 1.400 . S
C303 C302 1.400 . S
C303 C304 1.398 . S
C303 C309 1.491 . S
C304 H295 0.950 . S
C304 C303 1.398 . S
C304 C305 1.391 . S
C305 H293 0.950 . S
C305 C301 1.393 . S
C305 C304 1.391 . S
C306 H296 0.950 . S
C306 C307 1.386 . S
C306 C308 1.391 . S
C307 C306 1.386 . S
C307 C311 1.393 . S
C308 H297 0.950 . S
C308 C306 1.391 . S
C308 C309 1.400 . S
C309 C303 1.491 . S
C309 C308 1.400 . S
C309 C310 1.398 . S
C310 H298 0.950 . S
C310 C309 1.398 . S
C310 C311 1.391 . S
C311 H299 0.950 . S
C311 C307 1.393 . S
C311 C310 1.391 . S
H312 C320 0.950 . S
H313 C325 0.950 . S
H314 C322 0.950 . S
H315 C324 0.950 . S
H316 C326 0.950 . S
H317 C328 0.950 . S
H318 C330 0.950 . S
H319 C331 0.950 . S
C320 H312 0.950 . S
C320 C321 1.386 . S
C320 C322 1.391 . S
C321 C320 1.386 . S
C321 C325 1.393 . S
C322 H314 0.950 . S
C322 C320 1.391 . S
C322 C323 1.400 . S
C323 C322 1.400 . S
C323 C324 1.398 . S
C323 C329 1.491 . S
C324 H315 0.950 . S
C324 C323 1.398 . S
C324 C325 1.391 . S
C325 H313 0.950 . S
C325 C321 1.393 . S
C325 C324 1.391 . S
C326 H316 0.950 . S
C326 C327 1.386 . S
C326 C328 1.391 . S
C327 C326 1.386 . S
C327 C331 1.393 . S
C328 H317 0.950 . S
C328 C326 1.391 . S
C328 C329 1.400 . S
C329 C323 1.491 . S
C329 C328 1.400 . S
C329 C330 1.398 . S
C330 H318 0.950 . S
C330 C329 1.398 . S
C330 C331 1.391 . S
C331 H319 0.950 . S
C331 C327 1.393 . S
C331 C330 1.391 . S
H332 C340 0.950 . S
H333 C345 0.950 . S
H334 C342 0.950 . S
H335 C344 0.950 . S
H336 C346 0.950 . S
H337 C348 0.950 . S
H338 C350 0.950 . S
H339 C351 0.950 . S
C340 H332 0.950 . S
C340 C341 1.386 . S
C340 C342 1.391 . S
C341 C340 1.386 . S
C341 C345 1.393 1_655 S
C342 H334 0.950 . S
C342 C340 1.391 . S
C342 C343 1.408 . S
C343 C342 1.408 . S
C343 C344 1.391 1_655 S
C343 C349 1.490 1_655 S
C344 H335 0.950 . S
C344 C343 1.391 1_455 S
C344 C345 1.391 . S
C345 H333 0.950 . S
C345 C341 1.393 1_455 S
C345 C344 1.391 . S
C346 H336 0.950 . S
C346 C347 1.386 . S
C346 C348 1.391 . S
C347 C346 1.386 . S
C347 C351 1.393 1_455 S
C348 H337 0.950 . S
C348 C346 1.391 . S
C348 C349 1.400 . S
C349 C343 1.490 1_455 S
C349 C348 1.400 . S
C349 C350 1.398 1_455 S
C350 H338 0.950 . S
C350 C349 1.398 1_655 S
C350 C351 1.391 . S
C351 H339 0.950 . S
C351 C347 1.393 1_655 S
C351 C350 1.391 . S
H352 C360 0.950 . S
H353 C365 0.950 . S
H354 C362 0.998 . S
H355 C364 0.950 . S
H356 C366 0.950 . S
H357 C368 0.998 . S
H358 C370 0.950 . S
H359 C371 0.950 . S
C360 H352 0.950 . S
C360 C361 1.386 1_455 S
C360 C362 1.391 . S
C361 C360 1.386 1_655 S
C361 C365 1.393 . S
C362 H354 0.998 . S
C362 C360 1.391 . S
C362 C363 1.400 1_455 S
C363 C362 1.400 1_655 S
C363 C364 1.398 . S
C363 C369 1.491 1_556 S
C364 H355 0.950 . S
C364 C363 1.398 . S
C364 C365 1.391 . S
C365 H353 0.950 . S
C365 C361 1.393 . S
C365 C364 1.391 . S
C366 H356 0.950 . S
C366 C367 1.386 . S
C366 C368 1.391 . S
C367 C366 1.386 . S
C367 C371 1.393 1_655 S
C368 H357 0.998 . S
C368 C366 1.391 . S
C368 C369 1.400 . S
C369 C363 1.491 1_554 S
C369 C368 1.400 . S
C369 C370 1.398 1_655 S
C370 H358 0.950 . S
C370 C369 1.398 1_455 S
C370 C371 1.391 . S
C371 H359 0.950 . S
C371 C367 1.393 1_455 S
C371 C370 1.391 . S
H372 C380 0.950 . S
H373 C385 0.950 . S
H374 C382 0.950 . S
H375 C384 0.950 . S
H376 C386 0.950 . S
H377 C388 0.950 . S
H378 C390 0.950 . S
H379 C391 0.950 . S
C380 H372 0.950 . S
C380 C381 1.386 . S
C380 C382 1.391 . S
C381 C380 1.386 . S
C381 C385 1.393 . S
C382 H374 0.950 . S
C382 C380 1.391 . S
C382 C383 1.400 . S
C383 C382 1.400 . S
C383 C384 1.398 . S
C383 C389 1.491 . S
C384 H375 0.950 . S
C384 C383 1.398 . S
C384 C385 1.391 . S
C385 H373 0.950 . S
C385 C381 1.393 . S
C385 C384 1.391 . S
C386 H376 0.950 . S
C386 C387 1.386 . S
C386 C388 1.391 . S
C387 C386 1.386 . S
C387 C391 1.393 . S
C388 H377 0.950 . S
C388 C386 1.391 . S
C388 C389 1.400 . S
C389 C383 1.491 . S
C389 C388 1.400 . S
C389 C390 1.398 . S
C390 H378 0.950 . S
C390 C389 1.398 . S
C390 C391 1.391 . S
C391 H379 0.950 . S
C391 C387 1.393 . S
C391 C390 1.391 . S
H392 C400 0.950 . S
H393 C405 0.950 . S
H394 C402 0.950 . S
H395 C404 0.950 . S
H396 C406 0.950 . S
H397 C408 0.950 . S
H398 C410 0.950 . S
H399 C411 0.950 . S
C400 H392 0.950 . S
C400 C401 1.386 . S
C400 C402 1.391 . S
C401 C400 1.386 . S
C401 C405 1.393 . S
C402 H394 0.950 . S
C402 C400 1.391 . S
C402 C403 1.400 . S
C403 C402 1.400 . S
C403 C404 1.398 . S
C403 C409 1.491 . S
C404 H395 0.950 . S
C404 C403 1.398 . S
C404 C405 1.391 . S
C405 H393 0.950 . S
C405 C401 1.393 . S
C405 C404 1.391 . S
C406 H396 0.950 . S
C406 C407 1.386 . S
C406 C408 1.391 . S
C407 C406 1.386 . S
C407 C411 1.393 . S
C408 H397 0.950 . S
C408 C406 1.391 . S
C408 C409 1.400 . S
C409 C403 1.491 . S
C409 C408 1.400 . S
C409 C410 1.398 . S
C410 H398 0.950 . S
C410 C409 1.398 . S
C410 C411 1.391 . S
C411 H399 0.950 . S
C411 C407 1.393 . S
C411 C410 1.391 . S
H412 C420 0.950 . S
H413 C425 0.950 . S
H414 C422 0.950 . S
H415 C424 0.950 . S
H416 C426 0.950 . S
H417 C428 0.950 . S
H418 C430 0.950 . S
H419 C431 0.950 . S
C420 H412 0.950 . S
C420 C421 1.386 . S
C420 C422 1.391 . S
C421 C420 1.386 . S
C421 C425 1.393 . S
C422 H414 0.950 . S
C422 C420 1.391 . S
C422 C423 1.400 . S
C423 C422 1.400 . S
C423 C424 1.398 . S
C423 C429 1.491 . S
C424 H415 0.950 . S
C424 C423 1.398 . S
C424 C425 1.391 . S
C425 H413 0.950 . S
C425 C421 1.393 . S
C425 C424 1.391 . S
C426 H416 0.950 . S
C426 C427 1.386 . S
C426 C428 1.391 . S
C427 C426 1.386 . S
C427 C431 1.393 . S
C428 H417 0.950 . S
C428 C426 1.391 . S
C428 C429 1.400 . S
C429 C423 1.491 . S
C429 C428 1.400 . S
C429 C430 1.398 . S
C430 H418 0.950 . S
C430 C429 1.398 . S
C430 C431 1.391 . S
C431 H419 0.950 . S
C431 C427 1.393 . S
C431 C430 1.391 . S
H432 C440 0.950 . S
H433 C445 0.950 . S
H434 C442 0.950 . S
H435 C444 0.950 . S
H436 C446 0.950 . S
H437 C448 0.950 . S
H438 C450 0.950 . S
H439 C451 0.950 . S
C440 H432 0.950 . S
C440 C441 1.386 . S
C440 C442 1.391 . S
C441 C440 1.386 . S
C441 C445 1.393 . S
C442 H434 0.950 . S
C442 C440 1.391 . S
C442 C443 1.400 . S
C443 C442 1.400 . S
C443 C444 1.398 . S
C443 C449 1.491 . S
C444 H435 0.950 . S
C444 C443 1.398 . S
C444 C445 1.391 . S
C445 H433 0.950 . S
C445 C441 1.393 . S
C445 C444 1.391 . S
C446 H436 0.950 . S
C446 C447 1.386 . S
C446 C448 1.391 . S
C447 C446 1.386 . S
C447 C451 1.393 . S
C448 H437 0.950 . S
C448 C446 1.391 . S
C448 C449 1.400 . S
C449 C443 1.491 . S
C449 C448 1.400 . S
C449 C450 1.398 . S
C450 H438 0.950 . S
C450 C449 1.398 . S
C450 C451 1.391 . S
C451 H439 0.950 . S
C451 C447 1.393 . S
C451 C450 1.391 . S
H452 C460 0.950 . S
H453 C465 0.950 . S
H454 C462 0.950 . S
H455 C464 0.950 . S
H456 C466 0.950 . S
H457 C468 0.950 . S
H458 C470 0.950 . S
H459 C471 0.950 . S
C460 H452 0.950 . S
C460 C461 1.386 . S
C460 C462 1.391 . S
C461 C460 1.386 . S
C461 C465 1.393 . S
C462 H454 0.950 . S
C462 C460 1.391 . S
C462 C463 1.400 . S
C463 C462 1.400 . S
C463 C464 1.398 . S
C463 C469 1.491 . S
C464 H455 0.950 . S
C464 C463 1.398 . S
C464 C465 1.391 . S
C465 H453 0.950 . S
C465 C461 1.393 . S
C465 C464 1.391 . S
C466 H456 0.950 . S
C466 C467 1.386 . S
C466 C468 1.391 . S
C467 C466 1.386 . S
C467 C471 1.393 . S
C468 H457 0.950 . S
C468 C466 1.391 . S
C468 C469 1.400 . S
C469 C463 1.491 . S
C469 C468 1.400 . S
C469 C470 1.398 . S
C470 H458 0.950 . S
C470 C469 1.398 . S
C470 C471 1.391 . S
C471 H459 0.950 . S
C471 C467 1.393 . S
C471 C470 1.391 . S
H472 C480 0.950 . S
H473 C485 0.950 . S
H474 C482 0.950 . S
H475 C484 0.950 . S
H476 C486 0.950 . S
H477 C488 0.950 . S
H478 C490 0.950 . S
H479 C491 0.950 . S
C480 H472 0.950 . S
C480 C481 1.386 . S
C480 C482 1.391 . S
C481 C480 1.386 . S
C481 C485 1.393 . S
C482 H474 0.950 . S
C482 C480 1.391 . S
C482 C483 1.400 . S
C483 C482 1.400 . S
C483 C484 1.398 . S
C483 C489 1.491 1_545 S
C484 H475 0.950 . S
C484 C483 1.398 . S
C484 C485 1.391 . S
C485 H473 0.950 . S
C485 C481 1.393 . S
C485 C484 1.391 . S
C486 H476 0.950 . S
C486 C487 1.386 . S
C486 C488 1.391 . S
C487 C486 1.386 . S
C487 C491 1.393 . S
C488 H477 0.950 . S
C488 C486 1.391 . S
C488 C489 1.400 . S
C489 C483 1.491 1_565 S
C489 C488 1.400 . S
C489 C490 1.398 . S
C490 H478 0.950 . S
C490 C489 1.398 . S
C490 C491 1.391 . S
C491 H479 0.950 . S
C491 C487 1.393 . S
C491 C490 1.391 . S
H492 C500 0.950 . S
H493 C505 0.950 . S
H494 C502 0.950 . S
H495 C504 0.950 . S
H496 C506 0.950 . S
H497 C508 0.950 . S
H498 C510 0.950 . S
H499 C511 0.950 . S
C500 H492 0.950 . S
C500 C501 1.386 1_655 S
C500 C502 1.391 . S
C501 C500 1.386 1_455 S
C501 C505 1.393 . S
C502 H494 0.950 . S
C502 C500 1.391 . S
C502 C503 1.400 1_655 S
C503 C502 1.400 1_455 S
C503 C504 1.398 . S
C503 C509 1.491 1_564 S
C504 H495 0.950 . S
C504 C503 1.398 . S
C504 C505 1.391 . S
C505 H493 0.950 . S
C505 C501 1.393 . S
C505 C504 1.391 . S
C506 H496 0.950 . S
C506 C507 1.386 . S
C506 C508 1.391 . S
C507 C506 1.386 . S
C507 C511 1.393 1_455 S
C508 H497 0.950 . S
C508 C506 1.391 . S
C508 C509 1.400 . S
C509 C503 1.491 1_546 S
C509 C508 1.400 . S
C509 C510 1.398 1_455 S
C510 H498 0.950 . S
C510 C509 1.398 1_655 S
C510 C511 1.391 . S
C511 H499 0.950 . S
C511 C507 1.393 1_655 S
C511 C510 1.391 . S
H512 C520 0.950 . S
H513 C525 0.950 . S
H514 C522 0.950 . S
H515 C524 0.950 . S
H516 C526 0.950 . S
H517 C528 0.950 . S
H518 C530 0.950 . S
H519 C531 0.950 . S
C520 H512 0.950 . S
C520 C521 1.386 . S
C520 C522 1.391 . S
C521 C520 1.386 . S
C521 C525 1.393 . S
C522 H514 0.950 . S
C522 C520 1.391 . S
C522 C523 1.400 . S
C523 C522 1.400 . S
C523 C524 1.398 . S
C523 C529 1.491 . S
C524 H515 0.950 . S
C524 C523 1.398 . S
C524 C525 1.391 . S
C525 H513 0.950 . S
C525 C521 1.393 . S
C525 C524 1.391 . S
C526 H516 0.950 . S
C526 C527 1.386 . S
C526 C528 1.391 . S
C527 C526 1.386 . S
C527 C531 1.393 . S
C528 H517 0.950 . S
C528 C526 1.391 . S
C528 C529 1.400 . S
C529 C523 1.491 . S
C529 C528 1.400 . S
C529 C530 1.398 . S
C530 H518 0.950 . S
C530 C529 1.398 . S
C530 C531 1.391 . S
C531 H519 0.950 . S
C531 C527 1.393 . S
C531 C530 1.391 . S
H532 C540 0.950 . S
H533 C545 0.950 . S
H534 C542 0.950 . S
H535 C544 0.950 . S
H536 C546 0.950 . S
H537 C548 0.950 . S
H538 C550 0.950 . S
H539 C551 0.950 . S
C540 H532 0.950 . S
C540 C541 1.386 . S
C540 C542 1.391 . S
C541 C540 1.386 . S
C541 C545 1.393 . S
C542 H534 0.950 . S
C542 C540 1.391 . S
C542 C543 1.400 . S
C543 C542 1.400 . S
C543 C544 1.398 . S
C543 C549 1.491 . S
C544 H535 0.950 . S
C544 C543 1.398 . S
C544 C545 1.391 . S
C545 H533 0.950 . S
C545 C541 1.393 . S
C545 C544 1.391 . S
C546 H536 0.950 . S
C546 C547 1.386 . S
C546 C548 1.391 . S
C547 C546 1.386 . S
C547 C551 1.393 . S
C548 H537 0.950 . S
C548 C546 1.391 . S
C548 C549 1.400 . S
C549 C543 1.491 . S
C549 C548 1.400 . S
C549 C550 1.398 . S
C550 H538 0.950 . S
C550 C549 1.398 . S
C550 C551 1.391 . S
C551 H539 0.950 . S
C551 C547 1.393 . S
C551 C550 1.391 . S
H552 C560 0.950 . S
H553 C565 0.950 . S
H554 C562 0.950 . S
H555 C564 0.950 . S
H556 C566 0.950 . S
H557 C568 0.950 . S
H558 C570 0.950 . S
H559 C571 0.950 . S
C560 H552 0.950 . S
C560 C561 1.386 . S
C560 C562 1.391 . S
C561 C560 1.386 . S
C561 C565 1.393 . S
C562 H554 0.950 . S
C562 C560 1.391 . S
C562 C563 1.400 . S
C563 C562 1.400 . S
C563 C564 1.398 . S
C563 C569 1.491 1_655 S
C564 H555 0.950 . S
C564 C563 1.398 . S
C564 C565 1.391 . S
C565 H553 0.950 . S
C565 C561 1.393 . S
C565 C564 1.391 . S
C566 H556 0.950 . S
C566 C567 1.386 . S
C566 C568 1.391 . S
C567 C566 1.386 . S
C567 C571 1.393 . S
C568 H557 0.950 . S
C568 C566 1.391 . S
C568 C569 1.400 . S
C569 C563 1.491 1_455 S
C569 C568 1.400 . S
C569 C570 1.398 . S
C570 H558 0.950 . S
C570 C569 1.398 . S
C570 C571 1.391 . S
C571 H559 0.950 . S
C571 C567 1.393 . S
C571 C570 1.391 . S
H572 C580 0.950 . S
H573 C585 0.950 . S
H574 C582 0.950 . S
H575 C584 0.950 . S
H576 C586 0.950 . S
H577 C588 0.950 . S
H578 C590 0.950 . S
H579 C591 0.950 . S
C580 H572 0.950 . S
C580 C581 1.386 . S
C580 C582 1.391 . S
C581 C580 1.386 . S
C581 C585 1.393 . S
C582 H574 0.950 . S
C582 C580 1.391 . S
C582 C583 1.400 . S
C583 C582 1.400 . S
C583 C584 1.398 . S
C583 C589 1.491 1_455 S
C584 H575 0.950 . S
C584 C583 1.398 . S
C584 C585 1.391 . S
C585 H573 0.950 . S
C585 C581 1.393 . S
C585 C584 1.391 . S
C586 H576 0.950 . S
C586 C587 1.386 . S
C586 C588 1.391 . S
C587 C586 1.386 . S
C587 C591 1.393 . S
C588 H577 0.950 . S
C588 C586 1.391 . S
C588 C589 1.400 . S
C589 C583 1.491 1_655 S
C589 C588 1.400 . S
C589 C590 1.398 . S
C590 H578 0.950 . S
C590 C589 1.398 . S
C590 C591 1.391 . S
C591 H579 0.950 . S
C591 C587 1.393 . S
C591 C590 1.391 . S
H592 C600 0.950 . S
H593 C605 0.950 . S
H594 C602 0.950 . S
H595 C604 0.950 . S
H596 C606 0.950 . S
H597 C608 0.950 . S
H598 C610 0.950 . S
H599 C611 0.950 . S
C600 H592 0.950 . S
C600 C601 1.386 . S
C600 C602 1.391 . S
C601 C600 1.386 . S
C601 C605 1.393 . S
C602 H594 0.950 . S
C602 C600 1.391 . S
C602 C603 1.400 . S
C603 C602 1.400 . S
C603 C604 1.398 . S
C603 C609 1.491 . S
C604 H595 0.950 . S
C604 C603 1.398 . S
C604 C605 1.391 . S
C605 H593 0.950 . S
C605 C601 1.393 . S
C605 C604 1.391 . S
C606 H596 0.950 . S
C606 C607 1.386 . S
C606 C608 1.391 . S
C607 C606 1.386 . S
C607 C611 1.393 . S
C608 H597 0.950 . S
C608 C606 1.391 . S
C608 C609 1.400 . S
C609 C603 1.491 . S
C609 C608 1.400 . S
C609 C610 1.398 . S
C610 H598 0.950 . S
C610 C609 1.398 . S
C610 C611 1.391 . S
C611 H599 0.950 . S
C611 C607 1.393 . S
C611 C610 1.391 . S
H612 C620 0.950 . S
H613 C625 0.950 . S
H614 C622 0.950 . S
H615 C624 0.950 . S
H616 C626 0.950 . S
H617 C628 0.950 . S
H618 C630 0.950 . S
H619 C631 0.950 . S
C620 H612 0.950 . S
C620 C621 1.386 . S
C620 C622 1.391 . S
C621 C620 1.386 . S
C621 C625 1.393 . S
C622 H614 0.950 . S
C622 C620 1.391 . S
C622 C623 1.400 . S
C623 C622 1.400 . S
C623 C624 1.398 . S
C623 C629 1.491 1_455 S
C624 H615 0.950 . S
C624 C623 1.398 . S
C624 C625 1.391 . S
C625 H613 0.950 . S
C625 C621 1.393 . S
C625 C624 1.391 . S
C626 H616 0.950 . S
C626 C627 1.386 . S
C626 C628 1.391 . S
C627 C626 1.386 . S
C627 C631 1.393 . S
C628 H617 0.950 . S
C628 C626 1.391 . S
C628 C629 1.400 . S
C629 C623 1.491 1_655 S
C629 C628 1.400 . S
C629 C630 1.398 . S
C630 H618 0.950 . S
C630 C629 1.398 . S
C630 C631 1.391 . S
C631 H619 0.950 . S
C631 C627 1.393 . S
C631 C630 1.391 . S
H632 C640 0.950 . S
H633 C645 0.950 . S
H634 C642 0.950 . S
H635 C644 0.950 . S
H636 C646 0.950 . S
H637 C648 0.950 . S
H638 C650 0.950 . S
H639 C651 0.950 . S
C640 H632 0.950 . S
C640 C641 1.386 . S
C640 C642 1.391 . S
C641 C640 1.386 . S
C641 C645 1.393 . S
C642 H634 0.950 . S
C642 C640 1.391 . S
C642 C643 1.400 . S
C643 C642 1.400 . S
C643 C644 1.398 . S
C643 C649 1.491 1_455 S
C644 H635 0.950 . S
C644 C643 1.398 . S
C644 C645 1.391 . S
C645 H633 0.950 . S
C645 C641 1.393 . S
C645 C644 1.391 . S
C646 H636 0.950 . S
C646 C647 1.386 . S
C646 C648 1.391 . S
C647 C646 1.386 . S
C647 C651 1.393 . S
C648 H637 0.950 . S
C648 C646 1.391 . S
C648 C649 1.400 . S
C649 C643 1.491 1_655 S
C649 C648 1.400 . S
C649 C650 1.398 . S
C650 H638 0.950 . S
C650 C649 1.398 . S
C650 C651 1.391 . S
C651 H639 0.950 . S
C651 C647 1.393 . S
C651 C650 1.391 . S
H652 C660 0.950 . S
H653 C665 0.950 . S
H654 C662 0.950 . S
H655 C664 0.950 . S
H656 C666 0.950 . S
H657 C668 0.950 . S
H658 C670 0.950 . S
H659 C671 0.950 . S
C660 H652 0.950 . S
C660 C661 1.386 . S
C660 C662 1.391 . S
C661 C660 1.386 . S
C661 C665 1.393 . S
C662 H654 0.950 . S
C662 C660 1.391 . S
C662 C663 1.400 . S
C663 C662 1.400 . S
C663 C664 1.398 . S
C663 C669 1.491 . S
C664 H655 0.950 . S
C664 C663 1.398 . S
C664 C665 1.391 . S
C665 H653 0.950 . S
C665 C661 1.393 . S
C665 C664 1.391 . S
C666 H656 0.950 . S
C666 C667 1.386 . S
C666 C668 1.391 . S
C667 C666 1.386 . S
C667 C671 1.393 . S
C668 H657 0.950 . S
C668 C666 1.391 . S
C668 C669 1.400 . S
C669 C663 1.491 . S
C669 C668 1.400 . S
C669 C670 1.398 . S
C670 H658 0.950 . S
C670 C669 1.398 . S
C670 C671 1.391 . S
C671 H659 0.950 . S
C671 C667 1.393 . S
C671 C670 1.391 . S
H672 C680 0.950 . S
H673 C685 0.950 . S
H674 C682 0.950 . S
H675 C684 0.950 . S
H676 C686 0.950 . S
H677 C688 0.950 . S
H678 C690 0.950 . S
H679 C691 0.950 . S
C680 H672 0.950 . S
C680 C681 1.386 1_455 S
C680 C682 1.391 . S
C681 C680 1.386 1_655 S
C681 C685 1.393 . S
C682 H674 0.950 . S
C682 C680 1.391 . S
C682 C683 1.400 1_455 S
C683 C682 1.400 1_655 S
C683 C684 1.398 . S
C683 C689 1.491 1_655 S
C684 H675 0.950 . S
C684 C683 1.398 . S
C684 C685 1.391 . S
C685 H673 0.950 . S
C685 C681 1.393 . S
C685 C684 1.391 . S
C686 H676 0.950 . S
C686 C687 1.386 1_655 S
C686 C688 1.391 . S
C687 C686 1.386 1_455 S
C687 C691 1.393 . S
C688 H677 0.950 . S
C688 C686 1.391 . S
C688 C689 1.400 1_655 S
C689 C683 1.491 1_455 S
C689 C688 1.400 1_455 S
C689 C690 1.398 . S
C690 H678 0.950 . S
C690 C689 1.398 . S
C690 C691 1.391 . S
C691 H679 0.950 . S
C691 C687 1.393 . S
C691 C690 1.391 . S
H692 C700 0.950 . S
H693 C705 0.950 . S
H694 C702 0.950 . S
H695 C704 0.950 . S
H696 C706 0.950 . S
H697 C708 0.950 . S
H698 C710 0.950 . S
H699 C711 0.950 . S
C700 H692 0.950 . S
C700 C701 1.386 . S
C700 C702 1.391 . S
C701 C700 1.386 . S
C701 C705 1.393 . S
C702 H694 0.950 . S
C702 C700 1.391 . S
C702 C703 1.400 . S
C703 C702 1.400 . S
C703 C704 1.398 . S
C703 C709 1.491 1_655 S
C704 H695 0.950 . S
C704 C703 1.398 . S
C704 C705 1.391 . S
C705 H693 0.950 . S
C705 C701 1.393 . S
C705 C704 1.391 . S
C706 H696 0.950 . S
C706 C707 1.386 . S
C706 C708 1.391 . S
C707 C706 1.386 . S
C707 C711 1.393 . S
C708 H697 0.950 . S
C708 C706 1.391 . S
C708 C709 1.400 . S
C709 C703 1.491 1_455 S
C709 C708 1.400 . S
C709 C710 1.398 . S
C710 H698 0.950 . S
C710 C709 1.398 . S
C710 C711 1.391 . S
C711 H699 0.950 . S
C711 C707 1.393 . S
C711 C710 1.391 . S
H712 C720 0.950 . S
H713 C725 0.950 . S
H714 C722 0.950 . S
H715 C724 0.950 . S
H716 C726 0.950 . S
H717 C728 0.950 . S
H718 C730 0.950 . S
H719 C731 0.950 . S
C720 H712 0.950 . S
C720 C721 1.386 . S
C720 C722 1.391 . S
C721 C720 1.386 . S
C721 C725 1.393 . S
C722 H714 0.950 . S
C722 C720 1.391 . S
C722 C723 1.400 . S
C723 C722 1.400 . S
C723 C724 1.398 . S
C723 C729 1.491 . S
C724 H715 0.950 . S
C724 C723 1.398 . S
C724 C725 1.391 . S
C725 H713 0.950 . S
C725 C721 1.393 . S
C725 C724 1.391 . S
C726 H716 0.950 . S
C726 C727 1.386 . S
C726 C728 1.391 . S
C727 C726 1.386 . S
C727 C731 1.393 . S
C728 H717 0.950 . S
C728 C726 1.391 . S
C728 C729 1.400 . S
C729 C723 1.491 . S
C729 C728 1.400 . S
C729 C730 1.398 . S
C730 H718 0.950 . S
C730 C729 1.398 . S
C730 C731 1.391 . S
C731 H719 0.950 . S
C731 C727 1.393 . S
C731 C730 1.391 . S
H732 C740 0.950 . S
H733 C745 0.950 . S
H734 C742 0.950 . S
H735 C744 0.950 . S
H736 C746 0.950 . S
H737 C748 0.950 . S
H738 C750 0.950 . S
H739 C751 0.950 . S
C740 H732 0.950 . S
C740 C741 1.386 . S
C740 C742 1.391 . S
C741 C740 1.386 . S
C741 C745 1.393 . S
C742 H734 0.950 . S
C742 C740 1.391 . S
C742 C743 1.400 . S
C743 C742 1.400 . S
C743 C744 1.398 . S
C743 C749 1.491 . S
C744 H735 0.950 . S
C744 C743 1.398 . S
C744 C745 1.391 . S
C745 H733 0.950 . S
C745 C741 1.393 . S
C745 C744 1.391 . S
C746 H736 0.950 . S
C746 C747 1.386 . S
C746 C748 1.391 . S
C747 C746 1.386 . S
C747 C751 1.393 . S
C748 H737 0.950 . S
C748 C746 1.391 . S
C748 C749 1.400 . S
C749 C743 1.491 . S
C749 C748 1.400 . S
C749 C750 1.398 . S
C750 H738 0.950 . S
C750 C749 1.398 . S
C750 C751 1.391 . S
C751 H739 0.950 . S
C751 C747 1.393 . S
C751 C750 1.391 . S
H752 C760 0.950 . S
H753 C765 0.950 . S
H754 C762 0.950 . S
H755 C764 0.950 . S
H756 C766 0.950 . S
H757 C768 0.950 . S
H758 C770 0.950 . S
H759 C771 0.950 . S
C760 H752 0.950 . S
C760 C761 1.386 1_655 S
C760 C762 1.391 . S
C761 C760 1.386 1_455 S
C761 C765 1.393 . S
C762 H754 0.950 . S
C762 C760 1.391 . S
C762 C763 1.400 1_655 S
C763 C762 1.400 1_455 S
C763 C764 1.398 . S
C763 C769 1.491 1_455 S
C764 H755 0.950 . S
C764 C763 1.398 . S
C764 C765 1.391 . S
C765 H753 0.950 . S
C765 C761 1.393 . S
C765 C764 1.391 . S
C766 H756 0.950 . S
C766 C767 1.386 1_455 S
C766 C768 1.391 . S
C767 C766 1.386 1_655 S
C767 C771 1.393 . S
C768 H757 0.950 . S
C768 C766 1.391 . S
C768 C769 1.400 1_455 S
C769 C763 1.491 1_655 S
C769 C768 1.400 1_655 S
C769 C770 1.398 . S
C770 H758 0.950 . S
C770 C769 1.398 . S
C770 C771 1.391 . S
C771 H759 0.950 . S
C771 C767 1.393 . S
C771 C770 1.391 . S
H772 C780 0.950 . S
H773 C785 0.950 . S
H774 C782 0.950 . S
H775 C784 0.950 . S
H776 C786 0.950 . S
H777 C788 0.950 . S
H778 C790 0.950 . S
H779 C791 0.950 . S
C780 H772 0.950 . S
C780 C781 1.386 . S
C780 C782 1.391 . S
C781 C780 1.386 . S
C781 C785 1.393 . S
C782 H774 0.950 . S
C782 C780 1.391 . S
C782 C783 1.400 . S
C783 C782 1.400 . S
C783 C784 1.398 . S
C783 C789 1.491 . S
C784 H775 0.950 . S
C784 C783 1.398 . S
C784 C785 1.391 . S
C785 H773 0.950 . S
C785 C781 1.393 . S
C785 C784 1.391 . S
C786 H776 0.950 . S
C786 C787 1.386 . S
C786 C788 1.391 . S
C787 C786 1.386 . S
C787 C791 1.393 . S
C788 H777 0.950 . S
C788 C786 1.391 . S
C788 C789 1.400 . S
C789 C783 1.491 . S
C789 C788 1.400 . S
C789 C790 1.398 . S
C790 H778 0.950 . S
C790 C789 1.398 . S
C790 C791 1.391 . S
C791 H779 0.950 . S
C791 C787 1.393 . S
C791 C790 1.391 . S
H792 C800 0.950 . S
H793 C805 0.950 . S
H794 C802 0.950 . S
H795 C804 0.950 . S
H796 C806 0.950 . S
H797 C808 0.950 . S
H798 C810 0.950 . S
H799 C811 0.950 . S
C800 H792 0.950 . S
C800 C801 1.386 . S
C800 C802 1.391 . S
C801 C800 1.386 . S
C801 C805 1.393 . S
C802 H794 0.950 . S
C802 C800 1.391 . S
C802 C803 1.400 . S
C803 C802 1.400 . S
C803 C804 1.398 . S
C803 C809 1.491 . S
C804 H795 0.950 . S
C804 C803 1.398 . S
C804 C805 1.391 . S
C805 H793 0.950 . S
C805 C801 1.393 . S
C805 C804 1.391 . S
C806 H796 0.950 . S
C806 C807 1.386 . S
C806 C808 1.391 . S
C807 C806 1.386 . S
C807 C811 1.393 . S
C808 H797 0.950 . S
C808 C806 1.391 . S
C808 C809 1.400 . S
C809 C803 1.491 . S
C809 C808 1.400 . S
C809 C810 1.398 . S
C810 H798 0.950 . S
C810 C809 1.398 . S
C810 C811 1.391 . S
C811 H799 0.950 . S
C811 C807 1.393 . S
C811 C810 1.391 . S
H812 C820 0.950 . S
H813 C825 0.950 . S
H814 C822 0.950 . S
H815 C824 0.950 . S
H816 C826 0.950 . S
H817 C828 0.950 . S
H818 C830 0.950 . S
H819 C831 0.950 . S
C820 H812 0.950 . S
C820 C821 1.386 . S
C820 C822 1.391 . S
C821 C820 1.386 . S
C821 C825 1.393 . S
C822 H814 0.950 . S
C822 C820 1.391 . S
C822 C823 1.400 . S
C823 C822 1.400 . S
C823 C824 1.398 . S
C823 C829 1.491 1_655 S
C824 H815 0.950 . S
C824 C823 1.398 . S
C824 C825 1.391 . S
C825 H813 0.950 . S
C825 C821 1.393 . S
C825 C824 1.391 . S
C826 H816 0.950 . S
C826 C827 1.386 . S
C826 C828 1.391 . S
C827 C826 1.386 . S
C827 C831 1.393 . S
C828 H817 0.950 . S
C828 C826 1.391 . S
C828 C829 1.400 . S
C829 C823 1.491 1_455 S
C829 C828 1.400 . S
C829 C830 1.398 . S
C830 H818 0.950 . S
C830 C829 1.398 . S
C830 C831 1.391 . S
C831 H819 0.950 . S
C831 C827 1.393 . S
C831 C830 1.391 . S
C281 C187 1.548 1_655 S
C287 C17 1.548 . S
C301 C51 1.548 . S
C307 C221 1.548 . S
C321 C85 1.548 . S
C327 C255 1.548 . S
C341 C153 1.548 1_655 S
C347 C119 1.548 . S
C361 C139 1.903 . S
C367 C1 1.910 . S
C381 C35 1.901 . S
C387 C173 1.889 . S
C401 C71 1.907 . S
C407 C205 1.889 . S
C421 C105 1.891 . S
C427 C239 1.911 . S
C441 C103 1.899 . S
C447 C241 1.886 . S
C461 C37 1.910 . S
C467 C171 1.890 . S
C481 C69 1.892 . S
C487 C207 1.891 . S
C501 C3 1.906 . S
C507 C137 1.909 . S
C521 C15 1.168 . S
C527 C22 1.169 . S
C541 C49 1.116 . S
C547 C56 1.116 . S
C561 C83 1.137 . S
C567 C90 1.139 . S
C581 C124 1.115 . S
C587 C117 1.115 . S
C601 C158 1.143 . S
C607 C151 1.145 . S
C621 C192 1.116 . S
C627 C185 1.117 . S
C641 C219 1.122 . S
C647 C226 1.121 . S
C661 C260 1.159 . S
C667 C253 1.161 . S
C681 C6 1.909 . S
C687 C28 1.905 1_545 S
C701 C40 1.909 . S
C707 C62 1.905 . S
C721 C96 1.910 . S
C727 C74 1.906 1_565 S
C741 C130 1.905 . S
C747 C108 1.903 . S
C761 C142 1.907 1_565 S
C767 C164 1.903 . S
C781 C176 1.904 . S
C787 C198 1.908 . S
C801 C210 1.903 . S
C807 C232 1.906 1_545 S
C821 C244 1.907 . S
C827 C266 1.910 . S
