# Generated by pormake.
# Topology bcg, (8)-cn, num edge types: 1
# Building blocks:
#     Node 0, Type 0, BuildingBlock: HISSIN_clean_sbu_1, # of connection points: 8
#     Node 1, Type 0, BuildingBlock: HISSIN_clean_sbu_1, # of connection points: 8
#     Node 2, Type 0, BuildingBlock: HISSIN_clean_sbu_1, # of connection points: 8
#     Node 3, Type 0, BuildingBlock: HISSIN_clean_sbu_1, # of connection points: 8
#     Edge 4, Type (0, 0), BuildingBlock: KIFKEQ_clean_linker_1, # of connection points: 2
#     Edge 5, Type (0, 0), BuildingBlock: KIFKEQ_clean_linker_1, # of connection points: 2
#     Edge 6, Type (0, 0), BuildingBlock: KIFKEQ_clean_linker_1, # of connection points: 2
#     Edge 7, Type (0, 0), BuildingBlock: KIFKEQ_clean_linker_1, # of connection points: 2
#     Edge 8, Type (0, 0), BuildingBlock: KIFKEQ_clean_linker_1, # of connection points: 2
#     Edge 9, Type (0, 0), BuildingBlock: KIFKEQ_clean_linker_1, # of connection points: 2
#     Edge 10, Type (0, 0), BuildingBlock: KIFKEQ_clean_linker_1, # of connection points: 2
#     Edge 11, Type (0, 0), BuildingBlock: KIFKEQ_clean_linker_1, # of connection points: 2
#     Edge 12, Type (0, 0), BuildingBlock: KIFKEQ_clean_linker_1, # of connection points: 2
#     Edge 13, Type (0, 0), BuildingBlock: KIFKEQ_clean_linker_1, # of connection points: 2
#     Edge 14, Type (0, 0), BuildingBlock: KIFKEQ_clean_linker_1, # of connection points: 2
#     Edge 15, Type (0, 0), BuildingBlock: KIFKEQ_clean_linker_1, # of connection points: 2
#     Edge 16, Type (0, 0), BuildingBlock: KIFKEQ_clean_linker_1, # of connection points: 2
#     Edge 17, Type (0, 0), BuildingBlock: KIFKEQ_clean_linker_1, # of connection points: 2
#     Edge 18, Type (0, 0), BuildingBlock: KIFKEQ_clean_linker_1, # of connection points: 2
#     Edge 19, Type (0, 0), BuildingBlock: KIFKEQ_clean_linker_1, # of connection points: 2
# Relax obj value: 0.166
# Max RMSD: 0.234
# Mean RMSD: 0.234
data_MOF--net-bcg--node1-HISSIN_clean_sbu_1--edge1-KIFKEQ_clean_linker_1
_symmetry_space_group_name_H-M    P1
_symmetry_Int_Tables_number       1
_symmetry_cell_setting            triclinic
loop_
_symmetry_equiv_pos_as_xyz
'x, y, z'
_cell_length_a     22.34416
_cell_length_b     17.796952
_cell_length_c     33.970194
_cell_angle_alpha  80.140913
_cell_angle_beta   90.00841
_cell_angle_gamma 89.994143
loop_
_atom_site_label
_atom_site_type_symbol
_atom_site_fract_x
_atom_site_fract_y
_atom_site_fract_z
_atom_type_partial_charge
Eu0 Eu 0.35712 0.16142 0.02245 0.0
C1 C 0.32363 0.33837 0.99632 0.0
O2 O 0.41055 0.14626 0.07977 0.0
C3 C 0.07181 0.35307 0.05966 0.0
C4 C 0.95826 0.3868 0.08623 0.0
C5 C 0.0216 0.34899 0.03525 0.0
C6 C 0.96461 0.36622 0.04852 0.0
C7 C 0.06485 0.37403 0.09749 0.0
C8 C 1.00779 0.39089 0.11112 0.0
Eu9 Eu 0.18757 0.31231 0.98252 0.0
O10 O 0.27131 0.09401 0.02444 0.0
O11 O 0.13096 0.32673 0.9268 0.0
O12 O 0.27713 0.37298 0.97711 0.0
O13 O 0.24075 0.20366 0.98879 0.0
C14 C 0.13502 0.38745 0.89877 0.0
O15 O 0.17033 0.44366 0.90445 0.0
O16 O 0.13806 0.26652 0.03632 0.0
C17 C 0.13168 0.33431 0.04643 0.0
C18 C 0.38419 0.11251 0.11274 0.0
O19 O 0.32922 0.08747 0.11026 0.0
O20 O 0.15951 0.38905 0.02232 0.0
O21 O 0.31362 0.27649 0.02281 0.0
C22 C 0.41669 0.15283 0.95765 0.0
O23 O 0.38063 0.20932 0.96132 0.0
C24 C 0.47412 0.17522 0.93836 0.0
C25 C 0.58005 0.22686 0.89928 0.0
C26 C 0.5199 0.20492 0.95941 0.0
C27 C 0.57261 0.23177 0.93963 0.0
C28 C 0.4818 0.17075 0.89771 0.0
C29 C 0.53509 0.19646 0.87783 0.0
C30 C 0.22669 0.13521 0.0073 0.0
O31 O 0.41755 0.09884 0.9894 0.0
H32 H 0.91361 0.39549 0.09711 0.0
H33 H 0.02681 0.33192 0.00629 0.0
H34 H 0.10373 0.37664 0.1163 0.0
H35 H 0.62237 0.24454 0.88501 0.0
H36 H 0.51424 0.208 0.99078 0.0
H37 H 0.44598 0.14836 0.88156 0.0
Eu38 Eu 0.81932 0.7022 0.02067 0.0
C39 C 0.82594 0.87881 0.00416 0.0
O40 O 0.86526 0.66704 0.07976 0.0
C41 C 0.5735 0.84665 0.05577 0.0
C42 C 0.46267 0.83524 0.09506 0.0
C43 C 0.52013 0.84004 0.03415 0.0
C44 C 0.4642 0.83556 0.05379 0.0
C45 C 0.57036 0.84736 0.09713 0.0
C46 C 0.51505 0.84075 0.11699 0.0
Eu47 Eu 0.69888 0.83203 0.97687 0.0
O48 O 0.73142 0.63997 0.02127 0.0
O49 O 0.65166 0.87212 0.91853 0.0
O50 O 0.78902 0.89059 0.97367 0.0
O51 O 0.69105 0.7115 0.96442 0.0
C52 C 0.67849 0.91747 0.88925 0.0
O53 O 0.7324 0.94279 0.89519 0.0
O54 O 0.66993 0.80052 0.03909 0.0
C55 C 0.6327 0.85871 0.03596 0.0
C56 C 0.83469 0.66969 0.11248 0.0
O57 O 0.77772 0.68809 0.10933 0.0
O58 O 0.63461 0.90359 0.00094 0.0
O59 O 0.81692 0.82148 0.03317 0.0
C60 C 0.88997 0.68351 0.9623 0.0
O61 O 0.84985 0.73846 0.95919 0.0
C62 C 0.94954 0.7021 0.94418 0.0
C63 C 0.06261 0.7265 0.90848 0.0
C64 C 0.9987 0.72148 0.96661 0.0
C65 C 0.05544 0.73361 0.9486 0.0
C66 C 0.95774 0.69554 0.9038 0.0
C67 C 1.01424 0.70787 0.8856 0.0
C68 C 0.69366 0.64834 0.99106 0.0
O69 O 0.88847 0.63694 0.99683 0.0
H70 H 0.41991 0.8308 0.11041 0.0
H71 H 0.52198 0.8405 0.00223 0.0
H72 H 0.61098 0.85291 0.11388 0.0
H73 H 0.10689 0.73396 0.89531 0.0
H74 H 0.99317 0.72552 0.99786 0.0
H75 H 0.92005 0.68048 0.88661 0.0
Eu76 Eu 0.35745 0.81733 0.48626 0.0
C77 C 0.31896 0.6384 0.50948 0.0
O78 O 0.40821 0.84272 0.42812 0.0
C79 C 0.06926 0.67038 0.44147 0.0
C80 C 0.95907 0.70178 0.40328 0.0
C81 C 0.0237 0.70579 0.46016 0.0
C82 C 0.96879 0.72237 0.44068 0.0
C83 C 0.0594 0.65085 0.40358 0.0
C84 C 1.00385 0.66565 0.38464 0.0
Eu85 Eu 0.18703 0.6629 0.52537 0.0
O86 O 0.26719 0.87597 0.48336 0.0
O87 O 0.13294 0.64914 0.58216 0.0
O88 O 0.27374 0.59733 0.52603 0.0
O89 O 0.23397 0.77491 0.52724 0.0
C90 C 0.16321 0.63488 0.61579 0.0
O91 O 0.22149 0.6262 0.61378 0.0
O92 O 0.15702 0.71763 0.46676 0.0
C93 C 0.12835 0.65679 0.46001 0.0
C94 C 0.37628 0.85732 0.3952 0.0
O95 O 0.3177 0.85918 0.39847 0.0
O96 O 0.13389 0.59791 0.48907 0.0
O97 O 0.30566 0.70732 0.49109 0.0
C98 C 0.4163 0.83924 0.54916 0.0
O99 O 0.41163 0.77209 0.5381 0.0
C100 C 0.4766 0.86182 0.55973 0.0
C101 C 0.59095 0.90581 0.58006 0.0
C102 C 0.52398 0.86264 0.53259 0.0
C103 C 0.58152 0.88388 0.54288 0.0
C104 C 0.48732 0.87974 0.59787 0.0
C105 C 0.54511 0.90042 0.60869 0.0
C106 C 0.22218 0.83868 0.50284 0.0
O107 O 0.38445 0.89274 0.52704 0.0
H108 H 0.9162 0.71409 0.38855 0.0
H109 H 0.03126 0.72145 0.48924 0.0
H110 H 0.09467 0.62403 0.38897 0.0
H111 H 0.63554 0.92258 0.5876 0.0
H112 H 0.51635 0.84531 0.5039 0.0
H113 H 0.45112 0.87471 0.61938 0.0
Eu114 Eu 0.84117 0.32792 0.47907 0.0
C115 C 0.8497 0.1464 0.49214 0.0
O116 O 0.88353 0.37063 0.41959 0.0
C117 C 0.59186 0.18773 0.44191 0.0
C118 C 0.47739 0.1857 0.40796 0.0
C119 C 0.54111 0.20713 0.46295 0.0
C120 C 0.48349 0.20603 0.44589 0.0
C121 C 0.58459 0.16995 0.40337 0.0
C122 C 0.52743 0.16813 0.38644 0.0
Eu123 Eu 0.72076 0.19505 0.51995 0.0
O124 O 0.75077 0.38476 0.47735 0.0
O125 O 0.67366 0.15424 0.57822 0.0
O126 O 0.80965 0.13406 0.52097 0.0
O127 O 0.71895 0.31275 0.53562 0.0
C128 C 0.70497 0.14627 0.61137 0.0
O129 O 0.76318 0.15659 0.60877 0.0
O130 O 0.68788 0.23559 0.45914 0.0
C131 C 0.65191 0.1765 0.46053 0.0
C132 C 0.8506 0.37604 0.38726 0.0
O133 O 0.79319 0.36037 0.39105 0.0
O134 O 0.65575 0.12744 0.49406 0.0
O135 O 0.84962 0.20921 0.46543 0.0
C136 C 0.91076 0.35675 0.53603 0.0
O137 O 0.87266 0.2993 0.54085 0.0
C138 C 0.96995 0.34574 0.55598 0.0
C139 C 0.07999 0.3337 0.59644 0.0
C140 C 0.02338 0.33426 0.53537 0.0
C141 C 0.07918 0.3293 0.55551 0.0
C142 C 0.97282 0.35247 0.59657 0.0
C143 C 0.02758 0.34603 0.61695 0.0
C144 C 0.71419 0.37377 0.50807 0.0
O145 O 0.90848 0.39934 0.50038 0.0
H146 H 0.43323 0.18464 0.39477 0.0
H147 H 0.54617 0.22041 0.49274 0.0
H148 H 0.62322 0.15442 0.38717 0.0
H149 H 0.12198 0.328 0.6127 0.0
H150 H 0.02164 0.3311 0.50382 0.0
H151 H 0.93225 0.36255 0.61242 0.0
H152 H 0.6361 0.1561 0.002 0.0
H153 H 0.62239 0.37248 0.92283 0.0
H154 H 0.73273 0.19459 0.02612 0.0
H155 H 0.71892 0.41138 0.94678 0.0
H156 H 0.87307 0.46695 0.03027 0.0
H157 H 0.77356 0.4397 0.00638 0.0
H158 H 0.83289 0.21446 0.99264 0.0
H159 H 0.9321 0.24149 0.01717 0.0
C160 C 0.6532 0.21264 0.99066 0.0
C161 C 0.62246 0.26145 0.96067 0.0
C162 C 0.70869 0.23424 0.0039 0.0
C163 C 0.73384 0.30518 0.98755 0.0
C164 C 0.70079 0.35619 0.95966 0.0
C165 C 0.64565 0.33419 0.9461 0.0
C166 C 0.86496 0.41221 0.02137 0.0
C167 C 0.90992 0.35612 0.02563 0.0
C168 C 0.80813 0.3966 0.00782 0.0
C169 C 0.79529 0.32445 0.99852 0.0
C170 C 0.84132 0.26998 0.00052 0.0
C171 C 0.89829 0.28579 0.01386 0.0
H172 H 0.13889 0.63337 0.98331 0.0
H173 H 0.09563 0.87273 0.95999 0.0
H174 H 0.23858 0.66269 0.00616 0.0
H175 H 0.19586 0.90323 0.98173 0.0
H176 H 0.3644 0.92174 0.05786 0.0
H177 H 0.26372 0.89831 0.03549 0.0
H178 H 0.33131 0.71474 0.97954 0.0
H179 H 0.43211 0.73688 0.00348 0.0
C180 C 0.1505 0.69223 0.98404 0.0
C181 C 0.10941 0.7507 0.97077 0.0
C182 C 0.208 0.70933 0.99633 0.0
C183 C 0.22608 0.78552 0.9952 0.0
C184 C 0.18377 0.84388 0.98328 0.0
C185 C 0.12613 0.82659 0.97108 0.0
C186 C 0.35781 0.87689 0.04036 0.0
C187 C 0.40615 0.83069 0.03271 0.0
C188 C 0.29997 0.86356 0.02738 0.0
C189 C 0.28874 0.80368 0.00622 0.0
C190 C 0.33783 0.76017 0.99662 0.0
C191 C 0.39588 0.77357 0.00969 0.0
H192 H 0.60996 0.75581 0.51368 0.0
H193 H 0.67335 0.98258 0.51979 0.0
H194 H 0.70776 0.72349 0.48923 0.0
H195 H 0.77089 0.95085 0.49449 0.0
H196 H 0.92121 0.86239 0.41542 0.0
H197 H 0.82487 0.90934 0.43587 0.0
H198 H 0.80762 0.70723 0.52587 0.0
H199 H 0.90403 0.66094 0.50543 0.0
C200 C 0.6442 0.79951 0.5085 0.0
C201 C 0.63426 0.87177 0.51853 0.0
C202 C 0.70037 0.78069 0.49515 0.0
C203 C 0.74723 0.83413 0.49112 0.0
C204 C 0.7358 0.90836 0.49791 0.0
C205 C 0.67992 0.92677 0.51194 0.0
C206 C 0.89728 0.82934 0.44026 0.0
C207 C 0.91948 0.75846 0.45909 0.0
C208 C 0.84226 0.85582 0.45176 0.0
C209 C 0.80837 0.81095 0.48175 0.0
C210 C 0.83243 0.74207 0.50207 0.0
C211 C 0.88777 0.71614 0.4909 0.0
H212 H 0.10509 0.23692 0.50022 0.0
H213 H 0.18599 0.39977 0.56466 0.0
H214 H 0.20325 0.21046 0.47408 0.0
H215 H 0.28403 0.36982 0.54114 0.0
H216 H 0.45224 0.34142 0.4683 0.0
H217 H 0.35398 0.37712 0.49088 0.0
H218 H 0.29177 0.14622 0.49284 0.0
H219 H 0.38898 0.11273 0.46835 0.0
C220 C 0.14368 0.26744 0.50863 0.0
C221 C 0.13745 0.31953 0.53511 0.0
C222 C 0.2004 0.25134 0.49421 0.0
C223 C 0.25257 0.28654 0.50606 0.0
C224 C 0.24561 0.34131 0.53107 0.0
C225 C 0.18904 0.35791 0.54505 0.0
C226 C 0.41766 0.29829 0.47427 0.0
C227 C 0.42825 0.22427 0.46681 0.0
C228 C 0.36105 0.31859 0.48713 0.0
C229 C 0.31382 0.26499 0.49331 0.0
C230 C 0.32584 0.18999 0.48738 0.0
C231 C 0.38199 0.1702 0.47399 0.0
H232 H 0.65659 0.53231 0.04943 0.0
H233 H 0.63399 0.62462 0.92423 0.0
H234 H 0.57367 0.44507 0.04584 0.0
H235 H 0.55296 0.53501 0.92004 0.0
H236 H 0.35618 0.46868 0.94668 0.0
H237 H 0.45314 0.53049 0.94154 0.0
H238 H 0.52753 0.34057 0.02342 0.0
H239 H 0.42912 0.28045 0.03002 0.0
C240 C 0.63486 0.53263 0.02089 0.0
C241 C 0.65081 0.58658 0.98737 0.0
C242 C 0.58745 0.48217 0.01871 0.0
C243 C 0.55556 0.48396 0.98279 0.0
C244 C 0.57512 0.53367 0.9485 0.0
C245 C 0.62181 0.58484 0.95084 0.0
C246 C 0.39332 0.43954 0.96322 0.0
C247 C 0.38473 0.36991 0.98903 0.0
C248 C 0.44934 0.47474 0.96001 0.0
C249 C 0.49847 0.44084 0.98223 0.0
C250 C 0.49053 0.36912 0.00647 0.0
C251 C 0.43417 0.33431 0.01004 0.0
H252 H 0.6483 0.38768 0.5737 0.0
H253 H 0.66502 0.47659 0.44763 0.0
H254 H 0.55697 0.46086 0.57639 0.0
H255 H 0.57216 0.54782 0.44991 0.0
H256 H 0.41873 0.70202 0.47071 0.0
H257 H 0.51955 0.6489 0.47321 0.0
H258 H 0.45723 0.44966 0.55391 0.0
H259 H 0.3578 0.50497 0.55321 0.0
C260 C 0.63259 0.4233 0.54657 0.0
C261 C 0.66347 0.42592 0.51036 0.0
C262 C 0.58001 0.46486 0.54806 0.0
C263 C 0.55661 0.50922 0.51325 0.0
C264 C 0.5891 0.5147 0.47737 0.0
C265 C 0.64224 0.4737 0.47599 0.0
C266 C 0.42706 0.64783 0.48973 0.0
C267 C 0.38069 0.60851 0.51242 0.0
C268 C 0.48464 0.61688 0.49077 0.0
C269 C 0.49668 0.54514 0.51392 0.0
C270 C 0.45006 0.50587 0.53653 0.0
C271 C 0.39283 0.53732 0.5359 0.0
H272 H 0.17856 0.02531 0.06393 0.0
H273 H 0.13626 0.17857 0.95488 0.0
H274 H 0.07909 0.96965 0.06434 0.0
H275 H 0.03762 0.12067 0.95376 0.0
H276 H 0.84673 0.03073 0.97666 0.0
H277 H 0.94112 0.0995 0.98013 0.0
H278 H 0.0274 0.88734 0.03135 0.0
H279 H 0.93285 0.82123 0.03052 0.0
C280 C 0.14771 0.04722 0.0401 0.0
C281 C 0.16477 0.10647 0.00952 0.0
C282 C 0.09083 1.01485 0.04001 0.0
C283 C 0.05023 0.03961 0.00869 0.0
C284 C 0.06707 0.10055 0.97864 0.0
C285 C 0.12366 0.13385 0.97921 0.0
C286 C 0.88611 0.99945 0.98873 0.0
C287 C 0.88263 0.9211 0.00371 0.0
C288 C 0.94026 0.03853 0.99059 0.0
C289 C 0.99209 0.99936 0.00656 0.0
C290 C 0.98835 0.92029 0.02021 0.0
C291 C 0.93419 0.88201 0.01934 0.0
H292 H 0.95279 0.1699 0.44997 0.0
H293 H 0.85517 0.99571 0.52855 0.0
H294 H 0.03523 0.08352 0.44851 0.0
H295 H 0.93675 0.90573 0.52463 0.0
H296 H 0.12989 0.81675 0.5555 0.0
H297 H 0.0329 0.87973 0.54897 0.0
H298 H 0.07623 0.98002 0.42707 0.0
H299 H 0.17499 0.92155 0.43513 0.0
C300 C 0.94822 0.1122 0.46615 0.0
C301 C 0.89722 0.08971 0.48932 0.0
C302 C 0.99557 0.06192 0.46494 0.0
C303 C 0.993 0.98684 0.48617 0.0
C304 C 0.94092 0.96334 0.50834 0.0
C305 C 0.89383 1.01463 0.51032 0.0
C306 C 0.1182 0.85173 0.52722 0.0
C307 C 0.16023 0.86611 0.49616 0.0
C308 C 0.06228 0.88744 0.52327 0.0
C309 C 0.04689 0.93691 0.48779 0.0
C310 C 0.08724 0.94499 0.45543 0.0
C311 C 0.14375 0.91116 0.45985 0.0
H312 H 0.57065 0.24067 0.31481 0.0
H313 H 0.46325 0.04899 0.36821 0.0
H314 H 0.54249 0.21814 0.24831 0.0
H315 H 0.43727 0.02341 0.30214 0.0
H316 H 0.33299 0.06774 0.18567 0.0
H317 H 0.3749 0.07207 0.25078 0.0
H318 H 0.5439 0.14858 0.19596 0.0
H319 H 0.50022 0.14769 0.13005 0.0
C320 C 0.5423 0.19241 0.31216 0.0
C321 C 0.51868 0.14697 0.34646 0.0
C322 C 0.52625 0.17907 0.27404 0.0
C323 C 0.48681 0.11926 0.26945 0.0
C324 C 0.46641 0.07109 0.30416 0.0
C325 C 0.48163 0.08526 0.34213 0.0
C326 C 0.37926 0.08504 0.18737 0.0
C327 C 0.41296 0.10827 0.1525 0.0
C328 C 0.40373 0.08688 0.22502 0.0
C329 C 0.46308 0.11103 0.22912 0.0
C330 C 0.49769 0.13124 0.19418 0.0
C331 C 0.47281 0.13026 0.15631 0.0
H332 H 0.55897 0.94489 0.16094 0.0
H333 H 0.45747 0.73611 0.171 0.0
H334 H 0.53267 0.95411 0.23046 0.0
H335 H 0.43083 0.74595 0.23956 0.0
H336 H 0.3192 0.866 0.32395 0.0
H337 H 0.36297 0.86346 0.25867 0.0
H338 H 0.5401 0.86131 0.30925 0.0
H339 H 0.49622 0.86288 0.3756 0.0
C340 C 0.53252 0.90008 0.17833 0.0
C341 C 0.50989 0.84 0.16062 0.0
C342 C 0.51736 0.90552 0.21789 0.0
C343 C 0.47928 0.85111 0.23997 0.0
C344 C 0.45976 0.78896 0.22294 0.0
C345 C 0.47505 0.78331 0.1838 0.0
C346 C 0.36751 0.86566 0.32138 0.0
C347 C 0.40419 0.86368 0.35516 0.0
C348 C 0.39248 0.86409 0.28394 0.0
C349 C 0.45474 0.86139 0.27917 0.0
C350 C 0.49191 0.86321 0.31234 0.0
C351 C 0.46678 0.86382 0.3502 0.0
H352 H 0.4754 0.9605 0.66323 0.0
H353 H 0.64824 0.85784 0.65003 0.0
H354 H 0.50184 0.97252 0.73185 0.0
H355 H 0.67555 0.87569 0.71657 0.0
H356 H 0.73036 0.98726 0.81975 0.0
H357 H 0.69345 0.99025 0.75199 0.0
H358 H 0.53004 0.88029 0.79866 0.0
H359 H 0.56698 0.87651 0.8668 0.0
C360 C 0.51898 0.94106 0.67462 0.0
C361 C 0.55998 0.90968 0.65045 0.0
C362 C 0.53425 0.94856 0.71382 0.0
C363 C 0.59134 0.9268 0.7291 0.0
C364 C 0.63188 0.89499 0.70517 0.0
C365 C 0.61618 0.88547 0.66671 0.0
C366 C 0.68618 0.96472 0.81572 0.0
C367 C 0.65204 0.93047 0.84868 0.0
C368 C 0.66517 0.96628 0.77689 0.0
C369 C 0.60927 0.93463 0.77018 0.0
C370 C 0.57332 0.90498 0.80306 0.0
C371 C 0.59461 0.90267 0.84201 0.0
H372 H 0.59139 0.29918 0.82077 0.0
H373 H 0.50353 0.07948 0.83813 0.0
H374 H 0.62784 0.27814 0.7561 0.0
H375 H 0.53647 0.06198 0.77158 0.0
H376 H 0.58569 0.11994 0.62888 0.0
H377 H 0.53503 0.12972 0.69202 0.0
H378 H 0.70522 0.16855 0.745 0.0
H379 H 0.75582 0.1583 0.68276 0.0
C380 C 0.57928 0.24668 0.81069 0.0
C381 C 0.54609 0.18993 0.83531 0.0
C382 C 0.59991 0.23498 0.77353 0.0
C383 C 0.58647 0.16728 0.75952 0.0
C384 C 0.54855 0.11368 0.78219 0.0
C385 C 0.52913 0.12432 0.82008 0.0
C386 C 0.6123 0.12951 0.65421 0.0
C387 C 0.6747 0.13965 0.65061 0.0
C388 C 0.58329 0.13499 0.69024 0.0
C389 C 0.61624 0.15144 0.72291 0.0
C390 C 0.67876 0.15729 0.71991 0.0
C391 C 0.70772 0.15093 0.6843 0.0
H392 H 0.06093 0.71795 0.3144 0.0
H393 H 0.91674 0.57236 0.36569 0.0
H394 H 0.02425 0.71039 0.24731 0.0
H395 H 0.88082 0.56264 0.29908 0.0
H396 H 0.7817 0.65845 0.18531 0.0
H397 H 0.82945 0.64667 0.2501 0.0
H398 H 1.00308 0.64166 0.19439 0.0
H399 H 0.95482 0.65597 0.12895 0.0
C400 C 0.02262 0.68221 0.31114 0.0
C401 C 0.9913 0.64616 0.34493 0.0
C402 C 1.00147 0.67784 0.27278 0.0
C403 C 0.94881 0.63701 0.26771 0.0
C404 C 0.92054 0.59616 0.30178 0.0
C405 C 0.94136 0.60102 0.33995 0.0
C406 C 0.83005 0.65452 0.18681 0.0
C407 C 0.8644 0.65794 0.15198 0.0
C408 C 0.85757 0.64704 0.22412 0.0
C409 C 0.92028 0.64243 0.2277 0.0
C410 C 0.95478 0.64579 0.19277 0.0
C411 C 0.92709 0.65333 0.15529 0.0
H412 H 0.96976 0.39435 0.36883 0.0
H413 H 0.79448 0.39251 0.31516 0.0
H414 H 1.01554 0.41021 0.3025 0.0
H415 H 0.84003 0.40713 0.24941 0.0
H416 H 0.92965 0.49313 0.13412 0.0
H417 H 0.89458 0.49679 0.20133 0.0
H418 H 0.02836 0.33117 0.24912 0.0
H419 H 0.06123 0.32338 0.18133 0.0
C420 C 0.941 0.39777 0.34292 0.0
C421 C 0.87847 0.39185 0.34724 0.0
C422 C 0.96728 0.4064 0.30501 0.0
C423 C 0.93147 0.40976 0.27075 0.0
C424 C 0.86891 0.40574 0.27514 0.0
C425 C 0.84275 0.39689 0.3129 0.0
C426 C 0.95203 0.45776 0.1589 0.0
C427 C 0.99745 0.40671 0.15219 0.0
C428 C 0.93212 0.46036 0.19747 0.0
C429 C 0.95853 0.41429 0.23052 0.0
C430 C 1.00738 0.3679 0.22423 0.0
C431 C 0.02645 0.36374 0.18536 0.0
H432 H 0.13736 0.50034 0.83255 0.0
H433 H 0.06759 0.27467 0.87564 0.0
H434 H 0.10194 0.49187 0.76536 0.0
H435 H 0.0316 0.26713 0.80873 0.0
H436 H 0.07146 0.24119 0.67732 0.0
H437 H 0.08769 0.25519 0.74674 0.0
H438 H 1.01054 0.48096 0.72236 0.0
H439 H 0.99411 0.4664 0.65249 0.0
C440 C 0.11364 0.44951 0.8279 0.0
C441 C 0.10615 0.38768 0.8594 0.0
C442 C 0.093 0.44496 0.78943 0.0
C443 C 0.06447 0.3786 0.7817 0.0
C444 C 0.05421 0.31857 0.81365 0.0
C445 C 0.07467 0.3231 0.85204 0.0
C446 C 0.05721 0.29329 0.68701 0.0
C447 C 0.03126 0.35248 0.65979 0.0
C448 C 0.06621 0.30128 0.72675 0.0
C449 C 0.05019 0.3691 0.74008 0.0
C450 C 0.02344 0.42815 0.71291 0.0
C451 C 1.0136 0.41964 0.67313 0.0
H452 H 0.21903 0.63689 0.6866 0.0
H453 H 0.0429 0.63835 0.63381 0.0
H454 H 0.17461 0.65374 0.74981 0.0
H455 H 0.99826 0.65414 0.69817 0.0
H456 H 0.97058 0.59746 0.84519 0.0
H457 H 0.99935 0.57611 0.77814 0.0
H458 H 0.11161 0.77601 0.76417 0.0
H459 H 0.08154 0.79926 0.82991 0.0
C460 C 0.17074 0.63993 0.68853 0.0
C461 C 0.13456 0.63722 0.65495 0.0
C462 C 0.14539 0.64986 0.72477 0.0
C463 C 0.08319 0.65621 0.72861 0.0
C464 C 0.04642 0.64969 0.6958 0.0
C465 C 0.07197 0.64088 0.65907 0.0
C466 C 1.00016 0.63791 0.82737 0.0
C467 C 0.02448 0.69947 0.84319 0.0
C468 C 1.01672 0.62546 0.78913 0.0
C469 C 0.0583 0.67386 0.76641 0.0
C470 C 0.08013 0.73726 0.78139 0.0
C471 C 0.06309 0.75028 0.81912 0.0
loop_
_geom_bond_atom_site_label_1
_geom_bond_atom_site_label_2
_geom_bond_distance
_geom_bond_site_symmetry_2
_ccdc_geom_bond_type
Eu0 O2 2.323 . S
Eu0 O10 2.328 . S
Eu0 O21 2.316 . S
Eu0 C22 2.837 1_554 S
Eu0 O23 2.488 1_554 S
Eu0 O31 2.461 . S
C1 O12 1.251 1_554 S
C1 O21 1.237 . S
O2 Eu0 2.323 . S
O2 C18 1.279 . S
C3 C5 1.383 . S
C3 C7 1.388 . S
C3 C17 1.491 . S
C4 C6 1.403 . S
C4 C8 1.385 1_655 S
C4 H32 0.931 . S
C5 C3 1.383 . S
C5 C6 1.393 1_455 S
C5 H33 0.930 1_455 S
C6 C4 1.403 . S
C6 C5 1.393 1_655 S
C7 C3 1.388 . S
C7 C8 1.394 . S
C7 H34 0.930 . S
C8 C4 1.385 1_455 S
C8 C7 1.394 . S
Eu9 O11 2.323 . S
Eu9 O12 2.328 . S
Eu9 O13 2.316 . S
Eu9 O16 2.488 1_556 S
Eu9 C17 2.837 1_556 S
Eu9 O20 2.461 . S
O10 Eu0 2.328 . S
O10 C30 1.251 1_554 S
O11 Eu9 2.323 . S
O11 C14 1.279 . S
O12 C1 1.251 1_556 S
O12 Eu9 2.328 . S
O13 Eu9 2.316 . S
O13 C30 1.237 . S
C14 O11 1.279 . S
C14 O15 1.244 . S
O15 C14 1.244 . S
O16 Eu9 2.488 1_554 S
O16 C17 1.271 . S
C17 C3 1.491 . S
C17 Eu9 2.837 1_554 S
C17 O16 1.271 . S
C17 O20 1.261 1_554 S
C18 O2 1.279 . S
C18 O19 1.244 . S
O19 C18 1.244 . S
O20 Eu9 2.461 . S
O20 C17 1.261 1_556 S
O21 Eu0 2.316 . S
O21 C1 1.237 . S
C22 Eu0 2.837 1_556 S
C22 O23 1.271 . S
C22 C24 1.491 . S
C22 O31 1.261 1_556 S
O23 Eu0 2.488 1_556 S
O23 C22 1.271 . S
C24 C22 1.491 . S
C24 C26 1.383 . S
C24 C28 1.388 . S
C25 C27 1.403 . S
C25 C29 1.385 . S
C25 H35 0.931 . S
C26 C24 1.383 . S
C26 C27 1.393 . S
C26 H36 0.930 . S
C27 C25 1.403 . S
C27 C26 1.393 . S
C28 C24 1.388 . S
C28 C29 1.394 . S
C28 H37 0.930 . S
C29 C25 1.385 . S
C29 C28 1.394 . S
C30 O10 1.251 1_556 S
C30 O13 1.237 . S
O31 Eu0 2.461 . S
O31 C22 1.261 1_554 S
H32 C4 0.931 . S
H33 C5 0.930 1_655 S
H34 C7 0.930 . S
H35 C25 0.931 . S
H36 C26 0.930 . S
H37 C28 0.930 . S
Eu38 O40 2.323 . S
Eu38 O48 2.328 . S
Eu38 O59 2.316 . S
Eu38 C60 2.837 1_554 S
Eu38 O61 2.488 1_554 S
Eu38 O69 2.461 . S
C39 O50 1.251 1_554 S
C39 O59 1.237 . S
O40 Eu38 2.323 . S
O40 C56 1.279 . S
C41 C43 1.383 . S
C41 C45 1.388 . S
C41 C55 1.491 . S
C42 C44 1.403 . S
C42 C46 1.385 . S
C42 H70 0.931 . S
C43 C41 1.383 . S
C43 C44 1.393 . S
C43 H71 0.930 . S
C44 C42 1.403 . S
C44 C43 1.393 . S
C45 C41 1.388 . S
C45 C46 1.394 . S
C45 H72 0.930 . S
C46 C42 1.385 . S
C46 C45 1.394 . S
Eu47 O49 2.323 . S
Eu47 O50 2.328 . S
Eu47 O51 2.316 . S
Eu47 O54 2.488 1_556 S
Eu47 C55 2.837 1_556 S
Eu47 O58 2.461 . S
O48 Eu38 2.328 . S
O48 C68 1.251 1_554 S
O49 Eu47 2.323 . S
O49 C52 1.279 . S
O50 C39 1.251 1_556 S
O50 Eu47 2.328 . S
O51 Eu47 2.316 . S
O51 C68 1.237 . S
C52 O49 1.279 . S
C52 O53 1.244 . S
O53 C52 1.244 . S
O54 Eu47 2.488 1_554 S
O54 C55 1.271 . S
C55 C41 1.491 . S
C55 Eu47 2.837 1_554 S
C55 O54 1.271 . S
C55 O58 1.261 1_554 S
C56 O40 1.279 . S
C56 O57 1.244 . S
O57 C56 1.244 . S
O58 Eu47 2.461 . S
O58 C55 1.261 1_556 S
O59 Eu38 2.316 . S
O59 C39 1.237 . S
C60 Eu38 2.837 1_556 S
C60 O61 1.271 . S
C60 C62 1.491 . S
C60 O69 1.261 1_556 S
O61 Eu38 2.488 1_556 S
O61 C60 1.271 . S
C62 C60 1.491 . S
C62 C64 1.383 . S
C62 C66 1.388 . S
C63 C65 1.403 . S
C63 C67 1.385 1_455 S
C63 H73 0.931 . S
C64 C62 1.383 . S
C64 C65 1.393 1_655 S
C64 H74 0.930 1_655 S
C65 C63 1.403 . S
C65 C64 1.393 1_455 S
C66 C62 1.388 . S
C66 C67 1.394 . S
C66 H75 0.930 . S
C67 C63 1.385 1_655 S
C67 C66 1.394 . S
C68 O48 1.251 1_556 S
C68 O51 1.237 . S
O69 Eu38 2.461 . S
O69 C60 1.261 1_554 S
H70 C42 0.931 . S
H71 C43 0.930 . S
H72 C45 0.930 . S
H73 C63 0.931 . S
H74 C64 0.930 1_455 S
H75 C66 0.930 . S
Eu76 O78 2.323 . S
Eu76 O86 2.328 . S
Eu76 O97 2.316 . S
Eu76 C98 2.837 . S
Eu76 O99 2.488 . S
Eu76 O107 2.461 . S
C77 O88 1.251 . S
C77 O97 1.237 . S
O78 Eu76 2.323 . S
O78 C94 1.279 . S
C79 C81 1.383 . S
C79 C83 1.388 . S
C79 C93 1.491 . S
C80 C82 1.403 . S
C80 C84 1.385 1_655 S
C80 H108 0.931 . S
C81 C79 1.383 . S
C81 C82 1.393 1_455 S
C81 H109 0.930 1_455 S
C82 C80 1.403 . S
C82 C81 1.393 1_655 S
C83 C79 1.388 . S
C83 C84 1.394 . S
C83 H110 0.930 . S
C84 C80 1.385 1_455 S
C84 C83 1.394 . S
Eu85 O87 2.323 . S
Eu85 O88 2.328 . S
Eu85 O89 2.316 . S
Eu85 O92 2.488 . S
Eu85 C93 2.837 . S
Eu85 O96 2.461 . S
O86 Eu76 2.328 . S
O86 C106 1.251 . S
O87 Eu85 2.323 . S
O87 C90 1.279 . S
O88 C77 1.251 . S
O88 Eu85 2.328 . S
O89 Eu85 2.316 . S
O89 C106 1.237 . S
C90 O87 1.279 . S
C90 O91 1.244 . S
O91 C90 1.244 . S
O92 Eu85 2.488 . S
O92 C93 1.271 . S
C93 C79 1.491 . S
C93 Eu85 2.837 . S
C93 O92 1.271 . S
C93 O96 1.261 . S
C94 O78 1.279 . S
C94 O95 1.244 . S
O95 C94 1.244 . S
O96 Eu85 2.461 . S
O96 C93 1.261 . S
O97 Eu76 2.316 . S
O97 C77 1.237 . S
C98 Eu76 2.837 . S
C98 O99 1.271 . S
C98 C100 1.491 . S
C98 O107 1.261 . S
O99 Eu76 2.488 . S
O99 C98 1.271 . S
C100 C98 1.491 . S
C100 C102 1.383 . S
C100 C104 1.388 . S
C101 C103 1.403 . S
C101 C105 1.385 . S
C101 H111 0.931 . S
C102 C100 1.383 . S
C102 C103 1.393 . S
C102 H112 0.930 . S
C103 C101 1.403 . S
C103 C102 1.393 . S
C104 C100 1.388 . S
C104 C105 1.394 . S
C104 H113 0.930 . S
C105 C101 1.385 . S
C105 C104 1.394 . S
C106 O86 1.251 . S
C106 O89 1.237 . S
O107 Eu76 2.461 . S
O107 C98 1.261 . S
H108 C80 0.931 . S
H109 C81 0.930 1_655 S
H110 C83 0.930 . S
H111 C101 0.931 . S
H112 C102 0.930 . S
H113 C104 0.930 . S
Eu114 O116 2.323 . S
Eu114 O124 2.328 . S
Eu114 O135 2.316 . S
Eu114 C136 2.837 . S
Eu114 O137 2.488 . S
Eu114 O145 2.461 . S
C115 O126 1.251 . S
C115 O135 1.237 . S
O116 Eu114 2.323 . S
O116 C132 1.279 . S
C117 C119 1.383 . S
C117 C121 1.388 . S
C117 C131 1.491 . S
C118 C120 1.403 . S
C118 C122 1.385 . S
C118 H146 0.931 . S
C119 C117 1.383 . S
C119 C120 1.393 . S
C119 H147 0.930 . S
C120 C118 1.403 . S
C120 C119 1.393 . S
C121 C117 1.388 . S
C121 C122 1.394 . S
C121 H148 0.930 . S
C122 C118 1.385 . S
C122 C121 1.394 . S
Eu123 O125 2.323 . S
Eu123 O126 2.328 . S
Eu123 O127 2.316 . S
Eu123 O130 2.488 . S
Eu123 C131 2.837 . S
Eu123 O134 2.461 . S
O124 Eu114 2.328 . S
O124 C144 1.251 . S
O125 Eu123 2.323 . S
O125 C128 1.279 . S
O126 C115 1.251 . S
O126 Eu123 2.328 . S
O127 Eu123 2.316 . S
O127 C144 1.237 . S
C128 O125 1.279 . S
C128 O129 1.244 . S
O129 C128 1.244 . S
O130 Eu123 2.488 . S
O130 C131 1.271 . S
C131 C117 1.491 . S
C131 Eu123 2.837 . S
C131 O130 1.271 . S
C131 O134 1.261 . S
C132 O116 1.279 . S
C132 O133 1.244 . S
O133 C132 1.244 . S
O134 Eu123 2.461 . S
O134 C131 1.261 . S
O135 Eu114 2.316 . S
O135 C115 1.237 . S
C136 Eu114 2.837 . S
C136 O137 1.271 . S
C136 C138 1.491 . S
C136 O145 1.261 . S
O137 Eu114 2.488 . S
O137 C136 1.271 . S
C138 C136 1.491 . S
C138 C140 1.383 . S
C138 C142 1.388 . S
C139 C141 1.403 . S
C139 C143 1.385 1_455 S
C139 H149 0.931 . S
C140 C138 1.383 . S
C140 C141 1.393 1_655 S
C140 H150 0.930 1_655 S
C141 C139 1.403 . S
C141 C140 1.393 1_455 S
C142 C138 1.388 . S
C142 C143 1.394 . S
C142 H151 0.930 . S
C143 C139 1.385 1_655 S
C143 C142 1.394 . S
C144 O124 1.251 . S
C144 O127 1.237 . S
O145 Eu114 2.461 . S
O145 C136 1.261 . S
H146 C118 0.931 . S
H147 C119 0.930 . S
H148 C121 0.930 . S
H149 C139 0.931 . S
H150 C140 0.930 1_455 S
H151 C142 0.930 . S
H152 C160 0.950 1_554 S
H153 C165 0.950 . S
H154 C162 0.950 . S
H155 C164 0.950 . S
H156 C166 0.950 1_556 S
H157 C168 0.950 . S
H158 C170 0.950 . S
H159 C171 0.950 . S
C160 H152 0.950 1_556 S
C160 C161 1.386 . S
C160 C162 1.391 1_556 S
C161 C160 1.386 . S
C161 C165 1.393 . S
C162 H154 0.950 . S
C162 C160 1.391 1_554 S
C162 C163 1.400 1_554 S
C163 C162 1.400 1_556 S
C163 C164 1.398 . S
C163 C169 1.491 1_556 S
C164 H155 0.950 . S
C164 C163 1.398 . S
C164 C165 1.391 . S
C165 H153 0.950 . S
C165 C161 1.393 . S
C165 C164 1.391 . S
C166 H156 0.950 1_554 S
C166 C167 1.386 . S
C166 C168 1.391 1_554 S
C167 C166 1.386 . S
C167 C171 1.393 . S
C168 H157 0.950 . S
C168 C166 1.391 1_556 S
C168 C169 1.400 1_556 S
C169 C163 1.491 1_554 S
C169 C168 1.400 1_554 S
C169 C170 1.398 . S
C170 H158 0.950 . S
C170 C169 1.398 . S
C170 C171 1.391 . S
C171 H159 0.950 . S
C171 C167 1.393 . S
C171 C170 1.391 . S
H172 C180 0.950 . S
H173 C185 0.950 . S
H174 C182 0.950 . S
H175 C184 0.950 . S
H176 C186 0.950 . S
H177 C188 0.950 . S
H178 C190 0.950 . S
H179 C191 0.950 . S
C180 H172 0.950 . S
C180 C181 1.386 . S
C180 C182 1.391 . S
C181 C180 1.386 . S
C181 C185 1.393 . S
C182 H174 0.950 . S
C182 C180 1.391 . S
C182 C183 1.400 . S
C183 C182 1.400 . S
C183 C184 1.398 . S
C183 C189 1.491 1_556 S
C184 H175 0.950 . S
C184 C183 1.398 . S
C184 C185 1.391 . S
C185 H173 0.950 . S
C185 C181 1.393 . S
C185 C184 1.391 . S
C186 H176 0.950 . S
C186 C187 1.386 . S
C186 C188 1.391 . S
C187 C186 1.386 . S
C187 C191 1.393 . S
C188 H177 0.950 . S
C188 C186 1.391 . S
C188 C189 1.400 . S
C189 C183 1.491 1_554 S
C189 C188 1.400 . S
C189 C190 1.398 . S
C190 H178 0.950 . S
C190 C189 1.398 . S
C190 C191 1.391 . S
C191 H179 0.950 . S
C191 C187 1.393 . S
C191 C190 1.391 . S
H192 C200 0.950 . S
H193 C205 0.950 . S
H194 C202 0.950 . S
H195 C204 0.950 . S
H196 C206 0.950 . S
H197 C208 0.950 . S
H198 C210 0.950 . S
H199 C211 0.950 . S
C200 H192 0.950 . S
C200 C201 1.386 . S
C200 C202 1.391 . S
C201 C200 1.386 . S
C201 C205 1.393 . S
C202 H194 0.950 . S
C202 C200 1.391 . S
C202 C203 1.400 . S
C203 C202 1.400 . S
C203 C204 1.398 . S
C203 C209 1.491 . S
C204 H195 0.950 . S
C204 C203 1.398 . S
C204 C205 1.391 . S
C205 H193 0.950 . S
C205 C201 1.393 . S
C205 C204 1.391 . S
C206 H196 0.950 . S
C206 C207 1.386 . S
C206 C208 1.391 . S
C207 C206 1.386 . S
C207 C211 1.393 . S
C208 H197 0.950 . S
C208 C206 1.391 . S
C208 C209 1.400 . S
C209 C203 1.491 . S
C209 C208 1.400 . S
C209 C210 1.398 . S
C210 H198 0.950 . S
C210 C209 1.398 . S
C210 C211 1.391 . S
C211 H199 0.950 . S
C211 C207 1.393 . S
C211 C210 1.391 . S
H212 C220 0.950 . S
H213 C225 0.950 . S
H214 C222 0.950 . S
H215 C224 0.950 . S
H216 C226 0.950 . S
H217 C228 0.950 . S
H218 C230 0.950 . S
H219 C231 0.950 . S
C220 H212 0.950 . S
C220 C221 1.386 . S
C220 C222 1.391 . S
C221 C220 1.386 . S
C221 C225 1.393 . S
C222 H214 0.950 . S
C222 C220 1.391 . S
C222 C223 1.400 . S
C223 C222 1.400 . S
C223 C224 1.398 . S
C223 C229 1.491 . S
C224 H215 0.950 . S
C224 C223 1.398 . S
C224 C225 1.391 . S
C225 H213 0.950 . S
C225 C221 1.393 . S
C225 C224 1.391 . S
C226 H216 0.950 . S
C226 C227 1.386 . S
C226 C228 1.391 . S
C227 C226 1.386 . S
C227 C231 1.393 . S
C228 H217 0.950 . S
C228 C226 1.391 . S
C228 C229 1.400 . S
C229 C223 1.491 . S
C229 C228 1.400 . S
C229 C230 1.398 . S
C230 H218 0.950 . S
C230 C229 1.398 . S
C230 C231 1.391 . S
C231 H219 0.950 . S
C231 C227 1.393 . S
C231 C230 1.391 . S
H232 C240 0.950 . S
H233 C245 0.950 . S
H234 C242 0.950 . S
H235 C244 0.950 . S
H236 C246 0.950 . S
H237 C248 0.950 . S
H238 C250 0.950 . S
H239 C251 0.950 . S
C240 H232 0.950 . S
C240 C241 1.386 1_554 S
C240 C242 1.391 . S
C241 C240 1.386 1_556 S
C241 C245 1.393 . S
C242 H234 0.950 . S
C242 C240 1.391 . S
C242 C243 1.395 1_554 S
C243 C242 1.395 1_556 S
C243 C244 1.403 . S
C243 C249 1.492 1_556 S
C244 H235 0.950 . S
C244 C243 1.403 . S
C244 C245 1.391 . S
C245 H233 0.950 . S
C245 C241 1.393 . S
C245 C244 1.391 . S
C246 H236 0.950 . S
C246 C247 1.386 1_556 S
C246 C248 1.391 . S
C247 C246 1.386 1_554 S
C247 C251 1.393 . S
C248 H237 0.950 . S
C248 C246 1.391 . S
C248 C249 1.389 1_556 S
C249 C243 1.492 1_554 S
C249 C248 1.389 1_554 S
C249 C250 1.408 . S
C250 H238 0.950 . S
C250 C249 1.408 . S
C250 C251 1.391 . S
C251 H239 0.950 . S
C251 C247 1.393 . S
C251 C250 1.391 . S
H252 C260 0.950 . S
H253 C265 0.950 . S
H254 C262 0.950 . S
H255 C264 0.950 . S
H256 C266 0.950 . S
H257 C268 0.950 . S
H258 C270 0.950 . S
H259 C271 0.950 . S
C260 H252 0.950 . S
C260 C261 1.386 . S
C260 C262 1.391 . S
C261 C260 1.386 . S
C261 C265 1.393 . S
C262 H254 0.950 . S
C262 C260 1.391 . S
C262 C263 1.400 . S
C263 C262 1.400 . S
C263 C264 1.398 . S
C263 C269 1.491 . S
C264 H255 0.950 . S
C264 C263 1.398 . S
C264 C265 1.391 . S
C265 H253 0.950 . S
C265 C261 1.393 . S
C265 C264 1.391 . S
C266 H256 0.950 . S
C266 C267 1.386 . S
C266 C268 1.391 . S
C267 C266 1.386 . S
C267 C271 1.393 . S
C268 H257 0.950 . S
C268 C266 1.391 . S
C268 C269 1.400 . S
C269 C263 1.491 . S
C269 C268 1.400 . S
C269 C270 1.398 . S
C270 H258 0.950 . S
C270 C269 1.398 . S
C270 C271 1.391 . S
C271 H259 0.950 . S
C271 C267 1.393 . S
C271 C270 1.391 . S
H272 C280 0.950 . S
H273 C285 0.950 . S
H274 C282 0.950 . S
H275 C284 0.950 . S
H276 C286 0.950 . S
H277 C288 0.950 . S
H278 C290 0.950 . S
H279 C291 0.950 . S
C280 H272 0.950 . S
C280 C281 1.386 1_554 S
C280 C282 1.391 . S
C281 C280 1.386 1_556 S
C281 C285 1.393 . S
C282 H274 0.950 . S
C282 C280 1.391 . S
C282 C283 1.392 1_554 S
C283 C282 1.392 1_556 S
C283 C284 1.406 . S
C283 C289 1.493 1_446 S
C284 H275 0.950 . S
C284 C283 1.406 . S
C284 C285 1.391 . S
C285 H273 0.950 . S
C285 C281 1.393 . S
C285 C284 1.391 . S
C286 H276 0.950 . S
C286 C287 1.386 1_556 S
C286 C288 1.391 . S
C287 C286 1.386 1_554 S
C287 C291 1.393 . S
C288 H277 0.950 . S
C288 C286 1.391 . S
C288 C289 1.386 1_556 S
C289 C283 1.493 1_664 S
C289 C288 1.386 1_554 S
C289 C290 1.411 . S
C290 H278 0.950 . S
C290 C289 1.411 . S
C290 C291 1.391 . S
C291 H279 0.950 . S
C291 C287 1.393 . S
C291 C290 1.391 . S
H292 C300 0.950 . S
H293 C305 0.950 . S
H294 C302 0.950 . S
H295 C304 0.950 . S
H296 C306 0.950 . S
H297 C308 0.950 . S
H298 C310 0.950 . S
H299 C311 0.950 . S
C300 H292 0.950 . S
C300 C301 1.386 . S
C300 C302 1.391 . S
C301 C300 1.386 . S
C301 C305 1.393 . S
C302 H294 0.950 . S
C302 C300 1.391 . S
C302 C303 1.400 . S
C303 C302 1.400 . S
C303 C304 1.398 . S
C303 C309 1.491 1_645 S
C304 H295 0.950 . S
C304 C303 1.398 . S
C304 C305 1.391 . S
C305 H293 0.950 . S
C305 C301 1.393 . S
C305 C304 1.391 . S
C306 H296 0.950 . S
C306 C307 1.386 . S
C306 C308 1.391 . S
C307 C306 1.386 . S
C307 C311 1.393 . S
C308 H297 0.950 . S
C308 C306 1.391 . S
C308 C309 1.400 . S
C309 C303 1.491 1_465 S
C309 C308 1.400 . S
C309 C310 1.398 . S
C310 H298 0.950 . S
C310 C309 1.398 . S
C310 C311 1.391 . S
C311 H299 0.950 . S
C311 C307 1.393 . S
C311 C310 1.391 . S
H312 C320 0.950 . S
H313 C325 0.950 . S
H314 C322 0.950 . S
H315 C324 0.950 . S
H316 C326 0.950 . S
H317 C328 0.950 . S
H318 C330 0.950 . S
H319 C331 0.950 . S
C320 H312 0.950 . S
C320 C321 1.386 . S
C320 C322 1.391 . S
C321 C320 1.386 . S
C321 C325 1.393 . S
C322 H314 0.950 . S
C322 C320 1.391 . S
C322 C323 1.400 . S
C323 C322 1.400 . S
C323 C324 1.398 . S
C323 C329 1.491 . S
C324 H315 0.950 . S
C324 C323 1.398 . S
C324 C325 1.391 . S
C325 H313 0.950 . S
C325 C321 1.393 . S
C325 C324 1.391 . S
C326 H316 0.950 . S
C326 C327 1.386 . S
C326 C328 1.391 . S
C327 C326 1.386 . S
C327 C331 1.393 . S
C328 H317 0.950 . S
C328 C326 1.391 . S
C328 C329 1.400 . S
C329 C323 1.491 . S
C329 C328 1.400 . S
C329 C330 1.398 . S
C330 H318 0.950 . S
C330 C329 1.398 . S
C330 C331 1.391 . S
C331 H319 0.950 . S
C331 C327 1.393 . S
C331 C330 1.391 . S
H332 C340 0.950 . S
H333 C345 0.950 . S
H334 C342 0.950 . S
H335 C344 0.950 . S
H336 C346 0.950 . S
H337 C348 0.950 . S
H338 C350 0.950 . S
H339 C351 0.950 . S
C340 H332 0.950 . S
C340 C341 1.386 . S
C340 C342 1.391 . S
C341 C340 1.386 . S
C341 C345 1.393 . S
C342 H334 0.950 . S
C342 C340 1.391 . S
C342 C343 1.400 . S
C343 C342 1.400 . S
C343 C344 1.398 . S
C343 C349 1.491 . S
C344 H335 0.950 . S
C344 C343 1.398 . S
C344 C345 1.391 . S
C345 H333 0.950 . S
C345 C341 1.393 . S
C345 C344 1.391 . S
C346 H336 0.950 . S
C346 C347 1.386 . S
C346 C348 1.391 . S
C347 C346 1.386 . S
C347 C351 1.393 . S
C348 H337 0.950 . S
C348 C346 1.391 . S
C348 C349 1.400 . S
C349 C343 1.491 . S
C349 C348 1.400 . S
C349 C350 1.398 . S
C350 H338 0.950 . S
C350 C349 1.398 . S
C350 C351 1.391 . S
C351 H339 0.950 . S
C351 C347 1.393 . S
C351 C350 1.391 . S
H352 C360 0.950 . S
H353 C365 0.950 . S
H354 C362 0.950 . S
H355 C364 0.950 . S
H356 C366 0.950 . S
H357 C368 0.950 . S
H358 C370 0.950 . S
H359 C371 0.950 . S
C360 H352 0.950 . S
C360 C361 1.386 . S
C360 C362 1.391 . S
C361 C360 1.386 . S
C361 C365 1.393 . S
C362 H354 0.950 . S
C362 C360 1.391 . S
C362 C363 1.400 . S
C363 C362 1.400 . S
C363 C364 1.398 . S
C363 C369 1.491 . S
C364 H355 0.950 . S
C364 C363 1.398 . S
C364 C365 1.391 . S
C365 H353 0.950 . S
C365 C361 1.393 . S
C365 C364 1.391 . S
C366 H356 0.950 . S
C366 C367 1.386 . S
C366 C368 1.391 . S
C367 C366 1.386 . S
C367 C371 1.393 . S
C368 H357 0.950 . S
C368 C366 1.391 . S
C368 C369 1.400 . S
C369 C363 1.491 . S
C369 C368 1.400 . S
C369 C370 1.398 . S
C370 H358 0.950 . S
C370 C369 1.398 . S
C370 C371 1.391 . S
C371 H359 0.950 . S
C371 C367 1.393 . S
C371 C370 1.391 . S
H372 C380 0.950 . S
H373 C385 0.950 . S
H374 C382 0.950 . S
H375 C384 0.950 . S
H376 C386 0.950 . S
H377 C388 0.950 . S
H378 C390 0.950 . S
H379 C391 0.950 . S
C380 H372 0.950 . S
C380 C381 1.386 . S
C380 C382 1.391 . S
C381 C380 1.386 . S
C381 C385 1.393 . S
C382 H374 0.950 . S
C382 C380 1.391 . S
C382 C383 1.400 . S
C383 C382 1.400 . S
C383 C384 1.398 . S
C383 C389 1.491 . S
C384 H375 0.950 . S
C384 C383 1.398 . S
C384 C385 1.391 . S
C385 H373 0.950 . S
C385 C381 1.393 . S
C385 C384 1.391 . S
C386 H376 0.950 . S
C386 C387 1.386 . S
C386 C388 1.391 . S
C387 C386 1.386 . S
C387 C391 1.393 . S
C388 H377 0.950 . S
C388 C386 1.391 . S
C388 C389 1.400 . S
C389 C383 1.491 . S
C389 C388 1.400 . S
C389 C390 1.398 . S
C390 H378 0.950 . S
C390 C389 1.398 . S
C390 C391 1.391 . S
C391 H379 0.950 . S
C391 C387 1.393 . S
C391 C390 1.391 . S
H392 C400 0.950 . S
H393 C405 0.948 1_655 S
H394 C402 0.950 . S
H395 C404 0.950 . S
H396 C406 0.950 . S
H397 C408 0.950 . S
H398 C410 0.950 . S
H399 C411 0.950 . S
C400 H392 0.950 . S
C400 C401 1.386 . S
C400 C402 1.391 . S
C401 C400 1.386 . S
C401 C405 1.403 . S
C402 H394 0.950 . S
C402 C400 1.391 . S
C402 C403 1.400 1_455 S
C403 C402 1.400 1_655 S
C403 C404 1.398 . S
C403 C409 1.491 . S
C404 H395 0.950 . S
C404 C403 1.398 . S
C404 C405 1.383 1_655 S
C405 H393 0.948 1_455 S
C405 C401 1.403 . S
C405 C404 1.383 1_455 S
C406 H396 0.950 . S
C406 C407 1.386 . S
C406 C408 1.391 . S
C407 C406 1.386 . S
C407 C411 1.393 . S
C408 H397 0.950 . S
C408 C406 1.391 . S
C408 C409 1.400 . S
C409 C403 1.491 . S
C409 C408 1.400 . S
C409 C410 1.398 . S
C410 H398 0.950 . S
C410 C409 1.398 . S
C410 C411 1.391 . S
C411 H399 0.950 . S
C411 C407 1.393 . S
C411 C410 1.391 . S
H412 C420 0.950 . S
H413 C425 0.950 . S
H414 C422 0.950 1_455 S
H415 C424 0.950 . S
H416 C426 0.950 . S
H417 C428 0.950 . S
H418 C430 0.950 . S
H419 C431 0.950 . S
C420 H412 0.950 . S
C420 C421 1.386 . S
C420 C422 1.391 . S
C421 C420 1.386 . S
C421 C425 1.393 . S
C422 H414 0.950 1_655 S
C422 C420 1.391 . S
C422 C423 1.400 . S
C423 C422 1.400 . S
C423 C424 1.398 . S
C423 C429 1.491 . S
C424 H415 0.950 . S
C424 C423 1.398 . S
C424 C425 1.391 . S
C425 H413 0.950 . S
C425 C421 1.393 . S
C425 C424 1.391 . S
C426 H416 0.950 . S
C426 C427 1.386 1_655 S
C426 C428 1.391 . S
C427 C426 1.386 1_455 S
C427 C431 1.393 . S
C428 H417 0.950 . S
C428 C426 1.391 . S
C428 C429 1.400 . S
C429 C423 1.491 . S
C429 C428 1.400 . S
C429 C430 1.398 1_655 S
C430 H418 0.950 . S
C430 C429 1.398 1_455 S
C430 C431 1.391 . S
C431 H419 0.950 . S
C431 C427 1.393 . S
C431 C430 1.391 . S
H432 C440 0.950 . S
H433 C445 0.950 . S
H434 C442 0.950 . S
H435 C444 0.950 . S
H436 C446 0.950 . S
H437 C448 0.950 . S
H438 C450 0.950 . S
H439 C451 0.951 . S
C440 H432 0.950 . S
C440 C441 1.386 . S
C440 C442 1.391 . S
C441 C440 1.386 . S
C441 C445 1.393 . S
C442 H434 0.950 . S
C442 C440 1.391 . S
C442 C443 1.400 . S
C443 C442 1.400 . S
C443 C444 1.398 . S
C443 C449 1.491 . S
C444 H435 0.950 . S
C444 C443 1.398 . S
C444 C445 1.391 . S
C445 H433 0.950 . S
C445 C441 1.393 . S
C445 C444 1.391 . S
C446 H436 0.950 . S
C446 C447 1.386 . S
C446 C448 1.391 . S
C447 C446 1.386 . S
C447 C451 1.393 . S
C448 H437 0.950 . S
C448 C446 1.391 . S
C448 C449 1.400 1_655 S
C449 C443 1.491 . S
C449 C448 1.400 1_455 S
C449 C450 1.398 . S
C450 H438 0.950 . S
C450 C449 1.398 . S
C450 C451 1.391 1_455 S
C451 H439 0.951 . S
C451 C447 1.393 . S
C451 C450 1.391 1_655 S
H452 C460 0.950 . S
H453 C465 0.950 . S
H454 C462 0.950 . S
H455 C464 0.950 . S
H456 C466 0.950 . S
H457 C468 0.950 . S
H458 C470 0.950 . S
H459 C471 0.950 . S
C460 H452 0.950 . S
C460 C461 1.386 . S
C460 C462 1.391 . S
C461 C460 1.386 . S
C461 C465 1.393 . S
C462 H454 0.950 . S
C462 C460 1.391 . S
C462 C463 1.400 . S
C463 C462 1.400 . S
C463 C464 1.398 . S
C463 C469 1.491 . S
C464 H455 0.950 . S
C464 C463 1.398 . S
C464 C465 1.391 . S
C465 H453 0.950 . S
C465 C461 1.393 . S
C465 C464 1.391 . S
C466 H456 0.950 . S
C466 C467 1.386 . S
C466 C468 1.391 . S
C467 C466 1.386 . S
C467 C471 1.391 1_655 S
C468 H457 0.950 . S
C468 C466 1.391 . S
C468 C469 1.400 1_655 S
C469 C463 1.491 . S
C469 C468 1.400 1_455 S
C469 C470 1.398 . S
C470 H458 0.950 . S
C470 C469 1.398 . S
C470 C471 1.392 . S
C471 H459 0.950 . S
C471 C467 1.391 1_455 S
C471 C470 1.392 . S
C161 C27 2.033 . S
C167 C6 2.033 . S
C181 C65 2.033 . S
C187 C44 2.033 . S
C201 C103 2.025 . S
C207 C82 2.025 . S
C221 C141 2.025 . S
C227 C120 2.025 . S
C241 C68 1.644 . S
C247 C1 1.644 . S
C261 C144 1.652 . S
C267 C77 1.652 . S
C281 C30 1.644 . S
C287 C39 1.644 . S
C301 C115 1.645 . S
C307 C106 1.645 . S
C321 C122 1.178 . S
C327 C18 1.224 . S
C341 C46 1.158 . S
C347 C94 1.227 . S
C361 C105 1.198 . S
C367 C52 1.201 . S
C381 C29 1.156 . S
C387 C128 1.230 . S
C401 C84 1.195 . S
C407 C56 1.210 . S
C421 C132 1.223 . S
C427 C8 1.180 . S
C441 C14 1.211 . S
C447 C143 1.200 . S
C461 C90 1.228 . S
C467 C67 1.160 . S
