# Generated by pormake.
# Topology qdl, (4)-cn, num edge types: 1
# Building blocks:
#     Node 0, Type 0, BuildingBlock: MUDLON_clean_sbu_0, # of connection points: 4
#     Node 1, Type 0, BuildingBlock: MUDLON_clean_sbu_0, # of connection points: 4
#     Node 2, Type 0, BuildingBlock: MUDLON_clean_sbu_0, # of connection points: 4
#     Node 3, Type 0, BuildingBlock: MUDLON_clean_sbu_0, # of connection points: 4
#     Node 4, Type 0, BuildingBlock: MUDLON_clean_sbu_0, # of connection points: 4
#     Node 5, Type 0, BuildingBlock: MUDLON_clean_sbu_0, # of connection points: 4
#     Edge 6, Type (0, 0), BuildingBlock: XIVTED_clean_linker_0, # of connection points: 2
#     Edge 7, Type (0, 0), BuildingBlock: XIVTED_clean_linker_0, # of connection points: 2
#     Edge 8, Type (0, 0), BuildingBlock: XIVTED_clean_linker_0, # of connection points: 2
#     Edge 9, Type (0, 0), BuildingBlock: XIVTED_clean_linker_0, # of connection points: 2
#     Edge 10, Type (0, 0), BuildingBlock: XIVTED_clean_linker_0, # of connection points: 2
#     Edge 11, Type (0, 0), BuildingBlock: XIVTED_clean_linker_0, # of connection points: 2
#     Edge 12, Type (0, 0), BuildingBlock: XIVTED_clean_linker_0, # of connection points: 2
#     Edge 13, Type (0, 0), BuildingBlock: XIVTED_clean_linker_0, # of connection points: 2
#     Edge 14, Type (0, 0), BuildingBlock: XIVTED_clean_linker_0, # of connection points: 2
#     Edge 15, Type (0, 0), BuildingBlock: XIVTED_clean_linker_0, # of connection points: 2
#     Edge 16, Type (0, 0), BuildingBlock: XIVTED_clean_linker_0, # of connection points: 2
#     Edge 17, Type (0, 0), BuildingBlock: XIVTED_clean_linker_0, # of connection points: 2
# Relax obj value: 0.001
# Max RMSD: 0.014
# Mean RMSD: 0.013
data_MOF--net-qdl--node1-MUDLON_clean_sbu_0--edge1-XIVTED_clean_linker_0
_symmetry_space_group_name_H-M    P1
_symmetry_Int_Tables_number       1
_symmetry_cell_setting            triclinic
loop_
_symmetry_equiv_pos_as_xyz
'x, y, z'
_cell_length_a     15.258046
_cell_length_b     15.113465
_cell_length_c     89.760735
_cell_angle_alpha  90.771834
_cell_angle_beta   90.314748
_cell_angle_gamma 120.43654
loop_
_atom_site_label
_atom_site_type_symbol
_atom_site_fract_x
_atom_site_fract_y
_atom_site_fract_z
_atom_type_partial_charge
Mg0 Mg 0.26437 0.13477 0.11153 0.0
C1 C 0.29553 0.96071 0.106 0.0
O2 O 0.20059 0.92599 0.10195 0.0
C3 C 0.37653 0.35485 0.10041 0.0
O4 O 0.36044 0.30663 0.08753 0.0
C5 C 0.22816 0.14731 0.14375 0.0
O6 O 0.31948 0.22671 0.14182 0.0
O7 O 0.18033 0.09062 0.13248 0.0
O8 O 0.34835 0.05273 0.1109 0.0
O9 O 0.17205 0.09402 0.09088 0.0
C10 C 0.21204 0.08481 0.07894 0.0
O11 O 0.30289 0.09539 0.07977 0.0
O12 O 0.35304 0.30299 0.11228 0.0
Mg13 Mg 0.12691 0.16238 0.43925 0.0
C14 C 0.95718 0.19736 0.442 0.0
O15 O 0.92263 0.10199 0.44592 0.0
C16 C 0.34916 0.26516 0.4488 0.0
O17 O 0.30702 0.24703 0.46196 0.0
C18 C 0.08539 0.15141 0.47145 0.0
O19 O 0.10686 0.24383 0.46765 0.0
O20 O 0.08842 0.09213 0.46147 0.0
O21 O 0.04942 0.25096 0.43801 0.0
O22 O 0.06643 0.06162 0.41954 0.0
C23 C 0.12125 0.03982 0.41139 0.0
O24 O 0.21313 0.06583 0.41606 0.0
O25 O 0.29289 0.24538 0.43726 0.0
Mg26 Mg 0.08995 0.84851 0.78002 0.0
C27 C 0.9415 0.62624 0.77062 0.0
O28 O 0.92756 0.67162 0.75924 0.0
C29 C 0.31402 0.97228 0.78935 0.0
O30 O 0.27521 0.9702 0.80246 0.0
C31 C 0.03931 0.8399 0.81212 0.0
O32 O 0.04199 0.75531 0.80982 0.0
O33 O 0.05528 0.89881 0.80116 0.0
O34 O 1.00849 0.68059 0.78046 0.0
O35 O 0.04808 0.8958 0.75943 0.0
C36 C 0.08418 0.87832 0.7477 0.0
O37 O 0.13965 0.8349 0.74914 0.0
O38 O 0.25463 0.92136 0.77854 0.0
Mg39 Mg 0.10525 0.174 0.61378 0.0
C40 C 0.32582 0.28075 0.60415 0.0
O41 O 0.28103 0.25959 0.591 0.0
C42 C 0.92801 0.19921 0.61098 0.0
O43 O 0.89617 0.10413 0.60668 0.0
C44 C 0.05808 0.15344 0.58144 0.0
O45 O 0.07065 0.24332 0.58531 0.0
O46 O 0.06827 0.09987 0.59142 0.0
O47 O 0.2717 0.26305 0.6157 0.0
O48 O 0.06012 0.07399 0.63314 0.0
C49 C 0.04378 0.11037 0.64501 0.0
O50 O 0.04767 0.1991 0.64444 0.0
O51 O 1.02024 0.25549 0.61525 0.0
Mg52 Mg 0.94447 0.13195 0.94409 0.0
C53 C 0.06439 0.35099 0.93298 0.0
O54 O 0.04158 0.30102 0.92014 0.0
C55 C 0.72295 1.01586 0.93291 0.0
O56 O 0.76717 0.04774 0.91999 0.0
C57 C 0.94658 0.99606 0.91839 0.0
O58 O 0.88116 0.9216 0.9268 0.0
O59 O 0.9876 0.08824 0.92322 0.0
O60 O 1.02617 0.30057 0.94479 0.0
O61 O 0.99408 0.09087 0.96447 0.0
C62 C 0.95144 0.09619 0.97635 0.0
O63 O 0.88092 0.12139 0.97528 0.0
O64 O 0.77752 0.04661 0.94474 0.0
Mg65 Mg 0.83387 0.86951 0.27385 0.0
C66 C 0.73015 0.98285 0.26149 0.0
O67 O 0.75006 0.95403 0.24869 0.0
C68 C 0.74045 0.64915 0.26241 0.0
O69 O 0.76725 0.69748 0.2497 0.0
C70 C 0.97859 1.00443 0.24925 0.0
O71 O 0.98849 0.07991 0.25789 0.0
O72 O 0.92496 0.91256 0.25361 0.0
O73 O 0.74773 0.9501 0.27349 0.0
O74 O 0.91859 0.92261 0.29496 0.0
C75 C 0.94392 0.86898 0.30273 0.0
O76 O 0.92939 0.78154 0.2972 0.0
O77 O 0.75125 0.70083 0.27431 0.0
H78 H 0.42208 0.93681 0.1254 0.0
H79 H 0.39449 0.47525 0.07686 0.0
H80 H 0.26201 0.82724 0.08335 0.0
H81 H 0.40998 0.48064 0.12494 0.0
H82 H 0.40002 0.6394 0.07772 0.0
H83 H 0.46842 0.80229 0.12386 0.0
C84 C 0.39874 0.88594 0.11572 0.0
C85 C 0.33781 0.8923 0.10451 0.0
C86 C 0.40378 0.60533 0.08806 0.0
C87 C 0.39116 0.74069 0.10261 0.0
C88 C 0.40106 0.51171 0.0876 0.0
C89 C 0.40009 0.46298 0.10086 0.0
C90 C 0.4066 0.65149 0.10186 0.0
C91 C 0.40938 0.51481 0.11444 0.0
C92 C 0.42456 0.80917 0.1149 0.0
C93 C 0.30848 0.82421 0.09227 0.0
N94 N 0.41128 0.60596 0.11461 0.0
N95 N 0.33542 0.75138 0.09164 0.0
H96 H 0.45865 0.28744 0.42333 0.0
H97 H 0.85212 0.19035 0.46638 0.0
H98 H 0.48323 0.2959 0.47133 0.0
H99 H 0.90694 0.29743 0.42127 0.0
H100 H 0.71885 0.23392 0.46826 0.0
H101 H 0.62422 0.29776 0.42187 0.0
C102 C 0.49947 0.29331 0.43355 0.0
C103 C 0.45607 0.28938 0.44748 0.0
C104 C 0.76091 0.24979 0.458 0.0
C105 C 0.64465 0.29985 0.44586 0.0
C106 C 0.83698 0.22492 0.45695 0.0
C107 C 0.89042 0.24085 0.44369 0.0
C108 C 0.73571 0.28812 0.44554 0.0
C109 C 0.86772 0.28505 0.43173 0.0
C110 C 0.594 0.29921 0.4327 0.0
C111 C 0.51277 0.29747 0.46034 0.0
N112 N 0.79051 0.30551 0.43283 0.0
N113 N 0.60306 0.30069 0.45921 0.0
H114 H 0.90562 0.5187 0.79649 0.0
H115 H 0.4108 1.025 0.7625 0.0
H116 H 0.81012 0.48313 0.75037 0.0
H117 H 0.46318 0.09566 0.80962 0.0
H118 H 0.57885 0.17199 0.75764 0.0
H119 H 0.76582 0.34429 0.80103 0.0
C120 C 0.85653 0.47361 0.78725 0.0
C121 C 0.86883 0.51601 0.77306 0.0
C122 C 0.55409 0.15448 0.76906 0.0
C123 C 0.70883 0.31675 0.77819 0.0
C124 C 0.45824 0.0702 0.77186 0.0
C125 C 0.42202 0.04871 0.78649 0.0
C126 C 0.61453 0.21766 0.78096 0.0
C127 C 0.48738 0.10998 0.79815 0.0
C128 C 0.77646 0.37427 0.78988 0.0
C129 C 0.80277 0.45401 0.76153 0.0
N130 N 0.58001 0.1923 0.79512 0.0
N131 N 0.72524 0.35791 0.76437 0.0
H132 H 0.44133 0.31072 0.62957 0.0
H133 H 0.80666 0.17186 0.58735 0.0
H134 H 0.45292 0.2991 0.58158 0.0
H135 H 0.88923 0.31477 0.631 0.0
H136 H 0.67493 0.21755 0.58544 0.0
H137 H 0.60429 0.31498 0.63103 0.0
C138 C 0.47882 0.311 0.61935 0.0
C139 C 0.43237 0.3031 0.60543 0.0
C140 C 0.72255 0.24044 0.59537 0.0
C141 C 0.61767 0.30636 0.60706 0.0
C142 C 0.79755 0.2141 0.59647 0.0
C143 C 0.85856 0.23971 0.60934 0.0
C144 C 0.70613 0.29034 0.60741 0.0
C145 C 0.84387 0.29439 0.62086 0.0
C146 C 0.57182 0.31343 0.6202 0.0
C147 C 0.48485 0.304 0.59257 0.0
N148 N 0.76764 0.31639 0.61975 0.0
N149 N 0.5735 0.30371 0.59371 0.0
H150 H 0.16344 0.47009 0.95785 0.0
H151 H 0.58699 0.92899 0.90965 0.0
H152 H 0.15511 0.48186 0.90988 0.0
H153 H 0.61171 0.91031 0.95728 0.0
H154 H 0.41712 0.77743 0.9101 0.0
H155 H 0.31489 0.64217 0.95838 0.0
C156 C 0.19233 0.50932 0.94744 0.0
C157 C 0.1466 0.46073 0.93378 0.0
C158 C 0.45915 0.80688 0.92049 0.0
C159 C 0.32075 0.65778 0.93432 0.0
C160 C 0.55635 0.89387 0.92025 0.0
C161 C 0.61452 0.93242 0.93344 0.0
C162 C 0.41921 0.7572 0.93401 0.0
C163 C 0.57005 0.88332 0.94683 0.0
C164 C 0.27922 0.6075 0.94776 0.0
C165 C 0.18794 0.51562 0.92067 0.0
N166 N 0.47559 0.79787 0.94675 0.0
N167 N 0.27275 0.61051 0.92127 0.0
H168 H 0.68911 0.07069 0.23799 0.0
H169 H 0.7193 0.53293 0.28703 0.0
H170 H 0.71722 0.08782 0.28596 0.0
H171 H 0.70268 0.51621 0.23899 0.0
H172 H 0.69772 0.3607 0.28723 0.0
H173 H 0.67261 0.22307 0.23853 0.0
C174 C 0.69054 0.10562 0.24868 0.0
C175 C 0.70532 0.06633 0.26194 0.0
C176 C 0.6977 0.39432 0.27665 0.0
C177 C 0.68752 0.24268 0.26263 0.0
C178 C 0.70959 0.4926 0.27653 0.0
C179 C 0.71353 0.53977 0.26296 0.0
C180 C 0.68957 0.34257 0.26311 0.0
C181 C 0.70086 0.48357 0.24972 0.0
C182 C 0.68139 0.1931 0.24897 0.0
C183 C 0.70622 0.11526 0.27543 0.0
N184 N 0.69023 0.38866 0.25013 0.0
N185 N 0.69851 0.2013 0.27542 0.0
H186 H 0.11317 0.18983 0.23723 0.0
H187 H 0.06411 0.96893 0.15397 0.0
H188 H 0.93503 0.86669 0.22611 0.0
H189 H 0.29648 0.27276 0.16838 0.0
H190 H 1.00376 0.93233 0.17975 0.0
H191 H 0.17097 0.22383 0.21149 0.0
C192 C 0.08657 0.1259 0.22941 0.0
C193 C 1.01938 1.02521 0.23389 0.0
C194 C 0.06789 1.00698 0.17722 0.0
C195 C 0.08432 0.06381 0.20426 0.0
C196 C 0.10196 0.02808 0.16251 0.0
C197 C 0.18563 0.12398 0.15899 0.0
C198 C 0.11713 0.08275 0.18845 0.0
C199 C 0.23203 0.19757 0.17054 0.0
C200 C 0.11957 0.14538 0.21469 0.0
C201 C 0.98734 0.9455 0.22319 0.0
N202 N 0.19712 0.17553 0.18469 0.0
N203 N 1.0196 0.96654 0.20887 0.0
H204 H 0.94677 0.19312 0.56218 0.0
H205 H 0.12673 0.02563 0.4887 0.0
H206 H 0.12204 0.04227 0.56455 0.0
H207 H 0.98498 0.21025 0.48993 0.0
H208 H 0.10182 1.00158 0.51586 0.0
H209 H 0.93331 0.16786 0.5353 0.0
C210 C 0.98156 0.15344 0.55701 0.0
C211 C 0.0364 0.12065 0.56558 0.0
C212 C 0.07501 0.04605 0.5101 0.0
C213 C 1.02352 0.09331 0.53453 0.0
C214 C 0.08865 0.05924 0.49462 0.0
C215 C 0.05865 0.1208 0.48712 0.0
C216 C 0.02996 0.09378 0.51795 0.0
C217 C 1.01041 0.16326 0.49529 0.0
C218 C 0.97413 0.13919 0.54161 0.0
C219 C 0.079 0.06864 0.55831 0.0
N220 N 0.99808 0.14934 0.51019 0.0
N221 N 0.07312 0.05796 0.54312 0.0
H222 H 0.07013 1.02507 0.8233 0.0
H223 H 0.8866 0.80872 0.90536 0.0
H224 H 0.97156 0.71436 0.83601 0.0
H225 H 0.04471 0.1322 0.89591 0.0
H226 H 0.90723 0.77222 0.87945 0.0
H227 H 0.0498 0.06531 0.84925 0.0
C228 C 0.04362 0.96524 0.83149 0.0
C229 C 1.02268 0.86623 0.82745 0.0
C230 C 0.93783 0.8513 0.88303 0.0
C231 C 0.99942 0.91163 0.85711 0.0
C232 C 0.92612 0.87221 0.89786 0.0
C233 C 0.96421 0.97371 0.90287 0.0
C234 C 0.98719 0.93228 0.87302 0.0
C235 C 1.01458 0.05277 0.89257 0.0
C236 C 0.03257 0.98836 0.84631 0.0
C237 C 0.98906 0.79187 0.83858 0.0
N238 N 1.02418 0.03038 0.87813 0.0
N239 N 0.9784 0.81602 0.85282 0.0
H240 H 0.03668 0.08646 0.07189 0.0
H241 H 0.10579 0.05922 0.98355 0.0
H242 H 0.27647 0.05465 0.05203 0.0
H243 H 0.87052 0.09899 1.00334 0.0
H244 H 0.16224 0.04513 1.00857 0.0
H245 H 0.96696 0.07857 0.04691 0.0
C246 C 0.07418 0.07695 0.06231 0.0
C247 C 0.16294 0.07182 0.06409 0.0
C248 C 0.09792 0.05645 1.00743 0.0
C249 C 0.08392 0.06327 0.03543 0.0
C250 C 0.06559 0.06435 0.99313 0.0
C251 C 0.9836 0.08089 0.9913 0.0
C252 C 0.04799 0.06515 1.02002 0.0
C253 C 0.93442 0.08681 1.00416 0.0
C254 C 0.03453 0.07273 0.04803 0.0
C255 C 0.20828 0.0596 0.05123 0.0
N256 N 0.96756 0.0794 1.01793 0.0
N257 N 0.16864 0.05624 0.03749 0.0
H258 H 0.92373 1.00668 0.32037 0.0
H259 H 0.19924 0.9538 0.39241 0.0
H260 H 0.03528 0.7953 0.32129 0.0
H261 H 0.97296 0.04436 0.39465 0.0
H262 H 0.1581 0.91138 0.36584 0.0
H263 H 0.96313 0.04193 0.347 0.0
C264 C 0.95754 0.96846 0.32612 0.0
C265 C 0.97617 0.89781 0.31855 0.0
C266 C 0.11701 0.93974 0.37221 0.0
C267 C 1.02139 0.93797 0.3491 0.0
C268 C 0.14027 0.96383 0.38737 0.0
C269 C 0.08932 1.00248 0.39581 0.0
C270 C 0.04389 0.95658 0.36535 0.0
C271 C 1.0138 1.0142 0.38864 0.0
C272 C 0.97917 0.98801 0.34136 0.0
C273 C 1.01944 0.85013 0.32667 0.0
N274 N 0.99426 0.99252 0.37382 0.0
N275 N 0.04102 0.87139 0.34148 0.0
H276 H 0.07257 0.95002 0.65214 0.0
H277 H 0.99682 0.993 0.73997 0.0
H278 H 0.99004 0.16036 0.67144 0.0
H279 H 0.12678 0.82217 0.72093 0.0
H280 H 0.9736 0.03938 0.71474 0.0
H281 H 0.07102 0.88505 0.67706 0.0
C282 C 0.05295 0.98171 0.66157 0.0
C283 C 0.03214 0.06131 0.65967 0.0
C284 C 1.0068 0.99136 0.71611 0.0
C285 C 0.03077 0.98774 0.68828 0.0
C286 C 1.01991 0.96479 0.73051 0.0
C287 C 0.06449 0.90422 0.73261 0.0
C288 C 0.03779 0.9565 0.70371 0.0
C289 C 0.09285 0.86973 0.7199 0.0
C290 C 0.05257 0.94497 0.67582 0.0
C291 C 1.00738 0.09948 0.67235 0.0
N292 N 0.07922 0.89643 0.70605 0.0
N293 N 1.00784 0.06277 0.68609 0.0
loop_
_geom_bond_atom_site_label_1
_geom_bond_atom_site_label_2
_geom_bond_distance
_geom_bond_site_symmetry_2
_ccdc_geom_bond_type
Mg0 O7 2.141 . S
Mg0 O8 2.048 1_545 S
Mg0 O9 2.048 . S
Mg0 O12 2.141 . S
C1 O2 1.313 . S
C1 O8 1.195 1_455 S
O2 C1 1.313 . S
C3 O4 1.245 . S
C3 O12 1.289 1_455 S
O4 C3 1.245 . S
C5 O6 1.245 . S
C5 O7 1.289 1_455 S
O6 C5 1.245 . S
O7 Mg0 2.141 . S
O7 C5 1.289 1_655 S
O8 Mg0 2.048 1_565 S
O8 C1 1.195 1_655 S
O9 Mg0 2.048 . S
O9 C10 1.195 1_655 S
C10 O9 1.195 1_455 S
C10 O11 1.313 . S
O11 C10 1.313 . S
O12 Mg0 2.141 . S
O12 C3 1.289 1_655 S
Mg13 O20 2.141 . S
Mg13 O21 2.048 1_455 S
Mg13 O22 2.048 . S
Mg13 O25 2.141 . S
C14 O15 1.313 1_545 S
C14 O21 1.195 . S
O15 C14 1.313 1_565 S
C16 O17 1.245 1_545 S
C16 O25 1.289 . S
O17 C16 1.245 1_565 S
C18 O19 1.245 1_445 S
C18 O20 1.289 . S
O19 C18 1.245 1_665 S
O20 Mg13 2.141 . S
O20 C18 1.289 . S
O21 Mg13 2.048 1_655 S
O21 C14 1.195 . S
O22 Mg13 2.048 . S
O22 C23 1.195 . S
C23 O22 1.195 . S
C23 O24 1.313 1_445 S
O24 C23 1.313 1_665 S
O25 Mg13 2.141 . S
O25 C16 1.289 . S
Mg26 O33 2.141 . S
Mg26 O34 2.048 1_445 S
Mg26 O35 2.048 . S
Mg26 O38 2.141 . S
C27 O28 1.313 . S
C27 O34 1.195 . S
O28 C27 1.313 . S
C29 O30 1.245 . S
C29 O38 1.289 . S
O30 C29 1.245 . S
C31 O32 1.245 1_545 S
C31 O33 1.289 . S
O32 C31 1.245 1_565 S
O33 Mg26 2.141 . S
O33 C31 1.289 . S
O34 Mg26 2.048 1_665 S
O34 C27 1.195 . S
O35 Mg26 2.048 . S
O35 C36 1.195 . S
C36 O35 1.195 . S
C36 O37 1.313 1_545 S
O37 C36 1.313 1_565 S
O38 Mg26 2.141 . S
O38 C29 1.289 . S
Mg39 O46 2.141 . S
Mg39 O47 2.048 . S
Mg39 O48 2.048 . S
Mg39 O51 2.141 1_455 S
C40 O41 1.313 1_545 S
C40 O47 1.195 . S
O41 C40 1.313 1_565 S
C42 O43 1.246 1_545 S
C42 O51 1.289 . S
O43 C42 1.246 1_565 S
C44 O45 1.244 1_455 S
C44 O46 1.290 1_565 S
O45 C44 1.244 1_655 S
O46 Mg39 2.141 . S
O46 C44 1.290 1_545 S
O47 Mg39 2.048 . S
O47 C40 1.195 . S
O48 Mg39 2.048 . S
O48 C49 1.195 . S
C49 O48 1.195 . S
C49 O50 1.313 1_445 S
O50 C49 1.313 1_665 S
O51 Mg39 2.141 1_655 S
O51 C42 1.289 . S
Mg52 O59 2.141 . S
Mg52 O60 2.048 1_655 S
Mg52 O61 2.048 . S
Mg52 O64 2.141 1_545 S
C53 O54 1.313 . S
C53 O60 1.195 . S
O54 C53 1.313 . S
C55 O56 1.245 . S
C55 O64 1.289 . S
O56 C55 1.245 . S
C57 O58 1.245 1_545 S
C57 O59 1.289 1_455 S
O58 C57 1.245 1_565 S
O59 Mg52 2.141 . S
O59 C57 1.289 1_655 S
O60 Mg52 2.048 1_455 S
O60 C53 1.195 . S
O61 Mg52 2.048 . S
O61 C62 1.195 1_655 S
C62 O61 1.195 1_455 S
C62 O63 1.313 . S
O63 C62 1.313 . S
O64 Mg52 2.141 1_565 S
O64 C55 1.289 . S
Mg65 O72 2.141 . S
Mg65 O73 2.048 1_565 S
Mg65 O74 2.048 . S
Mg65 O77 2.141 . S
C66 O67 1.313 . S
C66 O73 1.195 1_455 S
O67 C66 1.313 . S
C68 O69 1.245 . S
C68 O77 1.289 1_455 S
O69 C68 1.245 . S
C70 O71 1.245 . S
C70 O72 1.289 1_445 S
O71 C70 1.245 . S
O72 Mg65 2.141 . S
O72 C70 1.289 1_665 S
O73 Mg65 2.048 1_545 S
O73 C66 1.195 1_655 S
O74 Mg65 2.048 . S
O74 C75 1.195 1_665 S
C75 O74 1.195 1_445 S
C75 O76 1.313 . S
O76 C75 1.313 . S
O77 Mg65 2.141 . S
O77 C68 1.289 1_655 S
H78 C84 0.930 . S
H79 C88 0.930 . S
H80 C93 0.929 . S
H81 C91 0.929 . S
H82 C86 0.929 . S
H83 C92 0.929 . S
C84 H78 0.930 . S
C84 C85 1.367 1_655 S
C84 C92 1.378 . S
C85 C84 1.367 1_455 S
C85 C93 1.433 . S
C86 H82 0.929 . S
C86 C88 1.378 . S
C86 C90 1.350 . S
C87 C90 1.463 . S
C87 C92 1.350 1_455 S
C87 N95 1.427 . S
C88 H79 0.930 . S
C88 C86 1.378 . S
C88 C89 1.367 . S
C89 C88 1.367 . S
C89 C91 1.433 1_455 S
C90 C86 1.350 . S
C90 C87 1.463 . S
C90 N94 1.427 1_455 S
C91 H81 0.929 . S
C91 C89 1.433 1_655 S
C91 N94 1.384 . S
C92 H83 0.929 . S
C92 C84 1.378 . S
C92 C87 1.350 1_655 S
C93 H80 0.929 . S
C93 C85 1.433 . S
C93 N95 1.384 . S
N94 C90 1.427 1_655 S
N94 C91 1.384 . S
N95 C87 1.427 . S
N95 C93 1.384 . S
H96 C102 0.930 . S
H97 C106 0.930 . S
H98 C111 0.929 . S
H99 C109 0.929 . S
H100 C104 0.929 . S
H101 C110 0.929 . S
C102 H96 0.930 . S
C102 C103 1.367 . S
C102 C110 1.378 . S
C103 C102 1.367 . S
C103 C111 1.433 1_545 S
C104 H100 0.929 . S
C104 C106 1.378 . S
C104 C108 1.350 1_565 S
C105 C108 1.463 . S
C105 C110 1.350 . S
C105 N113 1.427 1_545 S
C106 H97 0.930 . S
C106 C104 1.378 . S
C106 C107 1.367 1_565 S
C107 C106 1.367 1_545 S
C107 C109 1.433 . S
C108 C104 1.350 1_545 S
C108 C105 1.463 . S
C108 N112 1.427 . S
C109 H99 0.929 . S
C109 C107 1.433 . S
C109 N112 1.384 . S
C110 H101 0.929 . S
C110 C102 1.378 . S
C110 C105 1.350 . S
C111 H98 0.929 . S
C111 C103 1.433 1_565 S
C111 N113 1.384 . S
N112 C108 1.427 . S
N112 C109 1.384 . S
N113 C105 1.427 1_565 S
N113 C111 1.384 . S
H114 C120 0.930 . S
H115 C124 0.930 . S
H116 C129 0.929 . S
H117 C127 0.929 . S
H118 C122 0.929 . S
H119 C128 0.929 . S
C120 H114 0.930 . S
C120 C121 1.367 . S
C120 C128 1.378 . S
C121 C120 1.367 . S
C121 C129 1.433 . S
C122 H118 0.929 . S
C122 C124 1.378 . S
C122 C126 1.350 . S
C123 C126 1.463 . S
C123 C128 1.350 . S
C123 N131 1.427 . S
C124 H115 0.930 . S
C124 C122 1.378 . S
C124 C125 1.367 . S
C125 C124 1.367 . S
C125 C127 1.433 . S
C126 C122 1.350 . S
C126 C123 1.463 . S
C126 N130 1.427 . S
C127 H117 0.929 . S
C127 C125 1.433 . S
C127 N130 1.384 . S
C128 H119 0.929 . S
C128 C120 1.378 . S
C128 C123 1.350 . S
C129 H116 0.929 . S
C129 C121 1.433 . S
C129 N131 1.384 . S
N130 C126 1.427 . S
N130 C127 1.384 . S
N131 C123 1.427 . S
N131 C129 1.384 . S
H132 C138 0.930 . S
H133 C142 0.930 . S
H134 C147 0.929 . S
H135 C145 0.929 . S
H136 C140 0.929 . S
H137 C146 0.929 . S
C138 H132 0.930 . S
C138 C139 1.367 . S
C138 C146 1.378 . S
C139 C138 1.367 . S
C139 C147 1.433 1_545 S
C140 H136 0.929 . S
C140 C142 1.378 . S
C140 C144 1.350 1_565 S
C141 C144 1.463 . S
C141 C146 1.350 . S
C141 N149 1.427 1_545 S
C142 H133 0.930 . S
C142 C140 1.378 . S
C142 C143 1.367 1_565 S
C143 C142 1.367 1_545 S
C143 C145 1.433 . S
C144 C140 1.350 1_545 S
C144 C141 1.463 . S
C144 N148 1.427 . S
C145 H135 0.929 . S
C145 C143 1.433 . S
C145 N148 1.384 . S
C146 H137 0.929 . S
C146 C138 1.378 . S
C146 C141 1.350 . S
C147 H134 0.929 . S
C147 C139 1.433 1_565 S
C147 N149 1.384 . S
N148 C144 1.427 . S
N148 C145 1.384 . S
N149 C141 1.427 1_565 S
N149 C147 1.384 . S
H150 C156 0.930 . S
H151 C160 0.930 . S
H152 C165 0.929 . S
H153 C163 0.929 . S
H154 C158 0.929 . S
H155 C164 0.929 . S
C156 H150 0.930 . S
C156 C157 1.367 . S
C156 C164 1.378 . S
C157 C156 1.367 . S
C157 C165 1.433 . S
C158 H154 0.929 . S
C158 C160 1.378 . S
C158 C162 1.350 . S
C159 C162 1.463 . S
C159 C164 1.350 . S
C159 N167 1.427 . S
C160 H151 0.930 . S
C160 C158 1.378 . S
C160 C161 1.367 . S
C161 C160 1.367 . S
C161 C163 1.433 . S
C162 C158 1.350 . S
C162 C159 1.463 . S
C162 N166 1.427 . S
C163 H153 0.929 . S
C163 C161 1.433 . S
C163 N166 1.384 . S
C164 H155 0.929 . S
C164 C156 1.378 . S
C164 C159 1.350 . S
C165 H152 0.929 . S
C165 C157 1.433 . S
C165 N167 1.384 . S
N166 C162 1.427 . S
N166 C163 1.384 . S
N167 C159 1.427 . S
N167 C165 1.384 . S
H168 C174 0.930 . S
H169 C178 0.930 . S
H170 C183 0.929 . S
H171 C181 0.929 . S
H172 C176 0.929 . S
H173 C182 0.929 . S
C174 H168 0.930 . S
C174 C175 1.367 . S
C174 C182 1.378 . S
C175 C174 1.367 . S
C175 C183 1.433 1_455 S
C176 H172 0.929 . S
C176 C178 1.378 . S
C176 C180 1.350 1_655 S
C177 C180 1.463 . S
C177 C182 1.350 . S
C177 N185 1.427 1_455 S
C178 H169 0.930 . S
C178 C176 1.378 . S
C178 C179 1.367 1_655 S
C179 C178 1.367 1_455 S
C179 C181 1.433 . S
C180 C176 1.350 1_455 S
C180 C177 1.463 . S
C180 N184 1.427 . S
C181 H171 0.929 . S
C181 C179 1.433 . S
C181 N184 1.384 . S
C182 H173 0.929 . S
C182 C174 1.378 . S
C182 C177 1.350 . S
C183 H170 0.929 . S
C183 C175 1.433 1_655 S
C183 N185 1.384 . S
N184 C180 1.427 . S
N184 C181 1.384 . S
N185 C177 1.427 1_655 S
N185 C183 1.384 . S
H186 C192 0.930 . S
H187 C196 0.930 . S
H188 C201 0.929 1_565 S
H189 C199 0.929 . S
H190 C194 0.929 1_565 S
H191 C200 0.929 . S
C192 H186 0.930 . S
C192 C193 1.367 . S
C192 C200 1.378 . S
C193 C192 1.367 . S
C193 C201 1.433 1_455 S
C194 H190 0.929 1_545 S
C194 C196 1.378 . S
C194 C198 1.350 1_655 S
C195 C198 1.463 . S
C195 C200 1.350 . S
C195 N203 1.427 1_455 S
C196 H187 0.930 . S
C196 C194 1.378 . S
C196 C197 1.367 1_655 S
C197 C196 1.367 1_455 S
C197 C199 1.433 . S
C198 C194 1.350 1_455 S
C198 C195 1.463 . S
C198 N202 1.427 . S
C199 H189 0.929 . S
C199 C197 1.433 . S
C199 N202 1.384 . S
C200 H191 0.929 . S
C200 C192 1.378 . S
C200 C195 1.350 . S
C201 H188 0.929 1_545 S
C201 C193 1.433 1_655 S
C201 N203 1.384 . S
N202 C198 1.427 . S
N202 C199 1.384 . S
N203 C195 1.427 1_655 S
N203 C201 1.384 . S
H204 C210 0.930 . S
H205 C214 0.930 . S
H206 C219 0.929 . S
H207 C217 0.929 . S
H208 C212 0.929 . S
H209 C218 0.929 . S
C210 H204 0.930 . S
C210 C211 1.367 1_665 S
C210 C218 1.378 . S
C211 C210 1.367 1_445 S
C211 C219 1.433 . S
C212 H208 0.929 . S
C212 C214 1.378 . S
C212 C216 1.350 . S
C213 C216 1.463 . S
C213 C218 1.350 1_445 S
C213 N221 1.427 . S
C214 H205 0.930 . S
C214 C212 1.378 . S
C214 C215 1.367 . S
C215 C214 1.367 . S
C215 C217 1.433 1_445 S
C216 C212 1.350 . S
C216 C213 1.463 . S
C216 N220 1.427 1_445 S
C217 H207 0.929 . S
C217 C215 1.433 1_665 S
C217 N220 1.384 . S
C218 H209 0.929 . S
C218 C210 1.378 . S
C218 C213 1.350 1_665 S
C219 H206 0.929 . S
C219 C211 1.433 . S
C219 N221 1.384 . S
N220 C216 1.427 1_665 S
N220 C217 1.384 . S
N221 C213 1.427 . S
N221 C219 1.384 . S
H222 C228 0.930 . S
H223 C232 0.927 . S
H224 C237 0.929 . S
H225 C235 0.929 . S
H226 C230 0.929 . S
H227 C236 0.929 . S
C228 H222 0.930 . S
C228 C229 1.367 . S
C228 C236 1.378 . S
C229 C228 1.367 . S
C229 C237 1.433 1_545 S
C230 H226 0.929 . S
C230 C232 1.378 . S
C230 C234 1.350 1_565 S
C231 C234 1.463 . S
C231 C236 1.350 . S
C231 N239 1.427 1_545 S
C232 H223 0.927 . S
C232 C230 1.378 . S
C232 C233 1.367 1_565 S
C233 C232 1.367 1_545 S
C233 C235 1.433 . S
C234 C230 1.350 1_545 S
C234 C231 1.463 . S
C234 N238 1.427 . S
C235 H225 0.929 . S
C235 C233 1.433 . S
C235 N238 1.384 . S
C236 H227 0.929 . S
C236 C228 1.378 . S
C236 C231 1.350 . S
C237 H224 0.929 . S
C237 C229 1.433 1_565 S
C237 N239 1.384 . S
N238 C234 1.427 . S
N238 C235 1.384 . S
N239 C231 1.427 1_565 S
N239 C237 1.384 . S
H240 C246 0.930 . S
H241 C250 0.930 . S
H242 C255 0.929 . S
H243 C253 0.929 . S
H244 C248 0.929 . S
H245 C254 0.929 . S
C246 H240 0.930 . S
C246 C247 1.367 1_665 S
C246 C254 1.378 . S
C247 C246 1.367 1_445 S
C247 C255 1.433 . S
C248 H244 0.929 . S
C248 C250 1.378 . S
C248 C252 1.350 . S
C249 C252 1.463 1_554 S
C249 C254 1.350 1_445 S
C249 N257 1.427 . S
C250 H241 0.930 . S
C250 C248 1.378 . S
C250 C251 1.367 . S
C251 C250 1.367 . S
C251 C253 1.433 1_445 S
C252 C248 1.350 . S
C252 C249 1.463 1_556 S
C252 N256 1.427 1_445 S
C253 H243 0.929 . S
C253 C251 1.433 1_665 S
C253 N256 1.384 . S
C254 H245 0.929 . S
C254 C246 1.378 . S
C254 C249 1.350 1_665 S
C255 H242 0.929 . S
C255 C247 1.433 . S
C255 N257 1.384 . S
N256 C252 1.427 1_665 S
N256 C253 1.384 . S
N257 C249 1.427 . S
N257 C255 1.384 . S
H258 C264 0.939 . S
H259 C268 0.930 . S
H260 C273 0.929 . S
H261 C271 0.929 . S
H262 C266 0.929 . S
H263 C272 0.929 . S
C264 H258 0.939 . S
C264 C265 1.367 . S
C264 C272 1.378 . S
C265 C264 1.367 . S
C265 C273 1.433 1_545 S
C266 H262 0.929 . S
C266 C268 1.378 . S
C266 C270 1.350 1_565 S
C267 C270 1.463 . S
C267 C272 1.350 . S
C267 N275 1.427 1_545 S
C268 H259 0.930 . S
C268 C266 1.378 . S
C268 C269 1.367 1_565 S
C269 C268 1.367 1_545 S
C269 C271 1.433 . S
C270 C266 1.350 1_545 S
C270 C267 1.463 . S
C270 N274 1.427 . S
C271 H261 0.929 . S
C271 C269 1.433 . S
C271 N274 1.384 . S
C272 H263 0.929 . S
C272 C264 1.378 . S
C272 C267 1.350 . S
C273 H260 0.929 . S
C273 C265 1.433 1_565 S
C273 N275 1.384 . S
N274 C270 1.427 . S
N274 C271 1.384 . S
N275 C267 1.427 1_565 S
N275 C273 1.384 . S
H276 C282 0.930 . S
H277 C286 0.930 . S
H278 C291 0.929 . S
H279 C289 0.929 . S
H280 C284 0.929 . S
H281 C290 0.929 . S
C282 H276 0.930 . S
C282 C283 1.367 1_565 S
C282 C290 1.378 . S
C283 C282 1.367 1_545 S
C283 C291 1.433 . S
C284 H280 0.929 . S
C284 C286 1.378 . S
C284 C288 1.350 . S
C285 C288 1.463 . S
C285 C290 1.350 1_545 S
C285 N293 1.427 . S
C286 H277 0.930 . S
C286 C284 1.378 . S
C286 C287 1.367 . S
C287 C286 1.367 . S
C287 C289 1.433 1_545 S
C288 C284 1.350 . S
C288 C285 1.463 . S
C288 N292 1.427 1_545 S
C289 H279 0.929 . S
C289 C287 1.433 1_565 S
C289 N292 1.384 . S
C290 H281 0.929 . S
C290 C282 1.378 . S
C290 C285 1.350 1_565 S
C291 H278 0.929 . S
C291 C283 1.433 . S
C291 N293 1.384 . S
N292 C288 1.427 1_565 S
N292 C289 1.384 . S
N293 C285 1.427 . S
N293 C291 1.384 . S
C85 C1 1.495 . S
C89 C3 1.487 . S
C103 C16 1.491 . S
C107 C14 1.492 . S
C121 C27 1.495 . S
C125 C29 1.486 . S
C139 C40 1.495 . S
C143 C42 1.485 . S
C157 C53 1.493 . S
C161 C55 1.486 . S
C175 C66 1.490 . S
C179 C68 1.492 . S
C193 C70 1.484 . S
C197 C5 1.493 . S
C211 C44 1.490 1_545 S
C215 C18 1.490 . S
C229 C31 1.494 . S
C233 C57 1.484 . S
C247 C10 1.496 . S
C251 C62 1.491 . S
C265 C75 1.492 . S
C269 C23 1.490 . S
C283 C49 1.492 . S
C287 C36 1.497 . S
