# Generated by pormake.
# Topology rkf, (6)-cn, num edge types: 1
# Building blocks:
#     Node 0, Type 0, BuildingBlock: BETDEL_clean_sbu_0, # of connection points: 6
#     Node 1, Type 0, BuildingBlock: BETDEL_clean_sbu_0, # of connection points: 6
#     Node 2, Type 0, BuildingBlock: BETDEL_clean_sbu_0, # of connection points: 6
#     Node 3, Type 0, BuildingBlock: BETDEL_clean_sbu_0, # of connection points: 6
#     Node 4, Type 0, BuildingBlock: BETDEL_clean_sbu_0, # of connection points: 6
#     Node 5, Type 0, BuildingBlock: BETDEL_clean_sbu_0, # of connection points: 6
#     Edge 6, Type (0, 0), BuildingBlock: ZUJKAS_clean_linker_0, # of connection points: 2
#     Edge 7, Type (0, 0), BuildingBlock: ZUJKAS_clean_linker_0, # of connection points: 2
#     Edge 8, Type (0, 0), BuildingBlock: ZUJKAS_clean_linker_0, # of connection points: 2
#     Edge 9, Type (0, 0), BuildingBlock: ZUJKAS_clean_linker_0, # of connection points: 2
#     Edge 10, Type (0, 0), BuildingBlock: ZUJKAS_clean_linker_0, # of connection points: 2
#     Edge 11, Type (0, 0), BuildingBlock: ZUJKAS_clean_linker_0, # of connection points: 2
#     Edge 12, Type (0, 0), BuildingBlock: ZUJKAS_clean_linker_0, # of connection points: 2
#     Edge 13, Type (0, 0), BuildingBlock: ZUJKAS_clean_linker_0, # of connection points: 2
#     Edge 14, Type (0, 0), BuildingBlock: ZUJKAS_clean_linker_0, # of connection points: 2
#     Edge 15, Type (0, 0), BuildingBlock: ZUJKAS_clean_linker_0, # of connection points: 2
#     Edge 16, Type (0, 0), BuildingBlock: ZUJKAS_clean_linker_0, # of connection points: 2
#     Edge 17, Type (0, 0), BuildingBlock: ZUJKAS_clean_linker_0, # of connection points: 2
#     Edge 18, Type (0, 0), BuildingBlock: ZUJKAS_clean_linker_0, # of connection points: 2
#     Edge 19, Type (0, 0), BuildingBlock: ZUJKAS_clean_linker_0, # of connection points: 2
#     Edge 20, Type (0, 0), BuildingBlock: ZUJKAS_clean_linker_0, # of connection points: 2
#     Edge 21, Type (0, 0), BuildingBlock: ZUJKAS_clean_linker_0, # of connection points: 2
#     Edge 22, Type (0, 0), BuildingBlock: ZUJKAS_clean_linker_0, # of connection points: 2
#     Edge 23, Type (0, 0), BuildingBlock: ZUJKAS_clean_linker_0, # of connection points: 2
# Relax obj value: 0.361
# Max RMSD: 0.269
# Mean RMSD: 0.269
data_MOF--net-rkf--node1-BETDEL_clean_sbu_0--edge1-ZUJKAS_clean_linker_0
_symmetry_space_group_name_H-M    P1
_symmetry_Int_Tables_number       1
_symmetry_cell_setting            triclinic
loop_
_symmetry_equiv_pos_as_xyz
'x, y, z'
_cell_length_a     30.695686
_cell_length_b     30.538979
_cell_length_c     53.637741
_cell_angle_alpha  89.970608
_cell_angle_beta   90.045841
_cell_angle_gamma 120.81368
loop_
_atom_site_label
_atom_site_type_symbol
_atom_site_fract_x
_atom_site_fract_y
_atom_site_fract_z
_atom_type_partial_charge
Dy0 Dy 0.23253 0.00082 0.04953 0.0
C1 C 0.26217 0.14578 0.97102 0.0
C2 C 0.20585 0.92981 0.08678 0.0
Dy3 Dy 0.27533 0.10024 1.01225 0.0
O4 O 0.18039 0.92324 0.06631 0.0
O5 O 0.24769 0.97392 0.08596 0.0
O6 O 0.15476 0.99401 0.04799 0.0
O7 O 0.20742 0.02933 1.0198 0.0
C8 C 0.16618 0.02158 0.028 0.0
C9 C 0.34593 0.0858 0.03286 0.0
O10 O 0.25665 0.12849 0.04762 0.0
O11 O 0.25167 0.06592 0.07503 0.0
O12 O 0.2923 0.17095 0.98969 0.0
O13 O 0.24018 0.0973 0.97537 0.0
O14 O 0.35521 0.11575 1.01361 0.0
O15 O 0.30275 0.0724 0.04166 0.0
O16 O 0.25649 0.97257 1.01634 0.0
O17 O 0.2763 0.04048 0.98875 0.0
C18 C 0.25426 0.10996 0.07053 0.0
C19 C 0.27021 0.99519 0.99405 0.0
Dy20 Dy 0.20179 0.2416 0.38068 0.0
C21 C 0.13126 0.34368 0.31439 0.0
C22 C 0.23685 0.19554 0.41248 0.0
Dy23 Dy 0.17494 0.315 0.35058 0.0
O24 O 0.20387 0.17265 0.39467 0.0
O25 O 0.25302 0.24413 0.41167 0.0
O26 O 0.11668 0.18838 0.38752 0.0
O27 O 0.142 0.23547 0.35733 0.0
C28 C 0.10263 0.20504 0.3687 0.0
C29 C 0.26628 0.36172 0.3724 0.0
O30 O 0.14276 0.31268 0.38872 0.0
O31 O 0.19468 0.28988 0.40952 0.0
O32 O 0.11018 0.32232 0.33553 0.0
O33 O 0.17778 0.35334 0.31422 0.0
O34 O 0.24078 0.38409 0.36734 0.0
O35 O 0.2443 0.31745 0.36298 0.0
O36 O 0.22513 0.23111 0.3422 0.0
O37 O 0.18868 0.27162 0.32092 0.0
C38 C 0.16359 0.30784 0.40952 0.0
C39 C 0.21074 0.2438 0.32122 0.0
Dy40 Dy 0.99211 0.22146 0.71492 0.0
C41 C 0.83111 0.13399 0.64208 0.0
C42 C 0.06591 0.25581 0.75096 0.0
Dy43 Dy 0.89346 0.19012 0.68055 0.0
O44 O 0.06876 0.23838 0.72917 0.0
O45 O 0.02439 0.25738 0.75215 0.0
O46 O 0.97326 0.1388 0.71167 0.0
O47 O 0.95066 0.17076 0.68499 0.0
C48 C 0.9466 0.12979 0.69146 0.0
C49 C 0.92223 0.27115 0.71007 0.0
O50 O 0.85733 0.1473 0.71601 0.0
O51 O 0.92816 0.1911 0.74191 0.0
O52 O 0.8389 0.11548 0.66233 0.0
O53 O 0.85447 0.18365 0.64379 0.0
O54 O 0.87648 0.24448 0.70052 0.0
O55 O 0.95021 0.25639 0.70061 0.0
O56 O 0.03098 0.26925 0.68074 0.0
O57 O 0.95857 0.2381 0.65506 0.0
C58 C 0.87918 0.15922 0.73833 0.0
C59 C 0.00838 0.26667 0.65896 0.0
Dy60 Dy 0.83865 0.08288 0.04753 0.0
C61 C 0.80879 0.91418 0.98589 0.0
C62 C 0.87075 0.15786 0.08308 0.0
Dy63 Dy 0.80284 0.97618 1.0211 0.0
O64 O 0.89904 0.15369 0.06642 0.0
O65 O 0.82352 0.12237 0.07938 0.0
O66 O 0.90115 0.12 1.01956 0.0
O67 O 0.87366 0.04424 0.03047 0.0
C68 C 0.90232 0.07875 1.01534 0.0
C69 C 0.73241 0.97983 0.04868 0.0
O70 O 0.82308 0.95775 0.05804 0.0
O71 O 0.83582 0.03115 0.07812 0.0
O72 O 0.77269 0.92459 0.98731 0.0
O73 O 0.83954 0.93514 1.00458 0.0
O74 O 0.73028 0.93699 0.04321 0.0
O75 O 0.76752 0.01579 0.0364 0.0
O76 O 0.80343 0.09531 1.01354 0.0
O77 O 0.79974 0.02699 0.99154 0.0
C78 C 0.83142 0.9856 0.07842 0.0
C79 C 0.79613 0.06863 0.99263 0.0
Dy80 Dy 0.84776 0.8271 0.38394 0.0
C81 C 0.94648 0.75208 0.31943 0.0
C82 C 0.81017 0.86552 0.41881 0.0
Dy83 Dy 0.889 0.76501 0.35474 0.0
O84 O 0.83665 0.88956 0.39929 0.0
O85 O 0.80214 0.81934 0.41868 0.0
O86 O 0.91216 0.90131 0.36922 0.0
O87 O 0.92049 0.8386 0.37186 0.0
C88 C 0.94087 0.88321 0.36347 0.0
C89 C 0.79815 0.70805 0.37566 0.0
O90 O 0.91628 0.76143 0.39318 0.0
O91 O 0.87143 0.79329 0.41421 0.0
O92 O 0.89719 0.72608 0.32071 0.0
O93 O 0.96421 0.78274 0.33844 0.0
O94 O 0.82936 0.69162 0.37134 0.0
O95 O 0.81495 0.75188 0.36614 0.0
O96 O 0.80935 0.82055 0.34739 0.0
O97 O 0.85625 0.79272 0.32536 0.0
C98 C 0.89959 0.7718 0.41396 0.0
C99 C 0.82465 0.81024 0.32618 0.0
Dy100 Dy 0.07517 0.8592 0.72069 0.0
C101 C 0.22474 0.94205 0.64179 0.0
C102 C 0.01118 0.83133 0.76112 0.0
Dy103 Dy 0.16748 0.89044 0.68302 0.0
O104 O 0.00251 0.84373 0.73929 0.0
O105 O 0.05383 0.83197 0.76049 0.0
O106 O 0.06507 0.92296 0.70623 0.0
O107 O 0.13397 0.92742 0.70249 0.0
C108 C 0.10934 0.94792 0.69587 0.0
C109 C 0.13575 0.80331 0.70758 0.0
O110 O 0.21213 0.92091 0.71856 0.0
O111 O 0.14226 0.88444 0.74573 0.0
O112 O 0.19835 0.89269 0.64439 0.0
O113 O 0.22279 0.96292 0.66259 0.0
O114 O 0.18168 0.83071 0.69839 0.0
O115 O 0.10828 0.82083 0.70044 0.0
O116 O 0.03041 0.81043 0.68825 0.0
O117 O 0.09656 0.85113 0.65952 0.0
C118 C 0.19174 0.90925 0.74128 0.0
C119 C 0.04804 0.82018 0.66505 0.0
H120 H 0.93231 0.01157 1.00543 0.0
H121 H 0.9623 0.99807 0.96631 0.0
H122 H 0.93408 0.10846 0.9307 0.0
H123 H 0.90375 0.12161 0.97049 0.0
H124 H 0.9629 0.98484 0.91297 0.0
H125 H 0.08033 0.18724 0.9186 0.0
H126 H 0.03338 0.17266 0.94212 0.0
H127 H 0.01404 0.15585 0.90995 0.0
C128 C 0.93133 0.03189 0.98908 0.0
C129 C 0.91692 0.06825 0.99102 0.0
C130 C 0.94806 0.02394 0.96639 0.0
C131 C 0.95212 0.05338 0.94519 0.0
C132 C 0.93261 0.08605 0.94666 0.0
H133 H 0.18818 0.11332 1.01129 0.0
H134 H 0.15346 0.12814 0.97417 0.0
C135 C 0.91597 0.0941 0.96952 0.0
C136 C 0.99027 0.06169 0.92574 0.0
H137 H 0.10478 0.14047 0.95022 0.0
C138 C -0.00499 0.01929 0.92032 0.0
C139 C 0.03654 0.10795 0.92895 0.0
C140 C 0.04112 0.15875 0.92452 0.0
C141 C 0.03562 0.01685 0.93098 0.0
C142 C 0.07 0.05787 0.94653 0.0
C143 C 0.0748 0.10569 0.94203 0.0
C144 C 0.0915 0.0495 0.96995 0.0
C145 C 0.03958 0.97036 0.92642 0.0
C146 C 0.06649 0.00186 0.98233 0.0
C147 C 0.0879 0.99325 1.00341 0.0
C148 C 0.1332 0.03287 1.01321 0.0
C149 C 0.15383 0.08193 1.00343 0.0
C150 C 0.13386 0.09013 0.98183 0.0
H151 H 0.03596 0.96184 0.90614 0.0
H152 H 0.07626 0.97573 0.93311 0.0
H153 H 0.00763 0.93673 0.93566 0.0
H154 H 0.03084 0.97065 0.97566 0.0
H155 H 0.07086 0.95507 1.01101 0.0
H156 H 0.94263 0.84164 0.31786 0.0
H157 H 0.9659 0.89236 0.28021 0.0
H158 H 0.05088 0.02828 0.32463 0.0
H159 H 0.0225 0.97767 0.36224 0.0
H160 H 0.91607 0.94792 0.2883 0.0
H161 H 0.10525 0.08556 0.25464 0.0
H162 H 0.08464 0.01889 0.25963 0.0
H163 H 0.11237 0.06447 0.28474 0.0
C164 C 0.96755 0.88189 0.31966 0.0
C165 C 0.97811 0.90582 0.34308 0.0
C166 C 0.9819 0.91103 0.29785 0.0
C167 C 0.00879 0.96429 0.29948 0.0
C168 C 0.0296 0.98715 0.32269 0.0
H169 H 0.02628 0.10617 0.37673 0.0
H170 H 0.97373 0.0493 0.34345 0.0
C171 C 0.0132 0.95816 0.34443 0.0
C172 C -0.0032 0.99427 0.28208 0.0
H173 H 0.06365 0.12295 0.28188 0.0
C174 C 0.94779 0.98634 0.28553 0.0
C175 C 0.03605 0.04368 0.27572 0.0
C176 C 0.0874 0.05343 0.26809 0.0
C177 C 0.94235 0.02724 0.29309 0.0
C178 C 0.98617 0.07607 0.29464 0.0
C179 C 0.03038 0.08492 0.28221 0.0
C180 C -0.00591 0.10944 0.31624 0.0
C181 C 0.89228 0.01673 0.30336 0.0
C182 C 0.01949 0.16217 0.31274 0.0
C183 C 0.04991 0.19442 0.33173 0.0
C184 C 0.05513 0.17464 0.35451 0.0
C185 C 0.02309 0.12259 0.35942 0.0
C186 C 0.99265 0.09006 0.34031 0.0
H187 H 0.86115 0.99103 0.29059 0.0
H188 H 0.88522 0.99691 0.32157 0.0
H189 H 0.89138 0.05235 0.30594 0.0
H190 H 0.02153 0.17796 0.29438 0.0
H191 H 0.07464 0.23391 0.32713 0.0
H192 H 0.09876 0.02974 0.69274 0.0
H193 H 0.07939 0.06019 0.65491 0.0
H194 H 0.11355 0.96356 0.61068 0.0
H195 H 0.13558 0.93586 0.64841 0.0
H196 H 0.00802 0.93229 0.61411 0.0
H197 H 0.11324 0.13194 0.5855 0.0
H198 H 0.14396 0.0963 0.59321 0.0
H199 H 0.12952 0.12824 0.61726 0.0
C200 C 0.10525 0.01748 0.67488 0.0
C201 C 0.11813 0.97976 0.67364 0.0
C202 C 0.09452 0.03512 0.65312 0.0
C203 C 0.09486 0.01395 0.62984 0.0
C204 C 0.11353 0.98084 0.62832 0.0
H205 H 0.92223 0.1286 0.64273 0.0
H206 H 0.93155 0.08036 0.6094 0.0
C207 C 0.12575 0.9645 0.65013 0.0
C208 C 0.06033 0.01323 0.61049 0.0
H209 H 0.02701 0.10247 0.60555 0.0
C210 C 0.01183 0.96914 0.61072 0.0
C211 C 0.06469 0.0598 0.60366 0.0
C212 C 0.11589 0.10663 0.59952 0.0
C213 C 0.969 0.97381 0.61358 0.0
C214 C 0.97605 0.02316 0.61492 0.0
C215 C 0.02189 0.0646 0.6061 0.0
C216 C 0.94893 0.03528 0.63395 0.0
C217 C 0.91859 0.92711 0.61938 0.0
C218 C 0.95261 0.02389 0.65909 0.0
C219 C 0.94702 0.05139 0.67838 0.0
C220 C 0.9377 0.09061 0.67276 0.0
C221 C 0.92852 0.09798 0.64778 0.0
C222 C 0.93391 0.07043 0.62855 0.0
H223 H 0.9125 0.8948 0.60738 0.0
H224 H 0.91843 0.91568 0.63905 0.0
H225 H 0.88689 0.93427 0.61664 0.0
H226 H 0.96541 0.9978 0.66381 0.0
H227 H 0.95439 0.04503 0.69739 0.0
H228 H 0.30445 0.24627 0.95517 0.0
H229 H 0.28171 0.2764 0.91747 0.0
H230 H 0.16796 0.12122 0.89948 0.0
H231 H 0.19268 0.09132 0.93561 0.0
H232 H 0.21367 0.16384 0.85961 0.0
H233 H 0.1659 0.29672 0.90502 0.0
H234 H 0.23042 0.31362 0.91018 0.0
H235 H 0.17942 0.25481 0.92264 0.0
C236 C 0.2748 0.2188 0.94304 0.0
C237 C 0.25034 0.16645 0.9485 0.0
C238 C 0.26133 0.23604 0.9216 0.0
C239 C 0.22233 0.2013 0.90558 0.0
C240 C 0.19822 0.1491 0.91123 0.0
H241 H 0.04045 0.25265 0.79976 0.0
H242 H 0.08289 0.2438 0.83622 0.0
C243 C 0.21239 0.13198 0.9321 0.0
C244 C 0.20683 0.21789 0.88251 0.0
H245 H 0.16396 0.29464 0.86088 0.0
C246 C 0.20283 0.19251 0.85997 0.0
C247 C 0.19194 0.25484 0.88277 0.0
C248 C 0.19159 0.28122 0.90648 0.0
C249 C 0.18329 0.2017 0.83811 0.0
C250 C 0.16971 0.23969 0.83813 0.0
C251 C 0.17476 0.26595 0.86055 0.0
C252 C 0.14665 0.24996 0.81576 0.0
C253 C 0.17489 0.16827 0.81573 0.0
C254 C 0.16867 0.25821 0.79186 0.0
C255 C 0.14352 0.26191 0.77075 0.0
C256 C 0.09676 0.25951 0.77316 0.0
C257 C 0.07656 0.25491 0.79721 0.0
C258 C 0.10092 0.2498 0.81817 0.0
H259 H 0.17235 0.1319 0.82113 0.0
H260 H 0.13955 0.15897 0.80568 0.0
H261 H 0.20742 0.18842 0.80277 0.0
H262 H 0.20481 0.26064 0.78938 0.0
H263 H 0.1602 0.26574 0.7525 0.0
H264 H 0.16841 0.37377 0.26733 0.0
H265 H 0.12 0.35093 0.22838 0.0
H266 H 0.98034 0.27827 0.27014 0.0
H267 H 0.02865 0.30144 0.30918 0.0
H268 H 0.05443 0.25097 0.21413 0.0
H269 H 0.95124 0.35619 0.21696 0.0
H270 H 0.00556 0.37295 0.23648 0.0
H271 H 0.94445 0.3195 0.24442 0.0
C272 C 0.12741 0.35432 0.26825 0.0
C273 C 0.10244 0.33988 0.29139 0.0
C274 C 0.09972 0.34096 0.24594 0.0
C275 C 0.04639 0.31313 0.2462 0.0
C276 C 0.02136 0.30059 0.26934 0.0
H277 H 0.82257 0.14972 0.12764 0.0
H278 H 0.86328 0.18927 0.16759 0.0
C279 C 0.04908 0.31393 0.29171 0.0
C280 C 0.01749 0.29309 0.22239 0.0
H281 H 0.9274 0.29402 0.185 0.0
C282 C 0.02689 0.26069 0.20774 0.0
C283 C 0.98096 0.30509 0.21411 0.0
C284 C 0.9701 0.34067 0.22866 0.0
C285 C 0.0009 0.23995 0.18522 0.0
C286 C 0.96503 0.25262 0.17668 0.0
C287 C 0.95497 0.28443 0.19146 0.0
C288 C 0.93882 0.23386 0.15216 0.0
C289 C 0.01155 0.20386 0.17093 0.0
C290 C 0.96721 0.2474 0.13003 0.0
C291 C 0.9441 0.22505 0.10731 0.0
C292 C 0.8919 0.18888 0.10608 0.0
C293 C 0.86277 0.17773 0.12794 0.0
C294 C 0.88606 0.20013 0.1508 0.0
H295 H 0.02939 0.18768 0.18293 0.0
H296 H 0.97616 0.17197 0.16282 0.0
H297 H 0.03807 0.22483 0.15542 0.0
H298 H 0.00775 0.274 0.13048 0.0
H299 H 0.96763 0.23453 0.09082 0.0
H300 H 0.83722 0.17053 0.59469 0.0
H301 H 0.82359 0.12386 0.55543 0.0
H302 H 0.7753 0.98524 0.59669 0.0
H303 H 0.78861 0.03151 0.63583 0.0
H304 H 0.87519 0.07329 0.54238 0.0
H305 H 0.66751 0.93776 0.5417 0.0
H306 H 0.69703 0.9939 0.56119 0.0
H307 H 0.69834 0.93788 0.57019 0.0
C308 C 0.82224 0.12981 0.59536 0.0
C309 C 0.81341 0.10464 0.6184 0.0
C310 C 0.81482 0.10321 0.5729 0.0
C311 C 0.79788 0.0508 0.57299 0.0
C312 C 0.78734 0.02532 0.59599 0.0
H313 H 0.77153 0.82538 0.46488 0.0
H314 H 0.76671 0.87077 0.50158 0.0
C315 C 0.79497 0.0519 0.61842 0.0
C316 C 0.79544 0.02373 0.54934 0.0
H317 H 0.71637 0.92191 0.51253 0.0
C318 C 0.84033 0.04053 0.53571 0.0
C319 C 0.75013 0.98058 0.54073 0.0
C320 C 0.70038 0.96162 0.55406 0.0
C321 C 0.84146 0.01483 0.51414 0.0
C322 C 0.79612 0.97162 0.50547 0.0
C323 C 0.75112 0.95497 0.51905 0.0
C324 C 0.79502 0.94294 0.48262 0.0
C325 C 0.89173 0.03327 0.50137 0.0
C326 C 0.81079 0.96766 0.45943 0.0
C327 C 0.81364 0.9418 0.43847 0.0
C328 C 0.8002 0.89039 0.4401 0.0
C329 C 0.78201 0.86491 0.46298 0.0
C330 C 0.77937 0.8909 0.484 0.0
H331 H 0.92419 0.05708 0.51397 0.0
H332 H 0.89515 0.00076 0.49467 0.0
H333 H 0.89472 0.05699 0.48505 0.0
H334 H 0.82184 0.00735 0.45761 0.0
H335 H 0.82764 0.9625 0.4211 0.0
H336 H 0.88799 0.89865 0.97961 0.0
H337 H 0.91475 0.87621 0.94111 0.0
H338 H 0.78401 0.86116 0.90302 0.0
H339 H 0.75728 0.88415 0.94154 0.0
H340 H 0.86934 0.79184 0.91004 0.0
H341 H 0.90152 0.96498 0.86032 0.0
H342 H 0.88325 0.95395 0.89269 0.0
H343 H 0.83634 0.92313 0.86872 0.0
C344 C 0.86448 0.88979 0.96314 0.0
C345 C 0.82045 0.8931 0.96363 0.0
C346 C 0.87998 0.87719 0.94108 0.0
C347 C 0.85201 0.86791 0.91897 0.0
C348 C 0.8068 0.86907 0.91969 0.0
H349 H 0.92113 0.82888 0.7649 0.0
H350 H 0.87893 0.83239 0.803 0.0
C351 C 0.79126 0.88171 0.94178 0.0
C352 C 0.87094 0.85813 0.8952 0.0
H353 H 0.91198 0.90517 0.83654 0.0
C354 C 0.87865 0.81662 0.89396 0.0
C355 C 0.88279 0.89018 0.87408 0.0
C356 C 0.87601 0.9358 0.87405 0.0
C357 C 0.89741 0.80603 0.87224 0.0
C358 C 0.91049 0.83881 0.85131 0.0
C359 C 0.9022 0.88 0.85249 0.0
C360 C 0.93384 0.83201 0.82823 0.0
C361 C 0.90184 0.75906 0.87183 0.0
C362 C 0.97864 0.8301 0.8295 0.0
C363 C 0.00236 0.82729 0.80772 0.0
C364 C 0.98237 0.82725 0.78412 0.0
C365 C 0.93726 0.82848 0.78281 0.0
C366 C 0.91325 0.83076 0.80461 0.0
H367 H 0.87507 0.72983 0.88519 0.0
H368 H 0.89426 0.74181 0.85294 0.0
H369 H 0.94083 0.76963 0.87745 0.0
H370 H -0.00368 0.83249 0.84732 0.0
H371 H 0.03747 0.82717 0.80935 0.0
H372 H 0.91142 0.70342 0.2747 0.0
H373 H 0.95773 0.72375 0.23511 0.0
H374 H 0.0941 0.83628 0.27239 0.0
H375 H 0.0481 0.81583 0.31199 0.0
H376 H 0.0035 0.8187 0.21234 0.0
H377 H 0.14651 0.76262 0.22936 0.0
H378 H 0.09096 0.74066 0.24869 0.0
H379 H 0.14501 0.80362 0.2529 0.0
C380 C 0.9516 0.73151 0.27459 0.0
C381 C 0.9762 0.75762 0.29656 0.0
C382 C 0.978 0.74333 0.2519 0.0
C383 C 0.02965 0.78122 0.2507 0.0
C384 C 0.05464 0.80616 0.27282 0.0
H385 H 0.24726 0.95035 0.13354 0.0
H386 H 0.20425 0.91071 0.17282 0.0
C387 C 0.02823 0.79444 0.29549 0.0
C388 C 0.05613 0.79768 0.22611 0.0
H389 H 0.15892 0.81353 0.19334 0.0
C390 C 0.03716 0.81703 0.20809 0.0
C391 C 0.10041 0.79606 0.2206 0.0
C392 C 0.12177 0.77421 0.2388 0.0
C393 C 0.06173 0.83583 0.18506 0.0
C394 C 0.10604 0.83421 0.1795 0.0
C395 C 0.12492 0.81463 0.19748 0.0
C396 C 0.13399 0.85422 0.15545 0.0
C397 C 0.04093 0.85899 0.16727 0.0
C398 C 0.10978 0.83441 0.13245 0.0
C399 C 0.13434 0.85704 0.10996 0.0
C400 C 0.18385 0.89968 0.10995 0.0
C401 C 0.20919 0.91745 0.13289 0.0
C402 C 0.18454 0.89491 0.15539 0.0
H403 H 0.01531 0.86932 0.17682 0.0
H404 H 0.07205 0.8937 0.15825 0.0
H405 H 0.01875 0.83092 0.15247 0.0
H406 H 0.07127 0.80229 0.13191 0.0
H407 H 0.11377 0.84241 0.09262 0.0
H408 H 0.27078 0.04469 0.63299 0.0
H409 H 0.27901 0.08729 0.59294 0.0
H410 H 0.21372 0.9427 0.55516 0.0
H411 H 0.20578 0.89995 0.59508 0.0
H412 H 0.32855 0.08244 0.54392 0.0
H413 H 0.12049 0.00521 0.53852 0.0
H414 H 0.15281 0.01309 0.56781 0.0
H415 H 0.14153 0.96206 0.54726 0.0
C416 C 0.25929 0.02211 0.61609 0.0
C417 C 0.23808 0.96891 0.61727 0.0
C418 C 0.26376 0.04651 0.5932 0.0
C419 C 0.24656 0.01823 0.571 0.0
C420 C 0.22696 0.96536 0.57201 0.0
H421 H 0.19532 0.09282 0.42001 0.0
H422 H 0.20064 0.04991 0.4576 0.0
C423 C 0.22286 0.94099 0.59486 0.0
C424 C 0.24731 0.04359 0.54698 0.0
H425 H 0.16992 0.05436 0.50455 0.0
C426 C 0.2939 0.07635 0.5353 0.0
C427 C 0.20214 0.03569 0.53569 0.0
C428 C 0.15125 0.00239 0.5479 0.0
C429 C 0.29646 0.1007 0.51249 0.0
C430 C 0.25125 0.09311 0.5012 0.0
C431 C 0.20465 0.06021 0.51297 0.0
C432 C 0.2513 0.11945 0.4775 0.0
C433 C 0.3476 0.13345 0.50044 0.0
C434 C 0.27825 0.17301 0.47582 0.0
C435 C 0.27551 0.1976 0.45423 0.0
C436 C 0.24546 0.16934 0.43379 0.0
C437 C 0.21925 0.11578 0.43527 0.0
C438 C 0.22202 0.09118 0.45687 0.0
H439 H 0.37552 0.12318 0.50706 0.0
H440 H 0.34489 0.1299 0.47981 0.0
H441 H 0.36234 0.17395 0.50538 0.0
H442 H 0.30018 0.19599 0.49153 0.0
H443 H 0.29561 0.23888 0.4539 0.0
H444 H 0.34121 0.03643 0.07629 0.0
H445 H 0.39663 0.00407 0.08894 0.0
H446 H 0.48264 0.06398 1.0211 0.0
H447 H 0.42675 0.09475 1.0082 0.0
H448 H 0.45393 0.96199 0.03178 0.0
H449 H 0.54582 0.09151 0.11281 0.0
H450 H 0.47761 0.05435 0.11203 0.0
H451 H 0.51107 0.10386 0.08946 0.0
C452 C 0.37161 0.04204 0.06406 0.0
C453 C 0.37949 0.06752 0.04121 0.0
C454 C 0.40352 0.02413 0.07139 0.0
C455 C 0.44382 0.0319 0.05598 0.0
C456 C 0.45168 0.05755 0.03323 0.0
H457 H 0.72665 0.06488 0.05432 0.0
H458 H 0.65076 0.06881 0.06282 0.0
C459 C 0.4199 0.0753 0.02593 0.0
C460 C 0.4782 0.01337 0.06299 0.0
H461 H 0.579 0.04071 0.10041 0.0
C462 C 0.48069 0.9783 0.04709 0.0
C463 C 0.51291 0.03496 0.08296 0.0
C464 C 0.51223 0.07349 0.1003 0.0
C465 C 0.51913 0.9667 0.04956 0.0
C466 C 0.55534 0.99 0.06889 0.0
C467 C 0.55092 0.02267 0.08576 0.0
C468 C 0.60235 0.9877 0.06912 0.0
C469 C 0.52286 0.93271 0.03029 0.0
C470 C 0.60089 0.94109 0.07105 0.0
C471 C 0.64434 0.93869 0.06595 0.0
C472 C 0.68968 0.98295 0.05906 0.0
C473 C 0.69205 0.03009 0.05935 0.0
C474 C 0.64874 0.03242 0.0643 0.0
H475 H 0.49656 0.9245 1.01438 0.0
H476 H 0.5621 0.9506 1.02289 0.0
H477 H 0.51316 0.89588 0.03904 0.0
H478 H 0.56564 0.9063 0.07524 0.0
H479 H 0.64172 0.90195 0.06611 0.0
H480 H 0.33786 0.33354 0.36877 0.0
H481 H 0.42985 0.38888 0.3753 0.0
H482 H 0.40754 0.51068 0.39927 0.0
H483 H 0.31612 0.45606 0.39275 0.0
H484 H 0.47987 0.51223 0.35009 0.0
H485 H 0.51564 0.47644 0.44778 0.0
H486 H 0.46841 0.42555 0.42858 0.0
H487 H 0.45734 0.47423 0.43978 0.0
C488 C 0.35256 0.37175 0.37594 0.0
C489 C 0.32005 0.39077 0.38004 0.0
C490 C 0.40495 0.40322 0.37964 0.0
C491 C 0.42517 0.4537 0.38776 0.0
C492 C 0.39247 0.47174 0.3931 0.0
H493 H 0.72131 0.72872 0.37623 0.0
H494 H 0.63042 0.6672 0.38132 0.0
C495 C 0.34035 0.44053 0.38931 0.0
C496 C 0.48053 0.48967 0.38801 0.0
H497 H 0.58538 0.54084 0.42535 0.0
C498 C 0.5031 0.51847 0.36648 0.0
C499 C 0.51032 0.49737 0.40942 0.0
C500 C 0.48709 0.4669 0.43282 0.0
C501 C 0.55501 0.55518 0.3658 0.0
C502 C 0.58485 0.56398 0.38745 0.0
C503 C 0.56231 0.53446 0.40889 0.0
C504 C 0.63987 0.60252 0.38768 0.0
C505 C 0.5776 0.58362 0.34178 0.0
C506 C 0.67535 0.58702 0.39084 0.0
C507 C 0.72716 0.62209 0.38811 0.0
C508 C 0.74437 0.67327 0.38222 0.0
C509 C 0.70905 0.68941 0.38055 0.0
C510 C 0.65717 0.65428 0.38332 0.0
H511 H 0.55274 0.56383 0.32552 0.0
H512 H 0.58246 0.62215 0.34306 0.0
H513 H 0.6154 0.58824 0.33833 0.0
H514 H 0.66282 0.54736 0.39438 0.0
H515 H 0.75358 0.60866 0.3897 0.0
H516 H 0.87235 0.32272 0.71776 0.0
H517 H 0.91099 0.41415 0.72601 0.0
H518 H 0.05741 0.42807 0.73376 0.0
H519 H 0.01925 0.33699 0.72499 0.0
H520 H 0.97343 0.4844 0.76394 0.0
H521 H 0.07418 0.51863 0.67347 0.0
H522 H 0.02328 0.45646 0.68271 0.0
H523 H 0.08582 0.48134 0.69541 0.0
C524 C 0.9126 0.34508 0.72174 0.0
C525 C 0.94297 0.32298 0.72035 0.0
C526 C 0.9346 0.39729 0.72647 0.0
C527 C 0.98721 0.42805 0.72994 0.0
C528 C 0.01688 0.40516 0.73063 0.0
H529 H 0.18819 0.75637 0.71934 0.0
H530 H 0.15319 0.66614 0.7292 0.0
C531 C -0.00501 0.35309 0.72576 0.0
C532 C 0.01155 0.48439 0.73027 0.0
H533 H 0.09135 0.59093 0.69676 0.0
C534 C -0.0006 0.50782 0.74934 0.0
C535 C 0.04512 0.51478 0.71107 0.0
C536 C 0.05763 0.49165 0.68936 0.0
C537 C 0.02041 0.561 0.74985 0.0
C538 C 0.05377 0.59126 0.73057 0.0
C539 C 0.06613 0.56775 0.71165 0.0
C540 C 0.07489 0.64712 0.72875 0.0
C541 C 0.00712 0.58435 0.7711 0.0
C542 C 0.04258 0.66667 0.72573 0.0
C543 C 0.06254 0.71828 0.72016 0.0
C544 C 0.11511 0.75102 0.71722 0.0
C545 C 0.1475 0.73193 0.72138 0.0
C546 C 0.12756 0.68042 0.72702 0.0
H547 H -0.00616 0.55897 0.78768 0.0
H548 H 0.04014 0.6218 0.77655 0.0
H549 H 0.976 0.59047 0.76515 0.0
H550 H 0.0018 0.64159 0.72646 0.0
H551 H 0.03667 0.73197 0.71704 0.0
H552 H 0.3235 0.13739 0.10692 0.0
H553 H 0.31848 0.1641 0.14922 0.0
H554 H 0.18717 0.17238 0.12837 0.0
H555 H 0.19211 0.14519 0.08569 0.0
H556 H 0.3174 0.2471 0.17098 0.0
H557 H 0.13504 0.06514 0.18472 0.0
H558 H 0.17573 0.07609 0.15828 0.0
H559 H 0.13611 0.10354 0.15906 0.0
C560 C 0.29451 0.14651 0.11115 0.0
C561 C 0.25845 0.13972 0.09303 0.0
C562 C 0.29151 0.16148 0.13538 0.0
C563 C 0.25191 0.16929 0.14215 0.0
C564 C 0.21763 0.16578 0.12365 0.0
H565 H 0.14929 0.22309 0.28137 0.0
H566 H 0.161 0.20284 0.23901 0.0
C567 C 0.22087 0.15106 0.09919 0.0
C568 C 0.24503 0.17746 0.16891 0.0
H569 H 0.16497 0.12282 0.21844 0.0
C570 C 0.28406 0.21998 0.18138 0.0
C571 C 0.20189 0.14161 0.18258 0.0
C572 C 0.15992 0.09375 0.17062 0.0
C573 C 0.28047 0.22838 0.20692 0.0
C574 C 0.23712 0.19272 0.22054 0.0
C575 C 0.19833 0.14999 0.20809 0.0
C576 C 0.22919 0.20124 0.24711 0.0
C577 C 0.32244 0.27612 0.21893 0.0
C578 C 0.2627 0.20538 0.2662 0.0
C579 C 0.25601 0.217 0.29079 0.0
C580 C 0.2159 0.22491 0.29652 0.0
C581 C 0.18123 0.21823 0.27755 0.0
C582 C 0.18771 0.20642 0.25325 0.0
H583 H 0.34772 0.30455 0.20487 0.0
H584 H 0.30662 0.29405 0.23107 0.0
H585 H 0.34582 0.26612 0.23071 0.0
H586 H 0.29439 0.20039 0.26202 0.0
H587 H 0.28313 0.22165 0.30501 0.0
H588 H 0.22177 0.33216 0.45101 0.0
H589 H 0.19958 0.34096 0.49337 0.0
H590 H 0.0594 0.32524 0.46711 0.0
H591 H 0.08098 0.31484 0.42415 0.0
H592 H 0.178 0.40491 0.51809 0.0
H593 H 0.01034 0.20806 0.51638 0.0
H594 H 0.05716 0.23244 0.49189 0.0
H595 H 0.00968 0.25017 0.49321 0.0
C596 C 0.18625 0.33088 0.45408 0.0
C597 C 0.15261 0.32179 0.43421 0.0
C598 C 0.1738 0.33625 0.4784 0.0
C599 C 0.12739 0.33268 0.48356 0.0
C600 C 0.095 0.32699 0.46361 0.0
H601 H 0.98217 0.31255 0.62405 0.0
H602 H 0.01689 0.33713 0.58208 0.0
C603 C 0.10751 0.32153 0.43906 0.0
C604 C 0.11232 0.33149 0.51001 0.0
H605 H 0.02607 0.25426 0.55371 0.0
C606 C 0.14461 0.37209 0.52585 0.0
C607 C 0.06923 0.28824 0.52025 0.0
C608 C 0.03479 0.242 0.50467 0.0
C609 C 0.13478 0.3706 0.55155 0.0
C610 C 0.09168 0.32754 0.5616 0.0
C611 C 0.05915 0.28725 0.54583 0.0
C612 C 0.0784 0.32338 0.58838 0.0
C613 C 0.17015 0.41487 0.56789 0.0
C614 C 0.10281 0.30938 0.60614 0.0
C615 C 0.08301 0.29532 0.63036 0.0
C616 C 0.03841 0.29476 0.63686 0.0
C617 C 0.01655 0.3125 0.61952 0.0
C618 C 0.03626 0.32652 0.59552 0.0
H619 H 0.19981 0.44738 0.55693 0.0
H620 H 0.1483 0.4281 0.57879 0.0
H621 H 0.18898 0.40229 0.58138 0.0
H622 H 0.13517 0.3063 0.60083 0.0
H623 H 0.10014 0.28115 0.64324 0.0
H624 H 0.81308 0.18453 0.75752 0.0
H625 H 0.78663 0.175 0.80144 0.0
H626 H 0.85426 0.0834 0.81498 0.0
H627 H 0.88198 0.09436 0.77147 0.0
H628 H 0.73113 0.09728 0.83533 0.0
H629 H 0.93417 0.2036 0.86142 0.0
H630 H 0.91314 0.19841 0.82957 0.0
H631 H 0.91793 0.14751 0.84368 0.0
C632 C 0.82041 0.16073 0.76972 0.0
C633 C 0.8488 0.13948 0.76117 0.0
C634 C 0.80585 0.15578 0.79484 0.0
C635 C 0.81972 0.12968 0.81166 0.0
C636 C 0.84427 0.1048 0.80251 0.0
H637 H 0.73569 0.00832 0.95569 0.0
H638 H 0.73642 0.03156 0.91231 0.0
C639 C 0.85933 0.11029 0.77758 0.0
C640 C 0.81198 0.1312 0.83896 0.0
H641 H 0.87524 0.15964 0.89451 0.0
C642 C 0.76267 0.11148 0.84827 0.0
C643 C 0.85327 0.15126 0.85589 0.0
C644 C 0.90763 0.17691 0.84713 0.0
C645 C 0.75328 0.10826 0.87409 0.0
C646 C 0.79417 0.12436 0.89102 0.0
C647 C 0.84374 0.14695 0.88164 0.0
C648 C 0.78631 0.11259 0.91816 0.0
C649 C 0.69951 0.08708 0.88293 0.0
C650 C 0.81365 0.15041 0.93625 0.0
C651 C 0.81334 0.13702 0.96135 0.0
C652 C 0.78631 0.08556 0.96855 0.0
C653 C 0.75668 0.04835 0.95069 0.0
C654 C 0.75679 0.06166 0.92583 0.0
H655 H 0.67735 0.09531 0.8693 0.0
H656 H 0.68073 0.04503 0.88466 0.0
H657 H 0.69826 0.10304 0.90133 0.0
H658 H 0.83713 0.18995 0.93074 0.0
H659 H 0.83718 0.16633 0.97464 0.0
H660 H 0.85144 0.03392 0.12339 0.0
H661 H 0.84403 0.99789 0.1647 0.0
H662 H 0.80491 0.8534 0.13197 0.0
H663 H 0.8119 0.8891 0.09009 0.0
H664 H 0.75111 0.9072 0.18366 0.0
H665 H 0.92239 0.8886 0.1838 0.0
H666 H 0.91607 0.93167 0.16307 0.0
H667 H 0.88112 0.86441 0.1571 0.0
C668 C 0.84167 0.99457 0.12476 0.0
C669 C 0.83215 0.96441 0.10326 0.0
C670 C 0.83734 0.97402 0.1485 0.0
C671 C 0.8239 0.92306 0.15138 0.0
C672 C 0.81565 0.89298 0.13008 0.0
H673 H 0.80613 0.75428 0.28433 0.0
H674 H 0.79854 0.77825 0.24191 0.0
C675 C 0.81975 0.9135 0.10619 0.0
C676 C 0.81711 0.90147 0.17682 0.0
H677 H 0.87084 0.8606 0.21952 0.0
C678 C 0.77706 0.8967 0.19153 0.0
C679 C 0.85108 0.88798 0.18695 0.0
C680 C 0.89537 0.89358 0.17208 0.0
C681 C 0.7698 0.87831 0.21613 0.0
C682 C 0.80432 0.86559 0.22647 0.0
C683 C 0.84424 0.87019 0.21161 0.0
C684 C 0.80034 0.84747 0.25259 0.0
C685 C 0.72476 0.87191 0.23058 0.0
C686 C 0.80191 0.87735 0.27295 0.0
C687 C 0.80558 0.86325 0.29743 0.0
C688 C 0.80838 0.81943 0.30179 0.0
C689 C 0.80407 0.78831 0.28151 0.0
C690 C 0.79997 0.80209 0.25722 0.0
H691 H 0.69428 0.86806 0.21795 0.0
H692 H 0.70884 0.83795 0.24292 0.0
H693 H 0.73689 0.90613 0.24236 0.0
H694 H 0.80299 0.91287 0.26983 0.0
H695 H 0.80981 0.88841 0.31268 0.0
H696 H 0.99042 0.78584 0.43098 0.0
H697 H 0.01184 0.78059 0.47479 0.0
H698 H 0.857 0.72667 0.49612 0.0
H699 H 0.83575 0.73211 0.45286 0.0
H700 H -0.00321 0.83814 0.51362 0.0
H701 H 0.89306 0.63064 0.53378 0.0
H702 H 0.90981 0.65598 0.50252 0.0
H703 H 0.85618 0.65258 0.5179 0.0
C704 C 0.96083 0.77144 0.44497 0.0
C705 C 0.9115 0.75931 0.43864 0.0
C706 C 0.97308 0.76877 0.46994 0.0
C707 C 0.93585 0.75289 0.48863 0.0
C708 C 0.88609 0.73828 0.48199 0.0
H709 H 0.97707 0.83817 0.6454 0.0
H710 H 0.94413 0.81743 0.60255 0.0
C711 C 0.87408 0.74158 0.45727 0.0
C712 C 0.94931 0.75646 0.51539 0.0
H713 H 0.92131 0.68645 0.56892 0.0
C714 C 0.98072 0.80498 0.52571 0.0
C715 C 0.92805 0.71312 0.53107 0.0
C716 C 0.89522 0.66004 0.52078 0.0
C717 C 0.99072 0.81147 0.55141 0.0
C718 C 0.96819 0.76823 0.56723 0.0
C719 C 0.93774 0.71957 0.55682 0.0
C720 C 0.97895 0.77275 0.59435 0.0
C721 C 0.02582 0.86451 0.56138 0.0
C722 C 0.00655 0.75184 0.60434 0.0
C723 C 0.02466 0.76309 0.62877 0.0
C724 C 0.01474 0.7947 0.6437 0.0
C725 C 0.98389 0.8125 0.63441 0.0
C726 C 0.96589 0.8014 0.60985 0.0
H727 H 0.04778 0.89187 0.54625 0.0
H728 H 0.00314 0.87842 0.57092 0.0
H729 H 0.05283 0.86444 0.57515 0.0
H730 H 0.01701 0.72965 0.59272 0.0
H731 H 0.04944 0.75005 0.63544 0.0
H732 H 0.24849 0.00066 0.76474 0.0
H733 H 0.27736 0.01213 0.80831 0.0
H734 H 0.22921 0.85255 0.81254 0.0
H735 H 0.20096 0.84141 0.76915 0.0
H736 H 0.20865 0.96157 0.84564 0.0
H737 H 0.36208 0.91695 0.85127 0.0
H738 H 0.34351 0.93296 0.82229 0.0
H739 H 0.30692 0.86959 0.83486 0.0
C740 C 0.24655 0.9688 0.77466 0.0
C741 C 0.22379 0.92049 0.76353 0.0
C742 C 0.26246 0.97515 0.79961 0.0
C743 C 0.25592 0.93328 0.8137 0.0
C744 C 0.23587 0.88568 0.802 0.0
H745 H 0.19835 0.90534 0.97352 0.0
H746 H 0.19633 0.88281 0.92938 0.0
C747 C 0.21984 0.87935 0.77717 0.0
C748 C 0.26292 0.93741 0.84125 0.0
H749 H 0.32254 0.9166 0.8898 0.0
C750 C 0.23381 0.95203 0.85525 0.0
C751 C 0.29563 0.92481 0.85384 0.0
C752 C 0.32919 0.91065 0.8398 0.0
C753 C 0.23606 0.95393 0.8814 0.0
C754 C 0.26768 0.93999 0.89404 0.0
C755 C 0.29751 0.92617 0.8801 0.0
C756 C 0.2729 0.94387 0.92162 0.0
C757 C 0.2052 0.97179 0.89531 0.0
C758 C 0.31774 0.98317 0.93222 0.0
C759 C 0.31899 0.99571 0.95737 0.0
C760 C 0.27565 0.96878 0.9724 0.0
C761 C 0.23259 0.92594 0.96248 0.0
C762 C 0.2312 0.91357 0.93719 0.0
H763 H 0.19049 0.99021 0.88274 0.0
H764 H 0.17231 0.93859 0.9043 0.0
H765 H 0.22826 0.99932 0.91017 0.0
H766 H 0.35033 0.00699 0.92059 0.0
H767 H 0.35233 0.02944 0.96452 0.0
loop_
_geom_bond_atom_site_label_1
_geom_bond_atom_site_label_2
_geom_bond_distance
_geom_bond_site_symmetry_2
_ccdc_geom_bond_type
Dy0 O4 2.398 1_545 S
Dy0 O5 2.491 . S
Dy0 O6 2.403 . S
Dy0 O7 2.664 1_554 S
Dy0 O11 2.326 . S
Dy0 O15 2.310 . S
Dy0 O16 2.351 1_544 S
C1 O12 1.185 . S
C1 O13 1.355 . S
C2 O4 1.185 . S
C2 O5 1.355 1_565 S
Dy3 O7 2.310 . S
Dy3 O10 2.351 1_556 S
Dy3 O12 2.398 . S
Dy3 O13 2.491 . S
Dy3 O14 2.403 . S
Dy3 O15 2.664 1_556 S
Dy3 O17 2.326 . S
O4 Dy0 2.398 1_565 S
O4 C2 1.185 . S
O5 Dy0 2.491 . S
O5 C2 1.355 1_545 S
O6 Dy0 2.403 . S
O6 C8 1.254 . S
O7 Dy0 2.664 1_556 S
O7 Dy3 2.310 . S
O7 C8 1.268 1_556 S
C8 O6 1.254 . S
C8 O7 1.268 1_554 S
C9 O14 1.227 1_554 S
C9 O15 1.283 . S
O10 Dy3 2.351 1_554 S
O10 C18 1.249 . S
O11 Dy0 2.326 . S
O11 C18 1.267 . S
O12 C1 1.185 . S
O12 Dy3 2.398 . S
O13 C1 1.355 . S
O13 Dy3 2.491 . S
O14 Dy3 2.403 . S
O14 C9 1.227 1_556 S
O15 Dy0 2.310 . S
O15 Dy3 2.664 1_554 S
O15 C9 1.283 . S
O16 Dy0 2.351 1_566 S
O16 C19 1.249 1_565 S
O17 Dy3 2.326 . S
O17 C19 1.267 . S
C18 O10 1.249 . S
C18 O11 1.267 . S
C19 O16 1.249 1_545 S
C19 O17 1.267 . S
Dy20 O24 2.398 . S
Dy20 O25 2.491 . S
Dy20 O26 2.403 . S
Dy20 O27 2.664 . S
Dy20 O31 2.326 . S
Dy20 O35 2.310 . S
Dy20 O36 2.351 . S
C21 O32 1.185 . S
C21 O33 1.355 . S
C22 O24 1.185 . S
C22 O25 1.355 . S
Dy23 O27 2.310 . S
Dy23 O30 2.351 . S
Dy23 O32 2.398 . S
Dy23 O33 2.491 . S
Dy23 O34 2.403 . S
Dy23 O35 2.664 . S
Dy23 O37 2.326 . S
O24 Dy20 2.398 . S
O24 C22 1.185 . S
O25 Dy20 2.491 . S
O25 C22 1.355 . S
O26 Dy20 2.403 . S
O26 C28 1.254 . S
O27 Dy20 2.664 . S
O27 Dy23 2.310 . S
O27 C28 1.268 . S
C28 O26 1.254 . S
C28 O27 1.268 . S
C29 O34 1.254 . S
C29 O35 1.268 . S
O30 Dy23 2.351 . S
O30 C38 1.249 . S
O31 Dy20 2.326 . S
O31 C38 1.267 . S
O32 C21 1.185 . S
O32 Dy23 2.398 . S
O33 C21 1.355 . S
O33 Dy23 2.491 . S
O34 Dy23 2.403 . S
O34 C29 1.254 . S
O35 Dy20 2.310 . S
O35 Dy23 2.664 . S
O35 C29 1.268 . S
O36 Dy20 2.351 . S
O36 C39 1.249 . S
O37 Dy23 2.326 . S
O37 C39 1.267 . S
C38 O30 1.249 . S
C38 O31 1.267 . S
C39 O36 1.249 . S
C39 O37 1.267 . S
Dy40 O44 2.398 . S
Dy40 O45 2.491 . S
Dy40 O46 2.403 . S
Dy40 O47 2.664 1_455 S
Dy40 O51 2.326 1_455 S
Dy40 O55 2.310 . S
Dy40 O56 2.351 . S
C41 O52 1.185 . S
C41 O53 1.355 . S
C42 O44 1.185 . S
C42 O45 1.355 . S
Dy43 O47 2.310 . S
Dy43 O50 2.351 . S
Dy43 O52 2.398 . S
Dy43 O53 2.491 . S
Dy43 O54 2.403 . S
Dy43 O55 2.664 1_655 S
Dy43 O57 2.326 1_655 S
O44 Dy40 2.398 . S
O44 C42 1.185 . S
O45 Dy40 2.491 . S
O45 C42 1.355 . S
O46 Dy40 2.403 . S
O46 C48 1.254 . S
O47 Dy40 2.664 1_655 S
O47 Dy43 2.310 . S
O47 C48 1.268 1_655 S
C48 O46 1.254 . S
C48 O47 1.268 1_455 S
C49 O54 1.254 . S
C49 O55 1.268 1_655 S
O50 Dy43 2.351 . S
O50 C58 1.249 . S
O51 Dy40 2.326 1_655 S
O51 C58 1.267 . S
O52 C41 1.185 . S
O52 Dy43 2.398 . S
O53 C41 1.355 . S
O53 Dy43 2.491 . S
O54 Dy43 2.403 . S
O54 C49 1.254 . S
O55 Dy40 2.310 . S
O55 Dy43 2.664 1_455 S
O55 C49 1.268 1_455 S
O56 Dy40 2.351 . S
O56 C59 1.249 . S
O57 Dy43 2.326 1_455 S
O57 C59 1.267 . S
C58 O50 1.249 . S
C58 O51 1.267 . S
C59 O56 1.249 . S
C59 O57 1.267 . S
Dy60 O64 2.398 . S
Dy60 O65 2.491 . S
Dy60 O66 2.403 . S
Dy60 O67 2.664 1_544 S
Dy60 O71 2.326 1_545 S
Dy60 O75 2.310 . S
Dy60 O76 2.351 1_554 S
C61 O72 1.185 . S
C61 O73 1.355 . S
C62 O64 1.185 . S
C62 O65 1.355 . S
Dy63 O67 2.310 . S
Dy63 O70 2.351 1_556 S
Dy63 O72 2.398 . S
Dy63 O73 2.491 . S
Dy63 O74 2.403 . S
Dy63 O75 2.664 1_566 S
Dy63 O77 2.326 1_565 S
O64 Dy60 2.398 . S
O64 C62 1.185 . S
O65 Dy60 2.491 . S
O65 C62 1.355 . S
O66 Dy60 2.403 . S
O66 C68 1.254 . S
O67 Dy60 2.664 1_566 S
O67 Dy63 2.310 . S
O67 C68 1.268 1_566 S
C68 O66 1.254 . S
C68 O67 1.268 1_544 S
C69 O74 1.227 1_554 S
C69 O75 1.283 1_565 S
O70 Dy63 2.351 1_554 S
O70 C78 1.249 . S
O71 Dy60 2.326 1_565 S
O71 C78 1.267 . S
O72 C61 1.185 . S
O72 Dy63 2.398 . S
O73 C61 1.355 . S
O73 Dy63 2.491 . S
O74 Dy63 2.403 . S
O74 C69 1.227 1_556 S
O75 Dy60 2.310 . S
O75 Dy63 2.664 1_544 S
O75 C69 1.283 1_545 S
O76 Dy60 2.351 1_556 S
O76 C79 1.249 . S
O77 Dy63 2.326 1_545 S
O77 C79 1.267 . S
C78 O70 1.249 . S
C78 O71 1.267 . S
C79 O76 1.249 . S
C79 O77 1.267 . S
Dy80 O84 2.398 . S
Dy80 O85 2.491 . S
Dy80 O86 2.403 . S
Dy80 O87 2.664 . S
Dy80 O91 2.326 . S
Dy80 O95 2.310 . S
Dy80 O96 2.351 . S
C81 O92 1.185 . S
C81 O93 1.355 . S
C82 O84 1.185 . S
C82 O85 1.355 . S
Dy83 O87 2.310 . S
Dy83 O90 2.351 . S
Dy83 O92 2.398 . S
Dy83 O93 2.491 . S
Dy83 O94 2.403 . S
Dy83 O95 2.664 . S
Dy83 O97 2.326 . S
O84 Dy80 2.398 . S
O84 C82 1.185 . S
O85 Dy80 2.491 . S
O85 C82 1.355 . S
O86 Dy80 2.403 . S
O86 C88 1.254 . S
O87 Dy80 2.664 . S
O87 Dy83 2.310 . S
O87 C88 1.268 . S
C88 O86 1.254 . S
C88 O87 1.268 . S
C89 O94 1.254 . S
C89 O95 1.268 . S
O90 Dy83 2.351 . S
O90 C98 1.249 . S
O91 Dy80 2.326 . S
O91 C98 1.267 . S
O92 C81 1.185 . S
O92 Dy83 2.398 . S
O93 C81 1.355 . S
O93 Dy83 2.491 . S
O94 Dy83 2.403 . S
O94 C89 1.254 . S
O95 Dy80 2.310 . S
O95 Dy83 2.664 . S
O95 C89 1.268 . S
O96 Dy80 2.351 . S
O96 C99 1.249 . S
O97 Dy83 2.326 . S
O97 C99 1.267 . S
C98 O90 1.249 . S
C98 O91 1.267 . S
C99 O96 1.249 . S
C99 O97 1.267 . S
Dy100 O104 2.398 1_455 S
Dy100 O105 2.491 . S
Dy100 O106 2.403 . S
Dy100 O107 2.664 . S
Dy100 O111 2.326 . S
Dy100 O115 2.310 . S
Dy100 O116 2.351 1_455 S
C101 O112 1.185 . S
C101 O113 1.355 . S
C102 O104 1.185 . S
C102 O105 1.355 1_655 S
Dy103 O107 2.310 . S
Dy103 O110 2.351 . S
Dy103 O112 2.398 . S
Dy103 O113 2.491 . S
Dy103 O114 2.403 . S
Dy103 O115 2.664 . S
Dy103 O117 2.326 . S
O104 Dy100 2.398 1_655 S
O104 C102 1.185 . S
O105 Dy100 2.491 . S
O105 C102 1.355 1_455 S
O106 Dy100 2.403 . S
O106 C108 1.254 . S
O107 Dy100 2.664 . S
O107 Dy103 2.310 . S
O107 C108 1.268 . S
C108 O106 1.254 . S
C108 O107 1.268 . S
C109 O114 1.254 . S
C109 O115 1.268 . S
O110 Dy103 2.351 . S
O110 C118 1.249 . S
O111 Dy100 2.326 . S
O111 C118 1.267 . S
O112 C101 1.185 . S
O112 Dy103 2.398 . S
O113 C101 1.355 . S
O113 Dy103 2.491 . S
O114 Dy103 2.403 . S
O114 C109 1.254 . S
O115 Dy100 2.310 . S
O115 Dy103 2.664 . S
O115 C109 1.268 . S
O116 Dy100 2.351 1_655 S
O116 C119 1.249 1_655 S
O117 Dy103 2.326 . S
O117 C119 1.267 . S
C118 O110 1.249 . S
C118 O111 1.267 . S
C119 O116 1.249 1_455 S
C119 O117 1.267 . S
H120 C128 0.929 . S
H121 C130 0.930 . S
H122 C132 0.930 . S
H123 C135 0.929 . S
H124 C138 0.930 . S
H125 C140 0.960 . S
H126 C140 0.960 1_655 S
H127 C140 0.960 1_656 S
C128 H120 0.929 . S
C128 C129 1.346 1_554 S
C128 C130 1.384 . S
C129 C128 1.346 1_556 S
C129 C135 1.421 1_565 S
C130 H121 0.930 . S
C130 C128 1.384 . S
C130 C131 1.373 1_564 S
C131 C130 1.373 1_546 S
C131 C132 1.399 . S
C131 C136 1.490 . S
C132 H122 0.930 . S
C132 C131 1.399 . S
C132 C135 1.386 . S
H133 C149 0.930 . S
H134 C150 0.931 . S
C135 H123 0.929 . S
C135 C129 1.421 1_545 S
C135 C132 1.386 . S
C136 C131 1.490 . S
C136 C138 1.395 1_545 S
C136 C139 1.402 1_656 S
H137 C143 0.930 . S
C138 H124 0.930 . S
C138 C136 1.395 1_565 S
C138 C141 1.403 1_655 S
C139 C136 1.402 1_454 S
C139 C140 1.524 . S
C139 C143 1.400 . S
C140 H125 0.960 . S
C140 H126 0.960 1_455 S
C140 H127 0.960 1_454 S
C140 C139 1.524 . S
C141 C138 1.403 1_455 S
C141 C142 1.392 1_565 S
C141 C145 1.495 . S
C142 C141 1.392 1_545 S
C142 C143 1.385 1_556 S
C142 C144 1.478 . S
C143 H137 0.930 . S
C143 C139 1.400 . S
C143 C142 1.385 1_554 S
C144 C142 1.478 . S
C144 C146 1.381 1_556 S
C144 C150 1.383 . S
C145 C141 1.495 . S
C145 H151 0.959 . S
C145 H152 0.961 . S
C145 H153 0.960 1_556 S
C146 C144 1.381 1_554 S
C146 C147 1.394 . S
C146 H154 0.930 . S
C147 C146 1.394 . S
C147 C148 1.383 1_554 S
C147 H155 0.929 . S
C148 C147 1.383 1_556 S
C148 C149 1.377 . S
C149 H133 0.930 . S
C149 C148 1.377 . S
C149 C150 1.379 . S
C150 H134 0.931 . S
C150 C144 1.383 . S
C150 C149 1.379 . S
H151 C145 0.959 . S
H152 C145 0.961 . S
H153 C145 0.960 1_554 S
H154 C146 0.930 . S
H155 C147 0.929 . S
H156 C164 0.929 . S
H157 C166 0.930 . S
H158 C168 0.930 . S
H159 C171 0.929 . S
H160 C174 0.930 . S
H161 C176 0.960 . S
H162 C176 0.960 . S
H163 C176 0.960 . S
C164 H156 0.929 . S
C164 C165 1.377 . S
C164 C166 1.384 . S
C165 C164 1.377 . S
C165 C171 1.390 . S
C166 H157 0.930 . S
C166 C164 1.384 . S
C166 C167 1.372 . S
C167 C166 1.372 . S
C167 C168 1.400 . S
C167 C172 1.490 . S
C168 H158 0.930 . S
C168 C167 1.400 . S
C168 C171 1.386 . S
H169 C185 0.930 . S
H170 C186 0.931 . S
C171 H159 0.929 . S
C171 C165 1.390 . S
C171 C168 1.386 . S
C172 C167 1.490 . S
C172 C174 1.395 1_565 S
C172 C175 1.403 1_665 S
H173 C179 0.930 . S
C174 H160 0.930 . S
C174 C172 1.395 1_545 S
C174 C177 1.403 1_655 S
C175 C172 1.403 1_445 S
C175 C176 1.524 1_545 S
C175 C179 1.400 . S
C176 H161 0.960 . S
C176 H162 0.960 . S
C176 H163 0.960 . S
C176 C175 1.524 1_565 S
C177 C174 1.403 1_455 S
C177 C178 1.392 . S
C177 C181 1.495 1_455 S
C178 C177 1.392 . S
C178 C179 1.385 . S
C178 C180 1.478 . S
C179 H173 0.930 . S
C179 C175 1.400 . S
C179 C178 1.385 . S
C180 C178 1.478 . S
C180 C182 1.381 . S
C180 C186 1.383 . S
C181 C177 1.495 1_655 S
C181 H187 0.959 . S
C181 H188 0.961 1_655 S
C181 H189 0.960 1_655 S
C182 C180 1.381 . S
C182 C183 1.394 . S
C182 H190 0.930 . S
C183 C182 1.394 . S
C183 C184 1.383 . S
C183 H191 0.929 . S
C184 C183 1.383 . S
C184 C185 1.377 . S
C185 H169 0.930 . S
C185 C184 1.377 . S
C185 C186 1.379 . S
C186 H170 0.931 . S
C186 C180 1.383 . S
C186 C185 1.379 . S
H187 C181 0.959 . S
H188 C181 0.961 1_455 S
H189 C181 0.960 1_455 S
H190 C182 0.930 . S
H191 C183 0.929 . S
H192 C200 0.929 . S
H193 C202 0.930 . S
H194 C204 0.930 . S
H195 C207 0.929 . S
H196 C210 0.930 . S
H197 C212 0.960 . S
H198 C212 0.960 . S
H199 C212 0.960 . S
C200 H192 0.929 . S
C200 C201 1.377 . S
C200 C202 1.384 . S
C201 C200 1.377 . S
C201 C207 1.390 . S
C202 H193 0.930 . S
C202 C200 1.384 . S
C202 C203 1.372 . S
C203 C202 1.372 . S
C203 C204 1.400 . S
C203 C208 1.490 1_565 S
C204 H194 0.930 . S
C204 C203 1.400 . S
C204 C207 1.386 . S
H205 C221 0.930 . S
H206 C222 0.931 . S
C207 H195 0.929 . S
C207 C201 1.390 . S
C207 C204 1.386 . S
C208 C203 1.490 1_545 S
C208 C210 1.395 . S
C208 C211 1.403 1_545 S
H209 C215 0.930 . S
C210 H196 0.930 . S
C210 C208 1.395 . S
C210 C213 1.403 . S
C211 C208 1.403 1_565 S
C211 C212 1.524 1_455 S
C211 C215 1.400 1_465 S
C212 H197 0.960 . S
C212 H198 0.960 . S
C212 H199 0.960 . S
C212 C211 1.524 1_655 S
C213 C210 1.403 . S
C213 C214 1.392 . S
C213 C217 1.495 . S
C214 C213 1.392 . S
C214 C215 1.385 1_455 S
C214 C216 1.478 . S
C215 H209 0.930 . S
C215 C211 1.400 1_645 S
C215 C214 1.385 1_655 S
C216 C214 1.478 . S
C216 C218 1.381 . S
C216 C222 1.383 1_455 S
C217 C213 1.495 . S
C217 H223 0.959 . S
C217 H224 0.961 . S
C217 H225 0.960 . S
C218 C216 1.381 . S
C218 C219 1.394 . S
C218 H226 0.930 . S
C219 C218 1.394 . S
C219 C220 1.383 1_455 S
C219 H227 0.929 . S
C220 C219 1.383 1_655 S
C220 C221 1.377 . S
C221 H205 0.930 . S
C221 C220 1.377 . S
C221 C222 1.379 . S
C222 H206 0.931 . S
C222 C216 1.383 1_655 S
C222 C221 1.379 . S
H223 C217 0.959 . S
H224 C217 0.961 . S
H225 C217 0.960 . S
H226 C218 0.930 . S
H227 C219 0.929 . S
H228 C236 0.929 . S
H229 C238 0.930 . S
H230 C240 0.930 . S
H231 C243 0.929 . S
H232 C246 0.930 . S
H233 C248 0.960 . S
H234 C248 0.960 . S
H235 C248 0.960 . S
C236 H228 0.929 . S
C236 C237 1.377 . S
C236 C238 1.384 . S
C237 C236 1.377 . S
C237 C243 1.390 . S
C238 H229 0.930 . S
C238 C236 1.384 . S
C238 C239 1.372 . S
C239 C238 1.372 . S
C239 C240 1.400 . S
C239 C244 1.490 . S
C240 H230 0.930 . S
C240 C239 1.400 . S
C240 C243 1.386 . S
H241 C257 0.930 . S
H242 C258 0.931 . S
C243 H231 0.929 . S
C243 C237 1.390 . S
C243 C240 1.386 . S
C244 C239 1.490 . S
C244 C246 1.395 . S
C244 C247 1.403 . S
H245 C251 0.930 . S
C246 H232 0.930 . S
C246 C244 1.395 . S
C246 C249 1.403 . S
C247 C244 1.403 . S
C247 C248 1.524 . S
C247 C251 1.400 . S
C248 H233 0.960 . S
C248 H234 0.960 . S
C248 H235 0.960 . S
C248 C247 1.524 . S
C249 C246 1.403 . S
C249 C250 1.392 . S
C249 C253 1.495 . S
C250 C249 1.392 . S
C250 C251 1.385 . S
C250 C252 1.478 . S
C251 H245 0.930 . S
C251 C247 1.400 . S
C251 C250 1.385 . S
C252 C250 1.478 . S
C252 C254 1.381 . S
C252 C258 1.383 . S
C253 C249 1.495 . S
C253 H259 0.959 . S
C253 H260 0.961 . S
C253 H261 0.960 . S
C254 C252 1.381 . S
C254 C255 1.394 . S
C254 H262 0.930 . S
C255 C254 1.394 . S
C255 C256 1.383 . S
C255 H263 0.929 . S
C256 C255 1.383 . S
C256 C257 1.377 . S
C257 H241 0.930 . S
C257 C256 1.377 . S
C257 C258 1.379 . S
C258 H242 0.931 . S
C258 C252 1.383 . S
C258 C257 1.379 . S
H259 C253 0.959 . S
H260 C253 0.961 . S
H261 C253 0.960 . S
H262 C254 0.930 . S
H263 C255 0.929 . S
H264 C272 0.929 . S
H265 C274 0.930 . S
H266 C276 0.930 . S
H267 C279 0.929 . S
H268 C282 0.930 . S
H269 C284 0.960 . S
H270 C284 0.960 . S
H271 C284 0.960 . S
C272 H264 0.929 . S
C272 C273 1.377 . S
C272 C274 1.384 . S
C273 C272 1.377 . S
C273 C279 1.390 . S
C274 H265 0.930 . S
C274 C272 1.384 . S
C274 C275 1.372 . S
C275 C274 1.372 . S
C275 C276 1.400 . S
C275 C280 1.490 . S
C276 H266 0.930 . S
C276 C275 1.400 . S
C276 C279 1.386 . S
H277 C293 0.930 . S
H278 C294 0.931 . S
C279 H267 0.929 . S
C279 C273 1.390 . S
C279 C276 1.386 . S
C280 C275 1.490 . S
C280 C282 1.395 . S
C280 C283 1.403 1_455 S
H281 C287 0.930 . S
C282 H268 0.930 . S
C282 C280 1.395 . S
C282 C285 1.403 . S
C283 C280 1.403 1_655 S
C283 C284 1.524 . S
C283 C287 1.400 . S
C284 H269 0.960 . S
C284 H270 0.960 . S
C284 H271 0.960 . S
C284 C283 1.524 . S
C285 C282 1.403 . S
C285 C286 1.392 1_455 S
C285 C289 1.495 . S
C286 C285 1.392 1_655 S
C286 C287 1.385 . S
C286 C288 1.478 . S
C287 H281 0.930 . S
C287 C283 1.400 . S
C287 C286 1.385 . S
C288 C286 1.478 . S
C288 C290 1.381 . S
C288 C294 1.383 . S
C289 C285 1.495 . S
C289 H295 0.959 . S
C289 H296 0.961 . S
C289 H297 0.960 . S
C290 C288 1.381 . S
C290 C291 1.394 . S
C290 H298 0.930 . S
C291 C290 1.394 . S
C291 C292 1.383 . S
C291 H299 0.929 . S
C292 C291 1.383 . S
C292 C293 1.377 . S
C293 H277 0.930 . S
C293 C292 1.377 . S
C293 C294 1.379 . S
C294 H278 0.931 . S
C294 C288 1.383 . S
C294 C293 1.379 . S
H295 C289 0.959 . S
H296 C289 0.961 . S
H297 C289 0.960 . S
H298 C290 0.930 . S
H299 C291 0.929 . S
H300 C308 0.929 . S
H301 C310 0.930 . S
H302 C312 0.930 . S
H303 C315 0.929 . S
H304 C318 0.930 . S
H305 C320 0.960 . S
H306 C320 0.960 . S
H307 C320 0.960 . S
C308 H300 0.929 . S
C308 C309 1.377 . S
C308 C310 1.384 . S
C309 C308 1.377 . S
C309 C315 1.390 . S
C310 H301 0.930 . S
C310 C308 1.384 . S
C310 C311 1.372 . S
C311 C310 1.372 . S
C311 C312 1.400 . S
C311 C316 1.490 . S
C312 H302 0.930 . S
C312 C311 1.400 . S
C312 C315 1.386 . S
H313 C329 0.930 . S
H314 C330 0.931 . S
C315 H303 0.929 . S
C315 C309 1.390 . S
C315 C312 1.386 . S
C316 C311 1.490 . S
C316 C318 1.395 . S
C316 C319 1.403 1_545 S
H317 C323 0.930 . S
C318 H304 0.930 . S
C318 C316 1.395 . S
C318 C321 1.403 . S
C319 C316 1.403 1_565 S
C319 C320 1.524 . S
C319 C323 1.400 . S
C320 H305 0.960 . S
C320 H306 0.960 . S
C320 H307 0.960 . S
C320 C319 1.524 . S
C321 C318 1.403 . S
C321 C322 1.392 1_545 S
C321 C325 1.495 . S
C322 C321 1.392 1_565 S
C322 C323 1.385 . S
C322 C324 1.478 . S
C323 H317 0.930 . S
C323 C319 1.400 . S
C323 C322 1.385 . S
C324 C322 1.478 . S
C324 C326 1.381 . S
C324 C330 1.383 . S
C325 C321 1.495 . S
C325 H331 0.959 . S
C325 H332 0.961 . S
C325 H333 0.960 . S
C326 C324 1.381 . S
C326 C327 1.394 . S
C326 H334 0.930 . S
C327 C326 1.394 . S
C327 C328 1.383 . S
C327 H335 0.929 . S
C328 C327 1.383 . S
C328 C329 1.377 . S
C329 H313 0.930 . S
C329 C328 1.377 . S
C329 C330 1.379 . S
C330 H314 0.931 . S
C330 C324 1.383 . S
C330 C329 1.379 . S
H331 C325 0.959 . S
H332 C325 0.961 . S
H333 C325 0.960 . S
H334 C326 0.930 . S
H335 C327 0.929 . S
H336 C344 0.929 . S
H337 C346 0.930 . S
H338 C348 0.930 . S
H339 C351 0.929 . S
H340 C354 0.930 . S
H341 C356 0.960 . S
H342 C356 0.960 . S
H343 C356 0.960 . S
C344 H336 0.929 . S
C344 C345 1.377 . S
C344 C346 1.384 . S
C345 C344 1.377 . S
C345 C351 1.390 . S
C346 H337 0.930 . S
C346 C344 1.384 . S
C346 C347 1.372 . S
C347 C346 1.372 . S
C347 C348 1.400 . S
C347 C352 1.490 . S
C348 H338 0.930 . S
C348 C347 1.400 . S
C348 C351 1.386 . S
H349 C365 0.930 . S
H350 C366 0.931 . S
C351 H339 0.929 . S
C351 C345 1.390 . S
C351 C348 1.386 . S
C352 C347 1.490 . S
C352 C354 1.395 . S
C352 C355 1.403 . S
H353 C359 0.930 . S
C354 H340 0.930 . S
C354 C352 1.395 . S
C354 C357 1.403 . S
C355 C352 1.403 . S
C355 C356 1.524 . S
C355 C359 1.400 . S
C356 H341 0.960 . S
C356 H342 0.960 . S
C356 H343 0.960 . S
C356 C355 1.524 . S
C357 C354 1.403 . S
C357 C358 1.392 . S
C357 C361 1.495 . S
C358 C357 1.392 . S
C358 C359 1.385 . S
C358 C360 1.478 . S
C359 H353 0.930 . S
C359 C355 1.400 . S
C359 C358 1.385 . S
C360 C358 1.478 . S
C360 C362 1.381 . S
C360 C366 1.383 . S
C361 C357 1.495 . S
C361 H367 0.959 . S
C361 H368 0.961 . S
C361 H369 0.960 . S
C362 C360 1.381 . S
C362 C363 1.394 . S
C362 H370 0.930 . S
C363 C362 1.394 . S
C363 C364 1.383 . S
C363 H371 0.929 1_655 S
C364 C363 1.383 . S
C364 C365 1.377 . S
C365 H349 0.930 . S
C365 C364 1.377 . S
C365 C366 1.379 . S
C366 H350 0.931 . S
C366 C360 1.383 . S
C366 C365 1.379 . S
H367 C361 0.959 . S
H368 C361 0.961 . S
H369 C361 0.960 . S
H370 C362 0.930 . S
H371 C363 0.929 1_455 S
H372 C380 0.929 . S
H373 C382 0.930 . S
H374 C384 0.930 . S
H375 C387 0.929 . S
H376 C390 0.930 1_655 S
H377 C392 0.960 . S
H378 C392 0.960 . S
H379 C392 0.960 . S
C380 H372 0.929 . S
C380 C381 1.377 . S
C380 C382 1.384 . S
C381 C380 1.377 . S
C381 C387 1.390 . S
C382 H373 0.930 . S
C382 C380 1.384 . S
C382 C383 1.372 . S
C383 C382 1.372 . S
C383 C384 1.400 1_655 S
C383 C388 1.490 1_655 S
C384 H374 0.930 . S
C384 C383 1.400 1_455 S
C384 C387 1.386 1_455 S
H385 C401 0.930 1_545 S
H386 C402 0.931 . S
C387 H375 0.929 . S
C387 C381 1.390 . S
C387 C384 1.386 1_655 S
C388 C383 1.490 1_455 S
C388 C390 1.395 . S
C388 C391 1.403 . S
H389 C395 0.930 . S
C390 H376 0.930 1_455 S
C390 C388 1.395 . S
C390 C393 1.403 . S
C391 C388 1.403 . S
C391 C392 1.524 . S
C391 C395 1.400 . S
C392 H377 0.960 . S
C392 H378 0.960 . S
C392 H379 0.960 . S
C392 C391 1.524 . S
C393 C390 1.403 . S
C393 C394 1.392 . S
C393 C397 1.495 . S
C394 C393 1.392 . S
C394 C395 1.385 . S
C394 C396 1.478 . S
C395 H389 0.930 . S
C395 C391 1.400 . S
C395 C394 1.385 . S
C396 C394 1.478 . S
C396 C398 1.381 . S
C396 C402 1.383 . S
C397 C393 1.495 . S
C397 H403 0.959 1_455 S
C397 H404 0.961 . S
C397 H405 0.960 . S
C398 C396 1.381 . S
C398 C399 1.394 . S
C398 H406 0.930 . S
C399 C398 1.394 . S
C399 C400 1.383 . S
C399 H407 0.929 . S
C400 C399 1.383 . S
C400 C401 1.377 . S
C401 H385 0.930 1_565 S
C401 C400 1.377 . S
C401 C402 1.379 . S
C402 H386 0.931 . S
C402 C396 1.383 . S
C402 C401 1.379 . S
H403 C397 0.959 1_655 S
H404 C397 0.961 . S
H405 C397 0.960 . S
H406 C398 0.930 . S
H407 C399 0.929 . S
H408 C416 0.929 . S
H409 C418 0.930 . S
H410 C420 0.930 . S
H411 C423 0.929 . S
H412 C426 0.930 . S
H413 C428 0.960 . S
H414 C428 0.960 . S
H415 C428 0.960 . S
C416 H408 0.929 . S
C416 C417 1.377 . S
C416 C418 1.384 1_565 S
C417 C416 1.377 . S
C417 C423 1.390 . S
C418 H409 0.930 . S
C418 C416 1.384 1_545 S
C418 C419 1.372 1_545 S
C419 C418 1.372 1_565 S
C419 C420 1.400 . S
C419 C424 1.490 1_565 S
C420 H410 0.930 . S
C420 C419 1.400 . S
C420 C423 1.386 . S
H421 C437 0.930 . S
H422 C438 0.931 . S
C423 H411 0.929 . S
C423 C417 1.390 . S
C423 C420 1.386 . S
C424 C419 1.490 1_545 S
C424 C426 1.395 . S
C424 C427 1.403 . S
H425 C431 0.930 . S
C426 H412 0.930 . S
C426 C424 1.395 . S
C426 C429 1.403 . S
C427 C424 1.403 . S
C427 C428 1.524 1_545 S
C427 C431 1.400 . S
C428 H413 0.960 . S
C428 H414 0.960 . S
C428 H415 0.960 . S
C428 C427 1.524 1_565 S
C429 C426 1.403 . S
C429 C430 1.392 . S
C429 C433 1.495 . S
C430 C429 1.392 . S
C430 C431 1.385 . S
C430 C432 1.478 . S
C431 H425 0.930 . S
C431 C427 1.400 . S
C431 C430 1.385 . S
C432 C430 1.478 . S
C432 C434 1.381 . S
C432 C438 1.383 . S
C433 C429 1.495 . S
C433 H439 0.959 . S
C433 H440 0.961 . S
C433 H441 0.960 . S
C434 C432 1.381 . S
C434 C435 1.394 . S
C434 H442 0.930 . S
C435 C434 1.394 . S
C435 C436 1.383 . S
C435 H443 0.929 . S
C436 C435 1.383 . S
C436 C437 1.377 . S
C437 H421 0.930 . S
C437 C436 1.377 . S
C437 C438 1.379 . S
C438 H422 0.931 . S
C438 C432 1.383 . S
C438 C437 1.379 . S
H439 C433 0.959 . S
H440 C433 0.961 . S
H441 C433 0.960 . S
H442 C434 0.930 . S
H443 C435 0.929 . S
H444 C452 0.929 . S
H445 C454 0.930 . S
H446 C456 0.930 . S
H447 C459 0.929 . S
H448 C462 0.930 . S
H449 C464 0.960 . S
H450 C464 0.960 1_554 S
H451 C464 0.960 . S
C452 H444 0.929 . S
C452 C453 1.377 . S
C452 C454 1.384 . S
C453 C452 1.377 . S
C453 C459 1.390 1_554 S
C454 H445 0.930 . S
C454 C452 1.384 . S
C454 C455 1.372 . S
C455 C454 1.372 . S
C455 C456 1.400 1_554 S
C455 C460 1.490 . S
C456 H446 0.930 . S
C456 C455 1.400 1_556 S
C456 C459 1.386 . S
H457 C473 0.930 . S
H458 C474 0.931 . S
C459 H447 0.929 . S
C459 C453 1.390 1_556 S
C459 C456 1.386 . S
C460 C455 1.490 . S
C460 C462 1.395 1_545 S
C460 C463 1.409 . S
H461 C467 0.923 1_556 S
C462 H448 0.930 . S
C462 C460 1.395 1_565 S
C462 C465 1.403 . S
C463 C460 1.409 . S
C463 C464 1.519 1_554 S
C463 C467 1.400 . S
C464 H449 0.960 . S
C464 H450 0.960 1_556 S
C464 H451 0.960 . S
C464 C463 1.519 1_556 S
C465 C462 1.403 . S
C465 C466 1.392 1_565 S
C465 C469 1.495 . S
C466 C465 1.392 1_545 S
C466 C467 1.393 . S
C466 C468 1.478 . S
C467 H461 0.923 1_554 S
C467 C463 1.400 . S
C467 C466 1.393 . S
C468 C466 1.478 . S
C468 C470 1.381 1_545 S
C468 C474 1.383 1_554 S
C469 C465 1.495 . S
C469 H475 0.959 . S
C469 H476 0.961 . S
C469 H477 0.960 . S
C470 C468 1.381 1_565 S
C470 C471 1.394 . S
C470 H478 0.930 . S
C471 C470 1.394 . S
C471 C472 1.383 . S
C471 H479 0.929 . S
C472 C471 1.383 . S
C472 C473 1.377 1_564 S
C473 H457 0.930 . S
C473 C472 1.377 1_546 S
C473 C474 1.379 . S
C474 H458 0.931 . S
C474 C468 1.383 1_556 S
C474 C473 1.379 . S
H475 C469 0.959 . S
H476 C469 0.961 . S
H477 C469 0.960 . S
H478 C470 0.930 . S
H479 C471 0.929 . S
H480 C488 0.929 . S
H481 C490 0.930 . S
H482 C492 0.930 . S
H483 C495 0.929 . S
H484 C498 0.930 . S
H485 C500 0.960 . S
H486 C500 0.960 . S
H487 C500 0.960 . S
C488 H480 0.929 . S
C488 C489 1.377 . S
C488 C490 1.384 . S
C489 C488 1.377 . S
C489 C495 1.390 . S
C490 H481 0.930 . S
C490 C488 1.384 . S
C490 C491 1.372 . S
C491 C490 1.372 . S
C491 C492 1.400 . S
C491 C496 1.490 . S
C492 H482 0.930 . S
C492 C491 1.400 . S
C492 C495 1.386 . S
H493 C509 0.930 . S
H494 C510 0.931 . S
C495 H483 0.929 . S
C495 C489 1.390 . S
C495 C492 1.386 . S
C496 C491 1.490 . S
C496 C498 1.395 . S
C496 C499 1.403 . S
H497 C503 0.930 . S
C498 H484 0.930 . S
C498 C496 1.395 . S
C498 C501 1.403 . S
C499 C496 1.403 . S
C499 C500 1.524 . S
C499 C503 1.400 . S
C500 H485 0.960 . S
C500 H486 0.960 . S
C500 H487 0.960 . S
C500 C499 1.524 . S
C501 C498 1.403 . S
C501 C502 1.392 . S
C501 C505 1.495 . S
C502 C501 1.392 . S
C502 C503 1.385 . S
C502 C504 1.478 . S
C503 H497 0.930 . S
C503 C499 1.400 . S
C503 C502 1.385 . S
C504 C502 1.478 . S
C504 C506 1.381 . S
C504 C510 1.383 . S
C505 C501 1.495 . S
C505 H511 0.959 . S
C505 H512 0.961 . S
C505 H513 0.960 . S
C506 C504 1.381 . S
C506 C507 1.394 . S
C506 H514 0.930 . S
C507 C506 1.394 . S
C507 C508 1.383 . S
C507 H515 0.929 . S
C508 C507 1.383 . S
C508 C509 1.377 . S
C509 H493 0.930 . S
C509 C508 1.377 . S
C509 C510 1.379 . S
C510 H494 0.931 . S
C510 C504 1.383 . S
C510 C509 1.379 . S
H511 C505 0.959 . S
H512 C505 0.961 . S
H513 C505 0.960 . S
H514 C506 0.930 . S
H515 C507 0.929 . S
H516 C524 0.929 . S
H517 C526 0.930 . S
H518 C528 0.930 . S
H519 C531 0.929 . S
H520 C534 0.930 . S
H521 C536 0.960 . S
H522 C536 0.960 . S
H523 C536 0.960 . S
C524 H516 0.929 . S
C524 C525 1.377 . S
C524 C526 1.384 . S
C525 C524 1.377 . S
C525 C531 1.390 1_655 S
C526 H517 0.930 . S
C526 C524 1.384 . S
C526 C527 1.372 1_655 S
C527 C526 1.372 1_455 S
C527 C528 1.400 . S
C527 C532 1.490 . S
C528 H518 0.930 . S
C528 C527 1.400 . S
C528 C531 1.386 . S
H529 C545 0.930 . S
H530 C546 0.931 . S
C531 H519 0.929 . S
C531 C525 1.390 1_455 S
C531 C528 1.386 . S
C532 C527 1.490 . S
C532 C534 1.395 1_455 S
C532 C535 1.403 . S
H533 C539 0.930 . S
C534 H520 0.930 . S
C534 C532 1.395 1_655 S
C534 C537 1.403 . S
C535 C532 1.403 . S
C535 C536 1.524 . S
C535 C539 1.400 . S
C536 H521 0.960 . S
C536 H522 0.960 . S
C536 H523 0.960 . S
C536 C535 1.524 . S
C537 C534 1.403 . S
C537 C538 1.392 1_655 S
C537 C541 1.495 . S
C538 C537 1.392 1_455 S
C538 C539 1.385 . S
C538 C540 1.478 . S
C539 H533 0.930 . S
C539 C535 1.400 . S
C539 C538 1.385 . S
C540 C538 1.478 . S
C540 C542 1.381 . S
C540 C546 1.383 . S
C541 C537 1.495 . S
C541 H547 0.959 . S
C541 H548 0.961 . S
C541 H549 0.960 . S
C542 C540 1.381 . S
C542 C543 1.394 . S
C542 H550 0.930 1_455 S
C543 C542 1.394 . S
C543 C544 1.383 . S
C543 H551 0.929 . S
C544 C543 1.383 . S
C544 C545 1.377 . S
C545 H529 0.930 . S
C545 C544 1.377 . S
C545 C546 1.379 . S
C546 H530 0.931 . S
C546 C540 1.383 . S
C546 C545 1.379 . S
H547 C541 0.959 . S
H548 C541 0.961 . S
H549 C541 0.960 . S
H550 C542 0.930 1_655 S
H551 C543 0.929 . S
H552 C560 0.929 . S
H553 C562 0.930 . S
H554 C564 0.930 . S
H555 C567 0.929 . S
H556 C570 0.930 . S
H557 C572 0.960 . S
H558 C572 0.960 . S
H559 C572 0.960 . S
C560 H552 0.929 . S
C560 C561 1.377 . S
C560 C562 1.384 . S
C561 C560 1.377 . S
C561 C567 1.390 . S
C562 H553 0.930 . S
C562 C560 1.384 . S
C562 C563 1.372 . S
C563 C562 1.372 . S
C563 C564 1.400 . S
C563 C568 1.490 . S
C564 H554 0.930 . S
C564 C563 1.400 . S
C564 C567 1.386 . S
H565 C581 0.930 . S
H566 C582 0.931 . S
C567 H555 0.929 . S
C567 C561 1.390 . S
C567 C564 1.386 . S
C568 C563 1.490 . S
C568 C570 1.395 . S
C568 C571 1.403 . S
H569 C575 0.930 . S
C570 H556 0.930 . S
C570 C568 1.395 . S
C570 C573 1.403 . S
C571 C568 1.403 . S
C571 C572 1.524 . S
C571 C575 1.400 . S
C572 H557 0.960 . S
C572 H558 0.960 . S
C572 H559 0.960 . S
C572 C571 1.524 . S
C573 C570 1.403 . S
C573 C574 1.392 . S
C573 C577 1.495 . S
C574 C573 1.392 . S
C574 C575 1.385 . S
C574 C576 1.478 . S
C575 H569 0.930 . S
C575 C571 1.400 . S
C575 C574 1.385 . S
C576 C574 1.478 . S
C576 C578 1.381 . S
C576 C582 1.383 . S
C577 C573 1.495 . S
C577 H583 0.959 . S
C577 H584 0.961 . S
C577 H585 0.960 . S
C578 C576 1.381 . S
C578 C579 1.394 . S
C578 H586 0.930 . S
C579 C578 1.394 . S
C579 C580 1.383 . S
C579 H587 0.929 . S
C580 C579 1.383 . S
C580 C581 1.377 . S
C581 H565 0.930 . S
C581 C580 1.377 . S
C581 C582 1.379 . S
C582 H566 0.931 . S
C582 C576 1.383 . S
C582 C581 1.379 . S
H583 C577 0.959 . S
H584 C577 0.961 . S
H585 C577 0.960 . S
H586 C578 0.930 . S
H587 C579 0.929 . S
H588 C596 0.929 . S
H589 C598 0.930 . S
H590 C600 0.930 . S
H591 C603 0.929 . S
H592 C606 0.930 . S
H593 C608 0.960 . S
H594 C608 0.960 . S
H595 C608 0.960 . S
C596 H588 0.929 . S
C596 C597 1.377 . S
C596 C598 1.384 . S
C597 C596 1.377 . S
C597 C603 1.390 . S
C598 H589 0.930 . S
C598 C596 1.384 . S
C598 C599 1.372 . S
C599 C598 1.372 . S
C599 C600 1.400 . S
C599 C604 1.490 . S
C600 H590 0.930 . S
C600 C599 1.400 . S
C600 C603 1.386 . S
H601 C617 0.930 . S
H602 C618 0.931 . S
C603 H591 0.929 . S
C603 C597 1.390 . S
C603 C600 1.386 . S
C604 C599 1.490 . S
C604 C606 1.395 . S
C604 C607 1.403 . S
H605 C611 0.930 . S
C606 H592 0.930 . S
C606 C604 1.395 . S
C606 C609 1.403 . S
C607 C604 1.403 . S
C607 C608 1.524 . S
C607 C611 1.400 . S
C608 H593 0.960 . S
C608 H594 0.960 . S
C608 H595 0.960 . S
C608 C607 1.524 . S
C609 C606 1.403 . S
C609 C610 1.392 . S
C609 C613 1.495 . S
C610 C609 1.392 . S
C610 C611 1.385 . S
C610 C612 1.478 . S
C611 H605 0.930 . S
C611 C607 1.400 . S
C611 C610 1.385 . S
C612 C610 1.478 . S
C612 C614 1.381 . S
C612 C618 1.383 . S
C613 C609 1.495 . S
C613 H619 0.959 . S
C613 H620 0.961 . S
C613 H621 0.960 . S
C614 C612 1.381 . S
C614 C615 1.394 . S
C614 H622 0.930 . S
C615 C614 1.394 . S
C615 C616 1.383 . S
C615 H623 0.929 . S
C616 C615 1.383 . S
C616 C617 1.377 . S
C617 H601 0.930 . S
C617 C616 1.377 . S
C617 C618 1.379 . S
C618 H602 0.931 . S
C618 C612 1.383 . S
C618 C617 1.379 . S
H619 C613 0.959 . S
H620 C613 0.961 . S
H621 C613 0.960 . S
H622 C614 0.930 . S
H623 C615 0.929 . S
H624 C632 0.929 . S
H625 C634 0.930 . S
H626 C636 0.930 . S
H627 C639 0.929 . S
H628 C642 0.930 . S
H629 C644 0.960 1_455 S
H630 C644 0.960 . S
H631 C644 0.960 1_455 S
C632 H624 0.929 . S
C632 C633 1.377 . S
C632 C634 1.384 . S
C633 C632 1.377 . S
C633 C639 1.390 . S
C634 H625 0.930 . S
C634 C632 1.384 . S
C634 C635 1.372 . S
C635 C634 1.372 . S
C635 C636 1.400 . S
C635 C640 1.490 . S
C636 H626 0.930 . S
C636 C635 1.400 . S
C636 C639 1.386 . S
H637 C653 0.930 . S
H638 C654 0.931 . S
C639 H627 0.929 . S
C639 C633 1.390 . S
C639 C636 1.386 . S
C640 C635 1.490 . S
C640 C642 1.395 . S
C640 C643 1.403 . S
H641 C647 0.930 . S
C642 H628 0.930 . S
C642 C640 1.395 . S
C642 C645 1.403 . S
C643 C640 1.403 . S
C643 C644 1.524 . S
C643 C647 1.400 . S
C644 H629 0.960 1_655 S
C644 H630 0.960 . S
C644 H631 0.960 1_655 S
C644 C643 1.524 . S
C645 C642 1.403 . S
C645 C646 1.392 . S
C645 C649 1.495 . S
C646 C645 1.392 . S
C646 C647 1.385 . S
C646 C648 1.478 . S
C647 H641 0.930 . S
C647 C643 1.400 . S
C647 C646 1.385 . S
C648 C646 1.478 . S
C648 C650 1.381 . S
C648 C654 1.383 . S
C649 C645 1.495 . S
C649 H655 0.959 . S
C649 H656 0.961 . S
C649 H657 0.960 . S
C650 C648 1.381 . S
C650 C651 1.394 . S
C650 H658 0.930 . S
C651 C650 1.394 . S
C651 C652 1.383 . S
C651 H659 0.929 . S
C652 C651 1.383 . S
C652 C653 1.377 . S
C653 H637 0.930 . S
C653 C652 1.377 . S
C653 C654 1.379 . S
C654 H638 0.931 . S
C654 C648 1.383 . S
C654 C653 1.379 . S
H655 C649 0.959 . S
H656 C649 0.961 . S
H657 C649 0.960 . S
H658 C650 0.930 . S
H659 C651 0.929 . S
H660 C668 0.929 . S
H661 C670 0.930 . S
H662 C672 0.930 . S
H663 C675 0.929 . S
H664 C678 0.930 . S
H665 C680 0.960 . S
H666 C680 0.960 . S
H667 C680 0.960 . S
C668 H660 0.929 . S
C668 C669 1.377 . S
C668 C670 1.384 . S
C669 C668 1.377 . S
C669 C675 1.390 . S
C670 H661 0.930 . S
C670 C668 1.384 . S
C670 C671 1.372 . S
C671 C670 1.372 . S
C671 C672 1.400 . S
C671 C676 1.490 . S
C672 H662 0.930 . S
C672 C671 1.400 . S
C672 C675 1.386 . S
H673 C689 0.930 . S
H674 C690 0.931 . S
C675 H663 0.929 . S
C675 C669 1.390 . S
C675 C672 1.386 . S
C676 C671 1.490 . S
C676 C678 1.395 . S
C676 C679 1.403 . S
H677 C683 0.930 . S
C678 H664 0.930 . S
C678 C676 1.395 . S
C678 C681 1.403 . S
C679 C676 1.403 . S
C679 C680 1.524 . S
C679 C683 1.400 . S
C680 H665 0.960 . S
C680 H666 0.960 . S
C680 H667 0.960 . S
C680 C679 1.524 . S
C681 C678 1.403 . S
C681 C682 1.392 . S
C681 C685 1.495 . S
C682 C681 1.392 . S
C682 C683 1.385 . S
C682 C684 1.478 . S
C683 H677 0.930 . S
C683 C679 1.400 . S
C683 C682 1.385 . S
C684 C682 1.478 . S
C684 C686 1.381 . S
C684 C690 1.383 . S
C685 C681 1.495 . S
C685 H691 0.959 1_565 S
C685 H692 0.961 . S
C685 H693 0.960 . S
C686 C684 1.381 . S
C686 C687 1.394 . S
C686 H694 0.930 . S
C687 C686 1.394 . S
C687 C688 1.383 . S
C687 H695 0.929 . S
C688 C687 1.383 . S
C688 C689 1.377 . S
C689 H673 0.930 . S
C689 C688 1.377 . S
C689 C690 1.379 . S
C690 H674 0.931 . S
C690 C684 1.383 . S
C690 C689 1.379 . S
H691 C685 0.959 1_545 S
H692 C685 0.961 . S
H693 C685 0.960 . S
H694 C686 0.930 . S
H695 C687 0.929 . S
H696 C704 0.929 . S
H697 C706 0.930 . S
H698 C708 0.930 . S
H699 C711 0.929 . S
H700 C714 0.930 . S
H701 C716 0.953 1_455 S
H702 C716 0.958 1_455 S
H703 C716 0.963 . S
C704 H696 0.929 . S
C704 C705 1.377 . S
C704 C706 1.384 . S
C705 C704 1.377 . S
C705 C711 1.390 . S
C706 H697 0.930 . S
C706 C704 1.384 . S
C706 C707 1.372 . S
C707 C706 1.372 . S
C707 C708 1.400 . S
C707 C712 1.490 . S
C708 H698 0.930 . S
C708 C707 1.400 . S
C708 C711 1.386 . S
H709 C725 0.930 . S
H710 C726 0.931 . S
C711 H699 0.929 . S
C711 C705 1.390 . S
C711 C708 1.386 . S
C712 C707 1.490 . S
C712 C714 1.395 . S
C712 C715 1.403 . S
H713 C719 0.930 1_455 S
C714 H700 0.930 . S
C714 C712 1.395 . S
C714 C717 1.403 . S
C715 C712 1.403 . S
C715 C716 1.530 . S
C715 C719 1.400 . S
C716 H701 0.953 1_655 S
C716 H702 0.958 1_655 S
C716 H703 0.963 . S
C716 C715 1.530 . S
C717 C714 1.403 . S
C717 C718 1.392 . S
C717 C721 1.495 . S
C718 C717 1.392 . S
C718 C719 1.385 . S
C718 C720 1.478 . S
C719 H713 0.930 1_655 S
C719 C715 1.400 . S
C719 C718 1.385 . S
C720 C718 1.478 . S
C720 C722 1.381 . S
C720 C726 1.383 . S
C721 C717 1.495 . S
C721 H727 0.959 . S
C721 H728 0.961 . S
C721 H729 0.960 . S
C722 C720 1.381 . S
C722 C723 1.394 1_655 S
C722 H730 0.930 1_655 S
C723 C722 1.394 1_455 S
C723 C724 1.383 1_455 S
C723 H731 0.929 . S
C724 C723 1.383 1_655 S
C724 C725 1.377 . S
C725 H709 0.930 . S
C725 C724 1.377 . S
C725 C726 1.379 . S
C726 H710 0.931 . S
C726 C720 1.383 . S
C726 C725 1.379 . S
H727 C721 0.959 . S
H728 C721 0.961 . S
H729 C721 0.960 . S
H730 C722 0.930 1_455 S
H731 C723 0.929 . S
H732 C740 0.929 . S
H733 C742 0.930 . S
H734 C744 0.930 . S
H735 C747 0.929 . S
H736 C750 0.930 . S
H737 C752 0.960 . S
H738 C752 0.960 . S
H739 C752 0.960 . S
C740 H732 0.929 . S
C740 C741 1.377 . S
C740 C742 1.384 . S
C741 C740 1.377 . S
C741 C747 1.390 . S
C742 H733 0.930 . S
C742 C740 1.384 . S
C742 C743 1.372 . S
C743 C742 1.372 . S
C743 C744 1.400 . S
C743 C748 1.490 . S
C744 H734 0.930 . S
C744 C743 1.400 . S
C744 C747 1.386 . S
H745 C761 0.930 . S
H746 C762 0.931 . S
C747 H735 0.929 . S
C747 C741 1.390 . S
C747 C744 1.386 . S
C748 C743 1.490 . S
C748 C750 1.395 . S
C748 C751 1.403 . S
H749 C755 0.930 . S
C750 H736 0.930 . S
C750 C748 1.395 . S
C750 C753 1.403 . S
C751 C748 1.403 . S
C751 C752 1.524 . S
C751 C755 1.400 . S
C752 H737 0.960 . S
C752 H738 0.960 . S
C752 H739 0.960 . S
C752 C751 1.524 . S
C753 C750 1.403 . S
C753 C754 1.392 . S
C753 C757 1.495 1_565 S
C754 C753 1.392 . S
C754 C755 1.385 . S
C754 C756 1.478 . S
C755 H749 0.930 . S
C755 C751 1.400 . S
C755 C754 1.385 . S
C756 C754 1.478 . S
C756 C758 1.381 1_565 S
C756 C762 1.383 . S
C757 C753 1.495 1_545 S
C757 H763 0.959 . S
C757 H764 0.961 . S
C757 H765 0.960 . S
C758 C756 1.381 1_545 S
C758 C759 1.394 . S
C758 H766 0.930 . S
C759 C758 1.394 . S
C759 C760 1.383 . S
C759 H767 0.929 . S
C760 C759 1.383 . S
C760 C761 1.377 1_545 S
C761 H745 0.930 . S
C761 C760 1.377 1_565 S
C761 C762 1.379 . S
C762 H746 0.931 . S
C762 C756 1.383 . S
C762 C761 1.379 . S
H763 C757 0.959 . S
H764 C757 0.961 . S
H765 C757 0.960 . S
H766 C758 0.930 . S
H767 C759 0.929 . S
C129 C68 2.114 1_566 S
C148 C8 2.110 1_556 S
C165 C88 2.124 . S
C184 C28 2.149 . S
C201 C108 2.117 . S
C220 C48 2.111 1_655 S
C237 C1 1.409 . S
C256 C42 1.335 . S
C273 C21 1.411 . S
C292 C62 1.339 . S
C309 C41 1.411 . S
C328 C82 1.338 . S
C345 C61 1.407 . S
C364 C102 1.405 . S
C381 C81 1.411 . S
C400 C2 1.338 . S
C417 C101 1.404 . S
C436 C22 1.401 . S
C453 C9 0.998 . S
C472 C69 0.983 . S
C489 C29 0.990 . S
C508 C89 0.980 . S
C525 C49 0.983 . S
C544 C109 1.011 . S
C561 C18 1.684 . S
C580 C39 1.724 . S
C597 C38 1.684 . S
C616 C59 1.723 . S
C633 C58 1.691 . S
C652 C79 1.707 . S
C669 C78 1.685 . S
C688 C99 1.728 . S
C705 C98 1.685 . S
C724 C119 1.728 1_655 S
C741 C118 1.691 . S
C760 C19 1.718 . S
