# Generated by pormake.
# Topology ooa, (5)-cn, num edge types: 1
# Building blocks:
#     Node 0, Type 0, BuildingBlock: XOMCOT_clean_sbu_0, # of connection points: 5
#     Node 1, Type 0, BuildingBlock: XOMCOT_clean_sbu_0, # of connection points: 5
#     Node 2, Type 0, BuildingBlock: XOMCOT_clean_sbu_0, # of connection points: 5
#     Node 3, Type 0, BuildingBlock: XOMCOT_clean_sbu_0, # of connection points: 5
#     Node 4, Type 0, BuildingBlock: XOMCOT_clean_sbu_0, # of connection points: 5
#     Node 5, Type 0, BuildingBlock: XOMCOT_clean_sbu_0, # of connection points: 5
#     Node 6, Type 0, BuildingBlock: XOMCOT_clean_sbu_0, # of connection points: 5
#     Node 7, Type 0, BuildingBlock: XOMCOT_clean_sbu_0, # of connection points: 5
#     Edge 8, Type (0, 0), BuildingBlock: XIVTED_clean_linker_0, # of connection points: 2
#     Edge 9, Type (0, 0), BuildingBlock: XIVTED_clean_linker_0, # of connection points: 2
#     Edge 10, Type (0, 0), BuildingBlock: XIVTED_clean_linker_0, # of connection points: 2
#     Edge 11, Type (0, 0), BuildingBlock: XIVTED_clean_linker_0, # of connection points: 2
#     Edge 12, Type (0, 0), BuildingBlock: XIVTED_clean_linker_0, # of connection points: 2
#     Edge 13, Type (0, 0), BuildingBlock: XIVTED_clean_linker_0, # of connection points: 2
#     Edge 14, Type (0, 0), BuildingBlock: XIVTED_clean_linker_0, # of connection points: 2
#     Edge 15, Type (0, 0), BuildingBlock: XIVTED_clean_linker_0, # of connection points: 2
#     Edge 16, Type (0, 0), BuildingBlock: XIVTED_clean_linker_0, # of connection points: 2
#     Edge 17, Type (0, 0), BuildingBlock: XIVTED_clean_linker_0, # of connection points: 2
#     Edge 18, Type (0, 0), BuildingBlock: XIVTED_clean_linker_0, # of connection points: 2
#     Edge 19, Type (0, 0), BuildingBlock: XIVTED_clean_linker_0, # of connection points: 2
#     Edge 20, Type (0, 0), BuildingBlock: XIVTED_clean_linker_0, # of connection points: 2
#     Edge 21, Type (0, 0), BuildingBlock: XIVTED_clean_linker_0, # of connection points: 2
#     Edge 22, Type (0, 0), BuildingBlock: XIVTED_clean_linker_0, # of connection points: 2
#     Edge 23, Type (0, 0), BuildingBlock: XIVTED_clean_linker_0, # of connection points: 2
#     Edge 24, Type (0, 0), BuildingBlock: XIVTED_clean_linker_0, # of connection points: 2
#     Edge 25, Type (0, 0), BuildingBlock: XIVTED_clean_linker_0, # of connection points: 2
#     Edge 26, Type (0, 0), BuildingBlock: XIVTED_clean_linker_0, # of connection points: 2
#     Edge 27, Type (0, 0), BuildingBlock: XIVTED_clean_linker_0, # of connection points: 2
# Relax obj value: 0.356
# Max RMSD: 0.214
# Mean RMSD: 0.214
data_MOF--net-ooa--node1-XOMCOT_clean_sbu_0--edge1-XIVTED_clean_linker_0
_symmetry_space_group_name_H-M    P1
_symmetry_Int_Tables_number       1
_symmetry_cell_setting            triclinic
loop_
_symmetry_equiv_pos_as_xyz
'x, y, z'
_cell_length_a     29.513201
_cell_length_b     32.264755
_cell_length_c     47.666256
_cell_angle_alpha  90.05549
_cell_angle_beta   89.880569
_cell_angle_gamma 90.081023
loop_
_atom_site_label
_atom_site_type_symbol
_atom_site_fract_x
_atom_site_fract_y
_atom_site_fract_z
_atom_type_partial_charge
Co0 Co 0.07225 0.18905 0.06328 0.0
C1 C 0.99245 0.23554 0.04315 0.0
C2 C 0.04999 0.24462 0.01638 0.0
C3 C 1.01255 0.26193 1.00373 0.0
N4 N 0.03751 0.22833 0.04127 0.0
N5 N 0.97637 0.25608 0.02059 0.0
H6 H 0.97083 0.22247 0.05913 0.0
H7 H 0.08315 0.2413 1.00698 0.0
C8 C 0.14574 0.25432 0.051 0.0
O9 O 0.11979 0.28615 0.05709 0.0
N10 N 0.10567 0.14927 0.08503 0.0
C11 C 0.09247 0.13316 0.1098 0.0
C12 C 0.12283 0.1032 0.11754 0.0
C13 C 0.14342 0.12847 0.0777 0.0
N14 N 0.15471 0.10019 0.09735 0.0
C15 C 0.02182 0.21685 0.11124 0.0
C16 C 0.09531 0.24791 0.14018 0.0
C17 C 0.05496 0.24064 0.15503 0.0
C18 C 1.01732 0.22646 0.13977 0.0
C19 C 0.09884 0.23649 0.11204 0.0
N20 N 0.0626 0.22053 0.09783 0.0
H21 H 0.99366 0.20201 0.10098 0.0
H22 H 0.13216 0.23683 0.10293 0.0
H23 H 0.06194 0.14139 0.12101 0.0
H24 H 0.16155 0.13333 0.05822 0.0
O25 O 0.02074 0.15126 0.06457 0.0
O26 O 0.07392 0.1523 0.03173 0.0
O27 O 0.13117 0.21729 0.0537 0.0
C28 C 0.03814 0.13459 0.04205 0.0
H29 H 1.01157 0.27568 0.98303 0.0
H30 H 0.1204 0.08377 0.13599 0.0
H31 H 0.12522 0.25977 0.15056 0.0
H32 H 0.9855 0.21955 0.15008 0.0
Co33 Co 0.4663 0.78518 0.06277 0.0
C34 C 0.54588 0.73832 0.04236 0.0
C35 C 0.48683 0.7248 0.01798 0.0
C36 C 0.52396 0.70723 1.00497 0.0
N37 N 0.50044 0.74404 0.04166 0.0
N38 N 0.56104 0.71579 0.02039 0.0
H39 H 0.5683 0.75397 0.05675 0.0
H40 H 0.45303 0.72634 1.00936 0.0
C41 C 0.39026 0.7217 0.05311 0.0
O42 O 0.41438 0.69022 0.0621 0.0
N43 N 0.43393 0.82692 0.08356 0.0
C44 C 0.44804 0.84387 0.10787 0.0
C45 C 0.41875 0.87493 0.11524 0.0
C46 C 0.3967 0.8483 0.07611 0.0
N47 N 0.38658 0.87777 0.09528 0.0
C48 C 0.51431 0.75305 0.11057 0.0
C49 C 0.43734 0.73534 0.14144 0.0
C50 C 0.47918 0.7364 0.15521 0.0
C51 C 0.51826 0.74368 0.13917 0.0
C52 C 0.43484 0.74502 0.113 0.0
N53 N 0.47288 0.75458 0.09787 0.0
H54 H 0.54418 0.76327 0.09961 0.0
H55 H 0.40159 0.74924 0.10421 0.0
H56 H 0.47839 0.8351 0.11903 0.0
H57 H 0.37804 0.84288 0.05692 0.0
O58 O 0.51913 0.82136 0.06434 0.0
O59 O 0.46735 0.82082 0.03073 0.0
O60 O 0.40667 0.75831 0.05302 0.0
C61 C 0.5032 0.83788 0.04139 0.0
H62 H 0.52404 0.69146 0.98491 0.0
H63 H 0.42201 0.89506 0.1333 0.0
H64 H 0.40624 0.72981 0.15296 0.0
H65 H 0.55123 0.7456 0.14902 0.0
Co66 Co 0.06541 0.28514 0.46123 0.0
C67 C 0.98207 0.24156 0.47787 0.0
C68 C 0.03869 0.21922 0.50128 0.0
C69 C 0.99957 0.20231 0.51242 0.0
N70 N 0.0277 0.24355 0.47933 0.0
N71 N 0.96388 0.21684 0.49782 0.0
H72 H 0.96219 0.26036 0.46388 0.0
H73 H 0.07215 0.21665 0.51026 0.0
C74 C 0.13876 0.21801 0.46973 0.0
O75 O 0.11531 0.1872 0.45903 0.0
N76 N 0.10173 0.32723 0.44355 0.0
C77 C 0.08955 0.34926 0.42076 0.0
C78 C 0.11834 0.38249 0.41813 0.0
C79 C 0.13773 0.34713 0.45448 0.0
N80 N 0.14832 0.38108 0.43937 0.0
C81 C 1.01785 0.2623 0.41112 0.0
C82 C 0.09345 0.23804 0.38116 0.0
C83 C 0.0526 0.24377 0.36662 0.0
C84 C 1.01414 0.25489 0.38228 0.0
C85 C 0.09596 0.24688 0.40978 0.0
N86 N 0.05852 0.259 0.42455 0.0
H87 H 0.98876 0.27452 0.42193 0.0
H88 H 0.12905 0.24737 0.41922 0.0
H89 H 0.06007 0.34311 0.40799 0.0
H90 H 0.15362 0.33873 0.47412 0.0
O91 O 1.01517 0.32405 0.46043 0.0
O92 O 0.06455 0.31745 0.49505 0.0
O93 O 0.12258 0.25461 0.47067 0.0
C94 C 0.0308 0.33765 0.48432 0.0
H95 H 0.99741 0.18371 0.53126 0.0
H96 H 0.11646 0.40664 0.40242 0.0
H97 H 0.12413 0.2289 0.37035 0.0
H98 H 0.98197 0.26077 0.3722 0.0
Co99 Co 0.47129 0.68718 0.46071 0.0
C100 C 0.55527 0.72882 0.47803 0.0
C101 C 0.49832 0.75677 0.49827 0.0
C102 C 0.53753 0.77341 0.50948 0.0
N103 N 0.50953 0.72906 0.4782 0.0
N104 N 0.57338 0.75538 0.49685 0.0
H105 H 0.57508 0.7075 0.46568 0.0
H106 H 0.46443 0.76232 0.50596 0.0
C107 C 0.39732 0.75406 0.46703 0.0
O108 O 0.41932 0.78328 0.45346 0.0
N109 N 0.43472 0.64467 0.44371 0.0
C110 C 0.44712 0.62195 0.42122 0.0
C111 C 0.4184 0.58864 0.41897 0.0
C112 C 0.39863 0.62508 0.45488 0.0
N113 N 0.38823 0.59068 0.44016 0.0
C114 C 0.51919 0.71413 0.41134 0.0
C115 C 0.44271 0.72927 0.37963 0.0
C116 C 0.48513 0.72967 0.3663 0.0
C117 C 0.52377 0.72298 0.38276 0.0
C118 C 0.43965 0.72039 0.40824 0.0
N119 N 0.47755 0.71268 0.42382 0.0
H120 H 0.54903 0.70552 0.42279 0.0
H121 H 0.40635 0.7163 0.41723 0.0
H122 H 0.47669 0.62784 0.40838 0.0
H123 H 0.38253 0.63407 0.47438 0.0
O124 O 0.52126 0.64797 0.45977 0.0
O125 O 0.4725 0.65579 0.4948 0.0
O126 O 0.41447 0.71817 0.47028 0.0
C127 C 0.50592 0.63513 0.48398 0.0
H128 H 0.53937 0.79469 0.52701 0.0
H129 H 0.42039 0.56404 0.40356 0.0
H130 H 0.41174 0.733 0.36776 0.0
H131 H 0.55728 0.72295 0.37345 0.0
Co132 Co 0.96123 0.78424 0.96095 0.0
C133 C 0.0407 0.73766 0.98107 0.0
C134 C 0.98831 0.73911 1.01205 0.0
C135 C 0.0273 0.72386 0.02426 0.0
N136 N 0.99652 0.74739 0.98475 0.0
N137 N 0.06045 0.72356 1.00477 0.0
H138 H 0.05935 0.74381 0.96216 0.0
H139 H 0.9573 0.74694 0.02295 0.0
C140 C 0.8914 0.71737 0.9767 0.0
O141 O 0.92195 0.68988 0.9839 0.0
N142 N 0.92771 0.82199 0.93755 0.0
C143 C 0.9412 0.83745 0.91263 0.0
C144 C 0.91144 0.86774 0.9046 0.0
C145 C 0.89029 0.84353 0.94459 0.0
N146 N 0.87964 0.87173 0.92475 0.0
C147 C 1.01784 0.76139 0.91441 0.0
C148 C 0.95097 0.72143 0.88428 0.0
C149 C 0.9913 0.73235 0.87048 0.0
C150 C 0.02579 0.75078 0.88641 0.0
C151 C 0.9446 0.73202 0.91246 0.0
N152 N 0.9772 0.75311 0.92706 0.0
H153 H 0.04293 0.78015 0.92485 0.0
H154 H 0.91158 0.7265 0.92127 0.0
H155 H 0.97192 0.8293 0.90167 0.0
H156 H 0.87242 0.83975 0.96427 0.0
O157 O 1.01017 0.82458 0.96191 0.0
O158 O 0.95324 0.8213 0.99216 0.0
O159 O 0.90294 0.75269 0.96699 0.0
C160 C 0.98914 0.84063 0.98341 0.0
H161 H 0.03193 0.71731 0.04634 0.0
H162 H 0.91472 0.88719 0.88621 0.0
H163 H 0.92291 0.70777 0.87296 0.0
H164 H 0.0578 0.75938 0.87692 0.0
Co165 Co 0.57585 0.18909 0.96166 0.0
C166 C 0.49646 0.23658 0.98108 0.0
C167 C 0.54701 0.23299 1.01301 0.0
C168 C 0.50785 0.2489 0.02469 0.0
N169 N 0.54009 0.22569 0.98546 0.0
N170 N 0.47585 0.25057 1.00459 0.0
H171 H 0.47874 0.2314 0.9617 0.0
H172 H 0.57721 0.22419 0.02435 0.0
C173 C 0.64579 0.25534 0.97865 0.0
O174 O 0.61561 0.28208 0.98762 0.0
N175 N 0.60984 0.15163 0.93816 0.0
C176 C 0.59636 0.13571 0.91337 0.0
C177 C 0.62718 0.10657 0.90488 0.0
C178 C 0.6483 0.13139 0.94469 0.0
N179 N 0.65964 0.1037 0.92461 0.0
C180 C 0.52022 0.21089 0.91458 0.0
C181 C 0.58744 0.25222 0.88548 0.0
C182 C 0.54866 0.23935 0.87102 0.0
C183 C 0.51371 0.22045 0.88626 0.0
C184 C 0.59248 0.2425 0.91384 0.0
N185 N 0.56002 0.22029 0.92785 0.0
H186 H 0.49513 0.19175 0.92478 0.0
H187 H 0.62454 0.24975 0.92329 0.0
H188 H 0.56507 0.14278 0.9028 0.0
H189 H 0.66658 0.1358 0.96413 0.0
O190 O 0.52721 0.1484 0.96252 0.0
O191 O 0.58394 0.15199 0.99276 0.0
O192 O 0.63387 0.22087 0.96777 0.0
C193 C 0.5483 0.13241 0.98395 0.0
H194 H 0.50218 0.25499 0.04676 0.0
H195 H 0.62434 0.08709 0.88646 0.0
H196 H 0.61506 0.26737 0.87451 0.0
H197 H 0.48336 0.20957 0.87582 0.0
Co198 Co 0.96931 0.68742 0.56663 0.0
C199 C 0.05443 0.72605 0.54734 0.0
C200 C 0.99775 0.7523 0.52595 0.0
C201 C 0.03704 0.76805 0.5143 0.0
N202 N 1.00867 0.72635 0.54704 0.0
N203 N 0.07279 0.75124 0.52769 0.0
H204 H 0.07399 0.70582 0.56056 0.0
H205 H 0.96396 0.75734 0.51803 0.0
C206 C 0.89757 0.75559 0.55738 0.0
O207 O 0.92064 0.78553 0.56943 0.0
N208 N 0.9312 0.64796 0.5857 0.0
C209 C 0.93959 0.63053 0.61086 0.0
C210 C 0.90569 0.6027 0.61673 0.0
C211 C 0.89316 0.62973 0.57615 0.0
N212 N 0.87686 0.6022 0.59488 0.0
C213 C 0.01813 0.71719 0.61475 0.0
C214 C 0.94192 0.73562 0.64614 0.0
C215 C 0.984 0.73385 0.6596 0.0
C216 C 0.02268 0.72622 0.64332 0.0
C217 C 0.9389 0.72687 0.61752 0.0
N218 N 0.97656 0.71666 0.60222 0.0
H219 H 0.04765 0.70684 0.60355 0.0
H220 H 0.90553 0.72392 0.60855 0.0
H221 H 0.96871 0.6372 0.62385 0.0
H222 H 0.87803 0.63618 0.55595 0.0
O223 O 1.01807 0.6471 0.56931 0.0
O224 O 0.96937 0.65244 0.53416 0.0
O225 O 0.91348 0.71894 0.55579 0.0
C226 C 1.00236 0.63224 0.54575 0.0
H227 H 0.03896 0.78808 0.49614 0.0
H228 H 0.90307 0.58332 0.6352 0.0
H229 H 0.91116 0.74126 0.65798 0.0
H230 H 0.05574 0.72382 0.653 0.0
Co231 Co 0.56454 0.28767 0.56784 0.0
C232 C 0.48194 0.24707 0.54728 0.0
C233 C 0.53985 0.22233 0.52619 0.0
C234 C 0.50119 0.20623 0.51389 0.0
N235 N 0.52768 0.24758 0.5475 0.0
N236 N 0.46477 0.22226 0.5271 0.0
H237 H 0.46135 0.26671 0.5604 0.0
H238 H 0.57401 0.21819 0.51853 0.0
C239 C 0.63914 0.22203 0.55881 0.0
O240 O 0.61611 0.19083 0.56936 0.0
N241 N 0.59958 0.3286 0.58788 0.0
C242 C 0.58867 0.34428 0.61321 0.0
C243 C 0.61563 0.37793 0.61847 0.0
C244 C 0.63255 0.35344 0.57777 0.0
N245 N 0.64282 0.38411 0.59606 0.0
C246 C 0.51438 0.25592 0.61497 0.0
C247 C 0.58945 0.23762 0.64717 0.0
C248 C 0.54665 0.23769 0.66007 0.0
C249 C 0.50867 0.24538 0.6432 0.0
C250 C 0.59362 0.2478 0.61881 0.0
N251 N 0.55648 0.25783 0.60313 0.0
H252 H 0.4851 0.26598 0.60352 0.0
H253 H 0.6273 0.25195 0.61045 0.0
H254 H 0.56134 0.33338 0.62642 0.0
H255 H 0.64641 0.35071 0.55682 0.0
O256 O 0.5141 0.32653 0.56954 0.0
O257 O 0.56493 0.32239 0.53535 0.0
O258 O 0.62229 0.25835 0.55796 0.0
C259 C 0.53049 0.34153 0.54617 0.0
H260 H 0.50004 0.18679 0.49538 0.0
H261 H 0.61422 0.39701 0.63711 0.0
H262 H 0.62003 0.23302 0.65926 0.0
H263 H 0.47482 0.24543 0.65201 0.0
H264 H 0.06374 0.09828 0.99308 0.0
H265 H 0.95402 0.87821 0.02985 0.0
H266 H 0.98276 0.07688 0.06716 0.0
H267 H 0.04725 0.89838 0.96135 0.0
H268 H 0.96231 0.95083 0.04343 0.0
H269 H 0.05341 0.02606 0.97962 0.0
C270 C 0.0431 0.0785 1.00631 0.0
C271 C 0.02409 0.09361 0.03132 0.0
C272 C 0.98125 0.93933 0.02557 0.0
C273 C 1.01287 0.01045 0.01624 0.0
C274 C 0.9768 0.89779 0.0179 0.0
C275 C 1.00008 0.88221 0.99444 0.0
C276 C 1.00894 0.96563 1.00954 0.0
C277 C 0.02892 0.90902 0.97968 0.0
C278 C 0.03756 0.03712 0.99871 0.0
C279 C 0.99775 0.06656 0.04762 0.0
N280 N 0.03227 0.94951 0.98736 0.0
N281 N 0.99317 0.02613 0.0399 0.0
H282 H 0.58192 0.09574 0.031 0.0
H283 H 0.48271 0.8727 0.99117 0.0
H284 H 0.49322 0.07322 0.96076 0.0
H285 H 0.5554 0.89653 0.06796 0.0
H286 H 0.49233 0.94507 0.97789 0.0
H287 H 0.57544 0.02281 0.0442 0.0
C288 C 0.56048 0.07556 0.01859 0.0
C289 C 0.53795 0.09058 0.99476 0.0
C290 C 0.50658 0.9345 0.99753 0.0
C291 C 0.53127 0.00684 1.00941 0.0
C292 C 0.50151 0.89304 1.00502 0.0
C293 C 0.51826 0.87858 0.03074 0.0
C294 C 0.52852 0.96191 0.0159 0.0
C295 C 0.54225 0.90633 0.04785 0.0
C296 C 0.55708 0.03386 0.02605 0.0
C297 C 0.51087 0.06304 0.9794 0.0
N298 N 0.54635 0.94683 0.04023 0.0
N299 N 0.50857 0.02241 0.98687 0.0
H300 H 0.05 0.57102 0.57265 0.0
H301 H 0.98089 0.39858 0.45904 0.0
H302 H 0.97845 0.59754 0.4959 0.0
H303 H 0.05668 0.37169 0.53416 0.0
H304 H 0.97688 0.47132 0.47334 0.0
H305 H 0.05396 0.49793 0.55881 0.0
C306 C 0.03603 0.56165 0.55263 0.0
C307 C 1.01388 0.59039 0.53541 0.0
C308 C 0.994 0.44942 0.48685 0.0
C309 C 1.01711 0.50679 0.51979 0.0
C310 C 0.99575 0.40777 0.47885 0.0
C311 C 0.01908 0.37902 0.49544 0.0
C312 C 1.01578 0.46239 0.51158 0.0
C313 C 0.03832 0.39282 0.52072 0.0
C314 C 0.03777 0.51985 0.54488 0.0
C315 C 0.99579 0.57642 0.50986 0.0
N316 N 0.03652 0.43354 0.52792 0.0
N317 N 0.99751 0.53564 0.50293 0.0
H318 H 0.4856 0.60514 0.53589 0.0
H319 H 0.54733 0.37186 0.4941 0.0
H320 H 0.54881 0.57072 0.45759 0.0
H321 H 0.48905 0.40567 0.57395 0.0
H322 H 0.54477 0.44429 0.47972 0.0
H323 H 0.48738 0.5327 0.55058 0.0
C324 C 0.50079 0.58243 0.52202 0.0
C325 C 0.51721 0.59399 0.49548 0.0
C326 C 0.53207 0.43594 0.50028 0.0
C327 C 0.51817 0.51077 0.51187 0.0
C328 C 0.53305 0.39449 0.5084 0.0
C329 C 0.51828 0.38276 0.53525 0.0
C330 C 0.51643 0.46606 0.51919 0.0
C331 C 0.50033 0.41335 0.55296 0.0
C332 C 0.50134 0.54099 0.53032 0.0
C333 C 0.5362 0.56325 0.47832 0.0
N334 N 0.50031 0.45374 0.54471 0.0
N335 N 0.53576 0.52297 0.48671 0.0
H336 H 0.3478 0.91174 0.04896 0.0
H337 H 0.19894 0.06764 0.14153 0.0
H338 H 0.34484 0.91356 0.13944 0.0
H339 H 0.19211 0.06419 0.05118 0.0
H340 H 0.25484 0.01239 0.14042 0.0
H341 H 0.29151 0.96763 0.04846 0.0
C342 C 0.33497 0.9236 0.06867 0.0
C343 C 0.35118 0.90824 0.09429 0.0
C344 C 0.24128 0.02365 0.12077 0.0
C345 C 0.28762 0.97226 0.09391 0.0
C346 C 0.20929 0.05518 0.12143 0.0
C347 C 0.19063 0.07023 0.09645 0.0
C348 C 0.25482 0.00686 0.0949 0.0
C349 C 0.20591 0.05358 0.07091 0.0
C350 C 0.30318 0.95567 0.06839 0.0
C351 C 0.33387 0.92498 0.11924 0.0
N352 N 0.23703 0.02252 0.07078 0.0
N353 N 0.30317 0.9561 0.11841 0.0
H354 H 0.13812 0.4639 0.43619 0.0
H355 H 0.39887 0.50785 0.43891 0.0
H356 H 0.23371 0.36826 0.45755 0.0
H357 H 0.30196 0.60412 0.45664 0.0
H358 H 0.33932 0.45581 0.44537 0.0
H359 H 0.19729 0.51612 0.44317 0.0
C360 C 0.17166 0.45407 0.44249 0.0
C361 C 0.18158 0.41194 0.44593 0.0
C362 C 0.33117 0.48826 0.44825 0.0
C363 C 0.24915 0.47106 0.45378 0.0
C364 C 0.36496 0.51784 0.44435 0.0
C365 C 0.35479 0.56007 0.44688 0.0
C366 C 0.28677 0.5012 0.45406 0.0
C367 C 0.31076 0.57173 0.45443 0.0
C368 C 0.20521 0.48378 0.4467 0.0
C369 C 0.2251 0.40056 0.45461 0.0
N370 N 0.27798 0.5424 0.45726 0.0
N371 N 0.25768 0.42998 0.45777 0.0
H372 H 0.84474 0.90865 0.97136 0.0
H373 H 0.70338 0.07104 0.88015 0.0
H374 H 0.83772 0.90799 0.88096 0.0
H375 H 0.69575 0.06621 0.97046 0.0
H376 H 0.75665 0.01354 0.88073 0.0
H377 H 0.79207 0.96727 0.97226 0.0
C378 C 0.83169 0.92048 0.95175 0.0
C379 C 0.84573 0.90358 0.92601 0.0
C380 C 0.74352 0.02504 0.90048 0.0
C381 C 0.7864 0.97088 0.92687 0.0
C382 C 0.71313 0.05788 0.90013 0.0
C383 C 0.69493 0.07314 0.92525 0.0
C384 C 0.75587 0.00717 0.92618 0.0
C385 C 0.70927 0.05551 0.95063 0.0
C386 C 0.80199 0.95414 0.95226 0.0
C387 C 0.82831 0.92048 0.90121 0.0
N388 N 0.73877 0.02317 0.95046 0.0
N389 N 0.79972 0.95325 0.90226 0.0
H390 H 0.7151 0.38863 0.56047 0.0
H391 H 0.81327 0.58794 0.63387 0.0
H392 H 0.63958 0.45914 0.62179 0.0
H393 H 0.85387 0.55582 0.54981 0.0
H394 H 0.75172 0.5373 0.63102 0.0
H395 H 0.76886 0.44642 0.55654 0.0
C396 C 0.70954 0.41623 0.57291 0.0
C397 C 0.67323 0.41854 0.59195 0.0
C398 C 0.77369 0.54161 0.61303 0.0
C399 C 0.73461 0.4842 0.58775 0.0
C400 C 0.80871 0.57032 0.61473 0.0
C401 C 0.83822 0.57575 0.59205 0.0
C402 C 0.76888 0.51748 0.58869 0.0
C403 C 0.8313 0.55245 0.56759 0.0
C404 C 0.7402 0.44913 0.57064 0.0
C405 C 0.66777 0.45516 0.60755 0.0
N406 N 0.79759 0.52369 0.56665 0.0
N407 N 0.69839 0.48626 0.60534 0.0
H408 H 0.20505 0.31876 0.06249 0.0
H409 H 0.40744 0.21259 0.97646 0.0
H410 H 0.19527 0.20183 0.01895 0.0
H411 H 0.43371 0.30075 0.04259 0.0
H412 H 0.3267 0.21869 0.98559 0.0
H413 H 0.2861 0.3222 0.04964 0.0
C414 C 0.21975 0.29416 0.04999 0.0
C415 C 0.19345 0.25988 0.04188 0.0
C416 C 0.35001 0.23698 0.99802 0.0
C417 C 0.28544 0.26374 0.02703 0.0
C418 C 0.3963 0.23383 0.99263 0.0
C419 C 0.42768 0.25631 1.00872 0.0
C420 C 0.33445 0.26295 0.01963 0.0
C421 C 0.41076 0.28264 0.02983 0.0
C422 C 0.26594 0.296 0.04284 0.0
C423 C 0.21427 0.2287 0.02585 0.0
N424 N 0.36525 0.28525 0.03471 0.0
N425 N 0.25878 0.23144 0.01896 0.0
H426 H 0.12925 0.7634 0.97803 0.0
H427 H 0.32966 0.65898 0.06632 0.0
H428 H 0.10212 0.67382 0.0431 0.0
H429 H 0.34161 0.77295 0.01959 0.0
H430 H 0.24882 0.65562 0.05337 0.0
H431 H 0.20968 0.75828 0.98796 0.0
C432 C 0.14014 0.74208 0.99415 0.0
C433 C 0.10857 0.71881 1.00965 0.0
C434 C 0.26937 0.68118 0.04591 0.0
C435 C 0.20156 0.71335 0.02154 0.0
C436 C 0.31549 0.68298 0.05313 0.0
C437 C 0.34244 0.71637 0.04412 0.0
C438 C 0.25048 0.71263 0.0292 0.0
C439 C 0.3222 0.74676 0.02721 0.0
C440 C 0.18628 0.73949 1.00002 0.0
C441 C 0.12519 0.69249 0.03077 0.0
N442 N 0.2777 0.74411 0.02032 0.0
N443 N 0.17057 0.69044 0.03613 0.0
H444 H 0.39882 0.27946 0.53569 0.0
H445 H 0.20042 0.15509 0.45805 0.0
H446 H 0.42248 0.15875 0.49941 0.0
H447 H 0.18471 0.26901 0.50461 0.0
H448 H 0.28081 0.15314 0.4724 0.0
H449 H 0.31988 0.27414 0.52343 0.0
C450 C 0.38744 0.25141 0.52546 0.0
C451 C 0.41763 0.21917 0.51908 0.0
C452 C 0.25946 0.17831 0.47954 0.0
C453 C 0.3259 0.2132 0.50414 0.0
C454 C 0.21363 0.17934 0.47148 0.0
C455 C 0.18585 0.21247 0.4799 0.0
C456 C 0.27722 0.2106 0.49611 0.0
C457 C 0.20476 0.24311 0.49723 0.0
C458 C 0.342 0.2485 0.5182 0.0
C459 C 0.40047 0.18436 0.50474 0.0
N460 N 0.24899 0.24147 0.50456 0.0
N461 N 0.35565 0.18223 0.49774 0.0
H462 H 0.14118 0.69815 0.54121 0.0
H463 H 0.33388 0.81397 0.45275 0.0
H464 H 0.11417 0.81232 0.497 0.0
H465 H 0.35463 0.70826 0.50664 0.0
H466 H 0.25434 0.8169 0.46875 0.0
H467 H 0.21999 0.70386 0.52861 0.0
C468 C 0.15159 0.72483 0.52912 0.0
C469 C 0.12032 0.75495 0.52041 0.0
C470 C 0.2766 0.79336 0.47716 0.0
C471 C 0.21208 0.76122 0.50516 0.0
C472 C 0.32197 0.7918 0.46813 0.0
C473 C 0.35088 0.76058 0.47812 0.0
C474 C 0.26041 0.76353 0.49627 0.0
C475 C 0.33361 0.73256 0.49799 0.0
C476 C 0.19706 0.72793 0.52171 0.0
C477 C 0.13673 0.78812 0.50405 0.0
N478 N 0.28974 0.73461 0.5062 0.0
N479 N 0.18146 0.79032 0.49686 0.0
H480 H 0.59767 0.71994 0.96821 0.0
H481 H 0.85081 0.66889 0.01701 0.0
H482 H 0.63128 0.69805 0.05486 0.0
H483 H 0.82046 0.74836 0.94683 0.0
H484 H 0.76912 0.66354 0.02704 0.0
H485 H 0.67826 0.71459 0.95601 0.0
C486 C 0.62196 0.71335 0.98459 0.0
C487 C 0.60783 0.70947 1.01261 0.0
C488 C 0.78048 0.68176 1.00929 0.0
C489 C 0.69999 0.70311 0.99878 0.0
C490 C 0.82697 0.68456 1.00343 0.0
C491 C 0.84242 0.70917 0.98109 0.0
C492 C 0.7493 0.70297 0.99231 0.0
C493 C 0.81004 0.7292 0.96434 0.0
C494 C 0.66792 0.71058 0.97766 0.0
C495 C 0.64089 0.7015 0.03307 0.0
N496 N 0.7651 0.72559 0.97024 0.0
N497 N 0.68543 0.69846 0.02577 0.0
H498 H 0.71506 0.22593 0.94653 0.0
H499 H 0.90825 0.27589 0.05644 0.0
H500 H 0.68845 0.30129 0.0195 0.0
H501 H 0.93681 0.25093 0.96934 0.0
H502 H 0.82736 0.28207 0.04495 0.0
H503 H 0.79627 0.23159 0.95569 0.0
C504 C 0.72638 0.24409 0.96434 0.0
C505 C 0.69493 0.26323 0.98228 0.0
C506 C 0.85145 0.27573 0.02833 0.0
C507 C 0.78802 0.26908 0.99322 0.0
C508 C 0.89749 0.27199 0.03489 0.0
C509 C 0.9293 0.26291 0.01382 0.0
C510 C 0.83699 0.26944 1.00058 0.0
C511 C 0.9136 0.25835 0.98619 0.0
C512 C 0.77276 0.24733 0.96953 0.0
C513 C 0.71155 0.28631 1.00504 0.0
N514 N 0.86857 0.26114 0.98045 0.0
N515 N 0.75698 0.28809 1.01013 0.0
H516 H 0.83638 0.81886 0.56885 0.0
H517 H 0.63911 0.6976 0.48854 0.0
H518 H 0.85295 0.70674 0.52043 0.0
H519 H 0.61655 0.81935 0.52359 0.0
H520 H 0.71787 0.70239 0.50109 0.0
H521 H 0.75678 0.82227 0.55311 0.0
C522 C 0.82355 0.79535 0.55471 0.0
C523 C 0.85128 0.76223 0.54622 0.0
C524 C 0.69602 0.72837 0.50595 0.0
C525 C 0.76078 0.76574 0.52842 0.0
C526 C 0.65062 0.72578 0.49852 0.0
C527 C 0.62071 0.75841 0.50455 0.0
C528 C 0.71234 0.7637 0.51987 0.0
C529 C 0.63823 0.79338 0.51856 0.0
C530 C 0.77816 0.79721 0.54584 0.0
C531 C 0.83288 0.73256 0.52792 0.0
N532 N 0.68294 0.79512 0.52582 0.0
N533 N 0.78903 0.73495 0.51986 0.0
H534 H 0.92183 0.15467 0.52688 0.0
H535 H 0.68528 0.27563 0.52561 0.0
H536 H 0.89682 0.27194 0.48624 0.0
H537 H 0.69984 0.1572 0.5667 0.0
H538 H 0.76284 0.27137 0.50968 0.0
H539 H 0.84147 0.152 0.54071 0.0
C540 C 0.89961 0.17972 0.52076 0.0
C541 C 0.91641 0.21346 0.50517 0.0
C542 C 0.74938 0.24607 0.52209 0.0
C543 C 0.82459 0.21048 0.52083 0.0
C544 C 0.7048 0.24849 0.53129 0.0
C545 C 0.68587 0.21682 0.54776 0.0
C546 C 0.77604 0.2118 0.5294 0.0
C547 C 0.71305 0.18233 0.55406 0.0
C548 C 0.85374 0.17806 0.52857 0.0
C549 C 0.88583 0.24485 0.49769 0.0
N550 N 0.75701 0.18083 0.54503 0.0
N551 N 0.84178 0.24258 0.50564 0.0
H552 H 0.98153 0.22136 0.33163 0.0
H553 H 0.12493 0.22634 0.19191 0.0
H554 H 0.12048 0.26402 0.32932 0.0
H555 H 0.98271 0.25857 0.19058 0.0
H556 H 0.12311 0.22811 0.24272 0.0
H557 H 0.98034 0.22289 0.28022 0.0
C558 C 1.01178 0.23103 0.32055 0.0
C559 C 0.05133 0.24222 0.33524 0.0
C560 C 0.09239 0.23503 0.23124 0.0
C561 C 0.05017 0.24302 0.27634 0.0
C562 C 0.09337 0.23457 0.20205 0.0
C563 C 0.05404 0.24312 0.18642 0.0
C564 C 0.05162 0.24299 0.24529 0.0
C565 C 1.01388 0.25148 0.20143 0.0
C566 C 1.01096 0.23179 0.29118 0.0
C567 C 0.08954 0.25386 0.31933 0.0
N568 N 1.01362 0.25095 0.23003 0.0
N569 N 0.08806 0.25363 0.29087 0.0
H570 H 0.42256 0.77521 0.19214 0.0
H571 H 0.54199 0.68781 0.33031 0.0
H572 H 0.5407 0.69664 0.18944 0.0
H573 H 0.43511 0.77905 0.33104 0.0
H574 H 0.54264 0.69024 0.27908 0.0
H575 H 0.42608 0.77522 0.24313 0.0
C576 C 0.449 0.75749 0.20229 0.0
C577 C 0.48103 0.73537 0.18641 0.0
C578 C 0.51925 0.70991 0.29047 0.0
C579 C 0.48578 0.73596 0.24516 0.0
C580 C 0.51908 0.70884 0.31979 0.0
C581 C 0.4884 0.73329 0.33518 0.0
C582 C 0.48836 0.73544 0.27632 0.0
C583 C 0.45893 0.75921 0.32018 0.0
C584 C 0.45126 0.75788 0.23148 0.0
C585 C 0.5153 0.71406 0.20083 0.0
N586 N 0.45952 0.75944 0.29166 0.0
N587 N 0.51665 0.71471 0.2294 0.0
H588 H 0.04399 0.77655 0.69301 0.0
H589 H 0.95633 0.67215 0.8354 0.0
H590 H 0.93115 0.69163 0.69688 0.0
H591 H 0.03387 0.78583 0.83394 0.0
H592 H 0.95567 0.67234 0.78414 0.0
H593 H 0.04922 0.77424 0.74443 0.0
C594 C 0.02029 0.75756 0.70469 0.0
C595 C 0.98676 0.73465 0.69071 0.0
C596 C 0.97304 0.69708 0.79512 0.0
C597 C 0.993 0.73127 0.7493 0.0
C598 C 0.9734 0.69706 0.82443 0.0
C599 C 0.99504 0.72909 0.83929 0.0
C600 C 0.99483 0.72912 0.78039 0.0
C601 C 1.01734 0.76005 0.82364 0.0
C602 C 0.02324 0.75626 0.73398 0.0
C603 C 0.95697 0.71039 0.70684 0.0
N604 N 1.01657 0.75932 0.79512 0.0
N605 N 0.96091 0.70919 0.73522 0.0
H606 H 0.48675 0.27815 0.69504 0.0
H607 H 0.61539 0.21536 0.83503 0.0
H608 H 0.59759 0.19083 0.6967 0.0
H609 H 0.47912 0.26351 0.83617 0.0
H610 H 0.61262 0.21258 0.78388 0.0
H611 H 0.4852 0.2776 0.7462 0.0
C612 C 0.5103 0.25826 0.70601 0.0
C613 C 0.54243 0.23446 0.69124 0.0
C614 C 0.58332 0.22382 0.79528 0.0
C615 C 0.54161 0.23496 0.75012 0.0
C616 C 0.58505 0.22589 0.82446 0.0
C617 C 0.54758 0.24015 0.83987 0.0
C618 C 0.54398 0.23647 0.78122 0.0
C619 C 0.50876 0.25241 0.82507 0.0
C620 C 0.50958 0.25832 0.73532 0.0
C621 C 0.57272 0.21026 0.70697 0.0
N622 N 0.50805 0.25055 0.79652 0.0
N623 N 0.57181 0.21142 0.73548 0.0
loop_
_geom_bond_atom_site_label_1
_geom_bond_atom_site_label_2
_geom_bond_distance
_geom_bond_site_symmetry_2
_ccdc_geom_bond_type
Co0 N4 2.148 . S
Co0 N10 2.128 . S
Co0 N20 2.194 . S
Co0 O25 2.351 . S
Co0 O26 2.155 . S
Co0 O27 2.096 . S
C1 N4 1.301 1_655 S
C1 N5 1.328 . S
C1 H6 0.930 . S
C2 C3 1.333 1_455 S
C2 N4 1.317 . S
C2 H7 0.930 . S
C3 C2 1.333 1_655 S
C3 N5 1.350 . S
C3 H29 0.931 . S
N4 Co0 2.148 . S
N4 C1 1.301 1_455 S
N4 C2 1.317 . S
N5 C1 1.328 . S
N5 C3 1.350 . S
H6 C1 0.930 . S
H7 C2 0.930 . S
C8 O9 1.224 . S
C8 O27 1.247 . S
O9 C8 1.224 . S
N10 Co0 2.128 . S
N10 C11 1.355 . S
N10 C13 1.311 . S
C11 N10 1.355 . S
C11 C12 1.363 . S
C11 H23 0.929 . S
C12 C11 1.363 . S
C12 N14 1.375 . S
C12 H30 0.931 . S
C13 N10 1.311 . S
C13 N14 1.347 . S
C13 H24 0.929 . S
N14 C12 1.375 . S
N14 C13 1.347 . S
C15 C18 1.365 . S
C15 N20 1.328 . S
C15 H21 0.929 1_455 S
C16 C17 1.362 . S
C16 C19 1.378 . S
C16 H31 0.929 . S
C17 C16 1.362 . S
C17 C18 1.366 . S
C18 C15 1.365 . S
C18 C17 1.366 . S
C18 H32 0.930 1_455 S
C19 C16 1.378 . S
C19 N20 1.315 . S
C19 H22 0.930 . S
N20 Co0 2.194 . S
N20 C15 1.328 . S
N20 C19 1.315 . S
H21 C15 0.929 1_655 S
H22 C19 0.930 . S
H23 C11 0.929 . S
H24 C13 0.929 . S
O25 Co0 2.351 . S
O25 C28 1.244 . S
O26 Co0 2.155 . S
O26 C28 1.240 . S
O27 Co0 2.096 . S
O27 C8 1.247 . S
C28 O25 1.244 . S
C28 O26 1.240 . S
H29 C3 0.931 . S
H30 C12 0.931 . S
H31 C16 0.929 . S
H32 C18 0.930 1_655 S
Co33 N37 2.148 . S
Co33 N43 2.128 . S
Co33 N53 2.194 . S
Co33 O58 2.351 . S
Co33 O59 2.155 . S
Co33 O60 2.096 . S
C34 N37 1.301 . S
C34 N38 1.328 . S
C34 H39 0.930 . S
C35 C36 1.333 . S
C35 N37 1.317 . S
C35 H40 0.930 . S
C36 C35 1.333 . S
C36 N38 1.350 . S
C36 H62 0.931 . S
N37 Co33 2.148 . S
N37 C34 1.301 . S
N37 C35 1.317 . S
N38 C34 1.328 . S
N38 C36 1.350 . S
H39 C34 0.930 . S
H40 C35 0.930 . S
C41 O42 1.224 . S
C41 O60 1.247 . S
O42 C41 1.224 . S
N43 Co33 2.128 . S
N43 C44 1.355 . S
N43 C46 1.311 . S
C44 N43 1.355 . S
C44 C45 1.363 . S
C44 H56 0.929 . S
C45 C44 1.363 . S
C45 N47 1.375 . S
C45 H63 0.931 . S
C46 N43 1.311 . S
C46 N47 1.347 . S
C46 H57 0.929 . S
N47 C45 1.375 . S
N47 C46 1.347 . S
C48 C51 1.365 . S
C48 N53 1.328 . S
C48 H54 0.929 . S
C49 C50 1.362 . S
C49 C52 1.378 . S
C49 H64 0.929 . S
C50 C49 1.362 . S
C50 C51 1.366 . S
C51 C48 1.365 . S
C51 C50 1.366 . S
C51 H65 0.930 . S
C52 C49 1.378 . S
C52 N53 1.315 . S
C52 H55 0.930 . S
N53 Co33 2.194 . S
N53 C48 1.328 . S
N53 C52 1.315 . S
H54 C48 0.929 . S
H55 C52 0.930 . S
H56 C44 0.929 . S
H57 C46 0.929 . S
O58 Co33 2.351 . S
O58 C61 1.244 . S
O59 Co33 2.155 . S
O59 C61 1.240 . S
O60 Co33 2.096 . S
O60 C41 1.247 . S
C61 O58 1.244 . S
C61 O59 1.240 . S
H62 C36 0.931 . S
H63 C45 0.931 . S
H64 C49 0.929 . S
H65 C51 0.930 . S
Co66 N70 2.148 . S
Co66 N76 2.128 . S
Co66 N86 2.194 . S
Co66 O91 2.351 . S
Co66 O92 2.155 . S
Co66 O93 2.096 . S
C67 N70 1.301 1_655 S
C67 N71 1.328 . S
C67 H72 0.930 . S
C68 C69 1.333 1_455 S
C68 N70 1.317 . S
C68 H73 0.930 . S
C69 C68 1.333 1_655 S
C69 N71 1.350 . S
C69 H95 0.931 . S
N70 Co66 2.148 . S
N70 C67 1.301 1_455 S
N70 C68 1.317 . S
N71 C67 1.328 . S
N71 C69 1.350 . S
H72 C67 0.930 . S
H73 C68 0.930 . S
C74 O75 1.224 . S
C74 O93 1.247 . S
O75 C74 1.224 . S
N76 Co66 2.128 . S
N76 C77 1.355 . S
N76 C79 1.311 . S
C77 N76 1.355 . S
C77 C78 1.363 . S
C77 H89 0.929 . S
C78 C77 1.363 . S
C78 N80 1.375 . S
C78 H96 0.931 . S
C79 N76 1.311 . S
C79 N80 1.347 . S
C79 H90 0.929 . S
N80 C78 1.375 . S
N80 C79 1.347 . S
C81 C84 1.365 . S
C81 N86 1.328 . S
C81 H87 0.929 1_455 S
C82 C83 1.362 . S
C82 C85 1.378 . S
C82 H97 0.929 . S
C83 C82 1.362 . S
C83 C84 1.366 . S
C84 C81 1.365 . S
C84 C83 1.366 . S
C84 H98 0.930 1_455 S
C85 C82 1.378 . S
C85 N86 1.315 . S
C85 H88 0.930 . S
N86 Co66 2.194 . S
N86 C81 1.328 . S
N86 C85 1.315 . S
H87 C81 0.929 1_655 S
H88 C85 0.930 . S
H89 C77 0.929 . S
H90 C79 0.929 . S
O91 Co66 2.351 . S
O91 C94 1.244 . S
O92 Co66 2.155 . S
O92 C94 1.240 . S
O93 Co66 2.096 . S
O93 C74 1.247 . S
C94 O91 1.244 . S
C94 O92 1.240 . S
H95 C69 0.931 . S
H96 C78 0.931 . S
H97 C82 0.929 . S
H98 C84 0.930 1_655 S
Co99 N103 2.148 . S
Co99 N109 2.128 . S
Co99 N119 2.194 . S
Co99 O124 2.351 . S
Co99 O125 2.155 . S
Co99 O126 2.096 . S
C100 N103 1.301 . S
C100 N104 1.328 . S
C100 H105 0.930 . S
C101 C102 1.333 . S
C101 N103 1.317 . S
C101 H106 0.930 . S
C102 C101 1.333 . S
C102 N104 1.350 . S
C102 H128 0.931 . S
N103 Co99 2.148 . S
N103 C100 1.301 . S
N103 C101 1.317 . S
N104 C100 1.328 . S
N104 C102 1.350 . S
H105 C100 0.930 . S
H106 C101 0.930 . S
C107 O108 1.224 . S
C107 O126 1.247 . S
O108 C107 1.224 . S
N109 Co99 2.128 . S
N109 C110 1.355 . S
N109 C112 1.311 . S
C110 N109 1.355 . S
C110 C111 1.363 . S
C110 H122 0.929 . S
C111 C110 1.363 . S
C111 N113 1.375 . S
C111 H129 0.931 . S
C112 N109 1.311 . S
C112 N113 1.347 . S
C112 H123 0.929 . S
N113 C111 1.375 . S
N113 C112 1.347 . S
C114 C117 1.365 . S
C114 N119 1.328 . S
C114 H120 0.929 . S
C115 C116 1.362 . S
C115 C118 1.378 . S
C115 H130 0.929 . S
C116 C115 1.362 . S
C116 C117 1.366 . S
C117 C114 1.365 . S
C117 C116 1.366 . S
C117 H131 0.930 . S
C118 C115 1.378 . S
C118 N119 1.315 . S
C118 H121 0.930 . S
N119 Co99 2.194 . S
N119 C114 1.328 . S
N119 C118 1.315 . S
H120 C114 0.929 . S
H121 C118 0.930 . S
H122 C110 0.929 . S
H123 C112 0.929 . S
O124 Co99 2.351 . S
O124 C127 1.244 . S
O125 Co99 2.155 . S
O125 C127 1.240 . S
O126 Co99 2.096 . S
O126 C107 1.247 . S
C127 O124 1.244 . S
C127 O125 1.240 . S
H128 C102 0.931 . S
H129 C111 0.931 . S
H130 C115 0.929 . S
H131 C117 0.930 . S
Co132 N136 2.148 . S
Co132 N142 2.128 . S
Co132 N152 2.194 . S
Co132 O157 2.351 . S
Co132 O158 2.155 . S
Co132 O159 2.096 . S
C133 N136 1.301 1_455 S
C133 N137 1.328 . S
C133 H138 0.930 . S
C134 C135 1.333 1_655 S
C134 N136 1.317 . S
C134 H139 0.930 . S
C135 C134 1.333 1_455 S
C135 N137 1.350 . S
C135 H161 0.931 . S
N136 Co132 2.148 . S
N136 C133 1.301 1_655 S
N136 C134 1.317 . S
N137 C133 1.328 . S
N137 C135 1.350 . S
H138 C133 0.930 . S
H139 C134 0.930 . S
C140 O141 1.224 . S
C140 O159 1.247 . S
O141 C140 1.224 . S
N142 Co132 2.128 . S
N142 C143 1.355 . S
N142 C145 1.311 . S
C143 N142 1.355 . S
C143 C144 1.363 . S
C143 H155 0.929 . S
C144 C143 1.363 . S
C144 N146 1.375 . S
C144 H162 0.931 . S
C145 N142 1.311 . S
C145 N146 1.347 . S
C145 H156 0.929 . S
N146 C144 1.375 . S
N146 C145 1.347 . S
C147 C150 1.365 . S
C147 N152 1.328 . S
C147 H153 0.929 1_655 S
C148 C149 1.362 . S
C148 C151 1.378 . S
C148 H163 0.929 . S
C149 C148 1.362 . S
C149 C150 1.366 . S
C150 C147 1.365 . S
C150 C149 1.366 . S
C150 H164 0.930 1_655 S
C151 C148 1.378 . S
C151 N152 1.315 . S
C151 H154 0.930 . S
N152 Co132 2.194 . S
N152 C147 1.328 . S
N152 C151 1.315 . S
H153 C147 0.929 1_455 S
H154 C151 0.930 . S
H155 C143 0.929 . S
H156 C145 0.929 . S
O157 Co132 2.351 . S
O157 C160 1.244 . S
O158 Co132 2.155 . S
O158 C160 1.240 . S
O159 Co132 2.096 . S
O159 C140 1.247 . S
C160 O157 1.244 . S
C160 O158 1.240 . S
H161 C135 0.931 . S
H162 C144 0.931 . S
H163 C148 0.929 . S
H164 C150 0.930 1_455 S
Co165 N169 2.148 . S
Co165 N175 2.128 . S
Co165 N185 2.194 . S
Co165 O190 2.351 . S
Co165 O191 2.155 . S
Co165 O192 2.096 . S
C166 N169 1.301 . S
C166 N170 1.328 . S
C166 H171 0.930 . S
C167 C168 1.333 . S
C167 N169 1.317 . S
C167 H172 0.930 . S
C168 C167 1.333 . S
C168 N170 1.350 . S
C168 H194 0.931 . S
N169 Co165 2.148 . S
N169 C166 1.301 . S
N169 C167 1.317 . S
N170 C166 1.328 . S
N170 C168 1.350 . S
H171 C166 0.930 . S
H172 C167 0.930 . S
C173 O174 1.224 . S
C173 O192 1.247 . S
O174 C173 1.224 . S
N175 Co165 2.128 . S
N175 C176 1.355 . S
N175 C178 1.311 . S
C176 N175 1.355 . S
C176 C177 1.363 . S
C176 H188 0.929 . S
C177 C176 1.363 . S
C177 N179 1.375 . S
C177 H195 0.931 . S
C178 N175 1.311 . S
C178 N179 1.347 . S
C178 H189 0.929 . S
N179 C177 1.375 . S
N179 C178 1.347 . S
C180 C183 1.365 . S
C180 N185 1.328 . S
C180 H186 0.929 . S
C181 C182 1.362 . S
C181 C184 1.378 . S
C181 H196 0.929 . S
C182 C181 1.362 . S
C182 C183 1.366 . S
C183 C180 1.365 . S
C183 C182 1.366 . S
C183 H197 0.930 . S
C184 C181 1.378 . S
C184 N185 1.315 . S
C184 H187 0.930 . S
N185 Co165 2.194 . S
N185 C180 1.328 . S
N185 C184 1.315 . S
H186 C180 0.929 . S
H187 C184 0.930 . S
H188 C176 0.929 . S
H189 C178 0.929 . S
O190 Co165 2.351 . S
O190 C193 1.244 . S
O191 Co165 2.155 . S
O191 C193 1.240 . S
O192 Co165 2.096 . S
O192 C173 1.247 . S
C193 O190 1.244 . S
C193 O191 1.240 . S
H194 C168 0.931 . S
H195 C177 0.931 . S
H196 C181 0.929 . S
H197 C183 0.930 . S
Co198 N202 2.148 . S
Co198 N208 2.128 . S
Co198 N218 2.194 . S
Co198 O223 2.351 . S
Co198 O224 2.155 . S
Co198 O225 2.096 . S
C199 N202 1.301 1_455 S
C199 N203 1.328 . S
C199 H204 0.930 . S
C200 C201 1.333 1_655 S
C200 N202 1.317 . S
C200 H205 0.930 . S
C201 C200 1.333 1_455 S
C201 N203 1.350 . S
C201 H227 0.931 . S
N202 Co198 2.148 . S
N202 C199 1.301 1_655 S
N202 C200 1.317 . S
N203 C199 1.328 . S
N203 C201 1.350 . S
H204 C199 0.930 . S
H205 C200 0.930 . S
C206 O207 1.224 . S
C206 O225 1.247 . S
O207 C206 1.224 . S
N208 Co198 2.128 . S
N208 C209 1.355 . S
N208 C211 1.311 . S
C209 N208 1.355 . S
C209 C210 1.363 . S
C209 H221 0.929 . S
C210 C209 1.363 . S
C210 N212 1.375 . S
C210 H228 0.931 . S
C211 N208 1.311 . S
C211 N212 1.347 . S
C211 H222 0.929 . S
N212 C210 1.375 . S
N212 C211 1.347 . S
C213 C216 1.365 . S
C213 N218 1.328 . S
C213 H219 0.929 1_655 S
C214 C215 1.362 . S
C214 C217 1.378 . S
C214 H229 0.929 . S
C215 C214 1.362 . S
C215 C216 1.366 . S
C216 C213 1.365 . S
C216 C215 1.366 . S
C216 H230 0.930 1_655 S
C217 C214 1.378 . S
C217 N218 1.315 . S
C217 H220 0.930 . S
N218 Co198 2.194 . S
N218 C213 1.328 . S
N218 C217 1.315 . S
H219 C213 0.929 1_455 S
H220 C217 0.930 . S
H221 C209 0.929 . S
H222 C211 0.929 . S
O223 Co198 2.351 . S
O223 C226 1.244 . S
O224 Co198 2.155 . S
O224 C226 1.240 . S
O225 Co198 2.096 . S
O225 C206 1.247 . S
C226 O223 1.244 . S
C226 O224 1.240 . S
H227 C201 0.931 . S
H228 C210 0.931 . S
H229 C214 0.929 . S
H230 C216 0.930 1_455 S
Co231 N235 2.148 . S
Co231 N241 2.128 . S
Co231 N251 2.194 . S
Co231 O256 2.351 . S
Co231 O257 2.155 . S
Co231 O258 2.096 . S
C232 N235 1.301 . S
C232 N236 1.328 . S
C232 H237 0.930 . S
C233 C234 1.333 . S
C233 N235 1.317 . S
C233 H238 0.930 . S
C234 C233 1.333 . S
C234 N236 1.350 . S
C234 H260 0.931 . S
N235 Co231 2.148 . S
N235 C232 1.301 . S
N235 C233 1.317 . S
N236 C232 1.328 . S
N236 C234 1.350 . S
H237 C232 0.930 . S
H238 C233 0.930 . S
C239 O240 1.224 . S
C239 O258 1.247 . S
O240 C239 1.224 . S
N241 Co231 2.128 . S
N241 C242 1.355 . S
N241 C244 1.311 . S
C242 N241 1.355 . S
C242 C243 1.363 . S
C242 H254 0.929 . S
C243 C242 1.363 . S
C243 N245 1.375 . S
C243 H261 0.931 . S
C244 N241 1.311 . S
C244 N245 1.347 . S
C244 H255 0.929 . S
N245 C243 1.375 . S
N245 C244 1.347 . S
C246 C249 1.365 . S
C246 N251 1.328 . S
C246 H252 0.929 . S
C247 C248 1.362 . S
C247 C250 1.378 . S
C247 H262 0.929 . S
C248 C247 1.362 . S
C248 C249 1.366 . S
C249 C246 1.365 . S
C249 C248 1.366 . S
C249 H263 0.930 . S
C250 C247 1.378 . S
C250 N251 1.315 . S
C250 H253 0.930 . S
N251 Co231 2.194 . S
N251 C246 1.328 . S
N251 C250 1.315 . S
H252 C246 0.929 . S
H253 C250 0.930 . S
H254 C242 0.929 . S
H255 C244 0.929 . S
O256 Co231 2.351 . S
O256 C259 1.244 . S
O257 Co231 2.155 . S
O257 C259 1.240 . S
O258 Co231 2.096 . S
O258 C239 1.247 . S
C259 O256 1.244 . S
C259 O257 1.240 . S
H260 C234 0.931 . S
H261 C243 0.931 . S
H262 C247 0.929 . S
H263 C249 0.930 . S
H264 C270 0.930 1_556 S
H265 C274 0.930 1_554 S
H266 C279 0.929 . S
H267 C277 0.929 . S
H268 C272 0.929 . S
H269 C278 0.929 . S
C270 H264 0.930 1_554 S
C270 C271 1.366 1_455 S
C270 C278 1.378 1_554 S
C271 C270 1.366 1_655 S
C271 C279 1.434 . S
C272 H268 0.929 . S
C272 C274 1.378 1_554 S
C272 C276 1.351 1_554 S
C273 C276 1.462 1_444 S
C273 C278 1.351 1_554 S
C273 N281 1.426 1_455 S
C274 H265 0.930 1_556 S
C274 C272 1.378 1_556 S
C274 C275 1.366 1_655 S
C275 C274 1.366 1_455 S
C275 C277 1.434 . S
C276 C272 1.351 1_556 S
C276 C273 1.462 1_666 S
C276 N280 1.426 1_655 S
C277 H267 0.929 . S
C277 C275 1.434 . S
C277 N280 1.384 . S
C278 H269 0.929 . S
C278 C270 1.378 1_556 S
C278 C273 1.351 1_556 S
C279 H266 0.929 . S
C279 C271 1.434 . S
C279 N281 1.384 . S
N280 C276 1.426 1_455 S
N280 C277 1.384 . S
N281 C273 1.426 1_655 S
N281 C279 1.384 . S
H282 C288 0.930 . S
H283 C292 0.930 . S
H284 C297 0.929 . S
H285 C295 0.929 . S
H286 C290 0.929 . S
H287 C296 0.929 . S
C288 H282 0.930 . S
C288 C289 1.367 . S
C288 C296 1.378 1_556 S
C289 C288 1.367 . S
C289 C297 1.433 . S
C290 H286 0.929 . S
C290 C292 1.378 1_556 S
C290 C294 1.350 1_556 S
C291 C294 1.463 1_546 S
C291 C296 1.350 1_556 S
C291 N299 1.427 . S
C292 H283 0.930 . S
C292 C290 1.378 1_554 S
C292 C293 1.367 . S
C293 C292 1.367 . S
C293 C295 1.433 . S
C294 C290 1.350 1_554 S
C294 C291 1.463 1_564 S
C294 N298 1.427 . S
C295 H285 0.929 . S
C295 C293 1.433 . S
C295 N298 1.384 . S
C296 H287 0.929 . S
C296 C288 1.378 1_554 S
C296 C291 1.350 1_554 S
C297 H284 0.929 . S
C297 C289 1.433 . S
C297 N299 1.384 . S
N298 C294 1.427 . S
N298 C295 1.384 . S
N299 C291 1.427 . S
N299 C297 1.384 . S
H300 C306 0.930 . S
H301 C310 0.930 . S
H302 C315 0.929 . S
H303 C313 0.929 . S
H304 C308 0.929 . S
H305 C314 0.929 . S
C306 H300 0.930 . S
C306 C307 1.367 . S
C306 C314 1.378 . S
C307 C306 1.367 . S
C307 C315 1.433 1_655 S
C308 H304 0.929 . S
C308 C310 1.378 . S
C308 C312 1.359 . S
C309 C312 1.462 1_655 S
C309 C314 1.359 . S
C309 N317 1.418 1_655 S
C310 H301 0.930 . S
C310 C308 1.378 . S
C310 C311 1.367 . S
C311 C310 1.367 . S
C311 C313 1.433 1_455 S
C312 C308 1.359 . S
C312 C309 1.462 1_455 S
C312 N316 1.418 1_455 S
C313 H303 0.929 . S
C313 C311 1.433 1_655 S
C313 N316 1.384 . S
C314 H305 0.929 . S
C314 C306 1.378 . S
C314 C309 1.359 . S
C315 H302 0.929 . S
C315 C307 1.433 1_455 S
C315 N317 1.384 . S
N316 C312 1.418 1_655 S
N316 C313 1.384 . S
N317 C309 1.418 1_455 S
N317 C315 1.384 . S
H318 C324 0.930 . S
H319 C328 0.930 . S
H320 C333 0.929 . S
H321 C331 0.929 . S
H322 C326 0.929 . S
H323 C332 0.929 . S
C324 H318 0.930 . S
C324 C325 1.367 . S
C324 C332 1.378 . S
C325 C324 1.367 . S
C325 C333 1.433 . S
C326 H322 0.929 . S
C326 C328 1.378 . S
C326 C330 1.350 . S
C327 C330 1.463 . S
C327 C332 1.350 . S
C327 N335 1.427 . S
C328 H319 0.930 . S
C328 C326 1.378 . S
C328 C329 1.367 . S
C329 C328 1.367 . S
C329 C331 1.433 . S
C330 C326 1.350 . S
C330 C327 1.463 . S
C330 N334 1.427 . S
C331 H321 0.929 . S
C331 C329 1.433 . S
C331 N334 1.384 . S
C332 H323 0.929 . S
C332 C324 1.378 . S
C332 C327 1.350 . S
C333 H320 0.929 . S
C333 C325 1.433 . S
C333 N335 1.384 . S
N334 C330 1.427 . S
N334 C331 1.384 . S
N335 C327 1.427 . S
N335 C333 1.384 . S
H336 C342 0.930 . S
H337 C346 0.930 . S
H338 C351 0.929 . S
H339 C349 0.929 . S
H340 C344 0.929 . S
H341 C350 0.929 . S
C342 H336 0.930 . S
C342 C343 1.367 . S
C342 C350 1.378 . S
C343 C342 1.367 . S
C343 C351 1.433 . S
C344 H340 0.929 . S
C344 C346 1.378 . S
C344 C348 1.350 . S
C345 C348 1.463 1_565 S
C345 C350 1.350 . S
C345 N353 1.427 . S
C346 H337 0.930 . S
C346 C344 1.378 . S
C346 C347 1.367 . S
C347 C346 1.367 . S
C347 C349 1.433 . S
C348 C344 1.350 . S
C348 C345 1.463 1_545 S
C348 N352 1.427 . S
C349 H339 0.929 . S
C349 C347 1.433 . S
C349 N352 1.384 . S
C350 H341 0.929 . S
C350 C342 1.378 . S
C350 C345 1.350 . S
C351 H338 0.929 . S
C351 C343 1.433 . S
C351 N353 1.384 . S
N352 C348 1.427 . S
N352 C349 1.384 . S
N353 C345 1.427 . S
N353 C351 1.384 . S
H354 C360 0.930 . S
H355 C364 0.930 . S
H356 C369 0.929 . S
H357 C367 0.929 . S
H358 C362 0.929 . S
H359 C368 0.929 . S
C360 H354 0.930 . S
C360 C361 1.367 . S
C360 C368 1.378 . S
C361 C360 1.367 . S
C361 C369 1.433 . S
C362 H358 0.929 . S
C362 C364 1.378 . S
C362 C366 1.350 . S
C363 C366 1.463 . S
C363 C368 1.350 . S
C363 N371 1.427 . S
C364 H355 0.930 . S
C364 C362 1.378 . S
C364 C365 1.367 . S
C365 C364 1.367 . S
C365 C367 1.433 . S
C366 C362 1.350 . S
C366 C363 1.463 . S
C366 N370 1.427 . S
C367 H357 0.929 . S
C367 C365 1.433 . S
C367 N370 1.384 . S
C368 H359 0.929 . S
C368 C360 1.378 . S
C368 C363 1.350 . S
C369 H356 0.929 . S
C369 C361 1.433 . S
C369 N371 1.384 . S
N370 C366 1.427 . S
N370 C367 1.384 . S
N371 C363 1.427 . S
N371 C369 1.384 . S
H372 C378 0.930 . S
H373 C382 0.930 . S
H374 C387 0.929 . S
H375 C385 0.929 . S
H376 C380 0.929 . S
H377 C386 0.929 . S
C378 H372 0.930 . S
C378 C379 1.367 . S
C378 C386 1.378 . S
C379 C378 1.367 . S
C379 C387 1.433 . S
C380 H376 0.929 . S
C380 C382 1.378 . S
C380 C384 1.350 . S
C381 C384 1.463 1_565 S
C381 C386 1.350 . S
C381 N389 1.427 . S
C382 H373 0.930 . S
C382 C380 1.378 . S
C382 C383 1.367 . S
C383 C382 1.367 . S
C383 C385 1.433 . S
C384 C380 1.350 . S
C384 C381 1.463 1_545 S
C384 N388 1.427 . S
C385 H375 0.929 . S
C385 C383 1.433 . S
C385 N388 1.384 . S
C386 H377 0.929 . S
C386 C378 1.378 . S
C386 C381 1.350 . S
C387 H374 0.929 . S
C387 C379 1.433 . S
C387 N389 1.384 . S
N388 C384 1.427 . S
N388 C385 1.384 . S
N389 C381 1.427 . S
N389 C387 1.384 . S
H390 C396 0.930 . S
H391 C400 0.930 . S
H392 C405 0.929 . S
H393 C403 0.929 . S
H394 C398 0.929 . S
H395 C404 0.929 . S
C396 H390 0.930 . S
C396 C397 1.367 . S
C396 C404 1.378 . S
C397 C396 1.367 . S
C397 C405 1.433 . S
C398 H394 0.929 . S
C398 C400 1.378 . S
C398 C402 1.350 . S
C399 C402 1.463 . S
C399 C404 1.350 . S
C399 N407 1.427 . S
C400 H391 0.930 . S
C400 C398 1.378 . S
C400 C401 1.367 . S
C401 C400 1.367 . S
C401 C403 1.433 . S
C402 C398 1.350 . S
C402 C399 1.463 . S
C402 N406 1.427 . S
C403 H393 0.929 . S
C403 C401 1.433 . S
C403 N406 1.384 . S
C404 H395 0.929 . S
C404 C396 1.378 . S
C404 C399 1.350 . S
C405 H392 0.929 . S
C405 C397 1.433 . S
C405 N407 1.384 . S
N406 C402 1.427 . S
N406 C403 1.384 . S
N407 C399 1.427 . S
N407 C405 1.384 . S
H408 C414 0.930 . S
H409 C418 0.930 . S
H410 C423 0.929 . S
H411 C421 0.929 . S
H412 C416 0.929 . S
H413 C422 0.929 . S
C414 H408 0.930 . S
C414 C415 1.367 . S
C414 C422 1.378 . S
C415 C414 1.367 . S
C415 C423 1.433 1_554 S
C416 H412 0.929 . S
C416 C418 1.378 . S
C416 C420 1.350 . S
C417 C420 1.463 1_554 S
C417 C422 1.350 . S
C417 N425 1.427 1_554 S
C418 H409 0.930 . S
C418 C416 1.378 . S
C418 C419 1.367 . S
C419 C418 1.367 . S
C419 C421 1.433 1_556 S
C420 C416 1.350 . S
C420 C417 1.463 1_556 S
C420 N424 1.427 1_556 S
C421 H411 0.929 . S
C421 C419 1.433 1_554 S
C421 N424 1.384 . S
C422 H413 0.929 . S
C422 C414 1.378 . S
C422 C417 1.350 . S
C423 H410 0.929 . S
C423 C415 1.433 1_556 S
C423 N425 1.384 . S
N424 C420 1.427 1_554 S
N424 C421 1.384 . S
N425 C417 1.427 1_556 S
N425 C423 1.384 . S
H426 C432 0.930 . S
H427 C436 0.930 . S
H428 C441 0.929 . S
H429 C439 0.929 . S
H430 C434 0.929 1_556 S
H431 C440 0.929 1_554 S
C432 H426 0.930 . S
C432 C433 1.367 . S
C432 C440 1.378 . S
C433 C432 1.367 . S
C433 C441 1.433 . S
C434 H430 0.929 1_554 S
C434 C436 1.378 . S
C434 C438 1.350 . S
C435 C438 1.463 1_556 S
C435 C440 1.350 . S
C435 N443 1.427 . S
C436 H427 0.930 . S
C436 C434 1.378 . S
C436 C437 1.367 . S
C437 C436 1.367 . S
C437 C439 1.433 . S
C438 C434 1.350 . S
C438 C435 1.463 1_554 S
C438 N442 1.427 . S
C439 H429 0.929 . S
C439 C437 1.433 . S
C439 N442 1.384 . S
C440 H431 0.929 1_556 S
C440 C432 1.378 . S
C440 C435 1.350 . S
C441 H428 0.929 . S
C441 C433 1.433 . S
C441 N443 1.384 . S
N442 C438 1.427 . S
N442 C439 1.384 . S
N443 C435 1.427 . S
N443 C441 1.384 . S
H444 C450 0.930 . S
H445 C454 0.930 . S
H446 C459 0.929 . S
H447 C457 0.929 . S
H448 C452 0.929 . S
H449 C458 0.929 . S
C450 H444 0.930 . S
C450 C451 1.367 . S
C450 C458 1.378 . S
C451 C450 1.367 . S
C451 C459 1.433 . S
C452 H448 0.929 . S
C452 C454 1.378 . S
C452 C456 1.350 . S
C453 C456 1.463 . S
C453 C458 1.350 . S
C453 N461 1.427 . S
C454 H445 0.930 . S
C454 C452 1.378 . S
C454 C455 1.367 . S
C455 C454 1.367 . S
C455 C457 1.433 . S
C456 C452 1.350 . S
C456 C453 1.463 . S
C456 N460 1.427 . S
C457 H447 0.929 . S
C457 C455 1.433 . S
C457 N460 1.384 . S
C458 H449 0.929 . S
C458 C450 1.378 . S
C458 C453 1.350 . S
C459 H446 0.929 . S
C459 C451 1.433 . S
C459 N461 1.384 . S
N460 C456 1.427 . S
N460 C457 1.384 . S
N461 C453 1.427 . S
N461 C459 1.384 . S
H462 C468 0.930 . S
H463 C472 0.930 . S
H464 C477 0.929 . S
H465 C475 0.929 . S
H466 C470 0.929 . S
H467 C476 0.929 . S
C468 H462 0.930 . S
C468 C469 1.367 . S
C468 C476 1.378 . S
C469 C468 1.367 . S
C469 C477 1.433 . S
C470 H466 0.929 . S
C470 C472 1.378 . S
C470 C474 1.350 . S
C471 C474 1.463 . S
C471 C476 1.350 . S
C471 N479 1.427 . S
C472 H463 0.930 . S
C472 C470 1.378 . S
C472 C473 1.367 . S
C473 C472 1.367 . S
C473 C475 1.433 . S
C474 C470 1.350 . S
C474 C471 1.463 . S
C474 N478 1.427 . S
C475 H465 0.929 . S
C475 C473 1.433 . S
C475 N478 1.384 . S
C476 H467 0.929 . S
C476 C468 1.378 . S
C476 C471 1.350 . S
C477 H464 0.929 . S
C477 C469 1.433 . S
C477 N479 1.384 . S
N478 C474 1.427 . S
N478 C475 1.384 . S
N479 C471 1.427 . S
N479 C477 1.384 . S
H480 C486 0.926 1_556 S
H481 C490 0.930 . S
H482 C495 0.929 . S
H483 C493 0.929 . S
H484 C488 0.929 . S
H485 C494 0.929 . S
C486 H480 0.926 1_554 S
C486 C487 1.374 . S
C486 C494 1.375 1_554 S
C487 C486 1.374 . S
C487 C495 1.433 . S
C488 H484 0.929 . S
C488 C490 1.378 . S
C488 C492 1.350 1_554 S
C489 C492 1.463 1_554 S
C489 C494 1.350 1_554 S
C489 N497 1.427 . S
C490 H481 0.930 . S
C490 C488 1.378 . S
C490 C491 1.367 1_554 S
C491 C490 1.367 1_556 S
C491 C493 1.433 . S
C492 C488 1.350 1_556 S
C492 C489 1.463 1_556 S
C492 N496 1.427 . S
C493 H483 0.929 . S
C493 C491 1.433 . S
C493 N496 1.384 . S
C494 H485 0.929 . S
C494 C486 1.375 1_556 S
C494 C489 1.350 1_556 S
C495 H482 0.929 . S
C495 C487 1.433 . S
C495 N497 1.384 . S
N496 C492 1.427 . S
N496 C493 1.384 . S
N497 C489 1.427 . S
N497 C495 1.384 . S
H498 C504 0.930 . S
H499 C508 0.930 . S
H500 C513 0.929 . S
H501 C511 0.929 . S
H502 C506 0.929 . S
H503 C512 0.929 . S
C504 H498 0.930 . S
C504 C505 1.367 . S
C504 C512 1.378 . S
C505 C504 1.367 . S
C505 C513 1.433 1_556 S
C506 H502 0.929 . S
C506 C508 1.378 . S
C506 C510 1.350 . S
C507 C510 1.463 1_556 S
C507 C512 1.350 . S
C507 N515 1.427 1_556 S
C508 H499 0.930 . S
C508 C506 1.378 . S
C508 C509 1.367 . S
C509 C508 1.367 . S
C509 C511 1.433 1_554 S
C510 C506 1.350 . S
C510 C507 1.463 1_554 S
C510 N514 1.427 1_554 S
C511 H501 0.929 . S
C511 C509 1.433 1_556 S
C511 N514 1.384 . S
C512 H503 0.929 . S
C512 C504 1.378 . S
C512 C507 1.350 . S
C513 H500 0.929 . S
C513 C505 1.433 1_554 S
C513 N515 1.384 . S
N514 C510 1.427 1_556 S
N514 C511 1.384 . S
N515 C507 1.427 1_554 S
N515 C513 1.384 . S
H516 C522 0.930 . S
H517 C526 0.930 . S
H518 C531 0.929 . S
H519 C529 0.929 . S
H520 C524 0.929 . S
H521 C530 0.929 . S
C522 H516 0.930 . S
C522 C523 1.367 . S
C522 C530 1.378 . S
C523 C522 1.367 . S
C523 C531 1.433 . S
C524 H520 0.929 . S
C524 C526 1.378 . S
C524 C528 1.350 . S
C525 C528 1.463 . S
C525 C530 1.350 . S
C525 N533 1.427 . S
C526 H517 0.930 . S
C526 C524 1.378 . S
C526 C527 1.367 . S
C527 C526 1.367 . S
C527 C529 1.433 . S
C528 C524 1.350 . S
C528 C525 1.463 . S
C528 N532 1.427 . S
C529 H519 0.929 . S
C529 C527 1.433 . S
C529 N532 1.384 . S
C530 H521 0.929 . S
C530 C522 1.378 . S
C530 C525 1.350 . S
C531 H518 0.929 . S
C531 C523 1.433 . S
C531 N533 1.384 . S
N532 C528 1.427 . S
N532 C529 1.384 . S
N533 C525 1.427 . S
N533 C531 1.384 . S
H534 C540 0.930 . S
H535 C544 0.930 . S
H536 C549 0.929 . S
H537 C547 0.929 . S
H538 C542 0.929 . S
H539 C548 0.929 . S
C540 H534 0.930 . S
C540 C541 1.367 . S
C540 C548 1.378 . S
C541 C540 1.367 . S
C541 C549 1.433 . S
C542 H538 0.929 . S
C542 C544 1.378 . S
C542 C546 1.350 . S
C543 C546 1.463 . S
C543 C548 1.350 . S
C543 N551 1.427 . S
C544 H535 0.930 . S
C544 C542 1.378 . S
C544 C545 1.367 . S
C545 C544 1.367 . S
C545 C547 1.433 . S
C546 C542 1.350 . S
C546 C543 1.463 . S
C546 N550 1.427 . S
C547 H537 0.929 . S
C547 C545 1.433 . S
C547 N550 1.384 . S
C548 H539 0.929 . S
C548 C540 1.378 . S
C548 C543 1.350 . S
C549 H536 0.929 . S
C549 C541 1.433 . S
C549 N551 1.384 . S
N550 C546 1.427 . S
N550 C547 1.384 . S
N551 C543 1.427 . S
N551 C549 1.384 . S
H552 C558 0.915 1_655 S
H553 C562 0.930 . S
H554 C567 0.929 . S
H555 C565 0.931 1_655 S
H556 C560 0.929 . S
H557 C566 0.914 1_655 S
C558 H552 0.915 1_455 S
C558 C559 1.382 . S
C558 C566 1.378 . S
C559 C558 1.382 . S
C559 C567 1.433 . S
C560 H556 0.929 . S
C560 C562 1.378 . S
C560 C564 1.350 . S
C561 C564 1.463 . S
C561 C566 1.365 . S
C561 N569 1.427 . S
C562 H553 0.930 . S
C562 C560 1.378 . S
C562 C563 1.367 . S
C563 C562 1.367 . S
C563 C565 1.431 . S
C564 C560 1.350 . S
C564 C561 1.463 . S
C564 N568 1.439 . S
C565 H555 0.931 1_455 S
C565 C563 1.431 . S
C565 N568 1.383 . S
C566 H557 0.914 1_455 S
C566 C558 1.378 . S
C566 C561 1.365 . S
C567 H554 0.929 . S
C567 C559 1.433 . S
C567 N569 1.384 . S
N568 C564 1.439 . S
N568 C565 1.383 . S
N569 C561 1.427 . S
N569 C567 1.384 . S
H570 C576 0.930 . S
H571 C580 0.930 . S
H572 C585 0.929 . S
H573 C583 0.929 . S
H574 C578 0.929 . S
H575 C584 0.929 . S
C576 H570 0.930 . S
C576 C577 1.367 . S
C576 C584 1.378 . S
C577 C576 1.367 . S
C577 C585 1.433 . S
C578 H574 0.929 . S
C578 C580 1.378 . S
C578 C582 1.350 . S
C579 C582 1.463 . S
C579 C584 1.350 . S
C579 N587 1.427 . S
C580 H571 0.930 . S
C580 C578 1.378 . S
C580 C581 1.367 . S
C581 C580 1.367 . S
C581 C583 1.433 . S
C582 C578 1.350 . S
C582 C579 1.463 . S
C582 N586 1.427 . S
C583 H573 0.929 . S
C583 C581 1.433 . S
C583 N586 1.384 . S
C584 H575 0.929 . S
C584 C576 1.378 . S
C584 C579 1.350 . S
C585 H572 0.929 . S
C585 C577 1.433 . S
C585 N587 1.384 . S
N586 C582 1.427 . S
N586 C583 1.384 . S
N587 C579 1.427 . S
N587 C585 1.384 . S
H588 C594 0.930 1_455 S
H589 C598 0.930 . S
H590 C603 0.929 . S
H591 C601 0.929 1_455 S
H592 C596 0.929 . S
H593 C602 0.929 1_455 S
C594 H588 0.930 1_655 S
C594 C595 1.367 . S
C594 C602 1.378 . S
C595 C594 1.367 . S
C595 C603 1.433 . S
C596 H592 0.929 . S
C596 C598 1.378 . S
C596 C600 1.350 . S
C597 C600 1.463 . S
C597 C602 1.350 . S
C597 N605 1.427 . S
C598 H589 0.930 . S
C598 C596 1.378 . S
C598 C599 1.367 . S
C599 C598 1.367 . S
C599 C601 1.433 . S
C600 C596 1.350 . S
C600 C597 1.463 . S
C600 N604 1.427 . S
C601 H591 0.929 1_655 S
C601 C599 1.433 . S
C601 N604 1.384 . S
C602 H593 0.929 1_655 S
C602 C594 1.378 . S
C602 C597 1.350 . S
C603 H590 0.929 . S
C603 C595 1.433 . S
C603 N605 1.384 . S
N604 C600 1.427 . S
N604 C601 1.384 . S
N605 C597 1.427 . S
N605 C603 1.384 . S
H606 C612 0.930 . S
H607 C616 0.930 . S
H608 C621 0.929 . S
H609 C619 0.929 . S
H610 C614 0.929 . S
H611 C620 0.929 . S
C612 H606 0.930 . S
C612 C613 1.367 . S
C612 C620 1.378 . S
C613 C612 1.367 . S
C613 C621 1.433 . S
C614 H610 0.929 . S
C614 C616 1.378 . S
C614 C618 1.350 . S
C615 C618 1.463 . S
C615 C620 1.350 . S
C615 N623 1.427 . S
C616 H607 0.930 . S
C616 C614 1.378 . S
C616 C617 1.367 . S
C617 C616 1.367 . S
C617 C619 1.433 . S
C618 C614 1.350 . S
C618 C615 1.463 . S
C618 N622 1.427 . S
C619 H609 0.929 . S
C619 C617 1.433 . S
C619 N622 1.384 . S
C620 H611 0.929 . S
C620 C612 1.378 . S
C620 C615 1.350 . S
C621 H608 0.929 . S
C621 C613 1.433 . S
C621 N623 1.384 . S
N622 C618 1.427 . S
N622 C619 1.384 . S
N623 C615 1.427 . S
N623 C621 1.384 . S
C271 C28 0.842 1_655 S
C275 C160 0.842 1_455 S
C289 C193 0.838 . S
C293 C61 0.838 . S
C307 C226 0.840 . S
C311 C94 0.840 . S
C325 C127 0.846 . S
C329 C259 0.846 . S
C343 N47 0.811 . S
C347 N14 0.811 . S
C361 N80 0.785 . S
C365 N113 0.785 . S
C379 N146 0.790 . S
C383 N179 0.790 . S
C397 N245 0.821 . S
C401 N212 0.821 . S
C415 C8 1.821 . S
C419 N170 1.833 . S
C433 N137 1.828 . S
C437 C41 1.826 . S
C451 N236 1.835 . S
C455 C74 1.819 . S
C469 N203 1.836 . S
C473 C107 1.818 . S
C487 N38 1.828 . S
C491 C140 1.827 . S
C505 C173 1.817 . S
C509 N5 1.837 . S
C523 C206 1.826 . S
C527 N104 1.829 . S
C541 N71 1.838 . S
C545 C239 1.816 . S
C559 C83 1.473 . S
C563 C17 1.471 . S
C577 C50 1.469 . S
C581 C116 1.469 . S
C595 C215 1.473 . S
C599 C149 1.472 . S
C613 C248 1.469 . S
C617 C182 1.468 . S
