# Generated by pormake.
# Topology soh, (5)-cn, num edge types: 1
# Building blocks:
#     Node 0, Type 0, BuildingBlock: XOMCOT_clean_sbu_1, # of connection points: 5
#     Node 1, Type 0, BuildingBlock: XOMCOT_clean_sbu_1, # of connection points: 5
#     Node 2, Type 0, BuildingBlock: XOMCOT_clean_sbu_1, # of connection points: 5
#     Node 3, Type 0, BuildingBlock: XOMCOT_clean_sbu_1, # of connection points: 5
#     Node 4, Type 0, BuildingBlock: XOMCOT_clean_sbu_1, # of connection points: 5
#     Node 5, Type 0, BuildingBlock: XOMCOT_clean_sbu_1, # of connection points: 5
#     Node 6, Type 0, BuildingBlock: XOMCOT_clean_sbu_1, # of connection points: 5
#     Node 7, Type 0, BuildingBlock: XOMCOT_clean_sbu_1, # of connection points: 5
#     Node 8, Type 0, BuildingBlock: XOMCOT_clean_sbu_1, # of connection points: 5
#     Node 9, Type 0, BuildingBlock: XOMCOT_clean_sbu_1, # of connection points: 5
#     Node 10, Type 0, BuildingBlock: XOMCOT_clean_sbu_1, # of connection points: 5
#     Node 11, Type 0, BuildingBlock: XOMCOT_clean_sbu_1, # of connection points: 5
#     Node 12, Type 0, BuildingBlock: XOMCOT_clean_sbu_1, # of connection points: 5
#     Node 13, Type 0, BuildingBlock: XOMCOT_clean_sbu_1, # of connection points: 5
#     Node 14, Type 0, BuildingBlock: XOMCOT_clean_sbu_1, # of connection points: 5
#     Node 15, Type 0, BuildingBlock: XOMCOT_clean_sbu_1, # of connection points: 5
#     Node 16, Type 0, BuildingBlock: XOMCOT_clean_sbu_1, # of connection points: 5
#     Node 17, Type 0, BuildingBlock: XOMCOT_clean_sbu_1, # of connection points: 5
#     Node 18, Type 0, BuildingBlock: XOMCOT_clean_sbu_1, # of connection points: 5
#     Node 19, Type 0, BuildingBlock: XOMCOT_clean_sbu_1, # of connection points: 5
#     Node 20, Type 0, BuildingBlock: XOMCOT_clean_sbu_1, # of connection points: 5
#     Node 21, Type 0, BuildingBlock: XOMCOT_clean_sbu_1, # of connection points: 5
#     Node 22, Type 0, BuildingBlock: XOMCOT_clean_sbu_1, # of connection points: 5
#     Node 23, Type 0, BuildingBlock: XOMCOT_clean_sbu_1, # of connection points: 5
#     Node 24, Type 0, BuildingBlock: XOMCOT_clean_sbu_1, # of connection points: 5
#     Node 25, Type 0, BuildingBlock: XOMCOT_clean_sbu_1, # of connection points: 5
#     Node 26, Type 0, BuildingBlock: XOMCOT_clean_sbu_1, # of connection points: 5
#     Node 27, Type 0, BuildingBlock: XOMCOT_clean_sbu_1, # of connection points: 5
#     Node 28, Type 0, BuildingBlock: XOMCOT_clean_sbu_1, # of connection points: 5
#     Node 29, Type 0, BuildingBlock: XOMCOT_clean_sbu_1, # of connection points: 5
#     Node 30, Type 0, BuildingBlock: XOMCOT_clean_sbu_1, # of connection points: 5
#     Node 31, Type 0, BuildingBlock: XOMCOT_clean_sbu_1, # of connection points: 5
#     Edge 32, Type (0, 0), BuildingBlock: TEMPAE_clean_linker_10, # of connection points: 2
#     Edge 33, Type (0, 0), BuildingBlock: TEMPAE_clean_linker_10, # of connection points: 2
#     Edge 34, Type (0, 0), BuildingBlock: TEMPAE_clean_linker_10, # of connection points: 2
#     Edge 35, Type (0, 0), BuildingBlock: TEMPAE_clean_linker_10, # of connection points: 2
#     Edge 36, Type (0, 0), BuildingBlock: TEMPAE_clean_linker_10, # of connection points: 2
#     Edge 37, Type (0, 0), BuildingBlock: TEMPAE_clean_linker_10, # of connection points: 2
#     Edge 38, Type (0, 0), BuildingBlock: TEMPAE_clean_linker_10, # of connection points: 2
#     Edge 39, Type (0, 0), BuildingBlock: TEMPAE_clean_linker_10, # of connection points: 2
#     Edge 40, Type (0, 0), BuildingBlock: TEMPAE_clean_linker_10, # of connection points: 2
#     Edge 41, Type (0, 0), BuildingBlock: TEMPAE_clean_linker_10, # of connection points: 2
#     Edge 42, Type (0, 0), BuildingBlock: TEMPAE_clean_linker_10, # of connection points: 2
#     Edge 43, Type (0, 0), BuildingBlock: TEMPAE_clean_linker_10, # of connection points: 2
#     Edge 44, Type (0, 0), BuildingBlock: TEMPAE_clean_linker_10, # of connection points: 2
#     Edge 45, Type (0, 0), BuildingBlock: TEMPAE_clean_linker_10, # of connection points: 2
#     Edge 46, Type (0, 0), BuildingBlock: TEMPAE_clean_linker_10, # of connection points: 2
#     Edge 47, Type (0, 0), BuildingBlock: TEMPAE_clean_linker_10, # of connection points: 2
#     Edge 48, Type (0, 0), BuildingBlock: TEMPAE_clean_linker_10, # of connection points: 2
#     Edge 49, Type (0, 0), BuildingBlock: TEMPAE_clean_linker_10, # of connection points: 2
#     Edge 50, Type (0, 0), BuildingBlock: TEMPAE_clean_linker_10, # of connection points: 2
#     Edge 51, Type (0, 0), BuildingBlock: TEMPAE_clean_linker_10, # of connection points: 2
#     Edge 52, Type (0, 0), BuildingBlock: TEMPAE_clean_linker_10, # of connection points: 2
#     Edge 53, Type (0, 0), BuildingBlock: TEMPAE_clean_linker_10, # of connection points: 2
#     Edge 54, Type (0, 0), BuildingBlock: TEMPAE_clean_linker_10, # of connection points: 2
#     Edge 55, Type (0, 0), BuildingBlock: TEMPAE_clean_linker_10, # of connection points: 2
#     Edge 56, Type (0, 0), BuildingBlock: TEMPAE_clean_linker_10, # of connection points: 2
#     Edge 57, Type (0, 0), BuildingBlock: TEMPAE_clean_linker_10, # of connection points: 2
#     Edge 58, Type (0, 0), BuildingBlock: TEMPAE_clean_linker_10, # of connection points: 2
#     Edge 59, Type (0, 0), BuildingBlock: TEMPAE_clean_linker_10, # of connection points: 2
#     Edge 60, Type (0, 0), BuildingBlock: TEMPAE_clean_linker_10, # of connection points: 2
#     Edge 61, Type (0, 0), BuildingBlock: TEMPAE_clean_linker_10, # of connection points: 2
#     Edge 62, Type (0, 0), BuildingBlock: TEMPAE_clean_linker_10, # of connection points: 2
#     Edge 63, Type (0, 0), BuildingBlock: TEMPAE_clean_linker_10, # of connection points: 2
#     Edge 64, Type (0, 0), BuildingBlock: TEMPAE_clean_linker_10, # of connection points: 2
#     Edge 65, Type (0, 0), BuildingBlock: TEMPAE_clean_linker_10, # of connection points: 2
#     Edge 66, Type (0, 0), BuildingBlock: TEMPAE_clean_linker_10, # of connection points: 2
#     Edge 67, Type (0, 0), BuildingBlock: TEMPAE_clean_linker_10, # of connection points: 2
#     Edge 68, Type (0, 0), BuildingBlock: TEMPAE_clean_linker_10, # of connection points: 2
#     Edge 69, Type (0, 0), BuildingBlock: TEMPAE_clean_linker_10, # of connection points: 2
#     Edge 70, Type (0, 0), BuildingBlock: TEMPAE_clean_linker_10, # of connection points: 2
#     Edge 71, Type (0, 0), BuildingBlock: TEMPAE_clean_linker_10, # of connection points: 2
#     Edge 72, Type (0, 0), BuildingBlock: TEMPAE_clean_linker_10, # of connection points: 2
#     Edge 73, Type (0, 0), BuildingBlock: TEMPAE_clean_linker_10, # of connection points: 2
#     Edge 74, Type (0, 0), BuildingBlock: TEMPAE_clean_linker_10, # of connection points: 2
#     Edge 75, Type (0, 0), BuildingBlock: TEMPAE_clean_linker_10, # of connection points: 2
#     Edge 76, Type (0, 0), BuildingBlock: TEMPAE_clean_linker_10, # of connection points: 2
#     Edge 77, Type (0, 0), BuildingBlock: TEMPAE_clean_linker_10, # of connection points: 2
#     Edge 78, Type (0, 0), BuildingBlock: TEMPAE_clean_linker_10, # of connection points: 2
#     Edge 79, Type (0, 0), BuildingBlock: TEMPAE_clean_linker_10, # of connection points: 2
#     Edge 80, Type (0, 0), BuildingBlock: TEMPAE_clean_linker_10, # of connection points: 2
#     Edge 81, Type (0, 0), BuildingBlock: TEMPAE_clean_linker_10, # of connection points: 2
#     Edge 82, Type (0, 0), BuildingBlock: TEMPAE_clean_linker_10, # of connection points: 2
#     Edge 83, Type (0, 0), BuildingBlock: TEMPAE_clean_linker_10, # of connection points: 2
#     Edge 84, Type (0, 0), BuildingBlock: TEMPAE_clean_linker_10, # of connection points: 2
#     Edge 85, Type (0, 0), BuildingBlock: TEMPAE_clean_linker_10, # of connection points: 2
#     Edge 86, Type (0, 0), BuildingBlock: TEMPAE_clean_linker_10, # of connection points: 2
#     Edge 87, Type (0, 0), BuildingBlock: TEMPAE_clean_linker_10, # of connection points: 2
#     Edge 88, Type (0, 0), BuildingBlock: TEMPAE_clean_linker_10, # of connection points: 2
#     Edge 89, Type (0, 0), BuildingBlock: TEMPAE_clean_linker_10, # of connection points: 2
#     Edge 90, Type (0, 0), BuildingBlock: TEMPAE_clean_linker_10, # of connection points: 2
#     Edge 91, Type (0, 0), BuildingBlock: TEMPAE_clean_linker_10, # of connection points: 2
#     Edge 92, Type (0, 0), BuildingBlock: TEMPAE_clean_linker_10, # of connection points: 2
#     Edge 93, Type (0, 0), BuildingBlock: TEMPAE_clean_linker_10, # of connection points: 2
#     Edge 94, Type (0, 0), BuildingBlock: TEMPAE_clean_linker_10, # of connection points: 2
#     Edge 95, Type (0, 0), BuildingBlock: TEMPAE_clean_linker_10, # of connection points: 2
#     Edge 96, Type (0, 0), BuildingBlock: TEMPAE_clean_linker_10, # of connection points: 2
#     Edge 97, Type (0, 0), BuildingBlock: TEMPAE_clean_linker_10, # of connection points: 2
#     Edge 98, Type (0, 0), BuildingBlock: TEMPAE_clean_linker_10, # of connection points: 2
#     Edge 99, Type (0, 0), BuildingBlock: TEMPAE_clean_linker_10, # of connection points: 2
#     Edge 100, Type (0, 0), BuildingBlock: TEMPAE_clean_linker_10, # of connection points: 2
#     Edge 101, Type (0, 0), BuildingBlock: TEMPAE_clean_linker_10, # of connection points: 2
#     Edge 102, Type (0, 0), BuildingBlock: TEMPAE_clean_linker_10, # of connection points: 2
#     Edge 103, Type (0, 0), BuildingBlock: TEMPAE_clean_linker_10, # of connection points: 2
#     Edge 104, Type (0, 0), BuildingBlock: TEMPAE_clean_linker_10, # of connection points: 2
#     Edge 105, Type (0, 0), BuildingBlock: TEMPAE_clean_linker_10, # of connection points: 2
#     Edge 106, Type (0, 0), BuildingBlock: TEMPAE_clean_linker_10, # of connection points: 2
#     Edge 107, Type (0, 0), BuildingBlock: TEMPAE_clean_linker_10, # of connection points: 2
#     Edge 108, Type (0, 0), BuildingBlock: TEMPAE_clean_linker_10, # of connection points: 2
#     Edge 109, Type (0, 0), BuildingBlock: TEMPAE_clean_linker_10, # of connection points: 2
#     Edge 110, Type (0, 0), BuildingBlock: TEMPAE_clean_linker_10, # of connection points: 2
#     Edge 111, Type (0, 0), BuildingBlock: TEMPAE_clean_linker_10, # of connection points: 2
# Relax obj value: 0.202
# Max RMSD: 0.172
# Mean RMSD: 0.172
data_MOF--net-soh--node1-XOMCOT_clean_sbu_1--edge1-TEMPAE_clean_linker_10
_symmetry_space_group_name_H-M    P1
_symmetry_Int_Tables_number       1
_symmetry_cell_setting            triclinic
loop_
_symmetry_equiv_pos_as_xyz
'x, y, z'
_cell_length_a     85.629688
_cell_length_b     44.283423
_cell_length_c     45.059676
_cell_angle_alpha  89.986834
_cell_angle_beta   89.974147
_cell_angle_gamma 90.033172
loop_
_atom_site_label
_atom_site_type_symbol
_atom_site_fract_x
_atom_site_fract_y
_atom_site_fract_z
_atom_type_partial_charge
C0 C 0.29435 0.36524 0.22677 0.0
C1 C 0.29246 0.37898 0.25387 0.0
N2 N 0.30525 0.3735 0.27044 0.0
N3 N 0.30836 0.35143 0.226 0.0
C4 C 0.31475 0.35688 0.25288 0.0
H5 H 0.28565 0.36392 0.20943 0.0
Co6 Co 0.31516 0.32431 0.1972 0.0
C7 C 0.34689 0.34688 0.18118 0.0
O8 O 0.34318 0.34426 0.15309 0.0
N9 N 0.32179 0.29528 0.16787 0.0
C10 C 0.32652 0.27059 0.12541 0.0
C11 C 0.3228 0.29797 0.13791 0.0
C12 C 0.32496 0.26561 0.1726 0.0
N13 N 0.32771 0.25022 0.14731 0.0
O14 O 0.31868 0.29573 0.2282 0.0
H15 H 0.32069 0.31836 0.1254 0.0
H16 H 0.32503 0.25487 0.19409 0.0
O17 O 0.33679 0.34003 0.20109 0.0
C18 C 0.30594 0.28127 0.23178 0.0
O19 O 0.29432 0.28644 0.21343 0.0
N20 N 0.30951 0.35221 0.16783 0.0
C21 C 0.29396 0.39248 0.13039 0.0
C22 C 0.30727 0.40162 0.14631 0.0
C23 C 0.31475 0.38124 0.16537 0.0
C24 C 0.29641 0.34324 0.15307 0.0
C25 C 0.2886 0.36279 0.13399 0.0
H26 H 0.32423 0.38922 0.1791 0.0
H27 H 0.29176 0.32086 0.15686 0.0
H28 H 0.32581 0.34748 0.25989 0.0
H29 H 0.28199 0.39031 0.26144 0.0
H30 H 0.32749 0.26572 0.10193 0.0
H31 H 0.31172 0.42443 0.14448 0.0
H32 H 0.2781 0.35498 0.12299 0.0
C33 C 1.00643 0.90813 0.22699 0.0
C34 C 1.00869 0.89485 0.25428 0.0
N35 N 0.99588 0.89974 0.27108 0.0
N36 N 0.99222 0.9211 0.22648 0.0
C37 C 0.98603 0.91543 0.25344 0.0
H38 H 1.01499 0.90991 0.20941 0.0
Co39 Co 0.98465 0.94824 0.19857 0.0
C40 C 0.95089 0.94494 0.20921 0.0
O41 O 0.95114 0.97423 0.21383 0.0
N42 N 0.97713 0.97623 0.17061 0.0
C43 C 0.96455 0.99841 0.13333 0.0
C44 C 0.96714 0.9715 0.14793 0.0
C45 C 0.98055 1.00599 0.1691 0.0
N46 N 0.97301 0.02017 0.14676 0.0
O47 O 0.98153 0.97676 0.23002 0.0
H48 H 0.962 0.94988 0.14248 0.0
H49 H 0.98821 0.01729 0.18449 0.0
O50 O 0.96362 0.93124 0.20301 0.0
C51 C 0.9946 0.98954 0.23507 0.0
O52 O 1.00661 0.98287 0.21813 0.0
N53 N 0.9896 0.92117 0.16824 0.0
C54 C 1.00542 0.8813 0.13084 0.0
C55 C 0.99263 0.87139 0.14792 0.0
C56 C 0.98487 0.89177 0.16668 0.0
C57 C 1.00146 0.93143 0.1508 0.0
C58 C 1.0094 0.912 0.13178 0.0
H59 H 0.97584 0.8835 0.18138 0.0
H60 H 1.00537 0.95456 0.15294 0.0
H61 H 0.97485 0.92426 0.26045 0.0
H62 H 1.0194 0.88438 0.26179 0.0
H63 H 0.95707 1.00157 0.11423 0.0
H64 H 0.98921 0.84785 0.14805 0.0
H65 H 1.01895 0.92085 0.11861 0.0
C66 C 0.29821 0.90933 0.03275 0.0
C67 C 0.29731 0.89604 0.00521 0.0
N68 N 0.30999 0.90423 0.98942 0.0
N69 N 0.31151 0.92554 0.03449 0.0
C70 C 0.31845 0.9219 0.00781 0.0
H71 H 0.2893 0.90858 0.04975 0.0
Co72 Co 0.31733 0.95274 0.06397 0.0
C73 C 0.3493 0.93157 0.08086 0.0
O74 O 0.34548 0.934 0.10893 0.0
N75 N 0.32312 0.98172 0.09397 0.0
C76 C 0.32717 1.00591 0.13694 0.0
C77 C 0.32391 0.97856 0.1239 0.0
C78 C 0.32596 1.0116 0.08979 0.0
N79 N 0.3283 0.02669 0.11539 0.0
O80 O 0.32076 0.98211 0.03345 0.0
H81 H 0.322 0.95783 0.136 0.0
H82 H 0.32614 0.02267 0.06846 0.0
O83 O 0.33921 0.93821 0.06089 0.0
C84 C 0.30787 0.99598 0.02956 0.0
O85 O 0.29612 0.98993 0.04736 0.0
N86 N 0.31166 0.9242 0.0928 0.0
C87 C 0.29622 0.88358 0.13016 0.0
C88 C 0.30987 0.87498 0.11494 0.0
C89 C 0.31732 0.89554 0.09594 0.0
C90 C 0.29821 0.93254 0.10673 0.0
C91 C 0.29044 0.91283 0.12576 0.0
H92 H 0.32715 0.88801 0.08288 0.0
H93 H 0.29328 0.9546 0.10245 0.0
H94 H 0.32914 0.9333 1.00152 0.0
H95 H 0.28753 0.88313 0.99676 0.0
H96 H 0.32793 1.01043 0.16051 0.0
H97 H 0.31464 0.85247 0.11737 0.0
H98 H 0.2797 0.92019 0.13617 0.0
C99 C 1.00855 0.36465 0.03697 0.0
C100 C 1.01014 0.37849 0.00984 0.0
N101 N 0.99821 0.36972 0.99228 0.0
N102 N 0.99552 0.34757 0.03687 0.0
C103 C 0.98946 0.35121 0.00943 0.0
H104 H 1.01677 0.36601 0.05512 0.0
Co105 Co 0.98914 0.31977 0.06553 0.0
C106 C 0.95727 0.341 0.08146 0.0
O107 O 0.96102 0.33892 0.1096 0.0
N108 N 0.98281 0.29014 0.09458 0.0
C109 C 0.97891 0.26435 0.13665 0.0
C110 C 0.98224 0.29213 0.12458 0.0
C111 C 0.97944 0.26062 0.08932 0.0
N112 N 0.9773 0.2444 0.11439 0.0
O113 O 0.98606 0.29122 0.03436 0.0
H114 H 0.98437 0.31229 0.13743 0.0
H115 H 0.97869 0.25073 0.06751 0.0
O116 O 0.96735 0.33418 0.06156 0.0
C117 C 0.99879 0.27678 0.03079 0.0
O118 O 1.01035 0.28165 0.04935 0.0
N119 N 0.99438 0.34785 0.09523 0.0
C120 C 1.00939 0.38881 0.1329 0.0
C121 C 0.99595 0.39728 0.117 0.0
C122 C 0.98876 0.3766 0.09785 0.0
C123 C 1.00762 0.33957 0.10992 0.0
C124 C 1.01515 0.35943 0.12916 0.0
H125 H 0.97921 0.38421 0.0841 0.0
H126 H 1.01261 0.31749 0.10598 0.0
H127 H 0.97937 0.33882 1.00166 0.0
H128 H 1.01968 0.39312 1.00343 0.0
H129 H 0.9784 0.25908 0.16008 0.0
H130 H 0.99121 0.41986 0.11889 0.0
H131 H 1.02575 0.35215 0.14012 0.0
C132 C 0.76329 0.66404 0.78113 0.0
C133 C 0.76539 0.65085 0.75379 0.0
N134 N 0.75211 0.65412 0.73801 0.0
N135 N 0.7487 0.67528 0.78274 0.0
C136 C 0.74216 0.66882 0.75626 0.0
H137 H 0.77213 0.66689 0.79805 0.0
Co138 Co 0.7411 0.70134 0.81154 0.0
C139 C 0.71025 0.67295 0.82548 0.0
O140 O 0.71436 0.67085 0.85342 0.0
N141 N 0.73345 0.72939 0.8408 0.0
C142 C 0.72628 0.75256 0.88282 0.0
C143 C 0.73043 0.72546 0.87009 0.0
C144 C 0.73098 0.75938 0.83664 0.0
N145 N 0.72678 0.77392 0.8617 0.0
O146 O 0.73757 0.73016 0.78057 0.0
H147 H 0.7317 0.70455 0.88216 0.0
H148 H 0.73234 0.7709 0.81572 0.0
O149 O 0.71969 0.68447 0.8065 0.0
C150 C 0.75037 0.74451 0.777 0.0
O151 O 0.76187 0.73963 0.79569 0.0
N152 N 0.74697 0.67318 0.84085 0.0
C153 C 0.76364 0.63292 0.87675 0.0
C154 C 0.75159 0.62258 0.85818 0.0
C155 C 0.74357 0.64301 0.83997 0.0
C156 C 0.75876 0.68347 0.85851 0.0
C157 C 0.767 0.66392 0.87701 0.0
H158 H 0.73529 0.63438 0.824 0.0
H159 H 0.76216 0.70697 0.85745 0.0
H160 H 0.7306 0.67632 0.75001 0.0
H161 H 0.77622 0.64151 0.74551 0.0
H162 H 0.72384 0.75646 0.90607 0.0
H163 H 0.7489 0.59874 0.8566 0.0
H164 H 0.77616 0.67301 0.89095 0.0
C165 C 0.04599 0.1124 0.78126 0.0
C166 C 0.04376 0.12521 0.7538 0.0
N167 N 0.05681 0.12104 0.73751 0.0
N168 N 0.06044 0.10049 0.78249 0.0
C169 C 0.06679 0.10623 0.75564 0.0
H170 H 0.03726 0.11004 0.79845 0.0
Co171 Co 0.06763 0.07365 0.81113 0.0
C172 C 0.09859 0.10154 0.82589 0.0
O173 O 0.0944 0.10353 0.8538 0.0
N174 N 0.07461 0.04472 0.84014 0.0
C175 C 0.08063 0.02038 0.88217 0.0
C176 C 0.07812 0.04815 0.86928 0.0
C177 C 0.0751 0.01432 0.83625 0.0
N178 N 0.07856 0.99908 0.86133 0.0
O179 O 0.07135 0.04532 0.77991 0.0
H180 H 0.07788 0.06919 0.88135 0.0
H181 H 0.07265 1.00303 0.8156 0.0
O182 O 0.08918 0.09008 0.80684 0.0
C183 C 0.05835 0.03242 0.77444 0.0
O184 O 0.04632 0.03816 0.79166 0.0
N185 N 0.0618 0.10141 0.84078 0.0
C186 C 0.04589 0.14144 0.8781 0.0
C187 C 0.05768 0.15183 0.85893 0.0
C188 C 0.06535 0.13151 0.84012 0.0
C189 C 0.0502 0.09109 0.85886 0.0
C190 C 0.04237 0.1105 0.87812 0.0
H191 H 0.07352 0.14019 0.82393 0.0
H192 H 0.04665 0.06767 0.85768 0.0
H193 H 0.07813 0.0979 0.74901 0.0
H194 H 0.03291 0.13471 0.74579 0.0
H195 H 0.08287 0.01614 0.90544 0.0
H196 H 0.06047 0.17563 0.85744 0.0
H197 H 0.03342 0.10132 0.89252 0.0
C198 C 0.75534 0.11151 0.97167 0.0
C199 C 0.75761 0.12432 0.99911 0.0
N200 N 0.74465 0.11987 0.01557 0.0
N201 N 0.74094 0.09931 0.97063 0.0
C202 C 0.73467 0.10491 0.99756 0.0
H203 H 0.76402 0.10936 0.95436 0.0
Co204 Co 0.73364 0.07244 0.94222 0.0
C205 C 0.70203 0.09705 0.92789 0.0
O206 O 0.70551 0.09549 0.89961 0.0
N207 N 0.7265 0.04342 0.9133 0.0
C208 C 0.72118 0.01855 0.8712 0.0
C209 C 0.72439 0.04626 0.88359 0.0
C210 C 0.72442 0.01338 0.91803 0.0
N211 N 0.72138 0.99783 0.89294 0.0
O212 O 0.73037 0.04399 0.97356 0.0
H213 H 0.72574 0.06689 0.87105 0.0
H214 H 0.72544 1.0025 0.93933 0.0
O215 O 0.71215 0.0887 0.94718 0.0
C216 C 0.74327 0.03019 0.97765 0.0
O217 O 0.75487 0.03518 0.95919 0.0
N218 N 0.73907 0.10038 0.91256 0.0
C219 C 0.75525 0.14148 0.87678 0.0
C220 C 0.7425 0.15089 0.89414 0.0
C221 C 0.73466 0.13003 0.9122 0.0
C222 C 0.75144 0.09094 0.89594 0.0
C223 C 0.75944 0.11087 0.87746 0.0
H224 H 0.72581 0.13813 0.92731 0.0
H225 H 0.75548 0.06789 0.89788 0.0
H226 H 0.72337 0.0964 1.00431 0.0
H227 H 0.76844 0.13405 0.00699 0.0
H228 H 0.71974 0.01379 0.8478 0.0
H229 H 0.73911 0.17443 0.89499 0.0
H230 H 0.76909 0.10239 0.86436 0.0
C231 C 0.04134 0.67398 0.97935 0.0
C232 C 0.03821 0.66234 0.00706 0.0
N233 N 0.0515 0.66291 0.02314 0.0
N234 N 0.05656 0.68147 0.97784 0.0
C235 C 0.06244 0.67441 0.00473 0.0
H236 H 0.03289 0.67843 0.96205 0.0
Co237 Co 0.0662 0.70504 0.94899 0.0
C238 C 0.09453 0.66594 0.93976 0.0
O239 O 0.0903 0.66109 0.91215 0.0
N240 N 0.07584 0.73093 0.9207 0.0
C241 C 0.093 0.75912 0.89579 0.0
C242 C 0.09063 0.73216 0.9102 0.0
C243 C 0.06958 0.75771 0.91227 0.0
N244 N 0.07979 0.77544 0.8974 0.0
O245 O 0.07074 0.73404 0.97935 0.0
H246 H 0.09979 0.71624 0.91469 0.0
H247 H 0.0579 0.76469 0.91814 0.0
O248 O 0.08641 0.68361 0.95627 0.0
C249 C 0.05854 0.7502 0.98275 0.0
O250 O 0.04648 0.74535 0.96538 0.0
N251 N 0.05967 0.67726 0.91923 0.0
C252 C 0.04327 0.63877 0.8808 0.0
C253 C 0.05172 0.62715 0.9049 0.0
C254 C 0.05964 0.64672 0.92402 0.0
C255 C 0.05154 0.6889 0.89581 0.0
C256 C 0.04345 0.6701 0.87617 0.0
H257 H 0.0654 0.63735 0.94329 0.0
H258 H 0.05053 0.71301 0.89305 0.0
H259 H 0.07435 0.6793 0.01112 0.0
H260 H 0.02681 0.65596 0.01532 0.0
H261 H 0.10405 0.76707 0.8871 0.0
H262 H 0.05202 0.60312 0.90931 0.0
H263 H 0.0368 0.6802 0.85831 0.0
C264 C 0.29775 0.87566 0.72427 0.0
C265 C 0.29669 0.88996 0.75127 0.0
N266 N 0.30833 0.87993 0.76892 0.0
N267 N 0.31018 0.85703 0.7245 0.0
C268 C 0.3164 0.86021 0.75184 0.0
H269 H 0.28954 0.87771 0.70615 0.0
Co270 Co 0.31566 0.82778 0.69641 0.0
C271 C 0.34799 0.8476 0.68091 0.0
O272 O 0.3441 0.84661 0.6528 0.0
N273 N 0.32107 0.79676 0.66811 0.0
C274 C 0.32573 0.77037 0.62669 0.0
C275 C 0.32354 0.79869 0.63845 0.0
C276 C 0.3218 0.76656 0.67346 0.0
N277 N 0.32453 0.75011 0.64875 0.0
O278 O 0.31717 0.79906 0.72815 0.0
H279 H 0.32327 0.81922 0.62551 0.0
H280 H 0.32022 0.75639 0.69502 0.0
O281 O 0.33796 0.84 0.70069 0.0
C282 C 0.30296 0.79105 0.73187 0.0
O283 O 0.29245 0.80204 0.71353 0.0
N284 N 0.31149 0.85582 0.66606 0.0
C285 C 0.29615 0.89766 0.62989 0.0
C286 C 0.3095 0.90603 0.64609 0.0
C287 C 0.31692 0.88482 0.66442 0.0
C288 C 0.29862 0.84741 0.6503 0.0
C289 C 0.29103 0.86764 0.63163 0.0
H290 H 0.32622 0.89229 0.67887 0.0
H291 H 0.29379 0.82504 0.65322 0.0
H292 H 0.32604 0.84657 0.75956 0.0
H293 H 0.2876 0.90565 0.7575 0.0
H294 H 0.32743 0.76507 0.60346 0.0
H295 H 0.31365 0.92914 0.64598 0.0
H296 H 0.28092 0.85995 0.61937 0.0
C297 C 1.0056 0.40459 0.72856 0.0
C298 C 1.00655 0.39037 0.75566 0.0
N299 N 0.99453 0.3998 0.77253 0.0
N300 N 0.99287 0.42256 0.72821 0.0
C301 C 0.98637 0.41909 0.75531 0.0
H302 H 1.01411 0.40315 0.71088 0.0
Co303 Co 0.98724 0.45123 0.69967 0.0
C304 C 0.95529 0.42906 0.68343 0.0
O305 O 0.95931 0.42892 0.65537 0.0
N306 N 0.98159 0.48136 0.67089 0.0
C307 C 0.97587 0.50635 0.62912 0.0
C308 C 0.97895 0.47855 0.64135 0.0
C309 C 0.98023 0.51154 0.67566 0.0
N310 N 0.97676 0.52711 0.65075 0.0
O311 O 0.98462 0.48022 0.73108 0.0
H312 H 0.9796 0.4578 0.62883 0.0
H313 H 0.98184 0.52231 0.69693 0.0
O314 O 0.96511 0.43773 0.70314 0.0
C315 C 0.99849 0.48883 0.73725 0.0
O316 O 1.01004 0.4781 0.72116 0.0
N317 N 0.9923 0.42329 0.66972 0.0
C318 C 1.00725 0.3834 0.63089 0.0
C319 C 0.99423 0.37406 0.64759 0.0
C320 C 0.98706 0.39423 0.66732 0.0
C321 C 1.00518 0.43236 0.6543 0.0
C322 C 1.01266 0.41304 0.63451 0.0
H323 H 0.97782 0.38611 0.68158 0.0
H324 H 1.00995 0.45465 0.65807 0.0
H325 H 0.97629 0.43173 0.7628 0.0
H326 H 1.01597 0.37593 0.76311 0.0
H327 H 0.97374 0.51105 0.60589 0.0
H328 H 0.98977 0.35124 0.64583 0.0
H329 H 1.02297 0.42099 0.62297 0.0
C330 C 0.29405 0.4237 0.53289 0.0
C331 C 0.29106 0.41143 0.5054 0.0
N332 N 0.30438 0.41196 0.48938 0.0
N333 N 0.30922 0.43158 0.53434 0.0
C334 C 0.31521 0.42414 0.50762 0.0
H335 H 0.28555 0.42822 0.55008 0.0
Co336 Co 0.31855 0.45563 0.56312 0.0
C337 C 0.34725 0.41888 0.57434 0.0
O338 O 0.34314 0.41638 0.60233 0.0
N339 N 0.32781 0.48213 0.59134 0.0
C340 C 0.34472 0.513 0.61368 0.0
C341 C 0.34298 0.48617 0.59875 0.0
C342 C 0.32072 0.50739 0.60175 0.0
N343 N 0.33072 0.52663 0.61527 0.0
O344 O 0.32311 0.4844 0.5327 0.0
H345 H 0.35266 0.47266 0.5913 0.0
H346 H 0.30854 0.51244 0.59792 0.0
O347 O 0.33887 0.43462 0.5565 0.0
C348 C 0.31106 0.501 0.52959 0.0
O349 O 0.29908 0.49669 0.54732 0.0
N350 N 0.31211 0.42777 0.5929 0.0
C351 C 0.29608 0.38827 0.63093 0.0
C352 C 0.30519 0.37713 0.60749 0.0
C353 C 0.31293 0.3972 0.58855 0.0
C354 C 0.30333 0.43891 0.61569 0.0
C355 C 0.29541 0.41963 0.63511 0.0
H356 H 0.3191 0.38816 0.5696 0.0
H357 H 0.3017 0.4629 0.61814 0.0
H358 H 0.32711 0.42914 0.50123 0.0
H359 H 0.27972 0.40458 0.49726 0.0
H360 H 0.35574 0.52301 0.62019 0.0
H361 H 0.3058 0.35314 0.60296 0.0
H362 H 0.28853 0.42931 0.6529 0.0
C363 C 1.00764 0.86216 0.53509 0.0
C364 C 1.00979 0.87455 0.50743 0.0
N365 N 0.9967 0.87012 0.49135 0.0
N366 N 0.9932 0.85021 0.53667 0.0
C367 C 0.98678 0.85551 0.50981 0.0
H368 H 1.01642 0.86015 0.55222 0.0
Co369 Co 0.98607 0.82409 0.56595 0.0
C370 C 0.9545 0.84862 0.58055 0.0
O371 O 0.95818 0.84754 0.60875 0.0
N372 N 0.97915 0.79586 0.59585 0.0
C373 C 0.97431 0.77223 0.63885 0.0
C374 C 0.97746 0.79953 0.62558 0.0
C375 C 0.9769 0.76574 0.59203 0.0
N376 N 0.97414 0.75094 0.61768 0.0
O377 O 0.98263 0.79484 0.53547 0.0
H378 H 0.97901 0.82047 0.6375 0.0
H379 H 0.9776 0.75427 0.57097 0.0
O380 O 0.96453 0.84014 0.56113 0.0
C381 C 0.99547 0.78074 0.5318 0.0
O382 O 1.00705 0.78604 0.5502 0.0
N383 N 0.99166 0.8528 0.59466 0.0
C384 C 1.008 0.89482 0.62897 0.0
C385 C 0.99499 0.90368 0.61206 0.0
C386 C 0.98709 0.88236 0.59466 0.0
C387 C 1.00428 0.84391 0.61086 0.0
C388 C 1.01239 0.86433 0.62859 0.0
H389 H 0.97803 0.89001 0.57979 0.0
H390 H 1.00842 0.8209 0.60915 0.0
H391 H 0.9754 0.84711 0.50348 0.0
H392 H 1.02061 0.88403 0.49921 0.0
H393 H 0.97313 0.76813 0.66244 0.0
H394 H 0.99144 0.92712 0.61105 0.0
H395 H 1.02227 0.85633 0.64136 0.0
C396 C 0.75767 0.16108 0.27847 0.0
C397 C 0.75933 0.14715 0.25139 0.0
N398 N 0.74627 0.15205 0.23532 0.0
N399 N 0.74359 0.17456 0.27966 0.0
C400 C 0.73688 0.16854 0.25322 0.0
H401 H 0.76655 0.1629 0.29545 0.0
Co402 Co 0.73688 0.20227 0.30806 0.0
C403 C 0.70527 0.17706 0.32233 0.0
O404 O 0.70914 0.17593 0.35044 0.0
N405 N 0.7302 0.23166 0.33679 0.0
C406 C 0.72364 0.25602 0.37846 0.0
C407 C 0.72691 0.22838 0.36604 0.0
C408 C 0.72894 0.26192 0.33237 0.0
N409 N 0.725 0.27715 0.35724 0.0
O410 O 0.73432 0.23133 0.27669 0.0
H411 H 0.72745 0.20749 0.37834 0.0
H412 H 0.73102 0.27299 0.31141 0.0
O413 O 0.71502 0.18735 0.30323 0.0
C414 C 0.74819 0.24099 0.27212 0.0
O415 O 0.75935 0.2315 0.28985 0.0
N416 N 0.74199 0.17419 0.33788 0.0
C417 C 0.75742 0.13387 0.37558 0.0
C418 C 0.7451 0.12401 0.35735 0.0
C419 C 0.73769 0.14446 0.33825 0.0
C420 C 0.75415 0.18388 0.35493 0.0
C421 C 0.76182 0.16432 0.37425 0.0
H422 H 0.72908 0.1361 0.32276 0.0
H423 H 0.75831 0.20683 0.35271 0.0
H424 H 0.72566 0.17759 0.24679 0.0
H425 H 0.76981 0.13614 0.24352 0.0
H426 H 0.72116 0.26035 0.40163 0.0
H427 H 0.74144 0.1006 0.35737 0.0
H428 H 0.77158 0.17275 0.38709 0.0
C429 C 0.04382 0.61811 0.28686 0.0
C430 C 0.04145 0.63198 0.25994 0.0
N431 N 0.05395 0.62656 0.24251 0.0
N432 N 0.05783 0.60427 0.28662 0.0
C433 C 0.06375 0.60987 0.25938 0.0
H434 H 0.03546 0.61667 0.30481 0.0
Co435 Co 0.06512 0.57667 0.31466 0.0
C436 C 0.09687 0.602 0.32688 0.0
O437 O 0.09329 0.60362 0.35511 0.0
N438 N 0.07232 0.54722 0.34304 0.0
C439 C 0.07929 0.52261 0.38436 0.0
C440 C 0.07619 0.55039 0.37205 0.0
C441 C 0.07315 0.51689 0.33867 0.0
N442 N 0.07726 0.50148 0.36334 0.0
O443 O 0.06707 0.5476 0.28325 0.0
H444 H 0.07606 0.57131 0.38434 0.0
H445 H 0.07058 0.50585 0.31791 0.0
O446 O 0.08691 0.59147 0.30832 0.0
C447 C 0.05319 0.5374 0.28019 0.0
O448 O 0.0425 0.54674 0.29903 0.0
N449 N 0.06062 0.60493 0.34475 0.0
C450 C 0.04503 0.64602 0.38147 0.0
C451 C 0.0571 0.65568 0.36255 0.0
C452 C 0.06462 0.63483 0.34402 0.0
C453 C 0.04894 0.59528 0.36299 0.0
C454 C 0.04126 0.6152 0.38193 0.0
H455 H 0.07286 0.64303 0.32772 0.0
H456 H 0.04505 0.57206 0.36191 0.0
H457 H 0.07466 0.60043 0.25166 0.0
H458 H 0.03086 0.64333 0.25311 0.0
H459 H 0.08204 0.51821 0.40741 0.0
H460 H 0.06013 0.67936 0.36086 0.0
H461 H 0.03212 0.60656 0.39622 0.0
C462 C 0.76029 0.60927 0.47492 0.0
C463 C 0.7629 0.62206 0.50226 0.0
N464 N 0.74991 0.6187 0.51886 0.0
N465 N 0.74564 0.5982 0.4741 0.0
C466 C 0.73959 0.6043 0.5011 0.0
H467 H 0.76881 0.60662 0.45739 0.0
Co468 Co 0.73763 0.5728 0.44507 0.0
C469 C 0.70681 0.60177 0.43261 0.0
O470 O 0.71061 0.6037 0.40449 0.0
N471 N 0.72975 0.5453 0.41546 0.0
C472 C 0.72301 0.5227 0.37288 0.0
C473 C 0.72651 0.54976 0.38633 0.0
C474 C 0.72802 0.51499 0.41878 0.0
N475 N 0.72412 0.50077 0.39335 0.0
O476 O 0.73405 0.54361 0.47559 0.0
H477 H 0.72744 0.57101 0.37471 0.0
H478 H 0.72985 0.503 0.43929 0.0
O479 O 0.71639 0.58997 0.45113 0.0
C480 C 0.74671 0.52898 0.47945 0.0
O481 O 0.75841 0.53368 0.46113 0.0
N482 N 0.74331 0.6015 0.41612 0.0
C483 C 0.75883 0.64284 0.37953 0.0
C484 C 0.74734 0.65255 0.39964 0.0
C485 C 0.73987 0.63158 0.41804 0.0
C486 C 0.7547 0.59181 0.39725 0.0
C487 C 0.76232 0.6119 0.37831 0.0
H488 H 0.73194 0.63971 0.43491 0.0
H489 H 0.75819 0.56834 0.39744 0.0
H490 H 0.72812 0.59681 0.50802 0.0
H491 H 0.77391 0.63122 0.50993 0.0
H492 H 0.72073 0.51925 0.3495 0.0
H493 H 0.74461 0.67628 0.40212 0.0
H494 H 0.77105 0.60322 0.36318 0.0
C495 C 0.04335 0.16068 0.47449 0.0
C496 C 0.04179 0.14694 0.5017 0.0
N497 N 0.05486 0.15217 0.51766 0.0
N498 N 0.05739 0.17432 0.4731 0.0
C499 C 0.06416 0.16865 0.49955 0.0
H500 H 0.03445 0.16222 0.45753 0.0
Co501 Co 0.06395 0.20187 0.44445 0.0
C502 C 0.09575 0.17821 0.43062 0.0
O503 O 0.09187 0.17712 0.40251 0.0
N504 N 0.07049 0.23132 0.41543 0.0
C505 C 0.07667 0.25582 0.37358 0.0
C506 C 0.07351 0.22814 0.38606 0.0
C507 C 0.07188 0.26156 0.41987 0.0
N508 N 0.07554 0.2769 0.39489 0.0
O509 O 0.066 0.23126 0.47551 0.0
H510 H 0.07294 0.20724 0.37376 0.0
H511 H 0.07012 0.27259 0.44095 0.0
O512 O 0.0859 0.18799 0.44977 0.0
C513 C 0.05206 0.24107 0.47874 0.0
O514 O 0.0414 0.23159 0.45991 0.0
N515 N 0.05934 0.17311 0.41497 0.0
C516 C 0.04377 0.13072 0.37968 0.0
C517 C 0.05634 0.12201 0.39783 0.0
C518 C 0.06384 0.14349 0.41568 0.0
C519 C 0.04714 0.18183 0.39755 0.0
C520 C 0.03946 0.16126 0.37929 0.0
H521 H 0.0725 0.13597 0.43147 0.0
H522 H 0.0429 0.2048 0.39873 0.0
H523 H 0.07536 0.17793 0.50584 0.0
H524 H 0.03136 0.13583 0.50974 0.0
H525 H 0.07895 0.2602 0.35034 0.0
H526 H 0.0598 0.09855 0.39949 0.0
H527 H 0.02992 0.16917 0.36558 0.0
C528 C 0.7935 0.36135 0.72606 0.0
C529 C 0.79125 0.37479 0.75322 0.0
N530 N 0.80416 0.37044 0.7698 0.0
N531 N 0.80786 0.34891 0.7253 0.0
C532 C 0.81407 0.3548 0.75221 0.0
H533 H 0.7849 0.3593 0.70862 0.0
Co534 Co 0.81528 0.32262 0.69639 0.0
C535 C 0.84642 0.34912 0.68204 0.0
O536 O 0.84253 0.34931 0.6539 0.0
N537 N 0.82257 0.2942 0.66692 0.0
C538 C 0.82762 0.27019 0.62428 0.0
C539 C 0.8245 0.29764 0.63726 0.0
C540 C 0.82491 0.26413 0.67108 0.0
N541 N 0.82772 0.24895 0.6456 0.0
O542 O 0.8187 0.29371 0.72719 0.0
H543 H 0.82308 0.31849 0.62512 0.0
H544 H 0.82433 0.25309 0.69235 0.0
O545 O 0.83676 0.33905 0.7014 0.0
C546 C 0.8059 0.27939 0.73062 0.0
O547 O 0.79438 0.28455 0.71204 0.0
N548 N 0.80964 0.35104 0.66718 0.0
C549 C 0.79381 0.39223 0.63091 0.0
C550 C 0.80616 0.40174 0.64924 0.0
C551 C 0.81378 0.38087 0.66756 0.0
C552 C 0.79748 0.34161 0.65 0.0
C553 C 0.78968 0.36157 0.63125 0.0
H554 H 0.82234 0.389 0.68325 0.0
H555 H 0.79353 0.31845 0.65147 0.0
H556 H 0.82535 0.3464 0.75921 0.0
H557 H 0.78052 0.38515 0.76081 0.0
H558 H 0.82887 0.2661 0.60073 0.0
H559 H 0.80944 0.42532 0.65049 0.0
H560 H 0.78029 0.35303 0.61751 0.0
C561 C 0.50783 0.90574 0.72571 0.0
C562 C 0.50963 0.89234 0.7531 0.0
N563 N 0.49812 0.90227 0.77094 0.0
N564 N 0.49507 0.92363 0.72625 0.0
C565 C 0.4894 0.92091 0.75407 0.0
H566 H 0.51582 0.90392 0.70722 0.0
Co567 Co 0.48859 0.95208 0.69818 0.0
C568 C 0.45622 0.92993 0.68559 0.0
O569 O 0.45948 0.92934 0.65718 0.0
N570 N 0.48208 0.98215 0.6699 0.0
C571 C 0.47547 1.00719 0.62864 0.0
C572 C 0.47858 0.97932 0.64069 0.0
C573 C 0.4811 1.01238 0.67466 0.0
N574 N 0.47716 0.02802 0.65005 0.0
O575 O 0.48723 0.98124 0.72967 0.0
H576 H 0.47875 0.95851 0.62821 0.0
H577 H 0.48337 0.02317 0.6957 0.0
O578 O 0.46657 0.93875 0.70424 0.0
C579 C 0.5014 0.98987 0.73266 0.0
O580 O 0.51177 0.97943 0.71372 0.0
N581 N 0.49264 0.92393 0.66796 0.0
C582 C 0.507 0.88335 0.62909 0.0
C583 C 0.49443 0.87413 0.64706 0.0
C584 C 0.48754 0.8947 0.66676 0.0
C585 C 0.505 0.93296 0.65107 0.0
C586 C 0.51217 0.91329 0.63123 0.0
H587 H 0.47875 0.88672 0.68209 0.0
H588 H 0.50972 0.95543 0.65386 0.0
H589 H 0.47957 0.93378 0.76233 0.0
H590 H 0.51929 0.87822 0.75999 0.0
H591 H 0.47284 1.01188 0.6056 0.0
H592 H 0.49021 0.85109 0.64643 0.0
H593 H 0.52214 0.92118 0.61863 0.0
C594 C 0.79697 0.90506 0.53203 0.0
C595 C 0.79506 0.8912 0.50486 0.0
N596 N 0.80652 0.90085 0.48668 0.0
N597 N 0.80969 0.92302 0.53097 0.0
C598 C 0.81527 0.9198 0.50314 0.0
H599 H 0.78914 0.90333 0.55081 0.0
Co600 Co 0.81677 0.95141 0.5585 0.0
C601 C 0.85053 0.95073 0.54559 0.0
O602 O 0.85002 0.97996 0.54065 0.0
N603 N 0.82406 0.98034 0.58584 0.0
C604 C 0.83694 1.00303 0.62243 0.0
C605 C 0.8341 0.9759 0.60848 0.0
C606 C 0.82092 1.01027 0.5866 0.0
N607 N 0.82866 0.02477 0.60856 0.0
O608 O 0.81813 0.98055 0.5269 0.0
H609 H 0.83918 0.95433 0.61428 0.0
H610 H 0.81339 0.02141 0.57082 0.0
O611 O 0.83803 0.93675 0.55264 0.0
C612 C 0.80404 0.98918 0.52315 0.0
O613 O 0.79339 0.97886 0.54161 0.0
N614 N 0.81331 0.92383 0.58924 0.0
C615 C 0.79945 0.8825 0.628 0.0
C616 C 0.8121 0.87389 0.60989 0.0
C617 C 0.8189 0.89499 0.59053 0.0
C618 C 0.80161 0.93291 0.60764 0.0
C619 C 0.79467 0.91279 0.6274 0.0
H620 H 0.82779 0.8876 0.57513 0.0
H621 H 0.79703 0.95559 0.6058 0.0
H622 H 0.82517 0.93236 0.49466 0.0
H623 H 0.78544 0.87678 0.49839 0.0
H624 H 0.84451 1.00632 0.64136 0.0
H625 H 0.81612 0.85072 0.60943 0.0
H626 H 0.78525 0.92076 0.64139 0.0
C627 C 0.51036 0.36419 0.534 0.0
C628 C 0.5122 0.37698 0.50641 0.0
N629 N 0.49913 0.37181 0.49049 0.0
N630 N 0.49612 0.35133 0.53567 0.0
C631 C 0.48954 0.3564 0.5089 0.0
H632 H 0.51919 0.36276 0.5511 0.0
Co633 Co 0.48921 0.32516 0.56515 0.0
C634 C 0.45798 0.3511 0.57995 0.0
O635 O 0.46217 0.35276 0.60788 0.0
N636 N 0.4824 0.29697 0.59514 0.0
C637 C 0.47681 0.27374 0.63802 0.0
C638 C 0.48 0.30099 0.62463 0.0
C639 C 0.48049 0.26673 0.59155 0.0
N640 N 0.47728 0.25215 0.61714 0.0
O641 O 0.48568 0.29584 0.53481 0.0
H642 H 0.48113 0.32212 0.63639 0.0
H643 H 0.48163 0.25507 0.57067 0.0
O644 O 0.46758 0.34071 0.56067 0.0
C645 C 0.49855 0.28199 0.53067 0.0
O646 O 0.51031 0.2876 0.54855 0.0
N647 N 0.49493 0.35398 0.59385 0.0
C648 C 0.51105 0.39557 0.62916 0.0
C649 C 0.49855 0.40488 0.61112 0.0
C650 C 0.49079 0.38379 0.59324 0.0
C651 C 0.50717 0.34473 0.61089 0.0
C652 C 0.51514 0.36491 0.62914 0.0
H653 H 0.48208 0.39168 0.57771 0.0
H654 H 0.5111 0.32155 0.60961 0.0
H655 H 0.47827 0.34743 0.5026 0.0
H656 H 0.52277 0.38737 0.4981 0.0
H657 H 0.4751 0.26995 0.66153 0.0
H658 H 0.49528 0.42845 0.60973 0.0
H659 H 0.52463 0.35655 0.64271 0.0
C660 C 0.25828 0.65591 0.28598 0.0
C661 C 0.26018 0.64198 0.25895 0.0
N662 N 0.24824 0.65008 0.24111 0.0
N663 N 0.24504 0.67236 0.2855 0.0
C664 C 0.23918 0.66829 0.25797 0.0
H665 H 0.26641 0.65516 0.30432 0.0
Co666 Co 0.23825 0.70043 0.3137 0.0
C667 C 0.20642 0.67644 0.32719 0.0
O668 O 0.21014 0.67576 0.35539 0.0
N669 N 0.23145 0.73024 0.34213 0.0
C670 C 0.22485 0.75508 0.38353 0.0
C671 C 0.22825 0.72733 0.37146 0.0
C672 C 0.22995 0.76041 0.33731 0.0
N673 N 0.22602 0.77594 0.36201 0.0
O674 O 0.23632 0.72943 0.28223 0.0
H675 H 0.22884 0.70659 0.38401 0.0
H676 H 0.23182 0.77123 0.31614 0.0
O677 O 0.21636 0.68609 0.30812 0.0
C678 C 0.2503 0.7392 0.27931 0.0
O679 O 0.26084 0.72954 0.29828 0.0
N680 N 0.24286 0.67233 0.34386 0.0
C681 C 0.25906 0.63153 0.37991 0.0
C682 C 0.24632 0.6219 0.36263 0.0
C683 C 0.2385 0.64261 0.34434 0.0
C684 C 0.2551 0.68195 0.36072 0.0
C685 C 0.26312 0.66219 0.37928 0.0
H686 H 0.22977 0.63434 0.32906 0.0
H687 H 0.25917 0.70499 0.35871 0.0
H688 H 0.22905 0.68033 0.24988 0.0
H689 H 0.26995 0.62785 0.25276 0.0
H690 H 0.22238 0.75967 0.40666 0.0
H691 H 0.24302 0.5983 0.36189 0.0
H692 H 0.27276 0.67078 0.39234 0.0
C693 C 0.54317 0.11318 0.2854 0.0
C694 C 0.54067 0.12595 0.258 0.0
N695 N 0.55324 0.12047 0.24076 0.0
N696 N 0.55733 0.09993 0.28561 0.0
C697 C 0.56322 0.10488 0.25826 0.0
H698 H 0.5348 0.11189 0.30334 0.0
Co699 Co 0.56478 0.07302 0.31402 0.0
C700 C 0.5966 0.09796 0.32543 0.0
O701 O 0.59317 0.0989 0.35376 0.0
N702 N 0.57218 0.0442 0.34284 0.0
C703 C 0.57907 0.02019 0.38456 0.0
C704 C 0.57563 0.0477 0.37201 0.0
C705 C 0.57363 0.01395 0.3386 0.0
N706 N 0.57768 0.99891 0.3635 0.0
O707 O 0.56638 0.04322 0.28311 0.0
H708 H 0.57511 0.06866 0.38419 0.0
H709 H 0.57155 1.00268 0.31776 0.0
O710 O 0.58654 0.08775 0.30688 0.0
C711 C 0.55244 0.03299 0.28125 0.0
O712 O 0.54219 0.04247 0.30089 0.0
N713 N 0.56051 0.10195 0.34352 0.0
C714 C 0.54549 0.14393 0.38011 0.0
C715 C 0.55752 0.153 0.36081 0.0
C716 C 0.56474 0.13171 0.34233 0.0
C717 C 0.54878 0.09292 0.36195 0.0
C718 C 0.54141 0.11327 0.38087 0.0
H719 H 0.57297 0.13945 0.32581 0.0
H720 H 0.5447 0.06981 0.36119 0.0
H721 H 0.57425 0.09562 0.25094 0.0
H722 H 0.52992 0.13651 0.25081 0.0
H723 H 0.58163 0.01603 0.40772 0.0
H724 H 0.56077 0.17655 0.35884 0.0
H725 H 0.53229 0.10506 0.39544 0.0
C726 C 0.25814 0.11118 0.47547 0.0
C727 C 0.26062 0.12419 0.50276 0.0
N728 N 0.24758 0.12077 0.51924 0.0
N729 N 0.24354 0.09989 0.47453 0.0
C730 C 0.23737 0.10613 0.50142 0.0
H731 H 0.26675 0.10842 0.45812 0.0
Co732 Co 0.23584 0.07369 0.44578 0.0
C733 C 0.205 0.10242 0.43225 0.0
O734 O 0.209 0.10447 0.40425 0.0
N735 N 0.22829 0.04537 0.4166 0.0
C736 C 0.2217 0.02189 0.3744 0.0
C737 C 0.22483 0.04932 0.38749 0.0
C738 C 0.2271 0.01499 0.42025 0.0
N739 N 0.22329 1.00025 0.39505 0.0
O740 O 0.23225 0.04509 0.47678 0.0
H741 H 0.22544 0.07046 0.37562 0.0
H742 H 0.22928 1.00336 0.44083 0.0
O743 O 0.21446 0.09064 0.45102 0.0
C744 C 0.24516 0.03143 0.48111 0.0
O745 O 0.25685 0.03649 0.46287 0.0
N746 N 0.2416 0.10182 0.41635 0.0
C747 C 0.25781 0.14247 0.38009 0.0
C748 C 0.24608 0.15261 0.3995 0.0
C749 C 0.23827 0.13198 0.41776 0.0
C750 C 0.25309 0.09168 0.39792 0.0
C751 C 0.26107 0.11143 0.37918 0.0
H752 H 0.23021 0.14045 0.43425 0.0
H753 H 0.25647 0.06816 0.3985 0.0
H754 H 0.22593 0.09845 0.50827 0.0
H755 H 0.27158 0.13346 0.51049 0.0
H756 H 0.21935 0.01806 0.3511 0.0
H757 H 0.24349 0.17643 0.40166 0.0
H758 H 0.26997 0.10245 0.36456 0.0
C759 C 0.54504 0.65963 0.47709 0.0
C760 C 0.54341 0.64589 0.50427 0.0
N761 N 0.5565 0.65087 0.52023 0.0
N762 N 0.55914 0.67304 0.47574 0.0
C763 C 0.56588 0.66721 0.50218 0.0
H764 H 0.53617 0.66132 0.4601 0.0
Co765 Co 0.56588 0.70036 0.44707 0.0
C766 C 0.59764 0.67633 0.43395 0.0
O767 O 0.59383 0.67474 0.40583 0.0
N768 N 0.57261 0.7295 0.41798 0.0
C769 C 0.57905 0.75364 0.37607 0.0
C770 C 0.57584 0.72606 0.38871 0.0
C771 C 0.57392 0.75978 0.42219 0.0
N772 N 0.57773 0.77489 0.39717 0.0
O773 O 0.56776 0.72993 0.47794 0.0
H774 H 0.57535 0.70506 0.37658 0.0
H775 H 0.57196 0.77099 0.44311 0.0
O776 O 0.58778 0.68648 0.45286 0.0
C777 C 0.55375 0.73951 0.48065 0.0
O778 O 0.54332 0.72991 0.46141 0.0
N779 N 0.56139 0.67147 0.41779 0.0
C780 C 0.54552 0.629 0.38327 0.0
C781 C 0.55805 0.62021 0.40146 0.0
C782 C 0.5657 0.64177 0.41894 0.0
C783 C 0.54928 0.68028 0.40019 0.0
C784 C 0.54146 0.65964 0.38229 0.0
H785 H 0.57429 0.63426 0.43488 0.0
H786 H 0.54519 0.70336 0.40106 0.0
H787 H 0.57712 0.67627 0.50849 0.0
H788 H 0.53292 0.63494 0.51228 0.0
H789 H 0.58145 0.75784 0.35284 0.0
H790 H 0.56132 0.59668 0.40349 0.0
H791 H 0.53197 0.66758 0.36848 0.0
C792 C 0.79443 0.86962 0.22067 0.0
C793 C 0.79242 0.88285 0.24797 0.0
N794 N 0.80407 0.8737 0.26601 0.0
N795 N 0.80747 0.85258 0.2211 0.0
C796 C 0.81312 0.85566 0.24894 0.0
H797 H 0.78642 0.87116 0.20221 0.0
Co798 Co 0.81385 0.82465 0.19248 0.0
C799 C 0.84592 0.84533 0.17655 0.0
O800 O 0.84219 0.84279 0.14845 0.0
N801 N 0.82001 0.79476 0.16353 0.0
C802 C 0.82403 0.76884 0.12153 0.0
C803 C 0.82113 0.79683 0.13356 0.0
C804 C 0.82243 0.7649 0.16878 0.0
N805 N 0.82467 0.74871 0.14377 0.0
O806 O 0.81684 0.79612 0.22376 0.0
H807 H 0.8196 0.81719 0.1207 0.0
H808 H 0.82238 0.75465 0.19048 0.0
O809 O 0.83571 0.83905 0.19643 0.0
C810 C 0.80389 0.78258 0.22802 0.0
O811 O 0.79217 0.78824 0.21006 0.0
N812 N 0.80878 0.85271 0.16266 0.0
C813 C 0.79321 0.89446 0.12666 0.0
C814 C 0.80665 0.90285 0.14263 0.0
C815 C 0.81419 0.88169 0.1608 0.0
C816 C 0.79576 0.84427 0.14737 0.0
C817 C 0.78805 0.86446 0.12878 0.0
H818 H 0.82365 0.88918 0.17486 0.0
H819 H 0.79103 0.82183 0.15042 0.0
H820 H 0.82304 0.84302 0.25707 0.0
H821 H 0.78273 0.89717 0.25419 0.0
H822 H 0.82489 0.76355 0.09814 0.0
H823 H 0.81083 0.92592 0.14234 0.0
H824 H 0.77788 0.85668 0.11672 0.0
C825 C 0.50699 0.41363 0.22619 0.0
C826 C 0.50968 0.4002 0.25326 0.0
N827 N 0.49696 0.40415 0.27054 0.0
N828 N 0.4926 0.42583 0.22628 0.0
C829 C 0.48673 0.41946 0.25335 0.0
H830 H 0.51539 0.41621 0.20843 0.0
Co831 Co 0.4846 0.45338 0.19925 0.0
C832 C 0.45103 0.44971 0.2119 0.0
O833 O 0.45121 0.47893 0.21697 0.0
N834 N 0.47668 0.48178 0.17217 0.0
C835 C 0.46329 0.50461 0.13631 0.0
C836 C 0.46606 0.47751 0.15044 0.0
C837 C 0.48033 0.51144 0.17048 0.0
N838 N 0.4723 0.52598 0.14902 0.0
O839 O 0.4819 0.48119 0.23121 0.0
H840 H 0.46059 0.4561 0.14537 0.0
H841 H 0.4885 0.52246 0.18513 0.0
O842 O 0.46369 0.43633 0.20466 0.0
C843 C 0.49498 0.49408 0.23573 0.0
O844 O 0.50673 0.48805 0.21792 0.0
N845 N 0.48905 0.42688 0.16831 0.0
C846 C 0.50339 0.38749 0.12843 0.0
C847 C 0.49071 0.37785 0.14595 0.0
C848 C 0.4837 0.39794 0.16595 0.0
C849 C 0.50095 0.43689 0.15085 0.0
C850 C 0.50823 0.41766 0.13068 0.0
H851 H 0.47465 0.38979 0.18062 0.0
H852 H 0.5054 0.45955 0.15382 0.0
H853 H 0.47549 0.42767 0.26074 0.0
H854 H 0.52063 0.39033 0.26024 0.0
H855 H 0.45531 0.5082 0.11803 0.0
H856 H 0.48652 0.35481 0.14478 0.0
H857 H 0.51811 0.42601 0.11809 0.0
C858 C 0.79456 0.42278 0.03214 0.0
C859 C 0.79129 0.41039 0.00483 0.0
N860 N 0.80448 0.41064 0.98843 0.0
N861 N 0.80978 0.43041 0.0331 0.0
C862 C 0.81551 0.42275 0.00625 0.0
H863 H 0.78622 0.4275 0.04957 0.0
Co864 Co 0.81949 0.4542 0.06161 0.0
C865 C 0.84774 0.41643 0.07334 0.0
O866 O 0.84365 0.4147 0.1014 0.0
N867 N 0.82917 0.48035 0.0895 0.0
C868 C 0.84653 0.51141 0.11023 0.0
C869 C 0.84448 0.4844 0.09579 0.0
C870 C 0.8223 0.50574 0.10008 0.0
N871 N 0.83258 0.52513 0.11258 0.0
O872 O 0.82449 0.48249 0.03095 0.0
H873 H 0.85398 0.47084 0.08765 0.0
H874 H 0.81009 0.51086 0.09682 0.0
O875 O 0.83949 0.43205 0.05518 0.0
C876 C 0.81276 0.49994 0.02792 0.0
O877 O 0.80072 0.49637 0.04565 0.0
N878 N 0.81264 0.42702 0.09164 0.0
C879 C 0.79576 0.38872 0.12954 0.0
C880 C 0.80505 0.3769 0.10666 0.0
C881 C 0.8132 0.39637 0.08777 0.0
C882 C 0.80372 0.43883 0.11391 0.0
C883 C 0.79537 0.42015 0.13327 0.0
H884 H 0.81949 0.38681 0.0692 0.0
H885 H 0.80221 0.46289 0.1158 0.0
H886 H 0.82738 0.42749 0.99946 0.0
H887 H 0.77986 0.40363 0.99704 0.0
H888 H 0.85768 0.52151 0.11569 0.0
H889 H 0.80577 0.35278 0.10294 0.0
H890 H 0.78806 0.43038 0.1501 0.0
C891 C 0.50792 0.86763 0.0372 0.0
C892 C 0.51067 0.88197 0.01059 0.0
N893 N 0.4992 0.87439 0.99145 0.0
N894 N 0.49468 0.85134 0.035 0.0
C895 C 0.4896 0.85607 0.00704 0.0
H896 H 0.51547 0.86804 0.05643 0.0
Co897 Co 0.48663 0.82314 0.06158 0.0
C898 C 0.45302 0.82727 0.04845 0.0
O899 O 0.45306 0.79817 0.04272 0.0
N900 N 0.47862 0.7943 0.08807 0.0
C901 C 0.46461 0.77043 0.1224 0.0
C902 C 0.46762 0.79793 0.10922 0.0
C903 C 0.4823 0.76466 0.08922 0.0
N904 N 0.47382 0.74943 0.10962 0.0
O905 O 0.48408 0.79551 0.02922 0.0
H906 H 0.4619 0.81909 0.11426 0.0
H907 H 0.49106 0.75431 0.07537 0.0
O908 O 0.46573 0.84024 0.05608 0.0
C909 C 0.49715 0.78272 0.02431 0.0
O910 O 0.50905 0.789 0.04166 0.0
N911 N 0.49087 0.84921 0.09311 0.0
C912 C 0.5048 0.88803 0.13413 0.0
C913 C 0.49197 0.89757 0.11699 0.0
C914 C 0.48517 0.87778 0.09643 0.0
C915 C 0.50289 0.83921 0.11025 0.0
C916 C 0.50999 0.85817 0.13092 0.0
H917 H 0.47598 0.88596 0.08211 0.0
H918 H 0.50758 0.81683 0.10662 0.0
H919 H 0.4796 0.8445 0.99777 0.0
H920 H 0.52065 0.89607 0.00559 0.0
H921 H 0.45597 0.76616 0.13942 0.0
H922 H 0.48747 0.92033 0.1189 0.0
H923 H 0.51998 0.84988 0.14318 0.0
C924 C 0.26114 0.16607 0.78155 0.0
C925 C 0.26309 0.15291 0.75416 0.0
N926 N 0.24983 0.1567 0.73842 0.0
N927 N 0.24667 0.17783 0.78326 0.0
C928 C 0.24005 0.17175 0.75675 0.0
H929 H 0.26999 0.16842 0.79852 0.0
Co930 Co 0.23928 0.20359 0.81264 0.0
C931 C 0.20842 0.17491 0.82628 0.0
O932 O 0.21257 0.17232 0.85416 0.0
N933 N 0.2319 0.23134 0.8425 0.0
C934 C 0.22527 0.25399 0.88513 0.0
C935 C 0.22859 0.22687 0.87162 0.0
C936 C 0.23043 0.2617 0.83928 0.0
N937 N 0.22659 0.27593 0.86472 0.0
O938 O 0.23571 0.23311 0.78224 0.0
H939 H 0.22933 0.20556 0.88316 0.0
H940 H 0.23235 0.27374 0.81882 0.0
O941 O 0.21781 0.18697 0.80753 0.0
C942 C 0.24867 0.24689 0.77861 0.0
O943 O 0.26033 0.24037 0.79646 0.0
N944 N 0.24513 0.1749 0.84151 0.0
C945 C 0.26096 0.13433 0.87851 0.0
C946 C 0.24933 0.12417 0.85885 0.0
C947 C 0.24171 0.14476 0.84021 0.0
C948 C 0.25665 0.18496 0.8599 0.0
C949 C 0.26441 0.1653 0.87903 0.0
H950 H 0.23363 0.13632 0.82375 0.0
H951 H 0.26013 0.20844 0.85921 0.0
H952 H 0.22854 0.1796 0.7506 0.0
H953 H 0.27381 0.14312 0.74587 0.0
H954 H 0.22292 0.25745 0.90849 0.0
H955 H 0.2466 0.10038 0.85692 0.0
H956 H 0.27322 0.17437 0.89377 0.0
C957 C 0.5473 0.61223 0.7838 0.0
C958 C 0.54506 0.62473 0.75622 0.0
N959 N 0.55812 0.62043 0.74001 0.0
N960 N 0.56177 0.6004 0.78517 0.0
C961 C 0.56811 0.60585 0.75828 0.0
H962 H 0.53856 0.61006 0.80101 0.0
Co963 Co 0.56902 0.57421 0.81417 0.0
C964 C 0.60019 0.60001 0.82901 0.0
O965 O 0.59618 0.60005 0.8571 0.0
N966 N 0.57613 0.5459 0.84375 0.0
C967 C 0.58061 0.52157 0.88643 0.0
C968 C 0.57759 0.5491 0.87354 0.0
C969 C 0.57872 0.51596 0.83944 0.0
N970 N 0.58114 0.50058 0.86491 0.0
O971 O 0.57257 0.5453 0.78343 0.0
H972 H 0.57591 0.56983 0.88575 0.0
H973 H 0.57856 0.50513 0.81804 0.0
O974 O 0.59052 0.59042 0.80946 0.0
C975 C 0.55986 0.53076 0.7797 0.0
O976 O 0.54825 0.53545 0.79819 0.0
N977 N 0.56327 0.60266 0.84316 0.0
C978 C 0.54695 0.64407 0.87829 0.0
C979 C 0.55968 0.6534 0.86083 0.0
C980 C 0.56754 0.63241 0.84301 0.0
C981 C 0.55081 0.59338 0.85965 0.0
C982 C 0.54273 0.61347 0.87782 0.0
H983 H 0.57637 0.64042 0.82779 0.0
H984 H 0.5468 0.57027 0.85795 0.0
H985 H 0.57948 0.59754 0.75176 0.0
H986 H 0.53422 0.63413 0.74809 0.0
H987 H 0.58146 0.51722 0.91 0.0
H988 H 0.56305 0.67695 0.85977 0.0
H989 H 0.53304 0.60512 0.89091 0.0
C990 C 0.25517 0.62323 0.97571 0.0
C991 C 0.25637 0.63649 1.00326 0.0
N992 N 0.24473 0.62585 0.02042 0.0
N993 N 0.24266 0.60468 0.9754 0.0
C994 C 0.23652 0.6069 1.00293 0.0
H995 H 0.26344 0.6256 0.95772 0.0
Co996 Co 0.23711 0.5761 0.94673 0.0
C997 C 0.2048 0.59598 0.93141 0.0
O998 O 0.20866 0.59561 0.90326 0.0
N999 N 0.23155 0.54586 0.91782 0.0
C1000 C 0.22644 0.52054 0.87595 0.0
C1001 C 0.2293 0.54845 0.88814 0.0
C1002 C 0.23005 0.51572 0.92274 0.0
N1003 N 0.22701 0.49993 0.89777 0.0
O1004 O 0.23521 0.54688 0.97787 0.0
H1005 H 0.23001 0.56915 0.87554 0.0
H1006 H 0.23126 0.5051 0.94418 0.0
O1007 O 0.21491 0.58844 0.95101 0.0
C1008 C 0.24926 0.53807 0.98181 0.0
O1009 O 0.26007 0.54883 0.96394 0.0
N1010 N 0.24157 0.60449 0.91696 0.0
C1011 C 0.25613 0.6455 0.8788 0.0
C1012 C 0.24294 0.65405 0.89541 0.0
C1013 C 0.23593 0.63326 0.91476 0.0
C1014 C 0.25458 0.59621 0.90154 0.0
C1015 C 0.26186 0.61608 0.88203 0.0
H1016 H 0.22654 0.64074 0.92901 0.0
H1017 H 0.25964 0.57413 0.90514 0.0
H1018 H 0.22674 0.59346 0.01053 0.0
H1019 H 0.26575 0.651 0.01077 0.0
H1020 H 0.22468 0.51567 0.85265 0.0
H1021 H 0.23829 0.67673 0.89392 0.0
H1022 H 0.27229 0.60878 0.87048 0.0
C1023 C 0.54332 0.16225 0.97594 0.0
C1024 C 0.54076 0.14858 1.00296 0.0
N1025 N 0.55317 0.15404 0.02067 0.0
N1026 N 0.5573 0.17614 0.97653 0.0
C1027 C 0.56307 0.1705 1.0038 0.0
H1028 H 0.5351 0.16364 0.95776 0.0
Co1029 Co 0.56528 0.20398 0.94959 0.0
C1030 C 0.59887 0.20184 0.96405 0.0
O1031 O 0.5986 0.23109 0.96893 0.0
N1032 N 0.57344 0.23238 0.92266 0.0
C1033 C 0.58715 0.25427 0.88668 0.0
C1034 C 0.58368 0.22733 0.90046 0.0
C1035 C 0.57081 0.26248 0.92181 0.0
N1036 N 0.57907 0.27648 0.90022 0.0
O1037 O 0.56645 0.23302 0.98132 0.0
H1038 H 0.58846 0.20545 0.89486 0.0
H1039 H 0.5633 0.27411 0.93727 0.0
O1040 O 0.58629 0.18832 0.95662 0.0
C1041 C 0.5524 0.24251 0.98352 0.0
O1042 O 0.54221 0.23296 0.96379 0.0
N1043 N 0.56195 0.17662 0.91882 0.0
C1044 C 0.54885 0.13608 0.87849 0.0
C1045 C 0.56118 0.12715 0.8972 0.0
C1046 C 0.56758 0.14783 0.91739 0.0
C1047 C 0.55036 0.18589 0.90028 0.0
C1048 C 0.54371 0.1661 0.87988 0.0
H1049 H 0.57636 0.14026 0.93293 0.0
H1050 H 0.54564 0.20843 0.90251 0.0
H1051 H 0.57401 0.17983 0.01149 0.0
H1052 H 0.5301 0.1373 0.00957 0.0
H1053 H 0.59502 0.25714 0.8681 0.0
H1054 H 0.56557 0.10422 0.89677 0.0
H1055 H 0.53406 0.17391 0.86638 0.0
C1056 C 0.29911 0.40453 0.31444 0.0
C1057 C 0.30706 0.38008 0.30165 0.0
C1058 C 0.29954 0.40971 0.34515 0.0
C1059 C 0.30827 0.39012 0.3636 0.0
C1060 C 0.31676 0.36599 0.35079 0.0
C1061 C 0.31602 0.36119 0.32 0.0
C1062 C 0.29028 0.43566 0.35795 0.0
C1063 C 0.32631 0.34475 0.36969 0.0
C1064 C 0.31762 0.41916 0.44097 0.0
C1065 C 0.30603 0.40505 0.45818 0.0
C1066 C 0.31877 0.41388 0.41032 0.0
C1067 C 0.30797 0.39428 0.39639 0.0
C1068 C 0.29641 0.37959 0.41363 0.0
C1069 C 0.29564 0.38502 0.44429 0.0
C1070 C 0.33132 0.42983 0.39274 0.0
C1071 C 0.2846 0.35868 0.39956 0.0
H1072 H 0.29237 0.4195 0.30042 0.0
H1073 H 0.32205 0.34202 0.3105 0.0
H1074 H 0.28122 0.42684 0.37332 0.0
H1075 H 0.29801 0.4507 0.37104 0.0
H1076 H 0.28444 0.44931 0.3405 0.0
H1077 H 0.33317 0.32853 0.35612 0.0
H1078 H 0.33447 0.35774 0.38395 0.0
H1079 H 0.31849 0.33176 0.38459 0.0
H1080 H 0.32557 0.43503 0.4512 0.0
H1081 H 0.28681 0.37367 0.45738 0.0
H1082 H 0.32589 0.44601 0.37705 0.0
H1083 H 0.33804 0.41329 0.37935 0.0
H1084 H 0.33956 0.44242 0.4072 0.0
H1085 H 0.27754 0.3713 0.38306 0.0
H1086 H 0.27657 0.34848 0.41616 0.0
H1087 H 0.29064 0.34024 0.38749 0.0
C1088 C 0.98432 0.85826 0.44299 0.0
C1089 C 0.99487 0.87544 0.45988 0.0
C1090 C 0.98327 0.86183 0.41209 0.0
C1091 C 0.99317 0.88276 0.3976 0.0
C1092 C 1.00365 0.90054 0.41447 0.0
C1093 C 1.00426 0.89686 0.44537 0.0
C1094 C 0.97179 0.84277 0.39489 0.0
C1095 C 1.01449 0.92296 0.39981 0.0
C1096 C 1.00322 0.87138 0.31626 0.0
C1097 C 0.99425 0.89391 0.3025 0.0
C1098 C 1.00276 0.86713 0.34712 0.0
C1099 C 0.99294 0.8856 0.36469 0.0
C1100 C 0.98345 0.90767 0.35093 0.0
C1101 C 0.98429 0.9117 0.32008 0.0
C1102 C 1.01315 0.84347 0.36102 0.0
C1103 C 0.9727 0.9276 0.36888 0.0
H1104 H 0.97712 0.84138 0.45369 0.0
H1105 H 1.01225 0.91063 0.45815 0.0
H1106 H 0.96438 0.85734 0.38064 0.0
H1107 H 0.97819 0.82709 0.38004 0.0
H1108 H 0.9641 0.82925 0.40967 0.0
H1109 H 1.02189 0.93517 0.41612 0.0
H1110 H 1.02223 0.91108 0.38387 0.0
H1111 H 1.00767 0.93978 0.38699 0.0
H1112 H 1.01076 0.85721 0.30292 0.0
H1113 H 0.97746 0.92946 0.30998 0.0
H1114 H 1.00608 0.8275 0.37443 0.0
H1115 H 1.02158 0.85445 0.3763 0.0
H1116 H 1.0198 0.8304 0.34419 0.0
H1117 H 0.96512 0.94187 0.3546 0.0
H1118 H 0.97969 0.94262 0.38341 0.0
H1119 H 0.96516 0.91361 0.38348 0.0
C1120 C 0.32387 0.87567 0.81531 0.0
C1121 C 0.31032 0.88537 0.80044 0.0
C1122 C 0.32531 0.87834 0.84626 0.0
C1123 C 0.31307 0.89158 0.86281 0.0
C1124 C 0.29967 0.90254 0.84798 0.0
C1125 C 0.29841 0.89913 0.81713 0.0
C1126 C 0.33979 0.86637 0.86133 0.0
C1127 C 0.28645 0.9173 0.86483 0.0
C1128 C 0.30657 0.87352 0.94422 0.0
C1129 C 0.31239 0.89954 0.95807 0.0
C1130 C 0.30734 0.87004 0.91329 0.0
C1131 C 0.31395 0.8933 0.89575 0.0
C1132 C 0.3204 0.9191 0.90967 0.0
C1133 C 0.31959 0.92185 0.94067 0.0
C1134 C 0.30058 0.84193 0.89931 0.0
C1135 C 0.32746 0.9445 0.89176 0.0
H1136 H 0.33336 0.86565 0.80294 0.0
H1137 H 0.28784 0.90671 0.80639 0.0
H1138 H 0.34537 0.88441 0.87471 0.0
H1139 H 0.33655 0.84792 0.87684 0.0
H1140 H 0.34848 0.85753 0.84523 0.0
H1141 H 0.27719 0.92605 0.84987 0.0
H1142 H 0.28111 0.90075 0.8803 0.0
H1143 H 0.29097 0.9363 0.8784 0.0
H1144 H 0.30121 0.85603 0.95761 0.0
H1145 H 0.32402 0.94212 0.9511 0.0
H1146 H 0.30921 0.83148 0.88411 0.0
H1147 H 0.29019 0.84798 0.88585 0.0
H1148 H 0.29702 0.82492 0.91614 0.0
H1149 H 0.33578 0.93557 0.87506 0.0
H1150 H 0.33368 0.96111 0.90597 0.0
H1151 H 0.31808 0.95647 0.87952 0.0
C1152 C 1.00917 0.38485 0.94363 0.0
C1153 C 0.99638 0.37542 0.96085 0.0
C1154 C 1.00781 0.38913 0.91291 0.0
C1155 C 0.99334 0.38349 0.8988 0.0
C1156 C 0.98033 0.37425 0.9159 0.0
C1157 C 0.98197 0.37053 0.94672 0.0
C1158 C 1.02195 0.39925 0.89546 0.0
C1159 C 0.96473 0.36789 0.90159 0.0
C1160 C 0.98819 0.41865 0.82256 0.0
C1161 C 0.99268 0.39484 0.80391 0.0
C1162 C 0.98791 0.41504 0.8535 0.0
C1163 C 0.99204 0.38683 0.86603 0.0
C1164 C 0.99598 0.36236 0.84722 0.0
C1165 C 0.99639 0.36676 0.81637 0.0
C1166 C 0.98389 0.44182 0.87279 0.0
C1167 C 1.00025 0.33181 0.85973 0.0
H1168 H 1.02043 0.38831 0.95392 0.0
H1169 H 0.97193 0.36371 0.95968 0.0
H1170 H 1.02526 0.38155 0.87922 0.0
H1171 H 1.01918 0.41999 0.88269 0.0
H1172 H 0.03217 0.40393 0.90993 0.0
H1173 H 0.9557 0.36122 0.91803 0.0
H1174 H 0.96059 0.38818 0.88948 0.0
H1175 H 0.96598 0.34948 0.88506 0.0
H1176 H 0.98558 0.44052 0.81302 0.0
H1177 H 0.99976 0.34834 0.8019 0.0
H1178 H 0.9943 0.44861 0.88585 0.0
H1179 H 0.97458 0.4357 0.88884 0.0
H1180 H 0.97992 0.46155 0.85957 0.0
H1181 H 1.01126 0.33359 0.87259 0.0
H1182 H 1.00186 0.31458 0.84208 0.0
H1183 H 0.99105 0.32388 0.87523 0.0
C1184 C 0.73948 0.66441 0.68964 0.0
C1185 C 0.75001 0.64757 0.70686 0.0
C1186 C 0.73815 0.65967 0.65895 0.0
C1187 C 0.74772 0.63781 0.64503 0.0
C1188 C 0.75813 0.62029 0.6623 0.0
C1189 C 0.75907 0.62526 0.693 0.0
C1190 C 0.72681 0.67861 0.64131 0.0
C1191 C 0.7686 0.59688 0.64823 0.0
C1192 C 0.73825 0.60795 0.56805 0.0
C1193 C 0.74841 0.62498 0.55018 0.0
C1194 C 0.73759 0.6124 0.59887 0.0
C1195 C 0.74743 0.6342 0.61222 0.0
C1196 C 0.75746 0.65191 0.59429 0.0
C1197 C 0.75776 0.6472 0.56351 0.0
C1198 C 0.72663 0.59328 0.61723 0.0
C1199 C 0.76819 0.6753 0.60771 0.0
H1200 H 0.73258 0.68201 0.69989 0.0
H1201 H 0.76706 0.61184 0.70614 0.0
H1202 H 0.73334 0.69375 0.62609 0.0
H1203 H 0.71927 0.66394 0.62741 0.0
H1204 H 0.71925 0.69271 0.65577 0.0
H1205 H 0.77573 0.58455 0.66489 0.0
H1206 H 0.76153 0.58024 0.63566 0.0
H1207 H 0.7766 0.60794 0.63217 0.0
H1208 H 0.73112 0.59047 0.55816 0.0
H1209 H 0.76545 0.66079 0.54988 0.0
H1210 H 0.71922 0.60788 0.63146 0.0
H1211 H 0.73346 0.5784 0.63218 0.0
H1212 H 0.71894 0.57892 0.60327 0.0
H1213 H 0.76135 0.69195 0.62071 0.0
H1214 H 0.77505 0.68762 0.59063 0.0
H1215 H 0.77644 0.66423 0.62327 0.0
C1216 C 0.06868 0.10896 0.68876 0.0
C1217 C 0.05848 0.12651 0.70605 0.0
C1218 C 0.06945 0.11251 0.65782 0.0
C1219 C 0.05967 0.1339 0.64374 0.0
C1220 C 0.04959 0.15212 0.66105 0.0
C1221 C 0.04921 0.14836 0.69195 0.0
C1222 C 0.08047 0.09289 0.64015 0.0
C1223 C 0.0389 0.17509 0.64685 0.0
C1224 C 0.06773 0.16276 0.56586 0.0
C1225 C 0.05717 0.14571 0.54883 0.0
C1226 C 0.06911 0.15834 0.5966 0.0
C1227 C 0.05954 0.13669 0.61084 0.0
C1228 C 0.0492 0.11878 0.59379 0.0
C1229 C 0.04825 0.12332 0.56301 0.0
C1230 C 0.08047 0.17751 0.61397 0.0
C1231 C 0.03874 0.09553 0.60819 0.0
H1232 H 0.07577 0.09176 0.69918 0.0
H1233 H 0.0415 0.16237 0.70508 0.0
H1234 H 0.07369 0.07756 0.62555 0.0
H1235 H 0.08793 0.10708 0.62561 0.0
H1236 H 0.08811 0.07896 0.65461 0.0
H1237 H 0.03189 0.1877 0.66347 0.0
H1238 H 0.04582 0.19152 0.6337 0.0
H1239 H 0.0308 0.16359 0.63129 0.0
H1240 H 0.07461 0.18031 0.55549 0.0
H1241 H 0.04031 0.10955 0.55013 0.0
H1242 H 0.08795 0.16304 0.62818 0.0
H1243 H 0.07396 0.19297 0.62887 0.0
H1244 H 0.0881 0.19128 0.59931 0.0
H1245 H 0.04579 0.0793 0.62128 0.0
H1246 H 0.03173 0.08272 0.5917 0.0
H1247 H 0.03062 0.10685 0.62384 0.0
C1248 C 0.73343 0.16202 0.18695 0.0
C1249 C 0.74404 0.14531 0.20418 0.0
C1250 C 0.73214 0.15738 0.15623 0.0
C1251 C 0.74186 0.13586 0.14221 0.0
C1252 C 0.75225 0.11828 0.15945 0.0
C1253 C 0.75311 0.12303 0.19021 0.0
C1254 C 0.72071 0.17618 0.13864 0.0
C1255 C 0.76287 0.09517 0.14527 0.0
C1256 C 0.73292 0.10758 0.06441 0.0
C1257 C 0.74303 0.1253 0.04705 0.0
C1258 C 0.73214 0.11121 0.09533 0.0
C1259 C 0.74181 0.13285 0.10932 0.0
C1260 C 0.75181 0.15119 0.09195 0.0
C1261 C 0.75221 0.14734 0.06106 0.0
C1262 C 0.72121 0.09143 0.11307 0.0
C1263 C 0.76238 0.17442 0.10608 0.0
H1264 H 0.72643 0.17948 0.19716 0.0
H1265 H 0.76109 0.10951 0.20323 0.0
H1266 H 0.72717 0.19165 0.12365 0.0
H1267 H 0.71332 0.16144 0.12452 0.0
H1268 H 0.713 0.18992 0.15316 0.0
H1269 H 0.7699 0.08261 0.16191 0.0
H1270 H 0.75593 0.07872 0.13223 0.0
H1271 H 0.77096 0.10658 0.12962 0.0
H1272 H 0.72591 0.09021 0.05405 0.0
H1273 H 0.75985 0.16147 0.04788 0.0
H1274 H 0.71367 0.10553 0.12754 0.0
H1275 H 0.72805 0.0763 0.12773 0.0
H1276 H 0.71363 0.07729 0.09866 0.0
H1277 H 0.75537 0.19082 0.11906 0.0
H1278 H 0.76938 0.18705 0.08942 0.0
H1279 H 0.7705 0.16317 0.12177 0.0
C1280 C 0.06419 0.61463 0.19245 0.0
C1281 C 0.05524 0.63314 0.21119 0.0
C1282 C 0.06454 0.61945 0.16165 0.0
C1283 C 0.05561 0.64317 0.1492 0.0
C1284 C 0.04685 0.66236 0.16798 0.0
C1285 C 0.04683 0.65721 0.19872 0.0
C1286 C 0.07417 0.59869 0.14236 0.0
C1287 C 0.03716 0.6879 0.15553 0.0
C1288 C 0.06449 0.67166 0.07145 0.0
C1289 C 0.05305 0.65686 0.0545 0.0
C1290 C 0.06563 0.66707 0.10219 0.0
C1291 C 0.05501 0.64733 0.11644 0.0
C1292 C 0.04355 0.63206 0.09949 0.0
C1293 C 0.04274 0.63693 0.06875 0.0
C1294 C 0.07804 0.68373 0.11948 0.0
C1295 C 0.03196 0.61091 0.11392 0.0
H1296 H 0.07057 0.59574 0.20165 0.0
H1297 H 0.04008 0.67191 0.213 0.0
H1298 H 0.06638 0.58567 0.12742 0.0
H1299 H 0.08217 0.61208 0.12812 0.0
H1300 H 0.08121 0.58252 0.15563 0.0
H1301 H 0.03134 0.70129 0.1732 0.0
H1302 H 0.04459 0.70325 0.14214 0.0
H1303 H 0.02806 0.67868 0.14052 0.0
H1304 H 0.07236 0.68748 0.0609 0.0
H1305 H 0.034 0.62513 0.05583 0.0
H1306 H 0.08517 0.66752 0.13249 0.0
H1307 H 0.07247 0.69938 0.13552 0.0
H1308 H 0.08593 0.697 0.10486 0.0
H1309 H 0.03822 0.59259 0.12576 0.0
H1310 H 1.02386 0.60055 0.09757 0.0
H1311 H 1.02497 0.62335 0.13066 0.0
C1312 C 0.81698 0.4182 0.93944 0.0
C1313 C 0.80583 0.40357 0.95725 0.0
C1314 C 0.81781 0.41277 0.90879 0.0
C1315 C 0.80716 0.3924 0.89551 0.0
C1316 C 0.79605 0.3772 0.91337 0.0
C1317 C 0.79555 0.3829 0.944 0.0
C1318 C 0.82986 0.42936 0.89051 0.0
C1319 C 0.78443 0.35541 0.90001 0.0
C1320 C 0.79746 0.40109 0.81374 0.0
C1321 C 0.80586 0.3772 0.80097 0.0
C1322 C 0.79797 0.40656 0.8444 0.0
C1323 C 0.80721 0.3878 0.86279 0.0
C1324 C 0.81607 0.36416 0.85 0.0
C1325 C 0.81525 0.35908 0.81928 0.0
C1326 C 0.78832 0.43197 0.85719 0.0
C1327 C 0.82612 0.34377 0.86887 0.0
H1328 H 0.82481 0.43457 0.94925 0.0
H1329 H 0.78705 0.37123 0.9576 0.0
H1330 H 0.83683 0.41308 0.87728 0.0
H1331 H 0.82395 0.44472 0.87465 0.0
H1332 H 0.83793 0.44293 0.90447 0.0
H1333 H 0.77679 0.34489 0.91704 0.0
H1334 H 0.77697 0.36741 0.8837 0.0
H1335 H 0.79064 0.33724 0.88785 0.0
H1336 H 0.79036 0.41544 0.79973 0.0
H1337 H 0.82161 0.34031 0.80979 0.0
H1338 H 0.79589 0.44775 0.8698 0.0
H1339 H 0.7796 0.42271 0.87299 0.0
H1340 H 0.78205 0.44494 0.83978 0.0
H1341 H 0.83426 0.35746 0.88252 0.0
H1342 H 0.83304 0.32764 0.85531 0.0
H1343 H 0.81866 0.33069 0.88436 0.0
C1344 C 0.48432 0.87737 0.94443 0.0
C1345 C 0.49843 0.88071 0.95999 0.0
C1346 C 0.48364 0.88113 0.91353 0.0
C1347 C 0.49735 0.8889 0.89775 0.0
C1348 C 0.51153 0.89319 0.9133 0.0
C1349 C 0.51192 0.88887 0.94414 0.0
C1350 C 0.4683 0.87628 0.89769 0.0
C1351 C 0.52637 0.9018 0.89726 0.0
C1352 C 0.5006 0.87055 0.81559 0.0
C1353 C 0.49718 0.8985 0.8026 0.0
C1354 C 0.50037 0.86694 0.84655 0.0
C1355 C 0.49695 0.89208 0.86488 0.0
C1356 C 0.4935 0.92038 0.85182 0.0
C1357 C 0.49354 0.92317 0.82081 0.0
C1358 C 0.50388 0.83629 0.85966 0.0
C1359 C 0.49012 0.94787 0.87059 0.0
H1360 H 0.47375 0.87165 0.95636 0.0
H1361 H 0.52294 0.8912 0.95564 0.0
H1362 H 0.46503 0.89692 0.8852 0.0
H1363 H 0.46951 0.85772 0.88131 0.0
H1364 H 0.45867 0.87055 0.91323 0.0
H1365 H 0.53626 0.90571 0.91274 0.0
H1366 H 0.5297 0.88362 0.88155 0.0
H1367 H 0.52449 0.92261 0.88402 0.0
H1368 H 0.50337 0.85152 0.80143 0.0
H1369 H 0.49121 0.94495 0.81078 0.0
H1370 H 0.49399 0.8288 0.87379 0.0
H1371 H 0.51435 0.83765 0.8741 0.0
H1372 H 0.50598 0.81891 0.84234 0.0
H1373 H 0.48008 0.94337 0.88552 0.0
H1374 H 0.48744 0.96811 0.85694 0.0
H1375 H 0.50034 0.95301 0.88485 0.0
C1376 C 0.81179 0.92023 0.43642 0.0
C1377 C 0.80756 0.89624 0.45512 0.0
C1378 C 0.81197 0.91675 0.40549 0.0
C1379 C 0.80802 0.88845 0.39294 0.0
C1380 C 0.8041 0.86392 0.41174 0.0
C1381 C 0.80378 0.86821 0.44263 0.0
C1382 C 0.8159 0.94362 0.38624 0.0
C1383 C 0.8 0.83331 0.39918 0.0
C1384 C 0.79212 0.88702 0.31434 0.0
C1385 C 0.80527 0.87838 0.29772 0.0
C1386 C 0.79291 0.89058 0.34523 0.0
C1387 C 0.80716 0.88501 0.36012 0.0
C1388 C 0.8205 0.87633 0.34365 0.0
C1389 C 0.81943 0.87332 0.31266 0.0
C1390 C 0.77844 0.9001 0.36197 0.0
C1391 C 0.83589 0.87008 0.35879 0.0
H1392 H 0.81443 0.94208 0.44599 0.0
H1393 H 0.8006 0.84967 0.45712 0.0
H1394 H 0.8256 0.93794 0.3709 0.0
H1395 H 0.80565 0.94967 0.3724 0.0
H1396 H 0.81931 0.96371 0.39951 0.0
H1397 H 0.79808 0.81618 0.41682 0.0
H1398 H 0.78923 0.83501 0.3856 0.0
H1399 H 0.80946 0.82529 0.38432 0.0
H1400 H 0.78103 0.89051 0.30341 0.0
H1401 H 0.82972 0.86704 0.30019 0.0
H1402 H 0.78082 0.92101 0.37478 0.0
H1403 H 0.77511 0.88234 0.37814 0.0
H1404 H 0.76836 0.90431 0.34701 0.0
H1405 H 0.83988 0.89049 0.37088 0.0
H1406 H 0.84514 0.86326 0.34286 0.0
H1407 H 0.83441 0.85183 0.37544 0.0
C1408 C 0.48479 0.41333 0.31973 0.0
C1409 C 0.49567 0.39783 0.30198 0.0
C1410 C 0.48413 0.40881 0.35054 0.0
C1411 C 0.49477 0.38873 0.36416 0.0
C1412 C 0.50559 0.3726 0.34648 0.0
C1413 C 0.5058 0.37712 0.31564 0.0
C1414 C 0.47226 0.42611 0.3686 0.0
C1415 C 0.51725 0.35119 0.36023 0.0
C1416 C 0.50532 0.40077 0.44514 0.0
C1417 C 0.49707 0.37738 0.45915 0.0
C1418 C 0.50449 0.40497 0.41431 0.0
C1419 C 0.49507 0.38546 0.39703 0.0
C1420 C 0.48634 0.36237 0.41107 0.0
C1421 C 0.48748 0.35854 0.44193 0.0
C1422 C 0.51401 0.42985 0.40015 0.0
C1423 C 0.47604 0.3413 0.39343 0.0
H1424 H 0.477 0.42967 0.30985 0.0
H1425 H 0.51406 0.36458 0.30229 0.0
H1426 H 0.46559 0.41046 0.38309 0.0
H1427 H 0.47833 0.44247 0.38325 0.0
H1428 H 0.4639 0.43872 0.35441 0.0
H1429 H 0.52471 0.33995 0.34335 0.0
H1430 H 0.5249 0.36371 0.37584 0.0
H1431 H 0.51111 0.33355 0.37325 0.0
H1432 H 0.51256 0.4157 0.45829 0.0
H1433 H 0.4812 0.34018 0.45236 0.0
H1434 H 0.5063 0.44522 0.3874 0.0
H1435 H 0.52248 0.41997 0.38422 0.0
H1436 H 0.52055 0.44338 0.41677 0.0
H1437 H 0.46923 0.3258 0.40788 0.0
H1438 H 0.48331 0.32751 0.37821 0.0
H1439 H 0.4678 0.35446 0.37953 0.0
C1440 C 0.23227 0.64829 0.19527 0.0
C1441 C 0.24669 0.64435 0.20963 0.0
C1442 C 0.23087 0.64494 0.16437 0.0
C1443 C 0.24417 0.63706 0.14739 0.0
C1444 C 0.25863 0.63218 0.16175 0.0
C1445 C 0.25974 0.63604 0.19258 0.0
C1446 C 0.21525 0.65039 0.14982 0.0
C1447 C 0.27306 0.62346 0.14445 0.0
C1448 C 0.23952 0.60439 0.06992 0.0
C1449 C 0.24336 0.62927 0.05208 0.0
C1450 C 0.23947 0.60669 0.10099 0.0
C1451 C 0.24313 0.63468 0.1145 0.0
C1452 C 0.24656 0.66011 0.09654 0.0
C1453 C 0.24677 0.657 0.06552 0.0
C1454 C 0.23605 0.57891 0.11932 0.0
C1455 C 0.25037 0.69042 0.11009 0.0
H1456 H 0.22203 0.65417 0.20812 0.0
H1457 H 0.271 0.63328 0.20309 0.0
H1458 H 0.2162 0.66938 0.13386 0.0
H1459 H 0.21164 0.63015 0.13704 0.0
H1460 H 0.20596 0.65581 0.16621 0.0
H1461 H 0.28323 0.61895 0.1591 0.0
H1462 H 0.27073 0.60298 0.13098 0.0
H1463 H 0.27623 0.64186 0.12885 0.0
H1464 H 0.23718 0.58277 0.05959 0.0
H1465 H 0.24967 0.67622 0.05169 0.0
H1466 H 0.22649 0.58357 0.1353 0.0
H1467 H 0.24653 0.57273 0.13246 0.0
H1468 H 0.23269 0.55924 0.1054 0.0
H1469 H 0.24095 0.69736 0.12557 0.0
H1470 H 0.25187 0.70832 0.09305 0.0
H1471 H 0.2613 0.68876 0.12319 0.0
C1472 C 0.56476 0.16435 0.07009 0.0
C1473 C 0.55447 0.14768 0.05209 0.0
C1474 C 0.56551 0.15959 0.10084 0.0
C1475 C 0.55555 0.13802 0.11416 0.0
C1476 C 0.54532 0.12077 0.09624 0.0
C1477 C 0.545 0.12562 0.06545 0.0
C1478 C 0.57675 0.17814 0.11916 0.0
C1479 C 0.53443 0.09766 0.1097 0.0
C1480 C 0.56448 0.10835 0.19146 0.0
C1481 C 0.55454 0.12598 0.20921 0.0
C1482 C 0.56514 0.11236 0.16057 0.0
C1483 C 0.55546 0.13422 0.14697 0.0
C1484 C 0.54554 0.15234 0.16468 0.0
C1485 C 0.5453 0.14818 0.19555 0.0
C1486 C 0.57605 0.09291 0.14245 0.0
C1487 C 0.53497 0.17582 0.15097 0.0
H1488 H 0.57202 0.18175 0.06044 0.0
H1489 H 0.53721 0.11222 0.0519 0.0
H1490 H 0.57015 0.19301 0.13448 0.0
H1491 H 0.58414 0.16313 0.13298 0.0
H1492 H 0.58448 0.19246 0.10519 0.0
H1493 H 0.52735 0.08577 0.09267 0.0
H1494 H 0.54119 0.08064 0.12238 0.0
H1495 H 0.5264 0.10888 0.12557 0.0
H1496 H 0.57152 0.09083 0.20147 0.0
H1497 H 0.53778 0.16229 0.20898 0.0
H1498 H 0.58382 0.10733 0.12874 0.0
H1499 H 0.56921 0.07857 0.12702 0.0
H1500 H 0.58339 0.07802 0.15655 0.0
H1501 H 0.542 0.1926 0.13849 0.0
H1502 H 0.52789 0.18796 0.16783 0.0
H1503 H 0.52694 0.16491 0.13488 0.0
C1504 C 0.25541 0.14921 0.56398 0.0
C1505 C 0.246 0.12714 0.55056 0.0
C1506 C 0.25507 0.15392 0.59477 0.0
C1507 C 0.24491 0.13642 0.61263 0.0
C1508 C 0.235 0.11481 0.5992 0.0
C1509 C 0.23571 0.11031 0.56837 0.0
C1510 C 0.26591 0.17709 0.60826 0.0
C1511 C 0.22391 0.09589 0.61747 0.0
C1512 C 0.2565 0.12742 0.69348 0.0
C1513 C 0.24761 0.15001 0.70731 0.0
C1514 C 0.25549 0.12233 0.6628 0.0
C1515 C 0.24518 0.14003 0.64548 0.0
C1516 C 0.23574 0.16211 0.65938 0.0
C1517 C 0.23713 0.16697 0.69006 0.0
C1518 C 0.26582 0.09865 0.64878 0.0
C1519 C 0.22448 0.18121 0.64171 0.0
H1520 H 0.26319 0.16267 0.55043 0.0
H1521 H 0.22853 0.09294 0.55845 0.0
H1522 H 0.25912 0.19388 0.62118 0.0
H1523 H 0.27405 0.16584 0.6239 0.0
H1524 H 0.27288 0.18924 0.59122 0.0
H1525 H 0.21607 0.08189 0.60344 0.0
H1526 H 0.23064 0.08067 0.63224 0.0
H1527 H 0.21664 0.11059 0.63186 0.0
H1528 H 0.26442 0.11386 0.70662 0.0
H1529 H 0.23034 0.18475 0.70028 0.0
H1530 H 0.2739 0.1095 0.63272 0.0
H1531 H 0.25865 0.08218 0.6362 0.0
H1532 H 0.27286 0.08617 0.66546 0.0
H1533 H 0.23106 0.19611 0.62637 0.0
H1534 H 0.21702 0.19555 0.65615 0.0
H1535 H 0.21683 0.16662 0.62795 0.0
C1536 C 0.56937 0.66128 0.56843 0.0
C1537 C 0.55878 0.64434 0.55138 0.0
C1538 C 0.57071 0.65686 0.59916 0.0
C1539 C 0.56106 0.63532 0.61335 0.0
C1540 C 0.5507 0.61749 0.59628 0.0
C1541 C 0.54979 0.62203 0.56551 0.0
C1542 C 0.5821 0.67595 0.61658 0.0
C1543 C 0.54015 0.59436 0.61066 0.0
C1544 C 0.57 0.60788 0.69141 0.0
C1545 C 0.55982 0.62565 0.70853 0.0
C1546 C 0.57081 0.61124 0.66046 0.0
C1547 C 0.5611 0.63264 0.64624 0.0
C1548 C 0.55104 0.65105 0.66337 0.0
C1549 C 0.55062 0.64749 0.69428 0.0
C1550 C 0.58181 0.59144 0.64295 0.0
C1551 C 0.54043 0.67404 0.64899 0.0
H1552 H 0.5763 0.67878 0.55808 0.0
H1553 H 0.54182 0.60835 0.5526 0.0
H1554 H 0.5756 0.69154 0.63136 0.0
H1555 H 0.58949 0.66143 0.6309 0.0
H1556 H 0.58981 0.68957 0.60193 0.0
H1557 H 0.5332 0.5815 0.59413 0.0
H1558 H 0.54713 0.57817 0.62394 0.0
H1559 H 0.53199 0.60581 0.62614 0.0
H1560 H 0.57703 0.59069 0.70197 0.0
H1561 H 0.54293 0.66165 0.7073 0.0
H1562 H 0.5894 0.60552 0.62855 0.0
H1563 H 0.57503 0.57625 0.62822 0.0
H1564 H 0.58933 0.57736 0.65751 0.0
H1565 H 0.54741 0.69038 0.63586 0.0
H1566 H 0.5334 0.68676 0.66551 0.0
H1567 H 0.53235 0.66255 0.6334 0.0
C1568 C 0.36749 0.36253 0.21844 0.0
C1569 C 0.36238 0.36008 0.18894 0.0
C1570 C 0.3821 0.37562 0.22525 0.0
C1571 C 0.39173 0.38677 0.20206 0.0
C1572 C 0.38663 0.38415 0.17231 0.0
C1573 C 0.37214 0.37078 0.16615 0.0
C1574 C 0.38719 0.37773 0.25723 0.0
C1575 C 0.39638 0.39596 0.14686 0.0
C1576 C 0.42176 0.44892 0.21432 0.0
C1577 C 0.43591 0.43304 0.21222 0.0
C1578 C 0.40731 0.43397 0.21235 0.0
C1579 C 0.40691 0.40223 0.2085 0.0
C1580 C 0.42114 0.38589 0.20768 0.0
C1581 C 0.43546 0.40149 0.20936 0.0
C1582 C 0.39247 0.45238 0.21298 0.0
C1583 C 0.42126 0.35203 0.20392 0.0
H1584 H 0.36008 0.35429 0.23619 0.0
H1585 H 0.36838 0.36911 0.14325 0.0
H1586 H 0.39876 0.36685 0.26008 0.0
H1587 H 0.3885 0.40177 0.26367 0.0
H1588 H 0.37872 0.36684 0.27256 0.0
H1589 H 0.39083 0.3919 0.12494 0.0
H1590 H 0.39828 0.4206 0.1495 0.0
H1591 H 0.40803 0.38502 0.14692 0.0
H1592 H 0.42193 0.47328 0.21657 0.0
H1593 H 0.4463 0.38895 0.20797 0.0
H1594 H 0.38418 0.44297 0.22948 0.0
H1595 H 0.38671 0.45128 0.19095 0.0
H1596 H 0.39469 0.47646 0.21846 0.0
H1597 H 0.41316 0.3413 0.22001 0.0
H1598 H 0.4331 0.34232 0.20702 0.0
H1599 H 0.41711 0.34612 0.18133 0.0
C1600 C 0.93501 0.89705 0.20601 0.0
C1601 C 0.93566 0.9286 0.20891 0.0
C1602 C 0.92059 0.88182 0.20388 0.0
C1603 C 0.90646 0.89851 0.20431 0.0
C1604 C 0.90706 0.93024 0.20811 0.0
C1605 C 0.92159 0.94482 0.21051 0.0
C1606 C 0.9205 0.84796 0.20019 0.0
C1607 C 0.89235 0.94904 0.20833 0.0
C1608 C 0.87152 0.86799 0.16166 0.0
C1609 C 0.86157 0.85782 0.18438 0.0
C1610 C 0.88615 0.88081 0.16792 0.0
C1611 C 0.89118 0.88341 0.19772 0.0
C1612 C 0.88136 0.87273 0.22084 0.0
C1613 C 0.86663 0.8602 0.21392 0.0
C1614 C 0.89609 0.89215 0.14253 0.0
C1615 C 0.88636 0.87481 0.25287 0.0
H1616 H 0.94578 0.88425 0.20496 0.0
H1617 H 0.92191 0.96918 0.21278 0.0
H1618 H 0.91228 0.83747 0.21622 0.0
H1619 H 0.91637 0.8421 0.17758 0.0
H1620 H 0.93227 0.83796 0.20344 0.0
H1621 H 0.8947 0.97312 0.21361 0.0
H1622 H 0.88666 0.94786 0.18623 0.0
H1623 H 0.88392 0.94 0.22479 0.0
H1624 H 0.86781 0.86637 0.13873 0.0
H1625 H 0.85908 0.85238 0.23164 0.0
H1626 H 0.90766 0.88092 0.14287 0.0
H1627 H 0.89814 0.91676 0.14501 0.0
H1628 H 0.8906 0.88804 0.12056 0.0
H1629 H 0.89784 0.86364 0.2559 0.0
H1630 H 0.87776 0.86421 0.26814 0.0
H1631 H 0.88782 0.89884 0.25925 0.0
C1632 C 0.36994 0.91607 0.0436 0.0
C1633 C 0.36481 0.91841 0.07312 0.0
C1634 C 0.38449 0.9028 0.03672 0.0
C1635 C 0.39405 0.89128 0.05982 0.0
C1636 C 0.38894 0.89382 0.08959 0.0
C1637 C 0.37451 0.90742 0.09583 0.0
C1638 C 0.38959 0.90084 0.00472 0.0
C1639 C 0.3986 0.88161 0.11496 0.0
C1640 C 0.42373 0.82864 0.04657 0.0
C1641 C 0.43798 0.84421 0.04861 0.0
C1642 C 0.40936 0.84385 0.04899 0.0
C1643 C 0.40915 0.87554 0.05324 0.0
C1644 C 0.42348 0.89158 0.05407 0.0
C1645 C 0.4377 0.87574 0.05194 0.0
C1646 C 0.39442 0.82573 0.04833 0.0
C1647 C 0.42381 0.92539 0.05821 0.0
H1648 H 0.36259 0.92452 0.02589 0.0
H1649 H 0.37073 0.90898 0.11874 0.0
H1650 H 0.40125 0.91143 1.00197 0.0
H1651 H 0.39072 0.87683 0.99807 0.0
H1652 H 0.38122 0.9121 0.98947 0.0
H1653 H 0.39306 0.88565 0.1369 0.0
H1654 H 0.40033 0.85695 0.11215 0.0
H1655 H 0.41032 0.89228 0.11496 0.0
H1656 H 0.42375 0.80431 0.04398 0.0
H1657 H 0.44862 0.88805 0.05329 0.0
H1658 H 0.38617 0.83539 0.0319 0.0
H1659 H 0.38866 0.82686 0.07038 0.0
H1660 H 0.39648 0.80164 0.04273 0.0
H1661 H 0.4158 0.93647 0.04222 0.0
H1662 H 0.43572 0.93489 0.05525 0.0
H1663 H 0.41966 0.93113 0.08085 0.0
C1664 C 0.93419 0.37292 0.09361 0.0
C1665 C 0.94173 0.35358 0.07355 0.0
C1666 C 0.91904 0.38363 0.08823 0.0
C1667 C 0.91095 0.37432 0.06238 0.0
C1668 C 0.91867 0.35554 0.04149 0.0
C1669 C 0.93406 0.34563 0.04718 0.0
C1670 C 0.91148 0.40411 0.11088 0.0
C1671 C 0.91043 0.34478 0.01386 0.0
C1672 C 0.86735 0.37528 0.07675 0.0
C1673 C 0.86292 0.40311 0.0646 0.0
C1674 C 0.88267 0.36441 0.07382 0.0
C1675 C 0.89404 0.38223 0.05912 0.0
C1676 C 0.88939 0.4096 0.04528 0.0
C1677 C 0.8738 0.41958 0.04792 0.0
C1678 C 0.88692 0.3348 0.08834 0.0
C1679 C 0.90112 0.42952 0.02974 0.0
H1680 H 0.94012 0.37957 0.11383 0.0
H1681 H 0.93983 0.33069 0.0316 0.0
H1682 H 0.90656 0.4244 0.09988 0.0
H1683 H 0.90167 0.39208 0.12183 0.0
H1684 H 0.91982 0.41156 0.12828 0.0
H1685 H 0.91853 0.33333 0.99822 0.0
H1686 H 0.90107 0.32866 0.02013 0.0
H1687 H 0.90478 0.36397 1.00226 0.0
H1688 H 0.85891 0.36244 0.08954 0.0
H1689 H 0.87044 0.44126 0.03875 0.0
H1690 H 0.89402 0.33922 0.10847 0.0
H1691 H 0.89407 0.3208 0.07311 0.0
H1692 H 0.87642 0.32168 0.09499 0.0
H1693 H 0.90861 0.44071 0.04655 0.0
H1694 H 0.89536 0.44727 0.01619 0.0
H1695 H 0.90886 0.41596 0.01519 0.0
C1696 C 0.68949 0.63418 0.83109 0.0
C1697 C 0.6949 0.66025 0.81673 0.0
C1698 C 0.67413 0.62387 0.82729 0.0
C1699 C 0.66367 0.64042 0.80917 0.0
C1700 C 0.66931 0.66587 0.79323 0.0
C1701 C 0.68495 0.67535 0.79698 0.0
C1702 C 0.66882 0.5963 0.84429 0.0
C1703 C 0.65858 0.68432 0.77388 0.0
C1704 C 0.62413 0.60223 0.79629 0.0
C1705 C 0.61561 0.61291 0.82072 0.0
C1706 C 0.63961 0.61202 0.79117 0.0
C1707 C 0.64657 0.63336 0.81063 0.0
C1708 C 0.63757 0.64557 0.83412 0.0
C1709 C 0.62233 0.63501 0.83901 0.0
C1710 C 0.64879 0.59825 0.76603 0.0
C1711 C 0.6443 0.66873 0.85515 0.0
H1712 H 0.69721 0.62223 0.84613 0.0
H1713 H 0.68907 0.69559 0.78594 0.0
H1714 H 0.66082 0.60325 0.86241 0.0
H1715 H 0.66228 0.58074 0.82954 0.0
H1716 H 0.67878 0.58381 0.85425 0.0
H1717 H 0.66515 0.70017 0.7594 0.0
H1718 H 0.65126 0.66945 0.75978 0.0
H1719 H 0.65058 0.69765 0.78815 0.0
H1720 H 0.619 0.58516 0.78207 0.0
H1721 H 0.61573 0.64375 0.85766 0.0
H1722 H 0.65762 0.58246 0.77519 0.0
H1723 H 0.65519 0.61594 0.75351 0.0
H1724 H 0.64118 0.58557 0.75042 0.0
H1725 H 0.65349 0.6581 0.86898 0.0
H1726 H 0.63529 0.6784 0.87014 0.0
H1727 H 0.64984 0.68742 0.84256 0.0
C1728 C 0.12 0.13866 0.83365 0.0
C1729 C 0.11394 0.11445 0.8172 0.0
C1730 C 0.13526 0.1492 0.82911 0.0
C1731 C 0.14495 0.1349 0.80788 0.0
C1732 C 0.13863 0.11151 0.78996 0.0
C1733 C 0.12311 0.10169 0.79467 0.0
C1734 C 0.1413 0.17452 0.84843 0.0
C1735 C 0.14853 0.09557 0.76715 0.0
C1736 C 0.18385 0.17546 0.79525 0.0
C1737 C 0.1931 0.16209 0.8173 0.0
C1738 C 0.16833 0.16572 0.79046 0.0
C1739 C 0.16208 0.14181 0.80783 0.0
C1740 C 0.17185 0.12692 0.82852 0.0
C1741 C 0.18712 0.13738 0.83314 0.0
C1742 C 0.15834 0.18227 0.76823 0.0
C1743 C 0.16589 0.10105 0.84724 0.0
H1744 H 0.11288 0.14899 0.85077 0.0
H1745 H 0.11849 0.08299 0.78187 0.0
H1746 H 0.15004 0.16547 0.86429 0.0
H1747 H 0.14722 0.19189 0.83471 0.0
H1748 H 0.13183 0.18556 0.86132 0.0
H1749 H 0.14136 0.08166 0.75181 0.0
H1750 H 0.15539 0.11207 0.75397 0.0
H1751 H 0.15696 0.08053 0.77859 0.0
H1752 H 0.18841 0.19455 0.78292 0.0
H1753 H 0.1943 0.1266 0.84989 0.0
H1754 H 0.14996 0.197 0.7802 0.0
H1755 H 0.15143 0.16615 0.75473 0.0
H1756 H 0.16545 0.1966 0.75315 0.0
H1757 H 0.15722 0.10964 0.86349 0.0
H1758 H 0.17541 0.08965 0.85966 0.0
H1759 H 0.15991 0.08409 0.83315 0.0
C1760 C 0.6144 0.15365 0.9612 0.0
C1761 C 0.61401 0.1852 0.96425 0.0
C1762 C 0.62867 0.138 0.95881 0.0
C1763 C 0.64294 0.15425 0.95917 0.0
C1764 C 0.64262 0.18596 0.96339 0.0
C1765 C 0.62821 0.20099 0.966 0.0
C1766 C 0.62843 0.10419 0.95466 0.0
C1767 C 0.6575 0.20427 0.96364 0.0
C1768 C 0.68215 0.11311 0.96647 0.0
C1769 C 0.68681 0.11082 0.93667 0.0
C1770 C 0.66782 0.12681 0.97425 0.0
C1771 C 0.65799 0.13871 0.95176 0.0
C1772 C 0.66265 0.13632 0.92171 0.0
C1773 C 0.67688 0.12238 0.91459 0.0
C1774 C 0.66323 0.12868 0.00652 0.0
C1775 C 0.65266 0.14883 0.89695 0.0
H1776 H 0.60353 0.14115 0.96009 0.0
H1777 H 0.62809 0.22534 0.9684 0.0
H1778 H 0.63227 0.09855 0.9318 0.0
H1779 H 0.63671 0.0932 0.97021 0.0
H1780 H 0.6166 0.09449 0.95822 0.0
H1781 H 0.65541 0.22822 0.96979 0.0
H1782 H 0.66602 0.19443 0.97945 0.0
H1783 H 0.66294 0.20367 0.94129 0.0
H1784 H 0.6897 0.10427 0.98371 0.0
H1785 H 0.68028 0.12086 0.89147 0.0
H1786 H 0.65169 0.11779 0.00992 0.0
H1787 H 0.66203 0.15266 0.01323 0.0
H1788 H 0.6719 0.11764 0.02129 0.0
H1789 H 0.64096 0.13809 0.89734 0.0
H1790 H 0.65793 0.14512 0.87471 0.0
H1791 H 0.65093 0.17345 0.90015 0.0
C1792 C 0.11446 0.62523 0.93909 0.0
C1793 C 0.10982 0.65371 0.94941 0.0
C1794 C 0.1299 0.61515 0.9423 0.0
C1795 C 0.14117 0.6343 0.95554 0.0
C1796 C 0.1363 0.66228 0.96786 0.0
C1797 C 0.12061 0.67158 0.96485 0.0
C1798 C 0.13439 0.58494 0.92932 0.0
C1799 C 0.14789 0.6835 0.98201 0.0
C1800 C 0.18189 0.60027 0.96673 0.0
C1801 C 0.18908 0.60762 0.93968 0.0
C1802 C 0.16645 0.60966 0.97292 0.0
C1803 C 0.15815 0.62715 0.95174 0.0
C1804 C 0.16572 0.63578 0.9251 0.0
C1805 C 0.18095 0.62578 0.91937 0.0
C1806 C 0.15881 0.59982 1.00149 0.0
C1807 C 0.1575 0.65475 0.902 0.0
H1808 H 0.10609 0.61127 0.92731 0.0
H1809 H 0.1171 0.69371 0.97266 0.0
H1810 H 0.14121 0.58852 0.90866 0.0
H1811 H 0.1419 0.5722 0.94499 0.0
H1812 H 0.124 0.57096 0.92387 0.0
H1813 H 0.142 0.70152 0.99501 0.0
H1814 H 0.15599 0.67104 0.99679 0.0
H1815 H 0.15502 0.69436 0.96441 0.0
H1816 H 0.18811 0.58632 0.98258 0.0
H1817 H 0.18647 0.63206 0.89861 0.0
H1818 H 0.14963 0.58286 0.99657 0.0
H1819 H 0.15303 0.61924 0.01248 0.0
H1820 H 0.16733 0.58965 0.01717 0.0
H1821 H 0.14765 0.64177 0.89236 0.0
H1822 H 0.16542 0.66163 0.88367 0.0
H1823 H 0.15256 0.67538 0.91231 0.0
C1824 C 0.43723 0.88771 0.68355 0.0
C1825 C 0.44135 0.91592 0.69526 0.0
C1826 C 0.42215 0.87584 0.68727 0.0
C1827 C 0.41067 0.89293 0.70245 0.0
C1828 C 0.41505 0.92068 0.71593 0.0
C1829 C 0.43042 0.93178 0.71236 0.0
C1830 C 0.41822 0.84595 0.67297 0.0
C1831 C 0.40322 0.93979 0.7321 0.0
C1832 C 0.37045 0.88122 0.66895 0.0
C1833 C 0.36339 0.86099 0.68885 0.0
C1834 C 0.38542 0.89297 0.67413 0.0
C1835 C 0.39383 0.884 0.69969 0.0
C1836 C 0.38658 0.8644 0.72052 0.0
C1837 C 0.37135 0.85332 0.71499 0.0
C1838 C 0.39245 0.91417 0.65148 0.0
C1839 C 0.39515 0.85406 0.74792 0.0
H1840 H 0.44571 0.87535 0.67043 0.0
H1841 H 0.43356 0.95371 0.72124 0.0
H1842 H 0.4115 0.8315 0.68851 0.0
H1843 H 0.4108 0.8499 0.65316 0.0
H1844 H 0.42885 0.83352 0.66584 0.0
H1845 H 0.40888 0.95779 0.74549 0.0
H1846 H 0.39536 0.95065 0.7157 0.0
H1847 H 0.39587 0.92568 0.74689 0.0
H1848 H 0.36429 0.88776 0.64894 0.0
H1849 H 0.36596 0.83779 0.73051 0.0
H1850 H 0.40242 0.90295 0.64024 0.0
H1851 H 0.39704 0.93473 0.66252 0.0
H1852 H 0.38388 0.92115 0.6343 0.0
H1853 H 0.40467 0.83841 0.74141 0.0
H1854 H 0.38732 0.84219 0.76375 0.0
H1855 H 0.40064 0.87353 0.75938 0.0
C1856 C 0.93442 0.39104 0.67503 0.0
C1857 C 0.93999 0.41562 0.69155 0.0
C1858 C 0.91927 0.3797 0.67917 0.0
C1859 C 0.90918 0.39367 0.69993 0.0
C1860 C 0.91498 0.41764 0.71777 0.0
C1861 C 0.93041 0.42815 0.71358 0.0
C1862 C 0.91382 0.35374 0.66005 0.0
C1863 C 0.9046 0.43339 0.73993 0.0
C1864 C 0.86717 0.38756 0.67402 0.0
C1865 C 0.86153 0.36306 0.6906 0.0
C1866 C 0.88223 0.39915 0.67855 0.0
C1867 C 0.89218 0.38552 0.69978 0.0
C1868 C 0.88629 0.3617 0.7177 0.0
C1869 C 0.87094 0.35093 0.7131 0.0
C1870 C 0.8878 0.42494 0.6593 0.0
C1871 C 0.8965 0.34631 0.74037 0.0
H1872 H 0.94186 0.38096 0.65826 0.0
H1873 H 0.93467 0.44718 0.72636 0.0
H1874 H 0.90806 0.33623 0.67385 0.0
H1875 H 0.90508 0.362 0.64378 0.0
H1876 H 0.92358 0.34309 0.64763 0.0
H1877 H 0.91136 0.44828 0.75505 0.0
H1878 H 0.89592 0.44739 0.72791 0.0
H1879 H 0.89802 0.41671 0.7534 0.0
H1880 H 0.85986 0.39733 0.65687 0.0
H1881 H 0.86663 0.33196 0.72594 0.0
H1882 H 0.89664 0.41654 0.64329 0.0
H1883 H 0.89346 0.4426 0.67305 0.0
H1884 H 0.8781 0.43545 0.64658 0.0
H1885 H 0.90528 0.33216 0.72879 0.0
H1886 H 0.88963 0.33162 0.75552 0.0
H1887 H 0.90297 0.3632 0.75377 0.0
C1888 C 0.36788 0.37974 0.57897 0.0
C1889 C 0.36257 0.40627 0.56535 0.0
C1890 C 0.38333 0.3698 0.57542 0.0
C1891 C 0.39392 0.38719 0.55833 0.0
C1892 C 0.38836 0.413 0.54294 0.0
C1893 C 0.37267 0.42213 0.54644 0.0
C1894 C 0.38858 0.34184 0.59181 0.0
C1895 C 0.39922 0.4323 0.52464 0.0
C1896 C 0.4349 0.38369 0.59008 0.0
C1897 C 0.44229 0.36264 0.57153 0.0
C1898 C 0.4195 0.39308 0.58488 0.0
C1899 C 0.41106 0.38085 0.56069 0.0
C1900 C 0.41865 0.36053 0.54105 0.0
C1901 C 0.43425 0.3518 0.54658 0.0
C1902 C 0.41206 0.41512 0.60621 0.0
C1903 C 0.41006 0.34686 0.51511 0.0
H1904 H 0.36005 0.36724 0.59339 0.0
H1905 H 0.36863 0.44274 0.53598 0.0
H1906 H 0.39556 0.32706 0.57702 0.0
H1907 H 0.39615 0.34845 0.6107 0.0
H1908 H 0.37856 0.32865 0.60064 0.0
H1909 H 0.39274 0.44831 0.51021 0.0
H1910 H 0.40688 0.44554 0.53966 0.0
H1911 H 0.40689 0.41806 0.51057 0.0
H1912 H 0.44109 0.39257 0.60916 0.0
H1913 H 0.43989 0.33555 0.53215 0.0
H1914 H 0.40271 0.40357 0.61897 0.0
H1915 H 0.40655 0.434 0.59387 0.0
H1916 H 0.42062 0.42467 0.62218 0.0
H1917 H 0.4013 0.33044 0.52342 0.0
H1918 H 0.41808 0.33492 0.49968 0.0
H1919 H 0.40365 0.36451 0.5026 0.0
C1920 C 0.86642 0.90299 0.54834 0.0
C1921 C 0.8658 0.93455 0.54547 0.0
C1922 C 0.88079 0.88772 0.55055 0.0
C1923 C 0.89494 0.90435 0.55019 0.0
C1924 C 0.8944 0.93608 0.54621 0.0
C1925 C 0.87988 0.95074 0.54377 0.0
C1926 C 0.8808 0.85387 0.55449 0.0
C1927 C 0.90915 0.95479 0.54597 0.0
C1928 C 0.9292 0.87311 0.59424 0.0
C1929 C 0.93916 0.86197 0.57199 0.0
C1930 C 0.91485 0.88669 0.58735 0.0
C1931 C 0.91011 0.88916 0.55736 0.0
C1932 C 0.91997 0.87767 0.53469 0.0
C1933 C 0.93441 0.8643 0.54225 0.0
C1934 C 0.90482 0.89874 0.61229 0.0
C1935 C 0.91529 0.87965 0.50248 0.0
H1936 H 0.85564 0.89019 0.54941 0.0
H1937 H 0.87957 0.9751 0.5415 0.0
H1938 H 0.88912 0.84322 0.53877 0.0
H1939 H 0.88474 0.84817 0.57726 0.0
H1940 H 0.86904 0.84389 0.551 0.0
H1941 H 0.90687 0.97874 0.54005 0.0
H1942 H 0.91464 0.95412 0.56826 0.0
H1943 H 0.91769 0.94532 0.52998 0.0
H1944 H 0.93266 0.87153 0.61732 0.0
H1945 H 0.94198 0.85579 0.52489 0.0
H1946 H 0.8932 0.8877 0.61191 0.0
H1947 H 0.90291 0.92333 0.60928 0.0
H1948 H 0.91016 0.89498 0.63445 0.0
H1949 H 0.90382 0.86852 0.49912 0.0
H1950 H 0.92401 0.86893 0.48756 0.0
H1951 H 0.91393 0.90366 0.49594 0.0
C1952 C 0.61762 0.13604 0.33223 0.0
C1953 C 0.61163 0.1117 0.31586 0.0
C1954 C 0.63269 0.14731 0.32712 0.0
C1955 C 0.64229 0.13366 0.30533 0.0
C1956 C 0.63601 0.11016 0.28747 0.0
C1957 C 0.62067 0.09957 0.2928 0.0
C1958 C 0.63866 0.17268 0.34646 0.0
C1959 C 0.6458 0.09493 0.26405 0.0
C1960 C 0.6805 0.17643 0.29182 0.0
C1961 C 0.69012 0.16339 0.31348 0.0
C1962 C 0.66509 0.16585 0.28738 0.0
C1963 C 0.65934 0.14139 0.30465 0.0
C1964 C 0.66953 0.12683 0.32485 0.0
C1965 C 0.68466 0.13816 0.32919 0.0
C1966 C 0.65466 0.18211 0.26569 0.0
C1967 C 0.66414 0.10039 0.34342 0.0
H1968 H 0.6106 0.14588 0.34978 0.0
H1969 H 0.6161 0.08077 0.28007 0.0
H1970 H 0.6477 0.16385 0.36182 0.0
H1971 H 0.64421 0.19047 0.33268 0.0
H1972 H 0.62922 0.18314 0.35989 0.0
H1973 H 0.63859 0.08097 0.24882 0.0
H1974 H 0.65235 0.11185 0.25083 0.0
H1975 H 0.6545 0.08003 0.27494 0.0
H1976 H 0.68467 0.19593 0.27961 0.0
H1977 H 0.69214 0.12768 0.34565 0.0
H1978 H 0.64622 0.19631 0.27811 0.0
H1979 H 0.64782 0.16579 0.25229 0.0
H1980 H 0.66143 0.19693 0.25049 0.0
H1981 H 0.65555 0.1083 0.36016 0.0
H1982 H 0.67396 0.08929 0.35525 0.0
H1983 H 0.65821 0.08334 0.32933 0.0
C1984 C 0.18222 0.67529 0.29498 0.0
C1985 C 0.19112 0.66335 0.31831 0.0
C1986 C 0.16674 0.66532 0.29 0.0
C1987 C 0.16019 0.6426 0.30847 0.0
C1988 C 0.16963 0.62909 0.33059 0.0
C1989 C 0.18484 0.63978 0.33537 0.0
C1990 C 0.15713 0.68041 0.26623 0.0
C1991 C 0.16335 0.60448 0.35055 0.0
C1992 C 0.11778 0.64047 0.3324 0.0
C1993 C 0.11205 0.61506 0.31736 0.0
C1994 C 0.13303 0.65108 0.32777 0.0
C1995 C 0.14305 0.63559 0.30795 0.0
C1996 C 0.13704 0.61096 0.29127 0.0
C1997 C 0.12152 0.6011 0.29601 0.0
C1998 C 0.13871 0.67772 0.34571 0.0
C1999 C 0.14728 0.59373 0.26998 0.0
H2000 H 0.18702 0.69349 0.28171 0.0
H2001 H 0.19175 0.63007 0.35313 0.0
H2002 H 0.1504 0.66345 0.25339 0.0
H2003 H 0.14858 0.69588 0.27678 0.0
H2004 H 0.16449 0.69374 0.2507 0.0
H2005 H 0.17266 0.59397 0.36426 0.0
H2006 H 0.15441 0.61407 0.36567 0.0
H2007 H 0.15763 0.58658 0.33721 0.0
H2008 H 0.11043 0.65164 0.34864 0.0
H2009 H 0.11715 0.58142 0.28435 0.0
H2010 H 0.14486 0.69415 0.33124 0.0
H2011 H 0.14718 0.66984 0.36268 0.0
H2012 H 0.12901 0.68955 0.35723 0.0
H2013 H 0.15434 0.60942 0.25624 0.0
H2014 H 0.14035 0.57889 0.2551 0.0
H2015 H 0.15553 0.57942 0.28274 0.0
C2016 C 0.68267 0.60234 0.4648 0.0
C2017 C 0.69172 0.61513 0.4421 0.0
C2018 C 0.66726 0.61242 0.47004 0.0
C2019 C 0.66093 0.63606 0.45245 0.0
C2020 C 0.67056 0.65046 0.43116 0.0
C2021 C 0.68572 0.63968 0.42612 0.0
C2022 C 0.65743 0.59644 0.49296 0.0
C2023 C 0.66451 0.67603 0.41217 0.0
C2024 C 0.61882 0.63872 0.42718 0.0
C2025 C 0.61289 0.66341 0.44306 0.0
C2026 C 0.63404 0.62814 0.43187 0.0
C2027 C 0.64381 0.64293 0.45264 0.0
C2028 C 0.63759 0.66678 0.47008 0.0
C2029 C 0.6221 0.67662 0.46525 0.0
C2030 C 0.63998 0.60232 0.41308 0.0
C2031 C 0.64758 0.68318 0.49242 0.0
H2032 H 0.68727 0.58339 0.47725 0.0
H2033 H 0.69276 0.65002 0.40888 0.0
H2034 H 0.65055 0.61287 0.50616 0.0
H2035 H 0.64903 0.58126 0.4816 0.0
H2036 H 0.66467 0.58263 0.50826 0.0
H2037 H 0.67397 0.68717 0.39931 0.0
H2038 H 0.65572 0.66718 0.39629 0.0
H2039 H 0.65865 0.69327 0.42612 0.0
H2040 H 0.61164 0.62807 0.41035 0.0
H2041 H 0.61755 0.69569 0.4776 0.0
H2042 H 0.64593 0.58528 0.42712 0.0
H2043 H 0.64866 0.61095 0.39685 0.0
H2044 H 0.63044 0.59099 0.40062 0.0
H2045 H 0.65458 0.667 0.50569 0.0
H2046 H 0.64045 0.69724 0.50771 0.0
H2047 H 0.65589 0.69817 0.48056 0.0
C2048 C 0.18434 0.14129 0.42614 0.0
C2049 C 0.18986 0.11582 0.44137 0.0
C2050 C 0.16915 0.15223 0.43056 0.0
C2051 C 0.15898 0.13701 0.45033 0.0
C2052 C 0.16477 0.11233 0.46718 0.0
C2053 C 0.18023 0.10214 0.46268 0.0
C2054 C 0.16369 0.17893 0.41246 0.0
C2055 C 0.15435 0.09538 0.48841 0.0
C2056 C 0.11994 0.17717 0.46278 0.0
C2057 C 0.11106 0.16522 0.43943 0.0
C2058 C 0.13538 0.16711 0.46789 0.0
C2059 C 0.14189 0.14429 0.44953 0.0
C2060 C 0.13248 0.13082 0.42735 0.0
C2061 C 0.11731 0.1416 0.42244 0.0
C2062 C 0.14499 0.18217 0.4917 0.0
C2063 C 0.13873 0.1061 0.40752 0.0
H2064 H 0.19182 0.15225 0.40996 0.0
H2065 H 0.18444 0.08244 0.47449 0.0
H2066 H 0.15526 0.17115 0.39537 0.0
H2067 H 0.15756 0.19549 0.42678 0.0
H2068 H 0.1735 0.19056 0.40107 0.0
H2069 H 0.16114 0.08046 0.50344 0.0
H2070 H 0.14733 0.11126 0.50199 0.0
H2071 H 0.14607 0.08119 0.47559 0.0
H2072 H 0.11515 0.19539 0.47601 0.0
H2073 H 0.1104 0.13188 0.40468 0.0
H2074 H 0.15365 0.19744 0.48118 0.0
H2075 H 0.15158 0.16516 0.50471 0.0
H2076 H 0.13764 0.19569 0.50708 0.0
H2077 H 0.14778 0.11553 0.39252 0.0
H2078 H 0.12943 0.09569 0.39369 0.0
H2079 H 0.14432 0.08813 0.42098 0.0
C2080 C 0.33946 0.07097 0.14093 0.0
C2081 C 0.32958 0.05888 0.11919 0.0
C2082 C 0.34029 0.10229 0.14569 0.0
C2083 C 0.33068 0.12188 0.12881 0.0
C2084 C 0.32073 0.10972 0.10672 0.0
C2085 C 0.32043 0.0784 0.10197 0.0
C2086 C 0.35134 0.11442 0.16891 0.0
C2087 C 0.31005 0.12969 0.08866 0.0
C2088 C 0.32007 0.19847 0.16114 0.0
C2089 C 0.32925 0.21803 0.14399 0.0
C2090 C 0.32052 0.16712 0.15661 0.0
C2091 C 0.33065 0.15498 0.1348 0.0
C2092 C 0.34032 0.1746 0.11806 0.0
C2093 C 0.33935 0.20594 0.12259 0.0
C2094 C 0.30977 0.14711 0.17451 0.0
C2095 C 0.35156 0.16251 0.09514 0.0
H2096 H 0.3466 0.05583 0.15408 0.0
H2097 H 0.31262 0.06902 0.08545 0.0
H2098 H 0.3591 0.13177 0.15899 0.0
H2099 H 0.34462 0.12556 0.18689 0.0
H2100 H 0.35867 0.09638 0.17886 0.0
H2101 H 0.30314 0.11669 0.07215 0.0
H2102 H 0.30186 0.14174 0.10363 0.0
H2103 H 0.31695 0.14707 0.07673 0.0
H2104 H 0.3121 0.20783 0.17738 0.0
H2105 H 0.34651 0.2211 0.10949 0.0
H2106 H 0.31662 0.12969 0.18648 0.0
H2107 H 0.30163 0.13509 0.15942 0.0
H2108 H 0.30281 0.16006 0.19096 0.0
H2109 H 0.35923 0.14513 0.10524 0.0
H2110 H 0.35899 0.18056 0.08543 0.0
H2111 H 0.34498 0.15143 0.07694 0.0
C2112 C 0.98624 0.0699 0.14879 0.0
C2113 C 0.97351 0.05209 0.1398 0.0
C2114 C 0.98656 0.10116 0.1436 0.0
C2115 C 0.97392 0.11513 0.12874 0.0
C2116 C 0.96118 0.09729 0.11901 0.0
C2117 C 0.9611 0.06606 0.12472 0.0
C2118 C 1.00038 0.11932 0.15438 0.0
C2119 C 0.9475 0.1113 0.103 0.0
C2120 C 0.96842 0.19932 0.14216 0.0
C2121 C 0.97552 0.21202 0.117 0.0
C2122 C 0.96756 0.16786 0.14597 0.0
C2123 C 0.97392 0.1485 0.12406 0.0
C2124 C 0.98079 0.16111 0.09829 0.0
C2125 C 0.98153 0.19265 0.0951 0.0
C2126 C 0.96012 0.15535 0.17378 0.0
C2127 C 0.98771 0.14131 0.07439 0.0
H2128 H 0.99604 0.05943 0.15991 0.0
H2129 H 0.95113 0.05273 0.11792 0.0
H2130 H 1.00592 0.13129 0.13547 0.0
H2131 H 0.99641 0.13676 0.17037 0.0
H2132 H 1.00933 0.10504 0.16539 0.0
H2133 H 0.93879 0.0942 0.09584 0.0
H2134 H 0.94162 0.12785 0.11772 0.0
H2135 H 0.95163 0.12383 0.08316 0.0
H2136 H 0.96357 0.21402 0.159 0.0
H2137 H 0.98727 0.2021 0.0758 0.0
H2138 H 0.96891 0.14242 0.18667 0.0
H2139 H 0.9506 0.13946 0.16789 0.0
H2140 H 0.95526 0.17337 0.18821 0.0
H2141 H 0.99771 0.1284 0.08355 0.0
H2142 H 0.99187 0.15457 0.05499 0.0
H2143 H 0.97894 0.12464 0.06665 0.0
C2144 C 0.71136 0.95223 0.86768 0.0
C2145 C 0.72083 0.96545 0.88948 0.0
C2146 C 0.71133 0.9208 0.86315 0.0
C2147 C 0.72123 0.9022 0.88051 0.0
C2148 C 0.73071 0.91544 0.90273 0.0
C2149 C 0.73032 0.94683 0.90706 0.0
C2150 C 0.70087 0.90753 0.83957 0.0
C2151 C 0.7416 0.89654 0.92144 0.0
C2152 C 0.71419 0.81743 0.88637 0.0
C2153 C 0.72488 0.80606 0.86562 0.0
C2154 C 0.7126 0.84869 0.89097 0.0
C2155 C 0.72212 0.86905 0.87478 0.0
C2156 C 0.73287 0.85767 0.85368 0.0
C2157 C 0.73405 0.82637 0.84924 0.0
C2158 C 0.70081 0.85993 0.9133 0.0
C2159 C 0.74342 0.8785 0.83626 0.0
H2160 H 0.70394 0.96653 0.85421 0.0
H2161 H 0.73786 0.95694 0.92359 0.0
H2162 H 0.70806 0.89678 0.82203 0.0
H2163 H 0.69336 0.88965 0.84931 0.0
H2164 H 0.69327 0.92484 0.82909 0.0
H2165 H 0.74808 0.91028 0.93798 0.0
H2166 H 0.73491 0.87885 0.93338 0.0
H2167 H 0.75017 0.88488 0.90696 0.0
H2168 H 0.70699 0.80182 0.89886 0.0
H2169 H 0.74251 0.81771 0.83352 0.0
H2170 H 0.69277 0.8763 0.90264 0.0
H2171 H 0.70688 0.87201 0.93153 0.0
H2172 H 0.6938 0.84129 0.92305 0.0
H2173 H 0.73636 0.89526 0.82385 0.0
H2174 H 0.75092 0.86609 0.82024 0.0
H2175 H 0.75106 0.89127 0.8517 0.0
C2176 C 0.08815 0.95317 0.88665 0.0
C2177 C 0.07838 0.96675 0.86557 0.0
C2178 C 0.08794 0.92176 0.89122 0.0
C2179 C 0.07759 0.90346 0.87451 0.0
C2180 C 0.06762 0.91707 0.85332 0.0
C2181 C 0.06818 0.94848 0.84902 0.0
C2182 C 0.09888 0.90813 0.91381 0.0
C2183 C 0.0563 0.89847 0.83527 0.0
C2184 C 0.0875 0.81998 0.86768 0.0
C2185 C 0.07816 0.80706 0.88993 0.0
C2186 C 0.08724 0.85119 0.86211 0.0
C2187 C 0.07732 0.87007 0.87906 0.0
C2188 C 0.0675 0.85711 0.90093 0.0
C2189 C 0.06806 0.82582 0.90614 0.0
C2190 C 0.09789 0.86407 0.83856 0.0
C2191 C 0.05669 0.87639 0.91941 0.0
H2192 H 0.09611 0.96713 0.89932 0.0
H2193 H 0.06038 0.95883 0.83309 0.0
H2194 H 0.0921 0.89585 0.93098 0.0
H2195 H 0.10665 0.89144 0.9029 0.0
H2196 H 0.10623 0.92543 0.92494 0.0
H2197 H 0.04891 0.91263 0.82054 0.0
H2198 H 0.0628 0.88205 0.82138 0.0
H2199 H 0.04857 0.88529 0.85021 0.0
H2200 H 0.09518 0.80565 0.85479 0.0
H2201 H 0.06095 0.81629 0.92366 0.0
H2202 H 0.10627 0.88006 0.84884 0.0
H2203 H 0.09099 0.87696 0.82203 0.0
H2204 H 0.1046 0.84626 0.82676 0.0
H2205 H 0.06363 0.89222 0.93319 0.0
H2206 H 0.04916 0.86268 0.93431 0.0
H2207 H 0.0491 0.89024 0.9048 0.0
C2208 C 0.33418 0.70396 0.62398 0.0
C2209 C 0.32499 0.71759 0.646 0.0
C2210 C 0.33445 0.67244 0.6204 0.0
C2211 C 0.32522 0.65396 0.63916 0.0
C2212 C 0.31593 0.66754 0.6615 0.0
C2213 C 0.31598 0.69916 0.66473 0.0
C2214 C 0.34468 0.65892 0.59654 0.0
C2215 C 0.30582 0.64871 0.68178 0.0
C2216 C 0.31659 0.57514 0.60942 0.0
C2217 C 0.32803 0.55771 0.62375 0.0
C2218 C 0.31516 0.60627 0.615 0.0
C2219 C 0.32544 0.62044 0.63535 0.0
C2220 C 0.3366 0.60277 0.65071 0.0
C2221 C 0.33772 0.57169 0.64478 0.0
C2222 C 0.30306 0.62422 0.59821 0.0
C2223 C 0.34778 0.61691 0.67258 0.0
H2224 H 0.3413 0.718 0.60967 0.0
H2225 H 0.30867 0.7095 0.6815 0.0
H2226 H 0.35317 0.64303 0.60662 0.0
H2227 H 0.33743 0.64578 0.58073 0.0
H2228 H 0.35123 0.67637 0.58393 0.0
H2229 H 0.29946 0.66266 0.69835 0.0
H2230 H 0.29716 0.63591 0.66847 0.0
H2231 H 0.31307 0.63194 0.69378 0.0
H2232 H 0.30917 0.56477 0.59287 0.0
H2233 H 0.34644 0.55836 0.65624 0.0
H2234 H 0.30894 0.64031 0.58299 0.0
H2235 H 0.29588 0.63771 0.61384 0.0
H2236 H 0.2952 0.60955 0.58491 0.0
H2237 H 0.35554 0.63305 0.66085 0.0
H2238 H 0.35515 0.59983 0.68396 0.0
H2239 H 0.34126 0.62989 0.68959 0.0
C2240 C 0.98486 0.57895 0.66389 0.0
C2241 C 0.97536 0.55939 0.64738 0.0
C2242 C 0.98427 0.61035 0.65949 0.0
C2243 C 0.97374 0.62253 0.63839 0.0
C2244 C 0.96382 0.60291 0.62225 0.0
C2245 C 0.96485 0.57158 0.62675 0.0
C2246 C 0.99522 0.63042 0.67684 0.0
C2247 C 0.95222 0.61499 0.6 0.0
C2248 C 0.96406 0.70628 0.64441 0.0
C2249 C 0.97348 0.71869 0.62207 0.0
C2250 C 0.96381 0.67498 0.64967 0.0
C2251 C 0.97346 0.6557 0.63253 0.0
C2252 C 0.98298 0.66814 0.6099 0.0
C2253 C 0.98278 0.69943 0.60481 0.0
C2254 C 0.95328 0.66255 0.67361 0.0
C2255 C 0.99361 0.64849 0.5914 0.0
H2256 H 0.99313 0.5696 0.67958 0.0
H2257 H 0.95737 0.55653 0.61422 0.0
H2258 H 1.00314 0.64249 0.66135 0.0
H2259 H 0.9885 0.64779 0.68914 0.0
H2260 H 1.00242 0.6175 0.69294 0.0
H2261 H 0.94479 0.59688 0.59042 0.0
H2262 H 0.94456 0.63204 0.61066 0.0
H2263 H 0.95849 0.62648 0.58164 0.0
H2264 H 0.95679 0.72111 0.65763 0.0
H2265 H 0.99029 0.70895 0.58787 0.0
H2266 H 0.96037 0.65126 0.69096 0.0
H2267 H 0.94534 0.64525 0.6641 0.0
H2268 H 0.94611 0.68042 0.68427 0.0
H2269 H 1.00205 0.63665 0.606 0.0
H2270 H 1.00023 0.66169 0.5746 0.0
H2271 H 0.9867 0.63093 0.57976 0.0
C2272 C 0.73286 0.44884 0.40465 0.0
C2273 C 0.72334 0.46858 0.38834 0.0
C2274 C 0.73274 0.41761 0.39923 0.0
C2275 C 0.72276 0.40568 0.37708 0.0
C2276 C 0.71296 0.42542 0.36079 0.0
C2277 C 0.71344 0.45664 0.3665 0.0
C2278 C 0.74349 0.39745 0.41691 0.0
C2279 C 0.70201 0.41357 0.33727 0.0
C2280 C 0.73334 0.32903 0.34447 0.0
C2281 C 0.72385 0.30946 0.36106 0.0
C2282 C 0.73297 0.3604 0.34918 0.0
C2283 C 0.72274 0.37258 0.37081 0.0
C2284 C 0.71286 0.35299 0.38712 0.0
C2285 C 0.7136 0.32169 0.38216 0.0
C2286 C 0.74381 0.38043 0.33153 0.0
C2287 C 0.70163 0.36507 0.41007 0.0
H2288 H 0.74075 0.4579 0.42119 0.0
H2289 H 0.70597 0.47175 0.35402 0.0
H2290 H 0.73663 0.37984 0.4286 0.0
H2291 H 0.75168 0.38569 0.40174 0.0
H2292 H 0.7504 0.41023 0.43359 0.0
H2293 H 0.69487 0.43177 0.32709 0.0
H2294 H 0.70877 0.40219 0.3195 0.0
H2295 H 0.69404 0.39645 0.34701 0.0
H2296 H 0.74143 0.31974 0.32842 0.0
H2297 H 0.70612 0.3067 0.39478 0.0
H2298 H 0.75205 0.39203 0.34675 0.0
H2299 H 0.73705 0.3982 0.31987 0.0
H2300 H 0.75067 0.36757 0.31485 0.0
H2301 H 0.70822 0.37624 0.4282 0.0
H2302 H 0.69424 0.34701 0.41987 0.0
H2303 H 0.69392 0.38237 0.39997 0.0
C2304 C 0.06748 0.32875 0.4084 0.0
C2305 C 0.07667 0.30925 0.39115 0.0
C2306 C 0.06791 0.36018 0.40402 0.0
C2307 C 0.07787 0.37252 0.38202 0.0
C2308 C 0.08739 0.35299 0.36491 0.0
C2309 C 0.08661 0.32162 0.36957 0.0
C2310 C 0.05745 0.38013 0.42256 0.0
C2311 C 0.09832 0.36523 0.34152 0.0
C2312 C 0.06794 0.45014 0.35082 0.0
C2313 C 0.07785 0.46909 0.36721 0.0
C2314 C 0.06789 0.41872 0.35529 0.0
C2315 C 0.07809 0.4058 0.37653 0.0
C2316 C 0.08831 0.42475 0.39281 0.0
C2317 C 0.08801 0.45614 0.38806 0.0
C2318 C 0.05671 0.39941 0.33764 0.0
C2319 C 0.0995 0.41187 0.41537 0.0
H2320 H 0.0596 0.31938 0.4248 0.0
H2321 H 0.09386 0.30672 0.35641 0.0
H2322 H 0.06453 0.39729 0.43442 0.0
H2323 H 0.0492 0.39247 0.40795 0.0
H2324 H 0.05061 0.36709 0.43915 0.0
H2325 H 0.10533 0.34715 0.33079 0.0
H2326 H 0.09155 0.37717 0.32413 0.0
H2327 H 0.10642 0.38193 0.35154 0.0
H2328 H 0.05988 0.45995 0.33501 0.0
H2329 H 0.09581 0.47059 0.40056 0.0
H2330 H 0.04858 0.38758 0.35291 0.0
H2331 H 0.06323 0.38183 0.32524 0.0
H2332 H 0.04974 0.41286 0.32159 0.0
H2333 H 0.0929 0.40029 0.43325 0.0
H2334 H 0.107 0.42952 0.42556 0.0
H2335 H 0.10712 0.39472 0.40475 0.0
C2336 C 0.84102 0.07029 0.63057 0.0
C2337 C 0.82861 0.05687 0.61495 0.0
C2338 C 0.84125 0.10147 0.63648 0.0
C2339 C 0.82885 0.11993 0.62635 0.0
C2340 C 0.81628 0.10662 0.61066 0.0
C2341 C 0.81628 0.07534 0.60529 0.0
C2342 C 0.85484 0.11472 0.65342 0.0
C2343 C 0.80285 0.12548 0.59939 0.0
C2344 C 0.82186 0.1967 0.66218 0.0
C2345 C 0.82869 0.21654 0.64154 0.0
C2346 C 0.82204 0.16527 0.65776 0.0
C2347 C 0.82908 0.1532 0.63193 0.0
C2348 C 0.83614 0.17298 0.61116 0.0
C2349 C 0.83591 0.20431 0.61627 0.0
C2350 C 0.81442 0.14503 0.68054 0.0
C2351 C 0.84378 0.16106 0.58332 0.0
H2352 H 0.85073 0.05655 0.63784 0.0
H2353 H 0.8065 0.06537 0.59365 0.0
H2354 H 0.86097 0.13162 0.63946 0.0
H2355 H 0.85055 0.12666 0.67347 0.0
H2356 H 0.86338 0.09724 0.6604 0.0
H2357 H 0.794 0.11176 0.58742 0.0
H2358 H 0.79704 0.1371 0.61821 0.0
H2359 H 0.80726 0.14323 0.58416 0.0
H2360 H 0.816 0.20568 0.68153 0.0
H2361 H 0.8414 0.21926 0.60036 0.0
H2362 H 0.8228 0.12757 0.68815 0.0
H2363 H 0.80437 0.13307 0.6704 0.0
H2364 H 0.81019 0.15779 0.70019 0.0
H2365 H 0.85314 0.14482 0.58916 0.0
H2366 H 0.84891 0.17936 0.56954 0.0
H2367 H 0.83506 0.14867 0.56977 0.0
C2368 C 0.46576 0.07319 0.62628 0.0
C2369 C 0.47623 0.06039 0.64663 0.0
C2370 C 0.46517 0.10458 0.62178 0.0
C2371 C 0.47548 0.12365 0.63771 0.0
C2372 C 0.48597 0.11088 0.65851 0.0
C2373 C 0.48616 0.07944 0.66284 0.0
C2374 C 0.45365 0.11731 0.59974 0.0
C2375 C 0.49728 0.13034 0.6757 0.0
C2376 C 0.48545 0.20025 0.60438 0.0
C2377 C 0.47639 0.21991 0.62169 0.0
C2378 C 0.48524 0.16894 0.60932 0.0
C2379 C 0.47561 0.15685 0.63197 0.0
C2380 C 0.46626 0.17653 0.64926 0.0
C2381 C 0.46685 0.20783 0.64404 0.0
C2382 C 0.49553 0.14884 0.59059 0.0
C2383 C 0.45567 0.16453 0.67332 0.0
H2384 H 0.45795 0.05859 0.61396 0.0
H2385 H 0.49442 0.06968 0.67829 0.0
H2386 H 0.44623 0.13463 0.6106 0.0
H2387 H 0.45999 0.12863 0.58138 0.0
H2388 H 0.44596 0.0996 0.59016 0.0
H2389 H 0.50439 0.11702 0.69163 0.0
H2390 H 0.50528 0.14204 0.66008 0.0
H2391 H 0.49087 0.14802 0.68815 0.0
H2392 H 0.49306 0.20944 0.58742 0.0
H2393 H 0.45974 0.22291 0.6573 0.0
H2394 H 0.48834 0.13164 0.57904 0.0
H2395 H 0.50389 0.13657 0.60501 0.0
H2396 H 0.50223 0.16176 0.5737 0.0
H2397 H 0.44742 0.14776 0.66384 0.0
H2398 H 0.44883 0.18271 0.68425 0.0
H2399 H 0.46268 0.1527 0.69044 0.0
C2400 C 0.23392 0.82789 0.34836 0.0
C2401 C 0.22466 0.80829 0.3654 0.0
C2402 C 0.23334 0.85934 0.35263 0.0
C2403 C 0.22315 0.87159 0.37429 0.0
C2404 C 0.21352 0.85196 0.39109 0.0
C2405 C 0.21446 0.82059 0.38656 0.0
C2406 C 0.24393 0.87939 0.33445 0.0
C2407 C 0.20234 0.86407 0.41409 0.0
C2408 C 0.2327 0.94882 0.40678 0.0
C2409 C 0.22288 0.96795 0.39042 0.0
C2410 C 0.23289 0.9175 0.40178 0.0
C2411 C 0.22291 0.90483 0.38 0.0
C2412 C 0.21283 0.92396 0.36363 0.0
C2413 C 0.213 0.95528 0.36891 0.0
C2414 C 0.24394 0.89802 0.41954 0.0
C2415 C 0.20188 0.91134 0.34051 0.0
H2416 H 0.24199 0.81858 0.33227 0.0
H2417 H 0.20715 0.80561 0.39954 0.0
H2418 H 0.23697 0.89671 0.3226 0.0
H2419 H 0.25214 0.89152 0.34933 0.0
H2420 H 0.25083 0.86645 0.31788 0.0
H2421 H 0.19517 0.84595 0.42437 0.0
H2422 H 0.20894 0.8758 0.43187 0.0
H2423 H 0.19441 0.88093 0.40388 0.0
H2424 H 0.24057 0.95842 0.42306 0.0
H2425 H 0.20531 0.9699 0.35638 0.0
H2426 H 0.25211 0.88619 0.40437 0.0
H2427 H 0.23731 0.88046 0.43176 0.0
H2428 H 0.25087 0.91134 0.43577 0.0
H2429 H 0.20866 0.89984 0.32283 0.0
H2430 H 0.19454 0.92913 0.33013 0.0
H2431 H 0.1941 0.89417 0.35069 0.0
C2432 C 0.58881 0.95429 0.38881 0.0
C2433 C 0.57869 0.96661 0.36754 0.0
C2434 C 0.58943 0.92298 0.39383 0.0
C2435 C 0.57957 0.90348 0.37741 0.0
C2436 C 0.56943 0.91575 0.35571 0.0
C2437 C 0.56915 0.94711 0.35097 0.0
C2438 C 0.60056 0.91078 0.41689 0.0
C2439 C 0.55861 0.89582 0.33791 0.0
C2440 C 0.58878 0.81954 0.37178 0.0
C2441 C 0.57871 0.80719 0.39314 0.0
C2442 C 0.5894 0.85086 0.3668 0.0
C2443 C 0.57958 0.87032 0.38334 0.0
C2444 C 0.56949 0.85801 0.40514 0.0
C2445 C 0.56923 0.82664 0.40985 0.0
C2446 C 0.60047 0.8631 0.34364 0.0
C2447 C 0.55871 0.8779 0.42306 0.0
H2448 H 0.59631 0.96921 0.40145 0.0
H2449 H 0.56112 0.95644 0.33484 0.0
H2450 H 0.5939 0.89931 0.43476 0.0
H2451 H 0.60838 0.89368 0.40675 0.0
H2452 H 0.60784 0.92881 0.42701 0.0
H2453 H 0.55169 0.9088 0.32141 0.0
H2454 H 0.56541 0.87829 0.326 0.0
H2455 H 0.55043 0.88394 0.35303 0.0
H2456 H 0.59625 0.80465 0.35904 0.0
H2457 H 0.56125 0.81726 0.42607 0.0
H2458 H 0.60831 0.88022 0.35371 0.0
H2459 H 0.59378 0.87456 0.32583 0.0
H2460 H 0.60774 0.8451 0.33345 0.0
H2461 H 0.56554 0.89544 0.43491 0.0
H2462 H 0.55183 0.86489 0.43962 0.0
H2463 H 0.55049 0.88977 0.40803 0.0
C2464 C 0.81817 0.57333 0.10693 0.0
C2465 C 0.83007 0.55641 0.12048 0.0
C2466 C 0.81673 0.60452 0.11202 0.0
C2467 C 0.82748 0.61928 0.131 0.0
C2468 C 0.83921 0.60222 0.14544 0.0
C2469 C 0.84031 0.57104 0.14011 0.0
C2470 C 0.804 0.62185 0.09629 0.0
C2471 C 0.85092 0.61706 0.1658 0.0
C2472 C 0.83447 0.70319 0.11818 0.0
C2473 C 0.82576 0.71629 0.14115 0.0
C2474 C 0.83523 0.67167 0.11481 0.0
C2475 C 0.82692 0.65276 0.13468 0.0
C2476 C 0.81812 0.66585 0.15797 0.0
C2477 C 0.8177 0.69743 0.16099 0.0
C2478 C 0.84494 0.65862 0.08994 0.0
C2479 C 0.80893 0.64655 0.1794 0.0
H2480 H 0.81033 0.56251 0.0914 0.0
H2481 H 0.8494 0.55811 0.15096 0.0
H2482 H 0.7971 0.63513 0.11252 0.0
H2483 H 0.80928 0.63809 0.08044 0.0
H2484 H 0.79596 0.60677 0.08384 0.0
H2485 H 0.85894 0.60046 0.17624 0.0
H2486 H 0.858 0.63362 0.1531 0.0
H2487 H 0.84481 0.6297 0.18359 0.0
H2488 H 0.84081 0.71765 0.10298 0.0
H2489 H 0.81072 0.7074 0.17847 0.0
H2490 H 0.83743 0.64512 0.07489 0.0
H2491 H 0.85391 0.64315 0.09913 0.0
H2492 H 0.8509 0.67638 0.07669 0.0
H2493 H 0.79994 0.63352 0.16714 0.0
H2494 H 0.80305 0.6602 0.1968 0.0
H2495 H 0.81675 0.62998 0.19035 0.0
C2496 C 0.45983 0.57254 0.1299 0.0
C2497 C 0.47284 0.55789 0.14224 0.0
C2498 C 0.46002 0.60376 0.12424 0.0
C2499 C 0.47354 0.62086 0.13103 0.0
C2500 C 0.48676 0.6062 0.14318 0.0
C2501 C 0.48625 0.57496 0.14859 0.0
C2502 C 0.44566 0.61854 0.11133 0.0
C2503 C 0.50144 0.62354 0.15059 0.0
C2504 C 0.47884 0.69699 0.09304 0.0
C2505 C 0.47398 0.71725 0.1152 0.0
C2506 C 0.47886 0.66565 0.09794 0.0
C2507 C 0.4738 0.65412 0.12563 0.0
C2508 C 0.46891 0.67436 0.14813 0.0
C2509 C 0.46908 0.70563 0.14266 0.0
C2510 C 0.48418 0.64489 0.07335 0.0
C2511 C 0.46348 0.66298 0.17799 0.0
H2512 H 0.44935 0.55971 0.12526 0.0
H2513 H 0.49646 0.56387 0.15765 0.0
H2514 H 0.44117 0.6359 0.1269 0.0
H2515 H 0.44866 0.63024 0.09032 0.0
H2516 H 0.43618 0.60203 0.10681 0.0
H2517 H 0.51073 0.6088 0.15984 0.0
H2518 H 0.50601 0.63483 0.13038 0.0
H2519 H 0.49877 0.6415 0.16699 0.0
H2520 H 0.48239 0.70553 0.07157 0.0
H2521 H 0.46549 0.721 0.16004 0.0
H2522 H 0.47448 0.62964 0.06684 0.0
H2523 H 0.49391 0.63045 0.08125 0.0
H2524 H 0.48815 0.65747 0.05339 0.0
H2525 H 0.45334 0.64766 0.17512 0.0
H2526 H 0.46005 0.68164 0.19312 0.0
H2527 H 0.47291 0.64972 0.18871 0.0
C2528 C 0.21562 0.32025 0.89079 0.0
C2529 C 0.22589 0.3081 0.86967 0.0
C2530 C 0.21507 0.35152 0.89614 0.0
C2531 C 0.22519 0.37108 0.88031 0.0
C2532 C 0.2356 0.3589 0.85902 0.0
C2533 C 0.23576 0.32764 0.85386 0.0
C2534 C 0.20363 0.36365 0.91868 0.0
C2535 C 0.24674 0.37885 0.84192 0.0
C2536 C 0.21614 0.45489 0.87289 0.0
C2537 C 0.2259 0.46756 0.89457 0.0
C2538 C 0.21548 0.42349 0.86855 0.0
C2539 C 0.22498 0.40427 0.88602 0.0
C2540 C 0.23471 0.41692 0.90821 0.0
C2541 C 0.23498 0.44837 0.91233 0.0
C2542 C 0.20477 0.41091 0.84499 0.0
C2543 C 0.24517 0.39729 0.92707 0.0
H2544 H 0.2079 0.30525 0.90287 0.0
H2545 H 0.24391 0.31837 0.8379 0.0
H2546 H 0.21001 0.37545 0.9367 0.0
H2547 H 0.19582 0.38047 0.90808 0.0
H2548 H 0.19635 0.34554 0.92868 0.0
H2549 H 0.25407 0.36584 0.82609 0.0
H2550 H 0.24013 0.39615 0.82931 0.0
H2551 H 0.25452 0.39101 0.85756 0.0
H2552 H 0.20898 0.46961 0.85937 0.0
H2553 H 0.24269 0.45805 0.92884 0.0
H2554 H 0.1969 0.39367 0.85478 0.0
H2555 H 0.21176 0.39954 0.82752 0.0
H2556 H 0.19754 0.42872 0.83438 0.0
H2557 H 0.23818 0.37967 0.93847 0.0
H2558 H 0.25162 0.41051 0.94407 0.0
H2559 H 0.25376 0.38552 0.91272 0.0
C2560 C 0.56738 0.3276 0.90296 0.0
C2561 C 0.57961 0.30855 0.89396 0.0
C2562 C 0.56795 0.35889 0.89786 0.0
C2563 C 0.58099 0.37157 0.88308 0.0
C2564 C 0.59329 0.35252 0.87358 0.0
C2565 C 0.59248 0.32134 0.87923 0.0
C2566 C 0.5546 0.3784 0.90842 0.0
C2567 C 0.60735 0.36514 0.85758 0.0
C2568 C 0.57532 0.44869 0.84744 0.0
C2569 C 0.58194 0.46814 0.86865 0.0
C2570 C 0.57522 0.41725 0.85156 0.0
C2571 C 0.58175 0.40478 0.87768 0.0
C2572 C 0.58863 0.42415 0.899 0.0
C2573 C 0.5887 0.45552 0.89419 0.0
C2574 C 0.56781 0.39743 0.82819 0.0
C2575 C 0.59569 0.41175 0.92718 0.0
H2576 H 0.55724 0.31811 0.91387 0.0
H2577 H 0.6021 0.30708 0.87248 0.0
H2578 H 0.559 0.39588 0.92396 0.0
H2579 H 0.54926 0.39036 0.88932 0.0
H2580 H 0.54537 0.36511 0.91984 0.0
H2581 H 0.61577 0.34726 0.85107 0.0
H2582 H 0.60359 0.37738 0.83732 0.0
H2583 H 0.61345 0.38167 0.87198 0.0
H2584 H 0.5698 0.45799 0.82788 0.0
H2585 H 0.594 0.47019 0.91054 0.0
H2586 H 0.55746 0.38581 0.83764 0.0
H2587 H 0.57614 0.3797 0.821 0.0
H2588 H 0.56405 0.41047 0.80837 0.0
H2589 H 0.5866 0.39981 0.94025 0.0
H2590 H 0.60088 0.42974 0.94126 0.0
H2591 H 0.6049 0.39502 0.92178 0.0
C2592 C 0.28306 0.15968 0.35701 0.0
C2593 C 0.26698 0.16407 0.36159 0.0
C2594 C 0.29166 0.17875 0.33819 0.0
C2595 C 0.28405 0.20302 0.32381 0.0
C2596 C 0.268 0.2084 0.32935 0.0
C2597 C 0.25965 0.1888 0.34803 0.0
C2598 C 0.30873 0.17224 0.33283 0.0
C2599 C 0.25947 0.23418 0.31458 0.0
C2600 C 0.30588 0.26687 0.28522 0.0
C2601 C 0.30373 0.2589 0.25545 0.0
C2602 C 0.30013 0.24825 0.30806 0.0
C2603 C 0.29234 0.22096 0.30071 0.0
C2604 C 0.29124 0.21196 0.27062 0.0
C2605 C 0.29677 0.23126 0.24836 0.0
C2606 C 0.30142 0.25881 0.33981 0.0
C2607 C 0.28334 0.18281 0.26177 0.0
H2608 H 0.28895 0.14112 0.36797 0.0
H2609 H 0.24724 0.19234 0.35125 0.0
H2610 H 0.31045 0.1651 0.30945 0.0
H2611 H 0.3158 0.19293 0.3363 0.0
H2612 H 0.31323 0.15414 0.34761 0.0
H2613 H 0.24743 0.237 0.3233 0.0
H2614 H 0.26595 0.25563 0.31785 0.0
H2615 H 0.25878 0.23005 0.29033 0.0
H2616 H 0.31105 0.28857 0.29054 0.0
H2617 H 0.2951 0.22527 0.22523 0.0
H2618 H 0.30558 0.24024 0.35432 0.0
H2619 H 0.28972 0.26566 0.34794 0.0
H2620 H 0.30947 0.27838 0.3421 0.0
H2621 H 0.28808 0.16367 0.27485 0.0
H2622 H 0.28485 0.17774 0.23779 0.0
H2623 H 0.27066 0.18429 0.2666 0.0
C2624 C 0.0423 0.0845 0.34733 0.0
C2625 C 0.03471 0.10816 0.36215 0.0
C2626 C 0.03393 0.06431 0.32927 0.0
C2627 C 1.01759 0.06798 0.32575 0.0
C2628 C 1.00977 0.09106 0.34153 0.0
C2629 C 1.0184 0.11073 0.35965 0.0
C2630 C 0.04269 0.03979 0.313 0.0
C2631 C 0.99239 0.09574 0.33835 0.0
C2632 C 1.00288 0.0401 0.25144 0.0
C2633 C 0.99682 1.01176 0.25881 0.0
C2634 C 1.00881 0.05936 0.27335 0.0
C2635 C 1.00906 0.04961 0.3033 0.0
C2636 C 1.00223 0.02147 0.31102 0.0
C2637 C 0.99607 1.00287 0.28857 0.0
C2638 C 1.01568 0.08937 0.26415 0.0
C2639 C 1.00239 1.01009 0.34259 0.0
H2640 H 0.05487 0.08233 0.34903 0.0
H2641 H 1.01234 0.1284 0.37164 0.0
H2642 H 0.03695 0.01761 0.31656 0.0
H2643 H 0.04248 0.04445 0.28881 0.0
H2644 H 0.05506 0.03814 0.32025 0.0
H2645 H 0.98786 0.11305 0.35399 0.0
H2646 H 0.9897 0.10308 0.31537 0.0
H2647 H 0.98606 0.07424 0.34224 0.0
H2648 H 1.00359 0.04666 0.22827 0.0
H2649 H 0.9917 0.98056 0.29403 0.0
H2650 H 0.02853 0.08891 0.26723 0.0
H2651 H 1.011 0.10778 0.27828 0.0
H2652 H 1.01317 0.09481 0.24055 0.0
H2653 H 1.01453 1.00416 0.34895 0.0
H2654 H 0.99494 0.98974 0.34549 0.0
H2655 H 0.99835 0.0279 0.35809 0.0
C2656 C 0.30797 1.01083 0.97622 0.0
C2657 C 0.30557 0.01849 0.00599 0.0
C2658 C 0.30221 0.02939 0.95335 0.0
C2659 C 0.29416 0.05639 0.96065 0.0
C2660 C 0.29274 0.0651 0.99078 0.0
C2661 C 0.29826 0.04581 0.01307 0.0
C2662 C 0.30379 0.01906 0.92159 0.0
C2663 C 0.2846 0.094 0.99958 0.0
C2664 C 0.28577 0.11737 0.90344 0.0
C2665 C 0.26978 0.11289 0.89783 0.0
C2666 C 0.294 0.09863 0.92313 0.0
C2667 C 0.28615 0.07449 0.93728 0.0
C2668 C 0.27021 0.06901 0.93077 0.0
C2669 C 0.2622 0.08835 0.9113 0.0
C2670 C 0.31096 0.10529 0.92954 0.0
C2671 C 0.26145 0.04328 0.94518 0.0
H2672 H 0.31337 0.98939 0.97089 0.0
H2673 H 0.29637 0.05156 0.0362 0.0
H2674 H 0.2922 1.01183 0.91319 0.0
H2675 H 0.30788 0.03781 0.90724 0.0
H2676 H 0.31201 0.99981 0.91942 0.0
H2677 H 0.28586 0.09891 0.02365 0.0
H2678 H 0.28936 0.11333 0.98679 0.0
H2679 H 0.27197 0.09227 0.99433 0.0
H2680 H 0.29188 0.13573 0.89259 0.0
H2681 H 0.24986 0.08473 0.90733 0.0
H2682 H 0.31815 0.08477 0.926 0.0
H2683 H 0.31231 0.11191 0.95315 0.0
H2684 H 0.31563 0.12375 0.91539 0.0
H2685 H 0.26794 0.02181 0.94222 0.0
H2686 H 0.24952 0.04047 0.93589 0.0
H2687 H 0.26043 0.04742 0.96938 0.0
C2688 C 1.02088 0.15854 0.90209 0.0
C2689 C 0.03698 0.16267 0.89738 0.0
C2690 C 1.01252 0.17713 0.9217 0.0
C2691 C 1.02038 0.20069 0.93673 0.0
C2692 C 0.03644 0.20584 0.93112 0.0
C2693 C 0.04456 0.1867 0.91165 0.0
C2694 C 0.99543 0.17086 0.92714 0.0
C2695 C 0.04522 0.2309 0.94656 0.0
C2696 C 0.99896 0.26387 0.97702 0.0
C2697 C 1.00108 0.25507 0.00658 0.0
C2698 C 1.00464 0.24581 0.95371 0.0
C2699 C 1.01228 0.21821 0.96036 0.0
C2700 C 1.01336 0.20839 0.99021 0.0
C2701 C 1.00795 0.22719 0.01297 0.0
C2702 C 1.0034 0.25724 0.92224 0.0
C2703 C 1.02107 0.17884 0.99829 0.0
H2704 H 1.0148 0.14055 0.8906 0.0
H2705 H 0.05698 0.19002 0.90835 0.0
H2706 H 0.99374 0.16325 0.95039 0.0
H2707 H 0.98848 0.19178 0.92421 0.0
H2708 H 0.99075 0.15321 0.91205 0.0
H2709 H 0.05727 0.23366 0.9378 0.0
H2710 H 0.03891 0.25263 0.94399 0.0
H2711 H 0.04595 0.226 0.97067 0.0
H2712 H 0.99387 0.28576 0.97225 0.0
H2713 H 1.00958 0.22056 0.03594 0.0
H2714 H 0.99905 0.2392 0.9073 0.0
H2715 H 1.01516 0.26391 0.9142 0.0
H2716 H 0.99554 0.27712 0.92046 0.0
H2717 H 1.01628 0.16019 0.9846 0.0
H2718 H 1.01945 0.17306 0.02209 0.0
H2719 H 0.03378 0.18026 0.99367 0.0
C2720 C 0.75899 0.79452 0.75926 0.0
C2721 C 0.75294 0.76597 0.75261 0.0
C2722 C 0.7651 0.81312 0.73692 0.0
C2723 C 0.76557 0.80249 0.70728 0.0
C2724 C 0.75882 0.77409 0.70025 0.0
C2725 C 0.75245 0.75619 0.72309 0.0
C2726 C 0.7718 0.84348 0.74537 0.0
C2727 C 0.75922 0.76175 0.66904 0.0
C2728 C 0.77436 0.86215 0.649 0.0
C2729 C 0.7907 0.86014 0.64644 0.0
C2730 C 0.76594 0.84281 0.66783 0.0
C2731 C 0.77398 0.82054 0.68431 0.0
C2732 C 0.79036 0.81738 0.68079 0.0
C2733 C 0.79853 0.83726 0.66199 0.0
C2734 C 0.74852 0.847 0.67095 0.0
C2735 C 0.79935 0.79369 0.69775 0.0
H2736 H 0.75947 0.80183 0.78223 0.0
H2737 H 0.74809 0.73375 0.71817 0.0
H2738 H 0.78466 0.84319 0.74233 0.0
H2739 H 0.76705 0.86141 0.73075 0.0
H2740 H 0.76923 0.8495 0.7688 0.0
H2741 H 0.75201 0.74102 0.66666 0.0
H2742 H 0.75503 0.77893 0.653 0.0
H2743 H 0.77144 0.75619 0.66296 0.0
H2744 H 0.7681 0.87914 0.63644 0.0
H2745 H 0.81111 0.83548 0.66025 0.0
H2746 H 0.74576 0.85474 0.69378 0.0
H2747 H 0.74238 0.82522 0.66753 0.0
H2748 H 0.74383 0.8638 0.65496 0.0
H2749 H 0.7991 0.79907 0.7218 0.0
H2750 H 0.81173 0.79227 0.69052 0.0
H2751 H 0.79382 0.77121 0.69487 0.0
C2752 C 0.05078 0.98194 0.7567 0.0
C2753 C 0.05629 1.01088 0.75009 0.0
C2754 C 0.04477 0.96324 0.73439 0.0
C2755 C 0.04389 0.97419 0.70489 0.0
C2756 C 0.05025 1.00291 0.69785 0.0
C2757 C 0.05648 0.02094 0.72066 0.0
C2758 C 0.03842 0.93259 0.74281 0.0
C2759 C 0.04943 0.01555 0.66678 0.0
C2760 C 0.0337 0.91496 0.6472 0.0
C2761 C 1.01733 0.91716 0.64619 0.0
C2762 C 0.04261 0.93427 0.66518 0.0
C2763 C 0.03501 0.95654 0.68239 0.0
C2764 C 1.01858 0.95991 0.68034 0.0
C2765 C 1.00994 0.94013 0.66234 0.0
C2766 C 0.06008 0.93 0.6667 0.0
C2767 C 1.01004 0.98357 0.69819 0.0
H2768 H 0.05049 0.97449 0.77963 0.0
H2769 H 0.06042 0.04369 0.71583 0.0
H2770 H 1.0255 0.93269 0.74081 0.0
H2771 H 0.04294 0.915 0.72754 0.0
H2772 H 0.04152 0.92622 0.76592 0.0
H2773 H 0.05692 0.03587 0.6641 0.0
H2774 H 0.05301 0.99833 0.65025 0.0
H2775 H 0.0372 0.02198 0.66171 0.0
H2776 H 0.03957 0.89781 0.63417 0.0
H2777 H 0.99732 0.94199 0.66178 0.0
H2778 H 0.06336 0.92165 0.68907 0.0
H2779 H 0.06616 0.95187 0.66331 0.0
H2780 H 0.06437 0.91362 0.64991 0.0
H2781 H 1.01083 0.97803 0.72216 0.0
H2782 H 0.99751 0.98516 0.69201 0.0
H2783 H 1.01555 1.00602 0.69497 0.0
C2784 C 0.79191 0.93903 0.09198 0.0
C2785 C 0.78421 0.91679 0.10866 0.0
C2786 C 0.78355 0.95878 0.07345 0.0
C2787 C 0.7671 0.95603 0.07121 0.0
C2788 C 0.75919 0.93447 0.08883 0.0
C2789 C 0.76781 0.91534 0.1075 0.0
C2790 C 0.7924 0.9818 0.05532 0.0
C2791 C 0.74169 0.93073 0.08703 0.0
C2792 C 0.7457 0.01986 0.03166 0.0
C2793 C 0.74581 1.00925 1.00242 0.0
C2794 C 0.75209 1.00237 0.05474 0.0
C2795 C 0.75846 0.97355 0.04823 0.0
C2796 C 0.75757 0.9621 0.01891 0.0
C2797 C 0.75147 0.98031 0.9963 0.0
C2798 C 0.75299 0.01564 0.08555 0.0
C2799 C 0.76388 0.93126 0.01107 0.0
H2800 H 0.80454 0.94037 0.09258 0.0
H2801 H 0.76165 0.89891 0.12096 0.0
H2802 H 0.79177 0.97571 0.03147 0.0
H2803 H 0.78704 1.00446 0.05785 0.0
H2804 H 0.80489 0.98322 0.06184 0.0
H2805 H 0.73716 0.91464 0.10389 0.0
H2806 H 0.7358 0.95281 0.0901 0.0
H2807 H 0.73845 0.92229 0.06468 0.0
H2808 H 0.74165 0.04261 0.03613 0.0
H2809 H 0.75168 0.9724 0.97352 0.0
H2810 H 0.76528 0.02173 0.09056 0.0
H2811 H 0.74922 0.99889 0.1024 0.0
H2812 H 0.74569 0.03626 0.0878 0.0
H2813 H 0.77676 0.93113 0.01364 0.0
H2814 H 0.76102 0.92469 0.98792 0.0
H2815 H 0.75907 0.91395 0.02635 0.0
C2816 C 0.05059 0.8 1.00174 0.0
C2817 C 0.05643 0.77115 0.00769 0.0
C2818 C 0.04399 0.81765 0.0243 0.0
C2819 C 0.04287 0.80581 0.05343 0.0
C2820 C 0.04961 0.77727 0.05991 0.0
C2821 C 0.0564 0.76028 0.03687 0.0
C2822 C 0.03725 0.84814 0.01642 0.0
C2823 C 0.0486 0.76367 0.09057 0.0
C2824 C 0.03143 0.86296 0.11241 0.0
C2825 C 1.01509 0.85988 0.11308 0.0
C2826 C 0.04072 0.84461 0.09413 0.0
C2827 C 0.03355 0.82244 0.07614 0.0
C2828 C 1.01715 0.81819 0.07776 0.0
C2829 C 1.00812 0.83697 0.09618 0.0
C2830 C 0.05815 0.84977 0.0932 0.0
C2831 C 1.00905 0.79462 0.05907 0.0
H2832 H 0.05042 0.8081 0.97901 0.0
H2833 H 0.06055 0.73758 0.04124 0.0
H2834 H 1.02433 0.84724 0.01802 0.0
H2835 H 0.04137 0.86557 0.03227 0.0
H2836 H 0.04046 0.85529 0.99358 0.0
H2837 H 0.05638 0.74373 0.09303 0.0
H2838 H 0.0517 0.78059 0.10773 0.0
H2839 H 0.03642 0.75635 0.09491 0.0
H2840 H 0.03699 0.88005 0.126 0.0
H2841 H 0.99553 0.8344 0.09652 0.0
H2842 H 0.0615 0.85874 0.0711 0.0
H2843 H 0.06446 0.82814 0.09635 0.0
H2844 H 0.06208 0.86601 0.11044 0.0
H2845 H 1.01001 0.8008 0.03527 0.0
H2846 H 0.99649 0.79233 0.06479 0.0
H2847 H 1.01479 0.77235 0.06194 0.0
C2848 C 0.30826 0.75572 0.77474 0.0
C2849 C 0.29774 0.77029 0.7557 0.0
C2850 C 0.30283 0.73561 0.79673 0.0
C2851 C 0.28657 0.73013 0.79959 0.0
C2852 C 0.27597 0.74522 0.78072 0.0
C2853 C 0.28167 0.76501 0.75912 0.0
C2854 C 0.31446 0.71989 0.81656 0.0
C2855 C 0.25854 0.7401 0.78296 0.0
C2856 C 0.26985 0.65768 0.83115 0.0
C2857 C 0.26438 0.66716 0.859 0.0
C2858 C 0.27784 0.67756 0.81224 0.0
C2859 C 0.28039 0.70777 0.8213 0.0
C2860 C 0.27525 0.71733 0.84967 0.0
C2861 C 0.26726 0.69692 0.86816 0.0
C2862 C 0.28298 0.66654 0.78205 0.0
C2863 C 0.27776 0.74936 0.86012 0.0
H2864 H 0.32067 0.75977 0.77227 0.0
H2865 H 0.27338 0.77628 0.74472 0.0
H2866 H 0.31148 0.72389 0.8402 0.0
H2867 H 0.31391 0.69516 0.81277 0.0
H2868 H 0.32661 0.72768 0.81252 0.0
H2869 H 0.25185 0.75429 0.7671 0.0
H2870 H 0.2558 0.71605 0.77843 0.0
H2871 H 0.25443 0.74519 0.80576 0.0
H2872 H 0.26758 0.63478 0.82383 0.0
H2873 H 0.26335 0.70424 0.88987 0.0
H2874 H 0.29544 0.67221 0.77818 0.0
H2875 H 0.27607 0.67804 0.76457 0.0
H2876 H 0.28145 0.64176 0.77949 0.0
H2877 H 0.29017 0.75598 0.85724 0.0
H2878 H 0.27447 0.75243 0.88378 0.0
H2879 H 0.27064 0.765 0.84645 0.0
C2880 C 1.02551 0.59415 0.87317 0.0
C2881 C 0.034 0.61842 0.86116 0.0
C2882 C 1.01743 0.57381 0.85481 0.0
C2883 C 1.01783 0.57775 0.82364 0.0
C2884 C 1.02577 0.60296 0.81147 0.0
C2885 C 0.03377 0.62294 0.83034 0.0
C2886 C 1.00907 0.54731 0.8687 0.0
C2887 C 1.02653 0.60797 0.77834 0.0
C2888 C 1.01728 0.50883 0.77403 0.0
C2889 C 1.00225 0.50985 0.76174 0.0
C2890 C 1.02223 0.53022 0.79484 0.0
C2891 C 1.01192 0.55348 0.80364 0.0
C2892 C 0.99646 0.55403 0.79224 0.0
C2893 C 0.99176 0.53204 0.77142 0.0
C2894 C 0.03874 0.52845 0.8066 0.0
C2895 C 0.98514 0.57847 0.80116 0.0
H2896 H 1.0253 0.59087 0.897 0.0
H2897 H 0.04032 0.64151 0.82082 0.0
H2898 H 0.9971 0.54515 0.85948 0.0
H2899 H 1.0154 0.52615 0.86335 0.0
H2900 H 1.00826 0.54938 0.89322 0.0
H2901 H 0.03166 0.63026 0.77259 0.0
H2902 H 0.03378 0.59005 0.76801 0.0
H2903 H 1.0147 0.60644 0.76846 0.0
H2904 H 1.02538 0.49145 0.76694 0.0
H2905 H 0.98015 0.53293 0.76188 0.0
H2906 H 0.03865 0.52803 0.83121 0.0
H2907 H 0.04538 0.54879 0.79965 0.0
H2908 H 0.04504 0.50813 0.79851 0.0
H2909 H 0.98468 0.58057 0.82568 0.0
H2910 H 0.97316 0.57406 0.79272 0.0
H2911 H 0.98918 0.60048 0.79225 0.0
C2912 C 0.3093 0.51064 0.47535 0.0
C2913 C 0.30897 0.52168 0.50445 0.0
C2914 C 0.30271 0.52744 0.45197 0.0
C2915 C 0.29586 0.55595 0.45804 0.0
C2916 C 0.29662 0.56797 0.48715 0.0
C2917 C 0.303 0.5505 0.51004 0.0
C2918 C 0.30206 0.51366 0.42136 0.0
C2919 C 0.28974 0.59846 0.49458 0.0
C2920 C 0.28495 0.61289 0.39859 0.0
C2921 C 0.26862 0.60988 0.39757 0.0
C2922 C 0.29409 0.59453 0.4171 0.0
C2923 C 0.28676 0.57238 0.43492 0.0
C2924 C 0.27038 0.5681 0.43283 0.0
C2925 C 0.2615 0.58693 0.41422 0.0
C2926 C 0.3115 0.59974 0.41857 0.0
C2927 C 0.26213 0.54453 0.45129 0.0
H2928 H 0.31358 0.48798 0.47126 0.0
H2929 H 0.30259 0.55874 0.5327 0.0
H2930 H 0.28991 0.50644 0.41653 0.0
H2931 H 0.30541 0.53047 0.40425 0.0
H2932 H 0.30981 0.49364 0.41935 0.0
H2933 H 0.29265 0.60572 0.51753 0.0
H2934 H 0.29405 0.61584 0.47884 0.0
H2935 H 0.27684 0.5975 0.49241 0.0
H2936 H 0.29062 0.63001 0.38517 0.0
H2937 H 0.24892 0.58442 0.4136 0.0
H2938 H 0.31786 0.57809 0.41593 0.0
H2939 H 0.31462 0.609 0.44067 0.0
H2940 H 0.3156 0.61578 0.40128 0.0
H2941 H 0.26797 0.52231 0.44882 0.0
H2942 H 0.24965 0.54206 0.44504 0.0
H2943 H 0.26276 0.55086 0.47509 0.0
C2944 C 0.99651 0.76878 0.47786 0.0
C2945 C 0.99802 0.75937 0.50738 0.0
C2946 C 1.00271 0.75127 0.45461 0.0
C2947 C 1.01031 0.7236 0.46126 0.0
C2948 C 1.01084 0.71322 0.49098 0.0
C2949 C 1.00487 0.73145 0.5137 0.0
C2950 C 1.00205 0.76334 0.42331 0.0
C2951 C 1.0185 0.68361 0.49905 0.0
C2952 C 1.01968 0.6641 0.4033 0.0
C2953 C 0.03589 0.66782 0.39976 0.0
C2954 C 1.01104 0.68292 0.42224 0.0
C2955 C 1.01872 0.70632 0.43782 0.0
C2956 C 0.03491 0.71122 0.4332 0.0
C2957 C 0.0433 0.69186 0.41432 0.0
C2958 C 0.99383 0.67695 0.42653 0.0
C2959 C 0.04351 0.73614 0.44919 0.0
H2960 H 0.99149 0.79075 0.47317 0.0
H2961 H 1.0061 0.72441 0.53665 0.0
H2962 H 1.01392 0.77045 0.4163 0.0
H2963 H 0.99812 0.74554 0.40769 0.0
H2964 H 0.9941 0.78309 0.42136 0.0
H2965 H 1.01663 0.67754 0.52272 0.0
H2966 H 1.01387 0.66511 0.48497 0.0
H2967 H 0.03125 0.68512 0.49492 0.0
H2968 H 1.01373 0.64615 0.3915 0.0
H2969 H 0.05579 0.69493 0.41181 0.0
H2970 H 0.98704 0.69806 0.42353 0.0
H2971 H 0.99172 0.66896 0.44954 0.0
H2972 H 0.98932 0.65965 0.41087 0.0
H2973 H 0.03725 0.7579 0.4465 0.0
H2974 H 0.05566 0.73889 0.441 0.0
H2975 H 0.04392 0.73105 0.4733 0.0
C2976 C 0.78488 0.37391 0.1793 0.0
C2977 C 0.78615 0.3685 0.14871 0.0
C2978 C 0.77648 0.35421 0.19783 0.0
C2979 C 0.76917 0.32837 0.18553 0.0
C2980 C 0.76982 0.32348 0.15451 0.0
C2981 C 0.77829 0.34357 0.13649 0.0
C2982 C 0.77612 0.36022 0.23081 0.0
C2983 C 0.76216 0.29627 0.1405 0.0
C2984 C 0.76783 0.26091 0.23698 0.0
C2985 C 0.75243 0.26158 0.24756 0.0
C2986 C 0.77318 0.28191 0.21615 0.0
C2987 C 0.7629 0.30444 0.20556 0.0
C2988 C 0.74712 0.30462 0.21523 0.0
C2989 C 0.74201 0.28301 0.23613 0.0
C2990 C 0.79004 0.28055 0.20628 0.0
C2991 C 0.73582 0.32828 0.20437 0.0
H2992 H 0.79094 0.393 0.18899 0.0
H2993 H 0.77887 0.33959 0.11279 0.0
H2994 H 0.76402 0.35846 0.2394 0.0
H2995 H 0.78323 0.34295 0.24247 0.0
H2996 H 0.78082 0.3829 0.23645 0.0
H2997 H 0.76209 0.29764 0.11588 0.0
H2998 H 0.76855 0.27554 0.14711 0.0
H2999 H 0.74997 0.29386 0.14846 0.0
H3000 H 0.77589 0.24409 0.24543 0.0
H3001 H 0.73012 0.28362 0.24435 0.0
H3002 H 0.79623 0.30137 0.21333 0.0
H3003 H 0.79073 0.2794 0.18172 0.0
H3004 H 0.79631 0.26076 0.21564 0.0
H3005 H 0.73935 0.35072 0.21302 0.0
H3006 H 0.72366 0.3236 0.21164 0.0
H3007 H 0.73609 0.32963 0.17979 0.0
C3008 C 0.03275 0.50799 0.2539 0.0
C3009 C 0.04858 0.51581 0.25662 0.0
C3010 C 0.02763 0.48759 0.23233 0.0
C3011 C 0.03858 0.47442 0.21278 0.0
C3012 C 0.0546 0.4823 0.21507 0.0
C3013 C 0.05944 0.50303 0.237 0.0
C3014 C 1.01043 0.47997 0.23068 0.0
C3015 C 0.0666 0.46863 0.19458 0.0
C3016 C 1.02387 0.40094 0.17986 0.0
C3017 C 1.01772 0.41055 0.15256 0.0
C3018 C 0.03153 0.42116 0.19892 0.0
C3019 C 0.03302 0.45187 0.19063 0.0
C3020 C 0.02729 0.46157 0.16273 0.0
C3021 C 1.01971 0.44081 0.14404 0.0
C3022 C 0.03739 0.40992 0.22854 0.0
C3023 C 0.02862 0.49413 0.15311 0.0
H3024 H 1.0242 0.51783 0.26877 0.0
H3025 H 0.07167 0.50902 0.23892 0.0
H3026 H 1.00587 0.48506 0.2082 0.0
H3027 H 1.0087 0.45546 0.23465 0.0
H3028 H 1.00339 0.49269 0.24719 0.0
H3029 H 0.0785 0.47771 0.19863 0.0
H3030 H 0.06685 0.44376 0.19757 0.0
H3031 H 0.06337 0.47304 0.17113 0.0
H3032 H 1.0223 0.37769 0.18676 0.0
H3033 H 1.01531 0.44831 0.12274 0.0
H3034 H 0.03017 0.41969 0.2466 0.0
H3035 H 0.0496 0.41737 0.23225 0.0
H3036 H 0.0369 0.38492 0.23027 0.0
H3037 H 1.02104 0.5084 0.16734 0.0
H3038 H 1.02509 0.49742 0.12961 0.0
H3039 H 0.04078 0.5023 0.15592 0.0
C3040 C 0.76873 0.41101 0.60844 0.0
C3041 C 0.78495 0.41408 0.61216 0.0
C3042 C 0.76038 0.43001 0.58918 0.0
C3043 C 0.76839 0.45294 0.57349 0.0
C3044 C 0.78461 0.45712 0.57819 0.0
C3045 C 0.7927 0.43757 0.59732 0.0
C3046 C 0.74312 0.42478 0.58474 0.0
C3047 C 0.79357 0.48151 0.56207 0.0
C3048 C 0.75525 0.47905 0.4975 0.0
C3049 C 0.74884 0.50737 0.50382 0.0
C3050 C 0.76076 0.46033 0.52026 0.0
C3051 C 0.76025 0.47063 0.55001 0.0
C3052 C 0.75309 0.49873 0.55662 0.0
C3053 C 0.74732 0.51673 0.53334 0.0
C3054 C 0.76796 0.4303 0.51221 0.0
C3055 C 0.75248 0.51074 0.58795 0.0
H3056 H 0.76252 0.39348 0.62039 0.0
H3057 H 0.80522 0.4401 0.59987 0.0
H3058 H 0.73657 0.44617 0.58772 0.0
H3059 H 0.74097 0.41694 0.56171 0.0
H3060 H 0.73837 0.40765 0.60035 0.0
H3061 H 0.80575 0.48367 0.57026 0.0
H3062 H 0.79393 0.4763 0.53799 0.0
H3063 H 0.78762 0.5036 0.56467 0.0
H3064 H 0.75648 0.47204 0.47455 0.0
H3065 H 0.74263 0.53896 0.53803 0.0
H3066 H 0.76308 0.41208 0.52636 0.0
H3067 H 0.78074 0.43111 0.51624 0.0
H3068 H 0.76597 0.42431 0.48857 0.0
H3069 H 0.74818 0.49315 0.60345 0.0
H3070 H 0.74488 0.53098 0.58984 0.0
H3071 H 0.76444 0.51705 0.59516 0.0
C3072 C 1.01817 0.33217 0.6184 0.0
C3073 C 1.01554 0.36238 0.61042 0.0
C3074 C 1.02587 0.31221 0.59905 0.0
C3075 C 0.03108 0.32271 0.57104 0.0
C3076 C 0.02889 0.35338 0.56324 0.0
C3077 C 1.02111 0.37277 0.58293 0.0
C3078 C 0.02794 0.27964 0.60814 0.0
C3079 C 0.03416 0.36546 0.53352 0.0
C3080 C 0.05804 0.2748 0.52254 0.0
C3081 C 0.04726 0.26168 0.503 0.0
C3082 C 0.053 0.29451 0.5452 0.0
C3083 C 0.03685 0.30097 0.54833 0.0
C3084 C 1.02598 0.28736 0.52891 0.0
C3085 C 0.0313 0.26804 0.50657 0.0
C3086 C 0.06492 0.30871 0.56551 0.0
C3087 C 1.00865 0.29344 0.53147 0.0
H3088 H 1.0142 0.32408 0.63982 0.0
H3089 H 1.01902 0.39598 0.57642 0.0
H3090 H 1.02052 0.265 0.59398 0.0
H3091 H 0.04023 0.27247 0.60478 0.0
H3092 H 1.02471 0.27574 0.63171 0.0
H3093 H 0.03311 0.39042 0.53212 0.0
H3094 H 0.04649 0.3591 0.52922 0.0
H3095 H 0.02697 0.35531 0.51564 0.0
H3096 H 0.07037 0.2699 0.51997 0.0
H3097 H 1.02281 0.25787 0.49181 0.0
H3098 H 0.06199 0.30373 0.58899 0.0
H3099 H 0.06469 0.33362 0.56287 0.0
H3100 H 0.07695 0.30054 0.56092 0.0
H3101 H 1.00449 0.28766 0.55409 0.0
H3102 H 1.0017 0.28034 0.51512 0.0
H3103 H 1.00632 0.31782 0.52793 0.0
C3104 C 0.78088 0.1604 0.8567 0.0
C3105 C 0.76457 0.1634 0.85888 0.0
C3106 C 0.78972 0.1795 0.83833 0.0
C3107 C 0.78214 0.20247 0.822 0.0
C3108 C 0.76581 0.20658 0.82516 0.0
C3109 C 0.75722 0.18693 0.84343 0.0
C3110 C 0.80709 0.17434 0.83554 0.0
C3111 C 0.7573 0.23103 0.80833 0.0
C3112 C 0.80418 0.26665 0.78428 0.0
C3113 C 0.80342 0.25748 0.7546 0.0
C3114 C 0.79786 0.24842 0.80689 0.0
C3115 C 0.79091 0.22033 0.79944 0.0
C3116 C 0.7912 0.21022 0.76962 0.0
C3117 C 0.79726 0.22914 0.74752 0.0
C3118 C 0.79764 0.2602 0.83832 0.0
C3119 C 0.78426 0.18018 0.76074 0.0
H3120 H 0.78677 0.14286 0.86917 0.0
H3121 H 0.74465 0.18943 0.84482 0.0
H3122 H 0.80986 0.1666 0.81271 0.0
H3123 H 0.81354 0.19573 0.83922 0.0
H3124 H 0.81142 0.15716 0.85151 0.0
H3125 H 0.7449 0.2331 0.81532 0.0
H3126 H 0.76315 0.25313 0.81163 0.0
H3127 H 0.75761 0.22596 0.78422 0.0
H3128 H 0.80867 0.28892 0.78953 0.0
H3129 H 0.79659 0.22231 0.72443 0.0
H3130 H 0.80153 0.24251 0.85408 0.0
H3131 H 0.78552 0.26645 0.84444 0.0
H3132 H 0.8052 0.28043 0.84105 0.0
H3133 H 0.7889 0.16189 0.77506 0.0
H3134 H 0.78676 0.17447 0.7372 0.0
H3135 H 0.77141 0.18078 0.76383 0.0
C3136 C 0.49637 0.02608 0.77495 0.0
C3137 C 0.50677 1.01033 0.7566 0.0
C3138 C 0.50197 0.0463 0.79668 0.0
C3139 C 0.5183 0.0506 0.80007 0.0
C3140 C 0.52878 0.03411 0.78209 0.0
C3141 C 0.52291 0.01431 0.76068 0.0
C3142 C 0.49047 0.06351 0.81555 0.0
C3143 C 0.54627 0.0378 0.785 0.0
C3144 C 0.53604 0.12291 0.83009 0.0
C3145 C 0.54077 0.11416 0.85865 0.0
C3146 C 0.52802 0.10289 0.81137 0.0
C3147 C 0.5247 0.07324 0.82131 0.0
C3148 C 0.52919 0.06436 0.85027 0.0
C3149 C 0.53717 0.08492 0.86859 0.0
C3150 C 0.52355 0.11319 0.78056 0.0
C3151 C 0.52591 0.0329 0.86162 0.0
H3152 H 0.48391 0.02302 0.772 0.0
H3153 H 0.5311 1.002 0.7469 0.0
H3154 H 0.49313 0.06017 0.83941 0.0
H3155 H 0.49152 0.08804 0.81091 0.0
H3156 H 0.47822 0.05644 0.81134 0.0
H3157 H 0.55283 0.0224 0.77005 0.0
H3158 H 0.54963 0.06139 0.77967 0.0
H3159 H 0.54996 0.03332 0.80818 0.0
H3160 H 0.53887 0.14535 0.82211 0.0
H3161 H 0.54049 0.07814 0.89082 0.0
H3162 H 0.51103 0.10843 0.77629 0.0
H3163 H 0.53042 0.10045 0.76385 0.0
H3164 H 0.52569 0.1377 0.77718 0.0
H3165 H 0.51341 0.02713 0.85849 0.0
H3166 H 0.52889 0.03036 0.88549 0.0
H3167 H 0.53284 0.01628 0.84873 0.0
C3168 C 0.78301 0.01318 0.49356 0.0
C3169 C 0.79906 1.00945 0.49876 0.0
C3170 C 0.77749 0.03288 0.47172 0.0
C3171 C 0.78826 0.04952 0.45447 0.0
C3172 C 0.80453 0.04541 0.45897 0.0
C3173 C 0.80977 0.02529 0.4811 0.0
C3174 C 0.76006 0.03635 0.46762 0.0
C3175 C 0.81634 0.06277 0.44089 0.0
C3176 C 0.7701 0.08355 0.38521 0.0
C3177 C 0.76606 0.11255 0.39517 0.0
C3178 C 0.77814 0.06326 0.40371 0.0
C3179 C 0.7822 0.07215 0.4329 0.0
C3180 C 0.77858 0.10169 0.44275 0.0
C3181 C 0.77054 0.12146 0.42382 0.0
C3182 C 0.78179 0.03196 0.39239 0.0
C3183 C 0.78258 0.112 0.47378 0.0
H3184 H 0.7746 1.00077 0.5068 0.0
H3185 H 0.82217 0.0224 0.48492 0.0
H3186 H 0.75654 0.05989 0.47273 0.0
H3187 H 0.75682 0.03185 0.4442 0.0
H3188 H 0.75326 0.02085 0.4821 0.0
H3189 H 0.82851 0.05565 0.44575 0.0
H3190 H 0.81405 0.05963 0.41686 0.0
H3191 H 0.81523 0.08725 0.44566 0.0
H3192 H 0.76698 0.07669 0.3629 0.0
H3193 H 0.76738 0.14373 0.4318 0.0
H3194 H 0.77457 0.01515 0.40446 0.0
H3195 H 0.79421 0.02626 0.39664 0.0
H3196 H 0.77944 0.02965 0.36825 0.0
H3197 H 0.77543 0.09929 0.49009 0.0
H3198 H 0.78041 0.13651 0.477 0.0
H3199 H 0.79502 0.10723 0.47878 0.0
C3200 C 0.50758 0.23225 0.51307 0.0
C3201 C 0.50083 0.26021 0.50652 0.0
C3202 C 0.51317 0.21348 0.49044 0.0
C3203 C 0.51239 0.22339 0.46058 0.0
C3204 C 0.50493 0.25113 0.45376 0.0
C3205 C 0.49908 0.26918 0.47694 0.0
C3206 C 0.52068 0.18379 0.49869 0.0
C3207 C 0.50404 0.26271 0.4223 0.0
C3208 C 0.54456 0.19006 0.41267 0.0
C3209 C 0.53676 0.16617 0.39859 0.0
C3210 C 0.53656 0.20984 0.43173 0.0
C3211 C 0.5204 0.2055 0.43709 0.0
C3212 C 0.51234 0.18221 0.42207 0.0
C3213 C 0.52057 0.16299 0.40287 0.0
C3214 C 0.54556 0.23464 0.44711 0.0
C3215 C 0.49514 0.17677 0.42722 0.0
H3216 H 0.50898 0.22556 0.53608 0.0
H3217 H 0.49414 0.29116 0.47207 0.0
H3218 H 0.51578 0.16521 0.48505 0.0
H3219 H 0.5334 0.18486 0.4941 0.0
H3220 H 0.519 0.17815 0.52251 0.0
H3221 H 0.49637 0.28286 0.42037 0.0
H3222 H 0.51591 0.269 0.4146 0.0
H3223 H 0.49964 0.24486 0.40719 0.0
H3224 H 0.55704 0.1927 0.40961 0.0
H3225 H 0.51432 0.14517 0.39147 0.0
H3226 H 0.54621 0.2298 0.47124 0.0
H3227 H 0.53946 0.25658 0.44444 0.0
H3228 H 0.55764 0.23691 0.43839 0.0
H3229 H 0.49325 0.16925 0.45044 0.0
H3230 H 0.49031 0.15934 0.41206 0.0
H3231 H 0.48847 0.19801 0.42416 0.0
C3232 C 0.24468 0.77259 0.23506 0.0
C3233 C 0.25525 0.76016 0.25542 0.0
C3234 C 0.24987 0.79253 0.2127 0.0
C3235 C 0.26596 0.79997 0.21075 0.0
C3236 C 0.27663 0.78715 0.23107 0.0
C3237 C 0.27116 0.76755 0.25306 0.0
C3238 C 0.23818 0.80586 0.19139 0.0
C3239 C 0.29389 0.79436 0.22984 0.0
C3240 C 0.28576 0.83182 0.14205 0.0
C3241 C 0.28774 0.86222 0.15001 0.0
C3242 C 0.27789 0.81155 0.16088 0.0
C3243 C 0.27188 0.82192 0.18834 0.0
C3244 C 0.27341 0.85276 0.19606 0.0
C3245 C 0.28135 0.87246 0.17689 0.0
C3246 C 0.27652 0.77882 0.15187 0.0
C3247 C 0.26728 0.86471 0.22521 0.0
H3248 H 0.2324 0.76691 0.2367 0.0
H3249 H 0.27949 0.75799 0.26851 0.0
H3250 H 0.23802 0.8308 0.19373 0.0
H3251 H 0.24165 0.80077 0.1682 0.0
H3252 H 0.22619 0.7971 0.19522 0.0
H3253 H 0.30069 0.78186 0.24687 0.0
H3254 H 0.29865 0.78865 0.20764 0.0
H3255 H 0.29573 0.8189 0.23332 0.0
H3256 H 0.29038 0.82383 0.12108 0.0
H3257 H 0.28293 0.89584 0.18338 0.0
H3258 H 0.26429 0.77093 0.15432 0.0
H3259 H 0.28385 0.76471 0.16671 0.0
H3260 H 0.28032 0.77498 0.1286 0.0
H3261 H 0.25498 0.85758 0.22858 0.0
H3262 H 0.26788 0.88974 0.22647 0.0
H3263 H 0.27423 0.85518 0.24375 0.0
C3264 C 0.55754 0.9978 0.23808 0.0
C3265 C 0.54715 1.01184 0.25777 0.0
C3266 C 0.55203 0.97747 0.21635 0.0
C3267 C 0.53579 0.97134 0.21427 0.0
C3268 C 0.52531 0.98587 0.23384 0.0
C3269 C 0.53111 1.00576 0.25526 0.0
C3270 C 0.56354 0.96229 0.19588 0.0
C3271 C 0.50791 0.98023 0.23236 0.0
C3272 C 0.51605 0.93924 0.14562 0.0
C3273 C 0.51324 0.90925 0.15424 0.0
C3274 C 0.52409 0.95936 0.16431 0.0
C3275 C 0.52949 0.94929 0.19232 0.0
C3276 C 0.52708 0.91885 0.20081 0.0
C3277 C 0.51894 0.89928 0.18177 0.0
C3278 C 0.52634 0.99168 0.15449 0.0
C3279 C 0.53258 0.90722 0.23053 0.0
H3280 H 0.56994 1.00244 0.23984 0.0
H3281 H 0.52291 0.01664 0.27014 0.0
H3282 H 0.56304 0.93747 0.19909 0.0
H3283 H 0.56039 0.96686 0.17242 0.0
H3284 H 0.57571 0.97005 0.19976 0.0
H3285 H 0.50131 0.99392 0.24878 0.0
H3286 H 0.50347 0.98561 0.20985 0.0
H3287 H 0.50542 0.95602 0.23658 0.0
H3288 H 0.51202 0.94701 0.12414 0.0
H3289 H 0.51675 0.87626 0.1888 0.0
H3290 H 0.53875 0.99843 0.15694 0.0
H3291 H 0.51933 1.00687 0.16884 0.0
H3292 H 0.52276 0.99528 0.13106 0.0
H3293 H 0.54502 0.91319 0.23413 0.0
H3294 H 0.53127 0.88234 0.23252 0.0
H3295 H 0.52572 0.91804 0.24852 0.0
C3296 C 0.29463 0.94199 0.59502 0.0
C3297 C 0.28705 0.92003 0.61221 0.0
C3298 C 0.2861 0.96149 0.57649 0.0
C3299 C 0.26962 0.95878 0.57491 0.0
C3300 C 0.26186 0.93762 0.59319 0.0
C3301 C 0.27064 0.91869 0.61176 0.0
C3302 C 0.2948 0.98411 0.55762 0.0
C3303 C 0.24433 0.934 0.59216 0.0
C3304 C 0.24795 0.02201 0.53513 0.0
C3305 C 0.24768 1.01082 0.5061 0.0
C3306 C 0.25454 1.0049 0.55825 0.0
C3307 C 0.26077 0.97591 0.55199 0.0
C3308 C 0.25949 0.96387 0.52295 0.0
C3309 C 0.25316 0.98169 0.50027 0.0
C3310 C 0.25582 0.01874 0.58876 0.0
C3311 C 0.26563 0.93284 0.5154 0.0
H3312 H 0.30727 0.94324 0.59519 0.0
H3313 H 0.26462 0.90243 0.62563 0.0
H3314 H 0.29388 0.9776 0.5339 0.0
H3315 H 0.28952 1.00685 0.55999 0.0
H3316 H 0.30737 0.98551 0.5636 0.0
H3317 H 0.23996 0.91836 0.60956 0.0
H3318 H 0.23852 0.9562 0.59496 0.0
H3319 H 0.24084 0.92505 0.57014 0.0
H3320 H 0.24405 0.0449 0.53932 0.0
H3321 H 0.2531 0.97336 0.47763 0.0
H3322 H 0.26817 0.02489 0.59313 0.0
H3323 H 0.25224 1.00233 0.60608 0.0
H3324 H 0.24857 0.03943 0.59096 0.0
H3325 H 0.27856 0.93275 0.51714 0.0
H3326 H 0.26235 0.92574 0.49259 0.0
H3327 H 0.2611 0.91588 0.53136 0.0
C3328 C 0.51869 0.83239 0.61843 0.0
C3329 C 0.51524 0.86188 0.60908 0.0
C3330 C 0.52665 0.81217 0.59974 0.0
C3331 C 0.53125 0.82165 0.571 0.0
C3332 C 0.52813 0.85159 0.56173 0.0
C3333 C 0.52014 0.87126 0.58081 0.0
C3334 C 0.52972 0.78038 0.61038 0.0
C3335 C 0.53271 0.86253 0.53118 0.0
C3336 C 0.55914 0.77483 0.52347 0.0
C3337 C 0.54858 0.75983 0.50483 0.0
C3338 C 0.55372 0.79471 0.54565 0.0
C3339 C 0.53744 0.79939 0.54923 0.0
C3340 C 0.5268 0.78368 0.5309 0.0
C3341 C 0.53249 0.76424 0.509 0.0
C3342 C 0.56539 0.81115 0.56484 0.0
C3343 C 0.50934 0.78781 0.53399 0.0
H3344 H 0.51524 0.82514 0.64045 0.0
H3345 H 0.51742 0.89391 0.57329 0.0
H3346 H 0.52264 0.76424 0.5972 0.0
H3347 H 0.54217 0.77438 0.607 0.0
H3348 H 0.52677 0.7774 0.63421 0.0
H3349 H 0.53083 0.8872 0.52844 0.0
H3350 H 0.54518 0.85743 0.52675 0.0
H3351 H 0.52571 0.8505 0.51418 0.0
H3352 H 0.57157 0.77142 0.52041 0.0
H3353 H 0.52418 0.7525 0.495 0.0
H3354 H 0.5627 0.80736 0.58864 0.0
H3355 H 0.56455 0.8358 0.56074 0.0
H3356 H 0.57757 0.8038 0.56043 0.0
H3357 H 0.50564 0.78283 0.55707 0.0
H3358 H 0.50264 0.77301 0.51869 0.0
H3359 H 0.50618 0.81163 0.52928 0.0
C3360 C 0.75968 0.68944 0.34769 0.0
C3361 C 0.76745 0.66478 0.36047 0.0
C3362 C 0.76748 0.70932 0.32845 0.0
C3363 C 0.7834 0.70426 0.32148 0.0
C3364 C 0.79146 0.68006 0.33503 0.0
C3365 C 0.78343 0.66075 0.3545 0.0
C3366 C 0.75848 0.73506 0.31463 0.0
C3367 C 0.80842 0.67388 0.32812 0.0
C3368 C 0.79441 0.73295 0.2452 0.0
C3369 C 0.80167 0.76042 0.25188 0.0
C3370 C 0.78927 0.71364 0.26778 0.0
C3371 C 0.79104 0.72249 0.2978 0.0
C3372 C 0.799 0.74971 0.30468 0.0
C3373 C 0.80438 0.76831 0.2815 0.0
C3374 C 0.78118 0.68454 0.25943 0.0
C3375 C 0.80092 0.76016 0.33635 0.0
H3376 H 0.74734 0.6927 0.35195 0.0
H3377 H 0.78968 0.64227 0.36485 0.0
H3378 H 0.76496 0.75658 0.31737 0.0
H3379 H 0.75716 0.73102 0.29046 0.0
H3380 H 0.74667 0.73768 0.3245 0.0
H3381 H 0.81334 0.65568 0.34226 0.0
H3382 H 0.8096 0.66707 0.30453 0.0
H3383 H 0.81548 0.69464 0.33122 0.0
H3384 H 0.79232 0.72704 0.22218 0.0
H3385 H 0.80977 0.78989 0.28652 0.0
H3386 H 0.76869 0.6857 0.26589 0.0
H3387 H 0.78645 0.66528 0.27156 0.0
H3388 H 0.78186 0.67989 0.23524 0.0
H3389 H 0.78937 0.76681 0.34541 0.0
H3390 H 0.80893 0.77982 0.33813 0.0
H3391 H 0.80544 0.74159 0.35045 0.0
C3392 C 0.50414 0.54323 0.25419 0.0
C3393 C 0.49758 0.51503 0.26035 0.0
C3394 C 0.51023 0.5612 0.27695 0.0
C3395 C 0.51011 0.55023 0.30648 0.0
C3396 C 0.50279 0.52225 0.31299 0.0
C3397 C 0.49648 0.50497 0.28971 0.0
C3398 C 0.51761 0.59115 0.26907 0.0
C3399 C 0.50258 0.50957 0.34409 0.0
C3400 C 0.54358 0.58262 0.35138 0.0
C3401 C 0.53622 0.6065 0.36626 0.0
C3402 C 0.53499 0.56287 0.33325 0.0
C3403 C 0.51871 0.56727 0.32974 0.0
C3404 C 0.5111 0.59034 0.34588 0.0
C3405 C 0.51993 0.60954 0.36407 0.0
C3406 C 0.5435 0.53825 0.31665 0.0
C3407 C 0.49377 0.59574 0.34275 0.0
H3408 H 0.50507 0.55068 0.23131 0.0
H3409 H 0.49168 0.48276 0.2942 0.0
H3410 H 0.51302 0.60928 0.28366 0.0
H3411 H 0.53041 0.58992 0.27263 0.0
H3412 H 0.51544 0.59759 0.2456 0.0
H3413 H 0.49459 0.4899 0.34612 0.0
H3414 H 0.51453 0.50213 0.35021 0.0
H3415 H 0.49901 0.5271 0.3603 0.0
H3416 H 0.55614 0.58006 0.35294 0.0
H3417 H 0.51406 0.62737 0.3762 0.0
H3418 H 0.54364 0.54361 0.2926 0.0
H3419 H 0.53737 0.51635 0.31937 0.0
H3420 H 0.55576 0.53563 0.32432 0.0
H3421 H 0.49123 0.60427 0.32011 0.0
H3422 H 0.48936 0.61246 0.35911 0.0
H3423 H 0.48722 0.57432 0.34559 0.0
C3424 C 0.76583 0.58784 0.91041 0.0
C3425 C 0.77305 0.61162 0.89508 0.0
C3426 C 0.77444 0.56895 0.92937 0.0
C3427 C 0.79067 0.57395 0.93319 0.0
C3428 C 0.79815 0.59707 0.91683 0.0
C3429 C 0.78927 0.61557 0.89796 0.0
C3430 C 0.76602 0.54445 0.94634 0.0
C3431 C 0.81542 0.60304 0.92014 0.0
C3432 C 0.80494 0.54989 0.00906 0.0
C3433 C 0.81118 0.52132 1.00318 0.0
C3434 C 0.79917 0.56807 0.98612 0.0
C3435 C 0.79934 0.55708 0.9566 0.0
C3436 C 0.80653 0.52891 0.95032 0.0
C3437 C 0.81247 0.51136 0.9738 0.0
C3438 C 0.79187 0.59811 0.99385 0.0
C3439 C 0.80688 0.51627 0.91923 0.0
H3440 H 0.75333 0.58466 0.90843 0.0
H3441 H 0.79504 0.6334 0.88564 0.0
H3442 H 0.77213 0.52254 0.94362 0.0
H3443 H 0.76604 0.54996 0.97037 0.0
H3444 H 0.75372 0.54174 0.93897 0.0
H3445 H 0.81975 0.61988 0.90381 0.0
H3446 H 0.81785 0.61162 0.94281 0.0
H3447 H 0.82213 0.5818 0.91737 0.0
H3448 H 0.80384 0.55736 0.03189 0.0
H3449 H 0.817 0.48893 0.96941 0.0
H3450 H 0.77905 0.59686 0.99047 0.0
H3451 H 0.79642 0.61612 0.97908 0.0
H3452 H 0.79413 0.60468 0.01726 0.0
H3453 H 0.79495 0.50901 0.9128 0.0
H3454 H 0.8148 0.49648 0.91738 0.0
H3455 H 0.81066 0.53377 0.90313 0.0
C3456 C 0.52141 0.6635 0.8981 0.0
C3457 C 0.53775 0.66607 0.89618 0.0
C3458 C 0.51265 0.68273 0.91644 0.0
C3459 C 0.52038 0.70529 0.93311 0.0
C3460 C 0.53676 0.70888 0.93031 0.0
C3461 C 0.54525 0.68918 0.91196 0.0
C3462 C 0.49522 0.67822 0.91879 0.0
C3463 C 0.54542 0.73282 0.94758 0.0
C3464 C 0.49905 0.7703 0.97066 0.0
C3465 C 0.49944 0.76087 1.00028 0.0
C3466 C 0.50519 0.75185 0.94808 0.0
C3467 C 0.51166 0.72335 0.95554 0.0
C3468 C 0.511 0.71305 0.98528 0.0
C3469 C 0.50509 0.73215 0.00735 0.0
C3470 C 0.50577 0.76379 0.91673 0.0
C3471 C 0.51746 0.68263 0.99417 0.0
H3472 H 0.51544 0.64621 0.88541 0.0
H3473 H 0.55784 0.69129 0.91076 0.0
H3474 H 0.4922 0.67051 0.94151 0.0
H3475 H 0.48903 0.69988 0.915 0.0
H3476 H 0.49082 0.66127 0.90265 0.0
H3477 H 0.55791 0.73434 0.94106 0.0
H3478 H 0.5399 0.75521 0.94417 0.0
H3479 H 0.54479 0.72766 0.97165 0.0
H3480 H 0.49496 0.79287 0.96544 0.0
H3481 H 0.50549 0.72514 0.03041 0.0
H3482 H 0.50199 0.74624 0.90071 0.0
H3483 H 0.51797 0.77 0.91109 0.0
H3484 H 0.4983 0.7841 0.91385 0.0
H3485 H 0.51285 0.66468 0.97939 0.0
H3486 H 0.51453 0.67674 0.01749 0.0
H3487 H 0.53036 0.68277 0.99179 0.0
C3488 C 0.24695 0.26574 0.72637 0.0
C3489 C 0.25101 0.27056 0.75609 0.0
C3490 C 0.25244 0.28532 0.70401 0.0
C3491 C 0.26198 0.31031 0.71182 0.0
C3492 C 0.26511 0.31627 0.74211 0.0
C3493 C 0.2597 0.29617 0.7638 0.0
C3494 C 0.24887 0.27815 0.672 0.0
C3495 C 0.275 0.34282 0.75158 0.0
C3496 C 0.29346 0.34013 0.66007 0.0
C3497 C 0.28693 0.36741 0.65028 0.0
C3498 C 0.28517 0.32074 0.67907 0.0
C3499 C 0.26995 0.32877 0.68862 0.0
C3500 C 0.2631 0.35581 0.67812 0.0
C3501 C 0.27166 0.37479 0.6591 0.0
C3502 C 0.29294 0.29214 0.68981 0.0
C3503 C 0.24691 0.36512 0.68768 0.0
H3504 H 0.2404 0.24566 0.72044 0.0
H3505 H 0.26277 0.29986 0.78687 0.0
H3506 H 0.24486 0.2987 0.66014 0.0
H3507 H 0.25965 0.27022 0.6608 0.0
H3508 H 0.2398 0.26032 0.66982 0.0
H3509 H 0.27503 0.34594 0.77605 0.0
H3510 H 0.28722 0.33933 0.7441 0.0
H3511 H 0.27073 0.36391 0.74109 0.0
H3512 H 0.30526 0.3343 0.65355 0.0
H3513 H 0.26638 0.3955 0.65115 0.0
H3514 H 0.2852 0.27243 0.68596 0.0
H3515 H 0.29503 0.29367 0.71406 0.0
H3516 H 0.30429 0.28798 0.67858 0.0
H3517 H 0.23852 0.3464 0.68393 0.0
H3518 H 0.24273 0.38545 0.67562 0.0
H3519 H 0.24688 0.3701 0.71181 0.0
C3520 C 0.5587 0.51942 0.72569 0.0
C3521 C 0.55751 0.50953 0.7551 0.0
C3522 C 0.55264 0.50184 0.70235 0.0
C3523 C 0.54553 0.47364 0.70881 0.0
C3524 C 0.54537 0.46281 0.7384 0.0
C3525 C 0.55116 0.48111 0.76122 0.0
C3526 C 0.55289 0.51441 0.67122 0.0
C3527 C 0.53824 0.43263 0.74624 0.0
C3528 C 0.51254 0.44099 0.66254 0.0
C3529 C 0.52013 0.41759 0.64731 0.0
C3530 C 0.52086 0.46046 0.68142 0.0
C3531 C 0.53714 0.45631 0.68539 0.0
C3532 C 0.54497 0.43358 0.66915 0.0
C3533 C 0.5364 0.41463 0.65021 0.0
C3534 C 0.51209 0.48465 0.69814 0.0
C3535 C 0.5623 0.42843 0.67272 0.0
H3536 H 0.56333 0.54175 0.72117 0.0
H3537 H 0.55017 0.47371 0.7841 0.0
H3538 H 0.55685 0.49703 0.65518 0.0
H3539 H 0.54089 0.52116 0.66474 0.0
H3540 H 0.56061 0.53451 0.6693 0.0
H3541 H 0.54037 0.42635 0.76977 0.0
H3542 H 0.52544 0.4334 0.74247 0.0
H3543 H 0.54306 0.41464 0.73177 0.0
H3544 H 0.5 0.44345 0.66057 0.0
H3545 H 0.54246 0.39716 0.63792 0.0
H3546 H 0.51803 0.50677 0.6956 0.0
H3547 H 0.51197 0.47913 0.72216 0.0
H3548 H 0.49983 0.48691 0.69042 0.0
H3549 H 0.56877 0.44995 0.66987 0.0
H3550 H 0.56689 0.41167 0.65659 0.0
H3551 H 0.56474 0.42014 0.69549 0.0
C3552 C 0.28305 0.44397 0.11914 0.0
C3553 C 0.28537 0.41378 0.11072 0.0
C3554 C 0.27528 0.46434 0.10035 0.0
C3555 C 0.26969 0.45428 0.07248 0.0
C3556 C 0.27146 0.4236 0.06434 0.0
C3557 C 0.27934 0.4038 0.08347 0.0
C3558 C 0.27366 0.49691 0.10977 0.0
C3559 C 0.26572 0.41199 0.03477 0.0
C3560 C 0.24311 0.50406 0.02524 0.0
C3561 C 0.25395 0.51685 0.00559 0.0
C3562 C 0.248 0.48384 0.04754 0.0
C3563 C 0.26407 0.47647 0.05012 0.0
C3564 C 0.27501 0.48968 0.03055 0.0
C3565 C 0.26982 0.50957 0.0086 0.0
C3566 C 0.23603 0.47014 0.06809 0.0
C3567 C 0.29225 0.48258 0.03253 0.0
H3568 H 0.28737 0.45174 0.14042 0.0
H3569 H 0.28116 0.3806 0.07663 0.0
H3570 H 0.28124 0.51131 0.09567 0.0
H3571 H 0.26147 0.50476 0.10662 0.0
H3572 H 0.277 0.50039 0.13334 0.0
H3573 H 0.26635 0.38698 0.03326 0.0
H3574 H 0.25347 0.41913 0.03091 0.0
H3575 H 0.27292 0.42176 0.01668 0.0
H3576 H 0.23084 0.50971 0.02311 0.0
H3577 H 0.27835 0.51941 0.99367 0.0
H3578 H 0.23912 0.47509 0.0915 0.0
H3579 H 0.236 0.44522 0.06555 0.0
H3580 H 0.22407 0.47875 0.0637 0.0
H3581 H 0.29668 0.48793 0.05506 0.0
H3582 H 0.29927 0.49542 0.01607 0.0
H3583 H 0.29419 0.45811 0.02874 0.0
C3584 C 0.5308 0.26764 0.0106 0.0
C3585 C 0.54693 0.26305 0.00732 0.0
C3586 C 0.52483 0.28747 0.03189 0.0
C3587 C 0.53522 0.30339 0.05055 0.0
C3588 C 0.55155 0.29854 0.04789 0.0
C3589 C 0.55725 0.27828 0.02627 0.0
C3590 C 0.50735 0.29175 0.034 0.0
C3591 C 0.56296 0.31516 0.06746 0.0
C3592 C 0.51737 0.37541 0.08087 0.0
C3593 C 0.51205 0.36611 0.1089 0.0
C3594 C 0.5257 0.3557 0.06233 0.0
C3595 C 0.52873 0.32581 0.07189 0.0
C3596 C 0.52373 0.31645 0.10041 0.0
C3597 C 0.51546 0.3367 0.11856 0.0
C3598 C 0.53073 0.36652 0.032 0.0
C3599 C 0.52668 0.28474 0.11137 0.0
H3600 H 0.52267 0.25574 0.99634 0.0
H3601 H 0.56971 0.27477 0.0239 0.0
H3602 H 0.50329 0.28693 0.0569 0.0
H3603 H 0.5043 0.31555 0.02898 0.0
H3604 H 0.50085 0.2769 0.01843 0.0
H3605 H 0.5752 0.30779 0.06368 0.0
H3606 H 0.56216 0.33978 0.06312 0.0
H3607 H 0.55997 0.31157 0.09116 0.0
H3608 H 0.51471 0.39799 0.0731 0.0
H3609 H 0.5117 0.3295 0.14042 0.0
H3610 H 0.52395 0.35446 0.01469 0.0
H3611 H 0.54325 0.36136 0.02823 0.0
H3612 H 0.52891 0.39118 0.0291 0.0
H3613 H 0.51979 0.2685 0.09795 0.0
H3614 H 0.52342 0.28187 0.13507 0.0
H3615 H 0.53918 0.27874 0.10862 0.0
loop_
_geom_bond_atom_site_label_1
_geom_bond_atom_site_label_2
_geom_bond_distance
_geom_bond_site_symmetry_2
_ccdc_geom_bond_type
C0 C1 1.351 . S
C0 N3 1.368 . S
C0 H5 0.931 . S
C1 C0 1.351 . S
C1 N2 1.373 . S
C1 H29 0.930 . S
N2 C1 1.373 . S
N2 C4 1.340 . S
N3 C0 1.368 . S
N3 C4 1.321 . S
N3 Co6 2.135 . S
C4 N2 1.340 . S
C4 N3 1.321 . S
C4 H28 0.930 . S
H5 C0 0.931 . S
Co6 N3 2.135 . S
Co6 N9 2.121 . S
Co6 O14 2.055 . S
Co6 O17 2.039 . S
Co6 N20 2.140 . S
C7 O8 1.227 . S
C7 O17 1.265 . S
O8 C7 1.227 . S
N9 Co6 2.121 . S
N9 C11 1.375 . S
N9 C12 1.313 . S
C10 C11 1.338 . S
C10 N13 1.377 . S
C10 H30 0.930 . S
C11 N9 1.375 . S
C11 C10 1.338 . S
C11 H15 0.931 . S
C12 N9 1.313 . S
C12 N13 1.344 . S
C12 H16 0.930 . S
N13 C10 1.377 . S
N13 C12 1.344 . S
O14 Co6 2.055 . S
O14 C18 1.253 . S
H15 C11 0.931 . S
H16 C12 0.930 . S
O17 Co6 2.039 . S
O17 C7 1.265 . S
C18 O14 1.253 . S
C18 O19 1.227 . S
O19 C18 1.227 . S
N20 Co6 2.140 . S
N20 C23 1.346 . S
N20 C24 1.345 . S
C21 C22 1.387 . S
C21 C25 1.391 . S
C22 C21 1.387 . S
C22 C23 1.369 . S
C22 H31 0.929 . S
C23 N20 1.346 . S
C23 C22 1.369 . S
C23 H26 0.928 . S
C24 N20 1.345 . S
C24 C25 1.371 . S
C24 H27 0.931 . S
C25 C21 1.391 . S
C25 C24 1.371 . S
C25 H32 0.930 . S
H26 C23 0.928 . S
H27 C24 0.931 . S
H28 C4 0.930 . S
H29 C1 0.930 . S
H30 C10 0.930 . S
H31 C22 0.929 . S
H32 C25 0.930 . S
C33 C34 1.351 . S
C33 N36 1.368 . S
C33 H38 0.931 . S
C34 C33 1.351 . S
C34 N35 1.373 . S
C34 H62 0.930 . S
N35 C34 1.373 . S
N35 C37 1.340 . S
N36 C33 1.368 . S
N36 C37 1.321 . S
N36 Co39 2.135 . S
C37 N35 1.340 . S
C37 N36 1.321 . S
C37 H61 0.930 . S
H38 C33 0.931 . S
Co39 N36 2.135 . S
Co39 N42 2.121 . S
Co39 O47 2.055 1_565 S
Co39 O50 2.039 . S
Co39 N53 2.140 . S
C40 O41 1.227 . S
C40 O50 1.265 . S
O41 C40 1.227 . S
N42 Co39 2.121 . S
N42 C44 1.375 . S
N42 C45 1.313 1_565 S
C43 C44 1.338 1_545 S
C43 N46 1.377 . S
C43 H63 0.930 . S
C44 N42 1.375 . S
C44 C43 1.338 1_565 S
C44 H48 0.931 . S
C45 N42 1.313 1_545 S
C45 N46 1.344 . S
C45 H49 0.930 . S
N46 C43 1.377 . S
N46 C45 1.344 . S
O47 Co39 2.055 1_545 S
O47 C51 1.253 . S
H48 C44 0.931 . S
H49 C45 0.930 . S
O50 Co39 2.039 . S
O50 C40 1.265 . S
C51 O47 1.253 . S
C51 O52 1.227 1_545 S
O52 C51 1.227 1_565 S
N53 Co39 2.140 . S
N53 C56 1.346 . S
N53 C57 1.345 . S
C54 C55 1.387 . S
C54 C58 1.391 . S
C55 C54 1.387 . S
C55 C56 1.369 . S
C55 H64 0.929 . S
C56 N53 1.346 . S
C56 C55 1.369 . S
C56 H59 0.928 . S
C57 N53 1.345 . S
C57 C58 1.371 . S
C57 H60 0.931 . S
C58 C54 1.391 . S
C58 C57 1.371 . S
C58 H65 0.930 . S
H59 C56 0.928 . S
H60 C57 0.931 . S
H61 C37 0.930 . S
H62 C34 0.930 . S
H63 C43 0.930 . S
H64 C55 0.929 . S
H65 C58 0.930 . S
C66 C67 1.351 . S
C66 N69 1.368 . S
C66 H71 0.931 . S
C67 C66 1.351 . S
C67 N68 1.373 . S
C67 H95 0.930 . S
N68 C67 1.373 . S
N68 C70 1.340 . S
N69 C66 1.368 . S
N69 C70 1.321 . S
N69 Co72 2.135 1_556 S
C70 N68 1.340 . S
C70 N69 1.321 . S
C70 H94 0.930 . S
H71 C66 0.931 . S
Co72 N69 2.135 1_554 S
Co72 N75 2.121 . S
Co72 O80 2.055 1_564 S
Co72 O83 2.039 . S
Co72 N86 2.140 . S
C73 O74 1.227 . S
C73 O83 1.265 . S
O74 C73 1.227 . S
N75 Co72 2.121 . S
N75 C77 1.375 . S
N75 C78 1.313 1_565 S
C76 C77 1.338 1_545 S
C76 N79 1.377 . S
C76 H96 0.930 . S
C77 N75 1.375 . S
C77 C76 1.338 1_565 S
C77 H81 0.931 . S
C78 N75 1.313 1_545 S
C78 N79 1.344 . S
C78 H82 0.930 . S
N79 C76 1.377 . S
N79 C78 1.344 . S
O80 Co72 2.055 1_546 S
O80 C84 1.253 . S
H81 C77 0.931 . S
H82 C78 0.930 . S
O83 Co72 2.039 . S
O83 C73 1.265 . S
C84 O80 1.253 . S
C84 O85 1.227 1_546 S
O85 C84 1.227 1_564 S
N86 Co72 2.140 . S
N86 C89 1.346 . S
N86 C90 1.345 . S
C87 C88 1.387 . S
C87 C91 1.391 . S
C88 C87 1.387 . S
C88 C89 1.369 . S
C88 H97 0.929 . S
C89 N86 1.346 . S
C89 C88 1.369 . S
C89 H92 0.928 . S
C90 N86 1.345 . S
C90 C91 1.371 . S
C90 H93 0.931 . S
C91 C87 1.391 . S
C91 C90 1.371 . S
C91 H98 0.930 . S
H92 C89 0.928 . S
H93 C90 0.931 . S
H94 C70 0.930 . S
H95 C67 0.930 . S
H96 C76 0.930 . S
H97 C88 0.929 . S
H98 C91 0.930 . S
C99 C100 1.351 . S
C99 N102 1.368 . S
C99 H104 0.931 . S
C100 C99 1.351 . S
C100 N101 1.373 . S
C100 H128 0.930 . S
N101 C100 1.373 . S
N101 C103 1.340 . S
N102 C99 1.368 . S
N102 C103 1.321 . S
N102 Co105 2.135 1_556 S
C103 N101 1.340 . S
C103 N102 1.321 . S
C103 H127 0.930 . S
H104 C99 0.931 . S
Co105 N102 2.135 1_554 S
Co105 N108 2.121 . S
Co105 O113 2.055 1_554 S
Co105 O116 2.039 . S
Co105 N119 2.140 . S
C106 O107 1.227 . S
C106 O116 1.265 . S
O107 C106 1.227 . S
N108 Co105 2.121 . S
N108 C110 1.375 . S
N108 C111 1.313 . S
C109 C110 1.338 . S
C109 N112 1.377 . S
C109 H129 0.930 . S
C110 N108 1.375 . S
C110 C109 1.338 . S
C110 H114 0.931 . S
C111 N108 1.313 . S
C111 N112 1.344 . S
C111 H115 0.930 . S
N112 C109 1.377 . S
N112 C111 1.344 . S
O113 Co105 2.055 1_556 S
O113 C117 1.253 . S
H114 C110 0.931 . S
H115 C111 0.930 . S
O116 Co105 2.039 . S
O116 C106 1.265 . S
C117 O113 1.253 . S
C117 O118 1.227 1_556 S
O118 C117 1.227 1_554 S
N119 Co105 2.140 . S
N119 C122 1.346 . S
N119 C123 1.345 . S
C120 C121 1.387 . S
C120 C124 1.391 . S
C121 C120 1.387 . S
C121 C122 1.369 . S
C121 H130 0.929 . S
C122 N119 1.346 . S
C122 C121 1.369 . S
C122 H125 0.928 . S
C123 N119 1.345 . S
C123 C124 1.371 . S
C123 H126 0.931 . S
C124 C120 1.391 . S
C124 C123 1.371 . S
C124 H131 0.930 . S
H125 C122 0.928 . S
H126 C123 0.931 . S
H127 C103 0.930 . S
H128 C100 0.930 . S
H129 C109 0.930 . S
H130 C121 0.929 . S
H131 C124 0.930 . S
C132 C133 1.351 . S
C132 N135 1.368 . S
C132 H137 0.931 . S
C133 C132 1.351 . S
C133 N134 1.373 . S
C133 H161 0.930 . S
N134 C133 1.373 . S
N134 C136 1.340 . S
N135 C132 1.368 . S
N135 C136 1.321 . S
N135 Co138 2.135 . S
C136 N134 1.340 . S
C136 N135 1.321 . S
C136 H160 0.930 . S
H137 C132 0.931 . S
Co138 N135 2.135 . S
Co138 N141 2.121 . S
Co138 O146 2.055 . S
Co138 O149 2.039 . S
Co138 N152 2.140 . S
C139 O140 1.227 . S
C139 O149 1.265 . S
O140 C139 1.227 . S
N141 Co138 2.121 . S
N141 C143 1.375 . S
N141 C144 1.313 . S
C142 C143 1.338 . S
C142 N145 1.377 . S
C142 H162 0.930 . S
C143 N141 1.375 . S
C143 C142 1.338 . S
C143 H147 0.931 . S
C144 N141 1.313 . S
C144 N145 1.344 . S
C144 H148 0.930 . S
N145 C142 1.377 . S
N145 C144 1.344 . S
O146 Co138 2.055 . S
O146 C150 1.253 . S
H147 C143 0.931 . S
H148 C144 0.930 . S
O149 Co138 2.039 . S
O149 C139 1.265 . S
C150 O146 1.253 . S
C150 O151 1.227 . S
O151 C150 1.227 . S
N152 Co138 2.140 . S
N152 C155 1.346 . S
N152 C156 1.345 . S
C153 C154 1.387 . S
C153 C157 1.391 . S
C154 C153 1.387 . S
C154 C155 1.369 . S
C154 H163 0.929 . S
C155 N152 1.346 . S
C155 C154 1.369 . S
C155 H158 0.928 . S
C156 N152 1.345 . S
C156 C157 1.371 . S
C156 H159 0.931 . S
C157 C153 1.391 . S
C157 C156 1.371 . S
C157 H164 0.930 . S
H158 C155 0.928 . S
H159 C156 0.931 . S
H160 C136 0.930 . S
H161 C133 0.930 . S
H162 C142 0.930 . S
H163 C154 0.929 . S
H164 C157 0.930 . S
C165 C166 1.351 . S
C165 N168 1.368 . S
C165 H170 0.931 . S
C166 C165 1.351 . S
C166 N167 1.373 . S
C166 H194 0.930 . S
N167 C166 1.373 . S
N167 C169 1.340 . S
N168 C165 1.368 . S
N168 C169 1.321 . S
N168 Co171 2.135 . S
C169 N167 1.340 . S
C169 N168 1.321 . S
C169 H193 0.930 . S
H170 C165 0.931 . S
Co171 N168 2.135 . S
Co171 N174 2.121 . S
Co171 O179 2.055 1_545 S
Co171 O182 2.039 . S
Co171 N185 2.140 . S
C172 O173 1.227 . S
C172 O182 1.265 . S
O173 C172 1.227 . S
N174 Co171 2.121 . S
N174 C176 1.375 . S
N174 C177 1.313 1_545 S
C175 C176 1.338 1_565 S
C175 N178 1.377 . S
C175 H195 0.930 . S
C176 N174 1.375 . S
C176 C175 1.338 1_545 S
C176 H180 0.931 . S
C177 N174 1.313 1_565 S
C177 N178 1.344 . S
C177 H181 0.930 . S
N178 C175 1.377 . S
N178 C177 1.344 . S
O179 Co171 2.055 1_565 S
O179 C183 1.253 . S
H180 C176 0.931 . S
H181 C177 0.930 . S
O182 Co171 2.039 . S
O182 C172 1.265 . S
C183 O179 1.253 . S
C183 O184 1.227 1_565 S
O184 C183 1.227 1_545 S
N185 Co171 2.140 . S
N185 C188 1.346 . S
N185 C189 1.345 . S
C186 C187 1.387 . S
C186 C190 1.391 . S
C187 C186 1.387 . S
C187 C188 1.369 . S
C187 H196 0.929 . S
C188 N185 1.346 . S
C188 C187 1.369 . S
C188 H191 0.928 . S
C189 N185 1.345 . S
C189 C190 1.371 . S
C189 H192 0.931 . S
C190 C186 1.391 . S
C190 C189 1.371 . S
C190 H197 0.930 . S
H191 C188 0.928 . S
H192 C189 0.931 . S
H193 C169 0.930 . S
H194 C166 0.930 . S
H195 C175 0.930 . S
H196 C187 0.929 . S
H197 C190 0.930 . S
C198 C199 1.351 . S
C198 N201 1.368 . S
C198 H203 0.931 . S
C199 C198 1.351 . S
C199 N200 1.373 . S
C199 H227 0.930 . S
N200 C199 1.373 . S
N200 C202 1.340 . S
N201 C198 1.368 . S
N201 C202 1.321 . S
N201 Co204 2.135 1_554 S
C202 N200 1.340 . S
C202 N201 1.321 . S
C202 H226 0.930 . S
H203 C198 0.931 . S
Co204 N201 2.135 1_556 S
Co204 N207 2.121 . S
Co204 O212 2.055 1_546 S
Co204 O215 2.039 . S
Co204 N218 2.140 . S
C205 O206 1.227 . S
C205 O215 1.265 . S
O206 C205 1.227 . S
N207 Co204 2.121 . S
N207 C209 1.375 . S
N207 C210 1.313 1_545 S
C208 C209 1.338 1_565 S
C208 N211 1.377 . S
C208 H228 0.930 . S
C209 N207 1.375 . S
C209 C208 1.338 1_545 S
C209 H213 0.931 . S
C210 N207 1.313 1_565 S
C210 N211 1.344 . S
C210 H214 0.930 . S
N211 C208 1.377 . S
N211 C210 1.344 . S
O212 Co204 2.055 1_564 S
O212 C216 1.253 . S
H213 C209 0.931 . S
H214 C210 0.930 . S
O215 Co204 2.039 . S
O215 C205 1.265 . S
C216 O212 1.253 . S
C216 O217 1.227 1_564 S
O217 C216 1.227 1_546 S
N218 Co204 2.140 . S
N218 C221 1.346 . S
N218 C222 1.345 . S
C219 C220 1.387 . S
C219 C223 1.391 . S
C220 C219 1.387 . S
C220 C221 1.369 . S
C220 H229 0.929 . S
C221 N218 1.346 . S
C221 C220 1.369 . S
C221 H224 0.928 . S
C222 N218 1.345 . S
C222 C223 1.371 . S
C222 H225 0.931 . S
C223 C219 1.391 . S
C223 C222 1.371 . S
C223 H230 0.930 . S
H224 C221 0.928 . S
H225 C222 0.931 . S
H226 C202 0.930 . S
H227 C199 0.930 . S
H228 C208 0.930 . S
H229 C220 0.929 . S
H230 C223 0.930 . S
C231 C232 1.351 . S
C231 N234 1.368 . S
C231 H236 0.931 . S
C232 C231 1.351 . S
C232 N233 1.373 . S
C232 H260 0.930 . S
N233 C232 1.373 . S
N233 C235 1.340 . S
N234 C231 1.368 . S
N234 C235 1.321 . S
N234 Co237 2.135 1_554 S
C235 N233 1.340 . S
C235 N234 1.321 . S
C235 H259 0.930 . S
H236 C231 0.931 . S
Co237 N234 2.135 1_556 S
Co237 N240 2.121 . S
Co237 O245 2.055 1_556 S
Co237 O248 2.039 . S
Co237 N251 2.140 . S
C238 O239 1.227 . S
C238 O248 1.265 . S
O239 C238 1.227 . S
N240 Co237 2.121 . S
N240 C242 1.375 . S
N240 C243 1.313 . S
C241 C242 1.338 . S
C241 N244 1.377 . S
C241 H261 0.930 . S
C242 N240 1.375 . S
C242 C241 1.338 . S
C242 H246 0.931 . S
C243 N240 1.313 . S
C243 N244 1.344 . S
C243 H247 0.930 . S
N244 C241 1.377 . S
N244 C243 1.344 . S
O245 Co237 2.055 1_554 S
O245 C249 1.253 . S
H246 C242 0.931 . S
H247 C243 0.930 . S
O248 Co237 2.039 . S
O248 C238 1.265 . S
C249 O245 1.253 . S
C249 O250 1.227 1_554 S
O250 C249 1.227 1_556 S
N251 Co237 2.140 . S
N251 C254 1.346 . S
N251 C255 1.345 . S
C252 C253 1.387 . S
C252 C256 1.391 . S
C253 C252 1.387 . S
C253 C254 1.369 . S
C253 H262 0.929 . S
C254 N251 1.346 . S
C254 C253 1.369 . S
C254 H257 0.928 . S
C255 N251 1.345 . S
C255 C256 1.371 . S
C255 H258 0.931 . S
C256 C252 1.391 . S
C256 C255 1.371 . S
C256 H263 0.930 . S
H257 C254 0.928 . S
H258 C255 0.931 . S
H259 C235 0.930 . S
H260 C232 0.930 . S
H261 C241 0.930 . S
H262 C253 0.929 . S
H263 C256 0.930 . S
C264 C265 1.351 . S
C264 N267 1.368 . S
C264 H269 0.931 . S
C265 C264 1.351 . S
C265 N266 1.373 . S
C265 H293 0.930 . S
N266 C265 1.373 . S
N266 C268 1.340 . S
N267 C264 1.368 . S
N267 C268 1.321 . S
N267 Co270 2.135 . S
C268 N266 1.340 . S
C268 N267 1.321 . S
C268 H292 0.930 . S
H269 C264 0.931 . S
Co270 N267 2.135 . S
Co270 N273 2.121 . S
Co270 O278 2.055 . S
Co270 O281 2.039 . S
Co270 N284 2.140 . S
C271 O272 1.227 . S
C271 O281 1.265 . S
O272 C271 1.227 . S
N273 Co270 2.121 . S
N273 C275 1.375 . S
N273 C276 1.313 . S
C274 C275 1.338 . S
C274 N277 1.377 . S
C274 H294 0.930 . S
C275 N273 1.375 . S
C275 C274 1.338 . S
C275 H279 0.931 . S
C276 N273 1.313 . S
C276 N277 1.344 . S
C276 H280 0.930 . S
N277 C274 1.377 . S
N277 C276 1.344 . S
O278 Co270 2.055 . S
O278 C282 1.253 . S
H279 C275 0.931 . S
H280 C276 0.930 . S
O281 Co270 2.039 . S
O281 C271 1.265 . S
C282 O278 1.253 . S
C282 O283 1.227 . S
O283 C282 1.227 . S
N284 Co270 2.140 . S
N284 C287 1.346 . S
N284 C288 1.345 . S
C285 C286 1.387 . S
C285 C289 1.391 . S
C286 C285 1.387 . S
C286 C287 1.369 . S
C286 H295 0.929 . S
C287 N284 1.346 . S
C287 C286 1.369 . S
C287 H290 0.928 . S
C288 N284 1.345 . S
C288 C289 1.371 . S
C288 H291 0.931 . S
C289 C285 1.391 . S
C289 C288 1.371 . S
C289 H296 0.930 . S
H290 C287 0.928 . S
H291 C288 0.931 . S
H292 C268 0.930 . S
H293 C265 0.930 . S
H294 C274 0.930 . S
H295 C286 0.929 . S
H296 C289 0.930 . S
C297 C298 1.351 . S
C297 N300 1.368 . S
C297 H302 0.931 . S
C298 C297 1.351 . S
C298 N299 1.373 . S
C298 H326 0.930 . S
N299 C298 1.373 . S
N299 C301 1.340 . S
N300 C297 1.368 . S
N300 C301 1.321 . S
N300 Co303 2.135 . S
C301 N299 1.340 . S
C301 N300 1.321 . S
C301 H325 0.930 . S
H302 C297 0.931 . S
Co303 N300 2.135 . S
Co303 N306 2.121 . S
Co303 O311 2.055 . S
Co303 O314 2.039 . S
Co303 N317 2.140 . S
C304 O305 1.227 . S
C304 O314 1.265 . S
O305 C304 1.227 . S
N306 Co303 2.121 . S
N306 C308 1.375 . S
N306 C309 1.313 . S
C307 C308 1.338 . S
C307 N310 1.377 . S
C307 H327 0.930 . S
C308 N306 1.375 . S
C308 C307 1.338 . S
C308 H312 0.931 . S
C309 N306 1.313 . S
C309 N310 1.344 . S
C309 H313 0.930 . S
N310 C307 1.377 . S
N310 C309 1.344 . S
O311 Co303 2.055 . S
O311 C315 1.253 . S
H312 C308 0.931 . S
H313 C309 0.930 . S
O314 Co303 2.039 . S
O314 C304 1.265 . S
C315 O311 1.253 . S
C315 O316 1.227 . S
O316 C315 1.227 . S
N317 Co303 2.140 . S
N317 C320 1.346 . S
N317 C321 1.345 . S
C318 C319 1.387 . S
C318 C322 1.391 . S
C319 C318 1.387 . S
C319 C320 1.369 . S
C319 H328 0.929 . S
C320 N317 1.346 . S
C320 C319 1.369 . S
C320 H323 0.928 . S
C321 N317 1.345 . S
C321 C322 1.371 . S
C321 H324 0.931 . S
C322 C318 1.391 . S
C322 C321 1.371 . S
C322 H329 0.930 . S
H323 C320 0.928 . S
H324 C321 0.931 . S
H325 C301 0.930 . S
H326 C298 0.930 . S
H327 C307 0.930 . S
H328 C319 0.929 . S
H329 C322 0.930 . S
C330 C331 1.351 . S
C330 N333 1.368 . S
C330 H335 0.931 . S
C331 C330 1.351 . S
C331 N332 1.373 . S
C331 H359 0.930 . S
N332 C331 1.373 . S
N332 C334 1.340 . S
N333 C330 1.368 . S
N333 C334 1.321 . S
N333 Co336 2.135 . S
C334 N332 1.340 . S
C334 N333 1.321 . S
C334 H358 0.930 . S
H335 C330 0.931 . S
Co336 N333 2.135 . S
Co336 N339 2.121 . S
Co336 O344 2.055 . S
Co336 O347 2.039 . S
Co336 N350 2.140 . S
C337 O338 1.227 . S
C337 O347 1.265 . S
O338 C337 1.227 . S
N339 Co336 2.121 . S
N339 C341 1.375 . S
N339 C342 1.313 . S
C340 C341 1.338 . S
C340 N343 1.377 . S
C340 H360 0.930 . S
C341 N339 1.375 . S
C341 C340 1.338 . S
C341 H345 0.931 . S
C342 N339 1.313 . S
C342 N343 1.344 . S
C342 H346 0.930 . S
N343 C340 1.377 . S
N343 C342 1.344 . S
O344 Co336 2.055 . S
O344 C348 1.253 . S
H345 C341 0.931 . S
H346 C342 0.930 . S
O347 Co336 2.039 . S
O347 C337 1.265 . S
C348 O344 1.253 . S
C348 O349 1.227 . S
O349 C348 1.227 . S
N350 Co336 2.140 . S
N350 C353 1.346 . S
N350 C354 1.345 . S
C351 C352 1.387 . S
C351 C355 1.391 . S
C352 C351 1.387 . S
C352 C353 1.369 . S
C352 H361 0.929 . S
C353 N350 1.346 . S
C353 C352 1.369 . S
C353 H356 0.928 . S
C354 N350 1.345 . S
C354 C355 1.371 . S
C354 H357 0.931 . S
C355 C351 1.391 . S
C355 C354 1.371 . S
C355 H362 0.930 . S
H356 C353 0.928 . S
H357 C354 0.931 . S
H358 C334 0.930 . S
H359 C331 0.930 . S
H360 C340 0.930 . S
H361 C352 0.929 . S
H362 C355 0.930 . S
C363 C364 1.351 . S
C363 N366 1.368 . S
C363 H368 0.931 . S
C364 C363 1.351 . S
C364 N365 1.373 . S
C364 H392 0.930 . S
N365 C364 1.373 . S
N365 C367 1.340 . S
N366 C363 1.368 . S
N366 C367 1.321 . S
N366 Co369 2.135 . S
C367 N365 1.340 . S
C367 N366 1.321 . S
C367 H391 0.930 . S
H368 C363 0.931 . S
Co369 N366 2.135 . S
Co369 N372 2.121 . S
Co369 O377 2.055 . S
Co369 O380 2.039 . S
Co369 N383 2.140 . S
C370 O371 1.227 . S
C370 O380 1.265 . S
O371 C370 1.227 . S
N372 Co369 2.121 . S
N372 C374 1.375 . S
N372 C375 1.313 . S
C373 C374 1.338 . S
C373 N376 1.377 . S
C373 H393 0.930 . S
C374 N372 1.375 . S
C374 C373 1.338 . S
C374 H378 0.931 . S
C375 N372 1.313 . S
C375 N376 1.344 . S
C375 H379 0.930 . S
N376 C373 1.377 . S
N376 C375 1.344 . S
O377 Co369 2.055 . S
O377 C381 1.253 . S
H378 C374 0.931 . S
H379 C375 0.930 . S
O380 Co369 2.039 . S
O380 C370 1.265 . S
C381 O377 1.253 . S
C381 O382 1.227 . S
O382 C381 1.227 . S
N383 Co369 2.140 . S
N383 C386 1.346 . S
N383 C387 1.345 . S
C384 C385 1.387 . S
C384 C388 1.391 . S
C385 C384 1.387 . S
C385 C386 1.369 . S
C385 H394 0.929 . S
C386 N383 1.346 . S
C386 C385 1.369 . S
C386 H389 0.928 . S
C387 N383 1.345 . S
C387 C388 1.371 . S
C387 H390 0.931 . S
C388 C384 1.391 . S
C388 C387 1.371 . S
C388 H395 0.930 . S
H389 C386 0.928 . S
H390 C387 0.931 . S
H391 C367 0.930 . S
H392 C364 0.930 . S
H393 C373 0.930 . S
H394 C385 0.929 . S
H395 C388 0.930 . S
C396 C397 1.351 . S
C396 N399 1.368 . S
C396 H401 0.931 . S
C397 C396 1.351 . S
C397 N398 1.373 . S
C397 H425 0.930 . S
N398 C397 1.373 . S
N398 C400 1.340 . S
N399 C396 1.368 . S
N399 C400 1.321 . S
N399 Co402 2.135 . S
C400 N398 1.340 . S
C400 N399 1.321 . S
C400 H424 0.930 . S
H401 C396 0.931 . S
Co402 N399 2.135 . S
Co402 N405 2.121 . S
Co402 O410 2.055 . S
Co402 O413 2.039 . S
Co402 N416 2.140 . S
C403 O404 1.227 . S
C403 O413 1.265 . S
O404 C403 1.227 . S
N405 Co402 2.121 . S
N405 C407 1.375 . S
N405 C408 1.313 . S
C406 C407 1.338 . S
C406 N409 1.377 . S
C406 H426 0.930 . S
C407 N405 1.375 . S
C407 C406 1.338 . S
C407 H411 0.931 . S
C408 N405 1.313 . S
C408 N409 1.344 . S
C408 H412 0.930 . S
N409 C406 1.377 . S
N409 C408 1.344 . S
O410 Co402 2.055 . S
O410 C414 1.253 . S
H411 C407 0.931 . S
H412 C408 0.930 . S
O413 Co402 2.039 . S
O413 C403 1.265 . S
C414 O410 1.253 . S
C414 O415 1.227 . S
O415 C414 1.227 . S
N416 Co402 2.140 . S
N416 C419 1.346 . S
N416 C420 1.345 . S
C417 C418 1.387 . S
C417 C421 1.391 . S
C418 C417 1.387 . S
C418 C419 1.369 . S
C418 H427 0.929 . S
C419 N416 1.346 . S
C419 C418 1.369 . S
C419 H422 0.928 . S
C420 N416 1.345 . S
C420 C421 1.371 . S
C420 H423 0.931 . S
C421 C417 1.391 . S
C421 C420 1.371 . S
C421 H428 0.930 . S
H422 C419 0.928 . S
H423 C420 0.931 . S
H424 C400 0.930 . S
H425 C397 0.930 . S
H426 C406 0.930 . S
H427 C418 0.929 . S
H428 C421 0.930 . S
C429 C430 1.351 . S
C429 N432 1.368 . S
C429 H434 0.931 . S
C430 C429 1.351 . S
C430 N431 1.373 . S
C430 H458 0.930 . S
N431 C430 1.373 . S
N431 C433 1.340 . S
N432 C429 1.368 . S
N432 C433 1.321 . S
N432 Co435 2.135 . S
C433 N431 1.340 . S
C433 N432 1.321 . S
C433 H457 0.930 . S
H434 C429 0.931 . S
Co435 N432 2.135 . S
Co435 N438 2.121 . S
Co435 O443 2.055 . S
Co435 O446 2.039 . S
Co435 N449 2.140 . S
C436 O437 1.227 . S
C436 O446 1.265 . S
O437 C436 1.227 . S
N438 Co435 2.121 . S
N438 C440 1.375 . S
N438 C441 1.313 . S
C439 C440 1.338 . S
C439 N442 1.377 . S
C439 H459 0.930 . S
C440 N438 1.375 . S
C440 C439 1.338 . S
C440 H444 0.931 . S
C441 N438 1.313 . S
C441 N442 1.344 . S
C441 H445 0.930 . S
N442 C439 1.377 . S
N442 C441 1.344 . S
O443 Co435 2.055 . S
O443 C447 1.253 . S
H444 C440 0.931 . S
H445 C441 0.930 . S
O446 Co435 2.039 . S
O446 C436 1.265 . S
C447 O443 1.253 . S
C447 O448 1.227 . S
O448 C447 1.227 . S
N449 Co435 2.140 . S
N449 C452 1.346 . S
N449 C453 1.345 . S
C450 C451 1.387 . S
C450 C454 1.391 . S
C451 C450 1.387 . S
C451 C452 1.369 . S
C451 H460 0.929 . S
C452 N449 1.346 . S
C452 C451 1.369 . S
C452 H455 0.928 . S
C453 N449 1.345 . S
C453 C454 1.371 . S
C453 H456 0.931 . S
C454 C450 1.391 . S
C454 C453 1.371 . S
C454 H461 0.930 . S
H455 C452 0.928 . S
H456 C453 0.931 . S
H457 C433 0.930 . S
H458 C430 0.930 . S
H459 C439 0.930 . S
H460 C451 0.929 . S
H461 C454 0.930 . S
C462 C463 1.351 . S
C462 N465 1.368 . S
C462 H467 0.931 . S
C463 C462 1.351 . S
C463 N464 1.373 . S
C463 H491 0.930 . S
N464 C463 1.373 . S
N464 C466 1.340 . S
N465 C462 1.368 . S
N465 C466 1.321 . S
N465 Co468 2.135 . S
C466 N464 1.340 . S
C466 N465 1.321 . S
C466 H490 0.930 . S
H467 C462 0.931 . S
Co468 N465 2.135 . S
Co468 N471 2.121 . S
Co468 O476 2.055 . S
Co468 O479 2.039 . S
Co468 N482 2.140 . S
C469 O470 1.227 . S
C469 O479 1.265 . S
O470 C469 1.227 . S
N471 Co468 2.121 . S
N471 C473 1.375 . S
N471 C474 1.313 . S
C472 C473 1.338 . S
C472 N475 1.377 . S
C472 H492 0.930 . S
C473 N471 1.375 . S
C473 C472 1.338 . S
C473 H477 0.931 . S
C474 N471 1.313 . S
C474 N475 1.344 . S
C474 H478 0.930 . S
N475 C472 1.377 . S
N475 C474 1.344 . S
O476 Co468 2.055 . S
O476 C480 1.253 . S
H477 C473 0.931 . S
H478 C474 0.930 . S
O479 Co468 2.039 . S
O479 C469 1.265 . S
C480 O476 1.253 . S
C480 O481 1.227 . S
O481 C480 1.227 . S
N482 Co468 2.140 . S
N482 C485 1.346 . S
N482 C486 1.345 . S
C483 C484 1.387 . S
C483 C487 1.391 . S
C484 C483 1.387 . S
C484 C485 1.369 . S
C484 H493 0.929 . S
C485 N482 1.346 . S
C485 C484 1.369 . S
C485 H488 0.928 . S
C486 N482 1.345 . S
C486 C487 1.371 . S
C486 H489 0.931 . S
C487 C483 1.391 . S
C487 C486 1.371 . S
C487 H494 0.930 . S
H488 C485 0.928 . S
H489 C486 0.931 . S
H490 C466 0.930 . S
H491 C463 0.930 . S
H492 C472 0.930 . S
H493 C484 0.929 . S
H494 C487 0.930 . S
C495 C496 1.351 . S
C495 N498 1.368 . S
C495 H500 0.931 . S
C496 C495 1.351 . S
C496 N497 1.373 . S
C496 H524 0.930 . S
N497 C496 1.373 . S
N497 C499 1.340 . S
N498 C495 1.368 . S
N498 C499 1.321 . S
N498 Co501 2.135 . S
C499 N497 1.340 . S
C499 N498 1.321 . S
C499 H523 0.930 . S
H500 C495 0.931 . S
Co501 N498 2.135 . S
Co501 N504 2.121 . S
Co501 O509 2.055 . S
Co501 O512 2.039 . S
Co501 N515 2.140 . S
C502 O503 1.227 . S
C502 O512 1.265 . S
O503 C502 1.227 . S
N504 Co501 2.121 . S
N504 C506 1.375 . S
N504 C507 1.313 . S
C505 C506 1.338 . S
C505 N508 1.377 . S
C505 H525 0.930 . S
C506 N504 1.375 . S
C506 C505 1.338 . S
C506 H510 0.931 . S
C507 N504 1.313 . S
C507 N508 1.344 . S
C507 H511 0.930 . S
N508 C505 1.377 . S
N508 C507 1.344 . S
O509 Co501 2.055 . S
O509 C513 1.253 . S
H510 C506 0.931 . S
H511 C507 0.930 . S
O512 Co501 2.039 . S
O512 C502 1.265 . S
C513 O509 1.253 . S
C513 O514 1.227 . S
O514 C513 1.227 . S
N515 Co501 2.140 . S
N515 C518 1.346 . S
N515 C519 1.345 . S
C516 C517 1.387 . S
C516 C520 1.391 . S
C517 C516 1.387 . S
C517 C518 1.369 . S
C517 H526 0.929 . S
C518 N515 1.346 . S
C518 C517 1.369 . S
C518 H521 0.928 . S
C519 N515 1.345 . S
C519 C520 1.371 . S
C519 H522 0.931 . S
C520 C516 1.391 . S
C520 C519 1.371 . S
C520 H527 0.930 . S
H521 C518 0.928 . S
H522 C519 0.931 . S
H523 C499 0.930 . S
H524 C496 0.930 . S
H525 C505 0.930 . S
H526 C517 0.929 . S
H527 C520 0.930 . S
C528 C529 1.351 . S
C528 N531 1.368 . S
C528 H533 0.931 . S
C529 C528 1.351 . S
C529 N530 1.373 . S
C529 H557 0.930 . S
N530 C529 1.373 . S
N530 C532 1.340 . S
N531 C528 1.368 . S
N531 C532 1.321 . S
N531 Co534 2.135 . S
C532 N530 1.340 . S
C532 N531 1.321 . S
C532 H556 0.930 . S
H533 C528 0.931 . S
Co534 N531 2.135 . S
Co534 N537 2.121 . S
Co534 O542 2.055 . S
Co534 O545 2.039 . S
Co534 N548 2.140 . S
C535 O536 1.227 . S
C535 O545 1.265 . S
O536 C535 1.227 . S
N537 Co534 2.121 . S
N537 C539 1.375 . S
N537 C540 1.313 . S
C538 C539 1.338 . S
C538 N541 1.377 . S
C538 H558 0.930 . S
C539 N537 1.375 . S
C539 C538 1.338 . S
C539 H543 0.931 . S
C540 N537 1.313 . S
C540 N541 1.344 . S
C540 H544 0.930 . S
N541 C538 1.377 . S
N541 C540 1.344 . S
O542 Co534 2.055 . S
O542 C546 1.253 . S
H543 C539 0.931 . S
H544 C540 0.930 . S
O545 Co534 2.039 . S
O545 C535 1.265 . S
C546 O542 1.253 . S
C546 O547 1.227 . S
O547 C546 1.227 . S
N548 Co534 2.140 . S
N548 C551 1.346 . S
N548 C552 1.345 . S
C549 C550 1.387 . S
C549 C553 1.391 . S
C550 C549 1.387 . S
C550 C551 1.369 . S
C550 H559 0.929 . S
C551 N548 1.346 . S
C551 C550 1.369 . S
C551 H554 0.928 . S
C552 N548 1.345 . S
C552 C553 1.371 . S
C552 H555 0.931 . S
C553 C549 1.391 . S
C553 C552 1.371 . S
C553 H560 0.930 . S
H554 C551 0.928 . S
H555 C552 0.931 . S
H556 C532 0.930 . S
H557 C529 0.930 . S
H558 C538 0.930 . S
H559 C550 0.929 . S
H560 C553 0.930 . S
C561 C562 1.351 . S
C561 N564 1.368 . S
C561 H566 0.931 . S
C562 C561 1.351 . S
C562 N563 1.373 . S
C562 H590 0.930 . S
N563 C562 1.373 . S
N563 C565 1.340 . S
N564 C561 1.368 . S
N564 C565 1.321 . S
N564 Co567 2.135 . S
C565 N563 1.340 . S
C565 N564 1.321 . S
C565 H589 0.930 . S
H566 C561 0.931 . S
Co567 N564 2.135 . S
Co567 N570 2.121 . S
Co567 O575 2.055 1_565 S
Co567 O578 2.039 . S
Co567 N581 2.140 . S
C568 O569 1.227 . S
C568 O578 1.265 . S
O569 C568 1.227 . S
N570 Co567 2.121 . S
N570 C572 1.375 . S
N570 C573 1.313 1_565 S
C571 C572 1.338 1_545 S
C571 N574 1.377 . S
C571 H591 0.930 . S
C572 N570 1.375 . S
C572 C571 1.338 1_565 S
C572 H576 0.931 . S
C573 N570 1.313 1_545 S
C573 N574 1.344 . S
C573 H577 0.930 . S
N574 C571 1.377 . S
N574 C573 1.344 . S
O575 Co567 2.055 1_545 S
O575 C579 1.253 . S
H576 C572 0.931 . S
H577 C573 0.930 . S
O578 Co567 2.039 . S
O578 C568 1.265 . S
C579 O575 1.253 . S
C579 O580 1.227 1_545 S
O580 C579 1.227 1_565 S
N581 Co567 2.140 . S
N581 C584 1.346 . S
N581 C585 1.345 . S
C582 C583 1.387 . S
C582 C586 1.391 . S
C583 C582 1.387 . S
C583 C584 1.369 . S
C583 H592 0.929 . S
C584 N581 1.346 . S
C584 C583 1.369 . S
C584 H587 0.928 . S
C585 N581 1.345 . S
C585 C586 1.371 . S
C585 H588 0.931 . S
C586 C582 1.391 . S
C586 C585 1.371 . S
C586 H593 0.930 . S
H587 C584 0.928 . S
H588 C585 0.931 . S
H589 C565 0.930 . S
H590 C562 0.930 . S
H591 C571 0.930 . S
H592 C583 0.929 . S
H593 C586 0.930 . S
C594 C595 1.351 . S
C594 N597 1.368 . S
C594 H599 0.931 . S
C595 C594 1.351 . S
C595 N596 1.373 . S
C595 H623 0.930 . S
N596 C595 1.373 . S
N596 C598 1.340 . S
N597 C594 1.368 . S
N597 C598 1.321 . S
N597 Co600 2.135 . S
C598 N596 1.340 . S
C598 N597 1.321 . S
C598 H622 0.930 . S
H599 C594 0.931 . S
Co600 N597 2.135 . S
Co600 N603 2.121 . S
Co600 O608 2.055 1_565 S
Co600 O611 2.039 . S
Co600 N614 2.140 . S
C601 O602 1.227 . S
C601 O611 1.265 . S
O602 C601 1.227 . S
N603 Co600 2.121 . S
N603 C605 1.375 . S
N603 C606 1.313 1_565 S
C604 C605 1.338 1_545 S
C604 N607 1.377 . S
C604 H624 0.930 . S
C605 N603 1.375 . S
C605 C604 1.338 1_565 S
C605 H609 0.931 . S
C606 N603 1.313 1_545 S
C606 N607 1.344 . S
C606 H610 0.930 . S
N607 C604 1.377 . S
N607 C606 1.344 . S
O608 Co600 2.055 1_545 S
O608 C612 1.253 . S
H609 C605 0.931 . S
H610 C606 0.930 . S
O611 Co600 2.039 . S
O611 C601 1.265 . S
C612 O608 1.253 . S
C612 O613 1.227 1_545 S
O613 C612 1.227 1_565 S
N614 Co600 2.140 . S
N614 C617 1.346 . S
N614 C618 1.345 . S
C615 C616 1.387 . S
C615 C619 1.391 . S
C616 C615 1.387 . S
C616 C617 1.369 . S
C616 H625 0.929 . S
C617 N614 1.346 . S
C617 C616 1.369 . S
C617 H620 0.928 . S
C618 N614 1.345 . S
C618 C619 1.371 . S
C618 H621 0.931 . S
C619 C615 1.391 . S
C619 C618 1.371 . S
C619 H626 0.930 . S
H620 C617 0.928 . S
H621 C618 0.931 . S
H622 C598 0.930 . S
H623 C595 0.930 . S
H624 C604 0.930 . S
H625 C616 0.929 . S
H626 C619 0.930 . S
C627 C628 1.351 . S
C627 N630 1.368 . S
C627 H632 0.931 . S
C628 C627 1.351 . S
C628 N629 1.373 . S
C628 H656 0.930 . S
N629 C628 1.373 . S
N629 C631 1.340 . S
N630 C627 1.368 . S
N630 C631 1.321 . S
N630 Co633 2.135 . S
C631 N629 1.340 . S
C631 N630 1.321 . S
C631 H655 0.930 . S
H632 C627 0.931 . S
Co633 N630 2.135 . S
Co633 N636 2.121 . S
Co633 O641 2.055 . S
Co633 O644 2.039 . S
Co633 N647 2.140 . S
C634 O635 1.227 . S
C634 O644 1.265 . S
O635 C634 1.227 . S
N636 Co633 2.121 . S
N636 C638 1.375 . S
N636 C639 1.313 . S
C637 C638 1.338 . S
C637 N640 1.377 . S
C637 H657 0.930 . S
C638 N636 1.375 . S
C638 C637 1.338 . S
C638 H642 0.931 . S
C639 N636 1.313 . S
C639 N640 1.344 . S
C639 H643 0.930 . S
N640 C637 1.377 . S
N640 C639 1.344 . S
O641 Co633 2.055 . S
O641 C645 1.253 . S
H642 C638 0.931 . S
H643 C639 0.930 . S
O644 Co633 2.039 . S
O644 C634 1.265 . S
C645 O641 1.253 . S
C645 O646 1.227 . S
O646 C645 1.227 . S
N647 Co633 2.140 . S
N647 C650 1.346 . S
N647 C651 1.345 . S
C648 C649 1.387 . S
C648 C652 1.391 . S
C649 C648 1.387 . S
C649 C650 1.369 . S
C649 H658 0.929 . S
C650 N647 1.346 . S
C650 C649 1.369 . S
C650 H653 0.928 . S
C651 N647 1.345 . S
C651 C652 1.371 . S
C651 H654 0.931 . S
C652 C648 1.391 . S
C652 C651 1.371 . S
C652 H659 0.930 . S
H653 C650 0.928 . S
H654 C651 0.931 . S
H655 C631 0.930 . S
H656 C628 0.930 . S
H657 C637 0.930 . S
H658 C649 0.929 . S
H659 C652 0.930 . S
C660 C661 1.351 . S
C660 N663 1.368 . S
C660 H665 0.931 . S
C661 C660 1.351 . S
C661 N662 1.373 . S
C661 H689 0.930 . S
N662 C661 1.373 . S
N662 C664 1.340 . S
N663 C660 1.368 . S
N663 C664 1.321 . S
N663 Co666 2.135 . S
C664 N662 1.340 . S
C664 N663 1.321 . S
C664 H688 0.930 . S
H665 C660 0.931 . S
Co666 N663 2.135 . S
Co666 N669 2.121 . S
Co666 O674 2.055 . S
Co666 O677 2.039 . S
Co666 N680 2.140 . S
C667 O668 1.227 . S
C667 O677 1.265 . S
O668 C667 1.227 . S
N669 Co666 2.121 . S
N669 C671 1.375 . S
N669 C672 1.313 . S
C670 C671 1.338 . S
C670 N673 1.377 . S
C670 H690 0.930 . S
C671 N669 1.375 . S
C671 C670 1.338 . S
C671 H675 0.931 . S
C672 N669 1.313 . S
C672 N673 1.344 . S
C672 H676 0.930 . S
N673 C670 1.377 . S
N673 C672 1.344 . S
O674 Co666 2.055 . S
O674 C678 1.253 . S
H675 C671 0.931 . S
H676 C672 0.930 . S
O677 Co666 2.039 . S
O677 C667 1.265 . S
C678 O674 1.253 . S
C678 O679 1.227 . S
O679 C678 1.227 . S
N680 Co666 2.140 . S
N680 C683 1.346 . S
N680 C684 1.345 . S
C681 C682 1.387 . S
C681 C685 1.391 . S
C682 C681 1.387 . S
C682 C683 1.369 . S
C682 H691 0.929 . S
C683 N680 1.346 . S
C683 C682 1.369 . S
C683 H686 0.928 . S
C684 N680 1.345 . S
C684 C685 1.371 . S
C684 H687 0.931 . S
C685 C681 1.391 . S
C685 C684 1.371 . S
C685 H692 0.930 . S
H686 C683 0.928 . S
H687 C684 0.931 . S
H688 C664 0.930 . S
H689 C661 0.930 . S
H690 C670 0.930 . S
H691 C682 0.929 . S
H692 C685 0.930 . S
C693 C694 1.351 . S
C693 N696 1.368 . S
C693 H698 0.931 . S
C694 C693 1.351 . S
C694 N695 1.373 . S
C694 H722 0.930 . S
N695 C694 1.373 . S
N695 C697 1.340 . S
N696 C693 1.368 . S
N696 C697 1.321 . S
N696 Co699 2.135 . S
C697 N695 1.340 . S
C697 N696 1.321 . S
C697 H721 0.930 . S
H698 C693 0.931 . S
Co699 N696 2.135 . S
Co699 N702 2.121 . S
Co699 O707 2.055 1_545 S
Co699 O710 2.039 . S
Co699 N713 2.140 . S
C700 O701 1.227 . S
C700 O710 1.265 . S
O701 C700 1.227 . S
N702 Co699 2.121 . S
N702 C704 1.375 . S
N702 C705 1.313 1_545 S
C703 C704 1.338 1_565 S
C703 N706 1.377 . S
C703 H723 0.930 . S
C704 N702 1.375 . S
C704 C703 1.338 1_545 S
C704 H708 0.931 . S
C705 N702 1.313 1_565 S
C705 N706 1.344 . S
C705 H709 0.930 . S
N706 C703 1.377 . S
N706 C705 1.344 . S
O707 Co699 2.055 1_565 S
O707 C711 1.253 . S
H708 C704 0.931 . S
H709 C705 0.930 . S
O710 Co699 2.039 . S
O710 C700 1.265 . S
C711 O707 1.253 . S
C711 O712 1.227 1_565 S
O712 C711 1.227 1_545 S
N713 Co699 2.140 . S
N713 C716 1.346 . S
N713 C717 1.345 . S
C714 C715 1.387 . S
C714 C718 1.391 . S
C715 C714 1.387 . S
C715 C716 1.369 . S
C715 H724 0.929 . S
C716 N713 1.346 . S
C716 C715 1.369 . S
C716 H719 0.928 . S
C717 N713 1.345 . S
C717 C718 1.371 . S
C717 H720 0.931 . S
C718 C714 1.391 . S
C718 C717 1.371 . S
C718 H725 0.930 . S
H719 C716 0.928 . S
H720 C717 0.931 . S
H721 C697 0.930 . S
H722 C694 0.930 . S
H723 C703 0.930 . S
H724 C715 0.929 . S
H725 C718 0.930 . S
C726 C727 1.351 . S
C726 N729 1.368 . S
C726 H731 0.931 . S
C727 C726 1.351 . S
C727 N728 1.373 . S
C727 H755 0.930 . S
N728 C727 1.373 . S
N728 C730 1.340 . S
N729 C726 1.368 . S
N729 C730 1.321 . S
N729 Co732 2.135 . S
C730 N728 1.340 . S
C730 N729 1.321 . S
C730 H754 0.930 . S
H731 C726 0.931 . S
Co732 N729 2.135 . S
Co732 N735 2.121 . S
Co732 O740 2.055 1_545 S
Co732 O743 2.039 . S
Co732 N746 2.140 . S
C733 O734 1.227 . S
C733 O743 1.265 . S
O734 C733 1.227 . S
N735 Co732 2.121 . S
N735 C737 1.375 . S
N735 C738 1.313 1_545 S
C736 C737 1.338 1_565 S
C736 N739 1.377 . S
C736 H756 0.930 . S
C737 N735 1.375 . S
C737 C736 1.338 1_545 S
C737 H741 0.931 . S
C738 N735 1.313 1_565 S
C738 N739 1.344 . S
C738 H742 0.930 . S
N739 C736 1.377 . S
N739 C738 1.344 . S
O740 Co732 2.055 1_565 S
O740 C744 1.253 . S
H741 C737 0.931 . S
H742 C738 0.930 . S
O743 Co732 2.039 . S
O743 C733 1.265 . S
C744 O740 1.253 . S
C744 O745 1.227 1_565 S
O745 C744 1.227 1_545 S
N746 Co732 2.140 . S
N746 C749 1.346 . S
N746 C750 1.345 . S
C747 C748 1.387 . S
C747 C751 1.391 . S
C748 C747 1.387 . S
C748 C749 1.369 . S
C748 H757 0.929 . S
C749 N746 1.346 . S
C749 C748 1.369 . S
C749 H752 0.928 . S
C750 N746 1.345 . S
C750 C751 1.371 . S
C750 H753 0.931 . S
C751 C747 1.391 . S
C751 C750 1.371 . S
C751 H758 0.930 . S
H752 C749 0.928 . S
H753 C750 0.931 . S
H754 C730 0.930 . S
H755 C727 0.930 . S
H756 C736 0.930 . S
H757 C748 0.929 . S
H758 C751 0.930 . S
C759 C760 1.351 . S
C759 N762 1.368 . S
C759 H764 0.931 . S
C760 C759 1.351 . S
C760 N761 1.373 . S
C760 H788 0.930 . S
N761 C760 1.373 . S
N761 C763 1.340 . S
N762 C759 1.368 . S
N762 C763 1.321 . S
N762 Co765 2.135 . S
C763 N761 1.340 . S
C763 N762 1.321 . S
C763 H787 0.930 . S
H764 C759 0.931 . S
Co765 N762 2.135 . S
Co765 N768 2.121 . S
Co765 O773 2.055 . S
Co765 O776 2.039 . S
Co765 N779 2.140 . S
C766 O767 1.227 . S
C766 O776 1.265 . S
O767 C766 1.227 . S
N768 Co765 2.121 . S
N768 C770 1.375 . S
N768 C771 1.313 . S
C769 C770 1.338 . S
C769 N772 1.377 . S
C769 H789 0.930 . S
C770 N768 1.375 . S
C770 C769 1.338 . S
C770 H774 0.931 . S
C771 N768 1.313 . S
C771 N772 1.344 . S
C771 H775 0.930 . S
N772 C769 1.377 . S
N772 C771 1.344 . S
O773 Co765 2.055 . S
O773 C777 1.253 . S
H774 C770 0.931 . S
H775 C771 0.930 . S
O776 Co765 2.039 . S
O776 C766 1.265 . S
C777 O773 1.253 . S
C777 O778 1.227 . S
O778 C777 1.227 . S
N779 Co765 2.140 . S
N779 C782 1.346 . S
N779 C783 1.345 . S
C780 C781 1.387 . S
C780 C784 1.391 . S
C781 C780 1.387 . S
C781 C782 1.369 . S
C781 H790 0.929 . S
C782 N779 1.346 . S
C782 C781 1.369 . S
C782 H785 0.928 . S
C783 N779 1.345 . S
C783 C784 1.371 . S
C783 H786 0.931 . S
C784 C780 1.391 . S
C784 C783 1.371 . S
C784 H791 0.930 . S
H785 C782 0.928 . S
H786 C783 0.931 . S
H787 C763 0.930 . S
H788 C760 0.930 . S
H789 C769 0.930 . S
H790 C781 0.929 . S
H791 C784 0.930 . S
C792 C793 1.351 . S
C792 N795 1.368 . S
C792 H797 0.931 . S
C793 C792 1.351 . S
C793 N794 1.373 . S
C793 H821 0.930 . S
N794 C793 1.373 . S
N794 C796 1.340 . S
N795 C792 1.368 . S
N795 C796 1.321 . S
N795 Co798 2.135 . S
C796 N794 1.340 . S
C796 N795 1.321 . S
C796 H820 0.930 . S
H797 C792 0.931 . S
Co798 N795 2.135 . S
Co798 N801 2.121 . S
Co798 O806 2.055 . S
Co798 O809 2.039 . S
Co798 N812 2.140 . S
C799 O800 1.227 . S
C799 O809 1.265 . S
O800 C799 1.227 . S
N801 Co798 2.121 . S
N801 C803 1.375 . S
N801 C804 1.313 . S
C802 C803 1.338 . S
C802 N805 1.377 . S
C802 H822 0.930 . S
C803 N801 1.375 . S
C803 C802 1.338 . S
C803 H807 0.931 . S
C804 N801 1.313 . S
C804 N805 1.344 . S
C804 H808 0.930 . S
N805 C802 1.377 . S
N805 C804 1.344 . S
O806 Co798 2.055 . S
O806 C810 1.253 . S
H807 C803 0.931 . S
H808 C804 0.930 . S
O809 Co798 2.039 . S
O809 C799 1.265 . S
C810 O806 1.253 . S
C810 O811 1.227 . S
O811 C810 1.227 . S
N812 Co798 2.140 . S
N812 C815 1.346 . S
N812 C816 1.345 . S
C813 C814 1.387 . S
C813 C817 1.391 . S
C814 C813 1.387 . S
C814 C815 1.369 . S
C814 H823 0.929 . S
C815 N812 1.346 . S
C815 C814 1.369 . S
C815 H818 0.928 . S
C816 N812 1.345 . S
C816 C817 1.371 . S
C816 H819 0.931 . S
C817 C813 1.391 . S
C817 C816 1.371 . S
C817 H824 0.930 . S
H818 C815 0.928 . S
H819 C816 0.931 . S
H820 C796 0.930 . S
H821 C793 0.930 . S
H822 C802 0.930 . S
H823 C814 0.929 . S
H824 C817 0.930 . S
C825 C826 1.351 . S
C825 N828 1.368 . S
C825 H830 0.931 . S
C826 C825 1.351 . S
C826 N827 1.373 . S
C826 H854 0.930 . S
N827 C826 1.373 . S
N827 C829 1.340 . S
N828 C825 1.368 . S
N828 C829 1.321 . S
N828 Co831 2.135 . S
C829 N827 1.340 . S
C829 N828 1.321 . S
C829 H853 0.930 . S
H830 C825 0.931 . S
Co831 N828 2.135 . S
Co831 N834 2.121 . S
Co831 O839 2.055 . S
Co831 O842 2.039 . S
Co831 N845 2.140 . S
C832 O833 1.227 . S
C832 O842 1.265 . S
O833 C832 1.227 . S
N834 Co831 2.121 . S
N834 C836 1.375 . S
N834 C837 1.313 . S
C835 C836 1.338 . S
C835 N838 1.377 . S
C835 H855 0.930 . S
C836 N834 1.375 . S
C836 C835 1.338 . S
C836 H840 0.931 . S
C837 N834 1.313 . S
C837 N838 1.344 . S
C837 H841 0.930 . S
N838 C835 1.377 . S
N838 C837 1.344 . S
O839 Co831 2.055 . S
O839 C843 1.253 . S
H840 C836 0.931 . S
H841 C837 0.930 . S
O842 Co831 2.039 . S
O842 C832 1.265 . S
C843 O839 1.253 . S
C843 O844 1.227 . S
O844 C843 1.227 . S
N845 Co831 2.140 . S
N845 C848 1.346 . S
N845 C849 1.345 . S
C846 C847 1.387 . S
C846 C850 1.391 . S
C847 C846 1.387 . S
C847 C848 1.369 . S
C847 H856 0.929 . S
C848 N845 1.346 . S
C848 C847 1.369 . S
C848 H851 0.928 . S
C849 N845 1.345 . S
C849 C850 1.371 . S
C849 H852 0.931 . S
C850 C846 1.391 . S
C850 C849 1.371 . S
C850 H857 0.930 . S
H851 C848 0.928 . S
H852 C849 0.931 . S
H853 C829 0.930 . S
H854 C826 0.930 . S
H855 C835 0.930 . S
H856 C847 0.929 . S
H857 C850 0.930 . S
C858 C859 1.351 . S
C858 N861 1.368 . S
C858 H863 0.931 . S
C859 C858 1.351 . S
C859 N860 1.373 . S
C859 H887 0.930 . S
N860 C859 1.373 . S
N860 C862 1.340 . S
N861 C858 1.368 . S
N861 C862 1.321 . S
N861 Co864 2.135 1_556 S
C862 N860 1.340 . S
C862 N861 1.321 . S
C862 H886 0.930 . S
H863 C858 0.931 . S
Co864 N861 2.135 1_554 S
Co864 N867 2.121 . S
Co864 O872 2.055 1_554 S
Co864 O875 2.039 . S
Co864 N878 2.140 . S
C865 O866 1.227 . S
C865 O875 1.265 . S
O866 C865 1.227 . S
N867 Co864 2.121 . S
N867 C869 1.375 . S
N867 C870 1.313 . S
C868 C869 1.338 . S
C868 N871 1.377 . S
C868 H888 0.930 . S
C869 N867 1.375 . S
C869 C868 1.338 . S
C869 H873 0.931 . S
C870 N867 1.313 . S
C870 N871 1.344 . S
C870 H874 0.930 . S
N871 C868 1.377 . S
N871 C870 1.344 . S
O872 Co864 2.055 1_556 S
O872 C876 1.253 . S
H873 C869 0.931 . S
H874 C870 0.930 . S
O875 Co864 2.039 . S
O875 C865 1.265 . S
C876 O872 1.253 . S
C876 O877 1.227 1_556 S
O877 C876 1.227 1_554 S
N878 Co864 2.140 . S
N878 C881 1.346 . S
N878 C882 1.345 . S
C879 C880 1.387 . S
C879 C883 1.391 . S
C880 C879 1.387 . S
C880 C881 1.369 . S
C880 H889 0.929 . S
C881 N878 1.346 . S
C881 C880 1.369 . S
C881 H884 0.928 . S
C882 N878 1.345 . S
C882 C883 1.371 . S
C882 H885 0.931 . S
C883 C879 1.391 . S
C883 C882 1.371 . S
C883 H890 0.930 . S
H884 C881 0.928 . S
H885 C882 0.931 . S
H886 C862 0.930 . S
H887 C859 0.930 . S
H888 C868 0.930 . S
H889 C880 0.929 . S
H890 C883 0.930 . S
C891 C892 1.351 . S
C891 N894 1.368 . S
C891 H896 0.931 . S
C892 C891 1.351 . S
C892 N893 1.373 . S
C892 H920 0.930 . S
N893 C892 1.373 . S
N893 C895 1.340 . S
N894 C891 1.368 . S
N894 C895 1.321 . S
N894 Co897 2.135 1_556 S
C895 N893 1.340 . S
C895 N894 1.321 . S
C895 H919 0.930 . S
H896 C891 0.931 . S
Co897 N894 2.135 1_554 S
Co897 N900 2.121 . S
Co897 O905 2.055 1_554 S
Co897 O908 2.039 . S
Co897 N911 2.140 . S
C898 O899 1.227 . S
C898 O908 1.265 . S
O899 C898 1.227 . S
N900 Co897 2.121 . S
N900 C902 1.375 . S
N900 C903 1.313 . S
C901 C902 1.338 . S
C901 N904 1.377 . S
C901 H921 0.930 . S
C902 N900 1.375 . S
C902 C901 1.338 . S
C902 H906 0.931 . S
C903 N900 1.313 . S
C903 N904 1.344 . S
C903 H907 0.930 . S
N904 C901 1.377 . S
N904 C903 1.344 . S
O905 Co897 2.055 1_556 S
O905 C909 1.253 . S
H906 C902 0.931 . S
H907 C903 0.930 . S
O908 Co897 2.039 . S
O908 C898 1.265 . S
C909 O905 1.253 . S
C909 O910 1.227 1_556 S
O910 C909 1.227 1_554 S
N911 Co897 2.140 . S
N911 C914 1.346 . S
N911 C915 1.345 . S
C912 C913 1.387 . S
C912 C916 1.391 . S
C913 C912 1.387 . S
C913 C914 1.369 . S
C913 H922 0.929 . S
C914 N911 1.346 . S
C914 C913 1.369 . S
C914 H917 0.928 . S
C915 N911 1.345 . S
C915 C916 1.371 . S
C915 H918 0.931 . S
C916 C912 1.391 . S
C916 C915 1.371 . S
C916 H923 0.930 . S
H917 C914 0.928 . S
H918 C915 0.931 . S
H919 C895 0.930 . S
H920 C892 0.930 . S
H921 C901 0.930 . S
H922 C913 0.929 . S
H923 C916 0.930 . S
C924 C925 1.351 . S
C924 N927 1.368 . S
C924 H929 0.931 . S
C925 C924 1.351 . S
C925 N926 1.373 . S
C925 H953 0.930 . S
N926 C925 1.373 . S
N926 C928 1.340 . S
N927 C924 1.368 . S
N927 C928 1.321 . S
N927 Co930 2.135 . S
C928 N926 1.340 . S
C928 N927 1.321 . S
C928 H952 0.930 . S
H929 C924 0.931 . S
Co930 N927 2.135 . S
Co930 N933 2.121 . S
Co930 O938 2.055 . S
Co930 O941 2.039 . S
Co930 N944 2.140 . S
C931 O932 1.227 . S
C931 O941 1.265 . S
O932 C931 1.227 . S
N933 Co930 2.121 . S
N933 C935 1.375 . S
N933 C936 1.313 . S
C934 C935 1.338 . S
C934 N937 1.377 . S
C934 H954 0.930 . S
C935 N933 1.375 . S
C935 C934 1.338 . S
C935 H939 0.931 . S
C936 N933 1.313 . S
C936 N937 1.344 . S
C936 H940 0.930 . S
N937 C934 1.377 . S
N937 C936 1.344 . S
O938 Co930 2.055 . S
O938 C942 1.253 . S
H939 C935 0.931 . S
H940 C936 0.930 . S
O941 Co930 2.039 . S
O941 C931 1.265 . S
C942 O938 1.253 . S
C942 O943 1.227 . S
O943 C942 1.227 . S
N944 Co930 2.140 . S
N944 C947 1.346 . S
N944 C948 1.345 . S
C945 C946 1.387 . S
C945 C949 1.391 . S
C946 C945 1.387 . S
C946 C947 1.369 . S
C946 H955 0.929 . S
C947 N944 1.346 . S
C947 C946 1.369 . S
C947 H950 0.928 . S
C948 N944 1.345 . S
C948 C949 1.371 . S
C948 H951 0.931 . S
C949 C945 1.391 . S
C949 C948 1.371 . S
C949 H956 0.930 . S
H950 C947 0.928 . S
H951 C948 0.931 . S
H952 C928 0.930 . S
H953 C925 0.930 . S
H954 C934 0.930 . S
H955 C946 0.929 . S
H956 C949 0.930 . S
C957 C958 1.351 . S
C957 N960 1.368 . S
C957 H962 0.931 . S
C958 C957 1.351 . S
C958 N959 1.373 . S
C958 H986 0.930 . S
N959 C958 1.373 . S
N959 C961 1.340 . S
N960 C957 1.368 . S
N960 C961 1.321 . S
N960 Co963 2.135 . S
C961 N959 1.340 . S
C961 N960 1.321 . S
C961 H985 0.930 . S
H962 C957 0.931 . S
Co963 N960 2.135 . S
Co963 N966 2.121 . S
Co963 O971 2.055 . S
Co963 O974 2.039 . S
Co963 N977 2.140 . S
C964 O965 1.227 . S
C964 O974 1.265 . S
O965 C964 1.227 . S
N966 Co963 2.121 . S
N966 C968 1.375 . S
N966 C969 1.313 . S
C967 C968 1.338 . S
C967 N970 1.377 . S
C967 H987 0.930 . S
C968 N966 1.375 . S
C968 C967 1.338 . S
C968 H972 0.931 . S
C969 N966 1.313 . S
C969 N970 1.344 . S
C969 H973 0.930 . S
N970 C967 1.377 . S
N970 C969 1.344 . S
O971 Co963 2.055 . S
O971 C975 1.253 . S
H972 C968 0.931 . S
H973 C969 0.930 . S
O974 Co963 2.039 . S
O974 C964 1.265 . S
C975 O971 1.253 . S
C975 O976 1.227 . S
O976 C975 1.227 . S
N977 Co963 2.140 . S
N977 C980 1.346 . S
N977 C981 1.345 . S
C978 C979 1.387 . S
C978 C982 1.391 . S
C979 C978 1.387 . S
C979 C980 1.369 . S
C979 H988 0.929 . S
C980 N977 1.346 . S
C980 C979 1.369 . S
C980 H983 0.928 . S
C981 N977 1.345 . S
C981 C982 1.371 . S
C981 H984 0.931 . S
C982 C978 1.391 . S
C982 C981 1.371 . S
C982 H989 0.930 . S
H983 C980 0.928 . S
H984 C981 0.931 . S
H985 C961 0.930 . S
H986 C958 0.930 . S
H987 C967 0.930 . S
H988 C979 0.929 . S
H989 C982 0.930 . S
C990 C991 1.351 . S
C990 N993 1.368 . S
C990 H995 0.931 . S
C991 C990 1.351 . S
C991 N992 1.373 . S
C991 H1019 0.930 . S
N992 C991 1.373 . S
N992 C994 1.340 . S
N993 C990 1.368 . S
N993 C994 1.321 . S
N993 Co996 2.135 1_554 S
C994 N992 1.340 . S
C994 N993 1.321 . S
C994 H1018 0.930 . S
H995 C990 0.931 . S
Co996 N993 2.135 1_556 S
Co996 N999 2.121 . S
Co996 O1004 2.055 1_556 S
Co996 O1007 2.039 . S
Co996 N1010 2.140 . S
C997 O998 1.227 . S
C997 O1007 1.265 . S
O998 C997 1.227 . S
N999 Co996 2.121 . S
N999 C1001 1.375 . S
N999 C1002 1.313 . S
C1000 C1001 1.338 . S
C1000 N1003 1.377 . S
C1000 H1020 0.930 . S
C1001 N999 1.375 . S
C1001 C1000 1.338 . S
C1001 H1005 0.931 . S
C1002 N999 1.313 . S
C1002 N1003 1.344 . S
C1002 H1006 0.930 . S
N1003 C1000 1.377 . S
N1003 C1002 1.344 . S
O1004 Co996 2.055 1_554 S
O1004 C1008 1.253 . S
H1005 C1001 0.931 . S
H1006 C1002 0.930 . S
O1007 Co996 2.039 . S
O1007 C997 1.265 . S
C1008 O1004 1.253 . S
C1008 O1009 1.227 1_554 S
O1009 C1008 1.227 1_556 S
N1010 Co996 2.140 . S
N1010 C1013 1.346 . S
N1010 C1014 1.345 . S
C1011 C1012 1.387 . S
C1011 C1015 1.391 . S
C1012 C1011 1.387 . S
C1012 C1013 1.369 . S
C1012 H1021 0.929 . S
C1013 N1010 1.346 . S
C1013 C1012 1.369 . S
C1013 H1016 0.928 . S
C1014 N1010 1.345 . S
C1014 C1015 1.371 . S
C1014 H1017 0.931 . S
C1015 C1011 1.391 . S
C1015 C1014 1.371 . S
C1015 H1022 0.930 . S
H1016 C1013 0.928 . S
H1017 C1014 0.931 . S
H1018 C994 0.930 . S
H1019 C991 0.930 . S
H1020 C1000 0.930 . S
H1021 C1012 0.929 . S
H1022 C1015 0.930 . S
C1023 C1024 1.351 . S
C1023 N1026 1.368 . S
C1023 H1028 0.931 . S
C1024 C1023 1.351 . S
C1024 N1025 1.373 . S
C1024 H1052 0.930 . S
N1025 C1024 1.373 . S
N1025 C1027 1.340 . S
N1026 C1023 1.368 . S
N1026 C1027 1.321 . S
N1026 Co1029 2.135 1_554 S
C1027 N1025 1.340 . S
C1027 N1026 1.321 . S
C1027 H1051 0.930 . S
H1028 C1023 0.931 . S
Co1029 N1026 2.135 1_556 S
Co1029 N1032 2.121 . S
Co1029 O1037 2.055 1_556 S
Co1029 O1040 2.039 . S
Co1029 N1043 2.140 . S
C1030 O1031 1.227 . S
C1030 O1040 1.265 . S
O1031 C1030 1.227 . S
N1032 Co1029 2.121 . S
N1032 C1034 1.375 . S
N1032 C1035 1.313 . S
C1033 C1034 1.338 . S
C1033 N1036 1.377 . S
C1033 H1053 0.930 . S
C1034 N1032 1.375 . S
C1034 C1033 1.338 . S
C1034 H1038 0.931 . S
C1035 N1032 1.313 . S
C1035 N1036 1.344 . S
C1035 H1039 0.930 . S
N1036 C1033 1.377 . S
N1036 C1035 1.344 . S
O1037 Co1029 2.055 1_554 S
O1037 C1041 1.253 . S
H1038 C1034 0.931 . S
H1039 C1035 0.930 . S
O1040 Co1029 2.039 . S
O1040 C1030 1.265 . S
C1041 O1037 1.253 . S
C1041 O1042 1.227 1_554 S
O1042 C1041 1.227 1_556 S
N1043 Co1029 2.140 . S
N1043 C1046 1.346 . S
N1043 C1047 1.345 . S
C1044 C1045 1.387 . S
C1044 C1048 1.391 . S
C1045 C1044 1.387 . S
C1045 C1046 1.369 . S
C1045 H1054 0.929 . S
C1046 N1043 1.346 . S
C1046 C1045 1.369 . S
C1046 H1049 0.928 . S
C1047 N1043 1.345 . S
C1047 C1048 1.371 . S
C1047 H1050 0.931 . S
C1048 C1044 1.391 . S
C1048 C1047 1.371 . S
C1048 H1055 0.930 . S
H1049 C1046 0.928 . S
H1050 C1047 0.931 . S
H1051 C1027 0.930 . S
H1052 C1024 0.930 . S
H1053 C1033 0.930 . S
H1054 C1045 0.929 . S
H1055 C1048 0.930 . S
C1056 C1057 1.391 . S
C1056 C1058 1.394 . S
C1056 H1072 0.931 . S
C1057 C1056 1.391 . S
C1057 C1061 1.376 . S
C1058 C1056 1.394 . S
C1058 C1059 1.369 . S
C1058 C1062 1.531 . S
C1059 C1058 1.369 . S
C1059 C1060 1.410 . S
C1059 C1067 1.503 . S
C1060 C1059 1.410 . S
C1060 C1061 1.392 . S
C1060 C1063 1.511 . S
C1061 C1057 1.376 . S
C1061 C1060 1.392 . S
C1061 H1073 0.929 . S
C1062 C1058 1.531 . S
C1062 H1074 0.960 . S
C1062 H1075 0.962 . S
C1062 H1076 0.960 . S
C1063 C1060 1.511 . S
C1063 H1077 0.961 . S
C1063 H1078 0.961 . S
C1063 H1079 0.961 . S
C1064 C1065 1.370 . S
C1064 C1066 1.363 . S
C1064 H1080 0.931 . S
C1065 C1064 1.370 . S
C1065 C1069 1.408 . S
C1066 C1064 1.363 . S
C1066 C1067 1.370 . S
C1066 C1070 1.524 . S
C1067 C1059 1.503 . S
C1067 C1066 1.370 . S
C1067 C1068 1.403 . S
C1068 C1067 1.403 . S
C1068 C1069 1.404 . S
C1068 C1071 1.539 . S
C1069 C1065 1.408 . S
C1069 C1068 1.404 . S
C1069 H1081 0.930 . S
C1070 C1066 1.524 . S
C1070 H1082 0.956 . S
C1070 H1083 0.961 . S
C1070 H1084 0.961 . S
C1071 C1068 1.539 . S
C1071 H1085 0.958 . S
C1071 H1086 0.961 . S
C1071 H1087 0.960 . S
H1072 C1056 0.931 . S
H1073 C1061 0.929 . S
H1074 C1062 0.960 . S
H1075 C1062 0.962 . S
H1076 C1062 0.960 . S
H1077 C1063 0.961 . S
H1078 C1063 0.961 . S
H1079 C1063 0.961 . S
H1080 C1064 0.931 . S
H1081 C1069 0.930 . S
H1082 C1070 0.956 . S
H1083 C1070 0.961 . S
H1084 C1070 0.961 . S
H1085 C1071 0.958 . S
H1086 C1071 0.961 . S
H1087 C1071 0.960 . S
C1088 C1089 1.391 . S
C1088 C1090 1.394 . S
C1088 H1104 0.931 . S
C1089 C1088 1.391 . S
C1089 C1093 1.376 . S
C1090 C1088 1.394 . S
C1090 C1091 1.369 . S
C1090 C1094 1.531 . S
C1091 C1090 1.369 . S
C1091 C1092 1.410 . S
C1091 C1099 1.503 . S
C1092 C1091 1.410 . S
C1092 C1093 1.392 . S
C1092 C1095 1.511 . S
C1093 C1089 1.376 . S
C1093 C1092 1.392 . S
C1093 H1105 0.929 . S
C1094 C1090 1.531 . S
C1094 H1106 0.960 . S
C1094 H1107 0.962 . S
C1094 H1108 0.960 . S
C1095 C1092 1.511 . S
C1095 H1109 0.961 . S
C1095 H1110 0.961 . S
C1095 H1111 0.961 . S
C1096 C1097 1.370 . S
C1096 C1098 1.363 . S
C1096 H1112 0.931 . S
C1097 C1096 1.370 . S
C1097 C1101 1.408 . S
C1098 C1096 1.363 . S
C1098 C1099 1.370 . S
C1098 C1102 1.524 . S
C1099 C1091 1.503 . S
C1099 C1098 1.370 . S
C1099 C1100 1.403 . S
C1100 C1099 1.403 . S
C1100 C1101 1.404 . S
C1100 C1103 1.539 . S
C1101 C1097 1.408 . S
C1101 C1100 1.404 . S
C1101 H1113 0.930 . S
C1102 C1098 1.524 . S
C1102 H1114 0.956 . S
C1102 H1115 0.961 . S
C1102 H1116 0.961 . S
C1103 C1100 1.539 . S
C1103 H1117 0.958 . S
C1103 H1118 0.961 . S
C1103 H1119 0.960 . S
H1104 C1088 0.931 . S
H1105 C1093 0.929 . S
H1106 C1094 0.960 . S
H1107 C1094 0.962 . S
H1108 C1094 0.960 . S
H1109 C1095 0.961 . S
H1110 C1095 0.961 . S
H1111 C1095 0.961 . S
H1112 C1096 0.931 . S
H1113 C1101 0.930 . S
H1114 C1102 0.956 . S
H1115 C1102 0.961 . S
H1116 C1102 0.961 . S
H1117 C1103 0.958 . S
H1118 C1103 0.961 . S
H1119 C1103 0.960 . S
C1120 C1121 1.391 . S
C1120 C1122 1.394 . S
C1120 H1136 0.931 . S
C1121 C1120 1.391 . S
C1121 C1125 1.376 . S
C1122 C1120 1.394 . S
C1122 C1123 1.369 . S
C1122 C1126 1.531 . S
C1123 C1122 1.369 . S
C1123 C1124 1.410 . S
C1123 C1131 1.503 . S
C1124 C1123 1.410 . S
C1124 C1125 1.392 . S
C1124 C1127 1.511 . S
C1125 C1121 1.376 . S
C1125 C1124 1.392 . S
C1125 H1137 0.929 . S
C1126 C1122 1.531 . S
C1126 H1138 0.960 . S
C1126 H1139 0.962 . S
C1126 H1140 0.960 . S
C1127 C1124 1.511 . S
C1127 H1141 0.961 . S
C1127 H1142 0.961 . S
C1127 H1143 0.961 . S
C1128 C1129 1.370 . S
C1128 C1130 1.363 . S
C1128 H1144 0.931 . S
C1129 C1128 1.370 . S
C1129 C1133 1.408 . S
C1130 C1128 1.363 . S
C1130 C1131 1.370 . S
C1130 C1134 1.524 . S
C1131 C1123 1.503 . S
C1131 C1130 1.370 . S
C1131 C1132 1.403 . S
C1132 C1131 1.403 . S
C1132 C1133 1.404 . S
C1132 C1135 1.539 . S
C1133 C1129 1.408 . S
C1133 C1132 1.404 . S
C1133 H1145 0.930 . S
C1134 C1130 1.524 . S
C1134 H1146 0.956 . S
C1134 H1147 0.961 . S
C1134 H1148 0.961 . S
C1135 C1132 1.539 . S
C1135 H1149 0.958 . S
C1135 H1150 0.961 . S
C1135 H1151 0.960 . S
H1136 C1120 0.931 . S
H1137 C1125 0.929 . S
H1138 C1126 0.960 . S
H1139 C1126 0.962 . S
H1140 C1126 0.960 . S
H1141 C1127 0.961 . S
H1142 C1127 0.961 . S
H1143 C1127 0.961 . S
H1144 C1128 0.931 . S
H1145 C1133 0.930 . S
H1146 C1134 0.956 . S
H1147 C1134 0.961 . S
H1148 C1134 0.961 . S
H1149 C1135 0.958 . S
H1150 C1135 0.961 . S
H1151 C1135 0.960 . S
C1152 C1153 1.391 . S
C1152 C1154 1.394 . S
C1152 H1168 0.931 . S
C1153 C1152 1.391 . S
C1153 C1157 1.376 . S
C1154 C1152 1.394 . S
C1154 C1155 1.369 . S
C1154 C1158 1.531 . S
C1155 C1154 1.369 . S
C1155 C1156 1.410 . S
C1155 C1163 1.503 . S
C1156 C1155 1.410 . S
C1156 C1157 1.392 . S
C1156 C1159 1.511 . S
C1157 C1153 1.376 . S
C1157 C1156 1.392 . S
C1157 H1169 0.929 . S
C1158 C1154 1.531 . S
C1158 H1170 0.960 . S
C1158 H1171 0.962 . S
C1158 H1172 0.960 . S
C1159 C1156 1.511 . S
C1159 H1173 0.961 . S
C1159 H1174 0.961 . S
C1159 H1175 0.961 . S
C1160 C1161 1.370 . S
C1160 C1162 1.363 . S
C1160 H1176 0.931 . S
C1161 C1160 1.370 . S
C1161 C1165 1.408 . S
C1162 C1160 1.363 . S
C1162 C1163 1.370 . S
C1162 C1166 1.524 . S
C1163 C1155 1.503 . S
C1163 C1162 1.370 . S
C1163 C1164 1.403 . S
C1164 C1163 1.403 . S
C1164 C1165 1.404 . S
C1164 C1167 1.539 . S
C1165 C1161 1.408 . S
C1165 C1164 1.404 . S
C1165 H1177 0.930 . S
C1166 C1162 1.524 . S
C1166 H1178 0.956 . S
C1166 H1179 0.961 . S
C1166 H1180 0.961 . S
C1167 C1164 1.539 . S
C1167 H1181 0.958 . S
C1167 H1182 0.961 . S
C1167 H1183 0.960 . S
H1168 C1152 0.931 . S
H1169 C1157 0.929 . S
H1170 C1158 0.960 . S
H1171 C1158 0.962 . S
H1172 C1158 0.960 . S
H1173 C1159 0.961 . S
H1174 C1159 0.961 . S
H1175 C1159 0.961 . S
H1176 C1160 0.931 . S
H1177 C1165 0.930 . S
H1178 C1166 0.956 . S
H1179 C1166 0.961 . S
H1180 C1166 0.961 . S
H1181 C1167 0.958 . S
H1182 C1167 0.961 . S
H1183 C1167 0.960 . S
C1184 C1185 1.391 . S
C1184 C1186 1.394 . S
C1184 H1200 0.931 . S
C1185 C1184 1.391 . S
C1185 C1189 1.376 . S
C1186 C1184 1.394 . S
C1186 C1187 1.369 . S
C1186 C1190 1.531 . S
C1187 C1186 1.369 . S
C1187 C1188 1.410 . S
C1187 C1195 1.503 . S
C1188 C1187 1.410 . S
C1188 C1189 1.392 . S
C1188 C1191 1.511 . S
C1189 C1185 1.376 . S
C1189 C1188 1.392 . S
C1189 H1201 0.929 . S
C1190 C1186 1.531 . S
C1190 H1202 0.960 . S
C1190 H1203 0.962 . S
C1190 H1204 0.960 . S
C1191 C1188 1.511 . S
C1191 H1205 0.961 . S
C1191 H1206 0.961 . S
C1191 H1207 0.961 . S
C1192 C1193 1.370 . S
C1192 C1194 1.363 . S
C1192 H1208 0.931 . S
C1193 C1192 1.370 . S
C1193 C1197 1.408 . S
C1194 C1192 1.363 . S
C1194 C1195 1.370 . S
C1194 C1198 1.524 . S
C1195 C1187 1.503 . S
C1195 C1194 1.370 . S
C1195 C1196 1.403 . S
C1196 C1195 1.403 . S
C1196 C1197 1.404 . S
C1196 C1199 1.539 . S
C1197 C1193 1.408 . S
C1197 C1196 1.404 . S
C1197 H1209 0.930 . S
C1198 C1194 1.524 . S
C1198 H1210 0.956 . S
C1198 H1211 0.961 . S
C1198 H1212 0.961 . S
C1199 C1196 1.539 . S
C1199 H1213 0.958 . S
C1199 H1214 0.961 . S
C1199 H1215 0.960 . S
H1200 C1184 0.931 . S
H1201 C1189 0.929 . S
H1202 C1190 0.960 . S
H1203 C1190 0.962 . S
H1204 C1190 0.960 . S
H1205 C1191 0.961 . S
H1206 C1191 0.961 . S
H1207 C1191 0.961 . S
H1208 C1192 0.931 . S
H1209 C1197 0.930 . S
H1210 C1198 0.956 . S
H1211 C1198 0.961 . S
H1212 C1198 0.961 . S
H1213 C1199 0.958 . S
H1214 C1199 0.961 . S
H1215 C1199 0.960 . S
C1216 C1217 1.391 . S
C1216 C1218 1.394 . S
C1216 H1232 0.931 . S
C1217 C1216 1.391 . S
C1217 C1221 1.376 . S
C1218 C1216 1.394 . S
C1218 C1219 1.369 . S
C1218 C1222 1.531 . S
C1219 C1218 1.369 . S
C1219 C1220 1.410 . S
C1219 C1227 1.503 . S
C1220 C1219 1.410 . S
C1220 C1221 1.392 . S
C1220 C1223 1.511 . S
C1221 C1217 1.376 . S
C1221 C1220 1.392 . S
C1221 H1233 0.929 . S
C1222 C1218 1.531 . S
C1222 H1234 0.960 . S
C1222 H1235 0.962 . S
C1222 H1236 0.960 . S
C1223 C1220 1.511 . S
C1223 H1237 0.961 . S
C1223 H1238 0.961 . S
C1223 H1239 0.961 . S
C1224 C1225 1.370 . S
C1224 C1226 1.363 . S
C1224 H1240 0.931 . S
C1225 C1224 1.370 . S
C1225 C1229 1.408 . S
C1226 C1224 1.363 . S
C1226 C1227 1.370 . S
C1226 C1230 1.524 . S
C1227 C1219 1.503 . S
C1227 C1226 1.370 . S
C1227 C1228 1.403 . S
C1228 C1227 1.403 . S
C1228 C1229 1.404 . S
C1228 C1231 1.539 . S
C1229 C1225 1.408 . S
C1229 C1228 1.404 . S
C1229 H1241 0.930 . S
C1230 C1226 1.524 . S
C1230 H1242 0.956 . S
C1230 H1243 0.961 . S
C1230 H1244 0.961 . S
C1231 C1228 1.539 . S
C1231 H1245 0.958 . S
C1231 H1246 0.961 . S
C1231 H1247 0.960 . S
H1232 C1216 0.931 . S
H1233 C1221 0.929 . S
H1234 C1222 0.960 . S
H1235 C1222 0.962 . S
H1236 C1222 0.960 . S
H1237 C1223 0.961 . S
H1238 C1223 0.961 . S
H1239 C1223 0.961 . S
H1240 C1224 0.931 . S
H1241 C1229 0.930 . S
H1242 C1230 0.956 . S
H1243 C1230 0.961 . S
H1244 C1230 0.961 . S
H1245 C1231 0.958 . S
H1246 C1231 0.961 . S
H1247 C1231 0.960 . S
C1248 C1249 1.391 . S
C1248 C1250 1.394 . S
C1248 H1264 0.931 . S
C1249 C1248 1.391 . S
C1249 C1253 1.376 . S
C1250 C1248 1.394 . S
C1250 C1251 1.369 . S
C1250 C1254 1.531 . S
C1251 C1250 1.369 . S
C1251 C1252 1.410 . S
C1251 C1259 1.503 . S
C1252 C1251 1.410 . S
C1252 C1253 1.392 . S
C1252 C1255 1.511 . S
C1253 C1249 1.376 . S
C1253 C1252 1.392 . S
C1253 H1265 0.929 . S
C1254 C1250 1.531 . S
C1254 H1266 0.960 . S
C1254 H1267 0.962 . S
C1254 H1268 0.960 . S
C1255 C1252 1.511 . S
C1255 H1269 0.961 . S
C1255 H1270 0.961 . S
C1255 H1271 0.961 . S
C1256 C1257 1.370 . S
C1256 C1258 1.363 . S
C1256 H1272 0.931 . S
C1257 C1256 1.370 . S
C1257 C1261 1.408 . S
C1258 C1256 1.363 . S
C1258 C1259 1.370 . S
C1258 C1262 1.524 . S
C1259 C1251 1.503 . S
C1259 C1258 1.370 . S
C1259 C1260 1.403 . S
C1260 C1259 1.403 . S
C1260 C1261 1.404 . S
C1260 C1263 1.539 . S
C1261 C1257 1.408 . S
C1261 C1260 1.404 . S
C1261 H1273 0.930 . S
C1262 C1258 1.524 . S
C1262 H1274 0.956 . S
C1262 H1275 0.961 . S
C1262 H1276 0.961 . S
C1263 C1260 1.539 . S
C1263 H1277 0.958 . S
C1263 H1278 0.961 . S
C1263 H1279 0.960 . S
H1264 C1248 0.931 . S
H1265 C1253 0.929 . S
H1266 C1254 0.960 . S
H1267 C1254 0.962 . S
H1268 C1254 0.960 . S
H1269 C1255 0.961 . S
H1270 C1255 0.961 . S
H1271 C1255 0.961 . S
H1272 C1256 0.931 . S
H1273 C1261 0.930 . S
H1274 C1262 0.956 . S
H1275 C1262 0.961 . S
H1276 C1262 0.961 . S
H1277 C1263 0.958 . S
H1278 C1263 0.961 . S
H1279 C1263 0.960 . S
C1280 C1281 1.391 . S
C1280 C1282 1.394 . S
C1280 H1296 0.931 . S
C1281 C1280 1.391 . S
C1281 C1285 1.376 . S
C1282 C1280 1.394 . S
C1282 C1283 1.369 . S
C1282 C1286 1.531 . S
C1283 C1282 1.369 . S
C1283 C1284 1.410 . S
C1283 C1291 1.503 . S
C1284 C1283 1.410 . S
C1284 C1285 1.392 . S
C1284 C1287 1.511 . S
C1285 C1281 1.376 . S
C1285 C1284 1.392 . S
C1285 H1297 0.929 . S
C1286 C1282 1.531 . S
C1286 H1298 0.960 . S
C1286 H1299 0.962 . S
C1286 H1300 0.960 . S
C1287 C1284 1.511 . S
C1287 H1301 0.961 . S
C1287 H1302 0.961 . S
C1287 H1303 0.961 . S
C1288 C1289 1.370 . S
C1288 C1290 1.363 . S
C1288 H1304 0.931 . S
C1289 C1288 1.370 . S
C1289 C1293 1.408 . S
C1290 C1288 1.363 . S
C1290 C1291 1.370 . S
C1290 C1294 1.524 . S
C1291 C1283 1.503 . S
C1291 C1290 1.370 . S
C1291 C1292 1.403 . S
C1292 C1291 1.403 . S
C1292 C1293 1.404 . S
C1292 C1295 1.539 . S
C1293 C1289 1.408 . S
C1293 C1292 1.404 . S
C1293 H1305 0.930 . S
C1294 C1290 1.524 . S
C1294 H1306 0.956 . S
C1294 H1307 0.961 . S
C1294 H1308 0.961 . S
C1295 C1292 1.539 . S
C1295 H1309 0.958 . S
C1295 H1310 0.961 . S
C1295 H1311 0.960 . S
H1296 C1280 0.931 . S
H1297 C1285 0.929 . S
H1298 C1286 0.960 . S
H1299 C1286 0.962 . S
H1300 C1286 0.960 . S
H1301 C1287 0.961 . S
H1302 C1287 0.961 . S
H1303 C1287 0.961 . S
H1304 C1288 0.931 . S
H1305 C1293 0.930 . S
H1306 C1294 0.956 . S
H1307 C1294 0.961 . S
H1308 C1294 0.961 . S
H1309 C1295 0.958 . S
H1310 C1295 0.961 . S
H1311 C1295 0.960 . S
C1312 C1313 1.391 . S
C1312 C1314 1.394 . S
C1312 H1328 0.931 . S
C1313 C1312 1.391 . S
C1313 C1317 1.376 . S
C1314 C1312 1.394 . S
C1314 C1315 1.369 . S
C1314 C1318 1.531 . S
C1315 C1314 1.369 . S
C1315 C1316 1.410 . S
C1315 C1323 1.503 . S
C1316 C1315 1.410 . S
C1316 C1317 1.392 . S
C1316 C1319 1.511 . S
C1317 C1313 1.376 . S
C1317 C1316 1.392 . S
C1317 H1329 0.929 . S
C1318 C1314 1.531 . S
C1318 H1330 0.960 . S
C1318 H1331 0.962 . S
C1318 H1332 0.960 . S
C1319 C1316 1.511 . S
C1319 H1333 0.961 . S
C1319 H1334 0.961 . S
C1319 H1335 0.961 . S
C1320 C1321 1.370 . S
C1320 C1322 1.363 . S
C1320 H1336 0.931 . S
C1321 C1320 1.370 . S
C1321 C1325 1.408 . S
C1322 C1320 1.363 . S
C1322 C1323 1.370 . S
C1322 C1326 1.524 . S
C1323 C1315 1.503 . S
C1323 C1322 1.370 . S
C1323 C1324 1.403 . S
C1324 C1323 1.403 . S
C1324 C1325 1.404 . S
C1324 C1327 1.539 . S
C1325 C1321 1.408 . S
C1325 C1324 1.404 . S
C1325 H1337 0.930 . S
C1326 C1322 1.524 . S
C1326 H1338 0.956 . S
C1326 H1339 0.961 . S
C1326 H1340 0.961 . S
C1327 C1324 1.539 . S
C1327 H1341 0.958 . S
C1327 H1342 0.961 . S
C1327 H1343 0.960 . S
H1328 C1312 0.931 . S
H1329 C1317 0.929 . S
H1330 C1318 0.960 . S
H1331 C1318 0.962 . S
H1332 C1318 0.960 . S
H1333 C1319 0.961 . S
H1334 C1319 0.961 . S
H1335 C1319 0.961 . S
H1336 C1320 0.931 . S
H1337 C1325 0.930 . S
H1338 C1326 0.956 . S
H1339 C1326 0.961 . S
H1340 C1326 0.961 . S
H1341 C1327 0.958 . S
H1342 C1327 0.961 . S
H1343 C1327 0.960 . S
C1344 C1345 1.391 . S
C1344 C1346 1.394 . S
C1344 H1360 0.931 . S
C1345 C1344 1.391 . S
C1345 C1349 1.376 . S
C1346 C1344 1.394 . S
C1346 C1347 1.369 . S
C1346 C1350 1.531 . S
C1347 C1346 1.369 . S
C1347 C1348 1.410 . S
C1347 C1355 1.503 . S
C1348 C1347 1.410 . S
C1348 C1349 1.392 . S
C1348 C1351 1.511 . S
C1349 C1345 1.376 . S
C1349 C1348 1.392 . S
C1349 H1361 0.929 . S
C1350 C1346 1.531 . S
C1350 H1362 0.960 . S
C1350 H1363 0.962 . S
C1350 H1364 0.960 . S
C1351 C1348 1.511 . S
C1351 H1365 0.961 . S
C1351 H1366 0.961 . S
C1351 H1367 0.961 . S
C1352 C1353 1.370 . S
C1352 C1354 1.363 . S
C1352 H1368 0.931 . S
C1353 C1352 1.370 . S
C1353 C1357 1.408 . S
C1354 C1352 1.363 . S
C1354 C1355 1.370 . S
C1354 C1358 1.524 . S
C1355 C1347 1.503 . S
C1355 C1354 1.370 . S
C1355 C1356 1.403 . S
C1356 C1355 1.403 . S
C1356 C1357 1.404 . S
C1356 C1359 1.539 . S
C1357 C1353 1.408 . S
C1357 C1356 1.404 . S
C1357 H1369 0.930 . S
C1358 C1354 1.524 . S
C1358 H1370 0.956 . S
C1358 H1371 0.961 . S
C1358 H1372 0.961 . S
C1359 C1356 1.539 . S
C1359 H1373 0.958 . S
C1359 H1374 0.961 . S
C1359 H1375 0.960 . S
H1360 C1344 0.931 . S
H1361 C1349 0.929 . S
H1362 C1350 0.960 . S
H1363 C1350 0.962 . S
H1364 C1350 0.960 . S
H1365 C1351 0.961 . S
H1366 C1351 0.961 . S
H1367 C1351 0.961 . S
H1368 C1352 0.931 . S
H1369 C1357 0.930 . S
H1370 C1358 0.956 . S
H1371 C1358 0.961 . S
H1372 C1358 0.961 . S
H1373 C1359 0.958 . S
H1374 C1359 0.961 . S
H1375 C1359 0.960 . S
C1376 C1377 1.391 . S
C1376 C1378 1.394 . S
C1376 H1392 0.931 . S
C1377 C1376 1.391 . S
C1377 C1381 1.376 . S
C1378 C1376 1.394 . S
C1378 C1379 1.369 . S
C1378 C1382 1.531 . S
C1379 C1378 1.369 . S
C1379 C1380 1.410 . S
C1379 C1387 1.503 . S
C1380 C1379 1.410 . S
C1380 C1381 1.392 . S
C1380 C1383 1.511 . S
C1381 C1377 1.376 . S
C1381 C1380 1.392 . S
C1381 H1393 0.929 . S
C1382 C1378 1.531 . S
C1382 H1394 0.960 . S
C1382 H1395 0.962 . S
C1382 H1396 0.960 . S
C1383 C1380 1.511 . S
C1383 H1397 0.961 . S
C1383 H1398 0.961 . S
C1383 H1399 0.961 . S
C1384 C1385 1.370 . S
C1384 C1386 1.363 . S
C1384 H1400 0.931 . S
C1385 C1384 1.370 . S
C1385 C1389 1.408 . S
C1386 C1384 1.363 . S
C1386 C1387 1.370 . S
C1386 C1390 1.524 . S
C1387 C1379 1.503 . S
C1387 C1386 1.370 . S
C1387 C1388 1.403 . S
C1388 C1387 1.403 . S
C1388 C1389 1.404 . S
C1388 C1391 1.539 . S
C1389 C1385 1.408 . S
C1389 C1388 1.404 . S
C1389 H1401 0.930 . S
C1390 C1386 1.524 . S
C1390 H1402 0.956 . S
C1390 H1403 0.961 . S
C1390 H1404 0.961 . S
C1391 C1388 1.539 . S
C1391 H1405 0.958 . S
C1391 H1406 0.961 . S
C1391 H1407 0.960 . S
H1392 C1376 0.931 . S
H1393 C1381 0.929 . S
H1394 C1382 0.960 . S
H1395 C1382 0.962 . S
H1396 C1382 0.960 . S
H1397 C1383 0.961 . S
H1398 C1383 0.961 . S
H1399 C1383 0.961 . S
H1400 C1384 0.931 . S
H1401 C1389 0.930 . S
H1402 C1390 0.956 . S
H1403 C1390 0.961 . S
H1404 C1390 0.961 . S
H1405 C1391 0.958 . S
H1406 C1391 0.961 . S
H1407 C1391 0.960 . S
C1408 C1409 1.391 . S
C1408 C1410 1.394 . S
C1408 H1424 0.931 . S
C1409 C1408 1.391 . S
C1409 C1413 1.376 . S
C1410 C1408 1.394 . S
C1410 C1411 1.369 . S
C1410 C1414 1.531 . S
C1411 C1410 1.369 . S
C1411 C1412 1.410 . S
C1411 C1419 1.503 . S
C1412 C1411 1.410 . S
C1412 C1413 1.392 . S
C1412 C1415 1.511 . S
C1413 C1409 1.376 . S
C1413 C1412 1.392 . S
C1413 H1425 0.929 . S
C1414 C1410 1.531 . S
C1414 H1426 0.960 . S
C1414 H1427 0.962 . S
C1414 H1428 0.960 . S
C1415 C1412 1.511 . S
C1415 H1429 0.961 . S
C1415 H1430 0.961 . S
C1415 H1431 0.961 . S
C1416 C1417 1.370 . S
C1416 C1418 1.363 . S
C1416 H1432 0.931 . S
C1417 C1416 1.370 . S
C1417 C1421 1.408 . S
C1418 C1416 1.363 . S
C1418 C1419 1.370 . S
C1418 C1422 1.524 . S
C1419 C1411 1.503 . S
C1419 C1418 1.370 . S
C1419 C1420 1.403 . S
C1420 C1419 1.403 . S
C1420 C1421 1.404 . S
C1420 C1423 1.539 . S
C1421 C1417 1.408 . S
C1421 C1420 1.404 . S
C1421 H1433 0.930 . S
C1422 C1418 1.524 . S
C1422 H1434 0.956 . S
C1422 H1435 0.961 . S
C1422 H1436 0.961 . S
C1423 C1420 1.539 . S
C1423 H1437 0.958 . S
C1423 H1438 0.961 . S
C1423 H1439 0.960 . S
H1424 C1408 0.931 . S
H1425 C1413 0.929 . S
H1426 C1414 0.960 . S
H1427 C1414 0.962 . S
H1428 C1414 0.960 . S
H1429 C1415 0.961 . S
H1430 C1415 0.961 . S
H1431 C1415 0.961 . S
H1432 C1416 0.931 . S
H1433 C1421 0.930 . S
H1434 C1422 0.956 . S
H1435 C1422 0.961 . S
H1436 C1422 0.961 . S
H1437 C1423 0.958 . S
H1438 C1423 0.961 . S
H1439 C1423 0.960 . S
C1440 C1441 1.391 . S
C1440 C1442 1.394 . S
C1440 H1456 0.931 . S
C1441 C1440 1.391 . S
C1441 C1445 1.376 . S
C1442 C1440 1.394 . S
C1442 C1443 1.369 . S
C1442 C1446 1.531 . S
C1443 C1442 1.369 . S
C1443 C1444 1.410 . S
C1443 C1451 1.503 . S
C1444 C1443 1.410 . S
C1444 C1445 1.392 . S
C1444 C1447 1.511 . S
C1445 C1441 1.376 . S
C1445 C1444 1.392 . S
C1445 H1457 0.929 . S
C1446 C1442 1.531 . S
C1446 H1458 0.960 . S
C1446 H1459 0.962 . S
C1446 H1460 0.960 . S
C1447 C1444 1.511 . S
C1447 H1461 0.961 . S
C1447 H1462 0.961 . S
C1447 H1463 0.961 . S
C1448 C1449 1.370 . S
C1448 C1450 1.363 . S
C1448 H1464 0.931 . S
C1449 C1448 1.370 . S
C1449 C1453 1.408 . S
C1450 C1448 1.363 . S
C1450 C1451 1.370 . S
C1450 C1454 1.524 . S
C1451 C1443 1.503 . S
C1451 C1450 1.370 . S
C1451 C1452 1.403 . S
C1452 C1451 1.403 . S
C1452 C1453 1.404 . S
C1452 C1455 1.539 . S
C1453 C1449 1.408 . S
C1453 C1452 1.404 . S
C1453 H1465 0.930 . S
C1454 C1450 1.524 . S
C1454 H1466 0.956 . S
C1454 H1467 0.961 . S
C1454 H1468 0.961 . S
C1455 C1452 1.539 . S
C1455 H1469 0.958 . S
C1455 H1470 0.961 . S
C1455 H1471 0.960 . S
H1456 C1440 0.931 . S
H1457 C1445 0.929 . S
H1458 C1446 0.960 . S
H1459 C1446 0.962 . S
H1460 C1446 0.960 . S
H1461 C1447 0.961 . S
H1462 C1447 0.961 . S
H1463 C1447 0.961 . S
H1464 C1448 0.931 . S
H1465 C1453 0.930 . S
H1466 C1454 0.956 . S
H1467 C1454 0.961 . S
H1468 C1454 0.961 . S
H1469 C1455 0.958 . S
H1470 C1455 0.961 . S
H1471 C1455 0.960 . S
C1472 C1473 1.391 . S
C1472 C1474 1.394 . S
C1472 H1488 0.931 . S
C1473 C1472 1.391 . S
C1473 C1477 1.376 . S
C1474 C1472 1.394 . S
C1474 C1475 1.369 . S
C1474 C1478 1.531 . S
C1475 C1474 1.369 . S
C1475 C1476 1.410 . S
C1475 C1483 1.503 . S
C1476 C1475 1.410 . S
C1476 C1477 1.392 . S
C1476 C1479 1.511 . S
C1477 C1473 1.376 . S
C1477 C1476 1.392 . S
C1477 H1489 0.929 . S
C1478 C1474 1.531 . S
C1478 H1490 0.960 . S
C1478 H1491 0.962 . S
C1478 H1492 0.960 . S
C1479 C1476 1.511 . S
C1479 H1493 0.961 . S
C1479 H1494 0.961 . S
C1479 H1495 0.961 . S
C1480 C1481 1.370 . S
C1480 C1482 1.363 . S
C1480 H1496 0.931 . S
C1481 C1480 1.370 . S
C1481 C1485 1.408 . S
C1482 C1480 1.363 . S
C1482 C1483 1.370 . S
C1482 C1486 1.524 . S
C1483 C1475 1.503 . S
C1483 C1482 1.370 . S
C1483 C1484 1.403 . S
C1484 C1483 1.403 . S
C1484 C1485 1.404 . S
C1484 C1487 1.539 . S
C1485 C1481 1.408 . S
C1485 C1484 1.404 . S
C1485 H1497 0.930 . S
C1486 C1482 1.524 . S
C1486 H1498 0.956 . S
C1486 H1499 0.961 . S
C1486 H1500 0.961 . S
C1487 C1484 1.539 . S
C1487 H1501 0.958 . S
C1487 H1502 0.961 . S
C1487 H1503 0.960 . S
H1488 C1472 0.931 . S
H1489 C1477 0.929 . S
H1490 C1478 0.960 . S
H1491 C1478 0.962 . S
H1492 C1478 0.960 . S
H1493 C1479 0.961 . S
H1494 C1479 0.961 . S
H1495 C1479 0.961 . S
H1496 C1480 0.931 . S
H1497 C1485 0.930 . S
H1498 C1486 0.956 . S
H1499 C1486 0.961 . S
H1500 C1486 0.961 . S
H1501 C1487 0.958 . S
H1502 C1487 0.961 . S
H1503 C1487 0.960 . S
C1504 C1505 1.391 . S
C1504 C1506 1.394 . S
C1504 H1520 0.931 . S
C1505 C1504 1.391 . S
C1505 C1509 1.376 . S
C1506 C1504 1.394 . S
C1506 C1507 1.369 . S
C1506 C1510 1.531 . S
C1507 C1506 1.369 . S
C1507 C1508 1.410 . S
C1507 C1515 1.503 . S
C1508 C1507 1.410 . S
C1508 C1509 1.392 . S
C1508 C1511 1.511 . S
C1509 C1505 1.376 . S
C1509 C1508 1.392 . S
C1509 H1521 0.929 . S
C1510 C1506 1.531 . S
C1510 H1522 0.960 . S
C1510 H1523 0.962 . S
C1510 H1524 0.960 . S
C1511 C1508 1.511 . S
C1511 H1525 0.961 . S
C1511 H1526 0.961 . S
C1511 H1527 0.961 . S
C1512 C1513 1.370 . S
C1512 C1514 1.363 . S
C1512 H1528 0.931 . S
C1513 C1512 1.370 . S
C1513 C1517 1.408 . S
C1514 C1512 1.363 . S
C1514 C1515 1.370 . S
C1514 C1518 1.524 . S
C1515 C1507 1.503 . S
C1515 C1514 1.370 . S
C1515 C1516 1.403 . S
C1516 C1515 1.403 . S
C1516 C1517 1.404 . S
C1516 C1519 1.539 . S
C1517 C1513 1.408 . S
C1517 C1516 1.404 . S
C1517 H1529 0.930 . S
C1518 C1514 1.524 . S
C1518 H1530 0.956 . S
C1518 H1531 0.961 . S
C1518 H1532 0.961 . S
C1519 C1516 1.539 . S
C1519 H1533 0.958 . S
C1519 H1534 0.961 . S
C1519 H1535 0.960 . S
H1520 C1504 0.931 . S
H1521 C1509 0.929 . S
H1522 C1510 0.960 . S
H1523 C1510 0.962 . S
H1524 C1510 0.960 . S
H1525 C1511 0.961 . S
H1526 C1511 0.961 . S
H1527 C1511 0.961 . S
H1528 C1512 0.931 . S
H1529 C1517 0.930 . S
H1530 C1518 0.956 . S
H1531 C1518 0.961 . S
H1532 C1518 0.961 . S
H1533 C1519 0.958 . S
H1534 C1519 0.961 . S
H1535 C1519 0.960 . S
C1536 C1537 1.391 . S
C1536 C1538 1.394 . S
C1536 H1552 0.931 . S
C1537 C1536 1.391 . S
C1537 C1541 1.376 . S
C1538 C1536 1.394 . S
C1538 C1539 1.369 . S
C1538 C1542 1.531 . S
C1539 C1538 1.369 . S
C1539 C1540 1.410 . S
C1539 C1547 1.503 . S
C1540 C1539 1.410 . S
C1540 C1541 1.392 . S
C1540 C1543 1.511 . S
C1541 C1537 1.376 . S
C1541 C1540 1.392 . S
C1541 H1553 0.929 . S
C1542 C1538 1.531 . S
C1542 H1554 0.960 . S
C1542 H1555 0.962 . S
C1542 H1556 0.960 . S
C1543 C1540 1.511 . S
C1543 H1557 0.961 . S
C1543 H1558 0.961 . S
C1543 H1559 0.961 . S
C1544 C1545 1.370 . S
C1544 C1546 1.363 . S
C1544 H1560 0.931 . S
C1545 C1544 1.370 . S
C1545 C1549 1.408 . S
C1546 C1544 1.363 . S
C1546 C1547 1.370 . S
C1546 C1550 1.524 . S
C1547 C1539 1.503 . S
C1547 C1546 1.370 . S
C1547 C1548 1.403 . S
C1548 C1547 1.403 . S
C1548 C1549 1.404 . S
C1548 C1551 1.539 . S
C1549 C1545 1.408 . S
C1549 C1548 1.404 . S
C1549 H1561 0.930 . S
C1550 C1546 1.524 . S
C1550 H1562 0.956 . S
C1550 H1563 0.961 . S
C1550 H1564 0.961 . S
C1551 C1548 1.539 . S
C1551 H1565 0.958 . S
C1551 H1566 0.961 . S
C1551 H1567 0.960 . S
H1552 C1536 0.931 . S
H1553 C1541 0.929 . S
H1554 C1542 0.960 . S
H1555 C1542 0.962 . S
H1556 C1542 0.960 . S
H1557 C1543 0.961 . S
H1558 C1543 0.961 . S
H1559 C1543 0.961 . S
H1560 C1544 0.931 . S
H1561 C1549 0.930 . S
H1562 C1550 0.956 . S
H1563 C1550 0.961 . S
H1564 C1550 0.961 . S
H1565 C1551 0.958 . S
H1566 C1551 0.961 . S
H1567 C1551 0.960 . S
C1568 C1569 1.391 . S
C1568 C1570 1.394 . S
C1568 H1584 0.931 . S
C1569 C1568 1.391 . S
C1569 C1573 1.376 . S
C1570 C1568 1.394 . S
C1570 C1571 1.369 . S
C1570 C1574 1.531 . S
C1571 C1570 1.369 . S
C1571 C1572 1.410 . S
C1571 C1579 1.503 . S
C1572 C1571 1.410 . S
C1572 C1573 1.392 . S
C1572 C1575 1.511 . S
C1573 C1569 1.376 . S
C1573 C1572 1.392 . S
C1573 H1585 0.929 . S
C1574 C1570 1.531 . S
C1574 H1586 0.960 . S
C1574 H1587 0.962 . S
C1574 H1588 0.960 . S
C1575 C1572 1.511 . S
C1575 H1589 0.961 . S
C1575 H1590 0.961 . S
C1575 H1591 0.961 . S
C1576 C1577 1.370 . S
C1576 C1578 1.363 . S
C1576 H1592 0.931 . S
C1577 C1576 1.370 . S
C1577 C1581 1.408 . S
C1578 C1576 1.363 . S
C1578 C1579 1.370 . S
C1578 C1582 1.524 . S
C1579 C1571 1.503 . S
C1579 C1578 1.370 . S
C1579 C1580 1.403 . S
C1580 C1579 1.403 . S
C1580 C1581 1.404 . S
C1580 C1583 1.539 . S
C1581 C1577 1.408 . S
C1581 C1580 1.404 . S
C1581 H1593 0.930 . S
C1582 C1578 1.524 . S
C1582 H1594 0.956 . S
C1582 H1595 0.961 . S
C1582 H1596 0.961 . S
C1583 C1580 1.539 . S
C1583 H1597 0.958 . S
C1583 H1598 0.961 . S
C1583 H1599 0.960 . S
H1584 C1568 0.931 . S
H1585 C1573 0.929 . S
H1586 C1574 0.960 . S
H1587 C1574 0.962 . S
H1588 C1574 0.960 . S
H1589 C1575 0.961 . S
H1590 C1575 0.961 . S
H1591 C1575 0.961 . S
H1592 C1576 0.931 . S
H1593 C1581 0.930 . S
H1594 C1582 0.956 . S
H1595 C1582 0.961 . S
H1596 C1582 0.961 . S
H1597 C1583 0.958 . S
H1598 C1583 0.961 . S
H1599 C1583 0.960 . S
C1600 C1601 1.391 . S
C1600 C1602 1.394 . S
C1600 H1616 0.931 . S
C1601 C1600 1.391 . S
C1601 C1605 1.376 . S
C1602 C1600 1.394 . S
C1602 C1603 1.369 . S
C1602 C1606 1.531 . S
C1603 C1602 1.369 . S
C1603 C1604 1.410 . S
C1603 C1611 1.503 . S
C1604 C1603 1.410 . S
C1604 C1605 1.392 . S
C1604 C1607 1.511 . S
C1605 C1601 1.376 . S
C1605 C1604 1.392 . S
C1605 H1617 0.929 . S
C1606 C1602 1.531 . S
C1606 H1618 0.960 . S
C1606 H1619 0.962 . S
C1606 H1620 0.960 . S
C1607 C1604 1.511 . S
C1607 H1621 0.961 . S
C1607 H1622 0.961 . S
C1607 H1623 0.961 . S
C1608 C1609 1.370 . S
C1608 C1610 1.363 . S
C1608 H1624 0.931 . S
C1609 C1608 1.370 . S
C1609 C1613 1.408 . S
C1610 C1608 1.363 . S
C1610 C1611 1.370 . S
C1610 C1614 1.524 . S
C1611 C1603 1.503 . S
C1611 C1610 1.370 . S
C1611 C1612 1.403 . S
C1612 C1611 1.403 . S
C1612 C1613 1.404 . S
C1612 C1615 1.539 . S
C1613 C1609 1.408 . S
C1613 C1612 1.404 . S
C1613 H1625 0.930 . S
C1614 C1610 1.524 . S
C1614 H1626 0.956 . S
C1614 H1627 0.961 . S
C1614 H1628 0.961 . S
C1615 C1612 1.539 . S
C1615 H1629 0.958 . S
C1615 H1630 0.961 . S
C1615 H1631 0.960 . S
H1616 C1600 0.931 . S
H1617 C1605 0.929 . S
H1618 C1606 0.960 . S
H1619 C1606 0.962 . S
H1620 C1606 0.960 . S
H1621 C1607 0.961 . S
H1622 C1607 0.961 . S
H1623 C1607 0.961 . S
H1624 C1608 0.931 . S
H1625 C1613 0.930 . S
H1626 C1614 0.956 . S
H1627 C1614 0.961 . S
H1628 C1614 0.961 . S
H1629 C1615 0.958 . S
H1630 C1615 0.961 . S
H1631 C1615 0.960 . S
C1632 C1633 1.391 1_556 S
C1632 C1634 1.394 . S
C1632 H1648 0.931 . S
C1633 C1632 1.391 1_554 S
C1633 C1637 1.376 . S
C1634 C1632 1.394 . S
C1634 C1635 1.369 1_556 S
C1634 C1638 1.531 . S
C1635 C1634 1.369 1_554 S
C1635 C1636 1.410 . S
C1635 C1643 1.503 . S
C1636 C1635 1.410 . S
C1636 C1637 1.392 . S
C1636 C1639 1.511 . S
C1637 C1633 1.376 . S
C1637 C1636 1.392 . S
C1637 H1649 0.929 . S
C1638 C1634 1.531 . S
C1638 H1650 0.960 . S
C1638 H1651 0.962 . S
C1638 H1652 0.960 . S
C1639 C1636 1.511 . S
C1639 H1653 0.961 . S
C1639 H1654 0.961 . S
C1639 H1655 0.961 . S
C1640 C1641 1.370 . S
C1640 C1642 1.363 . S
C1640 H1656 0.931 . S
C1641 C1640 1.370 . S
C1641 C1645 1.408 . S
C1642 C1640 1.363 . S
C1642 C1643 1.370 . S
C1642 C1646 1.524 . S
C1643 C1635 1.503 . S
C1643 C1642 1.370 . S
C1643 C1644 1.403 . S
C1644 C1643 1.403 . S
C1644 C1645 1.404 . S
C1644 C1647 1.539 1_554 S
C1645 C1641 1.408 . S
C1645 C1644 1.404 . S
C1645 H1657 0.930 . S
C1646 C1642 1.524 . S
C1646 H1658 0.956 . S
C1646 H1659 0.961 . S
C1646 H1660 0.961 . S
C1647 C1644 1.539 1_556 S
C1647 H1661 0.958 . S
C1647 H1662 0.968 . S
C1647 H1663 0.960 1_556 S
H1648 C1632 0.931 . S
H1649 C1637 0.929 . S
H1650 C1638 0.960 . S
H1651 C1638 0.962 . S
H1652 C1638 0.960 . S
H1653 C1639 0.961 . S
H1654 C1639 0.961 . S
H1655 C1639 0.961 . S
H1656 C1640 0.931 . S
H1657 C1645 0.930 . S
H1658 C1646 0.956 . S
H1659 C1646 0.961 . S
H1660 C1646 0.961 . S
H1661 C1647 0.958 . S
H1662 C1647 0.968 . S
H1663 C1647 0.960 1_554 S
C1664 C1665 1.391 . S
C1664 C1666 1.394 . S
C1664 H1680 0.931 . S
C1665 C1664 1.391 . S
C1665 C1669 1.376 . S
C1666 C1664 1.394 . S
C1666 C1667 1.369 . S
C1666 C1670 1.531 . S
C1667 C1666 1.369 . S
C1667 C1668 1.410 . S
C1667 C1675 1.503 . S
C1668 C1667 1.410 . S
C1668 C1669 1.392 . S
C1668 C1671 1.511 1_554 S
C1669 C1665 1.376 . S
C1669 C1668 1.392 . S
C1669 H1681 0.929 1_554 S
C1670 C1666 1.531 . S
C1670 H1682 0.960 . S
C1670 H1683 0.962 . S
C1670 H1684 0.960 . S
C1671 C1668 1.511 1_556 S
C1671 H1685 0.961 . S
C1671 H1686 0.961 . S
C1671 H1687 0.961 . S
C1672 C1673 1.370 . S
C1672 C1674 1.363 . S
C1672 H1688 0.931 . S
C1673 C1672 1.370 . S
C1673 C1677 1.408 . S
C1674 C1672 1.363 . S
C1674 C1675 1.370 . S
C1674 C1678 1.524 . S
C1675 C1667 1.503 . S
C1675 C1674 1.370 . S
C1675 C1676 1.403 . S
C1676 C1675 1.403 . S
C1676 C1677 1.404 . S
C1676 C1679 1.539 . S
C1677 C1673 1.408 . S
C1677 C1676 1.404 . S
C1677 H1689 0.930 . S
C1678 C1674 1.524 . S
C1678 H1690 0.956 . S
C1678 H1691 0.961 1_554 S
C1678 H1692 0.961 1_554 S
C1679 C1676 1.539 . S
C1679 H1693 0.958 . S
C1679 H1694 0.961 . S
C1679 H1695 0.960 . S
H1680 C1664 0.931 . S
H1681 C1669 0.929 1_556 S
H1682 C1670 0.960 . S
H1683 C1670 0.962 . S
H1684 C1670 0.960 . S
H1685 C1671 0.961 . S
H1686 C1671 0.961 . S
H1687 C1671 0.961 . S
H1688 C1672 0.931 . S
H1689 C1677 0.930 . S
H1690 C1678 0.956 . S
H1691 C1678 0.961 1_556 S
H1692 C1678 0.961 1_556 S
H1693 C1679 0.958 . S
H1694 C1679 0.961 . S
H1695 C1679 0.960 . S
C1696 C1697 1.391 . S
C1696 C1698 1.394 . S
C1696 H1712 0.931 . S
C1697 C1696 1.391 . S
C1697 C1701 1.376 . S
C1698 C1696 1.394 . S
C1698 C1699 1.369 . S
C1698 C1702 1.531 . S
C1699 C1698 1.369 . S
C1699 C1700 1.410 . S
C1699 C1707 1.503 . S
C1700 C1699 1.410 . S
C1700 C1701 1.392 . S
C1700 C1703 1.511 . S
C1701 C1697 1.376 . S
C1701 C1700 1.392 . S
C1701 H1713 0.929 . S
C1702 C1698 1.531 . S
C1702 H1714 0.960 . S
C1702 H1715 0.962 . S
C1702 H1716 0.960 . S
C1703 C1700 1.511 . S
C1703 H1717 0.961 . S
C1703 H1718 0.961 . S
C1703 H1719 0.961 . S
C1704 C1705 1.370 . S
C1704 C1706 1.363 . S
C1704 H1720 0.931 . S
C1705 C1704 1.370 . S
C1705 C1709 1.408 . S
C1706 C1704 1.363 . S
C1706 C1707 1.370 . S
C1706 C1710 1.524 . S
C1707 C1699 1.503 . S
C1707 C1706 1.370 . S
C1707 C1708 1.403 . S
C1708 C1707 1.403 . S
C1708 C1709 1.404 . S
C1708 C1711 1.539 . S
C1709 C1705 1.408 . S
C1709 C1708 1.404 . S
C1709 H1721 0.930 . S
C1710 C1706 1.524 . S
C1710 H1722 0.956 . S
C1710 H1723 0.961 . S
C1710 H1724 0.961 . S
C1711 C1708 1.539 . S
C1711 H1725 0.958 . S
C1711 H1726 0.961 . S
C1711 H1727 0.960 . S
H1712 C1696 0.931 . S
H1713 C1701 0.929 . S
H1714 C1702 0.960 . S
H1715 C1702 0.962 . S
H1716 C1702 0.960 . S
H1717 C1703 0.961 . S
H1718 C1703 0.961 . S
H1719 C1703 0.961 . S
H1720 C1704 0.931 . S
H1721 C1709 0.930 . S
H1722 C1710 0.956 . S
H1723 C1710 0.961 . S
H1724 C1710 0.961 . S
H1725 C1711 0.958 . S
H1726 C1711 0.961 . S
H1727 C1711 0.960 . S
C1728 C1729 1.391 . S
C1728 C1730 1.394 . S
C1728 H1744 0.931 . S
C1729 C1728 1.391 . S
C1729 C1733 1.376 . S
C1730 C1728 1.394 . S
C1730 C1731 1.369 . S
C1730 C1734 1.531 . S
C1731 C1730 1.369 . S
C1731 C1732 1.410 . S
C1731 C1739 1.503 . S
C1732 C1731 1.410 . S
C1732 C1733 1.392 . S
C1732 C1735 1.511 . S
C1733 C1729 1.376 . S
C1733 C1732 1.392 . S
C1733 H1745 0.929 . S
C1734 C1730 1.531 . S
C1734 H1746 0.960 . S
C1734 H1747 0.962 . S
C1734 H1748 0.960 . S
C1735 C1732 1.511 . S
C1735 H1749 0.961 . S
C1735 H1750 0.961 . S
C1735 H1751 0.961 . S
C1736 C1737 1.370 . S
C1736 C1738 1.363 . S
C1736 H1752 0.931 . S
C1737 C1736 1.370 . S
C1737 C1741 1.408 . S
C1738 C1736 1.363 . S
C1738 C1739 1.370 . S
C1738 C1742 1.524 . S
C1739 C1731 1.503 . S
C1739 C1738 1.370 . S
C1739 C1740 1.403 . S
C1740 C1739 1.403 . S
C1740 C1741 1.404 . S
C1740 C1743 1.539 . S
C1741 C1737 1.408 . S
C1741 C1740 1.404 . S
C1741 H1753 0.930 . S
C1742 C1738 1.524 . S
C1742 H1754 0.956 . S
C1742 H1755 0.961 . S
C1742 H1756 0.961 . S
C1743 C1740 1.539 . S
C1743 H1757 0.958 . S
C1743 H1758 0.961 . S
C1743 H1759 0.960 . S
H1744 C1728 0.931 . S
H1745 C1733 0.929 . S
H1746 C1734 0.960 . S
H1747 C1734 0.962 . S
H1748 C1734 0.960 . S
H1749 C1735 0.961 . S
H1750 C1735 0.961 . S
H1751 C1735 0.961 . S
H1752 C1736 0.931 . S
H1753 C1741 0.930 . S
H1754 C1742 0.956 . S
H1755 C1742 0.961 . S
H1756 C1742 0.961 . S
H1757 C1743 0.958 . S
H1758 C1743 0.961 . S
H1759 C1743 0.960 . S
C1760 C1761 1.391 . S
C1760 C1762 1.394 . S
C1760 H1776 0.931 1_556 S
C1761 C1760 1.391 . S
C1761 C1765 1.376 . S
C1762 C1760 1.394 . S
C1762 C1763 1.369 . S
C1762 C1766 1.531 1_556 S
C1763 C1762 1.369 . S
C1763 C1764 1.410 . S
C1763 C1771 1.503 . S
C1764 C1763 1.410 . S
C1764 C1765 1.392 . S
C1764 C1767 1.511 . S
C1765 C1761 1.376 . S
C1765 C1764 1.392 . S
C1765 H1777 0.929 . S
C1766 C1762 1.531 1_554 S
C1766 H1778 0.967 . S
C1766 H1779 0.962 . S
C1766 H1780 0.960 . S
C1767 C1764 1.511 . S
C1767 H1781 0.961 . S
C1767 H1782 0.961 . S
C1767 H1783 0.961 . S
C1768 C1769 1.370 . S
C1768 C1770 1.363 . S
C1768 H1784 0.931 1_556 S
C1769 C1768 1.370 . S
C1769 C1773 1.408 . S
C1770 C1768 1.363 . S
C1770 C1771 1.370 . S
C1770 C1774 1.524 1_556 S
C1771 C1763 1.503 . S
C1771 C1770 1.370 . S
C1771 C1772 1.403 . S
C1772 C1771 1.403 . S
C1772 C1773 1.404 . S
C1772 C1775 1.539 . S
C1773 C1769 1.408 . S
C1773 C1772 1.404 . S
C1773 H1785 0.930 . S
C1774 C1770 1.524 1_554 S
C1774 H1786 0.956 . S
C1774 H1787 0.969 . S
C1774 H1788 0.961 . S
C1775 C1772 1.539 . S
C1775 H1789 0.958 . S
C1775 H1790 0.961 . S
C1775 H1791 0.960 . S
H1776 C1760 0.931 1_554 S
H1777 C1765 0.929 . S
H1778 C1766 0.967 . S
H1779 C1766 0.962 . S
H1780 C1766 0.960 . S
H1781 C1767 0.961 . S
H1782 C1767 0.961 . S
H1783 C1767 0.961 . S
H1784 C1768 0.931 1_554 S
H1785 C1773 0.930 . S
H1786 C1774 0.956 . S
H1787 C1774 0.969 . S
H1788 C1774 0.961 . S
H1789 C1775 0.958 . S
H1790 C1775 0.961 . S
H1791 C1775 0.960 . S
C1792 C1793 1.391 . S
C1792 C1794 1.394 . S
C1792 H1808 0.931 . S
C1793 C1792 1.391 . S
C1793 C1797 1.376 . S
C1794 C1792 1.394 . S
C1794 C1795 1.369 . S
C1794 C1798 1.531 . S
C1795 C1794 1.369 . S
C1795 C1796 1.410 . S
C1795 C1803 1.503 . S
C1796 C1795 1.410 . S
C1796 C1797 1.392 . S
C1796 C1799 1.511 1_556 S
C1797 C1793 1.376 . S
C1797 C1796 1.392 . S
C1797 H1809 0.929 1_556 S
C1798 C1794 1.531 . S
C1798 H1810 0.960 . S
C1798 H1811 0.962 . S
C1798 H1812 0.960 . S
C1799 C1796 1.511 1_554 S
C1799 H1813 0.961 . S
C1799 H1814 0.961 . S
C1799 H1815 0.961 1_554 S
C1800 C1801 1.370 . S
C1800 C1802 1.363 . S
C1800 H1816 0.931 1_556 S
C1801 C1800 1.370 . S
C1801 C1805 1.408 . S
C1802 C1800 1.363 . S
C1802 C1803 1.370 . S
C1802 C1806 1.524 1_556 S
C1803 C1795 1.503 . S
C1803 C1802 1.370 . S
C1803 C1804 1.403 . S
C1804 C1803 1.403 . S
C1804 C1805 1.404 . S
C1804 C1807 1.539 . S
C1805 C1801 1.408 . S
C1805 C1804 1.404 . S
C1805 H1817 0.930 . S
C1806 C1802 1.524 1_554 S
C1806 H1818 0.956 . S
C1806 H1819 0.961 . S
C1806 H1820 0.961 . S
C1807 C1804 1.539 . S
C1807 H1821 0.958 . S
C1807 H1822 0.961 . S
C1807 H1823 0.960 . S
H1808 C1792 0.931 . S
H1809 C1797 0.929 1_554 S
H1810 C1798 0.960 . S
H1811 C1798 0.962 . S
H1812 C1798 0.960 . S
H1813 C1799 0.961 . S
H1814 C1799 0.961 . S
H1815 C1799 0.961 1_556 S
H1816 C1800 0.931 1_554 S
H1817 C1805 0.930 . S
H1818 C1806 0.956 . S
H1819 C1806 0.961 . S
H1820 C1806 0.961 . S
H1821 C1807 0.958 . S
H1822 C1807 0.961 . S
H1823 C1807 0.960 . S
C1824 C1825 1.391 . S
C1824 C1826 1.394 . S
C1824 H1840 0.931 . S
C1825 C1824 1.391 . S
C1825 C1829 1.376 . S
C1826 C1824 1.394 . S
C1826 C1827 1.369 . S
C1826 C1830 1.531 . S
C1827 C1826 1.369 . S
C1827 C1828 1.410 . S
C1827 C1835 1.503 . S
C1828 C1827 1.410 . S
C1828 C1829 1.392 . S
C1828 C1831 1.511 . S
C1829 C1825 1.376 . S
C1829 C1828 1.392 . S
C1829 H1841 0.929 . S
C1830 C1826 1.531 . S
C1830 H1842 0.960 . S
C1830 H1843 0.962 . S
C1830 H1844 0.960 . S
C1831 C1828 1.511 . S
C1831 H1845 0.961 . S
C1831 H1846 0.961 . S
C1831 H1847 0.961 . S
C1832 C1833 1.370 . S
C1832 C1834 1.363 . S
C1832 H1848 0.931 . S
C1833 C1832 1.370 . S
C1833 C1837 1.408 . S
C1834 C1832 1.363 . S
C1834 C1835 1.370 . S
C1834 C1838 1.524 . S
C1835 C1827 1.503 . S
C1835 C1834 1.370 . S
C1835 C1836 1.403 . S
C1836 C1835 1.403 . S
C1836 C1837 1.404 . S
C1836 C1839 1.539 . S
C1837 C1833 1.408 . S
C1837 C1836 1.404 . S
C1837 H1849 0.930 . S
C1838 C1834 1.524 . S
C1838 H1850 0.956 . S
C1838 H1851 0.961 . S
C1838 H1852 0.961 . S
C1839 C1836 1.539 . S
C1839 H1853 0.958 . S
C1839 H1854 0.961 . S
C1839 H1855 0.960 . S
H1840 C1824 0.931 . S
H1841 C1829 0.929 . S
H1842 C1830 0.960 . S
H1843 C1830 0.962 . S
H1844 C1830 0.960 . S
H1845 C1831 0.961 . S
H1846 C1831 0.961 . S
H1847 C1831 0.961 . S
H1848 C1832 0.931 . S
H1849 C1837 0.930 . S
H1850 C1838 0.956 . S
H1851 C1838 0.961 . S
H1852 C1838 0.961 . S
H1853 C1839 0.958 . S
H1854 C1839 0.961 . S
H1855 C1839 0.960 . S
C1856 C1857 1.391 . S
C1856 C1858 1.394 . S
C1856 H1872 0.931 . S
C1857 C1856 1.391 . S
C1857 C1861 1.376 . S
C1858 C1856 1.394 . S
C1858 C1859 1.369 . S
C1858 C1862 1.531 . S
C1859 C1858 1.369 . S
C1859 C1860 1.410 . S
C1859 C1867 1.503 . S
C1860 C1859 1.410 . S
C1860 C1861 1.392 . S
C1860 C1863 1.511 . S
C1861 C1857 1.376 . S
C1861 C1860 1.392 . S
C1861 H1873 0.929 . S
C1862 C1858 1.531 . S
C1862 H1874 0.960 . S
C1862 H1875 0.962 . S
C1862 H1876 0.960 . S
C1863 C1860 1.511 . S
C1863 H1877 0.961 . S
C1863 H1878 0.961 . S
C1863 H1879 0.961 . S
C1864 C1865 1.370 . S
C1864 C1866 1.363 . S
C1864 H1880 0.931 . S
C1865 C1864 1.370 . S
C1865 C1869 1.408 . S
C1866 C1864 1.363 . S
C1866 C1867 1.370 . S
C1866 C1870 1.524 . S
C1867 C1859 1.503 . S
C1867 C1866 1.370 . S
C1867 C1868 1.403 . S
C1868 C1867 1.403 . S
C1868 C1869 1.404 . S
C1868 C1871 1.539 . S
C1869 C1865 1.408 . S
C1869 C1868 1.404 . S
C1869 H1881 0.930 . S
C1870 C1866 1.524 . S
C1870 H1882 0.956 . S
C1870 H1883 0.961 . S
C1870 H1884 0.961 . S
C1871 C1868 1.539 . S
C1871 H1885 0.958 . S
C1871 H1886 0.961 . S
C1871 H1887 0.960 . S
H1872 C1856 0.931 . S
H1873 C1861 0.929 . S
H1874 C1862 0.960 . S
H1875 C1862 0.962 . S
H1876 C1862 0.960 . S
H1877 C1863 0.961 . S
H1878 C1863 0.961 . S
H1879 C1863 0.961 . S
H1880 C1864 0.931 . S
H1881 C1869 0.930 . S
H1882 C1870 0.956 . S
H1883 C1870 0.961 . S
H1884 C1870 0.961 . S
H1885 C1871 0.958 . S
H1886 C1871 0.961 . S
H1887 C1871 0.960 . S
C1888 C1889 1.391 . S
C1888 C1890 1.394 . S
C1888 H1904 0.931 . S
C1889 C1888 1.391 . S
C1889 C1893 1.376 . S
C1890 C1888 1.394 . S
C1890 C1891 1.369 . S
C1890 C1894 1.531 . S
C1891 C1890 1.369 . S
C1891 C1892 1.410 . S
C1891 C1899 1.503 . S
C1892 C1891 1.410 . S
C1892 C1893 1.392 . S
C1892 C1895 1.511 . S
C1893 C1889 1.376 . S
C1893 C1892 1.392 . S
C1893 H1905 0.929 . S
C1894 C1890 1.531 . S
C1894 H1906 0.960 . S
C1894 H1907 0.962 . S
C1894 H1908 0.960 . S
C1895 C1892 1.511 . S
C1895 H1909 0.961 . S
C1895 H1910 0.961 . S
C1895 H1911 0.961 . S
C1896 C1897 1.370 . S
C1896 C1898 1.363 . S
C1896 H1912 0.931 . S
C1897 C1896 1.370 . S
C1897 C1901 1.408 . S
C1898 C1896 1.363 . S
C1898 C1899 1.370 . S
C1898 C1902 1.524 . S
C1899 C1891 1.503 . S
C1899 C1898 1.370 . S
C1899 C1900 1.403 . S
C1900 C1899 1.403 . S
C1900 C1901 1.404 . S
C1900 C1903 1.539 . S
C1901 C1897 1.408 . S
C1901 C1900 1.404 . S
C1901 H1913 0.930 . S
C1902 C1898 1.524 . S
C1902 H1914 0.956 . S
C1902 H1915 0.961 . S
C1902 H1916 0.961 . S
C1903 C1900 1.539 . S
C1903 H1917 0.958 . S
C1903 H1918 0.961 . S
C1903 H1919 0.960 . S
H1904 C1888 0.931 . S
H1905 C1893 0.929 . S
H1906 C1894 0.960 . S
H1907 C1894 0.962 . S
H1908 C1894 0.960 . S
H1909 C1895 0.961 . S
H1910 C1895 0.961 . S
H1911 C1895 0.961 . S
H1912 C1896 0.931 . S
H1913 C1901 0.930 . S
H1914 C1902 0.956 . S
H1915 C1902 0.961 . S
H1916 C1902 0.961 . S
H1917 C1903 0.958 . S
H1918 C1903 0.961 . S
H1919 C1903 0.960 . S
C1920 C1921 1.391 . S
C1920 C1922 1.394 . S
C1920 H1936 0.931 . S
C1921 C1920 1.391 . S
C1921 C1925 1.376 . S
C1922 C1920 1.394 . S
C1922 C1923 1.369 . S
C1922 C1926 1.531 . S
C1923 C1922 1.369 . S
C1923 C1924 1.410 . S
C1923 C1931 1.503 . S
C1924 C1923 1.410 . S
C1924 C1925 1.392 . S
C1924 C1927 1.511 . S
C1925 C1921 1.376 . S
C1925 C1924 1.392 . S
C1925 H1937 0.929 . S
C1926 C1922 1.531 . S
C1926 H1938 0.960 . S
C1926 H1939 0.962 . S
C1926 H1940 0.960 . S
C1927 C1924 1.511 . S
C1927 H1941 0.961 . S
C1927 H1942 0.961 . S
C1927 H1943 0.961 . S
C1928 C1929 1.370 . S
C1928 C1930 1.363 . S
C1928 H1944 0.931 . S
C1929 C1928 1.370 . S
C1929 C1933 1.408 . S
C1930 C1928 1.363 . S
C1930 C1931 1.370 . S
C1930 C1934 1.524 . S
C1931 C1923 1.503 . S
C1931 C1930 1.370 . S
C1931 C1932 1.403 . S
C1932 C1931 1.403 . S
C1932 C1933 1.404 . S
C1932 C1935 1.539 . S
C1933 C1929 1.408 . S
C1933 C1932 1.404 . S
C1933 H1945 0.930 . S
C1934 C1930 1.524 . S
C1934 H1946 0.956 . S
C1934 H1947 0.961 . S
C1934 H1948 0.961 . S
C1935 C1932 1.539 . S
C1935 H1949 0.958 . S
C1935 H1950 0.961 . S
C1935 H1951 0.960 . S
H1936 C1920 0.931 . S
H1937 C1925 0.929 . S
H1938 C1926 0.960 . S
H1939 C1926 0.962 . S
H1940 C1926 0.960 . S
H1941 C1927 0.961 . S
H1942 C1927 0.961 . S
H1943 C1927 0.961 . S
H1944 C1928 0.931 . S
H1945 C1933 0.930 . S
H1946 C1934 0.956 . S
H1947 C1934 0.961 . S
H1948 C1934 0.961 . S
H1949 C1935 0.958 . S
H1950 C1935 0.961 . S
H1951 C1935 0.960 . S
C1952 C1953 1.391 . S
C1952 C1954 1.394 . S
C1952 H1968 0.931 . S
C1953 C1952 1.391 . S
C1953 C1957 1.376 . S
C1954 C1952 1.394 . S
C1954 C1955 1.369 . S
C1954 C1958 1.531 . S
C1955 C1954 1.369 . S
C1955 C1956 1.410 . S
C1955 C1963 1.503 . S
C1956 C1955 1.410 . S
C1956 C1957 1.392 . S
C1956 C1959 1.511 . S
C1957 C1953 1.376 . S
C1957 C1956 1.392 . S
C1957 H1969 0.929 . S
C1958 C1954 1.531 . S
C1958 H1970 0.960 . S
C1958 H1971 0.962 . S
C1958 H1972 0.960 . S
C1959 C1956 1.511 . S
C1959 H1973 0.961 . S
C1959 H1974 0.961 . S
C1959 H1975 0.961 . S
C1960 C1961 1.370 . S
C1960 C1962 1.363 . S
C1960 H1976 0.931 . S
C1961 C1960 1.370 . S
C1961 C1965 1.408 . S
C1962 C1960 1.363 . S
C1962 C1963 1.370 . S
C1962 C1966 1.524 . S
C1963 C1955 1.503 . S
C1963 C1962 1.370 . S
C1963 C1964 1.403 . S
C1964 C1963 1.403 . S
C1964 C1965 1.404 . S
C1964 C1967 1.539 . S
C1965 C1961 1.408 . S
C1965 C1964 1.404 . S
C1965 H1977 0.930 . S
C1966 C1962 1.524 . S
C1966 H1978 0.956 . S
C1966 H1979 0.961 . S
C1966 H1980 0.961 . S
C1967 C1964 1.539 . S
C1967 H1981 0.958 . S
C1967 H1982 0.961 . S
C1967 H1983 0.960 . S
H1968 C1952 0.931 . S
H1969 C1957 0.929 . S
H1970 C1958 0.960 . S
H1971 C1958 0.962 . S
H1972 C1958 0.960 . S
H1973 C1959 0.961 . S
H1974 C1959 0.961 . S
H1975 C1959 0.961 . S
H1976 C1960 0.931 . S
H1977 C1965 0.930 . S
H1978 C1966 0.956 . S
H1979 C1966 0.961 . S
H1980 C1966 0.961 . S
H1981 C1967 0.958 . S
H1982 C1967 0.961 . S
H1983 C1967 0.960 . S
C1984 C1985 1.391 . S
C1984 C1986 1.394 . S
C1984 H2000 0.931 . S
C1985 C1984 1.391 . S
C1985 C1989 1.376 . S
C1986 C1984 1.394 . S
C1986 C1987 1.369 . S
C1986 C1990 1.531 . S
C1987 C1986 1.369 . S
C1987 C1988 1.410 . S
C1987 C1995 1.503 . S
C1988 C1987 1.410 . S
C1988 C1989 1.392 . S
C1988 C1991 1.511 . S
C1989 C1985 1.376 . S
C1989 C1988 1.392 . S
C1989 H2001 0.929 . S
C1990 C1986 1.531 . S
C1990 H2002 0.960 . S
C1990 H2003 0.962 . S
C1990 H2004 0.960 . S
C1991 C1988 1.511 . S
C1991 H2005 0.961 . S
C1991 H2006 0.961 . S
C1991 H2007 0.961 . S
C1992 C1993 1.370 . S
C1992 C1994 1.363 . S
C1992 H2008 0.931 . S
C1993 C1992 1.370 . S
C1993 C1997 1.408 . S
C1994 C1992 1.363 . S
C1994 C1995 1.370 . S
C1994 C1998 1.524 . S
C1995 C1987 1.503 . S
C1995 C1994 1.370 . S
C1995 C1996 1.403 . S
C1996 C1995 1.403 . S
C1996 C1997 1.404 . S
C1996 C1999 1.539 . S
C1997 C1993 1.408 . S
C1997 C1996 1.404 . S
C1997 H2009 0.930 . S
C1998 C1994 1.524 . S
C1998 H2010 0.956 . S
C1998 H2011 0.961 . S
C1998 H2012 0.961 . S
C1999 C1996 1.539 . S
C1999 H2013 0.958 . S
C1999 H2014 0.961 . S
C1999 H2015 0.960 . S
H2000 C1984 0.931 . S
H2001 C1989 0.929 . S
H2002 C1990 0.960 . S
H2003 C1990 0.962 . S
H2004 C1990 0.960 . S
H2005 C1991 0.961 . S
H2006 C1991 0.961 . S
H2007 C1991 0.961 . S
H2008 C1992 0.931 . S
H2009 C1997 0.930 . S
H2010 C1998 0.956 . S
H2011 C1998 0.961 . S
H2012 C1998 0.961 . S
H2013 C1999 0.958 . S
H2014 C1999 0.961 . S
H2015 C1999 0.960 . S
C2016 C2017 1.391 . S
C2016 C2018 1.394 . S
C2016 H2032 0.931 . S
C2017 C2016 1.391 . S
C2017 C2021 1.376 . S
C2018 C2016 1.394 . S
C2018 C2019 1.369 . S
C2018 C2022 1.531 . S
C2019 C2018 1.369 . S
C2019 C2020 1.410 . S
C2019 C2027 1.503 . S
C2020 C2019 1.410 . S
C2020 C2021 1.392 . S
C2020 C2023 1.511 . S
C2021 C2017 1.376 . S
C2021 C2020 1.392 . S
C2021 H2033 0.929 . S
C2022 C2018 1.531 . S
C2022 H2034 0.960 . S
C2022 H2035 0.962 . S
C2022 H2036 0.960 . S
C2023 C2020 1.511 . S
C2023 H2037 0.961 . S
C2023 H2038 0.961 . S
C2023 H2039 0.961 . S
C2024 C2025 1.370 . S
C2024 C2026 1.363 . S
C2024 H2040 0.931 . S
C2025 C2024 1.370 . S
C2025 C2029 1.408 . S
C2026 C2024 1.363 . S
C2026 C2027 1.370 . S
C2026 C2030 1.524 . S
C2027 C2019 1.503 . S
C2027 C2026 1.370 . S
C2027 C2028 1.403 . S
C2028 C2027 1.403 . S
C2028 C2029 1.404 . S
C2028 C2031 1.539 . S
C2029 C2025 1.408 . S
C2029 C2028 1.404 . S
C2029 H2041 0.930 . S
C2030 C2026 1.524 . S
C2030 H2042 0.956 . S
C2030 H2043 0.961 . S
C2030 H2044 0.961 . S
C2031 C2028 1.539 . S
C2031 H2045 0.958 . S
C2031 H2046 0.961 . S
C2031 H2047 0.960 . S
H2032 C2016 0.931 . S
H2033 C2021 0.929 . S
H2034 C2022 0.960 . S
H2035 C2022 0.962 . S
H2036 C2022 0.960 . S
H2037 C2023 0.961 . S
H2038 C2023 0.961 . S
H2039 C2023 0.961 . S
H2040 C2024 0.931 . S
H2041 C2029 0.930 . S
H2042 C2030 0.956 . S
H2043 C2030 0.961 . S
H2044 C2030 0.961 . S
H2045 C2031 0.958 . S
H2046 C2031 0.961 . S
H2047 C2031 0.960 . S
C2048 C2049 1.391 . S
C2048 C2050 1.394 . S
C2048 H2064 0.931 . S
C2049 C2048 1.391 . S
C2049 C2053 1.376 . S
C2050 C2048 1.394 . S
C2050 C2051 1.369 . S
C2050 C2054 1.531 . S
C2051 C2050 1.369 . S
C2051 C2052 1.410 . S
C2051 C2059 1.503 . S
C2052 C2051 1.410 . S
C2052 C2053 1.392 . S
C2052 C2055 1.511 . S
C2053 C2049 1.376 . S
C2053 C2052 1.392 . S
C2053 H2065 0.929 . S
C2054 C2050 1.531 . S
C2054 H2066 0.960 . S
C2054 H2067 0.962 . S
C2054 H2068 0.960 . S
C2055 C2052 1.511 . S
C2055 H2069 0.961 . S
C2055 H2070 0.961 . S
C2055 H2071 0.961 . S
C2056 C2057 1.370 . S
C2056 C2058 1.363 . S
C2056 H2072 0.931 . S
C2057 C2056 1.370 . S
C2057 C2061 1.408 . S
C2058 C2056 1.363 . S
C2058 C2059 1.370 . S
C2058 C2062 1.524 . S
C2059 C2051 1.503 . S
C2059 C2058 1.370 . S
C2059 C2060 1.403 . S
C2060 C2059 1.403 . S
C2060 C2061 1.404 . S
C2060 C2063 1.539 . S
C2061 C2057 1.408 . S
C2061 C2060 1.404 . S
C2061 H2073 0.930 . S
C2062 C2058 1.524 . S
C2062 H2074 0.956 . S
C2062 H2075 0.961 . S
C2062 H2076 0.961 . S
C2063 C2060 1.539 . S
C2063 H2077 0.958 . S
C2063 H2078 0.961 . S
C2063 H2079 0.960 . S
H2064 C2048 0.931 . S
H2065 C2053 0.929 . S
H2066 C2054 0.960 . S
H2067 C2054 0.962 . S
H2068 C2054 0.960 . S
H2069 C2055 0.961 . S
H2070 C2055 0.961 . S
H2071 C2055 0.961 . S
H2072 C2056 0.931 . S
H2073 C2061 0.930 . S
H2074 C2062 0.956 . S
H2075 C2062 0.961 . S
H2076 C2062 0.961 . S
H2077 C2063 0.958 . S
H2078 C2063 0.961 . S
H2079 C2063 0.960 . S
C2080 C2081 1.391 . S
C2080 C2082 1.394 . S
C2080 H2096 0.931 . S
C2081 C2080 1.391 . S
C2081 C2085 1.376 . S
C2082 C2080 1.394 . S
C2082 C2083 1.369 . S
C2082 C2086 1.531 . S
C2083 C2082 1.369 . S
C2083 C2084 1.410 . S
C2083 C2091 1.503 . S
C2084 C2083 1.410 . S
C2084 C2085 1.392 . S
C2084 C2087 1.511 . S
C2085 C2081 1.376 . S
C2085 C2084 1.392 . S
C2085 H2097 0.929 . S
C2086 C2082 1.531 . S
C2086 H2098 0.960 . S
C2086 H2099 0.962 . S
C2086 H2100 0.960 . S
C2087 C2084 1.511 . S
C2087 H2101 0.961 . S
C2087 H2102 0.961 . S
C2087 H2103 0.961 . S
C2088 C2089 1.370 . S
C2088 C2090 1.363 . S
C2088 H2104 0.931 . S
C2089 C2088 1.370 . S
C2089 C2093 1.408 . S
C2090 C2088 1.363 . S
C2090 C2091 1.370 . S
C2090 C2094 1.524 . S
C2091 C2083 1.503 . S
C2091 C2090 1.370 . S
C2091 C2092 1.403 . S
C2092 C2091 1.403 . S
C2092 C2093 1.404 . S
C2092 C2095 1.539 . S
C2093 C2089 1.408 . S
C2093 C2092 1.404 . S
C2093 H2105 0.930 . S
C2094 C2090 1.524 . S
C2094 H2106 0.956 . S
C2094 H2107 0.961 . S
C2094 H2108 0.961 . S
C2095 C2092 1.539 . S
C2095 H2109 0.958 . S
C2095 H2110 0.961 . S
C2095 H2111 0.960 . S
H2096 C2080 0.931 . S
H2097 C2085 0.929 . S
H2098 C2086 0.960 . S
H2099 C2086 0.962 . S
H2100 C2086 0.960 . S
H2101 C2087 0.961 . S
H2102 C2087 0.961 . S
H2103 C2087 0.961 . S
H2104 C2088 0.931 . S
H2105 C2093 0.930 . S
H2106 C2094 0.956 . S
H2107 C2094 0.961 . S
H2108 C2094 0.961 . S
H2109 C2095 0.958 . S
H2110 C2095 0.961 . S
H2111 C2095 0.960 . S
C2112 C2113 1.391 . S
C2112 C2114 1.394 . S
C2112 H2128 0.931 . S
C2113 C2112 1.391 . S
C2113 C2117 1.376 . S
C2114 C2112 1.394 . S
C2114 C2115 1.369 . S
C2114 C2118 1.531 . S
C2115 C2114 1.369 . S
C2115 C2116 1.410 . S
C2115 C2123 1.503 . S
C2116 C2115 1.410 . S
C2116 C2117 1.392 . S
C2116 C2119 1.511 . S
C2117 C2113 1.376 . S
C2117 C2116 1.392 . S
C2117 H2129 0.929 . S
C2118 C2114 1.531 . S
C2118 H2130 0.960 . S
C2118 H2131 0.962 . S
C2118 H2132 0.960 . S
C2119 C2116 1.511 . S
C2119 H2133 0.961 . S
C2119 H2134 0.961 . S
C2119 H2135 0.961 . S
C2120 C2121 1.370 . S
C2120 C2122 1.363 . S
C2120 H2136 0.931 . S
C2121 C2120 1.370 . S
C2121 C2125 1.408 . S
C2122 C2120 1.363 . S
C2122 C2123 1.370 . S
C2122 C2126 1.524 . S
C2123 C2115 1.503 . S
C2123 C2122 1.370 . S
C2123 C2124 1.403 . S
C2124 C2123 1.403 . S
C2124 C2125 1.404 . S
C2124 C2127 1.539 . S
C2125 C2121 1.408 . S
C2125 C2124 1.404 . S
C2125 H2137 0.930 . S
C2126 C2122 1.524 . S
C2126 H2138 0.956 . S
C2126 H2139 0.961 . S
C2126 H2140 0.961 . S
C2127 C2124 1.539 . S
C2127 H2141 0.958 . S
C2127 H2142 0.961 . S
C2127 H2143 0.960 . S
H2128 C2112 0.931 . S
H2129 C2117 0.929 . S
H2130 C2118 0.960 . S
H2131 C2118 0.962 . S
H2132 C2118 0.960 . S
H2133 C2119 0.961 . S
H2134 C2119 0.961 . S
H2135 C2119 0.961 . S
H2136 C2120 0.931 . S
H2137 C2125 0.930 . S
H2138 C2126 0.956 . S
H2139 C2126 0.961 . S
H2140 C2126 0.961 . S
H2141 C2127 0.958 . S
H2142 C2127 0.961 . S
H2143 C2127 0.960 . S
C2144 C2145 1.391 . S
C2144 C2146 1.394 . S
C2144 H2160 0.931 . S
C2145 C2144 1.391 . S
C2145 C2149 1.376 . S
C2146 C2144 1.394 . S
C2146 C2147 1.369 . S
C2146 C2150 1.531 . S
C2147 C2146 1.369 . S
C2147 C2148 1.410 . S
C2147 C2155 1.503 . S
C2148 C2147 1.410 . S
C2148 C2149 1.392 . S
C2148 C2151 1.511 . S
C2149 C2145 1.376 . S
C2149 C2148 1.392 . S
C2149 H2161 0.929 . S
C2150 C2146 1.531 . S
C2150 H2162 0.960 . S
C2150 H2163 0.962 . S
C2150 H2164 0.960 . S
C2151 C2148 1.511 . S
C2151 H2165 0.961 . S
C2151 H2166 0.961 . S
C2151 H2167 0.961 . S
C2152 C2153 1.370 . S
C2152 C2154 1.363 . S
C2152 H2168 0.931 . S
C2153 C2152 1.370 . S
C2153 C2157 1.408 . S
C2154 C2152 1.363 . S
C2154 C2155 1.370 . S
C2154 C2158 1.524 . S
C2155 C2147 1.503 . S
C2155 C2154 1.370 . S
C2155 C2156 1.403 . S
C2156 C2155 1.403 . S
C2156 C2157 1.404 . S
C2156 C2159 1.539 . S
C2157 C2153 1.408 . S
C2157 C2156 1.404 . S
C2157 H2169 0.930 . S
C2158 C2154 1.524 . S
C2158 H2170 0.956 . S
C2158 H2171 0.961 . S
C2158 H2172 0.961 . S
C2159 C2156 1.539 . S
C2159 H2173 0.958 . S
C2159 H2174 0.961 . S
C2159 H2175 0.960 . S
H2160 C2144 0.931 . S
H2161 C2149 0.929 . S
H2162 C2150 0.960 . S
H2163 C2150 0.962 . S
H2164 C2150 0.960 . S
H2165 C2151 0.961 . S
H2166 C2151 0.961 . S
H2167 C2151 0.961 . S
H2168 C2152 0.931 . S
H2169 C2157 0.930 . S
H2170 C2158 0.956 . S
H2171 C2158 0.961 . S
H2172 C2158 0.961 . S
H2173 C2159 0.958 . S
H2174 C2159 0.961 . S
H2175 C2159 0.960 . S
C2176 C2177 1.391 . S
C2176 C2178 1.394 . S
C2176 H2192 0.931 . S
C2177 C2176 1.391 . S
C2177 C2181 1.376 . S
C2178 C2176 1.394 . S
C2178 C2179 1.369 . S
C2178 C2182 1.531 . S
C2179 C2178 1.369 . S
C2179 C2180 1.410 . S
C2179 C2187 1.503 . S
C2180 C2179 1.410 . S
C2180 C2181 1.392 . S
C2180 C2183 1.511 . S
C2181 C2177 1.376 . S
C2181 C2180 1.392 . S
C2181 H2193 0.929 . S
C2182 C2178 1.531 . S
C2182 H2194 0.960 . S
C2182 H2195 0.962 . S
C2182 H2196 0.960 . S
C2183 C2180 1.511 . S
C2183 H2197 0.961 . S
C2183 H2198 0.961 . S
C2183 H2199 0.961 . S
C2184 C2185 1.370 . S
C2184 C2186 1.363 . S
C2184 H2200 0.931 . S
C2185 C2184 1.370 . S
C2185 C2189 1.408 . S
C2186 C2184 1.363 . S
C2186 C2187 1.370 . S
C2186 C2190 1.524 . S
C2187 C2179 1.503 . S
C2187 C2186 1.370 . S
C2187 C2188 1.403 . S
C2188 C2187 1.403 . S
C2188 C2189 1.404 . S
C2188 C2191 1.539 . S
C2189 C2185 1.408 . S
C2189 C2188 1.404 . S
C2189 H2201 0.930 . S
C2190 C2186 1.524 . S
C2190 H2202 0.956 . S
C2190 H2203 0.961 . S
C2190 H2204 0.961 . S
C2191 C2188 1.539 . S
C2191 H2205 0.958 . S
C2191 H2206 0.961 . S
C2191 H2207 0.960 . S
H2192 C2176 0.931 . S
H2193 C2181 0.929 . S
H2194 C2182 0.960 . S
H2195 C2182 0.962 . S
H2196 C2182 0.960 . S
H2197 C2183 0.961 . S
H2198 C2183 0.961 . S
H2199 C2183 0.961 . S
H2200 C2184 0.931 . S
H2201 C2189 0.930 . S
H2202 C2190 0.956 . S
H2203 C2190 0.961 . S
H2204 C2190 0.961 . S
H2205 C2191 0.958 . S
H2206 C2191 0.961 . S
H2207 C2191 0.960 . S
C2208 C2209 1.391 . S
C2208 C2210 1.394 . S
C2208 H2224 0.931 . S
C2209 C2208 1.391 . S
C2209 C2213 1.376 . S
C2210 C2208 1.394 . S
C2210 C2211 1.369 . S
C2210 C2214 1.531 . S
C2211 C2210 1.369 . S
C2211 C2212 1.410 . S
C2211 C2219 1.503 . S
C2212 C2211 1.410 . S
C2212 C2213 1.392 . S
C2212 C2215 1.511 . S
C2213 C2209 1.376 . S
C2213 C2212 1.392 . S
C2213 H2225 0.929 . S
C2214 C2210 1.531 . S
C2214 H2226 0.960 . S
C2214 H2227 0.962 . S
C2214 H2228 0.960 . S
C2215 C2212 1.511 . S
C2215 H2229 0.961 . S
C2215 H2230 0.961 . S
C2215 H2231 0.961 . S
C2216 C2217 1.370 . S
C2216 C2218 1.363 . S
C2216 H2232 0.931 . S
C2217 C2216 1.370 . S
C2217 C2221 1.408 . S
C2218 C2216 1.363 . S
C2218 C2219 1.370 . S
C2218 C2222 1.524 . S
C2219 C2211 1.503 . S
C2219 C2218 1.370 . S
C2219 C2220 1.403 . S
C2220 C2219 1.403 . S
C2220 C2221 1.404 . S
C2220 C2223 1.539 . S
C2221 C2217 1.408 . S
C2221 C2220 1.404 . S
C2221 H2233 0.930 . S
C2222 C2218 1.524 . S
C2222 H2234 0.956 . S
C2222 H2235 0.961 . S
C2222 H2236 0.961 . S
C2223 C2220 1.539 . S
C2223 H2237 0.958 . S
C2223 H2238 0.961 . S
C2223 H2239 0.960 . S
H2224 C2208 0.931 . S
H2225 C2213 0.929 . S
H2226 C2214 0.960 . S
H2227 C2214 0.962 . S
H2228 C2214 0.960 . S
H2229 C2215 0.961 . S
H2230 C2215 0.961 . S
H2231 C2215 0.961 . S
H2232 C2216 0.931 . S
H2233 C2221 0.930 . S
H2234 C2222 0.956 . S
H2235 C2222 0.961 . S
H2236 C2222 0.961 . S
H2237 C2223 0.958 . S
H2238 C2223 0.961 . S
H2239 C2223 0.960 . S
C2240 C2241 1.391 . S
C2240 C2242 1.394 . S
C2240 H2256 0.931 . S
C2241 C2240 1.391 . S
C2241 C2245 1.376 . S
C2242 C2240 1.394 . S
C2242 C2243 1.369 . S
C2242 C2246 1.531 . S
C2243 C2242 1.369 . S
C2243 C2244 1.410 . S
C2243 C2251 1.503 . S
C2244 C2243 1.410 . S
C2244 C2245 1.392 . S
C2244 C2247 1.511 . S
C2245 C2241 1.376 . S
C2245 C2244 1.392 . S
C2245 H2257 0.929 . S
C2246 C2242 1.531 . S
C2246 H2258 0.960 . S
C2246 H2259 0.962 . S
C2246 H2260 0.960 . S
C2247 C2244 1.511 . S
C2247 H2261 0.961 . S
C2247 H2262 0.961 . S
C2247 H2263 0.961 . S
C2248 C2249 1.370 . S
C2248 C2250 1.363 . S
C2248 H2264 0.931 . S
C2249 C2248 1.370 . S
C2249 C2253 1.408 . S
C2250 C2248 1.363 . S
C2250 C2251 1.370 . S
C2250 C2254 1.524 . S
C2251 C2243 1.503 . S
C2251 C2250 1.370 . S
C2251 C2252 1.403 . S
C2252 C2251 1.403 . S
C2252 C2253 1.404 . S
C2252 C2255 1.539 . S
C2253 C2249 1.408 . S
C2253 C2252 1.404 . S
C2253 H2265 0.930 . S
C2254 C2250 1.524 . S
C2254 H2266 0.956 . S
C2254 H2267 0.961 . S
C2254 H2268 0.961 . S
C2255 C2252 1.539 . S
C2255 H2269 0.958 . S
C2255 H2270 0.961 . S
C2255 H2271 0.960 . S
H2256 C2240 0.931 . S
H2257 C2245 0.929 . S
H2258 C2246 0.960 . S
H2259 C2246 0.962 . S
H2260 C2246 0.960 . S
H2261 C2247 0.961 . S
H2262 C2247 0.961 . S
H2263 C2247 0.961 . S
H2264 C2248 0.931 . S
H2265 C2253 0.930 . S
H2266 C2254 0.956 . S
H2267 C2254 0.961 . S
H2268 C2254 0.961 . S
H2269 C2255 0.958 . S
H2270 C2255 0.961 . S
H2271 C2255 0.960 . S
C2272 C2273 1.391 . S
C2272 C2274 1.394 . S
C2272 H2288 0.931 . S
C2273 C2272 1.391 . S
C2273 C2277 1.376 . S
C2274 C2272 1.394 . S
C2274 C2275 1.369 . S
C2274 C2278 1.531 . S
C2275 C2274 1.369 . S
C2275 C2276 1.410 . S
C2275 C2283 1.503 . S
C2276 C2275 1.410 . S
C2276 C2277 1.392 . S
C2276 C2279 1.511 . S
C2277 C2273 1.376 . S
C2277 C2276 1.392 . S
C2277 H2289 0.929 . S
C2278 C2274 1.531 . S
C2278 H2290 0.960 . S
C2278 H2291 0.962 . S
C2278 H2292 0.960 . S
C2279 C2276 1.511 . S
C2279 H2293 0.961 . S
C2279 H2294 0.961 . S
C2279 H2295 0.961 . S
C2280 C2281 1.370 . S
C2280 C2282 1.363 . S
C2280 H2296 0.931 . S
C2281 C2280 1.370 . S
C2281 C2285 1.408 . S
C2282 C2280 1.363 . S
C2282 C2283 1.370 . S
C2282 C2286 1.524 . S
C2283 C2275 1.503 . S
C2283 C2282 1.370 . S
C2283 C2284 1.403 . S
C2284 C2283 1.403 . S
C2284 C2285 1.404 . S
C2284 C2287 1.539 . S
C2285 C2281 1.408 . S
C2285 C2284 1.404 . S
C2285 H2297 0.930 . S
C2286 C2282 1.524 . S
C2286 H2298 0.956 . S
C2286 H2299 0.961 . S
C2286 H2300 0.961 . S
C2287 C2284 1.539 . S
C2287 H2301 0.958 . S
C2287 H2302 0.961 . S
C2287 H2303 0.960 . S
H2288 C2272 0.931 . S
H2289 C2277 0.929 . S
H2290 C2278 0.960 . S
H2291 C2278 0.962 . S
H2292 C2278 0.960 . S
H2293 C2279 0.961 . S
H2294 C2279 0.961 . S
H2295 C2279 0.961 . S
H2296 C2280 0.931 . S
H2297 C2285 0.930 . S
H2298 C2286 0.956 . S
H2299 C2286 0.961 . S
H2300 C2286 0.961 . S
H2301 C2287 0.958 . S
H2302 C2287 0.961 . S
H2303 C2287 0.960 . S
C2304 C2305 1.391 . S
C2304 C2306 1.394 . S
C2304 H2320 0.931 . S
C2305 C2304 1.391 . S
C2305 C2309 1.376 . S
C2306 C2304 1.394 . S
C2306 C2307 1.369 . S
C2306 C2310 1.531 . S
C2307 C2306 1.369 . S
C2307 C2308 1.410 . S
C2307 C2315 1.503 . S
C2308 C2307 1.410 . S
C2308 C2309 1.392 . S
C2308 C2311 1.511 . S
C2309 C2305 1.376 . S
C2309 C2308 1.392 . S
C2309 H2321 0.929 . S
C2310 C2306 1.531 . S
C2310 H2322 0.960 . S
C2310 H2323 0.962 . S
C2310 H2324 0.960 . S
C2311 C2308 1.511 . S
C2311 H2325 0.961 . S
C2311 H2326 0.961 . S
C2311 H2327 0.961 . S
C2312 C2313 1.370 . S
C2312 C2314 1.363 . S
C2312 H2328 0.931 . S
C2313 C2312 1.370 . S
C2313 C2317 1.408 . S
C2314 C2312 1.363 . S
C2314 C2315 1.370 . S
C2314 C2318 1.524 . S
C2315 C2307 1.503 . S
C2315 C2314 1.370 . S
C2315 C2316 1.403 . S
C2316 C2315 1.403 . S
C2316 C2317 1.404 . S
C2316 C2319 1.539 . S
C2317 C2313 1.408 . S
C2317 C2316 1.404 . S
C2317 H2329 0.930 . S
C2318 C2314 1.524 . S
C2318 H2330 0.956 . S
C2318 H2331 0.961 . S
C2318 H2332 0.961 . S
C2319 C2316 1.539 . S
C2319 H2333 0.958 . S
C2319 H2334 0.961 . S
C2319 H2335 0.960 . S
H2320 C2304 0.931 . S
H2321 C2309 0.929 . S
H2322 C2310 0.960 . S
H2323 C2310 0.962 . S
H2324 C2310 0.960 . S
H2325 C2311 0.961 . S
H2326 C2311 0.961 . S
H2327 C2311 0.961 . S
H2328 C2312 0.931 . S
H2329 C2317 0.930 . S
H2330 C2318 0.956 . S
H2331 C2318 0.961 . S
H2332 C2318 0.961 . S
H2333 C2319 0.958 . S
H2334 C2319 0.961 . S
H2335 C2319 0.960 . S
C2336 C2337 1.391 . S
C2336 C2338 1.394 . S
C2336 H2352 0.931 . S
C2337 C2336 1.391 . S
C2337 C2341 1.376 . S
C2338 C2336 1.394 . S
C2338 C2339 1.369 . S
C2338 C2342 1.531 . S
C2339 C2338 1.369 . S
C2339 C2340 1.410 . S
C2339 C2347 1.503 . S
C2340 C2339 1.410 . S
C2340 C2341 1.392 . S
C2340 C2343 1.511 . S
C2341 C2337 1.376 . S
C2341 C2340 1.392 . S
C2341 H2353 0.929 . S
C2342 C2338 1.531 . S
C2342 H2354 0.960 . S
C2342 H2355 0.962 . S
C2342 H2356 0.960 . S
C2343 C2340 1.511 . S
C2343 H2357 0.961 . S
C2343 H2358 0.961 . S
C2343 H2359 0.961 . S
C2344 C2345 1.370 . S
C2344 C2346 1.363 . S
C2344 H2360 0.931 . S
C2345 C2344 1.370 . S
C2345 C2349 1.408 . S
C2346 C2344 1.363 . S
C2346 C2347 1.370 . S
C2346 C2350 1.524 . S
C2347 C2339 1.503 . S
C2347 C2346 1.370 . S
C2347 C2348 1.403 . S
C2348 C2347 1.403 . S
C2348 C2349 1.404 . S
C2348 C2351 1.539 . S
C2349 C2345 1.408 . S
C2349 C2348 1.404 . S
C2349 H2361 0.930 . S
C2350 C2346 1.524 . S
C2350 H2362 0.956 . S
C2350 H2363 0.961 . S
C2350 H2364 0.961 . S
C2351 C2348 1.539 . S
C2351 H2365 0.958 . S
C2351 H2366 0.961 . S
C2351 H2367 0.960 . S
H2352 C2336 0.931 . S
H2353 C2341 0.929 . S
H2354 C2342 0.960 . S
H2355 C2342 0.962 . S
H2356 C2342 0.960 . S
H2357 C2343 0.961 . S
H2358 C2343 0.961 . S
H2359 C2343 0.961 . S
H2360 C2344 0.931 . S
H2361 C2349 0.930 . S
H2362 C2350 0.956 . S
H2363 C2350 0.961 . S
H2364 C2350 0.961 . S
H2365 C2351 0.958 . S
H2366 C2351 0.961 . S
H2367 C2351 0.960 . S
C2368 C2369 1.391 . S
C2368 C2370 1.394 . S
C2368 H2384 0.931 . S
C2369 C2368 1.391 . S
C2369 C2373 1.376 . S
C2370 C2368 1.394 . S
C2370 C2371 1.369 . S
C2370 C2374 1.531 . S
C2371 C2370 1.369 . S
C2371 C2372 1.410 . S
C2371 C2379 1.503 . S
C2372 C2371 1.410 . S
C2372 C2373 1.392 . S
C2372 C2375 1.511 . S
C2373 C2369 1.376 . S
C2373 C2372 1.392 . S
C2373 H2385 0.929 . S
C2374 C2370 1.531 . S
C2374 H2386 0.960 . S
C2374 H2387 0.962 . S
C2374 H2388 0.960 . S
C2375 C2372 1.511 . S
C2375 H2389 0.961 . S
C2375 H2390 0.961 . S
C2375 H2391 0.961 . S
C2376 C2377 1.370 . S
C2376 C2378 1.363 . S
C2376 H2392 0.931 . S
C2377 C2376 1.370 . S
C2377 C2381 1.408 . S
C2378 C2376 1.363 . S
C2378 C2379 1.370 . S
C2378 C2382 1.524 . S
C2379 C2371 1.503 . S
C2379 C2378 1.370 . S
C2379 C2380 1.403 . S
C2380 C2379 1.403 . S
C2380 C2381 1.404 . S
C2380 C2383 1.539 . S
C2381 C2377 1.408 . S
C2381 C2380 1.404 . S
C2381 H2393 0.930 . S
C2382 C2378 1.524 . S
C2382 H2394 0.956 . S
C2382 H2395 0.961 . S
C2382 H2396 0.961 . S
C2383 C2380 1.539 . S
C2383 H2397 0.958 . S
C2383 H2398 0.961 . S
C2383 H2399 0.960 . S
H2384 C2368 0.931 . S
H2385 C2373 0.929 . S
H2386 C2374 0.960 . S
H2387 C2374 0.962 . S
H2388 C2374 0.960 . S
H2389 C2375 0.961 . S
H2390 C2375 0.961 . S
H2391 C2375 0.961 . S
H2392 C2376 0.931 . S
H2393 C2381 0.930 . S
H2394 C2382 0.956 . S
H2395 C2382 0.961 . S
H2396 C2382 0.961 . S
H2397 C2383 0.958 . S
H2398 C2383 0.961 . S
H2399 C2383 0.960 . S
C2400 C2401 1.391 . S
C2400 C2402 1.394 . S
C2400 H2416 0.931 . S
C2401 C2400 1.391 . S
C2401 C2405 1.376 . S
C2402 C2400 1.394 . S
C2402 C2403 1.369 . S
C2402 C2406 1.531 . S
C2403 C2402 1.369 . S
C2403 C2404 1.410 . S
C2403 C2411 1.503 . S
C2404 C2403 1.410 . S
C2404 C2405 1.392 . S
C2404 C2407 1.511 . S
C2405 C2401 1.376 . S
C2405 C2404 1.392 . S
C2405 H2417 0.929 . S
C2406 C2402 1.531 . S
C2406 H2418 0.960 . S
C2406 H2419 0.962 . S
C2406 H2420 0.960 . S
C2407 C2404 1.511 . S
C2407 H2421 0.961 . S
C2407 H2422 0.961 . S
C2407 H2423 0.961 . S
C2408 C2409 1.370 . S
C2408 C2410 1.363 . S
C2408 H2424 0.931 . S
C2409 C2408 1.370 . S
C2409 C2413 1.408 . S
C2410 C2408 1.363 . S
C2410 C2411 1.370 . S
C2410 C2414 1.524 . S
C2411 C2403 1.503 . S
C2411 C2410 1.370 . S
C2411 C2412 1.403 . S
C2412 C2411 1.403 . S
C2412 C2413 1.404 . S
C2412 C2415 1.539 . S
C2413 C2409 1.408 . S
C2413 C2412 1.404 . S
C2413 H2425 0.930 . S
C2414 C2410 1.524 . S
C2414 H2426 0.956 . S
C2414 H2427 0.961 . S
C2414 H2428 0.961 . S
C2415 C2412 1.539 . S
C2415 H2429 0.958 . S
C2415 H2430 0.961 . S
C2415 H2431 0.960 . S
H2416 C2400 0.931 . S
H2417 C2405 0.929 . S
H2418 C2406 0.960 . S
H2419 C2406 0.962 . S
H2420 C2406 0.960 . S
H2421 C2407 0.961 . S
H2422 C2407 0.961 . S
H2423 C2407 0.961 . S
H2424 C2408 0.931 . S
H2425 C2413 0.930 . S
H2426 C2414 0.956 . S
H2427 C2414 0.961 . S
H2428 C2414 0.961 . S
H2429 C2415 0.958 . S
H2430 C2415 0.961 . S
H2431 C2415 0.960 . S
C2432 C2433 1.391 . S
C2432 C2434 1.394 . S
C2432 H2448 0.931 . S
C2433 C2432 1.391 . S
C2433 C2437 1.376 . S
C2434 C2432 1.394 . S
C2434 C2435 1.369 . S
C2434 C2438 1.531 . S
C2435 C2434 1.369 . S
C2435 C2436 1.410 . S
C2435 C2443 1.503 . S
C2436 C2435 1.410 . S
C2436 C2437 1.392 . S
C2436 C2439 1.511 . S
C2437 C2433 1.376 . S
C2437 C2436 1.392 . S
C2437 H2449 0.929 . S
C2438 C2434 1.531 . S
C2438 H2450 0.960 . S
C2438 H2451 0.962 . S
C2438 H2452 0.960 . S
C2439 C2436 1.511 . S
C2439 H2453 0.961 . S
C2439 H2454 0.961 . S
C2439 H2455 0.961 . S
C2440 C2441 1.370 . S
C2440 C2442 1.363 . S
C2440 H2456 0.931 . S
C2441 C2440 1.370 . S
C2441 C2445 1.408 . S
C2442 C2440 1.363 . S
C2442 C2443 1.370 . S
C2442 C2446 1.524 . S
C2443 C2435 1.503 . S
C2443 C2442 1.370 . S
C2443 C2444 1.403 . S
C2444 C2443 1.403 . S
C2444 C2445 1.404 . S
C2444 C2447 1.539 . S
C2445 C2441 1.408 . S
C2445 C2444 1.404 . S
C2445 H2457 0.930 . S
C2446 C2442 1.524 . S
C2446 H2458 0.956 . S
C2446 H2459 0.961 . S
C2446 H2460 0.961 . S
C2447 C2444 1.539 . S
C2447 H2461 0.958 . S
C2447 H2462 0.961 . S
C2447 H2463 0.960 . S
H2448 C2432 0.931 . S
H2449 C2437 0.929 . S
H2450 C2438 0.960 . S
H2451 C2438 0.962 . S
H2452 C2438 0.960 . S
H2453 C2439 0.961 . S
H2454 C2439 0.961 . S
H2455 C2439 0.961 . S
H2456 C2440 0.931 . S
H2457 C2445 0.930 . S
H2458 C2446 0.956 . S
H2459 C2446 0.961 . S
H2460 C2446 0.961 . S
H2461 C2447 0.958 . S
H2462 C2447 0.961 . S
H2463 C2447 0.960 . S
C2464 C2465 1.391 . S
C2464 C2466 1.394 . S
C2464 H2480 0.931 . S
C2465 C2464 1.391 . S
C2465 C2469 1.376 . S
C2466 C2464 1.394 . S
C2466 C2467 1.369 . S
C2466 C2470 1.531 . S
C2467 C2466 1.369 . S
C2467 C2468 1.410 . S
C2467 C2475 1.503 . S
C2468 C2467 1.410 . S
C2468 C2469 1.392 . S
C2468 C2471 1.511 . S
C2469 C2465 1.376 . S
C2469 C2468 1.392 . S
C2469 H2481 0.929 . S
C2470 C2466 1.531 . S
C2470 H2482 0.960 . S
C2470 H2483 0.962 . S
C2470 H2484 0.960 . S
C2471 C2468 1.511 . S
C2471 H2485 0.961 . S
C2471 H2486 0.961 . S
C2471 H2487 0.961 . S
C2472 C2473 1.370 . S
C2472 C2474 1.363 . S
C2472 H2488 0.931 . S
C2473 C2472 1.370 . S
C2473 C2477 1.408 . S
C2474 C2472 1.363 . S
C2474 C2475 1.370 . S
C2474 C2478 1.524 . S
C2475 C2467 1.503 . S
C2475 C2474 1.370 . S
C2475 C2476 1.403 . S
C2476 C2475 1.403 . S
C2476 C2477 1.404 . S
C2476 C2479 1.539 . S
C2477 C2473 1.408 . S
C2477 C2476 1.404 . S
C2477 H2489 0.930 . S
C2478 C2474 1.524 . S
C2478 H2490 0.956 . S
C2478 H2491 0.961 . S
C2478 H2492 0.961 . S
C2479 C2476 1.539 . S
C2479 H2493 0.958 . S
C2479 H2494 0.961 . S
C2479 H2495 0.960 . S
H2480 C2464 0.931 . S
H2481 C2469 0.929 . S
H2482 C2470 0.960 . S
H2483 C2470 0.962 . S
H2484 C2470 0.960 . S
H2485 C2471 0.961 . S
H2486 C2471 0.961 . S
H2487 C2471 0.961 . S
H2488 C2472 0.931 . S
H2489 C2477 0.930 . S
H2490 C2478 0.956 . S
H2491 C2478 0.961 . S
H2492 C2478 0.961 . S
H2493 C2479 0.958 . S
H2494 C2479 0.961 . S
H2495 C2479 0.960 . S
C2496 C2497 1.391 . S
C2496 C2498 1.394 . S
C2496 H2512 0.931 . S
C2497 C2496 1.391 . S
C2497 C2501 1.376 . S
C2498 C2496 1.394 . S
C2498 C2499 1.369 . S
C2498 C2502 1.531 . S
C2499 C2498 1.369 . S
C2499 C2500 1.410 . S
C2499 C2507 1.503 . S
C2500 C2499 1.410 . S
C2500 C2501 1.392 . S
C2500 C2503 1.511 . S
C2501 C2497 1.376 . S
C2501 C2500 1.392 . S
C2501 H2513 0.929 . S
C2502 C2498 1.531 . S
C2502 H2514 0.960 . S
C2502 H2515 0.962 . S
C2502 H2516 0.960 . S
C2503 C2500 1.511 . S
C2503 H2517 0.961 . S
C2503 H2518 0.961 . S
C2503 H2519 0.961 . S
C2504 C2505 1.370 . S
C2504 C2506 1.363 . S
C2504 H2520 0.931 . S
C2505 C2504 1.370 . S
C2505 C2509 1.408 . S
C2506 C2504 1.363 . S
C2506 C2507 1.370 . S
C2506 C2510 1.524 . S
C2507 C2499 1.503 . S
C2507 C2506 1.370 . S
C2507 C2508 1.403 . S
C2508 C2507 1.403 . S
C2508 C2509 1.404 . S
C2508 C2511 1.539 . S
C2509 C2505 1.408 . S
C2509 C2508 1.404 . S
C2509 H2521 0.930 . S
C2510 C2506 1.524 . S
C2510 H2522 0.956 . S
C2510 H2523 0.961 . S
C2510 H2524 0.961 . S
C2511 C2508 1.539 . S
C2511 H2525 0.958 . S
C2511 H2526 0.961 . S
C2511 H2527 0.960 . S
H2512 C2496 0.931 . S
H2513 C2501 0.929 . S
H2514 C2502 0.960 . S
H2515 C2502 0.962 . S
H2516 C2502 0.960 . S
H2517 C2503 0.961 . S
H2518 C2503 0.961 . S
H2519 C2503 0.961 . S
H2520 C2504 0.931 . S
H2521 C2509 0.930 . S
H2522 C2510 0.956 . S
H2523 C2510 0.961 . S
H2524 C2510 0.961 . S
H2525 C2511 0.958 . S
H2526 C2511 0.961 . S
H2527 C2511 0.960 . S
C2528 C2529 1.391 . S
C2528 C2530 1.394 . S
C2528 H2544 0.931 . S
C2529 C2528 1.391 . S
C2529 C2533 1.376 . S
C2530 C2528 1.394 . S
C2530 C2531 1.369 . S
C2530 C2534 1.531 . S
C2531 C2530 1.369 . S
C2531 C2532 1.410 . S
C2531 C2539 1.503 . S
C2532 C2531 1.410 . S
C2532 C2533 1.392 . S
C2532 C2535 1.511 . S
C2533 C2529 1.376 . S
C2533 C2532 1.392 . S
C2533 H2545 0.929 . S
C2534 C2530 1.531 . S
C2534 H2546 0.960 . S
C2534 H2547 0.962 . S
C2534 H2548 0.960 . S
C2535 C2532 1.511 . S
C2535 H2549 0.961 . S
C2535 H2550 0.961 . S
C2535 H2551 0.961 . S
C2536 C2537 1.370 . S
C2536 C2538 1.363 . S
C2536 H2552 0.931 . S
C2537 C2536 1.370 . S
C2537 C2541 1.408 . S
C2538 C2536 1.363 . S
C2538 C2539 1.370 . S
C2538 C2542 1.524 . S
C2539 C2531 1.503 . S
C2539 C2538 1.370 . S
C2539 C2540 1.403 . S
C2540 C2539 1.403 . S
C2540 C2541 1.404 . S
C2540 C2543 1.539 . S
C2541 C2537 1.408 . S
C2541 C2540 1.404 . S
C2541 H2553 0.930 . S
C2542 C2538 1.524 . S
C2542 H2554 0.956 . S
C2542 H2555 0.961 . S
C2542 H2556 0.961 . S
C2543 C2540 1.539 . S
C2543 H2557 0.958 . S
C2543 H2558 0.961 . S
C2543 H2559 0.960 . S
H2544 C2528 0.931 . S
H2545 C2533 0.929 . S
H2546 C2534 0.960 . S
H2547 C2534 0.962 . S
H2548 C2534 0.960 . S
H2549 C2535 0.961 . S
H2550 C2535 0.961 . S
H2551 C2535 0.961 . S
H2552 C2536 0.931 . S
H2553 C2541 0.930 . S
H2554 C2542 0.956 . S
H2555 C2542 0.961 . S
H2556 C2542 0.961 . S
H2557 C2543 0.958 . S
H2558 C2543 0.961 . S
H2559 C2543 0.960 . S
C2560 C2561 1.391 . S
C2560 C2562 1.394 . S
C2560 H2576 0.931 . S
C2561 C2560 1.391 . S
C2561 C2565 1.376 . S
C2562 C2560 1.394 . S
C2562 C2563 1.369 . S
C2562 C2566 1.531 . S
C2563 C2562 1.369 . S
C2563 C2564 1.410 . S
C2563 C2571 1.503 . S
C2564 C2563 1.410 . S
C2564 C2565 1.392 . S
C2564 C2567 1.511 . S
C2565 C2561 1.376 . S
C2565 C2564 1.392 . S
C2565 H2577 0.929 . S
C2566 C2562 1.531 . S
C2566 H2578 0.960 . S
C2566 H2579 0.962 . S
C2566 H2580 0.960 . S
C2567 C2564 1.511 . S
C2567 H2581 0.961 . S
C2567 H2582 0.961 . S
C2567 H2583 0.961 . S
C2568 C2569 1.370 . S
C2568 C2570 1.363 . S
C2568 H2584 0.931 . S
C2569 C2568 1.370 . S
C2569 C2573 1.408 . S
C2570 C2568 1.363 . S
C2570 C2571 1.370 . S
C2570 C2574 1.524 . S
C2571 C2563 1.503 . S
C2571 C2570 1.370 . S
C2571 C2572 1.403 . S
C2572 C2571 1.403 . S
C2572 C2573 1.404 . S
C2572 C2575 1.539 . S
C2573 C2569 1.408 . S
C2573 C2572 1.404 . S
C2573 H2585 0.930 . S
C2574 C2570 1.524 . S
C2574 H2586 0.956 . S
C2574 H2587 0.961 . S
C2574 H2588 0.961 . S
C2575 C2572 1.539 . S
C2575 H2589 0.958 . S
C2575 H2590 0.961 . S
C2575 H2591 0.960 . S
H2576 C2560 0.931 . S
H2577 C2565 0.929 . S
H2578 C2566 0.960 . S
H2579 C2566 0.962 . S
H2580 C2566 0.960 . S
H2581 C2567 0.961 . S
H2582 C2567 0.961 . S
H2583 C2567 0.961 . S
H2584 C2568 0.931 . S
H2585 C2573 0.930 . S
H2586 C2574 0.956 . S
H2587 C2574 0.961 . S
H2588 C2574 0.961 . S
H2589 C2575 0.958 . S
H2590 C2575 0.961 . S
H2591 C2575 0.960 . S
C2592 C2593 1.391 . S
C2592 C2594 1.394 . S
C2592 H2608 0.931 . S
C2593 C2592 1.391 . S
C2593 C2597 1.376 . S
C2594 C2592 1.394 . S
C2594 C2595 1.369 . S
C2594 C2598 1.531 . S
C2595 C2594 1.369 . S
C2595 C2596 1.410 . S
C2595 C2603 1.503 . S
C2596 C2595 1.410 . S
C2596 C2597 1.392 . S
C2596 C2599 1.511 . S
C2597 C2593 1.376 . S
C2597 C2596 1.392 . S
C2597 H2609 0.929 . S
C2598 C2594 1.531 . S
C2598 H2610 0.960 . S
C2598 H2611 0.962 . S
C2598 H2612 0.960 . S
C2599 C2596 1.511 . S
C2599 H2613 0.961 . S
C2599 H2614 0.961 . S
C2599 H2615 0.961 . S
C2600 C2601 1.370 . S
C2600 C2602 1.363 . S
C2600 H2616 0.931 . S
C2601 C2600 1.370 . S
C2601 C2605 1.408 . S
C2602 C2600 1.363 . S
C2602 C2603 1.370 . S
C2602 C2606 1.524 . S
C2603 C2595 1.503 . S
C2603 C2602 1.370 . S
C2603 C2604 1.403 . S
C2604 C2603 1.403 . S
C2604 C2605 1.404 . S
C2604 C2607 1.539 . S
C2605 C2601 1.408 . S
C2605 C2604 1.404 . S
C2605 H2617 0.930 . S
C2606 C2602 1.524 . S
C2606 H2618 0.956 . S
C2606 H2619 0.961 . S
C2606 H2620 0.961 . S
C2607 C2604 1.539 . S
C2607 H2621 0.958 . S
C2607 H2622 0.961 . S
C2607 H2623 0.960 . S
H2608 C2592 0.931 . S
H2609 C2597 0.929 . S
H2610 C2598 0.960 . S
H2611 C2598 0.962 . S
H2612 C2598 0.960 . S
H2613 C2599 0.961 . S
H2614 C2599 0.961 . S
H2615 C2599 0.961 . S
H2616 C2600 0.931 . S
H2617 C2605 0.930 . S
H2618 C2606 0.956 . S
H2619 C2606 0.961 . S
H2620 C2606 0.961 . S
H2621 C2607 0.958 . S
H2622 C2607 0.961 . S
H2623 C2607 0.960 . S
C2624 C2625 1.391 . S
C2624 C2626 1.394 . S
C2624 H2640 0.931 . S
C2625 C2624 1.391 . S
C2625 C2629 1.376 1_455 S
C2626 C2624 1.394 . S
C2626 C2627 1.369 1_455 S
C2626 C2630 1.531 . S
C2627 C2626 1.369 1_655 S
C2627 C2628 1.410 . S
C2627 C2635 1.503 . S
C2628 C2627 1.410 . S
C2628 C2629 1.392 . S
C2628 C2631 1.511 . S
C2629 C2625 1.376 1_655 S
C2629 C2628 1.392 . S
C2629 H2641 0.929 . S
C2630 C2626 1.531 . S
C2630 H2642 0.960 . S
C2630 H2643 0.962 . S
C2630 H2644 0.960 . S
C2631 C2628 1.511 . S
C2631 H2645 0.961 . S
C2631 H2646 0.961 . S
C2631 H2647 0.961 . S
C2632 C2633 1.370 . S
C2632 C2634 1.363 . S
C2632 H2648 0.931 . S
C2633 C2632 1.370 . S
C2633 C2637 1.408 . S
C2634 C2632 1.363 . S
C2634 C2635 1.370 . S
C2634 C2638 1.524 1_655 S
C2635 C2627 1.503 . S
C2635 C2634 1.370 . S
C2635 C2636 1.403 . S
C2636 C2635 1.403 . S
C2636 C2637 1.404 . S
C2636 C2639 1.539 . S
C2637 C2633 1.408 . S
C2637 C2636 1.404 . S
C2637 H2649 0.930 . S
C2638 C2634 1.524 1_455 S
C2638 H2650 0.956 . S
C2638 H2651 0.961 . S
C2638 H2652 0.961 . S
C2639 C2636 1.539 . S
C2639 H2653 0.958 . S
C2639 H2654 0.961 . S
C2639 H2655 0.960 . S
H2640 C2624 0.931 . S
H2641 C2629 0.929 . S
H2642 C2630 0.960 . S
H2643 C2630 0.962 . S
H2644 C2630 0.960 . S
H2645 C2631 0.961 . S
H2646 C2631 0.961 . S
H2647 C2631 0.961 . S
H2648 C2632 0.931 . S
H2649 C2637 0.930 . S
H2650 C2638 0.956 . S
H2651 C2638 0.961 . S
H2652 C2638 0.961 . S
H2653 C2639 0.958 . S
H2654 C2639 0.961 . S
H2655 C2639 0.960 . S
C2656 C2657 1.391 . S
C2656 C2658 1.394 . S
C2656 H2672 0.931 . S
C2657 C2656 1.391 . S
C2657 C2661 1.376 . S
C2658 C2656 1.394 . S
C2658 C2659 1.369 . S
C2658 C2662 1.531 . S
C2659 C2658 1.369 . S
C2659 C2660 1.410 . S
C2659 C2667 1.503 . S
C2660 C2659 1.410 . S
C2660 C2661 1.392 . S
C2660 C2663 1.511 . S
C2661 C2657 1.376 . S
C2661 C2660 1.392 . S
C2661 H2673 0.929 . S
C2662 C2658 1.531 . S
C2662 H2674 0.960 . S
C2662 H2675 0.962 . S
C2662 H2676 0.960 . S
C2663 C2660 1.511 . S
C2663 H2677 0.961 . S
C2663 H2678 0.961 . S
C2663 H2679 0.961 . S
C2664 C2665 1.370 . S
C2664 C2666 1.363 . S
C2664 H2680 0.931 . S
C2665 C2664 1.370 . S
C2665 C2669 1.408 . S
C2666 C2664 1.363 . S
C2666 C2667 1.370 . S
C2666 C2670 1.524 . S
C2667 C2659 1.503 . S
C2667 C2666 1.370 . S
C2667 C2668 1.403 . S
C2668 C2667 1.403 . S
C2668 C2669 1.404 . S
C2668 C2671 1.539 . S
C2669 C2665 1.408 . S
C2669 C2668 1.404 . S
C2669 H2681 0.930 . S
C2670 C2666 1.524 . S
C2670 H2682 0.956 . S
C2670 H2683 0.961 . S
C2670 H2684 0.961 . S
C2671 C2668 1.539 . S
C2671 H2685 0.958 . S
C2671 H2686 0.961 . S
C2671 H2687 0.960 . S
H2672 C2656 0.931 . S
H2673 C2661 0.929 . S
H2674 C2662 0.960 . S
H2675 C2662 0.962 . S
H2676 C2662 0.960 . S
H2677 C2663 0.961 . S
H2678 C2663 0.961 . S
H2679 C2663 0.961 . S
H2680 C2664 0.931 . S
H2681 C2669 0.930 . S
H2682 C2670 0.956 . S
H2683 C2670 0.961 . S
H2684 C2670 0.961 . S
H2685 C2671 0.958 . S
H2686 C2671 0.961 . S
H2687 C2671 0.960 . S
C2688 C2689 1.391 . S
C2688 C2690 1.394 1_455 S
C2688 H2704 0.929 . S
C2689 C2688 1.391 . S
C2689 C2693 1.376 . S
C2690 C2688 1.394 1_655 S
C2690 C2691 1.383 . S
C2690 C2694 1.531 . S
C2691 C2690 1.383 . S
C2691 C2692 1.372 1_655 S
C2691 C2699 1.534 . S
C2692 C2691 1.372 1_455 S
C2692 C2693 1.392 . S
C2692 C2695 1.511 . S
C2693 C2689 1.376 . S
C2693 C2692 1.392 . S
C2693 H2705 0.929 . S
C2694 C2690 1.531 . S
C2694 H2706 0.960 . S
C2694 H2707 0.962 . S
C2694 H2708 0.960 . S
C2695 C2692 1.511 . S
C2695 H2709 0.961 . S
C2695 H2710 0.961 . S
C2695 H2711 0.961 . S
C2696 C2697 1.370 . S
C2696 C2698 1.363 . S
C2696 H2712 0.931 . S
C2697 C2696 1.370 . S
C2697 C2701 1.408 . S
C2698 C2696 1.363 . S
C2698 C2699 1.370 . S
C2698 C2702 1.524 . S
C2699 C2691 1.534 . S
C2699 C2698 1.370 . S
C2699 C2700 1.403 . S
C2700 C2699 1.403 . S
C2700 C2701 1.404 . S
C2700 C2703 1.539 1_655 S
C2701 C2697 1.408 . S
C2701 C2700 1.404 . S
C2701 H2713 0.930 . S
C2702 C2698 1.524 . S
C2702 H2714 0.956 . S
C2702 H2715 0.961 . S
C2702 H2716 0.961 . S
C2703 C2700 1.539 1_455 S
C2703 H2717 0.958 . S
C2703 H2718 0.961 . S
C2703 H2719 0.960 . S
H2704 C2688 0.929 . S
H2705 C2693 0.929 . S
H2706 C2694 0.960 . S
H2707 C2694 0.962 . S
H2708 C2694 0.960 . S
H2709 C2695 0.961 . S
H2710 C2695 0.961 . S
H2711 C2695 0.961 . S
H2712 C2696 0.931 . S
H2713 C2701 0.930 . S
H2714 C2702 0.956 . S
H2715 C2702 0.961 . S
H2716 C2702 0.961 . S
H2717 C2703 0.958 . S
H2718 C2703 0.961 . S
H2719 C2703 0.960 . S
C2720 C2721 1.391 . S
C2720 C2722 1.394 . S
C2720 H2736 0.931 . S
C2721 C2720 1.391 . S
C2721 C2725 1.376 . S
C2722 C2720 1.394 . S
C2722 C2723 1.369 . S
C2722 C2726 1.531 . S
C2723 C2722 1.369 . S
C2723 C2724 1.410 . S
C2723 C2731 1.503 . S
C2724 C2723 1.410 . S
C2724 C2725 1.392 . S
C2724 C2727 1.511 . S
C2725 C2721 1.376 . S
C2725 C2724 1.392 . S
C2725 H2737 0.929 . S
C2726 C2722 1.531 . S
C2726 H2738 0.960 . S
C2726 H2739 0.962 . S
C2726 H2740 0.960 . S
C2727 C2724 1.511 . S
C2727 H2741 0.961 . S
C2727 H2742 0.961 . S
C2727 H2743 0.961 . S
C2728 C2729 1.370 . S
C2728 C2730 1.363 . S
C2728 H2744 0.931 . S
C2729 C2728 1.370 . S
C2729 C2733 1.408 . S
C2730 C2728 1.363 . S
C2730 C2731 1.370 . S
C2730 C2734 1.524 . S
C2731 C2723 1.503 . S
C2731 C2730 1.370 . S
C2731 C2732 1.403 . S
C2732 C2731 1.403 . S
C2732 C2733 1.404 . S
C2732 C2735 1.539 . S
C2733 C2729 1.408 . S
C2733 C2732 1.404 . S
C2733 H2745 0.930 . S
C2734 C2730 1.524 . S
C2734 H2746 0.956 . S
C2734 H2747 0.961 . S
C2734 H2748 0.961 . S
C2735 C2732 1.539 . S
C2735 H2749 0.958 . S
C2735 H2750 0.961 . S
C2735 H2751 0.960 . S
H2736 C2720 0.931 . S
H2737 C2725 0.929 . S
H2738 C2726 0.960 . S
H2739 C2726 0.962 . S
H2740 C2726 0.960 . S
H2741 C2727 0.961 . S
H2742 C2727 0.961 . S
H2743 C2727 0.961 . S
H2744 C2728 0.931 . S
H2745 C2733 0.930 . S
H2746 C2734 0.956 . S
H2747 C2734 0.961 . S
H2748 C2734 0.961 . S
H2749 C2735 0.958 . S
H2750 C2735 0.961 . S
H2751 C2735 0.960 . S
C2752 C2753 1.391 . S
C2752 C2754 1.394 . S
C2752 H2768 0.931 . S
C2753 C2752 1.391 . S
C2753 C2757 1.376 . S
C2754 C2752 1.394 . S
C2754 C2755 1.369 . S
C2754 C2758 1.531 . S
C2755 C2754 1.369 . S
C2755 C2756 1.410 . S
C2755 C2763 1.503 . S
C2756 C2755 1.410 . S
C2756 C2757 1.392 . S
C2756 C2759 1.511 1_455 S
C2757 C2753 1.376 . S
C2757 C2756 1.392 . S
C2757 H2769 0.929 . S
C2758 C2754 1.531 . S
C2758 H2770 0.960 . S
C2758 H2771 0.962 . S
C2758 H2772 0.960 . S
C2759 C2756 1.511 1_655 S
C2759 H2773 0.961 . S
C2759 H2774 0.961 . S
C2759 H2775 0.961 . S
C2760 C2761 1.370 1_455 S
C2760 C2762 1.363 . S
C2760 H2776 0.931 . S
C2761 C2760 1.370 1_655 S
C2761 C2765 1.408 . S
C2762 C2760 1.363 . S
C2762 C2763 1.370 . S
C2762 C2766 1.524 . S
C2763 C2755 1.503 . S
C2763 C2762 1.370 . S
C2763 C2764 1.403 1_455 S
C2764 C2763 1.403 1_655 S
C2764 C2765 1.404 . S
C2764 C2767 1.539 . S
C2765 C2761 1.408 . S
C2765 C2764 1.404 . S
C2765 H2777 0.930 . S
C2766 C2762 1.524 . S
C2766 H2778 0.956 . S
C2766 H2779 0.961 . S
C2766 H2780 0.961 . S
C2767 C2764 1.539 . S
C2767 H2781 0.958 . S
C2767 H2782 0.961 . S
C2767 H2783 0.960 . S
H2768 C2752 0.931 . S
H2769 C2757 0.929 . S
H2770 C2758 0.960 . S
H2771 C2758 0.962 . S
H2772 C2758 0.960 . S
H2773 C2759 0.961 . S
H2774 C2759 0.961 . S
H2775 C2759 0.961 . S
H2776 C2760 0.931 . S
H2777 C2765 0.930 . S
H2778 C2766 0.956 . S
H2779 C2766 0.961 . S
H2780 C2766 0.961 . S
H2781 C2767 0.958 . S
H2782 C2767 0.961 . S
H2783 C2767 0.960 . S
C2784 C2785 1.391 . S
C2784 C2786 1.394 . S
C2784 H2800 0.931 . S
C2785 C2784 1.391 . S
C2785 C2789 1.376 . S
C2786 C2784 1.394 . S
C2786 C2787 1.369 . S
C2786 C2790 1.531 . S
C2787 C2786 1.369 . S
C2787 C2788 1.410 . S
C2787 C2795 1.503 . S
C2788 C2787 1.410 . S
C2788 C2789 1.392 . S
C2788 C2791 1.511 . S
C2789 C2785 1.376 . S
C2789 C2788 1.392 . S
C2789 H2801 0.929 . S
C2790 C2786 1.531 . S
C2790 H2802 0.960 . S
C2790 H2803 0.962 . S
C2790 H2804 0.960 . S
C2791 C2788 1.511 . S
C2791 H2805 0.961 . S
C2791 H2806 0.961 . S
C2791 H2807 0.961 . S
C2792 C2793 1.370 . S
C2792 C2794 1.363 . S
C2792 H2808 0.931 . S
C2793 C2792 1.370 . S
C2793 C2797 1.408 . S
C2794 C2792 1.363 . S
C2794 C2795 1.370 . S
C2794 C2798 1.524 . S
C2795 C2787 1.503 . S
C2795 C2794 1.370 . S
C2795 C2796 1.403 . S
C2796 C2795 1.403 . S
C2796 C2797 1.404 . S
C2796 C2799 1.539 . S
C2797 C2793 1.408 . S
C2797 C2796 1.404 . S
C2797 H2809 0.930 . S
C2798 C2794 1.524 . S
C2798 H2810 0.956 . S
C2798 H2811 0.961 . S
C2798 H2812 0.961 . S
C2799 C2796 1.539 . S
C2799 H2813 0.958 . S
C2799 H2814 0.961 . S
C2799 H2815 0.960 . S
H2800 C2784 0.931 . S
H2801 C2789 0.929 . S
H2802 C2790 0.960 . S
H2803 C2790 0.962 . S
H2804 C2790 0.960 . S
H2805 C2791 0.961 . S
H2806 C2791 0.961 . S
H2807 C2791 0.961 . S
H2808 C2792 0.931 . S
H2809 C2797 0.930 . S
H2810 C2798 0.956 . S
H2811 C2798 0.961 . S
H2812 C2798 0.961 . S
H2813 C2799 0.958 . S
H2814 C2799 0.961 . S
H2815 C2799 0.960 . S
C2816 C2817 1.391 . S
C2816 C2818 1.394 . S
C2816 H2832 0.931 . S
C2817 C2816 1.391 . S
C2817 C2821 1.376 . S
C2818 C2816 1.394 . S
C2818 C2819 1.369 . S
C2818 C2822 1.534 . S
C2819 C2818 1.369 . S
C2819 C2820 1.410 . S
C2819 C2827 1.503 . S
C2820 C2819 1.410 . S
C2820 C2821 1.392 . S
C2820 C2823 1.511 . S
C2821 C2817 1.376 . S
C2821 C2820 1.392 . S
C2821 H2833 0.929 . S
C2822 C2818 1.534 . S
C2822 H2834 0.954 1_455 S
C2822 H2835 0.967 . S
C2822 H2836 0.958 1_455 S
C2823 C2820 1.511 . S
C2823 H2837 0.961 . S
C2823 H2838 0.961 . S
C2823 H2839 0.961 . S
C2824 C2825 1.370 1_455 S
C2824 C2826 1.363 . S
C2824 H2840 0.931 . S
C2825 C2824 1.370 1_655 S
C2825 C2829 1.408 . S
C2826 C2824 1.363 . S
C2826 C2827 1.370 . S
C2826 C2830 1.524 . S
C2827 C2819 1.503 . S
C2827 C2826 1.370 . S
C2827 C2828 1.403 1_455 S
C2828 C2827 1.403 1_655 S
C2828 C2829 1.404 . S
C2828 C2831 1.539 . S
C2829 C2825 1.408 . S
C2829 C2828 1.404 . S
C2829 H2841 0.930 . S
C2830 C2826 1.524 . S
C2830 H2842 0.956 . S
C2830 H2843 0.961 . S
C2830 H2844 0.961 . S
C2831 C2828 1.539 . S
C2831 H2845 0.958 . S
C2831 H2846 0.961 . S
C2831 H2847 0.960 . S
H2832 C2816 0.931 . S
H2833 C2821 0.929 . S
H2834 C2822 0.954 1_655 S
H2835 C2822 0.967 . S
H2836 C2822 0.958 1_655 S
H2837 C2823 0.961 . S
H2838 C2823 0.961 . S
H2839 C2823 0.961 . S
H2840 C2824 0.931 . S
H2841 C2829 0.930 . S
H2842 C2830 0.956 . S
H2843 C2830 0.961 . S
H2844 C2830 0.961 . S
H2845 C2831 0.958 . S
H2846 C2831 0.961 . S
H2847 C2831 0.960 . S
C2848 C2849 1.391 . S
C2848 C2850 1.394 . S
C2848 H2864 0.931 . S
C2849 C2848 1.391 . S
C2849 C2853 1.376 . S
C2850 C2848 1.394 . S
C2850 C2851 1.369 . S
C2850 C2854 1.531 . S
C2851 C2850 1.369 . S
C2851 C2852 1.410 . S
C2851 C2859 1.503 . S
C2852 C2851 1.410 . S
C2852 C2853 1.392 . S
C2852 C2855 1.511 . S
C2853 C2849 1.376 . S
C2853 C2852 1.392 . S
C2853 H2865 0.929 . S
C2854 C2850 1.531 . S
C2854 H2866 0.960 . S
C2854 H2867 0.962 . S
C2854 H2868 0.960 . S
C2855 C2852 1.511 . S
C2855 H2869 0.961 . S
C2855 H2870 0.961 . S
C2855 H2871 0.961 . S
C2856 C2857 1.370 . S
C2856 C2858 1.363 . S
C2856 H2872 0.931 . S
C2857 C2856 1.370 . S
C2857 C2861 1.408 . S
C2858 C2856 1.363 . S
C2858 C2859 1.370 . S
C2858 C2862 1.524 . S
C2859 C2851 1.503 . S
C2859 C2858 1.370 . S
C2859 C2860 1.403 . S
C2860 C2859 1.403 . S
C2860 C2861 1.404 . S
C2860 C2863 1.539 . S
C2861 C2857 1.408 . S
C2861 C2860 1.404 . S
C2861 H2873 0.930 . S
C2862 C2858 1.524 . S
C2862 H2874 0.956 . S
C2862 H2875 0.961 . S
C2862 H2876 0.961 . S
C2863 C2860 1.539 . S
C2863 H2877 0.958 . S
C2863 H2878 0.961 . S
C2863 H2879 0.960 . S
H2864 C2848 0.931 . S
H2865 C2853 0.929 . S
H2866 C2854 0.960 . S
H2867 C2854 0.962 . S
H2868 C2854 0.960 . S
H2869 C2855 0.961 . S
H2870 C2855 0.961 . S
H2871 C2855 0.961 . S
H2872 C2856 0.931 . S
H2873 C2861 0.930 . S
H2874 C2862 0.956 . S
H2875 C2862 0.961 . S
H2876 C2862 0.961 . S
H2877 C2863 0.958 . S
H2878 C2863 0.961 . S
H2879 C2863 0.960 . S
C2880 C2881 1.391 1_655 S
C2880 C2882 1.394 . S
C2880 H2896 0.931 . S
C2881 C2880 1.391 1_455 S
C2881 C2885 1.376 . S
C2882 C2880 1.394 . S
C2882 C2883 1.369 . S
C2882 C2886 1.531 . S
C2883 C2882 1.369 . S
C2883 C2884 1.410 1_655 S
C2883 C2891 1.503 . S
C2884 C2883 1.410 1_455 S
C2884 C2885 1.392 . S
C2884 C2887 1.511 . S
C2885 C2881 1.376 . S
C2885 C2884 1.392 . S
C2885 H2897 0.929 . S
C2886 C2882 1.531 . S
C2886 H2898 0.960 . S
C2886 H2899 0.962 . S
C2886 H2900 0.960 . S
C2887 C2884 1.511 . S
C2887 H2901 0.961 . S
C2887 H2902 0.961 . S
C2887 H2903 0.993 . S
C2888 C2889 1.370 . S
C2888 C2890 1.363 . S
C2888 H2904 0.931 . S
C2889 C2888 1.370 . S
C2889 C2893 1.408 . S
C2890 C2888 1.363 . S
C2890 C2891 1.370 . S
C2890 C2894 1.524 1_655 S
C2891 C2883 1.503 . S
C2891 C2890 1.370 . S
C2891 C2892 1.403 . S
C2892 C2891 1.403 . S
C2892 C2893 1.404 . S
C2892 C2895 1.539 . S
C2893 C2889 1.408 . S
C2893 C2892 1.404 . S
C2893 H2905 0.930 . S
C2894 C2890 1.524 1_455 S
C2894 H2906 0.956 . S
C2894 H2907 0.961 . S
C2894 H2908 0.961 . S
C2895 C2892 1.539 . S
C2895 H2909 0.958 . S
C2895 H2910 0.961 . S
C2895 H2911 0.960 . S
H2896 C2880 0.931 . S
H2897 C2885 0.929 . S
H2898 C2886 0.960 . S
H2899 C2886 0.962 . S
H2900 C2886 0.960 . S
H2901 C2887 0.961 . S
H2902 C2887 0.961 . S
H2903 C2887 0.993 . S
H2904 C2888 0.931 . S
H2905 C2893 0.930 . S
H2906 C2894 0.956 . S
H2907 C2894 0.961 . S
H2908 C2894 0.961 . S
H2909 C2895 0.958 . S
H2910 C2895 0.961 . S
H2911 C2895 0.960 . S
C2912 C2913 1.391 . S
C2912 C2914 1.394 . S
C2912 H2928 0.931 . S
C2913 C2912 1.391 . S
C2913 C2917 1.376 . S
C2914 C2912 1.394 . S
C2914 C2915 1.369 . S
C2914 C2918 1.531 . S
C2915 C2914 1.369 . S
C2915 C2916 1.410 . S
C2915 C2923 1.503 . S
C2916 C2915 1.410 . S
C2916 C2917 1.392 . S
C2916 C2919 1.511 . S
C2917 C2913 1.376 . S
C2917 C2916 1.392 . S
C2917 H2929 0.929 . S
C2918 C2914 1.531 . S
C2918 H2930 0.960 . S
C2918 H2931 0.962 . S
C2918 H2932 0.960 . S
C2919 C2916 1.511 . S
C2919 H2933 0.961 . S
C2919 H2934 0.961 . S
C2919 H2935 0.961 . S
C2920 C2921 1.370 . S
C2920 C2922 1.363 . S
C2920 H2936 0.931 . S
C2921 C2920 1.370 . S
C2921 C2925 1.408 . S
C2922 C2920 1.363 . S
C2922 C2923 1.370 . S
C2922 C2926 1.524 . S
C2923 C2915 1.503 . S
C2923 C2922 1.370 . S
C2923 C2924 1.403 . S
C2924 C2923 1.403 . S
C2924 C2925 1.404 . S
C2924 C2927 1.539 . S
C2925 C2921 1.408 . S
C2925 C2924 1.404 . S
C2925 H2937 0.930 . S
C2926 C2922 1.524 . S
C2926 H2938 0.956 . S
C2926 H2939 0.961 . S
C2926 H2940 0.961 . S
C2927 C2924 1.539 . S
C2927 H2941 0.958 . S
C2927 H2942 0.961 . S
C2927 H2943 0.960 . S
H2928 C2912 0.931 . S
H2929 C2917 0.929 . S
H2930 C2918 0.960 . S
H2931 C2918 0.962 . S
H2932 C2918 0.960 . S
H2933 C2919 0.961 . S
H2934 C2919 0.961 . S
H2935 C2919 0.961 . S
H2936 C2920 0.931 . S
H2937 C2925 0.930 . S
H2938 C2926 0.956 . S
H2939 C2926 0.961 . S
H2940 C2926 0.961 . S
H2941 C2927 0.958 . S
H2942 C2927 0.961 . S
H2943 C2927 0.960 . S
C2944 C2945 1.391 . S
C2944 C2946 1.394 . S
C2944 H2960 0.931 . S
C2945 C2944 1.391 . S
C2945 C2949 1.376 . S
C2946 C2944 1.394 . S
C2946 C2947 1.369 . S
C2946 C2950 1.531 . S
C2947 C2946 1.369 . S
C2947 C2948 1.410 . S
C2947 C2955 1.503 . S
C2948 C2947 1.410 . S
C2948 C2949 1.392 . S
C2948 C2951 1.511 . S
C2949 C2945 1.376 . S
C2949 C2948 1.392 . S
C2949 H2961 0.929 . S
C2950 C2946 1.531 . S
C2950 H2962 0.960 . S
C2950 H2963 0.962 . S
C2950 H2964 0.960 . S
C2951 C2948 1.511 . S
C2951 H2965 0.961 . S
C2951 H2966 0.961 . S
C2951 H2967 0.961 1_655 S
C2952 C2953 1.370 1_655 S
C2952 C2954 1.363 . S
C2952 H2968 0.931 . S
C2953 C2952 1.370 1_455 S
C2953 C2957 1.408 . S
C2954 C2952 1.363 . S
C2954 C2955 1.370 . S
C2954 C2958 1.524 . S
C2955 C2947 1.503 . S
C2955 C2954 1.370 . S
C2955 C2956 1.403 1_655 S
C2956 C2955 1.403 1_455 S
C2956 C2957 1.404 . S
C2956 C2959 1.539 . S
C2957 C2953 1.408 . S
C2957 C2956 1.404 . S
C2957 H2969 0.930 . S
C2958 C2954 1.524 . S
C2958 H2970 0.956 . S
C2958 H2971 0.961 . S
C2958 H2972 0.961 . S
C2959 C2956 1.539 . S
C2959 H2973 0.958 . S
C2959 H2974 0.961 . S
C2959 H2975 0.960 . S
H2960 C2944 0.931 . S
H2961 C2949 0.929 . S
H2962 C2950 0.960 . S
H2963 C2950 0.962 . S
H2964 C2950 0.960 . S
H2965 C2951 0.961 . S
H2966 C2951 0.961 . S
H2967 C2951 0.961 1_455 S
H2968 C2952 0.931 . S
H2969 C2957 0.930 . S
H2970 C2958 0.956 . S
H2971 C2958 0.961 . S
H2972 C2958 0.961 . S
H2973 C2959 0.958 . S
H2974 C2959 0.961 . S
H2975 C2959 0.960 . S
C2976 C2977 1.391 . S
C2976 C2978 1.394 . S
C2976 H2992 0.931 . S
C2977 C2976 1.391 . S
C2977 C2981 1.376 . S
C2978 C2976 1.394 . S
C2978 C2979 1.369 . S
C2978 C2982 1.531 . S
C2979 C2978 1.369 . S
C2979 C2980 1.410 . S
C2979 C2987 1.503 . S
C2980 C2979 1.410 . S
C2980 C2981 1.392 . S
C2980 C2983 1.511 . S
C2981 C2977 1.376 . S
C2981 C2980 1.392 . S
C2981 H2993 0.929 . S
C2982 C2978 1.531 . S
C2982 H2994 0.960 . S
C2982 H2995 0.962 . S
C2982 H2996 0.960 . S
C2983 C2980 1.511 . S
C2983 H2997 0.961 . S
C2983 H2998 0.961 . S
C2983 H2999 0.961 . S
C2984 C2985 1.370 . S
C2984 C2986 1.363 . S
C2984 H3000 0.931 . S
C2985 C2984 1.370 . S
C2985 C2989 1.408 . S
C2986 C2984 1.363 . S
C2986 C2987 1.370 . S
C2986 C2990 1.524 . S
C2987 C2979 1.503 . S
C2987 C2986 1.370 . S
C2987 C2988 1.403 . S
C2988 C2987 1.403 . S
C2988 C2989 1.404 . S
C2988 C2991 1.539 . S
C2989 C2985 1.408 . S
C2989 C2988 1.404 . S
C2989 H3001 0.930 . S
C2990 C2986 1.524 . S
C2990 H3002 0.956 . S
C2990 H3003 0.961 . S
C2990 H3004 0.961 . S
C2991 C2988 1.539 . S
C2991 H3005 0.958 . S
C2991 H3006 0.961 . S
C2991 H3007 0.960 . S
H2992 C2976 0.931 . S
H2993 C2981 0.929 . S
H2994 C2982 0.960 . S
H2995 C2982 0.962 . S
H2996 C2982 0.960 . S
H2997 C2983 0.961 . S
H2998 C2983 0.961 . S
H2999 C2983 0.961 . S
H3000 C2984 0.931 . S
H3001 C2989 0.930 . S
H3002 C2990 0.956 . S
H3003 C2990 0.961 . S
H3004 C2990 0.961 . S
H3005 C2991 0.958 . S
H3006 C2991 0.961 . S
H3007 C2991 0.960 . S
C3008 C3009 1.391 . S
C3008 C3010 1.394 . S
C3008 H3024 0.931 . S
C3009 C3008 1.391 . S
C3009 C3013 1.376 . S
C3010 C3008 1.394 . S
C3010 C3011 1.369 . S
C3010 C3014 1.531 1_455 S
C3011 C3010 1.369 . S
C3011 C3012 1.410 . S
C3011 C3019 1.503 . S
C3012 C3011 1.410 . S
C3012 C3013 1.392 . S
C3012 C3015 1.511 . S
C3013 C3009 1.376 . S
C3013 C3012 1.392 . S
C3013 H3025 0.929 . S
C3014 C3010 1.531 1_655 S
C3014 H3026 0.960 . S
C3014 H3027 0.962 . S
C3014 H3028 0.960 . S
C3015 C3012 1.511 . S
C3015 H3029 0.961 . S
C3015 H3030 0.961 . S
C3015 H3031 0.961 . S
C3016 C3017 1.370 . S
C3016 C3018 1.363 . S
C3016 H3032 0.931 . S
C3017 C3016 1.370 . S
C3017 C3021 1.396 1_655 S
C3018 C3016 1.363 . S
C3018 C3019 1.370 1_655 S
C3018 C3022 1.524 . S
C3019 C3011 1.503 . S
C3019 C3018 1.370 1_455 S
C3019 C3020 1.403 . S
C3020 C3019 1.403 . S
C3020 C3021 1.413 . S
C3020 C3023 1.539 . S
C3021 C3017 1.396 1_455 S
C3021 C3020 1.413 . S
C3021 H3033 0.933 . S
C3022 C3018 1.524 . S
C3022 H3034 0.956 . S
C3022 H3035 0.961 1_655 S
C3022 H3036 0.961 . S
C3023 C3020 1.539 . S
C3023 H3037 0.958 . S
C3023 H3038 0.961 . S
C3023 H3039 0.960 . S
H3024 C3008 0.931 . S
H3025 C3013 0.929 . S
H3026 C3014 0.960 . S
H3027 C3014 0.962 . S
H3028 C3014 0.960 . S
H3029 C3015 0.961 . S
H3030 C3015 0.961 . S
H3031 C3015 0.961 . S
H3032 C3016 0.931 . S
H3033 C3021 0.933 . S
H3034 C3022 0.956 . S
H3035 C3022 0.961 1_455 S
H3036 C3022 0.961 . S
H3037 C3023 0.958 . S
H3038 C3023 0.961 . S
H3039 C3023 0.960 . S
C3040 C3041 1.391 . S
C3040 C3042 1.394 . S
C3040 H3056 0.931 . S
C3041 C3040 1.391 . S
C3041 C3045 1.376 . S
C3042 C3040 1.394 . S
C3042 C3043 1.369 . S
C3042 C3046 1.531 . S
C3043 C3042 1.369 . S
C3043 C3044 1.410 . S
C3043 C3051 1.503 . S
C3044 C3043 1.410 . S
C3044 C3045 1.392 . S
C3044 C3047 1.511 . S
C3045 C3041 1.376 . S
C3045 C3044 1.392 . S
C3045 H3057 0.929 . S
C3046 C3042 1.531 . S
C3046 H3058 0.960 . S
C3046 H3059 0.962 . S
C3046 H3060 0.960 . S
C3047 C3044 1.511 . S
C3047 H3061 0.961 . S
C3047 H3062 0.961 . S
C3047 H3063 0.961 . S
C3048 C3049 1.370 . S
C3048 C3050 1.363 . S
C3048 H3064 0.931 . S
C3049 C3048 1.370 . S
C3049 C3053 1.408 . S
C3050 C3048 1.363 . S
C3050 C3051 1.370 . S
C3050 C3054 1.524 . S
C3051 C3043 1.503 . S
C3051 C3050 1.370 . S
C3051 C3052 1.403 . S
C3052 C3051 1.403 . S
C3052 C3053 1.404 . S
C3052 C3055 1.539 . S
C3053 C3049 1.408 . S
C3053 C3052 1.404 . S
C3053 H3065 0.930 . S
C3054 C3050 1.524 . S
C3054 H3066 0.956 . S
C3054 H3067 0.961 . S
C3054 H3068 0.961 . S
C3055 C3052 1.539 . S
C3055 H3069 0.958 . S
C3055 H3070 0.961 . S
C3055 H3071 0.960 . S
H3056 C3040 0.931 . S
H3057 C3045 0.929 . S
H3058 C3046 0.960 . S
H3059 C3046 0.962 . S
H3060 C3046 0.960 . S
H3061 C3047 0.961 . S
H3062 C3047 0.961 . S
H3063 C3047 0.961 . S
H3064 C3048 0.931 . S
H3065 C3053 0.930 . S
H3066 C3054 0.956 . S
H3067 C3054 0.961 . S
H3068 C3054 0.961 . S
H3069 C3055 0.958 . S
H3070 C3055 0.961 . S
H3071 C3055 0.960 . S
C3072 C3073 1.391 1_455 S
C3072 C3074 1.394 . S
C3072 H3088 0.931 . S
C3073 C3072 1.391 1_655 S
C3073 C3077 1.376 . S
C3074 C3072 1.394 . S
C3074 C3075 1.369 . S
C3074 C3078 1.531 . S
C3075 C3074 1.369 . S
C3075 C3076 1.410 1_455 S
C3075 C3083 1.503 . S
C3076 C3075 1.410 1_655 S
C3076 C3077 1.392 . S
C3076 C3079 1.511 . S
C3077 C3073 1.376 . S
C3077 C3076 1.392 . S
C3077 H3089 0.929 . S
C3078 C3074 1.531 . S
C3078 H3090 0.960 . S
C3078 H3091 0.962 . S
C3078 H3092 0.960 . S
C3079 C3076 1.511 . S
C3079 H3093 0.961 . S
C3079 H3094 0.961 . S
C3079 H3095 0.961 . S
C3080 C3081 1.370 . S
C3080 C3082 1.363 . S
C3080 H3096 0.931 . S
C3081 C3080 1.370 . S
C3081 C3085 1.408 . S
C3082 C3080 1.363 . S
C3082 C3083 1.370 . S
C3082 C3086 1.524 . S
C3083 C3075 1.503 . S
C3083 C3082 1.370 . S
C3083 C3084 1.403 . S
C3084 C3083 1.403 . S
C3084 C3085 1.404 . S
C3084 C3087 1.539 1_455 S
C3085 C3081 1.408 . S
C3085 C3084 1.404 . S
C3085 H3097 0.930 . S
C3086 C3082 1.524 . S
C3086 H3098 0.956 . S
C3086 H3099 0.961 . S
C3086 H3100 0.961 . S
C3087 C3084 1.539 1_655 S
C3087 H3101 0.958 . S
C3087 H3102 0.961 . S
C3087 H3103 0.960 . S
H3088 C3072 0.931 . S
H3089 C3077 0.929 . S
H3090 C3078 0.960 . S
H3091 C3078 0.962 . S
H3092 C3078 0.960 . S
H3093 C3079 0.961 . S
H3094 C3079 0.961 . S
H3095 C3079 0.961 . S
H3096 C3080 0.931 . S
H3097 C3085 0.930 . S
H3098 C3086 0.956 . S
H3099 C3086 0.961 . S
H3100 C3086 0.961 . S
H3101 C3087 0.958 . S
H3102 C3087 0.961 . S
H3103 C3087 0.960 . S
C3104 C3105 1.391 . S
C3104 C3106 1.394 . S
C3104 H3120 0.931 . S
C3105 C3104 1.391 . S
C3105 C3109 1.376 . S
C3106 C3104 1.394 . S
C3106 C3107 1.369 . S
C3106 C3110 1.531 . S
C3107 C3106 1.369 . S
C3107 C3108 1.410 . S
C3107 C3115 1.503 . S
C3108 C3107 1.410 . S
C3108 C3109 1.392 . S
C3108 C3111 1.511 . S
C3109 C3105 1.376 . S
C3109 C3108 1.392 . S
C3109 H3121 0.929 . S
C3110 C3106 1.531 . S
C3110 H3122 0.960 . S
C3110 H3123 0.962 . S
C3110 H3124 0.960 . S
C3111 C3108 1.511 . S
C3111 H3125 0.961 . S
C3111 H3126 0.961 . S
C3111 H3127 0.961 . S
C3112 C3113 1.370 . S
C3112 C3114 1.363 . S
C3112 H3128 0.931 . S
C3113 C3112 1.370 . S
C3113 C3117 1.408 . S
C3114 C3112 1.363 . S
C3114 C3115 1.370 . S
C3114 C3118 1.524 . S
C3115 C3107 1.503 . S
C3115 C3114 1.370 . S
C3115 C3116 1.403 . S
C3116 C3115 1.403 . S
C3116 C3117 1.404 . S
C3116 C3119 1.539 . S
C3117 C3113 1.408 . S
C3117 C3116 1.404 . S
C3117 H3129 0.930 . S
C3118 C3114 1.524 . S
C3118 H3130 0.956 . S
C3118 H3131 0.961 . S
C3118 H3132 0.961 . S
C3119 C3116 1.539 . S
C3119 H3133 0.958 . S
C3119 H3134 0.961 . S
C3119 H3135 0.960 . S
H3120 C3104 0.931 . S
H3121 C3109 0.929 . S
H3122 C3110 0.960 . S
H3123 C3110 0.962 . S
H3124 C3110 0.960 . S
H3125 C3111 0.961 . S
H3126 C3111 0.961 . S
H3127 C3111 0.961 . S
H3128 C3112 0.931 . S
H3129 C3117 0.930 . S
H3130 C3118 0.956 . S
H3131 C3118 0.961 . S
H3132 C3118 0.961 . S
H3133 C3119 0.958 . S
H3134 C3119 0.961 . S
H3135 C3119 0.960 . S
C3136 C3137 1.391 . S
C3136 C3138 1.394 . S
C3136 H3152 0.931 . S
C3137 C3136 1.391 . S
C3137 C3141 1.376 . S
C3138 C3136 1.394 . S
C3138 C3139 1.369 . S
C3138 C3142 1.531 . S
C3139 C3138 1.369 . S
C3139 C3140 1.410 . S
C3139 C3147 1.503 . S
C3140 C3139 1.410 . S
C3140 C3141 1.392 . S
C3140 C3143 1.511 . S
C3141 C3137 1.376 . S
C3141 C3140 1.392 . S
C3141 H3153 0.929 . S
C3142 C3138 1.531 . S
C3142 H3154 0.960 . S
C3142 H3155 0.962 . S
C3142 H3156 0.960 . S
C3143 C3140 1.511 . S
C3143 H3157 0.961 . S
C3143 H3158 0.961 . S
C3143 H3159 0.961 . S
C3144 C3145 1.370 . S
C3144 C3146 1.363 . S
C3144 H3160 0.931 . S
C3145 C3144 1.370 . S
C3145 C3149 1.408 . S
C3146 C3144 1.363 . S
C3146 C3147 1.370 . S
C3146 C3150 1.524 . S
C3147 C3139 1.503 . S
C3147 C3146 1.370 . S
C3147 C3148 1.403 . S
C3148 C3147 1.403 . S
C3148 C3149 1.404 . S
C3148 C3151 1.539 . S
C3149 C3145 1.408 . S
C3149 C3148 1.404 . S
C3149 H3161 0.930 . S
C3150 C3146 1.524 . S
C3150 H3162 0.956 . S
C3150 H3163 0.961 . S
C3150 H3164 0.961 . S
C3151 C3148 1.539 . S
C3151 H3165 0.958 . S
C3151 H3166 0.961 . S
C3151 H3167 0.960 . S
H3152 C3136 0.931 . S
H3153 C3141 0.929 . S
H3154 C3142 0.960 . S
H3155 C3142 0.962 . S
H3156 C3142 0.960 . S
H3157 C3143 0.961 . S
H3158 C3143 0.961 . S
H3159 C3143 0.961 . S
H3160 C3144 0.931 . S
H3161 C3149 0.930 . S
H3162 C3150 0.956 . S
H3163 C3150 0.961 . S
H3164 C3150 0.961 . S
H3165 C3151 0.958 . S
H3166 C3151 0.961 . S
H3167 C3151 0.960 . S
C3168 C3169 1.391 . S
C3168 C3170 1.394 . S
C3168 H3184 0.931 . S
C3169 C3168 1.391 . S
C3169 C3173 1.376 . S
C3170 C3168 1.394 . S
C3170 C3171 1.369 . S
C3170 C3174 1.531 . S
C3171 C3170 1.369 . S
C3171 C3172 1.410 . S
C3171 C3179 1.503 . S
C3172 C3171 1.410 . S
C3172 C3173 1.392 . S
C3172 C3175 1.511 . S
C3173 C3169 1.376 . S
C3173 C3172 1.392 . S
C3173 H3185 0.929 . S
C3174 C3170 1.531 . S
C3174 H3186 0.960 . S
C3174 H3187 0.962 . S
C3174 H3188 0.960 . S
C3175 C3172 1.511 . S
C3175 H3189 0.961 . S
C3175 H3190 0.961 . S
C3175 H3191 0.961 . S
C3176 C3177 1.370 . S
C3176 C3178 1.363 . S
C3176 H3192 0.931 . S
C3177 C3176 1.370 . S
C3177 C3181 1.408 . S
C3178 C3176 1.363 . S
C3178 C3179 1.370 . S
C3178 C3182 1.524 . S
C3179 C3171 1.503 . S
C3179 C3178 1.370 . S
C3179 C3180 1.403 . S
C3180 C3179 1.403 . S
C3180 C3181 1.404 . S
C3180 C3183 1.539 . S
C3181 C3177 1.408 . S
C3181 C3180 1.404 . S
C3181 H3193 0.930 . S
C3182 C3178 1.524 . S
C3182 H3194 0.956 . S
C3182 H3195 0.961 . S
C3182 H3196 0.961 . S
C3183 C3180 1.539 . S
C3183 H3197 0.958 . S
C3183 H3198 0.961 . S
C3183 H3199 0.960 . S
H3184 C3168 0.931 . S
H3185 C3173 0.929 . S
H3186 C3174 0.960 . S
H3187 C3174 0.962 . S
H3188 C3174 0.960 . S
H3189 C3175 0.961 . S
H3190 C3175 0.961 . S
H3191 C3175 0.961 . S
H3192 C3176 0.931 . S
H3193 C3181 0.930 . S
H3194 C3182 0.956 . S
H3195 C3182 0.961 . S
H3196 C3182 0.961 . S
H3197 C3183 0.958 . S
H3198 C3183 0.961 . S
H3199 C3183 0.960 . S
C3200 C3201 1.391 . S
C3200 C3202 1.394 . S
C3200 H3216 0.931 . S
C3201 C3200 1.391 . S
C3201 C3205 1.376 . S
C3202 C3200 1.394 . S
C3202 C3203 1.369 . S
C3202 C3206 1.531 . S
C3203 C3202 1.369 . S
C3203 C3204 1.410 . S
C3203 C3211 1.503 . S
C3204 C3203 1.410 . S
C3204 C3205 1.392 . S
C3204 C3207 1.511 . S
C3205 C3201 1.376 . S
C3205 C3204 1.392 . S
C3205 H3217 0.929 . S
C3206 C3202 1.531 . S
C3206 H3218 0.960 . S
C3206 H3219 0.962 . S
C3206 H3220 0.960 . S
C3207 C3204 1.511 . S
C3207 H3221 0.961 . S
C3207 H3222 0.961 . S
C3207 H3223 0.961 . S
C3208 C3209 1.370 . S
C3208 C3210 1.363 . S
C3208 H3224 0.931 . S
C3209 C3208 1.370 . S
C3209 C3213 1.408 . S
C3210 C3208 1.363 . S
C3210 C3211 1.370 . S
C3210 C3214 1.524 . S
C3211 C3203 1.503 . S
C3211 C3210 1.370 . S
C3211 C3212 1.403 . S
C3212 C3211 1.403 . S
C3212 C3213 1.404 . S
C3212 C3215 1.539 . S
C3213 C3209 1.408 . S
C3213 C3212 1.404 . S
C3213 H3225 0.930 . S
C3214 C3210 1.524 . S
C3214 H3226 0.956 . S
C3214 H3227 0.961 . S
C3214 H3228 0.961 . S
C3215 C3212 1.539 . S
C3215 H3229 0.958 . S
C3215 H3230 0.961 . S
C3215 H3231 0.960 . S
H3216 C3200 0.931 . S
H3217 C3205 0.929 . S
H3218 C3206 0.960 . S
H3219 C3206 0.962 . S
H3220 C3206 0.960 . S
H3221 C3207 0.961 . S
H3222 C3207 0.961 . S
H3223 C3207 0.961 . S
H3224 C3208 0.931 . S
H3225 C3213 0.930 . S
H3226 C3214 0.956 . S
H3227 C3214 0.961 . S
H3228 C3214 0.961 . S
H3229 C3215 0.958 . S
H3230 C3215 0.961 . S
H3231 C3215 0.960 . S
C3232 C3233 1.391 . S
C3232 C3234 1.394 . S
C3232 H3248 0.931 . S
C3233 C3232 1.391 . S
C3233 C3237 1.376 . S
C3234 C3232 1.394 . S
C3234 C3235 1.369 . S
C3234 C3238 1.531 . S
C3235 C3234 1.369 . S
C3235 C3236 1.410 . S
C3235 C3243 1.503 . S
C3236 C3235 1.410 . S
C3236 C3237 1.392 . S
C3236 C3239 1.511 . S
C3237 C3233 1.376 . S
C3237 C3236 1.392 . S
C3237 H3249 0.929 . S
C3238 C3234 1.531 . S
C3238 H3250 0.960 . S
C3238 H3251 0.962 . S
C3238 H3252 0.960 . S
C3239 C3236 1.511 . S
C3239 H3253 0.961 . S
C3239 H3254 0.961 . S
C3239 H3255 0.961 . S
C3240 C3241 1.370 . S
C3240 C3242 1.363 . S
C3240 H3256 0.931 . S
C3241 C3240 1.370 . S
C3241 C3245 1.408 . S
C3242 C3240 1.363 . S
C3242 C3243 1.370 . S
C3242 C3246 1.524 . S
C3243 C3235 1.503 . S
C3243 C3242 1.370 . S
C3243 C3244 1.403 . S
C3244 C3243 1.403 . S
C3244 C3245 1.404 . S
C3244 C3247 1.539 . S
C3245 C3241 1.408 . S
C3245 C3244 1.404 . S
C3245 H3257 0.930 . S
C3246 C3242 1.524 . S
C3246 H3258 0.956 . S
C3246 H3259 0.961 . S
C3246 H3260 0.961 . S
C3247 C3244 1.539 . S
C3247 H3261 0.958 . S
C3247 H3262 0.961 . S
C3247 H3263 0.960 . S
H3248 C3232 0.931 . S
H3249 C3237 0.929 . S
H3250 C3238 0.960 . S
H3251 C3238 0.962 . S
H3252 C3238 0.960 . S
H3253 C3239 0.961 . S
H3254 C3239 0.961 . S
H3255 C3239 0.961 . S
H3256 C3240 0.931 . S
H3257 C3245 0.930 . S
H3258 C3246 0.956 . S
H3259 C3246 0.961 . S
H3260 C3246 0.961 . S
H3261 C3247 0.958 . S
H3262 C3247 0.961 . S
H3263 C3247 0.960 . S
C3264 C3265 1.391 . S
C3264 C3266 1.394 . S
C3264 H3280 0.931 . S
C3265 C3264 1.391 . S
C3265 C3269 1.376 . S
C3266 C3264 1.394 . S
C3266 C3267 1.369 . S
C3266 C3270 1.531 . S
C3267 C3266 1.369 . S
C3267 C3268 1.410 . S
C3267 C3275 1.503 . S
C3268 C3267 1.410 . S
C3268 C3269 1.392 . S
C3268 C3271 1.511 . S
C3269 C3265 1.376 . S
C3269 C3268 1.392 . S
C3269 H3281 0.929 . S
C3270 C3266 1.531 . S
C3270 H3282 0.960 . S
C3270 H3283 0.962 . S
C3270 H3284 0.960 . S
C3271 C3268 1.511 . S
C3271 H3285 0.961 . S
C3271 H3286 0.961 . S
C3271 H3287 0.961 . S
C3272 C3273 1.370 . S
C3272 C3274 1.363 . S
C3272 H3288 0.931 . S
C3273 C3272 1.370 . S
C3273 C3277 1.408 . S
C3274 C3272 1.363 . S
C3274 C3275 1.370 . S
C3274 C3278 1.524 . S
C3275 C3267 1.503 . S
C3275 C3274 1.370 . S
C3275 C3276 1.403 . S
C3276 C3275 1.403 . S
C3276 C3277 1.404 . S
C3276 C3279 1.539 . S
C3277 C3273 1.408 . S
C3277 C3276 1.404 . S
C3277 H3289 0.930 . S
C3278 C3274 1.524 . S
C3278 H3290 0.956 . S
C3278 H3291 0.961 . S
C3278 H3292 0.961 . S
C3279 C3276 1.539 . S
C3279 H3293 0.958 . S
C3279 H3294 0.961 . S
C3279 H3295 0.960 . S
H3280 C3264 0.931 . S
H3281 C3269 0.929 . S
H3282 C3270 0.960 . S
H3283 C3270 0.962 . S
H3284 C3270 0.960 . S
H3285 C3271 0.961 . S
H3286 C3271 0.961 . S
H3287 C3271 0.961 . S
H3288 C3272 0.931 . S
H3289 C3277 0.930 . S
H3290 C3278 0.956 . S
H3291 C3278 0.961 . S
H3292 C3278 0.961 . S
H3293 C3279 0.958 . S
H3294 C3279 0.961 . S
H3295 C3279 0.960 . S
C3296 C3297 1.391 . S
C3296 C3298 1.394 . S
C3296 H3312 0.931 . S
C3297 C3296 1.391 . S
C3297 C3301 1.376 . S
C3298 C3296 1.394 . S
C3298 C3299 1.369 . S
C3298 C3302 1.531 . S
C3299 C3298 1.369 . S
C3299 C3300 1.410 . S
C3299 C3307 1.503 . S
C3300 C3299 1.410 . S
C3300 C3301 1.392 . S
C3300 C3303 1.511 . S
C3301 C3297 1.376 . S
C3301 C3300 1.392 . S
C3301 H3313 0.929 . S
C3302 C3298 1.531 . S
C3302 H3314 0.960 . S
C3302 H3315 0.962 . S
C3302 H3316 0.960 . S
C3303 C3300 1.511 . S
C3303 H3317 0.961 . S
C3303 H3318 0.961 . S
C3303 H3319 0.961 . S
C3304 C3305 1.370 . S
C3304 C3306 1.363 . S
C3304 H3320 0.931 . S
C3305 C3304 1.370 . S
C3305 C3309 1.408 . S
C3306 C3304 1.363 . S
C3306 C3307 1.370 . S
C3306 C3310 1.524 . S
C3307 C3299 1.503 . S
C3307 C3306 1.370 . S
C3307 C3308 1.403 . S
C3308 C3307 1.403 . S
C3308 C3309 1.404 . S
C3308 C3311 1.539 . S
C3309 C3305 1.408 . S
C3309 C3308 1.404 . S
C3309 H3321 0.930 . S
C3310 C3306 1.524 . S
C3310 H3322 0.956 . S
C3310 H3323 0.961 . S
C3310 H3324 0.961 . S
C3311 C3308 1.539 . S
C3311 H3325 0.958 . S
C3311 H3326 0.961 . S
C3311 H3327 0.960 . S
H3312 C3296 0.931 . S
H3313 C3301 0.929 . S
H3314 C3302 0.960 . S
H3315 C3302 0.962 . S
H3316 C3302 0.960 . S
H3317 C3303 0.961 . S
H3318 C3303 0.961 . S
H3319 C3303 0.961 . S
H3320 C3304 0.931 . S
H3321 C3309 0.930 . S
H3322 C3310 0.956 . S
H3323 C3310 0.961 . S
H3324 C3310 0.961 . S
H3325 C3311 0.958 . S
H3326 C3311 0.961 . S
H3327 C3311 0.960 . S
C3328 C3329 1.391 . S
C3328 C3330 1.394 . S
C3328 H3344 0.931 . S
C3329 C3328 1.391 . S
C3329 C3333 1.376 . S
C3330 C3328 1.394 . S
C3330 C3331 1.369 . S
C3330 C3334 1.531 . S
C3331 C3330 1.369 . S
C3331 C3332 1.410 . S
C3331 C3339 1.503 . S
C3332 C3331 1.410 . S
C3332 C3333 1.392 . S
C3332 C3335 1.511 . S
C3333 C3329 1.376 . S
C3333 C3332 1.392 . S
C3333 H3345 0.929 . S
C3334 C3330 1.531 . S
C3334 H3346 0.960 . S
C3334 H3347 0.962 . S
C3334 H3348 0.960 . S
C3335 C3332 1.511 . S
C3335 H3349 0.961 . S
C3335 H3350 0.961 . S
C3335 H3351 0.961 . S
C3336 C3337 1.370 . S
C3336 C3338 1.363 . S
C3336 H3352 0.931 . S
C3337 C3336 1.370 . S
C3337 C3341 1.408 . S
C3338 C3336 1.363 . S
C3338 C3339 1.370 . S
C3338 C3342 1.524 . S
C3339 C3331 1.503 . S
C3339 C3338 1.370 . S
C3339 C3340 1.403 . S
C3340 C3339 1.403 . S
C3340 C3341 1.404 . S
C3340 C3343 1.539 . S
C3341 C3337 1.408 . S
C3341 C3340 1.404 . S
C3341 H3353 0.930 . S
C3342 C3338 1.524 . S
C3342 H3354 0.956 . S
C3342 H3355 0.961 . S
C3342 H3356 0.961 . S
C3343 C3340 1.539 . S
C3343 H3357 0.958 . S
C3343 H3358 0.961 . S
C3343 H3359 0.960 . S
H3344 C3328 0.931 . S
H3345 C3333 0.929 . S
H3346 C3334 0.960 . S
H3347 C3334 0.962 . S
H3348 C3334 0.960 . S
H3349 C3335 0.961 . S
H3350 C3335 0.961 . S
H3351 C3335 0.961 . S
H3352 C3336 0.931 . S
H3353 C3341 0.930 . S
H3354 C3342 0.956 . S
H3355 C3342 0.961 . S
H3356 C3342 0.961 . S
H3357 C3343 0.958 . S
H3358 C3343 0.961 . S
H3359 C3343 0.960 . S
C3360 C3361 1.391 . S
C3360 C3362 1.394 . S
C3360 H3376 0.931 . S
C3361 C3360 1.391 . S
C3361 C3365 1.376 . S
C3362 C3360 1.394 . S
C3362 C3363 1.369 . S
C3362 C3366 1.531 . S
C3363 C3362 1.369 . S
C3363 C3364 1.410 . S
C3363 C3371 1.503 . S
C3364 C3363 1.410 . S
C3364 C3365 1.392 . S
C3364 C3367 1.511 . S
C3365 C3361 1.376 . S
C3365 C3364 1.392 . S
C3365 H3377 0.929 . S
C3366 C3362 1.531 . S
C3366 H3378 0.960 . S
C3366 H3379 0.962 . S
C3366 H3380 0.960 . S
C3367 C3364 1.511 . S
C3367 H3381 0.961 . S
C3367 H3382 0.961 . S
C3367 H3383 0.961 . S
C3368 C3369 1.370 . S
C3368 C3370 1.363 . S
C3368 H3384 0.931 . S
C3369 C3368 1.370 . S
C3369 C3373 1.408 . S
C3370 C3368 1.363 . S
C3370 C3371 1.370 . S
C3370 C3374 1.524 . S
C3371 C3363 1.503 . S
C3371 C3370 1.370 . S
C3371 C3372 1.403 . S
C3372 C3371 1.403 . S
C3372 C3373 1.404 . S
C3372 C3375 1.539 . S
C3373 C3369 1.408 . S
C3373 C3372 1.404 . S
C3373 H3385 0.930 . S
C3374 C3370 1.524 . S
C3374 H3386 0.956 . S
C3374 H3387 0.961 . S
C3374 H3388 0.961 . S
C3375 C3372 1.539 . S
C3375 H3389 0.958 . S
C3375 H3390 0.961 . S
C3375 H3391 0.960 . S
H3376 C3360 0.931 . S
H3377 C3365 0.929 . S
H3378 C3366 0.960 . S
H3379 C3366 0.962 . S
H3380 C3366 0.960 . S
H3381 C3367 0.961 . S
H3382 C3367 0.961 . S
H3383 C3367 0.961 . S
H3384 C3368 0.931 . S
H3385 C3373 0.930 . S
H3386 C3374 0.956 . S
H3387 C3374 0.961 . S
H3388 C3374 0.961 . S
H3389 C3375 0.958 . S
H3390 C3375 0.961 . S
H3391 C3375 0.960 . S
C3392 C3393 1.391 . S
C3392 C3394 1.394 . S
C3392 H3408 0.931 . S
C3393 C3392 1.391 . S
C3393 C3397 1.376 . S
C3394 C3392 1.394 . S
C3394 C3395 1.369 . S
C3394 C3398 1.531 . S
C3395 C3394 1.369 . S
C3395 C3396 1.410 . S
C3395 C3403 1.503 . S
C3396 C3395 1.410 . S
C3396 C3397 1.392 . S
C3396 C3399 1.511 . S
C3397 C3393 1.376 . S
C3397 C3396 1.392 . S
C3397 H3409 0.929 . S
C3398 C3394 1.531 . S
C3398 H3410 0.960 . S
C3398 H3411 0.962 . S
C3398 H3412 0.960 . S
C3399 C3396 1.511 . S
C3399 H3413 0.961 . S
C3399 H3414 0.961 . S
C3399 H3415 0.961 . S
C3400 C3401 1.370 . S
C3400 C3402 1.363 . S
C3400 H3416 0.931 . S
C3401 C3400 1.370 . S
C3401 C3405 1.408 . S
C3402 C3400 1.363 . S
C3402 C3403 1.370 . S
C3402 C3406 1.524 . S
C3403 C3395 1.503 . S
C3403 C3402 1.370 . S
C3403 C3404 1.403 . S
C3404 C3403 1.403 . S
C3404 C3405 1.404 . S
C3404 C3407 1.539 . S
C3405 C3401 1.408 . S
C3405 C3404 1.404 . S
C3405 H3417 0.930 . S
C3406 C3402 1.524 . S
C3406 H3418 0.956 . S
C3406 H3419 0.961 . S
C3406 H3420 0.961 . S
C3407 C3404 1.539 . S
C3407 H3421 0.958 . S
C3407 H3422 0.961 . S
C3407 H3423 0.960 . S
H3408 C3392 0.931 . S
H3409 C3397 0.929 . S
H3410 C3398 0.960 . S
H3411 C3398 0.962 . S
H3412 C3398 0.960 . S
H3413 C3399 0.961 . S
H3414 C3399 0.961 . S
H3415 C3399 0.961 . S
H3416 C3400 0.931 . S
H3417 C3405 0.930 . S
H3418 C3406 0.956 . S
H3419 C3406 0.961 . S
H3420 C3406 0.961 . S
H3421 C3407 0.958 . S
H3422 C3407 0.961 . S
H3423 C3407 0.960 . S
C3424 C3425 1.391 . S
C3424 C3426 1.394 . S
C3424 H3440 0.931 . S
C3425 C3424 1.391 . S
C3425 C3429 1.376 . S
C3426 C3424 1.394 . S
C3426 C3427 1.369 . S
C3426 C3430 1.531 . S
C3427 C3426 1.369 . S
C3427 C3428 1.410 . S
C3427 C3435 1.503 . S
C3428 C3427 1.410 . S
C3428 C3429 1.392 . S
C3428 C3431 1.511 . S
C3429 C3425 1.376 . S
C3429 C3428 1.392 . S
C3429 H3441 0.929 . S
C3430 C3426 1.531 . S
C3430 H3442 0.960 . S
C3430 H3443 0.962 . S
C3430 H3444 0.960 . S
C3431 C3428 1.511 . S
C3431 H3445 0.961 . S
C3431 H3446 0.961 . S
C3431 H3447 0.961 . S
C3432 C3433 1.370 . S
C3432 C3434 1.363 . S
C3432 H3448 0.931 . S
C3433 C3432 1.370 . S
C3433 C3437 1.408 . S
C3434 C3432 1.363 . S
C3434 C3435 1.370 . S
C3434 C3438 1.524 . S
C3435 C3427 1.503 . S
C3435 C3434 1.370 . S
C3435 C3436 1.403 . S
C3436 C3435 1.403 . S
C3436 C3437 1.404 . S
C3436 C3439 1.539 . S
C3437 C3433 1.408 . S
C3437 C3436 1.404 . S
C3437 H3449 0.930 . S
C3438 C3434 1.524 . S
C3438 H3450 0.956 . S
C3438 H3451 0.961 . S
C3438 H3452 0.961 . S
C3439 C3436 1.539 . S
C3439 H3453 0.958 . S
C3439 H3454 0.961 . S
C3439 H3455 0.960 . S
H3440 C3424 0.931 . S
H3441 C3429 0.929 . S
H3442 C3430 0.960 . S
H3443 C3430 0.962 . S
H3444 C3430 0.960 . S
H3445 C3431 0.961 . S
H3446 C3431 0.961 . S
H3447 C3431 0.961 . S
H3448 C3432 0.931 . S
H3449 C3437 0.930 . S
H3450 C3438 0.956 . S
H3451 C3438 0.961 . S
H3452 C3438 0.961 . S
H3453 C3439 0.958 . S
H3454 C3439 0.961 . S
H3455 C3439 0.960 . S
C3456 C3457 1.391 . S
C3456 C3458 1.394 . S
C3456 H3472 0.931 . S
C3457 C3456 1.391 . S
C3457 C3461 1.376 . S
C3458 C3456 1.394 . S
C3458 C3459 1.369 . S
C3458 C3462 1.531 . S
C3459 C3458 1.369 . S
C3459 C3460 1.410 . S
C3459 C3467 1.503 . S
C3460 C3459 1.410 . S
C3460 C3461 1.392 . S
C3460 C3463 1.511 . S
C3461 C3457 1.376 . S
C3461 C3460 1.392 . S
C3461 H3473 0.929 . S
C3462 C3458 1.531 . S
C3462 H3474 0.960 . S
C3462 H3475 0.962 . S
C3462 H3476 0.960 . S
C3463 C3460 1.511 . S
C3463 H3477 0.961 . S
C3463 H3478 0.961 . S
C3463 H3479 0.961 . S
C3464 C3465 1.370 . S
C3464 C3466 1.363 . S
C3464 H3480 0.931 . S
C3465 C3464 1.370 . S
C3465 C3469 1.408 . S
C3466 C3464 1.363 . S
C3466 C3467 1.370 . S
C3466 C3470 1.524 . S
C3467 C3459 1.503 . S
C3467 C3466 1.370 . S
C3467 C3468 1.403 . S
C3468 C3467 1.403 . S
C3468 C3469 1.404 . S
C3468 C3471 1.539 . S
C3469 C3465 1.408 . S
C3469 C3468 1.404 . S
C3469 H3481 0.930 . S
C3470 C3466 1.524 . S
C3470 H3482 0.956 . S
C3470 H3483 0.961 . S
C3470 H3484 0.961 . S
C3471 C3468 1.539 . S
C3471 H3485 0.958 . S
C3471 H3486 0.961 . S
C3471 H3487 0.960 . S
H3472 C3456 0.931 . S
H3473 C3461 0.929 . S
H3474 C3462 0.960 . S
H3475 C3462 0.962 . S
H3476 C3462 0.960 . S
H3477 C3463 0.961 . S
H3478 C3463 0.961 . S
H3479 C3463 0.961 . S
H3480 C3464 0.931 . S
H3481 C3469 0.930 . S
H3482 C3470 0.956 . S
H3483 C3470 0.961 . S
H3484 C3470 0.961 . S
H3485 C3471 0.958 . S
H3486 C3471 0.961 . S
H3487 C3471 0.960 . S
C3488 C3489 1.391 . S
C3488 C3490 1.394 . S
C3488 H3504 0.931 . S
C3489 C3488 1.391 . S
C3489 C3493 1.376 . S
C3490 C3488 1.394 . S
C3490 C3491 1.369 . S
C3490 C3494 1.531 . S
C3491 C3490 1.369 . S
C3491 C3492 1.410 . S
C3491 C3499 1.503 . S
C3492 C3491 1.410 . S
C3492 C3493 1.392 . S
C3492 C3495 1.511 . S
C3493 C3489 1.376 . S
C3493 C3492 1.392 . S
C3493 H3505 0.929 . S
C3494 C3490 1.531 . S
C3494 H3506 0.960 . S
C3494 H3507 0.962 . S
C3494 H3508 0.960 . S
C3495 C3492 1.511 . S
C3495 H3509 0.961 . S
C3495 H3510 0.961 . S
C3495 H3511 0.961 . S
C3496 C3497 1.370 . S
C3496 C3498 1.363 . S
C3496 H3512 0.931 . S
C3497 C3496 1.370 . S
C3497 C3501 1.408 . S
C3498 C3496 1.363 . S
C3498 C3499 1.370 . S
C3498 C3502 1.524 . S
C3499 C3491 1.503 . S
C3499 C3498 1.370 . S
C3499 C3500 1.403 . S
C3500 C3499 1.403 . S
C3500 C3501 1.404 . S
C3500 C3503 1.539 . S
C3501 C3497 1.408 . S
C3501 C3500 1.404 . S
C3501 H3513 0.930 . S
C3502 C3498 1.524 . S
C3502 H3514 0.956 . S
C3502 H3515 0.961 . S
C3502 H3516 0.961 . S
C3503 C3500 1.539 . S
C3503 H3517 0.958 . S
C3503 H3518 0.961 . S
C3503 H3519 0.960 . S
H3504 C3488 0.931 . S
H3505 C3493 0.929 . S
H3506 C3494 0.960 . S
H3507 C3494 0.962 . S
H3508 C3494 0.960 . S
H3509 C3495 0.961 . S
H3510 C3495 0.961 . S
H3511 C3495 0.961 . S
H3512 C3496 0.931 . S
H3513 C3501 0.930 . S
H3514 C3502 0.956 . S
H3515 C3502 0.961 . S
H3516 C3502 0.961 . S
H3517 C3503 0.958 . S
H3518 C3503 0.961 . S
H3519 C3503 0.960 . S
C3520 C3521 1.391 . S
C3520 C3522 1.394 . S
C3520 H3536 0.931 . S
C3521 C3520 1.391 . S
C3521 C3525 1.376 . S
C3522 C3520 1.394 . S
C3522 C3523 1.369 . S
C3522 C3526 1.531 . S
C3523 C3522 1.369 . S
C3523 C3524 1.410 . S
C3523 C3531 1.503 . S
C3524 C3523 1.410 . S
C3524 C3525 1.392 . S
C3524 C3527 1.511 . S
C3525 C3521 1.376 . S
C3525 C3524 1.392 . S
C3525 H3537 0.929 . S
C3526 C3522 1.531 . S
C3526 H3538 0.960 . S
C3526 H3539 0.962 . S
C3526 H3540 0.960 . S
C3527 C3524 1.511 . S
C3527 H3541 0.961 . S
C3527 H3542 0.961 . S
C3527 H3543 0.961 . S
C3528 C3529 1.370 . S
C3528 C3530 1.363 . S
C3528 H3544 0.931 . S
C3529 C3528 1.370 . S
C3529 C3533 1.408 . S
C3530 C3528 1.363 . S
C3530 C3531 1.370 . S
C3530 C3534 1.524 . S
C3531 C3523 1.503 . S
C3531 C3530 1.370 . S
C3531 C3532 1.403 . S
C3532 C3531 1.403 . S
C3532 C3533 1.404 . S
C3532 C3535 1.539 . S
C3533 C3529 1.408 . S
C3533 C3532 1.404 . S
C3533 H3545 0.930 . S
C3534 C3530 1.524 . S
C3534 H3546 0.956 . S
C3534 H3547 0.961 . S
C3534 H3548 0.961 . S
C3535 C3532 1.539 . S
C3535 H3549 0.958 . S
C3535 H3550 0.961 . S
C3535 H3551 0.960 . S
H3536 C3520 0.931 . S
H3537 C3525 0.929 . S
H3538 C3526 0.960 . S
H3539 C3526 0.962 . S
H3540 C3526 0.960 . S
H3541 C3527 0.961 . S
H3542 C3527 0.961 . S
H3543 C3527 0.961 . S
H3544 C3528 0.931 . S
H3545 C3533 0.930 . S
H3546 C3534 0.956 . S
H3547 C3534 0.961 . S
H3548 C3534 0.961 . S
H3549 C3535 0.958 . S
H3550 C3535 0.961 . S
H3551 C3535 0.960 . S
C3552 C3553 1.391 . S
C3552 C3554 1.394 . S
C3552 H3568 0.931 . S
C3553 C3552 1.391 . S
C3553 C3557 1.376 . S
C3554 C3552 1.394 . S
C3554 C3555 1.369 . S
C3554 C3558 1.531 . S
C3555 C3554 1.369 . S
C3555 C3556 1.410 . S
C3555 C3563 1.503 . S
C3556 C3555 1.410 . S
C3556 C3557 1.392 . S
C3556 C3559 1.511 . S
C3557 C3553 1.376 . S
C3557 C3556 1.392 . S
C3557 H3569 0.929 . S
C3558 C3554 1.531 . S
C3558 H3570 0.960 . S
C3558 H3571 0.962 . S
C3558 H3572 0.960 . S
C3559 C3556 1.511 . S
C3559 H3573 0.961 . S
C3559 H3574 0.961 . S
C3559 H3575 0.961 . S
C3560 C3561 1.370 . S
C3560 C3562 1.363 . S
C3560 H3576 0.931 . S
C3561 C3560 1.370 . S
C3561 C3565 1.408 . S
C3562 C3560 1.363 . S
C3562 C3563 1.370 . S
C3562 C3566 1.524 . S
C3563 C3555 1.503 . S
C3563 C3562 1.370 . S
C3563 C3564 1.403 . S
C3564 C3563 1.403 . S
C3564 C3565 1.404 . S
C3564 C3567 1.539 . S
C3565 C3561 1.408 . S
C3565 C3564 1.404 . S
C3565 H3577 0.930 . S
C3566 C3562 1.524 . S
C3566 H3578 0.956 . S
C3566 H3579 0.961 . S
C3566 H3580 0.961 . S
C3567 C3564 1.539 . S
C3567 H3581 0.958 . S
C3567 H3582 0.961 . S
C3567 H3583 0.960 . S
H3568 C3552 0.931 . S
H3569 C3557 0.929 . S
H3570 C3558 0.960 . S
H3571 C3558 0.962 . S
H3572 C3558 0.960 . S
H3573 C3559 0.961 . S
H3574 C3559 0.961 . S
H3575 C3559 0.961 . S
H3576 C3560 0.931 . S
H3577 C3565 0.930 . S
H3578 C3566 0.956 . S
H3579 C3566 0.961 . S
H3580 C3566 0.961 . S
H3581 C3567 0.958 . S
H3582 C3567 0.961 . S
H3583 C3567 0.960 . S
C3584 C3585 1.391 . S
C3584 C3586 1.394 . S
C3584 H3600 0.931 . S
C3585 C3584 1.391 . S
C3585 C3589 1.376 . S
C3586 C3584 1.394 . S
C3586 C3587 1.369 . S
C3586 C3590 1.531 . S
C3587 C3586 1.369 . S
C3587 C3588 1.410 . S
C3587 C3595 1.503 . S
C3588 C3587 1.410 . S
C3588 C3589 1.392 . S
C3588 C3591 1.511 . S
C3589 C3585 1.376 . S
C3589 C3588 1.392 . S
C3589 H3601 0.929 . S
C3590 C3586 1.531 . S
C3590 H3602 0.960 . S
C3590 H3603 0.962 . S
C3590 H3604 0.960 . S
C3591 C3588 1.511 . S
C3591 H3605 0.961 . S
C3591 H3606 0.961 . S
C3591 H3607 0.961 . S
C3592 C3593 1.370 . S
C3592 C3594 1.363 . S
C3592 H3608 0.931 . S
C3593 C3592 1.370 . S
C3593 C3597 1.408 . S
C3594 C3592 1.363 . S
C3594 C3595 1.370 . S
C3594 C3598 1.524 . S
C3595 C3587 1.503 . S
C3595 C3594 1.370 . S
C3595 C3596 1.403 . S
C3596 C3595 1.403 . S
C3596 C3597 1.404 . S
C3596 C3599 1.539 . S
C3597 C3593 1.408 . S
C3597 C3596 1.404 . S
C3597 H3609 0.930 . S
C3598 C3594 1.524 . S
C3598 H3610 0.956 . S
C3598 H3611 0.961 . S
C3598 H3612 0.961 . S
C3599 C3596 1.539 . S
C3599 H3613 0.958 . S
C3599 H3614 0.961 . S
C3599 H3615 0.960 . S
H3600 C3584 0.931 . S
H3601 C3589 0.929 . S
H3602 C3590 0.960 . S
H3603 C3590 0.962 . S
H3604 C3590 0.960 . S
H3605 C3591 0.961 . S
H3606 C3591 0.961 . S
H3607 C3591 0.961 . S
H3608 C3592 0.931 . S
H3609 C3597 0.930 . S
H3610 C3598 0.956 . S
H3611 C3598 0.961 . S
H3612 C3598 0.961 . S
H3613 C3599 0.958 . S
H3614 C3599 0.961 . S
H3615 C3599 0.960 . S
C1057 N2 0.666 . S
C1065 N332 0.583 . S
C1089 N365 0.711 . S
C1097 N35 0.570 . S
C1121 N266 0.736 . S
C1129 N68 0.577 . S
C1153 N101 0.555 . S
C1161 N299 0.663 . S
C1185 N134 0.500 . S
C1193 N464 0.650 . S
C1217 N167 0.500 . S
C1225 N497 0.649 . S
C1249 N398 0.502 . S
C1257 N200 0.646 . S
C1281 N431 0.500 . S
C1289 N233 0.650 . S
C1313 N860 0.720 . S
C1321 N530 0.569 . S
C1345 N893 0.712 . S
C1353 N563 0.570 . S
C1377 N596 0.603 . S
C1385 N794 0.651 . S
C1409 N827 0.709 . S
C1417 N629 0.571 . S
C1441 N662 0.502 . S
C1449 N992 0.659 . S
C1473 N1025 0.508 . S
C1481 N695 0.640 . S
C1505 N728 0.736 . S
C1513 N926 0.581 . S
C1537 N761 0.511 . S
C1545 N959 0.637 . S
C1569 C7 1.809 . S
C1577 C832 1.779 . S
C1601 C40 1.800 . S
C1609 C799 1.782 . S
C1633 C73 1.812 . S
C1641 C898 1.778 . S
C1665 C106 1.759 . S
C1673 C865 1.803 . S
C1697 C139 1.790 . S
C1705 C964 1.788 . S
C1729 C172 1.813 . S
C1737 C931 1.779 . S
C1761 C1030 1.766 . S
C1769 C205 1.798 . S
C1793 C238 1.809 . S
C1801 C997 1.781 . S
C1825 C568 1.783 . S
C1833 C271 1.788 . S
C1857 C304 1.756 . S
C1865 C535 1.801 . S
C1889 C337 1.777 . S
C1897 C634 1.791 . S
C1921 C601 1.786 . S
C1929 C370 1.787 . S
C1953 C700 1.815 . S
C1961 C403 1.778 . S
C1985 C667 1.768 . S
C1993 C436 1.799 . S
C2017 C469 1.762 . S
C2025 C766 1.801 . S
C2049 C733 1.801 . S
C2057 C502 1.784 . S
C2081 N79 1.030 . S
C2089 N13 1.042 . S
C2113 N46 1.060 . S
C2121 N112 1.054 . S
C2145 N211 1.060 . S
C2153 N145 1.053 . S
C2177 N178 1.052 . S
C2185 N244 1.050 . S
C2209 N277 1.054 . S
C2217 N343 1.052 . S
C2241 N310 1.039 . S
C2249 N376 1.042 . S
C2273 N475 1.033 . S
C2281 N409 1.040 . S
C2305 N508 1.026 . S
C2313 N442 1.038 . S
C2337 N607 1.050 . S
C2345 N541 1.050 . S
C2369 N574 1.055 . S
C2377 N640 1.052 . S
C2401 N673 1.026 . S
C2409 N739 1.038 . S
C2433 N706 1.038 . S
C2441 N772 1.044 . S
C2465 N871 1.064 . S
C2473 N805 1.054 . S
C2497 N838 1.057 . S
C2505 N904 1.053 . S
C2529 N937 1.047 . S
C2537 N1003 1.048 . S
C2561 N1036 1.036 . S
C2569 N970 1.042 . S
C2593 C747 1.955 . S
C2601 C18 1.963 . S
C2625 C516 1.961 . S
C2633 C51 1.959 . S
C2657 C84 1.951 . S
C2665 C945 1.957 . S
C2689 C186 1.949 . S
C2697 C117 1.961 . S
C2721 C150 1.957 . S
C2729 C615 1.957 . S
C2753 C183 1.958 . S
C2761 C384 1.957 . S
C2785 C813 1.957 . S
C2793 C216 1.963 . S
C2817 C249 1.952 . S
C2825 C54 1.957 . S
C2849 C282 1.949 . S
C2857 C1011 1.960 . S
C2881 C252 1.961 . S
C2889 C315 1.963 . S
C2913 C348 1.950 . S
C2921 C681 1.957 . S
C2945 C381 1.953 . S
C2953 C450 1.957 . S
C2977 C879 1.962 . S
C2985 C414 1.961 . S
C3009 C447 1.950 . S
C3017 C120 1.962 . S
C3041 C549 1.956 . S
C3049 C480 1.957 . S
C3073 C318 1.951 . S
C3081 C513 1.958 . S
C3105 C219 1.949 . S
C3113 C546 1.961 . S
C3137 C579 1.949 . S
C3145 C1044 1.958 . S
C3169 C612 1.962 . S
C3177 C417 1.960 . S
C3201 C645 1.961 . S
C3209 C714 1.962 . S
C3233 C678 1.962 . S
C3241 C87 1.961 . S
C3265 C711 1.960 . S
C3273 C912 1.958 . S
C3297 C285 1.949 . S
C3305 C744 1.962 . S
C3329 C582 1.951 . S
C3337 C777 1.958 . S
C3361 C483 1.961 . S
C3369 C810 1.959 . S
C3393 C843 1.961 . S
C3401 C780 1.962 . S
C3425 C153 1.960 . S
C3433 C876 1.959 . S
C3457 C978 1.956 . S
C3465 C909 1.963 . S
C3489 C942 1.962 . S
C3497 C351 1.961 . S
C3521 C975 1.954 . S
C3529 C648 1.963 . S
C3553 C21 1.948 . S
C3561 C1008 1.960 . S
C3585 C1041 1.949 . S
C3593 C846 1.961 . S
