# Generated by pormake.
# Topology sxc, (6)-cn, num edge types: 1
# Building blocks:
#     Node 0, Type 0, BuildingBlock: BETDIP_clean_sbu_0, # of connection points: 6
#     Node 1, Type 0, BuildingBlock: BETDIP_clean_sbu_0, # of connection points: 6
#     Node 2, Type 0, BuildingBlock: BETDIP_clean_sbu_0, # of connection points: 6
#     Edge 3, Type (0, 0), BuildingBlock: ZUJKAS_clean_linker_0, # of connection points: 2
#     Edge 4, Type (0, 0), BuildingBlock: ZUJKAS_clean_linker_0, # of connection points: 2
#     Edge 5, Type (0, 0), BuildingBlock: ZUJKAS_clean_linker_0, # of connection points: 2
#     Edge 6, Type (0, 0), BuildingBlock: ZUJKAS_clean_linker_0, # of connection points: 2
#     Edge 7, Type (0, 0), BuildingBlock: ZUJKAS_clean_linker_0, # of connection points: 2
#     Edge 8, Type (0, 0), BuildingBlock: ZUJKAS_clean_linker_0, # of connection points: 2
#     Edge 9, Type (0, 0), BuildingBlock: ZUJKAS_clean_linker_0, # of connection points: 2
#     Edge 10, Type (0, 0), BuildingBlock: ZUJKAS_clean_linker_0, # of connection points: 2
#     Edge 11, Type (0, 0), BuildingBlock: ZUJKAS_clean_linker_0, # of connection points: 2
# Relax obj value: 0.364
# Max RMSD: 0.067
# Mean RMSD: 0.058
data_MOF--net-sxc--node1-BETDIP_clean_sbu_0--edge1-ZUJKAS_clean_linker_0
_symmetry_space_group_name_H-M    P1
_symmetry_Int_Tables_number       1
_symmetry_cell_setting            triclinic
loop_
_symmetry_equiv_pos_as_xyz
'x, y, z'
_cell_length_a     21.272587
_cell_length_b     21.501888
_cell_length_c     57.808171
_cell_angle_alpha  92.583312
_cell_angle_beta   90.928156
_cell_angle_gamma 120.42076
loop_
_atom_site_label
_atom_site_type_symbol
_atom_site_fract_x
_atom_site_fract_y
_atom_site_fract_z
_atom_type_partial_charge
Tb0 Tb 0.23721 1.09695 0.00462 0.0
Tb1 Tb 1.15748 0.16605 0.99699 0.0
C2 C 0.32466 1.07181 0.02608 0.0
C3 C 0.32317 1.02775 0.04482 0.0
C4 C 0.38809 1.04648 0.0572 0.0
C5 C 0.39058 0.99783 0.07186 0.0
C6 C 0.32866 0.92883 0.07351 0.0
C7 C 0.26109 0.91629 0.06414 0.0
C8 C 0.2586 0.96518 0.04969 0.0
C9 C 0.21663 1.10476 0.95949 0.0
C10 C 1.06325 0.98894 0.00123 0.0
C11 C 1.074 0.19818 0.97629 0.0
C12 C 1.08628 0.25265 0.95994 0.0
C13 C 1.02757 0.25635 0.95033 0.0
C14 C 1.04057 0.31699 0.93861 0.0
C15 C 1.11242 0.37528 0.93717 0.0
C16 C 1.17075 0.36541 0.94383 0.0
C17 C 1.15764 0.30484 0.95529 0.0
C18 C 1.17907 0.15736 0.04207 0.0
C19 C 0.33151 0.27406 0.00021 0.0
O20 O 0.31276 0.12395 0.03229 0.0
O21 O 0.29014 1.03734 0.00644 0.0
O22 O 0.23108 0.15307 0.97548 0.0
O23 O 0.21952 1.05209 0.9686 0.0
O24 O 1.12741 0.99516 0.00714 0.0
O25 O 1.06424 1.0494 0.99599 0.0
O26 O 1.08727 0.14821 0.96847 0.0
O27 O 1.10202 0.22344 -0.00268 0.0
O28 O 1.16305 1.1092 0.02595 0.0
O29 O 1.17839 0.21135 0.03313 0.0
O30 O 0.26721 0.26815 0.99491 0.0
O31 O 0.33065 0.21334 0.00491 0.0
H32 H 0.43795 1.09639 0.05429 0.0
H33 H 0.44281 1.01088 0.07965 0.0
H34 H 0.21125 0.865 0.06531 0.0
H35 H 0.20735 0.95141 0.04092 0.0
H36 H 0.97192 0.21502 0.95324 0.0
H37 H 0.99436 0.32158 0.93298 0.0
H38 H 0.22706 0.408 0.94299 0.0
H39 H 0.20356 0.3018 0.96216 0.0
Tb40 Tb 1.11276 1.06366 0.33861 0.0
Tb41 Tb 0.26054 0.1378 0.32857 0.0
C42 C 0.99969 0.99253 0.3608 0.0
C43 C 0.96175 1.01717 0.37618 0.0
C44 C 0.88896 0.97067 0.38123 0.0
C45 C 0.84719 0.99938 0.38977 0.0
C46 C 0.87728 1.07497 0.39212 0.0
C47 C 0.9535 0.11955 0.39091 0.0
C48 C 0.99515 1.09078 0.38283 0.0
C49 C 1.13199 1.07636 0.2933 0.0
C50 C 0.18062 0.23605 0.33552 0.0
C51 C 0.37219 0.21586 0.30675 0.0
C52 C 0.41526 0.20967 0.28822 0.0
C53 C 0.44441 0.26312 0.27211 0.0
C54 C 0.49816 0.26775 0.25754 0.0
C55 C 0.52454 0.21988 0.25936 0.0
C56 C 0.48708 0.16017 0.27318 0.0
C57 C 0.43297 0.15527 0.28754 0.0
C58 C 0.24174 0.12682 0.37391 0.0
C59 C 0.19251 0.96551 0.33144 0.0
O60 O 1.06496 1.00939 0.36835 0.0
O61 O 0.99851 1.00689 0.33908 0.0
O62 O 1.16761 1.06173 0.30771 0.0
O63 O 1.08 1.07857 0.30403 0.0
O64 O 1.12251 0.17418 0.34127 0.0
O65 O 0.23982 0.23263 0.32996 0.0
O66 O 0.30678 0.20133 0.30038 0.0
O67 O 0.37418 0.18987 0.32666 0.0
O68 O 0.20607 0.14094 0.35937 0.0
O69 O 0.29342 0.1238 0.36326 0.0
O70 O 0.24972 1.02692 0.32487 0.0
O71 O 1.13413 0.96932 0.33786 0.0
H72 H 0.86292 0.91321 0.37675 0.0
H73 H 0.7895 0.96292 0.39175 0.0
H74 H 0.98021 0.17781 0.39296 0.0
H75 H 1.05182 0.12726 0.37949 0.0
H76 H 0.42949 0.3044 0.27197 0.0
H77 H 0.52415 0.31306 0.24664 0.0
H78 H 0.50481 0.12148 0.2751 0.0
H79 H 0.40932 1.11222 0.29936 0.0
Tb80 Tb 0.18218 1.05585 0.67156 0.0
Tb81 Tb 0.25032 0.20606 0.66249 0.0
C82 C 1.12273 0.94334 0.69342 0.0
C83 C 1.0844 0.92585 0.71519 0.0
C84 C 1.09941 0.88795 0.73132 0.0
C85 C 1.05717 0.86304 0.75071 0.0
C86 C 0.99628 0.87197 0.75347 0.0
C87 C 0.99193 0.92275 0.73973 0.0
C88 C 1.03481 0.94838 0.72054 0.0
C89 C 0.20123 1.07805 0.62654 0.0
C90 C 1.07815 0.13015 0.66877 0.0
C91 C 0.3134 0.3214 0.64189 0.0
C92 C 0.38035 0.35948 0.62927 0.0
C93 C 0.38695 0.40836 0.61292 0.0
C94 C 0.45448 0.45286 0.60351 0.0
C95 C 0.51626 0.44968 0.61078 0.0
C96 C 0.50609 0.39332 0.62471 0.0
C97 C 0.43898 0.34929 0.63403 0.0
C98 C 0.22781 0.1814 0.70742 0.0
C99 C 0.35521 0.13273 0.66569 0.0
O100 O 0.19163 0.99205 0.69597 0.0
O101 O 1.09076 0.95309 0.67551 0.0
O102 O 0.18244 1.11016 0.64128 0.0
O103 O 0.2028 1.02616 0.63665 0.0
O104 O 1.08584 1.07509 0.67552 0.0
O105 O 1.13703 0.18772 0.6615 0.0
O106 O 0.26375 0.25954 0.63199 0.0
O107 O 0.32146 0.31821 0.66426 0.0
O108 O 0.24889 0.15117 0.69278 0.0
O109 O 0.22363 0.23184 0.69717 0.0
O110 O 0.34901 0.19004 0.66082 0.0
O111 O 0.29496 1.0729 0.67098 0.0
H112 H 1.14132 0.87437 0.72832 0.0
H113 H 1.06772 0.8302 0.76196 0.0
H114 H 0.94996 0.9365 0.74178 0.0
H115 H 1.02574 0.98194 0.70915 0.0
H116 H 0.34118 0.41518 0.60852 0.0
H117 H 0.45982 0.4943 0.59237 0.0
H118 H 0.55145 0.3881 0.63083 0.0
H119 H 0.43469 0.31106 0.64629 0.0
H120 H 0.22997 0.49573 0.91995 0.0
H121 H 0.28762 0.60907 0.94385 0.0
H122 H 1.08519 0.54175 0.97717 0.0
H123 H 1.02839 0.42853 0.95443 0.0
H124 H 0.18879 0.69848 0.9781 0.0
H125 H 0.22636 0.496 0.98849 0.0
H126 H 0.30217 0.53177 0.00943 0.0
H127 H 0.31702 0.55741 0.97993 0.0
C128 C 0.19668 0.50647 0.93158 0.0
C129 C 1.12675 0.45052 0.93681 0.0
C130 C 0.22988 0.57129 0.94524 0.0
C131 C 0.19142 0.58117 0.96308 0.0
C132 C 1.11624 0.53366 0.9639 0.0
H133 H 0.23276 0.79638 0.09109 0.0
H134 H 0.20658 0.69008 0.06657 0.0
C135 C 1.08356 0.46859 0.95058 0.0
C136 C 0.23023 0.62763 0.98399 0.0
H137 H 0.3236 0.63231 0.03344 0.0
C138 C 0.21916 0.68486 0.99007 0.0
C139 C 0.26841 0.60812 -0.0003 0.0
C140 C 0.27908 0.54475 0.99426 0.0
C141 C 0.24504 0.72327 0.01157 0.0
C142 C 0.2817 0.70274 0.0275 0.0
C143 C 0.29444 0.64669 0.02126 0.0
C144 C 0.31004 0.74302 0.0501 0.0
C145 C 0.23259 0.78541 0.01718 0.0
C146 C 0.38066 0.80308 0.05142 0.0
C147 C 0.39522 0.86421 0.06518 0.0
C148 C 0.33781 0.86536 0.07672 0.0
C149 C 0.27591 0.79845 0.08085 0.0
C150 C 0.26078 0.73735 0.06686 0.0
H151 H 0.28436 0.83419 0.02357 0.0
H152 H 0.21072 0.79926 0.00192 0.0
H153 H 0.19292 0.77085 0.03106 0.0
H154 H 0.42027 0.80733 0.03908 0.0
H155 H 0.44608 0.91341 0.06268 0.0
H156 H 0.64331 0.35764 0.26184 0.0
H157 H 0.75674 0.3801 0.27966 0.0
H158 H 0.69459 0.15803 0.2636 0.0
H159 H 0.58253 0.13613 0.24443 0.0
H160 H 0.69858 0.29848 0.3159 0.0
H161 H 0.90608 0.24206 0.28186 0.0
H162 H 0.85639 0.27 0.26348 0.0
H163 H 0.81804 0.17622 0.26944 0.0
C164 C 0.65555 0.31455 0.26039 0.0
C165 C 0.60101 0.24305 0.25361 0.0
C166 C 0.72121 0.32783 0.27074 0.0
C167 C 0.73208 0.26981 0.27423 0.0
C168 C 0.68681 0.20357 0.2617 0.0
H169 H 0.74695 1.01308 0.36679 0.0
H170 H 0.71362 1.08077 0.34251 0.0
C171 C 0.62184 0.19075 0.25088 0.0
C172 C 0.76633 0.26834 0.29652 0.0
H173 H 0.86 0.19531 0.32016 0.0
C174 C 0.73638 0.27874 0.31692 0.0
C175 C 0.81472 0.24181 0.29793 0.0
C176 C 0.85107 0.23261 0.27695 0.0
C177 C 0.74791 0.25658 0.33818 0.0
C178 C 0.79077 0.22404 0.33902 0.0
C179 C 0.82628 0.21977 0.31924 0.0
C180 C 0.79168 0.18471 0.35904 0.0
C181 C 0.70934 0.26207 0.35915 0.0
C182 C 0.84053 0.22059 0.37804 0.0
C183 C 0.85842 0.18143 0.39274 0.0
C184 C 0.83072 1.10701 0.38757 0.0
C185 C 0.77174 1.07037 0.37116 0.0
C186 C 0.75285 1.10921 0.35688 0.0
H187 H 0.6807 0.29226 0.35595 0.0
H188 H 0.66878 0.20694 0.36409 0.0
H189 H 0.74921 0.28947 0.37404 0.0
H190 H 0.86972 0.27905 0.38022 0.0
H191 H 0.90097 0.21097 0.40613 0.0
H192 H 0.96262 0.73424 0.76781 0.0
H193 H 0.86484 0.64081 0.74288 0.0
H194 H 0.76552 0.77192 0.73882 0.0
H195 H 0.86299 0.86483 0.76451 0.0
H196 H 0.67347 0.60956 0.72345 0.0
H197 H 0.94073 0.76579 0.68189 0.0
H198 H 0.93842 0.72188 0.70788 0.0
H199 H 0.92238 0.79623 0.70905 0.0
C200 C 0.91904 0.74306 0.76237 0.0
C201 C 0.92801 0.81294 0.76337 0.0
C202 C 0.86249 0.68856 0.74815 0.0
C203 C 0.81222 0.70282 0.73729 0.0
C204 C 0.80683 0.7619 0.74588 0.0
H205 H 0.55259 0.59185 0.61518 0.0
H206 H 0.6477 0.67082 0.64354 0.0
C207 C 0.86334 0.81538 0.76045 0.0
C208 C 0.78435 0.67288 0.71346 0.0
H209 H 0.83875 0.69072 0.65754 0.0
C210 C 0.70947 0.62661 0.70906 0.0
C211 C 0.83195 0.69596 0.69472 0.0
C212 C 0.91291 0.74788 0.69844 0.0
C213 C 0.68068 0.60278 0.6863 0.0
C214 C 0.72808 0.62791 0.6676 0.0
C215 C 0.80303 0.67267 0.67199 0.0
C216 C 0.69928 0.60634 0.64347 0.0
C217 C 0.59971 0.55074 0.68242 0.0
C218 C 0.70503 0.55155 0.63143 0.0
C219 C 0.65157 0.50717 0.61443 0.0
C220 C 0.59029 0.51502 0.61098 0.0
C221 C 0.59653 0.58133 0.61839 0.0
C222 C 0.65075 0.62663 0.63495 0.0
H223 H 0.5739 0.52506 0.69857 0.0
H224 H 0.57306 0.58038 0.67631 0.0
H225 H 0.58898 0.50757 0.66896 0.0
H226 H 0.74417 0.53688 0.63728 0.0
H227 H 0.65071 0.4589 0.60769 0.0
H228 H 1.04387 0.23581 0.65695 0.0
H229 H 0.92839 0.23553 0.65686 0.0
H230 H 0.81968 1.01965 0.68005 0.0
H231 H 0.9359 1.02089 0.68079 0.0
H232 H 0.80449 0.18081 0.63641 0.0
H233 H 0.71738 1.07743 0.72251 0.0
H234 H 0.80686 1.10244 0.71296 0.0
H235 H 0.72927 1.015 0.70423 0.0
C236 C 0.99592 0.18795 0.66231 0.0
C237 C 1.00285 0.12865 0.6691 0.0
C238 C 0.92799 0.18771 0.66218 0.0
C239 C 0.86111 0.12832 0.66896 0.0
C240 C 0.86787 1.06843 0.67544 0.0
H241 H 0.38847 1.02539 0.67626 0.0
H242 H 0.50413 1.02585 0.67662 0.0
C243 C 0.93603 1.06873 0.67563 0.0
C244 C 0.78645 0.12924 0.66864 0.0
H245 H 0.62876 1.08226 0.69856 0.0
C246 C 0.76704 0.15937 0.6503 0.0
C247 C 0.73353 1.10202 0.68626 0.0
C248 C 0.74791 1.07308 0.70772 0.0
C249 C 0.69994 0.16133 0.64879 0.0
C250 C 0.64697 0.1339 0.66637 0.0
C251 C 0.66631 1.10375 0.6847 0.0
C252 C 0.57235 0.13477 0.666 0.0
C253 C 0.68573 0.19097 0.62747 0.0
C254 C 0.56623 0.19558 0.66028 0.0
C255 C 0.49812 0.19535 0.66004 0.0
C256 C 0.43063 0.13441 0.66563 0.0
C257 C 0.43693 1.07408 0.67162 0.0
C258 C 0.5049 1.07439 0.67192 0.0
H259 H 0.71665 0.18746 0.61266 0.0
H260 H 0.62684 0.16154 0.62214 0.0
H261 H 0.70391 0.24885 0.63121 0.0
H262 H 0.61487 0.24494 0.65629 0.0
H263 H 0.49883 0.24397 0.65552 0.0
H264 H 1.03117 0.84757 0.01171 0.0
H265 H 0.91331 0.73311 0.01124 0.0
H266 H 0.80266 0.84431 0.99107 0.0
H267 H 0.9198 0.95749 0.991 0.0
H268 H 0.79163 0.66884 0.0323 0.0
H269 H 0.6898 0.68373 0.94587 0.0
H270 H 0.78211 0.74656 0.95624 0.0
H271 H 0.70852 0.76055 0.9645 0.0
C272 C 0.98212 0.84827 0.00695 0.0
C273 C 0.98839 0.91488 0.00118 0.0
C274 C 0.91302 0.78128 0.00672 0.0
C275 C 0.84493 0.7755 0.0005 0.0
C276 C 0.85149 0.84257 0.99515 0.0
H277 H 0.36325 0.41573 0.99023 0.0
H278 H 0.48105 0.53025 0.99066 0.0
C279 C 0.92032 0.90933 0.99537 0.0
C280 C 0.76885 0.70154 0.00014 0.0
H281 H 0.60292 0.5943 0.96912 0.0
C282 C 0.75127 0.65328 0.01821 0.0
C283 C 0.71224 0.67687 0.9822 0.0
C284 C 0.72418 0.71914 0.96099 0.0
C285 C 0.68237 0.58624 0.01919 0.0
C286 C 0.62574 0.56163 0.00128 0.0
C287 C 0.6433 0.60988 0.9832 0.0
C288 C 0.54969 0.48766 0.00092 0.0
C289 C 0.67049 0.54379 0.04035 0.0
C290 C 0.54331 0.42048 0.00601 0.0
C291 C 0.47453 0.35367 0.00578 0.0
C292 C 0.40633 0.34818 0.00025 0.0
C293 C 0.41241 0.41494 0.99476 0.0
C294 C 0.48147 0.48198 0.99497 0.0
H295 H 0.70497 0.57905 0.05549 0.0
H296 H 0.61258 0.51638 0.04514 0.0
H297 H 0.68602 0.50233 0.03676 0.0
H298 H 0.59225 0.41875 0.00991 0.0
H299 H 0.47518 0.30541 0.00995 0.0
H300 H 0.29092 0.37693 0.32426 0.0
H301 H 0.29193 0.49181 0.32385 0.0
H302 H 1.0706 0.38503 0.3452 0.0
H303 H 1.07037 0.27082 0.34613 0.0
H304 H 0.24181 0.56096 0.30326 0.0
H305 H 1.12095 0.54938 0.38745 0.0
H306 H 1.14776 0.48523 0.37843 0.0
H307 H 1.06121 0.47298 0.36836 0.0
C308 C 0.24204 0.37699 0.32915 0.0
C309 C 0.18079 0.31069 0.33548 0.0
C310 C 0.24255 0.4447 0.32883 0.0
C311 C 0.18211 0.45278 0.33503 0.0
C312 C 1.1204 0.38598 0.34104 0.0
H313 H 1.08288 0.82506 0.34326 0.0
H314 H 1.0818 0.71016 0.34364 0.0
C315 C 1.11987 0.3182 0.34134 0.0
C316 C 0.1837 0.52863 0.33465 0.0
H317 H 1.13134 0.64056 0.36369 0.0
C318 C 0.21762 0.57739 0.31679 0.0
C319 C 1.15306 0.55546 0.35172 0.0
C320 C 1.11934 0.51358 0.3727 0.0
C321 C 0.21998 0.64603 0.3152 0.0
C322 C 0.18942 0.67292 0.33229 0.0
C323 C 1.15551 0.62415 0.35015 0.0
C324 C 0.19101 0.74879 0.33192 0.0
C325 C 0.25342 0.68769 0.29416 0.0
C326 C 0.25238 0.8154 0.32562 0.0
C327 C 0.25289 0.88315 0.3253 0.0
C328 C 0.19234 0.89088 0.33147 0.0
C329 C 1.13147 0.82482 0.33812 0.0
C330 C 1.13094 0.7571 0.33842 0.0
H331 H 0.25152 0.65171 0.27941 0.0
H332 H 0.22499 0.71605 0.28845 0.0
H333 H 0.31164 0.7282 0.2984 0.0
H334 H 0.30196 0.81624 0.32124 0.0
H335 H 0.30212 0.93036 0.32027 0.0
H336 H 0.23862 1.07379 0.26664 0.0
H337 H 0.25207 1.08504 0.22453 0.0
H338 H 1.06042 1.1043 0.21928 0.0
H339 H 1.04678 1.0928 0.26108 0.0
H340 H 1.05679 1.01378 0.18442 0.0
H341 H 0.32842 0.26367 0.18776 0.0
H342 H 0.32588 0.19098 0.20266 0.0
H343 H 0.2751 0.23175 0.21308 0.0
C344 C 0.19937 1.08049 0.25651 0.0
C345 C 1.1415 1.0823 0.26748 0.0
C346 C 0.20741 1.08751 0.23232 0.0
C347 C 1.15785 1.09658 0.2183 0.0
C348 C 1.09977 1.09757 0.22933 0.0
H349 H 0.2002 0.25391 0.07839 0.0
H350 H 0.19683 0.23707 0.12014 0.0
C351 C 1.09201 1.09101 0.25343 0.0
C352 C 1.16497 1.10389 0.19227 0.0
H353 H 0.27838 0.20761 0.15054 0.0
C354 C 1.10556 1.0561 0.1771 0.0
C355 C 0.22794 0.15945 0.18228 0.0
C356 C 0.2928 0.21488 0.19723 0.0
C357 C 1.1073 1.06193 0.15273 0.0
C358 C 1.17056 0.11686 0.14271 0.0
C359 C 0.22991 0.16493 0.15786 0.0
C360 C 1.17487 0.12717 0.11679 0.0
C361 C 1.04003 1.01022 0.13798 0.0
C362 C 1.16504 1.07182 0.10041 0.0
C363 C 1.16708 1.0815 0.07631 0.0
C364 C 1.17905 0.14689 0.06776 0.0
C365 C 0.19037 0.20262 0.08416 0.0
C366 C 0.18863 0.19305 0.1082 0.0
H367 H 0.99078 0.98365 0.14843 0.0
H368 H 1.02983 1.03847 0.12408 0.0
H369 H 1.04808 0.96739 0.12966 0.0
H370 H 1.15596 1.02087 0.10623 0.0
H371 H 1.15882 1.03748 0.06435 0.0
H372 H 1.16295 0.16858 0.40201 0.0
H373 H 1.15224 0.16302 0.44434 0.0
H374 H 0.29308 1.07357 0.44703 0.0
H375 H 0.30371 1.07896 0.40493 0.0
H376 H 1.16537 0.99852 0.47338 0.0
H377 H 0.30767 0.29372 0.496 0.0
H378 H 0.2343 0.25933 0.47434 0.0
H379 H 0.31551 0.25692 0.4682 0.0
C380 C 0.19134 0.14749 0.41158 0.0
C381 C 0.23398 0.12406 0.39983 0.0
C382 C 0.18584 0.1449 0.43595 0.0
C383 C 0.22249 0.11849 0.44931 0.0
C384 C 0.26438 1.09444 0.43747 0.0
H385 H 0.25355 1.02062 0.59426 0.0
H386 H 0.25858 1.03159 0.5523 0.0
C387 C 0.27045 1.09773 0.41324 0.0
C388 C 0.21654 1.11425 0.47539 0.0
H389 H 0.25911 0.21695 0.52679 0.0
C390 C 0.18594 1.04645 0.48501 0.0
C391 C 0.24251 0.17625 0.4909 0.0
C392 C 0.27739 0.25088 0.48199 0.0
C393 C 0.18001 1.03881 0.50925 0.0
C394 C 0.208 1.101 0.52491 0.0
C395 C 0.2378 0.16887 0.51522 0.0
C396 C 0.20751 1.09672 0.55116 0.0
C397 C 1.14145 0.96339 0.51766 0.0
C398 C 0.18067 0.13247 0.56541 0.0
C399 C 1.17919 0.12738 0.58975 0.0
C400 C 0.20445 1.0863 0.6007 0.0
C401 C 0.23262 1.05191 0.58655 0.0
C402 C 0.23488 1.05766 0.56232 0.0
H403 H 1.10207 0.9236 0.50417 0.0
H404 H 0.18224 0.94727 0.52163 0.0
H405 H 1.11144 0.96013 0.53352 0.0
H406 H 1.15964 0.1636 0.55766 0.0
H407 H 1.15709 0.15472 0.59996 0.0
H408 H 0.20479 0.25989 0.74178 0.0
H409 H 0.20356 0.24833 0.78384 0.0
H410 H 0.23897 1.06869 0.77398 0.0
H411 H 0.24377 1.08261 0.73214 0.0
H412 H 1.12194 0.15157 0.81224 0.0
H413 H 0.3936 0.17913 0.82275 0.0
H414 H 0.36194 0.1955 0.79587 0.0
H415 H 0.33462 1.10461 0.8029 0.0
C416 C 0.21285 0.21816 0.74856 0.0
C417 C 0.2249 0.17256 0.73328 0.0
C418 C 0.21193 0.21137 0.77279 0.0
C419 C 0.22294 0.15864 0.78272 0.0
C420 C 0.23283 1.11166 0.76733 0.0
H421 H 0.2147 1.01502 0.92373 0.0
H422 H 0.21573 1.02959 0.88187 0.0
C423 C 0.2346 0.11901 0.74313 0.0
C424 C 0.22303 0.15244 0.80892 0.0
H425 H 0.31866 0.13979 0.8553 0.0
C426 C 1.16547 0.14959 0.82156 0.0
C427 C 0.27954 0.15003 0.82166 0.0
C428 C 0.34626 0.15825 0.81015 0.0
C429 C 1.16198 0.14275 0.8459 0.0
C430 C 0.21778 0.13906 0.8585 0.0
C431 C 0.27541 0.14216 0.84594 0.0
C432 C 0.21686 0.13079 0.88451 0.0
C433 C 1.09723 0.13761 0.85789 0.0
C434 C 0.21797 0.18293 0.90055 0.0
C435 C 0.21807 0.17492 0.92472 0.0
C436 C 0.21666 1.11434 0.93371 0.0
C437 C 0.21564 1.06238 0.91765 0.0
C438 C 0.21632 1.07074 0.89355 0.0
H439 H 1.05118 0.12407 0.84541 0.0
H440 H 1.07788 1.09614 0.87094 0.0
H441 H 1.11356 0.19044 0.86704 0.0
H442 H 0.21974 0.23059 0.8944 0.0
H443 H 0.2194 0.21633 0.93641 0.0
loop_
_geom_bond_atom_site_label_1
_geom_bond_atom_site_label_2
_geom_bond_distance
_geom_bond_site_symmetry_2
_ccdc_geom_bond_type
Tb0 C2 2.813 . S
Tb0 O20 2.500 . S
Tb0 O21 2.432 1_554 S
Tb0 O22 2.645 1_564 S
Tb0 O23 2.381 1_554 S
Tb0 O24 2.374 1_454 S
Tb0 O28 2.345 . S
Tb0 O31 2.343 1_565 S
Tb1 C11 2.809 . S
Tb1 O22 2.325 1_554 S
Tb1 O25 2.341 1_445 S
Tb1 O26 2.484 1_554 S
Tb1 O27 2.440 . S
Tb1 O28 2.658 1_545 S
Tb1 O29 2.409 . S
Tb1 O30 2.378 . S
C2 Tb0 2.813 . S
C2 C3 1.514 . S
C2 O20 1.248 . S
C2 O21 1.266 1_554 S
C3 C2 1.514 . S
C3 C4 1.359 . S
C3 C8 1.348 1_554 S
C4 C3 1.359 . S
C4 C5 1.380 . S
C4 H32 0.929 . S
C5 C4 1.380 . S
C5 C6 1.347 . S
C5 H33 0.931 . S
C6 C5 1.347 . S
C6 C7 1.369 1_554 S
C7 C6 1.369 1_556 S
C7 C8 1.408 . S
C7 H34 0.930 . S
C8 C3 1.348 1_556 S
C8 C7 1.408 . S
C8 H35 0.930 . S
C9 O22 1.281 . S
C9 O23 1.254 1_545 S
C10 O24 1.249 . S
C10 O25 1.261 1_556 S
C11 Tb1 2.809 . S
C11 C12 1.514 . S
C11 O26 1.248 1_554 S
C11 O27 1.266 . S
C12 C11 1.514 . S
C12 C13 1.359 1_554 S
C12 C17 1.348 . S
C13 C12 1.359 1_556 S
C13 C14 1.380 . S
C13 H36 0.929 . S
C14 C13 1.380 . S
C14 C15 1.360 . S
C14 H37 0.931 . S
C15 C14 1.360 . S
C15 C16 1.353 1_556 S
C16 C15 1.353 1_554 S
C16 C17 1.408 . S
C16 H38 0.930 . S
C17 C12 1.348 . S
C17 C16 1.408 . S
C17 H39 0.930 . S
C18 O28 1.281 1_545 S
C18 O29 1.254 . S
C19 O30 1.236 . S
C19 O31 1.266 . S
O20 Tb0 2.500 . S
O20 C2 1.248 . S
O21 Tb0 2.432 1_556 S
O21 C2 1.266 1_556 S
O22 Tb0 2.645 1_546 S
O22 Tb1 2.325 1_556 S
O22 C9 1.281 . S
O23 Tb0 2.381 1_556 S
O23 C9 1.254 1_565 S
O24 Tb0 2.374 1_656 S
O24 C10 1.249 . S
O25 Tb1 2.341 1_665 S
O25 C10 1.261 1_554 S
O26 Tb1 2.484 1_556 S
O26 C11 1.248 1_556 S
O27 Tb1 2.440 . S
O27 C11 1.266 . S
O28 Tb0 2.345 . S
O28 Tb1 2.658 1_565 S
O28 C18 1.281 1_565 S
O29 Tb1 2.409 . S
O29 C18 1.254 . S
O30 Tb1 2.378 . S
O30 C19 1.236 . S
O31 Tb0 2.343 1_545 S
O31 C19 1.266 . S
H32 C4 0.929 . S
H33 C5 0.931 . S
H34 C7 0.930 . S
H35 C8 0.930 . S
H36 C13 0.929 . S
H37 C14 0.931 . S
H38 C16 0.930 . S
H39 C17 0.930 . S
Tb40 C42 2.809 1_565 S
Tb40 O60 2.484 1_565 S
Tb40 O61 2.440 . S
Tb40 O62 2.658 1_665 S
Tb40 O63 2.409 . S
Tb40 O64 2.378 1_565 S
Tb40 O68 2.325 1_665 S
Tb40 O71 2.341 . S
Tb41 C51 2.809 . S
Tb41 O62 2.325 . S
Tb41 O65 2.341 . S
Tb41 O66 2.484 . S
Tb41 O67 2.440 . S
Tb41 O68 2.658 . S
Tb41 O69 2.409 . S
Tb41 O70 2.378 1_545 S
C42 Tb40 2.809 1_545 S
C42 C43 1.514 . S
C42 O60 1.248 . S
C42 O61 1.266 1_545 S
C43 C42 1.514 . S
C43 C44 1.359 . S
C43 C48 1.348 . S
C44 C43 1.359 . S
C44 C45 1.380 . S
C44 H72 0.929 . S
C45 C44 1.380 . S
C45 C46 1.347 . S
C45 H73 0.931 . S
C46 C45 1.347 . S
C46 C47 1.369 . S
C47 C46 1.369 . S
C47 C48 1.408 . S
C47 H74 0.930 . S
C48 C43 1.348 . S
C48 C47 1.408 . S
C48 H75 0.930 . S
C49 O62 1.281 . S
C49 O63 1.254 1_445 S
C50 O64 1.236 1_455 S
C50 O65 1.266 . S
C51 Tb41 2.809 . S
C51 C52 1.514 . S
C51 O66 1.248 . S
C51 O67 1.266 . S
C52 C51 1.514 . S
C52 C53 1.359 . S
C52 C57 1.348 . S
C53 C52 1.359 . S
C53 C54 1.380 1_545 S
C53 H76 0.929 . S
C54 C53 1.380 1_565 S
C54 C55 1.347 1_565 S
C54 H77 0.931 . S
C55 C54 1.347 1_545 S
C55 C56 1.369 . S
C56 C55 1.369 . S
C56 C57 1.408 . S
C56 H78 0.930 . S
C57 C52 1.348 . S
C57 C56 1.408 . S
C57 H79 0.930 . S
C58 O68 1.281 . S
C58 O69 1.254 . S
C59 O70 1.236 . S
C59 O71 1.266 1_455 S
O60 Tb40 2.484 1_545 S
O60 C42 1.248 . S
O61 Tb40 2.440 . S
O61 C42 1.266 1_565 S
O62 Tb40 2.658 1_445 S
O62 Tb41 2.325 . S
O62 C49 1.281 . S
O63 Tb40 2.409 . S
O63 C49 1.254 1_665 S
O64 Tb40 2.378 1_545 S
O64 C50 1.236 1_655 S
O65 Tb41 2.341 . S
O65 C50 1.266 . S
O66 Tb41 2.484 . S
O66 C51 1.248 . S
O67 Tb41 2.440 . S
O67 C51 1.266 . S
O68 Tb40 2.325 1_445 S
O68 Tb41 2.658 . S
O68 C58 1.281 . S
O69 Tb41 2.409 . S
O69 C58 1.254 . S
O70 Tb41 2.378 1_565 S
O70 C59 1.236 . S
O71 Tb40 2.341 . S
O71 C59 1.266 1_655 S
H72 C44 0.929 . S
H73 C45 0.931 . S
H74 C47 0.930 . S
H75 C48 0.930 . S
H76 C53 0.929 . S
H77 C54 0.931 . S
H78 C56 0.930 . S
H79 C57 0.930 . S
Tb80 C82 2.809 . S
Tb80 O100 2.484 . S
Tb80 O101 2.440 . S
Tb80 O102 2.658 1_665 S
Tb80 O103 2.409 . S
Tb80 O104 2.378 . S
Tb80 O108 2.325 1_565 S
Tb80 O111 2.341 1_655 S
Tb81 C91 2.809 . S
Tb81 O102 2.325 . S
Tb81 O105 2.341 1_455 S
Tb81 O106 2.484 . S
Tb81 O107 2.440 . S
Tb81 O108 2.658 1_455 S
Tb81 O109 2.409 . S
Tb81 O110 2.378 . S
C82 Tb80 2.809 . S
C82 C83 1.514 . S
C82 O100 1.248 . S
C82 O101 1.266 . S
C83 C82 1.514 . S
C83 C84 1.359 . S
C83 C88 1.348 . S
C84 C83 1.359 . S
C84 C85 1.380 . S
C84 H112 0.929 . S
C85 C84 1.380 . S
C85 C86 1.347 . S
C85 H113 0.931 . S
C86 C85 1.347 . S
C86 C87 1.369 . S
C87 C86 1.369 . S
C87 C88 1.408 . S
C87 H114 0.930 . S
C88 C83 1.348 . S
C88 C87 1.408 . S
C88 H115 0.930 . S
C89 O102 1.281 . S
C89 O103 1.254 1_445 S
C90 O104 1.236 1_545 S
C90 O105 1.266 . S
C91 Tb81 2.809 . S
C91 C92 1.514 . S
C91 O106 1.248 . S
C91 O107 1.266 . S
C92 C91 1.514 . S
C92 C93 1.359 . S
C92 C97 1.348 . S
C93 C92 1.359 . S
C93 C94 1.380 . S
C93 H116 0.929 . S
C94 C93 1.380 . S
C94 C95 1.347 . S
C94 H117 0.931 . S
C95 C94 1.347 . S
C95 C96 1.369 . S
C96 C95 1.369 . S
C96 C97 1.408 . S
C96 H118 0.930 . S
C97 C92 1.348 . S
C97 C96 1.408 . S
C97 H119 0.930 . S
C98 O108 1.281 1_455 S
C98 O109 1.254 . S
C99 O110 1.236 . S
C99 O111 1.266 1_545 S
O100 Tb80 2.484 . S
O100 C82 1.248 . S
O101 Tb80 2.440 . S
O101 C82 1.266 . S
O102 Tb80 2.658 1_445 S
O102 Tb81 2.325 . S
O102 C89 1.281 . S
O103 Tb80 2.409 . S
O103 C89 1.254 1_665 S
O104 Tb80 2.378 . S
O104 C90 1.236 1_565 S
O105 Tb81 2.341 1_655 S
O105 C90 1.266 . S
O106 Tb81 2.484 . S
O106 C91 1.248 . S
O107 Tb81 2.440 . S
O107 C91 1.266 . S
O108 Tb80 2.325 1_545 S
O108 Tb81 2.658 1_655 S
O108 C98 1.281 1_655 S
O109 Tb81 2.409 . S
O109 C98 1.254 . S
O110 Tb81 2.378 . S
O110 C99 1.236 . S
O111 Tb80 2.341 1_455 S
O111 C99 1.266 1_565 S
H112 C84 0.929 . S
H113 C85 0.931 . S
H114 C87 0.930 . S
H115 C88 0.930 . S
H116 C93 0.929 . S
H117 C94 0.931 . S
H118 C96 0.930 . S
H119 C97 0.930 . S
H120 C128 0.929 . S
H121 C130 0.930 . S
H122 C132 0.930 . S
H123 C135 0.929 . S
H124 C138 0.930 . S
H125 C140 0.960 . S
H126 C140 0.960 . S
H127 C140 0.960 1_556 S
C128 H120 0.929 . S
C128 C129 1.377 1_554 S
C128 C130 1.384 . S
C129 C128 1.377 1_556 S
C129 C135 1.390 . S
C130 H121 0.930 . S
C130 C128 1.384 . S
C130 C131 1.372 . S
C131 C130 1.372 . S
C131 C132 1.400 1_554 S
C131 C136 1.490 . S
C132 H122 0.930 . S
C132 C131 1.400 1_556 S
C132 C135 1.386 . S
H133 C149 0.930 . S
H134 C150 0.931 1_655 S
C135 H123 0.929 . S
C135 C129 1.390 . S
C135 C132 1.386 . S
C136 C131 1.490 . S
C136 C138 1.395 . S
C136 C139 1.403 . S
H137 C143 0.930 1_655 S
C138 H124 0.930 . S
C138 C136 1.395 . S
C138 C141 1.403 . S
C139 C136 1.403 . S
C139 C140 1.524 1_455 S
C139 C143 1.400 . S
C140 H125 0.960 . S
C140 H126 0.960 . S
C140 H127 0.960 1_554 S
C140 C139 1.524 1_655 S
C141 C138 1.403 . S
C141 C142 1.392 . S
C141 C145 1.495 . S
C142 C141 1.392 . S
C142 C143 1.385 . S
C142 C144 1.478 . S
C143 H137 0.930 1_455 S
C143 C139 1.400 . S
C143 C142 1.385 . S
C144 C142 1.478 . S
C144 C146 1.381 . S
C144 C150 1.383 1_554 S
C145 C141 1.495 . S
C145 H151 0.967 . S
C145 H152 0.961 1_554 S
C145 H153 0.960 . S
C146 C144 1.381 . S
C146 C147 1.394 . S
C146 H154 0.930 . S
C147 C146 1.394 . S
C147 C148 1.383 . S
C147 H155 0.929 . S
C148 C147 1.383 . S
C148 C149 1.377 1_454 S
C149 H133 0.930 . S
C149 C148 1.377 1_656 S
C149 C150 1.379 1_655 S
C150 H134 0.931 1_455 S
C150 C144 1.383 1_556 S
C150 C149 1.379 1_455 S
H151 C145 0.967 . S
H152 C145 0.961 1_556 S
H153 C145 0.960 . S
H154 C146 0.930 . S
H155 C147 0.929 . S
H156 C164 0.929 . S
H157 C166 0.930 . S
H158 C168 0.930 . S
H159 C171 0.929 . S
H160 C174 0.930 . S
H161 C176 0.960 . S
H162 C176 0.960 . S
H163 C176 0.960 . S
C164 H156 0.929 . S
C164 C165 1.377 1_545 S
C164 C166 1.384 . S
C165 C164 1.377 1_565 S
C165 C171 1.390 . S
C166 H157 0.930 . S
C166 C164 1.384 . S
C166 C167 1.372 . S
C167 C166 1.372 . S
C167 C168 1.400 1_545 S
C167 C172 1.490 . S
C168 H158 0.930 . S
C168 C167 1.400 1_565 S
C168 C171 1.386 . S
H169 C185 0.930 . S
H170 C186 0.931 . S
C171 H159 0.929 . S
C171 C165 1.390 . S
C171 C168 1.386 . S
C172 C167 1.490 . S
C172 C174 1.395 . S
C172 C175 1.403 1_545 S
H173 C179 0.930 . S
C174 H160 0.930 . S
C174 C172 1.395 . S
C174 C177 1.403 . S
C175 C172 1.403 1_565 S
C175 C176 1.524 . S
C175 C179 1.400 . S
C176 H161 0.960 . S
C176 H162 0.960 . S
C176 H163 0.960 . S
C176 C175 1.524 . S
C177 C174 1.403 . S
C177 C178 1.392 . S
C177 C181 1.495 . S
C178 C177 1.392 . S
C178 C179 1.385 1_545 S
C178 C180 1.478 . S
C179 H173 0.930 . S
C179 C175 1.400 . S
C179 C178 1.385 1_565 S
C180 C178 1.478 . S
C180 C182 1.381 . S
C180 C186 1.383 . S
C181 C177 1.495 . S
C181 H187 0.959 . S
C181 H188 0.961 . S
C181 H189 0.960 . S
C182 C180 1.381 . S
C182 C183 1.394 . S
C182 H190 0.930 . S
C183 C182 1.394 . S
C183 C184 1.383 . S
C183 H191 0.929 . S
C184 C183 1.383 . S
C184 C185 1.377 . S
C185 H169 0.930 . S
C185 C184 1.377 . S
C185 C186 1.379 . S
C186 H170 0.931 . S
C186 C180 1.383 . S
C186 C185 1.379 . S
H187 C181 0.959 . S
H188 C181 0.961 . S
H189 C181 0.960 . S
H190 C182 0.930 . S
H191 C183 0.929 . S
H192 C200 0.929 . S
H193 C202 0.930 . S
H194 C204 0.930 . S
H195 C207 0.929 . S
H196 C210 0.930 . S
H197 C212 0.960 . S
H198 C212 0.960 . S
H199 C212 0.960 . S
C200 H192 0.929 . S
C200 C201 1.377 . S
C200 C202 1.384 . S
C201 C200 1.377 . S
C201 C207 1.390 . S
C202 H193 0.930 . S
C202 C200 1.384 . S
C202 C203 1.372 . S
C203 C202 1.372 . S
C203 C204 1.400 . S
C203 C208 1.490 . S
C204 H194 0.930 . S
C204 C203 1.400 . S
C204 C207 1.386 . S
H205 C221 0.930 . S
H206 C222 0.931 . S
C207 H195 0.929 . S
C207 C201 1.390 . S
C207 C204 1.386 . S
C208 C203 1.490 . S
C208 C210 1.395 . S
C208 C211 1.403 . S
H209 C215 0.930 . S
C210 H196 0.930 . S
C210 C208 1.395 . S
C210 C213 1.403 . S
C211 C208 1.403 . S
C211 C212 1.524 . S
C211 C215 1.400 . S
C212 H197 0.960 . S
C212 H198 0.960 . S
C212 H199 0.960 . S
C212 C211 1.524 . S
C213 C210 1.403 . S
C213 C214 1.392 . S
C213 C217 1.495 . S
C214 C213 1.392 . S
C214 C215 1.385 . S
C214 C216 1.478 . S
C215 H209 0.930 . S
C215 C211 1.400 . S
C215 C214 1.385 . S
C216 C214 1.478 . S
C216 C218 1.381 . S
C216 C222 1.383 . S
C217 C213 1.495 . S
C217 H223 0.959 . S
C217 H224 0.961 . S
C217 H225 0.960 . S
C218 C216 1.381 . S
C218 C219 1.394 . S
C218 H226 0.930 . S
C219 C218 1.394 . S
C219 C220 1.383 . S
C219 H227 0.929 . S
C220 C219 1.383 . S
C220 C221 1.377 . S
C221 H205 0.930 . S
C221 C220 1.377 . S
C221 C222 1.379 . S
C222 H206 0.931 . S
C222 C216 1.383 . S
C222 C221 1.379 . S
H223 C217 0.959 . S
H224 C217 0.961 . S
H225 C217 0.960 . S
H226 C218 0.930 . S
H227 C219 0.929 . S
H228 C236 0.929 . S
H229 C238 0.930 . S
H230 C240 0.930 . S
H231 C243 0.929 . S
H232 C246 0.930 1_565 S
H233 C248 0.960 . S
H234 C248 0.960 . S
H235 C248 0.960 . S
C236 H228 0.929 . S
C236 C237 1.377 . S
C236 C238 1.384 . S
C237 C236 1.377 . S
C237 C243 1.390 1_545 S
C238 H229 0.930 . S
C238 C236 1.384 . S
C238 C239 1.372 . S
C239 C238 1.372 . S
C239 C240 1.400 1_545 S
C239 C244 1.490 . S
C240 H230 0.930 . S
C240 C239 1.400 1_565 S
C240 C243 1.386 . S
H241 C257 0.930 . S
H242 C258 0.931 . S
C243 H231 0.929 . S
C243 C237 1.390 1_565 S
C243 C240 1.386 . S
C244 C239 1.490 . S
C244 C246 1.395 . S
C244 C247 1.403 . S
H245 C251 0.930 . S
C246 H232 0.930 1_545 S
C246 C244 1.395 . S
C246 C249 1.403 . S
C247 C244 1.403 . S
C247 C248 1.524 . S
C247 C251 1.400 . S
C248 H233 0.960 . S
C248 H234 0.960 . S
C248 H235 0.960 . S
C248 C247 1.524 . S
C249 C246 1.403 . S
C249 C250 1.392 . S
C249 C253 1.495 1_545 S
C250 C249 1.392 . S
C250 C251 1.385 . S
C250 C252 1.478 . S
C251 H245 0.930 . S
C251 C247 1.400 . S
C251 C250 1.385 . S
C252 C250 1.478 . S
C252 C254 1.381 . S
C252 C258 1.383 1_545 S
C253 C249 1.495 1_565 S
C253 H259 0.959 . S
C253 H260 0.961 . S
C253 H261 0.960 1_565 S
C254 C252 1.381 . S
C254 C255 1.394 . S
C254 H262 0.930 . S
C255 C254 1.394 . S
C255 C256 1.383 . S
C255 H263 0.929 . S
C256 C255 1.383 . S
C256 C257 1.377 1_545 S
C257 H241 0.930 . S
C257 C256 1.377 1_565 S
C257 C258 1.379 . S
C258 H242 0.931 . S
C258 C252 1.383 1_565 S
C258 C257 1.379 . S
H259 C253 0.959 . S
H260 C253 0.961 . S
H261 C253 0.960 1_545 S
H262 C254 0.930 . S
H263 C255 0.929 . S
H264 C272 0.929 . S
H265 C274 0.930 . S
H266 C276 0.930 . S
H267 C279 0.929 . S
H268 C282 0.930 . S
H269 C284 0.960 . S
H270 C284 0.960 . S
H271 C284 0.960 . S
C272 H264 0.929 . S
C272 C273 1.377 . S
C272 C274 1.384 . S
C273 C272 1.377 . S
C273 C279 1.390 1_554 S
C274 H265 0.930 . S
C274 C272 1.384 . S
C274 C275 1.372 . S
C275 C274 1.372 . S
C275 C276 1.400 1_554 S
C275 C280 1.490 . S
C276 H266 0.930 . S
C276 C275 1.400 1_556 S
C276 C279 1.386 . S
H277 C293 0.930 . S
H278 C294 0.931 . S
C279 H267 0.929 . S
C279 C273 1.390 1_556 S
C279 C276 1.386 . S
C280 C275 1.490 . S
C280 C282 1.395 . S
C280 C283 1.403 1_554 S
H281 C287 0.930 . S
C282 H268 0.930 . S
C282 C280 1.395 . S
C282 C285 1.403 . S
C283 C280 1.403 1_556 S
C283 C284 1.524 . S
C283 C287 1.400 . S
C284 H269 0.960 . S
C284 H270 0.960 . S
C284 H271 0.960 . S
C284 C283 1.524 . S
C285 C282 1.403 . S
C285 C286 1.392 . S
C285 C289 1.495 . S
C286 C285 1.392 . S
C286 C287 1.385 1_554 S
C286 C288 1.478 . S
C287 H281 0.930 . S
C287 C283 1.400 . S
C287 C286 1.385 1_556 S
C288 C286 1.478 . S
C288 C290 1.381 . S
C288 C294 1.383 . S
C289 C285 1.495 . S
C289 H295 0.959 . S
C289 H296 0.961 . S
C289 H297 0.960 . S
C290 C288 1.381 . S
C290 C291 1.394 . S
C290 H298 0.930 . S
C291 C290 1.394 . S
C291 C292 1.383 . S
C291 H299 0.929 . S
C292 C291 1.383 . S
C292 C293 1.377 . S
C293 H277 0.930 . S
C293 C292 1.377 . S
C293 C294 1.379 . S
C294 H278 0.931 . S
C294 C288 1.383 . S
C294 C293 1.379 . S
H295 C289 0.959 . S
H296 C289 0.961 . S
H297 C289 0.960 . S
H298 C290 0.930 . S
H299 C291 0.929 . S
H300 C308 0.929 . S
H301 C310 0.930 . S
H302 C312 0.930 1_655 S
H303 C315 0.924 1_655 S
H304 C318 0.930 . S
H305 C320 0.960 . S
H306 C320 0.960 . S
H307 C320 0.960 . S
C308 H300 0.929 . S
C308 C309 1.377 . S
C308 C310 1.384 . S
C309 C308 1.377 . S
C309 C315 1.405 . S
C310 H301 0.930 . S
C310 C308 1.384 . S
C310 C311 1.372 . S
C311 C310 1.372 . S
C311 C312 1.400 . S
C311 C316 1.490 . S
C312 H302 0.930 1_455 S
C312 C311 1.400 . S
C312 C315 1.376 . S
H313 C329 0.930 1_655 S
H314 C330 0.931 . S
C315 H303 0.924 1_455 S
C315 C309 1.405 . S
C315 C312 1.376 . S
C316 C311 1.490 . S
C316 C318 1.395 . S
C316 C319 1.403 1_455 S
H317 C323 0.930 1_655 S
C318 H304 0.930 . S
C318 C316 1.395 . S
C318 C321 1.403 . S
C319 C316 1.403 1_655 S
C319 C320 1.524 . S
C319 C323 1.400 1_655 S
C320 H305 0.960 . S
C320 H306 0.960 . S
C320 H307 0.960 . S
C320 C319 1.524 . S
C321 C318 1.403 . S
C321 C322 1.392 . S
C321 C325 1.495 . S
C322 C321 1.392 . S
C322 C323 1.385 . S
C322 C324 1.478 . S
C323 H317 0.930 1_455 S
C323 C319 1.400 1_455 S
C323 C322 1.385 . S
C324 C322 1.478 . S
C324 C326 1.381 . S
C324 C330 1.383 . S
C325 C321 1.495 . S
C325 H331 0.959 . S
C325 H332 0.961 . S
C325 H333 0.960 . S
C326 C324 1.381 . S
C326 C327 1.394 . S
C326 H334 0.930 . S
C327 C326 1.394 . S
C327 C328 1.383 . S
C327 H335 0.929 . S
C328 C327 1.383 . S
C328 C329 1.377 . S
C329 H313 0.930 1_455 S
C329 C328 1.377 . S
C329 C330 1.379 . S
C330 H314 0.931 . S
C330 C324 1.383 . S
C330 C329 1.379 . S
H331 C325 0.959 . S
H332 C325 0.961 . S
H333 C325 0.960 . S
H334 C326 0.930 . S
H335 C327 0.929 . S
H336 C344 0.929 . S
H337 C346 0.930 . S
H338 C348 0.930 . S
H339 C351 0.929 . S
H340 C354 0.930 . S
H341 C356 0.960 . S
H342 C356 0.960 . S
H343 C356 0.960 . S
C344 H336 0.929 . S
C344 C345 1.377 1_565 S
C344 C346 1.384 . S
C345 C344 1.377 1_545 S
C345 C351 1.390 . S
C346 H337 0.930 . S
C346 C344 1.384 . S
C346 C347 1.372 1_565 S
C347 C346 1.372 1_545 S
C347 C348 1.400 . S
C347 C352 1.490 . S
C348 H338 0.930 . S
C348 C347 1.400 . S
C348 C351 1.386 . S
H349 C365 0.930 . S
H350 C366 0.931 . S
C351 H339 0.929 . S
C351 C345 1.390 . S
C351 C348 1.386 . S
C352 C347 1.490 . S
C352 C354 1.395 1_445 S
C352 C355 1.403 . S
H353 C359 0.930 . S
C354 H340 0.930 . S
C354 C352 1.395 1_665 S
C354 C357 1.403 . S
C355 C352 1.403 . S
C355 C356 1.524 . S
C355 C359 1.400 . S
C356 H341 0.960 . S
C356 H342 0.960 . S
C356 H343 0.960 . S
C356 C355 1.524 . S
C357 C354 1.403 . S
C357 C358 1.392 1_665 S
C357 C361 1.495 . S
C358 C357 1.392 1_445 S
C358 C359 1.385 . S
C358 C360 1.478 . S
C359 H353 0.930 . S
C359 C355 1.400 . S
C359 C358 1.385 . S
C360 C358 1.478 . S
C360 C362 1.381 1_545 S
C360 C366 1.383 . S
C361 C357 1.495 . S
C361 H367 0.959 . S
C361 H368 0.961 . S
C361 H369 0.960 . S
C362 C360 1.381 1_565 S
C362 C363 1.394 . S
C362 H370 0.930 . S
C363 C362 1.394 . S
C363 C364 1.383 1_565 S
C363 H371 0.929 . S
C364 C363 1.383 1_545 S
C364 C365 1.377 . S
C365 H349 0.930 . S
C365 C364 1.377 . S
C365 C366 1.379 . S
C366 H350 0.931 . S
C366 C360 1.383 . S
C366 C365 1.379 . S
H367 C361 0.959 . S
H368 C361 0.961 . S
H369 C361 0.960 . S
H370 C362 0.930 . S
H371 C363 0.929 . S
H372 C380 0.929 1_565 S
H373 C382 0.929 1_565 S
H374 C384 0.930 . S
H375 C387 0.929 . S
H376 C390 0.930 . S
H377 C392 0.960 . S
H378 C392 0.960 . S
H379 C392 0.960 . S
C380 H372 0.929 1_545 S
C380 C381 1.377 1_655 S
C380 C382 1.384 . S
C381 C380 1.377 1_455 S
C381 C387 1.390 . S
C382 H373 0.929 1_545 S
C382 C380 1.384 . S
C382 C383 1.373 1_655 S
C383 C382 1.373 1_455 S
C383 C384 1.400 . S
C383 C388 1.490 . S
C384 H374 0.930 . S
C384 C383 1.400 . S
C384 C387 1.386 . S
H385 C401 0.930 . S
H386 C402 0.931 . S
C387 H375 0.929 . S
C387 C381 1.390 . S
C387 C384 1.386 . S
C388 C383 1.490 . S
C388 C390 1.395 1_445 S
C388 C391 1.403 . S
H389 C395 0.930 . S
C390 H376 0.930 . S
C390 C388 1.395 1_665 S
C390 C393 1.403 . S
C391 C388 1.403 . S
C391 C392 1.524 . S
C391 C395 1.400 . S
C392 H377 0.960 . S
C392 H378 0.960 . S
C392 H379 0.960 . S
C392 C391 1.524 . S
C393 C390 1.403 . S
C393 C394 1.392 1_665 S
C393 C397 1.495 . S
C394 C393 1.392 1_445 S
C394 C395 1.385 . S
C394 C396 1.478 . S
C395 H389 0.930 . S
C395 C391 1.400 . S
C395 C394 1.385 . S
C396 C394 1.478 . S
C396 C398 1.381 1_445 S
C396 C402 1.383 . S
C397 C393 1.495 . S
C397 H403 0.959 . S
C397 H404 0.961 . S
C397 H405 0.960 . S
C398 C396 1.381 1_665 S
C398 C399 1.394 1_565 S
C398 H406 0.930 . S
C399 C398 1.394 1_545 S
C399 C400 1.383 1_655 S
C399 H407 0.929 1_545 S
C400 C399 1.383 1_455 S
C400 C401 1.377 . S
C401 H385 0.930 . S
C401 C400 1.377 . S
C401 C402 1.379 . S
C402 H386 0.931 . S
C402 C396 1.383 . S
C402 C401 1.379 . S
H403 C397 0.959 . S
H404 C397 0.961 . S
H405 C397 0.960 . S
H406 C398 0.930 . S
H407 C399 0.929 1_565 S
H408 C416 0.929 . S
H409 C418 0.930 . S
H410 C420 0.930 1_565 S
H411 C423 0.929 1_565 S
H412 C426 0.930 . S
H413 C428 0.960 . S
H414 C428 0.960 . S
H415 C428 0.960 . S
C416 H408 0.929 . S
C416 C417 1.377 1_655 S
C416 C418 1.384 . S
C417 C416 1.377 1_455 S
C417 C423 1.390 . S
C418 H409 0.930 . S
C418 C416 1.384 . S
C418 C419 1.372 1_655 S
C419 C418 1.372 1_455 S
C419 C420 1.400 . S
C419 C424 1.490 . S
C420 H410 0.930 1_545 S
C420 C419 1.400 . S
C420 C423 1.386 . S
H421 C437 0.930 . S
H422 C438 0.931 . S
C423 H411 0.929 1_545 S
C423 C417 1.390 . S
C423 C420 1.386 . S
C424 C419 1.490 . S
C424 C426 1.395 1_445 S
C424 C427 1.403 . S
H425 C431 0.930 . S
C426 H412 0.930 . S
C426 C424 1.395 1_665 S
C426 C429 1.403 . S
C427 C424 1.403 . S
C427 C428 1.524 . S
C427 C431 1.400 . S
C428 H413 0.960 . S
C428 H414 0.960 . S
C428 H415 0.960 . S
C428 C427 1.524 . S
C429 C426 1.403 . S
C429 C430 1.392 1_665 S
C429 C433 1.495 . S
C430 C429 1.392 1_445 S
C430 C431 1.385 . S
C430 C432 1.478 . S
C431 H425 0.930 . S
C431 C427 1.400 . S
C431 C430 1.385 . S
C432 C430 1.478 . S
C432 C434 1.391 . S
C432 C438 1.383 1_545 S
C433 C429 1.495 . S
C433 H439 0.959 . S
C433 H440 0.961 . S
C433 H441 0.960 . S
C434 C432 1.391 . S
C434 C435 1.396 . S
C434 H442 0.919 1_455 S
C435 C434 1.396 . S
C435 C436 1.383 . S
C435 H443 0.929 1_455 S
C436 C435 1.383 . S
C436 C437 1.377 1_545 S
C437 H421 0.930 . S
C437 C436 1.377 1_565 S
C437 C438 1.379 . S
C438 H422 0.931 . S
C438 C432 1.383 1_565 S
C438 C437 1.379 . S
H439 C433 0.959 . S
H440 C433 0.961 . S
H441 C433 0.960 . S
H442 C434 0.919 1_655 S
H443 C435 0.929 1_655 S
C129 C15 1.024 . S
C148 C6 1.015 . S
C165 C55 1.035 1_565 S
C184 C46 1.061 . S
C201 C86 1.033 . S
C220 C95 1.027 . S
C237 C90 4.833 . S
C256 C99 4.830 . S
C273 C10 4.839 1_554 S
C292 C19 4.835 . S
C309 C50 4.829 . S
C328 C59 4.827 . S
C345 C49 1.457 . S
C364 C18 1.419 . S
C381 C58 1.464 . S
C400 C89 1.421 . S
C417 C98 1.460 . S
C436 C9 1.477 . S
