# Generated by pormake.
# Topology crs, (6)-cn, num edge types: 1
# Building blocks:
#     Node 0, Type 0, BuildingBlock: CIFDUS_clean_sbu_1, # of connection points: 6
#     Node 1, Type 0, BuildingBlock: CIFDUS_clean_sbu_1, # of connection points: 6
#     Node 2, Type 0, BuildingBlock: CIFDUS_clean_sbu_1, # of connection points: 6
#     Node 3, Type 0, BuildingBlock: CIFDUS_clean_sbu_1, # of connection points: 6
#     Node 4, Type 0, BuildingBlock: CIFDUS_clean_sbu_1, # of connection points: 6
#     Node 5, Type 0, BuildingBlock: CIFDUS_clean_sbu_1, # of connection points: 6
#     Node 6, Type 0, BuildingBlock: CIFDUS_clean_sbu_1, # of connection points: 6
#     Node 7, Type 0, BuildingBlock: CIFDUS_clean_sbu_1, # of connection points: 6
#     Node 8, Type 0, BuildingBlock: CIFDUS_clean_sbu_1, # of connection points: 6
#     Node 9, Type 0, BuildingBlock: CIFDUS_clean_sbu_1, # of connection points: 6
#     Node 10, Type 0, BuildingBlock: CIFDUS_clean_sbu_1, # of connection points: 6
#     Node 11, Type 0, BuildingBlock: CIFDUS_clean_sbu_1, # of connection points: 6
#     Node 12, Type 0, BuildingBlock: CIFDUS_clean_sbu_1, # of connection points: 6
#     Node 13, Type 0, BuildingBlock: CIFDUS_clean_sbu_1, # of connection points: 6
#     Node 14, Type 0, BuildingBlock: CIFDUS_clean_sbu_1, # of connection points: 6
#     Node 15, Type 0, BuildingBlock: CIFDUS_clean_sbu_1, # of connection points: 6
#     Edge 16, Type (0, 0), BuildingBlock: TEMPAE_clean_linker_10, # of connection points: 2
#     Edge 17, Type (0, 0), BuildingBlock: TEMPAE_clean_linker_10, # of connection points: 2
#     Edge 18, Type (0, 0), BuildingBlock: TEMPAE_clean_linker_10, # of connection points: 2
#     Edge 19, Type (0, 0), BuildingBlock: TEMPAE_clean_linker_10, # of connection points: 2
#     Edge 20, Type (0, 0), BuildingBlock: TEMPAE_clean_linker_10, # of connection points: 2
#     Edge 21, Type (0, 0), BuildingBlock: TEMPAE_clean_linker_10, # of connection points: 2
#     Edge 22, Type (0, 0), BuildingBlock: TEMPAE_clean_linker_10, # of connection points: 2
#     Edge 23, Type (0, 0), BuildingBlock: TEMPAE_clean_linker_10, # of connection points: 2
#     Edge 24, Type (0, 0), BuildingBlock: TEMPAE_clean_linker_10, # of connection points: 2
#     Edge 25, Type (0, 0), BuildingBlock: TEMPAE_clean_linker_10, # of connection points: 2
#     Edge 26, Type (0, 0), BuildingBlock: TEMPAE_clean_linker_10, # of connection points: 2
#     Edge 27, Type (0, 0), BuildingBlock: TEMPAE_clean_linker_10, # of connection points: 2
#     Edge 28, Type (0, 0), BuildingBlock: TEMPAE_clean_linker_10, # of connection points: 2
#     Edge 29, Type (0, 0), BuildingBlock: TEMPAE_clean_linker_10, # of connection points: 2
#     Edge 30, Type (0, 0), BuildingBlock: TEMPAE_clean_linker_10, # of connection points: 2
#     Edge 31, Type (0, 0), BuildingBlock: TEMPAE_clean_linker_10, # of connection points: 2
#     Edge 32, Type (0, 0), BuildingBlock: TEMPAE_clean_linker_10, # of connection points: 2
#     Edge 33, Type (0, 0), BuildingBlock: TEMPAE_clean_linker_10, # of connection points: 2
#     Edge 34, Type (0, 0), BuildingBlock: TEMPAE_clean_linker_10, # of connection points: 2
#     Edge 35, Type (0, 0), BuildingBlock: TEMPAE_clean_linker_10, # of connection points: 2
#     Edge 36, Type (0, 0), BuildingBlock: TEMPAE_clean_linker_10, # of connection points: 2
#     Edge 37, Type (0, 0), BuildingBlock: TEMPAE_clean_linker_10, # of connection points: 2
#     Edge 38, Type (0, 0), BuildingBlock: TEMPAE_clean_linker_10, # of connection points: 2
#     Edge 39, Type (0, 0), BuildingBlock: TEMPAE_clean_linker_10, # of connection points: 2
#     Edge 40, Type (0, 0), BuildingBlock: TEMPAE_clean_linker_10, # of connection points: 2
#     Edge 41, Type (0, 0), BuildingBlock: TEMPAE_clean_linker_10, # of connection points: 2
#     Edge 42, Type (0, 0), BuildingBlock: TEMPAE_clean_linker_10, # of connection points: 2
#     Edge 43, Type (0, 0), BuildingBlock: TEMPAE_clean_linker_10, # of connection points: 2
#     Edge 44, Type (0, 0), BuildingBlock: TEMPAE_clean_linker_10, # of connection points: 2
#     Edge 45, Type (0, 0), BuildingBlock: TEMPAE_clean_linker_10, # of connection points: 2
#     Edge 46, Type (0, 0), BuildingBlock: TEMPAE_clean_linker_10, # of connection points: 2
#     Edge 47, Type (0, 0), BuildingBlock: TEMPAE_clean_linker_10, # of connection points: 2
#     Edge 48, Type (0, 0), BuildingBlock: TEMPAE_clean_linker_10, # of connection points: 2
#     Edge 49, Type (0, 0), BuildingBlock: TEMPAE_clean_linker_10, # of connection points: 2
#     Edge 50, Type (0, 0), BuildingBlock: TEMPAE_clean_linker_10, # of connection points: 2
#     Edge 51, Type (0, 0), BuildingBlock: TEMPAE_clean_linker_10, # of connection points: 2
#     Edge 52, Type (0, 0), BuildingBlock: TEMPAE_clean_linker_10, # of connection points: 2
#     Edge 53, Type (0, 0), BuildingBlock: TEMPAE_clean_linker_10, # of connection points: 2
#     Edge 54, Type (0, 0), BuildingBlock: TEMPAE_clean_linker_10, # of connection points: 2
#     Edge 55, Type (0, 0), BuildingBlock: TEMPAE_clean_linker_10, # of connection points: 2
#     Edge 56, Type (0, 0), BuildingBlock: TEMPAE_clean_linker_10, # of connection points: 2
#     Edge 57, Type (0, 0), BuildingBlock: TEMPAE_clean_linker_10, # of connection points: 2
#     Edge 58, Type (0, 0), BuildingBlock: TEMPAE_clean_linker_10, # of connection points: 2
#     Edge 59, Type (0, 0), BuildingBlock: TEMPAE_clean_linker_10, # of connection points: 2
#     Edge 60, Type (0, 0), BuildingBlock: TEMPAE_clean_linker_10, # of connection points: 2
#     Edge 61, Type (0, 0), BuildingBlock: TEMPAE_clean_linker_10, # of connection points: 2
#     Edge 62, Type (0, 0), BuildingBlock: TEMPAE_clean_linker_10, # of connection points: 2
#     Edge 63, Type (0, 0), BuildingBlock: TEMPAE_clean_linker_10, # of connection points: 2
# Relax obj value: 0.275
# Max RMSD: 0.232
# Mean RMSD: 0.228
data_MOF--net-crs--node1-CIFDUS_clean_sbu_1--edge1-TEMPAE_clean_linker_10
_symmetry_space_group_name_H-M    P1
_symmetry_Int_Tables_number       1
_symmetry_cell_setting            triclinic
loop_
_symmetry_equiv_pos_as_xyz
'x, y, z'
_cell_length_a     41.556701
_cell_length_b     41.868917
_cell_length_c     42.270604
_cell_angle_alpha  90.481609
_cell_angle_beta   89.440143
_cell_angle_gamma 88.07496
loop_
_atom_site_label
_atom_site_type_symbol
_atom_site_fract_x
_atom_site_fract_y
_atom_site_fract_z
_atom_type_partial_charge
O0 O 0.94472 0.02549 0.96473 0.0
Mn1 Mn 0.97834 0.01178 -0.00211 0.0
O2 O 0.89811 0.0375 0.99054 0.0
Mn3 Mn 0.90859 0.01505 0.02699 0.0
O4 O 0.01138 -0.00203 0.0315 0.0
O5 O 0.00879 -0.00108 0.96206 0.0
Mn6 Mn 0.04685 0.01457 0.97041 0.0
O7 O -0.00495 0.05855 -0.00085 0.0
O8 O 0.06029 -0.00321 0.00844 0.0
O9 O 0.96005 0.96573 -0.00224 0.0
O10 O 0.91101 0.97108 0.02131 0.0
O11 O 0.05165 0.99338 0.93231 0.0
O12 O 0.04121 0.05852 0.97112 0.0
C13 C 0.94159 0.03531 0.06037 0.0
C14 C 0.91551 0.03632 0.96541 0.0
C15 C 0.04186 0.9929 0.03236 0.0
C16 C 0.02148 0.98743 0.93607 0.0
C17 C 0.01851 0.07305 0.98636 0.0
C18 C 0.93344 0.95417 0.00769 0.0
O19 O 0.94866 0.02426 0.03286 0.0
O20 O 0.91134 0.03378 0.06724 0.0
O21 O 0.03504 0.26899 0.20979 0.0
Mn22 Mn 0.00233 0.2603 0.24559 0.0
O23 O 0.00778 0.28136 0.16579 0.0
Mn24 Mn 0.96878 0.26775 0.18128 0.0
O25 O 0.97034 0.25135 0.28194 0.0
O26 O 0.03832 0.23964 0.26926 0.0
Mn27 Mn 0.03948 0.25189 0.3088 0.0
O28 O 0.01094 0.30535 0.2664 0.0
O29 O -0.00031 0.2415 0.32559 0.0
O30 O -0.00524 0.21549 0.22522 0.0
O31 O 0.96544 0.22391 0.18136 0.0
O32 O 0.07334 0.22219 0.30262 0.0
O33 O 0.04543 0.29516 0.30615 0.0
C34 C 0.93892 0.29515 0.21378 0.0
C35 C 0.03408 0.27717 0.18069 0.0
C36 C 0.97274 0.2445 0.31138 0.0
C37 C 0.0629 0.22099 0.27395 0.0
C38 C 0.0293 0.31467 0.28893 0.0
C39 C 0.97968 0.20543 0.2009 0.0
O40 O 0.96541 0.28007 0.22129 0.0
O41 O 0.93224 0.2935 0.18394 0.0
O42 O 0.77839 0.21418 0.54754 0.0
Mn43 Mn 0.76508 0.23724 0.50581 0.0
O44 O 0.79737 0.16508 0.53424 0.0
Mn45 Mn 0.77697 0.16427 0.49565 0.0
O46 O 0.75139 0.26097 0.46409 0.0
O47 O 0.7467 0.27266 0.53257 0.0
Mn48 Mn 0.75257 0.31039 0.51631 0.0
O49 O 0.80894 0.25954 0.50542 0.0
O50 O 0.7296 0.3087 0.47912 0.0
O51 O 0.72108 0.21485 0.50678 0.0
O52 O 0.73262 0.16223 0.49839 0.0
O53 O 0.73394 0.31693 0.55623 0.0
O54 O 0.79697 0.31233 0.51085 0.0
C55 C 0.79829 0.18704 0.45554 0.0
C56 C 0.79218 0.18732 0.55462 0.0
C57 C 0.73547 0.28713 0.45817 0.0
C58 C 0.73533 0.2861 0.55782 0.0
C59 C 0.81709 0.28883 0.50673 0.0
C60 C 0.71286 0.18568 0.50368 0.0
O61 O 0.78397 0.20165 0.47891 0.0
O62 O 0.79898 0.15623 0.45804 0.0
O63 O 0.72841 0.93574 0.74578 0.0
Mn64 Mn 0.73651 0.98354 0.73448 0.0
O65 O 0.68894 0.93615 0.78276 0.0
Mn66 Mn 0.69094 0.979 0.79345 0.0
O67 O 0.74518 0.03126 0.7244 0.0
O68 O 0.77606 0.96833 0.7109 0.0
Mn69 Mn 0.78223 0.99137 0.67685 0.0
O70 O 0.71009 0.98098 0.69398 0.0
O71 O 0.78942 0.03147 0.69356 0.0
O72 O 0.76261 0.98835 0.77494 0.0
O73 O 0.72735 0.99017 0.81606 0.0
O74 O 0.81388 0.95902 0.67649 0.0
O75 O 0.74442 0.98926 0.6533 0.0
C76 C 0.67019 0.01431 0.7617 0.0
C77 C 0.70865 0.92136 0.76401 0.0
C78 C 0.76853 0.04574 0.71138 0.0
C79 C 0.80056 0.95047 0.70273 0.0
C80 C 0.71616 0.98567 0.66468 0.0
C81 C 0.7557 0.9923 0.80431 0.0
O82 O 0.69655 -0.0019 0.75716 0.0
O83 O 0.65586 0.00735 0.78789 0.0
O84 O 0.54276 0.76498 0.21662 0.0
Mn85 Mn 0.50292 0.76129 0.24694 0.0
O86 O 0.52229 0.76992 0.16773 0.0
Mn87 Mn 0.47958 0.76513 0.17845 0.0
O88 O 0.46316 0.75797 0.27741 0.0
O89 O 0.53125 0.73865 0.27836 0.0
Mn90 Mn 0.52678 0.75756 0.31554 0.0
O91 O 0.51193 0.80669 0.26605 0.0
O92 O 0.48351 0.75529 0.32652 0.0
O93 O 0.49432 0.71584 0.2278 0.0
O94 O 0.46725 0.72362 0.18276 0.0
O95 O 0.5548 0.72299 0.32124 0.0
O96 O 0.54086 0.79848 0.30987 0.0
C97 C 0.45412 0.80358 0.20204 0.0
C98 C 0.54608 0.76856 0.18657 0.0
C99 C 0.45967 0.75646 0.30766 0.0
C100 C 0.55032 0.71776 0.29141 0.0
C101 C 0.52872 0.81708 0.28915 0.0
C102 C 0.47892 0.70528 0.20386 0.0
O103 O 0.47411 0.78383 0.21561 0.0
O104 O 0.45007 0.79786 0.1722 0.0
O105 O 0.23248 0.73589 0.51957 0.0
Mn106 Mn 0.21836 0.74586 0.47311 0.0
O107 O 0.26679 0.69316 0.51658 0.0
Mn108 Mn 0.2545 0.68047 0.47664 0.0
O109 O 0.20486 0.75547 0.42686 0.0
O110 O 0.18309 0.77364 0.4904 0.0
Mn111 Mn 0.1743 0.80767 0.46819 0.0
O112 O 0.24786 0.78489 0.47261 0.0
O113 O 0.16402 0.79181 0.42852 0.0
O114 O 0.18673 0.70931 0.47449 0.0
O115 O 0.21408 0.66237 0.47491 0.0
O116 O 0.14575 0.80803 0.5028 0.0
O117 O 0.21336 0.82811 0.47065 0.0
C118 C 0.27509 0.70372 0.43629 0.0
C119 C 0.253 0.71617 0.53195 0.0
C120 C 0.18237 0.77185 0.41336 0.0
C121 C 0.16126 0.78206 0.5105 0.0
C122 C 0.24177 0.81532 0.4725 0.0
C123 C 0.18768 0.67884 0.47529 0.0
O124 O 0.25298 0.7163 0.45465 0.0
O125 O 0.28425 0.67505 0.44424 0.0
O126 O 0.27362 0.48181 0.77008 0.0
Mn127 Mn 0.28331 0.51989 0.74091 0.0
O128 O 0.26306 0.50266 0.81861 0.0
Mn129 Mn 0.26855 0.5456 0.80882 0.0
O130 O 0.29194 0.55857 0.71159 0.0
O131 O 0.31007 0.49082 0.7137 0.0
Mn132 Mn 0.30319 0.49559 0.6733 0.0
O133 O 0.24231 0.51048 0.7149 0.0
O134 O 0.31113 0.53826 0.66538 0.0
O135 O 0.32499 0.52875 0.76601 0.0
O136 O 0.31086 0.55834 0.80874 0.0
O137 O 0.33632 0.46461 0.67761 0.0
O138 O 0.26016 0.48559 0.6701 0.0
C139 C 0.23396 0.56807 0.77739 0.0
C140 C 0.26623 0.47889 0.79944 0.0
C141 C 0.3028 0.56195 0.68328 0.0
C142 C 0.33212 0.46953 0.70761 0.0
C143 C 0.23746 0.49571 0.68867 0.0
C144 C 0.33214 0.54577 0.79012 0.0
O145 O 0.25698 0.54867 0.76902 0.0
O146 O 0.23327 0.57419 0.80742 0.0
O147 O 0.00863 0.48626 0.5701 0.0
Mn148 Mn 0.00673 0.4762 0.52131 0.0
O149 O 0.95824 0.49948 0.58609 0.0
Mn150 Mn 0.9474 0.51699 0.54749 0.0
O151 O 0.00482 0.46751 0.47257 0.0
O152 O 0.0535 0.46654 0.52118 0.0
Mn153 Mn 0.06618 0.43684 0.49392 0.0
O154 O -0.00071 0.42852 0.52895 0.0
O155 O 0.05504 0.45515 0.4556 0.0
O156 O 0.01437 0.52325 0.51297 0.0
O157 O 0.97275 0.55151 0.5357 0.0
O158 O 0.10213 0.44851 0.51727 0.0
O159 O 0.04132 0.40184 0.50494 0.0
C160 C 0.93288 0.48809 0.5074 0.0
C161 C 0.98785 0.49351 0.59208 0.0
C162 C 0.02583 0.46348 0.45026 0.0
C163 C 0.08191 0.46743 0.53218 0.0
C164 C 0.01416 0.40261 0.51971 0.0
C165 C -0.00037 0.54956 0.52057 0.0
O166 O 0.95986 0.48593 0.52157 0.0
O167 O 0.91247 0.50708 0.52198 0.0
O168 O 0.25469 0.23114 0.02872 0.0
Mn169 Mn 0.24526 0.25493 0.98591 0.0
O170 O 0.27518 0.18238 0.01565 0.0
Mn171 Mn 0.25662 0.18181 0.9761 0.0
O172 O 0.23614 0.27841 0.94277 0.0
O173 O 0.22611 0.29152 0.01146 0.0
Mn174 Mn 0.23478 0.32782 0.9932 0.0
O175 O 0.29009 0.27571 0.9886 0.0
O176 O 0.21435 0.32663 0.95482 0.0
O177 O 0.20027 0.23361 0.98373 0.0
O178 O 0.21212 0.18102 0.97628 0.0
O179 O 0.2127 0.33871 0.02984 0.0
O180 O 0.27935 0.32881 0.99105 0.0
C181 C 0.27964 0.20456 0.93687 0.0
C182 C 0.26849 0.20425 0.03607 0.0
C183 C 0.22169 0.30475 0.93477 0.0
C184 C 0.21218 0.3081 0.03383 0.0
C185 C 0.2991 0.30479 0.98923 0.0
C186 C 0.19186 0.20445 0.98004 0.0
O187 O 0.265 0.21901 0.96014 0.0
O188 O 0.27996 0.17376 0.9391 0.0
O189 O 0.23232 0.95324 0.27103 0.0
Mn190 Mn 0.23835 0.99536 0.24649 0.0
O191 O 0.21493 0.96558 0.32007 0.0
Mn192 Mn 0.22524 0.00812 0.31725 0.0
O193 O 0.24431 0.03617 0.21926 0.0
O194 O 0.263 0.96987 0.21485 0.0
Mn195 Mn 0.24917 0.97316 0.17626 0.0
O196 O 0.19503 0.9872 0.22398 0.0
O197 O 0.25164 0.01698 0.16921 0.0
O198 O 0.28164 0.00255 0.26939 0.0
O199 O 0.26872 0.01554 0.31992 0.0
O200 O 0.28449 0.94395 0.176 0.0
O201 O 0.20762 0.95882 0.17989 0.0
C202 C 0.19434 0.04201 0.29318 0.0
C203 C 0.22181 0.94522 0.29827 0.0
C204 C 0.24839 0.04009 0.18927 0.0
C205 C 0.28472 0.94942 0.2061 0.0
C206 C 0.18726 0.96971 0.20038 0.0
C207 C 0.28918 0.01057 0.29762 0.0
O208 O 0.21353 0.02129 0.27929 0.0
O209 O 0.1949 0.04054 0.32377 0.0
O210 O 0.56074 0.26215 0.73418 0.0
Mn211 Mn 0.51848 0.25644 0.76088 0.0
O212 O 0.54654 0.28758 0.6898 0.0
Mn213 Mn 0.50478 0.2745 0.69194 0.0
O214 O 0.47711 0.2507 0.78792 0.0
O215 O 0.54451 0.22911 0.79049 0.0
Mn216 Mn 0.53731 0.24142 0.82975 0.0
O217 O 0.52779 0.29869 0.78665 0.0
O218 O 0.49367 0.2369 0.83666 0.0
O219 O 0.50902 0.21483 0.73519 0.0
O220 O 0.50027 0.23108 0.68525 0.0
O221 O 0.56564 0.20675 0.8316 0.0
O222 O 0.55078 0.2827 0.83198 0.0
C223 C 0.46889 0.30069 0.71917 0.0
C224 C 0.56792 0.27635 0.70835 0.0
C225 C 0.47147 0.24292 0.81671 0.0
C226 C 0.56288 0.20625 0.80111 0.0
C227 C 0.54175 0.30468 0.81308 0.0
C228 C 0.5033 0.20909 0.70586 0.0
O229 O 0.4914 0.28251 0.73094 0.0
O230 O 0.47005 0.30258 0.68861 0.0
O231 O 0.04314 0.75225 0.72967 0.0
Mn232 Mn 0.00313 0.74263 0.75826 0.0
O233 O 0.02312 0.76409 0.68143 0.0
Mn234 Mn 0.98116 0.75229 0.68869 0.0
O235 O 0.96263 0.73303 0.78545 0.0
O236 O 0.0332 0.72082 0.78894 0.0
Mn237 Mn 0.01997 0.72981 0.82785 0.0
O238 O 0.00634 0.78639 0.78246 0.0
O239 O 0.97954 0.71322 0.8318 0.0
O240 O -0.00107 0.69869 0.73487 0.0
O241 O 0.97552 0.70851 0.68804 0.0
O242 O 0.05657 0.70443 0.83181 0.0
O243 O 0.02112 0.7738 0.83216 0.0
C244 C 0.95102 0.78337 0.7181 0.0
C245 C 0.04647 0.76093 0.7007 0.0
C246 C 0.95738 0.7199 0.81217 0.0
C247 C 0.05682 0.70442 0.80116 0.0
C248 C 0.01333 0.7942 0.81107 0.0
C249 C 0.98687 0.68915 0.70866 0.0
O250 O 0.9734 0.76417 0.72793 0.0
O251 O 0.94727 0.78238 0.68779 0.0
O252 O 0.75162 0.47377 0.29891 0.0
Mn253 Mn 0.76145 0.51603 0.27547 0.0
O254 O 0.72991 0.48841 0.34636 0.0
Mn255 Mn 0.73713 0.53195 0.34399 0.0
O256 O 0.77022 0.55931 0.25299 0.0
O257 O 0.79203 0.49165 0.24666 0.0
Mn258 Mn 0.78775 0.50536 0.20758 0.0
O259 O 0.72352 0.50824 0.24549 0.0
O260 O 0.79834 0.54786 0.20854 0.0
O261 O 0.7998 0.52243 0.30555 0.0
O262 O 0.77969 0.54146 0.3518 0.0
O263 O 0.81986 0.47382 0.20639 0.0
O264 O 0.74526 0.49803 0.19721 0.0
C265 C 0.70948 0.56157 0.31135 0.0
C266 C 0.73933 0.46716 0.32604 0.0
C267 C 0.78619 0.56785 0.22852 0.0
C268 C 0.81471 0.47231 0.23658 0.0
C269 C 0.72112 0.50126 0.21607 0.0
C270 C 0.80338 0.53272 0.33389 0.0
O271 O 0.73132 0.54046 0.30389 0.0
O272 O 0.70467 0.56384 0.34155 0.0
O273 O 0.75528 0.7205 0.03821 0.0
Mn274 Mn 0.74732 0.74653 -0.00293 0.0
O275 O 0.74839 0.66868 0.02556 0.0
Mn276 Mn 0.73531 0.67414 0.9839 0.0
O277 O 0.7394 0.77144 0.95495 0.0
O278 O 0.73876 0.78592 0.02352 0.0
Mn279 Mn 0.75575 0.81942 0.00606 0.0
O280 O 0.7965 0.7564 -0.00549 0.0
O281 O 0.73642 0.82378 0.967 0.0
O282 O 0.69776 0.73714 -0.00069 0.0
O283 O 0.69285 0.68738 0.97945 0.0
O284 O 0.73645 0.83357 0.04349 0.0
O285 O 0.79938 0.80939 0.00428 0.0
C286 C 0.76865 0.69062 0.94878 0.0
C287 C 0.75449 0.69077 0.04556 0.0
C288 C 0.73415 0.80077 0.94726 0.0
C289 C 0.72926 0.80395 0.0469 0.0
C290 C 0.81244 0.78197 -0.00172 0.0
C291 C 0.68069 0.71406 0.98931 0.0
O292 O 0.75613 0.70733 0.97145 0.0
O293 O 0.75984 0.66133 0.94848 0.0
O294 O 0.46201 0.02532 0.55299 0.0
Mn295 Mn 0.47151 0.00926 0.50679 0.0
O296 O 0.42529 0.06562 0.55081 0.0
Mn297 Mn 0.43665 0.07671 0.5099 0.0
O298 O 0.48184 0.99181 0.46099 0.0
O299 O 0.50256 0.9773 0.5247 0.0
Mn300 Mn 0.49574 0.9383 0.51163 0.0
O301 O 0.43436 0.97739 0.5097 0.0
O302 O 0.50047 0.94086 0.4681 0.0
O303 O 0.50671 0.04357 0.50367 0.0
O304 O 0.47843 0.09102 0.50659 0.0
O305 O 0.52974 0.93523 0.53954 0.0
O306 O 0.45443 0.92955 0.52468 0.0
C307 C 0.41916 0.05033 0.46969 0.0
C308 C 0.44273 0.04591 0.56656 0.0
C309 C 0.49227 0.96436 0.4504 0.0
C310 C 0.52517 0.96586 0.54209 0.0
C311 C 0.43083 0.94849 0.51842 0.0
C312 C 0.50494 0.07446 0.50492 0.0
O313 O 0.44018 0.04048 0.48937 0.0
O314 O 0.40764 0.07868 0.47624 0.0
O315 O 0.48505 0.50371 0.97844 0.0
Mn316 Mn 0.51047 0.49229 0.01898 0.0
O317 O 0.4329 0.51009 0.99328 0.0
Mn318 Mn 0.4369 0.49521 0.03447 0.0
O319 O 0.53462 0.48079 0.0603 0.0
O320 O 0.54721 0.47697 0.99145 0.0
Mn321 Mn 0.58408 0.48397 0.00978 0.0
O322 O 0.52976 0.53763 0.01967 0.0
O323 O 0.58307 0.46013 0.04648 0.0
O324 O 0.49204 0.44614 0.01832 0.0
O325 O 0.44141 0.4513 0.03779 0.0
O326 O 0.5937 0.4673 0.96983 0.0
O327 O 0.58346 0.52806 0.01604 0.0
C328 C 0.46075 0.5224 0.07052 0.0
C329 C 0.45536 0.51021 0.97231 0.0
C330 C 0.56088 0.46563 0.06701 0.0
C331 C 0.56279 0.46764 0.96641 0.0
C332 C 0.5589 0.54715 0.01926 0.0
C333 C 0.46572 0.43423 0.02835 0.0
O334 O 0.47431 0.50863 0.0464 0.0
O335 O 0.42986 0.5197 0.07111 0.0
C336 C 0.96958 0.03922 0.11155 0.0
C337 C 0.96397 0.05125 0.08124 0.0
C338 C 0.98145 0.05891 0.13547 0.0
C339 C 0.98623 0.0915 0.12897 0.0
C340 C 0.98388 0.10263 0.09742 0.0
C341 C 0.97302 0.08211 0.07378 0.0
C342 C 0.9853 0.04584 0.16841 0.0
C343 C 0.98861 0.13728 0.08942 0.0
C344 C 0.95384 0.15618 0.184 0.0
C345 C 0.98196 0.17154 0.19198 0.0
C346 C 0.95517 0.12817 0.1657 0.0
C347 C 0.98549 0.11535 0.15517 0.0
C348 C 0.01413 0.12917 0.1657 0.0
C349 C 0.01199 0.15749 0.18376 0.0
C350 C 0.92392 0.11437 0.15491 0.0
C351 C 0.04682 0.11542 0.15597 0.0
H352 H 0.96258 0.01516 0.11709 0.0
H353 H 0.96825 0.09131 0.05032 0.0
H354 H 0.00682 0.05555 0.17991 0.0
H355 H 0.96397 0.05315 0.18305 0.0
H356 H 0.98747 0.01934 0.16821 0.0
H357 H 0.98803 0.14153 0.06353 0.0
H358 H 0.96923 0.15238 0.10077 0.0
H359 H 0.01189 0.14528 0.09867 0.0
H360 H 0.93069 0.16748 0.19004 0.0
H361 H 0.03366 0.17012 0.18894 0.0
H362 H 0.92386 0.08835 0.15947 0.0
H363 H 0.92133 0.11777 0.12903 0.0
H364 H 0.90262 0.12587 0.167 0.0
H365 H 0.04873 0.08976 0.1622 0.0
H366 H 0.0667 0.12807 0.16751 0.0
H367 H 0.05002 0.11694 0.12996 0.0
C368 C 0.82463 0.1837 0.4029 0.0
C369 C 0.81423 0.2026 0.42876 0.0
C370 C 0.84571 0.1955 0.38023 0.0
C371 C 0.85681 0.22685 0.38376 0.0
C372 C 0.84355 0.24725 0.40769 0.0
C373 C 0.82226 0.23478 0.43001 0.0
C374 C 0.85826 0.17347 0.3541 0.0
C375 C 0.85366 0.28136 0.41122 0.0
C376 C 0.94446 0.23025 0.36128 0.0
C377 C 0.9429 0.24138 0.33016 0.0
C378 C 0.91652 0.22722 0.3795 0.0
C379 C 0.88621 0.2355 0.36628 0.0
C380 C 0.88449 0.24798 0.33532 0.0
C381 C 0.91293 0.25077 0.31761 0.0
C382 C 0.91942 0.21395 0.41256 0.0
C383 C 0.85303 0.25874 0.32063 0.0
H384 H 0.81769 0.15901 0.40123 0.0
H385 H 0.81333 0.24982 0.44911 0.0
H386 H 0.85666 0.18568 0.33094 0.0
H387 H 0.88401 0.16711 0.35826 0.0
H388 H 0.84475 0.15106 0.35272 0.0
H389 H 0.83573 0.29599 0.42521 0.0
H390 H 0.87701 0.28176 0.4237 0.0
H391 H 0.85695 0.29253 0.38773 0.0
H392 H 0.96754 0.22336 0.37133 0.0
H393 H 0.91155 0.26027 0.29387 0.0
H394 H 0.90737 0.19072 0.41383 0.0
H395 H 0.90721 0.23044 0.42987 0.0
H396 H 0.94488 0.21018 0.4198 0.0
H397 H 0.85365 0.25478 0.29461 0.0
H398 H 0.84938 0.28482 0.32486 0.0
H399 H 0.83206 0.24649 0.33068 0.0
C400 C 0.79383 0.09829 0.71604 0.0
C401 C 0.76675 0.08059 0.70914 0.0
C402 C 0.79835 0.12771 0.70126 0.0
C403 C 0.77637 0.13801 0.67784 0.0
C404 C 0.74638 0.12305 0.67532 0.0
C405 C 0.74194 0.09429 0.69116 0.0
C406 C 0.82886 0.14518 0.70714 0.0
C407 C 0.72135 0.13408 0.65181 0.0
C408 C 0.78409 0.19884 0.61268 0.0
C409 C 0.7969 0.17912 0.5883 0.0
C410 C 0.78031 0.18704 0.64349 0.0
C411 C 0.78875 0.15465 0.64956 0.0
C412 C 0.80497 0.13591 0.62582 0.0
C413 C 0.80943 0.14868 0.59578 0.0
C414 C 0.76512 0.20875 0.66843 0.0
C415 C 0.81488 0.10121 0.63091 0.0
H416 H 0.8128 0.08782 0.73047 0.0
H417 H 0.7209 0.08055 0.68605 0.0
H418 H 0.84795 0.13631 0.69043 0.0
H419 H 0.82505 0.17125 0.70344 0.0
H420 H 0.83757 0.14101 0.73158 0.0
H421 H 0.69764 0.12348 0.6566 0.0
H422 H 0.71822 0.16044 0.65235 0.0
H423 H 0.72938 0.12683 0.62759 0.0
H424 H 0.77516 0.22279 0.60741 0.0
H425 H 0.82037 0.13363 0.57737 0.0
H426 H 0.76828 0.19938 0.69272 0.0
H427 H 0.73905 0.21182 0.66363 0.0
H428 H 0.77551 0.23281 0.66715 0.0
H429 H 0.83199 0.0991 0.65078 0.0
H430 H 0.82662 0.09002 0.60965 0.0
H431 H 0.79349 0.08725 0.63703 0.0
C432 C 0.87098 0.05978 0.93346 0.0
C433 C 0.89914 0.04063 0.93512 0.0
C434 C 0.84994 0.05648 0.90811 0.0
C435 C 0.85703 0.03286 0.88471 0.0
C436 C 0.88696 0.01577 0.88466 0.0
C437 C 0.908 0.0203 0.90974 0.0
C438 C 0.81871 0.07598 0.90813 0.0
C439 C 0.89517 0.98999 0.86037 0.0
C440 C 0.78469 0.98978 0.85523 0.0
C441 C 0.78168 0.00215 0.82482 0.0
C442 C 0.80967 -0.00076 0.87477 0.0
C443 C 0.83123 0.02233 0.86377 0.0
C444 C 0.82796 0.03517 0.83314 0.0
C445 C 0.8034 0.02451 0.81378 0.0
C446 C 0.81304 0.98444 0.9071 0.0
C447 C 0.85002 0.06041 0.82109 0.0
H448 H 0.8644 0.07577 0.95295 0.0
H449 H 0.92981 0.0054 0.911 0.0
H450 H 0.81279 0.08412 0.8839 0.0
H451 H 0.79886 0.06096 0.9164 0.0
H452 H 0.81968 0.09718 0.92403 0.0
H453 H 0.88082 0.9687 0.86541 0.0
H454 H 0.88901 -0.00193 0.8362 0.0
H455 H 0.9211 0.98257 0.86077 0.0
H456 H 0.76787 0.97234 0.86345 0.0
H457 H 0.80065 0.03424 0.79021 0.0
H458 H 0.80978 0.00316 0.92568 0.0
H459 H 0.83758 0.97355 0.90975 0.0
H460 H 0.79519 0.96574 0.91134 0.0
H461 H 0.84847 0.08164 0.83698 0.0
H462 H 0.84395 0.06807 0.7967 0.0
H463 H 0.87537 0.05127 0.82123 0.0
C464 C 0.0371 0.97621 0.08891 0.0
C465 C 0.0564 0.98488 0.06309 0.0
C466 C 0.05053 0.97099 0.11883 0.0
C467 C 0.0839 0.97475 0.12286 0.0
C468 C 0.10342 0.98358 0.09686 0.0
C469 C 0.08945 0.98825 0.06729 0.0
C470 C 0.02913 0.96111 0.14583 0.0
C471 C 0.13917 0.98836 0.10019 0.0
C472 C 0.13268 0.99372 0.19327 0.0
C473 C 0.15319 0.96652 0.19274 0.0
C474 C 0.10578 0.99537 0.17355 0.0
C475 C 0.0995 0.96895 0.15367 0.0
C476 C 0.11647 0.9395 0.15805 0.0
C477 C 0.1436 0.93874 0.17735 0.0
C478 C 0.08771 0.02701 0.17024 0.0
C479 C 0.10949 0.91034 0.13841 0.0
H480 H 0.01145 0.97359 0.08581 0.0
H481 H 0.10443 0.99535 0.04759 0.0
H482 H 0.03367 0.93537 0.15068 0.0
H483 H 0.03453 0.97451 0.16779 0.0
H484 H 0.00319 0.96487 0.14034 0.0
H485 H 0.15052 -0.00363 0.07785 0.0
H486 H 0.14349 0.00647 0.11885 0.0
H487 H 0.15146 0.96567 0.10736 0.0
H488 H 0.13982 0.01502 0.20574 0.0
H489 H 0.15917 0.91742 0.17771 0.0
H490 H 0.06219 0.02374 0.16395 0.0
H491 H 0.09907 0.04086 0.1511 0.0
H492 H 0.08864 0.04132 0.19244 0.0
H493 H 0.08327 0.90842 0.13456 0.0
H494 H 0.11885 0.88812 0.14978 0.0
H495 H 0.1214 0.91227 0.11491 0.0
C496 C 0.98998 0.43904 0.41143 0.0
C497 C 0.01481 0.45992 0.41752 0.0
C498 C 0.98746 0.42455 0.38159 0.0
C499 C 0.00986 0.43188 0.35742 0.0
C500 C 0.03024 0.45791 0.36183 0.0
C501 C 0.03338 0.47096 0.3923 0.0
C502 C 0.96374 0.39841 0.37738 0.0
C503 C 0.05166 0.46913 0.33549 0.0
C504 C 0.04994 0.35685 0.32406 0.0
C505 C 0.02914 0.34872 0.29948 0.0
C506 C 0.0447 0.38458 0.34213 0.0
C507 C 0.01939 0.4064 0.33403 0.0
C508 C 0.00143 0.40091 0.3063 0.0
C509 C 0.00586 0.3716 0.28969 0.0
C510 C 0.06478 0.3889 0.37149 0.0
C511 C 0.9768 0.42523 0.29477 0.0
H512 H 0.97513 0.43104 0.43087 0.0
H513 H 0.05197 0.48793 0.39684 0.0
H514 H 0.94907 0.4033 0.35616 0.0
H515 H 0.97678 0.37507 0.37369 0.0
H516 H 0.94725 0.39646 0.39808 0.0
H517 H 0.05655 0.49491 0.33844 0.0
H518 H 0.07508 0.45565 0.33595 0.0
H519 H 0.04057 0.46522 0.31203 0.0
H520 H 0.06897 0.34013 0.3311 0.0
H521 H 0.99016 0.36615 0.27019 0.0
H522 H 0.04898 0.39179 0.39272 0.0
H523 H 0.07904 0.41068 0.36941 0.0
H524 H 0.08181 0.36836 0.37554 0.0
H525 H 0.95236 0.41782 0.30153 0.0
H526 H 0.97796 0.42661 0.26858 0.0
H527 H 0.98041 0.44943 0.30474 0.0
C528 C 0.70113 0.24672 0.58456 0.0
C529 C 0.72482 0.26955 0.58641 0.0
C530 C 0.68183 0.24044 0.61114 0.0
C531 C 0.68684 0.25736 0.63983 0.0
C532 C 0.71446 0.27589 0.64292 0.0
C533 C 0.73284 0.28229 0.61591 0.0
C534 C 0.65307 0.2198 0.60701 0.0
C535 C 0.72185 0.29286 0.67347 0.0
C536 C 0.60982 0.29598 0.67204 0.0
C537 C 0.60145 0.27524 0.69634 0.0
C538 C 0.6381 0.29081 0.65437 0.0
C539 C 0.6589 0.2643 0.66133 0.0
C540 C 0.65185 0.24458 0.6874 0.0
C541 C 0.62317 0.25046 0.70481 0.0
C542 C 0.64471 0.31293 0.62709 0.0
C543 C 0.67386 0.21682 0.69634 0.0
H544 H 0.69506 0.23677 0.56172 0.0
H545 H 0.75172 0.29949 0.61736 0.0
H546 H 0.64885 0.20531 0.62839 0.0
H547 H 0.63129 0.23535 0.60332 0.0
H548 H 0.6561 0.20356 0.58623 0.0
H549 H 0.74769 0.29869 0.67467 0.0
H550 H 0.70732 0.31556 0.67503 0.0
H551 H 0.71563 0.27813 0.69419 0.0
H552 H 0.59334 0.31548 0.66574 0.0
H553 H 0.61697 0.23457 0.72383 0.0
H554 H 0.64585 0.29917 0.60453 0.0
H555 H 0.66827 0.32415 0.63025 0.0
H556 H 0.62592 0.33228 0.62491 0.0
H557 H 0.67881 0.201 0.67559 0.0
H558 H 0.66352 0.20244 0.71567 0.0
H559 H 0.69723 0.22583 0.70434 0.0
C560 C 0.74515 0.8775 0.78088 0.0
C561 C 0.71431 0.88723 0.77099 0.0
C562 C 0.74901 0.85401 0.80417 0.0
C563 C 0.72148 0.83934 0.81666 0.0
C564 C 0.69142 0.84443 0.80178 0.0
C565 C 0.68802 0.86883 0.77936 0.0
C566 C 0.78158 0.84892 0.81902 0.0
C567 C 0.66186 0.82782 0.81308 0.0
C568 C 0.73312 0.78651 0.88919 0.0
C569 C 0.72766 0.80893 0.91376 0.0
C570 C 0.7303 0.79551 0.85727 0.0
C571 C 0.72216 0.82769 0.84986 0.0
C572 C 0.71575 0.8501 0.87466 0.0
C573 C 0.71837 0.84039 0.90612 0.0
C574 C 0.73729 0.77076 0.83178 0.0
C575 C 0.70714 0.88482 0.8681 0.0
H576 H 0.76556 0.89155 0.7743 0.0
H577 H 0.66415 0.87603 0.77139 0.0
H578 H 0.78158 0.86056 0.84272 0.0
H579 H 0.78704 0.82306 0.82228 0.0
H580 H 0.80089 0.8593 0.80448 0.0
H581 H 0.64289 0.82808 0.79474 0.0
H582 H 0.66789 0.8027 0.81955 0.0
H583 H 0.65194 0.84032 0.83447 0.0
H584 H 0.74051 0.76215 0.8948 0.0
H585 H 0.71387 0.85788 0.92485 0.0
H586 H 0.76315 0.77122 0.82508 0.0
H587 H 0.72288 0.77548 0.81026 0.0
H588 H 0.73239 0.74636 0.84034 0.0
H589 H 0.72667 0.89566 0.85416 0.0
H590 H 0.70326 0.89915 0.89013 0.0
H591 H 0.68484 0.88667 0.85394 0.0
C592 C 0.19089 0.31517 0.088 0.0
C593 C 0.19649 0.29491 0.06186 0.0
C594 C 0.16906 0.30732 0.11171 0.0
C595 C 0.15263 0.27845 0.10913 0.0
C596 C 0.1615 0.25594 0.08515 0.0
C597 C 0.18328 0.26463 0.06138 0.0
C598 C 0.16112 0.33146 0.13764 0.0
C599 C 0.14611 0.22389 0.08327 0.0
C600 C 0.09321 0.26544 0.17589 0.0
C601 C 0.06467 0.27818 0.16282 0.0
C602 C 0.12202 0.26403 0.15839 0.0
C603 C 0.12217 0.27554 0.12705 0.0
C604 C 0.09334 0.28808 0.11361 0.0
C605 C 0.06497 0.28923 0.13166 0.0
C606 C 0.1518 0.24969 0.17357 0.0
C607 C 0.09259 0.30109 0.08034 0.0
H608 H 0.20193 0.33826 0.08888 0.0
H609 H 0.18828 0.2486 0.04163 0.0
H610 H 0.13663 0.34208 0.13387 0.0
H611 H 0.1611 0.31968 0.16104 0.0
H612 H 0.17846 0.35107 0.1382 0.0
H613 H 0.15947 0.20719 0.06688 0.0
H614 H 0.14494 0.21299 0.10708 0.0
H615 H 0.12108 0.22709 0.07472 0.0
H616 H 0.09305 0.25612 0.19972 0.0
H617 H 0.04297 0.29883 0.1213 0.0
H618 H 0.15087 0.25291 0.19968 0.0
H619 H 0.17419 0.26015 0.16449 0.0
H620 H 0.153 0.22363 0.16845 0.0
H621 H 0.1086 0.3217 0.07858 0.0
H622 H 0.06798 0.30907 0.07316 0.0
H623 H 0.10168 0.28257 0.06327 0.0
C624 C 0.74868 0.42665 0.36726 0.0
C625 C 0.73932 0.43359 0.33631 0.0
C626 C 0.74788 0.39558 0.37894 0.0
C627 C 0.7366 0.37073 0.35941 0.0
C628 C 0.72857 0.37723 0.32752 0.0
C629 C 0.73034 0.40872 0.31618 0.0
C630 C 0.75802 0.38975 0.41274 0.0
C631 C 0.71661 0.35159 0.30578 0.0
C632 C 0.75543 0.29539 0.40352 0.0
C633 C 0.72971 0.29673 0.42519 0.0
C634 C 0.75623 0.31674 0.37807 0.0
C635 C 0.73049 0.33936 0.37429 0.0
C636 C 0.70206 0.33653 0.39266 0.0
C637 C 0.70219 0.31551 0.4183 0.0
C638 C 0.78654 0.31804 0.35835 0.0
C639 C 0.67338 0.35906 0.38841 0.0
H640 H 0.75659 0.44575 0.38253 0.0
H641 H 0.72353 0.41406 0.29206 0.0
H642 H 0.73685 0.3832 0.42719 0.0
H643 H 0.77601 0.36961 0.41373 0.0
H644 H 0.76868 0.4111 0.42373 0.0
H645 H 0.72186 0.35711 0.28063 0.0
H646 H 0.72744 0.32775 0.31134 0.0
H647 H 0.69012 0.35033 0.30865 0.0
H648 H 0.77662 0.2807 0.40861 0.0
H649 H 0.68203 0.31618 0.43482 0.0
H650 H 0.80201 0.33683 0.36801 0.0
H651 H 0.78094 0.32408 0.33347 0.0
H652 H 0.80036 0.29491 0.3588 0.0
H653 H 0.67826 0.38238 0.39978 0.0
H654 H 0.65129 0.34962 0.39942 0.0
H655 H 0.66891 0.36336 0.36294 0.0
C656 C 0.54876 0.97336 0.59424 0.0
C657 C 0.54456 0.9845 0.56347 0.0
C658 C 0.57536 0.98206 0.61186 0.0
C659 C 0.5984 0.00181 0.59785 0.0
C660 C 0.592 0.01626 0.56829 0.0
C661 C 0.56481 0.00745 0.55135 0.0
C662 C 0.5807 0.96698 0.6438 0.0
C663 C 0.61478 0.03882 0.55296 0.0
C664 C 0.66716 0.01766 0.65255 0.0
C665 C 0.68847 0.99215 0.64451 0.0
C666 C 0.6387 0.02299 0.63572 0.0
C667 C 0.63115 0.00153 0.61119 0.0
C668 C 0.6537 0.97697 0.60173 0.0
C669 C 0.68243 0.97272 0.61847 0.0
C670 C 0.61629 0.0507 0.64492 0.0
C671 C 0.64675 0.95424 0.57492 0.0
H672 H 0.53269 0.95571 0.60349 0.0
H673 H 0.56145 0.01592 0.52742 0.0
H674 H 0.60035 0.94843 0.64186 0.0
H675 H 0.58814 0.98509 0.66132 0.0
H676 H 0.55872 0.95559 0.65289 0.0
H677 H 0.62208 0.02957 0.52916 0.0
H678 H 0.60185 0.06209 0.54958 0.0
H679 H 0.63667 0.04295 0.56697 0.0
H680 H 0.67261 0.03318 0.67233 0.0
H681 H 0.69937 0.95337 0.61223 0.0
H682 H 0.59573 0.0418 0.65882 0.0
H683 H 0.60639 0.06258 0.62355 0.0
H684 H 0.62859 0.06871 0.65952 0.0
H685 H 0.62547 0.94011 0.58103 0.0
H686 H 0.6674 0.93744 0.56964 0.0
H687 H 0.64094 0.9679 0.55321 0.0
C688 C 0.98367 0.94454 0.92036 0.0
C689 C 0.00498 0.9683 0.91195 0.0
C690 C 0.97691 0.91982 0.89886 0.0
C691 C 0.99232 0.91884 0.86875 0.0
C692 C 0.00975 0.94539 0.85874 0.0
C693 C 0.016 0.96974 0.88054 0.0
C694 C 0.95636 0.89295 0.90972 0.0
C695 C 0.0253 0.94613 0.82637 0.0
C696 C 0.03036 0.83848 0.84562 0.0
C697 C 0.01006 0.82787 0.82179 0.0
C698 C 0.02472 0.86803 0.8607 0.0
C699 C -0.00219 0.88762 0.85198 0.0
C700 C 0.97744 0.87738 0.82742 0.0
C701 C 0.98404 0.84766 0.81234 0.0
C702 C 0.04731 0.87787 0.88659 0.0
C703 C 0.94851 0.89729 0.81716 0.0
H704 H 0.97479 0.94339 0.94439 0.0
H705 H 0.03185 0.9886 0.87367 0.0
H706 H 0.94315 0.8824 0.8897 0.0
H707 H 0.97204 0.87387 0.92007 0.0
H708 H 0.93865 0.90134 0.92807 0.0
H709 H 0.03291 0.9705 0.82017 0.0
H710 H 0.04692 0.9298 0.82589 0.0
H711 H 0.00853 0.93772 0.80808 0.0
H712 H 0.05041 0.82316 0.85305 0.0
H713 H 0.96792 0.83924 0.79436 0.0
H714 H 0.03382 0.88094 0.90926 0.0
H715 H 0.05784 0.90114 0.88081 0.0
H716 H 0.06732 0.86004 0.89014 0.0
H717 H 0.956 0.91383 0.7983 0.0
H718 H 0.93785 0.91181 0.83694 0.0
H719 H 0.92965 0.88202 0.80727 0.0
C720 C 0.03887 0.11474 0.02136 0.0
C721 C 0.02325 0.10697 0.99329 0.0
C722 C 0.0584 0.14142 0.02284 0.0
C723 C 0.06217 0.16038 -0.00449 0.0
C724 C 0.04127 0.15615 0.96965 0.0
C725 C 0.02256 0.12886 0.96845 0.0
C726 C 0.07927 0.14571 0.05145 0.0
C727 C 0.04286 0.17716 0.94094 0.0
C728 C 0.13321 0.21644 -0.00561 0.0
C729 C 0.15739 0.19611 0.98107 0.0
C730 C 0.10145 0.20593 -0.0017 0.0
C731 C 0.09417 0.17427 0.98931 0.0
C732 C 0.11837 0.15426 0.97487 0.0
C733 C 0.14925 0.1656 0.97057 0.0
C734 C 0.07619 0.22846 0.01271 0.0
C735 C 0.1122 0.12025 0.96469 0.0
H736 H 0.0393 0.09775 0.0406 0.0
H737 H 0.01028 0.1229 0.94677 0.0
H738 H 0.10385 0.13569 0.04624 0.0
H739 H 0.08136 0.1714 0.05732 0.0
H740 H 0.0696 0.13325 0.07242 0.0
H741 H 0.0199 0.17713 0.92769 0.0
H742 H 0.04819 0.20209 0.9477 0.0
H743 H 0.06241 0.16798 0.92488 0.0
H744 H 0.13919 0.24011 0.00252 0.0
H745 H 0.16745 0.14985 0.95963 0.0
H746 H 0.0744 0.22414 0.03849 0.0
H747 H 0.05215 0.22469 0.00238 0.0
H748 H 0.0825 0.2538 0.00937 0.0
H749 H 0.10316 0.10641 0.985 0.0
H750 H 0.13417 0.10757 0.95518 0.0
H751 H 0.09363 0.12015 0.94603 0.0
C752 C 0.69145 0.61573 0.29574 0.0
C753 C 0.69222 0.58295 0.28919 0.0
C754 C 0.66793 0.63618 0.28255 0.0
C755 C 0.64409 0.62333 0.26279 0.0
C756 C 0.64761 0.59101 0.25259 0.0
C757 C 0.67158 0.57096 0.26625 0.0
C758 C 0.66627 0.67076 0.2931 0.0
C759 C 0.62428 0.57691 0.22968 0.0
C760 C 0.5673 0.66107 0.29395 0.0
C761 C 0.56514 0.68897 0.27604 0.0
C762 C 0.59039 0.6369 0.28692 0.0
C763 C 0.6122 0.6409 0.26136 0.0
C764 C 0.60683 0.66678 0.24034 0.0
C765 C 0.58319 0.69071 0.24801 0.0
C766 C 0.59414 0.60937 0.30965 0.0
C767 C 0.62792 0.67115 0.21162 0.0
H768 H 0.70777 0.625 0.31317 0.0
H769 H 0.67214 0.54556 0.26111 0.0
H770 H 0.66283 0.68664 0.27248 0.0
H771 H 0.64538 0.67491 0.30937 0.0
H772 H 0.6884 0.67768 0.30561 0.0
H773 H 0.63451 0.55475 0.2183 0.0
H774 H 0.60186 0.57083 0.2424 0.0
H775 H 0.61769 0.59439 0.21104 0.0
H776 H 0.55276 0.65942 0.3153 0.0
H777 H 0.58092 0.71189 0.23367 0.0
H778 H 0.61616 0.61229 0.32392 0.0
H779 H 0.59685 0.58637 0.2966 0.0
H780 H 0.57324 0.608 0.32612 0.0
H781 H 0.61389 0.68241 0.19218 0.0
H782 H 0.63893 0.64812 0.20305 0.0
H783 H 0.64749 0.6874 0.21769 0.0
C784 C 0.30029 0.82747 0.47018 0.0
C785 C 0.26845 0.8371 0.47737 0.0
C786 C 0.32567 0.84774 0.47642 0.0
C787 C 0.31897 0.87783 0.49105 0.0
C788 C 0.28689 0.8877 0.49828 0.0
C789 C 0.26197 0.86736 0.49097 0.0
C790 C 0.35962 0.83693 0.46752 0.0
C791 C 0.27898 0.91921 0.51473 0.0
C792 C 0.38875 0.91152 0.53568 0.0
C793 C 0.3993 0.93449 0.51451 0.0
C794 C 0.36158 0.89386 0.52896 0.0
C795 C 0.34565 0.89854 0.49981 0.0
C796 C 0.35582 0.92231 0.4787 0.0
C797 C 0.38227 0.94046 0.48663 0.0
C798 C 0.35065 0.86942 0.55248 0.0
C799 C 0.33992 0.9274 0.44708 0.0
H800 H 0.30541 0.80413 0.45975 0.0
H801 H 0.23742 0.87479 0.49701 0.0
H802 H 0.36978 0.8539 0.45035 0.0
H803 H 0.37519 0.83695 0.48868 0.0
H804 H 0.36077 0.81258 0.45684 0.0
H805 H 0.25265 0.92351 0.51823 0.0
H806 H 0.29071 0.91965 0.53819 0.0
H807 H 0.28854 0.93922 0.50086 0.0
H808 H 0.40219 0.90692 0.55713 0.0
H809 H 0.39096 0.95786 0.46998 0.0
H810 H 0.35459 0.84504 0.5424 0.0
H811 H 0.32448 0.87284 0.55741 0.0
H812 H 0.3638 0.87085 0.57518 0.0
H813 H 0.34197 0.90506 0.43278 0.0
H814 H 0.35093 0.94688 0.43349 0.0
H815 H 0.31389 0.93331 0.45042 0.0
C816 C 0.11096 0.67889 0.79998 0.0
C817 C 0.08282 0.68684 0.78351 0.0
C818 C 0.13451 0.65796 0.78717 0.0
C819 C 0.13012 0.64459 0.75665 0.0
C820 C 0.10261 0.65392 0.73891 0.0
C821 C 0.07923 0.67522 0.75257 0.0
C822 C 0.16332 0.64898 0.8073 0.0
C823 C 0.09684 0.64031 0.70638 0.0
C824 C 0.21161 0.60884 0.74106 0.0
C825 C 0.20813 0.57993 0.75685 0.0
C826 C 0.18447 0.62862 0.7348 0.0
C827 C 0.15378 0.61937 0.74549 0.0
C828 C 0.14994 0.58774 0.75613 0.0
C829 C 0.17737 0.56837 0.76191 0.0
C830 C 0.18934 0.66151 0.72186 0.0
C831 C 0.11757 0.57629 0.7666 0.0
H832 H 0.11419 0.68828 0.82368 0.0
H833 H 0.05778 0.68163 0.73955 0.0
H834 H 0.16444 0.62282 0.81132 0.0
H835 H 0.18589 0.65539 0.79508 0.0
H836 H 0.16255 0.66118 0.83075 0.0
H837 H 0.11974 0.63423 0.69366 0.0
H838 H 0.08331 0.61812 0.70865 0.0
H839 H 0.08202 0.65712 0.69192 0.0
H840 H 0.2355 0.61775 0.73715 0.0
H841 H 0.17484 0.54579 0.77394 0.0
H842 H 0.1932 0.67843 0.7417 0.0
H843 H 0.16798 0.67019 0.70853 0.0
H844 H 0.21086 0.66157 0.7062 0.0
H845 H 0.11102 0.58718 0.78992 0.0
H846 H 0.11767 0.54987 0.76889 0.0
H847 H 0.09884 0.58371 0.74952 0.0
C848 C 0.87548 0.27514 0.51515 0.0
C849 C 0.85139 0.29627 0.50395 0.0
C850 C 0.90754 0.2846 0.51709 0.0
C851 C 0.91538 0.31568 0.50732 0.0
C852 C 0.89157 0.33587 0.49334 0.0
C853 C 0.85984 0.32597 0.49202 0.0
C854 C 0.93237 0.26222 0.53157 0.0
C855 C 0.89906 0.36891 0.48171 0.0
C856 C 0.97342 0.36977 0.54613 0.0
C857 C -0.00391 0.37303 0.52178 0.0
C858 C 0.94888 0.34787 0.54338 0.0
C859 C 0.94678 0.32932 0.51535 0.0
C860 C 0.9718 0.32981 0.49243 0.0
C861 C -0.00359 0.35167 0.49602 0.0
C862 C 0.92307 0.34751 0.56876 0.0
C863 C 0.97064 0.31017 0.46238 0.0
H864 H 0.86901 0.252 0.52408 0.0
H865 H 0.84136 0.34197 0.48253 0.0
H866 H 0.95588 0.26347 0.51904 0.0
H867 H 0.93611 0.26936 0.55657 0.0
H868 H 0.92459 0.23709 0.53116 0.0
H869 H 0.90471 0.38451 0.50213 0.0
H870 H 0.92046 0.36784 0.46581 0.0
H871 H 0.8786 0.38022 0.46874 0.0
H872 H 0.97343 0.38605 0.56623 0.0
H873 H 0.01393 0.35415 0.47709 0.0
H874 H 0.91637 0.32267 0.57398 0.0
H875 H 0.90118 0.36062 0.56032 0.0
H876 H 0.9309 0.35906 0.59104 0.0
H877 H 0.96031 0.2865 0.46675 0.0
H878 H -0.00502 0.30659 0.45156 0.0
H879 H 0.95506 0.32288 0.44505 0.0
C880 C 0.33352 0.94732 0.23964 0.0
C881 C 0.30683 0.9322 0.22729 0.0
C882 C 0.36038 0.92909 0.25004 0.0
C883 C 0.36046 0.89536 0.24697 0.0
C884 C 0.33137 0.88034 0.23953 0.0
C885 C 0.30495 0.89905 0.22932 0.0
C886 C 0.38999 0.9458 0.26069 0.0
C887 C 0.32964 0.84443 0.23757 0.0
C888 C 0.42554 0.85551 0.19725 0.0
C889 C 0.43705 0.83129 0.21718 0.0
C890 C 0.40257 0.87832 0.20768 0.0
C891 C 0.39121 0.8775 0.2394 0.0
C892 C 0.40589 0.85568 0.26086 0.0
C893 C 0.42857 0.83243 0.24936 0.0
C894 C 0.38842 0.90131 0.18364 0.0
C895 C 0.39658 0.85541 0.29539 0.0
H896 H 0.33467 0.9731 0.23841 0.0
H897 H 0.28388 0.88756 0.22023 0.0
H898 H 0.39842 0.93531 0.28323 0.0
H899 H 0.40971 0.94215 0.24302 0.0
H900 H 0.3854 0.97189 0.26414 0.0
H901 H 0.30444 0.83662 0.23557 0.0
H902 H 0.34347 0.83543 0.21654 0.0
H903 H 0.3405 0.83331 0.2588 0.0
H904 H 0.43298 0.85543 0.17258 0.0
H905 H 0.43819 0.81438 0.26514 0.0
H906 H 0.39122 0.92632 0.19163 0.0
H907 H 0.36231 0.89741 0.18092 0.0
H908 H 0.40009 0.89851 0.15997 0.0
H909 H 0.41811 0.85014 0.31008 0.0
H910 H 0.37946 0.8361 0.29964 0.0
H911 H 0.38519 0.87849 0.30332 0.0
C912 C 0.38425 0.44815 0.72652 0.0
C913 C 0.35099 0.45142 0.73115 0.0
C914 C 0.40193 0.42278 0.74002 0.0
C915 C 0.38564 0.39982 0.75817 0.0
C916 C 0.35312 0.40621 0.76721 0.0
C917 C 0.3359 0.43177 0.75304 0.0
C918 C 0.43697 0.41804 0.73072 0.0
C919 C 0.33528 0.38424 0.78877 0.0
C920 C 0.41359 0.32306 0.72078 0.0
C921 C 0.44241 0.31726 0.73691 0.0
C922 C 0.39183 0.34739 0.73049 0.0
C923 C 0.39911 0.36634 0.75722 0.0
C924 C 0.425 0.3566 0.7769 0.0
C925 C 0.44682 0.33208 0.76633 0.0
C926 C 0.3633 0.35521 0.70968 0.0
C927 C 0.43045 0.37338 0.80795 0.0
H928 H 0.39595 0.46374 0.70993 0.0
H929 H 0.31013 0.434 0.75653 0.0
H930 H 0.45166 0.41168 0.75161 0.0
H931 H 0.43965 0.3981 0.71331 0.0
H932 H 0.4468 0.4398 0.71991 0.0
H933 H 0.32194 0.39856 0.80717 0.0
H934 H 0.31711 0.37131 0.77503 0.0
H935 H 0.35156 0.36662 0.80061 0.0
H936 H 0.40939 0.31042 0.69877 0.0
H937 H 0.46824 0.32633 0.77972 0.0
H938 H 0.36627 0.3788 0.6984 0.0
H939 H 0.34087 0.3566 0.72408 0.0
H940 H 0.36036 0.33708 0.69068 0.0
H941 H 0.43371 0.39924 0.8041 0.0
H942 H 0.45166 0.36317 0.82059 0.0
H943 H 0.40877 0.37135 0.82326 0.0
C944 C 0.12553 0.75481 0.54756 0.0
C945 C 0.15586 0.76653 0.54089 0.0
C946 C 0.11607 0.74894 0.5788 0.0
C947 C 0.13727 0.75593 0.60387 0.0
C948 C 0.1692 0.76449 0.59686 0.0
C949 C 0.17813 0.76986 0.56524 0.0
C950 C 0.08224 0.73829 0.58504 0.0
C951 C 0.19293 0.77111 0.62266 0.0
C952 C 0.08494 0.79091 0.66901 0.0
C953 C 0.07866 0.76361 0.68652 0.0
C954 C 0.10749 0.78971 0.64416 0.0
C955 C 0.12352 0.76024 0.63633 0.0
C956 C 0.12019 0.73371 0.65647 0.0
C957 C 0.09786 0.73581 0.68171 0.0
C958 C 0.11093 0.81892 0.62384 0.0
C959 C 0.13789 0.70239 0.6495 0.0
H960 H 0.10847 0.75221 0.52851 0.0
H961 H 0.20155 0.77927 0.55993 0.0
H962 H 0.08234 0.71871 0.60255 0.0
H963 H 0.06746 0.75858 0.59507 0.0
H964 H 0.07054 0.72984 0.56312 0.0
H965 H 0.21814 0.76863 0.61375 0.0
H966 H 0.18879 0.79595 0.63148 0.0
H967 H 0.1899 0.75479 0.64291 0.0
H968 H 0.06994 0.81235 0.67273 0.0
H969 H 0.09287 0.71471 0.69531 0.0
H970 H 0.09798 0.81549 0.60128 0.0
H971 H 0.13661 0.82255 0.61797 0.0
H972 H 0.10081 0.84087 0.63568 0.0
H973 H 0.16418 0.7057 0.65117 0.0
H974 H 0.13291 0.69411 0.62508 0.0
H975 H 0.13112 0.68345 0.66618 0.0
C976 C 0.21759 0.90079 0.33629 0.0
C977 C 0.21791 0.91105 0.30492 0.0
C978 C 0.21248 0.86891 0.34363 0.0
C979 C 0.2068 0.84667 0.31889 0.0
C980 C 0.20829 0.85658 0.287 0.0
C981 C 0.21426 0.88871 0.28036 0.0
C982 C 0.21233 0.85943 0.37812 0.0
C983 C 0.20372 0.8336 0.25985 0.0
C984 C 0.21347 0.77174 0.36304 0.0
C985 C 0.1835 0.77495 0.37859 0.0
C986 C 0.22046 0.79158 0.33748 0.0
C987 C 0.19673 0.81424 0.32768 0.0
C988 C 0.16442 0.81092 0.33761 0.0
C989 C 0.1581 0.79125 0.3634 0.0
C990 C 0.25459 0.79251 0.32529 0.0
C991 C 0.13779 0.83276 0.32554 0.0
H992 H 0.22125 0.91781 0.35528 0.0
H993 H 0.21512 0.89648 0.25597 0.0
H994 H 0.18809 0.85154 0.38512 0.0
H995 H 0.2298 0.83927 0.38202 0.0
H996 H 0.21872 0.8794 0.39409 0.0
H997 H 0.22727 0.82168 0.25384 0.0
H998 H 0.18659 0.81479 0.26591 0.0
H999 H 0.19501 0.84627 0.23842 0.0
H1000 H 0.23289 0.75777 0.37362 0.0
H1001 H 0.13438 0.79244 0.37438 0.0
H1002 H 0.26721 0.81182 0.33772 0.0
H1003 H 0.25505 0.79774 0.29961 0.0
H1004 H 0.26795 0.76954 0.32951 0.0
H1005 H 0.13797 0.85583 0.33867 0.0
H1006 H 0.11385 0.82225 0.32915 0.0
H1007 H 0.14129 0.83774 0.30001 0.0
C1008 C 0.97405 0.64409 0.67238 0.0
C1009 C 0.98835 0.65452 0.70039 0.0
C1010 C 0.9781 0.61246 0.66174 0.0
C1011 C -0.00304 0.59038 0.67951 0.0
C1012 C 0.01044 0.60023 0.70847 0.0
C1013 C 0.00588 0.63221 0.71867 0.0
C1014 C 0.96294 0.60303 0.63078 0.0
C1015 C 0.03026 0.57721 0.72819 0.0
C1016 C 0.97834 0.50902 0.64835 0.0
C1017 C -0.00076 0.50733 0.62209 0.0
C1018 C 0.98003 0.53404 0.67055 0.0
C1019 C 0.00327 0.55765 0.66629 0.0
C1020 C 0.02759 0.55297 0.64284 0.0
C1021 C 0.02519 0.52788 0.62089 0.0
C1022 C 0.95381 0.53776 0.69537 0.0
C1023 C 0.05311 0.57726 0.63764 0.0
H1024 H 0.96019 0.66089 0.65816 0.0
H1025 H 0.01679 0.63987 0.74051 0.0
H1026 H 0.98202 0.59614 0.61323 0.0
H1027 H 0.94774 0.58203 0.63421 0.0
H1028 H 0.94777 0.62268 0.62065 0.0
H1029 H 0.03909 0.58862 0.75013 0.0
H1030 H 0.01573 0.55653 0.73485 0.0
H1031 H 0.0512 0.56763 0.71419 0.0
H1032 H 0.95829 0.49313 0.64945 0.0
H1033 H 0.0411 0.52732 0.60041 0.0
H1034 H 0.93413 0.55354 0.68614 0.0
H1035 H 0.9628 0.54888 0.71732 0.0
H1036 H 0.94353 0.51436 0.70125 0.0
H1037 H 0.04238 0.59824 0.62524 0.0
H1038 H 0.07344 0.56733 0.62291 0.0
H1039 H 0.06259 0.58579 0.66052 0.0
C1040 C 0.30409 0.69886 0.38514 0.0
C1041 C 0.28959 0.71887 0.40829 0.0
C1042 C 0.32591 0.7106 0.36306 0.0
C1043 C 0.33357 0.74325 0.36421 0.0
C1044 C 0.31567 0.76439 0.38467 0.0
C1045 C 0.29377 0.75186 0.40665 0.0
C1046 C 0.34363 0.68717 0.34118 0.0
C1047 C 0.32172 0.79967 0.38535 0.0
C1048 C 0.42338 0.75006 0.35442 0.0
C1049 C 0.42681 0.7561 0.32197 0.0
C1050 C 0.39302 0.74817 0.36872 0.0
C1051 C 0.36497 0.75256 0.35027 0.0
C1052 C 0.36806 0.76056 0.31788 0.0
C1053 C 0.39899 0.76209 0.30403 0.0
C1054 C 0.39111 0.73962 0.40337 0.0
C1055 C 0.33879 0.7672 0.29784 0.0
H1056 H 0.30017 0.67339 0.38569 0.0
H1057 H 0.28183 0.76752 0.42382 0.0
H1058 H 0.34507 0.69682 0.31688 0.0
H1059 H 0.36863 0.68313 0.34966 0.0
H1060 H 0.33188 0.66374 0.34014 0.0
H1061 H 0.32692 0.80855 0.36124 0.0
H1062 H 0.30078 0.81357 0.39551 0.0
H1063 H 0.343 0.80411 0.40018 0.0
H1064 H 0.44457 0.74584 0.36874 0.0
H1065 H 0.40132 0.76767 0.27914 0.0
H1066 H 0.38025 0.7159 0.40597 0.0
H1067 H 0.37549 0.75734 0.41641 0.0
H1068 H 0.41512 0.73866 0.41472 0.0
H1069 H 0.3214 0.74781 0.30019 0.0
H1070 H 0.34513 0.76987 0.27243 0.0
H1071 H 0.32644 0.78966 0.3062 0.0
C1072 C 0.2349 0.07758 0.14612 0.0
C1073 C 0.24809 0.0727 0.17612 0.0
C1074 C 0.23806 0.10652 0.13035 0.0
C1075 C 0.25511 0.13137 0.14485 0.0
C1076 C 0.26607 0.12765 0.17632 0.0
C1077 C 0.26237 0.09821 0.19172 0.0
C1078 C 0.22506 0.10953 0.09718 0.0
C1079 C 0.28346 0.15382 0.19303 0.0
C1080 C 0.2957 0.17233 0.07782 0.0
C1081 C 0.27173 0.19501 0.06961 0.0
C1082 C 0.29279 0.15409 0.10528 0.0
C1083 C 0.26507 0.1585 0.12479 0.0
C1084 C 0.24327 0.18448 0.119 0.0
C1085 C 0.2469 0.20256 0.09136 0.0
C1086 C 0.31717 0.12724 0.1109 0.0
C1087 C 0.21404 0.19084 0.13975 0.0
H1088 H 0.22292 0.0582 0.1344 0.0
H1089 H 0.27217 0.09465 0.21515 0.0
H1090 H 0.20992 0.13171 0.09504 0.0
H1091 H 0.24535 0.11102 0.08004 0.0
H1092 H 0.21038 0.08892 0.09035 0.0
H1093 H 0.28168 0.15141 0.21914 0.0
H1094 H 0.30932 0.15228 0.18624 0.0
H1095 H 0.27377 0.1778 0.18629 0.0
H1096 H 0.31527 0.16681 0.06129 0.0
H1097 H 0.22845 0.22024 0.0853 0.0
H1098 H 0.30677 0.10421 0.1038 0.0
H1099 H 0.32326 0.12573 0.13633 0.0
H1100 H 0.33969 0.13027 0.09702 0.0
H1101 H 0.19448 0.17514 0.13223 0.0
H1102 H 0.20517 0.21602 0.13762 0.0
H1103 H 0.21932 0.18575 0.16493 0.0
C1104 C 0.82188 0.71136 0.93554 0.0
C1105 C 0.79147 0.70251 0.92567 0.0
C1106 C 0.84627 0.7166 0.91332 0.0
C1107 C 0.83964 0.71331 0.88065 0.0
C1108 C 0.80831 0.70619 0.87063 0.0
C1109 C 0.78458 0.70041 0.89343 0.0
C1110 C 0.87965 0.72361 0.9248 0.0
C1111 C 0.80049 0.70274 0.83601 0.0
C1112 C 0.90439 0.74431 0.82681 0.0
C1113 C 0.92422 0.71681 0.8231 0.0
C1114 C 0.87573 0.7434 0.84448 0.0
C1115 C 0.8665 0.71405 0.85752 0.0
C1116 C 0.88532 0.68575 0.85157 0.0
C1117 C 0.91439 0.68762 0.83486 0.0
C1118 C 0.85645 0.77406 0.85081 0.0
C1119 C 0.87599 0.65393 0.86482 0.0
H1120 H 0.82721 0.71201 0.96057 0.0
H1121 H 0.76091 0.69327 0.88611 0.0
H1122 H 0.89678 0.70393 0.91758 0.0
H1123 H 0.88812 0.74581 0.91379 0.0
H1124 H 0.88056 0.72625 0.95094 0.0
H1125 H 0.77443 0.6993 0.83213 0.0
H1126 H 0.80786 0.72419 0.82291 0.0
H1127 H 0.81425 0.6819 0.82576 0.0
H1128 H 0.91253 0.76695 0.81799 0.0
H1129 H 0.93008 0.66654 0.83202 0.0
H1130 H 0.8513 0.77709 0.87649 0.0
H1131 H 0.83294 0.7731 0.8387 0.0
H1132 H 0.86917 0.79537 0.84246 0.0
H1133 H 0.87862 0.65426 0.89092 0.0
H1134 H 0.89119 0.63381 0.85499 0.0
H1135 H 0.85041 0.64941 0.85969 0.0
C1136 C 0.29241 0.62166 0.68657 0.0
C1137 C 0.30129 0.59418 0.66879 0.0
C1138 C 0.28514 0.65095 0.67161 0.0
C1139 C 0.28646 0.65254 0.63818 0.0
C1140 C 0.29727 0.62535 0.62037 0.0
C1141 C 0.3049 0.59679 0.6359 0.0
C1142 C 0.27593 0.67999 0.69149 0.0
C1143 C 0.29898 0.6257 0.58459 0.0
C1144 C 0.23317 0.69927 0.58353 0.0
C1145 C 0.25667 0.715 0.56633 0.0
C1146 C 0.2416 0.68169 0.61047 0.0
C1147 C 0.27399 0.68107 0.62079 0.0
C1148 C 0.29604 0.70198 0.60689 0.0
C1149 C 0.28733 0.71817 0.57915 0.0
C1150 C 0.21725 0.65979 0.62453 0.0
C1151 C 0.33019 0.70351 0.61834 0.0
H1152 H 0.29028 0.6201 0.71208 0.0
H1153 H 0.31199 0.57591 0.62184 0.0
H1154 H 0.29618 0.69659 0.69135 0.0
H1155 H 0.25472 0.69308 0.68161 0.0
H1156 H 0.27061 0.67365 0.71643 0.0
H1157 H 0.30771 0.60241 0.57439 0.0
H1158 H 0.2748 0.63147 0.57484 0.0
H1159 H 0.3154 0.64437 0.5765 0.0
H1160 H 0.20946 0.69686 0.57342 0.0
H1161 H 0.30549 0.73044 0.56575 0.0
H1162 H 0.21686 0.66215 0.65063 0.0
H1163 H 0.22416 0.63459 0.61858 0.0
H1164 H 0.19262 0.66487 0.6155 0.0
H1165 H 0.33114 0.70149 0.64447 0.0
H1166 H 0.34127 0.72614 0.61112 0.0
H1167 H 0.3448 0.68331 0.60794 0.0
C1168 C 0.33593 0.0398 0.31525 0.0
C1169 C 0.32291 0.01074 0.3067 0.0
C1170 C 0.36106 0.04067 0.33698 0.0
C1171 C 0.37269 0.01173 0.35058 0.0
C1172 C 0.36299 0.98215 0.3382 0.0
C1173 C 0.3377 0.982 0.31648 0.0
C1174 C 0.37157 0.07277 0.34882 0.0
C1175 C 0.37626 0.9509 0.35095 0.0
C1176 C 0.43117 0.02719 0.41646 0.0
C1177 C 0.40951 0.03254 0.44168 0.0
C1178 C 0.42009 0.01759 0.38668 0.0
C1179 C 0.38678 0.01322 0.38259 0.0
C1180 C 0.36545 0.01588 0.40898 0.0
C1181 C 0.37712 0.0259 0.43818 0.0
C1182 C 0.44355 0.01399 0.3593 0.0
C1183 C 0.32972 0.01108 0.40585 0.0
H1184 H 0.32418 0.06193 0.30767 0.0
H1185 H 0.32725 0.95953 0.30991 0.0
H1186 H 0.36005 0.07805 0.37218 0.0
H1187 H 0.39803 0.07264 0.35201 0.0
H1188 H 0.36458 0.0923 0.33237 0.0
H1189 H 0.40293 0.95108 0.35176 0.0
H1190 H 0.36734 0.94762 0.37549 0.0
H1191 H 0.36898 0.93019 0.3364 0.0
H1192 H 0.45626 0.03278 0.41937 0.0
H1193 H 0.3606 0.03014 0.45792 0.0
H1194 H 0.46757 0.02308 0.36521 0.0
H1195 H 0.43444 0.02686 0.33819 0.0
H1196 H 0.44638 0.98835 0.35269 0.0
H1197 H 0.31873 0.03082 0.39181 0.0
H1198 H 0.31727 0.01062 0.42922 0.0
H1199 H 0.32528 0.98835 0.39323 0.0
C1200 C 0.85917 0.79168 0.96448 0.0
C1201 C 0.8475 0.78172 -0.00613 0.0
C1202 C 0.88591 0.81128 0.96273 0.0
C1203 C 0.90004 0.82178 0.99115 0.0
C1204 C 0.89278 0.80597 0.01971 0.0
C1205 C 0.86625 0.78608 0.02078 0.0
C1206 C 0.89465 0.82568 0.93137 0.0
C1207 C 0.90861 0.81494 0.05029 0.0
C1208 C 0.95071 0.8965 -0.00389 0.0
C1209 C 0.9265 0.92011 0.00186 0.0
C1210 C 0.94284 0.8642 0.99162 0.0
C1211 C 0.91012 0.85558 0.99322 0.0
C1212 C 0.88575 0.87969 -0.00185 0.0
C1213 C 0.89427 0.91134 0.00223 0.0
C1214 C 0.96961 0.83958 0.98596 0.0
C1215 C 0.85036 0.87227 -0.0002 0.0
H1216 H 0.8448 0.78814 0.94353 0.0
H1217 H 0.85735 0.77817 0.04352 0.0
H1218 H 0.88062 0.84846 0.92832 0.0
H1219 H 0.92063 0.83097 0.9303 0.0
H1220 H 0.8889 0.80945 0.91145 0.0
H1221 H 0.90618 0.79597 0.0683 0.0
H1222 H 0.93452 0.81932 0.04641 0.0
H1223 H 0.89691 0.8373 0.05978 0.0
H1224 H 0.9757 0.90311 -0.0045 0.0
H1225 H 0.87527 0.92941 0.00588 0.0
H1226 H 0.96171 0.81942 0.97106 0.0
H1227 H 0.97753 0.8298 0.00903 0.0
H1228 H 0.99076 0.85038 0.97448 0.0
H1229 H 0.84286 0.86079 0.97746 0.0
H1230 H 0.83467 0.89398 0.00376 0.0
H1231 H 0.84592 0.85556 0.01945 0.0
C1232 C 0.6712 0.15894 0.53407 0.0
C1233 C 0.67927 0.17763 0.50815 0.0
C1234 C 0.64141 0.14449 0.53578 0.0
C1235 C 0.61976 0.1481 0.51028 0.0
C1236 C 0.62713 0.16867 0.48492 0.0
C1237 C 0.65699 0.18333 0.48418 0.0
C1238 C 0.63468 0.12386 0.56404 0.0
C1239 C 0.60422 0.17381 0.45781 0.0
C1240 C 0.56364 0.08055 0.49294 0.0
C1241 C 0.53474 0.09262 0.50627 0.0
C1242 C 0.5916 0.09846 0.49407 0.0
C1243 C 0.59047 0.12893 0.50903 0.0
C1244 C 0.56148 0.14095 0.52294 0.0
C1245 C 0.53397 0.12268 0.52136 0.0
C1246 C 0.62245 0.08468 0.47965 0.0
C1247 C 0.55967 0.17285 0.53992 0.0
H1248 H 0.68878 0.15457 0.5525 0.0
H1249 H 0.66369 0.19761 0.46402 0.0
H1250 H 0.60872 0.11958 0.56757 0.0
H1251 H 0.64777 0.10053 0.56077 0.0
H1252 H 0.644 0.13496 0.58594 0.0
H1253 H 0.61231 0.19258 0.44139 0.0
H1254 H 0.60217 0.15116 0.44427 0.0
H1255 H 0.57982 0.18074 0.46693 0.0
H1256 H 0.56433 0.05731 0.4814 0.0
H1257 H 0.51183 0.13189 0.53235 0.0
H1258 H 0.64152 0.08349 0.49785 0.0
H1259 H 0.63087 0.10047 0.46054 0.0
H1260 H 0.61953 0.06033 0.46967 0.0
H1261 H 0.56844 0.19186 0.52421 0.0
H1262 H 0.57555 0.17197 0.56088 0.0
H1263 H 0.53481 0.17958 0.54796 0.0
C1264 C 0.86668 0.44522 0.24666 0.0
C1265 C 0.8346 0.45046 0.25608 0.0
C1266 C 0.88357 0.41704 0.25446 0.0
C1267 C 0.8681 0.39379 0.27289 0.0
C1268 C 0.83795 0.40184 0.28738 0.0
C1269 C 0.82107 0.42999 0.27823 0.0
C1270 C 0.91545 0.41009 0.2379 0.0
C1271 C 0.82177 0.37928 0.30955 0.0
C1272 C 0.88592 0.32128 0.2247 0.0
C1273 C 0.91662 0.31261 0.23583 0.0
C1274 C 0.86673 0.34465 0.24012 0.0
C1275 C 0.87854 0.35976 0.26752 0.0
C1276 C 0.9065 0.34664 0.2822 0.0
C1277 C 0.92573 0.32336 0.26583 0.0
C1278 C 0.83585 0.35599 0.22456 0.0
C1279 C 0.91693 0.35817 0.31421 0.0
H1280 H 0.87742 0.46151 0.23008 0.0
H1281 H 0.7964 0.43402 0.28593 0.0
H1282 H 0.92753 0.43246 0.23153 0.0
H1283 H 0.93197 0.39542 0.25262 0.0
H1284 H 0.9112 0.39654 0.21573 0.0
H1285 H 0.81 0.39287 0.32942 0.0
H1286 H 0.80255 0.36685 0.2968 0.0
H1287 H 0.83903 0.36118 0.3193 0.0
H1288 H 0.87779 0.31158 0.20241 0.0
H1289 H 0.94849 0.31522 0.2756 0.0
H1290 H 0.83891 0.38012 0.21447 0.0
H1291 H 0.81596 0.35774 0.24219 0.0
H1292 H 0.82866 0.33972 0.20517 0.0
H1293 H 0.90863 0.38317 0.31921 0.0
H1294 H 0.94348 0.35601 0.31665 0.0
H1295 H 0.90614 0.34286 0.33252 0.0
C1296 C 0.02907 0.59707 0.53689 0.0
C1297 C 0.01647 0.57847 0.51265 0.0
C1298 C 0.05428 0.61761 0.53053 0.0
C1299 C 0.06668 0.61934 0.49925 0.0
C1300 C 0.05173 0.60287 0.47432 0.0
C1301 C 0.0269 0.58233 0.48142 0.0
C1302 C 0.06957 0.63478 0.55779 0.0
C1303 C 0.06391 0.60452 0.44062 0.0
C1304 C 0.12762 0.68092 0.47778 0.0
C1305 C 0.15673 0.66291 0.47946 0.0
C1306 C 0.0981 0.66721 0.48449 0.0
C1307 C 0.09765 0.63472 0.49309 0.0
C1308 C 0.12683 0.61632 0.49474 0.0
C1309 C 0.15605 0.63062 0.48776 0.0
C1310 C 0.06745 0.6875 0.48266 0.0
C1311 C 0.12719 0.58158 0.50421 0.0
H1312 H 0.02131 0.59339 0.56113 0.0
H1313 H 0.01717 0.56751 0.46288 0.0
H1314 H 0.09139 0.62093 0.56526 0.0
H1315 H 0.07714 0.65892 0.55084 0.0
H1316 H 0.05292 0.6372 0.57845 0.0
H1317 H 0.04694 0.59397 0.42361 0.0
H1318 H 0.06788 0.62963 0.43385 0.0
H1319 H 0.08739 0.59121 0.43847 0.0
H1320 H 0.12784 0.70598 0.47155 0.0
H1321 H 0.1784 0.61666 0.48951 0.0
H1322 H 0.05502 0.68813 0.50602 0.0
H1323 H 0.05081 0.67687 0.46545 0.0
H1324 H 0.07197 0.71243 0.47548 0.0
H1325 H 0.11586 0.57924 0.52792 0.0
H1326 H 0.15196 0.57079 0.50492 0.0
H1327 H 0.11287 0.56765 0.48729 0.0
C1328 C 0.67606 0.06888 0.741 0.0
C1329 C 0.65839 0.04106 0.74224 0.0
C1330 C 0.66039 0.09871 0.73642 0.0
C1331 C 0.62638 0.10035 0.7341 0.0
C1332 C 0.60968 0.07187 0.7292 0.0
C1333 C 0.6259 0.04236 0.7338 0.0
C1334 C 0.6793 0.12871 0.73943 0.0
C1335 C 0.57375 0.07264 0.72467 0.0
C1336 C 0.5896 0.15295 0.79861 0.0
C1337 C 0.5777 0.17963 0.78219 0.0
C1338 C 0.60478 0.12713 0.78295 0.0
C1339 C 0.60871 0.12786 0.7496 0.0
C1340 C 0.5965 0.15459 0.73254 0.0
C1341 C 0.58069 0.18012 0.7491 0.0
C1342 C 0.61696 0.09921 0.80256 0.0
C1343 C 0.59973 0.15628 0.69703 0.0
H1344 H 0.70108 0.068 0.74787 0.0
H1345 H 0.61235 0.02067 0.73432 0.0
H1346 H 0.67464 0.14409 0.71863 0.0
H1347 H 0.67146 0.14246 0.76087 0.0
H1348 H 0.7056 0.12352 0.74109 0.0
H1349 H 0.56146 0.07863 0.7475 0.0
H1350 H 0.56659 0.09131 0.7074 0.0
H1351 H 0.5653 0.04917 0.7163 0.0
H1352 H 0.58706 0.1521 0.82413 0.0
H1353 H 0.57132 0.20052 0.73623 0.0
H1354 H 0.64348 0.09625 0.8 0.0
H1355 H 0.60612 0.07679 0.79436 0.0
H1356 H 0.61118 0.10234 0.82814 0.0
H1357 H 0.62293 0.14526 0.68856 0.0
H1358 H 0.59787 0.18136 0.68866 0.0
H1359 H 0.57998 0.14301 0.68607 0.0
C1360 C 0.75511 0.61807 0.21784 0.0
C1361 C 0.78497 0.60152 0.21871 0.0
C1362 C 0.74974 0.64261 0.19586 0.0
C1363 C 0.7749 0.65048 0.17476 0.0
C1364 C 0.80647 0.63808 0.18006 0.0
C1365 C 0.81109 0.61332 0.2018 0.0
C1366 C 0.71603 0.65642 0.19213 0.0
C1367 C 0.83437 0.64711 0.15926 0.0
C1368 C 0.7569 0.64921 0.08741 0.0
C1369 C 0.75917 0.68139 0.07904 0.0
C1370 C 0.76061 0.63938 0.1187 0.0
C1371 C 0.76695 0.66225 0.14257 0.0
C1372 C 0.76815 0.69498 0.13465 0.0
C1373 C 0.76444 0.70417 0.10289 0.0
C1374 C 0.75844 0.60418 0.12598 0.0
C1375 C 0.7742 0.72031 0.15926 0.0
H1376 H 0.7349 0.60922 0.2312 0.0
H1377 H 0.83436 0.60088 0.20298 0.0
H1378 H 0.71623 0.68138 0.18354 0.0
H1379 H 0.7031 0.64192 0.17454 0.0
H1380 H 0.70244 0.65587 0.21488 0.0
H1381 H 0.85786 0.64082 0.17032 0.0
H1382 H 0.83312 0.63409 0.13634 0.0
H1383 H 0.83328 0.67309 0.15427 0.0
H1384 H 0.75233 0.6314 0.06941 0.0
H1385 H 0.7658 0.7292 0.09682 0.0
H1386 H 0.74015 0.60058 0.14479 0.0
H1387 H 0.78193 0.59472 0.13475 0.0
H1388 H 0.75187 0.58982 0.10493 0.0
H1389 H 0.76471 0.71377 0.18288 0.0
H1390 H 0.76311 0.74373 0.1524 0.0
H1391 H 0.80053 0.72326 0.16129 0.0
C1392 C 0.9025 0.46412 0.46385 0.0
C1393 C 0.92885 0.48134 0.47368 0.0
C1394 C 0.89054 0.46775 0.43314 0.0
C1395 C 0.90526 0.48943 0.41232 0.0
C1396 C 0.93474 0.50284 0.42068 0.0
C1397 C 0.94566 0.49952 0.45175 0.0
C1398 C 0.85957 0.45206 0.4247 0.0
C1399 C 0.95239 0.52414 0.39829 0.0
C1400 C 0.85675 0.50377 0.33804 0.0
C1401 C 0.83514 0.52815 0.34883 0.0
C1402 C 0.88185 0.49229 0.35735 0.0
C1403 C 0.88503 0.50547 0.38804 0.0
C1404 C 0.86543 0.53236 0.39749 0.0
C1405 C 0.84088 0.54345 0.37765 0.0
C1406 C 0.90301 0.46454 0.34568 0.0
C1407 C 0.86835 0.54776 0.4298 0.0
H1408 H 0.88944 0.4503 0.48102 0.0
H1409 H 0.96551 0.51366 0.4596 0.0
H1410 H 0.83944 0.47018 0.42556 0.0
H1411 H 0.861 0.4421 0.40033 0.0
H1412 H 0.85386 0.43255 0.44129 0.0
H1413 H 0.95177 0.51451 0.37377 0.0
H1414 H 0.9405 0.54827 0.39835 0.0
H1415 H 0.97787 0.52665 0.40534 0.0
H1416 H 0.85262 0.49188 0.31563 0.0
H1417 H 0.8246 0.56264 0.38578 0.0
H1418 H 0.92718 0.46449 0.35659 0.0
H1419 H 0.90588 0.46507 0.31952 0.0
H1420 H 0.89156 0.4418 0.35175 0.0
H1421 H 0.86268 0.53025 0.44845 0.0
H1422 H 0.85184 0.569 0.43295 0.0
H1423 H 0.89332 0.55537 0.43357 0.0
C1424 C 0.1805 0.51639 0.6834 0.0
C1425 C 0.20431 0.49251 0.67731 0.0
C1426 C 0.15169 0.5173 0.66617 0.0
C1427 C 0.14713 0.49397 0.64232 0.0
C1428 C 0.16979 0.46811 0.63852 0.0
C1429 C 0.19799 0.46769 0.65618 0.0
C1430 C 0.12735 0.54428 0.67205 0.0
C1431 C 0.16578 0.44222 0.61382 0.0
C1432 C 0.0792 0.47182 0.59049 0.0
C1433 C 0.09041 0.48347 0.56164 0.0
C1434 C 0.09438 0.4797 0.61887 0.0
C1435 C 0.12211 0.49837 0.61779 0.0
C1436 C 0.13088 0.51328 0.5891 0.0
C1437 C 0.11499 0.50535 0.5612 0.0
C1438 C 0.08311 0.46484 0.64921 0.0
C1439 C 0.15995 0.53385 0.58689 0.0
H1440 H 0.18528 0.53556 0.69991 0.0
H1441 H 0.21612 0.44884 0.652 0.0
H1442 H 0.12986 0.56266 0.65354 0.0
H1443 H 0.10248 0.53553 0.67092 0.0
H1444 H 0.13079 0.5559 0.69542 0.0
H1445 H 0.18494 0.42313 0.61504 0.0
H1446 H 0.14216 0.43103 0.61684 0.0
H1447 H 0.16647 0.45276 0.58983 0.0
H1448 H 0.06037 0.45451 0.59068 0.0
H1449 H 0.12357 0.51415 0.53868 0.0
H1450 H 0.09649 0.44179 0.65277 0.0
H1451 H 0.05702 0.45996 0.64834 0.0
H1452 H 0.0876 0.48052 0.66988 0.0
H1453 H 0.16052 0.55081 0.60713 0.0
H1454 H 0.16033 0.54765 0.56457 0.0
H1455 H 0.18215 0.51839 0.58768 0.0
C1456 C 0.58097 0.78063 0.14056 0.0
C1457 C 0.57854 0.77101 0.17217 0.0
C1458 C 0.61072 0.78228 0.1253 0.0
C1459 C 0.63913 0.77382 0.14187 0.0
C1460 C 0.63715 0.76392 0.17375 0.0
C1461 C 0.60678 0.76302 0.18874 0.0
C1462 C 0.6116 0.79354 0.09137 0.0
C1463 C 0.6669 0.75379 0.19176 0.0
C1464 C 0.70113 0.76201 0.0781 0.0
C1465 C 0.71184 0.79321 0.07534 0.0
C1466 C 0.68138 0.75348 0.10357 0.0
C1467 C 0.67042 0.77735 0.12537 0.0
C1468 C 0.68368 0.80797 0.12446 0.0
C1469 C 0.70448 0.81543 0.09958 0.0
C1470 C 0.67049 0.71956 0.10601 0.0
C1471 C 0.6731 0.83404 0.14757 0.0
H1472 H 0.55945 0.78719 0.12752 0.0
H1473 H 0.60522 0.75585 0.21321 0.0
H1474 H 0.62511 0.81589 0.08981 0.0
H1475 H 0.62423 0.77538 0.07609 0.0
H1476 H 0.58716 0.7982 0.08166 0.0
H1477 H 0.6618 0.75079 0.21739 0.0
H1478 H 0.67649 0.73065 0.18205 0.0
H1479 H 0.68605 0.77139 0.18886 0.0
H1480 H 0.70658 0.74471 0.05972 0.0
H1481 H 0.7133 0.83946 0.09815 0.0
H1482 H 0.64386 0.71906 0.10691 0.0
H1483 H 0.67953 0.70903 0.12836 0.0
H1484 H 0.67951 0.70428 0.08598 0.0
H1485 H 0.64905 0.84383 0.14066 0.0
H1486 H 0.69011 0.85395 0.14782 0.0
H1487 H 0.67091 0.82452 0.17187 0.0
C1488 C 0.66524 0.48155 0.22037 0.0
C1489 C 0.68899 0.49697 0.20304 0.0
C1490 C 0.636 0.474 0.20623 0.0
C1491 C 0.63065 0.48252 0.17435 0.0
C1492 C 0.6536 0.50058 0.15784 0.0
C1493 C 0.68264 0.50725 0.17233 0.0
C1494 C 0.61204 0.45522 0.22482 0.0
C1495 C 0.64841 0.51133 0.12414 0.0
C1496 C 0.59302 0.43879 0.1088 0.0
C1497 C 0.5692 0.46149 0.10048 0.0
C1498 C 0.61016 0.4423 0.13685 0.0
C1499 C 0.60369 0.46959 0.15618 0.0
C1500 C 0.57606 0.48927 0.15061 0.0
C1501 C 0.55884 0.48485 0.12268 0.0
C1502 C 0.63844 0.41974 0.14301 0.0
C1503 C 0.56766 0.51794 0.17129 0.0
H1504 H 0.67016 0.47394 0.24435 0.0
H1505 H 0.70079 0.51996 0.15935 0.0
H1506 H 0.58695 0.46064 0.21734 0.0
H1507 H 0.61724 0.42932 0.22087 0.0
H1508 H 0.61395 0.46013 0.25059 0.0
H1509 H 0.66743 0.5274 0.11585 0.0
H1510 H 0.6484 0.4902 0.10812 0.0
H1511 H 0.62475 0.52415 0.122 0.0
H1512 H 0.60036 0.42015 0.09202 0.0
H1513 H 0.53994 0.50214 0.11661 0.0
H1514 H 0.64071 0.41493 0.16866 0.0
H1515 H 0.66092 0.43085 0.13487 0.0
H1516 H 0.6362 0.39668 0.13015 0.0
H1517 H 0.57399 0.5135 0.19634 0.0
H1518 H 0.54161 0.52455 0.1699 0.0
H1519 H 0.58142 0.5386 0.16302 0.0
C1520 C 0.46888 0.38209 -0.00118 0.0
C1521 C 0.46077 0.39953 0.02638 0.0
C1522 C 0.45202 0.35452 0.99101 0.0
C1523 C 0.42637 0.34529 0.01085 0.0
C1524 C 0.42297 0.35909 0.04143 0.0
C1525 C 0.44035 0.38612 0.04885 0.0
C1526 C 0.45882 0.3379 0.95981 0.0
C1527 C 0.39727 0.34882 0.06431 0.0
C1528 C 0.34291 0.34202 0.97859 0.0
C1529 C 0.33378 0.31167 0.98817 0.0
C1530 C 0.37429 0.35204 0.98282 0.0
C1531 C 0.39742 0.331 -0.00321 0.0
C1532 C 0.38943 0.29894 0.00275 0.0
C1533 C 0.35748 0.28961 -0.00147 0.0
C1534 C 0.38162 0.38625 0.97493 0.0
C1535 C 0.41372 0.27488 0.0154 0.0
H1536 H 0.48563 0.39165 0.98187 0.0
H1537 H 0.43506 0.39897 0.07078 0.0
H1538 H 0.45134 0.31269 0.96029 0.0
H1539 H 0.4453 0.35043 0.94083 0.0
H1540 H 0.48487 0.33838 0.95379 0.0
H1541 H 0.4003 0.35933 0.08828 0.0
H1542 H 0.3732 0.35655 0.05545 0.0
H1543 H 0.39777 0.32244 0.06632 0.0
H1544 H 0.32499 0.35871 0.96919 0.0
H1545 H 0.35082 0.26572 0.00504 0.0
H1546 H 0.40272 0.38691 0.95874 0.0
H1547 H 0.38755 0.39954 -0.00318 0.0
H1548 H 0.36107 0.39905 0.96343 0.0
H1549 H 0.43887 0.28243 0.01209 0.0
H1550 H 0.41102 0.25139 0.00349 0.0
H1551 H 0.40909 0.27136 0.04101 0.0
C1552 C 0.06217 0.16854 0.24722 0.0
C1553 C 0.07698 0.19779 0.25113 0.0
C1554 C 0.08064 0.14072 0.23978 0.0
C1555 C 0.11457 0.14243 0.2375 0.0
C1556 C 0.12848 0.17276 0.23542 0.0
C1557 C 0.10948 0.20022 0.24281 0.0
C1558 C 0.06462 0.10896 0.24008 0.0
C1559 C 0.16433 0.17574 0.2312 0.0
C1560 C 0.15722 0.0891 0.29641 0.0
C1561 C 0.17388 0.06654 0.27726 0.0
C1562 C 0.13793 0.11345 0.28351 0.0
C1563 C 0.13465 0.1154 0.25021 0.0
C1564 C 0.15098 0.09241 0.23045 0.0
C1565 C 0.17068 0.06827 0.24428 0.0
C1566 C 0.12141 0.13733 0.30594 0.0
C1567 C 0.14833 0.09347 0.19491 0.0
H1568 H 0.03698 0.16664 0.25369 0.0
H1569 H 0.12089 0.22295 0.24582 0.0
H1570 H 0.07673 0.09198 0.22316 0.0
H1571 H 0.06643 0.09857 0.2641 0.0
H1572 H 0.03871 0.1116 0.23406 0.0
H1573 H 0.1708 0.20058 0.22557 0.0
H1574 H 0.17665 0.16864 0.25337 0.0
H1575 H 0.17349 0.15956 0.212 0.0
H1576 H 0.15948 0.08806 0.32191 0.0
H1577 H 0.18336 0.05087 0.22932 0.0
H1578 H 0.09491 0.13648 0.30346 0.0
H1579 H 0.12867 0.1619 0.30032 0.0
H1580 H 0.12729 0.13268 0.3311 0.0
H1581 H 0.12425 0.10264 0.18745 0.0
H1582 H 0.15307 0.06948 0.18409 0.0
H1583 H 0.16664 0.1096 0.18538 0.0
C1584 C 0.2492 0.31026 0.88296 0.0
C1585 C 0.22119 0.31466 0.90137 0.0
C1586 C 0.25615 0.33148 0.85847 0.0
C1587 C 0.23418 0.35713 0.85214 0.0
C1588 C 0.20347 0.35806 0.86698 0.0
C1589 C 0.1974 0.33689 0.89168 0.0
C1590 C 0.28878 0.32895 0.8426 0.0
C1591 C 0.17876 0.38422 0.86001 0.0
C1592 C 0.26557 0.44038 0.84393 0.0
C1593 C 0.26072 0.44659 0.81183 0.0
C1594 C 0.25855 0.41069 0.85679 0.0
C1595 C 0.24583 0.38666 0.83715 0.0
C1596 C 0.24217 0.39226 0.80439 0.0
C1597 C 0.24975 0.42221 0.79206 0.0
C1598 C 0.2638 0.40548 0.89174 0.0
C1599 C 0.22887 0.36736 0.78257 0.0
H1600 H 0.26751 0.293 0.89017 0.0
H1601 H 0.17546 0.34005 0.90563 0.0
H1602 H 0.2873 0.33555 0.8173 0.0
H1603 H 0.3052 0.34561 0.85436 0.0
H1604 H 0.29941 0.30438 0.84439 0.0
H1605 H 0.15439 0.37811 0.86859 0.0
H1606 H 0.18568 0.40661 0.87202 0.0
H1607 H 0.17771 0.38891 0.83425 0.0
H1608 H 0.27464 0.45893 0.85917 0.0
H1609 H 0.24605 0.42688 0.76715 0.0
H1610 H 0.27879 0.38343 0.89548 0.0
H1611 H 0.24031 0.40231 0.90383 0.0
H1612 H 0.27581 0.42581 0.90319 0.0
H1613 H 0.23744 0.34293 0.78905 0.0
H1614 H 0.23558 0.37174 0.75751 0.0
H1615 H 0.20221 0.36825 0.7845 0.0
C1616 C 0.30157 0.20271 0.88223 0.0
C1617 C 0.29582 0.22016 0.91026 0.0
C1618 C 0.32429 0.21254 0.86001 0.0
C1619 C 0.3419 0.24013 0.86642 0.0
C1620 C 0.33264 0.26028 0.89219 0.0
C1621 C 0.30978 0.24982 0.91404 0.0
C1622 C 0.33252 0.19108 0.83203 0.0
C1623 C 0.3495 0.2909 0.89892 0.0
C1624 C 0.43138 0.22593 0.85637 0.0
C1625 C 0.4379 0.24174 0.8281 0.0
C1626 C 0.40029 0.22581 0.86902 0.0
C1627 C 0.37482 0.24191 0.85297 0.0
C1628 C 0.38109 0.2579 0.82427 0.0
C1629 C 0.41269 0.25762 0.81214 0.0
C1630 C 0.39482 0.20826 0.89967 0.0
C1631 C 0.35504 0.27618 0.80676 0.0
H1632 H 0.2901 0.18008 0.87874 0.0
H1633 H 0.30475 0.26387 0.93498 0.0
H1634 H 0.33732 0.20541 0.81064 0.0
H1635 H 0.35469 0.17661 0.83722 0.0
H1636 H 0.31289 0.1745 0.82686 0.0
H1637 H 0.33338 0.30821 0.91204 0.0
H1638 H 0.37085 0.28563 0.91382 0.0
H1639 H 0.3578 0.30217 0.87675 0.0
H1640 H 0.45072 0.21355 0.86879 0.0
H1641 H 0.41771 0.27034 0.79051 0.0
H1642 H 0.37698 0.18946 0.89616 0.0
H1643 H 0.38502 0.22512 0.91802 0.0
H1644 H 0.41729 0.19676 0.90885 0.0
H1645 H 0.33124 0.26527 0.80957 0.0
H1646 H 0.36089 0.27771 0.78112 0.0
H1647 H 0.3532 0.30094 0.81634 0.0
C1648 C 0.46935 0.52175 0.91557 0.0
C1649 C 0.44614 0.51635 0.93916 0.0
C1650 C 0.46021 0.52752 0.88412 0.0
C1651 C 0.42722 0.52703 0.87613 0.0
C1652 C 0.40394 0.52033 0.8997 0.0
C1653 C 0.41367 0.51544 0.93083 0.0
C1654 C 0.48597 0.53372 0.85975 0.0
C1655 C 0.36846 0.51876 0.89228 0.0
C1656 C 0.37676 0.57098 0.81851 0.0
C1657 C 0.36563 0.54511 0.80108 0.0
C1658 C 0.40225 0.56662 0.83963 0.0
C1659 C 0.41562 0.53548 0.84409 0.0
C1660 C 0.40832 0.51078 0.82253 0.0
C1661 C 0.3833 0.51597 0.80093 0.0
C1662 C 0.41115 0.59413 0.86071 0.0
C1663 C 0.4232 0.47761 0.82552 0.0
H1664 H 0.49463 0.52184 0.92169 0.0
H1665 H 0.39562 0.51057 0.94868 0.0
H1666 H 0.4936 0.51074 0.84824 0.0
H1667 H 0.47719 0.55024 0.8411 0.0
H1668 H 0.50755 0.54384 0.87086 0.0
H1669 H 0.35396 0.51107 0.9129 0.0
H1670 H 0.35903 0.54262 0.8849 0.0
H1671 H 0.36475 0.50177 0.87247 0.0
H1672 H 0.3636 0.59378 0.81794 0.0
H1673 H 0.37506 0.49602 0.78701 0.0
H1674 H 0.43729 0.59301 0.86591 0.0
H1675 H 0.39777 0.59272 0.88349 0.0
H1676 H 0.40487 0.6175 0.84972 0.0
H1677 H 0.42085 0.46353 0.8033 0.0
H1678 H 0.41081 0.46487 0.84482 0.0
H1679 H 0.44904 0.47864 0.83161 0.0
C1680 C 0.62786 0.70119 0.96838 0.0
C1681 C 0.64535 0.71514 0.99274 0.0
C1682 C 0.6013 0.68269 0.97541 0.0
C1683 C 0.59211 0.67882 0.00743 0.0
C1684 C 0.60428 0.69975 0.03055 0.0
C1685 C 0.63153 0.71745 0.02309 0.0
C1686 C 0.58728 0.66274 0.9494 0.0
C1687 C 0.59198 0.69936 0.06417 0.0
C1688 C 0.5411 0.60546 0.01657 0.0
C1689 C 0.56524 0.58179 0.02148 0.0
C1690 C 0.5487 0.63798 0.01491 0.0
C1691 C 0.58128 0.64674 0.01719 0.0
C1692 C 0.60525 0.62301 0.02436 0.0
C1693 C 0.5968 0.59113 0.02682 0.0
C1694 C 0.5218 0.66233 0.00963 0.0
C1695 C 0.64046 0.63065 0.02738 0.0
H1696 H 0.638 0.70037 0.94462 0.0
H1697 H 0.64434 0.72917 0.04185 0.0
H1698 H 0.59632 0.63759 0.95152 0.0
H1699 H 0.56067 0.66298 0.95149 0.0
H1700 H 0.59396 0.67148 0.92556 0.0
H1701 H 0.59374 0.7233 0.07537 0.0
H1702 H 0.56654 0.69205 0.06526 0.0
H1703 H 0.60678 0.68208 0.07806 0.0
H1704 H 0.51644 0.59864 0.01309 0.0
H1705 H 0.6155 0.5732 0.03164 0.0
H1706 H 0.51298 0.65998 0.98506 0.0
H1707 H 0.52925 0.68722 0.01368 0.0
H1708 H 0.50122 0.65752 0.02568 0.0
H1709 H 0.64927 0.64143 0.00518 0.0
H1710 H 0.65593 0.60915 0.03231 0.0
H1711 H 0.64367 0.64808 0.04687 0.0
C1712 C 0.90391 0.79719 0.75257 0.0
C1713 C 0.93227 0.80647 0.73769 0.0
C1714 C 0.87891 0.81984 0.75928 0.0
C1715 C 0.88252 0.85214 0.75046 0.0
C1716 C 0.91304 0.86199 0.73973 0.0
C1717 C 0.93745 0.83891 0.73317 0.0
C1718 C 0.84772 0.80883 0.77318 0.0
C1719 C 0.91857 0.89624 0.73089 0.0
C1720 C 0.81997 0.89451 0.70101 0.0
C1721 C 0.81244 0.9217 0.71933 0.0
C1722 C 0.84028 0.87001 0.71239 0.0
C1723 C 0.85365 0.87283 0.74301 0.0
C1724 C 0.84325 0.89869 0.76297 0.0
C1725 C 0.82276 0.92309 0.75076 0.0
C1726 C 0.84989 0.84268 0.69026 0.0
C1727 C 0.85542 0.90211 0.79626 0.0
H1728 H 0.90005 0.77198 0.75607 0.0
H1729 H 0.9595 0.84595 0.72161 0.0
H1730 H 0.84352 0.82111 0.79623 0.0
H1731 H 0.82717 0.81543 0.75771 0.0
H1732 H 0.84805 0.78261 0.77704 0.0
H1733 H 0.94452 0.90068 0.72701 0.0
H1734 H 0.90548 0.90199 0.70877 0.0
H1735 H 0.90917 0.91275 0.74968 0.0
H1736 H 0.81176 0.89349 0.67675 0.0
H1737 H 0.81695 0.94421 0.76498 0.0
H1738 H 0.84587 0.81947 0.70184 0.0
H1739 H 0.87592 0.84363 0.6843 0.0
H1740 H 0.83612 0.84337 0.66787 0.0
H1741 H 0.86379 0.87884 0.80615 0.0
H1742 H 0.83625 0.91277 0.81195 0.0
H1743 H 0.87578 0.91859 0.79639 0.0
C1744 C 0.48952 0.15146 0.71433 0.0
C1745 C 0.49993 0.17581 0.69446 0.0
C1746 C 0.48158 0.12148 0.7017 0.0
C1747 C 0.48397 0.11608 0.66857 0.0
C1748 C 0.49745 0.13964 0.64906 0.0
C1749 C 0.50529 0.16903 0.66227 0.0
C1750 C 0.46888 0.09662 0.72371 0.0
C1751 C 0.50152 0.13484 0.61369 0.0
C1752 C 0.47662 0.04494 0.61513 0.0
C1753 C 0.4473 0.05334 0.60058 0.0
C1754 C 0.48733 0.06241 0.64132 0.0
C1755 C 0.46832 0.08873 0.65287 0.0
C1756 C 0.43646 0.09344 0.6418 0.0
C1757 C 0.42628 0.07558 0.61577 0.0
C1758 C 0.52048 0.05517 0.6541 0.0
C1759 C 0.41479 0.12041 0.6543 0.0
H1760 H 0.48601 0.15627 0.73939 0.0
H1761 H 0.5145 0.18733 0.64695 0.0
H1762 H 0.44272 0.10135 0.72771 0.0
H1763 H 0.47243 0.07206 0.71395 0.0
H1764 H 0.48082 0.09792 0.74706 0.0
H1765 H 0.51366 0.15504 0.60225 0.0
H1766 H 0.51594 0.11262 0.60851 0.0
H1767 H 0.47761 0.13239 0.60262 0.0
H1768 H 0.4928 0.02717 0.60416 0.0
H1769 H 0.40314 0.0815 0.6053 0.0
H1770 H 0.52018 0.05747 0.68025 0.0
H1771 H 0.5376 0.0726 0.64469 0.0
H1772 H 0.52947 0.03074 0.64735 0.0
H1773 H 0.41538 0.12136 0.6805 0.0
H1774 H 0.38946 0.11794 0.64673 0.0
H1775 H 0.42347 0.14347 0.64534 0.0
C1776 C 0.52505 0.36354 0.81394 0.0
C1777 C 0.54436 0.33795 0.82518 0.0
C1778 C 0.52266 0.39287 0.83074 0.0
C1779 C 0.53956 0.39624 0.85948 0.0
C1780 C 0.56076 0.37123 0.86951 0.0
C1781 C 0.56327 0.34285 0.85199 0.0
C1782 C 0.50131 0.41971 0.8184 0.0
C1783 C 0.5799 0.37365 0.89969 0.0
C1784 C 0.56636 0.46427 0.90807 0.0
C1785 C 0.54848 0.45926 0.93578 0.0
C1786 C 0.55976 0.44776 0.88006 0.0
C1787 C 0.53538 0.42504 0.88025 0.0
C1788 C 0.51386 0.42413 0.90651 0.0
C1789 C 0.52068 0.44146 0.9342 0.0
C1790 C 0.5822 0.45101 0.85209 0.0
C1791 C 0.48657 0.40135 0.90709 0.0
H1792 H 0.51086 0.36031 0.79289 0.0
H1793 H 0.57902 0.32367 0.86046 0.0
H1794 H 0.47928 0.42223 0.8333 0.0
H1795 H 0.5136 0.44278 0.81974 0.0
H1796 H 0.49408 0.41535 0.79355 0.0
H1797 H 0.59464 0.35162 0.90442 0.0
H1798 H 0.59631 0.39394 0.89828 0.0
H1799 H 0.5634 0.37813 0.92017 0.0
H1800 H 0.58727 0.47906 0.90895 0.0
H1801 H 0.5063 0.43836 0.95537 0.0
H1802 H 0.56976 0.44657 0.82945 0.0
H1803 H 0.60245 0.43319 0.85401 0.0
H1804 H 0.59247 0.47516 0.85151 0.0
H1805 H 0.47394 0.40129 0.88413 0.0
H1806 H 0.46884 0.40752 0.9262 0.0
H1807 H 0.49647 0.37679 0.91107 0.0
C1808 C 0.50382 0.87255 0.28683 0.0
C1809 C 0.52907 0.8518 0.29639 0.0
C1810 C 0.49742 0.90165 0.30303 0.0
C1811 C 0.5161 0.90939 0.3297 0.0
C1812 C 0.54455 0.89099 0.33592 0.0
C1813 C 0.55087 0.86264 0.31886 0.0
C1814 C 0.46869 0.92222 0.29371 0.0
C1815 C 0.56598 0.89871 0.36342 0.0
C1816 C 0.5085 0.97332 0.39367 0.0
C1817 C 0.49109 0.95675 0.41637 0.0
C1818 C 0.51356 0.96018 0.3631 0.0
C1819 C 0.50187 0.92948 0.35592 0.0
C1820 C 0.48141 0.91457 0.37798 0.0
C1821 C 0.47598 0.9287 0.40766 0.0
C1822 C 0.53303 0.97839 0.33951 0.0
C1823 C 0.46803 0.88193 0.37185 0.0
H1824 H 0.48733 0.86491 0.26879 0.0
H1825 H 0.57117 0.84726 0.32551 0.0
H1826 H 0.44706 0.91439 0.30665 0.0
H1827 H 0.4722 0.94774 0.29966 0.0
H1828 H 0.46396 0.91985 0.26799 0.0
H1829 H 0.58794 0.88285 0.36408 0.0
H1830 H 0.57355 0.92377 0.36201 0.0
H1831 H 0.55251 0.89607 0.38601 0.0
H1832 H 0.51966 0.99543 0.40022 0.0
H1833 H 0.46183 0.91638 0.42518 0.0
H1834 H 0.53023 0.96936 0.31497 0.0
H1835 H 0.55886 0.97661 0.34589 0.0
H1836 H 0.52567 0.00414 0.34037 0.0
H1837 H 0.45276 0.8825 0.35054 0.0
H1838 H 0.45321 0.87354 0.39195 0.0
H1839 H 0.48798 0.86409 0.3675 0.0
C1840 C 0.4691 0.53257 0.12751 0.0
C1841 C 0.47745 0.539 0.09607 0.0
C1842 C 0.47652 0.55382 0.152 0.0
C1843 C 0.49159 0.58263 0.14455 0.0
C1844 C 0.50367 0.5871 0.11342 0.0
C1845 C 0.49633 0.56514 0.08943 0.0
C1846 C 0.46468 0.54723 0.18507 0.0
C1847 C 0.52044 0.61711 0.10421 0.0
C1848 C 0.45411 0.65921 0.17795 0.0
C1849 C 0.47881 0.6707 0.19674 0.0
C1850 C 0.45749 0.62977 0.16225 0.0
C1851 C 0.48625 0.61099 0.16571 0.0
C1852 C 0.51011 0.62108 0.187 0.0
C1853 C 0.50607 0.65096 0.2024 0.0
C1854 C 0.43114 0.62001 0.14008 0.0
C1855 C 0.54058 0.60128 0.19214 0.0
H1856 H 0.45479 0.51202 0.13267 0.0
H1857 H 0.50242 0.57035 0.06513 0.0
H1858 H 0.48154 0.5562 0.203 0.0
H1859 H 0.44098 0.55971 0.18901 0.0
H1860 H 0.46161 0.52126 0.18874 0.0
H1861 H 0.53782 0.61223 0.08451 0.0
H1862 H 0.50223 0.63511 0.096 0.0
H1863 H 0.53355 0.62758 0.12429 0.0
H1864 H 0.43289 0.67435 0.17381 0.0
H1865 H 0.52526 0.65983 0.21689 0.0
H1866 H 0.42278 0.59596 0.14627 0.0
H1867 H 0.4406 0.61875 0.11543 0.0
H1868 H 0.41003 0.63701 0.14079 0.0
H1869 H 0.55719 0.61305 0.20867 0.0
H1870 H 0.55332 0.59673 0.16928 0.0
H1871 H 0.53449 0.57774 0.20197 0.0
loop_
_geom_bond_atom_site_label_1
_geom_bond_atom_site_label_2
_geom_bond_distance
_geom_bond_site_symmetry_2
_ccdc_geom_bond_type
O0 Mn1 2.163 1_656 S
O0 C14 1.244 . S
Mn1 O0 2.163 1_454 S
Mn1 O4 2.160 1_545 S
Mn1 O5 2.221 1_544 S
Mn1 O7 2.166 . S
Mn1 O9 2.160 1_445 S
Mn1 O19 2.221 1_455 S
O2 Mn3 2.087 1_556 S
O2 C14 1.256 . S
Mn3 O2 2.087 1_554 S
Mn3 O10 2.089 1_545 S
Mn3 O19 2.290 . S
Mn3 O20 2.251 . S
O4 Mn1 2.160 1_565 S
O4 C15 1.239 . S
O5 Mn1 2.221 1_566 S
O5 Mn6 2.290 . S
O5 C16 1.278 . S
Mn6 O5 2.290 . S
Mn6 O8 2.089 1_556 S
Mn6 O11 2.251 . S
Mn6 O12 2.087 1_565 S
O7 Mn1 2.166 . S
O7 C17 1.237 1_554 S
O8 Mn6 2.089 1_554 S
O8 C15 1.256 . S
O9 Mn1 2.160 1_665 S
O9 C18 1.239 . S
O10 Mn3 2.089 1_565 S
O10 C18 1.256 . S
O11 Mn6 2.251 . S
O11 C16 1.241 . S
O12 Mn6 2.087 1_545 S
O12 C17 1.256 . S
C13 O19 1.278 . S
C13 O20 1.241 . S
C14 O0 1.244 . S
C14 O2 1.256 . S
C15 O4 1.239 . S
C15 O8 1.256 . S
C16 O5 1.278 . S
C16 O11 1.241 . S
C17 O7 1.237 1_556 S
C17 O12 1.256 . S
C18 O9 1.239 . S
C18 O10 1.256 . S
O19 Mn1 2.221 1_655 S
O19 Mn3 2.290 . S
O19 C13 1.278 . S
O20 Mn3 2.251 . S
O20 C13 1.241 . S
O21 Mn22 2.163 . S
O21 C35 1.244 . S
Mn22 O21 2.163 . S
Mn22 O25 2.160 1_455 S
Mn22 O26 2.221 . S
Mn22 O28 2.163 . S
Mn22 O30 2.160 1_455 S
Mn22 O40 2.221 1_455 S
O23 Mn24 2.087 1_455 S
O23 C35 1.256 . S
Mn24 O23 2.087 1_655 S
Mn24 O31 2.089 . S
Mn24 O40 2.290 . S
Mn24 O41 2.251 . S
O25 Mn22 2.160 1_655 S
O25 C36 1.239 . S
O26 Mn22 2.221 . S
O26 Mn27 2.290 . S
O26 C37 1.278 . S
Mn27 O26 2.290 . S
Mn27 O29 2.089 1_455 S
Mn27 O32 2.251 . S
Mn27 O33 2.087 . S
O28 Mn22 2.163 . S
O28 C38 1.244 . S
O29 Mn27 2.089 1_655 S
O29 C36 1.256 . S
O30 Mn22 2.160 1_655 S
O30 C39 1.239 . S
O31 Mn24 2.089 . S
O31 C39 1.256 . S
O32 Mn27 2.251 . S
O32 C37 1.241 . S
O33 Mn27 2.087 . S
O33 C38 1.256 . S
C34 O40 1.278 . S
C34 O41 1.241 . S
C35 O21 1.244 . S
C35 O23 1.256 . S
C36 O25 1.239 . S
C36 O29 1.256 . S
C37 O26 1.278 . S
C37 O32 1.241 . S
C38 O28 1.244 . S
C38 O33 1.256 . S
C39 O30 1.239 . S
C39 O31 1.256 . S
O40 Mn22 2.221 1_655 S
O40 Mn24 2.290 . S
O40 C34 1.278 . S
O41 Mn24 2.251 . S
O41 C34 1.241 . S
O42 Mn43 2.163 . S
O42 C56 1.244 . S
Mn43 O42 2.163 . S
Mn43 O46 2.160 . S
Mn43 O47 2.221 . S
Mn43 O49 2.163 . S
Mn43 O51 2.160 . S
Mn43 O61 2.221 . S
O44 Mn45 2.087 . S
O44 C56 1.256 . S
Mn45 O44 2.087 . S
Mn45 O52 2.089 . S
Mn45 O61 2.290 . S
Mn45 O62 2.251 . S
O46 Mn43 2.160 . S
O46 C57 1.239 . S
O47 Mn43 2.221 . S
O47 Mn48 2.290 . S
O47 C58 1.278 . S
Mn48 O47 2.290 . S
Mn48 O50 2.089 . S
Mn48 O53 2.251 . S
Mn48 O54 2.087 . S
O49 Mn43 2.163 . S
O49 C59 1.244 . S
O50 Mn48 2.089 . S
O50 C57 1.256 . S
O51 Mn43 2.160 . S
O51 C60 1.239 . S
O52 Mn45 2.089 . S
O52 C60 1.256 . S
O53 Mn48 2.251 . S
O53 C58 1.241 . S
O54 Mn48 2.087 . S
O54 C59 1.256 . S
C55 O61 1.278 . S
C55 O62 1.241 . S
C56 O42 1.244 . S
C56 O44 1.256 . S
C57 O46 1.239 . S
C57 O50 1.256 . S
C58 O47 1.278 . S
C58 O53 1.241 . S
C59 O49 1.244 . S
C59 O54 1.256 . S
C60 O51 1.239 . S
C60 O52 1.256 . S
O61 Mn43 2.221 . S
O61 Mn45 2.290 . S
O61 C55 1.278 . S
O62 Mn45 2.251 . S
O62 C55 1.241 . S
O63 Mn64 2.163 1_565 S
O63 C77 1.244 . S
Mn64 O63 2.163 1_545 S
Mn64 O67 2.160 . S
Mn64 O68 2.221 1_545 S
Mn64 O70 2.167 . S
Mn64 O72 2.160 . S
Mn64 O82 2.221 . S
O65 Mn66 2.087 1_565 S
O65 C77 1.256 . S
Mn66 O65 2.087 1_545 S
Mn66 O73 2.089 . S
Mn66 O82 2.290 . S
Mn66 O83 2.251 . S
O67 Mn64 2.160 . S
O67 C78 1.239 . S
O68 Mn64 2.221 1_565 S
O68 Mn69 2.290 . S
O68 C79 1.278 . S
Mn69 O68 2.290 . S
Mn69 O71 2.089 1_565 S
Mn69 O74 2.251 . S
Mn69 O75 2.087 . S
O70 Mn64 2.167 . S
O70 C80 1.236 1_545 S
O71 Mn69 2.089 1_545 S
O71 C78 1.256 . S
O72 Mn64 2.160 . S
O72 C81 1.239 . S
O73 Mn66 2.089 . S
O73 C81 1.256 . S
O74 Mn69 2.251 . S
O74 C79 1.241 . S
O75 Mn69 2.087 . S
O75 C80 1.256 . S
C76 O82 1.278 . S
C76 O83 1.241 . S
C77 O63 1.244 . S
C77 O65 1.256 . S
C78 O67 1.239 . S
C78 O71 1.256 . S
C79 O68 1.278 . S
C79 O74 1.241 . S
C80 O70 1.236 1_565 S
C80 O75 1.256 . S
C81 O72 1.239 . S
C81 O73 1.256 . S
O82 Mn64 2.221 . S
O82 Mn66 2.290 . S
O82 C76 1.278 . S
O83 Mn66 2.251 . S
O83 C76 1.241 . S
O84 Mn85 2.163 . S
O84 C98 1.244 . S
Mn85 O84 2.163 . S
Mn85 O88 2.160 . S
Mn85 O89 2.221 . S
Mn85 O91 2.163 . S
Mn85 O93 2.160 . S
Mn85 O103 2.221 . S
O86 Mn87 2.087 . S
O86 C98 1.256 . S
Mn87 O86 2.087 . S
Mn87 O94 2.089 . S
Mn87 O103 2.290 . S
Mn87 O104 2.251 . S
O88 Mn85 2.160 . S
O88 C99 1.239 . S
O89 Mn85 2.221 . S
O89 Mn90 2.290 . S
O89 C100 1.278 . S
Mn90 O89 2.290 . S
Mn90 O92 2.089 . S
Mn90 O95 2.251 . S
Mn90 O96 2.087 . S
O91 Mn85 2.163 . S
O91 C101 1.244 . S
O92 Mn90 2.089 . S
O92 C99 1.256 . S
O93 Mn85 2.160 . S
O93 C102 1.239 . S
O94 Mn87 2.089 . S
O94 C102 1.256 . S
O95 Mn90 2.251 . S
O95 C100 1.241 . S
O96 Mn90 2.087 . S
O96 C101 1.256 . S
C97 O103 1.278 . S
C97 O104 1.241 . S
C98 O84 1.244 . S
C98 O86 1.256 . S
C99 O88 1.239 . S
C99 O92 1.256 . S
C100 O89 1.278 . S
C100 O95 1.241 . S
C101 O91 1.244 . S
C101 O96 1.256 . S
C102 O93 1.239 . S
C102 O94 1.256 . S
O103 Mn85 2.221 . S
O103 Mn87 2.290 . S
O103 C97 1.278 . S
O104 Mn87 2.251 . S
O104 C97 1.241 . S
O105 Mn106 2.163 . S
O105 C119 1.244 . S
Mn106 O105 2.163 . S
Mn106 O109 2.160 . S
Mn106 O110 2.221 . S
Mn106 O112 2.163 . S
Mn106 O114 2.160 . S
Mn106 O124 2.221 . S
O107 Mn108 2.087 . S
O107 C119 1.256 . S
Mn108 O107 2.087 . S
Mn108 O115 2.089 . S
Mn108 O124 2.290 . S
Mn108 O125 2.251 . S
O109 Mn106 2.160 . S
O109 C120 1.239 . S
O110 Mn106 2.221 . S
O110 Mn111 2.290 . S
O110 C121 1.278 . S
Mn111 O110 2.290 . S
Mn111 O113 2.089 . S
Mn111 O116 2.251 . S
Mn111 O117 2.087 . S
O112 Mn106 2.163 . S
O112 C122 1.244 . S
O113 Mn111 2.089 . S
O113 C120 1.256 . S
O114 Mn106 2.160 . S
O114 C123 1.239 . S
O115 Mn108 2.089 . S
O115 C123 1.256 . S
O116 Mn111 2.251 . S
O116 C121 1.241 . S
O117 Mn111 2.087 . S
O117 C122 1.256 . S
C118 O124 1.278 . S
C118 O125 1.241 . S
C119 O105 1.244 . S
C119 O107 1.256 . S
C120 O109 1.239 . S
C120 O113 1.256 . S
C121 O110 1.278 . S
C121 O116 1.241 . S
C122 O112 1.244 . S
C122 O117 1.256 . S
C123 O114 1.239 . S
C123 O115 1.256 . S
O124 Mn106 2.221 . S
O124 Mn108 2.290 . S
O124 C118 1.278 . S
O125 Mn108 2.251 . S
O125 C118 1.241 . S
O126 Mn127 2.163 . S
O126 C140 1.244 . S
Mn127 O126 2.163 . S
Mn127 O130 2.160 . S
Mn127 O131 2.221 . S
Mn127 O133 2.163 . S
Mn127 O135 2.160 . S
Mn127 O145 2.221 . S
O128 Mn129 2.087 . S
O128 C140 1.256 . S
Mn129 O128 2.087 . S
Mn129 O136 2.089 . S
Mn129 O145 2.290 . S
Mn129 O146 2.251 . S
O130 Mn127 2.160 . S
O130 C141 1.239 . S
O131 Mn127 2.221 . S
O131 Mn132 2.290 . S
O131 C142 1.278 . S
Mn132 O131 2.290 . S
Mn132 O134 2.089 . S
Mn132 O137 2.251 . S
Mn132 O138 2.087 . S
O133 Mn127 2.163 . S
O133 C143 1.244 . S
O134 Mn132 2.089 . S
O134 C141 1.256 . S
O135 Mn127 2.160 . S
O135 C144 1.239 . S
O136 Mn129 2.089 . S
O136 C144 1.256 . S
O137 Mn132 2.251 . S
O137 C142 1.241 . S
O138 Mn132 2.087 . S
O138 C143 1.256 . S
C139 O145 1.278 . S
C139 O146 1.241 . S
C140 O126 1.244 . S
C140 O128 1.256 . S
C141 O130 1.239 . S
C141 O134 1.256 . S
C142 O131 1.278 . S
C142 O137 1.241 . S
C143 O133 1.244 . S
C143 O138 1.256 . S
C144 O135 1.239 . S
C144 O136 1.256 . S
O145 Mn127 2.221 . S
O145 Mn129 2.290 . S
O145 C139 1.278 . S
O146 Mn129 2.251 . S
O146 C139 1.241 . S
O147 Mn148 2.160 1_655 S
O147 C161 1.252 . S
Mn148 O147 2.160 1_455 S
Mn148 O151 2.160 . S
Mn148 O152 2.221 . S
Mn148 O154 2.163 1_455 S
Mn148 O156 2.160 . S
Mn148 O166 2.221 1_455 S
O149 Mn150 2.087 . S
O149 C161 1.256 . S
Mn150 O149 2.087 . S
Mn150 O157 2.089 1_655 S
Mn150 O166 2.290 . S
Mn150 O167 2.251 . S
O151 Mn148 2.160 . S
O151 C162 1.239 . S
O152 Mn148 2.221 . S
O152 Mn153 2.290 . S
O152 C163 1.278 . S
Mn153 O152 2.290 . S
Mn153 O155 2.089 . S
Mn153 O158 2.251 . S
Mn153 O159 2.087 1_455 S
O154 Mn148 2.163 1_655 S
O154 C164 1.244 . S
O155 Mn153 2.089 . S
O155 C162 1.256 . S
O156 Mn148 2.160 . S
O156 C165 1.239 . S
O157 Mn150 2.089 1_455 S
O157 C165 1.256 . S
O158 Mn153 2.251 . S
O158 C163 1.241 . S
O159 Mn153 2.087 1_655 S
O159 C164 1.256 . S
C160 O166 1.278 . S
C160 O167 1.241 . S
C161 O147 1.252 . S
C161 O149 1.256 . S
C162 O151 1.239 . S
C162 O155 1.256 . S
C163 O152 1.278 . S
C163 O158 1.241 . S
C164 O154 1.244 . S
C164 O159 1.256 . S
C165 O156 1.239 . S
C165 O157 1.256 . S
O166 Mn148 2.221 1_655 S
O166 Mn150 2.290 . S
O166 C160 1.278 . S
O167 Mn150 2.251 . S
O167 C160 1.241 . S
O168 Mn169 2.163 . S
O168 C182 1.244 . S
Mn169 O168 2.163 . S
Mn169 O172 2.160 1_554 S
Mn169 O173 2.221 . S
Mn169 O175 2.163 . S
Mn169 O177 2.160 1_554 S
Mn169 O187 2.221 1_554 S
O170 Mn171 2.087 1_554 S
O170 C182 1.256 . S
Mn171 O170 2.087 1_556 S
Mn171 O178 2.089 . S
Mn171 O187 2.290 . S
Mn171 O188 2.251 . S
O172 Mn169 2.160 1_556 S
O172 C183 1.239 . S
O173 Mn169 2.221 . S
O173 Mn174 2.290 . S
O173 C184 1.278 . S
Mn174 O173 2.290 . S
Mn174 O176 2.089 1_554 S
Mn174 O179 2.251 . S
Mn174 O180 2.087 . S
O175 Mn169 2.163 . S
O175 C185 1.244 . S
O176 Mn174 2.089 1_556 S
O176 C183 1.256 . S
O177 Mn169 2.160 1_556 S
O177 C186 1.239 . S
O178 Mn171 2.089 . S
O178 C186 1.256 . S
O179 Mn174 2.251 . S
O179 C184 1.241 . S
O180 Mn174 2.087 . S
O180 C185 1.256 . S
C181 O187 1.278 . S
C181 O188 1.241 . S
C182 O168 1.244 . S
C182 O170 1.256 . S
C183 O172 1.239 . S
C183 O176 1.256 . S
C184 O173 1.278 . S
C184 O179 1.241 . S
C185 O175 1.244 . S
C185 O180 1.256 . S
C186 O177 1.239 . S
C186 O178 1.256 . S
O187 Mn169 2.221 1_556 S
O187 Mn171 2.290 . S
O187 C181 1.278 . S
O188 Mn171 2.251 . S
O188 C181 1.241 . S
O189 Mn190 2.163 1_565 S
O189 C203 1.244 . S
Mn190 O189 2.163 1_545 S
Mn190 O193 2.160 . S
Mn190 O194 2.221 1_545 S
Mn190 O196 2.163 . S
Mn190 O198 2.160 . S
Mn190 O208 2.221 . S
O191 Mn192 2.087 1_565 S
O191 C203 1.256 . S
Mn192 O191 2.087 1_545 S
Mn192 O199 2.089 . S
Mn192 O208 2.290 . S
Mn192 O209 2.251 . S
O193 Mn190 2.160 . S
O193 C204 1.239 . S
O194 Mn190 2.221 1_565 S
O194 Mn195 2.290 . S
O194 C205 1.278 . S
Mn195 O194 2.290 . S
Mn195 O197 2.089 1_565 S
Mn195 O200 2.251 . S
Mn195 O201 2.087 . S
O196 Mn190 2.163 . S
O196 C206 1.244 1_545 S
O197 Mn195 2.089 1_545 S
O197 C204 1.256 . S
O198 Mn190 2.160 . S
O198 C207 1.239 . S
O199 Mn192 2.089 . S
O199 C207 1.256 . S
O200 Mn195 2.251 . S
O200 C205 1.241 . S
O201 Mn195 2.087 . S
O201 C206 1.256 . S
C202 O208 1.278 . S
C202 O209 1.241 . S
C203 O189 1.244 . S
C203 O191 1.256 . S
C204 O193 1.239 . S
C204 O197 1.256 . S
C205 O194 1.278 . S
C205 O200 1.241 . S
C206 O196 1.244 1_565 S
C206 O201 1.256 . S
C207 O198 1.239 . S
C207 O199 1.256 . S
O208 Mn190 2.221 . S
O208 Mn192 2.290 . S
O208 C202 1.278 . S
O209 Mn192 2.251 . S
O209 C202 1.241 . S
O210 Mn211 2.163 . S
O210 C224 1.244 . S
Mn211 O210 2.163 . S
Mn211 O214 2.160 . S
Mn211 O215 2.221 . S
Mn211 O217 2.163 . S
Mn211 O219 2.160 . S
Mn211 O229 2.221 . S
O212 Mn213 2.087 . S
O212 C224 1.256 . S
Mn213 O212 2.087 . S
Mn213 O220 2.089 . S
Mn213 O229 2.290 . S
Mn213 O230 2.251 . S
O214 Mn211 2.160 . S
O214 C225 1.239 . S
O215 Mn211 2.221 . S
O215 Mn216 2.290 . S
O215 C226 1.278 . S
Mn216 O215 2.290 . S
Mn216 O218 2.089 . S
Mn216 O221 2.251 . S
Mn216 O222 2.087 . S
O217 Mn211 2.163 . S
O217 C227 1.244 . S
O218 Mn216 2.089 . S
O218 C225 1.256 . S
O219 Mn211 2.160 . S
O219 C228 1.239 . S
O220 Mn213 2.089 . S
O220 C228 1.256 . S
O221 Mn216 2.251 . S
O221 C226 1.241 . S
O222 Mn216 2.087 . S
O222 C227 1.256 . S
C223 O229 1.278 . S
C223 O230 1.241 . S
C224 O210 1.244 . S
C224 O212 1.256 . S
C225 O214 1.239 . S
C225 O218 1.256 . S
C226 O215 1.278 . S
C226 O221 1.241 . S
C227 O217 1.244 . S
C227 O222 1.256 . S
C228 O219 1.239 . S
C228 O220 1.256 . S
O229 Mn211 2.221 . S
O229 Mn213 2.290 . S
O229 C223 1.278 . S
O230 Mn213 2.251 . S
O230 C223 1.241 . S
O231 Mn232 2.163 . S
O231 C245 1.244 . S
Mn232 O231 2.163 . S
Mn232 O235 2.160 1_455 S
Mn232 O236 2.221 . S
Mn232 O238 2.163 . S
Mn232 O240 2.160 1_455 S
Mn232 O250 2.221 1_455 S
O233 Mn234 2.087 1_455 S
O233 C245 1.256 . S
Mn234 O233 2.087 1_655 S
Mn234 O241 2.089 . S
Mn234 O250 2.290 . S
Mn234 O251 2.251 . S
O235 Mn232 2.160 1_655 S
O235 C246 1.239 . S
O236 Mn232 2.221 . S
O236 Mn237 2.290 . S
O236 C247 1.278 . S
Mn237 O236 2.290 . S
Mn237 O239 2.089 1_455 S
Mn237 O242 2.251 . S
Mn237 O243 2.087 . S
O238 Mn232 2.163 . S
O238 C248 1.244 . S
O239 Mn237 2.089 1_655 S
O239 C246 1.256 . S
O240 Mn232 2.160 1_655 S
O240 C249 1.239 . S
O241 Mn234 2.089 . S
O241 C249 1.256 . S
O242 Mn237 2.251 . S
O242 C247 1.241 . S
O243 Mn237 2.087 . S
O243 C248 1.256 . S
C244 O250 1.278 . S
C244 O251 1.241 . S
C245 O231 1.244 . S
C245 O233 1.256 . S
C246 O235 1.239 . S
C246 O239 1.256 . S
C247 O236 1.278 . S
C247 O242 1.241 . S
C248 O238 1.244 . S
C248 O243 1.256 . S
C249 O240 1.239 . S
C249 O241 1.256 . S
O250 Mn232 2.221 1_655 S
O250 Mn234 2.290 . S
O250 C244 1.278 . S
O251 Mn234 2.251 . S
O251 C244 1.241 . S
O252 Mn253 2.163 . S
O252 C266 1.244 . S
Mn253 O252 2.163 . S
Mn253 O256 2.160 . S
Mn253 O257 2.221 . S
Mn253 O259 2.163 . S
Mn253 O261 2.160 . S
Mn253 O271 2.221 . S
O254 Mn255 2.087 . S
O254 C266 1.256 . S
Mn255 O254 2.087 . S
Mn255 O262 2.089 . S
Mn255 O271 2.290 . S
Mn255 O272 2.251 . S
O256 Mn253 2.160 . S
O256 C267 1.239 . S
O257 Mn253 2.221 . S
O257 Mn258 2.290 . S
O257 C268 1.278 . S
Mn258 O257 2.290 . S
Mn258 O260 2.089 . S
Mn258 O263 2.251 . S
Mn258 O264 2.087 . S
O259 Mn253 2.163 . S
O259 C269 1.244 . S
O260 Mn258 2.089 . S
O260 C267 1.256 . S
O261 Mn253 2.160 . S
O261 C270 1.239 . S
O262 Mn255 2.089 . S
O262 C270 1.256 . S
O263 Mn258 2.251 . S
O263 C268 1.241 . S
O264 Mn258 2.087 . S
O264 C269 1.256 . S
C265 O271 1.278 . S
C265 O272 1.241 . S
C266 O252 1.244 . S
C266 O254 1.256 . S
C267 O256 1.239 . S
C267 O260 1.256 . S
C268 O257 1.278 . S
C268 O263 1.241 . S
C269 O259 1.244 . S
C269 O264 1.256 . S
C270 O261 1.239 . S
C270 O262 1.256 . S
O271 Mn253 2.221 . S
O271 Mn255 2.290 . S
O271 C265 1.278 . S
O272 Mn255 2.251 . S
O272 C265 1.241 . S
O273 Mn274 2.163 . S
O273 C287 1.244 . S
Mn274 O273 2.163 . S
Mn274 O277 2.160 1_554 S
Mn274 O278 2.221 . S
Mn274 O280 2.163 . S
Mn274 O282 2.160 1_554 S
Mn274 O292 2.221 1_554 S
O275 Mn276 2.087 1_554 S
O275 C287 1.256 . S
Mn276 O275 2.087 1_556 S
Mn276 O283 2.089 . S
Mn276 O292 2.290 . S
Mn276 O293 2.251 . S
O277 Mn274 2.160 1_556 S
O277 C288 1.239 . S
O278 Mn274 2.221 . S
O278 Mn279 2.290 . S
O278 C289 1.278 . S
Mn279 O278 2.290 . S
Mn279 O281 2.089 1_554 S
Mn279 O284 2.251 . S
Mn279 O285 2.087 . S
O280 Mn274 2.163 . S
O280 C290 1.244 . S
O281 Mn279 2.089 1_556 S
O281 C288 1.256 . S
O282 Mn274 2.160 1_556 S
O282 C291 1.239 . S
O283 Mn276 2.089 . S
O283 C291 1.256 . S
O284 Mn279 2.251 . S
O284 C289 1.241 . S
O285 Mn279 2.087 . S
O285 C290 1.256 . S
C286 O292 1.278 . S
C286 O293 1.241 . S
C287 O273 1.244 . S
C287 O275 1.256 . S
C288 O277 1.239 . S
C288 O281 1.256 . S
C289 O278 1.278 . S
C289 O284 1.241 . S
C290 O280 1.244 . S
C290 O285 1.256 . S
C291 O282 1.239 . S
C291 O283 1.256 . S
O292 Mn274 2.221 1_556 S
O292 Mn276 2.290 . S
O292 C286 1.278 . S
O293 Mn276 2.251 . S
O293 C286 1.241 . S
O294 Mn295 2.163 . S
O294 C308 1.244 . S
Mn295 O294 2.163 . S
Mn295 O298 2.160 1_545 S
Mn295 O299 2.221 1_545 S
Mn295 O301 2.163 1_545 S
Mn295 O303 2.160 . S
Mn295 O313 2.221 . S
O296 Mn297 2.087 . S
O296 C308 1.256 . S
Mn297 O296 2.087 . S
Mn297 O304 2.089 . S
Mn297 O313 2.290 . S
Mn297 O314 2.251 . S
O298 Mn295 2.160 1_565 S
O298 C309 1.239 . S
O299 Mn295 2.221 1_565 S
O299 Mn300 2.290 . S
O299 C310 1.278 . S
Mn300 O299 2.290 . S
Mn300 O302 2.089 . S
Mn300 O305 2.251 . S
Mn300 O306 2.087 . S
O301 Mn295 2.163 1_565 S
O301 C311 1.244 . S
O302 Mn300 2.089 . S
O302 C309 1.256 . S
O303 Mn295 2.160 . S
O303 C312 1.239 . S
O304 Mn297 2.089 . S
O304 C312 1.256 . S
O305 Mn300 2.251 . S
O305 C310 1.241 . S
O306 Mn300 2.087 . S
O306 C311 1.256 . S
C307 O313 1.278 . S
C307 O314 1.241 . S
C308 O294 1.244 . S
C308 O296 1.256 . S
C309 O298 1.239 . S
C309 O302 1.256 . S
C310 O299 1.278 . S
C310 O305 1.241 . S
C311 O301 1.244 . S
C311 O306 1.256 . S
C312 O303 1.239 . S
C312 O304 1.256 . S
O313 Mn295 2.221 . S
O313 Mn297 2.290 . S
O313 C307 1.278 . S
O314 Mn297 2.251 . S
O314 C307 1.241 . S
O315 Mn316 2.163 1_556 S
O315 C329 1.244 . S
Mn316 O315 2.163 1_554 S
Mn316 O319 2.160 . S
Mn316 O320 2.221 1_554 S
Mn316 O322 2.166 . S
Mn316 O324 2.160 . S
Mn316 O334 2.221 . S
O317 Mn318 2.087 1_556 S
O317 C329 1.256 . S
Mn318 O317 2.087 1_554 S
Mn318 O325 2.089 . S
Mn318 O334 2.290 . S
Mn318 O335 2.251 . S
O319 Mn316 2.160 . S
O319 C330 1.239 . S
O320 Mn316 2.221 1_556 S
O320 Mn321 2.290 . S
O320 C331 1.278 . S
Mn321 O320 2.290 . S
Mn321 O323 2.089 1_556 S
Mn321 O326 2.251 . S
Mn321 O327 2.087 . S
O322 Mn316 2.166 . S
O322 C332 1.237 1_554 S
O323 Mn321 2.089 1_554 S
O323 C330 1.256 . S
O324 Mn316 2.160 . S
O324 C333 1.239 . S
O325 Mn318 2.089 . S
O325 C333 1.256 . S
O326 Mn321 2.251 . S
O326 C331 1.241 . S
O327 Mn321 2.087 . S
O327 C332 1.256 . S
C328 O334 1.278 . S
C328 O335 1.241 . S
C329 O315 1.244 . S
C329 O317 1.256 . S
C330 O319 1.239 . S
C330 O323 1.256 . S
C331 O320 1.278 . S
C331 O326 1.241 . S
C332 O322 1.237 1_556 S
C332 O327 1.256 . S
C333 O324 1.239 . S
C333 O325 1.256 . S
O334 Mn316 2.221 . S
O334 Mn318 2.290 . S
O334 C328 1.278 . S
O335 Mn318 2.251 . S
O335 C328 1.241 . S
C336 C337 1.391 . S
C336 C338 1.394 . S
C336 H352 0.931 . S
C337 C336 1.391 . S
C337 C341 1.376 1_655 S
C338 C336 1.394 . S
C338 C339 1.369 . S
C338 C342 1.531 . S
C339 C338 1.369 . S
C339 C340 1.410 1_655 S
C339 C347 1.503 . S
C340 C339 1.410 1_455 S
C340 C341 1.392 . S
C340 C343 1.511 . S
C341 C337 1.376 1_455 S
C341 C340 1.392 . S
C341 H353 0.929 . S
C342 C338 1.531 . S
C342 H354 0.960 . S
C342 H355 0.962 . S
C342 H356 0.960 . S
C343 C340 1.511 . S
C343 H357 0.961 . S
C343 H358 0.961 . S
C343 H359 0.961 . S
C344 C345 1.370 . S
C344 C346 1.363 . S
C344 H360 0.931 . S
C345 C344 1.370 . S
C345 C349 1.408 1_655 S
C346 C344 1.363 . S
C346 C347 1.370 . S
C346 C350 1.524 . S
C347 C339 1.503 . S
C347 C346 1.370 . S
C347 C348 1.403 1_655 S
C348 C347 1.403 1_455 S
C348 C349 1.404 . S
C348 C351 1.539 . S
C349 C345 1.408 1_455 S
C349 C348 1.404 . S
C349 H361 0.930 . S
C350 C346 1.524 . S
C350 H362 0.956 . S
C350 H363 0.961 . S
C350 H364 0.961 . S
C351 C348 1.539 . S
C351 H365 0.958 . S
C351 H366 0.961 . S
C351 H367 0.960 . S
H352 C336 0.931 . S
H353 C341 0.929 . S
H354 C342 0.960 . S
H355 C342 0.962 . S
H356 C342 0.960 . S
H357 C343 0.961 . S
H358 C343 0.961 . S
H359 C343 0.961 . S
H360 C344 0.931 . S
H361 C349 0.930 . S
H362 C350 0.956 . S
H363 C350 0.961 . S
H364 C350 0.961 . S
H365 C351 0.958 . S
H366 C351 0.961 . S
H367 C351 0.960 . S
C368 C369 1.391 . S
C368 C370 1.394 . S
C368 H384 0.931 . S
C369 C368 1.391 . S
C369 C373 1.376 . S
C370 C368 1.394 . S
C370 C371 1.369 . S
C370 C374 1.531 . S
C371 C370 1.369 . S
C371 C372 1.410 . S
C371 C379 1.503 . S
C372 C371 1.410 . S
C372 C373 1.392 . S
C372 C375 1.511 . S
C373 C369 1.376 . S
C373 C372 1.392 . S
C373 H385 0.929 . S
C374 C370 1.531 . S
C374 H386 0.960 . S
C374 H387 0.962 . S
C374 H388 0.960 . S
C375 C372 1.511 . S
C375 H389 0.961 . S
C375 H390 0.961 . S
C375 H391 0.961 . S
C376 C377 1.370 . S
C376 C378 1.363 . S
C376 H392 0.931 . S
C377 C376 1.370 . S
C377 C381 1.408 . S
C378 C376 1.363 . S
C378 C379 1.370 . S
C378 C382 1.524 . S
C379 C371 1.503 . S
C379 C378 1.370 . S
C379 C380 1.403 . S
C380 C379 1.403 . S
C380 C381 1.404 . S
C380 C383 1.539 . S
C381 C377 1.408 . S
C381 C380 1.404 . S
C381 H393 0.930 . S
C382 C378 1.524 . S
C382 H394 0.956 . S
C382 H395 0.961 . S
C382 H396 0.961 . S
C383 C380 1.539 . S
C383 H397 0.958 . S
C383 H398 0.961 . S
C383 H399 0.960 . S
H384 C368 0.931 . S
H385 C373 0.929 . S
H386 C374 0.960 . S
H387 C374 0.962 . S
H388 C374 0.960 . S
H389 C375 0.961 . S
H390 C375 0.961 . S
H391 C375 0.961 . S
H392 C376 0.931 . S
H393 C381 0.930 . S
H394 C382 0.956 . S
H395 C382 0.961 . S
H396 C382 0.961 . S
H397 C383 0.958 . S
H398 C383 0.961 . S
H399 C383 0.960 . S
C400 C401 1.391 . S
C400 C402 1.394 . S
C400 H416 0.931 . S
C401 C400 1.391 . S
C401 C405 1.376 . S
C402 C400 1.394 . S
C402 C403 1.369 . S
C402 C406 1.531 . S
C403 C402 1.369 . S
C403 C404 1.410 . S
C403 C411 1.503 . S
C404 C403 1.410 . S
C404 C405 1.392 . S
C404 C407 1.511 . S
C405 C401 1.376 . S
C405 C404 1.392 . S
C405 H417 0.929 . S
C406 C402 1.531 . S
C406 H418 0.960 . S
C406 H419 0.962 . S
C406 H420 0.960 . S
C407 C404 1.511 . S
C407 H421 0.961 . S
C407 H422 0.961 . S
C407 H423 0.961 . S
C408 C409 1.370 . S
C408 C410 1.363 . S
C408 H424 0.931 . S
C409 C408 1.370 . S
C409 C413 1.408 . S
C410 C408 1.363 . S
C410 C411 1.370 . S
C410 C414 1.524 . S
C411 C403 1.503 . S
C411 C410 1.370 . S
C411 C412 1.403 . S
C412 C411 1.403 . S
C412 C413 1.404 . S
C412 C415 1.539 . S
C413 C409 1.408 . S
C413 C412 1.404 . S
C413 H425 0.930 . S
C414 C410 1.524 . S
C414 H426 0.956 . S
C414 H427 0.961 . S
C414 H428 0.961 . S
C415 C412 1.539 . S
C415 H429 0.958 . S
C415 H430 0.961 . S
C415 H431 0.960 . S
H416 C400 0.931 . S
H417 C405 0.929 . S
H418 C406 0.960 . S
H419 C406 0.962 . S
H420 C406 0.960 . S
H421 C407 0.961 . S
H422 C407 0.961 . S
H423 C407 0.961 . S
H424 C408 0.931 . S
H425 C413 0.930 . S
H426 C414 0.956 . S
H427 C414 0.961 . S
H428 C414 0.961 . S
H429 C415 0.958 . S
H430 C415 0.961 . S
H431 C415 0.960 . S
C432 C433 1.391 . S
C432 C434 1.394 . S
C432 H448 0.931 . S
C433 C432 1.391 . S
C433 C437 1.376 . S
C434 C432 1.394 . S
C434 C435 1.369 . S
C434 C438 1.531 . S
C435 C434 1.369 . S
C435 C436 1.410 . S
C435 C443 1.503 . S
C436 C435 1.410 . S
C436 C437 1.392 . S
C436 C439 1.511 1_545 S
C437 C433 1.376 . S
C437 C436 1.392 . S
C437 H449 0.929 1_545 S
C438 C434 1.531 . S
C438 H450 0.960 . S
C438 H451 0.962 . S
C438 H452 0.960 . S
C439 C436 1.511 1_565 S
C439 H453 0.961 . S
C439 H454 0.961 . S
C439 H455 0.961 . S
C440 C441 1.370 . S
C440 C442 1.363 . S
C440 H456 0.931 1_545 S
C441 C440 1.370 . S
C441 C445 1.408 . S
C442 C440 1.363 . S
C442 C443 1.370 . S
C442 C446 1.524 1_545 S
C443 C435 1.503 . S
C443 C442 1.370 . S
C443 C444 1.403 . S
C444 C443 1.403 . S
C444 C445 1.404 . S
C444 C447 1.539 . S
C445 C441 1.408 . S
C445 C444 1.404 . S
C445 H457 0.930 . S
C446 C442 1.524 1_565 S
C446 H458 0.956 1_565 S
C446 H459 0.961 . S
C446 H460 0.961 . S
C447 C444 1.539 . S
C447 H461 0.958 . S
C447 H462 0.961 . S
C447 H463 0.960 . S
H448 C432 0.931 . S
H449 C437 0.929 1_565 S
H450 C438 0.960 . S
H451 C438 0.962 . S
H452 C438 0.960 . S
H453 C439 0.961 . S
H454 C439 0.961 . S
H455 C439 0.961 . S
H456 C440 0.931 1_565 S
H457 C445 0.930 . S
H458 C446 0.956 1_545 S
H459 C446 0.961 . S
H460 C446 0.961 . S
H461 C447 0.958 . S
H462 C447 0.961 . S
H463 C447 0.960 . S
C464 C465 1.391 . S
C464 C466 1.394 . S
C464 H480 0.931 . S
C465 C464 1.391 . S
C465 C469 1.376 1_565 S
C466 C464 1.394 . S
C466 C467 1.369 . S
C466 C470 1.531 . S
C467 C466 1.369 . S
C467 C468 1.410 1_565 S
C467 C475 1.503 . S
C468 C467 1.410 1_545 S
C468 C469 1.392 . S
C468 C471 1.511 . S
C469 C465 1.376 1_545 S
C469 C468 1.392 . S
C469 H481 0.929 . S
C470 C466 1.531 . S
C470 H482 0.960 . S
C470 H483 0.962 . S
C470 H484 0.960 . S
C471 C468 1.511 . S
C471 H485 0.961 . S
C471 H486 0.961 . S
C471 H487 0.961 . S
C472 C473 1.370 . S
C472 C474 1.363 . S
C472 H488 0.934 . S
C473 C472 1.370 . S
C473 C477 1.408 . S
C474 C472 1.363 . S
C474 C475 1.370 . S
C474 C478 1.524 . S
C475 C467 1.503 . S
C475 C474 1.370 . S
C475 C476 1.403 . S
C476 C475 1.403 . S
C476 C477 1.404 . S
C476 C479 1.539 . S
C477 C473 1.408 . S
C477 C476 1.404 . S
C477 H489 0.930 . S
C478 C474 1.524 . S
C478 H490 0.953 . S
C478 H491 0.963 1_565 S
C478 H492 0.962 1_565 S
C479 C476 1.539 . S
C479 H493 0.958 . S
C479 H494 0.961 . S
C479 H495 0.960 . S
H480 C464 0.931 . S
H481 C469 0.929 . S
H482 C470 0.960 . S
H483 C470 0.962 . S
H484 C470 0.960 . S
H485 C471 0.961 . S
H486 C471 0.961 . S
H487 C471 0.961 . S
H488 C472 0.934 . S
H489 C477 0.930 . S
H490 C478 0.953 . S
H491 C478 0.963 1_545 S
H492 C478 0.962 1_545 S
H493 C479 0.958 . S
H494 C479 0.961 . S
H495 C479 0.960 . S
C496 C497 1.391 . S
C496 C498 1.394 . S
C496 H512 0.931 . S
C497 C496 1.391 . S
C497 C501 1.376 . S
C498 C496 1.394 . S
C498 C499 1.369 . S
C498 C502 1.531 . S
C499 C498 1.369 . S
C499 C500 1.410 . S
C499 C507 1.503 . S
C500 C499 1.410 . S
C500 C501 1.392 . S
C500 C503 1.511 1_455 S
C501 C497 1.376 . S
C501 C500 1.392 . S
C501 H513 0.929 . S
C502 C498 1.531 . S
C502 H514 0.960 . S
C502 H515 0.962 . S
C502 H516 0.960 . S
C503 C500 1.511 1_655 S
C503 H517 0.961 . S
C503 H518 0.961 . S
C503 H519 0.961 . S
C504 C505 1.370 . S
C504 C506 1.363 . S
C504 H520 0.931 . S
C505 C504 1.370 . S
C505 C509 1.408 1_455 S
C506 C504 1.363 . S
C506 C507 1.370 . S
C506 C510 1.524 . S
C507 C499 1.503 . S
C507 C506 1.370 . S
C507 C508 1.403 1_455 S
C508 C507 1.403 1_655 S
C508 C509 1.404 . S
C508 C511 1.539 . S
C509 C505 1.408 1_655 S
C509 C508 1.404 . S
C509 H521 0.930 . S
C510 C506 1.524 . S
C510 H522 0.956 . S
C510 H523 0.961 . S
C510 H524 0.961 . S
C511 C508 1.539 . S
C511 H525 0.958 . S
C511 H526 0.961 . S
C511 H527 0.960 . S
H512 C496 0.931 . S
H513 C501 0.929 . S
H514 C502 0.960 . S
H515 C502 0.962 . S
H516 C502 0.960 . S
H517 C503 0.961 . S
H518 C503 0.961 . S
H519 C503 0.961 . S
H520 C504 0.931 . S
H521 C509 0.930 . S
H522 C510 0.956 . S
H523 C510 0.961 . S
H524 C510 0.961 . S
H525 C511 0.958 . S
H526 C511 0.961 . S
H527 C511 0.960 . S
C528 C529 1.391 . S
C528 C530 1.394 . S
C528 H544 0.931 . S
C529 C528 1.391 . S
C529 C533 1.376 . S
C530 C528 1.394 . S
C530 C531 1.369 . S
C530 C534 1.531 . S
C531 C530 1.369 . S
C531 C532 1.410 . S
C531 C539 1.503 . S
C532 C531 1.410 . S
C532 C533 1.392 . S
C532 C535 1.511 . S
C533 C529 1.376 . S
C533 C532 1.392 . S
C533 H545 0.929 . S
C534 C530 1.531 . S
C534 H546 0.960 . S
C534 H547 0.962 . S
C534 H548 0.960 . S
C535 C532 1.511 . S
C535 H549 0.961 . S
C535 H550 0.961 . S
C535 H551 0.961 . S
C536 C537 1.370 . S
C536 C538 1.363 . S
C536 H552 0.931 . S
C537 C536 1.370 . S
C537 C541 1.408 . S
C538 C536 1.363 . S
C538 C539 1.370 . S
C538 C542 1.524 . S
C539 C531 1.503 . S
C539 C538 1.370 . S
C539 C540 1.403 . S
C540 C539 1.403 . S
C540 C541 1.404 . S
C540 C543 1.539 . S
C541 C537 1.408 . S
C541 C540 1.404 . S
C541 H553 0.930 . S
C542 C538 1.524 . S
C542 H554 0.956 . S
C542 H555 0.961 . S
C542 H556 0.961 . S
C543 C540 1.539 . S
C543 H557 0.958 . S
C543 H558 0.961 . S
C543 H559 0.960 . S
H544 C528 0.931 . S
H545 C533 0.929 . S
H546 C534 0.960 . S
H547 C534 0.962 . S
H548 C534 0.960 . S
H549 C535 0.961 . S
H550 C535 0.961 . S
H551 C535 0.961 . S
H552 C536 0.931 . S
H553 C541 0.930 . S
H554 C542 0.956 . S
H555 C542 0.961 . S
H556 C542 0.961 . S
H557 C543 0.958 . S
H558 C543 0.961 . S
H559 C543 0.960 . S
C560 C561 1.391 . S
C560 C562 1.394 . S
C560 H576 0.931 . S
C561 C560 1.391 . S
C561 C565 1.376 . S
C562 C560 1.394 . S
C562 C563 1.369 . S
C562 C566 1.531 . S
C563 C562 1.369 . S
C563 C564 1.410 . S
C563 C571 1.503 . S
C564 C563 1.410 . S
C564 C565 1.392 . S
C564 C567 1.511 . S
C565 C561 1.376 . S
C565 C564 1.392 . S
C565 H577 0.929 . S
C566 C562 1.531 . S
C566 H578 0.960 . S
C566 H579 0.962 . S
C566 H580 0.960 . S
C567 C564 1.511 . S
C567 H581 0.961 . S
C567 H582 0.961 . S
C567 H583 0.961 . S
C568 C569 1.370 . S
C568 C570 1.363 . S
C568 H584 0.931 . S
C569 C568 1.370 . S
C569 C573 1.408 . S
C570 C568 1.363 . S
C570 C571 1.370 . S
C570 C574 1.524 . S
C571 C563 1.503 . S
C571 C570 1.370 . S
C571 C572 1.403 . S
C572 C571 1.403 . S
C572 C573 1.404 . S
C572 C575 1.539 . S
C573 C569 1.408 . S
C573 C572 1.404 . S
C573 H585 0.930 . S
C574 C570 1.524 . S
C574 H586 0.956 . S
C574 H587 0.961 . S
C574 H588 0.961 . S
C575 C572 1.539 . S
C575 H589 0.958 . S
C575 H590 0.961 . S
C575 H591 0.960 . S
H576 C560 0.931 . S
H577 C565 0.929 . S
H578 C566 0.960 . S
H579 C566 0.962 . S
H580 C566 0.960 . S
H581 C567 0.961 . S
H582 C567 0.961 . S
H583 C567 0.961 . S
H584 C568 0.931 . S
H585 C573 0.930 . S
H586 C574 0.956 . S
H587 C574 0.961 . S
H588 C574 0.961 . S
H589 C575 0.958 . S
H590 C575 0.961 . S
H591 C575 0.960 . S
C592 C593 1.391 . S
C592 C594 1.394 . S
C592 H608 0.931 . S
C593 C592 1.391 . S
C593 C597 1.376 . S
C594 C592 1.394 . S
C594 C595 1.369 . S
C594 C598 1.531 . S
C595 C594 1.369 . S
C595 C596 1.410 . S
C595 C603 1.503 . S
C596 C595 1.410 . S
C596 C597 1.392 . S
C596 C599 1.511 . S
C597 C593 1.376 . S
C597 C596 1.392 . S
C597 H609 0.929 . S
C598 C594 1.531 . S
C598 H610 0.960 . S
C598 H611 0.962 . S
C598 H612 0.960 . S
C599 C596 1.511 . S
C599 H613 0.961 . S
C599 H614 0.961 . S
C599 H615 0.961 . S
C600 C601 1.370 . S
C600 C602 1.363 . S
C600 H616 0.931 . S
C601 C600 1.370 . S
C601 C605 1.408 . S
C602 C600 1.363 . S
C602 C603 1.370 . S
C602 C606 1.524 . S
C603 C595 1.503 . S
C603 C602 1.370 . S
C603 C604 1.403 . S
C604 C603 1.403 . S
C604 C605 1.404 . S
C604 C607 1.539 . S
C605 C601 1.408 . S
C605 C604 1.404 . S
C605 H617 0.930 . S
C606 C602 1.524 . S
C606 H618 0.956 . S
C606 H619 0.961 . S
C606 H620 0.961 . S
C607 C604 1.539 . S
C607 H621 0.958 . S
C607 H622 0.961 . S
C607 H623 0.960 . S
H608 C592 0.931 . S
H609 C597 0.929 . S
H610 C598 0.960 . S
H611 C598 0.962 . S
H612 C598 0.960 . S
H613 C599 0.961 . S
H614 C599 0.961 . S
H615 C599 0.961 . S
H616 C600 0.931 . S
H617 C605 0.930 . S
H618 C606 0.956 . S
H619 C606 0.961 . S
H620 C606 0.961 . S
H621 C607 0.958 . S
H622 C607 0.961 . S
H623 C607 0.960 . S
C624 C625 1.391 . S
C624 C626 1.394 . S
C624 H640 0.931 . S
C625 C624 1.391 . S
C625 C629 1.376 . S
C626 C624 1.394 . S
C626 C627 1.369 . S
C626 C630 1.531 . S
C627 C626 1.369 . S
C627 C628 1.410 . S
C627 C635 1.503 . S
C628 C627 1.410 . S
C628 C629 1.392 . S
C628 C631 1.511 . S
C629 C625 1.376 . S
C629 C628 1.392 . S
C629 H641 0.929 . S
C630 C626 1.531 . S
C630 H642 0.960 . S
C630 H643 0.962 . S
C630 H644 0.960 . S
C631 C628 1.511 . S
C631 H645 0.961 . S
C631 H646 0.961 . S
C631 H647 0.961 . S
C632 C633 1.370 . S
C632 C634 1.363 . S
C632 H648 0.931 . S
C633 C632 1.370 . S
C633 C637 1.408 . S
C634 C632 1.363 . S
C634 C635 1.370 . S
C634 C638 1.524 . S
C635 C627 1.503 . S
C635 C634 1.370 . S
C635 C636 1.403 . S
C636 C635 1.403 . S
C636 C637 1.404 . S
C636 C639 1.539 . S
C637 C633 1.408 . S
C637 C636 1.404 . S
C637 H649 0.930 . S
C638 C634 1.524 . S
C638 H650 0.956 . S
C638 H651 0.961 . S
C638 H652 0.961 . S
C639 C636 1.539 . S
C639 H653 0.958 . S
C639 H654 0.961 . S
C639 H655 0.960 . S
H640 C624 0.931 . S
H641 C629 0.929 . S
H642 C630 0.960 . S
H643 C630 0.962 . S
H644 C630 0.960 . S
H645 C631 0.961 . S
H646 C631 0.961 . S
H647 C631 0.961 . S
H648 C632 0.931 . S
H649 C637 0.930 . S
H650 C638 0.956 . S
H651 C638 0.961 . S
H652 C638 0.961 . S
H653 C639 0.958 . S
H654 C639 0.961 . S
H655 C639 0.960 . S
C656 C657 1.391 . S
C656 C658 1.394 . S
C656 H672 0.931 . S
C657 C656 1.391 . S
C657 C661 1.376 . S
C658 C656 1.394 . S
C658 C659 1.369 . S
C658 C662 1.531 . S
C659 C658 1.369 . S
C659 C660 1.410 . S
C659 C667 1.503 . S
C660 C659 1.410 . S
C660 C661 1.392 . S
C660 C663 1.511 . S
C661 C657 1.376 . S
C661 C660 1.392 . S
C661 H673 0.929 . S
C662 C658 1.531 . S
C662 H674 0.960 . S
C662 H675 0.962 1_565 S
C662 H676 0.960 . S
C663 C660 1.511 . S
C663 H677 0.961 . S
C663 H678 0.961 . S
C663 H679 0.961 . S
C664 C665 1.370 1_545 S
C664 C666 1.363 . S
C664 H680 0.931 . S
C665 C664 1.370 1_565 S
C665 C669 1.408 . S
C666 C664 1.363 . S
C666 C667 1.370 1_545 S
C666 C670 1.524 . S
C667 C659 1.503 . S
C667 C666 1.370 1_565 S
C667 C668 1.403 . S
C668 C667 1.403 . S
C668 C669 1.404 . S
C668 C671 1.539 . S
C669 C665 1.408 . S
C669 C668 1.404 . S
C669 H681 0.930 . S
C670 C666 1.524 . S
C670 H682 0.956 . S
C670 H683 0.961 . S
C670 H684 0.961 . S
C671 C668 1.539 . S
C671 H685 0.958 . S
C671 H686 0.961 . S
C671 H687 0.960 . S
H672 C656 0.931 . S
H673 C661 0.929 . S
H674 C662 0.960 . S
H675 C662 0.962 1_545 S
H676 C662 0.960 . S
H677 C663 0.961 . S
H678 C663 0.961 . S
H679 C663 0.961 . S
H680 C664 0.931 . S
H681 C669 0.930 . S
H682 C670 0.956 . S
H683 C670 0.961 . S
H684 C670 0.961 . S
H685 C671 0.958 . S
H686 C671 0.961 . S
H687 C671 0.960 . S
C688 C689 1.391 . S
C688 C690 1.394 . S
C688 H704 0.931 . S
C689 C688 1.391 . S
C689 C693 1.363 1_455 S
C690 C688 1.394 . S
C690 C691 1.369 . S
C690 C694 1.531 . S
C691 C690 1.369 . S
C691 C692 1.410 1_455 S
C691 C699 1.503 . S
C692 C691 1.410 1_655 S
C692 C693 1.394 . S
C692 C695 1.511 . S
C693 C689 1.363 1_655 S
C693 C692 1.394 . S
C693 H705 0.941 . S
C694 C690 1.531 . S
C694 H706 0.960 . S
C694 H707 0.962 . S
C694 H708 0.960 . S
C695 C692 1.511 . S
C695 H709 0.961 . S
C695 H710 0.961 . S
C695 H711 0.961 . S
C696 C697 1.370 . S
C696 C698 1.363 . S
C696 H712 0.931 . S
C697 C696 1.370 . S
C697 C701 1.408 . S
C698 C696 1.363 . S
C698 C699 1.370 . S
C698 C702 1.524 . S
C699 C691 1.503 . S
C699 C698 1.370 . S
C699 C700 1.403 . S
C700 C699 1.403 . S
C700 C701 1.404 . S
C700 C703 1.539 1_455 S
C701 C697 1.408 . S
C701 C700 1.404 . S
C701 H713 0.930 1_455 S
C702 C698 1.524 . S
C702 H714 0.956 . S
C702 H715 0.961 . S
C702 H716 0.961 . S
C703 C700 1.539 1_655 S
C703 H717 0.958 . S
C703 H718 0.961 . S
C703 H719 0.960 . S
H704 C688 0.931 . S
H705 C693 0.941 . S
H706 C694 0.960 . S
H707 C694 0.962 . S
H708 C694 0.960 . S
H709 C695 0.961 . S
H710 C695 0.961 . S
H711 C695 0.961 . S
H712 C696 0.931 . S
H713 C701 0.930 1_655 S
H714 C702 0.956 . S
H715 C702 0.961 . S
H716 C702 0.961 . S
H717 C703 0.958 . S
H718 C703 0.961 . S
H719 C703 0.960 . S
C720 C721 1.391 1_554 S
C720 C722 1.394 . S
C720 H736 0.931 . S
C721 C720 1.391 1_556 S
C721 C725 1.376 . S
C722 C720 1.394 . S
C722 C723 1.369 1_554 S
C722 C726 1.531 . S
C723 C722 1.369 1_556 S
C723 C724 1.410 . S
C723 C731 1.503 . S
C724 C723 1.410 . S
C724 C725 1.392 . S
C724 C727 1.511 . S
C725 C721 1.376 . S
C725 C724 1.392 . S
C725 H737 0.929 . S
C726 C722 1.531 . S
C726 H738 0.960 . S
C726 H739 0.962 . S
C726 H740 0.960 . S
C727 C724 1.511 . S
C727 H741 0.961 . S
C727 H742 0.961 . S
C727 H743 0.961 . S
C728 C729 1.370 1_554 S
C728 C730 1.365 . S
C728 H744 0.931 . S
C729 C728 1.370 1_556 S
C729 C733 1.408 . S
C730 C728 1.365 . S
C730 C731 1.352 1_554 S
C730 C734 1.543 . S
C731 C723 1.503 . S
C731 C730 1.352 1_556 S
C731 C732 1.403 . S
C732 C731 1.403 . S
C732 C733 1.404 . S
C732 C735 1.539 . S
C733 C729 1.408 . S
C733 C732 1.404 . S
C733 H745 0.930 . S
C734 C730 1.543 . S
C734 H746 0.956 . S
C734 H747 0.961 . S
C734 H748 0.961 . S
C735 C732 1.539 . S
C735 H749 0.958 . S
C735 H750 0.961 . S
C735 H751 0.960 . S
H736 C720 0.931 . S
H737 C725 0.929 . S
H738 C726 0.960 . S
H739 C726 0.962 . S
H740 C726 0.960 . S
H741 C727 0.961 . S
H742 C727 0.961 . S
H743 C727 0.961 . S
H744 C728 0.931 . S
H745 C733 0.930 . S
H746 C734 0.956 . S
H747 C734 0.961 . S
H748 C734 0.961 . S
H749 C735 0.958 . S
H750 C735 0.961 . S
H751 C735 0.960 . S
C752 C753 1.391 . S
C752 C754 1.394 . S
C752 H768 0.931 . S
C753 C752 1.391 . S
C753 C757 1.376 . S
C754 C752 1.394 . S
C754 C755 1.369 . S
C754 C758 1.531 . S
C755 C754 1.369 . S
C755 C756 1.410 . S
C755 C763 1.503 . S
C756 C755 1.410 . S
C756 C757 1.392 . S
C756 C759 1.511 . S
C757 C753 1.376 . S
C757 C756 1.392 . S
C757 H769 0.929 . S
C758 C754 1.531 . S
C758 H770 0.960 . S
C758 H771 0.962 . S
C758 H772 0.960 . S
C759 C756 1.511 . S
C759 H773 0.961 . S
C759 H774 0.961 . S
C759 H775 0.961 . S
C760 C761 1.370 . S
C760 C762 1.363 . S
C760 H776 0.931 . S
C761 C760 1.370 . S
C761 C765 1.408 . S
C762 C760 1.363 . S
C762 C763 1.370 . S
C762 C766 1.524 . S
C763 C755 1.503 . S
C763 C762 1.370 . S
C763 C764 1.403 . S
C764 C763 1.403 . S
C764 C765 1.404 . S
C764 C767 1.539 . S
C765 C761 1.408 . S
C765 C764 1.404 . S
C765 H777 0.930 . S
C766 C762 1.524 . S
C766 H778 0.956 . S
C766 H779 0.961 . S
C766 H780 0.961 . S
C767 C764 1.539 . S
C767 H781 0.958 . S
C767 H782 0.961 . S
C767 H783 0.960 . S
H768 C752 0.931 . S
H769 C757 0.929 . S
H770 C758 0.960 . S
H771 C758 0.962 . S
H772 C758 0.960 . S
H773 C759 0.961 . S
H774 C759 0.961 . S
H775 C759 0.961 . S
H776 C760 0.931 . S
H777 C765 0.930 . S
H778 C766 0.956 . S
H779 C766 0.961 . S
H780 C766 0.961 . S
H781 C767 0.958 . S
H782 C767 0.961 . S
H783 C767 0.960 . S
C784 C785 1.391 . S
C784 C786 1.394 . S
C784 H800 0.931 . S
C785 C784 1.391 . S
C785 C789 1.376 . S
C786 C784 1.394 . S
C786 C787 1.369 . S
C786 C790 1.531 . S
C787 C786 1.369 . S
C787 C788 1.410 . S
C787 C795 1.503 . S
C788 C787 1.410 . S
C788 C789 1.392 . S
C788 C791 1.511 . S
C789 C785 1.376 . S
C789 C788 1.392 . S
C789 H801 0.929 . S
C790 C786 1.531 . S
C790 H802 0.960 . S
C790 H803 0.962 . S
C790 H804 0.960 . S
C791 C788 1.511 . S
C791 H805 0.961 . S
C791 H806 0.961 . S
C791 H807 0.961 . S
C792 C793 1.370 . S
C792 C794 1.363 . S
C792 H808 0.931 . S
C793 C792 1.370 . S
C793 C797 1.408 . S
C794 C792 1.363 . S
C794 C795 1.370 . S
C794 C798 1.524 . S
C795 C787 1.503 . S
C795 C794 1.370 . S
C795 C796 1.403 . S
C796 C795 1.403 . S
C796 C797 1.404 . S
C796 C799 1.539 . S
C797 C793 1.408 . S
C797 C796 1.404 . S
C797 H809 0.930 . S
C798 C794 1.524 . S
C798 H810 0.956 . S
C798 H811 0.961 . S
C798 H812 0.961 . S
C799 C796 1.539 . S
C799 H813 0.958 . S
C799 H814 0.961 . S
C799 H815 0.960 . S
H800 C784 0.931 . S
H801 C789 0.929 . S
H802 C790 0.960 . S
H803 C790 0.962 . S
H804 C790 0.960 . S
H805 C791 0.961 . S
H806 C791 0.961 . S
H807 C791 0.961 . S
H808 C792 0.931 . S
H809 C797 0.930 . S
H810 C798 0.956 . S
H811 C798 0.961 . S
H812 C798 0.961 . S
H813 C799 0.958 . S
H814 C799 0.961 . S
H815 C799 0.960 . S
C816 C817 1.391 . S
C816 C818 1.394 . S
C816 H832 0.931 . S
C817 C816 1.391 . S
C817 C821 1.376 . S
C818 C816 1.394 . S
C818 C819 1.369 . S
C818 C822 1.531 . S
C819 C818 1.369 . S
C819 C820 1.410 . S
C819 C827 1.503 . S
C820 C819 1.410 . S
C820 C821 1.392 . S
C820 C823 1.511 . S
C821 C817 1.376 . S
C821 C820 1.392 . S
C821 H833 0.929 . S
C822 C818 1.531 . S
C822 H834 0.960 . S
C822 H835 0.962 . S
C822 H836 0.960 . S
C823 C820 1.511 . S
C823 H837 0.961 . S
C823 H838 0.961 . S
C823 H839 0.961 . S
C824 C825 1.370 . S
C824 C826 1.363 . S
C824 H840 0.931 . S
C825 C824 1.370 . S
C825 C829 1.408 . S
C826 C824 1.363 . S
C826 C827 1.370 . S
C826 C830 1.524 . S
C827 C819 1.503 . S
C827 C826 1.370 . S
C827 C828 1.403 . S
C828 C827 1.403 . S
C828 C829 1.404 . S
C828 C831 1.539 . S
C829 C825 1.408 . S
C829 C828 1.404 . S
C829 H841 0.930 . S
C830 C826 1.524 . S
C830 H842 0.956 . S
C830 H843 0.961 . S
C830 H844 0.961 . S
C831 C828 1.539 . S
C831 H845 0.958 . S
C831 H846 0.961 . S
C831 H847 0.960 . S
H832 C816 0.931 . S
H833 C821 0.929 . S
H834 C822 0.960 . S
H835 C822 0.962 . S
H836 C822 0.960 . S
H837 C823 0.961 . S
H838 C823 0.961 . S
H839 C823 0.961 . S
H840 C824 0.931 . S
H841 C829 0.930 . S
H842 C830 0.956 . S
H843 C830 0.961 . S
H844 C830 0.961 . S
H845 C831 0.958 . S
H846 C831 0.961 . S
H847 C831 0.960 . S
C848 C849 1.391 . S
C848 C850 1.394 . S
C848 H864 0.931 . S
C849 C848 1.391 . S
C849 C853 1.376 . S
C850 C848 1.394 . S
C850 C851 1.369 . S
C850 C854 1.531 . S
C851 C850 1.369 . S
C851 C852 1.410 . S
C851 C859 1.503 . S
C852 C851 1.410 . S
C852 C853 1.392 . S
C852 C855 1.511 . S
C853 C849 1.376 . S
C853 C852 1.392 . S
C853 H865 0.929 . S
C854 C850 1.531 . S
C854 H866 0.960 . S
C854 H867 0.962 . S
C854 H868 0.960 . S
C855 C852 1.511 . S
C855 H869 0.961 . S
C855 H870 0.961 . S
C855 H871 0.961 . S
C856 C857 1.370 . S
C856 C858 1.363 . S
C856 H872 0.931 . S
C857 C856 1.370 . S
C857 C861 1.408 . S
C858 C856 1.363 . S
C858 C859 1.370 . S
C858 C862 1.524 . S
C859 C851 1.503 . S
C859 C858 1.370 . S
C859 C860 1.403 . S
C860 C859 1.403 . S
C860 C861 1.404 . S
C860 C863 1.539 . S
C861 C857 1.408 . S
C861 C860 1.404 . S
C861 H873 0.930 . S
C862 C858 1.524 . S
C862 H874 0.956 . S
C862 H875 0.961 . S
C862 H876 0.961 . S
C863 C860 1.539 . S
C863 H877 0.958 . S
C863 H878 0.961 . S
C863 H879 0.960 . S
H864 C848 0.931 . S
H865 C853 0.929 . S
H866 C854 0.960 . S
H867 C854 0.962 . S
H868 C854 0.960 . S
H869 C855 0.961 . S
H870 C855 0.961 . S
H871 C855 0.961 . S
H872 C856 0.931 . S
H873 C861 0.930 . S
H874 C862 0.956 . S
H875 C862 0.961 . S
H876 C862 0.961 . S
H877 C863 0.958 . S
H878 C863 0.961 . S
H879 C863 0.960 . S
C880 C881 1.391 . S
C880 C882 1.394 . S
C880 H896 0.931 . S
C881 C880 1.391 . S
C881 C885 1.376 . S
C882 C880 1.394 . S
C882 C883 1.369 . S
C882 C886 1.531 . S
C883 C882 1.369 . S
C883 C884 1.410 . S
C883 C891 1.503 . S
C884 C883 1.410 . S
C884 C885 1.392 . S
C884 C887 1.511 . S
C885 C881 1.376 . S
C885 C884 1.392 . S
C885 H897 0.929 . S
C886 C882 1.531 . S
C886 H898 0.960 . S
C886 H899 0.962 . S
C886 H900 0.960 . S
C887 C884 1.511 . S
C887 H901 0.961 . S
C887 H902 0.961 . S
C887 H903 0.961 . S
C888 C889 1.370 . S
C888 C890 1.363 . S
C888 H904 0.931 . S
C889 C888 1.370 . S
C889 C893 1.408 . S
C890 C888 1.363 . S
C890 C891 1.370 . S
C890 C894 1.524 . S
C891 C883 1.503 . S
C891 C890 1.370 . S
C891 C892 1.403 . S
C892 C891 1.403 . S
C892 C893 1.404 . S
C892 C895 1.539 . S
C893 C889 1.408 . S
C893 C892 1.404 . S
C893 H905 0.930 . S
C894 C890 1.524 . S
C894 H906 0.956 . S
C894 H907 0.961 . S
C894 H908 0.961 . S
C895 C892 1.539 . S
C895 H909 0.958 . S
C895 H910 0.961 . S
C895 H911 0.960 . S
H896 C880 0.931 . S
H897 C885 0.929 . S
H898 C886 0.960 . S
H899 C886 0.962 . S
H900 C886 0.960 . S
H901 C887 0.961 . S
H902 C887 0.961 . S
H903 C887 0.961 . S
H904 C888 0.931 . S
H905 C893 0.930 . S
H906 C894 0.956 . S
H907 C894 0.961 . S
H908 C894 0.961 . S
H909 C895 0.958 . S
H910 C895 0.961 . S
H911 C895 0.960 . S
C912 C913 1.391 . S
C912 C914 1.394 . S
C912 H928 0.931 . S
C913 C912 1.391 . S
C913 C917 1.376 . S
C914 C912 1.394 . S
C914 C915 1.369 . S
C914 C918 1.531 . S
C915 C914 1.369 . S
C915 C916 1.410 . S
C915 C923 1.503 . S
C916 C915 1.410 . S
C916 C917 1.392 . S
C916 C919 1.511 . S
C917 C913 1.376 . S
C917 C916 1.392 . S
C917 H929 0.929 . S
C918 C914 1.531 . S
C918 H930 0.960 . S
C918 H931 0.962 . S
C918 H932 0.960 . S
C919 C916 1.511 . S
C919 H933 0.961 . S
C919 H934 0.961 . S
C919 H935 0.961 . S
C920 C921 1.370 . S
C920 C922 1.363 . S
C920 H936 0.931 . S
C921 C920 1.370 . S
C921 C925 1.408 . S
C922 C920 1.363 . S
C922 C923 1.370 . S
C922 C926 1.524 . S
C923 C915 1.503 . S
C923 C922 1.370 . S
C923 C924 1.403 . S
C924 C923 1.403 . S
C924 C925 1.404 . S
C924 C927 1.539 . S
C925 C921 1.408 . S
C925 C924 1.404 . S
C925 H937 0.930 . S
C926 C922 1.524 . S
C926 H938 0.956 . S
C926 H939 0.961 . S
C926 H940 0.961 . S
C927 C924 1.539 . S
C927 H941 0.958 . S
C927 H942 0.961 . S
C927 H943 0.960 . S
H928 C912 0.931 . S
H929 C917 0.929 . S
H930 C918 0.960 . S
H931 C918 0.962 . S
H932 C918 0.960 . S
H933 C919 0.961 . S
H934 C919 0.961 . S
H935 C919 0.961 . S
H936 C920 0.931 . S
H937 C925 0.930 . S
H938 C926 0.956 . S
H939 C926 0.961 . S
H940 C926 0.961 . S
H941 C927 0.958 . S
H942 C927 0.961 . S
H943 C927 0.960 . S
C944 C945 1.391 . S
C944 C946 1.394 . S
C944 H960 0.931 . S
C945 C944 1.391 . S
C945 C949 1.376 . S
C946 C944 1.394 . S
C946 C947 1.369 . S
C946 C950 1.531 . S
C947 C946 1.369 . S
C947 C948 1.410 . S
C947 C955 1.503 . S
C948 C947 1.410 . S
C948 C949 1.392 . S
C948 C951 1.511 . S
C949 C945 1.376 . S
C949 C948 1.392 . S
C949 H961 0.929 . S
C950 C946 1.531 . S
C950 H962 0.960 . S
C950 H963 0.962 . S
C950 H964 0.960 . S
C951 C948 1.511 . S
C951 H965 0.961 . S
C951 H966 0.961 . S
C951 H967 0.961 . S
C952 C953 1.370 . S
C952 C954 1.363 . S
C952 H968 0.931 . S
C953 C952 1.370 . S
C953 C957 1.408 . S
C954 C952 1.363 . S
C954 C955 1.370 . S
C954 C958 1.524 . S
C955 C947 1.503 . S
C955 C954 1.370 . S
C955 C956 1.403 . S
C956 C955 1.403 . S
C956 C957 1.404 . S
C956 C959 1.539 . S
C957 C953 1.408 . S
C957 C956 1.404 . S
C957 H969 0.930 . S
C958 C954 1.524 . S
C958 H970 0.956 . S
C958 H971 0.961 . S
C958 H972 0.961 . S
C959 C956 1.539 . S
C959 H973 0.958 . S
C959 H974 0.961 . S
C959 H975 0.960 . S
H960 C944 0.931 . S
H961 C949 0.929 . S
H962 C950 0.960 . S
H963 C950 0.962 . S
H964 C950 0.960 . S
H965 C951 0.961 . S
H966 C951 0.961 . S
H967 C951 0.961 . S
H968 C952 0.931 . S
H969 C957 0.930 . S
H970 C958 0.956 . S
H971 C958 0.961 . S
H972 C958 0.961 . S
H973 C959 0.958 . S
H974 C959 0.961 . S
H975 C959 0.960 . S
C976 C977 1.391 . S
C976 C978 1.394 . S
C976 H992 0.931 . S
C977 C976 1.391 . S
C977 C981 1.376 . S
C978 C976 1.394 . S
C978 C979 1.369 . S
C978 C982 1.531 . S
C979 C978 1.369 . S
C979 C980 1.410 . S
C979 C987 1.503 . S
C980 C979 1.410 . S
C980 C981 1.392 . S
C980 C983 1.511 . S
C981 C977 1.376 . S
C981 C980 1.392 . S
C981 H993 0.929 . S
C982 C978 1.531 . S
C982 H994 0.960 . S
C982 H995 0.962 . S
C982 H996 0.960 . S
C983 C980 1.511 . S
C983 H997 0.961 . S
C983 H998 0.961 . S
C983 H999 0.961 . S
C984 C985 1.370 . S
C984 C986 1.363 . S
C984 H1000 0.931 . S
C985 C984 1.370 . S
C985 C989 1.408 . S
C986 C984 1.363 . S
C986 C987 1.370 . S
C986 C990 1.524 . S
C987 C979 1.503 . S
C987 C986 1.370 . S
C987 C988 1.403 . S
C988 C987 1.403 . S
C988 C989 1.404 . S
C988 C991 1.539 . S
C989 C985 1.408 . S
C989 C988 1.404 . S
C989 H1001 0.930 . S
C990 C986 1.524 . S
C990 H1002 0.956 . S
C990 H1003 0.961 . S
C990 H1004 0.961 . S
C991 C988 1.539 . S
C991 H1005 0.958 . S
C991 H1006 0.961 . S
C991 H1007 0.960 . S
H992 C976 0.931 . S
H993 C981 0.929 . S
H994 C982 0.960 . S
H995 C982 0.962 . S
H996 C982 0.960 . S
H997 C983 0.961 . S
H998 C983 0.961 . S
H999 C983 0.961 . S
H1000 C984 0.931 . S
H1001 C989 0.930 . S
H1002 C990 0.956 . S
H1003 C990 0.961 . S
H1004 C990 0.961 . S
H1005 C991 0.958 . S
H1006 C991 0.961 . S
H1007 C991 0.960 . S
C1008 C1009 1.391 . S
C1008 C1010 1.394 . S
C1008 H1024 0.931 . S
C1009 C1008 1.391 . S
C1009 C1013 1.376 1_655 S
C1010 C1008 1.394 . S
C1010 C1011 1.369 . S
C1010 C1014 1.531 . S
C1011 C1010 1.369 . S
C1011 C1012 1.410 1_655 S
C1011 C1019 1.503 . S
C1012 C1011 1.410 1_455 S
C1012 C1013 1.392 . S
C1012 C1015 1.511 . S
C1013 C1009 1.376 1_455 S
C1013 C1012 1.392 . S
C1013 H1025 0.929 . S
C1014 C1010 1.531 . S
C1014 H1026 0.960 . S
C1014 H1027 0.962 . S
C1014 H1028 0.960 . S
C1015 C1012 1.511 . S
C1015 H1029 0.961 . S
C1015 H1030 0.961 . S
C1015 H1031 0.961 . S
C1016 C1017 1.370 . S
C1016 C1018 1.363 . S
C1016 H1032 0.931 . S
C1017 C1016 1.370 . S
C1017 C1021 1.408 1_655 S
C1018 C1016 1.363 . S
C1018 C1019 1.370 . S
C1018 C1022 1.524 . S
C1019 C1011 1.503 . S
C1019 C1018 1.370 . S
C1019 C1020 1.403 1_655 S
C1020 C1019 1.403 1_455 S
C1020 C1021 1.404 . S
C1020 C1023 1.539 . S
C1021 C1017 1.408 1_455 S
C1021 C1020 1.404 . S
C1021 H1033 0.930 . S
C1022 C1018 1.524 . S
C1022 H1034 0.956 . S
C1022 H1035 0.961 . S
C1022 H1036 0.961 . S
C1023 C1020 1.539 . S
C1023 H1037 0.958 . S
C1023 H1038 0.961 . S
C1023 H1039 0.960 . S
H1024 C1008 0.931 . S
H1025 C1013 0.929 . S
H1026 C1014 0.960 . S
H1027 C1014 0.962 . S
H1028 C1014 0.960 . S
H1029 C1015 0.961 . S
H1030 C1015 0.961 . S
H1031 C1015 0.961 . S
H1032 C1016 0.931 . S
H1033 C1021 0.930 . S
H1034 C1022 0.956 . S
H1035 C1022 0.961 . S
H1036 C1022 0.961 . S
H1037 C1023 0.958 . S
H1038 C1023 0.961 . S
H1039 C1023 0.960 . S
C1040 C1041 1.391 . S
C1040 C1042 1.394 . S
C1040 H1056 0.931 . S
C1041 C1040 1.391 . S
C1041 C1045 1.376 . S
C1042 C1040 1.394 . S
C1042 C1043 1.369 . S
C1042 C1046 1.531 . S
C1043 C1042 1.369 . S
C1043 C1044 1.410 . S
C1043 C1051 1.503 . S
C1044 C1043 1.410 . S
C1044 C1045 1.392 . S
C1044 C1047 1.511 . S
C1045 C1041 1.376 . S
C1045 C1044 1.392 . S
C1045 H1057 0.929 . S
C1046 C1042 1.531 . S
C1046 H1058 0.960 . S
C1046 H1059 0.962 . S
C1046 H1060 0.960 . S
C1047 C1044 1.511 . S
C1047 H1061 0.961 . S
C1047 H1062 0.961 . S
C1047 H1063 0.961 . S
C1048 C1049 1.370 . S
C1048 C1050 1.363 . S
C1048 H1064 0.931 . S
C1049 C1048 1.370 . S
C1049 C1053 1.408 . S
C1050 C1048 1.363 . S
C1050 C1051 1.370 . S
C1050 C1054 1.524 . S
C1051 C1043 1.503 . S
C1051 C1050 1.370 . S
C1051 C1052 1.403 . S
C1052 C1051 1.403 . S
C1052 C1053 1.404 . S
C1052 C1055 1.539 . S
C1053 C1049 1.408 . S
C1053 C1052 1.404 . S
C1053 H1065 0.930 . S
C1054 C1050 1.524 . S
C1054 H1066 0.956 . S
C1054 H1067 0.961 . S
C1054 H1068 0.961 . S
C1055 C1052 1.539 . S
C1055 H1069 0.958 . S
C1055 H1070 0.961 . S
C1055 H1071 0.960 . S
H1056 C1040 0.931 . S
H1057 C1045 0.929 . S
H1058 C1046 0.960 . S
H1059 C1046 0.962 . S
H1060 C1046 0.960 . S
H1061 C1047 0.961 . S
H1062 C1047 0.961 . S
H1063 C1047 0.961 . S
H1064 C1048 0.931 . S
H1065 C1053 0.930 . S
H1066 C1054 0.956 . S
H1067 C1054 0.961 . S
H1068 C1054 0.961 . S
H1069 C1055 0.958 . S
H1070 C1055 0.961 . S
H1071 C1055 0.960 . S
C1072 C1073 1.391 . S
C1072 C1074 1.394 . S
C1072 H1088 0.931 . S
C1073 C1072 1.391 . S
C1073 C1077 1.376 . S
C1074 C1072 1.394 . S
C1074 C1075 1.369 . S
C1074 C1078 1.531 . S
C1075 C1074 1.369 . S
C1075 C1076 1.410 . S
C1075 C1083 1.503 . S
C1076 C1075 1.410 . S
C1076 C1077 1.392 . S
C1076 C1079 1.511 . S
C1077 C1073 1.376 . S
C1077 C1076 1.392 . S
C1077 H1089 0.929 . S
C1078 C1074 1.531 . S
C1078 H1090 0.960 . S
C1078 H1091 0.962 . S
C1078 H1092 0.960 . S
C1079 C1076 1.511 . S
C1079 H1093 0.961 . S
C1079 H1094 0.961 . S
C1079 H1095 0.961 . S
C1080 C1081 1.370 . S
C1080 C1082 1.363 . S
C1080 H1096 0.931 . S
C1081 C1080 1.370 . S
C1081 C1085 1.408 . S
C1082 C1080 1.363 . S
C1082 C1083 1.370 . S
C1082 C1086 1.524 . S
C1083 C1075 1.503 . S
C1083 C1082 1.370 . S
C1083 C1084 1.403 . S
C1084 C1083 1.403 . S
C1084 C1085 1.404 . S
C1084 C1087 1.539 . S
C1085 C1081 1.408 . S
C1085 C1084 1.404 . S
C1085 H1097 0.930 . S
C1086 C1082 1.524 . S
C1086 H1098 0.956 . S
C1086 H1099 0.961 . S
C1086 H1100 0.961 . S
C1087 C1084 1.539 . S
C1087 H1101 0.958 . S
C1087 H1102 0.961 . S
C1087 H1103 0.960 . S
H1088 C1072 0.931 . S
H1089 C1077 0.929 . S
H1090 C1078 0.960 . S
H1091 C1078 0.962 . S
H1092 C1078 0.960 . S
H1093 C1079 0.961 . S
H1094 C1079 0.961 . S
H1095 C1079 0.961 . S
H1096 C1080 0.931 . S
H1097 C1085 0.930 . S
H1098 C1086 0.956 . S
H1099 C1086 0.961 . S
H1100 C1086 0.961 . S
H1101 C1087 0.958 . S
H1102 C1087 0.961 . S
H1103 C1087 0.960 . S
C1104 C1105 1.391 . S
C1104 C1106 1.394 . S
C1104 H1120 0.931 . S
C1105 C1104 1.391 . S
C1105 C1109 1.376 . S
C1106 C1104 1.394 . S
C1106 C1107 1.369 . S
C1106 C1110 1.531 . S
C1107 C1106 1.369 . S
C1107 C1108 1.410 . S
C1107 C1115 1.503 . S
C1108 C1107 1.410 . S
C1108 C1109 1.392 . S
C1108 C1111 1.511 . S
C1109 C1105 1.376 . S
C1109 C1108 1.392 . S
C1109 H1121 0.929 . S
C1110 C1106 1.531 . S
C1110 H1122 0.960 . S
C1110 H1123 0.962 . S
C1110 H1124 0.960 . S
C1111 C1108 1.511 . S
C1111 H1125 0.961 . S
C1111 H1126 0.961 . S
C1111 H1127 0.961 . S
C1112 C1113 1.370 . S
C1112 C1114 1.363 . S
C1112 H1128 0.931 . S
C1113 C1112 1.370 . S
C1113 C1117 1.408 . S
C1114 C1112 1.363 . S
C1114 C1115 1.370 . S
C1114 C1118 1.524 . S
C1115 C1107 1.503 . S
C1115 C1114 1.370 . S
C1115 C1116 1.403 . S
C1116 C1115 1.403 . S
C1116 C1117 1.404 . S
C1116 C1119 1.539 . S
C1117 C1113 1.408 . S
C1117 C1116 1.404 . S
C1117 H1129 0.930 . S
C1118 C1114 1.524 . S
C1118 H1130 0.956 . S
C1118 H1131 0.961 . S
C1118 H1132 0.961 . S
C1119 C1116 1.539 . S
C1119 H1133 0.958 . S
C1119 H1134 0.961 . S
C1119 H1135 0.960 . S
H1120 C1104 0.931 . S
H1121 C1109 0.929 . S
H1122 C1110 0.960 . S
H1123 C1110 0.962 . S
H1124 C1110 0.960 . S
H1125 C1111 0.961 . S
H1126 C1111 0.961 . S
H1127 C1111 0.961 . S
H1128 C1112 0.931 . S
H1129 C1117 0.930 . S
H1130 C1118 0.956 . S
H1131 C1118 0.961 . S
H1132 C1118 0.961 . S
H1133 C1119 0.958 . S
H1134 C1119 0.961 . S
H1135 C1119 0.960 . S
C1136 C1137 1.391 . S
C1136 C1138 1.394 . S
C1136 H1152 0.931 . S
C1137 C1136 1.391 . S
C1137 C1141 1.376 . S
C1138 C1136 1.394 . S
C1138 C1139 1.369 . S
C1138 C1142 1.531 . S
C1139 C1138 1.369 . S
C1139 C1140 1.410 . S
C1139 C1147 1.503 . S
C1140 C1139 1.410 . S
C1140 C1141 1.392 . S
C1140 C1143 1.511 . S
C1141 C1137 1.376 . S
C1141 C1140 1.392 . S
C1141 H1153 0.929 . S
C1142 C1138 1.531 . S
C1142 H1154 0.960 . S
C1142 H1155 0.962 . S
C1142 H1156 0.960 . S
C1143 C1140 1.511 . S
C1143 H1157 0.961 . S
C1143 H1158 0.961 . S
C1143 H1159 0.961 . S
C1144 C1145 1.370 . S
C1144 C1146 1.363 . S
C1144 H1160 0.931 . S
C1145 C1144 1.370 . S
C1145 C1149 1.408 . S
C1146 C1144 1.363 . S
C1146 C1147 1.370 . S
C1146 C1150 1.524 . S
C1147 C1139 1.503 . S
C1147 C1146 1.370 . S
C1147 C1148 1.403 . S
C1148 C1147 1.403 . S
C1148 C1149 1.404 . S
C1148 C1151 1.539 . S
C1149 C1145 1.408 . S
C1149 C1148 1.404 . S
C1149 H1161 0.930 . S
C1150 C1146 1.524 . S
C1150 H1162 0.956 . S
C1150 H1163 0.961 . S
C1150 H1164 0.961 . S
C1151 C1148 1.539 . S
C1151 H1165 0.958 . S
C1151 H1166 0.961 . S
C1151 H1167 0.960 . S
H1152 C1136 0.931 . S
H1153 C1141 0.929 . S
H1154 C1142 0.960 . S
H1155 C1142 0.962 . S
H1156 C1142 0.960 . S
H1157 C1143 0.961 . S
H1158 C1143 0.961 . S
H1159 C1143 0.961 . S
H1160 C1144 0.931 . S
H1161 C1149 0.930 . S
H1162 C1150 0.956 . S
H1163 C1150 0.961 . S
H1164 C1150 0.961 . S
H1165 C1151 0.958 . S
H1166 C1151 0.961 . S
H1167 C1151 0.960 . S
C1168 C1169 1.391 . S
C1168 C1170 1.394 . S
C1168 H1184 0.931 . S
C1169 C1168 1.391 . S
C1169 C1173 1.376 . S
C1170 C1168 1.394 . S
C1170 C1171 1.369 . S
C1170 C1174 1.531 . S
C1171 C1170 1.369 . S
C1171 C1172 1.410 . S
C1171 C1179 1.503 . S
C1172 C1171 1.410 . S
C1172 C1173 1.392 . S
C1172 C1175 1.511 1_545 S
C1173 C1169 1.376 . S
C1173 C1172 1.392 . S
C1173 H1185 0.929 1_545 S
C1174 C1170 1.531 . S
C1174 H1186 0.960 . S
C1174 H1187 0.962 . S
C1174 H1188 0.960 . S
C1175 C1172 1.511 1_565 S
C1175 H1189 0.961 . S
C1175 H1190 0.961 . S
C1175 H1191 0.961 . S
C1176 C1177 1.370 . S
C1176 C1178 1.363 . S
C1176 H1192 0.931 . S
C1177 C1176 1.370 . S
C1177 C1181 1.408 . S
C1178 C1176 1.363 . S
C1178 C1179 1.370 . S
C1178 C1182 1.525 . S
C1179 C1171 1.503 . S
C1179 C1178 1.370 . S
C1179 C1180 1.403 . S
C1180 C1179 1.403 . S
C1180 C1181 1.404 . S
C1180 C1183 1.539 . S
C1181 C1177 1.408 . S
C1181 C1180 1.404 . S
C1181 H1193 0.930 . S
C1182 C1178 1.525 . S
C1182 H1194 0.958 . S
C1182 H1195 0.959 1_545 S
C1182 H1196 0.959 1_545 S
C1183 C1180 1.539 . S
C1183 H1197 0.958 . S
C1183 H1198 0.961 . S
C1183 H1199 0.960 . S
H1184 C1168 0.931 . S
H1185 C1173 0.929 1_565 S
H1186 C1174 0.960 . S
H1187 C1174 0.962 . S
H1188 C1174 0.960 . S
H1189 C1175 0.961 . S
H1190 C1175 0.961 . S
H1191 C1175 0.961 . S
H1192 C1176 0.931 . S
H1193 C1181 0.930 . S
H1194 C1182 0.958 . S
H1195 C1182 0.959 1_565 S
H1196 C1182 0.959 1_565 S
H1197 C1183 0.958 . S
H1198 C1183 0.961 . S
H1199 C1183 0.960 . S
C1200 C1201 1.391 . S
C1200 C1202 1.394 . S
C1200 H1216 0.931 . S
C1201 C1200 1.391 . S
C1201 C1205 1.376 . S
C1202 C1200 1.394 . S
C1202 C1203 1.369 . S
C1202 C1206 1.531 . S
C1203 C1202 1.369 . S
C1203 C1204 1.410 . S
C1203 C1211 1.503 . S
C1204 C1203 1.410 . S
C1204 C1205 1.392 . S
C1204 C1207 1.511 . S
C1205 C1201 1.376 . S
C1205 C1204 1.392 . S
C1205 H1217 0.929 . S
C1206 C1202 1.531 . S
C1206 H1218 0.960 1_554 S
C1206 H1219 0.962 . S
C1206 H1220 0.960 1_554 S
C1207 C1204 1.511 . S
C1207 H1221 0.961 . S
C1207 H1222 0.961 . S
C1207 H1223 0.961 . S
C1208 C1209 1.370 . S
C1208 C1210 1.363 . S
C1208 H1224 0.931 . S
C1209 C1208 1.370 . S
C1209 C1213 1.408 1_554 S
C1210 C1208 1.363 . S
C1210 C1211 1.370 . S
C1210 C1214 1.524 . S
C1211 C1203 1.503 . S
C1211 C1210 1.370 . S
C1211 C1212 1.403 1_554 S
C1212 C1211 1.403 1_556 S
C1212 C1213 1.404 . S
C1212 C1215 1.539 . S
C1213 C1209 1.408 1_556 S
C1213 C1212 1.404 . S
C1213 H1225 0.930 . S
C1214 C1210 1.524 . S
C1214 H1226 0.956 . S
C1214 H1227 0.961 . S
C1214 H1228 0.961 . S
C1215 C1212 1.539 . S
C1215 H1229 0.958 . S
C1215 H1230 0.961 . S
C1215 H1231 0.960 . S
H1216 C1200 0.931 . S
H1217 C1205 0.929 . S
H1218 C1206 0.960 1_556 S
H1219 C1206 0.962 . S
H1220 C1206 0.960 1_556 S
H1221 C1207 0.961 . S
H1222 C1207 0.961 . S
H1223 C1207 0.961 . S
H1224 C1208 0.931 . S
H1225 C1213 0.930 . S
H1226 C1214 0.956 . S
H1227 C1214 0.961 . S
H1228 C1214 0.961 . S
H1229 C1215 0.958 . S
H1230 C1215 0.961 . S
H1231 C1215 0.960 . S
C1232 C1233 1.391 . S
C1232 C1234 1.394 . S
C1232 H1248 0.931 . S
C1233 C1232 1.391 . S
C1233 C1237 1.376 . S
C1234 C1232 1.394 . S
C1234 C1235 1.369 . S
C1234 C1238 1.531 . S
C1235 C1234 1.369 . S
C1235 C1236 1.410 . S
C1235 C1243 1.503 . S
C1236 C1235 1.410 . S
C1236 C1237 1.392 . S
C1236 C1239 1.511 . S
C1237 C1233 1.376 . S
C1237 C1236 1.392 . S
C1237 H1249 0.929 . S
C1238 C1234 1.531 . S
C1238 H1250 0.960 . S
C1238 H1251 0.962 . S
C1238 H1252 0.960 . S
C1239 C1236 1.511 . S
C1239 H1253 0.961 . S
C1239 H1254 0.961 . S
C1239 H1255 0.961 . S
C1240 C1241 1.370 . S
C1240 C1242 1.363 . S
C1240 H1256 0.931 . S
C1241 C1240 1.370 . S
C1241 C1245 1.408 . S
C1242 C1240 1.363 . S
C1242 C1243 1.370 . S
C1242 C1246 1.524 . S
C1243 C1235 1.503 . S
C1243 C1242 1.370 . S
C1243 C1244 1.403 . S
C1244 C1243 1.403 . S
C1244 C1245 1.404 . S
C1244 C1247 1.539 . S
C1245 C1241 1.408 . S
C1245 C1244 1.404 . S
C1245 H1257 0.930 . S
C1246 C1242 1.524 . S
C1246 H1258 0.956 . S
C1246 H1259 0.961 . S
C1246 H1260 0.961 . S
C1247 C1244 1.539 . S
C1247 H1261 0.958 . S
C1247 H1262 0.961 . S
C1247 H1263 0.960 . S
H1248 C1232 0.931 . S
H1249 C1237 0.929 . S
H1250 C1238 0.960 . S
H1251 C1238 0.962 . S
H1252 C1238 0.960 . S
H1253 C1239 0.961 . S
H1254 C1239 0.961 . S
H1255 C1239 0.961 . S
H1256 C1240 0.931 . S
H1257 C1245 0.930 . S
H1258 C1246 0.956 . S
H1259 C1246 0.961 . S
H1260 C1246 0.961 . S
H1261 C1247 0.958 . S
H1262 C1247 0.961 . S
H1263 C1247 0.960 . S
C1264 C1265 1.391 . S
C1264 C1266 1.394 . S
C1264 H1280 0.931 . S
C1265 C1264 1.391 . S
C1265 C1269 1.376 . S
C1266 C1264 1.394 . S
C1266 C1267 1.369 . S
C1266 C1270 1.531 . S
C1267 C1266 1.369 . S
C1267 C1268 1.410 . S
C1267 C1275 1.503 . S
C1268 C1267 1.410 . S
C1268 C1269 1.392 . S
C1268 C1271 1.511 . S
C1269 C1265 1.376 . S
C1269 C1268 1.392 . S
C1269 H1281 0.929 . S
C1270 C1266 1.531 . S
C1270 H1282 0.960 . S
C1270 H1283 0.962 . S
C1270 H1284 0.960 . S
C1271 C1268 1.511 . S
C1271 H1285 0.961 . S
C1271 H1286 0.961 . S
C1271 H1287 0.961 . S
C1272 C1273 1.370 . S
C1272 C1274 1.363 . S
C1272 H1288 0.931 . S
C1273 C1272 1.370 . S
C1273 C1277 1.408 . S
C1274 C1272 1.363 . S
C1274 C1275 1.370 . S
C1274 C1278 1.524 . S
C1275 C1267 1.503 . S
C1275 C1274 1.370 . S
C1275 C1276 1.403 . S
C1276 C1275 1.403 . S
C1276 C1277 1.404 . S
C1276 C1279 1.539 . S
C1277 C1273 1.408 . S
C1277 C1276 1.404 . S
C1277 H1289 0.930 . S
C1278 C1274 1.524 . S
C1278 H1290 0.956 . S
C1278 H1291 0.961 . S
C1278 H1292 0.961 . S
C1279 C1276 1.539 . S
C1279 H1293 0.958 . S
C1279 H1294 0.961 . S
C1279 H1295 0.960 . S
H1280 C1264 0.931 . S
H1281 C1269 0.929 . S
H1282 C1270 0.960 . S
H1283 C1270 0.962 . S
H1284 C1270 0.960 . S
H1285 C1271 0.961 . S
H1286 C1271 0.961 . S
H1287 C1271 0.961 . S
H1288 C1272 0.931 . S
H1289 C1277 0.930 . S
H1290 C1278 0.956 . S
H1291 C1278 0.961 . S
H1292 C1278 0.961 . S
H1293 C1279 0.958 . S
H1294 C1279 0.961 . S
H1295 C1279 0.960 . S
C1296 C1297 1.391 . S
C1296 C1298 1.394 . S
C1296 H1312 0.931 . S
C1297 C1296 1.391 . S
C1297 C1301 1.376 . S
C1298 C1296 1.394 . S
C1298 C1299 1.369 . S
C1298 C1302 1.531 . S
C1299 C1298 1.369 . S
C1299 C1300 1.410 . S
C1299 C1307 1.503 . S
C1300 C1299 1.410 . S
C1300 C1301 1.392 . S
C1300 C1303 1.511 . S
C1301 C1297 1.376 . S
C1301 C1300 1.392 . S
C1301 H1313 0.929 . S
C1302 C1298 1.531 . S
C1302 H1314 0.960 . S
C1302 H1315 0.962 . S
C1302 H1316 0.960 . S
C1303 C1300 1.511 . S
C1303 H1317 0.961 . S
C1303 H1318 0.961 . S
C1303 H1319 0.961 . S
C1304 C1305 1.370 . S
C1304 C1306 1.363 . S
C1304 H1320 0.931 . S
C1305 C1304 1.370 . S
C1305 C1309 1.408 . S
C1306 C1304 1.363 . S
C1306 C1307 1.370 . S
C1306 C1310 1.524 . S
C1307 C1299 1.503 . S
C1307 C1306 1.370 . S
C1307 C1308 1.403 . S
C1308 C1307 1.403 . S
C1308 C1309 1.404 . S
C1308 C1311 1.539 . S
C1309 C1305 1.408 . S
C1309 C1308 1.404 . S
C1309 H1321 0.930 . S
C1310 C1306 1.524 . S
C1310 H1322 0.956 . S
C1310 H1323 0.961 . S
C1310 H1324 0.961 . S
C1311 C1308 1.539 . S
C1311 H1325 0.958 . S
C1311 H1326 0.961 . S
C1311 H1327 0.960 . S
H1312 C1296 0.931 . S
H1313 C1301 0.929 . S
H1314 C1302 0.960 . S
H1315 C1302 0.962 . S
H1316 C1302 0.960 . S
H1317 C1303 0.961 . S
H1318 C1303 0.961 . S
H1319 C1303 0.961 . S
H1320 C1304 0.931 . S
H1321 C1309 0.930 . S
H1322 C1310 0.956 . S
H1323 C1310 0.961 . S
H1324 C1310 0.961 . S
H1325 C1311 0.958 . S
H1326 C1311 0.961 . S
H1327 C1311 0.960 . S
C1328 C1329 1.391 . S
C1328 C1330 1.394 . S
C1328 H1344 0.931 . S
C1329 C1328 1.391 . S
C1329 C1333 1.376 . S
C1330 C1328 1.394 . S
C1330 C1331 1.369 . S
C1330 C1334 1.531 . S
C1331 C1330 1.369 . S
C1331 C1332 1.410 . S
C1331 C1339 1.503 . S
C1332 C1331 1.410 . S
C1332 C1333 1.392 . S
C1332 C1335 1.511 . S
C1333 C1329 1.376 . S
C1333 C1332 1.392 . S
C1333 H1345 0.929 . S
C1334 C1330 1.531 . S
C1334 H1346 0.960 . S
C1334 H1347 0.962 . S
C1334 H1348 0.960 . S
C1335 C1332 1.511 . S
C1335 H1349 0.961 . S
C1335 H1350 0.961 . S
C1335 H1351 0.961 . S
C1336 C1337 1.370 . S
C1336 C1338 1.363 . S
C1336 H1352 0.931 . S
C1337 C1336 1.370 . S
C1337 C1341 1.408 . S
C1338 C1336 1.363 . S
C1338 C1339 1.370 . S
C1338 C1342 1.524 . S
C1339 C1331 1.503 . S
C1339 C1338 1.370 . S
C1339 C1340 1.403 . S
C1340 C1339 1.403 . S
C1340 C1341 1.404 . S
C1340 C1343 1.539 . S
C1341 C1337 1.408 . S
C1341 C1340 1.404 . S
C1341 H1353 0.930 . S
C1342 C1338 1.524 . S
C1342 H1354 0.956 . S
C1342 H1355 0.961 . S
C1342 H1356 0.961 . S
C1343 C1340 1.539 . S
C1343 H1357 0.958 . S
C1343 H1358 0.961 . S
C1343 H1359 0.960 . S
H1344 C1328 0.931 . S
H1345 C1333 0.929 . S
H1346 C1334 0.960 . S
H1347 C1334 0.962 . S
H1348 C1334 0.960 . S
H1349 C1335 0.961 . S
H1350 C1335 0.961 . S
H1351 C1335 0.961 . S
H1352 C1336 0.931 . S
H1353 C1341 0.930 . S
H1354 C1342 0.956 . S
H1355 C1342 0.961 . S
H1356 C1342 0.961 . S
H1357 C1343 0.958 . S
H1358 C1343 0.961 . S
H1359 C1343 0.960 . S
C1360 C1361 1.391 . S
C1360 C1362 1.394 . S
C1360 H1376 0.931 . S
C1361 C1360 1.391 . S
C1361 C1365 1.376 . S
C1362 C1360 1.394 . S
C1362 C1363 1.369 . S
C1362 C1366 1.531 . S
C1363 C1362 1.369 . S
C1363 C1364 1.410 . S
C1363 C1371 1.503 . S
C1364 C1363 1.410 . S
C1364 C1365 1.392 . S
C1364 C1367 1.511 . S
C1365 C1361 1.376 . S
C1365 C1364 1.392 . S
C1365 H1377 0.929 . S
C1366 C1362 1.531 . S
C1366 H1378 0.960 . S
C1366 H1379 0.962 . S
C1366 H1380 0.960 . S
C1367 C1364 1.511 . S
C1367 H1381 0.961 . S
C1367 H1382 0.961 . S
C1367 H1383 0.961 . S
C1368 C1369 1.370 . S
C1368 C1370 1.363 . S
C1368 H1384 0.931 . S
C1369 C1368 1.370 . S
C1369 C1373 1.408 . S
C1370 C1368 1.363 . S
C1370 C1371 1.370 . S
C1370 C1374 1.524 . S
C1371 C1363 1.503 . S
C1371 C1370 1.370 . S
C1371 C1372 1.403 . S
C1372 C1371 1.403 . S
C1372 C1373 1.404 . S
C1372 C1375 1.539 . S
C1373 C1369 1.408 . S
C1373 C1372 1.404 . S
C1373 H1385 0.930 . S
C1374 C1370 1.524 . S
C1374 H1386 0.956 . S
C1374 H1387 0.961 . S
C1374 H1388 0.961 . S
C1375 C1372 1.539 . S
C1375 H1389 0.958 . S
C1375 H1390 0.961 . S
C1375 H1391 0.960 . S
H1376 C1360 0.931 . S
H1377 C1365 0.929 . S
H1378 C1366 0.960 . S
H1379 C1366 0.962 . S
H1380 C1366 0.960 . S
H1381 C1367 0.961 . S
H1382 C1367 0.961 . S
H1383 C1367 0.961 . S
H1384 C1368 0.931 . S
H1385 C1373 0.930 . S
H1386 C1374 0.956 . S
H1387 C1374 0.961 . S
H1388 C1374 0.961 . S
H1389 C1375 0.958 . S
H1390 C1375 0.961 . S
H1391 C1375 0.960 . S
C1392 C1393 1.391 . S
C1392 C1394 1.394 . S
C1392 H1408 0.931 . S
C1393 C1392 1.391 . S
C1393 C1397 1.376 . S
C1394 C1392 1.394 . S
C1394 C1395 1.369 . S
C1394 C1398 1.531 . S
C1395 C1394 1.369 . S
C1395 C1396 1.410 . S
C1395 C1403 1.503 . S
C1396 C1395 1.410 . S
C1396 C1397 1.392 . S
C1396 C1399 1.511 . S
C1397 C1393 1.376 . S
C1397 C1396 1.392 . S
C1397 H1409 0.929 . S
C1398 C1394 1.531 . S
C1398 H1410 0.960 . S
C1398 H1411 0.962 . S
C1398 H1412 0.960 . S
C1399 C1396 1.511 . S
C1399 H1413 0.961 . S
C1399 H1414 0.961 . S
C1399 H1415 0.961 . S
C1400 C1401 1.370 . S
C1400 C1402 1.363 . S
C1400 H1416 0.931 . S
C1401 C1400 1.370 . S
C1401 C1405 1.408 . S
C1402 C1400 1.363 . S
C1402 C1403 1.370 . S
C1402 C1406 1.524 . S
C1403 C1395 1.503 . S
C1403 C1402 1.370 . S
C1403 C1404 1.403 . S
C1404 C1403 1.403 . S
C1404 C1405 1.404 . S
C1404 C1407 1.539 . S
C1405 C1401 1.408 . S
C1405 C1404 1.404 . S
C1405 H1417 0.930 . S
C1406 C1402 1.524 . S
C1406 H1418 0.956 . S
C1406 H1419 0.961 . S
C1406 H1420 0.961 . S
C1407 C1404 1.539 . S
C1407 H1421 0.958 . S
C1407 H1422 0.961 . S
C1407 H1423 0.960 . S
H1408 C1392 0.931 . S
H1409 C1397 0.929 . S
H1410 C1398 0.960 . S
H1411 C1398 0.962 . S
H1412 C1398 0.960 . S
H1413 C1399 0.961 . S
H1414 C1399 0.961 . S
H1415 C1399 0.961 . S
H1416 C1400 0.931 . S
H1417 C1405 0.930 . S
H1418 C1406 0.956 . S
H1419 C1406 0.961 . S
H1420 C1406 0.961 . S
H1421 C1407 0.958 . S
H1422 C1407 0.961 . S
H1423 C1407 0.960 . S
C1424 C1425 1.391 . S
C1424 C1426 1.394 . S
C1424 H1440 0.931 . S
C1425 C1424 1.391 . S
C1425 C1429 1.376 . S
C1426 C1424 1.394 . S
C1426 C1427 1.369 . S
C1426 C1430 1.531 . S
C1427 C1426 1.369 . S
C1427 C1428 1.410 . S
C1427 C1435 1.503 . S
C1428 C1427 1.410 . S
C1428 C1429 1.392 . S
C1428 C1431 1.511 . S
C1429 C1425 1.376 . S
C1429 C1428 1.392 . S
C1429 H1441 0.929 . S
C1430 C1426 1.531 . S
C1430 H1442 0.960 . S
C1430 H1443 0.962 . S
C1430 H1444 0.960 . S
C1431 C1428 1.511 . S
C1431 H1445 0.961 . S
C1431 H1446 0.961 . S
C1431 H1447 0.961 . S
C1432 C1433 1.370 . S
C1432 C1434 1.363 . S
C1432 H1448 0.931 . S
C1433 C1432 1.370 . S
C1433 C1437 1.408 . S
C1434 C1432 1.363 . S
C1434 C1435 1.370 . S
C1434 C1438 1.524 . S
C1435 C1427 1.503 . S
C1435 C1434 1.370 . S
C1435 C1436 1.403 . S
C1436 C1435 1.403 . S
C1436 C1437 1.404 . S
C1436 C1439 1.539 . S
C1437 C1433 1.408 . S
C1437 C1436 1.404 . S
C1437 H1449 0.930 . S
C1438 C1434 1.524 . S
C1438 H1450 0.956 . S
C1438 H1451 0.961 . S
C1438 H1452 0.961 . S
C1439 C1436 1.539 . S
C1439 H1453 0.958 . S
C1439 H1454 0.961 . S
C1439 H1455 0.960 . S
H1440 C1424 0.931 . S
H1441 C1429 0.929 . S
H1442 C1430 0.960 . S
H1443 C1430 0.962 . S
H1444 C1430 0.960 . S
H1445 C1431 0.961 . S
H1446 C1431 0.961 . S
H1447 C1431 0.961 . S
H1448 C1432 0.931 . S
H1449 C1437 0.930 . S
H1450 C1438 0.956 . S
H1451 C1438 0.961 . S
H1452 C1438 0.961 . S
H1453 C1439 0.958 . S
H1454 C1439 0.961 . S
H1455 C1439 0.960 . S
C1456 C1457 1.391 . S
C1456 C1458 1.394 . S
C1456 H1472 0.931 . S
C1457 C1456 1.391 . S
C1457 C1461 1.376 . S
C1458 C1456 1.394 . S
C1458 C1459 1.369 . S
C1458 C1462 1.531 . S
C1459 C1458 1.369 . S
C1459 C1460 1.410 . S
C1459 C1467 1.503 . S
C1460 C1459 1.410 . S
C1460 C1461 1.392 . S
C1460 C1463 1.511 . S
C1461 C1457 1.376 . S
C1461 C1460 1.392 . S
C1461 H1473 0.929 . S
C1462 C1458 1.531 . S
C1462 H1474 0.960 . S
C1462 H1475 0.962 . S
C1462 H1476 0.960 . S
C1463 C1460 1.511 . S
C1463 H1477 0.961 . S
C1463 H1478 0.961 . S
C1463 H1479 0.961 . S
C1464 C1465 1.370 . S
C1464 C1466 1.363 . S
C1464 H1480 0.931 . S
C1465 C1464 1.370 . S
C1465 C1469 1.408 . S
C1466 C1464 1.363 . S
C1466 C1467 1.370 . S
C1466 C1470 1.524 . S
C1467 C1459 1.503 . S
C1467 C1466 1.370 . S
C1467 C1468 1.403 . S
C1468 C1467 1.403 . S
C1468 C1469 1.404 . S
C1468 C1471 1.539 . S
C1469 C1465 1.408 . S
C1469 C1468 1.404 . S
C1469 H1481 0.930 . S
C1470 C1466 1.524 . S
C1470 H1482 0.956 . S
C1470 H1483 0.961 . S
C1470 H1484 0.961 . S
C1471 C1468 1.539 . S
C1471 H1485 0.958 . S
C1471 H1486 0.961 . S
C1471 H1487 0.960 . S
H1472 C1456 0.931 . S
H1473 C1461 0.929 . S
H1474 C1462 0.960 . S
H1475 C1462 0.962 . S
H1476 C1462 0.960 . S
H1477 C1463 0.961 . S
H1478 C1463 0.961 . S
H1479 C1463 0.961 . S
H1480 C1464 0.931 . S
H1481 C1469 0.930 . S
H1482 C1470 0.956 . S
H1483 C1470 0.961 . S
H1484 C1470 0.961 . S
H1485 C1471 0.958 . S
H1486 C1471 0.961 . S
H1487 C1471 0.960 . S
C1488 C1489 1.391 . S
C1488 C1490 1.394 . S
C1488 H1504 0.931 . S
C1489 C1488 1.391 . S
C1489 C1493 1.376 . S
C1490 C1488 1.394 . S
C1490 C1491 1.369 . S
C1490 C1494 1.531 . S
C1491 C1490 1.369 . S
C1491 C1492 1.410 . S
C1491 C1499 1.503 . S
C1492 C1491 1.410 . S
C1492 C1493 1.392 . S
C1492 C1495 1.511 . S
C1493 C1489 1.376 . S
C1493 C1492 1.392 . S
C1493 H1505 0.929 . S
C1494 C1490 1.531 . S
C1494 H1506 0.960 . S
C1494 H1507 0.962 . S
C1494 H1508 0.960 . S
C1495 C1492 1.511 . S
C1495 H1509 0.961 . S
C1495 H1510 0.961 . S
C1495 H1511 0.961 . S
C1496 C1497 1.370 . S
C1496 C1498 1.363 . S
C1496 H1512 0.931 . S
C1497 C1496 1.370 . S
C1497 C1501 1.408 . S
C1498 C1496 1.363 . S
C1498 C1499 1.370 . S
C1498 C1502 1.524 . S
C1499 C1491 1.503 . S
C1499 C1498 1.370 . S
C1499 C1500 1.403 . S
C1500 C1499 1.403 . S
C1500 C1501 1.404 . S
C1500 C1503 1.539 . S
C1501 C1497 1.408 . S
C1501 C1500 1.404 . S
C1501 H1513 0.930 . S
C1502 C1498 1.524 . S
C1502 H1514 0.956 . S
C1502 H1515 0.961 . S
C1502 H1516 0.961 . S
C1503 C1500 1.539 . S
C1503 H1517 0.958 . S
C1503 H1518 0.961 . S
C1503 H1519 0.960 . S
H1504 C1488 0.931 . S
H1505 C1493 0.929 . S
H1506 C1494 0.960 . S
H1507 C1494 0.962 . S
H1508 C1494 0.960 . S
H1509 C1495 0.961 . S
H1510 C1495 0.961 . S
H1511 C1495 0.961 . S
H1512 C1496 0.931 . S
H1513 C1501 0.930 . S
H1514 C1502 0.956 . S
H1515 C1502 0.961 . S
H1516 C1502 0.961 . S
H1517 C1503 0.958 . S
H1518 C1503 0.961 . S
H1519 C1503 0.960 . S
C1520 C1521 1.391 . S
C1520 C1522 1.394 . S
C1520 H1536 0.931 . S
C1521 C1520 1.391 . S
C1521 C1525 1.376 . S
C1522 C1520 1.394 . S
C1522 C1523 1.369 . S
C1522 C1526 1.531 1_554 S
C1523 C1522 1.369 . S
C1523 C1524 1.410 . S
C1523 C1531 1.503 . S
C1524 C1523 1.410 . S
C1524 C1525 1.392 . S
C1524 C1527 1.511 . S
C1525 C1521 1.376 . S
C1525 C1524 1.392 . S
C1525 H1537 0.929 . S
C1526 C1522 1.531 1_556 S
C1526 H1538 0.960 1_556 S
C1526 H1539 0.962 . S
C1526 H1540 0.960 . S
C1527 C1524 1.511 . S
C1527 H1541 0.961 . S
C1527 H1542 0.961 . S
C1527 H1543 0.961 . S
C1528 C1529 1.370 . S
C1528 C1530 1.363 . S
C1528 H1544 0.931 1_554 S
C1529 C1528 1.370 . S
C1529 C1533 1.408 . S
C1530 C1528 1.363 . S
C1530 C1531 1.370 . S
C1530 C1534 1.524 1_554 S
C1531 C1523 1.503 . S
C1531 C1530 1.370 . S
C1531 C1532 1.403 . S
C1532 C1531 1.403 . S
C1532 C1533 1.404 . S
C1532 C1535 1.539 . S
C1533 C1529 1.408 . S
C1533 C1532 1.404 . S
C1533 H1545 0.930 . S
C1534 C1530 1.524 1_556 S
C1534 H1546 0.956 . S
C1534 H1547 0.961 . S
C1534 H1548 0.961 . S
C1535 C1532 1.539 . S
C1535 H1549 0.958 . S
C1535 H1550 0.961 . S
C1535 H1551 0.960 . S
H1536 C1520 0.931 . S
H1537 C1525 0.929 . S
H1538 C1526 0.960 1_554 S
H1539 C1526 0.962 . S
H1540 C1526 0.960 . S
H1541 C1527 0.961 . S
H1542 C1527 0.961 . S
H1543 C1527 0.961 . S
H1544 C1528 0.931 1_556 S
H1545 C1533 0.930 . S
H1546 C1534 0.956 . S
H1547 C1534 0.961 . S
H1548 C1534 0.961 . S
H1549 C1535 0.958 . S
H1550 C1535 0.961 . S
H1551 C1535 0.960 . S
C1552 C1553 1.391 . S
C1552 C1554 1.394 . S
C1552 H1568 0.931 . S
C1553 C1552 1.391 . S
C1553 C1557 1.376 . S
C1554 C1552 1.394 . S
C1554 C1555 1.369 . S
C1554 C1558 1.531 . S
C1555 C1554 1.369 . S
C1555 C1556 1.410 . S
C1555 C1563 1.503 . S
C1556 C1555 1.410 . S
C1556 C1557 1.392 . S
C1556 C1559 1.511 . S
C1557 C1553 1.376 . S
C1557 C1556 1.392 . S
C1557 H1569 0.929 . S
C1558 C1554 1.531 . S
C1558 H1570 0.960 . S
C1558 H1571 0.962 . S
C1558 H1572 0.960 . S
C1559 C1556 1.511 . S
C1559 H1573 0.961 . S
C1559 H1574 0.961 . S
C1559 H1575 0.961 . S
C1560 C1561 1.370 . S
C1560 C1562 1.363 . S
C1560 H1576 0.931 . S
C1561 C1560 1.370 . S
C1561 C1565 1.408 . S
C1562 C1560 1.363 . S
C1562 C1563 1.370 . S
C1562 C1566 1.524 . S
C1563 C1555 1.503 . S
C1563 C1562 1.370 . S
C1563 C1564 1.403 . S
C1564 C1563 1.403 . S
C1564 C1565 1.404 . S
C1564 C1567 1.539 . S
C1565 C1561 1.408 . S
C1565 C1564 1.404 . S
C1565 H1577 0.930 . S
C1566 C1562 1.524 . S
C1566 H1578 0.956 . S
C1566 H1579 0.961 . S
C1566 H1580 0.961 . S
C1567 C1564 1.539 . S
C1567 H1581 0.958 . S
C1567 H1582 0.961 . S
C1567 H1583 0.960 . S
H1568 C1552 0.931 . S
H1569 C1557 0.929 . S
H1570 C1558 0.960 . S
H1571 C1558 0.962 . S
H1572 C1558 0.960 . S
H1573 C1559 0.961 . S
H1574 C1559 0.961 . S
H1575 C1559 0.961 . S
H1576 C1560 0.931 . S
H1577 C1565 0.930 . S
H1578 C1566 0.956 . S
H1579 C1566 0.961 . S
H1580 C1566 0.961 . S
H1581 C1567 0.958 . S
H1582 C1567 0.961 . S
H1583 C1567 0.960 . S
C1584 C1585 1.391 . S
C1584 C1586 1.394 . S
C1584 H1600 0.931 . S
C1585 C1584 1.391 . S
C1585 C1589 1.376 . S
C1586 C1584 1.394 . S
C1586 C1587 1.369 . S
C1586 C1590 1.531 . S
C1587 C1586 1.369 . S
C1587 C1588 1.410 . S
C1587 C1595 1.503 . S
C1588 C1587 1.410 . S
C1588 C1589 1.392 . S
C1588 C1591 1.511 . S
C1589 C1585 1.376 . S
C1589 C1588 1.392 . S
C1589 H1601 0.929 . S
C1590 C1586 1.531 . S
C1590 H1602 0.960 . S
C1590 H1603 0.962 . S
C1590 H1604 0.960 . S
C1591 C1588 1.511 . S
C1591 H1605 0.961 . S
C1591 H1606 0.961 . S
C1591 H1607 0.961 . S
C1592 C1593 1.370 . S
C1592 C1594 1.363 . S
C1592 H1608 0.931 . S
C1593 C1592 1.370 . S
C1593 C1597 1.408 . S
C1594 C1592 1.363 . S
C1594 C1595 1.370 . S
C1594 C1598 1.524 . S
C1595 C1587 1.503 . S
C1595 C1594 1.370 . S
C1595 C1596 1.403 . S
C1596 C1595 1.403 . S
C1596 C1597 1.404 . S
C1596 C1599 1.539 . S
C1597 C1593 1.408 . S
C1597 C1596 1.404 . S
C1597 H1609 0.930 . S
C1598 C1594 1.524 . S
C1598 H1610 0.956 . S
C1598 H1611 0.961 . S
C1598 H1612 0.961 . S
C1599 C1596 1.539 . S
C1599 H1613 0.958 . S
C1599 H1614 0.961 . S
C1599 H1615 0.960 . S
H1600 C1584 0.931 . S
H1601 C1589 0.929 . S
H1602 C1590 0.960 . S
H1603 C1590 0.962 . S
H1604 C1590 0.960 . S
H1605 C1591 0.961 . S
H1606 C1591 0.961 . S
H1607 C1591 0.961 . S
H1608 C1592 0.931 . S
H1609 C1597 0.930 . S
H1610 C1598 0.956 . S
H1611 C1598 0.961 . S
H1612 C1598 0.961 . S
H1613 C1599 0.958 . S
H1614 C1599 0.961 . S
H1615 C1599 0.960 . S
C1616 C1617 1.391 . S
C1616 C1618 1.394 . S
C1616 H1632 0.931 . S
C1617 C1616 1.391 . S
C1617 C1621 1.376 . S
C1618 C1616 1.394 . S
C1618 C1619 1.369 . S
C1618 C1622 1.531 . S
C1619 C1618 1.369 . S
C1619 C1620 1.410 . S
C1619 C1627 1.503 . S
C1620 C1619 1.410 . S
C1620 C1621 1.392 . S
C1620 C1623 1.511 . S
C1621 C1617 1.376 . S
C1621 C1620 1.392 . S
C1621 H1633 0.929 . S
C1622 C1618 1.531 . S
C1622 H1634 0.960 . S
C1622 H1635 0.962 . S
C1622 H1636 0.960 . S
C1623 C1620 1.511 . S
C1623 H1637 0.961 . S
C1623 H1638 0.961 . S
C1623 H1639 0.961 . S
C1624 C1625 1.370 . S
C1624 C1626 1.363 . S
C1624 H1640 0.931 . S
C1625 C1624 1.370 . S
C1625 C1629 1.408 . S
C1626 C1624 1.363 . S
C1626 C1627 1.370 . S
C1626 C1630 1.524 . S
C1627 C1619 1.503 . S
C1627 C1626 1.370 . S
C1627 C1628 1.403 . S
C1628 C1627 1.403 . S
C1628 C1629 1.404 . S
C1628 C1631 1.539 . S
C1629 C1625 1.408 . S
C1629 C1628 1.404 . S
C1629 H1641 0.930 . S
C1630 C1626 1.524 . S
C1630 H1642 0.956 . S
C1630 H1643 0.961 . S
C1630 H1644 0.961 . S
C1631 C1628 1.539 . S
C1631 H1645 0.958 . S
C1631 H1646 0.961 . S
C1631 H1647 0.960 . S
H1632 C1616 0.931 . S
H1633 C1621 0.929 . S
H1634 C1622 0.960 . S
H1635 C1622 0.962 . S
H1636 C1622 0.960 . S
H1637 C1623 0.961 . S
H1638 C1623 0.961 . S
H1639 C1623 0.961 . S
H1640 C1624 0.931 . S
H1641 C1629 0.930 . S
H1642 C1630 0.956 . S
H1643 C1630 0.961 . S
H1644 C1630 0.961 . S
H1645 C1631 0.958 . S
H1646 C1631 0.961 . S
H1647 C1631 0.960 . S
C1648 C1649 1.391 . S
C1648 C1650 1.394 . S
C1648 H1664 0.931 . S
C1649 C1648 1.391 . S
C1649 C1653 1.376 . S
C1650 C1648 1.394 . S
C1650 C1651 1.369 . S
C1650 C1654 1.531 . S
C1651 C1650 1.369 . S
C1651 C1652 1.410 . S
C1651 C1659 1.503 . S
C1652 C1651 1.410 . S
C1652 C1653 1.392 . S
C1652 C1655 1.511 . S
C1653 C1649 1.376 . S
C1653 C1652 1.392 . S
C1653 H1665 0.929 . S
C1654 C1650 1.531 . S
C1654 H1666 0.960 . S
C1654 H1667 0.962 . S
C1654 H1668 0.960 . S
C1655 C1652 1.511 . S
C1655 H1669 0.961 . S
C1655 H1670 0.961 . S
C1655 H1671 0.961 . S
C1656 C1657 1.370 . S
C1656 C1658 1.363 . S
C1656 H1672 0.931 . S
C1657 C1656 1.370 . S
C1657 C1661 1.408 . S
C1658 C1656 1.363 . S
C1658 C1659 1.370 . S
C1658 C1662 1.524 . S
C1659 C1651 1.503 . S
C1659 C1658 1.370 . S
C1659 C1660 1.403 . S
C1660 C1659 1.403 . S
C1660 C1661 1.404 . S
C1660 C1663 1.539 . S
C1661 C1657 1.408 . S
C1661 C1660 1.404 . S
C1661 H1673 0.930 . S
C1662 C1658 1.524 . S
C1662 H1674 0.956 . S
C1662 H1675 0.961 . S
C1662 H1676 0.961 . S
C1663 C1660 1.539 . S
C1663 H1677 0.958 . S
C1663 H1678 0.961 . S
C1663 H1679 0.960 . S
H1664 C1648 0.931 . S
H1665 C1653 0.929 . S
H1666 C1654 0.960 . S
H1667 C1654 0.962 . S
H1668 C1654 0.960 . S
H1669 C1655 0.961 . S
H1670 C1655 0.961 . S
H1671 C1655 0.961 . S
H1672 C1656 0.931 . S
H1673 C1661 0.930 . S
H1674 C1662 0.956 . S
H1675 C1662 0.961 . S
H1676 C1662 0.961 . S
H1677 C1663 0.958 . S
H1678 C1663 0.961 . S
H1679 C1663 0.960 . S
C1680 C1681 1.391 . S
C1680 C1682 1.394 . S
C1680 H1696 0.931 . S
C1681 C1680 1.391 . S
C1681 C1685 1.376 . S
C1682 C1680 1.394 . S
C1682 C1683 1.369 . S
C1682 C1686 1.531 . S
C1683 C1682 1.369 . S
C1683 C1684 1.410 . S
C1683 C1691 1.503 . S
C1684 C1683 1.410 . S
C1684 C1685 1.392 . S
C1684 C1687 1.512 . S
C1685 C1681 1.376 . S
C1685 C1684 1.392 . S
C1685 H1697 0.929 . S
C1686 C1682 1.531 . S
C1686 H1698 0.960 1_556 S
C1686 H1699 0.962 . S
C1686 H1700 0.949 1_556 S
C1687 C1684 1.512 . S
C1687 H1701 0.965 . S
C1687 H1702 0.966 . S
C1687 H1703 0.950 1_556 S
C1688 C1689 1.370 . S
C1688 C1690 1.363 . S
C1688 H1704 0.931 . S
C1689 C1688 1.370 . S
C1689 C1693 1.408 1_556 S
C1690 C1688 1.363 . S
C1690 C1691 1.370 . S
C1690 C1694 1.524 . S
C1691 C1683 1.503 . S
C1691 C1690 1.370 . S
C1691 C1692 1.403 1_556 S
C1692 C1691 1.403 1_554 S
C1692 C1693 1.404 . S
C1692 C1695 1.539 . S
C1693 C1689 1.408 1_554 S
C1693 C1692 1.404 . S
C1693 H1705 0.930 . S
C1694 C1690 1.524 . S
C1694 H1706 0.956 . S
C1694 H1707 0.961 . S
C1694 H1708 0.961 . S
C1695 C1692 1.539 . S
C1695 H1709 0.958 . S
C1695 H1710 0.961 . S
C1695 H1711 0.960 . S
H1696 C1680 0.931 . S
H1697 C1685 0.929 . S
H1698 C1686 0.960 1_554 S
H1699 C1686 0.962 . S
H1700 C1686 0.949 1_554 S
H1701 C1687 0.965 . S
H1702 C1687 0.966 . S
H1703 C1687 0.950 1_554 S
H1704 C1688 0.931 . S
H1705 C1693 0.930 . S
H1706 C1694 0.956 . S
H1707 C1694 0.961 . S
H1708 C1694 0.961 . S
H1709 C1695 0.958 . S
H1710 C1695 0.961 . S
H1711 C1695 0.960 . S
C1712 C1713 1.391 . S
C1712 C1714 1.394 . S
C1712 H1728 0.931 . S
C1713 C1712 1.391 . S
C1713 C1717 1.376 . S
C1714 C1712 1.394 . S
C1714 C1715 1.369 . S
C1714 C1718 1.531 . S
C1715 C1714 1.369 . S
C1715 C1716 1.410 . S
C1715 C1723 1.503 . S
C1716 C1715 1.410 . S
C1716 C1717 1.392 . S
C1716 C1719 1.511 . S
C1717 C1713 1.376 . S
C1717 C1716 1.392 . S
C1717 H1729 0.929 . S
C1718 C1714 1.531 . S
C1718 H1730 0.960 . S
C1718 H1731 0.962 . S
C1718 H1732 0.960 . S
C1719 C1716 1.511 . S
C1719 H1733 0.961 . S
C1719 H1734 0.961 . S
C1719 H1735 0.961 . S
C1720 C1721 1.370 . S
C1720 C1722 1.363 . S
C1720 H1736 0.931 . S
C1721 C1720 1.370 . S
C1721 C1725 1.408 . S
C1722 C1720 1.363 . S
C1722 C1723 1.370 . S
C1722 C1726 1.524 . S
C1723 C1715 1.503 . S
C1723 C1722 1.370 . S
C1723 C1724 1.403 . S
C1724 C1723 1.403 . S
C1724 C1725 1.404 . S
C1724 C1727 1.539 . S
C1725 C1721 1.408 . S
C1725 C1724 1.404 . S
C1725 H1737 0.930 . S
C1726 C1722 1.524 . S
C1726 H1738 0.956 . S
C1726 H1739 0.961 . S
C1726 H1740 0.961 . S
C1727 C1724 1.539 . S
C1727 H1741 0.958 . S
C1727 H1742 0.961 . S
C1727 H1743 0.960 . S
H1728 C1712 0.931 . S
H1729 C1717 0.929 . S
H1730 C1718 0.960 . S
H1731 C1718 0.962 . S
H1732 C1718 0.960 . S
H1733 C1719 0.961 . S
H1734 C1719 0.961 . S
H1735 C1719 0.961 . S
H1736 C1720 0.931 . S
H1737 C1725 0.930 . S
H1738 C1726 0.956 . S
H1739 C1726 0.961 . S
H1740 C1726 0.961 . S
H1741 C1727 0.958 . S
H1742 C1727 0.961 . S
H1743 C1727 0.960 . S
C1744 C1745 1.391 . S
C1744 C1746 1.394 . S
C1744 H1760 0.931 . S
C1745 C1744 1.391 . S
C1745 C1749 1.376 . S
C1746 C1744 1.394 . S
C1746 C1747 1.369 . S
C1746 C1750 1.531 . S
C1747 C1746 1.369 . S
C1747 C1748 1.410 . S
C1747 C1755 1.503 . S
C1748 C1747 1.410 . S
C1748 C1749 1.392 . S
C1748 C1751 1.511 . S
C1749 C1745 1.376 . S
C1749 C1748 1.392 . S
C1749 H1761 0.929 . S
C1750 C1746 1.531 . S
C1750 H1762 0.960 . S
C1750 H1763 0.962 . S
C1750 H1764 0.960 . S
C1751 C1748 1.511 . S
C1751 H1765 0.961 . S
C1751 H1766 0.961 . S
C1751 H1767 0.961 . S
C1752 C1753 1.370 . S
C1752 C1754 1.363 . S
C1752 H1768 0.931 . S
C1753 C1752 1.370 . S
C1753 C1757 1.408 . S
C1754 C1752 1.363 . S
C1754 C1755 1.370 . S
C1754 C1758 1.524 . S
C1755 C1747 1.503 . S
C1755 C1754 1.370 . S
C1755 C1756 1.403 . S
C1756 C1755 1.403 . S
C1756 C1757 1.404 . S
C1756 C1759 1.539 . S
C1757 C1753 1.408 . S
C1757 C1756 1.404 . S
C1757 H1769 0.930 . S
C1758 C1754 1.524 . S
C1758 H1770 0.956 . S
C1758 H1771 0.961 . S
C1758 H1772 0.961 . S
C1759 C1756 1.539 . S
C1759 H1773 0.958 . S
C1759 H1774 0.961 . S
C1759 H1775 0.960 . S
H1760 C1744 0.931 . S
H1761 C1749 0.929 . S
H1762 C1750 0.960 . S
H1763 C1750 0.962 . S
H1764 C1750 0.960 . S
H1765 C1751 0.961 . S
H1766 C1751 0.961 . S
H1767 C1751 0.961 . S
H1768 C1752 0.931 . S
H1769 C1757 0.930 . S
H1770 C1758 0.956 . S
H1771 C1758 0.961 . S
H1772 C1758 0.961 . S
H1773 C1759 0.958 . S
H1774 C1759 0.961 . S
H1775 C1759 0.960 . S
C1776 C1777 1.391 . S
C1776 C1778 1.394 . S
C1776 H1792 0.931 . S
C1777 C1776 1.391 . S
C1777 C1781 1.376 . S
C1778 C1776 1.394 . S
C1778 C1779 1.369 . S
C1778 C1782 1.531 . S
C1779 C1778 1.369 . S
C1779 C1780 1.410 . S
C1779 C1787 1.503 . S
C1780 C1779 1.410 . S
C1780 C1781 1.392 . S
C1780 C1783 1.511 . S
C1781 C1777 1.376 . S
C1781 C1780 1.392 . S
C1781 H1793 0.929 . S
C1782 C1778 1.531 . S
C1782 H1794 0.960 . S
C1782 H1795 0.962 . S
C1782 H1796 0.960 . S
C1783 C1780 1.511 . S
C1783 H1797 0.961 . S
C1783 H1798 0.961 . S
C1783 H1799 0.961 . S
C1784 C1785 1.370 . S
C1784 C1786 1.363 . S
C1784 H1800 0.931 . S
C1785 C1784 1.370 . S
C1785 C1789 1.408 . S
C1786 C1784 1.363 . S
C1786 C1787 1.370 . S
C1786 C1790 1.524 . S
C1787 C1779 1.503 . S
C1787 C1786 1.370 . S
C1787 C1788 1.403 . S
C1788 C1787 1.403 . S
C1788 C1789 1.404 . S
C1788 C1791 1.539 . S
C1789 C1785 1.408 . S
C1789 C1788 1.404 . S
C1789 H1801 0.930 . S
C1790 C1786 1.524 . S
C1790 H1802 0.956 . S
C1790 H1803 0.961 . S
C1790 H1804 0.961 . S
C1791 C1788 1.539 . S
C1791 H1805 0.958 . S
C1791 H1806 0.961 . S
C1791 H1807 0.960 . S
H1792 C1776 0.931 . S
H1793 C1781 0.929 . S
H1794 C1782 0.960 . S
H1795 C1782 0.962 . S
H1796 C1782 0.960 . S
H1797 C1783 0.961 . S
H1798 C1783 0.961 . S
H1799 C1783 0.961 . S
H1800 C1784 0.931 . S
H1801 C1789 0.930 . S
H1802 C1790 0.956 . S
H1803 C1790 0.961 . S
H1804 C1790 0.961 . S
H1805 C1791 0.958 . S
H1806 C1791 0.961 . S
H1807 C1791 0.960 . S
C1808 C1809 1.391 . S
C1808 C1810 1.394 . S
C1808 H1824 0.931 . S
C1809 C1808 1.391 . S
C1809 C1813 1.376 . S
C1810 C1808 1.394 . S
C1810 C1811 1.369 . S
C1810 C1814 1.531 . S
C1811 C1810 1.369 . S
C1811 C1812 1.410 . S
C1811 C1819 1.503 . S
C1812 C1811 1.410 . S
C1812 C1813 1.392 . S
C1812 C1815 1.511 . S
C1813 C1809 1.376 . S
C1813 C1812 1.392 . S
C1813 H1825 0.929 . S
C1814 C1810 1.531 . S
C1814 H1826 0.960 . S
C1814 H1827 0.962 . S
C1814 H1828 0.960 . S
C1815 C1812 1.511 . S
C1815 H1829 0.961 . S
C1815 H1830 0.961 . S
C1815 H1831 0.961 . S
C1816 C1817 1.370 . S
C1816 C1818 1.363 . S
C1816 H1832 0.931 . S
C1817 C1816 1.370 . S
C1817 C1821 1.408 . S
C1818 C1816 1.363 . S
C1818 C1819 1.370 . S
C1818 C1822 1.524 . S
C1819 C1811 1.503 . S
C1819 C1818 1.370 . S
C1819 C1820 1.403 . S
C1820 C1819 1.403 . S
C1820 C1821 1.404 . S
C1820 C1823 1.539 . S
C1821 C1817 1.408 . S
C1821 C1820 1.404 . S
C1821 H1833 0.930 . S
C1822 C1818 1.524 . S
C1822 H1834 0.956 . S
C1822 H1835 0.961 . S
C1822 H1836 0.961 . S
C1823 C1820 1.539 . S
C1823 H1837 0.958 . S
C1823 H1838 0.961 . S
C1823 H1839 0.960 . S
H1824 C1808 0.931 . S
H1825 C1813 0.929 . S
H1826 C1814 0.960 . S
H1827 C1814 0.962 . S
H1828 C1814 0.960 . S
H1829 C1815 0.961 . S
H1830 C1815 0.961 . S
H1831 C1815 0.961 . S
H1832 C1816 0.931 . S
H1833 C1821 0.930 . S
H1834 C1822 0.956 . S
H1835 C1822 0.961 . S
H1836 C1822 0.961 . S
H1837 C1823 0.958 . S
H1838 C1823 0.961 . S
H1839 C1823 0.960 . S
C1840 C1841 1.391 . S
C1840 C1842 1.394 . S
C1840 H1856 0.931 . S
C1841 C1840 1.391 . S
C1841 C1845 1.376 . S
C1842 C1840 1.394 . S
C1842 C1843 1.369 . S
C1842 C1846 1.531 . S
C1843 C1842 1.369 . S
C1843 C1844 1.410 . S
C1843 C1851 1.503 . S
C1844 C1843 1.410 . S
C1844 C1845 1.392 . S
C1844 C1847 1.511 . S
C1845 C1841 1.376 . S
C1845 C1844 1.392 . S
C1845 H1857 0.929 . S
C1846 C1842 1.531 . S
C1846 H1858 0.960 . S
C1846 H1859 0.962 . S
C1846 H1860 0.960 . S
C1847 C1844 1.511 . S
C1847 H1861 0.961 . S
C1847 H1862 0.961 . S
C1847 H1863 0.961 . S
C1848 C1849 1.370 . S
C1848 C1850 1.363 . S
C1848 H1864 0.931 . S
C1849 C1848 1.370 . S
C1849 C1853 1.408 . S
C1850 C1848 1.363 . S
C1850 C1851 1.370 . S
C1850 C1854 1.524 . S
C1851 C1843 1.503 . S
C1851 C1850 1.370 . S
C1851 C1852 1.403 . S
C1852 C1851 1.403 . S
C1852 C1853 1.404 . S
C1852 C1855 1.539 . S
C1853 C1849 1.408 . S
C1853 C1852 1.404 . S
C1853 H1865 0.930 . S
C1854 C1850 1.524 . S
C1854 H1866 0.956 . S
C1854 H1867 0.961 . S
C1854 H1868 0.961 . S
C1855 C1852 1.539 . S
C1855 H1869 0.958 . S
C1855 H1870 0.961 . S
C1855 H1871 0.960 . S
H1856 C1840 0.931 . S
H1857 C1845 0.929 . S
H1858 C1846 0.960 . S
H1859 C1846 0.962 . S
H1860 C1846 0.960 . S
H1861 C1847 0.961 . S
H1862 C1847 0.961 . S
H1863 C1847 0.961 . S
H1864 C1848 0.931 . S
H1865 C1853 0.930 . S
H1866 C1854 0.956 . S
H1867 C1854 0.961 . S
H1868 C1854 0.961 . S
H1869 C1855 0.958 . S
H1870 C1855 0.961 . S
H1871 C1855 0.960 . S
C337 C13 0.905 . S
C345 C39 0.865 . S
C369 C55 0.749 . S
C377 C36 0.837 . S
C401 C78 0.829 . S
C409 C56 0.873 . S
C433 C14 0.864 . S
C441 C81 0.854 . S
C465 C15 0.882 . S
C473 C206 0.913 . S
C497 C162 0.856 . S
C505 C38 0.900 . S
C529 C58 1.001 . S
C537 C224 1.009 . S
C561 C77 0.883 . S
C569 C288 0.904 . S
C593 C184 0.921 . S
C601 C35 0.954 . S
C625 C266 0.851 . S
C633 C57 0.872 . S
C657 C310 0.875 . S
C665 C80 0.979 . S
C689 C16 0.957 . S
C697 C248 0.953 . S
C721 C17 0.817 . S
C729 C186 0.845 . S
C753 C265 0.927 . S
C761 C100 0.886 . S
C785 C122 0.924 . S
C793 C311 0.970 . S
C817 C247 0.932 . S
C825 C139 0.912 . S
C849 C59 0.978 . S
C857 C164 0.950 . S
C881 C205 0.997 . S
C889 C97 0.962 . S
C913 C142 1.022 . S
C921 C223 0.980 . S
C945 C121 1.017 . S
C953 C245 1.000 . S
C977 C203 0.850 . S
C985 C120 0.869 . S
C1009 C249 0.837 . S
C1017 C161 0.883 . S
C1041 C118 0.720 . S
C1049 C99 0.823 . S
C1073 C204 0.797 . S
C1081 C182 0.840 . S
C1105 C286 0.764 . S
C1113 C246 0.870 . S
C1137 C141 0.926 . S
C1145 C119 0.897 . S
C1169 C207 0.765 . S
C1177 C307 0.789 . S
C1201 C290 0.860 . S
C1209 C18 0.847 . S
C1233 C60 0.769 . S
C1241 C312 0.749 . S
C1265 C268 1.008 . S
C1273 C34 0.969 . S
C1297 C165 0.806 . S
C1305 C123 0.760 . S
C1329 C76 0.956 . S
C1337 C226 0.914 . S
C1361 C267 0.880 . S
C1369 C287 0.847 . S
C1393 C160 0.729 . S
C1401 C270 0.829 . S
C1425 C143 0.948 . S
C1433 C163 0.942 . S
C1457 C98 0.958 . S
C1465 C289 0.904 . S
C1489 C269 0.938 . S
C1497 C330 0.915 . S
C1521 C333 0.897 . S
C1529 C185 0.868 . S
C1553 C37 0.934 . S
C1561 C202 0.893 . S
C1585 C183 0.960 . S
C1593 C140 0.932 . S
C1617 C181 0.911 . S
C1625 C225 0.853 . S
C1649 C329 0.846 . S
C1657 C144 0.824 . S
C1681 C291 0.838 . S
C1689 C332 0.862 . S
C1713 C244 0.995 . S
C1721 C79 0.966 . S
C1745 C228 0.835 . S
C1753 C308 0.880 . S
C1777 C227 0.948 . S
C1785 C331 0.943 . S
C1809 C101 0.862 . S
C1817 C309 0.882 . S
C1841 C328 0.884 . S
C1849 C102 0.874 . S
