# Generated by pormake.
# Topology vma, (5)-cn, num edge types: 1
# Building blocks:
#     Node 0, Type 0, BuildingBlock: BEQFEK_clean_sbu_0, # of connection points: 5
#     Node 1, Type 0, BuildingBlock: BEQFEK_clean_sbu_0, # of connection points: 5
#     Node 2, Type 0, BuildingBlock: BEQFEK_clean_sbu_0, # of connection points: 5
#     Node 3, Type 0, BuildingBlock: BEQFEK_clean_sbu_0, # of connection points: 5
#     Node 4, Type 0, BuildingBlock: BEQFEK_clean_sbu_0, # of connection points: 5
#     Node 5, Type 0, BuildingBlock: BEQFEK_clean_sbu_0, # of connection points: 5
#     Node 6, Type 0, BuildingBlock: BEQFEK_clean_sbu_0, # of connection points: 5
#     Node 7, Type 0, BuildingBlock: BEQFEK_clean_sbu_0, # of connection points: 5
#     Edge 8, Type (0, 0), BuildingBlock: TEMPAE_clean_linker_10, # of connection points: 2
#     Edge 9, Type (0, 0), BuildingBlock: TEMPAE_clean_linker_10, # of connection points: 2
#     Edge 10, Type (0, 0), BuildingBlock: TEMPAE_clean_linker_10, # of connection points: 2
#     Edge 11, Type (0, 0), BuildingBlock: TEMPAE_clean_linker_10, # of connection points: 2
#     Edge 12, Type (0, 0), BuildingBlock: TEMPAE_clean_linker_10, # of connection points: 2
#     Edge 13, Type (0, 0), BuildingBlock: TEMPAE_clean_linker_10, # of connection points: 2
#     Edge 14, Type (0, 0), BuildingBlock: TEMPAE_clean_linker_10, # of connection points: 2
#     Edge 15, Type (0, 0), BuildingBlock: TEMPAE_clean_linker_10, # of connection points: 2
#     Edge 16, Type (0, 0), BuildingBlock: TEMPAE_clean_linker_10, # of connection points: 2
#     Edge 17, Type (0, 0), BuildingBlock: TEMPAE_clean_linker_10, # of connection points: 2
#     Edge 18, Type (0, 0), BuildingBlock: TEMPAE_clean_linker_10, # of connection points: 2
#     Edge 19, Type (0, 0), BuildingBlock: TEMPAE_clean_linker_10, # of connection points: 2
#     Edge 20, Type (0, 0), BuildingBlock: TEMPAE_clean_linker_10, # of connection points: 2
#     Edge 21, Type (0, 0), BuildingBlock: TEMPAE_clean_linker_10, # of connection points: 2
#     Edge 22, Type (0, 0), BuildingBlock: TEMPAE_clean_linker_10, # of connection points: 2
#     Edge 23, Type (0, 0), BuildingBlock: TEMPAE_clean_linker_10, # of connection points: 2
#     Edge 24, Type (0, 0), BuildingBlock: TEMPAE_clean_linker_10, # of connection points: 2
#     Edge 25, Type (0, 0), BuildingBlock: TEMPAE_clean_linker_10, # of connection points: 2
#     Edge 26, Type (0, 0), BuildingBlock: TEMPAE_clean_linker_10, # of connection points: 2
#     Edge 27, Type (0, 0), BuildingBlock: TEMPAE_clean_linker_10, # of connection points: 2
# Relax obj value: 0.013
# Max RMSD: 0.085
# Mean RMSD: 0.085
data_MOF--net-vma--node1-BEQFEK_clean_sbu_0--edge1-TEMPAE_clean_linker_10
_symmetry_space_group_name_H-M    P1
_symmetry_Int_Tables_number       1
_symmetry_cell_setting            triclinic
loop_
_symmetry_equiv_pos_as_xyz
'x, y, z'
_cell_length_a     37.829386
_cell_length_b     29.8041
_cell_length_c     43.142221
_cell_angle_alpha  90.001043
_cell_angle_beta   97.742981
_cell_angle_gamma 89.975691
loop_
_atom_site_label
_atom_site_type_symbol
_atom_site_fract_x
_atom_site_fract_y
_atom_site_fract_z
_atom_type_partial_charge
Co0 Co 0.37328 0.11332 0.36885 0.0
Co1 Co 0.32179 0.16852 0.31973 0.0
C2 C 0.40075 0.1643 0.31713 0.0
O3 O 0.40557 0.13871 0.34095 0.0
O4 O 0.36979 0.17899 0.30668 0.0
C5 C 0.43371 0.09719 0.41529 0.0
O6 O 0.44669 0.13245 0.40245 0.0
C7 C 0.29334 0.25054 0.28828 0.0
C8 C 0.23865 0.23039 0.26883 0.0
C9 C 0.26198 0.26648 0.27144 0.0
N10 N 0.28871 0.20716 0.29526 0.0
N11 N 0.25606 0.19519 0.28333 0.0
C12 C 0.32623 0.27667 0.29988 0.0
H13 H 0.34042 0.26099 0.32138 0.0
H14 H 0.31946 0.312 0.30471 0.0
H15 H 0.34435 0.27647 0.28168 0.0
C16 C 0.3386 0.16922 0.41274 0.0
N17 N 0.34409 0.15803 0.38353 0.0
N18 N 0.32148 0.18017 0.36324 0.0
C19 C 0.30034 0.20562 0.37901 0.0
C20 C 0.31049 0.19954 0.41096 0.0
C21 C 0.36022 0.15127 0.44172 0.0
H22 H 0.35533 0.11471 0.44354 0.0
H23 H 0.38892 0.15628 0.44009 0.0
H24 H 0.35393 0.16838 0.46313 0.0
O25 O 0.34301 0.0667 0.34567 0.0
O26 O 0.30746 0.10518 0.30991 0.0
H27 H 0.25333 0.21014 0.34544 0.0
H28 H 0.25057 0.24121 0.38081 0.0
C29 C 0.26857 0.23115 0.36377 0.0
H30 H 0.27775 0.26167 0.35251 0.0
H31 H 0.24543 0.16325 0.28564 0.0
O32 O 0.40266 0.08333 0.4046 0.0
C33 C 0.3182 0.06803 0.32254 0.0
Co34 Co 0.62889 0.11245 0.13549 0.0
Co35 Co 0.67911 0.17076 0.18337 0.0
C36 C 0.60062 0.16496 0.18645 0.0
O37 O 0.59634 0.13868 0.16296 0.0
O38 O 0.6313 0.18061 0.19679 0.0
C39 C 0.57178 0.05992 0.10357 0.0
O40 O 0.56193 0.05662 0.13154 0.0
C41 C 0.70754 0.25207 0.21638 0.0
C42 C 0.76432 0.23437 0.22934 0.0
C43 C 0.73994 0.2688 0.23076 0.0
N44 N 0.71267 0.20985 0.20689 0.0
N45 N 0.74658 0.19933 0.21499 0.0
C46 C 0.67308 0.27695 0.20882 0.0
H47 H 0.65719 0.26257 0.18765 0.0
H48 H 0.67798 0.31312 0.20499 0.0
H49 H 0.65745 0.27362 0.22869 0.0
C50 C 0.66336 0.16565 0.09045 0.0
N51 N 0.6576 0.15648 0.11991 0.0
N52 N 0.67855 0.18159 0.13961 0.0
C53 C 0.69817 0.20811 0.12312 0.0
C54 C 0.68924 0.19883 0.0914 0.0
C55 C 0.64726 0.13928 0.06252 0.0
H56 H 0.65017 0.10291 0.06769 0.0
H57 H 0.61833 0.14693 0.05766 0.0
H58 H 0.66003 0.14679 0.04145 0.0
O59 O 0.6594 0.06695 0.15898 0.0
O60 O 0.69441 0.1075 0.19384 0.0
H61 H 0.74747 0.22384 0.15135 0.0
H62 H 0.73521 0.26287 0.11957 0.0
C63 C 0.72492 0.24166 0.13748 0.0
H64 H 0.71232 0.26379 0.15345 0.0
H65 H 0.7578 0.1686 0.21003 0.0
O66 O 0.59959 0.08224 0.10014 0.0
C67 C 0.68429 0.06966 0.18192 0.0
Co68 Co 0.62836 0.89283 0.63591 0.0
Co69 Co 0.68079 0.83671 0.68362 0.0
C70 C 0.60173 0.83851 0.68635 0.0
O71 O 0.59628 0.86395 0.66247 0.0
O72 O 0.63307 0.82532 0.69701 0.0
C73 C 0.57466 0.95081 0.60404 0.0
O74 O 0.56947 0.962 0.63254 0.0
C75 C 0.71017 0.75596 0.71665 0.0
C76 C 0.76666 0.77464 0.73007 0.0
C77 C 0.74264 0.73976 0.73129 0.0
N78 N 0.71489 0.79831 0.70723 0.0
N79 N 0.74864 0.80941 0.7156 0.0
C80 C 0.67609 0.73044 0.70872 0.0
H81 H 0.66029 0.74457 0.68741 0.0
H82 H 0.6815 0.69438 0.70495 0.0
H83 H 0.66011 0.73339 0.72839 0.0
C84 C 0.66577 0.84295 0.5909 0.0
N85 N 0.65922 0.85108 0.62031 0.0
N86 N 0.68061 0.82641 0.63997 0.0
C87 C 0.7012 0.80116 0.62356 0.0
C88 C 0.69258 0.81091 0.59188 0.0
C89 C 0.64928 0.86915 0.56302 0.0
H90 H 0.6501 0.90546 0.56872 0.0
H91 H 0.6209 0.85921 0.5572 0.0
H92 H 0.66326 0.86367 0.54235 0.0
O93 O 0.65616 0.93948 0.66091 0.0
O94 O 0.69487 0.90038 0.69381 0.0
H95 H 0.75079 0.7865 0.65171 0.0
H96 H 0.73896 0.74713 0.62007 0.0
C97 C 0.72844 0.76818 0.63795 0.0
H98 H 0.71621 0.74582 0.654 0.0
H99 H 0.75956 0.84037 0.71076 0.0
O100 O 0.59842 0.9219 0.60035 0.0
C101 C 0.68203 0.93775 0.68308 0.0
Co102 Co 0.37556 0.89474 0.86726 0.0
Co103 Co 0.32492 0.83657 0.81975 0.0
C104 C 0.40422 0.83922 0.81855 0.0
O105 O 0.40884 0.86564 0.8419 0.0
O106 O 0.37319 0.82531 0.80769 0.0
C107 C 0.43124 0.90664 0.9178 0.0
O108 O 0.43879 0.8652 0.9106 0.0
C109 C 0.29751 0.75251 0.79076 0.0
C110 C 0.24682 0.77377 0.76317 0.0
C111 C 0.26867 0.73697 0.77051 0.0
N112 N 0.29295 0.79661 0.79544 0.0
N113 N 0.2626 0.80915 0.77884 0.0
C114 C 0.32977 0.72643 0.80414 0.0
H115 H 0.34529 0.74512 0.82367 0.0
H116 H 0.32186 0.69316 0.81247 0.0
H117 H 0.34688 0.72068 0.78554 0.0
C118 C 0.33703 0.84564 0.91239 0.0
N119 N 0.34452 0.85304 0.88314 0.0
N120 N 0.32365 0.82779 0.86341 0.0
C121 C 0.3024 0.80316 0.8796 0.0
C122 C 0.31026 0.8136 0.91122 0.0
C123 C 0.35237 0.87238 0.94039 0.0
H124 H 0.35491 0.90807 0.93382 0.0
H125 H 0.37928 0.85924 0.94923 0.0
H126 H 0.33545 0.87034 0.95944 0.0
O127 O 0.3476 0.94006 0.84103 0.0
O128 O 0.30999 0.89948 0.80818 0.0
H129 H 0.25633 0.78745 0.84687 0.0
H130 H 0.26032 0.75412 0.88231 0.0
C131 C 0.27523 0.77027 0.86494 0.0
H132 H 0.28891 0.74349 0.85336 0.0
H133 H 0.2528 0.84192 0.77801 0.0
O134 O 0.40489 0.92626 0.90205 0.0
C135 C 0.32214 0.93731 0.81856 0.0
Co136 Co 0.87498 0.61453 0.36827 0.0
Co137 Co 0.82333 0.66976 0.31959 0.0
C138 C 0.90251 0.66569 0.31699 0.0
O139 O 0.90754 0.64038 0.34094 0.0
O140 O 0.87142 0.67993 0.30646 0.0
C141 C 0.93245 0.56363 0.40106 0.0
O142 O 0.9435 0.56218 0.37348 0.0
C143 C 0.79536 0.75271 0.28944 0.0
C144 C 0.74081 0.73326 0.26908 0.0
C145 C 0.76419 0.76928 0.27265 0.0
N146 N 0.79056 0.70905 0.29547 0.0
N147 N 0.758 0.6975 0.28301 0.0
C148 C 0.82819 0.77839 0.30188 0.0
H149 H 0.84216 0.76175 0.32309 0.0
H150 H 0.82139 0.81345 0.30745 0.0
H151 H 0.84653 0.77911 0.28386 0.0
C152 C 0.84089 0.66993 0.4125 0.0
N153 N 0.84604 0.65904 0.38318 0.0
N154 N 0.82315 0.68112 0.36312 0.0
C155 C 0.80202 0.70614 0.37918 0.0
C156 C 0.81258 0.69989 0.41108 0.0
C157 C 0.86284 0.6517 0.44122 0.0
H158 H 0.89145 0.65199 0.43805 0.0
H159 H 0.85931 0.67169 0.46228 0.0
H160 H 0.85493 0.61642 0.4448 0.0
O161 O 0.84475 0.56821 0.34483 0.0
O162 O 0.80846 0.60662 0.30963 0.0
H163 H 0.75148 0.73967 0.38139 0.0
H164 H 0.77847 0.76259 0.35376 0.0
C165 C 0.76982 0.73117 0.36427 0.0
H166 H 0.75514 0.71053 0.34542 0.0
H167 H 0.74727 0.66546 0.28458 0.0
O168 O 0.9037 0.58427 0.404 0.0
C169 C 0.81956 0.56946 0.32203 0.0
Co170 Co 0.12934 0.6138 0.13432 0.0
Co171 Co 0.18072 0.66859 0.18345 0.0
C172 C 0.10151 0.66478 0.18559 0.0
O173 O 0.09666 0.63933 0.16169 0.0
O174 O 0.13253 0.67913 0.19622 0.0
C175 C 0.07764 0.55439 0.10228 0.0
O176 O 0.07344 0.54245 0.13088 0.0
C177 C 0.20905 0.7507 0.21471 0.0
C178 C 0.2635 0.73037 0.23481 0.0
C179 C 0.24028 0.7666 0.2318 0.0
N180 N 0.21366 0.70722 0.20801 0.0
N181 N 0.24616 0.69515 0.22031 0.0
C182 C 0.17634 0.77691 0.20267 0.0
H183 H 0.16233 0.76104 0.18117 0.0
H184 H 0.1833 0.81212 0.19769 0.0
H185 H 0.15798 0.77711 0.22068 0.0
C186 C 0.16362 0.66978 0.09054 0.0
N187 N 0.15846 0.65842 0.11978 0.0
N188 N 0.18126 0.68031 0.14 0.0
C189 C 0.20235 0.7057 0.12414 0.0
C190 C 0.19185 0.69988 0.09219 0.0
C191 C 0.14161 0.6521 0.06168 0.0
H192 H 0.1493 0.61679 0.05789 0.0
H193 H 0.113 0.65261 0.06484 0.0
H194 H 0.14523 0.67232 0.04075 0.0
O195 O 0.15933 0.56696 0.15756 0.0
O196 O 0.195 0.60521 0.19331 0.0
H197 H 0.24912 0.71016 0.15801 0.0
H198 H 0.25261 0.73997 0.12226 0.0
C199 C 0.23431 0.73092 0.13928 0.0
H200 H 0.22537 0.76202 0.15002 0.0
H201 H 0.25674 0.66311 0.21826 0.0
O202 O 0.10034 0.58453 0.09836 0.0
C203 C 0.18412 0.56812 0.18069 0.0
Co204 Co 0.12813 0.3954 0.63665 0.0
Co205 Co 0.17889 0.33659 0.68376 0.0
C206 C 0.09974 0.33974 0.68546 0.0
O207 O 0.09506 0.36625 0.66216 0.0
O208 O 0.13076 0.32558 0.69615 0.0
C209 C 0.07246 0.4078 0.58607 0.0
O210 O 0.06535 0.36596 0.59259 0.0
C211 C 0.20637 0.25255 0.71297 0.0
C212 C 0.25803 0.27345 0.73899 0.0
C213 C 0.23568 0.23692 0.7326 0.0
N214 N 0.21109 0.29648 0.70775 0.0
N215 N 0.24202 0.3088 0.72344 0.0
C216 C 0.17372 0.22661 0.70043 0.0
H217 H 0.15811 0.24481 0.6807 0.0
H218 H 0.18119 0.19282 0.69266 0.0
H219 H 0.15686 0.22206 0.71936 0.0
C220 C 0.16625 0.34646 0.59115 0.0
N221 N 0.15894 0.35369 0.62046 0.0
N222 N 0.17966 0.32799 0.64001 0.0
C223 C 0.20055 0.30312 0.62361 0.0
C224 C 0.19269 0.31398 0.59205 0.0
C225 C 0.15115 0.37377 0.56334 0.0
H226 H 0.14843 0.40929 0.57025 0.0
H227 H 0.12436 0.36066 0.5541 0.0
H228 H 0.16834 0.37226 0.54447 0.0
O229 O 0.15631 0.44037 0.6629 0.0
O230 O 0.19407 0.39941 0.69539 0.0
H231 H 0.24709 0.2864 0.65548 0.0
H232 H 0.24119 0.25227 0.62039 0.0
C233 C 0.22729 0.26951 0.63801 0.0
H234 H 0.21343 0.24365 0.65027 0.0
H235 H 0.25212 0.3414 0.72367 0.0
O236 O 0.09857 0.42739 0.60218 0.0
C237 C 0.18192 0.43736 0.68522 0.0
Co238 Co 0.87453 0.39076 0.86866 0.0
Co239 Co 0.82263 0.33736 0.81893 0.0
C240 C 0.9021 0.33932 0.81761 0.0
O241 O 0.90723 0.36467 0.8415 0.0
O242 O 0.8709 0.32584 0.80689 0.0
C243 C 0.93483 0.40645 0.91523 0.0
O244 O 0.94791 0.37152 0.90207 0.0
C245 C 0.79238 0.25373 0.7915 0.0
C246 C 0.74931 0.27786 0.75571 0.0
C247 C 0.76627 0.23936 0.768 0.0
N248 N 0.79084 0.29871 0.79322 0.0
N249 N 0.76494 0.31295 0.77183 0.0
C250 C 0.82041 0.2256 0.81004 0.0
H251 H 0.83876 0.24671 0.82615 0.0
H252 H 0.80767 0.20024 0.82374 0.0
H253 H 0.83574 0.20723 0.79386 0.0
C254 C 0.83763 0.3367 0.91189 0.0
N255 N 0.84408 0.34699 0.88279 0.0
N256 N 0.82078 0.32623 0.86228 0.0
C257 C 0.79802 0.30303 0.87782 0.0
C258 C 0.80803 0.30875 0.9098 0.0
C259 C 0.85955 0.35357 0.94104 0.0
H260 H 0.88819 0.34835 0.93925 0.0
H261 H 0.85314 0.33589 0.9622 0.0
H262 H 0.85491 0.3901 0.94344 0.0
O263 O 0.84538 0.43808 0.84499 0.0
O264 O 0.80919 0.40092 0.80896 0.0
H265 H 0.74388 0.28022 0.87832 0.0
H266 H 0.77081 0.24571 0.85662 0.0
C267 C 0.76468 0.28082 0.86248 0.0
H268 H 0.75411 0.29871 0.84068 0.0
H269 H 0.75844 0.34666 0.76777 0.0
O270 O 0.90369 0.42023 0.90475 0.0
C271 C 0.82066 0.43767 0.82176 0.0
C272 C 0.24714 0.29719 0.56694 0.0
C273 C 0.20993 0.29733 0.56539 0.0
C274 C 0.26367 0.28171 0.54172 0.0
C275 C 0.24239 0.26708 0.51403 0.0
C276 C 0.20473 0.26805 0.51215 0.0
C277 C 0.18896 0.28285 0.53798 0.0
C278 C 0.3039 0.28073 0.54477 0.0
C279 C 0.1811 0.25338 0.48289 0.0
C280 C 0.28544 0.26288 0.4393 0.0
C281 C 0.29273 0.21702 0.43707 0.0
C282 C 0.26868 0.27967 0.46404 0.0
C283 C 0.25953 0.24987 0.48729 0.0
C284 C 0.26686 0.20349 0.48507 0.0
C285 C 0.28301 0.18758 0.45979 0.0
C286 C 0.26079 0.32924 0.46534 0.0
C287 C 0.25785 0.17068 0.50951 0.0
H288 H 0.26335 0.30945 0.58786 0.0
H289 H 0.16015 0.28307 0.53678 0.0
H290 H 0.31319 0.24602 0.5412 0.0
H291 H 0.31325 0.30201 0.52642 0.0
H292 H 0.31657 0.29273 0.56802 0.0
H293 H 0.15232 0.2579 0.48477 0.0
H294 H 0.18764 0.27283 0.46248 0.0
H295 H 0.18597 0.21749 0.47813 0.0
H296 H 0.29305 0.28563 0.42174 0.0
H297 H 0.28804 0.15197 0.45775 0.0
H298 H 0.27526 0.34394 0.48704 0.0
H299 H 0.23188 0.33457 0.46606 0.0
H300 H 0.26861 0.34766 0.44494 0.0
H301 H 0.27132 0.18077 0.53292 0.0
H302 H 0.26598 0.13583 0.50468 0.0
H303 H 0.22872 0.17107 0.51057 0.0
C304 C 0.68483 0.23261 0.03802 0.0
C305 C 0.70604 0.21643 0.0648 0.0
C306 C 0.70028 0.24757 0.01206 0.0
C307 C 0.73786 0.24672 0.01313 0.0
C308 C 0.7594 0.23079 0.04031 0.0
C309 C 0.74318 0.21555 0.06576 0.0
C310 C 0.67642 0.26403 0.98344 0.0
C311 C 0.79956 0.22968 0.04246 0.0
C312 C 0.77915 0.24792 0.93745 0.0
C313 C 0.78906 0.293 0.93565 0.0
C314 C 0.76195 0.23245 0.96232 0.0
C315 C 0.75475 0.26284 0.98595 0.0
C316 C 0.76426 0.30857 0.98391 0.0
C317 C 0.78103 0.32315 0.95863 0.0
C318 C 0.75189 0.18353 0.96351 0.0
C319 C 0.75711 0.342 0.00863 0.0
H320 H 0.65609 0.23335 0.03738 0.0
H321 H 0.75954 0.20238 0.08632 0.0
H322 H 0.68292 0.29939 0.97853 0.0
H323 H 0.68107 0.24391 0.96274 0.0
H324 H 0.64769 0.26195 0.98622 0.0
H325 H 0.81248 0.21703 0.06545 0.0
H326 H 0.8076 0.20787 0.02377 0.0
H327 H 0.80985 0.26385 0.03874 0.0
H328 H 0.78534 0.22463 0.91964 0.0
H329 H 0.78797 0.35825 0.95684 0.0
H330 H 0.72296 0.18025 0.96503 0.0
H331 H 0.76643 0.16774 0.98479 0.0
H332 H 0.7581 0.16467 0.94269 0.0
H333 H 0.72818 0.34301 0.01054 0.0
H334 H 0.76604 0.3764 0.0035 0.0
H335 H 0.77111 0.33146 0.03175 0.0
C336 C 0.68961 0.77858 0.53814 0.0
C337 C 0.71014 0.79432 0.5654 0.0
C338 C 0.70582 0.76395 0.51251 0.0
C339 C 0.7435 0.76448 0.51444 0.0
C340 C 0.76435 0.7801 0.54206 0.0
C341 C 0.74738 0.79522 0.56712 0.0
C342 C 0.68265 0.74799 0.48336 0.0
C343 C 0.80458 0.78073 0.54517 0.0
C344 C 0.78634 0.68686 0.46045 0.0
C345 C 0.7949 0.71665 0.43746 0.0
C346 C 0.76987 0.70204 0.48575 0.0
C347 C 0.76113 0.74804 0.48777 0.0
C348 C 0.76931 0.77822 0.46438 0.0
C349 C 0.78635 0.76217 0.43958 0.0
C350 C 0.76189 0.66887 0.51033 0.0
C351 C 0.76004 0.82741 0.46554 0.0
H352 H 0.6608 0.77774 0.5369 0.0
H353 H 0.76324 0.80811 0.58802 0.0
H354 H 0.68846 0.76777 0.46285 0.0
H355 H 0.68873 0.71239 0.47872 0.0
H356 H 0.65375 0.75095 0.48528 0.0
H357 H 0.8169 0.79328 0.56838 0.0
H358 H 0.81477 0.74641 0.54175 0.0
H359 H 0.81342 0.80235 0.52676 0.0
H360 H 0.79235 0.65149 0.45853 0.0
H361 H 0.79314 0.78524 0.42187 0.0
H362 H 0.73277 0.66781 0.51138 0.0
H363 H 0.77502 0.67965 0.5337 0.0
H364 H 0.77112 0.63443 0.50567 0.0
H365 H 0.73098 0.83144 0.46612 0.0
H366 H 0.76746 0.84623 0.44514 0.0
H367 H 0.77398 0.84268 0.48726 0.0
C368 C 0.31351 0.78129 0.96491 0.0
C369 C 0.29277 0.797 0.93774 0.0
C370 C 0.29754 0.76655 0.99064 0.0
C371 C 0.25988 0.76701 0.98892 0.0
C372 C 0.23883 0.78292 0.96147 0.0
C373 C 0.25558 0.79822 0.93633 0.0
C374 C 0.32094 0.75041 0.01962 0.0
C375 C 0.19861 0.78355 0.95861 0.0
C376 C 0.21789 0.68803 0.04259 0.0
C377 C 0.20937 0.71731 0.0659 0.0
C378 C 0.23403 0.70385 0.01728 0.0
C379 C 0.2425 0.74996 0.01557 0.0
C380 C 0.2344 0.77962 0.03931 0.0
C381 C 0.21767 0.76294 0.06411 0.0
C382 C 0.24195 0.67121 0.99234 0.0
C383 C 0.24344 0.8289 0.03851 0.0
H384 H 0.3423 0.78052 0.966 0.0
H385 H 0.23959 0.81142 0.91559 0.0
H386 H 0.31508 0.76978 0.0403 0.0
H387 H 0.31513 0.71467 0.02402 0.0
H388 H 0.34979 0.75375 0.01762 0.0
H389 H 0.18612 0.79653 0.93557 0.0
H390 H 0.18848 0.74914 0.96178 0.0
H391 H 0.18992 0.80478 0.9773 0.0
H392 H 0.21208 0.65257 0.04425 0.0
H393 H 0.2109 0.78562 0.08206 0.0
H394 H 0.27104 0.67039 0.99112 0.0
H395 H 0.22862 0.68235 0.96912 0.0
H396 H 0.23289 0.63662 0.99676 0.0
H397 H 0.27245 0.83318 0.03777 0.0
H398 H 0.23612 0.84726 0.05914 0.0
H399 H 0.22926 0.84447 0.017 0.0
C400 C 0.53851 0.14875 0.19703 0.0
C401 C 0.56987 0.17414 0.20357 0.0
C402 C 0.51074 0.1528 0.21535 0.0
C403 C 0.51408 0.18349 0.24062 0.0
C404 C 0.54476 0.21103 0.24632 0.0
C405 C 0.57245 0.2058 0.22788 0.0
C406 C 0.47862 0.12249 0.20861 0.0
C407 C 0.54898 0.24476 0.27265 0.0
C408 C 0.42796 0.2044 0.27483 0.0
C409 C 0.43128 0.17381 0.29981 0.0
C410 C 0.45552 0.20979 0.25628 0.0
C411 C 0.48685 0.18349 0.26257 0.0
C412 C 0.49093 0.15397 0.28851 0.0
C413 C 0.46326 0.14975 0.30692 0.0
C414 C 0.4505 0.24229 0.22921 0.0
C415 C 0.52378 0.12502 0.29592 0.0
H416 H 0.53616 0.12422 0.17831 0.0
H417 H 0.59642 0.22585 0.23296 0.0
H418 H 0.47762 0.09921 0.22855 0.0
H419 H 0.45371 0.14256 0.20601 0.0
H420 H 0.47917 0.10228 0.18704 0.0
H421 H 0.57212 0.26739 0.27154 0.0
H422 H 0.52449 0.26541 0.27207 0.0
H423 H 0.55293 0.22691 0.29542 0.0
H424 H 0.40351 0.22345 0.26932 0.0
H425 H 0.46621 0.1261 0.32618 0.0
H426 H 0.44698 0.22341 0.20685 0.0
H427 H 0.47449 0.26372 0.22932 0.0
H428 H 0.42684 0.26421 0.22984 0.0
H429 H 0.52534 0.10096 0.27652 0.0
H430 H 0.52373 0.10573 0.31795 0.0
H431 H 0.54819 0.146 0.29804 0.0
C432 C 0.53934 0.85188 0.69722 0.0
C433 C 0.57148 0.82802 0.70377 0.0
C434 C 0.51213 0.84729 0.71606 0.0
C435 C 0.51681 0.81753 0.74187 0.0
C436 C 0.54823 0.79126 0.74751 0.0
C437 C 0.57536 0.7971 0.72855 0.0
C438 C 0.4792 0.87626 0.70935 0.0
C439 C 0.55384 0.75841 0.77434 0.0
C440 C 0.46677 0.85296 0.80824 0.0
C441 C 0.43497 0.82841 0.80182 0.0
C442 C 0.49428 0.84817 0.78972 0.0
C443 C 0.49026 0.81751 0.76442 0.0
C444 C 0.45927 0.79045 0.75907 0.0
C445 C 0.43183 0.79648 0.77766 0.0
C446 C 0.52675 0.87797 0.79611 0.0
C447 C 0.45437 0.75663 0.73281 0.0
H448 H 0.53599 0.87584 0.67814 0.0
H449 H 0.59995 0.77822 0.73365 0.0
H450 H 0.45481 0.85526 0.70753 0.0
H451 H 0.47807 0.90011 0.72895 0.0
H452 H 0.47875 0.89579 0.68737 0.0
H453 H 0.57714 0.73616 0.77292 0.0
H454 H 0.55839 0.77703 0.79679 0.0
H455 H 0.52974 0.73735 0.77481 0.0
H456 H 0.46956 0.87764 0.82686 0.0
H457 H 0.40752 0.77701 0.77272 0.0
H458 H 0.52746 0.90149 0.77625 0.0
H459 H 0.55147 0.85758 0.79812 0.0
H460 H 0.52688 0.89791 0.81788 0.0
H461 H 0.44949 0.77442 0.71005 0.0
H462 H 0.4315 0.73382 0.73459 0.0
H463 H 0.47888 0.73619 0.73273 0.0
C464 C 0.03931 0.64958 0.19628 0.0
C465 C 0.07094 0.67446 0.20281 0.0
C466 C 0.01166 0.65402 0.21469 0.0
C467 C 0.01538 0.68462 0.24001 0.0
C468 C 0.04633 0.71172 0.24567 0.0
C469 C 0.0739 0.70605 0.22716 0.0
C470 C 0.97927 0.62414 0.20801 0.0
C471 C 0.05094 0.74539 0.27203 0.0
C472 C 0.92962 0.70598 0.2747 0.0
C473 C 0.93296 0.67524 0.29959 0.0
C474 C 0.9571 0.71134 0.25605 0.0
C475 C 0.98834 0.68481 0.26213 0.0
C476 C 0.99243 0.65512 0.28798 0.0
C477 C 0.96487 0.65098 0.3065 0.0
C478 C 0.95209 0.74404 0.22911 0.0
C479 C 0.02515 0.62588 0.29514 0.0
H480 H 0.03667 0.62509 0.17754 0.0
H481 H 0.09809 0.72573 0.23221 0.0
H482 H 0.97822 0.6008 0.22791 0.0
H483 H 0.95453 0.64452 0.20558 0.0
H484 H 0.97952 0.60401 0.18636 0.0
H485 H 0.07415 0.76783 0.27079 0.0
H486 H 0.02657 0.76623 0.27164 0.0
H487 H 0.055 0.72748 0.29477 0.0
H488 H 0.90522 0.72518 0.26934 0.0
H489 H 0.96782 0.62718 0.32567 0.0
H490 H 0.94819 0.72531 0.20669 0.0
H491 H 0.97623 0.76518 0.22909 0.0
H492 H 0.92864 0.76623 0.22999 0.0
H493 H 0.02648 0.60194 0.27563 0.0
H494 H 0.02512 0.60643 0.31711 0.0
H495 H 0.04967 0.64666 0.29725 0.0
C496 C 0.0723 0.29733 0.72657 0.0
C497 C 0.06909 0.32916 0.70236 0.0
C498 C 0.04495 0.29148 0.74528 0.0
C499 C 0.01399 0.31863 0.73997 0.0
C500 C 0.00991 0.34925 0.71465 0.0
C501 C 0.03734 0.35385 0.69602 0.0
C502 C 0.04989 0.25772 0.77158 0.0
C503 C 0.97747 0.37912 0.70829 0.0
C504 C 0.92878 0.29807 0.77553 0.0
C505 C 0.93248 0.32901 0.8003 0.0
C506 C 0.95602 0.29227 0.7567 0.0
C507 C 0.98738 0.31858 0.76246 0.0
C508 C 0.9919 0.34831 0.78828 0.0
C509 C 0.96457 0.35288 0.80701 0.0
C510 C 0.95057 0.25945 0.72984 0.0
C511 C 0.0248 0.37728 0.79513 0.0
H512 H 0.09658 0.27778 0.73146 0.0
H513 H 0.03449 0.37847 0.67736 0.0
H514 H 0.05468 0.27555 0.79432 0.0
H515 H 0.02542 0.23723 0.77165 0.0
H516 H 0.07281 0.23495 0.76985 0.0
H517 H 0.97736 0.39917 0.68657 0.0
H518 H 0.95273 0.35876 0.7062 0.0
H519 H 0.97673 0.40254 0.7282 0.0
H520 H 0.90423 0.27913 0.77035 0.0
H521 H 0.96779 0.37679 0.82612 0.0
H522 H 0.9747 0.23838 0.72947 0.0
H523 H 0.94614 0.27809 0.70739 0.0
H524 H 0.92726 0.2372 0.73114 0.0
H525 H 0.04921 0.35632 0.79691 0.0
H526 H 0.02518 0.39668 0.81716 0.0
H527 H 0.02592 0.40126 0.7756 0.0
C528 C 0.22397 0.83747 0.25784 0.0
C529 C 0.24877 0.81248 0.24364 0.0
C530 C 0.23271 0.88016 0.27045 0.0
C531 C 0.26697 0.89829 0.26858 0.0
C532 C 0.29187 0.8734 0.25379 0.0
C533 C 0.28257 0.83061 0.2418 0.0
C534 C 0.20567 0.90532 0.2865 0.0
C535 C 0.32851 0.89173 0.25095 0.0
C536 C 0.28398 0.02356 0.27907 0.0
C537 C 0.30265 0.02526 0.30945 0.0
C538 C 0.27157 0.98257 0.26563 0.0
C539 C 0.2775 0.94245 0.28315 0.0
C540 C 0.29518 0.9442 0.31421 0.0
C541 C 0.30776 0.98548 0.32689 0.0
C542 C 0.25318 0.982 0.23232 0.0
C543 C 0.30154 0.90229 0.33386 0.0
H544 H 0.19811 0.8231 0.25998 0.0
H545 H 0.30177 0.81133 0.23079 0.0
H546 H 0.21612 0.91009 0.31157 0.0
H547 H 0.201 0.93916 0.27605 0.0
H548 H 0.17973 0.8874 0.28486 0.0
H549 H 0.34404 0.86915 0.23736 0.0
H550 H 0.3262 0.92506 0.2394 0.0
H551 H 0.34368 0.8965 0.27458 0.0
H552 H 0.28 0.05409 0.26539 0.0
H553 H 0.32187 0.98651 0.35048 0.0
H554 H 0.22688 0.96518 0.2311 0.0
H555 H 0.26938 0.96243 0.21748 0.0
H556 H 0.2491 0.01628 0.22237 0.0
H557 H 0.27608 0.88406 0.33445 0.0
H558 H 0.31349 0.90976 0.35826 0.0
H559 H 0.31974 0.87943 0.32328 0.0
C560 C 0.69631 0.98749 0.17834 0.0
C561 C 0.7007 0.0276 0.19547 0.0
C562 C 0.7094 0.94667 0.19137 0.0
C563 C 0.72694 0.94568 0.22249 0.0
C564 C 0.73227 0.98616 0.23969 0.0
C565 C 0.71931 0.02674 0.22588 0.0
C566 C 0.70363 0.90437 0.17206 0.0
C567 C 0.75055 0.98638 0.27303 0.0
C568 C 0.72212 0.8337 0.26361 0.0
C569 C 0.75589 0.81556 0.26155 0.0
C570 C 0.71287 0.87671 0.25202 0.0
C571 C 0.73777 0.90184 0.23742 0.0
C572 C 0.77208 0.88383 0.23552 0.0
C573 C 0.78077 0.84089 0.24771 0.0
C574 C 0.67616 0.89486 0.25483 0.0
C575 C 0.79914 0.90926 0.21967 0.0
H576 H 0.68228 0.98788 0.15471 0.0
H577 H 0.72274 0.05755 0.2393 0.0
H578 H 0.72931 0.88649 0.17174 0.0
H579 H 0.68558 0.88141 0.18273 0.0
H580 H 0.69176 0.91129 0.14755 0.0
H581 H 0.75442 0.0209 0.2826 0.0
H582 H 0.73435 0.96709 0.28802 0.0
H583 H 0.77692 0.96966 0.27453 0.0
H584 H 0.70287 0.81416 0.27437 0.0
H585 H 0.8066 0.82655 0.24542 0.0
H586 H 0.66088 0.89913 0.2312 0.0
H587 H 0.67829 0.92839 0.26611 0.0
H588 H 0.66083 0.87239 0.26866 0.0
H589 H 0.78907 0.91339 0.19446 0.0
H590 H 0.82532 0.89184 0.22184 0.0
H591 H 0.80316 0.94336 0.22983 0.0
C592 C 0.67419 0.01777 0.69739 0.0
C593 C 0.69657 0.98032 0.69708 0.0
C594 C 0.68715 0.05865 0.71039 0.0
C595 C 0.72368 0.06263 0.72258 0.0
C596 C 0.7465 0.02495 0.72225 0.0
C597 C 0.73252 0.98397 0.70991 0.0
C598 C 0.66171 0.09762 0.71103 0.0
C599 C 0.78577 0.02822 0.7343 0.0
C600 C 0.75782 0.18255 0.72542 0.0
C601 C 0.75823 0.19316 0.75705 0.0
C602 C 0.74834 0.1394 0.71418 0.0
C603 C 0.73788 0.10667 0.73496 0.0
C604 C 0.7386 0.11724 0.76707 0.0
C605 C 0.74918 0.16033 0.7778 0.0
C606 C 0.74874 0.12919 0.67995 0.0
C607 C 0.72672 0.08375 0.78979 0.0
H608 H 0.64627 0.01493 0.68781 0.0
H609 H 0.74992 0.95511 0.70954 0.0
H610 H 0.66272 0.11055 0.73525 0.0
H611 H 0.66977 0.12546 0.69643 0.0
H612 H 0.63373 0.08823 0.70224 0.0
H613 H 0.79988 0.99582 0.73251 0.0
H614 H 0.79838 0.05399 0.7208 0.0
H615 H 0.78955 0.03909 0.75911 0.0
H616 H 0.76493 0.20809 0.70946 0.0
H617 H 0.74894 0.16895 0.80219 0.0
H618 H 0.72109 0.12375 0.66835 0.0
H619 H 0.76388 0.09785 0.67726 0.0
H620 H 0.76084 0.15678 0.66763 0.0
H621 H 0.69802 0.07601 0.78306 0.0
H622 H 0.73062 0.0964 0.81423 0.0
H623 H 0.74162 0.05182 0.78891 0.0
C624 C 0.25162 0.15774 0.7229 0.0
C625 C 0.24316 0.19079 0.74371 0.0
C626 C 0.26231 0.11472 0.73369 0.0
C627 C 0.26375 0.10453 0.76592 0.0
C628 C 0.25365 0.13749 0.78674 0.0
C629 C 0.24401 0.18056 0.77541 0.0
C630 C 0.27368 0.08096 0.71089 0.0
C631 C 0.25403 0.12767 0.82111 0.0
C632 C 0.27085 0.98225 0.7918 0.0
C633 C 0.30703 0.97927 0.80406 0.0
C634 C 0.25622 0.02288 0.77937 0.0
C635 C 0.27859 0.06083 0.77835 0.0
C636 C 0.31535 0.05746 0.78988 0.0
C637 C 0.32898 0.01695 0.80301 0.0
C638 C 0.21675 0.02552 0.76805 0.0
C639 C 0.34033 0.09672 0.78847 0.0
H640 H 0.25118 0.16613 0.69839 0.0
H641 H 0.23737 0.2064 0.79136 0.0
H642 H 0.30253 0.07357 0.71703 0.0
H643 H 0.2591 0.04894 0.71236 0.0
H644 H 0.26899 0.09322 0.68636 0.0
H645 H 0.24188 0.15523 0.83344 0.0
H646 H 0.23936 0.09612 0.82427 0.0
H647 H 0.28191 0.12285 0.83235 0.0
H648 H 0.2538 0.9532 0.79277 0.0
H649 H 0.35705 0.01459 0.81217 0.0
H650 H 0.21221 0.03635 0.74324 0.0
H651 H 0.20425 0.05107 0.78182 0.0
H652 H 0.20308 0.99289 0.77015 0.0
H653 H 0.33854 0.10938 0.76411 0.0
H654 H 0.36854 0.08777 0.79674 0.0
H655 H 0.33245 0.12462 0.80311 0.0
C656 C 0.81171 0.4863 0.32554 0.0
C657 C 0.80387 0.52658 0.30918 0.0
C658 C 0.79893 0.44504 0.31301 0.0
C659 C 0.77805 0.44385 0.28322 0.0
C660 C 0.7693 0.48442 0.26688 0.0
C661 C 0.78217 0.52534 0.28012 0.0
C662 C 0.80855 0.40258 0.33134 0.0
C663 C 0.74728 0.48446 0.23497 0.0
C664 C 0.7809 0.33445 0.23855 0.0
C665 C 0.74855 0.31437 0.24323 0.0
C666 C 0.79035 0.37705 0.25077 0.0
C667 C 0.76712 0.39987 0.26856 0.0
C668 C 0.73434 0.37981 0.27332 0.0
C669 C 0.72543 0.33725 0.26056 0.0
C670 C 0.82542 0.39739 0.24495 0.0
C671 C 0.70911 0.40281 0.29251 0.0
H672 H 0.82821 0.48688 0.34812 0.0
H673 H 0.77597 0.55625 0.26728 0.0
H674 H 0.78411 0.38314 0.33393 0.0
H675 H 0.82562 0.38107 0.3185 0.0
H676 H 0.82306 0.40949 0.355 0.0
H677 H 0.74122 0.51896 0.22605 0.0
H678 H 0.76185 0.4664 0.2181 0.0
H679 H 0.72179 0.4664 0.2358 0.0
H680 H 0.79882 0.31684 0.22512 0.0
H681 H 0.70081 0.32138 0.2649 0.0
H682 H 0.84293 0.40206 0.26749 0.0
H683 H 0.82087 0.43101 0.23408 0.0
H684 H 0.83968 0.37618 0.22946 0.0
H685 H 0.72223 0.40696 0.31694 0.0
H686 H 0.68397 0.38367 0.29283 0.0
H687 H 0.70241 0.43686 0.28311 0.0
C688 C 0.21867 0.52351 0.22396 0.0
C689 C 0.19953 0.52523 0.19376 0.0
C690 C 0.23104 0.48247 0.23736 0.0
C691 C 0.22457 0.4423 0.21999 0.0
C692 C 0.20635 0.44404 0.18912 0.0
C693 C 0.19384 0.48538 0.17648 0.0
C694 C 0.25002 0.48192 0.27047 0.0
C695 C 0.19938 0.40206 0.16964 0.0
C696 C 0.27801 0.337 0.24485 0.0
C697 C 0.25344 0.31233 0.25952 0.0
C698 C 0.26922 0.37967 0.23221 0.0
C699 C 0.23515 0.39812 0.23454 0.0
C700 C 0.2105 0.37354 0.2498 0.0
C701 C 0.21983 0.33076 0.26181 0.0
C702 C 0.29598 0.40448 0.21564 0.0
C703 C 0.17409 0.39221 0.25315 0.0
H704 H 0.2231 0.55409 0.23752 0.0
H705 H 0.17934 0.4864 0.15303 0.0
H706 H 0.23407 0.46253 0.28562 0.0
H707 H 0.27622 0.4649 0.27135 0.0
H708 H 0.2544 0.51621 0.28032 0.0
H709 H 0.18698 0.40949 0.14535 0.0
H710 H 0.22467 0.38358 0.16868 0.0
H711 H 0.18134 0.37945 0.1806 0.0
H712 H 0.30371 0.32241 0.24239 0.0
H713 H 0.20081 0.31171 0.27318 0.0
H714 H 0.30104 0.43832 0.22599 0.0
H715 H 0.28506 0.40924 0.19067 0.0
H716 H 0.32179 0.38631 0.2169 0.0
H717 H 0.17676 0.42559 0.26462 0.0
H718 H 0.15876 0.36986 0.26705 0.0
H719 H 0.15852 0.39698 0.22969 0.0
C720 C 0.23351 0.48225 0.71141 0.0
C721 C 0.19715 0.47915 0.69982 0.0
C722 C 0.24822 0.52285 0.72378 0.0
C723 C 0.22578 0.56062 0.72541 0.0
C724 C 0.18884 0.55708 0.71462 0.0
C725 C 0.17511 0.51662 0.70153 0.0
C726 C 0.28786 0.5257 0.7343 0.0
C727 C 0.1638 0.59613 0.71673 0.0
C728 C 0.25368 0.65755 0.78055 0.0
C729 C 0.26124 0.69078 0.75951 0.0
C730 C 0.24302 0.61446 0.76992 0.0
C731 C 0.2407 0.60437 0.73761 0.0
C732 C 0.24989 0.63752 0.71653 0.0
C733 C 0.25948 0.68066 0.72771 0.0
C734 C 0.23257 0.58051 0.79301 0.0
C735 C 0.24858 0.62782 0.68205 0.0
H736 H 0.2506 0.45334 0.70993 0.0
H737 H 0.14691 0.51414 0.69288 0.0
H738 H 0.29982 0.5513 0.7202 0.0
H739 H 0.29302 0.53659 0.75908 0.0
H740 H 0.30155 0.49314 0.73192 0.0
H741 H 0.13549 0.58697 0.70912 0.0
H742 H 0.16631 0.60871 0.74114 0.0
H743 H 0.17101 0.62414 0.70186 0.0
H744 H 0.25473 0.66586 0.80513 0.0
H745 H 0.26542 0.70662 0.71157 0.0
H746 H 0.24715 0.54856 0.7911 0.0
H747 H 0.20367 0.573 0.78756 0.0
H748 H 0.23801 0.59267 0.81754 0.0
H749 H 0.26326 0.59639 0.67851 0.0
H750 H 0.26019 0.65551 0.66944 0.0
H751 H 0.2205 0.62283 0.67138 0.0
C752 C 0.72834 0.67109 0.76092 0.0
C753 C 0.75156 0.69431 0.74388 0.0
C754 C 0.73734 0.62849 0.77358 0.0
C755 C 0.77031 0.60871 0.76903 0.0
C756 C 0.7937 0.63196 0.75164 0.0
C757 C 0.78416 0.67461 0.73951 0.0
C758 C 0.71191 0.60505 0.79234 0.0
C759 C 0.82898 0.61193 0.74606 0.0
C760 C 0.81375 0.52098 0.82567 0.0
C761 C 0.80583 0.48102 0.80895 0.0
C762 C 0.80149 0.56258 0.81331 0.0
C763 C 0.78108 0.56444 0.78332 0.0
C764 C 0.77239 0.52422 0.76654 0.0
C765 C 0.78471 0.48296 0.77961 0.0
C766 C 0.81101 0.60465 0.83211 0.0
C767 C 0.75088 0.52488 0.73441 0.0
H768 H 0.70354 0.68668 0.76505 0.0
H769 H 0.80216 0.69249 0.72633 0.0
H770 H 0.70518 0.57127 0.78247 0.0
H771 H 0.72486 0.60022 0.81676 0.0
H772 H 0.68679 0.62422 0.79278 0.0
H773 H 0.84349 0.63358 0.73104 0.0
H774 H 0.84616 0.60676 0.76873 0.0
H775 H 0.82465 0.57857 0.73477 0.0
H776 H 0.8298 0.51986 0.84845 0.0
H777 H 0.77847 0.45231 0.76648 0.0
H778 H 0.78653 0.62402 0.83473 0.0
H779 H 0.82821 0.62643 0.8196 0.0
H780 H 0.82533 0.59725 0.85576 0.0
H781 H 0.72525 0.54269 0.73514 0.0
H782 H 0.7451 0.49059 0.72498 0.0
H783 H 0.76568 0.54355 0.718 0.0
C784 C 0.44119 0.03629 0.45568 0.0
C785 C 0.45421 0.07525 0.44288 0.0
C786 C 0.46023 0.01542 0.48197 0.0
C787 C 0.49296 0.03409 0.4959 0.0
C788 C 0.5062 0.07344 0.48315 0.0
C789 C 0.48672 0.09347 0.45675 0.0
C790 C 0.44535 0.97334 0.4948 0.0
C791 C 0.54093 0.09445 0.49745 0.0
C792 C 0.52745 0.00422 0.58025 0.0
C793 C 0.5534 0.97179 0.57644 0.0
C794 C 0.50745 0.02464 0.55423 0.0
C795 C 0.51353 0.01229 0.5237 0.0
C796 C 0.53953 0.97939 0.5197 0.0
C797 C 0.55915 0.95958 0.5461 0.0
C798 C 0.47996 0.05962 0.55941 0.0
C799 C 0.54673 0.96525 0.48752 0.0
H800 H 0.4161 0.02196 0.44512 0.0
H801 H 0.49694 0.12363 0.44709 0.0
H802 H 0.46467 0.94538 0.49447 0.0
H803 H 0.44128 0.97863 0.51953 0.0
H804 H 0.41956 0.96307 0.48124 0.0
H805 H 0.5474 0.12528 0.48488 0.0
H806 H 0.5396 0.10315 0.52227 0.0
H807 H 0.56307 0.0701 0.49715 0.0
H808 H 0.52279 0.01385 0.60358 0.0
H809 H 0.57912 0.93452 0.54289 0.0
H810 H 0.45331 0.04927 0.54767 0.0
H811 H 0.4866 0.09195 0.54883 0.0
H812 H 0.47824 0.06519 0.58463 0.0
H813 H 0.52187 0.95244 0.4738 0.0
H814 H 0.56753 0.93878 0.48842 0.0
H815 H 0.55554 0.99462 0.47474 0.0
C816 C 0.56273 0.03941 0.04681 0.0
C817 C 0.55094 0.03776 0.07628 0.0
C818 C 0.54346 0.01836 0.02076 0.0
C819 C 0.51158 0.99519 0.02423 0.0
C820 C 0.49943 0.99355 0.05385 0.0
C821 C 0.51929 0.01481 0.07954 0.0
C822 C 0.55727 0.02079 0.98955 0.0
C823 C 0.46547 0.96927 0.05839 0.0
C824 C 0.44483 0.97425 0.95173 0.0
C825 C 0.45205 0.92944 0.94481 0.0
C826 C 0.46404 0.99609 0.97748 0.0
C827 C 0.49101 0.9725 0.99685 0.0
C828 C 0.49843 0.92729 0.99002 0.0
C829 C 0.4789 0.90632 0.96404 0.0
C830 C 0.45547 0.04441 0.98397 0.0
C831 C 0.52694 0.90103 0.01021 0.0
H832 H 0.58716 0.05705 0.04406 0.0
H833 H 0.50995 0.01346 0.10219 0.0
H834 H 0.56222 0.98646 0.98116 0.0
H835 H 0.53697 0.0365 0.9719 0.0
H836 H 0.58241 0.04037 0.99076 0.0
H837 H 0.45957 0.97135 0.08289 0.0
H838 H 0.44264 0.98367 0.0427 0.0
H839 H 0.46754 0.93339 0.05202 0.0
H840 H 0.42414 0.99238 0.93699 0.0
H841 H 0.48459 0.87166 0.95893 0.0
H842 H 0.47958 0.0655 0.98366 0.0
H843 H 0.44732 0.04742 0.00764 0.0
H844 H 0.43377 0.05802 0.9666 0.0
H845 H 0.55311 0.91798 0.01069 0.0
H846 H 0.52939 0.8661 1.00175 0.0
H847 H 0.52083 0.89983 0.03464 0.0
C848 C 0.02593 0.40771 0.53898 0.0
C849 C 0.05151 0.43112 0.55936 0.0
C850 C 0.0064 0.42916 0.51321 0.0
C851 C 0.01245 0.4752 0.50778 0.0
C852 C 0.03804 0.49911 0.52838 0.0
C853 C 0.05734 0.47675 0.55387 0.0
C854 C 0.97943 0.40252 0.49166 0.0
C855 C 0.0451 0.54829 0.52344 0.0
C856 C 0.9858 0.52058 0.42568 0.0
C857 C 0.95307 0.54133 0.42841 0.0
C858 C 0.0055 0.49912 0.45137 0.0
C859 C 0.99209 0.49828 0.48046 0.0
C860 C 0.95914 0.51927 0.48341 0.0
C861 C 0.94005 0.54061 0.45737 0.0
C862 C 0.04062 0.47725 0.44739 0.0
C863 C 0.94396 0.51902 0.51405 0.0
H864 H 0.02134 0.37242 0.54299 0.0
H865 H 0.07701 0.49512 0.56953 0.0
H866 H 0.95264 0.418 0.49075 0.0
H867 H 0.98655 0.40308 0.46754 0.0
H868 H 0.9778 0.36702 0.4992 0.0
H869 H 0.06563 0.56214 0.54177 0.0
H870 H 0.05418 0.55332 0.50028 0.0
H871 H 0.02011 0.56779 0.52343 0.0
H872 H 0.99611 0.52109 0.40343 0.0
H873 H 0.91479 0.55656 0.4597 0.0
H874 H 0.03959 0.44092 0.45279 0.0
H875 H 0.06237 0.49207 0.46407 0.0
H876 H 0.04747 0.4812 0.42329 0.0
H877 H 0.93982 0.48396 0.5214 0.0
H878 H 0.91814 0.5372 0.51252 0.0
H879 H 0.96311 0.53478 0.53261 0.0
C880 C 0.06062 0.54629 0.04444 0.0
C881 C 0.0563 0.53299 0.07491 0.0
C882 C 0.04075 0.52622 0.01827 0.0
C883 C 0.01598 0.49197 0.02265 0.0
C884 C 0.01141 0.47847 0.05332 0.0
C885 C 0.03161 0.49916 0.07909 0.0
C886 C 0.04632 0.54158 0.98592 0.0
C887 C 0.98528 0.44202 0.05891 0.0
C888 C 0.94209 0.46647 0.95626 0.0
C889 C 0.95558 0.42845 0.94265 0.0
C890 C 0.96147 0.48751 0.98229 0.0
C891 C 0.99508 0.47001 0.99511 0.0
C892 C 0.0088 0.4316 0.98155 0.0
C893 C 0.98893 0.41134 0.95545 0.0
C894 C 0.94602 0.52852 0.99605 0.0
C895 C 0.0445 0.41188 0.99464 0.0
H896 H 0.07961 0.57242 0.04096 0.0
H897 H 0.02808 0.48869 0.10253 0.0
H898 H 0.05536 0.51299 0.97251 0.0
H899 H 0.02074 0.55367 0.97301 0.0
H900 H 0.06635 0.56893 0.98653 0.0
H901 H 0.98472 0.43559 0.0842 0.0
H902 H 0.95803 0.45143 0.04803 0.0
H903 H 0.99239 0.41036 0.0477 0.0
H904 H 0.91635 0.47992 0.94653 0.0
H905 H 0.99955 0.38194 0.94515 0.0
H906 H 0.96444 0.55737 0.99544 0.0
H907 H 0.94308 0.52236 0.02094 0.0
H908 H 0.91956 0.53794 0.98331 0.0
H909 H 0.06581 0.43728 0.99394 0.0
H910 H 0.0513 0.38173 0.98149 0.0
H911 H 0.0444 0.40243 0.0195 0.0
loop_
_geom_bond_atom_site_label_1
_geom_bond_atom_site_label_2
_geom_bond_distance
_geom_bond_site_symmetry_2
_ccdc_geom_bond_type
Co0 O3 1.970 . S
Co0 N17 1.989 . S
Co0 O25 1.967 . S
Co0 O32 1.920 . S
Co1 O4 1.966 . S
Co1 N10 2.022 . S
Co1 N18 1.993 . S
Co1 O26 1.941 . S
C2 O3 1.258 . S
C2 O4 1.263 . S
O3 Co0 1.970 . S
O3 C2 1.258 . S
O4 Co1 1.966 . S
O4 C2 1.263 . S
C5 O6 1.235 . S
C5 O32 1.289 . S
O6 C5 1.235 . S
C7 C9 1.400 . S
C7 N10 1.351 . S
C7 C12 1.501 . S
C8 C9 1.387 . S
C8 N11 1.341 . S
C9 C7 1.400 . S
C9 C8 1.387 . S
N10 Co1 2.022 . S
N10 C7 1.351 . S
N10 N11 1.365 . S
N11 C8 1.341 . S
N11 N10 1.365 . S
N11 H31 0.862 . S
C12 C7 1.501 . S
C12 H13 0.961 . S
C12 H14 0.961 . S
C12 H15 0.960 . S
H13 C12 0.961 . S
H14 C12 0.961 . S
H15 C12 0.960 . S
C16 N17 1.342 . S
C16 C20 1.401 . S
C16 C21 1.499 . S
N17 Co0 1.989 . S
N17 C16 1.342 . S
N17 N18 1.388 . S
N18 Co1 1.993 . S
N18 N17 1.388 . S
N18 C19 1.346 . S
C19 N18 1.346 . S
C19 C20 1.396 . S
C19 C29 1.510 . S
C20 C16 1.401 . S
C20 C19 1.396 . S
C21 C16 1.499 . S
C21 H22 0.959 . S
C21 H23 0.960 . S
C21 H24 0.961 . S
H22 C21 0.959 . S
H23 C21 0.960 . S
H24 C21 0.961 . S
O25 Co0 1.967 . S
O25 C33 1.258 . S
O26 Co1 1.941 . S
O26 C33 1.266 . S
H27 C29 0.959 . S
H28 C29 0.961 . S
C29 C19 1.510 . S
C29 H27 0.959 . S
C29 H28 0.961 . S
C29 H30 0.960 . S
H30 C29 0.960 . S
H31 N11 0.862 . S
O32 Co0 1.920 . S
O32 C5 1.289 . S
C33 O25 1.258 . S
C33 O26 1.266 . S
Co34 O37 1.970 . S
Co34 N51 1.989 . S
Co34 O59 1.967 . S
Co34 O66 1.920 . S
Co35 O38 1.966 . S
Co35 N44 2.022 . S
Co35 N52 1.993 . S
Co35 O60 1.941 . S
C36 O37 1.258 . S
C36 O38 1.263 . S
O37 Co34 1.970 . S
O37 C36 1.258 . S
O38 Co35 1.966 . S
O38 C36 1.263 . S
C39 O40 1.235 . S
C39 O66 1.289 . S
O40 C39 1.235 . S
C41 C43 1.400 . S
C41 N44 1.351 . S
C41 C46 1.501 . S
C42 C43 1.387 . S
C42 N45 1.341 . S
C43 C41 1.400 . S
C43 C42 1.387 . S
N44 Co35 2.022 . S
N44 C41 1.351 . S
N44 N45 1.365 . S
N45 C42 1.341 . S
N45 N44 1.365 . S
N45 H65 0.862 . S
C46 C41 1.501 . S
C46 H47 0.961 . S
C46 H48 0.961 . S
C46 H49 0.960 . S
H47 C46 0.961 . S
H48 C46 0.961 . S
H49 C46 0.960 . S
C50 N51 1.342 . S
C50 C54 1.401 . S
C50 C55 1.499 . S
N51 Co34 1.989 . S
N51 C50 1.342 . S
N51 N52 1.388 . S
N52 Co35 1.993 . S
N52 N51 1.388 . S
N52 C53 1.346 . S
C53 N52 1.346 . S
C53 C54 1.396 . S
C53 C63 1.510 . S
C54 C50 1.401 . S
C54 C53 1.396 . S
C55 C50 1.499 . S
C55 H56 0.959 . S
C55 H57 0.960 . S
C55 H58 0.961 . S
H56 C55 0.959 . S
H57 C55 0.960 . S
H58 C55 0.961 . S
O59 Co34 1.967 . S
O59 C67 1.258 . S
O60 Co35 1.941 . S
O60 C67 1.266 . S
H61 C63 0.959 . S
H62 C63 0.961 . S
C63 C53 1.510 . S
C63 H61 0.959 . S
C63 H62 0.961 . S
C63 H64 0.960 . S
H64 C63 0.960 . S
H65 N45 0.862 . S
O66 Co34 1.920 . S
O66 C39 1.289 . S
C67 O59 1.258 . S
C67 O60 1.266 . S
Co68 O71 1.970 . S
Co68 N85 1.989 . S
Co68 O93 1.967 . S
Co68 O100 1.920 . S
Co69 O72 1.966 . S
Co69 N78 2.022 . S
Co69 N86 1.993 . S
Co69 O94 1.941 . S
C70 O71 1.258 . S
C70 O72 1.263 . S
O71 Co68 1.970 . S
O71 C70 1.258 . S
O72 Co69 1.966 . S
O72 C70 1.263 . S
C73 O74 1.235 . S
C73 O100 1.289 . S
O74 C73 1.235 . S
C75 C77 1.400 . S
C75 N78 1.351 . S
C75 C80 1.501 . S
C76 C77 1.387 . S
C76 N79 1.341 . S
C77 C75 1.400 . S
C77 C76 1.387 . S
N78 Co69 2.022 . S
N78 C75 1.351 . S
N78 N79 1.365 . S
N79 C76 1.341 . S
N79 N78 1.365 . S
N79 H99 0.862 . S
C80 C75 1.501 . S
C80 H81 0.961 . S
C80 H82 0.961 . S
C80 H83 0.960 . S
H81 C80 0.961 . S
H82 C80 0.961 . S
H83 C80 0.960 . S
C84 N85 1.342 . S
C84 C88 1.401 . S
C84 C89 1.499 . S
N85 Co68 1.989 . S
N85 C84 1.342 . S
N85 N86 1.388 . S
N86 Co69 1.993 . S
N86 N85 1.388 . S
N86 C87 1.346 . S
C87 N86 1.346 . S
C87 C88 1.396 . S
C87 C97 1.510 . S
C88 C84 1.401 . S
C88 C87 1.396 . S
C89 C84 1.499 . S
C89 H90 0.959 . S
C89 H91 0.960 . S
C89 H92 0.961 . S
H90 C89 0.959 . S
H91 C89 0.960 . S
H92 C89 0.961 . S
O93 Co68 1.967 . S
O93 C101 1.258 . S
O94 Co69 1.941 . S
O94 C101 1.266 . S
H95 C97 0.959 . S
H96 C97 0.961 . S
C97 C87 1.510 . S
C97 H95 0.959 . S
C97 H96 0.961 . S
C97 H98 0.960 . S
H98 C97 0.960 . S
H99 N79 0.862 . S
O100 Co68 1.920 . S
O100 C73 1.289 . S
C101 O93 1.258 . S
C101 O94 1.266 . S
Co102 O105 1.970 . S
Co102 N119 1.989 . S
Co102 O127 1.967 . S
Co102 O134 1.920 . S
Co103 O106 1.966 . S
Co103 N112 2.022 . S
Co103 N120 1.993 . S
Co103 O128 1.941 . S
C104 O105 1.258 . S
C104 O106 1.263 . S
O105 Co102 1.970 . S
O105 C104 1.258 . S
O106 Co103 1.966 . S
O106 C104 1.263 . S
C107 O108 1.235 . S
C107 O134 1.289 . S
O108 C107 1.235 . S
C109 C111 1.400 . S
C109 N112 1.351 . S
C109 C114 1.501 . S
C110 C111 1.387 . S
C110 N113 1.341 . S
C111 C109 1.400 . S
C111 C110 1.387 . S
N112 Co103 2.022 . S
N112 C109 1.351 . S
N112 N113 1.365 . S
N113 C110 1.341 . S
N113 N112 1.365 . S
N113 H133 0.862 . S
C114 C109 1.501 . S
C114 H115 0.961 . S
C114 H116 0.961 . S
C114 H117 0.960 . S
H115 C114 0.961 . S
H116 C114 0.961 . S
H117 C114 0.960 . S
C118 N119 1.342 . S
C118 C122 1.401 . S
C118 C123 1.499 . S
N119 Co102 1.989 . S
N119 C118 1.342 . S
N119 N120 1.388 . S
N120 Co103 1.993 . S
N120 N119 1.388 . S
N120 C121 1.346 . S
C121 N120 1.346 . S
C121 C122 1.396 . S
C121 C131 1.510 . S
C122 C118 1.401 . S
C122 C121 1.396 . S
C123 C118 1.499 . S
C123 H124 0.959 . S
C123 H125 0.960 . S
C123 H126 0.961 . S
H124 C123 0.959 . S
H125 C123 0.960 . S
H126 C123 0.961 . S
O127 Co102 1.967 . S
O127 C135 1.258 . S
O128 Co103 1.941 . S
O128 C135 1.266 . S
H129 C131 0.959 . S
H130 C131 0.961 . S
C131 C121 1.510 . S
C131 H129 0.959 . S
C131 H130 0.961 . S
C131 H132 0.960 . S
H132 C131 0.960 . S
H133 N113 0.862 . S
O134 Co102 1.920 . S
O134 C107 1.289 . S
C135 O127 1.258 . S
C135 O128 1.266 . S
Co136 O139 1.970 . S
Co136 N153 1.989 . S
Co136 O161 1.967 . S
Co136 O168 1.920 . S
Co137 O140 1.966 . S
Co137 N146 2.022 . S
Co137 N154 1.993 . S
Co137 O162 1.941 . S
C138 O139 1.258 . S
C138 O140 1.263 . S
O139 Co136 1.970 . S
O139 C138 1.258 . S
O140 Co137 1.966 . S
O140 C138 1.263 . S
C141 O142 1.235 . S
C141 O168 1.289 . S
O142 C141 1.235 . S
C143 C145 1.400 . S
C143 N146 1.351 . S
C143 C148 1.501 . S
C144 C145 1.387 . S
C144 N147 1.341 . S
C145 C143 1.400 . S
C145 C144 1.387 . S
N146 Co137 2.022 . S
N146 C143 1.351 . S
N146 N147 1.365 . S
N147 C144 1.341 . S
N147 N146 1.365 . S
N147 H167 0.862 . S
C148 C143 1.501 . S
C148 H149 0.961 . S
C148 H150 0.961 . S
C148 H151 0.960 . S
H149 C148 0.961 . S
H150 C148 0.961 . S
H151 C148 0.960 . S
C152 N153 1.342 . S
C152 C156 1.401 . S
C152 C157 1.499 . S
N153 Co136 1.989 . S
N153 C152 1.342 . S
N153 N154 1.388 . S
N154 Co137 1.993 . S
N154 N153 1.388 . S
N154 C155 1.346 . S
C155 N154 1.346 . S
C155 C156 1.396 . S
C155 C165 1.510 . S
C156 C152 1.401 . S
C156 C155 1.396 . S
C157 C152 1.499 . S
C157 H158 0.959 . S
C157 H159 0.960 . S
C157 H160 0.961 . S
H158 C157 0.959 . S
H159 C157 0.960 . S
H160 C157 0.961 . S
O161 Co136 1.967 . S
O161 C169 1.258 . S
O162 Co137 1.941 . S
O162 C169 1.266 . S
H163 C165 0.959 . S
H164 C165 0.961 . S
C165 C155 1.510 . S
C165 H163 0.959 . S
C165 H164 0.961 . S
C165 H166 0.960 . S
H166 C165 0.960 . S
H167 N147 0.862 . S
O168 Co136 1.920 . S
O168 C141 1.289 . S
C169 O161 1.258 . S
C169 O162 1.266 . S
Co170 O173 1.970 . S
Co170 N187 1.989 . S
Co170 O195 1.967 . S
Co170 O202 1.920 . S
Co171 O174 1.966 . S
Co171 N180 2.022 . S
Co171 N188 1.993 . S
Co171 O196 1.941 . S
C172 O173 1.258 . S
C172 O174 1.263 . S
O173 Co170 1.970 . S
O173 C172 1.258 . S
O174 Co171 1.966 . S
O174 C172 1.263 . S
C175 O176 1.235 . S
C175 O202 1.289 . S
O176 C175 1.235 . S
C177 C179 1.400 . S
C177 N180 1.351 . S
C177 C182 1.501 . S
C178 C179 1.387 . S
C178 N181 1.341 . S
C179 C177 1.400 . S
C179 C178 1.387 . S
N180 Co171 2.022 . S
N180 C177 1.351 . S
N180 N181 1.365 . S
N181 C178 1.341 . S
N181 N180 1.365 . S
N181 H201 0.862 . S
C182 C177 1.501 . S
C182 H183 0.961 . S
C182 H184 0.961 . S
C182 H185 0.960 . S
H183 C182 0.961 . S
H184 C182 0.961 . S
H185 C182 0.960 . S
C186 N187 1.342 . S
C186 C190 1.401 . S
C186 C191 1.499 . S
N187 Co170 1.989 . S
N187 C186 1.342 . S
N187 N188 1.388 . S
N188 Co171 1.993 . S
N188 N187 1.388 . S
N188 C189 1.346 . S
C189 N188 1.346 . S
C189 C190 1.396 . S
C189 C199 1.510 . S
C190 C186 1.401 . S
C190 C189 1.396 . S
C191 C186 1.499 . S
C191 H192 0.959 . S
C191 H193 0.960 . S
C191 H194 0.961 . S
H192 C191 0.959 . S
H193 C191 0.960 . S
H194 C191 0.961 . S
O195 Co170 1.967 . S
O195 C203 1.258 . S
O196 Co171 1.941 . S
O196 C203 1.266 . S
H197 C199 0.959 . S
H198 C199 0.961 . S
C199 C189 1.510 . S
C199 H197 0.959 . S
C199 H198 0.961 . S
C199 H200 0.960 . S
H200 C199 0.960 . S
H201 N181 0.862 . S
O202 Co170 1.920 . S
O202 C175 1.289 . S
C203 O195 1.258 . S
C203 O196 1.266 . S
Co204 O207 1.970 . S
Co204 N221 1.989 . S
Co204 O229 1.967 . S
Co204 O236 1.920 . S
Co205 O208 1.966 . S
Co205 N214 2.022 . S
Co205 N222 1.993 . S
Co205 O230 1.941 . S
C206 O207 1.258 . S
C206 O208 1.263 . S
O207 Co204 1.970 . S
O207 C206 1.258 . S
O208 Co205 1.966 . S
O208 C206 1.263 . S
C209 O210 1.235 . S
C209 O236 1.289 . S
O210 C209 1.235 . S
C211 C213 1.400 . S
C211 N214 1.351 . S
C211 C216 1.501 . S
C212 C213 1.387 . S
C212 N215 1.341 . S
C213 C211 1.400 . S
C213 C212 1.387 . S
N214 Co205 2.022 . S
N214 C211 1.351 . S
N214 N215 1.365 . S
N215 C212 1.341 . S
N215 N214 1.365 . S
N215 H235 0.862 . S
C216 C211 1.501 . S
C216 H217 0.961 . S
C216 H218 0.961 . S
C216 H219 0.960 . S
H217 C216 0.961 . S
H218 C216 0.961 . S
H219 C216 0.960 . S
C220 N221 1.342 . S
C220 C224 1.401 . S
C220 C225 1.499 . S
N221 Co204 1.989 . S
N221 C220 1.342 . S
N221 N222 1.388 . S
N222 Co205 1.993 . S
N222 N221 1.388 . S
N222 C223 1.346 . S
C223 N222 1.346 . S
C223 C224 1.396 . S
C223 C233 1.510 . S
C224 C220 1.401 . S
C224 C223 1.396 . S
C225 C220 1.499 . S
C225 H226 0.959 . S
C225 H227 0.960 . S
C225 H228 0.961 . S
H226 C225 0.959 . S
H227 C225 0.960 . S
H228 C225 0.961 . S
O229 Co204 1.967 . S
O229 C237 1.258 . S
O230 Co205 1.941 . S
O230 C237 1.266 . S
H231 C233 0.959 . S
H232 C233 0.961 . S
C233 C223 1.510 . S
C233 H231 0.959 . S
C233 H232 0.961 . S
C233 H234 0.960 . S
H234 C233 0.960 . S
H235 N215 0.862 . S
O236 Co204 1.920 . S
O236 C209 1.289 . S
C237 O229 1.258 . S
C237 O230 1.266 . S
Co238 O241 1.970 . S
Co238 N255 1.989 . S
Co238 O263 1.967 . S
Co238 O270 1.920 . S
Co239 O242 1.966 . S
Co239 N248 2.022 . S
Co239 N256 1.993 . S
Co239 O264 1.941 . S
C240 O241 1.258 . S
C240 O242 1.263 . S
O241 Co238 1.970 . S
O241 C240 1.258 . S
O242 Co239 1.966 . S
O242 C240 1.263 . S
C243 O244 1.235 . S
C243 O270 1.289 . S
O244 C243 1.235 . S
C245 C247 1.400 . S
C245 N248 1.351 . S
C245 C250 1.501 . S
C246 C247 1.387 . S
C246 N249 1.341 . S
C247 C245 1.400 . S
C247 C246 1.387 . S
N248 Co239 2.022 . S
N248 C245 1.351 . S
N248 N249 1.365 . S
N249 C246 1.341 . S
N249 N248 1.365 . S
N249 H269 0.862 . S
C250 C245 1.501 . S
C250 H251 0.961 . S
C250 H252 0.961 . S
C250 H253 0.960 . S
H251 C250 0.961 . S
H252 C250 0.961 . S
H253 C250 0.960 . S
C254 N255 1.342 . S
C254 C258 1.401 . S
C254 C259 1.499 . S
N255 Co238 1.989 . S
N255 C254 1.342 . S
N255 N256 1.388 . S
N256 Co239 1.993 . S
N256 N255 1.388 . S
N256 C257 1.346 . S
C257 N256 1.346 . S
C257 C258 1.396 . S
C257 C267 1.510 . S
C258 C254 1.401 . S
C258 C257 1.396 . S
C259 C254 1.499 . S
C259 H260 0.959 . S
C259 H261 0.960 . S
C259 H262 0.961 . S
H260 C259 0.959 . S
H261 C259 0.960 . S
H262 C259 0.961 . S
O263 Co238 1.967 . S
O263 C271 1.258 . S
O264 Co239 1.941 . S
O264 C271 1.266 . S
H265 C267 0.959 . S
H266 C267 0.961 . S
C267 C257 1.510 . S
C267 H265 0.959 . S
C267 H266 0.961 . S
C267 H268 0.960 . S
H268 C267 0.960 . S
H269 N249 0.862 . S
O270 Co238 1.920 . S
O270 C243 1.289 . S
C271 O263 1.258 . S
C271 O264 1.266 . S
C272 C273 1.391 . S
C272 C274 1.394 . S
C272 H288 0.931 . S
C273 C272 1.391 . S
C273 C277 1.376 . S
C274 C272 1.394 . S
C274 C275 1.369 . S
C274 C278 1.531 . S
C275 C274 1.369 . S
C275 C276 1.410 . S
C275 C283 1.503 . S
C276 C275 1.410 . S
C276 C277 1.392 . S
C276 C279 1.511 . S
C277 C273 1.376 . S
C277 C276 1.392 . S
C277 H289 0.929 . S
C278 C274 1.531 . S
C278 H290 0.960 . S
C278 H291 0.962 . S
C278 H292 0.960 . S
C279 C276 1.511 . S
C279 H293 0.961 . S
C279 H294 0.961 . S
C279 H295 0.961 . S
C280 C281 1.370 . S
C280 C282 1.363 . S
C280 H296 0.931 . S
C281 C280 1.370 . S
C281 C285 1.408 . S
C282 C280 1.363 . S
C282 C283 1.370 . S
C282 C286 1.524 . S
C283 C275 1.503 . S
C283 C282 1.370 . S
C283 C284 1.403 . S
C284 C283 1.403 . S
C284 C285 1.404 . S
C284 C287 1.539 . S
C285 C281 1.408 . S
C285 C284 1.404 . S
C285 H297 0.930 . S
C286 C282 1.524 . S
C286 H298 0.956 . S
C286 H299 0.961 . S
C286 H300 0.961 . S
C287 C284 1.539 . S
C287 H301 0.958 . S
C287 H302 0.961 . S
C287 H303 0.960 . S
H288 C272 0.931 . S
H289 C277 0.929 . S
H290 C278 0.960 . S
H291 C278 0.962 . S
H292 C278 0.960 . S
H293 C279 0.961 . S
H294 C279 0.961 . S
H295 C279 0.961 . S
H296 C280 0.931 . S
H297 C285 0.930 . S
H298 C286 0.956 . S
H299 C286 0.961 . S
H300 C286 0.961 . S
H301 C287 0.958 . S
H302 C287 0.961 . S
H303 C287 0.960 . S
C304 C305 1.391 . S
C304 C306 1.394 . S
C304 H320 0.931 . S
C305 C304 1.391 . S
C305 C309 1.376 . S
C306 C304 1.394 . S
C306 C307 1.369 . S
C306 C310 1.531 1_554 S
C307 C306 1.369 . S
C307 C308 1.410 . S
C307 C315 1.503 1_554 S
C308 C307 1.410 . S
C308 C309 1.392 . S
C308 C311 1.511 . S
C309 C305 1.376 . S
C309 C308 1.392 . S
C309 H321 0.929 . S
C310 C306 1.531 1_556 S
C310 H322 0.960 . S
C310 H323 0.962 . S
C310 H324 0.960 . S
C311 C308 1.511 . S
C311 H325 0.961 . S
C311 H326 0.961 . S
C311 H327 0.961 . S
C312 C313 1.370 . S
C312 C314 1.363 . S
C312 H328 0.931 . S
C313 C312 1.370 . S
C313 C317 1.408 . S
C314 C312 1.363 . S
C314 C315 1.370 . S
C314 C318 1.524 . S
C315 C307 1.503 1_556 S
C315 C314 1.370 . S
C315 C316 1.403 . S
C316 C315 1.403 . S
C316 C317 1.404 . S
C316 C319 1.539 1_556 S
C317 C313 1.408 . S
C317 C316 1.404 . S
C317 H329 0.930 . S
C318 C314 1.524 . S
C318 H330 0.956 . S
C318 H331 0.961 . S
C318 H332 0.961 . S
C319 C316 1.539 1_554 S
C319 H333 0.958 . S
C319 H334 0.961 . S
C319 H335 0.960 . S
H320 C304 0.931 . S
H321 C309 0.929 . S
H322 C310 0.960 . S
H323 C310 0.962 . S
H324 C310 0.960 . S
H325 C311 0.961 . S
H326 C311 0.961 . S
H327 C311 0.961 . S
H328 C312 0.931 . S
H329 C317 0.930 . S
H330 C318 0.956 . S
H331 C318 0.961 . S
H332 C318 0.961 . S
H333 C319 0.958 . S
H334 C319 0.961 . S
H335 C319 0.960 . S
C336 C337 1.391 . S
C336 C338 1.394 . S
C336 H352 0.931 . S
C337 C336 1.391 . S
C337 C341 1.376 . S
C338 C336 1.394 . S
C338 C339 1.369 . S
C338 C342 1.531 . S
C339 C338 1.369 . S
C339 C340 1.410 . S
C339 C347 1.503 . S
C340 C339 1.410 . S
C340 C341 1.392 . S
C340 C343 1.511 . S
C341 C337 1.376 . S
C341 C340 1.392 . S
C341 H353 0.929 . S
C342 C338 1.531 . S
C342 H354 0.960 . S
C342 H355 0.962 . S
C342 H356 0.960 . S
C343 C340 1.511 . S
C343 H357 0.961 . S
C343 H358 0.961 . S
C343 H359 0.961 . S
C344 C345 1.370 . S
C344 C346 1.363 . S
C344 H360 0.931 . S
C345 C344 1.370 . S
C345 C349 1.408 . S
C346 C344 1.363 . S
C346 C347 1.370 . S
C346 C350 1.524 . S
C347 C339 1.503 . S
C347 C346 1.370 . S
C347 C348 1.403 . S
C348 C347 1.403 . S
C348 C349 1.404 . S
C348 C351 1.539 . S
C349 C345 1.408 . S
C349 C348 1.404 . S
C349 H361 0.930 . S
C350 C346 1.524 . S
C350 H362 0.956 . S
C350 H363 0.961 . S
C350 H364 0.961 . S
C351 C348 1.539 . S
C351 H365 0.958 . S
C351 H366 0.961 . S
C351 H367 0.960 . S
H352 C336 0.931 . S
H353 C341 0.929 . S
H354 C342 0.960 . S
H355 C342 0.962 . S
H356 C342 0.960 . S
H357 C343 0.961 . S
H358 C343 0.961 . S
H359 C343 0.961 . S
H360 C344 0.931 . S
H361 C349 0.930 . S
H362 C350 0.956 . S
H363 C350 0.961 . S
H364 C350 0.961 . S
H365 C351 0.958 . S
H366 C351 0.961 . S
H367 C351 0.960 . S
C368 C369 1.391 . S
C368 C370 1.394 . S
C368 H384 0.931 . S
C369 C368 1.391 . S
C369 C373 1.376 . S
C370 C368 1.394 . S
C370 C371 1.369 . S
C370 C374 1.531 1_556 S
C371 C370 1.369 . S
C371 C372 1.410 . S
C371 C379 1.503 1_556 S
C372 C371 1.410 . S
C372 C373 1.392 . S
C372 C375 1.511 . S
C373 C369 1.376 . S
C373 C372 1.392 . S
C373 H385 0.929 . S
C374 C370 1.531 1_554 S
C374 H386 0.960 . S
C374 H387 0.962 . S
C374 H388 0.960 . S
C375 C372 1.511 . S
C375 H389 0.961 . S
C375 H390 0.961 . S
C375 H391 0.961 . S
C376 C377 1.370 . S
C376 C378 1.363 . S
C376 H392 0.931 . S
C377 C376 1.370 . S
C377 C381 1.408 . S
C378 C376 1.363 . S
C378 C379 1.370 . S
C378 C382 1.524 . S
C379 C371 1.503 1_554 S
C379 C378 1.370 . S
C379 C380 1.403 . S
C380 C379 1.403 . S
C380 C381 1.404 . S
C380 C383 1.539 . S
C381 C377 1.408 . S
C381 C380 1.404 . S
C381 H393 0.930 . S
C382 C378 1.524 . S
C382 H394 0.956 . S
C382 H395 0.961 1_554 S
C382 H396 0.961 . S
C383 C380 1.539 . S
C383 H397 0.958 . S
C383 H398 0.961 . S
C383 H399 0.960 1_554 S
H384 C368 0.931 . S
H385 C373 0.929 . S
H386 C374 0.960 . S
H387 C374 0.962 . S
H388 C374 0.960 . S
H389 C375 0.961 . S
H390 C375 0.961 . S
H391 C375 0.961 . S
H392 C376 0.931 . S
H393 C381 0.930 . S
H394 C382 0.956 . S
H395 C382 0.961 1_556 S
H396 C382 0.961 . S
H397 C383 0.958 . S
H398 C383 0.961 . S
H399 C383 0.960 1_556 S
C400 C401 1.391 . S
C400 C402 1.394 . S
C400 H416 0.931 . S
C401 C400 1.391 . S
C401 C405 1.376 . S
C402 C400 1.394 . S
C402 C403 1.369 . S
C402 C406 1.531 . S
C403 C402 1.369 . S
C403 C404 1.410 . S
C403 C411 1.503 . S
C404 C403 1.410 . S
C404 C405 1.392 . S
C404 C407 1.511 . S
C405 C401 1.376 . S
C405 C404 1.392 . S
C405 H417 0.929 . S
C406 C402 1.531 . S
C406 H418 0.960 . S
C406 H419 0.962 . S
C406 H420 0.960 . S
C407 C404 1.511 . S
C407 H421 0.961 . S
C407 H422 0.961 . S
C407 H423 0.961 . S
C408 C409 1.370 . S
C408 C410 1.363 . S
C408 H424 0.931 . S
C409 C408 1.370 . S
C409 C413 1.408 . S
C410 C408 1.363 . S
C410 C411 1.370 . S
C410 C414 1.524 . S
C411 C403 1.503 . S
C411 C410 1.370 . S
C411 C412 1.403 . S
C412 C411 1.403 . S
C412 C413 1.404 . S
C412 C415 1.539 . S
C413 C409 1.408 . S
C413 C412 1.404 . S
C413 H425 0.930 . S
C414 C410 1.524 . S
C414 H426 0.956 . S
C414 H427 0.961 . S
C414 H428 0.961 . S
C415 C412 1.539 . S
C415 H429 0.958 . S
C415 H430 0.961 . S
C415 H431 0.960 . S
H416 C400 0.931 . S
H417 C405 0.929 . S
H418 C406 0.960 . S
H419 C406 0.962 . S
H420 C406 0.960 . S
H421 C407 0.961 . S
H422 C407 0.961 . S
H423 C407 0.961 . S
H424 C408 0.931 . S
H425 C413 0.930 . S
H426 C414 0.956 . S
H427 C414 0.961 . S
H428 C414 0.961 . S
H429 C415 0.958 . S
H430 C415 0.961 . S
H431 C415 0.960 . S
C432 C433 1.391 . S
C432 C434 1.394 . S
C432 H448 0.931 . S
C433 C432 1.391 . S
C433 C437 1.376 . S
C434 C432 1.394 . S
C434 C435 1.369 . S
C434 C438 1.531 . S
C435 C434 1.369 . S
C435 C436 1.410 . S
C435 C443 1.503 . S
C436 C435 1.410 . S
C436 C437 1.392 . S
C436 C439 1.511 . S
C437 C433 1.376 . S
C437 C436 1.392 . S
C437 H449 0.929 . S
C438 C434 1.531 . S
C438 H450 0.960 . S
C438 H451 0.962 . S
C438 H452 0.960 . S
C439 C436 1.511 . S
C439 H453 0.961 . S
C439 H454 0.961 . S
C439 H455 0.961 . S
C440 C441 1.370 . S
C440 C442 1.363 . S
C440 H456 0.931 . S
C441 C440 1.370 . S
C441 C445 1.408 . S
C442 C440 1.363 . S
C442 C443 1.370 . S
C442 C446 1.524 . S
C443 C435 1.503 . S
C443 C442 1.370 . S
C443 C444 1.403 . S
C444 C443 1.403 . S
C444 C445 1.404 . S
C444 C447 1.539 . S
C445 C441 1.408 . S
C445 C444 1.404 . S
C445 H457 0.930 . S
C446 C442 1.524 . S
C446 H458 0.956 . S
C446 H459 0.961 . S
C446 H460 0.961 . S
C447 C444 1.539 . S
C447 H461 0.958 . S
C447 H462 0.961 . S
C447 H463 0.960 . S
H448 C432 0.931 . S
H449 C437 0.929 . S
H450 C438 0.960 . S
H451 C438 0.962 . S
H452 C438 0.960 . S
H453 C439 0.961 . S
H454 C439 0.961 . S
H455 C439 0.961 . S
H456 C440 0.931 . S
H457 C445 0.930 . S
H458 C446 0.956 . S
H459 C446 0.961 . S
H460 C446 0.961 . S
H461 C447 0.958 . S
H462 C447 0.961 . S
H463 C447 0.960 . S
C464 C465 1.391 . S
C464 C466 1.394 . S
C464 H480 0.931 . S
C465 C464 1.391 . S
C465 C469 1.376 . S
C466 C464 1.394 . S
C466 C467 1.369 . S
C466 C470 1.531 1_455 S
C467 C466 1.369 . S
C467 C468 1.410 . S
C467 C475 1.503 1_455 S
C468 C467 1.410 . S
C468 C469 1.392 . S
C468 C471 1.511 . S
C469 C465 1.376 . S
C469 C468 1.392 . S
C469 H481 0.929 . S
C470 C466 1.531 1_655 S
C470 H482 0.960 . S
C470 H483 0.962 . S
C470 H484 0.960 1_655 S
C471 C468 1.511 . S
C471 H485 0.961 . S
C471 H486 0.961 . S
C471 H487 0.961 . S
C472 C473 1.370 . S
C472 C474 1.363 . S
C472 H488 0.931 . S
C473 C472 1.370 . S
C473 C477 1.408 . S
C474 C472 1.363 . S
C474 C475 1.370 . S
C474 C478 1.524 . S
C475 C467 1.503 1_655 S
C475 C474 1.370 . S
C475 C476 1.403 . S
C476 C475 1.403 . S
C476 C477 1.404 . S
C476 C479 1.539 1_655 S
C477 C473 1.408 . S
C477 C476 1.404 . S
C477 H489 0.930 . S
C478 C474 1.524 . S
C478 H490 0.956 . S
C478 H491 0.961 . S
C478 H492 0.961 . S
C479 C476 1.539 1_455 S
C479 H493 0.958 . S
C479 H494 0.961 . S
C479 H495 0.960 . S
H480 C464 0.931 . S
H481 C469 0.929 . S
H482 C470 0.960 . S
H483 C470 0.962 . S
H484 C470 0.960 1_455 S
H485 C471 0.961 . S
H486 C471 0.961 . S
H487 C471 0.961 . S
H488 C472 0.931 . S
H489 C477 0.930 . S
H490 C478 0.956 . S
H491 C478 0.961 . S
H492 C478 0.961 . S
H493 C479 0.958 . S
H494 C479 0.961 . S
H495 C479 0.960 . S
C496 C497 1.391 . S
C496 C498 1.394 . S
C496 H512 0.931 . S
C497 C496 1.391 . S
C497 C501 1.376 . S
C498 C496 1.394 . S
C498 C499 1.369 . S
C498 C502 1.531 . S
C499 C498 1.369 . S
C499 C500 1.410 . S
C499 C507 1.503 1_455 S
C500 C499 1.410 . S
C500 C501 1.392 . S
C500 C503 1.511 . S
C501 C497 1.376 . S
C501 C500 1.392 . S
C501 H513 0.929 . S
C502 C498 1.531 . S
C502 H514 0.960 . S
C502 H515 0.962 . S
C502 H516 0.960 . S
C503 C500 1.511 . S
C503 H517 0.961 . S
C503 H518 0.961 1_455 S
C503 H519 0.961 . S
C504 C505 1.370 . S
C504 C506 1.363 . S
C504 H520 0.931 . S
C505 C504 1.370 . S
C505 C509 1.408 . S
C506 C504 1.363 . S
C506 C507 1.370 . S
C506 C510 1.524 . S
C507 C499 1.503 1_655 S
C507 C506 1.370 . S
C507 C508 1.403 . S
C508 C507 1.403 . S
C508 C509 1.404 . S
C508 C511 1.539 1_655 S
C509 C505 1.408 . S
C509 C508 1.404 . S
C509 H521 0.930 . S
C510 C506 1.524 . S
C510 H522 0.956 . S
C510 H523 0.961 . S
C510 H524 0.961 . S
C511 C508 1.539 1_455 S
C511 H525 0.958 . S
C511 H526 0.961 . S
C511 H527 0.960 . S
H512 C496 0.931 . S
H513 C501 0.929 . S
H514 C502 0.960 . S
H515 C502 0.962 . S
H516 C502 0.960 . S
H517 C503 0.961 . S
H518 C503 0.961 1_655 S
H519 C503 0.961 . S
H520 C504 0.931 . S
H521 C509 0.930 . S
H522 C510 0.956 . S
H523 C510 0.961 . S
H524 C510 0.961 . S
H525 C511 0.958 . S
H526 C511 0.961 . S
H527 C511 0.960 . S
C528 C529 1.391 . S
C528 C530 1.394 . S
C528 H544 0.931 . S
C529 C528 1.391 . S
C529 C533 1.376 . S
C530 C528 1.394 . S
C530 C531 1.369 . S
C530 C534 1.531 . S
C531 C530 1.369 . S
C531 C532 1.410 . S
C531 C539 1.503 . S
C532 C531 1.410 . S
C532 C533 1.392 . S
C532 C535 1.511 . S
C533 C529 1.376 . S
C533 C532 1.392 . S
C533 H545 0.929 . S
C534 C530 1.531 . S
C534 H546 0.960 . S
C534 H547 0.962 . S
C534 H548 0.960 . S
C535 C532 1.511 . S
C535 H549 0.961 . S
C535 H550 0.961 . S
C535 H551 0.961 . S
C536 C537 1.370 . S
C536 C538 1.343 1_545 S
C536 H552 0.931 . S
C537 C536 1.370 . S
C537 C541 1.408 . S
C538 C536 1.343 1_565 S
C538 C539 1.387 . S
C538 C542 1.528 . S
C539 C531 1.503 . S
C539 C538 1.387 . S
C539 C540 1.403 . S
C540 C539 1.403 . S
C540 C541 1.404 1_565 S
C540 C543 1.539 . S
C541 C537 1.408 . S
C541 C540 1.404 1_545 S
C541 H553 0.930 . S
C542 C538 1.528 . S
C542 H554 0.956 . S
C542 H555 0.961 . S
C542 H556 0.961 1_565 S
C543 C540 1.539 . S
C543 H557 0.958 . S
C543 H558 0.961 . S
C543 H559 0.960 . S
H544 C528 0.931 . S
H545 C533 0.929 . S
H546 C534 0.960 . S
H547 C534 0.962 . S
H548 C534 0.960 . S
H549 C535 0.961 . S
H550 C535 0.961 . S
H551 C535 0.961 . S
H552 C536 0.931 . S
H553 C541 0.930 . S
H554 C542 0.956 . S
H555 C542 0.961 . S
H556 C542 0.961 1_545 S
H557 C543 0.958 . S
H558 C543 0.961 . S
H559 C543 0.960 . S
C560 C561 1.391 . S
C560 C562 1.394 1_545 S
C560 H576 0.931 . S
C561 C560 1.391 . S
C561 C565 1.376 . S
C562 C560 1.394 1_565 S
C562 C563 1.369 . S
C562 C566 1.531 . S
C563 C562 1.369 . S
C563 C564 1.410 1_565 S
C563 C571 1.503 . S
C564 C563 1.410 1_545 S
C564 C565 1.392 . S
C564 C567 1.511 . S
C565 C561 1.376 . S
C565 C564 1.392 . S
C565 H577 0.929 . S
C566 C562 1.531 . S
C566 H578 0.960 . S
C566 H579 0.962 . S
C566 H580 0.960 . S
C567 C564 1.511 . S
C567 H581 0.961 . S
C567 H582 0.961 1_545 S
C567 H583 0.961 . S
C568 C569 1.370 . S
C568 C570 1.363 . S
C568 H584 0.931 . S
C569 C568 1.370 . S
C569 C573 1.408 . S
C570 C568 1.363 . S
C570 C571 1.370 . S
C570 C574 1.524 . S
C571 C563 1.503 . S
C571 C570 1.370 . S
C571 C572 1.403 . S
C572 C571 1.403 . S
C572 C573 1.404 . S
C572 C575 1.539 . S
C573 C569 1.408 . S
C573 C572 1.404 . S
C573 H585 0.930 . S
C574 C570 1.524 . S
C574 H586 0.956 . S
C574 H587 0.961 . S
C574 H588 0.961 . S
C575 C572 1.539 . S
C575 H589 0.958 . S
C575 H590 0.961 . S
C575 H591 0.960 . S
H576 C560 0.931 . S
H577 C565 0.929 . S
H578 C566 0.960 . S
H579 C566 0.962 . S
H580 C566 0.960 . S
H581 C567 0.961 . S
H582 C567 0.961 1_565 S
H583 C567 0.961 . S
H584 C568 0.931 . S
H585 C573 0.930 . S
H586 C574 0.956 . S
H587 C574 0.961 . S
H588 C574 0.961 . S
H589 C575 0.958 . S
H590 C575 0.961 . S
H591 C575 0.960 . S
C592 C593 1.391 . S
C592 C594 1.394 1_565 S
C592 H608 0.931 . S
C593 C592 1.391 . S
C593 C597 1.376 . S
C594 C592 1.394 1_545 S
C594 C595 1.369 . S
C594 C598 1.531 . S
C595 C594 1.369 . S
C595 C596 1.410 1_545 S
C595 C603 1.503 . S
C596 C595 1.410 1_565 S
C596 C597 1.392 . S
C596 C599 1.511 1_565 S
C597 C593 1.376 . S
C597 C596 1.392 . S
C597 H609 0.929 . S
C598 C594 1.531 . S
C598 H610 0.960 . S
C598 H611 0.962 . S
C598 H612 0.960 . S
C599 C596 1.511 1_545 S
C599 H613 0.961 1_545 S
C599 H614 0.961 . S
C599 H615 0.961 1_545 S
C600 C601 1.370 . S
C600 C602 1.363 . S
C600 H616 0.931 . S
C601 C600 1.370 . S
C601 C605 1.408 . S
C602 C600 1.363 . S
C602 C603 1.370 . S
C602 C606 1.524 . S
C603 C595 1.503 . S
C603 C602 1.370 . S
C603 C604 1.403 . S
C604 C603 1.403 . S
C604 C605 1.404 . S
C604 C607 1.539 . S
C605 C601 1.408 . S
C605 C604 1.404 . S
C605 H617 0.930 . S
C606 C602 1.524 . S
C606 H618 0.956 . S
C606 H619 0.961 . S
C606 H620 0.961 . S
C607 C604 1.539 . S
C607 H621 0.958 . S
C607 H622 0.961 . S
C607 H623 0.960 . S
H608 C592 0.931 . S
H609 C597 0.929 . S
H610 C598 0.960 . S
H611 C598 0.962 . S
H612 C598 0.960 . S
H613 C599 0.961 1_565 S
H614 C599 0.961 . S
H615 C599 0.961 1_565 S
H616 C600 0.931 . S
H617 C605 0.930 . S
H618 C606 0.956 . S
H619 C606 0.961 . S
H620 C606 0.961 . S
H621 C607 0.958 . S
H622 C607 0.961 . S
H623 C607 0.960 . S
C624 C625 1.391 . S
C624 C626 1.394 . S
C624 H640 0.931 . S
C625 C624 1.391 . S
C625 C629 1.376 . S
C626 C624 1.394 . S
C626 C627 1.369 . S
C626 C630 1.531 . S
C627 C626 1.369 . S
C627 C628 1.410 . S
C627 C635 1.503 . S
C628 C627 1.410 . S
C628 C629 1.392 . S
C628 C631 1.511 . S
C629 C625 1.376 . S
C629 C628 1.392 . S
C629 H641 0.929 . S
C630 C626 1.531 . S
C630 H642 0.960 . S
C630 H643 0.962 . S
C630 H644 0.960 . S
C631 C628 1.511 . S
C631 H645 0.961 . S
C631 H646 0.961 . S
C631 H647 0.961 . S
C632 C633 1.370 . S
C632 C634 1.363 1_565 S
C632 H648 0.931 . S
C633 C632 1.370 . S
C633 C637 1.408 . S
C634 C632 1.363 1_545 S
C634 C635 1.370 . S
C634 C638 1.524 . S
C635 C627 1.503 . S
C635 C634 1.370 . S
C635 C636 1.403 . S
C636 C635 1.403 . S
C636 C637 1.404 1_545 S
C636 C639 1.539 . S
C637 C633 1.408 . S
C637 C636 1.404 1_565 S
C637 H649 0.930 . S
C638 C634 1.524 . S
C638 H650 0.956 . S
C638 H651 0.961 . S
C638 H652 0.961 1_545 S
C639 C636 1.539 . S
C639 H653 0.958 . S
C639 H654 0.961 . S
C639 H655 0.960 . S
H640 C624 0.931 . S
H641 C629 0.929 . S
H642 C630 0.960 . S
H643 C630 0.962 . S
H644 C630 0.960 . S
H645 C631 0.961 . S
H646 C631 0.961 . S
H647 C631 0.961 . S
H648 C632 0.931 . S
H649 C637 0.930 . S
H650 C638 0.956 . S
H651 C638 0.961 . S
H652 C638 0.961 1_565 S
H653 C639 0.958 . S
H654 C639 0.961 . S
H655 C639 0.960 . S
C656 C657 1.391 . S
C656 C658 1.394 . S
C656 H672 0.931 . S
C657 C656 1.391 . S
C657 C661 1.376 . S
C658 C656 1.394 . S
C658 C659 1.369 . S
C658 C662 1.531 . S
C659 C658 1.369 . S
C659 C660 1.410 . S
C659 C667 1.503 . S
C660 C659 1.410 . S
C660 C661 1.392 . S
C660 C663 1.511 . S
C661 C657 1.376 . S
C661 C660 1.392 . S
C661 H673 0.929 . S
C662 C658 1.531 . S
C662 H674 0.960 . S
C662 H675 0.962 . S
C662 H676 0.960 . S
C663 C660 1.511 . S
C663 H677 0.961 . S
C663 H678 0.961 . S
C663 H679 0.961 . S
C664 C665 1.370 . S
C664 C666 1.363 . S
C664 H680 0.931 . S
C665 C664 1.370 . S
C665 C669 1.408 . S
C666 C664 1.363 . S
C666 C667 1.370 . S
C666 C670 1.524 . S
C667 C659 1.503 . S
C667 C666 1.370 . S
C667 C668 1.403 . S
C668 C667 1.403 . S
C668 C669 1.404 . S
C668 C671 1.539 . S
C669 C665 1.408 . S
C669 C668 1.404 . S
C669 H681 0.930 . S
C670 C666 1.524 . S
C670 H682 0.956 . S
C670 H683 0.961 . S
C670 H684 0.961 . S
C671 C668 1.539 . S
C671 H685 0.958 . S
C671 H686 0.961 . S
C671 H687 0.960 . S
H672 C656 0.931 . S
H673 C661 0.929 . S
H674 C662 0.960 . S
H675 C662 0.962 . S
H676 C662 0.960 . S
H677 C663 0.961 . S
H678 C663 0.961 . S
H679 C663 0.961 . S
H680 C664 0.931 . S
H681 C669 0.930 . S
H682 C670 0.956 . S
H683 C670 0.961 . S
H684 C670 0.961 . S
H685 C671 0.958 . S
H686 C671 0.961 . S
H687 C671 0.960 . S
C688 C689 1.391 . S
C688 C690 1.394 . S
C688 H704 0.931 . S
C689 C688 1.391 . S
C689 C693 1.376 . S
C690 C688 1.394 . S
C690 C691 1.369 . S
C690 C694 1.531 . S
C691 C690 1.369 . S
C691 C692 1.410 . S
C691 C699 1.503 . S
C692 C691 1.410 . S
C692 C693 1.392 . S
C692 C695 1.511 . S
C693 C689 1.376 . S
C693 C692 1.392 . S
C693 H705 0.929 . S
C694 C690 1.531 . S
C694 H706 0.960 . S
C694 H707 0.962 . S
C694 H708 0.960 . S
C695 C692 1.511 . S
C695 H709 0.961 . S
C695 H710 0.961 . S
C695 H711 0.961 . S
C696 C697 1.370 . S
C696 C698 1.363 . S
C696 H712 0.931 . S
C697 C696 1.370 . S
C697 C701 1.408 . S
C698 C696 1.363 . S
C698 C699 1.370 . S
C698 C702 1.524 . S
C699 C691 1.503 . S
C699 C698 1.370 . S
C699 C700 1.403 . S
C700 C699 1.403 . S
C700 C701 1.404 . S
C700 C703 1.539 . S
C701 C697 1.408 . S
C701 C700 1.404 . S
C701 H713 0.930 . S
C702 C698 1.524 . S
C702 H714 0.956 . S
C702 H715 0.961 . S
C702 H716 0.961 . S
C703 C700 1.539 . S
C703 H717 0.958 . S
C703 H718 0.961 . S
C703 H719 0.960 . S
H704 C688 0.931 . S
H705 C693 0.929 . S
H706 C694 0.960 . S
H707 C694 0.962 . S
H708 C694 0.960 . S
H709 C695 0.961 . S
H710 C695 0.961 . S
H711 C695 0.961 . S
H712 C696 0.931 . S
H713 C701 0.930 . S
H714 C702 0.956 . S
H715 C702 0.961 . S
H716 C702 0.961 . S
H717 C703 0.958 . S
H718 C703 0.961 . S
H719 C703 0.960 . S
C720 C721 1.391 . S
C720 C722 1.394 . S
C720 H736 0.931 . S
C721 C720 1.391 . S
C721 C725 1.376 . S
C722 C720 1.394 . S
C722 C723 1.369 . S
C722 C726 1.531 . S
C723 C722 1.369 . S
C723 C724 1.410 . S
C723 C731 1.503 . S
C724 C723 1.410 . S
C724 C725 1.392 . S
C724 C727 1.511 . S
C725 C721 1.376 . S
C725 C724 1.392 . S
C725 H737 0.929 . S
C726 C722 1.531 . S
C726 H738 0.960 . S
C726 H739 0.962 . S
C726 H740 0.960 . S
C727 C724 1.511 . S
C727 H741 0.961 . S
C727 H742 0.961 . S
C727 H743 0.961 . S
C728 C729 1.370 . S
C728 C730 1.363 . S
C728 H744 0.931 . S
C729 C728 1.370 . S
C729 C733 1.408 . S
C730 C728 1.363 . S
C730 C731 1.370 . S
C730 C734 1.524 . S
C731 C723 1.503 . S
C731 C730 1.370 . S
C731 C732 1.403 . S
C732 C731 1.403 . S
C732 C733 1.404 . S
C732 C735 1.539 . S
C733 C729 1.408 . S
C733 C732 1.404 . S
C733 H745 0.930 . S
C734 C730 1.524 . S
C734 H746 0.956 . S
C734 H747 0.961 . S
C734 H748 0.961 . S
C735 C732 1.539 . S
C735 H749 0.958 . S
C735 H750 0.961 . S
C735 H751 0.960 . S
H736 C720 0.931 . S
H737 C725 0.929 . S
H738 C726 0.960 . S
H739 C726 0.962 . S
H740 C726 0.960 . S
H741 C727 0.961 . S
H742 C727 0.961 . S
H743 C727 0.961 . S
H744 C728 0.931 . S
H745 C733 0.930 . S
H746 C734 0.956 . S
H747 C734 0.961 . S
H748 C734 0.961 . S
H749 C735 0.958 . S
H750 C735 0.961 . S
H751 C735 0.960 . S
C752 C753 1.391 . S
C752 C754 1.394 . S
C752 H768 0.931 . S
C753 C752 1.391 . S
C753 C757 1.376 . S
C754 C752 1.394 . S
C754 C755 1.369 . S
C754 C758 1.531 . S
C755 C754 1.369 . S
C755 C756 1.410 . S
C755 C763 1.503 . S
C756 C755 1.410 . S
C756 C757 1.392 . S
C756 C759 1.511 . S
C757 C753 1.376 . S
C757 C756 1.392 . S
C757 H769 0.929 . S
C758 C754 1.531 . S
C758 H770 0.960 . S
C758 H771 0.962 . S
C758 H772 0.960 . S
C759 C756 1.511 . S
C759 H773 0.961 . S
C759 H774 0.961 . S
C759 H775 0.961 . S
C760 C761 1.370 . S
C760 C762 1.363 . S
C760 H776 0.931 . S
C761 C760 1.370 . S
C761 C765 1.408 . S
C762 C760 1.363 . S
C762 C763 1.370 . S
C762 C766 1.524 . S
C763 C755 1.503 . S
C763 C762 1.370 . S
C763 C764 1.403 . S
C764 C763 1.403 . S
C764 C765 1.404 . S
C764 C767 1.539 . S
C765 C761 1.408 . S
C765 C764 1.404 . S
C765 H777 0.930 . S
C766 C762 1.524 . S
C766 H778 0.956 . S
C766 H779 0.961 . S
C766 H780 0.961 . S
C767 C764 1.539 . S
C767 H781 0.958 . S
C767 H782 0.961 . S
C767 H783 0.960 . S
H768 C752 0.931 . S
H769 C757 0.929 . S
H770 C758 0.960 . S
H771 C758 0.962 . S
H772 C758 0.960 . S
H773 C759 0.961 . S
H774 C759 0.961 . S
H775 C759 0.961 . S
H776 C760 0.931 . S
H777 C765 0.930 . S
H778 C766 0.956 . S
H779 C766 0.961 . S
H780 C766 0.961 . S
H781 C767 0.958 . S
H782 C767 0.961 . S
H783 C767 0.960 . S
C784 C785 1.391 . S
C784 C786 1.394 1_545 S
C784 H800 0.931 1_545 S
C785 C784 1.391 . S
C785 C789 1.376 . S
C786 C784 1.394 1_565 S
C786 C787 1.369 1_565 S
C786 C790 1.531 . S
C787 C786 1.369 1_545 S
C787 C788 1.410 . S
C787 C795 1.503 1_545 S
C788 C787 1.410 . S
C788 C789 1.392 . S
C788 C791 1.511 . S
C789 C785 1.376 . S
C789 C788 1.392 . S
C789 H801 0.929 . S
C790 C786 1.531 . S
C790 H802 0.960 . S
C790 H803 0.962 . S
C790 H804 0.960 . S
C791 C788 1.511 . S
C791 H805 0.961 . S
C791 H806 0.961 . S
C791 H807 0.961 . S
C792 C793 1.370 . S
C792 C794 1.363 . S
C792 H808 0.931 . S
C793 C792 1.370 . S
C793 C797 1.408 . S
C794 C792 1.363 . S
C794 C795 1.370 . S
C794 C798 1.524 1_565 S
C795 C787 1.503 1_565 S
C795 C794 1.370 . S
C795 C796 1.403 . S
C796 C795 1.403 . S
C796 C797 1.404 . S
C796 C799 1.539 . S
C797 C793 1.408 . S
C797 C796 1.404 . S
C797 H809 0.930 . S
C798 C794 1.524 1_545 S
C798 H810 0.956 1_545 S
C798 H811 0.961 . S
C798 H812 0.961 . S
C799 C796 1.539 . S
C799 H813 0.958 . S
C799 H814 0.961 . S
C799 H815 0.960 . S
H800 C784 0.931 1_565 S
H801 C789 0.929 . S
H802 C790 0.960 . S
H803 C790 0.962 . S
H804 C790 0.960 . S
H805 C791 0.961 . S
H806 C791 0.961 . S
H807 C791 0.961 . S
H808 C792 0.931 . S
H809 C797 0.930 . S
H810 C798 0.956 1_565 S
H811 C798 0.961 . S
H812 C798 0.961 . S
H813 C799 0.958 . S
H814 C799 0.961 . S
H815 C799 0.960 . S
C816 C817 1.391 . S
C816 C818 1.394 . S
C816 H832 0.931 . S
C817 C816 1.391 . S
C817 C821 1.376 . S
C818 C816 1.394 . S
C818 C819 1.369 . S
C818 C822 1.531 1_544 S
C819 C818 1.369 . S
C819 C820 1.410 . S
C819 C827 1.503 1_544 S
C820 C819 1.410 . S
C820 C821 1.392 . S
C820 C823 1.511 . S
C821 C817 1.376 . S
C821 C820 1.392 . S
C821 H833 0.929 . S
C822 C818 1.531 1_566 S
C822 H834 0.960 . S
C822 H835 0.962 . S
C822 H836 0.958 1_556 S
C823 C820 1.511 . S
C823 H837 0.961 . S
C823 H838 0.961 . S
C823 H839 0.961 . S
C824 C825 1.370 . S
C824 C826 1.363 1_565 S
C824 H840 0.931 1_565 S
C825 C824 1.370 . S
C825 C829 1.408 . S
C826 C824 1.363 1_545 S
C826 C827 1.370 1_545 S
C826 C830 1.524 . S
C827 C819 1.503 1_566 S
C827 C826 1.370 1_565 S
C827 C828 1.403 . S
C828 C827 1.403 . S
C828 C829 1.404 . S
C828 C831 1.539 1_556 S
C829 C825 1.408 . S
C829 C828 1.404 . S
C829 H841 0.930 . S
C830 C826 1.524 . S
C830 H842 0.956 . S
C830 H843 0.961 . S
C830 H844 0.961 . S
C831 C828 1.539 1_554 S
C831 H845 0.958 . S
C831 H846 0.961 . S
C831 H847 0.960 . S
H832 C816 0.931 . S
H833 C821 0.929 . S
H834 C822 0.960 . S
H835 C822 0.962 . S
H836 C822 0.958 1_554 S
H837 C823 0.961 . S
H838 C823 0.961 . S
H839 C823 0.961 . S
H840 C824 0.931 1_545 S
H841 C829 0.930 . S
H842 C830 0.956 . S
H843 C830 0.961 . S
H844 C830 0.961 . S
H845 C831 0.958 . S
H846 C831 0.961 . S
H847 C831 0.960 . S
C848 C849 1.391 . S
C848 C850 1.394 . S
C848 H864 0.931 . S
C849 C848 1.391 . S
C849 C853 1.376 . S
C850 C848 1.394 . S
C850 C851 1.369 . S
C850 C854 1.531 . S
C851 C850 1.369 . S
C851 C852 1.410 . S
C851 C859 1.503 1_455 S
C852 C851 1.410 . S
C852 C853 1.392 . S
C852 C855 1.511 1_455 S
C853 C849 1.376 . S
C853 C852 1.392 . S
C853 H865 0.929 . S
C854 C850 1.531 . S
C854 H866 0.960 1_455 S
C854 H867 0.962 . S
C854 H868 0.960 . S
C855 C852 1.511 1_655 S
C855 H869 0.953 1_655 S
C855 H870 0.961 . S
C855 H871 0.961 . S
C856 C857 1.370 . S
C856 C858 1.363 . S
C856 H872 0.931 . S
C857 C856 1.370 . S
C857 C861 1.408 . S
C858 C856 1.363 . S
C858 C859 1.370 . S
C858 C862 1.524 1_655 S
C859 C851 1.503 1_655 S
C859 C858 1.370 . S
C859 C860 1.403 . S
C860 C859 1.403 . S
C860 C861 1.404 . S
C860 C863 1.539 . S
C861 C857 1.408 . S
C861 C860 1.404 . S
C861 H873 0.930 . S
C862 C858 1.524 1_455 S
C862 H874 0.956 . S
C862 H875 0.961 . S
C862 H876 0.961 . S
C863 C860 1.539 . S
C863 H877 0.958 . S
C863 H878 0.961 . S
C863 H879 0.960 . S
H864 C848 0.931 . S
H865 C853 0.929 . S
H866 C854 0.960 1_655 S
H867 C854 0.962 . S
H868 C854 0.960 . S
H869 C855 0.953 1_455 S
H870 C855 0.961 . S
H871 C855 0.961 . S
H872 C856 0.931 . S
H873 C861 0.930 . S
H874 C862 0.956 . S
H875 C862 0.961 . S
H876 C862 0.961 . S
H877 C863 0.958 . S
H878 C863 0.961 . S
H879 C863 0.960 . S
C880 C881 1.391 . S
C880 C882 1.394 . S
C880 H896 0.931 . S
C881 C880 1.391 . S
C881 C885 1.376 . S
C882 C880 1.394 . S
C882 C883 1.369 . S
C882 C886 1.531 1_554 S
C883 C882 1.369 . S
C883 C884 1.410 . S
C883 C891 1.503 1_454 S
C884 C883 1.410 . S
C884 C885 1.392 . S
C884 C887 1.511 1_455 S
C885 C881 1.376 . S
C885 C884 1.392 . S
C885 H897 0.929 . S
C886 C882 1.531 1_556 S
C886 H898 0.960 . S
C886 H899 0.962 . S
C886 H900 0.960 . S
C887 C884 1.511 1_655 S
C887 H901 0.961 . S
C887 H902 0.961 . S
C887 H903 0.961 . S
C888 C889 1.370 . S
C888 C890 1.363 . S
C888 H904 0.931 . S
C889 C888 1.370 . S
C889 C893 1.408 . S
C890 C888 1.363 . S
C890 C891 1.370 . S
C890 C894 1.524 . S
C891 C883 1.503 1_656 S
C891 C890 1.370 . S
C891 C892 1.403 . S
C892 C891 1.403 . S
C892 C893 1.404 . S
C892 C895 1.539 1_655 S
C893 C889 1.408 . S
C893 C892 1.404 . S
C893 H905 0.930 . S
C894 C890 1.524 . S
C894 H906 0.956 . S
C894 H907 0.961 1_556 S
C894 H908 0.961 . S
C895 C892 1.539 1_455 S
C895 H909 0.958 . S
C895 H910 0.961 . S
C895 H911 0.960 1_556 S
H896 C880 0.931 . S
H897 C885 0.929 . S
H898 C886 0.960 . S
H899 C886 0.962 . S
H900 C886 0.960 . S
H901 C887 0.961 . S
H902 C887 0.961 . S
H903 C887 0.961 . S
H904 C888 0.931 . S
H905 C893 0.930 . S
H906 C894 0.956 . S
H907 C894 0.961 1_554 S
H908 C894 0.961 . S
H909 C895 0.958 . S
H910 C895 0.961 . S
H911 C895 0.960 1_554 S
C273 C224 1.249 . S
C281 C20 1.244 . S
C305 C54 1.249 . S
C313 C258 1.244 . S
C337 C88 1.236 . S
C345 C156 1.249 . S
C369 C122 1.237 . S
C377 C190 1.248 . S
C401 C36 1.621 . S
C409 C2 1.630 . S
C433 C70 1.633 . S
C441 C104 1.633 . S
C465 C172 1.621 . S
C473 C138 1.630 . S
C497 C206 1.623 . S
C505 C240 1.629 . S
C529 C179 1.516 . S
C537 C33 1.564 . S
C561 C67 1.561 . S
C569 C145 1.531 . S
C593 C101 1.560 . S
C601 C247 1.531 . S
C625 C213 1.495 . S
C633 C135 1.563 . S
C657 C169 1.561 . S
C665 C43 1.533 . S
C689 C203 1.558 . S
C697 C9 1.520 . S
C721 C237 1.559 . S
C729 C111 1.518 . S
C753 C77 1.523 . S
C761 C271 1.563 . S
C785 C5 1.550 . S
C793 C73 1.553 . S
C817 C39 1.568 . S
C825 C107 1.545 . S
C849 C209 1.531 . S
C857 C141 1.558 . S
C881 C175 1.570 . S
C889 C243 1.543 . S
