# Generated by pormake.
# Topology gis, (4)-cn, num edge types: 1
# Building blocks:
#     Node 0, Type 0, BuildingBlock: GALJAG_clean_sbu_0, # of connection points: 4
#     Node 1, Type 0, BuildingBlock: GALJAG_clean_sbu_0, # of connection points: 4
#     Node 2, Type 0, BuildingBlock: GALJAG_clean_sbu_0, # of connection points: 4
#     Node 3, Type 0, BuildingBlock: GALJAG_clean_sbu_0, # of connection points: 4
#     Node 4, Type 0, BuildingBlock: GALJAG_clean_sbu_0, # of connection points: 4
#     Node 5, Type 0, BuildingBlock: GALJAG_clean_sbu_0, # of connection points: 4
#     Node 6, Type 0, BuildingBlock: GALJAG_clean_sbu_0, # of connection points: 4
#     Node 7, Type 0, BuildingBlock: GALJAG_clean_sbu_0, # of connection points: 4
#     Node 8, Type 0, BuildingBlock: GALJAG_clean_sbu_0, # of connection points: 4
#     Node 9, Type 0, BuildingBlock: GALJAG_clean_sbu_0, # of connection points: 4
#     Node 10, Type 0, BuildingBlock: GALJAG_clean_sbu_0, # of connection points: 4
#     Node 11, Type 0, BuildingBlock: GALJAG_clean_sbu_0, # of connection points: 4
#     Node 12, Type 0, BuildingBlock: GALJAG_clean_sbu_0, # of connection points: 4
#     Node 13, Type 0, BuildingBlock: GALJAG_clean_sbu_0, # of connection points: 4
#     Node 14, Type 0, BuildingBlock: GALJAG_clean_sbu_0, # of connection points: 4
#     Node 15, Type 0, BuildingBlock: GALJAG_clean_sbu_0, # of connection points: 4
#     Edge 16, Type (0, 0), BuildingBlock: EZIPEK_clean_linker_0, # of connection points: 2
#     Edge 17, Type (0, 0), BuildingBlock: EZIPEK_clean_linker_0, # of connection points: 2
#     Edge 18, Type (0, 0), BuildingBlock: EZIPEK_clean_linker_0, # of connection points: 2
#     Edge 19, Type (0, 0), BuildingBlock: EZIPEK_clean_linker_0, # of connection points: 2
#     Edge 20, Type (0, 0), BuildingBlock: EZIPEK_clean_linker_0, # of connection points: 2
#     Edge 21, Type (0, 0), BuildingBlock: EZIPEK_clean_linker_0, # of connection points: 2
#     Edge 22, Type (0, 0), BuildingBlock: EZIPEK_clean_linker_0, # of connection points: 2
#     Edge 23, Type (0, 0), BuildingBlock: EZIPEK_clean_linker_0, # of connection points: 2
#     Edge 24, Type (0, 0), BuildingBlock: EZIPEK_clean_linker_0, # of connection points: 2
#     Edge 25, Type (0, 0), BuildingBlock: EZIPEK_clean_linker_0, # of connection points: 2
#     Edge 26, Type (0, 0), BuildingBlock: EZIPEK_clean_linker_0, # of connection points: 2
#     Edge 27, Type (0, 0), BuildingBlock: EZIPEK_clean_linker_0, # of connection points: 2
#     Edge 28, Type (0, 0), BuildingBlock: EZIPEK_clean_linker_0, # of connection points: 2
#     Edge 29, Type (0, 0), BuildingBlock: EZIPEK_clean_linker_0, # of connection points: 2
#     Edge 30, Type (0, 0), BuildingBlock: EZIPEK_clean_linker_0, # of connection points: 2
#     Edge 31, Type (0, 0), BuildingBlock: EZIPEK_clean_linker_0, # of connection points: 2
#     Edge 32, Type (0, 0), BuildingBlock: EZIPEK_clean_linker_0, # of connection points: 2
#     Edge 33, Type (0, 0), BuildingBlock: EZIPEK_clean_linker_0, # of connection points: 2
#     Edge 34, Type (0, 0), BuildingBlock: EZIPEK_clean_linker_0, # of connection points: 2
#     Edge 35, Type (0, 0), BuildingBlock: EZIPEK_clean_linker_0, # of connection points: 2
#     Edge 36, Type (0, 0), BuildingBlock: EZIPEK_clean_linker_0, # of connection points: 2
#     Edge 37, Type (0, 0), BuildingBlock: EZIPEK_clean_linker_0, # of connection points: 2
#     Edge 38, Type (0, 0), BuildingBlock: EZIPEK_clean_linker_0, # of connection points: 2
#     Edge 39, Type (0, 0), BuildingBlock: EZIPEK_clean_linker_0, # of connection points: 2
#     Edge 40, Type (0, 0), BuildingBlock: EZIPEK_clean_linker_0, # of connection points: 2
#     Edge 41, Type (0, 0), BuildingBlock: EZIPEK_clean_linker_0, # of connection points: 2
#     Edge 42, Type (0, 0), BuildingBlock: EZIPEK_clean_linker_0, # of connection points: 2
#     Edge 43, Type (0, 0), BuildingBlock: EZIPEK_clean_linker_0, # of connection points: 2
#     Edge 44, Type (0, 0), BuildingBlock: EZIPEK_clean_linker_0, # of connection points: 2
#     Edge 45, Type (0, 0), BuildingBlock: EZIPEK_clean_linker_0, # of connection points: 2
#     Edge 46, Type (0, 0), BuildingBlock: EZIPEK_clean_linker_0, # of connection points: 2
#     Edge 47, Type (0, 0), BuildingBlock: EZIPEK_clean_linker_0, # of connection points: 2
# Relax obj value: 0.052
# Max RMSD: 0.088
# Mean RMSD: 0.088
data_MOF--net-gis--node1-GALJAG_clean_sbu_0--edge1-EZIPEK_clean_linker_0
_symmetry_space_group_name_H-M    P1
_symmetry_Int_Tables_number       1
_symmetry_cell_setting            triclinic
loop_
_symmetry_equiv_pos_as_xyz
'x, y, z'
_cell_length_a     39.480644
_cell_length_b     39.44698
_cell_length_c     27.524676
_cell_angle_alpha  90.125596
_cell_angle_beta   90.143106
_cell_angle_gamma 90.034239
loop_
_atom_site_label
_atom_site_type_symbol
_atom_site_fract_x
_atom_site_fract_y
_atom_site_fract_z
_atom_type_partial_charge
In0 In 0.13632 0.61317 0.11551 0.0
O1 O 0.15967 0.61084 0.19158 0.0
O2 O 0.19141 0.60069 0.13098 0.0
C3 C 0.06975 0.606 0.13164 0.0
C4 C 0.14285 0.68019 0.1002 0.0
C5 C 0.14217 0.56307 0.05046 0.0
O6 O 0.09161 0.59581 0.16193 0.0
O7 O 0.08143 0.61941 0.09364 0.0
O8 O 0.14742 0.59373 0.0394 0.0
O9 O 0.13424 0.55774 0.09419 0.0
C10 C 0.18901 0.60403 0.1763 0.0
O11 O 0.15322 0.65861 0.06972 0.0
O12 O 0.12928 0.66799 0.13766 0.0
In13 In 0.63959 0.88553 0.37168 0.0
O14 O 0.65225 0.84023 0.42064 0.0
O15 O 0.63758 0.83102 0.34716 0.0
C16 C 0.64101 0.93911 0.43087 0.0
C17 C 0.69557 0.89532 0.31809 0.0
C18 C 0.57294 0.88791 0.35332 0.0
O19 O 0.64649 0.90937 0.44618 0.0
O20 O 0.63519 0.94175 0.38588 0.0
O21 O 0.59441 0.89645 0.3215 0.0
O22 O 0.58518 0.87836 0.39337 0.0
C23 C 0.64625 0.81873 0.38753 0.0
O24 O 0.66676 0.89084 0.29893 0.0
O25 O 0.69579 0.89615 0.36386 0.0
In26 In 0.35563 0.38423 0.61762 0.0
O27 O 0.3392 0.40396 0.54355 0.0
O28 O 0.35811 0.43941 0.59591 0.0
C29 C 0.35249 0.31629 0.60905 0.0
C30 C 0.42234 0.38864 0.63652 0.0
C31 C 0.30132 0.39491 0.67334 0.0
O32 O 0.35811 0.3351 0.57283 0.0
O33 O 0.34756 0.33183 0.64836 0.0
O34 O 0.33115 0.39931 0.68925 0.0
O35 O 0.29906 0.38644 0.62916 0.0
C36 C 0.34679 0.43435 0.5536 0.0
O37 O 0.40047 0.393 0.66947 0.0
O38 O 0.41051 0.38263 0.59485 0.0
In39 In 0.85374 0.10687 0.86964 0.0
O40 O 0.90217 0.10452 0.82417 0.0
O41 O 0.90659 0.10804 0.90124 0.0
C42 C 0.80665 0.09339 0.80223 0.0
C43 C 0.84281 0.05495 0.93064 0.0
C44 C 0.84812 0.17427 0.88342 0.0
O45 O 0.83783 0.08851 0.7943 0.0
O46 O 0.79937 0.10399 0.84419 0.0
O47 O 0.84984 0.1539 0.91872 0.0
O48 O 0.84804 0.16059 0.84208 0.0
C49 C 0.92148 0.10654 0.86083 0.0
O50 O 0.82853 0.08339 0.93627 0.0
O51 O 0.86163 0.05276 0.89379 0.0
In52 In 0.13591 0.39202 0.86604 0.0
O53 O 0.1511 0.34714 0.9144 0.0
O54 O 0.13031 0.33727 0.84405 0.0
C55 C 0.14387 0.44803 0.92058 0.0
C56 C 0.18645 0.39731 0.80228 0.0
C57 C 0.06832 0.39554 0.85611 0.0
O58 O 0.14338 0.41868 0.93898 0.0
O59 O 0.14199 0.44884 0.8749 0.0
O60 O 0.08801 0.40345 0.82176 0.0
O61 O 0.08273 0.3861 0.89466 0.0
C62 C 0.14198 0.32534 0.88314 0.0
O63 O 0.15578 0.40036 0.78959 0.0
O64 O 0.19157 0.39186 0.84689 0.0
In65 In 0.86086 0.89027 0.12484 0.0
O66 O 0.85477 0.84456 0.0739 0.0
O67 O 0.86043 0.83558 0.14978 0.0
C68 C 0.84861 0.94127 0.06216 0.0
C69 C 0.81154 0.89884 0.191 0.0
C70 C 0.92801 0.89688 0.1384 0.0
O71 O 0.8357 0.9122 0.05688 0.0
O72 O 0.86736 0.94446 0.09901 0.0
O73 O 0.90684 0.90733 0.16939 0.0
O74 O 0.91538 0.88329 0.10095 0.0
C75 C 0.85652 0.82319 0.10793 0.0
O76 O 0.84247 0.89837 0.20277 0.0
O77 O 0.80564 0.89591 0.14622 0.0
In78 In 0.35695 0.60331 0.36646 0.0
O79 O 0.3495 0.57891 0.44094 0.0
O80 O 0.34971 0.54701 0.37834 0.0
C81 C 0.35306 0.67035 0.38156 0.0
C82 C 0.4241 0.59699 0.35254 0.0
C83 C 0.30448 0.59966 0.30523 0.0
O84 O 0.34641 0.64942 0.41508 0.0
O85 O 0.36126 0.65732 0.34137 0.0
O86 O 0.33479 0.59745 0.2907 0.0
O87 O 0.30067 0.60327 0.35049 0.0
C88 C 0.34797 0.54912 0.42395 0.0
O89 O 0.40289 0.58527 0.32238 0.0
O90 O 0.41139 0.61161 0.38889 0.0
In91 In 0.63618 0.10754 0.61934 0.0
O92 O 0.59167 0.09468 0.66955 0.0
O93 O 0.58146 0.11298 0.59802 0.0
C94 C 0.69253 0.09753 0.67225 0.0
C95 C 0.63902 0.05542 0.55771 0.0
C96 C 0.64159 0.17478 0.60598 0.0
O97 O 0.66371 0.10076 0.69169 0.0
O98 O 0.69255 0.09799 0.62649 0.0
O99 O 0.64781 0.15392 0.57221 0.0
O100 O 0.63318 0.16175 0.64591 0.0
C101 C 0.56975 0.10265 0.63792 0.0
O102 O 0.64312 0.08565 0.54363 0.0
O103 O 0.63369 0.05152 0.60256 0.0
In104 In 0.85527 0.3873 0.87358 0.0
O105 O 0.84937 0.41165 0.94849 0.0
O106 O 0.84963 0.44369 0.88623 0.0
C107 C 0.85025 0.32032 0.88704 0.0
C108 C 0.92231 0.39231 0.85887 0.0
C109 C 0.8018 0.39258 0.81471 0.0
O110 O 0.84417 0.34107 0.92113 0.0
O111 O 0.8585 0.33348 0.847 0.0
O112 O 0.83178 0.39573 0.79916 0.0
O113 O 0.79889 0.38713 0.8597 0.0
C114 C 0.84842 0.44151 0.93184 0.0
O115 O 0.90117 0.40411 0.82875 0.0
O116 O 0.90958 0.37791 0.89531 0.0
In117 In 0.3568 0.10175 0.62134 0.0
O118 O 0.35382 0.15002 0.57507 0.0
O119 O 0.35394 0.15461 0.65222 0.0
C120 C 0.34906 0.04862 0.56198 0.0
C121 C 0.30191 0.09358 0.67678 0.0
C122 C 0.42411 0.09909 0.63582 0.0
O123 O 0.34274 0.07857 0.54816 0.0
O124 O 0.35849 0.04557 0.60565 0.0
O125 O 0.40341 0.09585 0.67058 0.0
O126 O 0.41078 0.10265 0.5945 0.0
C127 C 0.3535 0.16945 0.61176 0.0
O128 O 0.33151 0.08868 0.69324 0.0
O129 O 0.30017 0.10103 0.63222 0.0
In130 In 0.63645 0.60637 0.37094 0.0
O131 O 0.5914 0.59052 0.32323 0.0
O132 O 0.58188 0.61091 0.39384 0.0
C133 C 0.69042 0.60217 0.31236 0.0
C134 C 0.64283 0.55192 0.42834 0.0
C135 C 0.64233 0.67315 0.38778 0.0
O136 O 0.66049 0.60358 0.29579 0.0
O137 O 0.6928 0.60181 0.35806 0.0
O138 O 0.65418 0.6515 0.4171 0.0
O139 O 0.62727 0.66105 0.35122 0.0
C140 C 0.56978 0.59894 0.35497 0.0
O141 O 0.63909 0.5815 0.44546 0.0
O142 O 0.64447 0.55016 0.38264 0.0
In143 In 0.13971 0.89275 0.11668 0.0
O144 O 0.09547 0.90805 0.16607 0.0
O145 O 0.08449 0.888 0.09571 0.0
C146 C 0.19479 0.90142 0.17344 0.0
C147 C 0.14495 0.94369 0.05342 0.0
C148 C 0.14535 0.82569 0.10083 0.0
O149 O 0.1659 0.89506 0.19084 0.0
O150 O 0.19547 0.90489 0.12799 0.0
O151 O 0.15188 0.84704 0.06801 0.0
O152 O 0.13636 0.83814 0.14093 0.0
C153 C 0.07323 0.89949 0.13523 0.0
O154 O 0.14864 0.91309 0.04061 0.0
O155 O 0.13888 0.94858 0.09792 0.0
In156 In 0.85732 0.61053 0.12058 0.0
O157 O 0.83521 0.59564 0.19405 0.0
O158 O 0.8015 0.61396 0.13951 0.0
C159 C 0.92445 0.60549 0.13406 0.0
C160 C 0.85442 0.67768 0.1056 0.0
C161 C 0.84847 0.55782 0.05997 0.0
O162 O 0.90376 0.60108 0.16848 0.0
O163 O 0.91132 0.61233 0.09342 0.0
O164 O 0.84228 0.58795 0.04724 0.0
O165 O 0.85826 0.55427 0.10327 0.0
C166 C 0.80522 0.6033 0.1823 0.0
O167 O 0.84655 0.65665 0.07271 0.0
O168 O 0.86359 0.66489 0.14547 0.0
In169 In 0.136 0.11241 0.86664 0.0
O170 O 0.08703 0.11316 0.82147 0.0
O171 O 0.08347 0.10744 0.89811 0.0
C172 C 0.18627 0.10041 0.80402 0.0
C173 C 0.1446 0.05839 0.9238 0.0
C174 C 0.14185 0.17959 0.88239 0.0
O175 O 0.15556 0.09585 0.7925 0.0
O176 O 0.19153 0.11065 0.84684 0.0
O177 O 0.14497 0.15839 0.91653 0.0
O178 O 0.13658 0.16686 0.84105 0.0
C179 C 0.06809 0.10992 0.85817 0.0
O180 O 0.15062 0.0882 0.93874 0.0
O181 O 0.13549 0.05594 0.8799 0.0
In182 In 0.63465 0.38734 0.62395 0.0
O183 O 0.58884 0.40007 0.6715 0.0
O184 O 0.58028 0.3794 0.60083 0.0
C185 C 0.68617 0.3955 0.68672 0.0
C186 C 0.64272 0.43853 0.56078 0.0
C187 C 0.63957 0.32035 0.60791 0.0
O188 O 0.65566 0.39847 0.69969 0.0
O189 O 0.6907 0.38946 0.64225 0.0
O190 O 0.64203 0.34157 0.57379 0.0
O191 O 0.63485 0.33285 0.6495 0.0
C192 C 0.56768 0.39042 0.63983 0.0
O193 O 0.65226 0.4087 0.55143 0.0
O194 O 0.62985 0.44273 0.60223 0.0
In195 In 0.35954 0.88407 0.36678 0.0
O196 O 0.33974 0.90552 0.43847 0.0
O197 O 0.36435 0.93914 0.38906 0.0
C198 C 0.35366 0.81648 0.37933 0.0
C199 C 0.42716 0.88632 0.35367 0.0
C200 C 0.30982 0.89762 0.30322 0.0
O201 O 0.35614 0.83663 0.41488 0.0
O202 O 0.35318 0.83043 0.33827 0.0
O203 O 0.34074 0.90055 0.29214 0.0
O204 O 0.30401 0.88876 0.34643 0.0
C205 C 0.34987 0.93525 0.42945 0.0
O206 O 0.40666 0.88878 0.31852 0.0
O207 O 0.41359 0.88311 0.39476 0.0
C208 C 0.12866 0.77106 0.05979 0.0
C209 C 0.14891 0.78862 0.09433 0.0
C210 C 0.16781 0.7348 0.12933 0.0
C211 C 0.14777 0.71714 0.09462 0.0
N212 N 0.11424 0.71756 0.0212 0.0
N213 N 0.19375 0.78783 0.15388 0.0
C214 C 0.13014 0.73501 0.05768 0.0
C215 C 0.17034 0.77062 0.12663 0.0
N216 N 0.10626 0.78861 0.0314 0.0
N217 N 0.1839 0.71739 0.1656 0.0
H218 H 0.1963 0.81411 0.15278 0.0
H219 H 0.21265 0.77609 0.17418 0.0
H220 H 0.18455 0.69102 0.16732 0.0
H221 H 0.19509 0.729 0.19561 0.0
H222 H 0.08789 0.77709 0.00978 0.0
H223 H 0.10424 0.81495 0.03193 0.0
H224 H 0.10426 0.7291 0.99035 0.0
H225 H 0.11307 0.69118 0.01985 0.0
C226 C 0.48158 0.9154 0.33066 0.0
C227 C 0.46446 0.88603 0.34769 0.0
C228 C 0.51864 0.85619 0.35442 0.0
C229 C 0.53595 0.88684 0.34461 0.0
N230 N 0.53443 0.94681 0.32784 0.0
N231 N 0.46718 0.82971 0.38231 0.0
C232 C 0.51764 0.91673 0.33313 0.0
C233 C 0.48311 0.85674 0.36136 0.0
N234 N 0.46348 0.94232 0.31329 0.0
N235 N 0.53618 0.82631 0.35591 0.0
H236 H 0.44116 0.82856 0.38785 0.0
H237 H 0.48013 0.80949 0.39802 0.0
H238 H 0.5622 0.82486 0.34961 0.0
H239 H 0.52451 0.80267 0.35809 0.0
H240 H 0.47452 0.96271 0.29532 0.0
H241 H 0.43711 0.94339 0.31396 0.0
H242 H 0.5223 0.97017 0.32539 0.0
H243 H 0.56073 0.94888 0.32946 0.0
C244 C 0.33167 0.26041 0.5759 0.0
C245 C 0.35384 0.27874 0.60711 0.0
C246 C 0.37836 0.22538 0.63632 0.0
C247 C 0.35413 0.20698 0.60853 0.0
N248 N 0.30373 0.20691 0.55876 0.0
N249 N 0.39561 0.27861 0.67185 0.0
C250 C 0.32991 0.22442 0.57968 0.0
C251 C 0.37632 0.26121 0.63875 0.0
N252 N 0.31167 0.27732 0.54339 0.0
N253 N 0.40439 0.20879 0.65904 0.0
H254 H 0.39771 0.30488 0.67293 0.0
H255 H 0.40819 0.26697 0.70064 0.0
H256 H 0.40675 0.18256 0.66008 0.0
H257 H 0.42547 0.22108 0.67358 0.0
H258 H 0.29839 0.26528 0.51553 0.0
H259 H 0.30973 0.30364 0.54223 0.0
H260 H 0.28316 0.21851 0.5419 0.0
H261 H 0.30068 0.18078 0.56214 0.0
C262 C 0.01229 0.13423 0.88408 0.0
C263 C 0.03056 0.11028 0.85568 0.0
C264 C 0.97712 0.08294 0.83161 0.0
C265 C 0.95892 0.1083 0.85729 0.0
N266 N 0.95888 0.16169 0.90061 0.0
N267 N 0.03057 0.06395 0.79806 0.0
C268 C 0.97642 0.1349 0.88151 0.0
C269 C 0.013 0.08555 0.82763 0.0
N270 N 0.02904 0.15618 0.91433 0.0
N271 N 0.96044 0.05506 0.81404 0.0
H272 H 0.05691 0.06262 0.79731 0.0
H273 H 0.01904 0.04855 0.77208 0.0
H274 H 0.9344 0.05152 0.81755 0.0
H275 H 0.97264 0.03384 0.79992 0.0
H276 H 0.01699 0.17048 0.94101 0.0
H277 H 0.05524 0.15882 0.91538 0.0
H278 H 0.97034 0.18403 0.91237 0.0
H279 H 0.93258 0.16311 0.90112 0.0
C280 C 0.11076 0.27072 0.88597 0.0
C281 C 0.14172 0.28835 0.89219 0.0
C282 C 0.17133 0.23424 0.90395 0.0
C283 C 0.14135 0.21679 0.88998 0.0
N284 N 0.083 0.21856 0.86292 0.0
N285 N 0.20226 0.2875 0.90387 0.0
C286 C 0.11116 0.23506 0.87978 0.0
C287 C 0.17221 0.27035 0.90115 0.0
N288 N 0.08078 0.28809 0.88732 0.0
N289 N 0.19911 0.21637 0.91882 0.0
H290 H 0.20391 0.31384 0.90201 0.0
H291 H 0.2258 0.27564 0.9046 0.0
H292 H 0.20001 0.18996 0.91887 0.0
H293 H 0.22042 0.22762 0.93433 0.0
H294 H 0.05718 0.27629 0.88787 0.0
H295 H 0.0795 0.31419 0.89323 0.0
H296 H 0.06181 0.23106 0.84922 0.0
H297 H 0.08155 0.19235 0.8591 0.0
C298 C 0.98218 0.92372 0.11133 0.0
C299 C 0.96502 0.90168 0.14374 0.0
C300 C 0.01935 0.88154 0.17617 0.0
C301 C 0.03641 0.90329 0.14333 0.0
N302 N 0.03515 0.95054 0.08823 0.0
N303 N 0.96621 0.86455 0.21322 0.0
C304 C 0.01808 0.92608 0.11349 0.0
C305 C 0.98331 0.88239 0.1785 0.0
N306 N 0.96412 0.942 0.07797 0.0
N307 N 0.03749 0.85866 0.20293 0.0
H308 H 0.93986 0.86327 0.21463 0.0
H309 H 0.97794 0.85293 0.2427 0.0
H310 H 0.06388 0.85769 0.20276 0.0
H311 H 0.02654 0.83927 0.22311 0.0
H312 H 0.97512 0.95511 0.04927 0.0
H313 H 0.93772 0.94292 0.07757 0.0
H314 H 0.02337 0.96995 0.06905 0.0
H315 H 0.06142 0.95327 0.09001 0.0
C316 C 0.38354 0.72509 0.37308 0.0
C317 C 0.35422 0.70757 0.38866 0.0
C318 C 0.32689 0.76195 0.40732 0.0
C319 C 0.35421 0.77912 0.38457 0.0
N320 N 0.40648 0.77632 0.33876 0.0
N321 N 0.29624 0.70898 0.41618 0.0
C322 C 0.38194 0.76051 0.36539 0.0
C323 C 0.3255 0.72584 0.40531 0.0
N324 N 0.41339 0.70799 0.36716 0.0
N325 N 0.30195 0.78006 0.42987 0.0
H326 H 0.29404 0.68267 0.41465 0.0
H327 H 0.27334 0.72112 0.42308 0.0
H328 H 0.30096 0.80647 0.42955 0.0
H329 H 0.28348 0.76898 0.45164 0.0
H330 H 0.4364 0.72004 0.36053 0.0
H331 H 0.41592 0.68217 0.37443 0.0
H332 H 0.42496 0.76318 0.31941 0.0
H333 H 0.40696 0.80231 0.33239 0.0
C334 C 0.51548 0.07192 0.65817 0.0
C335 C 0.53281 0.10241 0.64675 0.0
C336 C 0.4791 0.13055 0.62895 0.0
C337 C 0.46135 0.10066 0.64253 0.0
N338 N 0.46211 0.04446 0.67721 0.0
N339 N 0.53097 0.16293 0.63575 0.0
C340 C 0.47938 0.07198 0.66006 0.0
C341 C 0.5145 0.13241 0.63675 0.0
N342 N 0.53327 0.04248 0.66393 0.0
N343 N 0.46255 0.15689 0.60712 0.0
H344 H 0.55687 0.16532 0.64268 0.0
H345 H 0.51845 0.18612 0.63345 0.0
H346 H 0.4366 0.15719 0.60065 0.0
H347 H 0.47506 0.17741 0.59153 0.0
H348 H 0.52194 0.01872 0.66645 0.0
H349 H 0.55963 0.04135 0.66272 0.0
H350 H 0.47374 0.02451 0.69547 0.0
H351 H 0.4358 0.04245 0.67601 0.0
C352 C 0.82211 0.22922 0.91124 0.0
C353 C 0.84941 0.21157 0.88918 0.0
C354 C 0.8798 0.26509 0.87838 0.0
C355 C 0.85062 0.28308 0.89342 0.0
N356 N 0.79228 0.28271 0.91935 0.0
N357 N 0.90234 0.21337 0.8448 0.0
C358 C 0.82138 0.26533 0.90925 0.0
C359 C 0.87771 0.22967 0.87071 0.0
N360 N 0.79657 0.21157 0.93309 0.0
N361 N 0.90996 0.28174 0.87296 0.0
H362 H 0.90265 0.18731 0.8388 0.0
H363 H 0.92121 0.22614 0.82577 0.0
H364 H 0.91282 0.30757 0.88006 0.0
H365 H 0.93285 0.26935 0.86684 0.0
H366 H 0.778 0.223 0.95434 0.0
H367 H 0.79518 0.18517 0.9328 0.0
H368 H 0.76908 0.27097 0.92561 0.0
H369 H 0.79057 0.30905 0.91775 0.0
C370 C 0.66603 0.72771 0.35666 0.0
C371 C 0.6476 0.71012 0.39303 0.0
C372 C 0.63045 0.76422 0.42957 0.0
C373 C 0.64974 0.78164 0.39398 0.0
N374 N 0.69268 0.78011 0.33192 0.0
N375 N 0.61754 0.71089 0.46926 0.0
C376 C 0.66966 0.76337 0.36012 0.0
C377 C 0.63186 0.72816 0.43152 0.0
N378 N 0.67933 0.71054 0.31792 0.0
N379 N 0.60885 0.78182 0.45908 0.0
H380 H 0.61635 0.68452 0.47068 0.0
H381 H 0.60906 0.72263 0.50089 0.0
H382 H 0.60658 0.80813 0.45844 0.0
H383 H 0.59115 0.77027 0.48161 0.0
H384 H 0.68909 0.7225 0.2873 0.0
H385 H 0.67864 0.68426 0.31453 0.0
H386 H 0.71062 0.76788 0.31046 0.0
H387 H 0.69611 0.80627 0.33355 0.0
C388 C 0.82717 0.73288 0.12676 0.0
C389 C 0.85167 0.71478 0.09942 0.0
C390 C 0.87766 0.76815 0.07316 0.0
C391 C 0.85305 0.78622 0.10038 0.0
N392 N 0.80002 0.78682 0.14351 0.0
N393 N 0.89606 0.71431 0.03941 0.0
C394 C 0.82647 0.76884 0.12435 0.0
C395 C 0.87539 0.73219 0.06992 0.0
N396 N 0.80489 0.71564 0.15564 0.0
N397 N 0.90441 0.78511 0.05311 0.0
H398 H 0.8962 0.6879 0.03771 0.0
H399 H 0.91129 0.72557 0.01319 0.0
H400 H 0.90702 0.81139 0.05467 0.0
H401 H 0.92533 0.77314 0.03784 0.0
H402 H 0.78945 0.72729 0.18133 0.0
H403 H 0.80289 0.68927 0.15566 0.0
H404 H 0.77822 0.77568 0.15745 0.0
H405 H 0.79839 0.81318 0.14148 0.0
C406 C 0.61778 0.2653 0.57424 0.0
C407 C 0.64285 0.2834 0.60069 0.0
C408 C 0.66863 0.2302 0.62753 0.0
C409 C 0.64408 0.21196 0.60017 0.0
N410 N 0.59862 0.21144 0.54136 0.0
N411 N 0.69622 0.2841 0.64325 0.0
C412 C 0.61993 0.22933 0.57113 0.0
C413 C 0.66954 0.26611 0.62454 0.0
N414 N 0.59075 0.28227 0.55481 0.0
N415 N 0.6906 0.21322 0.65726 0.0
H416 H 0.69788 0.31046 0.64106 0.0
H417 H 0.71813 0.27295 0.65691 0.0
H418 H 0.6919 0.18687 0.65875 0.0
H419 H 0.70618 0.22513 0.68265 0.0
H420 H 0.5695 0.27029 0.54032 0.0
H421 H 0.5883 0.30857 0.5562 0.0
H422 H 0.58309 0.2227 0.51539 0.0
H423 H 0.59802 0.18504 0.54012 0.0
C424 C 0.01303 0.37951 0.81639 0.0
C425 C 0.03095 0.3978 0.8528 0.0
C426 C 0.97746 0.41364 0.89173 0.0
C427 C 0.95942 0.39656 0.85423 0.0
N428 N 0.95934 0.36755 0.77688 0.0
N429 N 0.03044 0.43775 0.91936 0.0
C430 C 0.977 0.38121 0.81497 0.0
C431 C 0.01319 0.41646 0.88876 0.0
N432 N 0.03022 0.35853 0.78544 0.0
N433 N 0.96056 0.42665 0.93091 0.0
H434 H 0.05669 0.44003 0.91937 0.0
H435 H 0.01871 0.45533 0.94202 0.0
H436 H 0.93428 0.4274 0.93352 0.0
H437 H 0.97259 0.43496 0.96247 0.0
H438 H 0.0184 0.34149 0.76195 0.0
H439 H 0.05647 0.35583 0.78593 0.0
H440 H 0.97068 0.35974 0.74464 0.0
H441 H 0.933 0.36603 0.77592 0.0
C442 C 0.51513 0.57502 0.38456 0.0
C443 C 0.53279 0.59402 0.349 0.0
C444 C 0.47895 0.60789 0.30876 0.0
C445 C 0.46125 0.5927 0.348 0.0
N446 N 0.46205 0.56265 0.42444 0.0
N447 N 0.53203 0.63114 0.27948 0.0
C448 C 0.47924 0.57631 0.38606 0.0
C449 C 0.51492 0.61066 0.3111 0.0
N450 N 0.53274 0.55503 0.41635 0.0
N451 N 0.46141 0.6204 0.26985 0.0
H452 H 0.55826 0.63413 0.28013 0.0
H453 H 0.5202 0.64725 0.25482 0.0
H454 H 0.43506 0.62103 0.26808 0.0
H455 H 0.4729 0.6281 0.23771 0.0
H456 H 0.52144 0.53731 0.43914 0.0
H457 H 0.55907 0.554 0.4173 0.0
H458 H 0.47366 0.55478 0.45647 0.0
H459 H 0.43576 0.56071 0.42567 0.0
C460 C 0.51358 0.35837 0.64302 0.0
C461 C 0.53071 0.38971 0.64809 0.0
C462 C 0.47633 0.41894 0.6583 0.0
C463 C 0.45931 0.38844 0.6456 0.0
N464 N 0.46166 0.32939 0.62193 0.0
N465 N 0.52913 0.4505 0.6573 0.0
C466 C 0.47791 0.35817 0.63706 0.0
C467 C 0.51236 0.42017 0.65574 0.0
N468 N 0.53144 0.32869 0.64513 0.0
N469 N 0.4581 0.44687 0.67171 0.0
H470 H 0.55543 0.45246 0.65555 0.0
H471 H 0.51702 0.47392 0.6569 0.0
H472 H 0.43171 0.44752 0.67151 0.0
H473 H 0.46903 0.46864 0.68636 0.0
H474 H 0.5201 0.30487 0.64654 0.0
H475 H 0.5576 0.32792 0.65056 0.0
H476 H 0.47427 0.30791 0.60941 0.0
H477 H 0.43546 0.32759 0.61856 0.0
C478 C 0.01477 0.57918 0.10806 0.0
C479 C 0.0329 0.6018 0.1387 0.0
C480 C 0.97967 0.62485 0.17033 0.0
C481 C 0.96154 0.6021 0.13983 0.0
N482 N 0.961 0.55254 0.08848 0.0
N483 N 0.03365 0.64127 0.20569 0.0
C484 C 0.97889 0.5777 0.1113 0.0
C485 C 0.01564 0.62285 0.17234 0.0
N486 N 0.03189 0.55953 0.07527 0.0
N487 N 0.96272 0.64981 0.19482 0.0
H488 H 0.06005 0.64152 0.20691 0.0
H489 H 0.02255 0.65426 0.23449 0.0
H490 H 0.93644 0.65226 0.1942 0.0
H491 H 0.9747 0.66966 0.21297 0.0
H492 H 0.0201 0.54583 0.04763 0.0
H493 H 0.05827 0.55812 0.07417 0.0
H494 H 0.97222 0.53208 0.07084 0.0
H495 H 0.93472 0.55036 0.09088 0.0
C496 C 0.1209 0.53387 0.97565 0.0
C497 C 0.14438 0.53522 0.01467 0.0
C498 C 0.17111 0.48271 0.98622 0.0
C499 C 0.14532 0.47928 0.95057 0.0
N500 N 0.09393 0.50026 0.91297 0.0
N501 N 0.19085 0.51068 0.05953 0.0
C502 C 0.12002 0.50473 0.94518 0.0
C503 C 0.16917 0.50951 0.02072 0.0
N504 N 0.0991 0.5603 0.96795 0.0
N505 N 0.19841 0.46136 0.98543 0.0
H506 H 0.19213 0.53117 0.08347 0.0
H507 H 0.20641 0.49058 0.06962 0.0
H508 H 0.20132 0.44224 0.95954 0.0
H509 H 0.21976 0.46451 0.00722 0.0
H510 H 0.08471 0.56312 0.93648 0.0
H511 H 0.09664 0.58076 0.99169 0.0
H512 H 0.07224 0.51522 0.91241 0.0
H513 H 0.09246 0.4802 0.8885 0.0
C514 C 0.75325 0.87399 0.29471 0.0
C515 C 0.72698 0.89833 0.28899 0.0
C516 C 0.75985 0.92667 0.22524 0.0
C517 C 0.78382 0.89995 0.22697 0.0
N518 N 0.80077 0.84523 0.25766 0.0
N519 N 0.70446 0.94769 0.24854 0.0
C520 C 0.78008 0.87299 0.26051 0.0
C521 C 0.73002 0.92461 0.25405 0.0
N522 N 0.75273 0.85161 0.33259 0.0
N523 N 0.76629 0.95457 0.19733 0.0
H524 H 0.68369 0.94901 0.2718 0.0
H525 H 0.70303 0.96468 0.21974 0.0
H526 H 0.78814 0.95699 0.17639 0.0
H527 H 0.75167 0.9765 0.19793 0.0
H528 H 0.77327 0.83634 0.34178 0.0
H529 H 0.73303 0.84992 0.35748 0.0
H530 H 0.79644 0.82289 0.27678 0.0
H531 H 0.8206 0.8431 0.23294 0.0
C532 C 0.36783 0.46263 0.47843 0.0
C533 C 0.34471 0.46204 0.51774 0.0
C534 C 0.32043 0.5161 0.49101 0.0
C535 C 0.34609 0.51862 0.45517 0.0
N536 N 0.3973 0.49643 0.41882 0.0
N537 N 0.30058 0.48878 0.56452 0.0
C538 C 0.37041 0.49229 0.44953 0.0
C539 C 0.3215 0.48901 0.525 0.0
N540 N 0.38769 0.43499 0.46893 0.0
N541 N 0.29413 0.53865 0.49106 0.0
H542 H 0.29897 0.46834 0.58839 0.0
H543 H 0.28618 0.50959 0.57524 0.0
H544 H 0.29189 0.55817 0.46576 0.0
H545 H 0.27287 0.5362 0.51307 0.0
H546 H 0.40171 0.4322 0.43718 0.0
H547 H 0.38845 0.41357 0.491 0.0
H548 H 0.4181 0.48023 0.418 0.0
H549 H 0.40064 0.51758 0.39683 0.0
C550 C 0.72646 0.06716 0.73565 0.0
C551 C 0.72402 0.09379 0.7012 0.0
C552 C 0.77936 0.11599 0.72715 0.0
C553 C 0.78054 0.09082 0.7639 0.0
N554 N 0.75582 0.04316 0.80522 0.0
N555 N 0.75061 0.13974 0.65726 0.0
C556 C 0.75435 0.06642 0.76847 0.0
C557 C 0.75133 0.1169 0.69461 0.0
N558 N 0.70301 0.04159 0.73502 0.0
N559 N 0.80371 0.14073 0.7259 0.0
H560 H 0.72973 0.14362 0.63489 0.0
H561 H 0.77148 0.15381 0.64618 0.0
H562 H 0.82507 0.14075 0.74819 0.0
H563 H 0.80208 0.16258 0.70494 0.0
H564 H 0.70478 0.01971 0.75588 0.0
H565 H 0.68298 0.04067 0.71027 0.0
H566 H 0.73583 0.02738 0.81486 0.0
H567 H 0.77688 0.04056 0.82786 0.0
C568 C 0.87239 0.49773 0.95773 0.0
C569 C 0.84748 0.47197 0.96337 0.0
C570 C 0.82383 0.50209 0.0335 0.0
C571 C 0.84719 0.5289 0.02577 0.0
N572 N 0.89148 0.55444 0.97773 0.0
N573 N 0.79532 0.45294 -0.00026 0.0
C574 C 0.87059 0.5275 0.98676 0.0
C575 C 0.82209 0.47498 -0.00051 0.0
N576 N 0.89902 0.49297 0.92671 0.0
N577 N 0.80341 0.5024 0.07352 0.0
H578 H 0.79255 0.43339 0.97447 0.0
H579 H 0.77417 0.45594 0.02185 0.0
H580 H 0.80268 0.52256 0.09797 0.0
H581 H 0.78889 0.48171 0.08434 0.0
H582 H 0.92026 0.50861 0.92582 0.0
H583 H 0.90159 0.47186 0.90432 0.0
H584 H 0.90561 0.55691 0.94605 0.0
H585 H 0.89338 0.57553 0.00044 0.0
C586 C 0.22058 0.12388 0.73621 0.0
C587 C 0.21418 0.09698 0.76889 0.0
C588 C 0.26318 0.06587 0.73732 0.0
C589 C 0.27161 0.09436 0.70833 0.0
N590 N 0.26215 0.15318 0.68757 0.0
N591 N 0.23062 0.04387 0.80503 0.0
C592 C 0.25122 0.12404 0.70943 0.0
C593 C 0.23589 0.06838 0.77082 0.0
N594 N 0.19746 0.14943 0.7309 0.0
N595 N 0.28033 0.03606 0.73139 0.0
H596 H 0.20998 0.04415 0.82863 0.0
H597 H 0.24776 0.02443 0.81205 0.0
H598 H 0.30006 0.03314 0.7066 0.0
H599 H 0.27319 0.01343 0.74785 0.0
H600 H 0.1989 0.16759 0.70357 0.0
H601 H 0.17525 0.15098 0.75122 0.0
H602 H 0.25018 0.17652 0.69177 0.0
H603 H 0.28512 0.15513 0.66926 0.0
C604 C 0.62308 0.49327 0.45091 0.0
C605 C 0.64483 0.52145 0.45966 0.0
C606 C 0.66554 0.49489 0.53452 0.0
C607 C 0.64472 0.46631 0.52494 0.0
N608 N 0.60732 0.43561 0.47096 0.0
N609 N 0.69265 0.54521 0.50252 0.0
C610 C 0.62486 0.46457 0.48196 0.0
C611 C 0.66767 0.52123 0.49954 0.0
N612 N 0.59926 0.49458 0.41477 0.0
N613 N 0.68327 0.49692 0.57714 0.0
H614 H 0.696 0.56404 0.47642 0.0
H615 H 0.71221 0.54449 0.52793 0.0
H616 H 0.68427 0.47716 0.60213 0.0
H617 H 0.69539 0.51887 0.58908 0.0
H618 H 0.57964 0.47712 0.41112 0.0
H619 H 0.59719 0.51439 0.39009 0.0
H620 H 0.59637 0.43098 0.43714 0.0
H621 H 0.60531 0.41504 0.49446 0.0
C622 C 0.2797 0.87703 0.2288 0.0
C623 C 0.28224 0.90096 0.26714 0.0
C624 C 0.22789 0.92614 0.24321 0.0
C625 C 0.22585 0.90282 0.20384 0.0
N626 N 0.25286 0.86016 0.15359 0.0
N627 N 0.26267 0.95182 0.3064 0.0
C628 C 0.25282 0.87976 0.19466 0.0
C629 C 0.25737 0.92652 0.27316 0.0
N630 N 0.30172 0.85027 0.22676 0.0
N631 N 0.2017 0.94799 0.25183 0.0
H632 H 0.28426 0.953 0.32826 0.0
H633 H 0.2473 0.97311 0.30973 0.0
H634 H 0.18118 0.95076 0.22825 0.0
H635 H 0.19951 0.96252 0.28327 0.0
H636 H 0.29844 0.8295 0.20381 0.0
H637 H 0.32189 0.84714 0.25082 0.0
H638 H 0.27393 0.84656 0.14191 0.0
H639 H 0.23287 0.85899 0.12898 0.0
C640 C 0.66885 0.00488 0.52377 0.0
C641 C 0.64006 0.02634 0.52413 0.0
C642 C 0.61087 0.98889 0.46671 0.0
C643 C 0.64066 0.96889 0.46337 0.0
N644 N 0.69988 0.96071 0.48177 0.0
N645 N 0.58531 0.0419 0.49215 0.0
C646 C 0.67017 0.97754 0.49017 0.0
C647 C 0.61161 0.01938 0.49422 0.0
N648 N 0.69482 0.0105 0.55578 0.0
N649 N 0.5814 0.97781 0.44572 0.0
H650 H 0.58422 0.06377 0.51344 0.0
H651 H 0.5657 0.04022 0.46691 0.0
H652 H 0.57955 0.95514 0.42633 0.0
H653 H 0.55802 0.98939 0.45109 0.0
H654 H 0.71457 0.99345 0.56133 0.0
H655 H 0.6956 0.03128 0.57926 0.0
H656 H 0.72309 0.96821 0.49624 0.0
H657 H 0.70203 0.94087 0.45687 0.0
C658 C 0.26396 0.42622 0.73188 0.0
C659 C 0.27124 0.3963 0.70519 0.0
C660 C 0.21987 0.36934 0.73685 0.0
C661 C 0.21453 0.39791 0.76712 0.0
N662 N 0.23267 0.45224 0.79793 0.0
N663 N 0.25977 0.33709 0.68898 0.0
C664 C 0.23699 0.42597 0.76605 0.0
C665 C 0.25004 0.36729 0.70912 0.0
N666 N 0.28185 0.45524 0.72299 0.0
N667 N 0.19625 0.34398 0.73481 0.0
H668 H 0.28214 0.33393 0.66956 0.0
H669 H 0.24738 0.31423 0.6954 0.0
H670 H 0.17464 0.34352 0.75649 0.0
H671 H 0.19673 0.32463 0.70903 0.0
H672 H 0.27554 0.47876 0.73757 0.0
H673 H 0.30135 0.45651 0.69755 0.0
H674 H 0.25042 0.47148 0.80294 0.0
H675 H 0.21218 0.45379 0.82169 0.0
C676 C 0.83656 0.99276 0.94611 0.0
C677 C 0.83907 0.0262 0.96493 0.0
C678 C 0.83774 0.00298 0.04724 0.0
C679 C 0.84245 0.96984 0.02821 0.0
N680 N 0.8525 0.93433 0.95769 0.0
N681 N 0.84852 0.06248 0.03496 0.0
C682 C 0.84326 0.96486 0.9771 0.0
C683 C 0.84113 0.03129 0.01597 0.0
N684 N 0.82714 0.98751 0.89889 0.0
N685 N 0.82922 0.00753 0.09489 0.0
H686 H 0.85335 0.08381 0.0139 0.0
H687 H 0.85356 0.06628 0.07177 0.0
H688 H 0.82475 0.98738 0.11846 0.0
H689 H 0.82265 0.0311 0.10923 0.0
H690 H 0.82215 0.96348 0.88475 0.0
H691 H 0.82045 0.00726 0.87564 0.0
H692 H 0.85657 0.93082 0.92061 0.0
H693 H 0.8598 0.91357 0.97852 0.0
C694 C 0.22063 0.57692 0.24524 0.0
C695 C 0.21891 0.6022 0.20866 0.0
C696 C 0.27248 0.62669 0.23726 0.0
C697 C 0.27541 0.60004 0.27144 0.0
N698 N 0.2555 0.54701 0.30396 0.0
N699 N 0.24535 0.64835 0.16492 0.0
C700 C 0.25028 0.57444 0.27454 0.0
C701 C 0.24559 0.6261 0.20298 0.0
N702 N 0.19405 0.55517 0.25177 0.0
N703 N 0.29425 0.65368 0.23938 0.0
H704 H 0.2253 0.65066 0.14052 0.0
H705 H 0.26614 0.66315 0.15543 0.0
H706 H 0.31408 0.65542 0.26434 0.0
H707 H 0.29092 0.67584 0.21947 0.0
H708 H 0.19187 0.53904 0.28147 0.0
H709 H 0.17305 0.55439 0.22875 0.0
H710 H 0.23997 0.52568 0.3042 0.0
H711 H 0.27706 0.54421 0.32556 0.0
C712 C 0.37933 0.00191 0.51894 0.0
C713 C 0.34861 0.01937 0.52838 0.0
C714 C 0.31822 0.98156 0.47236 0.0
C715 C 0.34852 0.9629 0.46555 0.0
N716 N 0.40619 0.95089 0.48878 0.0
N717 N 0.28792 0.02337 0.52039 0.0
C718 C 0.37857 0.97177 0.49079 0.0
C719 C 0.31775 0.00859 0.50674 0.0
N720 N 0.40948 0.015 0.53492 0.0
N721 N 0.29024 0.97397 0.44506 0.0
H722 H 0.28668 0.0432 0.54546 0.0
H723 H 0.26422 0.0144 0.50983 0.0
H724 H 0.28946 0.95359 0.42085 0.0
H725 H 0.26857 0.98897 0.4441 0.0
H726 H 0.43297 0.00549 0.52453 0.0
H727 H 0.41133 0.03734 0.55505 0.0
H728 H 0.42754 0.95399 0.51063 0.0
H729 H 0.4066 0.92855 0.46848 0.0
C730 C 0.77643 0.62396 0.25765 0.0
C731 C 0.77664 0.6019 0.21686 0.0
C732 C 0.72264 0.57712 0.24266 0.0
C733 C 0.72069 0.60142 0.28062 0.0
N734 N 0.74378 0.6508 0.32126 0.0
N735 N 0.7484 0.56032 0.16662 0.0
C736 C 0.74722 0.62539 0.2877 0.0
C737 C 0.74921 0.57941 0.2081 0.0
N738 N 0.804 0.6439 0.26745 0.0
N739 N 0.70019 0.55071 0.24117 0.0
H740 H 0.76812 0.55989 0.14158 0.0
H741 H 0.7272 0.54667 0.1553 0.0
H742 H 0.68115 0.54734 0.26692 0.0
H743 H 0.70246 0.53022 0.2175 0.0
H744 H 0.80737 0.6569 0.30007 0.0
H745 H 0.82469 0.6461 0.24423 0.0
H746 H 0.75993 0.67161 0.3235 0.0
H747 H 0.72334 0.65283 0.34486 0.0
C748 C 0.17456 0.99349 0.01659 0.0
C749 C 0.14586 0.9719 0.01846 0.0
C750 C 0.11565 0.00839 0.96124 0.0
C751 C 0.14528 0.02858 0.9563 0.0
N752 N 0.20477 0.03711 0.97228 0.0
N753 N 0.09119 0.95514 0.9873 0.0
C754 C 0.17527 0.02033 0.98219 0.0
C755 C 0.11713 0.97812 0.98891 0.0
N756 N 0.20099 0.98849 0.04795 0.0
N757 N 0.08554 0.01912 0.94198 0.0
H758 H 0.09067 0.93324 0.00844 0.0
H759 H 0.07141 0.95637 0.96225 0.0
H760 H 0.08287 0.04166 0.92272 0.0
H761 H 0.06242 0.00745 0.94906 0.0
H762 H 0.22083 0.00564 0.0523 0.0
H763 H 0.20206 0.96812 0.07203 0.0
H764 H 0.22823 0.02994 0.98622 0.0
H765 H 0.20642 0.05644 0.9466 0.0
C766 C 0.72079 0.36663 0.75026 0.0
C767 C 0.71461 0.39581 0.72155 0.0
C768 C 0.76426 0.42398 0.75683 0.0
C769 C 0.77202 0.39375 0.78231 0.0
N770 N 0.76131 0.3345 0.79775 0.0
N771 N 0.7315 0.451 0.69312 0.0
C772 C 0.75116 0.3646 0.77781 0.0
C773 C 0.73672 0.42412 0.72348 0.0
N774 N 0.69761 0.34084 0.7512 0.0
N775 N 0.7823 0.45291 0.76612 0.0
H776 H 0.71044 0.45277 0.67038 0.0
H777 H 0.74887 0.47057 0.68841 0.0
H778 H 0.8025 0.45383 0.79058 0.0
H779 H 0.77566 0.47665 0.75268 0.0
H780 H 0.69876 0.32072 0.77555 0.0
H781 H 0.67569 0.34067 0.73004 0.0
H782 H 0.7492 0.31148 0.79125 0.0
H783 H 0.78372 0.33176 0.81749 0.0
loop_
_geom_bond_atom_site_label_1
_geom_bond_atom_site_label_2
_geom_bond_distance
_geom_bond_site_symmetry_2
_ccdc_geom_bond_type
In0 O1 2.294 . S
In0 O2 2.326 . S
In0 O6 2.266 . S
In0 O7 2.326 . S
In0 O8 2.266 . S
In0 O9 2.326 . S
In0 O11 2.294 . S
In0 O12 2.326 . S
O1 In0 2.294 . S
O1 C10 1.240 . S
O2 In0 2.326 . S
O2 C10 1.252 . S
C3 O6 1.252 . S
C3 O7 1.260 . S
C4 O11 1.240 . S
C4 O12 1.252 . S
C5 O8 1.252 . S
C5 O9 1.260 . S
O6 In0 2.266 . S
O6 C3 1.252 . S
O7 In0 2.326 . S
O7 C3 1.260 . S
O8 In0 2.266 . S
O8 C5 1.252 . S
O9 In0 2.326 . S
O9 C5 1.260 . S
C10 O1 1.240 . S
C10 O2 1.252 . S
O11 In0 2.294 . S
O11 C4 1.240 . S
O12 In0 2.326 . S
O12 C4 1.252 . S
In13 O14 2.294 . S
In13 O15 2.326 . S
In13 O19 2.266 . S
In13 O20 2.326 . S
In13 O21 2.266 . S
In13 O22 2.326 . S
In13 O24 2.294 . S
In13 O25 2.326 . S
O14 In13 2.294 . S
O14 C23 1.240 . S
O15 In13 2.326 . S
O15 C23 1.252 . S
C16 O19 1.252 . S
C16 O20 1.260 . S
C17 O24 1.240 . S
C17 O25 1.252 . S
C18 O21 1.252 . S
C18 O22 1.260 . S
O19 In13 2.266 . S
O19 C16 1.252 . S
O20 In13 2.326 . S
O20 C16 1.260 . S
O21 In13 2.266 . S
O21 C18 1.252 . S
O22 In13 2.326 . S
O22 C18 1.260 . S
C23 O14 1.240 . S
C23 O15 1.252 . S
O24 In13 2.294 . S
O24 C17 1.240 . S
O25 In13 2.326 . S
O25 C17 1.252 . S
In26 O27 2.294 . S
In26 O28 2.326 . S
In26 O32 2.266 . S
In26 O33 2.326 . S
In26 O34 2.266 . S
In26 O35 2.326 . S
In26 O37 2.294 . S
In26 O38 2.326 . S
O27 In26 2.294 . S
O27 C36 1.240 . S
O28 In26 2.326 . S
O28 C36 1.252 . S
C29 O32 1.252 . S
C29 O33 1.260 . S
C30 O37 1.240 . S
C30 O38 1.252 . S
C31 O34 1.252 . S
C31 O35 1.260 . S
O32 In26 2.266 . S
O32 C29 1.252 . S
O33 In26 2.326 . S
O33 C29 1.260 . S
O34 In26 2.266 . S
O34 C31 1.252 . S
O35 In26 2.326 . S
O35 C31 1.260 . S
C36 O27 1.240 . S
C36 O28 1.252 . S
O37 In26 2.294 . S
O37 C30 1.240 . S
O38 In26 2.326 . S
O38 C30 1.252 . S
In39 O40 2.294 . S
In39 O41 2.326 . S
In39 O45 2.266 . S
In39 O46 2.326 . S
In39 O47 2.266 . S
In39 O48 2.326 . S
In39 O50 2.294 . S
In39 O51 2.326 . S
O40 In39 2.294 . S
O40 C49 1.240 . S
O41 In39 2.326 . S
O41 C49 1.252 . S
C42 O45 1.252 . S
C42 O46 1.260 . S
C43 O50 1.240 . S
C43 O51 1.252 . S
C44 O47 1.252 . S
C44 O48 1.260 . S
O45 In39 2.266 . S
O45 C42 1.252 . S
O46 In39 2.326 . S
O46 C42 1.260 . S
O47 In39 2.266 . S
O47 C44 1.252 . S
O48 In39 2.326 . S
O48 C44 1.260 . S
C49 O40 1.240 . S
C49 O41 1.252 . S
O50 In39 2.294 . S
O50 C43 1.240 . S
O51 In39 2.326 . S
O51 C43 1.252 . S
In52 O53 2.294 . S
In52 O54 2.326 . S
In52 O58 2.266 . S
In52 O59 2.326 . S
In52 O60 2.266 . S
In52 O61 2.326 . S
In52 O63 2.294 . S
In52 O64 2.326 . S
O53 In52 2.294 . S
O53 C62 1.240 . S
O54 In52 2.326 . S
O54 C62 1.252 . S
C55 O58 1.252 . S
C55 O59 1.260 . S
C56 O63 1.240 . S
C56 O64 1.252 . S
C57 O60 1.252 . S
C57 O61 1.260 . S
O58 In52 2.266 . S
O58 C55 1.252 . S
O59 In52 2.326 . S
O59 C55 1.260 . S
O60 In52 2.266 . S
O60 C57 1.252 . S
O61 In52 2.326 . S
O61 C57 1.260 . S
C62 O53 1.240 . S
C62 O54 1.252 . S
O63 In52 2.294 . S
O63 C56 1.240 . S
O64 In52 2.326 . S
O64 C56 1.252 . S
In65 O66 2.294 . S
In65 O67 2.326 . S
In65 O71 2.266 . S
In65 O72 2.326 . S
In65 O73 2.266 . S
In65 O74 2.326 . S
In65 O76 2.294 . S
In65 O77 2.326 . S
O66 In65 2.294 . S
O66 C75 1.240 . S
O67 In65 2.326 . S
O67 C75 1.252 . S
C68 O71 1.252 . S
C68 O72 1.260 . S
C69 O76 1.240 . S
C69 O77 1.252 . S
C70 O73 1.252 . S
C70 O74 1.260 . S
O71 In65 2.266 . S
O71 C68 1.252 . S
O72 In65 2.326 . S
O72 C68 1.260 . S
O73 In65 2.266 . S
O73 C70 1.252 . S
O74 In65 2.326 . S
O74 C70 1.260 . S
C75 O66 1.240 . S
C75 O67 1.252 . S
O76 In65 2.294 . S
O76 C69 1.240 . S
O77 In65 2.326 . S
O77 C69 1.252 . S
In78 O79 2.294 . S
In78 O80 2.326 . S
In78 O84 2.266 . S
In78 O85 2.326 . S
In78 O86 2.266 . S
In78 O87 2.326 . S
In78 O89 2.294 . S
In78 O90 2.326 . S
O79 In78 2.294 . S
O79 C88 1.240 . S
O80 In78 2.326 . S
O80 C88 1.252 . S
C81 O84 1.252 . S
C81 O85 1.260 . S
C82 O89 1.240 . S
C82 O90 1.252 . S
C83 O86 1.252 . S
C83 O87 1.260 . S
O84 In78 2.266 . S
O84 C81 1.252 . S
O85 In78 2.326 . S
O85 C81 1.260 . S
O86 In78 2.266 . S
O86 C83 1.252 . S
O87 In78 2.326 . S
O87 C83 1.260 . S
C88 O79 1.240 . S
C88 O80 1.252 . S
O89 In78 2.294 . S
O89 C82 1.240 . S
O90 In78 2.326 . S
O90 C82 1.252 . S
In91 O92 2.294 . S
In91 O93 2.326 . S
In91 O97 2.266 . S
In91 O98 2.326 . S
In91 O99 2.266 . S
In91 O100 2.326 . S
In91 O102 2.294 . S
In91 O103 2.326 . S
O92 In91 2.294 . S
O92 C101 1.240 . S
O93 In91 2.326 . S
O93 C101 1.252 . S
C94 O97 1.252 . S
C94 O98 1.260 . S
C95 O102 1.240 . S
C95 O103 1.252 . S
C96 O99 1.252 . S
C96 O100 1.260 . S
O97 In91 2.266 . S
O97 C94 1.252 . S
O98 In91 2.326 . S
O98 C94 1.260 . S
O99 In91 2.266 . S
O99 C96 1.252 . S
O100 In91 2.326 . S
O100 C96 1.260 . S
C101 O92 1.240 . S
C101 O93 1.252 . S
O102 In91 2.294 . S
O102 C95 1.240 . S
O103 In91 2.326 . S
O103 C95 1.252 . S
In104 O105 2.294 . S
In104 O106 2.326 . S
In104 O110 2.266 . S
In104 O111 2.326 . S
In104 O112 2.266 . S
In104 O113 2.326 . S
In104 O115 2.294 . S
In104 O116 2.326 . S
O105 In104 2.294 . S
O105 C114 1.240 . S
O106 In104 2.326 . S
O106 C114 1.252 . S
C107 O110 1.252 . S
C107 O111 1.260 . S
C108 O115 1.240 . S
C108 O116 1.252 . S
C109 O112 1.252 . S
C109 O113 1.260 . S
O110 In104 2.266 . S
O110 C107 1.252 . S
O111 In104 2.326 . S
O111 C107 1.260 . S
O112 In104 2.266 . S
O112 C109 1.252 . S
O113 In104 2.326 . S
O113 C109 1.260 . S
C114 O105 1.240 . S
C114 O106 1.252 . S
O115 In104 2.294 . S
O115 C108 1.240 . S
O116 In104 2.326 . S
O116 C108 1.252 . S
In117 O118 2.294 . S
In117 O119 2.326 . S
In117 O123 2.266 . S
In117 O124 2.326 . S
In117 O125 2.266 . S
In117 O126 2.326 . S
In117 O128 2.294 . S
In117 O129 2.326 . S
O118 In117 2.294 . S
O118 C127 1.240 . S
O119 In117 2.326 . S
O119 C127 1.252 . S
C120 O123 1.252 . S
C120 O124 1.260 . S
C121 O128 1.240 . S
C121 O129 1.252 . S
C122 O125 1.252 . S
C122 O126 1.260 . S
O123 In117 2.266 . S
O123 C120 1.252 . S
O124 In117 2.326 . S
O124 C120 1.260 . S
O125 In117 2.266 . S
O125 C122 1.252 . S
O126 In117 2.326 . S
O126 C122 1.260 . S
C127 O118 1.240 . S
C127 O119 1.252 . S
O128 In117 2.294 . S
O128 C121 1.240 . S
O129 In117 2.326 . S
O129 C121 1.252 . S
In130 O131 2.294 . S
In130 O132 2.326 . S
In130 O136 2.266 . S
In130 O137 2.326 . S
In130 O138 2.266 . S
In130 O139 2.326 . S
In130 O141 2.294 . S
In130 O142 2.326 . S
O131 In130 2.294 . S
O131 C140 1.240 . S
O132 In130 2.326 . S
O132 C140 1.252 . S
C133 O136 1.252 . S
C133 O137 1.260 . S
C134 O141 1.240 . S
C134 O142 1.252 . S
C135 O138 1.252 . S
C135 O139 1.260 . S
O136 In130 2.266 . S
O136 C133 1.252 . S
O137 In130 2.326 . S
O137 C133 1.260 . S
O138 In130 2.266 . S
O138 C135 1.252 . S
O139 In130 2.326 . S
O139 C135 1.260 . S
C140 O131 1.240 . S
C140 O132 1.252 . S
O141 In130 2.294 . S
O141 C134 1.240 . S
O142 In130 2.326 . S
O142 C134 1.252 . S
In143 O144 2.294 . S
In143 O145 2.326 . S
In143 O149 2.266 . S
In143 O150 2.326 . S
In143 O151 2.266 . S
In143 O152 2.326 . S
In143 O154 2.294 . S
In143 O155 2.326 . S
O144 In143 2.294 . S
O144 C153 1.240 . S
O145 In143 2.326 . S
O145 C153 1.252 . S
C146 O149 1.252 . S
C146 O150 1.260 . S
C147 O154 1.240 . S
C147 O155 1.252 . S
C148 O151 1.252 . S
C148 O152 1.260 . S
O149 In143 2.266 . S
O149 C146 1.252 . S
O150 In143 2.326 . S
O150 C146 1.260 . S
O151 In143 2.266 . S
O151 C148 1.252 . S
O152 In143 2.326 . S
O152 C148 1.260 . S
C153 O144 1.240 . S
C153 O145 1.252 . S
O154 In143 2.294 . S
O154 C147 1.240 . S
O155 In143 2.326 . S
O155 C147 1.252 . S
In156 O157 2.294 . S
In156 O158 2.326 . S
In156 O162 2.266 . S
In156 O163 2.326 . S
In156 O164 2.266 . S
In156 O165 2.326 . S
In156 O167 2.294 . S
In156 O168 2.326 . S
O157 In156 2.294 . S
O157 C166 1.240 . S
O158 In156 2.326 . S
O158 C166 1.252 . S
C159 O162 1.252 . S
C159 O163 1.260 . S
C160 O167 1.240 . S
C160 O168 1.252 . S
C161 O164 1.252 . S
C161 O165 1.260 . S
O162 In156 2.266 . S
O162 C159 1.252 . S
O163 In156 2.326 . S
O163 C159 1.260 . S
O164 In156 2.266 . S
O164 C161 1.252 . S
O165 In156 2.326 . S
O165 C161 1.260 . S
C166 O157 1.240 . S
C166 O158 1.252 . S
O167 In156 2.294 . S
O167 C160 1.240 . S
O168 In156 2.326 . S
O168 C160 1.252 . S
In169 O170 2.294 . S
In169 O171 2.326 . S
In169 O175 2.266 . S
In169 O176 2.326 . S
In169 O177 2.266 . S
In169 O178 2.326 . S
In169 O180 2.294 . S
In169 O181 2.326 . S
O170 In169 2.294 . S
O170 C179 1.240 . S
O171 In169 2.326 . S
O171 C179 1.252 . S
C172 O175 1.252 . S
C172 O176 1.260 . S
C173 O180 1.240 . S
C173 O181 1.252 . S
C174 O177 1.252 . S
C174 O178 1.260 . S
O175 In169 2.266 . S
O175 C172 1.252 . S
O176 In169 2.326 . S
O176 C172 1.260 . S
O177 In169 2.266 . S
O177 C174 1.252 . S
O178 In169 2.326 . S
O178 C174 1.260 . S
C179 O170 1.240 . S
C179 O171 1.252 . S
O180 In169 2.294 . S
O180 C173 1.240 . S
O181 In169 2.326 . S
O181 C173 1.252 . S
In182 O183 2.294 . S
In182 O184 2.326 . S
In182 O188 2.266 . S
In182 O189 2.326 . S
In182 O190 2.266 . S
In182 O191 2.326 . S
In182 O193 2.294 . S
In182 O194 2.326 . S
O183 In182 2.294 . S
O183 C192 1.240 . S
O184 In182 2.326 . S
O184 C192 1.252 . S
C185 O188 1.252 . S
C185 O189 1.260 . S
C186 O193 1.240 . S
C186 O194 1.252 . S
C187 O190 1.252 . S
C187 O191 1.260 . S
O188 In182 2.266 . S
O188 C185 1.252 . S
O189 In182 2.326 . S
O189 C185 1.260 . S
O190 In182 2.266 . S
O190 C187 1.252 . S
O191 In182 2.326 . S
O191 C187 1.260 . S
C192 O183 1.240 . S
C192 O184 1.252 . S
O193 In182 2.294 . S
O193 C186 1.240 . S
O194 In182 2.326 . S
O194 C186 1.252 . S
In195 O196 2.294 . S
In195 O197 2.326 . S
In195 O201 2.266 . S
In195 O202 2.326 . S
In195 O203 2.266 . S
In195 O204 2.326 . S
In195 O206 2.294 . S
In195 O207 2.326 . S
O196 In195 2.294 . S
O196 C205 1.240 . S
O197 In195 2.326 . S
O197 C205 1.252 . S
C198 O201 1.252 . S
C198 O202 1.260 . S
C199 O206 1.240 . S
C199 O207 1.252 . S
C200 O203 1.252 . S
C200 O204 1.260 . S
O201 In195 2.266 . S
O201 C198 1.252 . S
O202 In195 2.326 . S
O202 C198 1.260 . S
O203 In195 2.266 . S
O203 C200 1.252 . S
O204 In195 2.326 . S
O204 C200 1.260 . S
C205 O196 1.240 . S
C205 O197 1.252 . S
O206 In195 2.294 . S
O206 C199 1.240 . S
O207 In195 2.326 . S
O207 C199 1.252 . S
C208 C209 1.363 . S
C208 C214 1.379 . S
C208 N216 1.356 . S
C209 C208 1.363 . S
C209 C215 1.363 . S
C210 C211 1.363 . S
C210 C215 1.379 . S
C210 N217 1.356 . S
C211 C210 1.363 . S
C211 C214 1.363 . S
N212 C214 1.356 . S
N212 H224 0.984 . S
N212 H225 0.985 . S
N213 C215 1.356 . S
N213 H218 0.984 . S
N213 H219 0.985 . S
C214 C208 1.379 . S
C214 C211 1.363 . S
C214 N212 1.356 . S
C215 C209 1.363 . S
C215 C210 1.379 . S
C215 N213 1.356 . S
N216 C208 1.356 . S
N216 H222 0.984 . S
N216 H223 0.984 . S
N217 C210 1.356 . S
N217 H220 0.984 . S
N217 H221 0.985 . S
H218 N213 0.984 . S
H219 N213 0.985 . S
H220 N217 0.984 . S
H221 N217 0.985 . S
H222 N216 0.984 . S
H223 N216 0.984 . S
H224 N212 0.984 . S
H225 N212 0.985 . S
C226 C227 1.363 . S
C226 C232 1.379 . S
C226 N234 1.356 . S
C227 C226 1.363 . S
C227 C233 1.363 . S
C228 C229 1.363 . S
C228 C233 1.379 . S
C228 N235 1.356 . S
C229 C228 1.363 . S
C229 C232 1.363 . S
N230 C232 1.356 . S
N230 H242 0.984 . S
N230 H243 0.985 . S
N231 C233 1.356 . S
N231 H236 0.984 . S
N231 H237 0.985 . S
C232 C226 1.379 . S
C232 C229 1.363 . S
C232 N230 1.356 . S
C233 C227 1.363 . S
C233 C228 1.379 . S
C233 N231 1.356 . S
N234 C226 1.356 . S
N234 H240 0.984 . S
N234 H241 0.984 . S
N235 C228 1.356 . S
N235 H238 0.984 . S
N235 H239 0.985 . S
H236 N231 0.984 . S
H237 N231 0.985 . S
H238 N235 0.984 . S
H239 N235 0.985 . S
H240 N234 0.984 . S
H241 N234 0.984 . S
H242 N230 0.984 . S
H243 N230 0.985 . S
C244 C245 1.363 . S
C244 C250 1.379 . S
C244 N252 1.356 . S
C245 C244 1.363 . S
C245 C251 1.363 . S
C246 C247 1.363 . S
C246 C251 1.379 . S
C246 N253 1.356 . S
C247 C246 1.363 . S
C247 C250 1.363 . S
N248 C250 1.356 . S
N248 H260 0.984 . S
N248 H261 0.985 . S
N249 C251 1.356 . S
N249 H254 0.984 . S
N249 H255 0.985 . S
C250 C244 1.379 . S
C250 C247 1.363 . S
C250 N248 1.356 . S
C251 C245 1.363 . S
C251 C246 1.379 . S
C251 N249 1.356 . S
N252 C244 1.356 . S
N252 H258 0.984 . S
N252 H259 0.984 . S
N253 C246 1.356 . S
N253 H256 0.984 . S
N253 H257 0.985 . S
H254 N249 0.984 . S
H255 N249 0.985 . S
H256 N253 0.984 . S
H257 N253 0.985 . S
H258 N252 0.984 . S
H259 N252 0.984 . S
H260 N248 0.984 . S
H261 N248 0.985 . S
C262 C263 1.363 . S
C262 C268 1.379 1_455 S
C262 N270 1.356 . S
C263 C262 1.363 . S
C263 C269 1.363 . S
C264 C265 1.363 . S
C264 C269 1.379 1_655 S
C264 N271 1.356 . S
C265 C264 1.363 . S
C265 C268 1.363 . S
N266 C268 1.356 . S
N266 H278 0.984 . S
N266 H279 0.985 . S
N267 C269 1.356 . S
N267 H272 0.984 . S
N267 H273 0.985 . S
C268 C262 1.379 1_655 S
C268 C265 1.363 . S
C268 N266 1.356 . S
C269 C263 1.363 . S
C269 C264 1.379 1_455 S
C269 N267 1.356 . S
N270 C262 1.356 . S
N270 H276 0.984 . S
N270 H277 0.984 . S
N271 C264 1.356 . S
N271 H274 0.984 . S
N271 H275 0.985 . S
H272 N267 0.984 . S
H273 N267 0.985 . S
H274 N271 0.984 . S
H275 N271 0.985 . S
H276 N270 0.984 . S
H277 N270 0.984 . S
H278 N266 0.984 . S
H279 N266 0.985 . S
C280 C281 1.363 . S
C280 C286 1.379 . S
C280 N288 1.356 . S
C281 C280 1.363 . S
C281 C287 1.363 . S
C282 C283 1.363 . S
C282 C287 1.379 . S
C282 N289 1.356 . S
C283 C282 1.363 . S
C283 C286 1.363 . S
N284 C286 1.356 . S
N284 H296 0.984 . S
N284 H297 0.985 . S
N285 C287 1.356 . S
N285 H290 0.984 . S
N285 H291 0.985 . S
C286 C280 1.379 . S
C286 C283 1.363 . S
C286 N284 1.356 . S
C287 C281 1.363 . S
C287 C282 1.379 . S
C287 N285 1.356 . S
N288 C280 1.356 . S
N288 H294 0.984 . S
N288 H295 0.984 . S
N289 C282 1.356 . S
N289 H292 0.984 . S
N289 H293 0.985 . S
H290 N285 0.984 . S
H291 N285 0.985 . S
H292 N289 0.984 . S
H293 N289 0.985 . S
H294 N288 0.984 . S
H295 N288 0.984 . S
H296 N284 0.984 . S
H297 N284 0.985 . S
C298 C299 1.363 . S
C298 C304 1.379 1_655 S
C298 N306 1.356 . S
C299 C298 1.363 . S
C299 C305 1.363 . S
C300 C301 1.363 . S
C300 C305 1.379 1_455 S
C300 N307 1.356 . S
C301 C300 1.363 . S
C301 C304 1.363 . S
N302 C304 1.356 . S
N302 H314 0.984 . S
N302 H315 0.985 . S
N303 C305 1.356 . S
N303 H308 0.984 . S
N303 H309 0.985 . S
C304 C298 1.379 1_455 S
C304 C301 1.363 . S
C304 N302 1.356 . S
C305 C299 1.363 . S
C305 C300 1.379 1_655 S
C305 N303 1.356 . S
N306 C298 1.356 . S
N306 H312 0.984 . S
N306 H313 0.984 . S
N307 C300 1.356 . S
N307 H310 0.984 . S
N307 H311 0.985 . S
H308 N303 0.984 . S
H309 N303 0.985 . S
H310 N307 0.984 . S
H311 N307 0.985 . S
H312 N306 0.984 . S
H313 N306 0.984 . S
H314 N302 0.984 . S
H315 N302 0.985 . S
C316 C317 1.363 . S
C316 C322 1.379 . S
C316 N324 1.356 . S
C317 C316 1.363 . S
C317 C323 1.363 . S
C318 C319 1.363 . S
C318 C323 1.379 . S
C318 N325 1.356 . S
C319 C318 1.363 . S
C319 C322 1.363 . S
N320 C322 1.356 . S
N320 H332 0.984 . S
N320 H333 0.985 . S
N321 C323 1.356 . S
N321 H326 0.984 . S
N321 H327 0.985 . S
C322 C316 1.379 . S
C322 C319 1.363 . S
C322 N320 1.356 . S
C323 C317 1.363 . S
C323 C318 1.379 . S
C323 N321 1.356 . S
N324 C316 1.356 . S
N324 H330 0.984 . S
N324 H331 0.984 . S
N325 C318 1.356 . S
N325 H328 0.984 . S
N325 H329 0.985 . S
H326 N321 0.984 . S
H327 N321 0.985 . S
H328 N325 0.984 . S
H329 N325 0.985 . S
H330 N324 0.984 . S
H331 N324 0.984 . S
H332 N320 0.984 . S
H333 N320 0.985 . S
C334 C335 1.363 . S
C334 C340 1.379 . S
C334 N342 1.356 . S
C335 C334 1.363 . S
C335 C341 1.363 . S
C336 C337 1.363 . S
C336 C341 1.379 . S
C336 N343 1.356 . S
C337 C336 1.363 . S
C337 C340 1.363 . S
N338 C340 1.356 . S
N338 H350 0.984 . S
N338 H351 0.985 . S
N339 C341 1.356 . S
N339 H344 0.984 . S
N339 H345 0.985 . S
C340 C334 1.379 . S
C340 C337 1.363 . S
C340 N338 1.356 . S
C341 C335 1.363 . S
C341 C336 1.379 . S
C341 N339 1.356 . S
N342 C334 1.356 . S
N342 H348 0.984 . S
N342 H349 0.984 . S
N343 C336 1.356 . S
N343 H346 0.984 . S
N343 H347 0.985 . S
H344 N339 0.984 . S
H345 N339 0.985 . S
H346 N343 0.984 . S
H347 N343 0.985 . S
H348 N342 0.984 . S
H349 N342 0.984 . S
H350 N338 0.984 . S
H351 N338 0.985 . S
C352 C353 1.363 . S
C352 C358 1.379 . S
C352 N360 1.356 . S
C353 C352 1.363 . S
C353 C359 1.363 . S
C354 C355 1.363 . S
C354 C359 1.379 . S
C354 N361 1.356 . S
C355 C354 1.363 . S
C355 C358 1.363 . S
N356 C358 1.356 . S
N356 H368 0.984 . S
N356 H369 0.985 . S
N357 C359 1.356 . S
N357 H362 0.984 . S
N357 H363 0.985 . S
C358 C352 1.379 . S
C358 C355 1.363 . S
C358 N356 1.356 . S
C359 C353 1.363 . S
C359 C354 1.379 . S
C359 N357 1.356 . S
N360 C352 1.356 . S
N360 H366 0.984 . S
N360 H367 0.984 . S
N361 C354 1.356 . S
N361 H364 0.984 . S
N361 H365 0.985 . S
H362 N357 0.984 . S
H363 N357 0.985 . S
H364 N361 0.984 . S
H365 N361 0.985 . S
H366 N360 0.984 . S
H367 N360 0.984 . S
H368 N356 0.984 . S
H369 N356 0.985 . S
C370 C371 1.363 . S
C370 C376 1.379 . S
C370 N378 1.356 . S
C371 C370 1.363 . S
C371 C377 1.363 . S
C372 C373 1.363 . S
C372 C377 1.379 . S
C372 N379 1.356 . S
C373 C372 1.363 . S
C373 C376 1.363 . S
N374 C376 1.356 . S
N374 H386 0.984 . S
N374 H387 0.985 . S
N375 C377 1.356 . S
N375 H380 0.984 . S
N375 H381 0.985 . S
C376 C370 1.379 . S
C376 C373 1.363 . S
C376 N374 1.356 . S
C377 C371 1.363 . S
C377 C372 1.379 . S
C377 N375 1.356 . S
N378 C370 1.356 . S
N378 H384 0.984 . S
N378 H385 0.984 . S
N379 C372 1.356 . S
N379 H382 0.984 . S
N379 H383 0.985 . S
H380 N375 0.984 . S
H381 N375 0.985 . S
H382 N379 0.984 . S
H383 N379 0.985 . S
H384 N378 0.984 . S
H385 N378 0.984 . S
H386 N374 0.984 . S
H387 N374 0.985 . S
C388 C389 1.363 . S
C388 C394 1.379 . S
C388 N396 1.356 . S
C389 C388 1.363 . S
C389 C395 1.363 . S
C390 C391 1.363 . S
C390 C395 1.379 . S
C390 N397 1.356 . S
C391 C390 1.363 . S
C391 C394 1.363 . S
N392 C394 1.356 . S
N392 H404 0.984 . S
N392 H405 0.985 . S
N393 C395 1.356 . S
N393 H398 0.984 . S
N393 H399 0.985 . S
C394 C388 1.379 . S
C394 C391 1.363 . S
C394 N392 1.356 . S
C395 C389 1.363 . S
C395 C390 1.379 . S
C395 N393 1.356 . S
N396 C388 1.356 . S
N396 H402 0.984 . S
N396 H403 0.984 . S
N397 C390 1.356 . S
N397 H400 0.984 . S
N397 H401 0.985 . S
H398 N393 0.984 . S
H399 N393 0.985 . S
H400 N397 0.984 . S
H401 N397 0.985 . S
H402 N396 0.984 . S
H403 N396 0.984 . S
H404 N392 0.984 . S
H405 N392 0.985 . S
C406 C407 1.363 . S
C406 C412 1.379 . S
C406 N414 1.356 . S
C407 C406 1.363 . S
C407 C413 1.363 . S
C408 C409 1.363 . S
C408 C413 1.379 . S
C408 N415 1.356 . S
C409 C408 1.363 . S
C409 C412 1.363 . S
N410 C412 1.356 . S
N410 H422 0.984 . S
N410 H423 0.985 . S
N411 C413 1.356 . S
N411 H416 0.984 . S
N411 H417 0.985 . S
C412 C406 1.379 . S
C412 C409 1.363 . S
C412 N410 1.356 . S
C413 C407 1.363 . S
C413 C408 1.379 . S
C413 N411 1.356 . S
N414 C406 1.356 . S
N414 H420 0.984 . S
N414 H421 0.984 . S
N415 C408 1.356 . S
N415 H418 0.984 . S
N415 H419 0.985 . S
H416 N411 0.984 . S
H417 N411 0.985 . S
H418 N415 0.984 . S
H419 N415 0.985 . S
H420 N414 0.984 . S
H421 N414 0.984 . S
H422 N410 0.984 . S
H423 N410 0.985 . S
C424 C425 1.363 . S
C424 C430 1.379 1_455 S
C424 N432 1.356 . S
C425 C424 1.363 . S
C425 C431 1.363 . S
C426 C427 1.363 . S
C426 C431 1.379 1_655 S
C426 N433 1.356 . S
C427 C426 1.363 . S
C427 C430 1.363 . S
N428 C430 1.356 . S
N428 H440 0.984 . S
N428 H441 0.985 . S
N429 C431 1.356 . S
N429 H434 0.984 . S
N429 H435 0.985 . S
C430 C424 1.379 1_655 S
C430 C427 1.363 . S
C430 N428 1.356 . S
C431 C425 1.363 . S
C431 C426 1.379 1_455 S
C431 N429 1.356 . S
N432 C424 1.356 . S
N432 H438 0.984 . S
N432 H439 0.984 . S
N433 C426 1.356 . S
N433 H436 0.984 . S
N433 H437 0.985 . S
H434 N429 0.984 . S
H435 N429 0.985 . S
H436 N433 0.984 . S
H437 N433 0.985 . S
H438 N432 0.984 . S
H439 N432 0.984 . S
H440 N428 0.984 . S
H441 N428 0.985 . S
C442 C443 1.363 . S
C442 C448 1.379 . S
C442 N450 1.356 . S
C443 C442 1.363 . S
C443 C449 1.363 . S
C444 C445 1.363 . S
C444 C449 1.379 . S
C444 N451 1.356 . S
C445 C444 1.363 . S
C445 C448 1.363 . S
N446 C448 1.356 . S
N446 H458 0.984 . S
N446 H459 0.985 . S
N447 C449 1.356 . S
N447 H452 0.984 . S
N447 H453 0.985 . S
C448 C442 1.379 . S
C448 C445 1.363 . S
C448 N446 1.356 . S
C449 C443 1.363 . S
C449 C444 1.379 . S
C449 N447 1.356 . S
N450 C442 1.356 . S
N450 H456 0.984 . S
N450 H457 0.984 . S
N451 C444 1.356 . S
N451 H454 0.984 . S
N451 H455 0.985 . S
H452 N447 0.984 . S
H453 N447 0.985 . S
H454 N451 0.984 . S
H455 N451 0.985 . S
H456 N450 0.984 . S
H457 N450 0.984 . S
H458 N446 0.984 . S
H459 N446 0.985 . S
C460 C461 1.363 . S
C460 C466 1.379 . S
C460 N468 1.356 . S
C461 C460 1.363 . S
C461 C467 1.363 . S
C462 C463 1.363 . S
C462 C467 1.379 . S
C462 N469 1.356 . S
C463 C462 1.363 . S
C463 C466 1.363 . S
N464 C466 1.356 . S
N464 H476 0.984 . S
N464 H477 0.985 . S
N465 C467 1.356 . S
N465 H470 0.984 . S
N465 H471 0.985 . S
C466 C460 1.379 . S
C466 C463 1.363 . S
C466 N464 1.356 . S
C467 C461 1.363 . S
C467 C462 1.379 . S
C467 N465 1.356 . S
N468 C460 1.356 . S
N468 H474 0.984 . S
N468 H475 0.984 . S
N469 C462 1.356 . S
N469 H472 0.984 . S
N469 H473 0.985 . S
H470 N465 0.984 . S
H471 N465 0.985 . S
H472 N469 0.984 . S
H473 N469 0.985 . S
H474 N468 0.984 . S
H475 N468 0.984 . S
H476 N464 0.984 . S
H477 N464 0.985 . S
C478 C479 1.363 . S
C478 C484 1.379 1_455 S
C478 N486 1.356 . S
C479 C478 1.363 . S
C479 C485 1.363 . S
C480 C481 1.363 . S
C480 C485 1.379 1_655 S
C480 N487 1.356 . S
C481 C480 1.363 . S
C481 C484 1.363 . S
N482 C484 1.356 . S
N482 H494 0.984 . S
N482 H495 0.985 . S
N483 C485 1.356 . S
N483 H488 0.984 . S
N483 H489 0.985 . S
C484 C478 1.379 1_655 S
C484 C481 1.363 . S
C484 N482 1.356 . S
C485 C479 1.363 . S
C485 C480 1.379 1_455 S
C485 N483 1.356 . S
N486 C478 1.356 . S
N486 H492 0.984 . S
N486 H493 0.984 . S
N487 C480 1.356 . S
N487 H490 0.984 . S
N487 H491 0.985 . S
H488 N483 0.984 . S
H489 N483 0.985 . S
H490 N487 0.984 . S
H491 N487 0.985 . S
H492 N486 0.984 . S
H493 N486 0.984 . S
H494 N482 0.984 . S
H495 N482 0.985 . S
C496 C497 1.363 1_556 S
C496 C502 1.379 . S
C496 N504 1.359 . S
C497 C496 1.363 1_554 S
C497 C503 1.363 . S
C498 C499 1.363 1_554 S
C498 C503 1.379 . S
C498 N505 1.358 . S
C499 C498 1.363 1_556 S
C499 C502 1.363 . S
N500 C502 1.356 . S
N500 H512 0.984 . S
N500 H513 0.985 . S
N501 C503 1.356 . S
N501 H506 0.984 . S
N501 H507 0.985 . S
C502 C496 1.379 . S
C502 C499 1.363 . S
C502 N500 1.356 . S
C503 C497 1.363 . S
C503 C498 1.379 . S
C503 N501 1.356 . S
N504 C496 1.359 . S
N504 H510 0.999 . S
N504 H511 0.967 1_556 S
N505 C498 1.358 . S
N505 H508 0.976 1_554 S
N505 H509 0.992 . S
H506 N501 0.984 . S
H507 N501 0.985 . S
H508 N505 0.976 1_556 S
H509 N505 0.992 . S
H510 N504 0.999 . S
H511 N504 0.967 1_554 S
H512 N500 0.984 . S
H513 N500 0.985 . S
C514 C515 1.363 . S
C514 C520 1.379 . S
C514 N522 1.356 . S
C515 C514 1.363 . S
C515 C521 1.363 . S
C516 C517 1.363 . S
C516 C521 1.379 . S
C516 N523 1.356 . S
C517 C516 1.363 . S
C517 C520 1.363 . S
N518 C520 1.356 . S
N518 H530 0.984 . S
N518 H531 0.985 . S
N519 C521 1.356 . S
N519 H524 0.984 . S
N519 H525 0.985 . S
C520 C514 1.379 . S
C520 C517 1.363 . S
C520 N518 1.356 . S
C521 C515 1.363 . S
C521 C516 1.379 . S
C521 N519 1.356 . S
N522 C514 1.356 . S
N522 H528 0.984 . S
N522 H529 0.984 . S
N523 C516 1.356 . S
N523 H526 0.984 . S
N523 H527 0.985 . S
H524 N519 0.984 . S
H525 N519 0.985 . S
H526 N523 0.984 . S
H527 N523 0.985 . S
H528 N522 0.984 . S
H529 N522 0.984 . S
H530 N518 0.984 . S
H531 N518 0.985 . S
C532 C533 1.363 . S
C532 C538 1.379 . S
C532 N540 1.356 . S
C533 C532 1.363 . S
C533 C539 1.363 . S
C534 C535 1.363 . S
C534 C539 1.379 . S
C534 N541 1.356 . S
C535 C534 1.363 . S
C535 C538 1.363 . S
N536 C538 1.356 . S
N536 H548 0.984 . S
N536 H549 0.985 . S
N537 C539 1.356 . S
N537 H542 0.984 . S
N537 H543 0.985 . S
C538 C532 1.379 . S
C538 C535 1.363 . S
C538 N536 1.356 . S
C539 C533 1.363 . S
C539 C534 1.379 . S
C539 N537 1.356 . S
N540 C532 1.356 . S
N540 H546 0.984 . S
N540 H547 0.984 . S
N541 C534 1.356 . S
N541 H544 0.984 . S
N541 H545 0.985 . S
H542 N537 0.984 . S
H543 N537 0.985 . S
H544 N541 0.984 . S
H545 N541 0.985 . S
H546 N540 0.984 . S
H547 N540 0.984 . S
H548 N536 0.984 . S
H549 N536 0.985 . S
C550 C551 1.363 . S
C550 C556 1.379 . S
C550 N558 1.356 . S
C551 C550 1.363 . S
C551 C557 1.363 . S
C552 C553 1.363 . S
C552 C557 1.379 . S
C552 N559 1.356 . S
C553 C552 1.363 . S
C553 C556 1.363 . S
N554 C556 1.356 . S
N554 H566 0.984 . S
N554 H567 0.985 . S
N555 C557 1.356 . S
N555 H560 0.984 . S
N555 H561 0.985 . S
C556 C550 1.379 . S
C556 C553 1.363 . S
C556 N554 1.356 . S
C557 C551 1.363 . S
C557 C552 1.379 . S
C557 N555 1.356 . S
N558 C550 1.356 . S
N558 H564 0.984 . S
N558 H565 0.984 . S
N559 C552 1.356 . S
N559 H562 0.984 . S
N559 H563 0.985 . S
H560 N555 0.984 . S
H561 N555 0.985 . S
H562 N559 0.984 . S
H563 N559 0.985 . S
H564 N558 0.984 . S
H565 N558 0.984 . S
H566 N554 0.984 . S
H567 N554 0.985 . S
C568 C569 1.363 . S
C568 C574 1.379 . S
C568 N576 1.356 . S
C569 C568 1.363 . S
C569 C575 1.363 1_556 S
C570 C571 1.363 . S
C570 C575 1.379 . S
C570 N577 1.356 . S
C571 C570 1.363 . S
C571 C574 1.363 1_554 S
N572 C574 1.356 . S
N572 H584 0.984 . S
N572 H585 0.985 1_556 S
N573 C575 1.356 . S
N573 H578 0.984 1_554 S
N573 H579 0.985 . S
C574 C568 1.379 . S
C574 C571 1.363 1_556 S
C574 N572 1.356 . S
C575 C569 1.363 1_554 S
C575 C570 1.379 . S
C575 N573 1.356 . S
N576 C568 1.356 . S
N576 H582 0.984 . S
N576 H583 0.984 . S
N577 C570 1.356 . S
N577 H580 0.984 . S
N577 H581 0.985 . S
H578 N573 0.984 1_556 S
H579 N573 0.985 . S
H580 N577 0.984 . S
H581 N577 0.985 . S
H582 N576 0.984 . S
H583 N576 0.984 . S
H584 N572 0.984 . S
H585 N572 0.985 1_554 S
C586 C587 1.363 . S
C586 C592 1.379 . S
C586 N594 1.356 . S
C587 C586 1.363 . S
C587 C593 1.363 . S
C588 C589 1.363 . S
C588 C593 1.379 . S
C588 N595 1.356 . S
C589 C588 1.363 . S
C589 C592 1.363 . S
N590 C592 1.356 . S
N590 H602 0.984 . S
N590 H603 0.985 . S
N591 C593 1.356 . S
N591 H596 0.984 . S
N591 H597 0.985 . S
C592 C586 1.379 . S
C592 C589 1.363 . S
C592 N590 1.356 . S
C593 C587 1.363 . S
C593 C588 1.379 . S
C593 N591 1.356 . S
N594 C586 1.356 . S
N594 H600 0.984 . S
N594 H601 0.984 . S
N595 C588 1.356 . S
N595 H598 0.984 . S
N595 H599 0.985 . S
H596 N591 0.984 . S
H597 N591 0.985 . S
H598 N595 0.984 . S
H599 N595 0.985 . S
H600 N594 0.984 . S
H601 N594 0.984 . S
H602 N590 0.984 . S
H603 N590 0.985 . S
C604 C605 1.363 . S
C604 C610 1.379 . S
C604 N612 1.356 . S
C605 C604 1.363 . S
C605 C611 1.363 . S
C606 C607 1.363 . S
C606 C611 1.379 . S
C606 N613 1.356 . S
C607 C606 1.363 . S
C607 C610 1.363 . S
N608 C610 1.356 . S
N608 H620 0.984 . S
N608 H621 0.985 . S
N609 C611 1.356 . S
N609 H614 0.984 . S
N609 H615 0.985 . S
C610 C604 1.379 . S
C610 C607 1.363 . S
C610 N608 1.356 . S
C611 C605 1.363 . S
C611 C606 1.379 . S
C611 N609 1.356 . S
N612 C604 1.356 . S
N612 H618 0.984 . S
N612 H619 0.984 . S
N613 C606 1.356 . S
N613 H616 0.984 . S
N613 H617 0.985 . S
H614 N609 0.984 . S
H615 N609 0.985 . S
H616 N613 0.984 . S
H617 N613 0.985 . S
H618 N612 0.984 . S
H619 N612 0.984 . S
H620 N608 0.984 . S
H621 N608 0.985 . S
C622 C623 1.363 . S
C622 C628 1.379 . S
C622 N630 1.356 . S
C623 C622 1.363 . S
C623 C629 1.363 . S
C624 C625 1.363 . S
C624 C629 1.379 . S
C624 N631 1.356 . S
C625 C624 1.363 . S
C625 C628 1.363 . S
N626 C628 1.356 . S
N626 H638 0.984 . S
N626 H639 0.985 . S
N627 C629 1.356 . S
N627 H632 0.984 . S
N627 H633 0.985 . S
C628 C622 1.379 . S
C628 C625 1.363 . S
C628 N626 1.356 . S
C629 C623 1.363 . S
C629 C624 1.379 . S
C629 N627 1.356 . S
N630 C622 1.356 . S
N630 H636 0.984 . S
N630 H637 0.984 . S
N631 C624 1.356 . S
N631 H634 0.984 . S
N631 H635 0.985 . S
H632 N627 0.984 . S
H633 N627 0.985 . S
H634 N631 0.984 . S
H635 N631 0.985 . S
H636 N630 0.984 . S
H637 N630 0.984 . S
H638 N626 0.984 . S
H639 N626 0.985 . S
C640 C641 1.363 . S
C640 C646 1.379 1_545 S
C640 N648 1.356 . S
C641 C640 1.363 . S
C641 C647 1.363 . S
C642 C643 1.363 . S
C642 C647 1.379 1_565 S
C642 N649 1.356 . S
C643 C642 1.363 . S
C643 C646 1.363 . S
N644 C646 1.356 . S
N644 H656 0.984 . S
N644 H657 0.985 . S
N645 C647 1.356 . S
N645 H650 0.984 . S
N645 H651 0.985 . S
C646 C640 1.379 1_565 S
C646 C643 1.363 . S
C646 N644 1.356 . S
C647 C641 1.363 . S
C647 C642 1.379 1_545 S
C647 N645 1.356 . S
N648 C640 1.356 . S
N648 H654 0.984 . S
N648 H655 0.984 . S
N649 C642 1.356 . S
N649 H652 0.984 . S
N649 H653 0.985 . S
H650 N645 0.984 . S
H651 N645 0.985 . S
H652 N649 0.984 . S
H653 N649 0.985 . S
H654 N648 0.984 . S
H655 N648 0.984 . S
H656 N644 0.984 . S
H657 N644 0.985 . S
C658 C659 1.363 . S
C658 C664 1.379 . S
C658 N666 1.356 . S
C659 C658 1.363 . S
C659 C665 1.363 . S
C660 C661 1.363 . S
C660 C665 1.379 . S
C660 N667 1.356 . S
C661 C660 1.363 . S
C661 C664 1.363 . S
N662 C664 1.356 . S
N662 H674 0.984 . S
N662 H675 0.985 . S
N663 C665 1.356 . S
N663 H668 0.984 . S
N663 H669 0.985 . S
C664 C658 1.379 . S
C664 C661 1.363 . S
C664 N662 1.356 . S
C665 C659 1.363 . S
C665 C660 1.379 . S
C665 N663 1.356 . S
N666 C658 1.356 . S
N666 H672 0.984 . S
N666 H673 0.984 . S
N667 C660 1.356 . S
N667 H670 0.984 . S
N667 H671 0.985 . S
H668 N663 0.984 . S
H669 N663 0.985 . S
H670 N667 0.984 . S
H671 N667 0.985 . S
H672 N666 0.984 . S
H673 N666 0.984 . S
H674 N662 0.984 . S
H675 N662 0.985 . S
C676 C677 1.363 1_565 S
C676 C682 1.379 . S
C676 N684 1.356 1_565 S
C677 C676 1.363 1_545 S
C677 C683 1.363 1_556 S
C678 C679 1.363 1_545 S
C678 C683 1.379 . S
C678 N685 1.356 1_545 S
C679 C678 1.363 1_565 S
C679 C682 1.363 1_554 S
N680 C682 1.356 . S
N680 H692 0.984 . S
N680 H693 0.985 1_556 S
N681 C683 1.356 . S
N681 H686 0.984 1_554 S
N681 H687 0.985 . S
C682 C676 1.379 . S
C682 C679 1.363 1_556 S
C682 N680 1.356 . S
C683 C677 1.363 1_554 S
C683 C678 1.379 . S
C683 N681 1.356 . S
N684 C676 1.356 1_545 S
N684 H690 0.984 1_545 S
N684 H691 0.984 . S
N685 C678 1.356 1_565 S
N685 H688 0.984 . S
N685 H689 0.985 1_565 S
H686 N681 0.984 1_556 S
H687 N681 0.985 . S
H688 N685 0.984 . S
H689 N685 0.985 1_545 S
H690 N684 0.984 1_565 S
H691 N684 0.984 . S
H692 N680 0.984 . S
H693 N680 0.985 1_554 S
C694 C695 1.363 . S
C694 C700 1.379 . S
C694 N702 1.356 . S
C695 C694 1.363 . S
C695 C701 1.363 . S
C696 C697 1.363 . S
C696 C701 1.379 . S
C696 N703 1.356 . S
C697 C696 1.363 . S
C697 C700 1.363 . S
N698 C700 1.356 . S
N698 H710 0.984 . S
N698 H711 0.985 . S
N699 C701 1.356 . S
N699 H704 0.984 . S
N699 H705 0.985 . S
C700 C694 1.379 . S
C700 C697 1.363 . S
C700 N698 1.356 . S
C701 C695 1.363 . S
C701 C696 1.379 . S
C701 N699 1.356 . S
N702 C694 1.356 . S
N702 H708 0.984 . S
N702 H709 0.984 . S
N703 C696 1.356 . S
N703 H706 0.984 . S
N703 H707 0.985 . S
H704 N699 0.984 . S
H705 N699 0.985 . S
H706 N703 0.984 . S
H707 N703 0.985 . S
H708 N702 0.984 . S
H709 N702 0.984 . S
H710 N698 0.984 . S
H711 N698 0.985 . S
C712 C713 1.363 . S
C712 C718 1.379 1_545 S
C712 N720 1.356 . S
C713 C712 1.363 . S
C713 C719 1.363 . S
C714 C715 1.363 . S
C714 C719 1.379 1_565 S
C714 N721 1.356 . S
C715 C714 1.363 . S
C715 C718 1.363 . S
N716 C718 1.356 . S
N716 H728 0.984 . S
N716 H729 0.985 . S
N717 C719 1.356 . S
N717 H722 0.984 . S
N717 H723 0.985 . S
C718 C712 1.379 1_565 S
C718 C715 1.363 . S
C718 N716 1.356 . S
C719 C713 1.363 . S
C719 C714 1.379 1_545 S
C719 N717 1.356 . S
N720 C712 1.356 . S
N720 H726 0.984 . S
N720 H727 0.984 . S
N721 C714 1.356 . S
N721 H724 0.984 . S
N721 H725 0.985 . S
H722 N717 0.984 . S
H723 N717 0.985 . S
H724 N721 0.984 . S
H725 N721 0.985 . S
H726 N720 0.984 . S
H727 N720 0.984 . S
H728 N716 0.984 . S
H729 N716 0.985 . S
C730 C731 1.363 . S
C730 C736 1.379 . S
C730 N738 1.356 . S
C731 C730 1.363 . S
C731 C737 1.363 . S
C732 C733 1.363 . S
C732 C737 1.379 . S
C732 N739 1.356 . S
C733 C732 1.363 . S
C733 C736 1.363 . S
N734 C736 1.356 . S
N734 H746 0.984 . S
N734 H747 0.985 . S
N735 C737 1.356 . S
N735 H740 0.984 . S
N735 H741 0.985 . S
C736 C730 1.379 . S
C736 C733 1.363 . S
C736 N734 1.356 . S
C737 C731 1.363 . S
C737 C732 1.379 . S
C737 N735 1.356 . S
N738 C730 1.356 . S
N738 H744 0.984 . S
N738 H745 0.984 . S
N739 C732 1.356 . S
N739 H742 0.984 . S
N739 H743 0.985 . S
H740 N735 0.984 . S
H741 N735 0.985 . S
H742 N739 0.984 . S
H743 N739 0.985 . S
H744 N738 0.984 . S
H745 N738 0.984 . S
H746 N734 0.984 . S
H747 N734 0.985 . S
C748 C749 1.363 1_545 S
C748 C754 1.379 . S
C748 N756 1.356 1_545 S
C749 C748 1.363 1_565 S
C749 C755 1.363 1_554 S
C750 C751 1.363 1_565 S
C750 C755 1.379 . S
C750 N757 1.356 1_565 S
C751 C750 1.363 1_545 S
C751 C754 1.363 1_556 S
N752 C754 1.356 . S
N752 H764 0.984 . S
N752 H765 0.985 1_554 S
N753 C755 1.356 . S
N753 H758 0.984 1_556 S
N753 H759 0.985 . S
C754 C748 1.379 . S
C754 C751 1.363 1_554 S
C754 N752 1.356 . S
C755 C749 1.363 1_556 S
C755 C750 1.379 . S
C755 N753 1.356 . S
N756 C748 1.356 1_565 S
N756 H762 0.984 1_565 S
N756 H763 0.984 . S
N757 C750 1.356 1_545 S
N757 H760 0.984 . S
N757 H761 0.985 1_545 S
H758 N753 0.984 1_554 S
H759 N753 0.985 . S
H760 N757 0.984 . S
H761 N757 0.985 1_565 S
H762 N756 0.984 1_545 S
H763 N756 0.984 . S
H764 N752 0.984 . S
H765 N752 0.985 1_556 S
C766 C767 1.363 . S
C766 C772 1.379 . S
C766 N774 1.356 . S
C767 C766 1.363 . S
C767 C773 1.363 . S
C768 C769 1.363 . S
C768 C773 1.379 . S
C768 N775 1.356 . S
C769 C768 1.363 . S
C769 C772 1.363 . S
N770 C772 1.356 . S
N770 H782 0.984 . S
N770 H783 0.985 . S
N771 C773 1.356 . S
N771 H776 0.984 . S
N771 H777 0.985 . S
C772 C766 1.379 . S
C772 C769 1.363 . S
C772 N770 1.356 . S
C773 C767 1.363 . S
C773 C768 1.379 . S
C773 N771 1.356 . S
N774 C766 1.356 . S
N774 H780 0.984 . S
N774 H781 0.984 . S
N775 C768 1.356 . S
N775 H778 0.984 . S
N775 H779 0.985 . S
H776 N771 0.984 . S
H777 N771 0.985 . S
H778 N775 0.984 . S
H779 N775 0.985 . S
H780 N774 0.984 . S
H781 N774 0.984 . S
H782 N770 0.984 . S
H783 N770 0.985 . S
C209 C148 1.490 . S
C211 C4 1.493 . S
C227 C199 1.496 . S
C229 C18 1.494 . S
C245 C29 1.490 . S
C247 C127 1.492 . S
C263 C179 1.488 . S
C265 C49 1.488 . S
C281 C62 1.493 . S
C283 C174 1.490 . S
C299 C70 1.494 . S
C301 C153 1.497 . S
C317 C81 1.498 . S
C319 C198 1.499 . S
C335 C101 1.496 . S
C337 C122 1.494 . S
C353 C44 1.494 . S
C355 C107 1.495 . S
C371 C135 1.494 . S
C373 C23 1.497 . S
C389 C160 1.488 . S
C391 C75 1.488 . S
C407 C187 1.494 . S
C409 C96 1.495 . S
C425 C57 1.490 . S
C427 C108 1.493 . S
C443 C140 1.491 . S
C445 C82 1.492 . S
C461 C192 1.492 . S
C463 C30 1.492 . S
C479 C3 1.499 . S
C481 C159 1.499 . S
C497 C5 1.430 . S
C499 C55 1.430 . S
C515 C17 1.416 . S
C517 C69 1.416 . S
C533 C36 1.420 . S
C535 C88 1.420 . S
C551 C94 1.425 . S
C553 C42 1.426 . S
C569 C114 1.419 . S
C571 C161 1.419 . S
C587 C172 1.420 . S
C589 C121 1.420 . S
C605 C134 1.423 . S
C607 C186 1.423 . S
C623 C200 1.430 . S
C625 C146 1.429 . S
C641 C95 1.423 . S
C643 C16 1.423 . S
C659 C31 1.423 . S
C661 C56 1.422 . S
C677 C43 1.427 . S
C679 C68 1.428 . S
C695 C10 1.418 . S
C697 C83 1.419 . S
C713 C120 1.426 . S
C715 C205 1.426 . S
C731 C166 1.426 . S
C733 C133 1.427 . S
C749 C147 1.416 . S
C751 C173 1.416 . S
C767 C185 1.423 . S
C769 C109 1.423 . S
