# Generated by pormake.
# Topology lcy-e, (6)-cn, num edge types: 1
# Building blocks:
#     Node 0, Type 0, BuildingBlock: KUMJIN_clean_sbu_0, # of connection points: 6
#     Node 1, Type 0, BuildingBlock: KUMJIN_clean_sbu_0, # of connection points: 6
#     Node 2, Type 0, BuildingBlock: KUMJIN_clean_sbu_0, # of connection points: 6
#     Node 3, Type 0, BuildingBlock: KUMJIN_clean_sbu_0, # of connection points: 6
#     Node 4, Type 0, BuildingBlock: KUMJIN_clean_sbu_0, # of connection points: 6
#     Node 5, Type 0, BuildingBlock: KUMJIN_clean_sbu_0, # of connection points: 6
#     Node 6, Type 0, BuildingBlock: KUMJIN_clean_sbu_0, # of connection points: 6
#     Node 7, Type 0, BuildingBlock: KUMJIN_clean_sbu_0, # of connection points: 6
#     Node 8, Type 0, BuildingBlock: KUMJIN_clean_sbu_0, # of connection points: 6
#     Node 9, Type 0, BuildingBlock: KUMJIN_clean_sbu_0, # of connection points: 6
#     Node 10, Type 0, BuildingBlock: KUMJIN_clean_sbu_0, # of connection points: 6
#     Node 11, Type 0, BuildingBlock: KUMJIN_clean_sbu_0, # of connection points: 6
#     Edge 12, Type (0, 0), BuildingBlock: KIFKEQ_clean_linker_1, # of connection points: 2
#     Edge 13, Type (0, 0), BuildingBlock: KIFKEQ_clean_linker_1, # of connection points: 2
#     Edge 14, Type (0, 0), BuildingBlock: KIFKEQ_clean_linker_1, # of connection points: 2
#     Edge 15, Type (0, 0), BuildingBlock: KIFKEQ_clean_linker_1, # of connection points: 2
#     Edge 16, Type (0, 0), BuildingBlock: KIFKEQ_clean_linker_1, # of connection points: 2
#     Edge 17, Type (0, 0), BuildingBlock: KIFKEQ_clean_linker_1, # of connection points: 2
#     Edge 18, Type (0, 0), BuildingBlock: KIFKEQ_clean_linker_1, # of connection points: 2
#     Edge 19, Type (0, 0), BuildingBlock: KIFKEQ_clean_linker_1, # of connection points: 2
#     Edge 20, Type (0, 0), BuildingBlock: KIFKEQ_clean_linker_1, # of connection points: 2
#     Edge 21, Type (0, 0), BuildingBlock: KIFKEQ_clean_linker_1, # of connection points: 2
#     Edge 22, Type (0, 0), BuildingBlock: KIFKEQ_clean_linker_1, # of connection points: 2
#     Edge 23, Type (0, 0), BuildingBlock: KIFKEQ_clean_linker_1, # of connection points: 2
#     Edge 24, Type (0, 0), BuildingBlock: KIFKEQ_clean_linker_1, # of connection points: 2
#     Edge 25, Type (0, 0), BuildingBlock: KIFKEQ_clean_linker_1, # of connection points: 2
#     Edge 26, Type (0, 0), BuildingBlock: KIFKEQ_clean_linker_1, # of connection points: 2
#     Edge 27, Type (0, 0), BuildingBlock: KIFKEQ_clean_linker_1, # of connection points: 2
#     Edge 28, Type (0, 0), BuildingBlock: KIFKEQ_clean_linker_1, # of connection points: 2
#     Edge 29, Type (0, 0), BuildingBlock: KIFKEQ_clean_linker_1, # of connection points: 2
#     Edge 30, Type (0, 0), BuildingBlock: KIFKEQ_clean_linker_1, # of connection points: 2
#     Edge 31, Type (0, 0), BuildingBlock: KIFKEQ_clean_linker_1, # of connection points: 2
#     Edge 32, Type (0, 0), BuildingBlock: KIFKEQ_clean_linker_1, # of connection points: 2
#     Edge 33, Type (0, 0), BuildingBlock: KIFKEQ_clean_linker_1, # of connection points: 2
#     Edge 34, Type (0, 0), BuildingBlock: KIFKEQ_clean_linker_1, # of connection points: 2
#     Edge 35, Type (0, 0), BuildingBlock: KIFKEQ_clean_linker_1, # of connection points: 2
#     Edge 36, Type (0, 0), BuildingBlock: KIFKEQ_clean_linker_1, # of connection points: 2
#     Edge 37, Type (0, 0), BuildingBlock: KIFKEQ_clean_linker_1, # of connection points: 2
#     Edge 38, Type (0, 0), BuildingBlock: KIFKEQ_clean_linker_1, # of connection points: 2
#     Edge 39, Type (0, 0), BuildingBlock: KIFKEQ_clean_linker_1, # of connection points: 2
#     Edge 40, Type (0, 0), BuildingBlock: KIFKEQ_clean_linker_1, # of connection points: 2
#     Edge 41, Type (0, 0), BuildingBlock: KIFKEQ_clean_linker_1, # of connection points: 2
#     Edge 42, Type (0, 0), BuildingBlock: KIFKEQ_clean_linker_1, # of connection points: 2
#     Edge 43, Type (0, 0), BuildingBlock: KIFKEQ_clean_linker_1, # of connection points: 2
#     Edge 44, Type (0, 0), BuildingBlock: KIFKEQ_clean_linker_1, # of connection points: 2
#     Edge 45, Type (0, 0), BuildingBlock: KIFKEQ_clean_linker_1, # of connection points: 2
#     Edge 46, Type (0, 0), BuildingBlock: KIFKEQ_clean_linker_1, # of connection points: 2
#     Edge 47, Type (0, 0), BuildingBlock: KIFKEQ_clean_linker_1, # of connection points: 2
# Relax obj value: 0.110
# Max RMSD: 0.285
# Mean RMSD: 0.284
data_MOF--net-lcy-e--node1-KUMJIN_clean_sbu_0--edge1-KIFKEQ_clean_linker_1
_symmetry_space_group_name_H-M    P1
_symmetry_Int_Tables_number       1
_symmetry_cell_setting            triclinic
loop_
_symmetry_equiv_pos_as_xyz
'x, y, z'
_cell_length_a     44.030935
_cell_length_b     43.996237
_cell_length_c     44.016057
_cell_angle_alpha  89.658678
_cell_angle_beta   90.27316
_cell_angle_gamma 90.478251
loop_
_atom_site_label
_atom_site_type_symbol
_atom_site_fract_x
_atom_site_fract_y
_atom_site_fract_z
_atom_type_partial_charge
Eu0 Eu 0.14701 0.21472 0.53699 0.0
C1 C 0.05806 0.26289 0.45486 0.0
C2 C 0.05811 0.22949 0.41126 0.0
C3 C 1.0104 0.24895 0.42993 0.0
C4 C 0.07388 0.24514 0.43457 0.0
C5 C 0.02618 0.26565 0.45209 0.0
C6 C 0.02634 0.23093 0.40953 0.0
C7 C 0.02796 0.30445 0.49039 0.0
N8 N 0.07387 0.27899 0.47597 0.0
C9 C 0.05944 0.30121 0.49204 0.0
C10 C 1.01113 0.28607 0.47084 0.0
Eu11 Eu 0.1274 0.27043 0.4787 0.0
N12 N 0.10466 0.24394 0.43687 0.0
C13 C 0.12091 0.22987 0.41461 0.0
C14 C 0.07473 0.21325 0.38994 0.0
C15 C 0.1063 0.2139 0.39135 0.0
H16 H 0.07193 0.31706 0.50606 0.0
H17 H 0.11947 0.20239 0.37426 0.0
H18 H 0.01393 0.21876 0.39204 0.0
H19 H 0.01677 0.32153 0.50383 0.0
H20 H 0.14516 0.23128 0.4138 0.0
H21 H 0.17372 0.29545 0.62699 0.0
H22 H 0.06346 0.20089 0.37183 0.0
H23 H 0.18488 0.15154 0.51905 0.0
H24 H 0.14071 0.26746 0.59112 0.0
H25 H 0.23624 0.12993 0.52625 0.0
H26 H 0.98593 0.25052 0.4278 0.0
H27 H 0.22836 0.28304 0.63067 0.0
H28 H 0.27119 0.24882 0.61566 0.0
H29 H 0.98674 0.28886 0.46935 0.0
H30 H 0.28819 0.20338 0.5884 0.0
N31 N 0.17644 0.24091 0.57354 0.0
C32 C 0.16451 0.26223 0.59226 0.0
C33 C 0.21399 0.27096 0.61467 0.0
C34 C 0.22555 0.2474 0.597 0.0
C35 C 0.18315 0.27796 0.61274 0.0
C36 C 0.20588 0.23248 0.57649 0.0
H37 H 0.27508 0.1584 0.55563 0.0
N38 N 0.19527 0.19211 0.54311 0.0
C39 C 0.2308 0.15177 0.53592 0.0
C40 C 0.21556 0.20711 0.56095 0.0
C41 C 0.20181 0.16396 0.53196 0.0
C42 C 0.25269 0.16797 0.55245 0.0
C43 C 0.24501 0.19568 0.56577 0.0
O44 O 0.13192 0.16814 0.54751 0.0
O45 O 0.11424 0.22626 0.49995 0.0
O46 O 0.10928 0.28517 0.5252 0.0
O47 O 0.10398 0.23892 0.54966 0.0
O48 O 0.13291 0.18317 0.49889 0.0
O49 O 0.12906 0.20249 0.58181 0.0
O50 O 0.12434 0.32004 0.47742 0.0
O51 O 0.15192 0.26449 0.52334 0.0
O52 O 0.18464 0.21386 0.50248 0.0
O53 O 0.1657 0.24045 0.4605 0.0
O54 O 0.17626 0.28266 0.48749 0.0
O55 O 0.14011 0.29567 0.43733 0.0
C56 C 0.11322 0.20101 0.48654 0.0
C57 C 0.13795 0.15193 0.5985 0.0
C58 C 0.13238 0.10645 0.63081 0.0
C59 C 0.12063 0.12649 0.60843 0.0
C60 C 0.16182 0.11185 0.64222 0.0
C61 C 0.16709 0.15668 0.61063 0.0
C62 C 0.17898 0.13666 0.63213 0.0
C63 C 0.09735 0.2679 0.54695 0.0
C64 C 0.12577 0.17367 0.57578 0.0
C65 C 0.26531 0.21154 0.58474 0.0
C66 C 0.25562 0.23742 0.60027 0.0
C67 C 0.17671 0.2779 0.51643 0.0
C68 C 0.13806 0.35118 0.43336 0.0
C69 C 0.14986 0.35263 0.40356 0.0
C70 C 0.15503 0.38103 0.38941 0.0
C71 C 0.14793 0.40776 0.40498 0.0
C72 C 0.13096 0.37832 0.44832 0.0
C73 C 0.1358 0.40636 0.43415 0.0
C74 C 0.18614 0.22269 0.47384 0.0
C75 C 0.13427 0.32183 0.44962 0.0
H76 H 0.09801 0.12272 0.59933 0.0
H77 H 0.1717 0.09669 0.65898 0.0
H78 H 0.18064 0.17605 0.60366 0.0
H79 H 0.20157 0.14051 0.6412 0.0
H80 H 0.15558 0.33197 0.39167 0.0
H81 H 0.15166 0.42978 0.39443 0.0
H82 H 0.12189 0.37794 0.47115 0.0
H83 H 0.13033 0.42712 0.44592 0.0
Eu84 Eu 1.00148 0.87258 0.73855 0.0
C85 C 0.08559 0.97164 0.79599 0.0
C86 C 0.12314 0.97966 0.75668 0.0
C87 C 0.11003 0.0211 0.79027 0.0
C88 C 0.10206 0.9607 0.77187 0.0
C89 C 0.08994 1.00175 0.806 0.0
C90 C 0.12657 1.01008 0.76561 0.0
C91 C 0.0563 0.99057 0.8479 0.0
N92 N 0.06648 0.95233 0.81069 0.0
C93 C 0.05282 0.96092 0.83712 0.0
C94 C 0.07463 1.01123 0.83204 0.0
Eu95 Eu 0.0611 0.90256 0.79087 0.0
N96 N 0.09816 0.93123 0.76383 0.0
C97 C 0.11624 0.91867 0.74217 0.0
C98 C 0.14051 0.96732 0.73333 0.0
C99 C 0.13735 0.93656 0.72636 0.0
H100 H 0.03873 0.94493 0.84951 0.0
H101 H 0.15103 0.92664 0.7087 0.0
H102 H 0.14242 0.02508 0.75402 0.0
H103 H 0.04494 0.99744 0.86846 0.0
H104 H 0.11398 0.89502 0.73632 0.0
H105 H 0.90404 0.84057 0.80861 0.0
H106 H 0.15681 0.98117 0.72099 0.0
H107 H 0.03089 0.83569 0.67957 0.0
H108 H 0.9416 0.87553 0.78602 0.0
H109 H 0.02825 0.78457 0.65644 0.0
H110 H 0.11344 0.04441 0.7974 0.0
H111 H 0.90308 0.78641 0.79387 0.0
H112 H 0.92291 0.74523 0.76019 0.0
H113 H 0.07742 0.03416 0.8405 0.0
H114 H 0.95631 0.73009 0.71833 0.0
N115 N 0.96331 0.84124 0.76022 0.0
C116 C 0.94191 0.8519 0.77971 0.0
C117 C 0.91997 0.8016 0.78416 0.0
C118 C 0.94047 0.79133 0.76237 0.0
C119 C 0.92038 0.83215 0.79248 0.0
C120 C 0.9621 0.81202 0.75056 0.0
H121 H 0.99519 0.74478 0.67907 0.0
N122 N 1.00028 0.82443 0.71516 0.0
C123 C 0.01497 0.78952 0.6764 0.0
C124 C 0.98094 0.80341 0.72708 0.0
C125 C 0.01639 0.81839 0.68947 0.0
C126 C 0.99632 0.7671 0.6893 0.0
C127 C 0.97866 0.77403 0.71467 0.0
O128 O 0.99261 0.88676 0.69165 0.0
O129 O 0.03718 0.9078 0.74674 0.0
O130 O 0.02181 0.93671 0.79079 0.0
O131 O 0.98192 0.90847 0.76874 0.0
O132 O 0.03668 0.88941 0.70412 0.0
O133 O 0.95728 0.89105 0.72515 0.0
O134 O 0.07424 0.88907 0.83698 0.0
O135 O 0.02239 0.86953 0.78553 0.0
O136 O 0.03439 0.83476 0.74701 0.0
O137 O 0.07721 0.86278 0.76092 0.0
O138 O 0.02807 0.89052 0.82766 0.0
O139 O 0.10575 0.88249 0.80048 0.0
C140 C 0.04883 0.91024 0.72081 0.0
C141 C 0.94233 0.882 0.67401 0.0
C142 C 0.91205 0.8884 0.6275 0.0
C143 C 0.93279 0.90014 0.64917 0.0
C144 C 0.90186 0.85814 0.63075 0.0
C145 C 0.93142 0.85211 0.67675 0.0
C146 C 0.91147 0.84024 0.65515 0.0
C147 C 0.99271 0.93231 0.78349 0.0
C148 C 0.96439 0.89381 0.69647 0.0
C149 C 0.95819 0.75289 0.72735 0.0
C150 C 0.93919 0.76151 0.7512 0.0
C151 C 1.01151 0.87179 0.81229 0.0
C152 C 0.12654 0.89304 0.84925 0.0
C153 C 0.14991 0.87389 0.86017 0.0
C154 C 0.17221 0.88533 0.88043 0.0
C155 C 0.1711 0.91595 0.88913 0.0
C156 C 0.12644 0.92364 0.85807 0.0
C157 C 0.14852 0.93496 0.87784 0.0
C158 C 0.06396 0.83739 0.75102 0.0
C159 C 0.10168 0.8811 0.82973 0.0
H160 H 0.94104 0.92333 0.64704 0.0
H161 H 0.88643 0.84819 0.61427 0.0
H162 H 0.93836 0.83789 0.69556 0.0
H163 H 0.90336 0.81704 0.65735 0.0
H164 H 0.15035 0.85022 0.85351 0.0
H165 H 0.18801 0.92529 0.9045 0.0
H166 H 0.10911 0.93882 0.85 0.0
H167 H 0.14801 0.95857 0.88458 0.0
Eu168 Eu 0.39809 0.75086 0.9852 0.0
C169 C 0.31657 0.83869 0.03156 0.0
C170 C 0.32056 0.87973 0.99469 0.0
C171 C 0.27142 0.86653 1.01586 0.0
C172 C 0.33428 0.85656 1.01234 0.0
C173 C 0.28504 0.84409 0.03396 0.0
C174 C 0.28911 0.88423 0.99622 0.0
C175 C 0.28274 0.80653 0.07393 0.0
N176 N 0.33006 0.81667 0.04853 0.0
C177 C 0.31393 0.80208 0.07091 0.0
C178 C 0.26809 0.82719 0.05495 0.0
Eu179 Eu 0.38304 0.80974 0.04097 0.0
N180 N 0.36471 0.85137 1.01073 0.0
C181 C 0.38268 0.87033 0.9935 0.0
C182 C 0.33879 0.89785 0.97596 0.0
C183 C 0.37 0.89335 0.97567 0.0
H184 H 0.32488 0.78714 0.08704 0.0
H185 H 0.38443 0.90777 0.96179 0.0
H186 H 0.27828 0.90164 0.98253 0.0
H187 H 0.27011 0.7943 0.09121 0.0
H188 H 0.40695 0.86861 0.99314 0.0
H189 H 0.41814 0.65904 0.06653 0.0
H190 H 0.32907 0.91572 0.96203 0.0
H191 H 0.43759 0.76325 0.92116 0.0
H192 H 0.38755 0.69564 0.03688 0.0
H193 H 0.48968 0.75543 0.90176 0.0
H194 H 0.24724 0.87066 0.01719 0.0
H195 H 0.47344 0.65542 0.05748 0.0
H196 H 0.51858 0.67062 0.02573 0.0
H197 H 0.2439 0.83071 0.05742 0.0
H198 H 0.5383 0.69725 0.9805 0.0
N199 N 0.42519 0.71334 1.0125 0.0
C200 C 0.41161 0.69435 0.033 0.0
C201 C 0.46011 0.67163 0.0446 0.0
C202 C 0.4734 0.68951 0.02177 0.0
C203 C 0.42889 0.6735 0.04968 0.0
C204 C 0.455 0.71024 1.00571 0.0
H205 H 0.52744 0.72834 0.93352 0.0
N206 N 0.44677 0.74273 0.96403 0.0
C207 C 0.48352 0.74721 0.92414 0.0
C208 C 0.46619 0.72546 0.98056 0.0
C209 C 0.45414 0.7516 0.93513 0.0
C210 C 0.50479 0.73202 0.94219 0.0
C211 C 0.49595 0.72003 0.97037 0.0
O212 O 0.38146 0.74101 0.93917 0.0
O213 O 0.36697 0.7887 0.99739 0.0
O214 O 0.36079 0.76422 0.05604 0.0
O215 O 0.35391 0.74172 1.00925 0.0
O216 O 0.38421 0.78891 0.9535 0.0
O217 O 0.37883 0.70622 0.97324 0.0
O218 O 0.37906 0.81316 0.09045 0.0
O219 O 0.40442 0.76383 0.03501 0.0
O220 O 0.43404 0.78708 0.97869 0.0
O221 O 0.42457 0.82523 1.01415 0.0
O222 O 0.43101 0.79726 0.05431 0.0
O223 O 0.39588 0.85222 0.06442 0.0
C224 C 0.365 0.80143 0.97156 0.0
C225 C 0.38538 0.69051 0.92211 0.0
C226 C 0.37716 0.65881 0.87686 0.0
C227 C 0.36627 0.68002 0.89826 0.0
C228 C 0.40757 0.64936 0.87925 0.0
C229 C 0.41528 0.67997 0.92406 0.0
C230 C 0.42634 0.65982 0.9026 0.0
C231 C 0.3477 0.74339 0.03838 0.0
C232 C 0.3746 0.71279 0.94466 0.0
C233 C 0.51518 0.70129 0.98765 0.0
C234 C 0.50393 0.68609 1.01338 0.0
C235 C 0.42948 0.76847 0.04901 0.0
C236 C 0.39191 0.85884 0.11979 0.0
C237 C 0.40575 0.88817 0.12101 0.0
C238 C 0.40721 0.90424 0.14886 0.0
C239 C 0.39484 0.89079 0.17503 0.0
C240 C 0.37996 0.84618 0.14661 0.0
C241 C 0.38141 0.86204 0.17389 0.0
C242 C 0.44003 0.81362 0.99129 0.0
C243 C 0.38884 0.84125 0.09103 0.0
H244 H 0.34304 0.68784 0.89675 0.0
H245 H 0.41696 0.63374 0.86292 0.0
H246 H 0.43017 0.68733 0.94221 0.0
H247 H 0.44958 0.65212 0.90416 0.0
H248 H 0.41517 0.8984 0.10065 0.0
H249 H 0.39572 0.90261 0.19655 0.0
H250 H 0.36916 0.82396 0.14651 0.0
H251 H 0.372 0.85198 0.19432 0.0
Eu252 Eu 0.53819 0.15028 0.23247 0.0
C253 C 0.44949 0.06046 0.28549 0.0
C254 C 0.40954 0.05911 0.24732 0.0
C255 C 0.42008 0.01398 0.27729 0.0
C256 C 0.43286 0.07502 0.26292 0.0
C257 C 0.44284 0.02985 0.29314 0.0
C258 C 0.40346 0.02858 0.25447 0.0
C259 C 0.47997 0.03308 0.33338 0.0
N260 N 0.47162 0.0762 0.30042 0.0
C261 C 0.48555 0.06332 0.3253 0.0
C262 C 0.45882 0.01611 0.31696 0.0
Eu263 Eu 0.47825 0.12825 0.28565 0.0
N264 N 0.43983 0.10434 0.25559 0.0
C265 C 0.42393 0.11892 0.23309 0.0
C266 C 0.3931 0.07422 0.22469 0.0
C267 C 0.40032 0.10426 0.21759 0.0
H268 H 0.5007 0.07649 0.33959 0.0
H269 H 0.38806 0.11603 0.19976 0.0
H270 H 0.38586 0.01604 0.2425 0.0
H271 H 0.49155 0.02308 0.35269 0.0
H272 H 0.42956 0.14158 0.226 0.0
H273 H 0.62929 0.17693 0.31373 0.0
H274 H 0.37508 0.06276 0.21228 0.0
H275 H 0.51824 0.19244 0.17056 0.0
H276 H 0.59562 0.14353 0.2846 0.0
H277 H 0.52302 0.24548 0.15259 0.0
H278 H 0.4149 0.99046 0.28275 0.0
H279 H 0.62838 0.23244 0.30517 0.0
H280 H 0.60943 0.27648 0.27462 0.0
H281 H 0.45431 0.99272 0.32347 0.0
H282 H 0.58052 0.29523 0.23061 0.0
N283 N 0.57419 0.1796 0.26009 0.0
C284 C 0.59449 0.1676 0.2804 0.0
C285 C 0.61319 0.21785 0.29228 0.0
C286 C 0.59401 0.22984 0.26989 0.0
C287 C 0.61388 0.18653 0.29708 0.0
C288 C 0.57453 0.20991 0.2538 0.0
H289 H 0.54924 0.28369 0.18447 0.0
N290 N 0.54047 0.20079 0.21293 0.0
C291 C 0.53245 0.23895 0.1744 0.0
C292 C 0.55742 0.22076 0.22943 0.0
C293 C 0.52989 0.20894 0.18463 0.0
C294 C 0.54718 0.26045 0.19251 0.0
C295 C 0.56055 0.25137 0.21998 0.0
O296 O 0.544 0.14241 0.18377 0.0
O297 O 0.49349 0.12444 0.2375 0.0
O298 O 0.52202 0.10098 0.29682 0.0
O299 O 0.55861 0.11364 0.26052 0.0
O300 O 0.52844 0.10346 0.21431 0.0
O301 O 0.583 0.14101 0.21419 0.0
O302 O 0.47051 0.128 0.33485 0.0
O303 O 0.52438 0.15105 0.28192 0.0
O304 O 0.49826 0.18219 0.22632 0.0
O305 O 0.45946 0.16852 0.25974 0.0
O306 O 0.49087 0.17486 0.30298 0.0
O307 O 0.43598 0.14535 0.3043 0.0
C308 C 0.50136 0.10019 0.22412 0.0
C309 C 0.59227 0.15417 0.16292 0.0
C310 C 0.6219 0.15122 0.11622 0.0
C311 C 0.6027 0.13746 0.13793 0.0
C312 C 0.62943 0.18222 0.11936 0.0
C313 C 0.60113 0.18466 0.16613 0.0
C314 C 0.61917 0.19871 0.14418 0.0
C315 C 0.5488 0.09716 0.28347 0.0
C316 C 0.5734 0.13912 0.18611 0.0
C317 C 0.57835 0.27154 0.23721 0.0
C318 C 0.59489 0.26084 0.26223 0.0
C319 C 0.51932 0.175 0.29698 0.0
C320 C 0.41874 0.12647 0.35144 0.0
C321 C 0.39463 0.14529 0.36032 0.0
C322 C 0.37024 0.13325 0.37719 0.0
C323 C 0.37036 0.1024 0.38549 0.0
C324 C 0.41849 0.09577 0.36024 0.0
C325 C 0.39446 0.08387 0.37722 0.0
C326 C 0.47135 0.18635 0.23866 0.0
C327 C 0.44324 0.1393 0.33239 0.0
H328 H 0.59672 0.11359 0.13602 0.0
H329 H 0.64353 0.19372 0.10272 0.0
H330 H 0.59449 0.19755 0.18572 0.0
H331 H 0.62559 0.22237 0.14663 0.0
H332 H 0.39455 0.16906 0.35364 0.0
H333 H 0.35189 0.09272 0.39865 0.0
H334 H 0.43668 0.0809 0.35404 0.0
H335 H 0.39447 0.06015 0.38388 0.0
Eu336 Eu 0.63409 0.24791 0.55016 0.0
C337 C 0.73217 0.33505 0.50323 0.0
C338 C 0.73279 0.37256 0.54327 0.0
C339 C 0.77916 0.36172 0.51594 0.0
C340 C 0.71711 0.35074 0.5256 0.0
C341 C 0.76327 0.3408 0.49775 0.0
C342 C 0.76392 0.37764 0.5386 0.0
C343 C 0.76005 0.30717 0.45474 0.0
N344 N 0.71618 0.31512 0.48593 0.0
C345 C 0.72925 0.30249 0.46087 0.0
C346 C 0.77728 0.32604 0.47358 0.0
Eu347 Eu 0.66402 0.30764 0.49789 0.0
N348 N 0.6871 0.34495 0.52992 0.0
C349 C 0.67109 0.36177 0.55035 0.0
C350 C 0.71668 0.38887 0.56496 0.0
C351 C 0.68563 0.38367 0.56826 0.0
H352 H 0.71587 0.28855 0.44559 0.0
H353 H 0.67284 0.39638 0.58478 0.0
H354 H 0.77635 0.39406 0.55217 0.0
H355 H 0.77037 0.29646 0.43532 0.0
H356 H 0.64721 0.35819 0.55379 0.0
H357 H 0.59737 0.15237 0.4796 0.0
H358 H 0.72792 0.40572 0.57902 0.0
H359 H 0.59888 0.2791 0.60943 0.0
H360 H 0.6339 0.18872 0.50139 0.0
H361 H 0.54811 0.27814 0.63335 0.0
H362 H 0.8031 0.36621 0.51226 0.0
H363 H 0.54378 0.15252 0.49615 0.0
H364 H 0.50417 0.17309 0.53115 0.0
H365 H 0.80111 0.32983 0.46867 0.0
H366 H 0.49088 0.20684 0.57335 0.0
N367 N 0.60117 0.21085 0.52885 0.0
C368 C 0.61058 0.18952 0.50863 0.0
C369 C 0.5597 0.16886 0.50561 0.0
C370 C 0.55066 0.18932 0.52798 0.0
C371 C 0.58992 0.16865 0.49627 0.0
C372 C 0.57225 0.21021 0.53945 0.0
H373 H 0.50722 0.24572 0.61189 0.0
N374 N 0.5864 0.24812 0.57458 0.0
C375 C 0.55245 0.26437 0.61357 0.0
C376 C 0.56473 0.22912 0.56329 0.0
C377 C 0.58113 0.26483 0.60007 0.0
C378 C 0.52942 0.24606 0.60136 0.0
C379 C 0.5355 0.22783 0.57617 0.0
O380 O 0.64714 0.2379 0.59723 0.0
O381 O 0.6712 0.28233 0.54146 0.0
O382 O 0.69206 0.2637 0.48971 0.0
O383 O 0.66842 0.2264 0.51999 0.0
O384 O 0.65224 0.28263 0.58414 0.0
O385 O 0.65167 0.20323 0.56301 0.0
O386 O 0.66917 0.33087 0.45398 0.0
O387 O 0.63096 0.26936 0.50339 0.0
O388 O 0.59597 0.28039 0.54179 0.0
O389 O 0.62131 0.3236 0.52398 0.0
O390 O 0.64806 0.27727 0.45999 0.0
O391 O 0.63477 0.34587 0.48492 0.0
C392 C 0.67379 0.29363 0.5676 0.0
C393 C 0.64166 0.18698 0.61364 0.0
C394 C 0.64679 0.1566 0.6603 0.0
C395 C 0.65836 0.17871 0.6399 0.0
C396 C 0.61811 0.14357 0.65437 0.0
C397 C 0.61312 0.17357 0.60842 0.0
C398 C 0.60142 0.15212 0.62874 0.0
C399 C 0.689 0.23521 0.50009 0.0
C400 C 0.65387 0.20966 0.5919 0.0
C401 C 0.51356 0.20799 0.56394 0.0
C402 C 0.52111 0.1888 0.53987 0.0
C403 C 0.63012 0.26025 0.4759 0.0
C404 C 0.6273 0.35755 0.43244 0.0
C405 C 0.62324 0.38814 0.42301 0.0
C406 C 0.60541 0.3952 0.39704 0.0
C407 C 0.59147 0.37109 0.38119 0.0
C408 C 0.61287 0.33421 0.41618 0.0
C409 C 0.5951 0.341 0.39076 0.0
C410 C 0.59702 0.30971 0.53571 0.0
C411 C 0.64742 0.35019 0.45854 0.0
H412 H 0.68044 0.18898 0.6441 0.0
H413 H 0.60844 0.12685 0.66978 0.0
H414 H 0.59991 0.17957 0.58857 0.0
H415 H 0.57933 0.14196 0.62453 0.0
H416 H 0.63444 0.40626 0.43544 0.0
H417 H 0.5773 0.37552 0.3615 0.0
H418 H 0.61546 0.3107 0.42299 0.0
H419 H 0.58408 0.32281 0.37832 0.0
Eu420 Eu 0.97531 0.40426 0.75138 0.0
C421 C 0.02346 0.32004 0.83975 0.0
C422 C 0.98647 0.32255 0.88032 0.0
C423 C 1.00917 0.27421 0.86785 0.0
C424 C 1.00371 0.33701 0.85725 0.0
C425 C 0.02682 0.28856 0.84547 0.0
C426 C 0.98897 0.29113 0.88514 0.0
C427 C 0.06704 0.28786 0.80861 0.0
N428 N 0.0401 0.33424 0.8179 0.0
C429 C 0.0631 0.31897 0.80387 0.0
C430 C 0.0484 0.27242 0.82906 0.0
Eu431 Eu 0.03112 0.38711 0.81063 0.0
N432 N 1.00124 0.36743 0.85186 0.0
C433 C 0.98326 0.38468 0.87027 0.0
C434 C 0.96717 0.34004 0.89806 0.0
C435 C 0.96583 0.37124 0.8932 0.0
H436 H 0.07894 0.33058 0.78906 0.0
H437 H 0.95136 0.38509 0.90721 0.0
H438 H 0.97563 0.27973 0.90249 0.0
H439 H 0.08477 0.2759 0.79677 0.0
H440 H 0.98181 0.40889 0.86802 0.0
H441 H 0.05784 0.42148 0.66068 0.0
H442 H 0.95353 0.32973 0.91583 0.0
H443 H 0.91339 0.4467 0.76314 0.0
H444 H 0.02657 0.39185 0.69686 0.0
H445 H 0.89683 0.49986 0.7552 0.0
H446 H 1.01128 0.25006 0.87225 0.0
H447 H 0.05143 0.47722 0.65662 0.0
H448 H 0.02191 0.52368 0.67124 0.0
H449 H 0.05162 0.2483 0.83283 0.0
H450 H 0.97777 0.54526 0.69735 0.0
N451 N 1.00372 0.4304 0.71383 0.0
C452 C 0.02374 0.41609 0.69534 0.0
C453 C 0.03779 0.46429 0.67261 0.0
C454 C 0.0155 0.47843 0.69003 0.0
C455 C 0.04138 0.43283 0.67473 0.0
C456 C 0.99841 0.46053 0.7105 0.0
H457 H 0.93039 0.53636 0.72817 0.0
N458 N 0.95645 0.4539 0.74257 0.0
C459 C 0.91873 0.49265 0.74699 0.0
C460 C 0.97388 0.47272 0.72539 0.0
C461 C 0.9281 0.46265 0.7514 0.0
C462 C 0.9378 0.51319 0.73183 0.0
C463 C 0.96534 0.50307 0.71993 0.0
O464 O 0.92826 0.39058 0.74121 0.0
O465 O 0.98735 0.3725 0.78911 0.0
O466 O 0.04477 0.36408 0.76593 0.0
O467 O 0.99842 0.36002 0.74112 0.0
O468 O 0.94353 0.38941 0.78901 0.0
O469 O 0.96243 0.38438 0.70747 0.0
O470 O 0.08076 0.38476 0.81295 0.0
O471 O 0.02533 0.4091 0.76467 0.0
O472 O 0.96969 0.43964 0.78799 0.0
O473 O 1.00492 0.42846 0.8264 0.0
O474 O 0.04479 0.43522 0.79822 0.0
O475 O 0.05516 0.39829 0.85313 0.0
C476 C 0.96169 0.37019 0.80169 0.0
C477 C 0.91199 0.39265 0.68995 0.0
C478 C 0.86735 0.38416 0.65703 0.0
C479 C 0.88733 0.37406 0.68027 0.0
C480 C 0.87213 0.41324 0.64438 0.0
C481 C 0.91596 0.4215 0.67681 0.0
C482 C 0.89608 0.43171 0.6543 0.0
C483 C 0.02697 0.35198 0.74469 0.0
C484 C 0.93361 0.38208 0.71359 0.0
C485 C 0.98363 0.52171 0.7014 0.0
C486 C 1.00874 0.50941 0.6865 0.0
C487 C 0.03994 0.43382 0.76933 0.0
C488 C 0.11061 0.39631 0.85863 0.0
C489 C 0.11138 0.40657 0.88912 0.0
C490 C 0.13943 0.40991 0.90455 0.0
C491 C 0.1664 0.40276 0.88945 0.0
C492 C 0.13807 0.38924 0.84426 0.0
C493 C 0.16567 0.39241 0.8596 0.0
C494 C 0.98246 0.44474 0.81472 0.0
C495 C 0.0817 0.39303 0.84137 0.0
H496 H 0.8841 0.35172 0.6903 0.0
H497 H 0.85708 0.42187 0.62687 0.0
H498 H 0.93456 0.43611 0.68387 0.0
H499 H 0.89933 0.45406 0.64436 0.0
H500 H 0.0905 0.41221 0.90064 0.0
H501 H 0.18814 0.40518 0.90088 0.0
H502 H 0.13827 0.38126 0.82102 0.0
H503 H 0.18665 0.38691 0.84824 0.0
Eu504 Eu 0.89122 0.78775 0.05724 0.0
C505 C 0.80146 0.70493 1.00525 0.0
C506 C 0.80044 0.66306 0.0414 0.0
C507 C 0.75388 0.67837 1.01627 0.0
C508 C 0.81667 0.68606 0.02553 0.0
C509 C 0.76997 0.70073 1.00003 0.0
C510 C 0.76906 0.6596 0.03689 0.0
C511 C 0.7726 0.73919 0.96098 0.0
N512 N 0.81736 0.72671 0.98997 0.0
C513 C 0.80365 0.74243 0.96672 0.0
C514 C 0.75555 0.71865 0.97809 0.0
Eu515 Eu 0.87019 0.73082 1.00146 0.0
N516 N 0.84705 0.69022 0.03007 0.0
C517 C 0.8624 0.67096 0.04925 0.0
C518 C 0.8161 0.64414 0.06151 0.0
C519 C 0.84723 0.64799 0.06526 0.0
H520 H 0.81647 0.75727 0.95186 0.0
H521 H 0.85964 0.63332 0.08065 0.0
H522 H 0.75635 0.64228 0.04911 0.0
H523 H 0.76195 0.75223 0.94298 0.0
H524 H 0.8863 0.67281 0.05315 0.0
H525 H 0.92381 0.87845 0.97855 0.0
H526 H 0.80439 0.62641 0.07414 0.0
H527 H 0.92734 0.76569 0.12088 0.0
H528 H 0.88862 0.84316 1.0047 0.0
H529 H 0.97866 0.76971 0.14395 0.0
H530 H 0.7297 0.67511 1.01272 0.0
H531 H 0.97817 0.87979 0.99312 0.0
H532 H 0.01951 0.86212 0.02854 0.0
H533 H 0.73148 0.71603 0.97344 0.0
H534 H 0.03443 0.83265 0.07384 0.0
N535 N 0.92285 0.82378 0.03264 0.0
C536 C 0.91227 0.84339 1.01102 0.0
C537 C 0.96283 0.86409 1.00448 0.0
C538 C 0.97306 0.8454 0.02819 0.0
C539 C 0.93216 0.86349 0.99626 0.0
C540 C 0.95218 0.82532 0.04213 0.0
H541 H 0.01918 0.7986 0.11742 0.0
N542 N 0.93938 0.79098 0.08135 0.0
C543 C 0.97397 0.78056 0.12232 0.0
C544 C 0.96067 0.8086 0.06746 0.0
C545 C 0.945 0.77839 0.10931 0.0
C546 C 0.9968 0.79683 0.10723 0.0
C547 C 0.99013 0.81168 0.07979 0.0
O548 O 0.87583 0.79753 0.1035 0.0
O549 O 0.85617 0.75244 0.04511 0.0
O550 O 0.85121 0.77749 0.98632 0.0
O551 O 0.85074 0.80514 0.03103 0.0
O552 O 0.87459 0.75016 0.08852 0.0
O553 O 0.87597 0.83317 0.06989 0.0
O554 O 0.86786 0.72833 0.95179 0.0
O555 O 0.8954 0.77506 1.00751 0.0
O556 O 0.92835 0.75265 0.05761 0.0
O557 O 0.90971 0.71173 0.02947 0.0
O558 O 0.91872 0.74014 0.98769 0.0
O559 O 0.88166 0.68839 0.97832 0.0
C560 C 0.85393 0.7393 0.07067 0.0
C561 C 0.88544 0.84733 0.121 0.0
C562 C 0.88226 0.87616 0.16845 0.0
C563 C 0.8693 0.8556 0.14737 0.0
C564 C 0.91175 0.88748 0.16311 0.0
C565 C 0.91469 0.85928 0.11629 0.0
C566 C 0.92779 0.87901 0.13732 0.0
C567 C 0.8421 0.80109 1.00264 0.0
C568 C 0.87191 0.82636 0.09845 0.0
C569 C 1.01154 0.83031 0.06497 0.0
C570 C 1.00304 0.84709 0.03917 0.0
C571 C 0.91985 0.76877 0.99358 0.0
C572 C 0.88047 0.68272 0.92304 0.0
C573 C 0.8946 0.65393 0.92287 0.0
C574 C 0.89882 0.63849 0.89524 0.0
C575 C 0.88864 0.65176 0.86804 0.0
C576 C 0.87048 0.69543 0.89543 0.0
C577 C 0.8745 0.67999 0.86819 0.0
C578 C 0.93003 0.72444 0.04785 0.0
C579 C 0.87677 0.70012 0.95149 0.0
H580 H 0.84662 0.84662 0.15109 0.0
H581 H 0.92252 0.90288 0.17906 0.0
H582 H 0.92738 0.85353 0.09623 0.0
H583 H 0.95043 0.88796 0.13351 0.0
H584 H 0.90259 0.64378 0.9439 0.0
H585 H 0.89161 0.64017 0.84662 0.0
H586 H 0.85959 0.71741 0.89485 0.0
H587 H 0.86671 0.69 0.84706 0.0
Eu588 Eu 0.49394 0.64255 0.30568 0.0
C589 C 0.58507 0.55503 0.25072 0.0
C590 C 0.62298 0.55552 0.29072 0.0
C591 C 0.61523 0.50993 0.26075 0.0
C592 C 0.59997 0.57017 0.27382 0.0
C593 C 0.59307 0.52497 0.24338 0.0
C594 C 0.63013 0.52518 0.28441 0.0
C595 C 0.55879 0.52778 0.20052 0.0
N596 N 0.56374 0.57015 0.23445 0.0
C597 C 0.55173 0.55754 0.20865 0.0
C598 C 0.5792 0.51121 0.21826 0.0
Eu599 Eu 0.55259 0.62062 0.2494 0.0
N600 N 0.59212 0.5993 0.27969 0.0
C601 C 0.60778 0.61563 0.30108 0.0
C602 C 0.63827 0.57185 0.31333 0.0
C603 C 0.63083 0.60215 0.3183 0.0
H604 H 0.53645 0.57048 0.19435 0.0
H605 H 0.6427 0.61511 0.33555 0.0
H606 H 0.64746 0.51345 0.2974 0.0
H607 H 0.54867 0.51775 0.18046 0.0
H608 H 0.60235 0.63892 0.30562 0.0
H609 H 0.39712 0.6672 0.23108 0.0
H610 H 0.656 0.5614 0.32685 0.0
H611 H 0.51053 0.68136 0.36934 0.0
H612 H 0.43383 0.63479 0.25767 0.0
H613 H 0.5062 0.73374 0.38896 0.0
H614 H 0.62141 0.48673 0.25569 0.0
H615 H 0.39764 0.72274 0.23932 0.0
H616 H 0.41755 0.76715 0.26922 0.0
H617 H 0.58478 0.48819 0.21184 0.0
H618 H 0.44756 0.78553 0.31279 0.0
N619 N 0.45601 0.67152 0.28044 0.0
C620 C 0.43454 0.6589 0.26173 0.0
C621 C 0.41397 0.70859 0.25112 0.0
C622 C 0.4342 0.72101 0.27236 0.0
C623 C 0.41349 0.67725 0.24655 0.0
C624 C 0.45491 0.70153 0.28717 0.0
H625 H 0.47993 0.77296 0.35832 0.0
N626 N 0.48848 0.69148 0.32743 0.0
C627 C 0.49667 0.72802 0.367 0.0
C628 C 0.47176 0.71188 0.31157 0.0
C629 C 0.49897 0.69841 0.35591 0.0
C630 C 0.48199 0.75012 0.34955 0.0
C631 C 0.46839 0.74194 0.32194 0.0
O632 O 0.48446 0.62965 0.35304 0.0
O633 O 0.52917 0.60848 0.29287 0.0
O634 O 0.51134 0.58904 0.24097 0.0
O635 O 0.47511 0.60544 0.27607 0.0
O636 O 0.52873 0.6216 0.33777 0.0
O637 O 0.45047 0.62167 0.31891 0.0
O638 O 0.56686 0.62516 0.20193 0.0
O639 O 0.51413 0.65318 0.25868 0.0
O640 O 0.53208 0.67613 0.31156 0.0
O641 O 0.5671 0.66452 0.27372 0.0
O642 O 0.51728 0.6332 0.21556 0.0
O643 O 0.5924 0.64837 0.23653 0.0
C644 C 0.54081 0.60329 0.31865 0.0
C645 C 0.43321 0.63163 0.36903 0.0
C646 C 0.4003 0.62477 0.41385 0.0
C647 C 0.42342 0.61398 0.39437 0.0
C648 C 0.38796 0.65361 0.40784 0.0
C649 C 0.42025 0.6602 0.3639 0.0
C650 C 0.39792 0.6711 0.38323 0.0
C651 C 0.48394 0.58795 0.25362 0.0
C652 C 0.45679 0.62053 0.34786 0.0
C653 C 0.45 0.76219 0.30551 0.0
C654 C 0.43291 0.75173 0.2807 0.0
C655 C 0.50204 0.65174 0.23206 0.0
C656 C 0.61982 0.63206 0.19311 0.0
C657 C 0.6405 0.65375 0.18077 0.0
C658 C 0.66708 0.64408 0.16567 0.0
C659 C 0.67278 0.61285 0.16344 0.0
C660 C 0.62653 0.60104 0.19062 0.0
C661 C 0.65276 0.59157 0.17595 0.0
C662 C 0.55763 0.68111 0.29683 0.0
C663 C 0.59101 0.64144 0.20784 0.0
H664 H 0.4333 0.59186 0.39852 0.0
H665 H 0.37067 0.66287 0.42247 0.0
H666 H 0.42734 0.67411 0.34481 0.0
H667 H 0.38818 0.69325 0.37906 0.0
H668 H 0.63578 0.6778 0.18254 0.0
H669 H 0.69298 0.6049 0.15208 0.0
H670 H 0.61136 0.58396 0.19973 0.0
H671 H 0.65751 0.56756 0.17414 0.0
Eu672 Eu 0.219 0.52551 0.15023 0.0
C673 C 0.27189 0.44138 0.06431 0.0
C674 C 0.23568 0.39953 0.0638 0.0
C675 C 0.26082 0.41458 0.01714 0.0
C676 C 0.25161 0.4226 0.07972 0.0
C677 C 0.27707 0.43707 0.03293 0.0
C678 C 0.24013 0.39593 0.0325 0.0
C679 C 0.31544 0.47633 0.03495 0.0
N680 N 0.28699 0.46343 0.07987 0.0
C681 C 0.30959 0.47986 0.06585 0.0
C682 C 0.29879 0.45517 0.01828 0.0
Eu683 Eu 0.2753 0.46804 0.13243 0.0
N684 N 0.2472 0.42685 0.11 0.0
C685 C 0.22849 0.40729 0.12573 0.0
C686 C 0.21567 0.38061 0.07971 0.0
C687 C 0.21231 0.38434 0.11083 0.0
H688 H 0.32406 0.49527 0.07841 0.0
H689 H 0.19725 0.36943 0.12348 0.0
H690 H 0.22785 0.37856 0.02001 0.0
H691 H 0.33313 0.48968 0.02411 0.0
H692 H 0.22542 0.4086 0.14982 0.0
H693 H 0.30177 0.61398 0.17894 0.0
H694 H 0.20298 0.36281 0.06825 0.0
H695 H 0.15438 0.50936 0.18745 0.0
H696 H 0.2731 0.57935 0.1453 0.0
H697 H 0.13329 0.51443 0.23926 0.0
H698 H 0.26434 0.41123 0.99304 0.0
H699 H 0.28929 0.61606 0.23367 0.0
H700 H 0.25529 0.59925 0.27646 0.0
H701 H 0.30345 0.45242 0.99431 0.0
H702 H 0.20949 0.57149 0.29313 0.0
N703 N 0.24595 0.56095 0.18059 0.0
C704 C 0.26785 0.57979 0.16908 0.0
C705 C 0.2769 0.60061 0.21898 0.0
C706 C 0.25314 0.58253 0.23027 0.0
C707 C 0.28397 0.59956 0.18811 0.0
C708 C 0.2378 0.56273 0.21019 0.0
H709 H 0.16341 0.54029 0.27924 0.0
N710 N 0.19657 0.53032 0.19886 0.0
C711 C 0.15569 0.52335 0.23417 0.0
C712 C 0.2123 0.54682 0.21968 0.0
C713 C 0.16761 0.52056 0.20494 0.0
C714 C 0.17282 0.53785 0.2567 0.0
C715 C 0.20108 0.55067 0.24935 0.0
O716 O 0.17334 0.53722 0.13419 0.0
O717 O 0.23184 0.48929 0.11757 0.0
O718 O 0.28982 0.51493 0.11313 0.0
O719 O 0.24352 0.53843 0.10708 0.0
O720 O 0.18736 0.48856 0.13253 0.0
O721 O 0.20844 0.57135 0.13377 0.0
O722 O 0.32472 0.46323 0.12863 0.0
O723 O 0.2687 0.51284 0.15566 0.0
O724 O 0.21313 0.4881 0.18514 0.0
O725 O 0.24676 0.44979 0.17143 0.0
O726 O 0.28696 0.47866 0.18122 0.0
O727 O 0.29834 0.42878 0.15192 0.0
C728 C 0.20632 0.47646 0.11393 0.0
C729 C 0.15817 0.58761 0.14266 0.0
C730 C 0.11342 0.62017 0.13808 0.0
C731 C 0.13416 0.59965 0.12508 0.0
C732 C 0.11662 0.62737 0.16909 0.0
C733 C 0.16129 0.59619 0.17314 0.0
C734 C 0.14043 0.6156 0.18633 0.0
C735 C 0.27269 0.53665 0.10111 0.0
C736 C 0.17965 0.56575 0.12955 0.0
C737 C 0.21748 0.56865 0.27008 0.0
C738 C 0.24351 0.58453 0.26057 0.0
C739 C 0.28235 0.50747 0.18062 0.0
C740 C 0.34371 0.41239 0.12955 0.0
C741 C 0.35453 0.38907 0.14881 0.0
C742 C 0.37076 0.36446 0.13683 0.0
C743 C 0.37656 0.3638 0.10547 0.0
C744 C 0.34985 0.41121 0.09834 0.0
C745 C 0.36631 0.3871 0.08646 0.0
C746 C 0.22503 0.4609 0.18869 0.0
C747 C 0.32514 0.43691 0.14243 0.0
H748 H 0.13204 0.59353 0.10134 0.0
H749 H 0.10066 0.64223 0.18015 0.0
H750 H 0.17987 0.58791 0.1868 0.0
H751 H 0.1428 0.62168 0.21002 0.0
H752 H 0.34967 0.3897 0.17293 0.0
H753 H 0.38924 0.3453 0.09569 0.0
H754 H 0.34184 0.42871 0.08306 0.0
H755 H 0.37098 0.38636 0.06236 0.0
Eu756 Eu 0.78317 0.06539 0.89449 0.0
C757 C 0.7009 1.00703 0.80673 0.0
C758 C 0.66022 0.04339 0.80041 0.0
C759 C 0.67681 0.014 0.75722 0.0
C760 C 0.68217 0.02894 0.81896 0.0
C761 C 0.69772 0.99878 0.77586 0.0
C762 C 0.65808 0.03622 0.76948 0.0
C763 C 0.73332 0.95835 0.78465 0.0
N764 N 0.72083 0.99242 0.82526 0.0
C765 C 0.73554 0.96711 0.815 0.0
C766 C 0.7148 0.97464 0.76481 0.0
Eu767 Eu 0.72399 1.00997 0.87644 0.0
N768 N 0.68472 0.0356 0.84901 0.0
C769 C 0.66421 0.05471 0.86213 0.0
C770 C 0.64063 0.06432 0.81352 0.0
C771 C 0.64235 0.06963 0.8446 0.0
H772 H 0.749 0.95324 0.8302 0.0
H773 H 0.62673 0.08518 0.85516 0.0
H774 H 0.64155 0.04731 0.75495 0.0
H775 H 0.7456 0.93875 0.77668 0.0
H776 H 0.66411 0.05893 0.8861 0.0
H777 H 0.87257 0.98424 0.92112 0.0
H778 H 0.62365 0.07595 0.8 0.0
H779 H 0.76311 0.12756 0.93321 0.0
H780 H 0.83586 1.01135 0.88843 0.0
H781 H 0.76994 0.14897 0.98478 0.0
H782 H 0.67436 1.00817 0.73344 0.0
H783 H 0.87802 0.99841 0.97524 0.0
H784 H 0.86352 0.03308 0.01793 0.0
H785 H 0.71289 0.96762 0.74132 0.0
H786 H 0.83543 0.07783 0.03531 0.0
N787 N 0.81991 0.03943 0.92374 0.0
C788 C 0.83788 0.01739 0.91197 0.0
C789 C 0.86174 1.01017 0.96098 0.0
C790 C 0.8443 0.03392 0.97251 0.0
C791 C 0.85878 1.00214 0.93044 0.0
C792 C 0.82335 0.04839 0.95302 0.0
H793 H 0.80086 0.12148 0.02298 0.0
N794 N 0.78886 0.08797 0.9429 0.0
C795 C 0.78044 0.12764 0.97897 0.0
C796 C 0.80746 0.07352 0.96287 0.0
C797 C 0.77669 0.11558 0.94987 0.0
C798 C 0.79786 0.112 1.0005 0.0
C799 C 0.81217 0.08494 0.99238 0.0
O800 O 0.79477 0.11212 0.8811 0.0
O801 O 0.74558 0.05378 0.86239 0.0
O802 O 0.76995 0.99545 0.85602 0.0
O803 O 0.79587 0.04116 0.85144 0.0
O804 O 0.7461 0.09766 0.87863 0.0
O805 O 0.82786 0.07667 0.876 0.0
O806 O 0.71552 0.96093 0.87824 0.0
O807 O 0.76965 0.01578 0.89887 0.0
O808 O 0.75006 0.06402 0.9332 0.0
O809 O 0.70633 0.04353 0.91151 0.0
O810 O 0.73623 0.99631 0.92446 0.0
O811 O 0.68265 0.99173 0.89718 0.0
C812 C 0.73311 0.07935 0.85969 0.0
C813 C 0.84631 0.12603 0.88726 0.0
C814 C 0.87856 0.17151 0.8838 0.0
C815 C 0.8554 0.1527 0.87171 0.0
C816 C 0.89176 0.16368 0.9119 0.0
C817 C 0.86005 0.11872 0.91514 0.0
C818 C 0.88246 0.13755 0.92745 0.0
C819 C 0.79208 1.01242 0.84417 0.0
C820 C 0.82275 0.10579 0.87434 0.0
C821 C 0.8318 0.06962 1.01241 0.0
C822 C 0.84781 0.04415 1.0025 0.0
C823 C 0.76494 1.00161 0.92362 0.0
C824 C 0.6638 0.94485 0.87906 0.0
C825 C 0.6423 0.93213 0.89921 0.0
C826 C 0.6186 0.91346 0.88817 0.0
C827 C 0.61643 0.90818 0.85675 0.0
C828 C 0.66095 0.93942 0.8478 0.0
C829 C 0.63738 0.92119 0.83677 0.0
C830 C 0.72073 0.0581 0.93356 0.0
C831 C 0.68899 0.96356 0.89104 0.0
H832 H 0.84502 0.15839 0.85006 0.0
H833 H 0.90927 0.17791 0.92195 0.0
H834 H 0.8537 0.0983 0.92732 0.0
H835 H 0.89283 0.13175 0.94904 0.0
H836 H 0.64436 0.93626 0.92339 0.0
H837 H 0.59827 0.89418 0.84756 0.0
H838 H 0.6769 0.94914 0.83187 0.0
H839 H 0.63538 0.91707 0.81262 0.0
Eu840 Eu 0.75448 0.97214 0.40496 0.0
C841 C 0.83952 0.03376 0.30913 0.0
C842 C 0.87567 0.99378 0.2992 0.0
C843 C 0.86372 0.03056 0.25965 0.0
C844 C 0.85504 1.00818 0.31878 0.0
C845 C 0.84421 0.04559 0.27963 0.0
C846 C 0.87943 1.00473 0.26943 0.0
C847 C 0.81182 0.08759 0.29243 0.0
N848 N 0.8209 0.04788 0.32897 0.0
C849 C 0.80789 0.07506 0.32139 0.0
C850 C 0.82976 0.07261 0.27131 0.0
Eu851 Eu 0.81464 0.0241 0.37714 0.0
N852 N 0.85091 0.99804 0.34766 0.0
C853 C 0.86867 0.97535 0.3592 0.0
C854 C 0.89244 0.96921 0.31033 0.0
C855 C 0.8893 0.96031 0.34063 0.0
H856 H 0.79375 0.08677 0.33742 0.0
H857 H 0.90265 0.94177 0.34967 0.0
H858 H 0.89492 0.99376 0.25398 0.0
H859 H 0.80097 0.10879 0.28641 0.0
H860 H 0.86649 0.96809 0.38252 0.0
H861 H 0.65916 0.04506 0.43335 0.0
H862 H 0.90837 0.95746 0.29595 0.0
H863 H 0.78342 0.91369 0.44412 0.0
H864 H 0.69672 0.02151 0.39974 0.0
H865 H 0.78053 0.89173 0.49601 0.0
H866 H 0.86735 0.03914 0.23682 0.0
H867 H 0.65697 0.03037 0.48766 0.0
H868 H 0.67565 0.99667 0.53 0.0
H869 H 0.83282 0.08242 0.24888 0.0
H870 H 0.70837 0.95471 0.54697 0.0
N871 N 0.71671 0.99488 0.4349 0.0
C872 C 0.69628 0.01513 0.42344 0.0
C873 C 0.67373 0.02015 0.47305 0.0
C874 C 0.69351 0.99793 0.4842 0.0
C875 C 0.67484 0.02845 0.44241 0.0
C876 C 0.71496 0.98543 0.46425 0.0
H877 H 0.74723 0.91514 0.53434 0.0
N878 N 0.7527 0.94935 0.45359 0.0
C879 C 0.76725 0.9115 0.4901 0.0
C880 C 0.73335 0.96179 0.47385 0.0
C881 C 0.7688 0.92388 0.46081 0.0
C882 C 0.74847 0.92484 0.5117 0.0
C883 C 0.73088 0.95003 0.50358 0.0
O884 O 0.74397 0.92517 0.39267 0.0
O885 O 0.79083 0.98014 0.37127 0.0
O886 O 0.77619 0.02676 0.34174 0.0
O887 O 0.73632 1.00131 0.36702 0.0
O888 O 0.78887 0.93701 0.38856 0.0
O889 O 0.71022 0.95999 0.38544 0.0
O890 O 0.82558 0.06268 0.40663 0.0
O891 O 0.77524 0.01929 0.409 0.0
O892 O 0.7869 0.9812 0.44324 0.0
O893 O 0.83039 0.99152 0.41552 0.0
O894 O 0.7801 0.06011 0.38476 0.0
O895 O 0.86183 0.03782 0.38637 0.0
C896 C 0.80179 0.95408 0.36843 0.0
C897 C 0.69278 0.9097 0.39515 0.0
C898 C 0.65917 0.86574 0.38721 0.0
C899 C 0.68141 0.88633 0.37628 0.0
C900 C 0.64926 0.86856 0.41744 0.0
C901 C 0.68218 0.91209 0.42498 0.0
C902 C 0.66067 0.89154 0.43607 0.0
C903 C 0.74733 0.01776 0.34434 0.0
C904 C 0.71626 0.93098 0.384 0.0
C905 C 0.71045 0.96326 0.52393 0.0
C906 C 0.69182 0.98718 0.51427 0.0
C907 C 0.76355 0.04548 0.40426 0.0
C908 C 0.87063 0.08999 0.39548 0.0
C909 C 0.89943 0.09614 0.40822 0.0
C910 C 0.9151 0.12324 0.4008 0.0
C911 C 0.90157 0.14405 0.38063 0.0
C912 C 0.85737 0.11143 0.37591 0.0
C913 C 0.87283 0.1382 0.36844 0.0
C914 C 0.81661 0.98371 0.44123 0.0
C915 C 0.8547 0.06123 0.4026 0.0
H916 H 0.6895 0.88449 0.35315 0.0
H917 H 0.63273 0.85279 0.42683 0.0
H918 H 0.6906 0.9298 0.43975 0.0
H919 H 0.65279 0.89341 0.45924 0.0
H920 H 0.90973 0.07978 0.42354 0.0
H921 H 0.91302 0.16514 0.37474 0.0
H922 H 0.83497 0.10761 0.36657 0.0
H923 H 0.86244 0.15456 0.35325 0.0
Eu924 Eu 0.30324 0.49278 0.65325 0.0
C925 C 0.24963 0.58042 0.56025 0.0
C926 C 0.28906 0.61907 0.56093 0.0
C927 C 0.26026 0.61007 0.51462 0.0
C928 C 0.27213 0.596 0.57572 0.0
C929 C 0.24292 0.58777 0.52971 0.0
C930 C 0.28333 0.62566 0.5302 0.0
C931 C 0.20082 0.55236 0.53196 0.0
N932 N 0.23339 0.55896 0.57543 0.0
C933 C 0.20833 0.54594 0.56219 0.0
C934 C 0.21848 0.57306 0.51548 0.0
Eu935 Eu 0.24718 0.54882 0.62669 0.0
N936 N 0.2774 0.58872 0.60526 0.0
C937 C 0.29829 0.60497 0.62177 0.0
C938 C 0.31113 0.63497 0.5775 0.0
C939 C 0.31554 0.62806 0.60813 0.0
H940 H 0.19409 0.53039 0.575 0.0
H941 H 0.3324 0.64038 0.62126 0.0
H942 H 0.29634 0.64304 0.51839 0.0
H943 H 0.18129 0.54151 0.52149 0.0
H944 H 0.30253 0.59994 0.6453 0.0
H945 H 0.22965 0.39877 0.68989 0.0
H946 H 0.32466 0.65276 0.56694 0.0
H947 H 0.36891 0.51335 0.68608 0.0
H948 H 0.25385 0.43338 0.65315 0.0
H949 H 0.39344 0.51125 0.73683 0.0
H950 H 0.25567 0.61578 0.49108 0.0
H951 H 0.24351 0.40141 0.74433 0.0
H952 H 0.27811 0.4226 0.78468 0.0
H953 H 0.21255 0.57812 0.49208 0.0
H954 H 0.32327 0.45333 0.79758 0.0
N955 N 0.28024 0.45681 0.68646 0.0
C956 C 0.26013 0.43508 0.67678 0.0
C957 C 0.2541 0.41692 0.72829 0.0
C958 C 0.27681 0.43729 0.7376 0.0
C959 C 0.24633 0.41526 0.69758 0.0
C960 C 0.28985 0.45699 0.71577 0.0
H961 H 0.36708 0.48574 0.77962 0.0
N962 N 0.32878 0.49051 0.70065 0.0
C963 C 0.37125 0.50104 0.73338 0.0
C964 C 0.31509 0.47434 0.7231 0.0
C965 C 0.35742 0.5021 0.70473 0.0
C966 C 0.35623 0.48675 0.7575 0.0
C967 C 0.3282 0.47238 0.75233 0.0
O968 O 0.34883 0.48404 0.6356 0.0
O969 O 0.29097 0.52607 0.61657 0.0
O970 O 0.2403 0.50622 0.59641 0.0
O971 O 0.27316 0.4708 0.61854 0.0
O972 O 0.33508 0.52818 0.63254 0.0
O973 O 0.31644 0.44737 0.63802 0.0
O974 O 0.19981 0.56358 0.62707 0.0
O975 O 0.25548 0.5117 0.66131 0.0
O976 O 0.30694 0.53066 0.68696 0.0
O977 O 0.27033 0.56547 0.67095 0.0
O978 O 0.21335 0.51321 0.63871 0.0
O979 O 0.23266 0.58689 0.655 0.0
C980 C 0.31659 0.53844 0.61221 0.0
C981 C 0.36869 0.43504 0.64332 0.0
C982 C 0.41547 0.40605 0.63539 0.0
C983 C 0.39228 0.42519 0.62404 0.0
C984 C 0.41501 0.39791 0.66637 0.0
C985 C 0.36875 0.42604 0.67391 0.0
C986 C 0.39189 0.40782 0.68536 0.0
C987 C 0.25217 0.47849 0.59859 0.0
C988 C 0.34438 0.4551 0.63178 0.0
C989 C 0.31385 0.45473 0.77484 0.0
C990 C 0.28813 0.43724 0.76749 0.0
C991 C 0.22913 0.49903 0.65899 0.0
C992 C 0.19272 0.61649 0.6347 0.0
C993 C 0.18263 0.63807 0.65604 0.0
C994 C 0.17187 0.66674 0.64621 0.0
C995 C 0.17102 0.67311 0.61485 0.0
C996 C 0.1916 0.62375 0.60363 0.0
C997 C 0.18081 0.65181 0.59384 0.0
C998 C 0.29226 0.55646 0.68974 0.0
C999 C 0.20489 0.58675 0.64474 0.0
H1000 H 0.3922 0.43185 0.6003 0.0
H1001 H 0.43268 0.38379 0.67603 0.0
H1002 H 0.35087 0.43308 0.689 0.0
H1003 H 0.39185 0.40121 0.70909 0.0
H1004 H 0.18358 0.63273 0.6801 0.0
H1005 H 0.16235 0.69455 0.60643 0.0
H1006 H 0.19892 0.60772 0.58678 0.0
H1007 H 0.17994 0.65704 0.56979 0.0
H1008 H 0.23281 0.30188 0.51071 0.0
H1009 H 0.14895 0.31433 0.55855 0.0
H1010 H 0.24969 0.35208 0.52593 0.0
H1011 H 0.16645 0.36381 0.57623 0.0
H1012 H 0.19307 0.46422 0.58134 0.0
H1013 H 0.17505 0.41453 0.56304 0.0
H1014 H 0.26785 0.38293 0.56206 0.0
H1015 H 0.28532 0.43238 0.57752 0.0
C1016 C 0.21852 0.31485 0.52576 0.0
C1017 C 0.18983 0.3036 0.53405 0.0
C1018 C 0.22812 0.34392 0.53452 0.0
C1019 C 0.20955 0.36262 0.55246 0.0
C1020 C 0.18132 0.35069 0.56195 0.0
C1021 C 0.17148 0.3218 0.55249 0.0
C1022 C 0.2095 0.44693 0.57584 0.0
C1023 C 0.24064 0.45242 0.58048 0.0
C1024 C 0.19921 0.4181 0.5661 0.0
C1025 C 0.21987 0.39414 0.56112 0.0
C1026 C 0.25101 0.40044 0.56483 0.0
C1027 C 0.26116 0.42907 0.57388 0.0
H1028 H 0.82778 0.03826 0.80129 0.0
H1029 H 0.81711 0.95636 0.85475 0.0
H1030 H 0.87902 0.02316 0.7877 0.0
H1031 H 0.86877 0.94126 0.84132 0.0
H1032 H 0.95682 0.96487 0.74664 0.0
H1033 H 0.90636 0.98329 0.75912 0.0
H1034 H 0.92247 0.96205 0.85371 0.0
H1035 H 0.97363 0.94422 0.84101 0.0
C1036 C 0.8361 0.01655 0.80941 0.0
C1037 C 0.81836 0.99846 0.829 0.0
C1038 C 0.86556 1.00806 0.80187 0.0
C1039 C 0.87816 0.98137 0.81397 0.0
C1040 C 0.85984 0.96229 0.83216 0.0
C1041 C 0.83004 0.9706 0.83933 0.0
C1042 C 0.9501 0.96555 0.77028 0.0
C1043 C 0.96918 0.95364 0.79295 0.0
C1044 C 0.92104 0.97564 0.77739 0.0
C1045 C 0.91022 0.97355 0.80729 0.0
C1046 C 0.93004 0.96341 0.83036 0.0
C1047 C 0.95947 0.95379 0.82325 0.0
H1048 H 0.30974 0.70651 1.00718 0.0
H1049 H 0.3469 0.71957 0.09723 0.0
H1050 H 0.29448 0.65546 0.02052 0.0
H1051 H 0.33112 0.66759 0.11089 0.0
H1052 H 0.32976 0.56154 0.11019 0.0
H1053 H 0.34532 0.61383 0.09775 0.0
H1054 H 0.26019 0.62708 0.05046 0.0
H1055 H 0.24527 0.57526 0.06207 0.0
C1056 C 0.31415 0.69871 0.03017 0.0
C1057 C 0.33048 0.71696 0.0508 0.0
C1058 C 0.30539 0.66922 0.03781 0.0
C1059 C 0.31211 0.65708 0.06658 0.0
C1060 C 0.32638 0.67601 0.0882 0.0
C1061 C 0.33516 0.70589 0.08048 0.0
C1062 C 0.31489 0.57536 0.0963 0.0
C1063 C 0.2863 0.56419 0.08703 0.0
C1064 C 0.32349 0.60553 0.08976 0.0
C1065 C 0.30382 0.62484 0.07348 0.0
C1066 C 0.27604 0.61294 0.0629 0.0
C1067 C 0.26751 0.58307 0.06943 0.0
H1068 H 0.57482 0.09542 0.34047 0.0
H1069 H 0.57624 0.05338 0.25225 0.0
H1070 H 0.62641 0.07725 0.35035 0.0
H1071 H 0.62714 0.03438 0.2624 0.0
H1072 H 0.709 0.98511 0.30971 0.0
H1073 H 0.65738 1.00037 0.29674 0.0
H1074 H 0.67811 0.0919 0.32551 0.0
H1075 H 0.73024 0.07653 0.33779 0.0
C1076 C 0.58568 0.08148 0.32365 0.0
C1077 C 0.57168 0.07605 0.29547 0.0
C1078 C 0.61537 0.07144 0.32909 0.0
C1079 C 0.63108 0.05517 0.30673 0.0
C1080 C 0.61574 0.04708 0.27994 0.0
C1081 C 0.58641 0.05753 0.27434 0.0
C1082 C 0.70297 1.00886 0.31163 0.0
C1083 C 0.72364 0.02979 0.32423 0.0
C1084 C 0.67327 0.01746 0.3048 0.0
C1085 C 0.66352 0.0471 0.31086 0.0
C1086 C 0.68488 0.06871 0.32123 0.0
C1087 C 0.71486 0.06016 0.32754 0.0
H1088 H 0.71129 0.18749 0.53161 0.0
H1089 H 0.70483 0.22371 0.4406 0.0
H1090 H 0.72629 0.13846 0.51183 0.0
H1091 H 0.72067 0.17442 0.42045 0.0
H1092 H 0.71352 0.07732 0.39073 0.0
H1093 H 0.6987 0.1246 0.41458 0.0
H1094 H 0.76304 0.10792 0.48706 0.0
H1095 H 0.7772 0.05997 0.46313 0.0
C1096 C 0.71405 0.18521 0.50728 0.0
C1097 C 0.70691 0.20962 0.48768 0.0
C1098 C 0.72258 0.15693 0.49591 0.0
C1099 C 0.7242 0.15202 0.46447 0.0
C1100 C 0.71899 0.17705 0.44483 0.0
C1101 C 0.71056 0.20558 0.45632 0.0
C1102 C 0.7235 0.08307 0.41247 0.0
C1103 C 0.74601 0.06447 0.42536 0.0
C1104 C 0.71558 0.11066 0.4258 0.0
C1105 C 0.7303 0.12081 0.45232 0.0
C1106 C 0.75117 0.10103 0.4666 0.0
C1107 C 0.75894 0.07316 0.45324 0.0
H1108 H 0.06782 0.48974 0.76611 0.0
H1109 H 0.0749 0.3986 0.7326 0.0
H1110 H 0.11731 0.50231 0.74364 0.0
H1111 H 0.1243 0.41 0.71162 0.0
H1112 H 0.19581 0.44975 0.64751 0.0
H1113 H 0.1499 0.43438 0.67341 0.0
H1114 H 0.17117 0.49659 0.74624 0.0
H1115 H 0.21738 0.51264 0.71909 0.0
C1116 C 0.07967 0.47247 0.75347 0.0
C1117 C 0.06676 0.44324 0.75051 0.0
C1118 C 0.10843 0.47946 0.74109 0.0
C1119 C 0.12542 0.45723 0.72575 0.0
C1120 C 0.11219 0.42812 0.72269 0.0
C1121 C 0.08351 0.42138 0.7348 0.0
C1122 C 0.19155 0.45906 0.66982 0.0
C1123 C 0.21099 0.48165 0.68165 0.0
C1124 C 0.1648 0.45046 0.6847 0.0
C1125 C 0.15615 0.4643 0.71205 0.0
C1126 C 0.17659 0.48565 0.72501 0.0
C1127 C 0.20365 0.49428 0.70993 0.0
H1128 H 0.79207 0.98967 0.9784 0.0
H1129 H 0.77515 0.95146 0.89006 0.0
H1130 H 0.81212 0.94084 0.99573 0.0
H1131 H 0.79305 0.90273 0.90721 0.0
H1132 H 0.84134 0.81831 0.94204 0.0
H1133 H 0.82885 0.8685 0.92215 0.0
H1134 H 0.79467 0.89384 1.01035 0.0
H1135 H 0.80951 0.84488 0.0305 0.0
C1136 C 0.79349 0.9711 0.96244 0.0
C1137 C 0.7833 0.97491 0.93248 0.0
C1138 C 0.80432 0.9428 0.97246 0.0
C1139 C 0.80394 0.91725 0.95308 0.0
C1140 C 0.79448 0.92158 0.92283 0.0
C1141 C 0.78437 0.94992 0.91276 0.0
C1142 C 0.83114 0.83461 0.95713 0.0
C1143 C 0.8272 0.82773 0.98807 0.0
C1144 C 0.82381 0.86355 0.9457 0.0
C1145 C 0.8114 0.886 0.96474 0.0
C1146 C 0.80536 0.87801 0.99512 0.0
C1147 C 0.81334 0.8495 1.00661 0.0
H1148 H 0.44409 0.55158 0.28327 0.0
H1149 H 0.46608 0.58626 0.1943 0.0
H1150 H 0.39453 0.5349 0.26503 0.0
H1151 H 0.41552 0.57216 0.17625 0.0
H1152 H 0.33202 0.51942 0.14613 0.0
H1153 H 0.38113 0.53656 0.16205 0.0
H1154 H 0.34664 0.55066 0.2527 0.0
H1155 H 0.29694 0.53127 0.23634 0.0
C1156 C 0.43844 0.55497 0.25951 0.0
C1157 C 0.45909 0.56976 0.24007 0.0
C1158 C 0.40961 0.54622 0.24918 0.0
C1159 C 0.40021 0.55275 0.21924 0.0
C1160 C 0.42162 0.56633 0.19939 0.0
C1161 C 0.45086 0.5743 0.2096 0.0
C1162 C 0.33419 0.52741 0.16906 0.0
C1163 C 0.30982 0.52519 0.18951 0.0
C1164 C 0.36294 0.53709 0.17846 0.0
C1165 C 0.36851 0.54506 0.20883 0.0
C1166 C 0.34373 0.54409 0.22921 0.0
C1167 C 0.31493 0.53364 0.21978 0.0
H1168 H 0.55621 0.14204 0.33398 0.0
H1169 H 0.52385 0.2327 0.31877 0.0
H1170 H 0.58 0.15783 0.38169 0.0
H1171 H 0.5475 0.24905 0.36662 0.0
H1172 H 0.56893 0.2647 0.46618 0.0
H1173 H 0.54215 0.24303 0.42214 0.0
H1174 H 0.62074 0.18878 0.40213 0.0
H1175 H 0.64698 0.21048 0.44569 0.0
C1176 C 0.55512 0.16558 0.34043 0.0
C1177 C 0.53916 0.18624 0.32206 0.0
C1178 C 0.56838 0.17469 0.368 0.0
C1179 C 0.56548 0.20474 0.3784 0.0
C1180 C 0.54981 0.2256 0.35974 0.0
C1181 C 0.53673 0.21641 0.33202 0.0
C1182 C 0.57975 0.24693 0.45329 0.0
C1183 C 0.60977 0.23857 0.46007 0.0
C1184 C 0.56475 0.23506 0.42754 0.0
C1185 C 0.57941 0.21443 0.40811 0.0
C1186 C 0.60853 0.20441 0.41643 0.0
C1187 C 0.62355 0.2166 0.44174 0.0
H1188 H 0.09867 0.32753 0.56625 0.0
H1189 H 0.06172 0.23873 0.58787 0.0
H1190 H 0.08429 0.34532 0.6169 0.0
H1191 H 0.04701 0.2566 0.63768 0.0
H1192 H 0.99574 0.31324 0.70861 0.0
H1193 H 1.01106 0.29449 0.65936 0.0
H1194 H 0.10127 0.33101 0.67353 0.0
H1195 H 0.08611 0.3493 0.72376 0.0
C1196 C 0.08717 0.31196 0.58154 0.0
C1197 C 0.08194 0.28153 0.5733 0.0
C1198 C 0.07925 0.32205 0.61059 0.0
C1199 C 0.06519 0.30207 0.63137 0.0
C1200 C 0.05806 0.27239 0.62222 0.0
C1201 C 0.06634 0.26225 0.59358 0.0
C1202 C 0.01908 0.31677 0.70164 0.0
C1203 C 0.03947 0.33353 0.71979 0.0
C1204 C 0.02777 0.30616 0.6733 0.0
C1205 C 0.05707 0.31202 0.66234 0.0
C1206 C 0.07825 0.32695 0.68121 0.0
C1207 C 0.06964 0.33718 0.71003 0.0
H1208 H 0.96219 0.89071 0.84157 0.0
H1209 H 0.01465 0.8106 0.82461 0.0
H1210 H 0.9398 0.86692 0.88598 0.0
H1211 H 0.99167 0.78584 0.86923 0.0
H1212 H 0.89076 0.80963 0.95686 0.0
H1213 H 0.90812 0.83058 0.90877 0.0
H1214 H 0.99592 0.78987 0.92374 0.0
H1215 H 0.97764 0.76817 0.97178 0.0
C1216 C 0.96783 0.86733 0.84657 0.0
C1217 C 0.98962 0.85235 0.82903 0.0
C1218 C 0.95512 0.85363 0.87234 0.0
C1219 C 0.96414 0.82447 0.88182 0.0
C1220 C 0.98451 0.80854 0.86308 0.0
C1221 C 0.99712 0.82236 0.83697 0.0
C1222 C 0.91391 0.80579 0.95031 0.0
C1223 C 0.9329 0.78788 0.96868 0.0
C1224 C 0.92398 0.81766 0.92246 0.0
C1225 C 0.95349 0.8118 0.91184 0.0
C1226 C 0.97286 0.79447 0.93065 0.0
C1227 C 0.96263 0.78255 0.95856 0.0
H1228 H 0.45299 0.63956 0.19857 0.0
H1229 H 0.51343 0.71299 0.22255 0.0
H1230 H 0.43595 0.66725 0.15423 0.0
H1231 H 0.49589 0.74179 0.1777 0.0
H1232 H 0.39553 0.73052 0.08483 0.0
H1233 H 0.40906 0.70738 0.1329 0.0
H1234 H 0.50102 0.74061 0.1225 0.0
H1235 H 0.48649 0.76485 0.07417 0.0
C1236 C 0.46155 0.66244 0.19516 0.0
C1237 C 0.48375 0.67437 0.21493 0.0
C1238 C 0.45192 0.67839 0.16936 0.0
C1239 C 0.46457 0.7069 0.16185 0.0
C1240 C 0.48579 0.71975 0.18242 0.0
C1241 C 0.49528 0.70365 0.20867 0.0
C1242 C 0.41868 0.73249 0.09235 0.0
C1243 C 0.4399 0.74891 0.07495 0.0
C1244 C 0.42661 0.71921 0.12024 0.0
C1245 C 0.45627 0.72198 0.13208 0.0
C1246 C 0.47782 0.73822 0.11457 0.0
C1247 C 0.46967 0.75165 0.08651 0.0
H1248 H 0.12764 0.3671 0.33554 0.0
H1249 H 0.21068 0.40275 0.37401 0.0
H1250 H 0.14516 0.38148 0.28452 0.0
H1251 H 0.22839 0.417 0.32325 0.0
H1252 H 0.25925 0.42383 0.22484 0.0
H1253 H 0.24374 0.39836 0.27201 0.0
H1254 H 0.1527 0.43228 0.25983 0.0
H1255 H 0.16813 0.45718 0.21263 0.0
C1256 C 0.14999 0.37723 0.3329 0.0
C1257 C 0.16794 0.38371 0.35851 0.0
C1258 C 0.15991 0.38573 0.30382 0.0
C1259 C 0.1881 0.40056 0.29985 0.0
C1260 C 0.20672 0.4054 0.32545 0.0
C1261 C 0.19662 0.39727 0.35449 0.0
C1262 C 0.23581 0.42536 0.23203 0.0
C1263 C 0.21495 0.44277 0.21526 0.0
C1264 C 0.22699 0.41098 0.25912 0.0
C1265 C 0.197 0.41331 0.26971 0.0
C1266 C 0.1759 0.42977 0.25222 0.0
C1267 C 0.18481 0.4444 0.22537 0.0
H1268 H 0.85342 0.89248 0.60856 0.0
H1269 H 0.94324 0.92652 0.58803 0.0
H1270 H 0.83336 0.91791 0.56395 0.0
H1271 H 0.92277 0.95336 0.54331 0.0
H1272 H 0.87589 0.96342 0.44618 0.0
H1273 H 0.90098 0.94379 0.49224 0.0
H1274 H 0.82182 0.96659 0.54477 0.0
H1275 H 0.79694 0.98525 0.49935 0.0
C1276 C 0.86891 0.90566 0.59457 0.0
C1277 C 0.9 0.90719 0.60179 0.0
C1278 C 0.85732 0.9206 0.56904 0.0
C1279 C 0.87635 0.93789 0.54988 0.0
C1280 C 0.90747 0.94005 0.55736 0.0
C1281 C 0.91915 0.92498 0.58317 0.0
C1282 C 0.86413 0.96453 0.46769 0.0
C1283 C 0.83423 0.97543 0.46895 0.0
C1284 C 0.87849 0.95335 0.49412 0.0
C1285 C 0.86324 0.95303 0.52226 0.0
C1286 C 0.83404 0.96561 0.52352 0.0
C1287 C 0.81977 0.97649 0.49734 0.0
H1288 H 0.34854 0.56173 0.7144 0.0
H1289 H 0.25789 0.59667 0.7236 0.0
H1290 H 0.36398 0.58705 0.76075 0.0
H1291 H 0.27393 0.62359 0.7702 0.0
H1292 H 0.33811 0.68785 0.83648 0.0
H1293 H 0.31398 0.66576 0.79087 0.0
H1294 H 0.34881 0.57771 0.81588 0.0
H1295 H 0.37228 0.59935 0.86101 0.0
C1296 C 0.33173 0.57457 0.72652 0.0
C1297 C 0.30166 0.57606 0.7158 0.0
C1298 C 0.3407 0.58942 0.75305 0.0
C1299 C 0.32005 0.60684 0.76965 0.0
C1300 C 0.29034 0.61014 0.75805 0.0
C1301 C 0.28118 0.59479 0.73137 0.0
C1302 C 0.33997 0.66366 0.83253 0.0
C1303 C 0.35769 0.6455 0.85214 0.0
C1304 C 0.3262 0.65103 0.80638 0.0
C1305 C 0.33001 0.62008 0.79939 0.0
C1306 C 0.34596 0.60174 0.82017 0.0
C1307 C 0.35945 0.6142 0.84611 0.0
H1308 H 0.68001 0.15403 0.09577 0.0
H1309 H 0.59444 0.10799 0.07982 0.0
H1310 H 0.70178 0.1288 0.05244 0.0
H1311 H 0.61692 0.08118 0.03683 0.0
H1312 H 0.66003 0.0716 0.93977 0.0
H1313 H 0.6349 0.0906 0.98535 0.0
H1314 H 0.71891 0.08138 0.03565 0.0
H1315 H 0.74386 0.06344 0.99034 0.0
C1316 C 0.66582 0.13838 0.08301 0.0
C1317 C 0.63532 0.13346 0.09099 0.0
C1318 C 0.67848 0.12349 0.05834 0.0
C1319 C 0.66117 0.10283 0.04106 0.0
C1320 C 0.6308 0.09721 0.04943 0.0
C1321 C 0.61802 0.11231 0.07424 0.0
C1322 C 0.67296 0.07351 0.96065 0.0
C1323 C 0.7041 0.06682 0.96125 0.0
C1324 C 0.65856 0.08422 0.98683 0.0
C1325 C 0.67501 0.0881 1.0141 0.0
C1326 C 0.70571 0.07963 1.0149 0.0
C1327 C 0.72006 0.06931 0.98885 0.0
H1328 H 0.65899 0.09852 0.67771 0.0
H1329 H 0.67298 0.19155 0.70516 0.0
H1330 H 0.6815 0.08083 0.72519 0.0
H1331 H 0.69567 0.17382 0.75311 0.0
H1332 H 0.74599 0.05833 0.80302 0.0
H1333 H 0.72844 0.07809 0.75416 0.0
H1334 H 0.67862 0.14808 0.80034 0.0
H1335 H 0.69635 0.12808 0.8494 0.0
C1336 C 0.66716 0.1152 0.69387 0.0
C1337 C 0.66404 0.14643 0.68774 0.0
C1338 C 0.68015 0.10506 0.72112 0.0
C1339 C 0.69011 0.12584 0.74327 0.0
C1340 C 0.68783 0.15716 0.73678 0.0
C1341 C 0.67515 0.16735 0.7092 0.0
C1342 C 0.73104 0.07776 0.80275 0.0
C1343 C 0.72174 0.09112 0.83008 0.0
C1344 C 0.72104 0.08917 0.77471 0.0
C1345 C 0.70194 0.11464 0.7732 0.0
C1346 C 0.69346 0.12859 0.80058 0.0
C1347 C 0.70338 0.11703 0.8287 0.0
H1348 H 0.22838 0.49151 0.05794 0.0
H1349 H 0.15828 0.43868 0.102 0.0
H1350 H 0.2094 0.47561 1.00849 0.0
H1351 H 0.13803 0.42372 0.0523 0.0
H1352 H 0.13129 0.37798 0.95728 0.0
H1353 H 0.14658 0.39362 1.00849 0.0
H1354 H 0.16953 0.48298 0.97376 0.0
H1355 H 0.15531 0.46666 0.92266 0.0
C1356 C 0.20894 0.4763 0.05701 0.0
C1357 C 0.19531 0.46564 0.08388 0.0
C1358 C 0.19765 0.46754 0.02856 0.0
C1359 C 0.1719 0.44846 0.02609 0.0
C1360 C 0.15809 0.43808 0.05312 0.0
C1361 C 0.16957 0.44673 0.08164 0.0
C1362 C 0.1389 0.40115 0.96091 0.0
C1363 C 0.14178 0.42126 0.93618 0.0
C1364 C 0.14778 0.41017 0.99023 0.0
C1365 C 0.15975 0.43953 0.99546 0.0
C1366 C 0.16115 0.45999 0.97071 0.0
C1367 C 0.15251 0.45088 0.94145 0.0
H1368 H 0.83187 0.90106 0.35745 0.0
H1369 H 0.79189 0.97802 0.3118 0.0
H1370 H 0.84798 0.88095 0.30824 0.0
H1371 H 0.80765 0.95818 0.26299 0.0
H1372 H 0.87538 0.93429 0.18779 0.0
H1373 H 0.8542 0.95178 0.23546 0.0
H1374 H 0.83032 0.85935 0.25948 0.0
H1375 H 0.85209 0.84173 0.21146 0.0
C1376 C 0.82649 0.91363 0.33691 0.0
C1377 C 0.81141 0.94157 0.33864 0.0
C1378 C 0.83551 0.90204 0.3087 0.0
C1379 C 0.82937 0.91803 0.28154 0.0
C1380 C 0.8133 0.94546 0.28335 0.0
C1381 C 0.80428 0.95692 0.31145 0.0
C1382 C 0.86543 0.91768 0.20314 0.0
C1383 C 0.86564 0.88659 0.19591 0.0
C1384 C 0.85312 0.92774 0.23048 0.0
C1385 C 0.84072 0.90701 0.25158 0.0
C1386 C 0.84006 0.87592 0.24398 0.0
C1387 C 0.8522 0.86583 0.21634 0.0
H1388 H 0.29281 0.52896 0.55491 0.0
H1389 H 0.36757 0.57223 0.60163 0.0
H1390 H 0.31326 0.54651 0.50613 0.0
H1391 H 0.38824 0.58968 0.55304 0.0
H1392 H 0.43246 0.59557 0.45937 0.0
H1393 H 0.41242 0.57298 0.50639 0.0
H1394 H 0.32109 0.59231 0.47631 0.0
H1395 H 0.34108 0.61426 0.42945 0.0
C1396 C 0.31346 0.5425 0.55478 0.0
C1397 C 0.32812 0.54987 0.58227 0.0
C1398 C 0.32531 0.55251 0.52676 0.0
C1399 C 0.35257 0.56959 0.52537 0.0
C1400 C 0.36747 0.57632 0.55295 0.0
C1401 C 0.35549 0.56652 0.58091 0.0
C1402 C 0.40811 0.59444 0.46258 0.0
C1403 C 0.38846 0.60692 0.4406 0.0
C1404 C 0.39655 0.58183 0.48974 0.0
C1405 C 0.36501 0.58101 0.49553 0.0
C1406 C 0.34542 0.59229 0.47284 0.0
C1407 C 0.35695 0.60508 0.44593 0.0
H1408 H 0.24156 0.20915 0.49763 0.0
H1409 H 0.19441 0.21816 0.41187 0.0
H1410 H 0.28656 0.19196 0.47136 0.0
H1411 H 0.23991 0.2016 0.38538 0.0
H1412 H 0.31116 0.12626 0.36094 0.0
H1413 H 0.26723 0.15243 0.38179 0.0
H1414 H 0.32717 0.20867 0.43592 0.0
H1415 H 0.37117 0.18237 0.41475 0.0
C1416 C 0.24068 0.20736 0.47315 0.0
C1417 C 0.21394 0.21427 0.45698 0.0
C1418 C 0.26674 0.198 0.45803 0.0
C1419 C 0.26683 0.19534 0.42626 0.0
C1420 C 0.24044 0.20314 0.40992 0.0
C1421 C 0.21434 0.21272 0.42512 0.0
C1422 C 0.31485 0.14463 0.37686 0.0
C1423 C 0.34438 0.15233 0.38635 0.0
C1424 C 0.28977 0.15971 0.3887 0.0
C1425 C 0.29369 0.1825 0.41065 0.0
C1426 C 0.32341 0.19102 0.41923 0.0
C1427 C 0.34856 0.17619 0.40701 0.0
H1428 H 0.12333 0.09129 0.69015 0.0
H1429 H 0.10214 0.06127 0.59934 0.0
H1430 H 0.10149 0.04469 0.71097 0.0
H1431 H 0.07964 0.01438 0.62025 0.0
H1432 H 0.08023 0.91928 0.66811 0.0
H1433 H 0.09673 0.96757 0.6453 0.0
H1434 H 0.0555 0.01606 0.71927 0.0
H1435 H 0.0392 0.96794 0.74183 0.0
C1436 C 0.1136 0.07482 0.67462 0.0
C1437 C 0.11469 0.07995 0.64305 0.0
C1438 C 0.10091 0.04807 0.68659 0.0
C1439 C 0.08898 0.02545 0.66737 0.0
C1440 C 0.08902 0.03104 0.63576 0.0
C1441 C 0.10157 0.05807 0.62375 0.0
C1442 C 0.07477 0.94031 0.67944 0.0
C1443 C 0.0592 0.93968 0.70724 0.0
C1444 C 0.084 0.96803 0.66627 0.0
C1445 C 0.07763 0.99589 0.68043 0.0
C1446 C 0.06128 0.99517 0.70787 0.0
C1447 C 0.05198 0.96749 0.72091 0.0
H1448 H 0.18368 0.87234 0.93976 0.0
H1449 H 0.21769 0.85709 0.84952 0.0
H1450 H 0.22957 0.84999 0.96153 0.0
H1451 H 0.26393 0.83468 0.87122 0.0
H1452 H 0.35667 0.83874 0.92275 0.0
H1453 H 0.30858 0.85486 0.89976 0.0
H1454 H 0.2593 0.80296 0.96725 0.0
H1455 H 0.30733 0.78677 0.98995 0.0
C1456 C 0.20077 0.86352 0.9246 0.0
C1457 C 0.19709 0.86627 0.89297 0.0
C1458 C 0.22709 0.85075 0.93705 0.0
C1459 C 0.25066 0.84082 0.91817 0.0
C1460 C 0.24641 0.84247 0.88643 0.0
C1461 C 0.2198 0.85491 0.87396 0.0
C1462 C 0.33551 0.83091 0.93266 0.0
C1463 C 0.33577 0.81227 0.95865 0.0
C1464 C 0.30797 0.83989 0.91937 0.0
C1465 C 0.28 0.83022 0.93163 0.0
C1466 C 0.28035 0.81111 0.95738 0.0
C1467 C 0.30789 0.80197 0.97051 0.0
H1468 H 0.50696 0.04252 0.24506 0.0
H1469 H 0.45824 0.09655 0.17952 0.0
H1470 H 0.48448 0.99621 0.22379 0.0
H1471 H 0.43578 0.0503 0.15776 0.0
H1472 H 0.37966 0.95956 0.14797 0.0
H1473 H 0.40066 1.00784 0.16653 0.0
H1474 H 0.48801 0.96542 0.17874 0.0
H1475 H 0.46666 0.91725 0.16053 0.0
C1476 C 0.49078 0.04447 0.22653 0.0
C1477 C 0.48304 0.07325 0.21504 0.0
C1478 C 0.47825 0.01791 0.21395 0.0
C1479 C 0.45828 0.01928 0.18884 0.0
C1480 C 0.45064 0.04821 0.1773 0.0
C1481 C 0.46324 0.07479 0.18996 0.0
C1482 C 0.40358 0.96093 0.15372 0.0
C1483 C 0.42169 0.9348 0.15217 0.0
C1484 C 0.41562 0.98855 0.16457 0.0
C1485 C 0.44602 0.99064 0.1746 0.0
C1486 C 0.46439 0.96469 0.1718 0.0
C1487 C 0.45236 0.93716 0.16081 0.0
H1488 H 0.82187 0.355 0.68915 0.0
H1489 H 0.85384 0.37104 0.598 0.0
H1490 H 0.77599 0.33031 0.66865 0.0
H1491 H 0.80842 0.34659 0.57752 0.0
H1492 H 0.68203 0.32649 0.61943 0.0
H1493 H 0.72971 0.34442 0.64213 0.0
H1494 H 0.77972 0.30057 0.57074 0.0
H1495 H 0.73193 0.28291 0.54811 0.0
C1496 C 0.81934 0.35281 0.66477 0.0
C1497 C 0.84149 0.36515 0.64524 0.0
C1498 C 0.79286 0.33897 0.65294 0.0
C1499 C 0.78805 0.33672 0.62128 0.0
C1500 C 0.81104 0.3478 0.60194 0.0
C1501 C 0.83718 0.36193 0.61371 0.0
C1502 C 0.70326 0.32066 0.60867 0.0
C1503 C 0.70311 0.30407 0.58147 0.0
C1504 C 0.73068 0.33074 0.6218 0.0
C1505 C 0.75883 0.32419 0.60831 0.0
C1506 C 0.75863 0.30657 0.58163 0.0
C1507 C 0.73118 0.29644 0.56857 0.0
H1508 H 0.01374 0.48114 0.85477 0.0
H1509 H 0.92508 0.46724 0.81483 0.0
H1510 H 0.99502 0.52632 0.88092 0.0
H1511 H 0.9067 0.51252 0.83985 0.0
H1512 H 0.8726 0.5829 0.90291 0.0
H1513 H 0.89384 0.53376 0.8886 0.0
H1514 H 0.97912 0.57799 0.8671 0.0
H1515 H 0.95774 0.6269 0.88185 0.0
C1516 C 0.99024 0.48764 0.85168 0.0
C1517 C 0.97102 0.47092 0.83229 0.0
C1518 C 0.97956 0.51361 0.86649 0.0
C1519 C 0.94932 0.52315 0.86253 0.0
C1520 C 0.92999 0.50577 0.84379 0.0
C1521 C 0.94069 0.48003 0.82895 0.0
C1522 C 0.89616 0.58181 0.89606 0.0
C1523 C 0.91368 0.60848 0.89375 0.0
C1524 C 0.90826 0.5538 0.88749 0.0
C1525 C 0.93812 0.55191 0.8763 0.0
C1526 C 0.95617 0.57848 0.8758 0.0
C1527 C 0.94399 0.6065 0.88427 0.0
H1528 H 0.79518 0.75073 0.05222 0.0
H1529 H 0.84713 0.70225 0.11982 0.0
H1530 H 0.74794 0.73161 0.07502 0.0
H1531 H 0.80012 0.6836 0.143 0.0
H1532 H 0.71141 0.67662 0.19474 0.0
H1533 H 0.75562 0.70182 0.17165 0.0
H1534 H 0.71945 0.68258 0.08243 0.0
H1535 H 0.67544 0.65729 0.10571 0.0
C1536 C 0.7965 0.73572 0.07177 0.0
C1537 C 0.82495 0.72723 0.08367 0.0
C1538 C 0.76942 0.7249 0.08496 0.0
C1539 C 0.77008 0.70607 0.11098 0.0
C1540 C 0.7986 0.69828 0.12323 0.0
C1541 C 0.8256 0.70879 0.10983 0.0
C1542 C 0.71253 0.67863 0.17023 0.0
C1543 C 0.68972 0.6655 0.15204 0.0
C1544 C 0.73806 0.69266 0.15694 0.0
C1545 C 0.74136 0.69403 0.12509 0.0
C1546 C 0.71769 0.68218 0.10696 0.0
C1547 C 0.69236 0.66783 0.12027 0.0
H1548 H 0.59212 0.4463 0.43039 0.0
H1549 H 0.60779 0.41682 0.33855 0.0
H1550 H 0.57828 0.49673 0.41132 0.0
H1551 H 0.59451 0.46712 0.31948 0.0
H1552 H 0.53236 0.54686 0.29328 0.0
H1553 H 0.55062 0.49794 0.31223 0.0
H1554 H 0.59426 0.54331 0.3877 0.0
H1555 H 0.57565 0.59211 0.36867 0.0
C1556 C 0.59315 0.45071 0.40618 0.0
C1557 C 0.60073 0.42725 0.38606 0.0
C1558 C 0.58518 0.4797 0.39515 0.0
C1559 C 0.58474 0.48614 0.36368 0.0
C1560 C 0.59369 0.463 0.34375 0.0
C1561 C 0.60149 0.43408 0.35474 0.0
C1562 C 0.5462 0.54638 0.31368 0.0
C1563 C 0.55322 0.57348 0.32904 0.0
C1564 C 0.55675 0.51828 0.32462 0.0
C1565 C 0.57418 0.51639 0.35157 0.0
C1566 C 0.58076 0.5436 0.36708 0.0
C1567 C 0.57026 0.57167 0.35608 0.0
H1568 H 0.40496 0.36775 0.18897 0.0
H1569 H 0.36107 0.30394 0.12868 0.0
H1570 H 0.4271 0.32534 0.21778 0.0
H1571 H 0.383 0.2617 0.15727 0.0
H1572 H 0.40991 0.19111 0.2282 0.0
H1573 H 0.3828 0.23503 0.20749 0.0
H1574 H 0.46663 0.2867 0.20656 0.0
H1575 H 0.4933 0.24309 0.22785 0.0
C1576 C 0.39969 0.34466 0.18221 0.0
C1577 C 0.38149 0.33909 0.15649 0.0
C1578 C 0.41249 0.3204 0.19853 0.0
C1579 C 0.40689 0.29012 0.18974 0.0
C1580 C 0.38758 0.28468 0.16481 0.0
C1581 C 0.37519 0.30886 0.1483 0.0
C1582 C 0.42249 0.21185 0.22361 0.0
C1583 C 0.45402 0.21329 0.22843 0.0
C1584 C 0.40699 0.237 0.21171 0.0
C1585 C 0.4226 0.26429 0.20502 0.0
C1586 C 0.45386 0.2661 0.2114 0.0
C1587 C 0.46931 0.24091 0.223 0.0
H1588 H 0.91325 0.36063 0.83892 0.0
H1589 H 0.98088 0.31327 0.78728 0.0
H1590 H 0.89182 0.3118 0.85584 0.0
H1591 H 0.95966 0.26463 0.804 0.0
H1592 H 0.93716 0.18748 0.87214 0.0
H1593 H 0.95637 0.23502 0.85081 0.0
H1594 H 0.86442 0.26595 0.83735 0.0
H1595 H 0.84514 0.21807 0.85908 0.0
C1596 C 0.92353 0.33975 0.83129 0.0
C1597 C 0.94926 0.34072 0.81261 0.0
C1598 C 0.91115 0.31181 0.84073 0.0
C1599 C 0.92409 0.28425 0.83139 0.0
C1600 C 0.94938 0.28536 0.812 0.0
C1601 C 0.96163 0.31324 0.80251 0.0
C1602 C 0.92103 0.20436 0.86446 0.0
C1603 C 0.88965 0.19915 0.86751 0.0
C1604 C 0.93204 0.23159 0.85208 0.0
C1605 C 0.91198 0.2545 0.84263 0.0
C1606 C 0.8805 0.24895 0.84483 0.0
C1607 C 0.86944 0.22144 0.85695 0.0
H1608 H 0.09486 0.67895 0.14102 0.0
H1609 H 0.07603 0.595 0.09396 0.0
H1610 H 0.05152 0.70221 0.11691 0.0
H1611 H 0.03328 0.61919 0.06773 0.0
H1612 H 0.93758 0.66264 0.05651 0.0
H1613 H 0.98311 0.63686 0.07483 0.0
H1614 H 0.03207 0.72247 0.07289 0.0
H1615 H 0.98644 0.74801 0.05617 0.0
C1616 C 0.08154 0.66545 0.12526 0.0
C1617 C 0.08873 0.63487 0.11994 0.0
C1618 C 0.0568 0.67903 0.11091 0.0
C1619 C 0.03863 0.66276 0.09013 0.0
C1620 C 0.0464 0.6324 0.08388 0.0
C1621 C 0.07118 0.61861 0.09861 0.0
C1622 C 0.95806 0.67588 0.06007 0.0
C1623 C 0.95804 0.70757 0.0559 0.0
C1624 C 0.98436 0.66105 0.07035 0.0
C1625 C 1.01137 0.67755 0.07609 0.0
C1626 C 1.0116 0.70899 0.06995 0.0
C1627 C 0.98533 0.72375 0.06027 0.0
H1628 H 0.68817 0.82632 0.34833 0.0
H1629 H 0.59956 0.84986 0.38209 0.0
H1630 H 0.66585 0.78161 0.32298 0.0
H1631 H 0.57765 0.8055 0.35733 0.0
H1632 H 0.56076 0.7039 0.35385 0.0
H1633 H 0.58586 0.74992 0.37103 0.0
H1634 H 0.62479 0.76301 0.28208 0.0
H1635 H 0.59826 0.71679 0.26427 0.0
C1636 C 0.66392 0.8223 0.34989 0.0
C1637 C 0.64574 0.8413 0.3678 0.0
C1638 C 0.65118 0.79672 0.33541 0.0
C1639 C 0.62011 0.78973 0.3387 0.0
C1640 C 0.60178 0.80988 0.35493 0.0
C1641 C 0.61437 0.8353 0.36918 0.0
C1642 C 0.57409 0.71678 0.33766 0.0
C1643 C 0.57647 0.70724 0.30737 0.0
C1644 C 0.58876 0.74309 0.34762 0.0
C1645 C 0.60678 0.76051 0.32775 0.0
C1646 C 0.61084 0.75014 0.29784 0.0
C1647 C 0.59571 0.72372 0.28768 0.0
H1648 H 0.53919 0.28816 0.53813 0.0
H1649 H 0.5915 0.3705 0.551 0.0
H1650 H 0.49447 0.31275 0.55779 0.0
H1651 H 0.54627 0.39538 0.57147 0.0
H1652 H 0.45124 0.43573 0.59266 0.0
H1653 H 0.49422 0.41478 0.56426 0.0
H1654 H 0.47819 0.32726 0.60649 0.0
H1655 H 0.43529 0.34774 0.63362 0.0
C1656 C 0.54116 0.31167 0.54508 0.0
C1657 C 0.56921 0.32714 0.54343 0.0
C1658 C 0.51539 0.32581 0.55654 0.0
C1659 C 0.51668 0.35596 0.56694 0.0
C1660 C 0.54431 0.37215 0.56368 0.0
C1661 C 0.5703 0.35789 0.55197 0.0
C1662 C 0.45669 0.4119 0.59539 0.0
C1663 C 0.43987 0.39347 0.61558 0.0
C1664 C 0.48154 0.39997 0.57939 0.0
C1665 C 0.48985 0.36924 0.58295 0.0
C1666 C 0.47242 0.35086 0.60264 0.0
C1667 C 0.44786 0.36272 0.61854 0.0
H1668 H 0.13425 0.65955 0.69566 0.0
H1669 H 0.18458 0.72755 0.64538 0.0
H1670 H 0.11116 0.6996 0.72604 0.0
H1671 H 0.16078 0.76743 0.67453 0.0
H1672 H 0.12565 0.83567 0.74082 0.0
H1673 H 0.15499 0.7933 0.72101 0.0
H1674 H 0.07373 0.73756 0.71922 0.0
H1675 H 0.04505 0.7791 0.74038 0.0
C1676 C 0.14073 0.68299 0.69139 0.0
C1677 C 0.16102 0.69032 0.66784 0.0
C1678 C 0.12721 0.70604 0.70854 0.0
C1679 C 0.13374 0.73698 0.70262 0.0
C1680 C 0.15525 0.74404 0.68008 0.0
C1681 C 0.16871 0.72109 0.66305 0.0
C1682 C 0.11419 0.81422 0.73664 0.0
C1683 C 0.08283 0.81109 0.74174 0.0
C1684 C 0.13096 0.78993 0.72501 0.0
C1685 C 0.11681 0.76188 0.71815 0.0
C1686 C 0.08566 0.75852 0.72442 0.0
C1687 C 0.06903 0.78265 0.73621 0.0
H1688 H 0.45955 0.81396 0.93306 0.0
H1689 H 0.47875 0.85352 0.02057 0.0
H1690 H 0.5047 0.8378 0.91226 0.0
H1691 H 0.52435 0.8783 0.9994 0.0
H1692 H 0.58481 0.94021 0.93298 0.0
H1693 H 0.54209 0.91734 0.96094 0.0
H1694 H 0.55936 0.83127 0.91789 0.0
H1695 H 0.60133 0.85413 0.88987 0.0
C1696 C 0.47373 0.82741 0.94802 0.0
C1697 C 0.46611 0.83098 0.9787 0.0
C1698 C 0.49962 0.84126 0.93605 0.0
C1699 C 0.51862 0.85938 0.95434 0.0
C1700 C 0.51029 0.8643 0.98476 0.0
C1701 C 0.48421 0.85017 0.99687 0.0
C1702 C 0.5797 0.91628 0.92999 0.0
C1703 C 0.596 0.89906 0.90884 0.0
C1704 C 0.55528 0.90319 0.94598 0.0
C1705 C 0.5469 0.87265 0.94111 0.0
C1706 C 0.56465 0.85507 0.92152 0.0
C1707 C 0.58877 0.86811 0.90553 0.0
H1708 H 0.96636 0.14032 0.37068 0.0
H1709 H 0.93175 0.12308 0.46075 0.0
H1710 H 0.01484 0.1571 0.39236 0.0
H1711 H 0.98035 0.1401 0.48259 0.0
H1712 H 0.05555 0.21317 0.50449 0.0
H1713 H 1.00824 0.19119 0.48485 0.0
H1714 H 0.05948 0.13634 0.42259 0.0
H1715 H 0.10692 0.1584 0.44245 0.0
C1716 C 0.96929 0.13988 0.39513 0.0
C1717 C 0.94535 0.13042 0.41405 0.0
C1718 C 0.99705 0.14934 0.40752 0.0
C1719 C 1.00135 0.14997 0.43915 0.0
C1720 C 0.97758 0.14001 0.45812 0.0
C1721 C 0.94992 0.13005 0.44567 0.0
C1722 C 0.05664 0.19646 0.48655 0.0
C1723 C 0.08474 0.18799 0.47431 0.0
C1724 C 0.02962 0.18364 0.47557 0.0
C1725 C 0.03017 0.16208 0.45215 0.0
C1726 C 0.05838 0.15311 0.44046 0.0
C1727 C 0.08545 0.16567 0.45175 0.0
loop_
_geom_bond_atom_site_label_1
_geom_bond_atom_site_label_2
_geom_bond_distance
_geom_bond_site_symmetry_2
_ccdc_geom_bond_type
Eu0 N31 2.657 . S
Eu0 N38 2.609 . S
Eu0 O44 2.558 . S
Eu0 O45 2.612 . S
Eu0 O47 2.339 . S
Eu0 O48 2.563 . S
Eu0 O49 2.419 . S
Eu0 O51 2.380 . S
Eu0 O52 2.432 . S
Eu0 C64 2.848 . S
C1 C4 1.429 . S
C1 C5 1.411 . S
C1 N8 1.377 . S
C2 C4 1.420 . S
C2 C6 1.423 . S
C2 C14 1.392 . S
C3 C5 1.420 1_655 S
C3 C6 1.351 1_655 S
C3 H26 0.931 . S
C4 C1 1.429 . S
C4 C2 1.420 . S
C4 N12 1.362 . S
C5 C1 1.411 . S
C5 C3 1.420 1_455 S
C5 C10 1.382 1_455 S
C6 C2 1.423 . S
C6 C3 1.351 1_455 S
C6 H18 0.930 . S
C7 C9 1.400 . S
C7 C10 1.373 1_455 S
C7 H19 0.930 . S
N8 C1 1.377 . S
N8 C9 1.321 . S
N8 Eu11 2.609 . S
C9 C7 1.400 . S
C9 N8 1.321 . S
C9 H16 0.930 . S
C10 C5 1.382 1_655 S
C10 C7 1.373 1_655 S
C10 H29 0.955 . S
Eu11 N8 2.609 . S
Eu11 N12 2.657 . S
Eu11 O45 2.380 . S
Eu11 O46 2.432 . S
Eu11 O50 2.558 . S
Eu11 O51 2.612 . S
Eu11 O53 2.339 . S
Eu11 O54 2.563 . S
Eu11 O55 2.419 . S
Eu11 C75 2.848 . S
N12 C4 1.362 . S
N12 Eu11 2.657 . S
N12 C13 1.334 . S
C13 N12 1.334 . S
C13 C15 1.413 . S
C13 H20 0.929 . S
C14 C2 1.392 . S
C14 C15 1.367 . S
C14 H22 0.930 . S
C15 C13 1.413 . S
C15 C14 1.367 . S
C15 H17 0.930 . S
H16 C9 0.930 . S
H17 C15 0.930 . S
H18 C6 0.930 . S
H19 C7 0.930 . S
H20 C13 0.929 . S
H21 C35 0.930 . S
H22 C14 0.930 . S
H23 C41 0.930 . S
H24 C32 0.929 . S
H25 C39 0.930 . S
H26 C3 0.931 . S
H27 C33 0.930 . S
H28 C66 0.930 . S
H29 C10 0.955 . S
H30 C65 0.931 . S
N31 Eu0 2.657 . S
N31 C32 1.334 . S
N31 C36 1.362 . S
C32 H24 0.929 . S
C32 N31 1.334 . S
C32 C35 1.413 . S
C33 H27 0.930 . S
C33 C34 1.392 . S
C33 C35 1.367 . S
C34 C33 1.392 . S
C34 C36 1.420 . S
C34 C66 1.423 . S
C35 H21 0.930 . S
C35 C32 1.413 . S
C35 C33 1.367 . S
C36 N31 1.362 . S
C36 C34 1.420 . S
C36 C40 1.429 . S
H37 C42 0.930 . S
N38 Eu0 2.609 . S
N38 C40 1.377 . S
N38 C41 1.321 . S
C39 H25 0.930 . S
C39 C41 1.400 . S
C39 C42 1.386 . S
C40 C36 1.429 . S
C40 N38 1.377 . S
C40 C43 1.411 . S
C41 H23 0.930 . S
C41 N38 1.321 . S
C41 C39 1.400 . S
C42 H37 0.930 . S
C42 C39 1.386 . S
C42 C43 1.395 . S
C43 C40 1.411 . S
C43 C42 1.395 . S
C43 C65 1.420 . S
O44 Eu0 2.558 . S
O44 C64 1.257 . S
O45 Eu0 2.612 . S
O45 Eu11 2.380 . S
O45 C56 1.276 . S
O46 Eu11 2.432 . S
O46 C63 1.264 . S
O47 Eu0 2.339 . S
O47 C63 1.254 . S
O48 Eu0 2.563 . S
O48 C56 1.235 . S
O49 Eu0 2.419 . S
O49 C64 1.249 . S
O50 Eu11 2.558 . S
O50 C75 1.257 . S
O51 Eu0 2.380 . S
O51 Eu11 2.612 . S
O51 C67 1.276 . S
O52 Eu0 2.432 . S
O52 C74 1.264 . S
O53 Eu11 2.339 . S
O53 C74 1.254 . S
O54 Eu11 2.563 . S
O54 C67 1.235 . S
O55 Eu11 2.419 . S
O55 C75 1.249 . S
C56 O45 1.276 . S
C56 O48 1.235 . S
C57 C59 1.393 . S
C57 C61 1.395 . S
C57 C64 1.492 . S
C58 C59 1.392 . S
C58 C60 1.386 . S
C59 C57 1.393 . S
C59 C58 1.392 . S
C59 H76 0.930 . S
C60 C58 1.386 . S
C60 C62 1.395 . S
C60 H77 0.930 . S
C61 C57 1.395 . S
C61 C62 1.379 . S
C61 H78 0.930 . S
C62 C60 1.395 . S
C62 C61 1.379 . S
C62 H79 0.930 . S
C63 O46 1.264 . S
C63 O47 1.254 . S
C64 Eu0 2.848 . S
C64 O44 1.257 . S
C64 O49 1.249 . S
C64 C57 1.492 . S
C65 H30 0.931 . S
C65 C43 1.420 . S
C65 C66 1.351 . S
C66 H28 0.930 . S
C66 C34 1.423 . S
C66 C65 1.351 . S
C67 O51 1.276 . S
C67 O54 1.235 . S
C68 C69 1.393 . S
C68 C72 1.395 . S
C68 C75 1.492 . S
C69 C68 1.393 . S
C69 C70 1.392 . S
C69 H80 0.930 . S
C70 C69 1.392 . S
C70 C71 1.386 . S
C71 C70 1.386 . S
C71 C73 1.395 . S
C71 H81 0.930 . S
C72 C68 1.395 . S
C72 C73 1.379 . S
C72 H82 0.930 . S
C73 C71 1.395 . S
C73 C72 1.379 . S
C73 H83 0.930 . S
C74 O52 1.264 . S
C74 O53 1.254 . S
C75 Eu11 2.848 . S
C75 O50 1.257 . S
C75 O55 1.249 . S
C75 C68 1.492 . S
H76 C59 0.930 . S
H77 C60 0.930 . S
H78 C61 0.930 . S
H79 C62 0.930 . S
H80 C69 0.930 . S
H81 C71 0.930 . S
H82 C72 0.930 . S
H83 C73 0.930 . S
Eu84 N115 2.657 . S
Eu84 N122 2.609 . S
Eu84 O128 2.558 . S
Eu84 O129 2.612 1_655 S
Eu84 O131 2.339 . S
Eu84 O132 2.563 1_655 S
Eu84 O133 2.419 . S
Eu84 O135 2.380 1_655 S
Eu84 O136 2.432 1_655 S
Eu84 C148 2.848 . S
C85 C88 1.429 . S
C85 C89 1.411 . S
C85 N92 1.377 . S
C86 C88 1.420 . S
C86 C90 1.423 . S
C86 C98 1.392 . S
C87 C89 1.432 . S
C87 C90 1.363 . S
C87 H110 0.907 1_565 S
C88 C85 1.429 . S
C88 C86 1.420 . S
C88 N96 1.362 . S
C89 C85 1.411 . S
C89 C87 1.432 . S
C89 C94 1.395 . S
C90 C86 1.423 . S
C90 C87 1.363 . S
C90 H102 0.930 . S
C91 C93 1.400 . S
C91 C94 1.386 . S
C91 H103 0.930 . S
N92 C85 1.377 . S
N92 C93 1.321 . S
N92 Eu95 2.609 . S
C93 C91 1.400 . S
C93 N92 1.321 . S
C93 H100 0.930 . S
C94 C89 1.395 . S
C94 C91 1.386 . S
C94 H113 0.930 1_565 S
Eu95 N92 2.609 . S
Eu95 N96 2.657 . S
Eu95 O129 2.380 . S
Eu95 O130 2.432 1_455 S
Eu95 O134 2.558 . S
Eu95 O135 2.612 . S
Eu95 O137 2.339 . S
Eu95 O138 2.563 . S
Eu95 O139 2.419 . S
Eu95 C159 2.848 . S
N96 C88 1.362 . S
N96 Eu95 2.657 . S
N96 C97 1.334 . S
C97 N96 1.334 . S
C97 C99 1.413 . S
C97 H104 0.929 . S
C98 C86 1.392 . S
C98 C99 1.367 . S
C98 H106 0.930 . S
C99 C97 1.413 . S
C99 C98 1.367 . S
C99 H101 0.930 . S
H100 C93 0.930 . S
H101 C99 0.930 . S
H102 C90 0.930 . S
H103 C91 0.930 . S
H104 C97 0.929 . S
H105 C119 0.930 . S
H106 C98 0.930 . S
H107 C125 0.930 1_455 S
H108 C116 0.929 . S
H109 C123 0.930 . S
H110 C87 0.907 1_545 S
H111 C117 0.930 . S
H112 C150 0.930 . S
H113 C94 0.930 1_545 S
H114 C149 0.931 . S
N115 Eu84 2.657 . S
N115 C116 1.334 . S
N115 C120 1.362 . S
C116 H108 0.929 . S
C116 N115 1.334 . S
C116 C119 1.413 . S
C117 H111 0.930 . S
C117 C118 1.392 . S
C117 C119 1.367 . S
C118 C117 1.392 . S
C118 C120 1.420 . S
C118 C150 1.423 . S
C119 H105 0.930 . S
C119 C116 1.413 . S
C119 C117 1.367 . S
C120 N115 1.362 . S
C120 C118 1.420 . S
C120 C124 1.429 . S
H121 C126 0.930 . S
N122 Eu84 2.609 . S
N122 C124 1.377 . S
N122 C125 1.321 . S
C123 H109 0.930 . S
C123 C125 1.400 . S
C123 C126 1.386 . S
C124 C120 1.429 . S
C124 N122 1.377 . S
C124 C127 1.411 . S
C125 H107 0.930 1_655 S
C125 N122 1.321 . S
C125 C123 1.400 . S
C126 H121 0.930 . S
C126 C123 1.386 . S
C126 C127 1.395 . S
C127 C124 1.411 . S
C127 C126 1.395 . S
C127 C149 1.420 . S
O128 Eu84 2.558 . S
O128 C148 1.257 . S
O129 Eu84 2.612 1_455 S
O129 Eu95 2.380 . S
O129 C140 1.276 . S
O130 Eu95 2.432 1_655 S
O130 C147 1.264 . S
O131 Eu84 2.339 . S
O131 C147 1.254 . S
O132 Eu84 2.563 1_455 S
O132 C140 1.235 . S
O133 Eu84 2.419 . S
O133 C148 1.249 . S
O134 Eu95 2.558 . S
O134 C159 1.257 . S
O135 Eu84 2.380 1_455 S
O135 Eu95 2.612 . S
O135 C151 1.276 . S
O136 Eu84 2.432 1_455 S
O136 C158 1.264 . S
O137 Eu95 2.339 . S
O137 C158 1.254 . S
O138 Eu95 2.563 . S
O138 C151 1.235 . S
O139 Eu95 2.419 . S
O139 C159 1.249 . S
C140 O129 1.276 . S
C140 O132 1.235 . S
C141 C143 1.393 . S
C141 C145 1.395 . S
C141 C148 1.492 . S
C142 C143 1.392 . S
C142 C144 1.386 . S
C143 C141 1.393 . S
C143 C142 1.392 . S
C143 H160 0.930 . S
C144 C142 1.386 . S
C144 C146 1.395 . S
C144 H161 0.930 . S
C145 C141 1.395 . S
C145 C146 1.379 . S
C145 H162 0.930 . S
C146 C144 1.395 . S
C146 C145 1.379 . S
C146 H163 0.930 . S
C147 O130 1.264 . S
C147 O131 1.254 . S
C148 Eu84 2.848 . S
C148 O128 1.257 . S
C148 O133 1.249 . S
C148 C141 1.492 . S
C149 H114 0.931 . S
C149 C127 1.420 . S
C149 C150 1.351 . S
C150 H112 0.930 . S
C150 C118 1.423 . S
C150 C149 1.351 . S
C151 O135 1.276 . S
C151 O138 1.235 . S
C152 C153 1.393 . S
C152 C156 1.395 . S
C152 C159 1.492 . S
C153 C152 1.393 . S
C153 C154 1.392 . S
C153 H164 0.930 . S
C154 C153 1.392 . S
C154 C155 1.386 . S
C155 C154 1.386 . S
C155 C157 1.395 . S
C155 H165 0.930 . S
C156 C152 1.395 . S
C156 C157 1.379 . S
C156 H166 0.930 . S
C157 C155 1.395 . S
C157 C156 1.379 . S
C157 H167 0.930 . S
C158 O136 1.264 . S
C158 O137 1.254 . S
C159 Eu95 2.848 . S
C159 O134 1.257 . S
C159 O139 1.249 . S
C159 C152 1.492 . S
H160 C143 0.930 . S
H161 C144 0.930 . S
H162 C145 0.930 . S
H163 C146 0.930 . S
H164 C153 0.930 . S
H165 C155 0.930 . S
H166 C156 0.930 . S
H167 C157 0.930 . S
Eu168 N199 2.657 . S
Eu168 N206 2.609 . S
Eu168 O212 2.558 . S
Eu168 O213 2.612 . S
Eu168 O215 2.339 . S
Eu168 O216 2.563 . S
Eu168 O217 2.419 . S
Eu168 O219 2.380 1_556 S
Eu168 O220 2.432 . S
Eu168 C232 2.848 . S
C169 C172 1.429 1_554 S
C169 C173 1.411 . S
C169 N176 1.377 . S
C170 C172 1.420 . S
C170 C174 1.423 . S
C170 C182 1.392 . S
C171 C173 1.420 . S
C171 C174 1.351 1_554 S
C171 H194 0.931 . S
C172 C169 1.429 1_556 S
C172 C170 1.420 . S
C172 N180 1.362 . S
C173 C169 1.411 . S
C173 C171 1.420 . S
C173 C178 1.395 . S
C174 C170 1.423 . S
C174 C171 1.351 1_556 S
C174 H186 0.930 . S
C175 C177 1.400 . S
C175 C178 1.386 . S
C175 H187 0.930 . S
N176 C169 1.377 . S
N176 C177 1.321 . S
N176 Eu179 2.609 . S
C177 C175 1.400 . S
C177 N176 1.321 . S
C177 H184 0.930 . S
C178 C173 1.395 . S
C178 C175 1.386 . S
C178 H197 0.930 . S
Eu179 N176 2.609 . S
Eu179 N180 2.657 1_554 S
Eu179 O213 2.380 1_554 S
Eu179 O214 2.432 . S
Eu179 O218 2.558 . S
Eu179 O219 2.612 . S
Eu179 O221 2.339 1_554 S
Eu179 O222 2.563 . S
Eu179 O223 2.419 . S
Eu179 C243 2.848 . S
N180 C172 1.362 . S
N180 Eu179 2.657 1_556 S
N180 C181 1.334 . S
C181 N180 1.334 . S
C181 C183 1.413 . S
C181 H188 0.929 . S
C182 C170 1.392 . S
C182 C183 1.367 . S
C182 H190 0.930 . S
C183 C181 1.413 . S
C183 C182 1.367 . S
C183 H185 0.930 . S
H184 C177 0.930 . S
H185 C183 0.930 . S
H186 C174 0.930 . S
H187 C175 0.930 . S
H188 C181 0.929 . S
H189 C203 0.930 . S
H190 C182 0.930 . S
H191 C209 0.930 . S
H192 C200 0.929 . S
H193 C207 0.930 . S
H194 C171 0.931 . S
H195 C201 0.930 . S
H196 C234 0.930 1_554 S
H197 C178 0.930 . S
H198 C233 0.931 . S
N199 Eu168 2.657 . S
N199 C200 1.334 1_556 S
N199 C204 1.362 . S
C200 H192 0.929 . S
C200 N199 1.334 1_554 S
C200 C203 1.413 . S
C201 H195 0.930 . S
C201 C202 1.419 . S
C201 C203 1.367 . S
C202 C201 1.419 . S
C202 C204 1.402 1_554 S
C202 C234 1.414 1_554 S
C203 H189 0.930 . S
C203 C200 1.413 . S
C203 C201 1.367 . S
C204 N199 1.362 . S
C204 C202 1.402 1_556 S
C204 C208 1.429 . S
H205 C210 0.930 . S
N206 Eu168 2.609 . S
N206 C208 1.377 . S
N206 C209 1.321 . S
C207 H193 0.930 . S
C207 C209 1.400 . S
C207 C210 1.386 . S
C208 C204 1.429 . S
C208 N206 1.377 . S
C208 C211 1.411 . S
C209 H191 0.930 . S
C209 N206 1.321 . S
C209 C207 1.400 . S
C210 H205 0.930 . S
C210 C207 1.386 . S
C210 C211 1.395 . S
C211 C208 1.411 . S
C211 C210 1.395 . S
C211 C233 1.420 . S
O212 Eu168 2.558 . S
O212 C232 1.257 . S
O213 Eu168 2.612 . S
O213 Eu179 2.380 1_556 S
O213 C224 1.276 . S
O214 Eu179 2.432 . S
O214 C231 1.264 . S
O215 Eu168 2.339 . S
O215 C231 1.254 1_556 S
O216 Eu168 2.563 . S
O216 C224 1.235 . S
O217 Eu168 2.419 . S
O217 C232 1.249 . S
O218 Eu179 2.558 . S
O218 C243 1.257 . S
O219 Eu168 2.380 1_554 S
O219 Eu179 2.612 . S
O219 C235 1.276 . S
O220 Eu168 2.432 . S
O220 C242 1.264 . S
O221 Eu179 2.339 1_556 S
O221 C242 1.254 . S
O222 Eu179 2.563 . S
O222 C235 1.235 . S
O223 Eu179 2.419 . S
O223 C243 1.249 . S
C224 O213 1.276 . S
C224 O216 1.235 . S
C225 C227 1.393 . S
C225 C229 1.395 . S
C225 C232 1.492 . S
C226 C227 1.392 . S
C226 C228 1.386 . S
C227 C225 1.393 . S
C227 C226 1.392 . S
C227 H244 0.930 . S
C228 C226 1.386 . S
C228 C230 1.395 . S
C228 H245 0.930 . S
C229 C225 1.395 . S
C229 C230 1.379 . S
C229 H246 0.930 . S
C230 C228 1.395 . S
C230 C229 1.379 . S
C230 H247 0.930 . S
C231 O214 1.264 . S
C231 O215 1.254 1_554 S
C232 Eu168 2.848 . S
C232 O212 1.257 . S
C232 O217 1.249 . S
C232 C225 1.492 . S
C233 H198 0.931 . S
C233 C211 1.420 . S
C233 C234 1.351 . S
C234 H196 0.930 1_556 S
C234 C202 1.414 1_556 S
C234 C233 1.351 . S
C235 O219 1.276 . S
C235 O222 1.235 . S
C236 C237 1.393 . S
C236 C240 1.395 . S
C236 C243 1.492 . S
C237 C236 1.393 . S
C237 C238 1.392 . S
C237 H248 0.930 . S
C238 C237 1.392 . S
C238 C239 1.386 . S
C239 C238 1.386 . S
C239 C241 1.395 . S
C239 H249 0.930 . S
C240 C236 1.395 . S
C240 C241 1.379 . S
C240 H250 0.930 . S
C241 C239 1.395 . S
C241 C240 1.379 . S
C241 H251 0.930 . S
C242 O220 1.264 . S
C242 O221 1.254 . S
C243 Eu179 2.848 . S
C243 O218 1.257 . S
C243 O223 1.249 . S
C243 C236 1.492 . S
H244 C227 0.930 . S
H245 C228 0.930 . S
H246 C229 0.930 . S
H247 C230 0.930 . S
H248 C237 0.930 . S
H249 C239 0.930 . S
H250 C240 0.930 . S
H251 C241 0.930 . S
Eu252 N283 2.657 . S
Eu252 N290 2.609 . S
Eu252 O296 2.558 . S
Eu252 O297 2.612 . S
Eu252 O299 2.339 . S
Eu252 O300 2.563 . S
Eu252 O301 2.419 . S
Eu252 O303 2.380 . S
Eu252 O304 2.432 . S
Eu252 C316 2.848 . S
C253 C256 1.429 . S
C253 C257 1.411 . S
C253 N260 1.377 . S
C254 C256 1.420 . S
C254 C258 1.423 . S
C254 C266 1.392 . S
C255 C257 1.419 . S
C255 C258 1.350 . S
C255 H278 0.932 1_545 S
C256 C253 1.429 . S
C256 C254 1.420 . S
C256 N264 1.362 . S
C257 C253 1.411 . S
C257 C255 1.419 . S
C257 C262 1.402 . S
C258 C254 1.423 . S
C258 C255 1.350 . S
C258 H270 0.930 . S
C259 C261 1.400 . S
C259 C262 1.393 . S
C259 H271 0.930 . S
N260 C253 1.377 . S
N260 C261 1.321 . S
N260 Eu263 2.609 . S
C261 C259 1.400 . S
C261 N260 1.321 . S
C261 H268 0.930 . S
C262 C257 1.402 . S
C262 C259 1.393 . S
C262 H281 0.915 1_545 S
Eu263 N260 2.609 . S
Eu263 N264 2.657 . S
Eu263 O297 2.380 . S
Eu263 O298 2.432 . S
Eu263 O302 2.558 . S
Eu263 O303 2.612 . S
Eu263 O305 2.339 . S
Eu263 O306 2.563 . S
Eu263 O307 2.419 . S
Eu263 C327 2.848 . S
N264 C256 1.362 . S
N264 Eu263 2.657 . S
N264 C265 1.334 . S
C265 N264 1.334 . S
C265 C267 1.413 . S
C265 H272 0.929 . S
C266 C254 1.392 . S
C266 C267 1.367 . S
C266 H274 0.930 . S
C267 C265 1.413 . S
C267 C266 1.367 . S
C267 H269 0.930 . S
H268 C261 0.930 . S
H269 C267 0.930 . S
H270 C258 0.930 . S
H271 C259 0.930 . S
H272 C265 0.929 . S
H273 C287 0.930 . S
H274 C266 0.930 . S
H275 C293 0.930 . S
H276 C284 0.929 . S
H277 C291 0.930 . S
H278 C255 0.932 1_565 S
H279 C285 0.930 . S
H280 C318 0.930 . S
H281 C262 0.915 1_565 S
H282 C317 0.931 . S
N283 Eu252 2.657 . S
N283 C284 1.334 . S
N283 C288 1.362 . S
C284 H276 0.929 . S
C284 N283 1.334 . S
C284 C287 1.413 . S
C285 H279 0.930 . S
C285 C286 1.392 . S
C285 C287 1.367 . S
C286 C285 1.392 . S
C286 C288 1.420 . S
C286 C318 1.423 . S
C287 H273 0.930 . S
C287 C284 1.413 . S
C287 C285 1.367 . S
C288 N283 1.362 . S
C288 C286 1.420 . S
C288 C292 1.429 . S
H289 C294 0.930 . S
N290 Eu252 2.609 . S
N290 C292 1.377 . S
N290 C293 1.321 . S
C291 H277 0.930 . S
C291 C293 1.400 . S
C291 C294 1.386 . S
C292 C288 1.429 . S
C292 N290 1.377 . S
C292 C295 1.411 . S
C293 H275 0.930 . S
C293 N290 1.321 . S
C293 C291 1.400 . S
C294 H289 0.930 . S
C294 C291 1.386 . S
C294 C295 1.395 . S
C295 C292 1.411 . S
C295 C294 1.395 . S
C295 C317 1.420 . S
O296 Eu252 2.558 . S
O296 C316 1.257 . S
O297 Eu252 2.612 . S
O297 Eu263 2.380 . S
O297 C308 1.276 . S
O298 Eu263 2.432 . S
O298 C315 1.264 . S
O299 Eu252 2.339 . S
O299 C315 1.254 . S
O300 Eu252 2.563 . S
O300 C308 1.235 . S
O301 Eu252 2.419 . S
O301 C316 1.249 . S
O302 Eu263 2.558 . S
O302 C327 1.257 . S
O303 Eu252 2.380 . S
O303 Eu263 2.612 . S
O303 C319 1.276 . S
O304 Eu252 2.432 . S
O304 C326 1.264 . S
O305 Eu263 2.339 . S
O305 C326 1.254 . S
O306 Eu263 2.563 . S
O306 C319 1.235 . S
O307 Eu263 2.419 . S
O307 C327 1.249 . S
C308 O297 1.276 . S
C308 O300 1.235 . S
C309 C311 1.393 . S
C309 C313 1.395 . S
C309 C316 1.492 . S
C310 C311 1.392 . S
C310 C312 1.386 . S
C311 C309 1.393 . S
C311 C310 1.392 . S
C311 H328 0.930 . S
C312 C310 1.386 . S
C312 C314 1.395 . S
C312 H329 0.930 . S
C313 C309 1.395 . S
C313 C314 1.379 . S
C313 H330 0.930 . S
C314 C312 1.395 . S
C314 C313 1.379 . S
C314 H331 0.930 . S
C315 O298 1.264 . S
C315 O299 1.254 . S
C316 Eu252 2.848 . S
C316 O296 1.257 . S
C316 O301 1.249 . S
C316 C309 1.492 . S
C317 H282 0.931 . S
C317 C295 1.420 . S
C317 C318 1.351 . S
C318 H280 0.930 . S
C318 C286 1.423 . S
C318 C317 1.351 . S
C319 O303 1.276 . S
C319 O306 1.235 . S
C320 C321 1.393 . S
C320 C324 1.395 . S
C320 C327 1.492 . S
C321 C320 1.393 . S
C321 C322 1.392 . S
C321 H332 0.930 . S
C322 C321 1.392 . S
C322 C323 1.386 . S
C323 C322 1.386 . S
C323 C325 1.395 . S
C323 H333 0.930 . S
C324 C320 1.395 . S
C324 C325 1.379 . S
C324 H334 0.930 . S
C325 C323 1.395 . S
C325 C324 1.379 . S
C325 H335 0.930 . S
C326 O304 1.264 . S
C326 O305 1.254 . S
C327 Eu263 2.848 . S
C327 O302 1.257 . S
C327 O307 1.249 . S
C327 C320 1.492 . S
H328 C311 0.930 . S
H329 C312 0.930 . S
H330 C313 0.930 . S
H331 C314 0.930 . S
H332 C321 0.930 . S
H333 C323 0.930 . S
H334 C324 0.930 . S
H335 C325 0.930 . S
Eu336 N367 2.657 . S
Eu336 N374 2.609 . S
Eu336 O380 2.558 . S
Eu336 O381 2.612 . S
Eu336 O383 2.339 . S
Eu336 O384 2.563 . S
Eu336 O385 2.419 . S
Eu336 O387 2.380 . S
Eu336 O388 2.432 . S
Eu336 C400 2.848 . S
C337 C340 1.429 . S
C337 C341 1.411 . S
C337 N344 1.377 . S
C338 C340 1.420 . S
C338 C342 1.423 . S
C338 C350 1.392 . S
C339 C341 1.420 . S
C339 C342 1.351 . S
C339 H362 0.931 . S
C340 C337 1.429 . S
C340 C338 1.420 . S
C340 N348 1.362 . S
C341 C337 1.411 . S
C341 C339 1.420 . S
C341 C346 1.395 . S
C342 C338 1.423 . S
C342 C339 1.351 . S
C342 H354 0.930 . S
C343 C345 1.400 . S
C343 C346 1.386 . S
C343 H355 0.930 . S
N344 C337 1.377 . S
N344 C345 1.321 . S
N344 Eu347 2.609 . S
C345 C343 1.400 . S
C345 N344 1.321 . S
C345 H352 0.930 . S
C346 C341 1.395 . S
C346 C343 1.386 . S
C346 H365 0.930 . S
Eu347 N344 2.609 . S
Eu347 N348 2.657 . S
Eu347 O381 2.380 . S
Eu347 O382 2.432 . S
Eu347 O386 2.558 . S
Eu347 O387 2.612 . S
Eu347 O389 2.339 . S
Eu347 O390 2.563 . S
Eu347 O391 2.419 . S
Eu347 C411 2.848 . S
N348 C340 1.362 . S
N348 Eu347 2.657 . S
N348 C349 1.334 . S
C349 N348 1.334 . S
C349 C351 1.413 . S
C349 H356 0.929 . S
C350 C338 1.392 . S
C350 C351 1.367 . S
C350 H358 0.930 . S
C351 C349 1.413 . S
C351 C350 1.367 . S
C351 H353 0.930 . S
H352 C345 0.930 . S
H353 C351 0.930 . S
H354 C342 0.930 . S
H355 C343 0.930 . S
H356 C349 0.929 . S
H357 C371 0.930 . S
H358 C350 0.930 . S
H359 C377 0.930 . S
H360 C368 0.929 . S
H361 C375 0.930 . S
H362 C339 0.931 . S
H363 C369 0.930 . S
H364 C402 0.930 . S
H365 C346 0.930 . S
H366 C401 0.931 . S
N367 Eu336 2.657 . S
N367 C368 1.334 . S
N367 C372 1.362 . S
C368 H360 0.929 . S
C368 N367 1.334 . S
C368 C371 1.413 . S
C369 H363 0.930 . S
C369 C370 1.392 . S
C369 C371 1.367 . S
C370 C369 1.392 . S
C370 C372 1.420 . S
C370 C402 1.423 . S
C371 H357 0.930 . S
C371 C368 1.413 . S
C371 C369 1.367 . S
C372 N367 1.362 . S
C372 C370 1.420 . S
C372 C376 1.429 . S
H373 C378 0.930 . S
N374 Eu336 2.609 . S
N374 C376 1.377 . S
N374 C377 1.321 . S
C375 H361 0.930 . S
C375 C377 1.400 . S
C375 C378 1.386 . S
C376 C372 1.429 . S
C376 N374 1.377 . S
C376 C379 1.411 . S
C377 H359 0.930 . S
C377 N374 1.321 . S
C377 C375 1.400 . S
C378 H373 0.930 . S
C378 C375 1.386 . S
C378 C379 1.395 . S
C379 C376 1.411 . S
C379 C378 1.395 . S
C379 C401 1.420 . S
O380 Eu336 2.558 . S
O380 C400 1.257 . S
O381 Eu336 2.612 . S
O381 Eu347 2.380 . S
O381 C392 1.276 . S
O382 Eu347 2.432 . S
O382 C399 1.264 . S
O383 Eu336 2.339 . S
O383 C399 1.254 . S
O384 Eu336 2.563 . S
O384 C392 1.235 . S
O385 Eu336 2.419 . S
O385 C400 1.249 . S
O386 Eu347 2.558 . S
O386 C411 1.257 . S
O387 Eu336 2.380 . S
O387 Eu347 2.612 . S
O387 C403 1.276 . S
O388 Eu336 2.432 . S
O388 C410 1.264 . S
O389 Eu347 2.339 . S
O389 C410 1.254 . S
O390 Eu347 2.563 . S
O390 C403 1.235 . S
O391 Eu347 2.419 . S
O391 C411 1.249 . S
C392 O381 1.276 . S
C392 O384 1.235 . S
C393 C395 1.393 . S
C393 C397 1.395 . S
C393 C400 1.492 . S
C394 C395 1.392 . S
C394 C396 1.386 . S
C395 C393 1.393 . S
C395 C394 1.392 . S
C395 H412 0.930 . S
C396 C394 1.386 . S
C396 C398 1.395 . S
C396 H413 0.930 . S
C397 C393 1.395 . S
C397 C398 1.379 . S
C397 H414 0.930 . S
C398 C396 1.395 . S
C398 C397 1.379 . S
C398 H415 0.930 . S
C399 O382 1.264 . S
C399 O383 1.254 . S
C400 Eu336 2.848 . S
C400 O380 1.257 . S
C400 O385 1.249 . S
C400 C393 1.492 . S
C401 H366 0.931 . S
C401 C379 1.420 . S
C401 C402 1.351 . S
C402 H364 0.930 . S
C402 C370 1.423 . S
C402 C401 1.351 . S
C403 O387 1.276 . S
C403 O390 1.235 . S
C404 C405 1.393 . S
C404 C408 1.395 . S
C404 C411 1.492 . S
C405 C404 1.393 . S
C405 C406 1.392 . S
C405 H416 0.930 . S
C406 C405 1.392 . S
C406 C407 1.386 . S
C407 C406 1.386 . S
C407 C409 1.395 . S
C407 H417 0.930 . S
C408 C404 1.395 . S
C408 C409 1.379 . S
C408 H418 0.930 . S
C409 C407 1.395 . S
C409 C408 1.379 . S
C409 H419 0.930 . S
C410 O388 1.264 . S
C410 O389 1.254 . S
C411 Eu347 2.848 . S
C411 O386 1.257 . S
C411 O391 1.249 . S
C411 C404 1.492 . S
H412 C395 0.930 . S
H413 C396 0.930 . S
H414 C397 0.930 . S
H415 C398 0.930 . S
H416 C405 0.930 . S
H417 C407 0.930 . S
H418 C408 0.930 . S
H419 C409 0.930 . S
Eu420 N451 2.657 . S
Eu420 N458 2.609 . S
Eu420 O464 2.558 . S
Eu420 O465 2.612 . S
Eu420 O467 2.339 . S
Eu420 O468 2.563 . S
Eu420 O469 2.419 . S
Eu420 O471 2.380 1_655 S
Eu420 O472 2.432 . S
Eu420 C484 2.848 . S
C421 C424 1.429 1_455 S
C421 C425 1.411 . S
C421 N428 1.377 . S
C422 C424 1.420 . S
C422 C426 1.423 . S
C422 C434 1.392 . S
C423 C425 1.420 . S
C423 C426 1.351 1_455 S
C423 H446 0.931 . S
C424 C421 1.429 1_655 S
C424 C422 1.420 . S
C424 N432 1.362 . S
C425 C421 1.411 . S
C425 C423 1.420 . S
C425 C430 1.395 . S
C426 C422 1.423 . S
C426 C423 1.351 1_655 S
C426 H438 0.930 . S
C427 C429 1.400 . S
C427 C430 1.386 . S
C427 H439 0.930 . S
N428 C421 1.377 . S
N428 C429 1.321 . S
N428 Eu431 2.609 . S
C429 C427 1.400 . S
C429 N428 1.321 . S
C429 H436 0.930 . S
C430 C425 1.395 . S
C430 C427 1.386 . S
C430 H449 0.930 . S
Eu431 N428 2.609 . S
Eu431 N432 2.657 1_455 S
Eu431 O465 2.380 1_455 S
Eu431 O466 2.432 . S
Eu431 O470 2.558 . S
Eu431 O471 2.612 . S
Eu431 O473 2.339 1_455 S
Eu431 O474 2.563 . S
Eu431 O475 2.419 . S
Eu431 C495 2.848 . S
N432 C424 1.362 . S
N432 Eu431 2.657 1_655 S
N432 C433 1.334 . S
C433 N432 1.334 . S
C433 C435 1.413 . S
C433 H440 0.929 . S
C434 C422 1.392 . S
C434 C435 1.367 . S
C434 H442 0.930 . S
C435 C433 1.413 . S
C435 C434 1.367 . S
C435 H437 0.930 . S
H436 C429 0.930 . S
H437 C435 0.930 . S
H438 C426 0.930 . S
H439 C427 0.930 . S
H440 C433 0.929 . S
H441 C455 0.930 . S
H442 C434 0.930 . S
H443 C461 0.930 . S
H444 C452 0.929 . S
H445 C459 0.930 . S
H446 C423 0.931 . S
H447 C453 0.930 . S
H448 C486 0.930 1_455 S
H449 C430 0.930 . S
H450 C485 0.931 . S
N451 Eu420 2.657 . S
N451 C452 1.334 1_655 S
N451 C456 1.362 . S
C452 H444 0.929 . S
C452 N451 1.334 1_455 S
C452 C455 1.413 . S
C453 H447 0.930 . S
C453 C454 1.392 . S
C453 C455 1.367 . S
C454 C453 1.392 . S
C454 C456 1.420 1_455 S
C454 C486 1.423 1_455 S
C455 H441 0.930 . S
C455 C452 1.413 . S
C455 C453 1.367 . S
C456 N451 1.362 . S
C456 C454 1.420 1_655 S
C456 C460 1.429 . S
H457 C462 0.930 . S
N458 Eu420 2.609 . S
N458 C460 1.377 . S
N458 C461 1.321 . S
C459 H445 0.930 . S
C459 C461 1.400 . S
C459 C462 1.386 . S
C460 C456 1.429 . S
C460 N458 1.377 . S
C460 C463 1.411 . S
C461 H443 0.930 . S
C461 N458 1.321 . S
C461 C459 1.400 . S
C462 H457 0.930 . S
C462 C459 1.386 . S
C462 C463 1.395 . S
C463 C460 1.411 . S
C463 C462 1.395 . S
C463 C485 1.420 . S
O464 Eu420 2.558 . S
O464 C484 1.257 . S
O465 Eu420 2.612 . S
O465 Eu431 2.380 1_655 S
O465 C476 1.276 . S
O466 Eu431 2.432 . S
O466 C483 1.264 . S
O467 Eu420 2.339 . S
O467 C483 1.254 1_655 S
O468 Eu420 2.563 . S
O468 C476 1.235 . S
O469 Eu420 2.419 . S
O469 C484 1.249 . S
O470 Eu431 2.558 . S
O470 C495 1.257 . S
O471 Eu420 2.380 1_455 S
O471 Eu431 2.612 . S
O471 C487 1.276 . S
O472 Eu420 2.432 . S
O472 C494 1.264 . S
O473 Eu431 2.339 1_655 S
O473 C494 1.254 . S
O474 Eu431 2.563 . S
O474 C487 1.235 . S
O475 Eu431 2.419 . S
O475 C495 1.249 . S
C476 O465 1.276 . S
C476 O468 1.235 . S
C477 C479 1.393 . S
C477 C481 1.395 . S
C477 C484 1.492 . S
C478 C479 1.392 . S
C478 C480 1.386 . S
C479 C477 1.393 . S
C479 C478 1.392 . S
C479 H496 0.930 . S
C480 C478 1.386 . S
C480 C482 1.395 . S
C480 H497 0.930 . S
C481 C477 1.395 . S
C481 C482 1.379 . S
C481 H498 0.930 . S
C482 C480 1.395 . S
C482 C481 1.379 . S
C482 H499 0.930 . S
C483 O466 1.264 . S
C483 O467 1.254 1_455 S
C484 Eu420 2.848 . S
C484 O464 1.257 . S
C484 O469 1.249 . S
C484 C477 1.492 . S
C485 H450 0.931 . S
C485 C463 1.420 . S
C485 C486 1.351 . S
C486 H448 0.930 1_655 S
C486 C454 1.423 1_655 S
C486 C485 1.351 . S
C487 O471 1.276 . S
C487 O474 1.235 . S
C488 C489 1.393 . S
C488 C492 1.395 . S
C488 C495 1.492 . S
C489 C488 1.393 . S
C489 C490 1.392 . S
C489 H500 0.930 . S
C490 C489 1.392 . S
C490 C491 1.386 . S
C491 C490 1.386 . S
C491 C493 1.395 . S
C491 H501 0.930 . S
C492 C488 1.395 . S
C492 C493 1.379 . S
C492 H502 0.930 . S
C493 C491 1.395 . S
C493 C492 1.379 . S
C493 H503 0.930 . S
C494 O472 1.264 . S
C494 O473 1.254 . S
C495 Eu431 2.848 . S
C495 O470 1.257 . S
C495 O475 1.249 . S
C495 C488 1.492 . S
H496 C479 0.930 . S
H497 C480 0.930 . S
H498 C481 0.930 . S
H499 C482 0.930 . S
H500 C489 0.930 . S
H501 C491 0.930 . S
H502 C492 0.930 . S
H503 C493 0.930 . S
Eu504 N535 2.657 . S
Eu504 N542 2.609 . S
Eu504 O548 2.558 . S
Eu504 O549 2.612 . S
Eu504 O551 2.339 . S
Eu504 O552 2.563 . S
Eu504 O553 2.419 . S
Eu504 O555 2.380 1_554 S
Eu504 O556 2.432 . S
Eu504 C568 2.848 . S
C505 C508 1.429 1_556 S
C505 C509 1.411 . S
C505 N512 1.377 . S
C506 C508 1.420 . S
C506 C510 1.423 . S
C506 C518 1.392 . S
C507 C509 1.420 . S
C507 C510 1.351 1_556 S
C507 H530 0.931 . S
C508 C505 1.429 1_554 S
C508 C506 1.420 . S
C508 N516 1.362 . S
C509 C505 1.411 . S
C509 C507 1.420 . S
C509 C514 1.395 . S
C510 C506 1.423 . S
C510 C507 1.351 1_554 S
C510 H522 0.930 . S
C511 C513 1.400 . S
C511 C514 1.386 . S
C511 H523 0.930 . S
N512 C505 1.377 . S
N512 C513 1.321 . S
N512 Eu515 2.609 . S
C513 C511 1.400 . S
C513 N512 1.321 . S
C513 H520 0.930 . S
C514 C509 1.395 . S
C514 C511 1.386 . S
C514 H533 0.930 . S
Eu515 N512 2.609 . S
Eu515 N516 2.657 1_556 S
Eu515 O549 2.380 1_556 S
Eu515 O550 2.432 . S
Eu515 O554 2.558 . S
Eu515 O555 2.612 . S
Eu515 O557 2.339 1_556 S
Eu515 O558 2.563 . S
Eu515 O559 2.419 . S
Eu515 C579 2.848 . S
N516 C508 1.362 . S
N516 Eu515 2.657 1_554 S
N516 C517 1.334 . S
C517 N516 1.334 . S
C517 C519 1.413 . S
C517 H524 0.929 . S
C518 C506 1.392 . S
C518 C519 1.367 . S
C518 H526 0.930 . S
C519 C517 1.413 . S
C519 C518 1.367 . S
C519 H521 0.930 . S
H520 C513 0.930 . S
H521 C519 0.930 . S
H522 C510 0.930 . S
H523 C511 0.930 . S
H524 C517 0.929 . S
H525 C539 0.930 . S
H526 C518 0.930 . S
H527 C545 0.930 . S
H528 C536 0.929 . S
H529 C543 0.930 . S
H530 C507 0.931 . S
H531 C537 0.930 . S
H532 C570 0.930 1_556 S
H533 C514 0.930 . S
H534 C569 0.931 . S
N535 Eu504 2.657 . S
N535 C536 1.334 1_554 S
N535 C540 1.362 . S
C536 H528 0.929 . S
C536 N535 1.334 1_556 S
C536 C539 1.413 . S
C537 H531 0.930 . S
C537 C538 1.381 1_556 S
C537 C539 1.367 . S
C538 C537 1.381 1_554 S
C538 C540 1.427 . S
C538 C570 1.426 . S
C539 H525 0.930 . S
C539 C536 1.413 . S
C539 C537 1.367 . S
C540 N535 1.362 . S
C540 C538 1.427 . S
C540 C544 1.429 . S
H541 C546 0.930 . S
N542 Eu504 2.609 . S
N542 C544 1.377 . S
N542 C545 1.321 . S
C543 H529 0.930 . S
C543 C545 1.400 . S
C543 C546 1.386 1_655 S
C544 C540 1.429 . S
C544 N542 1.377 . S
C544 C547 1.411 . S
C545 H527 0.930 . S
C545 N542 1.321 . S
C545 C543 1.400 . S
C546 H541 0.930 . S
C546 C543 1.386 1_455 S
C546 C547 1.395 1_455 S
C547 C544 1.411 . S
C547 C546 1.395 1_655 S
C547 C569 1.420 1_655 S
O548 Eu504 2.558 . S
O548 C568 1.257 . S
O549 Eu504 2.612 . S
O549 Eu515 2.380 1_554 S
O549 C560 1.276 . S
O550 Eu515 2.432 . S
O550 C567 1.264 . S
O551 Eu504 2.339 . S
O551 C567 1.254 1_554 S
O552 Eu504 2.563 . S
O552 C560 1.235 . S
O553 Eu504 2.419 . S
O553 C568 1.249 . S
O554 Eu515 2.558 . S
O554 C579 1.257 . S
O555 Eu504 2.380 1_556 S
O555 Eu515 2.612 . S
O555 C571 1.276 . S
O556 Eu504 2.432 . S
O556 C578 1.264 . S
O557 Eu515 2.339 1_554 S
O557 C578 1.254 . S
O558 Eu515 2.563 . S
O558 C571 1.235 . S
O559 Eu515 2.419 . S
O559 C579 1.249 . S
C560 O549 1.276 . S
C560 O552 1.235 . S
C561 C563 1.393 . S
C561 C565 1.395 . S
C561 C568 1.492 . S
C562 C563 1.392 . S
C562 C564 1.386 . S
C563 C561 1.393 . S
C563 C562 1.392 . S
C563 H580 0.930 . S
C564 C562 1.386 . S
C564 C566 1.395 . S
C564 H581 0.930 . S
C565 C561 1.395 . S
C565 C566 1.379 . S
C565 H582 0.930 . S
C566 C564 1.395 . S
C566 C565 1.379 . S
C566 H583 0.930 . S
C567 O550 1.264 . S
C567 O551 1.254 1_556 S
C568 Eu504 2.848 . S
C568 O548 1.257 . S
C568 O553 1.249 . S
C568 C561 1.492 . S
C569 H534 0.931 . S
C569 C547 1.420 1_455 S
C569 C570 1.351 1_455 S
C570 H532 0.930 1_554 S
C570 C538 1.426 . S
C570 C569 1.351 1_655 S
C571 O555 1.276 . S
C571 O558 1.235 . S
C572 C573 1.393 . S
C572 C576 1.395 . S
C572 C579 1.492 . S
C573 C572 1.393 . S
C573 C574 1.392 . S
C573 H584 0.930 . S
C574 C573 1.392 . S
C574 C575 1.386 . S
C575 C574 1.386 . S
C575 C577 1.395 . S
C575 H585 0.930 . S
C576 C572 1.395 . S
C576 C577 1.379 . S
C576 H586 0.930 . S
C577 C575 1.395 . S
C577 C576 1.379 . S
C577 H587 0.930 . S
C578 O556 1.264 . S
C578 O557 1.254 . S
C579 Eu515 2.848 . S
C579 O554 1.257 . S
C579 O559 1.249 . S
C579 C572 1.492 . S
H580 C563 0.930 . S
H581 C564 0.930 . S
H582 C565 0.930 . S
H583 C566 0.930 . S
H584 C573 0.930 . S
H585 C575 0.930 . S
H586 C576 0.930 . S
H587 C577 0.930 . S
Eu588 N619 2.657 . S
Eu588 N626 2.609 . S
Eu588 O632 2.558 . S
Eu588 O633 2.612 . S
Eu588 O635 2.339 . S
Eu588 O636 2.563 . S
Eu588 O637 2.419 . S
Eu588 O639 2.380 . S
Eu588 O640 2.432 . S
Eu588 C652 2.848 . S
C589 C592 1.429 . S
C589 C593 1.411 . S
C589 N596 1.377 . S
C590 C592 1.420 . S
C590 C594 1.423 . S
C590 C602 1.392 . S
C591 C593 1.420 . S
C591 C594 1.351 . S
C591 H614 0.931 . S
C592 C589 1.429 . S
C592 C590 1.420 . S
C592 N600 1.362 . S
C593 C589 1.411 . S
C593 C591 1.420 . S
C593 C598 1.395 . S
C594 C590 1.423 . S
C594 C591 1.351 . S
C594 H606 0.930 . S
C595 C597 1.400 . S
C595 C598 1.386 . S
C595 H607 0.930 . S
N596 C589 1.377 . S
N596 C597 1.321 . S
N596 Eu599 2.609 . S
C597 C595 1.400 . S
C597 N596 1.321 . S
C597 H604 0.930 . S
C598 C593 1.395 . S
C598 C595 1.386 . S
C598 H617 0.930 . S
Eu599 N596 2.609 . S
Eu599 N600 2.657 . S
Eu599 O633 2.380 . S
Eu599 O634 2.432 . S
Eu599 O638 2.558 . S
Eu599 O639 2.612 . S
Eu599 O641 2.339 . S
Eu599 O642 2.563 . S
Eu599 O643 2.419 . S
Eu599 C663 2.848 . S
N600 C592 1.362 . S
N600 Eu599 2.657 . S
N600 C601 1.334 . S
C601 N600 1.334 . S
C601 C603 1.413 . S
C601 H608 0.929 . S
C602 C590 1.392 . S
C602 C603 1.367 . S
C602 H610 0.930 . S
C603 C601 1.413 . S
C603 C602 1.367 . S
C603 H605 0.930 . S
H604 C597 0.930 . S
H605 C603 0.930 . S
H606 C594 0.930 . S
H607 C595 0.930 . S
H608 C601 0.929 . S
H609 C623 0.930 . S
H610 C602 0.930 . S
H611 C629 0.930 . S
H612 C620 0.929 . S
H613 C627 0.930 . S
H614 C591 0.931 . S
H615 C621 0.930 . S
H616 C654 0.930 . S
H617 C598 0.930 . S
H618 C653 0.931 . S
N619 Eu588 2.657 . S
N619 C620 1.334 . S
N619 C624 1.362 . S
C620 H612 0.929 . S
C620 N619 1.334 . S
C620 C623 1.413 . S
C621 H615 0.930 . S
C621 C622 1.392 . S
C621 C623 1.367 . S
C622 C621 1.392 . S
C622 C624 1.420 . S
C622 C654 1.423 . S
C623 H609 0.930 . S
C623 C620 1.413 . S
C623 C621 1.367 . S
C624 N619 1.362 . S
C624 C622 1.420 . S
C624 C628 1.429 . S
H625 C630 0.930 . S
N626 Eu588 2.609 . S
N626 C628 1.377 . S
N626 C629 1.321 . S
C627 H613 0.930 . S
C627 C629 1.400 . S
C627 C630 1.386 . S
C628 C624 1.429 . S
C628 N626 1.377 . S
C628 C631 1.411 . S
C629 H611 0.930 . S
C629 N626 1.321 . S
C629 C627 1.400 . S
C630 H625 0.930 . S
C630 C627 1.386 . S
C630 C631 1.395 . S
C631 C628 1.411 . S
C631 C630 1.395 . S
C631 C653 1.420 . S
O632 Eu588 2.558 . S
O632 C652 1.257 . S
O633 Eu588 2.612 . S
O633 Eu599 2.380 . S
O633 C644 1.276 . S
O634 Eu599 2.432 . S
O634 C651 1.264 . S
O635 Eu588 2.339 . S
O635 C651 1.254 . S
O636 Eu588 2.563 . S
O636 C644 1.235 . S
O637 Eu588 2.419 . S
O637 C652 1.249 . S
O638 Eu599 2.558 . S
O638 C663 1.257 . S
O639 Eu588 2.380 . S
O639 Eu599 2.612 . S
O639 C655 1.276 . S
O640 Eu588 2.432 . S
O640 C662 1.264 . S
O641 Eu599 2.339 . S
O641 C662 1.254 . S
O642 Eu599 2.563 . S
O642 C655 1.235 . S
O643 Eu599 2.419 . S
O643 C663 1.249 . S
C644 O633 1.276 . S
C644 O636 1.235 . S
C645 C647 1.393 . S
C645 C649 1.395 . S
C645 C652 1.492 . S
C646 C647 1.392 . S
C646 C648 1.386 . S
C647 C645 1.393 . S
C647 C646 1.392 . S
C647 H664 0.930 . S
C648 C646 1.386 . S
C648 C650 1.395 . S
C648 H665 0.930 . S
C649 C645 1.395 . S
C649 C650 1.379 . S
C649 H666 0.930 . S
C650 C648 1.395 . S
C650 C649 1.379 . S
C650 H667 0.930 . S
C651 O634 1.264 . S
C651 O635 1.254 . S
C652 Eu588 2.848 . S
C652 O632 1.257 . S
C652 O637 1.249 . S
C652 C645 1.492 . S
C653 H618 0.931 . S
C653 C631 1.420 . S
C653 C654 1.351 . S
C654 H616 0.930 . S
C654 C622 1.423 . S
C654 C653 1.351 . S
C655 O639 1.276 . S
C655 O642 1.235 . S
C656 C657 1.393 . S
C656 C660 1.395 . S
C656 C663 1.492 . S
C657 C656 1.393 . S
C657 C658 1.392 . S
C657 H668 0.930 . S
C658 C657 1.392 . S
C658 C659 1.386 . S
C659 C658 1.386 . S
C659 C661 1.395 . S
C659 H669 0.930 . S
C660 C656 1.395 . S
C660 C661 1.379 . S
C660 H670 0.930 . S
C661 C659 1.395 . S
C661 C660 1.379 . S
C661 H671 0.930 . S
C662 O640 1.264 . S
C662 O641 1.254 . S
C663 Eu599 2.848 . S
C663 O638 1.257 . S
C663 O643 1.249 . S
C663 C656 1.492 . S
H664 C647 0.930 . S
H665 C648 0.930 . S
H666 C649 0.930 . S
H667 C650 0.930 . S
H668 C657 0.930 . S
H669 C659 0.930 . S
H670 C660 0.930 . S
H671 C661 0.930 . S
Eu672 N703 2.657 . S
Eu672 N710 2.609 . S
Eu672 O716 2.558 . S
Eu672 O717 2.612 . S
Eu672 O719 2.339 . S
Eu672 O720 2.563 . S
Eu672 O721 2.419 . S
Eu672 O723 2.380 . S
Eu672 O724 2.432 . S
Eu672 C736 2.848 . S
C673 C676 1.429 . S
C673 C677 1.411 . S
C673 N680 1.377 . S
C674 C676 1.420 . S
C674 C678 1.423 . S
C674 C686 1.392 . S
C675 C677 1.421 1_556 S
C675 C678 1.352 1_556 S
C675 H698 0.929 . S
C676 C673 1.429 . S
C676 C674 1.420 . S
C676 N684 1.362 . S
C677 C673 1.411 . S
C677 C675 1.421 1_554 S
C677 C682 1.400 . S
C678 C674 1.423 . S
C678 C675 1.352 1_554 S
C678 H690 0.930 . S
C679 C681 1.400 . S
C679 C682 1.391 . S
C679 H691 0.930 . S
N680 C673 1.377 . S
N680 C681 1.321 . S
N680 Eu683 2.609 . S
C681 C679 1.400 . S
C681 N680 1.321 . S
C681 H688 0.930 . S
C682 C677 1.400 . S
C682 C679 1.391 . S
C682 H701 0.919 1_554 S
Eu683 N680 2.609 . S
Eu683 N684 2.657 . S
Eu683 O717 2.380 . S
Eu683 O718 2.432 . S
Eu683 O722 2.558 . S
Eu683 O723 2.612 . S
Eu683 O725 2.339 . S
Eu683 O726 2.563 . S
Eu683 O727 2.419 . S
Eu683 C747 2.848 . S
N684 C676 1.362 . S
N684 Eu683 2.657 . S
N684 C685 1.334 . S
C685 N684 1.334 . S
C685 C687 1.413 . S
C685 H692 0.929 . S
C686 C674 1.392 . S
C686 C687 1.367 . S
C686 H694 0.930 . S
C687 C685 1.413 . S
C687 C686 1.367 . S
C687 H689 0.930 . S
H688 C681 0.930 . S
H689 C687 0.930 . S
H690 C678 0.930 . S
H691 C679 0.930 . S
H692 C685 0.929 . S
H693 C707 0.930 . S
H694 C686 0.930 . S
H695 C713 0.930 . S
H696 C704 0.929 . S
H697 C711 0.930 . S
H698 C675 0.929 . S
H699 C705 0.930 . S
H700 C738 0.930 . S
H701 C682 0.919 1_556 S
H702 C737 0.931 . S
N703 Eu672 2.657 . S
N703 C704 1.334 . S
N703 C708 1.362 . S
C704 H696 0.929 . S
C704 N703 1.334 . S
C704 C707 1.413 . S
C705 H699 0.930 . S
C705 C706 1.392 . S
C705 C707 1.367 . S
C706 C705 1.392 . S
C706 C708 1.420 . S
C706 C738 1.423 . S
C707 H693 0.930 . S
C707 C704 1.413 . S
C707 C705 1.367 . S
C708 N703 1.362 . S
C708 C706 1.420 . S
C708 C712 1.429 . S
H709 C714 0.930 . S
N710 Eu672 2.609 . S
N710 C712 1.377 . S
N710 C713 1.321 . S
C711 H697 0.930 . S
C711 C713 1.400 . S
C711 C714 1.386 . S
C712 C708 1.429 . S
C712 N710 1.377 . S
C712 C715 1.411 . S
C713 H695 0.930 . S
C713 N710 1.321 . S
C713 C711 1.400 . S
C714 H709 0.930 . S
C714 C711 1.386 . S
C714 C715 1.395 . S
C715 C712 1.411 . S
C715 C714 1.395 . S
C715 C737 1.420 . S
O716 Eu672 2.558 . S
O716 C736 1.257 . S
O717 Eu672 2.612 . S
O717 Eu683 2.380 . S
O717 C728 1.276 . S
O718 Eu683 2.432 . S
O718 C735 1.264 . S
O719 Eu672 2.339 . S
O719 C735 1.254 . S
O720 Eu672 2.563 . S
O720 C728 1.235 . S
O721 Eu672 2.419 . S
O721 C736 1.249 . S
O722 Eu683 2.558 . S
O722 C747 1.257 . S
O723 Eu672 2.380 . S
O723 Eu683 2.612 . S
O723 C739 1.276 . S
O724 Eu672 2.432 . S
O724 C746 1.264 . S
O725 Eu683 2.339 . S
O725 C746 1.254 . S
O726 Eu683 2.563 . S
O726 C739 1.235 . S
O727 Eu683 2.419 . S
O727 C747 1.249 . S
C728 O717 1.276 . S
C728 O720 1.235 . S
C729 C731 1.393 . S
C729 C733 1.395 . S
C729 C736 1.492 . S
C730 C731 1.392 . S
C730 C732 1.386 . S
C731 C729 1.393 . S
C731 C730 1.392 . S
C731 H748 0.930 . S
C732 C730 1.386 . S
C732 C734 1.395 . S
C732 H749 0.930 . S
C733 C729 1.395 . S
C733 C734 1.379 . S
C733 H750 0.930 . S
C734 C732 1.395 . S
C734 C733 1.379 . S
C734 H751 0.930 . S
C735 O718 1.264 . S
C735 O719 1.254 . S
C736 Eu672 2.848 . S
C736 O716 1.257 . S
C736 O721 1.249 . S
C736 C729 1.492 . S
C737 H702 0.931 . S
C737 C715 1.420 . S
C737 C738 1.351 . S
C738 H700 0.930 . S
C738 C706 1.423 . S
C738 C737 1.351 . S
C739 O723 1.276 . S
C739 O726 1.235 . S
C740 C741 1.393 . S
C740 C744 1.395 . S
C740 C747 1.492 . S
C741 C740 1.393 . S
C741 C742 1.392 . S
C741 H752 0.930 . S
C742 C741 1.392 . S
C742 C743 1.386 . S
C743 C742 1.386 . S
C743 C745 1.395 . S
C743 H753 0.930 . S
C744 C740 1.395 . S
C744 C745 1.379 . S
C744 H754 0.930 . S
C745 C743 1.395 . S
C745 C744 1.379 . S
C745 H755 0.930 . S
C746 O724 1.264 . S
C746 O725 1.254 . S
C747 Eu683 2.848 . S
C747 O722 1.257 . S
C747 O727 1.249 . S
C747 C740 1.492 . S
H748 C731 0.930 . S
H749 C732 0.930 . S
H750 C733 0.930 . S
H751 C734 0.930 . S
H752 C741 0.930 . S
H753 C743 0.930 . S
H754 C744 0.930 . S
H755 C745 0.930 . S
Eu756 N787 2.657 . S
Eu756 N794 2.609 . S
Eu756 O800 2.558 . S
Eu756 O801 2.612 . S
Eu756 O803 2.339 . S
Eu756 O804 2.563 . S
Eu756 O805 2.419 . S
Eu756 O807 2.380 1_545 S
Eu756 O808 2.432 . S
Eu756 C820 2.848 . S
C757 C760 1.429 1_565 S
C757 C761 1.411 . S
C757 N764 1.377 . S
C758 C760 1.420 . S
C758 C762 1.423 . S
C758 C770 1.392 . S
C759 C761 1.420 . S
C759 C762 1.351 1_565 S
C759 H782 0.931 . S
C760 C757 1.429 1_545 S
C760 C758 1.420 . S
C760 N768 1.362 . S
C761 C757 1.411 . S
C761 C759 1.420 . S
C761 C766 1.395 . S
C762 C758 1.423 . S
C762 C759 1.351 1_545 S
C762 H774 0.930 . S
C763 C765 1.400 . S
C763 C766 1.386 . S
C763 H775 0.930 . S
N764 C757 1.377 . S
N764 C765 1.321 . S
N764 Eu767 2.609 . S
C765 C763 1.400 . S
C765 N764 1.321 . S
C765 H772 0.930 . S
C766 C761 1.395 . S
C766 C763 1.386 . S
C766 H785 0.930 . S
Eu767 N764 2.609 . S
Eu767 N768 2.657 1_565 S
Eu767 O801 2.380 1_565 S
Eu767 O802 2.432 . S
Eu767 O806 2.558 . S
Eu767 O807 2.612 . S
Eu767 O809 2.339 1_565 S
Eu767 O810 2.563 . S
Eu767 O811 2.419 . S
Eu767 C831 2.848 . S
N768 C760 1.362 . S
N768 Eu767 2.657 1_545 S
N768 C769 1.334 . S
C769 N768 1.334 . S
C769 C771 1.413 . S
C769 H776 0.929 . S
C770 C758 1.392 . S
C770 C771 1.367 . S
C770 H778 0.930 . S
C771 C769 1.413 . S
C771 C770 1.367 . S
C771 H773 0.930 . S
H772 C765 0.930 . S
H773 C771 0.930 . S
H774 C762 0.930 . S
H775 C763 0.930 . S
H776 C769 0.929 . S
H777 C791 0.930 . S
H778 C770 0.930 . S
H779 C797 0.930 . S
H780 C788 0.929 . S
H781 C795 0.930 . S
H782 C759 0.931 . S
H783 C789 0.930 . S
H784 C822 0.930 . S
H785 C766 0.930 . S
H786 C821 0.932 . S
N787 Eu756 2.657 . S
N787 C788 1.334 1_545 S
N787 C792 1.362 . S
C788 H780 0.929 . S
C788 N787 1.334 1_565 S
C788 C791 1.413 . S
C789 H783 0.930 . S
C789 C790 1.392 1_565 S
C789 C791 1.367 . S
C790 C789 1.392 1_545 S
C790 C792 1.420 . S
C790 C822 1.423 . S
C791 H777 0.930 . S
C791 C788 1.413 . S
C791 C789 1.367 . S
C792 N787 1.362 . S
C792 C790 1.420 . S
C792 C796 1.429 . S
H793 C798 0.926 1_554 S
N794 Eu756 2.609 . S
N794 C796 1.377 . S
N794 C797 1.321 . S
C795 H781 0.930 . S
C795 C797 1.400 . S
C795 C798 1.388 . S
C796 C792 1.429 . S
C796 N794 1.377 . S
C796 C799 1.411 . S
C797 H779 0.930 . S
C797 N794 1.321 . S
C797 C795 1.400 . S
C798 H793 0.926 1_556 S
C798 C795 1.388 . S
C798 C799 1.397 . S
C799 C796 1.411 . S
C799 C798 1.397 . S
C799 C821 1.419 1_556 S
O800 Eu756 2.558 . S
O800 C820 1.257 . S
O801 Eu756 2.612 . S
O801 Eu767 2.380 1_545 S
O801 C812 1.276 . S
O802 Eu767 2.432 . S
O802 C819 1.264 . S
O803 Eu756 2.339 . S
O803 C819 1.254 1_545 S
O804 Eu756 2.563 . S
O804 C812 1.235 . S
O805 Eu756 2.419 . S
O805 C820 1.249 . S
O806 Eu767 2.558 . S
O806 C831 1.257 . S
O807 Eu756 2.380 1_565 S
O807 Eu767 2.612 . S
O807 C823 1.276 . S
O808 Eu756 2.432 . S
O808 C830 1.264 . S
O809 Eu767 2.339 1_545 S
O809 C830 1.254 . S
O810 Eu767 2.563 . S
O810 C823 1.235 . S
O811 Eu767 2.419 . S
O811 C831 1.249 . S
C812 O801 1.276 . S
C812 O804 1.235 . S
C813 C815 1.393 . S
C813 C817 1.395 . S
C813 C820 1.492 . S
C814 C815 1.392 . S
C814 C816 1.386 . S
C815 C813 1.393 . S
C815 C814 1.392 . S
C815 H832 0.930 . S
C816 C814 1.386 . S
C816 C818 1.395 . S
C816 H833 0.930 . S
C817 C813 1.395 . S
C817 C818 1.379 . S
C817 H834 0.930 . S
C818 C816 1.395 . S
C818 C817 1.379 . S
C818 H835 0.930 . S
C819 O802 1.264 . S
C819 O803 1.254 1_565 S
C820 Eu756 2.848 . S
C820 O800 1.257 . S
C820 O805 1.249 . S
C820 C813 1.492 . S
C821 H786 0.932 . S
C821 C799 1.419 1_554 S
C821 C822 1.350 1_554 S
C822 H784 0.930 . S
C822 C790 1.423 . S
C822 C821 1.350 1_556 S
C823 O807 1.276 . S
C823 O810 1.235 . S
C824 C825 1.393 . S
C824 C828 1.395 . S
C824 C831 1.492 . S
C825 C824 1.393 . S
C825 C826 1.392 . S
C825 H836 0.930 . S
C826 C825 1.392 . S
C826 C827 1.386 . S
C827 C826 1.386 . S
C827 C829 1.395 . S
C827 H837 0.930 . S
C828 C824 1.395 . S
C828 C829 1.379 . S
C828 H838 0.930 . S
C829 C827 1.395 . S
C829 C828 1.379 . S
C829 H839 0.930 . S
C830 O808 1.264 . S
C830 O809 1.254 . S
C831 Eu767 2.848 . S
C831 O806 1.257 . S
C831 O811 1.249 . S
C831 C824 1.492 . S
H832 C815 0.930 . S
H833 C816 0.930 . S
H834 C817 0.930 . S
H835 C818 0.930 . S
H836 C825 0.930 . S
H837 C827 0.930 . S
H838 C828 0.930 . S
H839 C829 0.930 . S
Eu840 N871 2.657 . S
Eu840 N878 2.609 . S
Eu840 O884 2.558 . S
Eu840 O885 2.612 . S
Eu840 O887 2.339 . S
Eu840 O888 2.563 . S
Eu840 O889 2.419 . S
Eu840 O891 2.380 1_565 S
Eu840 O892 2.432 . S
Eu840 C904 2.848 . S
C841 C844 1.429 1_545 S
C841 C845 1.411 . S
C841 N848 1.377 . S
C842 C844 1.420 . S
C842 C846 1.423 . S
C842 C854 1.392 . S
C843 C845 1.420 . S
C843 C846 1.351 1_545 S
C843 H866 0.931 . S
C844 C841 1.429 1_565 S
C844 C842 1.420 . S
C844 N852 1.362 . S
C845 C841 1.411 . S
C845 C843 1.420 . S
C845 C850 1.395 . S
C846 C842 1.423 . S
C846 C843 1.351 1_565 S
C846 H858 0.930 . S
C847 C849 1.400 . S
C847 C850 1.386 . S
C847 H859 0.930 . S
N848 C841 1.377 . S
N848 C849 1.321 . S
N848 Eu851 2.609 . S
C849 C847 1.400 . S
C849 N848 1.321 . S
C849 H856 0.930 . S
C850 C845 1.395 . S
C850 C847 1.386 . S
C850 H869 0.930 . S
Eu851 N848 2.609 . S
Eu851 N852 2.657 1_545 S
Eu851 O885 2.380 1_545 S
Eu851 O886 2.432 . S
Eu851 O890 2.558 . S
Eu851 O891 2.612 . S
Eu851 O893 2.339 1_545 S
Eu851 O894 2.563 . S
Eu851 O895 2.419 . S
Eu851 C915 2.848 . S
N852 C844 1.362 . S
N852 Eu851 2.657 1_565 S
N852 C853 1.334 . S
C853 N852 1.334 . S
C853 C855 1.413 . S
C853 H860 0.929 . S
C854 C842 1.392 . S
C854 C855 1.367 . S
C854 H862 0.930 . S
C855 C853 1.413 . S
C855 C854 1.367 . S
C855 H857 0.930 . S
H856 C849 0.930 . S
H857 C855 0.930 . S
H858 C846 0.930 . S
H859 C847 0.930 . S
H860 C853 0.929 . S
H861 C875 0.930 . S
H862 C854 0.930 . S
H863 C881 0.930 . S
H864 C872 0.929 . S
H865 C879 0.930 . S
H866 C843 0.931 . S
H867 C873 0.930 . S
H868 C906 0.930 1_545 S
H869 C850 0.930 . S
H870 C905 0.931 . S
N871 Eu840 2.657 . S
N871 C872 1.334 1_565 S
N871 C876 1.362 . S
C872 H864 0.929 . S
C872 N871 1.334 1_545 S
C872 C875 1.413 . S
C873 H867 0.930 . S
C873 C874 1.392 1_545 S
C873 C875 1.367 . S
C874 C873 1.392 1_565 S
C874 C876 1.420 . S
C874 C906 1.423 . S
C875 H861 0.930 . S
C875 C872 1.413 . S
C875 C873 1.367 . S
C876 N871 1.362 . S
C876 C874 1.420 . S
C876 C880 1.429 . S
H877 C882 0.930 . S
N878 Eu840 2.609 . S
N878 C880 1.377 . S
N878 C881 1.321 . S
C879 H865 0.930 . S
C879 C881 1.400 . S
C879 C882 1.386 . S
C880 C876 1.429 . S
C880 N878 1.377 . S
C880 C883 1.411 . S
C881 H863 0.930 . S
C881 N878 1.321 . S
C881 C879 1.400 . S
C882 H877 0.930 . S
C882 C879 1.386 . S
C882 C883 1.395 . S
C883 C880 1.411 . S
C883 C882 1.395 . S
C883 C905 1.420 . S
O884 Eu840 2.558 . S
O884 C904 1.257 . S
O885 Eu840 2.612 . S
O885 Eu851 2.380 1_565 S
O885 C896 1.276 . S
O886 Eu851 2.432 . S
O886 C903 1.264 . S
O887 Eu840 2.339 . S
O887 C903 1.254 1_565 S
O888 Eu840 2.563 . S
O888 C896 1.235 . S
O889 Eu840 2.419 . S
O889 C904 1.249 . S
O890 Eu851 2.558 . S
O890 C915 1.257 . S
O891 Eu840 2.380 1_545 S
O891 Eu851 2.612 . S
O891 C907 1.276 . S
O892 Eu840 2.432 . S
O892 C914 1.264 . S
O893 Eu851 2.339 1_565 S
O893 C914 1.254 . S
O894 Eu851 2.563 . S
O894 C907 1.235 . S
O895 Eu851 2.419 . S
O895 C915 1.249 . S
C896 O885 1.276 . S
C896 O888 1.235 . S
C897 C899 1.393 . S
C897 C901 1.395 . S
C897 C904 1.492 . S
C898 C899 1.392 . S
C898 C900 1.386 . S
C899 C897 1.393 . S
C899 C898 1.392 . S
C899 H916 0.930 . S
C900 C898 1.386 . S
C900 C902 1.395 . S
C900 H917 0.930 . S
C901 C897 1.395 . S
C901 C902 1.379 . S
C901 H918 0.930 . S
C902 C900 1.395 . S
C902 C901 1.379 . S
C902 H919 0.930 . S
C903 O886 1.264 . S
C903 O887 1.254 1_545 S
C904 Eu840 2.848 . S
C904 O884 1.257 . S
C904 O889 1.249 . S
C904 C897 1.492 . S
C905 H870 0.931 . S
C905 C883 1.420 . S
C905 C906 1.351 . S
C906 H868 0.930 1_565 S
C906 C874 1.423 . S
C906 C905 1.351 . S
C907 O891 1.276 . S
C907 O894 1.235 . S
C908 C909 1.393 . S
C908 C912 1.395 . S
C908 C915 1.492 . S
C909 C908 1.393 . S
C909 C910 1.392 . S
C909 H920 0.930 . S
C910 C909 1.392 . S
C910 C911 1.386 . S
C911 C910 1.386 . S
C911 C913 1.395 . S
C911 H921 0.930 . S
C912 C908 1.395 . S
C912 C913 1.379 . S
C912 H922 0.930 . S
C913 C911 1.395 . S
C913 C912 1.379 . S
C913 H923 0.930 . S
C914 O892 1.264 . S
C914 O893 1.254 . S
C915 Eu851 2.848 . S
C915 O890 1.257 . S
C915 O895 1.249 . S
C915 C908 1.492 . S
H916 C899 0.930 . S
H917 C900 0.930 . S
H918 C901 0.930 . S
H919 C902 0.930 . S
H920 C909 0.930 . S
H921 C911 0.930 . S
H922 C912 0.930 . S
H923 C913 0.930 . S
Eu924 N955 2.657 . S
Eu924 N962 2.609 . S
Eu924 O968 2.558 . S
Eu924 O969 2.612 . S
Eu924 O971 2.339 . S
Eu924 O972 2.563 . S
Eu924 O973 2.419 . S
Eu924 O975 2.380 . S
Eu924 O976 2.432 . S
Eu924 C988 2.848 . S
C925 C928 1.429 . S
C925 C929 1.411 . S
C925 N932 1.377 . S
C926 C928 1.420 . S
C926 C930 1.423 . S
C926 C938 1.392 . S
C927 C929 1.420 . S
C927 C930 1.351 . S
C927 H950 0.931 . S
C928 C925 1.429 . S
C928 C926 1.420 . S
C928 N936 1.362 . S
C929 C925 1.411 . S
C929 C927 1.420 . S
C929 C934 1.395 . S
C930 C926 1.423 . S
C930 C927 1.351 . S
C930 H942 0.930 . S
C931 C933 1.400 . S
C931 C934 1.386 . S
C931 H943 0.930 . S
N932 C925 1.377 . S
N932 C933 1.321 . S
N932 Eu935 2.609 . S
C933 C931 1.400 . S
C933 N932 1.321 . S
C933 H940 0.930 . S
C934 C929 1.395 . S
C934 C931 1.386 . S
C934 H953 0.930 . S
Eu935 N932 2.609 . S
Eu935 N936 2.657 . S
Eu935 O969 2.380 . S
Eu935 O970 2.432 . S
Eu935 O974 2.558 . S
Eu935 O975 2.612 . S
Eu935 O977 2.339 . S
Eu935 O978 2.563 . S
Eu935 O979 2.419 . S
Eu935 C999 2.848 . S
N936 C928 1.362 . S
N936 Eu935 2.657 . S
N936 C937 1.334 . S
C937 N936 1.334 . S
C937 C939 1.413 . S
C937 H944 0.929 . S
C938 C926 1.392 . S
C938 C939 1.367 . S
C938 H946 0.930 . S
C939 C937 1.413 . S
C939 C938 1.367 . S
C939 H941 0.930 . S
H940 C933 0.930 . S
H941 C939 0.930 . S
H942 C930 0.930 . S
H943 C931 0.930 . S
H944 C937 0.929 . S
H945 C959 0.930 . S
H946 C938 0.930 . S
H947 C965 0.930 . S
H948 C956 0.929 . S
H949 C963 0.930 . S
H950 C927 0.931 . S
H951 C957 0.930 . S
H952 C990 0.930 . S
H953 C934 0.930 . S
H954 C989 0.931 . S
N955 Eu924 2.657 . S
N955 C956 1.334 . S
N955 C960 1.362 . S
C956 H948 0.929 . S
C956 N955 1.334 . S
C956 C959 1.413 . S
C957 H951 0.930 . S
C957 C958 1.392 . S
C957 C959 1.367 . S
C958 C957 1.392 . S
C958 C960 1.420 . S
C958 C990 1.423 . S
C959 H945 0.930 . S
C959 C956 1.413 . S
C959 C957 1.367 . S
C960 N955 1.362 . S
C960 C958 1.420 . S
C960 C964 1.429 . S
H961 C966 0.930 . S
N962 Eu924 2.609 . S
N962 C964 1.377 . S
N962 C965 1.321 . S
C963 H949 0.930 . S
C963 C965 1.400 . S
C963 C966 1.386 . S
C964 C960 1.429 . S
C964 N962 1.377 . S
C964 C967 1.411 . S
C965 H947 0.930 . S
C965 N962 1.321 . S
C965 C963 1.400 . S
C966 H961 0.930 . S
C966 C963 1.386 . S
C966 C967 1.395 . S
C967 C964 1.411 . S
C967 C966 1.395 . S
C967 C989 1.420 . S
O968 Eu924 2.558 . S
O968 C988 1.257 . S
O969 Eu924 2.612 . S
O969 Eu935 2.380 . S
O969 C980 1.276 . S
O970 Eu935 2.432 . S
O970 C987 1.264 . S
O971 Eu924 2.339 . S
O971 C987 1.254 . S
O972 Eu924 2.563 . S
O972 C980 1.235 . S
O973 Eu924 2.419 . S
O973 C988 1.249 . S
O974 Eu935 2.558 . S
O974 C999 1.257 . S
O975 Eu924 2.380 . S
O975 Eu935 2.612 . S
O975 C991 1.276 . S
O976 Eu924 2.432 . S
O976 C998 1.264 . S
O977 Eu935 2.339 . S
O977 C998 1.254 . S
O978 Eu935 2.563 . S
O978 C991 1.235 . S
O979 Eu935 2.419 . S
O979 C999 1.249 . S
C980 O969 1.276 . S
C980 O972 1.235 . S
C981 C983 1.393 . S
C981 C985 1.395 . S
C981 C988 1.492 . S
C982 C983 1.392 . S
C982 C984 1.386 . S
C983 C981 1.393 . S
C983 C982 1.392 . S
C983 H1000 0.930 . S
C984 C982 1.386 . S
C984 C986 1.395 . S
C984 H1001 0.930 . S
C985 C981 1.395 . S
C985 C986 1.379 . S
C985 H1002 0.930 . S
C986 C984 1.395 . S
C986 C985 1.379 . S
C986 H1003 0.930 . S
C987 O970 1.264 . S
C987 O971 1.254 . S
C988 Eu924 2.848 . S
C988 O968 1.257 . S
C988 O973 1.249 . S
C988 C981 1.492 . S
C989 H954 0.931 . S
C989 C967 1.420 . S
C989 C990 1.351 . S
C990 H952 0.930 . S
C990 C958 1.423 . S
C990 C989 1.351 . S
C991 O975 1.276 . S
C991 O978 1.235 . S
C992 C993 1.393 . S
C992 C996 1.395 . S
C992 C999 1.492 . S
C993 C992 1.393 . S
C993 C994 1.392 . S
C993 H1004 0.930 . S
C994 C993 1.392 . S
C994 C995 1.386 . S
C995 C994 1.386 . S
C995 C997 1.395 . S
C995 H1005 0.930 . S
C996 C992 1.395 . S
C996 C997 1.379 . S
C996 H1006 0.930 . S
C997 C995 1.395 . S
C997 C996 1.379 . S
C997 H1007 0.930 . S
C998 O976 1.264 . S
C998 O977 1.254 . S
C999 Eu935 2.848 . S
C999 O974 1.257 . S
C999 O979 1.249 . S
C999 C992 1.492 . S
H1000 C983 0.930 . S
H1001 C984 0.930 . S
H1002 C985 0.930 . S
H1003 C986 0.930 . S
H1004 C993 0.930 . S
H1005 C995 0.930 . S
H1006 C996 0.930 . S
H1007 C997 0.930 . S
H1008 C1016 0.950 . S
H1009 C1021 0.950 . S
H1010 C1018 0.950 . S
H1011 C1020 0.950 . S
H1012 C1022 0.950 . S
H1013 C1024 0.950 . S
H1014 C1026 0.950 . S
H1015 C1027 0.950 . S
C1016 H1008 0.950 . S
C1016 C1017 1.386 . S
C1016 C1018 1.391 . S
C1017 C1016 1.386 . S
C1017 C1021 1.393 . S
C1018 H1010 0.950 . S
C1018 C1016 1.391 . S
C1018 C1019 1.400 . S
C1019 C1018 1.400 . S
C1019 C1020 1.398 . S
C1019 C1025 1.491 . S
C1020 H1011 0.950 . S
C1020 C1019 1.398 . S
C1020 C1021 1.391 . S
C1021 H1009 0.950 . S
C1021 C1017 1.393 . S
C1021 C1020 1.391 . S
C1022 H1012 0.950 . S
C1022 C1023 1.386 . S
C1022 C1024 1.391 . S
C1023 C1022 1.386 . S
C1023 C1027 1.393 . S
C1024 H1013 0.950 . S
C1024 C1022 1.391 . S
C1024 C1025 1.400 . S
C1025 C1019 1.491 . S
C1025 C1024 1.400 . S
C1025 C1026 1.398 . S
C1026 H1014 0.950 . S
C1026 C1025 1.398 . S
C1026 C1027 1.391 . S
C1027 H1015 0.950 . S
C1027 C1023 1.393 . S
C1027 C1026 1.391 . S
H1028 C1036 0.950 . S
H1029 C1041 0.950 . S
H1030 C1038 0.950 1_545 S
H1031 C1040 0.950 . S
H1032 C1042 0.950 . S
H1033 C1044 0.950 . S
H1034 C1046 0.950 . S
H1035 C1047 0.950 . S
C1036 H1028 0.950 . S
C1036 C1037 1.386 1_545 S
C1036 C1038 1.391 1_545 S
C1037 C1036 1.386 1_565 S
C1037 C1041 1.393 . S
C1038 H1030 0.950 1_565 S
C1038 C1036 1.391 1_565 S
C1038 C1039 1.400 . S
C1039 C1038 1.400 . S
C1039 C1040 1.398 . S
C1039 C1045 1.491 . S
C1040 H1031 0.950 . S
C1040 C1039 1.398 . S
C1040 C1041 1.391 . S
C1041 H1029 0.950 . S
C1041 C1037 1.393 . S
C1041 C1040 1.391 . S
C1042 H1032 0.950 . S
C1042 C1043 1.386 . S
C1042 C1044 1.391 . S
C1043 C1042 1.386 . S
C1043 C1047 1.393 . S
C1044 H1033 0.950 . S
C1044 C1042 1.391 . S
C1044 C1045 1.400 . S
C1045 C1039 1.491 . S
C1045 C1044 1.400 . S
C1045 C1046 1.398 . S
C1046 H1034 0.950 . S
C1046 C1045 1.398 . S
C1046 C1047 1.391 . S
C1047 H1035 0.950 . S
C1047 C1043 1.393 . S
C1047 C1046 1.391 . S
H1048 C1056 0.950 1_556 S
H1049 C1061 0.950 . S
H1050 C1058 0.950 . S
H1051 C1060 0.950 . S
H1052 C1062 0.950 . S
H1053 C1064 0.950 . S
H1054 C1066 0.950 . S
H1055 C1067 0.950 . S
C1056 H1048 0.950 1_554 S
C1056 C1057 1.386 . S
C1056 C1058 1.391 . S
C1057 C1056 1.386 . S
C1057 C1061 1.393 . S
C1058 H1050 0.950 . S
C1058 C1056 1.391 . S
C1058 C1059 1.400 . S
C1059 C1058 1.400 . S
C1059 C1060 1.398 . S
C1059 C1065 1.491 . S
C1060 H1051 0.950 . S
C1060 C1059 1.398 . S
C1060 C1061 1.391 . S
C1061 H1049 0.950 . S
C1061 C1057 1.393 . S
C1061 C1060 1.391 . S
C1062 H1052 0.950 . S
C1062 C1063 1.386 . S
C1062 C1064 1.391 . S
C1063 C1062 1.386 . S
C1063 C1067 1.393 . S
C1064 H1053 0.950 . S
C1064 C1062 1.391 . S
C1064 C1065 1.400 . S
C1065 C1059 1.491 . S
C1065 C1064 1.400 . S
C1065 C1066 1.398 . S
C1066 H1054 0.950 . S
C1066 C1065 1.398 . S
C1066 C1067 1.391 . S
C1067 H1055 0.950 . S
C1067 C1063 1.393 . S
C1067 C1066 1.391 . S
H1068 C1076 0.950 . S
H1069 C1081 0.950 . S
H1070 C1078 0.950 . S
H1071 C1080 0.950 . S
H1072 C1082 0.950 . S
H1073 C1084 0.950 1_565 S
H1074 C1086 0.950 . S
H1075 C1087 0.950 . S
C1076 H1068 0.950 . S
C1076 C1077 1.386 . S
C1076 C1078 1.391 . S
C1077 C1076 1.386 . S
C1077 C1081 1.393 . S
C1078 H1070 0.950 . S
C1078 C1076 1.391 . S
C1078 C1079 1.400 . S
C1079 C1078 1.400 . S
C1079 C1080 1.398 . S
C1079 C1085 1.491 . S
C1080 H1071 0.950 . S
C1080 C1079 1.398 . S
C1080 C1081 1.391 . S
C1081 H1069 0.950 . S
C1081 C1077 1.393 . S
C1081 C1080 1.391 . S
C1082 H1072 0.950 . S
C1082 C1083 1.386 1_565 S
C1082 C1084 1.391 1_565 S
C1083 C1082 1.386 1_545 S
C1083 C1087 1.393 . S
C1084 H1073 0.950 1_545 S
C1084 C1082 1.391 1_545 S
C1084 C1085 1.400 . S
C1085 C1079 1.491 . S
C1085 C1084 1.400 . S
C1085 C1086 1.398 . S
C1086 H1074 0.950 . S
C1086 C1085 1.398 . S
C1086 C1087 1.391 . S
C1087 H1075 0.950 . S
C1087 C1083 1.393 . S
C1087 C1086 1.391 . S
H1088 C1096 0.950 . S
H1089 C1101 0.950 . S
H1090 C1098 0.950 . S
H1091 C1100 0.950 . S
H1092 C1102 0.950 . S
H1093 C1104 0.950 . S
H1094 C1106 0.950 . S
H1095 C1107 0.950 . S
C1096 H1088 0.950 . S
C1096 C1097 1.386 . S
C1096 C1098 1.391 . S
C1097 C1096 1.386 . S
C1097 C1101 1.393 . S
C1098 H1090 0.950 . S
C1098 C1096 1.391 . S
C1098 C1099 1.400 . S
C1099 C1098 1.400 . S
C1099 C1100 1.398 . S
C1099 C1105 1.491 . S
C1100 H1091 0.950 . S
C1100 C1099 1.398 . S
C1100 C1101 1.391 . S
C1101 H1089 0.950 . S
C1101 C1097 1.393 . S
C1101 C1100 1.391 . S
C1102 H1092 0.950 . S
C1102 C1103 1.386 . S
C1102 C1104 1.391 . S
C1103 C1102 1.386 . S
C1103 C1107 1.393 . S
C1104 H1093 0.950 . S
C1104 C1102 1.391 . S
C1104 C1105 1.400 . S
C1105 C1099 1.491 . S
C1105 C1104 1.400 . S
C1105 C1106 1.398 . S
C1106 H1094 0.950 . S
C1106 C1105 1.398 . S
C1106 C1107 1.391 . S
C1107 H1095 0.950 . S
C1107 C1103 1.393 . S
C1107 C1106 1.391 . S
H1108 C1116 0.950 . S
H1109 C1121 0.950 . S
H1110 C1118 0.950 . S
H1111 C1120 0.950 . S
H1112 C1122 0.950 . S
H1113 C1124 0.950 . S
H1114 C1126 0.950 . S
H1115 C1127 0.950 . S
C1116 H1108 0.950 . S
C1116 C1117 1.386 . S
C1116 C1118 1.391 . S
C1117 C1116 1.386 . S
C1117 C1121 1.393 . S
C1118 H1110 0.950 . S
C1118 C1116 1.391 . S
C1118 C1119 1.400 . S
C1119 C1118 1.400 . S
C1119 C1120 1.398 . S
C1119 C1125 1.491 . S
C1120 H1111 0.950 . S
C1120 C1119 1.398 . S
C1120 C1121 1.391 . S
C1121 H1109 0.950 . S
C1121 C1117 1.393 . S
C1121 C1120 1.391 . S
C1122 H1112 0.950 . S
C1122 C1123 1.386 . S
C1122 C1124 1.391 . S
C1123 C1122 1.386 . S
C1123 C1127 1.393 . S
C1124 H1113 0.950 . S
C1124 C1122 1.391 . S
C1124 C1125 1.400 . S
C1125 C1119 1.491 . S
C1125 C1124 1.400 . S
C1125 C1126 1.398 . S
C1126 H1114 0.950 . S
C1126 C1125 1.398 . S
C1126 C1127 1.391 . S
C1127 H1115 0.950 . S
C1127 C1123 1.393 . S
C1127 C1126 1.391 . S
H1128 C1136 0.950 . S
H1129 C1141 0.950 . S
H1130 C1138 0.950 . S
H1131 C1140 0.950 . S
H1132 C1142 0.950 . S
H1133 C1144 0.950 . S
H1134 C1146 0.950 1_554 S
H1135 C1147 0.950 . S
C1136 H1128 0.950 . S
C1136 C1137 1.386 . S
C1136 C1138 1.391 . S
C1137 C1136 1.386 . S
C1137 C1141 1.393 . S
C1138 H1130 0.950 . S
C1138 C1136 1.391 . S
C1138 C1139 1.400 . S
C1139 C1138 1.400 . S
C1139 C1140 1.398 . S
C1139 C1145 1.491 . S
C1140 H1131 0.950 . S
C1140 C1139 1.398 . S
C1140 C1141 1.391 . S
C1141 H1129 0.950 . S
C1141 C1137 1.393 . S
C1141 C1140 1.391 . S
C1142 H1132 0.950 . S
C1142 C1143 1.386 . S
C1142 C1144 1.391 . S
C1143 C1142 1.386 . S
C1143 C1147 1.393 1_556 S
C1144 H1133 0.950 . S
C1144 C1142 1.391 . S
C1144 C1145 1.400 . S
C1145 C1139 1.491 . S
C1145 C1144 1.400 . S
C1145 C1146 1.398 . S
C1146 H1134 0.950 1_556 S
C1146 C1145 1.398 . S
C1146 C1147 1.391 1_556 S
C1147 H1135 0.950 . S
C1147 C1143 1.393 1_554 S
C1147 C1146 1.391 1_554 S
H1148 C1156 0.950 . S
H1149 C1161 0.950 . S
H1150 C1158 0.950 . S
H1151 C1160 0.950 . S
H1152 C1162 0.950 . S
H1153 C1164 0.950 . S
H1154 C1166 0.950 . S
H1155 C1167 0.950 . S
C1156 H1148 0.950 . S
C1156 C1157 1.386 . S
C1156 C1158 1.391 . S
C1157 C1156 1.386 . S
C1157 C1161 1.393 . S
C1158 H1150 0.950 . S
C1158 C1156 1.391 . S
C1158 C1159 1.400 . S
C1159 C1158 1.400 . S
C1159 C1160 1.398 . S
C1159 C1165 1.491 . S
C1160 H1151 0.950 . S
C1160 C1159 1.398 . S
C1160 C1161 1.391 . S
C1161 H1149 0.950 . S
C1161 C1157 1.393 . S
C1161 C1160 1.391 . S
C1162 H1152 0.950 . S
C1162 C1163 1.386 . S
C1162 C1164 1.391 . S
C1163 C1162 1.386 . S
C1163 C1167 1.393 . S
C1164 H1153 0.950 . S
C1164 C1162 1.391 . S
C1164 C1165 1.400 . S
C1165 C1159 1.491 . S
C1165 C1164 1.400 . S
C1165 C1166 1.398 . S
C1166 H1154 0.950 . S
C1166 C1165 1.398 . S
C1166 C1167 1.391 . S
C1167 H1155 0.950 . S
C1167 C1163 1.393 . S
C1167 C1166 1.391 . S
H1168 C1176 0.950 . S
H1169 C1181 0.950 . S
H1170 C1178 0.950 . S
H1171 C1180 0.950 . S
H1172 C1182 0.950 . S
H1173 C1184 0.950 . S
H1174 C1186 0.950 . S
H1175 C1187 0.950 . S
C1176 H1168 0.950 . S
C1176 C1177 1.386 . S
C1176 C1178 1.391 . S
C1177 C1176 1.386 . S
C1177 C1181 1.393 . S
C1178 H1170 0.950 . S
C1178 C1176 1.391 . S
C1178 C1179 1.400 . S
C1179 C1178 1.400 . S
C1179 C1180 1.398 . S
C1179 C1185 1.491 . S
C1180 H1171 0.950 . S
C1180 C1179 1.398 . S
C1180 C1181 1.391 . S
C1181 H1169 0.950 . S
C1181 C1177 1.393 . S
C1181 C1180 1.391 . S
C1182 H1172 0.950 . S
C1182 C1183 1.386 . S
C1182 C1184 1.391 . S
C1183 C1182 1.386 . S
C1183 C1187 1.393 . S
C1184 H1173 0.950 . S
C1184 C1182 1.391 . S
C1184 C1185 1.400 . S
C1185 C1179 1.491 . S
C1185 C1184 1.400 . S
C1185 C1186 1.398 . S
C1186 H1174 0.950 . S
C1186 C1185 1.398 . S
C1186 C1187 1.391 . S
C1187 H1175 0.950 . S
C1187 C1183 1.393 . S
C1187 C1186 1.391 . S
H1188 C1196 0.950 . S
H1189 C1201 0.950 . S
H1190 C1198 0.950 . S
H1191 C1200 0.950 . S
H1192 C1202 0.950 1_655 S
H1193 C1204 0.950 . S
H1194 C1206 0.950 . S
H1195 C1207 0.950 . S
C1196 H1188 0.950 . S
C1196 C1197 1.386 . S
C1196 C1198 1.391 . S
C1197 C1196 1.386 . S
C1197 C1201 1.393 . S
C1198 H1190 0.950 . S
C1198 C1196 1.391 . S
C1198 C1199 1.400 . S
C1199 C1198 1.400 . S
C1199 C1200 1.398 . S
C1199 C1205 1.491 . S
C1200 H1191 0.950 . S
C1200 C1199 1.398 . S
C1200 C1201 1.391 . S
C1201 H1189 0.950 . S
C1201 C1197 1.393 . S
C1201 C1200 1.391 . S
C1202 H1192 0.950 1_455 S
C1202 C1203 1.386 . S
C1202 C1204 1.391 . S
C1203 C1202 1.386 . S
C1203 C1207 1.393 . S
C1204 H1193 0.950 . S
C1204 C1202 1.391 . S
C1204 C1205 1.400 . S
C1205 C1199 1.491 . S
C1205 C1204 1.400 . S
C1205 C1206 1.398 . S
C1206 H1194 0.950 . S
C1206 C1205 1.398 . S
C1206 C1207 1.391 . S
C1207 H1195 0.950 . S
C1207 C1203 1.393 . S
C1207 C1206 1.391 . S
H1208 C1216 0.950 . S
H1209 C1221 0.950 . S
H1210 C1218 0.950 1_455 S
H1211 C1220 0.950 . S
H1212 C1222 0.950 . S
H1213 C1224 0.950 . S
H1214 C1226 0.950 . S
H1215 C1227 0.950 . S
C1216 H1208 0.950 . S
C1216 C1217 1.386 1_455 S
C1216 C1218 1.391 1_455 S
C1217 C1216 1.386 1_655 S
C1217 C1221 1.393 . S
C1218 H1210 0.950 1_655 S
C1218 C1216 1.391 1_655 S
C1218 C1219 1.400 . S
C1219 C1218 1.400 . S
C1219 C1220 1.398 . S
C1219 C1225 1.491 . S
C1220 H1211 0.950 . S
C1220 C1219 1.398 . S
C1220 C1221 1.391 . S
C1221 H1209 0.950 . S
C1221 C1217 1.393 . S
C1221 C1220 1.391 . S
C1222 H1212 0.950 . S
C1222 C1223 1.386 . S
C1222 C1224 1.391 . S
C1223 C1222 1.386 . S
C1223 C1227 1.393 . S
C1224 H1213 0.950 . S
C1224 C1222 1.391 . S
C1224 C1225 1.400 . S
C1225 C1219 1.491 . S
C1225 C1224 1.400 . S
C1225 C1226 1.398 . S
C1226 H1214 0.950 . S
C1226 C1225 1.398 . S
C1226 C1227 1.391 . S
C1227 H1215 0.950 . S
C1227 C1223 1.393 . S
C1227 C1226 1.391 . S
H1228 C1236 0.950 . S
H1229 C1241 0.950 . S
H1230 C1238 0.950 . S
H1231 C1240 0.950 . S
H1232 C1242 0.950 . S
H1233 C1244 0.950 . S
H1234 C1246 0.950 . S
H1235 C1247 0.950 . S
C1236 H1228 0.950 . S
C1236 C1237 1.386 . S
C1236 C1238 1.391 . S
C1237 C1236 1.386 . S
C1237 C1241 1.393 . S
C1238 H1230 0.950 . S
C1238 C1236 1.391 . S
C1238 C1239 1.400 . S
C1239 C1238 1.400 . S
C1239 C1240 1.398 . S
C1239 C1245 1.491 . S
C1240 H1231 0.950 . S
C1240 C1239 1.398 . S
C1240 C1241 1.391 . S
C1241 H1229 0.950 . S
C1241 C1237 1.393 . S
C1241 C1240 1.391 . S
C1242 H1232 0.950 . S
C1242 C1243 1.386 . S
C1242 C1244 1.391 . S
C1243 C1242 1.386 . S
C1243 C1247 1.393 . S
C1244 H1233 0.950 . S
C1244 C1242 1.391 . S
C1244 C1245 1.400 . S
C1245 C1239 1.491 . S
C1245 C1244 1.400 . S
C1245 C1246 1.398 . S
C1246 H1234 0.950 . S
C1246 C1245 1.398 . S
C1246 C1247 1.391 . S
C1247 H1235 0.950 . S
C1247 C1243 1.393 . S
C1247 C1246 1.391 . S
H1248 C1256 0.950 . S
H1249 C1261 0.950 . S
H1250 C1258 0.950 . S
H1251 C1260 0.950 . S
H1252 C1262 0.950 . S
H1253 C1264 0.950 . S
H1254 C1266 0.950 . S
H1255 C1267 0.950 . S
C1256 H1248 0.950 . S
C1256 C1257 1.386 . S
C1256 C1258 1.391 . S
C1257 C1256 1.386 . S
C1257 C1261 1.393 . S
C1258 H1250 0.950 . S
C1258 C1256 1.391 . S
C1258 C1259 1.400 . S
C1259 C1258 1.400 . S
C1259 C1260 1.398 . S
C1259 C1265 1.491 . S
C1260 H1251 0.950 . S
C1260 C1259 1.398 . S
C1260 C1261 1.391 . S
C1261 H1249 0.950 . S
C1261 C1257 1.393 . S
C1261 C1260 1.391 . S
C1262 H1252 0.950 . S
C1262 C1263 1.386 . S
C1262 C1264 1.391 . S
C1263 C1262 1.386 . S
C1263 C1267 1.393 . S
C1264 H1253 0.950 . S
C1264 C1262 1.391 . S
C1264 C1265 1.400 . S
C1265 C1259 1.491 . S
C1265 C1264 1.400 . S
C1265 C1266 1.398 . S
C1266 H1254 0.950 . S
C1266 C1265 1.398 . S
C1266 C1267 1.391 . S
C1267 H1255 0.950 . S
C1267 C1263 1.393 . S
C1267 C1266 1.391 . S
H1268 C1276 0.950 . S
H1269 C1281 0.950 . S
H1270 C1278 0.950 . S
H1271 C1280 0.950 . S
H1272 C1282 0.950 . S
H1273 C1284 0.950 . S
H1274 C1286 0.950 . S
H1275 C1287 0.950 . S
C1276 H1268 0.950 . S
C1276 C1277 1.386 . S
C1276 C1278 1.391 . S
C1277 C1276 1.386 . S
C1277 C1281 1.393 . S
C1278 H1270 0.950 . S
C1278 C1276 1.391 . S
C1278 C1279 1.400 . S
C1279 C1278 1.400 . S
C1279 C1280 1.398 . S
C1279 C1285 1.491 . S
C1280 H1271 0.950 . S
C1280 C1279 1.398 . S
C1280 C1281 1.391 . S
C1281 H1269 0.950 . S
C1281 C1277 1.393 . S
C1281 C1280 1.391 . S
C1282 H1272 0.950 . S
C1282 C1283 1.386 . S
C1282 C1284 1.391 . S
C1283 C1282 1.386 . S
C1283 C1287 1.393 . S
C1284 H1273 0.950 . S
C1284 C1282 1.391 . S
C1284 C1285 1.400 . S
C1285 C1279 1.491 . S
C1285 C1284 1.400 . S
C1285 C1286 1.398 . S
C1286 H1274 0.950 . S
C1286 C1285 1.398 . S
C1286 C1287 1.391 . S
C1287 H1275 0.950 . S
C1287 C1283 1.393 . S
C1287 C1286 1.391 . S
H1288 C1296 0.950 . S
H1289 C1301 0.950 . S
H1290 C1298 0.950 . S
H1291 C1300 0.950 . S
H1292 C1302 0.950 . S
H1293 C1304 0.950 . S
H1294 C1306 0.950 . S
H1295 C1307 0.950 . S
C1296 H1288 0.950 . S
C1296 C1297 1.386 . S
C1296 C1298 1.391 . S
C1297 C1296 1.386 . S
C1297 C1301 1.393 . S
C1298 H1290 0.950 . S
C1298 C1296 1.391 . S
C1298 C1299 1.400 . S
C1299 C1298 1.400 . S
C1299 C1300 1.398 . S
C1299 C1305 1.491 . S
C1300 H1291 0.950 . S
C1300 C1299 1.398 . S
C1300 C1301 1.391 . S
C1301 H1289 0.950 . S
C1301 C1297 1.393 . S
C1301 C1300 1.391 . S
C1302 H1292 0.950 . S
C1302 C1303 1.386 . S
C1302 C1304 1.391 . S
C1303 C1302 1.386 . S
C1303 C1307 1.393 . S
C1304 H1293 0.950 . S
C1304 C1302 1.391 . S
C1304 C1305 1.400 . S
C1305 C1299 1.491 . S
C1305 C1304 1.400 . S
C1305 C1306 1.398 . S
C1306 H1294 0.950 . S
C1306 C1305 1.398 . S
C1306 C1307 1.391 . S
C1307 H1295 0.950 . S
C1307 C1303 1.393 . S
C1307 C1306 1.391 . S
H1308 C1316 0.950 . S
H1309 C1321 0.950 . S
H1310 C1318 0.950 . S
H1311 C1320 0.950 . S
H1312 C1322 0.950 . S
H1313 C1324 0.950 . S
H1314 C1326 0.950 . S
H1315 C1327 0.950 . S
C1316 H1308 0.950 . S
C1316 C1317 1.386 . S
C1316 C1318 1.391 . S
C1317 C1316 1.386 . S
C1317 C1321 1.393 . S
C1318 H1310 0.950 . S
C1318 C1316 1.391 . S
C1318 C1319 1.400 . S
C1319 C1318 1.400 . S
C1319 C1320 1.398 . S
C1319 C1325 1.491 . S
C1320 H1311 0.950 . S
C1320 C1319 1.398 . S
C1320 C1321 1.391 . S
C1321 H1309 0.950 . S
C1321 C1317 1.393 . S
C1321 C1320 1.391 . S
C1322 H1312 0.950 . S
C1322 C1323 1.386 . S
C1322 C1324 1.391 . S
C1323 C1322 1.386 . S
C1323 C1327 1.393 . S
C1324 H1313 0.950 . S
C1324 C1322 1.391 . S
C1324 C1325 1.400 1_556 S
C1325 C1319 1.491 . S
C1325 C1324 1.400 1_554 S
C1325 C1326 1.398 . S
C1326 H1314 0.950 . S
C1326 C1325 1.398 . S
C1326 C1327 1.391 1_554 S
C1327 H1315 0.950 . S
C1327 C1323 1.393 . S
C1327 C1326 1.391 1_556 S
H1328 C1336 0.950 . S
H1329 C1341 0.950 . S
H1330 C1338 0.950 . S
H1331 C1340 0.950 . S
H1332 C1342 0.950 . S
H1333 C1344 0.950 . S
H1334 C1346 0.950 . S
H1335 C1347 0.950 . S
C1336 H1328 0.950 . S
C1336 C1337 1.386 . S
C1336 C1338 1.391 . S
C1337 C1336 1.386 . S
C1337 C1341 1.393 . S
C1338 H1330 0.950 . S
C1338 C1336 1.391 . S
C1338 C1339 1.400 . S
C1339 C1338 1.400 . S
C1339 C1340 1.398 . S
C1339 C1345 1.491 . S
C1340 H1331 0.950 . S
C1340 C1339 1.398 . S
C1340 C1341 1.391 . S
C1341 H1329 0.950 . S
C1341 C1337 1.393 . S
C1341 C1340 1.391 . S
C1342 H1332 0.950 . S
C1342 C1343 1.386 . S
C1342 C1344 1.391 . S
C1343 C1342 1.386 . S
C1343 C1347 1.393 . S
C1344 H1333 0.950 . S
C1344 C1342 1.391 . S
C1344 C1345 1.400 . S
C1345 C1339 1.491 . S
C1345 C1344 1.400 . S
C1345 C1346 1.398 . S
C1346 H1334 0.950 . S
C1346 C1345 1.398 . S
C1346 C1347 1.391 . S
C1347 H1335 0.950 . S
C1347 C1343 1.393 . S
C1347 C1346 1.391 . S
H1348 C1356 0.950 . S
H1349 C1361 0.950 . S
H1350 C1358 0.950 1_556 S
H1351 C1360 0.950 . S
H1352 C1362 0.950 . S
H1353 C1364 0.950 . S
H1354 C1366 0.950 . S
H1355 C1367 0.950 . S
C1356 H1348 0.950 . S
C1356 C1357 1.386 . S
C1356 C1358 1.391 . S
C1357 C1356 1.386 . S
C1357 C1361 1.393 . S
C1358 H1350 0.950 1_554 S
C1358 C1356 1.391 . S
C1358 C1359 1.400 1_554 S
C1359 C1358 1.400 1_556 S
C1359 C1360 1.398 1_556 S
C1359 C1365 1.491 . S
C1360 H1351 0.950 . S
C1360 C1359 1.398 1_554 S
C1360 C1361 1.391 . S
C1361 H1349 0.950 . S
C1361 C1357 1.393 . S
C1361 C1360 1.391 . S
C1362 H1352 0.950 . S
C1362 C1363 1.386 . S
C1362 C1364 1.391 . S
C1363 C1362 1.386 . S
C1363 C1367 1.393 . S
C1364 H1353 0.950 . S
C1364 C1362 1.391 . S
C1364 C1365 1.400 . S
C1365 C1359 1.491 . S
C1365 C1364 1.400 . S
C1365 C1366 1.398 . S
C1366 H1354 0.950 . S
C1366 C1365 1.398 . S
C1366 C1367 1.391 . S
C1367 H1355 0.950 . S
C1367 C1363 1.393 . S
C1367 C1366 1.391 . S
H1368 C1376 0.950 . S
H1369 C1381 0.950 . S
H1370 C1378 0.950 . S
H1371 C1380 0.950 . S
H1372 C1382 0.950 . S
H1373 C1384 0.950 . S
H1374 C1386 0.950 . S
H1375 C1387 0.950 . S
C1376 H1368 0.950 . S
C1376 C1377 1.386 . S
C1376 C1378 1.391 . S
C1377 C1376 1.386 . S
C1377 C1381 1.393 . S
C1378 H1370 0.950 . S
C1378 C1376 1.391 . S
C1378 C1379 1.400 . S
C1379 C1378 1.400 . S
C1379 C1380 1.398 . S
C1379 C1385 1.491 . S
C1380 H1371 0.950 . S
C1380 C1379 1.398 . S
C1380 C1381 1.391 . S
C1381 H1369 0.950 . S
C1381 C1377 1.393 . S
C1381 C1380 1.391 . S
C1382 H1372 0.950 . S
C1382 C1383 1.386 . S
C1382 C1384 1.391 . S
C1383 C1382 1.386 . S
C1383 C1387 1.393 . S
C1384 H1373 0.950 . S
C1384 C1382 1.391 . S
C1384 C1385 1.400 . S
C1385 C1379 1.491 . S
C1385 C1384 1.400 . S
C1385 C1386 1.398 . S
C1386 H1374 0.950 . S
C1386 C1385 1.398 . S
C1386 C1387 1.391 . S
C1387 H1375 0.950 . S
C1387 C1383 1.393 . S
C1387 C1386 1.391 . S
H1388 C1396 0.950 . S
H1389 C1401 0.950 . S
H1390 C1398 0.950 . S
H1391 C1400 0.950 . S
H1392 C1402 0.950 . S
H1393 C1404 0.950 . S
H1394 C1406 0.950 . S
H1395 C1407 0.950 . S
C1396 H1388 0.950 . S
C1396 C1397 1.386 . S
C1396 C1398 1.391 . S
C1397 C1396 1.386 . S
C1397 C1401 1.393 . S
C1398 H1390 0.950 . S
C1398 C1396 1.391 . S
C1398 C1399 1.400 . S
C1399 C1398 1.400 . S
C1399 C1400 1.398 . S
C1399 C1405 1.491 . S
C1400 H1391 0.950 . S
C1400 C1399 1.398 . S
C1400 C1401 1.391 . S
C1401 H1389 0.950 . S
C1401 C1397 1.393 . S
C1401 C1400 1.391 . S
C1402 H1392 0.950 . S
C1402 C1403 1.386 . S
C1402 C1404 1.391 . S
C1403 C1402 1.386 . S
C1403 C1407 1.393 . S
C1404 H1393 0.950 . S
C1404 C1402 1.391 . S
C1404 C1405 1.400 . S
C1405 C1399 1.491 . S
C1405 C1404 1.400 . S
C1405 C1406 1.398 . S
C1406 H1394 0.950 . S
C1406 C1405 1.398 . S
C1406 C1407 1.391 . S
C1407 H1395 0.950 . S
C1407 C1403 1.393 . S
C1407 C1406 1.391 . S
H1408 C1416 0.950 . S
H1409 C1421 0.950 . S
H1410 C1418 0.950 . S
H1411 C1420 0.950 . S
H1412 C1422 0.950 . S
H1413 C1424 0.950 . S
H1414 C1426 0.950 . S
H1415 C1427 0.950 . S
C1416 H1408 0.950 . S
C1416 C1417 1.386 . S
C1416 C1418 1.391 . S
C1417 C1416 1.386 . S
C1417 C1421 1.393 . S
C1418 H1410 0.950 . S
C1418 C1416 1.391 . S
C1418 C1419 1.400 . S
C1419 C1418 1.400 . S
C1419 C1420 1.398 . S
C1419 C1425 1.491 . S
C1420 H1411 0.950 . S
C1420 C1419 1.398 . S
C1420 C1421 1.391 . S
C1421 H1409 0.950 . S
C1421 C1417 1.393 . S
C1421 C1420 1.391 . S
C1422 H1412 0.950 . S
C1422 C1423 1.386 . S
C1422 C1424 1.391 . S
C1423 C1422 1.386 . S
C1423 C1427 1.393 . S
C1424 H1413 0.950 . S
C1424 C1422 1.391 . S
C1424 C1425 1.400 . S
C1425 C1419 1.491 . S
C1425 C1424 1.400 . S
C1425 C1426 1.398 . S
C1426 H1414 0.950 . S
C1426 C1425 1.398 . S
C1426 C1427 1.391 . S
C1427 H1415 0.950 . S
C1427 C1423 1.393 . S
C1427 C1426 1.391 . S
H1428 C1436 0.950 . S
H1429 C1441 0.950 . S
H1430 C1438 0.950 . S
H1431 C1440 0.950 . S
H1432 C1442 0.950 . S
H1433 C1444 0.950 . S
H1434 C1446 0.950 1_545 S
H1435 C1447 0.950 . S
C1436 H1428 0.950 . S
C1436 C1437 1.386 . S
C1436 C1438 1.391 . S
C1437 C1436 1.386 . S
C1437 C1441 1.393 . S
C1438 H1430 0.950 . S
C1438 C1436 1.391 . S
C1438 C1439 1.400 . S
C1439 C1438 1.400 . S
C1439 C1440 1.398 . S
C1439 C1445 1.491 . S
C1440 H1431 0.950 . S
C1440 C1439 1.398 . S
C1440 C1441 1.391 . S
C1441 H1429 0.950 . S
C1441 C1437 1.393 . S
C1441 C1440 1.391 . S
C1442 H1432 0.950 . S
C1442 C1443 1.386 . S
C1442 C1444 1.391 . S
C1443 C1442 1.386 . S
C1443 C1447 1.393 . S
C1444 H1433 0.950 . S
C1444 C1442 1.391 . S
C1444 C1445 1.400 1_565 S
C1445 C1439 1.491 . S
C1445 C1444 1.400 1_545 S
C1445 C1446 1.398 1_545 S
C1446 H1434 0.950 1_565 S
C1446 C1445 1.398 1_565 S
C1446 C1447 1.391 . S
C1447 H1435 0.950 . S
C1447 C1443 1.393 . S
C1447 C1446 1.391 . S
H1448 C1456 0.950 . S
H1449 C1461 0.950 . S
H1450 C1458 0.950 . S
H1451 C1460 0.950 . S
H1452 C1462 0.950 . S
H1453 C1464 0.950 . S
H1454 C1466 0.950 . S
H1455 C1467 0.950 . S
C1456 H1448 0.950 . S
C1456 C1457 1.386 . S
C1456 C1458 1.391 . S
C1457 C1456 1.386 . S
C1457 C1461 1.393 . S
C1458 H1450 0.950 . S
C1458 C1456 1.391 . S
C1458 C1459 1.400 . S
C1459 C1458 1.400 . S
C1459 C1460 1.398 . S
C1459 C1465 1.491 . S
C1460 H1451 0.950 . S
C1460 C1459 1.398 . S
C1460 C1461 1.391 . S
C1461 H1449 0.950 . S
C1461 C1457 1.393 . S
C1461 C1460 1.391 . S
C1462 H1452 0.950 . S
C1462 C1463 1.386 . S
C1462 C1464 1.391 . S
C1463 C1462 1.386 . S
C1463 C1467 1.393 . S
C1464 H1453 0.950 . S
C1464 C1462 1.391 . S
C1464 C1465 1.400 . S
C1465 C1459 1.491 . S
C1465 C1464 1.400 . S
C1465 C1466 1.398 . S
C1466 H1454 0.950 . S
C1466 C1465 1.398 . S
C1466 C1467 1.391 . S
C1467 H1455 0.950 . S
C1467 C1463 1.393 . S
C1467 C1466 1.391 . S
H1468 C1476 0.950 . S
H1469 C1481 0.950 . S
H1470 C1478 0.950 1_565 S
H1471 C1480 0.950 . S
H1472 C1482 0.950 . S
H1473 C1484 0.950 . S
H1474 C1486 0.950 . S
H1475 C1487 0.950 . S
C1476 H1468 0.950 . S
C1476 C1477 1.386 . S
C1476 C1478 1.391 . S
C1477 C1476 1.386 . S
C1477 C1481 1.393 . S
C1478 H1470 0.950 1_545 S
C1478 C1476 1.391 . S
C1478 C1479 1.400 1_545 S
C1479 C1478 1.400 1_565 S
C1479 C1480 1.398 1_565 S
C1479 C1485 1.491 . S
C1480 H1471 0.950 . S
C1480 C1479 1.398 1_545 S
C1480 C1481 1.391 . S
C1481 H1469 0.950 . S
C1481 C1477 1.393 . S
C1481 C1480 1.391 . S
C1482 H1472 0.950 . S
C1482 C1483 1.386 . S
C1482 C1484 1.391 . S
C1483 C1482 1.386 . S
C1483 C1487 1.393 . S
C1484 H1473 0.950 . S
C1484 C1482 1.391 . S
C1484 C1485 1.400 . S
C1485 C1479 1.491 . S
C1485 C1484 1.400 . S
C1485 C1486 1.398 . S
C1486 H1474 0.950 . S
C1486 C1485 1.398 . S
C1486 C1487 1.391 . S
C1487 H1475 0.950 . S
C1487 C1483 1.393 . S
C1487 C1486 1.391 . S
H1488 C1496 0.950 . S
H1489 C1501 0.950 . S
H1490 C1498 0.950 . S
H1491 C1500 0.950 . S
H1492 C1502 0.950 . S
H1493 C1504 0.950 . S
H1494 C1506 0.950 . S
H1495 C1507 0.950 . S
C1496 H1488 0.950 . S
C1496 C1497 1.386 . S
C1496 C1498 1.391 . S
C1497 C1496 1.386 . S
C1497 C1501 1.393 . S
C1498 H1490 0.950 . S
C1498 C1496 1.391 . S
C1498 C1499 1.400 . S
C1499 C1498 1.400 . S
C1499 C1500 1.398 . S
C1499 C1505 1.491 . S
C1500 H1491 0.950 . S
C1500 C1499 1.398 . S
C1500 C1501 1.391 . S
C1501 H1489 0.950 . S
C1501 C1497 1.393 . S
C1501 C1500 1.391 . S
C1502 H1492 0.950 . S
C1502 C1503 1.386 . S
C1502 C1504 1.391 . S
C1503 C1502 1.386 . S
C1503 C1507 1.393 . S
C1504 H1493 0.950 . S
C1504 C1502 1.391 . S
C1504 C1505 1.400 . S
C1505 C1499 1.491 . S
C1505 C1504 1.400 . S
C1505 C1506 1.398 . S
C1506 H1494 0.950 . S
C1506 C1505 1.398 . S
C1506 C1507 1.391 . S
C1507 H1495 0.950 . S
C1507 C1503 1.393 . S
C1507 C1506 1.391 . S
H1508 C1516 0.950 1_455 S
H1509 C1521 0.950 . S
H1510 C1518 0.950 . S
H1511 C1520 0.950 . S
H1512 C1522 0.950 . S
H1513 C1524 0.950 . S
H1514 C1526 0.950 . S
H1515 C1527 0.950 . S
C1516 H1508 0.950 1_655 S
C1516 C1517 1.386 . S
C1516 C1518 1.391 . S
C1517 C1516 1.386 . S
C1517 C1521 1.393 . S
C1518 H1510 0.950 . S
C1518 C1516 1.391 . S
C1518 C1519 1.400 . S
C1519 C1518 1.400 . S
C1519 C1520 1.398 . S
C1519 C1525 1.491 . S
C1520 H1511 0.950 . S
C1520 C1519 1.398 . S
C1520 C1521 1.391 . S
C1521 H1509 0.950 . S
C1521 C1517 1.393 . S
C1521 C1520 1.391 . S
C1522 H1512 0.950 . S
C1522 C1523 1.386 . S
C1522 C1524 1.391 . S
C1523 C1522 1.386 . S
C1523 C1527 1.393 . S
C1524 H1513 0.950 . S
C1524 C1522 1.391 . S
C1524 C1525 1.400 . S
C1525 C1519 1.491 . S
C1525 C1524 1.400 . S
C1525 C1526 1.398 . S
C1526 H1514 0.950 . S
C1526 C1525 1.398 . S
C1526 C1527 1.391 . S
C1527 H1515 0.950 . S
C1527 C1523 1.393 . S
C1527 C1526 1.391 . S
H1528 C1536 0.950 . S
H1529 C1541 0.950 . S
H1530 C1538 0.950 . S
H1531 C1540 0.950 . S
H1532 C1542 0.950 . S
H1533 C1544 0.950 . S
H1534 C1546 0.950 . S
H1535 C1547 0.950 . S
C1536 H1528 0.950 . S
C1536 C1537 1.386 . S
C1536 C1538 1.391 . S
C1537 C1536 1.386 . S
C1537 C1541 1.393 . S
C1538 H1530 0.950 . S
C1538 C1536 1.391 . S
C1538 C1539 1.400 . S
C1539 C1538 1.400 . S
C1539 C1540 1.398 . S
C1539 C1545 1.491 . S
C1540 H1531 0.950 . S
C1540 C1539 1.398 . S
C1540 C1541 1.391 . S
C1541 H1529 0.950 . S
C1541 C1537 1.393 . S
C1541 C1540 1.391 . S
C1542 H1532 0.950 . S
C1542 C1543 1.386 . S
C1542 C1544 1.391 . S
C1543 C1542 1.386 . S
C1543 C1547 1.393 . S
C1544 H1533 0.950 . S
C1544 C1542 1.391 . S
C1544 C1545 1.400 . S
C1545 C1539 1.491 . S
C1545 C1544 1.400 . S
C1545 C1546 1.398 . S
C1546 H1534 0.950 . S
C1546 C1545 1.398 . S
C1546 C1547 1.391 . S
C1547 H1535 0.950 . S
C1547 C1543 1.393 . S
C1547 C1546 1.391 . S
H1548 C1556 0.950 . S
H1549 C1561 0.950 . S
H1550 C1558 0.950 . S
H1551 C1560 0.950 . S
H1552 C1562 0.950 . S
H1553 C1564 0.950 . S
H1554 C1566 0.950 . S
H1555 C1567 0.950 . S
C1556 H1548 0.950 . S
C1556 C1557 1.386 . S
C1556 C1558 1.391 . S
C1557 C1556 1.386 . S
C1557 C1561 1.393 . S
C1558 H1550 0.950 . S
C1558 C1556 1.391 . S
C1558 C1559 1.400 . S
C1559 C1558 1.400 . S
C1559 C1560 1.398 . S
C1559 C1565 1.491 . S
C1560 H1551 0.950 . S
C1560 C1559 1.398 . S
C1560 C1561 1.391 . S
C1561 H1549 0.950 . S
C1561 C1557 1.393 . S
C1561 C1560 1.391 . S
C1562 H1552 0.950 . S
C1562 C1563 1.386 . S
C1562 C1564 1.391 . S
C1563 C1562 1.386 . S
C1563 C1567 1.393 . S
C1564 H1553 0.950 . S
C1564 C1562 1.391 . S
C1564 C1565 1.400 . S
C1565 C1559 1.491 . S
C1565 C1564 1.400 . S
C1565 C1566 1.398 . S
C1566 H1554 0.950 . S
C1566 C1565 1.398 . S
C1566 C1567 1.391 . S
C1567 H1555 0.950 . S
C1567 C1563 1.393 . S
C1567 C1566 1.391 . S
H1568 C1576 0.950 . S
H1569 C1581 0.950 . S
H1570 C1578 0.950 . S
H1571 C1580 0.950 . S
H1572 C1582 0.950 . S
H1573 C1584 0.950 . S
H1574 C1586 0.950 . S
H1575 C1587 0.950 . S
C1576 H1568 0.950 . S
C1576 C1577 1.386 . S
C1576 C1578 1.391 . S
C1577 C1576 1.386 . S
C1577 C1581 1.393 . S
C1578 H1570 0.950 . S
C1578 C1576 1.391 . S
C1578 C1579 1.400 . S
C1579 C1578 1.400 . S
C1579 C1580 1.398 . S
C1579 C1585 1.491 . S
C1580 H1571 0.950 . S
C1580 C1579 1.398 . S
C1580 C1581 1.391 . S
C1581 H1569 0.950 . S
C1581 C1577 1.393 . S
C1581 C1580 1.391 . S
C1582 H1572 0.950 . S
C1582 C1583 1.386 . S
C1582 C1584 1.391 . S
C1583 C1582 1.386 . S
C1583 C1587 1.393 . S
C1584 H1573 0.950 . S
C1584 C1582 1.391 . S
C1584 C1585 1.400 . S
C1585 C1579 1.491 . S
C1585 C1584 1.400 . S
C1585 C1586 1.398 . S
C1586 H1574 0.950 . S
C1586 C1585 1.398 . S
C1586 C1587 1.391 . S
C1587 H1575 0.950 . S
C1587 C1583 1.393 . S
C1587 C1586 1.391 . S
H1588 C1596 0.950 . S
H1589 C1601 0.950 . S
H1590 C1598 0.950 . S
H1591 C1600 0.950 . S
H1592 C1602 0.950 . S
H1593 C1604 0.950 . S
H1594 C1606 0.950 . S
H1595 C1607 0.950 . S
C1596 H1588 0.950 . S
C1596 C1597 1.386 . S
C1596 C1598 1.391 . S
C1597 C1596 1.386 . S
C1597 C1601 1.393 . S
C1598 H1590 0.950 . S
C1598 C1596 1.391 . S
C1598 C1599 1.400 . S
C1599 C1598 1.400 . S
C1599 C1600 1.398 . S
C1599 C1605 1.491 . S
C1600 H1591 0.950 . S
C1600 C1599 1.398 . S
C1600 C1601 1.391 . S
C1601 H1589 0.950 . S
C1601 C1597 1.393 . S
C1601 C1600 1.391 . S
C1602 H1592 0.950 . S
C1602 C1603 1.386 . S
C1602 C1604 1.391 . S
C1603 C1602 1.386 . S
C1603 C1607 1.393 . S
C1604 H1593 0.950 . S
C1604 C1602 1.391 . S
C1604 C1605 1.400 . S
C1605 C1599 1.491 . S
C1605 C1604 1.400 . S
C1605 C1606 1.398 . S
C1606 H1594 0.950 . S
C1606 C1605 1.398 . S
C1606 C1607 1.391 . S
C1607 H1595 0.950 . S
C1607 C1603 1.393 . S
C1607 C1606 1.391 . S
H1608 C1616 0.950 . S
H1609 C1621 0.950 . S
H1610 C1618 0.950 . S
H1611 C1620 0.950 . S
H1612 C1622 0.950 . S
H1613 C1624 0.950 . S
H1614 C1626 0.950 . S
H1615 C1627 0.950 . S
C1616 H1608 0.950 . S
C1616 C1617 1.386 . S
C1616 C1618 1.391 . S
C1617 C1616 1.386 . S
C1617 C1621 1.393 . S
C1618 H1610 0.950 . S
C1618 C1616 1.391 . S
C1618 C1619 1.400 . S
C1619 C1618 1.400 . S
C1619 C1620 1.398 . S
C1619 C1625 1.491 . S
C1620 H1611 0.950 . S
C1620 C1619 1.398 . S
C1620 C1621 1.391 . S
C1621 H1609 0.950 . S
C1621 C1617 1.393 . S
C1621 C1620 1.391 . S
C1622 H1612 0.950 . S
C1622 C1623 1.386 . S
C1622 C1624 1.391 . S
C1623 C1622 1.386 . S
C1623 C1627 1.393 . S
C1624 H1613 0.950 . S
C1624 C1622 1.391 . S
C1624 C1625 1.400 1_655 S
C1625 C1619 1.491 . S
C1625 C1624 1.400 1_455 S
C1625 C1626 1.398 . S
C1626 H1614 0.950 . S
C1626 C1625 1.398 . S
C1626 C1627 1.391 1_455 S
C1627 H1615 0.950 . S
C1627 C1623 1.393 . S
C1627 C1626 1.391 1_655 S
H1628 C1636 0.950 . S
H1629 C1641 0.950 . S
H1630 C1638 0.950 . S
H1631 C1640 0.950 . S
H1632 C1642 0.950 . S
H1633 C1644 0.950 . S
H1634 C1646 0.950 . S
H1635 C1647 0.950 . S
C1636 H1628 0.950 . S
C1636 C1637 1.386 . S
C1636 C1638 1.391 . S
C1637 C1636 1.386 . S
C1637 C1641 1.393 . S
C1638 H1630 0.950 . S
C1638 C1636 1.391 . S
C1638 C1639 1.400 . S
C1639 C1638 1.400 . S
C1639 C1640 1.398 . S
C1639 C1645 1.491 . S
C1640 H1631 0.950 . S
C1640 C1639 1.398 . S
C1640 C1641 1.391 . S
C1641 H1629 0.950 . S
C1641 C1637 1.393 . S
C1641 C1640 1.391 . S
C1642 H1632 0.950 . S
C1642 C1643 1.386 . S
C1642 C1644 1.391 . S
C1643 C1642 1.386 . S
C1643 C1647 1.393 . S
C1644 H1633 0.950 . S
C1644 C1642 1.391 . S
C1644 C1645 1.400 . S
C1645 C1639 1.491 . S
C1645 C1644 1.400 . S
C1645 C1646 1.398 . S
C1646 H1634 0.950 . S
C1646 C1645 1.398 . S
C1646 C1647 1.391 . S
C1647 H1635 0.950 . S
C1647 C1643 1.393 . S
C1647 C1646 1.391 . S
H1648 C1656 0.950 . S
H1649 C1661 0.950 . S
H1650 C1658 0.950 . S
H1651 C1660 0.950 . S
H1652 C1662 0.950 . S
H1653 C1664 0.950 . S
H1654 C1666 0.950 . S
H1655 C1667 0.950 . S
C1656 H1648 0.950 . S
C1656 C1657 1.386 . S
C1656 C1658 1.391 . S
C1657 C1656 1.386 . S
C1657 C1661 1.393 . S
C1658 H1650 0.950 . S
C1658 C1656 1.391 . S
C1658 C1659 1.400 . S
C1659 C1658 1.400 . S
C1659 C1660 1.398 . S
C1659 C1665 1.491 . S
C1660 H1651 0.950 . S
C1660 C1659 1.398 . S
C1660 C1661 1.391 . S
C1661 H1649 0.950 . S
C1661 C1657 1.393 . S
C1661 C1660 1.391 . S
C1662 H1652 0.950 . S
C1662 C1663 1.386 . S
C1662 C1664 1.391 . S
C1663 C1662 1.386 . S
C1663 C1667 1.393 . S
C1664 H1653 0.950 . S
C1664 C1662 1.391 . S
C1664 C1665 1.400 . S
C1665 C1659 1.491 . S
C1665 C1664 1.400 . S
C1665 C1666 1.398 . S
C1666 H1654 0.950 . S
C1666 C1665 1.398 . S
C1666 C1667 1.391 . S
C1667 H1655 0.950 . S
C1667 C1663 1.393 . S
C1667 C1666 1.391 . S
H1668 C1676 0.950 . S
H1669 C1681 0.950 . S
H1670 C1678 0.950 . S
H1671 C1680 0.950 . S
H1672 C1682 0.950 . S
H1673 C1684 0.950 . S
H1674 C1686 0.950 . S
H1675 C1687 0.950 . S
C1676 H1668 0.950 . S
C1676 C1677 1.386 . S
C1676 C1678 1.391 . S
C1677 C1676 1.386 . S
C1677 C1681 1.393 . S
C1678 H1670 0.950 . S
C1678 C1676 1.391 . S
C1678 C1679 1.400 . S
C1679 C1678 1.400 . S
C1679 C1680 1.398 . S
C1679 C1685 1.491 . S
C1680 H1671 0.950 . S
C1680 C1679 1.398 . S
C1680 C1681 1.391 . S
C1681 H1669 0.950 . S
C1681 C1677 1.393 . S
C1681 C1680 1.391 . S
C1682 H1672 0.950 . S
C1682 C1683 1.386 . S
C1682 C1684 1.391 . S
C1683 C1682 1.386 . S
C1683 C1687 1.393 . S
C1684 H1673 0.950 . S
C1684 C1682 1.391 . S
C1684 C1685 1.400 . S
C1685 C1679 1.491 . S
C1685 C1684 1.400 . S
C1685 C1686 1.398 . S
C1686 H1674 0.950 . S
C1686 C1685 1.398 . S
C1686 C1687 1.391 . S
C1687 H1675 0.950 . S
C1687 C1683 1.393 . S
C1687 C1686 1.391 . S
H1688 C1696 0.950 . S
H1689 C1701 0.950 . S
H1690 C1698 0.950 . S
H1691 C1700 0.950 . S
H1692 C1702 0.950 . S
H1693 C1704 0.950 . S
H1694 C1706 0.950 . S
H1695 C1707 0.950 . S
C1696 H1688 0.950 . S
C1696 C1697 1.386 . S
C1696 C1698 1.391 . S
C1697 C1696 1.386 . S
C1697 C1701 1.393 . S
C1698 H1690 0.950 . S
C1698 C1696 1.391 . S
C1698 C1699 1.400 . S
C1699 C1698 1.400 . S
C1699 C1700 1.398 . S
C1699 C1705 1.491 . S
C1700 H1691 0.950 . S
C1700 C1699 1.398 . S
C1700 C1701 1.391 . S
C1701 H1689 0.950 . S
C1701 C1697 1.393 . S
C1701 C1700 1.391 . S
C1702 H1692 0.950 . S
C1702 C1703 1.386 . S
C1702 C1704 1.391 . S
C1703 C1702 1.386 . S
C1703 C1707 1.393 . S
C1704 H1693 0.950 . S
C1704 C1702 1.391 . S
C1704 C1705 1.400 . S
C1705 C1699 1.491 . S
C1705 C1704 1.400 . S
C1705 C1706 1.398 . S
C1706 H1694 0.950 . S
C1706 C1705 1.398 . S
C1706 C1707 1.391 . S
C1707 H1695 0.950 . S
C1707 C1703 1.393 . S
C1707 C1706 1.391 . S
H1708 C1716 0.950 . S
H1709 C1721 0.950 . S
H1710 C1718 0.950 . S
H1711 C1720 0.950 . S
H1712 C1722 0.950 . S
H1713 C1724 0.950 . S
H1714 C1726 0.950 . S
H1715 C1727 0.950 . S
C1716 H1708 0.950 . S
C1716 C1717 1.386 . S
C1716 C1718 1.391 . S
C1717 C1716 1.386 . S
C1717 C1721 1.393 . S
C1718 H1710 0.950 . S
C1718 C1716 1.391 . S
C1718 C1719 1.400 . S
C1719 C1718 1.400 . S
C1719 C1720 1.398 . S
C1719 C1725 1.491 . S
C1720 H1711 0.950 . S
C1720 C1719 1.398 . S
C1720 C1721 1.391 . S
C1721 H1709 0.950 . S
C1721 C1717 1.393 . S
C1721 C1720 1.391 . S
C1722 H1712 0.950 . S
C1722 C1723 1.386 . S
C1722 C1724 1.391 . S
C1723 C1722 1.386 . S
C1723 C1727 1.393 . S
C1724 H1713 0.950 . S
C1724 C1722 1.391 . S
C1724 C1725 1.400 1_455 S
C1725 C1719 1.491 . S
C1725 C1724 1.400 1_655 S
C1725 C1726 1.398 1_655 S
C1726 H1714 0.950 . S
C1726 C1725 1.398 1_455 S
C1726 C1727 1.391 . S
C1727 H1715 0.950 . S
C1727 C1723 1.393 . S
C1727 C1726 1.391 . S
C1017 C67 1.542 . S
C1023 C987 1.584 . S
C1037 C819 1.542 . S
C1043 C147 1.582 . S
C1057 C231 1.488 . S
C1063 C735 1.482 . S
C1077 C315 1.537 . S
C1083 C903 1.534 . S
C1097 C399 1.664 . S
C1103 C907 1.587 . S
C1117 C487 1.635 . S
C1123 C991 1.630 . S
C1137 C823 1.572 . S
C1143 C567 1.604 . S
C1157 C651 1.567 . S
C1163 C739 1.540 . S
C1177 C319 1.657 . S
C1183 C403 1.662 . S
C1197 C63 1.563 . S
C1203 C483 1.556 . S
C1217 C151 1.630 1_655 S
C1223 C571 1.653 . S
C1237 C655 1.642 . S
C1243 C235 1.651 . S
C1257 C70 1.641 . S
C1263 C746 1.784 . S
C1277 C142 1.438 . S
C1283 C914 1.613 . S
C1297 C998 1.684 . S
C1303 C226 1.482 . S
C1317 C310 1.520 . S
C1323 C830 1.716 . S
C1337 C394 1.502 . S
C1343 C812 1.700 . S
C1357 C728 1.864 . S
C1363 C490 1.716 . S
C1377 C896 1.799 . S
C1383 C562 1.545 . S
C1397 C980 1.760 . S
C1403 C646 1.550 . S
C1417 C74 1.776 . S
C1423 C322 1.670 . S
C1437 C58 1.603 . S
C1443 C140 1.819 . S
C1457 C154 1.751 . S
C1463 C224 1.896 . S
C1477 C308 1.864 . S
C1483 C238 1.721 . S
C1497 C478 1.467 . S
C1503 C392 1.695 . S
C1517 C494 1.650 . S
C1523 C574 1.532 . S
C1537 C560 1.730 . S
C1543 C658 1.610 . S
C1557 C406 1.613 . S
C1563 C644 1.759 . S
C1577 C742 1.605 . S
C1583 C326 1.704 . S
C1597 C476 1.741 . S
C1603 C814 1.506 . S
C1617 C730 1.497 . S
C1623 C578 1.694 . S
C1637 C898 1.402 . S
C1643 C662 1.637 . S
C1657 C410 1.610 . S
C1663 C982 1.432 . S
C1677 C994 1.521 . S
C1683 C158 1.615 . S
C1697 C242 1.634 . S
C1703 C826 1.535 . S
C1717 C910 1.628 . S
C1723 C56 1.757 . S
