# Generated by pormake.
# Topology wht, (6)-cn, num edge types: 1
# Building blocks:
#     Node 0, Type 0, BuildingBlock: IZENUY_clean_sbu_0, # of connection points: 6
#     Node 1, Type 0, BuildingBlock: IZENUY_clean_sbu_0, # of connection points: 6
#     Node 2, Type 0, BuildingBlock: IZENUY_clean_sbu_0, # of connection points: 6
#     Node 3, Type 0, BuildingBlock: IZENUY_clean_sbu_0, # of connection points: 6
#     Node 4, Type 0, BuildingBlock: IZENUY_clean_sbu_0, # of connection points: 6
#     Node 5, Type 0, BuildingBlock: IZENUY_clean_sbu_0, # of connection points: 6
#     Node 6, Type 0, BuildingBlock: IZENUY_clean_sbu_0, # of connection points: 6
#     Node 7, Type 0, BuildingBlock: IZENUY_clean_sbu_0, # of connection points: 6
#     Edge 8, Type (0, 0), BuildingBlock: XIVTED_clean_linker_0, # of connection points: 2
#     Edge 9, Type (0, 0), BuildingBlock: XIVTED_clean_linker_0, # of connection points: 2
#     Edge 10, Type (0, 0), BuildingBlock: XIVTED_clean_linker_0, # of connection points: 2
#     Edge 11, Type (0, 0), BuildingBlock: XIVTED_clean_linker_0, # of connection points: 2
#     Edge 12, Type (0, 0), BuildingBlock: XIVTED_clean_linker_0, # of connection points: 2
#     Edge 13, Type (0, 0), BuildingBlock: XIVTED_clean_linker_0, # of connection points: 2
#     Edge 14, Type (0, 0), BuildingBlock: XIVTED_clean_linker_0, # of connection points: 2
#     Edge 15, Type (0, 0), BuildingBlock: XIVTED_clean_linker_0, # of connection points: 2
#     Edge 16, Type (0, 0), BuildingBlock: XIVTED_clean_linker_0, # of connection points: 2
#     Edge 17, Type (0, 0), BuildingBlock: XIVTED_clean_linker_0, # of connection points: 2
#     Edge 18, Type (0, 0), BuildingBlock: XIVTED_clean_linker_0, # of connection points: 2
#     Edge 19, Type (0, 0), BuildingBlock: XIVTED_clean_linker_0, # of connection points: 2
#     Edge 20, Type (0, 0), BuildingBlock: XIVTED_clean_linker_0, # of connection points: 2
#     Edge 21, Type (0, 0), BuildingBlock: XIVTED_clean_linker_0, # of connection points: 2
#     Edge 22, Type (0, 0), BuildingBlock: XIVTED_clean_linker_0, # of connection points: 2
#     Edge 23, Type (0, 0), BuildingBlock: XIVTED_clean_linker_0, # of connection points: 2
#     Edge 24, Type (0, 0), BuildingBlock: XIVTED_clean_linker_0, # of connection points: 2
#     Edge 25, Type (0, 0), BuildingBlock: XIVTED_clean_linker_0, # of connection points: 2
#     Edge 26, Type (0, 0), BuildingBlock: XIVTED_clean_linker_0, # of connection points: 2
#     Edge 27, Type (0, 0), BuildingBlock: XIVTED_clean_linker_0, # of connection points: 2
#     Edge 28, Type (0, 0), BuildingBlock: XIVTED_clean_linker_0, # of connection points: 2
#     Edge 29, Type (0, 0), BuildingBlock: XIVTED_clean_linker_0, # of connection points: 2
#     Edge 30, Type (0, 0), BuildingBlock: XIVTED_clean_linker_0, # of connection points: 2
#     Edge 31, Type (0, 0), BuildingBlock: XIVTED_clean_linker_0, # of connection points: 2
# Relax obj value: 0.256
# Max RMSD: 0.239
# Mean RMSD: 0.239
data_MOF--net-wht--node1-IZENUY_clean_sbu_0--edge1-XIVTED_clean_linker_0
_symmetry_space_group_name_H-M    P1
_symmetry_Int_Tables_number       1
_symmetry_cell_setting            triclinic
loop_
_symmetry_equiv_pos_as_xyz
'x, y, z'
_cell_length_a     26.429137
_cell_length_b     26.390519
_cell_length_c     47.14964
_cell_angle_alpha  90.069673
_cell_angle_beta   90.090467
_cell_angle_gamma 90.191479
loop_
_atom_site_label
_atom_site_type_symbol
_atom_site_fract_x
_atom_site_fract_y
_atom_site_fract_z
_atom_type_partial_charge
Fe0 Fe 0.0866 0.20898 0.13501 0.0
Fe1 Fe 0.18219 0.26791 0.15043 0.0
O2 O 0.11554 0.26147 0.15186 0.0
Fe3 Fe 0.0772 0.30697 0.1691 0.0
O4 O 0.04108 0.31901 0.13702 0.0
O5 O 0.0256 0.2395 0.12805 0.0
O6 O 0.10748 0.23164 0.10087 0.0
C7 C 0.15336 0.23977 0.09495 0.0
C8 C 0.03627 0.21032 0.185 0.0
O9 O 0.18694 0.24159 0.11425 0.0
C10 C 0.15734 0.30299 0.20616 0.0
O11 O 0.14157 0.167 0.13786 0.0
O12 O 0.19242 0.20638 0.16697 0.0
O13 O 0.03154 0.25832 0.18241 0.0
O14 O 0.06492 0.18553 0.16866 0.0
C15 C 0.15187 0.36611 0.1404 0.0
O16 O 0.18822 0.2973 0.18582 0.0
O17 O 0.11032 0.29921 0.20227 0.0
C18 C 0.17951 0.16638 0.15421 0.0
O19 O 0.17757 0.32822 0.13339 0.0
O20 O 0.11679 0.36251 0.15876 0.0
C21 C 0.01658 0.28571 0.12371 0.0
Fe22 Fe 0.25865 0.68034 0.39942 0.0
Fe23 Fe 0.22048 0.57448 0.41736 0.0
O24 O 0.26792 0.61409 0.40245 0.0
Fe25 Fe 0.32458 0.58674 0.38997 0.0
O26 O 0.3115 0.60707 0.35439 0.0
O27 O 0.29236 0.68591 0.36542 0.0
O28 O 0.20283 0.67113 0.37845 0.0
C29 C 0.16408 0.64627 0.38498 0.0
C30 C 0.35867 0.68189 0.41181 0.0
O31 O 0.16596 0.61291 0.40441 0.0
C32 C 0.3134 0.53483 0.43905 0.0
O33 O 0.22225 0.6856 0.43278 0.0
O34 O 0.22282 0.60838 0.45055 0.0
O35 O 0.36422 0.64272 0.39667 0.0
O36 O 0.31522 0.69558 0.41958 0.0
C37 C 0.25098 0.5153 0.37314 0.0
O38 O 0.2666 0.52898 0.4332 0.0
O39 O 0.34022 0.56532 0.42503 0.0
C40 C 0.21639 0.6554 0.45352 0.0
O41 O 0.21482 0.5381 0.38487 0.0
O42 O 0.29616 0.52538 0.38012 0.0
C43 C 0.30364 0.65233 0.34725 0.0
Fe44 Fe 0.93382 0.82154 0.63683 0.0
Fe45 Fe 0.84109 0.75537 0.64782 0.0
O46 O 0.90716 0.76531 0.65058 0.0
Fe47 Fe 0.94671 0.71884 0.66616 0.0
O48 O 0.98333 0.71226 0.63393 0.0
O49 O 0.995 0.79348 0.62713 0.0
O50 O 0.91266 0.80549 0.60151 0.0
C51 C 0.86713 0.79701 0.59517 0.0
C52 C 0.98636 0.81339 0.68613 0.0
O53 O 0.83427 0.78951 0.61418 0.0
C54 C 0.86566 0.71353 0.70177 0.0
O55 O 0.87757 0.86072 0.64359 0.0
O56 O 0.8269 0.81169 0.66823 0.0
O57 O 0.99162 0.76608 0.68153 0.0
O58 O 0.95634 0.8395 0.67139 0.0
C59 C 0.87608 0.66147 0.63345 0.0
O60 O 0.83624 0.71839 0.68071 0.0
O61 O 0.91249 0.72167 0.69935 0.0
C62 C 0.83977 0.85518 0.65983 0.0
O63 O 0.85053 0.69967 0.62675 0.0
O64 O 0.90861 0.66385 0.65335 0.0
C65 C 1.00548 0.74795 0.62128 0.0
Fe66 Fe 0.80098 0.44836 0.91378 0.0
Fe67 Fe 0.69808 0.42146 0.88682 0.0
O68 O 0.75616 0.40253 0.90224 0.0
Fe69 Fe 0.77054 0.33722 0.90556 0.0
O70 O 0.83858 0.34553 0.90211 0.0
O71 O 0.84862 0.42423 0.88885 0.0
O72 O 0.78515 0.49574 0.88689 0.0
C73 C 0.76258 0.49164 0.86335 0.0
C74 C 0.80468 0.37254 0.95638 0.0
O75 O 0.72993 0.45747 0.85936 0.0
C76 C 0.66416 0.33838 0.915 0.0
O77 O 0.75598 0.47551 0.93885 0.0
O78 O 0.69109 0.47772 0.90931 0.0
O79 O 0.77443 0.34246 0.944 0.0
O80 O 0.8246 0.40928 0.94307 0.0
C81 C 0.73002 0.34014 0.85225 0.0
O82 O 0.66109 0.38599 0.91274 0.0
O83 O 0.70508 0.31617 0.90916 0.0
C84 C 0.71235 0.49126 0.93221 0.0
O85 O 0.6956 0.36886 0.86158 0.0
O86 O 0.7679 0.32871 0.86725 0.0
C87 C 0.86178 0.37829 0.8877 0.0
Fe88 Fe 0.57701 0.21839 0.577 0.0
Fe89 Fe 0.59261 0.321 0.60609 0.0
O90 O 0.61804 0.26436 0.59222 0.0
Fe91 Fe 0.68406 0.25356 0.59452 0.0
O92 O 0.67423 0.19746 0.61505 0.0
O93 O 0.61425 0.16266 0.58924 0.0
O94 O 0.54125 0.2124 0.6096 0.0
C95 C 0.51969 0.24854 0.62208 0.0
C96 C 0.65675 0.21259 0.54029 0.0
O97 O 0.53092 0.29381 0.61593 0.0
C98 C 0.68691 0.35374 0.58311 0.0
O99 O 0.53262 0.26636 0.56204 0.0
O100 O 0.57011 0.33921 0.57157 0.0
O101 O 0.68748 0.21761 0.56088 0.0
O102 O 0.61013 0.2207 0.54355 0.0
C103 C 0.65887 0.29462 0.64784 0.0
O104 O 0.64938 0.35949 0.59942 0.0
O105 O 0.69929 0.31025 0.57465 0.0
C106 C 0.53894 0.31352 0.55719 0.0
O107 O 0.6138 0.30471 0.64124 0.0
O108 O 0.69181 0.28635 0.62886 0.0
C109 C 0.64766 0.15971 0.60861 0.0
Fe110 Fe 0.25427 0.19031 0.83919 0.0
Fe111 Fe 0.29647 0.08389 0.8261 0.0
O112 O 0.24796 0.12341 0.8395 0.0
Fe113 Fe 0.19285 0.09596 0.85411 0.0
O114 O 0.20801 0.122 0.88841 0.0
O115 O 0.21977 0.19967 0.87277 0.0
O116 O 0.31002 0.18732 0.86054 0.0
C117 C 0.34936 0.16224 0.85588 0.0
C118 C 0.15485 0.18483 0.82716 0.0
O119 O 0.34924 0.12584 0.8381 0.0
C120 C 0.2041 0.03913 0.80653 0.0
O121 O 0.29123 0.1926 0.80605 0.0
O122 O 0.29366 0.11339 0.79162 0.0
O123 O 0.15135 0.14956 0.84528 0.0
O124 O 0.19757 0.19844 0.81811 0.0
C125 C 0.26858 0.02856 0.87252 0.0
O126 O 0.25134 0.03552 0.81185 0.0
O127 O 0.17634 0.06892 0.82043 0.0
C128 C 0.29899 0.16001 0.78675 0.0
O129 O 0.30351 0.05141 0.85969 0.0
O130 O 0.22291 0.0369 0.86612 0.0
C131 C 0.21459 0.16856 0.89303 0.0
Fe132 Fe 0.34745 0.77496 0.09313 0.0
Fe133 Fe 0.45211 0.80578 0.07019 0.0
O134 O 0.41259 0.76186 0.08812 0.0
Fe135 Fe 0.43907 0.70571 0.10202 0.0
O136 O 0.42226 0.72366 0.1375 0.0
O137 O 0.34361 0.74503 0.12828 0.0
O138 O 0.36184 0.83277 0.1119 0.0
C139 C 0.38691 0.8693 0.10225 0.0
C140 C 0.34066 0.67363 0.08399 0.0
O141 O 0.41668 0.86298 0.08147 0.0
C142 C 0.4888 0.70899 0.05205 0.0
O143 O 0.34044 0.80808 0.05871 0.0
O144 O 0.4149 0.80017 0.03817 0.0
O145 O 0.38124 0.66763 0.09788 0.0
O146 O 0.32746 0.717 0.0756 0.0
C147 C 0.51317 0.77899 0.1146 0.0
O148 O 0.49471 0.75654 0.05533 0.0
O149 O 0.458 0.68473 0.06728 0.0
C150 C 0.36823 0.80991 0.03669 0.0
O151 O 0.4913 0.81445 0.10157 0.0
O152 O 0.50167 0.73334 0.10938 0.0
C153 C 0.37836 0.73428 0.14579 0.0
Fe154 Fe 0.82278 0.93159 0.35445 0.0
Fe155 Fe 0.75897 0.83881 0.33892 0.0
O156 O 0.76769 0.90546 0.33888 0.0
Fe157 Fe 0.72136 0.94643 0.32431 0.0
O158 O 0.71333 0.97948 0.35776 0.0
O159 O 0.79393 0.99192 0.36529 0.0
O160 O 0.80474 0.90714 0.38861 0.0
C161 C 0.79624 0.86097 0.39346 0.0
C162 C 0.81637 0.98797 0.30655 0.0
O163 O 0.79018 0.82941 0.37345 0.0
C164 C 0.71945 0.86971 0.28512 0.0
O165 O 0.86319 0.87643 0.34726 0.0
O166 O 0.81735 0.82749 0.31978 0.0
O167 O 0.769 0.993 0.31098 0.0
O168 O 0.84227 0.95711 0.32089 0.0
C169 C 0.66346 0.87103 0.35307 0.0
O170 O 0.72503 0.83709 0.30465 0.0
O171 O 0.72537 0.9163 0.29001 0.0
C172 C 0.85975 0.83982 0.32999 0.0
O173 O 0.7014 0.84437 0.35865 0.0
O174 O 0.6662 0.90676 0.33504 0.0
C175 C 0.74831 1.00124 0.37124 0.0
H176 H 0.05288 0.1152 0.2043 0.0
H177 H 0.78817 0.08171 0.28513 0.0
H178 H 0.94526 0.23742 0.21 0.0
H179 H 0.90886 0.97196 0.28365 0.0
H180 H 0.84093 0.13895 0.25613 0.0
H181 H 0.9974 0.06258 0.23264 0.0
C182 C 0.0175 0.13114 0.21165 0.0
C183 C 1.00371 0.18084 0.20462 0.0
C184 C 0.85558 0.10225 0.26218 0.0
C185 C 0.93908 0.12004 0.2373 0.0
C186 C 0.8254 0.06946 0.27851 0.0
C187 C 0.8442 0.02204 0.28697 0.0
C188 C 0.90454 0.08712 0.25416 0.0
C189 C 0.89281 1.00824 0.27792 0.0
C190 C 0.98565 0.10091 0.22789 0.0
C191 C 0.95746 0.19936 0.21501 0.0
N192 N 0.92106 0.0405 0.26215 0.0
N193 N 0.92653 0.16879 0.23073 0.0
H194 H 0.2871 0.4385 0.4579 0.0
H195 H 0.5572 0.40499 0.53328 0.0
H196 H 0.40217 0.55409 0.46561 0.0
H197 H 0.44362 0.28733 0.53684 0.0
H198 H 0.49975 0.45718 0.5061 0.0
H199 H 0.34097 0.38095 0.48602 0.0
C200 C 0.32319 0.45202 0.46584 0.0
C201 C 0.34029 0.50111 0.45922 0.0
C202 C 0.48702 0.41998 0.51268 0.0
C203 C 0.40208 0.43558 0.49081 0.0
C204 C 0.52008 0.38993 0.52819 0.0
C205 C 0.50521 0.34173 0.53759 0.0
C206 C 0.43813 0.40222 0.50635 0.0
C207 C 0.45668 0.32424 0.52998 0.0
C208 C 0.35404 0.41907 0.48165 0.0
C209 C 0.38752 0.51649 0.46987 0.0
N210 N 0.42463 0.35464 0.51492 0.0
N211 N 0.4166 0.48393 0.48488 0.0
H212 H 0.07931 0.78486 0.70852 0.0
H213 H 0.11998 0.06033 0.77664 0.0
H214 H 0.97023 0.90623 0.70874 0.0
H215 H 0.22842 0.94094 0.79016 0.0
H216 H 0.06906 1.00326 0.74823 0.0
H217 H 0.13705 0.83875 0.73677 0.0
C218 C 0.06726 0.82242 0.71477 0.0
C219 C 0.01999 0.84119 0.70604 0.0
C220 C 0.10397 0.98913 0.75725 0.0
C221 C 0.08576 0.90287 0.73778 0.0
C222 C 0.13328 0.02195 0.77343 0.0
C223 C 0.17831 1.00528 0.78601 0.0
C224 C 0.11925 0.93866 0.75352 0.0
C225 C 0.19392 0.95526 0.78077 0.0
C226 C 0.10033 0.85322 0.73068 0.0
C227 C 1.00643 0.89021 0.71461 0.0
N228 N 0.16412 0.92338 0.76506 0.0
N229 N 0.03909 0.91914 0.72977 0.0
H230 H 0.52258 0.61331 0.06173 0.0
H231 H 0.65435 0.57034 0.91484 0.0
H232 H 0.53774 0.73769 0.00301 0.0
H233 H 0.70972 0.4968 0.99032 0.0
H234 H 0.60403 0.62752 0.94447 0.0
H235 H 0.58278 0.5645 0.03358 0.0
C236 C 0.53837 0.63029 0.04278 0.0
C237 C 0.52482 0.67958 0.03455 0.0
C238 C 0.62763 0.59925 0.95453 0.0
C239 C 0.59361 0.62356 0.0022 0.0
C240 C 0.65614 0.56651 0.93769 0.0
C241 C 0.68609 0.52875 0.95021 0.0
C242 C 0.62787 0.59323 0.98405 0.0
C243 C 0.68726 0.52554 0.97989 0.0
C244 C 0.57309 0.60253 0.02692 0.0
C245 C 0.5471 0.69982 0.01004 0.0
N246 N 0.65782 0.55682 -0.00417 0.0
N247 N 0.57994 0.67142 0.99445 0.0
H248 H 0.10237 0.3144 0.25482 0.0
H249 H 0.31817 0.46959 0.337 0.0
H250 H 0.25259 0.33684 0.22109 0.0
H251 H 0.15992 0.47149 0.35951 0.0
H252 H 0.29883 0.40947 0.29884 0.0
H253 H 0.12758 0.35904 0.29783 0.0
C254 C 0.14092 0.32815 0.25655 0.0
C255 C 0.1752 0.32235 0.23403 0.0
C256 C 0.26847 0.42276 0.3123 0.0
C257 C 0.20422 0.37406 0.28343 0.0
C258 C 0.27945 0.45696 0.33415 0.0
C259 C 0.24056 0.47584 0.35146 0.0
C260 C 0.21829 0.407 0.30781 0.0
C261 C 0.1911 0.45824 0.34665 0.0
C262 C 0.15521 0.35385 0.28115 0.0
C263 C 0.22478 0.34062 0.23778 0.0
N264 N 0.18141 0.42499 0.32527 0.0
N265 N 0.23766 0.36611 0.26189 0.0
H266 H 0.04928 0.65647 0.60944 0.0
H267 H 0.18194 0.75103 0.4669 0.0
H268 H 0.049 0.81301 0.58297 0.0
H269 H 0.20021 0.60113 0.50203 0.0
H270 H 0.13659 0.77623 0.50996 0.0
H271 H 0.10737 0.63682 0.57087 0.0
C272 C 0.06174 0.68683 0.59565 0.0
C273 C 0.04408 0.73645 0.59945 0.0
C274 C 0.15102 0.73799 0.50831 0.0
C275 C 0.11044 0.71408 0.5549 0.0
C276 C 0.17701 0.7236 0.48375 0.0
C277 C 0.1945 0.6737 0.48063 0.0
C278 C 0.14227 0.70216 0.52982 0.0
C279 C 0.18701 0.63986 0.50325 0.0
C280 C 0.09502 0.6756 0.5736 0.0
C281 C 0.06169 0.77423 0.58089 0.0
N282 N 0.16113 0.65456 0.52668 0.0
N283 N 0.09352 0.76218 0.55926 0.0
H284 H 0.71338 0.50412 0.81249 0.0
H285 H 0.91437 0.70288 0.75281 0.0
H286 H 0.83712 0.56379 0.86244 0.0
H287 H 0.77366 0.66795 0.71028 0.0
H288 H 0.88615 0.65317 0.79354 0.0
H289 H 0.73465 0.56404 0.77479 0.0
C290 C 0.74488 0.52991 0.81559 0.0
C291 C 0.77358 0.52877 0.84066 0.0
C292 C 0.86124 0.65681 0.7754 0.0
C293 C 0.79823 0.59732 0.79754 0.0
C294 C 0.87733 0.68522 0.75214 0.0
C295 C 0.84654 0.68931 0.72797 0.0
C296 C 0.81425 0.63181 0.7744 0.0
C297 C 0.79877 0.66578 0.72839 0.0
C298 C 0.75689 0.56424 0.7941 0.0
C299 C 0.81391 0.56324 0.8435 0.0
N300 N 0.78435 0.63758 0.75109 0.0
N301 N 0.82523 0.59583 0.82214 0.0
H302 H 0.98985 0.38122 0.10649 0.0
H303 H 0.80139 0.28171 0.98516 0.0
H304 H 0.9532 0.2233 0.09353 0.0
H305 H 0.85397 0.43619 0.99257 0.0
H306 H 0.84577 0.26136 0.02941 0.0
H307 H 0.92964 0.40357 0.06923 0.0
C308 C 0.96881 0.35126 0.09603 0.0
C309 C 0.97694 0.30027 0.10304 0.0
C310 C 0.8471 0.29982 0.02146 0.0
C311 C 0.90802 0.3256 0.0602 0.0
C312 C 0.82156 0.3115 -0.00371 0.0
C313 C 0.82454 0.36056 0.98496 0.0
C314 C 0.8755 0.33756 0.0354 0.0
C315 C 0.85125 0.39767 0.0003 0.0
C316 C 0.93446 0.36403 0.0747 0.0
C317 C 0.94844 0.2631 0.08873 0.0
N318 N 0.87596 0.38533 0.02457 0.0
N319 N 0.91553 0.27647 0.06788 0.0
H320 H 0.75219 0.17972 0.52574 0.0
H321 H 0.65556 0.04074 0.38479 0.0
H322 H 0.60008 0.19198 0.49294 0.0
H323 H 0.81281 0.04615 0.40952 0.0
H324 H 0.63533 0.09779 0.42392 0.0
H325 H 0.77627 0.13316 0.48286 0.0
C326 C 0.72398 0.17317 0.50945 0.0
C327 C 0.67389 0.18956 0.51317 0.0
C328 C 0.67435 0.08685 0.42069 0.0
C329 C 0.70113 0.13578 0.46412 0.0
C330 C 0.68593 0.05416 0.39832 0.0
C331 C 0.73599 0.0385 0.3938 0.0
C332 C 0.71295 0.10376 0.43898 0.0
C333 C 0.7737 0.05727 0.41212 0.0
C334 C 0.73775 0.14646 0.48498 0.0
C335 C 0.63906 0.17989 0.49122 0.0
N336 N 0.76137 0.08857 0.434 0.0
N337 N 0.65322 0.15334 0.46785 0.0
H338 H 0.31981 0.1003 0.74075 0.0
H339 H 0.47264 0.31605 0.65755 0.0
H340 H 0.33169 0.25479 0.77039 0.0
H341 H 0.47736 0.15699 0.63621 0.0
H342 H 0.41212 0.2969 0.69529 0.0
H343 H 0.36762 0.12343 0.69857 0.0
C344 C 0.33201 0.13927 0.73831 0.0
C345 C 0.32208 0.17552 0.75941 0.0
C346 C 0.42615 0.26627 0.68221 0.0
C347 C 0.37736 0.20221 0.71096 0.0
C348 C 0.46062 0.27716 0.66059 0.0
C349 C 0.48031 0.23804 0.64368 0.0
C350 C 0.41104 0.21592 0.68693 0.0
C351 C 0.46342 0.18837 0.64873 0.0
C352 C 0.3595 0.1524 0.71418 0.0
C353 C 0.33862 0.2255 0.7548 0.0
N354 N 0.42994 0.17876 0.66992 0.0
N355 N 0.36581 0.23727 0.73119 0.0
H356 H 0.27304 0.84795 0.02596 0.0
H357 H 0.36104 0.98672 0.88401 0.0
H358 H 0.41898 0.82579 0.98687 0.0
H359 H 0.20534 0.98399 0.91149 0.0
H360 H 0.38229 0.92743 0.92181 0.0
H361 H 0.24628 0.89638 0.98426 0.0
C362 C 0.29925 0.85261 0.00851 0.0
C363 C 0.34855 0.83301 0.01014 0.0
C364 C 0.34337 0.93944 0.91949 0.0
C365 C 0.31831 0.88904 0.9625 0.0
C366 C 0.33121 0.97348 0.89791 0.0
C367 C 0.2813 0.99048 0.89453 0.0
C368 C 0.30554 0.92258 0.93818 0.0
C369 C 0.24429 0.97181 0.91323 0.0
C370 C 0.28395 0.88041 0.98472 0.0
C371 C 0.38075 0.84039 0.98678 0.0
N372 N 0.25722 0.93921 0.93439 0.0
N373 N 0.36527 0.86817 0.96416 0.0
H374 H 0.56081 0.71236 0.15019 0.0
H375 H 0.7015 0.92987 0.23891 0.0
H376 H 0.55313 0.87154 0.12963 0.0
H377 H 0.68924 0.77479 0.26731 0.0
H378 H 0.65799 0.90665 0.19516 0.0
H379 H 0.61801 0.73244 0.18938 0.0
C380 C 0.57159 0.75151 0.15366 0.0
C381 C 0.5519 0.79036 0.13655 0.0
C382 C 0.6651 0.87759 0.21085 0.0
C383 C 0.61738 0.81355 0.18163 0.0
C384 C 0.69012 0.89076 0.23589 0.0
C385 C 0.69869 0.85434 0.25709 0.0
C386 C 0.64844 0.82757 0.20679 0.0
C387 C 0.68328 0.80423 0.2517 0.0
C388 C 0.60416 0.76292 0.17615 0.0
C389 C 0.56719 0.84036 0.14224 0.0
N390 N 0.65859 0.79242 0.22719 0.0
N391 N 0.59881 0.8505 0.16435 0.0
H392 H 0.25261 0.1213 0.93904 0.0
H393 H 0.09843 0.2723 0.04982 0.0
H394 H 0.17352 0.25642 0.91325 0.0
H395 H 0.2424 0.20689 0.07245 0.0
H396 H 0.12075 0.26408 -0.00039 0.0
H397 H 0.24539 0.14807 0.98853 0.0
C398 C 0.23393 0.15676 0.94391 0.0
C399 C 0.21313 0.18661 0.92234 0.0
C400 C 0.14769 0.25235 0.01563 0.0
C401 C 0.20434 0.21694 0.9785 0.0
C402 C 0.13489 0.25662 0.04414 0.0
C403 C 0.16849 0.23967 0.06508 0.0
C404 C 0.19373 0.22979 0.00819 0.0
C405 C 0.21547 0.2202 0.05683 0.0
C406 C 0.23023 0.17216 0.97201 0.0
C407 C 0.18984 0.23247 0.92948 0.0
N408 N 0.22637 0.21481 0.02889 0.0
N409 N 0.18513 0.2459 0.95717 0.0
H410 H 0.2922 0.7622 0.17437 0.0
H411 H 0.36431 0.60374 0.30988 0.0
H412 H 0.43816 0.69172 0.1861 0.0
H413 H 0.26636 0.73366 0.31786 0.0
H414 H 0.38205 0.62765 0.26112 0.0
H415 H 0.27315 0.74577 0.22457 0.0
C416 C 0.32018 0.7435 0.18746 0.0
C417 C 0.36658 0.72781 0.17603 0.0
C418 C 0.35681 0.65105 0.27357 0.0
C419 C 0.34493 0.70882 0.23274 0.0
C420 C 0.34643 0.63729 0.30131 0.0
C421 C 0.31397 0.66696 0.31784 0.0
C422 C 0.33397 0.69427 0.26211 0.0
C423 C 0.29193 0.71014 0.30573 0.0
C424 C 0.30938 0.73443 0.21599 0.0
C425 C 0.40176 0.70419 0.19391 0.0
N426 N 0.30207 0.72247 0.27833 0.0
N427 N 0.38994 0.69493 0.2213 0.0
H428 H 0.84054 0.77471 0.41303 0.0
H429 H 0.77624 0.82863 0.57473 0.0
H430 H 0.75902 0.9078 0.43981 0.0
H431 H 0.9219 0.77166 0.54866 0.0
H432 H 0.75199 0.83653 0.52469 0.0
H433 H 0.85281 0.75161 0.46313 0.0
C434 C 0.82454 0.79842 0.42949 0.0
C435 C 0.79926 0.84333 0.42269 0.0
C436 C 0.78901 0.82186 0.53009 0.0
C437 C 0.81217 0.81701 0.47908 0.0
C438 C 0.80282 0.81737 0.55844 0.0
C439 C 0.85129 0.80016 0.56553 0.0
C440 C 0.82352 0.80784 0.50899 0.0
C441 C 0.88447 0.78587 0.54384 0.0
C442 C 0.83168 0.78542 0.45784 0.0
C443 C 0.77925 0.87316 0.44449 0.0
N444 N 0.86991 0.78996 0.51636 0.0
N445 N 0.78611 0.85942 0.47188 0.0
H446 H 0.7542 0.29175 0.67165 0.0
H447 H 0.6421 0.30968 0.82859 0.0
H448 H 0.59538 0.29487 0.69306 0.0
H449 H 0.80178 0.32295 0.81133 0.0
H450 H 0.62699 0.28952 0.779 0.0
H451 H 0.7748 0.29148 0.7225 0.0
C452 C 0.72375 0.2923 0.68699 0.0
C453 C 0.67302 0.29409 0.67812 0.0
C454 C 0.6655 0.29629 0.78594 0.0
C455 C 0.69622 0.29301 0.73596 0.0
C456 C 0.6741 0.30762 0.81429 0.0
C457 C 0.72313 0.31845 0.82383 0.0
C458 C 0.70613 0.29665 0.76679 0.0
C459 C 0.76342 0.31474 0.80463 0.0
C460 C 0.73552 0.29199 0.71594 0.0
C461 C 0.63504 0.2943 0.69884 0.0
N462 N 0.75395 0.30492 0.77676 0.0
N463 N 0.64746 0.29391 0.7267 0.0
H464 H 0.24274 0.11851 0.19264 0.0
H465 H 0.37992 0.9566 0.0711 0.0
H466 H 0.20416 0.12491 0.10378 0.0
H467 H 0.35862 0.89747 0.15548 0.0
H468 H 0.337 0.0348 0.08563 0.0
H469 H 0.30482 0.05128 0.18168 0.0
C470 C 0.24746 0.10591 0.17094 0.0
C471 C 0.21764 0.12643 0.14919 0.0
C472 C 0.3427 1.00503 0.1011 0.0
C473 C 0.28922 0.05176 0.13645 0.0
C474 C 0.3676 0.96069 0.09288 0.0
C475 C 0.37246 0.9205 0.11207 0.0
C476 C 0.32326 1.00937 0.12876 0.0
C477 C 0.35521 0.92756 0.14 0.0
C478 C 0.2828 0.06785 0.16469 0.0
C479 C 0.22557 0.10933 0.12131 0.0
N480 N 0.33104 0.97098 0.14749 0.0
N481 N 0.26059 0.07324 0.11576 0.0
H482 H 0.45685 0.66329 0.42513 0.0
H483 H 0.56426 0.89301 0.33741 0.0
H484 H 0.35693 0.7819 0.39719 0.0
H485 H 0.65252 0.81325 0.40013 0.0
H486 H 0.48704 0.85445 0.35758 0.0
H487 H 0.52936 0.71823 0.4151 0.0
C488 C 0.45027 0.7015 0.41762 0.0
C489 C 0.40101 0.71846 0.41244 0.0
C490 C 0.52342 0.84619 0.36707 0.0
C491 C 0.48369 0.7808 0.39957 0.0
C492 C 0.56739 0.86817 0.35558 0.0
C493 C 0.61508 0.8556 0.36666 0.0
C494 C 0.52754 0.81126 0.38952 0.0
C495 C 0.61682 0.82324 0.39036 0.0
C496 C 0.49157 0.73279 0.41171 0.0
C497 C 0.39443 0.7679 0.40201 0.0
N498 N 0.57399 0.80175 0.40064 0.0
N499 N 0.43538 0.7971 0.39537 0.0
H500 H 0.6998 0.14789 0.65763 0.0
H501 H 0.73884 0.84965 0.6483 0.0
H502 H 0.62947 0.06085 0.59062 0.0
H503 H 0.8572 0.9549 0.67109 0.0
H504 H 0.6818 0.92152 0.63945 0.0
H505 H 0.73926 0.07116 0.67543 0.0
C506 C 0.69198 0.11245 0.64682 0.0
C507 C 0.6621 0.11108 0.62211 0.0
C508 C 0.71992 0.92861 0.64696 0.0
C509 C 0.70707 0.02279 0.64287 0.0
C510 C 0.75223 0.88783 0.65236 0.0
C511 C 0.80255 0.8966 0.66077 0.0
C512 C 0.73788 0.97821 0.65068 0.0
C513 C 0.81856 0.94667 0.6649 0.0
C514 C 0.71464 0.06872 0.65707 0.0
C515 C 0.65255 0.06372 0.60954 0.0
N516 N 0.78627 0.98562 0.6599 0.0
N517 N 0.67553 0.0213 0.6199 0.0
H518 H 0.35644 0.23452 0.89685 0.0
H519 H 0.65655 0.23578 0.90775 0.0
H520 H 0.4492 0.13267 0.84757 0.0
H521 H 0.56504 0.36892 0.92148 0.0
H522 H 0.58017 0.18739 0.89698 0.0
H523 H 0.43219 0.27269 0.91667 0.0
C524 C 0.39276 0.21981 0.8902 0.0
C525 C 0.39627 0.1807 0.86994 0.0
C526 C 0.57687 0.227 0.90272 0.0
C527 C 0.48356 0.22451 0.89322 0.0
C528 C 0.62037 0.25478 0.90914 0.0
C529 C 0.61745 0.30698 0.91525 0.0
C530 C 0.52987 0.25116 0.90292 0.0
C531 C 0.5693 0.32901 0.91676 0.0
C532 C 0.43602 0.24184 0.90165 0.0
C533 C 0.44462 0.16295 0.86285 0.0
N534 N 0.52741 0.30103 0.91046 0.0
N535 N 0.48655 0.18524 0.87439 0.0
H536 H 0.82159 0.6495 0.58508 0.0
H537 H 0.78813 0.35 0.594 0.0
H538 H 0.89616 0.56277 0.65047 0.0
H539 H 0.66844 0.45258 0.57088 0.0
H540 H 0.84446 0.42312 0.60222 0.0
H541 H 0.78327 0.57209 0.56696 0.0
C542 C 0.83051 0.61404 0.59549 0.0
C543 C 0.86131 0.61289 0.61984 0.0
C544 C 0.80621 0.42935 0.59475 0.0
C545 C 0.81765 0.52383 0.59871 0.0
C546 C 0.77432 0.38784 0.58972 0.0
C547 C 0.72382 0.39554 0.58149 0.0
C548 C 0.78759 0.47854 0.59085 0.0
C549 C 0.70724 0.4452 0.57699 0.0
C550 C 0.80853 0.56991 0.58504 0.0
C551 C 0.87227 0.5655 0.63187 0.0
N552 N 0.73907 0.48485 0.5817 0.0
N553 N 0.84992 0.5227 0.62135 0.0
H554 H 0.15515 0.28861 0.82448 0.0
H555 H 0.85889 0.29465 0.85539 0.0
H556 H 0.05547 0.15896 0.82451 0.0
H557 H 0.95746 0.41887 0.87794 0.0
H558 H 0.92828 0.25376 0.83102 0.0
H559 H 0.08167 0.34405 0.83165 0.0
C560 C 0.11764 0.27198 0.82503 0.0
C561 C 0.1112 0.2191 0.82395 0.0
C562 C 0.93494 0.29021 0.84097 0.0
C563 C 0.02755 0.28204 0.83235 0.0
C564 C 0.89519 0.31376 0.85485 0.0
C565 C 0.90261 0.35994 0.86902 0.0
C566 C 0.98322 0.31224 0.84165 0.0
C567 C 0.95035 0.38313 0.86735 0.0
C568 C 0.07589 0.3036 0.82942 0.0
C569 C 0.06203 0.19947 0.82529 0.0
N570 N 0.98937 0.35847 0.85434 0.0
N571 N 0.02223 0.23087 0.82961 0.0
H572 H 0.24152 0.67816 0.10014 0.0
H573 H 0.20403 0.3789 0.0916 0.0
H574 H 0.35633 0.57421 0.07186 0.0
H575 H 0.13525 0.46505 0.15915 0.0
H576 H 0.24221 0.45599 0.07339 0.0
H577 H 0.18612 0.60554 0.11134 0.0
C578 C 0.25436 0.64013 0.09542 0.0
C579 C 0.30327 0.63197 0.0847 0.0
C580 C 0.21842 0.45821 0.09204 0.0
C581 C 0.24054 0.54944 0.09754 0.0
C582 C 0.19651 0.41419 0.10256 0.0
C583 C 0.16721 0.41515 0.12745 0.0
C584 C 0.21091 0.50418 0.10618 0.0
C585 C 0.15792 0.46244 0.14011 0.0
C586 C 0.22306 0.59889 0.10218 0.0
C587 C 0.31873 0.58204 0.07979 0.0
N588 N 0.18023 0.50523 0.12949 0.0
N589 N 0.28745 0.54272 0.08616 0.0
H590 H 0.85489 0.73888 0.34206 0.0
H591 H 0.15381 0.70273 0.33728 0.0
H592 H 0.95968 0.85801 0.32032 0.0
H593 H 0.06437 0.62812 0.40155 0.0
H594 H 0.07789 0.74309 0.3192 0.0
H595 H 0.92691 0.68278 0.35251 0.0
C596 C 0.89305 0.7526 0.33855 0.0
C597 C 0.90156 0.80284 0.32985 0.0
C598 C 0.07473 0.71748 0.33706 0.0
C599 C 0.98349 0.73928 0.3419 0.0
C600 C 0.11807 0.69424 0.34748 0.0
C601 C 0.11585 0.6626 0.37147 0.0
C602 C 0.0282 0.70884 0.3503 0.0
C603 C 0.06801 0.65247 0.3832 0.0
C604 C 0.93394 0.72086 0.3449 0.0
C605 C 0.95161 0.81936 0.32658 0.0
N606 N 0.02595 0.67595 0.37264 0.0
N607 N 0.99065 0.78763 0.33249 0.0
loop_
_geom_bond_atom_site_label_1
_geom_bond_atom_site_label_2
_geom_bond_distance
_geom_bond_site_symmetry_2
_ccdc_geom_bond_type
Fe0 O2 1.918 . S
Fe0 O5 1.997 . S
Fe0 O6 2.002 . S
Fe0 O11 1.976 . S
Fe0 O14 1.996 . S
Fe1 O2 1.918 . S
Fe1 O9 1.997 . S
Fe1 O12 1.996 . S
Fe1 O16 1.976 . S
Fe1 O19 2.002 . S
O2 Fe0 1.918 . S
O2 Fe1 1.918 . S
O2 Fe3 1.918 . S
Fe3 O2 1.918 . S
Fe3 O4 2.012 . S
Fe3 O13 1.976 . S
Fe3 O17 1.996 . S
Fe3 O20 1.997 . S
O4 Fe3 2.012 . S
O4 C21 1.292 1_455 S
O5 Fe0 1.997 . S
O5 C21 1.235 1_455 S
O6 Fe0 2.002 . S
O6 C7 1.295 . S
C7 O6 1.295 . S
C7 O9 1.235 . S
C8 O13 1.287 1_655 S
C8 O14 1.255 1_655 S
O9 Fe1 1.997 . S
O9 C7 1.235 . S
C10 O16 1.287 . S
C10 O17 1.255 . S
O11 Fe0 1.976 . S
O11 C18 1.287 . S
O12 Fe1 1.996 . S
O12 C18 1.255 . S
O13 Fe3 1.976 . S
O13 C8 1.287 1_455 S
O14 Fe0 1.996 . S
O14 C8 1.255 1_455 S
C15 O19 1.295 . S
C15 O20 1.235 . S
O16 Fe1 1.976 . S
O16 C10 1.287 . S
O17 Fe3 1.996 . S
O17 C10 1.255 . S
C18 O11 1.287 . S
C18 O12 1.255 . S
O19 Fe1 2.002 . S
O19 C15 1.295 . S
O20 Fe3 1.997 . S
O20 C15 1.235 . S
C21 O4 1.292 1_655 S
C21 O5 1.235 1_655 S
Fe22 O24 1.918 . S
Fe22 O27 1.997 . S
Fe22 O28 2.002 . S
Fe22 O33 1.976 . S
Fe22 O36 1.996 . S
Fe23 O24 1.918 . S
Fe23 O31 1.997 . S
Fe23 O34 1.996 . S
Fe23 O38 1.976 . S
Fe23 O41 2.002 . S
O24 Fe22 1.918 . S
O24 Fe23 1.918 . S
O24 Fe25 1.918 . S
Fe25 O24 1.918 . S
Fe25 O26 2.002 . S
Fe25 O35 1.976 . S
Fe25 O39 1.996 . S
Fe25 O42 1.997 . S
O26 Fe25 2.002 . S
O26 C43 1.295 . S
O27 Fe22 1.997 . S
O27 C43 1.235 . S
O28 Fe22 2.002 . S
O28 C29 1.295 . S
C29 O28 1.295 . S
C29 O31 1.235 . S
C30 O35 1.287 . S
C30 O36 1.255 . S
O31 Fe23 1.997 . S
O31 C29 1.235 . S
C32 O38 1.287 . S
C32 O39 1.255 . S
O33 Fe22 1.976 . S
O33 C40 1.287 . S
O34 Fe23 1.996 . S
O34 C40 1.255 . S
O35 Fe25 1.976 . S
O35 C30 1.287 . S
O36 Fe22 1.996 . S
O36 C30 1.255 . S
C37 O41 1.295 . S
C37 O42 1.235 . S
O38 Fe23 1.976 . S
O38 C32 1.287 . S
O39 Fe25 1.996 . S
O39 C32 1.255 . S
C40 O33 1.287 . S
C40 O34 1.255 . S
O41 Fe23 2.002 . S
O41 C37 1.295 . S
O42 Fe25 1.997 . S
O42 C37 1.235 . S
C43 O26 1.295 . S
C43 O27 1.235 . S
Fe44 O46 1.918 . S
Fe44 O49 1.997 . S
Fe44 O50 2.002 . S
Fe44 O55 1.976 . S
Fe44 O58 1.996 . S
Fe45 O46 1.918 . S
Fe45 O53 1.997 . S
Fe45 O56 1.996 . S
Fe45 O60 1.976 . S
Fe45 O63 2.002 . S
O46 Fe44 1.918 . S
O46 Fe45 1.918 . S
O46 Fe47 1.918 . S
Fe47 O46 1.918 . S
Fe47 O48 2.012 . S
Fe47 O57 1.976 . S
Fe47 O61 1.996 . S
Fe47 O64 1.997 . S
O48 Fe47 2.012 . S
O48 C65 1.292 1_655 S
O49 Fe44 1.997 . S
O49 C65 1.235 1_655 S
O50 Fe44 2.002 . S
O50 C51 1.295 . S
C51 O50 1.295 . S
C51 O53 1.235 . S
C52 O57 1.287 1_455 S
C52 O58 1.255 1_455 S
O53 Fe45 1.997 . S
O53 C51 1.235 . S
C54 O60 1.287 . S
C54 O61 1.255 . S
O55 Fe44 1.976 . S
O55 C62 1.287 . S
O56 Fe45 1.996 . S
O56 C62 1.255 . S
O57 Fe47 1.976 . S
O57 C52 1.287 1_655 S
O58 Fe44 1.996 . S
O58 C52 1.255 1_655 S
C59 O63 1.295 . S
C59 O64 1.235 . S
O60 Fe45 1.976 . S
O60 C54 1.287 . S
O61 Fe47 1.996 . S
O61 C54 1.255 . S
C62 O55 1.287 . S
C62 O56 1.255 . S
O63 Fe45 2.002 . S
O63 C59 1.295 . S
O64 Fe47 1.997 . S
O64 C59 1.235 . S
C65 O48 1.292 1_455 S
C65 O49 1.235 1_455 S
Fe66 O68 1.918 . S
Fe66 O71 1.997 . S
Fe66 O72 2.002 . S
Fe66 O77 1.976 . S
Fe66 O80 1.996 . S
Fe67 O68 1.918 . S
Fe67 O75 1.997 . S
Fe67 O78 1.996 . S
Fe67 O82 1.976 . S
Fe67 O85 2.002 . S
O68 Fe66 1.918 . S
O68 Fe67 1.918 . S
O68 Fe69 1.918 . S
Fe69 O68 1.918 . S
Fe69 O70 2.002 . S
Fe69 O79 1.976 . S
Fe69 O83 1.996 . S
Fe69 O86 1.997 . S
O70 Fe69 2.002 . S
O70 C87 1.295 . S
O71 Fe66 1.997 . S
O71 C87 1.235 . S
O72 Fe66 2.002 . S
O72 C73 1.295 . S
C73 O72 1.295 . S
C73 O75 1.235 . S
C74 O79 1.287 . S
C74 O80 1.255 . S
O75 Fe67 1.997 . S
O75 C73 1.235 . S
C76 O82 1.287 . S
C76 O83 1.255 . S
O77 Fe66 1.976 . S
O77 C84 1.287 . S
O78 Fe67 1.996 . S
O78 C84 1.255 . S
O79 Fe69 1.976 . S
O79 C74 1.287 . S
O80 Fe66 1.996 . S
O80 C74 1.255 . S
C81 O85 1.295 . S
C81 O86 1.235 . S
O82 Fe67 1.976 . S
O82 C76 1.287 . S
O83 Fe69 1.996 . S
O83 C76 1.255 . S
C84 O77 1.287 . S
C84 O78 1.255 . S
O85 Fe67 2.002 . S
O85 C81 1.295 . S
O86 Fe69 1.997 . S
O86 C81 1.235 . S
C87 O70 1.295 . S
C87 O71 1.235 . S
Fe88 O90 1.918 . S
Fe88 O93 1.997 . S
Fe88 O94 2.002 . S
Fe88 O99 1.976 . S
Fe88 O102 1.996 . S
Fe89 O90 1.918 . S
Fe89 O97 1.997 . S
Fe89 O100 1.996 . S
Fe89 O104 1.976 . S
Fe89 O107 2.002 . S
O90 Fe88 1.918 . S
O90 Fe89 1.918 . S
O90 Fe91 1.918 . S
Fe91 O90 1.918 . S
Fe91 O92 2.002 . S
Fe91 O101 1.976 . S
Fe91 O105 1.996 . S
Fe91 O108 1.997 . S
O92 Fe91 2.002 . S
O92 C109 1.295 . S
O93 Fe88 1.997 . S
O93 C109 1.235 . S
O94 Fe88 2.002 . S
O94 C95 1.295 . S
C95 O94 1.295 . S
C95 O97 1.235 . S
C96 O101 1.287 . S
C96 O102 1.255 . S
O97 Fe89 1.997 . S
O97 C95 1.235 . S
C98 O104 1.287 . S
C98 O105 1.255 . S
O99 Fe88 1.976 . S
O99 C106 1.287 . S
O100 Fe89 1.996 . S
O100 C106 1.255 . S
O101 Fe91 1.976 . S
O101 C96 1.287 . S
O102 Fe88 1.996 . S
O102 C96 1.255 . S
C103 O107 1.295 . S
C103 O108 1.235 . S
O104 Fe89 1.976 . S
O104 C98 1.287 . S
O105 Fe91 1.996 . S
O105 C98 1.255 . S
C106 O99 1.287 . S
C106 O100 1.255 . S
O107 Fe89 2.002 . S
O107 C103 1.295 . S
O108 Fe91 1.997 . S
O108 C103 1.235 . S
C109 O92 1.295 . S
C109 O93 1.235 . S
Fe110 O112 1.918 . S
Fe110 O115 1.997 . S
Fe110 O116 2.002 . S
Fe110 O121 1.976 . S
Fe110 O124 1.996 . S
Fe111 O112 1.918 . S
Fe111 O119 1.997 . S
Fe111 O122 1.996 . S
Fe111 O126 1.976 . S
Fe111 O129 2.012 . S
O112 Fe110 1.918 . S
O112 Fe111 1.918 . S
O112 Fe113 1.918 . S
Fe113 O112 1.918 . S
Fe113 O114 2.002 . S
Fe113 O123 1.976 . S
Fe113 O127 1.996 . S
Fe113 O130 1.997 . S
O114 Fe113 2.002 . S
O114 C131 1.295 . S
O115 Fe110 1.997 . S
O115 C131 1.235 . S
O116 Fe110 2.002 . S
O116 C117 1.295 . S
C117 O116 1.295 . S
C117 O119 1.235 . S
C118 O123 1.287 . S
C118 O124 1.255 . S
O119 Fe111 1.997 . S
O119 C117 1.235 . S
C120 O126 1.287 1_565 S
C120 O127 1.255 1_565 S
O121 Fe110 1.976 . S
O121 C128 1.287 . S
O122 Fe111 1.996 . S
O122 C128 1.255 . S
O123 Fe113 1.976 . S
O123 C118 1.287 . S
O124 Fe110 1.996 . S
O124 C118 1.255 . S
C125 O129 1.292 1_565 S
C125 O130 1.235 1_565 S
O126 Fe111 1.976 . S
O126 C120 1.287 1_545 S
O127 Fe113 1.996 . S
O127 C120 1.255 1_545 S
C128 O121 1.287 . S
C128 O122 1.255 . S
O129 Fe111 2.012 . S
O129 C125 1.292 1_545 S
O130 Fe113 1.997 . S
O130 C125 1.235 1_545 S
C131 O114 1.295 . S
C131 O115 1.235 . S
Fe132 O134 1.918 . S
Fe132 O137 1.997 . S
Fe132 O138 2.002 . S
Fe132 O143 1.976 . S
Fe132 O146 1.996 . S
Fe133 O134 1.918 . S
Fe133 O141 1.997 . S
Fe133 O144 1.996 . S
Fe133 O148 1.976 . S
Fe133 O151 2.002 . S
O134 Fe132 1.918 . S
O134 Fe133 1.918 . S
O134 Fe135 1.918 . S
Fe135 O134 1.918 . S
Fe135 O136 2.002 . S
Fe135 O145 1.976 . S
Fe135 O149 1.996 . S
Fe135 O152 1.997 . S
O136 Fe135 2.002 . S
O136 C153 1.295 . S
O137 Fe132 1.997 . S
O137 C153 1.235 . S
O138 Fe132 2.002 . S
O138 C139 1.295 . S
C139 O138 1.295 . S
C139 O141 1.235 . S
C140 O145 1.287 . S
C140 O146 1.255 . S
O141 Fe133 1.997 . S
O141 C139 1.235 . S
C142 O148 1.287 . S
C142 O149 1.255 . S
O143 Fe132 1.976 . S
O143 C150 1.287 . S
O144 Fe133 1.996 . S
O144 C150 1.255 . S
O145 Fe135 1.976 . S
O145 C140 1.287 . S
O146 Fe132 1.996 . S
O146 C140 1.255 . S
C147 O151 1.295 . S
C147 O152 1.235 . S
O148 Fe133 1.976 . S
O148 C142 1.287 . S
O149 Fe135 1.996 . S
O149 C142 1.255 . S
C150 O143 1.287 . S
C150 O144 1.255 . S
O151 Fe133 2.002 . S
O151 C147 1.295 . S
O152 Fe135 1.997 . S
O152 C147 1.235 . S
C153 O136 1.295 . S
C153 O137 1.235 . S
Fe154 O156 1.918 . S
Fe154 O159 1.997 . S
Fe154 O160 2.002 . S
Fe154 O165 1.976 . S
Fe154 O168 1.996 . S
Fe155 O156 1.918 . S
Fe155 O163 1.997 . S
Fe155 O166 1.996 . S
Fe155 O170 1.976 . S
Fe155 O173 2.002 . S
O156 Fe154 1.918 . S
O156 Fe155 1.918 . S
O156 Fe157 1.918 . S
Fe157 O156 1.918 . S
Fe157 O158 2.012 . S
Fe157 O167 1.976 . S
Fe157 O171 1.996 . S
Fe157 O174 1.997 . S
O158 Fe157 2.012 . S
O158 C175 1.292 1_565 S
O159 Fe154 1.997 . S
O159 C175 1.235 1_565 S
O160 Fe154 2.002 . S
O160 C161 1.295 . S
C161 O160 1.295 . S
C161 O163 1.235 . S
C162 O167 1.287 1_545 S
C162 O168 1.255 1_545 S
O163 Fe155 1.997 . S
O163 C161 1.235 . S
C164 O170 1.287 . S
C164 O171 1.255 . S
O165 Fe154 1.976 . S
O165 C172 1.287 . S
O166 Fe155 1.996 . S
O166 C172 1.255 . S
O167 Fe157 1.976 . S
O167 C162 1.287 1_565 S
O168 Fe154 1.996 . S
O168 C162 1.255 1_565 S
C169 O173 1.295 . S
C169 O174 1.235 . S
O170 Fe155 1.976 . S
O170 C164 1.287 . S
O171 Fe157 1.996 . S
O171 C164 1.255 . S
C172 O165 1.287 . S
C172 O166 1.255 . S
O173 Fe155 2.002 . S
O173 C169 1.295 . S
O174 Fe157 1.997 . S
O174 C169 1.235 . S
C175 O158 1.292 1_545 S
C175 O159 1.235 1_545 S
H176 C182 0.930 . S
H177 C186 0.930 . S
H178 C191 0.929 . S
H179 C189 0.929 1_565 S
H180 C184 0.929 . S
H181 C190 0.929 . S
C182 H176 0.930 . S
C182 C183 1.367 . S
C182 C190 1.378 . S
C183 C182 1.367 . S
C183 C191 1.433 . S
C184 H180 0.929 . S
C184 C186 1.378 . S
C184 C188 1.350 . S
C185 C188 1.463 . S
C185 C190 1.350 . S
C185 N193 1.427 . S
C186 H177 0.930 . S
C186 C184 1.378 . S
C186 C187 1.367 . S
C187 C186 1.367 . S
C187 C189 1.433 . S
C188 C184 1.350 . S
C188 C185 1.463 . S
C188 N192 1.427 . S
C189 H179 0.929 1_545 S
C189 C187 1.433 . S
C189 N192 1.384 . S
C190 H181 0.929 . S
C190 C182 1.378 . S
C190 C185 1.350 . S
C191 H178 0.929 . S
C191 C183 1.433 . S
C191 N193 1.384 . S
N192 C188 1.427 . S
N192 C189 1.384 . S
N193 C185 1.427 . S
N193 C191 1.384 . S
H194 C200 0.930 . S
H195 C204 0.930 . S
H196 C209 0.929 . S
H197 C207 0.929 . S
H198 C202 0.929 . S
H199 C208 0.929 . S
C200 H194 0.930 . S
C200 C201 1.367 . S
C200 C208 1.378 . S
C201 C200 1.367 . S
C201 C209 1.433 . S
C202 H198 0.929 . S
C202 C204 1.378 . S
C202 C206 1.350 . S
C203 C206 1.463 . S
C203 C208 1.350 . S
C203 N211 1.427 . S
C204 H195 0.930 . S
C204 C202 1.378 . S
C204 C205 1.367 . S
C205 C204 1.367 . S
C205 C207 1.433 . S
C206 C202 1.350 . S
C206 C203 1.463 . S
C206 N210 1.427 . S
C207 H197 0.929 . S
C207 C205 1.433 . S
C207 N210 1.384 . S
C208 H199 0.929 . S
C208 C200 1.378 . S
C208 C203 1.350 . S
C209 H196 0.929 . S
C209 C201 1.433 . S
C209 N211 1.384 . S
N210 C206 1.427 . S
N210 C207 1.384 . S
N211 C203 1.427 . S
N211 C209 1.384 . S
H212 C218 0.930 . S
H213 C222 0.930 1_545 S
H214 C227 0.929 . S
H215 C225 0.929 . S
H216 C220 0.929 . S
H217 C226 0.929 . S
C218 H212 0.930 . S
C218 C219 1.367 . S
C218 C226 1.378 . S
C219 C218 1.367 . S
C219 C227 1.433 . S
C220 H216 0.929 . S
C220 C222 1.378 . S
C220 C224 1.350 . S
C221 C224 1.463 . S
C221 C226 1.350 . S
C221 N229 1.427 . S
C222 H213 0.930 1_565 S
C222 C220 1.378 . S
C222 C223 1.367 . S
C223 C222 1.367 . S
C223 C225 1.433 . S
C224 C220 1.350 . S
C224 C221 1.463 . S
C224 N228 1.427 . S
C225 H215 0.929 . S
C225 C223 1.433 . S
C225 N228 1.384 . S
C226 H217 0.929 . S
C226 C218 1.378 . S
C226 C221 1.350 . S
C227 H214 0.929 . S
C227 C219 1.433 . S
C227 N229 1.384 . S
N228 C224 1.427 . S
N228 C225 1.384 . S
N229 C221 1.427 . S
N229 C227 1.384 . S
H230 C236 0.930 . S
H231 C240 0.930 . S
H232 C245 0.929 . S
H233 C243 0.929 . S
H234 C238 0.929 . S
H235 C244 0.929 . S
C236 H230 0.930 . S
C236 C237 1.367 . S
C236 C244 1.378 . S
C237 C236 1.367 . S
C237 C245 1.433 . S
C238 H234 0.929 . S
C238 C240 1.378 . S
C238 C242 1.350 . S
C239 C242 1.463 1_554 S
C239 C244 1.350 . S
C239 N247 1.427 . S
C240 H231 0.930 . S
C240 C238 1.378 . S
C240 C241 1.367 . S
C241 C240 1.367 . S
C241 C243 1.433 . S
C242 C238 1.350 . S
C242 C239 1.463 1_556 S
C242 N246 1.427 . S
C243 H233 0.929 . S
C243 C241 1.433 . S
C243 N246 1.384 . S
C244 H235 0.929 . S
C244 C236 1.378 . S
C244 C239 1.350 . S
C245 H232 0.929 . S
C245 C237 1.433 . S
C245 N247 1.384 . S
N246 C242 1.427 . S
N246 C243 1.384 . S
N247 C239 1.427 . S
N247 C245 1.384 . S
H248 C254 0.930 . S
H249 C258 0.930 . S
H250 C263 0.929 . S
H251 C261 0.929 . S
H252 C256 0.929 . S
H253 C262 0.929 . S
C254 H248 0.930 . S
C254 C255 1.367 . S
C254 C262 1.378 . S
C255 C254 1.367 . S
C255 C263 1.433 . S
C256 H252 0.929 . S
C256 C258 1.378 . S
C256 C260 1.350 . S
C257 C260 1.463 . S
C257 C262 1.350 . S
C257 N265 1.427 . S
C258 H249 0.930 . S
C258 C256 1.378 . S
C258 C259 1.367 . S
C259 C258 1.367 . S
C259 C261 1.433 . S
C260 C256 1.350 . S
C260 C257 1.463 . S
C260 N264 1.427 . S
C261 H251 0.929 . S
C261 C259 1.433 . S
C261 N264 1.384 . S
C262 H253 0.929 . S
C262 C254 1.378 . S
C262 C257 1.350 . S
C263 H250 0.929 . S
C263 C255 1.433 . S
C263 N265 1.384 . S
N264 C260 1.427 . S
N264 C261 1.384 . S
N265 C257 1.427 . S
N265 C263 1.384 . S
H266 C272 0.930 . S
H267 C276 0.930 . S
H268 C281 0.929 . S
H269 C279 0.929 . S
H270 C274 0.929 . S
H271 C280 0.929 . S
C272 H266 0.930 . S
C272 C273 1.367 . S
C272 C280 1.378 . S
C273 C272 1.367 . S
C273 C281 1.433 . S
C274 H270 0.929 . S
C274 C276 1.378 . S
C274 C278 1.350 . S
C275 C278 1.463 . S
C275 C280 1.350 . S
C275 N283 1.427 . S
C276 H267 0.930 . S
C276 C274 1.378 . S
C276 C277 1.367 . S
C277 C276 1.367 . S
C277 C279 1.433 . S
C278 C274 1.350 . S
C278 C275 1.463 . S
C278 N282 1.427 . S
C279 H269 0.929 . S
C279 C277 1.433 . S
C279 N282 1.384 . S
C280 H271 0.929 . S
C280 C272 1.378 . S
C280 C275 1.350 . S
C281 H268 0.929 . S
C281 C273 1.433 . S
C281 N283 1.384 . S
N282 C278 1.427 . S
N282 C279 1.384 . S
N283 C275 1.427 . S
N283 C281 1.384 . S
H284 C290 0.930 . S
H285 C294 0.930 . S
H286 C299 0.929 . S
H287 C297 0.929 . S
H288 C292 0.929 . S
H289 C298 0.929 . S
C290 H284 0.930 . S
C290 C291 1.367 . S
C290 C298 1.378 . S
C291 C290 1.367 . S
C291 C299 1.433 . S
C292 H288 0.929 . S
C292 C294 1.378 . S
C292 C296 1.350 . S
C293 C296 1.463 . S
C293 C298 1.350 . S
C293 N301 1.427 . S
C294 H285 0.930 . S
C294 C292 1.378 . S
C294 C295 1.367 . S
C295 C294 1.367 . S
C295 C297 1.433 . S
C296 C292 1.350 . S
C296 C293 1.463 . S
C296 N300 1.427 . S
C297 H287 0.929 . S
C297 C295 1.433 . S
C297 N300 1.384 . S
C298 H289 0.929 . S
C298 C290 1.378 . S
C298 C293 1.350 . S
C299 H286 0.929 . S
C299 C291 1.433 . S
C299 N301 1.384 . S
N300 C296 1.427 . S
N300 C297 1.384 . S
N301 C293 1.427 . S
N301 C299 1.384 . S
H302 C308 0.930 . S
H303 C312 0.930 . S
H304 C317 0.929 . S
H305 C315 0.929 . S
H306 C310 0.929 . S
H307 C316 0.929 . S
C308 H302 0.930 . S
C308 C309 1.367 . S
C308 C316 1.378 . S
C309 C308 1.367 . S
C309 C317 1.433 . S
C310 H306 0.929 . S
C310 C312 1.378 . S
C310 C314 1.350 1_556 S
C311 C314 1.463 . S
C311 C316 1.350 . S
C311 N319 1.427 . S
C312 H303 0.930 . S
C312 C310 1.378 . S
C312 C313 1.367 . S
C313 C312 1.367 . S
C313 C315 1.433 1_556 S
C314 C310 1.350 1_554 S
C314 C311 1.463 . S
C314 N318 1.427 . S
C315 H305 0.929 . S
C315 C313 1.433 1_554 S
C315 N318 1.384 . S
C316 H307 0.929 . S
C316 C308 1.378 . S
C316 C311 1.350 . S
C317 H304 0.929 . S
C317 C309 1.433 . S
C317 N319 1.384 . S
N318 C314 1.427 . S
N318 C315 1.384 . S
N319 C311 1.427 . S
N319 C317 1.384 . S
H320 C326 0.930 . S
H321 C330 0.930 . S
H322 C335 0.929 . S
H323 C333 0.929 1_565 S
H324 C328 0.929 . S
H325 C334 0.929 . S
C326 H320 0.930 . S
C326 C327 1.367 . S
C326 C334 1.378 . S
C327 C326 1.367 . S
C327 C335 1.433 . S
C328 H324 0.929 . S
C328 C330 1.378 . S
C328 C332 1.350 . S
C329 C332 1.463 . S
C329 C334 1.350 . S
C329 N337 1.427 . S
C330 H321 0.930 . S
C330 C328 1.378 . S
C330 C331 1.367 . S
C331 C330 1.367 . S
C331 C333 1.433 . S
C332 C328 1.350 . S
C332 C329 1.463 . S
C332 N336 1.427 . S
C333 H323 0.929 1_545 S
C333 C331 1.433 . S
C333 N336 1.384 . S
C334 H325 0.929 . S
C334 C326 1.378 . S
C334 C329 1.350 . S
C335 H322 0.929 . S
C335 C327 1.433 . S
C335 N337 1.384 . S
N336 C332 1.427 . S
N336 C333 1.384 . S
N337 C329 1.427 . S
N337 C335 1.384 . S
H338 C344 0.930 . S
H339 C348 0.930 . S
H340 C353 0.929 . S
H341 C351 0.929 . S
H342 C346 0.929 . S
H343 C352 0.929 . S
C344 H338 0.930 . S
C344 C345 1.367 . S
C344 C352 1.378 . S
C345 C344 1.367 . S
C345 C353 1.433 . S
C346 H342 0.929 . S
C346 C348 1.378 . S
C346 C350 1.350 . S
C347 C350 1.463 . S
C347 C352 1.350 . S
C347 N355 1.427 . S
C348 H339 0.930 . S
C348 C346 1.378 . S
C348 C349 1.367 . S
C349 C348 1.367 . S
C349 C351 1.433 . S
C350 C346 1.350 . S
C350 C347 1.463 . S
C350 N354 1.427 . S
C351 H341 0.929 . S
C351 C349 1.433 . S
C351 N354 1.384 . S
C352 H343 0.929 . S
C352 C344 1.378 . S
C352 C347 1.350 . S
C353 H340 0.929 . S
C353 C345 1.433 . S
C353 N355 1.384 . S
N354 C350 1.427 . S
N354 C351 1.384 . S
N355 C347 1.427 . S
N355 C353 1.384 . S
H356 C362 0.930 . S
H357 C366 0.930 1_545 S
H358 C371 0.929 . S
H359 C369 0.929 . S
H360 C364 0.929 . S
H361 C370 0.929 . S
C362 H356 0.930 . S
C362 C363 1.367 1_556 S
C362 C370 1.378 . S
C363 C362 1.367 1_554 S
C363 C371 1.433 . S
C364 H360 0.929 . S
C364 C366 1.378 . S
C364 C368 1.350 . S
C365 C368 1.463 . S
C365 C370 1.350 . S
C365 N373 1.427 1_556 S
C366 H357 0.930 1_565 S
C366 C364 1.378 . S
C366 C367 1.367 . S
C367 C366 1.367 . S
C367 C369 1.433 . S
C368 C364 1.350 . S
C368 C365 1.463 . S
C368 N372 1.427 . S
C369 H359 0.929 . S
C369 C367 1.433 . S
C369 N372 1.384 . S
C370 H361 0.929 . S
C370 C362 1.378 . S
C370 C365 1.350 . S
C371 H358 0.929 . S
C371 C363 1.433 . S
C371 N373 1.384 . S
N372 C368 1.427 . S
N372 C369 1.384 . S
N373 C365 1.427 1_554 S
N373 C371 1.384 . S
H374 C380 0.930 . S
H375 C384 0.930 . S
H376 C389 0.929 . S
H377 C387 0.929 . S
H378 C382 0.929 . S
H379 C388 0.929 . S
C380 H374 0.930 . S
C380 C381 1.367 . S
C380 C388 1.378 . S
C381 C380 1.367 . S
C381 C389 1.433 . S
C382 H378 0.929 . S
C382 C384 1.378 . S
C382 C386 1.350 . S
C383 C386 1.463 . S
C383 C388 1.350 . S
C383 N391 1.427 . S
C384 H375 0.930 . S
C384 C382 1.378 . S
C384 C385 1.367 . S
C385 C384 1.367 . S
C385 C387 1.433 . S
C386 C382 1.350 . S
C386 C383 1.463 . S
C386 N390 1.427 . S
C387 H377 0.929 . S
C387 C385 1.433 . S
C387 N390 1.384 . S
C388 H379 0.929 . S
C388 C380 1.378 . S
C388 C383 1.350 . S
C389 H376 0.929 . S
C389 C381 1.433 . S
C389 N391 1.384 . S
N390 C386 1.427 . S
N390 C387 1.384 . S
N391 C383 1.427 . S
N391 C389 1.384 . S
H392 C398 0.930 . S
H393 C402 0.930 . S
H394 C407 0.929 . S
H395 C405 0.929 . S
H396 C400 0.929 . S
H397 C406 0.929 . S
C398 H392 0.930 . S
C398 C399 1.367 . S
C398 C406 1.378 . S
C399 C398 1.367 . S
C399 C407 1.433 . S
C400 H396 0.929 . S
C400 C402 1.378 . S
C400 C404 1.350 . S
C401 C404 1.463 1_556 S
C401 C406 1.350 . S
C401 N409 1.427 . S
C402 H393 0.930 . S
C402 C400 1.378 . S
C402 C403 1.367 . S
C403 C402 1.367 . S
C403 C405 1.433 . S
C404 C400 1.350 . S
C404 C401 1.463 1_554 S
C404 N408 1.427 . S
C405 H395 0.929 . S
C405 C403 1.433 . S
C405 N408 1.384 . S
C406 H397 0.929 . S
C406 C398 1.378 . S
C406 C401 1.350 . S
C407 H394 0.929 . S
C407 C399 1.433 . S
C407 N409 1.384 . S
N408 C404 1.427 . S
N408 C405 1.384 . S
N409 C401 1.427 . S
N409 C407 1.384 . S
H410 C416 0.930 . S
H411 C420 0.930 . S
H412 C425 0.929 . S
H413 C423 0.929 . S
H414 C418 0.929 . S
H415 C424 0.929 . S
C416 H410 0.930 . S
C416 C417 1.367 . S
C416 C424 1.378 . S
C417 C416 1.367 . S
C417 C425 1.433 . S
C418 H414 0.929 . S
C418 C420 1.378 . S
C418 C422 1.350 . S
C419 C422 1.463 . S
C419 C424 1.350 . S
C419 N427 1.427 . S
C420 H411 0.930 . S
C420 C418 1.378 . S
C420 C421 1.367 . S
C421 C420 1.367 . S
C421 C423 1.433 . S
C422 C418 1.350 . S
C422 C419 1.463 . S
C422 N426 1.427 . S
C423 H413 0.929 . S
C423 C421 1.433 . S
C423 N426 1.384 . S
C424 H415 0.929 . S
C424 C416 1.378 . S
C424 C419 1.350 . S
C425 H412 0.929 . S
C425 C417 1.433 . S
C425 N427 1.384 . S
N426 C422 1.427 . S
N426 C423 1.384 . S
N427 C419 1.427 . S
N427 C425 1.384 . S
H428 C434 0.930 . S
H429 C438 0.930 . S
H430 C443 0.929 . S
H431 C441 0.929 . S
H432 C436 0.929 . S
H433 C442 0.929 . S
C434 H428 0.930 . S
C434 C435 1.367 . S
C434 C442 1.378 . S
C435 C434 1.367 . S
C435 C443 1.433 . S
C436 H432 0.929 . S
C436 C438 1.378 . S
C436 C440 1.350 . S
C437 C440 1.463 . S
C437 C442 1.350 . S
C437 N445 1.427 . S
C438 H429 0.930 . S
C438 C436 1.378 . S
C438 C439 1.367 . S
C439 C438 1.367 . S
C439 C441 1.433 . S
C440 C436 1.350 . S
C440 C437 1.463 . S
C440 N444 1.427 . S
C441 H431 0.929 . S
C441 C439 1.433 . S
C441 N444 1.384 . S
C442 H433 0.929 . S
C442 C434 1.378 . S
C442 C437 1.350 . S
C443 H430 0.929 . S
C443 C435 1.433 . S
C443 N445 1.384 . S
N444 C440 1.427 . S
N444 C441 1.384 . S
N445 C437 1.427 . S
N445 C443 1.384 . S
H446 C452 0.930 . S
H447 C456 0.930 . S
H448 C461 0.929 . S
H449 C459 0.929 . S
H450 C454 0.929 . S
H451 C460 0.929 . S
C452 H446 0.930 . S
C452 C453 1.367 . S
C452 C460 1.378 . S
C453 C452 1.367 . S
C453 C461 1.433 . S
C454 H450 0.929 . S
C454 C456 1.378 . S
C454 C458 1.350 . S
C455 C458 1.463 . S
C455 C460 1.350 . S
C455 N463 1.427 . S
C456 H447 0.930 . S
C456 C454 1.378 . S
C456 C457 1.367 . S
C457 C456 1.367 . S
C457 C459 1.433 . S
C458 C454 1.350 . S
C458 C455 1.463 . S
C458 N462 1.427 . S
C459 H449 0.929 . S
C459 C457 1.433 . S
C459 N462 1.384 . S
C460 H451 0.929 . S
C460 C452 1.378 . S
C460 C455 1.350 . S
C461 H448 0.929 . S
C461 C453 1.433 . S
C461 N463 1.384 . S
N462 C458 1.427 . S
N462 C459 1.384 . S
N463 C455 1.427 . S
N463 C461 1.384 . S
H464 C470 0.930 . S
H465 C474 0.930 . S
H466 C479 0.929 . S
H467 C477 0.929 . S
H468 C472 0.929 . S
H469 C478 0.929 1_565 S
C470 H464 0.930 . S
C470 C471 1.367 . S
C470 C478 1.378 . S
C471 C470 1.367 . S
C471 C479 1.433 . S
C472 H468 0.929 . S
C472 C474 1.378 . S
C472 C476 1.350 . S
C473 C476 1.463 1_545 S
C473 C478 1.350 . S
C473 N481 1.427 . S
C474 H465 0.930 . S
C474 C472 1.378 . S
C474 C475 1.367 . S
C475 C474 1.367 . S
C475 C477 1.433 . S
C476 C472 1.350 . S
C476 C473 1.463 1_565 S
C476 N480 1.427 . S
C477 H467 0.929 . S
C477 C475 1.433 . S
C477 N480 1.384 . S
C478 H469 0.929 1_545 S
C478 C470 1.378 . S
C478 C473 1.350 . S
C479 H466 0.929 . S
C479 C471 1.433 . S
C479 N481 1.384 . S
N480 C476 1.427 . S
N480 C477 1.384 . S
N481 C473 1.427 . S
N481 C479 1.384 . S
H482 C488 0.930 . S
H483 C492 0.930 . S
H484 C497 0.929 . S
H485 C495 0.929 . S
H486 C490 0.929 . S
H487 C496 0.929 . S
C488 H482 0.930 . S
C488 C489 1.367 . S
C488 C496 1.378 . S
C489 C488 1.367 . S
C489 C497 1.433 . S
C490 H486 0.929 . S
C490 C492 1.378 . S
C490 C494 1.350 . S
C491 C494 1.463 . S
C491 C496 1.350 . S
C491 N499 1.427 . S
C492 H483 0.930 . S
C492 C490 1.378 . S
C492 C493 1.367 . S
C493 C492 1.367 . S
C493 C495 1.433 . S
C494 C490 1.350 . S
C494 C491 1.463 . S
C494 N498 1.427 . S
C495 H485 0.929 . S
C495 C493 1.433 . S
C495 N498 1.384 . S
C496 H487 0.929 . S
C496 C488 1.378 . S
C496 C491 1.350 . S
C497 H484 0.929 . S
C497 C489 1.433 . S
C497 N499 1.384 . S
N498 C494 1.427 . S
N498 C495 1.384 . S
N499 C491 1.427 . S
N499 C497 1.384 . S
H500 C506 0.930 . S
H501 C510 0.930 . S
H502 C515 0.929 . S
H503 C513 0.929 . S
H504 C508 0.929 . S
H505 C514 0.929 . S
C506 H500 0.930 . S
C506 C507 1.367 . S
C506 C514 1.378 . S
C507 C506 1.367 . S
C507 C515 1.433 . S
C508 H504 0.929 . S
C508 C510 1.378 . S
C508 C512 1.350 . S
C509 C512 1.463 1_545 S
C509 C514 1.350 . S
C509 N517 1.427 . S
C510 H501 0.930 . S
C510 C508 1.378 . S
C510 C511 1.367 . S
C511 C510 1.367 . S
C511 C513 1.433 . S
C512 C508 1.350 . S
C512 C509 1.463 1_565 S
C512 N516 1.427 . S
C513 H503 0.929 . S
C513 C511 1.433 . S
C513 N516 1.384 . S
C514 H505 0.929 . S
C514 C506 1.378 . S
C514 C509 1.350 . S
C515 H502 0.929 . S
C515 C507 1.433 . S
C515 N517 1.384 . S
N516 C512 1.427 . S
N516 C513 1.384 . S
N517 C509 1.427 . S
N517 C515 1.384 . S
H518 C524 0.930 . S
H519 C528 0.930 . S
H520 C533 0.929 . S
H521 C531 0.929 . S
H522 C526 0.929 . S
H523 C532 0.929 . S
C524 H518 0.930 . S
C524 C525 1.367 . S
C524 C532 1.378 . S
C525 C524 1.367 . S
C525 C533 1.433 . S
C526 H522 0.929 . S
C526 C528 1.378 . S
C526 C530 1.350 . S
C527 C530 1.463 . S
C527 C532 1.350 . S
C527 N535 1.427 . S
C528 H519 0.930 . S
C528 C526 1.378 . S
C528 C529 1.367 . S
C529 C528 1.367 . S
C529 C531 1.433 . S
C530 C526 1.350 . S
C530 C527 1.463 . S
C530 N534 1.427 . S
C531 H521 0.929 . S
C531 C529 1.433 . S
C531 N534 1.384 . S
C532 H523 0.929 . S
C532 C524 1.378 . S
C532 C527 1.350 . S
C533 H520 0.929 . S
C533 C525 1.433 . S
C533 N535 1.384 . S
N534 C530 1.427 . S
N534 C531 1.384 . S
N535 C527 1.427 . S
N535 C533 1.384 . S
H536 C542 0.930 . S
H537 C546 0.930 . S
H538 C551 0.929 . S
H539 C549 0.929 . S
H540 C544 0.929 . S
H541 C550 0.929 . S
C542 H536 0.930 . S
C542 C543 1.367 . S
C542 C550 1.378 . S
C543 C542 1.367 . S
C543 C551 1.433 . S
C544 H540 0.929 . S
C544 C546 1.378 . S
C544 C548 1.350 . S
C545 C548 1.463 . S
C545 C550 1.350 . S
C545 N553 1.427 . S
C546 H537 0.930 . S
C546 C544 1.378 . S
C546 C547 1.367 . S
C547 C546 1.367 . S
C547 C549 1.433 . S
C548 C544 1.350 . S
C548 C545 1.463 . S
C548 N552 1.427 . S
C549 H539 0.929 . S
C549 C547 1.433 . S
C549 N552 1.384 . S
C550 H541 0.929 . S
C550 C542 1.378 . S
C550 C545 1.350 . S
C551 H538 0.929 . S
C551 C543 1.433 . S
C551 N553 1.384 . S
N552 C548 1.427 . S
N552 C549 1.384 . S
N553 C545 1.427 . S
N553 C551 1.384 . S
H554 C560 0.930 . S
H555 C564 0.930 . S
H556 C569 0.929 . S
H557 C567 0.929 . S
H558 C562 0.929 . S
H559 C568 0.929 . S
C560 H554 0.930 . S
C560 C561 1.367 . S
C560 C568 1.378 . S
C561 C560 1.367 . S
C561 C569 1.433 . S
C562 H558 0.929 . S
C562 C564 1.378 . S
C562 C566 1.350 . S
C563 C566 1.463 1_455 S
C563 C568 1.350 . S
C563 N571 1.427 . S
C564 H555 0.930 . S
C564 C562 1.378 . S
C564 C565 1.367 . S
C565 C564 1.367 . S
C565 C567 1.433 . S
C566 C562 1.350 . S
C566 C563 1.463 1_655 S
C566 N570 1.427 . S
C567 H557 0.929 . S
C567 C565 1.433 . S
C567 N570 1.384 . S
C568 H559 0.929 . S
C568 C560 1.378 . S
C568 C563 1.350 . S
C569 H556 0.929 . S
C569 C561 1.433 . S
C569 N571 1.384 . S
N570 C566 1.427 . S
N570 C567 1.384 . S
N571 C563 1.427 . S
N571 C569 1.384 . S
H572 C578 0.930 . S
H573 C582 0.930 . S
H574 C587 0.929 . S
H575 C585 0.929 . S
H576 C580 0.929 . S
H577 C586 0.929 . S
C578 H572 0.930 . S
C578 C579 1.367 . S
C578 C586 1.378 . S
C579 C578 1.367 . S
C579 C587 1.433 . S
C580 H576 0.929 . S
C580 C582 1.378 . S
C580 C584 1.350 . S
C581 C584 1.463 . S
C581 C586 1.350 . S
C581 N589 1.427 . S
C582 H573 0.930 . S
C582 C580 1.378 . S
C582 C583 1.367 . S
C583 C582 1.367 . S
C583 C585 1.433 . S
C584 C580 1.350 . S
C584 C581 1.463 . S
C584 N588 1.427 . S
C585 H575 0.929 . S
C585 C583 1.433 . S
C585 N588 1.384 . S
C586 H577 0.929 . S
C586 C578 1.378 . S
C586 C581 1.350 . S
C587 H574 0.929 . S
C587 C579 1.433 . S
C587 N589 1.384 . S
N588 C584 1.427 . S
N588 C585 1.384 . S
N589 C581 1.427 . S
N589 C587 1.384 . S
H590 C596 0.930 . S
H591 C600 0.930 . S
H592 C605 0.929 . S
H593 C603 0.929 . S
H594 C598 0.929 . S
H595 C604 0.929 . S
C596 H590 0.930 . S
C596 C597 1.367 . S
C596 C604 1.378 . S
C597 C596 1.367 . S
C597 C605 1.433 . S
C598 H594 0.929 . S
C598 C600 1.378 . S
C598 C602 1.350 . S
C599 C602 1.463 1_655 S
C599 C604 1.350 . S
C599 N607 1.427 . S
C600 H591 0.930 . S
C600 C598 1.378 . S
C600 C601 1.367 . S
C601 C600 1.367 . S
C601 C603 1.433 . S
C602 C598 1.350 . S
C602 C599 1.463 1_455 S
C602 N606 1.427 . S
C603 H593 0.929 . S
C603 C601 1.433 . S
C603 N606 1.384 . S
C604 H595 0.929 . S
C604 C596 1.378 . S
C604 C599 1.350 . S
C605 H592 0.929 . S
C605 C597 1.433 . S
C605 N607 1.384 . S
N606 C602 1.427 . S
N606 C603 1.384 . S
N607 C599 1.427 . S
N607 C605 1.384 . S
C183 C8 1.576 . S
C187 C162 1.580 . S
C201 C32 1.580 . S
C205 C106 1.575 . S
C219 C52 1.578 . S
C223 C120 1.575 . S
C237 C142 1.577 . S
C241 C84 1.579 . S
C255 C10 1.325 . S
C259 C37 1.362 . S
C273 C65 1.362 . S
C277 C40 1.336 . S
C291 C73 1.359 . S
C295 C54 1.331 . S
C309 C21 1.363 . S
C313 C74 1.330 . S
C327 C96 1.327 . S
C331 C175 1.363 . S
C345 C128 1.332 . S
C349 C95 1.359 . S
C363 C150 1.338 . S
C367 C125 1.360 . S
C381 C147 1.361 . S
C385 C164 1.325 . S
C399 C131 0.717 . S
C403 C7 0.719 . S
C417 C153 0.719 . S
C421 C43 0.707 . S
C435 C161 0.714 . S
C439 C51 0.708 . S
C453 C103 0.722 . S
C457 C81 0.711 . S
C471 C18 1.560 . S
C475 C139 1.546 . S
C489 C30 1.554 . S
C493 C169 1.555 . S
C507 C109 1.542 . S
C511 C62 1.557 . S
C525 C117 1.545 . S
C529 C76 1.548 . S
C543 C59 1.543 . S
C547 C98 1.550 . S
C561 C118 1.549 . S
C565 C87 1.544 . S
C579 C140 1.548 . S
C583 C15 1.547 . S
C597 C172 1.548 . S
C601 C29 1.546 . S
