# Generated by pormake.
# Topology srs, (3)-cn, num edge types: 1
# Building blocks:
#     Node 0, Type 0, BuildingBlock: WUSLED_clean_sbu_0, # of connection points: 3
#     Node 1, Type 0, BuildingBlock: WUSLED_clean_sbu_0, # of connection points: 3
#     Node 2, Type 0, BuildingBlock: WUSLED_clean_sbu_0, # of connection points: 3
#     Node 3, Type 0, BuildingBlock: WUSLED_clean_sbu_0, # of connection points: 3
#     Node 4, Type 0, BuildingBlock: WUSLED_clean_sbu_0, # of connection points: 3
#     Node 5, Type 0, BuildingBlock: WUSLED_clean_sbu_0, # of connection points: 3
#     Node 6, Type 0, BuildingBlock: WUSLED_clean_sbu_0, # of connection points: 3
#     Node 7, Type 0, BuildingBlock: WUSLED_clean_sbu_0, # of connection points: 3
#     Edge 8, Type (0, 0), BuildingBlock: OJICUG_clean_linker_0, # of connection points: 2
#     Edge 9, Type (0, 0), BuildingBlock: OJICUG_clean_linker_0, # of connection points: 2
#     Edge 10, Type (0, 0), BuildingBlock: OJICUG_clean_linker_0, # of connection points: 2
#     Edge 11, Type (0, 0), BuildingBlock: OJICUG_clean_linker_0, # of connection points: 2
#     Edge 12, Type (0, 0), BuildingBlock: OJICUG_clean_linker_0, # of connection points: 2
#     Edge 13, Type (0, 0), BuildingBlock: OJICUG_clean_linker_0, # of connection points: 2
#     Edge 14, Type (0, 0), BuildingBlock: OJICUG_clean_linker_0, # of connection points: 2
#     Edge 15, Type (0, 0), BuildingBlock: OJICUG_clean_linker_0, # of connection points: 2
#     Edge 16, Type (0, 0), BuildingBlock: OJICUG_clean_linker_0, # of connection points: 2
#     Edge 17, Type (0, 0), BuildingBlock: OJICUG_clean_linker_0, # of connection points: 2
#     Edge 18, Type (0, 0), BuildingBlock: OJICUG_clean_linker_0, # of connection points: 2
#     Edge 19, Type (0, 0), BuildingBlock: OJICUG_clean_linker_0, # of connection points: 2
# Relax obj value: 0.000
# Max RMSD: 0.008
# Mean RMSD: 0.008
data_MOF--net-srs--node1-WUSLED_clean_sbu_0--edge1-OJICUG_clean_linker_0
_symmetry_space_group_name_H-M    P1
_symmetry_Int_Tables_number       1
_symmetry_cell_setting            triclinic
loop_
_symmetry_equiv_pos_as_xyz
'x, y, z'
_cell_length_a     51.976606
_cell_length_b     52.531198
_cell_length_c     52.5233
_cell_angle_alpha  90.000981
_cell_angle_beta   90.003173
_cell_angle_gamma 89.999013
loop_
_atom_site_label
_atom_site_type_symbol
_atom_site_fract_x
_atom_site_fract_y
_atom_site_fract_z
_atom_type_partial_charge
C0 C 0.13611 0.12042 0.21762 0.0
C1 C 0.15436 0.10113 0.21369 0.0
C2 C 0.13826 0.07824 0.25083 0.0
C3 C 0.15546 0.0802 0.23019 0.0
C4 C 0.12032 0.0979 0.25481 0.0
C5 C 0.11926 0.11876 0.23834 0.0
U6 U 0.15879 0.15976 0.1603 0.0
O7 O 0.13578 0.17882 0.13077 0.0
O8 O 0.16067 0.20136 0.15585 0.0
C9 C 0.14275 0.2017 0.13821 0.0
C10 C 0.13401 0.14221 0.2002 0.0
C11 C 0.1216 0.21973 0.14262 0.0
C12 C 0.08347 0.23285 0.16597 0.0
C13 C 0.10332 0.21533 0.16177 0.0
C14 C 0.09998 0.25927 0.13187 0.0
C15 C 0.08159 0.25508 0.1511 0.0
C16 C 0.11979 0.24174 0.12769 0.0
C17 C 0.21759 0.14015 0.12161 0.0
C18 C 0.23107 0.16358 0.08401 0.0
C19 C 0.25751 0.12923 0.10024 0.0
C20 C 0.23974 0.12508 0.11978 0.0
C21 C 0.25345 0.14857 0.08212 0.0
C22 C 0.21331 0.15942 0.10361 0.0
C23 C 0.19942 0.13588 0.14263 0.0
O24 O 0.15255 0.15915 0.20174 0.0
O25 O 0.1276 0.13667 0.17663 0.0
O26 O 0.17576 0.13019 0.13585 0.0
O27 O 0.2005 0.15266 0.16115 0.0
H28 H 0.16754 0.10215 0.19773 0.0
H29 H 0.16935 0.0653 0.22646 0.0
H30 H 0.10709 0.09723 0.27073 0.0
H31 H 0.10514 0.13356 0.24171 0.0
H32 H 0.06949 0.22887 0.18073 0.0
H33 H 0.10443 0.19837 0.17346 0.0
H34 H 0.09938 0.27633 0.12032 0.0
H35 H 0.13381 0.24546 0.11289 0.0
H36 H 0.22718 0.17843 0.07024 0.0
H37 H 0.27469 0.11758 0.09963 0.0
H38 H 0.24339 0.11021 0.13362 0.0
H39 H 0.19628 0.17126 0.10476 0.0
C40 C 0.13608 0.94773 0.35067 0.0
C41 C 0.1543 0.96704 0.35464 0.0
C42 C 0.13825 0.98992 0.31746 0.0
C43 C 0.1554 0.98797 0.33814 0.0
C44 C 0.12033 0.97024 0.31345 0.0
C45 C 0.11927 0.94938 0.32992 0.0
U46 U 0.15875 0.90839 0.40798 0.0
O47 O 0.13574 0.8893 0.4375 0.0
O48 O 0.16066 0.86678 0.41242 0.0
C49 C 0.14273 0.86643 0.43006 0.0
C50 C 0.13398 0.92594 0.36809 0.0
C51 C 0.12159 0.84838 0.42564 0.0
C52 C 0.08345 0.83527 0.4023 0.0
C53 C 0.10329 0.85279 0.40651 0.0
C54 C 0.10002 0.80882 0.43637 0.0
C55 C 0.0816 0.81301 0.41716 0.0
C56 C 0.11981 0.82636 0.44055 0.0
C57 C 0.21752 0.92801 0.44671 0.0
C58 C 0.23124 0.90427 0.48404 0.0
C59 C 0.25721 0.93921 0.46836 0.0
C60 C 0.23943 0.94337 0.44882 0.0
C61 C 0.25339 0.91956 0.48619 0.0
C62 C 0.21347 0.90845 0.46444 0.0
C63 C 0.19935 0.93228 0.42569 0.0
O64 O 0.15252 0.909 0.36654 0.0
O65 O 0.12756 0.93147 0.39165 0.0
O66 O 0.17569 0.93795 0.43247 0.0
O67 O 0.20045 0.91551 0.40716 0.0
H68 H 0.16745 0.96604 0.37062 0.0
H69 H 0.16927 1.00289 0.3419 0.0
H70 H 0.10714 0.97089 0.2975 0.0
H71 H 0.10517 0.93456 0.32651 0.0
H72 H 0.06945 0.83925 0.38756 0.0
H73 H 0.10438 0.86976 0.39483 0.0
H74 H 0.09943 0.79174 0.4479 0.0
H75 H 0.13385 0.82263 0.45533 0.0
H76 H 0.22752 0.88917 0.49759 0.0
H77 H 0.27422 0.95109 0.46918 0.0
H78 H 0.24291 0.95848 0.43519 0.0
H79 H 0.19662 0.89638 0.46307 0.0
C80 C 0.38606 0.96744 0.69784 0.0
C81 C 0.40433 0.96353 0.71712 0.0
C82 C 0.38823 1.00066 0.74002 0.0
C83 C 0.40543 0.98004 0.73805 0.0
C84 C 0.37025 1.00462 0.72037 0.0
C85 C 0.36919 0.98815 0.69952 0.0
U86 U 0.40872 0.91012 0.6585 0.0
O87 O 0.38571 0.88062 0.63941 0.0
O88 O 0.41064 0.90568 0.6169 0.0
C89 C 0.3927 0.88806 0.61654 0.0
C90 C 0.38396 0.95003 0.67604 0.0
C91 C 0.37156 0.89249 0.59849 0.0
C92 C 0.33357 0.916 0.58525 0.0
C93 C 0.35341 0.91178 0.60279 0.0
C94 C 0.34985 0.88163 0.55903 0.0
C95 C 0.33158 0.901 0.56311 0.0
C96 C 0.36964 0.87744 0.57657 0.0
C97 C 0.46747 0.87138 0.67814 0.0
C98 C 0.48137 0.83428 0.65415 0.0
C99 C 0.50698 0.84952 0.68956 0.0
C100 C 0.48919 0.86906 0.69373 0.0
C101 C 0.50334 0.83191 0.66967 0.0
C102 C 0.4636 0.85387 0.65834 0.0
C103 C 0.44931 0.8924 0.68242 0.0
O104 O 0.40251 0.95156 0.65911 0.0
O105 O 0.37753 0.92647 0.68158 0.0
O106 O 0.42564 0.88563 0.68807 0.0
O107 O 0.45041 0.91094 0.66565 0.0
H108 H 0.41752 0.94759 0.71608 0.0
H109 H 0.41935 0.97632 0.75293 0.0
H110 H 0.35702 1.02053 0.72106 0.0
H111 H 0.35506 0.99151 0.68473 0.0
H112 H 0.31969 0.93086 0.58915 0.0
H113 H 0.35461 0.92357 0.61968 0.0
H114 H 0.34915 0.86998 0.54203 0.0
H115 H 0.38357 0.86253 0.57293 0.0
H116 H 0.4778 0.8209 0.63887 0.0
H117 H 0.52384 0.84853 0.70163 0.0
H118 H 0.49253 0.88251 0.70902 0.0
H119 H 0.44689 0.85541 0.6461 0.0
C120 C 0.38609 0.1006 0.87047 0.0
C121 C 0.40429 0.10456 0.85113 0.0
C122 C 0.38826 0.06735 0.82831 0.0
C123 C 0.40539 0.08804 0.83021 0.0
C124 C 0.37037 0.06333 0.84802 0.0
C125 C 0.36931 0.07982 0.86887 0.0
U126 U 0.40871 0.15798 0.90975 0.0
O127 O 0.38565 0.18748 0.9288 0.0
O128 O 0.41061 0.16248 0.95135 0.0
C129 C 0.39265 0.18009 0.95168 0.0
C130 C 0.38398 0.11804 0.89224 0.0
C131 C 0.37151 0.17564 0.96973 0.0
C132 C 0.3338 0.15184 0.98319 0.0
C133 C 0.35363 0.15607 0.96565 0.0
C134 C 0.34953 0.1868 1.00895 0.0
C135 C 0.33154 0.16713 1.00511 0.0
C136 C 0.36932 0.191 0.99141 0.0
C137 C 0.46745 0.19673 0.89011 0.0
C138 C 0.48121 0.23398 0.91393 0.0
C139 C 0.50707 0.21846 0.87883 0.0
C140 C 0.48929 0.19891 0.87466 0.0
C141 C 0.50331 0.23621 0.89856 0.0
C142 C 0.46345 0.21439 0.90975 0.0
C143 C 0.4493 0.17569 0.88584 0.0
O144 O 0.40253 0.11653 0.90918 0.0
O145 O 0.37754 0.14159 0.88668 0.0
O146 O 0.42563 0.18245 0.88016 0.0
O147 O 0.45041 0.15718 0.90263 0.0
H148 H 0.41741 0.12056 0.8521 0.0
H149 H 0.41924 0.0918 0.81528 0.0
H150 H 0.3572 0.04737 0.84739 0.0
H151 H 0.35524 0.07642 0.8837 0.0
H152 H 0.32013 0.13673 0.97947 0.0
H153 H 0.35504 0.14405 0.94894 0.0
H154 H 0.34862 0.19868 1.02578 0.0
H155 H 0.38303 0.20614 0.99487 0.0
H156 H 0.47754 0.24747 0.92909 0.0
H157 H 0.52403 0.21934 0.86688 0.0
H158 H 0.49273 0.18535 0.8595 0.0
H159 H 0.44665 0.21295 0.92188 0.0
C160 C 0.63603 0.44774 0.85069 0.0
C161 C 0.65425 0.46705 0.85464 0.0
C162 C 0.63819 0.4899 0.81745 0.0
C163 C 0.65534 0.48797 0.83813 0.0
C164 C 0.62028 0.47021 0.81345 0.0
C165 C 0.61922 0.44936 0.82993 0.0
U166 U 0.6587 0.40842 0.90803 0.0
O167 O 0.63568 0.38934 0.93754 0.0
O168 O 0.6606 0.36682 0.91248 0.0
C169 C 0.64267 0.36647 0.9301 0.0
C170 C 0.63394 0.42595 0.86812 0.0
C171 C 0.62152 0.34842 0.92567 0.0
C172 C 0.58345 0.33528 0.90224 0.0
C173 C 0.60329 0.35279 0.90646 0.0
C174 C 0.59987 0.30892 0.93644 0.0
C175 C 0.58153 0.31307 0.91715 0.0
C176 C 0.61967 0.32645 0.94064 0.0
C177 C 0.71746 0.42804 0.94677 0.0
C178 C 0.73132 0.4041 0.98391 0.0
C179 C 0.757 0.43942 0.96859 0.0
C180 C 0.73921 0.44359 0.94905 0.0
C181 C 0.75333 0.41958 0.98625 0.0
C182 C 0.71356 0.40829 0.96433 0.0
C183 C 0.6993 0.43232 0.92574 0.0
O184 O 0.65248 0.40902 0.86658 0.0
O185 O 0.62751 0.43149 0.89168 0.0
O186 O 0.67563 0.43798 0.93252 0.0
O187 O 0.70039 0.41555 0.90721 0.0
H188 H 0.6674 0.46606 0.87062 0.0
H189 H 0.66921 0.50289 0.84188 0.0
H190 H 0.60709 0.47085 0.7975 0.0
H191 H 0.60513 0.43454 0.82654 0.0
H192 H 0.56951 0.33923 0.88744 0.0
H193 H 0.60445 0.36973 0.89473 0.0
H194 H 0.59922 0.29188 0.94802 0.0
H195 H 0.63365 0.32275 0.95548 0.0
H196 H 0.72773 0.38886 0.99733 0.0
H197 H 0.77389 0.45146 0.96955 0.0
H198 H 0.74258 0.45884 0.93557 0.0
H199 H 0.69682 0.39608 0.96282 0.0
C200 C 0.88607 0.46749 0.19781 0.0
C201 C 0.90429 0.46354 0.21713 0.0
C202 C 0.88823 0.50072 0.23999 0.0
C203 C 0.90538 0.48005 0.23806 0.0
C204 C 0.87031 0.50471 0.22029 0.0
C205 C 0.86926 0.48824 0.19944 0.0
U206 U 0.90875 0.41017 0.15848 0.0
O207 O 0.88574 0.38066 0.13938 0.0
O208 O 0.91065 0.40573 0.11687 0.0
C209 C 0.89272 0.3881 0.11651 0.0
C210 C 0.88398 0.45007 0.17602 0.0
C211 C 0.87158 0.39253 0.09846 0.0
C212 C 0.83341 0.41582 0.08538 0.0
C213 C 0.85325 0.41162 0.10291 0.0
C214 C 0.85004 0.38185 0.05886 0.0
C215 C 0.83158 0.40102 0.0631 0.0
C216 C 0.86983 0.37767 0.0764 0.0
C217 C 0.9675 0.37143 0.17811 0.0
C218 C 0.98131 0.33423 0.15423 0.0
C219 C 1.00709 0.34966 0.18944 0.0
C220 C 0.98931 0.3692 0.1936 0.0
C221 C 1.00337 0.33195 0.16965 0.0
C222 C 0.96355 0.35382 0.15841 0.0
C223 C 0.94934 0.39245 0.18238 0.0
O224 O 0.90253 0.45161 0.15909 0.0
O225 O 0.87756 0.42651 0.18155 0.0
O226 O 0.92567 0.38568 0.18805 0.0
O227 O 0.95044 0.41099 0.16561 0.0
H228 H 0.91744 0.44756 0.21613 0.0
H229 H 0.91926 0.4763 0.25298 0.0
H230 H 0.85712 0.52066 0.22094 0.0
H231 H 0.85516 0.49163 0.18461 0.0
H232 H 0.81938 0.43053 0.0894 0.0
H233 H 0.85432 0.42326 0.11991 0.0
H234 H 0.84947 0.37036 0.04176 0.0
H235 H 0.8839 0.36291 0.07264 0.0
H236 H 0.97768 0.32078 0.13903 0.0
H237 H 1.02401 0.34874 0.20142 0.0
H238 H 0.99271 0.38273 0.20881 0.0
H239 H 0.94677 0.35529 0.14625 0.0
C240 C 0.88607 0.60062 0.37045 0.0
C241 C 0.90432 0.60455 0.35116 0.0
C242 C 0.88822 0.5674 0.32827 0.0
C243 C 0.90541 0.58804 0.33023 0.0
C244 C 0.87027 0.56343 0.34794 0.0
C245 C 0.86922 0.5799 0.36879 0.0
U246 U 0.90876 0.65793 0.4098 0.0
O247 O 0.88577 0.68743 0.42891 0.0
O248 O 0.91069 0.66235 0.45141 0.0
C249 C 0.89276 0.67999 0.45178 0.0
C250 C 0.88399 0.61804 0.39225 0.0
C251 C 0.87163 0.67556 0.46983 0.0
C252 C 0.83337 0.65237 0.48284 0.0
C253 C 0.8532 0.65657 0.46532 0.0
C254 C 0.85018 0.68614 0.50951 0.0
C255 C 0.83164 0.66708 0.5052 0.0
C256 C 0.86998 0.69032 0.49197 0.0
C257 C 0.96752 0.69666 0.39017 0.0
C258 C 0.98134 0.73384 0.41406 0.0
C259 C 1.00708 0.71845 0.37881 0.0
C260 C 0.9893 0.69891 0.37465 0.0
C261 C 1.00338 0.73614 0.39862 0.0
C262 C 0.96358 0.71425 0.40988 0.0
C263 C 0.94935 0.67564 0.38589 0.0
O264 O 0.90254 0.61649 0.40918 0.0
O265 O 0.87756 0.6416 0.38673 0.0
O266 O 0.92568 0.68242 0.38023 0.0
O267 O 0.95046 0.6571 0.40265 0.0
H268 H 0.9175 0.6205 0.35218 0.0
H269 H 0.91931 0.59177 0.31533 0.0
H270 H 0.85705 0.54751 0.34727 0.0
H271 H 0.8551 0.57653 0.3836 0.0
H272 H 0.81927 0.63775 0.47877 0.0
H273 H 0.8542 0.64501 0.44826 0.0
H274 H 0.84969 0.69755 0.52667 0.0
H275 H 0.88411 0.70499 0.49578 0.0
H276 H 0.97772 0.74728 0.42928 0.0
H277 H 1.02399 0.71938 0.36681 0.0
H278 H 0.99269 0.68539 0.35943 0.0
H279 H 0.94682 0.71277 0.42206 0.0
C280 C 0.63603 0.62034 0.71753 0.0
C281 C 0.65428 0.60106 0.7136 0.0
C282 C 0.63818 0.57817 0.75075 0.0
C283 C 0.65537 0.58013 0.73011 0.0
C284 C 0.62023 0.59783 0.75472 0.0
C285 C 0.61918 0.61869 0.73825 0.0
U286 U 0.65873 0.65969 0.66023 0.0
O287 O 0.63574 0.67881 0.63072 0.0
O288 O 0.66066 0.7013 0.65581 0.0
C289 C 0.64273 0.70167 0.63818 0.0
C290 C 0.63395 0.64215 0.70012 0.0
C291 C 0.6216 0.71972 0.64261 0.0
C292 C 0.58339 0.73277 0.66587 0.0
C293 C 0.60323 0.71525 0.66166 0.0
C294 C 0.60009 0.75935 0.63198 0.0
C295 C 0.5816 0.75509 0.6511 0.0
C296 C 0.61989 0.74181 0.62779 0.0
C297 C 0.71749 0.64007 0.6215 0.0
C298 C 0.73143 0.6641 0.58445 0.0
C299 C 0.75695 0.62859 0.59959 0.0
C300 C 0.73916 0.62442 0.61912 0.0
C301 C 0.75336 0.64853 0.58203 0.0
C302 C 0.71366 0.65991 0.60403 0.0
C303 C 0.69932 0.63578 0.64251 0.0
O304 O 0.6525 0.65907 0.70167 0.0
O305 O 0.62753 0.63662 0.67655 0.0
O306 O 0.67565 0.63014 0.63573 0.0
O307 O 0.70042 0.65253 0.66106 0.0
H308 H 0.66746 0.60207 0.69765 0.0
H309 H 0.66927 0.56523 0.72638 0.0
H310 H 0.60701 0.59716 0.77065 0.0
H311 H 0.60506 0.63349 0.74163 0.0
H312 H 0.56933 0.72873 0.68054 0.0
H313 H 0.60426 0.69822 0.67327 0.0
H314 H 0.59956 0.77648 0.62052 0.0
H315 H 0.63399 0.74559 0.61307 0.0
H316 H 0.7279 0.67943 0.57111 0.0
H317 H 0.77378 0.61648 0.59856 0.0
H318 H 0.74246 0.60909 0.63253 0.0
H319 H 0.69698 0.67219 0.60561 0.0
C320 C 0.11526 1.02348 0.29216 0.0
C321 C 0.13851 1.01258 0.30043 0.0
H322 H 0.09696 0.05233 0.26989 0.0
C323 C 0.16182 1.02348 0.29226 0.0
H324 H 0.09696 1.01578 0.29831 0.0
C325 C 0.16182 0.0447 0.27609 0.0
C326 C 0.13852 0.05557 0.26786 0.0
H327 H 0.18007 1.01544 0.29811 0.0
H328 H 0.18007 0.05276 0.27027 0.0
C329 C 0.11526 0.04465 0.27609 0.0
C330 C 0.28485 0.93521 0.51912 0.0
C331 C 0.27271 0.9148 0.50662 0.0
H332 H 0.31299 0.94692 0.54648 0.0
C333 C 0.27959 0.8898 0.51338 0.0
H334 H 0.27981 0.9547 0.51463 0.0
C335 C 0.29841 0.88534 0.53188 0.0
C336 C 0.31084 0.90575 0.54411 0.0
H337 H 0.27082 0.87363 0.50399 0.0
H338 H 0.30321 0.86584 0.53662 0.0
C339 C 0.30368 0.93074 0.53763 0.0
C340 C 0.36525 1.02591 0.77363 0.0
C341 C 0.3885 1.0177 0.76268 0.0
H342 H 0.34695 0.04814 0.80251 0.0
C343 C 0.4118 1.02595 0.77353 0.0
H344 H 0.34694 1.0197 0.76598 0.0
C345 C 0.41181 0.04213 0.79473 0.0
C346 C 0.38851 0.0503 0.80566 0.0
H347 H 0.43005 1.02015 0.76544 0.0
H348 H 0.43007 0.04801 0.80275 0.0
C349 C 0.36525 0.04199 0.7948 0.0
C350 C 0.27928 0.17831 0.05456 0.0
C351 C 0.27275 0.15332 0.06167 0.0
H352 H 0.30259 0.20226 1.03101 0.0
C353 C 0.28522 0.13291 0.04949 0.0
H354 H 0.27025 0.19449 0.06368 0.0
C355 C 0.30402 0.13737 1.03097 0.0
C356 C 0.31083 0.16236 1.02413 0.0
H357 H 0.28045 0.11341 0.05426 0.0
H358 H 0.31359 0.1212 1.02237 0.0
C359 C 0.29807 0.18277 0.03603 0.0
C360 C 1.03468 0.29889 0.18529 0.0
C361 C 1.02268 0.31154 0.16488 0.0
H362 H 0.06271 0.27144 0.19701 0.0
C363 C 1.02973 0.30493 0.13989 0.0
H364 H 1.02951 0.30326 0.20478 0.0
C365 C 0.04855 0.28644 0.13542 0.0
C366 C 0.06084 0.27407 0.15584 0.0
H367 H 1.02107 0.31443 0.12371 0.0
H368 H 0.05347 0.28182 0.11593 0.0
C369 C 0.05351 0.2804 0.18083 0.0
C370 C 0.5296 0.26328 0.92834 0.0
C371 C 0.52262 0.25662 0.90334 0.0
H372 H 0.5533 0.28643 0.95231 0.0
C373 C 0.53468 0.26922 0.88293 0.0
H374 H 0.5209 0.25383 0.94451 0.0
C375 C 0.55352 0.28771 0.88741 0.0
C376 C 0.56078 0.29409 0.9124 0.0
H377 H 0.52956 0.26481 0.86344 0.0
H378 H 0.56276 0.29663 0.87123 0.0
C379 C 0.54843 0.28177 0.93281 0.0
C380 C 0.0535 0.78772 0.38744 0.0
C381 C 0.06085 0.79402 0.41242 0.0
H382 H 1.02948 0.76487 0.36349 0.0
C383 C 0.04859 0.78163 0.43284 0.0
H384 H 0.06267 0.7967 0.37125 0.0
C385 C 1.02977 0.76314 0.42838 0.0
C386 C 1.0227 0.75655 0.40338 0.0
H387 H 0.05353 0.78624 0.45233 0.0
H388 H 1.02114 0.75363 0.44455 0.0
C389 C 1.03467 0.76922 0.38297 0.0
C390 C 0.5534 0.78027 0.68083 0.0
C391 C 0.56085 0.77407 0.65584 0.0
H392 H 0.52929 0.80302 0.70478 0.0
C393 C 0.54868 0.78655 0.63543 0.0
H394 H 0.56251 0.77121 0.69701 0.0
C395 C 0.52984 0.80503 0.6399 0.0
C396 C 0.52267 0.81151 0.66489 0.0
H397 H 0.55369 0.78203 0.61594 0.0
H398 H 0.52127 0.81462 0.62373 0.0
C399 C 0.53456 0.79875 0.68529 0.0
C400 C 0.61519 0.5446 0.77603 0.0
C401 C 0.63844 0.55551 0.7678 0.0
H402 H 0.59689 0.51574 0.79828 0.0
C403 C 0.66175 0.54465 0.77603 0.0
H404 H 0.59689 0.55226 0.76983 0.0
C405 C 0.66175 0.52345 0.79221 0.0
C406 C 0.63845 0.51255 0.8004 0.0
H407 H 0.68 0.55271 0.77021 0.0
H408 H 0.68 0.51541 0.79807 0.0
C409 C 0.61519 0.52343 0.79212 0.0
C410 C 0.79861 0.38535 1.03167 0.0
C411 C 0.81083 0.40576 0.04411 0.0
H412 H 0.77117 0.37365 1.00363 0.0
C413 C 0.80343 0.43074 0.03786 0.0
H414 H 0.80359 0.36586 0.03623 0.0
C415 C 0.78459 0.43521 1.01937 0.0
C416 C 0.77266 0.41481 1.00665 0.0
H417 H 0.81258 0.44692 0.04688 0.0
H418 H 0.77936 0.45469 1.01506 0.0
C419 C 0.77977 0.38981 1.01318 0.0
C420 C 0.91179 0.52595 0.27354 0.0
C421 C 0.88849 0.51777 0.26264 0.0
H422 H 0.93004 0.54796 0.30281 0.0
C423 C 0.86523 0.52604 0.27352 0.0
H424 H 0.93004 0.5201 0.2655 0.0
C425 C 0.86523 0.54212 0.29469 0.0
C426 C 0.88848 0.55036 0.30561 0.0
H427 H 0.84693 0.51988 0.26583 0.0
H428 H 0.84693 0.54832 0.30236 0.0
C429 C 0.91179 0.54213 0.29475 0.0
C430 C 0.79877 0.68276 0.53673 0.0
C431 C 0.81088 0.66235 0.52419 0.0
H432 H 0.77142 0.69446 0.56485 0.0
C433 C 0.80336 0.63737 0.53033 0.0
H434 H 0.80384 0.70225 0.53226 0.0
C435 C 0.78452 0.63291 0.54881 0.0
C436 C 0.7727 0.65331 0.56163 0.0
H437 H 0.81242 0.62119 0.52122 0.0
H438 H 0.7792 0.61343 0.55303 0.0
C439 C 0.77993 0.67829 0.55522 0.0
loop_
_geom_bond_atom_site_label_1
_geom_bond_atom_site_label_2
_geom_bond_distance
_geom_bond_site_symmetry_2
_ccdc_geom_bond_type
C0 C1 1.264 . S
C0 C5 1.479 . S
C0 C10 1.465 . S
C1 C0 1.264 . S
C1 C3 1.339 . S
C1 H28 0.931 . S
C2 C3 1.395 . S
C2 C4 1.320 . S
C3 C1 1.339 . S
C3 C2 1.395 . S
C3 H29 0.929 . S
C4 C2 1.320 . S
C4 C5 1.405 . S
C4 H30 0.930 . S
C5 C0 1.479 . S
C5 C4 1.405 . S
C5 H31 0.931 . S
U6 O7 2.454 . S
U6 O8 2.458 . S
U6 C9 2.984 . S
U6 C10 2.847 . S
U6 C23 2.882 . S
U6 O24 2.441 . S
U6 O25 2.420 . S
U6 O26 2.455 . S
U6 O27 2.449 . S
O7 U6 2.454 . S
O7 C9 1.353 . S
O8 U6 2.458 . S
O8 C9 1.286 . S
C9 U6 2.984 . S
C9 O7 1.353 . S
C9 O8 1.286 . S
C9 C11 1.363 . S
C10 C0 1.465 . S
C10 U6 2.847 . S
C10 O24 1.249 . S
C10 O25 1.202 . S
C11 C9 1.363 . S
C11 C13 1.408 . S
C11 C16 1.342 . S
C12 C13 1.310 . S
C12 C15 1.461 . S
C12 H32 0.932 . S
C13 C11 1.408 . S
C13 C12 1.310 . S
C13 H33 0.930 . S
C14 C15 1.474 . S
C14 C16 1.285 . S
C14 H34 0.929 . S
C15 C12 1.461 . S
C15 C14 1.474 . S
C16 C11 1.342 . S
C16 C14 1.285 . S
C16 H35 0.930 . S
C17 C20 1.424 . S
C17 C22 1.245 . S
C17 C23 1.428 . S
C18 C21 1.260 . S
C18 C22 1.477 . S
C18 H36 0.932 . S
C19 C20 1.384 . S
C19 C21 1.479 . S
C19 H37 0.929 . S
C20 C17 1.424 . S
C20 C19 1.384 . S
C20 H38 0.928 . S
C21 C18 1.260 . S
C21 C19 1.479 . S
C22 C17 1.245 . S
C22 C18 1.477 . S
C22 H39 0.932 . S
C23 U6 2.882 . S
C23 C17 1.428 . S
C23 O26 1.301 . S
C23 O27 1.282 . S
O24 U6 2.441 . S
O24 C10 1.249 . S
O25 U6 2.420 . S
O25 C10 1.202 . S
O26 U6 2.455 . S
O26 C23 1.301 . S
O27 U6 2.449 . S
O27 C23 1.282 . S
H28 C1 0.931 . S
H29 C3 0.929 . S
H30 C4 0.930 . S
H31 C5 0.931 . S
H32 C12 0.932 . S
H33 C13 0.930 . S
H34 C14 0.929 . S
H35 C16 0.930 . S
H36 C18 0.932 . S
H37 C19 0.929 . S
H38 C20 0.928 . S
H39 C22 0.932 . S
C40 C41 1.264 . S
C40 C45 1.479 . S
C40 C50 1.465 . S
C41 C40 1.264 . S
C41 C43 1.339 . S
C41 H68 0.931 . S
C42 C43 1.395 . S
C42 C44 1.320 . S
C43 C41 1.339 . S
C43 C42 1.395 . S
C43 H69 0.929 . S
C44 C42 1.320 . S
C44 C45 1.405 . S
C44 H70 0.930 . S
C45 C40 1.479 . S
C45 C44 1.405 . S
C45 H71 0.931 . S
U46 O47 2.454 . S
U46 O48 2.458 . S
U46 C49 2.984 . S
U46 C50 2.847 . S
U46 C63 2.882 . S
U46 O64 2.441 . S
U46 O65 2.420 . S
U46 O66 2.455 . S
U46 O67 2.449 . S
O47 U46 2.454 . S
O47 C49 1.353 . S
O48 U46 2.458 . S
O48 C49 1.286 . S
C49 U46 2.984 . S
C49 O47 1.353 . S
C49 O48 1.286 . S
C49 C51 1.363 . S
C50 C40 1.465 . S
C50 U46 2.847 . S
C50 O64 1.249 . S
C50 O65 1.202 . S
C51 C49 1.363 . S
C51 C53 1.408 . S
C51 C56 1.342 . S
C52 C53 1.310 . S
C52 C55 1.461 . S
C52 H72 0.932 . S
C53 C51 1.408 . S
C53 C52 1.310 . S
C53 H73 0.930 . S
C54 C55 1.474 . S
C54 C56 1.285 . S
C54 H74 0.929 . S
C55 C52 1.461 . S
C55 C54 1.474 . S
C56 C51 1.342 . S
C56 C54 1.285 . S
C56 H75 0.930 . S
C57 C60 1.424 . S
C57 C62 1.245 . S
C57 C63 1.428 . S
C58 C61 1.260 . S
C58 C62 1.477 . S
C58 H76 0.932 . S
C59 C60 1.384 . S
C59 C61 1.479 . S
C59 H77 0.929 . S
C60 C57 1.424 . S
C60 C59 1.384 . S
C60 H78 0.928 . S
C61 C58 1.260 . S
C61 C59 1.479 . S
C62 C57 1.245 . S
C62 C58 1.477 . S
C62 H79 0.932 . S
C63 U46 2.882 . S
C63 C57 1.428 . S
C63 O66 1.301 . S
C63 O67 1.282 . S
O64 U46 2.441 . S
O64 C50 1.249 . S
O65 U46 2.420 . S
O65 C50 1.202 . S
O66 U46 2.455 . S
O66 C63 1.301 . S
O67 U46 2.449 . S
O67 C63 1.282 . S
H68 C41 0.931 . S
H69 C43 0.929 . S
H70 C44 0.930 . S
H71 C45 0.931 . S
H72 C52 0.932 . S
H73 C53 0.930 . S
H74 C54 0.929 . S
H75 C56 0.930 . S
H76 C58 0.932 . S
H77 C59 0.929 . S
H78 C60 0.928 . S
H79 C62 0.932 . S
C80 C81 1.264 . S
C80 C85 1.479 . S
C80 C90 1.465 . S
C81 C80 1.264 . S
C81 C83 1.339 . S
C81 H108 0.931 . S
C82 C83 1.395 . S
C82 C84 1.320 . S
C83 C81 1.339 . S
C83 C82 1.395 . S
C83 H109 0.929 . S
C84 C82 1.320 . S
C84 C85 1.405 . S
C84 H110 0.930 . S
C85 C80 1.479 . S
C85 C84 1.405 . S
C85 H111 0.931 . S
U86 O87 2.454 . S
U86 O88 2.458 . S
U86 C89 2.984 . S
U86 C90 2.847 . S
U86 C103 2.882 . S
U86 O104 2.441 . S
U86 O105 2.420 . S
U86 O106 2.455 . S
U86 O107 2.449 . S
O87 U86 2.454 . S
O87 C89 1.353 . S
O88 U86 2.458 . S
O88 C89 1.286 . S
C89 U86 2.984 . S
C89 O87 1.353 . S
C89 O88 1.286 . S
C89 C91 1.363 . S
C90 C80 1.465 . S
C90 U86 2.847 . S
C90 O104 1.249 . S
C90 O105 1.202 . S
C91 C89 1.363 . S
C91 C93 1.408 . S
C91 C96 1.342 . S
C92 C93 1.310 . S
C92 C95 1.461 . S
C92 H112 0.932 . S
C93 C91 1.408 . S
C93 C92 1.310 . S
C93 H113 0.930 . S
C94 C95 1.474 . S
C94 C96 1.285 . S
C94 H114 0.929 . S
C95 C92 1.461 . S
C95 C94 1.474 . S
C96 C91 1.342 . S
C96 C94 1.285 . S
C96 H115 0.930 . S
C97 C100 1.424 . S
C97 C102 1.245 . S
C97 C103 1.428 . S
C98 C101 1.260 . S
C98 C102 1.477 . S
C98 H116 0.932 . S
C99 C100 1.384 . S
C99 C101 1.479 . S
C99 H117 0.929 . S
C100 C97 1.424 . S
C100 C99 1.384 . S
C100 H118 0.928 . S
C101 C98 1.260 . S
C101 C99 1.479 . S
C102 C97 1.245 . S
C102 C98 1.477 . S
C102 H119 0.932 . S
C103 U86 2.882 . S
C103 C97 1.428 . S
C103 O106 1.301 . S
C103 O107 1.282 . S
O104 U86 2.441 . S
O104 C90 1.249 . S
O105 U86 2.420 . S
O105 C90 1.202 . S
O106 U86 2.455 . S
O106 C103 1.301 . S
O107 U86 2.449 . S
O107 C103 1.282 . S
H108 C81 0.931 . S
H109 C83 0.929 . S
H110 C84 0.930 . S
H111 C85 0.931 . S
H112 C92 0.932 . S
H113 C93 0.930 . S
H114 C94 0.929 . S
H115 C96 0.930 . S
H116 C98 0.932 . S
H117 C99 0.929 . S
H118 C100 0.928 . S
H119 C102 0.932 . S
C120 C121 1.264 . S
C120 C125 1.479 . S
C120 C130 1.465 . S
C121 C120 1.264 . S
C121 C123 1.339 . S
C121 H148 0.931 . S
C122 C123 1.395 . S
C122 C124 1.320 . S
C123 C121 1.339 . S
C123 C122 1.395 . S
C123 H149 0.929 . S
C124 C122 1.320 . S
C124 C125 1.405 . S
C124 H150 0.930 . S
C125 C120 1.479 . S
C125 C124 1.405 . S
C125 H151 0.931 . S
U126 O127 2.454 . S
U126 O128 2.458 . S
U126 C129 2.984 . S
U126 C130 2.847 . S
U126 C143 2.882 . S
U126 O144 2.441 . S
U126 O145 2.420 . S
U126 O146 2.455 . S
U126 O147 2.449 . S
O127 U126 2.454 . S
O127 C129 1.353 . S
O128 U126 2.458 . S
O128 C129 1.286 . S
C129 U126 2.984 . S
C129 O127 1.353 . S
C129 O128 1.286 . S
C129 C131 1.363 . S
C130 C120 1.465 . S
C130 U126 2.847 . S
C130 O144 1.249 . S
C130 O145 1.202 . S
C131 C129 1.363 . S
C131 C133 1.408 . S
C131 C136 1.342 . S
C132 C133 1.310 . S
C132 C135 1.461 . S
C132 H152 0.932 . S
C133 C131 1.408 . S
C133 C132 1.310 . S
C133 H153 0.930 . S
C134 C135 1.474 . S
C134 C136 1.285 . S
C134 H154 0.929 . S
C135 C132 1.461 . S
C135 C134 1.474 . S
C136 C131 1.342 . S
C136 C134 1.285 . S
C136 H155 0.930 . S
C137 C140 1.424 . S
C137 C142 1.245 . S
C137 C143 1.428 . S
C138 C141 1.260 . S
C138 C142 1.477 . S
C138 H156 0.932 . S
C139 C140 1.384 . S
C139 C141 1.479 . S
C139 H157 0.929 . S
C140 C137 1.424 . S
C140 C139 1.384 . S
C140 H158 0.928 . S
C141 C138 1.260 . S
C141 C139 1.479 . S
C142 C137 1.245 . S
C142 C138 1.477 . S
C142 H159 0.932 . S
C143 U126 2.882 . S
C143 C137 1.428 . S
C143 O146 1.301 . S
C143 O147 1.282 . S
O144 U126 2.441 . S
O144 C130 1.249 . S
O145 U126 2.420 . S
O145 C130 1.202 . S
O146 U126 2.455 . S
O146 C143 1.301 . S
O147 U126 2.449 . S
O147 C143 1.282 . S
H148 C121 0.931 . S
H149 C123 0.929 . S
H150 C124 0.930 . S
H151 C125 0.931 . S
H152 C132 0.932 . S
H153 C133 0.930 . S
H154 C134 0.929 . S
H155 C136 0.930 . S
H156 C138 0.932 . S
H157 C139 0.929 . S
H158 C140 0.928 . S
H159 C142 0.932 . S
C160 C161 1.264 . S
C160 C165 1.479 . S
C160 C170 1.465 . S
C161 C160 1.264 . S
C161 C163 1.339 . S
C161 H188 0.931 . S
C162 C163 1.395 . S
C162 C164 1.320 . S
C163 C161 1.339 . S
C163 C162 1.395 . S
C163 H189 0.929 . S
C164 C162 1.320 . S
C164 C165 1.405 . S
C164 H190 0.930 . S
C165 C160 1.479 . S
C165 C164 1.405 . S
C165 H191 0.931 . S
U166 O167 2.454 . S
U166 O168 2.458 . S
U166 C169 2.984 . S
U166 C170 2.847 . S
U166 C183 2.882 . S
U166 O184 2.441 . S
U166 O185 2.420 . S
U166 O186 2.455 . S
U166 O187 2.449 . S
O167 U166 2.454 . S
O167 C169 1.353 . S
O168 U166 2.458 . S
O168 C169 1.286 . S
C169 U166 2.984 . S
C169 O167 1.353 . S
C169 O168 1.286 . S
C169 C171 1.363 . S
C170 C160 1.465 . S
C170 U166 2.847 . S
C170 O184 1.249 . S
C170 O185 1.202 . S
C171 C169 1.363 . S
C171 C173 1.408 . S
C171 C176 1.342 . S
C172 C173 1.310 . S
C172 C175 1.461 . S
C172 H192 0.932 . S
C173 C171 1.408 . S
C173 C172 1.310 . S
C173 H193 0.930 . S
C174 C175 1.474 . S
C174 C176 1.285 . S
C174 H194 0.929 . S
C175 C172 1.461 . S
C175 C174 1.474 . S
C176 C171 1.342 . S
C176 C174 1.285 . S
C176 H195 0.930 . S
C177 C180 1.424 . S
C177 C182 1.245 . S
C177 C183 1.428 . S
C178 C181 1.260 . S
C178 C182 1.477 . S
C178 H196 0.932 . S
C179 C180 1.384 . S
C179 C181 1.479 . S
C179 H197 0.929 . S
C180 C177 1.424 . S
C180 C179 1.384 . S
C180 H198 0.928 . S
C181 C178 1.260 . S
C181 C179 1.479 . S
C182 C177 1.245 . S
C182 C178 1.477 . S
C182 H199 0.932 . S
C183 U166 2.882 . S
C183 C177 1.428 . S
C183 O186 1.301 . S
C183 O187 1.282 . S
O184 U166 2.441 . S
O184 C170 1.249 . S
O185 U166 2.420 . S
O185 C170 1.202 . S
O186 U166 2.455 . S
O186 C183 1.301 . S
O187 U166 2.449 . S
O187 C183 1.282 . S
H188 C161 0.931 . S
H189 C163 0.929 . S
H190 C164 0.930 . S
H191 C165 0.931 . S
H192 C172 0.932 . S
H193 C173 0.930 . S
H194 C174 0.929 . S
H195 C176 0.930 . S
H196 C178 0.932 . S
H197 C179 0.929 . S
H198 C180 0.928 . S
H199 C182 0.932 . S
C200 C201 1.264 . S
C200 C205 1.479 . S
C200 C210 1.465 . S
C201 C200 1.264 . S
C201 C203 1.339 . S
C201 H228 0.931 . S
C202 C203 1.395 . S
C202 C204 1.320 . S
C203 C201 1.339 . S
C203 C202 1.395 . S
C203 H229 0.929 . S
C204 C202 1.320 . S
C204 C205 1.405 . S
C204 H230 0.930 . S
C205 C200 1.479 . S
C205 C204 1.405 . S
C205 H231 0.931 . S
U206 O207 2.454 . S
U206 O208 2.458 . S
U206 C209 2.984 . S
U206 C210 2.847 . S
U206 C223 2.882 . S
U206 O224 2.441 . S
U206 O225 2.420 . S
U206 O226 2.455 . S
U206 O227 2.449 . S
O207 U206 2.454 . S
O207 C209 1.353 . S
O208 U206 2.458 . S
O208 C209 1.286 . S
C209 U206 2.984 . S
C209 O207 1.353 . S
C209 O208 1.286 . S
C209 C211 1.363 . S
C210 C200 1.465 . S
C210 U206 2.847 . S
C210 O224 1.249 . S
C210 O225 1.202 . S
C211 C209 1.363 . S
C211 C213 1.408 . S
C211 C216 1.342 . S
C212 C213 1.310 . S
C212 C215 1.461 . S
C212 H232 0.932 . S
C213 C211 1.408 . S
C213 C212 1.310 . S
C213 H233 0.930 . S
C214 C215 1.474 . S
C214 C216 1.285 . S
C214 H234 0.929 . S
C215 C212 1.461 . S
C215 C214 1.474 . S
C216 C211 1.342 . S
C216 C214 1.285 . S
C216 H235 0.930 . S
C217 C220 1.424 . S
C217 C222 1.245 . S
C217 C223 1.428 . S
C218 C221 1.260 . S
C218 C222 1.477 . S
C218 H236 0.932 . S
C219 C220 1.384 . S
C219 C221 1.479 . S
C219 H237 0.929 . S
C220 C217 1.424 . S
C220 C219 1.384 . S
C220 H238 0.928 . S
C221 C218 1.260 . S
C221 C219 1.479 . S
C222 C217 1.245 . S
C222 C218 1.477 . S
C222 H239 0.932 . S
C223 U206 2.882 . S
C223 C217 1.428 . S
C223 O226 1.301 . S
C223 O227 1.282 . S
O224 U206 2.441 . S
O224 C210 1.249 . S
O225 U206 2.420 . S
O225 C210 1.202 . S
O226 U206 2.455 . S
O226 C223 1.301 . S
O227 U206 2.449 . S
O227 C223 1.282 . S
H228 C201 0.931 . S
H229 C203 0.929 . S
H230 C204 0.930 . S
H231 C205 0.931 . S
H232 C212 0.932 . S
H233 C213 0.930 . S
H234 C214 0.929 . S
H235 C216 0.930 . S
H236 C218 0.932 . S
H237 C219 0.929 . S
H238 C220 0.928 . S
H239 C222 0.932 . S
C240 C241 1.264 . S
C240 C245 1.479 . S
C240 C250 1.465 . S
C241 C240 1.264 . S
C241 C243 1.339 . S
C241 H268 0.931 . S
C242 C243 1.395 . S
C242 C244 1.320 . S
C243 C241 1.339 . S
C243 C242 1.395 . S
C243 H269 0.929 . S
C244 C242 1.320 . S
C244 C245 1.405 . S
C244 H270 0.930 . S
C245 C240 1.479 . S
C245 C244 1.405 . S
C245 H271 0.931 . S
U246 O247 2.454 . S
U246 O248 2.458 . S
U246 C249 2.984 . S
U246 C250 2.847 . S
U246 C263 2.882 . S
U246 O264 2.441 . S
U246 O265 2.420 . S
U246 O266 2.455 . S
U246 O267 2.449 . S
O247 U246 2.454 . S
O247 C249 1.353 . S
O248 U246 2.458 . S
O248 C249 1.286 . S
C249 U246 2.984 . S
C249 O247 1.353 . S
C249 O248 1.286 . S
C249 C251 1.363 . S
C250 C240 1.465 . S
C250 U246 2.847 . S
C250 O264 1.249 . S
C250 O265 1.202 . S
C251 C249 1.363 . S
C251 C253 1.408 . S
C251 C256 1.342 . S
C252 C253 1.310 . S
C252 C255 1.461 . S
C252 H272 0.932 . S
C253 C251 1.408 . S
C253 C252 1.310 . S
C253 H273 0.930 . S
C254 C255 1.474 . S
C254 C256 1.285 . S
C254 H274 0.929 . S
C255 C252 1.461 . S
C255 C254 1.474 . S
C256 C251 1.342 . S
C256 C254 1.285 . S
C256 H275 0.930 . S
C257 C260 1.424 . S
C257 C262 1.245 . S
C257 C263 1.428 . S
C258 C261 1.260 . S
C258 C262 1.477 . S
C258 H276 0.932 . S
C259 C260 1.384 . S
C259 C261 1.479 . S
C259 H277 0.929 . S
C260 C257 1.424 . S
C260 C259 1.384 . S
C260 H278 0.928 . S
C261 C258 1.260 . S
C261 C259 1.479 . S
C262 C257 1.245 . S
C262 C258 1.477 . S
C262 H279 0.932 . S
C263 U246 2.882 . S
C263 C257 1.428 . S
C263 O266 1.301 . S
C263 O267 1.282 . S
O264 U246 2.441 . S
O264 C250 1.249 . S
O265 U246 2.420 . S
O265 C250 1.202 . S
O266 U246 2.455 . S
O266 C263 1.301 . S
O267 U246 2.449 . S
O267 C263 1.282 . S
H268 C241 0.931 . S
H269 C243 0.929 . S
H270 C244 0.930 . S
H271 C245 0.931 . S
H272 C252 0.932 . S
H273 C253 0.930 . S
H274 C254 0.929 . S
H275 C256 0.930 . S
H276 C258 0.932 . S
H277 C259 0.929 . S
H278 C260 0.928 . S
H279 C262 0.932 . S
C280 C281 1.264 . S
C280 C285 1.479 . S
C280 C290 1.465 . S
C281 C280 1.264 . S
C281 C283 1.339 . S
C281 H308 0.931 . S
C282 C283 1.395 . S
C282 C284 1.320 . S
C283 C281 1.339 . S
C283 C282 1.395 . S
C283 H309 0.929 . S
C284 C282 1.320 . S
C284 C285 1.405 . S
C284 H310 0.930 . S
C285 C280 1.479 . S
C285 C284 1.405 . S
C285 H311 0.931 . S
U286 O287 2.454 . S
U286 O288 2.458 . S
U286 C289 2.984 . S
U286 C290 2.847 . S
U286 C303 2.882 . S
U286 O304 2.441 . S
U286 O305 2.420 . S
U286 O306 2.455 . S
U286 O307 2.449 . S
O287 U286 2.454 . S
O287 C289 1.353 . S
O288 U286 2.458 . S
O288 C289 1.286 . S
C289 U286 2.984 . S
C289 O287 1.353 . S
C289 O288 1.286 . S
C289 C291 1.363 . S
C290 C280 1.465 . S
C290 U286 2.847 . S
C290 O304 1.249 . S
C290 O305 1.202 . S
C291 C289 1.363 . S
C291 C293 1.408 . S
C291 C296 1.342 . S
C292 C293 1.310 . S
C292 C295 1.461 . S
C292 H312 0.932 . S
C293 C291 1.408 . S
C293 C292 1.310 . S
C293 H313 0.930 . S
C294 C295 1.474 . S
C294 C296 1.285 . S
C294 H314 0.929 . S
C295 C292 1.461 . S
C295 C294 1.474 . S
C296 C291 1.342 . S
C296 C294 1.285 . S
C296 H315 0.930 . S
C297 C300 1.424 . S
C297 C302 1.245 . S
C297 C303 1.428 . S
C298 C301 1.260 . S
C298 C302 1.477 . S
C298 H316 0.932 . S
C299 C300 1.384 . S
C299 C301 1.479 . S
C299 H317 0.929 . S
C300 C297 1.424 . S
C300 C299 1.384 . S
C300 H318 0.928 . S
C301 C298 1.260 . S
C301 C299 1.479 . S
C302 C297 1.245 . S
C302 C298 1.477 . S
C302 H319 0.932 . S
C303 U286 2.882 . S
C303 C297 1.428 . S
C303 O306 1.301 . S
C303 O307 1.282 . S
O304 U286 2.441 . S
O304 C290 1.249 . S
O305 U286 2.420 . S
O305 C290 1.202 . S
O306 U286 2.455 . S
O306 C303 1.301 . S
O307 U286 2.449 . S
O307 C303 1.282 . S
H308 C281 0.931 . S
H309 C283 0.929 . S
H310 C284 0.930 . S
H311 C285 0.931 . S
H312 C292 0.932 . S
H313 C293 0.930 . S
H314 C294 0.929 . S
H315 C296 0.930 . S
H316 C298 0.932 . S
H317 C299 0.929 . S
H318 C300 0.928 . S
H319 C302 0.932 . S
C320 C321 1.387 . S
C320 H324 0.950 . S
C320 C329 1.390 1_565 S
C321 C320 1.387 . S
C321 C323 1.387 . S
H322 C329 0.950 . S
C323 C321 1.387 . S
C323 C325 1.390 1_565 S
C323 H327 0.950 . S
H324 C320 0.950 . S
C325 C323 1.390 1_545 S
C325 C326 1.387 . S
C325 H328 0.950 . S
C326 C325 1.387 . S
C326 C329 1.387 . S
H327 C323 0.950 . S
H328 C325 0.950 . S
C329 C320 1.390 1_545 S
C329 H322 0.950 . S
C329 C326 1.387 . S
C330 C331 1.387 . S
C330 H334 0.950 . S
C330 C339 1.390 . S
C331 C330 1.387 . S
C331 C333 1.387 . S
H332 C339 0.950 . S
C333 C331 1.387 . S
C333 C335 1.390 . S
C333 H337 0.950 . S
H334 C330 0.950 . S
C335 C333 1.390 . S
C335 C336 1.387 . S
C335 H338 0.950 . S
C336 C335 1.387 . S
C336 C339 1.387 . S
H337 C333 0.950 . S
H338 C335 0.950 . S
C339 C330 1.390 . S
C339 H332 0.950 . S
C339 C336 1.387 . S
C340 C341 1.387 . S
C340 H344 0.950 . S
C340 C349 1.390 1_565 S
C341 C340 1.387 . S
C341 C343 1.387 . S
H342 C349 0.950 . S
C343 C341 1.387 . S
C343 C345 1.390 1_565 S
C343 H347 0.950 . S
H344 C340 0.950 . S
C345 C343 1.390 1_545 S
C345 C346 1.387 . S
C345 H348 0.950 . S
C346 C345 1.387 . S
C346 C349 1.387 . S
H347 C343 0.950 . S
H348 C345 0.950 . S
C349 C340 1.390 1_545 S
C349 H342 0.950 . S
C349 C346 1.387 . S
C350 C351 1.387 . S
C350 H354 0.950 . S
C350 C359 1.390 1_554 S
C351 C350 1.387 . S
C351 C353 1.387 . S
H352 C359 0.950 . S
C353 C351 1.387 . S
C353 C355 1.390 . S
C353 H357 0.950 . S
H354 C350 0.950 . S
C355 C353 1.390 . S
C355 C356 1.387 1_554 S
C355 H358 0.950 . S
C356 C355 1.387 1_556 S
C356 C359 1.387 . S
H357 C353 0.950 . S
H358 C355 0.950 . S
C359 C350 1.390 1_556 S
C359 H352 0.950 . S
C359 C356 1.387 . S
C360 C361 1.387 . S
C360 H364 0.950 . S
C360 C369 1.390 1_655 S
C361 C360 1.387 . S
C361 C363 1.387 . S
H362 C369 0.950 . S
C363 C361 1.387 . S
C363 C365 1.390 1_655 S
C363 H367 0.950 . S
H364 C360 0.950 . S
C365 C363 1.390 1_455 S
C365 C366 1.387 . S
C365 H368 0.950 . S
C366 C365 1.387 . S
C366 C369 1.387 . S
H367 C363 0.950 . S
H368 C365 0.950 . S
C369 C360 1.390 1_455 S
C369 H362 0.950 . S
C369 C366 1.387 . S
C370 C371 1.387 . S
C370 H374 0.950 . S
C370 C379 1.390 . S
C371 C370 1.387 . S
C371 C373 1.387 . S
H372 C379 0.950 . S
C373 C371 1.387 . S
C373 C375 1.390 . S
C373 H377 0.950 . S
H374 C370 0.950 . S
C375 C373 1.390 . S
C375 C376 1.387 . S
C375 H378 0.950 . S
C376 C375 1.387 . S
C376 C379 1.387 . S
H377 C373 0.950 . S
H378 C375 0.950 . S
C379 C370 1.390 . S
C379 H372 0.950 . S
C379 C376 1.387 . S
C380 C381 1.387 . S
C380 H384 0.950 . S
C380 C389 1.390 1_455 S
C381 C380 1.387 . S
C381 C383 1.387 . S
H382 C389 0.950 . S
C383 C381 1.387 . S
C383 C385 1.390 1_455 S
C383 H387 0.950 . S
H384 C380 0.950 . S
C385 C383 1.390 1_655 S
C385 C386 1.387 . S
C385 H388 0.950 . S
C386 C385 1.387 . S
C386 C389 1.387 . S
H387 C383 0.950 . S
H388 C385 0.950 . S
C389 C380 1.390 1_655 S
C389 H382 0.950 . S
C389 C386 1.387 . S
C390 C391 1.387 . S
C390 H394 0.950 . S
C390 C399 1.390 . S
C391 C390 1.387 . S
C391 C393 1.387 . S
H392 C399 0.950 . S
C393 C391 1.387 . S
C393 C395 1.390 . S
C393 H397 0.950 . S
H394 C390 0.950 . S
C395 C393 1.390 . S
C395 C396 1.387 . S
C395 H398 0.950 . S
C396 C395 1.387 . S
C396 C399 1.387 . S
H397 C393 0.950 . S
H398 C395 0.950 . S
C399 C390 1.390 . S
C399 H392 0.950 . S
C399 C396 1.387 . S
C400 C401 1.387 . S
C400 H404 0.950 . S
C400 C409 1.390 . S
C401 C400 1.387 . S
C401 C403 1.387 . S
H402 C409 0.950 . S
C403 C401 1.387 . S
C403 C405 1.390 . S
C403 H407 0.950 . S
H404 C400 0.950 . S
C405 C403 1.390 . S
C405 C406 1.387 . S
C405 H408 0.950 . S
C406 C405 1.387 . S
C406 C409 1.387 . S
H407 C403 0.950 . S
H408 C405 0.950 . S
C409 C400 1.390 . S
C409 H402 0.950 . S
C409 C406 1.387 . S
C410 C411 1.387 . S
C410 H414 0.950 . S
C410 C419 1.390 1_554 S
C411 C410 1.387 . S
C411 C413 1.390 . S
H412 C419 0.950 . S
C413 C411 1.390 . S
C413 C415 1.385 1_554 S
C413 H417 0.952 . S
H414 C410 0.950 . S
C415 C413 1.385 1_556 S
C415 C416 1.387 . S
C415 H418 0.950 . S
C416 C415 1.387 . S
C416 C419 1.387 . S
H417 C413 0.952 . S
H418 C415 0.950 . S
C419 C410 1.390 1_556 S
C419 H412 0.950 . S
C419 C416 1.387 . S
C420 C421 1.387 . S
C420 H424 0.950 . S
C420 C429 1.390 . S
C421 C420 1.387 . S
C421 C423 1.387 . S
H422 C429 0.950 . S
C423 C421 1.387 . S
C423 C425 1.390 . S
C423 H427 0.950 . S
H424 C420 0.950 . S
C425 C423 1.390 . S
C425 C426 1.387 . S
C425 H428 0.950 . S
C426 C425 1.387 . S
C426 C429 1.387 . S
H427 C423 0.950 . S
H428 C425 0.950 . S
C429 C420 1.390 . S
C429 H422 0.950 . S
C429 C426 1.387 . S
C430 C431 1.387 . S
C430 H434 0.950 . S
C430 C439 1.390 . S
C431 C430 1.387 . S
C431 C433 1.387 . S
H432 C439 0.950 . S
C433 C431 1.387 . S
C433 C435 1.390 . S
C433 H437 0.950 . S
H434 C430 0.950 . S
C435 C433 1.390 . S
C435 C436 1.387 . S
C435 H438 0.950 . S
C436 C435 1.387 . S
C436 C439 1.387 . S
H437 C433 0.950 . S
H438 C435 0.950 . S
C439 C430 1.390 . S
C439 H432 0.950 . S
C439 C436 1.387 . S
C321 C42 1.488 . S
C326 C2 1.488 . S
C331 C61 1.488 . S
C336 C95 1.502 . S
C341 C82 1.488 . S
C346 C122 1.488 . S
C351 C21 1.487 . S
C356 C135 1.502 . S
C361 C221 1.488 . S
C366 C15 1.502 . S
C371 C141 1.487 . S
C376 C175 1.502 . S
C381 C55 1.502 . S
C386 C261 1.488 . S
C391 C295 1.502 . S
C396 C101 1.488 . S
C401 C282 1.488 . S
C406 C162 1.488 . S
C411 C215 1.502 . S
C416 C181 1.487 . S
C421 C202 1.487 . S
C426 C242 1.487 . S
C431 C255 1.502 . S
C436 C301 1.487 . S
