# Generated by pormake.
# Topology ukb, (4)-cn, num edge types: 1
# Building blocks:
#     Node 0, Type 0, BuildingBlock: TATPOV_clean_sbu_0, # of connection points: 4
#     Node 1, Type 0, BuildingBlock: TATPOV_clean_sbu_0, # of connection points: 4
#     Node 2, Type 0, BuildingBlock: TATPOV_clean_sbu_0, # of connection points: 4
#     Node 3, Type 0, BuildingBlock: TATPOV_clean_sbu_0, # of connection points: 4
#     Node 4, Type 0, BuildingBlock: TATPOV_clean_sbu_0, # of connection points: 4
#     Node 5, Type 0, BuildingBlock: TATPOV_clean_sbu_0, # of connection points: 4
#     Node 6, Type 0, BuildingBlock: TATPOV_clean_sbu_0, # of connection points: 4
#     Node 7, Type 0, BuildingBlock: TATPOV_clean_sbu_0, # of connection points: 4
#     Node 8, Type 0, BuildingBlock: TATPOV_clean_sbu_0, # of connection points: 4
#     Node 9, Type 0, BuildingBlock: TATPOV_clean_sbu_0, # of connection points: 4
#     Node 10, Type 0, BuildingBlock: TATPOV_clean_sbu_0, # of connection points: 4
#     Node 11, Type 0, BuildingBlock: TATPOV_clean_sbu_0, # of connection points: 4
#     Node 12, Type 0, BuildingBlock: TATPOV_clean_sbu_0, # of connection points: 4
#     Node 13, Type 0, BuildingBlock: TATPOV_clean_sbu_0, # of connection points: 4
#     Node 14, Type 0, BuildingBlock: TATPOV_clean_sbu_0, # of connection points: 4
#     Node 15, Type 0, BuildingBlock: TATPOV_clean_sbu_0, # of connection points: 4
#     Edge 16, Type (0, 0), BuildingBlock: UVAHIK_clean_linker_0, # of connection points: 2
#     Edge 17, Type (0, 0), BuildingBlock: UVAHIK_clean_linker_0, # of connection points: 2
#     Edge 18, Type (0, 0), BuildingBlock: UVAHIK_clean_linker_0, # of connection points: 2
#     Edge 19, Type (0, 0), BuildingBlock: UVAHIK_clean_linker_0, # of connection points: 2
#     Edge 20, Type (0, 0), BuildingBlock: UVAHIK_clean_linker_0, # of connection points: 2
#     Edge 21, Type (0, 0), BuildingBlock: UVAHIK_clean_linker_0, # of connection points: 2
#     Edge 22, Type (0, 0), BuildingBlock: UVAHIK_clean_linker_0, # of connection points: 2
#     Edge 23, Type (0, 0), BuildingBlock: UVAHIK_clean_linker_0, # of connection points: 2
#     Edge 24, Type (0, 0), BuildingBlock: UVAHIK_clean_linker_0, # of connection points: 2
#     Edge 25, Type (0, 0), BuildingBlock: UVAHIK_clean_linker_0, # of connection points: 2
#     Edge 26, Type (0, 0), BuildingBlock: UVAHIK_clean_linker_0, # of connection points: 2
#     Edge 27, Type (0, 0), BuildingBlock: UVAHIK_clean_linker_0, # of connection points: 2
#     Edge 28, Type (0, 0), BuildingBlock: UVAHIK_clean_linker_0, # of connection points: 2
#     Edge 29, Type (0, 0), BuildingBlock: UVAHIK_clean_linker_0, # of connection points: 2
#     Edge 30, Type (0, 0), BuildingBlock: UVAHIK_clean_linker_0, # of connection points: 2
#     Edge 31, Type (0, 0), BuildingBlock: UVAHIK_clean_linker_0, # of connection points: 2
#     Edge 32, Type (0, 0), BuildingBlock: UVAHIK_clean_linker_0, # of connection points: 2
#     Edge 33, Type (0, 0), BuildingBlock: UVAHIK_clean_linker_0, # of connection points: 2
#     Edge 34, Type (0, 0), BuildingBlock: UVAHIK_clean_linker_0, # of connection points: 2
#     Edge 35, Type (0, 0), BuildingBlock: UVAHIK_clean_linker_0, # of connection points: 2
#     Edge 36, Type (0, 0), BuildingBlock: UVAHIK_clean_linker_0, # of connection points: 2
#     Edge 37, Type (0, 0), BuildingBlock: UVAHIK_clean_linker_0, # of connection points: 2
#     Edge 38, Type (0, 0), BuildingBlock: UVAHIK_clean_linker_0, # of connection points: 2
#     Edge 39, Type (0, 0), BuildingBlock: UVAHIK_clean_linker_0, # of connection points: 2
#     Edge 40, Type (0, 0), BuildingBlock: UVAHIK_clean_linker_0, # of connection points: 2
#     Edge 41, Type (0, 0), BuildingBlock: UVAHIK_clean_linker_0, # of connection points: 2
#     Edge 42, Type (0, 0), BuildingBlock: UVAHIK_clean_linker_0, # of connection points: 2
#     Edge 43, Type (0, 0), BuildingBlock: UVAHIK_clean_linker_0, # of connection points: 2
#     Edge 44, Type (0, 0), BuildingBlock: UVAHIK_clean_linker_0, # of connection points: 2
#     Edge 45, Type (0, 0), BuildingBlock: UVAHIK_clean_linker_0, # of connection points: 2
#     Edge 46, Type (0, 0), BuildingBlock: UVAHIK_clean_linker_0, # of connection points: 2
#     Edge 47, Type (0, 0), BuildingBlock: UVAHIK_clean_linker_0, # of connection points: 2
# Relax obj value: 0.144
# Max RMSD: 0.148
# Mean RMSD: 0.148
data_MOF--net-ukb--node1-TATPOV_clean_sbu_0--edge1-UVAHIK_clean_linker_0
_symmetry_space_group_name_H-M    P1
_symmetry_Int_Tables_number       1
_symmetry_cell_setting            triclinic
loop_
_symmetry_equiv_pos_as_xyz
'x, y, z'
_cell_length_a     55.996489
_cell_length_b     56.024532
_cell_length_c     48.992529
_cell_angle_alpha  90.132287
_cell_angle_beta   90.047
_cell_angle_gamma 89.99533
loop_
_atom_site_label
_atom_site_type_symbol
_atom_site_fract_x
_atom_site_fract_y
_atom_site_fract_z
_atom_type_partial_charge
Zn0 Zn 0.5682 0.21642 0.14887 0.0
Zn1 Zn 0.5333 0.19897 0.18047 0.0
O2 O 0.51728 0.20451 0.14306 0.0
O3 O 0.547 0.21446 0.11592 0.0
O4 O 0.5072 0.18201 0.20066 0.0
O5 O 0.58987 0.18875 0.1577 0.0
O6 O 0.56082 0.17455 0.18314 0.0
C7 C 0.52513 0.2098 0.11946 0.0
C8 C 0.55408 0.24694 0.19495 0.0
O9 O 0.54025 0.22981 0.2014 0.0
O10 O 0.56685 0.24565 0.17361 0.0
C11 C 0.486 0.18989 0.20282 0.0
O12 O 0.4809 0.21124 0.19341 0.0
C13 C 0.58186 0.17277 0.17344 0.0
Zn14 Zn 0.26896 0.56459 0.68151 0.0
Zn15 Zn 0.29072 0.52874 0.70602 0.0
O16 O 0.27993 0.51426 0.66932 0.0
O17 O 0.25652 0.54221 0.6525 0.0
O18 O 0.31037 0.5023 0.72222 0.0
O19 O 0.29991 0.58276 0.67682 0.0
O20 O 0.31542 0.55594 0.70432 0.0
C21 C 0.26528 0.52143 0.65123 0.0
C22 C 0.24998 0.55347 0.73486 0.0
O23 O 0.26352 0.53522 0.73344 0.0
O24 O 0.25024 0.56913 0.71628 0.0
C25 C 0.30334 0.48082 0.72439 0.0
O26 O 0.28146 0.47527 0.71707 0.0
C27 C 0.31719 0.57551 0.69126 0.0
Zn28 Zn 0.93884 0.27317 0.17549 0.0
Zn29 Zn 0.97743 0.2945 0.19361 0.0
O30 O 0.98833 0.28192 0.15605 0.0
O31 O 0.95812 0.2586 0.14496 0.0
O32 O 0.00536 0.31407 0.20654 0.0
O33 O 0.92088 0.30414 0.17083 0.0
O34 O 0.95062 0.31982 0.19404 0.0
C35 C 0.97889 0.26647 0.14028 0.0
C36 C 0.9549 0.25533 0.22728 0.0
O37 O 0.97329 0.26798 0.22236 0.0
O38 O 0.93699 0.25595 0.21151 0.0
C39 C 0.02597 0.30611 0.21244 0.0
O40 O 0.03018 0.2831 0.21055 0.0
C41 C 0.92993 0.32171 0.18338 0.0
Zn42 Zn 0.20701 0.9422 0.61992 0.0
Zn43 Zn 0.18714 0.97498 0.65165 0.0
O44 O 0.19418 0.9932 0.61596 0.0
O45 O 0.20518 0.96447 0.58792 0.0
O46 O 0.16935 0.99958 0.67358 0.0
O47 O 0.18035 0.91899 0.62666 0.0
O48 O 0.16252 0.94744 0.64996 0.0
C49 C 0.20023 0.98619 0.59221 0.0
C50 C 0.23548 0.95454 0.6674 0.0
O51 O 0.21738 0.96715 0.67384 0.0
O52 O 0.23576 0.9431 0.64504 0.0
C53 C 0.17825 0.01937 0.68122 0.0
O54 O 0.20075 0.02403 0.67581 0.0
C55 C 0.16251 0.92636 0.64008 0.0
Zn56 Zn 0.56888 0.2757 0.83605 0.0
Zn57 Zn 0.53193 0.29763 0.81299 0.0
O58 O 0.51932 0.28868 0.85134 0.0
O59 O 0.55044 0.27155 0.8706 0.0
O60 O 0.50471 0.31652 0.79725 0.0
O61 O 0.59042 0.30397 0.82961 0.0
O62 O 0.55972 0.3218 0.81049 0.0
C63 C 0.52885 0.27815 0.87164 0.0
C64 C 0.54994 0.2508 0.78902 0.0
O65 O 0.53571 0.26851 0.78744 0.0
O66 O 0.56547 0.24985 0.8078 0.0
C67 C 0.48331 0.30898 0.79661 0.0
O68 O 0.47852 0.28747 0.80574 0.0
C69 C 0.58163 0.32192 0.81761 0.0
Zn70 Zn 0.22775 0.56121 0.35738 0.0
Zn71 Zn 0.20911 0.52558 0.32782 0.0
O72 O 0.21589 0.50977 0.36509 0.0
O73 O 0.23446 0.53826 0.38783 0.0
O74 O 0.19242 0.49957 0.30677 0.0
O75 O 0.19667 0.57969 0.35566 0.0
O76 O 0.18326 0.55161 0.32822 0.0
C77 C 0.22685 0.51704 0.38633 0.0
C78 C 0.25417 0.55099 0.30801 0.0
O79 O 0.23894 0.53424 0.30501 0.0
O80 O 0.2526 0.56513 0.32815 0.0
C81 C 0.19883 0.4778 0.30664 0.0
O82 O 0.21828 0.47152 0.3198 0.0
C83 C 0.18034 0.57152 0.34039 0.0
Zn84 Zn 0.92848 0.21928 0.84175 0.0
Zn85 Zn 0.96481 0.20046 0.8138 0.0
O86 O 0.97834 0.20341 0.85294 0.0
O87 O 0.9488 0.22051 0.87542 0.0
O88 O 0.99111 0.18352 0.79359 0.0
O89 O 0.90714 0.19129 0.83271 0.0
O90 O 0.93674 0.17715 0.80807 0.0
C91 C 0.96985 0.21235 0.8748 0.0
C92 C 0.94535 0.24939 0.79793 0.0
O93 O 0.96054 0.23277 0.79399 0.0
O94 O 0.92981 0.2474 0.81655 0.0
C95 C 0.01308 0.18906 0.79509 0.0
O96 O 0.01953 0.20761 0.80981 0.0
C97 C 0.91533 0.17554 0.81669 0.0
Zn98 Zn 0.30056 0.93203 0.34687 0.0
Zn99 Zn 0.31303 0.96592 0.31097 0.0
O100 O 0.30783 0.98387 0.34729 0.0
O101 O 0.30159 0.95574 0.37771 0.0
O102 O 0.32608 0.9919 0.28706 0.0
O103 O 0.32986 0.91255 0.33783 0.0
O104 O 0.33958 0.9406 0.30852 0.0
C105 C 0.30415 0.97758 0.37188 0.0
C106 C 0.26685 0.93944 0.30165 0.0
O107 O 0.28215 0.95446 0.29302 0.0
O108 O 0.27026 0.92849 0.32396 0.0
C109 C 0.31763 0.01295 0.28681 0.0
O110 O 0.29836 0.01774 0.3011 0.0
C111 C 0.34393 0.92063 0.31988 0.0
Zn112 Zn 0.42976 0.8037 0.84511 0.0
Zn113 Zn 0.46462 0.81626 0.81028 0.0
O114 O 0.48087 0.81234 0.84788 0.0
O115 O 0.45193 0.80584 0.87725 0.0
O116 O 0.49183 0.82825 0.78714 0.0
O117 O 0.41033 0.83243 0.83419 0.0
O118 O 0.43903 0.8425 0.80575 0.0
C119 C 0.47388 0.80889 0.87226 0.0
C120 C 0.43964 0.76901 0.80163 0.0
O121 O 0.45443 0.78457 0.7931 0.0
O122 O 0.42777 0.77269 0.82329 0.0
C123 C 0.51302 0.82087 0.79117 0.0
O124 O 0.51679 0.80406 0.80932 0.0
C125 C 0.41862 0.84648 0.81635 0.0
Zn126 Zn 0.71728 0.44348 0.35285 0.0
Zn127 Zn 0.70153 0.47683 0.31793 0.0
O128 O 0.70655 0.49541 0.3539 0.0
O129 O 0.71541 0.46725 0.38352 0.0
O130 O 0.686 0.50145 0.29415 0.0
O131 O 0.6888 0.42241 0.34535 0.0
O132 O 0.67609 0.45031 0.31734 0.0
C133 C 0.71117 0.48893 0.37822 0.0
C134 C 0.74894 0.45298 0.30649 0.0
O135 O 0.73246 0.46708 0.29867 0.0
O136 O 0.74697 0.44173 0.32883 0.0
C137 C 0.69312 0.5229 0.29197 0.0
O138 O 0.71288 0.52949 0.30434 0.0
C139 C 0.67329 0.43009 0.32874 0.0
Zn140 Zn 0.05837 0.73976 0.82972 0.0
Zn141 Zn 0.02271 0.71254 0.81107 0.0
O142 O 0.00849 0.72698 0.84596 0.0
O143 O 0.03594 0.75304 0.85835 0.0
O144 O 0.99682 0.69054 0.79792 0.0
O145 O 0.07855 0.71047 0.83685 0.0
O146 O 0.05032 0.68898 0.81754 0.0
C147 C 0.0156 0.74364 0.8617 0.0
C148 C 0.04412 0.75168 0.77522 0.0
O149 O 0.02764 0.73645 0.77943 0.0
O150 O 0.0601 0.75547 0.79298 0.0
C151 C 0.9762 0.69742 0.7905 0.0
O152 O 0.97112 0.72031 0.79073 0.0
C153 C 0.07094 0.69047 0.82845 0.0
Zn154 Zn 0.79142 0.05539 0.36035 0.0
Zn155 Zn 0.81031 0.0248 0.32507 0.0
O156 O 0.80328 0.0041 0.35889 0.0
O157 O 0.79285 0.03063 0.38987 0.0
O158 O 0.82672 0.00118 0.30059 0.0
O159 O 0.81895 0.078 0.35565 0.0
O160 O 0.83596 0.0511 0.3293 0.0
C161 C 0.79752 0.00928 0.38331 0.0
C162 C 0.76255 0.04804 0.31196 0.0
O163 O 0.78028 0.0355 0.30414 0.0
O164 O 0.76254 0.05748 0.3355 0.0
C165 C 0.81779 0.98077 0.29562 0.0
O166 O 0.79653 0.97558 0.30525 0.0
C167 C 0.83658 0.07126 0.34144 0.0
Zn168 Zn 0.43689 0.70681 0.12409 0.0
Zn169 Zn 0.47235 0.68961 0.15474 0.0
O170 O 0.48859 0.69663 0.11798 0.0
O171 O 0.45838 0.70565 0.09113 0.0
O172 O 0.49857 0.67397 0.1761 0.0
O173 O 0.41577 0.67876 0.13319 0.0
O174 O 0.44615 0.66377 0.15585 0.0
C175 C 0.48048 0.70195 0.09449 0.0
C176 C 0.44987 0.73693 0.17034 0.0
O177 O 0.4639 0.71981 0.17629 0.0
O178 O 0.43729 0.73605 0.14883 0.0
C179 C 0.51924 0.68291 0.17929 0.0
O180 O 0.52394 0.70404 0.16904 0.0
C181 C 0.42474 0.66206 0.14721 0.0
Zn182 Zn 0.79395 0.43882 0.63056 0.0
Zn183 Zn 0.80743 0.47252 0.66614 0.0
O184 O 0.80193 0.49136 0.63066 0.0
O185 O 0.79473 0.46316 0.60038 0.0
O186 O 0.82076 0.49759 0.6913 0.0
O187 O 0.82313 0.41908 0.63833 0.0
O188 O 0.83482 0.44779 0.66598 0.0
C189 C 0.7978 0.48498 0.60616 0.0
C190 C 0.7611 0.44549 0.67607 0.0
O191 O 0.77647 0.46071 0.68426 0.0
O192 O 0.76427 0.43447 0.65373 0.0
C193 C 0.81317 0.51896 0.69195 0.0
O194 O 0.79465 0.52488 0.67693 0.0
C195 C 0.83849 0.42763 0.65458 0.0
Zn196 Zn 0.06375 0.764 0.15897 0.0
Zn197 Zn 0.02996 0.78743 0.18779 0.0
O198 O 0.01516 0.78276 0.14957 0.0
O199 O 0.04179 0.7618 0.12668 0.0
O200 O 0.00473 0.80698 0.20647 0.0
O201 O 0.08621 0.79233 0.16409 0.0
O202 O 0.05891 0.80955 0.18974 0.0
C203 C 0.02161 0.77189 0.12795 0.0
C204 C 0.04786 0.7392 0.20776 0.0
O205 O 0.03426 0.75721 0.21117 0.0
O206 O 0.06175 0.73808 0.18739 0.0
C207 C 0.98284 0.801 0.20653 0.0
O208 O 0.97654 0.78047 0.19569 0.0
C209 C 0.07968 0.80952 0.1792 0.0
Zn210 Zn 0.70061 0.06233 0.62037 0.0
Zn211 Zn 0.68867 0.02878 0.65742 0.0
O212 O 0.6936 0.01007 0.62165 0.0
O213 O 0.70142 0.03739 0.59074 0.0
O214 O 0.67693 0.00313 0.68287 0.0
O215 O 0.67002 0.08015 0.6274 0.0
O216 O 0.66107 0.05321 0.6584 0.0
C217 C 0.69813 0.01576 0.59707 0.0
C218 C 0.73403 0.05755 0.66615 0.0
O219 O 0.71969 0.04142 0.67433 0.0
O220 O 0.72988 0.06863 0.64409 0.0
C221 C 0.68424 0.98171 0.68079 0.0
O222 O 0.70114 0.97661 0.66314 0.0
C223 C 0.65597 0.07229 0.64549 0.0
C224 C 0.47151 0.1494 0.21612 0.0
C225 C 0.46681 0.17384 0.21248 0.0
C226 C 0.4531 0.13362 0.22252 0.0
C227 C 0.39423 0.1284 0.25303 0.0
H228 H 0.39011 0.07075 0.20926 0.0
C229 C 0.32292 0.05605 0.27417 0.0
C230 C 0.33121 0.03237 0.27348 0.0
C231 C 0.33705 0.07463 0.26405 0.0
C232 C 0.39109 0.08664 0.22183 0.0
H233 H 0.43924 0.20101 0.21381 0.0
H234 H 0.40701 0.17329 0.22568 0.0
H235 H 0.41994 0.10089 0.19831 0.0
H236 H 0.36054 0.00957 0.26084 0.0
H237 H 0.38523 0.04178 0.24382 0.0
H238 H 0.36607 0.11377 0.27729 0.0
C239 C 0.42499 0.16647 0.22323 0.0
C240 C 0.40813 0.10392 0.21549 0.0
C241 C 0.44341 0.18228 0.21643 0.0
C242 C 0.35354 0.02758 0.26164 0.0
C243 C 0.36768 0.04611 0.25169 0.0
C244 C 0.37731 0.11095 0.25961 0.0
C245 C 0.42963 0.14193 0.22578 0.0
C246 C 0.41016 0.12474 0.23131 0.0
C247 C 0.35979 0.06992 0.25309 0.0
C248 C 0.37587 0.08964 0.24439 0.0
H249 H 0.48931 0.14226 0.21327 0.0
H250 H 0.45721 0.11483 0.22479 0.0
H251 H 0.3955 0.14429 0.26559 0.0
H252 H 0.30574 0.06033 0.28307 0.0
H253 H 0.33026 0.09271 0.26507 0.0
C254 C 0.31304 0.43824 0.73602 0.0
C255 C 0.32044 0.46206 0.73282 0.0
C256 C 0.32964 0.4204 0.74239 0.0
C257 C 0.39361 0.40689 0.73661 0.0
H258 H 0.38209 0.36023 0.79342 0.0
C259 C 0.46896 0.3486 0.7798 0.0
C260 C 0.46391 0.32489 0.78709 0.0
C261 C 0.45067 0.36405 0.77194 0.0
C262 C 0.38543 0.37288 0.77719 0.0
H263 H 0.35101 0.48587 0.73437 0.0
H264 H 0.37981 0.45483 0.74538 0.0
H265 H 0.35131 0.38964 0.78252 0.0
H266 H 0.43564 0.2987 0.79138 0.0
H267 H 0.40368 0.32561 0.77716 0.0
H268 H 0.42761 0.39025 0.7311 0.0
C269 C 0.36124 0.4499 0.74273 0.0
C270 C 0.36782 0.38975 0.77101 0.0
C271 C 0.34468 0.46771 0.7366 0.0
C272 C 0.44014 0.31688 0.78596 0.0
C273 C 0.4218 0.33235 0.77797 0.0
C274 C 0.41112 0.38997 0.74263 0.0
C275 C 0.35396 0.42603 0.74541 0.0
C276 C 0.37191 0.40717 0.75097 0.0
C277 C 0.42684 0.35616 0.77099 0.0
C278 C 0.40743 0.37299 0.76329 0.0
H279 H 0.2945 0.4333 0.73326 0.0
H280 H 0.32356 0.40213 0.74426 0.0
H281 H 0.39707 0.41981 0.72068 0.0
H282 H 0.48705 0.35542 0.78057 0.0
H283 H 0.45519 0.38236 0.76717 0.0
C284 C 0.06744 0.31454 0.22971 0.0
C285 C 0.04494 0.32288 0.22127 0.0
C286 C 0.0851 0.33059 0.23833 0.0
C287 C 0.09228 0.39229 0.26432 0.0
H288 H 0.15868 0.38398 0.24398 0.0
C289 C 0.16129 0.46627 0.28218 0.0
C290 C 0.18316 0.45954 0.29401 0.0
C291 C 0.14544 0.44904 0.2724 0.0
C292 C 0.14023 0.38641 0.24999 0.0
H293 H 0.02353 0.35467 0.2148 0.0
H294 H 0.05426 0.38249 0.22935 0.0
H295 H 0.12896 0.35474 0.229 0.0
H296 H 0.20588 0.4294 0.30387 0.0
H297 H 0.17809 0.39923 0.28668 0.0
H298 H 0.10342 0.42399 0.2851 0.0
C299 C 0.05819 0.36357 0.22987 0.0
C300 C 0.12322 0.36964 0.24148 0.0
C301 C 0.04058 0.34758 0.22136 0.0
C302 C 0.18916 0.43518 0.29493 0.0
C303 C 0.1733 0.4179 0.285 0.0
C304 C 0.10921 0.40904 0.2727 0.0
C305 C 0.08061 0.3553 0.23867 0.0
C306 C 0.09899 0.37252 0.24837 0.0
C307 C 0.15107 0.42464 0.2741 0.0
C308 C 0.13334 0.40642 0.26546 0.0
H309 H 0.07137 0.29561 0.22989 0.0
H310 H 0.1021 0.3236 0.2452 0.0
H311 H 0.07389 0.39479 0.27054 0.0
H312 H 0.15613 0.48488 0.28098 0.0
H313 H 0.12863 0.45481 0.26367 0.0
C314 C 0.17226 0.05937 0.70353 0.0
C315 C 0.16276 0.03761 0.69413 0.0
C316 C 0.15724 0.07703 0.71428 0.0
C317 C 0.09498 0.09744 0.71165 0.0
H318 H 0.10936 0.13052 0.77929 0.0
C319 C 0.02423 0.15269 0.76827 0.0
C320 C 0.03121 0.17376 0.78171 0.0
C321 C 0.04125 0.13754 0.75672 0.0
C322 C 0.10526 0.12174 0.76014 0.0
H323 H 0.13009 0.01718 0.68918 0.0
H324 H 0.10405 0.04791 0.70779 0.0
H325 H 0.13755 0.10116 0.76125 0.0
H326 H 0.0616 0.19563 0.79311 0.0
H327 H 0.09136 0.16932 0.77245 0.0
H328 H 0.06282 0.11793 0.71032 0.0
C329 C 0.12305 0.05142 0.70665 0.0
C330 C 0.12139 0.10488 0.74987 0.0
C331 C 0.13802 0.03374 0.69614 0.0
C332 C 0.05563 0.1795 0.78296 0.0
C333 C 0.0727 0.16435 0.77127 0.0
C334 C 0.07897 0.11437 0.72177 0.0
C335 C 0.13244 0.07333 0.71557 0.0
C336 C 0.1162 0.09228 0.72576 0.0
C337 C 0.0657 0.14311 0.75813 0.0
C338 C 0.08369 0.12645 0.74638 0.0
H339 H 0.19124 0.0629 0.70229 0.0
H340 H 0.16495 0.09379 0.72094 0.0
H341 H 0.09073 0.08835 0.69272 0.0
H342 H 0.00559 0.14763 0.76704 0.0
H343 H 0.0352 0.12116 0.74719 0.0
C344 C 0.52972 0.84854 0.75594 0.0
C345 C 0.53341 0.83304 0.77805 0.0
C346 C 0.5487 0.86169 0.74518 0.0
C347 C 0.60484 0.88874 0.76546 0.0
H348 H 0.61558 0.89592 0.68771 0.0
C349 C 0.65552 0.96766 0.71646 0.0
C350 C 0.67151 0.96236 0.69519 0.0
C351 C 0.64146 0.94969 0.72793 0.0
C352 C 0.61294 0.89389 0.70948 0.0
H353 H 0.56002 0.81872 0.80578 0.0
H354 H 0.59308 0.84202 0.7872 0.0
H355 H 0.58533 0.86782 0.70392 0.0
H356 H 0.68588 0.93393 0.66992 0.0
H357 H 0.661 0.90264 0.68974 0.0
H358 H 0.63193 0.91537 0.77098 0.0
C359 C 0.57549 0.8439 0.77821 0.0
C360 C 0.59554 0.87798 0.71871 0.0
C361 C 0.55659 0.83048 0.78871 0.0
C362 C 0.67375 0.93859 0.68629 0.0
C363 C 0.65943 0.92069 0.6975 0.0
C364 C 0.62199 0.90492 0.7562 0.0
C365 C 0.57166 0.85982 0.75656 0.0
C366 C 0.59119 0.87541 0.74677 0.0
C367 C 0.64289 0.92616 0.71811 0.0
C368 C 0.62606 0.90778 0.72812 0.0
H369 H 0.51207 0.85086 0.74726 0.0
H370 H 0.54523 0.87397 0.72859 0.0
H371 H 0.60169 0.88722 0.7872 0.0
H372 H 0.65344 0.9858 0.72379 0.0
H373 H 0.62874 0.9544 0.7437 0.0
C374 C 0.53343 0.64531 0.20129 0.0
C375 C 0.53811 0.66883 0.193 0.0
C376 C 0.55133 0.63146 0.2131 0.0
C377 C 0.61686 0.62604 0.21872 0.0
H378 H 0.60022 0.58106 0.27567 0.0
C379 C 0.6848 0.56467 0.27592 0.0
C380 C 0.67759 0.54073 0.27851 0.0
C381 C 0.66904 0.5818 0.2655 0.0
C382 C 0.6051 0.59348 0.2597 0.0
H383 H 0.56524 0.69641 0.19103 0.0
H384 H 0.59652 0.67226 0.2122 0.0
H385 H 0.57025 0.60893 0.25902 0.0
H386 H 0.64847 0.51589 0.2713 0.0
H387 H 0.62112 0.54572 0.2534 0.0
H388 H 0.65188 0.61045 0.21971 0.0
C389 C 0.57903 0.66444 0.20912 0.0
C390 C 0.58793 0.60941 0.2501 0.0
C391 C 0.56108 0.67832 0.19715 0.0
C392 C 0.6546 0.53416 0.26971 0.0
C393 C 0.63885 0.55127 0.25961 0.0
C394 C 0.63415 0.61019 0.22855 0.0
C395 C 0.57437 0.64079 0.21713 0.0
C396 C 0.59342 0.62554 0.22907 0.0
C397 C 0.64575 0.5753 0.25781 0.0
C398 C 0.62825 0.59343 0.24872 0.0
H399 H 0.51599 0.63737 0.19826 0.0
H400 H 0.54719 0.61319 0.2185 0.0
H401 H 0.62164 0.63808 0.20235 0.0
H402 H 0.70241 0.57028 0.28246 0.0
H403 H 0.67478 0.60023 0.2643 0.0
C404 C 0.96309 0.65509 0.78425 0.0
C405 C 0.95813 0.6796 0.78198 0.0
C406 C 0.94627 0.63813 0.77613 0.0
C407 C 0.88202 0.62971 0.76097 0.0
H408 H 0.90507 0.57373 0.72247 0.0
C409 C 0.82071 0.56171 0.70479 0.0
C410 C 0.82703 0.53747 0.70665 0.0
C411 C 0.83547 0.57934 0.71602 0.0
C412 C 0.89837 0.58911 0.7335 0.0
H413 H 0.93149 0.70551 0.76958 0.0
H414 H 0.9022 0.67581 0.75491 0.0
H415 H 0.93328 0.6041 0.73728 0.0
H416 H 0.85314 0.5127 0.72306 0.0
H417 H 0.87869 0.5434 0.7427 0.0
H418 H 0.84698 0.61467 0.75673 0.0
C419 C 0.91901 0.66974 0.76335 0.0
C420 C 0.91454 0.60653 0.742 0.0
C421 C 0.93586 0.68676 0.7716 0.0
C422 C 0.84783 0.5312 0.72103 0.0
C423 C 0.86256 0.5488 0.73217 0.0
C424 C 0.86578 0.61226 0.75233 0.0
C425 C 0.92409 0.64522 0.76539 0.0
C426 C 0.90662 0.62698 0.75599 0.0
C427 C 0.85684 0.57308 0.72925 0.0
C428 C 0.87383 0.5917 0.73865 0.0
H429 H 0.97999 0.64893 0.79238 0.0
H430 H 0.95061 0.61941 0.77847 0.0
H431 H 0.87535 0.64512 0.77195 0.0
H432 H 0.80479 0.56714 0.69389 0.0
H433 H 0.83063 0.59791 0.71335 0.0
C434 C 0.82312 0.93931 0.27713 0.0
C435 C 0.83238 0.96226 0.28192 0.0
C436 C 0.83768 0.92126 0.2665 0.0
C437 C 0.89586 0.91082 0.23177 0.0
H438 H 0.89146 0.8482 0.26501 0.0
C439 C 0.97105 0.84163 0.22291 0.0
C440 C 0.96453 0.81814 0.21607 0.0
C441 C 0.95369 0.85846 0.22979 0.0
C442 C 0.89271 0.86552 0.25534 0.0
H443 H 0.86402 0.98442 0.27857 0.0
H444 H 0.88941 0.953 0.26058 0.0
H445 H 0.86298 0.87925 0.27785 0.0
H446 H 0.93467 0.79372 0.21188 0.0
H447 H 0.90429 0.8232 0.2243 0.0
H448 H 0.92602 0.89724 0.20987 0.0
C449 C 0.87084 0.94893 0.26459 0.0
C450 C 0.87635 0.8833 0.26259 0.0
C451 C 0.85628 0.96696 0.27508 0.0
C452 C 0.94027 0.81168 0.21703 0.0
C453 C 0.92289 0.82851 0.22418 0.0
C454 C 0.91229 0.89313 0.22471 0.0
C455 C 0.86183 0.92576 0.26049 0.0
C456 C 0.87793 0.90627 0.25116 0.0
C457 C 0.92942 0.85216 0.23022 0.0
C458 C 0.91109 0.8704 0.23669 0.0
H459 H 0.80474 0.93513 0.28207 0.0
H460 H 0.83007 0.90372 0.26319 0.0
H461 H 0.89731 0.92814 0.22213 0.0
H462 H 0.98957 0.84722 0.22241 0.0
H463 H 0.95927 0.87647 0.23478 0.0
C464 C 0.56411 0.28985 0.20182 0.0
C465 C 0.55647 0.26803 0.21284 0.0
C466 C 0.56932 0.30914 0.21885 0.0
C467 C 0.59443 0.3204 0.28465 0.0
H468 H 0.57858 0.38649 0.26983 0.0
C469 C 0.64608 0.3956 0.33792 0.0
C470 C 0.65286 0.41474 0.32116 0.0
C471 C 0.62856 0.37948 0.32933 0.0
C472 C 0.58331 0.36815 0.27419 0.0
H473 H 0.54729 0.24952 0.25018 0.0
H474 H 0.55718 0.28323 0.2802 0.0
H475 H 0.55756 0.35464 0.24561 0.0
H476 H 0.64596 0.43258 0.28275 0.0
H477 H 0.61629 0.40401 0.26718 0.0
H478 H 0.62134 0.33354 0.31154 0.0
C479 C 0.55881 0.28537 0.25831 0.0
C480 C 0.57111 0.34995 0.26047 0.0
C481 C 0.55311 0.26617 0.24117 0.0
C482 C 0.64107 0.41803 0.29616 0.0
C483 C 0.62387 0.40168 0.28733 0.0
C484 C 0.6069 0.33856 0.29802 0.0
C485 C 0.56738 0.30687 0.24729 0.0
C486 C 0.57698 0.32594 0.26511 0.0
C487 C 0.61776 0.38186 0.30353 0.0
C488 C 0.60197 0.36272 0.29242 0.0
H489 H 0.56671 0.29182 0.18002 0.0
H490 H 0.57611 0.32543 0.20985 0.0
H491 H 0.59951 0.30203 0.28834 0.0
H492 H 0.65464 0.3928 0.35749 0.0
H493 H 0.62393 0.36483 0.34269 0.0
C494 C 0.21409 0.54155 0.7616 0.0
C495 C 0.23354 0.55696 0.75781 0.0
C496 C 0.1951 0.54842 0.77849 0.0
C497 C 0.17515 0.59323 0.82955 0.0
H498 H 0.11848 0.59807 0.78442 0.0
C499 C 0.07832 0.64659 0.82177 0.0
C500 C 0.08665 0.66922 0.8298 0.0
C501 C 0.09394 0.62712 0.82047 0.0
C502 C 0.13379 0.59639 0.79779 0.0
H503 H 0.24953 0.59052 0.76977 0.0
H504 H 0.21691 0.60221 0.79988 0.0
H505 H 0.15113 0.57241 0.77015 0.0
H506 H 0.1177 0.68884 0.84397 0.0
H507 H 0.14492 0.65534 0.84091 0.0
H508 H 0.15819 0.61786 0.85675 0.0
C509 C 0.21611 0.58492 0.78996 0.0
C510 C 0.15256 0.58162 0.78955 0.0
C511 C 0.23475 0.57831 0.77269 0.0
C512 C 0.11066 0.67169 0.83766 0.0
C513 C 0.12628 0.65232 0.83616 0.0
C514 C 0.15627 0.60779 0.83798 0.0
C515 C 0.19563 0.57056 0.79212 0.0
C516 C 0.17383 0.58075 0.8047 0.0
C517 C 0.11827 0.62988 0.82698 0.0
C518 C 0.13583 0.61046 0.82151 0.0
H519 H 0.21273 0.52515 0.74994 0.0
H520 H 0.17949 0.53707 0.7798 0.0
H521 H 0.19129 0.59267 0.84174 0.0
H522 H 0.05985 0.64402 0.81585 0.0
H523 H 0.08705 0.61003 0.81374 0.0
C524 C 0.85577 0.11118 0.34723 0.0
C525 C 0.85723 0.08747 0.33797 0.0
C526 C 0.87419 0.12728 0.3421 0.0
C527 C 0.92306 0.13723 0.29323 0.0
H528 H 0.93203 0.19364 0.33814 0.0
C529 C 0.97116 0.22004 0.2519 0.0
C530 C 0.95435 0.23857 0.25023 0.0
C531 C 0.96698 0.20056 0.26912 0.0
C532 C 0.93006 0.17779 0.32563 0.0
H533 H 0.87985 0.06173 0.31734 0.0
H534 H 0.91242 0.08977 0.30892 0.0
H535 H 0.91044 0.15941 0.35651 0.0
H536 H 0.92118 0.25247 0.26633 0.0
H537 H 0.91436 0.21905 0.29722 0.0
H538 H 0.94223 0.15599 0.26216 0.0
C539 C 0.89671 0.09606 0.3196 0.0
C540 C 0.91748 0.15827 0.33598 0.0
C541 C 0.87808 0.07995 0.3245 0.0
C542 C 0.93445 0.23842 0.26754 0.0
C543 C 0.93061 0.21935 0.28522 0.0
C544 C 0.936 0.15659 0.28308 0.0
C545 C 0.89478 0.12008 0.32784 0.0
C546 C 0.91276 0.13823 0.3194 0.0
C547 C 0.94628 0.19978 0.28531 0.0
C548 C 0.93865 0.17744 0.29875 0.0
H549 H 0.83997 0.11763 0.35765 0.0
H550 H 0.8717 0.14567 0.3483 0.0
H551 H 0.91971 0.12228 0.27973 0.0
H552 H 0.98645 0.21971 0.23838 0.0
H553 H 0.97923 0.1856 0.26879 0.0
C554 C 0.25345 0.95589 0.71437 0.0
C555 C 0.25607 0.95229 0.68614 0.0
C556 C 0.27241 0.95094 0.73215 0.0
C557 C 0.33756 0.94063 0.73562 0.0
H558 H 0.3218 0.89405 0.79109 0.0
C559 C 0.40697 0.87566 0.78006 0.0
C560 C 0.40348 0.86623 0.80627 0.0
C561 C 0.39039 0.89157 0.7689 0.0
C562 C 0.3266 0.9075 0.77625 0.0
H563 H 0.28095 0.94215 0.65423 0.0
H564 H 0.31399 0.93391 0.68513 0.0
H565 H 0.29 0.91313 0.76542 0.0
H566 H 0.38098 0.86752 0.84224 0.0
H567 H 0.35261 0.89595 0.82329 0.0
H568 H 0.3742 0.93481 0.74613 0.0
C569 C 0.29733 0.94039 0.69358 0.0
C570 C 0.30829 0.9184 0.76147 0.0
C571 C 0.27833 0.94493 0.67592 0.0
C572 C 0.38397 0.87424 0.82181 0.0
C573 C 0.36761 0.89043 0.81085 0.0
C574 C 0.35591 0.92995 0.75065 0.0
C575 C 0.29442 0.9428 0.72191 0.0
C576 C 0.31361 0.93455 0.74049 0.0
C577 C 0.37012 0.89866 0.7839 0.0
C578 C 0.35071 0.91271 0.77063 0.0
H579 H 0.23649 0.96154 0.72281 0.0
H580 H 0.26975 0.953 0.75392 0.0
H581 H 0.34212 0.95322 0.7197 0.0
H582 H 0.42179 0.86976 0.76755 0.0
H583 H 0.39287 0.89725 0.748 0.0
C584 C 0.54379 0.23488 0.74158 0.0
C585 C 0.54878 0.23094 0.7693 0.0
C586 C 0.54647 0.21628 0.72263 0.0
C587 C 0.55419 0.15077 0.7158 0.0
H588 H 0.60254 0.16667 0.66233 0.0
C589 C 0.6237 0.08337 0.6785 0.0
C590 C 0.6347 0.08651 0.65303 0.0
C591 C 0.6061 0.09928 0.68737 0.0
C592 C 0.58856 0.16184 0.67653 0.0
H593 H 0.55856 0.20432 0.79934 0.0
H594 H 0.56275 0.17196 0.76656 0.0
H595 H 0.58277 0.19837 0.68748 0.0
H596 H 0.63445 0.10747 0.61586 0.0
H597 H 0.60326 0.13476 0.63096 0.0
H598 H 0.56054 0.11417 0.70556 0.0
C599 C 0.55697 0.18927 0.75929 0.0
C600 C 0.57721 0.18011 0.69097 0.0
C601 C 0.5548 0.20786 0.77803 0.0
C602 C 0.62655 0.10481 0.63581 0.0
C603 C 0.60874 0.12053 0.64452 0.0
C604 C 0.56535 0.13248 0.70115 0.0
C605 C 0.55357 0.19342 0.73132 0.0
C606 C 0.56068 0.1747 0.71155 0.0
C607 C 0.5989 0.11851 0.67081 0.0
C608 C 0.58344 0.13774 0.68218 0.0
H609 H 0.53914 0.25255 0.7344 0.0
H610 H 0.54376 0.21991 0.70114 0.0
H611 H 0.5413 0.14615 0.7314 0.0
H612 H 0.62959 0.06944 0.69225 0.0
H613 H 0.59919 0.09726 0.70787 0.0
C614 C 0.38476 0.64255 0.15174 0.0
C615 C 0.40961 0.64171 0.1557 0.0
C616 C 0.36996 0.62527 0.16331 0.0
C617 C 0.36993 0.58485 0.22219 0.0
H618 H 0.30629 0.57045 0.19558 0.0
C619 C 0.27474 0.542 0.2633 0.0
C620 C 0.27391 0.55441 0.28828 0.0
C621 C 0.29314 0.54647 0.24457 0.0
C622 C 0.32415 0.57385 0.20313 0.0
H623 H 0.43856 0.6209 0.17293 0.0
H624 H 0.41277 0.59034 0.1925 0.0
H625 H 0.33553 0.58831 0.16487 0.0
H626 H 0.29208 0.5808 0.31336 0.0
H627 H 0.32361 0.58862 0.28097 0.0
H628 H 0.35853 0.57065 0.26046 0.0
C629 C 0.40464 0.60478 0.18116 0.0
C630 C 0.34084 0.58437 0.18564 0.0
C631 C 0.41946 0.62225 0.16983 0.0
C632 C 0.29207 0.57091 0.29433 0.0
C633 C 0.31037 0.57524 0.27582 0.0
C634 C 0.35336 0.57419 0.23955 0.0
C635 C 0.37964 0.60654 0.17888 0.0
C636 C 0.36363 0.59092 0.1953 0.0
C637 C 0.31112 0.56322 0.25066 0.0
C638 C 0.32996 0.56956 0.2306 0.0
H639 H 0.37656 0.65726 0.14091 0.0
H640 H 0.35082 0.62747 0.16133 0.0
H641 H 0.38719 0.58968 0.23053 0.0
H642 H 0.26101 0.52917 0.25805 0.0
H643 H 0.29328 0.5369 0.22533 0.0
C644 C 0.86037 0.38881 0.65549 0.0
C645 C 0.8597 0.41324 0.66191 0.0
C646 C 0.87867 0.37433 0.66539 0.0
C647 C 0.92044 0.37257 0.72338 0.0
H648 H 0.9345 0.31063 0.6918 0.0
C649 C 0.93076 0.29054 0.78881 0.0
C650 C 0.94514 0.27118 0.7809 0.0
C651 C 0.92861 0.31055 0.77228 0.0
C652 C 0.93133 0.32803 0.70076 0.0
H653 H 0.87882 0.44207 0.68184 0.0
H654 H 0.91133 0.41694 0.69838 0.0
H655 H 0.9166 0.34154 0.66359 0.0
H656 H 0.96942 0.25813 0.74981 0.0
H657 H 0.96564 0.29349 0.72059 0.0
H658 H 0.93517 0.35908 0.7605 0.0
C659 C 0.89723 0.40876 0.68647 0.0
C660 C 0.92069 0.34569 0.68468 0.0
C661 C 0.87865 0.42321 0.6769 0.0
C662 C 0.95813 0.27274 0.75641 0.0
C663 C 0.9559 0.29292 0.73967 0.0
C664 C 0.93142 0.35509 0.73928 0.0
C665 C 0.89705 0.38396 0.68165 0.0
C666 C 0.91384 0.3677 0.69623 0.0
C667 C 0.94084 0.31193 0.74731 0.0
C668 C 0.93567 0.33216 0.72862 0.0
H669 H 0.84607 0.38053 0.64396 0.0
H670 H 0.87753 0.35533 0.66153 0.0
H671 H 0.91558 0.38921 0.73316 0.0
H672 H 0.9206 0.29007 0.80761 0.0
H673 H 0.91645 0.32453 0.77865 0.0
C674 C 0.11702 0.83287 0.16998 0.0
C675 C 0.09673 0.82876 0.18614 0.0
C676 C 0.13405 0.84979 0.17789 0.0
C677 C 0.14552 0.89879 0.22883 0.0
H678 H 0.21159 0.88071 0.21728 0.0
C679 C 0.22484 0.925 0.29783 0.0
C680 C 0.24561 0.93355 0.2851 0.0
C681 C 0.20554 0.91703 0.28224 0.0
C682 C 0.19322 0.88618 0.22027 0.0
H683 H 0.07813 0.83949 0.22296 0.0
H684 H 0.10816 0.86801 0.23745 0.0
H685 H 0.17994 0.85725 0.19631 0.0
H686 H 0.26231 0.94102 0.24614 0.0
H687 H 0.2287 0.92615 0.21877 0.0
H688 H 0.15915 0.92671 0.25455 0.0
C689 C 0.11073 0.8589 0.21817 0.0
C690 C 0.175 0.87281 0.20815 0.0
C691 C 0.09351 0.84235 0.20997 0.0
C692 C 0.24646 0.93462 0.25646 0.0
C693 C 0.22733 0.92608 0.24083 0.0
C694 C 0.16376 0.91183 0.2414 0.0
C695 C 0.13144 0.86265 0.20245 0.0
C696 C 0.15084 0.87862 0.2127 0.0
C697 C 0.20685 0.91696 0.25363 0.0
C698 C 0.18773 0.90538 0.23756 0.0
H699 H 0.11985 0.82283 0.15134 0.0
H700 H 0.14942 0.85252 0.16488 0.0
H701 H 0.12722 0.90425 0.23228 0.0
H702 H 0.22369 0.92406 0.31987 0.0
H703 H 0.19 0.90989 0.29255 0.0
C704 C 0.35168 0.58935 0.71949 0.0
C705 C 0.33813 0.59116 0.69547 0.0
C706 C 0.36879 0.60663 0.72589 0.0
C707 C 0.38249 0.66983 0.70993 0.0
H708 H 0.43421 0.65864 0.761 0.0
C709 C 0.43815 0.74643 0.75744 0.0
C710 C 0.43547 0.74686 0.78596 0.0
C711 C 0.43156 0.72614 0.74248 0.0
C712 C 0.41998 0.66195 0.74649 0.0
H713 H 0.33329 0.61125 0.65814 0.0
H714 H 0.36401 0.64071 0.66853 0.0
H715 H 0.41373 0.62471 0.74013 0.0
H716 H 0.42521 0.72608 0.82134 0.0
H717 H 0.41438 0.69048 0.79526 0.0
H718 H 0.3889 0.7071 0.71645 0.0
C719 C 0.36075 0.6266 0.68311 0.0
C720 C 0.40807 0.64256 0.73469 0.0
C721 C 0.34326 0.60959 0.677 0.0
C722 C 0.42732 0.72627 0.79936 0.0
C723 C 0.4213 0.70586 0.78449 0.0
C724 C 0.39474 0.68916 0.72129 0.0
C725 C 0.37312 0.62589 0.70814 0.0
C726 C 0.38857 0.64622 0.71699 0.0
C727 C 0.42284 0.70581 0.7559 0.0
C728 C 0.41306 0.68539 0.74032 0.0
H729 H 0.34807 0.57541 0.73421 0.0
H730 H 0.37759 0.60549 0.74552 0.0
H731 H 0.3674 0.67356 0.6968 0.0
H732 H 0.44433 0.76209 0.74662 0.0
H733 H 0.43284 0.72648 0.72042 0.0
C734 C 0.91947 0.35749 0.21145 0.0
C735 C 0.91532 0.34327 0.18829 0.0
C736 C 0.90329 0.37536 0.21883 0.0
C737 C 0.83946 0.39073 0.20859 0.0
H738 H 0.85621 0.44375 0.25587 0.0
C739 C 0.76819 0.44994 0.26045 0.0
C740 C 0.76995 0.44846 0.28902 0.0
C741 C 0.78718 0.44245 0.24395 0.0
C742 C 0.85134 0.42915 0.24243 0.0
H743 H 0.89214 0.33793 0.15339 0.0
H744 H 0.86456 0.36991 0.16537 0.0
H745 H 0.88774 0.42131 0.23286 0.0
H746 H 0.79336 0.43952 0.32275 0.0
H747 H 0.8267 0.4271 0.29393 0.0
H748 H 0.80304 0.3987 0.21832 0.0
C749 C 0.8797 0.36664 0.17861 0.0
C750 C 0.86936 0.41612 0.22943 0.0
C751 C 0.89561 0.34842 0.17157 0.0
C752 C 0.79148 0.44073 0.30078 0.0
C753 C 0.8106 0.43378 0.28432 0.0
C754 C 0.82147 0.40406 0.22115 0.0
C755 C 0.88279 0.37977 0.20291 0.0
C756 C 0.86372 0.39618 0.21306 0.0
C757 C 0.8084 0.43397 0.25578 0.0
C758 C 0.82727 0.4229 0.23884 0.0
H759 H 0.93445 0.35387 0.22482 0.0
H760 H 0.90627 0.38474 0.23786 0.0
H761 H 0.83423 0.37534 0.1966 0.0
H762 H 0.75176 0.45575 0.25086 0.0
H763 H 0.7851 0.44272 0.22197 0.0
C764 C 0.02888 0.78503 0.74685 0.0
C765 C 0.04477 0.76592 0.75019 0.0
C766 C 0.03363 0.80274 0.72747 0.0
C767 C 0.07162 0.81933 0.66872 0.0
H768 H 0.08075 0.87899 0.7076 0.0
C769 C 0.12122 0.91797 0.65784 0.0
C770 C 0.14236 0.90989 0.64544 0.0
C771 C 0.10311 0.90184 0.66471 0.0
C772 C 0.07778 0.86279 0.696 0.0
H773 H 0.07703 0.7492 0.73526 0.0
H774 H 0.08496 0.7796 0.70078 0.0
H775 H 0.05832 0.84696 0.72887 0.0
H776 H 0.1607 0.87862 0.62974 0.0
H777 H 0.12983 0.8506 0.64253 0.0
H778 H 0.09152 0.8349 0.63607 0.0
C779 C 0.06887 0.78104 0.71294 0.0
C780 C 0.06489 0.84438 0.70827 0.0
C781 C 0.06438 0.76366 0.73263 0.0
C782 C 0.14464 0.8855 0.63924 0.0
C783 C 0.12673 0.86939 0.64636 0.0
C784 C 0.0842 0.83788 0.65624 0.0
C785 C 0.05413 0.80127 0.71099 0.0
C786 C 0.06252 0.82216 0.69521 0.0
C787 C 0.10587 0.87724 0.65961 0.0
C788 C 0.08837 0.85948 0.67023 0.0
H789 H 0.01389 0.78725 0.76059 0.0
H790 H 0.02204 0.81819 0.72637 0.0
H791 H 0.06986 0.80242 0.65814 0.0
H792 H 0.11882 0.9367 0.66264 0.0
H793 H 0.08714 0.90862 0.67448 0.0
C794 C 0.59345 0.14073 0.20646 0.0
C795 C 0.59767 0.15298 0.18196 0.0
C796 C 0.61002 0.12413 0.21622 0.0
C797 C 0.67429 0.10931 0.20965 0.0
H798 H 0.65694 0.05731 0.25781 0.0
C799 C 0.74523 0.05227 0.26496 0.0
C800 C 0.74225 0.05275 0.29343 0.0
C801 C 0.7267 0.05971 0.24775 0.0
C802 C 0.662 0.07167 0.24422 0.0
H803 H 0.62167 0.15623 0.14749 0.0
H804 H 0.65005 0.1266 0.16384 0.0
H805 H 0.62574 0.07894 0.2333 0.0
H806 H 0.71716 0.05991 0.32614 0.0
H807 H 0.68478 0.07241 0.29614 0.0
H808 H 0.71054 0.10204 0.22078 0.0
C809 C 0.63445 0.13041 0.17614 0.0
C810 C 0.64415 0.08421 0.23033 0.0
C811 C 0.6181 0.1473 0.16664 0.0
C812 C 0.72003 0.0595 0.30428 0.0
C813 C 0.70142 0.06649 0.28711 0.0
C814 C 0.69211 0.09655 0.22321 0.0
C815 C 0.63101 0.1191 0.20146 0.0
C816 C 0.65001 0.10364 0.21343 0.0
C817 C 0.70475 0.06724 0.25873 0.0
C818 C 0.68611 0.07803 0.24118 0.0
H819 H 0.5779 0.14479 0.21878 0.0
H820 H 0.60681 0.11611 0.23595 0.0
H821 H 0.67959 0.12437 0.19725 0.0
H822 H 0.76218 0.04718 0.25604 0.0
H823 H 0.72966 0.06008 0.22591 0.0
C824 C 0.45265 0.75564 0.21681 0.0
C825 C 0.44748 0.75767 0.18883 0.0
C826 C 0.44798 0.77468 0.23457 0.0
C827 C 0.437 0.83933 0.23815 0.0
H828 H 0.39196 0.82391 0.29546 0.0
C829 C 0.37327 0.90898 0.28381 0.0
C830 C 0.36386 0.90558 0.31007 0.0
C831 C 0.38914 0.89238 0.27263 0.0
C832 C 0.40502 0.82863 0.28012 0.0
H833 H 0.43469 0.78158 0.15727 0.0
H834 H 0.42704 0.81489 0.18819 0.0
H835 H 0.41029 0.79198 0.2692 0.0
H836 H 0.36524 0.88327 0.34612 0.0
H837 H 0.39374 0.85488 0.32715 0.0
H838 H 0.43171 0.87598 0.24882 0.0
C839 C 0.4345 0.79857 0.1964 0.0
C840 C 0.41546 0.81024 0.26499 0.0
C841 C 0.4387 0.77944 0.17877 0.0
C842 C 0.37196 0.88618 0.32567 0.0
C843 C 0.38817 0.86981 0.31468 0.0
C844 C 0.42688 0.85775 0.25358 0.0
C845 C 0.43861 0.79621 0.22454 0.0
C846 C 0.43096 0.81545 0.24334 0.0
C847 C 0.39629 0.87219 0.28764 0.0
C848 C 0.41013 0.85269 0.2742 0.0
H849 H 0.45939 0.73905 0.22512 0.0
H850 H 0.4513 0.77246 0.25621 0.0
H851 H 0.44911 0.84376 0.22168 0.0
H852 H 0.36731 0.9237 0.27123 0.0
H853 H 0.39468 0.89479 0.25166 0.0
C854 C 0.7228 0.42345 0.68298 0.0
C855 C 0.73981 0.4398 0.69283 0.0
C856 C 0.70342 0.41671 0.69905 0.0
C857 C 0.68487 0.41166 0.77059 0.0
H858 H 0.62436 0.39516 0.73698 0.0
C859 C 0.62211 0.34067 0.81465 0.0
C860 C 0.59741 0.34201 0.80976 0.0
C861 C 0.63757 0.35789 0.80412 0.0
C862 C 0.64091 0.40007 0.74696 0.0
H863 H 0.74935 0.46241 0.72714 0.0
H864 H 0.71523 0.45067 0.75529 0.0
H865 H 0.65426 0.41645 0.71068 0.0
H866 H 0.56942 0.36347 0.79149 0.0
H867 H 0.59639 0.39383 0.77353 0.0
H868 H 0.67151 0.39517 0.80688 0.0
C869 C 0.71713 0.44292 0.73514 0.0
C870 C 0.65822 0.41202 0.7317 0.0
C871 C 0.73661 0.44973 0.71897 0.0
C872 C 0.58838 0.36177 0.79542 0.0
C873 C 0.60386 0.37911 0.78499 0.0
C874 C 0.66747 0.39982 0.78593 0.0
C875 C 0.70042 0.42615 0.72543 0.0
C876 C 0.68072 0.41721 0.74302 0.0
C877 C 0.62872 0.37702 0.78856 0.0
C878 C 0.64557 0.39316 0.77402 0.0
H879 H 0.72464 0.41542 0.66296 0.0
H880 H 0.69121 0.40343 0.69106 0.0
H881 H 0.702 0.41534 0.77997 0.0
H882 H 0.62972 0.32573 0.82565 0.0
H883 H 0.65658 0.35545 0.80703 0.0
C884 C 0.14379 0.58063 0.31291 0.0
C885 C 0.15857 0.58583 0.33532 0.0
C886 C 0.12483 0.59571 0.30618 0.0
C887 C 0.10672 0.65859 0.31472 0.0
H888 H 0.05196 0.63713 0.27284 0.0
C889 C 0.04811 0.72519 0.25624 0.0
C890 C 0.04906 0.71999 0.2282 0.0
C891 C 0.05445 0.70775 0.27537 0.0
C892 C 0.06699 0.64336 0.28484 0.0
H893 H 0.16401 0.60998 0.36942 0.0
H894 H 0.13046 0.63589 0.35821 0.0
H895 H 0.0768 0.60793 0.29655 0.0
H896 H 0.05522 0.69221 0.19819 0.0
H897 H 0.06564 0.66171 0.23147 0.0
H898 H 0.0972 0.69394 0.30238 0.0
C899 C 0.13395 0.62059 0.34527 0.0
C900 C 0.08136 0.62666 0.29822 0.0
C901 C 0.15314 0.60567 0.35178 0.0
C902 C 0.05445 0.69666 0.21971 0.0
C903 C 0.06026 0.67917 0.23878 0.0
C904 C 0.09217 0.67527 0.30166 0.0
C905 C 0.11995 0.6162 0.32192 0.0
C906 C 0.10201 0.63398 0.31236 0.0
C907 C 0.06124 0.68478 0.2667 0.0
C908 C 0.07274 0.66775 0.2857 0.0
H909 H 0.1475 0.5655 0.29978 0.0
H910 H 0.11477 0.59186 0.28781 0.0
H911 H 0.12256 0.66499 0.3251 0.0
H912 H 0.04411 0.7431 0.26325 0.0
H913 H 0.05506 0.71248 0.29681 0.0
C914 C 0.90791 0.13909 0.78794 0.0
C915 C 0.89934 0.15655 0.80611 0.0
C916 C 0.89217 0.12307 0.77539 0.0
C917 C 0.85373 0.10599 0.73645 0.0
H918 H 0.79522 0.08415 0.7705 0.0
C919 C 0.77045 0.08253 0.67393 0.0
C920 C 0.75529 0.06407 0.68264 0.0
C921 C 0.78986 0.08965 0.68984 0.0
C922 C 0.81162 0.08974 0.76073 0.0
H923 H 0.86761 0.17007 0.82633 0.0
H924 H 0.84024 0.14263 0.80411 0.0
H925 H 0.82613 0.10281 0.79834 0.0
H926 H 0.74906 0.0382 0.71474 0.0
H927 H 0.78324 0.05051 0.74248 0.0
H928 H 0.83929 0.0929 0.69888 0.0
C929 C 0.85912 0.14097 0.79979 0.0
C930 C 0.82924 0.10072 0.77665 0.0
C931 C 0.87486 0.15687 0.81243 0.0
C932 C 0.76032 0.05255 0.70747 0.0
C933 C 0.77984 0.05967 0.72343 0.0
C934 C 0.83619 0.09492 0.72058 0.0
C935 C 0.86748 0.12422 0.78062 0.0
C936 C 0.85025 0.10955 0.76459 0.0
C937 C 0.79474 0.07845 0.71488 0.0
C938 C 0.81463 0.08726 0.73237 0.0
H939 H 0.9267 0.13821 0.78278 0.0
H940 H 0.89928 0.11011 0.76112 0.0
H941 H 0.86955 0.1127 0.72635 0.0
H942 H 0.76711 0.09187 0.65496 0.0
H943 H 0.80064 0.10445 0.68282 0.0
C944 C 0.48858 0.22634 0.09723 0.0
C945 C 0.50889 0.21166 0.09604 0.0
C946 C 0.47632 0.23225 0.07322 0.0
C947 C 0.47069 0.2174 -0.00021 0.0
H948 H 0.4828 0.28459 0.98688 0.0
C949 C 0.52073 0.25034 0.90967 0.0
C950 C 0.51444 0.27115 0.8955 0.0
C951 C 0.5078 0.24312 0.93236 0.0
C952 C 0.47839 0.26599 0.99018 0.0
H953 H 0.53128 0.19012 0.06981 0.0
H954 H 0.50953 0.19961 0.0282 0.0
H955 H 0.48076 0.2697 0.0336 0.0
H956 H 0.48936 0.30056 0.8936 0.0
H957 H 0.46713 0.28836 0.93477 0.0
H958 H 0.47071 0.2133 0.95636 0.0
C959 C 0.50304 0.20675 0.04739 0.0
C960 C 0.47722 0.25744 0.01695 0.0
C961 C 0.51561 0.20142 0.07112 0.0
C962 C 0.49458 0.28448 0.90428 0.0
C963 C 0.48186 0.27749 0.92764 0.0
C964 C 0.47179 0.22594 0.9731 0.0
C965 C 0.48386 0.22294 0.048 0.0
C966 C 0.47515 0.2328 0.02184 0.0
C967 C 0.48842 0.25668 0.9418 0.0
C968 C 0.47745 0.24997 0.96813 0.0
H969 H 0.48329 0.23458 0.11632 0.0
H970 H 0.46171 0.2449 0.07415 0.0
H971 H 0.46878 0.19837 0.00307 0.0
H972 H 0.53576 0.23954 0.90321 0.0
H973 H 0.51358 0.22729 0.94318 0.0
C974 C 0.21063 0.48845 0.42066 0.0
C975 C 0.22996 0.50145 0.41015 0.0
C976 C 0.21215 0.47834 0.44673 0.0
C977 C 0.25228 0.46362 0.50415 0.0
H978 H 0.20826 0.50074 0.54796 0.0
C979 C 0.27699 0.49775 0.61043 0.0
C980 C 0.2591 0.50618 0.6279 0.0
C981 C 0.27091 0.48745 0.58535 0.0
C982 C 0.2203 0.48947 0.53645 0.0
H983 H 0.26662 0.5122 0.41698 0.0
H984 H 0.26956 0.49392 0.46199 0.0
H985 H 0.20219 0.49787 0.49929 0.0
H986 H 0.22103 0.50854 0.63465 0.0
H987 H 0.21022 0.48887 0.59198 0.0
H988 H 0.27071 0.45548 0.5412 0.0
C989 C 0.25321 0.49168 0.45041 0.0
C990 C 0.21676 0.48791 0.50834 0.0
C991 C 0.25148 0.50228 0.42478 0.0
C992 C 0.23509 0.50236 0.62119 0.0
C993 C 0.22897 0.49131 0.59658 0.0
C994 C 0.25554 0.46467 0.53245 0.0
C995 C 0.23324 0.48058 0.46213 0.0
C996 C 0.23332 0.47595 0.49181 0.0
C997 C 0.24676 0.48484 0.57762 0.0
C998 C 0.2403 0.47869 0.54884 0.0
H999 H 0.19382 0.48773 0.40973 0.0
H1000 H 0.1965 0.46997 0.45547 0.0
H1001 H 0.26524 0.45419 0.49175 0.0
H1002 H 0.29565 0.50069 0.61526 0.0
H1003 H 0.28524 0.48306 0.57142 0.0
C1004 C 0.99289 0.2331 0.11108 0.0
C1005 C 0.99167 0.25769 0.11611 0.0
C1006 C 0.00154 0.22455 0.08621 0.0
C1007 C 0.02673 0.2443 0.01852 0.0
H1008 H 0.98676 0.19271 0.99193 0.0
C1009 C 0.98599 0.23702 0.91236 0.0
C1010 C 0.98465 0.21473 0.89938 0.0
C1011 C 0.99672 0.23918 0.9379 0.0
C1012 C 0.99854 0.20671 -0.00085 0.0
H1013 H 0.99945 0.29273 0.10007 0.0
H1014 H 0.01303 0.27813 0.05585 0.0
H1015 H 0.9868 0.2023 0.04005 0.0
H1016 H 0.99425 0.1774 0.90194 0.0
H1017 H 0.01219 0.18095 0.9477 0.0
H1018 H 0.03635 0.24999 0.97663 0.0
C1019 C 0.00832 0.26517 0.07126 0.0
C1020 C 0.99866 0.21228 0.02691 0.0
C1021 C 0.00037 0.27365 0.09655 0.0
C1022 C 0.99524 0.19476 0.91165 0.0
C1023 C 0.00546 0.1968 0.93767 0.0
C1024 C 0.02617 0.23902 0.9906 0.0
C1025 C 0.00826 0.24048 0.06539 0.0
C1026 C 0.01206 0.23174 0.0369 0.0
C1027 C 0.00576 0.21896 0.95123 0.0
C1028 C 0.01144 0.22069 0.98063 0.0
H1029 H 0.98651 0.22048 0.12615 0.0
H1030 H 0.00199 0.20544 0.08297 0.0
H1031 H 0.03781 0.25894 0.02543 0.0
H1032 H 0.97792 0.25264 0.90315 0.0
H1033 H 0.9964 0.25638 0.94806 0.0
C1034 C 0.28918 0.01746 0.38741 0.0
C1035 C 0.30026 0.99558 0.39343 0.0
C1036 C 0.28035 0.03188 0.40852 0.0
C1037 C 0.24363 0.03843 0.45399 0.0
H1038 H 0.2701 0.03828 0.5271 0.0
C1039 C 0.19909 0.99623 0.54303 0.0
C1040 C 0.20397 0.00332 0.56991 0.0
C1041 C 0.20794 0.00934 0.52115 0.0
C1042 C 0.26241 0.03929 0.50685 0.0
H1043 H 0.31315 0.97283 0.42593 0.0
H1044 H 0.29819 0.9979 0.46257 0.0
H1045 H 0.29674 0.03638 0.48793 0.0
H1046 H 0.22016 0.03062 0.59524 0.0
H1047 H 0.23641 0.05335 0.55671 0.0
H1048 H 0.20922 0.03929 0.47299 0.0
C1049 C 0.29611 0.00406 0.44176 0.0
C1050 C 0.27771 0.03801 0.48439 0.0
C1051 C 0.3045 0.98952 0.42075 0.0
C1052 C 0.21611 0.02488 0.57461 0.0
C1053 C 0.22545 0.03782 0.55262 0.0
C1054 C 0.22833 0.03969 0.47645 0.0
C1055 C 0.28294 0.02481 0.43589 0.0
C1056 C 0.26836 0.03574 0.45788 0.0
C1057 C 0.22229 0.02957 0.52572 0.0
C1058 C 0.23753 0.03829 0.50309 0.0
H1059 H 0.28569 0.02253 0.36646 0.0
H1060 H 0.27033 0.04779 0.40343 0.0
H1061 H 0.23584 0.03682 0.43383 0.0
H1062 H 0.1897 0.97969 0.53895 0.0
H1063 H 0.20537 0.00229 0.50075 0.0
C1064 C 0.48439 0.8094 0.92156 0.0
C1065 C 0.49131 0.80531 0.89445 0.0
C1066 C 0.49826 0.80083 0.94304 0.0
C1067 C 0.5315 0.74794 0.95576 0.0
H1068 H 0.53073 0.7737 0.02924 0.0
C1069 C 0.51858 0.71849 0.07593 0.0
C1070 C 0.49679 0.70662 0.07156 0.0
C1071 C 0.53101 0.72836 0.05387 0.0
C1072 C 0.53187 0.76622 0.00888 0.0
H1073 H 0.51913 0.79092 0.86843 0.0
H1074 H 0.54316 0.77526 0.90618 0.0
H1075 H 0.52961 0.80075 0.99039 0.0
H1076 H 0.4722 0.69348 0.04091 0.0
H1077 H 0.49399 0.71009 0.00253 0.0
H1078 H 0.53157 0.71336 0.9743 0.0
C1079 C 0.52712 0.78531 0.91075 0.0
C1080 C 0.53106 0.78174 0.98662 0.0
C1081 C 0.5134 0.79431 0.8892 0.0
C1082 C 0.48891 0.70266 0.04478 0.0
C1083 C 0.50153 0.71203 0.02278 0.0
C1084 C 0.53219 0.73242 0.97802 0.0
C1085 C 0.51913 0.78763 0.93782 0.0
C1086 C 0.52919 0.77267 0.95995 0.0
C1087 C 0.52207 0.72597 0.02718 0.0
C1088 C 0.53071 0.74141 0.00475 0.0
H1089 H 0.46751 0.81797 0.92615 0.0
H1090 H 0.49145 0.80273 0.96362 0.0
H1091 H 0.5301 0.74037 0.93546 0.0
H1092 H 0.52497 0.72183 0.09646 0.0
H1093 H 0.54678 0.73902 0.05779 0.0
C1094 C 0.80086 0.49675 0.55753 0.0
C1095 C 0.79485 0.50284 0.58442 0.0
C1096 C 0.79396 0.51131 0.53593 0.0
C1097 C 0.74267 0.54538 0.51873 0.0
H1098 H 0.77482 0.54495 0.44871 0.0
C1099 C 0.72523 0.52833 0.39621 0.0
C1100 C 0.71336 0.50656 0.40039 0.0
C1101 C 0.73246 0.54216 0.41863 0.0
C1102 C 0.76552 0.54608 0.46805 0.0
H1103 H 0.77852 0.52974 0.6102 0.0
H1104 H 0.7656 0.55502 0.57205 0.0
H1105 H 0.79826 0.54409 0.49052 0.0
H1106 H 0.69736 0.4834 0.43056 0.0
H1107 H 0.70943 0.50746 0.4694 0.0
H1108 H 0.7099 0.54524 0.4962 0.0
C1109 C 0.77597 0.53911 0.5678 0.0
C1110 C 0.779 0.5454 0.49203 0.0
C1111 C 0.78335 0.52469 0.58957 0.0
C1112 C 0.70665 0.50006 0.42689 0.0
C1113 C 0.71339 0.51402 0.44913 0.0
C1114 C 0.72919 0.54607 0.49474 0.0
C1115 C 0.78051 0.5321 0.54071 0.0
C1116 C 0.76764 0.54308 0.51745 0.0
C1117 C 0.7274 0.53459 0.44537 0.0
C1118 C 0.7405 0.54443 0.4692 0.0
H1119 H 0.80986 0.48007 0.55307 0.0
H1120 H 0.79748 0.50517 0.51534 0.0
H1121 H 0.73336 0.54376 0.53801 0.0
H1122 H 0.73061 0.53367 0.37588 0.0
H1123 H 0.74323 0.55792 0.41516 0.0
C1124 C 0.00538 0.75105 0.08724 0.0
C1125 C 0.00615 0.77157 0.10368 0.0
C1126 C 0.99401 0.7516 0.06193 0.0
C1127 C 0.99066 0.79069 0.00686 0.0
H1128 H 0.95136 0.74194 0.97304 0.0
C1129 C 0.99996 0.77492 0.89304 0.0
C1130 C 0.00122 0.75084 0.88539 0.0
C1131 C 0.98997 0.78144 0.91808 0.0
C1132 C 0.96246 0.75567 0.98206 0.0
H1133 H 0.9947 0.80834 0.10752 0.0
H1134 H 0.97574 0.80966 0.06226 0.0
H1135 H 0.95278 0.74528 0.02273 0.0
H1136 H 0.99196 0.71475 0.8968 0.0
H1137 H 0.97622 0.72567 0.94125 0.0
H1138 H 0.00271 0.79953 0.96709 0.0
C1139 C 0.98339 0.79305 0.0694 0.0
C1140 C 0.96296 0.75774 0.01051 0.0
C1141 C 0.99422 0.7923 0.09515 0.0
C1142 C 0.99108 0.73347 0.90232 0.0
C1143 C 0.98185 0.73987 0.92779 0.0
C1144 C 0.99069 0.78825 0.97854 0.0
C1145 C 0.98375 0.77284 0.05236 0.0
C1146 C 0.97777 0.7747 0.0231 0.0
C1147 C 0.98201 0.76389 0.93651 0.0
C1148 C 0.9774 0.77 0.96574 0.0
H1149 H 0.01439 0.73485 0.0935 0.0
H1150 H 0.99481 0.7359 0.049 0.0
H1151 H 0.00246 0.80373 0.01614 0.0
H1152 H 0.00738 0.78864 0.88001 0.0
H1153 H 0.98961 0.80019 0.92345 0.0
C1154 C 0.69755 0.00284 0.54857 0.0
C1155 C 0.70148 0.9972 0.57606 0.0
C1156 C 0.70497 0.98731 0.52803 0.0
C1157 C 0.75532 0.94993 0.51671 0.0
H1158 H 0.72892 0.9522 0.44364 0.0
C1159 C 0.78206 0.96929 0.39734 0.0
C1160 C 0.79416 0.99051 0.40389 0.0
C1161 C 0.77319 0.95468 0.41818 0.0
C1162 C 0.73659 0.95049 0.46385 0.0
H1163 H 0.71446 0.97009 0.60386 0.0
H1164 H 0.72824 0.94307 0.56768 0.0
H1165 H 0.70236 0.95419 0.48277 0.0
H1166 H 0.80904 0.01173 0.4367 0.0
H1167 H 0.7941 0.98635 0.47284 0.0
H1168 H 0.7897 0.94832 0.49775 0.0
C1169 C 0.71915 0.95942 0.5621 0.0
C1170 C 0.72131 0.95183 0.48631 0.0
C1171 C 0.71128 0.97486 0.58276 0.0
C1172 C 0.7996 0.99552 0.43122 0.0
C1173 C 0.7912 0.98077 0.45191 0.0
C1174 C 0.77059 0.94849 0.49424 0.0
C1175 C 0.71686 0.96594 0.53452 0.0
C1176 C 0.73073 0.95372 0.51282 0.0
C1177 C 0.77674 0.96094 0.44573 0.0
C1178 C 0.76148 0.95096 0.46766 0.0
H1179 H 0.68982 0.01985 0.54287 0.0
H1180 H 0.70318 0.9931 0.50705 0.0
H1181 H 0.76316 0.95108 0.53689 0.0
H1182 H 0.77767 0.96511 0.37633 0.0
H1183 H 0.76216 0.93949 0.41283 0.0
loop_
_geom_bond_atom_site_label_1
_geom_bond_atom_site_label_2
_geom_bond_distance
_geom_bond_site_symmetry_2
_ccdc_geom_bond_type
Zn0 O3 2.031 . S
Zn0 O5 2.049 . S
Zn0 O10 2.067 . S
Zn1 O2 1.962 . S
Zn1 O4 1.986 . S
Zn1 O6 1.996 . S
Zn1 O9 1.943 . S
O2 Zn1 1.962 . S
O2 C7 1.254 . S
O3 Zn0 2.031 . S
O3 C7 1.269 . S
O4 Zn1 1.986 . S
O4 C11 1.262 . S
O5 Zn0 2.049 . S
O5 C13 1.260 . S
O6 Zn1 1.996 . S
O6 C13 1.257 . S
C7 O2 1.254 . S
C7 O3 1.269 . S
C8 O9 1.249 . S
C8 O10 1.270 . S
O9 Zn1 1.943 . S
O9 C8 1.249 . S
O10 Zn0 2.067 . S
O10 C8 1.270 . S
C11 O4 1.262 . S
C11 O12 1.232 . S
O12 C11 1.232 . S
C13 O5 1.260 . S
C13 O6 1.257 . S
Zn14 O17 2.031 . S
Zn14 O19 2.049 . S
Zn14 O24 2.067 . S
Zn15 O16 1.962 . S
Zn15 O18 1.986 . S
Zn15 O20 1.996 . S
Zn15 O23 1.943 . S
O16 Zn15 1.962 . S
O16 C21 1.254 . S
O17 Zn14 2.031 . S
O17 C21 1.269 . S
O18 Zn15 1.986 . S
O18 C25 1.262 . S
O19 Zn14 2.049 . S
O19 C27 1.260 . S
O20 Zn15 1.996 . S
O20 C27 1.257 . S
C21 O16 1.254 . S
C21 O17 1.269 . S
C22 O23 1.249 . S
C22 O24 1.270 . S
O23 Zn15 1.943 . S
O23 C22 1.249 . S
O24 Zn14 2.067 . S
O24 C22 1.270 . S
C25 O18 1.262 . S
C25 O26 1.232 . S
O26 C25 1.232 . S
C27 O19 1.260 . S
C27 O20 1.257 . S
Zn28 O31 2.031 . S
Zn28 O33 2.049 . S
Zn28 O38 2.067 . S
Zn29 O30 1.962 . S
Zn29 O32 1.986 . S
Zn29 O34 1.996 . S
Zn29 O37 1.943 . S
O30 Zn29 1.962 . S
O30 C35 1.254 . S
O31 Zn28 2.031 . S
O31 C35 1.269 . S
O32 Zn29 1.986 . S
O32 C39 1.262 1_655 S
O33 Zn28 2.049 . S
O33 C41 1.260 . S
O34 Zn29 1.996 . S
O34 C41 1.257 . S
C35 O30 1.254 . S
C35 O31 1.269 . S
C36 O37 1.249 . S
C36 O38 1.270 . S
O37 Zn29 1.943 . S
O37 C36 1.249 . S
O38 Zn28 2.067 . S
O38 C36 1.270 . S
C39 O32 1.262 1_455 S
C39 O40 1.232 . S
O40 C39 1.232 . S
C41 O33 1.260 . S
C41 O34 1.257 . S
Zn42 O45 2.031 . S
Zn42 O47 2.049 . S
Zn42 O52 2.067 . S
Zn43 O44 1.962 . S
Zn43 O46 1.986 . S
Zn43 O48 1.996 . S
Zn43 O51 1.943 . S
O44 Zn43 1.962 . S
O44 C49 1.254 . S
O45 Zn42 2.031 . S
O45 C49 1.269 . S
O46 Zn43 1.986 . S
O46 C53 1.262 1_565 S
O47 Zn42 2.049 . S
O47 C55 1.260 . S
O48 Zn43 1.996 . S
O48 C55 1.257 . S
C49 O44 1.254 . S
C49 O45 1.269 . S
C50 O51 1.249 . S
C50 O52 1.270 . S
O51 Zn43 1.943 . S
O51 C50 1.249 . S
O52 Zn42 2.067 . S
O52 C50 1.270 . S
C53 O46 1.262 1_545 S
C53 O54 1.232 . S
O54 C53 1.232 . S
C55 O47 1.260 . S
C55 O48 1.257 . S
Zn56 O59 2.031 . S
Zn56 O61 2.049 . S
Zn56 O66 2.067 . S
Zn57 O58 1.962 . S
Zn57 O60 1.986 . S
Zn57 O62 1.996 . S
Zn57 O65 1.943 . S
O58 Zn57 1.962 . S
O58 C63 1.254 . S
O59 Zn56 2.031 . S
O59 C63 1.269 . S
O60 Zn57 1.986 . S
O60 C67 1.262 . S
O61 Zn56 2.049 . S
O61 C69 1.260 . S
O62 Zn57 1.996 . S
O62 C69 1.257 . S
C63 O58 1.254 . S
C63 O59 1.269 . S
C64 O65 1.249 . S
C64 O66 1.270 . S
O65 Zn57 1.943 . S
O65 C64 1.249 . S
O66 Zn56 2.067 . S
O66 C64 1.270 . S
C67 O60 1.262 . S
C67 O68 1.232 . S
O68 C67 1.232 . S
C69 O61 1.260 . S
C69 O62 1.257 . S
Zn70 O73 2.031 . S
Zn70 O75 2.049 . S
Zn70 O80 2.067 . S
Zn71 O72 1.962 . S
Zn71 O74 1.986 . S
Zn71 O76 1.996 . S
Zn71 O79 1.943 . S
O72 Zn71 1.962 . S
O72 C77 1.254 . S
O73 Zn70 2.031 . S
O73 C77 1.269 . S
O74 Zn71 1.986 . S
O74 C81 1.262 . S
O75 Zn70 2.049 . S
O75 C83 1.260 . S
O76 Zn71 1.996 . S
O76 C83 1.257 . S
C77 O72 1.254 . S
C77 O73 1.269 . S
C78 O79 1.249 . S
C78 O80 1.270 . S
O79 Zn71 1.943 . S
O79 C78 1.249 . S
O80 Zn70 2.067 . S
O80 C78 1.270 . S
C81 O74 1.262 . S
C81 O82 1.232 . S
O82 C81 1.232 . S
C83 O75 1.260 . S
C83 O76 1.257 . S
Zn84 O87 2.031 . S
Zn84 O89 2.049 . S
Zn84 O94 2.067 . S
Zn85 O86 1.962 . S
Zn85 O88 1.986 . S
Zn85 O90 1.996 . S
Zn85 O93 1.943 . S
O86 Zn85 1.962 . S
O86 C91 1.254 . S
O87 Zn84 2.031 . S
O87 C91 1.269 . S
O88 Zn85 1.986 . S
O88 C95 1.262 1_655 S
O89 Zn84 2.049 . S
O89 C97 1.260 . S
O90 Zn85 1.996 . S
O90 C97 1.257 . S
C91 O86 1.254 . S
C91 O87 1.269 . S
C92 O93 1.249 . S
C92 O94 1.270 . S
O93 Zn85 1.943 . S
O93 C92 1.249 . S
O94 Zn84 2.067 . S
O94 C92 1.270 . S
C95 O88 1.262 1_455 S
C95 O96 1.232 . S
O96 C95 1.232 . S
C97 O89 1.260 . S
C97 O90 1.257 . S
Zn98 O101 2.031 . S
Zn98 O103 2.049 . S
Zn98 O108 2.067 . S
Zn99 O100 1.962 . S
Zn99 O102 1.986 . S
Zn99 O104 1.996 . S
Zn99 O107 1.943 . S
O100 Zn99 1.962 . S
O100 C105 1.254 . S
O101 Zn98 2.031 . S
O101 C105 1.269 . S
O102 Zn99 1.986 . S
O102 C109 1.262 1_565 S
O103 Zn98 2.049 . S
O103 C111 1.260 . S
O104 Zn99 1.996 . S
O104 C111 1.257 . S
C105 O100 1.254 . S
C105 O101 1.269 . S
C106 O107 1.249 . S
C106 O108 1.270 . S
O107 Zn99 1.943 . S
O107 C106 1.249 . S
O108 Zn98 2.067 . S
O108 C106 1.270 . S
C109 O102 1.262 1_545 S
C109 O110 1.232 . S
O110 C109 1.232 . S
C111 O103 1.260 . S
C111 O104 1.257 . S
Zn112 O115 2.031 . S
Zn112 O117 2.049 . S
Zn112 O122 2.067 . S
Zn113 O114 1.962 . S
Zn113 O116 1.986 . S
Zn113 O118 1.996 . S
Zn113 O121 1.943 . S
O114 Zn113 1.962 . S
O114 C119 1.254 . S
O115 Zn112 2.031 . S
O115 C119 1.269 . S
O116 Zn113 1.986 . S
O116 C123 1.262 . S
O117 Zn112 2.049 . S
O117 C125 1.260 . S
O118 Zn113 1.996 . S
O118 C125 1.257 . S
C119 O114 1.254 . S
C119 O115 1.269 . S
C120 O121 1.249 . S
C120 O122 1.270 . S
O121 Zn113 1.943 . S
O121 C120 1.249 . S
O122 Zn112 2.067 . S
O122 C120 1.270 . S
C123 O116 1.262 . S
C123 O124 1.232 . S
O124 C123 1.232 . S
C125 O117 1.260 . S
C125 O118 1.257 . S
Zn126 O129 2.031 . S
Zn126 O131 2.049 . S
Zn126 O136 2.067 . S
Zn127 O128 1.962 . S
Zn127 O130 1.986 . S
Zn127 O132 1.996 . S
Zn127 O135 1.943 . S
O128 Zn127 1.962 . S
O128 C133 1.254 . S
O129 Zn126 2.031 . S
O129 C133 1.269 . S
O130 Zn127 1.986 . S
O130 C137 1.262 . S
O131 Zn126 2.049 . S
O131 C139 1.260 . S
O132 Zn127 1.996 . S
O132 C139 1.257 . S
C133 O128 1.254 . S
C133 O129 1.269 . S
C134 O135 1.249 . S
C134 O136 1.270 . S
O135 Zn127 1.943 . S
O135 C134 1.249 . S
O136 Zn126 2.067 . S
O136 C134 1.270 . S
C137 O130 1.262 . S
C137 O138 1.232 . S
O138 C137 1.232 . S
C139 O131 1.260 . S
C139 O132 1.257 . S
Zn140 O143 2.031 . S
Zn140 O145 2.049 . S
Zn140 O150 2.067 . S
Zn141 O142 1.962 . S
Zn141 O144 1.986 . S
Zn141 O146 1.996 . S
Zn141 O149 1.943 . S
O142 Zn141 1.962 . S
O142 C147 1.254 . S
O143 Zn140 2.031 . S
O143 C147 1.269 . S
O144 Zn141 1.986 . S
O144 C151 1.262 1_455 S
O145 Zn140 2.049 . S
O145 C153 1.260 . S
O146 Zn141 1.996 . S
O146 C153 1.257 . S
C147 O142 1.254 . S
C147 O143 1.269 . S
C148 O149 1.249 . S
C148 O150 1.270 . S
O149 Zn141 1.943 . S
O149 C148 1.249 . S
O150 Zn140 2.067 . S
O150 C148 1.270 . S
C151 O144 1.262 1_655 S
C151 O152 1.232 . S
O152 C151 1.232 . S
C153 O145 1.260 . S
C153 O146 1.257 . S
Zn154 O157 2.031 . S
Zn154 O159 2.049 . S
Zn154 O164 2.067 . S
Zn155 O156 1.962 . S
Zn155 O158 1.986 . S
Zn155 O160 1.996 . S
Zn155 O163 1.943 . S
O156 Zn155 1.962 . S
O156 C161 1.254 . S
O157 Zn154 2.031 . S
O157 C161 1.269 . S
O158 Zn155 1.986 . S
O158 C165 1.262 1_545 S
O159 Zn154 2.049 . S
O159 C167 1.260 . S
O160 Zn155 1.996 . S
O160 C167 1.257 . S
C161 O156 1.254 . S
C161 O157 1.269 . S
C162 O163 1.249 . S
C162 O164 1.270 . S
O163 Zn155 1.943 . S
O163 C162 1.249 . S
O164 Zn154 2.067 . S
O164 C162 1.270 . S
C165 O158 1.262 1_565 S
C165 O166 1.232 . S
O166 C165 1.232 . S
C167 O159 1.260 . S
C167 O160 1.257 . S
Zn168 O171 2.031 . S
Zn168 O173 2.049 . S
Zn168 O178 2.067 . S
Zn169 O170 1.962 . S
Zn169 O172 1.986 . S
Zn169 O174 1.996 . S
Zn169 O177 1.943 . S
O170 Zn169 1.962 . S
O170 C175 1.254 . S
O171 Zn168 2.031 . S
O171 C175 1.269 . S
O172 Zn169 1.986 . S
O172 C179 1.262 . S
O173 Zn168 2.049 . S
O173 C181 1.260 . S
O174 Zn169 1.996 . S
O174 C181 1.257 . S
C175 O170 1.254 . S
C175 O171 1.269 . S
C176 O177 1.249 . S
C176 O178 1.270 . S
O177 Zn169 1.943 . S
O177 C176 1.249 . S
O178 Zn168 2.067 . S
O178 C176 1.270 . S
C179 O172 1.262 . S
C179 O180 1.232 . S
O180 C179 1.232 . S
C181 O173 1.260 . S
C181 O174 1.257 . S
Zn182 O185 2.031 . S
Zn182 O187 2.049 . S
Zn182 O192 2.067 . S
Zn183 O184 1.962 . S
Zn183 O186 1.986 . S
Zn183 O188 1.996 . S
Zn183 O191 1.943 . S
O184 Zn183 1.962 . S
O184 C189 1.254 . S
O185 Zn182 2.031 . S
O185 C189 1.269 . S
O186 Zn183 1.986 . S
O186 C193 1.262 . S
O187 Zn182 2.049 . S
O187 C195 1.260 . S
O188 Zn183 1.996 . S
O188 C195 1.257 . S
C189 O184 1.254 . S
C189 O185 1.269 . S
C190 O191 1.249 . S
C190 O192 1.270 . S
O191 Zn183 1.943 . S
O191 C190 1.249 . S
O192 Zn182 2.067 . S
O192 C190 1.270 . S
C193 O186 1.262 . S
C193 O194 1.232 . S
O194 C193 1.232 . S
C195 O187 1.260 . S
C195 O188 1.257 . S
Zn196 O199 2.031 . S
Zn196 O201 2.049 . S
Zn196 O206 2.067 . S
Zn197 O198 1.962 . S
Zn197 O200 1.986 . S
Zn197 O202 1.996 . S
Zn197 O205 1.943 . S
O198 Zn197 1.962 . S
O198 C203 1.254 . S
O199 Zn196 2.031 . S
O199 C203 1.269 . S
O200 Zn197 1.986 . S
O200 C207 1.262 1_455 S
O201 Zn196 2.049 . S
O201 C209 1.260 . S
O202 Zn197 1.996 . S
O202 C209 1.257 . S
C203 O198 1.254 . S
C203 O199 1.269 . S
C204 O205 1.249 . S
C204 O206 1.270 . S
O205 Zn197 1.943 . S
O205 C204 1.249 . S
O206 Zn196 2.067 . S
O206 C204 1.270 . S
C207 O200 1.262 1_655 S
C207 O208 1.232 . S
O208 C207 1.232 . S
C209 O201 1.260 . S
C209 O202 1.257 . S
Zn210 O213 2.031 . S
Zn210 O215 2.049 . S
Zn210 O220 2.067 . S
Zn211 O212 1.962 . S
Zn211 O214 1.986 . S
Zn211 O216 1.996 . S
Zn211 O219 1.943 . S
O212 Zn211 1.962 . S
O212 C217 1.254 . S
O213 Zn210 2.031 . S
O213 C217 1.269 . S
O214 Zn211 1.986 . S
O214 C221 1.262 1_545 S
O215 Zn210 2.049 . S
O215 C223 1.260 . S
O216 Zn211 1.996 . S
O216 C223 1.257 . S
C217 O212 1.254 . S
C217 O213 1.269 . S
C218 O219 1.249 . S
C218 O220 1.270 . S
O219 Zn211 1.943 . S
O219 C218 1.249 . S
O220 Zn210 2.067 . S
O220 C218 1.270 . S
C221 O214 1.262 1_565 S
C221 O222 1.232 . S
O222 C221 1.232 . S
C223 O215 1.260 . S
C223 O216 1.257 . S
C224 C225 1.349 . S
C224 C226 1.327 . S
C224 H249 0.950 . S
C225 C224 1.349 . S
C225 C241 1.349 . S
C226 C224 1.327 . S
C226 C245 1.429 . S
C226 H250 0.950 . S
C227 C244 1.574 . S
C227 C246 1.368 . S
C227 H251 0.949 . S
H228 C232 0.949 . S
C229 C230 1.349 . S
C229 C231 1.327 . S
C229 H252 0.950 . S
C230 C229 1.349 . S
C230 C242 1.349 . S
C231 C229 1.327 . S
C231 C247 1.429 . S
C231 H253 0.950 . S
C232 H228 0.949 . S
C232 C240 1.574 . S
C232 C248 1.368 . S
H233 C241 0.950 . S
H234 C239 0.950 . S
H235 C240 0.949 . S
H236 C242 0.950 . S
H237 C243 0.950 . S
H238 C244 0.949 . S
C239 H234 0.950 . S
C239 C241 1.327 . S
C239 C245 1.429 . S
C240 C232 1.574 . S
C240 H235 0.949 . S
C240 C246 1.368 . S
C241 C225 1.349 . S
C241 H233 0.950 . S
C241 C239 1.327 . S
C242 C230 1.349 . S
C242 H236 0.950 . S
C242 C243 1.327 . S
C243 H237 0.950 . S
C243 C242 1.327 . S
C243 C247 1.429 . S
C244 C227 1.574 . S
C244 H238 0.949 . S
C244 C248 1.368 . S
C245 C226 1.429 . S
C245 C239 1.429 . S
C245 C246 1.523 . S
C246 C227 1.368 . S
C246 C240 1.368 . S
C246 C245 1.523 . S
C247 C231 1.429 . S
C247 C243 1.429 . S
C247 C248 1.523 . S
C248 C232 1.368 . S
C248 C244 1.368 . S
C248 C247 1.523 . S
H249 C224 0.950 . S
H250 C226 0.950 . S
H251 C227 0.949 . S
H252 C229 0.950 . S
H253 C231 0.950 . S
C254 C255 1.349 . S
C254 C256 1.327 . S
C254 H279 0.950 . S
C255 C254 1.349 . S
C255 C271 1.349 . S
C256 C254 1.327 . S
C256 C275 1.429 . S
C256 H280 0.950 . S
C257 C274 1.574 . S
C257 C276 1.368 . S
C257 H281 0.949 . S
H258 C262 0.949 . S
C259 C260 1.349 . S
C259 C261 1.327 . S
C259 H282 0.950 . S
C260 C259 1.349 . S
C260 C272 1.349 . S
C261 C259 1.327 . S
C261 C277 1.429 . S
C261 H283 0.950 . S
C262 H258 0.949 . S
C262 C270 1.574 . S
C262 C278 1.368 . S
H263 C271 0.950 . S
H264 C269 0.950 . S
H265 C270 0.949 . S
H266 C272 0.950 . S
H267 C273 0.950 . S
H268 C274 0.949 . S
C269 H264 0.950 . S
C269 C271 1.327 . S
C269 C275 1.429 . S
C270 C262 1.574 . S
C270 H265 0.949 . S
C270 C276 1.368 . S
C271 C255 1.349 . S
C271 H263 0.950 . S
C271 C269 1.327 . S
C272 C260 1.349 . S
C272 H266 0.950 . S
C272 C273 1.327 . S
C273 H267 0.950 . S
C273 C272 1.327 . S
C273 C277 1.429 . S
C274 C257 1.574 . S
C274 H268 0.949 . S
C274 C278 1.368 . S
C275 C256 1.429 . S
C275 C269 1.429 . S
C275 C276 1.523 . S
C276 C257 1.368 . S
C276 C270 1.368 . S
C276 C275 1.523 . S
C277 C261 1.429 . S
C277 C273 1.429 . S
C277 C278 1.523 . S
C278 C262 1.368 . S
C278 C274 1.368 . S
C278 C277 1.523 . S
H279 C254 0.950 . S
H280 C256 0.950 . S
H281 C257 0.949 . S
H282 C259 0.950 . S
H283 C261 0.950 . S
C284 C285 1.349 . S
C284 C286 1.327 . S
C284 H309 0.950 . S
C285 C284 1.349 . S
C285 C301 1.349 . S
C286 C284 1.327 . S
C286 C305 1.429 . S
C286 H310 0.950 . S
C287 C304 1.574 . S
C287 C306 1.368 . S
C287 H311 0.949 . S
H288 C292 0.949 . S
C289 C290 1.349 . S
C289 C291 1.327 . S
C289 H312 0.950 . S
C290 C289 1.349 . S
C290 C302 1.349 . S
C291 C289 1.327 . S
C291 C307 1.429 . S
C291 H313 0.950 . S
C292 H288 0.949 . S
C292 C300 1.574 . S
C292 C308 1.368 . S
H293 C301 0.950 1_655 S
H294 C299 0.950 . S
H295 C300 0.949 . S
H296 C302 0.950 . S
H297 C303 0.950 . S
H298 C304 0.949 . S
C299 H294 0.950 . S
C299 C301 1.327 . S
C299 C305 1.429 . S
C300 C292 1.574 . S
C300 H295 0.949 . S
C300 C306 1.368 . S
C301 C285 1.349 . S
C301 H293 0.950 1_455 S
C301 C299 1.327 . S
C302 C290 1.349 . S
C302 H296 0.950 . S
C302 C303 1.327 . S
C303 H297 0.950 . S
C303 C302 1.327 . S
C303 C307 1.429 . S
C304 C287 1.574 . S
C304 H298 0.949 . S
C304 C308 1.368 . S
C305 C286 1.429 . S
C305 C299 1.429 . S
C305 C306 1.523 . S
C306 C287 1.368 . S
C306 C300 1.368 . S
C306 C305 1.523 . S
C307 C291 1.429 . S
C307 C303 1.429 . S
C307 C308 1.523 . S
C308 C292 1.368 . S
C308 C304 1.368 . S
C308 C307 1.523 . S
H309 C284 0.950 . S
H310 C286 0.950 . S
H311 C287 0.949 . S
H312 C289 0.950 . S
H313 C291 0.950 . S
C314 C315 1.349 . S
C314 C316 1.327 . S
C314 H339 0.950 . S
C315 C314 1.349 . S
C315 C331 1.349 . S
C316 C314 1.327 . S
C316 C335 1.429 . S
C316 H340 0.950 . S
C317 C334 1.574 . S
C317 C336 1.368 . S
C317 H341 0.949 . S
H318 C322 0.949 . S
C319 C320 1.349 . S
C319 C321 1.327 . S
C319 H342 0.950 . S
C320 C319 1.349 . S
C320 C332 1.349 . S
C321 C319 1.327 . S
C321 C337 1.429 . S
C321 H343 0.950 . S
C322 H318 0.949 . S
C322 C330 1.574 . S
C322 C338 1.368 . S
H323 C331 0.950 . S
H324 C329 0.950 . S
H325 C330 0.949 . S
H326 C332 0.950 . S
H327 C333 0.950 . S
H328 C334 0.949 . S
C329 H324 0.950 . S
C329 C331 1.327 . S
C329 C335 1.429 . S
C330 C322 1.574 . S
C330 H325 0.949 . S
C330 C336 1.368 . S
C331 C315 1.349 . S
C331 H323 0.950 . S
C331 C329 1.327 . S
C332 C320 1.349 . S
C332 H326 0.950 . S
C332 C333 1.327 . S
C333 H327 0.950 . S
C333 C332 1.327 . S
C333 C337 1.429 . S
C334 C317 1.574 . S
C334 H328 0.949 . S
C334 C338 1.368 . S
C335 C316 1.429 . S
C335 C329 1.429 . S
C335 C336 1.523 . S
C336 C317 1.368 . S
C336 C330 1.368 . S
C336 C335 1.523 . S
C337 C321 1.429 . S
C337 C333 1.429 . S
C337 C338 1.523 . S
C338 C322 1.368 . S
C338 C334 1.368 . S
C338 C337 1.523 . S
H339 C314 0.950 . S
H340 C316 0.950 . S
H341 C317 0.949 . S
H342 C319 0.950 . S
H343 C321 0.950 . S
C344 C345 1.349 . S
C344 C346 1.327 . S
C344 H369 0.950 . S
C345 C344 1.349 . S
C345 C361 1.349 . S
C346 C344 1.327 . S
C346 C365 1.429 . S
C346 H370 0.950 . S
C347 C364 1.574 . S
C347 C366 1.368 . S
C347 H371 0.949 . S
H348 C352 0.949 . S
C349 C350 1.349 . S
C349 C351 1.327 . S
C349 H372 0.950 . S
C350 C349 1.349 . S
C350 C362 1.349 . S
C351 C349 1.327 . S
C351 C367 1.429 . S
C351 H373 0.950 . S
C352 H348 0.949 . S
C352 C360 1.574 . S
C352 C368 1.368 . S
H353 C361 0.950 . S
H354 C359 0.950 . S
H355 C360 0.949 . S
H356 C362 0.950 . S
H357 C363 0.950 . S
H358 C364 0.949 . S
C359 H354 0.950 . S
C359 C361 1.327 . S
C359 C365 1.429 . S
C360 C352 1.574 . S
C360 H355 0.949 . S
C360 C366 1.368 . S
C361 C345 1.349 . S
C361 H353 0.950 . S
C361 C359 1.327 . S
C362 C350 1.349 . S
C362 H356 0.950 . S
C362 C363 1.327 . S
C363 H357 0.950 . S
C363 C362 1.327 . S
C363 C367 1.429 . S
C364 C347 1.574 . S
C364 H358 0.949 . S
C364 C368 1.368 . S
C365 C346 1.429 . S
C365 C359 1.429 . S
C365 C366 1.523 . S
C366 C347 1.368 . S
C366 C360 1.368 . S
C366 C365 1.523 . S
C367 C351 1.429 . S
C367 C363 1.429 . S
C367 C368 1.523 . S
C368 C352 1.368 . S
C368 C364 1.368 . S
C368 C367 1.523 . S
H369 C344 0.950 . S
H370 C346 0.950 . S
H371 C347 0.949 . S
H372 C349 0.950 . S
H373 C351 0.950 . S
C374 C375 1.349 . S
C374 C376 1.327 . S
C374 H399 0.950 . S
C375 C374 1.349 . S
C375 C391 1.349 . S
C376 C374 1.327 . S
C376 C395 1.429 . S
C376 H400 0.950 . S
C377 C394 1.574 . S
C377 C396 1.368 . S
C377 H401 0.949 . S
H378 C382 0.949 . S
C379 C380 1.349 . S
C379 C381 1.327 . S
C379 H402 0.950 . S
C380 C379 1.349 . S
C380 C392 1.349 . S
C381 C379 1.327 . S
C381 C397 1.429 . S
C381 H403 0.950 . S
C382 H378 0.949 . S
C382 C390 1.574 . S
C382 C398 1.368 . S
H383 C391 0.950 . S
H384 C389 0.950 . S
H385 C390 0.949 . S
H386 C392 0.950 . S
H387 C393 0.950 . S
H388 C394 0.949 . S
C389 H384 0.950 . S
C389 C391 1.327 . S
C389 C395 1.429 . S
C390 C382 1.574 . S
C390 H385 0.949 . S
C390 C396 1.368 . S
C391 C375 1.349 . S
C391 H383 0.950 . S
C391 C389 1.327 . S
C392 C380 1.349 . S
C392 H386 0.950 . S
C392 C393 1.327 . S
C393 H387 0.950 . S
C393 C392 1.327 . S
C393 C397 1.429 . S
C394 C377 1.574 . S
C394 H388 0.949 . S
C394 C398 1.368 . S
C395 C376 1.429 . S
C395 C389 1.429 . S
C395 C396 1.523 . S
C396 C377 1.368 . S
C396 C390 1.368 . S
C396 C395 1.523 . S
C397 C381 1.429 . S
C397 C393 1.429 . S
C397 C398 1.523 . S
C398 C382 1.368 . S
C398 C394 1.368 . S
C398 C397 1.523 . S
H399 C374 0.950 . S
H400 C376 0.950 . S
H401 C377 0.949 . S
H402 C379 0.950 . S
H403 C381 0.950 . S
C404 C405 1.349 . S
C404 C406 1.327 . S
C404 H429 0.950 . S
C405 C404 1.349 . S
C405 C421 1.349 . S
C406 C404 1.327 . S
C406 C425 1.429 . S
C406 H430 0.950 . S
C407 C424 1.574 . S
C407 C426 1.368 . S
C407 H431 0.949 . S
H408 C412 0.949 . S
C409 C410 1.349 . S
C409 C411 1.327 . S
C409 H432 0.950 . S
C410 C409 1.349 . S
C410 C422 1.349 . S
C411 C409 1.327 . S
C411 C427 1.429 . S
C411 H433 0.950 . S
C412 H408 0.949 . S
C412 C420 1.574 . S
C412 C428 1.368 . S
H413 C421 0.950 . S
H414 C419 0.950 . S
H415 C420 0.949 . S
H416 C422 0.950 . S
H417 C423 0.950 . S
H418 C424 0.949 . S
C419 H414 0.950 . S
C419 C421 1.327 . S
C419 C425 1.429 . S
C420 C412 1.574 . S
C420 H415 0.949 . S
C420 C426 1.368 . S
C421 C405 1.349 . S
C421 H413 0.950 . S
C421 C419 1.327 . S
C422 C410 1.349 . S
C422 H416 0.950 . S
C422 C423 1.327 . S
C423 H417 0.950 . S
C423 C422 1.327 . S
C423 C427 1.429 . S
C424 C407 1.574 . S
C424 H418 0.949 . S
C424 C428 1.368 . S
C425 C406 1.429 . S
C425 C419 1.429 . S
C425 C426 1.523 . S
C426 C407 1.368 . S
C426 C420 1.368 . S
C426 C425 1.523 . S
C427 C411 1.429 . S
C427 C423 1.429 . S
C427 C428 1.523 . S
C428 C412 1.368 . S
C428 C424 1.368 . S
C428 C427 1.523 . S
H429 C404 0.950 . S
H430 C406 0.950 . S
H431 C407 0.949 . S
H432 C409 0.950 . S
H433 C411 0.950 . S
C434 C435 1.349 . S
C434 C436 1.327 . S
C434 H459 0.950 . S
C435 C434 1.349 . S
C435 C451 1.349 . S
C436 C434 1.327 . S
C436 C455 1.429 . S
C436 H460 0.950 . S
C437 C454 1.574 . S
C437 C456 1.368 . S
C437 H461 0.949 . S
H438 C442 0.949 . S
C439 C440 1.349 . S
C439 C441 1.327 . S
C439 H462 0.950 . S
C440 C439 1.349 . S
C440 C452 1.349 . S
C441 C439 1.327 . S
C441 C457 1.429 . S
C441 H463 0.950 . S
C442 H438 0.949 . S
C442 C450 1.574 . S
C442 C458 1.368 . S
H443 C451 0.950 . S
H444 C449 0.950 . S
H445 C450 0.949 . S
H446 C452 0.950 . S
H447 C453 0.950 . S
H448 C454 0.949 . S
C449 H444 0.950 . S
C449 C451 1.327 . S
C449 C455 1.429 . S
C450 C442 1.574 . S
C450 H445 0.949 . S
C450 C456 1.368 . S
C451 C435 1.349 . S
C451 H443 0.950 . S
C451 C449 1.327 . S
C452 C440 1.349 . S
C452 H446 0.950 . S
C452 C453 1.327 . S
C453 H447 0.950 . S
C453 C452 1.327 . S
C453 C457 1.429 . S
C454 C437 1.574 . S
C454 H448 0.949 . S
C454 C458 1.368 . S
C455 C436 1.429 . S
C455 C449 1.429 . S
C455 C456 1.523 . S
C456 C437 1.368 . S
C456 C450 1.368 . S
C456 C455 1.523 . S
C457 C441 1.429 . S
C457 C453 1.429 . S
C457 C458 1.523 . S
C458 C442 1.368 . S
C458 C454 1.368 . S
C458 C457 1.523 . S
H459 C434 0.950 . S
H460 C436 0.950 . S
H461 C437 0.949 . S
H462 C439 0.950 . S
H463 C441 0.950 . S
C464 C465 1.349 . S
C464 C466 1.327 . S
C464 H489 0.950 . S
C465 C464 1.349 . S
C465 C481 1.349 . S
C466 C464 1.327 . S
C466 C485 1.429 . S
C466 H490 0.950 . S
C467 C484 1.574 . S
C467 C486 1.368 . S
C467 H491 0.949 . S
H468 C472 0.949 . S
C469 C470 1.349 . S
C469 C471 1.327 . S
C469 H492 0.950 . S
C470 C469 1.349 . S
C470 C482 1.349 . S
C471 C469 1.327 . S
C471 C487 1.429 . S
C471 H493 0.950 . S
C472 H468 0.949 . S
C472 C480 1.574 . S
C472 C488 1.368 . S
H473 C481 0.950 . S
H474 C479 0.950 . S
H475 C480 0.949 . S
H476 C482 0.950 . S
H477 C483 0.950 . S
H478 C484 0.949 . S
C479 H474 0.950 . S
C479 C481 1.327 . S
C479 C485 1.429 . S
C480 C472 1.574 . S
C480 H475 0.949 . S
C480 C486 1.368 . S
C481 C465 1.349 . S
C481 H473 0.950 . S
C481 C479 1.327 . S
C482 C470 1.349 . S
C482 H476 0.950 . S
C482 C483 1.327 . S
C483 H477 0.950 . S
C483 C482 1.327 . S
C483 C487 1.429 . S
C484 C467 1.574 . S
C484 H478 0.949 . S
C484 C488 1.368 . S
C485 C466 1.429 . S
C485 C479 1.429 . S
C485 C486 1.523 . S
C486 C467 1.368 . S
C486 C480 1.368 . S
C486 C485 1.523 . S
C487 C471 1.429 . S
C487 C483 1.429 . S
C487 C488 1.523 . S
C488 C472 1.368 . S
C488 C484 1.368 . S
C488 C487 1.523 . S
H489 C464 0.950 . S
H490 C466 0.950 . S
H491 C467 0.949 . S
H492 C469 0.950 . S
H493 C471 0.950 . S
C494 C495 1.349 . S
C494 C496 1.327 . S
C494 H519 0.950 . S
C495 C494 1.349 . S
C495 C511 1.349 . S
C496 C494 1.327 . S
C496 C515 1.429 . S
C496 H520 0.950 . S
C497 C514 1.574 . S
C497 C516 1.368 . S
C497 H521 0.949 . S
H498 C502 0.949 . S
C499 C500 1.349 . S
C499 C501 1.327 . S
C499 H522 0.950 . S
C500 C499 1.349 . S
C500 C512 1.349 . S
C501 C499 1.327 . S
C501 C517 1.429 . S
C501 H523 0.950 . S
C502 H498 0.949 . S
C502 C510 1.574 . S
C502 C518 1.368 . S
H503 C511 0.950 . S
H504 C509 0.950 . S
H505 C510 0.949 . S
H506 C512 0.950 . S
H507 C513 0.950 . S
H508 C514 0.949 . S
C509 H504 0.950 . S
C509 C511 1.327 . S
C509 C515 1.429 . S
C510 C502 1.574 . S
C510 H505 0.949 . S
C510 C516 1.368 . S
C511 C495 1.349 . S
C511 H503 0.950 . S
C511 C509 1.327 . S
C512 C500 1.349 . S
C512 H506 0.950 . S
C512 C513 1.327 . S
C513 H507 0.950 . S
C513 C512 1.327 . S
C513 C517 1.429 . S
C514 C497 1.574 . S
C514 H508 0.949 . S
C514 C518 1.368 . S
C515 C496 1.429 . S
C515 C509 1.429 . S
C515 C516 1.523 . S
C516 C497 1.368 . S
C516 C510 1.368 . S
C516 C515 1.523 . S
C517 C501 1.429 . S
C517 C513 1.429 . S
C517 C518 1.523 . S
C518 C502 1.368 . S
C518 C514 1.368 . S
C518 C517 1.523 . S
H519 C494 0.950 . S
H520 C496 0.950 . S
H521 C497 0.949 . S
H522 C499 0.950 . S
H523 C501 0.950 . S
C524 C525 1.349 . S
C524 C526 1.327 . S
C524 H549 0.950 . S
C525 C524 1.349 . S
C525 C541 1.349 . S
C526 C524 1.327 . S
C526 C545 1.429 . S
C526 H550 0.950 . S
C527 C544 1.574 . S
C527 C546 1.368 . S
C527 H551 0.949 . S
H528 C532 0.949 . S
C529 C530 1.349 . S
C529 C531 1.327 . S
C529 H552 0.950 . S
C530 C529 1.349 . S
C530 C542 1.349 . S
C531 C529 1.327 . S
C531 C547 1.429 . S
C531 H553 0.950 . S
C532 H528 0.949 . S
C532 C540 1.574 . S
C532 C548 1.368 . S
H533 C541 0.950 . S
H534 C539 0.950 . S
H535 C540 0.949 . S
H536 C542 0.950 . S
H537 C543 0.950 . S
H538 C544 0.949 . S
C539 H534 0.950 . S
C539 C541 1.327 . S
C539 C545 1.429 . S
C540 C532 1.574 . S
C540 H535 0.949 . S
C540 C546 1.368 . S
C541 C525 1.349 . S
C541 H533 0.950 . S
C541 C539 1.327 . S
C542 C530 1.349 . S
C542 H536 0.950 . S
C542 C543 1.327 . S
C543 H537 0.950 . S
C543 C542 1.327 . S
C543 C547 1.429 . S
C544 C527 1.574 . S
C544 H538 0.949 . S
C544 C548 1.368 . S
C545 C526 1.429 . S
C545 C539 1.429 . S
C545 C546 1.523 . S
C546 C527 1.368 . S
C546 C540 1.368 . S
C546 C545 1.523 . S
C547 C531 1.429 . S
C547 C543 1.429 . S
C547 C548 1.523 . S
C548 C532 1.368 . S
C548 C544 1.368 . S
C548 C547 1.523 . S
H549 C524 0.950 . S
H550 C526 0.950 . S
H551 C527 0.949 . S
H552 C529 0.950 . S
H553 C531 0.950 . S
C554 C555 1.349 . S
C554 C556 1.327 . S
C554 H579 0.950 . S
C555 C554 1.349 . S
C555 C571 1.349 . S
C556 C554 1.327 . S
C556 C575 1.429 . S
C556 H580 0.950 . S
C557 C574 1.574 . S
C557 C576 1.368 . S
C557 H581 0.949 . S
H558 C562 0.949 . S
C559 C560 1.349 . S
C559 C561 1.327 . S
C559 H582 0.950 . S
C560 C559 1.349 . S
C560 C572 1.349 . S
C561 C559 1.327 . S
C561 C577 1.429 . S
C561 H583 0.950 . S
C562 H558 0.949 . S
C562 C570 1.574 . S
C562 C578 1.368 . S
H563 C571 0.950 . S
H564 C569 0.950 . S
H565 C570 0.949 . S
H566 C572 0.950 . S
H567 C573 0.950 . S
H568 C574 0.949 . S
C569 H564 0.950 . S
C569 C571 1.327 . S
C569 C575 1.429 . S
C570 C562 1.574 . S
C570 H565 0.949 . S
C570 C576 1.368 . S
C571 C555 1.349 . S
C571 H563 0.950 . S
C571 C569 1.327 . S
C572 C560 1.349 . S
C572 H566 0.950 . S
C572 C573 1.327 . S
C573 H567 0.950 . S
C573 C572 1.327 . S
C573 C577 1.429 . S
C574 C557 1.574 . S
C574 H568 0.949 . S
C574 C578 1.368 . S
C575 C556 1.429 . S
C575 C569 1.429 . S
C575 C576 1.523 . S
C576 C557 1.368 . S
C576 C570 1.368 . S
C576 C575 1.523 . S
C577 C561 1.429 . S
C577 C573 1.429 . S
C577 C578 1.523 . S
C578 C562 1.368 . S
C578 C574 1.368 . S
C578 C577 1.523 . S
H579 C554 0.950 . S
H580 C556 0.950 . S
H581 C557 0.949 . S
H582 C559 0.950 . S
H583 C561 0.950 . S
C584 C585 1.349 . S
C584 C586 1.327 . S
C584 H609 0.950 . S
C585 C584 1.349 . S
C585 C601 1.349 . S
C586 C584 1.327 . S
C586 C605 1.429 . S
C586 H610 0.950 . S
C587 C604 1.574 . S
C587 C606 1.368 . S
C587 H611 0.949 . S
H588 C592 0.949 . S
C589 C590 1.349 . S
C589 C591 1.327 . S
C589 H612 0.950 . S
C590 C589 1.349 . S
C590 C602 1.349 . S
C591 C589 1.327 . S
C591 C607 1.429 . S
C591 H613 0.950 . S
C592 H588 0.949 . S
C592 C600 1.574 . S
C592 C608 1.368 . S
H593 C601 0.950 . S
H594 C599 0.950 . S
H595 C600 0.949 . S
H596 C602 0.950 . S
H597 C603 0.950 . S
H598 C604 0.949 . S
C599 H594 0.950 . S
C599 C601 1.327 . S
C599 C605 1.429 . S
C600 C592 1.574 . S
C600 H595 0.949 . S
C600 C606 1.368 . S
C601 C585 1.349 . S
C601 H593 0.950 . S
C601 C599 1.327 . S
C602 C590 1.349 . S
C602 H596 0.950 . S
C602 C603 1.327 . S
C603 H597 0.950 . S
C603 C602 1.327 . S
C603 C607 1.429 . S
C604 C587 1.574 . S
C604 H598 0.949 . S
C604 C608 1.368 . S
C605 C586 1.429 . S
C605 C599 1.429 . S
C605 C606 1.523 . S
C606 C587 1.368 . S
C606 C600 1.368 . S
C606 C605 1.523 . S
C607 C591 1.429 . S
C607 C603 1.429 . S
C607 C608 1.523 . S
C608 C592 1.368 . S
C608 C604 1.368 . S
C608 C607 1.523 . S
H609 C584 0.950 . S
H610 C586 0.950 . S
H611 C587 0.949 . S
H612 C589 0.950 . S
H613 C591 0.950 . S
C614 C615 1.349 . S
C614 C616 1.327 . S
C614 H639 0.950 . S
C615 C614 1.349 . S
C615 C631 1.349 . S
C616 C614 1.327 . S
C616 C635 1.429 . S
C616 H640 0.950 . S
C617 C634 1.574 . S
C617 C636 1.368 . S
C617 H641 0.949 . S
H618 C622 0.949 . S
C619 C620 1.349 . S
C619 C621 1.327 . S
C619 H642 0.950 . S
C620 C619 1.349 . S
C620 C632 1.349 . S
C621 C619 1.327 . S
C621 C637 1.429 . S
C621 H643 0.950 . S
C622 H618 0.949 . S
C622 C630 1.574 . S
C622 C638 1.368 . S
H623 C631 0.950 . S
H624 C629 0.950 . S
H625 C630 0.949 . S
H626 C632 0.950 . S
H627 C633 0.950 . S
H628 C634 0.949 . S
C629 H624 0.950 . S
C629 C631 1.327 . S
C629 C635 1.429 . S
C630 C622 1.574 . S
C630 H625 0.949 . S
C630 C636 1.368 . S
C631 C615 1.349 . S
C631 H623 0.950 . S
C631 C629 1.327 . S
C632 C620 1.349 . S
C632 H626 0.950 . S
C632 C633 1.327 . S
C633 H627 0.950 . S
C633 C632 1.327 . S
C633 C637 1.429 . S
C634 C617 1.574 . S
C634 H628 0.949 . S
C634 C638 1.368 . S
C635 C616 1.429 . S
C635 C629 1.429 . S
C635 C636 1.523 . S
C636 C617 1.368 . S
C636 C630 1.368 . S
C636 C635 1.523 . S
C637 C621 1.429 . S
C637 C633 1.429 . S
C637 C638 1.523 . S
C638 C622 1.368 . S
C638 C634 1.368 . S
C638 C637 1.523 . S
H639 C614 0.950 . S
H640 C616 0.950 . S
H641 C617 0.949 . S
H642 C619 0.950 . S
H643 C621 0.950 . S
C644 C645 1.349 . S
C644 C646 1.327 . S
C644 H669 0.950 . S
C645 C644 1.349 . S
C645 C661 1.349 . S
C646 C644 1.327 . S
C646 C665 1.429 . S
C646 H670 0.950 . S
C647 C664 1.574 . S
C647 C666 1.368 . S
C647 H671 0.949 . S
H648 C652 0.949 . S
C649 C650 1.349 . S
C649 C651 1.327 . S
C649 H672 0.950 . S
C650 C649 1.349 . S
C650 C662 1.349 . S
C651 C649 1.327 . S
C651 C667 1.429 . S
C651 H673 0.950 . S
C652 H648 0.949 . S
C652 C660 1.574 . S
C652 C668 1.368 . S
H653 C661 0.950 . S
H654 C659 0.950 . S
H655 C660 0.949 . S
H656 C662 0.950 . S
H657 C663 0.950 . S
H658 C664 0.949 . S
C659 H654 0.950 . S
C659 C661 1.327 . S
C659 C665 1.429 . S
C660 C652 1.574 . S
C660 H655 0.949 . S
C660 C666 1.368 . S
C661 C645 1.349 . S
C661 H653 0.950 . S
C661 C659 1.327 . S
C662 C650 1.349 . S
C662 H656 0.950 . S
C662 C663 1.327 . S
C663 H657 0.950 . S
C663 C662 1.327 . S
C663 C667 1.429 . S
C664 C647 1.574 . S
C664 H658 0.949 . S
C664 C668 1.368 . S
C665 C646 1.429 . S
C665 C659 1.429 . S
C665 C666 1.523 . S
C666 C647 1.368 . S
C666 C660 1.368 . S
C666 C665 1.523 . S
C667 C651 1.429 . S
C667 C663 1.429 . S
C667 C668 1.523 . S
C668 C652 1.368 . S
C668 C664 1.368 . S
C668 C667 1.523 . S
H669 C644 0.950 . S
H670 C646 0.950 . S
H671 C647 0.949 . S
H672 C649 0.950 . S
H673 C651 0.950 . S
C674 C675 1.349 . S
C674 C676 1.327 . S
C674 H699 0.950 . S
C675 C674 1.349 . S
C675 C691 1.349 . S
C676 C674 1.327 . S
C676 C695 1.429 . S
C676 H700 0.950 . S
C677 C694 1.574 . S
C677 C696 1.368 . S
C677 H701 0.949 . S
H678 C682 0.949 . S
C679 C680 1.349 . S
C679 C681 1.327 . S
C679 H702 0.950 . S
C680 C679 1.349 . S
C680 C692 1.349 . S
C681 C679 1.327 . S
C681 C697 1.429 . S
C681 H703 0.950 . S
C682 H678 0.949 . S
C682 C690 1.574 . S
C682 C698 1.368 . S
H683 C691 0.950 . S
H684 C689 0.950 . S
H685 C690 0.949 . S
H686 C692 0.950 . S
H687 C693 0.950 . S
H688 C694 0.949 . S
C689 H684 0.950 . S
C689 C691 1.327 . S
C689 C695 1.429 . S
C690 C682 1.574 . S
C690 H685 0.949 . S
C690 C696 1.368 . S
C691 C675 1.349 . S
C691 H683 0.950 . S
C691 C689 1.327 . S
C692 C680 1.349 . S
C692 H686 0.950 . S
C692 C693 1.327 . S
C693 H687 0.950 . S
C693 C692 1.327 . S
C693 C697 1.429 . S
C694 C677 1.574 . S
C694 H688 0.949 . S
C694 C698 1.368 . S
C695 C676 1.429 . S
C695 C689 1.429 . S
C695 C696 1.523 . S
C696 C677 1.368 . S
C696 C690 1.368 . S
C696 C695 1.523 . S
C697 C681 1.429 . S
C697 C693 1.429 . S
C697 C698 1.523 . S
C698 C682 1.368 . S
C698 C694 1.368 . S
C698 C697 1.523 . S
H699 C674 0.950 . S
H700 C676 0.950 . S
H701 C677 0.949 . S
H702 C679 0.950 . S
H703 C681 0.950 . S
C704 C705 1.349 . S
C704 C706 1.327 . S
C704 H729 0.950 . S
C705 C704 1.349 . S
C705 C721 1.349 . S
C706 C704 1.327 . S
C706 C725 1.429 . S
C706 H730 0.950 . S
C707 C724 1.574 . S
C707 C726 1.368 . S
C707 H731 0.949 . S
H708 C712 0.949 . S
C709 C710 1.349 . S
C709 C711 1.327 . S
C709 H732 0.950 . S
C710 C709 1.349 . S
C710 C722 1.349 . S
C711 C709 1.327 . S
C711 C727 1.429 . S
C711 H733 0.950 . S
C712 H708 0.949 . S
C712 C720 1.574 . S
C712 C728 1.368 . S
H713 C721 0.950 . S
H714 C719 0.950 . S
H715 C720 0.949 . S
H716 C722 0.950 . S
H717 C723 0.950 . S
H718 C724 0.949 . S
C719 H714 0.950 . S
C719 C721 1.327 . S
C719 C725 1.429 . S
C720 C712 1.574 . S
C720 H715 0.949 . S
C720 C726 1.368 . S
C721 C705 1.349 . S
C721 H713 0.950 . S
C721 C719 1.327 . S
C722 C710 1.349 . S
C722 H716 0.950 . S
C722 C723 1.327 . S
C723 H717 0.950 . S
C723 C722 1.327 . S
C723 C727 1.429 . S
C724 C707 1.574 . S
C724 H718 0.949 . S
C724 C728 1.368 . S
C725 C706 1.429 . S
C725 C719 1.429 . S
C725 C726 1.523 . S
C726 C707 1.368 . S
C726 C720 1.368 . S
C726 C725 1.523 . S
C727 C711 1.429 . S
C727 C723 1.429 . S
C727 C728 1.523 . S
C728 C712 1.368 . S
C728 C724 1.368 . S
C728 C727 1.523 . S
H729 C704 0.950 . S
H730 C706 0.950 . S
H731 C707 0.949 . S
H732 C709 0.950 . S
H733 C711 0.950 . S
C734 C735 1.349 . S
C734 C736 1.327 . S
C734 H759 0.950 . S
C735 C734 1.349 . S
C735 C751 1.349 . S
C736 C734 1.327 . S
C736 C755 1.429 . S
C736 H760 0.950 . S
C737 C754 1.574 . S
C737 C756 1.368 . S
C737 H761 0.949 . S
H738 C742 0.949 . S
C739 C740 1.349 . S
C739 C741 1.327 . S
C739 H762 0.950 . S
C740 C739 1.349 . S
C740 C752 1.349 . S
C741 C739 1.327 . S
C741 C757 1.429 . S
C741 H763 0.950 . S
C742 H738 0.949 . S
C742 C750 1.574 . S
C742 C758 1.368 . S
H743 C751 0.950 . S
H744 C749 0.950 . S
H745 C750 0.949 . S
H746 C752 0.950 . S
H747 C753 0.950 . S
H748 C754 0.949 . S
C749 H744 0.950 . S
C749 C751 1.327 . S
C749 C755 1.429 . S
C750 C742 1.574 . S
C750 H745 0.949 . S
C750 C756 1.368 . S
C751 C735 1.349 . S
C751 H743 0.950 . S
C751 C749 1.327 . S
C752 C740 1.349 . S
C752 H746 0.950 . S
C752 C753 1.327 . S
C753 H747 0.950 . S
C753 C752 1.327 . S
C753 C757 1.429 . S
C754 C737 1.574 . S
C754 H748 0.949 . S
C754 C758 1.368 . S
C755 C736 1.429 . S
C755 C749 1.429 . S
C755 C756 1.523 . S
C756 C737 1.368 . S
C756 C750 1.368 . S
C756 C755 1.523 . S
C757 C741 1.429 . S
C757 C753 1.429 . S
C757 C758 1.523 . S
C758 C742 1.368 . S
C758 C754 1.368 . S
C758 C757 1.523 . S
H759 C734 0.950 . S
H760 C736 0.950 . S
H761 C737 0.949 . S
H762 C739 0.950 . S
H763 C741 0.950 . S
C764 C765 1.349 . S
C764 C766 1.327 . S
C764 H789 0.950 . S
C765 C764 1.349 . S
C765 C781 1.349 . S
C766 C764 1.327 . S
C766 C785 1.429 . S
C766 H790 0.950 . S
C767 C784 1.574 . S
C767 C786 1.368 . S
C767 H791 0.949 . S
H768 C772 0.949 . S
C769 C770 1.349 . S
C769 C771 1.327 . S
C769 H792 0.950 . S
C770 C769 1.349 . S
C770 C782 1.349 . S
C771 C769 1.327 . S
C771 C787 1.429 . S
C771 H793 0.950 . S
C772 H768 0.949 . S
C772 C780 1.574 . S
C772 C788 1.368 . S
H773 C781 0.950 . S
H774 C779 0.950 . S
H775 C780 0.949 . S
H776 C782 0.950 . S
H777 C783 0.950 . S
H778 C784 0.949 . S
C779 H774 0.950 . S
C779 C781 1.327 . S
C779 C785 1.429 . S
C780 C772 1.574 . S
C780 H775 0.949 . S
C780 C786 1.368 . S
C781 C765 1.349 . S
C781 H773 0.950 . S
C781 C779 1.327 . S
C782 C770 1.349 . S
C782 H776 0.950 . S
C782 C783 1.327 . S
C783 H777 0.950 . S
C783 C782 1.327 . S
C783 C787 1.429 . S
C784 C767 1.574 . S
C784 H778 0.949 . S
C784 C788 1.368 . S
C785 C766 1.429 . S
C785 C779 1.429 . S
C785 C786 1.523 . S
C786 C767 1.368 . S
C786 C780 1.368 . S
C786 C785 1.523 . S
C787 C771 1.429 . S
C787 C783 1.429 . S
C787 C788 1.523 . S
C788 C772 1.368 . S
C788 C784 1.368 . S
C788 C787 1.523 . S
H789 C764 0.950 . S
H790 C766 0.950 . S
H791 C767 0.949 . S
H792 C769 0.950 . S
H793 C771 0.950 . S
C794 C795 1.349 . S
C794 C796 1.327 . S
C794 H819 0.950 . S
C795 C794 1.349 . S
C795 C811 1.349 . S
C796 C794 1.327 . S
C796 C815 1.429 . S
C796 H820 0.950 . S
C797 C814 1.574 . S
C797 C816 1.368 . S
C797 H821 0.949 . S
H798 C802 0.949 . S
C799 C800 1.349 . S
C799 C801 1.327 . S
C799 H822 0.950 . S
C800 C799 1.349 . S
C800 C812 1.349 . S
C801 C799 1.327 . S
C801 C817 1.429 . S
C801 H823 0.950 . S
C802 H798 0.949 . S
C802 C810 1.574 . S
C802 C818 1.368 . S
H803 C811 0.950 . S
H804 C809 0.950 . S
H805 C810 0.949 . S
H806 C812 0.950 . S
H807 C813 0.950 . S
H808 C814 0.949 . S
C809 H804 0.950 . S
C809 C811 1.327 . S
C809 C815 1.429 . S
C810 C802 1.574 . S
C810 H805 0.949 . S
C810 C816 1.368 . S
C811 C795 1.349 . S
C811 H803 0.950 . S
C811 C809 1.327 . S
C812 C800 1.349 . S
C812 H806 0.950 . S
C812 C813 1.327 . S
C813 H807 0.950 . S
C813 C812 1.327 . S
C813 C817 1.429 . S
C814 C797 1.574 . S
C814 H808 0.949 . S
C814 C818 1.368 . S
C815 C796 1.429 . S
C815 C809 1.429 . S
C815 C816 1.523 . S
C816 C797 1.368 . S
C816 C810 1.368 . S
C816 C815 1.523 . S
C817 C801 1.429 . S
C817 C813 1.429 . S
C817 C818 1.523 . S
C818 C802 1.368 . S
C818 C814 1.368 . S
C818 C817 1.523 . S
H819 C794 0.950 . S
H820 C796 0.950 . S
H821 C797 0.949 . S
H822 C799 0.950 . S
H823 C801 0.950 . S
C824 C825 1.349 . S
C824 C826 1.327 . S
C824 H849 0.950 . S
C825 C824 1.349 . S
C825 C841 1.349 . S
C826 C824 1.327 . S
C826 C845 1.429 . S
C826 H850 0.950 . S
C827 C844 1.574 . S
C827 C846 1.368 . S
C827 H851 0.949 . S
H828 C832 0.949 . S
C829 C830 1.349 . S
C829 C831 1.327 . S
C829 H852 0.950 . S
C830 C829 1.349 . S
C830 C842 1.349 . S
C831 C829 1.327 . S
C831 C847 1.429 . S
C831 H853 0.950 . S
C832 H828 0.949 . S
C832 C840 1.574 . S
C832 C848 1.368 . S
H833 C841 0.950 . S
H834 C839 0.950 . S
H835 C840 0.949 . S
H836 C842 0.950 . S
H837 C843 0.950 . S
H838 C844 0.949 . S
C839 H834 0.950 . S
C839 C841 1.327 . S
C839 C845 1.429 . S
C840 C832 1.574 . S
C840 H835 0.949 . S
C840 C846 1.368 . S
C841 C825 1.349 . S
C841 H833 0.950 . S
C841 C839 1.327 . S
C842 C830 1.349 . S
C842 H836 0.950 . S
C842 C843 1.327 . S
C843 H837 0.950 . S
C843 C842 1.327 . S
C843 C847 1.429 . S
C844 C827 1.574 . S
C844 H838 0.949 . S
C844 C848 1.368 . S
C845 C826 1.429 . S
C845 C839 1.429 . S
C845 C846 1.523 . S
C846 C827 1.368 . S
C846 C840 1.368 . S
C846 C845 1.523 . S
C847 C831 1.429 . S
C847 C843 1.429 . S
C847 C848 1.523 . S
C848 C832 1.368 . S
C848 C844 1.368 . S
C848 C847 1.523 . S
H849 C824 0.950 . S
H850 C826 0.950 . S
H851 C827 0.949 . S
H852 C829 0.950 . S
H853 C831 0.950 . S
C854 C855 1.349 . S
C854 C856 1.327 . S
C854 H879 0.950 . S
C855 C854 1.349 . S
C855 C871 1.349 . S
C856 C854 1.327 . S
C856 C875 1.429 . S
C856 H880 0.950 . S
C857 C874 1.574 . S
C857 C876 1.368 . S
C857 H881 0.949 . S
H858 C862 0.949 . S
C859 C860 1.349 . S
C859 C861 1.327 . S
C859 H882 0.950 . S
C860 C859 1.349 . S
C860 C872 1.349 . S
C861 C859 1.327 . S
C861 C877 1.429 . S
C861 H883 0.950 . S
C862 H858 0.949 . S
C862 C870 1.574 . S
C862 C878 1.368 . S
H863 C871 0.950 . S
H864 C869 0.950 . S
H865 C870 0.949 . S
H866 C872 0.950 . S
H867 C873 0.950 . S
H868 C874 0.949 . S
C869 H864 0.950 . S
C869 C871 1.327 . S
C869 C875 1.429 . S
C870 C862 1.574 . S
C870 H865 0.949 . S
C870 C876 1.368 . S
C871 C855 1.349 . S
C871 H863 0.950 . S
C871 C869 1.327 . S
C872 C860 1.349 . S
C872 H866 0.950 . S
C872 C873 1.327 . S
C873 H867 0.950 . S
C873 C872 1.327 . S
C873 C877 1.429 . S
C874 C857 1.574 . S
C874 H868 0.949 . S
C874 C878 1.368 . S
C875 C856 1.429 . S
C875 C869 1.429 . S
C875 C876 1.523 . S
C876 C857 1.368 . S
C876 C870 1.368 . S
C876 C875 1.523 . S
C877 C861 1.429 . S
C877 C873 1.429 . S
C877 C878 1.523 . S
C878 C862 1.368 . S
C878 C874 1.368 . S
C878 C877 1.523 . S
H879 C854 0.950 . S
H880 C856 0.950 . S
H881 C857 0.949 . S
H882 C859 0.950 . S
H883 C861 0.950 . S
C884 C885 1.349 . S
C884 C886 1.327 . S
C884 H909 0.950 . S
C885 C884 1.349 . S
C885 C901 1.349 . S
C886 C884 1.327 . S
C886 C905 1.429 . S
C886 H910 0.950 . S
C887 C904 1.574 . S
C887 C906 1.368 . S
C887 H911 0.949 . S
H888 C892 0.949 . S
C889 C890 1.349 . S
C889 C891 1.327 . S
C889 H912 0.950 . S
C890 C889 1.349 . S
C890 C902 1.349 . S
C891 C889 1.327 . S
C891 C907 1.429 . S
C891 H913 0.950 . S
C892 H888 0.949 . S
C892 C900 1.574 . S
C892 C908 1.368 . S
H893 C901 0.950 . S
H894 C899 0.950 . S
H895 C900 0.949 . S
H896 C902 0.950 . S
H897 C903 0.950 . S
H898 C904 0.949 . S
C899 H894 0.950 . S
C899 C901 1.327 . S
C899 C905 1.429 . S
C900 C892 1.574 . S
C900 H895 0.949 . S
C900 C906 1.368 . S
C901 C885 1.349 . S
C901 H893 0.950 . S
C901 C899 1.327 . S
C902 C890 1.349 . S
C902 H896 0.950 . S
C902 C903 1.327 . S
C903 H897 0.950 . S
C903 C902 1.327 . S
C903 C907 1.429 . S
C904 C887 1.574 . S
C904 H898 0.949 . S
C904 C908 1.368 . S
C905 C886 1.429 . S
C905 C899 1.429 . S
C905 C906 1.523 . S
C906 C887 1.368 . S
C906 C900 1.368 . S
C906 C905 1.523 . S
C907 C891 1.429 . S
C907 C903 1.429 . S
C907 C908 1.523 . S
C908 C892 1.368 . S
C908 C904 1.368 . S
C908 C907 1.523 . S
H909 C884 0.950 . S
H910 C886 0.950 . S
H911 C887 0.949 . S
H912 C889 0.950 . S
H913 C891 0.950 . S
C914 C915 1.349 . S
C914 C916 1.327 . S
C914 H939 0.950 . S
C915 C914 1.349 . S
C915 C931 1.349 . S
C916 C914 1.327 . S
C916 C935 1.429 . S
C916 H940 0.950 . S
C917 C934 1.574 . S
C917 C936 1.368 . S
C917 H941 0.949 . S
H918 C922 0.949 . S
C919 C920 1.349 . S
C919 C921 1.327 . S
C919 H942 0.950 . S
C920 C919 1.349 . S
C920 C932 1.349 . S
C921 C919 1.327 . S
C921 C937 1.429 . S
C921 H943 0.950 . S
C922 H918 0.949 . S
C922 C930 1.574 . S
C922 C938 1.368 . S
H923 C931 0.950 . S
H924 C929 0.950 . S
H925 C930 0.949 . S
H926 C932 0.950 . S
H927 C933 0.950 . S
H928 C934 0.949 . S
C929 H924 0.950 . S
C929 C931 1.327 . S
C929 C935 1.429 . S
C930 C922 1.574 . S
C930 H925 0.949 . S
C930 C936 1.368 . S
C931 C915 1.349 . S
C931 H923 0.950 . S
C931 C929 1.327 . S
C932 C920 1.349 . S
C932 H926 0.950 . S
C932 C933 1.327 . S
C933 H927 0.950 . S
C933 C932 1.327 . S
C933 C937 1.429 . S
C934 C917 1.574 . S
C934 H928 0.949 . S
C934 C938 1.368 . S
C935 C916 1.429 . S
C935 C929 1.429 . S
C935 C936 1.523 . S
C936 C917 1.368 . S
C936 C930 1.368 . S
C936 C935 1.523 . S
C937 C921 1.429 . S
C937 C933 1.429 . S
C937 C938 1.523 . S
C938 C922 1.368 . S
C938 C934 1.368 . S
C938 C937 1.523 . S
H939 C914 0.950 . S
H940 C916 0.950 . S
H941 C917 0.949 . S
H942 C919 0.950 . S
H943 C921 0.950 . S
C944 C945 1.349 . S
C944 C946 1.327 . S
C944 H969 0.950 . S
C945 C944 1.349 . S
C945 C961 1.349 . S
C946 C944 1.327 . S
C946 C965 1.429 . S
C946 H970 0.950 . S
C947 C964 1.574 1_554 S
C947 C966 1.368 . S
C947 H971 0.949 . S
H948 C952 0.949 . S
C949 C950 1.349 . S
C949 C951 1.327 . S
C949 H972 0.950 . S
C950 C949 1.349 . S
C950 C962 1.349 . S
C951 C949 1.327 . S
C951 C967 1.429 . S
C951 H973 0.950 . S
C952 H948 0.949 . S
C952 C960 1.574 1_556 S
C952 C968 1.368 . S
H953 C961 0.950 . S
H954 C959 0.950 . S
H955 C960 0.949 . S
H956 C962 0.950 . S
H957 C963 0.950 . S
H958 C964 0.949 . S
C959 H954 0.950 . S
C959 C961 1.327 . S
C959 C965 1.429 . S
C960 C952 1.574 1_554 S
C960 H955 0.949 . S
C960 C966 1.368 . S
C961 C945 1.349 . S
C961 H953 0.950 . S
C961 C959 1.327 . S
C962 C950 1.349 . S
C962 H956 0.950 . S
C962 C963 1.327 . S
C963 H957 0.950 . S
C963 C962 1.327 . S
C963 C967 1.429 . S
C964 C947 1.574 1_556 S
C964 H958 0.949 . S
C964 C968 1.368 . S
C965 C946 1.429 . S
C965 C959 1.429 . S
C965 C966 1.523 . S
C966 C947 1.368 . S
C966 C960 1.368 . S
C966 C965 1.523 . S
C967 C951 1.429 . S
C967 C963 1.429 . S
C967 C968 1.523 . S
C968 C952 1.368 . S
C968 C964 1.368 . S
C968 C967 1.523 . S
H969 C944 0.950 . S
H970 C946 0.950 . S
H971 C947 0.949 . S
H972 C949 0.950 . S
H973 C951 0.950 . S
C974 C975 1.349 . S
C974 C976 1.327 . S
C974 H999 0.950 . S
C975 C974 1.349 . S
C975 C991 1.349 . S
C976 C974 1.327 . S
C976 C995 1.429 . S
C976 H1000 0.950 . S
C977 C994 1.574 . S
C977 C996 1.368 . S
C977 H1001 0.949 . S
H978 C982 0.949 . S
C979 C980 1.349 . S
C979 C981 1.327 . S
C979 H1002 0.950 . S
C980 C979 1.349 . S
C980 C992 1.349 . S
C981 C979 1.327 . S
C981 C997 1.429 . S
C981 H1003 0.950 . S
C982 H978 0.949 . S
C982 C990 1.574 . S
C982 C998 1.368 . S
H983 C991 0.950 . S
H984 C989 0.950 . S
H985 C990 0.949 . S
H986 C992 0.950 . S
H987 C993 0.950 . S
H988 C994 0.949 . S
C989 H984 0.950 . S
C989 C991 1.327 . S
C989 C995 1.429 . S
C990 C982 1.574 . S
C990 H985 0.949 . S
C990 C996 1.368 . S
C991 C975 1.349 . S
C991 H983 0.950 . S
C991 C989 1.327 . S
C992 C980 1.349 . S
C992 H986 0.950 . S
C992 C993 1.327 . S
C993 H987 0.950 . S
C993 C992 1.327 . S
C993 C997 1.429 . S
C994 C977 1.574 . S
C994 H988 0.949 . S
C994 C998 1.368 . S
C995 C976 1.429 . S
C995 C989 1.429 . S
C995 C996 1.523 . S
C996 C977 1.368 . S
C996 C990 1.368 . S
C996 C995 1.523 . S
C997 C981 1.429 . S
C997 C993 1.429 . S
C997 C998 1.523 . S
C998 C982 1.368 . S
C998 C994 1.368 . S
C998 C997 1.523 . S
H999 C974 0.950 . S
H1000 C976 0.950 . S
H1001 C977 0.949 . S
H1002 C979 0.950 . S
H1003 C981 0.950 . S
C1004 C1005 1.349 . S
C1004 C1006 1.327 . S
C1004 H1029 0.950 . S
C1005 C1004 1.349 . S
C1005 C1021 1.349 . S
C1006 C1004 1.327 . S
C1006 C1025 1.429 . S
C1006 H1030 0.950 . S
C1007 C1024 1.574 1_554 S
C1007 C1026 1.368 . S
C1007 H1031 0.949 . S
H1008 C1012 0.949 . S
C1009 C1010 1.349 . S
C1009 C1011 1.327 . S
C1009 H1032 0.950 . S
C1010 C1009 1.349 . S
C1010 C1022 1.349 . S
C1011 C1009 1.327 . S
C1011 C1027 1.429 . S
C1011 H1033 0.950 . S
C1012 H1008 0.949 . S
C1012 C1020 1.574 1_556 S
C1012 C1028 1.368 . S
H1013 C1021 0.950 . S
H1014 C1019 0.950 . S
H1015 C1020 0.949 . S
H1016 C1022 0.950 . S
H1017 C1023 0.950 . S
H1018 C1024 0.949 . S
C1019 H1014 0.950 . S
C1019 C1021 1.327 . S
C1019 C1025 1.429 . S
C1020 C1012 1.574 1_554 S
C1020 H1015 0.949 . S
C1020 C1026 1.368 . S
C1021 C1005 1.349 . S
C1021 H1013 0.950 . S
C1021 C1019 1.327 . S
C1022 C1010 1.349 . S
C1022 H1016 0.950 . S
C1022 C1023 1.327 . S
C1023 H1017 0.950 . S
C1023 C1022 1.327 . S
C1023 C1027 1.429 . S
C1024 C1007 1.574 1_556 S
C1024 H1018 0.949 . S
C1024 C1028 1.368 . S
C1025 C1006 1.429 . S
C1025 C1019 1.429 . S
C1025 C1026 1.523 . S
C1026 C1007 1.368 . S
C1026 C1020 1.368 . S
C1026 C1025 1.523 . S
C1027 C1011 1.429 . S
C1027 C1023 1.429 . S
C1027 C1028 1.523 . S
C1028 C1012 1.368 . S
C1028 C1024 1.368 . S
C1028 C1027 1.523 . S
H1029 C1004 0.950 . S
H1030 C1006 0.950 . S
H1031 C1007 0.949 . S
H1032 C1009 0.950 . S
H1033 C1011 0.950 . S
C1034 C1035 1.349 . S
C1034 C1036 1.327 . S
C1034 H1059 0.950 . S
C1035 C1034 1.349 . S
C1035 C1051 1.349 . S
C1036 C1034 1.327 . S
C1036 C1055 1.429 . S
C1036 H1060 0.950 . S
C1037 C1054 1.574 . S
C1037 C1056 1.368 . S
C1037 H1061 0.949 . S
H1038 C1042 0.949 . S
C1039 C1040 1.349 . S
C1039 C1041 1.327 . S
C1039 H1062 0.950 . S
C1040 C1039 1.349 . S
C1040 C1052 1.349 . S
C1041 C1039 1.327 . S
C1041 C1057 1.429 . S
C1041 H1063 0.950 . S
C1042 H1038 0.949 . S
C1042 C1050 1.574 . S
C1042 C1058 1.368 . S
H1043 C1051 0.950 . S
H1044 C1049 0.950 . S
H1045 C1050 0.949 . S
H1046 C1052 0.950 . S
H1047 C1053 0.950 . S
H1048 C1054 0.949 . S
C1049 H1044 0.950 . S
C1049 C1051 1.327 . S
C1049 C1055 1.429 . S
C1050 C1042 1.574 . S
C1050 H1045 0.949 . S
C1050 C1056 1.368 . S
C1051 C1035 1.349 . S
C1051 H1043 0.950 . S
C1051 C1049 1.327 . S
C1052 C1040 1.349 . S
C1052 H1046 0.950 . S
C1052 C1053 1.327 . S
C1053 H1047 0.950 . S
C1053 C1052 1.327 . S
C1053 C1057 1.429 . S
C1054 C1037 1.574 . S
C1054 H1048 0.949 . S
C1054 C1058 1.368 . S
C1055 C1036 1.429 . S
C1055 C1049 1.429 . S
C1055 C1056 1.523 . S
C1056 C1037 1.368 . S
C1056 C1050 1.368 . S
C1056 C1055 1.523 . S
C1057 C1041 1.429 . S
C1057 C1053 1.429 . S
C1057 C1058 1.523 . S
C1058 C1042 1.368 . S
C1058 C1054 1.368 . S
C1058 C1057 1.523 . S
H1059 C1034 0.950 . S
H1060 C1036 0.950 . S
H1061 C1037 0.949 . S
H1062 C1039 0.950 . S
H1063 C1041 0.950 . S
C1064 C1065 1.349 . S
C1064 C1066 1.327 . S
C1064 H1089 0.950 . S
C1065 C1064 1.349 . S
C1065 C1081 1.349 . S
C1066 C1064 1.327 . S
C1066 C1085 1.429 . S
C1066 H1090 0.950 . S
C1067 C1084 1.574 1_556 S
C1067 C1086 1.368 . S
C1067 H1091 0.949 . S
H1068 C1072 0.949 . S
C1069 C1070 1.349 . S
C1069 C1071 1.327 . S
C1069 H1092 0.950 . S
C1070 C1069 1.349 . S
C1070 C1082 1.349 . S
C1071 C1069 1.327 . S
C1071 C1087 1.429 . S
C1071 H1093 0.950 . S
C1072 H1068 0.949 . S
C1072 C1080 1.574 1_554 S
C1072 C1088 1.368 . S
H1073 C1081 0.950 . S
H1074 C1079 0.950 . S
H1075 C1080 0.949 . S
H1076 C1082 0.950 . S
H1077 C1083 0.950 . S
H1078 C1084 0.949 . S
C1079 H1074 0.950 . S
C1079 C1081 1.327 . S
C1079 C1085 1.429 . S
C1080 C1072 1.574 1_556 S
C1080 H1075 0.949 . S
C1080 C1086 1.368 . S
C1081 C1065 1.349 . S
C1081 H1073 0.950 . S
C1081 C1079 1.327 . S
C1082 C1070 1.349 . S
C1082 H1076 0.950 . S
C1082 C1083 1.327 . S
C1083 H1077 0.950 . S
C1083 C1082 1.327 . S
C1083 C1087 1.429 . S
C1084 C1067 1.574 1_554 S
C1084 H1078 0.949 . S
C1084 C1088 1.368 . S
C1085 C1066 1.429 . S
C1085 C1079 1.429 . S
C1085 C1086 1.523 . S
C1086 C1067 1.368 . S
C1086 C1080 1.368 . S
C1086 C1085 1.523 . S
C1087 C1071 1.429 . S
C1087 C1083 1.429 . S
C1087 C1088 1.523 . S
C1088 C1072 1.368 . S
C1088 C1084 1.368 . S
C1088 C1087 1.523 . S
H1089 C1064 0.950 . S
H1090 C1066 0.950 . S
H1091 C1067 0.949 . S
H1092 C1069 0.950 . S
H1093 C1071 0.950 . S
C1094 C1095 1.349 . S
C1094 C1096 1.327 . S
C1094 H1119 0.950 . S
C1095 C1094 1.349 . S
C1095 C1111 1.349 . S
C1096 C1094 1.327 . S
C1096 C1115 1.429 . S
C1096 H1120 0.950 . S
C1097 C1114 1.574 . S
C1097 C1116 1.368 . S
C1097 H1121 0.949 . S
H1098 C1102 0.949 . S
C1099 C1100 1.349 . S
C1099 C1101 1.327 . S
C1099 H1122 0.950 . S
C1100 C1099 1.349 . S
C1100 C1112 1.349 . S
C1101 C1099 1.327 . S
C1101 C1117 1.429 . S
C1101 H1123 0.950 . S
C1102 H1098 0.949 . S
C1102 C1110 1.574 . S
C1102 C1118 1.368 . S
H1103 C1111 0.950 . S
H1104 C1109 0.950 . S
H1105 C1110 0.949 . S
H1106 C1112 0.950 . S
H1107 C1113 0.950 . S
H1108 C1114 0.949 . S
C1109 H1104 0.950 . S
C1109 C1111 1.327 . S
C1109 C1115 1.429 . S
C1110 C1102 1.574 . S
C1110 H1105 0.949 . S
C1110 C1116 1.368 . S
C1111 C1095 1.349 . S
C1111 H1103 0.950 . S
C1111 C1109 1.327 . S
C1112 C1100 1.349 . S
C1112 H1106 0.950 . S
C1112 C1113 1.327 . S
C1113 H1107 0.950 . S
C1113 C1112 1.327 . S
C1113 C1117 1.429 . S
C1114 C1097 1.574 . S
C1114 H1108 0.949 . S
C1114 C1118 1.368 . S
C1115 C1096 1.429 . S
C1115 C1109 1.429 . S
C1115 C1116 1.523 . S
C1116 C1097 1.368 . S
C1116 C1110 1.368 . S
C1116 C1115 1.523 . S
C1117 C1101 1.429 . S
C1117 C1113 1.429 . S
C1117 C1118 1.523 . S
C1118 C1102 1.368 . S
C1118 C1114 1.368 . S
C1118 C1117 1.523 . S
H1119 C1094 0.950 . S
H1120 C1096 0.950 . S
H1121 C1097 0.949 . S
H1122 C1099 0.950 . S
H1123 C1101 0.950 . S
C1124 C1125 1.349 . S
C1124 C1126 1.327 . S
C1124 H1149 0.950 . S
C1125 C1124 1.349 . S
C1125 C1141 1.349 . S
C1126 C1124 1.327 . S
C1126 C1145 1.429 . S
C1126 H1150 0.950 . S
C1127 C1144 1.574 1_554 S
C1127 C1146 1.368 . S
C1127 H1151 0.949 . S
H1128 C1132 0.949 . S
C1129 C1130 1.349 . S
C1129 C1131 1.327 . S
C1129 H1152 0.950 . S
C1130 C1129 1.349 . S
C1130 C1142 1.349 . S
C1131 C1129 1.327 . S
C1131 C1147 1.429 . S
C1131 H1153 0.950 . S
C1132 H1128 0.949 . S
C1132 C1140 1.574 1_556 S
C1132 C1148 1.368 . S
H1133 C1141 0.950 . S
H1134 C1139 0.950 . S
H1135 C1140 0.949 . S
H1136 C1142 0.950 . S
H1137 C1143 0.950 . S
H1138 C1144 0.949 . S
C1139 H1134 0.950 . S
C1139 C1141 1.327 . S
C1139 C1145 1.429 . S
C1140 C1132 1.574 1_554 S
C1140 H1135 0.949 . S
C1140 C1146 1.368 . S
C1141 C1125 1.349 . S
C1141 H1133 0.950 . S
C1141 C1139 1.327 . S
C1142 C1130 1.349 . S
C1142 H1136 0.950 . S
C1142 C1143 1.327 . S
C1143 H1137 0.950 . S
C1143 C1142 1.327 . S
C1143 C1147 1.429 . S
C1144 C1127 1.574 1_556 S
C1144 H1138 0.949 . S
C1144 C1148 1.368 . S
C1145 C1126 1.429 . S
C1145 C1139 1.429 . S
C1145 C1146 1.523 . S
C1146 C1127 1.368 . S
C1146 C1140 1.368 . S
C1146 C1145 1.523 . S
C1147 C1131 1.429 . S
C1147 C1143 1.429 . S
C1147 C1148 1.523 . S
C1148 C1132 1.368 . S
C1148 C1144 1.368 . S
C1148 C1147 1.523 . S
H1149 C1124 0.950 . S
H1150 C1126 0.950 . S
H1151 C1127 0.949 . S
H1152 C1129 0.950 . S
H1153 C1131 0.950 . S
C1154 C1155 1.349 . S
C1154 C1156 1.327 . S
C1154 H1179 0.950 . S
C1155 C1154 1.349 . S
C1155 C1171 1.349 . S
C1156 C1154 1.327 . S
C1156 C1175 1.429 . S
C1156 H1180 0.950 . S
C1157 C1174 1.574 . S
C1157 C1176 1.368 . S
C1157 H1181 0.949 . S
H1158 C1162 0.949 . S
C1159 C1160 1.349 . S
C1159 C1161 1.327 . S
C1159 H1182 0.950 . S
C1160 C1159 1.349 . S
C1160 C1172 1.349 . S
C1161 C1159 1.327 . S
C1161 C1177 1.429 . S
C1161 H1183 0.950 . S
C1162 H1158 0.949 . S
C1162 C1170 1.574 . S
C1162 C1178 1.368 . S
H1163 C1171 0.950 . S
H1164 C1169 0.950 . S
H1165 C1170 0.949 . S
H1166 C1172 0.950 . S
H1167 C1173 0.950 . S
H1168 C1174 0.949 . S
C1169 H1164 0.950 . S
C1169 C1171 1.327 . S
C1169 C1175 1.429 . S
C1170 C1162 1.574 . S
C1170 H1165 0.949 . S
C1170 C1176 1.368 . S
C1171 C1155 1.349 . S
C1171 H1163 0.950 . S
C1171 C1169 1.327 . S
C1172 C1160 1.349 . S
C1172 H1166 0.950 . S
C1172 C1173 1.327 . S
C1173 H1167 0.950 . S
C1173 C1172 1.327 . S
C1173 C1177 1.429 . S
C1174 C1157 1.574 . S
C1174 H1168 0.949 . S
C1174 C1178 1.368 . S
C1175 C1156 1.429 . S
C1175 C1169 1.429 . S
C1175 C1176 1.523 . S
C1176 C1157 1.368 . S
C1176 C1170 1.368 . S
C1176 C1175 1.523 . S
C1177 C1161 1.429 . S
C1177 C1173 1.429 . S
C1177 C1178 1.523 . S
C1178 C1162 1.368 . S
C1178 C1174 1.368 . S
C1178 C1177 1.523 . S
H1179 C1154 0.950 . S
H1180 C1156 0.950 . S
H1181 C1157 0.949 . S
H1182 C1159 0.950 . S
H1183 C1161 0.950 . S
C225 C11 1.049 . S
C230 C109 1.049 . S
C255 C25 1.049 . S
C260 C67 1.049 . S
C285 C39 1.048 . S
C290 C81 1.048 . S
C315 C53 1.049 . S
C320 C95 1.049 . S
C345 C123 1.049 . S
C350 C221 1.049 . S
C375 C179 1.049 . S
C380 C137 1.049 . S
C405 C151 1.048 . S
C410 C193 1.048 . S
C435 C165 1.049 . S
C440 C207 1.049 . S
C465 C8 1.111 . S
C470 C139 1.132 . S
C495 C22 1.111 . S
C500 C153 1.132 . S
C525 C167 1.132 . S
C530 C36 1.111 . S
C555 C50 1.111 . S
C560 C125 1.132 . S
C585 C64 1.111 . S
C590 C223 1.132 . S
C615 C181 1.132 . S
C620 C78 1.111 . S
C645 C195 1.132 . S
C650 C92 1.111 . S
C675 C209 1.132 . S
C680 C106 1.111 . S
C705 C27 1.132 . S
C710 C120 1.111 . S
C735 C41 1.132 . S
C740 C134 1.111 . S
C765 C148 1.111 . S
C770 C55 1.132 . S
C795 C13 1.132 . S
C800 C162 1.111 . S
C825 C176 1.111 . S
C830 C111 1.132 . S
C855 C190 1.111 . S
C860 C69 1.132 . S
C885 C83 1.132 . S
C890 C204 1.111 . S
C915 C97 1.132 . S
C920 C218 1.111 . S
C945 C7 1.505 . S
C950 C63 1.505 . S
C975 C77 1.505 . S
C980 C21 1.505 . S
C1005 C35 1.505 . S
C1010 C91 1.505 . S
C1035 C105 1.505 . S
C1040 C49 1.505 . S
C1065 C119 1.505 . S
C1070 C175 1.505 . S
C1095 C189 1.505 . S
C1100 C133 1.505 . S
C1125 C203 1.505 . S
C1130 C147 1.505 . S
C1155 C217 1.505 . S
C1160 C161 1.505 . S
