# Generated by pormake.
# Topology ukn, (4)-cn, num edge types: 1
# Building blocks:
#     Node 0, Type 0, BuildingBlock: NAHDIM_clean_sbu_0, # of connection points: 4
#     Node 1, Type 0, BuildingBlock: NAHDIM_clean_sbu_0, # of connection points: 4
#     Node 2, Type 0, BuildingBlock: NAHDIM_clean_sbu_0, # of connection points: 4
#     Node 3, Type 0, BuildingBlock: NAHDIM_clean_sbu_0, # of connection points: 4
#     Node 4, Type 0, BuildingBlock: NAHDIM_clean_sbu_0, # of connection points: 4
#     Node 5, Type 0, BuildingBlock: NAHDIM_clean_sbu_0, # of connection points: 4
#     Node 6, Type 0, BuildingBlock: NAHDIM_clean_sbu_0, # of connection points: 4
#     Node 7, Type 0, BuildingBlock: NAHDIM_clean_sbu_0, # of connection points: 4
#     Node 8, Type 0, BuildingBlock: NAHDIM_clean_sbu_0, # of connection points: 4
#     Node 9, Type 0, BuildingBlock: NAHDIM_clean_sbu_0, # of connection points: 4
#     Node 10, Type 0, BuildingBlock: NAHDIM_clean_sbu_0, # of connection points: 4
#     Node 11, Type 0, BuildingBlock: NAHDIM_clean_sbu_0, # of connection points: 4
#     Node 12, Type 0, BuildingBlock: NAHDIM_clean_sbu_0, # of connection points: 4
#     Node 13, Type 0, BuildingBlock: NAHDIM_clean_sbu_0, # of connection points: 4
#     Node 14, Type 0, BuildingBlock: NAHDIM_clean_sbu_0, # of connection points: 4
#     Node 15, Type 0, BuildingBlock: NAHDIM_clean_sbu_0, # of connection points: 4
#     Node 16, Type 0, BuildingBlock: NAHDIM_clean_sbu_0, # of connection points: 4
#     Node 17, Type 0, BuildingBlock: NAHDIM_clean_sbu_0, # of connection points: 4
#     Node 18, Type 0, BuildingBlock: NAHDIM_clean_sbu_0, # of connection points: 4
#     Node 19, Type 0, BuildingBlock: NAHDIM_clean_sbu_0, # of connection points: 4
#     Node 20, Type 0, BuildingBlock: NAHDIM_clean_sbu_0, # of connection points: 4
#     Node 21, Type 0, BuildingBlock: NAHDIM_clean_sbu_0, # of connection points: 4
#     Node 22, Type 0, BuildingBlock: NAHDIM_clean_sbu_0, # of connection points: 4
#     Node 23, Type 0, BuildingBlock: NAHDIM_clean_sbu_0, # of connection points: 4
#     Node 24, Type 0, BuildingBlock: NAHDIM_clean_sbu_0, # of connection points: 4
#     Node 25, Type 0, BuildingBlock: NAHDIM_clean_sbu_0, # of connection points: 4
#     Node 26, Type 0, BuildingBlock: NAHDIM_clean_sbu_0, # of connection points: 4
#     Node 27, Type 0, BuildingBlock: NAHDIM_clean_sbu_0, # of connection points: 4
#     Node 28, Type 0, BuildingBlock: NAHDIM_clean_sbu_0, # of connection points: 4
#     Node 29, Type 0, BuildingBlock: NAHDIM_clean_sbu_0, # of connection points: 4
#     Node 30, Type 0, BuildingBlock: NAHDIM_clean_sbu_0, # of connection points: 4
#     Node 31, Type 0, BuildingBlock: NAHDIM_clean_sbu_0, # of connection points: 4
#     Node 32, Type 0, BuildingBlock: NAHDIM_clean_sbu_0, # of connection points: 4
#     Node 33, Type 0, BuildingBlock: NAHDIM_clean_sbu_0, # of connection points: 4
#     Node 34, Type 0, BuildingBlock: NAHDIM_clean_sbu_0, # of connection points: 4
#     Node 35, Type 0, BuildingBlock: NAHDIM_clean_sbu_0, # of connection points: 4
#     Edge 36, Type (0, 0), BuildingBlock: UVAHIK_clean_linker_0, # of connection points: 2
#     Edge 37, Type (0, 0), BuildingBlock: UVAHIK_clean_linker_0, # of connection points: 2
#     Edge 38, Type (0, 0), BuildingBlock: UVAHIK_clean_linker_0, # of connection points: 2
#     Edge 39, Type (0, 0), BuildingBlock: UVAHIK_clean_linker_0, # of connection points: 2
#     Edge 40, Type (0, 0), BuildingBlock: UVAHIK_clean_linker_0, # of connection points: 2
#     Edge 41, Type (0, 0), BuildingBlock: UVAHIK_clean_linker_0, # of connection points: 2
#     Edge 42, Type (0, 0), BuildingBlock: UVAHIK_clean_linker_0, # of connection points: 2
#     Edge 43, Type (0, 0), BuildingBlock: UVAHIK_clean_linker_0, # of connection points: 2
#     Edge 44, Type (0, 0), BuildingBlock: UVAHIK_clean_linker_0, # of connection points: 2
#     Edge 45, Type (0, 0), BuildingBlock: UVAHIK_clean_linker_0, # of connection points: 2
#     Edge 46, Type (0, 0), BuildingBlock: UVAHIK_clean_linker_0, # of connection points: 2
#     Edge 47, Type (0, 0), BuildingBlock: UVAHIK_clean_linker_0, # of connection points: 2
#     Edge 48, Type (0, 0), BuildingBlock: UVAHIK_clean_linker_0, # of connection points: 2
#     Edge 49, Type (0, 0), BuildingBlock: UVAHIK_clean_linker_0, # of connection points: 2
#     Edge 50, Type (0, 0), BuildingBlock: UVAHIK_clean_linker_0, # of connection points: 2
#     Edge 51, Type (0, 0), BuildingBlock: UVAHIK_clean_linker_0, # of connection points: 2
#     Edge 52, Type (0, 0), BuildingBlock: UVAHIK_clean_linker_0, # of connection points: 2
#     Edge 53, Type (0, 0), BuildingBlock: UVAHIK_clean_linker_0, # of connection points: 2
#     Edge 54, Type (0, 0), BuildingBlock: UVAHIK_clean_linker_0, # of connection points: 2
#     Edge 55, Type (0, 0), BuildingBlock: UVAHIK_clean_linker_0, # of connection points: 2
#     Edge 56, Type (0, 0), BuildingBlock: UVAHIK_clean_linker_0, # of connection points: 2
#     Edge 57, Type (0, 0), BuildingBlock: UVAHIK_clean_linker_0, # of connection points: 2
#     Edge 58, Type (0, 0), BuildingBlock: UVAHIK_clean_linker_0, # of connection points: 2
#     Edge 59, Type (0, 0), BuildingBlock: UVAHIK_clean_linker_0, # of connection points: 2
#     Edge 60, Type (0, 0), BuildingBlock: UVAHIK_clean_linker_0, # of connection points: 2
#     Edge 61, Type (0, 0), BuildingBlock: UVAHIK_clean_linker_0, # of connection points: 2
#     Edge 62, Type (0, 0), BuildingBlock: UVAHIK_clean_linker_0, # of connection points: 2
#     Edge 63, Type (0, 0), BuildingBlock: UVAHIK_clean_linker_0, # of connection points: 2
#     Edge 64, Type (0, 0), BuildingBlock: UVAHIK_clean_linker_0, # of connection points: 2
#     Edge 65, Type (0, 0), BuildingBlock: UVAHIK_clean_linker_0, # of connection points: 2
#     Edge 66, Type (0, 0), BuildingBlock: UVAHIK_clean_linker_0, # of connection points: 2
#     Edge 67, Type (0, 0), BuildingBlock: UVAHIK_clean_linker_0, # of connection points: 2
#     Edge 68, Type (0, 0), BuildingBlock: UVAHIK_clean_linker_0, # of connection points: 2
#     Edge 69, Type (0, 0), BuildingBlock: UVAHIK_clean_linker_0, # of connection points: 2
#     Edge 70, Type (0, 0), BuildingBlock: UVAHIK_clean_linker_0, # of connection points: 2
#     Edge 71, Type (0, 0), BuildingBlock: UVAHIK_clean_linker_0, # of connection points: 2
#     Edge 72, Type (0, 0), BuildingBlock: UVAHIK_clean_linker_0, # of connection points: 2
#     Edge 73, Type (0, 0), BuildingBlock: UVAHIK_clean_linker_0, # of connection points: 2
#     Edge 74, Type (0, 0), BuildingBlock: UVAHIK_clean_linker_0, # of connection points: 2
#     Edge 75, Type (0, 0), BuildingBlock: UVAHIK_clean_linker_0, # of connection points: 2
#     Edge 76, Type (0, 0), BuildingBlock: UVAHIK_clean_linker_0, # of connection points: 2
#     Edge 77, Type (0, 0), BuildingBlock: UVAHIK_clean_linker_0, # of connection points: 2
#     Edge 78, Type (0, 0), BuildingBlock: UVAHIK_clean_linker_0, # of connection points: 2
#     Edge 79, Type (0, 0), BuildingBlock: UVAHIK_clean_linker_0, # of connection points: 2
#     Edge 80, Type (0, 0), BuildingBlock: UVAHIK_clean_linker_0, # of connection points: 2
#     Edge 81, Type (0, 0), BuildingBlock: UVAHIK_clean_linker_0, # of connection points: 2
#     Edge 82, Type (0, 0), BuildingBlock: UVAHIK_clean_linker_0, # of connection points: 2
#     Edge 83, Type (0, 0), BuildingBlock: UVAHIK_clean_linker_0, # of connection points: 2
#     Edge 84, Type (0, 0), BuildingBlock: UVAHIK_clean_linker_0, # of connection points: 2
#     Edge 85, Type (0, 0), BuildingBlock: UVAHIK_clean_linker_0, # of connection points: 2
#     Edge 86, Type (0, 0), BuildingBlock: UVAHIK_clean_linker_0, # of connection points: 2
#     Edge 87, Type (0, 0), BuildingBlock: UVAHIK_clean_linker_0, # of connection points: 2
#     Edge 88, Type (0, 0), BuildingBlock: UVAHIK_clean_linker_0, # of connection points: 2
#     Edge 89, Type (0, 0), BuildingBlock: UVAHIK_clean_linker_0, # of connection points: 2
#     Edge 90, Type (0, 0), BuildingBlock: UVAHIK_clean_linker_0, # of connection points: 2
#     Edge 91, Type (0, 0), BuildingBlock: UVAHIK_clean_linker_0, # of connection points: 2
#     Edge 92, Type (0, 0), BuildingBlock: UVAHIK_clean_linker_0, # of connection points: 2
#     Edge 93, Type (0, 0), BuildingBlock: UVAHIK_clean_linker_0, # of connection points: 2
#     Edge 94, Type (0, 0), BuildingBlock: UVAHIK_clean_linker_0, # of connection points: 2
#     Edge 95, Type (0, 0), BuildingBlock: UVAHIK_clean_linker_0, # of connection points: 2
#     Edge 96, Type (0, 0), BuildingBlock: UVAHIK_clean_linker_0, # of connection points: 2
#     Edge 97, Type (0, 0), BuildingBlock: UVAHIK_clean_linker_0, # of connection points: 2
#     Edge 98, Type (0, 0), BuildingBlock: UVAHIK_clean_linker_0, # of connection points: 2
#     Edge 99, Type (0, 0), BuildingBlock: UVAHIK_clean_linker_0, # of connection points: 2
#     Edge 100, Type (0, 0), BuildingBlock: UVAHIK_clean_linker_0, # of connection points: 2
#     Edge 101, Type (0, 0), BuildingBlock: UVAHIK_clean_linker_0, # of connection points: 2
#     Edge 102, Type (0, 0), BuildingBlock: UVAHIK_clean_linker_0, # of connection points: 2
#     Edge 103, Type (0, 0), BuildingBlock: UVAHIK_clean_linker_0, # of connection points: 2
#     Edge 104, Type (0, 0), BuildingBlock: UVAHIK_clean_linker_0, # of connection points: 2
#     Edge 105, Type (0, 0), BuildingBlock: UVAHIK_clean_linker_0, # of connection points: 2
#     Edge 106, Type (0, 0), BuildingBlock: UVAHIK_clean_linker_0, # of connection points: 2
#     Edge 107, Type (0, 0), BuildingBlock: UVAHIK_clean_linker_0, # of connection points: 2
# Relax obj value: 0.144
# Max RMSD: 0.133
# Mean RMSD: 0.133
data_MOF--net-ukn--node1-NAHDIM_clean_sbu_0--edge1-UVAHIK_clean_linker_0
_symmetry_space_group_name_H-M    P1
_symmetry_Int_Tables_number       1
_symmetry_cell_setting            triclinic
loop_
_symmetry_equiv_pos_as_xyz
'x, y, z'
_cell_length_a     140.24062
_cell_length_b     140.17885
_cell_length_c     31.033289
_cell_angle_alpha  89.995027
_cell_angle_beta   89.980282
_cell_angle_gamma 120.01618
loop_
_atom_site_label
_atom_site_type_symbol
_atom_site_fract_x
_atom_site_fract_y
_atom_site_fract_z
_atom_type_partial_charge
C0 C 0.05244 0.27143 0.07905 0.0
O1 O 0.05488 0.27428 0.11963 0.0
O2 O 0.0776 0.29518 0.11624 0.0
Zn3 Zn 0.07585 0.28612 0.06342 0.0
O4 O 0.08202 0.29615 0.01222 0.0
C5 C 0.08425 0.2735 0.10636 0.0
O6 O 0.0788 0.27412 0.13965 0.0
O7 O 0.06003 0.27542 0.0509 0.0
C8 C 0.08404 0.29265 0.9776 0.0
O9 O 0.08216 0.28248 0.9761 0.0
C10 C 0.08693 0.30372 0.12232 0.0
O11 O 0.09482 0.30616 0.09417 0.0
O12 O 0.08408 0.27797 0.071 0.0
C13 C 0.73142 0.78612 0.11193 0.0
O14 O 0.7267 0.78447 0.14989 0.0
O15 O 0.7112 0.79283 0.1475 0.0
Zn16 Zn 0.72033 0.79857 0.09363 0.0
O17 O 0.71031 0.79482 0.04231 0.0
C18 C 0.7325 0.82097 0.06465 0.0
O19 O 0.7302 0.8162 0.02665 0.0
O20 O 0.73001 0.79198 0.08427 0.0
C21 C 0.70123 0.79477 0.04409 0.0
O22 O 0.69815 0.79711 0.08068 0.0
C23 C 0.70345 0.78293 0.15181 0.0
O24 O 0.7014 0.77587 0.12041 0.0
O25 O 0.72941 0.81502 0.09831 0.0
C26 C 0.21234 0.94374 0.07021 0.0
O27 O 0.20758 0.94044 0.108 0.0
O28 O 0.21672 0.92035 0.11419 0.0
Zn29 Zn 0.20885 0.92147 0.06192 0.0
O30 O 0.21233 0.91481 0.01129 0.0
C31 C 0.18847 0.91241 0.10978 0.0
O32 O 0.19507 0.91739 0.14244 0.0
O33 O 0.21376 0.93713 0.04674 0.0
C34 C 0.20618 0.91166 0.97818 0.0
O35 O 0.19734 0.91264 0.97754 0.0
C36 C 0.21595 0.91104 0.1207 0.0
O37 O 0.21031 0.90301 0.09326 0.0
O38 O 0.19255 0.91313 0.07255 0.0
C39 C 0.26537 0.05439 0.91661 0.0
O40 O 0.26975 0.05645 0.87788 0.0
O41 O 0.28986 0.07848 0.88208 0.0
Zn42 Zn 0.28025 0.07775 0.9318 0.0
O43 O 0.2893 0.08353 0.98592 0.0
C44 C 0.2699 0.087 0.87968 0.0
O45 O 0.27101 0.08112 0.84922 0.0
O46 O 0.26854 0.06219 0.94365 0.0
C47 C 0.29284 0.09323 0.00025 0.0
O48 O 0.2908 0.10007 0.97867 0.0
C49 C 0.29909 0.08718 0.87631 0.0
O50 O 0.30224 0.09538 0.9036 0.0
O51 O 0.27317 0.08672 0.9176 0.0
C52 C 0.94204 0.21624 0.91579 0.0
O53 O 0.93999 0.21295 0.87551 0.0
O54 O 0.91701 0.21578 0.86673 0.0
Zn55 Zn 0.91859 0.20897 0.92134 0.0
O56 O 0.91069 0.21178 0.96924 0.0
C57 C 0.91174 0.18808 0.87843 0.0
O58 O 0.91654 0.19424 0.84448 0.0
O59 O 0.93429 0.2154 0.93954 0.0
C60 C 0.9088 0.20643 0.00426 0.0
O61 O 0.91192 0.19905 0.00796 0.0
C62 C 0.90722 0.21318 0.85662 0.0
O63 O 0.8991 0.20643 0.88188 0.0
O64 O 0.91177 0.19264 0.91384 0.0
C65 C 0.77006 0.71686 0.93899 0.0
O66 O 0.76491 0.70646 0.95069 0.0
O67 O 0.77244 0.70084 0.83768 0.0
Zn68 Zn 0.7816 0.70897 0.8896 0.0
O69 O 0.77896 0.69834 0.93794 0.0
C70 C 0.80043 0.70931 0.85903 0.0
O71 O 0.79281 0.69897 0.85322 0.0
O72 O 0.77771 0.72015 0.9111 0.0
C73 C 0.78545 0.70113 0.96998 0.0
O74 O 0.79417 0.71104 0.97089 0.0
C75 C 0.7664 0.6904 0.83793 0.0
O76 O 0.76574 0.68494 0.87323 0.0
O77 O 0.79761 0.71597 0.87403 0.0
C78 C 0.94445 0.72671 0.92167 0.0
O79 O 0.94268 0.71743 0.90409 0.0
O80 O 0.92041 0.70711 0.86446 0.0
Zn81 Zn 0.92108 0.71564 0.91759 0.0
O82 O 0.91652 0.70554 0.96879 0.0
C83 C 0.90838 0.7244 0.87695 0.0
O84 O 0.91402 0.72499 0.84226 0.0
O85 O 0.93632 0.72809 0.92901 0.0
C86 C 0.91443 0.70876 0.00397 0.0
O87 O 0.91537 0.71856 0.00561 0.0
C88 C 0.91153 0.69808 0.85804 0.0
O89 O 0.90343 0.69494 0.88588 0.0
O90 O 0.91032 0.72101 0.912 0.0
C91 C 0.26871 0.2093 0.94518 0.0
O92 O 0.27113 0.20324 0.97014 0.0
O93 O 0.29279 0.21523 0.83966 0.0
Zn94 Zn 0.28414 0.20744 0.893 0.0
O95 O 0.29443 0.21085 0.94344 0.0
C96 C 0.27272 0.1866 0.8463 0.0
O97 O 0.27459 0.1928 0.81202 0.0
O98 O 0.27331 0.21225 0.9085 0.0
C99 C 0.29475 0.2035 0.96636 0.0
O100 O 0.28819 0.19306 0.95706 0.0
C101 C 0.30299 0.22234 0.84161 0.0
O102 O 0.30789 0.22496 0.87931 0.0
O103 O 0.27594 0.19112 0.88295 0.0
C104 C 0.78704 0.05533 0.91917 0.0
O105 O 0.78606 0.05744 0.87869 0.0
O106 O 0.79086 0.08102 0.87696 0.0
Zn107 Zn 0.79721 0.0791 0.93215 0.0
O108 O 0.79292 0.08547 0.98139 0.0
C109 C 0.81825 0.08683 0.89207 0.0
O110 O 0.81212 0.08083 0.85979 0.0
O111 O 0.79159 0.06322 0.94589 0.0
C112 C 0.79212 0.09408 0.97847 0.0
O113 O 0.7943 0.09936 0.94156 0.0
C114 C 0.78083 0.07838 0.87252 0.0
O115 O 0.774 0.0738 0.90495 0.0
O116 O 0.81364 0.08714 0.92687 0.0
C117 C 0.72449 0.94468 0.07809 0.0
O118 O 0.72446 0.94207 0.11876 0.0
O119 O 0.70144 0.91973 0.12511 0.0
Zn120 Zn 0.70835 0.92142 0.06646 0.0
O121 O 0.69668 0.9149 0.02035 0.0
C122 C 0.72392 0.91473 0.09392 0.0
O123 O 0.72524 0.92099 0.12746 0.0
O124 O 0.71826 0.93729 0.05151 0.0
C125 C 0.68661 0.90779 0.02663 0.0
O126 O 0.68318 0.90421 0.06586 0.0
C127 C 0.69787 0.91069 0.14535 0.0
O128 O 0.69892 0.90274 0.12775 0.0
O129 O 0.71719 0.91375 0.06449 0.0
C130 C 0.05015 0.78413 0.11739 0.0
O131 O 0.05162 0.77873 0.14883 0.0
O132 O 0.07607 0.78957 0.16476 0.0
Zn133 Zn 0.07408 0.79552 0.10859 0.0
O134 O 0.07857 0.78931 0.05946 0.0
C135 C 0.08529 0.81761 0.1423 0.0
O136 O 0.08006 0.81266 0.17786 0.0
O137 O 0.05847 0.79166 0.0978 0.0
C138 C 0.08859 0.7927 0.05023 0.0
O139 O 0.09637 0.80041 0.07407 0.0
C140 C 0.07518 0.78012 0.16804 0.0
O141 O 0.07232 0.77368 0.13404 0.0
O142 O 0.08381 0.81193 0.1085 0.0
C143 C 0.20599 0.25882 0.08219 0.0
O144 O 0.20431 0.26016 0.12284 0.0
O145 O 0.20546 0.28288 0.12063 0.0
Zn146 Zn 0.19895 0.27477 0.06533 0.0
O147 O 0.20378 0.28543 0.0158 0.0
C148 C 0.1775 0.26292 0.10478 0.0
O149 O 0.18322 0.26318 0.13873 0.0
O150 O 0.20406 0.26403 0.05326 0.0
C151 C 0.20576 0.29528 0.01941 0.0
O152 O 0.20459 0.29884 0.0571 0.0
C153 C 0.21571 0.28943 0.12572 0.0
O154 O 0.22249 0.29096 0.09385 0.0
O155 O 0.18249 0.2671 0.0696 0.0
C156 C 0.71435 0.59543 0.41205 0.0
O157 O 0.71784 0.59682 0.45209 0.0
O158 O 0.73798 0.62073 0.44681 0.0
Zn159 Zn 0.73685 0.61201 0.39362 0.0
O160 O 0.74263 0.62207 0.34245 0.0
C161 C 0.7485 0.60253 0.4369 0.0
O162 O 0.74492 0.60492 0.47212 0.0
O163 O 0.72109 0.60092 0.38224 0.0
C164 C 0.7524 0.63019 0.34128 0.0
O165 O 0.7589 0.63213 0.3746 0.0
C166 C 0.73723 0.62939 0.44515 0.0
O167 O 0.73563 0.63276 0.40777 0.0
O168 O 0.74585 0.60461 0.40042 0.0
C169 C 0.39306 0.11498 0.43253 0.0
O170 O 0.3928 0.11619 0.47441 0.0
O171 O 0.37037 0.11725 0.48321 0.0
Zn172 Zn 0.37826 0.12398 0.42767 0.0
O173 O 0.36759 0.12152 0.3799 0.0
C174 C 0.39216 0.14676 0.4057 0.0
O175 O 0.39072 0.14272 0.36651 0.0
O176 O 0.38755 0.11768 0.40808 0.0
C177 C 0.35836 0.12105 0.38441 0.0
O178 O 0.35516 0.12214 0.42298 0.0
C179 C 0.36196 0.10773 0.48714 0.0
O180 O 0.35806 0.10134 0.45313 0.0
O181 O 0.38775 0.14021 0.43721 0.0
C182 C 0.87175 0.27498 0.43244 0.0
O183 O 0.87314 0.27284 0.47241 0.0
O184 O 0.86806 0.24911 0.47286 0.0
Zn185 Zn 0.86153 0.25121 0.4185 0.0
O186 O 0.86575 0.24507 0.36831 0.0
C187 C 0.84052 0.24304 0.45964 0.0
O188 O 0.84667 0.24888 0.49213 0.0
O189 O 0.86697 0.26712 0.40575 0.0
C190 C 0.86633 0.23632 0.3704 0.0
O191 O 0.86397 0.23084 0.40686 0.0
C192 C 0.87812 0.25181 0.47674 0.0
O193 O 0.88489 0.25662 0.44433 0.0
O194 O 0.8451 0.243 0.42435 0.0
C195 C 0.93079 0.38378 0.25289 0.0
O196 O 0.92944 0.38566 0.21251 0.0
O197 O 0.95547 0.40818 0.20064 0.0
Zn198 Zn 0.94792 0.40713 0.25696 0.0
O199 O 0.95919 0.41435 0.30368 0.0
C200 C 0.93466 0.41487 0.21576 0.0
O201 O 0.93534 0.40935 0.18283 0.0
O202 O 0.93803 0.39155 0.27566 0.0
C203 C 0.96411 0.4246 0.31197 0.0
O204 O 0.96201 0.43113 0.28847 0.0
C205 C 0.9646 0.40835 0.19822 0.0
O206 O 0.96909 0.40721 0.23356 0.0
O207 O 0.93925 0.4149 0.25113 0.0
C208 C 0.6005 0.54165 0.29406 0.0
O209 O 0.59237 0.53585 0.32092 0.0
O210 O 0.58057 0.54425 0.18731 0.0
Zn211 Zn 0.58241 0.53774 0.24225 0.0
O212 O 0.57519 0.54117 0.29107 0.0
C213 C 0.57527 0.51667 0.20166 0.0
O214 O 0.58074 0.52272 0.16832 0.0
O215 O 0.5983 0.54367 0.2566 0.0
C216 C 0.57739 0.55097 0.29858 0.0
O217 O 0.58442 0.55897 0.2735 0.0
C218 C 0.57089 0.5421 0.1778 0.0
O219 O 0.56277 0.53595 0.20417 0.0
O220 O 0.575 0.52136 0.23627 0.0
C221 C 0.44801 0.06099 0.25266 0.0
O222 O 0.44849 0.05953 0.21107 0.0
O223 O 0.44921 0.03715 0.20965 0.0
Zn224 Zn 0.45663 0.04598 0.26284 0.0
O225 O 0.45334 0.03557 0.31246 0.0
C226 C 0.47722 0.05864 0.21692 0.0
O227 O 0.47077 0.05742 0.18415 0.0
O228 O 0.45106 0.05612 0.27903 0.0
C229 C 0.45988 0.03807 0.34421 0.0
O230 O 0.46906 0.04762 0.34437 0.0
C231 C 0.4501 0.02868 0.2031 0.0
O232 O 0.45561 0.02624 0.23098 0.0
O233 O 0.47295 0.05458 0.25328 0.0
C234 C 0.60813 0.05988 0.24002 0.0
O235 O 0.60495 0.05463 0.20311 0.0
O236 O 0.58237 0.03898 0.20608 0.0
Zn237 Zn 0.58476 0.04849 0.25816 0.0
O238 O 0.57871 0.03901 0.31087 0.0
C239 C 0.57644 0.06096 0.21385 0.0
O240 O 0.58152 0.05973 0.18056 0.0
O241 O 0.60093 0.05873 0.26762 0.0
C242 C 0.569 0.03078 0.31237 0.0
O243 O 0.56261 0.02832 0.27838 0.0
C244 C 0.58286 0.03018 0.208 0.0
O245 O 0.5848 0.02702 0.24521 0.0
O246 O 0.57693 0.05702 0.25013 0.0
C247 C 0.93852 0.54929 0.25054 0.0
O248 O 0.94768 0.55552 0.22928 0.0
O249 O 0.95523 0.54093 0.19396 0.0
Zn250 Zn 0.94632 0.53386 0.24742 0.0
O251 O 0.95638 0.5372 0.2983 0.0
C252 C 0.93375 0.51273 0.20445 0.0
O253 O 0.93485 0.51873 0.17027 0.0
O254 O 0.93606 0.53954 0.26062 0.0
C255 C 0.96424 0.54688 0.30586 0.0
O256 O 0.96595 0.5549 0.2794 0.0
C257 C 0.96373 0.54015 0.18668 0.0
O258 O 0.96639 0.53473 0.21414 0.0
O259 O 0.93781 0.51747 0.24013 0.0
C260 C 0.44941 0.3897 0.25108 0.0
O261 O 0.45072 0.39174 0.20953 0.0
O262 O 0.45022 0.41454 0.20607 0.0
Zn263 Zn 0.45724 0.41317 0.26041 0.0
O264 O 0.45372 0.42043 0.30877 0.0
C265 C 0.47779 0.42009 0.21652 0.0
O266 O 0.47129 0.41425 0.18476 0.0
O267 O 0.4516 0.39749 0.27722 0.0
C268 C 0.45995 0.42435 0.34145 0.0
O269 O 0.46903 0.4238 0.34337 0.0
C270 C 0.45196 0.42414 0.19741 0.0
O271 O 0.45797 0.43224 0.22408 0.0
O272 O 0.47358 0.42071 0.25192 0.0
C273 C 0.39793 0.27859 0.40619 0.0
O274 O 0.39609 0.27603 0.44725 0.0
O275 O 0.37453 0.25391 0.44708 0.0
Zn276 Zn 0.38273 0.25531 0.39185 0.0
O277 O 0.37215 0.249 0.34245 0.0
C278 C 0.39528 0.24635 0.43143 0.0
O279 O 0.39461 0.25135 0.46615 0.0
O280 O 0.39321 0.2711 0.37802 0.0
C281 C 0.36616 0.2387 0.33626 0.0
O282 O 0.36679 0.23181 0.36322 0.0
C283 C 0.36471 0.25214 0.44702 0.0
O284 O 0.35981 0.25136 0.41008 0.0
O285 O 0.39094 0.24708 0.39658 0.0
C286 C 0.71956 0.10595 0.38768 0.0
O287 O 0.72565 0.102 0.37269 0.0
O288 O 0.74203 0.11415 0.48233 0.0
Zn289 Zn 0.73984 0.12086 0.42867 0.0
O290 O 0.74774 0.11847 0.37942 0.0
C291 C 0.74661 0.14165 0.47238 0.0
O292 O 0.74201 0.13543 0.50639 0.0
O293 O 0.7238 0.11402 0.41378 0.0
C294 C 0.74935 0.12375 0.34438 0.0
O295 O 0.74595 0.13092 0.34106 0.0
C296 C 0.75179 0.11632 0.49052 0.0
O297 O 0.75974 0.12271 0.46393 0.0
O298 O 0.74645 0.13714 0.43665 0.0
C299 C 0.88354 0.60331 0.42788 0.0
O300 O 0.88694 0.60839 0.46506 0.0
O301 O 0.87866 0.62414 0.47359 0.0
Zn302 Zn 0.87255 0.61626 0.41738 0.0
O303 O 0.87794 0.62727 0.36911 0.0
C304 C 0.85055 0.60602 0.4533 0.0
O305 O 0.85577 0.60798 0.49028 0.0
O306 O 0.87735 0.6053 0.40421 0.0
C307 C 0.87745 0.63606 0.3707 0.0
O308 O 0.87331 0.63812 0.40511 0.0
C309 C 0.88842 0.63221 0.47701 0.0
O310 O 0.89495 0.63529 0.44323 0.0
O311 O 0.85605 0.60869 0.41844 0.0
C312 C 0.38593 0.93654 0.75719 0.0
O313 O 0.38798 0.94535 0.77931 0.0
O314 O 0.4113 0.9544 0.81516 0.0
Zn315 Zn 0.40958 0.94642 0.75914 0.0
O316 O 0.41518 0.95722 0.71021 0.0
C317 C 0.41897 0.93382 0.79412 0.0
O318 O 0.41241 0.93233 0.8268 0.0
O319 O 0.39387 0.93511 0.74649 0.0
C320 C 0.42512 0.96502 0.70922 0.0
O321 O 0.43172 0.96611 0.74123 0.0
C322 C 0.4112 0.9634 0.81736 0.0
O323 O 0.40941 0.9675 0.78224 0.0
O324 O 0.41888 0.9393 0.76169 0.0
C325 C 0.05438 0.44327 0.73757 0.0
O326 O 0.04394 0.43621 0.74497 0.0
O327 O 0.0382 0.45113 0.80711 0.0
Zn328 Zn 0.04704 0.45854 0.75384 0.0
O329 O 0.03684 0.45454 0.7028 0.0
C330 C 0.05922 0.47972 0.79729 0.0
O331 O 0.05832 0.4738 0.83148 0.0
O332 O 0.0578 0.45351 0.74087 0.0
C333 C 0.03519 0.46152 0.68294 0.0
O334 O 0.04019 0.4718 0.6961 0.0
C335 C 0.02894 0.45059 0.81192 0.0
O336 O 0.02555 0.45488 0.78221 0.0
O337 O 0.05517 0.47492 0.76171 0.0
C338 C 0.54711 0.61157 0.76813 0.0
O339 O 0.55042 0.60713 0.79754 0.0
O340 O 0.53695 0.58327 0.79325 0.0
Zn341 Zn 0.53229 0.58886 0.7423 0.0
O342 O 0.53686 0.58462 0.68758 0.0
C343 C 0.51105 0.58243 0.77743 0.0
O344 O 0.51702 0.588 0.81076 0.0
O345 O 0.53936 0.60536 0.74272 0.0
C346 C 0.5341 0.57471 0.67882 0.0
O347 O 0.52795 0.56688 0.70628 0.0
C348 C 0.54599 0.58322 0.79425 0.0
O349 O 0.55273 0.58714 0.76122 0.0
O350 O 0.51587 0.58188 0.74362 0.0
C351 C 0.61492 0.72379 0.63353 0.0
O352 O 0.62532 0.72934 0.64512 0.0
O353 O 0.62978 0.74681 0.54535 0.0
Zn354 Zn 0.62071 0.7447 0.59859 0.0
O355 O 0.63065 0.75162 0.64982 0.0
C356 C 0.60685 0.75139 0.55449 0.0
O357 O 0.60783 0.74587 0.52221 0.0
O358 O 0.61094 0.72862 0.61147 0.0
C359 C 0.63387 0.7613 0.66356 0.0
O360 O 0.63086 0.76758 0.64321 0.0
C361 C 0.63631 0.7566 0.53282 0.0
O362 O 0.63692 0.76485 0.55512 0.0
O363 O 0.61151 0.75183 0.59011 0.0
C364 C 0.27977 0.88096 0.55905 0.0
O365 O 0.27842 0.88571 0.52497 0.0
O366 O 0.25423 0.87531 0.50831 0.0
Zn367 Zn 0.25572 0.86904 0.56456 0.0
O368 O 0.24988 0.87424 0.61262 0.0
C369 C 0.24562 0.84727 0.52739 0.0
O370 O 0.25075 0.85267 0.49239 0.0
O371 O 0.27138 0.87364 0.57902 0.0
C372 C 0.24034 0.87319 0.61166 0.0
O373 O 0.23402 0.86861 0.57791 0.0
C374 C 0.25542 0.88489 0.50516 0.0
O375 O 0.25824 0.89124 0.5394 0.0
O376 O 0.24672 0.85257 0.56198 0.0
C377 C 0.11816 0.39903 0.55657 0.0
O378 O 0.11629 0.39554 0.51652 0.0
O379 O 0.12227 0.37783 0.50952 0.0
Zn380 Zn 0.12851 0.38545 0.56607 0.0
O381 O 0.12321 0.37418 0.61332 0.0
C382 C 0.1503 0.3938 0.53028 0.0
O383 O 0.14479 0.38981 0.4943 0.0
O384 O 0.12337 0.39603 0.5814 0.0
C385 C 0.12323 0.36514 0.61068 0.0
O386 O 0.12689 0.36288 0.57538 0.0
C387 C 0.11246 0.36994 0.50507 0.0
O388 O 0.10575 0.36677 0.53831 0.0
O389 O 0.14508 0.39313 0.5647 0.0
C390 C 0.27505 0.37995 0.5988 0.0
O391 O 0.26989 0.36928 0.60578 0.0
O392 O 0.25304 0.36456 0.51297 0.0
Zn393 Zn 0.25417 0.37384 0.56419 0.0
O394 O 0.24675 0.36379 0.61483 0.0
C395 C 0.24806 0.39083 0.57036 0.0
O396 O 0.25572 0.39503 0.60016 0.0
O397 O 0.26999 0.38411 0.57953 0.0
C398 C 0.2478 0.36763 0.65273 0.0
O399 O 0.25372 0.37832 0.65872 0.0
C400 C 0.24362 0.35631 0.50508 0.0
O401 O 0.23533 0.35436 0.53043 0.0
O402 O 0.24628 0.38213 0.55074 0.0
C403 C 0.59733 0.87742 0.54226 0.0
O404 O 0.60239 0.87891 0.50514 0.0
O405 O 0.61938 0.87216 0.51682 0.0
Zn406 Zn 0.60942 0.86638 0.56842 0.0
O407 O 0.61889 0.87136 0.6213 0.0
C408 C 0.59709 0.84458 0.53221 0.0
O409 O 0.59766 0.85003 0.49692 0.0
O410 O 0.59894 0.87217 0.57206 0.0
C411 C 0.61486 0.8675 0.65815 0.0
O412 O 0.60437 0.86007 0.6613 0.0
C413 C 0.62639 0.88233 0.51237 0.0
O414 O 0.62686 0.88938 0.54137 0.0
O415 O 0.60129 0.84989 0.56677 0.0
C416 C 0.11878 0.72176 0.60274 0.0
O417 O 0.12393 0.72449 0.5655 0.0
O418 O 0.11646 0.74625 0.55571 0.0
Zn419 Zn 0.12421 0.74477 0.60769 0.0
O420 O 0.12191 0.75243 0.6579 0.0
C421 C 0.14421 0.75221 0.55836 0.0
O422 O 0.13734 0.74749 0.52618 0.0
O423 O 0.11799 0.72898 0.6246 0.0
C424 C 0.11213 0.74917 0.67038 0.0
O425 O 0.1039 0.74107 0.64958 0.0
C426 C 0.11754 0.75566 0.54857 0.0
O427 O 0.12351 0.76379 0.57519 0.0
O428 O 0.14041 0.75188 0.59586 0.0
C429 C 0.06009 0.61112 0.76298 0.0
O430 O 0.05419 0.60908 0.79823 0.0
O431 O 0.0388 0.58465 0.80265 0.0
Zn432 Zn 0.04744 0.58731 0.74789 0.0
O433 O 0.03735 0.58233 0.69673 0.0
C434 C 0.06023 0.57882 0.78551 0.0
O435 O 0.06048 0.585 0.81784 0.0
O436 O 0.0586 0.60321 0.7387 0.0
C437 C 0.02982 0.5724 0.69091 0.0
O438 O 0.02836 0.56492 0.71972 0.0
C439 C 0.03002 0.58515 0.80569 0.0
O440 O 0.02641 0.58802 0.77184 0.0
O441 O 0.05519 0.5786 0.75118 0.0
C442 C 0.38407 0.44701 0.76889 0.0
O443 O 0.38791 0.44291 0.7976 0.0
O444 O 0.41148 0.45835 0.81054 0.0
Zn445 Zn 0.40717 0.4632 0.75634 0.0
O446 O 0.41334 0.45935 0.70513 0.0
C447 C 0.41372 0.48473 0.79116 0.0
O448 O 0.40877 0.47911 0.82605 0.0
O449 O 0.39073 0.45576 0.74888 0.0
C450 C 0.42338 0.46186 0.70354 0.0
O451 O 0.42989 0.4671 0.73615 0.0
C452 C 0.41198 0.44955 0.8119 0.0
O453 O 0.40931 0.44326 0.77752 0.0
O454 O 0.4138 0.47959 0.75756 0.0
C455 C 0.55572 0.94485 0.70488 0.0
O456 O 0.55963 0.95493 0.69029 0.0
O457 O 0.55246 0.95971 0.8121 0.0
Zn458 Zn 0.54371 0.95155 0.75943 0.0
O459 O 0.54526 0.96229 0.71309 0.0
C460 C 0.5239 0.94777 0.79781 0.0
O461 O 0.53058 0.95801 0.80965 0.0
O462 O 0.54884 0.94151 0.73579 0.0
C463 C 0.53871 0.9594 0.68125 0.0
O464 O 0.5305 0.9492 0.67908 0.0
C465 C 0.55817 0.97017 0.81254 0.0
O466 O 0.55887 0.97568 0.77732 0.0
O467 O 0.52773 0.94283 0.77564 0.0
C468 C 0.0929 0.26487 0.15068 0.0
C469 C 0.09108 0.26823 0.11033 0.0
C470 C 0.10013 0.26076 0.15457 0.0
C471 C 0.11538 0.25015 0.09133 0.0
H472 H 0.13787 0.26471 0.1787 0.0
C473 C 0.15957 0.25887 0.07214 0.0
C474 C 0.16561 0.2591 0.10861 0.0
C475 C 0.14877 0.25671 0.07633 0.0
C476 C 0.13153 0.26034 0.15474 0.0
H477 H 0.09498 0.26942 0.04216 0.0
H478 H 0.10759 0.26236 0.049 0.0
H479 H 0.12171 0.26688 0.17913 0.0
H480 H 0.16482 0.25654 0.17778 0.0
H481 H 0.14589 0.25275 0.18505 0.0
H482 H 0.12546 0.244 0.06587 0.0
C483 C 0.1034 0.26281 0.07761 0.0
C484 C 0.12226 0.2616 0.15499 0.0
C485 C 0.09624 0.26696 0.07376 0.0
C486 C 0.16041 0.2565 0.14908 0.0
C487 C 0.14959 0.25438 0.15329 0.0
C488 C 0.12465 0.24888 0.0911 0.0
C489 C 0.10559 0.25985 0.11814 0.0
C490 C 0.11428 0.25683 0.12241 0.0
C491 C 0.14376 0.25474 0.11709 0.0
C492 C 0.13301 0.25428 0.12194 0.0
H493 H 0.089 0.2657 0.17944 0.0
H494 H 0.10159 0.25846 0.18618 0.0
H495 H 0.10926 0.2462 0.06627 0.0
H496 H 0.16332 0.26077 0.04045 0.0
H497 H 0.14456 0.25718 0.04783 0.0
C498 C 0.74033 0.83822 0.10861 0.0
C499 C 0.73707 0.83299 0.06834 0.0
C500 C 0.743 0.8492 0.11335 0.0
C501 C 0.74757 0.87417 0.05231 0.0
H502 H 0.7327 0.87793 0.15069 0.0
C503 C 0.72912 0.90257 0.05369 0.0
C504 C 0.72946 0.90814 0.09183 0.0
C505 C 0.7334 0.89549 0.05264 0.0
C506 C 0.73712 0.87714 0.12353 0.0
H507 H 0.73475 0.83535 0.00091 0.0
H508 H 0.73906 0.85432 0.00932 0.0
H509 H 0.73439 0.86157 0.14561 0.0
H510 H 0.73504 0.91105 0.15823 0.0
H511 H 0.74242 0.89851 0.15648 0.0
H512 H 0.74965 0.88951 0.02916 0.0
C513 C 0.73976 0.85008 0.03721 0.0
C514 C 0.73811 0.86775 0.12061 0.0
C515 C 0.73721 0.83915 0.0324 0.0
C516 C 0.73461 0.90684 0.12841 0.0
C517 C 0.73881 0.89966 0.12747 0.0
C518 C 0.74648 0.88354 0.05509 0.0
C519 C 0.74235 0.85513 0.07802 0.0
C520 C 0.74306 0.86598 0.08435 0.0
C521 C 0.73805 0.89375 0.08979 0.0
C522 C 0.74096 0.88495 0.09015 0.0
H523 H 0.74045 0.83373 0.13683 0.0
H524 H 0.7452 0.85291 0.14505 0.0
H525 H 0.75162 0.87318 0.02437 0.0
H526 H 0.72527 0.90346 0.02487 0.0
H527 H 0.73259 0.89096 0.02328 0.0
C528 C 0.09884 0.83476 0.10388 0.0
C529 C 0.09361 0.82947 0.14242 0.0
C530 C 0.10754 0.84561 0.10435 0.0
C531 C 0.12963 0.86447 0.17508 0.0
H532 H 0.13557 0.88524 0.08226 0.0
C533 C 0.17195 0.9037 0.1582 0.0
C534 C 0.17649 0.90535 0.11662 0.0
C535 C 0.16077 0.89624 0.16498 0.0
C536 C 0.13402 0.87953 0.10844 0.0
H537 H 0.09302 0.8316 0.21144 0.0
H538 H 0.10828 0.85059 0.21221 0.0
H539 H 0.11745 0.86871 0.08778 0.0
H540 H 0.17275 0.90085 0.04927 0.0
H541 H 0.15337 0.88777 0.06114 0.0
H542 H 0.14631 0.87498 0.19467 0.0
C543 C 0.10568 0.84629 0.18171 0.0
C544 C 0.12365 0.87008 0.11162 0.0
C545 C 0.09692 0.83543 0.18122 0.0
C546 C 0.16953 0.89974 0.08175 0.0
C547 C 0.15838 0.89231 0.08851 0.0
C548 C 0.14 0.87389 0.17186 0.0
C549 C 0.11122 0.85141 0.14338 0.0
C550 C 0.12146 0.86229 0.14421 0.0
C551 C 0.15391 0.89031 0.13029 0.0
C552 C 0.14242 0.88135 0.13772 0.0
H553 H 0.09646 0.83042 0.07341 0.0
H554 H 0.11172 0.84927 0.07433 0.0
H555 H 0.12824 0.85856 0.20028 0.0
H556 H 0.17708 0.90795 0.18572 0.0
H557 H 0.15754 0.89497 0.19748 0.0
C558 C 0.26416 0.09665 0.82656 0.0
C559 C 0.26574 0.09457 0.86951 0.0
C560 C 0.26132 0.10467 0.81702 0.0
C561 C 0.25138 0.12232 0.86573 0.0
H562 H 0.27118 0.14417 0.78384 0.0
C563 C 0.26535 0.16801 0.87952 0.0
C564 C 0.26782 0.17454 0.8423 0.0
C565 C 0.2619 0.15683 0.87635 0.0
C566 C 0.26538 0.13805 0.80601 0.0
H567 H 0.26501 0.09881 0.9362 0.0
H568 H 0.26014 0.11278 0.91959 0.0
H569 H 0.27078 0.12668 0.78998 0.0
H570 H 0.26802 0.17433 0.77242 0.0
H571 H 0.26199 0.15471 0.76689 0.0
H572 H 0.24635 0.13392 0.88311 0.0
C573 C 0.26101 0.1082 0.89325 0.0
C574 C 0.26516 0.12801 0.80955 0.0
C575 C 0.2639 0.10026 0.90276 0.0
C576 C 0.26624 0.16953 0.80171 0.0
C577 C 0.26282 0.15831 0.79853 0.0
C578 C 0.25159 0.13235 0.86214 0.0
C579 C 0.25993 0.11067 0.85026 0.0
C580 C 0.25847 0.12022 0.8406 0.0
C581 C 0.26086 0.1519 0.83588 0.0
C582 C 0.2589 0.14049 0.83342 0.0
H583 H 0.26547 0.09237 0.80022 0.0
H584 H 0.26046 0.10635 0.78361 0.0
H585 H 0.246 0.11638 0.8894 0.0
H586 H 0.26642 0.17161 0.9113 0.0
H587 H 0.2606 0.15219 0.90579 0.0
C588 C 0.83509 0.09596 0.84545 0.0
C589 C 0.83024 0.09417 0.88648 0.0
C590 C 0.84611 0.10407 0.83938 0.0
C591 C 0.87203 0.12313 0.89708 0.0
H592 H 0.87502 0.14388 0.80811 0.0
C593 C 0.90079 0.16948 0.91191 0.0
C594 C 0.90549 0.17594 0.87494 0.0
C595 C 0.89385 0.15812 0.90847 0.0
C596 C 0.87447 0.13808 0.83241 0.0
H597 H 0.83332 0.09891 0.95381 0.0
H598 H 0.85243 0.11304 0.94323 0.0
H599 H 0.85851 0.12584 0.81078 0.0
H600 H 0.90713 0.17547 0.80557 0.0
H601 H 0.89494 0.15555 0.79957 0.0
H602 H 0.88779 0.13562 0.91993 0.0
C603 C 0.84779 0.10818 0.91572 0.0
C604 C 0.86499 0.12772 0.83395 0.0
C605 C 0.83679 0.10014 0.92173 0.0
C606 C 0.90356 0.17072 0.83463 0.0
C607 C 0.89657 0.15933 0.83117 0.0
C608 C 0.88153 0.13349 0.8955 0.0
C609 C 0.85248 0.11046 0.8743 0.0
C610 C 0.86347 0.12031 0.86733 0.0
C611 C 0.89143 0.15295 0.86797 0.0
C612 C 0.88264 0.14124 0.86419 0.0
H613 H 0.83027 0.09145 0.81767 0.0
H614 H 0.84953 0.10558 0.80717 0.0
H615 H 0.87116 0.11751 0.92272 0.0
H616 H 0.90216 0.17323 0.9435 0.0
H617 H 0.88992 0.1535 0.93742 0.0
C618 C 0.82054 0.72355 0.86192 0.0
C619 C 0.81217 0.71272 0.85293 0.0
C620 C 0.83161 0.72632 0.86076 0.0
C621 C 0.84809 0.71339 0.87891 0.0
H622 H 0.87223 0.73924 0.82557 0.0
C623 C 0.89546 0.72832 0.83466 0.0
C624 C 0.89886 0.7262 0.87438 0.0
C625 C 0.88556 0.72845 0.83164 0.0
C626 C 0.86554 0.73201 0.8406 0.0
H627 H 0.80887 0.69648 0.83332 0.0
H628 H 0.82811 0.7013 0.83167 0.0
H629 H 0.85329 0.73576 0.81816 0.0
H630 H 0.89497 0.72336 0.94258 0.0
H631 H 0.87777 0.72355 0.93713 0.0
H632 H 0.86018 0.70956 0.90134 0.0
C633 C 0.82611 0.70761 0.83996 0.0
C634 C 0.85476 0.73005 0.83653 0.0
C635 C 0.8151 0.70487 0.84081 0.0
C636 C 0.89253 0.72488 0.91138 0.0
C637 C 0.88266 0.72497 0.9083 0.0
C638 C 0.85882 0.71541 0.88341 0.0
C639 C 0.83445 0.71828 0.85093 0.0
C640 C 0.84594 0.72065 0.85534 0.0
C641 C 0.87892 0.72641 0.86823 0.0
C642 C 0.86765 0.7247 0.86424 0.0
H643 H 0.81854 0.7298 0.8712 0.0
H644 H 0.83791 0.7346 0.86945 0.0
H645 H 0.84145 0.70615 0.89415 0.0
H646 H 0.90018 0.72942 0.8056 0.0
H647 H 0.88284 0.72955 0.80033 0.0
C648 C 0.8328 0.6013 0.48982 0.0
C649 C 0.83855 0.60175 0.45211 0.0
C650 C 0.82174 0.59852 0.48776 0.0
C651 C 0.8025 0.59966 0.4108 0.0
H652 H 0.78088 0.58424 0.50044 0.0
C653 C 0.76002 0.59576 0.4016 0.0
C654 C 0.7566 0.59873 0.43933 0.0
C655 C 0.76869 0.59357 0.40279 0.0
C656 C 0.78685 0.58857 0.4752 0.0
H657 H 0.83704 0.59888 0.38311 0.0
H658 H 0.81774 0.59383 0.37964 0.0
H659 H 0.79866 0.58494 0.50305 0.0
H660 H 0.75914 0.60108 0.50835 0.0
H661 H 0.77442 0.59745 0.51028 0.0
H662 H 0.79091 0.60356 0.3835 0.0
C663 C 0.82182 0.59591 0.41066 0.0
C664 C 0.79702 0.58898 0.4767 0.0
C665 C 0.83288 0.59876 0.41267 0.0
C666 C 0.76161 0.59885 0.47869 0.0
C667 C 0.77033 0.59671 0.47984 0.0
C668 C 0.79237 0.59924 0.40927 0.0
C669 C 0.81622 0.59607 0.44797 0.0
C670 C 0.80502 0.59466 0.44478 0.0
C671 C 0.77417 0.59436 0.44168 0.0
C672 C 0.78447 0.59381 0.4417 0.0
H673 H 0.83694 0.60354 0.52072 0.0
H674 H 0.8177 0.59881 0.51706 0.0
H675 H 0.80854 0.60431 0.38617 0.0
H676 H 0.75623 0.59545 0.37083 0.0
H677 H 0.77132 0.59157 0.37298 0.0
C678 C 0.40005 0.16599 0.37777 0.0
C679 C 0.39763 0.15878 0.41277 0.0
C680 C 0.40372 0.17714 0.38478 0.0
C681 C 0.40122 0.19454 0.46671 0.0
H682 H 0.41921 0.21788 0.3863 0.0
C683 C 0.40255 0.23606 0.47335 0.0
C684 C 0.40002 0.23902 0.43352 0.0
C685 C 0.40566 0.22802 0.4754 0.0
C686 C 0.41423 0.21146 0.40918 0.0
H687 H 0.39804 0.15776 0.48245 0.0
H688 H 0.40464 0.17726 0.49463 0.0
H689 H 0.41871 0.20023 0.38178 0.0
H690 H 0.39951 0.23646 0.36439 0.0
H691 H 0.40484 0.22244 0.36801 0.0
H692 H 0.3964 0.20557 0.49305 0.0
C693 C 0.40343 0.17425 0.4618 0.0
C694 C 0.41391 0.20135 0.40654 0.0
C695 C 0.39968 0.16308 0.45481 0.0
C696 C 0.40132 0.2343 0.39563 0.0
C697 C 0.40448 0.22633 0.39766 0.0
C698 C 0.40158 0.20464 0.46945 0.0
C699 C 0.40513 0.18133 0.42693 0.0
C700 C 0.40711 0.19265 0.43435 0.0
C701 C 0.40638 0.22287 0.43763 0.0
C702 C 0.40778 0.21308 0.43981 0.0
H703 H 0.39858 0.16293 0.34498 0.0
H704 H 0.40484 0.18232 0.35715 0.0
H705 H 0.39578 0.188 0.4883 0.0
H706 H 0.4017 0.2396 0.5031 0.0
H707 H 0.40718 0.22559 0.50663 0.0
C708 C 0.82197 0.2297 0.43001 0.0
C709 C 0.82855 0.23557 0.46536 0.0
C710 C 0.811 0.22159 0.43601 0.0
C711 C 0.79389 0.20175 0.51721 0.0
H712 H 0.77092 0.19423 0.43232 0.0
C713 C 0.75505 0.15894 0.51664 0.0
C714 C 0.75292 0.15378 0.47614 0.0
C715 C 0.76216 0.17031 0.52028 0.0
C716 C 0.77723 0.19624 0.45643 0.0
H717 H 0.82859 0.23802 0.53441 0.0
H718 H 0.80938 0.22377 0.54489 0.0
H719 H 0.78762 0.21227 0.42966 0.0
H720 H 0.75599 0.1566 0.40748 0.0
H721 H 0.76842 0.17629 0.41384 0.0
H722 H 0.78382 0.18555 0.5426 0.0
C723 C 0.81277 0.22541 0.51259 0.0
C724 C 0.78677 0.20657 0.45492 0.0
C725 C 0.82375 0.23359 0.50655 0.0
C726 C 0.75752 0.1603 0.43921 0.0
C727 C 0.76457 0.17163 0.44282 0.0
C728 C 0.78435 0.19142 0.51867 0.0
C729 C 0.80636 0.21914 0.47752 0.0
C730 C 0.79538 0.20927 0.48431 0.0
C731 C 0.76721 0.17674 0.48347 0.0
C732 C 0.77611 0.1884 0.48729 0.0
H733 H 0.8254 0.23108 0.39781 0.0
H734 H 0.80633 0.21683 0.40837 0.0
H735 H 0.8004 0.20353 0.54008 0.0
H736 H 0.75157 0.15416 0.54569 0.0
H737 H 0.76394 0.17403 0.55199 0.0
C738 C 0.92756 0.49435 0.23797 0.0
C739 C 0.92886 0.50065 0.20092 0.0
C740 C 0.92423 0.4832 0.23455 0.0
C741 C 0.92602 0.46432 0.15876 0.0
H742 H 0.90982 0.44296 0.24833 0.0
C743 C 0.92652 0.42367 0.16968 0.0
C744 C 0.92965 0.42191 0.21061 0.0
C745 C 0.92305 0.43137 0.16415 0.0
C746 C 0.91431 0.44881 0.22294 0.0
H747 H 0.92701 0.50003 0.13141 0.0
H748 H 0.92114 0.48047 0.12547 0.0
H749 H 0.90955 0.46023 0.24581 0.0
H750 H 0.93097 0.42634 0.27822 0.0
H751 H 0.92501 0.43977 0.26855 0.0
H752 H 0.93116 0.45314 0.13697 0.0
C753 C 0.92284 0.48422 0.15711 0.0
C754 C 0.91416 0.4587 0.2215 0.0
C755 C 0.92617 0.49541 0.16054 0.0
C756 C 0.92867 0.42754 0.24622 0.0
C757 C 0.92516 0.43518 0.24073 0.0
C758 C 0.92614 0.45443 0.16012 0.0
C759 C 0.9221 0.47806 0.19402 0.0
C760 C 0.92036 0.46674 0.19038 0.0
C761 C 0.92258 0.43739 0.19949 0.0
C762 C 0.92062 0.44675 0.19318 0.0
H763 H 0.9295 0.49811 0.26961 0.0
H764 H 0.92389 0.47875 0.2636 0.0
H765 H 0.93097 0.47037 0.13462 0.0
H766 H 0.92712 0.41941 0.14161 0.0
H767 H 0.92102 0.43282 0.13205 0.0
C768 C 0.56657 0.49933 0.15771 0.0
C769 C 0.56858 0.50456 0.19804 0.0
C770 C 0.55906 0.48805 0.15395 0.0
C771 C 0.54234 0.46238 0.21753 0.0
H772 H 0.51976 0.45672 0.13297 0.0
C773 C 0.49674 0.43233 0.24507 0.0
C774 C 0.48983 0.42669 0.21016 0.0
C775 C 0.50794 0.43956 0.23855 0.0
C776 C 0.52609 0.45801 0.15607 0.0
H777 H 0.56494 0.50193 0.2664 0.0
H778 H 0.55184 0.48239 0.25984 0.0
H779 H 0.53721 0.47391 0.13019 0.0
H780 H 0.48936 0.42369 0.14138 0.0
H781 H 0.50899 0.43643 0.12998 0.0
H782 H 0.53092 0.44672 0.24485 0.0
C783 C 0.55606 0.48692 0.23109 0.0
C784 C 0.53612 0.46789 0.15446 0.0
C785 C 0.56349 0.49817 0.23481 0.0
C786 C 0.49446 0.42799 0.1689 0.0
C787 C 0.50569 0.43529 0.16233 0.0
C788 C 0.5323 0.4525 0.21916 0.0
C789 C 0.55352 0.48179 0.1905 0.0
C790 C 0.54415 0.47038 0.18629 0.0
C791 C 0.51249 0.44134 0.19696 0.0
C792 C 0.5239 0.45044 0.18955 0.0
H793 H 0.57042 0.50402 0.12881 0.0
H794 H 0.55734 0.48429 0.12231 0.0
H795 H 0.54847 0.46399 0.242 0.0
H796 H 0.49344 0.43145 0.27731 0.0
H797 H 0.51291 0.4442 0.26584 0.0
C798 C 0.56674 0.06807 0.16727 0.0
C799 C 0.56924 0.06577 0.2085 0.0
C800 C 0.55882 0.07125 0.16214 0.0
C801 C 0.54174 0.08036 0.22208 0.0
H802 H 0.51915 0.06196 0.13985 0.0
C803 C 0.49609 0.06551 0.24669 0.0
C804 C 0.48925 0.06375 0.21097 0.0
C805 C 0.50725 0.06916 0.24101 0.0
C806 C 0.52547 0.06738 0.16225 0.0
H807 H 0.56593 0.06572 0.27684 0.0
H808 H 0.5521 0.07114 0.26789 0.0
H809 H 0.53672 0.06244 0.13928 0.0
H810 H 0.48889 0.06504 0.14138 0.0
H811 H 0.50847 0.0714 0.13147 0.0
H812 H 0.53023 0.08484 0.24642 0.0
C813 C 0.55627 0.07057 0.23949 0.0
C814 C 0.53557 0.06766 0.16192 0.0
C815 C 0.56414 0.06736 0.2446 0.0
C816 C 0.49393 0.06625 0.16955 0.0
C817 C 0.50513 0.06986 0.16384 0.0
C818 C 0.53164 0.08007 0.22242 0.0
C819 C 0.5533 0.07227 0.19815 0.0
C820 C 0.54365 0.07382 0.19289 0.0
C821 C 0.51185 0.07112 0.19947 0.0
C822 C 0.52325 0.07325 0.19357 0.0
H823 H 0.57058 0.06699 0.13882 0.0
H824 H 0.55678 0.07261 0.12991 0.0
H825 H 0.54789 0.08535 0.24582 0.0
H826 H 0.49275 0.06373 0.27907 0.0
H827 H 0.51216 0.0699 0.26912 0.0
C828 C 0.43455 0.93239 0.7622 0.0
C829 C 0.42731 0.93032 0.79679 0.0
C830 C 0.44334 0.93045 0.76633 0.0
C831 C 0.46 0.92307 0.77711 0.0
H832 H 0.47672 0.93515 0.88216 0.0
C833 C 0.50459 0.93189 0.79137 0.0
C834 C 0.51198 0.9425 0.80692 0.0
C835 C 0.49323 0.92744 0.79638 0.0
C836 C 0.47213 0.9317 0.8527 0.0
H837 H 0.42318 0.92393 0.86194 0.0
H838 H 0.43853 0.92044 0.86902 0.0
H839 H 0.4582 0.93237 0.87666 0.0
H840 H 0.51327 0.95652 0.84176 0.0
H841 H 0.49357 0.94889 0.84971 0.0
H842 H 0.47423 0.92317 0.75199 0.0
C843 C 0.43749 0.92373 0.83893 0.0
C844 C 0.46145 0.92996 0.84973 0.0
C845 C 0.42868 0.92569 0.8348 0.0
C846 C 0.50781 0.94834 0.82926 0.0
C847 C 0.49648 0.94391 0.83419 0.0
C848 C 0.47071 0.92486 0.77999 0.0
C849 C 0.44508 0.92636 0.8051 0.0
C850 C 0.45542 0.92603 0.81129 0.0
C851 C 0.48904 0.9335 0.81705 0.0
C852 C 0.47705 0.92959 0.81723 0.0
H853 H 0.43371 0.93592 0.73238 0.0
H854 H 0.44909 0.93272 0.73979 0.0
H855 H 0.45549 0.91983 0.74734 0.0
H856 H 0.50755 0.92715 0.77427 0.0
H857 H 0.48772 0.91935 0.78327 0.0
C858 C 0.06522 0.56542 0.75479 0.0
C859 C 0.06484 0.57143 0.79031 0.0
C860 C 0.06846 0.55757 0.76004 0.0
C861 C 0.06772 0.53853 0.84089 0.0
H862 H 0.08339 0.53196 0.75364 0.0
C863 C 0.06697 0.49714 0.84064 0.0
C864 C 0.06402 0.49178 0.80051 0.0
C865 C 0.07038 0.50835 0.84377 0.0
C866 C 0.07903 0.53371 0.77838 0.0
H867 H 0.0681 0.57433 0.85882 0.0
H868 H 0.0737 0.56051 0.86799 0.0
H869 H 0.08348 0.54941 0.75093 0.0
H870 H 0.06292 0.49412 0.73192 0.0
H871 H 0.06868 0.51352 0.73742 0.0
H872 H 0.06275 0.52262 0.86703 0.0
C873 C 0.07143 0.56186 0.83616 0.0
C874 C 0.07909 0.5437 0.77684 0.0
C875 C 0.06825 0.56979 0.83085 0.0
C876 C 0.06508 0.49798 0.76339 0.0
C877 C 0.06849 0.50915 0.76649 0.0
C878 C 0.06762 0.52853 0.84234 0.0
C879 C 0.07135 0.55552 0.80096 0.0
C880 C 0.07311 0.54603 0.8072 0.0
C881 C 0.07095 0.51442 0.80679 0.0
C882 C 0.07294 0.52584 0.81018 0.0
H883 H 0.06269 0.56653 0.72309 0.0
H884 H 0.06818 0.55272 0.73237 0.0
H885 H 0.06295 0.54005 0.86453 0.0
H886 H 0.06631 0.49261 0.86982 0.0
H887 H 0.07232 0.51222 0.87522 0.0
C888 C 0.42209 0.50267 0.83114 0.0
C889 C 0.4203 0.4969 0.7922 0.0
C890 C 0.42957 0.51399 0.83299 0.0
C891 C 0.44681 0.5388 0.76535 0.0
H892 H 0.4684 0.54586 0.85575 0.0
C893 C 0.49262 0.56982 0.74506 0.0
C894 C 0.49893 0.57577 0.78084 0.0
C895 C 0.48138 0.56236 0.74948 0.0
C896 C 0.46234 0.54417 0.83087 0.0
H897 H 0.42433 0.4986 0.72408 0.0
H898 H 0.43741 0.51821 0.7274 0.0
H899 H 0.45111 0.52853 0.85837 0.0
H900 H 0.49824 0.57912 0.84869 0.0
H901 H 0.47857 0.56606 0.85637 0.0
H902 H 0.45837 0.55424 0.73672 0.0
C903 C 0.43302 0.51407 0.7565 0.0
C904 C 0.4524 0.53421 0.83238 0.0
C905 C 0.42558 0.50278 0.75467 0.0
C906 C 0.49363 0.57459 0.82057 0.0
C907 C 0.48237 0.56709 0.82502 0.0
C908 C 0.45677 0.54876 0.76381 0.0
C909 C 0.43535 0.51975 0.7959 0.0
C910 C 0.4447 0.53123 0.79879 0.0
C911 C 0.4762 0.56068 0.78978 0.0
C912 C 0.46481 0.55136 0.79572 0.0
H913 H 0.41808 0.49839 0.86057 0.0
H914 H 0.43109 0.51817 0.86372 0.0
H915 H 0.44095 0.53682 0.73941 0.0
H916 H 0.49643 0.57058 0.71394 0.0
H917 H 0.4769 0.55747 0.72178 0.0
C918 C 0.59026 0.82692 0.49129 0.0
C919 C 0.59293 0.83259 0.53077 0.0
C920 C 0.58786 0.81597 0.48947 0.0
C921 C 0.58192 0.79163 0.55714 0.0
H922 H 0.5997 0.78735 0.47209 0.0
C923 C 0.59989 0.76338 0.58373 0.0
C924 C 0.60123 0.75784 0.54858 0.0
C925 C 0.59563 0.77039 0.57769 0.0
C926 C 0.59446 0.78826 0.49544 0.0
H927 H 0.59441 0.83099 0.59965 0.0
H928 H 0.59037 0.81203 0.59643 0.0
H929 H 0.59775 0.8036 0.46816 0.0
H930 H 0.59861 0.75486 0.47984 0.0
H931 H 0.59116 0.76717 0.4693 0.0
H932 H 0.5791 0.77651 0.58559 0.0
C933 C 0.59005 0.81596 0.56686 0.0
C934 C 0.59334 0.79759 0.49317 0.0
C935 C 0.59247 0.82689 0.56867 0.0
C936 C 0.59774 0.75907 0.50754 0.0
C937 C 0.59351 0.76613 0.50146 0.0
C938 C 0.58306 0.78229 0.55944 0.0
C939 C 0.58803 0.81047 0.52712 0.0
C940 C 0.58737 0.79958 0.52486 0.0
C941 C 0.59262 0.77204 0.53635 0.0
C942 C 0.58966 0.78071 0.52946 0.0
H943 H 0.59047 0.83106 0.46154 0.0
H944 H 0.5862 0.81191 0.45844 0.0
H945 H 0.5771 0.79283 0.58157 0.0
H946 H 0.60246 0.76258 0.61581 0.0
H947 H 0.59519 0.77492 0.60517 0.0
C948 C 0.16346 0.76411 0.58496 0.0
C949 C 0.1562 0.75882 0.55051 0.0
C950 C 0.1746 0.77139 0.57731 0.0
C951 C 0.19232 0.79021 0.49375 0.0
H952 H 0.21539 0.79531 0.57509 0.0
C953 C 0.23462 0.82968 0.48624 0.0
C954 C 0.23777 0.83528 0.52583 0.0
C955 C 0.22623 0.81866 0.48457 0.0
C956 C 0.20905 0.79395 0.55197 0.0
H957 H 0.15509 0.75649 0.48119 0.0
H958 H 0.17462 0.7692 0.46787 0.0
H959 H 0.19748 0.77849 0.58035 0.0
H960 H 0.23508 0.83355 0.59494 0.0
H961 H 0.22045 0.81442 0.592 0.0
H962 H 0.2037 0.80585 0.4665 0.0
C963 C 0.17162 0.76782 0.50075 0.0
C964 C 0.1988 0.78434 0.55499 0.0
C965 C 0.16045 0.76052 0.50841 0.0
C966 C 0.2328 0.82949 0.56389 0.0
C967 C 0.22447 0.81848 0.56224 0.0
C968 C 0.20257 0.7998 0.49068 0.0
C969 C 0.17877 0.77354 0.53504 0.0
C970 C 0.1902 0.78256 0.52688 0.0
C971 C 0.2209 0.81302 0.52249 0.0
C972 C 0.21091 0.80195 0.5207 0.0
H973 H 0.16047 0.76295 0.61782 0.0
H974 H 0.17983 0.77575 0.60445 0.0
H975 H 0.18585 0.78916 0.47186 0.0
H976 H 0.23834 0.8339 0.45636 0.0
H977 H 0.22371 0.81462 0.45352 0.0
C978 C 0.23386 0.39215 0.52635 0.0
C979 C 0.24073 0.3954 0.56273 0.0
C980 C 0.22602 0.39543 0.52143 0.0
C981 C 0.2085 0.40164 0.58663 0.0
H982 H 0.20093 0.40968 0.47765 0.0
C983 C 0.16839 0.40289 0.56909 0.0
C984 C 0.16226 0.39783 0.53179 0.0
C985 C 0.1794 0.40557 0.57215 0.0
C986 C 0.20291 0.4074 0.5083 0.0
H987 H 0.24513 0.40502 0.62159 0.0
H988 H 0.23126 0.4106 0.61328 0.0
H989 H 0.21793 0.40898 0.48384 0.0
H990 H 0.16299 0.39205 0.46771 0.0
H991 H 0.182 0.39637 0.47347 0.0
H992 H 0.19325 0.39939 0.6106 0.0
C993 C 0.23198 0.40554 0.58858 0.0
C994 C 0.21266 0.40706 0.51184 0.0
C995 C 0.23994 0.40238 0.59322 0.0
C996 C 0.16749 0.39595 0.49691 0.0
C997 C 0.17845 0.39852 0.50013 0.0
C998 C 0.19869 0.40186 0.58299 0.0
C999 C 0.22482 0.40192 0.55304 0.0
C1000 C 0.21542 0.40393 0.55077 0.0
C1001 C 0.18448 0.40314 0.53814 0.0
C1002 C 0.19563 0.40447 0.54348 0.0
H1003 H 0.23432 0.38681 0.50219 0.0
H1004 H 0.22054 0.39243 0.49393 0.0
H1005 H 0.21035 0.39906 0.61689 0.0
H1006 H 0.16462 0.40456 0.59636 0.0
H1007 H 0.18386 0.40933 0.60158 0.0
C1008 C 0.03219 0.26081 0.09476 0.0
C1009 C 0.04092 0.26414 0.0654 0.0
C1010 C 0.02129 0.25452 0.08083 0.0
C1011 C 0.00393 0.23681 0.99177 0.0
H1012 H 0.98379 0.24662 0.02826 0.0
C1013 C 0.9622 0.22283 0.9077 0.0
C1014 C 0.95323 0.22083 0.93397 0.0
C1015 C 0.97277 0.22736 0.92522 0.0
C1016 C 0.98925 0.24366 0.01822 0.0
H1017 H 0.04506 0.26316 0.99873 0.0
H1018 H 0.02609 0.25228 0.97456 0.0
H1019 H 0.00239 0.25551 0.05741 0.0
H1020 H 0.94826 0.22175 0.99943 0.0
H1021 H 0.9666 0.22946 0.0299 0.0
H1022 H 0.9908 0.22501 0.95227 0.0
C1023 C 0.02765 0.25445 0.00834 0.0
C1024 C -9e-05 0.24876 0.03499 0.0
C1025 C 0.03853 0.26076 0.02218 0.0
C1026 C 0.95501 0.22328 0.97817 0.0
C1027 C 0.96554 0.22775 0.99566 0.0
C1028 C 0.99325 0.23169 0.97506 0.0
C1029 C 0.01891 0.25139 0.03736 0.0
C1030 C 0.00739 0.24545 0.02168 0.0
C1031 C 0.97456 0.22993 0.96937 0.0
C1032 C 0.98582 0.23512 0.98788 0.0
H1033 H 0.03376 0.26324 0.1283 0.0
H1034 H 0.01471 0.25217 0.10402 0.0
H1035 H 0.00948 0.23401 0.98129 0.0
H1036 H 0.96109 0.22103 0.87353 0.0
H1037 H 0.97958 0.22905 0.90401 0.0
C1038 C 0.76072 0.72152 0.99681 0.0
C1039 C 0.76714 0.7246 0.95917 0.0
C1040 C 0.75787 0.72872 0.01618 0.0
C1041 C 0.76484 0.75802 0.01875 0.0
H1042 H 0.73543 0.74545 0.06651 0.0
C1043 C 0.74347 0.78304 0.06115 0.0
C1044 C 0.73738 0.78032 0.09965 0.0
C1045 C 0.74821 0.77686 0.04727 0.0
C1046 C 0.74372 0.74907 0.05382 0.0
H1047 H 0.77566 0.73765 0.91233 0.0
H1048 H 0.77035 0.75012 0.94533 0.0
H1049 H 0.74132 0.7334 0.03468 0.0
H1050 H 0.73181 0.76927 0.15461 0.0
H1051 H 0.74001 0.75841 0.13004 0.0
H1052 H 0.76701 0.77376 0.03677 0.0
C1053 C 0.76773 0.74223 0.96051 0.0
C1054 C 0.74712 0.74216 0.03561 0.0
C1055 C 0.77071 0.73506 0.94139 0.0
C1056 C 0.73644 0.77155 0.12476 0.0
C1057 C 0.74108 0.76531 0.11063 0.0
C1058 C 0.76138 0.76495 0.03658 0.0
C1059 C 0.76123 0.73912 0.99806 0.0
C1060 C 0.75772 0.74654 0.01782 0.0
C1061 C 0.74684 0.76779 0.07141 0.0
C1062 C 0.75078 0.76052 0.05426 0.0
H1063 H 0.75796 0.71356 0.01163 0.0
H1064 H 0.75306 0.72612 0.04556 0.0
H1065 H 0.77312 0.76167 0.00596 0.0
H1066 H 0.74438 0.78978 0.04118 0.0
H1067 H 0.75255 0.77891 0.01679 0.0
C1068 C 0.22026 0.9581 0.01265 0.0
C1069 C 0.216 0.95501 0.05456 0.0
C1070 C 0.22389 0.96875 0.99771 0.0
C1071 C 0.23467 0.99695 0.03583 0.0
H1072 H 0.22931 0.00233 0.9181 0.0
C1073 C 0.25243 0.04097 0.97082 0.0
C1074 C 0.25751 0.04299 0.93018 0.0
C1075 C 0.24579 0.0302 0.98552 0.0
C1076 C 0.23092 0.00096 0.95098 0.0
H1077 H 0.21207 0.96065 0.11346 0.0
H1078 H 0.21848 0.97934 0.08727 0.0
H1079 H 0.22055 0.98348 0.94537 0.0
H1080 H 0.25927 0.0353 0.8724 0.0
H1081 H 0.24782 0.0165 0.89836 0.0
H1082 H 0.24526 0.01436 0.04122 0.0
C1083 C 0.21903 0.97349 0.06614 0.0
C1084 C 0.2259 0.99017 0.9666 0.0
C1085 C 0.21534 0.96278 0.08107 0.0
C1086 C 0.25547 0.03401 0.90387 0.0
C1087 C 0.24886 0.02323 0.91867 0.0
C1088 C 0.23971 0.00772 0.0202 0.0
C1089 C 0.22338 0.97658 0.02435 0.0
C1090 C 0.22786 0.98805 0.00898 0.0
C1091 C 0.24411 0.02122 0.96 0.0
C1092 C 0.23802 0.00984 0.97741 0.0
H1093 H 0.22086 0.95231 0.99133 0.0
H1094 H 0.22735 0.97093 0.96559 0.0
H1095 H 0.23646 0.99556 0.06844 0.0
H1096 H 0.25374 0.04771 0.99173 0.0
H1097 H 0.24209 0.02892 0.01718 0.0
C1098 C 0.96463 0.73354 0.92766 0.0
C1099 C 0.95555 0.73483 0.93731 0.0
C1100 C 0.97492 0.74056 0.94584 0.0
C1101 C 0.98734 0.75761 0.04102 0.0
H1102 H 0.01451 0.76837 0.97664 0.0
C1103 C 0.02969 0.77159 0.11942 0.0
C1104 C 0.03897 0.78061 0.10097 0.0
C1105 C 0.01931 0.76747 0.10053 0.0
C1106 C 0.007 0.76554 0.99498 0.0
H1107 H 0.95022 0.74473 0.97248 0.0
H1108 H 0.96822 0.75698 0.00433 0.0
H1109 H 0.99691 0.75866 0.93904 0.0
H1110 H 0.04455 0.79276 0.04962 0.0
H1111 H 0.02646 0.78556 0.01686 0.0
H1112 H -0.00255 0.76434 0.0971 0.0
C1113 C 0.96733 0.75048 0.9829 0.0
C1114 C 0.99693 0.7599 0.9735 0.0
C1115 C 0.95706 0.74351 0.96444 0.0
C1116 C 0.03758 0.78574 0.06448 0.0
C1117 C 0.02723 0.7816 0.04555 0.0
C1118 C -0.00258 0.76319 0.06257 0.0
C1119 C 0.97632 0.74898 0.97425 0.0
C1120 C 0.987 0.75576 0.99638 0.0
C1121 C 0.01804 0.77227 0.0628 0.0
C1122 C 0.00735 0.7671 0.03982 0.0
H1123 H 0.96374 0.72694 0.90684 0.0
H1124 H 0.98168 0.73915 0.93888 0.0
H1125 H 0.9798 0.75442 0.05953 0.0
H1126 H 0.03048 0.76747 0.14757 0.0
H1127 H 0.01238 0.76022 0.11439 0.0
C1128 C 0.25729 0.21105 0.00317 0.0
C1129 C 0.26101 0.2129 0.96027 0.0
C1130 C 0.25029 0.21475 0.01793 0.0
C1131 C 0.23072 0.22325 0.98134 0.0
H1132 H 0.23817 0.23975 0.08829 0.0
C1133 C 0.21308 0.25106 0.02651 0.0
C1134 C 0.21074 0.25187 0.06995 0.0
C1135 C 0.21817 0.24508 0.01481 0.0
C1136 C 0.23584 0.23499 0.05878 0.0
H1137 H 0.26018 0.2199 0.89901 0.0
H1138 H 0.24793 0.22633 0.92482 0.0
H1139 H 0.24904 0.23156 0.0645 0.0
H1140 H 0.21161 0.24675 0.13509 0.0
H1141 H 0.22039 0.23613 0.11451 0.0
H1142 H 0.21757 0.22672 0.97539 0.0
C1143 C 0.25039 0.22198 0.94694 0.0
C1144 C 0.2421 0.23032 0.04512 0.0
C1145 C 0.25746 0.21836 0.93225 0.0
C1146 C 0.21335 0.24632 0.10137 0.0
C1147 C 0.21843 0.24029 0.0896 0.0
C1148 C 0.22443 0.22785 0.99512 0.0
C1149 C 0.24681 0.22028 0.99 0.0
C1150 C 0.2397 0.22456 0.00592 0.0
C1151 C 0.22099 0.2397 0.04621 0.0
C1152 C 0.22703 0.23394 0.03363 0.0
H1153 H 0.25987 0.20686 0.02556 0.0
H1154 H 0.24758 0.21326 0.05119 0.0
H1155 H 0.22859 0.2187 0.95133 0.0
H1156 H 0.2112 0.25525 0.00147 0.0
H1157 H 0.22017 0.24495 0.98119 0.0
C1158 C 0.77589 0.03493 0.90713 0.0
C1159 C 0.7822 0.04386 0.93468 0.0
C1160 C 0.77064 0.02415 0.92299 0.0
C1161 C 0.76002 0.00881 0.02429 0.0
H1162 H 0.7579 0.98433 0.9584 0.0
C1163 C 0.73882 0.96441 0.09136 0.0
C1164 C 0.7318 0.95606 0.06276 0.0
C1165 C 0.74571 0.97513 0.07644 0.0
C1166 C 0.75836 0.99108 0.97704 0.0
H1167 H 0.78833 0.04846 6e-05 0.0
H1168 H 0.77928 0.02968 0.02743 0.0
H1169 H 0.76877 0.00304 0.93042 0.0
H1170 H 0.72653 0.95243 0.99604 0.0
H1171 H 0.73844 0.9711 0.97028 0.0
H1172 H 0.74951 0.99686 0.07064 0.0
C1173 C 0.77822 0.03101 0.99381 0.0
C1174 C 0.76458 0.00178 0.96101 0.0
C1175 C 0.78345 0.04177 0.97802 0.0
C1176 C 0.73185 0.95865 0.01896 0.0
C1177 C 0.73874 0.96935 0.00408 0.0
C1178 C 0.75381 0.99811 0.04031 0.0
C1179 C 0.77161 0.0221 0.96667 0.0
C1180 C 0.76541 0.01076 0.98432 0.0
C1181 C 0.74574 0.97771 0.03262 0.0
C1182 C 0.75283 0.98912 0.01669 0.0
H1183 H 0.77477 0.03627 0.87359 0.0
H1184 H 0.76553 0.01746 0.90134 0.0
H1185 H 0.76036 0.01553 0.04272 0.0
H1186 H 0.739 0.96267 0.12526 0.0
H1187 H 0.7511 0.98139 0.09914 0.0
C1188 C 0.61449 0.54459 0.3503 0.0
C1189 C 0.61203 0.54586 0.30752 0.0
C1190 C 0.6254 0.54875 0.36329 0.0
C1191 C 0.65323 0.55775 0.32168 0.0
H1192 H 0.66306 0.57493 0.42688 0.0
C1193 C 0.69893 0.58708 0.3589 0.0
C1194 C 0.70258 0.58812 0.40171 0.0
C1195 C 0.68776 0.58073 0.34909 0.0
C1196 C 0.66041 0.56999 0.39784 0.0
H1197 H 0.61906 0.55238 0.24468 0.0
H1198 H 0.6381 0.55966 0.2674 0.0
H1199 H 0.64369 0.56607 0.40649 0.0
H1200 H 0.69741 0.58306 0.46769 0.0
H1201 H 0.67786 0.57184 0.4504 0.0
H1202 H 0.66995 0.56175 0.31274 0.0
C1203 C 0.63159 0.55537 0.2908 0.0
C1204 C 0.64933 0.56494 0.38612 0.0
C1205 C 0.62069 0.55127 0.27787 0.0
C1206 C 0.69485 0.58245 0.4344 0.0
C1207 C 0.68364 0.57608 0.42454 0.0
C1208 C 0.6643 0.56276 0.33347 0.0
C1209 C 0.63406 0.5542 0.33368 0.0
C1210 C 0.64566 0.55892 0.34758 0.0
C1211 C 0.67997 0.57524 0.38181 0.0
C1212 C 0.66805 0.56909 0.37132 0.0
H1213 H 0.60801 0.54044 0.37392 0.0
H1214 H 0.62706 0.54765 0.39645 0.0
H1215 H 0.65059 0.553 0.29216 0.0
H1216 H 0.70466 0.59135 0.33292 0.0
H1217 H 0.6852 0.5804 0.31593 0.0
C1218 C 0.44337 0.06954 0.31384 0.0
C1219 C 0.44356 0.06787 0.26924 0.0
C1220 C 0.43874 0.07559 0.33006 0.0
C1221 C 0.41855 0.08395 0.30301 0.0
H1222 H 0.43164 0.10394 0.39954 0.0
C1223 C 0.40023 0.10974 0.36845 0.0
C1224 C 0.3996 0.11042 0.41347 0.0
C1225 C 0.40618 0.10525 0.35005 0.0
C1226 C 0.42784 0.09831 0.37284 0.0
H1227 H 0.43925 0.07147 0.2066 0.0
H1228 H 0.43118 0.08211 0.23503 0.0
H1229 H 0.4412 0.09509 0.36796 0.0
H1230 H 0.40484 0.10702 0.47449 0.0
H1231 H 0.41514 0.09902 0.44227 0.0
H1232 H 0.40513 0.08703 0.30817 0.0
C1233 C 0.43453 0.07862 0.25741 0.0
C1234 C 0.43332 0.09326 0.3547 0.0
C1235 C 0.4392 0.07258 0.24113 0.0
C1236 C 0.40517 0.10662 0.4397 0.0
C1237 C 0.41113 0.1021 0.42124 0.0
C1238 C 0.41307 0.08899 0.32116 0.0
C1239 C 0.43417 0.08011 0.30208 0.0
C1240 C 0.4287 0.08597 0.31978 0.0
C1241 C 0.41163 0.1013 0.3762 0.0
C1242 C 0.41762 0.09617 0.35643 0.0
H1243 H 0.44666 0.06604 0.33644 0.0
H1244 H 0.43847 0.07646 0.36465 0.0
H1245 H 0.41469 0.07824 0.2766 0.0
H1246 H 0.3961 0.11266 0.34725 0.0
H1247 H 0.40656 0.10492 0.31525 0.0
C1248 C 0.87474 0.28859 0.37451 0.0
C1249 C 0.87642 0.28647 0.41729 0.0
C1250 C 0.87981 0.29936 0.35888 0.0
C1251 C 0.90395 0.32651 0.3779 0.0
H1252 H 0.88939 0.33659 0.29895 0.0
C1253 C 0.92513 0.37114 0.31635 0.0
C1254 C 0.92395 0.37277 0.2724 0.0
C1255 C 0.91882 0.36079 0.33513 0.0
C1256 C 0.89359 0.33385 0.32064 0.0
H1257 H 0.88443 0.29401 0.47766 0.0
H1258 H 0.89326 0.31288 0.45033 0.0
H1259 H 0.87901 0.31828 0.33113 0.0
H1260 H 0.91514 0.36481 0.21379 0.0
H1261 H 0.9042 0.34662 0.24659 0.0
H1262 H 0.91855 0.34198 0.36705 0.0
C1263 C 0.88811 0.30617 0.42879 0.0
C1264 C 0.88764 0.32338 0.33915 0.0
C1265 C 0.88301 0.29538 0.4445 0.0
C1266 C 0.91624 0.36382 0.24772 0.0
C1267 C 0.90993 0.35343 0.26657 0.0
C1268 C 0.90989 0.33696 0.35938 0.0
C1269 C 0.88669 0.30826 0.38563 0.0
C1270 C 0.89278 0.31959 0.36781 0.0
C1271 C 0.9112 0.3518 0.31045 0.0
C1272 C 0.90479 0.34073 0.33042 0.0
H1273 H 0.86969 0.28192 0.35268 0.0
H1274 H 0.87864 0.30068 0.32537 0.0
H1275 H 0.90819 0.32375 0.39922 0.0
H1276 H 0.93093 0.37788 0.33642 0.0
H1277 H 0.91988 0.35986 0.36916 0.0
C1278 C 0.70104 0.10449 0.39237 0.0
C1279 C 0.70813 0.10146 0.37245 0.0
C1280 C 0.69032 0.10041 0.37707 0.0
C1281 C 0.66902 0.07812 0.30943 0.0
H1282 H 0.6561 0.09696 0.30791 0.0
C1283 C 0.62772 0.06516 0.22597 0.0
C1284 C 0.61994 0.06612 0.25132 0.0
C1285 C 0.6387 0.07013 0.23899 0.0
C1286 C 0.65961 0.09161 0.30832 0.0
H1287 H 0.7096 0.09189 0.32063 0.0
H1288 H 0.69106 0.08502 0.29333 0.0
H1289 H 0.67484 0.10418 0.3347 0.0
H1290 H 0.61766 0.07346 0.30912 0.0
H1291 H 0.6369 0.08225 0.33157 0.0
H1292 H 0.65383 0.06561 0.28252 0.0
C1293 C 0.69364 0.09031 0.3214 0.0
C1294 C 0.67031 0.09571 0.32386 0.0
C1295 C 0.7043 0.0943 0.33695 0.0
C1296 C 0.62346 0.07254 0.28899 0.0
C1297 C 0.63447 0.07761 0.30175 0.0
C1298 C 0.65839 0.07407 0.29352 0.0
C1299 C 0.68651 0.09331 0.34128 0.0
C1300 C 0.67514 0.089 0.3247 0.0
C1301 C 0.64214 0.07626 0.27732 0.0
C1302 C 0.65357 0.08076 0.29291 0.0
H1303 H 0.70375 0.10997 0.4199 0.0
H1304 H 0.685 0.10275 0.3936 0.0
H1305 H 0.67238 0.07265 0.31037 0.0
H1306 H 0.62527 0.06028 0.19674 0.0
H1307 H 0.6445 0.06908 0.21933 0.0
C1308 C 0.88409 0.5909 0.37132 0.0
C1309 C 0.88762 0.59609 0.4116 0.0
C1310 C 0.8886 0.58485 0.354 0.0
C1311 C 0.90441 0.57107 0.38096 0.0
H1312 H 0.91299 0.57648 0.26062 0.0
C1313 C 0.92226 0.54743 0.29134 0.0
C1314 C 0.9316 0.55383 0.26566 0.0
C1315 C 0.91616 0.55196 0.30809 0.0
C1316 C 0.91067 0.57491 0.29427 0.0
H1317 H 0.89836 0.59866 0.46597 0.0
H1318 H 0.90629 0.58812 0.43551 0.0
H1319 H 0.9037 0.58542 0.29339 0.0
H1320 H 0.94169 0.56992 0.23663 0.0
H1321 H 0.93105 0.57783 0.26601 0.0
H1322 H 0.91165 0.56078 0.38206 0.0
C1323 C 0.89998 0.58869 0.4175 0.0
C1324 C 0.90524 0.57993 0.31294 0.0
C1325 C 0.89547 0.59477 0.43486 0.0
C1326 C 0.93453 0.56476 0.25624 0.0
C1327 C 0.92841 0.56928 0.27292 0.0
C1328 C 0.90981 0.56602 0.36224 0.0
C1329 C 0.89672 0.58383 0.37655 0.0
C1330 C 0.90211 0.57812 0.35655 0.0
C1331 C 0.91923 0.56297 0.29941 0.0
C1332 C 0.91307 0.56795 0.31877 0.0
H1333 H 0.87799 0.59168 0.35268 0.0
H1334 H 0.88578 0.58103 0.32271 0.0
H1335 H 0.90202 0.56945 0.41454 0.0
H1336 H 0.91975 0.53896 0.2991 0.0
H1337 H 0.90903 0.54685 0.32791 0.0
C1338 C 0.44452 0.37654 0.31249 0.0
C1339 C 0.44533 0.37844 0.26781 0.0
C1340 C 0.44045 0.36592 0.32869 0.0
C1341 C 0.43502 0.33809 0.29986 0.0
H1342 H 0.41414 0.32898 0.39431 0.0
C1343 C 0.40698 0.29272 0.34831 0.0
C1344 C 0.40491 0.29016 0.39236 0.0
C1345 C 0.41298 0.30365 0.3347 0.0
C1346 C 0.4201 0.33145 0.36841 0.0
H1347 H 0.44266 0.3707 0.20506 0.0
H1348 H 0.43539 0.35208 0.23342 0.0
H1349 H 0.42245 0.34773 0.3669 0.0
H1350 H 0.40782 0.29707 0.45677 0.0
H1351 H 0.41837 0.31622 0.43289 0.0
H1352 H 0.4325 0.32172 0.30101 0.0
C1353 C 0.43804 0.35885 0.25589 0.0
C1354 C 0.42485 0.34219 0.35264 0.0
C1355 C 0.44213 0.3695 0.23964 0.0
C1356 C 0.40923 0.29877 0.42261 0.0
C1357 C 0.41522 0.30973 0.40893 0.0
C1358 C 0.43026 0.32733 0.31562 0.0
C1359 C 0.43708 0.35694 0.3006 0.0
C1360 C 0.43231 0.34561 0.31801 0.0
C1361 C 0.41704 0.31228 0.36479 0.0
C1362 C 0.42268 0.32388 0.34985 0.0
H1363 H 0.44699 0.38325 0.33513 0.0
H1364 H 0.43998 0.36475 0.36329 0.0
H1365 H 0.44087 0.34054 0.27358 0.0
H1366 H 0.40378 0.28628 0.32415 0.0
H1367 H 0.41412 0.30534 0.30045 0.0
C1368 C 0.30022 0.89365 0.55792 0.0
C1369 C 0.29088 0.88481 0.57694 0.0
C1370 C 0.31055 0.89793 0.57734 0.0
C1371 C 0.32297 0.90035 0.68358 0.0
H1372 H 0.34993 0.91043 0.61839 0.0
C1373 C 0.36595 0.93071 0.75155 0.0
C1374 C 0.37471 0.92898 0.74098 0.0
C1375 C 0.35557 0.92419 0.73314 0.0
C1376 C 0.34247 0.90754 0.63711 0.0
H1377 H 0.28516 0.8732 0.63022 0.0
H1378 H 0.30318 0.88064 0.6638 0.0
H1379 H 0.33221 0.90087 0.58141 0.0
H1380 H 0.37934 0.91879 0.70394 0.0
H1381 H 0.3612 0.90739 0.67198 0.0
H1382 H 0.33322 0.90706 0.73923 0.0
C1383 C 0.30248 0.88436 0.63428 0.0
C1384 C 0.33233 0.90218 0.61586 0.0
C1385 C 0.29217 0.88008 0.61487 0.0
C1386 C 0.37278 0.92037 0.71265 0.0
C1387 C 0.36241 0.91388 0.69411 0.0
C1388 C 0.3331 0.90575 0.70478 0.0
C1389 C 0.31174 0.89346 0.61615 0.0
C1390 C 0.32249 0.89861 0.63882 0.0
C1391 C 0.35374 0.91583 0.7037 0.0
C1392 C 0.34296 0.90949 0.68172 0.0
H1393 H 0.29951 0.89748 0.5287 0.0
H1394 H 0.31753 0.905 0.56278 0.0
H1395 H 0.31553 0.8978 0.7021 0.0
H1396 H 0.36716 0.93727 0.77327 0.0
H1397 H 0.34907 0.92595 0.74087 0.0
C1398 C 0.05826 0.4281 0.72045 0.0
C1399 C 0.06186 0.43941 0.72232 0.0
C1400 C 0.06511 0.42442 0.70374 0.0
C1401 C 0.08838 0.43257 0.63025 0.0
H1402 H 0.09064 0.40904 0.68616 0.0
C1403 C 0.10667 0.40805 0.54865 0.0
C1404 C 0.11327 0.40541 0.57436 0.0
C1405 C 0.10122 0.41314 0.56682 0.0
C1406 C 0.09017 0.41568 0.67036 0.0
H1407 H 0.07554 0.45577 0.70872 0.0
H1408 H 0.08748 0.44933 0.67952 0.0
H1409 H 0.07955 0.41602 0.7191 0.0
H1410 H 0.11971 0.40647 0.63892 0.0
H1411 H 0.11023 0.41533 0.67038 0.0
H1412 H 0.099 0.43218 0.58141 0.0
C1413 C 0.07933 0.44331 0.69073 0.0
C1414 C 0.08373 0.4196 0.689 0.0
C1415 C 0.07251 0.44699 0.70772 0.0
C1416 C 0.11463 0.40832 0.61822 0.0
C1417 C 0.10915 0.41335 0.63636 0.0
C1418 C 0.09477 0.42859 0.61141 0.0
C1419 C 0.07566 0.43199 0.68831 0.0
C1420 C 0.08275 0.42805 0.66909 0.0
C1421 C 0.10224 0.41563 0.61105 0.0
C1422 C 0.09571 0.42009 0.63127 0.0
H1423 H 0.0501 0.42205 0.73141 0.0
H1424 H 0.06203 0.41564 0.70195 0.0
H1425 H 0.08769 0.43903 0.614 0.0
H1426 H 0.10547 0.40593 0.51475 0.0
H1427 H 0.09589 0.41476 0.54659 0.0
C1428 C 0.5632 0.63031 0.78235 0.0
C1429 C 0.55318 0.62361 0.76106 0.0
C1430 C 0.56957 0.64147 0.77194 0.0
C1431 C 0.56892 0.66472 0.71947 0.0
H1432 H 0.5997 0.67496 0.69551 0.0
C1433 C 0.59692 0.70604 0.63361 0.0
C1434 C 0.60782 0.71233 0.64829 0.0
C1435 C 0.59014 0.69533 0.64882 0.0
C1436 C 0.59117 0.6723 0.70265 0.0
H1437 H 0.54171 0.62346 0.71377 0.0
H1438 H 0.55282 0.64295 0.69579 0.0
H1439 H 0.58791 0.65631 0.7221 0.0
H1440 H 0.62015 0.71233 0.69054 0.0
H1441 H 0.60828 0.69377 0.71762 0.0
H1442 H 0.57218 0.68073 0.70016 0.0
C1443 C 0.55575 0.63957 0.72046 0.0
C1444 C 0.58442 0.66161 0.7179 0.0
C1445 C 0.54941 0.6284 0.73063 0.0
C1446 C 0.61181 0.70768 0.67834 0.0
C1447 C 0.60502 0.69701 0.69375 0.0
C1448 C 0.5757 0.67546 0.70448 0.0
C1449 C 0.566 0.64615 0.74033 0.0
C1450 C 0.57322 0.65769 0.72626 0.0
C1451 C 0.59409 0.69071 0.67923 0.0
C1452 C 0.58689 0.67935 0.69568 0.0
H1453 H 0.56632 0.62688 0.80605 0.0
H1454 H 0.57738 0.6464 0.78815 0.0
H1455 H 0.56034 0.66194 0.72601 0.0
H1456 H 0.59362 0.70939 0.61034 0.0
H1457 H 0.58182 0.69064 0.63644 0.0
C1458 C 0.36546 0.43009 0.77163 0.0
C1459 C 0.37234 0.44085 0.75629 0.0
C1460 C 0.35472 0.4238 0.75622 0.0
C1461 C 0.33225 0.42523 0.70136 0.0
H1462 H 0.3238 0.39568 0.66329 0.0
C1463 C 0.29224 0.39834 0.6055 0.0
C1464 C 0.2863 0.38706 0.61561 0.0
C1465 C 0.30274 0.40507 0.62268 0.0
C1466 C 0.32595 0.40385 0.67428 0.0
H1467 H 0.37319 0.45362 0.71423 0.0
H1468 H 0.35436 0.44263 0.68757 0.0
H1469 H 0.34183 0.40719 0.69566 0.0
H1470 H 0.28668 0.37401 0.6518 0.0
H1471 H 0.30483 0.38576 0.6824 0.0
H1472 H 0.31632 0.42186 0.68047 0.0
C1473 C 0.35731 0.43908 0.71143 0.0
C1474 C 0.33629 0.41044 0.69279 0.0
C1475 C 0.3681 0.44534 0.72658 0.0
C1476 C 0.29107 0.38265 0.64309 0.0
C1477 C 0.30152 0.38939 0.66049 0.0
C1478 C 0.32185 0.4186 0.68314 0.0
C1479 C 0.3506 0.42817 0.72545 0.0
C1480 C 0.33953 0.42118 0.70655 0.0
C1481 C 0.30748 0.40068 0.65055 0.0
C1482 C 0.31858 0.40782 0.66941 0.0
H1483 H 0.36847 0.42639 0.7946 0.0
H1484 H 0.34966 0.41546 0.76799 0.0
H1485 H 0.33453 0.43346 0.71198 0.0
H1486 H 0.28879 0.40197 0.5843 0.0
H1487 H 0.30718 0.4137 0.61383 0.0
C1488 C 0.58455 0.88032 0.5894 0.0
C1489 C 0.59086 0.88287 0.5515 0.0
C1490 C 0.57945 0.88632 0.60088 0.0
C1491 C 0.58308 0.91371 0.58844 0.0
H1492 H 0.55391 0.90072 0.63891 0.0
C1493 C 0.56502 0.94047 0.64578 0.0
C1494 C 0.55904 0.93743 0.68453 0.0
C1495 C 0.5681 0.93346 0.62614 0.0
C1496 C 0.56212 0.90448 0.62527 0.0
H1497 H 0.59636 0.89338 0.49496 0.0
H1498 H 0.58747 0.90392 0.51527 0.0
H1499 H 0.56036 0.88881 0.60929 0.0
H1500 H 0.55159 0.92465 0.73315 0.0
H1501 H 0.55723 0.91254 0.69954 0.0
H1502 H 0.58504 0.92935 0.6056 0.0
C1503 C 0.58655 0.8973 0.53612 0.0
C1504 C 0.56577 0.89765 0.60813 0.0
C1505 C 0.59158 0.89123 0.5244 0.0
C1506 C 0.55618 0.92721 0.70322 0.0
C1507 C 0.55934 0.92023 0.68376 0.0
C1508 C 0.57946 0.92053 0.60587 0.0
C1509 C 0.58061 0.89503 0.57488 0.0
C1510 C 0.57632 0.90221 0.58987 0.0
C1511 C 0.56535 0.92328 0.64499 0.0
C1512 C 0.56898 0.916 0.62484 0.0
H1513 H 0.58381 0.87389 0.61088 0.0
H1514 H 0.57499 0.88444 0.63109 0.0
H1515 H 0.59132 0.91744 0.57522 0.0
H1516 H 0.56727 0.94825 0.63033 0.0
H1517 H 0.57256 0.936 0.59596 0.0
C1518 C 0.07391 0.62462 0.71116 0.0
C1519 C 0.06783 0.62257 0.74949 0.0
C1520 C 0.08058 0.63536 0.69636 0.0
C1521 C 0.09434 0.66458 0.72921 0.0
H1522 H 0.09174 0.66967 0.60799 0.0
C1523 C 0.10876 0.70775 0.66013 0.0
C1524 C 0.11394 0.71041 0.61961 0.0
C1525 C 0.10408 0.69706 0.67626 0.0
C1526 C 0.0927 0.66837 0.64175 0.0
H1527 H 0.0643 0.63025 0.8031 0.0
H1528 H 0.07592 0.64905 0.77703 0.0
H1529 H 0.08196 0.65097 0.63641 0.0
H1530 H 0.11836 0.70394 0.56441 0.0
H1531 H 0.11018 0.6852 0.59278 0.0
H1532 H 0.10496 0.68202 0.7346 0.0
C1533 C 0.07556 0.64232 0.75861 0.0
C1534 C 0.08709 0.65766 0.65806 0.0
C1535 C 0.06886 0.63155 0.77344 0.0
C1536 C 0.1144 0.70214 0.59568 0.0
C1537 C 0.10968 0.69141 0.61184 0.0
C1538 C 0.09995 0.6753 0.71288 0.0
C1539 C 0.08135 0.64432 0.71955 0.0
C1540 C 0.08777 0.65566 0.70204 0.0
C1541 C 0.10445 0.68876 0.65228 0.0
C1542 C 0.09909 0.67732 0.66906 0.0
H1543 H 0.07337 0.6179 0.69206 0.0
H1544 H 0.08508 0.63665 0.66652 0.0
H1545 H 0.09514 0.66328 0.7631 0.0
H1546 H 0.10824 0.71392 0.67942 0.0
H1547 H 0.09996 0.69525 0.70721 0.0
C1548 C 0.11849 0.34699 0.64415 0.0
C1549 C 0.1191 0.35729 0.64713 0.0
C1550 C 0.11452 0.33961 0.67875 0.0
C1551 C 0.09789 0.3334 0.77829 0.0
H1552 H 0.11247 0.31715 0.81068 0.0
C1553 C 0.08941 0.31042 0.93988 0.0
C1554 C 0.08818 0.29984 0.93918 0.0
C1555 C 0.09307 0.31712 0.90334 0.0
C1556 C 0.10824 0.32154 0.80172 0.0
H1557 H 0.1161 0.36793 0.68891 0.0
H1558 H 0.10937 0.35517 0.7492 0.0
H1559 H 0.119 0.32936 0.74817 0.0
H1560 H 0.08993 0.28803 0.89967 0.0
H1561 H 0.09632 0.29976 0.83581 0.0
H1562 H 0.08721 0.32569 0.83209 0.0
C1563 C 0.11176 0.35269 0.71995 0.0
C1564 C 0.11197 0.32852 0.76589 0.0
C1565 C 0.11569 0.36005 0.68542 0.0
C1566 C 0.09079 0.29614 0.90127 0.0
C1567 C 0.0945 0.30288 0.86475 0.0
C1568 C 0.09419 0.32646 0.81414 0.0
C1569 C 0.11109 0.34237 0.71702 0.0
C1570 C 0.10689 0.3346 0.75398 0.0
C1571 C 0.09562 0.31341 0.86533 0.0
C1572 C 0.09938 0.32052 0.82645 0.0
H1573 H 0.12102 0.3446 0.61504 0.0
H1574 H 0.11401 0.33167 0.67531 0.0
H1575 H 0.09365 0.33779 0.76949 0.0
H1576 H 0.0875 0.31353 0.9686 0.0
H1577 H 0.09399 0.32526 0.90496 0.0
C1578 C 0.68329 0.78981 0.0086 0.0
C1579 C 0.69422 0.79205 0.00532 0.0
C1580 C 0.67662 0.78702 0.97199 0.0
C1581 C 0.67754 0.78928 0.85398 0.0
H1582 H 0.64834 0.76349 0.85842 0.0
C1583 C 0.64591 0.77647 0.71462 0.0
C1584 C 0.64074 0.7653 0.70283 0.0
C1585 C 0.65235 0.78017 0.75192 0.0
C1586 C 0.65648 0.77071 0.85675 0.0
H1587 H 0.70678 0.79333 0.96099 0.0
H1588 H 0.69514 0.78855 0.8971 0.0
H1589 H 0.65984 0.7693 0.92304 0.0
H1590 H 0.63821 0.74924 0.72103 0.0
H1591 H 0.64936 0.7557 0.78619 0.0
H1592 H 0.6742 0.79062 0.78754 0.0
C1593 C 0.69175 0.78895 0.92798 0.0
C1594 C 0.66302 0.77408 0.89377 0.0
C1595 C 0.69838 0.79161 0.96461 0.0
C1596 C 0.6421 0.7579 0.72916 0.0
C1597 C 0.64842 0.76158 0.76664 0.0
C1598 C 0.67095 0.78598 0.81707 0.0
C1599 C 0.68078 0.78656 0.93134 0.0
C1600 C 0.67366 0.78333 0.89263 0.0
C1601 C 0.65362 0.77274 0.77837 0.0
C1602 C 0.6604 0.77659 0.81799 0.0
H1603 H 0.67985 0.79009 0.03951 0.0
H1604 H 0.66821 0.78529 0.97542 0.0
H1605 H 0.68569 0.79649 0.85232 0.0
H1606 H 0.64502 0.78236 0.69498 0.0
H1607 H 0.65623 0.78881 0.76037 0.0
C1608 C 0.20232 0.90359 0.90381 0.0
C1609 C 0.20918 0.90731 0.94028 0.0
C1610 C 0.20535 0.89979 0.86757 0.0
C1611 C 0.22968 0.90188 0.81367 0.0
H1612 H 0.20855 0.87533 0.75394 0.0
C1613 C 0.24307 0.88143 0.68524 0.0
C1614 C 0.23647 0.8771 0.64833 0.0
C1615 C 0.23948 0.88514 0.71999 0.0
C1616 C 0.21451 0.88284 0.76992 0.0
H1617 H 0.22451 0.90981 0.96753 0.0
H1618 H 0.22975 0.90316 0.90443 0.0
H1619 H 0.20269 0.88168 0.81646 0.0
H1620 H 0.22092 0.87329 0.61898 0.0
H1621 H 0.21471 0.8799 0.67957 0.0
H1622 H 0.2415 0.90309 0.76726 0.0
C1623 C 0.2221 0.90329 0.90366 0.0
C1624 C 0.21116 0.88646 0.80575 0.0
C1625 C 0.21906 0.90704 0.93991 0.0
C1626 C 0.22619 0.87655 0.64698 0.0
C1627 C 0.2226 0.88029 0.68179 0.0
C1628 C 0.23302 0.89828 0.77783 0.0
C1629 C 0.21532 0.89969 0.867 0.0
C1630 C 0.21873 0.89597 0.82822 0.0
C1631 C 0.22923 0.88465 0.71866 0.0
C1632 C 0.22551 0.88866 0.75575 0.0
H1633 H 0.19465 0.90369 0.90307 0.0
H1634 H 0.19999 0.89714 0.83967 0.0
H1635 H 0.23566 0.90935 0.82983 0.0
H1636 H 0.25101 0.88193 0.68746 0.0
H1637 H 0.24471 0.88827 0.74817 0.0
C1638 C 0.30011 0.08898 0.0668 0.0
C1639 C 0.29915 0.0967 0.04102 0.0
C1640 C 0.30602 0.09221 0.10536 0.0
C1641 C 0.32818 0.11618 0.16008 0.0
H1642 H 0.31689 0.09792 0.26227 0.0
C1643 C 0.35551 0.11976 0.30463 0.0
C1644 C 0.35131 0.11918 0.34629 0.0
C1645 C 0.34886 0.11777 0.26848 0.0
C1646 C 0.3201 0.10316 0.23413 0.0
H1647 H 0.30365 0.11388 0.03555 0.0
H1648 H 0.31406 0.11954 0.10288 0.0
H1649 H 0.3056 0.09295 0.19716 0.0
H1650 H 0.33684 0.11616 0.38263 0.0
H1651 H 0.32516 0.11258 0.31923 0.0
H1652 H 0.34272 0.12631 0.19689 0.0
C1653 C 0.31024 0.11098 0.09311 0.0
C1654 C 0.31369 0.10026 0.19677 0.0
C1655 C 0.30424 0.10773 0.05466 0.0
C1656 C 0.34032 0.11666 0.35098 0.0
C1657 C 0.33362 0.11456 0.31473 0.0
C1658 C 0.33462 0.11902 0.19733 0.0
C1659 C 0.31118 0.10325 0.11886 0.0
C1660 C 0.31771 0.10667 0.15923 0.0
C1661 C 0.33783 0.11507 0.27313 0.0
C1662 C 0.33069 0.11248 0.2346 0.0
H1663 H 0.29628 0.08041 0.05726 0.0
H1664 H 0.30672 0.08609 0.12426 0.0
H1665 H 0.33152 0.12124 0.13157 0.0
H1666 H 0.36395 0.12171 0.29987 0.0
H1667 H 0.35229 0.1181 0.23688 0.0
C1668 C 0.87164 0.22355 0.33507 0.0
C1669 C 0.86992 0.23259 0.33231 0.0
C1670 C 0.87538 0.2203 0.29927 0.0
C1671 C 0.88996 0.23098 0.19592 0.0
H1672 H 0.87849 0.20011 0.16905 0.0
C1673 C 0.90079 0.21711 0.03781 0.0
C1674 C 0.90355 0.20878 0.04093 0.0
C1675 C 0.89626 0.21965 0.07303 0.0
C1676 C 0.88184 0.20876 0.17638 0.0
H1677 H 0.87053 0.24513 0.28952 0.0
H1678 H 0.87688 0.23937 0.22713 0.0
H1679 H 0.87136 0.20521 0.23139 0.0
H1680 H 0.90352 0.19644 0.08323 0.0
H1681 H 0.89565 0.20092 0.14476 0.0
H1682 H 0.90042 0.23454 0.14098 0.0
C1683 C 0.87555 0.23492 0.25712 0.0
C1684 C 0.87777 0.21168 0.2121 0.0
C1685 C 0.87185 0.23819 0.29286 0.0
C1686 C 0.90149 0.20291 0.07977 0.0
C1687 C 0.89693 0.20543 0.11497 0.0
C1688 C 0.894 0.22806 0.16021 0.0
C1689 C 0.87745 0.226 0.25997 0.0
C1690 C 0.88177 0.22283 0.22221 0.0
C1691 C 0.89436 0.2139 0.1121 0.0
C1692 C 0.88998 0.21693 0.14999 0.0
H1693 H 0.87025 0.21908 0.36503 0.0
H1694 H 0.87687 0.21347 0.30266 0.0
H1695 H 0.89338 0.23963 0.20327 0.0
H1696 H 0.90222 0.22176 0.00829 0.0
H1697 H 0.89422 0.22612 0.06963 0.0
C1698 C 0.76674 0.64698 0.3025 0.0
C1699 C 0.7563 0.63742 0.30294 0.0
C1700 C 0.77028 0.65387 0.26637 0.0
C1701 C 0.75954 0.66082 0.16986 0.0
H1702 H 0.78968 0.67406 0.12924 0.0
C1703 C 0.77294 0.68336 0.00739 0.0
C1704 C 0.78279 0.69356 0.00695 0.0
C1705 C 0.77008 0.67646 0.04326 0.0
C1706 C 0.78126 0.67049 0.14045 0.0
H1707 H 0.74149 0.6275 0.26552 0.0
H1708 H 0.74773 0.63939 0.20249 0.0
H1709 H 0.78396 0.66214 0.19267 0.0
H1710 H 0.7975 0.70437 0.04341 0.0
H1711 H 0.79248 0.69229 0.10617 0.0
H1712 H 0.75681 0.66911 0.11761 0.0
C1713 C 0.7531 0.6417 0.23029 0.0
C1714 C 0.77799 0.66368 0.1768 0.0
C1715 C 0.74954 0.63484 0.26637 0.0
C1716 C 0.78985 0.69658 0.04276 0.0
C1717 C 0.787 0.68964 0.07863 0.0
C1718 C 0.76279 0.66758 0.13351 0.0
C1719 C 0.76348 0.65133 0.22994 0.0
C1720 C 0.76707 0.65873 0.19179 0.0
C1721 C 0.77702 0.67957 0.07945 0.0
C1722 C 0.77367 0.67245 0.11829 0.0
H1723 H 0.77213 0.64921 0.3302 0.0
H1724 H 0.77828 0.66129 0.26731 0.0
H1725 H 0.75113 0.65732 0.18105 0.0
H1726 H 0.76733 0.68076 0.98026 0.0
H1727 H 0.76242 0.66868 0.04269 0.0
C1728 C 0.90798 0.70489 0.08056 0.0
C1729 C 0.91091 0.70157 0.04243 0.0
C1730 C 0.90456 0.69806 0.11682 0.0
C1731 C 0.9059 0.67493 0.16674 0.0
H1732 H 0.88045 0.67082 0.23144 0.0
C1733 C 0.88525 0.64126 0.29629 0.0
C1734 C 0.88149 0.64386 0.33404 0.0
C1735 C 0.88903 0.64855 0.26151 0.0
C1736 C 0.88766 0.67199 0.21409 0.0
H1737 H 0.91255 0.68847 0.0125 0.0
H1738 H 0.90656 0.67656 0.07577 0.0
H1739 H 0.88673 0.68311 0.16923 0.0
H1740 H 0.8788 0.65619 0.36495 0.0
H1741 H 0.88554 0.669 0.30436 0.0
H1742 H 0.90686 0.66385 0.21155 0.0
C1743 C 0.907 0.68449 0.07771 0.0
C1744 C 0.89125 0.67902 0.17841 0.0
C1745 C 0.91038 0.69129 0.04139 0.0
C1746 C 0.88161 0.65393 0.33627 0.0
C1747 C 0.88541 0.66124 0.30146 0.0
C1748 C 0.90234 0.66794 0.20248 0.0
C1749 C 0.90404 0.68779 0.11579 0.0
C1750 C 0.90037 0.68051 0.15421 0.0
C1751 C 0.88916 0.65863 0.26366 0.0
C1752 C 0.89314 0.66633 0.22643 0.0
H1753 H 0.90831 0.71276 0.08246 0.0
H1754 H 0.90245 0.70089 0.14584 0.0
H1755 H 0.91306 0.67605 0.14914 0.0
H1756 H 0.88523 0.63355 0.29342 0.0
H1757 H 0.89169 0.6462 0.23265 0.0
C1758 C 0.30218 0.19864 0.03099 0.0
C1759 C 0.30215 0.2067 0.00414 0.0
C1760 C 0.30894 0.2017 0.06742 0.0
C1761 C 0.32372 0.22483 0.14297 0.0
H1762 H 0.34005 0.21013 0.17226 0.0
C1763 C 0.35796 0.24207 0.27055 0.0
C1764 C 0.35856 0.2346 0.29906 0.0
C1765 C 0.35082 0.23828 0.23537 0.0
C1766 C 0.33543 0.21422 0.1648 0.0
H1767 H 0.30933 0.2243 0.99404 0.0
H1768 H 0.32116 0.22961 0.05726 0.0
H1769 H 0.32814 0.20423 0.10887 0.0
H1770 H 0.35213 0.21727 0.31294 0.0
H1771 H 0.33957 0.21064 0.25147 0.0
H1772 H 0.33101 0.23484 0.19868 0.0
C1773 C 0.31584 0.22093 0.05056 0.0
C1774 C 0.32862 0.21084 0.12849 0.0
C1775 C 0.30911 0.21787 0.01418 0.0
C1776 C 0.35187 0.22324 0.29153 0.0
C1777 C 0.34472 0.21944 0.25622 0.0
C1778 C 0.33051 0.22819 0.17921 0.0
C1779 C 0.31578 0.21288 0.07776 0.0
C1780 C 0.32277 0.21619 0.11698 0.0
C1781 C 0.3441 0.22693 0.22782 0.0
C1782 C 0.33653 0.22299 0.19032 0.0
H1783 H 0.29691 0.18996 0.02417 0.0
H1784 H 0.30864 0.19531 0.08795 0.0
H1785 H 0.31914 0.22896 0.13546 0.0
H1786 H 0.36303 0.25088 0.27529 0.0
H1787 H 0.35067 0.24426 0.21372 0.0
C1788 C 0.78639 0.10668 0.0125 0.0
C1789 C 0.78842 0.09786 0.01611 0.0
C1790 C 0.78252 0.10994 0.0479 0.0
C1791 C 0.7681 0.09942 0.15167 0.0
H1792 H 0.77896 0.13026 0.17705 0.0
C1793 C 0.7575 0.1133 0.31004 0.0
C1794 C 0.7545 0.12146 0.3072 0.0
C1795 C 0.76194 0.1108 0.27445 0.0
C1796 C 0.77578 0.12161 0.17011 0.0
H1797 H 0.78821 0.08569 0.06 0.0
H1798 H 0.78163 0.09146 0.12164 0.0
H1799 H 0.78618 0.12521 0.1148 0.0
H1800 H 0.75399 0.13354 0.26494 0.0
H1801 H 0.76172 0.12912 0.2027 0.0
H1802 H 0.75774 0.09581 0.20693 0.0
C1803 C 0.78282 0.09574 0.09131 0.0
C1804 C 0.7799 0.11872 0.13446 0.0
C1805 C 0.78666 0.09248 0.05599 0.0
C1806 C 0.75622 0.1272 0.26819 0.0
C1807 C 0.7607 0.12472 0.23259 0.0
C1808 C 0.76401 0.10231 0.18729 0.0
C1809 C 0.7806 0.10444 0.08761 0.0
C1810 C 0.77614 0.10759 0.12498 0.0
C1811 C 0.76351 0.11642 0.23523 0.0
C1812 C 0.76784 0.11343 0.19705 0.0
H1813 H 0.78765 0.11099 0.98219 0.0
H1814 H 0.7808 0.1166 0.04388 0.0
H1815 H 0.76486 0.09077 0.14478 0.0
H1816 H 0.75633 0.10875 0.33966 0.0
H1817 H 0.76418 0.10448 0.27768 0.0
C1818 C 0.6176 0.86706 0.73782 0.0
C1819 C 0.6219 0.87145 0.69699 0.0
C1820 C 0.62426 0.8709 0.77448 0.0
C1821 C 0.64981 0.89475 0.8149 0.0
H1822 H 0.6487 0.87421 0.90121 0.0
C1823 C 0.68249 0.90769 0.94813 0.0
C1824 C 0.67887 0.90358 0.98988 0.0
C1825 C 0.67522 0.90374 0.91335 0.0
C1826 C 0.649 0.88006 0.87766 0.0
H1827 H 0.6366 0.88327 0.66261 0.0
H1828 H 0.6482 0.88989 0.72642 0.0
H1829 H 0.63655 0.86732 0.83864 0.0
H1830 H 0.66476 0.89207 0.02782 0.0
H1831 H 0.65204 0.88521 0.96698 0.0
H1832 H 0.66228 0.90748 0.85372 0.0
C1833 C 0.63965 0.88358 0.7302 0.0
C1834 C 0.64205 0.87611 0.84183 0.0
C1835 C 0.63301 0.87973 0.69359 0.0
C1836 C 0.66781 0.89541 0.99606 0.0
C1837 C 0.66054 0.89143 0.96119 0.0
C1838 C 0.65675 0.89869 0.85068 0.0
C1839 C 0.63535 0.87924 0.77107 0.0
C1840 C 0.64244 0.88341 0.80989 0.0
C1841 C 0.66416 0.89557 0.91946 0.0
C1842 C 0.65649 0.89138 0.88229 0.0
H1843 H 0.60907 0.86068 0.74154 0.0
H1844 H 0.62068 0.86746 0.80558 0.0
H1845 H 0.65016 0.90061 0.79126 0.0
H1846 H 0.69096 0.91397 0.94221 0.0
H1847 H 0.67831 0.90699 0.88151 0.0
C1848 C 0.11882 0.76258 0.73182 0.0
C1849 C 0.11003 0.75419 0.70848 0.0
C1850 C 0.11682 0.76711 0.76844 0.0
C1851 C 0.09516 0.77036 0.82243 0.0
H1852 H 0.11295 0.77537 0.92471 0.0
C1853 C 0.083 0.78007 0.98665 0.0
C1854 C 0.09139 0.78829 0.01198 0.0
C1855 C 0.08556 0.77614 0.94966 0.0
C1856 C 0.10799 0.77414 0.89625 0.0
H1857 H 0.09224 0.74405 0.70514 0.0
H1858 H 0.08876 0.75191 0.76911 0.0
H1859 H 0.11691 0.76824 0.85951 0.0
H1860 H 0.10908 0.79875 0.01858 0.0
H1861 H 0.11355 0.79193 0.9537 0.0
H1862 H 0.08621 0.77621 0.85911 0.0
C1863 C 0.0972 0.75506 0.75886 0.0
C1864 C 0.11027 0.77006 0.85891 0.0
C1865 C 0.0992 0.75052 0.72232 0.0
C1866 C 0.10242 0.7924 0.99979 0.0
C1867 C 0.10499 0.78846 0.96273 0.0
C1868 C 0.09289 0.77444 0.85972 0.0
C1869 C 0.10599 0.76338 0.78242 0.0
C1870 C 0.10382 0.76806 0.82168 0.0
C1871 C 0.09658 0.78034 0.93708 0.0
C1872 C 0.09923 0.7763 0.89716 0.0
H1873 H 0.12727 0.76561 0.72194 0.0
H1874 H 0.12376 0.7736 0.78561 0.0
H1875 H 0.09016 0.76909 0.79405 0.0
H1876 H 0.07441 0.77668 0.99522 0.0
H1877 H 0.0789 0.76975 0.93102 0.0
C1878 C 0.20947 0.29849 0.94034 0.0
C1879 C 0.20951 0.30268 0.98153 0.0
C1880 C 0.2132 0.30547 0.90458 0.0
C1881 C 0.21921 0.33298 0.86629 0.0
H1882 H 0.23656 0.32835 0.78025 0.0
C1883 C 0.24334 0.3644 0.73137 0.0
C1884 C 0.24281 0.36014 0.68987 0.0
C1885 C 0.23889 0.35733 0.76669 0.0
C1886 C 0.23162 0.32968 0.80378 0.0
H1887 H 0.21347 0.31747 0.01748 0.0
H1888 H 0.22019 0.3297 0.95518 0.0
H1889 H 0.22964 0.31621 0.84264 0.0
H1890 H 0.23709 0.34512 0.65284 0.0
H1891 H 0.22934 0.3328 0.71458 0.0
H1892 H 0.22138 0.34658 0.82754 0.0
C1893 C 0.21709 0.32098 0.95038 0.0
C1894 C 0.22764 0.32271 0.83951 0.0
C1895 C 0.21329 0.31398 0.98614 0.0
C1896 C 0.23765 0.34866 0.68439 0.0
C1897 C 0.23327 0.34161 0.71976 0.0
C1898 C 0.22326 0.33999 0.83064 0.0
C1899 C 0.21713 0.31681 0.90918 0.0
C1900 C 0.22136 0.32426 0.87119 0.0
C1901 C 0.23388 0.34587 0.7613 0.0
C1902 C 0.22949 0.3384 0.79899 0.0
H1903 H 0.20654 0.2898 0.93561 0.0
H1904 H 0.21292 0.30194 0.87325 0.0
H1905 H 0.21426 0.33431 0.88971 0.0
H1906 H 0.24726 0.3732 0.73668 0.0
H1907 H 0.23957 0.36086 0.79838 0.0
C1908 C 0.02609 0.46581 0.62242 0.0
C1909 C 0.02775 0.45809 0.6452 0.0
C1910 C 0.01914 0.46256 0.58653 0.0
C1911 C 0.9963 0.43803 0.5351 0.0
H1912 H 0.00525 0.45609 0.43197 0.0
C1913 C 0.97386 0.42184 0.37394 0.0
C1914 C 0.97175 0.42896 0.34902 0.0
C1915 C 0.9807 0.42577 0.40995 0.0
C1916 C 0.00258 0.45103 0.46071 0.0
H1917 H 0.02343 0.44092 0.64813 0.0
H1918 H 0.0114 0.4353 0.58544 0.0
H1919 H 0.01709 0.46226 0.49555 0.0
H1920 H 0.97532 0.44583 0.34205 0.0
H1921 H 0.98726 0.45268 0.40529 0.0
H1922 H 0.98182 0.42678 0.50034 0.0
C1923 C 0.01536 0.44383 0.5956 0.0
C1924 C 0.00935 0.45456 0.49712 0.0
C1925 C 0.02231 0.44707 0.6314 0.0
C1926 C 0.97678 0.44014 0.36056 0.0
C1927 C 0.98366 0.44407 0.39667 0.0
C1928 C 0.98953 0.43451 0.49877 0.0
C1929 C 0.01369 0.45153 0.57274 0.0
C1930 C 0.00633 0.44804 0.53458 0.0
C1931 C 0.98561 0.4369 0.42197 0.0
C1932 C 0.99264 0.44091 0.46102 0.0
H1933 H 0.03015 0.47436 0.63226 0.0
H1934 H 0.01794 0.46867 0.56987 0.0
H1935 H 0.99363 0.43293 0.56374 0.0
H1936 H 0.97017 0.41319 0.36584 0.0
H1937 H 0.9822 0.42007 0.4283 0.0
C1938 C 0.56521 0.54484 0.36373 0.0
C1939 C 0.57234 0.55336 0.33589 0.0
C1940 C 0.56069 0.54712 0.3997 0.0
C1941 C 0.56536 0.56977 0.47279 0.0
H1942 H 0.53503 0.55012 0.50639 0.0
C1943 C 0.54461 0.58058 0.60949 0.0
C1944 C 0.53799 0.57213 0.63852 0.0
C1945 C 0.5485 0.57824 0.57185 0.0
C1946 C 0.54354 0.55563 0.49765 0.0
H1947 H 0.58018 0.57092 0.3236 0.0
H1948 H 0.5722 0.57487 0.38615 0.0
H1949 H 0.54231 0.54618 0.44155 0.0
H1950 H 0.53018 0.55456 0.65058 0.0
H1951 H 0.53706 0.55048 0.58494 0.0
H1952 H 0.56662 0.57919 0.5289 0.0
C1953 C 0.57023 0.56645 0.38049 0.0
C1954 C 0.54771 0.55338 0.46051 0.0
C1955 C 0.57475 0.56418 0.34451 0.0
C1956 C 0.53525 0.56126 0.62886 0.0
C1957 C 0.53914 0.55891 0.59113 0.0
C1958 C 0.56119 0.57202 0.50988 0.0
C1959 C 0.5632 0.55796 0.40865 0.0
C1960 C 0.55868 0.56042 0.44768 0.0
C1961 C 0.54586 0.56739 0.56233 0.0
C1962 C 0.55024 0.56497 0.52276 0.0
H1963 H 0.5632 0.53641 0.35807 0.0
H1964 H 0.55541 0.54041 0.42101 0.0
H1965 H 0.57389 0.57526 0.46425 0.0
H1966 H 0.54684 0.58904 0.61583 0.0
H1967 H 0.55352 0.58493 0.55002 0.0
C1968 C 0.44001 0.98165 0.67158 0.0
C1969 C 0.42921 0.97264 0.67204 0.0
C1970 C 0.44387 0.98875 0.6361 0.0
C1971 C 0.43875 0.99008 0.52048 0.0
H1972 H 0.45489 0.02171 0.53774 0.0
C1973 C 0.44681 0.0206 0.38232 0.0
C1974 C 0.45702 0.03042 0.38107 0.0
C1975 C 0.44395 0.0135 0.41759 0.0
C1976 C 0.45054 0.0129 0.53234 0.0
H1977 H 0.41398 0.96403 0.63568 0.0
H1978 H 0.42072 0.97642 0.57398 0.0
H1979 H 0.44894 0.00945 0.60002 0.0
H1980 H 0.47231 0.04041 0.4156 0.0
H1981 H 0.46738 0.02793 0.47693 0.0
H1982 H 0.44033 0.99349 0.45288 0.0
C1983 C 0.42623 0.97794 0.60084 0.0
C1984 C 0.44712 0.00588 0.56804 0.0
C1985 C 0.42235 0.97089 0.63634 0.0
C1986 C 0.46436 0.03293 0.41566 0.0
C1987 C 0.46151 0.02581 0.45092 0.0
C1988 C 0.44221 0.99709 0.48481 0.0
C1989 C 0.43703 0.98693 0.60029 0.0
C1990 C 0.44109 0.9944 0.56247 0.0
C1991 C 0.45125 0.01603 0.45238 0.0
C1992 C 0.44805 0.00858 0.49031 0.0
H1993 H 0.4455 0.98323 0.69856 0.0
H1994 H 0.45226 0.99557 0.63644 0.0
H1995 H 0.43428 0.98126 0.51518 0.0
H1996 H 0.44094 0.01843 0.35626 0.0
H1997 H 0.43592 0.00613 0.41794 0.0
C1998 C 0.55013 0.97784 0.6466 0.0
C1999 C 0.54085 0.96721 0.64551 0.0
C2000 C 0.55262 0.98497 0.61166 0.0
C2001 C 0.54102 0.99026 0.51389 0.0
H2002 H 0.57147 0.00569 0.47615 0.0
C2003 C 0.55504 0.01391 0.35188 0.0
C2004 C 0.56516 0.02384 0.35154 0.0
C2005 C 0.55167 0.00718 0.38847 0.0
C2006 C 0.56296 0.00157 0.48658 0.0
H2007 H 0.52671 0.95586 0.6074 0.0
H2008 H 0.5311 0.96834 0.54625 0.0
H2009 H 0.56625 0.99375 0.53902 0.0
H2010 H 0.57952 0.03465 0.38977 0.0
H2011 H 0.57357 0.02303 0.45361 0.0
H2012 H 0.53775 0.99812 0.46132 0.0
C2013 C 0.53641 0.97115 0.57428 0.0
C2014 C 0.55997 0.99472 0.52262 0.0
C2015 C 0.53393 0.96399 0.60922 0.0
C2016 C 0.57172 0.027 0.38881 0.0
C2017 C 0.56834 0.02031 0.42537 0.0
C2018 C 0.54403 0.99717 0.47783 0.0
C2019 C 0.54588 0.98166 0.57488 0.0
C2020 C 0.54898 0.989 0.53673 0.0
C2021 C 0.55833 0.01025 0.42551 0.0
C2022 C 0.55504 0.00292 0.46382 0.0
H2023 H 0.55561 0.9806 0.67415 0.0
H2024 H 0.55988 0.99308 0.61336 0.0
H2025 H 0.5325 0.98604 0.52424 0.0
H2026 H 0.5498 0.01123 0.32364 0.0
H2027 H 0.54397 -0.00057 0.38734 0.0
C2028 C 0.97983 0.55981 0.35335 0.0
C2029 C 0.9712 0.5491 0.34456 0.0
C2030 C 0.98625 0.56194 0.39038 0.0
C2031 C 0.98585 0.55098 0.49879 0.0
H2032 H 0.0174 0.57086 0.49366 0.0
C2033 C 0.01467 0.55841 0.64412 0.0
C2034 C 0.02295 0.56936 0.65155 0.0
C2035 C 0.00834 0.55558 0.60649 0.0
C2036 C 0.00859 0.56537 0.4957 0.0
H2037 H 0.96262 0.53222 0.36759 0.0
H2038 H 0.97388 0.53595 0.43201 0.0
H2039 H 0.00647 0.56659 0.42804 0.0
H2040 H 0.031 0.58595 0.62545 0.0
H2041 H 0.01992 0.58105 0.56026 0.0
H2042 H 0.98797 0.54982 0.56655 0.0
C2043 C 0.9756 0.54271 0.41052 0.0
C2044 C 0.00232 0.56292 0.4581 0.0
C2045 C 0.96918 0.54057 0.37346 0.0
C2046 C 0.02472 0.57743 0.6207 0.0
C2047 C 0.01842 0.57461 0.58314 0.0
C2048 C 0.99212 0.55343 0.53643 0.0
C2049 C 0.98418 0.55343 0.41948 0.0
C2050 C 0.99087 0.55576 0.45925 0.0
C2051 C 0.01018 0.56365 0.57551 0.0
C2052 C 0.00355 0.56072 0.53535 0.0
H2053 H 0.98159 0.56657 0.3318 0.0
H2054 H 0.99272 0.57032 0.39662 0.0
H2055 H 0.97703 0.54555 0.50086 0.0
H2056 H 0.01311 0.55199 0.66722 0.0
H2057 H 0.00212 0.54705 0.60137 0.0
C2058 C 0.44663 0.42883 0.37685 0.0
C2059 C 0.45675 0.42903 0.37766 0.0
C2060 C 0.44337 0.43281 0.41174 0.0
C2061 C 0.45371 0.45081 0.50699 0.0
H2062 H 0.42362 0.43312 0.54721 0.0
C2063 C 0.43826 0.46013 0.66583 0.0
C2064 C 0.42758 0.45864 0.66579 0.0
C2065 C 0.44208 0.4568 0.63049 0.0
C2066 C 0.43201 0.43824 0.53608 0.0
H2067 H 0.47148 0.43378 0.41539 0.0
H2068 H 0.46575 0.44073 0.4764 0.0
H2069 H 0.42985 0.42694 0.4856 0.0
H2070 H 0.41261 0.45272 0.62827 0.0
H2071 H 0.41933 0.44713 0.56649 0.0
H2072 H 0.45585 0.46215 0.55735 0.0
C2073 C 0.46038 0.43753 0.44864 0.0
C2074 C 0.43558 0.43468 0.50079 0.0
C2075 C 0.46363 0.4335 0.41378 0.0
C2076 C 0.42086 0.4539 0.62948 0.0
C2077 C 0.42469 0.45064 0.59413 0.0
C2078 C 0.45012 0.4544 0.54223 0.0
C2079 C 0.45016 0.43712 0.44814 0.0
C2080 C 0.44645 0.44094 0.48579 0.0
C2081 C 0.43531 0.45197 0.59432 0.0
C2082 C 0.43922 0.44816 0.5571 0.0
H2083 H 0.44115 0.42548 0.34945 0.0
H2084 H 0.43551 0.43253 0.41017 0.0
H2085 H 0.46211 0.45585 0.49587 0.0
H2086 H 0.44363 0.46372 0.69338 0.0
H2087 H 0.45026 0.45783 0.6319 0.0
C2088 C 0.09915 0.32047 0.16581 0.0
C2089 C 0.08896 0.31076 0.16064 0.0
C2090 C 0.10123 0.32706 0.20225 0.0
C2091 C 0.08765 0.33304 0.29206 0.0
H2092 H 0.11645 0.34528 0.3451 0.0
C2093 C 0.09851 0.35445 0.45943 0.0
C2094 C 0.10899 0.36383 0.46385 0.0
C2095 C 0.09562 0.34821 0.42153 0.0
C2096 C 0.10841 0.34204 0.33039 0.0
H2097 H 0.07291 0.30041 0.18954 0.0
H2098 H 0.07661 0.31186 0.25357 0.0
H2099 H 0.11225 0.33385 0.28113 0.0
H2100 H 0.12452 0.37426 0.43128 0.0
H2101 H 0.11946 0.36345 0.36529 0.0
H2102 H 0.08382 0.3412 0.34181 0.0
C2103 C 0.08294 0.31444 0.22912 0.0
C2104 C 0.106 0.33548 0.2937 0.0
C2105 C 0.08085 0.30785 0.19254 0.0
C2106 C 0.1164 0.36703 0.42911 0.0
C2107 C 0.11353 0.3608 0.39134 0.0
C2108 C 0.09006 0.3396 0.32892 0.0
C2109 C 0.09319 0.32408 0.23452 0.0
C2110 C 0.09562 0.33094 0.27393 0.0
C2111 C 0.10318 0.35123 0.38737 0.0
C2112 C 0.10049 0.34422 0.34834 0.0
H2113 H 0.10556 0.323 0.14171 0.0
H2114 H 0.10914 0.33453 0.20503 0.0
H2115 H 0.07961 0.32976 0.27734 0.0
H2116 H 0.09261 0.35177 0.4856 0.0
H2117 H 0.08761 0.34084 0.41953 0.0
C2118 C 0.65086 0.76958 0.482 0.0
C2119 C 0.64302 0.75874 0.49343 0.0
C2120 C 0.65713 0.7717 0.44458 0.0
C2121 C 0.66653 0.75864 0.36445 0.0
H2122 H 0.67273 0.78432 0.29641 0.0
C2123 C 0.68833 0.76856 0.19769 0.0
C2124 C 0.69653 0.77959 0.19108 0.0
C2125 C 0.68159 0.76556 0.23425 0.0
C2126 C 0.67114 0.77716 0.31525 0.0
H2127 H 0.63564 0.74158 0.47455 0.0
H2128 H 0.64649 0.74531 0.40872 0.0
H2129 H 0.66122 0.77987 0.36039 0.0
H2130 H 0.70418 0.79609 0.21795 0.0
H2131 H 0.69245 0.79085 0.28146 0.0
H2132 H 0.67643 0.75594 0.31884 0.0
C2133 C 0.64789 0.75217 0.42908 0.0
C2134 C 0.66456 0.77462 0.35198 0.0
C2135 C 0.64164 0.75004 0.46669 0.0
C2136 C 0.69793 0.78752 0.22197 0.0
C2137 C 0.69116 0.78454 0.25826 0.0
C2138 C 0.67307 0.76116 0.32748 0.0
C2139 C 0.65568 0.76304 0.4175 0.0
C2140 C 0.66228 0.7654 0.37735 0.0
C2141 C 0.68287 0.77354 0.26467 0.0
C2142 C 0.67554 0.77052 0.30281 0.0
H2143 H 0.65219 0.77647 0.50201 0.0
H2144 H 0.66319 0.78016 0.43712 0.0
H2145 H 0.66503 0.75154 0.38349 0.0
H2146 H 0.68705 0.76226 0.17451 0.0
H2147 H 0.67523 0.75703 0.23827 0.0
C2148 C 0.22077 0.89902 0.16392 0.0
C2149 C 0.221 0.90909 0.15906 0.0
C2150 C 0.22517 0.89693 0.20065 0.0
C2151 C 0.24388 0.91037 0.29295 0.0
H2152 H 0.22752 0.88115 0.34292 0.0
C2153 C 0.25352 0.89879 0.46066 0.0
C2154 C 0.25282 0.88846 0.4641 0.0
C2155 C 0.25029 0.90179 0.42274 0.0
C2156 C 0.23225 0.88931 0.32909 0.0
H2157 H 0.22615 0.92495 0.18874 0.0
H2158 H 0.2337 0.92123 0.25336 0.0
H2159 H 0.22057 0.8855 0.2785 0.0
H2160 H 0.24855 0.87334 0.42988 0.0
H2161 H 0.24299 0.87859 0.36386 0.0
H2162 H 0.25551 0.91417 0.34412 0.0
C2163 C 0.23024 0.915 0.22842 0.0
C2164 C 0.22828 0.89181 0.29213 0.0
C2165 C 0.22587 0.91711 0.19151 0.0
C2166 C 0.24913 0.88133 0.42844 0.0
C2167 C 0.24588 0.88431 0.39066 0.0
C2168 C 0.24785 0.90788 0.33012 0.0
C2169 C 0.22985 0.90484 0.23357 0.0
C2170 C 0.23407 0.90234 0.27341 0.0
C2171 C 0.24627 0.8945 0.3876 0.0
C2172 C 0.24211 0.89729 0.34839 0.0
H2173 H 0.21716 0.8927 0.13939 0.0
H2174 H 0.22492 0.8891 0.20318 0.0
H2175 H 0.2486 0.91853 0.27909 0.0
H2176 H 0.25633 0.90448 0.48754 0.0
H2177 H 0.25062 0.90967 0.42142 0.0
C2178 C 0.36034 0.11141 0.56483 0.0
C2179 C 0.3561 0.10439 0.52895 0.0
C2180 C 0.35443 0.10883 0.60335 0.0
C2181 C 0.33186 0.08639 0.6651 0.0
H2182 H 0.33017 0.11047 0.71891 0.0
C2183 C 0.30202 0.08025 0.8058 0.0
C2184 C 0.30594 0.08832 0.83827 0.0
C2185 C 0.3083 0.08169 0.76879 0.0
C2186 C 0.33067 0.10368 0.7047 0.0
H2187 H 0.34249 0.08895 0.50595 0.0
H2188 H 0.33212 0.08447 0.57343 0.0
H2189 H 0.34087 0.1138 0.65337 0.0
H2190 H 0.3197 0.10406 0.85802 0.0
H2191 H 0.3307 0.10648 0.79401 0.0
H2192 H 0.32162 0.07627 0.71664 0.0
C2193 C 0.34006 0.09194 0.57167 0.0
C2194 C 0.33681 0.10559 0.66707 0.0
C2195 C 0.34598 0.09453 0.53298 0.0
C2196 C 0.31639 0.09772 0.83347 0.0
C2197 C 0.32268 0.09914 0.79662 0.0
C2198 C 0.32573 0.08447 0.70295 0.0
C2199 C 0.34414 0.09918 0.60698 0.0
C2200 C 0.33752 0.09699 0.64693 0.0
C2201 C 0.31865 0.09122 0.76355 0.0
C2202 C 0.32511 0.09312 0.72328 0.0
H2203 H 0.36815 0.11902 0.56302 0.0
H2204 H 0.35789 0.11447 0.63024 0.0
H2205 H 0.33233 0.07962 0.65047 0.0
H2206 H 0.29399 0.07291 0.80851 0.0
H2207 H 0.30492 0.07547 0.74378 0.0
C2208 C 0.8941 0.21513 0.80805 0.0
C2209 C 0.90491 0.21759 0.81713 0.0
C2210 C 0.89178 0.21915 0.77074 0.0
C2211 C 0.90455 0.24054 0.68656 0.0
H2212 H 0.87757 0.22128 0.62496 0.0
C2213 C 0.89292 0.25145 0.52105 0.0
C2214 C 0.8819 0.24882 0.51634 0.0
C2215 C 0.89626 0.24802 0.55755 0.0
C2216 C 0.88509 0.22679 0.64201 0.0
H2217 H 0.92178 0.22622 0.79418 0.0
H2218 H 0.91769 0.23313 0.72854 0.0
H2219 H 0.88247 0.21445 0.68838 0.0
H2220 H 0.8658 0.24076 0.54684 0.0
H2221 H 0.87163 0.23483 0.61027 0.0
H2222 H 0.90714 0.25288 0.63976 0.0
C2223 C 0.91104 0.22821 0.75064 0.0
C2224 C 0.88789 0.22288 0.67839 0.0
C2225 C 0.91337 0.2242 0.78813 0.0
C2226 C 0.87435 0.24289 0.54928 0.0
C2227 C 0.87767 0.23942 0.58555 0.0
C2228 C 0.90175 0.24445 0.64994 0.0
C2229 C 0.9002 0.22567 0.74144 0.0
C2230 C 0.89758 0.22975 0.70146 0.0
C2231 C 0.88862 0.24183 0.58987 0.0
C2232 C 0.89192 0.23765 0.62763 0.0
H2233 H 0.8874 0.21012 0.82982 0.0
H2234 H 0.88338 0.21721 0.76509 0.0
H2235 H 0.91202 0.24607 0.70381 0.0
H2236 H 0.89895 0.25602 0.49626 0.0
H2237 H 0.90475 0.24995 0.55993 0.0
C2238 C 0.76142 0.69008 0.7601 0.0
C2239 C 0.7611 0.68438 0.79782 0.0
C2240 C 0.75724 0.6844 0.72139 0.0
C2241 C 0.74003 0.65621 0.67562 0.0
H2242 H 0.75782 0.66935 0.57359 0.0
C2243 C 0.73836 0.63127 0.52542 0.0
C2244 C 0.73846 0.63574 0.48479 0.0
C2245 C 0.73984 0.63738 0.56286 0.0
C2246 C 0.75268 0.66564 0.60166 0.0
H2247 H 0.75586 0.66821 0.82476 0.0
H2248 H 0.74884 0.65837 0.75735 0.0
H2249 H 0.7626 0.67977 0.64062 0.0
H2250 H 0.74006 0.6501 0.4516 0.0
H2251 H 0.74279 0.66083 0.51717 0.0
H2252 H 0.73039 0.6419 0.63678 0.0
C2253 C 0.75211 0.66719 0.75761 0.0
C2254 C 0.75539 0.67162 0.64009 0.0
C2255 C 0.75621 0.67286 0.79632 0.0
C2256 C 0.73995 0.64642 0.48242 0.0
C2257 C 0.74155 0.65258 0.51989 0.0
C2258 C 0.73739 0.6502 0.63729 0.0
C2259 C 0.75271 0.6729 0.71951 0.0
C2260 C 0.7492 0.66692 0.67774 0.0
C2261 C 0.74156 0.64813 0.56044 0.0
C2262 C 0.74379 0.6548 0.60011 0.0
H2263 H 0.76507 0.69896 0.76027 0.0
H2264 H 0.75766 0.68903 0.69283 0.0
H2265 H 0.73495 0.65241 0.70374 0.0
H2266 H 0.73721 0.62305 0.52833 0.0
H2267 H 0.73993 0.63379 0.59367 0.0
C2268 C 0.9026 0.64789 0.52116 0.0
C2269 C 0.89211 0.63846 0.51785 0.0
C2270 C 0.90578 0.65416 0.55897 0.0
C2271 C 0.89879 0.65321 0.67468 0.0
H2272 H 0.91288 0.68496 0.66335 0.0
C2273 C 0.90051 0.68109 0.81398 0.0
C2274 C 0.91025 0.69121 0.81989 0.0
C2275 C 0.8992 0.67459 0.77792 0.0
C2276 C 0.9091 0.67612 0.66711 0.0
H2277 H 0.87682 0.6281 0.55199 0.0
H2278 H 0.88233 0.63906 0.61758 0.0
H2279 H 0.90908 0.67361 0.59908 0.0
H2280 H 0.92629 0.70243 0.79266 0.0
H2281 H 0.924 0.69103 0.72962 0.0
H2282 H 0.89863 0.65571 0.74264 0.0
C2283 C 0.88815 0.64156 0.59121 0.0
C2284 C 0.90693 0.66962 0.63028 0.0
C2285 C 0.88497 0.6353 0.55346 0.0
C2286 C 0.91868 0.69468 0.78899 0.0
C2287 C 0.91735 0.68818 0.7528 0.0
C2288 C 0.90095 0.65971 0.71147 0.0
C2289 C 0.89855 0.65112 0.59427 0.0
C2290 C 0.90161 0.65807 0.6336 0.0
C2291 C 0.90758 0.67806 0.74687 0.0
C2292 C 0.90599 0.67123 0.70805 0.0
H2293 H 0.90831 0.65053 0.49435 0.0
H2294 H 0.9139 0.6614 0.56051 0.0
H2295 H 0.89486 0.64436 0.6784 0.0
H2296 H 0.89385 0.67818 0.8371 0.0
H2297 H 0.89151 0.66692 0.77398 0.0
C2298 C 0.32098 0.23352 0.80355 0.0
C2299 C 0.30945 0.22702 0.80171 0.0
C2300 C 0.32718 0.23731 0.76577 0.0
C2301 C 0.3257 0.24267 0.65061 0.0
H2302 H 0.35058 0.23793 0.64004 0.0
C2303 C 0.3473 0.24638 0.48802 0.0
C2304 C 0.35872 0.25051 0.48804 0.0
C2305 C 0.34153 0.24437 0.52679 0.0
C2306 C 0.34379 0.23951 0.64264 0.0
H2307 H 0.29535 0.21968 0.75878 0.0
H2308 H 0.30621 0.22637 0.69276 0.0
H2309 H 0.3401 0.23312 0.70687 0.0
H2310 H 0.37312 0.25611 0.5287 0.0
H2311 H 0.36313 0.25288 0.59631 0.0
H2312 H 0.3294 0.24912 0.58649 0.0
C2313 C 0.31043 0.22853 0.7235 0.0
C2314 C 0.33776 0.23671 0.68095 0.0
C2315 C 0.30422 0.22466 0.7613 0.0
C2316 C 0.3643 0.25283 0.52762 0.0
C2317 C 0.35855 0.25092 0.56639 0.0
C2318 C 0.33179 0.24556 0.61237 0.0
C2319 C 0.32198 0.23476 0.72535 0.0
C2320 C 0.32861 0.23818 0.68523 0.0
C2321 C 0.34707 0.24654 0.5665 0.0
C2322 C 0.34086 0.24393 0.60778 0.0
H2323 H 0.32527 0.23552 0.83415 0.0
H2324 H 0.33607 0.2422 0.76815 0.0
H2325 H 0.31875 0.244 0.65322 0.0
H2326 H 0.34274 0.24446 0.45806 0.0
H2327 H 0.33268 0.24084 0.52558 0.0
C2328 C 0.78469 0.0865 0.79848 0.0
C2329 C 0.77715 0.08116 0.83214 0.0
C2330 C 0.78149 0.08979 0.76139 0.0
C2331 C 0.75744 0.08522 0.69739 0.0
H2332 H 0.77756 0.11456 0.65438 0.0
C2333 C 0.74598 0.10569 0.55987 0.0
C2334 C 0.75424 0.11184 0.52945 0.0
C2335 C 0.74843 0.10164 0.59695 0.0
C2336 C 0.7719 0.10629 0.66563 0.0
H2337 H 0.76025 0.0748 0.85268 0.0
H2338 H 0.75466 0.08058 0.7877 0.0
H2339 H 0.7824 0.10786 0.71832 0.0
H2340 H 0.77149 0.11841 0.51373 0.0
H2341 H 0.7757 0.11125 0.57785 0.0
H2342 H 0.74696 0.08366 0.64441 0.0
C2343 C 0.76303 0.08218 0.79008 0.0
C2344 C 0.77467 0.10246 0.70231 0.0
C2345 C 0.76625 0.07891 0.82735 0.0
C2346 C 0.76495 0.11377 0.53665 0.0
C2347 C 0.76738 0.10971 0.57357 0.0
C2348 C 0.75467 0.08905 0.66052 0.0
C2349 C 0.77067 0.08779 0.75699 0.0
C2350 C 0.76752 0.09186 0.71844 0.0
C2351 C 0.75917 0.10366 0.60432 0.0
C2352 C 0.76191 0.09961 0.64406 0.0
H2353 H 0.79313 0.0883 0.80096 0.0
H2354 H 0.78751 0.09393 0.73613 0.0
H2355 H 0.7518 0.07698 0.70889 0.0
H2356 H 0.73765 0.10408 0.5553 0.0
H2357 H 0.74194 0.09711 0.6202 0.0
C2358 C 0.68641 0.89823 0.20493 0.0
C2359 C 0.69184 0.90879 0.18645 0.0
C2360 C 0.68019 0.89621 0.24243 0.0
C2361 C 0.6657 0.90726 0.30682 0.0
H2362 H 0.66419 0.88608 0.39093 0.0
C2363 C 0.64095 0.89735 0.46684 0.0
C2364 C 0.63421 0.88606 0.47585 0.0
C2365 C 0.64853 0.90081 0.43291 0.0
C2366 C 0.6645 0.89198 0.36761 0.0
H2367 H 0.69526 0.92561 0.19351 0.0
H2368 H 0.68459 0.92214 0.25964 0.0
H2369 H 0.67686 0.89112 0.33031 0.0
H2370 H 0.63012 0.86958 0.45627 0.0
H2371 H 0.6434 0.87565 0.39745 0.0
H2372 H 0.65334 0.90812 0.34458 0.0
C2373 C 0.68495 0.91536 0.2446 0.0
C2374 C 0.67174 0.89485 0.3328 0.0
C2375 C 0.69112 0.91736 0.20684 0.0
C2376 C 0.63518 0.87833 0.45019 0.0
C2377 C 0.64284 0.8818 0.41668 0.0
C2378 C 0.65853 0.90445 0.34193 0.0
C2379 C 0.67932 0.90473 0.26263 0.0
C2380 C 0.67229 0.90238 0.30153 0.0
C2381 C 0.64961 0.89307 0.40778 0.0
C2382 C 0.65774 0.89665 0.37223 0.0
H2383 H 0.68675 0.89143 0.18995 0.0
H2384 H 0.67583 0.88788 0.25492 0.0
H2385 H 0.66579 0.91297 0.28311 0.0
H2386 H 0.64038 0.9035 0.486 0.0
H2387 H 0.65369 0.90956 0.42679 0.0
C2388 C 0.1128 0.76774 0.5052 0.0
C2389 C 0.11236 0.75757 0.51054 0.0
C2390 C 0.10817 0.76972 0.46891 0.0
C2391 C 0.08846 0.75586 0.37967 0.0
H2392 H 0.10455 0.78473 0.3266 0.0
C2393 C 0.07748 0.76648 0.21273 0.0
C2394 C 0.07814 0.77679 0.20888 0.0
C2395 C 0.08103 0.7637 0.25035 0.0
C2396 C 0.09989 0.77666 0.34131 0.0
H2397 H 0.10662 0.74147 0.48214 0.0
H2398 H 0.09869 0.745 0.4183 0.0
H2399 H 0.11204 0.78069 0.39021 0.0
H2400 H 0.08274 0.79213 0.24205 0.0
H2401 H 0.08888 0.78727 0.30754 0.0
H2402 H 0.07637 0.75184 0.33014 0.0
C2403 C 0.10248 0.75138 0.44252 0.0
C2404 C 0.10418 0.77435 0.37782 0.0
C2405 C 0.10708 0.74938 0.47899 0.0
C2406 C 0.08216 0.78414 0.24384 0.0
C2407 C 0.08574 0.78139 0.2813 0.0
C2408 C 0.08419 0.75817 0.34294 0.0
C2409 C 0.10304 0.76161 0.43693 0.0
C2410 C 0.09849 0.76394 0.39763 0.0
C2411 C 0.08536 0.7712 0.28475 0.0
C2412 C 0.08984 0.76863 0.32355 0.0
H2413 H 0.11673 0.7742 0.52905 0.0
H2414 H 0.10857 0.77761 0.46605 0.0
H2415 H 0.08381 0.7478 0.3944 0.0
H2416 H 0.07441 0.76063 0.1864 0.0
H2417 H 0.08069 0.75582 0.25199 0.0
C2418 C 0.23091 0.3038 0.17117 0.0
C2419 C 0.21979 0.29566 0.16645 0.0
C2420 C 0.23458 0.31002 0.20905 0.0
C2421 C 0.22703 0.31028 0.32323 0.0
H2422 H 0.24549 0.34198 0.313 0.0
C2423 C 0.23151 0.33982 0.46013 0.0
C2424 C 0.24192 0.34908 0.46769 0.0
C2425 C 0.22976 0.33306 0.42452 0.0
C2426 C 0.24049 0.33313 0.31648 0.0
H2427 H 0.20385 0.28751 0.19812 0.0
H2428 H 0.21022 0.29836 0.26379 0.0
H2429 H 0.2408 0.33049 0.24867 0.0
H2430 H 0.25869 0.35844 0.44397 0.0
H2431 H 0.25562 0.34658 0.38168 0.0
H2432 H 0.22654 0.31292 0.3909 0.0
C2433 C 0.21614 0.29989 0.2385 0.0
C2434 C 0.2378 0.32654 0.27963 0.0
C2435 C 0.21247 0.29372 0.20068 0.0
C2436 C 0.25057 0.35138 0.43899 0.0
C2437 C 0.2488 0.34462 0.40322 0.0
C2438 C 0.22971 0.31685 0.36003 0.0
C2439 C 0.22721 0.30817 0.24302 0.0
C2440 C 0.23089 0.31506 0.28252 0.0
C2441 C 0.23837 0.3354 0.39557 0.0
C2442 C 0.23631 0.32837 0.35698 0.0
H2443 H 0.23676 0.30549 0.14542 0.0
H2444 H 0.24319 0.31627 0.21175 0.0
H2445 H 0.22186 0.30144 0.32662 0.0
H2446 H 0.22466 0.33782 0.48155 0.0
H2447 H 0.22159 0.32612 0.41918 0.0
C2448 C 0.02613 0.44179 0.88478 0.0
C2449 C 0.0221 0.44533 0.8505 0.0
C2450 C 0.0197 0.43706 0.92156 0.0
C2451 C 0.99607 0.43551 0.98072 0.0
H2452 H 0.9957 0.41087 0.03922 0.0
C2453 C 0.96609 0.41297 0.11971 0.0
C2454 C 0.97057 0.41091 0.15668 0.0
C2455 C 0.97212 0.41637 0.08144 0.0
C2456 C 0.99578 0.4178 0.02337 0.0
H2457 H 0.00808 0.44644 0.82754 0.0
H2458 H 0.99683 0.43804 0.89117 0.0
H2459 H 0.00678 0.41843 0.9741 0.0
H2460 H 0.98475 0.41041 0.18191 0.0
H2461 H 0.99528 0.41639 0.11496 0.0
H2462 H 0.98508 0.43489 0.02983 0.0
C2463 C 0.00503 0.43912 0.89013 0.0
C2464 C 0.00215 0.42214 0.98613 0.0
C2465 C 0.01147 0.44389 0.85351 0.0
C2466 C 0.98106 0.41194 0.15404 0.0
C2467 C 0.98708 0.41532 0.11564 0.0
C2468 C 0.98969 0.43115 0.01775 0.0
C2469 C 0.00909 0.43573 0.92477 0.0
C2470 C 0.00235 0.43105 0.96435 0.0
C2471 C 0.98275 0.41777 0.07917 0.0
C2472 C 0.98946 0.42224 0.03947 0.0
H2473 H 0.0343 0.4428 0.88348 0.0
H2474 H 0.02313 0.43465 0.94784 0.0
H2475 H 0.99621 0.44251 0.96532 0.0
H2476 H 0.95801 0.41219 0.12052 0.0
H2477 H 0.96849 0.41802 0.05366 0.0
C2478 C 0.55813 0.54463 0.12906 0.0
C2479 C 0.56871 0.54634 0.13754 0.0
C2480 C 0.55598 0.54852 0.09097 0.0
C2481 C 0.56964 0.56858 0.00273 0.0
H2482 H 0.54169 0.55068 0.94488 0.0
C2483 C 0.55934 0.57991 0.83625 0.0
C2484 C 0.54888 0.57888 0.83247 0.0
C2485 C 0.56204 0.57584 0.87258 0.0
C2486 C 0.5495 0.5558 0.96084 0.0
H2487 H 0.58534 0.55344 0.1126 0.0
H2488 H 0.58155 0.56007 0.04572 0.0
H2489 H 0.54594 0.54373 0.00973 0.0
H2490 H 0.53302 0.57272 0.86379 0.0
H2491 H 0.53773 0.56561 0.92698 0.0
H2492 H 0.57318 0.58063 0.95353 0.0
C2493 C 0.57495 0.55588 0.06885 0.0
C2494 C 0.55193 0.55184 0.99805 0.0
C2495 C 0.57711 0.55203 0.10709 0.0
C2496 C 0.54116 0.57365 0.86567 0.0
C2497 C 0.54382 0.56951 0.90177 0.0
C2498 C 0.56722 0.57252 0.96533 0.0
C2499 C 0.56435 0.55415 0.06031 0.0
C2500 C 0.56198 0.55822 0.01972 0.0
C2501 C 0.55429 0.57057 0.90564 0.0
C2502 C 0.55708 0.56622 0.94425 0.0
H2503 H 0.55149 0.54033 0.15193 0.0
H2504 H 0.54778 0.54721 0.08581 0.0
H2505 H 0.57739 0.57376 0.01889 0.0
H2506 H 0.56547 0.5839 0.81124 0.0
H2507 H 0.57014 0.57669 0.87455 0.0
C2508 C 0.44065 0.02502 0.13132 0.0
C2509 C 0.44523 0.02174 0.16445 0.0
C2510 C 0.43639 0.01856 0.09428 0.0
C2511 C 0.43796 0.99685 0.03219 0.0
H2512 H 0.41143 0.99296 0.97714 0.0
C2513 C 0.41697 0.96578 0.89475 0.0
C2514 C 0.41384 0.96956 0.85845 0.0
C2515 C 0.42021 0.97196 0.93267 0.0
C2516 C 0.41889 0.99404 0.99202 0.0
H2517 H 0.44866 0.00898 0.18519 0.0
H2518 H 0.44105 0.99765 0.12124 0.0
H2519 H 0.41824 0.00416 0.04234 0.0
H2520 H 0.41133 0.98264 0.83398 0.0
H2521 H 0.41699 0.99344 0.90036 0.0
H2522 H 0.43859 0.9867 0.98211 0.0
C2523 C 0.44097 0.00532 0.12329 0.0
C2524 C 0.42281 0.00047 0.02929 0.0
C2525 C 0.44528 0.01179 0.16011 0.0
C2526 C 0.41371 0.97951 0.86134 0.0
C2527 C 0.4169 0.98567 0.89941 0.0
C2528 C 0.43402 0.99039 0.99516 0.0
C2529 C 0.43657 0.00867 0.08971 0.0
C2530 C 0.43238 0.00193 0.04989 0.0
C2531 C 0.42034 0.98204 0.93525 0.0
C2532 C 0.42443 0.98889 0.97472 0.0
H2533 H 0.44052 0.03267 0.13367 0.0
H2534 H 0.43316 0.02144 0.06886 0.0
H2535 H 0.44549 0.99798 0.04664 0.0
H2536 H 0.41712 0.95813 0.89369 0.0
H2537 H 0.42267 0.96887 0.95998 0.0
C2538 C 0.56746 0.9876 0.85532 0.0
C2539 C 0.56292 0.97612 0.85335 0.0
C2540 C 0.57097 0.99316 0.89455 0.0
C2541 C 0.56644 0.98825 0.01155 0.0
H2542 H 0.59081 0.01826 0.01837 0.0
C2543 C 0.58008 0.01309 0.17097 0.0
C2544 C 0.5815 0.02374 0.16849 0.0
C2545 C 0.57872 0.007 0.13349 0.0
C2546 C 0.58397 0.00989 0.01688 0.0
H2547 H 0.55898 0.96153 0.89075 0.0
H2548 H 0.56535 0.97127 0.95916 0.0
H2549 H 0.58727 0.00805 0.95106 0.0
H2550 H 0.58275 0.0364 0.1248 0.0
H2551 H 0.58045 0.0258 0.05949 0.0
H2552 H 0.56317 0.99016 0.07748 0.0
C2553 C 0.56595 0.97595 0.9305 0.0
C2554 C 0.58192 0.00404 0.97833 0.0
C2555 C 0.56237 0.97037 0.89124 0.0
C2556 C 0.58164 0.02821 0.12781 0.0
C2557 C 0.58041 0.02218 0.09038 0.0
C2558 C 0.56856 0.99408 0.05022 0.0
C2559 C 0.57011 0.98738 0.93276 0.0
C2560 C 0.57299 0.99322 0.97492 0.0
C2561 C 0.5789 0.0115 0.09284 0.0
C2562 C 0.57722 0.00502 0.05301 0.0
H2563 H 0.56798 0.99229 0.82677 0.0
H2564 H 0.57397 0.00193 0.89507 0.0
H2565 H 0.5594 0.98 0.00999 0.0
H2566 H 0.57993 0.00942 0.20186 0.0
H2567 H 0.57761 -0.0012 0.13625 0.0
C2568 C 0.01364 0.58184 0.84989 0.0
C2569 C 0.02356 0.5817 0.84614 0.0
C2570 C 0.00723 0.57788 0.88722 0.0
C2571 C 0.00192 0.55888 0.97739 0.0
H2572 H 0.98818 0.5739 0.0316 0.0
C2573 C 0.98043 0.54516 0.14197 0.0
C2574 C 0.97056 0.54527 0.14793 0.0
C2575 C 0.98687 0.54989 0.10531 0.0
C2576 C 0.99185 0.56953 0.01654 0.0
H2577 H 0.03469 0.57761 0.87921 0.0
H2578 H 0.02354 0.57076 0.94412 0.0
H2579 H -0.00048 0.58181 0.96731 0.0
H2580 H 0.9597 0.55047 0.1201 0.0
H2581 H 0.97085 0.55857 0.05567 0.0
H2582 H 0.99421 0.54655 0.02606 0.0
C2583 C 0.02064 0.57379 0.91803 0.0
C2584 C -0.00164 0.57408 0.97978 0.0
C2585 C 0.02706 0.57778 0.88089 0.0
C2586 C 0.96728 0.55027 0.1165 0.0
C2587 C 0.97371 0.55497 0.07969 0.0
C2588 C 0.99539 0.55431 0.01393 0.0
C2589 C 0.01059 0.57366 0.92141 0.0
C2590 C 0.00353 0.56883 0.96001 0.0
C2591 C 0.98356 0.5548 0.07358 0.0
C2592 C 0.99033 0.55961 0.03416 0.0
H2593 H 0.01071 0.58481 0.82372 0.0
H2594 H -0.00052 0.57783 0.88882 0.0
H2595 H 0.00562 0.55453 0.96239 0.0
H2596 H 0.98323 0.54144 0.1657 0.0
H2597 H 0.9945 0.54979 0.10204 0.0
C2598 C 0.44852 0.43667 0.15105 0.0
C2599 C 0.44749 0.42629 0.15778 0.0
C2600 C 0.4445 0.43886 0.11344 0.0
C2601 C 0.42535 0.42532 0.02239 0.0
H2602 H 0.44239 0.45412 0.96952 0.0
C2603 C 0.41522 0.43629 0.85485 0.0
C2604 C 0.41568 0.44652 0.85158 0.0
C2605 C 0.41892 0.43353 0.89208 0.0
C2606 C 0.4375 0.44607 0.98412 0.0
H2607 H 0.44142 0.41003 0.13032 0.0
H2608 H 0.43457 0.41391 0.06416 0.0
H2609 H 0.44927 0.44978 0.0343 0.0
H2610 H 0.42033 0.46184 0.88491 0.0
H2611 H 0.42682 0.45703 0.94973 0.0
H2612 H 0.41363 0.42161 0.97169 0.0
C2613 C 0.43833 0.42031 0.08833 0.0
C2614 C 0.44142 0.44358 0.0213 0.0
C2615 C 0.4423 0.4181 0.12614 0.0
C2616 C 0.41987 0.4539 0.88638 0.0
C2617 C 0.42364 0.45118 0.92342 0.0
C2618 C 0.42145 0.42779 0.98499 0.0
C2619 C 0.43942 0.43074 0.08146 0.0
C2620 C 0.43536 0.43321 0.04112 0.0
C2621 C 0.42324 0.44099 0.9266 0.0
C2622 C 0.42745 0.43822 0.96569 0.0
H2623 H 0.45241 0.44314 0.17491 0.0
H2624 H 0.44529 0.4469 0.10962 0.0
H2625 H 0.4204 0.4173 0.03711 0.0
H2626 H 0.41203 0.43041 0.82862 0.0
H2627 H 0.41859 0.42565 0.89352 0.0
loop_
_geom_bond_atom_site_label_1
_geom_bond_atom_site_label_2
_geom_bond_distance
_geom_bond_site_symmetry_2
_ccdc_geom_bond_type
C0 O1 1.160 . S
C0 O7 1.185 . S
O1 C0 1.160 . S
O2 Zn3 1.899 . S
O2 C10 1.284 . S
Zn3 O2 1.899 . S
Zn3 O4 2.032 . S
Zn3 O7 2.086 . S
Zn3 O12 1.977 . S
O4 Zn3 2.032 . S
O4 C8 1.278 . S
C5 O6 1.203 . S
C5 O12 1.267 . S
O6 C5 1.203 . S
O7 C0 1.185 . S
O7 Zn3 2.086 . S
C8 O4 1.278 . S
C8 O9 1.211 . S
O9 C8 1.211 . S
C10 O2 1.284 . S
C10 O11 1.273 . S
O11 C10 1.273 . S
O12 Zn3 1.977 . S
O12 C5 1.267 . S
C13 O14 1.160 . S
C13 O20 1.185 . S
O14 C13 1.160 . S
O15 Zn16 1.899 . S
O15 C23 1.284 . S
Zn16 O15 1.899 . S
Zn16 O17 2.032 . S
Zn16 O20 2.086 . S
Zn16 O25 1.977 . S
O17 Zn16 2.032 . S
O17 C21 1.278 . S
C18 O19 1.203 . S
C18 O25 1.267 . S
O19 C18 1.203 . S
O20 C13 1.185 . S
O20 Zn16 2.086 . S
C21 O17 1.278 . S
C21 O22 1.211 . S
O22 C21 1.211 . S
C23 O15 1.284 . S
C23 O24 1.273 . S
O24 C23 1.273 . S
O25 Zn16 1.977 . S
O25 C18 1.267 . S
C26 O27 1.160 . S
C26 O33 1.185 . S
O27 C26 1.160 . S
O28 Zn29 1.899 . S
O28 C36 1.284 . S
Zn29 O28 1.899 . S
Zn29 O30 2.032 . S
Zn29 O33 2.086 . S
Zn29 O38 1.977 . S
O30 Zn29 2.032 . S
O30 C34 1.278 . S
C31 O32 1.203 . S
C31 O38 1.267 . S
O32 C31 1.203 . S
O33 C26 1.185 . S
O33 Zn29 2.086 . S
C34 O30 1.278 . S
C34 O35 1.211 . S
O35 C34 1.211 . S
C36 O28 1.284 . S
C36 O37 1.273 . S
O37 C36 1.273 . S
O38 Zn29 1.977 . S
O38 C31 1.267 . S
C39 O40 1.160 . S
C39 O46 1.185 . S
O40 C39 1.160 . S
O41 Zn42 1.899 . S
O41 C49 1.284 . S
Zn42 O41 1.899 . S
Zn42 O43 2.032 . S
Zn42 O46 2.086 . S
Zn42 O51 1.977 . S
O43 Zn42 2.032 . S
O43 C47 1.278 . S
C44 O45 1.203 . S
C44 O51 1.267 . S
O45 C44 1.203 . S
O46 C39 1.185 . S
O46 Zn42 2.086 . S
C47 O43 1.278 . S
C47 O48 1.211 . S
O48 C47 1.211 . S
C49 O41 1.284 . S
C49 O50 1.273 . S
O50 C49 1.273 . S
O51 Zn42 1.977 . S
O51 C44 1.267 . S
C52 O53 1.160 . S
C52 O59 1.185 . S
O53 C52 1.160 . S
O54 Zn55 1.899 . S
O54 C62 1.284 . S
Zn55 O54 1.899 . S
Zn55 O56 2.032 . S
Zn55 O59 2.086 . S
Zn55 O64 1.977 . S
O56 Zn55 2.032 . S
O56 C60 1.278 . S
C57 O58 1.203 . S
C57 O64 1.267 . S
O58 C57 1.203 . S
O59 C52 1.185 . S
O59 Zn55 2.086 . S
C60 O56 1.278 . S
C60 O61 1.211 . S
O61 C60 1.211 . S
C62 O54 1.284 . S
C62 O63 1.273 . S
O63 C62 1.273 . S
O64 Zn55 1.977 . S
O64 C57 1.267 . S
C65 O66 1.160 . S
C65 O72 1.185 . S
O66 C65 1.160 . S
O67 Zn68 1.899 . S
O67 C75 1.284 . S
Zn68 O67 1.899 . S
Zn68 O69 2.032 . S
Zn68 O72 2.086 . S
Zn68 O77 1.977 . S
O69 Zn68 2.032 . S
O69 C73 1.278 . S
C70 O71 1.203 . S
C70 O77 1.267 . S
O71 C70 1.203 . S
O72 C65 1.185 . S
O72 Zn68 2.086 . S
C73 O69 1.278 . S
C73 O74 1.211 . S
O74 C73 1.211 . S
C75 O67 1.284 . S
C75 O76 1.273 . S
O76 C75 1.273 . S
O77 Zn68 1.977 . S
O77 C70 1.267 . S
C78 O79 1.160 . S
C78 O85 1.185 . S
O79 C78 1.160 . S
O80 Zn81 1.899 . S
O80 C88 1.284 . S
Zn81 O80 1.899 . S
Zn81 O82 2.032 . S
Zn81 O85 2.086 . S
Zn81 O90 1.977 . S
O82 Zn81 2.032 . S
O82 C86 1.278 . S
C83 O84 1.203 . S
C83 O90 1.267 . S
O84 C83 1.203 . S
O85 C78 1.185 . S
O85 Zn81 2.086 . S
C86 O82 1.278 . S
C86 O87 1.211 . S
O87 C86 1.211 . S
C88 O80 1.284 . S
C88 O89 1.273 . S
O89 C88 1.273 . S
O90 Zn81 1.977 . S
O90 C83 1.267 . S
C91 O92 1.160 . S
C91 O98 1.185 . S
O92 C91 1.160 . S
O93 Zn94 1.899 . S
O93 C101 1.284 . S
Zn94 O93 1.899 . S
Zn94 O95 2.032 . S
Zn94 O98 2.086 . S
Zn94 O103 1.977 . S
O95 Zn94 2.032 . S
O95 C99 1.278 . S
C96 O97 1.203 . S
C96 O103 1.267 . S
O97 C96 1.203 . S
O98 C91 1.185 . S
O98 Zn94 2.086 . S
C99 O95 1.278 . S
C99 O100 1.211 . S
O100 C99 1.211 . S
C101 O93 1.284 . S
C101 O102 1.273 . S
O102 C101 1.273 . S
O103 Zn94 1.977 . S
O103 C96 1.267 . S
C104 O105 1.160 . S
C104 O111 1.185 . S
O105 C104 1.160 . S
O106 Zn107 1.899 . S
O106 C114 1.284 . S
Zn107 O106 1.899 . S
Zn107 O108 2.032 . S
Zn107 O111 2.086 . S
Zn107 O116 1.977 . S
O108 Zn107 2.032 . S
O108 C112 1.278 . S
C109 O110 1.203 . S
C109 O116 1.267 . S
O110 C109 1.203 . S
O111 C104 1.185 . S
O111 Zn107 2.086 . S
C112 O108 1.278 . S
C112 O113 1.211 . S
O113 C112 1.211 . S
C114 O106 1.284 . S
C114 O115 1.273 . S
O115 C114 1.273 . S
O116 Zn107 1.977 . S
O116 C109 1.267 . S
C117 O118 1.160 . S
C117 O124 1.185 . S
O118 C117 1.160 . S
O119 Zn120 1.899 . S
O119 C127 1.284 . S
Zn120 O119 1.899 . S
Zn120 O121 2.032 . S
Zn120 O124 2.086 . S
Zn120 O129 1.977 . S
O121 Zn120 2.032 . S
O121 C125 1.278 . S
C122 O123 1.203 . S
C122 O129 1.267 . S
O123 C122 1.203 . S
O124 C117 1.185 . S
O124 Zn120 2.086 . S
C125 O121 1.278 . S
C125 O126 1.211 . S
O126 C125 1.211 . S
C127 O119 1.284 . S
C127 O128 1.273 . S
O128 C127 1.273 . S
O129 Zn120 1.977 . S
O129 C122 1.267 . S
C130 O131 1.160 . S
C130 O137 1.185 . S
O131 C130 1.160 . S
O132 Zn133 1.899 . S
O132 C140 1.284 . S
Zn133 O132 1.899 . S
Zn133 O134 2.032 . S
Zn133 O137 2.086 . S
Zn133 O142 1.977 . S
O134 Zn133 2.032 . S
O134 C138 1.278 . S
C135 O136 1.203 . S
C135 O142 1.267 . S
O136 C135 1.203 . S
O137 C130 1.185 . S
O137 Zn133 2.086 . S
C138 O134 1.278 . S
C138 O139 1.211 . S
O139 C138 1.211 . S
C140 O132 1.284 . S
C140 O141 1.273 . S
O141 C140 1.273 . S
O142 Zn133 1.977 . S
O142 C135 1.267 . S
C143 O144 1.160 . S
C143 O150 1.185 . S
O144 C143 1.160 . S
O145 Zn146 1.899 . S
O145 C153 1.284 . S
Zn146 O145 1.899 . S
Zn146 O147 2.032 . S
Zn146 O150 2.086 . S
Zn146 O155 1.977 . S
O147 Zn146 2.032 . S
O147 C151 1.278 . S
C148 O149 1.203 . S
C148 O155 1.267 . S
O149 C148 1.203 . S
O150 C143 1.185 . S
O150 Zn146 2.086 . S
C151 O147 1.278 . S
C151 O152 1.211 . S
O152 C151 1.211 . S
C153 O145 1.284 . S
C153 O154 1.273 . S
O154 C153 1.273 . S
O155 Zn146 1.977 . S
O155 C148 1.267 . S
C156 O157 1.160 . S
C156 O163 1.185 . S
O157 C156 1.160 . S
O158 Zn159 1.899 . S
O158 C166 1.284 . S
Zn159 O158 1.899 . S
Zn159 O160 2.032 . S
Zn159 O163 2.086 . S
Zn159 O168 1.977 . S
O160 Zn159 2.032 . S
O160 C164 1.278 . S
C161 O162 1.203 . S
C161 O168 1.267 . S
O162 C161 1.203 . S
O163 C156 1.185 . S
O163 Zn159 2.086 . S
C164 O160 1.278 . S
C164 O165 1.211 . S
O165 C164 1.211 . S
C166 O158 1.284 . S
C166 O167 1.273 . S
O167 C166 1.273 . S
O168 Zn159 1.977 . S
O168 C161 1.267 . S
C169 O170 1.160 . S
C169 O176 1.185 . S
O170 C169 1.160 . S
O171 Zn172 1.899 . S
O171 C179 1.284 . S
Zn172 O171 1.899 . S
Zn172 O173 2.032 . S
Zn172 O176 2.086 . S
Zn172 O181 1.977 . S
O173 Zn172 2.032 . S
O173 C177 1.278 . S
C174 O175 1.203 . S
C174 O181 1.267 . S
O175 C174 1.203 . S
O176 C169 1.185 . S
O176 Zn172 2.086 . S
C177 O173 1.278 . S
C177 O178 1.211 . S
O178 C177 1.211 . S
C179 O171 1.284 . S
C179 O180 1.273 . S
O180 C179 1.273 . S
O181 Zn172 1.977 . S
O181 C174 1.267 . S
C182 O183 1.160 . S
C182 O189 1.185 . S
O183 C182 1.160 . S
O184 Zn185 1.899 . S
O184 C192 1.284 . S
Zn185 O184 1.899 . S
Zn185 O186 2.032 . S
Zn185 O189 2.086 . S
Zn185 O194 1.977 . S
O186 Zn185 2.032 . S
O186 C190 1.278 . S
C187 O188 1.203 . S
C187 O194 1.267 . S
O188 C187 1.203 . S
O189 C182 1.185 . S
O189 Zn185 2.086 . S
C190 O186 1.278 . S
C190 O191 1.211 . S
O191 C190 1.211 . S
C192 O184 1.284 . S
C192 O193 1.273 . S
O193 C192 1.273 . S
O194 Zn185 1.977 . S
O194 C187 1.267 . S
C195 O196 1.160 . S
C195 O202 1.185 . S
O196 C195 1.160 . S
O197 Zn198 1.899 . S
O197 C205 1.284 . S
Zn198 O197 1.899 . S
Zn198 O199 2.032 . S
Zn198 O202 2.086 . S
Zn198 O207 1.977 . S
O199 Zn198 2.032 . S
O199 C203 1.278 . S
C200 O201 1.203 . S
C200 O207 1.267 . S
O201 C200 1.203 . S
O202 C195 1.185 . S
O202 Zn198 2.086 . S
C203 O199 1.278 . S
C203 O204 1.211 . S
O204 C203 1.211 . S
C205 O197 1.284 . S
C205 O206 1.273 . S
O206 C205 1.273 . S
O207 Zn198 1.977 . S
O207 C200 1.267 . S
C208 O209 1.160 . S
C208 O215 1.185 . S
O209 C208 1.160 . S
O210 Zn211 1.899 . S
O210 C218 1.284 . S
Zn211 O210 1.899 . S
Zn211 O212 2.032 . S
Zn211 O215 2.086 . S
Zn211 O220 1.977 . S
O212 Zn211 2.032 . S
O212 C216 1.278 . S
C213 O214 1.203 . S
C213 O220 1.267 . S
O214 C213 1.203 . S
O215 C208 1.185 . S
O215 Zn211 2.086 . S
C216 O212 1.278 . S
C216 O217 1.211 . S
O217 C216 1.211 . S
C218 O210 1.284 . S
C218 O219 1.273 . S
O219 C218 1.273 . S
O220 Zn211 1.977 . S
O220 C213 1.267 . S
C221 O222 1.160 . S
C221 O228 1.185 . S
O222 C221 1.160 . S
O223 Zn224 1.899 . S
O223 C231 1.284 . S
Zn224 O223 1.899 . S
Zn224 O225 2.032 . S
Zn224 O228 2.086 . S
Zn224 O233 1.977 . S
O225 Zn224 2.032 . S
O225 C229 1.278 . S
C226 O227 1.203 . S
C226 O233 1.267 . S
O227 C226 1.203 . S
O228 C221 1.185 . S
O228 Zn224 2.086 . S
C229 O225 1.278 . S
C229 O230 1.211 . S
O230 C229 1.211 . S
C231 O223 1.284 . S
C231 O232 1.273 . S
O232 C231 1.273 . S
O233 Zn224 1.977 . S
O233 C226 1.267 . S
C234 O235 1.160 . S
C234 O241 1.185 . S
O235 C234 1.160 . S
O236 Zn237 1.899 . S
O236 C244 1.284 . S
Zn237 O236 1.899 . S
Zn237 O238 2.032 . S
Zn237 O241 2.086 . S
Zn237 O246 1.977 . S
O238 Zn237 2.032 . S
O238 C242 1.278 . S
C239 O240 1.203 . S
C239 O246 1.267 . S
O240 C239 1.203 . S
O241 C234 1.185 . S
O241 Zn237 2.086 . S
C242 O238 1.278 . S
C242 O243 1.211 . S
O243 C242 1.211 . S
C244 O236 1.284 . S
C244 O245 1.273 . S
O245 C244 1.273 . S
O246 Zn237 1.977 . S
O246 C239 1.267 . S
C247 O248 1.160 . S
C247 O254 1.185 . S
O248 C247 1.160 . S
O249 Zn250 1.899 . S
O249 C257 1.284 . S
Zn250 O249 1.899 . S
Zn250 O251 2.032 . S
Zn250 O254 2.086 . S
Zn250 O259 1.977 . S
O251 Zn250 2.032 . S
O251 C255 1.278 . S
C252 O253 1.203 . S
C252 O259 1.267 . S
O253 C252 1.203 . S
O254 C247 1.185 . S
O254 Zn250 2.086 . S
C255 O251 1.278 . S
C255 O256 1.211 . S
O256 C255 1.211 . S
C257 O249 1.284 . S
C257 O258 1.273 . S
O258 C257 1.273 . S
O259 Zn250 1.977 . S
O259 C252 1.267 . S
C260 O261 1.160 . S
C260 O267 1.185 . S
O261 C260 1.160 . S
O262 Zn263 1.899 . S
O262 C270 1.284 . S
Zn263 O262 1.899 . S
Zn263 O264 2.032 . S
Zn263 O267 2.086 . S
Zn263 O272 1.977 . S
O264 Zn263 2.032 . S
O264 C268 1.278 . S
C265 O266 1.203 . S
C265 O272 1.267 . S
O266 C265 1.203 . S
O267 C260 1.185 . S
O267 Zn263 2.086 . S
C268 O264 1.278 . S
C268 O269 1.211 . S
O269 C268 1.211 . S
C270 O262 1.284 . S
C270 O271 1.273 . S
O271 C270 1.273 . S
O272 Zn263 1.977 . S
O272 C265 1.267 . S
C273 O274 1.160 . S
C273 O280 1.185 . S
O274 C273 1.160 . S
O275 Zn276 1.899 . S
O275 C283 1.284 . S
Zn276 O275 1.899 . S
Zn276 O277 2.032 . S
Zn276 O280 2.086 . S
Zn276 O285 1.977 . S
O277 Zn276 2.032 . S
O277 C281 1.278 . S
C278 O279 1.203 . S
C278 O285 1.267 . S
O279 C278 1.203 . S
O280 C273 1.185 . S
O280 Zn276 2.086 . S
C281 O277 1.278 . S
C281 O282 1.211 . S
O282 C281 1.211 . S
C283 O275 1.284 . S
C283 O284 1.273 . S
O284 C283 1.273 . S
O285 Zn276 1.977 . S
O285 C278 1.267 . S
C286 O287 1.160 . S
C286 O293 1.185 . S
O287 C286 1.160 . S
O288 Zn289 1.899 . S
O288 C296 1.284 . S
Zn289 O288 1.899 . S
Zn289 O290 2.032 . S
Zn289 O293 2.086 . S
Zn289 O298 1.977 . S
O290 Zn289 2.032 . S
O290 C294 1.278 . S
C291 O292 1.203 . S
C291 O298 1.267 . S
O292 C291 1.203 . S
O293 C286 1.185 . S
O293 Zn289 2.086 . S
C294 O290 1.278 . S
C294 O295 1.211 . S
O295 C294 1.211 . S
C296 O288 1.284 . S
C296 O297 1.273 . S
O297 C296 1.273 . S
O298 Zn289 1.977 . S
O298 C291 1.267 . S
C299 O300 1.160 . S
C299 O306 1.185 . S
O300 C299 1.160 . S
O301 Zn302 1.899 . S
O301 C309 1.284 . S
Zn302 O301 1.899 . S
Zn302 O303 2.032 . S
Zn302 O306 2.086 . S
Zn302 O311 1.977 . S
O303 Zn302 2.032 . S
O303 C307 1.278 . S
C304 O305 1.203 . S
C304 O311 1.267 . S
O305 C304 1.203 . S
O306 C299 1.185 . S
O306 Zn302 2.086 . S
C307 O303 1.278 . S
C307 O308 1.211 . S
O308 C307 1.211 . S
C309 O301 1.284 . S
C309 O310 1.273 . S
O310 C309 1.273 . S
O311 Zn302 1.977 . S
O311 C304 1.267 . S
C312 O313 1.160 . S
C312 O319 1.185 . S
O313 C312 1.160 . S
O314 Zn315 1.899 . S
O314 C322 1.284 . S
Zn315 O314 1.899 . S
Zn315 O316 2.032 . S
Zn315 O319 2.086 . S
Zn315 O324 1.977 . S
O316 Zn315 2.032 . S
O316 C320 1.278 . S
C317 O318 1.203 . S
C317 O324 1.267 . S
O318 C317 1.203 . S
O319 C312 1.185 . S
O319 Zn315 2.086 . S
C320 O316 1.278 . S
C320 O321 1.211 . S
O321 C320 1.211 . S
C322 O314 1.284 . S
C322 O323 1.273 . S
O323 C322 1.273 . S
O324 Zn315 1.977 . S
O324 C317 1.267 . S
C325 O326 1.160 . S
C325 O332 1.185 . S
O326 C325 1.160 . S
O327 Zn328 1.899 . S
O327 C335 1.284 . S
Zn328 O327 1.899 . S
Zn328 O329 2.032 . S
Zn328 O332 2.086 . S
Zn328 O337 1.977 . S
O329 Zn328 2.032 . S
O329 C333 1.278 . S
C330 O331 1.203 . S
C330 O337 1.267 . S
O331 C330 1.203 . S
O332 C325 1.185 . S
O332 Zn328 2.086 . S
C333 O329 1.278 . S
C333 O334 1.211 . S
O334 C333 1.211 . S
C335 O327 1.284 . S
C335 O336 1.273 . S
O336 C335 1.273 . S
O337 Zn328 1.977 . S
O337 C330 1.267 . S
C338 O339 1.160 . S
C338 O345 1.185 . S
O339 C338 1.160 . S
O340 Zn341 1.899 . S
O340 C348 1.284 . S
Zn341 O340 1.899 . S
Zn341 O342 2.032 . S
Zn341 O345 2.086 . S
Zn341 O350 1.977 . S
O342 Zn341 2.032 . S
O342 C346 1.278 . S
C343 O344 1.203 . S
C343 O350 1.267 . S
O344 C343 1.203 . S
O345 C338 1.185 . S
O345 Zn341 2.086 . S
C346 O342 1.278 . S
C346 O347 1.211 . S
O347 C346 1.211 . S
C348 O340 1.284 . S
C348 O349 1.273 . S
O349 C348 1.273 . S
O350 Zn341 1.977 . S
O350 C343 1.267 . S
C351 O352 1.160 . S
C351 O358 1.185 . S
O352 C351 1.160 . S
O353 Zn354 1.899 . S
O353 C361 1.284 . S
Zn354 O353 1.899 . S
Zn354 O355 2.032 . S
Zn354 O358 2.086 . S
Zn354 O363 1.977 . S
O355 Zn354 2.032 . S
O355 C359 1.278 . S
C356 O357 1.203 . S
C356 O363 1.267 . S
O357 C356 1.203 . S
O358 C351 1.185 . S
O358 Zn354 2.086 . S
C359 O355 1.278 . S
C359 O360 1.211 . S
O360 C359 1.211 . S
C361 O353 1.284 . S
C361 O362 1.273 . S
O362 C361 1.273 . S
O363 Zn354 1.977 . S
O363 C356 1.267 . S
C364 O365 1.160 . S
C364 O371 1.185 . S
O365 C364 1.160 . S
O366 Zn367 1.899 . S
O366 C374 1.284 . S
Zn367 O366 1.899 . S
Zn367 O368 2.032 . S
Zn367 O371 2.086 . S
Zn367 O376 1.977 . S
O368 Zn367 2.032 . S
O368 C372 1.278 . S
C369 O370 1.203 . S
C369 O376 1.267 . S
O370 C369 1.203 . S
O371 C364 1.185 . S
O371 Zn367 2.086 . S
C372 O368 1.278 . S
C372 O373 1.211 . S
O373 C372 1.211 . S
C374 O366 1.284 . S
C374 O375 1.273 . S
O375 C374 1.273 . S
O376 Zn367 1.977 . S
O376 C369 1.267 . S
C377 O378 1.160 . S
C377 O384 1.185 . S
O378 C377 1.160 . S
O379 Zn380 1.899 . S
O379 C387 1.284 . S
Zn380 O379 1.899 . S
Zn380 O381 2.032 . S
Zn380 O384 2.086 . S
Zn380 O389 1.977 . S
O381 Zn380 2.032 . S
O381 C385 1.278 . S
C382 O383 1.203 . S
C382 O389 1.267 . S
O383 C382 1.203 . S
O384 C377 1.185 . S
O384 Zn380 2.086 . S
C385 O381 1.278 . S
C385 O386 1.211 . S
O386 C385 1.211 . S
C387 O379 1.284 . S
C387 O388 1.273 . S
O388 C387 1.273 . S
O389 Zn380 1.977 . S
O389 C382 1.267 . S
C390 O391 1.160 . S
C390 O397 1.185 . S
O391 C390 1.160 . S
O392 Zn393 1.899 . S
O392 C400 1.284 . S
Zn393 O392 1.899 . S
Zn393 O394 2.032 . S
Zn393 O397 2.086 . S
Zn393 O402 1.977 . S
O394 Zn393 2.032 . S
O394 C398 1.278 . S
C395 O396 1.203 . S
C395 O402 1.267 . S
O396 C395 1.203 . S
O397 C390 1.185 . S
O397 Zn393 2.086 . S
C398 O394 1.278 . S
C398 O399 1.211 . S
O399 C398 1.211 . S
C400 O392 1.284 . S
C400 O401 1.273 . S
O401 C400 1.273 . S
O402 Zn393 1.977 . S
O402 C395 1.267 . S
C403 O404 1.160 . S
C403 O410 1.185 . S
O404 C403 1.160 . S
O405 Zn406 1.899 . S
O405 C413 1.284 . S
Zn406 O405 1.899 . S
Zn406 O407 2.032 . S
Zn406 O410 2.086 . S
Zn406 O415 1.977 . S
O407 Zn406 2.032 . S
O407 C411 1.278 . S
C408 O409 1.203 . S
C408 O415 1.267 . S
O409 C408 1.203 . S
O410 C403 1.185 . S
O410 Zn406 2.086 . S
C411 O407 1.278 . S
C411 O412 1.211 . S
O412 C411 1.211 . S
C413 O405 1.284 . S
C413 O414 1.273 . S
O414 C413 1.273 . S
O415 Zn406 1.977 . S
O415 C408 1.267 . S
C416 O417 1.160 . S
C416 O423 1.185 . S
O417 C416 1.160 . S
O418 Zn419 1.899 . S
O418 C426 1.284 . S
Zn419 O418 1.899 . S
Zn419 O420 2.032 . S
Zn419 O423 2.086 . S
Zn419 O428 1.977 . S
O420 Zn419 2.032 . S
O420 C424 1.278 . S
C421 O422 1.203 . S
C421 O428 1.267 . S
O422 C421 1.203 . S
O423 C416 1.185 . S
O423 Zn419 2.086 . S
C424 O420 1.278 . S
C424 O425 1.211 . S
O425 C424 1.211 . S
C426 O418 1.284 . S
C426 O427 1.273 . S
O427 C426 1.273 . S
O428 Zn419 1.977 . S
O428 C421 1.267 . S
C429 O430 1.160 . S
C429 O436 1.185 . S
O430 C429 1.160 . S
O431 Zn432 1.899 . S
O431 C439 1.284 . S
Zn432 O431 1.899 . S
Zn432 O433 2.032 . S
Zn432 O436 2.086 . S
Zn432 O441 1.977 . S
O433 Zn432 2.032 . S
O433 C437 1.278 . S
C434 O435 1.203 . S
C434 O441 1.267 . S
O435 C434 1.203 . S
O436 C429 1.185 . S
O436 Zn432 2.086 . S
C437 O433 1.278 . S
C437 O438 1.211 . S
O438 C437 1.211 . S
C439 O431 1.284 . S
C439 O440 1.273 . S
O440 C439 1.273 . S
O441 Zn432 1.977 . S
O441 C434 1.267 . S
C442 O443 1.160 . S
C442 O449 1.185 . S
O443 C442 1.160 . S
O444 Zn445 1.899 . S
O444 C452 1.284 . S
Zn445 O444 1.899 . S
Zn445 O446 2.032 . S
Zn445 O449 2.086 . S
Zn445 O454 1.977 . S
O446 Zn445 2.032 . S
O446 C450 1.278 . S
C447 O448 1.203 . S
C447 O454 1.267 . S
O448 C447 1.203 . S
O449 C442 1.185 . S
O449 Zn445 2.086 . S
C450 O446 1.278 . S
C450 O451 1.211 . S
O451 C450 1.211 . S
C452 O444 1.284 . S
C452 O453 1.273 . S
O453 C452 1.273 . S
O454 Zn445 1.977 . S
O454 C447 1.267 . S
C455 O456 1.160 . S
C455 O462 1.185 . S
O456 C455 1.160 . S
O457 Zn458 1.899 . S
O457 C465 1.284 . S
Zn458 O457 1.899 . S
Zn458 O459 2.032 . S
Zn458 O462 2.086 . S
Zn458 O467 1.977 . S
O459 Zn458 2.032 . S
O459 C463 1.278 . S
C460 O461 1.203 . S
C460 O467 1.267 . S
O461 C460 1.203 . S
O462 C455 1.185 . S
O462 Zn458 2.086 . S
C463 O459 1.278 . S
C463 O464 1.211 . S
O464 C463 1.211 . S
C465 O457 1.284 . S
C465 O466 1.273 . S
O466 C465 1.273 . S
O467 Zn458 1.977 . S
O467 C460 1.267 . S
C468 C469 1.349 . S
C468 C470 1.327 . S
C468 H493 0.950 . S
C469 C468 1.349 . S
C469 C485 1.349 . S
C470 C468 1.327 . S
C470 C489 1.429 . S
C470 H494 0.950 . S
C471 C488 1.574 . S
C471 C490 1.368 . S
C471 H495 0.949 . S
H472 C476 0.949 . S
C473 C474 1.349 . S
C473 C475 1.327 . S
C473 H496 0.950 . S
C474 C473 1.349 . S
C474 C486 1.349 . S
C475 C473 1.327 . S
C475 C491 1.429 . S
C475 H497 0.950 . S
C476 H472 0.949 . S
C476 C484 1.574 . S
C476 C492 1.368 . S
H477 C485 0.950 . S
H478 C483 0.950 . S
H479 C484 0.949 . S
H480 C486 0.950 . S
H481 C487 0.950 . S
H482 C488 0.949 . S
C483 H478 0.950 . S
C483 C485 1.327 . S
C483 C489 1.429 . S
C484 C476 1.574 . S
C484 H479 0.949 . S
C484 C490 1.368 . S
C485 C469 1.349 . S
C485 H477 0.950 . S
C485 C483 1.327 . S
C486 C474 1.349 . S
C486 H480 0.950 . S
C486 C487 1.327 . S
C487 H481 0.950 . S
C487 C486 1.327 . S
C487 C491 1.429 . S
C488 C471 1.574 . S
C488 H482 0.949 . S
C488 C492 1.368 . S
C489 C470 1.429 . S
C489 C483 1.429 . S
C489 C490 1.523 . S
C490 C471 1.368 . S
C490 C484 1.368 . S
C490 C489 1.523 . S
C491 C475 1.429 . S
C491 C487 1.429 . S
C491 C492 1.523 . S
C492 C476 1.368 . S
C492 C488 1.368 . S
C492 C491 1.523 . S
H493 C468 0.950 . S
H494 C470 0.950 . S
H495 C471 0.949 . S
H496 C473 0.950 . S
H497 C475 0.950 . S
C498 C499 1.349 . S
C498 C500 1.327 . S
C498 H523 0.950 . S
C499 C498 1.349 . S
C499 C515 1.349 . S
C500 C498 1.327 . S
C500 C519 1.429 . S
C500 H524 0.950 . S
C501 C518 1.574 . S
C501 C520 1.368 . S
C501 H525 0.949 . S
H502 C506 0.949 . S
C503 C504 1.349 . S
C503 C505 1.327 . S
C503 H526 0.950 . S
C504 C503 1.349 . S
C504 C516 1.349 . S
C505 C503 1.327 . S
C505 C521 1.429 . S
C505 H527 0.950 . S
C506 H502 0.949 . S
C506 C514 1.574 . S
C506 C522 1.368 . S
H507 C515 0.950 . S
H508 C513 0.950 . S
H509 C514 0.949 . S
H510 C516 0.950 . S
H511 C517 0.950 . S
H512 C518 0.949 . S
C513 H508 0.950 . S
C513 C515 1.327 . S
C513 C519 1.429 . S
C514 C506 1.574 . S
C514 H509 0.949 . S
C514 C520 1.368 . S
C515 C499 1.349 . S
C515 H507 0.950 . S
C515 C513 1.327 . S
C516 C504 1.349 . S
C516 H510 0.950 . S
C516 C517 1.327 . S
C517 H511 0.950 . S
C517 C516 1.327 . S
C517 C521 1.429 . S
C518 C501 1.574 . S
C518 H512 0.949 . S
C518 C522 1.368 . S
C519 C500 1.429 . S
C519 C513 1.429 . S
C519 C520 1.523 . S
C520 C501 1.368 . S
C520 C514 1.368 . S
C520 C519 1.523 . S
C521 C505 1.429 . S
C521 C517 1.429 . S
C521 C522 1.523 . S
C522 C506 1.368 . S
C522 C518 1.368 . S
C522 C521 1.523 . S
H523 C498 0.950 . S
H524 C500 0.950 . S
H525 C501 0.949 . S
H526 C503 0.950 . S
H527 C505 0.950 . S
C528 C529 1.349 . S
C528 C530 1.327 . S
C528 H553 0.950 . S
C529 C528 1.349 . S
C529 C545 1.349 . S
C530 C528 1.327 . S
C530 C549 1.429 . S
C530 H554 0.950 . S
C531 C548 1.574 . S
C531 C550 1.368 . S
C531 H555 0.949 . S
H532 C536 0.949 . S
C533 C534 1.349 . S
C533 C535 1.327 . S
C533 H556 0.950 . S
C534 C533 1.349 . S
C534 C546 1.349 . S
C535 C533 1.327 . S
C535 C551 1.429 . S
C535 H557 0.950 . S
C536 H532 0.949 . S
C536 C544 1.574 . S
C536 C552 1.368 . S
H537 C545 0.950 . S
H538 C543 0.950 . S
H539 C544 0.949 . S
H540 C546 0.950 . S
H541 C547 0.950 . S
H542 C548 0.949 . S
C543 H538 0.950 . S
C543 C545 1.327 . S
C543 C549 1.429 . S
C544 C536 1.574 . S
C544 H539 0.949 . S
C544 C550 1.368 . S
C545 C529 1.349 . S
C545 H537 0.950 . S
C545 C543 1.327 . S
C546 C534 1.349 . S
C546 H540 0.950 . S
C546 C547 1.327 . S
C547 H541 0.950 . S
C547 C546 1.327 . S
C547 C551 1.429 . S
C548 C531 1.574 . S
C548 H542 0.949 . S
C548 C552 1.368 . S
C549 C530 1.429 . S
C549 C543 1.429 . S
C549 C550 1.523 . S
C550 C531 1.368 . S
C550 C544 1.368 . S
C550 C549 1.523 . S
C551 C535 1.429 . S
C551 C547 1.429 . S
C551 C552 1.523 . S
C552 C536 1.368 . S
C552 C548 1.368 . S
C552 C551 1.523 . S
H553 C528 0.950 . S
H554 C530 0.950 . S
H555 C531 0.949 . S
H556 C533 0.950 . S
H557 C535 0.950 . S
C558 C559 1.349 . S
C558 C560 1.327 . S
C558 H583 0.950 . S
C559 C558 1.349 . S
C559 C575 1.349 . S
C560 C558 1.327 . S
C560 C579 1.429 . S
C560 H584 0.950 . S
C561 C578 1.574 . S
C561 C580 1.368 . S
C561 H585 0.949 . S
H562 C566 0.949 . S
C563 C564 1.349 . S
C563 C565 1.327 . S
C563 H586 0.950 . S
C564 C563 1.349 . S
C564 C576 1.349 . S
C565 C563 1.327 . S
C565 C581 1.429 . S
C565 H587 0.950 . S
C566 H562 0.949 . S
C566 C574 1.574 . S
C566 C582 1.368 . S
H567 C575 0.950 . S
H568 C573 0.950 . S
H569 C574 0.949 . S
H570 C576 0.950 . S
H571 C577 0.950 . S
H572 C578 0.949 . S
C573 H568 0.950 . S
C573 C575 1.327 . S
C573 C579 1.429 . S
C574 C566 1.574 . S
C574 H569 0.949 . S
C574 C580 1.368 . S
C575 C559 1.349 . S
C575 H567 0.950 . S
C575 C573 1.327 . S
C576 C564 1.349 . S
C576 H570 0.950 . S
C576 C577 1.327 . S
C577 H571 0.950 . S
C577 C576 1.327 . S
C577 C581 1.429 . S
C578 C561 1.574 . S
C578 H572 0.949 . S
C578 C582 1.368 . S
C579 C560 1.429 . S
C579 C573 1.429 . S
C579 C580 1.523 . S
C580 C561 1.368 . S
C580 C574 1.368 . S
C580 C579 1.523 . S
C581 C565 1.429 . S
C581 C577 1.429 . S
C581 C582 1.523 . S
C582 C566 1.368 . S
C582 C578 1.368 . S
C582 C581 1.523 . S
H583 C558 0.950 . S
H584 C560 0.950 . S
H585 C561 0.949 . S
H586 C563 0.950 . S
H587 C565 0.950 . S
C588 C589 1.349 . S
C588 C590 1.327 . S
C588 H613 0.950 . S
C589 C588 1.349 . S
C589 C605 1.349 . S
C590 C588 1.327 . S
C590 C609 1.429 . S
C590 H614 0.950 . S
C591 C608 1.574 . S
C591 C610 1.368 . S
C591 H615 0.949 . S
H592 C596 0.949 . S
C593 C594 1.349 . S
C593 C595 1.327 . S
C593 H616 0.950 . S
C594 C593 1.349 . S
C594 C606 1.349 . S
C595 C593 1.327 . S
C595 C611 1.429 . S
C595 H617 0.950 . S
C596 H592 0.949 . S
C596 C604 1.574 . S
C596 C612 1.368 . S
H597 C605 0.950 . S
H598 C603 0.950 . S
H599 C604 0.949 . S
H600 C606 0.950 . S
H601 C607 0.950 . S
H602 C608 0.949 . S
C603 H598 0.950 . S
C603 C605 1.327 . S
C603 C609 1.429 . S
C604 C596 1.574 . S
C604 H599 0.949 . S
C604 C610 1.368 . S
C605 C589 1.349 . S
C605 H597 0.950 . S
C605 C603 1.327 . S
C606 C594 1.349 . S
C606 H600 0.950 . S
C606 C607 1.327 . S
C607 H601 0.950 . S
C607 C606 1.327 . S
C607 C611 1.429 . S
C608 C591 1.574 . S
C608 H602 0.949 . S
C608 C612 1.368 . S
C609 C590 1.429 . S
C609 C603 1.429 . S
C609 C610 1.523 . S
C610 C591 1.368 . S
C610 C604 1.368 . S
C610 C609 1.523 . S
C611 C595 1.429 . S
C611 C607 1.429 . S
C611 C612 1.523 . S
C612 C596 1.368 . S
C612 C608 1.368 . S
C612 C611 1.523 . S
H613 C588 0.950 . S
H614 C590 0.950 . S
H615 C591 0.949 . S
H616 C593 0.950 . S
H617 C595 0.950 . S
C618 C619 1.349 . S
C618 C620 1.327 . S
C618 H643 0.950 . S
C619 C618 1.349 . S
C619 C635 1.349 . S
C620 C618 1.327 . S
C620 C639 1.429 . S
C620 H644 0.950 . S
C621 C638 1.574 . S
C621 C640 1.368 . S
C621 H645 0.949 . S
H622 C626 0.949 . S
C623 C624 1.349 . S
C623 C625 1.327 . S
C623 H646 0.950 . S
C624 C623 1.349 . S
C624 C636 1.349 . S
C625 C623 1.327 . S
C625 C641 1.429 . S
C625 H647 0.950 . S
C626 H622 0.949 . S
C626 C634 1.574 . S
C626 C642 1.368 . S
H627 C635 0.950 . S
H628 C633 0.950 . S
H629 C634 0.949 . S
H630 C636 0.950 . S
H631 C637 0.950 . S
H632 C638 0.949 . S
C633 H628 0.950 . S
C633 C635 1.327 . S
C633 C639 1.429 . S
C634 C626 1.574 . S
C634 H629 0.949 . S
C634 C640 1.368 . S
C635 C619 1.349 . S
C635 H627 0.950 . S
C635 C633 1.327 . S
C636 C624 1.349 . S
C636 H630 0.950 . S
C636 C637 1.327 . S
C637 H631 0.950 . S
C637 C636 1.327 . S
C637 C641 1.429 . S
C638 C621 1.574 . S
C638 H632 0.949 . S
C638 C642 1.368 . S
C639 C620 1.429 . S
C639 C633 1.429 . S
C639 C640 1.523 . S
C640 C621 1.368 . S
C640 C634 1.368 . S
C640 C639 1.523 . S
C641 C625 1.429 . S
C641 C637 1.429 . S
C641 C642 1.523 . S
C642 C626 1.368 . S
C642 C638 1.368 . S
C642 C641 1.523 . S
H643 C618 0.950 . S
H644 C620 0.950 . S
H645 C621 0.949 . S
H646 C623 0.950 . S
H647 C625 0.950 . S
C648 C649 1.349 . S
C648 C650 1.327 . S
C648 H673 0.950 . S
C649 C648 1.349 . S
C649 C665 1.349 . S
C650 C648 1.327 . S
C650 C669 1.429 . S
C650 H674 0.950 . S
C651 C668 1.574 . S
C651 C670 1.368 . S
C651 H675 0.949 . S
H652 C656 0.949 . S
C653 C654 1.349 . S
C653 C655 1.327 . S
C653 H676 0.950 . S
C654 C653 1.349 . S
C654 C666 1.349 . S
C655 C653 1.327 . S
C655 C671 1.429 . S
C655 H677 0.950 . S
C656 H652 0.949 . S
C656 C664 1.574 . S
C656 C672 1.368 . S
H657 C665 0.950 . S
H658 C663 0.950 . S
H659 C664 0.949 . S
H660 C666 0.950 . S
H661 C667 0.950 . S
H662 C668 0.949 . S
C663 H658 0.950 . S
C663 C665 1.327 . S
C663 C669 1.429 . S
C664 C656 1.574 . S
C664 H659 0.949 . S
C664 C670 1.368 . S
C665 C649 1.349 . S
C665 H657 0.950 . S
C665 C663 1.327 . S
C666 C654 1.349 . S
C666 H660 0.950 . S
C666 C667 1.327 . S
C667 H661 0.950 . S
C667 C666 1.327 . S
C667 C671 1.429 . S
C668 C651 1.574 . S
C668 H662 0.949 . S
C668 C672 1.368 . S
C669 C650 1.429 . S
C669 C663 1.429 . S
C669 C670 1.523 . S
C670 C651 1.368 . S
C670 C664 1.368 . S
C670 C669 1.523 . S
C671 C655 1.429 . S
C671 C667 1.429 . S
C671 C672 1.523 . S
C672 C656 1.368 . S
C672 C668 1.368 . S
C672 C671 1.523 . S
H673 C648 0.950 . S
H674 C650 0.950 . S
H675 C651 0.949 . S
H676 C653 0.950 . S
H677 C655 0.950 . S
C678 C679 1.349 . S
C678 C680 1.327 . S
C678 H703 0.950 . S
C679 C678 1.349 . S
C679 C695 1.349 . S
C680 C678 1.327 . S
C680 C699 1.429 . S
C680 H704 0.950 . S
C681 C698 1.574 . S
C681 C700 1.368 . S
C681 H705 0.949 . S
H682 C686 0.949 . S
C683 C684 1.349 . S
C683 C685 1.327 . S
C683 H706 0.950 . S
C684 C683 1.349 . S
C684 C696 1.349 . S
C685 C683 1.327 . S
C685 C701 1.429 . S
C685 H707 0.950 . S
C686 H682 0.949 . S
C686 C694 1.574 . S
C686 C702 1.368 . S
H687 C695 0.950 . S
H688 C693 0.950 . S
H689 C694 0.949 . S
H690 C696 0.950 . S
H691 C697 0.950 . S
H692 C698 0.949 . S
C693 H688 0.950 . S
C693 C695 1.327 . S
C693 C699 1.429 . S
C694 C686 1.574 . S
C694 H689 0.949 . S
C694 C700 1.368 . S
C695 C679 1.349 . S
C695 H687 0.950 . S
C695 C693 1.327 . S
C696 C684 1.349 . S
C696 H690 0.950 . S
C696 C697 1.327 . S
C697 H691 0.950 . S
C697 C696 1.327 . S
C697 C701 1.429 . S
C698 C681 1.574 . S
C698 H692 0.949 . S
C698 C702 1.368 . S
C699 C680 1.429 . S
C699 C693 1.429 . S
C699 C700 1.523 . S
C700 C681 1.368 . S
C700 C694 1.368 . S
C700 C699 1.523 . S
C701 C685 1.429 . S
C701 C697 1.429 . S
C701 C702 1.523 . S
C702 C686 1.368 . S
C702 C698 1.368 . S
C702 C701 1.523 . S
H703 C678 0.950 . S
H704 C680 0.950 . S
H705 C681 0.949 . S
H706 C683 0.950 . S
H707 C685 0.950 . S
C708 C709 1.349 . S
C708 C710 1.327 . S
C708 H733 0.950 . S
C709 C708 1.349 . S
C709 C725 1.349 . S
C710 C708 1.327 . S
C710 C729 1.429 . S
C710 H734 0.950 . S
C711 C728 1.574 . S
C711 C730 1.368 . S
C711 H735 0.949 . S
H712 C716 0.949 . S
C713 C714 1.349 . S
C713 C715 1.327 . S
C713 H736 0.950 . S
C714 C713 1.349 . S
C714 C726 1.349 . S
C715 C713 1.327 . S
C715 C731 1.429 . S
C715 H737 0.950 . S
C716 H712 0.949 . S
C716 C724 1.574 . S
C716 C732 1.368 . S
H717 C725 0.950 . S
H718 C723 0.950 . S
H719 C724 0.949 . S
H720 C726 0.950 . S
H721 C727 0.950 . S
H722 C728 0.949 . S
C723 H718 0.950 . S
C723 C725 1.327 . S
C723 C729 1.429 . S
C724 C716 1.574 . S
C724 H719 0.949 . S
C724 C730 1.368 . S
C725 C709 1.349 . S
C725 H717 0.950 . S
C725 C723 1.327 . S
C726 C714 1.349 . S
C726 H720 0.950 . S
C726 C727 1.327 . S
C727 H721 0.950 . S
C727 C726 1.327 . S
C727 C731 1.429 . S
C728 C711 1.574 . S
C728 H722 0.949 . S
C728 C732 1.368 . S
C729 C710 1.429 . S
C729 C723 1.429 . S
C729 C730 1.523 . S
C730 C711 1.368 . S
C730 C724 1.368 . S
C730 C729 1.523 . S
C731 C715 1.429 . S
C731 C727 1.429 . S
C731 C732 1.523 . S
C732 C716 1.368 . S
C732 C728 1.368 . S
C732 C731 1.523 . S
H733 C708 0.950 . S
H734 C710 0.950 . S
H735 C711 0.949 . S
H736 C713 0.950 . S
H737 C715 0.950 . S
C738 C739 1.349 . S
C738 C740 1.327 . S
C738 H763 0.950 . S
C739 C738 1.349 . S
C739 C755 1.349 . S
C740 C738 1.327 . S
C740 C759 1.429 . S
C740 H764 0.950 . S
C741 C758 1.574 . S
C741 C760 1.368 . S
C741 H765 0.949 . S
H742 C746 0.949 . S
C743 C744 1.349 . S
C743 C745 1.327 . S
C743 H766 0.950 . S
C744 C743 1.349 . S
C744 C756 1.349 . S
C745 C743 1.327 . S
C745 C761 1.429 . S
C745 H767 0.950 . S
C746 H742 0.949 . S
C746 C754 1.574 . S
C746 C762 1.368 . S
H747 C755 0.950 . S
H748 C753 0.950 . S
H749 C754 0.949 . S
H750 C756 0.950 . S
H751 C757 0.950 . S
H752 C758 0.949 . S
C753 H748 0.950 . S
C753 C755 1.327 . S
C753 C759 1.429 . S
C754 C746 1.574 . S
C754 H749 0.949 . S
C754 C760 1.368 . S
C755 C739 1.349 . S
C755 H747 0.950 . S
C755 C753 1.327 . S
C756 C744 1.349 . S
C756 H750 0.950 . S
C756 C757 1.327 . S
C757 H751 0.950 . S
C757 C756 1.327 . S
C757 C761 1.429 . S
C758 C741 1.574 . S
C758 H752 0.949 . S
C758 C762 1.368 . S
C759 C740 1.429 . S
C759 C753 1.429 . S
C759 C760 1.523 . S
C760 C741 1.368 . S
C760 C754 1.368 . S
C760 C759 1.523 . S
C761 C745 1.429 . S
C761 C757 1.429 . S
C761 C762 1.523 . S
C762 C746 1.368 . S
C762 C758 1.368 . S
C762 C761 1.523 . S
H763 C738 0.950 . S
H764 C740 0.950 . S
H765 C741 0.949 . S
H766 C743 0.950 . S
H767 C745 0.950 . S
C768 C769 1.349 . S
C768 C770 1.327 . S
C768 H793 0.950 . S
C769 C768 1.349 . S
C769 C785 1.349 . S
C770 C768 1.327 . S
C770 C789 1.429 . S
C770 H794 0.950 . S
C771 C788 1.574 . S
C771 C790 1.368 . S
C771 H795 0.949 . S
H772 C776 0.949 . S
C773 C774 1.349 . S
C773 C775 1.327 . S
C773 H796 0.950 . S
C774 C773 1.349 . S
C774 C786 1.349 . S
C775 C773 1.327 . S
C775 C791 1.429 . S
C775 H797 0.950 . S
C776 H772 0.949 . S
C776 C784 1.574 . S
C776 C792 1.368 . S
H777 C785 0.950 . S
H778 C783 0.950 . S
H779 C784 0.949 . S
H780 C786 0.950 . S
H781 C787 0.950 . S
H782 C788 0.949 . S
C783 H778 0.950 . S
C783 C785 1.327 . S
C783 C789 1.429 . S
C784 C776 1.574 . S
C784 H779 0.949 . S
C784 C790 1.368 . S
C785 C769 1.349 . S
C785 H777 0.950 . S
C785 C783 1.327 . S
C786 C774 1.349 . S
C786 H780 0.950 . S
C786 C787 1.327 . S
C787 H781 0.950 . S
C787 C786 1.327 . S
C787 C791 1.429 . S
C788 C771 1.574 . S
C788 H782 0.949 . S
C788 C792 1.368 . S
C789 C770 1.429 . S
C789 C783 1.429 . S
C789 C790 1.523 . S
C790 C771 1.368 . S
C790 C784 1.368 . S
C790 C789 1.523 . S
C791 C775 1.429 . S
C791 C787 1.429 . S
C791 C792 1.523 . S
C792 C776 1.368 . S
C792 C788 1.368 . S
C792 C791 1.523 . S
H793 C768 0.950 . S
H794 C770 0.950 . S
H795 C771 0.949 . S
H796 C773 0.950 . S
H797 C775 0.950 . S
C798 C799 1.349 . S
C798 C800 1.327 . S
C798 H823 0.950 . S
C799 C798 1.349 . S
C799 C815 1.349 . S
C800 C798 1.327 . S
C800 C819 1.429 . S
C800 H824 0.950 . S
C801 C818 1.574 . S
C801 C820 1.368 . S
C801 H825 0.949 . S
H802 C806 0.949 . S
C803 C804 1.349 . S
C803 C805 1.327 . S
C803 H826 0.950 . S
C804 C803 1.349 . S
C804 C816 1.349 . S
C805 C803 1.327 . S
C805 C821 1.429 . S
C805 H827 0.950 . S
C806 H802 0.949 . S
C806 C814 1.574 . S
C806 C822 1.368 . S
H807 C815 0.950 . S
H808 C813 0.950 . S
H809 C814 0.949 . S
H810 C816 0.950 . S
H811 C817 0.950 . S
H812 C818 0.949 . S
C813 H808 0.950 . S
C813 C815 1.327 . S
C813 C819 1.429 . S
C814 C806 1.574 . S
C814 H809 0.949 . S
C814 C820 1.368 . S
C815 C799 1.349 . S
C815 H807 0.950 . S
C815 C813 1.327 . S
C816 C804 1.349 . S
C816 H810 0.950 . S
C816 C817 1.327 . S
C817 H811 0.950 . S
C817 C816 1.327 . S
C817 C821 1.429 . S
C818 C801 1.574 . S
C818 H812 0.949 . S
C818 C822 1.368 . S
C819 C800 1.429 . S
C819 C813 1.429 . S
C819 C820 1.523 . S
C820 C801 1.368 . S
C820 C814 1.368 . S
C820 C819 1.523 . S
C821 C805 1.429 . S
C821 C817 1.429 . S
C821 C822 1.523 . S
C822 C806 1.368 . S
C822 C818 1.368 . S
C822 C821 1.523 . S
H823 C798 0.950 . S
H824 C800 0.950 . S
H825 C801 0.949 . S
H826 C803 0.950 . S
H827 C805 0.950 . S
C828 C829 1.349 . S
C828 C830 1.327 . S
C828 H853 0.950 . S
C829 C828 1.349 . S
C829 C845 1.349 . S
C830 C828 1.327 . S
C830 C849 1.429 . S
C830 H854 0.950 . S
C831 C848 1.574 . S
C831 C850 1.368 . S
C831 H855 0.949 . S
H832 C836 0.949 . S
C833 C834 1.349 . S
C833 C835 1.327 . S
C833 H856 0.950 . S
C834 C833 1.349 . S
C834 C846 1.349 . S
C835 C833 1.327 . S
C835 C851 1.429 . S
C835 H857 0.950 . S
C836 H832 0.949 . S
C836 C844 1.574 . S
C836 C852 1.368 . S
H837 C845 0.950 . S
H838 C843 0.950 . S
H839 C844 0.949 . S
H840 C846 0.950 . S
H841 C847 0.950 . S
H842 C848 0.949 . S
C843 H838 0.950 . S
C843 C845 1.327 . S
C843 C849 1.429 . S
C844 C836 1.574 . S
C844 H839 0.949 . S
C844 C850 1.368 . S
C845 C829 1.349 . S
C845 H837 0.950 . S
C845 C843 1.327 . S
C846 C834 1.349 . S
C846 H840 0.950 . S
C846 C847 1.327 . S
C847 H841 0.950 . S
C847 C846 1.327 . S
C847 C851 1.429 . S
C848 C831 1.574 . S
C848 H842 0.949 . S
C848 C852 1.368 . S
C849 C830 1.429 . S
C849 C843 1.429 . S
C849 C850 1.523 . S
C850 C831 1.368 . S
C850 C844 1.368 . S
C850 C849 1.523 . S
C851 C835 1.429 . S
C851 C847 1.429 . S
C851 C852 1.523 . S
C852 C836 1.368 . S
C852 C848 1.368 . S
C852 C851 1.523 . S
H853 C828 0.950 . S
H854 C830 0.950 . S
H855 C831 0.949 . S
H856 C833 0.950 . S
H857 C835 0.950 . S
C858 C859 1.349 . S
C858 C860 1.327 . S
C858 H883 0.950 . S
C859 C858 1.349 . S
C859 C875 1.349 . S
C860 C858 1.327 . S
C860 C879 1.429 . S
C860 H884 0.950 . S
C861 C878 1.574 . S
C861 C880 1.368 . S
C861 H885 0.949 . S
H862 C866 0.949 . S
C863 C864 1.349 . S
C863 C865 1.327 . S
C863 H886 0.950 . S
C864 C863 1.349 . S
C864 C876 1.349 . S
C865 C863 1.327 . S
C865 C881 1.429 . S
C865 H887 0.950 . S
C866 H862 0.949 . S
C866 C874 1.574 . S
C866 C882 1.368 . S
H867 C875 0.950 . S
H868 C873 0.950 . S
H869 C874 0.949 . S
H870 C876 0.950 . S
H871 C877 0.950 . S
H872 C878 0.949 . S
C873 H868 0.950 . S
C873 C875 1.327 . S
C873 C879 1.429 . S
C874 C866 1.574 . S
C874 H869 0.949 . S
C874 C880 1.368 . S
C875 C859 1.349 . S
C875 H867 0.950 . S
C875 C873 1.327 . S
C876 C864 1.349 . S
C876 H870 0.950 . S
C876 C877 1.327 . S
C877 H871 0.950 . S
C877 C876 1.327 . S
C877 C881 1.429 . S
C878 C861 1.574 . S
C878 H872 0.949 . S
C878 C882 1.368 . S
C879 C860 1.429 . S
C879 C873 1.429 . S
C879 C880 1.523 . S
C880 C861 1.368 . S
C880 C874 1.368 . S
C880 C879 1.523 . S
C881 C865 1.429 . S
C881 C877 1.429 . S
C881 C882 1.523 . S
C882 C866 1.368 . S
C882 C878 1.368 . S
C882 C881 1.523 . S
H883 C858 0.950 . S
H884 C860 0.950 . S
H885 C861 0.949 . S
H886 C863 0.950 . S
H887 C865 0.950 . S
C888 C889 1.349 . S
C888 C890 1.327 . S
C888 H913 0.950 . S
C889 C888 1.349 . S
C889 C905 1.349 . S
C890 C888 1.327 . S
C890 C909 1.429 . S
C890 H914 0.950 . S
C891 C908 1.574 . S
C891 C910 1.368 . S
C891 H915 0.949 . S
H892 C896 0.949 . S
C893 C894 1.349 . S
C893 C895 1.327 . S
C893 H916 0.950 . S
C894 C893 1.349 . S
C894 C906 1.349 . S
C895 C893 1.327 . S
C895 C911 1.429 . S
C895 H917 0.950 . S
C896 H892 0.949 . S
C896 C904 1.574 . S
C896 C912 1.368 . S
H897 C905 0.950 . S
H898 C903 0.950 . S
H899 C904 0.949 . S
H900 C906 0.950 . S
H901 C907 0.950 . S
H902 C908 0.949 . S
C903 H898 0.950 . S
C903 C905 1.327 . S
C903 C909 1.429 . S
C904 C896 1.574 . S
C904 H899 0.949 . S
C904 C910 1.368 . S
C905 C889 1.349 . S
C905 H897 0.950 . S
C905 C903 1.327 . S
C906 C894 1.349 . S
C906 H900 0.950 . S
C906 C907 1.327 . S
C907 H901 0.950 . S
C907 C906 1.327 . S
C907 C911 1.429 . S
C908 C891 1.574 . S
C908 H902 0.949 . S
C908 C912 1.368 . S
C909 C890 1.429 . S
C909 C903 1.429 . S
C909 C910 1.523 . S
C910 C891 1.368 . S
C910 C904 1.368 . S
C910 C909 1.523 . S
C911 C895 1.429 . S
C911 C907 1.429 . S
C911 C912 1.523 . S
C912 C896 1.368 . S
C912 C908 1.368 . S
C912 C911 1.523 . S
H913 C888 0.950 . S
H914 C890 0.950 . S
H915 C891 0.949 . S
H916 C893 0.950 . S
H917 C895 0.950 . S
C918 C919 1.349 . S
C918 C920 1.327 . S
C918 H943 0.950 . S
C919 C918 1.349 . S
C919 C935 1.349 . S
C920 C918 1.327 . S
C920 C939 1.429 . S
C920 H944 0.950 . S
C921 C938 1.574 . S
C921 C940 1.368 . S
C921 H945 0.949 . S
H922 C926 0.949 . S
C923 C924 1.349 . S
C923 C925 1.327 . S
C923 H946 0.950 . S
C924 C923 1.349 . S
C924 C936 1.349 . S
C925 C923 1.327 . S
C925 C941 1.429 . S
C925 H947 0.950 . S
C926 H922 0.949 . S
C926 C934 1.574 . S
C926 C942 1.368 . S
H927 C935 0.950 . S
H928 C933 0.950 . S
H929 C934 0.949 . S
H930 C936 0.950 . S
H931 C937 0.950 . S
H932 C938 0.949 . S
C933 H928 0.950 . S
C933 C935 1.327 . S
C933 C939 1.429 . S
C934 C926 1.574 . S
C934 H929 0.949 . S
C934 C940 1.368 . S
C935 C919 1.349 . S
C935 H927 0.950 . S
C935 C933 1.327 . S
C936 C924 1.349 . S
C936 H930 0.950 . S
C936 C937 1.327 . S
C937 H931 0.950 . S
C937 C936 1.327 . S
C937 C941 1.429 . S
C938 C921 1.574 . S
C938 H932 0.949 . S
C938 C942 1.368 . S
C939 C920 1.429 . S
C939 C933 1.429 . S
C939 C940 1.523 . S
C940 C921 1.368 . S
C940 C934 1.368 . S
C940 C939 1.523 . S
C941 C925 1.429 . S
C941 C937 1.429 . S
C941 C942 1.523 . S
C942 C926 1.368 . S
C942 C938 1.368 . S
C942 C941 1.523 . S
H943 C918 0.950 . S
H944 C920 0.950 . S
H945 C921 0.949 . S
H946 C923 0.950 . S
H947 C925 0.950 . S
C948 C949 1.349 . S
C948 C950 1.327 . S
C948 H973 0.950 . S
C949 C948 1.349 . S
C949 C965 1.349 . S
C950 C948 1.327 . S
C950 C969 1.429 . S
C950 H974 0.950 . S
C951 C968 1.574 . S
C951 C970 1.368 . S
C951 H975 0.949 . S
H952 C956 0.949 . S
C953 C954 1.349 . S
C953 C955 1.327 . S
C953 H976 0.950 . S
C954 C953 1.349 . S
C954 C966 1.349 . S
C955 C953 1.327 . S
C955 C971 1.429 . S
C955 H977 0.950 . S
C956 H952 0.949 . S
C956 C964 1.574 . S
C956 C972 1.368 . S
H957 C965 0.950 . S
H958 C963 0.950 . S
H959 C964 0.949 . S
H960 C966 0.950 . S
H961 C967 0.950 . S
H962 C968 0.949 . S
C963 H958 0.950 . S
C963 C965 1.327 . S
C963 C969 1.429 . S
C964 C956 1.574 . S
C964 H959 0.949 . S
C964 C970 1.368 . S
C965 C949 1.349 . S
C965 H957 0.950 . S
C965 C963 1.327 . S
C966 C954 1.349 . S
C966 H960 0.950 . S
C966 C967 1.327 . S
C967 H961 0.950 . S
C967 C966 1.327 . S
C967 C971 1.429 . S
C968 C951 1.574 . S
C968 H962 0.949 . S
C968 C972 1.368 . S
C969 C950 1.429 . S
C969 C963 1.429 . S
C969 C970 1.523 . S
C970 C951 1.368 . S
C970 C964 1.368 . S
C970 C969 1.523 . S
C971 C955 1.429 . S
C971 C967 1.429 . S
C971 C972 1.523 . S
C972 C956 1.368 . S
C972 C968 1.368 . S
C972 C971 1.523 . S
H973 C948 0.950 . S
H974 C950 0.950 . S
H975 C951 0.949 . S
H976 C953 0.950 . S
H977 C955 0.950 . S
C978 C979 1.349 . S
C978 C980 1.327 . S
C978 H1003 0.950 . S
C979 C978 1.349 . S
C979 C995 1.349 . S
C980 C978 1.327 . S
C980 C999 1.429 . S
C980 H1004 0.950 . S
C981 C998 1.574 . S
C981 C1000 1.368 . S
C981 H1005 0.949 . S
H982 C986 0.949 . S
C983 C984 1.349 . S
C983 C985 1.327 . S
C983 H1006 0.950 . S
C984 C983 1.349 . S
C984 C996 1.349 . S
C985 C983 1.327 . S
C985 C1001 1.429 . S
C985 H1007 0.950 . S
C986 H982 0.949 . S
C986 C994 1.574 . S
C986 C1002 1.368 . S
H987 C995 0.950 . S
H988 C993 0.950 . S
H989 C994 0.949 . S
H990 C996 0.950 . S
H991 C997 0.950 . S
H992 C998 0.949 . S
C993 H988 0.950 . S
C993 C995 1.327 . S
C993 C999 1.429 . S
C994 C986 1.574 . S
C994 H989 0.949 . S
C994 C1000 1.368 . S
C995 C979 1.349 . S
C995 H987 0.950 . S
C995 C993 1.327 . S
C996 C984 1.349 . S
C996 H990 0.950 . S
C996 C997 1.327 . S
C997 H991 0.950 . S
C997 C996 1.327 . S
C997 C1001 1.429 . S
C998 C981 1.574 . S
C998 H992 0.949 . S
C998 C1002 1.368 . S
C999 C980 1.429 . S
C999 C993 1.429 . S
C999 C1000 1.523 . S
C1000 C981 1.368 . S
C1000 C994 1.368 . S
C1000 C999 1.523 . S
C1001 C985 1.429 . S
C1001 C997 1.429 . S
C1001 C1002 1.523 . S
C1002 C986 1.368 . S
C1002 C998 1.368 . S
C1002 C1001 1.523 . S
H1003 C978 0.950 . S
H1004 C980 0.950 . S
H1005 C981 0.949 . S
H1006 C983 0.950 . S
H1007 C985 0.950 . S
C1008 C1009 1.349 . S
C1008 C1010 1.327 . S
C1008 H1033 0.950 . S
C1009 C1008 1.349 . S
C1009 C1025 1.349 . S
C1010 C1008 1.327 . S
C1010 C1029 1.429 . S
C1010 H1034 0.950 . S
C1011 C1028 1.574 1_455 S
C1011 C1030 1.368 1_556 S
C1011 H1035 0.949 . S
H1012 C1016 0.949 . S
C1013 C1014 1.349 . S
C1013 C1015 1.327 . S
C1013 H1036 0.950 . S
C1014 C1013 1.349 . S
C1014 C1026 1.349 . S
C1015 C1013 1.327 . S
C1015 C1031 1.429 . S
C1015 H1037 0.950 . S
C1016 H1012 0.949 . S
C1016 C1024 1.574 1_655 S
C1016 C1032 1.368 1_554 S
H1017 C1025 0.950 1_556 S
H1018 C1023 0.947 . S
H1019 C1024 0.949 . S
H1020 C1026 0.950 1_554 S
H1021 C1027 0.949 1_554 S
H1022 C1028 0.949 . S
C1023 H1018 0.947 . S
C1023 C1025 1.328 1_556 S
C1023 C1029 1.430 1_556 S
C1024 C1016 1.574 1_455 S
C1024 H1019 0.949 . S
C1024 C1030 1.368 . S
C1025 C1009 1.349 . S
C1025 H1017 0.950 1_554 S
C1025 C1023 1.328 1_554 S
C1026 C1014 1.349 . S
C1026 H1020 0.950 1_556 S
C1026 C1027 1.327 . S
C1027 H1021 0.949 1_556 S
C1027 C1026 1.327 . S
C1027 C1031 1.429 . S
C1028 C1011 1.574 1_655 S
C1028 H1022 0.949 . S
C1028 C1032 1.368 . S
C1029 C1010 1.429 . S
C1029 C1023 1.430 1_554 S
C1029 C1030 1.523 . S
C1030 C1011 1.368 1_554 S
C1030 C1024 1.368 . S
C1030 C1029 1.523 . S
C1031 C1015 1.429 . S
C1031 C1027 1.429 . S
C1031 C1032 1.523 . S
C1032 C1016 1.368 1_556 S
C1032 C1028 1.368 . S
C1032 C1031 1.523 . S
H1033 C1008 0.950 . S
H1034 C1010 0.950 . S
H1035 C1011 0.949 . S
H1036 C1013 0.950 . S
H1037 C1015 0.950 . S
C1038 C1039 1.349 . S
C1038 C1040 1.327 . S
C1038 H1063 0.950 . S
C1039 C1038 1.349 . S
C1039 C1055 1.349 . S
C1040 C1038 1.327 . S
C1040 C1059 1.429 . S
C1040 H1064 0.950 1_556 S
C1041 C1058 1.574 . S
C1041 C1060 1.368 . S
C1041 H1065 0.949 . S
H1042 C1046 0.949 . S
C1043 C1044 1.349 . S
C1043 C1045 1.327 . S
C1043 H1066 0.950 . S
C1044 C1043 1.349 . S
C1044 C1056 1.349 . S
C1045 C1043 1.327 . S
C1045 C1061 1.429 . S
C1045 H1067 0.950 1_554 S
C1046 H1042 0.949 . S
C1046 C1054 1.574 . S
C1046 C1062 1.368 . S
H1047 C1055 0.950 . S
H1048 C1053 0.950 . S
H1049 C1054 0.949 . S
H1050 C1056 0.950 . S
H1051 C1057 0.950 . S
H1052 C1058 0.949 . S
C1053 H1048 0.950 . S
C1053 C1055 1.327 . S
C1053 C1059 1.429 . S
C1054 C1046 1.574 . S
C1054 H1049 0.949 . S
C1054 C1060 1.368 1_554 S
C1055 C1039 1.349 . S
C1055 H1047 0.950 . S
C1055 C1053 1.327 . S
C1056 C1044 1.349 . S
C1056 H1050 0.950 . S
C1056 C1057 1.327 . S
C1057 H1051 0.950 . S
C1057 C1056 1.327 . S
C1057 C1061 1.429 . S
C1058 C1041 1.574 . S
C1058 H1052 0.949 . S
C1058 C1062 1.368 1_556 S
C1059 C1040 1.429 . S
C1059 C1053 1.429 . S
C1059 C1060 1.523 . S
C1060 C1041 1.368 . S
C1060 C1054 1.368 1_556 S
C1060 C1059 1.523 . S
C1061 C1045 1.429 . S
C1061 C1057 1.429 . S
C1061 C1062 1.523 . S
C1062 C1046 1.368 . S
C1062 C1058 1.368 1_554 S
C1062 C1061 1.523 . S
H1063 C1038 0.950 . S
H1064 C1040 0.950 1_554 S
H1065 C1041 0.949 . S
H1066 C1043 0.950 . S
H1067 C1045 0.950 1_556 S
C1068 C1069 1.349 . S
C1068 C1070 1.327 . S
C1068 H1093 0.943 1_554 S
C1069 C1068 1.349 . S
C1069 C1085 1.349 . S
C1070 C1068 1.327 . S
C1070 C1089 1.429 . S
C1070 H1094 0.950 1_554 S
C1071 C1088 1.574 1_565 S
C1071 C1090 1.368 . S
C1071 H1095 0.949 . S
H1072 C1076 0.949 . S
C1073 C1074 1.349 . S
C1073 C1075 1.327 . S
C1073 H1096 0.941 1_556 S
C1074 C1073 1.349 . S
C1074 C1086 1.349 . S
C1075 C1073 1.327 . S
C1075 C1091 1.429 . S
C1075 H1097 0.950 1_556 S
C1076 H1072 0.949 . S
C1076 C1084 1.574 1_545 S
C1076 C1092 1.368 . S
H1077 C1085 0.950 . S
H1078 C1083 0.950 . S
H1079 C1084 0.949 . S
H1080 C1086 0.950 . S
H1081 C1087 0.950 . S
H1082 C1088 0.949 . S
C1083 H1078 0.950 . S
C1083 C1085 1.327 . S
C1083 C1089 1.429 . S
C1084 C1076 1.574 1_565 S
C1084 H1079 0.949 . S
C1084 C1090 1.368 1_556 S
C1085 C1069 1.349 . S
C1085 H1077 0.950 . S
C1085 C1083 1.327 . S
C1086 C1074 1.349 . S
C1086 H1080 0.950 . S
C1086 C1087 1.327 . S
C1087 H1081 0.950 . S
C1087 C1086 1.327 . S
C1087 C1091 1.429 . S
C1088 C1071 1.574 1_545 S
C1088 H1082 0.949 . S
C1088 C1092 1.368 1_554 S
C1089 C1070 1.429 . S
C1089 C1083 1.429 . S
C1089 C1090 1.523 . S
C1090 C1071 1.368 . S
C1090 C1084 1.368 1_554 S
C1090 C1089 1.523 . S
C1091 C1075 1.429 . S
C1091 C1087 1.429 . S
C1091 C1092 1.523 . S
C1092 C1076 1.368 . S
C1092 C1088 1.368 1_556 S
C1092 C1091 1.523 . S
H1093 C1068 0.943 1_556 S
H1094 C1070 0.950 1_556 S
H1095 C1071 0.949 . S
H1096 C1073 0.941 1_554 S
H1097 C1075 0.950 1_554 S
C1098 C1099 1.349 . S
C1098 C1100 1.327 . S
C1098 H1123 0.950 . S
C1099 C1098 1.349 . S
C1099 C1115 1.349 . S
C1100 C1098 1.327 . S
C1100 C1119 1.429 . S
C1100 H1124 0.950 . S
C1101 C1118 1.574 1_655 S
C1101 C1120 1.368 1_554 S
C1101 H1125 0.949 . S
H1102 C1106 0.949 . S
C1103 C1104 1.349 . S
C1103 C1105 1.327 . S
C1103 H1126 0.950 . S
C1104 C1103 1.349 . S
C1104 C1116 1.349 . S
C1105 C1103 1.327 . S
C1105 C1121 1.429 . S
C1105 H1127 0.950 . S
C1106 H1102 0.949 . S
C1106 C1114 1.574 1_455 S
C1106 C1122 1.368 1_556 S
H1107 C1115 0.950 . S
H1108 C1113 0.950 . S
H1109 C1114 0.949 . S
H1110 C1116 0.950 . S
H1111 C1117 0.950 . S
H1112 C1118 0.949 . S
C1113 H1108 0.950 . S
C1113 C1115 1.327 . S
C1113 C1119 1.429 . S
C1114 C1106 1.574 1_655 S
C1114 H1109 0.949 . S
C1114 C1120 1.368 . S
C1115 C1099 1.349 . S
C1115 H1107 0.950 . S
C1115 C1113 1.327 . S
C1116 C1104 1.349 . S
C1116 H1110 0.950 . S
C1116 C1117 1.327 . S
C1117 H1111 0.950 . S
C1117 C1116 1.327 . S
C1117 C1121 1.429 . S
C1118 C1101 1.574 1_455 S
C1118 H1112 0.949 . S
C1118 C1122 1.368 . S
C1119 C1100 1.429 . S
C1119 C1113 1.429 . S
C1119 C1120 1.523 . S
C1120 C1101 1.368 1_556 S
C1120 C1114 1.368 . S
C1120 C1119 1.523 . S
C1121 C1105 1.429 . S
C1121 C1117 1.429 . S
C1121 C1122 1.523 . S
C1122 C1106 1.368 1_554 S
C1122 C1118 1.368 . S
C1122 C1121 1.523 . S
H1123 C1098 0.950 . S
H1124 C1100 0.950 . S
H1125 C1101 0.949 . S
H1126 C1103 0.950 . S
H1127 C1105 0.950 . S
C1128 C1129 1.349 . S
C1128 C1130 1.327 . S
C1128 H1153 0.950 . S
C1129 C1128 1.349 . S
C1129 C1145 1.349 . S
C1130 C1128 1.327 . S
C1130 C1149 1.429 . S
C1130 H1154 0.950 1_556 S
C1131 C1148 1.574 . S
C1131 C1150 1.368 . S
C1131 H1155 0.949 . S
H1132 C1136 0.949 . S
C1133 C1134 1.349 . S
C1133 C1135 1.327 . S
C1133 H1156 0.950 . S
C1134 C1133 1.349 . S
C1134 C1146 1.349 . S
C1135 C1133 1.327 . S
C1135 C1151 1.429 . S
C1135 H1157 0.950 1_554 S
C1136 H1132 0.949 . S
C1136 C1144 1.574 . S
C1136 C1152 1.368 . S
H1137 C1145 0.950 . S
H1138 C1143 0.950 . S
H1139 C1144 0.949 . S
H1140 C1146 0.950 . S
H1141 C1147 0.950 . S
H1142 C1148 0.949 . S
C1143 H1138 0.950 . S
C1143 C1145 1.327 . S
C1143 C1149 1.429 . S
C1144 C1136 1.574 . S
C1144 H1139 0.949 . S
C1144 C1150 1.368 1_554 S
C1145 C1129 1.349 . S
C1145 H1137 0.950 . S
C1145 C1143 1.327 . S
C1146 C1134 1.349 . S
C1146 H1140 0.950 . S
C1146 C1147 1.327 . S
C1147 H1141 0.950 . S
C1147 C1146 1.327 . S
C1147 C1151 1.429 . S
C1148 C1131 1.574 . S
C1148 H1142 0.949 . S
C1148 C1152 1.368 1_556 S
C1149 C1130 1.429 . S
C1149 C1143 1.429 . S
C1149 C1150 1.523 . S
C1150 C1131 1.368 . S
C1150 C1144 1.368 1_556 S
C1150 C1149 1.523 . S
C1151 C1135 1.429 . S
C1151 C1147 1.429 . S
C1151 C1152 1.523 . S
C1152 C1136 1.368 . S
C1152 C1148 1.368 1_554 S
C1152 C1151 1.523 . S
H1153 C1128 0.950 . S
H1154 C1130 0.950 1_554 S
H1155 C1131 0.949 . S
H1156 C1133 0.950 . S
H1157 C1135 0.950 1_556 S
C1158 C1159 1.349 . S
C1158 C1160 1.327 . S
C1158 H1183 0.950 . S
C1159 C1158 1.349 . S
C1159 C1175 1.349 . S
C1160 C1158 1.327 . S
C1160 C1179 1.429 . S
C1160 H1184 0.950 . S
C1161 C1178 1.574 1_545 S
C1161 C1180 1.368 1_554 S
C1161 H1185 0.949 . S
H1162 C1166 0.949 . S
C1163 C1164 1.349 . S
C1163 C1165 1.327 . S
C1163 H1186 0.950 . S
C1164 C1163 1.349 . S
C1164 C1176 1.349 . S
C1165 C1163 1.327 . S
C1165 C1181 1.429 . S
C1165 H1187 0.950 . S
C1166 H1162 0.949 . S
C1166 C1174 1.574 1_565 S
C1166 C1182 1.368 1_556 S
H1167 C1175 0.950 1_554 S
H1168 C1173 0.933 1_554 S
H1169 C1174 0.949 . S
H1170 C1176 0.950 1_556 S
H1171 C1177 0.937 1_556 S
H1172 C1178 0.949 . S
C1173 H1168 0.933 1_556 S
C1173 C1175 1.333 . S
C1173 C1179 1.439 . S
C1174 C1166 1.574 1_545 S
C1174 H1169 0.949 . S
C1174 C1180 1.368 . S
C1175 C1159 1.349 . S
C1175 H1167 0.950 1_556 S
C1175 C1173 1.333 . S
C1176 C1164 1.349 . S
C1176 H1170 0.950 1_554 S
C1176 C1177 1.332 . S
C1177 H1171 0.937 1_554 S
C1177 C1176 1.332 . S
C1177 C1181 1.437 . S
C1178 C1161 1.574 1_565 S
C1178 H1172 0.949 . S
C1178 C1182 1.368 . S
C1179 C1160 1.429 . S
C1179 C1173 1.439 . S
C1179 C1180 1.523 . S
C1180 C1161 1.368 1_556 S
C1180 C1174 1.368 . S
C1180 C1179 1.523 . S
C1181 C1165 1.429 . S
C1181 C1177 1.437 . S
C1181 C1182 1.523 . S
C1182 C1166 1.368 1_554 S
C1182 C1178 1.368 . S
C1182 C1181 1.523 . S
H1183 C1158 0.950 . S
H1184 C1160 0.950 . S
H1185 C1161 0.949 . S
H1186 C1163 0.950 . S
H1187 C1165 0.950 . S
C1188 C1189 1.349 . S
C1188 C1190 1.327 . S
C1188 H1213 0.950 . S
C1189 C1188 1.349 . S
C1189 C1205 1.349 . S
C1190 C1188 1.327 . S
C1190 C1209 1.429 . S
C1190 H1214 0.950 . S
C1191 C1208 1.574 . S
C1191 C1210 1.368 . S
C1191 H1215 0.949 . S
H1192 C1196 0.949 . S
C1193 C1194 1.349 . S
C1193 C1195 1.327 . S
C1193 H1216 0.950 . S
C1194 C1193 1.349 . S
C1194 C1206 1.349 . S
C1195 C1193 1.327 . S
C1195 C1211 1.429 . S
C1195 H1217 0.950 . S
C1196 H1192 0.949 . S
C1196 C1204 1.574 . S
C1196 C1212 1.368 . S
H1197 C1205 0.950 . S
H1198 C1203 0.950 . S
H1199 C1204 0.949 . S
H1200 C1206 0.950 . S
H1201 C1207 0.950 . S
H1202 C1208 0.949 . S
C1203 H1198 0.950 . S
C1203 C1205 1.327 . S
C1203 C1209 1.429 . S
C1204 C1196 1.574 . S
C1204 H1199 0.949 . S
C1204 C1210 1.368 . S
C1205 C1189 1.349 . S
C1205 H1197 0.950 . S
C1205 C1203 1.327 . S
C1206 C1194 1.349 . S
C1206 H1200 0.950 . S
C1206 C1207 1.327 . S
C1207 H1201 0.950 . S
C1207 C1206 1.327 . S
C1207 C1211 1.429 . S
C1208 C1191 1.574 . S
C1208 H1202 0.949 . S
C1208 C1212 1.368 . S
C1209 C1190 1.429 . S
C1209 C1203 1.429 . S
C1209 C1210 1.523 . S
C1210 C1191 1.368 . S
C1210 C1204 1.368 . S
C1210 C1209 1.523 . S
C1211 C1195 1.429 . S
C1211 C1207 1.429 . S
C1211 C1212 1.523 . S
C1212 C1196 1.368 . S
C1212 C1208 1.368 . S
C1212 C1211 1.523 . S
H1213 C1188 0.950 . S
H1214 C1190 0.950 . S
H1215 C1191 0.949 . S
H1216 C1193 0.950 . S
H1217 C1195 0.950 . S
C1218 C1219 1.349 . S
C1218 C1220 1.327 . S
C1218 H1243 0.950 . S
C1219 C1218 1.349 . S
C1219 C1235 1.349 . S
C1220 C1218 1.327 . S
C1220 C1239 1.429 . S
C1220 H1244 0.950 . S
C1221 C1238 1.574 . S
C1221 C1240 1.368 . S
C1221 H1245 0.949 . S
H1222 C1226 0.949 . S
C1223 C1224 1.349 . S
C1223 C1225 1.327 . S
C1223 H1246 0.950 . S
C1224 C1223 1.349 . S
C1224 C1236 1.349 . S
C1225 C1223 1.327 . S
C1225 C1241 1.429 . S
C1225 H1247 0.950 . S
C1226 H1222 0.949 . S
C1226 C1234 1.574 . S
C1226 C1242 1.368 . S
H1227 C1235 0.950 . S
H1228 C1233 0.950 . S
H1229 C1234 0.949 . S
H1230 C1236 0.950 . S
H1231 C1237 0.950 . S
H1232 C1238 0.949 . S
C1233 H1228 0.950 . S
C1233 C1235 1.327 . S
C1233 C1239 1.429 . S
C1234 C1226 1.574 . S
C1234 H1229 0.949 . S
C1234 C1240 1.368 . S
C1235 C1219 1.349 . S
C1235 H1227 0.950 . S
C1235 C1233 1.327 . S
C1236 C1224 1.349 . S
C1236 H1230 0.950 . S
C1236 C1237 1.327 . S
C1237 H1231 0.950 . S
C1237 C1236 1.327 . S
C1237 C1241 1.429 . S
C1238 C1221 1.574 . S
C1238 H1232 0.949 . S
C1238 C1242 1.368 . S
C1239 C1220 1.429 . S
C1239 C1233 1.429 . S
C1239 C1240 1.523 . S
C1240 C1221 1.368 . S
C1240 C1234 1.368 . S
C1240 C1239 1.523 . S
C1241 C1225 1.429 . S
C1241 C1237 1.429 . S
C1241 C1242 1.523 . S
C1242 C1226 1.368 . S
C1242 C1238 1.368 . S
C1242 C1241 1.523 . S
H1243 C1218 0.950 . S
H1244 C1220 0.950 . S
H1245 C1221 0.949 . S
H1246 C1223 0.950 . S
H1247 C1225 0.950 . S
C1248 C1249 1.349 . S
C1248 C1250 1.327 . S
C1248 H1273 0.950 . S
C1249 C1248 1.349 . S
C1249 C1265 1.349 . S
C1250 C1248 1.327 . S
C1250 C1269 1.429 . S
C1250 H1274 0.950 . S
C1251 C1268 1.574 . S
C1251 C1270 1.368 . S
C1251 H1275 0.949 . S
H1252 C1256 0.949 . S
C1253 C1254 1.349 . S
C1253 C1255 1.327 . S
C1253 H1276 0.950 . S
C1254 C1253 1.349 . S
C1254 C1266 1.349 . S
C1255 C1253 1.327 . S
C1255 C1271 1.429 . S
C1255 H1277 0.950 . S
C1256 H1252 0.949 . S
C1256 C1264 1.574 . S
C1256 C1272 1.368 . S
H1257 C1265 0.950 . S
H1258 C1263 0.950 . S
H1259 C1264 0.949 . S
H1260 C1266 0.950 . S
H1261 C1267 0.950 . S
H1262 C1268 0.949 . S
C1263 H1258 0.950 . S
C1263 C1265 1.327 . S
C1263 C1269 1.429 . S
C1264 C1256 1.574 . S
C1264 H1259 0.949 . S
C1264 C1270 1.368 . S
C1265 C1249 1.349 . S
C1265 H1257 0.950 . S
C1265 C1263 1.327 . S
C1266 C1254 1.349 . S
C1266 H1260 0.950 . S
C1266 C1267 1.327 . S
C1267 H1261 0.950 . S
C1267 C1266 1.327 . S
C1267 C1271 1.429 . S
C1268 C1251 1.574 . S
C1268 H1262 0.949 . S
C1268 C1272 1.368 . S
C1269 C1250 1.429 . S
C1269 C1263 1.429 . S
C1269 C1270 1.523 . S
C1270 C1251 1.368 . S
C1270 C1264 1.368 . S
C1270 C1269 1.523 . S
C1271 C1255 1.429 . S
C1271 C1267 1.429 . S
C1271 C1272 1.523 . S
C1272 C1256 1.368 . S
C1272 C1268 1.368 . S
C1272 C1271 1.523 . S
H1273 C1248 0.950 . S
H1274 C1250 0.950 . S
H1275 C1251 0.949 . S
H1276 C1253 0.950 . S
H1277 C1255 0.950 . S
C1278 C1279 1.349 . S
C1278 C1280 1.327 . S
C1278 H1303 0.950 . S
C1279 C1278 1.349 . S
C1279 C1295 1.349 . S
C1280 C1278 1.327 . S
C1280 C1299 1.429 . S
C1280 H1304 0.950 . S
C1281 C1298 1.574 . S
C1281 C1300 1.368 . S
C1281 H1305 0.949 . S
H1282 C1286 0.949 . S
C1283 C1284 1.349 . S
C1283 C1285 1.327 . S
C1283 H1306 0.950 . S
C1284 C1283 1.349 . S
C1284 C1296 1.349 . S
C1285 C1283 1.327 . S
C1285 C1301 1.429 . S
C1285 H1307 0.950 . S
C1286 H1282 0.949 . S
C1286 C1294 1.574 . S
C1286 C1302 1.368 . S
H1287 C1295 0.950 . S
H1288 C1293 0.950 . S
H1289 C1294 0.949 . S
H1290 C1296 0.950 . S
H1291 C1297 0.950 . S
H1292 C1298 0.949 . S
C1293 H1288 0.950 . S
C1293 C1295 1.327 . S
C1293 C1299 1.429 . S
C1294 C1286 1.574 . S
C1294 H1289 0.949 . S
C1294 C1300 1.368 . S
C1295 C1279 1.349 . S
C1295 H1287 0.950 . S
C1295 C1293 1.327 . S
C1296 C1284 1.349 . S
C1296 H1290 0.950 . S
C1296 C1297 1.327 . S
C1297 H1291 0.950 . S
C1297 C1296 1.327 . S
C1297 C1301 1.429 . S
C1298 C1281 1.574 . S
C1298 H1292 0.949 . S
C1298 C1302 1.368 . S
C1299 C1280 1.429 . S
C1299 C1293 1.429 . S
C1299 C1300 1.523 . S
C1300 C1281 1.368 . S
C1300 C1294 1.368 . S
C1300 C1299 1.523 . S
C1301 C1285 1.429 . S
C1301 C1297 1.429 . S
C1301 C1302 1.523 . S
C1302 C1286 1.368 . S
C1302 C1298 1.368 . S
C1302 C1301 1.523 . S
H1303 C1278 0.950 . S
H1304 C1280 0.950 . S
H1305 C1281 0.949 . S
H1306 C1283 0.950 . S
H1307 C1285 0.950 . S
C1308 C1309 1.349 . S
C1308 C1310 1.327 . S
C1308 H1333 0.950 . S
C1309 C1308 1.349 . S
C1309 C1325 1.349 . S
C1310 C1308 1.327 . S
C1310 C1329 1.429 . S
C1310 H1334 0.950 . S
C1311 C1328 1.574 . S
C1311 C1330 1.368 . S
C1311 H1335 0.949 . S
H1312 C1316 0.949 . S
C1313 C1314 1.349 . S
C1313 C1315 1.327 . S
C1313 H1336 0.950 . S
C1314 C1313 1.349 . S
C1314 C1326 1.349 . S
C1315 C1313 1.327 . S
C1315 C1331 1.429 . S
C1315 H1337 0.950 . S
C1316 H1312 0.949 . S
C1316 C1324 1.574 . S
C1316 C1332 1.368 . S
H1317 C1325 0.950 . S
H1318 C1323 0.950 . S
H1319 C1324 0.949 . S
H1320 C1326 0.950 . S
H1321 C1327 0.950 . S
H1322 C1328 0.949 . S
C1323 H1318 0.950 . S
C1323 C1325 1.327 . S
C1323 C1329 1.429 . S
C1324 C1316 1.574 . S
C1324 H1319 0.949 . S
C1324 C1330 1.368 . S
C1325 C1309 1.349 . S
C1325 H1317 0.950 . S
C1325 C1323 1.327 . S
C1326 C1314 1.349 . S
C1326 H1320 0.950 . S
C1326 C1327 1.327 . S
C1327 H1321 0.950 . S
C1327 C1326 1.327 . S
C1327 C1331 1.429 . S
C1328 C1311 1.574 . S
C1328 H1322 0.949 . S
C1328 C1332 1.368 . S
C1329 C1310 1.429 . S
C1329 C1323 1.429 . S
C1329 C1330 1.523 . S
C1330 C1311 1.368 . S
C1330 C1324 1.368 . S
C1330 C1329 1.523 . S
C1331 C1315 1.429 . S
C1331 C1327 1.429 . S
C1331 C1332 1.523 . S
C1332 C1316 1.368 . S
C1332 C1328 1.368 . S
C1332 C1331 1.523 . S
H1333 C1308 0.950 . S
H1334 C1310 0.950 . S
H1335 C1311 0.949 . S
H1336 C1313 0.950 . S
H1337 C1315 0.950 . S
C1338 C1339 1.349 . S
C1338 C1340 1.327 . S
C1338 H1363 0.950 . S
C1339 C1338 1.349 . S
C1339 C1355 1.349 . S
C1340 C1338 1.327 . S
C1340 C1359 1.429 . S
C1340 H1364 0.950 . S
C1341 C1358 1.574 . S
C1341 C1360 1.368 . S
C1341 H1365 0.949 . S
H1342 C1346 0.949 . S
C1343 C1344 1.349 . S
C1343 C1345 1.327 . S
C1343 H1366 0.950 . S
C1344 C1343 1.349 . S
C1344 C1356 1.349 . S
C1345 C1343 1.327 . S
C1345 C1361 1.429 . S
C1345 H1367 0.950 . S
C1346 H1342 0.949 . S
C1346 C1354 1.574 . S
C1346 C1362 1.368 . S
H1347 C1355 0.950 . S
H1348 C1353 0.950 . S
H1349 C1354 0.949 . S
H1350 C1356 0.950 . S
H1351 C1357 0.950 . S
H1352 C1358 0.949 . S
C1353 H1348 0.950 . S
C1353 C1355 1.327 . S
C1353 C1359 1.429 . S
C1354 C1346 1.574 . S
C1354 H1349 0.949 . S
C1354 C1360 1.368 . S
C1355 C1339 1.349 . S
C1355 H1347 0.950 . S
C1355 C1353 1.327 . S
C1356 C1344 1.349 . S
C1356 H1350 0.950 . S
C1356 C1357 1.327 . S
C1357 H1351 0.950 . S
C1357 C1356 1.327 . S
C1357 C1361 1.429 . S
C1358 C1341 1.574 . S
C1358 H1352 0.949 . S
C1358 C1362 1.368 . S
C1359 C1340 1.429 . S
C1359 C1353 1.429 . S
C1359 C1360 1.523 . S
C1360 C1341 1.368 . S
C1360 C1354 1.368 . S
C1360 C1359 1.523 . S
C1361 C1345 1.429 . S
C1361 C1357 1.429 . S
C1361 C1362 1.523 . S
C1362 C1346 1.368 . S
C1362 C1358 1.368 . S
C1362 C1361 1.523 . S
H1363 C1338 0.950 . S
H1364 C1340 0.950 . S
H1365 C1341 0.949 . S
H1366 C1343 0.950 . S
H1367 C1345 0.950 . S
C1368 C1369 1.349 . S
C1368 C1370 1.327 . S
C1368 H1393 0.950 . S
C1369 C1368 1.349 . S
C1369 C1385 1.349 . S
C1370 C1368 1.327 . S
C1370 C1389 1.429 . S
C1370 H1394 0.950 . S
C1371 C1388 1.574 . S
C1371 C1390 1.368 . S
C1371 H1395 0.949 . S
H1372 C1376 0.949 . S
C1373 C1374 1.349 . S
C1373 C1375 1.327 . S
C1373 H1396 0.950 . S
C1374 C1373 1.349 . S
C1374 C1386 1.349 . S
C1375 C1373 1.327 . S
C1375 C1391 1.429 . S
C1375 H1397 0.950 . S
C1376 H1372 0.949 . S
C1376 C1384 1.574 . S
C1376 C1392 1.368 . S
H1377 C1385 0.950 . S
H1378 C1383 0.950 . S
H1379 C1384 0.949 . S
H1380 C1386 0.950 . S
H1381 C1387 0.950 . S
H1382 C1388 0.949 . S
C1383 H1378 0.950 . S
C1383 C1385 1.327 . S
C1383 C1389 1.429 . S
C1384 C1376 1.574 . S
C1384 H1379 0.949 . S
C1384 C1390 1.368 . S
C1385 C1369 1.349 . S
C1385 H1377 0.950 . S
C1385 C1383 1.327 . S
C1386 C1374 1.349 . S
C1386 H1380 0.950 . S
C1386 C1387 1.327 . S
C1387 H1381 0.950 . S
C1387 C1386 1.327 . S
C1387 C1391 1.429 . S
C1388 C1371 1.574 . S
C1388 H1382 0.949 . S
C1388 C1392 1.368 . S
C1389 C1370 1.429 . S
C1389 C1383 1.429 . S
C1389 C1390 1.523 . S
C1390 C1371 1.368 . S
C1390 C1384 1.368 . S
C1390 C1389 1.523 . S
C1391 C1375 1.429 . S
C1391 C1387 1.429 . S
C1391 C1392 1.523 . S
C1392 C1376 1.368 . S
C1392 C1388 1.368 . S
C1392 C1391 1.523 . S
H1393 C1368 0.950 . S
H1394 C1370 0.950 . S
H1395 C1371 0.949 . S
H1396 C1373 0.950 . S
H1397 C1375 0.950 . S
C1398 C1399 1.349 . S
C1398 C1400 1.327 . S
C1398 H1423 0.950 . S
C1399 C1398 1.349 . S
C1399 C1415 1.349 . S
C1400 C1398 1.327 . S
C1400 C1419 1.429 . S
C1400 H1424 0.950 . S
C1401 C1418 1.574 . S
C1401 C1420 1.368 . S
C1401 H1425 0.949 . S
H1402 C1406 0.949 . S
C1403 C1404 1.349 . S
C1403 C1405 1.327 . S
C1403 H1426 0.950 . S
C1404 C1403 1.349 . S
C1404 C1416 1.349 . S
C1405 C1403 1.327 . S
C1405 C1421 1.429 . S
C1405 H1427 0.950 . S
C1406 H1402 0.949 . S
C1406 C1414 1.574 . S
C1406 C1422 1.368 . S
H1407 C1415 0.950 . S
H1408 C1413 0.950 . S
H1409 C1414 0.949 . S
H1410 C1416 0.950 . S
H1411 C1417 0.950 . S
H1412 C1418 0.949 . S
C1413 H1408 0.950 . S
C1413 C1415 1.327 . S
C1413 C1419 1.429 . S
C1414 C1406 1.574 . S
C1414 H1409 0.949 . S
C1414 C1420 1.368 . S
C1415 C1399 1.349 . S
C1415 H1407 0.950 . S
C1415 C1413 1.327 . S
C1416 C1404 1.349 . S
C1416 H1410 0.950 . S
C1416 C1417 1.327 . S
C1417 H1411 0.950 . S
C1417 C1416 1.327 . S
C1417 C1421 1.429 . S
C1418 C1401 1.574 . S
C1418 H1412 0.949 . S
C1418 C1422 1.368 . S
C1419 C1400 1.429 . S
C1419 C1413 1.429 . S
C1419 C1420 1.523 . S
C1420 C1401 1.368 . S
C1420 C1414 1.368 . S
C1420 C1419 1.523 . S
C1421 C1405 1.429 . S
C1421 C1417 1.429 . S
C1421 C1422 1.523 . S
C1422 C1406 1.368 . S
C1422 C1418 1.368 . S
C1422 C1421 1.523 . S
H1423 C1398 0.950 . S
H1424 C1400 0.950 . S
H1425 C1401 0.949 . S
H1426 C1403 0.950 . S
H1427 C1405 0.950 . S
C1428 C1429 1.349 . S
C1428 C1430 1.327 . S
C1428 H1453 0.950 . S
C1429 C1428 1.349 . S
C1429 C1445 1.349 . S
C1430 C1428 1.327 . S
C1430 C1449 1.429 . S
C1430 H1454 0.950 . S
C1431 C1448 1.574 . S
C1431 C1450 1.368 . S
C1431 H1455 0.949 . S
H1432 C1436 0.949 . S
C1433 C1434 1.349 . S
C1433 C1435 1.327 . S
C1433 H1456 0.950 . S
C1434 C1433 1.349 . S
C1434 C1446 1.349 . S
C1435 C1433 1.327 . S
C1435 C1451 1.429 . S
C1435 H1457 0.950 . S
C1436 H1432 0.949 . S
C1436 C1444 1.574 . S
C1436 C1452 1.368 . S
H1437 C1445 0.950 . S
H1438 C1443 0.950 . S
H1439 C1444 0.949 . S
H1440 C1446 0.950 . S
H1441 C1447 0.950 . S
H1442 C1448 0.949 . S
C1443 H1438 0.950 . S
C1443 C1445 1.327 . S
C1443 C1449 1.429 . S
C1444 C1436 1.574 . S
C1444 H1439 0.949 . S
C1444 C1450 1.368 . S
C1445 C1429 1.349 . S
C1445 H1437 0.950 . S
C1445 C1443 1.327 . S
C1446 C1434 1.349 . S
C1446 H1440 0.950 . S
C1446 C1447 1.327 . S
C1447 H1441 0.950 . S
C1447 C1446 1.327 . S
C1447 C1451 1.429 . S
C1448 C1431 1.574 . S
C1448 H1442 0.949 . S
C1448 C1452 1.368 . S
C1449 C1430 1.429 . S
C1449 C1443 1.429 . S
C1449 C1450 1.523 . S
C1450 C1431 1.368 . S
C1450 C1444 1.368 . S
C1450 C1449 1.523 . S
C1451 C1435 1.429 . S
C1451 C1447 1.429 . S
C1451 C1452 1.523 . S
C1452 C1436 1.368 . S
C1452 C1448 1.368 . S
C1452 C1451 1.523 . S
H1453 C1428 0.950 . S
H1454 C1430 0.950 . S
H1455 C1431 0.949 . S
H1456 C1433 0.950 . S
H1457 C1435 0.950 . S
C1458 C1459 1.349 . S
C1458 C1460 1.327 . S
C1458 H1483 0.950 . S
C1459 C1458 1.349 . S
C1459 C1475 1.349 . S
C1460 C1458 1.327 . S
C1460 C1479 1.429 . S
C1460 H1484 0.950 . S
C1461 C1478 1.574 . S
C1461 C1480 1.368 . S
C1461 H1485 0.949 . S
H1462 C1466 0.949 . S
C1463 C1464 1.349 . S
C1463 C1465 1.327 . S
C1463 H1486 0.950 . S
C1464 C1463 1.349 . S
C1464 C1476 1.349 . S
C1465 C1463 1.327 . S
C1465 C1481 1.429 . S
C1465 H1487 0.950 . S
C1466 H1462 0.949 . S
C1466 C1474 1.574 . S
C1466 C1482 1.368 . S
H1467 C1475 0.950 . S
H1468 C1473 0.950 . S
H1469 C1474 0.949 . S
H1470 C1476 0.950 . S
H1471 C1477 0.950 . S
H1472 C1478 0.949 . S
C1473 H1468 0.950 . S
C1473 C1475 1.327 . S
C1473 C1479 1.429 . S
C1474 C1466 1.574 . S
C1474 H1469 0.949 . S
C1474 C1480 1.368 . S
C1475 C1459 1.349 . S
C1475 H1467 0.950 . S
C1475 C1473 1.327 . S
C1476 C1464 1.349 . S
C1476 H1470 0.950 . S
C1476 C1477 1.327 . S
C1477 H1471 0.950 . S
C1477 C1476 1.327 . S
C1477 C1481 1.429 . S
C1478 C1461 1.574 . S
C1478 H1472 0.949 . S
C1478 C1482 1.368 . S
C1479 C1460 1.429 . S
C1479 C1473 1.429 . S
C1479 C1480 1.523 . S
C1480 C1461 1.368 . S
C1480 C1474 1.368 . S
C1480 C1479 1.523 . S
C1481 C1465 1.429 . S
C1481 C1477 1.429 . S
C1481 C1482 1.523 . S
C1482 C1466 1.368 . S
C1482 C1478 1.368 . S
C1482 C1481 1.523 . S
H1483 C1458 0.950 . S
H1484 C1460 0.950 . S
H1485 C1461 0.949 . S
H1486 C1463 0.950 . S
H1487 C1465 0.950 . S
C1488 C1489 1.349 . S
C1488 C1490 1.327 . S
C1488 H1513 0.950 . S
C1489 C1488 1.349 . S
C1489 C1505 1.349 . S
C1490 C1488 1.327 . S
C1490 C1509 1.429 . S
C1490 H1514 0.950 . S
C1491 C1508 1.574 . S
C1491 C1510 1.368 . S
C1491 H1515 0.949 . S
H1492 C1496 0.949 . S
C1493 C1494 1.349 . S
C1493 C1495 1.327 . S
C1493 H1516 0.950 . S
C1494 C1493 1.349 . S
C1494 C1506 1.349 . S
C1495 C1493 1.327 . S
C1495 C1511 1.429 . S
C1495 H1517 0.950 . S
C1496 H1492 0.949 . S
C1496 C1504 1.574 . S
C1496 C1512 1.368 . S
H1497 C1505 0.950 . S
H1498 C1503 0.950 . S
H1499 C1504 0.949 . S
H1500 C1506 0.950 . S
H1501 C1507 0.950 . S
H1502 C1508 0.949 . S
C1503 H1498 0.950 . S
C1503 C1505 1.327 . S
C1503 C1509 1.429 . S
C1504 C1496 1.574 . S
C1504 H1499 0.949 . S
C1504 C1510 1.368 . S
C1505 C1489 1.349 . S
C1505 H1497 0.950 . S
C1505 C1503 1.327 . S
C1506 C1494 1.349 . S
C1506 H1500 0.950 . S
C1506 C1507 1.327 . S
C1507 H1501 0.950 . S
C1507 C1506 1.327 . S
C1507 C1511 1.429 . S
C1508 C1491 1.574 . S
C1508 H1502 0.949 . S
C1508 C1512 1.368 . S
C1509 C1490 1.429 . S
C1509 C1503 1.429 . S
C1509 C1510 1.523 . S
C1510 C1491 1.368 . S
C1510 C1504 1.368 . S
C1510 C1509 1.523 . S
C1511 C1495 1.429 . S
C1511 C1507 1.429 . S
C1511 C1512 1.523 . S
C1512 C1496 1.368 . S
C1512 C1508 1.368 . S
C1512 C1511 1.523 . S
H1513 C1488 0.950 . S
H1514 C1490 0.950 . S
H1515 C1491 0.949 . S
H1516 C1493 0.950 . S
H1517 C1495 0.950 . S
C1518 C1519 1.349 . S
C1518 C1520 1.327 . S
C1518 H1543 0.950 . S
C1519 C1518 1.349 . S
C1519 C1535 1.349 . S
C1520 C1518 1.327 . S
C1520 C1539 1.429 . S
C1520 H1544 0.950 . S
C1521 C1538 1.574 . S
C1521 C1540 1.368 . S
C1521 H1545 0.949 . S
H1522 C1526 0.949 . S
C1523 C1524 1.349 . S
C1523 C1525 1.327 . S
C1523 H1546 0.950 . S
C1524 C1523 1.349 . S
C1524 C1536 1.349 . S
C1525 C1523 1.327 . S
C1525 C1541 1.429 . S
C1525 H1547 0.950 . S
C1526 H1522 0.949 . S
C1526 C1534 1.574 . S
C1526 C1542 1.368 . S
H1527 C1535 0.950 . S
H1528 C1533 0.950 . S
H1529 C1534 0.949 . S
H1530 C1536 0.950 . S
H1531 C1537 0.950 . S
H1532 C1538 0.949 . S
C1533 H1528 0.950 . S
C1533 C1535 1.327 . S
C1533 C1539 1.429 . S
C1534 C1526 1.574 . S
C1534 H1529 0.949 . S
C1534 C1540 1.368 . S
C1535 C1519 1.349 . S
C1535 H1527 0.950 . S
C1535 C1533 1.327 . S
C1536 C1524 1.349 . S
C1536 H1530 0.950 . S
C1536 C1537 1.327 . S
C1537 H1531 0.950 . S
C1537 C1536 1.327 . S
C1537 C1541 1.429 . S
C1538 C1521 1.574 . S
C1538 H1532 0.949 . S
C1538 C1542 1.368 . S
C1539 C1520 1.429 . S
C1539 C1533 1.429 . S
C1539 C1540 1.523 . S
C1540 C1521 1.368 . S
C1540 C1534 1.368 . S
C1540 C1539 1.523 . S
C1541 C1525 1.429 . S
C1541 C1537 1.429 . S
C1541 C1542 1.523 . S
C1542 C1526 1.368 . S
C1542 C1538 1.368 . S
C1542 C1541 1.523 . S
H1543 C1518 0.950 . S
H1544 C1520 0.950 . S
H1545 C1521 0.949 . S
H1546 C1523 0.950 . S
H1547 C1525 0.950 . S
C1548 C1549 1.349 . S
C1548 C1550 1.327 . S
C1548 H1573 0.950 . S
C1549 C1548 1.349 . S
C1549 C1565 1.349 . S
C1550 C1548 1.327 . S
C1550 C1569 1.429 . S
C1550 H1574 0.950 . S
C1551 C1568 1.574 . S
C1551 C1570 1.368 . S
C1551 H1575 0.949 . S
H1552 C1556 0.949 . S
C1553 C1554 1.349 . S
C1553 C1555 1.327 . S
C1553 H1576 0.950 1_556 S
C1554 C1553 1.349 . S
C1554 C1566 1.349 . S
C1555 C1553 1.327 . S
C1555 C1571 1.429 . S
C1555 H1577 0.950 . S
C1556 H1552 0.949 . S
C1556 C1564 1.574 . S
C1556 C1572 1.368 . S
H1557 C1565 0.950 . S
H1558 C1563 0.950 . S
H1559 C1564 0.949 . S
H1560 C1566 0.950 . S
H1561 C1567 0.950 . S
H1562 C1568 0.949 . S
C1563 H1558 0.950 . S
C1563 C1565 1.327 . S
C1563 C1569 1.429 . S
C1564 C1556 1.574 . S
C1564 H1559 0.949 . S
C1564 C1570 1.368 . S
C1565 C1549 1.349 . S
C1565 H1557 0.950 . S
C1565 C1563 1.327 . S
C1566 C1554 1.349 . S
C1566 H1560 0.950 . S
C1566 C1567 1.327 . S
C1567 H1561 0.950 . S
C1567 C1566 1.327 . S
C1567 C1571 1.429 . S
C1568 C1551 1.574 . S
C1568 H1562 0.949 . S
C1568 C1572 1.368 . S
C1569 C1550 1.429 . S
C1569 C1563 1.429 . S
C1569 C1570 1.523 . S
C1570 C1551 1.368 . S
C1570 C1564 1.368 . S
C1570 C1569 1.523 . S
C1571 C1555 1.429 . S
C1571 C1567 1.429 . S
C1571 C1572 1.523 . S
C1572 C1556 1.368 . S
C1572 C1568 1.368 . S
C1572 C1571 1.523 . S
H1573 C1548 0.950 . S
H1574 C1550 0.950 . S
H1575 C1551 0.949 . S
H1576 C1553 0.950 1_554 S
H1577 C1555 0.950 . S
C1578 C1579 1.349 . S
C1578 C1580 1.327 . S
C1578 H1603 0.950 1_556 S
C1579 C1578 1.349 . S
C1579 C1595 1.349 . S
C1580 C1578 1.327 . S
C1580 C1599 1.429 . S
C1580 H1604 0.950 . S
C1581 C1598 1.574 . S
C1581 C1600 1.368 . S
C1581 H1605 0.949 . S
H1582 C1586 0.949 . S
C1583 C1584 1.349 . S
C1583 C1585 1.327 . S
C1583 H1606 0.950 . S
C1584 C1583 1.349 . S
C1584 C1596 1.349 . S
C1585 C1583 1.327 . S
C1585 C1601 1.429 . S
C1585 H1607 0.950 . S
C1586 H1582 0.949 . S
C1586 C1594 1.574 . S
C1586 C1602 1.368 . S
H1587 C1595 0.950 . S
H1588 C1593 0.950 . S
H1589 C1594 0.949 . S
H1590 C1596 0.950 . S
H1591 C1597 0.950 . S
H1592 C1598 0.949 . S
C1593 H1588 0.950 . S
C1593 C1595 1.327 . S
C1593 C1599 1.429 . S
C1594 C1586 1.574 . S
C1594 H1589 0.949 . S
C1594 C1600 1.368 . S
C1595 C1579 1.349 . S
C1595 H1587 0.950 . S
C1595 C1593 1.327 . S
C1596 C1584 1.349 . S
C1596 H1590 0.950 . S
C1596 C1597 1.327 . S
C1597 H1591 0.950 . S
C1597 C1596 1.327 . S
C1597 C1601 1.429 . S
C1598 C1581 1.574 . S
C1598 H1592 0.949 . S
C1598 C1602 1.368 . S
C1599 C1580 1.429 . S
C1599 C1593 1.429 . S
C1599 C1600 1.523 . S
C1600 C1581 1.368 . S
C1600 C1594 1.368 . S
C1600 C1599 1.523 . S
C1601 C1585 1.429 . S
C1601 C1597 1.429 . S
C1601 C1602 1.523 . S
C1602 C1586 1.368 . S
C1602 C1598 1.368 . S
C1602 C1601 1.523 . S
H1603 C1578 0.950 1_554 S
H1604 C1580 0.950 . S
H1605 C1581 0.949 . S
H1606 C1583 0.950 . S
H1607 C1585 0.950 . S
C1608 C1609 1.349 . S
C1608 C1610 1.327 . S
C1608 H1633 0.950 . S
C1609 C1608 1.349 . S
C1609 C1625 1.349 . S
C1610 C1608 1.327 . S
C1610 C1629 1.429 . S
C1610 H1634 0.950 . S
C1611 C1628 1.574 . S
C1611 C1630 1.368 . S
C1611 H1635 0.949 . S
H1612 C1616 0.949 . S
C1613 C1614 1.349 . S
C1613 C1615 1.327 . S
C1613 H1636 0.950 . S
C1614 C1613 1.349 . S
C1614 C1626 1.349 . S
C1615 C1613 1.327 . S
C1615 C1631 1.429 . S
C1615 H1637 0.950 . S
C1616 H1612 0.949 . S
C1616 C1624 1.574 . S
C1616 C1632 1.368 . S
H1617 C1625 0.950 . S
H1618 C1623 0.950 . S
H1619 C1624 0.949 . S
H1620 C1626 0.950 . S
H1621 C1627 0.950 . S
H1622 C1628 0.949 . S
C1623 H1618 0.950 . S
C1623 C1625 1.327 . S
C1623 C1629 1.429 . S
C1624 C1616 1.574 . S
C1624 H1619 0.949 . S
C1624 C1630 1.368 . S
C1625 C1609 1.349 . S
C1625 H1617 0.950 . S
C1625 C1623 1.327 . S
C1626 C1614 1.349 . S
C1626 H1620 0.950 . S
C1626 C1627 1.327 . S
C1627 H1621 0.950 . S
C1627 C1626 1.327 . S
C1627 C1631 1.429 . S
C1628 C1611 1.574 . S
C1628 H1622 0.949 . S
C1628 C1632 1.368 . S
C1629 C1610 1.429 . S
C1629 C1623 1.429 . S
C1629 C1630 1.523 . S
C1630 C1611 1.368 . S
C1630 C1624 1.368 . S
C1630 C1629 1.523 . S
C1631 C1615 1.429 . S
C1631 C1627 1.429 . S
C1631 C1632 1.523 . S
C1632 C1616 1.368 . S
C1632 C1628 1.368 . S
C1632 C1631 1.523 . S
H1633 C1608 0.950 . S
H1634 C1610 0.950 . S
H1635 C1611 0.949 . S
H1636 C1613 0.950 . S
H1637 C1615 0.950 . S
C1638 C1639 1.349 . S
C1638 C1640 1.327 . S
C1638 H1663 0.950 . S
C1639 C1638 1.349 . S
C1639 C1655 1.349 . S
C1640 C1638 1.327 . S
C1640 C1659 1.429 . S
C1640 H1664 0.950 . S
C1641 C1658 1.574 . S
C1641 C1660 1.368 . S
C1641 H1665 0.949 . S
H1642 C1646 0.949 . S
C1643 C1644 1.349 . S
C1643 C1645 1.327 . S
C1643 H1666 0.950 . S
C1644 C1643 1.349 . S
C1644 C1656 1.349 . S
C1645 C1643 1.327 . S
C1645 C1661 1.429 . S
C1645 H1667 0.950 . S
C1646 H1642 0.949 . S
C1646 C1654 1.574 . S
C1646 C1662 1.368 . S
H1647 C1655 0.950 1_556 S
H1648 C1653 0.950 . S
H1649 C1654 0.949 . S
H1650 C1656 0.950 . S
H1651 C1657 0.950 . S
H1652 C1658 0.949 . S
C1653 H1648 0.950 . S
C1653 C1655 1.327 . S
C1653 C1659 1.429 . S
C1654 C1646 1.574 . S
C1654 H1649 0.949 . S
C1654 C1660 1.368 . S
C1655 C1639 1.349 . S
C1655 H1647 0.950 1_554 S
C1655 C1653 1.327 . S
C1656 C1644 1.349 . S
C1656 H1650 0.950 . S
C1656 C1657 1.327 . S
C1657 H1651 0.950 . S
C1657 C1656 1.327 . S
C1657 C1661 1.429 . S
C1658 C1641 1.574 . S
C1658 H1652 0.949 . S
C1658 C1662 1.368 . S
C1659 C1640 1.429 . S
C1659 C1653 1.429 . S
C1659 C1660 1.523 . S
C1660 C1641 1.368 . S
C1660 C1654 1.368 . S
C1660 C1659 1.523 . S
C1661 C1645 1.429 . S
C1661 C1657 1.429 . S
C1661 C1662 1.523 . S
C1662 C1646 1.368 . S
C1662 C1658 1.368 . S
C1662 C1661 1.523 . S
H1663 C1638 0.950 . S
H1664 C1640 0.950 . S
H1665 C1641 0.949 . S
H1666 C1643 0.950 . S
H1667 C1645 0.950 . S
C1668 C1669 1.349 . S
C1668 C1670 1.327 . S
C1668 H1693 0.950 . S
C1669 C1668 1.349 . S
C1669 C1685 1.349 . S
C1670 C1668 1.327 . S
C1670 C1689 1.429 . S
C1670 H1694 0.950 . S
C1671 C1688 1.574 . S
C1671 C1690 1.368 . S
C1671 H1695 0.949 . S
H1672 C1676 0.949 . S
C1673 C1674 1.349 . S
C1673 C1675 1.327 . S
C1673 H1696 0.950 . S
C1674 C1673 1.349 . S
C1674 C1686 1.349 . S
C1675 C1673 1.327 . S
C1675 C1691 1.429 . S
C1675 H1697 0.950 . S
C1676 H1672 0.949 . S
C1676 C1684 1.574 . S
C1676 C1692 1.368 . S
H1677 C1685 0.950 . S
H1678 C1683 0.950 . S
H1679 C1684 0.949 . S
H1680 C1686 0.950 . S
H1681 C1687 0.950 . S
H1682 C1688 0.949 . S
C1683 H1678 0.950 . S
C1683 C1685 1.327 . S
C1683 C1689 1.429 . S
C1684 C1676 1.574 . S
C1684 H1679 0.949 . S
C1684 C1690 1.368 . S
C1685 C1669 1.349 . S
C1685 H1677 0.950 . S
C1685 C1683 1.327 . S
C1686 C1674 1.349 . S
C1686 H1680 0.950 . S
C1686 C1687 1.327 . S
C1687 H1681 0.950 . S
C1687 C1686 1.327 . S
C1687 C1691 1.429 . S
C1688 C1671 1.574 . S
C1688 H1682 0.949 . S
C1688 C1692 1.368 . S
C1689 C1670 1.429 . S
C1689 C1683 1.429 . S
C1689 C1690 1.523 . S
C1690 C1671 1.368 . S
C1690 C1684 1.368 . S
C1690 C1689 1.523 . S
C1691 C1675 1.429 . S
C1691 C1687 1.429 . S
C1691 C1692 1.523 . S
C1692 C1676 1.368 . S
C1692 C1688 1.368 . S
C1692 C1691 1.523 . S
H1693 C1668 0.950 . S
H1694 C1670 0.950 . S
H1695 C1671 0.949 . S
H1696 C1673 0.950 . S
H1697 C1675 0.950 . S
C1698 C1699 1.349 . S
C1698 C1700 1.327 . S
C1698 H1723 0.950 . S
C1699 C1698 1.349 . S
C1699 C1715 1.349 . S
C1700 C1698 1.327 . S
C1700 C1719 1.429 . S
C1700 H1724 0.950 . S
C1701 C1718 1.574 . S
C1701 C1720 1.368 . S
C1701 H1725 0.949 . S
H1702 C1706 0.949 . S
C1703 C1704 1.349 . S
C1703 C1705 1.327 . S
C1703 H1726 0.950 1_554 S
C1704 C1703 1.349 . S
C1704 C1716 1.349 . S
C1705 C1703 1.327 . S
C1705 C1721 1.429 . S
C1705 H1727 0.950 . S
C1706 H1702 0.949 . S
C1706 C1714 1.574 . S
C1706 C1722 1.368 . S
H1707 C1715 0.950 . S
H1708 C1713 0.950 . S
H1709 C1714 0.949 . S
H1710 C1716 0.950 . S
H1711 C1717 0.950 . S
H1712 C1718 0.949 . S
C1713 H1708 0.950 . S
C1713 C1715 1.327 . S
C1713 C1719 1.429 . S
C1714 C1706 1.574 . S
C1714 H1709 0.949 . S
C1714 C1720 1.368 . S
C1715 C1699 1.349 . S
C1715 H1707 0.950 . S
C1715 C1713 1.327 . S
C1716 C1704 1.349 . S
C1716 H1710 0.950 . S
C1716 C1717 1.327 . S
C1717 H1711 0.950 . S
C1717 C1716 1.327 . S
C1717 C1721 1.429 . S
C1718 C1701 1.574 . S
C1718 H1712 0.949 . S
C1718 C1722 1.368 . S
C1719 C1700 1.429 . S
C1719 C1713 1.429 . S
C1719 C1720 1.523 . S
C1720 C1701 1.368 . S
C1720 C1714 1.368 . S
C1720 C1719 1.523 . S
C1721 C1705 1.429 . S
C1721 C1717 1.429 . S
C1721 C1722 1.523 . S
C1722 C1706 1.368 . S
C1722 C1718 1.368 . S
C1722 C1721 1.523 . S
H1723 C1698 0.950 . S
H1724 C1700 0.950 . S
H1725 C1701 0.949 . S
H1726 C1703 0.950 1_556 S
H1727 C1705 0.950 . S
C1728 C1729 1.349 . S
C1728 C1730 1.327 . S
C1728 H1753 0.950 . S
C1729 C1728 1.349 . S
C1729 C1745 1.349 . S
C1730 C1728 1.327 . S
C1730 C1749 1.429 . S
C1730 H1754 0.950 . S
C1731 C1748 1.574 . S
C1731 C1750 1.368 . S
C1731 H1755 0.949 . S
H1732 C1736 0.949 . S
C1733 C1734 1.349 . S
C1733 C1735 1.327 . S
C1733 H1756 0.950 . S
C1734 C1733 1.349 . S
C1734 C1746 1.349 . S
C1735 C1733 1.327 . S
C1735 C1751 1.429 . S
C1735 H1757 0.950 . S
C1736 H1732 0.949 . S
C1736 C1744 1.574 . S
C1736 C1752 1.368 . S
H1737 C1745 0.929 1_556 S
H1738 C1743 0.950 . S
H1739 C1744 0.949 . S
H1740 C1746 0.950 . S
H1741 C1747 0.950 . S
H1742 C1748 0.949 . S
C1743 H1738 0.950 . S
C1743 C1745 1.327 . S
C1743 C1749 1.429 . S
C1744 C1736 1.574 . S
C1744 H1739 0.949 . S
C1744 C1750 1.368 . S
C1745 C1729 1.349 . S
C1745 H1737 0.929 1_554 S
C1745 C1743 1.327 . S
C1746 C1734 1.349 . S
C1746 H1740 0.950 . S
C1746 C1747 1.327 . S
C1747 H1741 0.950 . S
C1747 C1746 1.327 . S
C1747 C1751 1.429 . S
C1748 C1731 1.574 . S
C1748 H1742 0.949 . S
C1748 C1752 1.368 . S
C1749 C1730 1.429 . S
C1749 C1743 1.429 . S
C1749 C1750 1.523 . S
C1750 C1731 1.368 . S
C1750 C1744 1.368 . S
C1750 C1749 1.523 . S
C1751 C1735 1.429 . S
C1751 C1747 1.429 . S
C1751 C1752 1.523 . S
C1752 C1736 1.368 . S
C1752 C1748 1.368 . S
C1752 C1751 1.523 . S
H1753 C1728 0.950 . S
H1754 C1730 0.950 . S
H1755 C1731 0.949 . S
H1756 C1733 0.950 . S
H1757 C1735 0.950 . S
C1758 C1759 1.349 . S
C1758 C1760 1.327 . S
C1758 H1783 0.950 . S
C1759 C1758 1.349 . S
C1759 C1775 1.349 . S
C1760 C1758 1.327 . S
C1760 C1779 1.429 . S
C1760 H1784 0.950 . S
C1761 C1778 1.574 . S
C1761 C1780 1.368 . S
C1761 H1785 0.949 . S
H1762 C1766 0.949 . S
C1763 C1764 1.349 . S
C1763 C1765 1.327 . S
C1763 H1786 0.950 . S
C1764 C1763 1.349 . S
C1764 C1776 1.349 . S
C1765 C1763 1.327 . S
C1765 C1781 1.429 . S
C1765 H1787 0.950 . S
C1766 H1762 0.949 . S
C1766 C1774 1.574 . S
C1766 C1782 1.368 . S
H1767 C1775 0.950 . S
H1768 C1773 0.950 . S
H1769 C1774 0.949 . S
H1770 C1776 0.950 . S
H1771 C1777 0.950 . S
H1772 C1778 0.949 . S
C1773 H1768 0.950 . S
C1773 C1775 1.327 . S
C1773 C1779 1.429 . S
C1774 C1766 1.574 . S
C1774 H1769 0.949 . S
C1774 C1780 1.368 . S
C1775 C1759 1.349 . S
C1775 H1767 0.950 . S
C1775 C1773 1.327 . S
C1776 C1764 1.349 . S
C1776 H1770 0.950 . S
C1776 C1777 1.327 . S
C1777 H1771 0.950 . S
C1777 C1776 1.327 . S
C1777 C1781 1.429 . S
C1778 C1761 1.574 . S
C1778 H1772 0.949 . S
C1778 C1782 1.368 . S
C1779 C1760 1.429 . S
C1779 C1773 1.429 . S
C1779 C1780 1.523 . S
C1780 C1761 1.368 . S
C1780 C1774 1.368 . S
C1780 C1779 1.523 . S
C1781 C1765 1.429 . S
C1781 C1777 1.429 . S
C1781 C1782 1.523 . S
C1782 C1766 1.368 . S
C1782 C1778 1.368 . S
C1782 C1781 1.523 . S
H1783 C1758 0.950 . S
H1784 C1760 0.950 . S
H1785 C1761 0.949 . S
H1786 C1763 0.950 . S
H1787 C1765 0.950 . S
C1788 C1789 1.349 . S
C1788 C1790 1.327 . S
C1788 H1813 0.950 1_554 S
C1789 C1788 1.349 . S
C1789 C1805 1.349 . S
C1790 C1788 1.327 . S
C1790 C1809 1.429 . S
C1790 H1814 0.950 . S
C1791 C1808 1.574 . S
C1791 C1810 1.368 . S
C1791 H1815 0.949 . S
H1792 C1796 0.949 . S
C1793 C1794 1.349 . S
C1793 C1795 1.327 . S
C1793 H1816 0.950 . S
C1794 C1793 1.349 . S
C1794 C1806 1.349 . S
C1795 C1793 1.327 . S
C1795 C1811 1.429 . S
C1795 H1817 0.950 . S
C1796 H1792 0.949 . S
C1796 C1804 1.574 . S
C1796 C1812 1.368 . S
H1797 C1805 0.950 . S
H1798 C1803 0.950 . S
H1799 C1804 0.949 . S
H1800 C1806 0.950 . S
H1801 C1807 0.950 . S
H1802 C1808 0.949 . S
C1803 H1798 0.950 . S
C1803 C1805 1.327 . S
C1803 C1809 1.429 . S
C1804 C1796 1.574 . S
C1804 H1799 0.949 . S
C1804 C1810 1.368 . S
C1805 C1789 1.349 . S
C1805 H1797 0.950 . S
C1805 C1803 1.327 . S
C1806 C1794 1.349 . S
C1806 H1800 0.950 . S
C1806 C1807 1.327 . S
C1807 H1801 0.950 . S
C1807 C1806 1.327 . S
C1807 C1811 1.429 . S
C1808 C1791 1.574 . S
C1808 H1802 0.949 . S
C1808 C1812 1.368 . S
C1809 C1790 1.429 . S
C1809 C1803 1.429 . S
C1809 C1810 1.523 . S
C1810 C1791 1.368 . S
C1810 C1804 1.368 . S
C1810 C1809 1.523 . S
C1811 C1795 1.429 . S
C1811 C1807 1.429 . S
C1811 C1812 1.523 . S
C1812 C1796 1.368 . S
C1812 C1808 1.368 . S
C1812 C1811 1.523 . S
H1813 C1788 0.950 1_556 S
H1814 C1790 0.950 . S
H1815 C1791 0.949 . S
H1816 C1793 0.950 . S
H1817 C1795 0.950 . S
C1818 C1819 1.349 . S
C1818 C1820 1.327 . S
C1818 H1843 0.950 . S
C1819 C1818 1.349 . S
C1819 C1835 1.349 . S
C1820 C1818 1.327 . S
C1820 C1839 1.429 . S
C1820 H1844 0.950 . S
C1821 C1838 1.574 . S
C1821 C1840 1.368 . S
C1821 H1845 0.949 . S
H1822 C1826 0.949 . S
C1823 C1824 1.349 . S
C1823 C1825 1.327 . S
C1823 H1846 0.950 . S
C1824 C1823 1.349 . S
C1824 C1836 1.349 . S
C1825 C1823 1.327 . S
C1825 C1841 1.429 . S
C1825 H1847 0.950 . S
C1826 H1822 0.949 . S
C1826 C1834 1.574 . S
C1826 C1842 1.368 . S
H1827 C1835 0.950 . S
H1828 C1833 0.950 . S
H1829 C1834 0.949 . S
H1830 C1836 0.932 1_554 S
H1831 C1837 0.950 . S
H1832 C1838 0.949 . S
C1833 H1828 0.950 . S
C1833 C1835 1.327 . S
C1833 C1839 1.429 . S
C1834 C1826 1.574 . S
C1834 H1829 0.949 . S
C1834 C1840 1.368 . S
C1835 C1819 1.349 . S
C1835 H1827 0.950 . S
C1835 C1833 1.327 . S
C1836 C1824 1.349 . S
C1836 H1830 0.932 1_556 S
C1836 C1837 1.327 . S
C1837 H1831 0.950 . S
C1837 C1836 1.327 . S
C1837 C1841 1.429 . S
C1838 C1821 1.574 . S
C1838 H1832 0.949 . S
C1838 C1842 1.368 . S
C1839 C1820 1.429 . S
C1839 C1833 1.429 . S
C1839 C1840 1.523 . S
C1840 C1821 1.368 . S
C1840 C1834 1.368 . S
C1840 C1839 1.523 . S
C1841 C1825 1.429 . S
C1841 C1837 1.429 . S
C1841 C1842 1.523 . S
C1842 C1826 1.368 . S
C1842 C1838 1.368 . S
C1842 C1841 1.523 . S
H1843 C1818 0.950 . S
H1844 C1820 0.950 . S
H1845 C1821 0.949 . S
H1846 C1823 0.950 . S
H1847 C1825 0.950 . S
C1848 C1849 1.349 . S
C1848 C1850 1.327 . S
C1848 H1873 0.950 . S
C1849 C1848 1.349 . S
C1849 C1865 1.349 . S
C1850 C1848 1.327 . S
C1850 C1869 1.429 . S
C1850 H1874 0.950 . S
C1851 C1868 1.574 . S
C1851 C1870 1.368 . S
C1851 H1875 0.949 . S
H1852 C1856 0.949 . S
C1853 C1854 1.349 . S
C1853 C1855 1.327 . S
C1853 H1876 0.950 . S
C1854 C1853 1.349 . S
C1854 C1866 1.349 . S
C1855 C1853 1.327 . S
C1855 C1871 1.429 . S
C1855 H1877 0.950 . S
C1856 H1852 0.949 . S
C1856 C1864 1.574 . S
C1856 C1872 1.368 . S
H1857 C1865 0.950 . S
H1858 C1863 0.950 . S
H1859 C1864 0.949 . S
H1860 C1866 0.950 1_554 S
H1861 C1867 0.950 . S
H1862 C1868 0.949 . S
C1863 H1858 0.950 . S
C1863 C1865 1.327 . S
C1863 C1869 1.429 . S
C1864 C1856 1.574 . S
C1864 H1859 0.949 . S
C1864 C1870 1.368 . S
C1865 C1849 1.349 . S
C1865 H1857 0.950 . S
C1865 C1863 1.327 . S
C1866 C1854 1.349 . S
C1866 H1860 0.950 1_556 S
C1866 C1867 1.327 . S
C1867 H1861 0.950 . S
C1867 C1866 1.327 . S
C1867 C1871 1.429 . S
C1868 C1851 1.574 . S
C1868 H1862 0.949 . S
C1868 C1872 1.368 . S
C1869 C1850 1.429 . S
C1869 C1863 1.429 . S
C1869 C1870 1.523 . S
C1870 C1851 1.368 . S
C1870 C1864 1.368 . S
C1870 C1869 1.523 . S
C1871 C1855 1.429 . S
C1871 C1867 1.429 . S
C1871 C1872 1.523 . S
C1872 C1856 1.368 . S
C1872 C1868 1.368 . S
C1872 C1871 1.523 . S
H1873 C1848 0.950 . S
H1874 C1850 0.950 . S
H1875 C1851 0.949 . S
H1876 C1853 0.950 . S
H1877 C1855 0.950 . S
C1878 C1879 1.349 . S
C1878 C1880 1.327 . S
C1878 H1903 0.950 . S
C1879 C1878 1.349 . S
C1879 C1895 1.349 . S
C1880 C1878 1.327 . S
C1880 C1899 1.429 . S
C1880 H1904 0.950 . S
C1881 C1898 1.574 . S
C1881 C1900 1.368 . S
C1881 H1905 0.949 . S
H1882 C1886 0.949 . S
C1883 C1884 1.349 . S
C1883 C1885 1.327 . S
C1883 H1906 0.950 . S
C1884 C1883 1.349 . S
C1884 C1896 1.349 . S
C1885 C1883 1.327 . S
C1885 C1901 1.429 . S
C1885 H1907 0.950 . S
C1886 H1882 0.949 . S
C1886 C1894 1.574 . S
C1886 C1902 1.368 . S
H1887 C1895 0.950 1_554 S
H1888 C1893 0.950 . S
H1889 C1894 0.949 . S
H1890 C1896 0.950 . S
H1891 C1897 0.950 . S
H1892 C1898 0.949 . S
C1893 H1888 0.950 . S
C1893 C1895 1.327 . S
C1893 C1899 1.429 . S
C1894 C1886 1.574 . S
C1894 H1889 0.949 . S
C1894 C1900 1.368 . S
C1895 C1879 1.349 . S
C1895 H1887 0.950 1_556 S
C1895 C1893 1.327 . S
C1896 C1884 1.349 . S
C1896 H1890 0.950 . S
C1896 C1897 1.327 . S
C1897 H1891 0.950 . S
C1897 C1896 1.327 . S
C1897 C1901 1.429 . S
C1898 C1881 1.574 . S
C1898 H1892 0.949 . S
C1898 C1902 1.368 . S
C1899 C1880 1.429 . S
C1899 C1893 1.429 . S
C1899 C1900 1.523 . S
C1900 C1881 1.368 . S
C1900 C1894 1.368 . S
C1900 C1899 1.523 . S
C1901 C1885 1.429 . S
C1901 C1897 1.429 . S
C1901 C1902 1.523 . S
C1902 C1886 1.368 . S
C1902 C1898 1.368 . S
C1902 C1901 1.523 . S
H1903 C1878 0.950 . S
H1904 C1880 0.950 . S
H1905 C1881 0.949 . S
H1906 C1883 0.950 . S
H1907 C1885 0.950 . S
C1908 C1909 1.349 . S
C1908 C1910 1.327 . S
C1908 H1933 0.950 . S
C1909 C1908 1.349 . S
C1909 C1925 1.349 . S
C1910 C1908 1.327 . S
C1910 C1929 1.429 . S
C1910 H1934 0.950 . S
C1911 C1928 1.574 1_455 S
C1911 C1930 1.368 . S
C1911 H1935 0.949 . S
H1912 C1916 0.949 . S
C1913 C1914 1.349 . S
C1913 C1915 1.327 . S
C1913 H1936 0.950 . S
C1914 C1913 1.349 . S
C1914 C1926 1.349 . S
C1915 C1913 1.327 . S
C1915 C1931 1.429 . S
C1915 H1937 0.950 . S
C1916 H1912 0.949 . S
C1916 C1924 1.574 1_655 S
C1916 C1932 1.368 . S
H1917 C1925 0.950 . S
H1918 C1923 0.950 . S
H1919 C1924 0.949 . S
H1920 C1926 0.950 . S
H1921 C1927 0.950 . S
H1922 C1928 0.949 . S
C1923 H1918 0.950 . S
C1923 C1925 1.327 . S
C1923 C1929 1.429 . S
C1924 C1916 1.574 1_455 S
C1924 H1919 0.949 . S
C1924 C1930 1.368 . S
C1925 C1909 1.349 . S
C1925 H1917 0.950 . S
C1925 C1923 1.327 . S
C1926 C1914 1.349 . S
C1926 H1920 0.950 . S
C1926 C1927 1.327 . S
C1927 H1921 0.950 . S
C1927 C1926 1.327 . S
C1927 C1931 1.429 . S
C1928 C1911 1.574 1_655 S
C1928 H1922 0.949 . S
C1928 C1932 1.368 . S
C1929 C1910 1.429 . S
C1929 C1923 1.429 . S
C1929 C1930 1.523 . S
C1930 C1911 1.368 . S
C1930 C1924 1.368 . S
C1930 C1929 1.523 . S
C1931 C1915 1.429 . S
C1931 C1927 1.429 . S
C1931 C1932 1.523 . S
C1932 C1916 1.368 . S
C1932 C1928 1.368 . S
C1932 C1931 1.523 . S
H1933 C1908 0.950 . S
H1934 C1910 0.950 . S
H1935 C1911 0.949 . S
H1936 C1913 0.950 . S
H1937 C1915 0.950 . S
C1938 C1939 1.349 . S
C1938 C1940 1.327 . S
C1938 H1963 0.950 . S
C1939 C1938 1.349 . S
C1939 C1955 1.349 . S
C1940 C1938 1.327 . S
C1940 C1959 1.429 . S
C1940 H1964 0.950 . S
C1941 C1958 1.574 . S
C1941 C1960 1.368 . S
C1941 H1965 0.949 . S
H1942 C1946 0.949 . S
C1943 C1944 1.349 . S
C1943 C1945 1.327 . S
C1943 H1966 0.950 . S
C1944 C1943 1.349 . S
C1944 C1956 1.349 . S
C1945 C1943 1.327 . S
C1945 C1961 1.429 . S
C1945 H1967 0.950 . S
C1946 H1942 0.949 . S
C1946 C1954 1.574 . S
C1946 C1962 1.368 . S
H1947 C1955 0.950 . S
H1948 C1953 0.950 . S
H1949 C1954 0.949 . S
H1950 C1956 0.950 . S
H1951 C1957 0.950 . S
H1952 C1958 0.949 . S
C1953 H1948 0.950 . S
C1953 C1955 1.327 . S
C1953 C1959 1.429 . S
C1954 C1946 1.574 . S
C1954 H1949 0.949 . S
C1954 C1960 1.368 . S
C1955 C1939 1.349 . S
C1955 H1947 0.950 . S
C1955 C1953 1.327 . S
C1956 C1944 1.349 . S
C1956 H1950 0.950 . S
C1956 C1957 1.327 . S
C1957 H1951 0.950 . S
C1957 C1956 1.327 . S
C1957 C1961 1.429 . S
C1958 C1941 1.574 . S
C1958 H1952 0.949 . S
C1958 C1962 1.368 . S
C1959 C1940 1.429 . S
C1959 C1953 1.429 . S
C1959 C1960 1.523 . S
C1960 C1941 1.368 . S
C1960 C1954 1.368 . S
C1960 C1959 1.523 . S
C1961 C1945 1.429 . S
C1961 C1957 1.429 . S
C1961 C1962 1.523 . S
C1962 C1946 1.368 . S
C1962 C1958 1.368 . S
C1962 C1961 1.523 . S
H1963 C1938 0.950 . S
H1964 C1940 0.950 . S
H1965 C1941 0.949 . S
H1966 C1943 0.950 . S
H1967 C1945 0.950 . S
C1968 C1969 1.349 . S
C1968 C1970 1.327 . S
C1968 H1993 0.950 . S
C1969 C1968 1.349 . S
C1969 C1985 1.349 . S
C1970 C1968 1.327 . S
C1970 C1989 1.429 . S
C1970 H1994 0.950 . S
C1971 C1988 1.513 1_565 S
C1971 C1990 1.476 . S
C1971 H1995 0.919 . S
H1972 C1976 0.919 . S
C1973 C1974 1.349 . S
C1973 C1975 1.327 . S
C1973 H1996 0.950 . S
C1974 C1973 1.349 . S
C1974 C1986 1.349 . S
C1975 C1973 1.327 . S
C1975 C1991 1.429 . S
C1975 H1997 0.950 . S
C1976 H1972 0.919 . S
C1976 C1984 1.513 1_545 S
C1976 C1992 1.476 . S
H1977 C1985 0.950 . S
H1978 C1983 0.950 . S
H1979 C1984 0.949 . S
H1980 C1986 0.950 . S
H1981 C1987 0.950 . S
H1982 C1988 0.949 . S
C1983 H1978 0.950 . S
C1983 C1985 1.327 . S
C1983 C1989 1.429 . S
C1984 C1976 1.513 1_565 S
C1984 H1979 0.949 . S
C1984 C1990 1.368 . S
C1985 C1969 1.349 . S
C1985 H1977 0.950 . S
C1985 C1983 1.327 . S
C1986 C1974 1.349 . S
C1986 H1980 0.950 . S
C1986 C1987 1.327 . S
C1987 H1981 0.950 . S
C1987 C1986 1.327 . S
C1987 C1991 1.429 . S
C1988 C1971 1.513 1_545 S
C1988 H1982 0.949 . S
C1988 C1992 1.368 . S
C1989 C1970 1.429 . S
C1989 C1983 1.429 . S
C1989 C1990 1.523 . S
C1990 C1971 1.476 . S
C1990 C1984 1.368 . S
C1990 C1989 1.523 . S
C1991 C1975 1.429 . S
C1991 C1987 1.429 . S
C1991 C1992 1.523 . S
C1992 C1976 1.476 . S
C1992 C1988 1.368 . S
C1992 C1991 1.523 . S
H1993 C1968 0.950 . S
H1994 C1970 0.950 . S
H1995 C1971 0.919 . S
H1996 C1973 0.950 . S
H1997 C1975 0.950 . S
C1998 C1999 1.349 . S
C1998 C2000 1.327 . S
C1998 H2023 0.950 . S
C1999 C1998 1.349 . S
C1999 C2015 1.349 . S
C2000 C1998 1.327 . S
C2000 C2019 1.429 . S
C2000 H2024 0.950 . S
C2001 C2018 1.574 1_565 S
C2001 C2020 1.368 . S
C2001 H2025 0.949 . S
H2002 C2006 0.949 . S
C2003 C2004 1.349 . S
C2003 C2005 1.327 . S
C2003 H2026 0.950 . S
C2004 C2003 1.349 . S
C2004 C2016 1.349 . S
C2005 C2003 1.327 . S
C2005 C2021 1.429 . S
C2005 H2027 0.950 . S
C2006 H2002 0.949 . S
C2006 C2014 1.574 1_545 S
C2006 C2022 1.368 . S
H2007 C2015 0.950 . S
H2008 C2013 0.950 . S
H2009 C2014 0.949 . S
H2010 C2016 0.950 . S
H2011 C2017 0.950 . S
H2012 C2018 0.949 . S
C2013 H2008 0.950 . S
C2013 C2015 1.327 . S
C2013 C2019 1.429 . S
C2014 C2006 1.574 1_565 S
C2014 H2009 0.949 . S
C2014 C2020 1.368 . S
C2015 C1999 1.349 . S
C2015 H2007 0.950 . S
C2015 C2013 1.327 . S
C2016 C2004 1.349 . S
C2016 H2010 0.950 . S
C2016 C2017 1.327 . S
C2017 H2011 0.950 . S
C2017 C2016 1.327 . S
C2017 C2021 1.429 . S
C2018 C2001 1.574 1_545 S
C2018 H2012 0.949 . S
C2018 C2022 1.368 . S
C2019 C2000 1.429 . S
C2019 C2013 1.429 . S
C2019 C2020 1.523 . S
C2020 C2001 1.368 . S
C2020 C2014 1.368 . S
C2020 C2019 1.523 . S
C2021 C2005 1.429 . S
C2021 C2017 1.429 . S
C2021 C2022 1.523 . S
C2022 C2006 1.368 . S
C2022 C2018 1.368 . S
C2022 C2021 1.523 . S
H2023 C1998 0.950 . S
H2024 C2000 0.950 . S
H2025 C2001 0.949 . S
H2026 C2003 0.950 . S
H2027 C2005 0.950 . S
C2028 C2029 1.349 . S
C2028 C2030 1.327 . S
C2028 H2053 0.950 . S
C2029 C2028 1.349 . S
C2029 C2045 1.349 . S
C2030 C2028 1.327 . S
C2030 C2049 1.429 . S
C2030 H2054 0.950 . S
C2031 C2048 1.574 . S
C2031 C2050 1.368 . S
C2031 H2055 0.949 . S
H2032 C2036 0.949 . S
C2033 C2034 1.349 . S
C2033 C2035 1.327 . S
C2033 H2056 0.950 . S
C2034 C2033 1.349 . S
C2034 C2046 1.349 . S
C2035 C2033 1.327 . S
C2035 C2051 1.429 . S
C2035 H2057 0.950 . S
C2036 H2032 0.949 . S
C2036 C2044 1.574 . S
C2036 C2052 1.368 . S
H2037 C2045 0.950 . S
H2038 C2043 0.950 . S
H2039 C2044 0.949 . S
H2040 C2046 0.950 . S
H2041 C2047 0.950 . S
H2042 C2048 0.949 . S
C2043 H2038 0.950 . S
C2043 C2045 1.327 . S
C2043 C2049 1.429 . S
C2044 C2036 1.574 . S
C2044 H2039 0.949 . S
C2044 C2050 1.368 1_455 S
C2045 C2029 1.349 . S
C2045 H2037 0.950 . S
C2045 C2043 1.327 . S
C2046 C2034 1.349 . S
C2046 H2040 0.950 . S
C2046 C2047 1.327 . S
C2047 H2041 0.950 . S
C2047 C2046 1.327 . S
C2047 C2051 1.429 . S
C2048 C2031 1.574 . S
C2048 H2042 0.949 . S
C2048 C2052 1.368 1_655 S
C2049 C2030 1.429 . S
C2049 C2043 1.429 . S
C2049 C2050 1.523 . S
C2050 C2031 1.368 . S
C2050 C2044 1.368 1_655 S
C2050 C2049 1.523 . S
C2051 C2035 1.429 . S
C2051 C2047 1.429 . S
C2051 C2052 1.523 . S
C2052 C2036 1.368 . S
C2052 C2048 1.368 1_455 S
C2052 C2051 1.523 . S
H2053 C2028 0.950 . S
H2054 C2030 0.950 . S
H2055 C2031 0.949 . S
H2056 C2033 0.950 . S
H2057 C2035 0.950 . S
C2058 C2059 1.349 . S
C2058 C2060 1.327 . S
C2058 H2083 0.950 . S
C2059 C2058 1.349 . S
C2059 C2075 1.349 . S
C2060 C2058 1.327 . S
C2060 C2079 1.429 . S
C2060 H2084 0.950 . S
C2061 C2078 1.574 . S
C2061 C2080 1.368 . S
C2061 H2085 0.949 . S
H2062 C2066 0.949 . S
C2063 C2064 1.349 . S
C2063 C2065 1.327 . S
C2063 H2086 0.950 . S
C2064 C2063 1.349 . S
C2064 C2076 1.349 . S
C2065 C2063 1.327 . S
C2065 C2081 1.429 . S
C2065 H2087 0.950 . S
C2066 H2062 0.949 . S
C2066 C2074 1.574 . S
C2066 C2082 1.368 . S
H2067 C2075 0.950 . S
H2068 C2073 0.950 . S
H2069 C2074 0.949 . S
H2070 C2076 0.950 . S
H2071 C2077 0.950 . S
H2072 C2078 0.949 . S
C2073 H2068 0.950 . S
C2073 C2075 1.327 . S
C2073 C2079 1.429 . S
C2074 C2066 1.574 . S
C2074 H2069 0.949 . S
C2074 C2080 1.368 . S
C2075 C2059 1.349 . S
C2075 H2067 0.950 . S
C2075 C2073 1.327 . S
C2076 C2064 1.349 . S
C2076 H2070 0.950 . S
C2076 C2077 1.327 . S
C2077 H2071 0.950 . S
C2077 C2076 1.327 . S
C2077 C2081 1.429 . S
C2078 C2061 1.574 . S
C2078 H2072 0.949 . S
C2078 C2082 1.368 . S
C2079 C2060 1.429 . S
C2079 C2073 1.429 . S
C2079 C2080 1.523 . S
C2080 C2061 1.368 . S
C2080 C2074 1.368 . S
C2080 C2079 1.523 . S
C2081 C2065 1.429 . S
C2081 C2077 1.429 . S
C2081 C2082 1.523 . S
C2082 C2066 1.368 . S
C2082 C2078 1.368 . S
C2082 C2081 1.523 . S
H2083 C2058 0.950 . S
H2084 C2060 0.950 . S
H2085 C2061 0.949 . S
H2086 C2063 0.950 . S
H2087 C2065 0.950 . S
C2088 C2089 1.349 . S
C2088 C2090 1.327 . S
C2088 H2113 0.950 . S
C2089 C2088 1.349 . S
C2089 C2105 1.349 . S
C2090 C2088 1.327 . S
C2090 C2109 1.429 . S
C2090 H2114 0.950 . S
C2091 C2108 1.574 . S
C2091 C2110 1.368 . S
C2091 H2115 0.949 . S
H2092 C2096 0.949 . S
C2093 C2094 1.349 . S
C2093 C2095 1.327 . S
C2093 H2116 0.950 . S
C2094 C2093 1.349 . S
C2094 C2106 1.349 . S
C2095 C2093 1.327 . S
C2095 C2111 1.429 . S
C2095 H2117 0.950 . S
C2096 H2092 0.949 . S
C2096 C2104 1.574 . S
C2096 C2112 1.368 . S
H2097 C2105 0.950 . S
H2098 C2103 0.950 . S
H2099 C2104 0.949 . S
H2100 C2106 0.950 . S
H2101 C2107 0.950 . S
H2102 C2108 0.949 . S
C2103 H2098 0.950 . S
C2103 C2105 1.327 . S
C2103 C2109 1.429 . S
C2104 C2096 1.574 . S
C2104 H2099 0.949 . S
C2104 C2110 1.368 . S
C2105 C2089 1.349 . S
C2105 H2097 0.950 . S
C2105 C2103 1.327 . S
C2106 C2094 1.349 . S
C2106 H2100 0.950 . S
C2106 C2107 1.327 . S
C2107 H2101 0.950 . S
C2107 C2106 1.327 . S
C2107 C2111 1.429 . S
C2108 C2091 1.574 . S
C2108 H2102 0.949 . S
C2108 C2112 1.368 . S
C2109 C2090 1.429 . S
C2109 C2103 1.429 . S
C2109 C2110 1.523 . S
C2110 C2091 1.368 . S
C2110 C2104 1.368 . S
C2110 C2109 1.523 . S
C2111 C2095 1.429 . S
C2111 C2107 1.429 . S
C2111 C2112 1.523 . S
C2112 C2096 1.368 . S
C2112 C2108 1.368 . S
C2112 C2111 1.523 . S
H2113 C2088 0.950 . S
H2114 C2090 0.950 . S
H2115 C2091 0.949 . S
H2116 C2093 0.950 . S
H2117 C2095 0.950 . S
C2118 C2119 1.349 . S
C2118 C2120 1.327 . S
C2118 H2143 0.950 . S
C2119 C2118 1.349 . S
C2119 C2135 1.349 . S
C2120 C2118 1.327 . S
C2120 C2139 1.429 . S
C2120 H2144 0.950 . S
C2121 C2138 1.574 . S
C2121 C2140 1.368 . S
C2121 H2145 0.949 . S
H2122 C2126 0.949 . S
C2123 C2124 1.349 . S
C2123 C2125 1.327 . S
C2123 H2146 0.950 . S
C2124 C2123 1.349 . S
C2124 C2136 1.349 . S
C2125 C2123 1.327 . S
C2125 C2141 1.429 . S
C2125 H2147 0.950 . S
C2126 H2122 0.949 . S
C2126 C2134 1.574 . S
C2126 C2142 1.368 . S
H2127 C2135 0.950 . S
H2128 C2133 0.950 . S
H2129 C2134 0.949 . S
H2130 C2136 0.950 . S
H2131 C2137 0.950 . S
H2132 C2138 0.949 . S
C2133 H2128 0.950 . S
C2133 C2135 1.327 . S
C2133 C2139 1.429 . S
C2134 C2126 1.574 . S
C2134 H2129 0.949 . S
C2134 C2140 1.368 . S
C2135 C2119 1.349 . S
C2135 H2127 0.950 . S
C2135 C2133 1.327 . S
C2136 C2124 1.349 . S
C2136 H2130 0.950 . S
C2136 C2137 1.327 . S
C2137 H2131 0.950 . S
C2137 C2136 1.327 . S
C2137 C2141 1.429 . S
C2138 C2121 1.574 . S
C2138 H2132 0.949 . S
C2138 C2142 1.368 . S
C2139 C2120 1.429 . S
C2139 C2133 1.429 . S
C2139 C2140 1.523 . S
C2140 C2121 1.368 . S
C2140 C2134 1.368 . S
C2140 C2139 1.523 . S
C2141 C2125 1.429 . S
C2141 C2137 1.429 . S
C2141 C2142 1.523 . S
C2142 C2126 1.368 . S
C2142 C2138 1.368 . S
C2142 C2141 1.523 . S
H2143 C2118 0.950 . S
H2144 C2120 0.950 . S
H2145 C2121 0.949 . S
H2146 C2123 0.950 . S
H2147 C2125 0.950 . S
C2148 C2149 1.349 . S
C2148 C2150 1.327 . S
C2148 H2173 0.950 . S
C2149 C2148 1.349 . S
C2149 C2165 1.349 . S
C2150 C2148 1.327 . S
C2150 C2169 1.429 . S
C2150 H2174 0.950 . S
C2151 C2168 1.574 . S
C2151 C2170 1.368 . S
C2151 H2175 0.949 . S
H2152 C2156 0.949 . S
C2153 C2154 1.349 . S
C2153 C2155 1.327 . S
C2153 H2176 0.950 . S
C2154 C2153 1.349 . S
C2154 C2166 1.349 . S
C2155 C2153 1.327 . S
C2155 C2171 1.429 . S
C2155 H2177 0.950 . S
C2156 H2152 0.949 . S
C2156 C2164 1.574 . S
C2156 C2172 1.368 . S
H2157 C2165 0.950 . S
H2158 C2163 0.950 . S
H2159 C2164 0.949 . S
H2160 C2166 0.950 . S
H2161 C2167 0.950 . S
H2162 C2168 0.949 . S
C2163 H2158 0.950 . S
C2163 C2165 1.327 . S
C2163 C2169 1.429 . S
C2164 C2156 1.574 . S
C2164 H2159 0.949 . S
C2164 C2170 1.368 . S
C2165 C2149 1.349 . S
C2165 H2157 0.950 . S
C2165 C2163 1.327 . S
C2166 C2154 1.349 . S
C2166 H2160 0.950 . S
C2166 C2167 1.327 . S
C2167 H2161 0.950 . S
C2167 C2166 1.327 . S
C2167 C2171 1.429 . S
C2168 C2151 1.574 . S
C2168 H2162 0.949 . S
C2168 C2172 1.368 . S
C2169 C2150 1.429 . S
C2169 C2163 1.429 . S
C2169 C2170 1.523 . S
C2170 C2151 1.368 . S
C2170 C2164 1.368 . S
C2170 C2169 1.523 . S
C2171 C2155 1.429 . S
C2171 C2167 1.429 . S
C2171 C2172 1.523 . S
C2172 C2156 1.368 . S
C2172 C2168 1.368 . S
C2172 C2171 1.523 . S
H2173 C2148 0.950 . S
H2174 C2150 0.950 . S
H2175 C2151 0.949 . S
H2176 C2153 0.950 . S
H2177 C2155 0.950 . S
C2178 C2179 1.349 . S
C2178 C2180 1.327 . S
C2178 H2203 0.950 . S
C2179 C2178 1.349 . S
C2179 C2195 1.349 . S
C2180 C2178 1.327 . S
C2180 C2199 1.429 . S
C2180 H2204 0.950 . S
C2181 C2198 1.574 . S
C2181 C2200 1.368 . S
C2181 H2205 0.949 . S
H2182 C2186 0.949 . S
C2183 C2184 1.349 . S
C2183 C2185 1.327 . S
C2183 H2206 0.950 . S
C2184 C2183 1.349 . S
C2184 C2196 1.349 . S
C2185 C2183 1.327 . S
C2185 C2201 1.429 . S
C2185 H2207 0.950 . S
C2186 H2182 0.949 . S
C2186 C2194 1.574 . S
C2186 C2202 1.368 . S
H2187 C2195 0.950 . S
H2188 C2193 0.950 . S
H2189 C2194 0.949 . S
H2190 C2196 0.950 . S
H2191 C2197 0.950 . S
H2192 C2198 0.949 . S
C2193 H2188 0.950 . S
C2193 C2195 1.327 . S
C2193 C2199 1.429 . S
C2194 C2186 1.574 . S
C2194 H2189 0.949 . S
C2194 C2200 1.368 . S
C2195 C2179 1.349 . S
C2195 H2187 0.950 . S
C2195 C2193 1.327 . S
C2196 C2184 1.349 . S
C2196 H2190 0.950 . S
C2196 C2197 1.327 . S
C2197 H2191 0.950 . S
C2197 C2196 1.327 . S
C2197 C2201 1.429 . S
C2198 C2181 1.574 . S
C2198 H2192 0.949 . S
C2198 C2202 1.368 . S
C2199 C2180 1.429 . S
C2199 C2193 1.429 . S
C2199 C2200 1.523 . S
C2200 C2181 1.368 . S
C2200 C2194 1.368 . S
C2200 C2199 1.523 . S
C2201 C2185 1.429 . S
C2201 C2197 1.429 . S
C2201 C2202 1.523 . S
C2202 C2186 1.368 . S
C2202 C2198 1.368 . S
C2202 C2201 1.523 . S
H2203 C2178 0.950 . S
H2204 C2180 0.950 . S
H2205 C2181 0.949 . S
H2206 C2183 0.950 . S
H2207 C2185 0.950 . S
C2208 C2209 1.349 . S
C2208 C2210 1.327 . S
C2208 H2233 0.950 . S
C2209 C2208 1.349 . S
C2209 C2225 1.349 . S
C2210 C2208 1.327 . S
C2210 C2229 1.429 . S
C2210 H2234 0.950 . S
C2211 C2228 1.574 . S
C2211 C2230 1.368 . S
C2211 H2235 0.949 . S
H2212 C2216 0.949 . S
C2213 C2214 1.349 . S
C2213 C2215 1.327 . S
C2213 H2236 0.950 . S
C2214 C2213 1.349 . S
C2214 C2226 1.349 . S
C2215 C2213 1.327 . S
C2215 C2231 1.429 . S
C2215 H2237 0.950 . S
C2216 H2212 0.949 . S
C2216 C2224 1.574 . S
C2216 C2232 1.368 . S
H2217 C2225 0.950 . S
H2218 C2223 0.950 . S
H2219 C2224 0.949 . S
H2220 C2226 0.950 . S
H2221 C2227 0.950 . S
H2222 C2228 0.949 . S
C2223 H2218 0.950 . S
C2223 C2225 1.327 . S
C2223 C2229 1.429 . S
C2224 C2216 1.574 . S
C2224 H2219 0.949 . S
C2224 C2230 1.368 . S
C2225 C2209 1.349 . S
C2225 H2217 0.950 . S
C2225 C2223 1.327 . S
C2226 C2214 1.349 . S
C2226 H2220 0.950 . S
C2226 C2227 1.327 . S
C2227 H2221 0.950 . S
C2227 C2226 1.327 . S
C2227 C2231 1.429 . S
C2228 C2211 1.574 . S
C2228 H2222 0.949 . S
C2228 C2232 1.368 . S
C2229 C2210 1.429 . S
C2229 C2223 1.429 . S
C2229 C2230 1.523 . S
C2230 C2211 1.368 . S
C2230 C2224 1.368 . S
C2230 C2229 1.523 . S
C2231 C2215 1.429 . S
C2231 C2227 1.429 . S
C2231 C2232 1.523 . S
C2232 C2216 1.368 . S
C2232 C2228 1.368 . S
C2232 C2231 1.523 . S
H2233 C2208 0.950 . S
H2234 C2210 0.950 . S
H2235 C2211 0.949 . S
H2236 C2213 0.950 . S
H2237 C2215 0.950 . S
C2238 C2239 1.349 . S
C2238 C2240 1.327 . S
C2238 H2263 0.950 . S
C2239 C2238 1.349 . S
C2239 C2255 1.349 . S
C2240 C2238 1.327 . S
C2240 C2259 1.429 . S
C2240 H2264 0.950 . S
C2241 C2258 1.574 . S
C2241 C2260 1.368 . S
C2241 H2265 0.949 . S
H2242 C2246 0.949 . S
C2243 C2244 1.349 . S
C2243 C2245 1.327 . S
C2243 H2266 0.950 . S
C2244 C2243 1.349 . S
C2244 C2256 1.349 . S
C2245 C2243 1.327 . S
C2245 C2261 1.429 . S
C2245 H2267 0.950 . S
C2246 H2242 0.949 . S
C2246 C2254 1.574 . S
C2246 C2262 1.368 . S
H2247 C2255 0.950 . S
H2248 C2253 0.950 . S
H2249 C2254 0.949 . S
H2250 C2256 0.950 . S
H2251 C2257 0.950 . S
H2252 C2258 0.949 . S
C2253 H2248 0.950 . S
C2253 C2255 1.327 . S
C2253 C2259 1.429 . S
C2254 C2246 1.574 . S
C2254 H2249 0.949 . S
C2254 C2260 1.368 . S
C2255 C2239 1.349 . S
C2255 H2247 0.950 . S
C2255 C2253 1.327 . S
C2256 C2244 1.349 . S
C2256 H2250 0.950 . S
C2256 C2257 1.327 . S
C2257 H2251 0.950 . S
C2257 C2256 1.327 . S
C2257 C2261 1.429 . S
C2258 C2241 1.574 . S
C2258 H2252 0.949 . S
C2258 C2262 1.368 . S
C2259 C2240 1.429 . S
C2259 C2253 1.429 . S
C2259 C2260 1.523 . S
C2260 C2241 1.368 . S
C2260 C2254 1.368 . S
C2260 C2259 1.523 . S
C2261 C2245 1.429 . S
C2261 C2257 1.429 . S
C2261 C2262 1.523 . S
C2262 C2246 1.368 . S
C2262 C2258 1.368 . S
C2262 C2261 1.523 . S
H2263 C2238 0.950 . S
H2264 C2240 0.950 . S
H2265 C2241 0.949 . S
H2266 C2243 0.950 . S
H2267 C2245 0.950 . S
C2268 C2269 1.349 . S
C2268 C2270 1.327 . S
C2268 H2293 0.950 . S
C2269 C2268 1.349 . S
C2269 C2285 1.349 . S
C2270 C2268 1.327 . S
C2270 C2289 1.429 . S
C2270 H2294 0.950 . S
C2271 C2288 1.574 . S
C2271 C2290 1.368 . S
C2271 H2295 0.949 . S
H2272 C2276 0.949 . S
C2273 C2274 1.349 . S
C2273 C2275 1.327 . S
C2273 H2296 0.950 . S
C2274 C2273 1.349 . S
C2274 C2286 1.349 . S
C2275 C2273 1.327 . S
C2275 C2291 1.429 . S
C2275 H2297 0.950 . S
C2276 H2272 0.949 . S
C2276 C2284 1.574 . S
C2276 C2292 1.368 . S
H2277 C2285 0.950 . S
H2278 C2283 0.950 . S
H2279 C2284 0.949 . S
H2280 C2286 0.950 . S
H2281 C2287 0.950 . S
H2282 C2288 0.949 . S
C2283 H2278 0.950 . S
C2283 C2285 1.327 . S
C2283 C2289 1.429 . S
C2284 C2276 1.574 . S
C2284 H2279 0.949 . S
C2284 C2290 1.368 . S
C2285 C2269 1.349 . S
C2285 H2277 0.950 . S
C2285 C2283 1.327 . S
C2286 C2274 1.349 . S
C2286 H2280 0.950 . S
C2286 C2287 1.327 . S
C2287 H2281 0.950 . S
C2287 C2286 1.327 . S
C2287 C2291 1.429 . S
C2288 C2271 1.574 . S
C2288 H2282 0.949 . S
C2288 C2292 1.368 . S
C2289 C2270 1.429 . S
C2289 C2283 1.429 . S
C2289 C2290 1.523 . S
C2290 C2271 1.368 . S
C2290 C2284 1.368 . S
C2290 C2289 1.523 . S
C2291 C2275 1.429 . S
C2291 C2287 1.429 . S
C2291 C2292 1.523 . S
C2292 C2276 1.368 . S
C2292 C2288 1.368 . S
C2292 C2291 1.523 . S
H2293 C2268 0.950 . S
H2294 C2270 0.950 . S
H2295 C2271 0.949 . S
H2296 C2273 0.950 . S
H2297 C2275 0.950 . S
C2298 C2299 1.349 . S
C2298 C2300 1.327 . S
C2298 H2323 0.950 . S
C2299 C2298 1.349 . S
C2299 C2315 1.349 . S
C2300 C2298 1.327 . S
C2300 C2319 1.429 . S
C2300 H2324 0.950 . S
C2301 C2318 1.574 . S
C2301 C2320 1.368 . S
C2301 H2325 0.949 . S
H2302 C2306 0.949 . S
C2303 C2304 1.349 . S
C2303 C2305 1.327 . S
C2303 H2326 0.950 . S
C2304 C2303 1.349 . S
C2304 C2316 1.349 . S
C2305 C2303 1.327 . S
C2305 C2321 1.429 . S
C2305 H2327 0.950 . S
C2306 H2302 0.949 . S
C2306 C2314 1.574 . S
C2306 C2322 1.368 . S
H2307 C2315 0.950 . S
H2308 C2313 0.950 . S
H2309 C2314 0.949 . S
H2310 C2316 0.950 . S
H2311 C2317 0.950 . S
H2312 C2318 0.949 . S
C2313 H2308 0.950 . S
C2313 C2315 1.327 . S
C2313 C2319 1.429 . S
C2314 C2306 1.574 . S
C2314 H2309 0.949 . S
C2314 C2320 1.368 . S
C2315 C2299 1.349 . S
C2315 H2307 0.950 . S
C2315 C2313 1.327 . S
C2316 C2304 1.349 . S
C2316 H2310 0.950 . S
C2316 C2317 1.327 . S
C2317 H2311 0.950 . S
C2317 C2316 1.327 . S
C2317 C2321 1.429 . S
C2318 C2301 1.574 . S
C2318 H2312 0.949 . S
C2318 C2322 1.368 . S
C2319 C2300 1.429 . S
C2319 C2313 1.429 . S
C2319 C2320 1.523 . S
C2320 C2301 1.368 . S
C2320 C2314 1.368 . S
C2320 C2319 1.523 . S
C2321 C2305 1.429 . S
C2321 C2317 1.429 . S
C2321 C2322 1.523 . S
C2322 C2306 1.368 . S
C2322 C2318 1.368 . S
C2322 C2321 1.523 . S
H2323 C2298 0.950 . S
H2324 C2300 0.950 . S
H2325 C2301 0.949 . S
H2326 C2303 0.950 . S
H2327 C2305 0.950 . S
C2328 C2329 1.349 . S
C2328 C2330 1.327 . S
C2328 H2353 0.950 . S
C2329 C2328 1.349 . S
C2329 C2345 1.349 . S
C2330 C2328 1.327 . S
C2330 C2349 1.429 . S
C2330 H2354 0.950 . S
C2331 C2348 1.574 . S
C2331 C2350 1.368 . S
C2331 H2355 0.949 . S
H2332 C2336 0.949 . S
C2333 C2334 1.349 . S
C2333 C2335 1.327 . S
C2333 H2356 0.950 . S
C2334 C2333 1.349 . S
C2334 C2346 1.349 . S
C2335 C2333 1.327 . S
C2335 C2351 1.429 . S
C2335 H2357 0.950 . S
C2336 H2332 0.949 . S
C2336 C2344 1.574 . S
C2336 C2352 1.368 . S
H2337 C2345 0.950 . S
H2338 C2343 0.950 . S
H2339 C2344 0.949 . S
H2340 C2346 0.950 . S
H2341 C2347 0.950 . S
H2342 C2348 0.949 . S
C2343 H2338 0.950 . S
C2343 C2345 1.327 . S
C2343 C2349 1.429 . S
C2344 C2336 1.574 . S
C2344 H2339 0.949 . S
C2344 C2350 1.368 . S
C2345 C2329 1.349 . S
C2345 H2337 0.950 . S
C2345 C2343 1.327 . S
C2346 C2334 1.349 . S
C2346 H2340 0.950 . S
C2346 C2347 1.327 . S
C2347 H2341 0.950 . S
C2347 C2346 1.327 . S
C2347 C2351 1.429 . S
C2348 C2331 1.574 . S
C2348 H2342 0.949 . S
C2348 C2352 1.368 . S
C2349 C2330 1.429 . S
C2349 C2343 1.429 . S
C2349 C2350 1.523 . S
C2350 C2331 1.368 . S
C2350 C2344 1.368 . S
C2350 C2349 1.523 . S
C2351 C2335 1.429 . S
C2351 C2347 1.429 . S
C2351 C2352 1.523 . S
C2352 C2336 1.368 . S
C2352 C2348 1.368 . S
C2352 C2351 1.523 . S
H2353 C2328 0.950 . S
H2354 C2330 0.950 . S
H2355 C2331 0.949 . S
H2356 C2333 0.950 . S
H2357 C2335 0.950 . S
C2358 C2359 1.349 . S
C2358 C2360 1.327 . S
C2358 H2383 0.950 . S
C2359 C2358 1.349 . S
C2359 C2375 1.349 . S
C2360 C2358 1.327 . S
C2360 C2379 1.429 . S
C2360 H2384 0.950 . S
C2361 C2378 1.574 . S
C2361 C2380 1.368 . S
C2361 H2385 0.949 . S
H2362 C2366 0.949 . S
C2363 C2364 1.349 . S
C2363 C2365 1.327 . S
C2363 H2386 0.950 . S
C2364 C2363 1.349 . S
C2364 C2376 1.349 . S
C2365 C2363 1.327 . S
C2365 C2381 1.429 . S
C2365 H2387 0.950 . S
C2366 H2362 0.949 . S
C2366 C2374 1.574 . S
C2366 C2382 1.368 . S
H2367 C2375 0.950 . S
H2368 C2373 0.950 . S
H2369 C2374 0.949 . S
H2370 C2376 0.950 . S
H2371 C2377 0.950 . S
H2372 C2378 0.949 . S
C2373 H2368 0.950 . S
C2373 C2375 1.327 . S
C2373 C2379 1.429 . S
C2374 C2366 1.574 . S
C2374 H2369 0.949 . S
C2374 C2380 1.368 . S
C2375 C2359 1.349 . S
C2375 H2367 0.950 . S
C2375 C2373 1.327 . S
C2376 C2364 1.349 . S
C2376 H2370 0.950 . S
C2376 C2377 1.327 . S
C2377 H2371 0.950 . S
C2377 C2376 1.327 . S
C2377 C2381 1.429 . S
C2378 C2361 1.574 . S
C2378 H2372 0.949 . S
C2378 C2382 1.368 . S
C2379 C2360 1.429 . S
C2379 C2373 1.429 . S
C2379 C2380 1.523 . S
C2380 C2361 1.368 . S
C2380 C2374 1.368 . S
C2380 C2379 1.523 . S
C2381 C2365 1.429 . S
C2381 C2377 1.429 . S
C2381 C2382 1.523 . S
C2382 C2366 1.368 . S
C2382 C2378 1.368 . S
C2382 C2381 1.523 . S
H2383 C2358 0.950 . S
H2384 C2360 0.950 . S
H2385 C2361 0.949 . S
H2386 C2363 0.950 . S
H2387 C2365 0.950 . S
C2388 C2389 1.349 . S
C2388 C2390 1.327 . S
C2388 H2413 0.950 . S
C2389 C2388 1.349 . S
C2389 C2405 1.349 . S
C2390 C2388 1.327 . S
C2390 C2409 1.429 . S
C2390 H2414 0.950 . S
C2391 C2408 1.574 . S
C2391 C2410 1.368 . S
C2391 H2415 0.949 . S
H2392 C2396 0.949 . S
C2393 C2394 1.349 . S
C2393 C2395 1.327 . S
C2393 H2416 0.950 . S
C2394 C2393 1.349 . S
C2394 C2406 1.349 . S
C2395 C2393 1.327 . S
C2395 C2411 1.429 . S
C2395 H2417 0.950 . S
C2396 H2392 0.949 . S
C2396 C2404 1.574 . S
C2396 C2412 1.368 . S
H2397 C2405 0.950 . S
H2398 C2403 0.950 . S
H2399 C2404 0.949 . S
H2400 C2406 0.950 . S
H2401 C2407 0.950 . S
H2402 C2408 0.949 . S
C2403 H2398 0.950 . S
C2403 C2405 1.327 . S
C2403 C2409 1.429 . S
C2404 C2396 1.574 . S
C2404 H2399 0.949 . S
C2404 C2410 1.368 . S
C2405 C2389 1.349 . S
C2405 H2397 0.950 . S
C2405 C2403 1.327 . S
C2406 C2394 1.349 . S
C2406 H2400 0.950 . S
C2406 C2407 1.327 . S
C2407 H2401 0.950 . S
C2407 C2406 1.327 . S
C2407 C2411 1.429 . S
C2408 C2391 1.574 . S
C2408 H2402 0.949 . S
C2408 C2412 1.368 . S
C2409 C2390 1.429 . S
C2409 C2403 1.429 . S
C2409 C2410 1.523 . S
C2410 C2391 1.368 . S
C2410 C2404 1.368 . S
C2410 C2409 1.523 . S
C2411 C2395 1.429 . S
C2411 C2407 1.429 . S
C2411 C2412 1.523 . S
C2412 C2396 1.368 . S
C2412 C2408 1.368 . S
C2412 C2411 1.523 . S
H2413 C2388 0.950 . S
H2414 C2390 0.950 . S
H2415 C2391 0.949 . S
H2416 C2393 0.950 . S
H2417 C2395 0.950 . S
C2418 C2419 1.349 . S
C2418 C2420 1.327 . S
C2418 H2443 0.950 . S
C2419 C2418 1.349 . S
C2419 C2435 1.349 . S
C2420 C2418 1.327 . S
C2420 C2439 1.429 . S
C2420 H2444 0.950 . S
C2421 C2438 1.574 . S
C2421 C2440 1.368 . S
C2421 H2445 0.949 . S
H2422 C2426 0.949 . S
C2423 C2424 1.349 . S
C2423 C2425 1.327 . S
C2423 H2446 0.950 . S
C2424 C2423 1.349 . S
C2424 C2436 1.349 . S
C2425 C2423 1.327 . S
C2425 C2441 1.429 . S
C2425 H2447 0.950 . S
C2426 H2422 0.949 . S
C2426 C2434 1.574 . S
C2426 C2442 1.368 . S
H2427 C2435 0.950 . S
H2428 C2433 0.950 . S
H2429 C2434 0.949 . S
H2430 C2436 0.950 . S
H2431 C2437 0.950 . S
H2432 C2438 0.949 . S
C2433 H2428 0.950 . S
C2433 C2435 1.327 . S
C2433 C2439 1.429 . S
C2434 C2426 1.574 . S
C2434 H2429 0.949 . S
C2434 C2440 1.368 . S
C2435 C2419 1.349 . S
C2435 H2427 0.950 . S
C2435 C2433 1.327 . S
C2436 C2424 1.349 . S
C2436 H2430 0.950 . S
C2436 C2437 1.327 . S
C2437 H2431 0.950 . S
C2437 C2436 1.327 . S
C2437 C2441 1.429 . S
C2438 C2421 1.574 . S
C2438 H2432 0.949 . S
C2438 C2442 1.368 . S
C2439 C2420 1.429 . S
C2439 C2433 1.429 . S
C2439 C2440 1.523 . S
C2440 C2421 1.368 . S
C2440 C2434 1.368 . S
C2440 C2439 1.523 . S
C2441 C2425 1.429 . S
C2441 C2437 1.429 . S
C2441 C2442 1.523 . S
C2442 C2426 1.368 . S
C2442 C2438 1.368 . S
C2442 C2441 1.523 . S
H2443 C2418 0.950 . S
H2444 C2420 0.950 . S
H2445 C2421 0.949 . S
H2446 C2423 0.950 . S
H2447 C2425 0.950 . S
C2448 C2449 1.349 . S
C2448 C2450 1.327 . S
C2448 H2473 0.950 . S
C2449 C2448 1.349 . S
C2449 C2465 1.349 . S
C2450 C2448 1.327 . S
C2450 C2469 1.429 . S
C2450 H2474 0.950 . S
C2451 C2468 1.574 1_456 S
C2451 C2470 1.368 . S
C2451 H2475 0.949 . S
H2452 C2456 0.949 . S
C2453 C2454 1.349 . S
C2453 C2455 1.327 . S
C2453 H2476 0.950 . S
C2454 C2453 1.349 . S
C2454 C2466 1.349 . S
C2455 C2453 1.327 . S
C2455 C2471 1.429 . S
C2455 H2477 0.950 . S
C2456 H2452 0.949 . S
C2456 C2464 1.574 1_654 S
C2456 C2472 1.368 . S
H2457 C2465 0.950 . S
H2458 C2463 0.950 . S
H2459 C2464 0.949 . S
H2460 C2466 0.950 . S
H2461 C2467 0.950 . S
H2462 C2468 0.949 . S
C2463 H2458 0.950 . S
C2463 C2465 1.327 . S
C2463 C2469 1.429 . S
C2464 C2456 1.574 1_456 S
C2464 H2459 0.949 . S
C2464 C2470 1.368 . S
C2465 C2449 1.349 . S
C2465 H2457 0.950 . S
C2465 C2463 1.327 . S
C2466 C2454 1.349 . S
C2466 H2460 0.950 . S
C2466 C2467 1.327 . S
C2467 H2461 0.950 . S
C2467 C2466 1.327 . S
C2467 C2471 1.429 . S
C2468 C2451 1.574 1_654 S
C2468 H2462 0.949 . S
C2468 C2472 1.368 . S
C2469 C2450 1.429 . S
C2469 C2463 1.429 . S
C2469 C2470 1.523 . S
C2470 C2451 1.368 . S
C2470 C2464 1.368 . S
C2470 C2469 1.523 . S
C2471 C2455 1.429 . S
C2471 C2467 1.429 . S
C2471 C2472 1.523 . S
C2472 C2456 1.368 . S
C2472 C2468 1.368 . S
C2472 C2471 1.523 . S
H2473 C2448 0.950 . S
H2474 C2450 0.950 . S
H2475 C2451 0.949 . S
H2476 C2453 0.950 . S
H2477 C2455 0.950 . S
C2478 C2479 1.349 . S
C2478 C2480 1.327 . S
C2478 H2503 0.950 . S
C2479 C2478 1.349 . S
C2479 C2495 1.349 . S
C2480 C2478 1.327 . S
C2480 C2499 1.429 . S
C2480 H2504 0.950 . S
C2481 C2498 1.574 1_554 S
C2481 C2500 1.368 . S
C2481 H2505 0.949 . S
H2482 C2486 0.949 . S
C2483 C2484 1.349 . S
C2483 C2485 1.327 . S
C2483 H2506 0.950 . S
C2484 C2483 1.349 . S
C2484 C2496 1.349 . S
C2485 C2483 1.327 . S
C2485 C2501 1.429 . S
C2485 H2507 0.950 . S
C2486 H2482 0.949 . S
C2486 C2494 1.574 1_556 S
C2486 C2502 1.368 . S
H2487 C2495 0.950 . S
H2488 C2493 0.950 . S
H2489 C2494 0.949 . S
H2490 C2496 0.950 . S
H2491 C2497 0.950 . S
H2492 C2498 0.949 . S
C2493 H2488 0.950 . S
C2493 C2495 1.327 . S
C2493 C2499 1.429 . S
C2494 C2486 1.574 1_554 S
C2494 H2489 0.949 . S
C2494 C2500 1.368 . S
C2495 C2479 1.349 . S
C2495 H2487 0.950 . S
C2495 C2493 1.327 . S
C2496 C2484 1.349 . S
C2496 H2490 0.950 . S
C2496 C2497 1.327 . S
C2497 H2491 0.950 . S
C2497 C2496 1.327 . S
C2497 C2501 1.429 . S
C2498 C2481 1.574 1_556 S
C2498 H2492 0.949 . S
C2498 C2502 1.368 . S
C2499 C2480 1.429 . S
C2499 C2493 1.429 . S
C2499 C2500 1.523 . S
C2500 C2481 1.368 . S
C2500 C2494 1.368 . S
C2500 C2499 1.523 . S
C2501 C2485 1.429 . S
C2501 C2497 1.429 . S
C2501 C2502 1.523 . S
C2502 C2486 1.368 . S
C2502 C2498 1.368 . S
C2502 C2501 1.523 . S
H2503 C2478 0.950 . S
H2504 C2480 0.950 . S
H2505 C2481 0.949 . S
H2506 C2483 0.950 . S
H2507 C2485 0.950 . S
C2508 C2509 1.349 . S
C2508 C2510 1.327 . S
C2508 H2533 0.950 . S
C2509 C2508 1.349 . S
C2509 C2525 1.349 . S
C2510 C2508 1.327 . S
C2510 C2529 1.429 . S
C2510 H2534 0.950 . S
C2511 C2528 1.574 1_554 S
C2511 C2530 1.368 1_565 S
C2511 H2535 0.949 . S
H2512 C2516 0.949 . S
C2513 C2514 1.349 . S
C2513 C2515 1.327 . S
C2513 H2536 0.950 . S
C2514 C2513 1.349 . S
C2514 C2526 1.349 . S
C2515 C2513 1.327 . S
C2515 C2531 1.429 . S
C2515 H2537 0.950 . S
C2516 H2512 0.949 . S
C2516 C2524 1.574 1_556 S
C2516 C2532 1.368 1_545 S
H2517 C2525 0.950 . S
H2518 C2523 0.950 . S
H2519 C2524 0.949 . S
H2520 C2526 0.950 . S
H2521 C2527 0.950 . S
H2522 C2528 0.949 . S
C2523 H2518 0.950 . S
C2523 C2525 1.327 . S
C2523 C2529 1.429 . S
C2524 C2516 1.574 1_554 S
C2524 H2519 0.949 . S
C2524 C2530 1.368 . S
C2525 C2509 1.349 . S
C2525 H2517 0.950 . S
C2525 C2523 1.327 . S
C2526 C2514 1.349 . S
C2526 H2520 0.950 . S
C2526 C2527 1.327 . S
C2527 H2521 0.950 . S
C2527 C2526 1.327 . S
C2527 C2531 1.429 . S
C2528 C2511 1.574 1_556 S
C2528 H2522 0.949 . S
C2528 C2532 1.368 . S
C2529 C2510 1.429 . S
C2529 C2523 1.429 . S
C2529 C2530 1.523 . S
C2530 C2511 1.368 1_545 S
C2530 C2524 1.368 . S
C2530 C2529 1.523 . S
C2531 C2515 1.429 . S
C2531 C2527 1.429 . S
C2531 C2532 1.523 . S
C2532 C2516 1.368 1_565 S
C2532 C2528 1.368 . S
C2532 C2531 1.523 . S
H2533 C2508 0.950 . S
H2534 C2510 0.950 . S
H2535 C2511 0.949 . S
H2536 C2513 0.950 . S
H2537 C2515 0.950 . S
C2538 C2539 1.349 . S
C2538 C2540 1.327 . S
C2538 H2563 0.950 . S
C2539 C2538 1.349 . S
C2539 C2555 1.349 . S
C2540 C2538 1.327 . S
C2540 C2559 1.429 . S
C2540 H2564 0.950 . S
C2541 C2558 1.574 . S
C2541 C2560 1.368 1_554 S
C2541 H2565 0.949 . S
H2542 C2546 0.949 . S
C2543 C2544 1.349 . S
C2543 C2545 1.327 . S
C2543 H2566 0.950 . S
C2544 C2543 1.349 . S
C2544 C2556 1.349 . S
C2545 C2543 1.327 . S
C2545 C2561 1.429 . S
C2545 H2567 0.950 . S
C2546 H2542 0.949 . S
C2546 C2554 1.574 . S
C2546 C2562 1.368 1_556 S
H2547 C2555 0.950 . S
H2548 C2553 0.950 . S
H2549 C2554 0.949 . S
H2550 C2556 0.950 . S
H2551 C2557 0.950 . S
H2552 C2558 0.949 . S
C2553 H2548 0.950 . S
C2553 C2555 1.327 . S
C2553 C2559 1.429 . S
C2554 C2546 1.574 . S
C2554 H2549 0.949 . S
C2554 C2560 1.368 1_545 S
C2555 C2539 1.349 . S
C2555 H2547 0.950 . S
C2555 C2553 1.327 . S
C2556 C2544 1.349 . S
C2556 H2550 0.950 . S
C2556 C2557 1.327 . S
C2557 H2551 0.950 . S
C2557 C2556 1.327 . S
C2557 C2561 1.429 . S
C2558 C2541 1.574 . S
C2558 H2552 0.949 . S
C2558 C2562 1.368 1_565 S
C2559 C2540 1.429 . S
C2559 C2553 1.429 . S
C2559 C2560 1.523 . S
C2560 C2541 1.368 1_556 S
C2560 C2554 1.368 1_565 S
C2560 C2559 1.523 . S
C2561 C2545 1.429 . S
C2561 C2557 1.429 . S
C2561 C2562 1.523 . S
C2562 C2546 1.368 1_554 S
C2562 C2558 1.368 1_545 S
C2562 C2561 1.523 . S
H2563 C2538 0.950 . S
H2564 C2540 0.950 . S
H2565 C2541 0.949 . S
H2566 C2543 0.950 . S
H2567 C2545 0.950 . S
C2568 C2569 1.349 . S
C2568 C2570 1.327 . S
C2568 H2593 0.950 . S
C2569 C2568 1.349 . S
C2569 C2585 1.349 . S
C2570 C2568 1.327 . S
C2570 C2589 1.429 . S
C2570 H2594 0.950 . S
C2571 C2588 1.574 1_456 S
C2571 C2590 1.368 . S
C2571 H2595 0.949 . S
H2572 C2576 0.949 . S
C2573 C2574 1.349 . S
C2573 C2575 1.327 . S
C2573 H2596 0.950 . S
C2574 C2573 1.349 . S
C2574 C2586 1.349 . S
C2575 C2573 1.327 . S
C2575 C2591 1.429 . S
C2575 H2597 0.950 . S
C2576 H2572 0.949 . S
C2576 C2584 1.574 1_654 S
C2576 C2592 1.368 . S
H2577 C2585 0.950 . S
H2578 C2583 0.950 . S
H2579 C2584 0.949 . S
H2580 C2586 0.950 . S
H2581 C2587 0.950 . S
H2582 C2588 0.949 . S
C2583 H2578 0.950 . S
C2583 C2585 1.327 . S
C2583 C2589 1.429 . S
C2584 C2576 1.574 1_456 S
C2584 H2579 0.949 . S
C2584 C2590 1.368 . S
C2585 C2569 1.349 . S
C2585 H2577 0.950 . S
C2585 C2583 1.327 . S
C2586 C2574 1.349 . S
C2586 H2580 0.950 . S
C2586 C2587 1.327 . S
C2587 H2581 0.950 . S
C2587 C2586 1.327 . S
C2587 C2591 1.429 . S
C2588 C2571 1.574 1_654 S
C2588 H2582 0.949 . S
C2588 C2592 1.368 . S
C2589 C2570 1.429 . S
C2589 C2583 1.429 . S
C2589 C2590 1.523 . S
C2590 C2571 1.368 . S
C2590 C2584 1.368 . S
C2590 C2589 1.523 . S
C2591 C2575 1.429 . S
C2591 C2587 1.429 . S
C2591 C2592 1.523 . S
C2592 C2576 1.368 . S
C2592 C2588 1.368 . S
C2592 C2591 1.523 . S
H2593 C2568 0.950 . S
H2594 C2570 0.950 . S
H2595 C2571 0.949 . S
H2596 C2573 0.950 . S
H2597 C2575 0.950 . S
C2598 C2599 1.349 . S
C2598 C2600 1.327 . S
C2598 H2623 0.950 . S
C2599 C2598 1.349 . S
C2599 C2615 1.349 . S
C2600 C2598 1.327 . S
C2600 C2619 1.429 . S
C2600 H2624 0.950 . S
C2601 C2618 1.574 1_554 S
C2601 C2620 1.368 . S
C2601 H2625 0.949 . S
H2602 C2606 0.949 . S
C2603 C2604 1.349 . S
C2603 C2605 1.327 . S
C2603 H2626 0.950 . S
C2604 C2603 1.349 . S
C2604 C2616 1.349 . S
C2605 C2603 1.327 . S
C2605 C2621 1.429 . S
C2605 H2627 0.950 . S
C2606 H2602 0.949 . S
C2606 C2614 1.574 1_556 S
C2606 C2622 1.368 . S
H2607 C2615 0.950 . S
H2608 C2613 0.950 . S
H2609 C2614 0.949 . S
H2610 C2616 0.950 . S
H2611 C2617 0.950 . S
H2612 C2618 0.949 . S
C2613 H2608 0.950 . S
C2613 C2615 1.327 . S
C2613 C2619 1.429 . S
C2614 C2606 1.574 1_554 S
C2614 H2609 0.949 . S
C2614 C2620 1.368 . S
C2615 C2599 1.349 . S
C2615 H2607 0.950 . S
C2615 C2613 1.327 . S
C2616 C2604 1.349 . S
C2616 H2610 0.950 . S
C2616 C2617 1.327 . S
C2617 H2611 0.950 . S
C2617 C2616 1.327 . S
C2617 C2621 1.429 . S
C2618 C2601 1.574 1_556 S
C2618 H2612 0.949 . S
C2618 C2622 1.368 . S
C2619 C2600 1.429 . S
C2619 C2613 1.429 . S
C2619 C2620 1.523 . S
C2620 C2601 1.368 . S
C2620 C2614 1.368 . S
C2620 C2619 1.523 . S
C2621 C2605 1.429 . S
C2621 C2617 1.429 . S
C2621 C2622 1.523 . S
C2622 C2606 1.368 . S
C2622 C2618 1.368 . S
C2622 C2621 1.523 . S
H2623 C2598 0.950 . S
H2624 C2600 0.950 . S
H2625 C2601 0.949 . S
H2626 C2603 0.950 . S
H2627 C2605 0.950 . S
C469 C5 1.037 . S
C474 C148 1.037 . S
C499 C18 1.038 . S
C504 C122 1.038 . S
C529 C135 1.037 . S
C534 C31 1.037 . S
C559 C44 1.037 . S
C564 C96 1.037 . S
C589 C109 1.037 . S
C594 C57 1.037 . S
C619 C70 1.037 . S
C624 C83 1.037 . S
C649 C304 1.037 . S
C654 C161 1.037 . S
C679 C174 1.037 . S
C684 C278 1.037 . S
C709 C187 1.037 . S
C714 C291 1.037 . S
C739 C252 1.037 . S
C744 C200 1.037 . S
C769 C213 1.037 . S
C774 C265 1.037 . S
C799 C239 1.037 . S
C804 C226 1.037 . S
C829 C317 1.037 . S
C834 C460 1.037 . S
C859 C434 1.037 . S
C864 C330 1.037 . S
C889 C447 1.037 . S
C894 C343 1.037 . S
C919 C408 1.037 . S
C924 C356 1.037 . S
C949 C421 1.037 . S
C954 C369 1.037 . S
C979 C395 1.037 . S
C984 C382 1.037 . S
C1009 C0 1.072 . S
C1014 C52 1.072 . S
C1039 C65 1.072 . S
C1044 C13 1.072 . S
C1069 C26 1.072 . S
C1074 C39 1.072 . S
C1099 C78 1.072 . S
C1104 C130 1.072 . S
C1129 C91 1.072 . S
C1134 C143 1.072 . S
C1159 C104 1.072 . S
C1164 C117 1.072 . S
C1189 C208 1.072 . S
C1194 C156 1.072 . S
C1219 C221 1.072 . S
C1224 C169 1.072 . S
C1249 C182 1.072 . S
C1254 C195 1.072 . S
C1279 C286 1.071 . S
C1284 C234 1.071 . S
C1309 C299 1.072 . S
C1314 C247 1.072 . S
C1339 C260 1.072 . S
C1344 C273 1.072 . S
C1369 C364 1.071 . S
C1374 C312 1.071 . S
C1399 C325 1.072 . S
C1404 C377 1.072 . S
C1429 C338 1.072 . S
C1434 C351 1.072 . S
C1459 C442 1.072 . S
C1464 C390 1.072 . S
C1489 C403 1.072 . S
C1494 C455 1.072 . S
C1519 C429 1.072 . S
C1524 C416 1.072 . S
C1549 C385 1.161 . S
C1554 C8 1.161 1_556 S
C1579 C21 1.161 1_556 S
C1584 C359 1.161 . S
C1609 C34 1.161 1_556 S
C1614 C372 1.161 . S
C1639 C47 1.161 1_554 S
C1644 C177 1.161 . S
C1669 C190 1.161 . S
C1674 C60 1.161 1_554 S
C1699 C164 1.161 . S
C1704 C73 1.161 1_554 S
C1729 C86 1.161 1_554 S
C1734 C307 1.161 . S
C1759 C99 1.161 1_554 S
C1764 C281 1.161 . S
C1789 C112 1.161 1_554 S
C1794 C294 1.161 . S
C1819 C411 1.161 . S
C1824 C125 1.161 1_556 S
C1849 C424 1.161 . S
C1854 C138 1.161 1_556 S
C1879 C151 1.161 1_556 S
C1884 C398 1.161 . S
C1909 C333 1.161 . S
C1914 C203 1.161 . S
C1939 C216 1.161 . S
C1944 C346 1.161 . S
C1969 C320 1.161 . S
C1974 C229 1.161 . S
C1999 C463 1.161 . S
C2004 C242 1.161 . S
C2029 C255 1.161 . S
C2034 C437 1.161 . S
C2059 C268 1.161 . S
C2064 C450 1.161 . S
C2089 C10 1.700 . S
C2094 C387 1.700 . S
C2119 C361 1.700 . S
C2124 C23 1.700 . S
C2149 C36 1.700 . S
C2154 C374 1.700 . S
C2179 C179 1.700 . S
C2184 C49 1.700 . S
C2209 C62 1.700 . S
C2214 C192 1.700 . S
C2239 C75 1.700 . S
C2244 C166 1.700 . S
C2269 C309 1.700 . S
C2274 C88 1.700 . S
C2299 C101 1.700 . S
C2304 C283 1.700 . S
C2329 C114 1.700 . S
C2334 C296 1.700 . S
C2359 C127 1.700 . S
C2364 C413 1.700 . S
C2389 C426 1.700 . S
C2394 C140 1.700 . S
C2419 C153 1.700 . S
C2424 C400 1.700 . S
C2449 C335 1.700 . S
C2454 C205 1.700 . S
C2479 C218 1.700 . S
C2484 C348 1.700 . S
C2509 C231 1.700 . S
C2514 C322 1.700 . S
C2539 C465 1.700 . S
C2544 C244 1.700 . S
C2569 C439 1.700 . S
C2574 C257 1.700 . S
C2599 C270 1.700 . S
C2604 C452 1.700 . S
