# Generated by pormake.
# Topology snk, (6)-cn, num edge types: 1
# Building blocks:
#     Node 0, Type 0, BuildingBlock: BETDEL_clean_sbu_0, # of connection points: 6
#     Node 1, Type 0, BuildingBlock: BETDEL_clean_sbu_0, # of connection points: 6
#     Node 2, Type 0, BuildingBlock: BETDEL_clean_sbu_0, # of connection points: 6
#     Node 3, Type 0, BuildingBlock: BETDEL_clean_sbu_0, # of connection points: 6
#     Node 4, Type 0, BuildingBlock: BETDEL_clean_sbu_0, # of connection points: 6
#     Node 5, Type 0, BuildingBlock: BETDEL_clean_sbu_0, # of connection points: 6
#     Node 6, Type 0, BuildingBlock: BETDEL_clean_sbu_0, # of connection points: 6
#     Node 7, Type 0, BuildingBlock: BETDEL_clean_sbu_0, # of connection points: 6
#     Edge 8, Type (0, 0), BuildingBlock: CIFDUS_clean_linker_0, # of connection points: 2
#     Edge 9, Type (0, 0), BuildingBlock: CIFDUS_clean_linker_0, # of connection points: 2
#     Edge 10, Type (0, 0), BuildingBlock: CIFDUS_clean_linker_0, # of connection points: 2
#     Edge 11, Type (0, 0), BuildingBlock: CIFDUS_clean_linker_0, # of connection points: 2
#     Edge 12, Type (0, 0), BuildingBlock: CIFDUS_clean_linker_0, # of connection points: 2
#     Edge 13, Type (0, 0), BuildingBlock: CIFDUS_clean_linker_0, # of connection points: 2
#     Edge 14, Type (0, 0), BuildingBlock: CIFDUS_clean_linker_0, # of connection points: 2
#     Edge 15, Type (0, 0), BuildingBlock: CIFDUS_clean_linker_0, # of connection points: 2
#     Edge 16, Type (0, 0), BuildingBlock: CIFDUS_clean_linker_0, # of connection points: 2
#     Edge 17, Type (0, 0), BuildingBlock: CIFDUS_clean_linker_0, # of connection points: 2
#     Edge 18, Type (0, 0), BuildingBlock: CIFDUS_clean_linker_0, # of connection points: 2
#     Edge 19, Type (0, 0), BuildingBlock: CIFDUS_clean_linker_0, # of connection points: 2
#     Edge 20, Type (0, 0), BuildingBlock: CIFDUS_clean_linker_0, # of connection points: 2
#     Edge 21, Type (0, 0), BuildingBlock: CIFDUS_clean_linker_0, # of connection points: 2
#     Edge 22, Type (0, 0), BuildingBlock: CIFDUS_clean_linker_0, # of connection points: 2
#     Edge 23, Type (0, 0), BuildingBlock: CIFDUS_clean_linker_0, # of connection points: 2
#     Edge 24, Type (0, 0), BuildingBlock: CIFDUS_clean_linker_0, # of connection points: 2
#     Edge 25, Type (0, 0), BuildingBlock: CIFDUS_clean_linker_0, # of connection points: 2
#     Edge 26, Type (0, 0), BuildingBlock: CIFDUS_clean_linker_0, # of connection points: 2
#     Edge 27, Type (0, 0), BuildingBlock: CIFDUS_clean_linker_0, # of connection points: 2
#     Edge 28, Type (0, 0), BuildingBlock: CIFDUS_clean_linker_0, # of connection points: 2
#     Edge 29, Type (0, 0), BuildingBlock: CIFDUS_clean_linker_0, # of connection points: 2
#     Edge 30, Type (0, 0), BuildingBlock: CIFDUS_clean_linker_0, # of connection points: 2
#     Edge 31, Type (0, 0), BuildingBlock: CIFDUS_clean_linker_0, # of connection points: 2
# Relax obj value: 0.060
# Max RMSD: 0.104
# Mean RMSD: 0.095
data_MOF--net-snk--node1-BETDEL_clean_sbu_0--edge1-CIFDUS_clean_linker_0
_symmetry_space_group_name_H-M    P1
_symmetry_Int_Tables_number       1
_symmetry_cell_setting            triclinic
loop_
_symmetry_equiv_pos_as_xyz
'x, y, z'
_cell_length_a     34.987432
_cell_length_b     34.804299
_cell_length_c     16.149879
_cell_angle_alpha  85.067272
_cell_angle_beta   95.027374
_cell_angle_gamma 90.408191
loop_
_atom_site_label
_atom_site_type_symbol
_atom_site_fract_x
_atom_site_fract_y
_atom_site_fract_z
_atom_type_partial_charge
Dy0 Dy 0.00408 0.9864 0.41624 0.0
C1 C 0.02811 0.01097 0.76249 0.0
C2 C 0.99511 0.98417 0.24632 0.0
Dy3 Dy 0.0167 0.0092 0.59281 0.0
O4 O 0.99569 0.95428 0.30028 0.0
O5 O 0.99791 0.01522 0.28531 0.0
O6 O 0.04102 0.93432 0.44942 0.0
O7 O 0.054 0.98409 0.51056 0.0
C8 C 0.0621 0.94898 0.5085 0.0
C9 C 0.95792 0.04619 0.50254 0.0
O10 O 0.06107 0.04675 0.53405 0.0
O11 O 0.0301 0.04527 0.40195 0.0
O12 O 0.02443 0.04098 0.70897 0.0
O13 O 0.02714 0.97999 0.72307 0.0
O14 O 0.97754 0.06018 0.56463 0.0
O15 O 0.96706 0.01155 0.49854 0.0
O16 O 0.95738 0.95142 0.47304 0.0
O17 O 0.9879 0.95141 0.606 0.0
C18 C 0.05488 0.06116 0.45536 0.0
C19 C 0.96245 0.93676 0.55179 0.0
Dy20 Dy 0.23618 0.74192 0.88705 0.0
C21 C 0.26002 0.76675 0.54119 0.0
C22 C 0.23322 0.73387 0.05682 0.0
Dy23 Dy 0.25888 0.75582 0.71099 0.0
O24 O 0.20367 0.73616 1.00224 0.0
O25 O 0.26432 0.73448 0.01857 0.0
O26 O 0.18074 0.77274 0.84805 0.0
O27 O 0.23008 0.79118 0.79132 0.0
C28 C 0.19447 0.79604 0.79143 0.0
C29 C 0.30116 0.70149 0.80412 0.0
O30 O 0.29199 0.80401 0.76729 0.0
O31 O 0.29107 0.77526 0.90165 0.0
O32 O 0.29001 0.76303 0.59441 0.0
O33 O 0.22932 0.76606 0.58094 0.0
O34 O 0.31341 0.72264 0.74207 0.0
O35 O 0.26573 0.7068 0.80714 0.0
O36 O 0.20629 0.69121 0.83345 0.0
O37 O 0.20568 0.7194 0.69829 0.0
C38 C 0.30558 0.80048 0.84683 0.0
C39 C 0.19275 0.69335 0.75384 0.0
Dy40 Dy 0.50701 0.99967 0.08976 0.0
C41 C 0.48569 0.02606 0.73429 0.0
C42 C 0.51452 0.998 0.25971 0.0
Dy43 Dy 0.49364 0.02495 0.90409 0.0
O44 O 0.48368 0.98929 0.21478 0.0
O45 O 0.54193 0.00655 0.21192 0.0
O46 O 0.48282 0.94114 0.06723 0.0
O47 O 0.46186 0.9898 0.99164 0.0
C48 C 0.46049 0.95355 1.00196 0.0
C49 C 0.53781 0.07321 0.98987 0.0
O50 O 0.44503 0.05704 0.94734 0.0
O51 O 0.47081 0.05249 0.08517 0.0
O52 O 0.51632 0.03589 0.77857 0.0
O53 O 0.45867 0.0167 0.78265 0.0
O54 O 0.51546 0.08391 0.92343 0.0
O55 O 0.53836 0.03677 1.00265 0.0
O56 O 0.55548 0.96727 0.04867 0.0
O57 O 0.53092 0.97241 0.91006 0.0
C58 C 0.44542 0.06678 0.02508 0.0
C59 C 0.55567 0.95769 0.97114 0.0
Dy60 Dy 0.2368 0.26485 0.16394 0.0
C61 C 0.26875 0.24575 0.52136 0.0
C62 C 0.23447 0.27307 0.99392 0.0
Dy63 Dy 0.26638 0.2544 0.35139 0.0
O64 O 0.22504 0.2421 0.03812 0.0
O65 O 0.24378 0.30016 0.04252 0.0
O66 O 0.18064 0.23746 0.19368 0.0
O67 O 0.23151 0.22087 0.26647 0.0
C68 C 0.19558 0.21722 0.26006 0.0
C69 C 0.30909 0.30017 0.25592 0.0
O70 O 0.29952 0.20672 0.30709 0.0
O71 O 0.29016 0.22951 0.16707 0.0
O72 O 0.27891 0.27656 0.47758 0.0
O73 O 0.25863 0.21903 0.47235 0.0
O74 O 0.32313 0.28 0.32324 0.0
O75 O 0.27293 0.29789 0.24852 0.0
O76 O 0.20369 0.3126 0.20644 0.0
O77 O 0.21337 0.29098 0.34707 0.0
C78 C 0.30704 0.20598 0.22804 0.0
C79 C 0.19633 0.31403 0.28524 0.0
Dy80 Dy 0.74226 0.24384 0.36962 0.0
C81 C 0.76677 0.26303 0.02411 0.0
C82 C 0.73998 0.23633 0.5388 0.0
Dy83 Dy 0.76568 0.25273 0.19325 0.0
O84 O 0.71042 0.23376 0.48516 0.0
O85 O 0.77065 0.24193 0.50002 0.0
O86 O 0.6904 0.2813 0.3343 0.0
O87 O 0.73928 0.29143 0.2701 0.0
C88 C 0.7045 0.30005 0.27136 0.0
C89 C 0.8044 0.19727 0.29012 0.0
O90 O 0.801 0.29996 0.24841 0.0
O91 O 0.79995 0.27195 0.38321 0.0
O92 O 0.7969 0.26193 0.07712 0.0
O93 O 0.73606 0.25955 0.06355 0.0
O94 O 0.81756 0.21522 0.22506 0.0
O95 O 0.76956 0.20545 0.29298 0.0
O96 O 0.70926 0.19438 0.31811 0.0
O97 O 0.71001 0.2203 0.18164 0.0
C98 C 0.81509 0.29625 0.32764 0.0
C99 C 0.69578 0.19589 0.23856 0.0
Dy100 Dy 0.7353 0.7642 0.66187 0.0
C101 C 0.76725 0.74556 0.01925 0.0
C102 C 0.7331 0.77257 0.49193 0.0
Dy103 Dy 0.76475 0.75394 0.84925 0.0
O104 O 0.72346 0.74162 0.53593 0.0
O105 O 0.74257 0.79956 0.54069 0.0
O106 O 0.67882 0.73746 0.69135 0.0
O107 O 0.72948 0.72052 0.76472 0.0
C108 C 0.69349 0.71729 0.75809 0.0
C109 C 0.80757 0.79956 0.75353 0.0
O110 O 0.79768 0.70596 0.80567 0.0
O111 O 0.78838 0.72827 0.66539 0.0
O112 O 0.77691 0.77648 0.97518 0.0
O113 O 0.75755 0.71863 0.97052 0.0
O114 O 0.82157 0.77935 0.82082 0.0
O115 O 0.77143 0.79734 0.7462 0.0
O116 O 0.70235 0.81215 0.70417 0.0
O117 O 0.71178 0.79053 0.84482 0.0
C118 C 0.80519 0.70487 0.72672 0.0
C119 C 0.69488 0.81362 0.7829 0.0
Dy120 Dy 0.50401 0.48865 0.91849 0.0
C121 C 0.52152 0.51264 0.26565 0.0
C122 C 0.4968 0.48711 0.75022 0.0
Dy123 Dy 0.51336 0.51197 0.09725 0.0
O124 O 0.52879 0.48389 0.79711 0.0
O125 O 0.46821 0.4905 0.79537 0.0
O126 O 0.53776 0.43436 0.95605 0.0
O127 O 0.55003 0.48402 0.01939 0.0
C128 C 0.55717 0.4486 0.01845 0.0
C129 C 0.46012 0.55207 0.99883 0.0
O130 O 0.55467 0.55398 0.04133 0.0
O131 O 0.52837 0.54837 0.90578 0.0
O132 O 0.48944 0.51673 0.21937 0.0
O133 O 0.54982 0.50892 0.2198 0.0
O134 O 0.47926 0.56586 0.06217 0.0
O135 O 0.46717 0.51665 0.99693 0.0
O136 O 0.46062 0.44852 0.9716 0.0
O137 O 0.48629 0.45321 0.10791 0.0
C138 C 0.55074 0.56609 0.96093 0.0
C139 C 0.46343 0.43646 0.05191 0.0
Dy140 Dy 0.00676 0.49803 0.59302 0.0
C141 C 0.9858 0.5255 0.23705 0.0
C142 C 0.01455 0.49628 0.76294 0.0
Dy143 Dy 0.99386 0.52422 0.40685 0.0
O144 O 0.98389 0.48669 0.71839 0.0
O145 O 0.04161 0.50568 0.71478 0.0
O146 O 0.98345 0.43931 0.56861 0.0
O147 O 0.96243 0.48813 0.49345 0.0
C148 C 0.96152 0.45184 0.50276 0.0
C149 C 0.03718 0.57218 0.49525 0.0
O150 O 0.94479 0.55566 0.4498 0.0
O151 O 0.96936 0.55012 0.58859 0.0
O152 O 0.0163 0.53582 0.28117 0.0
O153 O 0.959 0.5156 0.28558 0.0
O154 O 0.01528 0.5832 0.4283 0.0
O155 O 0.03786 0.53573 0.50682 0.0
O156 O 0.05575 0.4664 0.55175 0.0
O157 O 0.03199 0.4723 0.41251 0.0
C158 C 0.94444 0.56477 0.52787 0.0
C159 C 0.05648 0.45738 0.47389 0.0
H160 H 0.12992 0.08093 0.49093 0.0
H161 H 0.02527 0.11832 0.34639 0.0
H162 H 0.05905 0.17176 0.27733 0.0
H163 H 0.11906 0.20497 0.24977 0.0
H164 H 0.225 0.16533 0.38544 0.0
H165 H 0.19028 0.11616 0.46651 0.0
C166 C 0.11457 0.10127 0.44541 0.0
C167 C 0.07528 0.09581 0.42361 0.0
C168 C 0.13448 0.13138 0.40381 0.0
C169 C 0.05564 0.12193 0.36374 0.0
C170 C 0.0749 0.15244 0.32411 0.0
C171 C 0.13447 0.18573 0.29751 0.0
C172 C 0.17442 0.18888 0.31197 0.0
C173 C 0.11446 0.15694 0.34221 0.0
C174 C 0.19411 0.16376 0.37389 0.0
C175 C 0.17429 0.13547 0.41995 0.0
H176 H 0.06797 0.87207 0.531 0.0
H177 H 0.12141 0.97632 0.61013 0.0
H178 H 0.17002 0.93793 0.69988 0.0
H179 H 0.19603 0.87394 0.7586 0.0
H180 H 0.1376 0.77087 0.68753 0.0
H181 H 0.0925 0.80935 0.59052 0.0
C182 C 0.09039 0.88642 0.56759 0.0
C183 C 0.09143 0.92685 0.56374 0.0
C184 C 0.11743 0.86426 0.61986 0.0
C185 C 0.12019 0.94514 0.61226 0.0
C186 C 0.14796 0.92321 0.66327 0.0
C187 C 0.17368 0.86017 0.72074 0.0
C188 C 0.17026 0.81979 0.72843 0.0
C189 C 0.14681 0.88269 0.66774 0.0
C190 C 0.14081 0.80194 0.68127 0.0
C191 C 0.11498 0.82391 0.62633 0.0
H192 H 0.32439 0.87465 0.79396 0.0
H193 H 0.36031 0.77837 0.96912 0.0
H194 H 0.41279 0.81639 0.02883 0.0
H195 H 0.44679 0.87769 0.03654 0.0
H196 H 0.4089 0.97605 0.86996 0.0
H197 H 0.35936 0.93675 0.8013 0.0
C198 C 0.34401 0.86204 0.84458 0.0
C199 C 0.33845 0.82385 0.87722 0.0
C200 C 0.37375 0.88449 0.88039 0.0
C201 C 0.3638 0.80786 0.94339 0.0
C202 C 0.39388 0.82953 0.97757 0.0
C203 C 0.42783 0.89046 0.98486 0.0
C204 C 0.43163 0.92959 0.95796 0.0
C205 C 0.39882 0.868 0.94743 0.0
C206 C 0.40675 0.94584 0.89125 0.0
C207 C 0.3783 0.92341 0.85224 0.0
H208 H 0.4322 0.08261 0.18112 0.0
H209 H 0.39468 0.11249 0.92162 0.0
H210 H 0.34857 0.15834 0.96264 0.0
H211 H 0.31963 0.18972 0.07163 0.0
H212 H 0.35672 0.15912 0.33112 0.0
H213 H 0.40276 0.11332 0.28998 0.0
C214 C 0.41409 0.09918 0.13315 0.0
C215 C 0.41705 0.09429 0.04818 0.0
C216 C 0.38773 0.12521 0.15715 0.0
C217 C 0.39299 0.11572 0.9873 0.0
C218 C 0.36671 0.14194 1.01076 0.0
C219 C 0.33782 0.17319 0.11951 0.0
C220 C 0.33487 0.178 0.20454 0.0
C221 C 0.36396 0.14691 0.09546 0.0
C222 C 0.35842 0.15599 0.26539 0.0
C223 C 0.38474 0.12986 0.24188 0.0
H224 H 0.88579 0.92468 0.51579 0.0
H225 H 0.98648 0.87754 0.6614 0.0
H226 H 0.94746 0.82898 0.73245 0.0
H227 H 0.88453 0.80345 0.76192 0.0
H228 H 0.78263 0.85241 0.62481 0.0
H229 H 0.82204 0.89646 0.54126 0.0
C230 C 0.89908 0.90321 0.56185 0.0
C231 C 0.93883 0.90451 0.5835 0.0
C232 C 0.8762 0.87603 0.60459 0.0
C233 C 0.95584 0.87704 0.64412 0.0
C234 C 0.93358 0.84937 0.6849 0.0
C235 C 0.87095 0.82361 0.71339 0.0
C236 C 0.83083 0.82478 0.69947 0.0
C237 C 0.89368 0.84922 0.66718 0.0
C238 C 0.81356 0.85088 0.63624 0.0
C239 C 0.83607 0.87615 0.58874 0.0
H240 H 0.91042 0.09724 0.55651 0.0
H241 H 0.93318 0.04014 0.33967 0.0
H242 H 0.88565 0.08114 0.25369 0.0
H243 H 0.84191 0.13736 0.2392 0.0
H244 H 0.81507 0.19002 0.45867 0.0
H245 H 0.85954 0.14635 0.54571 0.0
C246 C 0.90453 0.09351 0.4906 0.0
C247 C 0.92557 0.06642 0.45363 0.0
C248 C 0.87655 0.11637 0.44255 0.0
C249 C 0.91742 0.06115 0.36883 0.0
C250 C 0.89037 0.0846 0.31986 0.0
C251 C 0.84539 0.13863 0.30633 0.0
C252 C 0.82562 0.16678 0.34305 0.0
C253 C 0.87041 0.1129 0.35578 0.0
C254 C 0.82989 0.16831 0.42972 0.0
C255 C 0.85549 0.14355 0.47919 0.0
H256 H 0.64686 0.20698 0.10107 0.0
H257 H 0.67704 0.12442 0.31078 0.0
H258 H 0.63068 0.07832 0.25267 0.0
H259 H 0.58348 0.06081 0.13718 0.0
H260 H 0.55269 0.14626 0.93283 0.0
H261 H 0.59778 0.19165 0.99327 0.0
C262 C 0.64329 0.17893 0.13437 0.0
C263 C 0.66559 0.16895 0.20959 0.0
C264 C 0.6167 0.15295 0.10099 0.0
C265 C 0.66014 0.13276 0.25267 0.0
C266 C 0.63382 0.10635 0.2192 0.0
C267 C 0.58659 0.08942 0.10646 0.0
C268 C 0.56493 0.10002 0.03039 0.0
C269 C 0.61226 0.11596 0.14265 0.0
C270 C 0.56905 0.13728 0.99128 0.0
C271 C 0.59484 0.16335 0.02578 0.0
H272 H 0.68063 0.83163 0.93757 0.0
H273 H 0.64623 0.85967 0.67593 0.0
H274 H 0.60015 0.90657 0.71189 0.0
H275 H 0.56991 0.9394 0.81696 0.0
H276 H 0.60486 0.91222 0.07858 0.0
H277 H 0.65074 0.86498 0.04279 0.0
C278 C 0.66301 0.84786 0.88819 0.0
C279 C 0.66682 0.84201 0.80404 0.0
C280 C 0.63679 0.8749 0.90924 0.0
C281 C 0.64393 0.86358 0.74112 0.0
C282 C 0.61755 0.89039 0.76163 0.0
C283 C 0.58744 0.92313 0.86643 0.0
C284 C 0.58382 0.92928 0.95047 0.0
C285 C 0.61378 0.89624 0.84544 0.0
C286 C 0.60706 0.90811 0.01345 0.0
C287 C 0.63325 0.88106 0.99302 0.0
H288 H 0.62553 0.58548 0.99656 0.0
H289 H 0.52135 0.62301 0.85067 0.0
H290 H 0.55593 0.67523 0.77889 0.0
H291 H 0.61663 0.70678 0.74898 0.0
H292 H 0.72201 0.66609 0.88553 0.0
H293 H 0.68644 0.61898 0.96987 0.0
C294 C 0.61044 0.60569 0.95036 0.0
C295 C 0.57106 0.6007 0.92902 0.0
C296 C 0.63083 0.63484 0.90702 0.0
C297 C 0.55175 0.62646 0.86794 0.0
C298 C 0.57149 0.65619 0.82668 0.0
C299 C 0.63173 0.68777 0.79763 0.0
C300 C 0.6718 0.69006 0.81147 0.0
C301 C 0.61119 0.66007 0.84418 0.0
C302 C 0.69107 0.66522 0.87451 0.0
C303 C 0.67076 0.63811 0.92244 0.0
H304 H 0.64438 0.342 0.30678 0.0
H305 H 0.71875 0.32663 0.11322 0.0
H306 H 0.67962 0.37176 0.01665 0.0
H307 H 0.62172 0.41293 0.98579 0.0
H308 H 0.55219 0.43362 0.18474 0.0
H309 H 0.592 0.38949 0.28137 0.0
C310 C 0.65214 0.3488 0.2436 0.0
C311 C 0.68375 0.33041 0.21617 0.0
C312 C 0.63036 0.37575 0.18975 0.0
C313 C 0.6941 0.33999 0.13497 0.0
C314 C 0.67179 0.36582 0.07994 0.0
C315 C 0.61578 0.40804 0.05067 0.0
C316 C 0.58411 0.42614 0.07843 0.0
C317 C 0.63949 0.38341 0.10632 0.0
C318 C 0.57654 0.42004 0.16234 0.0
C319 C 0.59919 0.39468 0.21744 0.0
H320 H 0.95278 0.37457 0.52576 0.0
H321 H 0.90922 0.47496 0.37267 0.0
H322 H 0.86261 0.43501 0.29715 0.0
H323 H 0.83105 0.3717 0.2816 0.0
H324 H 0.87217 0.27286 0.44339 0.0
H325 H 0.92286 0.31172 0.508 0.0
C326 C 0.93324 0.38764 0.47549 0.0
C327 C 0.93453 0.42757 0.45454 0.0
C328 C 0.90593 0.36467 0.43397 0.0
C329 C 0.909 0.44418 0.38943 0.0
C330 C 0.88222 0.42137 0.34647 0.0
C331 C 0.85157 0.3587 0.32999 0.0
C332 C 0.84801 0.31956 0.35771 0.0
C333 C 0.88004 0.38159 0.36893 0.0
C334 C 0.87434 0.30304 0.42132 0.0
C335 C 0.90328 0.32522 0.45841 0.0
H336 H 0.81859 0.68837 0.57078 0.0
H337 H 0.85414 0.65775 0.831 0.0
H338 H 0.90019 0.6116 0.79135 0.0
H339 H 0.93021 0.5806 0.68351 0.0
H340 H 0.89428 0.6106 0.42327 0.0
H341 H 0.84806 0.65668 0.46283 0.0
C342 C 0.83644 0.67175 0.61913 0.0
C343 C 0.83303 0.67668 0.70394 0.0
C344 C 0.86262 0.64525 0.59593 0.0
C345 C 0.85617 0.65456 0.76541 0.0
C346 C 0.88251 0.62821 0.74275 0.0
C347 C 0.9124 0.59722 0.63508 0.0
C348 C 0.91586 0.59228 0.55032 0.0
C349 C 0.88596 0.62344 0.65825 0.0
C350 C 0.89221 0.61383 0.48883 0.0
C351 C 0.86585 0.6402 0.51145 0.0
H352 H 0.3861 0.30371 0.26397 0.0
H353 H 0.28425 0.35221 0.12572 0.0
H354 H 0.32372 0.39538 0.04048 0.0
H355 H 0.38741 0.42337 0.01447 0.0
H356 H 0.48806 0.37756 0.16212 0.0
H357 H 0.44911 0.32901 0.23387 0.0
C358 C 0.37255 0.32357 0.21481 0.0
C359 C 0.33241 0.32486 0.20102 0.0
C360 C 0.39533 0.34878 0.16776 0.0
C361 C 0.31517 0.35057 0.137 0.0
C362 C 0.33773 0.37534 0.08855 0.0
C363 C 0.40071 0.4021 0.06099 0.0
C364 C 0.44041 0.4037 0.08299 0.0
C365 C 0.37786 0.37518 0.10434 0.0
C366 C 0.45748 0.37666 0.1444 0.0
C367 C 0.43524 0.34908 0.18563 0.0
H368 H 0.39852 0.58417 0.05402 0.0
H369 H 0.4535 0.56798 0.83112 0.0
H370 H 0.4076 0.61226 0.74933 0.0
H371 H 0.35539 0.65963 0.74466 0.0
H372 H 0.29681 0.67198 0.9647 0.0
H373 H 0.34029 0.62475 0.04494 0.0
C374 C 0.39983 0.58994 0.98722 0.0
C375 C 0.4291 0.57326 0.94808 0.0
C376 C 0.37301 0.61481 0.9408 0.0
C377 C 0.43086 0.58047 0.86185 0.0
C378 C 0.40485 0.60592 0.81543 0.0
C379 C 0.35195 0.6516 0.81 0.0
C380 C 0.32358 0.66956 0.84959 0.0
C381 C 0.37636 0.62387 0.85469 0.0
C382 C 0.31874 0.6586 0.93356 0.0
C383 C 0.3436 0.63172 0.97925 0.0
H384 H 0.14096 0.7067 0.62228 0.0
H385 H 0.17854 0.61892 0.8164 0.0
H386 H 0.13328 0.57286 0.75412 0.0
H387 H 0.08528 0.55714 0.63842 0.0
H388 H 0.04688 0.64771 0.45068 0.0
H389 H 0.09052 0.69298 0.51607 0.0
C390 C 0.13918 0.67753 0.65139 0.0
C391 C 0.16329 0.66606 0.72323 0.0
C392 C 0.11316 0.65164 0.61581 0.0
C393 C 0.16022 0.62838 0.76095 0.0
C394 C 0.13452 0.60204 0.72508 0.0
C395 C 0.0863 0.58684 0.61257 0.0
C396 C 0.06305 0.59893 0.53946 0.0
C397 C 0.11119 0.61322 0.65162 0.0
C398 C 0.0646 0.63755 0.50656 0.0
C399 C 0.08954 0.66356 0.54392 0.0
H400 H 0.18203 0.3319 0.44004 0.0
H401 H 0.14763 0.36009 0.17844 0.0
H402 H 0.10148 0.40688 0.21452 0.0
H403 H 0.07109 0.43949 0.31964 0.0
H404 H 0.1059 0.4121 0.58127 0.0
H405 H 0.15201 0.3651 0.54537 0.0
C406 C 0.16439 0.34814 0.3907 0.0
C407 C 0.16823 0.34235 0.30653 0.0
C408 C 0.13812 0.37512 0.41183 0.0
C409 C 0.14532 0.36394 0.24365 0.0
C410 C 0.1189 0.39069 0.26424 0.0
C411 C 0.08866 0.42325 0.3691 0.0
C412 C 0.08491 0.42926 0.45317 0.0
C413 C 0.11509 0.39646 0.34806 0.0
C414 C 0.10819 0.4081 0.51611 0.0
C415 C 0.13451 0.38118 0.49563 0.0
H416 H 0.0166 0.95051 0.87526 0.0
H417 H 0.03298 0.07377 0.85194 0.0
H418 H 0.02247 0.07661 0.99904 0.0
H419 H 0.0076 0.04418 0.13376 0.0
H420 H 0.99082 0.92099 0.15734 0.0
H421 H 1.00181 0.918 1.01039 0.0
C422 C 0.01831 0.9779 0.90276 0.0
C423 C 0.02584 0.01185 0.85318 0.0
C424 C 0.01153 0.97938 0.98699 0.0
C425 C 0.02748 0.04722 0.88913 0.0
C426 C 0.02124 0.04889 0.97305 0.0
C427 C 0.006 0.01674 0.10644 0.0
C428 C 0.99816 0.98288 0.15597 0.0
C429 C 0.01288 0.01521 0.02235 0.0
C430 C 0.99655 0.94747 0.12017 0.0
C431 C 0.00306 0.94573 0.03635 0.0
H432 H 0.19961 0.7561 0.42774 0.0
H433 H 0.32247 0.77079 0.45221 0.0
H434 H 0.32526 0.76016 0.30521 0.0
H435 H 0.29296 0.74557 0.17019 0.0
H436 H 0.17013 0.73096 0.14483 0.0
H437 H 0.16714 0.74199 0.29184 0.0
C438 C 0.2269 0.75742 0.40049 0.0
C439 C 0.26077 0.76446 0.45044 0.0
C440 C 0.22834 0.75066 0.31616 0.0
C441 C 0.29599 0.76564 0.41478 0.0
C442 C 0.29764 0.75933 0.33089 0.0
C443 C 0.2656 0.74446 0.19713 0.0
C444 C 0.23185 0.73717 0.1471 0.0
C445 C 0.26406 0.75144 0.2812 0.0
C446 C 0.19653 0.73626 0.18239 0.0
C447 C 0.19478 0.74278 0.26626 0.0
H448 H 0.54421 0.03404 0.63567 0.0
H449 H 0.42388 0.00577 0.63248 0.0
H450 H 0.42263 0.99322 0.48534 0.0
H451 H 0.45598 0.98988 0.35835 0.0
H452 H 0.57634 0.01803 0.3617 0.0
H453 H 0.57759 0.03054 0.50883 0.0
C454 C 0.51765 0.02541 0.60251 0.0
C455 C 0.48409 0.02106 0.64437 0.0
C456 C 0.51733 0.0178 0.51854 0.0
C457 C 0.44998 0.00952 0.60118 0.0
C458 C 0.44932 1.00218 0.51731 0.0
C459 C 0.48254 0.99847 0.39155 0.0
C460 C 0.51611 1.00282 0.34971 0.0
C461 C 0.48287 0.00602 0.47557 0.0
C462 C 0.55025 0.01426 0.39298 0.0
C463 C 0.5509 0.02159 0.47684 0.0
H464 H 0.22803 0.21444 0.89382 0.0
H465 H 0.25497 0.33555 0.89422 0.0
H466 H 0.26971 0.33735 0.74856 0.0
H467 H 0.27543 0.30427 0.62163 0.0
H468 H 0.24832 0.18321 0.62103 0.0
H469 H 0.23374 0.18137 0.76684 0.0
C470 C 0.23678 0.24129 0.86168 0.0
C471 C 0.24014 0.27491 0.90424 0.0
C472 C 0.24569 0.24194 0.77846 0.0
C473 C 0.2519 0.3094 0.86238 0.0
C474 C 0.26054 0.31038 0.77934 0.0
C475 C 0.26668 0.27742 0.65375 0.0
C476 C 0.26321 0.24384 0.61111 0.0
C477 C 0.25779 0.27677 0.73698 0.0
C478 C 0.25144 0.20934 0.65294 0.0
C479 C 0.2429 0.20834 0.73605 0.0
H480 H 0.70695 0.25004 0.91231 0.0
H481 H 0.82869 0.27239 0.93399 0.0
H482 H 0.83127 0.26473 0.78546 0.0
H483 H 0.7991 0.2506 0.65045 0.0
H484 H 0.67747 0.22775 0.62827 0.0
H485 H 0.67465 0.23607 0.77667 0.0
C486 C 0.73394 0.2536 0.88418 0.0
C487 C 0.76757 0.26195 0.93347 0.0
C488 C 0.73527 0.24852 0.79925 0.0
C489 C 0.80244 0.26613 0.89687 0.0
C490 C 0.80395 0.26156 0.8122 0.0
C491 C 0.77204 0.24718 0.67832 0.0
C492 C 0.73857 0.23839 0.62905 0.0
C493 C 0.77062 0.25242 0.76306 0.0
C494 C 0.70363 0.23429 0.66542 0.0
C495 C 0.70198 0.23925 0.74999 0.0
H496 H 0.72709 0.71393 0.39194 0.0
H497 H 0.75314 0.83523 0.39218 0.0
H498 H 0.76775 0.83717 0.24639 0.0
H499 H 0.77357 0.80416 0.11938 0.0
H500 H 0.74746 0.68287 0.11915 0.0
H501 H 0.73302 0.6809 0.26504 0.0
C502 C 0.73562 0.74085 0.35975 0.0
C503 C 0.73875 0.77447 0.40226 0.0
C504 C 0.74448 0.74158 0.27649 0.0
C505 C 0.75026 0.80906 0.36035 0.0
C506 C 0.75881 0.81012 0.27725 0.0
C507 C 0.76506 0.77724 0.1516 0.0
C508 C 0.76183 0.74363 0.10904 0.0
C509 C 0.75627 0.7765 0.23491 0.0
C510 C 0.75039 0.70903 0.151 0.0
C511 C 0.74193 0.70795 0.23416 0.0
H512 H 0.55569 0.48449 0.65442 0.0
H513 H 0.43286 0.49871 0.64228 0.0
H514 H 0.43011 0.50908 0.48999 0.0
H515 H 0.46283 0.51475 0.36163 0.0
H516 H 0.58562 0.50036 0.37332 0.0
H517 H 0.58842 0.48979 0.52571 0.0
C518 C 0.52831 0.48964 0.6183 0.0
C519 C 0.49448 0.49075 0.65883 0.0
C520 C 0.52709 0.49589 0.5314 0.0
C521 C 0.45918 0.49756 0.61189 0.0
C522 C 0.45766 0.50365 0.52514 0.0
C523 C 0.49023 0.50951 0.39764 0.0
C524 C 0.52403 0.50851 0.35702 0.0
C525 C 0.49146 0.5031 0.48447 0.0
C526 C 0.55932 0.50148 0.40382 0.0
C527 C 0.56087 0.49528 0.49061 0.0
H528 H 0.95631 0.48736 0.86233 0.0
H529 H 0.07609 0.5178 0.86386 0.0
H530 H 0.07729 0.53096 1.01058 0.0
H531 H 0.04403 0.53435 0.13767 0.0
H532 H 0.92428 0.50386 0.1362 0.0
H533 H 0.92307 0.49068 0.98947 0.0
C534 C 0.98275 0.49657 0.89507 0.0
C535 C 0.01615 0.50136 0.85283 0.0
C536 C 0.98304 0.50452 0.97885 0.0
C537 C 0.05012 0.51365 0.89548 0.0
C538 C 0.05074 0.52136 0.9791 0.0
C539 C 0.01761 0.52512 0.10495 0.0
C540 C 0.9842 0.52031 0.1472 0.0
C541 C 0.01732 0.51713 0.02119 0.0
C542 C 0.95025 0.50799 0.10459 0.0
C543 C 0.94962 0.50027 0.02096 0.0
loop_
_geom_bond_atom_site_label_1
_geom_bond_atom_site_label_2
_geom_bond_distance
_geom_bond_site_symmetry_2
_ccdc_geom_bond_type
Dy0 O4 2.398 1_655 S
Dy0 O5 2.491 1_565 S
Dy0 O6 2.403 1_655 S
Dy0 O7 2.664 1_655 S
Dy0 O11 2.326 1_665 S
Dy0 O15 2.310 1_565 S
Dy0 O16 2.351 . S
C1 O12 1.188 . S
C1 O13 1.353 1_645 S
C2 O4 1.186 1_545 S
C2 O5 1.355 1_455 S
Dy3 O7 2.310 1_545 S
Dy3 O10 2.351 . S
Dy3 O12 2.398 1_455 S
Dy3 O13 2.491 1_545 S
Dy3 O14 2.403 1_455 S
Dy3 O15 2.664 1_455 S
Dy3 O17 2.326 1_445 S
O4 Dy0 2.398 1_455 S
O4 C2 1.186 1_565 S
O5 Dy0 2.491 1_545 S
O5 C2 1.355 1_655 S
O6 Dy0 2.403 1_455 S
O6 C8 1.254 . S
O7 Dy0 2.664 1_455 S
O7 Dy3 2.310 1_565 S
O7 C8 1.268 . S
C8 O6 1.254 . S
C8 O7 1.268 . S
C9 O14 1.254 . S
C9 O15 1.268 . S
O10 Dy3 2.351 . S
O10 C18 1.249 . S
O11 Dy0 2.326 1_445 S
O11 C18 1.267 . S
O12 C1 1.188 . S
O12 Dy3 2.398 1_655 S
O13 C1 1.353 1_465 S
O13 Dy3 2.491 1_565 S
O14 Dy3 2.403 1_655 S
O14 C9 1.254 . S
O15 Dy0 2.310 1_545 S
O15 Dy3 2.664 1_655 S
O15 C9 1.268 . S
O16 Dy0 2.351 . S
O16 C19 1.249 . S
O17 Dy3 2.326 1_665 S
O17 C19 1.267 . S
C18 O10 1.249 . S
C18 O11 1.267 . S
C19 O16 1.249 . S
C19 O17 1.267 . S
Dy20 O24 2.398 . S
Dy20 O25 2.491 . S
Dy20 O26 2.403 . S
Dy20 O27 2.664 . S
Dy20 O31 2.326 . S
Dy20 O35 2.310 . S
Dy20 O36 2.351 . S
C21 O32 1.185 . S
C21 O33 1.355 . S
C22 O24 1.185 1_554 S
C22 O25 1.355 1_554 S
Dy23 O27 2.310 . S
Dy23 O30 2.351 . S
Dy23 O32 2.398 . S
Dy23 O33 2.491 . S
Dy23 O34 2.403 . S
Dy23 O35 2.664 . S
Dy23 O37 2.326 . S
O24 Dy20 2.398 . S
O24 C22 1.185 1_556 S
O25 Dy20 2.491 . S
O25 C22 1.355 1_556 S
O26 Dy20 2.403 . S
O26 C28 1.254 . S
O27 Dy20 2.664 . S
O27 Dy23 2.310 . S
O27 C28 1.268 . S
C28 O26 1.254 . S
C28 O27 1.268 . S
C29 O34 1.254 . S
C29 O35 1.268 . S
O30 Dy23 2.351 . S
O30 C38 1.249 . S
O31 Dy20 2.326 . S
O31 C38 1.267 . S
O32 C21 1.185 . S
O32 Dy23 2.398 . S
O33 C21 1.355 . S
O33 Dy23 2.491 . S
O34 Dy23 2.403 . S
O34 C29 1.254 . S
O35 Dy20 2.310 . S
O35 Dy23 2.664 . S
O35 C29 1.268 . S
O36 Dy20 2.351 . S
O36 C39 1.249 . S
O37 Dy23 2.326 . S
O37 C39 1.267 . S
C38 O30 1.249 . S
C38 O31 1.267 . S
C39 O36 1.249 . S
C39 O37 1.267 . S
Dy40 O44 2.398 . S
Dy40 O45 2.491 1_565 S
Dy40 O46 2.403 . S
Dy40 O47 2.664 1_554 S
Dy40 O51 2.326 1_565 S
Dy40 O55 2.310 1_565 S
Dy40 O56 2.351 . S
C41 O52 1.185 . S
C41 O53 1.355 1_545 S
C42 O44 1.185 . S
C42 O45 1.355 1_565 S
Dy43 O47 2.310 1_545 S
Dy43 O50 2.351 . S
Dy43 O52 2.398 . S
Dy43 O53 2.491 1_545 S
Dy43 O54 2.403 . S
Dy43 O55 2.664 1_556 S
Dy43 O57 2.326 1_545 S
O44 Dy40 2.398 . S
O44 C42 1.185 . S
O45 Dy40 2.491 1_545 S
O45 C42 1.355 1_545 S
O46 Dy40 2.403 . S
O46 C48 1.254 1_554 S
O47 Dy40 2.664 1_556 S
O47 Dy43 2.310 1_565 S
O47 C48 1.268 . S
C48 O46 1.254 1_556 S
C48 O47 1.268 . S
C49 O54 1.254 1_554 S
C49 O55 1.268 . S
O50 Dy43 2.351 . S
O50 C58 1.249 1_556 S
O51 Dy40 2.326 1_545 S
O51 C58 1.267 . S
O52 C41 1.185 . S
O52 Dy43 2.398 . S
O53 C41 1.355 1_565 S
O53 Dy43 2.491 1_565 S
O54 Dy43 2.403 . S
O54 C49 1.254 1_556 S
O55 Dy40 2.310 1_545 S
O55 Dy43 2.664 1_554 S
O55 C49 1.268 . S
O56 Dy40 2.351 . S
O56 C59 1.249 1_554 S
O57 Dy43 2.326 1_565 S
O57 C59 1.267 . S
C58 O50 1.249 1_554 S
C58 O51 1.267 . S
C59 O56 1.249 1_556 S
C59 O57 1.267 . S
Dy60 O64 2.398 . S
Dy60 O65 2.491 . S
Dy60 O66 2.403 . S
Dy60 O67 2.664 . S
Dy60 O71 2.326 . S
Dy60 O75 2.310 . S
Dy60 O76 2.351 . S
C61 O72 1.185 . S
C61 O73 1.355 . S
C62 O64 1.185 1_556 S
C62 O65 1.355 1_556 S
Dy63 O67 2.310 . S
Dy63 O70 2.351 . S
Dy63 O72 2.398 . S
Dy63 O73 2.491 . S
Dy63 O74 2.403 . S
Dy63 O75 2.664 . S
Dy63 O77 2.326 . S
O64 Dy60 2.398 . S
O64 C62 1.185 1_554 S
O65 Dy60 2.491 . S
O65 C62 1.355 1_554 S
O66 Dy60 2.403 . S
O66 C68 1.254 . S
O67 Dy60 2.664 . S
O67 Dy63 2.310 . S
O67 C68 1.268 . S
C68 O66 1.254 . S
C68 O67 1.268 . S
C69 O74 1.254 . S
C69 O75 1.268 . S
O70 Dy63 2.351 . S
O70 C78 1.249 . S
O71 Dy60 2.326 . S
O71 C78 1.267 . S
O72 C61 1.185 . S
O72 Dy63 2.398 . S
O73 C61 1.355 . S
O73 Dy63 2.491 . S
O74 Dy63 2.403 . S
O74 C69 1.254 . S
O75 Dy60 2.310 . S
O75 Dy63 2.664 . S
O75 C69 1.268 . S
O76 Dy60 2.351 . S
O76 C79 1.249 . S
O77 Dy63 2.326 . S
O77 C79 1.267 . S
C78 O70 1.249 . S
C78 O71 1.267 . S
C79 O76 1.249 . S
C79 O77 1.267 . S
Dy80 O84 2.398 . S
Dy80 O85 2.491 . S
Dy80 O86 2.403 . S
Dy80 O87 2.664 . S
Dy80 O91 2.326 . S
Dy80 O95 2.310 . S
Dy80 O96 2.351 . S
C81 O92 1.185 1_556 S
C81 O93 1.355 1_556 S
C82 O84 1.185 . S
C82 O85 1.355 . S
Dy83 O87 2.310 . S
Dy83 O90 2.351 . S
Dy83 O92 2.398 . S
Dy83 O93 2.491 . S
Dy83 O94 2.403 . S
Dy83 O95 2.664 . S
Dy83 O97 2.326 . S
O84 Dy80 2.398 . S
O84 C82 1.185 . S
O85 Dy80 2.491 . S
O85 C82 1.355 . S
O86 Dy80 2.403 . S
O86 C88 1.254 . S
O87 Dy80 2.664 . S
O87 Dy83 2.310 . S
O87 C88 1.268 . S
C88 O86 1.254 . S
C88 O87 1.268 . S
C89 O94 1.254 . S
C89 O95 1.268 . S
O90 Dy83 2.351 . S
O90 C98 1.249 . S
O91 Dy80 2.326 . S
O91 C98 1.267 . S
O92 C81 1.185 1_554 S
O92 Dy83 2.398 . S
O93 C81 1.355 1_554 S
O93 Dy83 2.491 . S
O94 Dy83 2.403 . S
O94 C89 1.254 . S
O95 Dy80 2.310 . S
O95 Dy83 2.664 . S
O95 C89 1.268 . S
O96 Dy80 2.351 . S
O96 C99 1.249 . S
O97 Dy83 2.326 . S
O97 C99 1.267 . S
C98 O90 1.249 . S
C98 O91 1.267 . S
C99 O96 1.249 . S
C99 O97 1.267 . S
Dy100 O104 2.398 . S
Dy100 O105 2.491 . S
Dy100 O106 2.403 . S
Dy100 O107 2.664 . S
Dy100 O111 2.326 . S
Dy100 O115 2.310 . S
Dy100 O116 2.351 . S
C101 O112 1.185 1_554 S
C101 O113 1.355 1_554 S
C102 O104 1.185 . S
C102 O105 1.355 . S
Dy103 O107 2.310 . S
Dy103 O110 2.351 . S
Dy103 O112 2.398 . S
Dy103 O113 2.491 . S
Dy103 O114 2.403 . S
Dy103 O115 2.664 . S
Dy103 O117 2.326 . S
O104 Dy100 2.398 . S
O104 C102 1.185 . S
O105 Dy100 2.491 . S
O105 C102 1.355 . S
O106 Dy100 2.403 . S
O106 C108 1.254 . S
O107 Dy100 2.664 . S
O107 Dy103 2.310 . S
O107 C108 1.268 . S
C108 O106 1.254 . S
C108 O107 1.268 . S
C109 O114 1.254 . S
C109 O115 1.268 . S
O110 Dy103 2.351 . S
O110 C118 1.249 . S
O111 Dy100 2.326 . S
O111 C118 1.267 . S
O112 C101 1.185 1_556 S
O112 Dy103 2.398 . S
O113 C101 1.355 1_556 S
O113 Dy103 2.491 . S
O114 Dy103 2.403 . S
O114 C109 1.254 . S
O115 Dy100 2.310 . S
O115 Dy103 2.664 . S
O115 C109 1.268 . S
O116 Dy100 2.351 . S
O116 C119 1.249 . S
O117 Dy103 2.326 . S
O117 C119 1.267 . S
C118 O110 1.249 . S
C118 O111 1.267 . S
C119 O116 1.249 . S
C119 O117 1.267 . S
Dy120 O124 2.398 . S
Dy120 O125 2.491 . S
Dy120 O126 2.403 . S
Dy120 O127 2.664 1_556 S
Dy120 O131 2.326 . S
Dy120 O135 2.310 . S
Dy120 O136 2.351 . S
C121 O132 1.185 . S
C121 O133 1.355 . S
C122 O124 1.185 . S
C122 O125 1.355 . S
Dy123 O127 2.310 . S
Dy123 O130 2.351 . S
Dy123 O132 2.398 . S
Dy123 O133 2.491 . S
Dy123 O134 2.403 . S
Dy123 O135 2.664 1_554 S
Dy123 O137 2.326 . S
O124 Dy120 2.398 . S
O124 C122 1.185 . S
O125 Dy120 2.491 . S
O125 C122 1.355 . S
O126 Dy120 2.403 . S
O126 C128 1.254 1_556 S
O127 Dy120 2.664 1_554 S
O127 Dy123 2.310 . S
O127 C128 1.268 . S
C128 O126 1.254 1_554 S
C128 O127 1.268 . S
C129 O134 1.254 1_556 S
C129 O135 1.268 . S
O130 Dy123 2.351 . S
O130 C138 1.249 1_554 S
O131 Dy120 2.326 . S
O131 C138 1.267 . S
O132 C121 1.185 . S
O132 Dy123 2.398 . S
O133 C121 1.355 . S
O133 Dy123 2.491 . S
O134 Dy123 2.403 . S
O134 C129 1.254 1_554 S
O135 Dy120 2.310 . S
O135 Dy123 2.664 1_556 S
O135 C129 1.268 . S
O136 Dy120 2.351 . S
O136 C139 1.249 1_556 S
O137 Dy123 2.326 . S
O137 C139 1.267 . S
C138 O130 1.249 1_556 S
C138 O131 1.267 . S
C139 O136 1.249 1_554 S
C139 O137 1.267 . S
Dy140 O144 2.398 1_455 S
Dy140 O145 2.491 . S
Dy140 O146 2.403 1_455 S
Dy140 O147 2.664 1_455 S
Dy140 O151 2.326 1_455 S
Dy140 O155 2.310 . S
Dy140 O156 2.351 . S
C141 O152 1.185 . S
C141 O153 1.355 1_455 S
C142 O144 1.185 . S
C142 O145 1.355 1_655 S
Dy143 O147 2.310 . S
Dy143 O150 2.351 . S
Dy143 O152 2.398 1_655 S
Dy143 O153 2.491 . S
Dy143 O154 2.403 1_655 S
Dy143 O155 2.664 1_655 S
Dy143 O157 2.326 1_655 S
O144 Dy140 2.398 1_655 S
O144 C142 1.185 . S
O145 Dy140 2.491 . S
O145 C142 1.355 1_455 S
O146 Dy140 2.403 1_655 S
O146 C148 1.254 . S
O147 Dy140 2.664 1_655 S
O147 Dy143 2.310 . S
O147 C148 1.268 . S
C148 O146 1.254 . S
C148 O147 1.268 . S
C149 O154 1.254 . S
C149 O155 1.268 . S
O150 Dy143 2.351 . S
O150 C158 1.249 . S
O151 Dy140 2.326 1_655 S
O151 C158 1.267 . S
O152 C141 1.185 . S
O152 Dy143 2.398 1_455 S
O153 C141 1.355 1_655 S
O153 Dy143 2.491 . S
O154 Dy143 2.403 1_455 S
O154 C149 1.254 . S
O155 Dy140 2.310 . S
O155 Dy143 2.664 1_455 S
O155 C149 1.268 . S
O156 Dy140 2.351 . S
O156 C159 1.249 . S
O157 Dy143 2.326 1_455 S
O157 C159 1.267 . S
C158 O150 1.249 . S
C158 O151 1.267 . S
C159 O156 1.249 . S
C159 O157 1.267 . S
H160 C166 0.930 . S
H161 C169 0.930 . S
H162 C170 0.930 . S
H163 C171 0.930 . S
H164 C174 0.930 . S
H165 C175 0.930 . S
C166 H160 0.930 . S
C166 C167 1.355 . S
C166 C168 1.415 . S
C167 C166 1.355 . S
C167 C169 1.419 . S
C168 C166 1.415 . S
C168 C173 1.425 . S
C168 C175 1.409 . S
C169 H161 0.930 . S
C169 C167 1.419 . S
C169 C170 1.362 . S
C170 H162 0.930 . S
C170 C169 1.362 . S
C170 C173 1.409 . S
C171 H163 0.930 . S
C171 C172 1.355 . S
C171 C173 1.415 . S
C172 C171 1.355 . S
C172 C174 1.419 . S
C173 C168 1.425 . S
C173 C170 1.409 . S
C173 C171 1.415 . S
C174 H164 0.930 . S
C174 C172 1.419 . S
C174 C175 1.362 . S
C175 H165 0.930 . S
C175 C168 1.409 . S
C175 C174 1.362 . S
H176 C182 0.930 . S
H177 C185 0.930 . S
H178 C186 0.930 . S
H179 C187 0.930 . S
H180 C190 0.930 . S
H181 C191 0.930 . S
C182 H176 0.930 . S
C182 C183 1.355 . S
C182 C184 1.415 . S
C183 C182 1.355 . S
C183 C185 1.419 . S
C184 C182 1.415 . S
C184 C189 1.425 . S
C184 C191 1.409 . S
C185 H177 0.930 . S
C185 C183 1.419 . S
C185 C186 1.362 . S
C186 H178 0.930 . S
C186 C185 1.362 . S
C186 C189 1.409 . S
C187 H179 0.930 . S
C187 C188 1.355 . S
C187 C189 1.415 . S
C188 C187 1.355 . S
C188 C190 1.419 . S
C189 C184 1.425 . S
C189 C186 1.409 . S
C189 C187 1.415 . S
C190 H180 0.930 . S
C190 C188 1.419 . S
C190 C191 1.362 . S
C191 H181 0.930 . S
C191 C184 1.409 . S
C191 C190 1.362 . S
H192 C198 0.930 . S
H193 C201 0.930 . S
H194 C202 0.930 1_554 S
H195 C203 0.930 1_554 S
H196 C206 0.930 . S
H197 C207 0.930 . S
C198 H192 0.930 . S
C198 C199 1.355 . S
C198 C200 1.415 . S
C199 C198 1.355 . S
C199 C201 1.419 . S
C200 C198 1.415 . S
C200 C205 1.425 . S
C200 C207 1.409 . S
C201 H193 0.930 . S
C201 C199 1.419 . S
C201 C202 1.362 . S
C202 H194 0.930 1_556 S
C202 C201 1.362 . S
C202 C205 1.409 . S
C203 H195 0.930 1_556 S
C203 C204 1.355 . S
C203 C205 1.415 . S
C204 C203 1.355 . S
C204 C206 1.419 . S
C205 C200 1.425 . S
C205 C202 1.409 . S
C205 C203 1.415 . S
C206 H196 0.930 . S
C206 C204 1.419 . S
C206 C207 1.362 . S
C207 H197 0.930 . S
C207 C200 1.409 . S
C207 C206 1.362 . S
H208 C214 0.930 . S
H209 C217 0.930 . S
H210 C218 0.930 . S
H211 C219 0.930 . S
H212 C222 0.930 . S
H213 C223 0.930 . S
C214 H208 0.930 . S
C214 C215 1.355 . S
C214 C216 1.415 . S
C215 C214 1.355 . S
C215 C217 1.419 . S
C216 C214 1.415 . S
C216 C221 1.425 . S
C216 C223 1.409 . S
C217 H209 0.930 . S
C217 C215 1.419 . S
C217 C218 1.362 . S
C218 H210 0.930 . S
C218 C217 1.362 . S
C218 C221 1.409 . S
C219 H211 0.930 . S
C219 C220 1.355 . S
C219 C221 1.415 . S
C220 C219 1.355 . S
C220 C222 1.419 . S
C221 C216 1.425 . S
C221 C218 1.409 . S
C221 C219 1.415 . S
C222 H212 0.930 . S
C222 C220 1.419 . S
C222 C223 1.362 . S
C223 H213 0.930 . S
C223 C216 1.409 . S
C223 C222 1.362 . S
H224 C230 0.930 . S
H225 C233 0.930 . S
H226 C234 0.930 . S
H227 C235 0.930 . S
H228 C238 0.930 . S
H229 C239 0.930 . S
C230 H224 0.930 . S
C230 C231 1.355 . S
C230 C232 1.415 . S
C231 C230 1.355 . S
C231 C233 1.419 . S
C232 C230 1.415 . S
C232 C237 1.425 . S
C232 C239 1.409 . S
C233 H225 0.930 . S
C233 C231 1.419 . S
C233 C234 1.362 . S
C234 H226 0.930 . S
C234 C233 1.362 . S
C234 C237 1.409 . S
C235 H227 0.930 . S
C235 C236 1.355 . S
C235 C237 1.415 . S
C236 C235 1.355 . S
C236 C238 1.419 . S
C237 C232 1.425 . S
C237 C234 1.409 . S
C237 C235 1.415 . S
C238 H228 0.930 . S
C238 C236 1.419 . S
C238 C239 1.362 . S
C239 H229 0.930 . S
C239 C232 1.409 . S
C239 C238 1.362 . S
H240 C246 0.930 . S
H241 C249 0.930 . S
H242 C250 0.930 . S
H243 C251 0.930 . S
H244 C254 0.930 . S
H245 C255 0.930 . S
C246 H240 0.930 . S
C246 C247 1.355 . S
C246 C248 1.415 . S
C247 C246 1.355 . S
C247 C249 1.419 . S
C248 C246 1.415 . S
C248 C253 1.425 . S
C248 C255 1.409 . S
C249 H241 0.930 . S
C249 C247 1.419 . S
C249 C250 1.362 . S
C250 H242 0.930 . S
C250 C249 1.362 . S
C250 C253 1.409 . S
C251 H243 0.930 . S
C251 C252 1.355 . S
C251 C253 1.415 . S
C252 C251 1.355 . S
C252 C254 1.419 . S
C253 C248 1.425 . S
C253 C250 1.409 . S
C253 C251 1.415 . S
C254 H244 0.930 . S
C254 C252 1.419 . S
C254 C255 1.362 . S
C255 H245 0.930 . S
C255 C248 1.409 . S
C255 C254 1.362 . S
H256 C262 0.930 . S
H257 C265 0.930 . S
H258 C266 0.930 . S
H259 C267 0.930 . S
H260 C270 0.930 . S
H261 C271 0.930 1_556 S
C262 H256 0.930 . S
C262 C263 1.355 . S
C262 C264 1.415 . S
C263 C262 1.355 . S
C263 C265 1.419 . S
C264 C262 1.415 . S
C264 C269 1.425 . S
C264 C271 1.409 . S
C265 H257 0.930 . S
C265 C263 1.419 . S
C265 C266 1.362 . S
C266 H258 0.930 . S
C266 C265 1.362 . S
C266 C269 1.409 . S
C267 H259 0.930 . S
C267 C268 1.355 . S
C267 C269 1.415 . S
C268 C267 1.355 . S
C268 C270 1.419 1_554 S
C269 C264 1.425 . S
C269 C266 1.409 . S
C269 C267 1.415 . S
C270 H260 0.930 . S
C270 C268 1.419 1_556 S
C270 C271 1.362 1_556 S
C271 H261 0.930 1_554 S
C271 C264 1.409 . S
C271 C270 1.362 1_554 S
H272 C278 0.930 . S
H273 C281 0.930 . S
H274 C282 0.930 . S
H275 C283 0.930 . S
H276 C286 0.930 . S
H277 C287 0.930 . S
C278 H272 0.930 . S
C278 C279 1.355 . S
C278 C280 1.415 . S
C279 C278 1.355 . S
C279 C281 1.419 . S
C280 C278 1.415 . S
C280 C285 1.425 . S
C280 C287 1.409 . S
C281 H273 0.930 . S
C281 C279 1.419 . S
C281 C282 1.362 . S
C282 H274 0.930 . S
C282 C281 1.362 . S
C282 C285 1.409 . S
C283 H275 0.930 . S
C283 C284 1.355 . S
C283 C285 1.415 . S
C284 C283 1.355 . S
C284 C286 1.419 . S
C285 C280 1.425 . S
C285 C282 1.409 . S
C285 C283 1.415 . S
C286 H276 0.930 . S
C286 C284 1.419 . S
C286 C287 1.362 . S
C287 H277 0.930 . S
C287 C280 1.409 . S
C287 C286 1.362 . S
H288 C294 0.930 . S
H289 C297 0.930 . S
H290 C298 0.930 . S
H291 C299 0.930 . S
H292 C302 0.930 . S
H293 C303 0.930 . S
C294 H288 0.930 . S
C294 C295 1.355 . S
C294 C296 1.415 . S
C295 C294 1.355 . S
C295 C297 1.419 . S
C296 C294 1.415 . S
C296 C301 1.425 . S
C296 C303 1.409 . S
C297 H289 0.930 . S
C297 C295 1.419 . S
C297 C298 1.362 . S
C298 H290 0.930 . S
C298 C297 1.362 . S
C298 C301 1.409 . S
C299 H291 0.930 . S
C299 C300 1.355 . S
C299 C301 1.415 . S
C300 C299 1.355 . S
C300 C302 1.419 . S
C301 C296 1.425 . S
C301 C298 1.409 . S
C301 C299 1.415 . S
C302 H292 0.930 . S
C302 C300 1.419 . S
C302 C303 1.362 . S
C303 H293 0.930 . S
C303 C296 1.409 . S
C303 C302 1.362 . S
H304 C310 0.930 . S
H305 C313 0.930 . S
H306 C314 0.930 . S
H307 C315 0.930 . S
H308 C318 0.930 . S
H309 C319 0.930 . S
C310 H304 0.930 . S
C310 C311 1.355 . S
C310 C312 1.415 . S
C311 C310 1.355 . S
C311 C313 1.419 . S
C312 C310 1.415 . S
C312 C317 1.425 . S
C312 C319 1.409 . S
C313 H305 0.930 . S
C313 C311 1.419 . S
C313 C314 1.362 . S
C314 H306 0.930 . S
C314 C313 1.362 . S
C314 C317 1.409 . S
C315 H307 0.930 . S
C315 C316 1.355 . S
C315 C317 1.415 . S
C316 C315 1.355 . S
C316 C318 1.419 . S
C317 C312 1.425 . S
C317 C314 1.409 . S
C317 C315 1.415 . S
C318 H308 0.930 . S
C318 C316 1.419 . S
C318 C319 1.362 . S
C319 H309 0.930 . S
C319 C312 1.409 . S
C319 C318 1.362 . S
H320 C326 0.930 . S
H321 C329 0.930 . S
H322 C330 0.930 . S
H323 C331 0.930 . S
H324 C334 0.930 . S
H325 C335 0.930 . S
C326 H320 0.930 . S
C326 C327 1.355 . S
C326 C328 1.415 . S
C327 C326 1.355 . S
C327 C329 1.419 . S
C328 C326 1.415 . S
C328 C333 1.425 . S
C328 C335 1.409 . S
C329 H321 0.930 . S
C329 C327 1.419 . S
C329 C330 1.362 . S
C330 H322 0.930 . S
C330 C329 1.362 . S
C330 C333 1.409 . S
C331 H323 0.930 . S
C331 C332 1.355 . S
C331 C333 1.415 . S
C332 C331 1.355 . S
C332 C334 1.419 . S
C333 C328 1.425 . S
C333 C330 1.409 . S
C333 C331 1.415 . S
C334 H324 0.930 . S
C334 C332 1.419 . S
C334 C335 1.362 . S
C335 H325 0.930 . S
C335 C328 1.409 . S
C335 C334 1.362 . S
H336 C342 0.930 . S
H337 C345 0.930 . S
H338 C346 0.930 . S
H339 C347 0.930 . S
H340 C350 0.930 . S
H341 C351 0.930 . S
C342 H336 0.930 . S
C342 C343 1.355 . S
C342 C344 1.415 . S
C343 C342 1.355 . S
C343 C345 1.419 . S
C344 C342 1.415 . S
C344 C349 1.425 . S
C344 C351 1.409 . S
C345 H337 0.930 . S
C345 C343 1.419 . S
C345 C346 1.362 . S
C346 H338 0.930 . S
C346 C345 1.362 . S
C346 C349 1.409 . S
C347 H339 0.930 . S
C347 C348 1.355 . S
C347 C349 1.415 . S
C348 C347 1.355 . S
C348 C350 1.419 . S
C349 C344 1.425 . S
C349 C346 1.409 . S
C349 C347 1.415 . S
C350 H340 0.930 . S
C350 C348 1.419 . S
C350 C351 1.362 . S
C351 H341 0.930 . S
C351 C344 1.409 . S
C351 C350 1.362 . S
H352 C358 0.930 . S
H353 C361 0.930 . S
H354 C362 0.930 . S
H355 C363 0.930 . S
H356 C366 0.930 . S
H357 C367 0.930 . S
C358 H352 0.930 . S
C358 C359 1.355 . S
C358 C360 1.415 . S
C359 C358 1.355 . S
C359 C361 1.419 . S
C360 C358 1.415 . S
C360 C365 1.425 . S
C360 C367 1.409 . S
C361 H353 0.930 . S
C361 C359 1.419 . S
C361 C362 1.362 . S
C362 H354 0.930 . S
C362 C361 1.362 . S
C362 C365 1.409 . S
C363 H355 0.930 . S
C363 C364 1.355 . S
C363 C365 1.415 . S
C364 C363 1.355 . S
C364 C366 1.419 . S
C365 C360 1.425 . S
C365 C362 1.409 . S
C365 C363 1.415 . S
C366 H356 0.930 . S
C366 C364 1.419 . S
C366 C367 1.362 . S
C367 H357 0.930 . S
C367 C360 1.409 . S
C367 C366 1.362 . S
H368 C374 0.930 . S
H369 C377 0.930 . S
H370 C378 0.930 . S
H371 C379 0.930 . S
H372 C382 0.930 . S
H373 C383 0.930 . S
C374 H368 0.930 . S
C374 C375 1.355 . S
C374 C376 1.415 . S
C375 C374 1.355 . S
C375 C377 1.419 . S
C376 C374 1.415 . S
C376 C381 1.425 . S
C376 C383 1.409 . S
C377 H369 0.930 . S
C377 C375 1.419 . S
C377 C378 1.362 . S
C378 H370 0.930 . S
C378 C377 1.362 . S
C378 C381 1.409 . S
C379 H371 0.930 . S
C379 C380 1.355 . S
C379 C381 1.415 . S
C380 C379 1.355 . S
C380 C382 1.419 . S
C381 C376 1.425 . S
C381 C378 1.409 . S
C381 C379 1.415 . S
C382 H372 0.930 . S
C382 C380 1.419 . S
C382 C383 1.362 . S
C383 H373 0.930 . S
C383 C376 1.409 . S
C383 C382 1.362 . S
H384 C390 0.930 . S
H385 C393 0.930 . S
H386 C394 0.930 . S
H387 C395 0.930 . S
H388 C398 0.930 . S
H389 C399 0.930 . S
C390 H384 0.930 . S
C390 C391 1.355 . S
C390 C392 1.415 . S
C391 C390 1.355 . S
C391 C393 1.419 . S
C392 C390 1.415 . S
C392 C397 1.425 . S
C392 C399 1.409 . S
C393 H385 0.930 . S
C393 C391 1.419 . S
C393 C394 1.362 . S
C394 H386 0.930 . S
C394 C393 1.362 . S
C394 C397 1.409 . S
C395 H387 0.930 . S
C395 C396 1.355 . S
C395 C397 1.415 . S
C396 C395 1.355 . S
C396 C398 1.419 . S
C397 C392 1.425 . S
C397 C394 1.409 . S
C397 C395 1.415 . S
C398 H388 0.930 . S
C398 C396 1.419 . S
C398 C399 1.362 . S
C399 H389 0.930 . S
C399 C392 1.409 . S
C399 C398 1.362 . S
H400 C406 0.930 . S
H401 C409 0.930 . S
H402 C410 0.930 . S
H403 C411 0.930 . S
H404 C414 0.930 . S
H405 C415 0.930 . S
C406 H400 0.930 . S
C406 C407 1.355 . S
C406 C408 1.415 . S
C407 C406 1.355 . S
C407 C409 1.419 . S
C408 C406 1.415 . S
C408 C413 1.425 . S
C408 C415 1.409 . S
C409 H401 0.930 . S
C409 C407 1.419 . S
C409 C410 1.362 . S
C410 H402 0.930 . S
C410 C409 1.362 . S
C410 C413 1.409 . S
C411 H403 0.930 . S
C411 C412 1.355 . S
C411 C413 1.415 . S
C412 C411 1.355 . S
C412 C414 1.419 . S
C413 C408 1.425 . S
C413 C410 1.409 . S
C413 C411 1.415 . S
C414 H404 0.930 . S
C414 C412 1.419 . S
C414 C415 1.362 . S
C415 H405 0.930 . S
C415 C408 1.409 . S
C415 C414 1.362 . S
H416 C422 0.930 . S
H417 C425 0.930 . S
H418 C426 0.930 . S
H419 C427 0.930 . S
H420 C430 0.930 . S
H421 C431 0.930 . S
C422 H416 0.930 . S
C422 C423 1.355 1_455 S
C422 C424 1.415 . S
C423 C422 1.355 1_655 S
C423 C425 1.419 1_565 S
C424 C422 1.415 . S
C424 C429 1.425 1_466 S
C424 C431 1.409 1_556 S
C425 H417 0.930 . S
C425 C423 1.419 1_545 S
C425 C426 1.362 . S
C426 H418 0.930 . S
C426 C425 1.362 . S
C426 C429 1.409 1_556 S
C427 H419 0.930 . S
C427 C428 1.355 1_655 S
C427 C429 1.415 . S
C428 C427 1.355 1_455 S
C428 C430 1.419 1_545 S
C429 C424 1.425 1_644 S
C429 C426 1.409 1_554 S
C429 C427 1.415 . S
C430 H420 0.930 . S
C430 C428 1.419 1_565 S
C430 C431 1.362 . S
C431 H421 0.930 . S
C431 C424 1.409 1_554 S
C431 C430 1.362 . S
H432 C438 0.930 . S
H433 C441 0.930 . S
H434 C442 0.930 . S
H435 C443 0.930 . S
H436 C446 0.930 . S
H437 C447 0.930 . S
C438 H432 0.930 . S
C438 C439 1.355 . S
C438 C440 1.415 . S
C439 C438 1.355 . S
C439 C441 1.419 . S
C440 C438 1.415 . S
C440 C445 1.425 . S
C440 C447 1.409 . S
C441 H433 0.930 . S
C441 C439 1.419 . S
C441 C442 1.362 . S
C442 H434 0.930 . S
C442 C441 1.362 . S
C442 C445 1.409 . S
C443 H435 0.930 . S
C443 C444 1.355 . S
C443 C445 1.415 . S
C444 C443 1.355 . S
C444 C446 1.419 . S
C445 C440 1.425 . S
C445 C442 1.409 . S
C445 C443 1.415 . S
C446 H436 0.930 . S
C446 C444 1.419 . S
C446 C447 1.362 . S
C447 H437 0.930 . S
C447 C440 1.409 . S
C447 C446 1.362 . S
H448 C454 0.930 . S
H449 C457 0.930 . S
H450 C458 0.930 . S
H451 C459 0.930 . S
H452 C462 0.930 . S
H453 C463 0.930 . S
C454 H448 0.930 . S
C454 C455 1.355 . S
C454 C456 1.415 . S
C455 C454 1.355 . S
C455 C457 1.419 1_545 S
C456 C454 1.415 . S
C456 C461 1.425 1_545 S
C456 C463 1.409 . S
C457 H449 0.930 . S
C457 C455 1.419 1_565 S
C457 C458 1.362 . S
C458 H450 0.930 . S
C458 C457 1.362 . S
C458 C461 1.409 . S
C459 H451 0.930 . S
C459 C460 1.355 . S
C459 C461 1.415 . S
C460 C459 1.355 . S
C460 C462 1.419 1_565 S
C461 C456 1.425 1_565 S
C461 C458 1.409 . S
C461 C459 1.415 . S
C462 H452 0.930 . S
C462 C460 1.419 1_545 S
C462 C463 1.362 . S
C463 H453 0.930 . S
C463 C456 1.409 . S
C463 C462 1.362 . S
H464 C470 0.930 . S
H465 C473 0.930 . S
H466 C474 0.930 . S
H467 C475 0.930 . S
H468 C478 0.930 . S
H469 C479 0.930 . S
C470 H464 0.930 . S
C470 C471 1.355 . S
C470 C472 1.415 . S
C471 C470 1.355 . S
C471 C473 1.419 . S
C472 C470 1.415 . S
C472 C477 1.425 . S
C472 C479 1.409 . S
C473 H465 0.930 . S
C473 C471 1.419 . S
C473 C474 1.362 . S
C474 H466 0.930 . S
C474 C473 1.362 . S
C474 C477 1.409 . S
C475 H467 0.930 . S
C475 C476 1.355 . S
C475 C477 1.415 . S
C476 C475 1.355 . S
C476 C478 1.419 . S
C477 C472 1.425 . S
C477 C474 1.409 . S
C477 C475 1.415 . S
C478 H468 0.930 . S
C478 C476 1.419 . S
C478 C479 1.362 . S
C479 H469 0.930 . S
C479 C472 1.409 . S
C479 C478 1.362 . S
H480 C486 0.930 . S
H481 C489 0.930 . S
H482 C490 0.930 . S
H483 C491 0.930 . S
H484 C494 0.930 . S
H485 C495 0.930 . S
C486 H480 0.930 . S
C486 C487 1.355 . S
C486 C488 1.415 . S
C487 C486 1.355 . S
C487 C489 1.419 . S
C488 C486 1.415 . S
C488 C493 1.425 . S
C488 C495 1.409 . S
C489 H481 0.930 . S
C489 C487 1.419 . S
C489 C490 1.362 . S
C490 H482 0.930 . S
C490 C489 1.362 . S
C490 C493 1.409 . S
C491 H483 0.930 . S
C491 C492 1.355 . S
C491 C493 1.415 . S
C492 C491 1.355 . S
C492 C494 1.419 . S
C493 C488 1.425 . S
C493 C490 1.409 . S
C493 C491 1.415 . S
C494 H484 0.930 . S
C494 C492 1.419 . S
C494 C495 1.362 . S
C495 H485 0.930 . S
C495 C488 1.409 . S
C495 C494 1.362 . S
H496 C502 0.930 . S
H497 C505 0.930 . S
H498 C506 0.930 . S
H499 C507 0.930 . S
H500 C510 0.930 . S
H501 C511 0.930 . S
C502 H496 0.930 . S
C502 C503 1.355 . S
C502 C504 1.415 . S
C503 C502 1.355 . S
C503 C505 1.419 . S
C504 C502 1.415 . S
C504 C509 1.425 . S
C504 C511 1.409 . S
C505 H497 0.930 . S
C505 C503 1.419 . S
C505 C506 1.362 . S
C506 H498 0.930 . S
C506 C505 1.362 . S
C506 C509 1.409 . S
C507 H499 0.930 . S
C507 C508 1.355 . S
C507 C509 1.415 . S
C508 C507 1.355 . S
C508 C510 1.419 . S
C509 C504 1.425 . S
C509 C506 1.409 . S
C509 C507 1.415 . S
C510 H500 0.930 . S
C510 C508 1.419 . S
C510 C511 1.362 . S
C511 H501 0.930 . S
C511 C504 1.409 . S
C511 C510 1.362 . S
H512 C518 0.930 . S
H513 C521 0.930 . S
H514 C522 0.930 . S
H515 C523 0.930 . S
H516 C526 0.930 . S
H517 C527 0.930 . S
C518 H512 0.930 . S
C518 C519 1.355 . S
C518 C520 1.415 . S
C519 C518 1.355 . S
C519 C521 1.419 . S
C520 C518 1.415 . S
C520 C525 1.425 . S
C520 C527 1.409 . S
C521 H513 0.930 . S
C521 C519 1.419 . S
C521 C522 1.362 . S
C522 H514 0.930 . S
C522 C521 1.362 . S
C522 C525 1.409 . S
C523 H515 0.930 . S
C523 C524 1.355 . S
C523 C525 1.415 . S
C524 C523 1.355 . S
C524 C526 1.419 . S
C525 C520 1.425 . S
C525 C522 1.409 . S
C525 C523 1.415 . S
C526 H516 0.930 . S
C526 C524 1.419 . S
C526 C527 1.362 . S
C527 H517 0.930 . S
C527 C520 1.409 . S
C527 C526 1.362 . S
H528 C534 0.930 . S
H529 C537 0.930 . S
H530 C538 0.929 1_455 S
H531 C539 0.930 . S
H532 C542 0.930 . S
H533 C543 0.929 1_655 S
C534 H528 0.930 . S
C534 C535 1.355 . S
C534 C536 1.415 . S
C535 C534 1.355 . S
C535 C537 1.419 . S
C536 C534 1.415 . S
C536 C541 1.425 1_656 S
C536 C543 1.410 1_656 S
C537 H529 0.930 . S
C537 C535 1.419 . S
C537 C538 1.363 . S
C538 H530 0.929 1_655 S
C538 C537 1.363 . S
C538 C541 1.410 1_656 S
C539 H531 0.930 . S
C539 C540 1.355 . S
C539 C541 1.415 . S
C540 C539 1.355 . S
C540 C542 1.419 . S
C541 C536 1.425 1_454 S
C541 C538 1.410 1_454 S
C541 C539 1.415 . S
C542 H532 0.930 . S
C542 C540 1.419 . S
C542 C543 1.364 . S
C543 H533 0.929 1_455 S
C543 C536 1.410 1_454 S
C543 C542 1.364 . S
C167 C18 1.508 . S
C172 C68 1.494 . S
C183 C8 1.203 . S
C188 C28 1.166 . S
C199 C38 1.520 . S
C204 C48 1.514 . S
C215 C58 1.756 . S
C220 C78 1.742 . S
C231 C19 1.517 . S
C236 C109 1.511 . S
C247 C9 1.192 . S
C252 C89 1.158 . S
C263 C99 1.501 . S
C268 C49 1.485 . S
C279 C119 1.749 . S
C284 C59 1.767 . S
C295 C138 1.516 . S
C300 C108 1.509 . S
C311 C88 1.215 . S
C316 C128 1.184 . S
C327 C148 1.511 . S
C332 C98 1.520 . S
C343 C118 1.764 . S
C348 C158 1.761 . S
C359 C69 1.496 . S
C364 C139 1.508 . S
C375 C129 1.188 . S
C380 C29 1.217 . S
C391 C39 1.483 . S
C396 C149 1.461 . S
C407 C79 1.755 . S
C412 C159 1.766 . S
C423 C1 1.454 1_565 S
C428 C2 1.453 . S
C439 C21 1.415 . S
C444 C22 1.415 . S
C455 C41 1.503 . S
C460 C42 1.503 . S
C471 C62 1.487 . S
C476 C61 1.487 . S
C487 C81 1.443 . S
C492 C82 1.443 . S
C503 C102 1.467 . S
C508 C101 1.467 . S
C519 C122 1.441 . S
C524 C121 1.441 . S
C535 C142 1.504 . S
C540 C141 1.504 . S
