# Generated by pormake.
# Topology vby, (6)-cn, num edge types: 1
# Building blocks:
#     Node 0, Type 0, BuildingBlock: BETDEL_clean_sbu_0, # of connection points: 6
#     Node 1, Type 0, BuildingBlock: BETDEL_clean_sbu_0, # of connection points: 6
#     Node 2, Type 0, BuildingBlock: BETDEL_clean_sbu_0, # of connection points: 6
#     Node 3, Type 0, BuildingBlock: BETDEL_clean_sbu_0, # of connection points: 6
#     Node 4, Type 0, BuildingBlock: BETDEL_clean_sbu_0, # of connection points: 6
#     Node 5, Type 0, BuildingBlock: BETDEL_clean_sbu_0, # of connection points: 6
#     Node 6, Type 0, BuildingBlock: BETDEL_clean_sbu_0, # of connection points: 6
#     Node 7, Type 0, BuildingBlock: BETDEL_clean_sbu_0, # of connection points: 6
#     Edge 8, Type (0, 0), BuildingBlock: KIFKEQ_clean_linker_1, # of connection points: 2
#     Edge 9, Type (0, 0), BuildingBlock: KIFKEQ_clean_linker_1, # of connection points: 2
#     Edge 10, Type (0, 0), BuildingBlock: KIFKEQ_clean_linker_1, # of connection points: 2
#     Edge 11, Type (0, 0), BuildingBlock: KIFKEQ_clean_linker_1, # of connection points: 2
#     Edge 12, Type (0, 0), BuildingBlock: KIFKEQ_clean_linker_1, # of connection points: 2
#     Edge 13, Type (0, 0), BuildingBlock: KIFKEQ_clean_linker_1, # of connection points: 2
#     Edge 14, Type (0, 0), BuildingBlock: KIFKEQ_clean_linker_1, # of connection points: 2
#     Edge 15, Type (0, 0), BuildingBlock: KIFKEQ_clean_linker_1, # of connection points: 2
#     Edge 16, Type (0, 0), BuildingBlock: KIFKEQ_clean_linker_1, # of connection points: 2
#     Edge 17, Type (0, 0), BuildingBlock: KIFKEQ_clean_linker_1, # of connection points: 2
#     Edge 18, Type (0, 0), BuildingBlock: KIFKEQ_clean_linker_1, # of connection points: 2
#     Edge 19, Type (0, 0), BuildingBlock: KIFKEQ_clean_linker_1, # of connection points: 2
#     Edge 20, Type (0, 0), BuildingBlock: KIFKEQ_clean_linker_1, # of connection points: 2
#     Edge 21, Type (0, 0), BuildingBlock: KIFKEQ_clean_linker_1, # of connection points: 2
#     Edge 22, Type (0, 0), BuildingBlock: KIFKEQ_clean_linker_1, # of connection points: 2
#     Edge 23, Type (0, 0), BuildingBlock: KIFKEQ_clean_linker_1, # of connection points: 2
#     Edge 24, Type (0, 0), BuildingBlock: KIFKEQ_clean_linker_1, # of connection points: 2
#     Edge 25, Type (0, 0), BuildingBlock: KIFKEQ_clean_linker_1, # of connection points: 2
#     Edge 26, Type (0, 0), BuildingBlock: KIFKEQ_clean_linker_1, # of connection points: 2
#     Edge 27, Type (0, 0), BuildingBlock: KIFKEQ_clean_linker_1, # of connection points: 2
#     Edge 28, Type (0, 0), BuildingBlock: KIFKEQ_clean_linker_1, # of connection points: 2
#     Edge 29, Type (0, 0), BuildingBlock: KIFKEQ_clean_linker_1, # of connection points: 2
#     Edge 30, Type (0, 0), BuildingBlock: KIFKEQ_clean_linker_1, # of connection points: 2
#     Edge 31, Type (0, 0), BuildingBlock: KIFKEQ_clean_linker_1, # of connection points: 2
# Relax obj value: 0.122
# Max RMSD: 0.163
# Mean RMSD: 0.163
data_MOF--net-vby--node1-BETDEL_clean_sbu_0--edge1-KIFKEQ_clean_linker_1
_symmetry_space_group_name_H-M    P1
_symmetry_Int_Tables_number       1
_symmetry_cell_setting            triclinic
loop_
_symmetry_equiv_pos_as_xyz
'x, y, z'
_cell_length_a     15.709749
_cell_length_b     71.367397
_cell_length_c     29.071247
_cell_angle_alpha  90.071947
_cell_angle_beta   86.703518
_cell_angle_gamma 90.016449
loop_
_atom_site_label
_atom_site_type_symbol
_atom_site_fract_x
_atom_site_fract_y
_atom_site_fract_z
_atom_type_partial_charge
Dy0 Dy 0.07057 0.41227 0.02259 0.0
C1 C 0.10748 0.33204 0.04285 0.0
C2 C 0.04405 0.44999 0.01591 0.0
Dy3 Dy 0.07436 0.36827 0.01946 0.0
O4 O 0.00768 0.43906 0.04682 0.0
O5 O 0.0946 0.44026 0.98805 0.0
O6 O 0.12035 0.41046 0.09326 0.0
O7 O 0.03872 0.38948 0.07175 0.0
C8 C 0.08311 0.39472 0.10426 0.0
C9 C 0.08671 0.3821 0.93273 0.0
O10 O 0.93333 0.37304 0.02731 0.0
O11 O 0.93674 0.4047 1.00667 0.0
O12 O 0.05308 0.33712 1.01306 0.0
O13 O 0.13959 0.34681 0.06149 0.0
O14 O 0.088 0.36434 0.9422 0.0
O15 O 0.08178 0.39097 0.9702 0.0
O16 O 0.2096 0.40769 1.00557 0.0
O17 O 0.21026 0.37646 0.02798 0.0
C18 C 0.89477 0.38882 0.01572 0.0
C19 C 0.25052 0.39215 0.01586 0.0
Dy20 Dy 0.95421 0.67057 0.02716 0.0
C21 C 0.97686 0.59077 0.01799 0.0
C22 C 0.90874 0.70762 0.0304 0.0
Dy23 Dy 0.95422 0.62884 0.01613 0.0
O24 O 0.8948 0.69553 0.06314 0.0
O25 O 0.95075 0.69964 0.99573 0.0
O26 O 0.02036 0.668 0.09227 0.0
O27 O 0.93126 0.64722 0.07578 0.0
C28 C 0.98616 0.65202 0.10387 0.0
C29 C 0.93498 0.64791 0.93735 0.0
O30 O 0.81556 0.63249 0.03395 0.0
O31 O 0.8187 0.66365 1.01317 0.0
O32 O 0.98202 0.60115 0.98141 0.0
O33 O 0.95944 0.60119 0.05398 0.0
O34 O 0.89547 0.63241 0.94815 0.0
O35 O 0.98403 0.65213 0.9686 0.0
O36 O 0.09368 0.66748 1.01013 0.0
O37 O 0.09329 0.63528 0.02259 0.0
C38 C 0.77599 0.64816 0.02397 0.0
C39 C 0.13436 0.65138 0.01534 0.0
Dy40 Dy 0.06214 0.67025 0.51158 0.0
C41 C 0.03956 0.59055 0.52216 0.0
C42 C 0.10098 0.7077 0.51336 0.0
Dy43 Dy 0.06344 0.62859 0.52257 0.0
O44 O 0.08286 0.69821 0.47716 0.0
O45 O 0.09413 0.69688 0.54934 0.0
O46 O 0.9982 0.66751 0.44588 0.0
O47 O 0.08795 0.64693 0.46299 0.0
C48 C 0.0338 0.65165 0.4344 0.0
C49 C 0.08059 0.64795 0.60123 0.0
O50 O 0.2026 0.63172 0.50661 0.0
O51 O 0.20138 0.66387 0.5166 0.0
O52 O 0.02756 0.60141 0.55769 0.0
O53 O 0.06442 0.60047 0.48643 0.0
O54 O 0.12172 0.63264 0.59051 0.0
O55 O 0.03134 0.65186 0.5699 0.0
O56 O 0.92371 0.66653 0.53116 0.0
O57 O 0.92577 0.63495 0.51209 0.0
C58 C 0.2428 0.64783 0.51064 0.0
C59 C 0.88366 0.65069 0.52203 0.0
Dy60 Dy 0.94432 0.41206 0.52337 0.0
C61 C 0.90692 0.33185 0.50324 0.0
C62 C 0.97155 0.44978 0.52962 0.0
Dy63 Dy 0.94028 0.3681 0.52657 0.0
O64 O 0.00928 0.43866 0.49956 0.0
O65 O 0.91921 0.44025 0.5569 0.0
O66 O 0.89453 0.41018 0.45272 0.0
O67 O 0.97608 0.38922 0.47417 0.0
C68 C 0.9317 0.39444 0.44167 0.0
C69 C 0.92799 0.38201 0.61332 0.0
O70 O 0.08135 0.37284 0.5188 0.0
O71 O 0.07788 0.40448 0.53972 0.0
O72 O 0.96138 0.33695 0.533 0.0
O73 O 0.87487 0.3466 0.48459 0.0
O74 O 0.92659 0.36424 0.60382 0.0
O75 O 0.933 0.39085 0.57587 0.0
O76 O 0.80529 0.40753 0.54058 0.0
O77 O 0.80442 0.3763 0.51806 0.0
C78 C 0.1199 0.38861 0.53057 0.0
C79 C 0.76424 0.39199 0.53026 0.0
Dy80 Dy 0.56793 0.91187 0.02592 0.0
C81 C 0.60658 0.83262 0.02449 0.0
C82 C 0.54352 0.94981 0.02132 0.0
Dy83 Dy 0.5676 0.86995 0.01898 0.0
O84 O 0.51388 0.939 0.05424 0.0
O85 O 0.58632 0.93989 0.99047 0.0
O86 O 0.6249 0.90954 0.09477 0.0
O87 O 0.53763 0.88933 0.07555 0.0
C88 C 0.5859 0.8941 0.10668 0.0
C89 C 0.53534 0.88711 0.94052 0.0
O90 O 0.4287 0.87379 0.03669 0.0
O91 O 0.43039 0.90519 0.0157 0.0
O92 O 0.60119 0.84206 0.98671 0.0
O93 O 0.58726 0.84343 0.0596 0.0
O94 O 0.50164 0.87126 0.95363 0.0
O95 O 0.5904 0.89251 0.96792 0.0
O96 O 0.70733 0.90834 1.01045 0.0
O97 O 0.70546 0.87667 0.0268 0.0
C98 C 0.38858 0.88954 0.02698 0.0
C99 C 0.7472 0.89247 0.0181 0.0
Dy100 Dy 0.45367 0.17036 0.03097 0.0
C101 C 0.47489 0.0906 0.02242 0.0
C102 C 0.41502 0.20782 0.02947 0.0
Dy103 Dy 0.45189 0.12865 0.02048 0.0
O104 O 0.43294 0.1983 0.0656 0.0
O105 O 0.42197 0.19702 0.99338 0.0
O106 O 0.51794 0.1677 0.09659 0.0
O107 O 0.42763 0.14718 0.07976 0.0
C108 C 0.48202 0.15191 0.10823 0.0
C109 C 0.43494 0.14778 0.94159 0.0
O110 O 0.31295 0.13191 0.03697 0.0
O111 O 0.31443 0.16399 0.02578 0.0
O112 O 0.48107 0.10098 0.98586 0.0
O113 O 0.45631 0.101 0.0583 0.0
O114 O 0.39377 0.1325 0.95246 0.0
O115 O 0.48425 0.15178 0.97287 0.0
O116 O 0.59208 0.16663 1.01129 0.0
O117 O 0.59008 0.13499 0.02968 0.0
C118 C 0.27286 0.148 0.03234 0.0
C119 C 0.63213 0.15076 0.02001 0.0
Dy120 Dy 0.55983 0.1702 0.51557 0.0
C121 C 0.5378 0.0905 0.52606 0.0
C122 C 0.59865 0.20766 0.51688 0.0
Dy123 Dy 0.56125 0.12855 0.52654 0.0
O124 O 0.5808 0.19808 0.48079 0.0
O125 O 0.59153 0.19694 0.55302 0.0
O126 O 0.49521 0.16747 0.45008 0.0
O127 O 0.58515 0.14688 0.4669 0.0
C128 C 0.53068 0.15161 0.43848 0.0
C129 C 0.57911 0.14789 0.60518 0.0
O130 O 0.70034 0.13171 0.51037 0.0
O131 O 0.69912 0.16385 0.52043 0.0
O132 O 0.52512 0.10136 0.56154 0.0
O133 O 0.56303 0.10044 0.49041 0.0
O134 O 0.6201 0.13258 0.59433 0.0
O135 O 0.52956 0.15182 0.57399 0.0
O136 O 0.42146 0.16648 0.53534 0.0
O137 O 0.42348 0.1349 0.51629 0.0
C138 C 0.74056 0.14782 0.51438 0.0
C139 C 0.38139 0.15064 0.52627 0.0
Dy140 Dy 0.44786 0.91195 0.52554 0.0
C141 C 0.41078 0.83169 0.5022 0.0
C142 C 0.47537 0.9496 0.53297 0.0
Dy143 Dy 0.44396 0.86774 0.52707 0.0
O144 O 0.51354 0.9386 0.50277 0.0
O145 O 0.42259 0.93998 0.55982 0.0
O146 O 0.3988 0.91049 0.45463 0.0
O147 O 0.47917 0.88932 0.47595 0.0
C148 C 0.43513 0.89466 0.44353 0.0
C149 C 0.43182 0.8813 0.61393 0.0
O150 O 0.58469 0.87276 0.51843 0.0
O151 O 0.58091 0.90401 0.54269 0.0
O152 O 0.465 0.83657 0.53232 0.0
O153 O 0.37896 0.84656 0.48397 0.0
O154 O 0.43127 0.86354 0.6042 0.0
O155 O 0.43716 0.89027 0.57672 0.0
O156 O 0.3086 0.90744 0.54191 0.0
O157 O 0.30719 0.87592 0.52134 0.0
C158 C 0.62311 0.88828 0.53198 0.0
C159 C 0.2674 0.89173 0.53312 0.0
H160 H 0.36279 0.41696 0.97304 0.0
H161 H 0.352 0.36694 0.0567 0.0
H162 H 0.51834 0.4158 0.97023 0.0
H163 H 0.50638 0.3662 0.05564 0.0
H164 H 0.7851 0.35899 1.01208 0.0
H165 H 0.63032 0.35988 1.00944 0.0
H166 H 0.63691 0.42042 1.01474 0.0
H167 H 0.79126 0.4195 0.01534 0.0
C168 C 0.39358 0.40583 0.99116 0.0
C169 C 0.34495 0.39203 1.01492 0.0
C170 C 0.48285 0.40518 0.98975 0.0
C171 C 0.52547 0.39085 1.01259 0.0
C172 C 0.47634 0.3772 0.03674 0.0
C173 C 0.38744 0.37772 0.03764 0.0
C174 C 0.75341 0.37247 1.01253 0.0
C175 C 0.80066 0.38915 1.0139 0.0
C176 C 0.66448 0.37301 1.01128 0.0
C177 C 0.62053 0.39024 1.01202 0.0
C178 C 0.66819 0.4069 1.01327 0.0
C179 C 0.757 0.40635 1.01393 0.0
H180 H 0.24234 0.68109 0.02455 0.0
H181 H 0.23923 0.62107 1.00502 0.0
H182 H 0.39697 0.68023 0.02783 0.0
H183 H 0.39366 0.62026 1.00653 0.0
H184 H 0.66094 0.62223 0.05893 0.0
H185 H 0.50593 0.6233 0.05708 0.0
H186 H 0.52465 0.67559 0.98222 0.0
H187 H 0.67858 0.67487 0.9857 0.0
C188 C 0.27477 0.66775 0.02036 0.0
C189 C 0.22852 0.65116 1.01461 0.0
C190 C 0.36351 0.66724 0.02209 0.0
C191 C 0.40805 0.65015 0.01759 0.0
C192 C 0.36157 0.63362 1.01108 0.0
C193 C 0.27292 0.63411 1.00985 0.0
C194 C 0.63179 0.63395 0.04215 0.0
C195 C 0.68204 0.64848 0.02261 0.0
C196 C 0.54294 0.63453 0.04083 0.0
C197 C 0.50252 0.64955 0.01949 0.0
C198 C 0.55319 0.66399 0.99972 0.0
C199 C 0.64172 0.66351 1.00148 0.0
H200 H 0.78619 0.62417 0.48322 0.0
H201 H 0.76901 0.67664 0.55752 0.0
H202 H 0.63246 0.62364 0.47916 0.0
H203 H 0.61394 0.67578 0.55498 0.0
H204 H 0.3479 0.67819 0.50097 0.0
H205 H 0.50233 0.67898 0.50353 0.0
H206 H 0.50472 0.61903 0.52479 0.0
H207 H 0.35044 0.61818 0.5205 0.0
C208 C 0.74942 0.63552 0.49921 0.0
C209 C 0.78978 0.65044 0.52084 0.0
C210 C 0.66101 0.63515 0.49705 0.0
C211 C 0.6105 0.64961 0.5169 0.0
C212 C 0.65092 0.66454 0.53873 0.0
C213 C 0.73973 0.665 0.54045 0.0
C214 C 0.38143 0.66515 0.50597 0.0
C215 C 0.33691 0.6481 0.51041 0.0
C216 C 0.47002 0.66563 0.50782 0.0
C217 C 0.51617 0.64909 0.51459 0.0
C218 C 0.4715 0.63202 0.51883 0.0
C219 C 0.38293 0.63152 0.51651 0.0
H220 H 0.65208 0.41687 0.57307 0.0
H221 H 0.66257 0.36672 0.4896 0.0
H222 H 0.49651 0.41571 0.57599 0.0
H223 H 0.5082 0.36597 0.49076 0.0
H224 H 0.22954 0.3588 0.5343 0.0
H225 H 0.38433 0.35971 0.53696 0.0
H226 H 0.37777 0.42024 0.53163 0.0
H227 H 0.22342 0.4193 0.53102 0.0
C228 C 0.62123 0.40571 0.55501 0.0
C229 C 0.66979 0.39187 0.53127 0.0
C230 C 0.53195 0.40506 0.55648 0.0
C231 C 0.48923 0.39068 0.53373 0.0
C232 C 0.5383 0.377 0.5096 0.0
C233 C 0.62721 0.37752 0.50864 0.0
C234 C 0.26124 0.37228 0.53385 0.0
C235 C 0.214 0.38895 0.53246 0.0
C236 C 0.35017 0.37283 0.53511 0.0
C237 C 0.39415 0.39007 0.53435 0.0
C238 C 0.34649 0.40671 0.53311 0.0
C239 C 0.25767 0.40616 0.53244 0.0
H240 H 0.84504 0.8661 0.05707 0.0
H241 H 0.8616 0.91816 0.98142 0.0
H242 H 0.99894 0.8655 0.06027 0.0
H243 H 0.0167 0.91716 0.98266 0.0
H244 H 0.28431 0.91999 0.03329 0.0
H245 H 0.12989 0.92076 0.03145 0.0
H246 H 0.12634 0.86048 0.01607 0.0
H247 H 0.28081 0.85971 0.02008 0.0
C248 C 0.88174 0.87733 0.04059 0.0
C249 C 0.84115 0.89218 0.01893 0.0
C250 C 0.97028 0.87692 0.04219 0.0
C251 C 0.02073 0.89123 0.02157 0.0
C252 C 0.97998 0.90605 0.9996 0.0
C253 C 0.89107 0.90659 0.9986 0.0
C254 C 0.25045 0.90689 0.02969 0.0
C255 C 0.29461 0.88977 0.02698 0.0
C256 C 0.16183 0.90735 0.02824 0.0
C257 C 0.11525 0.89071 0.02338 0.0
C258 C 0.15974 0.87356 0.02063 0.0
C259 C 0.24839 0.8731 0.02276 0.0
H260 H 0.16529 0.11832 0.02255 0.0
H261 H 0.16779 0.17838 0.0416 0.0
H262 H 0.01111 0.11914 0.01789 0.0
H263 H 0.0134 0.17914 0.03873 0.0
H264 H 0.74688 0.1767 0.98459 0.0
H265 H 0.90194 0.17587 0.98731 0.0
H266 H 0.88315 0.12378 0.06302 0.0
H267 H 0.7295 0.12426 0.05872 0.0
C268 C 0.13279 0.13166 0.02638 0.0
C269 C 0.17877 0.14827 0.03245 0.0
C270 C 0.04427 0.13215 0.02384 0.0
C271 C 0.99958 0.14923 0.02785 0.0
C272 C 0.0457 0.16579 0.0346 0.0
C273 C 0.13427 0.16533 0.03664 0.0
C274 C 0.77612 0.16506 1.00165 0.0
C275 C 0.72602 0.15051 0.02116 0.0
C276 C 0.86492 0.16463 1.00349 0.0
C277 C 0.90527 0.14972 0.02535 0.0
C278 C 0.85469 0.13527 0.04508 0.0
C279 C 0.76631 0.1356 0.04279 0.0
H280 H 0.26666 0.17661 0.5616 0.0
H281 H 0.28399 0.12412 0.48742 0.0
H282 H 0.11161 0.17578 0.55886 0.0
H283 H 0.13031 0.12361 0.48315 0.0
H284 H 0.84818 0.11817 0.52421 0.0
H285 H 1.00244 0.11902 0.52859 0.0
H286 H 1.00011 0.17896 0.50734 0.0
H287 H 0.84569 0.17818 0.50469 0.0
C288 C 0.23742 0.16497 0.54452 0.0
C289 C 0.28751 0.1504 0.52501 0.0
C290 C 0.14862 0.16452 0.54268 0.0
C291 C 0.10825 0.1496 0.52082 0.0
C292 C 0.15881 0.13513 0.50107 0.0
C293 C 0.2472 0.13547 0.50335 0.0
C294 C 0.88068 0.1315 0.52023 0.0
C295 C 0.83468 0.14809 0.51412 0.0
C296 C 0.96924 0.132 0.52261 0.0
C297 C 0.01393 0.14908 0.51841 0.0
C298 C 0.96779 0.16562 0.5116 0.0
C299 C 0.87921 0.16514 0.5097 0.0
H300 H 0.73883 0.8634 0.493 0.0
H301 H 0.72049 0.91369 0.57584 0.0
H302 H 0.89362 0.86465 0.49381 0.0
H303 H 0.87498 0.91456 0.57821 0.0
H304 H 0.15739 0.92167 0.533 0.0
H305 H 1.002 0.92078 0.53312 0.0
H306 H 0.00866 0.86031 0.54089 0.0
H307 H 0.16319 0.86121 0.53893 0.0
C308 C 0.76777 0.87459 0.51189 0.0
C309 C 0.71718 0.88844 0.53428 0.0
C310 C 0.85672 0.87528 0.51255 0.0
C311 C 0.89735 0.88972 0.53612 0.0
C312 C 0.84639 0.90343 0.559 0.0
C313 C 0.75754 0.90285 0.5579 0.0
C314 C 0.12551 0.90821 0.53487 0.0
C315 C 0.17283 0.89153 0.53566 0.0
C316 C 0.03628 0.90768 0.53515 0.0
C317 C 0.9923 0.89044 0.53675 0.0
C318 C 0.03997 0.87382 0.53855 0.0
C319 C 0.1289 0.87435 0.53774 0.0
H320 H 1.00441 0.56806 0.94359 0.0
H321 H 0.97352 0.56716 0.09204 0.0
H322 H 0.01944 0.53407 0.9424 0.0
H323 H 0.99101 0.53311 0.09118 0.0
H324 H 0.93474 0.47103 0.07027 0.0
H325 H 0.9185 0.50501 0.07067 0.0
H326 H 0.11463 0.50934 0.96064 0.0
H327 H 0.12879 0.47523 0.95951 0.0
C328 C 1.00142 0.56057 0.97603 0.0
C329 C 0.98769 0.57022 0.01792 0.0
C330 C 0.01058 0.54108 0.97539 0.0
C331 C 0.00654 0.53079 0.01668 0.0
C332 C 0.99325 0.54053 0.05867 0.0
C333 C 0.98376 0.56005 0.05926 0.0
C334 C 0.97404 0.47927 0.04603 0.0
C335 C 0.0329 0.47052 1.01478 0.0
C336 C 0.96529 0.49876 0.04651 0.0
C337 C 0.01552 0.50999 0.01586 0.0
C338 C 0.07411 0.50115 0.98436 0.0
C339 C 0.08255 0.48162 0.98377 0.0
H340 H 0.08679 0.47033 0.47789 0.0
H341 H 0.88161 0.4755 0.58235 0.0
H342 H 0.10345 0.50429 0.47641 0.0
H343 H 0.89599 0.50959 0.57994 0.0
H344 H 1.00159 0.56869 0.59698 0.0
H345 H 0.98672 0.53471 0.59974 0.0
H346 H 0.0353 0.53208 0.45197 0.0
H347 H 0.05296 0.56611 0.44969 0.0
C348 C 0.04512 0.47878 0.50051 0.0
C349 C 0.98301 0.47031 0.53031 0.0
C350 C 0.05412 0.49826 0.49938 0.0
C351 C 1.00077 0.50977 0.52783 0.0
C352 C 0.93896 0.5012 0.55795 0.0
C353 C 0.93039 0.48168 0.55926 0.0
C354 C 0.00903 0.56082 0.5651 0.0
C355 C 0.02855 0.57 0.52312 0.0
C356 C 0.99998 0.54134 0.56662 0.0
C357 C 0.00973 0.53057 0.5261 0.0
C358 C 0.02866 0.53986 0.48398 0.0
C359 C 0.03823 0.55936 0.48255 0.0
H360 H 0.44216 0.97104 0.07959 0.0
H361 H 0.62073 0.97487 0.96154 0.0
H362 H 0.42513 1.00498 0.07968 0.0
H363 H 0.60658 1.00896 0.96248 0.0
H364 H 0.49647 0.06762 0.94811 0.0
H365 H 0.51161 0.03365 0.94733 0.0
H366 H 0.49619 0.03329 0.09632 0.0
H367 H 0.47778 0.06729 0.09677 0.0
C368 C 0.47807 0.9792 0.05375 0.0
C369 C 0.53261 0.97036 0.02049 0.0
C370 C 0.46891 0.99868 0.05401 0.0
C371 C 0.51472 1.00982 0.02123 0.0
C372 C 0.56928 1.00087 0.98786 0.0
C373 C 0.57781 0.98134 0.98739 0.0
C374 C 0.49631 0.06025 0.98067 0.0
C375 C 0.48583 0.07005 0.02251 0.0
C376 C 0.50559 0.04077 0.98026 0.0
C377 C 0.5053 0.03063 0.02175 0.0
C378 C 0.49537 0.04055 0.06367 0.0
C379 C 0.48539 0.06005 0.06402 0.0
H380 H 0.55307 0.06606 0.45364 0.0
H381 H 0.4995 0.0686 0.60078 0.0
H382 H 0.53693 0.032 0.45591 0.0
H383 H 0.48615 0.0346 0.60354 0.0
H384 H 0.38405 0.97512 0.58565 0.0
H385 H 0.39706 1.00923 0.58342 0.0
H386 H 0.60608 1.00438 0.48068 0.0
H387 H 0.5908 0.9704 0.48197 0.0
C388 C 0.53816 0.0593 0.48647 0.0
C389 C 0.52744 0.06993 0.52699 0.0
C390 C 0.52948 0.03977 0.4879 0.0
C391 C 0.51043 0.03047 0.52997 0.0
C392 C 0.49956 0.04124 0.57045 0.0
C393 C 0.50773 0.06074 0.56893 0.0
C394 C 0.43292 0.9814 0.5628 0.0
C395 C 0.48635 0.97015 0.53399 0.0
C396 C 0.44069 1.00094 0.56158 0.0
C397 C 0.50248 1.00964 0.53171 0.0
C398 C 0.55673 0.99825 0.50345 0.0
C399 C 0.54853 0.97875 0.50448 0.0
H400 H 0.06457 0.3004 0.99622 0.0
H401 H 0.23608 0.32107 0.09538 0.0
H402 H 0.1404 0.27045 0.99329 0.0
H403 H 0.31323 0.29147 0.09165 0.0
H404 H 0.38569 0.22982 0.10498 0.0
H405 H 0.30608 0.25907 0.11082 0.0
H406 H 0.27554 0.25774 0.96404 0.0
H407 H 0.35358 0.22807 0.95862 0.0
C408 C 0.11774 0.29844 0.01785 0.0
C409 C 0.14414 0.31303 0.04619 0.0
C410 C 0.16198 0.28138 0.01572 0.0
C411 C 0.23369 0.27856 0.04184 0.0
C412 C 0.25799 0.29301 0.07136 0.0
C413 C 0.21368 0.31001 0.07354 0.0
C414 C 0.36279 0.23588 0.07387 0.0
C415 C 0.37614 0.2267 0.03131 0.0
C416 C 0.31712 0.25269 0.07719 0.0
C417 C 0.28374 0.26078 0.03797 0.0
C418 C 0.29893 0.25177 0.99512 0.0
C419 C 0.34459 0.23489 0.99184 0.0
H420 H 0.64288 0.80861 0.95329 0.0
H421 H 0.65837 0.81425 0.10033 0.0
H422 H 0.71787 0.77873 0.95519 0.0
H423 H 0.73645 0.78474 0.10231 0.0
H424 H 0.80086 0.7225 0.0967 0.0
H425 H 0.72492 0.75211 0.09555 0.0
H426 H 0.85401 0.76545 0.96428 0.0
H427 H 0.9275 0.7352 0.96477 0.0
C428 C 0.66203 0.80338 0.9861 0.0
C429 C 0.64431 0.81368 0.02672 0.0
C430 C 0.70608 0.78636 0.98714 0.0
C431 C 0.73426 0.77929 0.02882 0.0
C432 C 0.71504 0.78954 0.0696 0.0
C433 C 0.67025 0.80649 0.06857 0.0
C434 C 0.8136 0.73182 0.06773 0.0
C435 C 0.87024 0.72655 0.03082 0.0
C436 C 0.77019 0.7489 0.06715 0.0
C437 C 0.78283 0.76129 0.0298 0.0
C438 C 0.8413 0.75616 0.99328 0.0
C439 C 0.88423 0.73892 0.99369 0.0
H440 H 0.13041 0.7298 0.4381 0.0
H441 H 0.16271 0.72783 0.58442 0.0
H442 H 0.21046 0.75902 0.43265 0.0
H443 H 0.24122 0.75745 0.57938 0.0
H444 H 0.45319 0.79985 0.5479 0.0
H445 H 0.37673 0.76998 0.55019 0.0
H446 H 0.2042 0.79145 0.45239 0.0
H447 H 0.28198 0.82099 0.44932 0.0
C448 C 0.15344 0.73581 0.46929 0.0
C449 C 0.14005 0.72658 0.51172 0.0
C450 C 0.19937 0.7526 0.46619 0.0
C451 C 0.23299 0.7606 0.50551 0.0
C452 C 0.21768 0.75154 0.54823 0.0
C453 C 0.17175 0.7347 0.55128 0.0
C454 C 0.39996 0.79801 0.52624 0.0
C455 C 0.37381 0.81272 0.49828 0.0
C456 C 0.35535 0.78099 0.52801 0.0
C457 C 0.2835 0.77833 0.50189 0.0
C458 C 0.25951 0.79288 0.47269 0.0
C459 C 0.30418 0.80985 0.47088 0.0
H460 H 0.94957 0.30026 0.54995 0.0
H461 H 0.77829 0.32081 0.4507 0.0
H462 H 0.87357 0.27032 0.55294 0.0
H463 H 0.70098 0.29123 0.45446 0.0
H464 H 0.62821 0.22955 0.44129 0.0
H465 H 0.70796 0.25879 0.43539 0.0
H466 H 0.73829 0.25768 0.58219 0.0
H467 H 0.66009 0.22803 0.58768 0.0
C468 C 0.89642 0.29828 0.52831 0.0
C469 C 0.87013 0.31283 0.49994 0.0
C470 C 0.85207 0.28122 0.53047 0.0
C471 C 0.78038 0.27838 0.50434 0.0
C472 C 0.7562 0.29279 0.47478 0.0
C473 C 0.8006 0.30979 0.47257 0.0
C474 C 0.65109 0.23566 0.47239 0.0
C475 C 0.63764 0.22654 0.51498 0.0
C476 C 0.69685 0.25246 0.46903 0.0
C477 C 0.73022 0.26061 0.50824 0.0
C478 C 0.71492 0.25166 0.55111 0.0
C479 C 0.66917 0.2348 0.55443 0.0
H480 H 0.94492 0.37573 0.14243 0.0
H481 H 0.1814 0.40171 0.17628 0.0
H482 H 0.90609 0.37157 0.22472 0.0
H483 H 0.14352 0.39719 0.25834 0.0
H484 H 0.83308 0.40124 0.36976 0.0
H485 H 0.87118 0.39687 0.28765 0.0
H486 H 0.10975 0.37176 0.32096 0.0
H487 H 0.07071 0.37576 0.40331 0.0
C488 C 0.98952 0.38012 0.1674 0.0
C489 C 0.06608 0.38912 0.153 0.0
C490 C 0.96707 0.37783 0.21447 0.0
C491 C 0.02163 0.38411 0.24799 0.0
C492 C 0.10045 0.39208 0.23337 0.0
C493 C 0.12205 0.39472 0.18641 0.0
C494 C 0.89274 0.39438 0.35954 0.0
C495 C 0.94894 0.38888 0.39289 0.0
C496 C 0.91447 0.39183 0.31255 0.0
C497 C 0.99366 0.38405 0.29784 0.0
C498 C 0.04848 0.37786 0.33129 0.0
C499 C 0.02592 0.38006 0.37839 0.0
H500 H 0.87286 0.63076 0.15734 0.0
H501 H 0.12511 0.65483 0.15331 0.0
H502 H 0.8843 0.62317 0.2392 0.0
H503 H 0.13689 0.6473 0.23423 0.0
H504 H 0.15088 0.63158 0.38031 0.0
H505 H 0.14077 0.62424 0.29817 0.0
H506 H 0.88356 0.64589 0.30418 0.0
H507 H 0.89407 0.65318 0.38538 0.0
C508 C 0.93154 0.63391 0.17361 0.0
C509 C 0.99761 0.64362 0.14942 0.0
C510 C 0.93808 0.62964 0.2204 0.0
C511 C 0.01132 0.63476 0.24333 0.0
C512 C 0.07999 0.64299 0.21771 0.0
C513 C 0.07294 0.64747 0.17139 0.0
C514 C 0.09155 0.6342 0.3642 0.0
C515 C 0.02368 0.64317 0.38876 0.0
C516 C 0.08576 0.63009 0.31725 0.0
C517 C 0.01154 0.63462 0.29453 0.0
C518 C 0.94131 0.64205 0.32051 0.0
C519 C 0.94757 0.64639 0.36699 0.0
H520 H 0.07126 0.66735 0.8992 0.0
H521 H 0.83471 0.64116 0.86598 0.0
H522 H 0.1086 0.67184 0.817 0.0
H523 H 0.8714 0.64593 0.78392 0.0
H524 H 0.94199 0.66668 0.63925 0.0
H525 H 0.904 0.67114 0.72142 0.0
H526 H 0.14399 0.64665 0.75471 0.0
H527 H 0.18135 0.64191 0.6727 0.0
C528 C 0.02633 0.66298 0.87438 0.0
C529 C 0.95032 0.65378 0.88885 0.0
C530 C 0.04792 0.66547 0.8274 0.0
C531 C 0.99311 0.65916 0.79411 0.0
C532 C 0.9146 0.65106 0.8088 0.0
C533 C 0.89371 0.64828 0.85572 0.0
C534 C 0.98735 0.66262 0.6641 0.0
C535 C 0.06442 0.65382 0.64971 0.0
C536 C 0.96539 0.66509 0.71108 0.0
C537 C 0.02085 0.65917 0.74441 0.0
C538 C 0.10027 0.65148 0.72979 0.0
C539 C 0.12155 0.64871 0.6829 0.0
H540 H 0.86244 0.36683 0.69202 0.0
H541 H 0.01945 0.41269 0.64062 0.0
H542 H 0.90504 0.37301 0.76997 0.0
H543 H 0.0637 0.41868 0.71949 0.0
H544 H 0.99546 0.41279 0.9055 0.0
H545 H 0.95122 0.41874 0.82664 0.0
H546 H 0.10953 0.37299 0.77606 0.0
H547 H 0.15213 0.36686 0.854 0.0
C548 C 0.90397 0.37864 0.69769 0.0
C549 C 0.93758 0.38929 0.66037 0.0
C550 C 0.92822 0.38217 0.74229 0.0
C551 C 0.98729 0.39633 0.7506 0.0
C552 C 0.0171 0.40785 0.7139 0.0
C553 C 0.99173 0.40445 0.66894 0.0
C554 C 0.02311 0.40452 0.87716 0.0
C555 C 0.07715 0.38935 0.88569 0.0
C556 C 0.99774 0.4079 0.83221 0.0
C557 C 0.02744 0.39634 0.79549 0.0
C558 C 0.08642 0.38217 0.80376 0.0
C559 C 0.11067 0.37867 0.84835 0.0
H560 H 0.44958 0.8749 0.14552 0.0
H561 H 0.68461 0.90184 0.17836 0.0
H562 H 0.41138 0.87098 0.22779 0.0
H563 H 0.64717 0.89754 0.26062 0.0
H564 H 0.33741 0.90169 0.37145 0.0
H565 H 0.3762 0.89718 0.28945 0.0
H566 H 0.61332 0.87161 0.32361 0.0
H567 H 0.57354 0.87571 0.40582 0.0
C568 C 0.494 0.87958 0.17028 0.0
C569 C 0.56988 0.8888 0.1556 0.0
C570 C 0.47191 0.8774 0.21732 0.0
C571 C 0.52614 0.88402 0.25054 0.0
C572 C 0.60444 0.89219 0.23576 0.0
C573 C 0.62575 0.8947 0.18874 0.0
C574 C 0.39685 0.8947 0.36142 0.0
C575 C 0.45248 0.88909 0.3949 0.0
C576 C 0.41898 0.89208 0.31455 0.0
C577 C 0.49796 0.88412 0.30021 0.0
C578 C 0.55222 0.87784 0.33376 0.0
C579 C 0.52922 0.8801 0.38074 0.0
H580 H 0.36681 0.13119 0.16189 0.0
H581 H 0.62162 0.15392 0.1573 0.0
H582 H 0.37793 0.12355 0.24375 0.0
H583 H 0.63307 0.14637 0.23822 0.0
H584 H 0.64619 0.13108 0.38445 0.0
H585 H 0.63513 0.12361 0.30245 0.0
H586 H 0.37947 0.14613 0.30854 0.0
H587 H 0.39085 0.15351 0.38961 0.0
C588 C 0.42592 0.13402 0.17804 0.0
C589 C 0.49287 0.14339 0.15372 0.0
C590 C 0.4323 0.12973 0.22483 0.0
C591 C 0.50619 0.13449 0.24763 0.0
C592 C 0.57561 0.14235 0.22184 0.0
C593 C 0.56877 0.14684 0.17552 0.0
C594 C 0.58697 0.13387 0.36839 0.0
C595 C 0.51984 0.14311 0.39293 0.0
C596 C 0.58063 0.12968 0.32152 0.0
C597 C 0.50662 0.13442 0.29884 0.0
C598 C 0.43703 0.14213 0.32482 0.0
C599 C 0.44383 0.14652 0.37123 0.0
H600 H 0.33411 0.14142 0.87027 0.0
H601 H 0.57254 0.16678 0.90336 0.0
H602 H 0.37071 0.14619 0.78823 0.0
H603 H 0.60976 0.1713 0.82115 0.0
H604 H 0.68024 0.14165 0.67639 0.0
H605 H 0.64362 0.14635 0.75848 0.0
H606 H 0.40407 0.17124 0.72586 0.0
H607 H 0.44131 0.1668 0.64361 0.0
C608 C 0.39354 0.14835 0.85998 0.0
C609 C 0.45065 0.15362 0.89309 0.0
C610 C 0.41438 0.15115 0.81307 0.0
C611 C 0.49333 0.15902 0.79832 0.0
C612 C 0.54874 0.1651 0.83157 0.0
C613 C 0.52721 0.16259 0.87858 0.0
C614 C 0.6207 0.14852 0.68675 0.0
C615 C 0.56345 0.15375 0.65371 0.0
C616 C 0.59984 0.15128 0.7337 0.0
C617 C 0.52074 0.15906 0.74855 0.0
C618 C 0.46521 0.1651 0.71536 0.0
C619 C 0.48674 0.16264 0.66833 0.0
H620 H 0.35939 0.86551 0.68982 0.0
H621 H 0.51301 0.91285 0.64474 0.0
H622 H 0.38006 0.87336 0.76954 0.0
H623 H 0.53518 0.92081 0.7259 0.0
H624 H 0.64795 0.89984 0.87154 0.0
H625 H 0.61444 0.90419 0.79059 0.0
H626 H 0.34666 0.89731 0.82906 0.0
H627 H 0.38056 0.89236 0.90885 0.0
C628 C 0.3962 0.87789 0.69718 0.0
C629 C 0.43415 0.88863 0.66128 0.0
C630 C 0.40788 0.88247 0.74294 0.0
C631 C 0.45895 0.89779 0.7542 0.0
C632 C 0.49538 0.90894 0.71825 0.0
C633 C 0.48218 0.90451 0.67199 0.0
C634 C 0.5819 0.89999 0.86271 0.0
C635 C 0.51676 0.8956 0.89604 0.0
C636 C 0.56261 0.90248 0.81645 0.0
C637 C 0.47798 0.90071 0.80332 0.0
C638 C 0.41256 0.89838 0.83789 0.0
C639 C 0.43186 0.89565 0.8836 0.0
loop_
_geom_bond_atom_site_label_1
_geom_bond_atom_site_label_2
_geom_bond_distance
_geom_bond_site_symmetry_2
_ccdc_geom_bond_type
Dy0 O4 2.398 . S
Dy0 O5 2.491 1_454 S
Dy0 O6 2.403 . S
Dy0 O7 2.664 . S
Dy0 O11 2.326 1_455 S
Dy0 O15 2.310 1_554 S
Dy0 O16 2.351 . S
C1 O12 1.185 1_554 S
C1 O13 1.355 . S
C2 O4 1.185 1_655 S
C2 O5 1.355 1_554 S
Dy3 O7 2.310 . S
Dy3 O10 2.351 1_455 S
Dy3 O12 2.398 1_554 S
Dy3 O13 2.491 . S
Dy3 O14 2.403 1_554 S
Dy3 O15 2.664 1_554 S
Dy3 O17 2.326 1_554 S
O4 Dy0 2.398 . S
O4 C2 1.185 1_455 S
O5 Dy0 2.491 1_656 S
O5 C2 1.355 1_556 S
O6 Dy0 2.403 . S
O6 C8 1.254 . S
O7 Dy0 2.664 . S
O7 Dy3 2.310 . S
O7 C8 1.268 . S
C8 O6 1.254 . S
C8 O7 1.268 . S
C9 O14 1.254 . S
C9 O15 1.268 . S
O10 Dy3 2.351 1_655 S
O10 C18 1.249 . S
O11 Dy0 2.326 1_655 S
O11 C18 1.267 . S
O12 C1 1.185 1_556 S
O12 Dy3 2.398 1_556 S
O13 C1 1.355 . S
O13 Dy3 2.491 . S
O14 Dy3 2.403 1_556 S
O14 C9 1.254 . S
O15 Dy0 2.310 1_556 S
O15 Dy3 2.664 1_556 S
O15 C9 1.268 . S
O16 Dy0 2.351 . S
O16 C19 1.252 . S
O17 Dy3 2.326 1_556 S
O17 C19 1.259 1_556 S
C18 O10 1.249 . S
C18 O11 1.267 . S
C19 O16 1.252 . S
C19 O17 1.259 1_554 S
Dy20 O24 2.398 . S
Dy20 O25 2.491 1_554 S
Dy20 O26 2.403 . S
Dy20 O27 2.664 . S
Dy20 O31 2.326 . S
Dy20 O35 2.310 1_554 S
Dy20 O36 2.351 1_655 S
C21 O32 1.185 1_454 S
C21 O33 1.355 . S
C22 O24 1.185 . S
C22 O25 1.355 1_554 S
Dy23 O27 2.310 . S
Dy23 O30 2.351 . S
Dy23 O32 2.398 1_554 S
Dy23 O33 2.491 1_655 S
Dy23 O34 2.403 1_554 S
Dy23 O35 2.664 1_554 S
Dy23 O37 2.326 1_654 S
O24 Dy20 2.398 . S
O24 C22 1.185 . S
O25 Dy20 2.491 1_556 S
O25 C22 1.355 1_556 S
O26 Dy20 2.403 . S
O26 C28 1.254 . S
O27 Dy20 2.664 . S
O27 Dy23 2.310 . S
O27 C28 1.268 . S
C28 O26 1.254 . S
C28 O27 1.268 . S
C29 O34 1.254 . S
C29 O35 1.268 . S
O30 Dy23 2.351 . S
O30 C38 1.249 . S
O31 Dy20 2.326 . S
O31 C38 1.267 . S
O32 C21 1.185 1_656 S
O32 Dy23 2.398 1_556 S
O33 C21 1.355 . S
O33 Dy23 2.491 1_455 S
O34 Dy23 2.403 1_556 S
O34 C29 1.254 . S
O35 Dy20 2.310 1_556 S
O35 Dy23 2.664 1_556 S
O35 C29 1.268 . S
O36 Dy20 2.351 1_455 S
O36 C39 1.249 . S
O37 Dy23 2.326 1_456 S
O37 C39 1.267 1_556 S
C38 O30 1.249 . S
C38 O31 1.267 . S
C39 O36 1.249 . S
C39 O37 1.267 1_554 S
Dy40 O44 2.398 . S
Dy40 O45 2.491 . S
Dy40 O46 2.403 . S
Dy40 O47 2.664 . S
Dy40 O51 2.326 . S
Dy40 O55 2.310 . S
Dy40 O56 2.351 1_455 S
C41 O52 1.185 1_655 S
C41 O53 1.355 . S
C42 O44 1.185 . S
C42 O45 1.355 . S
Dy43 O47 2.310 . S
Dy43 O50 2.351 . S
Dy43 O52 2.398 . S
Dy43 O53 2.491 1_455 S
Dy43 O54 2.403 . S
Dy43 O55 2.664 . S
Dy43 O57 2.326 1_455 S
O44 Dy40 2.398 . S
O44 C42 1.185 . S
O45 Dy40 2.491 . S
O45 C42 1.355 . S
O46 Dy40 2.403 . S
O46 C48 1.254 . S
O47 Dy40 2.664 . S
O47 Dy43 2.310 . S
O47 C48 1.268 . S
C48 O46 1.254 . S
C48 O47 1.268 . S
C49 O54 1.254 . S
C49 O55 1.268 . S
O50 Dy43 2.351 . S
O50 C58 1.249 . S
O51 Dy40 2.326 . S
O51 C58 1.267 . S
O52 C41 1.185 1_455 S
O52 Dy43 2.398 . S
O53 C41 1.355 . S
O53 Dy43 2.491 1_655 S
O54 Dy43 2.403 . S
O54 C49 1.254 . S
O55 Dy40 2.310 . S
O55 Dy43 2.664 . S
O55 C49 1.268 . S
O56 Dy40 2.351 1_655 S
O56 C59 1.249 . S
O57 Dy43 2.326 1_655 S
O57 C59 1.267 . S
C58 O50 1.249 . S
C58 O51 1.267 . S
C59 O56 1.249 . S
C59 O57 1.267 . S
Dy60 O64 2.398 . S
Dy60 O65 2.491 1_655 S
Dy60 O66 2.403 . S
Dy60 O67 2.664 . S
Dy60 O71 2.326 1_655 S
Dy60 O75 2.310 . S
Dy60 O76 2.351 . S
C61 O72 1.185 . S
C61 O73 1.355 . S
C62 O64 1.185 1_455 S
C62 O65 1.355 . S
Dy63 O67 2.310 . S
Dy63 O70 2.351 1_655 S
Dy63 O72 2.398 . S
Dy63 O73 2.491 . S
Dy63 O74 2.403 . S
Dy63 O75 2.664 . S
Dy63 O77 2.326 . S
O64 Dy60 2.398 . S
O64 C62 1.185 1_655 S
O65 Dy60 2.491 1_455 S
O65 C62 1.355 . S
O66 Dy60 2.403 . S
O66 C68 1.254 . S
O67 Dy60 2.664 . S
O67 Dy63 2.310 . S
O67 C68 1.268 . S
C68 O66 1.254 . S
C68 O67 1.268 . S
C69 O74 1.254 . S
C69 O75 1.268 . S
O70 Dy63 2.351 1_455 S
O70 C78 1.249 . S
O71 Dy60 2.326 1_455 S
O71 C78 1.267 . S
O72 C61 1.185 . S
O72 Dy63 2.398 . S
O73 C61 1.355 . S
O73 Dy63 2.491 . S
O74 Dy63 2.403 . S
O74 C69 1.254 . S
O75 Dy60 2.310 . S
O75 Dy63 2.664 . S
O75 C69 1.268 . S
O76 Dy60 2.351 . S
O76 C79 1.249 . S
O77 Dy63 2.326 . S
O77 C79 1.267 . S
C78 O70 1.249 . S
C78 O71 1.267 . S
C79 O76 1.249 . S
C79 O77 1.267 . S
Dy80 O84 2.398 . S
Dy80 O85 2.491 1_554 S
Dy80 O86 2.403 . S
Dy80 O87 2.664 . S
Dy80 O91 2.326 . S
Dy80 O95 2.310 1_554 S
Dy80 O96 2.351 . S
C81 O92 1.185 1_554 S
C81 O93 1.355 . S
C82 O84 1.185 . S
C82 O85 1.355 1_554 S
Dy83 O87 2.310 . S
Dy83 O90 2.351 . S
Dy83 O92 2.398 1_554 S
Dy83 O93 2.491 . S
Dy83 O94 2.403 1_554 S
Dy83 O95 2.664 1_554 S
Dy83 O97 2.326 1_554 S
O84 Dy80 2.398 . S
O84 C82 1.185 . S
O85 Dy80 2.491 1_556 S
O85 C82 1.355 1_556 S
O86 Dy80 2.403 . S
O86 C88 1.254 . S
O87 Dy80 2.664 . S
O87 Dy83 2.310 . S
O87 C88 1.268 . S
C88 O86 1.254 . S
C88 O87 1.268 . S
C89 O94 1.254 . S
C89 O95 1.268 . S
O90 Dy83 2.351 . S
O90 C98 1.249 . S
O91 Dy80 2.326 . S
O91 C98 1.267 . S
O92 C81 1.185 1_556 S
O92 Dy83 2.398 1_556 S
O93 C81 1.355 . S
O93 Dy83 2.491 . S
O94 Dy83 2.403 1_556 S
O94 C89 1.254 . S
O95 Dy80 2.310 1_556 S
O95 Dy83 2.664 1_556 S
O95 C89 1.268 . S
O96 Dy80 2.351 . S
O96 C99 1.252 . S
O97 Dy83 2.326 1_556 S
O97 C99 1.259 1_556 S
C98 O90 1.249 . S
C98 O91 1.267 . S
C99 O96 1.252 . S
C99 O97 1.259 1_554 S
Dy100 O104 2.398 . S
Dy100 O105 2.491 1_554 S
Dy100 O106 2.403 . S
Dy100 O107 2.664 . S
Dy100 O111 2.326 . S
Dy100 O115 2.310 1_554 S
Dy100 O116 2.351 . S
C101 O112 1.185 1_554 S
C101 O113 1.355 . S
C102 O104 1.185 . S
C102 O105 1.355 1_554 S
Dy103 O107 2.310 . S
Dy103 O110 2.351 . S
Dy103 O112 2.398 1_554 S
Dy103 O113 2.491 . S
Dy103 O114 2.403 1_554 S
Dy103 O115 2.664 1_554 S
Dy103 O117 2.326 1_554 S
O104 Dy100 2.398 . S
O104 C102 1.185 . S
O105 Dy100 2.491 1_556 S
O105 C102 1.355 1_556 S
O106 Dy100 2.403 . S
O106 C108 1.254 . S
O107 Dy100 2.664 . S
O107 Dy103 2.310 . S
O107 C108 1.268 . S
C108 O106 1.254 . S
C108 O107 1.268 . S
C109 O114 1.254 . S
C109 O115 1.268 . S
O110 Dy103 2.351 . S
O110 C118 1.249 . S
O111 Dy100 2.326 . S
O111 C118 1.267 . S
O112 C101 1.185 1_556 S
O112 Dy103 2.398 1_556 S
O113 C101 1.355 . S
O113 Dy103 2.491 . S
O114 Dy103 2.403 1_556 S
O114 C109 1.254 . S
O115 Dy100 2.310 1_556 S
O115 Dy103 2.664 1_556 S
O115 C109 1.268 . S
O116 Dy100 2.351 . S
O116 C119 1.249 . S
O117 Dy103 2.326 1_556 S
O117 C119 1.267 1_556 S
C118 O110 1.249 . S
C118 O111 1.267 . S
C119 O116 1.249 . S
C119 O117 1.267 1_554 S
Dy120 O124 2.398 . S
Dy120 O125 2.491 . S
Dy120 O126 2.403 . S
Dy120 O127 2.664 . S
Dy120 O131 2.326 . S
Dy120 O135 2.310 . S
Dy120 O136 2.351 . S
C121 O132 1.185 . S
C121 O133 1.355 . S
C122 O124 1.185 . S
C122 O125 1.355 . S
Dy123 O127 2.310 . S
Dy123 O130 2.351 . S
Dy123 O132 2.398 . S
Dy123 O133 2.491 . S
Dy123 O134 2.403 . S
Dy123 O135 2.664 . S
Dy123 O137 2.326 . S
O124 Dy120 2.398 . S
O124 C122 1.185 . S
O125 Dy120 2.491 . S
O125 C122 1.355 . S
O126 Dy120 2.403 . S
O126 C128 1.254 . S
O127 Dy120 2.664 . S
O127 Dy123 2.310 . S
O127 C128 1.268 . S
C128 O126 1.254 . S
C128 O127 1.268 . S
C129 O134 1.254 . S
C129 O135 1.268 . S
O130 Dy123 2.351 . S
O130 C138 1.249 . S
O131 Dy120 2.326 . S
O131 C138 1.267 . S
O132 C121 1.185 . S
O132 Dy123 2.398 . S
O133 C121 1.355 . S
O133 Dy123 2.491 . S
O134 Dy123 2.403 . S
O134 C129 1.254 . S
O135 Dy120 2.310 . S
O135 Dy123 2.664 . S
O135 C129 1.268 . S
O136 Dy120 2.351 . S
O136 C139 1.249 . S
O137 Dy123 2.326 . S
O137 C139 1.267 . S
C138 O130 1.249 . S
C138 O131 1.267 . S
C139 O136 1.249 . S
C139 O137 1.267 . S
Dy140 O144 2.398 . S
Dy140 O145 2.491 . S
Dy140 O146 2.403 . S
Dy140 O147 2.664 . S
Dy140 O151 2.326 . S
Dy140 O155 2.310 . S
Dy140 O156 2.351 . S
C141 O152 1.185 . S
C141 O153 1.355 . S
C142 O144 1.185 . S
C142 O145 1.355 . S
Dy143 O147 2.310 . S
Dy143 O150 2.351 . S
Dy143 O152 2.398 . S
Dy143 O153 2.491 . S
Dy143 O154 2.403 . S
Dy143 O155 2.664 . S
Dy143 O157 2.326 . S
O144 Dy140 2.398 . S
O144 C142 1.185 . S
O145 Dy140 2.491 . S
O145 C142 1.355 . S
O146 Dy140 2.403 . S
O146 C148 1.254 . S
O147 Dy140 2.664 . S
O147 Dy143 2.310 . S
O147 C148 1.268 . S
C148 O146 1.254 . S
C148 O147 1.268 . S
C149 O154 1.254 . S
C149 O155 1.268 . S
O150 Dy143 2.351 . S
O150 C158 1.249 . S
O151 Dy140 2.326 . S
O151 C158 1.267 . S
O152 C141 1.185 . S
O152 Dy143 2.398 . S
O153 C141 1.355 . S
O153 Dy143 2.491 . S
O154 Dy143 2.403 . S
O154 C149 1.254 . S
O155 Dy140 2.310 . S
O155 Dy143 2.664 . S
O155 C149 1.268 . S
O156 Dy140 2.351 . S
O156 C159 1.249 . S
O157 Dy143 2.326 . S
O157 C159 1.267 . S
C158 O150 1.249 . S
C158 O151 1.267 . S
C159 O156 1.249 . S
C159 O157 1.267 . S
H160 C168 0.953 . S
H161 C173 0.950 . S
H162 C170 0.950 . S
H163 C172 0.950 . S
H164 C174 0.950 . S
H165 C176 0.950 . S
H166 C178 0.948 1_556 S
H167 C179 0.950 1_556 S
C168 H160 0.953 . S
C168 C169 1.386 . S
C168 C170 1.391 . S
C169 C168 1.386 . S
C169 C173 1.393 . S
C170 H162 0.950 . S
C170 C168 1.391 . S
C170 C171 1.400 . S
C171 C170 1.400 . S
C171 C172 1.398 . S
C171 C177 1.491 . S
C172 H163 0.950 . S
C172 C171 1.398 . S
C172 C173 1.391 . S
C173 H161 0.950 . S
C173 C169 1.393 . S
C173 C172 1.391 . S
C174 H164 0.950 . S
C174 C175 1.386 . S
C174 C176 1.391 . S
C175 C174 1.386 . S
C175 C179 1.393 . S
C176 H165 0.950 . S
C176 C174 1.391 . S
C176 C177 1.400 . S
C177 C171 1.491 . S
C177 C176 1.400 . S
C177 C178 1.399 . S
C178 H166 0.948 1_554 S
C178 C177 1.399 . S
C178 C179 1.392 . S
C179 H167 0.950 1_554 S
C179 C175 1.393 . S
C179 C178 1.392 . S
H180 C188 0.950 . S
H181 C193 0.950 . S
H182 C190 0.950 . S
H183 C192 0.950 . S
H184 C194 0.950 . S
H185 C196 0.950 . S
H186 C198 0.950 . S
H187 C199 0.950 . S
C188 H180 0.950 . S
C188 C189 1.386 1_556 S
C188 C190 1.391 . S
C189 C188 1.386 1_554 S
C189 C193 1.393 . S
C190 H182 0.950 . S
C190 C188 1.391 . S
C190 C191 1.400 1_556 S
C191 C190 1.400 1_554 S
C191 C192 1.398 . S
C191 C197 1.491 . S
C192 H183 0.950 . S
C192 C191 1.398 . S
C192 C193 1.391 . S
C193 H181 0.950 . S
C193 C189 1.393 . S
C193 C192 1.391 . S
C194 H184 0.950 . S
C194 C195 1.386 . S
C194 C196 1.391 . S
C195 C194 1.386 . S
C195 C199 1.393 1_554 S
C196 H185 0.950 . S
C196 C194 1.391 . S
C196 C197 1.400 . S
C197 C191 1.491 . S
C197 C196 1.400 . S
C197 C198 1.398 1_554 S
C198 H186 0.950 . S
C198 C197 1.398 1_556 S
C198 C199 1.391 . S
C199 H187 0.950 . S
C199 C195 1.393 1_556 S
C199 C198 1.391 . S
H200 C208 0.950 . S
H201 C213 0.950 . S
H202 C210 0.950 . S
H203 C212 0.950 . S
H204 C214 0.950 . S
H205 C216 0.950 . S
H206 C218 0.950 . S
H207 C219 0.950 . S
C208 H200 0.950 . S
C208 C209 1.386 . S
C208 C210 1.391 . S
C209 C208 1.386 . S
C209 C213 1.393 . S
C210 H202 0.950 . S
C210 C208 1.391 . S
C210 C211 1.400 . S
C211 C210 1.400 . S
C211 C212 1.398 . S
C211 C217 1.491 . S
C212 H203 0.950 . S
C212 C211 1.398 . S
C212 C213 1.391 . S
C213 H201 0.950 . S
C213 C209 1.393 . S
C213 C212 1.391 . S
C214 H204 0.950 . S
C214 C215 1.386 . S
C214 C216 1.391 . S
C215 C214 1.386 . S
C215 C219 1.393 . S
C216 H205 0.950 . S
C216 C214 1.391 . S
C216 C217 1.400 . S
C217 C211 1.491 . S
C217 C216 1.400 . S
C217 C218 1.398 . S
C218 H206 0.950 . S
C218 C217 1.398 . S
C218 C219 1.391 . S
C219 H207 0.950 . S
C219 C215 1.393 . S
C219 C218 1.391 . S
H220 C228 0.950 . S
H221 C233 0.950 . S
H222 C230 0.950 . S
H223 C232 0.950 . S
H224 C234 0.950 . S
H225 C236 0.950 . S
H226 C238 0.950 . S
H227 C239 0.950 . S
C228 H220 0.950 . S
C228 C229 1.386 . S
C228 C230 1.391 . S
C229 C228 1.386 . S
C229 C233 1.393 . S
C230 H222 0.950 . S
C230 C228 1.391 . S
C230 C231 1.400 . S
C231 C230 1.400 . S
C231 C232 1.398 . S
C231 C237 1.491 . S
C232 H223 0.950 . S
C232 C231 1.398 . S
C232 C233 1.391 . S
C233 H221 0.950 . S
C233 C229 1.393 . S
C233 C232 1.391 . S
C234 H224 0.950 . S
C234 C235 1.386 . S
C234 C236 1.391 . S
C235 C234 1.386 . S
C235 C239 1.393 . S
C236 H225 0.950 . S
C236 C234 1.391 . S
C236 C237 1.400 . S
C237 C231 1.491 . S
C237 C236 1.400 . S
C237 C238 1.398 . S
C238 H226 0.950 . S
C238 C237 1.398 . S
C238 C239 1.391 . S
C239 H227 0.950 . S
C239 C235 1.393 . S
C239 C238 1.391 . S
H240 C248 0.950 . S
H241 C253 0.950 . S
H242 C250 0.950 1_455 S
H243 C252 0.950 . S
H244 C254 0.950 . S
H245 C256 0.950 . S
H246 C258 0.950 . S
H247 C259 0.950 . S
C248 H240 0.950 . S
C248 C249 1.386 1_556 S
C248 C250 1.391 . S
C249 C248 1.386 1_554 S
C249 C253 1.393 . S
C250 H242 0.950 1_655 S
C250 C248 1.391 . S
C250 C251 1.400 1_656 S
C251 C250 1.400 1_454 S
C251 C252 1.398 1_455 S
C251 C257 1.491 . S
C252 H243 0.950 . S
C252 C251 1.398 1_655 S
C252 C253 1.391 . S
C253 H241 0.950 . S
C253 C249 1.393 . S
C253 C252 1.391 . S
C254 H244 0.950 . S
C254 C255 1.386 . S
C254 C256 1.391 . S
C255 C254 1.386 . S
C255 C259 1.393 1_554 S
C256 H245 0.950 . S
C256 C254 1.391 . S
C256 C257 1.400 . S
C257 C251 1.491 . S
C257 C256 1.400 . S
C257 C258 1.398 1_554 S
C258 H246 0.950 . S
C258 C257 1.398 1_556 S
C258 C259 1.391 . S
C259 H247 0.950 . S
C259 C255 1.393 1_556 S
C259 C258 1.391 . S
H260 C268 0.950 . S
H261 C273 0.950 . S
H262 C270 0.950 . S
H263 C272 0.950 1_655 S
H264 C274 0.950 . S
H265 C276 0.950 . S
H266 C278 0.951 . S
H267 C279 0.950 . S
C268 H260 0.950 . S
C268 C269 1.386 . S
C268 C270 1.391 . S
C269 C268 1.386 . S
C269 C273 1.393 . S
C270 H262 0.950 . S
C270 C268 1.391 . S
C270 C271 1.400 1_455 S
C271 C270 1.400 1_655 S
C271 C272 1.398 1_655 S
C271 C277 1.491 . S
C272 H263 0.950 1_455 S
C272 C271 1.398 1_455 S
C272 C273 1.391 . S
C273 H261 0.950 . S
C273 C269 1.393 . S
C273 C272 1.391 . S
C274 H264 0.950 . S
C274 C275 1.386 . S
C274 C276 1.391 . S
C275 C274 1.386 . S
C275 C279 1.393 . S
C276 H265 0.950 . S
C276 C274 1.391 . S
C276 C277 1.400 . S
C277 C271 1.491 . S
C277 C276 1.400 . S
C277 C278 1.398 . S
C278 H266 0.951 . S
C278 C277 1.398 . S
C278 C279 1.391 . S
C279 H267 0.950 . S
C279 C275 1.393 . S
C279 C278 1.391 . S
H280 C288 0.950 . S
H281 C293 0.950 . S
H282 C290 0.950 . S
H283 C292 0.950 . S
H284 C294 0.950 . S
H285 C296 0.950 . S
H286 C298 0.950 1_455 S
H287 C299 0.950 . S
C288 H280 0.950 . S
C288 C289 1.386 . S
C288 C290 1.391 . S
C289 C288 1.386 . S
C289 C293 1.393 . S
C290 H282 0.950 . S
C290 C288 1.391 . S
C290 C291 1.400 . S
C291 C290 1.400 . S
C291 C292 1.398 . S
C291 C297 1.491 . S
C292 H283 0.950 . S
C292 C291 1.398 . S
C292 C293 1.391 . S
C293 H281 0.950 . S
C293 C289 1.393 . S
C293 C292 1.391 . S
C294 H284 0.950 . S
C294 C295 1.386 . S
C294 C296 1.391 . S
C295 C294 1.386 . S
C295 C299 1.393 . S
C296 H285 0.950 . S
C296 C294 1.391 . S
C296 C297 1.400 1_655 S
C297 C291 1.491 . S
C297 C296 1.400 1_455 S
C297 C298 1.398 1_455 S
C298 H286 0.950 1_655 S
C298 C297 1.398 1_655 S
C298 C299 1.391 . S
C299 H287 0.950 . S
C299 C295 1.393 . S
C299 C298 1.391 . S
H300 C308 0.950 . S
H301 C313 0.950 . S
H302 C310 0.950 . S
H303 C312 0.950 . S
H304 C314 0.950 . S
H305 C316 0.950 . S
H306 C318 0.950 1_655 S
H307 C319 0.950 . S
C308 H300 0.950 . S
C308 C309 1.386 . S
C308 C310 1.391 . S
C309 C308 1.386 . S
C309 C313 1.393 . S
C310 H302 0.950 . S
C310 C308 1.391 . S
C310 C311 1.400 . S
C311 C310 1.400 . S
C311 C312 1.398 . S
C311 C317 1.491 . S
C312 H303 0.950 . S
C312 C311 1.398 . S
C312 C313 1.391 . S
C313 H301 0.950 . S
C313 C309 1.393 . S
C313 C312 1.391 . S
C314 H304 0.950 . S
C314 C315 1.386 . S
C314 C316 1.391 . S
C315 C314 1.386 . S
C315 C319 1.393 . S
C316 H305 0.950 . S
C316 C314 1.391 . S
C316 C317 1.400 1_455 S
C317 C311 1.491 . S
C317 C316 1.400 1_655 S
C317 C318 1.398 1_655 S
C318 H306 0.950 1_455 S
C318 C317 1.398 1_455 S
C318 C319 1.391 . S
C319 H307 0.950 . S
C319 C315 1.393 . S
C319 C318 1.391 . S
H320 C328 0.950 . S
H321 C333 0.950 . S
H322 C330 0.950 1_655 S
H323 C332 0.950 . S
H324 C334 0.950 . S
H325 C336 0.950 1_455 S
H326 C338 0.950 . S
H327 C339 0.950 . S
C328 H320 0.950 . S
C328 C329 1.386 1_556 S
C328 C330 1.391 . S
C329 C328 1.386 1_554 S
C329 C333 1.393 . S
C330 H322 0.950 1_455 S
C330 C328 1.391 . S
C330 C331 1.400 1_556 S
C331 C330 1.400 1_554 S
C331 C332 1.398 . S
C331 C337 1.491 1_455 S
C332 H323 0.950 . S
C332 C331 1.398 . S
C332 C333 1.391 . S
C333 H321 0.950 . S
C333 C329 1.393 . S
C333 C332 1.391 . S
C334 H324 0.950 . S
C334 C335 1.386 . S
C334 C336 1.391 . S
C335 C334 1.386 . S
C335 C339 1.393 1_554 S
C336 H325 0.950 1_655 S
C336 C334 1.391 . S
C336 C337 1.400 . S
C337 C331 1.491 1_655 S
C337 C336 1.400 . S
C337 C338 1.398 1_554 S
C338 H326 0.950 . S
C338 C337 1.398 1_556 S
C338 C339 1.391 . S
C339 H327 0.950 . S
C339 C335 1.393 1_556 S
C339 C338 1.391 . S
H340 C348 0.950 . S
H341 C353 0.950 . S
H342 C350 0.950 . S
H343 C352 0.950 . S
H344 C354 0.950 . S
H345 C356 0.950 . S
H346 C358 0.950 . S
H347 C359 0.950 . S
C348 H340 0.950 . S
C348 C349 1.386 . S
C348 C350 1.391 . S
C349 C348 1.386 . S
C349 C353 1.393 1_455 S
C350 H342 0.950 . S
C350 C348 1.391 . S
C350 C351 1.400 . S
C351 C350 1.400 . S
C351 C352 1.398 1_455 S
C351 C357 1.491 1_455 S
C352 H343 0.950 . S
C352 C351 1.398 1_655 S
C352 C353 1.391 . S
C353 H341 0.950 . S
C353 C349 1.393 1_655 S
C353 C352 1.391 . S
C354 H344 0.950 . S
C354 C355 1.386 . S
C354 C356 1.391 . S
C355 C354 1.386 . S
C355 C359 1.393 1_655 S
C356 H345 0.950 . S
C356 C354 1.391 . S
C356 C357 1.400 . S
C357 C351 1.491 1_655 S
C357 C356 1.400 . S
C357 C358 1.398 1_655 S
C358 H346 0.950 . S
C358 C357 1.398 1_455 S
C358 C359 1.391 . S
C359 H347 0.950 . S
C359 C355 1.393 1_455 S
C359 C358 1.391 . S
H360 C368 0.950 . S
H361 C373 0.950 . S
H362 C370 0.950 . S
H363 C372 0.950 . S
H364 C374 0.950 . S
H365 C376 0.950 . S
H366 C378 0.950 . S
H367 C379 0.950 . S
C368 H360 0.950 . S
C368 C369 1.386 . S
C368 C370 1.391 . S
C369 C368 1.386 . S
C369 C373 1.393 1_554 S
C370 H362 0.950 . S
C370 C368 1.391 . S
C370 C371 1.400 . S
C371 C370 1.400 . S
C371 C372 1.398 1_554 S
C371 C377 1.491 1_565 S
C372 H363 0.950 . S
C372 C371 1.398 1_556 S
C372 C373 1.391 . S
C373 H361 0.950 . S
C373 C369 1.393 1_556 S
C373 C372 1.391 . S
C374 H364 0.950 . S
C374 C375 1.386 1_556 S
C374 C376 1.391 . S
C375 C374 1.386 1_554 S
C375 C379 1.393 . S
C376 H365 0.950 . S
C376 C374 1.391 . S
C376 C377 1.400 1_556 S
C377 C371 1.491 1_545 S
C377 C376 1.400 1_554 S
C377 C378 1.398 . S
C378 H366 0.950 . S
C378 C377 1.398 . S
C378 C379 1.391 . S
C379 H367 0.950 . S
C379 C375 1.393 . S
C379 C378 1.391 . S
H380 C388 0.950 . S
H381 C393 0.950 . S
H382 C390 0.950 . S
H383 C392 0.950 . S
H384 C394 0.950 . S
H385 C396 0.950 . S
H386 C398 0.950 . S
H387 C399 0.950 . S
C388 H380 0.950 . S
C388 C389 1.386 . S
C388 C390 1.391 . S
C389 C388 1.386 . S
C389 C393 1.393 . S
C390 H382 0.950 . S
C390 C388 1.391 . S
C390 C391 1.400 . S
C391 C390 1.400 . S
C391 C392 1.398 . S
C391 C397 1.491 1_545 S
C392 H383 0.950 . S
C392 C391 1.398 . S
C392 C393 1.391 . S
C393 H381 0.950 . S
C393 C389 1.393 . S
C393 C392 1.391 . S
C394 H384 0.950 . S
C394 C395 1.386 . S
C394 C396 1.391 . S
C395 C394 1.386 . S
C395 C399 1.393 . S
C396 H385 0.950 . S
C396 C394 1.391 . S
C396 C397 1.400 . S
C397 C391 1.491 1_565 S
C397 C396 1.400 . S
C397 C398 1.398 . S
C398 H386 0.950 . S
C398 C397 1.398 . S
C398 C399 1.391 . S
C399 H387 0.950 . S
C399 C395 1.393 . S
C399 C398 1.391 . S
H400 C408 0.950 . S
H401 C413 0.950 . S
H402 C410 0.950 . S
H403 C412 0.950 . S
H404 C414 0.950 . S
H405 C416 0.950 . S
H406 C418 0.950 . S
H407 C419 0.950 . S
C408 H400 0.950 . S
C408 C409 1.386 1_556 S
C408 C410 1.391 . S
C409 C408 1.386 1_554 S
C409 C413 1.393 . S
C410 H402 0.950 . S
C410 C408 1.391 . S
C410 C411 1.400 1_556 S
C411 C410 1.400 1_554 S
C411 C412 1.398 . S
C411 C417 1.491 . S
C412 H403 0.950 . S
C412 C411 1.398 . S
C412 C413 1.391 . S
C413 H401 0.950 . S
C413 C409 1.393 . S
C413 C412 1.391 . S
C414 H404 0.950 . S
C414 C415 1.386 . S
C414 C416 1.391 . S
C415 C414 1.386 . S
C415 C419 1.393 1_554 S
C416 H405 0.950 . S
C416 C414 1.391 . S
C416 C417 1.400 . S
C417 C411 1.491 . S
C417 C416 1.400 . S
C417 C418 1.398 1_554 S
C418 H406 0.950 . S
C418 C417 1.398 1_556 S
C418 C419 1.391 . S
C419 H407 0.950 . S
C419 C415 1.393 1_556 S
C419 C418 1.391 . S
H420 C428 0.950 . S
H421 C433 0.950 . S
H422 C430 0.950 . S
H423 C432 0.950 . S
H424 C434 0.950 . S
H425 C436 0.950 . S
H426 C438 0.950 . S
H427 C439 0.950 . S
C428 H420 0.950 . S
C428 C429 1.386 1_556 S
C428 C430 1.391 . S
C429 C428 1.386 1_554 S
C429 C433 1.393 . S
C430 H422 0.950 . S
C430 C428 1.391 . S
C430 C431 1.400 1_556 S
C431 C430 1.400 1_554 S
C431 C432 1.398 . S
C431 C437 1.491 . S
C432 H423 0.950 . S
C432 C431 1.398 . S
C432 C433 1.391 . S
C433 H421 0.950 . S
C433 C429 1.393 . S
C433 C432 1.391 . S
C434 H424 0.950 . S
C434 C435 1.386 . S
C434 C436 1.391 . S
C435 C434 1.386 . S
C435 C439 1.393 1_554 S
C436 H425 0.950 . S
C436 C434 1.391 . S
C436 C437 1.400 . S
C437 C431 1.491 . S
C437 C436 1.400 . S
C437 C438 1.398 1_554 S
C438 H426 0.950 . S
C438 C437 1.398 1_556 S
C438 C439 1.391 . S
C439 H427 0.950 . S
C439 C435 1.393 1_556 S
C439 C438 1.391 . S
H440 C448 0.950 . S
H441 C453 0.950 . S
H442 C450 0.950 . S
H443 C452 0.950 . S
H444 C454 0.950 . S
H445 C456 0.950 . S
H446 C458 0.950 . S
H447 C459 0.950 . S
C448 H440 0.950 . S
C448 C449 1.386 . S
C448 C450 1.391 . S
C449 C448 1.386 . S
C449 C453 1.393 . S
C450 H442 0.950 . S
C450 C448 1.391 . S
C450 C451 1.400 . S
C451 C450 1.400 . S
C451 C452 1.398 . S
C451 C457 1.491 . S
C452 H443 0.950 . S
C452 C451 1.398 . S
C452 C453 1.391 . S
C453 H441 0.950 . S
C453 C449 1.393 . S
C453 C452 1.391 . S
C454 H444 0.950 . S
C454 C455 1.386 . S
C454 C456 1.391 . S
C455 C454 1.386 . S
C455 C459 1.393 . S
C456 H445 0.950 . S
C456 C454 1.391 . S
C456 C457 1.400 . S
C457 C451 1.491 . S
C457 C456 1.400 . S
C457 C458 1.398 . S
C458 H446 0.950 . S
C458 C457 1.398 . S
C458 C459 1.391 . S
C459 H447 0.950 . S
C459 C455 1.393 . S
C459 C458 1.391 . S
H460 C468 0.950 . S
H461 C473 0.950 . S
H462 C470 0.950 . S
H463 C472 0.950 . S
H464 C474 0.950 . S
H465 C476 0.950 . S
H466 C478 0.950 . S
H467 C479 0.950 . S
C468 H460 0.950 . S
C468 C469 1.386 . S
C468 C470 1.391 . S
C469 C468 1.386 . S
C469 C473 1.393 . S
C470 H462 0.950 . S
C470 C468 1.391 . S
C470 C471 1.400 . S
C471 C470 1.400 . S
C471 C472 1.398 . S
C471 C477 1.491 . S
C472 H463 0.950 . S
C472 C471 1.398 . S
C472 C473 1.391 . S
C473 H461 0.950 . S
C473 C469 1.393 . S
C473 C472 1.391 . S
C474 H464 0.950 . S
C474 C475 1.386 . S
C474 C476 1.391 . S
C475 C474 1.386 . S
C475 C479 1.393 . S
C476 H465 0.950 . S
C476 C474 1.391 . S
C476 C477 1.400 . S
C477 C471 1.491 . S
C477 C476 1.400 . S
C477 C478 1.398 . S
C478 H466 0.950 . S
C478 C477 1.398 . S
C478 C479 1.391 . S
C479 H467 0.950 . S
C479 C475 1.393 . S
C479 C478 1.391 . S
H480 C488 0.950 . S
H481 C493 0.950 . S
H482 C490 0.950 . S
H483 C492 0.950 . S
H484 C494 0.950 . S
H485 C496 0.950 . S
H486 C498 0.950 . S
H487 C499 0.950 . S
C488 H480 0.950 . S
C488 C489 1.386 . S
C488 C490 1.391 . S
C489 C488 1.386 . S
C489 C493 1.393 1_455 S
C490 H482 0.950 . S
C490 C488 1.391 . S
C490 C491 1.400 . S
C491 C490 1.400 . S
C491 C492 1.398 1_455 S
C491 C497 1.491 1_455 S
C492 H483 0.950 . S
C492 C491 1.398 1_655 S
C492 C493 1.391 . S
C493 H481 0.950 . S
C493 C489 1.393 1_655 S
C493 C492 1.391 . S
C494 H484 0.950 . S
C494 C495 1.386 . S
C494 C496 1.391 . S
C495 C494 1.386 . S
C495 C499 1.393 1_655 S
C496 H485 0.950 . S
C496 C494 1.391 . S
C496 C497 1.400 . S
C497 C491 1.491 1_655 S
C497 C496 1.400 . S
C497 C498 1.398 1_655 S
C498 H486 0.950 . S
C498 C497 1.398 1_455 S
C498 C499 1.391 . S
C499 H487 0.950 . S
C499 C495 1.393 1_455 S
C499 C498 1.391 . S
H500 C508 0.950 . S
H501 C513 0.950 . S
H502 C510 0.950 . S
H503 C512 0.950 . S
H504 C514 0.950 . S
H505 C516 0.950 . S
H506 C518 0.950 . S
H507 C519 0.950 . S
C508 H500 0.950 . S
C508 C509 1.386 . S
C508 C510 1.391 . S
C509 C508 1.386 . S
C509 C513 1.393 1_655 S
C510 H502 0.950 . S
C510 C508 1.391 . S
C510 C511 1.400 . S
C511 C510 1.400 . S
C511 C512 1.398 1_655 S
C511 C517 1.491 1_655 S
C512 H503 0.950 . S
C512 C511 1.398 1_455 S
C512 C513 1.391 . S
C513 H501 0.950 . S
C513 C509 1.393 1_455 S
C513 C512 1.391 . S
C514 H504 0.950 . S
C514 C515 1.386 . S
C514 C516 1.391 . S
C515 C514 1.386 . S
C515 C519 1.393 1_455 S
C516 H505 0.950 . S
C516 C514 1.391 . S
C516 C517 1.400 . S
C517 C511 1.491 1_455 S
C517 C516 1.400 . S
C517 C518 1.398 1_455 S
C518 H506 0.950 . S
C518 C517 1.398 1_655 S
C518 C519 1.391 . S
C519 H507 0.950 . S
C519 C515 1.393 1_655 S
C519 C518 1.391 . S
H520 C528 0.950 . S
H521 C533 0.950 . S
H522 C530 0.950 . S
H523 C532 0.950 . S
H524 C534 0.950 . S
H525 C536 0.950 . S
H526 C538 0.950 . S
H527 C539 0.950 . S
C528 H520 0.950 . S
C528 C529 1.386 1_455 S
C528 C530 1.391 . S
C529 C528 1.386 1_655 S
C529 C533 1.393 . S
C530 H522 0.950 . S
C530 C528 1.391 . S
C530 C531 1.400 1_455 S
C531 C530 1.400 1_655 S
C531 C532 1.398 . S
C531 C537 1.491 1_655 S
C532 H523 0.950 . S
C532 C531 1.398 . S
C532 C533 1.391 . S
C533 H521 0.950 . S
C533 C529 1.393 . S
C533 C532 1.391 . S
C534 H524 0.950 . S
C534 C535 1.386 1_655 S
C534 C536 1.391 . S
C535 C534 1.386 1_455 S
C535 C539 1.393 . S
C536 H525 0.950 . S
C536 C534 1.391 . S
C536 C537 1.400 1_655 S
C537 C531 1.491 1_455 S
C537 C536 1.400 1_455 S
C537 C538 1.398 . S
C538 H526 0.950 . S
C538 C537 1.398 . S
C538 C539 1.391 . S
C539 H527 0.950 . S
C539 C535 1.393 . S
C539 C538 1.391 . S
H540 C548 0.950 . S
H541 C553 0.950 . S
H542 C550 0.950 . S
H543 C552 0.950 . S
H544 C554 0.950 . S
H545 C556 0.950 . S
H546 C558 0.950 . S
H547 C559 0.950 . S
C548 H540 0.950 . S
C548 C549 1.386 . S
C548 C550 1.391 . S
C549 C548 1.386 . S
C549 C553 1.393 . S
C550 H542 0.950 . S
C550 C548 1.391 . S
C550 C551 1.400 . S
C551 C550 1.400 . S
C551 C552 1.398 . S
C551 C557 1.491 1_655 S
C552 H543 0.950 . S
C552 C551 1.398 . S
C552 C553 1.391 . S
C553 H541 0.950 . S
C553 C549 1.393 . S
C553 C552 1.391 . S
C554 H544 0.950 . S
C554 C555 1.386 . S
C554 C556 1.391 . S
C555 C554 1.386 . S
C555 C559 1.393 . S
C556 H545 0.950 . S
C556 C554 1.391 . S
C556 C557 1.400 . S
C557 C551 1.491 1_455 S
C557 C556 1.400 . S
C557 C558 1.398 . S
C558 H546 0.950 . S
C558 C557 1.398 . S
C558 C559 1.391 . S
C559 H547 0.950 . S
C559 C555 1.393 . S
C559 C558 1.391 . S
H560 C568 0.950 . S
H561 C573 0.950 . S
H562 C570 0.950 . S
H563 C572 0.950 . S
H564 C574 0.950 . S
H565 C576 0.950 . S
H566 C578 0.950 . S
H567 C579 0.950 . S
C568 H560 0.950 . S
C568 C569 1.386 . S
C568 C570 1.391 . S
C569 C568 1.386 . S
C569 C573 1.393 . S
C570 H562 0.950 . S
C570 C568 1.391 . S
C570 C571 1.400 . S
C571 C570 1.400 . S
C571 C572 1.398 . S
C571 C577 1.491 . S
C572 H563 0.950 . S
C572 C571 1.398 . S
C572 C573 1.391 . S
C573 H561 0.950 . S
C573 C569 1.393 . S
C573 C572 1.391 . S
C574 H564 0.950 . S
C574 C575 1.386 . S
C574 C576 1.391 . S
C575 C574 1.386 . S
C575 C579 1.393 . S
C576 H565 0.950 . S
C576 C574 1.391 . S
C576 C577 1.400 . S
C577 C571 1.491 . S
C577 C576 1.400 . S
C577 C578 1.398 . S
C578 H566 0.950 . S
C578 C577 1.398 . S
C578 C579 1.391 . S
C579 H567 0.950 . S
C579 C575 1.393 . S
C579 C578 1.391 . S
H580 C588 0.950 . S
H581 C593 0.950 . S
H582 C590 0.950 . S
H583 C592 0.950 . S
H584 C594 0.950 . S
H585 C596 0.950 . S
H586 C598 0.950 . S
H587 C599 0.950 . S
C588 H580 0.950 . S
C588 C589 1.386 . S
C588 C590 1.391 . S
C589 C588 1.386 . S
C589 C593 1.393 . S
C590 H582 0.950 . S
C590 C588 1.391 . S
C590 C591 1.400 . S
C591 C590 1.400 . S
C591 C592 1.398 . S
C591 C597 1.491 . S
C592 H583 0.950 . S
C592 C591 1.398 . S
C592 C593 1.391 . S
C593 H581 0.950 . S
C593 C589 1.393 . S
C593 C592 1.391 . S
C594 H584 0.950 . S
C594 C595 1.386 . S
C594 C596 1.391 . S
C595 C594 1.386 . S
C595 C599 1.393 . S
C596 H585 0.950 . S
C596 C594 1.391 . S
C596 C597 1.400 . S
C597 C591 1.491 . S
C597 C596 1.400 . S
C597 C598 1.398 . S
C598 H586 0.950 . S
C598 C597 1.398 . S
C598 C599 1.391 . S
C599 H587 0.950 . S
C599 C595 1.393 . S
C599 C598 1.391 . S
H600 C608 0.950 . S
H601 C613 0.950 . S
H602 C610 0.950 . S
H603 C612 0.950 . S
H604 C614 0.950 . S
H605 C616 0.950 . S
H606 C618 0.950 . S
H607 C619 0.950 . S
C608 H600 0.950 . S
C608 C609 1.386 . S
C608 C610 1.391 . S
C609 C608 1.386 . S
C609 C613 1.393 . S
C610 H602 0.950 . S
C610 C608 1.391 . S
C610 C611 1.400 . S
C611 C610 1.400 . S
C611 C612 1.398 . S
C611 C617 1.491 . S
C612 H603 0.950 . S
C612 C611 1.398 . S
C612 C613 1.391 . S
C613 H601 0.950 . S
C613 C609 1.393 . S
C613 C612 1.391 . S
C614 H604 0.950 . S
C614 C615 1.386 . S
C614 C616 1.391 . S
C615 C614 1.386 . S
C615 C619 1.393 . S
C616 H605 0.950 . S
C616 C614 1.391 . S
C616 C617 1.400 . S
C617 C611 1.491 . S
C617 C616 1.400 . S
C617 C618 1.398 . S
C618 H606 0.950 . S
C618 C617 1.398 . S
C618 C619 1.391 . S
C619 H607 0.950 . S
C619 C615 1.393 . S
C619 C618 1.391 . S
H620 C628 0.950 . S
H621 C633 0.950 . S
H622 C630 0.950 . S
H623 C632 0.950 . S
H624 C634 0.950 . S
H625 C636 0.950 . S
H626 C638 0.950 . S
H627 C639 0.950 . S
C628 H620 0.950 . S
C628 C629 1.386 . S
C628 C630 1.391 . S
C629 C628 1.386 . S
C629 C633 1.393 . S
C630 H622 0.950 . S
C630 C628 1.391 . S
C630 C631 1.400 . S
C631 C630 1.400 . S
C631 C632 1.398 . S
C631 C637 1.491 . S
C632 H623 0.950 . S
C632 C631 1.398 . S
C632 C633 1.391 . S
C633 H621 0.950 . S
C633 C629 1.393 . S
C633 C632 1.391 . S
C634 H624 0.950 . S
C634 C635 1.386 . S
C634 C636 1.391 . S
C635 C634 1.386 . S
C635 C639 1.393 . S
C636 H625 0.950 . S
C636 C634 1.391 . S
C636 C637 1.400 . S
C637 C631 1.491 . S
C637 C636 1.400 . S
C637 C638 1.398 . S
C638 H626 0.950 . S
C638 C637 1.398 . S
C638 C639 1.391 . S
C639 H627 0.950 . S
C639 C635 1.393 . S
C639 C638 1.391 . S
C169 C19 1.808 . S
C175 C18 1.804 . S
C189 C39 1.795 . S
C195 C38 1.795 . S
C209 C59 1.793 . S
C215 C58 1.793 . S
C229 C79 1.800 . S
C235 C78 1.800 . S
C249 C99 1.796 . S
C255 C98 1.793 . S
C269 C118 1.797 . S
C275 C119 1.797 . S
C289 C139 1.808 . S
C295 C138 1.808 . S
C309 C158 1.800 . S
C315 C159 1.800 . S
C329 C21 1.772 . S
C335 C2 1.772 . S
C349 C62 1.750 . S
C355 C41 1.750 . S
C369 C82 1.748 . S
C375 C101 1.748 . S
C389 C121 1.741 . S
C395 C142 1.741 . S
C409 C1 1.522 . S
C415 C102 1.522 . S
C429 C81 1.531 . S
C435 C22 1.531 . S
C449 C42 1.525 . S
C455 C141 1.525 . S
C469 C61 1.520 . S
C475 C122 1.520 . S
C489 C8 1.483 . S
C495 C68 1.502 . S
C509 C28 1.574 . S
C515 C48 1.552 . S
C529 C29 1.480 . S
C535 C49 1.503 . S
C549 C69 1.558 . S
C555 C9 1.556 . S
C569 C88 1.484 . S
C575 C148 1.502 . S
C589 C108 1.577 . S
C595 C128 1.560 . S
C609 C109 1.502 . S
C615 C129 1.480 . S
C629 C149 1.552 . S
C635 C89 1.564 . S
