# Generated by pormake.
# Topology unh, (4)-cn, num edge types: 1
# Building blocks:
#     Node 0, Type 0, BuildingBlock: ICAMEG_clean_sbu_1, # of connection points: 4
#     Node 1, Type 0, BuildingBlock: ICAMEG_clean_sbu_1, # of connection points: 4
#     Node 2, Type 0, BuildingBlock: ICAMEG_clean_sbu_1, # of connection points: 4
#     Node 3, Type 0, BuildingBlock: ICAMEG_clean_sbu_1, # of connection points: 4
#     Node 4, Type 0, BuildingBlock: ICAMEG_clean_sbu_1, # of connection points: 4
#     Node 5, Type 0, BuildingBlock: ICAMEG_clean_sbu_1, # of connection points: 4
#     Edge 6, Type (0, 0), BuildingBlock: KIFKEQ_clean_linker_1, # of connection points: 2
#     Edge 7, Type (0, 0), BuildingBlock: KIFKEQ_clean_linker_1, # of connection points: 2
#     Edge 8, Type (0, 0), BuildingBlock: KIFKEQ_clean_linker_1, # of connection points: 2
#     Edge 9, Type (0, 0), BuildingBlock: KIFKEQ_clean_linker_1, # of connection points: 2
#     Edge 10, Type (0, 0), BuildingBlock: KIFKEQ_clean_linker_1, # of connection points: 2
#     Edge 11, Type (0, 0), BuildingBlock: KIFKEQ_clean_linker_1, # of connection points: 2
#     Edge 12, Type (0, 0), BuildingBlock: KIFKEQ_clean_linker_1, # of connection points: 2
#     Edge 13, Type (0, 0), BuildingBlock: KIFKEQ_clean_linker_1, # of connection points: 2
#     Edge 14, Type (0, 0), BuildingBlock: KIFKEQ_clean_linker_1, # of connection points: 2
#     Edge 15, Type (0, 0), BuildingBlock: KIFKEQ_clean_linker_1, # of connection points: 2
#     Edge 16, Type (0, 0), BuildingBlock: KIFKEQ_clean_linker_1, # of connection points: 2
#     Edge 17, Type (0, 0), BuildingBlock: KIFKEQ_clean_linker_1, # of connection points: 2
# Relax obj value: 0.020
# Max RMSD: 0.108
# Mean RMSD: 0.108
data_MOF--net-unh--node1-ICAMEG_clean_sbu_1--edge1-KIFKEQ_clean_linker_1
_symmetry_space_group_name_H-M    P1
_symmetry_Int_Tables_number       1
_symmetry_cell_setting            triclinic
loop_
_symmetry_equiv_pos_as_xyz
'x, y, z'
_cell_length_a     44.906632
_cell_length_b     44.920036
_cell_length_c     24.871259
_cell_angle_alpha  89.996023
_cell_angle_beta   89.999944
_cell_angle_gamma 119.99204
loop_
_atom_site_label
_atom_site_type_symbol
_atom_site_fract_x
_atom_site_fract_y
_atom_site_fract_z
_atom_type_partial_charge
Co0 Co 0.14922 0.54571 0.03962 0.0
Co1 Co 0.14888 0.6036 0.1302 0.0
O2 O 0.12554 0.56284 0.08483 0.0
C3 C 0.10177 0.55341 0.96658 0.0
O4 O 0.11339 0.58407 0.98755 0.0
C5 C 0.1013 0.54824 0.20286 0.0
O6 O 0.11305 0.52928 0.18199 0.0
O7 O 0.17802 0.58656 0.16261 0.0
O8 O 0.18497 0.55653 0.09637 0.0
H9 H 0.25109 0.70377 0.21619 0.0
H10 H 0.07453 0.5015 0.06028 0.0
O11 O 0.11383 0.53449 0.9821 0.0
H12 H 0.12804 0.43649 0.12991 0.0
H13 H 0.15444 0.46341 0.90779 0.0
H14 H 0.22207 0.56958 0.0129 0.0
H15 H 0.16347 0.49316 0.08738 0.0
H16 H 0.12552 0.48521 0.96703 0.0
O17 O 0.11334 0.57923 0.18744 0.0
H18 H 0.22155 0.65283 0.15756 0.0
H19 H 0.12459 0.64003 0.20249 0.0
H20 H 0.25207 0.54857 0.95449 0.0
H21 H 0.0381 0.44478 0.10213 0.0
H22 H 0.21818 0.49511 0.90142 0.0
H23 H 0.06487 0.41193 0.13747 0.0
O24 O 0.17825 0.59195 0.00748 0.0
H25 H 0.03768 0.5928 0.06662 0.0
H26 H 0.16288 0.67033 0.0825 0.0
H27 H 0.12733 0.69131 0.03955 0.0
H28 H 0.06425 0.65243 0.03142 0.0
H29 H 0.07422 0.57277 0.10889 0.0
H30 H 0.15305 0.69068 0.26193 0.0
H31 H 0.21676 0.72299 0.26888 0.0
O32 O 0.18479 0.62877 0.07375 0.0
C33 C 0.19216 0.57045 0.1429 0.0
C34 C 0.22332 0.68998 0.21335 0.0
C35 C 0.16829 0.6826 0.23908 0.0
N36 N 0.17143 0.6437 0.17625 0.0
C37 C 0.20647 0.66119 0.18011 0.0
C38 C 0.15232 0.65392 0.20544 0.0
C39 C 0.20404 0.70073 0.24294 0.0
C40 C 0.08632 0.48719 0.07502 0.0
N41 N 0.12106 0.50056 0.07115 0.0
C42 C 0.06558 0.45516 0.0989 0.0
C43 C 0.08063 0.43677 0.11881 0.0
C44 C 0.11607 0.45054 0.11463 0.0
C45 C 0.13601 0.48268 0.0906 0.0
C46 C 0.16949 0.48669 0.93081 0.0
C47 C 0.20718 0.54617 0.9902 0.0
C48 C 0.15326 0.49918 0.96434 0.0
N49 N 0.17213 0.52846 0.99373 0.0
C50 C 0.22429 0.53446 0.95707 0.0
C51 C 0.20526 0.50449 0.92727 0.0
C52 C 0.19217 0.62217 0.02727 0.0
C53 C 0.06512 0.61002 0.0701 0.0
C54 C 0.13546 0.65323 0.07904 0.0
C55 C 0.11545 0.66528 0.05478 0.0
C56 C 0.08005 0.64346 0.05027 0.0
N57 N 0.12061 0.6204 0.09841 0.0
C58 C 0.08592 0.59888 0.09422 0.0
Co59 Co 0.60543 0.14771 0.20617 0.0
Co60 Co 0.54683 0.14746 0.29603 0.0
O61 O 0.56443 0.12413 0.25101 0.0
C62 C 0.55038 0.10073 0.13272 0.0
O63 O 0.53146 0.11252 0.15365 0.0
C64 C 0.55462 0.10007 0.36908 0.0
O65 O 0.58534 0.11177 0.34828 0.0
O66 O 0.59292 0.17676 0.32862 0.0
O67 O 0.63026 0.18323 0.26321 0.0
H68 H 0.54823 0.24964 0.38089 0.0
H69 H 0.57441 0.07293 0.22638 0.0
O70 O 0.5813 0.11254 0.14839 0.0
H71 H 0.69258 0.12549 0.29728 0.0
H72 H 0.69321 0.15256 0.07523 0.0
H73 H 0.65492 0.22051 0.18008 0.0
H74 H 0.67187 0.16134 0.2546 0.0
H75 H 0.64217 0.1238 0.13385 0.0
O76 O 0.53566 0.11207 0.35348 0.0
H77 H 0.56997 0.22012 0.32288 0.0
H78 H 0.48594 0.12315 0.36795 0.0
H79 H 0.70626 0.25035 0.12229 0.0
H80 H 0.59417 0.03609 0.26836 0.0
H81 H 0.72571 0.2163 0.06936 0.0
H82 H 0.65361 0.06238 0.30434 0.0
O83 O 0.58864 0.17709 0.17391 0.0
H84 H 0.44684 0.03601 0.23243 0.0
H85 H 0.49404 0.16115 0.24765 0.0
H86 H 0.43765 0.12539 0.2044 0.0
H87 H 0.4137 0.06234 0.1966 0.0
H88 H 0.50326 0.07276 0.27499 0.0
H89 H 0.46342 0.15159 0.42678 0.0
H90 H 0.49458 0.2153 0.43334 0.0
O91 O 0.55757 0.18319 0.23936 0.0
C92 C 0.6233 0.19064 0.30941 0.0
C93 C 0.53436 0.22187 0.37822 0.0
C94 C 0.48678 0.16684 0.40403 0.0
N95 N 0.52906 0.16999 0.34168 0.0
C96 C 0.54649 0.20502 0.34533 0.0
C97 C 0.49968 0.15087 0.37074 0.0
C98 C 0.50427 0.20258 0.40768 0.0
C99 C 0.60044 0.08451 0.24139 0.0
N100 N 0.62201 0.11922 0.23779 0.0
C101 C 0.61143 0.06354 0.26535 0.0
C102 C 0.64476 0.07832 0.28562 0.0
C103 C 0.66663 0.11373 0.28171 0.0
C104 C 0.65474 0.13391 0.2576 0.0
C105 C 0.68504 0.16768 0.09819 0.0
C106 C 0.66337 0.20555 0.15742 0.0
C107 C 0.65613 0.15154 0.13136 0.0
N108 N 0.64579 0.17049 0.16069 0.0
C109 C 0.69239 0.22257 0.12465 0.0
C110 C 0.70327 0.20345 0.09493 0.0
C111 C 0.57203 0.19082 0.19323 0.0
C112 C 0.45695 0.06343 0.23577 0.0
C113 C 0.48381 0.13374 0.24434 0.0
C114 C 0.45184 0.11361 0.21991 0.0
C115 C 0.4384 0.07823 0.21558 0.0
N116 N 0.50185 0.11903 0.26406 0.0
C117 C 0.48881 0.08435 0.26006 0.0
Co118 Co 0.40001 0.54533 0.46428 0.0
Co119 Co 0.45839 0.60353 0.37412 0.0
O120 O 0.44096 0.56271 0.41935 0.0
C121 C 0.45512 0.5534 0.53772 0.0
O122 O 0.47403 0.58411 0.51681 0.0
C123 C 0.45081 0.54833 0.30135 0.0
O124 O 0.42007 0.52932 0.32212 0.0
O125 O 0.41227 0.58649 0.34152 0.0
O126 O 0.37508 0.55597 0.40728 0.0
H127 H 0.45637 0.70379 0.28842 0.0
H128 H 0.43101 0.50154 0.44402 0.0
O129 O 0.4242 0.53431 0.52203 0.0
H130 H 0.31275 0.43593 0.37351 0.0
H131 H 0.31239 0.46257 0.59557 0.0
H132 H 0.35055 0.56869 0.49049 0.0
H133 H 0.33351 0.49251 0.41608 0.0
H134 H 0.36334 0.48475 0.53674 0.0
O135 O 0.46972 0.5793 0.31688 0.0
H136 H 0.43489 0.65272 0.34678 0.0
H137 H 0.51925 0.64016 0.30215 0.0
H138 H 0.29932 0.5473 0.54847 0.0
H139 H 0.41121 0.44493 0.40213 0.0
H140 H 0.27993 0.49386 0.60152 0.0
H141 H 0.35172 0.41177 0.36635 0.0
O142 O 0.41683 0.59151 0.49644 0.0
H143 H 0.55876 0.5928 0.43813 0.0
H144 H 0.51094 0.6702 0.4222 0.0
H145 H 0.56737 0.69118 0.46548 0.0
H146 H 0.59165 0.65236 0.47364 0.0
H147 H 0.50228 0.57278 0.39552 0.0
H148 H 0.54152 0.69094 0.24298 0.0
H149 H 0.51007 0.7232 0.23602 0.0
O150 O 0.44746 0.62853 0.43057 0.0
C151 C 0.38194 0.57012 0.36092 0.0
C152 C 0.47038 0.69002 0.29127 0.0
C153 C 0.51814 0.68279 0.26571 0.0
N154 N 0.47597 0.6437 0.32823 0.0
C155 C 0.45839 0.66116 0.32436 0.0
C156 C 0.50538 0.65402 0.29919 0.0
C157 C 0.50049 0.70088 0.26183 0.0
C158 C 0.40497 0.4871 0.42909 0.0
N159 N 0.3834 0.50024 0.43274 0.0
C160 C 0.39395 0.45513 0.40518 0.0
C161 C 0.36059 0.43657 0.38503 0.0
C162 C 0.33872 0.45012 0.38899 0.0
C163 C 0.35064 0.4822 0.41304 0.0
C164 C 0.32054 0.48584 0.57256 0.0
C165 C 0.34213 0.5453 0.51319 0.0
C166 C 0.34939 0.49854 0.53926 0.0
N167 N 0.3597 0.52781 0.50988 0.0
C168 C 0.31317 0.53337 0.54607 0.0
C169 C 0.30233 0.5034 0.57587 0.0
C170 C 0.43318 0.62178 0.47684 0.0
C171 C 0.54851 0.61 0.43463 0.0
C172 C 0.5213 0.65314 0.42567 0.0
C173 C 0.5533 0.66518 0.45012 0.0
C174 C 0.56692 0.6434 0.45464 0.0
N175 N 0.5034 0.62034 0.40613 0.0
C176 C 0.51662 0.59886 0.41032 0.0
Co177 Co 0.85613 0.45733 0.53973 0.0
Co178 Co 0.8563 0.39921 0.63005 0.0
O179 O 0.87971 0.43999 0.58474 0.0
C180 C 0.90329 0.44936 0.46641 0.0
O181 O 0.89159 0.41868 0.48736 0.0
C182 C 0.90394 0.45447 0.70274 0.0
O183 O 0.89222 0.47346 0.68189 0.0
O184 O 0.82724 0.4163 0.66258 0.0
O185 O 0.82054 0.4467 0.59667 0.0
H186 H 0.75399 0.29908 0.71592 0.0
H187 H 0.9309 0.50118 0.56008 0.0
O188 O 0.89138 0.46838 0.48203 0.0
H189 H 0.87814 0.56675 0.6303 0.0
H190 H 0.85122 0.53999 0.40829 0.0
H191 H 0.78331 0.43388 0.51342 0.0
H192 H 0.84237 0.51014 0.58777 0.0
H193 H 0.88002 0.51789 0.4672 0.0
O194 O 0.89187 0.42348 0.68729 0.0
H195 H 0.7836 0.35007 0.65741 0.0
H196 H 0.88049 0.36262 0.70218 0.0
H197 H 0.75344 0.4552 0.45535 0.0
H198 H 0.96766 0.55783 0.60192 0.0
H199 H 0.78747 0.50863 0.40227 0.0
H200 H 0.94127 0.59096 0.63755 0.0
O201 O 0.82684 0.41113 0.5076 0.0
H202 H 0.96738 0.40981 0.56622 0.0
H203 H 0.84214 0.33248 0.58216 0.0
H204 H 0.87758 0.31143 0.53903 0.0
H205 H 0.94068 0.35022 0.53087 0.0
H206 H 0.93094 0.42991 0.60868 0.0
H207 H 0.85196 0.31191 0.7615 0.0
H208 H 0.78825 0.2797 0.76847 0.0
O209 O 0.82037 0.37416 0.5736 0.0
C210 C 0.81327 0.43263 0.6431 0.0
C211 C 0.78176 0.31282 0.71308 0.0
C212 C 0.83675 0.32006 0.73871 0.0
N213 N 0.83369 0.35908 0.67603 0.0
C214 C 0.79865 0.34164 0.6799 0.0
C215 C 0.85276 0.34877 0.70514 0.0
C216 C 0.801 0.30199 0.74259 0.0
C217 C 0.91928 0.51562 0.57494 0.0
N218 N 0.88456 0.50244 0.57124 0.0
C219 C 0.9402 0.54761 0.59882 0.0
C220 C 0.92537 0.56615 0.6189 0.0
C221 C 0.88994 0.55257 0.61488 0.0
C222 C 0.86981 0.52047 0.59086 0.0
C223 C 0.83611 0.51673 0.43131 0.0
C224 C 0.79827 0.45727 0.49071 0.0
C225 C 0.85227 0.50406 0.46465 0.0
N226 N 0.83333 0.4748 0.49405 0.0
C227 C 0.78123 0.46916 0.45778 0.0
C228 C 0.80034 0.49912 0.42797 0.0
C229 C 0.8129 0.38088 0.52726 0.0
C230 C 0.93993 0.39263 0.56972 0.0
C231 C 0.86957 0.34953 0.57869 0.0
C232 C 0.88952 0.33745 0.55433 0.0
C233 C 0.92492 0.35921 0.5498 0.0
N234 N 0.88448 0.38235 0.59814 0.0
C235 C 0.91919 0.40382 0.59395 0.0
Co236 Co 0.39978 0.85533 0.70615 0.0
Co237 Co 0.4582 0.85538 0.79613 0.0
O238 O 0.44078 0.87882 0.75098 0.0
C239 C 0.4549 0.9022 0.63265 0.0
O240 O 0.47377 0.89036 0.65357 0.0
C241 C 0.45068 0.903 0.86897 0.0
O242 O 0.41996 0.89135 0.84819 0.0
O243 O 0.41208 0.82632 0.82877 0.0
O244 O 0.37483 0.81985 0.76321 0.0
H245 H 0.45614 0.75302 0.88157 0.0
H246 H 0.431 0.93014 0.72628 0.0
O247 O 0.42399 0.89046 0.64833 0.0
H248 H 0.31285 0.87794 0.79711 0.0
H249 H 0.31215 0.85074 0.57512 0.0
H250 H 0.35011 0.78257 0.6801 0.0
H251 H 0.33339 0.84193 0.75452 0.0
H252 H 0.3632 0.87939 0.63376 0.0
O253 O 0.46955 0.89089 0.85343 0.0
H254 H 0.43467 0.78268 0.82332 0.0
H255 H 0.51906 0.87949 0.86805 0.0
H256 H 0.29877 0.75284 0.62231 0.0
H257 H 0.41142 0.96713 0.76818 0.0
H258 H 0.27949 0.78701 0.56931 0.0
H259 H 0.35198 0.94102 0.80412 0.0
O260 O 0.41645 0.82583 0.67396 0.0
H261 H 0.55857 0.96645 0.73221 0.0
H262 H 0.51072 0.84123 0.74792 0.0
H263 H 0.56715 0.87668 0.70462 0.0
H264 H 0.59144 0.93977 0.69657 0.0
H265 H 0.5021 0.93001 0.77483 0.0
H266 H 0.54132 0.85091 0.92712 0.0
H267 H 0.50985 0.78721 0.93397 0.0
O268 O 0.44725 0.81951 0.73962 0.0
C269 C 0.38172 0.81248 0.8095 0.0
C270 C 0.47015 0.78078 0.87877 0.0
C271 C 0.51794 0.83573 0.90439 0.0
N272 N 0.47577 0.83273 0.84194 0.0
C273 C 0.45818 0.7977 0.84574 0.0
C274 C 0.50518 0.85177 0.87097 0.0
C275 C 0.50027 0.79999 0.90821 0.0
C276 C 0.40498 0.91863 0.74128 0.0
N277 N 0.38332 0.88394 0.7377 0.0
C278 C 0.39409 0.93969 0.76519 0.0
C279 C 0.36075 0.92502 0.78544 0.0
C280 C 0.33879 0.88962 0.78156 0.0
C281 C 0.3506 0.86935 0.75749 0.0
C282 C 0.32025 0.83557 0.59811 0.0
C283 C 0.34174 0.79758 0.65742 0.0
C284 C 0.34916 0.85165 0.63129 0.0
N285 N 0.35941 0.83263 0.66065 0.0
C286 C 0.31272 0.78062 0.62465 0.0
C287 C 0.30193 0.79981 0.59488 0.0
C288 C 0.43287 0.81195 0.69344 0.0
C289 C 0.54832 0.939 0.73565 0.0
C290 C 0.52109 0.86866 0.74451 0.0
C291 C 0.55309 0.88861 0.72004 0.0
C292 C 0.56671 0.92401 0.71558 0.0
N293 N 0.5032 0.88356 0.76411 0.0
C294 C 0.51643 0.91826 0.75998 0.0
Co295 Co 0.60525 0.45752 0.96462 0.0
Co296 Co 0.54713 0.39971 0.87386 0.0
O297 O 0.56445 0.44041 0.91937 0.0
C298 C 0.55004 0.44966 0.03764 0.0
O299 O 0.53103 0.41902 0.01659 0.0
C300 C 0.55471 0.4551 0.80143 0.0
O301 O 0.5854 0.47414 0.82235 0.0
O302 O 0.59331 0.41693 0.84144 0.0
O303 O 0.63025 0.44682 0.90781 0.0
H304 H 0.54955 0.2999 0.78728 0.0
H305 H 0.57472 0.5017 0.94413 0.0
O306 O 0.58102 0.46863 0.02218 0.0
H307 H 0.69331 0.56694 0.87482 0.0
H308 H 0.69259 0.53963 0.09685 0.0
H309 H 0.65428 0.43369 0.99124 0.0
H310 H 0.67206 0.51018 0.91706 0.0
H311 H 0.64194 0.51791 0.03745 0.0
O312 O 0.53585 0.42408 0.81677 0.0
H313 H 0.57079 0.35071 0.84616 0.0
H314 H 0.48642 0.36325 0.80155 0.0
H315 H 0.70521 0.45462 0.04981 0.0
H316 H 0.59501 0.5585 0.90257 0.0
H317 H 0.72466 0.50796 0.10313 0.0
H318 H 0.65467 0.59147 0.86741 0.0
O319 O 0.58806 0.41125 0.99661 0.0
H320 H 0.4465 0.41006 0.93769 0.0
H321 H 0.49453 0.33285 0.92135 0.0
H322 H 0.43795 0.31164 0.96428 0.0
H323 H 0.41358 0.35036 0.97264 0.0
H324 H 0.50312 0.43031 0.89542 0.0
H325 H 0.46439 0.31273 0.74186 0.0
H326 H 0.49597 0.28062 0.73461 0.0
O327 O 0.55796 0.37453 0.93015 0.0
C328 C 0.62355 0.433 0.8612 0.0
C329 C 0.53549 0.3136 0.79024 0.0
C330 C 0.48771 0.32083 0.7647 0.0
N331 N 0.52968 0.3597 0.82765 0.0
C332 C 0.54733 0.34232 0.82364 0.0
C333 C 0.50034 0.34944 0.79848 0.0
C334 C 0.50544 0.30282 0.76066 0.0
C335 C 0.60083 0.51606 0.92945 0.0
N336 N 0.62222 0.50271 0.93325 0.0
C337 C 0.61213 0.54814 0.90574 0.0
C338 C 0.64559 0.5666 0.88593 0.0
C339 C 0.66727 0.55284 0.89003 0.0
C340 C 0.65507 0.52065 0.91389 0.0
C341 C 0.68441 0.51641 0.07372 0.0
C342 C 0.66274 0.45705 0.01405 0.0
C343 C 0.65573 0.50396 0.04009 0.0
N344 N 0.64538 0.47475 0.01057 0.0
C345 C 0.69152 0.46872 0.04726 0.0
C346 C 0.7024 0.49863 0.07721 0.0
C347 C 0.5719 0.38108 0.97667 0.0
C348 C 0.4568 0.39291 0.93411 0.0
C349 C 0.48412 0.34988 0.92492 0.0
C350 C 0.45204 0.3377 0.94917 0.0
C351 C 0.43837 0.35943 0.9538 0.0
N352 N 0.50204 0.38275 0.90568 0.0
C353 C 0.48877 0.40418 0.90999 0.0
H354 H 0.05901 0.57853 0.94279 0.0
H355 H 0.08045 0.49781 0.90072 0.0
H356 H 0.01072 0.55474 0.88035 0.0
H357 H 0.03317 0.47482 0.83671 0.0
H358 H 0.94676 0.52236 0.72622 0.0
H359 H 0.99514 0.54692 0.7885 0.0
H360 H 0.97279 0.44463 0.83236 0.0
H361 H 0.92542 0.42028 0.76852 0.0
C362 C 0.05367 0.55595 0.91968 0.0
C363 C 0.07351 0.54002 0.92676 0.0
C364 C 0.02604 0.54236 0.88365 0.0
C365 C 0.01783 0.51272 0.85343 0.0
C366 C 0.03816 0.49721 0.86001 0.0
C367 C 0.0655 0.51055 0.89646 0.0
C368 C 0.95215 0.50515 0.74934 0.0
C369 C 0.93229 0.46938 0.74239 0.0
C370 C 0.97983 0.51922 0.78528 0.0
C371 C 0.98809 0.49783 0.81553 0.0
C372 C 0.96776 0.46199 0.80904 0.0
C373 C 0.94037 0.44797 0.77269 0.0
H374 H 0.50629 0.92421 0.93476 0.0
H375 H 0.42586 0.94604 0.89243 0.0
H376 H 0.52951 0.9716 0.99853 0.0
H377 H 0.44989 0.99445 0.95464 0.0
H378 H 0.48246 0.05831 0.10894 0.0
H379 H 0.45774 0.01005 0.04649 0.0
H380 H 0.55994 0.03196 1.00271 0.0
H381 H 0.58445 0.07921 0.06674 0.0
C382 C 0.49366 0.93927 0.93891 0.0
C383 C 0.4642 0.93134 0.90862 0.0
C384 C 0.50714 0.96667 0.97522 0.0
C385 C 0.49178 0.98714 0.98166 0.0
C386 C 0.46216 0.97902 0.95144 0.0
C387 C 0.44843 0.95133 0.91555 0.0
C388 C 0.49962 0.05286 0.08579 0.0
C389 C 0.5354 0.07254 0.09284 0.0
C390 C 0.48546 0.02525 0.04976 0.0
C391 C 0.50677 0.01689 0.01951 0.0
C392 C 0.54263 0.03707 0.02604 0.0
C393 C 0.55675 0.06439 0.0625 0.0
H394 H 0.50663 0.58256 0.23587 0.0
H395 H 0.42567 0.48046 0.27759 0.0
H396 H 0.52973 0.55826 0.17209 0.0
H397 H 0.44956 0.45594 0.21536 0.0
H398 H 0.58422 0.50508 0.10386 0.0
H399 H 0.55983 0.52799 0.16784 0.0
H400 H 0.45752 0.44827 0.12352 0.0
H401 H 0.48211 0.42456 0.06111 0.0
C402 C 0.49386 0.55487 0.23159 0.0
C403 C 0.46429 0.53344 0.26171 0.0
C404 C 0.50726 0.54087 0.19527 0.0
C405 C 0.49171 0.50504 0.18864 0.0
C406 C 0.46198 0.48363 0.2187 0.0
C407 C 0.44833 0.49768 0.25461 0.0
C408 C 0.55652 0.49237 0.10796 0.0
C409 C 0.53511 0.46298 0.07748 0.0
C410 C 0.54247 0.50566 0.1444 0.0
C411 C 0.50662 0.49019 0.15077 0.0
C412 C 0.48523 0.46062 0.12038 0.0
C413 C 0.49932 0.44708 0.08436 0.0
H414 H 0.94593 0.42409 0.44259 0.0
H415 H 0.92468 0.50493 0.40046 0.0
H416 H 0.99425 0.44783 0.3802 0.0
H417 H 0.97199 0.52786 0.3365 0.0
H418 H 0.07979 0.58239 0.26866 0.0
H419 H 0.03235 0.558 0.33237 0.0
H420 H 0.01 0.45573 0.28841 0.0
H421 H 0.05846 0.48033 0.22625 0.0
C422 C 0.95132 0.44669 0.41947 0.0
C423 C 0.93152 0.46267 0.42654 0.0
C424 C 0.97896 0.46025 0.38347 0.0
C425 C 0.98725 0.48991 0.35327 0.0
C426 C 0.96694 0.50546 0.3598 0.0
C427 C 0.93959 0.49214 0.39622 0.0
C428 C 0.06483 0.55469 0.27278 0.0
C429 C 0.07292 0.5333 0.24248 0.0
C430 C 0.0374 0.54065 0.30905 0.0
C431 C 0.01704 0.5048 0.31546 0.0
C432 C 0.02533 0.48343 0.28523 0.0
C433 C 0.05306 0.49752 0.24937 0.0
H434 H 0.4991 0.0789 0.43507 0.0
H435 H 0.57949 0.05706 0.39247 0.0
H436 H 0.47592 0.0315 0.49882 0.0
H437 H 0.5555 0.00863 0.45467 0.0
H438 H 0.52284 0.94455 0.60882 0.0
H439 H 0.54761 0.99287 0.54647 0.0
H440 H 0.44545 0.97115 0.50282 0.0
H441 H 0.4209 0.92384 0.56675 0.0
C442 C 0.51173 0.06383 0.43916 0.0
C443 C 0.54116 0.07176 0.40879 0.0
C444 C 0.49828 0.03643 0.47546 0.0
C445 C 0.51362 0.01593 0.4818 0.0
C446 C 0.54323 0.02406 0.45153 0.0
C447 C 0.55694 0.05177 0.41565 0.0
C448 C 0.5057 0.95005 0.58572 0.0
C449 C 0.46992 0.93042 0.59279 0.0
C450 C 0.5199 0.9777 0.54974 0.0
C451 C 0.49861 0.98614 0.51958 0.0
C452 C 0.46275 0.96598 0.5261 0.0
C453 C 0.4486 0.93863 0.5625 0.0
H454 H 0.49923 0.42082 0.73536 0.0
H455 H 0.57945 0.523 0.77834 0.0
H456 H 0.47605 0.44506 0.67164 0.0
H457 H 0.55545 0.54746 0.71617 0.0
H458 H 0.52302 0.579 0.56186 0.0
H459 H 0.54772 0.55542 0.62434 0.0
H460 H 0.44552 0.4749 0.66747 0.0
H461 H 0.42104 0.49768 0.60343 0.0
C462 C 0.51182 0.44851 0.73137 0.0
C463 C 0.54121 0.46998 0.76183 0.0
C464 C 0.49836 0.46248 0.69509 0.0
C465 C 0.51367 0.49831 0.68883 0.0
C466 C 0.54322 0.51977 0.71923 0.0
C467 C 0.55693 0.50575 0.75509 0.0
C468 C 0.50586 0.55633 0.58487 0.0
C469 C 0.47008 0.54016 0.57762 0.0
C470 C 0.52001 0.54286 0.62093 0.0
C471 C 0.49869 0.51311 0.65099 0.0
C472 C 0.46284 0.49738 0.64428 0.0
C473 C 0.44874 0.5106 0.60781 0.0
H474 H 0.20962 0.58918 0.24812 0.0
H475 H 0.23524 0.54697 0.11114 0.0
H476 H 0.25465 0.58739 0.30034 0.0
H477 H 0.28021 0.54522 0.16365 0.0
H478 H 0.38363 0.58982 0.25613 0.0
H479 H 0.33692 0.58821 0.20383 0.0
H480 H 0.2685 0.54421 0.33937 0.0
H481 H 0.3151 0.54578 0.39196 0.0
C482 C 0.22471 0.57939 0.22915 0.0
C483 C 0.21877 0.56829 0.17531 0.0
C484 C 0.2504 0.57821 0.25923 0.0
C485 C 0.27098 0.5662 0.23607 0.0
C486 C 0.26496 0.55491 0.18241 0.0
C487 C 0.23905 0.55576 0.15245 0.0
C488 C 0.35861 0.57965 0.27483 0.0
C489 C 0.35322 0.56799 0.32839 0.0
C490 C 0.33181 0.57858 0.2447 0.0
C491 C 0.29907 0.56613 0.26752 0.0
C492 C 0.29355 0.55425 0.32088 0.0
C493 C 0.32026 0.555 0.35089 0.0
H494 H 0.69017 0.23307 0.27857 0.0
H495 H 0.62145 0.2087 0.41412 0.0
H496 H 0.73669 0.27813 0.33121 0.0
H497 H 0.66809 0.25381 0.46648 0.0
H498 H 0.76988 0.31437 0.55923 0.0
H499 H 0.72489 0.26759 0.50683 0.0
H500 H 0.7503 0.33518 0.37 0.0
H501 H 0.79532 0.38206 0.4221 0.0
C502 C 0.68495 0.23717 0.3196 0.0
C503 C 0.65196 0.21723 0.342 0.0
C504 C 0.71161 0.26313 0.34963 0.0
C505 C 0.70602 0.26953 0.40292 0.0
C506 C 0.67325 0.24927 0.42566 0.0
C507 C 0.64649 0.22352 0.3955 0.0
C508 C 0.76602 0.3193 0.51792 0.0
C509 C 0.78625 0.35208 0.49498 0.0
C510 C 0.7401 0.2925 0.48802 0.0
C511 C 0.73406 0.29773 0.43435 0.0
C512 C 0.75458 0.33029 0.41113 0.0
C513 C 0.78026 0.3572 0.44114 0.0
H514 H 0.41319 0.79372 0.58871 0.0
H515 H 0.45706 0.76945 0.725 0.0
H516 H 0.41491 0.74858 0.53672 0.0
H517 H 0.45872 0.72437 0.67274 0.0
H518 H 0.41397 0.62048 0.58177 0.0
H519 H 0.4155 0.66728 0.63366 0.0
H520 H 0.45826 0.735 0.49709 0.0
H521 H 0.45679 0.6883 0.44491 0.0
C522 C 0.42332 0.7789 0.60758 0.0
C523 C 0.43492 0.78524 0.66116 0.0
C524 C 0.42446 0.75315 0.57763 0.0
C525 C 0.43691 0.73292 0.60068 0.0
C526 C 0.44869 0.73934 0.65408 0.0
C527 C 0.44788 0.76531 0.6839 0.0
C528 C 0.42383 0.64535 0.56275 0.0
C529 C 0.43519 0.65054 0.50904 0.0
C530 C 0.42486 0.67221 0.59265 0.0
C531 C 0.43696 0.70478 0.56942 0.0
C532 C 0.44851 0.71007 0.51589 0.0
C533 C 0.44781 0.68333 0.48612 0.0
H534 H 0.69009 0.45634 0.893 0.0
H535 H 0.62229 0.41443 0.75591 0.0
H536 H 0.73676 0.45797 0.84048 0.0
H537 H 0.66905 0.4161 0.70371 0.0
H538 H 0.77098 0.45721 0.61207 0.0
H539 H 0.72611 0.45905 0.66471 0.0
H540 H 0.75031 0.41489 0.80026 0.0
H541 H 0.79525 0.41301 0.74792 0.0
C542 C 0.68511 0.4476 0.85167 0.0
C543 C 0.65233 0.43518 0.82878 0.0
C544 C 0.71185 0.44838 0.8217 0.0
C545 C 0.70656 0.43712 0.76802 0.0
C546 C 0.674 0.42525 0.74484 0.0
C547 C 0.64716 0.42414 0.77491 0.0
C548 C 0.76689 0.448 0.65316 0.0
C549 C 0.78675 0.43489 0.67564 0.0
C550 C 0.74103 0.44892 0.6832 0.0
C551 C 0.73466 0.43707 0.73657 0.0
C552 C 0.75484 0.4245 0.75938 0.0
C553 C 0.78048 0.42327 0.72922 0.0
H554 H 0.31481 0.77024 0.77869 0.0
H555 H 0.3835 0.7944 0.91422 0.0
H556 H 0.26823 0.72523 0.83132 0.0
H557 H 0.3368 0.74934 0.96657 0.0
H558 H 0.23515 0.68865 0.05939 0.0
H559 H 0.28005 0.73553 0.00701 0.0
H560 H 0.25455 0.66814 0.86991 0.0
H561 H 0.20961 0.62118 0.92198 0.0
C562 C 0.32 0.76611 0.81971 0.0
C563 C 0.35301 0.78597 0.84211 0.0
C564 C 0.29331 0.74018 0.84974 0.0
C565 C 0.29888 0.73372 0.90301 0.0
C566 C 0.33166 0.75393 0.92576 0.0
C567 C 0.35845 0.77964 0.89561 0.0
C568 C 0.23896 0.68379 0.01802 0.0
C569 C 0.21874 0.65104 0.995 0.0
C570 C 0.26483 0.71064 0.98813 0.0
C571 C 0.27084 0.7055 0.9344 0.0
C572 C 0.2503 0.67297 0.91109 0.0
C573 C 0.22467 0.64601 0.94108 0.0
H574 H 0.58993 0.38186 0.0821 0.0
H575 H 0.54909 0.31483 0.944 0.0
H576 H 0.58821 0.33495 0.13389 0.0
H577 H 0.54743 0.268 0.9961 0.0
H578 H 0.59247 0.20958 0.08889 0.0
H579 H 0.59065 0.25463 0.03682 0.0
H580 H 0.54501 0.27754 0.17179 0.0
H581 H 0.54678 0.23255 0.22415 0.0
C582 C 0.58046 0.35713 0.06279 0.0
C583 C 0.56972 0.35221 0.00877 0.0
C584 C 0.57932 0.3302 0.09262 0.0
C585 C 0.56773 0.29782 0.06903 0.0
C586 C 0.55678 0.29278 0.01519 0.0
C587 C 0.55759 0.3196 0.98547 0.0
C588 C 0.58191 0.22408 0.1075 0.0
C589 C 0.56985 0.21742 0.16084 0.0
C590 C 0.58071 0.24979 0.0775 0.0
C591 C 0.56773 0.26964 0.10026 0.0
C592 C 0.55546 0.26287 0.15338 0.0
C593 C 0.55634 0.23695 0.18325 0.0
loop_
_geom_bond_atom_site_label_1
_geom_bond_atom_site_label_2
_geom_bond_distance
_geom_bond_site_symmetry_2
_ccdc_geom_bond_type
Co0 O2 2.143 . S
Co0 O8 2.074 . S
Co0 O11 2.093 1_554 S
Co0 O24 2.097 . S
Co0 N41 2.151 . S
Co0 N49 2.214 1_554 S
Co1 O2 2.160 . S
Co1 O7 2.058 . S
Co1 O17 2.057 . S
Co1 O32 2.037 . S
Co1 N36 2.145 . S
Co1 N57 2.257 . S
O2 Co0 2.143 . S
O2 Co1 2.160 . S
C3 O4 1.278 1_556 S
C3 O11 1.224 . S
O4 C3 1.278 1_554 S
C5 O6 1.245 . S
C5 O17 1.232 . S
O6 C5 1.245 . S
O7 Co1 2.058 . S
O7 C33 1.269 . S
O8 Co0 2.074 . S
O8 C33 1.257 . S
H9 C34 0.930 . S
H10 C40 0.930 . S
O11 Co0 2.093 1_556 S
O11 C3 1.224 . S
H12 C44 0.929 . S
H13 C46 0.930 . S
H14 C47 0.930 . S
H15 C45 0.929 . S
H16 C48 0.928 . S
O17 Co1 2.057 . S
O17 C5 1.232 . S
H18 C37 0.929 . S
H19 C38 0.929 . S
H20 C50 0.931 . S
H21 C42 0.929 . S
H22 C51 0.930 . S
H23 C43 0.931 . S
O24 Co0 2.097 . S
O24 C52 1.214 . S
H25 C53 0.929 . S
H26 C54 0.929 . S
H27 C55 0.930 . S
H28 C56 0.929 . S
H29 C58 0.930 . S
H30 C35 0.930 . S
H31 C39 0.930 . S
O32 Co1 2.037 . S
O32 C52 1.234 . S
C33 O7 1.269 . S
C33 O8 1.257 . S
C34 H9 0.930 . S
C34 C37 1.388 . S
C34 C39 1.418 . S
C35 H30 0.930 . S
C35 C38 1.404 . S
C35 C39 1.353 . S
N36 Co1 2.145 . S
N36 C37 1.397 . S
N36 C38 1.334 . S
C37 H18 0.929 . S
C37 C34 1.388 . S
C37 N36 1.397 . S
C38 H19 0.929 . S
C38 C35 1.404 . S
C38 N36 1.334 . S
C39 H31 0.930 . S
C39 C34 1.418 . S
C39 C35 1.353 . S
C40 H10 0.930 . S
C40 N41 1.330 . S
C40 C42 1.446 . S
N41 Co0 2.151 . S
N41 C40 1.330 . S
N41 C45 1.418 . S
C42 H21 0.929 . S
C42 C40 1.446 . S
C42 C43 1.332 . S
C43 H23 0.931 . S
C43 C42 1.332 . S
C43 C44 1.267 . S
C44 H12 0.929 . S
C44 C43 1.267 . S
C44 C45 1.251 . S
C45 H15 0.929 . S
C45 N41 1.418 . S
C45 C44 1.251 . S
C46 H13 0.930 . S
C46 C48 1.406 . S
C46 C51 1.261 . S
C47 H14 0.930 . S
C47 N49 1.325 . S
C47 C50 1.357 . S
C48 H16 0.928 . S
C48 C46 1.406 . S
C48 N49 1.261 . S
N49 Co0 2.214 1_556 S
N49 C47 1.325 . S
N49 C48 1.261 . S
C50 H20 0.931 . S
C50 C47 1.357 . S
C50 C51 1.312 . S
C51 H22 0.930 . S
C51 C46 1.261 . S
C51 C50 1.312 . S
C52 O24 1.214 . S
C52 O32 1.234 . S
C53 H25 0.929 . S
C53 C56 1.391 . S
C53 C58 1.391 . S
C54 H26 0.929 . S
C54 C55 1.390 . S
C54 N57 1.391 . S
C55 H27 0.930 . S
C55 C54 1.390 . S
C55 C56 1.392 . S
C56 H28 0.929 . S
C56 C53 1.391 . S
C56 C55 1.392 . S
N57 Co1 2.257 . S
N57 C54 1.391 . S
N57 C58 1.388 . S
C58 H29 0.930 . S
C58 C53 1.391 . S
C58 N57 1.388 . S
Co59 O61 2.143 . S
Co59 O67 2.074 . S
Co59 O70 2.093 . S
Co59 O83 2.097 . S
Co59 N100 2.151 . S
Co59 N108 2.214 . S
Co60 O61 2.160 . S
Co60 O66 2.058 . S
Co60 O76 2.057 . S
Co60 O91 2.037 . S
Co60 N95 2.145 . S
Co60 N116 2.257 . S
O61 Co59 2.143 . S
O61 Co60 2.160 . S
C62 O63 1.278 . S
C62 O70 1.224 . S
O63 C62 1.278 . S
C64 O65 1.245 . S
C64 O76 1.232 . S
O65 C64 1.245 . S
O66 Co60 2.058 . S
O66 C92 1.269 . S
O67 Co59 2.074 . S
O67 C92 1.257 . S
H68 C93 0.930 . S
H69 C99 0.930 . S
O70 Co59 2.093 . S
O70 C62 1.224 . S
H71 C103 0.929 . S
H72 C105 0.930 . S
H73 C106 0.930 . S
H74 C104 0.929 . S
H75 C107 0.928 . S
O76 Co60 2.057 . S
O76 C64 1.232 . S
H77 C96 0.929 . S
H78 C97 0.929 . S
H79 C109 0.931 . S
H80 C101 0.929 . S
H81 C110 0.930 . S
H82 C102 0.931 . S
O83 Co59 2.097 . S
O83 C111 1.214 . S
H84 C112 0.929 . S
H85 C113 0.929 . S
H86 C114 0.930 . S
H87 C115 0.929 . S
H88 C117 0.930 . S
H89 C94 0.930 . S
H90 C98 0.930 . S
O91 Co60 2.037 . S
O91 C111 1.234 . S
C92 O66 1.269 . S
C92 O67 1.257 . S
C93 H68 0.930 . S
C93 C96 1.388 . S
C93 C98 1.418 . S
C94 H89 0.930 . S
C94 C97 1.404 . S
C94 C98 1.353 . S
N95 Co60 2.145 . S
N95 C96 1.397 . S
N95 C97 1.334 . S
C96 H77 0.929 . S
C96 C93 1.388 . S
C96 N95 1.397 . S
C97 H78 0.929 . S
C97 C94 1.404 . S
C97 N95 1.334 . S
C98 H90 0.930 . S
C98 C93 1.418 . S
C98 C94 1.353 . S
C99 H69 0.930 . S
C99 N100 1.330 . S
C99 C101 1.446 . S
N100 Co59 2.151 . S
N100 C99 1.330 . S
N100 C104 1.418 . S
C101 H80 0.929 . S
C101 C99 1.446 . S
C101 C102 1.332 . S
C102 H82 0.931 . S
C102 C101 1.332 . S
C102 C103 1.267 . S
C103 H71 0.929 . S
C103 C102 1.267 . S
C103 C104 1.251 . S
C104 H74 0.929 . S
C104 N100 1.418 . S
C104 C103 1.251 . S
C105 H72 0.930 . S
C105 C107 1.406 . S
C105 C110 1.261 . S
C106 H73 0.930 . S
C106 N108 1.325 . S
C106 C109 1.357 . S
C107 H75 0.928 . S
C107 C105 1.406 . S
C107 N108 1.261 . S
N108 Co59 2.214 . S
N108 C106 1.325 . S
N108 C107 1.261 . S
C109 H79 0.931 . S
C109 C106 1.357 . S
C109 C110 1.312 . S
C110 H81 0.930 . S
C110 C105 1.261 . S
C110 C109 1.312 . S
C111 O83 1.214 . S
C111 O91 1.234 . S
C112 H84 0.929 . S
C112 C115 1.391 . S
C112 C117 1.391 . S
C113 H85 0.929 . S
C113 C114 1.390 . S
C113 N116 1.391 . S
C114 H86 0.930 . S
C114 C113 1.390 . S
C114 C115 1.392 . S
C115 H87 0.929 . S
C115 C112 1.391 . S
C115 C114 1.392 . S
N116 Co60 2.257 . S
N116 C113 1.391 . S
N116 C117 1.388 . S
C117 H88 0.930 . S
C117 C112 1.391 . S
C117 N116 1.388 . S
Co118 O120 2.143 . S
Co118 O126 2.074 . S
Co118 O129 2.093 . S
Co118 O142 2.097 . S
Co118 N159 2.151 . S
Co118 N167 2.214 . S
Co119 O120 2.160 . S
Co119 O125 2.058 . S
Co119 O135 2.057 . S
Co119 O150 2.037 . S
Co119 N154 2.145 . S
Co119 N175 2.257 . S
O120 Co118 2.143 . S
O120 Co119 2.160 . S
C121 O122 1.278 . S
C121 O129 1.224 . S
O122 C121 1.278 . S
C123 O124 1.245 . S
C123 O135 1.232 . S
O124 C123 1.245 . S
O125 Co119 2.058 . S
O125 C151 1.269 . S
O126 Co118 2.074 . S
O126 C151 1.257 . S
H127 C152 0.930 . S
H128 C158 0.930 . S
O129 Co118 2.093 . S
O129 C121 1.224 . S
H130 C162 0.929 . S
H131 C164 0.930 . S
H132 C165 0.930 . S
H133 C163 0.929 . S
H134 C166 0.928 . S
O135 Co119 2.057 . S
O135 C123 1.232 . S
H136 C155 0.929 . S
H137 C156 0.929 . S
H138 C168 0.931 . S
H139 C160 0.929 . S
H140 C169 0.930 . S
H141 C161 0.931 . S
O142 Co118 2.097 . S
O142 C170 1.214 . S
H143 C171 0.929 . S
H144 C172 0.929 . S
H145 C173 0.930 . S
H146 C174 0.929 . S
H147 C176 0.930 . S
H148 C153 0.930 . S
H149 C157 0.930 . S
O150 Co119 2.037 . S
O150 C170 1.234 . S
C151 O125 1.269 . S
C151 O126 1.257 . S
C152 H127 0.930 . S
C152 C155 1.388 . S
C152 C157 1.418 . S
C153 H148 0.930 . S
C153 C156 1.404 . S
C153 C157 1.353 . S
N154 Co119 2.145 . S
N154 C155 1.397 . S
N154 C156 1.334 . S
C155 H136 0.929 . S
C155 C152 1.388 . S
C155 N154 1.397 . S
C156 H137 0.929 . S
C156 C153 1.404 . S
C156 N154 1.334 . S
C157 H149 0.930 . S
C157 C152 1.418 . S
C157 C153 1.353 . S
C158 H128 0.930 . S
C158 N159 1.330 . S
C158 C160 1.446 . S
N159 Co118 2.151 . S
N159 C158 1.330 . S
N159 C163 1.418 . S
C160 H139 0.929 . S
C160 C158 1.446 . S
C160 C161 1.332 . S
C161 H141 0.931 . S
C161 C160 1.332 . S
C161 C162 1.267 . S
C162 H130 0.929 . S
C162 C161 1.267 . S
C162 C163 1.251 . S
C163 H133 0.929 . S
C163 N159 1.418 . S
C163 C162 1.251 . S
C164 H131 0.930 . S
C164 C166 1.406 . S
C164 C169 1.261 . S
C165 H132 0.930 . S
C165 N167 1.325 . S
C165 C168 1.357 . S
C166 H134 0.928 . S
C166 C164 1.406 . S
C166 N167 1.261 . S
N167 Co118 2.214 . S
N167 C165 1.325 . S
N167 C166 1.261 . S
C168 H138 0.931 . S
C168 C165 1.357 . S
C168 C169 1.312 . S
C169 H140 0.930 . S
C169 C164 1.261 . S
C169 C168 1.312 . S
C170 O142 1.214 . S
C170 O150 1.234 . S
C171 H143 0.929 . S
C171 C174 1.391 . S
C171 C176 1.391 . S
C172 H144 0.929 . S
C172 C173 1.390 . S
C172 N175 1.391 . S
C173 H145 0.930 . S
C173 C172 1.390 . S
C173 C174 1.392 . S
C174 H146 0.929 . S
C174 C171 1.391 . S
C174 C173 1.392 . S
N175 Co119 2.257 . S
N175 C172 1.391 . S
N175 C176 1.388 . S
C176 H147 0.930 . S
C176 C171 1.391 . S
C176 N175 1.388 . S
Co177 O179 2.143 . S
Co177 O185 2.074 . S
Co177 O188 2.093 . S
Co177 O201 2.097 . S
Co177 N218 2.151 . S
Co177 N226 2.214 . S
Co178 O179 2.160 . S
Co178 O184 2.058 . S
Co178 O194 2.057 . S
Co178 O209 2.037 . S
Co178 N213 2.145 . S
Co178 N234 2.257 . S
O179 Co177 2.143 . S
O179 Co178 2.160 . S
C180 O181 1.278 . S
C180 O188 1.224 . S
O181 C180 1.278 . S
C182 O183 1.245 . S
C182 O194 1.232 . S
O183 C182 1.245 . S
O184 Co178 2.058 . S
O184 C210 1.269 . S
O185 Co177 2.074 . S
O185 C210 1.257 . S
H186 C211 0.930 . S
H187 C217 0.930 . S
O188 Co177 2.093 . S
O188 C180 1.224 . S
H189 C221 0.929 . S
H190 C223 0.930 . S
H191 C224 0.930 . S
H192 C222 0.929 . S
H193 C225 0.928 . S
O194 Co178 2.057 . S
O194 C182 1.232 . S
H195 C214 0.929 . S
H196 C215 0.929 . S
H197 C227 0.931 . S
H198 C219 0.929 . S
H199 C228 0.930 . S
H200 C220 0.931 . S
O201 Co177 2.097 . S
O201 C229 1.214 . S
H202 C230 0.929 . S
H203 C231 0.929 . S
H204 C232 0.930 . S
H205 C233 0.929 . S
H206 C235 0.930 . S
H207 C212 0.930 . S
H208 C216 0.930 . S
O209 Co178 2.037 . S
O209 C229 1.234 . S
C210 O184 1.269 . S
C210 O185 1.257 . S
C211 H186 0.930 . S
C211 C214 1.388 . S
C211 C216 1.418 . S
C212 H207 0.930 . S
C212 C215 1.404 . S
C212 C216 1.353 . S
N213 Co178 2.145 . S
N213 C214 1.397 . S
N213 C215 1.334 . S
C214 H195 0.929 . S
C214 C211 1.388 . S
C214 N213 1.397 . S
C215 H196 0.929 . S
C215 C212 1.404 . S
C215 N213 1.334 . S
C216 H208 0.930 . S
C216 C211 1.418 . S
C216 C212 1.353 . S
C217 H187 0.930 . S
C217 N218 1.330 . S
C217 C219 1.446 . S
N218 Co177 2.151 . S
N218 C217 1.330 . S
N218 C222 1.418 . S
C219 H198 0.929 . S
C219 C217 1.446 . S
C219 C220 1.332 . S
C220 H200 0.931 . S
C220 C219 1.332 . S
C220 C221 1.267 . S
C221 H189 0.929 . S
C221 C220 1.267 . S
C221 C222 1.251 . S
C222 H192 0.929 . S
C222 N218 1.418 . S
C222 C221 1.251 . S
C223 H190 0.930 . S
C223 C225 1.406 . S
C223 C228 1.261 . S
C224 H191 0.930 . S
C224 N226 1.325 . S
C224 C227 1.357 . S
C225 H193 0.928 . S
C225 C223 1.406 . S
C225 N226 1.261 . S
N226 Co177 2.214 . S
N226 C224 1.325 . S
N226 C225 1.261 . S
C227 H197 0.931 . S
C227 C224 1.357 . S
C227 C228 1.312 . S
C228 H199 0.930 . S
C228 C223 1.261 . S
C228 C227 1.312 . S
C229 O201 1.214 . S
C229 O209 1.234 . S
C230 H202 0.929 . S
C230 C233 1.391 . S
C230 C235 1.391 . S
C231 H203 0.929 . S
C231 C232 1.390 . S
C231 N234 1.391 . S
C232 H204 0.930 . S
C232 C231 1.390 . S
C232 C233 1.392 . S
C233 H205 0.929 . S
C233 C230 1.391 . S
C233 C232 1.392 . S
N234 Co178 2.257 . S
N234 C231 1.391 . S
N234 C235 1.388 . S
C235 H206 0.930 . S
C235 C230 1.391 . S
C235 N234 1.388 . S
Co236 O238 2.143 . S
Co236 O244 2.074 . S
Co236 O247 2.093 . S
Co236 O260 2.097 . S
Co236 N277 2.151 . S
Co236 N285 2.214 . S
Co237 O238 2.160 . S
Co237 O243 2.058 . S
Co237 O253 2.057 . S
Co237 O268 2.037 . S
Co237 N272 2.145 . S
Co237 N293 2.257 . S
O238 Co236 2.143 . S
O238 Co237 2.160 . S
C239 O240 1.278 . S
C239 O247 1.224 . S
O240 C239 1.278 . S
C241 O242 1.245 . S
C241 O253 1.232 . S
O242 C241 1.245 . S
O243 Co237 2.058 . S
O243 C269 1.269 . S
O244 Co236 2.074 . S
O244 C269 1.257 . S
H245 C270 0.930 . S
H246 C276 0.930 . S
O247 Co236 2.093 . S
O247 C239 1.224 . S
H248 C280 0.929 . S
H249 C282 0.930 . S
H250 C283 0.930 . S
H251 C281 0.929 . S
H252 C284 0.928 . S
O253 Co237 2.057 . S
O253 C241 1.232 . S
H254 C273 0.929 . S
H255 C274 0.929 . S
H256 C286 0.931 . S
H257 C278 0.929 . S
H258 C287 0.930 . S
H259 C279 0.931 . S
O260 Co236 2.097 . S
O260 C288 1.214 . S
H261 C289 0.929 . S
H262 C290 0.929 . S
H263 C291 0.930 . S
H264 C292 0.929 . S
H265 C294 0.930 . S
H266 C271 0.930 . S
H267 C275 0.930 . S
O268 Co237 2.037 . S
O268 C288 1.234 . S
C269 O243 1.269 . S
C269 O244 1.257 . S
C270 H245 0.930 . S
C270 C273 1.388 . S
C270 C275 1.418 . S
C271 H266 0.930 . S
C271 C274 1.404 . S
C271 C275 1.353 . S
N272 Co237 2.145 . S
N272 C273 1.397 . S
N272 C274 1.334 . S
C273 H254 0.929 . S
C273 C270 1.388 . S
C273 N272 1.397 . S
C274 H255 0.929 . S
C274 C271 1.404 . S
C274 N272 1.334 . S
C275 H267 0.930 . S
C275 C270 1.418 . S
C275 C271 1.353 . S
C276 H246 0.930 . S
C276 N277 1.330 . S
C276 C278 1.446 . S
N277 Co236 2.151 . S
N277 C276 1.330 . S
N277 C281 1.418 . S
C278 H257 0.929 . S
C278 C276 1.446 . S
C278 C279 1.332 . S
C279 H259 0.931 . S
C279 C278 1.332 . S
C279 C280 1.267 . S
C280 H248 0.929 . S
C280 C279 1.267 . S
C280 C281 1.251 . S
C281 H251 0.929 . S
C281 N277 1.418 . S
C281 C280 1.251 . S
C282 H249 0.930 . S
C282 C284 1.406 . S
C282 C287 1.261 . S
C283 H250 0.930 . S
C283 N285 1.325 . S
C283 C286 1.357 . S
C284 H252 0.928 . S
C284 C282 1.406 . S
C284 N285 1.261 . S
N285 Co236 2.214 . S
N285 C283 1.325 . S
N285 C284 1.261 . S
C286 H256 0.931 . S
C286 C283 1.357 . S
C286 C287 1.312 . S
C287 H258 0.930 . S
C287 C282 1.261 . S
C287 C286 1.312 . S
C288 O260 1.214 . S
C288 O268 1.234 . S
C289 H261 0.929 . S
C289 C292 1.391 . S
C289 C294 1.391 . S
C290 H262 0.929 . S
C290 C291 1.390 . S
C290 N293 1.391 . S
C291 H263 0.930 . S
C291 C290 1.390 . S
C291 C292 1.392 . S
C292 H264 0.929 . S
C292 C289 1.391 . S
C292 C291 1.392 . S
N293 Co237 2.257 . S
N293 C290 1.391 . S
N293 C294 1.388 . S
C294 H265 0.930 . S
C294 C289 1.391 . S
C294 N293 1.388 . S
Co295 O297 2.143 . S
Co295 O303 2.074 . S
Co295 O306 2.093 1_556 S
Co295 O319 2.097 . S
Co295 N336 2.151 . S
Co295 N344 2.214 1_556 S
Co296 O297 2.160 . S
Co296 O302 2.058 . S
Co296 O312 2.057 . S
Co296 O327 2.037 . S
Co296 N331 2.145 . S
Co296 N352 2.257 . S
O297 Co295 2.143 . S
O297 Co296 2.160 . S
C298 O299 1.278 1_554 S
C298 O306 1.224 . S
O299 C298 1.278 1_556 S
C300 O301 1.245 . S
C300 O312 1.232 . S
O301 C300 1.245 . S
O302 Co296 2.058 . S
O302 C328 1.269 . S
O303 Co295 2.074 . S
O303 C328 1.257 . S
H304 C329 0.930 . S
H305 C335 0.930 . S
O306 Co295 2.093 1_554 S
O306 C298 1.224 . S
H307 C339 0.929 . S
H308 C341 0.930 . S
H309 C342 0.930 . S
H310 C340 0.929 . S
H311 C343 0.928 . S
O312 Co296 2.057 . S
O312 C300 1.232 . S
H313 C332 0.929 . S
H314 C333 0.929 . S
H315 C345 0.931 . S
H316 C337 0.929 . S
H317 C346 0.930 . S
H318 C338 0.931 . S
O319 Co295 2.097 . S
O319 C347 1.214 . S
H320 C348 0.929 . S
H321 C349 0.929 . S
H322 C350 0.930 . S
H323 C351 0.929 . S
H324 C353 0.930 . S
H325 C330 0.930 . S
H326 C334 0.930 . S
O327 Co296 2.037 . S
O327 C347 1.234 . S
C328 O302 1.269 . S
C328 O303 1.257 . S
C329 H304 0.930 . S
C329 C332 1.388 . S
C329 C334 1.418 . S
C330 H325 0.930 . S
C330 C333 1.404 . S
C330 C334 1.353 . S
N331 Co296 2.145 . S
N331 C332 1.397 . S
N331 C333 1.334 . S
C332 H313 0.929 . S
C332 C329 1.388 . S
C332 N331 1.397 . S
C333 H314 0.929 . S
C333 C330 1.404 . S
C333 N331 1.334 . S
C334 H326 0.930 . S
C334 C329 1.418 . S
C334 C330 1.353 . S
C335 H305 0.930 . S
C335 N336 1.330 . S
C335 C337 1.446 . S
N336 Co295 2.151 . S
N336 C335 1.330 . S
N336 C340 1.418 . S
C337 H316 0.929 . S
C337 C335 1.446 . S
C337 C338 1.332 . S
C338 H318 0.931 . S
C338 C337 1.332 . S
C338 C339 1.267 . S
C339 H307 0.929 . S
C339 C338 1.267 . S
C339 C340 1.251 . S
C340 H310 0.929 . S
C340 N336 1.418 . S
C340 C339 1.251 . S
C341 H308 0.930 . S
C341 C343 1.406 . S
C341 C346 1.261 . S
C342 H309 0.930 . S
C342 N344 1.325 . S
C342 C345 1.357 . S
C343 H311 0.928 . S
C343 C341 1.406 . S
C343 N344 1.261 . S
N344 Co295 2.214 1_554 S
N344 C342 1.325 . S
N344 C343 1.261 . S
C345 H315 0.931 . S
C345 C342 1.357 . S
C345 C346 1.312 . S
C346 H317 0.930 . S
C346 C341 1.261 . S
C346 C345 1.312 . S
C347 O319 1.214 . S
C347 O327 1.234 . S
C348 H320 0.929 . S
C348 C351 1.391 . S
C348 C353 1.391 . S
C349 H321 0.929 . S
C349 C350 1.390 . S
C349 N352 1.391 . S
C350 H322 0.930 . S
C350 C349 1.390 . S
C350 C351 1.392 . S
C351 H323 0.929 . S
C351 C348 1.391 . S
C351 C350 1.392 . S
N352 Co296 2.257 . S
N352 C349 1.391 . S
N352 C353 1.388 . S
C353 H324 0.930 . S
C353 C348 1.391 . S
C353 N352 1.388 . S
H354 C362 0.950 . S
H355 C367 0.950 . S
H356 C364 0.950 1_655 S
H357 C366 0.950 . S
H358 C368 0.950 . S
H359 C370 0.950 1_455 S
H360 C372 0.950 . S
H361 C373 0.950 . S
C362 H354 0.950 . S
C362 C363 1.386 . S
C362 C364 1.391 . S
C363 C362 1.386 . S
C363 C367 1.393 . S
C364 H356 0.950 1_455 S
C364 C362 1.391 . S
C364 C365 1.400 . S
C365 C364 1.400 . S
C365 C366 1.398 . S
C365 C371 1.491 1_455 S
C366 H357 0.950 . S
C366 C365 1.398 . S
C366 C367 1.391 . S
C367 H355 0.950 . S
C367 C363 1.393 . S
C367 C366 1.391 . S
C368 H358 0.950 . S
C368 C369 1.386 . S
C368 C370 1.391 . S
C369 C368 1.386 . S
C369 C373 1.393 . S
C370 H359 0.950 1_655 S
C370 C368 1.391 . S
C370 C371 1.400 . S
C371 C365 1.491 1_655 S
C371 C370 1.400 . S
C371 C372 1.398 . S
C372 H360 0.950 . S
C372 C371 1.398 . S
C372 C373 1.391 . S
C373 H361 0.950 . S
C373 C369 1.393 . S
C373 C372 1.391 . S
H374 C382 0.950 . S
H375 C387 0.950 . S
H376 C384 0.950 . S
H377 C386 0.950 . S
H378 C388 0.950 . S
H379 C390 0.950 . S
H380 C392 0.950 . S
H381 C393 0.950 . S
C382 H374 0.950 . S
C382 C383 1.386 . S
C382 C384 1.391 . S
C383 C382 1.386 . S
C383 C387 1.393 . S
C384 H376 0.950 . S
C384 C382 1.391 . S
C384 C385 1.400 . S
C385 C384 1.400 . S
C385 C386 1.398 . S
C385 C391 1.491 1_566 S
C386 H377 0.950 . S
C386 C385 1.398 . S
C386 C387 1.391 . S
C387 H375 0.950 . S
C387 C383 1.393 . S
C387 C386 1.391 . S
C388 H378 0.950 . S
C388 C389 1.386 . S
C388 C390 1.391 . S
C389 C388 1.386 . S
C389 C393 1.393 . S
C390 H379 0.950 . S
C390 C388 1.391 . S
C390 C391 1.400 . S
C391 C385 1.491 1_544 S
C391 C390 1.400 . S
C391 C392 1.398 . S
C392 H380 0.950 . S
C392 C391 1.398 . S
C392 C393 1.391 . S
C393 H381 0.950 . S
C393 C389 1.393 . S
C393 C392 1.391 . S
H394 C402 0.950 . S
H395 C407 0.950 . S
H396 C404 0.950 . S
H397 C406 0.950 . S
H398 C408 0.950 . S
H399 C410 0.950 . S
H400 C412 0.950 . S
H401 C413 0.950 . S
C402 H394 0.950 . S
C402 C403 1.386 . S
C402 C404 1.391 . S
C403 C402 1.386 . S
C403 C407 1.393 . S
C404 H396 0.950 . S
C404 C402 1.391 . S
C404 C405 1.400 . S
C405 C404 1.400 . S
C405 C406 1.398 . S
C405 C411 1.491 . S
C406 H397 0.950 . S
C406 C405 1.398 . S
C406 C407 1.391 . S
C407 H395 0.950 . S
C407 C403 1.393 . S
C407 C406 1.391 . S
C408 H398 0.950 . S
C408 C409 1.386 . S
C408 C410 1.391 . S
C409 C408 1.386 . S
C409 C413 1.393 . S
C410 H399 0.950 . S
C410 C408 1.391 . S
C410 C411 1.400 . S
C411 C405 1.491 . S
C411 C410 1.400 . S
C411 C412 1.398 . S
C412 H400 0.950 . S
C412 C411 1.398 . S
C412 C413 1.391 . S
C413 H401 0.950 . S
C413 C409 1.393 . S
C413 C412 1.391 . S
H414 C422 0.950 . S
H415 C427 0.950 . S
H416 C424 0.950 . S
H417 C426 0.950 . S
H418 C428 0.950 . S
H419 C430 0.950 . S
H420 C432 0.950 . S
H421 C433 0.950 . S
C422 H414 0.950 . S
C422 C423 1.386 . S
C422 C424 1.391 . S
C423 C422 1.386 . S
C423 C427 1.393 . S
C424 H416 0.950 . S
C424 C422 1.391 . S
C424 C425 1.400 . S
C425 C424 1.400 . S
C425 C426 1.398 . S
C425 C431 1.491 1_655 S
C426 H417 0.950 . S
C426 C425 1.398 . S
C426 C427 1.391 . S
C427 H415 0.950 . S
C427 C423 1.393 . S
C427 C426 1.391 . S
C428 H418 0.950 . S
C428 C429 1.386 . S
C428 C430 1.391 . S
C429 C428 1.386 . S
C429 C433 1.393 . S
C430 H419 0.950 . S
C430 C428 1.391 . S
C430 C431 1.400 . S
C431 C425 1.491 1_455 S
C431 C430 1.400 . S
C431 C432 1.398 . S
C432 H420 0.950 . S
C432 C431 1.398 . S
C432 C433 1.391 . S
C433 H421 0.950 . S
C433 C429 1.393 . S
C433 C432 1.391 . S
H434 C442 0.950 . S
H435 C447 0.950 . S
H436 C444 0.950 . S
H437 C446 0.950 1_565 S
H438 C448 0.950 . S
H439 C450 0.950 . S
H440 C452 0.950 1_545 S
H441 C453 0.950 . S
C442 H434 0.950 . S
C442 C443 1.386 . S
C442 C444 1.391 . S
C443 C442 1.386 . S
C443 C447 1.393 . S
C444 H436 0.950 . S
C444 C442 1.391 . S
C444 C445 1.400 . S
C445 C444 1.400 . S
C445 C446 1.398 . S
C445 C451 1.491 1_545 S
C446 H437 0.950 1_545 S
C446 C445 1.398 . S
C446 C447 1.391 . S
C447 H435 0.950 . S
C447 C443 1.393 . S
C447 C446 1.391 . S
C448 H438 0.950 . S
C448 C449 1.386 . S
C448 C450 1.391 . S
C449 C448 1.386 . S
C449 C453 1.393 . S
C450 H439 0.950 . S
C450 C448 1.391 . S
C450 C451 1.400 . S
C451 C445 1.491 1_565 S
C451 C450 1.400 . S
C451 C452 1.398 . S
C452 H440 0.950 1_565 S
C452 C451 1.398 . S
C452 C453 1.391 . S
C453 H441 0.950 . S
C453 C449 1.393 . S
C453 C452 1.391 . S
H454 C462 0.950 . S
H455 C467 0.950 . S
H456 C464 0.950 . S
H457 C466 0.950 . S
H458 C468 0.950 . S
H459 C470 0.950 . S
H460 C472 0.950 . S
H461 C473 0.950 . S
C462 H454 0.950 . S
C462 C463 1.386 . S
C462 C464 1.391 . S
C463 C462 1.386 . S
C463 C467 1.393 . S
C464 H456 0.950 . S
C464 C462 1.391 . S
C464 C465 1.400 . S
C465 C464 1.400 . S
C465 C466 1.398 . S
C465 C471 1.491 . S
C466 H457 0.950 . S
C466 C465 1.398 . S
C466 C467 1.391 . S
C467 H455 0.950 . S
C467 C463 1.393 . S
C467 C466 1.391 . S
C468 H458 0.950 . S
C468 C469 1.386 . S
C468 C470 1.391 . S
C469 C468 1.386 . S
C469 C473 1.393 . S
C470 H459 0.950 . S
C470 C468 1.391 . S
C470 C471 1.400 . S
C471 C465 1.491 . S
C471 C470 1.400 . S
C471 C472 1.398 . S
C472 H460 0.950 . S
C472 C471 1.398 . S
C472 C473 1.391 . S
C473 H461 0.950 . S
C473 C469 1.393 . S
C473 C472 1.391 . S
H474 C482 0.950 . S
H475 C487 0.950 . S
H476 C484 0.950 . S
H477 C486 0.950 . S
H478 C488 0.950 . S
H479 C490 0.950 . S
H480 C492 0.950 . S
H481 C493 0.950 . S
C482 H474 0.950 . S
C482 C483 1.386 . S
C482 C484 1.391 . S
C483 C482 1.386 . S
C483 C487 1.393 . S
C484 H476 0.950 . S
C484 C482 1.391 . S
C484 C485 1.400 . S
C485 C484 1.400 . S
C485 C486 1.398 . S
C485 C491 1.491 . S
C486 H477 0.950 . S
C486 C485 1.398 . S
C486 C487 1.391 . S
C487 H475 0.950 . S
C487 C483 1.393 . S
C487 C486 1.391 . S
C488 H478 0.950 . S
C488 C489 1.386 . S
C488 C490 1.391 . S
C489 C488 1.386 . S
C489 C493 1.393 . S
C490 H479 0.950 . S
C490 C488 1.391 . S
C490 C491 1.400 . S
C491 C485 1.491 . S
C491 C490 1.400 . S
C491 C492 1.398 . S
C492 H480 0.950 . S
C492 C491 1.398 . S
C492 C493 1.391 . S
C493 H481 0.950 . S
C493 C489 1.393 . S
C493 C492 1.391 . S
H494 C502 0.950 . S
H495 C507 0.950 . S
H496 C504 0.950 . S
H497 C506 0.950 . S
H498 C508 0.950 . S
H499 C510 0.950 . S
H500 C512 0.950 . S
H501 C513 0.950 . S
C502 H494 0.950 . S
C502 C503 1.386 . S
C502 C504 1.391 . S
C503 C502 1.386 . S
C503 C507 1.393 . S
C504 H496 0.950 . S
C504 C502 1.391 . S
C504 C505 1.400 . S
C505 C504 1.400 . S
C505 C506 1.398 . S
C505 C511 1.491 . S
C506 H497 0.950 . S
C506 C505 1.398 . S
C506 C507 1.391 . S
C507 H495 0.950 . S
C507 C503 1.393 . S
C507 C506 1.391 . S
C508 H498 0.950 . S
C508 C509 1.386 . S
C508 C510 1.391 . S
C509 C508 1.386 . S
C509 C513 1.393 . S
C510 H499 0.950 . S
C510 C508 1.391 . S
C510 C511 1.400 . S
C511 C505 1.491 . S
C511 C510 1.400 . S
C511 C512 1.398 . S
C512 H500 0.950 . S
C512 C511 1.398 . S
C512 C513 1.391 . S
C513 H501 0.950 . S
C513 C509 1.393 . S
C513 C512 1.391 . S
H514 C522 0.950 . S
H515 C527 0.950 . S
H516 C524 0.950 . S
H517 C526 0.950 . S
H518 C528 0.950 . S
H519 C530 0.950 . S
H520 C532 0.950 . S
H521 C533 0.950 . S
C522 H514 0.950 . S
C522 C523 1.386 . S
C522 C524 1.391 . S
C523 C522 1.386 . S
C523 C527 1.393 . S
C524 H516 0.950 . S
C524 C522 1.391 . S
C524 C525 1.400 . S
C525 C524 1.400 . S
C525 C526 1.398 . S
C525 C531 1.491 . S
C526 H517 0.950 . S
C526 C525 1.398 . S
C526 C527 1.391 . S
C527 H515 0.950 . S
C527 C523 1.393 . S
C527 C526 1.391 . S
C528 H518 0.950 . S
C528 C529 1.386 . S
C528 C530 1.391 . S
C529 C528 1.386 . S
C529 C533 1.393 . S
C530 H519 0.950 . S
C530 C528 1.391 . S
C530 C531 1.400 . S
C531 C525 1.491 . S
C531 C530 1.400 . S
C531 C532 1.398 . S
C532 H520 0.950 . S
C532 C531 1.398 . S
C532 C533 1.391 . S
C533 H521 0.950 . S
C533 C529 1.393 . S
C533 C532 1.391 . S
H534 C542 0.950 . S
H535 C547 0.950 . S
H536 C544 0.950 . S
H537 C546 0.950 . S
H538 C548 0.950 . S
H539 C550 0.950 . S
H540 C552 0.950 . S
H541 C553 0.950 . S
C542 H534 0.950 . S
C542 C543 1.386 . S
C542 C544 1.391 . S
C543 C542 1.386 . S
C543 C547 1.393 . S
C544 H536 0.950 . S
C544 C542 1.391 . S
C544 C545 1.400 . S
C545 C544 1.400 . S
C545 C546 1.398 . S
C545 C551 1.491 . S
C546 H537 0.950 . S
C546 C545 1.398 . S
C546 C547 1.391 . S
C547 H535 0.950 . S
C547 C543 1.393 . S
C547 C546 1.391 . S
C548 H538 0.950 . S
C548 C549 1.386 . S
C548 C550 1.391 . S
C549 C548 1.386 . S
C549 C553 1.393 . S
C550 H539 0.950 . S
C550 C548 1.391 . S
C550 C551 1.400 . S
C551 C545 1.491 . S
C551 C550 1.400 . S
C551 C552 1.398 . S
C552 H540 0.950 . S
C552 C551 1.398 . S
C552 C553 1.391 . S
C553 H541 0.950 . S
C553 C549 1.393 . S
C553 C552 1.391 . S
H554 C562 0.950 . S
H555 C567 0.950 . S
H556 C564 0.950 . S
H557 C566 0.950 . S
H558 C568 0.950 . S
H559 C570 0.944 1_554 S
H560 C572 0.950 . S
H561 C573 0.950 . S
C562 H554 0.950 . S
C562 C563 1.386 . S
C562 C564 1.391 . S
C563 C562 1.386 . S
C563 C567 1.393 . S
C564 H556 0.950 . S
C564 C562 1.391 . S
C564 C565 1.400 . S
C565 C564 1.400 . S
C565 C566 1.398 . S
C565 C571 1.491 . S
C566 H557 0.950 . S
C566 C565 1.398 . S
C566 C567 1.391 . S
C567 H555 0.950 . S
C567 C563 1.393 . S
C567 C566 1.391 . S
C568 H558 0.950 . S
C568 C569 1.386 . S
C568 C570 1.391 1_554 S
C569 C568 1.386 . S
C569 C573 1.393 1_554 S
C570 H559 0.944 1_556 S
C570 C568 1.391 1_556 S
C570 C571 1.400 . S
C571 C565 1.491 . S
C571 C570 1.400 . S
C571 C572 1.398 . S
C572 H560 0.950 . S
C572 C571 1.398 . S
C572 C573 1.391 . S
C573 H561 0.950 . S
C573 C569 1.393 1_556 S
C573 C572 1.391 . S
H574 C582 0.950 . S
H575 C587 0.950 1_556 S
H576 C584 0.950 . S
H577 C586 0.950 . S
H578 C588 0.950 . S
H579 C590 0.950 . S
H580 C592 0.950 . S
H581 C593 0.950 . S
C582 H574 0.950 . S
C582 C583 1.386 1_554 S
C582 C584 1.391 . S
C583 C582 1.386 1_556 S
C583 C587 1.393 1_556 S
C584 H576 0.950 . S
C584 C582 1.391 . S
C584 C585 1.400 . S
C585 C584 1.400 . S
C585 C586 1.398 . S
C585 C591 1.491 . S
C586 H577 0.950 . S
C586 C585 1.398 . S
C586 C587 1.391 . S
C587 H575 0.950 1_554 S
C587 C583 1.393 1_554 S
C587 C586 1.391 . S
C588 H578 0.950 . S
C588 C589 1.386 . S
C588 C590 1.391 . S
C589 C588 1.386 . S
C589 C593 1.393 . S
C590 H579 0.950 . S
C590 C588 1.391 . S
C590 C591 1.400 . S
C591 C585 1.491 . S
C591 C590 1.400 . S
C591 C592 1.398 . S
C592 H580 0.950 . S
C592 C591 1.398 . S
C592 C593 1.391 . S
C593 H581 0.950 . S
C593 C589 1.393 . S
C593 C592 1.391 . S
C363 C3 1.275 . S
C369 C182 1.290 . S
C383 C241 1.286 . S
C389 C62 1.286 . S
C403 C123 1.290 . S
C409 C298 1.279 . S
C423 C180 1.278 . S
C429 C5 1.286 . S
C443 C64 1.289 . S
C449 C239 1.282 . S
C463 C300 1.289 . S
C469 C121 1.281 . S
C483 C33 1.515 . S
C489 C151 1.511 . S
C503 C92 1.509 . S
C509 C229 1.513 . S
C523 C288 1.515 . S
C529 C170 1.513 . S
C543 C328 1.506 . S
C549 C210 1.511 . S
C563 C269 1.510 . S
C569 C52 1.515 . S
C583 C347 1.519 . S
C589 C111 1.519 . S
