# Generated by pormake.
# Topology vcn, (7)-cn, num edge types: 1
# Building blocks:
#     Node 0, Type 0, BuildingBlock: HICVOG_clean_sbu_0, # of connection points: 7
#     Node 1, Type 0, BuildingBlock: HICVOG_clean_sbu_0, # of connection points: 7
#     Node 2, Type 0, BuildingBlock: HICVOG_clean_sbu_0, # of connection points: 7
#     Node 3, Type 0, BuildingBlock: HICVOG_clean_sbu_0, # of connection points: 7
#     Node 4, Type 0, BuildingBlock: HICVOG_clean_sbu_0, # of connection points: 7
#     Node 5, Type 0, BuildingBlock: HICVOG_clean_sbu_0, # of connection points: 7
#     Node 6, Type 0, BuildingBlock: HICVOG_clean_sbu_0, # of connection points: 7
#     Node 7, Type 0, BuildingBlock: HICVOG_clean_sbu_0, # of connection points: 7
#     Edge 8, Type (0, 0), BuildingBlock: KIFKEQ_clean_linker_1, # of connection points: 2
#     Edge 9, Type (0, 0), BuildingBlock: KIFKEQ_clean_linker_1, # of connection points: 2
#     Edge 10, Type (0, 0), BuildingBlock: KIFKEQ_clean_linker_1, # of connection points: 2
#     Edge 11, Type (0, 0), BuildingBlock: KIFKEQ_clean_linker_1, # of connection points: 2
#     Edge 12, Type (0, 0), BuildingBlock: KIFKEQ_clean_linker_1, # of connection points: 2
#     Edge 13, Type (0, 0), BuildingBlock: KIFKEQ_clean_linker_1, # of connection points: 2
#     Edge 14, Type (0, 0), BuildingBlock: KIFKEQ_clean_linker_1, # of connection points: 2
#     Edge 15, Type (0, 0), BuildingBlock: KIFKEQ_clean_linker_1, # of connection points: 2
#     Edge 16, Type (0, 0), BuildingBlock: KIFKEQ_clean_linker_1, # of connection points: 2
#     Edge 17, Type (0, 0), BuildingBlock: KIFKEQ_clean_linker_1, # of connection points: 2
#     Edge 18, Type (0, 0), BuildingBlock: KIFKEQ_clean_linker_1, # of connection points: 2
#     Edge 19, Type (0, 0), BuildingBlock: KIFKEQ_clean_linker_1, # of connection points: 2
#     Edge 20, Type (0, 0), BuildingBlock: KIFKEQ_clean_linker_1, # of connection points: 2
#     Edge 21, Type (0, 0), BuildingBlock: KIFKEQ_clean_linker_1, # of connection points: 2
#     Edge 22, Type (0, 0), BuildingBlock: KIFKEQ_clean_linker_1, # of connection points: 2
#     Edge 23, Type (0, 0), BuildingBlock: KIFKEQ_clean_linker_1, # of connection points: 2
#     Edge 24, Type (0, 0), BuildingBlock: KIFKEQ_clean_linker_1, # of connection points: 2
#     Edge 25, Type (0, 0), BuildingBlock: KIFKEQ_clean_linker_1, # of connection points: 2
#     Edge 26, Type (0, 0), BuildingBlock: KIFKEQ_clean_linker_1, # of connection points: 2
#     Edge 27, Type (0, 0), BuildingBlock: KIFKEQ_clean_linker_1, # of connection points: 2
#     Edge 28, Type (0, 0), BuildingBlock: KIFKEQ_clean_linker_1, # of connection points: 2
#     Edge 29, Type (0, 0), BuildingBlock: KIFKEQ_clean_linker_1, # of connection points: 2
#     Edge 30, Type (0, 0), BuildingBlock: KIFKEQ_clean_linker_1, # of connection points: 2
#     Edge 31, Type (0, 0), BuildingBlock: KIFKEQ_clean_linker_1, # of connection points: 2
#     Edge 32, Type (0, 0), BuildingBlock: KIFKEQ_clean_linker_1, # of connection points: 2
#     Edge 33, Type (0, 0), BuildingBlock: KIFKEQ_clean_linker_1, # of connection points: 2
#     Edge 34, Type (0, 0), BuildingBlock: KIFKEQ_clean_linker_1, # of connection points: 2
#     Edge 35, Type (0, 0), BuildingBlock: KIFKEQ_clean_linker_1, # of connection points: 2
# Relax obj value: 0.238
# Max RMSD: 0.224
# Mean RMSD: 0.224
data_MOF--net-vcn--node1-HICVOG_clean_sbu_0--edge1-KIFKEQ_clean_linker_1
_symmetry_space_group_name_H-M    P1
_symmetry_Int_Tables_number       1
_symmetry_cell_setting            triclinic
loop_
_symmetry_equiv_pos_as_xyz
'x, y, z'
_cell_length_a     40.665105
_cell_length_b     63.742698
_cell_length_c     14.55653
_cell_angle_alpha  90.079747
_cell_angle_beta   90.08272
_cell_angle_gamma 89.967224
loop_
_atom_site_label
_atom_site_type_symbol
_atom_site_fract_x
_atom_site_fract_y
_atom_site_fract_z
_atom_type_partial_charge
Zn0 Zn 0.12138 0.38463 0.14963 0.0
C1 C 0.0661 0.33936 0.03827 0.0
N2 N 0.07273 0.34938 0.95951 0.0
C3 C 0.0871 0.36713 0.98869 0.0
N4 N 0.08979 0.36786 0.08118 0.0
N5 N 0.07605 0.35041 0.11225 0.0
C6 C 0.0844 0.31207 0.31248 0.0
O7 O 0.10882 0.32556 0.31066 0.0
O8 O 0.12256 0.41451 0.10313 0.0
Zn9 Zn 0.05393 0.34729 0.22902 0.0
N10 N 0.1642 0.37192 0.12963 0.0
C11 C 0.19541 0.344 0.06484 0.0
C12 C 0.16526 0.35326 0.0842 0.0
C13 C 0.19232 0.38143 0.15902 0.0
N14 N 0.2234 0.35349 0.09346 0.0
C15 C 0.22292 0.37193 0.14078 0.0
O16 O 0.07227 0.36578 0.32882 0.0
C17 C 0.09396 0.37948 0.34809 0.0
O18 O 0.11348 0.38671 0.28753 0.0
H19 H 0.14294 0.3456 0.06233 0.0
H20 H 0.19074 0.39624 0.19515 0.0
C21 C 0.98028 0.34602 0.22342 0.0
C22 C 0.95014 0.35495 0.19452 0.0
C23 C 0.97922 0.38415 0.13417 0.0
C24 C 1.00871 0.3754 0.16306 0.0
N25 N 1.00893 0.35648 0.20588 0.0
N26 N 0.95081 0.37376 0.15032 0.0
H27 H 0.98101 0.33093 0.25737 0.0
C28 C 0.09627 0.42491 0.09042 0.0
O29 O 0.0678 0.41567 0.103 0.0
O30 O 0.05689 0.31742 0.27753 0.0
H31 H 0.03155 0.38349 0.15042 0.0
H32 H 0.1966 0.32928 0.02785 0.0
H33 H 0.97885 0.39911 0.09912 0.0
Zn34 Zn 0.54143 0.62211 0.61634 0.0
C35 C 0.59754 0.66749 0.51137 0.0
N36 N 0.58977 0.65835 0.43116 0.0
C37 C 0.57535 0.64042 0.45767 0.0
N38 N 0.57362 0.63878 0.55006 0.0
N39 N 0.58815 0.65572 0.58378 0.0
C40 C 0.5823 0.69211 0.7787 0.0
O41 O 0.55613 0.68099 0.75796 0.0
O42 O 0.54119 0.59255 0.5663 0.0
Zn43 Zn 0.61212 0.65642 0.69877 0.0
N44 N 0.49877 0.63529 0.59495 0.0
C45 C 0.46997 0.66442 0.5315 0.0
C46 C 0.49928 0.65443 0.55357 0.0
C47 C 0.4697 0.62605 0.61844 0.0
N48 N 0.44112 0.65516 0.55364 0.0
C49 C 0.43989 0.63629 0.59719 0.0
O50 O 0.59369 0.63737 0.79615 0.0
C51 C 0.57017 0.62493 0.81495 0.0
O52 O 0.54901 0.61947 0.75476 0.0
H53 H 0.52221 0.66198 0.53703 0.0
H54 H 0.46985 0.61093 0.65209 0.0
C55 C 0.68522 0.65673 0.70081 0.0
C56 C 0.71579 0.64998 0.66549 0.0
C57 C 0.68813 0.62539 0.57045 0.0
C58 C 0.65807 0.63198 0.60552 0.0
N59 N 0.65695 0.64771 0.66866 0.0
N60 N 0.71615 0.63456 0.60079 0.0
H61 H 0.68391 0.66921 0.75114 0.0
C62 C 0.56676 0.58144 0.57935 0.0
O63 O 0.59222 0.58998 0.62058 0.0
O64 O 0.61062 0.68527 0.75667 0.0
H65 H 0.63563 0.62481 0.5813 0.0
H66 H 0.47011 0.6795 0.49756 0.0
H67 H 0.68921 0.61308 0.51928 0.0
Zn68 Zn 0.05159 0.65717 0.83755 0.0
C69 C 0.0892 0.63976 0.07517 0.0
N70 N 0.07618 0.65807 0.10284 0.0
C71 C 0.06887 0.66753 0.02315 0.0
N72 N 0.07697 0.65558 0.95008 0.0
N73 N 0.09045 0.63817 0.98259 0.0
C74 C 0.09691 0.58124 0.97283 0.0
O75 O 0.0686 0.59045 0.95632 0.0
O76 O 0.05479 0.68626 0.78257 0.0
Zn77 Zn 0.12111 0.62109 0.91249 0.0
N78 N 1.00634 0.65003 0.8717 0.0
C79 C 0.97399 0.63082 0.97899 0.0
C80 C 1.00438 0.63601 0.94192 0.0
C81 C 0.97848 0.65848 0.8342 0.0
N82 N 0.9464 0.6395 0.94324 0.0
C83 C 0.94755 0.65307 0.87134 0.0
O84 O 0.11033 0.61813 0.77645 0.0
C85 C 0.08929 0.62427 0.71735 0.0
O86 O 0.06713 0.63765 0.73715 0.0
H87 H 0.02637 0.62903 0.96997 0.0
H88 H 0.98037 0.66947 0.77784 0.0
C89 C 0.19055 0.62722 0.8737 0.0
C90 C 0.22022 0.63856 0.87641 0.0
C91 C 0.19589 0.66311 0.97823 0.0
C92 C 0.16642 0.6521 0.97424 0.0
N93 N 0.16413 0.63441 0.92208 0.0
N94 N 0.22191 0.65625 0.92862 0.0
H95 H 0.18808 0.6134 0.83096 0.0
C96 C 0.08218 0.69099 0.7456 0.0
O97 O 0.10645 0.6774 0.74967 0.0
O98 O 0.12332 0.59162 0.96234 0.0
H99 H 0.14545 0.65799 1.01132 0.0
H100 H 0.97229 0.61993 0.03572 0.0
H101 H 0.19791 0.67725 0.01905 0.0
Zn102 Zn 0.61332 0.34863 0.31137 0.0
C103 C 0.57989 0.36729 0.5538 0.0
N104 N 0.59465 0.34958 0.58191 0.0
C105 C 0.60177 0.33988 0.5026 0.0
N106 N 0.59161 0.35105 0.4292 0.0
N107 N 0.57737 0.36828 0.46133 0.0
C108 C 0.56952 0.42672 0.424 0.0
O109 O 0.59362 0.41905 0.37417 0.0
O110 O 0.61123 0.3191 0.25899 0.0
Zn111 Zn 0.54555 0.38522 0.39481 0.0
N112 N 0.65803 0.35829 0.3338 0.0
C113 C 0.68755 0.38638 0.40309 0.0
C114 C 0.65809 0.37741 0.3752 0.0
C115 C 0.68674 0.34777 0.31737 0.0
N116 N 0.71603 0.37595 0.38785 0.0
C117 C 0.71682 0.35689 0.34549 0.0
O118 O 0.55248 0.38767 0.25626 0.0
C119 C 0.57199 0.38067 0.19504 0.0
O120 O 0.59402 0.36713 0.21348 0.0
H121 H 0.63515 0.38547 0.38768 0.0
H122 H 0.68607 0.33248 0.28504 0.0
C123 C 0.47451 0.38217 0.38751 0.0
C124 C 0.44398 0.37264 0.40604 0.0
C125 C 0.47175 0.34465 0.48067 0.0
C126 C 0.50183 0.35392 0.46079 0.0
N127 N 0.50273 0.37264 0.41606 0.0
N128 N 0.44367 0.35417 0.45291 0.0
H129 H 0.47596 0.39698 0.35158 0.0
C130 C 0.58281 0.312 0.23927 0.0
O131 O 0.55673 0.32334 0.25849 0.0
O132 O 0.54561 0.41481 0.44491 0.0
H133 H 0.52422 0.34618 0.48156 0.0
H134 H 0.68783 0.40151 0.43687 0.0
H135 H 0.4707 0.3299 0.5172 0.0
Zn136 Zn 0.62213 0.88437 0.12147 0.0
C137 C 0.5704 0.83681 1.01746 0.0
N138 N 0.57861 0.84543 0.93668 0.0
C139 C 0.59133 0.86401 0.96186 0.0
N140 N 0.59187 0.86647 0.05406 0.0
N141 N 0.57813 0.8494 0.08866 0.0
C142 C 0.58384 0.81309 0.2828 0.0
O143 O 0.60886 0.82594 0.27323 0.0
O144 O 0.62033 0.91388 0.07161 0.0
Zn145 Zn 0.55338 0.84818 0.20131 0.0
N146 N 0.6662 0.87293 0.10331 0.0
C147 C 0.69941 0.84598 0.03817 0.0
C148 C 0.66866 0.85456 0.05608 0.0
C149 C 0.69359 0.88272 0.13655 0.0
N150 N 0.72662 0.85576 0.07043 0.0
C151 C 0.72484 0.87386 0.12 0.0
O152 O 0.5707 0.86717 0.30104 0.0
C153 C 0.59332 0.8803 0.31987 0.0
O154 O 0.61375 0.88657 0.25949 0.0
H155 H 0.64702 0.84649 0.03216 0.0
H156 H 0.69098 0.89721 0.17468 0.0
C157 C 0.48015 0.84758 0.20134 0.0
C158 C 0.44958 0.85416 0.16512 0.0
C159 C 0.47729 0.87838 0.0689 0.0
C160 C 0.50732 0.87199 0.10498 0.0
N161 N 0.50844 0.85649 0.16907 0.0
N162 N 0.44926 0.8693 0.09937 0.0
H163 H 0.48143 0.83533 0.25265 0.0
C164 C 0.59598 0.92535 0.09367 0.0
O165 O 0.57238 0.91719 0.14377 0.0
O166 O 0.55571 0.81883 0.25357 0.0
H167 H 0.52974 0.8792 0.08099 0.0
H168 H 0.70165 0.83151 0.99974 0.0
H169 H 0.47623 0.89049 1.01698 0.0
Zn170 Zn 0.04582 0.12016 0.64718 0.0
C171 C 0.10333 0.16505 0.53768 0.0
N172 N 0.09708 0.15474 0.45917 0.0
C173 C 0.08204 0.13719 0.48811 0.0
N174 N 0.07836 0.13689 0.58037 0.0
N175 N 0.09264 0.15422 0.61142 0.0
C176 C 0.08087 0.19415 0.80447 0.0
O177 O 0.05598 0.18113 0.79665 0.0
O178 O 0.04453 0.09033 0.59988 0.0
Zn179 Zn 0.11081 0.15823 0.73313 0.0
N180 N 1.00314 0.13345 0.6281 0.0
C181 C 0.97334 0.16305 0.57313 0.0
C182 C 1.00302 0.15289 0.58966 0.0
C183 C 0.97452 0.12415 0.655 0.0
N184 N 0.94486 0.15372 0.5987 0.0
C185 C 0.94438 0.1346 0.64021 0.0
O186 O 0.08679 0.14242 0.83102 0.0
C187 C 0.06655 0.12782 0.84861 0.0
O188 O 0.05145 0.1179 0.78556 0.0
H189 H 0.02576 0.16045 0.57087 0.0
H190 H 0.97529 0.10887 0.68721 0.0
C191 C 0.18439 0.15615 0.75092 0.0
C192 C 0.21353 0.14403 0.75312 0.0
C193 C 0.18254 0.11368 0.71467 0.0
C194 C 0.15389 0.12555 0.71376 0.0
N195 N 0.15512 0.14642 0.73228 0.0
N196 N 0.21148 0.12312 0.735 0.0
H197 H 0.18486 0.17275 0.76655 0.0
C198 C 0.0707 0.08033 0.58056 0.0
O199 O 0.09913 0.09001 0.5861 0.0
O200 O 0.10901 0.18838 0.77552 0.0
H201 H 0.1305 0.11814 0.69977 0.0
H202 H 0.97292 0.17835 0.54111 0.0
H203 H 0.18178 0.09702 0.70054 0.0
Zn204 Zn 0.55624 0.15916 0.80671 0.0
C205 C 0.58374 0.13804 0.05211 0.0
N206 N 0.56918 0.15587 0.08025 0.0
C207 C 0.56302 0.16594 1.00118 0.0
N208 N 0.57347 0.15476 0.92826 0.0
N209 N 0.58737 0.13739 0.95989 0.0
C210 C 0.59419 0.08026 0.94341 0.0
O211 O 0.56712 0.08909 0.9128 0.0
O212 O 0.55908 0.1894 0.76765 0.0
Zn213 Zn 0.61984 0.12042 0.89404 0.0
N214 N 0.5114 0.14823 0.8061 0.0
C215 C 0.48181 0.11606 0.81272 0.0
C216 C 0.5114 0.12694 0.80992 0.0
C217 C 0.48253 0.15928 0.8046 0.0
N218 N 0.45315 0.1269 0.81161 0.0
C219 C 0.45246 0.14821 0.80743 0.0
O220 O 0.61415 0.11781 0.75543 0.0
C221 C 0.5999 0.12814 0.69212 0.0
O222 O 0.58033 0.14318 0.70931 0.0
H223 H 0.53446 0.1185 0.81124 0.0
H224 H 0.48295 0.17624 0.80219 0.0
C225 C 0.69118 0.12428 0.88464 0.0
C226 C 0.72138 0.13465 0.89921 0.0
C227 C 0.69269 0.16308 0.96782 0.0
C228 C 0.66295 0.15298 0.95164 0.0
N229 N 0.66265 0.13359 0.91253 0.0
N230 N 0.72107 0.15373 0.94136 0.0
H231 H 0.69028 0.10903 0.8519 0.0
C232 C 0.58757 0.19539 0.74272 0.0
O233 O 0.61243 0.18238 0.75187 0.0
O234 O 0.62056 0.09096 0.94498 0.0
H235 H 0.6403 0.16053 0.97133 0.0
H236 H 0.48158 0.0991 0.81609 0.0
H237 H 0.69324 0.17834 1.00037 0.0
Zn238 Zn 0.11354 0.84745 0.33786 0.0
C239 C 0.07472 0.86413 0.5758 0.0
N240 N 0.08768 0.84578 0.60293 0.0
C241 C 0.09584 0.83667 0.52305 0.0
N242 N 0.08825 0.84887 0.45039 0.0
N243 N 0.07435 0.8661 0.48337 0.0
C244 C 0.0705 0.92359 0.46993 0.0
O245 O 0.09859 0.91419 0.45266 0.0
O246 O 0.1106 0.81833 0.28275 0.0
Zn247 Zn 0.04404 0.88357 0.41398 0.0
N248 N 0.15881 0.85479 0.37188 0.0
C249 C 0.19107 0.87401 0.47979 0.0
C250 C 0.16068 0.86871 0.44264 0.0
C251 C 0.18672 0.8465 0.33409 0.0
N252 N 0.21871 0.8655 0.44375 0.0
C253 C 0.21764 0.85199 0.37142 0.0
O254 O 0.05354 0.88574 0.27706 0.0
C255 C 0.07461 0.87976 0.21781 0.0
O256 O 0.09739 0.8668 0.23764 0.0
H257 H 0.13864 0.87552 0.4711 0.0
H258 H 0.18488 0.83554 0.27745 0.0
C259 C 0.9728 0.88145 0.39708 0.0
C260 C 0.94165 0.87238 0.41239 0.0
C261 C 0.96733 0.84429 0.49205 0.0
C262 C 0.99799 0.85312 0.47562 0.0
N263 N 1.00026 0.87166 0.42978 0.0
N264 N 0.94004 0.85407 0.46021 0.0
H265 H 0.9753 0.89614 0.3606 0.0
C266 C 0.08317 0.8135 0.24605 0.0
O267 O 0.0588 0.82701 0.25046 0.0
O268 O 0.0439 0.91329 0.46167 0.0
H269 H 0.01973 0.84516 0.49975 0.0
H270 H 0.19272 0.88484 0.5369 0.0
H271 H 0.96521 0.82968 0.52925 0.0
H272 H 0.43105 0.39391 0.2451 0.0
H273 H 0.38483 0.37006 0.4907 0.0
H274 H 0.37694 0.4014 0.17991 0.0
H275 H 0.33101 0.37702 0.42497 0.0
H276 H 0.23552 0.3934 0.30174 0.0
H277 H 0.28949 0.40128 0.36696 0.0
H278 H 0.33588 0.37674 0.12253 0.0
H279 H 0.2822 0.36939 0.05674 0.0
C280 C 0.40945 0.39085 0.28636 0.0
C281 C 0.41223 0.38125 0.37295 0.0
C282 C 0.37842 0.39496 0.24861 0.0
C283 C 0.34962 0.38963 0.29683 0.0
C284 C 0.35258 0.38152 0.38615 0.0
C285 C 0.38349 0.37733 0.42356 0.0
C286 C 0.25718 0.39036 0.26064 0.0
C287 C 0.25458 0.38063 0.17418 0.0
C288 C 0.28814 0.39471 0.2984 0.0
C289 C 0.31703 0.38947 0.25034 0.0
C290 C 0.31423 0.38118 0.1612 0.0
C291 C 0.2834 0.37676 0.12378 0.0
H292 H 0.2537 0.60108 0.86961 0.0
H293 H 0.25216 0.66385 0.75945 0.0
H294 H 0.30644 0.59447 0.7911 0.0
H295 H 0.30387 0.6573 0.68058 0.0
H296 H 0.38364 0.63908 0.49874 0.0
H297 H 0.32773 0.63437 0.55459 0.0
H298 H 0.36548 0.61121 0.81246 0.0
H299 H 0.42181 0.61588 0.75634 0.0
C300 C 0.26427 0.61321 0.82684 0.0
C301 C 0.24899 0.63293 0.8199 0.0
C302 C 0.29441 0.60951 0.78262 0.0
C303 C 0.30912 0.62532 0.72932 0.0
C304 C 0.29295 0.64469 0.71996 0.0
C305 C 0.26342 0.64849 0.76534 0.0
C306 C 0.38007 0.63244 0.56648 0.0
C307 C 0.40713 0.6281 0.62351 0.0
C308 C 0.34804 0.62975 0.59839 0.0
C309 C 0.34229 0.62275 0.68831 0.0
C310 C 0.36923 0.61655 0.74264 0.0
C311 C 0.40148 0.61921 0.71047 0.0
H312 H 0.76508 0.66509 0.55963 0.0
H313 H 0.73914 0.65264 0.84116 0.0
H314 H 0.8216 0.67229 0.60556 0.0
H315 H 0.79601 0.65836 0.88749 0.0
H316 H 0.89863 0.6724 0.96498 0.0
H317 H 0.84216 0.67803 0.9144 0.0
H318 H 0.86776 0.65386 0.64581 0.0
H319 H 0.92457 0.64971 0.69579 0.0
C320 C 0.77151 0.66422 0.6318 0.0
C321 C 0.74777 0.65845 0.69697 0.0
C322 C 0.80406 0.66805 0.65819 0.0
C323 C 0.814 0.66557 0.75028 0.0
C324 C 0.78962 0.66078 0.81611 0.0
C325 C 0.75685 0.65744 0.7898 0.0
C326 C 0.89223 0.66899 0.89423 0.0
C327 C 0.91594 0.6608 0.834 0.0
C328 C 0.8597 0.67189 0.86541 0.0
C329 C 0.84976 0.66605 0.77624 0.0
C330 C 0.87414 0.65887 0.7146 0.0
C331 C 0.90689 0.65645 0.74301 0.0
H332 H 0.92825 0.33412 0.34898 0.0
H333 H 0.89761 0.35505 0.08033 0.0
H334 H 0.87088 0.32647 0.38766 0.0
H335 H 0.8407 0.34796 0.11905 0.0
H336 H 0.7384 0.33401 0.19577 0.0
H337 H 0.79554 0.32527 0.15894 0.0
H338 H 0.82645 0.35034 0.4211 0.0
H339 H 0.76975 0.35851 0.45823 0.0
C340 C 0.90945 0.33646 0.29721 0.0
C341 C 0.91744 0.34536 0.21186 0.0
C342 C 0.87651 0.33229 0.31961 0.0
C343 C 0.85098 0.33685 0.25696 0.0
C344 C 0.8595 0.34406 0.16897 0.0
C345 C 0.89223 0.34831 0.14692 0.0
C346 C 0.75729 0.33696 0.24668 0.0
C347 C 0.74955 0.34713 0.32961 0.0
C348 C 0.79011 0.33214 0.22529 0.0
C349 C 0.81579 0.33731 0.28655 0.0
C350 C 0.80752 0.34593 0.37238 0.0
C351 C 0.77491 0.35081 0.39341 0.0
H352 H 0.73496 0.89426 0.28518 0.0
H353 H 0.78521 0.87253 0.04172 0.0
H354 H 0.78795 0.90164 0.35757 0.0
H355 H 0.83785 0.87927 0.11455 0.0
H356 H 0.93151 0.89422 0.25087 0.0
H357 H 0.87859 0.90243 0.17997 0.0
H358 H 0.82851 0.87761 0.41774 0.0
H359 H 0.8811 0.87006 0.48932 0.0
C360 C 0.7572 0.89164 0.24602 0.0
C361 C 0.75584 0.88265 0.15782 0.0
C362 C 0.78763 0.89566 0.2879 0.0
C363 C 0.81724 0.89082 0.2424 0.0
C364 C 0.81569 0.88338 0.15159 0.0
C365 C 0.78541 0.87931 0.11002 0.0
C366 C 0.90926 0.8912 0.28934 0.0
C367 C 0.91057 0.88133 0.37561 0.0
C368 C 0.87887 0.89571 0.24826 0.0
C369 C 0.84922 0.89048 0.29262 0.0
C370 C 0.85071 0.88206 0.38168 0.0
C371 C 0.88096 0.87751 0.42246 0.0
H372 H 0.88538 0.13838 0.55491 0.0
H373 H 0.93053 0.11291 0.79918 0.0
H374 H 0.83117 0.13164 0.61883 0.0
H375 H 0.87601 0.10592 0.8631 0.0
H376 H 0.78042 0.13794 0.98458 0.0
H377 H 0.83455 0.13119 0.92005 0.0
H378 H 0.78944 0.10639 0.6741 0.0
H379 H 0.73497 0.11338 0.73873 0.0
C380 C 0.8837 0.13083 0.62138 0.0
C381 C 0.91227 0.12627 0.67203 0.0
C382 C 0.85258 0.12681 0.65778 0.0
C383 C 0.84921 0.11835 0.74635 0.0
C384 C 0.8778 0.11259 0.79489 0.0
C385 C 0.90905 0.11642 0.75792 0.0
C386 C 0.78202 0.13058 0.91759 0.0
C387 C 0.7534 0.12628 0.86672 0.0
C388 C 0.8131 0.12656 0.88082 0.0
C389 C 0.81637 0.11835 0.79165 0.0
C390 C 0.78772 0.11285 0.74278 0.0
C391 C 0.75651 0.11668 0.78013 0.0
H392 H 0.24676 0.1774 0.67627 0.0
H393 H 0.25503 0.12886 0.88089 0.0
H394 H 0.3055 0.18567 0.69639 0.0
H395 H 0.31294 0.13692 0.90128 0.0
H396 H 0.4138 0.15595 0.95456 0.0
H397 H 0.35435 0.16167 0.95221 0.0
H398 H 0.35707 0.16645 0.65638 0.0
H399 H 0.41673 0.16114 0.65979 0.0
C400 C 0.26087 0.16899 0.72753 0.0
C401 C 0.24634 0.15258 0.77751 0.0
C402 C 0.29455 0.17355 0.73846 0.0
C403 C 0.31409 0.16198 0.80056 0.0
C404 C 0.29878 0.14642 0.85395 0.0
C405 C 0.26551 0.14172 0.84208 0.0
C406 C 0.40182 0.15919 0.88956 0.0
C407 C 0.41984 0.15845 0.80753 0.0
C408 C 0.3677 0.1622 0.88793 0.0
C409 C 0.35072 0.16421 0.80396 0.0
C410 C 0.36925 0.16515 0.72233 0.0
C411 C 0.40347 0.16218 0.72413 0.0
H412 H 0.4264 0.85185 0.34099 0.0
H413 H 0.39989 0.83918 0.0597 0.0
H414 H 0.36951 0.84653 0.38752 0.0
H415 H 0.34333 0.83241 0.10584 0.0
H416 H 0.24061 0.85531 0.19593 0.0
H417 H 0.29738 0.85107 0.14606 0.0
H418 H 0.32315 0.82711 0.41479 0.0
H419 H 0.26673 0.83282 0.46524 0.0
C420 C 0.40856 0.84708 0.28973 0.0
C421 C 0.41752 0.8459 0.19689 0.0
C422 C 0.37576 0.84398 0.31616 0.0
C423 C 0.35121 0.83926 0.25045 0.0
C424 C 0.361 0.83661 0.15838 0.0
C425 C 0.39359 0.84018 0.13188 0.0
C426 C 0.25832 0.84861 0.24323 0.0
C427 C 0.24932 0.84433 0.3342 0.0
C428 C 0.29105 0.84614 0.21487 0.0
C429 C 0.31547 0.83897 0.27654 0.0
C430 C 0.30558 0.83324 0.36576 0.0
C431 C 0.27308 0.83619 0.39451 0.0
H432 H 0.14907 0.55443 0.95705 0.0
H433 H 0.04711 0.55691 0.03862 0.0
H434 H 0.14948 0.51664 0.98136 0.0
H435 H 0.04779 0.5193 0.06742 0.0
H436 H 0.04732 0.44932 0.01982 0.0
H437 H 0.04832 0.48695 0.99169 0.0
H438 H 0.14876 0.48954 0.08927 0.0
H439 H 0.14809 0.45173 0.11295 0.0
C440 C 0.12687 0.54693 0.98169 0.0
C441 C 0.09801 0.55863 0.99551 0.0
C442 C 0.12711 0.52523 0.996 0.0
C443 C 0.09859 0.51473 0.02583 0.0
C444 C 0.07001 0.52665 0.04222 0.0
C445 C 0.06966 0.54829 0.02656 0.0
C446 C 0.06966 0.45794 0.03464 0.0
C447 C 0.09759 0.44757 0.06869 0.0
C448 C 0.07019 0.47959 0.01933 0.0
C449 C 0.09851 0.49149 0.03907 0.0
C450 C 0.12661 0.48097 0.07203 0.0
C451 C 0.12623 0.45926 0.08599 0.0
H452 H 0.61762 0.45569 0.39294 0.0
H453 H 0.52119 0.44875 0.51339 0.0
H454 H 0.61673 0.49302 0.4285 0.0
H455 H 0.52052 0.48617 0.55011 0.0
H456 H 0.51672 0.55777 0.50683 0.0
H457 H 0.51744 0.52032 0.47084 0.0
H458 H 0.61861 0.51667 0.56023 0.0
H459 H 0.61807 0.55404 0.59497 0.0
C460 C 0.5963 0.46209 0.42757 0.0
C461 C 0.56945 0.44921 0.45017 0.0
C462 C 0.59586 0.4835 0.44829 0.0
C463 C 0.56852 0.49261 0.49195 0.0
C464 C 0.54177 0.4797 0.51533 0.0
C465 C 0.54226 0.45823 0.49491 0.0
C466 C 0.53915 0.54899 0.51838 0.0
C467 C 0.56733 0.55892 0.55378 0.0
C468 C 0.53949 0.52749 0.49843 0.0
C469 C 0.56805 0.51548 0.51294 0.0
C470 C 0.5963 0.52549 0.54736 0.0
C471 C 0.59594 0.54693 0.56762 0.0
H472 H 0.54214 0.05322 0.94477 0.0
H473 H 0.64644 0.05633 1.00026 0.0
H474 H 0.54253 0.01585 0.97894 0.0
H475 H 0.64669 0.01893 0.03621 0.0
H476 H 0.64123 0.9476 0.994 0.0
H477 H 0.64072 0.98507 0.95935 0.0
H478 H 0.54891 0.99167 0.10556 0.0
H479 H 0.54908 0.95425 0.13861 0.0
C480 C 0.56513 0.04598 0.96499 0.0
C481 C 0.59427 0.05778 0.96955 0.0
C482 C 0.56532 0.02453 0.98498 0.0
C483 C 0.59466 0.01434 1.01006 0.0
C484 C 0.62375 0.02621 1.01576 0.0
C485 C 0.62356 0.04769 0.99586 0.0
C486 C 0.62086 0.95704 0.01836 0.0
C487 C 0.59519 0.94791 0.06905 0.0
C488 C 0.62069 0.97855 0.99911 0.0
C489 C 0.59483 0.99142 0.02996 0.0
C490 C 0.56902 0.98221 0.07983 0.0
C491 C 0.56919 0.96073 0.09908 0.0
H492 H 0.01785 0.95014 0.46012 0.0
H493 H 0.1214 0.94848 0.52574 0.0
H494 H 0.0174 0.98798 0.48248 0.0
H495 H 0.12076 0.98621 0.55246 0.0
H496 H 0.11861 0.0562 0.50248 0.0
H497 H 0.1179 0.01848 0.47578 0.0
H498 H 0.01995 0.01518 0.59017 0.0
H499 H 0.02022 0.05302 0.61265 0.0
C500 C 0.04044 0.95783 0.48077 0.0
C501 C 0.0697 0.94632 0.49086 0.0
C502 C 0.04018 0.97957 0.49398 0.0
C503 C 0.06909 0.99033 0.51891 0.0
C504 C 0.09817 0.97864 0.53122 0.0
C505 C 0.09851 0.95694 0.51674 0.0
C506 C 0.09685 0.04741 0.52128 0.0
C507 C 0.06949 0.0576 0.55969 0.0
C508 C 0.09652 0.02571 0.50678 0.0
C509 C 0.06898 0.0136 0.53155 0.0
C510 C 0.04145 0.02392 0.56896 0.0
C511 C 0.04162 0.04566 0.58223 0.0
H512 H 0.10094 0.30892 0.12313 0.0
H513 H 0.01861 0.31931 0.94207 0.0
H514 H 0.10186 0.2719 0.07972 0.0
H515 H 0.01983 0.28243 0.89659 0.0
H516 H 0.12767 0.22318 0.85137 0.0
H517 H 0.11929 0.2567 0.92934 0.0
H518 H 0.0148 0.24491 0.94 0.0
H519 H 0.02306 0.2115 0.86158 0.0
C520 C 0.08188 0.303 0.07801 0.0
C521 C 0.05912 0.31677 0.03779 0.0
C522 C 0.08291 0.28194 0.05133 0.0
C523 C 0.06125 0.27433 0.98367 0.0
C524 C 0.03673 0.28776 0.94923 0.0
C525 C 0.03586 0.30884 0.97557 0.0
C526 C 0.10293 0.22773 0.87038 0.0
C527 C 0.07605 0.21471 0.84988 0.0
C528 C 0.09815 0.24681 0.91602 0.0
C529 C 0.06638 0.25334 0.94163 0.0
C530 C 0.03953 0.24032 0.92108 0.0
C531 C 0.04432 0.22119 0.87603 0.0
H532 H 0.56074 0.69746 0.59249 0.0
H533 H 0.64667 0.68812 0.42478 0.0
H534 H 0.56016 0.73458 0.55238 0.0
H535 H 0.64564 0.72513 0.38135 0.0
H536 H 0.53693 0.78397 0.32703 0.0
H537 H 0.54488 0.75041 0.40427 0.0
H538 H 0.64916 0.76251 0.42342 0.0
H539 H 0.6413 0.79599 0.34532 0.0
C540 C 0.58069 0.70363 0.55155 0.0
C541 C 0.60447 0.69011 0.51446 0.0
C542 C 0.57982 0.72478 0.52628 0.0
C543 C 0.60254 0.73276 0.46248 0.0
C544 C 0.62791 0.71956 0.43111 0.0
C545 C 0.62869 0.69839 0.45637 0.0
C546 C 0.56154 0.77952 0.3479 0.0
C547 C 0.58846 0.79265 0.32963 0.0
C548 C 0.56607 0.76037 0.39312 0.0
C549 C 0.59766 0.75385 0.42082 0.0
C550 C 0.62455 0.76704 0.40282 0.0
C551 C 0.62 0.78623 0.35802 0.0
H552 H 0.0256 0.79661 0.18367 0.0
H553 H 0.12993 0.78432 0.20075 0.0
H554 H 0.01741 0.76294 0.10679 0.0
H555 H 0.12165 0.75066 0.12372 0.0
H556 H 0.02161 0.68819 0.11736 0.0
H557 H 0.02263 0.72541 0.1576 0.0
H558 H 0.10408 0.7348 0.97213 0.0
H559 H 0.10309 0.69747 0.93294 0.0
C560 C 0.04683 0.78678 0.17065 0.0
C561 C 0.07844 0.79311 0.19875 0.0
C562 C 0.04209 0.76751 0.12654 0.0
C563 C 0.06888 0.75423 0.10851 0.0
C564 C 0.10057 0.76071 0.13522 0.0
C565 C 0.10528 0.77989 0.18025 0.0
C566 C 0.03866 0.69845 0.08211 0.0
C567 C 0.06176 0.69013 0.02054 0.0
C568 C 0.03941 0.71973 0.10546 0.0
C569 C 0.06373 0.73297 0.0689 0.0
C570 C 0.08526 0.72492 1.00199 0.0
C571 C 0.08424 0.70366 0.97794 0.0
H572 H 0.5411 0.22492 0.70029 0.0
H573 H 0.64531 0.21226 0.68193 0.0
H574 H 0.5493 0.25819 0.62128 0.0
H575 H 0.6534 0.24544 0.60178 0.0
H576 H 0.65137 0.3198 0.59015 0.0
H577 H 0.65039 0.28311 0.63849 0.0
H578 H 0.56409 0.27272 0.4711 0.0
H579 H 0.56448 0.30955 0.42679 0.0
C580 C 0.56574 0.2292 0.67926 0.0
C581 C 0.59253 0.21595 0.69766 0.0
C582 C 0.5704 0.24816 0.63295 0.0
C583 C 0.60198 0.25434 0.60416 0.0
C584 C 0.6288 0.24114 0.6231 0.0
C585 C 0.62412 0.22214 0.66913 0.0
C586 C 0.6332 0.30936 0.56046 0.0
C587 C 0.60868 0.31728 0.50215 0.0
C588 C 0.63247 0.28839 0.5885 0.0
C589 C 0.60688 0.27507 0.55958 0.0
C590 C 0.58391 0.28264 0.49536 0.0
C591 C 0.58468 0.30359 0.46754 0.0
H592 H 0.61484 0.7053 0.93152 0.0
H593 H 0.54043 0.72372 0.73681 0.0
H594 H 0.60629 0.73772 1.01716 0.0
H595 H 0.53383 0.75704 0.81553 0.0
H596 H 0.51602 0.8144 0.97027 0.0
H597 H 0.51546 0.77721 0.93068 0.0
H598 H 0.61647 0.77208 0.02349 0.0
H599 H 0.61521 0.80849 0.07049 0.0
C600 C 0.59705 0.71658 0.90635 0.0
C601 C 0.57846 0.71221 0.8275 0.0
C602 C 0.59213 0.73528 0.95512 0.0
C603 C 0.56932 0.75042 0.92413 0.0
C604 C 0.55093 0.74582 0.84423 0.0
C605 C 0.55503 0.7268 0.79768 0.0
C606 C 0.53736 0.80487 0.98619 0.0
C607 C 0.56547 0.81408 0.02436 0.0
C608 C 0.53751 0.78364 0.96135 0.0
C609 C 0.56637 0.77145 0.97013 0.0
C610 C 0.59358 0.78052 1.01544 0.0
C611 C 0.59294 0.80152 0.04304 0.0
H612 H 0.03797 0.28195 0.34859 0.0
H613 H 0.14185 0.2949 0.37441 0.0
H614 H 0.04637 0.24779 0.42113 0.0
H615 H 0.15014 0.26083 0.44702 0.0
H616 H 0.15028 0.18649 0.44475 0.0
H617 H 0.14735 0.22336 0.39914 0.0
H618 H 0.06188 0.23167 0.57114 0.0
H619 H 0.0646 0.19473 0.61469 0.0
C620 C 0.06256 0.27755 0.36987 0.0
C621 C 0.08921 0.29117 0.35549 0.0
C622 C 0.06734 0.25806 0.41227 0.0
C623 C 0.09892 0.25165 0.44056 0.0
C624 C 0.12555 0.26526 0.42589 0.0
C625 C 0.12073 0.2848 0.3843 0.0
C626 C 0.13181 0.19648 0.47582 0.0
C627 C 0.10837 0.18795 0.53572 0.0
C628 C 0.12994 0.21756 0.44927 0.0
C629 C 0.10415 0.23041 0.48077 0.0
C630 C 0.08186 0.22215 0.54504 0.0
C631 C 0.08392 0.20112 0.57201 0.0
H632 H 0.6134 0.29745 0.08572 0.0
H633 H 0.54215 0.28055 0.29121 0.0
H634 H 0.60343 0.2645 1.00546 0.0
H635 H 0.53425 0.2467 0.21779 0.0
H636 H 0.51151 0.18919 0.06434 0.0
H637 H 0.51346 0.22612 0.10777 0.0
H638 H 0.61227 0.23008 0.99805 0.0
H639 H 0.60843 0.19401 0.94785 0.0
C640 C 0.59608 0.28637 0.11457 0.0
C641 C 0.5787 0.29137 0.19472 0.0
C642 C 0.59034 0.26735 0.06888 0.0
C643 C 0.56791 0.25248 0.10417 0.0
C644 C 0.55096 0.25765 0.18577 0.0
C645 C 0.55584 0.27699 0.22929 0.0
C646 C 0.5329 0.1984 0.04602 0.0
C647 C 0.55953 0.18893 1.00131 0.0
C648 C 0.53453 0.21949 0.07296 0.0
C649 C 0.56351 0.23133 0.05968 0.0
C650 C 0.5893 0.22197 1.00947 0.0
C651 C 0.58715 0.20113 0.97997 0.0
H652 H 0.1397 0.70773 0.68262 0.0
H653 H 0.03545 0.7202 0.70046 0.0
H654 H 0.14785 0.7413 0.60529 0.0
H655 H 0.04369 0.75375 0.623 0.0
H656 H 0.0617 0.80672 0.4323 0.0
H657 H 0.06093 0.7694 0.47118 0.0
H658 H 0.14289 0.77892 0.65555 0.0
H659 H 0.14368 0.81614 0.61558 0.0
C660 C 0.11848 0.71757 0.66968 0.0
C661 C 0.08691 0.71132 0.69812 0.0
C662 C 0.1232 0.73679 0.6253 0.0
C663 C 0.09641 0.75009 0.60732 0.0
C664 C 0.06477 0.74368 0.63441 0.0
C665 C 0.06008 0.72457 0.67971 0.0
C666 C 0.08073 0.80055 0.47687 0.0
C667 C 0.10329 0.81412 0.51927 0.0
C668 C 0.07983 0.7793 0.50078 0.0
C669 C 0.10154 0.7713 0.56742 0.0
C670 C 0.12596 0.78457 0.60363 0.0
C671 C 0.12659 0.80584 0.58039 0.0
H672 H 0.1444 0.3638 0.89633 0.0
H673 H 0.05723 0.40171 0.92254 0.0
H674 H 0.15047 0.37502 0.73749 0.0
H675 H 0.06331 0.41323 0.76365 0.0
H676 H 0.04572 0.38048 0.47661 0.0
H677 H 0.05111 0.38725 0.64009 0.0
H678 H 0.15444 0.40054 0.60447 0.0
H679 H 0.14889 0.39388 0.43887 0.0
C680 C 0.12791 0.37574 0.87015 0.0
C681 C 0.10056 0.38207 0.92198 0.0
C682 C 0.13118 0.38204 0.77854 0.0
C683 C 0.10689 0.39461 0.73728 0.0
C684 C 0.08214 0.40327 0.7932 0.0
C685 C 0.07897 0.39699 0.88483 0.0
C686 C 0.06949 0.38523 0.50316 0.0
C687 C 0.09693 0.38644 0.44497 0.0
C688 C 0.07253 0.38937 0.59692 0.0
C689 C 0.1032 0.39457 0.63546 0.0
C690 C 0.13048 0.39663 0.57675 0.0
C691 C 0.12729 0.39284 0.48209 0.0
H692 H 0.52028 0.64652 0.35784 0.0
H693 H 0.6016 0.60411 0.39585 0.0
H694 H 0.51413 0.63464 0.19975 0.0
H695 H 0.59571 0.5921 0.23693 0.0
H696 H 0.61824 0.6211 0.94387 0.0
H697 H 0.61179 0.61566 0.10803 0.0
H698 H 0.50699 0.60847 0.07173 0.0
H699 H 0.51355 0.6138 0.9058 0.0
C700 C 0.53542 0.63362 0.33407 0.0
C701 C 0.56122 0.62609 0.38909 0.0
C702 C 0.53213 0.62692 0.24296 0.0
C703 C 0.55493 0.61276 0.205 0.0
C704 C 0.57806 0.60325 0.26384 0.0
C705 C 0.58112 0.60986 0.35532 0.0
C706 C 0.59387 0.6179 0.97043 0.0
C707 C 0.56638 0.6181 0.91185 0.0
C708 C 0.59019 0.61455 0.06467 0.0
C709 C 0.55885 0.61158 0.10326 0.0
C710 C 0.53146 0.61071 0.04411 0.0
C711 C 0.53523 0.61372 0.94914 0.0
H712 H 0.14504 0.64186 0.17532 0.0
H713 H 0.0568 0.60562 0.13588 0.0
H714 H 0.14843 0.62989 0.33383 0.0
H715 H 0.0601 0.5934 0.29458 0.0
H716 H 0.14403 0.60941 0.62791 0.0
H717 H 0.15039 0.60364 0.46233 0.0
H718 H 0.04758 0.61803 0.42251 0.0
H719 H 0.04131 0.62385 0.58658 0.0
C720 C 0.12766 0.63016 0.19875 0.0
C721 C 0.1009 0.62446 0.14309 0.0
C722 C 0.12937 0.62343 0.29011 0.0
C723 C 0.10408 0.61107 0.32753 0.0
C724 C 0.0797 0.60316 0.26812 0.0
C725 C 0.07814 0.60983 0.17659 0.0
C726 C 0.12264 0.61083 0.58393 0.0
C727 C 0.09221 0.61729 0.62031 0.0
C728 C 0.12632 0.60757 0.4891 0.0
C729 C 0.09951 0.61032 0.42909 0.0
C730 C 0.06866 0.61544 0.46662 0.0
C731 C 0.06511 0.619 0.56081 0.0
H732 H 0.6066 0.40318 0.6182 0.0
H733 H 0.52367 0.36183 0.64908 0.0
H734 H 0.60007 0.41477 0.77742 0.0
H735 H 0.51682 0.37337 0.80725 0.0
H736 H 0.51618 0.39339 0.10372 0.0
H737 H 0.51032 0.39953 0.93784 0.0
H738 H 0.61464 0.3896 0.90353 0.0
H739 H 0.62033 0.38328 0.06734 0.0
C740 C 0.58564 0.39763 0.65709 0.0
C741 C 0.56547 0.38176 0.62125 0.0
C742 C 0.58218 0.40401 0.74873 0.0
C743 C 0.55838 0.39463 0.8056 0.0
C744 C 0.53532 0.38097 0.76547 0.0
C745 C 0.53901 0.37449 0.67421 0.0
C746 C 0.5379 0.39301 0.06075 0.0
C747 C 0.56866 0.38763 0.0983 0.0
C748 C 0.53454 0.3965 0.96592 0.0
C749 C 0.56203 0.39516 0.90746 0.0
C750 C 0.59304 0.39111 0.94647 0.0
C751 C 0.59626 0.38724 0.04041 0.0
H752 H 0.5636 0.90008 0.90244 0.0
H753 H 0.64567 0.85854 0.85858 0.0
H754 H 0.56819 0.91248 0.74384 0.0
H755 H 0.65069 0.87095 0.7012 0.0
H756 H 0.54551 0.88278 0.44986 0.0
H757 H 0.55229 0.88831 0.61411 0.0
H758 H 0.6564 0.89816 0.57543 0.0
H759 H 0.64949 0.89281 0.40954 0.0
C760 C 0.58396 0.89463 0.86073 0.0
C761 C 0.60445 0.8785 0.89264 0.0
C762 C 0.58631 0.90148 0.76953 0.0
C763 C 0.60939 0.89238 0.7094 0.0
C764 C 0.63273 0.87836 0.74557 0.0
C765 C 0.63007 0.87134 0.83621 0.0
C766 C 0.56975 0.8866 0.47596 0.0
C767 C 0.597 0.88714 0.4168 0.0
C768 C 0.5736 0.89 0.57017 0.0
C769 C 0.60491 0.89373 0.60799 0.0
C770 C 0.63198 0.89535 0.54829 0.0
C771 C 0.628 0.89231 0.45339 0.0
H772 H 0.02078 0.1408 0.41821 0.0
H773 H 0.11003 0.1047 0.3982 0.0
H774 H 1.00736 0.13215 0.26001 0.0
H775 H 0.09673 0.09607 0.23876 0.0
H776 H 0.05998 0.08959 0.9343 0.0
H777 H 0.05372 0.08347 0.10088 0.0
H778 H 0.04983 0.15038 0.14572 0.0
H779 H 0.05716 0.1564 0.98205 0.0
C780 C 0.03628 0.1297 0.38255 0.0
C781 C 0.06622 0.1232 0.42109 0.0
C782 C 0.02882 0.12498 0.29114 0.0
C783 C 0.05128 0.11374 0.23687 0.0
C784 C 0.07889 0.10467 0.27922 0.0
C785 C 0.0864 0.10949 0.37079 0.0
C786 C 0.05728 0.10288 0.98013 0.0
C787 C 0.05923 0.12346 0.94593 0.0
C788 C 0.05369 0.09938 0.07493 0.0
C789 C 0.05083 0.11645 0.13576 0.0
C790 C 0.05136 0.13693 0.10032 0.0
C791 C 0.05586 0.14039 1.00678 0.0
H792 H 0.64493 0.14148 0.12279 0.0
H793 H 0.55545 0.10567 0.14174 0.0
H794 H 0.65854 0.13246 0.28024 0.0
H795 H 0.56873 0.09686 0.30106 0.0
H796 H 0.60389 0.08987 0.60483 0.0
H797 H 0.60977 0.08388 0.43798 0.0
H798 H 0.61876 0.15069 0.39655 0.0
H799 H 0.61194 0.15659 0.56042 0.0
C800 C 0.62935 0.13041 0.15812 0.0
C801 C 0.59934 0.12407 0.11952 0.0
C802 C 0.63691 0.12549 0.24917 0.0
C803 C 0.61438 0.11431 0.30331 0.0
C804 C 0.58661 0.10544 0.26082 0.0
C805 C 0.57908 0.11038 0.16939 0.0
C806 C 0.60769 0.10314 0.55967 0.0
C807 C 0.60731 0.1237 0.59488 0.0
C808 C 0.61103 0.09973 0.46469 0.0
C809 C 0.61515 0.11679 0.40464 0.0
C810 C 0.61625 0.1372 0.44119 0.0
C811 C 0.61205 0.14061 0.5349 0.0
H812 H 0.01921 0.86094 0.67606 0.0
H813 H 0.10552 0.89896 0.63649 0.0
H814 H 0.01537 0.87296 0.83456 0.0
H815 H 0.10182 0.91117 0.79533 0.0
H816 H 0.12234 0.88079 0.08681 0.0
H817 H 0.11562 0.88656 0.92284 0.0
H818 H 0.01236 0.89938 0.96314 0.0
H819 H 0.01916 0.8937 0.12864 0.0
C820 C 0.03603 0.873 0.69953 0.0
C821 C 0.06243 0.87921 0.64391 0.0
C822 C 0.03405 0.87977 0.79083 0.0
C823 C 0.05876 0.89265 0.82822 0.0
C824 C 0.08267 0.90102 0.76882 0.0
C825 C 0.08446 0.89434 0.67726 0.0
C826 C 0.09832 0.88527 0.06116 0.0
C827 C 0.07124 0.88658 0.12074 0.0
C828 C 0.09451 0.88881 0.96706 0.0
C829 C 0.06344 0.89349 0.92972 0.0
C830 C 0.0366 0.89581 0.98981 0.0
C831 C 0.04054 0.89258 0.08456 0.0
loop_
_geom_bond_atom_site_label_1
_geom_bond_atom_site_label_2
_geom_bond_distance
_geom_bond_site_symmetry_2
_ccdc_geom_bond_type
Zn0 N4 2.020 . S
Zn0 O8 2.019 . S
Zn0 N10 2.119 . S
Zn0 O18 1.975 . S
C1 N2 1.334 1_554 S
C1 N5 1.336 . S
N2 C1 1.334 1_556 S
N2 C3 1.334 . S
C3 N2 1.334 . S
C3 N4 1.336 1_556 S
N4 Zn0 2.020 . S
N4 C3 1.336 1_554 S
N4 N5 1.354 . S
N5 C1 1.336 . S
N5 N4 1.354 . S
N5 Zn9 2.020 . S
C6 O7 1.244 . S
C6 O30 1.257 . S
O7 C6 1.244 . S
O8 Zn0 2.019 . S
O8 C28 1.257 . S
Zn9 N5 2.020 . S
Zn9 O16 1.975 . S
Zn9 N25 2.119 . S
Zn9 O30 2.019 . S
N10 Zn0 2.119 . S
N10 C12 1.334 . S
N10 C13 1.328 . S
C11 C12 1.391 . S
C11 N14 1.329 . S
C11 H32 0.930 . S
C12 N10 1.334 . S
C12 C11 1.391 . S
C12 H19 0.930 . S
C13 N10 1.328 . S
C13 C15 1.392 . S
C13 H20 0.930 . S
N14 C11 1.329 . S
N14 C15 1.331 . S
C15 C13 1.392 . S
C15 N14 1.331 . S
O16 Zn9 1.975 . S
O16 C17 1.252 . S
C17 O16 1.252 . S
C17 O18 1.252 . S
O18 Zn0 1.975 . S
O18 C17 1.252 . S
H19 C12 0.930 . S
H20 C13 0.930 . S
C21 C22 1.396 . S
C21 N25 1.325 1_655 S
C21 H27 0.929 1_655 S
C22 C21 1.396 . S
C22 N26 1.331 . S
C23 C24 1.391 1_655 S
C23 N26 1.329 . S
C23 H33 0.930 . S
C24 C23 1.391 1_455 S
C24 N25 1.334 . S
C24 H31 0.930 . S
N25 Zn9 2.119 . S
N25 C21 1.325 1_455 S
N25 C24 1.334 . S
N26 C22 1.331 . S
N26 C23 1.329 . S
H27 C21 0.929 1_455 S
C28 O8 1.257 . S
C28 O29 1.244 . S
O29 C28 1.244 . S
O30 C6 1.257 . S
O30 Zn9 2.019 . S
H31 C24 0.930 . S
H32 C11 0.930 . S
H33 C23 0.930 . S
Zn34 N38 2.020 . S
Zn34 O42 2.019 . S
Zn34 N44 2.119 . S
Zn34 O52 1.975 . S
C35 N36 1.334 . S
C35 N39 1.336 . S
N36 C35 1.334 . S
N36 C37 1.334 . S
C37 N36 1.334 . S
C37 N38 1.336 . S
N38 Zn34 2.020 . S
N38 C37 1.336 . S
N38 N39 1.354 . S
N39 C35 1.336 . S
N39 N38 1.354 . S
N39 Zn43 2.020 . S
C40 O41 1.244 . S
C40 O64 1.257 . S
O41 C40 1.244 . S
O42 Zn34 2.019 . S
O42 C62 1.257 . S
Zn43 N39 2.020 . S
Zn43 O50 1.975 . S
Zn43 N59 2.119 . S
Zn43 O64 2.019 . S
N44 Zn34 2.119 . S
N44 C46 1.334 . S
N44 C47 1.328 . S
C45 C46 1.391 . S
C45 N48 1.329 . S
C45 H66 0.930 . S
C46 N44 1.334 . S
C46 C45 1.391 . S
C46 H53 0.930 . S
C47 N44 1.328 . S
C47 C49 1.392 . S
C47 H54 0.930 . S
N48 C45 1.329 . S
N48 C49 1.331 . S
C49 C47 1.392 . S
C49 N48 1.331 . S
O50 Zn43 1.975 . S
O50 C51 1.252 . S
C51 O50 1.252 . S
C51 O52 1.252 . S
O52 Zn34 1.975 . S
O52 C51 1.252 . S
H53 C46 0.930 . S
H54 C47 0.930 . S
C55 C56 1.392 . S
C55 N59 1.328 . S
C55 H61 0.930 . S
C56 C55 1.392 . S
C56 N60 1.331 . S
C57 C58 1.391 . S
C57 N60 1.329 . S
C57 H67 0.930 . S
C58 C57 1.391 . S
C58 N59 1.334 . S
C58 H65 0.930 . S
N59 Zn43 2.119 . S
N59 C55 1.328 . S
N59 C58 1.334 . S
N60 C56 1.331 . S
N60 C57 1.329 . S
H61 C55 0.930 . S
C62 O42 1.257 . S
C62 O63 1.244 . S
O63 C62 1.244 . S
O64 C40 1.257 . S
O64 Zn43 2.019 . S
H65 C58 0.930 . S
H66 C45 0.930 . S
H67 C57 0.930 . S
Zn68 N72 2.020 . S
Zn68 O76 2.019 . S
Zn68 N78 2.119 . S
Zn68 O86 1.975 . S
C69 N70 1.334 . S
C69 N73 1.336 1_554 S
N70 C69 1.334 . S
N70 C71 1.334 1_554 S
C71 N70 1.334 1_556 S
C71 N72 1.336 . S
N72 Zn68 2.020 . S
N72 C71 1.336 . S
N72 N73 1.354 . S
N73 C69 1.336 1_556 S
N73 N72 1.354 . S
N73 Zn77 2.020 . S
C74 O75 1.244 . S
C74 O98 1.257 . S
O75 C74 1.244 . S
O76 Zn68 2.019 . S
O76 C96 1.257 . S
Zn77 N73 2.020 . S
Zn77 O84 1.975 . S
Zn77 N93 2.119 . S
Zn77 O98 2.019 . S
N78 Zn68 2.119 . S
N78 C80 1.334 . S
N78 C81 1.325 1_455 S
C79 C80 1.391 1_655 S
C79 N82 1.329 . S
C79 H100 0.930 . S
C80 N78 1.334 . S
C80 C79 1.391 1_455 S
C80 H87 0.930 . S
C81 N78 1.325 1_655 S
C81 C83 1.396 . S
C81 H88 0.929 1_655 S
N82 C79 1.329 . S
N82 C83 1.331 . S
C83 C81 1.396 . S
C83 N82 1.331 . S
O84 Zn77 1.975 . S
O84 C85 1.252 . S
C85 O84 1.252 . S
C85 O86 1.252 . S
O86 Zn68 1.975 . S
O86 C85 1.252 . S
H87 C80 0.930 . S
H88 C81 0.929 1_455 S
C89 C90 1.392 . S
C89 N93 1.328 . S
C89 H95 0.930 . S
C90 C89 1.392 . S
C90 N94 1.331 . S
C91 C92 1.391 . S
C91 N94 1.329 . S
C91 H101 0.930 . S
C92 C91 1.391 . S
C92 N93 1.334 . S
C92 H99 0.930 . S
N93 Zn77 2.119 . S
N93 C89 1.328 . S
N93 C92 1.334 . S
N94 C90 1.331 . S
N94 C91 1.329 . S
H95 C89 0.930 . S
C96 O76 1.257 . S
C96 O97 1.244 . S
O97 C96 1.244 . S
O98 C74 1.257 . S
O98 Zn77 2.019 . S
H99 C92 0.930 . S
H100 C79 0.930 . S
H101 C91 0.930 . S
Zn102 N106 2.020 . S
Zn102 O110 2.019 . S
Zn102 N112 2.119 . S
Zn102 O120 1.975 . S
C103 N104 1.334 . S
C103 N107 1.336 . S
N104 C103 1.334 . S
N104 C105 1.334 . S
C105 N104 1.334 . S
C105 N106 1.336 . S
N106 Zn102 2.020 . S
N106 C105 1.336 . S
N106 N107 1.354 . S
N107 C103 1.336 . S
N107 N106 1.354 . S
N107 Zn111 2.020 . S
C108 O109 1.244 . S
C108 O132 1.257 . S
O109 C108 1.244 . S
O110 Zn102 2.019 . S
O110 C130 1.257 . S
Zn111 N107 2.020 . S
Zn111 O118 1.975 . S
Zn111 N127 2.119 . S
Zn111 O132 2.019 . S
N112 Zn102 2.119 . S
N112 C114 1.334 . S
N112 C115 1.328 . S
C113 C114 1.391 . S
C113 N116 1.329 . S
C113 H134 0.930 . S
C114 N112 1.334 . S
C114 C113 1.391 . S
C114 H121 0.930 . S
C115 N112 1.328 . S
C115 C117 1.392 . S
C115 H122 0.930 . S
N116 C113 1.329 . S
N116 C117 1.331 . S
C117 C115 1.392 . S
C117 N116 1.331 . S
O118 Zn111 1.975 . S
O118 C119 1.252 . S
C119 O118 1.252 . S
C119 O120 1.252 . S
O120 Zn102 1.975 . S
O120 C119 1.252 . S
H121 C114 0.930 . S
H122 C115 0.930 . S
C123 C124 1.392 . S
C123 N127 1.328 . S
C123 H129 0.930 . S
C124 C123 1.392 . S
C124 N128 1.331 . S
C125 C126 1.391 . S
C125 N128 1.329 . S
C125 H135 0.930 . S
C126 C125 1.391 . S
C126 N127 1.334 . S
C126 H133 0.930 . S
N127 Zn111 2.119 . S
N127 C123 1.328 . S
N127 C126 1.334 . S
N128 C124 1.331 . S
N128 C125 1.329 . S
H129 C123 0.930 . S
C130 O110 1.257 . S
C130 O131 1.244 . S
O131 C130 1.244 . S
O132 C108 1.257 . S
O132 Zn111 2.019 . S
H133 C126 0.930 . S
H134 C113 0.930 . S
H135 C125 0.930 . S
Zn136 N140 2.020 . S
Zn136 O144 2.019 . S
Zn136 N146 2.119 . S
Zn136 O154 1.975 . S
C137 N138 1.334 1_554 S
C137 N141 1.336 . S
N138 C137 1.334 1_556 S
N138 C139 1.334 . S
C139 N138 1.334 . S
C139 N140 1.336 1_556 S
N140 Zn136 2.020 . S
N140 C139 1.336 1_554 S
N140 N141 1.354 . S
N141 C137 1.336 . S
N141 N140 1.354 . S
N141 Zn145 2.020 . S
C142 O143 1.244 . S
C142 O166 1.257 . S
O143 C142 1.244 . S
O144 Zn136 2.019 . S
O144 C164 1.257 . S
Zn145 N141 2.020 . S
Zn145 O152 1.975 . S
Zn145 N161 2.119 . S
Zn145 O166 2.019 . S
N146 Zn136 2.119 . S
N146 C148 1.334 . S
N146 C149 1.328 . S
C147 C148 1.391 . S
C147 N150 1.329 . S
C147 H168 0.930 . S
C148 N146 1.334 . S
C148 C147 1.391 . S
C148 H155 0.930 . S
C149 N146 1.328 . S
C149 C151 1.392 . S
C149 H156 0.930 . S
N150 C147 1.329 . S
N150 C151 1.331 . S
C151 C149 1.392 . S
C151 N150 1.331 . S
O152 Zn145 1.975 . S
O152 C153 1.252 . S
C153 O152 1.252 . S
C153 O154 1.252 . S
O154 Zn136 1.975 . S
O154 C153 1.252 . S
H155 C148 0.930 . S
H156 C149 0.930 . S
C157 C158 1.392 . S
C157 N161 1.328 . S
C157 H163 0.930 . S
C158 C157 1.392 . S
C158 N162 1.331 . S
C159 C160 1.391 . S
C159 N162 1.329 . S
C159 H169 0.930 . S
C160 C159 1.391 . S
C160 N161 1.334 . S
C160 H167 0.930 . S
N161 Zn145 2.119 . S
N161 C157 1.328 . S
N161 C160 1.334 . S
N162 C158 1.331 . S
N162 C159 1.329 . S
H163 C157 0.930 . S
C164 O144 1.257 . S
C164 O165 1.244 . S
O165 C164 1.244 . S
O166 C142 1.257 . S
O166 Zn145 2.019 . S
H167 C160 0.930 . S
H168 C147 0.930 . S
H169 C159 0.930 . S
Zn170 N174 2.020 . S
Zn170 O178 2.019 . S
Zn170 N180 2.119 1_455 S
Zn170 O188 1.975 . S
C171 N172 1.334 . S
C171 N175 1.336 . S
N172 C171 1.334 . S
N172 C173 1.334 . S
C173 N172 1.334 . S
C173 N174 1.336 . S
N174 Zn170 2.020 . S
N174 C173 1.336 . S
N174 N175 1.354 . S
N175 C171 1.336 . S
N175 N174 1.354 . S
N175 Zn179 2.020 . S
C176 O177 1.244 . S
C176 O200 1.257 . S
O177 C176 1.244 . S
O178 Zn170 2.019 . S
O178 C198 1.257 . S
Zn179 N175 2.020 . S
Zn179 O186 1.975 . S
Zn179 N195 2.119 . S
Zn179 O200 2.019 . S
N180 Zn170 2.119 1_655 S
N180 C182 1.334 . S
N180 C183 1.328 . S
C181 C182 1.391 . S
C181 N184 1.329 . S
C181 H202 0.930 . S
C182 N180 1.334 . S
C182 C181 1.391 . S
C182 H189 0.930 . S
C183 N180 1.328 . S
C183 C185 1.392 . S
C183 H190 0.930 . S
N184 C181 1.329 . S
N184 C185 1.331 . S
C185 C183 1.392 . S
C185 N184 1.331 . S
O186 Zn179 1.975 . S
O186 C187 1.252 . S
C187 O186 1.252 . S
C187 O188 1.252 . S
O188 Zn170 1.975 . S
O188 C187 1.252 . S
H189 C182 0.930 . S
H190 C183 0.930 . S
C191 C192 1.392 . S
C191 N195 1.328 . S
C191 H197 0.930 . S
C192 C191 1.392 . S
C192 N196 1.331 . S
C193 C194 1.391 . S
C193 N196 1.329 . S
C193 H203 0.930 . S
C194 C193 1.391 . S
C194 N195 1.334 . S
C194 H201 0.930 . S
N195 Zn179 2.119 . S
N195 C191 1.328 . S
N195 C194 1.334 . S
N196 C192 1.331 . S
N196 C193 1.329 . S
H197 C191 0.930 . S
C198 O178 1.257 . S
C198 O199 1.244 . S
O199 C198 1.244 . S
O200 C176 1.257 . S
O200 Zn179 2.019 . S
H201 C194 0.930 . S
H202 C181 0.930 . S
H203 C193 0.930 . S
Zn204 N208 2.020 . S
Zn204 O212 2.019 . S
Zn204 N214 2.119 . S
Zn204 O222 1.975 . S
C205 N206 1.334 . S
C205 N209 1.336 1_554 S
N206 C205 1.334 . S
N206 C207 1.334 1_554 S
C207 N206 1.334 1_556 S
C207 N208 1.336 . S
N208 Zn204 2.020 . S
N208 C207 1.336 . S
N208 N209 1.354 . S
N209 C205 1.336 1_556 S
N209 N208 1.354 . S
N209 Zn213 2.020 . S
C210 O211 1.244 . S
C210 O234 1.257 . S
O211 C210 1.244 . S
O212 Zn204 2.019 . S
O212 C232 1.257 . S
Zn213 N209 2.020 . S
Zn213 O220 1.975 . S
Zn213 N229 2.119 . S
Zn213 O234 2.019 . S
N214 Zn204 2.119 . S
N214 C216 1.334 . S
N214 C217 1.328 . S
C215 C216 1.391 . S
C215 N218 1.329 . S
C215 H236 0.930 . S
C216 N214 1.334 . S
C216 C215 1.391 . S
C216 H223 0.930 . S
C217 N214 1.328 . S
C217 C219 1.392 . S
C217 H224 0.930 . S
N218 C215 1.329 . S
N218 C219 1.331 . S
C219 C217 1.392 . S
C219 N218 1.331 . S
O220 Zn213 1.975 . S
O220 C221 1.252 . S
C221 O220 1.252 . S
C221 O222 1.252 . S
O222 Zn204 1.975 . S
O222 C221 1.252 . S
H223 C216 0.930 . S
H224 C217 0.930 . S
C225 C226 1.392 . S
C225 N229 1.328 . S
C225 H231 0.930 . S
C226 C225 1.392 . S
C226 N230 1.331 . S
C227 C228 1.391 . S
C227 N230 1.329 . S
C227 H237 0.930 . S
C228 C227 1.391 . S
C228 N229 1.334 . S
C228 H235 0.930 . S
N229 Zn213 2.119 . S
N229 C225 1.328 . S
N229 C228 1.334 . S
N230 C226 1.331 . S
N230 C227 1.329 . S
H231 C225 0.930 . S
C232 O212 1.257 . S
C232 O233 1.244 . S
O233 C232 1.244 . S
O234 C210 1.257 . S
O234 Zn213 2.019 . S
H235 C228 0.930 . S
H236 C215 0.930 . S
H237 C227 0.930 . S
Zn238 N242 2.020 . S
Zn238 O246 2.019 . S
Zn238 N248 2.119 . S
Zn238 O256 1.975 . S
C239 N240 1.334 . S
C239 N243 1.336 . S
N240 C239 1.334 . S
N240 C241 1.334 . S
C241 N240 1.334 . S
C241 N242 1.336 . S
N242 Zn238 2.020 . S
N242 C241 1.336 . S
N242 N243 1.354 . S
N243 C239 1.336 . S
N243 N242 1.354 . S
N243 Zn247 2.020 . S
C244 O245 1.244 . S
C244 O268 1.257 . S
O245 C244 1.244 . S
O246 Zn238 2.019 . S
O246 C266 1.257 . S
Zn247 N243 2.020 . S
Zn247 O254 1.975 . S
Zn247 N263 2.119 1_455 S
Zn247 O268 2.019 . S
N248 Zn238 2.119 . S
N248 C250 1.334 . S
N248 C251 1.328 . S
C249 C250 1.391 . S
C249 N252 1.329 . S
C249 H270 0.930 . S
C250 N248 1.334 . S
C250 C249 1.391 . S
C250 H257 0.930 . S
C251 N248 1.328 . S
C251 C253 1.392 . S
C251 H258 0.930 . S
N252 C249 1.329 . S
N252 C253 1.331 . S
C253 C251 1.392 . S
C253 N252 1.331 . S
O254 Zn247 1.975 . S
O254 C255 1.252 . S
C255 O254 1.252 . S
C255 O256 1.252 . S
O256 Zn238 1.975 . S
O256 C255 1.252 . S
H257 C250 0.930 . S
H258 C251 0.930 . S
C259 C260 1.392 . S
C259 N263 1.328 . S
C259 H265 0.930 . S
C260 C259 1.392 . S
C260 N264 1.331 . S
C261 C262 1.391 . S
C261 N264 1.329 . S
C261 H271 0.930 . S
C262 C261 1.391 . S
C262 N263 1.334 . S
C262 H269 0.930 . S
N263 Zn247 2.119 1_655 S
N263 C259 1.328 . S
N263 C262 1.334 . S
N264 C260 1.331 . S
N264 C261 1.329 . S
H265 C259 0.930 . S
C266 O246 1.257 . S
C266 O267 1.244 . S
O267 C266 1.244 . S
O268 C244 1.257 . S
O268 Zn247 2.019 . S
H269 C262 0.930 . S
H270 C249 0.930 . S
H271 C261 0.930 . S
H272 C280 0.950 . S
H273 C285 0.950 . S
H274 C282 0.950 . S
H275 C284 0.950 . S
H276 C286 0.950 . S
H277 C288 0.950 . S
H278 C290 0.950 . S
H279 C291 0.950 . S
C280 H272 0.950 . S
C280 C281 1.386 . S
C280 C282 1.391 . S
C281 C280 1.386 . S
C281 C285 1.393 . S
C282 H274 0.950 . S
C282 C280 1.391 . S
C282 C283 1.400 . S
C283 C282 1.400 . S
C283 C284 1.398 . S
C283 C289 1.491 . S
C284 H275 0.950 . S
C284 C283 1.398 . S
C284 C285 1.391 . S
C285 H273 0.950 . S
C285 C281 1.393 . S
C285 C284 1.391 . S
C286 H276 0.950 . S
C286 C287 1.386 . S
C286 C288 1.391 . S
C287 C286 1.386 . S
C287 C291 1.393 . S
C288 H277 0.950 . S
C288 C286 1.391 . S
C288 C289 1.400 . S
C289 C283 1.491 . S
C289 C288 1.400 . S
C289 C290 1.398 . S
C290 H278 0.950 . S
C290 C289 1.398 . S
C290 C291 1.391 . S
C291 H279 0.950 . S
C291 C287 1.393 . S
C291 C290 1.391 . S
H292 C300 0.950 . S
H293 C305 0.950 . S
H294 C302 0.950 . S
H295 C304 0.950 . S
H296 C306 0.950 . S
H297 C308 0.950 . S
H298 C310 0.950 . S
H299 C311 0.950 . S
C300 H292 0.950 . S
C300 C301 1.386 . S
C300 C302 1.391 . S
C301 C300 1.386 . S
C301 C305 1.393 . S
C302 H294 0.950 . S
C302 C300 1.391 . S
C302 C303 1.400 . S
C303 C302 1.400 . S
C303 C304 1.398 . S
C303 C309 1.491 . S
C304 H295 0.950 . S
C304 C303 1.398 . S
C304 C305 1.391 . S
C305 H293 0.950 . S
C305 C301 1.393 . S
C305 C304 1.391 . S
C306 H296 0.950 . S
C306 C307 1.386 . S
C306 C308 1.391 . S
C307 C306 1.386 . S
C307 C311 1.393 . S
C308 H297 0.950 . S
C308 C306 1.391 . S
C308 C309 1.400 . S
C309 C303 1.491 . S
C309 C308 1.400 . S
C309 C310 1.398 . S
C310 H298 0.950 . S
C310 C309 1.398 . S
C310 C311 1.391 . S
C311 H299 0.950 . S
C311 C307 1.393 . S
C311 C310 1.391 . S
H312 C320 0.950 . S
H313 C325 0.950 . S
H314 C322 0.950 . S
H315 C324 0.950 . S
H316 C326 0.950 . S
H317 C328 0.950 . S
H318 C330 0.950 . S
H319 C331 0.950 . S
C320 H312 0.950 . S
C320 C321 1.386 . S
C320 C322 1.391 . S
C321 C320 1.386 . S
C321 C325 1.393 . S
C322 H314 0.950 . S
C322 C320 1.391 . S
C322 C323 1.400 . S
C323 C322 1.400 . S
C323 C324 1.398 . S
C323 C329 1.491 . S
C324 H315 0.950 . S
C324 C323 1.398 . S
C324 C325 1.391 . S
C325 H313 0.950 . S
C325 C321 1.393 . S
C325 C324 1.391 . S
C326 H316 0.950 . S
C326 C327 1.386 . S
C326 C328 1.391 . S
C327 C326 1.386 . S
C327 C331 1.393 . S
C328 H317 0.950 . S
C328 C326 1.391 . S
C328 C329 1.400 . S
C329 C323 1.491 . S
C329 C328 1.400 . S
C329 C330 1.398 . S
C330 H318 0.950 . S
C330 C329 1.398 . S
C330 C331 1.391 . S
C331 H319 0.950 . S
C331 C327 1.393 . S
C331 C330 1.391 . S
H332 C340 0.950 . S
H333 C345 0.950 . S
H334 C342 0.950 . S
H335 C344 0.950 . S
H336 C346 0.950 . S
H337 C348 0.950 . S
H338 C350 0.950 . S
H339 C351 0.950 . S
C340 H332 0.950 . S
C340 C341 1.386 . S
C340 C342 1.391 . S
C341 C340 1.386 . S
C341 C345 1.393 . S
C342 H334 0.950 . S
C342 C340 1.391 . S
C342 C343 1.400 . S
C343 C342 1.400 . S
C343 C344 1.398 . S
C343 C349 1.491 . S
C344 H335 0.950 . S
C344 C343 1.398 . S
C344 C345 1.391 . S
C345 H333 0.950 . S
C345 C341 1.393 . S
C345 C344 1.391 . S
C346 H336 0.950 . S
C346 C347 1.386 . S
C346 C348 1.391 . S
C347 C346 1.386 . S
C347 C351 1.393 . S
C348 H337 0.950 . S
C348 C346 1.391 . S
C348 C349 1.400 . S
C349 C343 1.491 . S
C349 C348 1.400 . S
C349 C350 1.398 . S
C350 H338 0.950 . S
C350 C349 1.398 . S
C350 C351 1.391 . S
C351 H339 0.950 . S
C351 C347 1.393 . S
C351 C350 1.391 . S
H352 C360 0.950 . S
H353 C365 0.950 . S
H354 C362 0.950 . S
H355 C364 0.950 . S
H356 C366 0.950 . S
H357 C368 0.950 . S
H358 C370 0.950 . S
H359 C371 0.950 . S
C360 H352 0.950 . S
C360 C361 1.386 . S
C360 C362 1.391 . S
C361 C360 1.386 . S
C361 C365 1.393 . S
C362 H354 0.950 . S
C362 C360 1.391 . S
C362 C363 1.400 . S
C363 C362 1.400 . S
C363 C364 1.398 . S
C363 C369 1.491 . S
C364 H355 0.950 . S
C364 C363 1.398 . S
C364 C365 1.391 . S
C365 H353 0.950 . S
C365 C361 1.393 . S
C365 C364 1.391 . S
C366 H356 0.950 . S
C366 C367 1.386 . S
C366 C368 1.391 . S
C367 C366 1.386 . S
C367 C371 1.393 . S
C368 H357 0.950 . S
C368 C366 1.391 . S
C368 C369 1.400 . S
C369 C363 1.491 . S
C369 C368 1.400 . S
C369 C370 1.398 . S
C370 H358 0.950 . S
C370 C369 1.398 . S
C370 C371 1.391 . S
C371 H359 0.950 . S
C371 C367 1.393 . S
C371 C370 1.391 . S
H372 C380 0.950 . S
H373 C385 0.950 . S
H374 C382 0.950 . S
H375 C384 0.950 . S
H376 C386 0.950 . S
H377 C388 0.950 . S
H378 C390 0.950 . S
H379 C391 0.950 . S
C380 H372 0.950 . S
C380 C381 1.386 . S
C380 C382 1.391 . S
C381 C380 1.386 . S
C381 C385 1.393 . S
C382 H374 0.950 . S
C382 C380 1.391 . S
C382 C383 1.400 . S
C383 C382 1.400 . S
C383 C384 1.398 . S
C383 C389 1.491 . S
C384 H375 0.950 . S
C384 C383 1.398 . S
C384 C385 1.391 . S
C385 H373 0.950 . S
C385 C381 1.393 . S
C385 C384 1.391 . S
C386 H376 0.950 . S
C386 C387 1.386 . S
C386 C388 1.391 . S
C387 C386 1.386 . S
C387 C391 1.393 . S
C388 H377 0.950 . S
C388 C386 1.391 . S
C388 C389 1.400 . S
C389 C383 1.491 . S
C389 C388 1.400 . S
C389 C390 1.398 . S
C390 H378 0.950 . S
C390 C389 1.398 . S
C390 C391 1.391 . S
C391 H379 0.950 . S
C391 C387 1.393 . S
C391 C390 1.391 . S
H392 C400 0.950 . S
H393 C405 0.950 . S
H394 C402 0.950 . S
H395 C404 0.950 . S
H396 C406 0.950 . S
H397 C408 0.950 . S
H398 C410 0.950 . S
H399 C411 0.950 . S
C400 H392 0.950 . S
C400 C401 1.386 . S
C400 C402 1.391 . S
C401 C400 1.386 . S
C401 C405 1.393 . S
C402 H394 0.950 . S
C402 C400 1.391 . S
C402 C403 1.400 . S
C403 C402 1.400 . S
C403 C404 1.398 . S
C403 C409 1.491 . S
C404 H395 0.950 . S
C404 C403 1.398 . S
C404 C405 1.391 . S
C405 H393 0.950 . S
C405 C401 1.393 . S
C405 C404 1.391 . S
C406 H396 0.950 . S
C406 C407 1.386 . S
C406 C408 1.391 . S
C407 C406 1.386 . S
C407 C411 1.393 . S
C408 H397 0.950 . S
C408 C406 1.391 . S
C408 C409 1.400 . S
C409 C403 1.491 . S
C409 C408 1.400 . S
C409 C410 1.398 . S
C410 H398 0.950 . S
C410 C409 1.398 . S
C410 C411 1.391 . S
C411 H399 0.950 . S
C411 C407 1.393 . S
C411 C410 1.391 . S
H412 C420 0.950 . S
H413 C425 0.950 . S
H414 C422 0.950 . S
H415 C424 0.950 . S
H416 C426 0.950 . S
H417 C428 0.950 . S
H418 C430 0.950 . S
H419 C431 0.950 . S
C420 H412 0.950 . S
C420 C421 1.386 . S
C420 C422 1.391 . S
C421 C420 1.386 . S
C421 C425 1.393 . S
C422 H414 0.950 . S
C422 C420 1.391 . S
C422 C423 1.400 . S
C423 C422 1.400 . S
C423 C424 1.398 . S
C423 C429 1.491 . S
C424 H415 0.950 . S
C424 C423 1.398 . S
C424 C425 1.391 . S
C425 H413 0.950 . S
C425 C421 1.393 . S
C425 C424 1.391 . S
C426 H416 0.950 . S
C426 C427 1.386 . S
C426 C428 1.391 . S
C427 C426 1.386 . S
C427 C431 1.393 . S
C428 H417 0.950 . S
C428 C426 1.391 . S
C428 C429 1.400 . S
C429 C423 1.491 . S
C429 C428 1.400 . S
C429 C430 1.398 . S
C430 H418 0.950 . S
C430 C429 1.398 . S
C430 C431 1.391 . S
C431 H419 0.950 . S
C431 C427 1.393 . S
C431 C430 1.391 . S
H432 C440 0.950 . S
H433 C445 0.950 . S
H434 C442 0.950 . S
H435 C444 0.950 1_554 S
H436 C446 0.950 . S
H437 C448 0.950 . S
H438 C450 0.950 1_556 S
H439 C451 0.950 . S
C440 H432 0.950 . S
C440 C441 1.386 . S
C440 C442 1.391 . S
C441 C440 1.386 . S
C441 C445 1.393 . S
C442 H434 0.950 . S
C442 C440 1.391 . S
C442 C443 1.400 . S
C443 C442 1.400 . S
C443 C444 1.398 . S
C443 C449 1.491 1_556 S
C444 H435 0.950 1_556 S
C444 C443 1.398 . S
C444 C445 1.391 . S
C445 H433 0.950 . S
C445 C441 1.393 . S
C445 C444 1.391 . S
C446 H436 0.950 . S
C446 C447 1.386 . S
C446 C448 1.391 . S
C447 C446 1.386 . S
C447 C451 1.393 . S
C448 H437 0.950 . S
C448 C446 1.391 . S
C448 C449 1.400 . S
C449 C443 1.491 1_554 S
C449 C448 1.400 . S
C449 C450 1.398 . S
C450 H438 0.950 1_554 S
C450 C449 1.398 . S
C450 C451 1.391 . S
C451 H439 0.950 . S
C451 C447 1.393 . S
C451 C450 1.391 . S
H452 C460 0.950 . S
H453 C465 0.950 . S
H454 C462 0.950 . S
H455 C464 0.950 . S
H456 C466 0.950 . S
H457 C468 0.950 . S
H458 C470 0.950 . S
H459 C471 0.950 . S
C460 H452 0.950 . S
C460 C461 1.386 . S
C460 C462 1.391 . S
C461 C460 1.386 . S
C461 C465 1.393 . S
C462 H454 0.950 . S
C462 C460 1.391 . S
C462 C463 1.400 . S
C463 C462 1.400 . S
C463 C464 1.398 . S
C463 C469 1.491 . S
C464 H455 0.950 . S
C464 C463 1.398 . S
C464 C465 1.391 . S
C465 H453 0.950 . S
C465 C461 1.393 . S
C465 C464 1.391 . S
C466 H456 0.950 . S
C466 C467 1.386 . S
C466 C468 1.391 . S
C467 C466 1.386 . S
C467 C471 1.393 . S
C468 H457 0.950 . S
C468 C466 1.391 . S
C468 C469 1.400 . S
C469 C463 1.491 . S
C469 C468 1.400 . S
C469 C470 1.398 . S
C470 H458 0.950 . S
C470 C469 1.398 . S
C470 C471 1.391 . S
C471 H459 0.950 . S
C471 C467 1.393 . S
C471 C470 1.391 . S
H472 C480 0.950 . S
H473 C485 0.950 . S
H474 C482 0.950 . S
H475 C484 0.950 . S
H476 C486 0.950 . S
H477 C488 0.950 . S
H478 C490 0.950 . S
H479 C491 0.950 . S
C480 H472 0.950 . S
C480 C481 1.386 1_554 S
C480 C482 1.391 . S
C481 C480 1.386 1_556 S
C481 C485 1.393 . S
C482 H474 0.950 . S
C482 C480 1.391 . S
C482 C483 1.400 1_554 S
C483 C482 1.400 1_556 S
C483 C484 1.398 . S
C483 C489 1.491 1_546 S
C484 H475 0.950 . S
C484 C483 1.398 . S
C484 C485 1.391 . S
C485 H473 0.950 . S
C485 C481 1.393 . S
C485 C484 1.391 . S
C486 H476 0.950 . S
C486 C487 1.386 1_556 S
C486 C488 1.391 . S
C487 C486 1.386 1_554 S
C487 C491 1.393 . S
C488 H477 0.950 . S
C488 C486 1.391 . S
C488 C489 1.400 1_556 S
C489 C483 1.491 1_564 S
C489 C488 1.400 1_554 S
C489 C490 1.398 . S
C490 H478 0.950 . S
C490 C489 1.398 . S
C490 C491 1.391 . S
C491 H479 0.950 . S
C491 C487 1.393 . S
C491 C490 1.391 . S
H492 C500 0.950 . S
H493 C505 0.950 . S
H494 C502 0.950 . S
H495 C504 0.950 . S
H496 C506 0.950 . S
H497 C508 0.950 . S
H498 C510 0.950 . S
H499 C511 0.950 . S
C500 H492 0.950 . S
C500 C501 1.386 . S
C500 C502 1.391 . S
C501 C500 1.386 . S
C501 C505 1.393 . S
C502 H494 0.950 . S
C502 C500 1.391 . S
C502 C503 1.400 . S
C503 C502 1.400 . S
C503 C504 1.398 . S
C503 C509 1.491 1_565 S
C504 H495 0.950 . S
C504 C503 1.398 . S
C504 C505 1.391 . S
C505 H493 0.950 . S
C505 C501 1.393 . S
C505 C504 1.391 . S
C506 H496 0.950 . S
C506 C507 1.386 . S
C506 C508 1.391 . S
C507 C506 1.386 . S
C507 C511 1.393 . S
C508 H497 0.950 . S
C508 C506 1.391 . S
C508 C509 1.400 . S
C509 C503 1.491 1_545 S
C509 C508 1.400 . S
C509 C510 1.398 . S
C510 H498 0.950 . S
C510 C509 1.398 . S
C510 C511 1.391 . S
C511 H499 0.950 . S
C511 C507 1.393 . S
C511 C510 1.391 . S
H512 C520 0.950 . S
H513 C525 0.950 . S
H514 C522 0.950 . S
H515 C524 0.950 . S
H516 C526 0.950 . S
H517 C528 0.950 . S
H518 C530 0.950 . S
H519 C531 0.950 . S
C520 H512 0.950 . S
C520 C521 1.386 . S
C520 C522 1.391 . S
C521 C520 1.386 . S
C521 C525 1.393 1_554 S
C522 H514 0.950 . S
C522 C520 1.391 . S
C522 C523 1.400 1_554 S
C523 C522 1.400 1_556 S
C523 C524 1.398 . S
C523 C529 1.491 . S
C524 H515 0.950 . S
C524 C523 1.398 . S
C524 C525 1.391 . S
C525 H513 0.950 . S
C525 C521 1.393 1_556 S
C525 C524 1.391 . S
C526 H516 0.950 . S
C526 C527 1.386 . S
C526 C528 1.391 . S
C527 C526 1.386 . S
C527 C531 1.393 . S
C528 H517 0.950 . S
C528 C526 1.391 . S
C528 C529 1.400 . S
C529 C523 1.491 . S
C529 C528 1.400 . S
C529 C530 1.398 . S
C530 H518 0.950 . S
C530 C529 1.398 . S
C530 C531 1.391 . S
C531 H519 0.950 . S
C531 C527 1.393 . S
C531 C530 1.391 . S
H532 C540 0.950 . S
H533 C545 0.950 . S
H534 C542 0.950 . S
H535 C544 0.950 . S
H536 C546 0.950 . S
H537 C548 0.950 . S
H538 C550 0.950 . S
H539 C551 0.950 . S
C540 H532 0.950 . S
C540 C541 1.386 . S
C540 C542 1.391 . S
C541 C540 1.386 . S
C541 C545 1.393 . S
C542 H534 0.950 . S
C542 C540 1.391 . S
C542 C543 1.400 . S
C543 C542 1.400 . S
C543 C544 1.398 . S
C543 C549 1.491 . S
C544 H535 0.950 . S
C544 C543 1.398 . S
C544 C545 1.391 . S
C545 H533 0.950 . S
C545 C541 1.393 . S
C545 C544 1.391 . S
C546 H536 0.950 . S
C546 C547 1.386 . S
C546 C548 1.391 . S
C547 C546 1.386 . S
C547 C551 1.393 . S
C548 H537 0.950 . S
C548 C546 1.391 . S
C548 C549 1.400 . S
C549 C543 1.491 . S
C549 C548 1.400 . S
C549 C550 1.398 . S
C550 H538 0.950 . S
C550 C549 1.398 . S
C550 C551 1.391 . S
C551 H539 0.950 . S
C551 C547 1.393 . S
C551 C550 1.391 . S
H552 C560 0.950 . S
H553 C565 0.950 . S
H554 C562 0.950 1_556 S
H555 C564 0.950 . S
H556 C566 0.950 . S
H557 C568 0.950 . S
H558 C570 0.950 . S
H559 C571 0.950 . S
C560 H552 0.950 . S
C560 C561 1.386 . S
C560 C562 1.391 . S
C561 C560 1.386 . S
C561 C565 1.393 . S
C562 H554 0.950 1_554 S
C562 C560 1.391 . S
C562 C563 1.400 . S
C563 C562 1.400 . S
C563 C564 1.398 . S
C563 C569 1.491 . S
C564 H555 0.950 . S
C564 C563 1.398 . S
C564 C565 1.391 . S
C565 H553 0.950 . S
C565 C561 1.393 . S
C565 C564 1.391 . S
C566 H556 0.950 . S
C566 C567 1.386 1_554 S
C566 C568 1.391 . S
C567 C566 1.386 1_556 S
C567 C571 1.393 . S
C568 H557 0.950 . S
C568 C566 1.391 . S
C568 C569 1.400 . S
C569 C563 1.491 . S
C569 C568 1.400 . S
C569 C570 1.398 1_554 S
C570 H558 0.950 . S
C570 C569 1.398 1_556 S
C570 C571 1.391 . S
C571 H559 0.950 . S
C571 C567 1.393 . S
C571 C570 1.391 . S
H572 C580 0.950 . S
H573 C585 0.950 . S
H574 C582 0.950 . S
H575 C584 0.950 . S
H576 C586 0.950 . S
H577 C588 0.950 . S
H578 C590 0.950 . S
H579 C591 0.950 . S
C580 H572 0.950 . S
C580 C581 1.386 . S
C580 C582 1.391 . S
C581 C580 1.386 . S
C581 C585 1.393 . S
C582 H574 0.950 . S
C582 C580 1.391 . S
C582 C583 1.400 . S
C583 C582 1.400 . S
C583 C584 1.398 . S
C583 C589 1.491 . S
C584 H575 0.950 . S
C584 C583 1.398 . S
C584 C585 1.391 . S
C585 H573 0.950 . S
C585 C581 1.393 . S
C585 C584 1.391 . S
C586 H576 0.950 . S
C586 C587 1.386 . S
C586 C588 1.391 . S
C587 C586 1.386 . S
C587 C591 1.393 . S
C588 H577 0.950 . S
C588 C586 1.391 . S
C588 C589 1.400 . S
C589 C583 1.491 . S
C589 C588 1.400 . S
C589 C590 1.398 . S
C590 H578 0.950 . S
C590 C589 1.398 . S
C590 C591 1.391 . S
C591 H579 0.950 . S
C591 C587 1.393 . S
C591 C590 1.391 . S
H592 C600 0.950 . S
H593 C605 0.950 . S
H594 C602 0.950 . S
H595 C604 0.950 . S
H596 C606 0.950 . S
H597 C608 0.950 . S
H598 C610 0.950 1_554 S
H599 C611 0.950 . S
C600 H592 0.950 . S
C600 C601 1.386 . S
C600 C602 1.391 . S
C601 C600 1.386 . S
C601 C605 1.393 . S
C602 H594 0.950 . S
C602 C600 1.391 . S
C602 C603 1.400 . S
C603 C602 1.400 . S
C603 C604 1.398 . S
C603 C609 1.491 . S
C604 H595 0.950 . S
C604 C603 1.398 . S
C604 C605 1.391 . S
C605 H593 0.950 . S
C605 C601 1.393 . S
C605 C604 1.391 . S
C606 H596 0.950 . S
C606 C607 1.386 1_556 S
C606 C608 1.391 . S
C607 C606 1.386 1_554 S
C607 C611 1.393 . S
C608 H597 0.950 . S
C608 C606 1.391 . S
C608 C609 1.400 . S
C609 C603 1.491 . S
C609 C608 1.400 . S
C609 C610 1.398 . S
C610 H598 0.950 1_556 S
C610 C609 1.398 . S
C610 C611 1.391 1_556 S
C611 H599 0.950 . S
C611 C607 1.393 . S
C611 C610 1.391 1_554 S
H612 C620 0.950 . S
H613 C625 0.950 . S
H614 C622 0.950 . S
H615 C624 0.950 . S
H616 C626 0.950 . S
H617 C628 0.950 . S
H618 C630 0.950 . S
H619 C631 0.950 . S
C620 H612 0.950 . S
C620 C621 1.386 . S
C620 C622 1.391 . S
C621 C620 1.386 . S
C621 C625 1.393 . S
C622 H614 0.950 . S
C622 C620 1.391 . S
C622 C623 1.400 . S
C623 C622 1.400 . S
C623 C624 1.398 . S
C623 C629 1.491 . S
C624 H615 0.950 . S
C624 C623 1.398 . S
C624 C625 1.391 . S
C625 H613 0.950 . S
C625 C621 1.393 . S
C625 C624 1.391 . S
C626 H616 0.950 . S
C626 C627 1.386 . S
C626 C628 1.391 . S
C627 C626 1.386 . S
C627 C631 1.393 . S
C628 H617 0.950 . S
C628 C626 1.391 . S
C628 C629 1.400 . S
C629 C623 1.491 . S
C629 C628 1.400 . S
C629 C630 1.398 . S
C630 H618 0.950 . S
C630 C629 1.398 . S
C630 C631 1.391 . S
C631 H619 0.950 . S
C631 C627 1.393 . S
C631 C630 1.391 . S
H632 C640 0.950 . S
H633 C645 0.950 . S
H634 C642 0.950 . S
H635 C644 0.950 . S
H636 C646 0.950 . S
H637 C648 0.950 . S
H638 C650 0.950 1_556 S
H639 C651 0.950 . S
C640 H632 0.950 . S
C640 C641 1.386 . S
C640 C642 1.391 . S
C641 C640 1.386 . S
C641 C645 1.393 . S
C642 H634 0.950 . S
C642 C640 1.391 . S
C642 C643 1.400 . S
C643 C642 1.400 . S
C643 C644 1.398 . S
C643 C649 1.491 . S
C644 H635 0.950 . S
C644 C643 1.398 . S
C644 C645 1.391 . S
C645 H633 0.950 . S
C645 C641 1.393 . S
C645 C644 1.391 . S
C646 H636 0.950 . S
C646 C647 1.386 1_554 S
C646 C648 1.391 . S
C647 C646 1.386 1_556 S
C647 C651 1.393 . S
C648 H637 0.950 . S
C648 C646 1.391 . S
C648 C649 1.400 . S
C649 C643 1.491 . S
C649 C648 1.400 . S
C649 C650 1.398 . S
C650 H638 0.950 1_554 S
C650 C649 1.398 . S
C650 C651 1.391 1_554 S
C651 H639 0.950 . S
C651 C647 1.393 . S
C651 C650 1.391 1_556 S
H652 C660 0.950 . S
H653 C665 0.950 . S
H654 C662 0.950 . S
H655 C664 0.950 . S
H656 C666 0.950 . S
H657 C668 0.950 . S
H658 C670 0.950 . S
H659 C671 0.950 . S
C660 H652 0.950 . S
C660 C661 1.386 . S
C660 C662 1.391 . S
C661 C660 1.386 . S
C661 C665 1.393 . S
C662 H654 0.950 . S
C662 C660 1.391 . S
C662 C663 1.400 . S
C663 C662 1.400 . S
C663 C664 1.398 . S
C663 C669 1.491 . S
C664 H655 0.950 . S
C664 C663 1.398 . S
C664 C665 1.391 . S
C665 H653 0.950 . S
C665 C661 1.393 . S
C665 C664 1.391 . S
C666 H656 0.950 . S
C666 C667 1.386 . S
C666 C668 1.391 . S
C667 C666 1.386 . S
C667 C671 1.393 . S
C668 H657 0.950 . S
C668 C666 1.391 . S
C668 C669 1.400 . S
C669 C663 1.491 . S
C669 C668 1.400 . S
C669 C670 1.398 . S
C670 H658 0.950 . S
C670 C669 1.398 . S
C670 C671 1.391 . S
C671 H659 0.950 . S
C671 C667 1.393 . S
C671 C670 1.391 . S
H672 C680 0.950 . S
H673 C685 0.950 . S
H674 C682 0.950 . S
H675 C684 0.950 . S
H676 C686 0.950 . S
H677 C688 0.950 . S
H678 C690 0.950 . S
H679 C691 0.950 . S
C680 H672 0.950 . S
C680 C681 1.386 . S
C680 C682 1.391 . S
C681 C680 1.386 . S
C681 C685 1.393 . S
C682 H674 0.950 . S
C682 C680 1.391 . S
C682 C683 1.400 . S
C683 C682 1.400 . S
C683 C684 1.398 . S
C683 C689 1.491 . S
C684 H675 0.950 . S
C684 C683 1.398 . S
C684 C685 1.391 . S
C685 H673 0.950 . S
C685 C681 1.393 . S
C685 C684 1.391 . S
C686 H676 0.950 . S
C686 C687 1.386 . S
C686 C688 1.391 . S
C687 C686 1.386 . S
C687 C691 1.393 . S
C688 H677 0.950 . S
C688 C686 1.391 . S
C688 C689 1.400 . S
C689 C683 1.491 . S
C689 C688 1.400 . S
C689 C690 1.398 . S
C690 H678 0.950 . S
C690 C689 1.398 . S
C690 C691 1.391 . S
C691 H679 0.950 . S
C691 C687 1.393 . S
C691 C690 1.391 . S
H692 C700 0.950 . S
H693 C705 0.950 . S
H694 C702 0.950 . S
H695 C704 0.950 . S
H696 C706 0.950 . S
H697 C708 0.950 . S
H698 C710 0.950 . S
H699 C711 0.950 . S
C700 H692 0.950 . S
C700 C701 1.386 . S
C700 C702 1.391 . S
C701 C700 1.386 . S
C701 C705 1.393 . S
C702 H694 0.950 . S
C702 C700 1.391 . S
C702 C703 1.400 . S
C703 C702 1.400 . S
C703 C704 1.398 . S
C703 C709 1.491 . S
C704 H695 0.950 . S
C704 C703 1.398 . S
C704 C705 1.391 . S
C705 H693 0.950 . S
C705 C701 1.393 . S
C705 C704 1.391 . S
C706 H696 0.950 . S
C706 C707 1.386 . S
C706 C708 1.391 1_556 S
C707 C706 1.386 . S
C707 C711 1.393 . S
C708 H697 0.950 . S
C708 C706 1.391 1_554 S
C708 C709 1.400 . S
C709 C703 1.491 . S
C709 C708 1.400 . S
C709 C710 1.398 . S
C710 H698 0.950 . S
C710 C709 1.398 . S
C710 C711 1.391 1_554 S
C711 H699 0.950 . S
C711 C707 1.393 . S
C711 C710 1.391 1_556 S
H712 C720 0.950 . S
H713 C725 0.950 . S
H714 C722 0.950 . S
H715 C724 0.950 . S
H716 C726 0.950 . S
H717 C728 0.950 . S
H718 C730 0.950 . S
H719 C731 0.950 . S
C720 H712 0.950 . S
C720 C721 1.386 . S
C720 C722 1.391 . S
C721 C720 1.386 . S
C721 C725 1.393 . S
C722 H714 0.950 . S
C722 C720 1.391 . S
C722 C723 1.400 . S
C723 C722 1.400 . S
C723 C724 1.398 . S
C723 C729 1.491 . S
C724 H715 0.950 . S
C724 C723 1.398 . S
C724 C725 1.391 . S
C725 H713 0.950 . S
C725 C721 1.393 . S
C725 C724 1.391 . S
C726 H716 0.950 . S
C726 C727 1.386 . S
C726 C728 1.391 . S
C727 C726 1.386 . S
C727 C731 1.393 . S
C728 H717 0.950 . S
C728 C726 1.391 . S
C728 C729 1.400 . S
C729 C723 1.491 . S
C729 C728 1.400 . S
C729 C730 1.398 . S
C730 H718 0.950 . S
C730 C729 1.398 . S
C730 C731 1.391 . S
C731 H719 0.950 . S
C731 C727 1.393 . S
C731 C730 1.391 . S
H732 C740 0.950 . S
H733 C745 0.950 . S
H734 C742 0.950 . S
H735 C744 0.950 . S
H736 C746 0.950 . S
H737 C748 0.950 . S
H738 C750 0.950 . S
H739 C751 0.950 . S
C740 H732 0.950 . S
C740 C741 1.386 . S
C740 C742 1.391 . S
C741 C740 1.386 . S
C741 C745 1.393 . S
C742 H734 0.950 . S
C742 C740 1.391 . S
C742 C743 1.400 . S
C743 C742 1.400 . S
C743 C744 1.398 . S
C743 C749 1.491 . S
C744 H735 0.950 . S
C744 C743 1.398 . S
C744 C745 1.391 . S
C745 H733 0.950 . S
C745 C741 1.393 . S
C745 C744 1.391 . S
C746 H736 0.950 . S
C746 C747 1.386 . S
C746 C748 1.391 1_554 S
C747 C746 1.386 . S
C747 C751 1.393 . S
C748 H737 0.950 . S
C748 C746 1.391 1_556 S
C748 C749 1.400 . S
C749 C743 1.491 . S
C749 C748 1.400 . S
C749 C750 1.398 . S
C750 H738 0.950 . S
C750 C749 1.398 . S
C750 C751 1.391 1_556 S
C751 H739 0.950 . S
C751 C747 1.393 . S
C751 C750 1.391 1_554 S
H752 C760 0.950 . S
H753 C765 0.950 . S
H754 C762 0.950 . S
H755 C764 0.950 . S
H756 C766 0.950 . S
H757 C768 0.950 . S
H758 C770 0.950 . S
H759 C771 0.950 . S
C760 H752 0.950 . S
C760 C761 1.386 . S
C760 C762 1.391 . S
C761 C760 1.386 . S
C761 C765 1.393 . S
C762 H754 0.950 . S
C762 C760 1.391 . S
C762 C763 1.400 . S
C763 C762 1.400 . S
C763 C764 1.398 . S
C763 C769 1.491 . S
C764 H755 0.950 . S
C764 C763 1.398 . S
C764 C765 1.391 . S
C765 H753 0.950 . S
C765 C761 1.393 . S
C765 C764 1.391 . S
C766 H756 0.950 . S
C766 C767 1.386 . S
C766 C768 1.391 . S
C767 C766 1.386 . S
C767 C771 1.393 . S
C768 H757 0.950 . S
C768 C766 1.391 . S
C768 C769 1.400 . S
C769 C763 1.491 . S
C769 C768 1.400 . S
C769 C770 1.398 . S
C770 H758 0.950 . S
C770 C769 1.398 . S
C770 C771 1.391 . S
C771 H759 0.950 . S
C771 C767 1.393 . S
C771 C770 1.391 . S
H772 C780 0.950 . S
H773 C785 0.950 . S
H774 C782 0.950 . S
H775 C784 0.950 . S
H776 C786 0.950 . S
H777 C788 0.950 . S
H778 C790 0.950 . S
H779 C791 0.950 . S
C780 H772 0.950 . S
C780 C781 1.386 . S
C780 C782 1.391 . S
C781 C780 1.386 . S
C781 C785 1.393 . S
C782 H774 0.950 . S
C782 C780 1.391 . S
C782 C783 1.400 . S
C783 C782 1.400 . S
C783 C784 1.398 . S
C783 C789 1.491 . S
C784 H775 0.950 . S
C784 C783 1.398 . S
C784 C785 1.391 . S
C785 H773 0.950 . S
C785 C781 1.393 . S
C785 C784 1.391 . S
C786 H776 0.950 . S
C786 C787 1.386 . S
C786 C788 1.391 1_556 S
C787 C786 1.386 . S
C787 C791 1.393 . S
C788 H777 0.950 . S
C788 C786 1.391 1_554 S
C788 C789 1.400 . S
C789 C783 1.491 . S
C789 C788 1.400 . S
C789 C790 1.398 . S
C790 H778 0.950 . S
C790 C789 1.398 . S
C790 C791 1.391 1_554 S
C791 H779 0.950 . S
C791 C787 1.393 . S
C791 C790 1.391 1_556 S
H792 C800 0.950 . S
H793 C805 0.950 . S
H794 C802 0.950 . S
H795 C804 0.950 . S
H796 C806 0.950 . S
H797 C808 0.950 . S
H798 C810 0.950 . S
H799 C811 0.950 . S
C800 H792 0.950 . S
C800 C801 1.386 . S
C800 C802 1.391 . S
C801 C800 1.386 . S
C801 C805 1.393 . S
C802 H794 0.950 . S
C802 C800 1.391 . S
C802 C803 1.400 . S
C803 C802 1.400 . S
C803 C804 1.398 . S
C803 C809 1.491 . S
C804 H795 0.950 . S
C804 C803 1.398 . S
C804 C805 1.391 . S
C805 H793 0.950 . S
C805 C801 1.393 . S
C805 C804 1.391 . S
C806 H796 0.950 . S
C806 C807 1.386 . S
C806 C808 1.391 . S
C807 C806 1.386 . S
C807 C811 1.393 . S
C808 H797 0.950 . S
C808 C806 1.391 . S
C808 C809 1.400 . S
C809 C803 1.491 . S
C809 C808 1.400 . S
C809 C810 1.398 . S
C810 H798 0.950 . S
C810 C809 1.398 . S
C810 C811 1.391 . S
C811 H799 0.950 . S
C811 C807 1.393 . S
C811 C810 1.391 . S
H812 C820 0.950 1_655 S
H813 C825 0.950 . S
H814 C822 0.950 1_655 S
H815 C824 0.950 . S
H816 C826 0.950 . S
H817 C828 0.950 . S
H818 C830 0.950 1_655 S
H819 C831 0.950 . S
C820 H812 0.950 1_455 S
C820 C821 1.386 . S
C820 C822 1.391 . S
C821 C820 1.386 . S
C821 C825 1.393 . S
C822 H814 0.950 1_455 S
C822 C820 1.391 . S
C822 C823 1.400 . S
C823 C822 1.400 . S
C823 C824 1.398 . S
C823 C829 1.491 . S
C824 H815 0.950 . S
C824 C823 1.398 . S
C824 C825 1.391 . S
C825 H813 0.950 . S
C825 C821 1.393 . S
C825 C824 1.391 . S
C826 H816 0.950 . S
C826 C827 1.386 . S
C826 C828 1.391 1_554 S
C827 C826 1.386 . S
C827 C831 1.393 . S
C828 H817 0.950 . S
C828 C826 1.391 1_556 S
C828 C829 1.400 . S
C829 C823 1.491 . S
C829 C828 1.400 . S
C829 C830 1.398 . S
C830 H818 0.950 1_455 S
C830 C829 1.398 . S
C830 C831 1.391 1_556 S
C831 H819 0.950 . S
C831 C827 1.393 . S
C831 C830 1.391 1_554 S
C281 C124 0.734 . S
C287 C15 0.781 . S
C301 C90 0.756 . S
C307 C49 0.740 . S
C321 C56 2.622 . S
C327 C83 2.608 . S
C341 C22 2.608 . S
C347 C117 2.613 . S
C361 C151 0.735 . S
C367 C260 0.766 . S
C381 C185 0.766 . S
C387 C226 0.736 . S
C401 C192 2.622 . S
C407 C219 2.610 . S
C421 C158 2.606 . S
C427 C253 2.622 . S
C441 C74 1.494 . S
C447 C28 1.493 . S
C461 C108 1.494 . S
C467 C62 1.495 . S
C481 C210 1.492 . S
C487 C164 1.496 . S
C501 C244 1.496 . S
C507 C198 1.492 . S
C521 C1 1.180 . S
C527 C176 1.240 . S
C541 C35 1.186 . S
C547 C142 1.240 . S
C561 C266 1.240 . S
C567 C71 1.188 . S
C581 C232 1.235 . S
C587 C105 1.183 . S
C601 C40 1.237 . S
C607 C137 1.191 . S
C621 C6 1.236 . S
C627 C171 1.187 . S
C641 C130 1.237 . S
C647 C207 1.192 . S
C661 C96 1.240 . S
C667 C241 1.162 . S
C681 C3 1.482 . S
C687 C17 1.657 . S
C701 C37 1.475 . S
C707 C51 1.656 . S
C721 C69 1.473 . S
C727 C85 1.653 . S
C741 C103 1.508 . S
C747 C119 1.638 . S
C761 C139 1.505 . S
C767 C153 1.650 . S
C781 C173 1.479 . S
C787 C187 1.646 . S
C801 C205 1.477 . S
C807 C221 1.647 . S
C821 C239 1.473 . S
C827 C255 1.653 . S
