# Generated by pormake.
# Topology pcb, (4)-cn, num edge types: 1
# Building blocks:
#     Node 0, Type 0, BuildingBlock: ICAMEG_clean_sbu_1, # of connection points: 4
#     Node 1, Type 0, BuildingBlock: ICAMEG_clean_sbu_1, # of connection points: 4
#     Node 2, Type 0, BuildingBlock: ICAMEG_clean_sbu_1, # of connection points: 4
#     Node 3, Type 0, BuildingBlock: ICAMEG_clean_sbu_1, # of connection points: 4
#     Node 4, Type 0, BuildingBlock: ICAMEG_clean_sbu_1, # of connection points: 4
#     Node 5, Type 0, BuildingBlock: ICAMEG_clean_sbu_1, # of connection points: 4
#     Node 6, Type 0, BuildingBlock: ICAMEG_clean_sbu_1, # of connection points: 4
#     Node 7, Type 0, BuildingBlock: ICAMEG_clean_sbu_1, # of connection points: 4
#     Node 8, Type 0, BuildingBlock: ICAMEG_clean_sbu_1, # of connection points: 4
#     Node 9, Type 0, BuildingBlock: ICAMEG_clean_sbu_1, # of connection points: 4
#     Node 10, Type 0, BuildingBlock: ICAMEG_clean_sbu_1, # of connection points: 4
#     Node 11, Type 0, BuildingBlock: ICAMEG_clean_sbu_1, # of connection points: 4
#     Node 12, Type 0, BuildingBlock: ICAMEG_clean_sbu_1, # of connection points: 4
#     Node 13, Type 0, BuildingBlock: ICAMEG_clean_sbu_1, # of connection points: 4
#     Node 14, Type 0, BuildingBlock: ICAMEG_clean_sbu_1, # of connection points: 4
#     Node 15, Type 0, BuildingBlock: ICAMEG_clean_sbu_1, # of connection points: 4
#     Edge 16, Type (0, 0), BuildingBlock: UVAHIK_clean_linker_0, # of connection points: 2
#     Edge 17, Type (0, 0), BuildingBlock: UVAHIK_clean_linker_0, # of connection points: 2
#     Edge 18, Type (0, 0), BuildingBlock: UVAHIK_clean_linker_0, # of connection points: 2
#     Edge 19, Type (0, 0), BuildingBlock: UVAHIK_clean_linker_0, # of connection points: 2
#     Edge 20, Type (0, 0), BuildingBlock: UVAHIK_clean_linker_0, # of connection points: 2
#     Edge 21, Type (0, 0), BuildingBlock: UVAHIK_clean_linker_0, # of connection points: 2
#     Edge 22, Type (0, 0), BuildingBlock: UVAHIK_clean_linker_0, # of connection points: 2
#     Edge 23, Type (0, 0), BuildingBlock: UVAHIK_clean_linker_0, # of connection points: 2
#     Edge 24, Type (0, 0), BuildingBlock: UVAHIK_clean_linker_0, # of connection points: 2
#     Edge 25, Type (0, 0), BuildingBlock: UVAHIK_clean_linker_0, # of connection points: 2
#     Edge 26, Type (0, 0), BuildingBlock: UVAHIK_clean_linker_0, # of connection points: 2
#     Edge 27, Type (0, 0), BuildingBlock: UVAHIK_clean_linker_0, # of connection points: 2
#     Edge 28, Type (0, 0), BuildingBlock: UVAHIK_clean_linker_0, # of connection points: 2
#     Edge 29, Type (0, 0), BuildingBlock: UVAHIK_clean_linker_0, # of connection points: 2
#     Edge 30, Type (0, 0), BuildingBlock: UVAHIK_clean_linker_0, # of connection points: 2
#     Edge 31, Type (0, 0), BuildingBlock: UVAHIK_clean_linker_0, # of connection points: 2
#     Edge 32, Type (0, 0), BuildingBlock: UVAHIK_clean_linker_0, # of connection points: 2
#     Edge 33, Type (0, 0), BuildingBlock: UVAHIK_clean_linker_0, # of connection points: 2
#     Edge 34, Type (0, 0), BuildingBlock: UVAHIK_clean_linker_0, # of connection points: 2
#     Edge 35, Type (0, 0), BuildingBlock: UVAHIK_clean_linker_0, # of connection points: 2
#     Edge 36, Type (0, 0), BuildingBlock: UVAHIK_clean_linker_0, # of connection points: 2
#     Edge 37, Type (0, 0), BuildingBlock: UVAHIK_clean_linker_0, # of connection points: 2
#     Edge 38, Type (0, 0), BuildingBlock: UVAHIK_clean_linker_0, # of connection points: 2
#     Edge 39, Type (0, 0), BuildingBlock: UVAHIK_clean_linker_0, # of connection points: 2
#     Edge 40, Type (0, 0), BuildingBlock: UVAHIK_clean_linker_0, # of connection points: 2
#     Edge 41, Type (0, 0), BuildingBlock: UVAHIK_clean_linker_0, # of connection points: 2
#     Edge 42, Type (0, 0), BuildingBlock: UVAHIK_clean_linker_0, # of connection points: 2
#     Edge 43, Type (0, 0), BuildingBlock: UVAHIK_clean_linker_0, # of connection points: 2
#     Edge 44, Type (0, 0), BuildingBlock: UVAHIK_clean_linker_0, # of connection points: 2
#     Edge 45, Type (0, 0), BuildingBlock: UVAHIK_clean_linker_0, # of connection points: 2
#     Edge 46, Type (0, 0), BuildingBlock: UVAHIK_clean_linker_0, # of connection points: 2
#     Edge 47, Type (0, 0), BuildingBlock: UVAHIK_clean_linker_0, # of connection points: 2
# Relax obj value: 0.342
# Max RMSD: 0.268
# Mean RMSD: 0.202
data_MOF--net-pcb--node1-ICAMEG_clean_sbu_1--edge1-UVAHIK_clean_linker_0
_symmetry_space_group_name_H-M    P1
_symmetry_Int_Tables_number       1
_symmetry_cell_setting            triclinic
loop_
_symmetry_equiv_pos_as_xyz
'x, y, z'
_cell_length_a     69.803175
_cell_length_b     55.286245
_cell_length_c     57.157897
_cell_angle_alpha  95.143093
_cell_angle_beta   94.079865
_cell_angle_gamma 99.389805
loop_
_atom_site_label
_atom_site_type_symbol
_atom_site_fract_x
_atom_site_fract_y
_atom_site_fract_z
_atom_type_partial_charge
Co0 Co 0.13368 0.1404 0.13107 0.0
Co1 Co 0.13991 0.20365 0.13794 0.0
O2 O 0.14711 0.17241 0.14586 0.0
C3 C 0.12495 0.11313 0.17222 0.0
O4 O 0.10647 0.11088 0.16465 0.0
C5 C 0.18227 0.20928 0.13338 0.0
O6 O 0.17885 0.18775 0.12077 0.0
O7 O 0.14113 0.19422 0.10369 0.0
O8 O 0.12956 0.15365 0.10005 0.0
H9 H 0.10277 0.25744 0.09255 0.0
H10 H 0.17263 0.14387 0.15672 0.0
O11 O 0.13784 0.12624 0.16183 0.0
H12 H 0.17998 0.11165 0.07517 0.0
H13 H 0.12378 0.0479 0.11404 0.0
H14 H 0.09746 0.1233 0.09966 0.0
H15 H 0.14825 0.12062 0.0865 0.0
H16 H 0.141 0.0886 0.13186 0.0
O17 O 0.16819 0.21881 0.14098 0.0
H18 H 0.11148 0.21805 0.10304 0.0
H19 H 0.15428 0.25628 0.15593 0.0
H20 H 0.0798 0.08296 0.0814 0.0
H21 H 0.20455 0.13479 0.14622 0.0
H22 H 0.09295 0.0449 0.08857 0.0
H23 H 0.20839 0.11865 0.10516 0.0
O24 O 0.10839 0.14891 0.13997 0.0
H25 H 0.16434 0.21341 0.2237 0.0
H26 H 0.11107 0.22452 0.16636 0.0
H27 H 0.10901 0.23568 0.20874 0.0
H28 H 0.13582 0.23023 0.23773 0.0
H29 H 0.16571 0.20224 0.18117 0.0
H30 H 0.14614 0.29609 0.14588 0.0
H31 H 0.12016 0.29683 0.11404 0.0
O32 O 0.11145 0.18921 0.1352 0.0
C33 C 0.13451 0.17388 0.09121 0.0
C34 C 0.11407 0.25736 0.1065 0.0
C35 C 0.13844 0.27905 0.13642 0.0
N36 N 0.13326 0.23487 0.13019 0.0
C37 C 0.11903 0.23511 0.11257 0.0
C38 C 0.14301 0.25646 0.14199 0.0
C39 C 0.12385 0.27945 0.11856 0.0
C40 C 0.17411 0.13655 0.13889 0.0
N41 N 0.15854 0.13267 0.12229 0.0
C42 C 0.19225 0.13157 0.13302 0.0
C43 C 0.19441 0.12257 0.10997 0.0
C44 C 0.17848 0.11867 0.09313 0.0
C45 C 0.16056 0.12388 0.09963 0.0
C46 C 0.11791 0.06435 0.11075 0.0
C47 C 0.10331 0.10682 0.1028 0.0
C48 C 0.1276 0.08745 0.12079 0.0
N49 N 0.12027 0.10833 0.11675 0.0
C50 C 0.09323 0.08403 0.09244 0.0
C51 C 0.10062 0.06268 0.09647 0.0
C52 C 0.10127 0.16862 0.13858 0.0
C53 C 0.15259 0.21592 0.21123 0.0
C54 C 0.12275 0.22197 0.17887 0.0
C55 C 0.12152 0.22839 0.20284 0.0
C56 C 0.13657 0.22534 0.2191 0.0
N57 N 0.13854 0.21284 0.17128 0.0
C58 C 0.15331 0.2097 0.18712 0.0
Co59 Co 0.85844 0.13746 0.17459 0.0
Co60 Co 0.87398 0.18293 0.22089 0.0
O61 O 0.85654 0.16833 0.19302 0.0
C62 C 0.85982 0.17381 0.13934 0.0
O63 O 0.87059 0.19011 0.15506 0.0
C64 C 0.83483 0.17511 0.23744 0.0
O65 O 0.83278 0.15291 0.22632 0.0
O66 O 0.8721 0.15078 0.23466 0.0
O67 O 0.86336 0.12176 0.20388 0.0
H68 H 0.93072 0.18873 0.28158 0.0
H69 H 0.8238 0.16104 0.16587 0.0
O70 O 0.8535 0.1522 0.14451 0.0
H71 H 0.79829 0.0794 0.19013 0.0
H72 H 0.83854 0.06983 0.10811 0.0
H73 H 0.88503 0.10096 0.17744 0.0
H74 H 0.83347 0.09189 0.18673 0.0
H75 H 0.83602 0.10849 0.13192 0.0
O76 O 0.85081 0.19005 0.23749 0.0
H77 H 0.9088 0.17013 0.24655 0.0
H78 H 0.87545 0.2276 0.25468 0.0
H79 H 0.88799 0.06211 0.15423 0.0
H80 H 0.78849 0.14923 0.16886 0.0
H81 H 0.86463 0.04632 0.11929 0.0
H82 H 0.77554 0.10818 0.18117 0.0
O83 O 0.88696 0.14808 0.17316 0.0
H84 H 0.84769 0.25088 0.18319 0.0
H85 H 0.90712 0.22185 0.21289 0.0
H86 H 0.91003 0.26138 0.19547 0.0
H87 H 0.88017 0.27615 0.1805 0.0
H88 H 0.84545 0.21135 0.20055 0.0
H89 H 0.89689 0.24671 0.28993 0.0
H90 H 0.92481 0.2273 0.30352 0.0
O91 O 0.89721 0.17581 0.20467 0.0
C92 C 0.86819 0.12843 0.22567 0.0
C93 C 0.91864 0.19741 0.27579 0.0
C94 C 0.89963 0.22993 0.28049 0.0
N95 N 0.89097 0.19789 0.24849 0.0
C96 C 0.90622 0.187 0.25593 0.0
C97 C 0.88752 0.219 0.26056 0.0
C98 C 0.9153 0.21903 0.2881 0.0
C99 C 0.81824 0.14304 0.17095 0.0
N100 N 0.83066 0.12713 0.17597 0.0
C101 C 0.79825 0.13649 0.17273 0.0
C102 C 0.791 0.11347 0.17967 0.0
C103 C 0.80375 0.09732 0.18471 0.0
C104 C 0.82366 0.10451 0.18278 0.0
C105 C 0.84878 0.0765 0.12332 0.0
C106 C 0.87474 0.09411 0.16234 0.0
C107 C 0.84744 0.09839 0.13685 0.0
N108 N 0.86028 0.10686 0.15615 0.0
C109 C 0.87652 0.07215 0.14923 0.0
C110 C 0.86342 0.06331 0.12961 0.0
C111 C 0.90036 0.16257 0.18632 0.0
C112 C 0.86081 0.24468 0.18972 0.0
C113 C 0.89406 0.22811 0.20635 0.0
C114 C 0.8958 0.25054 0.19655 0.0
C115 C 0.87904 0.25882 0.18818 0.0
N116 N 0.87612 0.21436 0.20783 0.0
C117 C 0.85962 0.22236 0.19966 0.0
Co118 Co 0.87415 0.86633 0.17937 0.0
Co119 Co 0.85996 0.8038 0.17551 0.0
O120 O 0.85779 0.83715 0.18844 0.0
C121 C 0.88848 0.89458 0.22526 0.0
O122 O 0.90615 0.89287 0.21954 0.0
C123 C 0.81796 0.80581 0.16866 0.0
O124 O 0.82284 0.82707 0.16026 0.0
O125 O 0.85641 0.81296 0.14284 0.0
O126 O 0.87477 0.85058 0.14652 0.0
H127 H 0.88424 0.74095 0.12142 0.0
H128 H 0.83774 0.8724 0.20123 0.0
O129 O 0.87376 0.88298 0.212 0.0
H130 H 0.83047 0.90234 0.12292 0.0
H131 H 0.89506 0.95766 0.17635 0.0
H132 H 0.90972 0.87486 0.15378 0.0
H133 H 0.86033 0.88708 0.13591 0.0
H134 H 0.87398 0.9206 0.18676 0.0
O135 O 0.83105 0.79378 0.17545 0.0
H136 H 0.88188 0.7829 0.13832 0.0
H137 H 0.8413 0.75348 0.18471 0.0
H138 H 0.93115 0.91143 0.14292 0.0
H139 H 0.80776 0.88788 0.18907 0.0
H140 H 0.92388 0.95321 0.15425 0.0
H141 H 0.80394 0.9029 0.14961 0.0
O142 O 0.89768 0.85281 0.18944 0.0
H143 H 0.8438 0.80047 0.25955 0.0
H144 H 0.88811 0.7779 0.20097 0.0
H145 H 0.89297 0.76718 0.24168 0.0
H146 H 0.87067 0.77841 0.27128 0.0
H147 H 0.83958 0.81104 0.21868 0.0
H148 H 0.84308 0.71121 0.16817 0.0
H149 H 0.86475 0.70474 0.13637 0.0
O150 O 0.88907 0.81296 0.17536 0.0
C151 C 0.86552 0.83139 0.13405 0.0
C152 C 0.8748 0.74352 0.13534 0.0
C153 C 0.85168 0.72683 0.16155 0.0
N154 N 0.86161 0.77062 0.16262 0.0
C155 C 0.87345 0.76723 0.14502 0.0
C156 C 0.8507 0.75081 0.17081 0.0
C157 C 0.86385 0.72322 0.14371 0.0
C158 C 0.8363 0.8792 0.18416 0.0
N159 N 0.85083 0.87893 0.16937 0.0
C160 C 0.81924 0.88782 0.17732 0.0
C161 C 0.81709 0.89619 0.15516 0.0
C162 C 0.83196 0.89585 0.14016 0.0
C163 C 0.84881 0.88708 0.14758 0.0
C164 C 0.89837 0.93956 0.17127 0.0
C165 C 0.90642 0.89297 0.1587 0.0
C166 C 0.88647 0.9185 0.17711 0.0
N167 N 0.89058 0.89555 0.17083 0.0
C168 C 0.91862 0.91361 0.15253 0.0
C169 C 0.91454 0.93704 0.15889 0.0
C170 C 0.90183 0.8316 0.18368 0.0
C171 C 0.85358 0.79543 0.2468 0.0
C172 C 0.8784 0.78295 0.21377 0.0
C173 C 0.8812 0.77677 0.23678 0.0
C174 C 0.86868 0.78307 0.25338 0.0
N175 N 0.86351 0.79498 0.20744 0.0
C176 C 0.85123 0.8013 0.22362 0.0
Co177 Co 0.13996 0.83281 0.14807 0.0
Co178 Co 0.14534 0.82512 0.2074 0.0
O179 O 0.15015 0.81717 0.17445 0.0
C180 C 0.11979 0.79041 0.11568 0.0
O181 O 0.10413 0.80053 0.11745 0.0
C182 C 0.1882 0.83341 0.20769 0.0
O183 O 0.18625 0.84526 0.18901 0.0
O184 O 0.15227 0.86116 0.20516 0.0
O185 O 0.14436 0.86554 0.16721 0.0
H186 H 0.11808 0.87018 0.27414 0.0
H187 H 0.17125 0.80323 0.14105 0.0
O188 O 0.13554 0.80016 0.12809 0.0
H189 H 0.19879 0.88677 0.12308 0.0
H190 H 0.13237 0.84975 0.06295 0.0
H191 H 0.11258 0.86806 0.14287 0.0
H192 H 0.16514 0.87754 0.13435 0.0
H193 H 0.14546 0.83047 0.09649 0.0
O194 O 0.17324 0.82406 0.2174 0.0
H195 H 0.12387 0.86002 0.23261 0.0
H196 H 0.15766 0.80674 0.25259 0.0
H197 H 0.09919 0.88781 0.10983 0.0
H198 H 0.2049 0.81157 0.12954 0.0
H199 H 0.10907 0.87867 0.06952 0.0
H200 H 0.21891 0.85363 0.12056 0.0
O201 O 0.11315 0.82569 0.15862 0.0
H202 H 0.15511 0.73687 0.19673 0.0
H203 H 0.11213 0.79334 0.22567 0.0
H204 H 0.10301 0.74873 0.2284 0.0
H205 H 0.12461 0.72017 0.21394 0.0
H206 H 0.16358 0.78159 0.19415 0.0
H207 H 0.15239 0.81646 0.29437 0.0
H208 H 0.1324 0.84832 0.30536 0.0
O209 O 0.11744 0.82649 0.1981 0.0
C210 C 0.14979 0.87443 0.18845 0.0
C211 C 0.12675 0.85619 0.26957 0.0
C212 C 0.14603 0.82606 0.28093 0.0
N213 N 0.14091 0.83263 0.24017 0.0
C214 C 0.13001 0.8503 0.24607 0.0
C215 C 0.14899 0.82067 0.25725 0.0
C216 C 0.13481 0.84394 0.28708 0.0
C217 C 0.17716 0.82151 0.1369 0.0
N218 N 0.1662 0.83985 0.1383 0.0
C219 C 0.19626 0.82615 0.1305 0.0
C220 C 0.20412 0.84976 0.12551 0.0
C221 C 0.19285 0.86837 0.12695 0.0
C222 C 0.17382 0.86306 0.13344 0.0
C223 C 0.12797 0.85391 0.08043 0.0
C224 C 0.117 0.86404 0.12539 0.0
C225 C 0.13534 0.84305 0.0995 0.0
N226 N 0.12983 0.84819 0.12164 0.0
C227 C 0.10935 0.87526 0.10675 0.0
C228 C 0.1149 0.87012 0.08413 0.0
C229 C 0.10663 0.82534 0.17892 0.0
C230 C 0.1456 0.74913 0.20314 0.0
C231 C 0.12156 0.78102 0.21923 0.0
C232 C 0.11634 0.75578 0.22089 0.0
C233 C 0.12848 0.73977 0.21278 0.0
N234 N 0.13842 0.79006 0.20986 0.0
C235 C 0.15035 0.77448 0.20179 0.0
Co236 Co 0.12914 0.81305 0.86642 0.0
Co237 Co 0.12525 0.75855 0.83117 0.0
O238 O 0.13757 0.79272 0.84074 0.0
C239 C 0.12879 0.8458 0.82794 0.0
O240 O 0.11737 0.82782 0.81458 0.0
C241 C 0.16707 0.75616 0.83895 0.0
O242 O 0.1672 0.76987 0.85895 0.0
O243 O 0.1286 0.74997 0.86418 0.0
O244 O 0.12316 0.78424 0.88499 0.0
H245 H 0.07904 0.67999 0.83722 0.0
H246 H 0.16783 0.82875 0.84916 0.0
O247 O 0.13498 0.84262 0.84874 0.0
H248 H 0.18128 0.81805 0.93313 0.0
H249 H 0.13336 0.89009 0.922 0.0
H250 H 0.09602 0.80715 0.89638 0.0
H251 H 0.14749 0.81099 0.91486 0.0
H252 H 0.1441 0.86351 0.89028 0.0
O253 O 0.15138 0.74986 0.82547 0.0
H254 H 0.09441 0.72321 0.84902 0.0
H255 H 0.1309 0.72084 0.79278 0.0
H256 H 0.08484 0.83305 0.92827 0.0
H257 H 0.20183 0.83628 0.86681 0.0
H258 H 0.10357 0.87486 0.94128 0.0
H259 H 0.20872 0.83083 0.90907 0.0
O260 O 0.10195 0.80604 0.85166 0.0
H261 H 0.14743 0.79713 0.75925 0.0
H262 H 0.09215 0.74979 0.79366 0.0
H263 H 0.08767 0.7612 0.75315 0.0
H264 H 0.11546 0.785 0.73567 0.0
H265 H 0.15122 0.78549 0.79979 0.0
H266 H 0.11607 0.67751 0.7805 0.0
H267 H 0.08988 0.65685 0.80273 0.0
O268 O 0.09877 0.7665 0.83657 0.0
C269 C 0.1252 0.7617 0.88321 0.0
C270 C 0.0904 0.68881 0.82735 0.0
C271 C 0.1112 0.68741 0.79553 0.0
N272 N 0.11342 0.72457 0.82149 0.0
C273 C 0.09912 0.7133 0.83391 0.0
C274 C 0.11958 0.71192 0.8026 0.0
C275 C 0.0965 0.67583 0.80801 0.0
C276 C 0.1707 0.82663 0.86763 0.0
N277 N 0.15569 0.81954 0.88097 0.0
C278 C 0.18999 0.8308 0.8775 0.0
C279 C 0.19385 0.82769 0.9012 0.0
C280 C 0.17846 0.8205 0.91471 0.0
C281 C 0.15936 0.81646 0.90424 0.0
C282 C 0.1251 0.87189 0.91652 0.0
C283 C 0.10432 0.82525 0.90204 0.0
C284 C 0.1311 0.85677 0.89855 0.0
N285 N 0.12079 0.83371 0.89162 0.0
C286 C 0.09788 0.83987 0.92006 0.0
C287 C 0.10839 0.86333 0.92734 0.0
C288 C 0.09161 0.78575 0.84257 0.0
C289 C 0.13523 0.7867 0.76665 0.0
C290 C 0.10429 0.76022 0.78622 0.0
C291 C 0.10168 0.76658 0.76324 0.0
C292 C 0.11728 0.77992 0.75344 0.0
N293 N 0.12196 0.76688 0.79904 0.0
C294 C 0.13731 0.77999 0.78956 0.0
Co295 Co 0.09656 0.13072 0.79163 0.0
Co296 Co 0.12908 0.1845 0.79653 0.0
O297 O 0.12052 0.15029 0.78327 0.0
C298 C 0.12519 0.0975 0.7995 0.0
O299 O 0.13639 0.11593 0.81251 0.0
C300 C 0.13918 0.20974 0.75436 0.0
O301 O 0.1269 0.22454 0.75992 0.0
O302 O 0.10371 0.19286 0.78422 0.0
O303 O 0.08333 0.1602 0.79389 0.0
H304 H 0.12103 0.26486 0.83998 0.0
H305 H 0.11441 0.11464 0.74868 0.0
O306 O 0.109 0.10054 0.78948 0.0
H307 H 0.04815 0.12566 0.72094 0.0
H308 H 0.04465 0.05509 0.78587 0.0
H309 H 0.06828 0.13809 0.82687 0.0
H310 H 0.05946 0.13319 0.76323 0.0
H311 H 0.0744 0.0806 0.77489 0.0
O312 O 0.14066 0.19155 0.7662 0.0
H313 H 0.11074 0.22151 0.82351 0.0
H314 H 0.16598 0.22088 0.79695 0.0
H315 H 0.03839 0.11329 0.83829 0.0
H316 H 0.10362 0.10666 0.70622 0.0
H317 H 0.02638 0.07146 0.81772 0.0
H318 H 0.07028 0.11221 0.69212 0.0
O319 O 0.1058 0.13772 0.82564 0.0
H320 H 0.18824 0.14399 0.79074 0.0
H321 H 0.15302 0.19371 0.84302 0.0
H322 H 0.18353 0.18164 0.85856 0.0
H323 H 0.20141 0.15667 0.83233 0.0
H324 H 0.15751 0.15615 0.77599 0.0
H325 H 0.17685 0.26423 0.81306 0.0
H326 H 0.1543 0.28651 0.83478 0.0
O327 O 0.11816 0.17794 0.82736 0.0
C328 C 0.08675 0.18196 0.7877 0.0
C329 C 0.13099 0.25535 0.83055 0.0
C330 C 0.16232 0.255 0.81545 0.0
N331 N 0.13772 0.21866 0.80928 0.0
C332 C 0.12524 0.2308 0.82118 0.0
C333 C 0.15608 0.23045 0.80636 0.0
C334 C 0.14966 0.26749 0.82763 0.0
C335 C 0.09984 0.11693 0.74268 0.0
N336 N 0.08755 0.12424 0.75842 0.0
C337 C 0.09383 0.11246 0.71862 0.0
C338 C 0.07513 0.1156 0.71071 0.0
C339 C 0.06271 0.12315 0.72687 0.0
C340 C 0.06921 0.12744 0.75079 0.0
C341 C 0.04971 0.07331 0.79493 0.0
C342 C 0.06309 0.11997 0.81774 0.0
C343 C 0.06657 0.08781 0.78882 0.0
N344 N 0.07299 0.11089 0.80011 0.0
C345 C 0.04618 0.10598 0.82433 0.0
C346 C 0.03947 0.0825 0.8128 0.0
C347 C 0.11219 0.15862 0.83724 0.0
C348 C 0.18061 0.15494 0.80232 0.0
C349 C 0.16062 0.18272 0.83151 0.0
C350 C 0.17794 0.17601 0.8404 0.0
C351 C 0.18798 0.16202 0.82567 0.0
N352 N 0.1535 0.17574 0.80856 0.0
C353 C 0.16325 0.16198 0.79404 0.0
Co354 Co 0.88975 0.21395 0.85932 0.0
Co355 Co 0.85722 0.19115 0.81121 0.0
O356 O 0.86465 0.21218 0.84106 0.0
C357 C 0.86165 0.20264 0.89507 0.0
O358 O 0.85089 0.18635 0.87932 0.0
C359 C 0.84865 0.2399 0.79867 0.0
O360 O 0.86603 0.25083 0.80784 0.0
O361 O 0.88171 0.20557 0.79789 0.0
O362 O 0.90337 0.21263 0.82986 0.0
H363 H 0.86812 0.13319 0.74245 0.0
H364 H 0.86495 0.25146 0.86989 0.0
O365 O 0.87708 0.21572 0.88953 0.0
H366 H 0.92717 0.29805 0.85024 0.0
H367 H 0.94069 0.24524 0.92686 0.0
H368 H 0.92333 0.1879 0.85447 0.0
H369 H 0.92266 0.25288 0.85036 0.0
H370 H 0.90932 0.2434 0.90344 0.0
O371 O 0.84348 0.21675 0.79864 0.0
H372 H 0.87724 0.15936 0.78012 0.0
H373 H 0.82086 0.17899 0.77858 0.0
H374 H 0.95495 0.1893 0.87723 0.0
H375 H 0.86889 0.29668 0.8702 0.0
H376 H 0.96379 0.21812 0.91372 0.0
H377 H 0.90016 0.32026 0.86025 0.0
O378 O 0.8857 0.1773 0.85872 0.0
H379 H 0.79712 0.19454 0.85402 0.0
H380 H 0.83636 0.13985 0.81369 0.0
H381 H 0.80668 0.12172 0.83104 0.0
H382 H 0.7868 0.14914 0.85134 0.0
H383 H 0.82707 0.2119 0.83669 0.0
H384 H 0.81117 0.1532 0.7408 0.0
H385 H 0.83486 0.12998 0.72253 0.0
O386 O 0.8702 0.16455 0.82297 0.0
C387 C 0.89904 0.21137 0.80771 0.0
C388 C 0.85765 0.14318 0.75025 0.0
C389 C 0.8257 0.15444 0.74931 0.0
N390 N 0.8496 0.17064 0.78158 0.0
C391 C 0.86273 0.15801 0.77159 0.0
C392 C 0.8313 0.16909 0.77067 0.0
C393 C 0.839 0.14141 0.73907 0.0
C394 C 0.87864 0.26164 0.86569 0.0
N395 N 0.89355 0.24957 0.86011 0.0
C396 C 0.88077 0.28722 0.86583 0.0
C397 C 0.89832 0.30043 0.86023 0.0
C398 C 0.91347 0.28799 0.8546 0.0
C399 C 0.91081 0.2624 0.85462 0.0
C400 C 0.93701 0.23262 0.91098 0.0
C401 C 0.92713 0.20058 0.87026 0.0
C402 C 0.91925 0.23145 0.89768 0.0
N403 N 0.91455 0.21565 0.87754 0.0
C404 C 0.94503 0.20125 0.8831 0.0
C405 C 0.94997 0.21741 0.90359 0.0
C406 C 0.87882 0.16038 0.84222 0.0
C407 C 0.80564 0.18241 0.84518 0.0
C408 C 0.82788 0.15191 0.82263 0.0
C409 C 0.81103 0.14154 0.83234 0.0
C410 C 0.79987 0.15693 0.84371 0.0
N411 N 0.83346 0.17692 0.82417 0.0
C412 C 0.82258 0.19213 0.83525 0.0
Co413 Co 0.88872 0.85912 0.84338 0.0
Co414 Co 0.85178 0.80959 0.83544 0.0
O415 O 0.86327 0.84267 0.82812 0.0
C416 C 0.86615 0.90015 0.85064 0.0
O417 O 0.85266 0.88534 0.85979 0.0
C418 C 0.84035 0.81096 0.78333 0.0
O419 O 0.85059 0.83305 0.78326 0.0
O420 O 0.87548 0.79678 0.82618 0.0
O421 O 0.89815 0.827 0.84494 0.0
H422 H 0.85293 0.73028 0.87171 0.0
H423 H 0.87452 0.87688 0.79905 0.0
O424 O 0.88059 0.89203 0.84237 0.0
H425 H 0.93643 0.84952 0.78245 0.0
H426 H 0.94806 0.9258 0.85617 0.0
H427 H 0.91446 0.84942 0.8838 0.0
H428 H 0.92425 0.84714 0.82174 0.0
H429 H 0.91655 0.90444 0.8363 0.0
O430 O 0.83968 0.80018 0.80214 0.0
H431 H 0.86646 0.77205 0.86248 0.0
H432 H 0.81336 0.7765 0.82322 0.0
H433 H 0.94605 0.87005 0.90404 0.0
H434 H 0.88632 0.87994 0.75957 0.0
H435 H 0.96306 0.90854 0.89025 0.0
H436 H 0.91744 0.86609 0.75104 0.0
O437 O 0.87855 0.85628 0.87468 0.0
H438 H 0.79799 0.85961 0.8265 0.0
H439 H 0.82754 0.80468 0.8762 0.0
H440 H 0.79881 0.8214 0.88861 0.0
H441 H 0.78376 0.849 0.86363 0.0
H442 H 0.82682 0.84274 0.81491 0.0
H443 H 0.79933 0.73467 0.83182 0.0
H444 H 0.81913 0.71131 0.85633 0.0
O445 O 0.86316 0.81707 0.86919 0.0
C446 C 0.89289 0.80538 0.8345 0.0
C447 C 0.84414 0.7403 0.86107 0.0
C448 C 0.81407 0.74275 0.83865 0.0
N449 N 0.84068 0.77678 0.84248 0.0
C450 C 0.8517 0.76399 0.85584 0.0
C451 C 0.82212 0.7664 0.83378 0.0
C452 C 0.82518 0.72966 0.85241 0.0
C453 C 0.88812 0.87093 0.79549 0.0
N454 N 0.89857 0.86165 0.81262 0.0
C455 C 0.89471 0.87266 0.7731 0.0
C456 C 0.91217 0.86487 0.76832 0.0
C457 C 0.92281 0.85555 0.78592 0.0
C458 C 0.91577 0.85411 0.80811 0.0
C459 C 0.94079 0.90904 0.86234 0.0
C460 C 0.9218 0.86611 0.87763 0.0
C461 C 0.92291 0.8969 0.85121 0.0
N462 N 0.91368 0.87566 0.85883 0.0
C463 C 0.93967 0.87773 0.88919 0.0
C464 C 0.94921 0.89934 0.88145 0.0
C465 C 0.87046 0.83666 0.88253 0.0
C466 C 0.80431 0.84743 0.83744 0.0
C467 C 0.82107 0.81662 0.86516 0.0
C468 C 0.80479 0.82604 0.87231 0.0
C469 C 0.79636 0.84152 0.85829 0.0
N470 N 0.8287 0.8223 0.84455 0.0
C471 C 0.82059 0.83765 0.83085 0.0
Co472 Co 0.62627 0.63232 0.62682 0.0
Co473 Co 0.63336 0.69529 0.62987 0.0
O474 O 0.64033 0.66467 0.63973 0.0
C475 C 0.61865 0.60851 0.67032 0.0
O476 O 0.60004 0.60551 0.6632 0.0
C477 C 0.67592 0.70003 0.62675 0.0
O478 O 0.6726 0.67798 0.61512 0.0
O479 O 0.63498 0.68356 0.59617 0.0
O480 O 0.6213 0.64377 0.59501 0.0
H481 H 0.597 0.7463 0.58011 0.0
H482 H 0.66578 0.63591 0.65111 0.0
O483 O 0.6312 0.62019 0.65841 0.0
H484 H 0.67014 0.59896 0.5703 0.0
H485 H 0.61491 0.53945 0.61498 0.0
H486 H 0.58913 0.61435 0.59737 0.0
H487 H 0.63913 0.6097 0.58239 0.0
H488 H 0.63298 0.58063 0.63021 0.0
O489 O 0.66173 0.71023 0.63296 0.0
H490 H 0.60539 0.70773 0.59325 0.0
H491 H 0.64791 0.74856 0.64506 0.0
H492 H 0.57062 0.57354 0.58172 0.0
H493 H 0.69699 0.62506 0.63986 0.0
H494 H 0.5835 0.53572 0.59051 0.0
H495 H 0.69934 0.60654 0.59916 0.0
O496 O 0.60162 0.6421 0.63625 0.0
H497 H 0.65674 0.70967 0.716 0.0
H498 H 0.6045 0.71857 0.65625 0.0
H499 H 0.60204 0.7323 0.698 0.0
H500 H 0.62832 0.72797 0.7282 0.0
H501 H 0.65853 0.69594 0.67407 0.0
H502 H 0.6401 0.78758 0.63235 0.0
H503 H 0.61441 0.78659 0.59972 0.0
O504 O 0.60471 0.68117 0.62727 0.0
C505 C 0.62724 0.66292 0.58489 0.0
C506 C 0.60817 0.74697 0.5944 0.0
C507 C 0.63238 0.77014 0.6237 0.0
N508 N 0.62701 0.7259 0.62001 0.0
C509 C 0.61295 0.7252 0.60195 0.0
C510 C 0.63678 0.74799 0.63077 0.0
C511 C 0.61797 0.76957 0.60539 0.0
C512 C 0.6666 0.62755 0.63346 0.0
N513 N 0.6506 0.62334 0.61749 0.0
C514 C 0.68435 0.62157 0.62716 0.0
C515 C 0.68567 0.61124 0.6043 0.0
C516 C 0.6693 0.60701 0.58809 0.0
C517 C 0.65179 0.61323 0.59502 0.0
C518 C 0.60917 0.55579 0.61098 0.0
C519 C 0.59487 0.59799 0.60119 0.0
C520 C 0.61934 0.57915 0.61954 0.0
N521 N 0.61217 0.59989 0.61457 0.0
C522 C 0.58431 0.57493 0.59231 0.0
C523 C 0.59154 0.55372 0.59726 0.0
C524 C 0.59455 0.6615 0.63296 0.0
C525 C 0.64521 0.71171 0.703 0.0
C526 C 0.61595 0.7165 0.66929 0.0
C527 C 0.6145 0.72437 0.6929 0.0
C528 C 0.62926 0.72195 0.70984 0.0
N529 N 0.63169 0.70655 0.6627 0.0
C530 C 0.64617 0.70403 0.67921 0.0
Co531 Co 0.35375 0.63831 0.68005 0.0
Co532 Co 0.3724 0.67962 0.72852 0.0
O533 O 0.35406 0.66839 0.70071 0.0
C534 C 0.35803 0.67693 0.64716 0.0
O535 O 0.37183 0.68985 0.6622 0.0
C536 C 0.33364 0.67336 0.74608 0.0
O537 O 0.33051 0.65178 0.73357 0.0
O538 O 0.36914 0.6461 0.7397 0.0
O539 O 0.35816 0.61966 0.7076 0.0
H540 H 0.42954 0.6765 0.78616 0.0
H541 H 0.32119 0.66638 0.67585 0.0
O542 O 0.34915 0.65618 0.65185 0.0
H543 H 0.29107 0.58341 0.69264 0.0
H544 H 0.32922 0.57693 0.60953 0.0
H545 H 0.37753 0.59852 0.67858 0.0
H546 H 0.32635 0.59314 0.68853 0.0
H547 H 0.32947 0.61448 0.63642 0.0
O548 O 0.35015 0.68732 0.74669 0.0
H549 H 0.4065 0.66212 0.75102 0.0
H550 H 0.37662 0.72206 0.76557 0.0
H551 H 0.3777 0.56067 0.65227 0.0
H552 H 0.28581 0.65742 0.67959 0.0
H553 H 0.35341 0.54968 0.61745 0.0
H554 H 0.27054 0.6157 0.68817 0.0
O555 O 0.38244 0.64658 0.67798 0.0
H556 H 0.3495 0.75318 0.69743 0.0
H557 H 0.40693 0.71722 0.72217 0.0
H558 H 0.41162 0.75834 0.70779 0.0
H559 H 0.38277 0.7766 0.69533 0.0
H560 H 0.34548 0.71202 0.71174 0.0
H561 H 0.39923 0.737 0.80097 0.0
H562 H 0.42597 0.71421 0.8114 0.0
O563 O 0.39461 0.67191 0.71059 0.0
C564 C 0.36386 0.62432 0.72947 0.0
C565 C 0.41798 0.68664 0.78176 0.0
C566 C 0.40095 0.72057 0.79009 0.0
N567 N 0.39034 0.69134 0.75618 0.0
C568 C 0.40493 0.67862 0.76186 0.0
C569 C 0.38817 0.712 0.77006 0.0
C570 C 0.41596 0.70778 0.79593 0.0
C571 C 0.31462 0.64813 0.67939 0.0
N572 N 0.32583 0.63031 0.68204 0.0
C573 C 0.29459 0.64318 0.68156 0.0
C574 C 0.28604 0.61979 0.6864 0.0
C575 C 0.29755 0.60167 0.68895 0.0
C576 C 0.31754 0.6073 0.6867 0.0
C577 C 0.33985 0.5815 0.62467 0.0
C578 C 0.36683 0.59376 0.66356 0.0
C579 C 0.34009 0.60276 0.63993 0.0
N580 N 0.3534 0.60857 0.65916 0.0
C581 C 0.36704 0.57235 0.64868 0.0
C582 C 0.35342 0.56621 0.62913 0.0
C583 C 0.39666 0.6594 0.69129 0.0
C584 C 0.36219 0.74545 0.70287 0.0
C585 C 0.3943 0.72501 0.71673 0.0
C586 C 0.39705 0.74833 0.70865 0.0
C587 C 0.38086 0.75857 0.70167 0.0
N588 N 0.37594 0.71229 0.71792 0.0
C589 C 0.35999 0.72219 0.71108 0.0
Co590 Co 0.37298 0.38032 0.68003 0.0
Co591 Co 0.36536 0.31743 0.68487 0.0
O592 O 0.36155 0.35122 0.69464 0.0
C593 C 0.37945 0.39615 0.73277 0.0
O594 O 0.37261 0.37416 0.73854 0.0
C595 C 0.32251 0.31463 0.67917 0.0
O596 O 0.32549 0.3352 0.66913 0.0
O597 O 0.36016 0.32131 0.65066 0.0
O598 O 0.36687 0.36199 0.64832 0.0
H599 H 0.39287 0.2524 0.63731 0.0
H600 H 0.34191 0.38351 0.71282 0.0
O601 O 0.38 0.40038 0.71128 0.0
H602 H 0.3162 0.40904 0.6381 0.0
H603 H 0.3864 0.47087 0.6695 0.0
H604 H 0.39879 0.38834 0.64139 0.0
H605 H 0.34884 0.39752 0.64181 0.0
H606 H 0.37173 0.43421 0.68762 0.0
O607 O 0.3369 0.30499 0.6865 0.0
H608 H 0.38799 0.29474 0.64954 0.0
H609 H 0.35033 0.26823 0.70022 0.0
H610 H 0.41359 0.42449 0.62263 0.0
H611 H 0.30934 0.39513 0.70997 0.0
H612 H 0.40743 0.46613 0.63669 0.0
H613 H 0.29621 0.40796 0.67237 0.0
O614 O 0.39911 0.37031 0.68227 0.0
H615 H 0.35087 0.32108 0.76989 0.0
H616 H 0.39657 0.29887 0.71297 0.0
H617 H 0.40327 0.29361 0.75498 0.0
H618 H 0.38028 0.30467 0.78376 0.0
H619 H 0.34493 0.32644 0.72777 0.0
H620 H 0.35467 0.22558 0.68841 0.0
H621 H 0.37614 0.21746 0.6568 0.0
O622 O 0.39382 0.32913 0.683 0.0
C623 C 0.36204 0.33993 0.63886 0.0
C624 C 0.38353 0.2557 0.65115 0.0
C625 C 0.36206 0.24065 0.67981 0.0
N626 N 0.369 0.28396 0.67568 0.0
C627 C 0.38075 0.27965 0.65819 0.0
C628 C 0.35962 0.26483 0.68638 0.0
C629 C 0.37412 0.23611 0.66208 0.0
C630 C 0.33652 0.38944 0.69653 0.0
N631 N 0.34748 0.39019 0.67765 0.0
C632 C 0.31796 0.39584 0.69496 0.0
C633 C 0.31058 0.40298 0.67384 0.0
C634 C 0.32178 0.40358 0.65461 0.0
C635 C 0.34027 0.39701 0.65683 0.0
C636 C 0.38916 0.45282 0.66319 0.0
C637 C 0.39594 0.40638 0.64752 0.0
C638 C 0.38094 0.43199 0.67342 0.0
N639 N 0.38429 0.40911 0.66546 0.0
C640 C 0.4044 0.42679 0.63687 0.0
C641 C 0.40096 0.45015 0.64478 0.0
C642 C 0.40508 0.3497 0.68245 0.0
C643 C 0.361 0.31618 0.75752 0.0
C644 C 0.38663 0.30401 0.72541 0.0
C645 C 0.39043 0.30085 0.74916 0.0
C646 C 0.37751 0.30701 0.7653 0.0
N647 N 0.37043 0.31307 0.71792 0.0
C648 C 0.35766 0.31908 0.73363 0.0
Co649 Co 0.6473 0.36153 0.64782 0.0
Co650 Co 0.64359 0.32932 0.69688 0.0
O651 O 0.65355 0.33575 0.66659 0.0
C652 C 0.63501 0.31595 0.61525 0.0
O653 O 0.62555 0.3062 0.63212 0.0
C654 C 0.68633 0.33982 0.7074 0.0
O655 O 0.68622 0.36006 0.69705 0.0
O656 O 0.64918 0.36507 0.7089 0.0
O657 O 0.65022 0.38542 0.67645 0.0
H658 H 0.60382 0.3419 0.76547 0.0
H659 H 0.67855 0.33372 0.63479 0.0
O660 O 0.64437 0.33793 0.61863 0.0
H661 H 0.71066 0.42059 0.65047 0.0
H662 H 0.65032 0.40907 0.57667 0.0
H663 H 0.62313 0.40075 0.65342 0.0
H664 H 0.67538 0.40895 0.65367 0.0
H665 H 0.65822 0.3769 0.60119 0.0
O666 O 0.67038 0.32544 0.70928 0.0
H667 H 0.61628 0.35027 0.72716 0.0
H668 H 0.65061 0.29381 0.73147 0.0
H669 H 0.61497 0.43329 0.62956 0.0
H670 H 0.71385 0.34457 0.6312 0.0
H671 H 0.6286 0.43759 0.59088 0.0
H672 H 0.73014 0.38827 0.63914 0.0
O673 O 0.61891 0.35248 0.65169 0.0
H674 H 0.65864 0.25068 0.65695 0.0
H675 H 0.6091 0.28952 0.69638 0.0
H676 H 0.60132 0.24565 0.68083 0.0
H677 H 0.62621 0.22594 0.66097 0.0
H678 H 0.66573 0.29456 0.67255 0.0
H679 H 0.63866 0.28498 0.76993 0.0
H680 H 0.61503 0.30905 0.78712 0.0
O681 O 0.61684 0.33315 0.68471 0.0
C682 C 0.65092 0.3848 0.69869 0.0
C683 C 0.61407 0.33124 0.75813 0.0
C684 C 0.63365 0.29932 0.76065 0.0
N685 N 0.63404 0.32242 0.72703 0.0
C686 C 0.62114 0.33585 0.73642 0.0
C687 C 0.6404 0.30444 0.7389 0.0
C688 C 0.62038 0.31282 0.77028 0.0
C689 C 0.6855 0.35281 0.63804 0.0
N690 N 0.67489 0.3707 0.64427 0.0
C691 C 0.70551 0.35883 0.63607 0.0
C692 C 0.71464 0.38335 0.64056 0.0
C693 C 0.70372 0.40149 0.64693 0.0
C694 C 0.68375 0.39478 0.64874 0.0
C695 C 0.64431 0.40739 0.59351 0.0
C696 C 0.6292 0.40259 0.63666 0.0
C697 C 0.64869 0.38918 0.60743 0.0
N698 N 0.64122 0.38704 0.62876 0.0
C699 C 0.62449 0.42101 0.62321 0.0
C700 C 0.63213 0.4234 0.60149 0.0
C701 C 0.60915 0.34217 0.66728 0.0
C702 C 0.64768 0.25905 0.6656 0.0
C703 C 0.61996 0.28111 0.68767 0.0
C704 C 0.6155 0.25624 0.67896 0.0
C705 C 0.62948 0.24519 0.66784 0.0
N706 N 0.63785 0.29458 0.68541 0.0
C707 C 0.65164 0.28387 0.67454 0.0
Co708 Co 0.62948 0.3162 0.34528 0.0
Co709 Co 0.62493 0.25628 0.32187 0.0
O710 O 0.63818 0.29065 0.32492 0.0
C711 C 0.62805 0.35451 0.31243 0.0
O712 O 0.60908 0.35087 0.31333 0.0
C713 C 0.66662 0.25343 0.33137 0.0
O714 O 0.66734 0.27052 0.34905 0.0
O715 O 0.62827 0.25565 0.35669 0.0
O716 O 0.62088 0.29252 0.36851 0.0
H717 H 0.57742 0.18459 0.34273 0.0
H718 H 0.66976 0.32513 0.33078 0.0
O719 O 0.63832 0.34091 0.32282 0.0
H720 H 0.67713 0.3314 0.41766 0.0
H721 H 0.63436 0.40149 0.38718 0.0
H722 H 0.59396 0.319 0.3702 0.0
H723 H 0.64447 0.32299 0.39617 0.0
H724 H 0.64588 0.36865 0.36271 0.0
O725 O 0.65064 0.24531 0.31889 0.0
H726 H 0.59367 0.228 0.34593 0.0
H727 H 0.62943 0.21096 0.29179 0.0
H728 H 0.58193 0.35124 0.39485 0.0
H729 H 0.7027 0.33391 0.35161 0.0
H730 H 0.60217 0.39286 0.40347 0.0
H731 H 0.70654 0.33701 0.39536 0.0
O732 O 0.60322 0.30772 0.32804 0.0
H733 H 0.64735 0.27528 0.24289 0.0
H734 H 0.5916 0.24076 0.28501 0.0
H735 H 0.5872 0.24216 0.24199 0.0
H736 H 0.61522 0.25943 0.22063 0.0
H737 H 0.65107 0.27373 0.28595 0.0
H738 H 0.61369 0.16731 0.28815 0.0
H739 H 0.58743 0.1539 0.31367 0.0
O740 O 0.59872 0.26643 0.32447 0.0
C741 C 0.62358 0.27092 0.37241 0.0
C742 C 0.58881 0.19022 0.33146 0.0
C743 C 0.60918 0.18051 0.30085 0.0
N744 N 0.61236 0.22204 0.31893 0.0
C745 C 0.59802 0.21479 0.33315 0.0
C746 C 0.61807 0.20524 0.30303 0.0
C747 C 0.59444 0.173 0.31517 0.0
C748 C 0.6713 0.32676 0.34983 0.0
N749 N 0.6552 0.32367 0.36222 0.0
C750 C 0.69 0.33161 0.36153 0.0
C751 C 0.69214 0.33329 0.38607 0.0
C752 C 0.67565 0.33012 0.3986 0.0
C753 C 0.65719 0.32527 0.38631 0.0
C754 C 0.62541 0.38343 0.38356 0.0
C755 C 0.60289 0.33703 0.37392 0.0
C756 C 0.63184 0.36477 0.36969 0.0
N757 N 0.62062 0.3419 0.36504 0.0
C758 C 0.59599 0.35523 0.38788 0.0
C759 C 0.60735 0.37857 0.3927 0.0
C760 C 0.59225 0.28672 0.32401 0.0
C761 C 0.63504 0.26766 0.25199 0.0
C762 C 0.60384 0.24842 0.27586 0.0
C763 C 0.60127 0.2491 0.25149 0.0
C764 C 0.61701 0.25878 0.23951 0.0
N765 N 0.62161 0.25706 0.28796 0.0
C766 C 0.63708 0.26667 0.27636 0.0
Co767 Co 0.60898 0.62768 0.28263 0.0
Co768 Co 0.62995 0.68753 0.3017 0.0
O769 O 0.63046 0.65546 0.28417 0.0
C770 C 0.64197 0.60248 0.29781 0.0
O771 O 0.64727 0.61932 0.31582 0.0
C772 C 0.64128 0.69928 0.25445 0.0
O773 O 0.62808 0.68063 0.24507 0.0
O774 O 0.60427 0.68961 0.28517 0.0
O775 O 0.58926 0.65017 0.28141 0.0
H776 H 0.5999 0.74979 0.3497 0.0
H777 H 0.63899 0.62723 0.2486 0.0
O778 O 0.62777 0.60408 0.28312 0.0
H779 H 0.57667 0.61939 0.19987 0.0
H780 H 0.57372 0.54164 0.25561 0.0
H781 H 0.57231 0.61849 0.30594 0.0
H782 H 0.57747 0.6219 0.24321 0.0
H783 H 0.60038 0.5771 0.25685 0.0
O784 O 0.64366 0.70471 0.27669 0.0
H785 H 0.60071 0.70942 0.32796 0.0
H786 H 0.65869 0.73421 0.31194 0.0
H787 H 0.54522 0.58354 0.30504 0.0
H788 H 0.63888 0.62434 0.20528 0.0
H789 H 0.54583 0.54477 0.27975 0.0
H790 H 0.60756 0.62053 0.18061 0.0
O791 O 0.61005 0.63041 0.31778 0.0
H792 H 0.69885 0.67143 0.30666 0.0
H793 H 0.6461 0.69501 0.35211 0.0
H794 H 0.67743 0.69124 0.37306 0.0
H795 H 0.70409 0.67943 0.3503 0.0
H796 H 0.66722 0.67519 0.28642 0.0
H797 H 0.65846 0.77491 0.33336 0.0
H798 H 0.62893 0.78288 0.3525 0.0
O799 O 0.61648 0.6714 0.32739 0.0
C800 C 0.58908 0.67312 0.28057 0.0
C801 C 0.61287 0.74652 0.34148 0.0
C802 C 0.64572 0.76064 0.33228 0.0
N803 N 0.62975 0.71942 0.31879 0.0
C804 C 0.61343 0.72368 0.3292 0.0
C805 C 0.64575 0.73757 0.32012 0.0
C806 C 0.62915 0.76509 0.34303 0.0
C807 C 0.62528 0.6254 0.23798 0.0
N808 N 0.60825 0.62502 0.24846 0.0
C809 C 0.62532 0.62385 0.21346 0.0
C810 C 0.60775 0.62176 0.19963 0.0
C811 C 0.59043 0.62117 0.21043 0.0
C812 C 0.59096 0.62281 0.235 0.0
C813 C 0.57327 0.55845 0.26668 0.0
C814 C 0.57262 0.60172 0.29479 0.0
C815 C 0.58836 0.57857 0.26752 0.0
N816 N 0.58785 0.59991 0.28136 0.0
C817 C 0.55727 0.58198 0.29439 0.0
C818 C 0.55763 0.56022 0.28022 0.0
C819 C 0.6116 0.64944 0.33263 0.0
C820 C 0.68736 0.67667 0.31677 0.0
C821 C 0.65761 0.6898 0.34207 0.0
C822 C 0.67533 0.68774 0.35403 0.0
C823 C 0.69028 0.68113 0.34125 0.0
N824 N 0.65487 0.68546 0.31804 0.0
C825 C 0.66945 0.67891 0.3054 0.0
Co826 Co 0.39455 0.7178 0.37121 0.0
Co827 Co 0.36001 0.7048 0.32327 0.0
O828 O 0.37062 0.72256 0.35377 0.0
C829 C 0.36486 0.70677 0.40504 0.0
O830 O 0.35372 0.69277 0.38789 0.0
C831 C 0.35678 0.74571 0.29378 0.0
O832 O 0.36713 0.73543 0.27867 0.0
O833 O 0.38604 0.71133 0.31024 0.0
O834 O 0.40811 0.71773 0.34183 0.0
H835 H 0.35915 0.64497 0.25148 0.0
H836 H 0.37442 0.75894 0.3866 0.0
O837 O 0.3815 0.71822 0.40118 0.0
H838 H 0.44071 0.79818 0.37263 0.0
H839 H 0.4453 0.73247 0.44047 0.0
H840 H 0.42453 0.68666 0.36231 0.0
H841 H 0.43108 0.75295 0.36686 0.0
H842 H 0.41534 0.73869 0.41791 0.0
O843 O 0.35358 0.73646 0.31306 0.0
H844 H 0.3724 0.66727 0.29004 0.0
H845 H 0.32408 0.705 0.29145 0.0
H846 H 0.4547 0.68004 0.38417 0.0
H847 H 0.38348 0.80424 0.39285 0.0
H848 H 0.46525 0.70303 0.42355 0.0
H849 H 0.41683 0.82414 0.3858 0.0
O850 O 0.3868 0.6811 0.36613 0.0
H851 H 0.30501 0.7277 0.36797 0.0
H852 H 0.32937 0.66021 0.3234 0.0
H853 H 0.29789 0.65159 0.34061 0.0
H854 H 0.28548 0.68551 0.36304 0.0
H855 H 0.33655 0.73541 0.35075 0.0
H856 H 0.31033 0.68316 0.25288 0.0
H857 H 0.32791 0.65288 0.23263 0.0
O858 O 0.36595 0.67315 0.33347 0.0
C859 C 0.40355 0.71571 0.31968 0.0
C860 C 0.35137 0.65813 0.26012 0.0
C861 C 0.32397 0.67956 0.2609 0.0
N862 N 0.34906 0.68746 0.29296 0.0
C863 C 0.3588 0.67081 0.28195 0.0
C864 C 0.33183 0.69189 0.28273 0.0
C865 C 0.33383 0.66258 0.24955 0.0
C866 C 0.38897 0.76748 0.38357 0.0
N867 N 0.40219 0.75334 0.3763 0.0
C868 C 0.39401 0.79313 0.3871 0.0
C869 C 0.41272 0.80428 0.38313 0.0
C870 C 0.42613 0.78973 0.37572 0.0
C871 C 0.42056 0.76415 0.37236 0.0
C872 C 0.44087 0.72237 0.42331 0.0
C873 C 0.42911 0.69685 0.37937 0.0
C874 C 0.4239 0.72576 0.41049 0.0
N875 N 0.41828 0.71317 0.38875 0.0
C876 C 0.44616 0.69297 0.3917 0.0
C877 C 0.45206 0.70586 0.4138 0.0
C878 C 0.37591 0.66618 0.35039 0.0
C879 C 0.31025 0.71277 0.35821 0.0
C880 C 0.32418 0.675 0.3333 0.0
C881 C 0.30628 0.67005 0.34291 0.0
C882 C 0.29931 0.68909 0.35547 0.0
N883 N 0.33483 0.69827 0.33605 0.0
C884 C 0.32807 0.71704 0.34834 0.0
Co885 Co 0.38934 0.36575 0.35354 0.0
Co886 Co 0.354 0.3152 0.33921 0.0
O887 O 0.36521 0.34938 0.33487 0.0
C888 C 0.36435 0.40474 0.35617 0.0
O889 O 0.34905 0.38812 0.35844 0.0
C890 C 0.34605 0.31992 0.28702 0.0
O891 O 0.3554 0.3427 0.28905 0.0
O892 O 0.37896 0.30464 0.33163 0.0
O893 O 0.39925 0.3339 0.3549 0.0
H894 H 0.35507 0.23351 0.3709 0.0
H895 H 0.37842 0.3858 0.30912 0.0
O896 O 0.38081 0.39849 0.35323 0.0
H897 H 0.44269 0.36215 0.29904 0.0
H898 H 0.44676 0.43385 0.37617 0.0
H899 H 0.41202 0.35421 0.39578 0.0
H900 H 0.42719 0.3567 0.33605 0.0
H901 H 0.41708 0.41271 0.35201 0.0
O902 O 0.34453 0.3077 0.30486 0.0
H903 H 0.36805 0.27666 0.36536 0.0
H904 H 0.31717 0.28083 0.32154 0.0
H905 H 0.44173 0.37464 0.42029 0.0
H906 H 0.39353 0.3919 0.27188 0.0
H907 H 0.45932 0.41477 0.41054 0.0
H908 H 0.42587 0.37994 0.26663 0.0
O909 O 0.37643 0.36039 0.38274 0.0
H910 H 0.29828 0.36162 0.32705 0.0
H911 H 0.3268 0.30573 0.37657 0.0
H912 H 0.29619 0.31927 0.38646 0.0
H913 H 0.28165 0.34733 0.36155 0.0
H914 H 0.32899 0.34796 0.31802 0.0
H915 H 0.30373 0.23765 0.32642 0.0
H916 H 0.32268 0.21372 0.35134 0.0
O917 O 0.36278 0.32077 0.37395 0.0
C918 C 0.39561 0.31324 0.34232 0.0
C919 C 0.34665 0.24376 0.36005 0.0
C920 C 0.31785 0.24608 0.33506 0.0
N921 N 0.34333 0.28131 0.34329 0.0
C922 C 0.3539 0.26822 0.3569 0.0
C923 C 0.32556 0.2705 0.33231 0.0
C924 C 0.32848 0.23267 0.34905 0.0
C925 C 0.39253 0.38066 0.30699 0.0
N926 N 0.40182 0.37075 0.32467 0.0
C927 C 0.401 0.38411 0.28586 0.0
C928 C 0.41914 0.37738 0.28292 0.0
C929 C 0.42858 0.36738 0.30108 0.0
C930 C 0.41967 0.36422 0.32197 0.0
C931 C 0.43925 0.41635 0.38057 0.0
C932 C 0.41964 0.3716 0.39133 0.0
C933 C 0.42241 0.4043 0.36698 0.0
N934 N 0.41288 0.38214 0.37237 0.0
C935 C 0.43643 0.38311 0.40532 0.0
C936 C 0.44629 0.40563 0.39985 0.0
C937 C 0.36844 0.33976 0.38878 0.0
C938 C 0.30439 0.34924 0.33793 0.0
C939 C 0.32061 0.31795 0.36561 0.0
C940 C 0.30324 0.32554 0.37131 0.0
C941 C 0.29509 0.34127 0.35732 0.0
N942 N 0.3296 0.32568 0.34644 0.0
C943 C 0.32175 0.34126 0.33277 0.0
C944 C 0.33161 0.28352 0.2588 0.0
C945 C 0.33453 0.30909 0.26484 0.0
C946 C 0.31839 0.2725 0.23987 0.0
C947 C 0.28539 0.28612 0.18952 0.0
H948 H 0.25557 0.22333 0.20088 0.0
C949 C 0.20655 0.24627 0.15001 0.0
C950 C 0.20245 0.22112 0.14163 0.0
C951 C 0.225 0.25687 0.1607 0.0
C952 C 0.26395 0.24068 0.19727 0.0
H953 H 0.32643 0.34336 0.25549 0.0
H954 H 0.30259 0.32415 0.22318 0.0
H955 H 0.28346 0.2421 0.22793 0.0
H956 H 0.21465 0.18752 0.13714 0.0
H957 H 0.24682 0.20597 0.15644 0.0
H958 H 0.26472 0.28512 0.1596 0.0
C959 C 0.31093 0.31252 0.23242 0.0
C960 C 0.28008 0.25147 0.21273 0.0
C961 C 0.32457 0.32361 0.25102 0.0
C962 C 0.2174 0.20698 0.14334 0.0
C963 C 0.23576 0.21748 0.15445 0.0
C964 C 0.26897 0.27549 0.1743 0.0
C965 C 0.30727 0.2867 0.22695 0.0
C966 C 0.29098 0.27448 0.20924 0.0
C967 C 0.23961 0.24241 0.1636 0.0
C968 C 0.25803 0.25276 0.17817 0.0
H969 H 0.33925 0.27194 0.26909 0.0
H970 H 0.31654 0.25271 0.23582 0.0
H971 H 0.29354 0.30358 0.18592 0.0
H972 H 0.19531 0.25763 0.14889 0.0
H973 H 0.22754 0.27607 0.16776 0.0
C974 C 0.70306 0.25782 0.33287 0.0
C975 C 0.68453 0.24457 0.32464 0.0
C976 C 0.71986 0.25035 0.32477 0.0
C977 C 0.73536 0.21301 0.27466 0.0
H978 H 0.78331 0.21797 0.31481 0.0
C979 C 0.79965 0.16844 0.2451 0.0
C980 C 0.81826 0.18306 0.24897 0.0
C981 C 0.78379 0.17621 0.25523 0.0
C982 C 0.77005 0.21668 0.30337 0.0
H983 H 0.66908 0.2125 0.30234 0.0
H984 H 0.69823 0.19913 0.2888 0.0
H985 H 0.75469 0.23068 0.33131 0.0
H986 H 0.83491 0.21711 0.26683 0.0
H987 H 0.80709 0.23059 0.28469 0.0
H988 H 0.75061 0.19871 0.24685 0.0
C989 C 0.69988 0.2157 0.30092 0.0
C990 C 0.75367 0.22399 0.31279 0.0
C991 C 0.68314 0.22327 0.30882 0.0
C992 C 0.82073 0.20545 0.2635 0.0
C993 C 0.80486 0.21311 0.27383 0.0
C994 C 0.75164 0.20554 0.26534 0.0
C995 C 0.71844 0.22939 0.30841 0.0
C996 C 0.73608 0.22209 0.29856 0.0
C997 C 0.78619 0.19867 0.26959 0.0
C998 C 0.76912 0.20715 0.27961 0.0
H999 H 0.70458 0.27438 0.34499 0.0
H1000 H 0.7339 0.26143 0.33077 0.0
H1001 H 0.72224 0.21186 0.26302 0.0
H1002 H 0.79724 0.15111 0.23398 0.0
H1003 H 0.76961 0.16457 0.25187 0.0
C1004 C 0.79098 0.77099 0.17226 0.0
C1005 C 0.79737 0.79639 0.17182 0.0
C1006 C 0.77188 0.76212 0.17698 0.0
C1007 C 0.73506 0.77747 0.21218 0.0
H1008 H 0.69855 0.72763 0.17234 0.0
C1009 C 0.66227 0.73772 0.24575 0.0
C1010 C 0.65515 0.71254 0.23981 0.0
C1011 C 0.67736 0.74978 0.23408 0.0
C1012 C 0.70862 0.74131 0.18387 0.0
H1013 H 0.7888 0.83241 0.17564 0.0
H1014 H 0.75551 0.81685 0.18486 0.0
H1015 H 0.72958 0.74473 0.15807 0.0
H1016 H 0.65777 0.68023 0.21676 0.0
H1017 H 0.68488 0.70074 0.19727 0.0
H1018 H 0.71522 0.77309 0.23869 0.0
C1019 C 0.76524 0.80389 0.18105 0.0
C1020 C 0.7263 0.75123 0.17554 0.0
C1021 C 0.78421 0.81273 0.17574 0.0
C1022 C 0.66291 0.69975 0.22147 0.0
C1023 C 0.67844 0.71163 0.21024 0.0
C1024 C 0.71766 0.76716 0.22076 0.0
C1025 C 0.75899 0.77854 0.18187 0.0
C1026 C 0.73966 0.7693 0.18969 0.0
C1027 C 0.68619 0.73674 0.21675 0.0
C1028 C 0.70417 0.7488 0.20681 0.0
H1029 H 0.80083 0.758 0.16924 0.0
H1030 H 0.7674 0.74252 0.17772 0.0
H1031 H 0.74532 0.79116 0.22353 0.0
H1032 H 0.65637 0.74801 0.25975 0.0
H1033 H 0.68235 0.76925 0.23912 0.0
C1034 C 0.33293 0.77371 0.30234 0.0
C1035 C 0.34476 0.76387 0.28635 0.0
C1036 C 0.31832 0.78623 0.29445 0.0
C1037 C 0.29803 0.81616 0.24578 0.0
H1038 H 0.2485 0.78518 0.265 0.0
C1039 C 0.22328 0.83092 0.20295 0.0
C1040 C 0.20769 0.83008 0.21726 0.0
C1041 C 0.24128 0.82586 0.21176 0.0
C1042 C 0.26217 0.79448 0.25979 0.0
H1043 H 0.35168 0.76149 0.24989 0.0
H1044 H 0.32611 0.78364 0.23615 0.0
H1045 H 0.27837 0.77288 0.28016 0.0
H1046 H 0.19895 0.8247 0.25232 0.0
H1047 H 0.23039 0.81697 0.26797 0.0
H1048 H 0.28176 0.83798 0.22553 0.0
C1049 C 0.32816 0.78146 0.25476 0.0
C1050 C 0.27932 0.78732 0.26845 0.0
C1051 C 0.34278 0.76877 0.26265 0.0
C1052 C 0.21063 0.82511 0.24077 0.0
C1053 C 0.22866 0.82051 0.24968 0.0
C1054 C 0.2808 0.82363 0.23731 0.0
C1055 C 0.31529 0.78935 0.27044 0.0
C1056 C 0.29741 0.79805 0.26158 0.0
C1057 C 0.2441 0.82021 0.23517 0.0
C1058 C 0.26264 0.81286 0.24424 0.0
H1059 H 0.33421 0.77057 0.32078 0.0
H1060 H 0.30879 0.79251 0.30697 0.0
H1061 H 0.31182 0.82468 0.24021 0.0
H1062 H 0.22137 0.83464 0.18471 0.0
H1063 H 0.25274 0.82558 0.19999 0.0
C1064 C 0.32111 0.70308 0.77453 0.0
C1065 C 0.31762 0.68183 0.75834 0.0
C1066 C 0.30574 0.7112 0.78564 0.0
C1067 C 0.26927 0.73254 0.79555 0.0
H1068 H 0.22616 0.68482 0.81129 0.0
C1069 C 0.20343 0.75912 0.84289 0.0
C1070 C 0.1851 0.74786 0.83188 0.0
C1071 C 0.22043 0.75135 0.83577 0.0
C1072 C 0.23809 0.69835 0.80694 0.0
H1073 H 0.29525 0.65261 0.7409 0.0
H1074 H 0.26852 0.66705 0.75969 0.0
H1075 H 0.25456 0.67063 0.79603 0.0
H1076 H 0.17017 0.71951 0.805 0.0
H1077 H 0.19975 0.70581 0.79289 0.0
H1078 H 0.25268 0.76023 0.80672 0.0
C1079 C 0.28313 0.67713 0.7644 0.0
C1080 C 0.25433 0.69024 0.79809 0.0
C1081 C 0.29848 0.6689 0.75349 0.0
C1082 C 0.18407 0.72858 0.81381 0.0
C1083 C 0.20099 0.72062 0.80696 0.0
C1084 C 0.25308 0.74066 0.80467 0.0
C1085 C 0.28654 0.69836 0.78065 0.0
C1086 C 0.26998 0.7072 0.79185 0.0
C1087 C 0.21933 0.73196 0.81781 0.0
C1088 C 0.23719 0.7236 0.81004 0.0
H1089 H 0.33572 0.7134 0.77868 0.0
H1090 H 0.30894 0.72745 0.79826 0.0
H1091 H 0.28092 0.74612 0.7907 0.0
H1092 H 0.20468 0.77408 0.8568 0.0
H1093 H 0.2344 0.76033 0.84446 0.0
C1094 C 0.16897 0.20268 0.73467 0.0
C1095 C 0.15472 0.21746 0.73883 0.0
C1096 C 0.18582 0.21187 0.72432 0.0
C1097 C 0.20953 0.2618 0.69165 0.0
H1098 H 0.25634 0.25147 0.72734 0.0
C1099 C 0.28668 0.31544 0.68032 0.0
C1100 C 0.30247 0.30272 0.68269 0.0
C1101 C 0.26796 0.30438 0.68488 0.0
C1102 C 0.24347 0.25423 0.71687 0.0
H1103 H 0.14639 0.25288 0.73369 0.0
H1104 H 0.17586 0.26888 0.71554 0.0
H1105 H 0.22466 0.23262 0.73788 0.0
H1106 H 0.31086 0.2681 0.69077 0.0
H1107 H 0.27834 0.24869 0.69806 0.0
H1108 H 0.22847 0.2835 0.67063 0.0
C1109 C 0.17396 0.25018 0.72035 0.0
C1110 C 0.22527 0.2434 0.72295 0.0
C1111 C 0.15707 0.24099 0.73077 0.0
C1112 C 0.29907 0.27853 0.68906 0.0
C1113 C 0.28039 0.26743 0.69337 0.0
C1114 C 0.22782 0.27254 0.68542 0.0
C1115 C 0.18883 0.23602 0.71781 0.0
C1116 C 0.20807 0.24702 0.71044 0.0
C1117 C 0.26463 0.28031 0.69173 0.0
C1118 C 0.24504 0.26887 0.69797 0.0
H1119 H 0.16758 0.18438 0.74043 0.0
H1120 H 0.19684 0.20032 0.72215 0.0
H1121 H 0.19653 0.26486 0.68164 0.0
H1122 H 0.28884 0.33414 0.67552 0.0
H1123 H 0.25624 0.31496 0.68366 0.0
C1124 C 0.81558 0.24152 0.78019 0.0
C1125 C 0.83444 0.25394 0.78817 0.0
C1126 C 0.80193 0.25386 0.76979 0.0
C1127 C 0.78812 0.3144 0.76533 0.0
H1128 H 0.75408 0.27831 0.71261 0.0
C1129 C 0.72253 0.34994 0.71771 0.0
C1130 C 0.70501 0.33291 0.71584 0.0
C1131 C 0.74019 0.34298 0.72525 0.0
C1132 C 0.7635 0.28864 0.72728 0.0
H1133 H 0.85359 0.28937 0.79187 0.0
H1134 H 0.82943 0.31118 0.77341 0.0
H1135 H 0.78225 0.26177 0.72761 0.0
H1136 H 0.6923 0.29528 0.72039 0.0
H1137 H 0.72306 0.28315 0.73314 0.0
H1138 H 0.76898 0.34114 0.765 0.0
C1139 C 0.82539 0.29175 0.77531 0.0
C1140 C 0.77961 0.27918 0.7359 0.0
C1141 C 0.83921 0.27927 0.78581 0.0
C1142 C 0.70551 0.30886 0.72167 0.0
C1143 C 0.72313 0.30185 0.72884 0.0
C1144 C 0.772 0.32401 0.75651 0.0
C1145 C 0.80667 0.27902 0.76695 0.0
C1146 C 0.7917 0.29146 0.75556 0.0
C1147 C 0.74065 0.31878 0.7306 0.0
C1148 C 0.75921 0.31076 0.73791 0.0
H1149 H 0.8112 0.2221 0.78196 0.0
H1150 H 0.78749 0.24363 0.76415 0.0
H1151 H 0.79715 0.32425 0.78051 0.0
H1152 H 0.7226 0.36863 0.71336 0.0
H1153 H 0.75352 0.35634 0.72645 0.0
C1154 C 0.82257 0.7735 0.75854 0.0
C1155 C 0.82747 0.79927 0.76234 0.0
C1156 C 0.80879 0.76224 0.74023 0.0
C1157 C 0.77861 0.77495 0.6869 0.0
H1158 H 0.74521 0.71565 0.7007 0.0
C1159 C 0.70033 0.73698 0.64337 0.0
C1160 C 0.69596 0.71157 0.63607 0.0
C1161 C 0.71842 0.74739 0.65521 0.0
C1162 C 0.75457 0.73202 0.69647 0.0
H1163 H 0.82212 0.83353 0.74972 0.0
H1164 H 0.79733 0.8141 0.71852 0.0
H1165 H 0.77264 0.73438 0.7285 0.0
H1166 H 0.70733 0.67729 0.63482 0.0
H1167 H 0.7388 0.69545 0.65613 0.0
H1168 H 0.75942 0.77312 0.65544 0.0
C1169 C 0.80455 0.80236 0.72906 0.0
C1170 C 0.77044 0.74277 0.71236 0.0
C1171 C 0.81872 0.81359 0.74705 0.0
C1172 C 0.71031 0.69694 0.64009 0.0
C1173 C 0.72826 0.70728 0.65238 0.0
C1174 C 0.76244 0.76443 0.67124 0.0
C1175 C 0.79911 0.77649 0.72563 0.0
C1176 C 0.78271 0.76447 0.70791 0.0
C1177 C 0.73234 0.73252 0.66039 0.0
C1178 C 0.75025 0.74291 0.67593 0.0
H1179 H 0.82924 0.76199 0.76995 0.0
H1180 H 0.80557 0.74231 0.73782 0.0
H1181 H 0.78783 0.79134 0.68252 0.0
H1182 H 0.68954 0.7487 0.64052 0.0
H1183 H 0.72117 0.76686 0.66134 0.0
C1184 C 0.11952 0.18383 0.87651 0.0
C1185 C 0.113 0.16082 0.86337 0.0
C1186 C 0.12121 0.18592 0.90113 0.0
C1187 C 0.10475 0.15427 0.95224 0.0
H1188 H 0.15073 0.19525 0.9856 0.0
C1189 C 0.12486 0.15104 0.05115 0.0
C1190 C 0.13207 0.17339 0.06515 0.0
C1191 C 0.12221 0.1503 0.02666 0.0
C1192 C 0.13769 0.18399 0.97658 0.0
H1193 H 0.10283 0.12199 0.86598 0.0
H1194 H 0.1059 0.12564 0.90899 0.0
H1195 H 0.14649 0.19221 0.94265 0.0
H1196 H 0.14211 0.21252 0.06416 0.0
H1197 H 0.13736 0.21119 0.02126 0.0
H1198 H 0.096 0.14594 0.98615 0.0
C1199 C 0.10956 0.14211 0.90018 0.0
C1200 C 0.13525 0.18223 0.95195 0.0
C1201 C 0.10788 0.14 0.8755 0.0
C1202 C 0.13661 0.19499 0.05395 0.0
C1203 C 0.13396 0.19421 0.02936 0.0
C1204 C 0.10719 0.15603 0.97686 0.0
C1205 C 0.1164 0.16507 0.91327 0.0
C1206 C 0.1188 0.16725 0.93948 0.0
C1207 C 0.12665 0.17185 0.01545 0.0
C1208 C 0.12374 0.17079 0.98932 0.0
H1209 H 0.12348 0.20033 0.86783 0.0
H1210 H 0.12622 0.20393 0.91066 0.0
H1211 H 0.09176 0.1429 0.94322 0.0
H1212 H 0.1212 0.13399 0.05906 0.0
H1213 H 0.11687 0.1327 0.01648 0.0
C1214 C 0.87224 0.21465 0.93766 0.0
C1215 C 0.85738 0.20414 0.92009 0.0
C1216 C 0.86909 0.21453 0.96144 0.0
C1217 C 0.83645 0.18204 0.0014 0.0
H1218 H 0.86808 0.23038 0.04779 0.0
C1219 C 0.85157 0.16063 0.09648 0.0
C1220 C 0.85591 0.17972 0.11494 0.0
C1221 C 0.84872 0.16585 0.0732 0.0
C1222 C 0.85878 0.2169 0.03524 0.0
H1223 H 0.82723 0.18619 0.91368 0.0
H1224 H 0.82136 0.18692 0.95538 0.0
H1225 H 0.86761 0.23692 0.00649 0.0
H1226 H 0.85998 0.21926 0.12366 0.0
H1227 H 0.85408 0.22847 0.08303 0.0
H1228 H 0.82691 0.1626 0.03023 0.0
C1229 C 0.83572 0.19456 0.95078 0.0
C1230 C 0.8588 0.22044 0.01134 0.0
C1231 C 0.83901 0.19426 0.92685 0.0
C1232 C 0.85683 0.20419 0.10971 0.0
C1233 C 0.85354 0.20942 0.08638 0.0
C1234 C 0.83606 0.1788 0.02535 0.0
C1235 C 0.85084 0.20435 0.96844 0.0
C1236 C 0.84825 0.20259 0.99399 0.0
C1237 C 0.84969 0.19032 0.06772 0.0
C1238 C 0.8478 0.19569 0.04257 0.0
H1239 H 0.88665 0.22221 0.9331 0.0
H1240 H 0.88131 0.22167 0.97429 0.0
H1241 H 0.82812 0.16779 0.98873 0.0
H1242 H 0.85095 0.14157 0.09992 0.0
H1243 H 0.84634 0.15059 0.05948 0.0
C1244 C 0.86962 0.85779 0.92292 0.0
C1245 C 0.86994 0.83614 0.90825 0.0
C1246 C 0.86851 0.85707 0.94718 0.0
C1247 C 0.8575 0.81306 0.99256 0.0
H1248 H 0.88264 0.86957 0.03512 0.0
C1249 C 0.88186 0.84365 0.09853 0.0
C1250 C 0.86585 0.83065 0.10822 0.0
C1251 C 0.88215 0.84373 0.07416 0.0
C1252 C 0.87577 0.85341 0.0236 0.0
H1253 H 0.86978 0.79684 0.90743 0.0
H1254 H 0.86895 0.79572 0.94975 0.0
H1255 H 0.88438 0.87049 0.99311 0.0
H1256 H 0.83752 0.80762 0.10011 0.0
H1257 H 0.8375 0.80871 0.05753 0.0
H1258 H 0.84997 0.79539 0.02317 0.0
C1259 C 0.86874 0.81317 0.94261 0.0
C1260 C 0.87644 0.85414 0.99931 0.0
C1261 C 0.86939 0.81381 0.91831 0.0
C1262 C 0.85012 0.81764 0.09305 0.0
C1263 C 0.8502 0.81818 0.06862 0.0
C1264 C 0.85719 0.81213 0.0169 0.0
C1265 C 0.86815 0.83476 0.95743 0.0
C1266 C 0.8673 0.834 0.98339 0.0
C1267 C 0.86621 0.83132 0.05882 0.0
C1268 C 0.86633 0.83229 0.0328 0.0
H1269 H 0.86979 0.87522 0.91558 0.0
H1270 H 0.86765 0.87402 0.9578 0.0
H1271 H 0.84995 0.79732 0.98098 0.0
H1272 H 0.89431 0.8536 0.1098 0.0
H1273 H 0.895 0.85346 0.06742 0.0
C1274 C 0.13808 0.76483 0.08971 0.0
C1275 C 0.12041 0.77207 0.09531 0.0
C1276 C 0.13944 0.75202 0.06779 0.0
C1277 C 0.10983 0.723 0.01169 0.0
H1278 H 0.15463 0.75439 0.98264 0.0
C1279 C 0.10812 0.75157 0.91845 0.0
C1280 C 0.12375 0.74922 0.9048 0.0
C1281 C 0.10822 0.74407 0.94109 0.0
C1282 C 0.14225 0.74492 0.99054 0.0
H1283 H 0.08992 0.76949 0.08315 0.0
H1284 H 0.09236 0.748 0.04504 0.0
H1285 H 0.15416 0.75986 0.02522 0.0
H1286 H 0.15144 0.73658 0.90348 0.0
H1287 H 0.15198 0.72413 0.94377 0.0
H1288 H 0.0973 0.71001 0.97656 0.0
C1289 C 0.10519 0.7518 0.05746 0.0
C1290 C 0.14197 0.748 0.01504 0.0
C1291 C 0.10381 0.76439 0.07938 0.0
C1292 C 0.13912 0.73822 0.91367 0.0
C1293 C 0.13946 0.73124 0.93666 0.0
C1294 C 0.11001 0.72026 0.98716 0.0
C1295 C 0.1232 0.74631 0.05097 0.0
C1296 C 0.12538 0.73799 0.02588 0.0
C1297 C 0.12419 0.73464 0.95074 0.0
C1298 C 0.12591 0.73201 0.97633 0.0
H1299 H 0.15113 0.77025 0.10169 0.0
H1300 H 0.15345 0.7476 0.06363 0.0
H1301 H 0.09703 0.71446 0.01942 0.0
H1302 H 0.09619 0.76018 0.91195 0.0
H1303 H 0.0964 0.74724 0.95165 0.0
C1304 C 0.07152 0.18875 0.13869 0.0
C1305 C 0.08021 0.16781 0.14139 0.0
C1306 C 0.05186 0.18831 0.14217 0.0
C1307 C 0.01385 0.18767 0.16472 0.0
H1308 H 0.97566 0.12857 0.14643 0.0
C1309 C 0.93636 0.17653 0.19584 0.0
C1310 C 0.92077 0.1639 0.18013 0.0
C1311 C 0.95561 0.17729 0.19029 0.0
C1312 C 0.98607 0.14534 0.15143 0.0
H1313 H 0.07476 0.12981 0.1495 0.0
H1314 H 0.04071 0.12927 0.15617 0.0
H1315 H 0.00926 0.12939 0.13731 0.0
H1316 H 0.91329 0.14252 0.14602 0.0
H1317 H 0.9468 0.14437 0.13612 0.0
H1318 H 0.99056 0.20387 0.17823 0.0
C1319 C 0.049 0.14594 0.15097 0.0
C1320 C 0.00543 0.14569 0.14648 0.0
C1321 C 0.06863 0.14631 0.14732 0.0
C1322 C 0.92492 0.15229 0.15861 0.0
C1323 C 0.94417 0.15322 0.15299 0.0
C1324 C 0.99447 0.18738 0.16952 0.0
C1325 C 0.04038 0.16698 0.14858 0.0
C1326 C 0.01961 0.16681 0.1532 0.0
C1327 C 0.95978 0.16562 0.1688 0.0
C1328 C 0.98033 0.16616 0.16308 0.0
H1329 H 0.07991 0.2056 0.13395 0.0
H1330 H 0.04564 0.20472 0.13973 0.0
H1331 H 0.02438 0.20417 0.17043 0.0
H1332 H 0.93375 0.18559 0.21263 0.0
H1333 H 0.96723 0.18667 0.20308 0.0
C1334 C 0.86666 0.91857 0.247 0.0
C1335 C 0.88558 0.91552 0.24189 0.0
C1336 C 0.86314 0.94138 0.25669 0.0
C1337 C 0.88679 0.00591 0.2792 0.0
H1338 H 0.84541 0.02235 0.2379 0.0
C1339 C 0.88658 0.10206 0.24825 0.0
C1340 C 0.86873 0.10866 0.24097 0.0
C1341 C 0.88701 0.07948 0.25736 0.0
C1342 C 0.8567 0.01819 0.25013 0.0
H1343 H 0.91593 0.93314 0.24557 0.0
H1344 H 0.90976 0.97291 0.26191 0.0
H1345 H 0.84902 0.97983 0.2389 0.0
H1346 H 0.83739 0.09827 0.23886 0.0
H1347 H 0.83798 0.05936 0.2558 0.0
H1348 H 0.89496 0.04472 0.28949 0.0
C1349 C 0.89761 0.95776 0.25862 0.0
C1350 C 0.85877 0.99361 0.25071 0.0
C1351 C 0.90116 0.93489 0.24912 0.0
C1352 C 0.8513 0.09346 0.24454 0.0
C1353 C 0.85169 0.07111 0.25399 0.0
C1354 C 0.88467 0.03064 0.27866 0.0
C1355 C 0.87843 0.96164 0.26127 0.0
C1356 C 0.87419 0.98718 0.26468 0.0
C1357 C 0.86954 0.06325 0.2594 0.0
C1358 C 0.86994 0.03712 0.26356 0.0
H1359 H 0.85437 0.9039 0.24197 0.0
H1360 H 0.84825 0.94358 0.25911 0.0
H1361 H 0.89869 0.00155 0.29036 0.0
H1362 H 0.90017 0.11348 0.24525 0.0
H1363 H 0.90102 0.074 0.26109 0.0
C1364 C 0.93617 0.84466 0.20146 0.0
C1365 C 0.92257 0.82886 0.18538 0.0
C1366 C 0.95594 0.8429 0.20223 0.0
C1367 C 0.99058 0.80245 0.18082 0.0
H1368 H 0.02799 0.86308 0.19436 0.0
C1369 C 0.07199 0.81411 0.16129 0.0
C1370 C 0.08545 0.82422 0.18053 0.0
C1371 C 0.05201 0.81345 0.16285 0.0
C1372 C 0.01767 0.84601 0.19069 0.0
H1373 H 0.91896 0.79874 0.15756 0.0
H1374 H 0.95345 0.79636 0.15808 0.0
H1375 H 0.99333 0.86431 0.19506 0.0
H1376 H 0.08847 0.84163 0.21649 0.0
H1377 H 0.0536 0.84113 0.21887 0.0
H1378 H 0.01519 0.78452 0.17537 0.0
C1379 C 0.94892 0.80962 0.1707 0.0
C1380 C 0.99779 0.84662 0.19126 0.0
C1381 C 0.92909 0.81105 0.17028 0.0
C1382 C 0.0785 0.83365 0.20137 0.0
C1383 C 0.05857 0.83346 0.20274 0.0
C1384 C 0.01047 0.80196 0.17978 0.0
C1385 C 0.96266 0.82564 0.18658 0.0
C1386 C 0.98392 0.82484 0.18637 0.0
C1387 C 0.04518 0.82336 0.1835 0.0
C1388 C 0.02416 0.82373 0.18477 0.0
H1389 H 0.93154 0.85837 0.21352 0.0
H1390 H 0.96592 0.85514 0.21514 0.0
H1391 H 0.98047 0.78522 0.17741 0.0
H1392 H 0.07683 0.80657 0.14507 0.0
H1393 H 0.04192 0.80566 0.14776 0.0
C1394 C 0.15106 0.09443 0.19261 0.0
C1395 C 0.13115 0.09513 0.18761 0.0
C1396 C 0.15697 0.07386 0.20159 0.0
C1397 C 0.13897 0.01312 0.22355 0.0
H1398 H 0.17623 0.99046 0.18325 0.0
C1399 C 0.15274 0.91675 0.1754 0.0
C1400 C 0.15265 0.90157 0.19387 0.0
C1401 C 0.15408 0.94216 0.18013 0.0
C1402 C 0.16594 0.99659 0.19481 0.0
H1403 H 0.10185 0.07598 0.1906 0.0
H1404 H 0.1121 0.0401 0.20581 0.0
H1405 H 0.1709 0.03283 0.18395 0.0
H1406 H 0.15417 0.90142 0.23193 0.0
H1407 H 0.15626 0.94608 0.24014 0.0
H1408 H 0.13316 0.97618 0.23313 0.0
C1409 C 0.12322 0.05539 0.20293 0.0
C1410 C 0.16303 0.021 0.19545 0.0
C1411 C 0.11731 0.07599 0.19405 0.0
C1412 C 0.15427 0.91257 0.21728 0.0
C1413 C 0.15539 0.9381 0.222 0.0
C1414 C 0.14191 0.98862 0.22291 0.0
C1415 C 0.1431 0.05355 0.2057 0.0
C1416 C 0.14899 0.02935 0.20916 0.0
C1417 C 0.1552 0.95311 0.20343 0.0
C1418 C 0.15488 0.97991 0.20782 0.0
H1419 H 0.16213 0.10901 0.18814 0.0
H1420 H 0.17241 0.07327 0.20404 0.0
H1421 H 0.12823 0.01905 0.23452 0.0
H1422 H 0.1514 0.90901 0.15716 0.0
H1423 H 0.15354 0.95315 0.1654 0.0
C1424 C 0.917 0.78341 0.85302 0.0
C1425 C 0.90822 0.79033 0.83244 0.0
C1426 C 0.93539 0.77659 0.85306 0.0
C1427 C 0.97895 0.78819 0.85367 0.0
H1428 H 0.00142 0.75655 0.80154 0.0
C1429 C 0.06147 0.80452 0.84655 0.0
C1430 C 0.07013 0.78408 0.83962 0.0
C1431 C 0.04121 0.8026 0.8449 0.0
C1432 C 0.99533 0.76525 0.81634 0.0
H1433 H 0.911 0.79461 0.79555 0.0
H1434 H 0.94334 0.78304 0.79554 0.0
H1435 H 0.96608 0.75457 0.80026 0.0
H1436 H 0.06416 0.74568 0.82502 0.0
H1437 H 0.02881 0.74237 0.82238 0.0
H1438 H 0.00802 0.79883 0.86981 0.0
C1439 C 0.93593 0.7822 0.81154 0.0
C1440 C 0.9751 0.76426 0.81553 0.0
C1441 C 0.91738 0.78872 0.81146 0.0
C1442 C 0.05802 0.76182 0.83054 0.0
C1443 C 0.03773 0.75992 0.8289 0.0
C1444 C 0.99907 0.78917 0.85447 0.0
C1445 C 0.94552 0.77719 0.83263 0.0
C1446 C 0.9667 0.77592 0.83412 0.0
C1447 C 0.02909 0.78021 0.83633 0.0
C1448 C 0.00755 0.77804 0.83569 0.0
H1449 H 0.91023 0.78492 0.86945 0.0
H1450 H 0.94217 0.77232 0.86947 0.0
H1451 H 0.97308 0.7978 0.86813 0.0
H1452 H 0.0703 0.82199 0.85351 0.0
H1453 H 0.03503 0.81873 0.85035 0.0
C1454 C 0.14781 0.88855 0.83268 0.0
C1455 C 0.13308 0.87079 0.82014 0.0
C1456 C 0.15042 0.91301 0.82754 0.0
C1457 C 0.13661 0.95489 0.78407 0.0
H1458 H 0.14394 0.00258 0.83938 0.0
C1459 C 0.11844 0.05304 0.78346 0.0
C1460 C 0.13024 0.07244 0.79808 0.0
C1461 C 0.1218 0.02885 0.78383 0.0
C1462 C 0.14226 0.98961 0.82371 0.0
H1463 H 0.11012 0.86453 0.79159 0.0
H1464 H 0.11438 0.90744 0.78289 0.0
H1465 H 0.14417 0.95941 0.84404 0.0
H1466 H 0.15542 0.08175 0.8237 0.0
H1467 H 0.16131 0.03942 0.8243 0.0
H1468 H 0.13407 0.98523 0.76385 0.0
C1469 C 0.12412 0.90239 0.79652 0.0
C1470 C 0.14239 0.96478 0.82636 0.0
C1471 C 0.12161 0.87778 0.80155 0.0
C1472 C 0.146 0.06722 0.81233 0.0
C1473 C 0.14931 0.04296 0.81276 0.0
C1474 C 0.13641 0.97978 0.78142 0.0
C1475 C 0.13824 0.92042 0.80987 0.0
C1476 C 0.13937 0.94704 0.80662 0.0
C1477 C 0.137 0.02344 0.79886 0.0
C1478 C 0.13901 0.99738 0.80125 0.0
H1479 H 0.15708 0.88369 0.84692 0.0
H1480 H 0.16175 0.92625 0.83779 0.0
H1481 H 0.13451 0.94179 0.76847 0.0
H1482 H 0.10622 0.05639 0.77217 0.0
H1483 H 0.11193 0.01425 0.77307 0.0
C1484 C 0.06507 0.20569 0.76551 0.0
C1485 C 0.07005 0.19503 0.78599 0.0
C1486 C 0.04723 0.21418 0.76279 0.0
C1487 C 0.00785 0.23326 0.79588 0.0
H1488 H 0.97218 0.20143 0.74279 0.0
C1489 C 0.92754 0.23933 0.79646 0.0
C1490 C 0.91554 0.21614 0.79325 0.0
C1491 C 0.94634 0.24232 0.78904 0.0
C1492 C 0.98201 0.21067 0.75758 0.0
H1493 H 0.06101 0.18578 0.82 0.0
H1494 H 0.03038 0.20128 0.81568 0.0
H1495 H 0.00671 0.19758 0.74383 0.0
H1496 H 0.91304 0.17825 0.7785 0.0
H1497 H 0.94597 0.18326 0.76562 0.0
H1498 H 0.98326 0.24517 0.81043 0.0
C1499 C 0.04001 0.203 0.80164 0.0
C1500 C 0.0018 0.20865 0.75806 0.0
C1501 C 0.0575 0.19408 0.80412 0.0
C1502 C 0.92196 0.19641 0.78077 0.0
C1503 C 0.94085 0.19933 0.77346 0.0
C1504 C 0.9882 0.23542 0.79534 0.0
C1505 C 0.03446 0.21265 0.78078 0.0
C1506 C 0.01474 0.2192 0.77765 0.0
C1507 C 0.95358 0.22204 0.77857 0.0
C1508 C 0.97489 0.22348 0.77657 0.0
H1509 H 0.07446 0.20627 0.7512 0.0
H1510 H 0.04324 0.22152 0.74652 0.0
H1511 H 0.01754 0.24163 0.81115 0.0
H1512 H 0.92283 0.25479 0.80605 0.0
H1513 H 0.95562 0.26017 0.79282 0.0
C1514 C 0.85051 0.93739 0.86062 0.0
C1515 C 0.86601 0.92702 0.85185 0.0
C1516 C 0.85129 0.96301 0.86276 0.0
C1517 C 0.88612 0.02156 0.8676 0.0
H1518 H 0.84294 0.04907 0.84068 0.0
C1519 C 0.88545 0.12716 0.86772 0.0
C1520 C 0.87924 0.13419 0.84576 0.0
C1521 C 0.88365 0.10214 0.87131 0.0
C1522 C 0.85508 0.04163 0.84838 0.0
H1523 H 0.89437 0.93558 0.83823 0.0
H1524 H 0.89566 0.97982 0.84208 0.0
H1525 H 0.83963 0.00452 0.84203 0.0
H1526 H 0.86709 0.12024 0.81007 0.0
H1527 H 0.86391 0.07711 0.81647 0.0
H1528 H 0.90175 0.05864 0.87334 0.0
C1529 C 0.88302 0.96826 0.84752 0.0
C1530 C 0.85311 0.01618 0.84933 0.0
C1531 C 0.88216 0.9428 0.84513 0.0
C1532 C 0.87182 0.11566 0.82733 0.0
C1533 C 0.86985 0.09085 0.831 0.0
C1534 C 0.88802 0.04705 0.86687 0.0
C1535 C 0.86768 0.97869 0.85647 0.0
C1536 C 0.86879 0.00583 0.85838 0.0
C1537 C 0.87543 0.0838 0.85309 0.0
C1538 C 0.87269 0.05725 0.85667 0.0
H1539 H 0.83788 0.92576 0.86598 0.0
H1540 H 0.83923 0.9706 0.86966 0.0
H1541 H 0.89838 0.01407 0.8749 0.0
H1542 H 0.89122 0.14092 0.88229 0.0
H1543 H 0.88816 0.09716 0.88851 0.0
C1544 C 0.61601 0.62728 0.36846 0.0
C1545 C 0.60912 0.64645 0.3577 0.0
C1546 C 0.61673 0.62708 0.393 0.0
C1547 C 0.59646 0.64936 0.44635 0.0
H1548 H 0.64753 0.65034 0.47842 0.0
C1549 C 0.61028 0.64226 0.54652 0.0
C1550 C 0.62463 0.66079 0.5588 0.0
C1551 C 0.6078 0.63979 0.52191 0.0
C1552 C 0.63321 0.65007 0.46966 0.0
H1553 H 0.59668 0.67967 0.36391 0.0
H1554 H 0.59722 0.67872 0.40661 0.0
H1555 H 0.64326 0.64546 0.43518 0.0
H1556 H 0.64772 0.69112 0.55482 0.0
H1557 H 0.64366 0.68632 0.51157 0.0
H1558 H 0.58637 0.65373 0.48082 0.0
C1559 C 0.60231 0.6641 0.39615 0.0
C1560 C 0.63073 0.64706 0.445 0.0
C1561 C 0.60201 0.66463 0.37175 0.0
C1562 C 0.6365 0.67674 0.54587 0.0
C1563 C 0.63426 0.67392 0.52117 0.0
C1564 C 0.59885 0.65184 0.47101 0.0
C1565 C 0.61012 0.64569 0.40706 0.0
C1566 C 0.61237 0.64691 0.43314 0.0
C1567 C 0.61984 0.65547 0.509 0.0
C1568 C 0.61729 0.65248 0.48288 0.0
H1569 H 0.62178 0.61321 0.35807 0.0
H1570 H 0.62276 0.61265 0.40105 0.0
H1571 H 0.58217 0.64934 0.43759 0.0
H1572 H 0.60085 0.62971 0.55594 0.0
H1573 H 0.59663 0.62536 0.51293 0.0
C1574 C 0.36646 0.70418 0.61523 0.0
C1575 C 0.35389 0.68497 0.6236 0.0
C1576 C 0.36377 0.7095 0.59186 0.0
C1577 C 0.34283 0.67842 0.53402 0.0
H1578 H 0.35462 0.74382 0.51366 0.0
C1579 C 0.34245 0.69255 0.43542 0.0
C1580 C 0.35905 0.70799 0.42945 0.0
C1581 C 0.3383 0.6921 0.459 0.0
C1582 C 0.3513 0.72543 0.51909 0.0
H1583 H 0.32784 0.65742 0.61452 0.0
H1584 H 0.32303 0.66693 0.57401 0.0
H1585 H 0.35392 0.73901 0.55569 0.0
H1586 H 0.38373 0.73603 0.44341 0.0
H1587 H 0.37665 0.735 0.48428 0.0
H1588 H 0.34078 0.66474 0.4976 0.0
C1589 C 0.33524 0.67749 0.58527 0.0
C1590 C 0.35092 0.72269 0.54315 0.0
C1591 C 0.33797 0.67212 0.60854 0.0
C1592 C 0.37087 0.72378 0.44738 0.0
C1593 C 0.36672 0.72336 0.47086 0.0
C1594 C 0.34321 0.68116 0.51002 0.0
C1595 C 0.3484 0.69577 0.57646 0.0
C1596 C 0.34701 0.69911 0.55091 0.0
C1597 C 0.35063 0.70716 0.47703 0.0
C1598 C 0.34781 0.70465 0.50228 0.0
H1599 H 0.37884 0.71443 0.62641 0.0
H1600 H 0.37426 0.72358 0.58559 0.0
H1601 H 0.34007 0.65995 0.53938 0.0
H1602 H 0.33298 0.68029 0.422 0.0
H1603 H 0.32565 0.67964 0.46317 0.0
C1604 C 0.36 0.3142 0.42198 0.0
C1605 C 0.3667 0.33727 0.41416 0.0
C1606 C 0.35895 0.31181 0.44604 0.0
C1607 C 0.37884 0.34371 0.50453 0.0
H1608 H 0.33494 0.30325 0.5279 0.0
C1609 C 0.36193 0.35708 0.59996 0.0
C1610 C 0.35972 0.33632 0.61272 0.0
C1611 C 0.36208 0.35443 0.57557 0.0
C1612 C 0.34738 0.31434 0.52154 0.0
H1613 H 0.37711 0.37599 0.42556 0.0
H1614 H 0.37491 0.37192 0.46726 0.0
H1615 H 0.33668 0.30428 0.48529 0.0
H1616 H 0.35496 0.29632 0.60947 0.0
H1617 H 0.35493 0.29175 0.56628 0.0
H1618 H 0.38921 0.35438 0.54067 0.0
C1619 C 0.37089 0.35554 0.45489 0.0
C1620 C 0.34841 0.31495 0.4972 0.0
C1621 C 0.37202 0.35792 0.43092 0.0
C1622 C 0.35672 0.31269 0.60021 0.0
C1623 C 0.3567 0.31005 0.57555 0.0
C1624 C 0.37772 0.34324 0.52872 0.0
C1625 C 0.36454 0.33243 0.46279 0.0
C1626 C 0.36397 0.33007 0.48845 0.0
C1627 C 0.35988 0.33098 0.56316 0.0
C1628 C 0.36181 0.32897 0.53747 0.0
H1629 H 0.35578 0.29788 0.40957 0.0
H1630 H 0.35412 0.29373 0.45152 0.0
H1631 H 0.3913 0.355 0.49843 0.0
H1632 H 0.36412 0.3756 0.60882 0.0
H1633 H 0.36421 0.37085 0.56638 0.0
C1634 C 0.60996 0.27627 0.41124 0.0
C1635 C 0.62154 0.26412 0.39663 0.0
C1636 C 0.60987 0.27274 0.43505 0.0
C1637 C 0.60741 0.25699 0.48416 0.0
H1638 H 0.65946 0.26927 0.51615 0.0
C1639 C 0.62073 0.28032 0.58526 0.0
C1640 C 0.63436 0.30198 0.5918 0.0
C1641 C 0.61923 0.2685 0.56231 0.0
C1642 C 0.64482 0.26558 0.50748 0.0
H1643 H 0.64141 0.23783 0.39526 0.0
H1644 H 0.64146 0.23188 0.43732 0.0
H1645 H 0.65516 0.26056 0.47332 0.0
H1646 H 0.65774 0.32753 0.57977 0.0
H1647 H 0.6551 0.30706 0.54 0.0
H1648 H 0.59716 0.26354 0.51818 0.0
C1649 C 0.63243 0.24409 0.43016 0.0
C1650 C 0.64234 0.26033 0.48297 0.0
C1651 C 0.63232 0.24739 0.40612 0.0
C1652 C 0.64699 0.31096 0.57528 0.0
C1653 C 0.64561 0.29907 0.55251 0.0
C1654 C 0.60989 0.26215 0.50869 0.0
C1655 C 0.62149 0.25715 0.44496 0.0
C1656 C 0.62367 0.25698 0.47097 0.0
C1657 C 0.63151 0.27796 0.5456 0.0
C1658 C 0.62867 0.26748 0.5205 0.0
H1659 H 0.60139 0.28916 0.40441 0.0
H1660 H 0.60148 0.28333 0.44598 0.0
H1661 H 0.59283 0.2542 0.4754 0.0
H1662 H 0.61084 0.2729 0.59762 0.0
H1663 H 0.60829 0.25219 0.55751 0.0
C1664 C 0.56508 0.68231 0.63326 0.0
C1665 C 0.57362 0.6613 0.63625 0.0
C1666 C 0.54559 0.68239 0.63744 0.0
C1667 C 0.50846 0.68286 0.6621 0.0
H1668 H 0.46949 0.62409 0.64586 0.0
C1669 C 0.43296 0.67214 0.69877 0.0
C1670 C 0.41667 0.66006 0.68384 0.0
C1671 C 0.45181 0.67271 0.69182 0.0
C1672 C 0.48012 0.64077 0.6503 0.0
H1673 H 0.56804 0.62369 0.64549 0.0
H1674 H 0.53433 0.62404 0.6532 0.0
H1675 H 0.50255 0.6244 0.63476 0.0
H1676 H 0.40755 0.63931 0.64969 0.0
H1677 H 0.44038 0.64068 0.63746 0.0
H1678 H 0.48593 0.69939 0.67724 0.0
C1679 C 0.5426 0.64037 0.64733 0.0
C1680 C 0.49917 0.64084 0.64419 0.0
C1681 C 0.56205 0.64025 0.64308 0.0
C1682 C 0.41973 0.64867 0.66172 0.0
C1683 C 0.43859 0.64935 0.65473 0.0
C1684 C 0.48939 0.68282 0.66814 0.0
C1685 C 0.53414 0.66148 0.64473 0.0
C1686 C 0.51363 0.66181 0.6502 0.0
C1687 C 0.45488 0.66133 0.66972 0.0
C1688 C 0.47501 0.6617 0.66251 0.0
H1689 H 0.57348 0.69881 0.62785 0.0
H1690 H 0.53947 0.69884 0.6349 0.0
H1691 H 0.51924 0.69926 0.66723 0.0
H1692 H 0.43121 0.68103 0.71598 0.0
H1693 H 0.464 0.68176 0.70398 0.0
C1694 C 0.37616 0.60522 0.76478 0.0
C1695 C 0.36441 0.60305 0.74338 0.0
C1696 C 0.378 0.58429 0.77637 0.0
C1697 C 0.35618 0.51816 0.77704 0.0
H1698 H 0.40964 0.50761 0.78579 0.0
C1699 C 0.39698 0.43821 0.74627 0.0
C1700 C 0.38332 0.41783 0.75047 0.0
C1701 C 0.397 0.46133 0.75817 0.0
C1702 C 0.39461 0.51031 0.78382 0.0
H1703 H 0.34465 0.57738 0.71814 0.0
H1704 H 0.34774 0.54138 0.73816 0.0
H1705 H 0.40295 0.54903 0.78173 0.0
H1706 H 0.3603 0.40492 0.7721 0.0
H1707 H 0.3603 0.44557 0.79313 0.0
H1708 H 0.34781 0.47926 0.77672 0.0
C1709 C 0.35548 0.5591 0.74617 0.0
C1710 C 0.39077 0.53412 0.7817 0.0
C1711 C 0.35386 0.57981 0.7345 0.0
C1712 C 0.37101 0.42038 0.76859 0.0
C1713 C 0.37092 0.44368 0.78046 0.0
C1714 C 0.36 0.49438 0.77902 0.0
C1715 C 0.36784 0.56095 0.76698 0.0
C1716 C 0.37156 0.53799 0.77678 0.0
C1717 C 0.38322 0.46464 0.77444 0.0
C1718 C 0.37931 0.48997 0.78089 0.0
H1719 H 0.38451 0.62288 0.77207 0.0
H1720 H 0.38767 0.58625 0.79236 0.0
H1721 H 0.34119 0.52069 0.77378 0.0
H1722 H 0.40667 0.43668 0.73241 0.0
H1723 H 0.4066 0.47692 0.75284 0.0
C1724 C 0.57925 0.35837 0.65324 0.0
C1725 C 0.58779 0.34148 0.66575 0.0
C1726 C 0.55934 0.35916 0.65365 0.0
C1727 C 0.5124 0.32291 0.6632 0.0
H1728 H 0.49747 0.38564 0.68293 0.0
C1729 C 0.43427 0.32877 0.68652 0.0
C1730 C 0.42617 0.34943 0.68098 0.0
C1731 C 0.45396 0.32805 0.68418 0.0
C1732 C 0.50127 0.36803 0.67699 0.0
H1733 H 0.58192 0.31165 0.68785 0.0
H1734 H 0.54713 0.31263 0.688 0.0
H1735 H 0.53161 0.38351 0.67813 0.0
H1736 H 0.4325 0.38555 0.66845 0.0
H1737 H 0.4666 0.38396 0.66355 0.0
H1738 H 0.48218 0.30738 0.66145 0.0
C1739 C 0.55591 0.32538 0.67807 0.0
C1740 C 0.52087 0.36684 0.67432 0.0
C1741 C 0.57585 0.32488 0.67803 0.0
C1742 C 0.43828 0.36942 0.6731 0.0
C1743 C 0.45792 0.36854 0.67039 0.0
C1744 C 0.49277 0.32414 0.66549 0.0
C1745 C 0.54752 0.34276 0.6662 0.0
C1746 C 0.52663 0.34423 0.66764 0.0
C1747 C 0.46604 0.34781 0.67582 0.0
C1748 C 0.48693 0.34667 0.67268 0.0
H1749 H 0.58804 0.37149 0.6437 0.0
H1750 H 0.55318 0.37264 0.64425 0.0
H1751 H 0.51646 0.30528 0.65781 0.0
H1752 H 0.42541 0.31308 0.69271 0.0
H1753 H 0.4597 0.312 0.68907 0.0
C1754 C 0.64543 0.59403 0.69387 0.0
C1755 C 0.62538 0.59329 0.68824 0.0
C1756 C 0.65195 0.57577 0.70617 0.0
C1757 C 0.63615 0.52031 0.7374 0.0
H1758 H 0.67227 0.49231 0.69907 0.0
C1759 C 0.63632 0.41672 0.72062 0.0
C1760 C 0.65298 0.40862 0.71282 0.0
C1761 C 0.63664 0.44177 0.72714 0.0
C1762 C 0.66264 0.50001 0.71058 0.0
H1763 H 0.59646 0.57432 0.69334 0.0
H1764 H 0.60782 0.54235 0.71444 0.0
H1765 H 0.66601 0.53318 0.69383 0.0
H1766 H 0.68338 0.4194 0.70739 0.0
H1767 H 0.6844 0.46301 0.7201 0.0
H1768 H 0.63223 0.48648 0.75347 0.0
C1769 C 0.61853 0.55704 0.70946 0.0
C1770 C 0.65901 0.52361 0.70749 0.0
C1771 C 0.612 0.57534 0.6972 0.0
C1772 C 0.67043 0.42537 0.71361 0.0
C1773 C 0.67088 0.45034 0.72057 0.0
C1774 C 0.63991 0.49665 0.74064 0.0
C1775 C 0.63857 0.55639 0.71307 0.0
C1776 C 0.64521 0.53372 0.72024 0.0
C1777 C 0.6537 0.45907 0.72606 0.0
C1778 C 0.65268 0.48585 0.72663 0.0
H1779 H 0.65615 0.6078 0.68753 0.0
H1780 H 0.66749 0.57603 0.7091 0.0
H1781 H 0.62561 0.52774 0.7477 0.0
H1782 H 0.62263 0.40403 0.71967 0.0
H1783 H 0.62306 0.44769 0.73101 0.0
C1784 C 0.42559 0.30057 0.35919 0.0
C1785 C 0.41206 0.29995 0.33971 0.0
C1786 C 0.44378 0.29412 0.35614 0.0
C1787 C 0.4749 0.26778 0.31409 0.0
H1788 H 0.51495 0.31756 0.34881 0.0
C1789 C 0.55791 0.26342 0.31999 0.0
C1790 C 0.57088 0.28589 0.32077 0.0
C1791 C 0.53781 0.26306 0.31973 0.0
C1792 C 0.50399 0.30363 0.33878 0.0
H1793 H 0.40625 0.2906 0.302 0.0
H1794 H 0.43842 0.27967 0.29649 0.0
H1795 H 0.48099 0.31872 0.35403 0.0
H1796 H 0.57269 0.32543 0.32033 0.0
H1797 H 0.53778 0.32471 0.31944 0.0
H1798 H 0.49822 0.25308 0.29848 0.0
C1799 C 0.43483 0.28477 0.31418 0.0
C1800 C 0.48448 0.30404 0.34208 0.0
C1801 C 0.41642 0.29093 0.31731 0.0
C1802 C 0.56321 0.30781 0.31999 0.0
C1803 C 0.54316 0.30742 0.31962 0.0
C1804 C 0.49457 0.26734 0.31079 0.0
C1805 C 0.44899 0.28739 0.33347 0.0
C1806 C 0.46968 0.28608 0.3299 0.0
C1807 C 0.53027 0.28515 0.32018 0.0
C1808 C 0.50931 0.28537 0.32306 0.0
H1809 H 0.42249 0.30737 0.37665 0.0
H1810 H 0.45417 0.2957 0.37144 0.0
H1811 H 0.46382 0.25371 0.30444 0.0
H1812 H 0.5633 0.24616 0.32047 0.0
H1813 H 0.52827 0.24562 0.32026 0.0
C1814 C 0.65619 0.38933 0.31509 0.0
C1815 C 0.63772 0.37786 0.30458 0.0
C1816 C 0.66348 0.41378 0.31176 0.0
C1817 C 0.66009 0.46405 0.27543 0.0
H1818 H 0.66162 0.50616 0.33379 0.0
C1819 C 0.64401 0.56181 0.27636 0.0
C1820 C 0.65029 0.57943 0.29583 0.0
C1821 C 0.64875 0.53828 0.2759 0.0
C1822 C 0.66189 0.4949 0.31736 0.0
H1823 H 0.61319 0.38219 0.28083 0.0
H1824 H 0.62635 0.42459 0.27424 0.0
H1825 H 0.65879 0.46182 0.33466 0.0
H1826 H 0.66798 0.58673 0.32923 0.0
H1827 H 0.67695 0.54571 0.32809 0.0
H1828 H 0.66319 0.49688 0.25799 0.0
C1829 C 0.63497 0.41478 0.28535 0.0
C1830 C 0.66015 0.46941 0.3179 0.0
C1831 C 0.62744 0.39058 0.28916 0.0
C1832 C 0.66275 0.57352 0.31406 0.0
C1833 C 0.66773 0.54989 0.31348 0.0
C1834 C 0.6623 0.48959 0.2749 0.0
C1835 C 0.6527 0.42685 0.2973 0.0
C1836 C 0.6585 0.45374 0.29688 0.0
C1837 C 0.66022 0.53167 0.29474 0.0
C1838 C 0.66233 0.50531 0.29576 0.0
H1839 H 0.66445 0.38004 0.32714 0.0
H1840 H 0.67719 0.42276 0.32114 0.0
H1841 H 0.65901 0.45229 0.25901 0.0
H1842 H 0.63456 0.56574 0.26182 0.0
H1843 H 0.64239 0.52491 0.26128 0.0
C1844 C 0.55416 0.66337 0.26432 0.0
C1845 C 0.56994 0.68069 0.27531 0.0
C1846 C 0.53555 0.66935 0.26154 0.0
C1847 C 0.50721 0.72125 0.26863 0.0
H1848 H 0.46658 0.66848 0.28125 0.0
C1849 C 0.43704 0.73402 0.31154 0.0
C1850 C 0.41987 0.71706 0.30458 0.0
C1851 C 0.45414 0.73198 0.30087 0.0
C1852 C 0.47763 0.68329 0.27716 0.0
H1853 H 0.57857 0.71832 0.29132 0.0
H1854 H 0.54585 0.72844 0.28769 0.0
H1855 H 0.49919 0.66016 0.27688 0.0
H1856 H 0.40666 0.68578 0.27992 0.0
H1857 H 0.4368 0.68189 0.26139 0.0
H1858 H 0.48556 0.74468 0.27066 0.0
C1859 C 0.54795 0.71037 0.28048 0.0
C1860 C 0.49643 0.67855 0.27461 0.0
C1861 C 0.56675 0.70453 0.28273 0.0
C1862 C 0.4197 0.69913 0.28553 0.0
C1863 C 0.43695 0.69683 0.27507 0.0
C1864 C 0.48838 0.72607 0.27153 0.0
C1865 C 0.532 0.69263 0.27034 0.0
C1866 C 0.5116 0.69752 0.27069 0.0
C1867 C 0.45448 0.71271 0.28324 0.0
C1868 C 0.47349 0.7072 0.27621 0.0
H1869 H 0.556 0.64487 0.25828 0.0
H1870 H 0.52383 0.6554 0.25301 0.0
H1871 H 0.51837 0.73624 0.26521 0.0
H1872 H 0.43748 0.74815 0.32604 0.0
H1873 H 0.46741 0.74441 0.30765 0.0
C1874 C 0.34607 0.43973 0.35062 0.0
C1875 C 0.36319 0.43127 0.35803 0.0
C1876 C 0.34588 0.4651 0.35108 0.0
C1877 C 0.36988 0.52559 0.37907 0.0
H1878 H 0.35689 0.5504 0.31973 0.0
C1879 C 0.38679 0.62964 0.36741 0.0
C1880 C 0.374 0.63926 0.35209 0.0
C1881 C 0.38466 0.60418 0.36888 0.0
C1882 C 0.3602 0.5439 0.33661 0.0
H1883 H 0.3932 0.44256 0.3727 0.0
H1884 H 0.39264 0.48661 0.37407 0.0
H1885 H 0.3531 0.50612 0.32194 0.0
H1886 H 0.34884 0.62945 0.32638 0.0
H1887 H 0.34455 0.58573 0.3298 0.0
H1888 H 0.37664 0.56316 0.394 0.0
C1889 C 0.3795 0.47375 0.36764 0.0
C1890 C 0.35805 0.51847 0.3378 0.0
C1891 C 0.37983 0.44854 0.36669 0.0
C1892 C 0.359 0.62283 0.3384 0.0
C1893 C 0.35665 0.59755 0.34018 0.0
C1894 C 0.37169 0.55103 0.37803 0.0
C1895 C 0.36264 0.48229 0.35954 0.0
C1896 C 0.36309 0.5091 0.35895 0.0
C1897 C 0.36949 0.58777 0.35532 0.0
C1898 C 0.36709 0.56059 0.3567 0.0
H1899 H 0.33308 0.42679 0.34384 0.0
H1900 H 0.33269 0.47131 0.34476 0.0
H1901 H 0.37379 0.51876 0.39563 0.0
H1902 H 0.3986 0.64172 0.37809 0.0
H1903 H 0.39509 0.59741 0.38043 0.0
loop_
_geom_bond_atom_site_label_1
_geom_bond_atom_site_label_2
_geom_bond_distance
_geom_bond_site_symmetry_2
_ccdc_geom_bond_type
Co0 O2 2.143 . S
Co0 O8 2.074 . S
Co0 O11 2.093 . S
Co0 O24 2.097 . S
Co0 N41 2.151 . S
Co0 N49 2.214 . S
Co1 O2 2.160 . S
Co1 O7 2.058 . S
Co1 O17 2.057 . S
Co1 O32 2.037 . S
Co1 N36 2.145 . S
Co1 N57 2.257 . S
O2 Co0 2.143 . S
O2 Co1 2.160 . S
C3 O4 1.278 . S
C3 O11 1.224 . S
O4 C3 1.278 . S
C5 O6 1.245 . S
C5 O17 1.232 . S
O6 C5 1.245 . S
O7 Co1 2.058 . S
O7 C33 1.269 . S
O8 Co0 2.074 . S
O8 C33 1.257 . S
H9 C34 0.930 . S
H10 C40 0.930 . S
O11 Co0 2.093 . S
O11 C3 1.224 . S
H12 C44 0.929 . S
H13 C46 0.930 . S
H14 C47 0.930 . S
H15 C45 0.929 . S
H16 C48 0.928 . S
O17 Co1 2.057 . S
O17 C5 1.232 . S
H18 C37 0.929 . S
H19 C38 0.929 . S
H20 C50 0.931 . S
H21 C42 0.929 . S
H22 C51 0.930 . S
H23 C43 0.931 . S
O24 Co0 2.097 . S
O24 C52 1.214 . S
H25 C53 0.929 . S
H26 C54 0.929 . S
H27 C55 0.930 . S
H28 C56 0.929 . S
H29 C58 0.930 . S
H30 C35 0.930 . S
H31 C39 0.930 . S
O32 Co1 2.037 . S
O32 C52 1.234 . S
C33 O7 1.269 . S
C33 O8 1.257 . S
C34 H9 0.930 . S
C34 C37 1.388 . S
C34 C39 1.418 . S
C35 H30 0.930 . S
C35 C38 1.404 . S
C35 C39 1.353 . S
N36 Co1 2.145 . S
N36 C37 1.397 . S
N36 C38 1.334 . S
C37 H18 0.929 . S
C37 C34 1.388 . S
C37 N36 1.397 . S
C38 H19 0.929 . S
C38 C35 1.404 . S
C38 N36 1.334 . S
C39 H31 0.930 . S
C39 C34 1.418 . S
C39 C35 1.353 . S
C40 H10 0.930 . S
C40 N41 1.330 . S
C40 C42 1.446 . S
N41 Co0 2.151 . S
N41 C40 1.330 . S
N41 C45 1.418 . S
C42 H21 0.929 . S
C42 C40 1.446 . S
C42 C43 1.332 . S
C43 H23 0.931 . S
C43 C42 1.332 . S
C43 C44 1.267 . S
C44 H12 0.929 . S
C44 C43 1.267 . S
C44 C45 1.251 . S
C45 H15 0.929 . S
C45 N41 1.418 . S
C45 C44 1.251 . S
C46 H13 0.930 . S
C46 C48 1.406 . S
C46 C51 1.261 . S
C47 H14 0.930 . S
C47 N49 1.325 . S
C47 C50 1.357 . S
C48 H16 0.928 . S
C48 C46 1.406 . S
C48 N49 1.261 . S
N49 Co0 2.214 . S
N49 C47 1.325 . S
N49 C48 1.261 . S
C50 H20 0.931 . S
C50 C47 1.357 . S
C50 C51 1.312 . S
C51 H22 0.930 . S
C51 C46 1.261 . S
C51 C50 1.312 . S
C52 O24 1.214 . S
C52 O32 1.234 . S
C53 H25 0.929 . S
C53 C56 1.391 . S
C53 C58 1.391 . S
C54 H26 0.929 . S
C54 C55 1.390 . S
C54 N57 1.391 . S
C55 H27 0.930 . S
C55 C54 1.390 . S
C55 C56 1.392 . S
C56 H28 0.929 . S
C56 C53 1.391 . S
C56 C55 1.392 . S
N57 Co1 2.257 . S
N57 C54 1.391 . S
N57 C58 1.388 . S
C58 H29 0.930 . S
C58 C53 1.391 . S
C58 N57 1.388 . S
Co59 O61 2.143 . S
Co59 O67 2.074 . S
Co59 O70 2.093 . S
Co59 O83 2.097 . S
Co59 N100 2.151 . S
Co59 N108 2.214 . S
Co60 O61 2.160 . S
Co60 O66 2.058 . S
Co60 O76 2.057 . S
Co60 O91 2.037 . S
Co60 N95 2.145 . S
Co60 N116 2.257 . S
O61 Co59 2.143 . S
O61 Co60 2.160 . S
C62 O63 1.278 . S
C62 O70 1.224 . S
O63 C62 1.278 . S
C64 O65 1.245 . S
C64 O76 1.232 . S
O65 C64 1.245 . S
O66 Co60 2.058 . S
O66 C92 1.269 . S
O67 Co59 2.074 . S
O67 C92 1.257 . S
H68 C93 0.930 . S
H69 C99 0.930 . S
O70 Co59 2.093 . S
O70 C62 1.224 . S
H71 C103 0.929 . S
H72 C105 0.930 . S
H73 C106 0.930 . S
H74 C104 0.929 . S
H75 C107 0.928 . S
O76 Co60 2.057 . S
O76 C64 1.232 . S
H77 C96 0.929 . S
H78 C97 0.929 . S
H79 C109 0.931 . S
H80 C101 0.929 . S
H81 C110 0.930 . S
H82 C102 0.931 . S
O83 Co59 2.097 . S
O83 C111 1.214 . S
H84 C112 0.929 . S
H85 C113 0.929 . S
H86 C114 0.930 . S
H87 C115 0.929 . S
H88 C117 0.930 . S
H89 C94 0.930 . S
H90 C98 0.930 . S
O91 Co60 2.037 . S
O91 C111 1.234 . S
C92 O66 1.269 . S
C92 O67 1.257 . S
C93 H68 0.930 . S
C93 C96 1.388 . S
C93 C98 1.418 . S
C94 H89 0.930 . S
C94 C97 1.404 . S
C94 C98 1.353 . S
N95 Co60 2.145 . S
N95 C96 1.397 . S
N95 C97 1.334 . S
C96 H77 0.929 . S
C96 C93 1.388 . S
C96 N95 1.397 . S
C97 H78 0.929 . S
C97 C94 1.404 . S
C97 N95 1.334 . S
C98 H90 0.930 . S
C98 C93 1.418 . S
C98 C94 1.353 . S
C99 H69 0.930 . S
C99 N100 1.330 . S
C99 C101 1.446 . S
N100 Co59 2.151 . S
N100 C99 1.330 . S
N100 C104 1.418 . S
C101 H80 0.929 . S
C101 C99 1.446 . S
C101 C102 1.332 . S
C102 H82 0.931 . S
C102 C101 1.332 . S
C102 C103 1.267 . S
C103 H71 0.929 . S
C103 C102 1.267 . S
C103 C104 1.251 . S
C104 H74 0.929 . S
C104 N100 1.418 . S
C104 C103 1.251 . S
C105 H72 0.930 . S
C105 C107 1.406 . S
C105 C110 1.261 . S
C106 H73 0.930 . S
C106 N108 1.325 . S
C106 C109 1.357 . S
C107 H75 0.928 . S
C107 C105 1.406 . S
C107 N108 1.261 . S
N108 Co59 2.214 . S
N108 C106 1.325 . S
N108 C107 1.261 . S
C109 H79 0.931 . S
C109 C106 1.357 . S
C109 C110 1.312 . S
C110 H81 0.930 . S
C110 C105 1.261 . S
C110 C109 1.312 . S
C111 O83 1.214 . S
C111 O91 1.234 . S
C112 H84 0.929 . S
C112 C115 1.391 . S
C112 C117 1.391 . S
C113 H85 0.929 . S
C113 C114 1.390 . S
C113 N116 1.391 . S
C114 H86 0.930 . S
C114 C113 1.390 . S
C114 C115 1.392 . S
C115 H87 0.929 . S
C115 C112 1.391 . S
C115 C114 1.392 . S
N116 Co60 2.257 . S
N116 C113 1.391 . S
N116 C117 1.388 . S
C117 H88 0.930 . S
C117 C112 1.391 . S
C117 N116 1.388 . S
Co118 O120 2.143 . S
Co118 O126 2.074 . S
Co118 O129 2.093 . S
Co118 O142 2.097 . S
Co118 N159 2.151 . S
Co118 N167 2.214 . S
Co119 O120 2.160 . S
Co119 O125 2.058 . S
Co119 O135 2.057 . S
Co119 O150 2.037 . S
Co119 N154 2.145 . S
Co119 N175 2.257 . S
O120 Co118 2.143 . S
O120 Co119 2.160 . S
C121 O122 1.278 . S
C121 O129 1.224 . S
O122 C121 1.278 . S
C123 O124 1.245 . S
C123 O135 1.232 . S
O124 C123 1.245 . S
O125 Co119 2.058 . S
O125 C151 1.269 . S
O126 Co118 2.074 . S
O126 C151 1.257 . S
H127 C152 0.930 . S
H128 C158 0.930 . S
O129 Co118 2.093 . S
O129 C121 1.224 . S
H130 C162 0.929 . S
H131 C164 0.930 . S
H132 C165 0.930 . S
H133 C163 0.929 . S
H134 C166 0.928 . S
O135 Co119 2.057 . S
O135 C123 1.232 . S
H136 C155 0.929 . S
H137 C156 0.929 . S
H138 C168 0.931 . S
H139 C160 0.929 . S
H140 C169 0.930 . S
H141 C161 0.931 . S
O142 Co118 2.097 . S
O142 C170 1.214 . S
H143 C171 0.929 . S
H144 C172 0.929 . S
H145 C173 0.930 . S
H146 C174 0.929 . S
H147 C176 0.930 . S
H148 C153 0.930 . S
H149 C157 0.930 . S
O150 Co119 2.037 . S
O150 C170 1.234 . S
C151 O125 1.269 . S
C151 O126 1.257 . S
C152 H127 0.930 . S
C152 C155 1.388 . S
C152 C157 1.418 . S
C153 H148 0.930 . S
C153 C156 1.404 . S
C153 C157 1.353 . S
N154 Co119 2.145 . S
N154 C155 1.397 . S
N154 C156 1.334 . S
C155 H136 0.929 . S
C155 C152 1.388 . S
C155 N154 1.397 . S
C156 H137 0.929 . S
C156 C153 1.404 . S
C156 N154 1.334 . S
C157 H149 0.930 . S
C157 C152 1.418 . S
C157 C153 1.353 . S
C158 H128 0.930 . S
C158 N159 1.330 . S
C158 C160 1.446 . S
N159 Co118 2.151 . S
N159 C158 1.330 . S
N159 C163 1.418 . S
C160 H139 0.929 . S
C160 C158 1.446 . S
C160 C161 1.332 . S
C161 H141 0.931 . S
C161 C160 1.332 . S
C161 C162 1.267 . S
C162 H130 0.929 . S
C162 C161 1.267 . S
C162 C163 1.251 . S
C163 H133 0.929 . S
C163 N159 1.418 . S
C163 C162 1.251 . S
C164 H131 0.930 . S
C164 C166 1.406 . S
C164 C169 1.261 . S
C165 H132 0.930 . S
C165 N167 1.325 . S
C165 C168 1.357 . S
C166 H134 0.928 . S
C166 C164 1.406 . S
C166 N167 1.261 . S
N167 Co118 2.214 . S
N167 C165 1.325 . S
N167 C166 1.261 . S
C168 H138 0.931 . S
C168 C165 1.357 . S
C168 C169 1.312 . S
C169 H140 0.930 . S
C169 C164 1.261 . S
C169 C168 1.312 . S
C170 O142 1.214 . S
C170 O150 1.234 . S
C171 H143 0.929 . S
C171 C174 1.391 . S
C171 C176 1.391 . S
C172 H144 0.929 . S
C172 C173 1.390 . S
C172 N175 1.391 . S
C173 H145 0.930 . S
C173 C172 1.390 . S
C173 C174 1.392 . S
C174 H146 0.929 . S
C174 C171 1.391 . S
C174 C173 1.392 . S
N175 Co119 2.257 . S
N175 C172 1.391 . S
N175 C176 1.388 . S
C176 H147 0.930 . S
C176 C171 1.391 . S
C176 N175 1.388 . S
Co177 O179 2.143 . S
Co177 O185 2.074 . S
Co177 O188 2.093 . S
Co177 O201 2.097 . S
Co177 N218 2.151 . S
Co177 N226 2.214 . S
Co178 O179 2.160 . S
Co178 O184 2.058 . S
Co178 O194 2.057 . S
Co178 O209 2.037 . S
Co178 N213 2.145 . S
Co178 N234 2.257 . S
O179 Co177 2.143 . S
O179 Co178 2.160 . S
C180 O181 1.278 . S
C180 O188 1.224 . S
O181 C180 1.278 . S
C182 O183 1.245 . S
C182 O194 1.232 . S
O183 C182 1.245 . S
O184 Co178 2.058 . S
O184 C210 1.269 . S
O185 Co177 2.074 . S
O185 C210 1.257 . S
H186 C211 0.930 . S
H187 C217 0.930 . S
O188 Co177 2.093 . S
O188 C180 1.224 . S
H189 C221 0.929 . S
H190 C223 0.930 . S
H191 C224 0.930 . S
H192 C222 0.929 . S
H193 C225 0.928 . S
O194 Co178 2.057 . S
O194 C182 1.232 . S
H195 C214 0.929 . S
H196 C215 0.929 . S
H197 C227 0.931 . S
H198 C219 0.929 . S
H199 C228 0.930 . S
H200 C220 0.931 . S
O201 Co177 2.097 . S
O201 C229 1.214 . S
H202 C230 0.929 . S
H203 C231 0.929 . S
H204 C232 0.930 . S
H205 C233 0.929 . S
H206 C235 0.930 . S
H207 C212 0.930 . S
H208 C216 0.930 . S
O209 Co178 2.037 . S
O209 C229 1.234 . S
C210 O184 1.269 . S
C210 O185 1.257 . S
C211 H186 0.930 . S
C211 C214 1.388 . S
C211 C216 1.418 . S
C212 H207 0.930 . S
C212 C215 1.404 . S
C212 C216 1.353 . S
N213 Co178 2.145 . S
N213 C214 1.397 . S
N213 C215 1.334 . S
C214 H195 0.929 . S
C214 C211 1.388 . S
C214 N213 1.397 . S
C215 H196 0.929 . S
C215 C212 1.404 . S
C215 N213 1.334 . S
C216 H208 0.930 . S
C216 C211 1.418 . S
C216 C212 1.353 . S
C217 H187 0.930 . S
C217 N218 1.330 . S
C217 C219 1.446 . S
N218 Co177 2.151 . S
N218 C217 1.330 . S
N218 C222 1.418 . S
C219 H198 0.929 . S
C219 C217 1.446 . S
C219 C220 1.332 . S
C220 H200 0.931 . S
C220 C219 1.332 . S
C220 C221 1.267 . S
C221 H189 0.929 . S
C221 C220 1.267 . S
C221 C222 1.251 . S
C222 H192 0.929 . S
C222 N218 1.418 . S
C222 C221 1.251 . S
C223 H190 0.930 . S
C223 C225 1.406 . S
C223 C228 1.261 . S
C224 H191 0.930 . S
C224 N226 1.325 . S
C224 C227 1.357 . S
C225 H193 0.928 . S
C225 C223 1.406 . S
C225 N226 1.261 . S
N226 Co177 2.214 . S
N226 C224 1.325 . S
N226 C225 1.261 . S
C227 H197 0.931 . S
C227 C224 1.357 . S
C227 C228 1.312 . S
C228 H199 0.930 . S
C228 C223 1.261 . S
C228 C227 1.312 . S
C229 O201 1.214 . S
C229 O209 1.234 . S
C230 H202 0.929 . S
C230 C233 1.391 . S
C230 C235 1.391 . S
C231 H203 0.929 . S
C231 C232 1.390 . S
C231 N234 1.391 . S
C232 H204 0.930 . S
C232 C231 1.390 . S
C232 C233 1.392 . S
C233 H205 0.929 . S
C233 C230 1.391 . S
C233 C232 1.392 . S
N234 Co178 2.257 . S
N234 C231 1.391 . S
N234 C235 1.388 . S
C235 H206 0.930 . S
C235 C230 1.391 . S
C235 N234 1.388 . S
Co236 O238 2.143 . S
Co236 O244 2.074 . S
Co236 O247 2.093 . S
Co236 O260 2.097 . S
Co236 N277 2.151 . S
Co236 N285 2.214 . S
Co237 O238 2.160 . S
Co237 O243 2.058 . S
Co237 O253 2.057 . S
Co237 O268 2.037 . S
Co237 N272 2.145 . S
Co237 N293 2.257 . S
O238 Co236 2.143 . S
O238 Co237 2.160 . S
C239 O240 1.278 . S
C239 O247 1.224 . S
O240 C239 1.278 . S
C241 O242 1.245 . S
C241 O253 1.232 . S
O242 C241 1.245 . S
O243 Co237 2.058 . S
O243 C269 1.269 . S
O244 Co236 2.074 . S
O244 C269 1.257 . S
H245 C270 0.930 . S
H246 C276 0.930 . S
O247 Co236 2.093 . S
O247 C239 1.224 . S
H248 C280 0.929 . S
H249 C282 0.930 . S
H250 C283 0.930 . S
H251 C281 0.929 . S
H252 C284 0.928 . S
O253 Co237 2.057 . S
O253 C241 1.232 . S
H254 C273 0.929 . S
H255 C274 0.929 . S
H256 C286 0.931 . S
H257 C278 0.929 . S
H258 C287 0.930 . S
H259 C279 0.931 . S
O260 Co236 2.097 . S
O260 C288 1.214 . S
H261 C289 0.929 . S
H262 C290 0.929 . S
H263 C291 0.930 . S
H264 C292 0.929 . S
H265 C294 0.930 . S
H266 C271 0.930 . S
H267 C275 0.930 . S
O268 Co237 2.037 . S
O268 C288 1.234 . S
C269 O243 1.269 . S
C269 O244 1.257 . S
C270 H245 0.930 . S
C270 C273 1.388 . S
C270 C275 1.418 . S
C271 H266 0.930 . S
C271 C274 1.404 . S
C271 C275 1.353 . S
N272 Co237 2.145 . S
N272 C273 1.397 . S
N272 C274 1.334 . S
C273 H254 0.929 . S
C273 C270 1.388 . S
C273 N272 1.397 . S
C274 H255 0.929 . S
C274 C271 1.404 . S
C274 N272 1.334 . S
C275 H267 0.930 . S
C275 C270 1.418 . S
C275 C271 1.353 . S
C276 H246 0.930 . S
C276 N277 1.330 . S
C276 C278 1.446 . S
N277 Co236 2.151 . S
N277 C276 1.330 . S
N277 C281 1.418 . S
C278 H257 0.929 . S
C278 C276 1.446 . S
C278 C279 1.332 . S
C279 H259 0.931 . S
C279 C278 1.332 . S
C279 C280 1.267 . S
C280 H248 0.929 . S
C280 C279 1.267 . S
C280 C281 1.251 . S
C281 H251 0.929 . S
C281 N277 1.418 . S
C281 C280 1.251 . S
C282 H249 0.930 . S
C282 C284 1.406 . S
C282 C287 1.261 . S
C283 H250 0.930 . S
C283 N285 1.325 . S
C283 C286 1.357 . S
C284 H252 0.928 . S
C284 C282 1.406 . S
C284 N285 1.261 . S
N285 Co236 2.214 . S
N285 C283 1.325 . S
N285 C284 1.261 . S
C286 H256 0.931 . S
C286 C283 1.357 . S
C286 C287 1.312 . S
C287 H258 0.930 . S
C287 C282 1.261 . S
C287 C286 1.312 . S
C288 O260 1.214 . S
C288 O268 1.234 . S
C289 H261 0.929 . S
C289 C292 1.391 . S
C289 C294 1.391 . S
C290 H262 0.929 . S
C290 C291 1.390 . S
C290 N293 1.391 . S
C291 H263 0.930 . S
C291 C290 1.390 . S
C291 C292 1.392 . S
C292 H264 0.929 . S
C292 C289 1.391 . S
C292 C291 1.392 . S
N293 Co237 2.257 . S
N293 C290 1.391 . S
N293 C294 1.388 . S
C294 H265 0.930 . S
C294 C289 1.391 . S
C294 N293 1.388 . S
Co295 O297 2.143 . S
Co295 O303 2.074 . S
Co295 O306 2.093 . S
Co295 O319 2.097 . S
Co295 N336 2.151 . S
Co295 N344 2.214 . S
Co296 O297 2.160 . S
Co296 O302 2.058 . S
Co296 O312 2.057 . S
Co296 O327 2.037 . S
Co296 N331 2.145 . S
Co296 N352 2.257 . S
O297 Co295 2.143 . S
O297 Co296 2.160 . S
C298 O299 1.278 . S
C298 O306 1.224 . S
O299 C298 1.278 . S
C300 O301 1.245 . S
C300 O312 1.232 . S
O301 C300 1.245 . S
O302 Co296 2.058 . S
O302 C328 1.269 . S
O303 Co295 2.074 . S
O303 C328 1.257 . S
H304 C329 0.930 . S
H305 C335 0.930 . S
O306 Co295 2.093 . S
O306 C298 1.224 . S
H307 C339 0.929 . S
H308 C341 0.930 . S
H309 C342 0.930 . S
H310 C340 0.929 . S
H311 C343 0.928 . S
O312 Co296 2.057 . S
O312 C300 1.232 . S
H313 C332 0.929 . S
H314 C333 0.929 . S
H315 C345 0.931 . S
H316 C337 0.929 . S
H317 C346 0.930 . S
H318 C338 0.931 . S
O319 Co295 2.097 . S
O319 C347 1.214 . S
H320 C348 0.929 . S
H321 C349 0.929 . S
H322 C350 0.930 . S
H323 C351 0.929 . S
H324 C353 0.930 . S
H325 C330 0.930 . S
H326 C334 0.930 . S
O327 Co296 2.037 . S
O327 C347 1.234 . S
C328 O302 1.269 . S
C328 O303 1.257 . S
C329 H304 0.930 . S
C329 C332 1.388 . S
C329 C334 1.418 . S
C330 H325 0.930 . S
C330 C333 1.404 . S
C330 C334 1.353 . S
N331 Co296 2.145 . S
N331 C332 1.397 . S
N331 C333 1.334 . S
C332 H313 0.929 . S
C332 C329 1.388 . S
C332 N331 1.397 . S
C333 H314 0.929 . S
C333 C330 1.404 . S
C333 N331 1.334 . S
C334 H326 0.930 . S
C334 C329 1.418 . S
C334 C330 1.353 . S
C335 H305 0.930 . S
C335 N336 1.330 . S
C335 C337 1.446 . S
N336 Co295 2.151 . S
N336 C335 1.330 . S
N336 C340 1.418 . S
C337 H316 0.929 . S
C337 C335 1.446 . S
C337 C338 1.332 . S
C338 H318 0.931 . S
C338 C337 1.332 . S
C338 C339 1.267 . S
C339 H307 0.929 . S
C339 C338 1.267 . S
C339 C340 1.251 . S
C340 H310 0.929 . S
C340 N336 1.418 . S
C340 C339 1.251 . S
C341 H308 0.930 . S
C341 C343 1.406 . S
C341 C346 1.261 . S
C342 H309 0.930 . S
C342 N344 1.325 . S
C342 C345 1.357 . S
C343 H311 0.928 . S
C343 C341 1.406 . S
C343 N344 1.261 . S
N344 Co295 2.214 . S
N344 C342 1.325 . S
N344 C343 1.261 . S
C345 H315 0.931 . S
C345 C342 1.357 . S
C345 C346 1.312 . S
C346 H317 0.930 . S
C346 C341 1.261 . S
C346 C345 1.312 . S
C347 O319 1.214 . S
C347 O327 1.234 . S
C348 H320 0.929 . S
C348 C351 1.391 . S
C348 C353 1.391 . S
C349 H321 0.929 . S
C349 C350 1.390 . S
C349 N352 1.391 . S
C350 H322 0.930 . S
C350 C349 1.390 . S
C350 C351 1.392 . S
C351 H323 0.929 . S
C351 C348 1.391 . S
C351 C350 1.392 . S
N352 Co296 2.257 . S
N352 C349 1.391 . S
N352 C353 1.388 . S
C353 H324 0.930 . S
C353 C348 1.391 . S
C353 N352 1.388 . S
Co354 O356 2.143 . S
Co354 O362 2.074 . S
Co354 O365 2.093 . S
Co354 O378 2.097 . S
Co354 N395 2.151 . S
Co354 N403 2.214 . S
Co355 O356 2.160 . S
Co355 O361 2.058 . S
Co355 O371 2.057 . S
Co355 O386 2.037 . S
Co355 N390 2.145 . S
Co355 N411 2.257 . S
O356 Co354 2.143 . S
O356 Co355 2.160 . S
C357 O358 1.278 . S
C357 O365 1.224 . S
O358 C357 1.278 . S
C359 O360 1.245 . S
C359 O371 1.232 . S
O360 C359 1.245 . S
O361 Co355 2.058 . S
O361 C387 1.269 . S
O362 Co354 2.074 . S
O362 C387 1.257 . S
H363 C388 0.930 . S
H364 C394 0.930 . S
O365 Co354 2.093 . S
O365 C357 1.224 . S
H366 C398 0.929 . S
H367 C400 0.930 . S
H368 C401 0.930 . S
H369 C399 0.929 . S
H370 C402 0.928 . S
O371 Co355 2.057 . S
O371 C359 1.232 . S
H372 C391 0.929 . S
H373 C392 0.929 . S
H374 C404 0.931 . S
H375 C396 0.929 . S
H376 C405 0.930 . S
H377 C397 0.931 . S
O378 Co354 2.097 . S
O378 C406 1.214 . S
H379 C407 0.929 . S
H380 C408 0.929 . S
H381 C409 0.930 . S
H382 C410 0.929 . S
H383 C412 0.930 . S
H384 C389 0.930 . S
H385 C393 0.930 . S
O386 Co355 2.037 . S
O386 C406 1.234 . S
C387 O361 1.269 . S
C387 O362 1.257 . S
C388 H363 0.930 . S
C388 C391 1.388 . S
C388 C393 1.418 . S
C389 H384 0.930 . S
C389 C392 1.404 . S
C389 C393 1.353 . S
N390 Co355 2.145 . S
N390 C391 1.397 . S
N390 C392 1.334 . S
C391 H372 0.929 . S
C391 C388 1.388 . S
C391 N390 1.397 . S
C392 H373 0.929 . S
C392 C389 1.404 . S
C392 N390 1.334 . S
C393 H385 0.930 . S
C393 C388 1.418 . S
C393 C389 1.353 . S
C394 H364 0.930 . S
C394 N395 1.330 . S
C394 C396 1.446 . S
N395 Co354 2.151 . S
N395 C394 1.330 . S
N395 C399 1.418 . S
C396 H375 0.929 . S
C396 C394 1.446 . S
C396 C397 1.332 . S
C397 H377 0.931 . S
C397 C396 1.332 . S
C397 C398 1.267 . S
C398 H366 0.929 . S
C398 C397 1.267 . S
C398 C399 1.251 . S
C399 H369 0.929 . S
C399 N395 1.418 . S
C399 C398 1.251 . S
C400 H367 0.930 . S
C400 C402 1.406 . S
C400 C405 1.261 . S
C401 H368 0.930 . S
C401 N403 1.325 . S
C401 C404 1.357 . S
C402 H370 0.928 . S
C402 C400 1.406 . S
C402 N403 1.261 . S
N403 Co354 2.214 . S
N403 C401 1.325 . S
N403 C402 1.261 . S
C404 H374 0.931 . S
C404 C401 1.357 . S
C404 C405 1.312 . S
C405 H376 0.930 . S
C405 C400 1.261 . S
C405 C404 1.312 . S
C406 O378 1.214 . S
C406 O386 1.234 . S
C407 H379 0.929 . S
C407 C410 1.391 . S
C407 C412 1.391 . S
C408 H380 0.929 . S
C408 C409 1.390 . S
C408 N411 1.391 . S
C409 H381 0.930 . S
C409 C408 1.390 . S
C409 C410 1.392 . S
C410 H382 0.929 . S
C410 C407 1.391 . S
C410 C409 1.392 . S
N411 Co355 2.257 . S
N411 C408 1.391 . S
N411 C412 1.388 . S
C412 H383 0.930 . S
C412 C407 1.391 . S
C412 N411 1.388 . S
Co413 O415 2.143 . S
Co413 O421 2.074 . S
Co413 O424 2.093 . S
Co413 O437 2.097 . S
Co413 N454 2.151 . S
Co413 N462 2.214 . S
Co414 O415 2.160 . S
Co414 O420 2.058 . S
Co414 O430 2.057 . S
Co414 O445 2.037 . S
Co414 N449 2.145 . S
Co414 N470 2.257 . S
O415 Co413 2.143 . S
O415 Co414 2.160 . S
C416 O417 1.278 . S
C416 O424 1.224 . S
O417 C416 1.278 . S
C418 O419 1.245 . S
C418 O430 1.232 . S
O419 C418 1.245 . S
O420 Co414 2.058 . S
O420 C446 1.269 . S
O421 Co413 2.074 . S
O421 C446 1.257 . S
H422 C447 0.930 . S
H423 C453 0.930 . S
O424 Co413 2.093 . S
O424 C416 1.224 . S
H425 C457 0.929 . S
H426 C459 0.930 . S
H427 C460 0.930 . S
H428 C458 0.929 . S
H429 C461 0.928 . S
O430 Co414 2.057 . S
O430 C418 1.232 . S
H431 C450 0.929 . S
H432 C451 0.929 . S
H433 C463 0.931 . S
H434 C455 0.929 . S
H435 C464 0.930 . S
H436 C456 0.931 . S
O437 Co413 2.097 . S
O437 C465 1.214 . S
H438 C466 0.929 . S
H439 C467 0.929 . S
H440 C468 0.930 . S
H441 C469 0.929 . S
H442 C471 0.930 . S
H443 C448 0.930 . S
H444 C452 0.930 . S
O445 Co414 2.037 . S
O445 C465 1.234 . S
C446 O420 1.269 . S
C446 O421 1.257 . S
C447 H422 0.930 . S
C447 C450 1.388 . S
C447 C452 1.418 . S
C448 H443 0.930 . S
C448 C451 1.404 . S
C448 C452 1.353 . S
N449 Co414 2.145 . S
N449 C450 1.397 . S
N449 C451 1.334 . S
C450 H431 0.929 . S
C450 C447 1.388 . S
C450 N449 1.397 . S
C451 H432 0.929 . S
C451 C448 1.404 . S
C451 N449 1.334 . S
C452 H444 0.930 . S
C452 C447 1.418 . S
C452 C448 1.353 . S
C453 H423 0.930 . S
C453 N454 1.330 . S
C453 C455 1.446 . S
N454 Co413 2.151 . S
N454 C453 1.330 . S
N454 C458 1.418 . S
C455 H434 0.929 . S
C455 C453 1.446 . S
C455 C456 1.332 . S
C456 H436 0.931 . S
C456 C455 1.332 . S
C456 C457 1.267 . S
C457 H425 0.929 . S
C457 C456 1.267 . S
C457 C458 1.251 . S
C458 H428 0.929 . S
C458 N454 1.418 . S
C458 C457 1.251 . S
C459 H426 0.930 . S
C459 C461 1.406 . S
C459 C464 1.261 . S
C460 H427 0.930 . S
C460 N462 1.325 . S
C460 C463 1.357 . S
C461 H429 0.928 . S
C461 C459 1.406 . S
C461 N462 1.261 . S
N462 Co413 2.214 . S
N462 C460 1.325 . S
N462 C461 1.261 . S
C463 H433 0.931 . S
C463 C460 1.357 . S
C463 C464 1.312 . S
C464 H435 0.930 . S
C464 C459 1.261 . S
C464 C463 1.312 . S
C465 O437 1.214 . S
C465 O445 1.234 . S
C466 H438 0.929 . S
C466 C469 1.391 . S
C466 C471 1.391 . S
C467 H439 0.929 . S
C467 C468 1.390 . S
C467 N470 1.391 . S
C468 H440 0.930 . S
C468 C467 1.390 . S
C468 C469 1.392 . S
C469 H441 0.929 . S
C469 C466 1.391 . S
C469 C468 1.392 . S
N470 Co414 2.257 . S
N470 C467 1.391 . S
N470 C471 1.388 . S
C471 H442 0.930 . S
C471 C466 1.391 . S
C471 N470 1.388 . S
Co472 O474 2.143 . S
Co472 O480 2.074 . S
Co472 O483 2.093 . S
Co472 O496 2.097 . S
Co472 N513 2.151 . S
Co472 N521 2.214 . S
Co473 O474 2.160 . S
Co473 O479 2.058 . S
Co473 O489 2.057 . S
Co473 O504 2.037 . S
Co473 N508 2.145 . S
Co473 N529 2.257 . S
O474 Co472 2.143 . S
O474 Co473 2.160 . S
C475 O476 1.278 . S
C475 O483 1.224 . S
O476 C475 1.278 . S
C477 O478 1.245 . S
C477 O489 1.232 . S
O478 C477 1.245 . S
O479 Co473 2.058 . S
O479 C505 1.269 . S
O480 Co472 2.074 . S
O480 C505 1.257 . S
H481 C506 0.930 . S
H482 C512 0.930 . S
O483 Co472 2.093 . S
O483 C475 1.224 . S
H484 C516 0.929 . S
H485 C518 0.930 . S
H486 C519 0.930 . S
H487 C517 0.929 . S
H488 C520 0.928 . S
O489 Co473 2.057 . S
O489 C477 1.232 . S
H490 C509 0.929 . S
H491 C510 0.929 . S
H492 C522 0.931 . S
H493 C514 0.929 . S
H494 C523 0.930 . S
H495 C515 0.931 . S
O496 Co472 2.097 . S
O496 C524 1.214 . S
H497 C525 0.929 . S
H498 C526 0.929 . S
H499 C527 0.930 . S
H500 C528 0.929 . S
H501 C530 0.930 . S
H502 C507 0.930 . S
H503 C511 0.930 . S
O504 Co473 2.037 . S
O504 C524 1.234 . S
C505 O479 1.269 . S
C505 O480 1.257 . S
C506 H481 0.930 . S
C506 C509 1.388 . S
C506 C511 1.418 . S
C507 H502 0.930 . S
C507 C510 1.404 . S
C507 C511 1.353 . S
N508 Co473 2.145 . S
N508 C509 1.397 . S
N508 C510 1.334 . S
C509 H490 0.929 . S
C509 C506 1.388 . S
C509 N508 1.397 . S
C510 H491 0.929 . S
C510 C507 1.404 . S
C510 N508 1.334 . S
C511 H503 0.930 . S
C511 C506 1.418 . S
C511 C507 1.353 . S
C512 H482 0.930 . S
C512 N513 1.330 . S
C512 C514 1.446 . S
N513 Co472 2.151 . S
N513 C512 1.330 . S
N513 C517 1.418 . S
C514 H493 0.929 . S
C514 C512 1.446 . S
C514 C515 1.332 . S
C515 H495 0.931 . S
C515 C514 1.332 . S
C515 C516 1.267 . S
C516 H484 0.929 . S
C516 C515 1.267 . S
C516 C517 1.251 . S
C517 H487 0.929 . S
C517 N513 1.418 . S
C517 C516 1.251 . S
C518 H485 0.930 . S
C518 C520 1.406 . S
C518 C523 1.261 . S
C519 H486 0.930 . S
C519 N521 1.325 . S
C519 C522 1.357 . S
C520 H488 0.928 . S
C520 C518 1.406 . S
C520 N521 1.261 . S
N521 Co472 2.214 . S
N521 C519 1.325 . S
N521 C520 1.261 . S
C522 H492 0.931 . S
C522 C519 1.357 . S
C522 C523 1.312 . S
C523 H494 0.930 . S
C523 C518 1.261 . S
C523 C522 1.312 . S
C524 O496 1.214 . S
C524 O504 1.234 . S
C525 H497 0.929 . S
C525 C528 1.391 . S
C525 C530 1.391 . S
C526 H498 0.929 . S
C526 C527 1.390 . S
C526 N529 1.391 . S
C527 H499 0.930 . S
C527 C526 1.390 . S
C527 C528 1.392 . S
C528 H500 0.929 . S
C528 C525 1.391 . S
C528 C527 1.392 . S
N529 Co473 2.257 . S
N529 C526 1.391 . S
N529 C530 1.388 . S
C530 H501 0.930 . S
C530 C525 1.391 . S
C530 N529 1.388 . S
Co531 O533 2.143 . S
Co531 O539 2.074 . S
Co531 O542 2.093 . S
Co531 O555 2.097 . S
Co531 N572 2.151 . S
Co531 N580 2.214 . S
Co532 O533 2.160 . S
Co532 O538 2.058 . S
Co532 O548 2.057 . S
Co532 O563 2.037 . S
Co532 N567 2.145 . S
Co532 N588 2.257 . S
O533 Co531 2.143 . S
O533 Co532 2.160 . S
C534 O535 1.278 . S
C534 O542 1.224 . S
O535 C534 1.278 . S
C536 O537 1.245 . S
C536 O548 1.232 . S
O537 C536 1.245 . S
O538 Co532 2.058 . S
O538 C564 1.269 . S
O539 Co531 2.074 . S
O539 C564 1.257 . S
H540 C565 0.930 . S
H541 C571 0.930 . S
O542 Co531 2.093 . S
O542 C534 1.224 . S
H543 C575 0.929 . S
H544 C577 0.930 . S
H545 C578 0.930 . S
H546 C576 0.929 . S
H547 C579 0.928 . S
O548 Co532 2.057 . S
O548 C536 1.232 . S
H549 C568 0.929 . S
H550 C569 0.929 . S
H551 C581 0.931 . S
H552 C573 0.929 . S
H553 C582 0.930 . S
H554 C574 0.931 . S
O555 Co531 2.097 . S
O555 C583 1.214 . S
H556 C584 0.929 . S
H557 C585 0.929 . S
H558 C586 0.930 . S
H559 C587 0.929 . S
H560 C589 0.930 . S
H561 C566 0.930 . S
H562 C570 0.930 . S
O563 Co532 2.037 . S
O563 C583 1.234 . S
C564 O538 1.269 . S
C564 O539 1.257 . S
C565 H540 0.930 . S
C565 C568 1.388 . S
C565 C570 1.418 . S
C566 H561 0.930 . S
C566 C569 1.404 . S
C566 C570 1.353 . S
N567 Co532 2.145 . S
N567 C568 1.397 . S
N567 C569 1.334 . S
C568 H549 0.929 . S
C568 C565 1.388 . S
C568 N567 1.397 . S
C569 H550 0.929 . S
C569 C566 1.404 . S
C569 N567 1.334 . S
C570 H562 0.930 . S
C570 C565 1.418 . S
C570 C566 1.353 . S
C571 H541 0.930 . S
C571 N572 1.330 . S
C571 C573 1.446 . S
N572 Co531 2.151 . S
N572 C571 1.330 . S
N572 C576 1.418 . S
C573 H552 0.929 . S
C573 C571 1.446 . S
C573 C574 1.332 . S
C574 H554 0.931 . S
C574 C573 1.332 . S
C574 C575 1.267 . S
C575 H543 0.929 . S
C575 C574 1.267 . S
C575 C576 1.251 . S
C576 H546 0.929 . S
C576 N572 1.418 . S
C576 C575 1.251 . S
C577 H544 0.930 . S
C577 C579 1.406 . S
C577 C582 1.261 . S
C578 H545 0.930 . S
C578 N580 1.325 . S
C578 C581 1.357 . S
C579 H547 0.928 . S
C579 C577 1.406 . S
C579 N580 1.261 . S
N580 Co531 2.214 . S
N580 C578 1.325 . S
N580 C579 1.261 . S
C581 H551 0.931 . S
C581 C578 1.357 . S
C581 C582 1.312 . S
C582 H553 0.930 . S
C582 C577 1.261 . S
C582 C581 1.312 . S
C583 O555 1.214 . S
C583 O563 1.234 . S
C584 H556 0.929 . S
C584 C587 1.391 . S
C584 C589 1.391 . S
C585 H557 0.929 . S
C585 C586 1.390 . S
C585 N588 1.391 . S
C586 H558 0.930 . S
C586 C585 1.390 . S
C586 C587 1.392 . S
C587 H559 0.929 . S
C587 C584 1.391 . S
C587 C586 1.392 . S
N588 Co532 2.257 . S
N588 C585 1.391 . S
N588 C589 1.388 . S
C589 H560 0.930 . S
C589 C584 1.391 . S
C589 N588 1.388 . S
Co590 O592 2.143 . S
Co590 O598 2.074 . S
Co590 O601 2.093 . S
Co590 O614 2.097 . S
Co590 N631 2.151 . S
Co590 N639 2.214 . S
Co591 O592 2.160 . S
Co591 O597 2.058 . S
Co591 O607 2.057 . S
Co591 O622 2.037 . S
Co591 N626 2.145 . S
Co591 N647 2.257 . S
O592 Co590 2.143 . S
O592 Co591 2.160 . S
C593 O594 1.278 . S
C593 O601 1.224 . S
O594 C593 1.278 . S
C595 O596 1.245 . S
C595 O607 1.232 . S
O596 C595 1.245 . S
O597 Co591 2.058 . S
O597 C623 1.269 . S
O598 Co590 2.074 . S
O598 C623 1.257 . S
H599 C624 0.930 . S
H600 C630 0.930 . S
O601 Co590 2.093 . S
O601 C593 1.224 . S
H602 C634 0.929 . S
H603 C636 0.930 . S
H604 C637 0.930 . S
H605 C635 0.929 . S
H606 C638 0.928 . S
O607 Co591 2.057 . S
O607 C595 1.232 . S
H608 C627 0.929 . S
H609 C628 0.929 . S
H610 C640 0.931 . S
H611 C632 0.929 . S
H612 C641 0.930 . S
H613 C633 0.931 . S
O614 Co590 2.097 . S
O614 C642 1.214 . S
H615 C643 0.929 . S
H616 C644 0.929 . S
H617 C645 0.930 . S
H618 C646 0.929 . S
H619 C648 0.930 . S
H620 C625 0.930 . S
H621 C629 0.930 . S
O622 Co591 2.037 . S
O622 C642 1.234 . S
C623 O597 1.269 . S
C623 O598 1.257 . S
C624 H599 0.930 . S
C624 C627 1.388 . S
C624 C629 1.418 . S
C625 H620 0.930 . S
C625 C628 1.404 . S
C625 C629 1.353 . S
N626 Co591 2.145 . S
N626 C627 1.397 . S
N626 C628 1.334 . S
C627 H608 0.929 . S
C627 C624 1.388 . S
C627 N626 1.397 . S
C628 H609 0.929 . S
C628 C625 1.404 . S
C628 N626 1.334 . S
C629 H621 0.930 . S
C629 C624 1.418 . S
C629 C625 1.353 . S
C630 H600 0.930 . S
C630 N631 1.330 . S
C630 C632 1.446 . S
N631 Co590 2.151 . S
N631 C630 1.330 . S
N631 C635 1.418 . S
C632 H611 0.929 . S
C632 C630 1.446 . S
C632 C633 1.332 . S
C633 H613 0.931 . S
C633 C632 1.332 . S
C633 C634 1.267 . S
C634 H602 0.929 . S
C634 C633 1.267 . S
C634 C635 1.251 . S
C635 H605 0.929 . S
C635 N631 1.418 . S
C635 C634 1.251 . S
C636 H603 0.930 . S
C636 C638 1.406 . S
C636 C641 1.261 . S
C637 H604 0.930 . S
C637 N639 1.325 . S
C637 C640 1.357 . S
C638 H606 0.928 . S
C638 C636 1.406 . S
C638 N639 1.261 . S
N639 Co590 2.214 . S
N639 C637 1.325 . S
N639 C638 1.261 . S
C640 H610 0.931 . S
C640 C637 1.357 . S
C640 C641 1.312 . S
C641 H612 0.930 . S
C641 C636 1.261 . S
C641 C640 1.312 . S
C642 O614 1.214 . S
C642 O622 1.234 . S
C643 H615 0.929 . S
C643 C646 1.391 . S
C643 C648 1.391 . S
C644 H616 0.929 . S
C644 C645 1.390 . S
C644 N647 1.391 . S
C645 H617 0.930 . S
C645 C644 1.390 . S
C645 C646 1.392 . S
C646 H618 0.929 . S
C646 C643 1.391 . S
C646 C645 1.392 . S
N647 Co591 2.257 . S
N647 C644 1.391 . S
N647 C648 1.388 . S
C648 H619 0.930 . S
C648 C643 1.391 . S
C648 N647 1.388 . S
Co649 O651 2.143 . S
Co649 O657 2.074 . S
Co649 O660 2.093 . S
Co649 O673 2.097 . S
Co649 N690 2.151 . S
Co649 N698 2.214 . S
Co650 O651 2.160 . S
Co650 O656 2.058 . S
Co650 O666 2.057 . S
Co650 O681 2.037 . S
Co650 N685 2.145 . S
Co650 N706 2.257 . S
O651 Co649 2.143 . S
O651 Co650 2.160 . S
C652 O653 1.278 . S
C652 O660 1.224 . S
O653 C652 1.278 . S
C654 O655 1.245 . S
C654 O666 1.232 . S
O655 C654 1.245 . S
O656 Co650 2.058 . S
O656 C682 1.269 . S
O657 Co649 2.074 . S
O657 C682 1.257 . S
H658 C683 0.930 . S
H659 C689 0.930 . S
O660 Co649 2.093 . S
O660 C652 1.224 . S
H661 C693 0.929 . S
H662 C695 0.930 . S
H663 C696 0.930 . S
H664 C694 0.929 . S
H665 C697 0.928 . S
O666 Co650 2.057 . S
O666 C654 1.232 . S
H667 C686 0.929 . S
H668 C687 0.929 . S
H669 C699 0.931 . S
H670 C691 0.929 . S
H671 C700 0.930 . S
H672 C692 0.931 . S
O673 Co649 2.097 . S
O673 C701 1.214 . S
H674 C702 0.929 . S
H675 C703 0.929 . S
H676 C704 0.930 . S
H677 C705 0.929 . S
H678 C707 0.930 . S
H679 C684 0.930 . S
H680 C688 0.930 . S
O681 Co650 2.037 . S
O681 C701 1.234 . S
C682 O656 1.269 . S
C682 O657 1.257 . S
C683 H658 0.930 . S
C683 C686 1.388 . S
C683 C688 1.418 . S
C684 H679 0.930 . S
C684 C687 1.404 . S
C684 C688 1.353 . S
N685 Co650 2.145 . S
N685 C686 1.397 . S
N685 C687 1.334 . S
C686 H667 0.929 . S
C686 C683 1.388 . S
C686 N685 1.397 . S
C687 H668 0.929 . S
C687 C684 1.404 . S
C687 N685 1.334 . S
C688 H680 0.930 . S
C688 C683 1.418 . S
C688 C684 1.353 . S
C689 H659 0.930 . S
C689 N690 1.330 . S
C689 C691 1.446 . S
N690 Co649 2.151 . S
N690 C689 1.330 . S
N690 C694 1.418 . S
C691 H670 0.929 . S
C691 C689 1.446 . S
C691 C692 1.332 . S
C692 H672 0.931 . S
C692 C691 1.332 . S
C692 C693 1.267 . S
C693 H661 0.929 . S
C693 C692 1.267 . S
C693 C694 1.251 . S
C694 H664 0.929 . S
C694 N690 1.418 . S
C694 C693 1.251 . S
C695 H662 0.930 . S
C695 C697 1.406 . S
C695 C700 1.261 . S
C696 H663 0.930 . S
C696 N698 1.325 . S
C696 C699 1.357 . S
C697 H665 0.928 . S
C697 C695 1.406 . S
C697 N698 1.261 . S
N698 Co649 2.214 . S
N698 C696 1.325 . S
N698 C697 1.261 . S
C699 H669 0.931 . S
C699 C696 1.357 . S
C699 C700 1.312 . S
C700 H671 0.930 . S
C700 C695 1.261 . S
C700 C699 1.312 . S
C701 O673 1.214 . S
C701 O681 1.234 . S
C702 H674 0.929 . S
C702 C705 1.391 . S
C702 C707 1.391 . S
C703 H675 0.929 . S
C703 C704 1.390 . S
C703 N706 1.391 . S
C704 H676 0.930 . S
C704 C703 1.390 . S
C704 C705 1.392 . S
C705 H677 0.929 . S
C705 C702 1.391 . S
C705 C704 1.392 . S
N706 Co650 2.257 . S
N706 C703 1.391 . S
N706 C707 1.388 . S
C707 H678 0.930 . S
C707 C702 1.391 . S
C707 N706 1.388 . S
Co708 O710 2.143 . S
Co708 O716 2.074 . S
Co708 O719 2.093 . S
Co708 O732 2.097 . S
Co708 N749 2.151 . S
Co708 N757 2.214 . S
Co709 O710 2.160 . S
Co709 O715 2.058 . S
Co709 O725 2.057 . S
Co709 O740 2.037 . S
Co709 N744 2.145 . S
Co709 N765 2.257 . S
O710 Co708 2.143 . S
O710 Co709 2.160 . S
C711 O712 1.278 . S
C711 O719 1.224 . S
O712 C711 1.278 . S
C713 O714 1.245 . S
C713 O725 1.232 . S
O714 C713 1.245 . S
O715 Co709 2.058 . S
O715 C741 1.269 . S
O716 Co708 2.074 . S
O716 C741 1.257 . S
H717 C742 0.930 . S
H718 C748 0.930 . S
O719 Co708 2.093 . S
O719 C711 1.224 . S
H720 C752 0.929 . S
H721 C754 0.930 . S
H722 C755 0.930 . S
H723 C753 0.929 . S
H724 C756 0.928 . S
O725 Co709 2.057 . S
O725 C713 1.232 . S
H726 C745 0.929 . S
H727 C746 0.929 . S
H728 C758 0.931 . S
H729 C750 0.929 . S
H730 C759 0.930 . S
H731 C751 0.931 . S
O732 Co708 2.097 . S
O732 C760 1.214 . S
H733 C761 0.929 . S
H734 C762 0.929 . S
H735 C763 0.930 . S
H736 C764 0.929 . S
H737 C766 0.930 . S
H738 C743 0.930 . S
H739 C747 0.930 . S
O740 Co709 2.037 . S
O740 C760 1.234 . S
C741 O715 1.269 . S
C741 O716 1.257 . S
C742 H717 0.930 . S
C742 C745 1.388 . S
C742 C747 1.418 . S
C743 H738 0.930 . S
C743 C746 1.404 . S
C743 C747 1.353 . S
N744 Co709 2.145 . S
N744 C745 1.397 . S
N744 C746 1.334 . S
C745 H726 0.929 . S
C745 C742 1.388 . S
C745 N744 1.397 . S
C746 H727 0.929 . S
C746 C743 1.404 . S
C746 N744 1.334 . S
C747 H739 0.930 . S
C747 C742 1.418 . S
C747 C743 1.353 . S
C748 H718 0.930 . S
C748 N749 1.330 . S
C748 C750 1.446 . S
N749 Co708 2.151 . S
N749 C748 1.330 . S
N749 C753 1.418 . S
C750 H729 0.929 . S
C750 C748 1.446 . S
C750 C751 1.332 . S
C751 H731 0.931 . S
C751 C750 1.332 . S
C751 C752 1.267 . S
C752 H720 0.929 . S
C752 C751 1.267 . S
C752 C753 1.251 . S
C753 H723 0.929 . S
C753 N749 1.418 . S
C753 C752 1.251 . S
C754 H721 0.930 . S
C754 C756 1.406 . S
C754 C759 1.261 . S
C755 H722 0.930 . S
C755 N757 1.325 . S
C755 C758 1.357 . S
C756 H724 0.928 . S
C756 C754 1.406 . S
C756 N757 1.261 . S
N757 Co708 2.214 . S
N757 C755 1.325 . S
N757 C756 1.261 . S
C758 H728 0.931 . S
C758 C755 1.357 . S
C758 C759 1.312 . S
C759 H730 0.930 . S
C759 C754 1.261 . S
C759 C758 1.312 . S
C760 O732 1.214 . S
C760 O740 1.234 . S
C761 H733 0.929 . S
C761 C764 1.391 . S
C761 C766 1.391 . S
C762 H734 0.929 . S
C762 C763 1.390 . S
C762 N765 1.391 . S
C763 H735 0.930 . S
C763 C762 1.390 . S
C763 C764 1.392 . S
C764 H736 0.929 . S
C764 C761 1.391 . S
C764 C763 1.392 . S
N765 Co709 2.257 . S
N765 C762 1.391 . S
N765 C766 1.388 . S
C766 H737 0.930 . S
C766 C761 1.391 . S
C766 N765 1.388 . S
Co767 O769 2.143 . S
Co767 O775 2.074 . S
Co767 O778 2.093 . S
Co767 O791 2.097 . S
Co767 N808 2.151 . S
Co767 N816 2.214 . S
Co768 O769 2.160 . S
Co768 O774 2.058 . S
Co768 O784 2.057 . S
Co768 O799 2.037 . S
Co768 N803 2.145 . S
Co768 N824 2.257 . S
O769 Co767 2.143 . S
O769 Co768 2.160 . S
C770 O771 1.278 . S
C770 O778 1.224 . S
O771 C770 1.278 . S
C772 O773 1.245 . S
C772 O784 1.232 . S
O773 C772 1.245 . S
O774 Co768 2.058 . S
O774 C800 1.269 . S
O775 Co767 2.074 . S
O775 C800 1.257 . S
H776 C801 0.930 . S
H777 C807 0.930 . S
O778 Co767 2.093 . S
O778 C770 1.224 . S
H779 C811 0.929 . S
H780 C813 0.930 . S
H781 C814 0.930 . S
H782 C812 0.929 . S
H783 C815 0.928 . S
O784 Co768 2.057 . S
O784 C772 1.232 . S
H785 C804 0.929 . S
H786 C805 0.929 . S
H787 C817 0.931 . S
H788 C809 0.929 . S
H789 C818 0.930 . S
H790 C810 0.931 . S
O791 Co767 2.097 . S
O791 C819 1.214 . S
H792 C820 0.929 . S
H793 C821 0.929 . S
H794 C822 0.930 . S
H795 C823 0.929 . S
H796 C825 0.930 . S
H797 C802 0.930 . S
H798 C806 0.930 . S
O799 Co768 2.037 . S
O799 C819 1.234 . S
C800 O774 1.269 . S
C800 O775 1.257 . S
C801 H776 0.930 . S
C801 C804 1.388 . S
C801 C806 1.418 . S
C802 H797 0.930 . S
C802 C805 1.404 . S
C802 C806 1.353 . S
N803 Co768 2.145 . S
N803 C804 1.397 . S
N803 C805 1.334 . S
C804 H785 0.929 . S
C804 C801 1.388 . S
C804 N803 1.397 . S
C805 H786 0.929 . S
C805 C802 1.404 . S
C805 N803 1.334 . S
C806 H798 0.930 . S
C806 C801 1.418 . S
C806 C802 1.353 . S
C807 H777 0.930 . S
C807 N808 1.330 . S
C807 C809 1.446 . S
N808 Co767 2.151 . S
N808 C807 1.330 . S
N808 C812 1.418 . S
C809 H788 0.929 . S
C809 C807 1.446 . S
C809 C810 1.332 . S
C810 H790 0.931 . S
C810 C809 1.332 . S
C810 C811 1.267 . S
C811 H779 0.929 . S
C811 C810 1.267 . S
C811 C812 1.251 . S
C812 H782 0.929 . S
C812 N808 1.418 . S
C812 C811 1.251 . S
C813 H780 0.930 . S
C813 C815 1.406 . S
C813 C818 1.261 . S
C814 H781 0.930 . S
C814 N816 1.325 . S
C814 C817 1.357 . S
C815 H783 0.928 . S
C815 C813 1.406 . S
C815 N816 1.261 . S
N816 Co767 2.214 . S
N816 C814 1.325 . S
N816 C815 1.261 . S
C817 H787 0.931 . S
C817 C814 1.357 . S
C817 C818 1.312 . S
C818 H789 0.930 . S
C818 C813 1.261 . S
C818 C817 1.312 . S
C819 O791 1.214 . S
C819 O799 1.234 . S
C820 H792 0.929 . S
C820 C823 1.391 . S
C820 C825 1.391 . S
C821 H793 0.929 . S
C821 C822 1.390 . S
C821 N824 1.391 . S
C822 H794 0.930 . S
C822 C821 1.390 . S
C822 C823 1.392 . S
C823 H795 0.929 . S
C823 C820 1.391 . S
C823 C822 1.392 . S
N824 Co768 2.257 . S
N824 C821 1.391 . S
N824 C825 1.388 . S
C825 H796 0.930 . S
C825 C820 1.391 . S
C825 N824 1.388 . S
Co826 O828 2.143 . S
Co826 O834 2.074 . S
Co826 O837 2.093 . S
Co826 O850 2.097 . S
Co826 N867 2.151 . S
Co826 N875 2.214 . S
Co827 O828 2.160 . S
Co827 O833 2.058 . S
Co827 O843 2.057 . S
Co827 O858 2.037 . S
Co827 N862 2.145 . S
Co827 N883 2.257 . S
O828 Co826 2.143 . S
O828 Co827 2.160 . S
C829 O830 1.278 . S
C829 O837 1.224 . S
O830 C829 1.278 . S
C831 O832 1.245 . S
C831 O843 1.232 . S
O832 C831 1.245 . S
O833 Co827 2.058 . S
O833 C859 1.269 . S
O834 Co826 2.074 . S
O834 C859 1.257 . S
H835 C860 0.930 . S
H836 C866 0.930 . S
O837 Co826 2.093 . S
O837 C829 1.224 . S
H838 C870 0.929 . S
H839 C872 0.930 . S
H840 C873 0.930 . S
H841 C871 0.929 . S
H842 C874 0.928 . S
O843 Co827 2.057 . S
O843 C831 1.232 . S
H844 C863 0.929 . S
H845 C864 0.929 . S
H846 C876 0.931 . S
H847 C868 0.929 . S
H848 C877 0.930 . S
H849 C869 0.931 . S
O850 Co826 2.097 . S
O850 C878 1.214 . S
H851 C879 0.929 . S
H852 C880 0.929 . S
H853 C881 0.930 . S
H854 C882 0.929 . S
H855 C884 0.930 . S
H856 C861 0.930 . S
H857 C865 0.930 . S
O858 Co827 2.037 . S
O858 C878 1.234 . S
C859 O833 1.269 . S
C859 O834 1.257 . S
C860 H835 0.930 . S
C860 C863 1.388 . S
C860 C865 1.418 . S
C861 H856 0.930 . S
C861 C864 1.404 . S
C861 C865 1.353 . S
N862 Co827 2.145 . S
N862 C863 1.397 . S
N862 C864 1.334 . S
C863 H844 0.929 . S
C863 C860 1.388 . S
C863 N862 1.397 . S
C864 H845 0.929 . S
C864 C861 1.404 . S
C864 N862 1.334 . S
C865 H857 0.930 . S
C865 C860 1.418 . S
C865 C861 1.353 . S
C866 H836 0.930 . S
C866 N867 1.330 . S
C866 C868 1.446 . S
N867 Co826 2.151 . S
N867 C866 1.330 . S
N867 C871 1.418 . S
C868 H847 0.929 . S
C868 C866 1.446 . S
C868 C869 1.332 . S
C869 H849 0.931 . S
C869 C868 1.332 . S
C869 C870 1.267 . S
C870 H838 0.929 . S
C870 C869 1.267 . S
C870 C871 1.251 . S
C871 H841 0.929 . S
C871 N867 1.418 . S
C871 C870 1.251 . S
C872 H839 0.930 . S
C872 C874 1.406 . S
C872 C877 1.261 . S
C873 H840 0.930 . S
C873 N875 1.325 . S
C873 C876 1.357 . S
C874 H842 0.928 . S
C874 C872 1.406 . S
C874 N875 1.261 . S
N875 Co826 2.214 . S
N875 C873 1.325 . S
N875 C874 1.261 . S
C876 H846 0.931 . S
C876 C873 1.357 . S
C876 C877 1.312 . S
C877 H848 0.930 . S
C877 C872 1.261 . S
C877 C876 1.312 . S
C878 O850 1.214 . S
C878 O858 1.234 . S
C879 H851 0.929 . S
C879 C882 1.391 . S
C879 C884 1.391 . S
C880 H852 0.929 . S
C880 C881 1.390 . S
C880 N883 1.391 . S
C881 H853 0.930 . S
C881 C880 1.390 . S
C881 C882 1.392 . S
C882 H854 0.929 . S
C882 C879 1.391 . S
C882 C881 1.392 . S
N883 Co827 2.257 . S
N883 C880 1.391 . S
N883 C884 1.388 . S
C884 H855 0.930 . S
C884 C879 1.391 . S
C884 N883 1.388 . S
Co885 O887 2.143 . S
Co885 O893 2.074 . S
Co885 O896 2.093 . S
Co885 O909 2.097 . S
Co885 N926 2.151 . S
Co885 N934 2.214 . S
Co886 O887 2.160 . S
Co886 O892 2.058 . S
Co886 O902 2.057 . S
Co886 O917 2.037 . S
Co886 N921 2.145 . S
Co886 N942 2.257 . S
O887 Co885 2.143 . S
O887 Co886 2.160 . S
C888 O889 1.278 . S
C888 O896 1.224 . S
O889 C888 1.278 . S
C890 O891 1.245 . S
C890 O902 1.232 . S
O891 C890 1.245 . S
O892 Co886 2.058 . S
O892 C918 1.269 . S
O893 Co885 2.074 . S
O893 C918 1.257 . S
H894 C919 0.930 . S
H895 C925 0.930 . S
O896 Co885 2.093 . S
O896 C888 1.224 . S
H897 C929 0.929 . S
H898 C931 0.930 . S
H899 C932 0.930 . S
H900 C930 0.929 . S
H901 C933 0.928 . S
O902 Co886 2.057 . S
O902 C890 1.232 . S
H903 C922 0.929 . S
H904 C923 0.929 . S
H905 C935 0.931 . S
H906 C927 0.929 . S
H907 C936 0.930 . S
H908 C928 0.931 . S
O909 Co885 2.097 . S
O909 C937 1.214 . S
H910 C938 0.929 . S
H911 C939 0.929 . S
H912 C940 0.930 . S
H913 C941 0.929 . S
H914 C943 0.930 . S
H915 C920 0.930 . S
H916 C924 0.930 . S
O917 Co886 2.037 . S
O917 C937 1.234 . S
C918 O892 1.269 . S
C918 O893 1.257 . S
C919 H894 0.930 . S
C919 C922 1.388 . S
C919 C924 1.418 . S
C920 H915 0.930 . S
C920 C923 1.404 . S
C920 C924 1.353 . S
N921 Co886 2.145 . S
N921 C922 1.397 . S
N921 C923 1.334 . S
C922 H903 0.929 . S
C922 C919 1.388 . S
C922 N921 1.397 . S
C923 H904 0.929 . S
C923 C920 1.404 . S
C923 N921 1.334 . S
C924 H916 0.930 . S
C924 C919 1.418 . S
C924 C920 1.353 . S
C925 H895 0.930 . S
C925 N926 1.330 . S
C925 C927 1.446 . S
N926 Co885 2.151 . S
N926 C925 1.330 . S
N926 C930 1.418 . S
C927 H906 0.929 . S
C927 C925 1.446 . S
C927 C928 1.332 . S
C928 H908 0.931 . S
C928 C927 1.332 . S
C928 C929 1.267 . S
C929 H897 0.929 . S
C929 C928 1.267 . S
C929 C930 1.251 . S
C930 H900 0.929 . S
C930 N926 1.418 . S
C930 C929 1.251 . S
C931 H898 0.930 . S
C931 C933 1.406 . S
C931 C936 1.261 . S
C932 H899 0.930 . S
C932 N934 1.325 . S
C932 C935 1.357 . S
C933 H901 0.928 . S
C933 C931 1.406 . S
C933 N934 1.261 . S
N934 Co885 2.214 . S
N934 C932 1.325 . S
N934 C933 1.261 . S
C935 H905 0.931 . S
C935 C932 1.357 . S
C935 C936 1.312 . S
C936 H907 0.930 . S
C936 C931 1.261 . S
C936 C935 1.312 . S
C937 O909 1.214 . S
C937 O917 1.234 . S
C938 H910 0.929 . S
C938 C941 1.391 . S
C938 C943 1.391 . S
C939 H911 0.929 . S
C939 C940 1.390 . S
C939 N942 1.391 . S
C940 H912 0.930 . S
C940 C939 1.390 . S
C940 C941 1.392 . S
C941 H913 0.929 . S
C941 C938 1.391 . S
C941 C940 1.392 . S
N942 Co886 2.257 . S
N942 C939 1.391 . S
N942 C943 1.388 . S
C943 H914 0.930 . S
C943 C938 1.391 . S
C943 N942 1.388 . S
C944 C945 1.349 . S
C944 C946 1.327 . S
C944 H969 0.950 . S
C945 C944 1.349 . S
C945 C961 1.349 . S
C946 C944 1.327 . S
C946 C965 1.429 . S
C946 H970 0.950 . S
C947 C964 1.574 . S
C947 C966 1.368 . S
C947 H971 0.949 . S
H948 C952 0.949 . S
C949 C950 1.349 . S
C949 C951 1.327 . S
C949 H972 0.950 . S
C950 C949 1.349 . S
C950 C962 1.349 . S
C951 C949 1.327 . S
C951 C967 1.429 . S
C951 H973 0.950 . S
C952 H948 0.949 . S
C952 C960 1.574 . S
C952 C968 1.368 . S
H953 C961 0.950 . S
H954 C959 0.950 . S
H955 C960 0.949 . S
H956 C962 0.950 . S
H957 C963 0.950 . S
H958 C964 0.949 . S
C959 H954 0.950 . S
C959 C961 1.327 . S
C959 C965 1.429 . S
C960 C952 1.574 . S
C960 H955 0.949 . S
C960 C966 1.368 . S
C961 C945 1.349 . S
C961 H953 0.950 . S
C961 C959 1.327 . S
C962 C950 1.349 . S
C962 H956 0.950 . S
C962 C963 1.327 . S
C963 H957 0.950 . S
C963 C962 1.327 . S
C963 C967 1.429 . S
C964 C947 1.574 . S
C964 H958 0.949 . S
C964 C968 1.368 . S
C965 C946 1.429 . S
C965 C959 1.429 . S
C965 C966 1.523 . S
C966 C947 1.368 . S
C966 C960 1.368 . S
C966 C965 1.523 . S
C967 C951 1.429 . S
C967 C963 1.429 . S
C967 C968 1.523 . S
C968 C952 1.368 . S
C968 C964 1.368 . S
C968 C967 1.523 . S
H969 C944 0.950 . S
H970 C946 0.950 . S
H971 C947 0.949 . S
H972 C949 0.950 . S
H973 C951 0.950 . S
C974 C975 1.349 . S
C974 C976 1.327 . S
C974 H999 0.950 . S
C975 C974 1.349 . S
C975 C991 1.349 . S
C976 C974 1.327 . S
C976 C995 1.429 . S
C976 H1000 0.950 . S
C977 C994 1.574 . S
C977 C996 1.368 . S
C977 H1001 0.949 . S
H978 C982 0.949 . S
C979 C980 1.349 . S
C979 C981 1.327 . S
C979 H1002 0.950 . S
C980 C979 1.349 . S
C980 C992 1.349 . S
C981 C979 1.327 . S
C981 C997 1.429 . S
C981 H1003 0.950 . S
C982 H978 0.949 . S
C982 C990 1.574 . S
C982 C998 1.368 . S
H983 C991 0.950 . S
H984 C989 0.950 . S
H985 C990 0.949 . S
H986 C992 0.950 . S
H987 C993 0.950 . S
H988 C994 0.949 . S
C989 H984 0.950 . S
C989 C991 1.327 . S
C989 C995 1.429 . S
C990 C982 1.574 . S
C990 H985 0.949 . S
C990 C996 1.368 . S
C991 C975 1.349 . S
C991 H983 0.950 . S
C991 C989 1.327 . S
C992 C980 1.349 . S
C992 H986 0.950 . S
C992 C993 1.327 . S
C993 H987 0.950 . S
C993 C992 1.327 . S
C993 C997 1.429 . S
C994 C977 1.574 . S
C994 H988 0.949 . S
C994 C998 1.368 . S
C995 C976 1.429 . S
C995 C989 1.429 . S
C995 C996 1.523 . S
C996 C977 1.368 . S
C996 C990 1.368 . S
C996 C995 1.523 . S
C997 C981 1.429 . S
C997 C993 1.429 . S
C997 C998 1.523 . S
C998 C982 1.368 . S
C998 C994 1.368 . S
C998 C997 1.523 . S
H999 C974 0.950 . S
H1000 C976 0.950 . S
H1001 C977 0.949 . S
H1002 C979 0.950 . S
H1003 C981 0.950 . S
C1004 C1005 1.349 . S
C1004 C1006 1.327 . S
C1004 H1029 0.950 . S
C1005 C1004 1.349 . S
C1005 C1021 1.349 . S
C1006 C1004 1.327 . S
C1006 C1025 1.429 . S
C1006 H1030 0.950 . S
C1007 C1024 1.574 . S
C1007 C1026 1.368 . S
C1007 H1031 0.949 . S
H1008 C1012 0.949 . S
C1009 C1010 1.349 . S
C1009 C1011 1.327 . S
C1009 H1032 0.950 . S
C1010 C1009 1.349 . S
C1010 C1022 1.349 . S
C1011 C1009 1.327 . S
C1011 C1027 1.429 . S
C1011 H1033 0.950 . S
C1012 H1008 0.949 . S
C1012 C1020 1.574 . S
C1012 C1028 1.368 . S
H1013 C1021 0.950 . S
H1014 C1019 0.950 . S
H1015 C1020 0.949 . S
H1016 C1022 0.950 . S
H1017 C1023 0.950 . S
H1018 C1024 0.949 . S
C1019 H1014 0.950 . S
C1019 C1021 1.327 . S
C1019 C1025 1.429 . S
C1020 C1012 1.574 . S
C1020 H1015 0.949 . S
C1020 C1026 1.368 . S
C1021 C1005 1.349 . S
C1021 H1013 0.950 . S
C1021 C1019 1.327 . S
C1022 C1010 1.349 . S
C1022 H1016 0.950 . S
C1022 C1023 1.327 . S
C1023 H1017 0.950 . S
C1023 C1022 1.327 . S
C1023 C1027 1.429 . S
C1024 C1007 1.574 . S
C1024 H1018 0.949 . S
C1024 C1028 1.368 . S
C1025 C1006 1.429 . S
C1025 C1019 1.429 . S
C1025 C1026 1.523 . S
C1026 C1007 1.368 . S
C1026 C1020 1.368 . S
C1026 C1025 1.523 . S
C1027 C1011 1.429 . S
C1027 C1023 1.429 . S
C1027 C1028 1.523 . S
C1028 C1012 1.368 . S
C1028 C1024 1.368 . S
C1028 C1027 1.523 . S
H1029 C1004 0.950 . S
H1030 C1006 0.950 . S
H1031 C1007 0.949 . S
H1032 C1009 0.950 . S
H1033 C1011 0.950 . S
C1034 C1035 1.349 . S
C1034 C1036 1.327 . S
C1034 H1059 0.950 . S
C1035 C1034 1.349 . S
C1035 C1051 1.349 . S
C1036 C1034 1.327 . S
C1036 C1055 1.429 . S
C1036 H1060 0.950 . S
C1037 C1054 1.574 . S
C1037 C1056 1.368 . S
C1037 H1061 0.949 . S
H1038 C1042 0.949 . S
C1039 C1040 1.349 . S
C1039 C1041 1.327 . S
C1039 H1062 0.950 . S
C1040 C1039 1.349 . S
C1040 C1052 1.349 . S
C1041 C1039 1.327 . S
C1041 C1057 1.429 . S
C1041 H1063 0.950 . S
C1042 H1038 0.949 . S
C1042 C1050 1.574 . S
C1042 C1058 1.368 . S
H1043 C1051 0.950 . S
H1044 C1049 0.950 . S
H1045 C1050 0.949 . S
H1046 C1052 0.950 . S
H1047 C1053 0.950 . S
H1048 C1054 0.949 . S
C1049 H1044 0.950 . S
C1049 C1051 1.327 . S
C1049 C1055 1.429 . S
C1050 C1042 1.574 . S
C1050 H1045 0.949 . S
C1050 C1056 1.368 . S
C1051 C1035 1.349 . S
C1051 H1043 0.950 . S
C1051 C1049 1.327 . S
C1052 C1040 1.349 . S
C1052 H1046 0.950 . S
C1052 C1053 1.327 . S
C1053 H1047 0.950 . S
C1053 C1052 1.327 . S
C1053 C1057 1.429 . S
C1054 C1037 1.574 . S
C1054 H1048 0.949 . S
C1054 C1058 1.368 . S
C1055 C1036 1.429 . S
C1055 C1049 1.429 . S
C1055 C1056 1.523 . S
C1056 C1037 1.368 . S
C1056 C1050 1.368 . S
C1056 C1055 1.523 . S
C1057 C1041 1.429 . S
C1057 C1053 1.429 . S
C1057 C1058 1.523 . S
C1058 C1042 1.368 . S
C1058 C1054 1.368 . S
C1058 C1057 1.523 . S
H1059 C1034 0.950 . S
H1060 C1036 0.950 . S
H1061 C1037 0.949 . S
H1062 C1039 0.950 . S
H1063 C1041 0.950 . S
C1064 C1065 1.349 . S
C1064 C1066 1.327 . S
C1064 H1089 0.950 . S
C1065 C1064 1.349 . S
C1065 C1081 1.349 . S
C1066 C1064 1.327 . S
C1066 C1085 1.429 . S
C1066 H1090 0.950 . S
C1067 C1084 1.574 . S
C1067 C1086 1.368 . S
C1067 H1091 0.949 . S
H1068 C1072 0.949 . S
C1069 C1070 1.349 . S
C1069 C1071 1.327 . S
C1069 H1092 0.950 . S
C1070 C1069 1.349 . S
C1070 C1082 1.349 . S
C1071 C1069 1.327 . S
C1071 C1087 1.429 . S
C1071 H1093 0.950 . S
C1072 H1068 0.949 . S
C1072 C1080 1.574 . S
C1072 C1088 1.368 . S
H1073 C1081 0.950 . S
H1074 C1079 0.950 . S
H1075 C1080 0.949 . S
H1076 C1082 0.950 . S
H1077 C1083 0.950 . S
H1078 C1084 0.949 . S
C1079 H1074 0.950 . S
C1079 C1081 1.327 . S
C1079 C1085 1.429 . S
C1080 C1072 1.574 . S
C1080 H1075 0.949 . S
C1080 C1086 1.368 . S
C1081 C1065 1.349 . S
C1081 H1073 0.950 . S
C1081 C1079 1.327 . S
C1082 C1070 1.349 . S
C1082 H1076 0.950 . S
C1082 C1083 1.327 . S
C1083 H1077 0.950 . S
C1083 C1082 1.327 . S
C1083 C1087 1.429 . S
C1084 C1067 1.574 . S
C1084 H1078 0.949 . S
C1084 C1088 1.368 . S
C1085 C1066 1.429 . S
C1085 C1079 1.429 . S
C1085 C1086 1.523 . S
C1086 C1067 1.368 . S
C1086 C1080 1.368 . S
C1086 C1085 1.523 . S
C1087 C1071 1.429 . S
C1087 C1083 1.429 . S
C1087 C1088 1.523 . S
C1088 C1072 1.368 . S
C1088 C1084 1.368 . S
C1088 C1087 1.523 . S
H1089 C1064 0.950 . S
H1090 C1066 0.950 . S
H1091 C1067 0.949 . S
H1092 C1069 0.950 . S
H1093 C1071 0.950 . S
C1094 C1095 1.349 . S
C1094 C1096 1.327 . S
C1094 H1119 0.950 . S
C1095 C1094 1.349 . S
C1095 C1111 1.349 . S
C1096 C1094 1.327 . S
C1096 C1115 1.429 . S
C1096 H1120 0.950 . S
C1097 C1114 1.574 . S
C1097 C1116 1.368 . S
C1097 H1121 0.949 . S
H1098 C1102 0.949 . S
C1099 C1100 1.349 . S
C1099 C1101 1.327 . S
C1099 H1122 0.950 . S
C1100 C1099 1.349 . S
C1100 C1112 1.349 . S
C1101 C1099 1.327 . S
C1101 C1117 1.429 . S
C1101 H1123 0.950 . S
C1102 H1098 0.949 . S
C1102 C1110 1.574 . S
C1102 C1118 1.368 . S
H1103 C1111 0.950 . S
H1104 C1109 0.950 . S
H1105 C1110 0.949 . S
H1106 C1112 0.950 . S
H1107 C1113 0.950 . S
H1108 C1114 0.949 . S
C1109 H1104 0.950 . S
C1109 C1111 1.327 . S
C1109 C1115 1.429 . S
C1110 C1102 1.574 . S
C1110 H1105 0.949 . S
C1110 C1116 1.368 . S
C1111 C1095 1.349 . S
C1111 H1103 0.950 . S
C1111 C1109 1.327 . S
C1112 C1100 1.349 . S
C1112 H1106 0.950 . S
C1112 C1113 1.327 . S
C1113 H1107 0.950 . S
C1113 C1112 1.327 . S
C1113 C1117 1.429 . S
C1114 C1097 1.574 . S
C1114 H1108 0.949 . S
C1114 C1118 1.368 . S
C1115 C1096 1.429 . S
C1115 C1109 1.429 . S
C1115 C1116 1.523 . S
C1116 C1097 1.368 . S
C1116 C1110 1.368 . S
C1116 C1115 1.523 . S
C1117 C1101 1.429 . S
C1117 C1113 1.429 . S
C1117 C1118 1.523 . S
C1118 C1102 1.368 . S
C1118 C1114 1.368 . S
C1118 C1117 1.523 . S
H1119 C1094 0.950 . S
H1120 C1096 0.950 . S
H1121 C1097 0.949 . S
H1122 C1099 0.950 . S
H1123 C1101 0.950 . S
C1124 C1125 1.349 . S
C1124 C1126 1.327 . S
C1124 H1149 0.950 . S
C1125 C1124 1.349 . S
C1125 C1141 1.349 . S
C1126 C1124 1.327 . S
C1126 C1145 1.429 . S
C1126 H1150 0.950 . S
C1127 C1144 1.574 . S
C1127 C1146 1.368 . S
C1127 H1151 0.949 . S
H1128 C1132 0.949 . S
C1129 C1130 1.349 . S
C1129 C1131 1.327 . S
C1129 H1152 0.950 . S
C1130 C1129 1.349 . S
C1130 C1142 1.349 . S
C1131 C1129 1.327 . S
C1131 C1147 1.429 . S
C1131 H1153 0.950 . S
C1132 H1128 0.949 . S
C1132 C1140 1.574 . S
C1132 C1148 1.368 . S
H1133 C1141 0.950 . S
H1134 C1139 0.950 . S
H1135 C1140 0.949 . S
H1136 C1142 0.950 . S
H1137 C1143 0.950 . S
H1138 C1144 0.949 . S
C1139 H1134 0.950 . S
C1139 C1141 1.327 . S
C1139 C1145 1.429 . S
C1140 C1132 1.574 . S
C1140 H1135 0.949 . S
C1140 C1146 1.368 . S
C1141 C1125 1.349 . S
C1141 H1133 0.950 . S
C1141 C1139 1.327 . S
C1142 C1130 1.349 . S
C1142 H1136 0.950 . S
C1142 C1143 1.327 . S
C1143 H1137 0.950 . S
C1143 C1142 1.327 . S
C1143 C1147 1.429 . S
C1144 C1127 1.574 . S
C1144 H1138 0.949 . S
C1144 C1148 1.368 . S
C1145 C1126 1.429 . S
C1145 C1139 1.429 . S
C1145 C1146 1.523 . S
C1146 C1127 1.368 . S
C1146 C1140 1.368 . S
C1146 C1145 1.523 . S
C1147 C1131 1.429 . S
C1147 C1143 1.429 . S
C1147 C1148 1.523 . S
C1148 C1132 1.368 . S
C1148 C1144 1.368 . S
C1148 C1147 1.523 . S
H1149 C1124 0.950 . S
H1150 C1126 0.950 . S
H1151 C1127 0.949 . S
H1152 C1129 0.950 . S
H1153 C1131 0.950 . S
C1154 C1155 1.349 . S
C1154 C1156 1.327 . S
C1154 H1179 0.950 . S
C1155 C1154 1.349 . S
C1155 C1171 1.349 . S
C1156 C1154 1.327 . S
C1156 C1175 1.429 . S
C1156 H1180 0.950 . S
C1157 C1174 1.574 . S
C1157 C1176 1.368 . S
C1157 H1181 0.949 . S
H1158 C1162 0.949 . S
C1159 C1160 1.349 . S
C1159 C1161 1.327 . S
C1159 H1182 0.950 . S
C1160 C1159 1.349 . S
C1160 C1172 1.349 . S
C1161 C1159 1.327 . S
C1161 C1177 1.429 . S
C1161 H1183 0.950 . S
C1162 H1158 0.949 . S
C1162 C1170 1.574 . S
C1162 C1178 1.368 . S
H1163 C1171 0.950 . S
H1164 C1169 0.950 . S
H1165 C1170 0.949 . S
H1166 C1172 0.950 . S
H1167 C1173 0.950 . S
H1168 C1174 0.949 . S
C1169 H1164 0.950 . S
C1169 C1171 1.327 . S
C1169 C1175 1.429 . S
C1170 C1162 1.574 . S
C1170 H1165 0.949 . S
C1170 C1176 1.368 . S
C1171 C1155 1.349 . S
C1171 H1163 0.950 . S
C1171 C1169 1.327 . S
C1172 C1160 1.349 . S
C1172 H1166 0.950 . S
C1172 C1173 1.327 . S
C1173 H1167 0.950 . S
C1173 C1172 1.327 . S
C1173 C1177 1.429 . S
C1174 C1157 1.574 . S
C1174 H1168 0.949 . S
C1174 C1178 1.368 . S
C1175 C1156 1.429 . S
C1175 C1169 1.429 . S
C1175 C1176 1.523 . S
C1176 C1157 1.368 . S
C1176 C1170 1.368 . S
C1176 C1175 1.523 . S
C1177 C1161 1.429 . S
C1177 C1173 1.429 . S
C1177 C1178 1.523 . S
C1178 C1162 1.368 . S
C1178 C1174 1.368 . S
C1178 C1177 1.523 . S
H1179 C1154 0.950 . S
H1180 C1156 0.950 . S
H1181 C1157 0.949 . S
H1182 C1159 0.950 . S
H1183 C1161 0.950 . S
C1184 C1185 1.349 . S
C1184 C1186 1.327 . S
C1184 H1209 0.950 . S
C1185 C1184 1.349 . S
C1185 C1201 1.349 . S
C1186 C1184 1.327 . S
C1186 C1205 1.429 . S
C1186 H1210 0.950 . S
C1187 C1204 1.574 . S
C1187 C1206 1.368 . S
C1187 H1211 0.949 . S
H1188 C1192 0.949 . S
C1189 C1190 1.349 . S
C1189 C1191 1.327 . S
C1189 H1212 0.950 . S
C1190 C1189 1.349 . S
C1190 C1202 1.349 . S
C1191 C1189 1.327 . S
C1191 C1207 1.429 . S
C1191 H1213 0.950 . S
C1192 H1188 0.949 . S
C1192 C1200 1.574 . S
C1192 C1208 1.368 . S
H1193 C1201 0.950 . S
H1194 C1199 0.950 . S
H1195 C1200 0.949 . S
H1196 C1202 0.950 . S
H1197 C1203 0.950 . S
H1198 C1204 0.949 . S
C1199 H1194 0.950 . S
C1199 C1201 1.327 . S
C1199 C1205 1.429 . S
C1200 C1192 1.574 . S
C1200 H1195 0.949 . S
C1200 C1206 1.368 . S
C1201 C1185 1.349 . S
C1201 H1193 0.950 . S
C1201 C1199 1.327 . S
C1202 C1190 1.349 . S
C1202 H1196 0.950 . S
C1202 C1203 1.327 . S
C1203 H1197 0.950 . S
C1203 C1202 1.327 . S
C1203 C1207 1.429 . S
C1204 C1187 1.574 . S
C1204 H1198 0.949 . S
C1204 C1208 1.368 . S
C1205 C1186 1.429 . S
C1205 C1199 1.429 . S
C1205 C1206 1.523 . S
C1206 C1187 1.368 . S
C1206 C1200 1.368 . S
C1206 C1205 1.523 . S
C1207 C1191 1.429 . S
C1207 C1203 1.429 . S
C1207 C1208 1.523 1_554 S
C1208 C1192 1.368 . S
C1208 C1204 1.368 . S
C1208 C1207 1.523 1_556 S
H1209 C1184 0.950 . S
H1210 C1186 0.950 . S
H1211 C1187 0.949 . S
H1212 C1189 0.950 . S
H1213 C1191 0.950 . S
C1214 C1215 1.349 . S
C1214 C1216 1.327 . S
C1214 H1239 0.950 . S
C1215 C1214 1.349 . S
C1215 C1231 1.349 . S
C1216 C1214 1.327 . S
C1216 C1235 1.429 . S
C1216 H1240 0.950 . S
C1217 C1234 1.574 . S
C1217 C1236 1.373 . S
C1217 H1241 0.949 1_554 S
H1218 C1222 0.949 . S
C1219 C1220 1.349 . S
C1219 C1221 1.327 . S
C1219 H1242 0.950 . S
C1220 C1219 1.349 . S
C1220 C1232 1.349 . S
C1221 C1219 1.327 . S
C1221 C1237 1.429 . S
C1221 H1243 0.950 . S
C1222 H1218 0.949 . S
C1222 C1230 1.574 . S
C1222 C1238 1.368 . S
H1223 C1231 0.950 . S
H1224 C1229 0.950 . S
H1225 C1230 0.949 . S
H1226 C1232 0.950 . S
H1227 C1233 0.950 . S
H1228 C1234 0.949 . S
C1229 H1224 0.950 . S
C1229 C1231 1.327 . S
C1229 C1235 1.429 . S
C1230 C1222 1.574 . S
C1230 H1225 0.949 . S
C1230 C1236 1.375 . S
C1231 C1215 1.349 . S
C1231 H1223 0.950 . S
C1231 C1229 1.327 . S
C1232 C1220 1.349 . S
C1232 H1226 0.950 . S
C1232 C1233 1.327 . S
C1233 H1227 0.950 . S
C1233 C1232 1.327 . S
C1233 C1237 1.429 . S
C1234 C1217 1.574 . S
C1234 H1228 0.949 . S
C1234 C1238 1.368 . S
C1235 C1216 1.429 . S
C1235 C1229 1.429 . S
C1235 C1236 1.508 1_556 S
C1236 C1217 1.373 . S
C1236 C1230 1.375 . S
C1236 C1235 1.508 1_554 S
C1237 C1221 1.429 . S
C1237 C1233 1.429 . S
C1237 C1238 1.523 . S
C1238 C1222 1.368 . S
C1238 C1234 1.368 . S
C1238 C1237 1.523 . S
H1239 C1214 0.950 . S
H1240 C1216 0.950 . S
H1241 C1217 0.949 1_556 S
H1242 C1219 0.950 . S
H1243 C1221 0.950 . S
C1244 C1245 1.349 . S
C1244 C1246 1.327 . S
C1244 H1269 0.950 . S
C1245 C1244 1.349 . S
C1245 C1261 1.349 . S
C1246 C1244 1.327 . S
C1246 C1265 1.429 . S
C1246 H1270 0.950 . S
C1247 C1264 1.574 . S
C1247 C1266 1.368 1_554 S
C1247 H1271 0.949 1_554 S
H1248 C1252 0.949 . S
C1249 C1250 1.349 . S
C1249 C1251 1.327 . S
C1249 H1272 0.950 . S
C1250 C1249 1.349 . S
C1250 C1262 1.349 . S
C1251 C1249 1.327 . S
C1251 C1267 1.429 . S
C1251 H1273 0.950 . S
C1252 H1248 0.949 . S
C1252 C1260 1.574 . S
C1252 C1268 1.368 . S
H1253 C1261 0.950 . S
H1254 C1259 0.950 . S
H1255 C1260 0.949 1_556 S
H1256 C1262 0.950 . S
H1257 C1263 0.950 . S
H1258 C1264 0.949 . S
C1259 H1254 0.950 . S
C1259 C1261 1.327 . S
C1259 C1265 1.429 . S
C1260 C1252 1.574 . S
C1260 H1255 0.949 1_554 S
C1260 C1266 1.368 1_554 S
C1261 C1245 1.349 . S
C1261 H1253 0.950 . S
C1261 C1259 1.327 . S
C1262 C1250 1.349 . S
C1262 H1256 0.950 . S
C1262 C1263 1.327 . S
C1263 H1257 0.950 . S
C1263 C1262 1.327 . S
C1263 C1267 1.429 . S
C1264 C1247 1.574 . S
C1264 H1258 0.949 . S
C1264 C1268 1.368 . S
C1265 C1246 1.429 . S
C1265 C1259 1.429 . S
C1265 C1266 1.523 . S
C1266 C1247 1.368 1_556 S
C1266 C1260 1.368 1_556 S
C1266 C1265 1.523 . S
C1267 C1251 1.429 . S
C1267 C1263 1.429 . S
C1267 C1268 1.523 . S
C1268 C1252 1.368 . S
C1268 C1264 1.368 . S
C1268 C1267 1.523 . S
H1269 C1244 0.950 . S
H1270 C1246 0.950 . S
H1271 C1247 0.949 1_556 S
H1272 C1249 0.950 . S
H1273 C1251 0.950 . S
C1274 C1275 1.349 . S
C1274 C1276 1.327 . S
C1274 H1299 0.950 . S
C1275 C1274 1.349 . S
C1275 C1291 1.349 . S
C1276 C1274 1.327 . S
C1276 C1295 1.429 . S
C1276 H1300 0.950 . S
C1277 C1294 1.596 . S
C1277 C1296 1.362 1_556 S
C1277 H1301 0.935 1_556 S
H1278 C1282 0.949 . S
C1279 C1280 1.349 . S
C1279 C1281 1.327 . S
C1279 H1302 0.950 . S
C1280 C1279 1.349 . S
C1280 C1292 1.349 . S
C1281 C1279 1.327 . S
C1281 C1297 1.429 . S
C1281 H1303 0.950 . S
C1282 H1278 0.949 . S
C1282 C1290 1.574 1_556 S
C1282 C1298 1.368 . S
H1283 C1291 0.950 . S
H1284 C1289 0.950 . S
H1285 C1290 0.949 . S
H1286 C1292 0.950 . S
H1287 C1293 0.950 . S
H1288 C1294 0.949 . S
C1289 H1284 0.950 . S
C1289 C1291 1.327 . S
C1289 C1295 1.429 . S
C1290 C1282 1.574 1_554 S
C1290 H1285 0.949 . S
C1290 C1296 1.368 . S
C1291 C1275 1.349 . S
C1291 H1283 0.950 . S
C1291 C1289 1.327 . S
C1292 C1280 1.349 . S
C1292 H1286 0.950 . S
C1292 C1293 1.327 . S
C1293 H1287 0.950 . S
C1293 C1292 1.327 . S
C1293 C1297 1.429 . S
C1294 C1277 1.596 . S
C1294 H1288 0.949 . S
C1294 C1298 1.368 . S
C1295 C1276 1.429 . S
C1295 C1289 1.429 . S
C1295 C1296 1.523 . S
C1296 C1277 1.362 1_554 S
C1296 C1290 1.368 . S
C1296 C1295 1.523 . S
C1297 C1281 1.429 . S
C1297 C1293 1.429 . S
C1297 C1298 1.523 . S
C1298 C1282 1.368 . S
C1298 C1294 1.368 . S
C1298 C1297 1.523 . S
H1299 C1274 0.950 . S
H1300 C1276 0.950 . S
H1301 C1277 0.935 1_554 S
H1302 C1279 0.950 . S
H1303 C1281 0.950 . S
C1304 C1305 1.349 . S
C1304 C1306 1.327 . S
C1304 H1329 0.950 . S
C1305 C1304 1.349 . S
C1305 C1321 1.349 . S
C1306 C1304 1.327 . S
C1306 C1325 1.429 . S
C1306 H1330 0.950 . S
C1307 C1324 1.574 1_455 S
C1307 C1326 1.368 . S
C1307 H1331 0.949 . S
H1308 C1312 0.949 . S
C1309 C1310 1.349 . S
C1309 C1311 1.327 . S
C1309 H1332 0.950 . S
C1310 C1309 1.349 . S
C1310 C1322 1.349 . S
C1311 C1309 1.327 . S
C1311 C1327 1.429 . S
C1311 H1333 0.950 . S
C1312 H1308 0.949 . S
C1312 C1320 1.574 1_655 S
C1312 C1328 1.368 . S
H1313 C1321 0.950 . S
H1314 C1319 0.950 . S
H1315 C1320 0.949 . S
H1316 C1322 0.950 . S
H1317 C1323 0.950 . S
H1318 C1324 0.949 . S
C1319 H1314 0.950 . S
C1319 C1321 1.327 . S
C1319 C1325 1.429 . S
C1320 C1312 1.574 1_455 S
C1320 H1315 0.949 . S
C1320 C1326 1.368 . S
C1321 C1305 1.349 . S
C1321 H1313 0.950 . S
C1321 C1319 1.327 . S
C1322 C1310 1.349 . S
C1322 H1316 0.950 . S
C1322 C1323 1.327 . S
C1323 H1317 0.950 . S
C1323 C1322 1.327 . S
C1323 C1327 1.429 . S
C1324 C1307 1.574 1_655 S
C1324 H1318 0.949 . S
C1324 C1328 1.368 . S
C1325 C1306 1.429 . S
C1325 C1319 1.429 . S
C1325 C1326 1.523 . S
C1326 C1307 1.368 . S
C1326 C1320 1.368 . S
C1326 C1325 1.523 . S
C1327 C1311 1.429 . S
C1327 C1323 1.429 . S
C1327 C1328 1.523 . S
C1328 C1312 1.368 . S
C1328 C1324 1.368 . S
C1328 C1327 1.523 . S
H1329 C1304 0.950 . S
H1330 C1306 0.950 . S
H1331 C1307 0.949 . S
H1332 C1309 0.950 . S
H1333 C1311 0.950 . S
C1334 C1335 1.349 . S
C1334 C1336 1.327 . S
C1334 H1359 0.950 . S
C1335 C1334 1.349 . S
C1335 C1351 1.349 . S
C1336 C1334 1.327 . S
C1336 C1355 1.429 . S
C1336 H1360 0.950 . S
C1337 C1354 1.574 . S
C1337 C1356 1.368 . S
C1337 H1361 0.949 . S
H1338 C1342 0.949 . S
C1339 C1340 1.349 . S
C1339 C1341 1.327 . S
C1339 H1362 0.950 . S
C1340 C1339 1.349 . S
C1340 C1352 1.349 . S
C1341 C1339 1.327 . S
C1341 C1357 1.429 . S
C1341 H1363 0.950 . S
C1342 H1338 0.949 . S
C1342 C1350 1.574 . S
C1342 C1358 1.368 . S
H1343 C1351 0.950 . S
H1344 C1349 0.950 . S
H1345 C1350 0.941 1_565 S
H1346 C1352 0.950 . S
H1347 C1353 0.950 . S
H1348 C1354 0.949 . S
C1349 H1344 0.950 . S
C1349 C1351 1.327 . S
C1349 C1355 1.429 . S
C1350 C1342 1.574 . S
C1350 H1345 0.941 1_545 S
C1350 C1356 1.368 . S
C1351 C1335 1.349 . S
C1351 H1343 0.950 . S
C1351 C1349 1.327 . S
C1352 C1340 1.349 . S
C1352 H1346 0.950 . S
C1352 C1353 1.327 . S
C1353 H1347 0.950 . S
C1353 C1352 1.327 . S
C1353 C1357 1.429 . S
C1354 C1337 1.574 . S
C1354 H1348 0.949 . S
C1354 C1358 1.368 . S
C1355 C1336 1.429 . S
C1355 C1349 1.429 . S
C1355 C1356 1.523 1_565 S
C1356 C1337 1.368 . S
C1356 C1350 1.368 . S
C1356 C1355 1.523 1_545 S
C1357 C1341 1.429 . S
C1357 C1353 1.429 . S
C1357 C1358 1.523 . S
C1358 C1342 1.368 . S
C1358 C1354 1.368 . S
C1358 C1357 1.523 . S
H1359 C1334 0.950 . S
H1360 C1336 0.950 . S
H1361 C1337 0.949 . S
H1362 C1339 0.950 . S
H1363 C1341 0.950 . S
C1364 C1365 1.349 . S
C1364 C1366 1.327 . S
C1364 H1389 0.950 . S
C1365 C1364 1.349 . S
C1365 C1381 1.349 . S
C1366 C1364 1.327 . S
C1366 C1385 1.429 . S
C1366 H1390 0.950 . S
C1367 C1384 1.574 1_655 S
C1367 C1386 1.368 . S
C1367 H1391 0.949 . S
H1368 C1372 0.949 . S
C1369 C1370 1.349 . S
C1369 C1371 1.327 . S
C1369 H1392 0.950 . S
C1370 C1369 1.349 . S
C1370 C1382 1.349 . S
C1371 C1369 1.327 . S
C1371 C1387 1.429 . S
C1371 H1393 0.950 . S
C1372 H1368 0.949 . S
C1372 C1380 1.579 . S
C1372 C1388 1.368 . S
H1373 C1381 0.950 . S
H1374 C1379 0.950 . S
H1375 C1380 0.947 1_655 S
H1376 C1382 0.950 . S
H1377 C1383 0.950 . S
H1378 C1384 0.949 . S
C1379 H1374 0.950 . S
C1379 C1381 1.327 . S
C1379 C1385 1.429 . S
C1380 C1372 1.579 . S
C1380 H1375 0.947 1_455 S
C1380 C1386 1.365 1_455 S
C1381 C1365 1.349 . S
C1381 H1373 0.950 . S
C1381 C1379 1.327 . S
C1382 C1370 1.349 . S
C1382 H1376 0.950 . S
C1382 C1383 1.327 . S
C1383 H1377 0.950 . S
C1383 C1382 1.327 . S
C1383 C1387 1.429 . S
C1384 C1367 1.574 1_455 S
C1384 H1378 0.949 . S
C1384 C1388 1.368 . S
C1385 C1366 1.429 . S
C1385 C1379 1.429 . S
C1385 C1386 1.523 . S
C1386 C1367 1.368 . S
C1386 C1380 1.365 1_655 S
C1386 C1385 1.523 . S
C1387 C1371 1.429 . S
C1387 C1383 1.429 . S
C1387 C1388 1.523 . S
C1388 C1372 1.368 . S
C1388 C1384 1.368 . S
C1388 C1387 1.523 . S
H1389 C1364 0.950 . S
H1390 C1366 0.950 . S
H1391 C1367 0.949 . S
H1392 C1369 0.950 . S
H1393 C1371 0.950 . S
C1394 C1395 1.349 . S
C1394 C1396 1.327 . S
C1394 H1419 0.950 . S
C1395 C1394 1.349 . S
C1395 C1411 1.349 . S
C1396 C1394 1.327 . S
C1396 C1415 1.429 . S
C1396 H1420 0.950 . S
C1397 C1414 1.574 . S
C1397 C1416 1.352 1_565 S
C1397 H1421 0.949 . S
H1398 C1402 0.949 . S
C1399 C1400 1.349 . S
C1399 C1401 1.327 . S
C1399 H1422 0.950 . S
C1400 C1399 1.349 . S
C1400 C1412 1.349 . S
C1401 C1399 1.327 . S
C1401 C1417 1.429 . S
C1401 H1423 0.950 . S
C1402 H1398 0.949 . S
C1402 C1410 1.574 . S
C1402 C1418 1.368 . S
H1403 C1411 0.950 . S
H1404 C1409 0.950 . S
H1405 C1410 0.949 1_545 S
H1406 C1412 0.950 . S
H1407 C1413 0.950 . S
H1408 C1414 0.949 . S
C1409 H1404 0.950 . S
C1409 C1411 1.327 . S
C1409 C1415 1.429 . S
C1410 C1402 1.574 . S
C1410 H1405 0.949 1_565 S
C1410 C1416 1.352 1_565 S
C1411 C1395 1.349 . S
C1411 H1403 0.950 . S
C1411 C1409 1.327 . S
C1412 C1400 1.349 . S
C1412 H1406 0.950 . S
C1412 C1413 1.327 . S
C1413 H1407 0.950 . S
C1413 C1412 1.327 . S
C1413 C1417 1.429 . S
C1414 C1397 1.574 . S
C1414 H1408 0.949 . S
C1414 C1418 1.368 . S
C1415 C1396 1.429 . S
C1415 C1409 1.429 . S
C1415 C1416 1.566 . S
C1416 C1397 1.352 1_545 S
C1416 C1410 1.352 1_545 S
C1416 C1415 1.566 . S
C1417 C1401 1.429 . S
C1417 C1413 1.429 . S
C1417 C1418 1.523 . S
C1418 C1402 1.368 . S
C1418 C1414 1.368 . S
C1418 C1417 1.523 . S
H1419 C1394 0.950 . S
H1420 C1396 0.950 . S
H1421 C1397 0.949 . S
H1422 C1399 0.950 . S
H1423 C1401 0.950 . S
C1424 C1425 1.349 . S
C1424 C1426 1.327 . S
C1424 H1449 0.950 . S
C1425 C1424 1.349 . S
C1425 C1441 1.349 . S
C1426 C1424 1.327 . S
C1426 C1445 1.429 . S
C1426 H1450 0.950 . S
C1427 C1444 1.574 1_655 S
C1427 C1446 1.368 . S
C1427 H1451 0.949 . S
H1428 C1432 0.949 1_455 S
C1429 C1430 1.349 . S
C1429 C1431 1.327 . S
C1429 H1452 0.950 . S
C1430 C1429 1.349 . S
C1430 C1442 1.349 . S
C1431 C1429 1.327 . S
C1431 C1447 1.429 . S
C1431 H1453 0.950 . S
C1432 H1428 0.949 1_655 S
C1432 C1440 1.574 . S
C1432 C1448 1.368 1_655 S
H1433 C1441 0.950 . S
H1434 C1439 0.950 . S
H1435 C1440 0.949 . S
H1436 C1442 0.950 . S
H1437 C1443 0.950 . S
H1438 C1444 0.949 . S
C1439 H1434 0.950 . S
C1439 C1441 1.327 . S
C1439 C1445 1.429 . S
C1440 C1432 1.574 . S
C1440 H1435 0.949 . S
C1440 C1446 1.368 . S
C1441 C1425 1.349 . S
C1441 H1433 0.950 . S
C1441 C1439 1.327 . S
C1442 C1430 1.349 . S
C1442 H1436 0.950 . S
C1442 C1443 1.327 . S
C1443 H1437 0.950 . S
C1443 C1442 1.327 . S
C1443 C1447 1.429 . S
C1444 C1427 1.574 1_455 S
C1444 H1438 0.949 . S
C1444 C1448 1.368 . S
C1445 C1426 1.429 . S
C1445 C1439 1.429 . S
C1445 C1446 1.523 . S
C1446 C1427 1.368 . S
C1446 C1440 1.368 . S
C1446 C1445 1.523 . S
C1447 C1431 1.429 . S
C1447 C1443 1.429 . S
C1447 C1448 1.523 . S
C1448 C1432 1.368 1_455 S
C1448 C1444 1.368 . S
C1448 C1447 1.523 . S
H1449 C1424 0.950 . S
H1450 C1426 0.950 . S
H1451 C1427 0.949 . S
H1452 C1429 0.950 . S
H1453 C1431 0.950 . S
C1454 C1455 1.349 . S
C1454 C1456 1.327 . S
C1454 H1479 0.950 . S
C1455 C1454 1.349 . S
C1455 C1471 1.349 . S
C1456 C1454 1.327 . S
C1456 C1475 1.429 . S
C1456 H1480 0.950 . S
C1457 C1474 1.574 . S
C1457 C1476 1.368 . S
C1457 H1481 0.949 . S
H1458 C1462 0.949 . S
C1459 C1460 1.349 . S
C1459 C1461 1.327 . S
C1459 H1482 0.950 . S
C1460 C1459 1.349 . S
C1460 C1472 1.349 . S
C1461 C1459 1.327 . S
C1461 C1477 1.429 . S
C1461 H1483 0.950 . S
C1462 H1458 0.949 . S
C1462 C1470 1.574 . S
C1462 C1478 1.368 . S
H1463 C1471 0.950 . S
H1464 C1469 0.950 . S
H1465 C1470 0.949 . S
H1466 C1472 0.950 . S
H1467 C1473 0.950 . S
H1468 C1474 0.949 . S
C1469 H1464 0.950 . S
C1469 C1471 1.327 . S
C1469 C1475 1.429 . S
C1470 C1462 1.574 . S
C1470 H1465 0.949 . S
C1470 C1476 1.368 . S
C1471 C1455 1.349 . S
C1471 H1463 0.950 . S
C1471 C1469 1.327 . S
C1472 C1460 1.349 . S
C1472 H1466 0.950 . S
C1472 C1473 1.327 . S
C1473 H1467 0.950 . S
C1473 C1472 1.327 . S
C1473 C1477 1.429 . S
C1474 C1457 1.574 . S
C1474 H1468 0.949 . S
C1474 C1478 1.368 . S
C1475 C1456 1.429 . S
C1475 C1469 1.429 . S
C1475 C1476 1.523 . S
C1476 C1457 1.368 . S
C1476 C1470 1.368 . S
C1476 C1475 1.523 . S
C1477 C1461 1.429 . S
C1477 C1473 1.429 . S
C1477 C1478 1.523 1_545 S
C1478 C1462 1.368 . S
C1478 C1474 1.368 . S
C1478 C1477 1.523 1_565 S
H1479 C1454 0.950 . S
H1480 C1456 0.950 . S
H1481 C1457 0.949 . S
H1482 C1459 0.950 . S
H1483 C1461 0.950 . S
C1484 C1485 1.349 . S
C1484 C1486 1.327 . S
C1484 H1509 0.950 . S
C1485 C1484 1.349 . S
C1485 C1501 1.349 . S
C1486 C1484 1.327 . S
C1486 C1505 1.429 . S
C1486 H1510 0.950 . S
C1487 C1504 1.574 1_455 S
C1487 C1506 1.368 . S
C1487 H1511 0.949 . S
H1488 C1492 0.949 . S
C1489 C1490 1.349 . S
C1489 C1491 1.327 . S
C1489 H1512 0.950 . S
C1490 C1489 1.349 . S
C1490 C1502 1.349 . S
C1491 C1489 1.327 . S
C1491 C1507 1.429 . S
C1491 H1513 0.950 . S
C1492 H1488 0.949 . S
C1492 C1500 1.541 1_655 S
C1492 C1508 1.368 . S
H1493 C1501 0.950 . S
H1494 C1499 0.950 . S
H1495 C1500 0.961 . S
H1496 C1502 0.950 . S
H1497 C1503 0.950 . S
H1498 C1504 0.949 . S
C1499 H1494 0.950 . S
C1499 C1501 1.327 . S
C1499 C1505 1.429 . S
C1500 C1492 1.541 1_455 S
C1500 H1495 0.961 . S
C1500 C1506 1.389 . S
C1501 C1485 1.349 . S
C1501 H1493 0.950 . S
C1501 C1499 1.327 . S
C1502 C1490 1.349 . S
C1502 H1496 0.950 . S
C1502 C1503 1.327 . S
C1503 H1497 0.950 . S
C1503 C1502 1.327 . S
C1503 C1507 1.429 . S
C1504 C1487 1.574 1_655 S
C1504 H1498 0.949 . S
C1504 C1508 1.368 . S
C1505 C1486 1.429 . S
C1505 C1499 1.429 . S
C1505 C1506 1.523 . S
C1506 C1487 1.368 . S
C1506 C1500 1.389 . S
C1506 C1505 1.523 . S
C1507 C1491 1.429 . S
C1507 C1503 1.429 . S
C1507 C1508 1.523 . S
C1508 C1492 1.368 . S
C1508 C1504 1.368 . S
C1508 C1507 1.523 . S
H1509 C1484 0.950 . S
H1510 C1486 0.950 . S
H1511 C1487 0.949 . S
H1512 C1489 0.950 . S
H1513 C1491 0.950 . S
C1514 C1515 1.349 . S
C1514 C1516 1.327 . S
C1514 H1539 0.950 . S
C1515 C1514 1.349 . S
C1515 C1531 1.349 . S
C1516 C1514 1.327 . S
C1516 C1535 1.429 . S
C1516 H1540 0.950 . S
C1517 C1534 1.574 . S
C1517 C1536 1.368 . S
C1517 H1541 0.949 . S
H1518 C1522 0.949 . S
C1519 C1520 1.349 . S
C1519 C1521 1.327 . S
C1519 H1542 0.950 . S
C1520 C1519 1.349 . S
C1520 C1532 1.349 . S
C1521 C1519 1.327 . S
C1521 C1537 1.429 . S
C1521 H1543 0.950 . S
C1522 H1518 0.949 . S
C1522 C1530 1.574 . S
C1522 C1538 1.368 . S
H1523 C1531 0.950 . S
H1524 C1529 0.950 . S
H1525 C1530 0.949 . S
H1526 C1532 0.950 . S
H1527 C1533 0.950 . S
H1528 C1534 0.949 . S
C1529 H1524 0.950 . S
C1529 C1531 1.327 . S
C1529 C1535 1.429 . S
C1530 C1522 1.574 . S
C1530 H1525 0.949 . S
C1530 C1536 1.368 . S
C1531 C1515 1.349 . S
C1531 H1523 0.950 . S
C1531 C1529 1.327 . S
C1532 C1520 1.349 . S
C1532 H1526 0.950 . S
C1532 C1533 1.327 . S
C1533 H1527 0.950 . S
C1533 C1532 1.327 . S
C1533 C1537 1.429 . S
C1534 C1517 1.574 . S
C1534 H1528 0.949 . S
C1534 C1538 1.368 . S
C1535 C1516 1.429 . S
C1535 C1529 1.429 . S
C1535 C1536 1.523 1_565 S
C1536 C1517 1.368 . S
C1536 C1530 1.368 . S
C1536 C1535 1.523 1_545 S
C1537 C1521 1.429 . S
C1537 C1533 1.429 . S
C1537 C1538 1.523 . S
C1538 C1522 1.368 . S
C1538 C1534 1.368 . S
C1538 C1537 1.523 . S
H1539 C1514 0.950 . S
H1540 C1516 0.950 . S
H1541 C1517 0.949 . S
H1542 C1519 0.950 . S
H1543 C1521 0.950 . S
C1544 C1545 1.349 . S
C1544 C1546 1.327 . S
C1544 H1569 0.950 . S
C1545 C1544 1.349 . S
C1545 C1561 1.349 . S
C1546 C1544 1.327 . S
C1546 C1565 1.429 . S
C1546 H1570 0.950 . S
C1547 C1564 1.574 . S
C1547 C1566 1.368 . S
C1547 H1571 0.949 . S
H1548 C1552 0.949 . S
C1549 C1550 1.349 . S
C1549 C1551 1.327 . S
C1549 H1572 0.950 . S
C1550 C1549 1.349 . S
C1550 C1562 1.349 . S
C1551 C1549 1.327 . S
C1551 C1567 1.429 . S
C1551 H1573 0.950 . S
C1552 H1548 0.949 . S
C1552 C1560 1.574 . S
C1552 C1568 1.368 . S
H1553 C1561 0.950 . S
H1554 C1559 0.950 . S
H1555 C1560 0.949 . S
H1556 C1562 0.950 . S
H1557 C1563 0.950 . S
H1558 C1564 0.949 . S
C1559 H1554 0.950 . S
C1559 C1561 1.327 . S
C1559 C1565 1.429 . S
C1560 C1552 1.574 . S
C1560 H1555 0.949 . S
C1560 C1566 1.368 . S
C1561 C1545 1.349 . S
C1561 H1553 0.950 . S
C1561 C1559 1.327 . S
C1562 C1550 1.349 . S
C1562 H1556 0.950 . S
C1562 C1563 1.327 . S
C1563 H1557 0.950 . S
C1563 C1562 1.327 . S
C1563 C1567 1.429 . S
C1564 C1547 1.574 . S
C1564 H1558 0.949 . S
C1564 C1568 1.368 . S
C1565 C1546 1.429 . S
C1565 C1559 1.429 . S
C1565 C1566 1.523 . S
C1566 C1547 1.368 . S
C1566 C1560 1.368 . S
C1566 C1565 1.523 . S
C1567 C1551 1.429 . S
C1567 C1563 1.429 . S
C1567 C1568 1.523 . S
C1568 C1552 1.368 . S
C1568 C1564 1.368 . S
C1568 C1567 1.523 . S
H1569 C1544 0.950 . S
H1570 C1546 0.950 . S
H1571 C1547 0.949 . S
H1572 C1549 0.950 . S
H1573 C1551 0.950 . S
C1574 C1575 1.349 . S
C1574 C1576 1.327 . S
C1574 H1599 0.950 . S
C1575 C1574 1.349 . S
C1575 C1591 1.349 . S
C1576 C1574 1.327 . S
C1576 C1595 1.429 . S
C1576 H1600 0.950 . S
C1577 C1594 1.574 . S
C1577 C1596 1.368 . S
C1577 H1601 0.949 . S
H1578 C1582 0.949 . S
C1579 C1580 1.349 . S
C1579 C1581 1.327 . S
C1579 H1602 0.950 . S
C1580 C1579 1.349 . S
C1580 C1592 1.349 . S
C1581 C1579 1.327 . S
C1581 C1597 1.429 . S
C1581 H1603 0.950 . S
C1582 H1578 0.949 . S
C1582 C1590 1.574 . S
C1582 C1598 1.368 . S
H1583 C1591 0.950 . S
H1584 C1589 0.950 . S
H1585 C1590 0.949 . S
H1586 C1592 0.950 . S
H1587 C1593 0.950 . S
H1588 C1594 0.949 . S
C1589 H1584 0.950 . S
C1589 C1591 1.327 . S
C1589 C1595 1.429 . S
C1590 C1582 1.574 . S
C1590 H1585 0.949 . S
C1590 C1596 1.368 . S
C1591 C1575 1.349 . S
C1591 H1583 0.950 . S
C1591 C1589 1.327 . S
C1592 C1580 1.349 . S
C1592 H1586 0.950 . S
C1592 C1593 1.327 . S
C1593 H1587 0.950 . S
C1593 C1592 1.327 . S
C1593 C1597 1.429 . S
C1594 C1577 1.574 . S
C1594 H1588 0.949 . S
C1594 C1598 1.368 . S
C1595 C1576 1.429 . S
C1595 C1589 1.429 . S
C1595 C1596 1.523 . S
C1596 C1577 1.368 . S
C1596 C1590 1.368 . S
C1596 C1595 1.523 . S
C1597 C1581 1.429 . S
C1597 C1593 1.429 . S
C1597 C1598 1.523 . S
C1598 C1582 1.368 . S
C1598 C1594 1.368 . S
C1598 C1597 1.523 . S
H1599 C1574 0.950 . S
H1600 C1576 0.950 . S
H1601 C1577 0.949 . S
H1602 C1579 0.950 . S
H1603 C1581 0.950 . S
C1604 C1605 1.349 . S
C1604 C1606 1.327 . S
C1604 H1629 0.950 . S
C1605 C1604 1.349 . S
C1605 C1621 1.349 . S
C1606 C1604 1.327 . S
C1606 C1625 1.429 . S
C1606 H1630 0.950 . S
C1607 C1624 1.574 . S
C1607 C1626 1.368 . S
C1607 H1631 0.949 . S
H1608 C1612 0.949 . S
C1609 C1610 1.349 . S
C1609 C1611 1.327 . S
C1609 H1632 0.950 . S
C1610 C1609 1.349 . S
C1610 C1622 1.349 . S
C1611 C1609 1.327 . S
C1611 C1627 1.429 . S
C1611 H1633 0.950 . S
C1612 H1608 0.949 . S
C1612 C1620 1.574 . S
C1612 C1628 1.368 . S
H1613 C1621 0.950 . S
H1614 C1619 0.950 . S
H1615 C1620 0.949 . S
H1616 C1622 0.950 . S
H1617 C1623 0.950 . S
H1618 C1624 0.949 . S
C1619 H1614 0.950 . S
C1619 C1621 1.327 . S
C1619 C1625 1.429 . S
C1620 C1612 1.574 . S
C1620 H1615 0.949 . S
C1620 C1626 1.368 . S
C1621 C1605 1.349 . S
C1621 H1613 0.950 . S
C1621 C1619 1.327 . S
C1622 C1610 1.349 . S
C1622 H1616 0.950 . S
C1622 C1623 1.327 . S
C1623 H1617 0.950 . S
C1623 C1622 1.327 . S
C1623 C1627 1.429 . S
C1624 C1607 1.574 . S
C1624 H1618 0.949 . S
C1624 C1628 1.368 . S
C1625 C1606 1.429 . S
C1625 C1619 1.429 . S
C1625 C1626 1.523 . S
C1626 C1607 1.368 . S
C1626 C1620 1.368 . S
C1626 C1625 1.523 . S
C1627 C1611 1.429 . S
C1627 C1623 1.429 . S
C1627 C1628 1.523 . S
C1628 C1612 1.368 . S
C1628 C1624 1.368 . S
C1628 C1627 1.523 . S
H1629 C1604 0.950 . S
H1630 C1606 0.950 . S
H1631 C1607 0.949 . S
H1632 C1609 0.950 . S
H1633 C1611 0.950 . S
C1634 C1635 1.349 . S
C1634 C1636 1.327 . S
C1634 H1659 0.950 . S
C1635 C1634 1.349 . S
C1635 C1651 1.349 . S
C1636 C1634 1.327 . S
C1636 C1655 1.429 . S
C1636 H1660 0.950 . S
C1637 C1654 1.574 . S
C1637 C1656 1.368 . S
C1637 H1661 0.949 . S
H1638 C1642 0.949 . S
C1639 C1640 1.349 . S
C1639 C1641 1.327 . S
C1639 H1662 0.950 . S
C1640 C1639 1.349 . S
C1640 C1652 1.349 . S
C1641 C1639 1.327 . S
C1641 C1657 1.429 . S
C1641 H1663 0.950 . S
C1642 H1638 0.949 . S
C1642 C1650 1.574 . S
C1642 C1658 1.368 . S
H1643 C1651 0.950 . S
H1644 C1649 0.950 . S
H1645 C1650 0.949 . S
H1646 C1652 0.950 . S
H1647 C1653 0.950 . S
H1648 C1654 0.949 . S
C1649 H1644 0.950 . S
C1649 C1651 1.327 . S
C1649 C1655 1.429 . S
C1650 C1642 1.574 . S
C1650 H1645 0.949 . S
C1650 C1656 1.368 . S
C1651 C1635 1.349 . S
C1651 H1643 0.950 . S
C1651 C1649 1.327 . S
C1652 C1640 1.349 . S
C1652 H1646 0.950 . S
C1652 C1653 1.327 . S
C1653 H1647 0.950 . S
C1653 C1652 1.327 . S
C1653 C1657 1.429 . S
C1654 C1637 1.574 . S
C1654 H1648 0.949 . S
C1654 C1658 1.368 . S
C1655 C1636 1.429 . S
C1655 C1649 1.429 . S
C1655 C1656 1.523 . S
C1656 C1637 1.368 . S
C1656 C1650 1.368 . S
C1656 C1655 1.523 . S
C1657 C1641 1.429 . S
C1657 C1653 1.429 . S
C1657 C1658 1.523 . S
C1658 C1642 1.368 . S
C1658 C1654 1.368 . S
C1658 C1657 1.523 . S
H1659 C1634 0.950 . S
H1660 C1636 0.950 . S
H1661 C1637 0.949 . S
H1662 C1639 0.950 . S
H1663 C1641 0.950 . S
C1664 C1665 1.349 . S
C1664 C1666 1.327 . S
C1664 H1689 0.950 . S
C1665 C1664 1.349 . S
C1665 C1681 1.349 . S
C1666 C1664 1.327 . S
C1666 C1685 1.429 . S
C1666 H1690 0.950 . S
C1667 C1684 1.574 . S
C1667 C1686 1.368 . S
C1667 H1691 0.949 . S
H1668 C1672 0.949 . S
C1669 C1670 1.349 . S
C1669 C1671 1.327 . S
C1669 H1692 0.950 . S
C1670 C1669 1.349 . S
C1670 C1682 1.349 . S
C1671 C1669 1.327 . S
C1671 C1687 1.429 . S
C1671 H1693 0.950 . S
C1672 H1668 0.949 . S
C1672 C1680 1.574 . S
C1672 C1688 1.368 . S
H1673 C1681 0.950 . S
H1674 C1679 0.950 . S
H1675 C1680 0.949 . S
H1676 C1682 0.950 . S
H1677 C1683 0.950 . S
H1678 C1684 0.949 . S
C1679 H1674 0.950 . S
C1679 C1681 1.327 . S
C1679 C1685 1.429 . S
C1680 C1672 1.574 . S
C1680 H1675 0.949 . S
C1680 C1686 1.368 . S
C1681 C1665 1.349 . S
C1681 H1673 0.950 . S
C1681 C1679 1.327 . S
C1682 C1670 1.349 . S
C1682 H1676 0.950 . S
C1682 C1683 1.327 . S
C1683 H1677 0.950 . S
C1683 C1682 1.327 . S
C1683 C1687 1.429 . S
C1684 C1667 1.574 . S
C1684 H1678 0.949 . S
C1684 C1688 1.368 . S
C1685 C1666 1.429 . S
C1685 C1679 1.429 . S
C1685 C1686 1.523 . S
C1686 C1667 1.368 . S
C1686 C1680 1.368 . S
C1686 C1685 1.523 . S
C1687 C1671 1.429 . S
C1687 C1683 1.429 . S
C1687 C1688 1.523 . S
C1688 C1672 1.368 . S
C1688 C1684 1.368 . S
C1688 C1687 1.523 . S
H1689 C1664 0.950 . S
H1690 C1666 0.950 . S
H1691 C1667 0.949 . S
H1692 C1669 0.950 . S
H1693 C1671 0.950 . S
C1694 C1695 1.349 . S
C1694 C1696 1.327 . S
C1694 H1719 0.950 . S
C1695 C1694 1.349 . S
C1695 C1711 1.349 . S
C1696 C1694 1.327 . S
C1696 C1715 1.429 . S
C1696 H1720 0.950 . S
C1697 C1714 1.574 . S
C1697 C1716 1.368 . S
C1697 H1721 0.949 . S
H1698 C1702 0.949 . S
C1699 C1700 1.349 . S
C1699 C1701 1.327 . S
C1699 H1722 0.950 . S
C1700 C1699 1.349 . S
C1700 C1712 1.349 . S
C1701 C1699 1.327 . S
C1701 C1717 1.429 . S
C1701 H1723 0.950 . S
C1702 H1698 0.949 . S
C1702 C1710 1.574 . S
C1702 C1718 1.368 . S
H1703 C1711 0.950 . S
H1704 C1709 0.950 . S
H1705 C1710 0.949 . S
H1706 C1712 0.950 . S
H1707 C1713 0.950 . S
H1708 C1714 0.949 . S
C1709 H1704 0.950 . S
C1709 C1711 1.327 . S
C1709 C1715 1.429 . S
C1710 C1702 1.574 . S
C1710 H1705 0.949 . S
C1710 C1716 1.368 . S
C1711 C1695 1.349 . S
C1711 H1703 0.950 . S
C1711 C1709 1.327 . S
C1712 C1700 1.349 . S
C1712 H1706 0.950 . S
C1712 C1713 1.327 . S
C1713 H1707 0.950 . S
C1713 C1712 1.327 . S
C1713 C1717 1.429 . S
C1714 C1697 1.574 . S
C1714 H1708 0.949 . S
C1714 C1718 1.368 . S
C1715 C1696 1.429 . S
C1715 C1709 1.429 . S
C1715 C1716 1.523 . S
C1716 C1697 1.368 . S
C1716 C1710 1.368 . S
C1716 C1715 1.523 . S
C1717 C1701 1.429 . S
C1717 C1713 1.429 . S
C1717 C1718 1.523 . S
C1718 C1702 1.368 . S
C1718 C1714 1.368 . S
C1718 C1717 1.523 . S
H1719 C1694 0.950 . S
H1720 C1696 0.950 . S
H1721 C1697 0.949 . S
H1722 C1699 0.950 . S
H1723 C1701 0.950 . S
C1724 C1725 1.349 . S
C1724 C1726 1.327 . S
C1724 H1749 0.950 . S
C1725 C1724 1.349 . S
C1725 C1741 1.349 . S
C1726 C1724 1.327 . S
C1726 C1745 1.429 . S
C1726 H1750 0.950 . S
C1727 C1744 1.574 . S
C1727 C1746 1.368 . S
C1727 H1751 0.949 . S
H1728 C1732 0.949 . S
C1729 C1730 1.349 . S
C1729 C1731 1.327 . S
C1729 H1752 0.950 . S
C1730 C1729 1.349 . S
C1730 C1742 1.349 . S
C1731 C1729 1.327 . S
C1731 C1747 1.429 . S
C1731 H1753 0.950 . S
C1732 H1728 0.949 . S
C1732 C1740 1.574 . S
C1732 C1748 1.368 . S
H1733 C1741 0.950 . S
H1734 C1739 0.950 . S
H1735 C1740 0.949 . S
H1736 C1742 0.950 . S
H1737 C1743 0.950 . S
H1738 C1744 0.949 . S
C1739 H1734 0.950 . S
C1739 C1741 1.327 . S
C1739 C1745 1.429 . S
C1740 C1732 1.574 . S
C1740 H1735 0.949 . S
C1740 C1746 1.368 . S
C1741 C1725 1.349 . S
C1741 H1733 0.950 . S
C1741 C1739 1.327 . S
C1742 C1730 1.349 . S
C1742 H1736 0.950 . S
C1742 C1743 1.327 . S
C1743 H1737 0.950 . S
C1743 C1742 1.327 . S
C1743 C1747 1.429 . S
C1744 C1727 1.574 . S
C1744 H1738 0.949 . S
C1744 C1748 1.368 . S
C1745 C1726 1.429 . S
C1745 C1739 1.429 . S
C1745 C1746 1.523 . S
C1746 C1727 1.368 . S
C1746 C1740 1.368 . S
C1746 C1745 1.523 . S
C1747 C1731 1.429 . S
C1747 C1743 1.429 . S
C1747 C1748 1.523 . S
C1748 C1732 1.368 . S
C1748 C1744 1.368 . S
C1748 C1747 1.523 . S
H1749 C1724 0.950 . S
H1750 C1726 0.950 . S
H1751 C1727 0.949 . S
H1752 C1729 0.950 . S
H1753 C1731 0.950 . S
C1754 C1755 1.349 . S
C1754 C1756 1.327 . S
C1754 H1779 0.950 . S
C1755 C1754 1.349 . S
C1755 C1771 1.349 . S
C1756 C1754 1.327 . S
C1756 C1775 1.429 . S
C1756 H1780 0.950 . S
C1757 C1774 1.574 . S
C1757 C1776 1.368 . S
C1757 H1781 0.949 . S
H1758 C1762 0.949 . S
C1759 C1760 1.349 . S
C1759 C1761 1.327 . S
C1759 H1782 0.950 . S
C1760 C1759 1.349 . S
C1760 C1772 1.349 . S
C1761 C1759 1.327 . S
C1761 C1777 1.429 . S
C1761 H1783 0.950 . S
C1762 H1758 0.949 . S
C1762 C1770 1.574 . S
C1762 C1778 1.368 . S
H1763 C1771 0.950 . S
H1764 C1769 0.950 . S
H1765 C1770 0.949 . S
H1766 C1772 0.950 . S
H1767 C1773 0.950 . S
H1768 C1774 0.949 . S
C1769 H1764 0.950 . S
C1769 C1771 1.327 . S
C1769 C1775 1.429 . S
C1770 C1762 1.574 . S
C1770 H1765 0.949 . S
C1770 C1776 1.368 . S
C1771 C1755 1.349 . S
C1771 H1763 0.950 . S
C1771 C1769 1.327 . S
C1772 C1760 1.349 . S
C1772 H1766 0.950 . S
C1772 C1773 1.327 . S
C1773 H1767 0.950 . S
C1773 C1772 1.327 . S
C1773 C1777 1.429 . S
C1774 C1757 1.574 . S
C1774 H1768 0.949 . S
C1774 C1778 1.368 . S
C1775 C1756 1.429 . S
C1775 C1769 1.429 . S
C1775 C1776 1.523 . S
C1776 C1757 1.368 . S
C1776 C1770 1.368 . S
C1776 C1775 1.523 . S
C1777 C1761 1.429 . S
C1777 C1773 1.429 . S
C1777 C1778 1.523 . S
C1778 C1762 1.368 . S
C1778 C1774 1.368 . S
C1778 C1777 1.523 . S
H1779 C1754 0.950 . S
H1780 C1756 0.950 . S
H1781 C1757 0.949 . S
H1782 C1759 0.950 . S
H1783 C1761 0.950 . S
C1784 C1785 1.349 . S
C1784 C1786 1.327 . S
C1784 H1809 0.950 . S
C1785 C1784 1.349 . S
C1785 C1801 1.349 . S
C1786 C1784 1.327 . S
C1786 C1805 1.429 . S
C1786 H1810 0.950 . S
C1787 C1804 1.574 . S
C1787 C1806 1.368 . S
C1787 H1811 0.949 . S
H1788 C1792 0.949 . S
C1789 C1790 1.349 . S
C1789 C1791 1.327 . S
C1789 H1812 0.950 . S
C1790 C1789 1.349 . S
C1790 C1802 1.349 . S
C1791 C1789 1.327 . S
C1791 C1807 1.429 . S
C1791 H1813 0.950 . S
C1792 H1788 0.949 . S
C1792 C1800 1.574 . S
C1792 C1808 1.368 . S
H1793 C1801 0.950 . S
H1794 C1799 0.950 . S
H1795 C1800 0.949 . S
H1796 C1802 0.950 . S
H1797 C1803 0.950 . S
H1798 C1804 0.949 . S
C1799 H1794 0.950 . S
C1799 C1801 1.327 . S
C1799 C1805 1.429 . S
C1800 C1792 1.574 . S
C1800 H1795 0.949 . S
C1800 C1806 1.368 . S
C1801 C1785 1.349 . S
C1801 H1793 0.950 . S
C1801 C1799 1.327 . S
C1802 C1790 1.349 . S
C1802 H1796 0.950 . S
C1802 C1803 1.327 . S
C1803 H1797 0.950 . S
C1803 C1802 1.327 . S
C1803 C1807 1.429 . S
C1804 C1787 1.574 . S
C1804 H1798 0.949 . S
C1804 C1808 1.368 . S
C1805 C1786 1.429 . S
C1805 C1799 1.429 . S
C1805 C1806 1.523 . S
C1806 C1787 1.368 . S
C1806 C1800 1.368 . S
C1806 C1805 1.523 . S
C1807 C1791 1.429 . S
C1807 C1803 1.429 . S
C1807 C1808 1.523 . S
C1808 C1792 1.368 . S
C1808 C1804 1.368 . S
C1808 C1807 1.523 . S
H1809 C1784 0.950 . S
H1810 C1786 0.950 . S
H1811 C1787 0.949 . S
H1812 C1789 0.950 . S
H1813 C1791 0.950 . S
C1814 C1815 1.349 . S
C1814 C1816 1.327 . S
C1814 H1839 0.950 . S
C1815 C1814 1.349 . S
C1815 C1831 1.349 . S
C1816 C1814 1.327 . S
C1816 C1835 1.429 . S
C1816 H1840 0.950 . S
C1817 C1834 1.574 . S
C1817 C1836 1.368 . S
C1817 H1841 0.949 . S
H1818 C1822 0.949 . S
C1819 C1820 1.349 . S
C1819 C1821 1.327 . S
C1819 H1842 0.950 . S
C1820 C1819 1.349 . S
C1820 C1832 1.349 . S
C1821 C1819 1.327 . S
C1821 C1837 1.429 . S
C1821 H1843 0.950 . S
C1822 H1818 0.949 . S
C1822 C1830 1.574 . S
C1822 C1838 1.368 . S
H1823 C1831 0.950 . S
H1824 C1829 0.950 . S
H1825 C1830 0.949 . S
H1826 C1832 0.950 . S
H1827 C1833 0.950 . S
H1828 C1834 0.949 . S
C1829 H1824 0.950 . S
C1829 C1831 1.327 . S
C1829 C1835 1.429 . S
C1830 C1822 1.574 . S
C1830 H1825 0.949 . S
C1830 C1836 1.368 . S
C1831 C1815 1.349 . S
C1831 H1823 0.950 . S
C1831 C1829 1.327 . S
C1832 C1820 1.349 . S
C1832 H1826 0.950 . S
C1832 C1833 1.327 . S
C1833 H1827 0.950 . S
C1833 C1832 1.327 . S
C1833 C1837 1.429 . S
C1834 C1817 1.574 . S
C1834 H1828 0.949 . S
C1834 C1838 1.368 . S
C1835 C1816 1.429 . S
C1835 C1829 1.429 . S
C1835 C1836 1.523 . S
C1836 C1817 1.368 . S
C1836 C1830 1.368 . S
C1836 C1835 1.523 . S
C1837 C1821 1.429 . S
C1837 C1833 1.429 . S
C1837 C1838 1.523 . S
C1838 C1822 1.368 . S
C1838 C1834 1.368 . S
C1838 C1837 1.523 . S
H1839 C1814 0.950 . S
H1840 C1816 0.950 . S
H1841 C1817 0.949 . S
H1842 C1819 0.950 . S
H1843 C1821 0.950 . S
C1844 C1845 1.349 . S
C1844 C1846 1.327 . S
C1844 H1869 0.950 . S
C1845 C1844 1.349 . S
C1845 C1861 1.349 . S
C1846 C1844 1.327 . S
C1846 C1865 1.429 . S
C1846 H1870 0.950 . S
C1847 C1864 1.574 . S
C1847 C1866 1.368 . S
C1847 H1871 0.949 . S
H1848 C1852 0.949 . S
C1849 C1850 1.349 . S
C1849 C1851 1.327 . S
C1849 H1872 0.950 . S
C1850 C1849 1.349 . S
C1850 C1862 1.349 . S
C1851 C1849 1.327 . S
C1851 C1867 1.429 . S
C1851 H1873 0.950 . S
C1852 H1848 0.949 . S
C1852 C1860 1.574 . S
C1852 C1868 1.368 . S
H1853 C1861 0.950 . S
H1854 C1859 0.950 . S
H1855 C1860 0.949 . S
H1856 C1862 0.950 . S
H1857 C1863 0.950 . S
H1858 C1864 0.949 . S
C1859 H1854 0.950 . S
C1859 C1861 1.327 . S
C1859 C1865 1.429 . S
C1860 C1852 1.574 . S
C1860 H1855 0.949 . S
C1860 C1866 1.368 . S
C1861 C1845 1.349 . S
C1861 H1853 0.950 . S
C1861 C1859 1.327 . S
C1862 C1850 1.349 . S
C1862 H1856 0.950 . S
C1862 C1863 1.327 . S
C1863 H1857 0.950 . S
C1863 C1862 1.327 . S
C1863 C1867 1.429 . S
C1864 C1847 1.574 . S
C1864 H1858 0.949 . S
C1864 C1868 1.368 . S
C1865 C1846 1.429 . S
C1865 C1859 1.429 . S
C1865 C1866 1.523 . S
C1866 C1847 1.368 . S
C1866 C1860 1.368 . S
C1866 C1865 1.523 . S
C1867 C1851 1.429 . S
C1867 C1863 1.429 . S
C1867 C1868 1.523 . S
C1868 C1852 1.368 . S
C1868 C1864 1.368 . S
C1868 C1867 1.523 . S
H1869 C1844 0.950 . S
H1870 C1846 0.950 . S
H1871 C1847 0.949 . S
H1872 C1849 0.950 . S
H1873 C1851 0.950 . S
C1874 C1875 1.349 . S
C1874 C1876 1.327 . S
C1874 H1899 0.950 . S
C1875 C1874 1.349 . S
C1875 C1891 1.349 . S
C1876 C1874 1.327 . S
C1876 C1895 1.429 . S
C1876 H1900 0.950 . S
C1877 C1894 1.574 . S
C1877 C1896 1.368 . S
C1877 H1901 0.949 . S
H1878 C1882 0.949 . S
C1879 C1880 1.349 . S
C1879 C1881 1.327 . S
C1879 H1902 0.950 . S
C1880 C1879 1.349 . S
C1880 C1892 1.349 . S
C1881 C1879 1.327 . S
C1881 C1897 1.429 . S
C1881 H1903 0.950 . S
C1882 H1878 0.949 . S
C1882 C1890 1.574 . S
C1882 C1898 1.368 . S
H1883 C1891 0.950 . S
H1884 C1889 0.950 . S
H1885 C1890 0.949 . S
H1886 C1892 0.950 . S
H1887 C1893 0.950 . S
H1888 C1894 0.949 . S
C1889 H1884 0.950 . S
C1889 C1891 1.327 . S
C1889 C1895 1.429 . S
C1890 C1882 1.574 . S
C1890 H1885 0.949 . S
C1890 C1896 1.368 . S
C1891 C1875 1.349 . S
C1891 H1883 0.950 . S
C1891 C1889 1.327 . S
C1892 C1880 1.349 . S
C1892 H1886 0.950 . S
C1892 C1893 1.327 . S
C1893 H1887 0.950 . S
C1893 C1892 1.327 . S
C1893 C1897 1.429 . S
C1894 C1877 1.574 . S
C1894 H1888 0.949 . S
C1894 C1898 1.368 . S
C1895 C1876 1.429 . S
C1895 C1889 1.429 . S
C1895 C1896 1.523 . S
C1896 C1877 1.368 . S
C1896 C1890 1.368 . S
C1896 C1895 1.523 . S
C1897 C1881 1.429 . S
C1897 C1893 1.429 . S
C1897 C1898 1.523 . S
C1898 C1882 1.368 . S
C1898 C1894 1.368 . S
C1898 C1897 1.523 . S
H1899 C1874 0.950 . S
H1900 C1876 0.950 . S
H1901 C1877 0.949 . S
H1902 C1879 0.950 . S
H1903 C1881 0.950 . S
C945 C890 1.102 . S
C950 C5 1.109 . S
C975 C713 1.038 . S
C980 C64 1.038 . S
C1005 C123 1.488 . S
C1010 C772 1.450 . S
C1035 C831 1.329 . S
C1040 C182 1.360 . S
C1065 C536 1.038 . S
C1070 C241 1.038 . S
C1095 C300 1.450 . S
C1100 C595 1.488 . S
C1125 C359 1.329 . S
C1130 C654 1.360 . S
C1155 C418 1.102 . S
C1160 C477 1.109 . S
C1185 C347 2.361 . S
C1190 C33 2.326 . S
C1215 C357 1.113 . S
C1220 C62 1.122 . S
C1245 C465 1.561 . S
C1250 C151 1.536 . S
C1275 C180 1.568 . S
C1280 C269 1.606 . S
C1305 C52 1.438 . S
C1310 C111 1.419 . S
C1335 C121 1.153 . S
C1340 C92 1.186 . S
C1365 C170 1.304 . S
C1370 C229 1.301 . S
C1395 C3 1.136 . S
C1400 C210 1.127 . S
C1425 C446 1.053 . S
C1430 C288 1.043 . S
C1455 C239 1.885 . S
C1460 C298 1.878 . S
C1485 C328 1.257 . S
C1490 C387 1.240 . S
C1515 C416 2.145 . S
C1520 C406 2.176 . S
C1545 C819 2.361 . S
C1550 C505 2.326 . S
C1575 C534 1.122 . S
C1580 C829 1.113 . S
C1605 C937 1.561 . S
C1610 C623 1.536 . S
C1635 C741 1.606 . S
C1640 C652 1.568 . S
C1665 C524 1.438 . S
C1670 C583 1.419 . S
C1695 C564 1.186 . S
C1700 C593 1.153 . S
C1725 C701 1.301 . S
C1730 C642 1.304 . S
C1755 C475 1.136 . S
C1760 C682 1.127 . S
C1785 C918 1.053 . S
C1790 C760 1.043 . S
C1815 C711 1.885 . S
C1820 C770 1.878 . S
C1845 C800 1.257 . S
C1850 C859 1.240 . S
C1875 C888 2.145 . S
C1880 C878 2.176 . S
