# Generated by pormake.
# Topology vbp, (6)-cn, num edge types: 1
# Building blocks:
#     Node 0, Type 0, BuildingBlock: OJICUG_clean_sbu_0, # of connection points: 6
#     Node 1, Type 0, BuildingBlock: OJICUG_clean_sbu_0, # of connection points: 6
#     Node 2, Type 0, BuildingBlock: OJICUG_clean_sbu_0, # of connection points: 6
#     Node 3, Type 0, BuildingBlock: OJICUG_clean_sbu_0, # of connection points: 6
#     Node 4, Type 0, BuildingBlock: OJICUG_clean_sbu_0, # of connection points: 6
#     Node 5, Type 0, BuildingBlock: OJICUG_clean_sbu_0, # of connection points: 6
#     Node 6, Type 0, BuildingBlock: OJICUG_clean_sbu_0, # of connection points: 6
#     Node 7, Type 0, BuildingBlock: OJICUG_clean_sbu_0, # of connection points: 6
#     Node 8, Type 0, BuildingBlock: OJICUG_clean_sbu_0, # of connection points: 6
#     Node 9, Type 0, BuildingBlock: OJICUG_clean_sbu_0, # of connection points: 6
#     Node 10, Type 0, BuildingBlock: OJICUG_clean_sbu_0, # of connection points: 6
#     Node 11, Type 0, BuildingBlock: OJICUG_clean_sbu_0, # of connection points: 6
#     Node 12, Type 0, BuildingBlock: OJICUG_clean_sbu_0, # of connection points: 6
#     Node 13, Type 0, BuildingBlock: OJICUG_clean_sbu_0, # of connection points: 6
#     Node 14, Type 0, BuildingBlock: OJICUG_clean_sbu_0, # of connection points: 6
#     Node 15, Type 0, BuildingBlock: OJICUG_clean_sbu_0, # of connection points: 6
#     Edge 16, Type (0, 0), BuildingBlock: AJUNOK_clean_linker_0, # of connection points: 2
#     Edge 17, Type (0, 0), BuildingBlock: AJUNOK_clean_linker_0, # of connection points: 2
#     Edge 18, Type (0, 0), BuildingBlock: AJUNOK_clean_linker_0, # of connection points: 2
#     Edge 19, Type (0, 0), BuildingBlock: AJUNOK_clean_linker_0, # of connection points: 2
#     Edge 20, Type (0, 0), BuildingBlock: AJUNOK_clean_linker_0, # of connection points: 2
#     Edge 21, Type (0, 0), BuildingBlock: AJUNOK_clean_linker_0, # of connection points: 2
#     Edge 22, Type (0, 0), BuildingBlock: AJUNOK_clean_linker_0, # of connection points: 2
#     Edge 23, Type (0, 0), BuildingBlock: AJUNOK_clean_linker_0, # of connection points: 2
#     Edge 24, Type (0, 0), BuildingBlock: AJUNOK_clean_linker_0, # of connection points: 2
#     Edge 25, Type (0, 0), BuildingBlock: AJUNOK_clean_linker_0, # of connection points: 2
#     Edge 26, Type (0, 0), BuildingBlock: AJUNOK_clean_linker_0, # of connection points: 2
#     Edge 27, Type (0, 0), BuildingBlock: AJUNOK_clean_linker_0, # of connection points: 2
#     Edge 28, Type (0, 0), BuildingBlock: AJUNOK_clean_linker_0, # of connection points: 2
#     Edge 29, Type (0, 0), BuildingBlock: AJUNOK_clean_linker_0, # of connection points: 2
#     Edge 30, Type (0, 0), BuildingBlock: AJUNOK_clean_linker_0, # of connection points: 2
#     Edge 31, Type (0, 0), BuildingBlock: AJUNOK_clean_linker_0, # of connection points: 2
#     Edge 32, Type (0, 0), BuildingBlock: AJUNOK_clean_linker_0, # of connection points: 2
#     Edge 33, Type (0, 0), BuildingBlock: AJUNOK_clean_linker_0, # of connection points: 2
#     Edge 34, Type (0, 0), BuildingBlock: AJUNOK_clean_linker_0, # of connection points: 2
#     Edge 35, Type (0, 0), BuildingBlock: AJUNOK_clean_linker_0, # of connection points: 2
#     Edge 36, Type (0, 0), BuildingBlock: AJUNOK_clean_linker_0, # of connection points: 2
#     Edge 37, Type (0, 0), BuildingBlock: AJUNOK_clean_linker_0, # of connection points: 2
#     Edge 38, Type (0, 0), BuildingBlock: AJUNOK_clean_linker_0, # of connection points: 2
#     Edge 39, Type (0, 0), BuildingBlock: AJUNOK_clean_linker_0, # of connection points: 2
#     Edge 40, Type (0, 0), BuildingBlock: AJUNOK_clean_linker_0, # of connection points: 2
#     Edge 41, Type (0, 0), BuildingBlock: AJUNOK_clean_linker_0, # of connection points: 2
#     Edge 42, Type (0, 0), BuildingBlock: AJUNOK_clean_linker_0, # of connection points: 2
#     Edge 43, Type (0, 0), BuildingBlock: AJUNOK_clean_linker_0, # of connection points: 2
#     Edge 44, Type (0, 0), BuildingBlock: AJUNOK_clean_linker_0, # of connection points: 2
#     Edge 45, Type (0, 0), BuildingBlock: AJUNOK_clean_linker_0, # of connection points: 2
#     Edge 46, Type (0, 0), BuildingBlock: AJUNOK_clean_linker_0, # of connection points: 2
#     Edge 47, Type (0, 0), BuildingBlock: AJUNOK_clean_linker_0, # of connection points: 2
#     Edge 48, Type (0, 0), BuildingBlock: AJUNOK_clean_linker_0, # of connection points: 2
#     Edge 49, Type (0, 0), BuildingBlock: AJUNOK_clean_linker_0, # of connection points: 2
#     Edge 50, Type (0, 0), BuildingBlock: AJUNOK_clean_linker_0, # of connection points: 2
#     Edge 51, Type (0, 0), BuildingBlock: AJUNOK_clean_linker_0, # of connection points: 2
#     Edge 52, Type (0, 0), BuildingBlock: AJUNOK_clean_linker_0, # of connection points: 2
#     Edge 53, Type (0, 0), BuildingBlock: AJUNOK_clean_linker_0, # of connection points: 2
#     Edge 54, Type (0, 0), BuildingBlock: AJUNOK_clean_linker_0, # of connection points: 2
#     Edge 55, Type (0, 0), BuildingBlock: AJUNOK_clean_linker_0, # of connection points: 2
#     Edge 56, Type (0, 0), BuildingBlock: AJUNOK_clean_linker_0, # of connection points: 2
#     Edge 57, Type (0, 0), BuildingBlock: AJUNOK_clean_linker_0, # of connection points: 2
#     Edge 58, Type (0, 0), BuildingBlock: AJUNOK_clean_linker_0, # of connection points: 2
#     Edge 59, Type (0, 0), BuildingBlock: AJUNOK_clean_linker_0, # of connection points: 2
#     Edge 60, Type (0, 0), BuildingBlock: AJUNOK_clean_linker_0, # of connection points: 2
#     Edge 61, Type (0, 0), BuildingBlock: AJUNOK_clean_linker_0, # of connection points: 2
#     Edge 62, Type (0, 0), BuildingBlock: AJUNOK_clean_linker_0, # of connection points: 2
#     Edge 63, Type (0, 0), BuildingBlock: AJUNOK_clean_linker_0, # of connection points: 2
# Relax obj value: 0.262
# Max RMSD: 0.268
# Mean RMSD: 0.268
data_MOF--net-vbp--node1-OJICUG_clean_sbu_0--edge1-AJUNOK_clean_linker_0
_symmetry_space_group_name_H-M    P1
_symmetry_Int_Tables_number       1
_symmetry_cell_setting            triclinic
loop_
_symmetry_equiv_pos_as_xyz
'x, y, z'
_cell_length_a     22.965964
_cell_length_b     31.554708
_cell_length_c     41.065782
_cell_angle_alpha  89.87727
_cell_angle_beta   89.911496
_cell_angle_gamma 89.809274
loop_
_atom_site_label
_atom_site_type_symbol
_atom_site_fract_x
_atom_site_fract_y
_atom_site_fract_z
_atom_type_partial_charge
Sc0 Sc 0.29429 0.1328 0.15873 0.0
Sc1 Sc 0.34325 0.03174 0.13916 0.0
Sc2 Sc 0.40253 0.12004 0.10119 0.0
O3 O 0.34863 0.09515 0.13437 0.0
C4 C 0.28819 0.16934 0.08559 0.0
C5 C 0.21272 0.05509 0.13932 0.0
C6 C 0.37587 0.04011 0.06523 0.0
C7 C 0.31978 0.06259 0.21153 0.0
C8 C 0.41392 0.1885 0.15495 0.0
C9 C 0.47613 0.04451 0.13461 0.0
O10 O 0.26179 0.15762 0.11161 0.0
O11 O 0.25295 0.03319 0.12609 0.0
O12 O 0.36534 0.07937 0.06563 0.0
O13 O 0.32088 0.10271 0.2055 0.0
O14 O 0.43955 0.16317 0.13556 0.0
O15 O 0.43454 0.02887 0.15144 0.0
O16 O 0.36054 0.18342 0.16347 0.0
O17 O 0.31963 0.03493 0.18928 0.0
O18 O 0.46859 0.07419 0.1139 0.0
O19 O 0.22315 0.08815 0.15605 0.0
O20 O 0.34326 0.16799 0.0838 0.0
O21 O 0.36931 0.01785 0.09054 0.0
Sc22 Sc 0.66368 0.40086 0.15685 0.0
Sc23 Sc 0.61373 0.50103 0.13461 0.0
Sc24 Sc 0.55569 0.41104 0.099 0.0
O25 O 0.6088 0.43746 0.13176 0.0
C26 C 0.67016 0.36209 0.08479 0.0
C27 C 0.74446 0.48032 0.13895 0.0
C28 C 0.58314 0.48823 0.06101 0.0
C29 C 0.63223 0.47189 0.20845 0.0
C30 C 0.54344 0.34528 0.1542 0.0
C31 C 0.48073 0.48829 0.12881 0.0
O32 O 0.69725 0.37567 0.10996 0.0
O33 O 0.70483 0.50056 0.12386 0.0
O34 O 0.59685 0.44971 0.06348 0.0
O35 O 0.63628 0.43163 0.20323 0.0
O36 O 0.51749 0.37034 0.1347 0.0
O37 O 0.5223 0.50425 0.14517 0.0
O38 O 0.5974 0.34983 0.1618 0.0
O39 O 0.63183 0.49881 0.18547 0.0
O40 O 0.48824 0.45762 0.10902 0.0
O41 O 0.7342 0.44636 0.15476 0.0
O42 O 0.61501 0.36154 0.08436 0.0
O43 O 0.59163 0.51294 0.08474 0.0
Sc44 Sc 0.30233 0.90014 0.38699 0.0
Sc45 Sc 0.36045 0.9995 0.40495 0.0
Sc46 Sc 0.41542 0.90921 0.44273 0.0
O47 O 0.36061 0.93604 0.41053 0.0
C48 C 0.29821 0.86413 0.46042 0.0
C49 C 0.22733 0.98277 0.40469 0.0
C50 C 0.39695 0.99126 0.47872 0.0
C51 C 0.33286 0.96848 0.3328 0.0
C52 C 0.41852 0.84048 0.38837 0.0
C53 C 0.49313 0.98094 0.40836 0.0
O54 O 0.27126 0.87612 0.43467 0.0
O55 O 0.26949 1.0034 0.41697 0.0
O56 O 0.38655 0.95195 0.47947 0.0
O57 O 0.32608 0.92876 0.33918 0.0
O58 O 0.44617 0.8644 0.40774 0.0
O59 O 0.45161 0.99864 0.39282 0.0
O60 O 0.36513 0.84728 0.38072 0.0
O61 O 0.3395 0.9961 0.35474 0.0
O62 O 0.48486 0.95099 0.42862 0.0
O63 O 0.23431 0.94723 0.39057 0.0
O64 O 0.35334 0.86488 0.46197 0.0
O65 O 0.38647 1.0132 0.45363 0.0
Sc66 Sc 0.55989 0.61882 0.44369 0.0
Sc67 Sc 0.62246 0.52913 0.40947 0.0
Sc68 Sc 0.66769 0.62921 0.38593 0.0
O69 O 0.61449 0.59241 0.41157 0.0
C70 C 0.54612 0.6831 0.38775 0.0
C71 C 0.48913 0.54052 0.41409 0.0
C72 C 0.64198 0.55691 0.33543 0.0
C73 C 0.58826 0.54273 0.48309 0.0
C74 C 0.67242 0.66762 0.45767 0.0
C75 C 0.7519 0.55287 0.4057 0.0
O76 O 0.52069 0.65761 0.40703 0.0
O77 O 0.53124 0.52453 0.39785 0.0
O78 O 0.63995 0.5973 0.34036 0.0
O79 O 0.59974 0.58168 0.48079 0.0
O80 O 0.70063 0.65447 0.4327 0.0
O81 O 0.71333 0.53245 0.42154 0.0
O82 O 0.61738 0.66953 0.45698 0.0
O83 O 0.59745 0.51827 0.4592 0.0
O84 O 0.73964 0.58495 0.38815 0.0
O85 O 0.49562 0.57104 0.434 0.0
O86 O 0.60044 0.67946 0.38073 0.0
O87 O 0.64425 0.53036 0.35869 0.0
Sc88 Sc 0.54655 0.90702 0.94609 0.0
Sc89 Sc 0.59773 0.99687 0.90687 0.0
Sc90 Sc 0.65951 0.89801 0.89039 0.0
O91 O 0.60006 0.9337 0.91332 0.0
C92 C 0.664 0.86388 0.96443 0.0
C93 C 0.5634 0.98949 0.98102 0.0
C94 C 0.73038 0.98202 0.90732 0.0
C95 C 0.4667 0.97659 0.91086 0.0
C96 C 0.5437 0.83882 0.89151 0.0
C97 C 0.62821 0.96511 0.83519 0.0
O98 O 0.60893 0.86233 0.96479 0.0
O99 O 0.5716 1.01068 0.95533 0.0
O100 O 0.72524 0.94602 0.89376 0.0
O101 O 0.47665 0.94846 0.93232 0.0
O102 O 0.59752 0.84481 0.88435 0.0
O103 O 0.61972 0.99266 0.857 0.0
O104 O 0.51609 0.86253 0.91116 0.0
O105 O 0.50704 0.99419 0.89442 0.0
O106 O 0.63619 0.92553 0.84196 0.0
O107 O 0.57534 0.95035 0.98233 0.0
O108 O 0.69118 0.87586 0.93873 0.0
O109 O 0.68761 1.00254 0.91913 0.0
Sc110 Sc 0.30005 0.62432 0.88881 0.0
Sc111 Sc 0.3563 0.52568 0.91045 0.0
Sc112 Sc 0.40835 0.61656 0.94741 0.0
O113 O 0.35643 0.58916 0.91434 0.0
C114 C 0.41729 0.68246 0.89131 0.0
C115 C 0.33292 0.5537 0.83685 0.0
C116 C 0.48763 0.5429 0.91646 0.0
C117 C 0.22449 0.54253 0.90725 0.0
C118 C 0.29103 0.66398 0.96097 0.0
C119 C 0.38421 0.53694 0.98509 0.0
O120 O 0.36424 0.67611 0.88274 0.0
O121 O 0.33735 0.52703 0.8598 0.0
O122 O 0.47854 0.57294 0.93653 0.0
O123 O 0.2318 0.57743 0.89214 0.0
O124 O 0.34603 0.66315 0.9635 0.0
O125 O 0.37956 0.51429 0.9599 0.0
O126 O 0.26579 0.65047 0.93518 0.0
O127 O 0.26566 0.52289 0.92144 0.0
O128 O 0.37298 0.57613 0.98404 0.0
O129 O 0.32708 0.59378 0.84225 0.0
O130 O 0.44322 0.65905 0.91195 0.0
O131 O 0.44742 0.52584 0.89974 0.0
Sc132 Sc 0.55795 0.11671 0.60254 0.0
Sc133 Sc 0.62059 0.02662 0.63641 0.0
Sc134 Sc 0.66678 0.12651 0.6598 0.0
O135 O 0.6132 0.09005 0.63419 0.0
C136 C 0.67157 0.16627 0.58794 0.0
C137 C 0.58513 0.03961 0.563 0.0
C138 C 0.74998 0.05007 0.63887 0.0
C139 C 0.48701 0.03917 0.63399 0.0
C140 C 0.54631 0.18148 0.65861 0.0
C141 C 0.64368 0.05343 0.71006 0.0
O142 O 0.61639 0.16608 0.58712 0.0
O143 O 0.59386 0.01575 0.5873 0.0
O144 O 0.73828 0.08209 0.65652 0.0
O145 O 0.49295 0.07006 0.61421 0.0
O146 O 0.6003 0.17702 0.66594 0.0
O147 O 0.6445 0.02726 0.68668 0.0
O148 O 0.52075 0.15667 0.63902 0.0
O149 O 0.52969 0.02209 0.64907 0.0
O150 O 0.64034 0.09384 0.70546 0.0
O151 O 0.59439 0.07893 0.56472 0.0
O152 O 0.69887 0.15313 0.61325 0.0
O153 O 0.71107 0.02981 0.62328 0.0
Sc154 Sc 0.41603 0.40524 0.59991 0.0
Sc155 Sc 0.36421 0.49744 0.63576 0.0
Sc156 Sc 0.30475 0.39975 0.65691 0.0
O157 O 0.3631 0.43397 0.63204 0.0
C158 C 0.29809 0.36194 0.58443 0.0
C159 C 0.39611 0.48519 0.56124 0.0
C160 C 0.23102 0.48244 0.63798 0.0
C161 C 0.49609 0.47788 0.63099 0.0
C162 C 0.42009 0.33917 0.656 0.0
C163 C 0.33384 0.46987 0.70899 0.0
O164 O 0.35317 0.35968 0.58359 0.0
O165 O 0.39022 0.50798 0.58637 0.0
O166 O 0.23803 0.44772 0.65332 0.0
O167 O 0.48601 0.44766 0.61138 0.0
O168 O 0.36661 0.34625 0.66346 0.0
O169 O 0.34175 0.49625 0.68612 0.0
O170 O 0.44795 0.36262 0.63625 0.0
O171 O 0.45588 0.496 0.64742 0.0
O172 O 0.33036 0.42962 0.70382 0.0
O173 O 0.38556 0.44589 0.56198 0.0
O174 O 0.27164 0.37567 0.60981 0.0
O175 O 0.27302 0.50165 0.62404 0.0
Sc176 Sc 0.80215 0.62888 0.65722 0.0
Sc177 Sc 0.86437 0.53003 0.64075 0.0
Sc178 Sc 0.91462 0.61984 0.60097 0.0
O179 O 0.86162 0.59334 0.63408 0.0
C180 C 0.7961 0.6637 0.58315 0.0
C181 C 0.731 0.54529 0.63853 0.0
C182 C 0.90214 0.5365 0.56713 0.0
C183 C 0.82883 0.56145 0.71199 0.0
C184 C 0.91644 0.68959 0.65495 0.0
C185 C -0.00426 0.5518 0.63777 0.0
O186 O 0.7704 0.65243 0.6095 0.0
O187 O 0.77432 0.5248 0.62698 0.0
O188 O 0.88736 0.57503 0.5655 0.0
O189 O 0.82557 0.60131 0.70539 0.0
O190 O 0.94362 0.66651 0.63467 0.0
O191 O 0.95548 0.53353 0.6541 0.0
O192 O 0.86367 0.68219 0.66355 0.0
O193 O 0.83791 0.53381 0.69029 0.0
O194 O -0.01489 0.57992 0.61636 0.0
O195 O 0.73616 0.58059 0.65323 0.0
O196 O 0.85105 0.66216 0.58059 0.0
O197 O 0.89452 0.51543 0.59293 0.0
Sc198 Sc 0.16749 0.89796 0.65798 0.0
Sc199 Sc 0.12029 0.99907 0.63699 0.0
Sc200 Sc 0.06034 0.91077 0.59999 0.0
O201 O 0.11415 0.93579 0.63302 0.0
C202 C 0.17337 0.86077 0.58554 0.0
C203 C 0.25071 0.97517 0.63919 0.0
C204 C 0.08925 0.98895 0.56268 0.0
C205 C 0.14221 0.96849 0.71015 0.0
C206 C 0.04585 0.84499 0.65533 0.0
C207 C -0.01266 0.98728 0.63139 0.0
O208 O 0.20038 0.87315 0.61105 0.0
O209 O 0.21135 0.99723 0.62527 0.0
O210 O 0.09988 0.9497 0.5639 0.0
O211 O 0.14097 0.92834 0.70447 0.0
O212 O 0.02122 0.87023 0.63548 0.0
O213 O 0.02871 1.00258 0.64841 0.0
O214 O 0.09983 0.8484 0.663 0.0
O215 O 0.14145 0.99589 0.68753 0.0
O216 O -0.00499 0.9578 0.61068 0.0
O217 O 0.23939 0.94186 0.65553 0.0
O218 O 0.11826 0.86083 0.58484 0.0
O219 O 0.09639 1.01196 0.58756 0.0
Sc220 Sc 0.79792 0.39578 0.88677 0.0
Sc221 Sc 0.8574 0.49322 0.91224 0.0
Sc222 Sc 0.9193 0.39759 0.93787 0.0
O223 O 0.85841 0.42898 0.9117 0.0
C224 C 0.79992 0.35732 0.96102 0.0
C225 C 0.72189 0.47465 0.91084 0.0
C226 C 0.89955 0.47777 0.98252 0.0
C227 C 0.83145 0.47248 0.8374 0.0
C228 C 0.90754 0.33301 0.87961 0.0
C229 C -0.00647 0.46932 0.90686 0.0
O230 O 0.77483 0.3623 0.93315 0.0
O231 O 0.76446 0.49841 0.91801 0.0
O232 O 0.9223 0.44291 0.97484 0.0
O233 O 0.8138 0.43402 0.84175 0.0
O234 O 0.93106 0.3475 0.90482 0.0
O235 O 0.95109 0.49551 0.90711 0.0
O236 O 0.85864 0.34654 0.86922 0.0
O237 O 0.84845 0.49571 0.8607 0.0
O238 O -0.01245 0.43015 0.91323 0.0
O239 O 0.72862 0.43797 0.89901 0.0
O240 O 0.85333 0.36602 0.9653 0.0
O241 O 0.86604 0.49838 0.96384 0.0
Sc242 Sc 0.03801 0.1215 0.94108 0.0
Sc243 Sc 0.09754 0.02835 0.90967 0.0
Sc244 Sc 0.15785 0.12769 0.88854 0.0
O245 O 0.09789 0.09247 0.91267 0.0
C246 C 0.04595 0.18864 0.88374 0.0
C247 C 0.96189 0.0525 0.90857 0.0
C248 C 0.12303 0.05446 0.83621 0.0
C249 C 0.06208 0.03716 0.98181 0.0
C250 C 0.1562 0.1641 0.9633 0.0
C251 C 0.23344 0.04687 0.90759 0.0
O252 O 0.02425 0.17354 0.90946 0.0
O253 O 0.00406 0.02632 0.90688 0.0
O254 O 0.14399 0.09143 0.84256 0.0
O255 O 0.03883 0.07282 0.97639 0.0
O256 O 0.18037 0.16095 0.93502 0.0
O257 O 0.19011 0.0228 0.91215 0.0
O258 O 0.10423 0.15226 0.96833 0.0
O259 O 0.09327 0.01802 0.96109 0.0
O260 O 0.22832 0.08563 0.89988 0.0
O261 O 0.96829 0.09091 0.91676 0.0
O262 O 0.09437 0.17566 0.87218 0.0
O263 O 0.10223 0.03044 0.85807 0.0
Sc264 Sc 0.0622 0.41264 0.44365 0.0
Sc265 Sc 0.12244 0.50152 0.40743 0.0
Sc266 Sc 0.17041 0.40095 0.38617 0.0
O267 O 0.11638 0.43825 0.41102 0.0
C268 C 0.17554 0.36328 0.45853 0.0
C269 C 0.09049 0.4904 0.48161 0.0
C270 C 0.25248 0.47819 0.40525 0.0
C271 C -0.01055 0.48953 0.41224 0.0
C272 C 0.04984 0.34682 0.3887 0.0
C273 C 0.14522 0.47199 0.33422 0.0
O274 O 0.1204 0.36275 0.45872 0.0
O275 O 0.09696 0.51357 0.4567 0.0
O276 O 0.24146 0.44545 0.38835 0.0
O277 O -0.00307 0.45969 0.43278 0.0
O278 O 0.10398 0.35052 0.38142 0.0
O279 O 0.14538 0.49913 0.35697 0.0
O280 O 0.02415 0.37247 0.40777 0.0
O281 O 0.03107 0.50515 0.39544 0.0
O282 O 0.14351 0.43174 0.33979 0.0
O283 O 0.10049 0.45107 0.48034 0.0
O284 O 0.20314 0.37617 0.43327 0.0
O285 O 0.21309 0.49921 0.42003 0.0
Sc286 Sc 0.80429 0.13265 0.38967 0.0
Sc287 Sc 0.85884 0.03201 0.40731 0.0
Sc288 Sc 0.91535 0.12068 0.44605 0.0
O289 O 0.86088 0.09543 0.41331 0.0
C290 C 0.92103 0.19067 0.39223 0.0
C291 C 0.82974 0.06452 0.33551 0.0
C292 C -0.00823 0.04995 0.40943 0.0
C293 C 0.72711 0.05112 0.40701 0.0
C294 C 0.79864 0.16697 0.46358 0.0
C295 C 0.89699 0.03799 0.48071 0.0
O296 O 0.86795 0.18452 0.38389 0.0
O297 O 0.83437 0.03668 0.35758 0.0
O298 O -0.01628 0.07868 0.43068 0.0
O299 O 0.73594 0.08628 0.39264 0.0
O300 O 0.85362 0.16491 0.46587 0.0
O301 O 0.88689 0.01665 0.4554 0.0
O302 O 0.77244 0.15634 0.43729 0.0
O303 O 0.76801 0.0298 0.42027 0.0
O304 O 0.88497 0.07704 0.48181 0.0
O305 O 0.82889 0.10449 0.34192 0.0
O306 O 0.94743 0.1665 0.41213 0.0
O307 O 0.95007 0.03203 0.39423 0.0
Sc308 Sc 0.04247 0.63204 0.10972 0.0
Sc309 Sc 0.11091 0.53846 0.134 0.0
Sc310 Sc 0.16648 0.63712 0.15887 0.0
O311 O 0.1063 0.60253 0.13487 0.0
C312 C 0.16066 0.67305 0.08417 0.0
C313 C 0.06444 0.55228 0.0648 0.0
C314 C 0.24563 0.55843 0.13661 0.0
C315 C 0.97344 0.55795 0.14107 0.0
C316 C 0.05646 0.70054 0.16512 0.0
C317 C 0.13372 0.56147 0.20893 0.0
O318 O 0.10664 0.66489 0.08137 0.0
O319 O 0.10133 0.53326 0.08244 0.0
O320 O 0.23731 0.59464 0.14898 0.0
O321 O 0.97644 0.59758 0.13532 0.0
O322 O 0.10703 0.68864 0.17414 0.0
O323 O 0.12079 0.53717 0.18545 0.0
O324 O 0.02977 0.68267 0.1423 0.0
O325 O 0.01759 0.53343 0.13978 0.0
O326 O 0.1491 0.60056 0.20468 0.0
O327 O 0.03975 0.58618 0.07313 0.0
O328 O 0.18821 0.66781 0.1113 0.0
O329 O 0.20384 0.53507 0.12758 0.0
Sc330 Sc 0.90448 0.91195 0.10137 0.0
Sc331 Sc 0.84227 1.00356 0.13359 0.0
Sc332 Sc 0.79889 0.90432 0.16101 0.0
O333 O 0.85099 0.93992 0.13352 0.0
C334 C 0.79044 0.86292 0.08967 0.0
C335 C 0.87719 0.98654 0.0613 0.0
C336 C 0.71292 0.97921 0.13966 0.0
C337 C 0.97622 0.99122 0.12954 0.0
C338 C 0.92138 0.85083 0.1598 0.0
C339 C 0.82765 0.97951 0.20872 0.0
O340 O 0.84555 0.86206 0.08803 0.0
O341 O 0.86429 1.01323 0.08312 0.0
O342 O 0.72589 0.94769 0.15767 0.0
O343 O 0.97011 0.9591 0.11105 0.0
O344 O 0.86782 0.85547 0.16827 0.0
O345 O 0.82436 1.00476 0.1847 0.0
O346 O 0.94457 0.87343 0.13772 0.0
O347 O 0.9336 1.00928 0.14389 0.0
O348 O 0.82651 0.9389 0.20526 0.0
O349 O 0.86269 0.94851 0.06505 0.0
O350 O 0.76489 0.87619 0.1155 0.0
O351 O 0.75087 0.99932 0.12314 0.0
C352 C 0.45863 0.99297 0.05111 0.0
C353 C 0.41892 0.02486 0.0416 0.0
C354 C 0.50753 0.98367 0.03238 0.0
C355 C 0.51846 1.00563 1.00332 0.0
H356 H 0.45328 0.97586 0.07381 0.0
H357 H 0.53656 0.95867 0.04053 0.0
S358 S 0.42562 0.09048 0.96689 0.0
N359 N 0.39203 0.07714 1.00088 0.0
N360 N 0.48428 0.06027 0.96536 0.0
C361 C 0.47871 0.03751 0.99337 0.0
C362 C 0.42866 0.04667 1.01243 0.0
C363 C 0.51291 0.54162 0.04046 0.0
C364 C 0.53372 0.49964 0.03992 0.0
C365 C 0.46061 0.55261 0.02562 0.0
C366 C 0.42748 0.52227 1.00893 0.0
H367 H 0.53696 0.56635 0.05275 0.0
H368 H 0.44787 0.5857 0.02587 0.0
S369 S 0.46045 0.40736 1.00179 0.0
N370 N 0.51565 0.42702 1.0224 0.0
N371 N 0.41684 0.4479 0.99447 0.0
C372 C 0.44663 0.47985 1.00904 0.0
C373 C 0.50018 0.4686 0.0241 0.0
C374 C 0.45178 0.98561 0.53039 0.0
C375 C 0.44174 1.00724 0.50107 0.0
C376 C 0.5006 0.99443 0.54923 0.0
C377 C 0.54124 0.02542 0.53954 0.0
H378 H 0.42213 0.96117 0.53864 0.0
H379 H 0.50532 0.97756 0.57209 0.0
S380 S 0.53702 0.08979 0.46411 0.0
N381 N 0.47772 0.0605 0.46266 0.0
N382 N 0.56965 0.07675 0.49848 0.0
C383 C 0.53218 0.04711 0.51022 0.0
C384 C 0.48225 0.03833 0.49099 0.0
C385 C 0.52941 0.48595 0.50856 0.0
C386 C 0.54095 0.52945 0.50509 0.0
C387 C 0.47915 0.47179 0.52416 0.0
C388 C 0.43861 0.50061 0.53725 0.0
H389 H 0.55935 0.46251 0.49888 0.0
H390 H 0.4737 0.43794 0.52729 0.0
S391 S 0.44569 0.61784 0.53281 0.0
N392 N 0.50575 0.60142 0.51463 0.0
N393 N 0.41133 0.57447 0.54433 0.0
C394 C 0.4487 0.54418 0.53333 0.0
C395 C 0.50003 0.5587 0.51746 0.0
C396 C 0.95681 0.54336 0.51539 0.0
C397 C 0.94815 0.52176 0.54486 0.0
C398 C 0.00559 0.53522 0.49621 0.0
C399 C 0.04748 0.50483 0.50563 0.0
H400 H 0.9259 0.5671 0.50717 0.0
H401 H 0.00907 0.55188 0.47321 0.0
S402 S 0.04759 0.44125 0.58146 0.0
N403 N -0.0128 0.4696 0.5833 0.0
N404 N 0.07895 0.45451 0.54677 0.0
C405 C 0.04009 0.48346 0.53524 0.0
C406 C -0.00973 0.49161 0.55484 0.0
C407 C 0.00685 0.03659 0.54836 0.0
C408 C 0.04473 1.00332 0.53939 0.0
C409 C 0.95694 0.04561 0.53042 0.0
C410 C 0.94308 0.02216 0.50254 0.0
H411 H 0.01443 0.05513 0.5701 0.0
H412 H 0.92946 0.07167 0.53825 0.0
S413 S 0.02972 0.93303 0.46778 0.0
N414 N 0.06631 0.94775 0.50034 0.0
N415 N 0.97229 0.96447 0.46626 0.0
C416 C 0.98084 0.98887 0.49308 0.0
C417 C 0.03189 0.97981 0.51141 0.0
C418 C 0.96266 0.53648 0.99663 0.0
C419 C 0.93234 0.50029 1.00696 0.0
C420 C 0.0115 0.55038 1.01348 0.0
C421 C 0.03123 0.5286 0.04119 0.0
H422 H 0.95052 0.55283 0.9744 0.0
H423 H 0.03266 0.57934 1.00564 0.0
S424 S 0.96461 0.43344 0.07887 0.0
N425 N 0.92396 0.44351 0.04662 0.0
N426 N 0.01554 0.47027 0.07909 0.0
C427 C 0.00104 0.49251 0.05187 0.0
C428 C 0.95117 0.47853 0.03478 0.0
C429 C 0.01998 0.03575 0.0361 0.0
C430 C 0.03416 1.01322 1.00779 0.0
C431 C 0.96856 0.02739 0.05282 0.0
C432 C 0.93071 0.99494 0.04264 0.0
H433 H 0.04525 0.06322 0.04311 0.0
H434 H 0.95799 0.04736 0.07343 0.0
S435 S 0.95438 0.92171 0.97341 0.0
N436 N 0.01091 0.9539 0.97245 0.0
N437 N 0.91502 0.93661 1.00508 0.0
C438 C 0.94779 0.96916 1.01647 0.0
C439 C -8e-05 0.97821 0.99907 0.0
C440 C 0.27493 0.01769 0.25491 0.0
C441 C 0.32123 0.04414 0.24487 0.0
C442 C 0.28015 0.98999 0.28184 0.0
C443 C 0.33257 0.98663 0.29931 0.0
H444 H 0.23444 0.01794 0.24139 0.0
H445 H 0.2424 0.97212 0.28962 0.0
S446 S 0.46852 0.0458 0.28139 0.0
N447 N 0.42225 0.06283 0.25347 0.0
N448 N 0.43224 1.01145 0.30401 0.0
C449 C 0.37947 1.01229 0.28908 0.0
C450 C 0.3739 0.04068 0.26193 0.0
C451 C 0.66365 0.47526 0.26753 0.0
C452 C 0.6298 0.49111 0.24182 0.0
C453 C 0.66878 0.49781 0.29703 0.0
C454 C 0.64064 0.53737 0.30219 0.0
H455 H 0.68777 0.44597 0.26454 0.0
H456 H 0.69544 0.48406 0.31608 0.0
S457 S 0.54272 0.59106 0.24355 0.0
N458 N 0.56454 0.54792 0.22431 0.0
N459 N 0.57509 0.58983 0.27942 0.0
C460 C 0.606 0.5532 0.27689 0.0
C461 C 0.60025 0.53016 0.24696 0.0
C462 C 0.59509 0.0198 0.79489 0.0
C463 C 0.62959 0.98336 0.8015 0.0
C464 C 0.60211 0.04418 0.76639 0.0
C465 C 0.64389 0.03321 0.74298 0.0
H466 H 0.56252 0.03008 0.81231 0.0
H467 H 0.57345 0.07099 0.76226 0.0
S468 S 0.74691 0.9421 0.74827 0.0
N469 N 0.70831 0.93868 0.78216 0.0
N470 N 0.72108 0.98362 0.72834 0.0
C471 C 0.67865 0.99684 0.74911 0.0
C472 C 0.67154 0.97209 0.77825 0.0
C473 C 0.35879 0.49341 0.79918 0.0
C474 C 0.33404 0.53443 0.80338 0.0
C475 C 0.35628 0.47145 0.76935 0.0
C476 C 0.32909 0.48949 0.74212 0.0
H477 H 0.38072 0.47785 0.81927 0.0
H478 H 0.3773 0.44078 0.76739 0.0
S479 S 0.25399 0.5944 0.74 0.0
N480 N 0.27919 0.59089 0.77755 0.0
N481 N 0.27426 0.55025 0.7216 0.0
C482 C 0.30338 0.53018 0.746 0.0
C483 C 0.30606 0.55251 0.77642 0.0
C484 C 0.86271 0.53178 0.79983 0.0
C485 C 0.82975 0.49424 0.80477 0.0
C486 C 0.85915 0.55577 0.77086 0.0
C487 C 0.82228 0.54348 0.74545 0.0
H488 H 0.89237 0.54269 0.81847 0.0
H489 H 0.88733 0.58296 0.76782 0.0
S490 S 0.72368 0.45015 0.74605 0.0
N491 N 0.75674 0.44776 0.7817 0.0
N492 N 0.75019 0.49234 0.72743 0.0
C493 C 0.78809 0.50672 0.75025 0.0
C494 C 0.79184 0.48224 0.77968 0.0
C495 C 0.09436 0.99769 0.79608 0.0
C496 C 0.12739 0.03458 0.80304 0.0
C497 C 0.10185 0.9744 0.76711 0.0
C498 C 0.14265 0.9869 0.74361 0.0
H499 H 0.06205 0.98648 0.81327 0.0
H500 H 0.07399 0.94741 0.76259 0.0
S501 S 0.24229 0.07931 0.7497 0.0
N502 N 0.20417 0.08105 0.7838 0.0
N503 N 0.21786 0.0379 0.72941 0.0
C504 C 0.17642 0.02333 0.75026 0.0
C505 C 0.16883 0.04702 0.77977 0.0
C506 C 0.17888 0.52787 0.29497 0.0
C507 C 0.1455 0.4909 0.30081 0.0
C508 C 0.17338 0.55183 0.26608 0.0
C509 C 0.13376 0.54017 0.24171 0.0
H510 H 0.20941 0.5387 0.31322 0.0
H511 H 0.20119 0.57913 0.26259 0.0
S512 S 0.03247 0.44807 0.246 0.0
N513 N 0.06962 0.44518 0.28033 0.0
N514 N 0.05811 0.48976 0.22637 0.0
C515 C 0.0994 0.5035 0.24754 0.0
C516 C 0.10563 0.47896 0.27683 0.0
C517 C 0.79875 1.00647 0.29787 0.0
C518 C 0.82566 0.04654 0.30192 0.0
C519 C 0.80137 0.98397 0.26834 0.0
C520 C 0.83082 1.00056 0.2413 0.0
H521 H 0.77576 0.99193 0.31804 0.0
H522 H 0.77916 0.95384 0.26653 0.0
S523 S 0.91084 0.10315 0.23895 0.0
N524 N 0.88405 0.10099 0.27627 0.0
N525 N 0.88902 0.05942 0.22068 0.0
C526 C 0.85793 0.04068 0.24492 0.0
C527 C 0.85517 0.06354 0.27509 0.0
C528 C 0.19371 0.17452 0.05395 0.0
C529 C 0.25471 0.17813 0.05453 0.0
C530 C 0.16249 0.17355 0.02443 0.0
C531 C 0.19037 0.17551 0.99357 0.0
H532 H 0.16978 0.17027 0.07647 0.0
H533 H 0.1159 0.16884 0.02606 0.0
S534 S 0.3487 0.19198 0.98111 0.0
N535 N 0.3413 0.1893 1.02105 0.0
N536 N 0.28264 0.18626 0.966 0.0
C537 C 0.2509 0.18221 0.99377 0.0
C538 C 0.28287 0.18377 0.02397 0.0
C539 C 0.79406 0.3497 1.02248 0.0
C540 C 0.76538 0.34866 0.99186 0.0
C541 C 0.76346 0.35168 0.05229 0.0
C542 C 0.70224 0.35198 0.05342 0.0
H543 H 0.8411 0.35136 0.02362 0.0
H544 H 0.78825 0.35472 0.07457 0.0
S545 S 0.60515 0.34428 0.98091 0.0
N546 N 0.67136 0.3445 0.96524 0.0
N547 N 0.61384 0.3469 1.02074 0.0
C548 C 0.67283 0.34785 1.02315 0.0
C549 C 0.70419 0.34646 0.99268 0.0
C550 C 0.29563 0.85975 0.52189 0.0
C551 C 0.26608 0.85532 0.49181 0.0
C552 C 0.26621 0.8588 0.55206 0.0
C553 C 0.20558 0.85283 0.55396 0.0
H554 H 0.34189 0.8663 0.52227 0.0
H555 H 0.29107 0.86474 0.57396 0.0
S556 S 0.1085 0.83315 0.48288 0.0
N557 N 0.1732 0.84066 0.46633 0.0
N558 N 0.1179 0.83767 0.52257 0.0
C559 C 0.176 0.84544 0.52416 0.0
C560 C 0.20605 0.84706 0.49335 0.0
C561 C 0.76364 0.67603 0.49188 0.0
C562 C 0.70255 0.67448 0.48994 0.0
C563 C 0.79275 0.67559 0.52212 0.0
C564 C 0.76255 0.67277 0.55222 0.0
H565 H 0.78951 0.67615 0.46981 0.0
H566 H 0.8399 0.67536 0.52161 0.0
S567 S 0.60178 0.67071 0.56123 0.0
N568 N 0.61241 0.67294 0.52151 0.0
N569 N 0.66725 0.67091 0.57774 0.0
C570 C 0.70135 0.67304 0.55072 0.0
C571 C 0.6715 0.67418 0.51989 0.0
C572 C 0.7567 0.85472 0.99804 0.0
C573 C 0.69548 0.85651 0.99643 0.0
C574 C 0.78647 0.85388 0.02819 0.0
C575 C 0.75679 0.85548 0.05851 0.0
H576 H 0.78214 0.85531 0.97581 0.0
H577 H 0.83361 0.85405 0.02754 0.0
S578 S 0.5962 0.85883 0.06851 0.0
N579 N 0.60607 0.85796 0.02871 0.0
N580 N 0.66199 0.85729 0.08455 0.0
C581 C 0.69558 0.85585 0.0573 0.0
C582 C 0.66512 0.85614 0.02664 0.0
C583 C 0.28548 0.67711 1.02188 0.0
C584 C 0.25684 0.67527 0.99133 0.0
C585 C 0.25468 0.67969 0.05165 0.0
C586 C 0.1934 0.6811 0.05263 0.0
H587 H 0.33241 0.67412 1.02315 0.0
H588 H 0.27925 0.67822 0.07412 0.0
S589 S 0.09714 0.68366 0.97943 0.0
N590 N 0.16338 0.6793 0.96414 0.0
N591 N 0.1055 0.68546 1.01931 0.0
C592 C 0.16437 0.68261 1.02205 0.0
C593 C 0.19587 0.67933 0.99177 0.0
C594 C 0.79477 0.17183 0.52502 0.0
C595 C 0.76552 0.17534 0.49475 0.0
C596 C 0.76476 0.17164 0.55501 0.0
C597 C 0.70376 0.17553 0.55656 0.0
H598 H 0.84143 0.16683 0.52573 0.0
H599 H 0.78961 0.16646 0.57706 0.0
S600 S 0.6066 0.19203 0.48488 0.0
N601 N 0.6721 0.18692 0.46873 0.0
N602 N 0.61564 0.18776 0.52463 0.0
C603 C 0.67423 0.18211 0.52657 0.0
C604 C 0.70493 0.18167 0.49594 0.0
C605 C 0.29654 0.35914 0.52289 0.0
C606 C 0.26619 0.35486 0.55279 0.0
C607 C 0.26767 0.35943 0.49257 0.0
C608 C 0.20685 0.35483 0.49033 0.0
H609 H 0.34309 0.36451 0.52282 0.0
H610 H 0.29323 0.36503 0.4708 0.0
S611 S 0.10744 0.33672 0.56091 0.0
N612 N 0.17215 0.34233 0.57777 0.0
N613 N 0.11786 0.34156 0.52129 0.0
C614 C 0.17633 0.34785 0.51998 0.0
C615 C 0.20582 0.34827 0.55093 0.0
C616 C 0.57498 0.03332 0.11111 0.0
C617 C 0.53554 0.02638 0.13692 0.0
C618 C 0.63182 0.01757 0.11212 0.0
C619 C 0.65171 0.99395 0.13888 0.0
H620 H 0.56195 0.05103 0.08967 0.0
H621 H 0.66031 0.0239 0.09163 0.0
S622 S 0.56639 0.96723 0.21312 0.0
N623 N 0.52057 0.99447 0.1902 0.0
N624 N 0.62773 0.96455 0.19217 0.0
C625 C 0.6127 0.98626 0.16481 0.0
C626 C 0.55458 1.00251 0.1638 0.0
C627 C 0.37348 0.48536 0.11821 0.0
C628 C 0.42146 0.50693 0.13153 0.0
C629 C 0.31719 0.50246 0.11958 0.0
C630 C 0.30633 0.54205 0.13414 0.0
H631 H 0.37919 0.45476 0.10671 0.0
H632 H 0.28192 0.48425 0.1092 0.0
S633 S 0.4174 0.61232 0.17162 0.0
N634 N 0.4546 0.57063 0.15909 0.0
N635 N 0.34912 0.6029 0.16164 0.0
C636 C 0.35412 0.56429 0.14723 0.0
C637 C 0.41147 0.5467 0.14598 0.0
C638 C 0.59732 0.98129 0.42576 0.0
C639 C 0.55304 0.99799 0.40566 0.0
C640 C 0.65318 0.9987 0.42616 0.0
C641 C 0.66727 0.03368 0.40653 0.0
H642 H 0.58881 0.95481 0.44189 0.0
H643 H 0.68531 0.98479 0.44226 0.0
S644 S 0.56796 0.08862 0.3485 0.0
N645 N 0.52771 0.05102 0.36494 0.0
N646 N 0.63266 0.08381 0.36549 0.0
C647 C 0.62369 0.05046 0.38591 0.0
C648 C 0.56672 0.03259 0.38547 0.0
C649 C 0.38884 0.53129 0.43592 0.0
C650 C 0.4299 0.52286 0.41117 0.0
C651 C 0.3317 0.51666 0.4338 0.0
C652 C 0.31336 0.49273 0.407 0.0
H653 H 0.40078 0.54937 0.45728 0.0
H654 H 0.30183 0.52397 0.45347 0.0
S655 S 0.40313 0.46259 0.33526 0.0
N656 N 0.44795 0.48947 0.35879 0.0
N657 N 0.34028 0.46162 0.3548 0.0
C658 C 0.35393 0.48368 0.38213 0.0
C659 C 0.41227 0.49877 0.38424 0.0
C660 C 0.33954 0.04994 0.89464 0.0
C661 C 0.29244 0.02821 0.90888 0.0
C662 C 0.39537 0.03223 0.89404 0.0
C663 C 0.40635 0.99227 0.90792 0.0
H664 H 0.33337 0.08088 0.88367 0.0
H665 H 0.4304 0.05061 0.88345 0.0
S666 S 0.29766 0.92155 0.94725 0.0
N667 N 0.26032 0.9641 0.93664 0.0
N668 N 0.36501 0.93056 0.93518 0.0
C669 C 0.35943 0.9698 0.92172 0.0
C670 C 0.30262 0.98785 0.92235 0.0
C671 C 0.6519 0.53491 0.91771 0.0
C672 C 0.66176 0.4911 0.91419 0.0
C673 C 0.59532 0.55153 0.91818 0.0
C674 C 0.54671 0.525 0.91478 0.0
H675 H 0.68807 0.55671 0.91952 0.0
H676 H 0.58962 0.58546 0.92078 0.0
S677 S 0.54795 0.40783 0.90882 0.0
N678 N 0.61732 0.42118 0.9101 0.0
N679 N 0.51126 0.4528 0.91057 0.0
C680 C 0.55563 0.48115 0.91217 0.0
C681 C 0.61308 0.4641 0.91202 0.0
C682 C 0.32289 0.03307 0.63138 0.0
C683 C 0.31158 0.99026 0.63827 0.0
C684 C 0.3797 0.04865 0.63116 0.0
C685 C 0.42764 0.02208 0.63778 0.0
H686 H 0.28759 0.05497 0.62632 0.0
H687 H 0.38605 0.08189 0.62556 0.0
S688 S 0.42201 0.9071 0.65618 0.0
N689 N 0.35326 0.92117 0.65136 0.0
N690 N 0.46036 0.95073 0.65083 0.0
C691 C 0.41716 0.97925 0.64491 0.0
C692 C 0.35909 0.96327 0.64512 0.0
C693 C 0.57281 0.52198 0.65771 0.0
C694 C 0.55674 0.49368 0.63296 0.0
C695 C 0.62929 0.53836 0.65926 0.0
C696 C 0.672 0.52708 0.63615 0.0
H697 H 0.5416 0.53163 0.67608 0.0
H698 H 0.6396 0.55988 0.67893 0.0
S699 S 0.65201 0.45586 0.56542 0.0
N700 N 0.58827 0.4561 0.584 0.0
N701 N 0.6942 0.48698 0.58726 0.0
C702 C 0.65672 0.49893 0.61124 0.0
C703 C 0.59919 0.48226 0.60954 0.0
C704 C 0.1263 0.48146 0.65521 0.0
C705 C 0.17189 0.50166 0.63815 0.0
C706 C 0.07013 0.49879 0.65635 0.0
C707 C 0.05702 0.53704 0.6404 0.0
H708 H 0.13365 0.45163 0.66766 0.0
H709 H 0.03643 0.4813 0.66898 0.0
S710 S 0.16156 0.60432 0.59415 0.0
N711 N 0.20046 0.56317 0.60617 0.0
N712 N 0.09546 0.59609 0.60851 0.0
C713 C 0.10266 0.55834 0.62407 0.0
C714 C 0.1598 0.54056 0.62283 0.0
C715 C 0.83086 1.01298 0.61015 0.0
C716 C 0.81093 0.03524 0.63752 0.0
C717 C 0.88815 0.99821 0.60843 0.0
C718 C 0.92778 1.00483 0.63412 0.0
H719 H 0.80213 1.00716 0.58975 0.0
H720 H 0.90139 0.98151 0.58659 0.0
S721 S 0.89627 0.05976 0.71193 0.0
N722 N 0.83462 0.06243 0.69139 0.0
N723 N 0.94259 0.03441 0.68807 0.0
C724 C 0.90848 0.0271 0.66167 0.0
C725 C 0.84999 0.0423 0.66341 0.0
C726 C 0.11691 0.54812 0.90082 0.0
C727 C 0.1664 0.52287 0.9064 0.0
C728 C 0.06142 0.53022 0.89946 0.0
C729 C 0.05325 0.48629 0.90343 0.0
H730 H 0.12085 0.58215 0.89806 0.0
H731 H 0.0246 0.55131 0.89607 0.0
S732 S 0.16997 0.40578 0.91546 0.0
N733 N 0.20458 0.45144 0.9137 0.0
N734 N 0.10041 0.41758 0.91103 0.0
C735 C 0.10284 0.46044 0.90778 0.0
C736 C 0.15932 0.47879 0.90942 0.0
C737 C 0.89353 0.99196 0.90449 0.0
C738 C 0.90224 0.03605 0.9052 0.0
C739 C 0.83775 0.97491 0.90568 0.0
C740 C 0.78845 1.00123 0.90758 0.0
H741 H 0.93005 0.97016 0.90388 0.0
H742 H 0.83334 0.94072 0.9055 0.0
S743 S 0.78675 0.11882 0.90705 0.0
N744 N 0.8564 0.10589 0.90579 0.0
N745 N 0.75113 0.0735 0.90802 0.0
C746 C 0.79612 0.04538 0.90745 0.0
C747 C 0.85309 0.06287 0.90612 0.0
C748 C 0.88945 0.49875 0.43475 0.0
C749 C 0.92986 0.50724 0.40967 0.0
C750 C 0.83228 0.51377 0.43329 0.0
C751 C 0.81306 0.53818 0.4068 0.0
H752 H 0.90194 0.48035 0.45594 0.0
H753 H 0.80306 0.50635 0.45322 0.0
S754 S 0.90083 0.56878 0.33437 0.0
N755 N 0.94631 0.54129 0.35732 0.0
N756 N 0.83856 0.56984 0.3545 0.0
C757 C 0.85294 0.54729 0.38158 0.0
C758 C 0.91138 0.53179 0.38305 0.0
C759 C 0.1198 0.97618 0.39602 0.0
C760 C 0.16781 1.00115 0.40536 0.0
C761 C 0.06314 0.99271 0.39577 0.0
C762 C 0.05221 0.03478 0.40504 0.0
H763 H 0.12572 0.94329 0.38924 0.0
H764 H 0.02752 0.97188 0.38945 0.0
S765 S 0.16274 0.11488 0.42841 0.0
N766 N 0.2006 0.07117 0.42192 0.0
N767 N 0.09428 0.10217 0.42144 0.0
C768 C 0.09989 0.06056 0.41337 0.0
C769 C 0.15755 0.04377 0.41363 0.0
C770 C 0.86587 0.56104 0.13338 0.0
C771 C 0.9151 0.53852 0.14429 0.0
C772 C 0.81137 0.54172 0.13137 0.0
C773 C 0.80348 0.49909 0.14046 0.0
H774 H 0.86956 0.59361 0.12526 0.0
H775 H 0.77513 0.56059 0.12261 0.0
S776 S 0.91774 0.42658 0.17247 0.0
N777 N 0.95203 0.47161 0.16567 0.0
N778 N 0.84941 0.43519 0.16189 0.0
C779 C 0.85201 0.47638 0.15223 0.0
C780 C 0.90774 0.4961 0.15419 0.0
C781 C 0.14044 0.99926 0.12516 0.0
C782 C 0.15175 0.0403 0.13674 0.0
C783 C 0.08369 0.98377 0.12335 0.0
C784 C 0.03565 1.00859 0.13302 0.0
H785 H 0.17571 0.97857 0.11768 0.0
H786 H 0.07766 0.95183 0.11437 0.0
S787 S 0.041 0.1191 0.16362 0.0
N788 N 0.10973 0.10622 0.15706 0.0
N789 N 0.00287 0.07685 0.15366 0.0
C790 C 0.04606 0.04984 0.14443 0.0
C791 C 0.10407 0.06576 0.14624 0.0
C792 C 0.50769 0.22834 0.16299 0.0
C793 C 0.44616 0.22808 0.16373 0.0
C794 C 0.53951 0.26645 0.16321 0.0
C795 C 0.51114 0.30604 0.16364 0.0
H796 H 0.53153 0.19885 0.16042 0.0
H797 H 0.58638 0.26485 0.16045 0.0
S798 S 0.35149 0.32327 0.17023 0.0
N799 N 0.35873 0.27121 0.16873 0.0
N800 N 0.4182 0.34254 0.1686 0.0
C801 C 0.44998 0.30619 0.16692 0.0
C802 C 0.41762 0.26737 0.16716 0.0
C803 C 0.54177 0.76137 0.3767 0.0
C804 C 0.51307 0.72211 0.3783 0.0
C805 C 0.51038 0.79974 0.37706 0.0
C806 C 0.44894 0.80056 0.37853 0.0
H807 H 0.58885 0.76267 0.37784 0.0
H808 H 0.53467 0.82908 0.3782 0.0
S809 S 0.35282 0.70634 0.37717 0.0
N810 N 0.4194 0.68638 0.37702 0.0
N811 N 0.3607 0.75835 0.37734 0.0
C812 C 0.41968 0.76154 0.37684 0.0
C813 C 0.45165 0.72242 0.37688 0.0
C814 C 0.54178 0.7604 0.88153 0.0
C815 C 0.51283 0.7997 0.881 0.0
C816 C 0.51039 0.72216 0.8818 0.0
C817 C 0.44886 0.72164 0.88112 0.0
H818 H 0.58859 0.75913 0.88462 0.0
H819 H 0.53448 0.69282 0.88473 0.0
S820 S 0.35314 0.81607 0.87358 0.0
N821 N 0.41962 0.83572 0.87524 0.0
N822 N 0.36094 0.76407 0.87545 0.0
C823 C 0.41986 0.76061 0.87713 0.0
C824 C 0.45176 0.79954 0.87721 0.0
C825 C 0.51171 0.29835 0.66788 0.0
C826 C 0.45025 0.29938 0.66652 0.0
C827 C 0.54282 0.25986 0.66886 0.0
C828 C 0.51381 0.2207 0.66801 0.0
H829 H 0.53621 0.32755 0.66614 0.0
H830 H 0.5899 0.26093 0.66749 0.0
S831 S 0.35346 0.20558 0.66978 0.0
N832 N 0.36171 0.25754 0.6687 0.0
N833 N 0.4199 0.18538 0.67013 0.0
C834 C 0.4524 0.2213 0.6696 0.0
C835 C 0.42071 0.26053 0.66901 0.0
C836 C 0.04023 0.76706 0.66718 0.0
C837 C 0.0121 0.80661 0.66505 0.0
C838 C 0.00831 0.72911 0.66695 0.0
C839 C 0.94691 0.72907 0.66512 0.0
H840 H 0.08731 0.76517 0.66627 0.0
H841 H 0.03217 0.69944 0.6661 0.0
S842 S 0.85207 0.82438 0.6652 0.0
N843 N 0.91891 0.84354 0.66557 0.0
N844 N 0.85921 0.77228 0.66549 0.0
C845 C 0.91813 0.7684 0.66637 0.0
C846 C 0.95064 0.80711 0.66618 0.0
C847 C 0.91455 0.25637 0.86648 0.0
C848 C 0.93904 0.29695 0.86461 0.0
C849 C 0.95035 0.22022 0.86842 0.0
C850 C 0.01177 0.22339 0.86842 0.0
H851 H 0.86817 0.25282 0.87048 0.0
H852 H 0.92987 0.18994 0.87321 0.0
S853 S 0.09636 0.32185 0.857 0.0
N854 N 0.02773 0.33774 0.85734 0.0
N855 N 0.09469 0.26975 0.86097 0.0
C856 C 0.03631 0.26315 0.86217 0.0
C857 C -0.0001 0.29997 0.86027 0.0
C858 C 0.01407 0.23009 0.3819 0.0
C859 C 0.95256 0.22989 0.38208 0.0
C860 C 0.04578 0.26813 0.3806 0.0
C861 C 0.01729 0.30764 0.37993 0.0
H862 H 0.03802 0.20067 0.3847 0.0
H863 H 0.09273 0.26656 0.38283 0.0
S864 S 0.85747 0.32471 0.37484 0.0
N865 N 0.86483 0.27271 0.37727 0.0
N866 N 0.9242 0.34406 0.37531 0.0
C867 C 0.95605 0.30777 0.3773 0.0
C868 C 0.92376 0.26898 0.37819 0.0
C869 C 0.01878 0.81592 0.16889 0.0
C870 C 0.95747 0.81472 0.17243 0.0
C871 C 0.05323 0.77904 0.1715 0.0
C872 C 0.02773 0.73947 0.17769 0.0
H873 H 0.04 0.84504 0.16158 0.0
H874 H 0.09899 0.78091 0.16522 0.0
S875 S 0.87148 0.71976 0.19498 0.0
N876 N 0.87453 0.77113 0.1874 0.0
N877 N 0.93904 0.70209 0.19194 0.0
C878 C 0.96767 0.7386 0.18486 0.0
C879 C 0.93259 0.77612 0.18236 0.0
loop_
_geom_bond_atom_site_label_1
_geom_bond_atom_site_label_2
_geom_bond_distance
_geom_bond_site_symmetry_2
_ccdc_geom_bond_type
Sc0 O3 2.025 . S
Sc0 O10 2.105 . S
Sc0 O13 2.105 . S
Sc0 O16 2.105 . S
Sc0 O19 2.105 . S
Sc1 O3 2.025 . S
Sc1 O11 2.105 1_545 S
Sc1 O15 2.105 . S
Sc1 O17 2.105 . S
Sc1 O21 2.105 1_545 S
Sc2 O3 2.025 . S
Sc2 O12 2.105 . S
Sc2 O14 2.105 . S
Sc2 O18 2.105 . S
Sc2 O20 2.105 . S
O3 Sc0 2.025 . S
O3 Sc1 2.025 . S
O3 Sc2 2.025 . S
C4 O10 1.268 . S
C4 O20 1.268 . S
C5 O11 1.268 1_545 S
C5 O19 1.268 . S
C6 O12 1.268 . S
C6 O21 1.268 1_545 S
C7 O13 1.268 . S
C7 O17 1.268 . S
C8 O14 1.268 . S
C8 O16 1.268 . S
C9 O15 1.268 . S
C9 O18 1.268 . S
O10 Sc0 2.105 . S
O10 C4 1.268 . S
O11 Sc1 2.105 1_565 S
O11 C5 1.268 1_565 S
O12 Sc2 2.105 . S
O12 C6 1.268 . S
O13 Sc0 2.105 . S
O13 C7 1.268 . S
O14 Sc2 2.105 . S
O14 C8 1.268 . S
O15 Sc1 2.105 . S
O15 C9 1.268 . S
O16 Sc0 2.105 . S
O16 C8 1.268 . S
O17 Sc1 2.105 . S
O17 C7 1.268 . S
O18 Sc2 2.105 . S
O18 C9 1.268 . S
O19 Sc0 2.105 . S
O19 C5 1.268 . S
O20 Sc2 2.105 . S
O20 C4 1.268 . S
O21 Sc1 2.105 1_565 S
O21 C6 1.268 1_565 S
Sc22 O25 2.025 . S
Sc22 O32 2.105 . S
Sc22 O35 2.105 . S
Sc22 O38 2.105 . S
Sc22 O41 2.105 . S
Sc23 O25 2.025 . S
Sc23 O33 2.105 . S
Sc23 O37 2.105 . S
Sc23 O39 2.105 . S
Sc23 O43 2.105 . S
Sc24 O25 2.025 . S
Sc24 O34 2.105 . S
Sc24 O36 2.105 . S
Sc24 O40 2.105 . S
Sc24 O42 2.105 . S
O25 Sc22 2.025 . S
O25 Sc23 2.025 . S
O25 Sc24 2.025 . S
C26 O32 1.268 . S
C26 O42 1.268 . S
C27 O33 1.268 . S
C27 O41 1.268 . S
C28 O34 1.268 . S
C28 O43 1.268 . S
C29 O35 1.268 . S
C29 O39 1.268 . S
C30 O36 1.268 . S
C30 O38 1.268 . S
C31 O37 1.268 . S
C31 O40 1.268 . S
O32 Sc22 2.105 . S
O32 C26 1.268 . S
O33 Sc23 2.105 . S
O33 C27 1.268 . S
O34 Sc24 2.105 . S
O34 C28 1.268 . S
O35 Sc22 2.105 . S
O35 C29 1.268 . S
O36 Sc24 2.105 . S
O36 C30 1.268 . S
O37 Sc23 2.105 . S
O37 C31 1.268 . S
O38 Sc22 2.105 . S
O38 C30 1.268 . S
O39 Sc23 2.105 . S
O39 C29 1.268 . S
O40 Sc24 2.105 . S
O40 C31 1.268 . S
O41 Sc22 2.105 . S
O41 C27 1.268 . S
O42 Sc24 2.105 . S
O42 C26 1.268 . S
O43 Sc23 2.105 . S
O43 C28 1.268 . S
Sc44 O47 2.025 . S
Sc44 O54 2.105 . S
Sc44 O57 2.105 . S
Sc44 O60 2.105 . S
Sc44 O63 2.105 . S
Sc45 O47 2.025 . S
Sc45 O55 2.105 1_565 S
Sc45 O59 2.105 . S
Sc45 O61 2.105 . S
Sc45 O65 2.105 1_565 S
Sc46 O47 2.025 . S
Sc46 O56 2.105 . S
Sc46 O58 2.105 . S
Sc46 O62 2.105 . S
Sc46 O64 2.105 . S
O47 Sc44 2.025 . S
O47 Sc45 2.025 . S
O47 Sc46 2.025 . S
C48 O54 1.268 . S
C48 O64 1.268 . S
C49 O55 1.268 1_565 S
C49 O63 1.268 . S
C50 O56 1.268 . S
C50 O65 1.268 1_565 S
C51 O57 1.268 . S
C51 O61 1.268 . S
C52 O58 1.268 . S
C52 O60 1.268 . S
C53 O59 1.268 . S
C53 O62 1.268 . S
O54 Sc44 2.105 . S
O54 C48 1.268 . S
O55 Sc45 2.105 1_545 S
O55 C49 1.268 1_545 S
O56 Sc46 2.105 . S
O56 C50 1.268 . S
O57 Sc44 2.105 . S
O57 C51 1.268 . S
O58 Sc46 2.105 . S
O58 C52 1.268 . S
O59 Sc45 2.105 . S
O59 C53 1.268 . S
O60 Sc44 2.105 . S
O60 C52 1.268 . S
O61 Sc45 2.105 . S
O61 C51 1.268 . S
O62 Sc46 2.105 . S
O62 C53 1.268 . S
O63 Sc44 2.105 . S
O63 C49 1.268 . S
O64 Sc46 2.105 . S
O64 C48 1.268 . S
O65 Sc45 2.105 1_545 S
O65 C50 1.268 1_545 S
Sc66 O69 2.025 . S
Sc66 O76 2.105 . S
Sc66 O79 2.105 . S
Sc66 O82 2.105 . S
Sc66 O85 2.105 . S
Sc67 O69 2.025 . S
Sc67 O77 2.105 . S
Sc67 O81 2.105 . S
Sc67 O83 2.105 . S
Sc67 O87 2.105 . S
Sc68 O69 2.025 . S
Sc68 O78 2.105 . S
Sc68 O80 2.105 . S
Sc68 O84 2.105 . S
Sc68 O86 2.105 . S
O69 Sc66 2.025 . S
O69 Sc67 2.025 . S
O69 Sc68 2.025 . S
C70 O76 1.268 . S
C70 O86 1.268 . S
C71 O77 1.268 . S
C71 O85 1.268 . S
C72 O78 1.268 . S
C72 O87 1.268 . S
C73 O79 1.268 . S
C73 O83 1.268 . S
C74 O80 1.268 . S
C74 O82 1.268 . S
C75 O81 1.268 . S
C75 O84 1.268 . S
O76 Sc66 2.105 . S
O76 C70 1.268 . S
O77 Sc67 2.105 . S
O77 C71 1.268 . S
O78 Sc68 2.105 . S
O78 C72 1.268 . S
O79 Sc66 2.105 . S
O79 C73 1.268 . S
O80 Sc68 2.105 . S
O80 C74 1.268 . S
O81 Sc67 2.105 . S
O81 C75 1.268 . S
O82 Sc66 2.105 . S
O82 C74 1.268 . S
O83 Sc67 2.105 . S
O83 C73 1.268 . S
O84 Sc68 2.105 . S
O84 C75 1.268 . S
O85 Sc66 2.105 . S
O85 C71 1.268 . S
O86 Sc68 2.105 . S
O86 C70 1.268 . S
O87 Sc67 2.105 . S
O87 C72 1.268 . S
Sc88 O91 2.025 . S
Sc88 O98 2.105 . S
Sc88 O101 2.105 . S
Sc88 O104 2.105 . S
Sc88 O107 2.105 . S
Sc89 O91 2.025 . S
Sc89 O99 2.105 1_565 S
Sc89 O103 2.105 . S
Sc89 O105 2.105 . S
Sc89 O109 2.105 1_565 S
Sc90 O91 2.025 . S
Sc90 O100 2.105 . S
Sc90 O102 2.105 . S
Sc90 O106 2.105 . S
Sc90 O108 2.105 . S
O91 Sc88 2.025 . S
O91 Sc89 2.025 . S
O91 Sc90 2.025 . S
C92 O98 1.268 . S
C92 O108 1.268 . S
C93 O99 1.268 1_565 S
C93 O107 1.268 . S
C94 O100 1.268 . S
C94 O109 1.268 1_565 S
C95 O101 1.268 . S
C95 O105 1.268 . S
C96 O102 1.268 . S
C96 O104 1.268 . S
C97 O103 1.268 . S
C97 O106 1.268 . S
O98 Sc88 2.105 . S
O98 C92 1.268 . S
O99 Sc89 2.105 1_545 S
O99 C93 1.268 1_545 S
O100 Sc90 2.105 . S
O100 C94 1.268 . S
O101 Sc88 2.105 . S
O101 C95 1.268 . S
O102 Sc90 2.105 . S
O102 C96 1.268 . S
O103 Sc89 2.105 . S
O103 C97 1.268 . S
O104 Sc88 2.105 . S
O104 C96 1.268 . S
O105 Sc89 2.105 . S
O105 C95 1.268 . S
O106 Sc90 2.105 . S
O106 C97 1.268 . S
O107 Sc88 2.105 . S
O107 C93 1.268 . S
O108 Sc90 2.105 . S
O108 C92 1.268 . S
O109 Sc89 2.105 1_545 S
O109 C94 1.268 1_545 S
Sc110 O113 2.025 . S
Sc110 O120 2.105 . S
Sc110 O123 2.105 . S
Sc110 O126 2.105 . S
Sc110 O129 2.105 . S
Sc111 O113 2.025 . S
Sc111 O121 2.105 . S
Sc111 O125 2.105 . S
Sc111 O127 2.105 . S
Sc111 O131 2.105 . S
Sc112 O113 2.025 . S
Sc112 O122 2.105 . S
Sc112 O124 2.105 . S
Sc112 O128 2.105 . S
Sc112 O130 2.105 . S
O113 Sc110 2.025 . S
O113 Sc111 2.025 . S
O113 Sc112 2.025 . S
C114 O120 1.268 . S
C114 O130 1.268 . S
C115 O121 1.268 . S
C115 O129 1.268 . S
C116 O122 1.268 . S
C116 O131 1.268 . S
C117 O123 1.268 . S
C117 O127 1.268 . S
C118 O124 1.268 . S
C118 O126 1.268 . S
C119 O125 1.268 . S
C119 O128 1.268 . S
O120 Sc110 2.105 . S
O120 C114 1.268 . S
O121 Sc111 2.105 . S
O121 C115 1.268 . S
O122 Sc112 2.105 . S
O122 C116 1.268 . S
O123 Sc110 2.105 . S
O123 C117 1.268 . S
O124 Sc112 2.105 . S
O124 C118 1.268 . S
O125 Sc111 2.105 . S
O125 C119 1.268 . S
O126 Sc110 2.105 . S
O126 C118 1.268 . S
O127 Sc111 2.105 . S
O127 C117 1.268 . S
O128 Sc112 2.105 . S
O128 C119 1.268 . S
O129 Sc110 2.105 . S
O129 C115 1.268 . S
O130 Sc112 2.105 . S
O130 C114 1.268 . S
O131 Sc111 2.105 . S
O131 C116 1.268 . S
Sc132 O135 2.025 . S
Sc132 O142 2.105 . S
Sc132 O145 2.105 . S
Sc132 O148 2.105 . S
Sc132 O151 2.105 . S
Sc133 O135 2.025 . S
Sc133 O143 2.105 1_545 S
Sc133 O147 2.105 . S
Sc133 O149 2.105 . S
Sc133 O153 2.105 1_545 S
Sc134 O135 2.025 . S
Sc134 O144 2.105 . S
Sc134 O146 2.105 . S
Sc134 O150 2.105 . S
Sc134 O152 2.105 . S
O135 Sc132 2.025 . S
O135 Sc133 2.025 . S
O135 Sc134 2.025 . S
C136 O142 1.268 . S
C136 O152 1.268 . S
C137 O143 1.268 1_545 S
C137 O151 1.268 . S
C138 O144 1.268 . S
C138 O153 1.268 1_545 S
C139 O145 1.268 . S
C139 O149 1.268 . S
C140 O146 1.268 . S
C140 O148 1.268 . S
C141 O147 1.268 . S
C141 O150 1.268 . S
O142 Sc132 2.105 . S
O142 C136 1.268 . S
O143 Sc133 2.105 1_565 S
O143 C137 1.268 1_565 S
O144 Sc134 2.105 . S
O144 C138 1.268 . S
O145 Sc132 2.105 . S
O145 C139 1.268 . S
O146 Sc134 2.105 . S
O146 C140 1.268 . S
O147 Sc133 2.105 . S
O147 C141 1.268 . S
O148 Sc132 2.105 . S
O148 C140 1.268 . S
O149 Sc133 2.105 . S
O149 C139 1.268 . S
O150 Sc134 2.105 . S
O150 C141 1.268 . S
O151 Sc132 2.105 . S
O151 C137 1.268 . S
O152 Sc134 2.105 . S
O152 C136 1.268 . S
O153 Sc133 2.105 1_565 S
O153 C138 1.268 1_565 S
Sc154 O157 2.025 . S
Sc154 O164 2.105 . S
Sc154 O167 2.105 . S
Sc154 O170 2.105 . S
Sc154 O173 2.105 . S
Sc155 O157 2.025 . S
Sc155 O165 2.105 . S
Sc155 O169 2.105 . S
Sc155 O171 2.105 . S
Sc155 O175 2.105 . S
Sc156 O157 2.025 . S
Sc156 O166 2.105 . S
Sc156 O168 2.105 . S
Sc156 O172 2.105 . S
Sc156 O174 2.105 . S
O157 Sc154 2.025 . S
O157 Sc155 2.025 . S
O157 Sc156 2.025 . S
C158 O164 1.268 . S
C158 O174 1.268 . S
C159 O165 1.268 . S
C159 O173 1.268 . S
C160 O166 1.268 . S
C160 O175 1.268 . S
C161 O167 1.268 . S
C161 O171 1.268 . S
C162 O168 1.268 . S
C162 O170 1.268 . S
C163 O169 1.268 . S
C163 O172 1.268 . S
O164 Sc154 2.105 . S
O164 C158 1.268 . S
O165 Sc155 2.105 . S
O165 C159 1.268 . S
O166 Sc156 2.105 . S
O166 C160 1.268 . S
O167 Sc154 2.105 . S
O167 C161 1.268 . S
O168 Sc156 2.105 . S
O168 C162 1.268 . S
O169 Sc155 2.105 . S
O169 C163 1.268 . S
O170 Sc154 2.105 . S
O170 C162 1.268 . S
O171 Sc155 2.105 . S
O171 C161 1.268 . S
O172 Sc156 2.105 . S
O172 C163 1.268 . S
O173 Sc154 2.105 . S
O173 C159 1.268 . S
O174 Sc156 2.105 . S
O174 C158 1.268 . S
O175 Sc155 2.105 . S
O175 C160 1.268 . S
Sc176 O179 2.025 . S
Sc176 O186 2.105 . S
Sc176 O189 2.105 . S
Sc176 O192 2.105 . S
Sc176 O195 2.105 . S
Sc177 O179 2.025 . S
Sc177 O187 2.105 . S
Sc177 O191 2.105 1_655 S
Sc177 O193 2.105 . S
Sc177 O197 2.105 . S
Sc178 O179 2.025 . S
Sc178 O188 2.105 . S
Sc178 O190 2.105 . S
Sc178 O194 2.105 1_655 S
Sc178 O196 2.105 . S
O179 Sc176 2.025 . S
O179 Sc177 2.025 . S
O179 Sc178 2.025 . S
C180 O186 1.268 . S
C180 O196 1.268 . S
C181 O187 1.268 . S
C181 O195 1.268 . S
C182 O188 1.268 . S
C182 O197 1.268 . S
C183 O189 1.268 . S
C183 O193 1.268 . S
C184 O190 1.268 . S
C184 O192 1.268 . S
C185 O191 1.268 . S
C185 O194 1.268 . S
O186 Sc176 2.105 . S
O186 C180 1.268 . S
O187 Sc177 2.105 . S
O187 C181 1.268 . S
O188 Sc178 2.105 . S
O188 C182 1.268 . S
O189 Sc176 2.105 . S
O189 C183 1.268 . S
O190 Sc178 2.105 . S
O190 C184 1.268 . S
O191 Sc177 2.105 1_455 S
O191 C185 1.268 . S
O192 Sc176 2.105 . S
O192 C184 1.268 . S
O193 Sc177 2.105 . S
O193 C183 1.268 . S
O194 Sc178 2.105 1_455 S
O194 C185 1.268 . S
O195 Sc176 2.105 . S
O195 C181 1.268 . S
O196 Sc178 2.105 . S
O196 C180 1.268 . S
O197 Sc177 2.105 . S
O197 C182 1.268 . S
Sc198 O201 2.025 . S
Sc198 O208 2.105 . S
Sc198 O211 2.105 . S
Sc198 O214 2.105 . S
Sc198 O217 2.105 . S
Sc199 O201 2.025 . S
Sc199 O209 2.105 1_565 S
Sc199 O213 2.105 1_455 S
Sc199 O215 2.105 . S
Sc199 O219 2.105 1_565 S
Sc200 O201 2.025 . S
Sc200 O210 2.105 . S
Sc200 O212 2.105 . S
Sc200 O216 2.105 1_455 S
Sc200 O218 2.105 . S
O201 Sc198 2.025 . S
O201 Sc199 2.025 . S
O201 Sc200 2.025 . S
C202 O208 1.268 . S
C202 O218 1.268 . S
C203 O209 1.268 1_565 S
C203 O217 1.268 . S
C204 O210 1.268 . S
C204 O219 1.268 1_565 S
C205 O211 1.268 . S
C205 O215 1.268 . S
C206 O212 1.268 . S
C206 O214 1.268 . S
C207 O213 1.268 . S
C207 O216 1.268 . S
O208 Sc198 2.105 . S
O208 C202 1.268 . S
O209 Sc199 2.105 1_545 S
O209 C203 1.268 1_545 S
O210 Sc200 2.105 . S
O210 C204 1.268 . S
O211 Sc198 2.105 . S
O211 C205 1.268 . S
O212 Sc200 2.105 . S
O212 C206 1.268 . S
O213 Sc199 2.105 1_655 S
O213 C207 1.268 . S
O214 Sc198 2.105 . S
O214 C206 1.268 . S
O215 Sc199 2.105 . S
O215 C205 1.268 . S
O216 Sc200 2.105 1_655 S
O216 C207 1.268 . S
O217 Sc198 2.105 . S
O217 C203 1.268 . S
O218 Sc200 2.105 . S
O218 C202 1.268 . S
O219 Sc199 2.105 1_545 S
O219 C204 1.268 1_545 S
Sc220 O223 2.025 . S
Sc220 O230 2.105 . S
Sc220 O233 2.105 . S
Sc220 O236 2.105 . S
Sc220 O239 2.105 . S
Sc221 O223 2.025 . S
Sc221 O231 2.105 . S
Sc221 O235 2.105 1_655 S
Sc221 O237 2.105 . S
Sc221 O241 2.105 . S
Sc222 O223 2.025 . S
Sc222 O232 2.105 . S
Sc222 O234 2.105 . S
Sc222 O238 2.105 1_655 S
Sc222 O240 2.105 . S
O223 Sc220 2.025 . S
O223 Sc221 2.025 . S
O223 Sc222 2.025 . S
C224 O230 1.268 . S
C224 O240 1.268 . S
C225 O231 1.268 . S
C225 O239 1.268 . S
C226 O232 1.268 . S
C226 O241 1.268 . S
C227 O233 1.268 . S
C227 O237 1.268 . S
C228 O234 1.268 . S
C228 O236 1.268 . S
C229 O235 1.268 . S
C229 O238 1.268 . S
O230 Sc220 2.105 . S
O230 C224 1.268 . S
O231 Sc221 2.105 . S
O231 C225 1.268 . S
O232 Sc222 2.105 . S
O232 C226 1.268 . S
O233 Sc220 2.105 . S
O233 C227 1.268 . S
O234 Sc222 2.105 . S
O234 C228 1.268 . S
O235 Sc221 2.105 1_455 S
O235 C229 1.268 . S
O236 Sc220 2.105 . S
O236 C228 1.268 . S
O237 Sc221 2.105 . S
O237 C227 1.268 . S
O238 Sc222 2.105 1_455 S
O238 C229 1.268 . S
O239 Sc220 2.105 . S
O239 C225 1.268 . S
O240 Sc222 2.105 . S
O240 C224 1.268 . S
O241 Sc221 2.105 . S
O241 C226 1.268 . S
Sc242 O245 2.025 . S
Sc242 O252 2.105 . S
Sc242 O255 2.105 . S
Sc242 O258 2.105 . S
Sc242 O261 2.105 1_455 S
Sc243 O245 2.025 . S
Sc243 O253 2.105 1_455 S
Sc243 O257 2.105 1_545 S
Sc243 O259 2.105 1_545 S
Sc243 O263 2.105 . S
Sc244 O245 2.025 . S
Sc244 O254 2.105 . S
Sc244 O256 2.105 . S
Sc244 O260 2.105 . S
Sc244 O262 2.105 . S
O245 Sc242 2.025 . S
O245 Sc243 2.025 . S
O245 Sc244 2.025 . S
C246 O252 1.268 . S
C246 O262 1.268 . S
C247 O253 1.268 . S
C247 O261 1.268 . S
C248 O254 1.268 . S
C248 O263 1.268 . S
C249 O255 1.268 . S
C249 O259 1.268 1_545 S
C250 O256 1.268 . S
C250 O258 1.268 . S
C251 O257 1.268 1_545 S
C251 O260 1.268 . S
O252 Sc242 2.105 . S
O252 C246 1.268 . S
O253 Sc243 2.105 1_655 S
O253 C247 1.268 . S
O254 Sc244 2.105 . S
O254 C248 1.268 . S
O255 Sc242 2.105 . S
O255 C249 1.268 . S
O256 Sc244 2.105 . S
O256 C250 1.268 . S
O257 Sc243 2.105 1_565 S
O257 C251 1.268 1_565 S
O258 Sc242 2.105 . S
O258 C250 1.268 . S
O259 Sc243 2.105 1_565 S
O259 C249 1.268 1_565 S
O260 Sc244 2.105 . S
O260 C251 1.268 . S
O261 Sc242 2.105 1_655 S
O261 C247 1.268 . S
O262 Sc244 2.105 . S
O262 C246 1.268 . S
O263 Sc243 2.105 . S
O263 C248 1.268 . S
Sc264 O267 2.025 . S
Sc264 O274 2.105 . S
Sc264 O277 2.105 1_455 S
Sc264 O280 2.105 . S
Sc264 O283 2.105 . S
Sc265 O267 2.025 . S
Sc265 O275 2.105 . S
Sc265 O279 2.105 . S
Sc265 O281 2.105 1_455 S
Sc265 O285 2.105 . S
Sc266 O267 2.025 . S
Sc266 O276 2.105 . S
Sc266 O278 2.105 . S
Sc266 O282 2.105 . S
Sc266 O284 2.105 . S
O267 Sc264 2.025 . S
O267 Sc265 2.025 . S
O267 Sc266 2.025 . S
C268 O274 1.268 . S
C268 O284 1.268 . S
C269 O275 1.268 . S
C269 O283 1.268 . S
C270 O276 1.268 . S
C270 O285 1.268 . S
C271 O277 1.268 . S
C271 O281 1.268 . S
C272 O278 1.268 . S
C272 O280 1.268 . S
C273 O279 1.268 . S
C273 O282 1.268 . S
O274 Sc264 2.105 . S
O274 C268 1.268 . S
O275 Sc265 2.105 . S
O275 C269 1.268 . S
O276 Sc266 2.105 . S
O276 C270 1.268 . S
O277 Sc264 2.105 1_655 S
O277 C271 1.268 . S
O278 Sc266 2.105 . S
O278 C272 1.268 . S
O279 Sc265 2.105 . S
O279 C273 1.268 . S
O280 Sc264 2.105 . S
O280 C272 1.268 . S
O281 Sc265 2.105 1_655 S
O281 C271 1.268 . S
O282 Sc266 2.105 . S
O282 C273 1.268 . S
O283 Sc264 2.105 . S
O283 C269 1.268 . S
O284 Sc266 2.105 . S
O284 C268 1.268 . S
O285 Sc265 2.105 . S
O285 C270 1.268 . S
Sc286 O289 2.025 . S
Sc286 O296 2.105 . S
Sc286 O299 2.105 . S
Sc286 O302 2.105 . S
Sc286 O305 2.105 . S
Sc287 O289 2.025 . S
Sc287 O297 2.105 . S
Sc287 O301 2.105 1_545 S
Sc287 O303 2.105 1_545 S
Sc287 O307 2.105 1_655 S
Sc288 O289 2.025 . S
Sc288 O298 2.105 1_655 S
Sc288 O300 2.105 . S
Sc288 O304 2.105 . S
Sc288 O306 2.105 . S
O289 Sc286 2.025 . S
O289 Sc287 2.025 . S
O289 Sc288 2.025 . S
C290 O296 1.268 . S
C290 O306 1.268 . S
C291 O297 1.268 . S
C291 O305 1.268 . S
C292 O298 1.268 . S
C292 O307 1.268 . S
C293 O299 1.268 . S
C293 O303 1.268 1_545 S
C294 O300 1.268 . S
C294 O302 1.268 . S
C295 O301 1.268 1_545 S
C295 O304 1.268 . S
O296 Sc286 2.105 . S
O296 C290 1.268 . S
O297 Sc287 2.105 . S
O297 C291 1.268 . S
O298 Sc288 2.105 1_455 S
O298 C292 1.268 . S
O299 Sc286 2.105 . S
O299 C293 1.268 . S
O300 Sc288 2.105 . S
O300 C294 1.268 . S
O301 Sc287 2.105 1_565 S
O301 C295 1.268 1_565 S
O302 Sc286 2.105 . S
O302 C294 1.268 . S
O303 Sc287 2.105 1_565 S
O303 C293 1.268 1_565 S
O304 Sc288 2.105 . S
O304 C295 1.268 . S
O305 Sc286 2.105 . S
O305 C291 1.268 . S
O306 Sc288 2.105 . S
O306 C290 1.268 . S
O307 Sc287 2.105 1_455 S
O307 C292 1.268 . S
Sc308 O311 2.025 . S
Sc308 O318 2.105 . S
Sc308 O321 2.105 1_455 S
Sc308 O324 2.105 . S
Sc308 O327 2.105 . S
Sc309 O311 2.025 . S
Sc309 O319 2.105 . S
Sc309 O323 2.105 . S
Sc309 O325 2.105 1_455 S
Sc309 O329 2.105 . S
Sc310 O311 2.025 . S
Sc310 O320 2.105 . S
Sc310 O322 2.105 . S
Sc310 O326 2.105 . S
Sc310 O328 2.105 . S
O311 Sc308 2.025 . S
O311 Sc309 2.025 . S
O311 Sc310 2.025 . S
C312 O318 1.268 . S
C312 O328 1.268 . S
C313 O319 1.268 . S
C313 O327 1.268 . S
C314 O320 1.268 . S
C314 O329 1.268 . S
C315 O321 1.268 . S
C315 O325 1.268 . S
C316 O322 1.268 . S
C316 O324 1.268 . S
C317 O323 1.268 . S
C317 O326 1.268 . S
O318 Sc308 2.105 . S
O318 C312 1.268 . S
O319 Sc309 2.105 . S
O319 C313 1.268 . S
O320 Sc310 2.105 . S
O320 C314 1.268 . S
O321 Sc308 2.105 1_655 S
O321 C315 1.268 . S
O322 Sc310 2.105 . S
O322 C316 1.268 . S
O323 Sc309 2.105 . S
O323 C317 1.268 . S
O324 Sc308 2.105 . S
O324 C316 1.268 . S
O325 Sc309 2.105 1_655 S
O325 C315 1.268 . S
O326 Sc310 2.105 . S
O326 C317 1.268 . S
O327 Sc308 2.105 . S
O327 C313 1.268 . S
O328 Sc310 2.105 . S
O328 C312 1.268 . S
O329 Sc309 2.105 . S
O329 C314 1.268 . S
Sc330 O333 2.025 . S
Sc330 O340 2.105 . S
Sc330 O343 2.105 1_655 S
Sc330 O346 2.105 . S
Sc330 O349 2.105 . S
Sc331 O333 2.025 . S
Sc331 O341 2.105 1_565 S
Sc331 O345 2.105 . S
Sc331 O347 2.105 1_655 S
Sc331 O351 2.105 1_565 S
Sc332 O333 2.025 . S
Sc332 O342 2.105 . S
Sc332 O344 2.105 . S
Sc332 O348 2.105 . S
Sc332 O350 2.105 . S
O333 Sc330 2.025 . S
O333 Sc331 2.025 . S
O333 Sc332 2.025 . S
C334 O340 1.268 . S
C334 O350 1.268 . S
C335 O341 1.268 1_565 S
C335 O349 1.268 . S
C336 O342 1.268 . S
C336 O351 1.268 1_565 S
C337 O343 1.268 . S
C337 O347 1.268 . S
C338 O344 1.268 . S
C338 O346 1.268 . S
C339 O345 1.268 . S
C339 O348 1.268 . S
O340 Sc330 2.105 . S
O340 C334 1.268 . S
O341 Sc331 2.105 1_545 S
O341 C335 1.268 1_545 S
O342 Sc332 2.105 . S
O342 C336 1.268 . S
O343 Sc330 2.105 1_455 S
O343 C337 1.268 . S
O344 Sc332 2.105 . S
O344 C338 1.268 . S
O345 Sc331 2.105 . S
O345 C339 1.268 . S
O346 Sc330 2.105 . S
O346 C338 1.268 . S
O347 Sc331 2.105 1_455 S
O347 C337 1.268 . S
O348 Sc332 2.105 . S
O348 C339 1.268 . S
O349 Sc330 2.105 . S
O349 C335 1.268 . S
O350 Sc332 2.105 . S
O350 C334 1.268 . S
O351 Sc331 2.105 1_545 S
O351 C336 1.268 1_545 S
C352 C353 1.369 1_545 S
C352 C354 1.419 1_554 S
C352 H356 0.930 . S
C353 C352 1.369 1_565 S
C353 C362 1.443 . S
C354 C352 1.419 1_556 S
C354 C355 1.363 . S
C354 H357 0.929 . S
C355 C354 1.363 . S
C355 C361 1.428 1_545 S
H356 C352 0.930 . S
H357 C354 0.929 . S
S358 N359 1.613 . S
S358 N360 1.610 . S
N359 S358 1.613 . S
N359 C362 1.348 1_556 S
N360 S358 1.610 . S
N360 C361 1.351 . S
C361 C355 1.428 1_565 S
C361 N360 1.351 . S
C361 C362 1.419 1_556 S
C362 C353 1.443 . S
C362 N359 1.348 1_554 S
C362 C361 1.419 1_554 S
C363 C364 1.369 . S
C363 C365 1.419 1_554 S
C363 H367 0.930 . S
C364 C363 1.369 . S
C364 C373 1.429 . S
C365 C363 1.419 1_556 S
C365 C366 1.363 . S
C365 H368 0.929 . S
C366 C365 1.363 . S
C366 C372 1.428 . S
H367 C363 0.930 . S
H368 C365 0.929 . S
S369 N370 1.613 . S
S369 N371 1.610 1_554 S
N370 S369 1.613 . S
N370 C373 1.350 . S
N371 S369 1.610 1_556 S
N371 C372 1.351 . S
C372 C366 1.428 . S
C372 N371 1.351 . S
C372 C373 1.434 1_556 S
C373 C364 1.429 . S
C373 N370 1.350 . S
C373 C372 1.434 1_554 S
C374 C375 1.369 . S
C374 C376 1.419 . S
C374 H378 0.930 . S
C375 C374 1.369 . S
C375 C384 1.429 1_545 S
C376 C374 1.419 . S
C376 C377 1.363 1_545 S
C376 H379 0.929 . S
C377 C376 1.363 1_565 S
C377 C383 1.428 . S
H378 C374 0.930 . S
H379 C376 0.929 . S
S380 N381 1.613 . S
S380 N382 1.610 . S
N381 S380 1.613 . S
N381 C384 1.350 . S
N382 S380 1.610 . S
N382 C383 1.351 . S
C383 C377 1.428 . S
C383 N382 1.351 . S
C383 C384 1.434 . S
C384 C375 1.429 1_565 S
C384 N381 1.350 . S
C384 C383 1.434 . S
C385 C386 1.369 . S
C385 C387 1.419 . S
C385 H389 0.930 . S
C386 C385 1.369 . S
C386 C395 1.429 . S
C387 C385 1.419 . S
C387 C388 1.363 . S
C387 H390 0.929 . S
C388 C387 1.363 . S
C388 C394 1.428 . S
H389 C385 0.930 . S
H390 C387 0.929 . S
S391 N392 1.613 . S
S391 N393 1.610 . S
N392 S391 1.613 . S
N392 C395 1.350 . S
N393 S391 1.610 . S
N393 C394 1.351 . S
C394 C388 1.428 . S
C394 N393 1.351 . S
C394 C395 1.434 . S
C395 C386 1.429 . S
C395 N392 1.350 . S
C395 C394 1.434 . S
C396 C397 1.369 . S
C396 C398 1.419 . S
C396 H400 0.930 . S
C397 C396 1.369 . S
C397 C406 1.429 1_655 S
C398 C396 1.419 . S
C398 C399 1.363 1_655 S
C398 H401 0.929 . S
C399 C398 1.363 1_455 S
C399 C405 1.428 . S
H400 C396 0.930 . S
H401 C398 0.929 . S
S402 N403 1.613 . S
S402 N404 1.610 . S
N403 S402 1.613 . S
N403 C406 1.350 . S
N404 S402 1.610 . S
N404 C405 1.351 . S
C405 C399 1.428 . S
C405 N404 1.351 . S
C405 C406 1.434 . S
C406 C397 1.429 1_455 S
C406 N403 1.350 . S
C406 C405 1.434 . S
C407 C408 1.369 1_665 S
C407 C409 1.419 . S
C407 H411 0.930 . S
C408 C407 1.369 1_445 S
C408 C417 1.429 . S
C409 C407 1.419 . S
C409 C410 1.363 . S
C409 H412 0.929 . S
C410 C409 1.363 . S
C410 C416 1.428 1_665 S
H411 C407 0.930 . S
H412 C409 0.929 . S
S413 N414 1.613 . S
S413 N415 1.610 . S
N414 S413 1.613 . S
N414 C417 1.350 . S
N415 S413 1.610 . S
N415 C416 1.351 . S
C416 C410 1.428 1_445 S
C416 N415 1.351 . S
C416 C417 1.434 . S
C417 C408 1.429 . S
C417 N414 1.350 . S
C417 C416 1.434 . S
C418 C419 1.369 . S
C418 C420 1.419 1_656 S
C418 H422 0.930 . S
C419 C418 1.369 . S
C419 C428 1.429 . S
C420 C418 1.419 1_454 S
C420 C421 1.363 . S
C420 H423 0.929 . S
C421 C420 1.363 . S
C421 C427 1.428 . S
H422 C418 0.930 . S
H423 C420 0.929 . S
S424 N425 1.613 1_455 S
S424 N426 1.610 1_556 S
N425 S424 1.613 1_655 S
N425 C428 1.350 . S
N426 S424 1.610 1_554 S
N426 C427 1.351 . S
C427 C421 1.428 . S
C427 N426 1.351 . S
C427 C428 1.434 1_454 S
C428 C419 1.429 . S
C428 N425 1.350 . S
C428 C427 1.434 1_656 S
C429 C430 1.369 1_545 S
C429 C431 1.419 1_456 S
C429 H433 0.930 . S
C430 C429 1.369 1_565 S
C430 C439 1.429 . S
C431 C429 1.419 1_654 S
C431 C432 1.363 . S
C431 H434 0.929 . S
C432 C431 1.363 . S
C432 C438 1.428 1_545 S
H433 C429 0.930 . S
H434 C431 0.929 . S
S435 N436 1.613 1_654 S
S435 N437 1.610 . S
N436 S435 1.613 1_456 S
N436 C439 1.350 . S
N437 S435 1.610 . S
N437 C438 1.351 . S
C438 C432 1.428 1_565 S
C438 N437 1.351 . S
C438 C439 1.434 1_654 S
C439 C430 1.429 . S
C439 N436 1.350 . S
C439 C438 1.434 1_456 S
C440 C441 1.369 . S
C440 C442 1.419 1_545 S
C440 H444 0.930 . S
C441 C440 1.369 . S
C441 C450 1.429 . S
C442 C440 1.419 1_565 S
C442 C443 1.363 . S
C442 H445 0.929 . S
C443 C442 1.363 . S
C443 C449 1.428 . S
H444 C440 0.930 . S
H445 C442 0.929 . S
S446 N447 1.613 . S
S446 N448 1.610 1_545 S
N447 S446 1.613 . S
N447 C450 1.350 . S
N448 S446 1.610 1_565 S
N448 C449 1.351 . S
C449 C443 1.428 . S
C449 N448 1.351 . S
C449 C450 1.434 1_565 S
C450 C441 1.429 . S
C450 N447 1.350 . S
C450 C449 1.434 1_545 S
C451 C452 1.369 . S
C451 C453 1.419 . S
C451 H455 0.930 . S
C452 C451 1.369 . S
C452 C461 1.429 . S
C453 C451 1.419 . S
C453 C454 1.363 . S
C453 H456 0.929 . S
C454 C453 1.363 . S
C454 C460 1.428 . S
H455 C451 0.930 . S
H456 C453 0.929 . S
S457 N458 1.613 . S
S457 N459 1.610 . S
N458 S457 1.613 . S
N458 C461 1.350 . S
N459 S457 1.610 . S
N459 C460 1.351 . S
C460 C454 1.428 . S
C460 N459 1.351 . S
C460 C461 1.434 . S
C461 C452 1.429 . S
C461 N458 1.350 . S
C461 C460 1.434 . S
C462 C463 1.369 1_545 S
C462 C464 1.419 . S
C462 H466 0.930 . S
C463 C462 1.369 1_565 S
C463 C472 1.429 . S
C464 C462 1.419 . S
C464 C465 1.363 . S
C464 H467 0.929 . S
C465 C464 1.363 . S
C465 C471 1.428 1_545 S
H466 C462 0.930 . S
H467 C464 0.929 . S
S468 N469 1.613 . S
S468 N470 1.610 . S
N469 S468 1.613 . S
N469 C472 1.350 . S
N470 S468 1.610 . S
N470 C471 1.351 . S
C471 C465 1.428 1_565 S
C471 N470 1.351 . S
C471 C472 1.434 . S
C472 C463 1.429 . S
C472 N469 1.350 . S
C472 C471 1.434 . S
C473 C474 1.369 . S
C473 C475 1.419 . S
C473 H477 0.930 . S
C474 C473 1.369 . S
C474 C483 1.429 . S
C475 C473 1.419 . S
C475 C476 1.363 . S
C475 H478 0.929 . S
C476 C475 1.363 . S
C476 C482 1.428 . S
H477 C473 0.930 . S
H478 C475 0.929 . S
S479 N480 1.613 . S
S479 N481 1.610 . S
N480 S479 1.613 . S
N480 C483 1.350 . S
N481 S479 1.610 . S
N481 C482 1.351 . S
C482 C476 1.428 . S
C482 N481 1.351 . S
C482 C483 1.434 . S
C483 C474 1.429 . S
C483 N480 1.350 . S
C483 C482 1.434 . S
C484 C485 1.369 . S
C484 C486 1.419 . S
C484 H488 0.930 . S
C485 C484 1.369 . S
C485 C494 1.429 . S
C486 C484 1.419 . S
C486 C487 1.363 . S
C486 H489 0.929 . S
C487 C486 1.363 . S
C487 C493 1.428 . S
H488 C484 0.930 . S
H489 C486 0.929 . S
S490 N491 1.613 . S
S490 N492 1.610 . S
N491 S490 1.613 . S
N491 C494 1.350 . S
N492 S490 1.610 . S
N492 C493 1.351 . S
C493 C487 1.428 . S
C493 N492 1.351 . S
C493 C494 1.434 . S
C494 C485 1.429 . S
C494 N491 1.350 . S
C494 C493 1.434 . S
C495 C496 1.369 1_565 S
C495 C497 1.419 . S
C495 H499 0.930 . S
C496 C495 1.369 1_545 S
C496 C505 1.429 . S
C497 C495 1.419 . S
C497 C498 1.363 . S
C497 H500 0.929 . S
C498 C497 1.363 . S
C498 C504 1.428 1_565 S
H499 C495 0.930 . S
H500 C497 0.929 . S
S501 N502 1.613 . S
S501 N503 1.610 . S
N502 S501 1.613 . S
N502 C505 1.350 . S
N503 S501 1.610 . S
N503 C504 1.351 . S
C504 C498 1.428 1_545 S
C504 N503 1.351 . S
C504 C505 1.434 . S
C505 C496 1.429 . S
C505 N502 1.350 . S
C505 C504 1.434 . S
C506 C507 1.369 . S
C506 C508 1.419 . S
C506 H510 0.930 . S
C507 C506 1.369 . S
C507 C516 1.429 . S
C508 C506 1.419 . S
C508 C509 1.363 . S
C508 H511 0.929 . S
C509 C508 1.363 . S
C509 C515 1.428 . S
H510 C506 0.930 . S
H511 C508 0.929 . S
S512 N513 1.613 . S
S512 N514 1.610 . S
N513 S512 1.613 . S
N513 C516 1.350 . S
N514 S512 1.610 . S
N514 C515 1.351 . S
C515 C509 1.428 . S
C515 N514 1.351 . S
C515 C516 1.434 . S
C516 C507 1.429 . S
C516 N513 1.350 . S
C516 C515 1.434 . S
C517 C518 1.369 1_565 S
C517 C519 1.419 . S
C517 H521 0.930 . S
C518 C517 1.369 1_545 S
C518 C527 1.429 . S
C519 C517 1.419 . S
C519 C520 1.363 . S
C519 H522 0.929 . S
C520 C519 1.363 . S
C520 C526 1.428 1_565 S
H521 C517 0.930 . S
H522 C519 0.929 . S
S523 N524 1.613 1_455 S
S523 N525 1.610 1_455 S
N524 S523 1.613 1_655 S
N524 C527 1.350 . S
N525 S523 1.610 1_655 S
N525 C526 1.351 . S
C526 C520 1.428 1_545 S
C526 N525 1.351 . S
C526 C527 1.434 . S
C527 C518 1.429 . S
C527 N524 1.350 . S
C527 C526 1.434 . S
C528 C529 1.369 . S
C528 C530 1.419 . S
C528 H532 0.930 . S
C529 C528 1.369 . S
C529 C538 1.429 1_554 S
C530 C528 1.419 . S
C530 C531 1.363 1_554 S
C530 H533 0.929 . S
C531 C530 1.363 1_556 S
C531 C537 1.428 . S
H532 C528 0.930 . S
H533 C530 0.929 . S
S534 N535 1.613 . S
S534 N536 1.610 . S
N535 S534 1.613 . S
N535 C538 1.350 . S
N536 S534 1.610 . S
N536 C537 1.351 . S
C537 C531 1.428 . S
C537 N536 1.351 . S
C537 C538 1.434 . S
C538 C529 1.429 1_556 S
C538 N535 1.350 . S
C538 C537 1.434 . S
C539 C540 1.369 . S
C539 C541 1.419 1_556 S
C539 H543 0.930 . S
C540 C539 1.369 . S
C540 C549 1.429 . S
C541 C539 1.419 1_554 S
C541 C542 1.363 . S
C541 H544 0.929 . S
C542 C541 1.363 . S
C542 C548 1.455 . S
H543 C539 0.930 . S
H544 C541 0.929 . S
S545 N546 1.613 . S
S545 N547 1.610 . S
N546 S545 1.613 . S
N546 C549 1.350 . S
N547 S545 1.610 . S
N547 C548 1.348 1_556 S
C548 C542 1.455 . S
C548 N547 1.348 1_554 S
C548 C549 1.407 1_554 S
C549 C540 1.429 . S
C549 N546 1.350 . S
C549 C548 1.407 1_556 S
C550 C551 1.369 . S
C550 C552 1.419 . S
C550 H554 0.930 . S
C551 C550 1.369 . S
C551 C560 1.429 . S
C552 C550 1.419 . S
C552 C553 1.363 . S
C552 H555 0.929 . S
C553 C552 1.363 . S
C553 C559 1.428 . S
H554 C550 0.930 . S
H555 C552 0.929 . S
S556 N557 1.613 . S
S556 N558 1.610 . S
N557 S556 1.613 . S
N557 C560 1.350 . S
N558 S556 1.610 . S
N558 C559 1.351 . S
C559 C553 1.428 . S
C559 N558 1.351 . S
C559 C560 1.434 . S
C560 C551 1.429 . S
C560 N557 1.350 . S
C560 C559 1.434 . S
C561 C562 1.369 . S
C561 C563 1.419 . S
C561 H565 0.930 . S
C562 C561 1.369 . S
C562 C571 1.429 . S
C563 C561 1.419 . S
C563 C564 1.363 . S
C563 H566 0.929 . S
C564 C563 1.363 . S
C564 C570 1.428 . S
H565 C561 0.930 . S
H566 C563 0.929 . S
S567 N568 1.613 . S
S567 N569 1.610 . S
N568 S567 1.613 . S
N568 C571 1.350 . S
N569 S567 1.610 . S
N569 C570 1.351 . S
C570 C564 1.428 . S
C570 N569 1.351 . S
C570 C571 1.434 . S
C571 C562 1.429 . S
C571 N568 1.350 . S
C571 C570 1.434 . S
C572 C573 1.369 . S
C572 C574 1.419 1_556 S
C572 H576 0.930 . S
C573 C572 1.369 . S
C573 C582 1.429 . S
C574 C572 1.419 1_554 S
C574 C575 1.363 . S
C574 H577 0.929 . S
C575 C574 1.363 . S
C575 C581 1.428 . S
H576 C572 0.930 . S
H577 C574 0.929 . S
S578 N579 1.613 1_554 S
S578 N580 1.610 . S
N579 S578 1.613 1_556 S
N579 C582 1.350 . S
N580 S578 1.610 . S
N580 C581 1.351 . S
C581 C575 1.428 . S
C581 N580 1.351 . S
C581 C582 1.434 1_554 S
C582 C573 1.429 . S
C582 N579 1.350 . S
C582 C581 1.434 1_556 S
C583 C584 1.394 . S
C583 C585 1.394 1_556 S
C583 H587 0.930 . S
C584 C583 1.394 . S
C584 C593 1.429 . S
C585 C583 1.394 1_554 S
C585 C586 1.363 . S
C585 H588 0.929 . S
C586 C585 1.363 . S
C586 C592 1.429 . S
H587 C583 0.930 . S
H588 C585 0.929 . S
S589 N590 1.613 . S
S589 N591 1.610 . S
N590 S589 1.613 . S
N590 C593 1.350 . S
N591 S589 1.610 . S
N591 C592 1.351 1_556 S
C592 C586 1.429 . S
C592 N591 1.351 1_554 S
C592 C593 1.434 1_554 S
C593 C584 1.429 . S
C593 N590 1.350 . S
C593 C592 1.434 1_556 S
C594 C595 1.369 . S
C594 C596 1.419 . S
C594 H598 0.930 . S
C595 C594 1.369 . S
C595 C604 1.429 . S
C596 C594 1.419 . S
C596 C597 1.363 . S
C596 H599 0.929 . S
C597 C596 1.363 . S
C597 C603 1.428 . S
H598 C594 0.930 . S
H599 C596 0.929 . S
S600 N601 1.613 . S
S600 N602 1.610 . S
N601 S600 1.613 . S
N601 C604 1.350 . S
N602 S600 1.610 . S
N602 C603 1.351 . S
C603 C597 1.428 . S
C603 N602 1.351 . S
C603 C604 1.434 . S
C604 C595 1.429 . S
C604 N601 1.350 . S
C604 C603 1.434 . S
C605 C606 1.369 . S
C605 C607 1.419 . S
C605 H609 0.930 . S
C606 C605 1.369 . S
C606 C615 1.429 . S
C607 C605 1.419 . S
C607 C608 1.363 . S
C607 H610 0.929 . S
C608 C607 1.363 . S
C608 C614 1.428 . S
H609 C605 0.930 . S
H610 C607 0.929 . S
S611 N612 1.613 . S
S611 N613 1.610 . S
N612 S611 1.613 . S
N612 C615 1.350 . S
N613 S611 1.610 . S
N613 C614 1.351 . S
C614 C608 1.428 . S
C614 N613 1.351 . S
C614 C615 1.434 . S
C615 C606 1.429 . S
C615 N612 1.350 . S
C615 C614 1.434 . S
C616 C617 1.369 . S
C616 C618 1.419 . S
C616 H620 0.930 . S
C617 C616 1.369 . S
C617 C626 1.429 . S
C618 C616 1.419 . S
C618 C619 1.363 . S
C618 H621 0.929 . S
C619 C618 1.363 . S
C619 C625 1.428 1_545 S
H620 C616 0.930 . S
H621 C618 0.929 . S
S622 N623 1.613 . S
S622 N624 1.610 . S
N623 S622 1.613 . S
N623 C626 1.350 1_565 S
N624 S622 1.610 . S
N624 C625 1.351 . S
C625 C619 1.428 1_565 S
C625 N624 1.351 . S
C625 C626 1.434 1_565 S
C626 C617 1.429 . S
C626 N623 1.350 1_545 S
C626 C625 1.434 1_545 S
C627 C628 1.369 . S
C627 C629 1.419 . S
C627 H631 0.930 . S
C628 C627 1.369 . S
C628 C637 1.429 . S
C629 C627 1.419 . S
C629 C630 1.363 . S
C629 H632 0.929 . S
C630 C629 1.363 . S
C630 C636 1.428 . S
H631 C627 0.930 . S
H632 C629 0.929 . S
S633 N634 1.613 . S
S633 N635 1.610 . S
N634 S633 1.613 . S
N634 C637 1.350 . S
N635 S633 1.610 . S
N635 C636 1.351 . S
C636 C630 1.428 . S
C636 N635 1.351 . S
C636 C637 1.434 . S
C637 C628 1.429 . S
C637 N634 1.350 . S
C637 C636 1.434 . S
C638 C639 1.369 . S
C638 C640 1.419 . S
C638 H642 0.930 . S
C639 C638 1.369 . S
C639 C648 1.421 1_565 S
C640 C638 1.419 . S
C640 C641 1.363 . S
C640 H643 0.929 . S
C641 C640 1.363 . S
C641 C647 1.428 1_565 S
H642 C638 0.930 . S
H643 C640 0.929 . S
S644 N645 1.613 . S
S644 N646 1.610 . S
N645 S644 1.613 . S
N645 C648 1.355 . S
N646 S644 1.610 . S
N646 C647 1.351 . S
C647 C641 1.428 1_545 S
C647 N646 1.351 . S
C647 C648 1.437 . S
C648 C639 1.421 1_545 S
C648 N645 1.355 . S
C648 C647 1.437 . S
C649 C650 1.369 . S
C649 C651 1.419 . S
C649 H653 0.930 . S
C650 C649 1.369 . S
C650 C659 1.429 . S
C651 C649 1.419 . S
C651 C652 1.363 . S
C651 H654 0.929 . S
C652 C651 1.363 . S
C652 C658 1.428 . S
H653 C649 0.930 . S
H654 C651 0.929 . S
S655 N656 1.613 . S
S655 N657 1.610 . S
N656 S655 1.613 . S
N656 C659 1.350 . S
N657 S655 1.610 . S
N657 C658 1.351 . S
C658 C652 1.428 . S
C658 N657 1.351 . S
C658 C659 1.434 . S
C659 C650 1.429 . S
C659 N656 1.350 . S
C659 C658 1.434 . S
C660 C661 1.369 1_545 S
C660 C662 1.419 1_545 S
C660 H664 0.930 . S
C661 C660 1.369 1_565 S
C661 C670 1.429 . S
C662 C660 1.419 1_565 S
C662 C663 1.363 . S
C662 H665 0.929 1_565 S
C663 C662 1.363 . S
C663 C669 1.428 . S
H664 C660 0.930 . S
H665 C662 0.929 1_545 S
S666 N667 1.613 . S
S666 N668 1.610 . S
N667 S666 1.613 . S
N667 C670 1.350 . S
N668 S666 1.610 . S
N668 C669 1.351 . S
C669 C663 1.428 . S
C669 N668 1.351 . S
C669 C670 1.434 . S
C670 C661 1.429 . S
C670 N667 1.350 . S
C670 C669 1.434 . S
C671 C672 1.369 . S
C671 C673 1.419 . S
C671 H675 0.930 . S
C672 C671 1.369 . S
C672 C681 1.429 . S
C673 C671 1.419 . S
C673 C674 1.363 . S
C673 H676 0.929 . S
C674 C673 1.363 . S
C674 C680 1.428 . S
H675 C671 0.930 . S
H676 C673 0.929 . S
S677 N678 1.613 . S
S677 N679 1.610 . S
N678 S677 1.613 . S
N678 C681 1.350 . S
N679 S677 1.610 . S
N679 C680 1.351 . S
C680 C674 1.428 . S
C680 N679 1.351 . S
C680 C681 1.434 . S
C681 C672 1.429 . S
C681 N678 1.350 . S
C681 C680 1.434 . S
C682 C683 1.369 . S
C682 C684 1.419 . S
C682 H686 0.930 . S
C683 C682 1.369 . S
C683 C692 1.429 1_545 S
C684 C682 1.419 . S
C684 C685 1.363 . S
C684 H687 0.929 . S
C685 C684 1.363 . S
C685 C691 1.428 . S
H686 C682 0.930 . S
H687 C684 0.929 . S
S688 N689 1.613 . S
S688 N690 1.610 . S
N689 S688 1.613 . S
N689 C692 1.350 . S
N690 S688 1.610 . S
N690 C691 1.351 1_565 S
C691 C685 1.428 . S
C691 N690 1.351 1_545 S
C691 C692 1.434 1_545 S
C692 C683 1.429 1_565 S
C692 N689 1.350 . S
C692 C691 1.434 1_565 S
C693 C694 1.369 . S
C693 C695 1.419 . S
C693 H697 0.930 . S
C694 C693 1.369 . S
C694 C703 1.429 . S
C695 C693 1.419 . S
C695 C696 1.363 . S
C695 H698 0.929 . S
C696 C695 1.363 . S
C696 C702 1.428 . S
H697 C693 0.930 . S
H698 C695 0.929 . S
S699 N700 1.613 . S
S699 N701 1.610 . S
N700 S699 1.613 . S
N700 C703 1.350 . S
N701 S699 1.610 . S
N701 C702 1.351 . S
C702 C696 1.428 . S
C702 N701 1.351 . S
C702 C703 1.434 . S
C703 C694 1.429 . S
C703 N700 1.350 . S
C703 C702 1.434 . S
C704 C705 1.369 . S
C704 C706 1.419 . S
C704 H708 0.930 . S
C705 C704 1.369 . S
C705 C714 1.429 . S
C706 C704 1.419 . S
C706 C707 1.363 . S
C706 H709 0.929 . S
C707 C706 1.363 . S
C707 C713 1.428 . S
H708 C704 0.930 . S
H709 C706 0.929 . S
S710 N711 1.613 . S
S710 N712 1.610 . S
N711 S710 1.613 . S
N711 C714 1.350 . S
N712 S710 1.610 . S
N712 C713 1.351 . S
C713 C707 1.428 . S
C713 N712 1.351 . S
C713 C714 1.434 . S
C714 C705 1.429 . S
C714 N711 1.350 . S
C714 C713 1.434 . S
C715 C716 1.369 . S
C715 C717 1.419 . S
C715 H719 0.930 . S
C716 C715 1.369 . S
C716 C725 1.429 1_565 S
C717 C715 1.419 . S
C717 C718 1.363 . S
C717 H720 0.929 . S
C718 C717 1.363 . S
C718 C724 1.428 . S
H719 C715 0.930 . S
H720 C717 0.929 . S
S721 N722 1.613 . S
S721 N723 1.610 . S
N722 S721 1.613 . S
N722 C725 1.350 . S
N723 S721 1.610 . S
N723 C724 1.351 1_545 S
C724 C718 1.428 . S
C724 N723 1.351 1_565 S
C724 C725 1.434 1_565 S
C725 C716 1.429 1_545 S
C725 N722 1.350 . S
C725 C724 1.434 1_545 S
C726 C727 1.369 . S
C726 C728 1.419 . S
C726 H730 0.930 . S
C727 C726 1.369 . S
C727 C736 1.429 . S
C728 C726 1.419 . S
C728 C729 1.363 . S
C728 H731 0.929 . S
C729 C728 1.363 . S
C729 C735 1.428 . S
H730 C726 0.930 . S
H731 C728 0.929 . S
S732 N733 1.613 . S
S732 N734 1.610 . S
N733 S732 1.613 . S
N733 C736 1.350 . S
N734 S732 1.610 . S
N734 C735 1.351 . S
C735 C729 1.428 . S
C735 N734 1.351 . S
C735 C736 1.434 . S
C736 C727 1.429 . S
C736 N733 1.350 . S
C736 C735 1.434 . S
C737 C738 1.369 . S
C737 C739 1.419 1_545 S
C737 H741 0.930 1_545 S
C738 C737 1.369 . S
C738 C747 1.429 . S
C739 C737 1.419 1_565 S
C739 C740 1.363 1_565 S
C739 H742 0.929 . S
C740 C739 1.363 1_545 S
C740 C746 1.428 . S
H741 C737 0.930 1_565 S
H742 C739 0.929 . S
S743 N744 1.613 . S
S743 N745 1.610 . S
N744 S743 1.613 . S
N744 C747 1.350 . S
N745 S743 1.610 . S
N745 C746 1.351 . S
C746 C740 1.428 . S
C746 N745 1.351 . S
C746 C747 1.434 . S
C747 C738 1.429 . S
C747 N744 1.350 . S
C747 C746 1.434 . S
C748 C749 1.369 . S
C748 C750 1.419 . S
C748 H752 0.930 . S
C749 C748 1.369 . S
C749 C758 1.429 . S
C750 C748 1.419 . S
C750 C751 1.363 . S
C750 H753 0.929 . S
C751 C750 1.363 . S
C751 C757 1.428 . S
H752 C748 0.930 . S
H753 C750 0.929 . S
S754 N755 1.613 . S
S754 N756 1.610 . S
N755 S754 1.613 . S
N755 C758 1.350 . S
N756 S754 1.610 . S
N756 C757 1.351 . S
C757 C751 1.428 . S
C757 N756 1.351 . S
C757 C758 1.434 . S
C758 C749 1.429 . S
C758 N755 1.350 . S
C758 C757 1.434 . S
C759 C760 1.369 1_565 S
C759 C761 1.419 1_565 S
C759 H763 0.930 . S
C760 C759 1.369 1_545 S
C760 C769 1.429 . S
C761 C759 1.419 1_545 S
C761 C762 1.363 . S
C761 H764 0.929 1_545 S
C762 C761 1.363 . S
C762 C768 1.428 . S
H763 C759 0.930 . S
H764 C761 0.929 1_565 S
S765 N766 1.613 . S
S765 N767 1.610 . S
N766 S765 1.613 . S
N766 C769 1.350 . S
N767 S765 1.610 . S
N767 C768 1.351 . S
C768 C762 1.428 . S
C768 N767 1.351 . S
C768 C769 1.434 . S
C769 C760 1.429 . S
C769 N766 1.350 . S
C769 C768 1.434 . S
C770 C771 1.369 . S
C770 C772 1.419 . S
C770 H774 0.930 . S
C771 C770 1.369 . S
C771 C780 1.429 . S
C772 C770 1.419 . S
C772 C773 1.363 . S
C772 H775 0.929 . S
C773 C772 1.363 . S
C773 C779 1.428 . S
H774 C770 0.930 . S
H775 C772 0.929 . S
S776 N777 1.613 . S
S776 N778 1.610 . S
N777 S776 1.613 . S
N777 C780 1.350 . S
N778 S776 1.610 . S
N778 C779 1.351 . S
C779 C773 1.428 . S
C779 N778 1.351 . S
C779 C780 1.434 . S
C780 C771 1.429 . S
C780 N777 1.350 . S
C780 C779 1.434 . S
C781 C782 1.369 . S
C781 C783 1.419 . S
C781 H785 0.930 . S
C782 C781 1.369 . S
C782 C791 1.429 1_565 S
C783 C781 1.419 . S
C783 C784 1.363 . S
C783 H786 0.929 . S
C784 C783 1.363 . S
C784 C790 1.428 . S
H785 C781 0.930 . S
H786 C783 0.929 . S
S787 N788 1.613 . S
S787 N789 1.610 . S
N788 S787 1.613 . S
N788 C791 1.350 . S
N789 S787 1.610 . S
N789 C790 1.351 1_545 S
C790 C784 1.428 . S
C790 N789 1.351 1_565 S
C790 C791 1.434 1_565 S
C791 C782 1.429 1_545 S
C791 N788 1.350 . S
C791 C790 1.434 1_545 S
C792 C793 1.369 . S
C792 C794 1.419 . S
C792 H796 0.930 . S
C793 C792 1.369 . S
C793 C802 1.429 . S
C794 C792 1.419 . S
C794 C795 1.363 . S
C794 H797 0.929 . S
C795 C794 1.363 . S
C795 C801 1.428 . S
H796 C792 0.930 . S
H797 C794 0.929 . S
S798 N799 1.613 . S
S798 N800 1.610 . S
N799 S798 1.613 . S
N799 C802 1.350 . S
N800 S798 1.610 . S
N800 C801 1.351 . S
C801 C795 1.428 . S
C801 N800 1.351 . S
C801 C802 1.434 . S
C802 C793 1.429 . S
C802 N799 1.350 . S
C802 C801 1.434 . S
C803 C804 1.369 . S
C803 C805 1.419 . S
C803 H807 0.930 . S
C804 C803 1.369 . S
C804 C813 1.429 . S
C805 C803 1.419 . S
C805 C806 1.363 . S
C805 H808 0.929 . S
C806 C805 1.363 . S
C806 C812 1.428 . S
H807 C803 0.930 . S
H808 C805 0.929 . S
S809 N810 1.613 . S
S809 N811 1.610 . S
N810 S809 1.613 . S
N810 C813 1.350 . S
N811 S809 1.610 . S
N811 C812 1.351 . S
C812 C806 1.428 . S
C812 N811 1.351 . S
C812 C813 1.434 . S
C813 C804 1.429 . S
C813 N810 1.350 . S
C813 C812 1.434 . S
C814 C815 1.369 . S
C814 C816 1.419 . S
C814 H818 0.930 . S
C815 C814 1.369 . S
C815 C824 1.429 . S
C816 C814 1.419 . S
C816 C817 1.363 . S
C816 H819 0.929 . S
C817 C816 1.363 . S
C817 C823 1.428 . S
H818 C814 0.930 . S
H819 C816 0.929 . S
S820 N821 1.613 . S
S820 N822 1.610 . S
N821 S820 1.613 . S
N821 C824 1.350 . S
N822 S820 1.610 . S
N822 C823 1.351 . S
C823 C817 1.428 . S
C823 N822 1.351 . S
C823 C824 1.434 . S
C824 C815 1.429 . S
C824 N821 1.350 . S
C824 C823 1.434 . S
C825 C826 1.369 . S
C825 C827 1.419 . S
C825 H829 0.930 . S
C826 C825 1.369 . S
C826 C835 1.429 . S
C827 C825 1.419 . S
C827 C828 1.363 . S
C827 H830 0.929 . S
C828 C827 1.363 . S
C828 C834 1.428 . S
H829 C825 0.930 . S
H830 C827 0.929 . S
S831 N832 1.613 . S
S831 N833 1.610 . S
N832 S831 1.613 . S
N832 C835 1.350 . S
N833 S831 1.610 . S
N833 C834 1.351 . S
C834 C828 1.428 . S
C834 N833 1.351 . S
C834 C835 1.434 . S
C835 C826 1.429 . S
C835 N832 1.350 . S
C835 C834 1.434 . S
C836 C837 1.369 . S
C836 C838 1.419 . S
C836 H840 0.930 . S
C837 C836 1.369 . S
C837 C846 1.429 1_455 S
C838 C836 1.419 . S
C838 C839 1.363 1_455 S
C838 H841 0.929 . S
C839 C838 1.363 1_655 S
C839 C845 1.428 . S
H840 C836 0.930 . S
H841 C838 0.929 . S
S842 N843 1.613 . S
S842 N844 1.610 . S
N843 S842 1.613 . S
N843 C846 1.350 . S
N844 S842 1.610 . S
N844 C845 1.351 . S
C845 C839 1.428 . S
C845 N844 1.351 . S
C845 C846 1.434 . S
C846 C837 1.429 1_655 S
C846 N843 1.350 . S
C846 C845 1.434 . S
C847 C848 1.369 . S
C847 C849 1.419 . S
C847 H851 0.930 . S
C848 C847 1.369 . S
C848 C857 1.429 1_655 S
C849 C847 1.419 . S
C849 C850 1.363 1_655 S
C849 H852 0.929 . S
C850 C849 1.363 1_455 S
C850 C856 1.428 . S
H851 C847 0.930 . S
H852 C849 0.929 . S
S853 N854 1.613 . S
S853 N855 1.610 . S
N854 S853 1.613 . S
N854 C857 1.350 . S
N855 S853 1.610 . S
N855 C856 1.351 . S
C856 C850 1.428 . S
C856 N855 1.351 . S
C856 C857 1.434 . S
C857 C848 1.429 1_455 S
C857 N854 1.350 . S
C857 C856 1.434 . S
C858 C859 1.369 1_455 S
C858 C860 1.419 . S
C858 H862 0.930 . S
C859 C858 1.369 1_655 S
C859 C868 1.429 . S
C860 C858 1.419 . S
C860 C861 1.363 . S
C860 H863 0.929 . S
C861 C860 1.363 . S
C861 C867 1.428 1_455 S
H862 C858 0.930 . S
H863 C860 0.929 . S
S864 N865 1.613 . S
S864 N866 1.610 . S
N865 S864 1.613 . S
N865 C868 1.350 . S
N866 S864 1.610 . S
N866 C867 1.351 . S
C867 C861 1.428 1_655 S
C867 N866 1.351 . S
C867 C868 1.434 . S
C868 C859 1.429 . S
C868 N865 1.350 . S
C868 C867 1.434 . S
C869 C870 1.369 1_455 S
C869 C871 1.419 . S
C869 H873 0.930 . S
C870 C869 1.369 1_655 S
C870 C879 1.429 . S
C871 C869 1.419 . S
C871 C872 1.363 . S
C871 H874 0.929 . S
C872 C871 1.363 . S
C872 C878 1.428 1_455 S
H873 C869 0.930 . S
H874 C871 0.929 . S
S875 N876 1.613 . S
S875 N877 1.610 . S
N876 S875 1.613 . S
N876 C879 1.350 . S
N877 S875 1.610 . S
N877 C878 1.351 . S
C878 C872 1.428 1_655 S
C878 N877 1.351 . S
C878 C879 1.434 . S
C879 C870 1.429 . S
C879 N876 1.350 . S
C879 C878 1.434 . S
C353 C6 1.148 1_565 S
C355 C93 1.131 1_545 S
C364 C28 1.130 . S
C366 C119 1.145 . S
C375 C50 1.129 1_545 S
C377 C137 1.146 1_565 S
C386 C73 1.129 . S
C388 C159 1.146 . S
C397 C182 1.130 . S
C399 C269 1.144 . S
C408 C204 1.148 1_545 S
C410 C295 1.131 1_565 S
C419 C226 1.132 . S
C421 C313 1.143 . S
C430 C249 1.142 1_565 S
C432 C335 1.135 1_545 S
C441 C7 1.809 . S
C443 C51 1.810 . S
C452 C29 1.803 . S
C454 C72 1.812 . S
C463 C97 1.812 . S
C465 C141 1.804 . S
C474 C115 1.812 . S
C476 C163 1.804 . S
C485 C227 1.813 . S
C487 C183 1.804 . S
C496 C248 1.814 . S
C498 C205 1.804 . S
C507 C273 1.813 . S
C509 C317 1.804 . S
C518 C291 1.814 . S
C520 C339 1.804 . S
C529 C4 1.917 . S
C531 C250 1.918 . S
C540 C224 1.918 . S
C542 C26 1.917 . S
C551 C48 1.918 . S
C553 C202 1.917 . S
C562 C74 1.916 . S
C564 C180 1.917 . S
C573 C92 1.918 . S
C575 C334 1.918 . S
C584 C118 1.918 . S
C586 C312 1.918 . S
C595 C294 1.916 . S
C597 C136 1.916 . S
C606 C158 1.918 . S
C608 C268 1.918 . S
C617 C9 1.311 . S
C619 C336 1.357 1_545 S
C628 C31 1.306 . S
C630 C314 1.357 . S
C639 C53 1.305 . S
C641 C293 1.358 1_565 S
C650 C71 1.313 . S
C652 C270 1.358 . S
C661 C251 1.362 1_565 S
C663 C95 1.309 . S
C672 C225 1.358 . S
C674 C116 1.303 . S
C683 C203 1.359 1_545 S
C685 C139 1.303 . S
C694 C161 1.304 . S
C696 C181 1.362 . S
C705 C160 1.363 . S
C707 C185 1.305 . S
C716 C138 1.356 1_565 S
C718 C207 1.307 . S
C727 C117 1.362 . S
C729 C229 1.303 . S
C738 C247 1.313 . S
C740 C94 1.360 1_545 S
C749 C271 1.306 . S
C751 C75 1.357 . S
C760 C49 1.362 1_545 S
C762 C292 1.309 . S
C771 C315 1.310 . S
C773 C27 1.357 . S
C782 C5 1.358 1_565 S
C784 C337 1.304 . S
C793 C8 1.461 . S
C795 C30 1.462 . S
C804 C70 1.469 . S
C806 C52 1.468 . S
C815 C96 1.464 . S
C817 C114 1.462 . S
C826 C162 1.470 . S
C828 C140 1.468 . S
C837 C206 1.469 . S
C839 C184 1.468 . S
C848 C228 1.469 . S
C850 C246 1.466 . S
C859 C290 1.467 . S
C861 C272 1.468 . S
C870 C338 1.462 . S
C872 C316 1.466 . S
