# Generated by pormake.
# Topology smu, (6)-cn, num edge types: 1
# Building blocks:
#     Node 0, Type 0, BuildingBlock: BETGAK_clean_sbu_0, # of connection points: 6
#     Node 1, Type 0, BuildingBlock: BETGAK_clean_sbu_0, # of connection points: 6
#     Node 2, Type 0, BuildingBlock: BETGAK_clean_sbu_0, # of connection points: 6
#     Node 3, Type 0, BuildingBlock: BETGAK_clean_sbu_0, # of connection points: 6
#     Node 4, Type 0, BuildingBlock: BETGAK_clean_sbu_0, # of connection points: 6
#     Node 5, Type 0, BuildingBlock: BETGAK_clean_sbu_0, # of connection points: 6
#     Edge 6, Type (0, 0), BuildingBlock: UVAHIK_clean_linker_0, # of connection points: 2
#     Edge 7, Type (0, 0), BuildingBlock: UVAHIK_clean_linker_0, # of connection points: 2
#     Edge 8, Type (0, 0), BuildingBlock: UVAHIK_clean_linker_0, # of connection points: 2
#     Edge 9, Type (0, 0), BuildingBlock: UVAHIK_clean_linker_0, # of connection points: 2
#     Edge 10, Type (0, 0), BuildingBlock: UVAHIK_clean_linker_0, # of connection points: 2
#     Edge 11, Type (0, 0), BuildingBlock: UVAHIK_clean_linker_0, # of connection points: 2
#     Edge 12, Type (0, 0), BuildingBlock: UVAHIK_clean_linker_0, # of connection points: 2
#     Edge 13, Type (0, 0), BuildingBlock: UVAHIK_clean_linker_0, # of connection points: 2
#     Edge 14, Type (0, 0), BuildingBlock: UVAHIK_clean_linker_0, # of connection points: 2
#     Edge 15, Type (0, 0), BuildingBlock: UVAHIK_clean_linker_0, # of connection points: 2
#     Edge 16, Type (0, 0), BuildingBlock: UVAHIK_clean_linker_0, # of connection points: 2
#     Edge 17, Type (0, 0), BuildingBlock: UVAHIK_clean_linker_0, # of connection points: 2
#     Edge 18, Type (0, 0), BuildingBlock: UVAHIK_clean_linker_0, # of connection points: 2
#     Edge 19, Type (0, 0), BuildingBlock: UVAHIK_clean_linker_0, # of connection points: 2
#     Edge 20, Type (0, 0), BuildingBlock: UVAHIK_clean_linker_0, # of connection points: 2
#     Edge 21, Type (0, 0), BuildingBlock: UVAHIK_clean_linker_0, # of connection points: 2
#     Edge 22, Type (0, 0), BuildingBlock: UVAHIK_clean_linker_0, # of connection points: 2
#     Edge 23, Type (0, 0), BuildingBlock: UVAHIK_clean_linker_0, # of connection points: 2
# Relax obj value: 0.209
# Max RMSD: 0.297
# Mean RMSD: 0.297
data_MOF--net-smu--node1-BETGAK_clean_sbu_0--edge1-UVAHIK_clean_linker_0
_symmetry_space_group_name_H-M    P1
_symmetry_Int_Tables_number       1
_symmetry_cell_setting            triclinic
loop_
_symmetry_equiv_pos_as_xyz
'x, y, z'
_cell_length_a     47.543515
_cell_length_b     47.557018
_cell_length_c     35.16195
_cell_angle_alpha  89.934306
_cell_angle_beta   90.155558
_cell_angle_gamma 120.06227
loop_
_atom_site_label
_atom_site_type_symbol
_atom_site_fract_x
_atom_site_fract_y
_atom_site_fract_z
_atom_type_partial_charge
La0 La 0.38395 0.09595 0.27304 0.0
La1 La 0.33233 0.1107 0.29565 0.0
C2 C 0.43209 0.09619 0.24131 0.0
C3 C 0.46771 0.11035 0.24834 0.0
C4 C 0.47942 0.0931 0.26932 0.0
C5 C 0.51291 0.10536 0.27393 0.0
C6 C 0.53584 0.13518 0.25749 0.0
C7 C 0.52408 0.15259 0.23679 0.0
C8 C 0.49055 0.14032 0.23219 0.0
C9 C 0.36942 0.08427 0.34607 0.0
C10 C 0.40266 0.16914 0.28392 0.0
C11 C 0.29711 0.12926 0.32903 0.0
C12 C 0.2791 0.14648 0.32065 0.0
C13 C 0.28765 0.16867 0.29047 0.0
C14 C 0.27014 0.18484 0.28386 0.0
C15 C 0.24378 0.17916 0.30734 0.0
C16 C 0.23521 0.15654 0.33717 0.0
C17 C 0.25266 0.14048 0.34371 0.0
C18 C 0.32917 0.09535 0.22231 0.0
C19 C 0.31349 0.03981 0.28413 0.0
O20 O 0.41207 0.07358 0.2645 0.0
O21 O 0.42166 0.11609 0.23247 0.0
O22 O 0.38057 0.06991 0.32494 0.0
O23 O 0.36967 0.10727 0.3272 0.0
O24 O 0.4129 0.14793 0.28694 0.0
O25 O 0.37134 0.15933 0.28165 0.0
O26 O 0.3288 0.14612 0.32789 0.0
O27 O 0.28597 0.10071 0.31355 0.0
O28 O 0.30497 0.09227 0.24218 0.0
O29 O 0.35447 0.11048 0.24243 0.0
O30 O 0.31179 0.05966 0.309 0.0
O31 O 0.33839 0.05062 0.26023 0.0
H32 H 0.46269 0.06983 0.28194 0.0
H33 H 0.52081 0.09138 0.29054 0.0
H34 H 0.5408 0.17538 0.22321 0.0
H35 H 0.48253 0.15412 0.21541 0.0
H36 H 0.30794 0.17363 0.2722 0.0
H37 H 0.27763 0.20221 0.2608 0.0
H38 H 0.21473 0.15094 0.35539 0.0
H39 H 0.24548 0.12329 0.36698 0.0
La40 La 0.74494 0.66237 0.27517 0.0
La41 La 0.81738 0.71314 0.29512 0.0
C42 C 0.69382 0.62068 0.2417 0.0
C43 C 0.67104 0.58508 0.24686 0.0
C44 C 0.64041 0.57359 0.26374 0.0
C45 C 0.61896 0.54012 0.26845 0.0
C46 C 0.62747 0.51712 0.25622 0.0
C47 C 0.65808 0.52872 0.23911 0.0
C48 C 0.67949 0.56211 0.23449 0.0
C49 C 0.75355 0.66997 0.35099 0.0
C50 C 0.79453 0.63713 0.28992 0.0
C51 C 0.87442 0.7455 0.32154 0.0
C52 C 0.90759 0.77122 0.31069 0.0
C53 C 0.92184 0.76974 0.27628 0.0
C54 C 0.95495 0.79102 0.26941 0.0
C55 C 0.97459 0.81436 0.2967 0.0
C56 C 0.95976 0.81682 0.33022 0.0
C57 C 0.92671 0.79541 0.33716 0.0
C58 C 0.79986 0.7153 0.22357 0.0
C59 C 0.76668 0.73534 0.29319 0.0
O60 O 0.69408 0.64036 0.268 0.0
O61 O 0.72326 0.62929 0.23038 0.0
O62 O 0.72638 0.65063 0.33403 0.0
O63 O 0.77427 0.68169 0.3247 0.0
O64 O 0.76488 0.62977 0.27924 0.0
O65 O 0.81705 0.66703 0.2994 0.0
O66 O 0.86292 0.71768 0.30388 0.0
O67 O 0.85209 0.75356 0.32692 0.0
O68 O 0.82379 0.73916 0.24124 0.0
O69 O 0.78967 0.69044 0.2445 0.0
O70 O 0.79064 0.7364 0.31362 0.0
O71 O 0.74839 0.71042 0.27012 0.0
H72 H 0.63301 0.59053 0.27344 0.0
H73 H 0.59583 0.53232 0.28213 0.0
H74 H 0.66542 0.51197 0.22863 0.0
H75 H 0.7027 0.56984 0.22102 0.0
H76 H 0.90775 0.7513 0.25529 0.0
H77 H 0.96539 0.78813 0.24341 0.0
H78 H 0.97382 0.8349 0.35155 0.0
H79 H 0.91635 0.79704 0.3639 0.0
La80 La 0.95589 0.29917 0.27511 0.0
La81 La 0.93868 0.23174 0.29598 0.0
C82 C 0.95681 0.34824 0.24488 0.0
C83 C 0.94062 0.36786 0.25122 0.0
C84 C 0.9445 0.38483 0.28543 0.0
C85 C 0.93055 0.40459 0.29002 0.0
C86 C 0.91222 0.40794 0.26062 0.0
C87 C 0.90793 0.3905 0.22666 0.0
C88 C 0.92202 0.37086 0.22202 0.0
C89 C 0.96633 0.29411 0.34806 0.0
C90 C 0.88189 0.24646 0.28515 0.0
C91 C 0.91826 0.17698 0.32803 0.0
C92 C 0.90267 0.14182 0.31914 0.0
C93 C 0.87549 0.12599 0.29498 0.0
C94 C 0.86009 0.0922 0.28951 0.0
C95 C 0.87146 0.07354 0.30819 0.0
C96 C 0.89915 0.08975 0.33158 0.0
C97 C 0.91447 0.12339 0.337 0.0
C98 C 0.95549 0.2454 0.22318 0.0
C99 C 1.01066 0.28283 0.28677 0.0
O100 O 0.9775 0.34997 0.27055 0.0
O101 O 0.93869 0.31848 0.23273 0.0
O102 O 0.98204 0.31993 0.32756 0.0
O103 O 0.94301 0.27227 0.32852 0.0
O104 O 0.90402 0.27762 0.28852 0.0
O105 O 0.89052 0.22409 0.28264 0.0
O106 O 0.90099 0.19115 0.32381 0.0
O107 O 0.94806 0.19552 0.31652 0.0
O108 O 0.95777 0.22359 0.24272 0.0
O109 O 0.94038 0.25551 0.24324 0.0
O110 O 0.9898 0.26062 0.31041 0.0
O111 O 1.00108 0.29837 0.26324 0.0
H112 H 0.95855 0.38309 0.30867 0.0
H113 H 0.93405 0.41717 0.31679 0.0
H114 H 0.89434 0.39263 0.20318 0.0
H115 H 0.91874 0.3583 0.19525 0.0
H116 H 0.86582 0.13959 0.28083 0.0
H117 H 0.83874 0.08059 0.27148 0.0
H118 H 0.90905 0.07641 0.34586 0.0
H119 H 0.9354 0.135 0.3557 0.0
La120 La 0.12327 0.32572 0.7965 0.0
La121 La 0.10647 0.37585 0.77672 0.0
C122 C 0.14427 0.2913 0.82684 0.0
C123 C 0.15866 0.27133 0.81499 0.0
C124 C 0.1857 0.28332 0.79066 0.0
C125 C 0.1992 0.26391 0.78108 0.0
C126 C 0.18579 0.23208 0.7954 0.0
C127 C 0.15864 0.22025 0.81956 0.0
C128 C 0.14532 0.23965 0.82925 0.0
C129 C 0.10555 0.32213 0.72413 0.0
C130 C 0.0513 0.30489 0.78786 0.0
C131 C 0.10474 0.42381 0.74723 0.0
C132 C 0.12366 0.45984 0.75017 0.0
C133 C 0.13726 0.47561 0.78483 0.0
C134 C 0.15291 0.50964 0.78756 0.0
C135 C 0.15549 0.5288 0.75565 0.0
C136 C 0.14267 0.51281 0.72074 0.0
C137 C 0.12692 0.47882 0.71811 0.0
C138 C 0.09642 0.35982 0.84957 0.0
C139 C 0.18039 0.39661 0.78351 0.0
O140 O 0.16166 0.32271 0.82241 0.0
O141 O 0.11397 0.28037 0.81759 0.0
O142 O 0.10284 0.29799 0.74388 0.0
O143 O 0.12131 0.34768 0.74371 0.0
O144 O 0.07224 0.30323 0.81114 0.0
O145 O 0.06083 0.33025 0.76482 0.0
O146 O 0.08825 0.40801 0.77716 0.0
O147 O 0.11906 0.40945 0.73154 0.0
O148 O 0.07976 0.36882 0.82901 0.0
O149 O 0.11994 0.36202 0.82995 0.0
O150 O 0.15879 0.4061 0.78823 0.0
O151 O 0.17112 0.36547 0.78103 0.0
H152 H 0.19649 0.30767 0.77913 0.0
H153 H 0.21994 0.27371 0.7622 0.0
H154 H 0.14798 0.1961 0.83165 0.0
H155 H 0.12464 0.22993 0.84825 0.0
H156 H 0.13522 0.46161 0.81005 0.0
H157 H 0.1621 0.5208 0.81502 0.0
H158 H 0.14469 0.52653 0.6953 0.0
H159 H 0.11682 0.46729 0.69101 0.0
La160 La 0.24678 0.92411 0.79287 0.0
La161 La 0.31701 0.95038 0.77625 0.0
C162 C 0.18864 0.89663 0.81533 0.0
C163 C 0.15674 0.89343 0.80587 0.0
C164 C 0.14085 0.87926 0.77139 0.0
C165 C 0.10845 0.87089 0.76556 0.0
C166 C 0.09112 0.87661 0.79396 0.0
C167 C 0.10768 0.89246 0.82758 0.0
C168 C 0.14003 0.90057 0.83353 0.0
C169 C 0.26245 0.9403 0.72035 0.0
C170 C 0.29025 0.99847 0.78093 0.0
C171 C 0.37197 0.96005 0.75486 0.0
C172 C 0.38691 0.93932 0.74971 0.0
C173 C 0.37986 0.91363 0.77494 0.0
C174 C 0.39724 0.89703 0.77345 0.0
C175 C 0.42209 0.90543 0.74648 0.0
C176 C 0.42804 0.93022 0.72012 0.0
C177 C 0.41076 0.94703 0.72186 0.0
C178 C 0.30546 0.96134 0.84664 0.0
C179 C 0.27231 0.87444 0.79197 0.0
O180 O 0.20001 0.884 0.79104 0.0
O181 O 0.21159 0.92419 0.82957 0.0
O182 O 0.23949 0.94161 0.73821 0.0
O183 O 0.27402 0.92748 0.74225 0.0
O184 O 0.26633 0.97571 0.8014 0.0
O185 O 0.31115 0.99259 0.76222 0.0
O186 O 0.36469 0.96289 0.78987 0.0
O187 O 0.3491 0.95646 0.7311 0.0
O188 O 0.32983 0.98126 0.82603 0.0
O189 O 0.28822 0.93515 0.82817 0.0
O190 O 0.30098 0.89829 0.78104 0.0
O191 O 0.2486 0.87985 0.80078 0.0
H192 H 0.15292 0.87328 0.74942 0.0
H193 H 0.09661 0.8585 0.73947 0.0
H194 H 0.09543 0.89795 0.84977 0.0
H195 H 0.15161 0.91137 0.86039 0.0
H196 H 0.36169 0.90711 0.79689 0.0
H197 H 0.39201 0.8785 0.7946 0.0
H198 H 0.44639 0.93705 0.69836 0.0
H199 H 0.41668 0.96668 0.70205 0.0
La200 La 0.71749 0.80703 0.78931 0.0
La201 La 0.67546 0.73645 0.77357 0.0
C202 C 0.74642 0.86548 0.81133 0.0
C203 C 0.77389 0.89849 0.80252 0.0
C204 C 0.7737 0.91514 0.76947 0.0
C205 C 0.79639 0.94817 0.7647 0.0
C206 C 0.82001 0.96552 0.79277 0.0
C207 C 0.82111 0.94838 0.82495 0.0
C208 C 0.79824 0.91536 0.82983 0.0
C209 C 0.71641 0.79129 0.71627 0.0
C210 C 0.75079 0.76624 0.77459 0.0
C211 C 0.63168 0.67883 0.75798 0.0
C212 C 0.59662 0.65936 0.74858 0.0
C213 C 0.58134 0.62547 0.75175 0.0
C214 C 0.54745 0.60618 0.74993 0.0
C215 C 0.52771 0.62023 0.74475 0.0
C216 C 0.54326 0.6543 0.74029 0.0
C217 C 0.57734 0.67365 0.74234 0.0
C218 C 0.7007 0.74948 0.84312 0.0
C219 C 0.64246 0.77935 0.78735 0.0
O220 O 0.72216 0.85301 0.78717 0.0
O221 O 0.75269 0.84353 0.82517 0.0
O222 O 0.74057 0.8151 0.73348 0.0
O223 O 0.69271 0.77884 0.73913 0.0
O224 O 0.75177 0.78987 0.79544 0.0
O225 O 0.72368 0.74425 0.75718 0.0
O226 O 0.63794 0.69147 0.79202 0.0
O227 O 0.6521 0.69896 0.73263 0.0
O228 O 0.69712 0.72593 0.82172 0.0
O229 O 0.68969 0.76548 0.82576 0.0
O230 O 0.6394 0.75258 0.77223 0.0
O231 O 0.67045 0.80198 0.80099 0.0
H232 H 0.75516 0.90308 0.74788 0.0
H233 H 0.79437 0.96039 0.73973 0.0
H234 H 0.83928 0.96062 0.84686 0.0
H235 H 0.79889 0.9033 0.8557 0.0
H236 H 0.59562 0.6139 0.75734 0.0
H237 H 0.53676 0.58028 0.75428 0.0
H238 H 0.52914 0.66614 0.73572 0.0
H239 H 0.5885 0.69978 0.7402 0.0
C240 C 0.28655 0.94771 0.91538 0.0
C241 C 0.30024 0.97026 0.88551 0.0
C242 C 0.28687 0.9585 0.95291 0.0
C243 C 0.29263 0.0276 1.00794 0.0
H244 H 0.33159 1.00302 0.0889 0.0
C245 C 0.29626 0.06827 0.16415 0.0
C246 C 0.32587 0.0806 0.18393 0.0
C247 C 0.29173 0.05312 0.1287 0.0
C248 C 0.32068 1.01014 0.06658 0.0
H249 H 0.32403 0.02148 0.87148 0.0
H250 H 0.32318 0.03983 0.9357 0.0
H251 H 0.3236 0.97802 1.0257 0.0
H252 H 0.3738 0.08599 0.18205 0.0
H253 H 0.36586 0.05914 0.12002 0.0
H254 H 0.28977 0.05977 0.04838 0.0
C255 C 0.31257 1.014 0.93064 0.0
C256 C 0.31576 0.99553 1.0305 0.0
C257 C 0.31299 1.00341 0.89371 0.0
C258 C 0.35085 0.07708 0.16743 0.0
C259 C 0.34615 0.06141 0.13204 0.0
C260 C 0.29703 0.04175 0.04403 0.0
C261 C 0.30008 0.99188 0.96095 0.0
C262 C 0.30205 1.0044 1.00055 0.0
C263 C 0.31653 0.04937 0.11209 0.0
C264 C 0.31146 0.03355 0.07381 0.0
H265 H 0.27694 0.92207 0.91004 0.0
H266 H 0.27697 0.94081 0.97566 0.0
H267 H 0.28201 0.03503 0.98557 0.0
H268 H 0.27637 0.07028 0.17614 0.0
H269 H 0.26851 0.0439 0.11448 0.0
C270 C 0.69378 0.75122 0.66112 0.0
C271 C 0.71954 0.77867 0.67851 0.0
C272 C 0.69841 0.73942 0.62626 0.0
C273 C 0.76468 0.74562 0.56143 0.0
H274 H 0.69455 0.70581 0.48812 0.0
C275 C 0.78051 0.71111 0.40482 0.0
C276 C 0.75483 0.68171 0.39071 0.0
C277 C 0.77783 0.72321 0.44054 0.0
C278 C 0.71442 0.71664 0.50835 0.0
H279 H 0.77019 0.81565 0.67216 0.0
H280 H 0.77794 0.79602 0.6117 0.0
H281 H 0.68581 0.72565 0.54817 0.0
H282 H 0.70702 0.64138 0.40401 0.0
H283 H 0.7026 0.662 0.46544 0.0
H284 H 0.79336 0.73693 0.52099 0.0
C285 C 0.75434 0.78275 0.62508 0.0
C286 C 0.70932 0.72796 0.54309 0.0
C287 C 0.74975 0.79431 0.65981 0.0
C288 C 0.72723 0.66422 0.41375 0.0
C289 C 0.72452 0.67623 0.44901 0.0
C290 C 0.76985 0.73452 0.52648 0.0
C291 C 0.72889 0.75493 0.60769 0.0
C292 C 0.7343 0.74256 0.57041 0.0
C293 C 0.74936 0.70624 0.46272 0.0
C294 C 0.74471 0.7196 0.49949 0.0
H295 H 0.67013 0.73881 0.67445 0.0
H296 H 0.67813 0.7178 0.61423 0.0
H297 H 0.78452 0.75615 0.58168 0.0
H298 H 0.80206 0.72526 0.38782 0.0
H299 H 0.79753 0.74641 0.45014 0.0
C300 C 0.99112 0.24657 0.17003 0.0
C301 C 0.97135 0.25791 0.18549 0.0
C302 C 1.00704 0.25833 0.13515 0.0
C303 C 0.03331 0.32704 0.06626 0.0
H304 H 0.04243 0.26877 0.99686 0.0
C305 C 0.06842 0.36027 0.90901 0.0
C306 C 0.08867 0.35094 0.89048 0.0
C307 C 0.05744 0.35011 0.94605 0.0
C308 C 0.0406 0.28555 1.01609 0.0
H309 H 0.95264 0.29043 0.17589 0.0
H310 H 0.97996 0.31076 0.11471 0.0
H311 H 1.01558 0.2485 0.05804 0.0
H312 H 0.11336 0.32342 0.89684 0.0
H313 H 0.09397 0.3053 0.96231 0.0
H314 H 0.05788 0.36394 1.02409 0.0
C315 C 0.98369 0.29308 0.12989 0.0
C316 C 1.02507 0.27389 0.05134 0.0
C317 C 0.9678 0.28131 0.16497 0.0
C318 C 0.09811 0.33134 0.91044 0.0
C319 C 0.0867 0.32074 0.94779 0.0
C320 C 0.04874 0.33864 1.03105 0.0
C321 C 1.00364 0.2818 0.11438 0.0
C322 C 1.02085 0.29437 0.07691 0.0
C323 C 0.06603 0.32992 0.96607 0.0
C324 C 0.0523 0.31802 1.00515 0.0
H325 H 0.99468 0.22874 0.18519 0.0
H326 H 1.0225 0.24933 0.12483 0.0
H327 H 0.03137 0.34389 0.08526 0.0
H328 H 0.06046 0.3752 0.89453 0.0
H329 H 0.04123 0.35734 0.95857 0.0
C330 C 0.37254 0.05629 0.40428 0.0
C331 C 0.36119 0.07539 0.38688 0.0
C332 C 0.36279 0.04382 0.44089 0.0
C333 C 0.3244 0.05029 0.5302 0.0
H334 H 0.309 0.96293 0.54611 0.0
C335 C 0.26436 0.97669 0.6678 0.0
C336 C 0.27533 0.95643 0.6829 0.0
C337 C 0.27558 0.99224 0.63268 0.0
C338 C 0.31361 0.9875 0.54249 0.0
H339 H 0.33098 0.09698 0.39506 0.0
H340 H 0.31345 0.07482 0.45968 0.0
H341 H 0.32587 0.98819 0.48388 0.0
H342 H 0.30671 0.93653 0.67247 0.0
H343 H 0.32666 0.96386 0.61096 0.0
H344 H 0.31181 0.04934 0.58895 0.0
C345 C 0.33034 0.06979 0.44477 0.0
C346 C 0.32329 1.00209 0.50658 0.0
C347 C 0.34039 0.08258 0.40777 0.0
C348 C 0.29796 0.95213 0.66183 0.0
C349 C 0.30914 0.96763 0.62638 0.0
C350 C 0.31461 0.03561 0.5662 0.0
C351 C 0.34094 0.04961 0.46154 0.0
C352 C 0.32913 0.03384 0.49983 0.0
C353 C 0.29807 0.98794 0.61123 0.0
C354 C 0.30917 1.00399 0.57298 0.0
H355 H 0.38882 0.05043 0.38926 0.0
H356 H 0.37236 0.02933 0.45291 0.0
H357 H 0.32894 0.07481 0.52642 0.0
H358 H 0.24694 0.98063 0.68323 0.0
H359 H 0.26603 1.00716 0.62201 0.0
C360 C 0.73002 0.7369 0.89256 0.0
C361 C 0.71239 0.75245 0.88318 0.0
C362 C 0.73819 0.73465 0.93015 0.0
C363 C 0.74418 0.76576 1.02902 0.0
H364 H 0.74244 0.68536 0.0534 0.0
C365 C 0.76206 0.69208 0.16651 0.0
C366 C 0.78671 0.71873 0.18624 0.0
C367 C 0.75044 0.69635 0.13133 0.0
C368 C 0.74269 0.70784 0.04762 0.0
H369 H 0.69032 0.77888 0.90646 0.0
H370 H 0.7042 0.77454 0.97314 0.0
H371 H 0.72667 0.69312 0.99051 0.0
H372 H 0.8186 0.77093 0.18402 0.0
H373 H 0.79953 0.77828 0.12267 0.0
H374 H 0.75928 0.78001 0.08674 0.0
C375 C 0.71203 0.76431 0.95088 0.0
C376 C 0.7341 0.71258 1.01097 0.0
C377 C 0.70407 0.76689 0.91267 0.0
C378 C 0.79948 0.74975 0.16977 0.0
C379 C 0.78819 0.75403 0.13453 0.0
C380 C 0.75258 0.76091 0.06595 0.0
C381 C 0.72854 0.74736 0.96023 0.0
C382 C 0.73532 0.74186 1.00069 0.0
C383 C 0.76348 0.72743 0.1145 0.0
C384 C 0.75246 0.73201 0.07578 0.0
H385 H 0.73699 0.72557 0.87067 0.0
H386 H 0.75185 0.72244 0.93557 0.0
H387 H 0.74546 0.78863 1.02247 0.0
H388 H 0.75201 0.66787 0.17789 0.0
H389 H 0.73113 0.67514 0.11742 0.0
C390 C 0.99471 0.32317 0.40712 0.0
C391 C 0.97478 0.29333 0.38879 0.0
C392 C 1.00689 0.32448 0.44365 0.0
C393 C 0.99837 0.27705 0.53145 0.0
H394 H 0.08696 0.34647 0.54837 0.0
C395 C 0.06997 0.28767 0.67074 0.0
C396 C 0.09061 0.31883 0.68581 0.0
C397 C 0.05503 0.28362 0.63513 0.0
C398 C 0.06207 0.32718 0.54447 0.0
H399 H 0.95134 0.24115 0.39526 0.0
H400 H 0.97295 0.2433 0.45979 0.0
H401 H 0.06212 0.33985 0.48609 0.0
H402 H 0.11191 0.37024 0.67478 0.0
H403 H 0.0858 0.36341 0.61264 0.0
H404 H 0.99857 0.26436 0.59005 0.0
C405 C 0.97889 0.26583 0.44564 0.0
C406 C 0.04771 0.32331 0.50853 0.0
C407 C 0.96641 0.26452 0.4087 0.0
C408 C 0.09606 0.34594 0.66417 0.0
C409 C 0.08122 0.34193 0.62834 0.0
C410 C 1.01282 0.28089 0.56753 0.0
C411 C 0.99994 0.29598 0.4633 0.0
C412 C 1.01548 0.29845 0.50146 0.0
C413 C 0.06042 0.31066 0.61324 0.0
C414 C 0.04485 0.30623 0.5747 0.0
H415 H 1.00148 0.3459 0.39288 0.0
H416 H 1.02209 0.34812 0.4564 0.0
H417 H 0.97349 0.25779 0.52738 0.0
H418 H 0.06515 0.26619 0.68665 0.0
H419 H 0.03964 0.2592 0.62451 0.0
C420 C 0.59409 0.18106 0.26553 0.0
C421 C 0.5717 0.14763 0.26129 0.0
C422 C 0.62758 0.19254 0.26896 0.0
C423 C 0.68682 0.16532 0.29292 0.0
H424 H 0.74916 0.24513 0.24293 0.0
C425 C 0.82284 0.20304 0.2809 0.0
C426 C 0.84655 0.23615 0.28388 0.0
C427 C 0.78967 0.1931 0.27906 0.0
C428 C 0.73219 0.22301 0.25753 0.0
H429 H 0.56777 0.10031 0.25648 0.0
H430 H 0.62574 0.12019 0.26258 0.0
H431 H 0.6912 0.22641 0.23799 0.0
H432 H 0.8535 0.28475 0.2873 0.0
H433 H 0.79567 0.26742 0.28454 0.0
H434 H 0.72767 0.16185 0.31248 0.0
C435 C 0.61739 0.13758 0.26396 0.0
C436 C 0.6988 0.21222 0.25467 0.0
C437 C 0.58397 0.12612 0.26048 0.0
C438 C 0.83604 0.25905 0.28503 0.0
C439 C 0.80277 0.24908 0.28317 0.0
C440 C 0.72015 0.17612 0.29583 0.0
C441 C 0.63977 0.17097 0.26832 0.0
C442 C 0.67555 0.18307 0.27211 0.0
C443 C 0.77903 0.21592 0.28016 0.0
C444 C 0.74341 0.20502 0.27797 0.0
H445 H 0.58572 0.19843 0.26683 0.0
H446 H 0.64387 0.21836 0.27277 0.0
H447 H 0.66986 0.14313 0.30743 0.0
H448 H 0.82984 0.18461 0.27975 0.0
H449 H 0.77236 0.16742 0.27612 0.0
C450 C 0.57079 0.46779 0.25648 0.0
C451 C 0.6046 0.48127 0.26094 0.0
C452 C 0.54954 0.43422 0.2602 0.0
C453 C 0.5469 0.35473 0.25669 0.0
H454 H 0.46428 0.32287 0.30774 0.0
C455 C 0.46019 0.21681 0.28593 0.0
C456 C 0.42655 0.20476 0.28269 0.0
C457 C 0.48236 0.25038 0.28435 0.0
C458 C 0.48705 0.33122 0.29294 0.0
H459 H 0.64211 0.46939 0.27386 0.0
H460 H 0.60519 0.41108 0.27993 0.0
H461 H 0.5015 0.38116 0.30272 0.0
H462 H 0.39007 0.21899 0.27492 0.0
H463 H 0.4284 0.27692 0.27149 0.0
H464 H 0.53232 0.30483 0.24648 0.0
C465 C 0.59514 0.42648 0.273 0.0
C466 C 0.50848 0.3648 0.29011 0.0
C467 C 0.61639 0.46005 0.26946 0.0
C468 C 0.41574 0.22721 0.27777 0.0
C469 C 0.43783 0.26065 0.27606 0.0
C470 C 0.52538 0.32112 0.25936 0.0
C471 C 0.56139 0.41302 0.26836 0.0
C472 C 0.5387 0.37709 0.27183 0.0
C473 C 0.47152 0.27286 0.27938 0.0
C474 C 0.49501 0.30879 0.27738 0.0
H475 H 0.56069 0.48308 0.2493 0.0
H476 H 0.52378 0.42479 0.25588 0.0
H477 H 0.56973 0.3632 0.24198 0.0
H478 H 0.46948 0.20033 0.28976 0.0
H479 H 0.50801 0.2587 0.28749 0.0
C480 C 0.86728 0.42131 0.25053 0.0
C481 C 0.89823 0.42998 0.26508 0.0
C482 C 0.85444 0.44213 0.25446 0.0
C483 C 0.8651 0.51438 0.30962 0.0
H484 H 0.81402 0.52132 0.22791 0.0
C485 C 0.83437 0.61804 0.30389 0.0
C486 C 0.80372 0.61123 0.29017 0.0
C487 C 0.84412 0.59468 0.30219 0.0
C488 C 0.82787 0.51943 0.25127 0.0
H489 H 0.94004 0.46809 0.29466 0.0
H490 H 0.91798 0.50428 0.3012 0.0
H491 H 0.83447 0.48361 0.22204 0.0
H492 H 0.75917 0.57382 0.26418 0.0
H493 H 0.77613 0.53304 0.26137 0.0
H494 H 0.85885 0.5505 0.33862 0.0
C495 C 0.90316 0.48102 0.28745 0.0
C496 C 0.83966 0.49769 0.24791 0.0
C497 C 0.91591 0.46017 0.28365 0.0
C498 C 0.78292 0.58006 0.27511 0.0
C499 C 0.79278 0.55669 0.27321 0.0
C500 C 0.85343 0.53618 0.3129 0.0
C501 C 0.87218 0.47239 0.27295 0.0
C502 C 0.85869 0.49495 0.27692 0.0
C503 C 0.82363 0.5637 0.28657 0.0
C504 C 0.83482 0.53926 0.28368 0.0
H505 H 0.85266 0.39813 0.23652 0.0
H506 H 0.83034 0.43421 0.2434 0.0
H507 H 0.87899 0.51263 0.33301 0.0
H508 H 0.85121 0.64169 0.31561 0.0
H509 H 0.86818 0.60128 0.31233 0.0
C510 C 0.19701 0.58356 0.78331 0.0
C511 C 0.17042 0.56507 0.75894 0.0
C512 C 0.21015 0.61729 0.78704 0.0
C513 C 0.1889 0.68208 0.77112 0.0
H514 H 0.28116 0.7409 0.78588 0.0
C515 C 0.23656 0.81594 0.81007 0.0
C516 C 0.26521 0.84006 0.79271 0.0
C517 C 0.22722 0.78305 0.80731 0.0
C518 C 0.25535 0.72489 0.78152 0.0
H519 H 0.13702 0.56835 0.71942 0.0
H520 H 0.16036 0.62674 0.72499 0.0
H521 H 0.26078 0.68283 0.77692 0.0
H522 H 0.30719 0.84818 0.75996 0.0
H523 H 0.29065 0.79051 0.75471 0.0
H524 H 0.18337 0.72391 0.77471 0.0
C525 C 0.17086 0.61518 0.74178 0.0
C526 C 0.24356 0.69143 0.77681 0.0
C527 C 0.1577 0.58153 0.73813 0.0
C528 C 0.285 0.83033 0.77375 0.0
C529 C 0.27549 0.79719 0.77079 0.0
C530 C 0.20064 0.71539 0.77577 0.0
C531 C 0.19711 0.63363 0.76655 0.0
C532 C 0.2101 0.66947 0.77153 0.0
C533 C 0.24602 0.77298 0.78683 0.0
C534 C 0.23401 0.73738 0.78128 0.0
H535 H 0.20784 0.57201 0.79952 0.0
H536 H 0.23016 0.63044 0.80664 0.0
H537 H 0.16297 0.66615 0.76768 0.0
H538 H 0.22083 0.82237 0.82534 0.0
H539 H 0.20489 0.76542 0.82104 0.0
C540 C 0.47606 0.90753 0.7385 0.0
C541 C 0.44272 0.88963 0.74734 0.0
C542 C 0.49585 0.89355 0.74166 0.0
C543 C 0.49383 0.81393 0.75312 0.0
H544 H 0.58231 0.87008 0.78735 0.0
C545 C 0.59041 0.7721 0.75872 0.0
C546 C 0.61506 0.78611 0.78642 0.0
C547 C 0.56765 0.78257 0.75448 0.0
C548 C 0.55756 0.85377 0.77826 0.0
H549 H 0.40417 0.8421 0.76521 0.0
H550 H 0.43879 0.81831 0.77226 0.0
H551 H 0.54662 0.89219 0.7789 0.0
H552 H 0.63375 0.82065 0.83291 0.0
H553 H 0.59364 0.83777 0.82674 0.0
H554 H 0.50462 0.77521 0.75397 0.0
C555 C 0.44965 0.84312 0.76226 0.0
C556 C 0.53711 0.86671 0.77268 0.0
C557 C 0.42976 0.85702 0.75873 0.0
C558 C 0.61533 0.80955 0.81099 0.0
C559 C 0.59242 0.81966 0.80713 0.0
C560 C 0.51428 0.80088 0.75904 0.0
C561 C 0.48314 0.86127 0.75421 0.0
C562 C 0.5049 0.84709 0.7599 0.0
C563 C 0.56877 0.80709 0.77811 0.0
C564 C 0.5465 0.8206 0.7718 0.0
H565 H 0.48727 0.93276 0.73005 0.0
H566 H 0.52129 0.90827 0.73437 0.0
H567 H 0.46938 0.79798 0.74286 0.0
H568 H 0.58966 0.75422 0.73907 0.0
H569 H 0.55005 0.77234 0.73164 0.0
C570 C 0.23794 0.4112 0.76923 0.0
C571 C 0.21574 0.42108 0.78011 0.0
C572 C 0.2711 0.43378 0.76536 0.0
C573 C 0.33065 0.523 0.75597 0.0
H574 H 0.3927 0.49518 0.77945 0.0
C575 C 0.47173 0.61067 0.76234 0.0
C576 C 0.49124 0.59937 0.74581 0.0
C577 C 0.43794 0.59021 0.76586 0.0
C578 C 0.37572 0.50332 0.77245 0.0
H579 H 0.21145 0.46289 0.79551 0.0
H580 H 0.26948 0.50222 0.78993 0.0
H581 H 0.33498 0.45771 0.78842 0.0
H582 H 0.48943 0.55763 0.71826 0.0
H583 H 0.43107 0.52206 0.72533 0.0
H584 H 0.37194 0.56904 0.74092 0.0
C585 C 0.26114 0.47698 0.78356 0.0
C586 C 0.34243 0.48171 0.77745 0.0
C587 C 0.22777 0.45433 0.78707 0.0
C588 C 0.47565 0.56719 0.73205 0.0
C589 C 0.44202 0.54669 0.73599 0.0
C590 C 0.3641 0.5448 0.75141 0.0
C591 C 0.28341 0.46706 0.77268 0.0
C592 C 0.31921 0.49097 0.76885 0.0
C593 C 0.42271 0.55775 0.75335 0.0
C594 C 0.38707 0.53511 0.75916 0.0
H595 H 0.22969 0.3859 0.76321 0.0
H596 H 0.287 0.425 0.75602 0.0
H597 H 0.31377 0.53114 0.74854 0.0
H598 H 0.48262 0.63504 0.77378 0.0
H599 H 0.42388 0.5995 0.77957 0.0
C600 C 0.21432 0.207 0.33253 0.0
C601 C 0.22528 0.1967 0.30125 0.0
C602 C 0.1959 0.22223 0.32727 0.0
C603 C 0.14281 0.2319 0.25701 0.0
H604 H 0.15116 0.298 0.32798 0.0
C605 C 0.05792 0.28719 0.24975 0.0
C606 C 0.04342 0.2864 0.28481 0.0
C607 C 0.08468 0.2822 0.2482 0.0
C608 C 0.14849 0.27958 0.30788 0.0
H609 H 0.22552 0.19494 0.23963 0.0
H610 H 0.19388 0.22208 0.23042 0.0
H611 H 0.18878 0.27736 0.3318 0.0
H612 H 0.04658 0.28169 0.34569 0.0
H613 H 0.0934 0.27397 0.34318 0.0
H614 H 0.10212 0.23386 0.23354 0.0
C615 C 0.19924 0.21796 0.25915 0.0
C616 C 0.17001 0.26758 0.31017 0.0
C617 C 0.21774 0.20268 0.26443 0.0
C618 C 0.05743 0.28268 0.31828 0.0
C619 C 0.08433 0.27825 0.31681 0.0
C620 C 0.12134 0.24403 0.25462 0.0
C621 C 0.1879 0.22782 0.29053 0.0
C622 C 0.16703 0.24298 0.28539 0.0
C623 C 0.09775 0.27692 0.28173 0.0
C624 C 0.12341 0.26749 0.28061 0.0
H625 H 0.21998 0.20332 0.36131 0.0
H626 H 0.18734 0.229 0.35221 0.0
H627 H 0.13948 0.2128 0.23761 0.0
H628 H 0.04734 0.28953 0.22347 0.0
H629 H 0.09457 0.28157 0.22071 0.0
C630 C 1.0241 0.84645 0.2551 0.0
C631 C 1.01058 0.83475 0.29126 0.0
C632 C 0.0579 0.8646 0.25014 0.0
C633 C 0.13598 0.88412 0.29793 0.0
H634 H 0.17334 0.95894 0.23099 0.0
C635 C 0.2666 0.99129 0.31267 0.0
C636 C 0.28418 1.00745 0.27997 0.0
C637 C 0.23475 0.96537 0.30983 0.0
C638 C 0.16332 0.93776 0.24926 0.0
H639 H 1.02258 0.83291 0.35048 0.0
H640 H 0.08099 0.86532 0.34215 0.0
H641 H 0.11442 0.92437 0.23458 0.0
H642 H 0.28276 1.00843 0.21847 0.0
H643 H 0.22667 0.96298 0.21335 0.0
H644 H 0.18492 0.89832 0.31365 0.0
C645 C 0.06558 0.86005 0.31736 0.0
C646 C 0.12946 0.91791 0.25139 0.0
C647 C 0.03188 0.84185 0.32228 0.0
C648 C 0.26993 0.99602 0.2441 0.0
C649 C 0.2377 0.97032 0.24124 0.0
C650 C 0.16978 0.90407 0.29598 0.0
C651 C 0.07915 0.87158 0.28121 0.0
C652 C 0.11526 0.89118 0.27637 0.0
C653 C 0.21946 0.95531 0.27418 0.0
C654 C 0.18388 0.93151 0.27218 0.0
H655 H 1.00857 0.84176 0.23054 0.0
H656 H 0.06735 0.87283 0.22182 0.0
H657 H 0.12609 0.86332 0.31676 0.0
H658 H 0.27691 0.99989 0.34068 0.0
H659 H 0.22142 0.95464 0.33578 0.0
C660 C 0.84169 0.02198 0.26906 0.0
C661 C 0.85429 0.03731 0.30427 0.0
C662 C 0.82634 0.98802 0.26562 0.0
C663 C 0.78764 0.91182 0.32328 0.0
H664 H 0.80781 0.87436 0.23705 0.0
C665 C 0.77263 0.78406 0.32683 0.0
C666 C 0.76397 0.76508 0.29363 0.0
C667 C 0.7772 0.81546 0.32622 0.0
C668 C 0.80137 0.8843 0.26099 0.0
H669 H 0.85955 0.02846 0.36369 0.0
H670 H 0.83357 0.96978 0.3576 0.0
H671 H 0.82889 0.93288 0.23938 0.0
H672 H 0.75228 0.7638 0.23388 0.0
H673 H 0.76015 0.81896 0.23272 0.0
H674 H 0.76082 0.86341 0.34534 0.0
C675 C 0.83526 0.98385 0.33259 0.0
C676 C 0.81355 0.91796 0.26237 0.0
C677 C 0.85063 1.01768 0.33599 0.0
C678 C 0.75846 0.77767 0.26005 0.0
C679 C 0.76343 0.80943 0.2593 0.0
C680 C 0.77552 0.87825 0.32191 0.0
C681 C 0.82296 0.96846 0.29736 0.0
C682 C 0.80746 0.9323 0.29396 0.0
C683 C 0.77358 0.829 0.29225 0.0
C684 C 0.78279 0.86406 0.29116 0.0
H685 H 0.84419 0.03625 0.24395 0.0
H686 H 0.81698 0.97707 0.2381 0.0
H687 H 0.78176 0.92179 0.34765 0.0
H688 H 0.77726 0.7751 0.3531 0.0
H689 H 0.78533 0.82976 0.35205 0.0
C690 C 0.17973 0.1779 0.77866 0.0
C691 C 0.20008 0.21123 0.78596 0.0
C692 C 0.19273 0.15756 0.7732 0.0
C693 C 0.26855 0.15519 0.75387 0.0
H694 H 0.22296 0.07385 0.80897 0.0
C695 C 0.29569 0.04701 0.74526 0.0
C696 C 0.29201 0.0304 0.77964 0.0
C697 C 0.28874 0.07252 0.74355 0.0
C698 C 0.23617 0.09653 0.79355 0.0
H699 H 0.25034 0.24944 0.79171 0.0
H700 H 0.27309 0.21381 0.78235 0.0
H701 H 0.20184 0.11086 0.80932 0.0
H702 H 0.2808 0.02901 0.83951 0.0
H703 H 0.27003 0.07373 0.83689 0.0
H704 H 0.30324 0.14059 0.73872 0.0
C705 C 0.247 0.20349 0.78055 0.0
C706 C 0.22377 0.11763 0.79334 0.0
C707 C 0.23395 0.22393 0.78597 0.0
C708 C 0.28382 0.04131 0.81261 0.0
C709 C 0.27727 0.06675 0.81101 0.0
C710 C 0.28095 0.13382 0.75391 0.0
C711 C 0.22649 0.1699 0.77497 0.0
C712 C 0.23978 0.14732 0.77368 0.0
C713 C 0.27815 0.08172 0.77623 0.0
C714 C 0.26507 0.10441 0.77422 0.0
H715 H 0.15359 0.16739 0.77756 0.0
H716 H 0.17621 0.13196 0.7681 0.0
H717 H 0.28139 0.17777 0.73821 0.0
H718 H 0.30158 0.0388 0.71934 0.0
H719 H 0.2897 0.08361 0.71631 0.0
C720 C 0.04179 0.86381 0.75387 0.0
C721 C 0.05551 0.86417 0.78958 0.0
C722 C 1.00815 0.85064 0.74979 0.0
C723 C 0.93514 0.83198 0.80487 0.0
H724 H 0.88693 0.77304 0.72246 0.0
C725 C 0.79711 0.76629 0.80634 0.0
C726 C 0.78116 0.76521 0.77234 0.0
C727 C 0.82961 0.77431 0.80617 0.0
C728 C 0.90007 0.78968 0.74543 0.0
H729 H 0.04403 0.85017 0.8488 0.0
H730 H 0.98584 0.82814 0.84181 0.0
H731 H 0.94606 0.7968 0.72622 0.0
H732 H 0.78604 0.77044 0.71124 0.0
H733 H 0.84353 0.7853 0.71075 0.0
H734 H 0.88978 0.82565 0.8239 0.0
C735 C 1.00115 0.83828 0.81701 0.0
C736 C 0.93394 0.8033 0.74757 0.0
C737 C 0.03464 0.85115 0.82104 0.0
C738 C 0.79774 0.77051 0.73775 0.0
C739 C 0.83068 0.77917 0.73758 0.0
C740 C 0.90152 0.81861 0.80263 0.0
C741 C 0.98747 0.83781 0.78136 0.0
C742 C 0.95176 0.8243 0.77763 0.0
C743 C 0.84733 0.78245 0.77203 0.0
C744 C 0.88338 0.79688 0.77325 0.0
H745 H 0.05704 0.87392 0.72905 0.0
H746 H 0.99839 0.85096 0.72203 0.0
H747 H 0.9482 0.84861 0.8279 0.0
H748 H 0.78492 0.76266 0.83338 0.0
H749 H 0.84126 0.7756 0.83314 0.0
C750 C 1.00531 0.26196 0.74942 0.0
C751 C 1.01881 0.27548 0.78498 0.0
C752 C 0.97954 0.22974 0.74686 0.0
C753 C 0.91612 0.1608 0.80305 0.0
H754 H 0.93258 0.10655 0.7351 0.0
C755 C 0.85045 0.02159 0.82185 0.0
C756 C 0.84202 1.00156 0.78946 0.0
C757 C 0.86974 0.0554 0.81876 0.0
C758 C 0.92716 0.12127 0.75381 0.0
H759 H 1.0147 0.26691 0.84572 0.0
H760 H 0.96926 0.21147 0.84145 0.0
H761 H 0.96763 0.16544 0.73303 0.0
H762 H 0.84816 1.002 0.72828 0.0
H763 H 0.88086 0.06086 0.72277 0.0
H764 H 0.87579 0.11686 0.82402 0.0
C765 C 0.97853 0.22535 0.81548 0.0
C766 C 0.94731 0.15514 0.75255 0.0
C767 C 1.00456 0.25716 0.81796 0.0
C768 C 0.85374 1.01649 0.75388 0.0
C769 C 0.87289 0.05037 0.75075 0.0
C770 C 0.89581 0.12701 0.80409 0.0
C771 C 0.96645 0.21079 0.77988 0.0
C772 C 0.94242 0.17528 0.77767 0.0
C773 C 0.88106 0.07039 0.78314 0.0
C774 C 0.90141 0.10664 0.78005 0.0
H775 H 1.01611 0.2754 0.72354 0.0
H776 H 0.97059 0.21929 0.71902 0.0
H777 H 0.91145 0.17564 0.82251 0.0
H778 H 0.84161 1.01126 0.84971 0.0
H779 H 0.87591 0.06977 0.84451 0.0
loop_
_geom_bond_atom_site_label_1
_geom_bond_atom_site_label_2
_geom_bond_distance
_geom_bond_site_symmetry_2
_ccdc_geom_bond_type
La0 C2 2.928 . S
La0 O20 2.521 . S
La0 O21 2.628 . S
La0 O22 2.554 . S
La0 O23 2.757 . S
La0 O24 2.470 . S
La0 O29 2.482 . S
La0 O31 2.503 . S
La1 C11 2.928 . S
La1 O23 2.482 . S
La1 O25 2.503 . S
La1 O26 2.521 . S
La1 O27 2.628 . S
La1 O28 2.554 . S
La1 O29 2.757 . S
La1 O30 2.470 . S
C2 La0 2.928 . S
C2 C3 1.503 . S
C2 O20 1.261 . S
C2 O21 1.243 . S
C3 C2 1.503 . S
C3 C4 1.394 . S
C3 C8 1.373 . S
C4 C3 1.394 . S
C4 C5 1.380 . S
C4 H32 0.930 . S
C5 C4 1.380 . S
C5 C6 1.376 . S
C5 H33 0.930 . S
C6 C5 1.376 . S
C6 C7 1.370 . S
C7 C6 1.370 . S
C7 C8 1.396 . S
C7 H34 0.929 . S
C8 C3 1.373 . S
C8 C7 1.396 . S
C8 H35 0.929 . S
C9 O22 1.240 . S
C9 O23 1.289 . S
C10 O24 1.258 . S
C10 O25 1.256 . S
C11 La1 2.928 . S
C11 C12 1.503 . S
C11 O26 1.261 . S
C11 O27 1.243 . S
C12 C11 1.503 . S
C12 C13 1.394 . S
C12 C17 1.373 . S
C13 C12 1.394 . S
C13 C14 1.380 . S
C13 H36 0.930 . S
C14 C13 1.380 . S
C14 C15 1.376 . S
C14 H37 0.930 . S
C15 C14 1.376 . S
C15 C16 1.370 . S
C16 C15 1.370 . S
C16 C17 1.396 . S
C16 H38 0.929 . S
C17 C12 1.373 . S
C17 C16 1.396 . S
C17 H39 0.929 . S
C18 O28 1.240 . S
C18 O29 1.289 . S
C19 O30 1.258 . S
C19 O31 1.256 . S
O20 La0 2.521 . S
O20 C2 1.261 . S
O21 La0 2.628 . S
O21 C2 1.243 . S
O22 La0 2.554 . S
O22 C9 1.240 . S
O23 La0 2.757 . S
O23 La1 2.482 . S
O23 C9 1.289 . S
O24 La0 2.470 . S
O24 C10 1.258 . S
O25 La1 2.503 . S
O25 C10 1.256 . S
O26 La1 2.521 . S
O26 C11 1.261 . S
O27 La1 2.628 . S
O27 C11 1.243 . S
O28 La1 2.554 . S
O28 C18 1.240 . S
O29 La0 2.482 . S
O29 La1 2.757 . S
O29 C18 1.289 . S
O30 La1 2.470 . S
O30 C19 1.258 . S
O31 La0 2.503 . S
O31 C19 1.256 . S
H32 C4 0.930 . S
H33 C5 0.930 . S
H34 C7 0.929 . S
H35 C8 0.929 . S
H36 C13 0.930 . S
H37 C14 0.930 . S
H38 C16 0.929 . S
H39 C17 0.929 . S
La40 C42 2.928 . S
La40 O60 2.521 . S
La40 O61 2.628 . S
La40 O62 2.554 . S
La40 O63 2.757 . S
La40 O64 2.470 . S
La40 O69 2.482 . S
La40 O71 2.503 . S
La41 C51 2.928 . S
La41 O63 2.482 . S
La41 O65 2.503 . S
La41 O66 2.521 . S
La41 O67 2.628 . S
La41 O68 2.554 . S
La41 O69 2.757 . S
La41 O70 2.470 . S
C42 La40 2.928 . S
C42 C43 1.503 . S
C42 O60 1.261 . S
C42 O61 1.243 . S
C43 C42 1.503 . S
C43 C44 1.394 . S
C43 C48 1.373 . S
C44 C43 1.394 . S
C44 C45 1.380 . S
C44 H72 0.930 . S
C45 C44 1.380 . S
C45 C46 1.376 . S
C45 H73 0.930 . S
C46 C45 1.376 . S
C46 C47 1.370 . S
C47 C46 1.370 . S
C47 C48 1.396 . S
C47 H74 0.929 . S
C48 C43 1.373 . S
C48 C47 1.396 . S
C48 H75 0.929 . S
C49 O62 1.240 . S
C49 O63 1.289 . S
C50 O64 1.258 . S
C50 O65 1.256 . S
C51 La41 2.928 . S
C51 C52 1.503 . S
C51 O66 1.261 . S
C51 O67 1.243 . S
C52 C51 1.503 . S
C52 C53 1.394 . S
C52 C57 1.373 . S
C53 C52 1.394 . S
C53 C54 1.380 . S
C53 H76 0.930 . S
C54 C53 1.380 . S
C54 C55 1.376 . S
C54 H77 0.930 . S
C55 C54 1.376 . S
C55 C56 1.370 . S
C56 C55 1.370 . S
C56 C57 1.396 . S
C56 H78 0.929 . S
C57 C52 1.373 . S
C57 C56 1.396 . S
C57 H79 0.929 . S
C58 O68 1.240 . S
C58 O69 1.289 . S
C59 O70 1.258 . S
C59 O71 1.256 . S
O60 La40 2.521 . S
O60 C42 1.261 . S
O61 La40 2.628 . S
O61 C42 1.243 . S
O62 La40 2.554 . S
O62 C49 1.240 . S
O63 La40 2.757 . S
O63 La41 2.482 . S
O63 C49 1.289 . S
O64 La40 2.470 . S
O64 C50 1.258 . S
O65 La41 2.503 . S
O65 C50 1.256 . S
O66 La41 2.521 . S
O66 C51 1.261 . S
O67 La41 2.628 . S
O67 C51 1.243 . S
O68 La41 2.554 . S
O68 C58 1.240 . S
O69 La40 2.482 . S
O69 La41 2.757 . S
O69 C58 1.289 . S
O70 La41 2.470 . S
O70 C59 1.258 . S
O71 La40 2.503 . S
O71 C59 1.256 . S
H72 C44 0.930 . S
H73 C45 0.930 . S
H74 C47 0.929 . S
H75 C48 0.929 . S
H76 C53 0.930 . S
H77 C54 0.930 . S
H78 C56 0.929 . S
H79 C57 0.929 . S
La80 C82 2.928 . S
La80 O100 2.521 . S
La80 O101 2.628 . S
La80 O102 2.554 . S
La80 O103 2.757 . S
La80 O104 2.470 . S
La80 O109 2.482 . S
La80 O111 2.503 . S
La81 C91 2.928 . S
La81 O103 2.482 . S
La81 O105 2.503 . S
La81 O106 2.521 . S
La81 O107 2.628 . S
La81 O108 2.554 . S
La81 O109 2.757 . S
La81 O110 2.470 . S
C82 La80 2.928 . S
C82 C83 1.503 . S
C82 O100 1.261 . S
C82 O101 1.243 . S
C83 C82 1.503 . S
C83 C84 1.394 . S
C83 C88 1.373 . S
C84 C83 1.394 . S
C84 C85 1.380 . S
C84 H112 0.930 . S
C85 C84 1.380 . S
C85 C86 1.376 . S
C85 H113 0.930 . S
C86 C85 1.376 . S
C86 C87 1.370 . S
C87 C86 1.370 . S
C87 C88 1.396 . S
C87 H114 0.929 . S
C88 C83 1.373 . S
C88 C87 1.396 . S
C88 H115 0.929 . S
C89 O102 1.240 . S
C89 O103 1.289 . S
C90 O104 1.258 . S
C90 O105 1.256 . S
C91 La81 2.928 . S
C91 C92 1.503 . S
C91 O106 1.261 . S
C91 O107 1.243 . S
C92 C91 1.503 . S
C92 C93 1.394 . S
C92 C97 1.373 . S
C93 C92 1.394 . S
C93 C94 1.380 . S
C93 H116 0.930 . S
C94 C93 1.380 . S
C94 C95 1.376 . S
C94 H117 0.930 . S
C95 C94 1.376 . S
C95 C96 1.370 . S
C96 C95 1.370 . S
C96 C97 1.396 . S
C96 H118 0.929 . S
C97 C92 1.373 . S
C97 C96 1.396 . S
C97 H119 0.929 . S
C98 O108 1.240 . S
C98 O109 1.289 . S
C99 O110 1.258 . S
C99 O111 1.256 . S
O100 La80 2.521 . S
O100 C82 1.261 . S
O101 La80 2.628 . S
O101 C82 1.243 . S
O102 La80 2.554 . S
O102 C89 1.240 . S
O103 La80 2.757 . S
O103 La81 2.482 . S
O103 C89 1.289 . S
O104 La80 2.470 . S
O104 C90 1.258 . S
O105 La81 2.503 . S
O105 C90 1.256 . S
O106 La81 2.521 . S
O106 C91 1.261 . S
O107 La81 2.628 . S
O107 C91 1.243 . S
O108 La81 2.554 . S
O108 C98 1.240 . S
O109 La80 2.482 . S
O109 La81 2.757 . S
O109 C98 1.289 . S
O110 La81 2.470 . S
O110 C99 1.258 . S
O111 La80 2.503 . S
O111 C99 1.256 . S
H112 C84 0.930 . S
H113 C85 0.930 . S
H114 C87 0.929 . S
H115 C88 0.929 . S
H116 C93 0.930 . S
H117 C94 0.930 . S
H118 C96 0.929 . S
H119 C97 0.929 . S
La120 C122 2.928 . S
La120 O140 2.521 . S
La120 O141 2.628 . S
La120 O142 2.554 . S
La120 O143 2.757 . S
La120 O144 2.470 . S
La120 O149 2.482 . S
La120 O151 2.503 . S
La121 C131 2.928 . S
La121 O143 2.482 . S
La121 O145 2.503 . S
La121 O146 2.521 . S
La121 O147 2.628 . S
La121 O148 2.554 . S
La121 O149 2.757 . S
La121 O150 2.470 . S
C122 La120 2.928 . S
C122 C123 1.503 . S
C122 O140 1.261 . S
C122 O141 1.243 . S
C123 C122 1.503 . S
C123 C124 1.394 . S
C123 C128 1.373 . S
C124 C123 1.394 . S
C124 C125 1.380 . S
C124 H152 0.930 . S
C125 C124 1.380 . S
C125 C126 1.376 . S
C125 H153 0.930 . S
C126 C125 1.376 . S
C126 C127 1.370 . S
C127 C126 1.370 . S
C127 C128 1.396 . S
C127 H154 0.929 . S
C128 C123 1.373 . S
C128 C127 1.396 . S
C128 H155 0.929 . S
C129 O142 1.240 . S
C129 O143 1.289 . S
C130 O144 1.258 . S
C130 O145 1.256 . S
C131 La121 2.928 . S
C131 C132 1.503 . S
C131 O146 1.261 . S
C131 O147 1.243 . S
C132 C131 1.503 . S
C132 C133 1.394 . S
C132 C137 1.373 . S
C133 C132 1.394 . S
C133 C134 1.380 . S
C133 H156 0.930 . S
C134 C133 1.380 . S
C134 C135 1.376 . S
C134 H157 0.930 . S
C135 C134 1.376 . S
C135 C136 1.370 . S
C136 C135 1.370 . S
C136 C137 1.396 . S
C136 H158 0.929 . S
C137 C132 1.373 . S
C137 C136 1.396 . S
C137 H159 0.929 . S
C138 O148 1.240 . S
C138 O149 1.289 . S
C139 O150 1.258 . S
C139 O151 1.256 . S
O140 La120 2.521 . S
O140 C122 1.261 . S
O141 La120 2.628 . S
O141 C122 1.243 . S
O142 La120 2.554 . S
O142 C129 1.240 . S
O143 La120 2.757 . S
O143 La121 2.482 . S
O143 C129 1.289 . S
O144 La120 2.470 . S
O144 C130 1.258 . S
O145 La121 2.503 . S
O145 C130 1.256 . S
O146 La121 2.521 . S
O146 C131 1.261 . S
O147 La121 2.628 . S
O147 C131 1.243 . S
O148 La121 2.554 . S
O148 C138 1.240 . S
O149 La120 2.482 . S
O149 La121 2.757 . S
O149 C138 1.289 . S
O150 La121 2.470 . S
O150 C139 1.258 . S
O151 La120 2.503 . S
O151 C139 1.256 . S
H152 C124 0.930 . S
H153 C125 0.930 . S
H154 C127 0.929 . S
H155 C128 0.929 . S
H156 C133 0.930 . S
H157 C134 0.930 . S
H158 C136 0.929 . S
H159 C137 0.929 . S
La160 C162 2.928 . S
La160 O180 2.521 . S
La160 O181 2.628 . S
La160 O182 2.554 . S
La160 O183 2.757 . S
La160 O184 2.470 . S
La160 O189 2.482 . S
La160 O191 2.503 . S
La161 C171 2.928 . S
La161 O183 2.482 . S
La161 O185 2.503 . S
La161 O186 2.521 . S
La161 O187 2.628 . S
La161 O188 2.554 . S
La161 O189 2.757 . S
La161 O190 2.470 . S
C162 La160 2.928 . S
C162 C163 1.503 . S
C162 O180 1.261 . S
C162 O181 1.243 . S
C163 C162 1.503 . S
C163 C164 1.394 . S
C163 C168 1.373 . S
C164 C163 1.394 . S
C164 C165 1.380 . S
C164 H192 0.930 . S
C165 C164 1.380 . S
C165 C166 1.376 . S
C165 H193 0.930 . S
C166 C165 1.376 . S
C166 C167 1.370 . S
C167 C166 1.370 . S
C167 C168 1.396 . S
C167 H194 0.929 . S
C168 C163 1.373 . S
C168 C167 1.396 . S
C168 H195 0.929 . S
C169 O182 1.240 . S
C169 O183 1.289 . S
C170 O184 1.258 . S
C170 O185 1.256 . S
C171 La161 2.928 . S
C171 C172 1.503 . S
C171 O186 1.261 . S
C171 O187 1.243 . S
C172 C171 1.503 . S
C172 C173 1.394 . S
C172 C177 1.373 . S
C173 C172 1.394 . S
C173 C174 1.380 . S
C173 H196 0.930 . S
C174 C173 1.380 . S
C174 C175 1.376 . S
C174 H197 0.930 . S
C175 C174 1.376 . S
C175 C176 1.370 . S
C176 C175 1.370 . S
C176 C177 1.396 . S
C176 H198 0.929 . S
C177 C172 1.373 . S
C177 C176 1.396 . S
C177 H199 0.929 . S
C178 O188 1.240 . S
C178 O189 1.289 . S
C179 O190 1.258 . S
C179 O191 1.256 . S
O180 La160 2.521 . S
O180 C162 1.261 . S
O181 La160 2.628 . S
O181 C162 1.243 . S
O182 La160 2.554 . S
O182 C169 1.240 . S
O183 La160 2.757 . S
O183 La161 2.482 . S
O183 C169 1.289 . S
O184 La160 2.470 . S
O184 C170 1.258 . S
O185 La161 2.503 . S
O185 C170 1.256 . S
O186 La161 2.521 . S
O186 C171 1.261 . S
O187 La161 2.628 . S
O187 C171 1.243 . S
O188 La161 2.554 . S
O188 C178 1.240 . S
O189 La160 2.482 . S
O189 La161 2.757 . S
O189 C178 1.289 . S
O190 La161 2.470 . S
O190 C179 1.258 . S
O191 La160 2.503 . S
O191 C179 1.256 . S
H192 C164 0.930 . S
H193 C165 0.930 . S
H194 C167 0.929 . S
H195 C168 0.929 . S
H196 C173 0.930 . S
H197 C174 0.930 . S
H198 C176 0.929 . S
H199 C177 0.929 . S
La200 C202 2.928 . S
La200 O220 2.521 . S
La200 O221 2.628 . S
La200 O222 2.554 . S
La200 O223 2.757 . S
La200 O224 2.470 . S
La200 O229 2.482 . S
La200 O231 2.503 . S
La201 C211 2.928 . S
La201 O223 2.482 . S
La201 O225 2.503 . S
La201 O226 2.521 . S
La201 O227 2.628 . S
La201 O228 2.554 . S
La201 O229 2.757 . S
La201 O230 2.470 . S
C202 La200 2.928 . S
C202 C203 1.503 . S
C202 O220 1.261 . S
C202 O221 1.243 . S
C203 C202 1.503 . S
C203 C204 1.394 . S
C203 C208 1.373 . S
C204 C203 1.394 . S
C204 C205 1.380 . S
C204 H232 0.930 . S
C205 C204 1.380 . S
C205 C206 1.376 . S
C205 H233 0.930 . S
C206 C205 1.376 . S
C206 C207 1.370 . S
C207 C206 1.370 . S
C207 C208 1.396 . S
C207 H234 0.929 . S
C208 C203 1.373 . S
C208 C207 1.396 . S
C208 H235 0.929 . S
C209 O222 1.240 . S
C209 O223 1.289 . S
C210 O224 1.258 . S
C210 O225 1.256 . S
C211 La201 2.928 . S
C211 C212 1.503 . S
C211 O226 1.261 . S
C211 O227 1.243 . S
C212 C211 1.503 . S
C212 C213 1.394 . S
C212 C217 1.373 . S
C213 C212 1.394 . S
C213 C214 1.380 . S
C213 H236 0.930 . S
C214 C213 1.380 . S
C214 C215 1.376 . S
C214 H237 0.930 . S
C215 C214 1.376 . S
C215 C216 1.370 . S
C216 C215 1.370 . S
C216 C217 1.396 . S
C216 H238 0.929 . S
C217 C212 1.373 . S
C217 C216 1.396 . S
C217 H239 0.929 . S
C218 O228 1.240 . S
C218 O229 1.289 . S
C219 O230 1.258 . S
C219 O231 1.256 . S
O220 La200 2.521 . S
O220 C202 1.261 . S
O221 La200 2.628 . S
O221 C202 1.243 . S
O222 La200 2.554 . S
O222 C209 1.240 . S
O223 La200 2.757 . S
O223 La201 2.482 . S
O223 C209 1.289 . S
O224 La200 2.470 . S
O224 C210 1.258 . S
O225 La201 2.503 . S
O225 C210 1.256 . S
O226 La201 2.521 . S
O226 C211 1.261 . S
O227 La201 2.628 . S
O227 C211 1.243 . S
O228 La201 2.554 . S
O228 C218 1.240 . S
O229 La200 2.482 . S
O229 La201 2.757 . S
O229 C218 1.289 . S
O230 La201 2.470 . S
O230 C219 1.258 . S
O231 La200 2.503 . S
O231 C219 1.256 . S
H232 C204 0.930 . S
H233 C205 0.930 . S
H234 C207 0.929 . S
H235 C208 0.929 . S
H236 C213 0.930 . S
H237 C214 0.930 . S
H238 C216 0.929 . S
H239 C217 0.929 . S
C240 C241 1.349 . S
C240 C242 1.327 . S
C240 H265 0.950 . S
C241 C240 1.349 . S
C241 C257 1.349 . S
C242 C240 1.327 . S
C242 C261 1.429 . S
C242 H266 0.950 . S
C243 C260 1.574 . S
C243 C262 1.368 1_545 S
C243 H267 0.949 . S
H244 C248 0.949 . S
C245 C246 1.349 . S
C245 C247 1.327 . S
C245 H268 0.950 . S
C246 C245 1.349 . S
C246 C258 1.349 . S
C247 C245 1.327 . S
C247 C263 1.429 . S
C247 H269 0.950 . S
C248 H244 0.949 . S
C248 C256 1.574 . S
C248 C264 1.368 1_565 S
H249 C257 0.950 . S
H250 C255 0.950 . S
H251 C256 0.949 . S
H252 C258 0.950 . S
H253 C259 0.950 . S
H254 C260 0.949 . S
C255 H250 0.950 . S
C255 C257 1.327 . S
C255 C261 1.429 . S
C256 C248 1.574 . S
C256 H251 0.949 . S
C256 C262 1.368 1_554 S
C257 C241 1.349 . S
C257 H249 0.950 . S
C257 C255 1.327 . S
C258 C246 1.349 . S
C258 H252 0.950 . S
C258 C259 1.327 . S
C259 H253 0.950 . S
C259 C258 1.327 . S
C259 C263 1.429 . S
C260 C243 1.574 . S
C260 H254 0.949 . S
C260 C264 1.368 1_556 S
C261 C242 1.429 . S
C261 C255 1.429 . S
C261 C262 1.523 . S
C262 C243 1.368 1_565 S
C262 C256 1.368 1_556 S
C262 C261 1.523 . S
C263 C247 1.429 . S
C263 C259 1.429 . S
C263 C264 1.523 . S
C264 C248 1.368 1_545 S
C264 C260 1.368 1_554 S
C264 C263 1.523 . S
H265 C240 0.950 . S
H266 C242 0.950 . S
H267 C243 0.949 . S
H268 C245 0.950 . S
H269 C247 0.950 . S
C270 C271 1.349 . S
C270 C272 1.327 . S
C270 H295 0.950 . S
C271 C270 1.349 . S
C271 C287 1.349 . S
C272 C270 1.327 . S
C272 C291 1.429 . S
C272 H296 0.950 . S
C273 C290 1.574 . S
C273 C292 1.368 . S
C273 H297 0.949 . S
H274 C278 0.949 . S
C275 C276 1.349 . S
C275 C277 1.327 . S
C275 H298 0.950 . S
C276 C275 1.349 . S
C276 C288 1.349 . S
C277 C275 1.327 . S
C277 C293 1.429 . S
C277 H299 0.950 . S
C278 H274 0.949 . S
C278 C286 1.574 . S
C278 C294 1.368 . S
H279 C287 0.950 . S
H280 C285 0.950 . S
H281 C286 0.949 . S
H282 C288 0.950 . S
H283 C289 0.950 . S
H284 C290 0.949 . S
C285 H280 0.950 . S
C285 C287 1.327 . S
C285 C291 1.429 . S
C286 C278 1.574 . S
C286 H281 0.949 . S
C286 C292 1.368 . S
C287 C271 1.349 . S
C287 H279 0.950 . S
C287 C285 1.327 . S
C288 C276 1.349 . S
C288 H282 0.950 . S
C288 C289 1.327 . S
C289 H283 0.950 . S
C289 C288 1.327 . S
C289 C293 1.429 . S
C290 C273 1.574 . S
C290 H284 0.949 . S
C290 C294 1.368 . S
C291 C272 1.429 . S
C291 C285 1.429 . S
C291 C292 1.523 . S
C292 C273 1.368 . S
C292 C286 1.368 . S
C292 C291 1.523 . S
C293 C277 1.429 . S
C293 C289 1.429 . S
C293 C294 1.523 . S
C294 C278 1.368 . S
C294 C290 1.368 . S
C294 C293 1.523 . S
H295 C270 0.950 . S
H296 C272 0.950 . S
H297 C273 0.949 . S
H298 C275 0.950 . S
H299 C277 0.950 . S
C300 C301 1.349 . S
C300 C302 1.327 . S
C300 H325 0.950 . S
C301 C300 1.349 . S
C301 C317 1.349 . S
C302 C300 1.327 . S
C302 C321 1.429 . S
C302 H326 0.950 . S
C303 C320 1.574 . S
C303 C322 1.368 1_455 S
C303 H327 0.949 . S
H304 C308 0.949 . S
C305 C306 1.349 . S
C305 C307 1.327 . S
C305 H328 0.950 . S
C306 C305 1.349 . S
C306 C318 1.349 . S
C307 C305 1.327 . S
C307 C323 1.429 . S
C307 H329 0.950 . S
C308 H304 0.949 . S
C308 C316 1.574 . S
C308 C324 1.368 1_655 S
H309 C317 0.950 . S
H310 C315 0.950 . S
H311 C316 0.949 . S
H312 C318 0.950 . S
H313 C319 0.950 . S
H314 C320 0.949 . S
C315 H310 0.950 . S
C315 C317 1.327 . S
C315 C321 1.429 . S
C316 C308 1.574 . S
C316 H311 0.949 . S
C316 C322 1.368 1_556 S
C317 C301 1.349 . S
C317 H309 0.950 . S
C317 C315 1.327 . S
C318 C306 1.349 . S
C318 H312 0.950 . S
C318 C319 1.327 . S
C319 H313 0.950 . S
C319 C318 1.327 . S
C319 C323 1.429 . S
C320 C303 1.574 . S
C320 H314 0.949 . S
C320 C324 1.368 1_554 S
C321 C302 1.429 . S
C321 C315 1.429 . S
C321 C322 1.523 . S
C322 C303 1.368 1_655 S
C322 C316 1.368 1_554 S
C322 C321 1.523 . S
C323 C307 1.429 . S
C323 C319 1.429 . S
C323 C324 1.523 . S
C324 C308 1.368 1_455 S
C324 C320 1.368 1_556 S
C324 C323 1.523 . S
H325 C300 0.950 . S
H326 C302 0.950 . S
H327 C303 0.949 . S
H328 C305 0.950 . S
H329 C307 0.950 . S
C330 C331 1.349 . S
C330 C332 1.327 . S
C330 H355 0.950 . S
C331 C330 1.349 . S
C331 C347 1.349 . S
C332 C330 1.327 . S
C332 C351 1.429 . S
C332 H356 0.950 . S
C333 C350 1.574 . S
C333 C352 1.368 . S
C333 H357 0.949 . S
H334 C338 0.949 . S
C335 C336 1.349 . S
C335 C337 1.327 . S
C335 H358 0.950 . S
C336 C335 1.349 . S
C336 C348 1.349 . S
C337 C335 1.327 . S
C337 C353 1.429 . S
C337 H359 0.950 . S
C338 H334 0.949 . S
C338 C346 1.574 . S
C338 C354 1.368 . S
H339 C347 0.950 . S
H340 C345 0.950 . S
H341 C346 0.949 . S
H342 C348 0.950 . S
H343 C349 0.950 . S
H344 C350 0.940 . S
C345 H340 0.950 . S
C345 C347 1.327 . S
C345 C351 1.429 . S
C346 C338 1.574 . S
C346 H341 0.949 . S
C346 C352 1.368 1_565 S
C347 C331 1.349 . S
C347 H339 0.950 . S
C347 C345 1.327 . S
C348 C336 1.349 . S
C348 H342 0.950 . S
C348 C349 1.327 . S
C349 H343 0.950 . S
C349 C348 1.327 . S
C349 C353 1.429 . S
C350 C333 1.574 . S
C350 H344 0.940 . S
C350 C354 1.367 1_545 S
C351 C332 1.429 . S
C351 C345 1.429 . S
C351 C352 1.523 . S
C352 C333 1.368 . S
C352 C346 1.368 1_545 S
C352 C351 1.523 . S
C353 C337 1.429 . S
C353 C349 1.429 . S
C353 C354 1.523 . S
C354 C338 1.368 . S
C354 C350 1.367 1_565 S
C354 C353 1.523 . S
H355 C330 0.950 . S
H356 C332 0.950 . S
H357 C333 0.949 . S
H358 C335 0.950 . S
H359 C337 0.950 . S
C360 C361 1.349 . S
C360 C362 1.327 . S
C360 H385 0.950 . S
C361 C360 1.349 . S
C361 C377 1.349 . S
C362 C360 1.327 . S
C362 C381 1.429 . S
C362 H386 0.950 . S
C363 C380 1.579 . S
C363 C382 1.363 1_554 S
C363 H387 0.949 1_554 S
H364 C368 0.949 1_554 S
C365 C366 1.349 . S
C365 C367 1.327 . S
C365 H388 0.950 . S
C366 C365 1.349 . S
C366 C378 1.349 . S
C367 C365 1.327 . S
C367 C383 1.429 . S
C367 H389 0.950 . S
C368 H364 0.949 1_556 S
C368 C376 1.579 . S
C368 C384 1.363 1_556 S
H369 C377 0.950 . S
H370 C375 0.950 . S
H371 C376 0.949 . S
H372 C378 0.950 . S
H373 C379 0.950 . S
H374 C380 0.949 . S
C375 H370 0.950 . S
C375 C377 1.327 . S
C375 C381 1.429 . S
C376 C368 1.579 . S
C376 H371 0.949 . S
C376 C382 1.368 . S
C377 C361 1.349 . S
C377 H369 0.950 . S
C377 C375 1.327 . S
C378 C366 1.349 . S
C378 H372 0.950 . S
C378 C379 1.327 . S
C379 H373 0.950 . S
C379 C378 1.327 . S
C379 C383 1.429 . S
C380 C363 1.579 . S
C380 H374 0.949 . S
C380 C384 1.368 . S
C381 C362 1.429 . S
C381 C375 1.429 . S
C381 C382 1.523 . S
C382 C363 1.363 1_556 S
C382 C376 1.368 . S
C382 C381 1.523 . S
C383 C367 1.429 . S
C383 C379 1.429 . S
C383 C384 1.523 . S
C384 C368 1.363 1_554 S
C384 C380 1.368 . S
C384 C383 1.523 . S
H385 C360 0.950 . S
H386 C362 0.950 . S
H387 C363 0.949 1_556 S
H388 C365 0.950 . S
H389 C367 0.950 . S
C390 C391 1.349 . S
C390 C392 1.327 . S
C390 H415 0.950 . S
C391 C390 1.349 . S
C391 C407 1.349 . S
C392 C390 1.327 . S
C392 C411 1.429 . S
C392 H416 0.950 . S
C393 C410 1.574 1_655 S
C393 C412 1.368 . S
C393 H417 0.949 . S
H394 C398 0.949 . S
C395 C396 1.349 . S
C395 C397 1.327 . S
C395 H418 0.950 . S
C396 C395 1.349 . S
C396 C408 1.349 . S
C397 C395 1.327 . S
C397 C413 1.429 . S
C397 H419 0.950 . S
C398 H394 0.949 . S
C398 C406 1.574 1_455 S
C398 C414 1.368 . S
H399 C407 0.950 . S
H400 C405 0.950 . S
H401 C406 0.949 . S
H402 C408 0.950 . S
H403 C409 0.950 . S
H404 C410 0.949 . S
C405 H400 0.950 . S
C405 C407 1.327 . S
C405 C411 1.429 . S
C406 C398 1.574 1_655 S
C406 H401 0.949 . S
C406 C412 1.368 . S
C407 C391 1.349 . S
C407 H399 0.950 . S
C407 C405 1.327 . S
C408 C396 1.349 . S
C408 H402 0.950 . S
C408 C409 1.327 . S
C409 H403 0.950 . S
C409 C408 1.327 . S
C409 C413 1.429 . S
C410 C393 1.574 1_455 S
C410 H404 0.949 . S
C410 C414 1.368 . S
C411 C392 1.429 . S
C411 C405 1.429 . S
C411 C412 1.523 . S
C412 C393 1.368 . S
C412 C406 1.368 . S
C412 C411 1.523 . S
C413 C397 1.429 . S
C413 C409 1.429 . S
C413 C414 1.523 . S
C414 C398 1.368 . S
C414 C410 1.368 . S
C414 C413 1.523 . S
H415 C390 0.950 . S
H416 C392 0.950 . S
H417 C393 0.949 . S
H418 C395 0.950 . S
H419 C397 0.950 . S
C420 C421 1.349 . S
C420 C422 1.327 . S
C420 H445 0.950 . S
C421 C420 1.349 . S
C421 C437 1.349 . S
C422 C420 1.327 . S
C422 C441 1.429 . S
C422 H446 0.950 . S
C423 C440 1.574 . S
C423 C442 1.368 . S
C423 H447 0.949 . S
H424 C428 0.949 . S
C425 C426 1.349 . S
C425 C427 1.327 . S
C425 H448 0.950 . S
C426 C425 1.349 . S
C426 C438 1.349 . S
C427 C425 1.327 . S
C427 C443 1.429 . S
C427 H449 0.950 . S
C428 H424 0.949 . S
C428 C436 1.574 . S
C428 C444 1.368 . S
H429 C437 0.950 . S
H430 C435 0.950 . S
H431 C436 0.949 . S
H432 C438 0.950 . S
H433 C439 0.950 . S
H434 C440 0.949 . S
C435 H430 0.950 . S
C435 C437 1.327 . S
C435 C441 1.429 . S
C436 C428 1.574 . S
C436 H431 0.949 . S
C436 C442 1.368 . S
C437 C421 1.349 . S
C437 H429 0.950 . S
C437 C435 1.327 . S
C438 C426 1.349 . S
C438 H432 0.950 . S
C438 C439 1.327 . S
C439 H433 0.950 . S
C439 C438 1.327 . S
C439 C443 1.429 . S
C440 C423 1.574 . S
C440 H434 0.949 . S
C440 C444 1.368 . S
C441 C422 1.429 . S
C441 C435 1.429 . S
C441 C442 1.523 . S
C442 C423 1.368 . S
C442 C436 1.368 . S
C442 C441 1.523 . S
C443 C427 1.429 . S
C443 C439 1.429 . S
C443 C444 1.523 . S
C444 C428 1.368 . S
C444 C440 1.368 . S
C444 C443 1.523 . S
H445 C420 0.950 . S
H446 C422 0.950 . S
H447 C423 0.949 . S
H448 C425 0.950 . S
H449 C427 0.950 . S
C450 C451 1.349 . S
C450 C452 1.327 . S
C450 H475 0.950 . S
C451 C450 1.349 . S
C451 C467 1.349 . S
C452 C450 1.327 . S
C452 C471 1.429 . S
C452 H476 0.950 . S
C453 C470 1.574 . S
C453 C472 1.368 . S
C453 H477 0.949 . S
H454 C458 0.949 . S
C455 C456 1.349 . S
C455 C457 1.327 . S
C455 H478 0.950 . S
C456 C455 1.349 . S
C456 C468 1.349 . S
C457 C455 1.327 . S
C457 C473 1.429 . S
C457 H479 0.950 . S
C458 H454 0.949 . S
C458 C466 1.574 . S
C458 C474 1.368 . S
H459 C467 0.950 . S
H460 C465 0.950 . S
H461 C466 0.949 . S
H462 C468 0.950 . S
H463 C469 0.950 . S
H464 C470 0.949 . S
C465 H460 0.950 . S
C465 C467 1.327 . S
C465 C471 1.429 . S
C466 C458 1.574 . S
C466 H461 0.949 . S
C466 C472 1.368 . S
C467 C451 1.349 . S
C467 H459 0.950 . S
C467 C465 1.327 . S
C468 C456 1.349 . S
C468 H462 0.950 . S
C468 C469 1.327 . S
C469 H463 0.950 . S
C469 C468 1.327 . S
C469 C473 1.429 . S
C470 C453 1.574 . S
C470 H464 0.949 . S
C470 C474 1.368 . S
C471 C452 1.429 . S
C471 C465 1.429 . S
C471 C472 1.523 . S
C472 C453 1.368 . S
C472 C466 1.368 . S
C472 C471 1.523 . S
C473 C457 1.429 . S
C473 C469 1.429 . S
C473 C474 1.523 . S
C474 C458 1.368 . S
C474 C470 1.368 . S
C474 C473 1.523 . S
H475 C450 0.950 . S
H476 C452 0.950 . S
H477 C453 0.949 . S
H478 C455 0.950 . S
H479 C457 0.950 . S
C480 C481 1.349 . S
C480 C482 1.327 . S
C480 H505 0.950 . S
C481 C480 1.349 . S
C481 C497 1.349 . S
C482 C480 1.327 . S
C482 C501 1.429 . S
C482 H506 0.950 . S
C483 C500 1.574 . S
C483 C502 1.368 . S
C483 H507 0.949 . S
H484 C488 0.949 . S
C485 C486 1.349 . S
C485 C487 1.327 . S
C485 H508 0.950 . S
C486 C485 1.349 . S
C486 C498 1.349 . S
C487 C485 1.327 . S
C487 C503 1.429 . S
C487 H509 0.950 . S
C488 H484 0.949 . S
C488 C496 1.574 . S
C488 C504 1.368 . S
H489 C497 0.950 . S
H490 C495 0.950 . S
H491 C496 0.949 . S
H492 C498 0.950 . S
H493 C499 0.950 . S
H494 C500 0.949 . S
C495 H490 0.950 . S
C495 C497 1.327 . S
C495 C501 1.429 . S
C496 C488 1.574 . S
C496 H491 0.949 . S
C496 C502 1.368 . S
C497 C481 1.349 . S
C497 H489 0.950 . S
C497 C495 1.327 . S
C498 C486 1.349 . S
C498 H492 0.950 . S
C498 C499 1.327 . S
C499 H493 0.950 . S
C499 C498 1.327 . S
C499 C503 1.429 . S
C500 C483 1.574 . S
C500 H494 0.949 . S
C500 C504 1.368 . S
C501 C482 1.429 . S
C501 C495 1.429 . S
C501 C502 1.523 . S
C502 C483 1.368 . S
C502 C496 1.368 . S
C502 C501 1.523 . S
C503 C487 1.429 . S
C503 C499 1.429 . S
C503 C504 1.523 . S
C504 C488 1.368 . S
C504 C500 1.368 . S
C504 C503 1.523 . S
H505 C480 0.950 . S
H506 C482 0.950 . S
H507 C483 0.949 . S
H508 C485 0.950 . S
H509 C487 0.950 . S
C510 C511 1.349 . S
C510 C512 1.327 . S
C510 H535 0.950 . S
C511 C510 1.349 . S
C511 C527 1.349 . S
C512 C510 1.327 . S
C512 C531 1.429 . S
C512 H536 0.950 . S
C513 C530 1.574 . S
C513 C532 1.368 . S
C513 H537 0.949 . S
H514 C518 0.949 . S
C515 C516 1.349 . S
C515 C517 1.327 . S
C515 H538 0.950 . S
C516 C515 1.349 . S
C516 C528 1.349 . S
C517 C515 1.327 . S
C517 C533 1.429 . S
C517 H539 0.950 . S
C518 H514 0.949 . S
C518 C526 1.574 . S
C518 C534 1.368 . S
H519 C527 0.950 . S
H520 C525 0.950 . S
H521 C526 0.949 . S
H522 C528 0.950 . S
H523 C529 0.950 . S
H524 C530 0.949 . S
C525 H520 0.950 . S
C525 C527 1.327 . S
C525 C531 1.429 . S
C526 C518 1.574 . S
C526 H521 0.949 . S
C526 C532 1.368 . S
C527 C511 1.349 . S
C527 H519 0.950 . S
C527 C525 1.327 . S
C528 C516 1.349 . S
C528 H522 0.950 . S
C528 C529 1.327 . S
C529 H523 0.950 . S
C529 C528 1.327 . S
C529 C533 1.429 . S
C530 C513 1.574 . S
C530 H524 0.949 . S
C530 C534 1.368 . S
C531 C512 1.429 . S
C531 C525 1.429 . S
C531 C532 1.523 . S
C532 C513 1.368 . S
C532 C526 1.368 . S
C532 C531 1.523 . S
C533 C517 1.429 . S
C533 C529 1.429 . S
C533 C534 1.523 . S
C534 C518 1.368 . S
C534 C530 1.368 . S
C534 C533 1.523 . S
H535 C510 0.950 . S
H536 C512 0.950 . S
H537 C513 0.949 . S
H538 C515 0.950 . S
H539 C517 0.950 . S
C540 C541 1.349 . S
C540 C542 1.327 . S
C540 H565 0.950 . S
C541 C540 1.349 . S
C541 C557 1.349 . S
C542 C540 1.327 . S
C542 C561 1.429 . S
C542 H566 0.950 . S
C543 C560 1.574 . S
C543 C562 1.368 . S
C543 H567 0.949 . S
H544 C548 0.949 . S
C545 C546 1.349 . S
C545 C547 1.327 . S
C545 H568 0.950 . S
C546 C545 1.349 . S
C546 C558 1.349 . S
C547 C545 1.327 . S
C547 C563 1.429 . S
C547 H569 0.950 . S
C548 H544 0.949 . S
C548 C556 1.574 . S
C548 C564 1.368 . S
H549 C557 0.950 . S
H550 C555 0.950 . S
H551 C556 0.949 . S
H552 C558 0.950 . S
H553 C559 0.950 . S
H554 C560 0.949 . S
C555 H550 0.950 . S
C555 C557 1.327 . S
C555 C561 1.429 . S
C556 C548 1.574 . S
C556 H551 0.949 . S
C556 C562 1.368 . S
C557 C541 1.349 . S
C557 H549 0.950 . S
C557 C555 1.327 . S
C558 C546 1.349 . S
C558 H552 0.950 . S
C558 C559 1.327 . S
C559 H553 0.950 . S
C559 C558 1.327 . S
C559 C563 1.429 . S
C560 C543 1.574 . S
C560 H554 0.949 . S
C560 C564 1.368 . S
C561 C542 1.429 . S
C561 C555 1.429 . S
C561 C562 1.523 . S
C562 C543 1.368 . S
C562 C556 1.368 . S
C562 C561 1.523 . S
C563 C547 1.429 . S
C563 C559 1.429 . S
C563 C564 1.523 . S
C564 C548 1.368 . S
C564 C560 1.368 . S
C564 C563 1.523 . S
H565 C540 0.950 . S
H566 C542 0.950 . S
H567 C543 0.949 . S
H568 C545 0.950 . S
H569 C547 0.950 . S
C570 C571 1.349 . S
C570 C572 1.327 . S
C570 H595 0.950 . S
C571 C570 1.349 . S
C571 C587 1.349 . S
C572 C570 1.327 . S
C572 C591 1.429 . S
C572 H596 0.950 . S
C573 C590 1.574 . S
C573 C592 1.368 . S
C573 H597 0.949 . S
H574 C578 0.949 . S
C575 C576 1.349 . S
C575 C577 1.327 . S
C575 H598 0.950 . S
C576 C575 1.349 . S
C576 C588 1.349 . S
C577 C575 1.327 . S
C577 C593 1.429 . S
C577 H599 0.950 . S
C578 H574 0.949 . S
C578 C586 1.574 . S
C578 C594 1.368 . S
H579 C587 0.950 . S
H580 C585 0.950 . S
H581 C586 0.949 . S
H582 C588 0.950 . S
H583 C589 0.950 . S
H584 C590 0.949 . S
C585 H580 0.950 . S
C585 C587 1.327 . S
C585 C591 1.429 . S
C586 C578 1.574 . S
C586 H581 0.949 . S
C586 C592 1.368 . S
C587 C571 1.349 . S
C587 H579 0.950 . S
C587 C585 1.327 . S
C588 C576 1.349 . S
C588 H582 0.950 . S
C588 C589 1.327 . S
C589 H583 0.950 . S
C589 C588 1.327 . S
C589 C593 1.429 . S
C590 C573 1.574 . S
C590 H584 0.949 . S
C590 C594 1.368 . S
C591 C572 1.429 . S
C591 C585 1.429 . S
C591 C592 1.523 . S
C592 C573 1.368 . S
C592 C586 1.368 . S
C592 C591 1.523 . S
C593 C577 1.429 . S
C593 C589 1.429 . S
C593 C594 1.523 . S
C594 C578 1.368 . S
C594 C590 1.368 . S
C594 C593 1.523 . S
H595 C570 0.950 . S
H596 C572 0.950 . S
H597 C573 0.949 . S
H598 C575 0.950 . S
H599 C577 0.950 . S
C600 C601 1.349 . S
C600 C602 1.327 . S
C600 H625 0.950 . S
C601 C600 1.349 . S
C601 C617 1.349 . S
C602 C600 1.327 . S
C602 C621 1.429 . S
C602 H626 0.950 . S
C603 C620 1.574 . S
C603 C622 1.368 . S
C603 H627 0.949 . S
H604 C608 0.949 . S
C605 C606 1.349 . S
C605 C607 1.327 . S
C605 H628 0.950 . S
C606 C605 1.349 . S
C606 C618 1.349 . S
C607 C605 1.327 . S
C607 C623 1.429 1_655 S
C607 H629 0.950 . S
C608 H604 0.949 . S
C608 C616 1.574 . S
C608 C624 1.368 . S
H609 C617 0.950 . S
H610 C615 0.950 . S
H611 C616 0.949 . S
H612 C618 0.950 . S
H613 C619 0.950 . S
H614 C620 0.949 . S
C615 H610 0.950 . S
C615 C617 1.327 . S
C615 C621 1.429 . S
C616 C608 1.574 . S
C616 H611 0.949 . S
C616 C622 1.368 . S
C617 C601 1.349 . S
C617 H609 0.950 . S
C617 C615 1.327 . S
C618 C606 1.349 . S
C618 H612 0.950 . S
C618 C619 1.327 1_655 S
C619 H613 0.950 . S
C619 C618 1.327 1_455 S
C619 C623 1.429 . S
C620 C603 1.574 . S
C620 H614 0.949 . S
C620 C624 1.368 . S
C621 C602 1.429 . S
C621 C615 1.429 . S
C621 C622 1.523 . S
C622 C603 1.368 . S
C622 C616 1.368 . S
C622 C621 1.523 . S
C623 C607 1.429 1_455 S
C623 C619 1.429 . S
C623 C624 1.523 . S
C624 C608 1.368 . S
C624 C620 1.368 . S
C624 C623 1.523 . S
H625 C600 0.950 . S
H626 C602 0.950 . S
H627 C603 0.949 . S
H628 C605 0.950 . S
H629 C607 0.950 . S
C630 C631 1.349 . S
C630 C632 1.327 1_655 S
C630 H655 0.950 . S
C631 C630 1.349 . S
C631 C647 1.349 . S
C632 C630 1.327 1_455 S
C632 C651 1.429 . S
C632 H656 0.950 . S
C633 C650 1.574 . S
C633 C652 1.368 . S
C633 H657 0.949 . S
H634 C638 0.949 . S
C635 C636 1.349 . S
C635 C637 1.327 1_545 S
C635 H658 0.950 . S
C636 C635 1.349 . S
C636 C648 1.349 . S
C637 C635 1.327 1_565 S
C637 C653 1.429 . S
C637 H659 0.950 . S
C638 H634 0.949 . S
C638 C646 1.574 . S
C638 C654 1.368 . S
H639 C647 0.950 . S
H640 C645 0.950 . S
H641 C646 0.949 . S
H642 C648 0.950 . S
H643 C649 0.950 . S
H644 C650 0.949 . S
C645 H640 0.950 . S
C645 C647 1.327 1_455 S
C645 C651 1.429 . S
C646 C638 1.574 . S
C646 H641 0.949 . S
C646 C652 1.368 . S
C647 C631 1.349 . S
C647 H639 0.950 . S
C647 C645 1.327 1_655 S
C648 C636 1.349 . S
C648 H642 0.950 . S
C648 C649 1.327 . S
C649 H643 0.950 . S
C649 C648 1.327 . S
C649 C653 1.429 1_545 S
C650 C633 1.574 . S
C650 H644 0.949 . S
C650 C654 1.368 . S
C651 C632 1.429 . S
C651 C645 1.429 . S
C651 C652 1.523 . S
C652 C633 1.368 . S
C652 C646 1.368 . S
C652 C651 1.523 . S
C653 C637 1.429 . S
C653 C649 1.429 1_565 S
C653 C654 1.523 . S
C654 C638 1.368 . S
C654 C650 1.368 . S
C654 C653 1.523 . S
H655 C630 0.950 . S
H656 C632 0.950 . S
H657 C633 0.949 . S
H658 C635 0.950 . S
H659 C637 0.950 . S
C660 C661 1.349 . S
C660 C662 1.327 1_545 S
C660 H685 0.950 . S
C661 C660 1.349 . S
C661 C677 1.349 . S
C662 C660 1.327 1_565 S
C662 C681 1.429 . S
C662 H686 0.950 . S
C663 C680 1.574 . S
C663 C682 1.368 . S
C663 H687 0.949 . S
H664 C668 0.949 . S
C665 C666 1.349 . S
C665 C667 1.327 . S
C665 H688 0.950 . S
C666 C665 1.349 . S
C666 C678 1.349 . S
C667 C665 1.327 . S
C667 C683 1.429 . S
C667 H689 0.950 . S
C668 H664 0.949 . S
C668 C676 1.574 . S
C668 C684 1.368 . S
H669 C677 0.950 . S
H670 C675 0.950 . S
H671 C676 0.949 . S
H672 C678 0.950 . S
H673 C679 0.950 . S
H674 C680 0.949 . S
C675 H670 0.950 . S
C675 C677 1.327 1_565 S
C675 C681 1.429 . S
C676 C668 1.574 . S
C676 H671 0.949 . S
C676 C682 1.368 . S
C677 C661 1.349 . S
C677 H669 0.950 . S
C677 C675 1.327 1_545 S
C678 C666 1.349 . S
C678 H672 0.950 . S
C678 C679 1.327 . S
C679 H673 0.950 . S
C679 C678 1.327 . S
C679 C683 1.429 . S
C680 C663 1.574 . S
C680 H674 0.949 . S
C680 C684 1.368 . S
C681 C662 1.429 . S
C681 C675 1.429 . S
C681 C682 1.523 . S
C682 C663 1.368 . S
C682 C676 1.368 . S
C682 C681 1.523 . S
C683 C667 1.429 . S
C683 C679 1.429 . S
C683 C684 1.523 . S
C684 C668 1.368 . S
C684 C680 1.368 . S
C684 C683 1.523 . S
H685 C660 0.950 . S
H686 C662 0.950 . S
H687 C663 0.949 . S
H688 C665 0.950 . S
H689 C667 0.950 . S
C690 C691 1.349 . S
C690 C692 1.327 . S
C690 H715 0.950 . S
C691 C690 1.349 . S
C691 C707 1.349 . S
C692 C690 1.327 . S
C692 C711 1.429 . S
C692 H716 0.950 . S
C693 C710 1.574 . S
C693 C712 1.368 . S
C693 H717 0.949 . S
H694 C698 0.949 . S
C695 C696 1.349 . S
C695 C697 1.327 1_565 S
C695 H718 0.950 . S
C696 C695 1.349 . S
C696 C708 1.349 . S
C697 C695 1.327 1_545 S
C697 C713 1.429 . S
C697 H719 0.950 . S
C698 H694 0.949 . S
C698 C706 1.574 . S
C698 C714 1.368 . S
H699 C707 0.950 . S
H700 C705 0.950 . S
H701 C706 0.949 . S
H702 C708 0.950 . S
H703 C709 0.950 . S
H704 C710 0.949 . S
C705 H700 0.950 . S
C705 C707 1.327 . S
C705 C711 1.429 . S
C706 C698 1.574 . S
C706 H701 0.949 . S
C706 C712 1.368 . S
C707 C691 1.349 . S
C707 H699 0.950 . S
C707 C705 1.327 . S
C708 C696 1.349 . S
C708 H702 0.950 . S
C708 C709 1.327 . S
C709 H703 0.950 . S
C709 C708 1.327 . S
C709 C713 1.429 1_565 S
C710 C693 1.574 . S
C710 H704 0.949 . S
C710 C714 1.368 . S
C711 C692 1.429 . S
C711 C705 1.429 . S
C711 C712 1.523 . S
C712 C693 1.368 . S
C712 C706 1.368 . S
C712 C711 1.523 . S
C713 C697 1.429 . S
C713 C709 1.429 1_545 S
C713 C714 1.523 . S
C714 C698 1.368 . S
C714 C710 1.368 . S
C714 C713 1.523 . S
H715 C690 0.950 . S
H716 C692 0.950 . S
H717 C693 0.949 . S
H718 C695 0.950 . S
H719 C697 0.950 . S
C720 C721 1.349 . S
C720 C722 1.327 1_455 S
C720 H745 0.950 . S
C721 C720 1.349 . S
C721 C737 1.349 . S
C722 C720 1.327 1_655 S
C722 C741 1.429 . S
C722 H746 0.950 . S
C723 C740 1.574 . S
C723 C742 1.368 . S
C723 H747 0.949 . S
H724 C728 0.949 . S
C725 C726 1.349 . S
C725 C727 1.327 . S
C725 H748 0.950 . S
C726 C725 1.349 . S
C726 C738 1.349 . S
C727 C725 1.327 . S
C727 C743 1.429 . S
C727 H749 0.950 . S
C728 H724 0.949 . S
C728 C736 1.574 . S
C728 C744 1.368 . S
H729 C737 0.950 . S
H730 C735 0.950 . S
H731 C736 0.949 . S
H732 C738 0.950 . S
H733 C739 0.950 . S
H734 C740 0.949 . S
C735 H730 0.950 . S
C735 C737 1.327 1_655 S
C735 C741 1.429 . S
C736 C728 1.574 . S
C736 H731 0.949 . S
C736 C742 1.368 . S
C737 C721 1.349 . S
C737 H729 0.950 . S
C737 C735 1.327 1_455 S
C738 C726 1.349 . S
C738 H732 0.950 . S
C738 C739 1.327 . S
C739 H733 0.950 . S
C739 C738 1.327 . S
C739 C743 1.429 . S
C740 C723 1.574 . S
C740 H734 0.949 . S
C740 C744 1.368 . S
C741 C722 1.429 . S
C741 C735 1.429 . S
C741 C742 1.523 . S
C742 C723 1.368 . S
C742 C736 1.368 . S
C742 C741 1.523 . S
C743 C727 1.429 . S
C743 C739 1.429 . S
C743 C744 1.523 . S
C744 C728 1.368 . S
C744 C740 1.368 . S
C744 C743 1.523 . S
H745 C720 0.950 . S
H746 C722 0.950 . S
H747 C723 0.949 . S
H748 C725 0.950 . S
H749 C727 0.950 . S
C750 C751 1.349 . S
C750 C752 1.327 . S
C750 H775 0.950 . S
C751 C750 1.349 . S
C751 C767 1.349 . S
C752 C750 1.327 . S
C752 C771 1.429 1_455 S
C752 H776 0.950 . S
C753 C770 1.574 . S
C753 C772 1.368 . S
C753 H777 0.949 . S
H754 C758 0.949 . S
C755 C756 1.349 . S
C755 C757 1.327 1_565 S
C755 H778 0.950 . S
C756 C755 1.349 . S
C756 C768 1.349 . S
C757 C755 1.327 1_545 S
C757 C773 1.429 . S
C757 H779 0.950 . S
C758 H754 0.949 . S
C758 C766 1.574 . S
C758 C774 1.368 . S
H759 C767 0.950 . S
H760 C765 0.950 . S
H761 C766 0.949 . S
H762 C768 0.950 . S
H763 C769 0.950 . S
H764 C770 0.949 . S
C765 H760 0.950 . S
C765 C767 1.327 1_655 S
C765 C771 1.429 . S
C766 C758 1.574 . S
C766 H761 0.949 . S
C766 C772 1.368 . S
C767 C751 1.349 . S
C767 H759 0.950 . S
C767 C765 1.327 1_455 S
C768 C756 1.349 . S
C768 H762 0.950 . S
C768 C769 1.327 1_565 S
C769 H763 0.950 . S
C769 C768 1.327 1_545 S
C769 C773 1.429 . S
C770 C753 1.574 . S
C770 H764 0.949 . S
C770 C774 1.368 . S
C771 C752 1.429 1_655 S
C771 C765 1.429 . S
C771 C772 1.523 . S
C772 C753 1.368 . S
C772 C766 1.368 . S
C772 C771 1.523 . S
C773 C757 1.429 . S
C773 C769 1.429 . S
C773 C774 1.523 . S
C774 C758 1.368 . S
C774 C770 1.368 . S
C774 C773 1.523 . S
H775 C750 0.950 . S
H776 C752 0.950 . S
H777 C753 0.949 . S
H778 C755 0.950 . S
H779 C757 0.950 . S
C241 C178 2.324 . S
C246 C18 2.496 . S
C271 C209 2.496 . S
C276 C49 2.324 . S
C301 C98 2.496 . S
C306 C138 2.324 . S
C331 C9 2.324 . S
C336 C169 2.496 . S
C361 C218 2.324 . S
C366 C58 2.496 . S
C391 C89 2.324 . S
C396 C129 2.496 . S
C421 C6 1.893 . S
C426 C90 1.830 . S
C451 C46 1.893 . S
C456 C10 1.830 . S
C481 C86 1.893 . S
C486 C50 1.830 . S
C511 C135 1.893 . S
C516 C179 1.830 . S
C541 C175 1.893 . S
C546 C219 1.830 . S
C571 C139 1.830 . S
C576 C215 1.893 . S
C601 C15 1.005 . S
C606 C99 1.021 . S
C631 C55 1.005 . S
C636 C19 1.021 . S
C661 C95 1.005 . S
C666 C59 1.021 . S
C691 C126 1.005 . S
C696 C170 1.021 . S
C721 C166 1.005 . S
C726 C210 1.021 . S
C751 C130 1.021 . S
C756 C206 1.005 . S
