# Generated by pormake.
# Topology bnn, (5)-cn, num edge types: 1
# Building blocks:
#     Node 0, Type 0, BuildingBlock: XOMCOT_clean_sbu_0, # of connection points: 5
#     Node 1, Type 0, BuildingBlock: XOMCOT_clean_sbu_0, # of connection points: 5
#     Edge 2, Type (0, 0), BuildingBlock: MIFKUJ_clean_linker_0, # of connection points: 2
#     Edge 3, Type (0, 0), BuildingBlock: MIFKUJ_clean_linker_0, # of connection points: 2
#     Edge 4, Type (0, 0), BuildingBlock: MIFKUJ_clean_linker_0, # of connection points: 2
#     Edge 5, Type (0, 0), BuildingBlock: MIFKUJ_clean_linker_0, # of connection points: 2
#     Edge 6, Type (0, 0), BuildingBlock: MIFKUJ_clean_linker_0, # of connection points: 2
# Relax obj value: 0.022
# Max RMSD: 0.079
# Mean RMSD: 0.079
data_MOF--net-bnn--node1-XOMCOT_clean_sbu_0--edge1-MIFKUJ_clean_linker_0
_symmetry_space_group_name_H-M    P1
_symmetry_Int_Tables_number       1
_symmetry_cell_setting            triclinic
loop_
_symmetry_equiv_pos_as_xyz
'x, y, z'
_cell_length_a     37.545561
_cell_length_b     35.051219
_cell_length_c     22.090653
_cell_angle_alpha  100.92743
_cell_angle_beta   89.527412
_cell_angle_gamma 122.38479
loop_
_atom_site_label
_atom_site_type_symbol
_atom_site_fract_x
_atom_site_fract_y
_atom_site_fract_z
_atom_type_partial_charge
Co0 Co 0.33476 0.69033 0.04746 0.0
C1 C 0.33038 0.69556 0.18383 0.0
C2 C 0.33261 0.75176 0.15471 0.0
C3 C 0.33022 0.75719 0.21764 0.0
N4 N 0.3328 0.71324 0.1335 0.0
N5 N 0.32892 0.72191 0.23591 0.0
H6 H 0.32888 0.66381 0.18263 0.0
H7 H 0.33401 0.77434 0.1262 0.0
C8 C 0.41003 0.77302 1.00752 0.0
O9 O 0.41528 0.74586 0.96385 0.0
N10 N 0.33587 0.66759 0.96068 0.0
C11 C 0.34072 0.63258 0.93623 0.0
C12 C 0.33904 0.62738 0.87285 0.0
C13 C 0.32994 0.6822 0.91152 0.0
N14 N 0.33256 0.65879 0.8573 0.0
C15 C 0.35442 0.62973 0.08595 0.0
C16 C 0.44074 0.6802 0.07967 0.0
C17 C 0.42119 0.63467 0.08804 0.0
C18 C 0.37773 0.6105 0.09431 0.0
C19 C 0.41626 0.69881 0.07334 0.0
N20 N 0.37309 0.67259 0.07262 0.0
H21 H 0.32078 0.60895 0.08855 0.0
H22 H 0.43258 0.73389 0.06813 0.0
H23 H 0.34502 0.61187 0.96207 0.0
H24 H 0.32548 0.71061 0.91576 0.0
O25 O 0.28145 0.63277 0.04575 0.0
O26 O 0.28746 0.69495 0.02439 0.0
O27 O 0.38218 0.75593 0.04497 0.0
C28 C 0.2629 0.65218 0.02961 0.0
H29 H 0.33012 0.78534 0.24776 0.0
H30 H 0.34209 0.60211 0.84069 0.0
H31 H 0.47442 0.70095 0.07585 0.0
H32 H 0.36126 0.57624 0.10411 0.0
Co33 Co 0.66532 0.35046 0.02626 0.0
C34 C 0.65529 0.34594 0.89125 0.0
C35 C 0.60443 0.2857 0.91837 0.0
C36 C 0.59718 0.28056 0.85554 0.0
N37 N 0.64097 0.32648 0.94059 0.0
N38 N 0.62918 0.31843 0.83844 0.0
H39 H 0.68375 0.37972 0.89399 0.0
H40 H 0.5844 0.26135 0.94599 0.0
C41 C 0.65993 0.26887 0.06646 0.0
O42 O 0.69401 0.29631 0.1066 0.0
N43 N 0.68903 0.37458 0.11261 0.0
C44 C 0.72672 0.41357 0.13637 0.0
C45 C 0.73056 0.41974 0.19981 0.0
C46 C 0.66991 0.35834 0.16221 0.0
N47 N 0.69499 0.3848 0.21622 0.0
C48 C 0.74624 0.41154 0.98889 0.0
C49 C 0.7804 0.35875 0.98784 0.0
C50 C 0.80711 0.40497 0.98252 0.0
C51 C 0.78867 0.43037 0.97976 0.0
C52 C 0.73742 0.34068 0.99526 0.0
N53 N 0.72145 0.36811 1.00027 0.0
H54 H 0.73409 0.43324 0.98898 0.0
H55 H 0.71783 0.30492 0.99741 0.0
H56 H 0.74967 0.4368 0.11008 0.0
H57 H 0.63864 0.32722 0.15841 0.0
O58 O 0.66882 0.40739 0.02608 0.0
O59 O 0.61319 0.34572 0.04968 0.0
O60 O 0.64764 0.28547 0.03085 0.0
C61 C 0.63088 0.38807 0.0429 0.0
H62 H 0.57069 0.25076 0.82479 0.0
H63 H 0.75733 0.44843 0.23133 0.0
H64 H 0.79267 0.33701 0.9883 0.0
H65 H 0.80709 0.46528 0.9722 0.0
H66 H 0.39133 0.54297 0.04289 0.0
H67 H 0.42881 0.50401 0.04341 0.0
H68 H 0.54316 0.63371 0.12699 0.0
H69 H 0.50526 0.67316 0.1306 0.0
H70 H 0.54525 0.57048 1.00917 0.0
H71 H 0.50575 0.57425 0.21847 0.0
H72 H 0.45495 0.56161 0.29579 0.0
H73 H 0.37966 0.41654 0.21087 0.0
H74 H 0.4297 0.42847 0.13239 0.0
H75 H 0.66778 0.4809 0.06054 0.0
H76 H 0.63338 0.5239 0.0736 0.0
H77 H 0.51139 0.39637 0.05996 0.0
H78 H 0.54615 0.35317 0.04927 0.0
H79 H 0.51362 0.46045 0.14459 0.0
H80 H 0.54656 0.45173 0.93598 0.0
H81 H 0.59106 0.45903 0.8507 0.0
H82 H 0.67081 0.60584 0.92244 0.0
H83 H 0.62713 0.59933 1.00874 0.0
C84 C 0.42416 0.56339 0.06293 0.0
C85 C 0.44491 0.61139 0.08766 0.0
C86 C 0.44563 0.54095 0.06248 0.0
C87 C 0.48856 0.56596 0.08553 0.0
C88 C 0.50991 0.61389 0.10903 0.0
C89 C 0.4882 0.63638 0.11067 0.0
C90 C 0.51089 0.54161 0.084 0.0
C91 C 0.53911 0.5471 0.03952 0.0
C92 C 0.50119 0.50964 0.12179 0.0
C93 C 0.47125 0.50235 0.1692 0.0
C94 C 0.47815 0.53974 0.21592 0.0
C95 C 0.44954 0.53268 0.26004 0.0
C96 C 0.41404 0.48832 0.25815 0.0
C97 C 0.40714 0.4509 0.21223 0.0
C98 C 0.43564 0.45778 0.16796 0.0
C99 C 0.63361 0.46197 0.06051 0.0
C100 C 0.60956 0.41361 0.05334 0.0
C101 C 0.61394 0.48661 0.06769 0.0
C102 C 0.56965 0.46336 0.06634 0.0
C103 C 0.5456 0.4151 0.06085 0.0
C104 C 0.56543 0.39042 0.05463 0.0
C105 C 0.54865 0.48953 0.06999 0.0
C106 C 0.5203 0.48413 0.1145 0.0
C107 C 0.5575 0.52084 0.03114 0.0
C108 C 0.58381 0.52497 0.97921 0.0
C109 C 0.57378 0.48553 0.93386 0.0
C110 C 0.59882 0.48953 0.88529 0.0
C111 C 0.6338 0.53286 0.88125 0.0
C112 C 0.64374 0.57229 0.92569 0.0
C113 C 0.61883 0.56847 0.97442 0.0
H114 H 0.65315 0.53589 0.8436 0.0
H115 H 0.39193 0.48293 0.29235 0.0
H116 H 0.852 0.36701 0.93178 0.0
H117 H 0.92928 0.406 0.93378 0.0
H118 H 0.94552 0.53355 0.03328 0.0
H119 H 0.8692 0.49489 0.03462 0.0
H120 H 0.99312 0.5412 0.9269 0.0
H121 H 0.96343 0.47853 0.1127 0.0
H122 H 0.92814 0.41541 0.16911 0.0
H123 H 0.9812 0.34597 0.06181 0.0
H124 H 1.01632 0.40842 1.00412 0.0
H125 H 0.21211 0.68651 0.03702 0.0
H126 H 0.13439 0.64212 0.02292 0.0
H127 H 0.13118 0.51482 0.97796 0.0
H128 H 0.20852 0.55902 0.99557 0.0
H129 H 0.07527 0.50252 0.04876 0.0
H130 H 0.10834 0.56376 0.86605 0.0
H131 H 0.14285 0.62372 0.8045 0.0
H132 H 0.08302 0.69095 0.89545 0.0
H133 H 0.04858 0.63173 0.95817 0.0
C134 C 0.87196 0.40321 0.95467 0.0
C135 C 0.854 0.42776 0.98239 0.0
C136 C 0.9161 0.42549 0.95535 0.0
C137 C 0.94297 0.47272 0.98326 0.0
C138 C 0.92527 0.49724 1.01079 0.0
C139 C 0.88144 0.47498 1.01103 0.0
C140 C 0.98972 0.4969 0.98517 0.0
C141 C 1.01127 0.53303 0.95372 0.0
C142 C 1.01306 0.48526 0.0188 0.0
C143 C 0.99205 0.44784 0.0536 0.0
C144 C 0.96723 0.44958 0.10073 0.0
C145 C 0.94734 0.41398 0.13302 0.0
C146 C 0.95231 0.37662 0.11891 0.0
C147 C 0.9773 0.37487 0.0726 0.0
C148 C 0.99722 0.41037 0.04011 0.0
C149 C 0.1947 0.64908 0.02376 0.0
C150 C 0.21623 0.62617 0.01741 0.0
C151 C 0.15027 0.62366 1.01531 0.0
C152 C 0.12664 0.57493 0.99839 0.0
C153 C 0.14843 0.55225 0.99115 0.0
C154 C 0.19269 0.57757 1.00105 0.0
C155 C 0.07931 0.5474 0.9905 0.0
C156 C 0.05747 0.51061 0.02107 0.0
C157 C 0.05567 0.55793 0.95503 0.0
C158 C 0.07616 0.59351 0.91718 0.0
C159 C 0.10276 0.5915 0.87321 0.0
C160 C 0.12228 0.62533 0.83808 0.0
C161 C 0.1152 0.66117 0.84615 0.0
C162 C 0.0885 0.66319 0.88928 0.0
C163 C 0.06893 0.62947 0.92459 0.0
H164 H 0.13035 0.68734 0.81892 0.0
H165 H 0.9369 0.3491 0.14398 0.0
H166 H 0.40447 0.83955 0.08648 0.0
H167 H 0.44844 0.9233 0.09632 0.0
H168 H 0.5236 0.90623 0.95814 0.0
H169 H 0.479 0.8223 0.94674 0.0
H170 H 0.52793 0.98735 0.13148 0.0
H171 H 0.55805 0.98813 0.87378 0.0
H172 H 0.5227 0.93931 0.76978 0.0
H173 H 0.40124 0.8813 0.83943 0.0
H174 H 0.43579 0.93011 0.94358 0.0
H175 H 0.68477 0.21848 0.11351 0.0
H176 H 0.64483 0.13445 0.10302 0.0
H177 H 0.54112 0.12024 0.99604 0.0
H178 H 0.58134 0.20373 1.00458 0.0
H179 H 0.55062 0.05457 0.94555 0.0
H180 H 0.54062 0.11513 0.15395 0.0
H181 H 0.56765 0.16419 0.25962 0.0
H182 H 0.63398 0.09986 0.29167 0.0
H183 H 0.6078 0.05083 0.18583 0.0
C184 C 0.43039 0.85355 0.0582 0.0
C185 C 0.438 0.82407 1.01554 0.0
C186 C 0.45564 0.90155 0.06405 0.0
C187 C 0.48911 0.92123 0.02749 0.0
C188 C 0.4975 0.89194 0.98606 0.0
C189 C 0.47203 0.84388 0.97978 0.0
C190 C 0.51468 0.97225 0.03211 0.0
C191 C 0.53299 1.00202 0.09077 0.0
C192 C 0.5207 0.99163 0.97926 0.0
C193 C 0.49959 0.96247 0.9166 0.0
C194 C 0.52379 0.96508 0.86682 0.0
C195 C 0.50389 0.9374 0.80786 0.0
C196 C 0.45976 0.90721 0.79804 0.0
C197 C 0.43543 0.90463 0.84713 0.0
C198 C 0.45516 0.93225 0.90615 0.0
C199 C 0.6535 0.19743 0.08763 0.0
C200 C 0.63627 0.21791 0.05994 0.0
C201 C 0.63058 0.14934 0.08187 0.0
C202 C 0.58961 0.12082 0.04936 0.0
C203 C 0.57264 0.14128 0.0212 0.0
C204 C 0.5957 0.18918 0.02627 0.0
C205 C 0.56411 0.06978 0.04494 0.0
C206 C 0.54584 0.03996 0.98626 0.0
C207 C 0.557 0.05041 0.09801 0.0
C208 C 0.57261 0.07966 0.16176 0.0
C209 C 0.56121 0.11168 0.18339 0.0
C210 C 0.57634 0.13944 0.24333 0.0
C211 C 0.60261 0.13523 0.28227 0.0
C212 C 0.61369 0.10314 0.26141 0.0
C213 C 0.5987 0.07533 0.20147 0.0
H214 H 0.61429 0.15676 0.32865 0.0
H215 H 0.44442 0.88583 0.75237 0.0
H216 H 0.37042 0.64122 0.76076 0.0
H217 H 0.36835 0.65451 0.65695 0.0
H218 H 0.29126 0.70979 0.71003 0.0
H219 H 0.29226 0.69536 0.81424 0.0
H220 H 0.26145 0.65076 0.59648 0.0
H221 H 0.39414 0.78138 0.69695 0.0
H222 H 0.46391 0.82276 0.75895 0.0
H223 H 0.50672 0.75706 0.62075 0.0
H224 H 0.43684 0.71431 0.55857 0.0
H225 H 0.29172 0.74628 0.32727 0.0
H226 H 0.29141 0.73727 0.43447 0.0
H227 H 0.36203 0.67262 0.39385 0.0
H228 H 0.36276 0.68195 0.28653 0.0
H229 H 0.39485 0.74101 0.50353 0.0
H230 H 0.25936 0.60744 0.40666 0.0
H231 H 0.18924 0.56702 0.34596 0.0
H232 H 0.15222 0.64219 0.47907 0.0
H233 H 0.2224 0.68357 0.54014 0.0
C234 C 0.35263 0.65577 0.75042 0.0
C235 C 0.33138 0.66708 0.79597 0.0
C236 C 0.35186 0.66381 0.69109 0.0
C237 C 0.33006 0.68364 0.67584 0.0
C238 C 0.30843 0.69463 0.72086 0.0
C239 C 0.30928 0.68667 0.78052 0.0
C240 C 0.32973 0.69228 0.61257 0.0
C241 C 0.29061 0.67116 0.57653 0.0
C242 C 0.36781 0.71835 0.58619 0.0
C243 C 0.41005 0.74428 0.62329 0.0
C244 C 0.41828 0.77542 0.67997 0.0
C245 C 0.45788 0.79919 0.71513 0.0
C246 C 0.48971 0.79257 0.69379 0.0
C247 C 0.48201 0.76215 0.63723 0.0
C248 C 0.4424 0.73811 0.60201 0.0
C249 C 0.30727 0.73025 0.34119 0.0
C250 C 0.32728 0.71483 0.29839 0.0
C251 C 0.30684 0.72487 0.40236 0.0
C252 C 0.32655 0.7041 0.42209 0.0
C253 C 0.3466 0.6887 0.37956 0.0
C254 C 0.3467 0.6937 0.31816 0.0
C255 C 0.32662 0.69891 0.48728 0.0
C256 C 0.36573 0.72082 0.52369 0.0
C257 C 0.28855 0.67394 0.51415 0.0
C258 C 0.2463 0.64896 0.47761 0.0
C259 C 0.23641 0.61565 0.42271 0.0
C260 C 0.19662 0.59251 0.38829 0.0
C261 C 0.16633 0.60213 0.40855 0.0
C262 C 0.17574 0.63483 0.46338 0.0
C263 C 0.2155 0.65811 0.49794 0.0
H264 H 0.13555 0.58417 0.38184 0.0
H265 H 0.52036 0.81105 0.72105 0.0
H266 H 0.61815 0.33152 0.25708 0.0
H267 H 0.6049 0.31859 0.36206 0.0
H268 H 0.73911 0.40876 0.4221 0.0
H269 H 0.75284 0.42004 0.31724 0.0
H270 H 0.7071 0.33492 0.46845 0.0
H271 H 0.66829 0.44386 0.4539 0.0
H272 H 0.6293 0.47207 0.40838 0.0
H273 H 0.51093 0.35482 0.4374 0.0
H274 H 0.54922 0.3256 0.48238 0.0
H275 H 0.70308 0.37438 0.79346 0.0
H276 H 0.71231 0.3857 0.68738 0.0
H277 H 0.57748 0.29149 0.63544 0.0
H278 H 0.56775 0.28142 0.74191 0.0
H279 H 0.60737 0.36455 0.58392 0.0
H280 H 0.64649 0.25667 0.60061 0.0
H281 H 0.68564 0.22883 0.64661 0.0
H282 H 0.80372 0.34453 0.61364 0.0
H283 H 0.76528 0.3734 0.56817 0.0
C284 C 0.64493 0.34833 0.29235 0.0
C285 C 0.6866 0.37718 0.2783 0.0
C286 C 0.63723 0.34125 0.35265 0.0
C287 C 0.67097 0.36324 0.40031 0.0
C288 C 0.71252 0.39157 0.38627 0.0
C289 C 0.72026 0.3984 0.32612 0.0
C290 C 0.66339 0.35664 0.46482 0.0
C291 C 0.68565 0.34194 0.4939 0.0
C292 C 0.63463 0.36467 0.49766 0.0
C293 C 0.6116 0.38231 0.47091 0.0
C294 C 0.63393 0.42392 0.45016 0.0
C295 C 0.61197 0.44012 0.42452 0.0
C296 C 0.56766 0.41518 0.41984 0.0
C297 C 0.54524 0.37406 0.44096 0.0
C298 C 0.56706 0.35769 0.46658 0.0
C299 C 0.67528 0.35654 0.75982 0.0
C300 C 0.63467 0.32669 0.77638 0.0
C301 C 0.68067 0.36268 0.69891 0.0
C302 C 0.64566 0.33882 0.65313 0.0
C303 C 0.605 0.31003 0.66984 0.0
C304 C 0.59955 0.30398 0.73073 0.0
C305 C 0.65145 0.34336 0.58765 0.0
C306 C 0.62877 0.35751 0.55839 0.0
C307 C 0.67987 0.33489 0.5546 0.0
C308 C 0.70302 0.31741 0.5815 0.0
C309 C 0.68082 0.27634 0.60356 0.0
C310 C 0.70288 0.26035 0.62947 0.0
C311 C 0.74714 0.28495 0.63318 0.0
C312 C 0.76943 0.32553 0.6108 0.0
C313 C 0.74753 0.3417 0.5849 0.0
H314 H 0.76416 0.27253 0.65328 0.0
H315 H 0.55071 0.42778 0.39998 0.0
loop_
_geom_bond_atom_site_label_1
_geom_bond_atom_site_label_2
_geom_bond_distance
_geom_bond_site_symmetry_2
_ccdc_geom_bond_type
Co0 N4 2.148 . S
Co0 N10 2.128 1_554 S
Co0 N20 2.194 . S
Co0 O25 2.351 . S
Co0 O26 2.155 . S
Co0 O27 2.096 . S
C1 N4 1.301 . S
C1 N5 1.328 . S
C1 H6 0.930 . S
C2 C3 1.333 . S
C2 N4 1.317 . S
C2 H7 0.930 . S
C3 C2 1.333 . S
C3 N5 1.350 . S
C3 H29 0.931 . S
N4 Co0 2.148 . S
N4 C1 1.301 . S
N4 C2 1.317 . S
N5 C1 1.328 . S
N5 C3 1.350 . S
H6 C1 0.930 . S
H7 C2 0.930 . S
C8 O9 1.224 . S
C8 O27 1.247 . S
O9 C8 1.224 . S
N10 Co0 2.128 1_556 S
N10 C11 1.355 . S
N10 C13 1.311 . S
C11 N10 1.355 . S
C11 C12 1.363 . S
C11 H23 0.929 . S
C12 C11 1.363 . S
C12 N14 1.375 . S
C12 H30 0.931 . S
C13 N10 1.311 . S
C13 N14 1.347 . S
C13 H24 0.929 . S
N14 C12 1.375 . S
N14 C13 1.347 . S
C15 C18 1.365 . S
C15 N20 1.328 . S
C15 H21 0.929 . S
C16 C17 1.362 . S
C16 C19 1.378 . S
C16 H31 0.929 . S
C17 C16 1.362 . S
C17 C18 1.366 . S
C18 C15 1.365 . S
C18 C17 1.366 . S
C18 H32 0.930 . S
C19 C16 1.378 . S
C19 N20 1.315 . S
C19 H22 0.930 . S
N20 Co0 2.194 . S
N20 C15 1.328 . S
N20 C19 1.315 . S
H21 C15 0.929 . S
H22 C19 0.930 . S
H23 C11 0.929 . S
H24 C13 0.929 . S
O25 Co0 2.351 . S
O25 C28 1.244 . S
O26 Co0 2.155 . S
O26 C28 1.240 . S
O27 Co0 2.096 . S
O27 C8 1.247 . S
C28 O25 1.244 . S
C28 O26 1.240 . S
H29 C3 0.931 . S
H30 C12 0.931 . S
H31 C16 0.929 . S
H32 C18 0.930 . S
Co33 N37 2.148 1_554 S
Co33 N43 2.128 . S
Co33 N53 2.194 . S
Co33 O58 2.351 . S
Co33 O59 2.155 . S
Co33 O60 2.096 . S
C34 N37 1.301 . S
C34 N38 1.328 . S
C34 H39 0.930 . S
C35 C36 1.333 . S
C35 N37 1.317 . S
C35 H40 0.930 . S
C36 C35 1.333 . S
C36 N38 1.350 . S
C36 H62 0.931 . S
N37 Co33 2.148 1_556 S
N37 C34 1.301 . S
N37 C35 1.317 . S
N38 C34 1.328 . S
N38 C36 1.350 . S
H39 C34 0.930 . S
H40 C35 0.930 . S
C41 O42 1.224 . S
C41 O60 1.247 . S
O42 C41 1.224 . S
N43 Co33 2.128 . S
N43 C44 1.355 . S
N43 C46 1.311 . S
C44 N43 1.355 . S
C44 C45 1.363 . S
C44 H56 0.929 . S
C45 C44 1.363 . S
C45 N47 1.375 . S
C45 H63 0.931 . S
C46 N43 1.311 . S
C46 N47 1.347 . S
C46 H57 0.929 . S
N47 C45 1.375 . S
N47 C46 1.347 . S
C48 C51 1.365 . S
C48 N53 1.328 . S
C48 H54 0.934 . S
C49 C50 1.362 . S
C49 C52 1.378 . S
C49 H64 0.929 . S
C50 C49 1.362 . S
C50 C51 1.366 . S
C51 C48 1.365 . S
C51 C50 1.366 . S
C51 H65 0.930 . S
C52 C49 1.378 . S
C52 N53 1.315 . S
C52 H55 0.930 . S
N53 Co33 2.194 . S
N53 C48 1.328 . S
N53 C52 1.315 . S
H54 C48 0.934 . S
H55 C52 0.930 . S
H56 C44 0.929 . S
H57 C46 0.929 . S
O58 Co33 2.351 . S
O58 C61 1.244 . S
O59 Co33 2.155 . S
O59 C61 1.240 . S
O60 Co33 2.096 . S
O60 C41 1.247 . S
C61 O58 1.244 . S
C61 O59 1.240 . S
H62 C36 0.931 . S
H63 C45 0.931 . S
H64 C49 0.929 . S
H65 C51 0.930 . S
H66 C84 0.951 . S
H67 C86 0.951 . S
H68 C88 0.950 . S
H69 C89 0.950 . S
H70 C91 0.950 . S
H71 C94 0.950 . S
H72 C95 0.950 . S
H73 C97 0.950 . S
H74 C98 0.950 . S
H75 C99 0.951 . S
H76 C101 0.951 . S
H77 C103 0.950 . S
H78 C104 0.950 . S
H79 C106 0.950 . S
H80 C109 0.950 . S
H81 C110 0.950 . S
H82 C112 0.950 . S
H83 C113 0.950 . S
C84 H66 0.951 . S
C84 C85 1.366 . S
C84 C86 1.388 . S
C85 C84 1.366 . S
C85 C89 1.385 . S
C86 H67 0.951 . S
C86 C84 1.388 . S
C86 C87 1.366 . S
C87 C86 1.366 . S
C87 C88 1.414 . S
C87 C90 1.499 . S
C88 H68 0.950 . S
C88 C87 1.414 . S
C88 C89 1.374 . S
C89 H69 0.950 . S
C89 C85 1.385 . S
C89 C88 1.374 . S
C90 C87 1.499 . S
C90 C91 1.373 1_554 S
C90 C92 1.389 . S
C91 H70 0.950 . S
C91 C90 1.373 1_556 S
C91 C107 1.377 . S
C92 C90 1.389 . S
C92 C93 1.524 . S
C92 C106 1.377 . S
C93 C92 1.524 . S
C93 C94 1.397 . S
C93 C98 1.363 . S
C94 H71 0.950 . S
C94 C93 1.397 . S
C94 C95 1.334 . S
C95 H72 0.950 . S
C95 C94 1.334 . S
C95 C96 1.287 . S
C96 C95 1.287 . S
C96 C97 1.524 . S
C96 H115 0.913 . S
C97 H73 0.950 . S
C97 C96 1.524 . S
C97 C98 1.415 . S
C98 H74 0.950 . S
C98 C93 1.363 . S
C98 C97 1.415 . S
C99 H75 0.951 . S
C99 C100 1.366 . S
C99 C101 1.388 . S
C100 C99 1.366 . S
C100 C104 1.385 . S
C101 H76 0.951 . S
C101 C99 1.388 . S
C101 C102 1.366 . S
C102 C101 1.366 . S
C102 C103 1.414 . S
C102 C105 1.499 . S
C103 H77 0.950 . S
C103 C102 1.414 . S
C103 C104 1.374 . S
C104 H78 0.950 . S
C104 C100 1.385 . S
C104 C103 1.374 . S
C105 C102 1.499 . S
C105 C106 1.373 . S
C105 C107 1.389 1_554 S
C106 H79 0.950 . S
C106 C92 1.377 . S
C106 C105 1.373 . S
C107 C91 1.377 . S
C107 C105 1.389 1_556 S
C107 C108 1.524 . S
C108 C107 1.524 . S
C108 C109 1.397 . S
C108 C113 1.363 . S
C109 H80 0.950 . S
C109 C108 1.397 . S
C109 C110 1.334 . S
C110 H81 0.950 . S
C110 C109 1.334 . S
C110 C111 1.287 . S
C111 C110 1.287 . S
C111 C112 1.524 . S
C111 H114 0.999 . S
C112 H82 0.950 . S
C112 C111 1.524 . S
C112 C113 1.415 . S
C113 H83 0.950 . S
C113 C108 1.363 . S
C113 C112 1.415 . S
H114 C111 0.999 . S
H115 C96 0.913 . S
H116 C134 0.951 . S
H117 C136 0.951 . S
H118 C138 0.950 . S
H119 C139 0.950 . S
H120 C141 0.976 . S
H121 C144 0.950 . S
H122 C145 0.950 . S
H123 C147 0.950 . S
H124 C148 0.950 1_455 S
H125 C149 0.951 . S
H126 C151 0.951 . S
H127 C153 0.950 . S
H128 C154 0.950 . S
H129 C156 0.950 . S
H130 C159 0.950 . S
H131 C160 0.950 . S
H132 C162 0.950 1_554 S
H133 C163 0.950 . S
C134 H116 0.951 . S
C134 C135 1.366 1_556 S
C134 C136 1.388 . S
C135 C134 1.366 1_554 S
C135 C139 1.385 . S
C136 H117 0.951 . S
C136 C134 1.388 . S
C136 C137 1.366 1_556 S
C137 C136 1.366 1_554 S
C137 C138 1.414 . S
C137 C140 1.499 . S
C138 H118 0.950 . S
C138 C137 1.414 . S
C138 C139 1.374 . S
C139 H119 0.950 . S
C139 C135 1.385 . S
C139 C138 1.374 . S
C140 C137 1.499 . S
C140 C141 1.374 . S
C140 C142 1.398 . S
C141 H120 0.976 . S
C141 C140 1.374 . S
C141 C157 1.350 1_655 S
C142 C140 1.398 . S
C142 C143 1.524 . S
C142 C156 1.368 1_655 S
C143 C142 1.524 . S
C143 C144 1.397 . S
C143 C148 1.363 . S
C144 H121 0.950 . S
C144 C143 1.397 . S
C144 C145 1.334 . S
C145 H122 0.950 . S
C145 C144 1.334 . S
C145 C146 1.287 . S
C146 C145 1.287 . S
C146 C147 1.524 . S
C146 H165 0.913 . S
C147 H123 0.950 . S
C147 C146 1.524 . S
C147 C148 1.415 . S
C148 H124 0.950 1_655 S
C148 C143 1.363 . S
C148 C147 1.415 . S
C149 H125 0.951 . S
C149 C150 1.366 . S
C149 C151 1.388 . S
C150 C149 1.366 . S
C150 C154 1.385 1_554 S
C151 H126 0.951 . S
C151 C149 1.388 . S
C151 C152 1.366 . S
C152 C151 1.366 . S
C152 C153 1.414 1_554 S
C152 C155 1.499 . S
C153 H127 0.950 . S
C153 C152 1.414 1_556 S
C153 C154 1.374 . S
C154 H128 0.950 . S
C154 C150 1.385 1_556 S
C154 C153 1.374 . S
C155 C152 1.499 . S
C155 C156 1.373 . S
C155 C157 1.389 . S
C156 H129 0.950 . S
C156 C142 1.368 1_455 S
C156 C155 1.373 . S
C157 C141 1.350 1_455 S
C157 C155 1.389 . S
C157 C158 1.524 1_554 S
C158 C157 1.524 1_556 S
C158 C159 1.397 . S
C158 C163 1.363 1_556 S
C159 H130 0.950 . S
C159 C158 1.397 . S
C159 C160 1.334 . S
C160 H131 0.950 . S
C160 C159 1.334 . S
C160 C161 1.287 . S
C161 C160 1.287 . S
C161 C162 1.524 . S
C161 H164 0.999 . S
C162 H132 0.950 1_556 S
C162 C161 1.524 . S
C162 C163 1.415 1_556 S
C163 H133 0.950 . S
C163 C158 1.363 1_554 S
C163 C162 1.415 1_554 S
H164 C161 0.999 . S
H165 C146 0.913 . S
H166 C184 0.951 . S
H167 C186 0.951 . S
H168 C188 0.950 . S
H169 C189 0.950 . S
H170 C191 0.950 . S
H171 C194 0.950 . S
H172 C195 0.950 . S
H173 C197 0.950 . S
H174 C198 0.950 . S
H175 C199 0.951 . S
H176 C201 0.951 . S
H177 C203 0.950 . S
H178 C204 0.950 . S
H179 C206 0.950 . S
H180 C209 0.950 . S
H181 C210 0.950 . S
H182 C212 0.950 . S
H183 C213 0.950 . S
C184 H166 0.951 . S
C184 C185 1.366 . S
C184 C186 1.388 . S
C185 C184 1.366 . S
C185 C189 1.385 . S
C186 H167 0.951 . S
C186 C184 1.388 . S
C186 C187 1.366 . S
C187 C186 1.366 . S
C187 C188 1.414 . S
C187 C190 1.499 . S
C188 H168 0.950 . S
C188 C187 1.414 . S
C188 C189 1.374 . S
C189 H169 0.950 . S
C189 C185 1.385 . S
C189 C188 1.374 . S
C190 C187 1.499 . S
C190 C191 1.373 . S
C190 C192 1.389 1_554 S
C191 H170 0.950 . S
C191 C190 1.373 . S
C191 C207 1.377 1_565 S
C192 C190 1.389 1_556 S
C192 C193 1.524 . S
C192 C206 1.377 1_565 S
C193 C192 1.524 . S
C193 C194 1.397 . S
C193 C198 1.363 . S
C194 H171 0.950 . S
C194 C193 1.397 . S
C194 C195 1.334 . S
C195 H172 0.950 . S
C195 C194 1.334 . S
C195 C196 1.287 . S
C196 C195 1.287 . S
C196 C197 1.524 . S
C196 H215 0.913 . S
C197 H173 0.950 . S
C197 C196 1.524 . S
C197 C198 1.415 . S
C198 H174 0.950 . S
C198 C193 1.363 . S
C198 C197 1.415 . S
C199 H175 0.951 . S
C199 C200 1.366 . S
C199 C201 1.388 . S
C200 C199 1.366 . S
C200 C204 1.385 . S
C201 H176 0.951 . S
C201 C199 1.388 . S
C201 C202 1.366 . S
C202 C201 1.366 . S
C202 C203 1.414 . S
C202 C205 1.499 . S
C203 H177 0.950 . S
C203 C202 1.414 . S
C203 C204 1.374 . S
C204 H178 0.950 . S
C204 C200 1.385 . S
C204 C203 1.374 . S
C205 C202 1.499 . S
C205 C206 1.373 1_554 S
C205 C207 1.389 . S
C206 H179 0.950 . S
C206 C192 1.377 1_545 S
C206 C205 1.373 1_556 S
C207 C191 1.377 1_545 S
C207 C205 1.389 . S
C207 C208 1.524 . S
C208 C207 1.524 . S
C208 C209 1.397 . S
C208 C213 1.363 . S
C209 H180 0.950 . S
C209 C208 1.397 . S
C209 C210 1.334 . S
C210 H181 0.950 . S
C210 C209 1.334 . S
C210 C211 1.287 . S
C211 C210 1.287 . S
C211 C212 1.524 . S
C211 H214 0.999 . S
C212 H182 0.950 . S
C212 C211 1.524 . S
C212 C213 1.415 . S
C213 H183 0.950 . S
C213 C208 1.363 . S
C213 C212 1.415 . S
H214 C211 0.999 . S
H215 C196 0.913 . S
H216 C234 0.951 . S
H217 C236 0.951 . S
H218 C238 0.950 . S
H219 C239 0.950 . S
H220 C241 0.950 . S
H221 C244 0.950 . S
H222 C245 0.950 . S
H223 C247 0.950 . S
H224 C248 0.950 . S
H225 C249 0.951 . S
H226 C251 0.951 . S
H227 C253 0.950 . S
H228 C254 0.950 . S
H229 C256 0.950 . S
H230 C259 0.950 . S
H231 C260 0.950 . S
H232 C262 0.950 . S
H233 C263 0.950 . S
C234 H216 0.951 . S
C234 C235 1.366 . S
C234 C236 1.388 . S
C235 C234 1.366 . S
C235 C239 1.385 . S
C236 H217 0.951 . S
C236 C234 1.388 . S
C236 C237 1.366 . S
C237 C236 1.366 . S
C237 C238 1.414 . S
C237 C240 1.499 . S
C238 H218 0.950 . S
C238 C237 1.414 . S
C238 C239 1.374 . S
C239 H219 0.950 . S
C239 C235 1.385 . S
C239 C238 1.374 . S
C240 C237 1.499 . S
C240 C241 1.373 . S
C240 C242 1.389 . S
C241 H220 0.950 . S
C241 C240 1.373 . S
C241 C257 1.377 . S
C242 C240 1.389 . S
C242 C243 1.524 . S
C242 C256 1.377 . S
C243 C242 1.524 . S
C243 C244 1.397 . S
C243 C248 1.363 . S
C244 H221 0.950 . S
C244 C243 1.397 . S
C244 C245 1.334 . S
C245 H222 0.950 . S
C245 C244 1.334 . S
C245 C246 1.287 . S
C246 C245 1.287 . S
C246 C247 1.524 . S
C246 H265 0.913 . S
C247 H223 0.950 . S
C247 C246 1.524 . S
C247 C248 1.415 . S
C248 H224 0.950 . S
C248 C243 1.363 . S
C248 C247 1.415 . S
C249 H225 0.951 . S
C249 C250 1.366 . S
C249 C251 1.388 . S
C250 C249 1.366 . S
C250 C254 1.385 . S
C251 H226 0.951 . S
C251 C249 1.388 . S
C251 C252 1.366 . S
C252 C251 1.366 . S
C252 C253 1.414 . S
C252 C255 1.499 . S
C253 H227 0.950 . S
C253 C252 1.414 . S
C253 C254 1.374 . S
C254 H228 0.950 . S
C254 C250 1.385 . S
C254 C253 1.374 . S
C255 C252 1.499 . S
C255 C256 1.373 . S
C255 C257 1.389 . S
C256 H229 0.950 . S
C256 C242 1.377 . S
C256 C255 1.373 . S
C257 C241 1.377 . S
C257 C255 1.389 . S
C257 C258 1.524 . S
C258 C257 1.524 . S
C258 C259 1.397 . S
C258 C263 1.363 . S
C259 H230 0.950 . S
C259 C258 1.397 . S
C259 C260 1.334 . S
C260 H231 0.950 . S
C260 C259 1.334 . S
C260 C261 1.287 . S
C261 C260 1.287 . S
C261 C262 1.524 . S
C261 H264 0.999 . S
C262 H232 0.950 . S
C262 C261 1.524 . S
C262 C263 1.415 . S
C263 H233 0.950 . S
C263 C258 1.363 . S
C263 C262 1.415 . S
H264 C261 0.999 . S
H265 C246 0.913 . S
H266 C284 0.951 . S
H267 C286 0.951 . S
H268 C288 0.950 . S
H269 C289 0.950 . S
H270 C291 0.950 . S
H271 C294 0.950 . S
H272 C295 0.950 . S
H273 C297 0.950 . S
H274 C298 0.950 . S
H275 C299 0.951 . S
H276 C301 0.951 . S
H277 C303 0.950 . S
H278 C304 0.950 . S
H279 C306 0.950 . S
H280 C309 0.950 . S
H281 C310 0.950 . S
H282 C312 0.950 . S
H283 C313 0.950 . S
C284 H266 0.951 . S
C284 C285 1.366 . S
C284 C286 1.388 . S
C285 C284 1.366 . S
C285 C289 1.385 . S
C286 H267 0.951 . S
C286 C284 1.388 . S
C286 C287 1.366 . S
C287 C286 1.366 . S
C287 C288 1.414 . S
C287 C290 1.499 . S
C288 H268 0.950 . S
C288 C287 1.414 . S
C288 C289 1.374 . S
C289 H269 0.950 . S
C289 C285 1.385 . S
C289 C288 1.374 . S
C290 C287 1.499 . S
C290 C291 1.373 . S
C290 C292 1.389 . S
C291 H270 0.950 . S
C291 C290 1.373 . S
C291 C307 1.377 . S
C292 C290 1.389 . S
C292 C293 1.524 . S
C292 C306 1.377 . S
C293 C292 1.524 . S
C293 C294 1.397 . S
C293 C298 1.363 . S
C294 H271 0.950 . S
C294 C293 1.397 . S
C294 C295 1.334 . S
C295 H272 0.950 . S
C295 C294 1.334 . S
C295 C296 1.287 . S
C296 C295 1.287 . S
C296 C297 1.524 . S
C296 H315 0.913 . S
C297 H273 0.950 . S
C297 C296 1.524 . S
C297 C298 1.415 . S
C298 H274 0.950 . S
C298 C293 1.363 . S
C298 C297 1.415 . S
C299 H275 0.951 . S
C299 C300 1.366 . S
C299 C301 1.388 . S
C300 C299 1.366 . S
C300 C304 1.385 . S
C301 H276 0.951 . S
C301 C299 1.388 . S
C301 C302 1.366 . S
C302 C301 1.366 . S
C302 C303 1.414 . S
C302 C305 1.499 . S
C303 H277 0.950 . S
C303 C302 1.414 . S
C303 C304 1.374 . S
C304 H278 0.950 . S
C304 C300 1.385 . S
C304 C303 1.374 . S
C305 C302 1.499 . S
C305 C306 1.373 . S
C305 C307 1.389 . S
C306 H279 0.950 . S
C306 C292 1.377 . S
C306 C305 1.373 . S
C307 C291 1.377 . S
C307 C305 1.389 . S
C307 C308 1.524 . S
C308 C307 1.524 . S
C308 C309 1.397 . S
C308 C313 1.363 . S
C309 H280 0.950 . S
C309 C308 1.397 . S
C309 C310 1.334 . S
C310 H281 0.950 . S
C310 C309 1.334 . S
C310 C311 1.287 . S
C311 C310 1.287 . S
C311 C312 1.524 . S
C311 H314 0.999 . S
C312 H282 0.950 . S
C312 C311 1.524 . S
C312 C313 1.415 . S
C313 H283 0.950 . S
C313 C308 1.363 . S
C313 C312 1.415 . S
H314 C311 0.999 . S
H315 C296 0.913 . S
C85 C17 1.499 . S
C100 C61 1.500 . S
C135 C50 1.499 . S
C150 C28 1.500 . S
C185 C8 1.501 . S
C200 C41 1.501 . S
C235 N14 1.456 . S
C250 N5 1.460 . S
C285 N47 1.456 . S
C300 N38 1.461 . S
