# Generated by pormake.
# Topology ukb, (4)-cn, num edge types: 1
# Building blocks:
#     Node 0, Type 0, BuildingBlock: QUQFOY_clean_sbu_1, # of connection points: 4
#     Node 1, Type 0, BuildingBlock: QUQFOY_clean_sbu_1, # of connection points: 4
#     Node 2, Type 0, BuildingBlock: QUQFOY_clean_sbu_1, # of connection points: 4
#     Node 3, Type 0, BuildingBlock: QUQFOY_clean_sbu_1, # of connection points: 4
#     Node 4, Type 0, BuildingBlock: QUQFOY_clean_sbu_1, # of connection points: 4
#     Node 5, Type 0, BuildingBlock: QUQFOY_clean_sbu_1, # of connection points: 4
#     Node 6, Type 0, BuildingBlock: QUQFOY_clean_sbu_1, # of connection points: 4
#     Node 7, Type 0, BuildingBlock: QUQFOY_clean_sbu_1, # of connection points: 4
#     Node 8, Type 0, BuildingBlock: QUQFOY_clean_sbu_1, # of connection points: 4
#     Node 9, Type 0, BuildingBlock: QUQFOY_clean_sbu_1, # of connection points: 4
#     Node 10, Type 0, BuildingBlock: QUQFOY_clean_sbu_1, # of connection points: 4
#     Node 11, Type 0, BuildingBlock: QUQFOY_clean_sbu_1, # of connection points: 4
#     Node 12, Type 0, BuildingBlock: QUQFOY_clean_sbu_1, # of connection points: 4
#     Node 13, Type 0, BuildingBlock: QUQFOY_clean_sbu_1, # of connection points: 4
#     Node 14, Type 0, BuildingBlock: QUQFOY_clean_sbu_1, # of connection points: 4
#     Node 15, Type 0, BuildingBlock: QUQFOY_clean_sbu_1, # of connection points: 4
#     Edge 16, Type (0, 0), BuildingBlock: OJICUG_clean_linker_0, # of connection points: 2
#     Edge 17, Type (0, 0), BuildingBlock: OJICUG_clean_linker_0, # of connection points: 2
#     Edge 18, Type (0, 0), BuildingBlock: OJICUG_clean_linker_0, # of connection points: 2
#     Edge 19, Type (0, 0), BuildingBlock: OJICUG_clean_linker_0, # of connection points: 2
#     Edge 20, Type (0, 0), BuildingBlock: OJICUG_clean_linker_0, # of connection points: 2
#     Edge 21, Type (0, 0), BuildingBlock: OJICUG_clean_linker_0, # of connection points: 2
#     Edge 22, Type (0, 0), BuildingBlock: OJICUG_clean_linker_0, # of connection points: 2
#     Edge 23, Type (0, 0), BuildingBlock: OJICUG_clean_linker_0, # of connection points: 2
#     Edge 24, Type (0, 0), BuildingBlock: OJICUG_clean_linker_0, # of connection points: 2
#     Edge 25, Type (0, 0), BuildingBlock: OJICUG_clean_linker_0, # of connection points: 2
#     Edge 26, Type (0, 0), BuildingBlock: OJICUG_clean_linker_0, # of connection points: 2
#     Edge 27, Type (0, 0), BuildingBlock: OJICUG_clean_linker_0, # of connection points: 2
#     Edge 28, Type (0, 0), BuildingBlock: OJICUG_clean_linker_0, # of connection points: 2
#     Edge 29, Type (0, 0), BuildingBlock: OJICUG_clean_linker_0, # of connection points: 2
#     Edge 30, Type (0, 0), BuildingBlock: OJICUG_clean_linker_0, # of connection points: 2
#     Edge 31, Type (0, 0), BuildingBlock: OJICUG_clean_linker_0, # of connection points: 2
#     Edge 32, Type (0, 0), BuildingBlock: OJICUG_clean_linker_0, # of connection points: 2
#     Edge 33, Type (0, 0), BuildingBlock: OJICUG_clean_linker_0, # of connection points: 2
#     Edge 34, Type (0, 0), BuildingBlock: OJICUG_clean_linker_0, # of connection points: 2
#     Edge 35, Type (0, 0), BuildingBlock: OJICUG_clean_linker_0, # of connection points: 2
#     Edge 36, Type (0, 0), BuildingBlock: OJICUG_clean_linker_0, # of connection points: 2
#     Edge 37, Type (0, 0), BuildingBlock: OJICUG_clean_linker_0, # of connection points: 2
#     Edge 38, Type (0, 0), BuildingBlock: OJICUG_clean_linker_0, # of connection points: 2
#     Edge 39, Type (0, 0), BuildingBlock: OJICUG_clean_linker_0, # of connection points: 2
#     Edge 40, Type (0, 0), BuildingBlock: OJICUG_clean_linker_0, # of connection points: 2
#     Edge 41, Type (0, 0), BuildingBlock: OJICUG_clean_linker_0, # of connection points: 2
#     Edge 42, Type (0, 0), BuildingBlock: OJICUG_clean_linker_0, # of connection points: 2
#     Edge 43, Type (0, 0), BuildingBlock: OJICUG_clean_linker_0, # of connection points: 2
#     Edge 44, Type (0, 0), BuildingBlock: OJICUG_clean_linker_0, # of connection points: 2
#     Edge 45, Type (0, 0), BuildingBlock: OJICUG_clean_linker_0, # of connection points: 2
#     Edge 46, Type (0, 0), BuildingBlock: OJICUG_clean_linker_0, # of connection points: 2
#     Edge 47, Type (0, 0), BuildingBlock: OJICUG_clean_linker_0, # of connection points: 2
# Relax obj value: 0.038
# Max RMSD: 0.065
# Mean RMSD: 0.065
data_MOF--net-ukb--node1-QUQFOY_clean_sbu_1--edge1-OJICUG_clean_linker_0
_symmetry_space_group_name_H-M    P1
_symmetry_Int_Tables_number       1
_symmetry_cell_setting            triclinic
loop_
_symmetry_equiv_pos_as_xyz
'x, y, z'
_cell_length_a     33.766346
_cell_length_b     33.766841
_cell_length_c     31.795655
_cell_angle_alpha  90.002642
_cell_angle_beta   89.994489
_cell_angle_gamma 90.016267
loop_
_atom_site_label
_atom_site_type_symbol
_atom_site_fract_x
_atom_site_fract_y
_atom_site_fract_z
_atom_type_partial_charge
O0 O 0.57323 0.26344 0.20519 0.0
Cd1 Cd 0.56632 0.2126 0.16979 0.0
Cd2 Cd 0.52493 0.19495 0.24622 0.0
O3 O 0.53759 0.25285 0.26245 0.0
O4 O 0.59585 0.22863 0.11806 0.0
O5 O 0.53188 0.21612 0.11724 0.0
C6 C 0.5632 0.22743 0.09731 0.0
C7 C 0.46242 0.16587 0.25259 0.0
C8 C 0.5598 0.2751 0.24044 0.0
C9 C 0.59677 0.14565 0.22427 0.0
O10 O 0.5712 0.15585 0.25151 0.0
O11 O 0.59788 0.16257 0.18849 0.0
O12 O 0.48349 0.17422 0.28525 0.0
O13 O 0.47592 0.17634 0.21617 0.0
O14 O 0.3525 0.57132 0.75133 0.0
Cd15 Cd 0.31344 0.525 0.74603 0.0
Cd16 Cd 0.29572 0.56643 0.66964 0.0
O17 O 0.34571 0.59808 0.68835 0.0
O18 O 0.3342 0.4836 0.78507 0.0
O19 O 0.33208 0.47599 0.716 0.0
C20 C 0.34255 0.46251 0.75242 0.0
C21 C 0.28087 0.56329 0.59716 0.0
C22 C 0.36265 0.59695 0.72412 0.0
C23 C 0.23325 0.55978 0.74031 0.0
O24 O 0.24489 0.57324 0.70507 0.0
O25 O 0.25553 0.53759 0.76229 0.0
O26 O 0.27964 0.59593 0.61792 0.0
O27 O 0.29224 0.53199 0.61709 0.0
O28 O 0.93508 0.24485 0.20486 0.0
Cd29 Cd 0.94201 0.2957 0.1695 0.0
Cd30 Cd 0.98344 0.3133 0.24586 0.0
O31 O 0.97079 0.2554 0.26206 0.0
O32 O 0.91252 0.27973 0.11773 0.0
O33 O 0.97649 0.29225 0.11697 0.0
C34 C 0.94518 0.28095 0.097 0.0
C35 C 0.04596 0.34238 0.2522 0.0
C36 C 0.94854 0.23316 0.24008 0.0
C37 C 0.91158 0.36261 0.22405 0.0
O38 O 0.93718 0.3524 0.25125 0.0
O39 O 0.91044 0.34572 0.18825 0.0
O40 O 0.02491 0.334 0.28487 0.0
O41 O 0.03243 0.33194 0.21578 0.0
O42 O 0.15601 0.93731 0.75155 0.0
Cd43 Cd 0.1951 0.98362 0.74626 0.0
Cd44 Cd 0.21286 0.94222 0.66987 0.0
O45 O 0.16285 0.91057 0.68857 0.0
O46 O 0.1743 0.02509 0.78521 0.0
O47 O 0.17651 0.03258 0.71612 0.0
C48 C 0.166 0.04612 0.7525 0.0
C49 C 0.22772 0.94527 0.59739 0.0
C50 C 0.14588 0.91169 0.72433 0.0
C51 C 0.27528 0.94885 0.74058 0.0
O52 O 0.26367 0.93542 0.70532 0.0
O53 O 0.25298 0.97102 0.76256 0.0
O54 O 0.22895 0.91266 0.61819 0.0
O55 O 0.21635 0.97659 0.61728 0.0
O56 O 0.57319 0.24496 0.8161 0.0
Cd57 Cd 0.56637 0.2958 0.85151 0.0
Cd58 Cd 0.52491 0.31348 0.77517 0.0
O59 O 0.53748 0.25557 0.75893 0.0
O60 O 0.59588 0.27976 0.90324 0.0
O61 O 0.53194 0.29234 0.90407 0.0
C62 C 0.56324 0.28099 0.924 0.0
C63 C 0.46243 0.34261 0.76883 0.0
C64 C 0.5597 0.23331 0.78088 0.0
C65 C 0.59688 0.3627 0.79697 0.0
O66 O 0.57124 0.35253 0.76978 0.0
O67 O 0.59802 0.34579 0.83276 0.0
O68 O 0.48348 0.33424 0.73616 0.0
O69 O 0.47594 0.33216 0.80524 0.0
O70 O 0.15584 0.57114 0.26959 0.0
Cd71 Cd 0.19491 0.52485 0.27495 0.0
Cd72 Cd 0.21254 0.56629 0.35136 0.0
O73 O 0.16254 0.59788 0.33259 0.0
O74 O 0.1742 0.4834 0.23593 0.0
O75 O 0.17626 0.47586 0.30502 0.0
C76 C 0.16583 0.46233 0.2686 0.0
C77 C 0.22732 0.5632 0.42385 0.0
C78 C 0.14565 0.59675 0.2968 0.0
C79 C 0.27508 0.55969 0.28076 0.0
O80 O 0.2634 0.57315 0.31599 0.0
O81 O 0.25283 0.53747 0.25876 0.0
O82 O 0.22854 0.59583 0.40309 0.0
O83 O 0.216 0.53188 0.40393 0.0
O84 O 0.93539 0.26366 0.81578 0.0
Cd85 Cd 0.94221 0.2128 0.85114 0.0
Cd86 Cd 0.98361 0.19516 0.77475 0.0
O87 O 0.97105 0.25308 0.75854 0.0
O88 O 0.91266 0.22881 0.90285 0.0
O89 O 0.97661 0.21623 0.90372 0.0
C90 C 0.94529 0.22756 0.92363 0.0
C91 C 0.0461 0.16604 0.76856 0.0
C92 C 0.94885 0.27534 0.78055 0.0
C93 C 0.91166 0.14593 0.79656 0.0
O94 O 0.93728 0.15612 0.76935 0.0
O95 O 0.91056 0.16282 0.83236 0.0
O96 O 0.02512 0.1744 0.73584 0.0
O97 O 0.03252 0.17651 0.80494 0.0
O98 O 0.35259 0.93708 0.26978 0.0
Cd99 Cd 0.3135 0.98336 0.2752 0.0
Cd100 Cd 0.29589 0.94193 0.35154 0.0
O101 O 0.34588 0.91032 0.33277 0.0
O102 O 0.33421 0.02485 0.23623 0.0
O103 O 0.33214 0.03233 0.30532 0.0
C104 C 0.34257 0.04589 0.26892 0.0
C105 C 0.28116 0.94511 0.42403 0.0
C106 C 0.36278 0.91146 0.29698 0.0
C107 C 0.23334 0.9485 0.28097 0.0
O108 O 0.24502 0.93503 0.31619 0.0
O109 O 0.25559 0.97073 0.25899 0.0
O110 O 0.27991 0.91245 0.40332 0.0
O111 O 0.29246 0.97641 0.40405 0.0
O112 O 0.43723 0.85262 0.76982 0.0
Cd113 Cd 0.48352 0.81353 0.77506 0.0
Cd114 Cd 0.44209 0.79575 0.85146 0.0
O115 O 0.41047 0.84576 0.83279 0.0
O116 O 0.52492 0.83432 0.73601 0.0
O117 O 0.53256 0.83214 0.80508 0.0
C118 C 0.54603 0.84264 0.76866 0.0
C119 C 0.44521 0.78087 0.92393 0.0
C120 C 0.41161 0.86274 0.79705 0.0
C121 C 0.44869 0.73334 0.78072 0.0
O122 O 0.43526 0.74494 0.81599 0.0
O123 O 0.47088 0.75565 0.75875 0.0
O124 O 0.41257 0.77964 0.90317 0.0
O125 O 0.47652 0.79224 0.90401 0.0
O126 O 0.65605 0.43715 0.26963 0.0
Cd127 Cd 0.6951 0.48348 0.27495 0.0
Cd128 Cd 0.71281 0.4421 0.35134 0.0
O129 O 0.66283 0.41044 0.33263 0.0
O130 O 0.67432 0.52491 0.23596 0.0
O131 O 0.67645 0.53245 0.30505 0.0
C132 C 0.66597 0.54596 0.26865 0.0
C133 C 0.72762 0.44524 0.42382 0.0
C134 C 0.6459 0.41154 0.29685 0.0
C135 C 0.77529 0.44873 0.28067 0.0
O136 O 0.76365 0.43528 0.31592 0.0
O137 O 0.753 0.47091 0.25869 0.0
O138 O 0.72887 0.4126 0.40306 0.0
O139 O 0.71627 0.47654 0.40389 0.0
O140 O 0.07128 0.656 0.76964 0.0
Cd141 Cd 0.02499 0.69508 0.77497 0.0
Cd142 Cd 0.0664 0.71276 0.85137 0.0
O143 O 0.09802 0.66277 0.83263 0.0
O144 O 0.98354 0.67433 0.73598 0.0
O145 O 0.976 0.67646 0.80506 0.0
C146 C 0.96248 0.66599 0.76865 0.0
C147 C 0.06328 0.72756 0.92385 0.0
C148 C 0.09689 0.64584 0.79685 0.0
C149 C 0.05981 0.77526 0.78074 0.0
O150 O 0.07325 0.76361 0.81598 0.0
O151 O 0.03762 0.75298 0.75874 0.0
O152 O 0.09592 0.7288 0.9031 0.0
O153 O 0.03197 0.71621 0.90393 0.0
O154 O 0.85232 0.07111 0.26946 0.0
Cd155 Cd 0.81329 0.02477 0.27486 0.0
Cd156 Cd 0.79564 0.06622 0.35125 0.0
O157 O 0.84562 0.09786 0.33246 0.0
O158 O 0.83406 0.98331 0.23588 0.0
O159 O 0.83199 0.97583 0.30497 0.0
C160 C 0.84245 0.9623 0.26857 0.0
C161 C 0.78084 0.06318 0.42374 0.0
C162 C 0.8625 0.09674 0.29665 0.0
C163 C 0.73311 0.05951 0.28066 0.0
O164 O 0.74478 0.073 0.31587 0.0
O165 O 0.75537 0.03731 0.25866 0.0
O166 O 0.7796 0.09579 0.40294 0.0
O167 O 0.79219 0.03185 0.40386 0.0
O168 O 0.43718 0.65584 0.25148 0.0
Cd169 Cd 0.48351 0.69489 0.24611 0.0
Cd170 Cd 0.4421 0.71258 0.16974 0.0
O171 O 0.41045 0.6626 0.18849 0.0
O172 O 0.52497 0.67414 0.28508 0.0
O173 O 0.53247 0.67624 0.21599 0.0
C174 C 0.54601 0.66579 0.25239 0.0
C175 C 0.44521 0.72736 0.09725 0.0
C176 C 0.41156 0.64568 0.22428 0.0
C177 C 0.44876 0.77508 0.24037 0.0
O178 O 0.43529 0.76343 0.20513 0.0
O179 O 0.47095 0.7528 0.26234 0.0
O180 O 0.41258 0.72861 0.11802 0.0
O181 O 0.47652 0.71602 0.11718 0.0
O182 O 0.85257 0.43729 0.75138 0.0
Cd183 Cd 0.81347 0.48356 0.74605 0.0
Cd184 Cd 0.79578 0.44215 0.66968 0.0
O185 O 0.8458 0.41056 0.68838 0.0
O186 O 0.83421 0.52502 0.78504 0.0
O187 O 0.83208 0.53255 0.71596 0.0
C188 C 0.84255 0.54608 0.75236 0.0
C189 C 0.78099 0.44527 0.59719 0.0
C190 C 0.86273 0.41169 0.72415 0.0
C191 C 0.7333 0.44871 0.74034 0.0
O192 O 0.74494 0.43527 0.70509 0.0
O193 O 0.75557 0.47092 0.76232 0.0
O194 O 0.77975 0.41263 0.61794 0.0
O195 O 0.79231 0.47659 0.61713 0.0
O196 O 0.07125 0.85236 0.25152 0.0
Cd197 Cd 0.02491 0.81333 0.24608 0.0
Cd198 Cd 0.06637 0.7957 0.16972 0.0
O199 O 0.09802 0.84566 0.18854 0.0
O200 O 0.98342 0.83407 0.28503 0.0
O201 O 0.97598 0.83202 0.21594 0.0
C202 C 0.96242 0.84246 0.25233 0.0
C203 C 0.06326 0.78097 0.09722 0.0
C204 C 0.09689 0.86254 0.22434 0.0
C205 C 0.05966 0.73315 0.24028 0.0
O206 O 0.07316 0.74482 0.20507 0.0
O207 O 0.03745 0.7554 0.26226 0.0
O208 O 0.09589 0.77971 0.11799 0.0
O209 O 0.03196 0.7923 0.11715 0.0
O210 O 0.65596 0.07137 0.75138 0.0
Cd211 Cd 0.69502 0.02508 0.74594 0.0
Cd212 Cd 0.71259 0.06653 0.66958 0.0
O213 O 0.6626 0.09812 0.68838 0.0
O214 O 0.67432 0.9836 0.78494 0.0
O215 O 0.67635 0.97612 0.71584 0.0
C216 C 0.66593 0.96257 0.75225 0.0
C217 C 0.72733 0.06335 0.59708 0.0
C218 C 0.64574 0.09698 0.72419 0.0
C219 C 0.77518 0.05994 0.7401 0.0
O220 O 0.76347 0.07342 0.7049 0.0
O221 O 0.75295 0.03769 0.7621 0.0
O222 O 0.72856 0.09601 0.6178 0.0
O223 O 0.71602 0.03205 0.61706 0.0
C224 C 0.40806 0.12494 0.22085 0.0
C225 C 0.42634 0.14106 0.25667 0.0
H226 H 0.36692 0.08243 0.19662 0.0
C227 C 0.41275 0.12937 0.29664 0.0
H228 H 0.4177 0.13335 0.18961 0.0
C229 C 0.38351 0.10022 0.30069 0.0
C230 C 0.36735 0.08199 0.26486 0.0
H231 H 0.42602 0.14137 0.32492 0.0
H232 H 0.37517 0.09052 0.33193 0.0
C233 C 0.37895 0.09566 0.2249 0.0
C234 C 0.38348 0.40815 0.72071 0.0
C235 C 0.36736 0.42644 0.75652 0.0
H236 H 0.42596 0.36698 0.69651 0.0
C237 C 0.37901 0.41286 0.79649 0.0
H238 H 0.3751 0.41779 0.68946 0.0
C239 C 0.40813 0.38361 0.80057 0.0
C240 C 0.42636 0.36743 0.76475 0.0
H241 H 0.36701 0.42614 0.82476 0.0
H242 H 0.4178 0.37527 0.83181 0.0
C243 C 0.41273 0.37902 0.72478 0.0
C244 C 0.10029 0.38335 0.22047 0.0
C245 C 0.08205 0.36719 0.25628 0.0
H246 H 0.14142 0.42589 0.19626 0.0
C247 C 0.09566 0.37881 0.29625 0.0
H248 H 0.09063 0.37499 0.18922 0.0
C249 C 0.12491 0.40795 0.30032 0.0
C250 C 0.14104 0.42624 0.26451 0.0
H251 H 0.08242 0.36678 0.32453 0.0
H252 H 0.13327 0.41761 0.33157 0.0
C253 C 0.12941 0.41262 0.22453 0.0
C254 C 0.12513 0.10045 0.72065 0.0
C255 C 0.14119 0.0822 0.75652 0.0
H256 H 0.08268 0.14158 0.69632 0.0
C257 C 0.12948 0.09584 0.79645 0.0
H258 H 0.13355 0.09077 0.68943 0.0
C259 C 0.10036 0.1251 0.80044 0.0
C260 C 0.08218 0.14123 0.76457 0.0
H261 H 0.14143 0.0826 0.82476 0.0
H262 H 0.09063 0.13348 0.83166 0.0
C263 C 0.09588 0.12958 0.72464 0.0
C264 C 0.59567 0.87913 0.72458 0.0
C265 C 0.58211 0.86745 0.76455 0.0
H266 H 0.63325 0.91796 0.68926 0.0
C267 C 0.60042 0.88356 0.80037 0.0
H268 H 0.58238 0.86714 0.69631 0.0
C269 C 0.62954 0.91282 0.7963 0.0
C270 C 0.64113 0.92648 0.75633 0.0
H271 H 0.59079 0.87515 0.83162 0.0
H272 H 0.6416 0.92604 0.82457 0.0
C273 C 0.62493 0.90826 0.72051 0.0
C274 C 0.60033 0.62487 0.2206 0.0
C275 C 0.5821 0.641 0.25644 0.0
H276 H 0.64148 0.58239 0.19634 0.0
C277 C 0.59574 0.62937 0.29639 0.0
H278 H 0.59064 0.63323 0.18937 0.0
C279 C 0.62501 0.60026 0.30043 0.0
C280 C 0.64114 0.58202 0.26459 0.0
H281 H 0.5825 0.64137 0.32468 0.0
H282 H 0.6334 0.5906 0.33166 0.0
C283 C 0.62948 0.59563 0.22463 0.0
C284 C 0.91276 0.62954 0.72463 0.0
C285 C 0.92638 0.64119 0.76459 0.0
H286 H 0.87513 0.59073 0.68935 0.0
C287 C 0.90812 0.62507 0.80042 0.0
H288 H 0.92602 0.64154 0.69635 0.0
C289 C 0.87899 0.59581 0.79638 0.0
C290 C 0.86735 0.58217 0.75642 0.0
H291 H 0.91779 0.63345 0.83166 0.0
H292 H 0.86697 0.58257 0.82466 0.0
C293 C 0.8835 0.60041 0.72059 0.0
C294 C 0.87897 0.91262 0.22456 0.0
C295 C 0.86729 0.92624 0.26452 0.0
H296 H 0.9178 0.87502 0.1893 0.0
C297 C 0.88341 0.90801 0.30036 0.0
H298 H 0.86697 0.92586 0.19627 0.0
C299 C 0.91268 0.8789 0.29633 0.0
C300 C 0.92634 0.86726 0.25638 0.0
H301 H 0.87501 0.91767 0.33159 0.0
H302 H 0.92591 0.8669 0.32462 0.0
C303 C 0.90811 0.88339 0.22054 0.0
C304 C 0.58448 0.34359 0.22863 0.0
C305 C 0.57402 0.31347 0.25693 0.0
H306 H 0.6144 0.39849 0.21918 0.0
C307 C 0.58285 0.31828 0.29982 0.0
H308 H 0.57786 0.34073 0.19542 0.0
C309 C 0.60461 0.35125 0.31353 0.0
C310 C 0.61728 0.38018 0.28463 0.0
H311 H 0.57532 0.29534 0.32226 0.0
H312 H 0.61295 0.35315 0.34636 0.0
C313 C 0.6055 0.37672 0.24235 0.0
C314 C 0.19014 0.58282 0.79974 0.0
C315 C 0.1949 0.57397 0.75684 0.0
H316 H 0.15533 0.61294 0.84631 0.0
C317 C 0.16473 0.58437 0.72858 0.0
H318 H 0.2131 0.57532 0.82215 0.0
C319 C 0.13163 0.60539 0.74233 0.0
C320 C 0.12822 0.61721 0.78461 0.0
H321 H 0.16756 0.57774 0.69537 0.0
H322 H 0.10983 0.61426 0.71919 0.0
C323 C 0.15718 0.60457 0.81348 0.0
C324 C 0.90278 0.13158 0.24205 0.0
C325 C 0.89109 0.12809 0.28436 0.0
H326 H 0.93032 0.16756 0.19506 0.0
C327 C 0.90385 0.15701 0.31325 0.0
H328 H 0.89381 0.10981 0.2189 0.0
C329 C 0.92559 0.18998 0.29949 0.0
C330 C 0.93432 0.1948 0.25657 0.0
H331 H 0.89558 0.1551 0.3461 0.0
H332 H 0.93318 0.2129 0.32193 0.0
C333 C 0.92378 0.16469 0.22829 0.0
C334 C 0.31835 0.92573 0.8 0.0
C335 C 0.31363 0.93467 0.75712 0.0
H336 H 0.35311 0.89552 0.84653 0.0
C337 C 0.34382 0.92433 0.72886 0.0
H338 H 0.29535 0.93317 0.8224 0.0
C339 C 0.37692 0.9033 0.74259 0.0
C340 C 0.38029 0.89139 0.78484 0.0
H341 H 0.34103 0.93103 0.69566 0.0
H342 H 0.39875 0.89448 0.71945 0.0
C343 C 0.35129 0.90397 0.81372 0.0
C344 C 0.58264 0.19018 0.72142 0.0
C345 C 0.57389 0.19496 0.76434 0.0
H346 H 0.61267 0.15537 0.67479 0.0
C347 C 0.5844 0.16482 0.79259 0.0
H348 H 0.57507 0.21312 0.69901 0.0
C349 C 0.60541 0.13172 0.7788 0.0
C350 C 0.61712 0.12829 0.7365 0.0
H351 H 0.57784 0.16765 0.82582 0.0
H352 H 0.61435 0.10994 0.80193 0.0
C353 C 0.60438 0.15723 0.70764 0.0
C354 C 0.35127 0.60437 0.20764 0.0
C355 C 0.3802 0.61709 0.23654 0.0
H356 H 0.29537 0.57509 0.19892 0.0
C357 C 0.37671 0.60536 0.27883 0.0
H358 H 0.35319 0.61267 0.1748 0.0
C359 C 0.34357 0.58436 0.29257 0.0
C360 C 0.31346 0.57388 0.26427 0.0
H361 H 0.39847 0.61429 0.30199 0.0
H362 H 0.34069 0.5778 0.32579 0.0
C363 C 0.31829 0.58264 0.22137 0.0
C364 C 0.90319 0.37693 0.77864 0.0
C365 C 0.89138 0.38038 0.73637 0.0
H366 H 0.93085 0.34098 0.82557 0.0
C367 C 0.90406 0.35145 0.70746 0.0
H368 H 0.89429 0.39871 0.8018 0.0
C369 C 0.92583 0.3185 0.72117 0.0
C370 C 0.93466 0.3137 0.76406 0.0
H371 H 0.89569 0.35333 0.67463 0.0
H372 H 0.93334 0.29556 0.69873 0.0
C373 C 0.92423 0.34383 0.79235 0.0
C374 C 0.13174 0.90278 0.27897 0.0
C375 C 0.12825 0.89112 0.23665 0.0
H376 H 0.16773 0.93028 0.32598 0.0
C377 C 0.15718 0.90387 0.20777 0.0
H378 H 0.10997 0.89381 0.30211 0.0
C379 C 0.19015 0.92559 0.22154 0.0
C380 C 0.19498 0.9343 0.26447 0.0
H381 H 0.15527 0.89562 0.17492 0.0
H382 H 0.21308 0.93319 0.19911 0.0
C383 C 0.16486 0.92376 0.29274 0.0
C384 C 0.40389 0.6573 0.70752 0.0
C385 C 0.39126 0.6283 0.73638 0.0
H386 H 0.43311 0.71325 0.69887 0.0
C387 C 0.4031 0.63169 0.77864 0.0
H388 H 0.3955 0.65546 0.6747 0.0
C389 C 0.42412 0.6648 0.79241 0.0
C390 C 0.4345 0.69499 0.76417 0.0
H391 H 0.39426 0.60986 0.80177 0.0
H392 H 0.43077 0.6676 0.82562 0.0
C393 C 0.42563 0.69026 0.72127 0.0
C394 C 0.85133 0.40396 0.20746 0.0
C395 C 0.88028 0.39125 0.23632 0.0
H396 H 0.79544 0.43326 0.19881 0.0
C397 C 0.87687 0.40304 0.27861 0.0
H398 H 0.85318 0.39562 0.17462 0.0
C399 C 0.84378 0.42407 0.29238 0.0
C400 C 0.81363 0.43453 0.26413 0.0
H401 H 0.89866 0.39413 0.30174 0.0
H402 H 0.84096 0.43067 0.3256 0.0
C403 C 0.8184 0.42572 0.22122 0.0
C404 C 0.08439 0.84378 0.79252 0.0
C405 C 0.074 0.81363 0.76424 0.0
H406 H 0.11427 0.8987 0.80196 0.0
C407 C 0.08287 0.81841 0.72135 0.0
H408 H 0.07774 0.84094 0.82573 0.0
C409 C 0.10463 0.85138 0.70764 0.0
C410 C 0.11725 0.88035 0.73654 0.0
H411 H 0.07539 0.79545 0.69892 0.0
H412 H 0.11302 0.85326 0.67482 0.0
C413 C 0.10541 0.87691 0.7788 0.0
C414 C 0.63151 0.10518 0.27875 0.0
C415 C 0.62807 0.11699 0.23648 0.0
H416 H 0.66746 0.0775 0.32567 0.0
C417 C 0.657 0.10431 0.20757 0.0
H418 H 0.60974 0.11407 0.30191 0.0
C419 C 0.68995 0.08254 0.22127 0.0
C420 C 0.69474 0.0737 0.26417 0.0
H421 H 0.65512 0.11268 0.17474 0.0
H422 H 0.71289 0.07502 0.19883 0.0
C423 C 0.66461 0.08413 0.29246 0.0
C424 C 0.42411 0.84358 0.22862 0.0
C425 C 0.43459 0.81344 0.25689 0.0
H426 H 0.39419 0.89847 0.21925 0.0
C427 C 0.42582 0.81824 0.2998 0.0
H428 H 0.43068 0.84073 0.1954 0.0
C429 C 0.40409 0.8512 0.31357 0.0
C430 C 0.39138 0.88014 0.28469 0.0
H431 H 0.43337 0.7953 0.32222 0.0
H432 H 0.39579 0.85308 0.34641 0.0
C433 C 0.40312 0.87669 0.24239 0.0
C434 C 0.6648 0.42403 0.72861 0.0
C435 C 0.69494 0.43451 0.75687 0.0
H436 H 0.60989 0.39411 0.71925 0.0
C437 C 0.69016 0.42573 0.79978 0.0
H438 H 0.66764 0.4306 0.69539 0.0
C439 C 0.65719 0.404 0.81355 0.0
C440 C 0.62823 0.39129 0.78468 0.0
H441 H 0.71311 0.43328 0.8222 0.0
H442 H 0.65531 0.39569 0.84639 0.0
C443 C 0.63168 0.40303 0.74239 0.0
C444 C 0.10531 0.63154 0.24224 0.0
C445 C 0.11704 0.62807 0.28454 0.0
H446 H 0.07775 0.66752 0.19527 0.0
C447 C 0.10431 0.657 0.31343 0.0
H448 H 0.11424 0.60977 0.21909 0.0
C449 C 0.08258 0.68996 0.29969 0.0
C450 C 0.07383 0.69478 0.25678 0.0
H451 H 0.11261 0.6551 0.34627 0.0
H452 H 0.07502 0.71289 0.32212 0.0
C453 C 0.08431 0.66465 0.22849 0.0
C454 C 0.8514 0.10459 0.81321 0.0
C455 C 0.8803 0.11734 0.7843 0.0
H456 H 0.79551 0.07528 0.82194 0.0
C457 C 0.87679 0.10566 0.74199 0.0
H458 H 0.85334 0.11286 0.84606 0.0
C459 C 0.84365 0.08466 0.72826 0.0
C460 C 0.81356 0.07413 0.75657 0.0
H461 H 0.89854 0.11461 0.71882 0.0
H462 H 0.84075 0.07812 0.69503 0.0
C463 C 0.81842 0.08286 0.79948 0.0
C464 C 0.52631 0.24722 0.03146 0.0
C465 C 0.56223 0.24023 0.05266 0.0
H466 H 0.49829 0.26625 0.9742 0.0
C467 C 0.59798 0.24738 0.03136 0.0
H468 H 0.49827 0.24226 0.04713 0.0
C469 C 0.59799 0.26101 0.98994 0.0
C470 C 0.56225 0.2682 0.96864 0.0
H471 H 0.6262 0.24244 0.04668 0.0
H472 H 0.62622 0.26593 0.97461 0.0
C473 C 0.52632 0.26126 0.98985 0.0
C474 C 0.24722 0.59799 0.48981 0.0
C475 C 0.24009 0.56223 0.46851 0.0
H476 H 0.26575 0.62625 0.54655 0.0
C477 C 0.2471 0.52633 0.48971 0.0
H478 H 0.24226 0.62621 0.47448 0.0
C479 C 0.26114 0.52635 0.53132 0.0
C480 C 0.26806 0.56228 0.55252 0.0
H481 H 0.24215 0.49828 0.47405 0.0
H482 H 0.26615 0.49832 0.54698 0.0
C483 C 0.26085 0.59801 0.53122 0.0
C484 C 0.98213 0.26123 0.03116 0.0
C485 C 0.9462 0.2682 0.05234 0.0
H486 H 0.0102 0.24225 0.9739 0.0
C487 C 0.91046 0.26108 0.031 0.0
H488 H 0.01016 0.26617 0.04686 0.0
C489 C 0.91049 0.2475 0.98957 0.0
C490 C 0.94625 0.24032 0.96829 0.0
H491 H 0.88223 0.26602 0.0463 0.0
H492 H 0.88227 0.2426 0.97421 0.0
C493 C 0.98215 0.24723 0.98954 0.0
C494 C 0.26142 0.98208 0.48985 0.0
C495 C 0.26842 0.94614 0.4687 0.0
H496 H 0.2424 0.01017 0.5471 0.0
C497 C 0.26132 0.91042 0.49007 0.0
H498 H 0.26635 0.01011 0.47414 0.0
C499 C 0.24772 0.91045 0.53149 0.0
C500 C 0.24051 0.94622 0.55274 0.0
H501 H 0.26628 0.88218 0.47478 0.0
H502 H 0.24284 0.88224 0.54687 0.0
C503 C 0.24741 0.98212 0.53148 0.0
C504 C 0.41045 0.76086 0.98987 0.0
C505 C 0.4462 0.76807 0.96857 0.0
H506 H 0.38223 0.7423 0.04661 0.0
C507 C 0.48212 0.76114 0.98978 0.0
H508 H 0.38223 0.76577 0.97454 0.0
C509 C 0.48212 0.74711 0.03139 0.0
C510 C 0.4462 0.74012 0.0526 0.0
H511 H 0.51016 0.76614 0.97412 0.0
H512 H 0.51016 0.74216 0.04706 0.0
C513 C 0.41045 0.74725 0.03129 0.0
C514 C 0.76112 0.4105 0.53121 0.0
C515 C 0.76824 0.44626 0.55253 0.0
H516 H 0.74265 0.38227 0.47445 0.0
C517 C 0.76128 0.48217 0.53132 0.0
H518 H 0.76605 0.38228 0.54654 0.0
C519 C 0.74729 0.48216 0.4897 0.0
C520 C 0.74037 0.44624 0.46848 0.0
H521 H 0.76622 0.51021 0.547 0.0
H522 H 0.74231 0.5102 0.47403 0.0
C523 C 0.74754 0.4105 0.48978 0.0
C524 C 0.09803 0.76109 0.03125 0.0
C525 C 0.06228 0.76823 0.05256 0.0
H526 H 0.12626 0.7426 0.97448 0.0
C527 C 0.02637 0.76127 0.03135 0.0
H528 H 0.12625 0.76602 0.04657 0.0
C529 C 0.02637 0.74726 0.98972 0.0
C530 C 0.06229 0.74033 0.96851 0.0
H531 H 0.99832 0.76622 0.04702 0.0
H532 H 0.99833 0.74229 0.97406 0.0
C533 C 0.09803 0.7475 0.98982 0.0
C534 C 0.74709 0.02638 0.53127 0.0
C535 C 0.7401 0.06232 0.55242 0.0
H536 H 0.76611 0.99828 0.47403 0.0
C537 C 0.74723 0.09805 0.53107 0.0
H538 H 0.74214 0.99836 0.54697 0.0
C539 C 0.76085 0.09801 0.48965 0.0
C540 C 0.76805 0.06224 0.4684 0.0
H541 H 0.74228 0.12629 0.54635 0.0
H542 H 0.76575 0.12622 0.47428 0.0
C543 C 0.76112 0.02634 0.48965 0.0
loop_
_geom_bond_atom_site_label_1
_geom_bond_atom_site_label_2
_geom_bond_distance
_geom_bond_site_symmetry_2
_ccdc_geom_bond_type
O0 Cd1 2.223 . S
O0 C8 1.315 . S
Cd1 O0 2.223 . S
Cd1 O4 2.297 . S
Cd1 O5 2.439 . S
Cd1 O11 2.240 . S
Cd2 O3 2.240 . S
Cd2 O10 2.223 . S
Cd2 O12 2.297 . S
Cd2 O13 2.439 . S
O3 Cd2 2.240 . S
O3 C8 1.279 . S
O4 Cd1 2.297 . S
O4 C6 1.247 . S
O5 Cd1 2.439 . S
O5 C6 1.208 . S
C6 O4 1.247 . S
C6 O5 1.208 . S
C7 O12 1.247 . S
C7 O13 1.208 . S
C8 O0 1.315 . S
C8 O3 1.279 . S
C9 O10 1.315 . S
C9 O11 1.279 . S
O10 Cd2 2.223 . S
O10 C9 1.315 . S
O11 Cd1 2.240 . S
O11 C9 1.279 . S
O12 Cd2 2.297 . S
O12 C7 1.247 . S
O13 Cd2 2.439 . S
O13 C7 1.208 . S
O14 Cd15 2.223 . S
O14 C22 1.315 . S
Cd15 O14 2.223 . S
Cd15 O18 2.297 . S
Cd15 O19 2.439 . S
Cd15 O25 2.240 . S
Cd16 O17 2.240 . S
Cd16 O24 2.223 . S
Cd16 O26 2.297 . S
Cd16 O27 2.439 . S
O17 Cd16 2.240 . S
O17 C22 1.279 . S
O18 Cd15 2.297 . S
O18 C20 1.247 . S
O19 Cd15 2.439 . S
O19 C20 1.208 . S
C20 O18 1.247 . S
C20 O19 1.208 . S
C21 O26 1.247 . S
C21 O27 1.208 . S
C22 O14 1.315 . S
C22 O17 1.279 . S
C23 O24 1.315 . S
C23 O25 1.279 . S
O24 Cd16 2.223 . S
O24 C23 1.315 . S
O25 Cd15 2.240 . S
O25 C23 1.279 . S
O26 Cd16 2.297 . S
O26 C21 1.247 . S
O27 Cd16 2.439 . S
O27 C21 1.208 . S
O28 Cd29 2.223 . S
O28 C36 1.315 . S
Cd29 O28 2.223 . S
Cd29 O32 2.297 . S
Cd29 O33 2.439 . S
Cd29 O39 2.240 . S
Cd30 O31 2.240 . S
Cd30 O38 2.223 . S
Cd30 O40 2.297 1_655 S
Cd30 O41 2.439 1_655 S
O31 Cd30 2.240 . S
O31 C36 1.279 . S
O32 Cd29 2.297 . S
O32 C34 1.247 . S
O33 Cd29 2.439 . S
O33 C34 1.208 . S
C34 O32 1.247 . S
C34 O33 1.208 . S
C35 O40 1.247 . S
C35 O41 1.208 . S
C36 O28 1.315 . S
C36 O31 1.279 . S
C37 O38 1.315 . S
C37 O39 1.279 . S
O38 Cd30 2.223 . S
O38 C37 1.315 . S
O39 Cd29 2.240 . S
O39 C37 1.279 . S
O40 Cd30 2.297 1_455 S
O40 C35 1.247 . S
O41 Cd30 2.439 1_455 S
O41 C35 1.208 . S
O42 Cd43 2.223 . S
O42 C50 1.315 . S
Cd43 O42 2.223 . S
Cd43 O46 2.297 1_565 S
Cd43 O47 2.439 1_565 S
Cd43 O53 2.240 . S
Cd44 O45 2.240 . S
Cd44 O52 2.223 . S
Cd44 O54 2.297 . S
Cd44 O55 2.439 . S
O45 Cd44 2.240 . S
O45 C50 1.279 . S
O46 Cd43 2.297 1_545 S
O46 C48 1.247 . S
O47 Cd43 2.439 1_545 S
O47 C48 1.208 . S
C48 O46 1.247 . S
C48 O47 1.208 . S
C49 O54 1.247 . S
C49 O55 1.208 . S
C50 O42 1.315 . S
C50 O45 1.279 . S
C51 O52 1.315 . S
C51 O53 1.279 . S
O52 Cd44 2.223 . S
O52 C51 1.315 . S
O53 Cd43 2.240 . S
O53 C51 1.279 . S
O54 Cd44 2.297 . S
O54 C49 1.247 . S
O55 Cd44 2.439 . S
O55 C49 1.208 . S
O56 Cd57 2.223 . S
O56 C64 1.315 . S
Cd57 O56 2.223 . S
Cd57 O60 2.297 . S
Cd57 O61 2.439 . S
Cd57 O67 2.240 . S
Cd58 O59 2.240 . S
Cd58 O66 2.223 . S
Cd58 O68 2.297 . S
Cd58 O69 2.439 . S
O59 Cd58 2.240 . S
O59 C64 1.279 . S
O60 Cd57 2.297 . S
O60 C62 1.247 . S
O61 Cd57 2.439 . S
O61 C62 1.208 . S
C62 O60 1.247 . S
C62 O61 1.208 . S
C63 O68 1.247 . S
C63 O69 1.208 . S
C64 O56 1.315 . S
C64 O59 1.279 . S
C65 O66 1.315 . S
C65 O67 1.279 . S
O66 Cd58 2.223 . S
O66 C65 1.315 . S
O67 Cd57 2.240 . S
O67 C65 1.279 . S
O68 Cd58 2.297 . S
O68 C63 1.247 . S
O69 Cd58 2.439 . S
O69 C63 1.208 . S
O70 Cd71 2.223 . S
O70 C78 1.315 . S
Cd71 O70 2.223 . S
Cd71 O74 2.297 . S
Cd71 O75 2.439 . S
Cd71 O81 2.240 . S
Cd72 O73 2.240 . S
Cd72 O80 2.223 . S
Cd72 O82 2.297 . S
Cd72 O83 2.439 . S
O73 Cd72 2.240 . S
O73 C78 1.279 . S
O74 Cd71 2.297 . S
O74 C76 1.247 . S
O75 Cd71 2.439 . S
O75 C76 1.208 . S
C76 O74 1.247 . S
C76 O75 1.208 . S
C77 O82 1.247 . S
C77 O83 1.208 . S
C78 O70 1.315 . S
C78 O73 1.279 . S
C79 O80 1.315 . S
C79 O81 1.279 . S
O80 Cd72 2.223 . S
O80 C79 1.315 . S
O81 Cd71 2.240 . S
O81 C79 1.279 . S
O82 Cd72 2.297 . S
O82 C77 1.247 . S
O83 Cd72 2.439 . S
O83 C77 1.208 . S
O84 Cd85 2.223 . S
O84 C92 1.315 . S
Cd85 O84 2.223 . S
Cd85 O88 2.297 . S
Cd85 O89 2.439 . S
Cd85 O95 2.240 . S
Cd86 O87 2.240 . S
Cd86 O94 2.223 . S
Cd86 O96 2.297 1_655 S
Cd86 O97 2.439 1_655 S
O87 Cd86 2.240 . S
O87 C92 1.279 . S
O88 Cd85 2.297 . S
O88 C90 1.247 . S
O89 Cd85 2.439 . S
O89 C90 1.208 . S
C90 O88 1.247 . S
C90 O89 1.208 . S
C91 O96 1.247 . S
C91 O97 1.208 . S
C92 O84 1.315 . S
C92 O87 1.279 . S
C93 O94 1.315 . S
C93 O95 1.279 . S
O94 Cd86 2.223 . S
O94 C93 1.315 . S
O95 Cd85 2.240 . S
O95 C93 1.279 . S
O96 Cd86 2.297 1_455 S
O96 C91 1.247 . S
O97 Cd86 2.439 1_455 S
O97 C91 1.208 . S
O98 Cd99 2.223 . S
O98 C106 1.315 . S
Cd99 O98 2.223 . S
Cd99 O102 2.297 1_565 S
Cd99 O103 2.439 1_565 S
Cd99 O109 2.240 . S
Cd100 O101 2.240 . S
Cd100 O108 2.223 . S
Cd100 O110 2.297 . S
Cd100 O111 2.439 . S
O101 Cd100 2.240 . S
O101 C106 1.279 . S
O102 Cd99 2.297 1_545 S
O102 C104 1.247 . S
O103 Cd99 2.439 1_545 S
O103 C104 1.208 . S
C104 O102 1.247 . S
C104 O103 1.208 . S
C105 O110 1.247 . S
C105 O111 1.208 . S
C106 O98 1.315 . S
C106 O101 1.279 . S
C107 O108 1.315 . S
C107 O109 1.279 . S
O108 Cd100 2.223 . S
O108 C107 1.315 . S
O109 Cd99 2.240 . S
O109 C107 1.279 . S
O110 Cd100 2.297 . S
O110 C105 1.247 . S
O111 Cd100 2.439 . S
O111 C105 1.208 . S
O112 Cd113 2.223 . S
O112 C120 1.315 . S
Cd113 O112 2.223 . S
Cd113 O116 2.297 . S
Cd113 O117 2.439 . S
Cd113 O123 2.240 . S
Cd114 O115 2.240 . S
Cd114 O122 2.223 . S
Cd114 O124 2.297 . S
Cd114 O125 2.439 . S
O115 Cd114 2.240 . S
O115 C120 1.279 . S
O116 Cd113 2.297 . S
O116 C118 1.247 . S
O117 Cd113 2.439 . S
O117 C118 1.208 . S
C118 O116 1.247 . S
C118 O117 1.208 . S
C119 O124 1.247 . S
C119 O125 1.208 . S
C120 O112 1.315 . S
C120 O115 1.279 . S
C121 O122 1.315 . S
C121 O123 1.279 . S
O122 Cd114 2.223 . S
O122 C121 1.315 . S
O123 Cd113 2.240 . S
O123 C121 1.279 . S
O124 Cd114 2.297 . S
O124 C119 1.247 . S
O125 Cd114 2.439 . S
O125 C119 1.208 . S
O126 Cd127 2.223 . S
O126 C134 1.315 . S
Cd127 O126 2.223 . S
Cd127 O130 2.297 . S
Cd127 O131 2.439 . S
Cd127 O137 2.240 . S
Cd128 O129 2.240 . S
Cd128 O136 2.223 . S
Cd128 O138 2.297 . S
Cd128 O139 2.439 . S
O129 Cd128 2.240 . S
O129 C134 1.279 . S
O130 Cd127 2.297 . S
O130 C132 1.247 . S
O131 Cd127 2.439 . S
O131 C132 1.208 . S
C132 O130 1.247 . S
C132 O131 1.208 . S
C133 O138 1.247 . S
C133 O139 1.208 . S
C134 O126 1.315 . S
C134 O129 1.279 . S
C135 O136 1.315 . S
C135 O137 1.279 . S
O136 Cd128 2.223 . S
O136 C135 1.315 . S
O137 Cd127 2.240 . S
O137 C135 1.279 . S
O138 Cd128 2.297 . S
O138 C133 1.247 . S
O139 Cd128 2.439 . S
O139 C133 1.208 . S
O140 Cd141 2.223 . S
O140 C148 1.315 . S
Cd141 O140 2.223 . S
Cd141 O144 2.297 1_455 S
Cd141 O145 2.439 1_455 S
Cd141 O151 2.240 . S
Cd142 O143 2.240 . S
Cd142 O150 2.223 . S
Cd142 O152 2.297 . S
Cd142 O153 2.439 . S
O143 Cd142 2.240 . S
O143 C148 1.279 . S
O144 Cd141 2.297 1_655 S
O144 C146 1.247 . S
O145 Cd141 2.439 1_655 S
O145 C146 1.208 . S
C146 O144 1.247 . S
C146 O145 1.208 . S
C147 O152 1.247 . S
C147 O153 1.208 . S
C148 O140 1.315 . S
C148 O143 1.279 . S
C149 O150 1.315 . S
C149 O151 1.279 . S
O150 Cd142 2.223 . S
O150 C149 1.315 . S
O151 Cd141 2.240 . S
O151 C149 1.279 . S
O152 Cd142 2.297 . S
O152 C147 1.247 . S
O153 Cd142 2.439 . S
O153 C147 1.208 . S
O154 Cd155 2.223 . S
O154 C162 1.315 . S
Cd155 O154 2.223 . S
Cd155 O158 2.297 1_545 S
Cd155 O159 2.439 1_545 S
Cd155 O165 2.240 . S
Cd156 O157 2.240 . S
Cd156 O164 2.223 . S
Cd156 O166 2.297 . S
Cd156 O167 2.439 . S
O157 Cd156 2.240 . S
O157 C162 1.279 . S
O158 Cd155 2.297 1_565 S
O158 C160 1.247 . S
O159 Cd155 2.439 1_565 S
O159 C160 1.208 . S
C160 O158 1.247 . S
C160 O159 1.208 . S
C161 O166 1.247 . S
C161 O167 1.208 . S
C162 O154 1.315 . S
C162 O157 1.279 . S
C163 O164 1.315 . S
C163 O165 1.279 . S
O164 Cd156 2.223 . S
O164 C163 1.315 . S
O165 Cd155 2.240 . S
O165 C163 1.279 . S
O166 Cd156 2.297 . S
O166 C161 1.247 . S
O167 Cd156 2.439 . S
O167 C161 1.208 . S
O168 Cd169 2.223 . S
O168 C176 1.315 . S
Cd169 O168 2.223 . S
Cd169 O172 2.297 . S
Cd169 O173 2.439 . S
Cd169 O179 2.240 . S
Cd170 O171 2.240 . S
Cd170 O178 2.223 . S
Cd170 O180 2.297 . S
Cd170 O181 2.439 . S
O171 Cd170 2.240 . S
O171 C176 1.279 . S
O172 Cd169 2.297 . S
O172 C174 1.247 . S
O173 Cd169 2.439 . S
O173 C174 1.208 . S
C174 O172 1.247 . S
C174 O173 1.208 . S
C175 O180 1.247 . S
C175 O181 1.208 . S
C176 O168 1.315 . S
C176 O171 1.279 . S
C177 O178 1.315 . S
C177 O179 1.279 . S
O178 Cd170 2.223 . S
O178 C177 1.315 . S
O179 Cd169 2.240 . S
O179 C177 1.279 . S
O180 Cd170 2.297 . S
O180 C175 1.247 . S
O181 Cd170 2.439 . S
O181 C175 1.208 . S
O182 Cd183 2.223 . S
O182 C190 1.315 . S
Cd183 O182 2.223 . S
Cd183 O186 2.297 . S
Cd183 O187 2.439 . S
Cd183 O193 2.240 . S
Cd184 O185 2.240 . S
Cd184 O192 2.223 . S
Cd184 O194 2.297 . S
Cd184 O195 2.439 . S
O185 Cd184 2.240 . S
O185 C190 1.279 . S
O186 Cd183 2.297 . S
O186 C188 1.247 . S
O187 Cd183 2.439 . S
O187 C188 1.208 . S
C188 O186 1.247 . S
C188 O187 1.208 . S
C189 O194 1.247 . S
C189 O195 1.208 . S
C190 O182 1.315 . S
C190 O185 1.279 . S
C191 O192 1.315 . S
C191 O193 1.279 . S
O192 Cd184 2.223 . S
O192 C191 1.315 . S
O193 Cd183 2.240 . S
O193 C191 1.279 . S
O194 Cd184 2.297 . S
O194 C189 1.247 . S
O195 Cd184 2.439 . S
O195 C189 1.208 . S
O196 Cd197 2.223 . S
O196 C204 1.315 . S
Cd197 O196 2.223 . S
Cd197 O200 2.297 1_455 S
Cd197 O201 2.439 1_455 S
Cd197 O207 2.240 . S
Cd198 O199 2.240 . S
Cd198 O206 2.223 . S
Cd198 O208 2.297 . S
Cd198 O209 2.439 . S
O199 Cd198 2.240 . S
O199 C204 1.279 . S
O200 Cd197 2.297 1_655 S
O200 C202 1.247 . S
O201 Cd197 2.439 1_655 S
O201 C202 1.208 . S
C202 O200 1.247 . S
C202 O201 1.208 . S
C203 O208 1.247 . S
C203 O209 1.208 . S
C204 O196 1.315 . S
C204 O199 1.279 . S
C205 O206 1.315 . S
C205 O207 1.279 . S
O206 Cd198 2.223 . S
O206 C205 1.315 . S
O207 Cd197 2.240 . S
O207 C205 1.279 . S
O208 Cd198 2.297 . S
O208 C203 1.247 . S
O209 Cd198 2.439 . S
O209 C203 1.208 . S
O210 Cd211 2.223 . S
O210 C218 1.315 . S
Cd211 O210 2.223 . S
Cd211 O214 2.297 1_545 S
Cd211 O215 2.439 1_545 S
Cd211 O221 2.240 . S
Cd212 O213 2.240 . S
Cd212 O220 2.223 . S
Cd212 O222 2.297 . S
Cd212 O223 2.439 . S
O213 Cd212 2.240 . S
O213 C218 1.279 . S
O214 Cd211 2.297 1_565 S
O214 C216 1.247 . S
O215 Cd211 2.439 1_565 S
O215 C216 1.208 . S
C216 O214 1.247 . S
C216 O215 1.208 . S
C217 O222 1.247 . S
C217 O223 1.208 . S
C218 O210 1.315 . S
C218 O213 1.279 . S
C219 O220 1.315 . S
C219 O221 1.279 . S
O220 Cd212 2.223 . S
O220 C219 1.315 . S
O221 Cd211 2.240 . S
O221 C219 1.279 . S
O222 Cd212 2.297 . S
O222 C217 1.247 . S
O223 Cd212 2.439 . S
O223 C217 1.208 . S
C224 C225 1.387 . S
C224 H228 0.950 . S
C224 C233 1.390 . S
C225 C224 1.387 . S
C225 C227 1.387 . S
H226 C233 0.950 . S
C227 C225 1.387 . S
C227 C229 1.390 . S
C227 H231 0.950 . S
H228 C224 0.950 . S
C229 C227 1.390 . S
C229 C230 1.387 . S
C229 H232 0.950 . S
C230 C229 1.387 . S
C230 C233 1.387 . S
H231 C227 0.950 . S
H232 C229 0.950 . S
C233 C224 1.390 . S
C233 H226 0.950 . S
C233 C230 1.387 . S
C234 C235 1.387 . S
C234 H238 0.950 . S
C234 C243 1.390 . S
C235 C234 1.387 . S
C235 C237 1.387 . S
H236 C243 0.950 . S
C237 C235 1.387 . S
C237 C239 1.390 . S
C237 H241 0.950 . S
H238 C234 0.950 . S
C239 C237 1.390 . S
C239 C240 1.387 . S
C239 H242 0.950 . S
C240 C239 1.387 . S
C240 C243 1.387 . S
H241 C237 0.950 . S
H242 C239 0.950 . S
C243 C234 1.390 . S
C243 H236 0.950 . S
C243 C240 1.387 . S
C244 C245 1.387 . S
C244 H248 0.950 . S
C244 C253 1.390 . S
C245 C244 1.387 . S
C245 C247 1.387 . S
H246 C253 0.950 . S
C247 C245 1.387 . S
C247 C249 1.390 . S
C247 H251 0.950 . S
H248 C244 0.950 . S
C249 C247 1.390 . S
C249 C250 1.387 . S
C249 H252 0.950 . S
C250 C249 1.387 . S
C250 C253 1.387 . S
H251 C247 0.950 . S
H252 C249 0.950 . S
C253 C244 1.390 . S
C253 H246 0.950 . S
C253 C250 1.387 . S
C254 C255 1.387 . S
C254 H258 0.950 . S
C254 C263 1.390 . S
C255 C254 1.387 . S
C255 C257 1.387 . S
H256 C263 0.950 . S
C257 C255 1.387 . S
C257 C259 1.390 . S
C257 H261 0.950 . S
H258 C254 0.950 . S
C259 C257 1.390 . S
C259 C260 1.387 . S
C259 H262 0.950 . S
C260 C259 1.387 . S
C260 C263 1.387 . S
H261 C257 0.950 . S
H262 C259 0.950 . S
C263 C254 1.390 . S
C263 H256 0.950 . S
C263 C260 1.387 . S
C264 C265 1.387 . S
C264 H268 0.950 . S
C264 C273 1.390 . S
C265 C264 1.387 . S
C265 C267 1.387 . S
H266 C273 0.950 . S
C267 C265 1.387 . S
C267 C269 1.390 . S
C267 H271 0.950 . S
H268 C264 0.950 . S
C269 C267 1.390 . S
C269 C270 1.387 . S
C269 H272 0.950 . S
C270 C269 1.387 . S
C270 C273 1.387 . S
H271 C267 0.950 . S
H272 C269 0.950 . S
C273 C264 1.390 . S
C273 H266 0.950 . S
C273 C270 1.387 . S
C274 C275 1.387 . S
C274 H278 0.950 . S
C274 C283 1.390 . S
C275 C274 1.387 . S
C275 C277 1.387 . S
H276 C283 0.950 . S
C277 C275 1.387 . S
C277 C279 1.390 . S
C277 H281 0.950 . S
H278 C274 0.950 . S
C279 C277 1.390 . S
C279 C280 1.387 . S
C279 H282 0.950 . S
C280 C279 1.387 . S
C280 C283 1.387 . S
H281 C277 0.950 . S
H282 C279 0.950 . S
C283 C274 1.390 . S
C283 H276 0.950 . S
C283 C280 1.387 . S
C284 C285 1.387 . S
C284 H288 0.950 . S
C284 C293 1.390 . S
C285 C284 1.387 . S
C285 C287 1.387 . S
H286 C293 0.950 . S
C287 C285 1.387 . S
C287 C289 1.390 . S
C287 H291 0.950 . S
H288 C284 0.950 . S
C289 C287 1.390 . S
C289 C290 1.387 . S
C289 H292 0.950 . S
C290 C289 1.387 . S
C290 C293 1.387 . S
H291 C287 0.950 . S
H292 C289 0.950 . S
C293 C284 1.390 . S
C293 H286 0.950 . S
C293 C290 1.387 . S
C294 C295 1.387 . S
C294 H298 0.950 . S
C294 C303 1.390 . S
C295 C294 1.387 . S
C295 C297 1.387 . S
H296 C303 0.950 . S
C297 C295 1.387 . S
C297 C299 1.390 . S
C297 H301 0.950 . S
H298 C294 0.950 . S
C299 C297 1.390 . S
C299 C300 1.387 . S
C299 H302 0.950 . S
C300 C299 1.387 . S
C300 C303 1.387 . S
H301 C297 0.950 . S
H302 C299 0.950 . S
C303 C294 1.390 . S
C303 H296 0.950 . S
C303 C300 1.387 . S
C304 C305 1.387 . S
C304 H308 0.950 . S
C304 C313 1.390 . S
C305 C304 1.387 . S
C305 C307 1.387 . S
H306 C313 0.950 . S
C307 C305 1.387 . S
C307 C309 1.390 . S
C307 H311 0.950 . S
H308 C304 0.950 . S
C309 C307 1.390 . S
C309 C310 1.387 . S
C309 H312 0.950 . S
C310 C309 1.387 . S
C310 C313 1.387 . S
H311 C307 0.950 . S
H312 C309 0.950 . S
C313 C304 1.390 . S
C313 H306 0.950 . S
C313 C310 1.387 . S
C314 C315 1.387 . S
C314 H318 0.950 . S
C314 C323 1.390 . S
C315 C314 1.387 . S
C315 C317 1.387 . S
H316 C323 0.950 . S
C317 C315 1.387 . S
C317 C319 1.390 . S
C317 H321 0.950 . S
H318 C314 0.950 . S
C319 C317 1.390 . S
C319 C320 1.387 . S
C319 H322 0.950 . S
C320 C319 1.387 . S
C320 C323 1.387 . S
H321 C317 0.950 . S
H322 C319 0.950 . S
C323 C314 1.390 . S
C323 H316 0.950 . S
C323 C320 1.387 . S
C324 C325 1.387 . S
C324 H328 0.950 . S
C324 C333 1.390 . S
C325 C324 1.387 . S
C325 C327 1.387 . S
H326 C333 0.950 . S
C327 C325 1.387 . S
C327 C329 1.390 . S
C327 H331 0.950 . S
H328 C324 0.950 . S
C329 C327 1.390 . S
C329 C330 1.387 . S
C329 H332 0.950 . S
C330 C329 1.387 . S
C330 C333 1.387 . S
H331 C327 0.950 . S
H332 C329 0.950 . S
C333 C324 1.390 . S
C333 H326 0.950 . S
C333 C330 1.387 . S
C334 C335 1.387 . S
C334 H338 0.950 . S
C334 C343 1.390 . S
C335 C334 1.387 . S
C335 C337 1.387 . S
H336 C343 0.950 . S
C337 C335 1.387 . S
C337 C339 1.390 . S
C337 H341 0.950 . S
H338 C334 0.950 . S
C339 C337 1.390 . S
C339 C340 1.387 . S
C339 H342 0.950 . S
C340 C339 1.387 . S
C340 C343 1.387 . S
H341 C337 0.950 . S
H342 C339 0.950 . S
C343 C334 1.390 . S
C343 H336 0.950 . S
C343 C340 1.387 . S
C344 C345 1.387 . S
C344 H348 0.950 . S
C344 C353 1.390 . S
C345 C344 1.387 . S
C345 C347 1.387 . S
H346 C353 0.950 . S
C347 C345 1.387 . S
C347 C349 1.390 . S
C347 H351 0.950 . S
H348 C344 0.950 . S
C349 C347 1.390 . S
C349 C350 1.387 . S
C349 H352 0.950 . S
C350 C349 1.387 . S
C350 C353 1.387 . S
H351 C347 0.950 . S
H352 C349 0.950 . S
C353 C344 1.390 . S
C353 H346 0.950 . S
C353 C350 1.387 . S
C354 C355 1.387 . S
C354 H358 0.950 . S
C354 C363 1.390 . S
C355 C354 1.387 . S
C355 C357 1.387 . S
H356 C363 0.950 . S
C357 C355 1.387 . S
C357 C359 1.390 . S
C357 H361 0.950 . S
H358 C354 0.950 . S
C359 C357 1.390 . S
C359 C360 1.387 . S
C359 H362 0.950 . S
C360 C359 1.387 . S
C360 C363 1.387 . S
H361 C357 0.950 . S
H362 C359 0.950 . S
C363 C354 1.390 . S
C363 H356 0.950 . S
C363 C360 1.387 . S
C364 C365 1.387 . S
C364 H368 0.950 . S
C364 C373 1.390 . S
C365 C364 1.387 . S
C365 C367 1.387 . S
H366 C373 0.950 . S
C367 C365 1.387 . S
C367 C369 1.390 . S
C367 H371 0.950 . S
H368 C364 0.950 . S
C369 C367 1.390 . S
C369 C370 1.387 . S
C369 H372 0.950 . S
C370 C369 1.387 . S
C370 C373 1.387 . S
H371 C367 0.950 . S
H372 C369 0.950 . S
C373 C364 1.390 . S
C373 H366 0.950 . S
C373 C370 1.387 . S
C374 C375 1.387 . S
C374 H378 0.950 . S
C374 C383 1.390 . S
C375 C374 1.387 . S
C375 C377 1.387 . S
H376 C383 0.950 . S
C377 C375 1.387 . S
C377 C379 1.390 . S
C377 H381 0.950 . S
H378 C374 0.950 . S
C379 C377 1.390 . S
C379 C380 1.387 . S
C379 H382 0.950 . S
C380 C379 1.387 . S
C380 C383 1.387 . S
H381 C377 0.950 . S
H382 C379 0.950 . S
C383 C374 1.390 . S
C383 H376 0.950 . S
C383 C380 1.387 . S
C384 C385 1.387 . S
C384 H388 0.950 . S
C384 C393 1.390 . S
C385 C384 1.387 . S
C385 C387 1.387 . S
H386 C393 0.950 . S
C387 C385 1.387 . S
C387 C389 1.390 . S
C387 H391 0.950 . S
H388 C384 0.950 . S
C389 C387 1.390 . S
C389 C390 1.387 . S
C389 H392 0.950 . S
C390 C389 1.387 . S
C390 C393 1.387 . S
H391 C387 0.950 . S
H392 C389 0.950 . S
C393 C384 1.390 . S
C393 H386 0.950 . S
C393 C390 1.387 . S
C394 C395 1.387 . S
C394 H398 0.950 . S
C394 C403 1.390 . S
C395 C394 1.387 . S
C395 C397 1.387 . S
H396 C403 0.950 . S
C397 C395 1.387 . S
C397 C399 1.390 . S
C397 H401 0.950 . S
H398 C394 0.950 . S
C399 C397 1.390 . S
C399 C400 1.387 . S
C399 H402 0.950 . S
C400 C399 1.387 . S
C400 C403 1.387 . S
H401 C397 0.950 . S
H402 C399 0.950 . S
C403 C394 1.390 . S
C403 H396 0.950 . S
C403 C400 1.387 . S
C404 C405 1.387 . S
C404 H408 0.950 . S
C404 C413 1.390 . S
C405 C404 1.387 . S
C405 C407 1.387 . S
H406 C413 0.950 . S
C407 C405 1.387 . S
C407 C409 1.390 . S
C407 H411 0.950 . S
H408 C404 0.950 . S
C409 C407 1.390 . S
C409 C410 1.387 . S
C409 H412 0.950 . S
C410 C409 1.387 . S
C410 C413 1.387 . S
H411 C407 0.950 . S
H412 C409 0.950 . S
C413 C404 1.390 . S
C413 H406 0.950 . S
C413 C410 1.387 . S
C414 C415 1.387 . S
C414 H418 0.950 . S
C414 C423 1.390 . S
C415 C414 1.387 . S
C415 C417 1.387 . S
H416 C423 0.950 . S
C417 C415 1.387 . S
C417 C419 1.390 . S
C417 H421 0.950 . S
H418 C414 0.950 . S
C419 C417 1.390 . S
C419 C420 1.387 . S
C419 H422 0.950 . S
C420 C419 1.387 . S
C420 C423 1.387 . S
H421 C417 0.950 . S
H422 C419 0.950 . S
C423 C414 1.390 . S
C423 H416 0.950 . S
C423 C420 1.387 . S
C424 C425 1.387 . S
C424 H428 0.950 . S
C424 C433 1.390 . S
C425 C424 1.387 . S
C425 C427 1.387 . S
H426 C433 0.950 . S
C427 C425 1.387 . S
C427 C429 1.390 . S
C427 H431 0.950 . S
H428 C424 0.950 . S
C429 C427 1.390 . S
C429 C430 1.387 . S
C429 H432 0.950 . S
C430 C429 1.387 . S
C430 C433 1.387 . S
H431 C427 0.950 . S
H432 C429 0.950 . S
C433 C424 1.390 . S
C433 H426 0.950 . S
C433 C430 1.387 . S
C434 C435 1.387 . S
C434 H438 0.950 . S
C434 C443 1.390 . S
C435 C434 1.387 . S
C435 C437 1.387 . S
H436 C443 0.950 . S
C437 C435 1.387 . S
C437 C439 1.390 . S
C437 H441 0.950 . S
H438 C434 0.950 . S
C439 C437 1.390 . S
C439 C440 1.387 . S
C439 H442 0.950 . S
C440 C439 1.387 . S
C440 C443 1.387 . S
H441 C437 0.950 . S
H442 C439 0.950 . S
C443 C434 1.390 . S
C443 H436 0.950 . S
C443 C440 1.387 . S
C444 C445 1.387 . S
C444 H448 0.950 . S
C444 C453 1.390 . S
C445 C444 1.387 . S
C445 C447 1.387 . S
H446 C453 0.950 . S
C447 C445 1.387 . S
C447 C449 1.390 . S
C447 H451 0.950 . S
H448 C444 0.950 . S
C449 C447 1.390 . S
C449 C450 1.387 . S
C449 H452 0.950 . S
C450 C449 1.387 . S
C450 C453 1.387 . S
H451 C447 0.950 . S
H452 C449 0.950 . S
C453 C444 1.390 . S
C453 H446 0.950 . S
C453 C450 1.387 . S
C454 C455 1.387 . S
C454 H458 0.950 . S
C454 C463 1.390 . S
C455 C454 1.387 . S
C455 C457 1.387 . S
H456 C463 0.950 . S
C457 C455 1.387 . S
C457 C459 1.390 . S
C457 H461 0.950 . S
H458 C454 0.950 . S
C459 C457 1.390 . S
C459 C460 1.387 . S
C459 H462 0.950 . S
C460 C459 1.387 . S
C460 C463 1.387 . S
H461 C457 0.950 . S
H462 C459 0.950 . S
C463 C454 1.390 . S
C463 H456 0.950 . S
C463 C460 1.387 . S
C464 C465 1.387 . S
C464 H468 0.950 . S
C464 C473 1.390 1_554 S
C465 C464 1.387 . S
C465 C467 1.387 . S
H466 C473 0.950 . S
C467 C465 1.387 . S
C467 C469 1.390 1_554 S
C467 H471 0.950 . S
H468 C464 0.950 . S
C469 C467 1.390 1_556 S
C469 C470 1.387 . S
C469 H472 0.950 . S
C470 C469 1.387 . S
C470 C473 1.387 . S
H471 C467 0.950 . S
H472 C469 0.950 . S
C473 C464 1.390 1_556 S
C473 H466 0.950 . S
C473 C470 1.387 . S
C474 C475 1.387 . S
C474 H478 0.950 . S
C474 C483 1.390 . S
C475 C474 1.387 . S
C475 C477 1.387 . S
H476 C483 0.950 . S
C477 C475 1.387 . S
C477 C479 1.390 . S
C477 H481 0.950 . S
H478 C474 0.950 . S
C479 C477 1.390 . S
C479 C480 1.387 . S
C479 H482 0.950 . S
C480 C479 1.387 . S
C480 C483 1.387 . S
H481 C477 0.950 . S
H482 C479 0.950 . S
C483 C474 1.390 . S
C483 H476 0.950 . S
C483 C480 1.387 . S
C484 C485 1.387 1_455 S
C484 H488 0.950 . S
C484 C493 1.390 1_554 S
C485 C484 1.387 1_655 S
C485 C487 1.387 . S
H486 C493 0.950 . S
C487 C485 1.387 . S
C487 C489 1.390 1_554 S
C487 H491 0.950 . S
H488 C484 0.950 . S
C489 C487 1.390 1_556 S
C489 C490 1.387 . S
C489 H492 0.950 . S
C490 C489 1.387 . S
C490 C493 1.387 1_655 S
H491 C487 0.950 . S
H492 C489 0.950 . S
C493 C484 1.390 1_556 S
C493 H486 0.950 . S
C493 C490 1.387 1_455 S
C494 C495 1.387 1_545 S
C494 H498 0.950 . S
C494 C503 1.390 . S
C495 C494 1.387 1_565 S
C495 C497 1.387 . S
H496 C503 0.950 . S
C497 C495 1.387 . S
C497 C499 1.390 . S
C497 H501 0.950 . S
H498 C494 0.950 . S
C499 C497 1.390 . S
C499 C500 1.387 . S
C499 H502 0.950 . S
C500 C499 1.387 . S
C500 C503 1.387 1_565 S
H501 C497 0.950 . S
H502 C499 0.950 . S
C503 C494 1.390 . S
C503 H496 0.950 . S
C503 C500 1.387 1_545 S
C504 C505 1.387 . S
C504 H508 0.950 . S
C504 C513 1.390 1_556 S
C505 C504 1.387 . S
C505 C507 1.387 . S
H506 C513 0.950 . S
C507 C505 1.387 . S
C507 C509 1.390 1_556 S
C507 H511 0.950 . S
H508 C504 0.950 . S
C509 C507 1.390 1_554 S
C509 C510 1.387 . S
C509 H512 0.950 . S
C510 C509 1.387 . S
C510 C513 1.387 . S
H511 C507 0.950 . S
H512 C509 0.950 . S
C513 C504 1.390 1_554 S
C513 H506 0.950 . S
C513 C510 1.387 . S
C514 C515 1.387 . S
C514 H518 0.950 . S
C514 C523 1.390 . S
C515 C514 1.387 . S
C515 C517 1.387 . S
H516 C523 0.950 . S
C517 C515 1.387 . S
C517 C519 1.390 . S
C517 H521 0.950 . S
H518 C514 0.950 . S
C519 C517 1.390 . S
C519 C520 1.387 . S
C519 H522 0.950 . S
C520 C519 1.387 . S
C520 C523 1.387 . S
H521 C517 0.950 . S
H522 C519 0.950 . S
C523 C514 1.390 . S
C523 H516 0.950 . S
C523 C520 1.387 . S
C524 C525 1.387 . S
C524 H528 0.950 . S
C524 C533 1.390 1_554 S
C525 C524 1.387 . S
C525 C527 1.387 1_455 S
H526 C533 0.950 . S
C527 C525 1.387 1_655 S
C527 C529 1.390 1_554 S
C527 H531 0.950 . S
H528 C524 0.950 . S
C529 C527 1.390 1_556 S
C529 C530 1.387 1_655 S
C529 H532 0.950 . S
C530 C529 1.387 1_455 S
C530 C533 1.387 . S
H531 C527 0.950 . S
H532 C529 0.950 . S
C533 C524 1.390 1_556 S
C533 H526 0.950 . S
C533 C530 1.387 . S
C534 C535 1.387 1_565 S
C534 H538 0.950 . S
C534 C543 1.390 . S
C535 C534 1.387 1_545 S
C535 C537 1.387 . S
H536 C543 0.950 . S
C537 C535 1.387 . S
C537 C539 1.390 . S
C537 H541 0.950 . S
H538 C534 0.950 . S
C539 C537 1.390 . S
C539 C540 1.387 . S
C539 H542 0.950 . S
C540 C539 1.387 . S
C540 C543 1.387 1_545 S
H541 C537 0.950 . S
H542 C539 0.950 . S
C543 C534 1.390 . S
C543 H536 0.950 . S
C543 C540 1.387 1_565 S
C225 C7 1.428 . S
C230 C104 1.428 . S
C235 C20 1.427 . S
C240 C63 1.427 . S
C245 C35 1.428 . S
C250 C76 1.428 . S
C255 C48 1.428 . S
C260 C91 1.428 . S
C265 C118 1.428 . S
C270 C216 1.428 . S
C275 C174 1.427 . S
C280 C132 1.427 . S
C285 C146 1.426 . S
C290 C188 1.426 . S
C295 C160 1.427 . S
C300 C202 1.427 . S
C305 C8 1.542 . S
C310 C134 1.579 . S
C315 C23 1.544 . S
C320 C148 1.579 . S
C325 C162 1.579 . S
C330 C36 1.544 . S
C335 C51 1.544 . S
C340 C120 1.579 . S
C345 C64 1.544 . S
C350 C218 1.579 . S
C355 C176 1.579 . S
C360 C79 1.543 . S
C365 C190 1.579 . S
C370 C92 1.542 . S
C375 C204 1.578 . S
C380 C107 1.543 . S
C385 C22 1.579 . S
C390 C121 1.542 . S
C395 C37 1.578 . S
C400 C135 1.543 . S
C405 C149 1.544 . S
C410 C50 1.579 . S
C415 C9 1.579 . S
C420 C163 1.544 . S
C425 C177 1.544 . S
C430 C106 1.579 . S
C435 C191 1.543 . S
C440 C65 1.579 . S
C445 C78 1.579 . S
C450 C205 1.544 . S
C455 C93 1.579 . S
C460 C219 1.543 . S
C465 C6 1.537 . S
C470 C62 1.537 . S
C475 C77 1.538 . S
C480 C21 1.538 . S
C485 C34 1.537 . S
C490 C90 1.537 . S
C495 C105 1.537 . S
C500 C49 1.537 . S
C505 C119 1.537 . S
C510 C175 1.537 . S
C515 C189 1.537 . S
C520 C133 1.537 . S
C525 C203 1.537 . S
C530 C147 1.537 . S
C535 C217 1.538 . S
C540 C161 1.538 . S
