# Generated by pormake.
# Topology ukc, (4)-cn, num edge types: 1
# Building blocks:
#     Node 0, Type 0, BuildingBlock: TATPOV_clean_sbu_0, # of connection points: 4
#     Node 1, Type 0, BuildingBlock: TATPOV_clean_sbu_0, # of connection points: 4
#     Node 2, Type 0, BuildingBlock: TATPOV_clean_sbu_0, # of connection points: 4
#     Node 3, Type 0, BuildingBlock: TATPOV_clean_sbu_0, # of connection points: 4
#     Node 4, Type 0, BuildingBlock: TATPOV_clean_sbu_0, # of connection points: 4
#     Node 5, Type 0, BuildingBlock: TATPOV_clean_sbu_0, # of connection points: 4
#     Node 6, Type 0, BuildingBlock: TATPOV_clean_sbu_0, # of connection points: 4
#     Node 7, Type 0, BuildingBlock: TATPOV_clean_sbu_0, # of connection points: 4
#     Node 8, Type 0, BuildingBlock: TATPOV_clean_sbu_0, # of connection points: 4
#     Node 9, Type 0, BuildingBlock: TATPOV_clean_sbu_0, # of connection points: 4
#     Node 10, Type 0, BuildingBlock: TATPOV_clean_sbu_0, # of connection points: 4
#     Node 11, Type 0, BuildingBlock: TATPOV_clean_sbu_0, # of connection points: 4
#     Node 12, Type 0, BuildingBlock: TATPOV_clean_sbu_0, # of connection points: 4
#     Node 13, Type 0, BuildingBlock: TATPOV_clean_sbu_0, # of connection points: 4
#     Node 14, Type 0, BuildingBlock: TATPOV_clean_sbu_0, # of connection points: 4
#     Node 15, Type 0, BuildingBlock: TATPOV_clean_sbu_0, # of connection points: 4
#     Node 16, Type 0, BuildingBlock: TATPOV_clean_sbu_0, # of connection points: 4
#     Node 17, Type 0, BuildingBlock: TATPOV_clean_sbu_0, # of connection points: 4
#     Node 18, Type 0, BuildingBlock: TATPOV_clean_sbu_0, # of connection points: 4
#     Node 19, Type 0, BuildingBlock: TATPOV_clean_sbu_0, # of connection points: 4
#     Node 20, Type 0, BuildingBlock: TATPOV_clean_sbu_0, # of connection points: 4
#     Node 21, Type 0, BuildingBlock: TATPOV_clean_sbu_0, # of connection points: 4
#     Node 22, Type 0, BuildingBlock: TATPOV_clean_sbu_0, # of connection points: 4
#     Node 23, Type 0, BuildingBlock: TATPOV_clean_sbu_0, # of connection points: 4
#     Node 24, Type 0, BuildingBlock: TATPOV_clean_sbu_0, # of connection points: 4
#     Node 25, Type 0, BuildingBlock: TATPOV_clean_sbu_0, # of connection points: 4
#     Node 26, Type 0, BuildingBlock: TATPOV_clean_sbu_0, # of connection points: 4
#     Node 27, Type 0, BuildingBlock: TATPOV_clean_sbu_0, # of connection points: 4
#     Node 28, Type 0, BuildingBlock: TATPOV_clean_sbu_0, # of connection points: 4
#     Node 29, Type 0, BuildingBlock: TATPOV_clean_sbu_0, # of connection points: 4
#     Node 30, Type 0, BuildingBlock: TATPOV_clean_sbu_0, # of connection points: 4
#     Node 31, Type 0, BuildingBlock: TATPOV_clean_sbu_0, # of connection points: 4
#     Edge 32, Type (0, 0), BuildingBlock: EZIPEK_clean_linker_0, # of connection points: 2
#     Edge 33, Type (0, 0), BuildingBlock: EZIPEK_clean_linker_0, # of connection points: 2
#     Edge 34, Type (0, 0), BuildingBlock: EZIPEK_clean_linker_0, # of connection points: 2
#     Edge 35, Type (0, 0), BuildingBlock: EZIPEK_clean_linker_0, # of connection points: 2
#     Edge 36, Type (0, 0), BuildingBlock: EZIPEK_clean_linker_0, # of connection points: 2
#     Edge 37, Type (0, 0), BuildingBlock: EZIPEK_clean_linker_0, # of connection points: 2
#     Edge 38, Type (0, 0), BuildingBlock: EZIPEK_clean_linker_0, # of connection points: 2
#     Edge 39, Type (0, 0), BuildingBlock: EZIPEK_clean_linker_0, # of connection points: 2
#     Edge 40, Type (0, 0), BuildingBlock: EZIPEK_clean_linker_0, # of connection points: 2
#     Edge 41, Type (0, 0), BuildingBlock: EZIPEK_clean_linker_0, # of connection points: 2
#     Edge 42, Type (0, 0), BuildingBlock: EZIPEK_clean_linker_0, # of connection points: 2
#     Edge 43, Type (0, 0), BuildingBlock: EZIPEK_clean_linker_0, # of connection points: 2
#     Edge 44, Type (0, 0), BuildingBlock: EZIPEK_clean_linker_0, # of connection points: 2
#     Edge 45, Type (0, 0), BuildingBlock: EZIPEK_clean_linker_0, # of connection points: 2
#     Edge 46, Type (0, 0), BuildingBlock: EZIPEK_clean_linker_0, # of connection points: 2
#     Edge 47, Type (0, 0), BuildingBlock: EZIPEK_clean_linker_0, # of connection points: 2
#     Edge 48, Type (0, 0), BuildingBlock: EZIPEK_clean_linker_0, # of connection points: 2
#     Edge 49, Type (0, 0), BuildingBlock: EZIPEK_clean_linker_0, # of connection points: 2
#     Edge 50, Type (0, 0), BuildingBlock: EZIPEK_clean_linker_0, # of connection points: 2
#     Edge 51, Type (0, 0), BuildingBlock: EZIPEK_clean_linker_0, # of connection points: 2
#     Edge 52, Type (0, 0), BuildingBlock: EZIPEK_clean_linker_0, # of connection points: 2
#     Edge 53, Type (0, 0), BuildingBlock: EZIPEK_clean_linker_0, # of connection points: 2
#     Edge 54, Type (0, 0), BuildingBlock: EZIPEK_clean_linker_0, # of connection points: 2
#     Edge 55, Type (0, 0), BuildingBlock: EZIPEK_clean_linker_0, # of connection points: 2
#     Edge 56, Type (0, 0), BuildingBlock: EZIPEK_clean_linker_0, # of connection points: 2
#     Edge 57, Type (0, 0), BuildingBlock: EZIPEK_clean_linker_0, # of connection points: 2
#     Edge 58, Type (0, 0), BuildingBlock: EZIPEK_clean_linker_0, # of connection points: 2
#     Edge 59, Type (0, 0), BuildingBlock: EZIPEK_clean_linker_0, # of connection points: 2
#     Edge 60, Type (0, 0), BuildingBlock: EZIPEK_clean_linker_0, # of connection points: 2
#     Edge 61, Type (0, 0), BuildingBlock: EZIPEK_clean_linker_0, # of connection points: 2
#     Edge 62, Type (0, 0), BuildingBlock: EZIPEK_clean_linker_0, # of connection points: 2
#     Edge 63, Type (0, 0), BuildingBlock: EZIPEK_clean_linker_0, # of connection points: 2
#     Edge 64, Type (0, 0), BuildingBlock: EZIPEK_clean_linker_0, # of connection points: 2
#     Edge 65, Type (0, 0), BuildingBlock: EZIPEK_clean_linker_0, # of connection points: 2
#     Edge 66, Type (0, 0), BuildingBlock: EZIPEK_clean_linker_0, # of connection points: 2
#     Edge 67, Type (0, 0), BuildingBlock: EZIPEK_clean_linker_0, # of connection points: 2
#     Edge 68, Type (0, 0), BuildingBlock: EZIPEK_clean_linker_0, # of connection points: 2
#     Edge 69, Type (0, 0), BuildingBlock: EZIPEK_clean_linker_0, # of connection points: 2
#     Edge 70, Type (0, 0), BuildingBlock: EZIPEK_clean_linker_0, # of connection points: 2
#     Edge 71, Type (0, 0), BuildingBlock: EZIPEK_clean_linker_0, # of connection points: 2
#     Edge 72, Type (0, 0), BuildingBlock: EZIPEK_clean_linker_0, # of connection points: 2
#     Edge 73, Type (0, 0), BuildingBlock: EZIPEK_clean_linker_0, # of connection points: 2
#     Edge 74, Type (0, 0), BuildingBlock: EZIPEK_clean_linker_0, # of connection points: 2
#     Edge 75, Type (0, 0), BuildingBlock: EZIPEK_clean_linker_0, # of connection points: 2
#     Edge 76, Type (0, 0), BuildingBlock: EZIPEK_clean_linker_0, # of connection points: 2
#     Edge 77, Type (0, 0), BuildingBlock: EZIPEK_clean_linker_0, # of connection points: 2
#     Edge 78, Type (0, 0), BuildingBlock: EZIPEK_clean_linker_0, # of connection points: 2
#     Edge 79, Type (0, 0), BuildingBlock: EZIPEK_clean_linker_0, # of connection points: 2
#     Edge 80, Type (0, 0), BuildingBlock: EZIPEK_clean_linker_0, # of connection points: 2
#     Edge 81, Type (0, 0), BuildingBlock: EZIPEK_clean_linker_0, # of connection points: 2
#     Edge 82, Type (0, 0), BuildingBlock: EZIPEK_clean_linker_0, # of connection points: 2
#     Edge 83, Type (0, 0), BuildingBlock: EZIPEK_clean_linker_0, # of connection points: 2
#     Edge 84, Type (0, 0), BuildingBlock: EZIPEK_clean_linker_0, # of connection points: 2
#     Edge 85, Type (0, 0), BuildingBlock: EZIPEK_clean_linker_0, # of connection points: 2
#     Edge 86, Type (0, 0), BuildingBlock: EZIPEK_clean_linker_0, # of connection points: 2
#     Edge 87, Type (0, 0), BuildingBlock: EZIPEK_clean_linker_0, # of connection points: 2
#     Edge 88, Type (0, 0), BuildingBlock: EZIPEK_clean_linker_0, # of connection points: 2
#     Edge 89, Type (0, 0), BuildingBlock: EZIPEK_clean_linker_0, # of connection points: 2
#     Edge 90, Type (0, 0), BuildingBlock: EZIPEK_clean_linker_0, # of connection points: 2
#     Edge 91, Type (0, 0), BuildingBlock: EZIPEK_clean_linker_0, # of connection points: 2
#     Edge 92, Type (0, 0), BuildingBlock: EZIPEK_clean_linker_0, # of connection points: 2
#     Edge 93, Type (0, 0), BuildingBlock: EZIPEK_clean_linker_0, # of connection points: 2
#     Edge 94, Type (0, 0), BuildingBlock: EZIPEK_clean_linker_0, # of connection points: 2
#     Edge 95, Type (0, 0), BuildingBlock: EZIPEK_clean_linker_0, # of connection points: 2
# Relax obj value: 0.024
# Max RMSD: 0.063
# Mean RMSD: 0.063
data_MOF--net-ukc--node1-TATPOV_clean_sbu_0--edge1-EZIPEK_clean_linker_0
_symmetry_space_group_name_H-M    P1
_symmetry_Int_Tables_number       1
_symmetry_cell_setting            triclinic
loop_
_symmetry_equiv_pos_as_xyz
'x, y, z'
_cell_length_a     33.102566
_cell_length_b     33.096643
_cell_length_c     63.426733
_cell_angle_alpha  89.938336
_cell_angle_beta   89.962269
_cell_angle_gamma 89.999407
loop_
_atom_site_label
_atom_site_type_symbol
_atom_site_fract_x
_atom_site_fract_y
_atom_site_fract_z
_atom_type_partial_charge
Zn0 Zn 0.04724 0.41251 0.07377 0.0
Zn1 Zn 0.10713 0.39601 0.04544 0.0
O2 O 0.13667 0.41636 0.07197 0.0
O3 O 0.08846 0.434 0.09388 0.0
O4 O 0.15292 0.38772 0.02418 0.0
O5 O 0.01985 0.44924 0.05362 0.0
O6 O 0.06912 0.43683 0.03095 0.0
C7 C 0.12569 0.43159 0.0895 0.0
C8 C 0.05015 0.32913 0.0606 0.0
O9 O 0.07969 0.34052 0.04909 0.0
O10 O 0.0326 0.35367 0.07287 0.0
C11 C 0.18516 0.36853 0.0287 0.0
O12 O 0.18901 0.35209 0.04745 0.0
C13 C 0.03613 0.45447 0.03582 0.0
Zn14 Zn 0.83133 0.81267 0.31652 0.0
Zn15 Zn 0.85838 0.86649 0.28744 0.0
O16 O 0.84612 0.89774 0.31478 0.0
O17 O 0.81957 0.85594 0.33778 0.0
O18 O 0.86811 0.91151 0.26588 0.0
O19 O 0.78898 0.791 0.2974 0.0
O20 O 0.81434 0.83208 0.27332 0.0
C21 C 0.83107 0.89121 0.33297 0.0
C22 C 0.91561 0.802 0.30248 0.0
O23 O 0.91005 0.83291 0.29077 0.0
O24 O 0.88761 0.78882 0.31429 0.0
C25 C 0.89292 0.9405 0.26842 0.0
O26 O 0.9163 0.94093 0.28514 0.0
C27 C 0.78991 0.80417 0.27871 0.0
Zn28 Zn 0.47063 0.57778 0.56568 0.0
Zn29 Zn 0.41239 0.60503 0.5383 0.0
O30 O 0.38131 0.58251 0.56359 0.0
O31 O 0.42677 0.56062 0.58592 0.0
O32 O 0.36701 0.61912 0.51791 0.0
O33 O 0.49151 0.53974 0.54402 0.0
O34 O 0.4464 0.56421 0.52169 0.0
C35 C 0.39002 0.56533 0.58095 0.0
C36 C 0.47631 0.66318 0.55505 0.0
O37 O 0.44395 0.65722 0.54454 0.0
O38 O 0.49306 0.63441 0.56492 0.0
C39 C 0.33555 0.63845 0.52355 0.0
O40 O 0.333 0.65264 0.54283 0.0
C41 C 0.47612 0.54105 0.52581 0.0
Zn42 Zn 0.66021 0.19899 0.81774 0.0
Zn43 Zn 0.63778 0.13731 0.79181 0.0
O44 O 0.6565 0.10992 0.81945 0.0
O45 O 0.67675 0.15913 0.83999 0.0
O46 O 0.62695 0.08947 0.77227 0.0
O47 O 0.69998 0.21889 0.79647 0.0
O48 O 0.68112 0.16903 0.77552 0.0
C49 C 0.67221 0.12168 0.83674 0.0
C50 C 0.57676 0.2028 0.80413 0.0
O51 O 0.58481 0.17035 0.79407 0.0
O52 O 0.60317 0.21959 0.81559 0.0
C53 C 0.60116 0.0616 0.77555 0.0
O54 O 0.57758 0.06361 0.79218 0.0
C55 C 0.70253 0.20025 0.77914 0.0
Zn56 Zn 0.0471 0.60264 0.43293 0.0
Zn57 Zn 0.1118 0.62253 0.45719 0.0
O58 O 0.13544 0.60033 0.42941 0.0
O59 O 0.08372 0.58083 0.41044 0.0
O60 O 0.16168 0.63008 0.47554 0.0
O61 O 0.02479 0.56719 0.45554 0.0
O62 O 0.0773 0.58403 0.47514 0.0
C63 C 0.12156 0.58395 0.41274 0.0
C64 C 0.0517 0.68755 0.44431 0.0
O65 O 0.08391 0.67788 0.45416 0.0
O66 O 0.03209 0.6615 0.43388 0.0
C67 C 0.19388 0.64795 0.46973 0.0
O68 O 0.19557 0.66502 0.45105 0.0
C69 C 0.04409 0.56517 0.47269 0.0
Zn70 Zn 0.65362 0.79468 0.66932 0.0
Zn71 Zn 0.63448 0.85234 0.69838 0.0
O72 O 0.65809 0.88303 0.67285 0.0
O73 O 0.67698 0.83671 0.65021 0.0
O74 O 0.62582 0.89788 0.71959 0.0
O75 O 0.68884 0.76668 0.69006 0.0
O76 O 0.67317 0.81349 0.71358 0.0
C77 C 0.67496 0.8735 0.65549 0.0
C78 C 0.5692 0.79606 0.68115 0.0
O79 O 0.57935 0.82495 0.69338 0.0
O80 O 0.59473 0.77983 0.66894 0.0
C81 C 0.59834 0.92462 0.7179 0.0
O82 O 0.572 0.92202 0.70248 0.0
C83 C 0.69153 0.78111 0.70843 0.0
Zn84 Zn 0.4509 0.39852 0.91877 0.0
Zn85 Zn 0.39511 0.38162 0.94914 0.0
O86 O 0.36241 0.39779 0.92271 0.0
O87 O 0.40719 0.41252 0.89837 0.0
O88 O 0.35121 0.37699 0.97174 0.0
O89 O 0.47686 0.44117 0.93602 0.0
O90 O 0.43411 0.42398 0.96129 0.0
C91 C 0.37069 0.40994 0.90414 0.0
C92 C 0.45527 0.31694 0.93618 0.0
O93 O 0.42441 0.32673 0.94715 0.0
O94 O 0.4706 0.3416 0.92314 0.0
C95 C 0.31827 0.35784 0.96889 0.0
O96 O 0.31286 0.33761 0.95131 0.0
C97 C 0.46408 0.44465 0.95469 0.0
Zn98 Zn 0.81371 0.20699 0.16752 0.0
Zn99 Zn 0.84348 0.14832 0.19369 0.0
O100 O 0.82545 0.11864 0.16705 0.0
O101 O 0.80223 0.1648 0.14546 0.0
O102 O 0.8581 0.10184 0.21325 0.0
O103 O 0.77173 0.22218 0.18855 0.0
O104 O 0.79997 0.17843 0.21038 0.0
C105 C 0.80931 0.12801 0.14951 0.0
C106 C 0.89777 0.21803 0.1805 0.0
O107 O 0.89382 0.1839 0.18969 0.0
O108 O 0.86841 0.2337 0.17061 0.0
C109 C 0.88741 0.07739 0.2108 0.0
O110 O 0.91302 0.08301 0.19524 0.0
C111 C 0.77415 0.20601 0.20655 0.0
Zn112 Zn 0.97347 0.58921 0.93342 0.0
Zn113 Zn 0.90873 0.61808 0.95256 0.0
O114 O 0.89177 0.60533 0.92188 0.0
O115 O 0.94154 0.56869 0.90905 0.0
O116 O 0.85678 0.63472 0.96726 0.0
O117 O 0.98778 0.55234 0.95653 0.0
O118 O 0.93188 0.5735 0.97202 0.0
C119 C 0.90726 0.58496 0.90685 0.0
C120 C 0.97806 0.67451 0.94356 0.0
O121 O 0.94423 0.6685 0.95263 0.0
O122 O 0.99566 0.64628 0.93367 0.0
C123 C 0.82917 0.60868 0.9704 0.0
O124 O 0.83448 0.57136 0.96396 0.0
C125 C 0.9634 0.55134 0.9718 0.0
Zn126 Zn 0.16755 0.21025 0.66539 0.0
Zn127 Zn 0.1528 0.14702 0.69233 0.0
O128 O 0.17544 0.12112 0.66553 0.0
O129 O 0.19146 0.17127 0.64452 0.0
O130 O 0.14496 0.09812 0.71131 0.0
O131 O 0.20276 0.2356 0.68724 0.0
O132 O 0.1923 0.18335 0.70836 0.0
C133 C 0.19093 0.13373 0.64837 0.0
C134 C 0.08407 0.203 0.67826 0.0
O135 O 0.09681 0.17336 0.68928 0.0
O136 O 0.10775 0.22234 0.66623 0.0
C137 C 0.11645 0.07293 0.70838 0.0
O138 O 0.08992 0.07967 0.69338 0.0
C139 C 0.20865 0.21744 0.70451 0.0
Zn140 Zn 0.55477 0.40303 0.42389 0.0
Zn141 Zn 0.61553 0.37944 0.45041 0.0
O142 O 0.64366 0.39583 0.42269 0.0
O143 O 0.59547 0.41712 0.40173 0.0
O144 O 0.66204 0.36745 0.47055 0.0
O145 O 0.53604 0.44459 0.44429 0.0
O146 O 0.58343 0.42302 0.46611 0.0
C147 C 0.63262 0.41098 0.40515 0.0
C148 C 0.54962 0.31965 0.43836 0.0
O149 O 0.58246 0.32713 0.44814 0.0
O150 O 0.53285 0.34642 0.42707 0.0
C151 C 0.69424 0.38845 0.46954 0.0
O152 O 0.69707 0.41731 0.4554 0.0
C153 C 0.55353 0.44591 0.46196 0.0
Zn154 Zn 0.32703 0.78911 0.17662 0.0
Zn155 Zn 0.34645 0.85448 0.20038 0.0
O156 O 0.32908 0.87754 0.17159 0.0
O157 O 0.31026 0.82538 0.15275 0.0
O158 O 0.35474 0.9049 0.21812 0.0
O159 O 0.28752 0.76978 0.19809 0.0
O160 O 0.30445 0.82249 0.21752 0.0
C161 C 0.31463 0.86322 0.15454 0.0
C162 C 0.41058 0.79148 0.19071 0.0
O163 O 0.40095 0.82481 0.19946 0.0
O164 O 0.38496 0.77168 0.18008 0.0
C165 C 0.38186 0.93133 0.21463 0.0
O166 O 0.40773 0.92583 0.19918 0.0
C167 C 0.28445 0.78997 0.21491 0.0
Zn168 Zn 0.9582 0.43089 0.57534 0.0
Zn169 Zn 0.90385 0.40553 0.54615 0.0
O170 O 0.87036 0.4186 0.57245 0.0
O171 O 0.91325 0.43867 0.59651 0.0
O172 O 0.86033 0.39653 0.52409 0.0
O173 O 0.97789 0.47607 0.55717 0.0
O174 O 0.9385 0.44997 0.53262 0.0
C175 C 0.87721 0.43139 0.59101 0.0
C176 C 0.9694 0.34797 0.55979 0.0
O177 O 0.93656 0.35346 0.54963 0.0
O178 O 0.98442 0.37616 0.57081 0.0
C179 C 0.82985 0.37375 0.52693 0.0
O180 O 0.82703 0.35221 0.54426 0.0
C181 C 0.96535 0.47521 0.53836 0.0
Zn182 Zn 0.31845 0.20457 0.3118 0.0
Zn183 Zn 0.3425 0.14802 0.28404 0.0
O184 O 0.33501 0.11755 0.31188 0.0
O185 O 0.31657 0.16371 0.33495 0.0
O186 O 0.353 0.1021 0.2635 0.0
O187 O 0.27105 0.22082 0.29451 0.0
O188 O 0.29498 0.17851 0.27069 0.0
C189 C 0.32695 0.12787 0.33074 0.0
C190 C 0.39959 0.2163 0.29548 0.0
O191 O 0.39371 0.18325 0.28557 0.0
O192 O 0.37197 0.23177 0.3067 0.0
C193 C 0.38089 0.07622 0.26636 0.0
O194 O 0.40606 0.08076 0.28218 0.0
C195 C 0.26975 0.20552 0.27629 0.0
Zn196 Zn 0.54302 0.57528 0.05481 0.0
Zn197 Zn 0.60619 0.60058 0.03562 0.0
O198 O 0.61987 0.5916 0.06715 0.0
O199 O 0.57246 0.55164 0.07942 0.0
O200 O 0.6609 0.60563 0.02125 0.0
O201 O 0.52151 0.53973 0.03299 0.0
O202 O 0.57793 0.55745 0.01695 0.0
C203 C 0.60485 0.57103 0.08223 0.0
C204 C 0.5433 0.66173 0.04408 0.0
O205 O 0.57603 0.65439 0.03417 0.0
O206 O 0.52557 0.63407 0.0544 0.0
C207 C 0.67819 0.63721 0.01422 0.0
O208 O 0.66077 0.67262 0.01638 0.0
C209 C 0.54493 0.53756 0.01737 0.0
Zn210 Zn 0.1541 0.79173 0.80376 0.0
Zn211 Zn 0.1378 0.84996 0.77566 0.0
O212 O 0.14697 0.87886 0.80394 0.0
O213 O 0.1621 0.8314 0.82696 0.0
O214 O 0.13359 0.89734 0.75537 0.0
O215 O 0.19929 0.76895 0.78722 0.0
O216 O 0.1825 0.81407 0.76306 0.0
C217 C 0.15551 0.8681 0.82269 0.0
C218 C 0.07341 0.78816 0.78535 0.0
O219 O 0.08318 0.82024 0.7754 0.0
O220 O 0.09812 0.77119 0.79777 0.0
C221 C 0.10931 0.92637 0.75894 0.0
O222 O 0.08467 0.92422 0.77514 0.0
C223 C 0.20365 0.78398 0.76907 0.0
Zn224 Zn 0.54613 0.90459 0.57263 0.0
Zn225 Zn 0.60246 0.89062 0.54167 0.0
O226 O 0.63487 0.91123 0.56709 0.0
O227 O 0.58998 0.92565 0.59141 0.0
O228 O 0.64605 0.88546 0.51915 0.0
O229 O 0.51618 0.9425 0.55394 0.0
O230 O 0.56131 0.93018 0.52899 0.0
C231 C 0.62637 0.92507 0.58527 0.0
C232 C 0.5497 0.82162 0.5577 0.0
O233 O 0.57765 0.83423 0.54549 0.0
O234 O 0.53289 0.84516 0.57077 0.0
C235 C 0.67683 0.8629 0.52169 0.0
O236 O 0.67972 0.84053 0.53874 0.0
C237 C 0.52932 0.94774 0.53543 0.0
Zn238 Zn 0.33819 0.28879 0.81011 0.0
Zn239 Zn 0.36466 0.35284 0.78688 0.0
O240 O 0.34031 0.37594 0.81426 0.0
O241 O 0.31713 0.32516 0.83282 0.0
O242 O 0.376 0.40452 0.77033 0.0
O243 O 0.30234 0.27145 0.78665 0.0
O244 O 0.32585 0.32207 0.76746 0.0
C245 C 0.32181 0.36284 0.83052 0.0
C246 C 0.42432 0.28769 0.80046 0.0
O247 O 0.418 0.32119 0.79097 0.0
O248 O 0.39586 0.26941 0.80982 0.0
C249 C 0.40217 0.41065 0.75598 0.0
O250 O 0.42728 0.38165 0.75069 0.0
C251 C 0.30352 0.29096 0.76953 0.0
Zn252 Zn 0.96335 0.08837 0.07132 0.0
Zn253 Zn 0.91122 0.11404 0.04033 0.0
O254 O 0.8756 0.09267 0.06419 0.0
O255 O 0.9159 0.07249 0.08946 0.0
O256 O 0.86894 0.12592 0.01776 0.0
O257 O 0.98838 0.04869 0.05183 0.0
O258 O 0.94947 0.07309 0.02648 0.0
C259 C 0.88049 0.07669 0.08224 0.0
C260 C 0.97176 0.1731 0.05893 0.0
O261 O 0.94122 0.16681 0.04708 0.0
O262 O 0.98613 0.14492 0.0702 0.0
C263 C 0.8368 0.14539 0.02213 0.0
O264 O 0.8326 0.16152 0.04091 0.0
C265 C 0.97771 0.04976 0.03272 0.0
Zn266 Zn 0.15075 0.70998 0.3194 0.0
Zn267 Zn 0.12697 0.65014 0.29259 0.0
O268 O 0.14692 0.62081 0.31933 0.0
O269 O 0.16691 0.66843 0.34092 0.0
O270 O 0.11594 0.60372 0.27237 0.0
O271 O 0.19072 0.7308 0.29847 0.0
O272 O 0.16844 0.68432 0.27635 0.0
C273 C 0.16248 0.63125 0.33685 0.0
C274 C 0.06642 0.71409 0.30628 0.0
O275 O 0.07377 0.68151 0.29623 0.0
O276 O 0.09364 0.73099 0.31719 0.0
C277 C 0.09406 0.57325 0.27684 0.0
O278 O 0.07542 0.57163 0.29511 0.0
C279 C 0.19091 0.71458 0.28045 0.0
Zn280 Zn 0.55352 0.08279 0.93301 0.0
Zn281 Zn 0.61461 0.1133 0.95658 0.0
O282 O 0.6408 0.09193 0.92921 0.0
O283 O 0.5922 0.06488 0.91056 0.0
O284 O 0.66357 0.12765 0.9746 0.0
O285 O 0.53658 0.04596 0.95616 0.0
O286 O 0.58535 0.07223 0.97555 0.0
C287 C 0.62932 0.07285 0.91283 0.0
C288 C 0.54621 0.16847 0.94239 0.0
O289 O 0.5797 0.16446 0.9522 0.0
O290 O 0.5302 0.13879 0.93297 0.0
C291 C 0.69516 0.14566 0.96802 0.0
O292 O 0.6965 0.15938 0.9486 0.0
C293 C 0.5555 0.04831 0.97339 0.0
Zn294 Zn 0.13616 0.29884 0.17508 0.0
Zn295 Zn 0.1151 0.35765 0.20337 0.0
O296 O 0.14181 0.38776 0.1786 0.0
O297 O 0.16196 0.34082 0.15661 0.0
O298 O 0.10517 0.40302 0.22439 0.0
O299 O 0.16916 0.27127 0.19713 0.0
O300 O 0.15245 0.31947 0.21964 0.0
C301 C 0.16028 0.37771 0.16178 0.0
C302 C 0.05066 0.30189 0.18463 0.0
O303 O 0.06021 0.33072 0.19703 0.0
O304 O 0.07703 0.28496 0.17317 0.0
C305 C 0.08972 0.43686 0.21927 0.0
O306 O 0.07672 0.44249 0.19993 0.0
C307 C 0.17086 0.28673 0.21531 0.0
Zn308 Zn 0.96115 0.92676 0.43654 0.0
Zn309 Zn 0.89922 0.89521 0.456 0.0
O310 O 0.87993 0.90738 0.42564 0.0
O311 O 0.92587 0.94942 0.41384 0.0
O312 O 0.84837 0.88074 0.47254 0.0
O313 O 0.978 0.96234 0.45956 0.0
O314 O 0.92157 0.94158 0.47456 0.0
C315 C 0.89305 0.93073 0.41118 0.0
C316 C 0.96987 0.84143 0.44567 0.0
O317 O 0.93674 0.84582 0.45573 0.0
O318 O 0.98494 0.87052 0.43531 0.0
C319 C 0.81485 0.86838 0.46513 0.0
O320 O 0.81131 0.86125 0.44485 0.0
C321 C 0.95311 0.96367 0.47458 0.0
Zn322 Zn 0.33443 0.6953 0.66858 0.0
Zn323 Zn 0.36559 0.63853 0.69508 0.0
O324 O 0.34577 0.608 0.66882 0.0
O325 O 0.32151 0.65306 0.64694 0.0
O326 O 0.38076 0.59213 0.7148 0.0
O327 O 0.29369 0.71181 0.68979 0.0
O328 O 0.32348 0.67013 0.71218 0.0
C329 C 0.32881 0.6165 0.65136 0.0
C330 C 0.41882 0.70771 0.68023 0.0
O331 O 0.41578 0.67395 0.68991 0.0
O332 O 0.3888 0.72252 0.67055 0.0
C333 C 0.39925 0.56077 0.7083 0.0
O334 O 0.41246 0.55943 0.6888 0.0
C335 C 0.29749 0.69746 0.70814 0.0
Zn336 Zn 0.45803 0.08174 0.43476 0.0
Zn337 Zn 0.39611 0.11199 0.45498 0.0
O338 O 0.37717 0.09951 0.42471 0.0
O339 O 0.42394 0.05972 0.41147 0.0
O340 O 0.34467 0.12579 0.47096 0.0
O341 O 0.47583 0.04615 0.4577 0.0
O342 O 0.42055 0.06705 0.47378 0.0
C343 C 0.39048 0.07775 0.40968 0.0
C344 C 0.46454 0.16764 0.44389 0.0
O345 O 0.4318 0.16265 0.45421 0.0
O346 O 0.48015 0.13869 0.43367 0.0
C347 C 0.31384 0.14361 0.4634 0.0
O348 O 0.31426 0.15643 0.4438 0.0
C349 C 0.45231 0.04528 0.47333 0.0
Zn350 Zn 0.65096 0.71164 0.1806 0.0
Zn351 Zn 0.62922 0.65396 0.2085 0.0
O352 O 0.64108 0.62397 0.18088 0.0
O353 O 0.65909 0.67054 0.1579 0.0
O354 O 0.62032 0.60756 0.22903 0.0
O355 O 0.6947 0.73248 0.19912 0.0
O356 O 0.67341 0.68808 0.22266 0.0
C357 C 0.65088 0.63416 0.16222 0.0
C358 C 0.56817 0.71758 0.19567 0.0
O359 O 0.57587 0.68553 0.20614 0.0
O360 O 0.59501 0.73416 0.18434 0.0
C361 C 0.59938 0.57674 0.22405 0.0
O362 O 0.58058 0.57596 0.20583 0.0
C363 C 0.6962 0.71747 0.21742 0.0
Zn364 Zn 0.05076 0.91764 0.93198 0.0
Zn365 Zn 0.11593 0.89374 0.95031 0.0
O366 O 0.12958 0.90334 0.9188 0.0
O367 O 0.08 0.94179 0.90752 0.0
O368 O 0.16906 0.88381 0.96542 0.0
O369 O 0.03116 0.95287 0.95445 0.0
O370 O 0.08992 0.93818 0.96896 0.0
C371 C 0.11301 0.92383 0.90413 0.0
C372 C 0.05158 0.83245 0.94284 0.0
O373 O 0.08447 0.84097 0.95226 0.0
O374 O 0.03303 0.85904 0.9322 0.0
C375 C 0.20152 0.86987 0.95752 0.0
O376 O 0.20277 0.85993 0.93749 0.0
C377 C 0.05634 0.95707 0.96916 0.0
Zn378 Zn 0.8374 0.27625 0.67386 0.0
Zn379 Zn 0.86532 0.33427 0.70121 0.0
O380 O 0.84176 0.36501 0.67617 0.0
O381 O 0.82008 0.32022 0.65352 0.0
O382 O 0.87915 0.38052 0.72101 0.0
O383 O 0.79934 0.25606 0.69608 0.0
O384 O 0.82531 0.30028 0.71839 0.0
C385 C 0.82456 0.35685 0.65878 0.0
C386 C 0.92353 0.27132 0.68366 0.0
O387 O 0.9176 0.3034 0.6944 0.0
O388 O 0.89453 0.25428 0.67412 0.0
C389 C 0.89496 0.41311 0.7142 0.0
O390 O 0.90664 0.41543 0.69445 0.0
C391 C 0.80142 0.27112 0.71436 0.0
Zn392 Zn 0.46197 0.89848 0.06946 0.0
Zn393 Zn 0.4093 0.8847 0.03707 0.0
O394 O 0.37329 0.89837 0.06245 0.0
O395 O 0.41476 0.90823 0.08891 0.0
O396 O 0.3683 0.88111 0.01341 0.0
O397 O 0.48811 0.94397 0.05368 0.0
O398 O 0.44822 0.92871 0.02691 0.0
C399 C 0.37906 0.90673 0.08177 0.0
C400 C 0.46733 0.81843 0.05025 0.0
O401 O 0.43747 0.82959 0.03895 0.0
O402 O 0.48254 0.84206 0.06381 0.0
C403 C 0.33851 0.85687 0.01415 0.0
O404 O 0.33562 0.83109 0.02983 0.0
C405 C 0.47709 0.94916 0.03479 0.0
Zn406 Zn 0.83875 0.69779 0.80282 0.0
Zn407 Zn 0.86157 0.63806 0.77778 0.0
O408 O 0.85522 0.61245 0.80719 0.0
O409 O 0.83647 0.66214 0.82808 0.0
O410 O 0.87074 0.58914 0.75898 0.0
O411 O 0.79092 0.71299 0.78602 0.0
O412 O 0.81394 0.66762 0.76354 0.0
C413 C 0.84687 0.62576 0.82552 0.0
C414 C 0.91908 0.70748 0.78513 0.0
O415 O 0.91322 0.67277 0.77692 0.0
O416 O 0.89171 0.72441 0.79594 0.0
C417 C 0.89444 0.56036 0.76395 0.0
O418 O 0.91592 0.56284 0.78131 0.0
C419 C 0.78927 0.69577 0.7683 0.0
Zn420 Zn 0.04948 0.10846 0.57145 0.0
Zn421 Zn 0.09999 0.12541 0.5381 0.0
O422 O 0.13682 0.10397 0.56142 0.0
O423 O 0.09713 0.08738 0.58773 0.0
O424 O 0.14048 0.13239 0.51431 0.0
O425 O 0.01766 0.0707 0.55351 0.0
O426 O 0.05824 0.08516 0.52679 0.0
C427 C 0.13211 0.08892 0.57969 0.0
C428 C 0.04865 0.1923 0.55731 0.0
O429 O 0.07485 0.18102 0.54378 0.0
O430 O 0.03462 0.16767 0.57076 0.0
C431 C 0.17271 0.15249 0.51746 0.0
O432 O 0.17749 0.17174 0.53538 0.0
C433 C 0.02794 0.06642 0.53446 0.0
Zn434 Zn 0.64107 0.28435 0.31146 0.0
Zn435 Zn 0.62405 0.34922 0.28611 0.0
O436 O 0.6491 0.37332 0.31288 0.0
O437 O 0.66429 0.3219 0.33317 0.0
O438 O 0.61602 0.39898 0.26786 0.0
O439 O 0.67664 0.2615 0.28911 0.0
O440 O 0.66211 0.31376 0.26869 0.0
C441 C 0.66478 0.35958 0.32973 0.0
C442 C 0.55694 0.29105 0.29925 0.0
O443 O 0.56808 0.32287 0.28948 0.0
O444 O 0.58191 0.27069 0.31003 0.0
C445 C 0.59897 0.43074 0.27485 0.0
O446 O 0.58409 0.43095 0.29405 0.0
C447 C 0.68007 0.28025 0.27184 0.0
C448 C 0.99439 0.5461 0.00737 0.0
C449 C 0.97465 0.52701 0.99022 0.0
C450 C 0.99499 0.46042 0.00306 0.0
C451 C 0.01491 0.47947 0.0202 0.0
N452 N 0.02831 0.53898 0.04103 0.0
N453 N 0.94872 0.46731 0.97352 0.0
C454 C 0.01271 0.5219 0.02316 0.0
C455 C 0.97266 0.48445 0.98864 0.0
N456 N 0.99754 0.58732 0.00787 0.0
N457 N 0.99784 0.41946 0.00049 0.0
H458 H 0.93172 0.48453 0.96296 0.0
H459 H 0.9429 0.4365 0.97246 0.0
H460 H 0.01202 0.40053 0.01136 0.0
H461 H 0.98797 0.40418 0.98713 0.0
H462 H 0.01592 0.60299 0.01835 0.0
H463 H 0.98328 0.60616 -0.00302 0.0
H464 H 0.02344 0.56891 0.04535 0.0
H465 H 0.04435 0.52262 0.05233 0.0
C466 C 0.70028 0.76315 0.24855 0.0
C467 C 0.72033 0.73832 0.23354 0.0
C468 C 0.78596 0.75636 0.24846 0.0
C469 C 0.76609 0.78312 0.26256 0.0
N470 N 0.70581 0.81649 0.27465 0.0
N471 N 0.78159 0.71451 0.21718 0.0
C472 C 0.72359 0.78764 0.2623 0.0
C473 C 0.76303 0.73597 0.23286 0.0
N474 N 0.65897 0.76336 0.24959 0.0
N475 N 0.82645 0.74908 0.25063 0.0
H476 H 0.76572 0.69724 0.20621 0.0
H477 H 0.81251 0.71563 0.21424 0.0
H478 H 0.84445 0.76352 0.26181 0.0
H479 H 0.84182 0.72655 0.24247 0.0
H480 H 0.64269 0.77688 0.26172 0.0
H481 H 0.64056 0.748 0.23896 0.0
H482 H 0.67548 0.8245 0.27368 0.0
H483 H 0.72217 0.83492 0.2849 0.0
C484 C 0.50905 0.45089 0.4934 0.0
C485 C 0.53516 0.47015 0.47876 0.0
C486 C 0.51892 0.53635 0.49355 0.0
C487 C 0.49467 0.51684 0.509 0.0
N488 N 0.46939 0.45611 0.52542 0.0
N489 N 0.56935 0.52943 0.46594 0.0
C490 C 0.49062 0.47422 0.50948 0.0
C491 C 0.54124 0.51246 0.47906 0.0
N492 N 0.50064 0.41057 0.49137 0.0
N493 N 0.52053 0.57765 0.49278 0.0
H494 H 0.58603 0.51258 0.45509 0.0
H495 H 0.57843 0.55947 0.46672 0.0
H496 H 0.5064 0.59623 0.50381 0.0
H497 H 0.53391 0.59383 0.48056 0.0
H498 H 0.47831 0.39568 0.49992 0.0
H499 H 0.51413 0.39218 0.48002 0.0
H500 H 0.46955 0.42513 0.52823 0.0
H501 H 0.45314 0.4723 0.5367 0.0
C502 C 0.78751 0.215 0.73967 0.0
C503 C 0.77681 0.25338 0.73132 0.0
C504 C 0.71553 0.25453 0.75283 0.0
C505 C 0.72767 0.21758 0.76227 0.0
N506 N 0.77677 0.16463 0.76698 0.0
N507 N 0.73408 0.31239 0.73145 0.0
C508 C 0.76402 0.19818 0.75626 0.0
C509 C 0.74189 0.27405 0.73841 0.0
N510 N 0.82002 0.19462 0.73165 0.0
N511 N 0.678 0.26998 0.75696 0.0
H512 H 0.75174 0.32704 0.72016 0.0
H513 H 0.71179 0.33085 0.73787 0.0
H514 H 0.65758 0.25632 0.76728 0.0
H515 H 0.66557 0.29438 0.74888 0.0
H516 H 0.8266 0.16463 0.7352 0.0
H517 H 0.83951 0.207 0.72044 0.0
H518 H 0.8051 0.15155 0.76501 0.0
H519 H 0.75998 0.15127 0.77904 0.0
C520 C 0.96865 0.53548 0.51474 0.0
C521 C 0.98638 0.49938 0.52231 0.0
C522 C 0.04263 0.50642 0.49743 0.0
C523 C 0.0258 0.54347 0.49054 0.0
N524 N 0.97771 0.59758 0.495 0.0
N525 N 0.04224 0.45241 0.52327 0.0
C526 C 0.99014 0.55926 0.49986 0.0
C527 C 0.02412 0.48552 0.51444 0.0
N528 N 0.93104 0.5466 0.52153 0.0
N529 N 0.07516 0.49039 0.48707 0.0
H530 H 0.02872 0.43489 0.535 0.0
H531 H 0.07175 0.4436 0.51998 0.0
H532 H 0.08983 0.5052 0.47472 0.0
H533 H 0.08606 0.46132 0.48966 0.0
H534 H 0.91445 0.57006 0.51484 0.0
H535 H 0.91512 0.5306 0.53302 0.0
H536 H 0.95438 0.61243 0.50281 0.0
H537 H 0.993 0.6161 0.48432 0.0
C538 C 0.75861 0.76434 0.72351 0.0
C539 C 0.71617 0.75945 0.72397 0.0
C540 C 0.72145 0.71106 0.75305 0.0
C541 C 0.76407 0.71437 0.75189 0.0
N542 N 0.8242 0.74053 0.73497 0.0
N543 N 0.65668 0.72518 0.73671 0.0
C544 C 0.78296 0.73976 0.7367 0.0
C545 C 0.69736 0.732 0.73808 0.0
N546 N 0.7754 0.79363 0.71101 0.0
N547 N 0.70415 0.6884 0.76868 0.0
H548 H 0.63798 0.74075 0.72626 0.0
H549 H 0.64169 0.70242 0.74492 0.0
H550 H 0.72101 0.67085 0.77914 0.0
H551 H 0.67336 0.68844 0.77201 0.0
H552 H 0.80567 0.80203 0.7116 0.0
H553 H 0.75839 0.812 0.70101 0.0
H554 H 0.83956 0.75442 0.72262 0.0
H555 H 0.84352 0.72519 0.74517 0.0
C556 C 0.48857 0.51128 0.96793 0.0
C557 C 0.48789 0.46861 0.96964 0.0
C558 C 0.5311 0.47104 0.00086 0.0
C559 C 0.53177 0.51368 -0.00083 0.0
N560 N 0.51846 0.5745 0.97939 0.0
N561 N 0.51567 0.4071 0.98415 0.0
C562 C 0.51307 0.53383 0.98202 0.0
C563 C 0.51132 0.44819 0.98506 0.0
N564 N 0.4643 0.53018 0.95352 0.0
N565 N 0.54857 0.45257 0.01786 0.0
H566 H 0.50185 0.38929 0.97268 0.0
H567 H 0.53562 0.39089 0.9936 0.0
H568 H 0.56562 0.46828 0.029 0.0
H569 H 0.54467 0.42214 0.0215 0.0
H570 H 0.45997 0.5613 0.95292 0.0
H571 H 0.44605 0.51447 0.94292 0.0
H572 H 0.50892 0.59039 0.96613 0.0
H573 H 0.53541 0.59211 0.98975 0.0
C574 C 0.70754 0.21968 0.22339 0.0
C575 C 0.75017 0.22316 0.22383 0.0
C576 C 0.74685 0.26263 0.25637 0.0
C577 C 0.70415 0.2619 0.25497 0.0
N578 N 0.64306 0.24363 0.23655 0.0
N579 N 0.81061 0.25318 0.23837 0.0
C580 C 0.68421 0.24165 0.23824 0.0
C581 C 0.76999 0.24584 0.23975 0.0
N582 N 0.68961 0.1942 0.20923 0.0
N583 N 0.76523 0.2792 0.27363 0.0
H584 H 0.82881 0.24176 0.22635 0.0
H585 H 0.82589 0.27332 0.24812 0.0
H586 H 0.74937 0.29392 0.28559 0.0
H587 H 0.79593 0.27615 0.27681 0.0
H588 H 0.65901 0.18703 0.20942 0.0
H589 H 0.706 0.17745 0.19823 0.0
H590 H 0.62706 0.23339 0.22348 0.0
H591 H 0.62477 0.25795 0.24766 0.0
C592 C 0.29586 0.2394 0.74133 0.0
C593 C 0.28132 0.27486 0.75137 0.0
C594 C 0.21869 0.27179 0.73112 0.0
C595 C 0.23371 0.23705 0.72061 0.0
N596 N 0.28841 0.19147 0.71267 0.0
N597 N 0.23302 0.3291 0.75374 0.0
C598 C 0.27284 0.22181 0.72486 0.0
C599 C 0.24404 0.29253 0.74552 0.0
N600 N 0.33143 0.22233 0.74777 0.0
N601 N 0.17956 0.28375 0.72802 0.0
H602 H 0.25049 0.34455 0.76479 0.0
H603 H 0.20828 0.34567 0.74847 0.0
H604 H 0.15996 0.26918 0.71764 0.0
H605 H 0.16537 0.3061 0.73688 0.0
H606 H 0.34123 0.19387 0.74303 0.0
H607 H 0.35057 0.23586 0.75876 0.0
H608 H 0.31831 0.18188 0.71342 0.0
H609 H 0.27216 0.17763 0.70058 0.0
C610 C 0.19461 0.75476 0.2472 0.0
C611 C 0.21481 0.73353 0.26355 0.0
C612 C 0.28042 0.75472 0.24962 0.0
C613 C 0.2603 0.77313 0.23231 0.0
N614 N 0.19915 0.78772 0.21313 0.0
N615 N 0.27611 0.70862 0.27933 0.0
C616 C 0.21762 0.77221 0.23065 0.0
C617 C 0.25753 0.73243 0.26458 0.0
N618 N 0.1536 0.7598 0.24804 0.0
N619 N 0.3214 0.75844 0.25169 0.0
H620 H 0.26017 0.69176 0.29048 0.0
H621 H 0.30701 0.7029 0.27958 0.0
H622 H 0.33965 0.77253 0.24048 0.0
H623 H 0.33724 0.74989 0.26514 0.0
H624 H 0.13761 0.77873 0.23793 0.0
H625 H 0.1356 0.74755 0.25993 0.0
H626 H 0.1687 0.78347 0.2097 0.0
H627 H 0.2148 0.80305 0.20129 0.0
C628 C 0.2019 0.2181 0.26033 0.0
C629 C 0.24415 0.22497 0.26034 0.0
C630 C 0.23728 0.27568 0.23244 0.0
C631 C 0.19552 0.26676 0.23143 0.0
N632 N 0.13783 0.22754 0.24237 0.0
N633 N 0.30339 0.25725 0.24566 0.0
C634 C 0.17767 0.23746 0.24485 0.0
C635 C 0.26227 0.25282 0.24612 0.0
N636 N 0.18507 0.19353 0.2753 0.0
N637 N 0.25271 0.30685 0.22073 0.0
H638 H 0.32282 0.24307 0.25627 0.0
H639 H 0.31879 0.27314 0.23399 0.0
H640 H 0.23531 0.32386 0.21026 0.0
H641 H 0.28191 0.31801 0.2224 0.0
H642 H 0.15411 0.19066 0.27769 0.0
H643 H 0.20227 0.17747 0.28625 0.0
H644 H 0.12392 0.20343 0.25001 0.0
H645 H 0.11892 0.24208 0.23161 0.0
C646 C 0.27083 0.76367 0.75475 0.0
C647 C 0.22816 0.76173 0.75371 0.0
C648 C 0.23186 0.71112 0.72566 0.0
C649 C 0.27427 0.71618 0.72524 0.0
N650 N 0.33453 0.75022 0.73732 0.0
N651 N 0.16705 0.73589 0.73779 0.0
C652 C 0.29401 0.74297 0.73936 0.0
C653 C 0.20834 0.73612 0.73902 0.0
N654 N 0.28908 0.78512 0.77051 0.0
N655 N 0.21439 0.68147 0.71372 0.0
H656 H 0.14847 0.75196 0.74809 0.0
H657 H 0.15098 0.72167 0.72581 0.0
H658 H 0.23107 0.66244 0.7039 0.0
H659 H 0.18412 0.6733 0.71479 0.0
H660 H 0.31993 0.78386 0.77363 0.0
H661 H 0.27298 0.80231 0.78144 0.0
H662 H 0.34972 0.77292 0.74545 0.0
H663 H 0.35278 0.73544 0.72637 0.0
C664 C 0.50507 0.01519 0.5233 0.0
C665 C 0.50565 0.97265 0.5208 0.0
C666 C 0.46405 0.97757 0.48909 0.0
C667 C 0.46382 0.02013 0.49143 0.0
N668 N 0.47661 0.07948 0.51245 0.0
N669 N 0.4791 0.91231 0.50464 0.0
C670 C 0.48165 0.03893 0.50923 0.0
C671 C 0.48308 0.95346 0.50468 0.0
N672 N 0.52859 0.03291 0.53844 0.0
N673 N 0.4469 0.96043 0.47164 0.0
H674 H 0.49278 0.89369 0.51584 0.0
H675 H 0.4598 0.89668 0.49459 0.0
H676 H 0.43025 0.97706 0.46068 0.0
H677 H 0.45044 0.93021 0.46752 0.0
H678 H 0.53319 0.06391 0.53962 0.0
H679 H 0.54598 0.01638 0.54911 0.0
H680 H 0.48536 0.09433 0.52616 0.0
H681 H 0.46073 0.09807 0.50209 0.0
C682 C 0.04346 0.02371 0.98585 0.0
C683 C 0.04408 0.98108 0.98747 0.0
C684 C 0.001 0.98332 0.01873 0.0
C685 C 0.00084 0.02606 0.01732 0.0
N686 N 0.02929 0.08749 0.00301 0.0
N687 N 0.03126 0.92029 0.00735 0.0
C688 C 0.02426 0.04651 0.00188 0.0
C689 C 0.02559 0.9609 0.00466 0.0
N690 N 0.06037 0.04221 0.9687 0.0
N691 N 0.97598 0.96417 0.03271 0.0
H692 H 0.04851 0.90281 -0.00295 0.0
H693 H 0.02188 0.90449 0.02068 0.0
H694 H 0.95703 0.97963 0.04309 0.0
H695 H 0.97141 0.93306 0.03294 0.0
H696 H 0.05649 0.07271 0.9652 0.0
H697 H 0.07681 0.02644 0.95732 0.0
H698 H 0.04929 0.10353 0.99349 0.0
H699 H 0.01612 0.10525 0.01472 0.0
C700 C 0.50382 0.0403 0.0014 0.0
C701 C 0.53963 0.02605 0.99165 0.0
C702 C 0.53839 0.96514 0.01346 0.0
C703 C 0.49989 0.97706 0.02121 0.0
N704 N 0.44481 0.0246 0.02258 0.0
N705 N 0.59128 0.97555 0.98743 0.0
C706 C 0.48235 0.01441 0.01528 0.0
C707 C 0.55738 0.98888 -0.00237 0.0
N708 N 0.49093 0.07891 -0.0024 0.0
N709 N 0.5565 0.93098 0.0211 0.0
H710 H 0.60661 0.99293 0.97626 0.0
H711 H 0.60321 0.94665 0.98914 0.0
H712 H 0.54265 0.91154 0.03185 0.0
H713 H 0.58625 0.92295 0.01786 0.0
H714 H 0.46724 0.09264 0.00567 0.0
H715 H 0.5062 0.09869 0.98755 0.0
H716 H 0.42819 0.04901 0.01694 0.0
H717 H 0.42912 0.00727 0.03363 0.0
C718 C 0.00371 0.99787 0.52413 0.0
C719 C 0.00353 0.04026 0.52082 0.0
C720 C 0.96162 0.0325 0.4894 0.0
C721 C 0.96255 0.99011 0.49245 0.0
N722 N 0.97574 0.93258 0.51472 0.0
N723 N 0.97503 0.09896 0.50387 0.0
C724 C 0.98045 0.97288 0.51063 0.0
C725 C 0.98015 0.05795 0.50453 0.0
N726 N 0.02799 0.98142 0.53934 0.0
N727 N 0.94402 0.04813 0.47167 0.0
H728 H 0.98815 0.11848 0.51481 0.0
H729 H 0.95526 0.1135 0.49361 0.0
H730 H 0.92785 0.03036 0.46102 0.0
H731 H 0.94669 0.0782 0.46706 0.0
H732 H 0.03306 0.95055 0.54098 0.0
H733 H 0.04561 0.99876 0.54951 0.0
H734 H 0.98471 0.91886 0.52873 0.0
H735 H 0.95965 0.91326 0.50484 0.0
C736 C 0.00253 0.23238 0.03974 0.0
C737 C 0.99241 0.21298 0.05905 0.0
C738 C 0.03035 0.26479 0.07832 0.0
C739 C 0.03441 0.28736 0.05944 0.0
N740 N 0.01807 0.29564 0.02252 0.0
N741 N 0.99179 0.21429 0.09718 0.0
C742 C 0.01891 0.272 0.04019 0.0
C743 C 0.00514 0.23008 0.07851 0.0
N744 N 0.99867 0.2124 0.02099 0.0
N745 N 0.05099 0.27635 0.09598 0.0
H746 H 0.97022 0.1914 0.09809 0.0
H747 H 0.99908 0.22636 0.11182 0.0
H748 H 0.07033 0.30125 0.0962 0.0
H749 H 0.05237 0.25905 0.10969 0.0
H750 H 0.00943 0.22401 0.00678 0.0
H751 H 0.98913 0.18249 0.01986 0.0
H752 H 0.00288 0.28727 0.00881 0.0
H753 H 0.02927 0.32505 0.02206 0.0
C754 C 0.00682 0.74626 0.32368 0.0
C755 C 0.02641 0.73405 0.30485 0.0
C756 C 0.97175 0.76448 0.2841 0.0
C757 C 0.95502 0.78081 0.30286 0.0
N758 N 0.96207 0.79468 0.34005 0.0
N759 N 0.03175 0.73906 0.26687 0.0
C760 C 0.97411 0.77381 0.32254 0.0
C761 C 0.01005 0.7451 0.28493 0.0
N762 N 0.0186 0.73055 0.34266 0.0
N763 N 0.95055 0.76599 0.26563 0.0
H764 H 0.06036 0.72596 0.26665 0.0
H765 H 0.02299 0.75063 0.25228 0.0
H766 H 0.92216 0.77939 0.26432 0.0
H767 H 0.95949 0.75062 0.25208 0.0
H768 H 0.0028 0.73552 0.35663 0.0
H769 H 0.04151 0.70907 0.34407 0.0
H770 H 0.97768 0.79368 0.3543 0.0
H771 H 0.93921 0.81638 0.33973 0.0
C772 C 0.50235 0.72516 0.53635 0.0
C773 C 0.49573 0.70364 0.55544 0.0
C774 C 0.53395 0.75535 0.57467 0.0
C775 C 0.53476 0.77959 0.55625 0.0
N776 N 0.51334 0.79041 0.52022 0.0
N777 N 0.50028 0.70134 0.59349 0.0
C778 C 0.51733 0.76529 0.53722 0.0
C779 C 0.51035 0.7195 0.57483 0.0
N780 N 0.49643 0.70676 0.51731 0.0
N781 N 0.55614 0.76644 0.59191 0.0
H782 H 0.47983 0.67748 0.59456 0.0
H783 H 0.50919 0.7121 0.60815 0.0
H784 H 0.57425 0.79225 0.59213 0.0
H785 H 0.55994 0.74818 0.60514 0.0
H786 H 0.50472 0.71999 0.50303 0.0
H787 H 0.48765 0.67667 0.51579 0.0
H788 H 0.49669 0.78268 0.50688 0.0
H789 H 0.5234 0.82024 0.52012 0.0
C790 C 0.51478 0.23056 0.82118 0.0
C791 C 0.53664 0.22242 0.80245 0.0
C792 C 0.48429 0.25698 0.78179 0.0
C793 C 0.46491 0.26877 0.80081 0.0
N794 N 0.46701 0.27435 0.83871 0.0
N795 N 0.54627 0.23445 0.7652 0.0
C796 C 0.48172 0.25773 0.82055 0.0
C797 C 0.52255 0.23738 0.78278 0.0
N798 N 0.52463 0.21114 0.83949 0.0
N799 N 0.46552 0.26279 0.76284 0.0
H800 H 0.57455 0.22058 0.76522 0.0
H801 H 0.53942 0.24883 0.75103 0.0
H802 H 0.4374 0.27669 0.76137 0.0
H803 H 0.47626 0.25069 0.74875 0.0
H804 H 0.50662 0.21241 0.85294 0.0
H805 H 0.54819 0.19027 0.84053 0.0
H806 H 0.48103 0.27068 0.85329 0.0
H807 H 0.44351 0.29537 0.83887 0.0
C808 C 0.00113 0.78359 0.42623 0.0
C809 C 0.99137 0.80221 0.44573 0.0
C810 C 0.02253 0.74578 0.46478 0.0
C811 C 0.03529 0.72908 0.44526 0.0
N812 N 0.04472 0.73675 0.40777 0.0
N813 N 0.00051 0.80563 0.48347 0.0
C814 C 0.02706 0.7495 0.42609 0.0
C815 C 0.0043 0.78467 0.46502 0.0
N816 N 0.98411 0.79724 0.40792 0.0
N817 N 0.02583 0.72382 0.48297 0.0
H818 H 0.98789 0.83446 0.48431 0.0
H819 H 0.01334 0.79605 0.49761 0.0
H820 H 0.03862 0.69507 0.48358 0.0
H821 H 0.01272 0.7327 0.49716 0.0
H822 H 0.98687 0.7821 0.39361 0.0
H823 H 0.96376 0.82128 0.40738 0.0
H824 H 0.04294 0.75283 0.39367 0.0
H825 H 0.06464 0.71234 0.40719 0.0
C826 C 0.51448 0.75872 0.70049 0.0
C827 C 0.52815 0.77847 0.68193 0.0
C828 C 0.47214 0.74907 0.66195 0.0
C829 C 0.45697 0.73133 0.68082 0.0
N830 N 0.4575 0.72993 0.71897 0.0
N831 N 0.51552 0.80018 0.64631 0.0
C832 C 0.47632 0.73917 0.70039 0.0
C833 C 0.50536 0.7762 0.66307 0.0
N834 N 0.53856 0.75687 0.71797 0.0
N835 N 0.45594 0.73867 0.64289 0.0
H836 H 0.5395 0.82063 0.64684 0.0
H837 H 0.49808 0.80284 0.63273 0.0
H838 H 0.43432 0.71602 0.64111 0.0
H839 H 0.46621 0.74986 0.62854 0.0
H840 H 0.53195 0.73867 0.73094 0.0
H841 H 0.56677 0.77072 0.71891 0.0
H842 H 0.46861 0.73889 0.73361 0.0
H843 H 0.42869 0.71735 0.7198 0.0
C844 C 0.51318 0.22303 0.92152 0.0
C845 C 0.52491 0.20779 0.94148 0.0
C846 C 0.49079 0.26476 0.95863 0.0
C847 C 0.47528 0.27716 0.93874 0.0
N848 N 0.46409 0.26198 0.90201 0.0
N849 N 0.51801 0.20967 0.9794 0.0
C850 C 0.48422 0.25443 0.9204 0.0
C851 C 0.51185 0.22738 0.96019 0.0
N852 N 0.53088 0.20859 0.90357 0.0
N853 N 0.48726 0.28934 0.97584 0.0
H854 H 0.53291 0.18215 0.98127 0.0
H855 H 0.50517 0.22055 0.99328 0.0
H856 H 0.47256 0.31715 0.97548 0.0
H857 H 0.50204 0.28369 0.99004 0.0
H858 H 0.52657 0.22188 0.88885 0.0
H859 H 0.55333 0.18646 0.90373 0.0
H860 H 0.4665 0.2434 0.88882 0.0
H861 H 0.44163 0.28397 0.90074 0.0
C862 C 0.99368 0.26554 0.20261 0.0
C863 C 0.0092 0.28517 0.18442 0.0
C864 C 0.9533 0.25836 0.16333 0.0
C865 C 0.93638 0.2408 0.18183 0.0
N866 N 0.9347 0.23819 0.21995 0.0
N867 N 0.99993 0.30766 0.14865 0.0
C868 C 0.95488 0.24738 0.20175 0.0
C869 C 0.9876 0.28403 0.16514 0.0
N870 N 0.01663 0.26245 0.22046 0.0
N871 N 0.93769 0.24911 0.14397 0.0
H872 H 0.02478 0.32698 0.14964 0.0
H873 H 0.9836 0.31117 0.13475 0.0
H874 H 0.91518 0.22752 0.14173 0.0
H875 H 0.9491 0.26019 0.12983 0.0
H876 H 0.00859 0.24425 0.23321 0.0
H877 H 0.0453 0.27515 0.22191 0.0
H878 H 0.94523 0.24629 0.23484 0.0
H879 H 0.90545 0.22655 0.22021 0.0
C880 C 0.00796 0.73328 0.96312 0.0
C881 C 0.99665 0.71506 0.94376 0.0
C882 C 0.02799 0.77057 0.92423 0.0
C883 C 0.03505 0.79105 0.9435 0.0
N884 N 0.02591 0.79513 0.98122 0.0
N885 N 0.9884 0.72018 0.90601 0.0
C886 C 0.02358 0.77328 0.96298 0.0
C887 C 0.00462 0.73473 0.92432 0.0
N888 N 0.00514 0.71194 0.98153 0.0
N889 N 0.04471 0.78464 0.90591 0.0
H890 H 0.96976 0.69481 0.90552 0.0
H891 H 0.9899 0.73561 0.89171 0.0
H892 H 0.06312 0.81021 0.90529 0.0
H893 H 0.04381 0.7687 0.89177 0.0
H894 H 0.01701 0.72214 -0.00424 0.0
H895 H 0.99413 0.68245 0.98226 0.0
H896 H 0.0138 0.78524 -0.00451 0.0
H897 H 0.03682 0.82466 0.9818 0.0
C898 C 0.98672 0.24557 0.70121 0.0
C899 C 0.96441 0.2529 0.68246 0.0
C900 C 0.01718 0.21871 0.66189 0.0
C901 C 0.04177 0.21696 0.68016 0.0
N902 N 0.05266 0.23509 0.71663 0.0
N903 N 0.96102 0.25142 0.64437 0.0
C904 C 0.0273 0.23201 0.6997 0.0
C905 C 0.98026 0.24063 0.66261 0.0
N906 N 0.96869 0.24955 0.72049 0.0
N907 N 0.02895 0.19897 0.64398 0.0
H908 H 0.93594 0.27046 0.64401 0.0
H909 H 0.97184 0.24459 0.62941 0.0
H910 H 0.05567 0.18234 0.64305 0.0
H911 H 0.01063 0.19569 0.63075 0.0
H912 H 0.98248 0.24059 0.7345 0.0
H913 H 0.93844 0.25749 0.7224 0.0
H914 H 0.04478 0.25014 0.73045 0.0
H915 H 0.08279 0.22595 0.71626 0.0
C916 C 0.51898 0.25864 0.42165 0.0
C917 C 0.52975 0.27974 0.44026 0.0
C918 C 0.49905 0.22615 0.46169 0.0
C919 C 0.48458 0.20755 0.44302 0.0
N920 N 0.47295 0.21118 0.4055 0.0
N921 N 0.5229 0.28775 0.478 0.0
C922 C 0.49231 0.22527 0.42305 0.0
C923 C 0.51792 0.26466 0.46034 0.0
N924 N 0.53529 0.26964 0.40267 0.0
N925 N 0.49622 0.2065 0.4806 0.0
H926 H 0.5359 0.31643 0.47776 0.0
H927 H 0.51075 0.28002 0.49262 0.0
H928 H 0.48285 0.17815 0.48228 0.0
H929 H 0.51028 0.21674 0.49428 0.0
H930 H 0.53148 0.25286 0.38893 0.0
H931 H 0.55611 0.29312 0.40109 0.0
H932 H 0.47451 0.22544 0.39087 0.0
H933 H 0.4518 0.18785 0.40606 0.0
C934 C 0.46872 0.76583 0.21263 0.0
C935 C 0.45198 0.77501 0.19255 0.0
C936 C 0.50792 0.73994 0.17529 0.0
C937 C 0.52698 0.73478 0.19514 0.0
N938 N 0.52897 0.74886 0.23245 0.0
N939 N 0.4602 0.77875 0.15477 0.0
C940 C 0.50836 0.74935 0.21379 0.0
C941 C 0.47294 0.76437 0.17387 0.0
N942 N 0.44624 0.77104 0.2305 0.0
N943 N 0.5224 0.72029 0.15789 0.0
H944 H 0.43545 0.79802 0.15314 0.0
H945 H 0.47667 0.77512 0.14089 0.0
H946 H 0.54723 0.70091 0.15839 0.0
H947 H 0.50727 0.71983 0.14348 0.0
H948 H 0.45535 0.76067 0.24526 0.0
H949 H 0.41693 0.78253 0.23039 0.0
H950 H 0.51857 0.76317 0.24603 0.0
H951 H 0.55805 0.7371 0.23395 0.0
C952 C 0.00682 0.29116 0.57754 0.0
C953 C 0.99087 0.30858 0.55879 0.0
C954 C 0.01346 0.24957 0.53869 0.0
C955 C 0.03243 0.23399 0.55706 0.0
N956 N 0.05573 0.2449 0.59261 0.0
N957 N 0.99013 0.30946 0.52064 0.0
C958 C 0.03191 0.25648 0.57607 0.0
C959 C 0.9974 0.28932 0.53907 0.0
N960 N 0.99651 0.30645 0.59683 0.0
N961 N 0.00884 0.22597 0.52119 0.0
H962 H 0.98055 0.33944 0.52007 0.0
H963 H 0.99812 0.29792 0.50593 0.0
H964 H 0.01911 0.19627 0.52024 0.0
H965 H 0.9913 0.23467 0.50832 0.0
H966 H 0.00622 0.29411 0.61103 0.0
H967 H 0.97495 0.32907 0.59885 0.0
H968 H 0.05951 0.26219 0.60618 0.0
H969 H 0.07513 0.22009 0.59185 0.0
C970 C 0.45829 0.24933 0.27697 0.0
C971 C 0.43995 0.23544 0.29584 0.0
C972 C 0.49397 0.2665 0.31657 0.0
C973 C 0.51493 0.27598 0.29771 0.0
N974 N 0.52032 0.26973 0.25979 0.0
N975 N 0.44494 0.22298 0.33332 0.0
C976 C 0.49796 0.26582 0.2778 0.0
C977 C 0.45904 0.24189 0.31559 0.0
N978 N 0.4375 0.24789 0.25838 0.0
N979 N 0.50693 0.28183 0.33539 0.0
H980 H 0.42034 0.20329 0.33321 0.0
H981 H 0.46023 0.22339 0.34767 0.0
H982 H 0.5318 0.30108 0.33663 0.0
H983 H 0.4906 0.27897 0.34937 0.0
H984 H 0.44773 0.2616 0.24459 0.0
H985 H 0.40838 0.23609 0.25717 0.0
H986 H 0.51098 0.25851 0.24525 0.0
H987 H 0.54974 0.2809 0.25959 0.0
C988 C 0.49888 0.76363 0.02797 0.0
C989 C 0.48508 0.77758 0.04791 0.0
C990 C 0.51722 0.71975 0.06502 0.0
C991 C 0.52624 0.70303 0.04498 0.0
N992 N 0.51923 0.70581 0.0071 0.0
N993 N 0.47308 0.76367 0.08481 0.0
C994 C 0.51535 0.72404 0.02632 0.0
C995 C 0.4919 0.75408 0.06628 0.0
N996 N 0.49813 0.78862 0.0108 0.0
N997 N 0.5341 0.70376 0.08284 0.0
H998 H 0.4527 0.78757 0.08618 0.0
H999 H 0.47423 0.74525 0.09813 0.0
H1000 H 0.55475 0.67996 0.08244 0.0
H1001 H 0.53129 0.71706 0.09765 0.0
H1002 H 0.51172 0.78126 -0.00351 0.0
H1003 H 0.48747 0.81823 0.01136 0.0
H1004 H 0.50765 0.71819 0.99325 0.0
H1005 H 0.53077 0.67673 0.00521 0.0
C1006 C 0.97747 0.73763 0.76481 0.0
C1007 C 0.95919 0.72714 0.78432 0.0
C1008 C 0.01091 0.7652 0.80327 0.0
C1009 C 0.03212 0.77129 0.78413 0.0
N1010 N 0.03874 0.75847 0.74682 0.0
N1011 N 0.96417 0.72278 0.8223 0.0
C1012 C 0.01624 0.75636 0.76486 0.0
C1013 C 0.97751 0.73864 0.80362 0.0
N1014 N 0.95733 0.73105 0.74633 0.0
N1015 N 0.02209 0.78564 0.82107 0.0
H1016 H 0.94092 0.70158 0.82324 0.0
H1017 H 0.97911 0.7272 0.83657 0.0
H1018 H 0.04566 0.80659 0.82126 0.0
H1019 H 0.00524 0.78513 0.83495 0.0
H1020 H 0.96735 0.74195 0.73183 0.0
H1021 H 0.92888 0.71757 0.7457 0.0
H1022 H 0.03057 0.74408 0.73286 0.0
H1023 H 0.06714 0.77203 0.74621 0.0
C1024 C 0.26764 0.39889 0.98951 0.0
C1025 C 0.28475 0.36068 0.98454 0.0
C1026 C 0.23348 0.32746 0.00665 0.0
C1027 C 0.21901 0.36585 0.01323 0.0
N1028 N 0.22777 0.43824 0.01409 0.0
N1029 N 0.28837 0.28902 0.99115 0.0
C1030 C 0.23757 0.40164 0.00552 0.0
C1031 C 0.26885 0.32504 0.99388 0.0
N1032 N 0.27871 0.43241 0.97829 0.0
N1033 N 0.21251 0.29331 0.0119 0.0
H1034 H 0.31457 0.28613 0.98213 0.0
H1035 H 0.28081 0.26282 -0.00064 0.0
H1036 H 0.18615 0.29384 0.02091 0.0
H1037 H 0.21904 0.26491 0.00572 0.0
H1038 H 0.26402 0.46013 0.97963 0.0
H1039 H 0.29997 0.43174 0.96616 0.0
H1040 H 0.24349 0.46475 0.01073 0.0
H1041 H 0.2065 0.44162 0.02609 0.0
C1042 C 0.89078 0.0487 0.24746 0.0
C1043 C 0.89182 0.04224 0.22537 0.0
C1044 C 0.89952 0.96923 0.23165 0.0
C1045 C 0.893 0.97543 0.25353 0.0
N1046 N 0.87298 0.0209 0.28141 0.0
N1047 N 0.89014 0.99508 0.19627 0.0
C1048 C 0.8862 0.01516 0.26124 0.0
C1049 C 0.89449 0.00215 0.21737 0.0
N1050 N 0.89534 0.08681 0.2554 0.0
N1051 N 0.91166 0.93222 0.22451 0.0
H1052 H 0.8855 0.01798 0.18528 0.0
H1053 H 0.88731 0.96621 0.18991 0.0
H1054 H 0.91617 0.90755 0.23449 0.0
H1055 H 0.92095 0.92706 0.20906 0.0
H1056 H 0.89877 0.09265 0.27144 0.0
H1057 H 0.90013 0.11208 0.24587 0.0
H1058 H 0.86381 0.04892 0.28717 0.0
H1059 H 0.86655 0.99705 0.29157 0.0
C1060 C 0.24835 0.68178 0.49119 0.0
C1061 C 0.23069 0.64587 0.48313 0.0
C1062 C 0.28028 0.60521 0.50261 0.0
C1063 C 0.30002 0.64112 0.50925 0.0
N1064 N 0.30688 0.71351 0.50723 0.0
N1065 N 0.23492 0.57388 0.47754 0.0
C1066 C 0.28514 0.67944 0.50281 0.0
C1067 C 0.24809 0.6077 0.48782 0.0
N1068 N 0.22917 0.71797 0.4884 0.0
N1069 N 0.29099 0.56879 0.51114 0.0
H1070 H 0.21187 0.57439 0.46634 0.0
H1071 H 0.24943 0.54602 0.47858 0.0
H1072 H 0.31396 0.56552 0.52225 0.0
H1073 H 0.27462 0.54232 0.5087 0.0
H1074 H 0.23806 0.74456 0.49582 0.0
H1075 H 0.20223 0.72085 0.48001 0.0
H1076 H 0.3 0.74186 0.50108 0.0
H1077 H 0.33398 0.71291 0.51562 0.0
C1078 C 0.6021 0.98628 0.76876 0.0
C1079 C 0.59864 0.0264 0.76089 0.0
C1080 C 0.59784 0.99987 0.72473 0.0
C1081 C 0.59735 0.95968 0.73269 0.0
N1082 N 0.59001 0.91507 0.76256 0.0
N1083 N 0.58398 0.07051 0.73156 0.0
C1084 C 0.59687 0.953 0.7548 0.0
C1085 C 0.59384 0.03294 0.73891 0.0
N1086 N 0.61236 0.97975 0.78935 0.0
N1087 N 0.60411 0.00673 0.70373 0.0
H1088 H 0.57963 0.0953 0.74144 0.0
H1089 H 0.57601 0.07611 0.71594 0.0
H1090 H 0.60833 0.98361 0.69283 0.0
H1091 H 0.60918 0.0354 0.69746 0.0
H1092 H 0.61961 0.95133 0.79532 0.0
H1093 H 0.6176 0.00308 0.79999 0.0
H1094 H 0.58514 0.90918 0.7785 0.0
H1095 H 0.58502 0.89008 0.75291 0.0
C1096 C 0.72256 0.64573 0.98214 0.0
C1097 C 0.71805 0.63351 0.00351 0.0
C1098 C 0.78691 0.60573 0.00325 0.0
C1099 C 0.79197 0.6195 0.98221 0.0
N1100 N 0.76783 0.65869 0.95275 0.0
N1101 N 0.74846 0.60983 0.03577 0.0
C1102 C 0.76086 0.64168 0.97207 0.0
C1103 C 0.75098 0.6157 0.01445 0.0
N1104 N 0.68967 0.65885 0.97103 0.0
N1105 N 0.81634 0.58272 0.01248 0.0
H1106 H 0.72302 0.61764 0.04458 0.0
H1107 H 0.77274 0.60082 0.04507 0.0
H1108 H 0.84409 0.57684 0.00531 0.0
H1109 H 0.81243 0.56748 0.0267 0.0
H1110 H 0.68992 0.6638 0.95481 0.0
H1111 H 0.66094 0.66158 0.97761 0.0
H1112 H 0.74813 0.67901 0.9456 0.0
H1113 H 0.79485 0.65493 0.94451 0.0
C1114 C 0.10625 0.96163 0.72371 0.0
C1115 C 0.11093 0.96379 0.74592 0.0
C1116 C 0.11417 0.03782 0.74364 0.0
C1117 C 0.11406 0.03537 0.7213 0.0
N1118 N 0.11825 0.99389 0.69003 0.0
N1119 N 0.12832 0.00356 0.77653 0.0
C1120 C 0.1123 0.99697 0.71129 0.0
C1121 C 0.11733 0.0018 0.75577 0.0
N1122 N 0.09459 0.92619 0.71448 0.0
N1123 N 0.10967 0.07439 0.75336 0.0
H1124 H 0.1325 0.97794 0.78586 0.0
H1125 H 0.13743 0.03017 0.78389 0.0
H1126 H 0.10608 0.1014 0.74509 0.0
H1127 H 0.10532 0.07741 0.76955 0.0
H1128 H 0.08654 0.924 0.69865 0.0
H1129 H 0.08913 0.89982 0.72303 0.0
H1130 H 0.12164 0.96635 0.68228 0.0
H1131 H 0.12385 0.01875 0.68038 0.0
C1132 C 0.78532 0.34445 0.49867 0.0
C1133 C 0.79461 0.37679 0.51252 0.0
C1134 C 0.73697 0.41573 0.49891 0.0
C1135 C 0.72723 0.38315 0.48523 0.0
N1136 N 0.73884 0.31497 0.47329 0.0
N1137 N 0.77727 0.44095 0.52805 0.0
C1138 C 0.75031 0.34691 0.48558 0.0
C1139 C 0.76996 0.4119 0.51318 0.0
N1140 N 0.81107 0.3122 0.49744 0.0
N1141 N 0.7146 0.45049 0.4982 0.0
H1142 H 0.80191 0.44006 0.53825 0.0
H1143 H 0.75789 0.46489 0.53127 0.0
H1144 H 0.68773 0.45308 0.48973 0.0
H1145 H 0.72309 0.47742 0.50538 0.0
H1146 H 0.80884 0.28937 0.48625 0.0
H1147 H 0.83667 0.30939 0.50692 0.0
H1148 H 0.75133 0.28622 0.47438 0.0
H1149 H 0.71505 0.31644 0.46256 0.0
C1150 C 0.38046 1.00045 0.26265 0.0
C1151 C 0.38268 0.03923 0.25306 0.0
C1152 C 0.38179 0.00737 0.21813 0.0
C1153 C 0.38357 0.96859 0.22776 0.0
N1154 N 0.39379 0.92883 0.25923 0.0
N1155 N 0.39359 0.0793 0.22179 0.0
C1156 C 0.38559 0.9653 0.25005 0.0
C1157 C 0.3857 0.04261 0.23081 0.0
N1158 N 0.3714 0.99694 0.28361 0.0
N1159 N 0.37437 0.01074 0.197 0.0
H1160 H 0.39728 0.10569 0.23056 0.0
H1161 H 0.40034 0.08287 0.20585 0.0
H1162 H 0.37035 0.98585 0.1872 0.0
H1163 H 0.36835 0.03817 0.18958 0.0
H1164 H 0.36519 0.96937 0.29086 0.0
H1165 H 0.36592 0.02171 0.29334 0.0
H1166 H 0.39974 0.92551 0.27527 0.0
H1167 H 0.39882 0.90254 0.25056 0.0
C1168 C 0.76414 0.90306 0.48837 0.0
C1169 C 0.77861 0.86688 0.479 0.0
C1170 C 0.72287 0.82912 0.49542 0.0
C1171 C 0.7111 0.86449 0.50651 0.0
N1172 N 0.72497 0.93353 0.51641 0.0
N1173 N 0.77507 0.79448 0.47549 0.0
C1174 C 0.73286 0.90109 0.50372 0.0
C1175 C 0.75877 0.82961 0.48297 0.0
N1176 N 0.77926 0.93956 0.48202 0.0
N1177 N 0.699 0.79545 0.49625 0.0
H1178 H 0.80117 0.7937 0.46627 0.0
H1179 H 0.76468 0.76593 0.47976 0.0
H1180 H 0.67246 0.79409 0.5051 0.0
H1181 H 0.70351 0.77014 0.48681 0.0
H1182 H 0.76684 0.96713 0.48657 0.0
H1183 H 0.80174 0.94244 0.47059 0.0
H1184 H 0.74296 0.95934 0.51676 0.0
H1185 H 0.70267 0.93337 0.52803 0.0
C1186 C 0.36429 0.49967 0.72311 0.0
C1187 C 0.39991 0.52338 0.72134 0.0
C1188 C 0.4364 0.47469 0.74363 0.0
C1189 C 0.40171 0.44939 0.74396 0.0
N1190 N 0.33521 0.43399 0.73061 0.0
N1191 N 0.47121 0.53158 0.72756 0.0
C1192 C 0.36624 0.46096 0.73288 0.0
C1193 C 0.43642 0.51024 0.73087 0.0
N1194 N 0.32848 0.51409 0.71543 0.0
N1195 N 0.46868 0.46565 0.75621 0.0
H1196 H 0.47196 0.55868 0.71914 0.0
H1197 H 0.49969 0.52122 0.73195 0.0
H1198 H 0.46962 0.44016 0.76588 0.0
H1199 H 0.4931 0.48498 0.75845 0.0
H1200 H 0.30068 0.50058 0.71851 0.0
H1201 H 0.32594 0.54128 0.70722 0.0
H1202 H 0.31053 0.43883 0.72076 0.0
H1203 H 0.3358 0.4049 0.73693 0.0
C1204 C 0.78318 0.10854 0.00159 0.0
C1205 C 0.80199 0.14556 0.00726 0.0
C1206 C 0.74929 0.18307 0.98812 0.0
C1207 C 0.73231 0.14596 0.98125 0.0
N1208 N 0.73839 0.07365 0.97754 0.0
N1209 N 0.80714 0.21776 0.00318 0.0
C1210 C 0.75079 0.10877 0.98686 0.0
C1211 C 0.78619 0.18279 -0.00026 0.0
N1212 N 0.79484 0.07324 0.01102 0.0
N1213 N 0.72939 0.21847 0.9842 0.0
H1214 H 0.83432 0.21859 0.0115 0.0
H1215 H 0.79957 0.2453 -0.0037 0.0
H1216 H 0.70247 0.21981 0.97568 0.0
H1217 H 0.73773 0.24607 0.99074 0.0
H1218 H 0.77903 0.04622 0.00937 0.0
H1219 H 0.8181 0.07149 0.02205 0.0
H1220 H 0.75368 0.04633 0.97923 0.0
H1221 H 0.71516 0.07245 0.96646 0.0
C1222 C 0.12871 0.51684 0.25746 0.0
C1223 C 0.0926 0.53805 0.26229 0.0
C1224 C 0.05389 0.48994 0.24077 0.0
C1225 C 0.09051 0.47131 0.23432 0.0
N1226 N 0.16343 0.4722 0.23326 0.0
N1227 N 0.02148 0.54865 0.25625 0.0
C1228 C 0.12813 0.48613 0.2418 0.0
C1229 C 0.05529 0.52559 0.25336 0.0
N1230 N 0.16334 0.52487 0.26843 0.0
N1231 N 0.01775 0.47279 0.23545 0.0
H1232 H 0.02138 0.57497 0.26529 0.0
H1233 H 0.99443 0.54368 0.2483 0.0
H1234 H 0.01558 0.44666 0.22633 0.0
H1235 H 0.99013 0.48234 0.24152 0.0
H1236 H 0.18936 0.50733 0.26722 0.0
H1237 H 0.16498 0.5466 0.2803 0.0
H1238 H 0.19148 0.48513 0.23641 0.0
H1239 H 0.1645 0.45029 0.22147 0.0
C1240 C 0.22271 0.18597 0.49317 0.0
C1241 C 0.20697 0.15011 0.50234 0.0
C1242 C 0.25744 0.11003 0.48321 0.0
C1243 C 0.27617 0.14615 0.47611 0.0
N1244 N 0.2797 0.21892 0.47628 0.0
N1245 N 0.21394 0.07857 0.50911 0.0
C1246 C 0.25951 0.1843 0.48151 0.0
C1247 C 0.22544 0.11223 0.49811 0.0
N1248 N 0.20188 0.22143 0.49514 0.0
N1249 N 0.26932 0.07358 0.47518 0.0
H1250 H 0.19118 0.07871 0.52048 0.0
H1251 H 0.22954 0.05126 0.50841 0.0
H1252 H 0.29212 0.07069 0.46392 0.0
H1253 H 0.25389 0.04671 0.47807 0.0
H1254 H 0.20947 0.24773 0.48704 0.0
H1255 H 0.17476 0.22365 0.50345 0.0
H1256 H 0.27152 0.2474 0.48178 0.0
H1257 H 0.3067 0.21892 0.46779 0.0
C1258 C 0.63618 0.4863 0.25606 0.0
C1259 C 0.59893 0.46844 0.2621 0.0
C1260 C 0.56226 0.52474 0.2456 0.0
C1261 C 0.5993 0.54018 0.23769 0.0
N1262 N 0.67091 0.53117 0.23196 0.0
N1263 N 0.5262 0.46722 0.26009 0.0
C1264 C 0.63615 0.51981 0.24202 0.0
C1265 C 0.56182 0.48678 0.25623 0.0
N1266 N 0.67162 0.47228 0.26438 0.0
N1267 N 0.52768 0.54698 0.24358 0.0
H1268 H 0.52469 0.4393 0.2677 0.0
H1269 H 0.4985 0.47687 0.25417 0.0
H1270 H 0.52692 0.57504 0.23607 0.0
H1271 H 0.50057 0.53944 0.25094 0.0
H1272 H 0.6992 0.48697 0.26238 0.0
H1273 H 0.67304 0.44821 0.27498 0.0
H1274 H 0.69759 0.51456 0.23272 0.0
H1275 H 0.67224 0.55498 0.22121 0.0
C1276 C 0.25306 0.90167 0.98129 0.0
C1277 C 0.23831 0.86672 0.97087 0.0
C1278 C 0.29343 0.82678 0.98634 0.0
C1279 C 0.30493 0.86057 -0.00128 0.0
N1280 N 0.29049 0.9282 0.01093 0.0
N1281 N 0.24082 0.79449 0.9658 0.0
C1282 C 0.28345 0.89757 -0.00304 0.0
C1283 C 0.25763 0.82883 0.97391 0.0
N1284 N 0.23899 0.93903 0.97574 0.0
N1285 N 0.31733 0.7931 0.98597 0.0
H1286 H 0.2144 0.79457 0.95686 0.0
H1287 H 0.25103 0.76555 0.96945 0.0
H1288 H 0.34391 0.79067 -0.00529 0.0
H1289 H 0.31286 0.76918 0.97558 0.0
H1290 H 0.25166 0.96582 0.98125 0.0
H1291 H 0.21744 0.94346 0.96396 0.0
H1292 H 0.27259 0.95404 0.01179 0.0
H1293 H 0.31158 0.92623 0.02309 0.0
C1294 C 0.85815 0.46601 0.73522 0.0
C1295 C 0.89519 0.45006 0.72753 0.0
C1296 C 0.93136 0.50861 0.74207 0.0
C1297 C 0.89487 0.52246 0.75138 0.0
N1298 N 0.82529 0.50949 0.76064 0.0
N1299 N 0.96793 0.45256 0.72643 0.0
C1300 C 0.85873 0.4998 0.74902 0.0
C1301 C 0.93209 0.47039 0.73172 0.0
N1302 N 0.82219 0.45016 0.72859 0.0
N1303 N 0.96493 0.53264 0.74241 0.0
H1304 H 0.96961 0.42449 0.71901 0.0
H1305 H 0.99595 0.46376 0.73104 0.0
H1306 H 0.96546 0.5609 0.74967 0.0
H1307 H 0.99114 0.52623 0.73396 0.0
H1308 H 0.79437 0.46354 0.7318 0.0
H1309 H 0.82009 0.42592 0.71817 0.0
H1310 H 0.79961 0.49135 0.76129 0.0
H1311 H 0.82455 0.53347 0.77128 0.0
C1312 C 0.142 0.46061 0.12476 0.0
C1313 C 0.15521 0.43899 0.10677 0.0
C1314 C 0.19745 0.39631 0.12873 0.0
C1315 C 0.17365 0.40868 0.14616 0.0
N1316 N 0.14509 0.46721 0.16298 0.0
N1317 N 0.21262 0.40574 0.09142 0.0
C1318 C 0.15327 0.44616 0.14501 0.0
C1319 C 0.1892 0.41343 0.10864 0.0
N1320 N 0.11717 0.49312 0.12221 0.0
N1321 N 0.22635 0.36743 0.13153 0.0
H1322 H 0.20819 0.4211 0.07723 0.0
H1323 H 0.2384 0.38776 0.09172 0.0
H1324 H 0.23408 0.35718 0.14658 0.0
H1325 H 0.24246 0.35409 0.11928 0.0
H1326 H 0.10301 0.50815 0.13458 0.0
H1327 H 0.11084 0.50462 0.10722 0.0
H1328 H 0.13101 0.49531 0.16318 0.0
H1329 H 0.15668 0.4582 0.17755 0.0
C1330 C 0.89629 0.93532 0.37143 0.0
C1331 C 0.87286 0.93216 0.39025 0.0
C1332 C 0.81295 0.91847 0.36869 0.0
C1333 C 0.8374 0.92062 0.35039 0.0
N1334 N 0.89401 0.95548 0.33498 0.0
N1335 N 0.80611 0.93555 0.40575 0.0
C1336 C 0.87602 0.93807 0.35201 0.0
C1337 C 0.83008 0.92864 0.3886 0.0
N1338 N 0.9374 0.93134 0.37142 0.0
N1339 N 0.77393 0.9057 0.36698 0.0
H1340 H 0.81768 0.94539 0.42015 0.0
H1341 H 0.77467 0.93584 0.40502 0.0
H1342 H 0.7605 0.90087 0.35229 0.0
H1343 H 0.75576 0.89892 0.37992 0.0
H1344 H 0.95422 0.93102 0.3575 0.0
H1345 H 0.95419 0.92231 0.38445 0.0
H1346 H 0.92195 0.96996 0.3359 0.0
H1347 H 0.87811 0.96038 0.32107 0.0
C1348 C 0.30545 0.59546 0.61527 0.0
C1349 C 0.32482 0.58534 0.63449 0.0
C1350 C 0.3682 0.53762 0.61615 0.0
C1351 C 0.3581 0.5578 0.59714 0.0
N1352 N 0.30157 0.58361 0.57744 0.0
N1353 N 0.35332 0.52932 0.65351 0.0
C1354 C 0.32124 0.57944 0.5962 0.0
C1355 C 0.34928 0.5503 0.63512 0.0
N1356 N 0.27295 0.6208 0.61548 0.0
N1357 N 0.39617 0.50737 0.61588 0.0
H1358 H 0.33612 0.5365 0.66679 0.0
H1359 H 0.36978 0.50268 0.65496 0.0
H1360 H 0.40695 0.49542 0.60172 0.0
H1361 H 0.40825 0.49423 0.62939 0.0
H1362 H 0.25987 0.63297 0.60198 0.0
H1363 H 0.25908 0.62926 0.62959 0.0
H1364 H 0.27393 0.59821 0.57572 0.0
H1365 H 0.31103 0.56819 0.56397 0.0
C1366 C 0.70247 0.10606 0.87227 0.0
C1367 C 0.67968 0.093 0.85459 0.0
C1368 C 0.64381 0.04463 0.8767 0.0
C1369 C 0.65721 0.06675 0.89453 0.0
N1370 N 0.71616 0.09756 0.90974 0.0
N1371 N 0.65003 0.03386 0.83889 0.0
C1372 C 0.69237 0.09076 0.89255 0.0
C1373 C 0.65712 0.05681 0.85634 0.0
N1374 N 0.73304 0.13321 0.86951 0.0
N1375 N 0.6183 0.01267 0.87943 0.0
H1376 H 0.66403 0.04007 0.82451 0.0
H1377 H 0.63485 0.00635 0.83917 0.0
H1378 H 0.61231 0.00086 0.89438 0.0
H1379 H 0.60356 0.99796 0.86715 0.0
H1380 H 0.74801 0.14757 0.88182 0.0
H1381 H 0.74338 0.14104 0.85449 0.0
H1382 H 0.74304 0.11383 0.9093 0.0
H1383 H 0.71114 0.08263 0.924 0.0
C1384 C 0.14503 0.56663 0.35599 0.0
C1385 C 0.16989 0.60128 0.35406 0.0
C1386 C 0.18476 0.59737 0.39176 0.0
C1387 C 0.14823 0.57568 0.39421 0.0
N1388 N 0.10452 0.52498 0.37959 0.0
N1389 N 0.22611 0.63828 0.36828 0.0
C1390 C 0.13224 0.55493 0.37653 0.0
C1391 C 0.19448 0.61253 0.37141 0.0
N1392 N 0.13476 0.54497 0.33851 0.0
N1393 N 0.20989 0.60247 0.40858 0.0
H1394 H 0.23548 0.64643 0.35313 0.0
H1395 H 0.24268 0.65137 0.38042 0.0
H1396 H 0.20476 0.58772 0.42289 0.0
H1397 H 0.23773 0.61697 0.40773 0.0
H1398 H 0.11737 0.5188 0.33887 0.0
H1399 H 0.14794 0.55059 0.32386 0.0
H1400 H 0.0882 0.51136 0.36752 0.0
H1401 H 0.09823 0.51381 0.39465 0.0
C1402 C 0.66362 0.94155 0.63913 0.0
C1403 C 0.68525 0.90477 0.63943 0.0
C1404 C 0.69361 0.90912 0.60129 0.0
C1405 C 0.65853 0.9335 0.60104 0.0
N1406 N 0.62141 0.98642 0.61817 0.0
N1407 N 0.73636 0.86493 0.62243 0.0
C1408 C 0.64797 0.95504 0.61952 0.0
C1409 C 0.70616 0.89281 0.62095 0.0
N1410 N 0.65842 0.96286 0.65729 0.0
N1411 N 0.71398 0.90173 0.58301 0.0
H1412 H 0.74703 0.85523 0.63709 0.0
H1413 H 0.75066 0.85186 0.60951 0.0
H1414 H 0.70656 0.91664 0.56903 0.0
H1415 H 0.74024 0.88456 0.58209 0.0
H1416 H 0.64426 0.9909 0.65795 0.0
H1417 H 0.67258 0.9542 0.67129 0.0
H1418 H 0.609 0.00098 0.6312 0.0
H1419 H 0.61175 0.99737 0.60356 0.0
C1420 C 0.29321 0.37465 0.86683 0.0
C1421 C 0.3127 0.39025 0.84863 0.0
C1422 C 0.34788 0.43987 0.87001 0.0
C1423 C 0.33876 0.41582 0.88789 0.0
N1424 N 0.28584 0.37828 0.90502 0.0
N1425 N 0.33558 0.45215 0.83272 0.0
C1426 C 0.30546 0.38906 0.88696 0.0
C1427 C 0.33242 0.42804 0.85009 0.0
N1428 N 0.2638 0.3461 0.86461 0.0
N1429 N 0.37257 0.4726 0.87219 0.0
H1430 H 0.32089 0.44498 0.81866 0.0
H1431 H 0.34841 0.48086 0.8329 0.0
H1432 H 0.38162 0.48276 0.88705 0.0
H1433 H 0.38413 0.48908 0.85957 0.0
H1434 H 0.25076 0.33041 0.87709 0.0
H1435 H 0.25202 0.33885 0.84981 0.0
H1436 H 0.26108 0.35897 0.90554 0.0
H1437 H 0.29181 0.3925 0.91935 0.0
C1438 C 0.82911 0.0614 0.13371 0.0
C1439 C 0.80655 0.09756 0.13223 0.0
C1440 C 0.80968 0.09287 0.09391 0.0
C1441 C 0.84531 0.06969 0.09648 0.0
N1442 N 0.8782 0.01766 0.11665 0.0
N1443 N 0.75967 0.13554 0.11111 0.0
C1444 C 0.85105 0.04859 0.1157 0.0
C1445 C 0.79112 0.10902 0.11226 0.0
N1446 N 0.82865 0.03957 0.15194 0.0
N1447 N 0.79371 0.09833 0.0743 0.0
H1448 H 0.7435 0.14398 0.12455 0.0
H1449 H 0.74956 0.1486 0.09715 0.0
H1450 H 0.80489 0.08278 0.06125 0.0
H1451 H 0.76716 0.11417 0.07135 0.0
H1452 H 0.84264 0.01159 0.1536 0.0
H1453 H 0.81001 0.04759 0.16455 0.0
H1454 H 0.88725 0.00391 0.13064 0.0
H1455 H 0.8916 0.00602 0.10303 0.0
C1456 C 0.83515 0.59048 0.86005 0.0
C1457 C 0.86212 0.60426 0.84423 0.0
C1458 C 0.91727 0.60602 0.86956 0.0
C1459 C 0.89131 0.58962 0.88524 0.0
N1460 N 0.82735 0.55995 0.89472 0.0
N1461 N 0.93115 0.61423 0.83258 0.0
C1462 C 0.85069 0.57978 0.88027 0.0
C1463 C 0.90399 0.60768 0.84848 0.0
N1464 N 0.79475 0.58866 0.85584 0.0
N1465 N 0.95322 0.6237 0.87497 0.0
H1466 H 0.92319 0.61735 0.8168 0.0
H1467 H 0.96231 0.61266 0.83486 0.0
H1468 H 0.96336 0.62659 0.89043 0.0
H1469 H 0.97076 0.64018 0.86436 0.0
H1470 H 0.77287 0.58322 0.8673 0.0
H1471 H 0.78311 0.59438 0.84083 0.0
H1472 H 0.7986 0.54889 0.89142 0.0
H1473 H 0.83812 0.55176 0.90958 0.0
C1474 C 0.16126 0.05568 0.61151 0.0
C1475 C 0.16741 0.07981 0.59336 0.0
C1476 C 0.21706 0.12016 0.612 0.0
C1477 C 0.20034 0.10501 0.63099 0.0
N1478 N 0.18011 0.04338 0.64804 0.0
N1479 N 0.21818 0.11566 0.57366 0.0
C1480 C 0.18049 0.06725 0.63053 0.0
C1481 C 0.20151 0.10552 0.5926 0.0
N1482 N 0.1353 0.02376 0.61061 0.0
N1483 N 0.24608 0.14934 0.61285 0.0
H1484 H 0.20876 0.10196 0.55969 0.0
H1485 H 0.24362 0.13385 0.57201 0.0
H1486 H 0.25905 0.15786 0.62719 0.0
H1487 H 0.2571 0.16465 0.59971 0.0
H1488 H 0.12604 0.00736 0.62378 0.0
H1489 H 0.1228 0.01438 0.59631 0.0
H1490 H 0.16778 0.01446 0.64832 0.0
H1491 H 0.19639 0.05121 0.66153 0.0
C1492 C 0.69307 0.38705 0.38467 0.0
C1493 C 0.66129 0.41524 0.38716 0.0
C1494 C 0.66036 0.4259 0.34908 0.0
C1495 C 0.67805 0.38718 0.34699 0.0
N1496 N 0.72694 0.34047 0.36081 0.0
N1497 N 0.62728 0.47318 0.37283 0.0
C1498 C 0.70019 0.37115 0.3642 0.0
C1499 C 0.64965 0.43912 0.36962 0.0
N1500 N 0.71615 0.37632 0.40157 0.0
N1501 N 0.65477 0.44965 0.33174 0.0
H1502 H 0.6221 0.48436 0.38799 0.0
H1503 H 0.61394 0.48984 0.36078 0.0
H1504 H 0.66667 0.44182 0.31707 0.0
H1505 H 0.64299 0.47878 0.3323 0.0
H1506 H 0.74045 0.35645 0.40077 0.0
H1507 H 0.71369 0.39121 0.41598 0.0
H1508 H 0.74116 0.32432 0.37277 0.0
H1509 H 0.7349 0.33155 0.34556 0.0
C1510 C 0.31238 0.88284 0.0969 0.0
C1511 C 0.34482 0.91104 0.09693 0.0
C1512 C 0.33092 0.9264 0.13394 0.0
C1513 C 0.31052 0.889 0.13529 0.0
N1514 N 0.26277 0.84599 0.11797 0.0
N1515 N 0.37503 0.96939 0.11304 0.0
C1516 C 0.29481 0.87183 0.11658 0.0
C1517 C 0.3502 0.93661 0.11465 0.0
N1518 N 0.29953 0.86604 0.07845 0.0
N1519 N 0.33051 0.95214 0.15071 0.0
H1520 H 0.38679 0.9787 0.09854 0.0
H1521 H 0.38419 0.98678 0.12584 0.0
H1522 H 0.31306 0.94627 0.16408 0.0
H1523 H 0.34306 0.98096 0.15041 0.0
H1524 H 0.27976 0.84169 0.07751 0.0
H1525 H 0.30695 0.87817 0.06381 0.0
H1526 H 0.24863 0.83257 0.10513 0.0
H1527 H 0.24829 0.84062 0.13234 0.0
C1528 C 0.79947 0.38043 0.6232 0.0
C1529 C 0.81697 0.38965 0.64301 0.0
C1530 C 0.85231 0.44705 0.62761 0.0
C1531 C 0.84496 0.42994 0.6075 0.0
N1532 N 0.79267 0.39986 0.58636 0.0
N1533 N 0.8359 0.44577 0.665 0.0
C1534 C 0.8121 0.40285 0.60524 0.0
C1535 C 0.83555 0.42786 0.64564 0.0
N1536 N 0.77134 0.35045 0.62174 0.0
N1537 N 0.87579 0.48075 0.62927 0.0
H1538 H 0.81988 0.43359 0.67768 0.0
H1539 H 0.84765 0.47441 0.66785 0.0
H1540 H 0.88474 0.49709 0.61596 0.0
H1541 H 0.88621 0.49221 0.64354 0.0
H1542 H 0.76075 0.3389 0.60753 0.0
H1543 H 0.75832 0.33756 0.63515 0.0
H1544 H 0.76763 0.38156 0.58374 0.0
H1545 H 0.79889 0.41976 0.57404 0.0
C1546 C 0.31633 0.08877 0.36419 0.0
C1547 C 0.34274 0.10347 0.34834 0.0
C1548 C 0.39957 0.10045 0.37262 0.0
C1549 C 0.37393 0.08363 0.38831 0.0
N1550 N 0.30958 0.05547 0.39823 0.0
N1551 N 0.41145 0.11232 0.33576 0.0
C1552 C 0.33272 0.07564 0.38382 0.0
C1553 C 0.38501 0.10489 0.35189 0.0
N1554 N 0.27566 0.08851 0.36061 0.0
N1555 N 0.43657 0.11611 0.37782 0.0
H1556 H 0.40281 0.11802 0.32031 0.0
H1557 H 0.44261 0.10903 0.33741 0.0
H1558 H 0.44806 0.11675 0.39309 0.0
H1559 H 0.45399 0.13315 0.3674 0.0
H1560 H 0.25428 0.08249 0.37224 0.0
H1561 H 0.26335 0.09601 0.34596 0.0
H1562 H 0.28023 0.04576 0.39524 0.0
H1563 H 0.321 0.04568 0.4127 0.0
C1564 C 0.5984 0.60574 0.13898 0.0
C1565 C 0.63986 0.60768 0.14446 0.0
C1566 C 0.65773 0.57614 0.11072 0.0
C1567 C 0.61702 0.58049 0.1041 0.0
N1568 N 0.55091 0.60996 0.11051 0.0
N1569 N 0.70962 0.59615 0.13579 0.0
C1570 C 0.58776 0.59754 0.1179 0.0
C1571 C 0.66979 0.59298 0.13043 0.0
N1572 N 0.56892 0.6135 0.15355 0.0
N1573 N 0.68453 0.55576 0.09827 0.0
H1574 H 0.71889 0.60649 0.15056 0.0
H1575 H 0.73323 0.59023 0.12539 0.0
H1576 H 0.6763 0.54316 0.08382 0.0
H1577 H 0.71381 0.54862 0.10295 0.0
H1578 H 0.53843 0.60775 0.15071 0.0
H1579 H 0.57456 0.62213 0.16902 0.0
H1580 H 0.53075 0.62702 0.11946 0.0
H1581 H 0.54207 0.60812 0.0948 0.0
C1582 C 0.17651 0.90694 0.85478 0.0
C1583 C 0.14589 0.89493 0.84049 0.0
C1584 C 0.09492 0.90196 0.86776 0.0
C1585 C 0.12479 0.91651 0.88198 0.0
N1586 N 0.19279 0.93981 0.88798 0.0
N1587 N 0.07485 0.89388 0.83157 0.0
C1588 C 0.16533 0.92137 0.87514 0.0
C1589 C 0.10475 0.89764 0.84629 0.0
N1590 N 0.2161 0.90341 0.84903 0.0
N1591 N 0.05845 0.88804 0.87493 0.0
H1592 H 0.08038 0.88968 0.81557 0.0
H1593 H 0.04452 0.89928 0.83503 0.0
H1594 H 0.05087 0.88585 0.89082 0.0
H1595 H 0.03767 0.87336 0.86526 0.0
H1596 H 0.24007 0.90732 0.85945 0.0
H1597 H 0.22467 0.89487 0.83383 0.0
H1598 H 0.22199 0.94715 0.88322 0.0
H1599 H 0.18519 0.95074 0.9029 0.0
loop_
_geom_bond_atom_site_label_1
_geom_bond_atom_site_label_2
_geom_bond_distance
_geom_bond_site_symmetry_2
_ccdc_geom_bond_type
Zn0 O3 2.031 . S
Zn0 O5 2.049 . S
Zn0 O10 2.067 . S
Zn1 O2 1.962 . S
Zn1 O4 1.986 . S
Zn1 O6 1.996 . S
Zn1 O9 1.943 . S
O2 Zn1 1.962 . S
O2 C7 1.254 . S
O3 Zn0 2.031 . S
O3 C7 1.269 . S
O4 Zn1 1.986 . S
O4 C11 1.262 . S
O5 Zn0 2.049 . S
O5 C13 1.260 . S
O6 Zn1 1.996 . S
O6 C13 1.257 . S
C7 O2 1.254 . S
C7 O3 1.269 . S
C8 O9 1.249 . S
C8 O10 1.270 . S
O9 Zn1 1.943 . S
O9 C8 1.249 . S
O10 Zn0 2.067 . S
O10 C8 1.270 . S
C11 O4 1.262 . S
C11 O12 1.232 . S
O12 C11 1.232 . S
C13 O5 1.260 . S
C13 O6 1.257 . S
Zn14 O17 2.031 . S
Zn14 O19 2.049 . S
Zn14 O24 2.067 . S
Zn15 O16 1.962 . S
Zn15 O18 1.986 . S
Zn15 O20 1.996 . S
Zn15 O23 1.943 . S
O16 Zn15 1.962 . S
O16 C21 1.254 . S
O17 Zn14 2.031 . S
O17 C21 1.269 . S
O18 Zn15 1.986 . S
O18 C25 1.262 . S
O19 Zn14 2.049 . S
O19 C27 1.260 . S
O20 Zn15 1.996 . S
O20 C27 1.257 . S
C21 O16 1.254 . S
C21 O17 1.269 . S
C22 O23 1.249 . S
C22 O24 1.270 . S
O23 Zn15 1.943 . S
O23 C22 1.249 . S
O24 Zn14 2.067 . S
O24 C22 1.270 . S
C25 O18 1.262 . S
C25 O26 1.232 . S
O26 C25 1.232 . S
C27 O19 1.260 . S
C27 O20 1.257 . S
Zn28 O31 2.031 . S
Zn28 O33 2.049 . S
Zn28 O38 2.067 . S
Zn29 O30 1.962 . S
Zn29 O32 1.986 . S
Zn29 O34 1.996 . S
Zn29 O37 1.943 . S
O30 Zn29 1.962 . S
O30 C35 1.254 . S
O31 Zn28 2.031 . S
O31 C35 1.269 . S
O32 Zn29 1.986 . S
O32 C39 1.262 . S
O33 Zn28 2.049 . S
O33 C41 1.260 . S
O34 Zn29 1.996 . S
O34 C41 1.257 . S
C35 O30 1.254 . S
C35 O31 1.269 . S
C36 O37 1.249 . S
C36 O38 1.270 . S
O37 Zn29 1.943 . S
O37 C36 1.249 . S
O38 Zn28 2.067 . S
O38 C36 1.270 . S
C39 O32 1.262 . S
C39 O40 1.232 . S
O40 C39 1.232 . S
C41 O33 1.260 . S
C41 O34 1.257 . S
Zn42 O45 2.031 . S
Zn42 O47 2.049 . S
Zn42 O52 2.067 . S
Zn43 O44 1.962 . S
Zn43 O46 1.986 . S
Zn43 O48 1.996 . S
Zn43 O51 1.943 . S
O44 Zn43 1.962 . S
O44 C49 1.254 . S
O45 Zn42 2.031 . S
O45 C49 1.269 . S
O46 Zn43 1.986 . S
O46 C53 1.262 . S
O47 Zn42 2.049 . S
O47 C55 1.260 . S
O48 Zn43 1.996 . S
O48 C55 1.257 . S
C49 O44 1.254 . S
C49 O45 1.269 . S
C50 O51 1.249 . S
C50 O52 1.270 . S
O51 Zn43 1.943 . S
O51 C50 1.249 . S
O52 Zn42 2.067 . S
O52 C50 1.270 . S
C53 O46 1.262 . S
C53 O54 1.232 . S
O54 C53 1.232 . S
C55 O47 1.260 . S
C55 O48 1.257 . S
Zn56 O59 2.031 . S
Zn56 O61 2.049 . S
Zn56 O66 2.067 . S
Zn57 O58 1.962 . S
Zn57 O60 1.986 . S
Zn57 O62 1.996 . S
Zn57 O65 1.943 . S
O58 Zn57 1.962 . S
O58 C63 1.254 . S
O59 Zn56 2.031 . S
O59 C63 1.269 . S
O60 Zn57 1.986 . S
O60 C67 1.262 . S
O61 Zn56 2.049 . S
O61 C69 1.260 . S
O62 Zn57 1.996 . S
O62 C69 1.257 . S
C63 O58 1.254 . S
C63 O59 1.269 . S
C64 O65 1.249 . S
C64 O66 1.270 . S
O65 Zn57 1.943 . S
O65 C64 1.249 . S
O66 Zn56 2.067 . S
O66 C64 1.270 . S
C67 O60 1.262 . S
C67 O68 1.232 . S
O68 C67 1.232 . S
C69 O61 1.260 . S
C69 O62 1.257 . S
Zn70 O73 2.031 . S
Zn70 O75 2.049 . S
Zn70 O80 2.067 . S
Zn71 O72 1.962 . S
Zn71 O74 1.986 . S
Zn71 O76 1.996 . S
Zn71 O79 1.943 . S
O72 Zn71 1.962 . S
O72 C77 1.254 . S
O73 Zn70 2.031 . S
O73 C77 1.269 . S
O74 Zn71 1.986 . S
O74 C81 1.262 . S
O75 Zn70 2.049 . S
O75 C83 1.260 . S
O76 Zn71 1.996 . S
O76 C83 1.257 . S
C77 O72 1.254 . S
C77 O73 1.269 . S
C78 O79 1.249 . S
C78 O80 1.270 . S
O79 Zn71 1.943 . S
O79 C78 1.249 . S
O80 Zn70 2.067 . S
O80 C78 1.270 . S
C81 O74 1.262 . S
C81 O82 1.232 . S
O82 C81 1.232 . S
C83 O75 1.260 . S
C83 O76 1.257 . S
Zn84 O87 2.031 . S
Zn84 O89 2.049 . S
Zn84 O94 2.067 . S
Zn85 O86 1.962 . S
Zn85 O88 1.986 . S
Zn85 O90 1.996 . S
Zn85 O93 1.943 . S
O86 Zn85 1.962 . S
O86 C91 1.254 . S
O87 Zn84 2.031 . S
O87 C91 1.269 . S
O88 Zn85 1.986 . S
O88 C95 1.262 . S
O89 Zn84 2.049 . S
O89 C97 1.260 . S
O90 Zn85 1.996 . S
O90 C97 1.257 . S
C91 O86 1.254 . S
C91 O87 1.269 . S
C92 O93 1.249 . S
C92 O94 1.270 . S
O93 Zn85 1.943 . S
O93 C92 1.249 . S
O94 Zn84 2.067 . S
O94 C92 1.270 . S
C95 O88 1.262 . S
C95 O96 1.232 . S
O96 C95 1.232 . S
C97 O89 1.260 . S
C97 O90 1.257 . S
Zn98 O101 2.031 . S
Zn98 O103 2.049 . S
Zn98 O108 2.067 . S
Zn99 O100 1.962 . S
Zn99 O102 1.986 . S
Zn99 O104 1.996 . S
Zn99 O107 1.943 . S
O100 Zn99 1.962 . S
O100 C105 1.254 . S
O101 Zn98 2.031 . S
O101 C105 1.269 . S
O102 Zn99 1.986 . S
O102 C109 1.262 . S
O103 Zn98 2.049 . S
O103 C111 1.260 . S
O104 Zn99 1.996 . S
O104 C111 1.257 . S
C105 O100 1.254 . S
C105 O101 1.269 . S
C106 O107 1.249 . S
C106 O108 1.270 . S
O107 Zn99 1.943 . S
O107 C106 1.249 . S
O108 Zn98 2.067 . S
O108 C106 1.270 . S
C109 O102 1.262 . S
C109 O110 1.232 . S
O110 C109 1.232 . S
C111 O103 1.260 . S
C111 O104 1.257 . S
Zn112 O115 2.031 . S
Zn112 O117 2.049 . S
Zn112 O122 2.067 . S
Zn113 O114 1.962 . S
Zn113 O116 1.986 . S
Zn113 O118 1.996 . S
Zn113 O121 1.943 . S
O114 Zn113 1.962 . S
O114 C119 1.254 . S
O115 Zn112 2.031 . S
O115 C119 1.269 . S
O116 Zn113 1.986 . S
O116 C123 1.262 . S
O117 Zn112 2.049 . S
O117 C125 1.260 . S
O118 Zn113 1.996 . S
O118 C125 1.257 . S
C119 O114 1.254 . S
C119 O115 1.269 . S
C120 O121 1.249 . S
C120 O122 1.270 . S
O121 Zn113 1.943 . S
O121 C120 1.249 . S
O122 Zn112 2.067 . S
O122 C120 1.270 . S
C123 O116 1.262 . S
C123 O124 1.232 . S
O124 C123 1.232 . S
C125 O117 1.260 . S
C125 O118 1.257 . S
Zn126 O129 2.031 . S
Zn126 O131 2.049 . S
Zn126 O136 2.067 . S
Zn127 O128 1.962 . S
Zn127 O130 1.986 . S
Zn127 O132 1.996 . S
Zn127 O135 1.943 . S
O128 Zn127 1.962 . S
O128 C133 1.254 . S
O129 Zn126 2.031 . S
O129 C133 1.269 . S
O130 Zn127 1.986 . S
O130 C137 1.262 . S
O131 Zn126 2.049 . S
O131 C139 1.260 . S
O132 Zn127 1.996 . S
O132 C139 1.257 . S
C133 O128 1.254 . S
C133 O129 1.269 . S
C134 O135 1.249 . S
C134 O136 1.270 . S
O135 Zn127 1.943 . S
O135 C134 1.249 . S
O136 Zn126 2.067 . S
O136 C134 1.270 . S
C137 O130 1.262 . S
C137 O138 1.232 . S
O138 C137 1.232 . S
C139 O131 1.260 . S
C139 O132 1.257 . S
Zn140 O143 2.031 . S
Zn140 O145 2.049 . S
Zn140 O150 2.067 . S
Zn141 O142 1.962 . S
Zn141 O144 1.986 . S
Zn141 O146 1.996 . S
Zn141 O149 1.943 . S
O142 Zn141 1.962 . S
O142 C147 1.254 . S
O143 Zn140 2.031 . S
O143 C147 1.269 . S
O144 Zn141 1.986 . S
O144 C151 1.262 . S
O145 Zn140 2.049 . S
O145 C153 1.260 . S
O146 Zn141 1.996 . S
O146 C153 1.257 . S
C147 O142 1.254 . S
C147 O143 1.269 . S
C148 O149 1.249 . S
C148 O150 1.270 . S
O149 Zn141 1.943 . S
O149 C148 1.249 . S
O150 Zn140 2.067 . S
O150 C148 1.270 . S
C151 O144 1.262 . S
C151 O152 1.232 . S
O152 C151 1.232 . S
C153 O145 1.260 . S
C153 O146 1.257 . S
Zn154 O157 2.031 . S
Zn154 O159 2.049 . S
Zn154 O164 2.067 . S
Zn155 O156 1.962 . S
Zn155 O158 1.986 . S
Zn155 O160 1.996 . S
Zn155 O163 1.943 . S
O156 Zn155 1.962 . S
O156 C161 1.254 . S
O157 Zn154 2.031 . S
O157 C161 1.269 . S
O158 Zn155 1.986 . S
O158 C165 1.262 . S
O159 Zn154 2.049 . S
O159 C167 1.260 . S
O160 Zn155 1.996 . S
O160 C167 1.257 . S
C161 O156 1.254 . S
C161 O157 1.269 . S
C162 O163 1.249 . S
C162 O164 1.270 . S
O163 Zn155 1.943 . S
O163 C162 1.249 . S
O164 Zn154 2.067 . S
O164 C162 1.270 . S
C165 O158 1.262 . S
C165 O166 1.232 . S
O166 C165 1.232 . S
C167 O159 1.260 . S
C167 O160 1.257 . S
Zn168 O171 2.031 . S
Zn168 O173 2.049 . S
Zn168 O178 2.067 . S
Zn169 O170 1.962 . S
Zn169 O172 1.986 . S
Zn169 O174 1.996 . S
Zn169 O177 1.943 . S
O170 Zn169 1.962 . S
O170 C175 1.254 . S
O171 Zn168 2.031 . S
O171 C175 1.269 . S
O172 Zn169 1.986 . S
O172 C179 1.262 . S
O173 Zn168 2.049 . S
O173 C181 1.260 . S
O174 Zn169 1.996 . S
O174 C181 1.257 . S
C175 O170 1.254 . S
C175 O171 1.269 . S
C176 O177 1.249 . S
C176 O178 1.270 . S
O177 Zn169 1.943 . S
O177 C176 1.249 . S
O178 Zn168 2.067 . S
O178 C176 1.270 . S
C179 O172 1.262 . S
C179 O180 1.232 . S
O180 C179 1.232 . S
C181 O173 1.260 . S
C181 O174 1.257 . S
Zn182 O185 2.031 . S
Zn182 O187 2.049 . S
Zn182 O192 2.067 . S
Zn183 O184 1.962 . S
Zn183 O186 1.986 . S
Zn183 O188 1.996 . S
Zn183 O191 1.943 . S
O184 Zn183 1.962 . S
O184 C189 1.254 . S
O185 Zn182 2.031 . S
O185 C189 1.269 . S
O186 Zn183 1.986 . S
O186 C193 1.262 . S
O187 Zn182 2.049 . S
O187 C195 1.260 . S
O188 Zn183 1.996 . S
O188 C195 1.257 . S
C189 O184 1.254 . S
C189 O185 1.269 . S
C190 O191 1.249 . S
C190 O192 1.270 . S
O191 Zn183 1.943 . S
O191 C190 1.249 . S
O192 Zn182 2.067 . S
O192 C190 1.270 . S
C193 O186 1.262 . S
C193 O194 1.232 . S
O194 C193 1.232 . S
C195 O187 1.260 . S
C195 O188 1.257 . S
Zn196 O199 2.031 . S
Zn196 O201 2.049 . S
Zn196 O206 2.067 . S
Zn197 O198 1.962 . S
Zn197 O200 1.986 . S
Zn197 O202 1.996 . S
Zn197 O205 1.943 . S
O198 Zn197 1.962 . S
O198 C203 1.254 . S
O199 Zn196 2.031 . S
O199 C203 1.269 . S
O200 Zn197 1.986 . S
O200 C207 1.262 . S
O201 Zn196 2.049 . S
O201 C209 1.260 . S
O202 Zn197 1.996 . S
O202 C209 1.257 . S
C203 O198 1.254 . S
C203 O199 1.269 . S
C204 O205 1.249 . S
C204 O206 1.270 . S
O205 Zn197 1.943 . S
O205 C204 1.249 . S
O206 Zn196 2.067 . S
O206 C204 1.270 . S
C207 O200 1.262 . S
C207 O208 1.232 . S
O208 C207 1.232 . S
C209 O201 1.260 . S
C209 O202 1.257 . S
Zn210 O213 2.031 . S
Zn210 O215 2.049 . S
Zn210 O220 2.067 . S
Zn211 O212 1.962 . S
Zn211 O214 1.986 . S
Zn211 O216 1.996 . S
Zn211 O219 1.943 . S
O212 Zn211 1.962 . S
O212 C217 1.254 . S
O213 Zn210 2.031 . S
O213 C217 1.269 . S
O214 Zn211 1.986 . S
O214 C221 1.262 . S
O215 Zn210 2.049 . S
O215 C223 1.260 . S
O216 Zn211 1.996 . S
O216 C223 1.257 . S
C217 O212 1.254 . S
C217 O213 1.269 . S
C218 O219 1.249 . S
C218 O220 1.270 . S
O219 Zn211 1.943 . S
O219 C218 1.249 . S
O220 Zn210 2.067 . S
O220 C218 1.270 . S
C221 O214 1.262 . S
C221 O222 1.232 . S
O222 C221 1.232 . S
C223 O215 1.260 . S
C223 O216 1.257 . S
Zn224 O227 2.031 . S
Zn224 O229 2.049 . S
Zn224 O234 2.067 . S
Zn225 O226 1.962 . S
Zn225 O228 1.986 . S
Zn225 O230 1.996 . S
Zn225 O233 1.943 . S
O226 Zn225 1.962 . S
O226 C231 1.254 . S
O227 Zn224 2.031 . S
O227 C231 1.269 . S
O228 Zn225 1.986 . S
O228 C235 1.262 . S
O229 Zn224 2.049 . S
O229 C237 1.260 . S
O230 Zn225 1.996 . S
O230 C237 1.257 . S
C231 O226 1.254 . S
C231 O227 1.269 . S
C232 O233 1.249 . S
C232 O234 1.270 . S
O233 Zn225 1.943 . S
O233 C232 1.249 . S
O234 Zn224 2.067 . S
O234 C232 1.270 . S
C235 O228 1.262 . S
C235 O236 1.232 . S
O236 C235 1.232 . S
C237 O229 1.260 . S
C237 O230 1.257 . S
Zn238 O241 2.031 . S
Zn238 O243 2.049 . S
Zn238 O248 2.067 . S
Zn239 O240 1.962 . S
Zn239 O242 1.986 . S
Zn239 O244 1.996 . S
Zn239 O247 1.943 . S
O240 Zn239 1.962 . S
O240 C245 1.254 . S
O241 Zn238 2.031 . S
O241 C245 1.269 . S
O242 Zn239 1.986 . S
O242 C249 1.262 . S
O243 Zn238 2.049 . S
O243 C251 1.260 . S
O244 Zn239 1.996 . S
O244 C251 1.257 . S
C245 O240 1.254 . S
C245 O241 1.269 . S
C246 O247 1.249 . S
C246 O248 1.270 . S
O247 Zn239 1.943 . S
O247 C246 1.249 . S
O248 Zn238 2.067 . S
O248 C246 1.270 . S
C249 O242 1.262 . S
C249 O250 1.232 . S
O250 C249 1.232 . S
C251 O243 1.260 . S
C251 O244 1.257 . S
Zn252 O255 2.031 . S
Zn252 O257 2.049 . S
Zn252 O262 2.067 . S
Zn253 O254 1.962 . S
Zn253 O256 1.986 . S
Zn253 O258 1.996 . S
Zn253 O261 1.943 . S
O254 Zn253 1.962 . S
O254 C259 1.254 . S
O255 Zn252 2.031 . S
O255 C259 1.269 . S
O256 Zn253 1.986 . S
O256 C263 1.262 . S
O257 Zn252 2.049 . S
O257 C265 1.260 . S
O258 Zn253 1.996 . S
O258 C265 1.257 . S
C259 O254 1.254 . S
C259 O255 1.269 . S
C260 O261 1.249 . S
C260 O262 1.270 . S
O261 Zn253 1.943 . S
O261 C260 1.249 . S
O262 Zn252 2.067 . S
O262 C260 1.270 . S
C263 O256 1.262 . S
C263 O264 1.232 . S
O264 C263 1.232 . S
C265 O257 1.260 . S
C265 O258 1.257 . S
Zn266 O269 2.031 . S
Zn266 O271 2.049 . S
Zn266 O276 2.067 . S
Zn267 O268 1.962 . S
Zn267 O270 1.986 . S
Zn267 O272 1.996 . S
Zn267 O275 1.943 . S
O268 Zn267 1.962 . S
O268 C273 1.254 . S
O269 Zn266 2.031 . S
O269 C273 1.269 . S
O270 Zn267 1.986 . S
O270 C277 1.262 . S
O271 Zn266 2.049 . S
O271 C279 1.260 . S
O272 Zn267 1.996 . S
O272 C279 1.257 . S
C273 O268 1.254 . S
C273 O269 1.269 . S
C274 O275 1.249 . S
C274 O276 1.270 . S
O275 Zn267 1.943 . S
O275 C274 1.249 . S
O276 Zn266 2.067 . S
O276 C274 1.270 . S
C277 O270 1.262 . S
C277 O278 1.232 . S
O278 C277 1.232 . S
C279 O271 1.260 . S
C279 O272 1.257 . S
Zn280 O283 2.031 . S
Zn280 O285 2.049 . S
Zn280 O290 2.067 . S
Zn281 O282 1.962 . S
Zn281 O284 1.986 . S
Zn281 O286 1.996 . S
Zn281 O289 1.943 . S
O282 Zn281 1.962 . S
O282 C287 1.254 . S
O283 Zn280 2.031 . S
O283 C287 1.269 . S
O284 Zn281 1.986 . S
O284 C291 1.262 . S
O285 Zn280 2.049 . S
O285 C293 1.260 . S
O286 Zn281 1.996 . S
O286 C293 1.257 . S
C287 O282 1.254 . S
C287 O283 1.269 . S
C288 O289 1.249 . S
C288 O290 1.270 . S
O289 Zn281 1.943 . S
O289 C288 1.249 . S
O290 Zn280 2.067 . S
O290 C288 1.270 . S
C291 O284 1.262 . S
C291 O292 1.232 . S
O292 C291 1.232 . S
C293 O285 1.260 . S
C293 O286 1.257 . S
Zn294 O297 2.031 . S
Zn294 O299 2.049 . S
Zn294 O304 2.067 . S
Zn295 O296 1.962 . S
Zn295 O298 1.986 . S
Zn295 O300 1.996 . S
Zn295 O303 1.943 . S
O296 Zn295 1.962 . S
O296 C301 1.254 . S
O297 Zn294 2.031 . S
O297 C301 1.269 . S
O298 Zn295 1.986 . S
O298 C305 1.262 . S
O299 Zn294 2.049 . S
O299 C307 1.260 . S
O300 Zn295 1.996 . S
O300 C307 1.257 . S
C301 O296 1.254 . S
C301 O297 1.269 . S
C302 O303 1.249 . S
C302 O304 1.270 . S
O303 Zn295 1.943 . S
O303 C302 1.249 . S
O304 Zn294 2.067 . S
O304 C302 1.270 . S
C305 O298 1.262 . S
C305 O306 1.232 . S
O306 C305 1.232 . S
C307 O299 1.260 . S
C307 O300 1.257 . S
Zn308 O311 2.031 . S
Zn308 O313 2.049 . S
Zn308 O318 2.067 . S
Zn309 O310 1.962 . S
Zn309 O312 1.986 . S
Zn309 O314 1.996 . S
Zn309 O317 1.943 . S
O310 Zn309 1.962 . S
O310 C315 1.254 . S
O311 Zn308 2.031 . S
O311 C315 1.269 . S
O312 Zn309 1.986 . S
O312 C319 1.262 . S
O313 Zn308 2.049 . S
O313 C321 1.260 . S
O314 Zn309 1.996 . S
O314 C321 1.257 . S
C315 O310 1.254 . S
C315 O311 1.269 . S
C316 O317 1.249 . S
C316 O318 1.270 . S
O317 Zn309 1.943 . S
O317 C316 1.249 . S
O318 Zn308 2.067 . S
O318 C316 1.270 . S
C319 O312 1.262 . S
C319 O320 1.232 . S
O320 C319 1.232 . S
C321 O313 1.260 . S
C321 O314 1.257 . S
Zn322 O325 2.031 . S
Zn322 O327 2.049 . S
Zn322 O332 2.067 . S
Zn323 O324 1.962 . S
Zn323 O326 1.986 . S
Zn323 O328 1.996 . S
Zn323 O331 1.943 . S
O324 Zn323 1.962 . S
O324 C329 1.254 . S
O325 Zn322 2.031 . S
O325 C329 1.269 . S
O326 Zn323 1.986 . S
O326 C333 1.262 . S
O327 Zn322 2.049 . S
O327 C335 1.260 . S
O328 Zn323 1.996 . S
O328 C335 1.257 . S
C329 O324 1.254 . S
C329 O325 1.269 . S
C330 O331 1.249 . S
C330 O332 1.270 . S
O331 Zn323 1.943 . S
O331 C330 1.249 . S
O332 Zn322 2.067 . S
O332 C330 1.270 . S
C333 O326 1.262 . S
C333 O334 1.232 . S
O334 C333 1.232 . S
C335 O327 1.260 . S
C335 O328 1.257 . S
Zn336 O339 2.031 . S
Zn336 O341 2.049 . S
Zn336 O346 2.067 . S
Zn337 O338 1.962 . S
Zn337 O340 1.986 . S
Zn337 O342 1.996 . S
Zn337 O345 1.943 . S
O338 Zn337 1.962 . S
O338 C343 1.254 . S
O339 Zn336 2.031 . S
O339 C343 1.269 . S
O340 Zn337 1.986 . S
O340 C347 1.262 . S
O341 Zn336 2.049 . S
O341 C349 1.260 . S
O342 Zn337 1.996 . S
O342 C349 1.257 . S
C343 O338 1.254 . S
C343 O339 1.269 . S
C344 O345 1.249 . S
C344 O346 1.270 . S
O345 Zn337 1.943 . S
O345 C344 1.249 . S
O346 Zn336 2.067 . S
O346 C344 1.270 . S
C347 O340 1.262 . S
C347 O348 1.232 . S
O348 C347 1.232 . S
C349 O341 1.260 . S
C349 O342 1.257 . S
Zn350 O353 2.031 . S
Zn350 O355 2.049 . S
Zn350 O360 2.067 . S
Zn351 O352 1.962 . S
Zn351 O354 1.986 . S
Zn351 O356 1.996 . S
Zn351 O359 1.943 . S
O352 Zn351 1.962 . S
O352 C357 1.254 . S
O353 Zn350 2.031 . S
O353 C357 1.269 . S
O354 Zn351 1.986 . S
O354 C361 1.262 . S
O355 Zn350 2.049 . S
O355 C363 1.260 . S
O356 Zn351 1.996 . S
O356 C363 1.257 . S
C357 O352 1.254 . S
C357 O353 1.269 . S
C358 O359 1.249 . S
C358 O360 1.270 . S
O359 Zn351 1.943 . S
O359 C358 1.249 . S
O360 Zn350 2.067 . S
O360 C358 1.270 . S
C361 O354 1.262 . S
C361 O362 1.232 . S
O362 C361 1.232 . S
C363 O355 1.260 . S
C363 O356 1.257 . S
Zn364 O367 2.031 . S
Zn364 O369 2.049 . S
Zn364 O374 2.067 . S
Zn365 O366 1.962 . S
Zn365 O368 1.986 . S
Zn365 O370 1.996 . S
Zn365 O373 1.943 . S
O366 Zn365 1.962 . S
O366 C371 1.254 . S
O367 Zn364 2.031 . S
O367 C371 1.269 . S
O368 Zn365 1.986 . S
O368 C375 1.262 . S
O369 Zn364 2.049 . S
O369 C377 1.260 . S
O370 Zn365 1.996 . S
O370 C377 1.257 . S
C371 O366 1.254 . S
C371 O367 1.269 . S
C372 O373 1.249 . S
C372 O374 1.270 . S
O373 Zn365 1.943 . S
O373 C372 1.249 . S
O374 Zn364 2.067 . S
O374 C372 1.270 . S
C375 O368 1.262 . S
C375 O376 1.232 . S
O376 C375 1.232 . S
C377 O369 1.260 . S
C377 O370 1.257 . S
Zn378 O381 2.031 . S
Zn378 O383 2.049 . S
Zn378 O388 2.067 . S
Zn379 O380 1.962 . S
Zn379 O382 1.986 . S
Zn379 O384 1.996 . S
Zn379 O387 1.943 . S
O380 Zn379 1.962 . S
O380 C385 1.254 . S
O381 Zn378 2.031 . S
O381 C385 1.269 . S
O382 Zn379 1.986 . S
O382 C389 1.262 . S
O383 Zn378 2.049 . S
O383 C391 1.260 . S
O384 Zn379 1.996 . S
O384 C391 1.257 . S
C385 O380 1.254 . S
C385 O381 1.269 . S
C386 O387 1.249 . S
C386 O388 1.270 . S
O387 Zn379 1.943 . S
O387 C386 1.249 . S
O388 Zn378 2.067 . S
O388 C386 1.270 . S
C389 O382 1.262 . S
C389 O390 1.232 . S
O390 C389 1.232 . S
C391 O383 1.260 . S
C391 O384 1.257 . S
Zn392 O395 2.031 . S
Zn392 O397 2.049 . S
Zn392 O402 2.067 . S
Zn393 O394 1.962 . S
Zn393 O396 1.986 . S
Zn393 O398 1.996 . S
Zn393 O401 1.943 . S
O394 Zn393 1.962 . S
O394 C399 1.254 . S
O395 Zn392 2.031 . S
O395 C399 1.269 . S
O396 Zn393 1.986 . S
O396 C403 1.262 . S
O397 Zn392 2.049 . S
O397 C405 1.260 . S
O398 Zn393 1.996 . S
O398 C405 1.257 . S
C399 O394 1.254 . S
C399 O395 1.269 . S
C400 O401 1.249 . S
C400 O402 1.270 . S
O401 Zn393 1.943 . S
O401 C400 1.249 . S
O402 Zn392 2.067 . S
O402 C400 1.270 . S
C403 O396 1.262 . S
C403 O404 1.232 . S
O404 C403 1.232 . S
C405 O397 1.260 . S
C405 O398 1.257 . S
Zn406 O409 2.031 . S
Zn406 O411 2.049 . S
Zn406 O416 2.067 . S
Zn407 O408 1.962 . S
Zn407 O410 1.986 . S
Zn407 O412 1.996 . S
Zn407 O415 1.943 . S
O408 Zn407 1.962 . S
O408 C413 1.254 . S
O409 Zn406 2.031 . S
O409 C413 1.269 . S
O410 Zn407 1.986 . S
O410 C417 1.262 . S
O411 Zn406 2.049 . S
O411 C419 1.260 . S
O412 Zn407 1.996 . S
O412 C419 1.257 . S
C413 O408 1.254 . S
C413 O409 1.269 . S
C414 O415 1.249 . S
C414 O416 1.270 . S
O415 Zn407 1.943 . S
O415 C414 1.249 . S
O416 Zn406 2.067 . S
O416 C414 1.270 . S
C417 O410 1.262 . S
C417 O418 1.232 . S
O418 C417 1.232 . S
C419 O411 1.260 . S
C419 O412 1.257 . S
Zn420 O423 2.031 . S
Zn420 O425 2.049 . S
Zn420 O430 2.067 . S
Zn421 O422 1.962 . S
Zn421 O424 1.986 . S
Zn421 O426 1.996 . S
Zn421 O429 1.943 . S
O422 Zn421 1.962 . S
O422 C427 1.254 . S
O423 Zn420 2.031 . S
O423 C427 1.269 . S
O424 Zn421 1.986 . S
O424 C431 1.262 . S
O425 Zn420 2.049 . S
O425 C433 1.260 . S
O426 Zn421 1.996 . S
O426 C433 1.257 . S
C427 O422 1.254 . S
C427 O423 1.269 . S
C428 O429 1.249 . S
C428 O430 1.270 . S
O429 Zn421 1.943 . S
O429 C428 1.249 . S
O430 Zn420 2.067 . S
O430 C428 1.270 . S
C431 O424 1.262 . S
C431 O432 1.232 . S
O432 C431 1.232 . S
C433 O425 1.260 . S
C433 O426 1.257 . S
Zn434 O437 2.031 . S
Zn434 O439 2.049 . S
Zn434 O444 2.067 . S
Zn435 O436 1.962 . S
Zn435 O438 1.986 . S
Zn435 O440 1.996 . S
Zn435 O443 1.943 . S
O436 Zn435 1.962 . S
O436 C441 1.254 . S
O437 Zn434 2.031 . S
O437 C441 1.269 . S
O438 Zn435 1.986 . S
O438 C445 1.262 . S
O439 Zn434 2.049 . S
O439 C447 1.260 . S
O440 Zn435 1.996 . S
O440 C447 1.257 . S
C441 O436 1.254 . S
C441 O437 1.269 . S
C442 O443 1.249 . S
C442 O444 1.270 . S
O443 Zn435 1.943 . S
O443 C442 1.249 . S
O444 Zn434 2.067 . S
O444 C442 1.270 . S
C445 O438 1.262 . S
C445 O446 1.232 . S
O446 C445 1.232 . S
C447 O439 1.260 . S
C447 O440 1.257 . S
C448 C449 1.363 1_454 S
C448 C454 1.379 . S
C448 N456 1.356 1_455 S
C449 C448 1.363 1_656 S
C449 C455 1.363 . S
C450 C451 1.363 1_656 S
C450 C455 1.379 . S
C450 N457 1.356 1_655 S
C451 C450 1.363 1_454 S
C451 C454 1.363 . S
N452 C454 1.356 . S
N452 H464 0.984 . S
N452 H465 0.985 . S
N453 C455 1.356 . S
N453 H458 0.984 . S
N453 H459 0.985 . S
C454 C448 1.379 . S
C454 C451 1.363 . S
C454 N452 1.356 . S
C455 C449 1.363 . S
C455 C450 1.379 . S
C455 N453 1.356 . S
N456 C448 1.356 1_655 S
N456 H462 0.984 1_655 S
N456 H463 0.987 . S
N457 C450 1.356 1_455 S
N457 H460 0.987 . S
N457 H461 0.985 1_455 S
H458 N453 0.984 . S
H459 N453 0.985 . S
H460 N457 0.987 . S
H461 N457 0.985 1_655 S
H462 N456 0.984 1_455 S
H463 N456 0.987 . S
H464 N452 0.984 . S
H465 N452 0.985 . S
C466 C467 1.363 . S
C466 C472 1.379 . S
C466 N474 1.356 . S
C467 C466 1.363 . S
C467 C473 1.363 . S
C468 C469 1.363 . S
C468 C473 1.379 . S
C468 N475 1.356 . S
C469 C468 1.363 . S
C469 C472 1.363 . S
N470 C472 1.356 . S
N470 H482 0.984 . S
N470 H483 0.985 . S
N471 C473 1.356 . S
N471 H476 0.984 . S
N471 H477 0.985 . S
C472 C466 1.379 . S
C472 C469 1.363 . S
C472 N470 1.356 . S
C473 C467 1.363 . S
C473 C468 1.379 . S
C473 N471 1.356 . S
N474 C466 1.356 . S
N474 H480 0.984 . S
N474 H481 0.984 . S
N475 C468 1.356 . S
N475 H478 0.984 . S
N475 H479 0.985 . S
H476 N471 0.984 . S
H477 N471 0.985 . S
H478 N475 0.984 . S
H479 N475 0.985 . S
H480 N474 0.984 . S
H481 N474 0.984 . S
H482 N470 0.984 . S
H483 N470 0.985 . S
C484 C485 1.363 . S
C484 C490 1.379 . S
C484 N492 1.356 . S
C485 C484 1.363 . S
C485 C491 1.363 . S
C486 C487 1.363 . S
C486 C491 1.379 . S
C486 N493 1.356 . S
C487 C486 1.363 . S
C487 C490 1.363 . S
N488 C490 1.356 . S
N488 H500 0.984 . S
N488 H501 0.985 . S
N489 C491 1.356 . S
N489 H494 0.984 . S
N489 H495 0.985 . S
C490 C484 1.379 . S
C490 C487 1.363 . S
C490 N488 1.356 . S
C491 C485 1.363 . S
C491 C486 1.379 . S
C491 N489 1.356 . S
N492 C484 1.356 . S
N492 H498 0.984 . S
N492 H499 0.984 . S
N493 C486 1.356 . S
N493 H496 0.984 . S
N493 H497 0.985 . S
H494 N489 0.984 . S
H495 N489 0.985 . S
H496 N493 0.984 . S
H497 N493 0.985 . S
H498 N492 0.984 . S
H499 N492 0.984 . S
H500 N488 0.984 . S
H501 N488 0.985 . S
C502 C503 1.363 . S
C502 C508 1.379 . S
C502 N510 1.356 . S
C503 C502 1.363 . S
C503 C509 1.363 . S
C504 C505 1.363 . S
C504 C509 1.379 . S
C504 N511 1.356 . S
C505 C504 1.363 . S
C505 C508 1.363 . S
N506 C508 1.356 . S
N506 H518 0.984 . S
N506 H519 0.985 . S
N507 C509 1.356 . S
N507 H512 0.984 . S
N507 H513 0.985 . S
C508 C502 1.379 . S
C508 C505 1.363 . S
C508 N506 1.356 . S
C509 C503 1.363 . S
C509 C504 1.379 . S
C509 N507 1.356 . S
N510 C502 1.356 . S
N510 H516 0.984 . S
N510 H517 0.984 . S
N511 C504 1.356 . S
N511 H514 0.984 . S
N511 H515 0.985 . S
H512 N507 0.984 . S
H513 N507 0.985 . S
H514 N511 0.984 . S
H515 N511 0.985 . S
H516 N510 0.984 . S
H517 N510 0.984 . S
H518 N506 0.984 . S
H519 N506 0.985 . S
C520 C521 1.363 . S
C520 C526 1.379 . S
C520 N528 1.356 . S
C521 C520 1.363 . S
C521 C527 1.363 1_655 S
C522 C523 1.363 . S
C522 C527 1.379 . S
C522 N529 1.356 . S
C523 C522 1.363 . S
C523 C526 1.363 1_455 S
N524 C526 1.356 . S
N524 H536 0.984 . S
N524 H537 0.985 . S
N525 C527 1.356 . S
N525 H530 0.984 . S
N525 H531 0.985 . S
C526 C520 1.379 . S
C526 C523 1.363 1_655 S
C526 N524 1.356 . S
C527 C521 1.363 1_455 S
C527 C522 1.379 . S
C527 N525 1.356 . S
N528 C520 1.356 . S
N528 H534 0.984 . S
N528 H535 0.984 . S
N529 C522 1.356 . S
N529 H532 0.984 . S
N529 H533 0.985 . S
H530 N525 0.984 . S
H531 N525 0.985 . S
H532 N529 0.984 . S
H533 N529 0.985 . S
H534 N528 0.984 . S
H535 N528 0.984 . S
H536 N524 0.984 . S
H537 N524 0.985 . S
C538 C539 1.363 . S
C538 C544 1.379 . S
C538 N546 1.356 . S
C539 C538 1.363 . S
C539 C545 1.363 . S
C540 C541 1.363 . S
C540 C545 1.379 . S
C540 N547 1.356 . S
C541 C540 1.363 . S
C541 C544 1.363 . S
N542 C544 1.356 . S
N542 H554 0.984 . S
N542 H555 0.985 . S
N543 C545 1.356 . S
N543 H548 0.984 . S
N543 H549 0.985 . S
C544 C538 1.379 . S
C544 C541 1.363 . S
C544 N542 1.356 . S
C545 C539 1.363 . S
C545 C540 1.379 . S
C545 N543 1.356 . S
N546 C538 1.356 . S
N546 H552 0.984 . S
N546 H553 0.984 . S
N547 C540 1.356 . S
N547 H550 0.984 . S
N547 H551 0.985 . S
H548 N543 0.984 . S
H549 N543 0.985 . S
H550 N547 0.984 . S
H551 N547 0.985 . S
H552 N546 0.984 . S
H553 N546 0.984 . S
H554 N542 0.984 . S
H555 N542 0.985 . S
C556 C557 1.363 . S
C556 C562 1.379 . S
C556 N564 1.356 . S
C557 C556 1.363 . S
C557 C563 1.363 1_556 S
C558 C559 1.363 . S
C558 C563 1.379 . S
C558 N565 1.356 . S
C559 C558 1.363 . S
C559 C562 1.363 1_554 S
N560 C562 1.356 . S
N560 H572 0.984 . S
N560 H573 0.985 . S
N561 C563 1.356 . S
N561 H566 0.984 . S
N561 H567 0.985 . S
C562 C556 1.379 . S
C562 C559 1.363 1_556 S
C562 N560 1.356 . S
C563 C557 1.363 1_554 S
C563 C558 1.379 . S
C563 N561 1.356 . S
N564 C556 1.356 . S
N564 H570 0.984 . S
N564 H571 0.984 . S
N565 C558 1.356 . S
N565 H568 0.984 . S
N565 H569 0.985 . S
H566 N561 0.984 . S
H567 N561 0.985 . S
H568 N565 0.984 . S
H569 N565 0.985 . S
H570 N564 0.984 . S
H571 N564 0.984 . S
H572 N560 0.984 . S
H573 N560 0.985 . S
C574 C575 1.363 . S
C574 C580 1.379 . S
C574 N582 1.356 . S
C575 C574 1.363 . S
C575 C581 1.363 . S
C576 C577 1.363 . S
C576 C581 1.379 . S
C576 N583 1.356 . S
C577 C576 1.363 . S
C577 C580 1.363 . S
N578 C580 1.356 . S
N578 H590 0.984 . S
N578 H591 0.985 . S
N579 C581 1.356 . S
N579 H584 0.984 . S
N579 H585 0.985 . S
C580 C574 1.379 . S
C580 C577 1.363 . S
C580 N578 1.356 . S
C581 C575 1.363 . S
C581 C576 1.379 . S
C581 N579 1.356 . S
N582 C574 1.356 . S
N582 H588 0.984 . S
N582 H589 0.984 . S
N583 C576 1.356 . S
N583 H586 0.984 . S
N583 H587 0.985 . S
H584 N579 0.984 . S
H585 N579 0.985 . S
H586 N583 0.984 . S
H587 N583 0.985 . S
H588 N582 0.984 . S
H589 N582 0.984 . S
H590 N578 0.984 . S
H591 N578 0.985 . S
C592 C593 1.363 . S
C592 C598 1.379 . S
C592 N600 1.356 . S
C593 C592 1.363 . S
C593 C599 1.363 . S
C594 C595 1.363 . S
C594 C599 1.379 . S
C594 N601 1.356 . S
C595 C594 1.363 . S
C595 C598 1.363 . S
N596 C598 1.356 . S
N596 H608 0.984 . S
N596 H609 0.985 . S
N597 C599 1.356 . S
N597 H602 0.984 . S
N597 H603 0.985 . S
C598 C592 1.379 . S
C598 C595 1.363 . S
C598 N596 1.356 . S
C599 C593 1.363 . S
C599 C594 1.379 . S
C599 N597 1.356 . S
N600 C592 1.356 . S
N600 H606 0.984 . S
N600 H607 0.984 . S
N601 C594 1.356 . S
N601 H604 0.984 . S
N601 H605 0.985 . S
H602 N597 0.984 . S
H603 N597 0.985 . S
H604 N601 0.984 . S
H605 N601 0.985 . S
H606 N600 0.984 . S
H607 N600 0.984 . S
H608 N596 0.984 . S
H609 N596 0.985 . S
C610 C611 1.363 . S
C610 C616 1.379 . S
C610 N618 1.356 . S
C611 C610 1.363 . S
C611 C617 1.363 . S
C612 C613 1.363 . S
C612 C617 1.379 . S
C612 N619 1.356 . S
C613 C612 1.363 . S
C613 C616 1.363 . S
N614 C616 1.356 . S
N614 H626 0.984 . S
N614 H627 0.985 . S
N615 C617 1.356 . S
N615 H620 0.984 . S
N615 H621 0.985 . S
C616 C610 1.379 . S
C616 C613 1.363 . S
C616 N614 1.356 . S
C617 C611 1.363 . S
C617 C612 1.379 . S
C617 N615 1.356 . S
N618 C610 1.356 . S
N618 H624 0.984 . S
N618 H625 0.984 . S
N619 C612 1.356 . S
N619 H622 0.984 . S
N619 H623 0.985 . S
H620 N615 0.984 . S
H621 N615 0.985 . S
H622 N619 0.984 . S
H623 N619 0.985 . S
H624 N618 0.984 . S
H625 N618 0.984 . S
H626 N614 0.984 . S
H627 N614 0.985 . S
C628 C629 1.363 . S
C628 C634 1.379 . S
C628 N636 1.356 . S
C629 C628 1.363 . S
C629 C635 1.363 . S
C630 C631 1.363 . S
C630 C635 1.379 . S
C630 N637 1.356 . S
C631 C630 1.363 . S
C631 C634 1.363 . S
N632 C634 1.356 . S
N632 H644 0.984 . S
N632 H645 0.985 . S
N633 C635 1.356 . S
N633 H638 0.984 . S
N633 H639 0.985 . S
C634 C628 1.379 . S
C634 C631 1.363 . S
C634 N632 1.356 . S
C635 C629 1.363 . S
C635 C630 1.379 . S
C635 N633 1.356 . S
N636 C628 1.356 . S
N636 H642 0.984 . S
N636 H643 0.984 . S
N637 C630 1.356 . S
N637 H640 0.984 . S
N637 H641 0.985 . S
H638 N633 0.984 . S
H639 N633 0.985 . S
H640 N637 0.984 . S
H641 N637 0.985 . S
H642 N636 0.984 . S
H643 N636 0.984 . S
H644 N632 0.984 . S
H645 N632 0.985 . S
C646 C647 1.363 . S
C646 C652 1.379 . S
C646 N654 1.356 . S
C647 C646 1.363 . S
C647 C653 1.363 . S
C648 C649 1.363 . S
C648 C653 1.379 . S
C648 N655 1.356 . S
C649 C648 1.363 . S
C649 C652 1.363 . S
N650 C652 1.356 . S
N650 H662 0.984 . S
N650 H663 0.985 . S
N651 C653 1.356 . S
N651 H656 0.984 . S
N651 H657 0.985 . S
C652 C646 1.379 . S
C652 C649 1.363 . S
C652 N650 1.356 . S
C653 C647 1.363 . S
C653 C648 1.379 . S
C653 N651 1.356 . S
N654 C646 1.356 . S
N654 H660 0.984 . S
N654 H661 0.984 . S
N655 C648 1.356 . S
N655 H658 0.984 . S
N655 H659 0.985 . S
H656 N651 0.984 . S
H657 N651 0.985 . S
H658 N655 0.984 . S
H659 N655 0.985 . S
H660 N654 0.984 . S
H661 N654 0.984 . S
H662 N650 0.984 . S
H663 N650 0.985 . S
C664 C665 1.363 . S
C664 C670 1.379 1_565 S
C664 N672 1.356 . S
C665 C664 1.363 . S
C665 C671 1.363 . S
C666 C667 1.363 . S
C666 C671 1.379 1_545 S
C666 N673 1.356 . S
C667 C666 1.363 . S
C667 C670 1.363 . S
N668 C670 1.356 . S
N668 H680 0.984 . S
N668 H681 0.985 . S
N669 C671 1.356 . S
N669 H674 0.984 . S
N669 H675 0.985 . S
C670 C664 1.379 1_545 S
C670 C667 1.363 . S
C670 N668 1.356 . S
C671 C665 1.363 . S
C671 C666 1.379 1_565 S
C671 N669 1.356 . S
N672 C664 1.356 . S
N672 H678 0.984 . S
N672 H679 0.984 . S
N673 C666 1.356 . S
N673 H676 0.984 . S
N673 H677 0.985 . S
H674 N669 0.984 . S
H675 N669 0.985 . S
H676 N673 0.984 . S
H677 N673 0.985 . S
H678 N672 0.984 . S
H679 N672 0.984 . S
H680 N668 0.984 . S
H681 N668 0.985 . S
C682 C683 1.363 1_545 S
C682 C688 1.379 . S
C682 N690 1.356 . S
C683 C682 1.363 1_565 S
C683 C689 1.363 1_456 S
C684 C685 1.363 1_565 S
C684 C689 1.379 . S
C684 N691 1.356 . S
C685 C684 1.363 1_545 S
C685 C688 1.363 1_654 S
N686 C688 1.356 . S
N686 H698 0.984 . S
N686 H699 0.985 1_456 S
N687 C689 1.356 . S
N687 H692 0.984 1_654 S
N687 H693 0.985 . S
C688 C682 1.379 . S
C688 C685 1.363 1_456 S
C688 N686 1.356 . S
C689 C683 1.363 1_654 S
C689 C684 1.379 . S
C689 N687 1.356 . S
N690 C682 1.356 . S
N690 H696 0.984 . S
N690 H697 0.984 1_545 S
N691 C684 1.356 . S
N691 H694 0.984 1_565 S
N691 H695 0.985 . S
H692 N687 0.984 1_456 S
H693 N687 0.985 . S
H694 N691 0.984 1_545 S
H695 N691 0.985 . S
H696 N690 0.984 . S
H697 N690 0.984 1_565 S
H698 N686 0.984 . S
H699 N686 0.985 1_654 S
C700 C701 1.363 . S
C700 C706 1.379 1_556 S
C700 N708 1.356 . S
C701 C700 1.363 . S
C701 C707 1.363 1_545 S
C702 C703 1.363 . S
C702 C707 1.379 1_554 S
C702 N709 1.356 . S
C703 C702 1.363 . S
C703 C706 1.363 1_565 S
N704 C706 1.356 1_565 S
N704 H716 0.984 1_565 S
N704 H717 0.985 . S
N705 C707 1.356 1_545 S
N705 H710 0.984 . S
N705 H711 0.985 1_545 S
C706 C700 1.379 1_554 S
C706 C703 1.363 1_545 S
C706 N704 1.356 1_545 S
C707 C701 1.363 1_565 S
C707 C702 1.379 1_556 S
C707 N705 1.356 1_565 S
N708 C700 1.356 . S
N708 H714 0.984 . S
N708 H715 0.984 . S
N709 C702 1.356 . S
N709 H712 0.984 . S
N709 H713 0.985 . S
H710 N705 0.984 . S
H711 N705 0.985 1_565 S
H712 N709 0.984 . S
H713 N709 0.985 . S
H714 N708 0.984 . S
H715 N708 0.984 . S
H716 N704 0.984 1_545 S
H717 N704 0.985 . S
C718 C719 1.363 1_565 S
C718 C724 1.379 1_455 S
C718 N726 1.356 1_565 S
C719 C718 1.363 1_545 S
C719 C725 1.363 . S
C720 C721 1.363 1_545 S
C720 C725 1.379 1_655 S
C720 N727 1.356 1_545 S
C721 C720 1.363 1_565 S
C721 C724 1.363 . S
N722 C724 1.356 . S
N722 H734 0.984 . S
N722 H735 0.985 . S
N723 C725 1.356 . S
N723 H728 0.984 . S
N723 H729 0.985 . S
C724 C718 1.379 1_655 S
C724 C721 1.363 . S
C724 N722 1.356 . S
C725 C719 1.363 . S
C725 C720 1.379 1_455 S
C725 N723 1.356 . S
N726 C718 1.356 1_545 S
N726 H732 0.984 1_545 S
N726 H733 0.984 . S
N727 C720 1.356 1_565 S
N727 H730 0.984 . S
N727 H731 0.985 1_565 S
H728 N723 0.984 . S
H729 N723 0.985 . S
H730 N727 0.984 . S
H731 N727 0.985 1_545 S
H732 N726 0.984 1_565 S
H733 N726 0.984 . S
H734 N722 0.984 . S
H735 N722 0.985 . S
C736 C737 1.363 1_455 S
C736 C742 1.379 . S
C736 N744 1.356 1_455 S
C737 C736 1.363 1_655 S
C737 C743 1.363 . S
C738 C739 1.363 1_655 S
C738 C743 1.379 . S
C738 N745 1.356 1_655 S
C739 C738 1.363 1_455 S
C739 C742 1.363 . S
N740 C742 1.356 . S
N740 H752 0.984 1_554 S
N740 H753 0.985 . S
N741 C743 1.356 . S
N741 H746 0.984 . S
N741 H747 0.985 . S
C742 C736 1.379 . S
C742 C739 1.363 . S
C742 N740 1.356 . S
C743 C737 1.363 . S
C743 C738 1.379 . S
C743 N741 1.356 . S
N744 C736 1.356 1_655 S
N744 H750 0.984 1_654 S
N744 H751 0.984 . S
N745 C738 1.356 1_455 S
N745 H748 0.984 . S
N745 H749 0.985 1_455 S
H746 N741 0.984 . S
H747 N741 0.985 . S
H748 N745 0.984 . S
H749 N745 0.985 1_655 S
H750 N744 0.984 1_456 S
H751 N744 0.984 . S
H752 N740 0.984 1_556 S
H753 N740 0.985 . S
C754 C755 1.363 . S
C754 C760 1.379 1_455 S
C754 N762 1.356 . S
C755 C754 1.363 . S
C755 C761 1.363 . S
C756 C757 1.363 . S
C756 C761 1.379 1_655 S
C756 N763 1.356 . S
C757 C756 1.363 . S
C757 C760 1.363 . S
N758 C760 1.356 . S
N758 H770 0.984 . S
N758 H771 0.985 . S
N759 C761 1.356 . S
N759 H764 0.984 . S
N759 H765 0.985 . S
C760 C754 1.379 1_655 S
C760 C757 1.363 . S
C760 N758 1.356 . S
C761 C755 1.363 . S
C761 C756 1.379 1_455 S
C761 N759 1.356 . S
N762 C754 1.356 . S
N762 H768 0.989 . S
N762 H769 0.984 . S
N763 C756 1.356 . S
N763 H766 0.984 . S
N763 H767 0.989 . S
H764 N759 0.984 . S
H765 N759 0.985 . S
H766 N763 0.984 . S
H767 N763 0.989 . S
H768 N762 0.989 . S
H769 N762 0.984 . S
H770 N758 0.984 . S
H771 N758 0.985 . S
C772 C773 1.363 . S
C772 C778 1.379 . S
C772 N780 1.356 . S
C773 C772 1.363 . S
C773 C779 1.363 . S
C774 C775 1.363 . S
C774 C779 1.379 . S
C774 N781 1.356 . S
C775 C774 1.363 . S
C775 C778 1.363 . S
N776 C778 1.356 . S
N776 H788 0.984 . S
N776 H789 0.985 . S
N777 C779 1.356 . S
N777 H782 0.984 . S
N777 H783 0.985 . S
C778 C772 1.379 . S
C778 C775 1.363 . S
C778 N776 1.356 . S
C779 C773 1.363 . S
C779 C774 1.379 . S
C779 N777 1.356 . S
N780 C772 1.356 . S
N780 H786 0.984 . S
N780 H787 0.984 . S
N781 C774 1.356 . S
N781 H784 0.984 . S
N781 H785 0.985 . S
H782 N777 0.984 . S
H783 N777 0.985 . S
H784 N781 0.984 . S
H785 N781 0.985 . S
H786 N780 0.984 . S
H787 N780 0.984 . S
H788 N776 0.984 . S
H789 N776 0.985 . S
C790 C791 1.363 . S
C790 C796 1.379 . S
C790 N798 1.356 . S
C791 C790 1.363 . S
C791 C797 1.363 . S
C792 C793 1.363 . S
C792 C797 1.379 . S
C792 N799 1.356 . S
C793 C792 1.363 . S
C793 C796 1.363 . S
N794 C796 1.356 . S
N794 H806 0.984 . S
N794 H807 0.985 . S
N795 C797 1.356 . S
N795 H800 0.984 . S
N795 H801 0.985 . S
C796 C790 1.379 . S
C796 C793 1.363 . S
C796 N794 1.356 . S
C797 C791 1.363 . S
C797 C792 1.379 . S
C797 N795 1.356 . S
N798 C790 1.356 . S
N798 H804 0.984 . S
N798 H805 0.984 . S
N799 C792 1.356 . S
N799 H802 0.984 . S
N799 H803 0.985 . S
H800 N795 0.984 . S
H801 N795 0.985 . S
H802 N799 0.984 . S
H803 N799 0.985 . S
H804 N798 0.984 . S
H805 N798 0.984 . S
H806 N794 0.984 . S
H807 N794 0.985 . S
C808 C809 1.363 . S
C808 C814 1.379 . S
C808 N816 1.356 . S
C809 C808 1.363 . S
C809 C815 1.363 1_655 S
C810 C811 1.363 . S
C810 C815 1.379 . S
C810 N817 1.356 . S
C811 C810 1.363 . S
C811 C814 1.363 1_455 S
N812 C814 1.356 1_455 S
N812 H824 0.984 1_455 S
N812 H825 0.985 . S
N813 C815 1.356 1_655 S
N813 H818 0.984 . S
N813 H819 0.985 1_655 S
C814 C808 1.379 . S
C814 C811 1.363 1_655 S
C814 N812 1.356 1_655 S
C815 C809 1.363 1_455 S
C815 C810 1.379 . S
C815 N813 1.356 1_455 S
N816 C808 1.356 . S
N816 H822 0.984 . S
N816 H823 0.984 . S
N817 C810 1.356 . S
N817 H820 0.984 . S
N817 H821 0.985 . S
H818 N813 0.984 . S
H819 N813 0.985 1_455 S
H820 N817 0.984 . S
H821 N817 0.985 . S
H822 N816 0.984 . S
H823 N816 0.984 . S
H824 N812 0.984 1_655 S
H825 N812 0.985 . S
C826 C827 1.363 . S
C826 C832 1.379 . S
C826 N834 1.356 . S
C827 C826 1.363 . S
C827 C833 1.363 . S
C828 C829 1.363 . S
C828 C833 1.379 . S
C828 N835 1.356 . S
C829 C828 1.363 . S
C829 C832 1.363 . S
N830 C832 1.356 . S
N830 H842 0.984 . S
N830 H843 0.985 . S
N831 C833 1.356 . S
N831 H836 0.984 . S
N831 H837 0.985 . S
C832 C826 1.379 . S
C832 C829 1.363 . S
C832 N830 1.356 . S
C833 C827 1.363 . S
C833 C828 1.379 . S
C833 N831 1.356 . S
N834 C826 1.356 . S
N834 H840 0.984 . S
N834 H841 0.984 . S
N835 C828 1.356 . S
N835 H838 0.984 . S
N835 H839 0.985 . S
H836 N831 0.984 . S
H837 N831 0.985 . S
H838 N835 0.984 . S
H839 N835 0.985 . S
H840 N834 0.984 . S
H841 N834 0.984 . S
H842 N830 0.984 . S
H843 N830 0.985 . S
C844 C845 1.363 . S
C844 C850 1.379 . S
C844 N852 1.356 . S
C845 C844 1.363 . S
C845 C851 1.363 . S
C846 C847 1.363 . S
C846 C851 1.379 . S
C846 N853 1.356 . S
C847 C846 1.363 . S
C847 C850 1.363 . S
N848 C850 1.356 . S
N848 H860 0.984 . S
N848 H861 0.985 . S
N849 C851 1.356 . S
N849 H854 0.984 . S
N849 H855 0.985 1_556 S
C850 C844 1.379 . S
C850 C847 1.363 . S
C850 N848 1.356 . S
C851 C845 1.363 . S
C851 C846 1.379 . S
C851 N849 1.356 . S
N852 C844 1.356 . S
N852 H858 0.984 . S
N852 H859 0.984 . S
N853 C846 1.356 . S
N853 H856 0.984 . S
N853 H857 0.985 1_556 S
H854 N849 0.984 . S
H855 N849 0.985 1_554 S
H856 N853 0.984 . S
H857 N853 0.985 1_554 S
H858 N852 0.984 . S
H859 N852 0.984 . S
H860 N848 0.984 . S
H861 N848 0.985 . S
C862 C863 1.363 . S
C862 C868 1.379 1_455 S
C862 N870 1.356 . S
C863 C862 1.363 . S
C863 C869 1.363 . S
C864 C865 1.363 . S
C864 C869 1.379 1_655 S
C864 N871 1.356 . S
C865 C864 1.363 . S
C865 C868 1.363 . S
N866 C868 1.356 . S
N866 H878 0.988 . S
N866 H879 0.985 . S
N867 C869 1.356 . S
N867 H872 0.984 . S
N867 H873 0.988 . S
C868 C862 1.379 1_655 S
C868 C865 1.363 . S
C868 N866 1.356 . S
C869 C863 1.363 . S
C869 C864 1.379 1_455 S
C869 N867 1.356 . S
N870 C862 1.356 . S
N870 H876 0.984 . S
N870 H877 0.984 . S
N871 C864 1.356 . S
N871 H874 0.984 . S
N871 H875 0.985 . S
H872 N867 0.984 . S
H873 N867 0.988 . S
H874 N871 0.984 . S
H875 N871 0.985 . S
H876 N870 0.984 . S
H877 N870 0.984 . S
H878 N866 0.988 . S
H879 N866 0.985 . S
C880 C881 1.363 . S
C880 C886 1.379 . S
C880 N888 1.356 . S
C881 C880 1.363 . S
C881 C887 1.363 1_655 S
C882 C883 1.363 . S
C882 C887 1.379 . S
C882 N889 1.356 . S
C883 C882 1.363 . S
C883 C886 1.363 1_455 S
N884 C886 1.356 1_455 S
N884 H896 0.984 1_456 S
N884 H897 0.985 . S
N885 C887 1.356 1_655 S
N885 H890 0.984 . S
N885 H891 0.985 1_655 S
C886 C880 1.379 . S
C886 C883 1.363 1_655 S
C886 N884 1.356 1_655 S
C887 C881 1.363 1_455 S
C887 C882 1.379 . S
C887 N885 1.356 1_455 S
N888 C880 1.356 . S
N888 H894 0.984 1_556 S
N888 H895 0.984 . S
N889 C882 1.356 . S
N889 H892 0.984 . S
N889 H893 0.985 . S
H890 N885 0.984 . S
H891 N885 0.985 1_455 S
H892 N889 0.984 . S
H893 N889 0.985 . S
H894 N888 0.984 1_554 S
H895 N888 0.984 . S
H896 N884 0.984 1_654 S
H897 N884 0.985 . S
C898 C899 1.363 . S
C898 C904 1.379 1_655 S
C898 N906 1.356 . S
C899 C898 1.363 . S
C899 C905 1.363 . S
C900 C901 1.363 . S
C900 C905 1.379 1_455 S
C900 N907 1.356 . S
C901 C900 1.363 . S
C901 C904 1.363 . S
N902 C904 1.356 . S
N902 H914 0.984 . S
N902 H915 0.985 . S
N903 C905 1.356 . S
N903 H908 0.984 . S
N903 H909 0.985 . S
C904 C898 1.379 1_455 S
C904 C901 1.363 . S
C904 N902 1.356 . S
C905 C899 1.363 . S
C905 C900 1.379 1_655 S
C905 N903 1.356 . S
N906 C898 1.356 . S
N906 H912 0.988 . S
N906 H913 0.984 . S
N907 C900 1.356 . S
N907 H910 0.984 . S
N907 H911 0.988 . S
H908 N903 0.984 . S
H909 N903 0.985 . S
H910 N907 0.984 . S
H911 N907 0.988 . S
H912 N906 0.988 . S
H913 N906 0.984 . S
H914 N902 0.984 . S
H915 N902 0.985 . S
C916 C917 1.363 . S
C916 C922 1.379 . S
C916 N924 1.356 . S
C917 C916 1.363 . S
C917 C923 1.363 . S
C918 C919 1.363 . S
C918 C923 1.379 . S
C918 N925 1.356 . S
C919 C918 1.363 . S
C919 C922 1.363 . S
N920 C922 1.356 . S
N920 H932 0.984 . S
N920 H933 0.985 . S
N921 C923 1.356 . S
N921 H926 0.984 . S
N921 H927 0.985 . S
C922 C916 1.379 . S
C922 C919 1.363 . S
C922 N920 1.356 . S
C923 C917 1.363 . S
C923 C918 1.379 . S
C923 N921 1.356 . S
N924 C916 1.356 . S
N924 H930 0.984 . S
N924 H931 0.984 . S
N925 C918 1.356 . S
N925 H928 0.984 . S
N925 H929 0.985 . S
H926 N921 0.984 . S
H927 N921 0.985 . S
H928 N925 0.984 . S
H929 N925 0.985 . S
H930 N924 0.984 . S
H931 N924 0.984 . S
H932 N920 0.984 . S
H933 N920 0.985 . S
C934 C935 1.363 . S
C934 C940 1.379 . S
C934 N942 1.356 . S
C935 C934 1.363 . S
C935 C941 1.363 . S
C936 C937 1.363 . S
C936 C941 1.379 . S
C936 N943 1.356 . S
C937 C936 1.363 . S
C937 C940 1.363 . S
N938 C940 1.356 . S
N938 H950 0.984 . S
N938 H951 0.985 . S
N939 C941 1.356 . S
N939 H944 0.984 . S
N939 H945 0.985 . S
C940 C934 1.379 . S
C940 C937 1.363 . S
C940 N938 1.356 . S
C941 C935 1.363 . S
C941 C936 1.379 . S
C941 N939 1.356 . S
N942 C934 1.356 . S
N942 H948 0.984 . S
N942 H949 0.984 . S
N943 C936 1.356 . S
N943 H946 0.984 . S
N943 H947 0.985 . S
H944 N939 0.984 . S
H945 N939 0.985 . S
H946 N943 0.984 . S
H947 N943 0.985 . S
H948 N942 0.984 . S
H949 N942 0.984 . S
H950 N938 0.984 . S
H951 N938 0.985 . S
C952 C953 1.363 1_455 S
C952 C958 1.379 . S
C952 N960 1.356 1_455 S
C953 C952 1.363 1_655 S
C953 C959 1.363 . S
C954 C955 1.363 1_655 S
C954 C959 1.379 . S
C954 N961 1.356 1_655 S
C955 C954 1.363 1_455 S
C955 C958 1.363 . S
N956 C958 1.356 . S
N956 H968 0.984 . S
N956 H969 0.985 . S
N957 C959 1.356 . S
N957 H962 0.984 . S
N957 H963 0.985 . S
C958 C952 1.379 . S
C958 C955 1.363 . S
C958 N956 1.356 . S
C959 C953 1.363 . S
C959 C954 1.379 . S
C959 N957 1.356 . S
N960 C952 1.356 1_655 S
N960 H966 0.984 1_655 S
N960 H967 0.984 . S
N961 C954 1.356 1_455 S
N961 H964 0.984 . S
N961 H965 0.985 1_455 S
H962 N957 0.984 . S
H963 N957 0.985 . S
H964 N961 0.984 . S
H965 N961 0.985 1_655 S
H966 N960 0.984 1_455 S
H967 N960 0.984 . S
H968 N956 0.984 . S
H969 N956 0.985 . S
C970 C971 1.363 . S
C970 C976 1.379 . S
C970 N978 1.356 . S
C971 C970 1.363 . S
C971 C977 1.363 . S
C972 C973 1.363 . S
C972 C977 1.379 . S
C972 N979 1.356 . S
C973 C972 1.363 . S
C973 C976 1.363 . S
N974 C976 1.356 . S
N974 H986 0.984 . S
N974 H987 0.985 . S
N975 C977 1.356 . S
N975 H980 0.984 . S
N975 H981 0.985 . S
C976 C970 1.379 . S
C976 C973 1.363 . S
C976 N974 1.356 . S
C977 C971 1.363 . S
C977 C972 1.379 . S
C977 N975 1.356 . S
N978 C970 1.356 . S
N978 H984 0.984 . S
N978 H985 0.984 . S
N979 C972 1.356 . S
N979 H982 0.984 . S
N979 H983 0.985 . S
H980 N975 0.984 . S
H981 N975 0.985 . S
H982 N979 0.984 . S
H983 N979 0.985 . S
H984 N978 0.984 . S
H985 N978 0.984 . S
H986 N974 0.984 . S
H987 N974 0.985 . S
C988 C989 1.363 . S
C988 C994 1.379 . S
C988 N996 1.356 . S
C989 C988 1.363 . S
C989 C995 1.363 . S
C990 C991 1.363 . S
C990 C995 1.379 . S
C990 N997 1.356 . S
C991 C990 1.363 . S
C991 C994 1.363 . S
N992 C994 1.356 . S
N992 H1004 0.984 1_554 S
N992 H1005 0.985 . S
N993 C995 1.356 . S
N993 H998 0.984 . S
N993 H999 0.985 . S
C994 C988 1.379 . S
C994 C991 1.363 . S
C994 N992 1.356 . S
C995 C989 1.363 . S
C995 C990 1.379 . S
C995 N993 1.356 . S
N996 C988 1.356 . S
N996 H1002 0.984 1_554 S
N996 H1003 0.984 . S
N997 C990 1.356 . S
N997 H1000 0.984 . S
N997 H1001 0.985 . S
H998 N993 0.984 . S
H999 N993 0.985 . S
H1000 N997 0.984 . S
H1001 N997 0.985 . S
H1002 N996 0.984 1_556 S
H1003 N996 0.984 . S
H1004 N992 0.984 1_556 S
H1005 N992 0.985 . S
C1006 C1007 1.363 . S
C1006 C1012 1.379 1_655 S
C1006 N1014 1.356 . S
C1007 C1006 1.363 . S
C1007 C1013 1.363 . S
C1008 C1009 1.363 . S
C1008 C1013 1.379 1_455 S
C1008 N1015 1.356 . S
C1009 C1008 1.363 . S
C1009 C1012 1.363 . S
N1010 C1012 1.356 . S
N1010 H1022 0.984 . S
N1010 H1023 0.985 . S
N1011 C1013 1.356 . S
N1011 H1016 0.984 . S
N1011 H1017 0.985 . S
C1012 C1006 1.379 1_455 S
C1012 C1009 1.363 . S
C1012 N1010 1.356 . S
C1013 C1007 1.363 . S
C1013 C1008 1.379 1_655 S
C1013 N1011 1.356 . S
N1014 C1006 1.356 . S
N1014 H1020 0.988 . S
N1014 H1021 0.984 . S
N1015 C1008 1.356 . S
N1015 H1018 0.984 . S
N1015 H1019 0.988 . S
H1016 N1011 0.984 . S
H1017 N1011 0.985 . S
H1018 N1015 0.984 . S
H1019 N1015 0.988 . S
H1020 N1014 0.988 . S
H1021 N1014 0.984 . S
H1022 N1010 0.984 . S
H1023 N1010 0.985 . S
C1024 C1025 1.363 1_554 S
C1024 C1030 1.379 . S
C1024 N1032 1.356 . S
C1025 C1024 1.363 1_556 S
C1025 C1031 1.363 . S
C1026 C1027 1.363 1_556 S
C1026 C1031 1.379 . S
C1026 N1033 1.356 . S
C1027 C1026 1.363 1_554 S
C1027 C1030 1.363 . S
N1028 C1030 1.356 . S
N1028 H1040 0.984 . S
N1028 H1041 0.985 . S
N1029 C1031 1.356 . S
N1029 H1034 0.984 . S
N1029 H1035 0.985 . S
C1030 C1024 1.379 . S
C1030 C1027 1.363 . S
C1030 N1028 1.356 . S
C1031 C1025 1.363 . S
C1031 C1026 1.379 . S
C1031 N1029 1.356 . S
N1032 C1024 1.356 . S
N1032 H1038 0.984 . S
N1032 H1039 0.984 . S
N1033 C1026 1.356 . S
N1033 H1036 0.984 . S
N1033 H1037 0.985 . S
H1034 N1029 0.984 . S
H1035 N1029 0.985 . S
H1036 N1033 0.984 . S
H1037 N1033 0.985 . S
H1038 N1032 0.984 . S
H1039 N1032 0.984 . S
H1040 N1028 0.984 . S
H1041 N1028 0.985 . S
C1042 C1043 1.363 . S
C1042 C1048 1.379 1_545 S
C1042 N1050 1.356 . S
C1043 C1042 1.363 . S
C1043 C1049 1.363 . S
C1044 C1045 1.363 . S
C1044 C1049 1.379 1_565 S
C1044 N1051 1.356 . S
C1045 C1044 1.363 . S
C1045 C1048 1.363 . S
N1046 C1048 1.356 . S
N1046 H1058 0.984 . S
N1046 H1059 0.985 . S
N1047 C1049 1.356 . S
N1047 H1052 0.984 . S
N1047 H1053 0.985 . S
C1048 C1042 1.379 1_565 S
C1048 C1045 1.363 . S
C1048 N1046 1.356 . S
C1049 C1043 1.363 . S
C1049 C1044 1.379 1_545 S
C1049 N1047 1.356 . S
N1050 C1042 1.356 . S
N1050 H1056 0.984 . S
N1050 H1057 0.984 . S
N1051 C1044 1.356 . S
N1051 H1054 0.984 . S
N1051 H1055 0.985 . S
H1052 N1047 0.984 . S
H1053 N1047 0.985 . S
H1054 N1051 0.984 . S
H1055 N1051 0.985 . S
H1056 N1050 0.984 . S
H1057 N1050 0.984 . S
H1058 N1046 0.984 . S
H1059 N1046 0.985 . S
C1060 C1061 1.363 . S
C1060 C1066 1.379 . S
C1060 N1068 1.356 . S
C1061 C1060 1.363 . S
C1061 C1067 1.363 . S
C1062 C1063 1.363 . S
C1062 C1067 1.379 . S
C1062 N1069 1.356 . S
C1063 C1062 1.363 . S
C1063 C1066 1.363 . S
N1064 C1066 1.356 . S
N1064 H1076 0.984 . S
N1064 H1077 0.985 . S
N1065 C1067 1.356 . S
N1065 H1070 0.984 . S
N1065 H1071 0.985 . S
C1066 C1060 1.379 . S
C1066 C1063 1.363 . S
C1066 N1064 1.356 . S
C1067 C1061 1.363 . S
C1067 C1062 1.379 . S
C1067 N1065 1.356 . S
N1068 C1060 1.356 . S
N1068 H1074 0.984 . S
N1068 H1075 0.984 . S
N1069 C1062 1.356 . S
N1069 H1072 0.984 . S
N1069 H1073 0.985 . S
H1070 N1065 0.984 . S
H1071 N1065 0.985 . S
H1072 N1069 0.984 . S
H1073 N1069 0.985 . S
H1074 N1068 0.984 . S
H1075 N1068 0.984 . S
H1076 N1064 0.984 . S
H1077 N1064 0.985 . S
C1078 C1079 1.363 . S
C1078 C1084 1.379 1_545 S
C1078 N1086 1.356 . S
C1079 C1078 1.363 . S
C1079 C1085 1.363 . S
C1080 C1081 1.363 . S
C1080 C1085 1.379 1_565 S
C1080 N1087 1.356 . S
C1081 C1080 1.363 . S
C1081 C1084 1.363 . S
N1082 C1084 1.356 . S
N1082 H1094 0.984 . S
N1082 H1095 0.985 . S
N1083 C1085 1.356 . S
N1083 H1088 0.984 . S
N1083 H1089 0.985 . S
C1084 C1078 1.379 1_565 S
C1084 C1081 1.363 . S
C1084 N1082 1.356 . S
C1085 C1079 1.363 . S
C1085 C1080 1.379 1_545 S
C1085 N1083 1.356 . S
N1086 C1078 1.356 . S
N1086 H1092 0.984 . S
N1086 H1093 0.984 . S
N1087 C1080 1.356 . S
N1087 H1090 0.984 . S
N1087 H1091 0.985 . S
H1088 N1083 0.984 . S
H1089 N1083 0.985 . S
H1090 N1087 0.984 . S
H1091 N1087 0.985 . S
H1092 N1086 0.984 . S
H1093 N1086 0.984 . S
H1094 N1082 0.984 . S
H1095 N1082 0.985 . S
C1096 C1097 1.363 1_556 S
C1096 C1102 1.379 . S
C1096 N1104 1.356 . S
C1097 C1096 1.363 1_554 S
C1097 C1103 1.363 . S
C1098 C1099 1.363 1_554 S
C1098 C1103 1.379 . S
C1098 N1105 1.356 . S
C1099 C1098 1.363 1_556 S
C1099 C1102 1.363 . S
N1100 C1102 1.356 . S
N1100 H1112 0.984 . S
N1100 H1113 0.985 . S
N1101 C1103 1.356 . S
N1101 H1106 0.984 . S
N1101 H1107 0.985 . S
C1102 C1096 1.379 . S
C1102 C1099 1.363 . S
C1102 N1100 1.356 . S
C1103 C1097 1.363 . S
C1103 C1098 1.379 . S
C1103 N1101 1.356 . S
N1104 C1096 1.356 . S
N1104 H1110 0.984 . S
N1104 H1111 0.984 . S
N1105 C1098 1.356 . S
N1105 H1108 0.984 . S
N1105 H1109 0.985 . S
H1106 N1101 0.984 . S
H1107 N1101 0.985 . S
H1108 N1105 0.984 . S
H1109 N1105 0.985 . S
H1110 N1104 0.984 . S
H1111 N1104 0.984 . S
H1112 N1100 0.984 . S
H1113 N1100 0.985 . S
C1114 C1115 1.363 . S
C1114 C1120 1.379 1_565 S
C1114 N1122 1.356 . S
C1115 C1114 1.363 . S
C1115 C1121 1.363 . S
C1116 C1117 1.363 . S
C1116 C1121 1.379 1_545 S
C1116 N1123 1.356 . S
C1117 C1116 1.363 . S
C1117 C1120 1.363 . S
N1118 C1120 1.356 . S
N1118 H1130 0.984 . S
N1118 H1131 0.985 . S
N1119 C1121 1.356 . S
N1119 H1124 0.984 . S
N1119 H1125 0.985 . S
C1120 C1114 1.379 1_545 S
C1120 C1117 1.363 . S
C1120 N1118 1.356 . S
C1121 C1115 1.363 . S
C1121 C1116 1.379 1_565 S
C1121 N1119 1.356 . S
N1122 C1114 1.356 . S
N1122 H1128 0.984 . S
N1122 H1129 0.984 . S
N1123 C1116 1.356 . S
N1123 H1126 0.984 . S
N1123 H1127 0.985 . S
H1124 N1119 0.984 . S
H1125 N1119 0.985 . S
H1126 N1123 0.984 . S
H1127 N1123 0.985 . S
H1128 N1122 0.984 . S
H1129 N1122 0.984 . S
H1130 N1118 0.984 . S
H1131 N1118 0.985 . S
C1132 C1133 1.363 . S
C1132 C1138 1.379 . S
C1132 N1140 1.356 . S
C1133 C1132 1.363 . S
C1133 C1139 1.363 . S
C1134 C1135 1.363 . S
C1134 C1139 1.379 . S
C1134 N1141 1.356 . S
C1135 C1134 1.363 . S
C1135 C1138 1.363 . S
N1136 C1138 1.356 . S
N1136 H1148 0.984 . S
N1136 H1149 0.985 . S
N1137 C1139 1.356 . S
N1137 H1142 0.984 . S
N1137 H1143 0.985 . S
C1138 C1132 1.379 . S
C1138 C1135 1.363 . S
C1138 N1136 1.356 . S
C1139 C1133 1.363 . S
C1139 C1134 1.379 . S
C1139 N1137 1.356 . S
N1140 C1132 1.356 . S
N1140 H1146 0.984 . S
N1140 H1147 0.984 . S
N1141 C1134 1.356 . S
N1141 H1144 0.984 . S
N1141 H1145 0.985 . S
H1142 N1137 0.984 . S
H1143 N1137 0.985 . S
H1144 N1141 0.984 . S
H1145 N1141 0.985 . S
H1146 N1140 0.984 . S
H1147 N1140 0.984 . S
H1148 N1136 0.984 . S
H1149 N1136 0.985 . S
C1150 C1151 1.363 . S
C1150 C1156 1.379 1_545 S
C1150 N1158 1.356 . S
C1151 C1150 1.363 . S
C1151 C1157 1.363 . S
C1152 C1153 1.363 . S
C1152 C1157 1.379 1_565 S
C1152 N1159 1.356 . S
C1153 C1152 1.363 . S
C1153 C1156 1.363 . S
N1154 C1156 1.356 . S
N1154 H1166 0.984 . S
N1154 H1167 0.985 . S
N1155 C1157 1.356 . S
N1155 H1160 0.984 . S
N1155 H1161 0.985 . S
C1156 C1150 1.379 1_565 S
C1156 C1153 1.363 . S
C1156 N1154 1.356 . S
C1157 C1151 1.363 . S
C1157 C1152 1.379 1_545 S
C1157 N1155 1.356 . S
N1158 C1150 1.356 . S
N1158 H1164 0.984 . S
N1158 H1165 0.984 . S
N1159 C1152 1.356 . S
N1159 H1162 0.984 . S
N1159 H1163 0.985 . S
H1160 N1155 0.984 . S
H1161 N1155 0.985 . S
H1162 N1159 0.984 . S
H1163 N1159 0.985 . S
H1164 N1158 0.984 . S
H1165 N1158 0.984 . S
H1166 N1154 0.984 . S
H1167 N1154 0.985 . S
C1168 C1169 1.363 . S
C1168 C1174 1.379 . S
C1168 N1176 1.356 . S
C1169 C1168 1.363 . S
C1169 C1175 1.363 . S
C1170 C1171 1.363 . S
C1170 C1175 1.379 . S
C1170 N1177 1.356 . S
C1171 C1170 1.363 . S
C1171 C1174 1.363 . S
N1172 C1174 1.356 . S
N1172 H1184 0.984 . S
N1172 H1185 0.985 . S
N1173 C1175 1.356 . S
N1173 H1178 0.984 . S
N1173 H1179 0.985 . S
C1174 C1168 1.379 . S
C1174 C1171 1.363 . S
C1174 N1172 1.356 . S
C1175 C1169 1.363 . S
C1175 C1170 1.379 . S
C1175 N1173 1.356 . S
N1176 C1168 1.356 . S
N1176 H1182 0.984 . S
N1176 H1183 0.984 . S
N1177 C1170 1.356 . S
N1177 H1180 0.984 . S
N1177 H1181 0.985 . S
H1178 N1173 0.984 . S
H1179 N1173 0.985 . S
H1180 N1177 0.984 . S
H1181 N1177 0.985 . S
H1182 N1176 0.984 . S
H1183 N1176 0.984 . S
H1184 N1172 0.984 . S
H1185 N1172 0.985 . S
C1186 C1187 1.363 . S
C1186 C1192 1.379 . S
C1186 N1194 1.356 . S
C1187 C1186 1.363 . S
C1187 C1193 1.363 . S
C1188 C1189 1.363 . S
C1188 C1193 1.379 . S
C1188 N1195 1.356 . S
C1189 C1188 1.363 . S
C1189 C1192 1.363 . S
N1190 C1192 1.356 . S
N1190 H1202 0.984 . S
N1190 H1203 0.985 . S
N1191 C1193 1.356 . S
N1191 H1196 0.984 . S
N1191 H1197 0.985 . S
C1192 C1186 1.379 . S
C1192 C1189 1.363 . S
C1192 N1190 1.356 . S
C1193 C1187 1.363 . S
C1193 C1188 1.379 . S
C1193 N1191 1.356 . S
N1194 C1186 1.356 . S
N1194 H1200 0.984 . S
N1194 H1201 0.984 . S
N1195 C1188 1.356 . S
N1195 H1198 0.984 . S
N1195 H1199 0.985 . S
H1196 N1191 0.984 . S
H1197 N1191 0.985 . S
H1198 N1195 0.984 . S
H1199 N1195 0.985 . S
H1200 N1194 0.984 . S
H1201 N1194 0.984 . S
H1202 N1190 0.984 . S
H1203 N1190 0.985 . S
C1204 C1205 1.363 1_556 S
C1204 C1210 1.379 . S
C1204 N1212 1.356 . S
C1205 C1204 1.363 1_554 S
C1205 C1211 1.363 . S
C1206 C1207 1.363 1_554 S
C1206 C1211 1.379 . S
C1206 N1213 1.356 . S
C1207 C1206 1.363 1_556 S
C1207 C1210 1.363 . S
N1208 C1210 1.356 . S
N1208 H1220 0.984 . S
N1208 H1221 0.985 . S
N1209 C1211 1.356 . S
N1209 H1214 0.984 . S
N1209 H1215 0.985 . S
C1210 C1204 1.379 . S
C1210 C1207 1.363 . S
C1210 N1208 1.356 . S
C1211 C1205 1.363 . S
C1211 C1206 1.379 . S
C1211 N1209 1.356 . S
N1212 C1204 1.356 . S
N1212 H1218 0.984 . S
N1212 H1219 0.984 . S
N1213 C1206 1.356 . S
N1213 H1216 0.984 . S
N1213 H1217 0.985 . S
H1214 N1209 0.984 . S
H1215 N1209 0.985 . S
H1216 N1213 0.984 . S
H1217 N1213 0.985 . S
H1218 N1212 0.984 . S
H1219 N1212 0.984 . S
H1220 N1208 0.984 . S
H1221 N1208 0.985 . S
C1222 C1223 1.363 . S
C1222 C1228 1.379 . S
C1222 N1230 1.356 . S
C1223 C1222 1.363 . S
C1223 C1229 1.363 . S
C1224 C1225 1.363 . S
C1224 C1229 1.379 . S
C1224 N1231 1.356 . S
C1225 C1224 1.363 . S
C1225 C1228 1.363 . S
N1226 C1228 1.356 . S
N1226 H1238 0.984 . S
N1226 H1239 0.985 . S
N1227 C1229 1.356 . S
N1227 H1232 0.984 . S
N1227 H1233 0.985 . S
C1228 C1222 1.379 . S
C1228 C1225 1.363 . S
C1228 N1226 1.356 . S
C1229 C1223 1.363 . S
C1229 C1224 1.379 . S
C1229 N1227 1.356 . S
N1230 C1222 1.356 . S
N1230 H1236 0.984 . S
N1230 H1237 0.984 . S
N1231 C1224 1.356 . S
N1231 H1234 0.984 . S
N1231 H1235 0.985 . S
H1232 N1227 0.984 . S
H1233 N1227 0.985 . S
H1234 N1231 0.984 . S
H1235 N1231 0.985 . S
H1236 N1230 0.984 . S
H1237 N1230 0.984 . S
H1238 N1226 0.984 . S
H1239 N1226 0.985 . S
C1240 C1241 1.363 . S
C1240 C1246 1.379 . S
C1240 N1248 1.356 . S
C1241 C1240 1.363 . S
C1241 C1247 1.363 . S
C1242 C1243 1.363 . S
C1242 C1247 1.379 . S
C1242 N1249 1.356 . S
C1243 C1242 1.363 . S
C1243 C1246 1.363 . S
N1244 C1246 1.356 . S
N1244 H1256 0.984 . S
N1244 H1257 0.985 . S
N1245 C1247 1.356 . S
N1245 H1250 0.984 . S
N1245 H1251 0.985 . S
C1246 C1240 1.379 . S
C1246 C1243 1.363 . S
C1246 N1244 1.356 . S
C1247 C1241 1.363 . S
C1247 C1242 1.379 . S
C1247 N1245 1.356 . S
N1248 C1240 1.356 . S
N1248 H1254 0.984 . S
N1248 H1255 0.984 . S
N1249 C1242 1.356 . S
N1249 H1252 0.984 . S
N1249 H1253 0.985 . S
H1250 N1245 0.984 . S
H1251 N1245 0.985 . S
H1252 N1249 0.984 . S
H1253 N1249 0.985 . S
H1254 N1248 0.984 . S
H1255 N1248 0.984 . S
H1256 N1244 0.984 . S
H1257 N1244 0.985 . S
C1258 C1259 1.363 . S
C1258 C1264 1.379 . S
C1258 N1266 1.356 . S
C1259 C1258 1.363 . S
C1259 C1265 1.363 . S
C1260 C1261 1.363 . S
C1260 C1265 1.379 . S
C1260 N1267 1.356 . S
C1261 C1260 1.363 . S
C1261 C1264 1.363 . S
N1262 C1264 1.356 . S
N1262 H1274 0.984 . S
N1262 H1275 0.985 . S
N1263 C1265 1.356 . S
N1263 H1268 0.984 . S
N1263 H1269 0.985 . S
C1264 C1258 1.379 . S
C1264 C1261 1.363 . S
C1264 N1262 1.356 . S
C1265 C1259 1.363 . S
C1265 C1260 1.379 . S
C1265 N1263 1.356 . S
N1266 C1258 1.356 . S
N1266 H1272 0.984 . S
N1266 H1273 0.984 . S
N1267 C1260 1.356 . S
N1267 H1270 0.984 . S
N1267 H1271 0.985 . S
H1268 N1263 0.984 . S
H1269 N1263 0.985 . S
H1270 N1267 0.984 . S
H1271 N1267 0.985 . S
H1272 N1266 0.984 . S
H1273 N1266 0.984 . S
H1274 N1262 0.984 . S
H1275 N1262 0.985 . S
C1276 C1277 1.363 . S
C1276 C1282 1.379 . S
C1276 N1284 1.356 . S
C1277 C1276 1.363 . S
C1277 C1283 1.363 1_556 S
C1278 C1279 1.363 . S
C1278 C1283 1.379 . S
C1278 N1285 1.356 . S
C1279 C1278 1.363 . S
C1279 C1282 1.363 1_554 S
N1280 C1282 1.356 . S
N1280 H1292 0.984 . S
N1280 H1293 0.985 . S
N1281 C1283 1.356 . S
N1281 H1286 0.984 . S
N1281 H1287 0.985 . S
C1282 C1276 1.379 . S
C1282 C1279 1.363 1_556 S
C1282 N1280 1.356 . S
C1283 C1277 1.363 1_554 S
C1283 C1278 1.379 . S
C1283 N1281 1.356 . S
N1284 C1276 1.356 . S
N1284 H1290 0.984 . S
N1284 H1291 0.984 . S
N1285 C1278 1.356 . S
N1285 H1288 0.984 . S
N1285 H1289 0.985 . S
H1286 N1281 0.984 . S
H1287 N1281 0.985 . S
H1288 N1285 0.984 . S
H1289 N1285 0.985 . S
H1290 N1284 0.984 . S
H1291 N1284 0.984 . S
H1292 N1280 0.984 . S
H1293 N1280 0.985 . S
C1294 C1295 1.363 . S
C1294 C1300 1.379 . S
C1294 N1302 1.356 . S
C1295 C1294 1.363 . S
C1295 C1301 1.363 . S
C1296 C1297 1.363 . S
C1296 C1301 1.379 . S
C1296 N1303 1.356 . S
C1297 C1296 1.363 . S
C1297 C1300 1.363 . S
N1298 C1300 1.356 . S
N1298 H1310 0.984 . S
N1298 H1311 0.985 . S
N1299 C1301 1.356 . S
N1299 H1304 0.984 . S
N1299 H1305 0.985 . S
C1300 C1294 1.379 . S
C1300 C1297 1.363 . S
C1300 N1298 1.356 . S
C1301 C1295 1.363 . S
C1301 C1296 1.379 . S
C1301 N1299 1.356 . S
N1302 C1294 1.356 . S
N1302 H1308 0.984 . S
N1302 H1309 0.984 . S
N1303 C1296 1.356 . S
N1303 H1306 0.984 . S
N1303 H1307 0.985 . S
H1304 N1299 0.984 . S
H1305 N1299 0.985 . S
H1306 N1303 0.984 . S
H1307 N1303 0.985 . S
H1308 N1302 0.984 . S
H1309 N1302 0.984 . S
H1310 N1298 0.984 . S
H1311 N1298 0.985 . S
C1312 C1313 1.363 . S
C1312 C1318 1.379 . S
C1312 N1320 1.356 . S
C1313 C1312 1.363 . S
C1313 C1319 1.363 . S
C1314 C1315 1.363 . S
C1314 C1319 1.379 . S
C1314 N1321 1.356 . S
C1315 C1314 1.363 . S
C1315 C1318 1.363 . S
N1316 C1318 1.356 . S
N1316 H1328 0.984 . S
N1316 H1329 0.985 . S
N1317 C1319 1.356 . S
N1317 H1322 0.984 . S
N1317 H1323 0.985 . S
C1318 C1312 1.379 . S
C1318 C1315 1.363 . S
C1318 N1316 1.356 . S
C1319 C1313 1.363 . S
C1319 C1314 1.379 . S
C1319 N1317 1.356 . S
N1320 C1312 1.356 . S
N1320 H1326 0.984 . S
N1320 H1327 0.984 . S
N1321 C1314 1.356 . S
N1321 H1324 0.984 . S
N1321 H1325 0.985 . S
H1322 N1317 0.984 . S
H1323 N1317 0.985 . S
H1324 N1321 0.984 . S
H1325 N1321 0.985 . S
H1326 N1320 0.984 . S
H1327 N1320 0.984 . S
H1328 N1316 0.984 . S
H1329 N1316 0.985 . S
C1330 C1331 1.363 . S
C1330 C1336 1.379 . S
C1330 N1338 1.356 . S
C1331 C1330 1.363 . S
C1331 C1337 1.363 . S
C1332 C1333 1.363 . S
C1332 C1337 1.379 . S
C1332 N1339 1.356 . S
C1333 C1332 1.363 . S
C1333 C1336 1.363 . S
N1334 C1336 1.356 . S
N1334 H1346 0.984 . S
N1334 H1347 0.985 . S
N1335 C1337 1.356 . S
N1335 H1340 0.984 . S
N1335 H1341 0.985 . S
C1336 C1330 1.379 . S
C1336 C1333 1.363 . S
C1336 N1334 1.356 . S
C1337 C1331 1.363 . S
C1337 C1332 1.379 . S
C1337 N1335 1.356 . S
N1338 C1330 1.356 . S
N1338 H1344 0.984 . S
N1338 H1345 0.984 . S
N1339 C1332 1.356 . S
N1339 H1342 0.984 . S
N1339 H1343 0.985 . S
H1340 N1335 0.984 . S
H1341 N1335 0.985 . S
H1342 N1339 0.984 . S
H1343 N1339 0.985 . S
H1344 N1338 0.984 . S
H1345 N1338 0.984 . S
H1346 N1334 0.984 . S
H1347 N1334 0.985 . S
C1348 C1349 1.363 . S
C1348 C1354 1.379 . S
C1348 N1356 1.356 . S
C1349 C1348 1.363 . S
C1349 C1355 1.363 . S
C1350 C1351 1.363 . S
C1350 C1355 1.379 . S
C1350 N1357 1.356 . S
C1351 C1350 1.363 . S
C1351 C1354 1.363 . S
N1352 C1354 1.356 . S
N1352 H1364 0.984 . S
N1352 H1365 0.985 . S
N1353 C1355 1.356 . S
N1353 H1358 0.984 . S
N1353 H1359 0.985 . S
C1354 C1348 1.379 . S
C1354 C1351 1.363 . S
C1354 N1352 1.356 . S
C1355 C1349 1.363 . S
C1355 C1350 1.379 . S
C1355 N1353 1.356 . S
N1356 C1348 1.356 . S
N1356 H1362 0.984 . S
N1356 H1363 0.984 . S
N1357 C1350 1.356 . S
N1357 H1360 0.984 . S
N1357 H1361 0.985 . S
H1358 N1353 0.984 . S
H1359 N1353 0.985 . S
H1360 N1357 0.984 . S
H1361 N1357 0.985 . S
H1362 N1356 0.984 . S
H1363 N1356 0.984 . S
H1364 N1352 0.984 . S
H1365 N1352 0.985 . S
C1366 C1367 1.363 . S
C1366 C1372 1.379 . S
C1366 N1374 1.356 . S
C1367 C1366 1.363 . S
C1367 C1373 1.363 . S
C1368 C1369 1.363 . S
C1368 C1373 1.379 . S
C1368 N1375 1.356 . S
C1369 C1368 1.363 . S
C1369 C1372 1.363 . S
N1370 C1372 1.356 . S
N1370 H1382 0.984 . S
N1370 H1383 0.985 . S
N1371 C1373 1.356 . S
N1371 H1376 0.984 . S
N1371 H1377 0.985 . S
C1372 C1366 1.379 . S
C1372 C1369 1.363 . S
C1372 N1370 1.356 . S
C1373 C1367 1.363 . S
C1373 C1368 1.379 . S
C1373 N1371 1.356 . S
N1374 C1366 1.356 . S
N1374 H1380 0.984 . S
N1374 H1381 0.984 . S
N1375 C1368 1.356 . S
N1375 H1378 0.984 . S
N1375 H1379 0.985 . S
H1376 N1371 0.984 . S
H1377 N1371 0.985 . S
H1378 N1375 0.984 . S
H1379 N1375 0.985 . S
H1380 N1374 0.984 . S
H1381 N1374 0.984 . S
H1382 N1370 0.984 . S
H1383 N1370 0.985 . S
C1384 C1385 1.363 . S
C1384 C1390 1.379 . S
C1384 N1392 1.356 . S
C1385 C1384 1.363 . S
C1385 C1391 1.363 . S
C1386 C1387 1.363 . S
C1386 C1391 1.379 . S
C1386 N1393 1.356 . S
C1387 C1386 1.363 . S
C1387 C1390 1.363 . S
N1388 C1390 1.356 . S
N1388 H1400 0.984 . S
N1388 H1401 0.985 . S
N1389 C1391 1.356 . S
N1389 H1394 0.984 . S
N1389 H1395 0.985 . S
C1390 C1384 1.379 . S
C1390 C1387 1.363 . S
C1390 N1388 1.356 . S
C1391 C1385 1.363 . S
C1391 C1386 1.379 . S
C1391 N1389 1.356 . S
N1392 C1384 1.356 . S
N1392 H1398 0.984 . S
N1392 H1399 0.984 . S
N1393 C1386 1.356 . S
N1393 H1396 0.984 . S
N1393 H1397 0.985 . S
H1394 N1389 0.984 . S
H1395 N1389 0.985 . S
H1396 N1393 0.984 . S
H1397 N1393 0.985 . S
H1398 N1392 0.984 . S
H1399 N1392 0.984 . S
H1400 N1388 0.984 . S
H1401 N1388 0.985 . S
C1402 C1403 1.363 . S
C1402 C1408 1.379 . S
C1402 N1410 1.356 . S
C1403 C1402 1.363 . S
C1403 C1409 1.363 . S
C1404 C1405 1.363 . S
C1404 C1409 1.379 . S
C1404 N1411 1.356 . S
C1405 C1404 1.363 . S
C1405 C1408 1.363 . S
N1406 C1408 1.356 . S
N1406 H1418 0.984 . S
N1406 H1419 0.985 . S
N1407 C1409 1.356 . S
N1407 H1412 0.984 . S
N1407 H1413 0.985 . S
C1408 C1402 1.379 . S
C1408 C1405 1.363 . S
C1408 N1406 1.356 . S
C1409 C1403 1.363 . S
C1409 C1404 1.379 . S
C1409 N1407 1.356 . S
N1410 C1402 1.356 . S
N1410 H1416 0.984 . S
N1410 H1417 0.984 . S
N1411 C1404 1.356 . S
N1411 H1414 0.984 . S
N1411 H1415 0.985 . S
H1412 N1407 0.984 . S
H1413 N1407 0.985 . S
H1414 N1411 0.984 . S
H1415 N1411 0.985 . S
H1416 N1410 0.984 . S
H1417 N1410 0.984 . S
H1418 N1406 0.984 . S
H1419 N1406 0.985 . S
C1420 C1421 1.363 . S
C1420 C1426 1.379 . S
C1420 N1428 1.356 . S
C1421 C1420 1.363 . S
C1421 C1427 1.363 . S
C1422 C1423 1.363 . S
C1422 C1427 1.379 . S
C1422 N1429 1.356 . S
C1423 C1422 1.363 . S
C1423 C1426 1.363 . S
N1424 C1426 1.356 . S
N1424 H1436 0.984 . S
N1424 H1437 0.985 . S
N1425 C1427 1.356 . S
N1425 H1430 0.984 . S
N1425 H1431 0.985 . S
C1426 C1420 1.379 . S
C1426 C1423 1.363 . S
C1426 N1424 1.356 . S
C1427 C1421 1.363 . S
C1427 C1422 1.379 . S
C1427 N1425 1.356 . S
N1428 C1420 1.356 . S
N1428 H1434 0.984 . S
N1428 H1435 0.984 . S
N1429 C1422 1.356 . S
N1429 H1432 0.984 . S
N1429 H1433 0.985 . S
H1430 N1425 0.984 . S
H1431 N1425 0.985 . S
H1432 N1429 0.984 . S
H1433 N1429 0.985 . S
H1434 N1428 0.984 . S
H1435 N1428 0.984 . S
H1436 N1424 0.984 . S
H1437 N1424 0.985 . S
C1438 C1439 1.363 . S
C1438 C1444 1.379 . S
C1438 N1446 1.356 . S
C1439 C1438 1.363 . S
C1439 C1445 1.363 . S
C1440 C1441 1.363 . S
C1440 C1445 1.379 . S
C1440 N1447 1.356 . S
C1441 C1440 1.363 . S
C1441 C1444 1.363 . S
N1442 C1444 1.356 . S
N1442 H1454 0.984 . S
N1442 H1455 0.985 . S
N1443 C1445 1.356 . S
N1443 H1448 0.984 . S
N1443 H1449 0.985 . S
C1444 C1438 1.379 . S
C1444 C1441 1.363 . S
C1444 N1442 1.356 . S
C1445 C1439 1.363 . S
C1445 C1440 1.379 . S
C1445 N1443 1.356 . S
N1446 C1438 1.356 . S
N1446 H1452 0.984 . S
N1446 H1453 0.984 . S
N1447 C1440 1.356 . S
N1447 H1450 0.984 . S
N1447 H1451 0.985 . S
H1448 N1443 0.984 . S
H1449 N1443 0.985 . S
H1450 N1447 0.984 . S
H1451 N1447 0.985 . S
H1452 N1446 0.984 . S
H1453 N1446 0.984 . S
H1454 N1442 0.984 . S
H1455 N1442 0.985 . S
C1456 C1457 1.363 . S
C1456 C1462 1.379 . S
C1456 N1464 1.356 . S
C1457 C1456 1.363 . S
C1457 C1463 1.363 . S
C1458 C1459 1.363 . S
C1458 C1463 1.379 . S
C1458 N1465 1.356 . S
C1459 C1458 1.363 . S
C1459 C1462 1.363 . S
N1460 C1462 1.356 . S
N1460 H1472 0.984 . S
N1460 H1473 0.985 . S
N1461 C1463 1.356 . S
N1461 H1466 0.984 . S
N1461 H1467 0.985 . S
C1462 C1456 1.379 . S
C1462 C1459 1.363 . S
C1462 N1460 1.356 . S
C1463 C1457 1.363 . S
C1463 C1458 1.379 . S
C1463 N1461 1.356 . S
N1464 C1456 1.356 . S
N1464 H1470 0.984 . S
N1464 H1471 0.984 . S
N1465 C1458 1.356 . S
N1465 H1468 0.984 . S
N1465 H1469 0.985 . S
H1466 N1461 0.984 . S
H1467 N1461 0.985 . S
H1468 N1465 0.984 . S
H1469 N1465 0.985 . S
H1470 N1464 0.984 . S
H1471 N1464 0.984 . S
H1472 N1460 0.984 . S
H1473 N1460 0.985 . S
C1474 C1475 1.363 . S
C1474 C1480 1.379 . S
C1474 N1482 1.356 . S
C1475 C1474 1.363 . S
C1475 C1481 1.363 . S
C1476 C1477 1.363 . S
C1476 C1481 1.379 . S
C1476 N1483 1.356 . S
C1477 C1476 1.363 . S
C1477 C1480 1.363 . S
N1478 C1480 1.356 . S
N1478 H1490 0.984 . S
N1478 H1491 0.985 . S
N1479 C1481 1.356 . S
N1479 H1484 0.984 . S
N1479 H1485 0.985 . S
C1480 C1474 1.379 . S
C1480 C1477 1.363 . S
C1480 N1478 1.356 . S
C1481 C1475 1.363 . S
C1481 C1476 1.379 . S
C1481 N1479 1.356 . S
N1482 C1474 1.356 . S
N1482 H1488 0.984 . S
N1482 H1489 0.984 . S
N1483 C1476 1.356 . S
N1483 H1486 0.984 . S
N1483 H1487 0.985 . S
H1484 N1479 0.984 . S
H1485 N1479 0.985 . S
H1486 N1483 0.984 . S
H1487 N1483 0.985 . S
H1488 N1482 0.984 . S
H1489 N1482 0.984 . S
H1490 N1478 0.984 . S
H1491 N1478 0.985 . S
C1492 C1493 1.363 . S
C1492 C1498 1.379 . S
C1492 N1500 1.356 . S
C1493 C1492 1.363 . S
C1493 C1499 1.363 . S
C1494 C1495 1.363 . S
C1494 C1499 1.379 . S
C1494 N1501 1.356 . S
C1495 C1494 1.363 . S
C1495 C1498 1.363 . S
N1496 C1498 1.356 . S
N1496 H1508 0.984 . S
N1496 H1509 0.985 . S
N1497 C1499 1.356 . S
N1497 H1502 0.984 . S
N1497 H1503 0.985 . S
C1498 C1492 1.379 . S
C1498 C1495 1.363 . S
C1498 N1496 1.356 . S
C1499 C1493 1.363 . S
C1499 C1494 1.379 . S
C1499 N1497 1.356 . S
N1500 C1492 1.356 . S
N1500 H1506 0.984 . S
N1500 H1507 0.984 . S
N1501 C1494 1.356 . S
N1501 H1504 0.984 . S
N1501 H1505 0.985 . S
H1502 N1497 0.984 . S
H1503 N1497 0.985 . S
H1504 N1501 0.984 . S
H1505 N1501 0.985 . S
H1506 N1500 0.984 . S
H1507 N1500 0.984 . S
H1508 N1496 0.984 . S
H1509 N1496 0.985 . S
C1510 C1511 1.363 . S
C1510 C1516 1.379 . S
C1510 N1518 1.356 . S
C1511 C1510 1.363 . S
C1511 C1517 1.363 . S
C1512 C1513 1.363 . S
C1512 C1517 1.379 . S
C1512 N1519 1.356 . S
C1513 C1512 1.363 . S
C1513 C1516 1.363 . S
N1514 C1516 1.356 . S
N1514 H1526 0.984 . S
N1514 H1527 0.985 . S
N1515 C1517 1.356 . S
N1515 H1520 0.984 . S
N1515 H1521 0.985 . S
C1516 C1510 1.379 . S
C1516 C1513 1.363 . S
C1516 N1514 1.356 . S
C1517 C1511 1.363 . S
C1517 C1512 1.379 . S
C1517 N1515 1.356 . S
N1518 C1510 1.356 . S
N1518 H1524 0.984 . S
N1518 H1525 0.984 . S
N1519 C1512 1.356 . S
N1519 H1522 0.984 . S
N1519 H1523 0.985 . S
H1520 N1515 0.984 . S
H1521 N1515 0.985 . S
H1522 N1519 0.984 . S
H1523 N1519 0.985 . S
H1524 N1518 0.984 . S
H1525 N1518 0.984 . S
H1526 N1514 0.984 . S
H1527 N1514 0.985 . S
C1528 C1529 1.363 . S
C1528 C1534 1.379 . S
C1528 N1536 1.356 . S
C1529 C1528 1.363 . S
C1529 C1535 1.363 . S
C1530 C1531 1.363 . S
C1530 C1535 1.379 . S
C1530 N1537 1.356 . S
C1531 C1530 1.363 . S
C1531 C1534 1.363 . S
N1532 C1534 1.356 . S
N1532 H1544 0.984 . S
N1532 H1545 0.985 . S
N1533 C1535 1.356 . S
N1533 H1538 0.984 . S
N1533 H1539 0.985 . S
C1534 C1528 1.379 . S
C1534 C1531 1.363 . S
C1534 N1532 1.356 . S
C1535 C1529 1.363 . S
C1535 C1530 1.379 . S
C1535 N1533 1.356 . S
N1536 C1528 1.356 . S
N1536 H1542 0.984 . S
N1536 H1543 0.984 . S
N1537 C1530 1.356 . S
N1537 H1540 0.984 . S
N1537 H1541 0.985 . S
H1538 N1533 0.984 . S
H1539 N1533 0.985 . S
H1540 N1537 0.984 . S
H1541 N1537 0.985 . S
H1542 N1536 0.984 . S
H1543 N1536 0.984 . S
H1544 N1532 0.984 . S
H1545 N1532 0.985 . S
C1546 C1547 1.363 . S
C1546 C1552 1.379 . S
C1546 N1554 1.356 . S
C1547 C1546 1.363 . S
C1547 C1553 1.363 . S
C1548 C1549 1.363 . S
C1548 C1553 1.379 . S
C1548 N1555 1.356 . S
C1549 C1548 1.363 . S
C1549 C1552 1.363 . S
N1550 C1552 1.356 . S
N1550 H1562 0.984 . S
N1550 H1563 0.985 . S
N1551 C1553 1.356 . S
N1551 H1556 0.984 . S
N1551 H1557 0.985 . S
C1552 C1546 1.379 . S
C1552 C1549 1.363 . S
C1552 N1550 1.356 . S
C1553 C1547 1.363 . S
C1553 C1548 1.379 . S
C1553 N1551 1.356 . S
N1554 C1546 1.356 . S
N1554 H1560 0.984 . S
N1554 H1561 0.984 . S
N1555 C1548 1.356 . S
N1555 H1558 0.984 . S
N1555 H1559 0.985 . S
H1556 N1551 0.984 . S
H1557 N1551 0.985 . S
H1558 N1555 0.984 . S
H1559 N1555 0.985 . S
H1560 N1554 0.984 . S
H1561 N1554 0.984 . S
H1562 N1550 0.984 . S
H1563 N1550 0.985 . S
C1564 C1565 1.363 . S
C1564 C1570 1.379 . S
C1564 N1572 1.356 . S
C1565 C1564 1.363 . S
C1565 C1571 1.363 . S
C1566 C1567 1.363 . S
C1566 C1571 1.379 . S
C1566 N1573 1.356 . S
C1567 C1566 1.363 . S
C1567 C1570 1.363 . S
N1568 C1570 1.356 . S
N1568 H1580 0.984 . S
N1568 H1581 0.985 . S
N1569 C1571 1.356 . S
N1569 H1574 0.984 . S
N1569 H1575 0.985 . S
C1570 C1564 1.379 . S
C1570 C1567 1.363 . S
C1570 N1568 1.356 . S
C1571 C1565 1.363 . S
C1571 C1566 1.379 . S
C1571 N1569 1.356 . S
N1572 C1564 1.356 . S
N1572 H1578 0.984 . S
N1572 H1579 0.984 . S
N1573 C1566 1.356 . S
N1573 H1576 0.984 . S
N1573 H1577 0.985 . S
H1574 N1569 0.984 . S
H1575 N1569 0.985 . S
H1576 N1573 0.984 . S
H1577 N1573 0.985 . S
H1578 N1572 0.984 . S
H1579 N1572 0.984 . S
H1580 N1568 0.984 . S
H1581 N1568 0.985 . S
C1582 C1583 1.363 . S
C1582 C1588 1.379 . S
C1582 N1590 1.356 . S
C1583 C1582 1.363 . S
C1583 C1589 1.363 . S
C1584 C1585 1.363 . S
C1584 C1589 1.379 . S
C1584 N1591 1.356 . S
C1585 C1584 1.363 . S
C1585 C1588 1.363 . S
N1586 C1588 1.356 . S
N1586 H1598 0.984 . S
N1586 H1599 0.985 . S
N1587 C1589 1.356 . S
N1587 H1592 0.984 . S
N1587 H1593 0.985 . S
C1588 C1582 1.379 . S
C1588 C1585 1.363 . S
C1588 N1586 1.356 . S
C1589 C1583 1.363 . S
C1589 C1584 1.379 . S
C1589 N1587 1.356 . S
N1590 C1582 1.356 . S
N1590 H1596 0.984 . S
N1590 H1597 0.984 . S
N1591 C1584 1.356 . S
N1591 H1594 0.984 . S
N1591 H1595 0.985 . S
H1592 N1587 0.984 . S
H1593 N1587 0.985 . S
H1594 N1591 0.984 . S
H1595 N1591 0.985 . S
H1596 N1590 0.984 . S
H1597 N1590 0.984 . S
H1598 N1586 0.984 . S
H1599 N1586 0.985 . S
C449 C125 1.480 . S
C451 C13 1.480 . S
C467 C363 1.479 . S
C469 C27 1.479 . S
C485 C153 1.479 . S
C487 C41 1.479 . S
C503 C391 1.480 . S
C505 C55 1.480 . S
C521 C181 1.480 . S
C523 C69 1.480 . S
C539 C83 1.479 . S
C541 C419 1.479 . S
C557 C97 1.479 . S
C559 C209 1.479 . S
C575 C111 1.480 . S
C577 C447 1.480 . S
C593 C251 1.479 . S
C595 C139 1.479 . S
C611 C279 1.480 . S
C613 C167 1.480 . S
C629 C195 1.479 . S
C631 C307 1.479 . S
C647 C223 1.480 . S
C649 C335 1.480 . S
C665 C237 1.480 . S
C667 C349 1.480 . S
C683 C377 1.479 . S
C685 C265 1.479 . S
C701 C293 1.480 . S
C703 C405 1.480 . S
C719 C433 1.479 . S
C721 C321 1.479 . S
C737 C260 1.328 . S
C739 C8 1.328 . S
C755 C274 1.328 . S
C757 C22 1.328 . S
C773 C36 1.328 . S
C775 C232 1.328 . S
C791 C50 1.328 . S
C793 C246 1.328 . S
C809 C316 1.328 . S
C811 C64 1.328 . S
C827 C78 1.328 . S
C829 C330 1.328 . S
C845 C288 1.328 . S
C847 C92 1.328 . S
C863 C302 1.328 . S
C865 C106 1.328 . S
C881 C120 1.328 . S
C883 C372 1.328 . S
C899 C386 1.328 . S
C901 C134 1.328 . S
C917 C148 1.328 . S
C919 C344 1.328 . S
C935 C162 1.328 . S
C937 C358 1.328 . S
C953 C176 1.328 . S
C955 C428 1.328 . S
C971 C190 1.328 . S
C973 C442 1.328 . S
C989 C400 1.328 . S
C991 C204 1.328 . S
C1007 C414 1.328 . S
C1009 C218 1.328 . S
C1025 C95 1.366 . S
C1027 C11 1.366 . S
C1043 C109 1.366 . S
C1045 C25 1.366 . S
C1061 C67 1.366 . S
C1063 C39 1.366 . S
C1079 C53 1.366 . S
C1081 C81 1.366 . S
C1097 C207 1.366 . S
C1099 C123 1.366 . S
C1115 C221 1.366 . S
C1117 C137 1.366 . S
C1133 C179 1.366 . S
C1135 C151 1.366 . S
C1151 C193 1.366 . S
C1153 C165 1.366 . S
C1169 C319 1.366 . S
C1171 C235 1.366 . S
C1187 C333 1.366 . S
C1189 C249 1.366 . S
C1205 C263 1.366 . S
C1207 C291 1.366 . S
C1223 C277 1.366 . S
C1225 C305 1.366 . S
C1241 C431 1.366 . S
C1243 C347 1.366 . S
C1259 C445 1.366 . S
C1261 C361 1.366 . S
C1277 C375 1.366 . S
C1279 C403 1.366 . S
C1295 C389 1.366 . S
C1297 C417 1.366 . S
C1313 C7 1.505 . S
C1315 C301 1.505 . S
C1331 C315 1.505 . S
C1333 C21 1.505 . S
C1349 C329 1.505 . S
C1351 C35 1.505 . S
C1367 C49 1.505 . S
C1369 C287 1.505 . S
C1385 C273 1.505 . S
C1387 C63 1.505 . S
C1403 C77 1.505 . S
C1405 C231 1.505 . S
C1421 C245 1.505 . S
C1423 C91 1.505 . S
C1439 C105 1.505 . S
C1441 C259 1.505 . S
C1457 C413 1.505 . S
C1459 C119 1.505 . S
C1475 C427 1.505 . S
C1477 C133 1.505 . S
C1493 C147 1.505 . S
C1495 C441 1.505 . S
C1511 C399 1.505 . S
C1513 C161 1.505 . S
C1529 C385 1.505 . S
C1531 C175 1.505 . S
C1547 C189 1.505 . S
C1549 C343 1.505 . S
C1565 C357 1.505 . S
C1567 C203 1.505 . S
C1583 C217 1.505 . S
C1585 C371 1.505 . S
