# Generated by pormake.
# Topology fne, (5)-cn, num edge types: 1
# Building blocks:
#     Node 0, Type 0, BuildingBlock: XOMCOT_clean_sbu_0, # of connection points: 5
#     Node 1, Type 0, BuildingBlock: XOMCOT_clean_sbu_0, # of connection points: 5
#     Node 2, Type 0, BuildingBlock: XOMCOT_clean_sbu_0, # of connection points: 5
#     Node 3, Type 0, BuildingBlock: XOMCOT_clean_sbu_0, # of connection points: 5
#     Node 4, Type 0, BuildingBlock: XOMCOT_clean_sbu_0, # of connection points: 5
#     Node 5, Type 0, BuildingBlock: XOMCOT_clean_sbu_0, # of connection points: 5
#     Edge 6, Type (0, 0), BuildingBlock: XUDNAN_clean_linker_2, # of connection points: 2
#     Edge 7, Type (0, 0), BuildingBlock: XUDNAN_clean_linker_2, # of connection points: 2
#     Edge 8, Type (0, 0), BuildingBlock: XUDNAN_clean_linker_2, # of connection points: 2
#     Edge 9, Type (0, 0), BuildingBlock: XUDNAN_clean_linker_2, # of connection points: 2
#     Edge 10, Type (0, 0), BuildingBlock: XUDNAN_clean_linker_2, # of connection points: 2
#     Edge 11, Type (0, 0), BuildingBlock: XUDNAN_clean_linker_2, # of connection points: 2
#     Edge 12, Type (0, 0), BuildingBlock: XUDNAN_clean_linker_2, # of connection points: 2
#     Edge 13, Type (0, 0), BuildingBlock: XUDNAN_clean_linker_2, # of connection points: 2
#     Edge 14, Type (0, 0), BuildingBlock: XUDNAN_clean_linker_2, # of connection points: 2
#     Edge 15, Type (0, 0), BuildingBlock: XUDNAN_clean_linker_2, # of connection points: 2
#     Edge 16, Type (0, 0), BuildingBlock: XUDNAN_clean_linker_2, # of connection points: 2
#     Edge 17, Type (0, 0), BuildingBlock: XUDNAN_clean_linker_2, # of connection points: 2
#     Edge 18, Type (0, 0), BuildingBlock: XUDNAN_clean_linker_2, # of connection points: 2
#     Edge 19, Type (0, 0), BuildingBlock: XUDNAN_clean_linker_2, # of connection points: 2
#     Edge 20, Type (0, 0), BuildingBlock: XUDNAN_clean_linker_2, # of connection points: 2
# Relax obj value: 0.065
# Max RMSD: 0.098
# Mean RMSD: 0.098
data_MOF--net-fne--node1-XOMCOT_clean_sbu_0--edge1-XUDNAN_clean_linker_2
_symmetry_space_group_name_H-M    P1
_symmetry_Int_Tables_number       1
_symmetry_cell_setting            triclinic
loop_
_symmetry_equiv_pos_as_xyz
'x, y, z'
_cell_length_a     46.401578
_cell_length_b     46.273136
_cell_length_c     17.405599
_cell_angle_alpha  90.10555
_cell_angle_beta   90.227951
_cell_angle_gamma 119.96716
loop_
_atom_site_label
_atom_site_type_symbol
_atom_site_fract_x
_atom_site_fract_y
_atom_site_fract_z
_atom_type_partial_charge
Co0 Co 0.36227 0.07649 0.08311 0.0
C1 C 0.35534 0.06405 0.25336 0.0
C2 C 0.30881 0.04031 0.19258 0.0
C3 C 0.30251 0.03414 0.26955 0.0
N4 N 0.34195 0.0584 0.18185 0.0
N5 N 0.33175 0.04907 0.30776 0.0
H6 H 0.38146 0.07923 0.26629 0.0
H7 H 0.29033 0.0329 0.14747 0.0
C8 C 0.31644 1.00239 0.04798 0.0
O9 O 0.32582 0.9932 0.11021 0.0
N10 N 0.38086 0.09397 0.98341 0.0
C11 C 0.41293 0.11089 0.96131 0.0
C12 C 0.41387 0.11099 0.88174 0.0
C13 C 0.36296 0.08475 0.91789 0.0
N14 N 0.38232 0.09403 0.85493 0.0
C15 C 0.42093 0.08154 0.14924 0.0
C16 C 0.42372 0.03311 0.06201 0.0
C17 C 0.44878 0.05074 0.11702 0.0
C18 C 0.4472 0.07553 0.15997 0.0
C19 C 0.3977 0.04008 0.05283 0.0
N20 N 0.39583 0.06323 0.09836 0.0
H21 H 0.42158 0.10193 0.18061 0.0
H22 H 0.37984 0.02757 0.00734 0.0
H23 H 0.43407 0.12031 0.9999 0.0
H24 H 0.33613 0.06977 0.91643 0.0
O25 O 0.38597 0.1208 0.12806 0.0
O26 O 0.33568 0.09791 0.07597 0.0
O27 O 0.3296 0.03324 0.03075 0.0
C28 C 0.35995 0.12324 0.11128 0.0
H29 H 0.27817 0.0207 0.29565 0.0
H30 H 0.43597 0.12043 0.84674 0.0
H31 H 0.42423 1.01424 0.02611 0.0
H32 H 0.46671 0.09106 0.20034 0.0
Co33 Co 0.32752 0.35613 0.40349 0.0
C34 C 0.34203 0.35788 0.56954 0.0
C35 C 0.31786 0.3079 0.52602 0.0
C36 C 0.32099 0.30694 0.60483 0.0
N37 N 0.33156 0.33998 0.50377 0.0
N38 N 0.3362 0.3385 0.63209 0.0
H39 H 0.35136 0.3843 0.5727 0.0
H40 H 0.30517 0.2866 0.48805 0.0
C41 C 0.35699 0.31163 0.36713 0.0
O42 O 0.3758 0.3212 0.42908 0.0
N43 N 0.32332 0.37261 0.30418 0.0
C44 C 0.32458 0.40198 0.2921 0.0
C45 C 0.3273 0.40835 0.2145 0.0
C46 C 0.32508 0.36139 0.23347 0.0
N47 N 0.3277 0.38287 0.17784 0.0
C48 C 0.37925 0.42085 0.44836 0.0
C49 C 0.42932 0.4234 0.35834 0.0
C50 C 0.43519 0.4519 0.39948 0.0
C51 C 0.40982 0.45022 0.44545 0.0
C52 C 0.398 0.3944 0.36208 0.0
N53 N 0.37345 0.39308 0.40794 0.0
H54 H 0.35978 0.42125 0.48093 0.0
H55 H 0.39331 0.37399 0.32454 0.0
H56 H 0.32546 0.41865 0.33686 0.0
H57 H 0.32672 0.33927 0.22277 0.0
O58 O 0.30527 0.37739 0.45214 0.0
O59 O 0.28002 0.32592 0.40595 0.0
O60 O 0.33912 0.3246 0.35007 0.0
C61 C 0.27768 0.34959 0.44054 0.0
H62 H 0.31186 0.28466 0.63932 0.0
H63 H 0.33011 0.43063 0.18733 0.0
H64 H 0.44812 0.42409 0.32045 0.0
H65 H 0.41326 0.47183 0.47751 0.0
Co66 Co 1.01339 0.31375 0.74056 0.0
C67 C 0.02689 0.32513 0.91024 0.0
C68 C 0.05653 0.30783 0.85422 0.0
C69 C 0.06319 0.31012 0.93147 0.0
N70 N 0.03455 0.31819 0.84003 0.0
N71 N 0.04456 0.32096 0.9668 0.0
H72 H 1.00796 0.33168 0.92067 0.0
H73 H 0.06588 0.29753 0.8118 0.0
C74 C 0.08659 0.34426 0.69752 0.0
O75 O 0.09616 0.3671 0.75168 0.0
N76 N 0.9926 0.30835 0.6408 0.0
C77 C 0.97146 0.31883 0.6187 0.0
C78 C 0.97071 0.31939 0.53922 0.0
C79 C 1.00361 0.30193 0.57506 0.0
N80 N 0.99146 0.30929 0.51217 0.0
C81 C 1.01041 0.37201 0.78997 0.0
C82 C 0.05006 0.4134 0.67427 0.0
C83 C 0.03542 0.42566 0.72552 0.0
C84 C 1.01559 0.40453 0.78457 0.0
C85 C 0.04405 0.38084 0.68132 0.0
N86 N 1.02514 0.36067 0.73976 0.0
H87 H 0.99307 0.35544 0.83195 0.0
H88 H 0.05342 0.37149 0.63694 0.0
H89 H 0.95994 0.32838 0.65728 0.0
H90 H 1.02212 0.29431 0.57307 0.0
O91 O 0.96998 0.29343 0.78998 0.0
O92 O 0.99505 0.26642 0.74764 0.0
O93 O 0.05577 0.32327 0.68717 0.0
C94 C 0.96972 0.26523 0.78209 0.0
H95 H 0.07922 0.30267 0.95998 0.0
H96 H 0.95841 0.32946 0.5045 0.0
H97 H 0.06544 0.42854 0.62741 0.0
H98 H 1.00283 0.41242 0.824 0.0
Co99 Co 0.73503 1.00159 0.08168 0.0
C100 C 0.73113 1.01163 0.24902 0.0
C101 C 0.77905 0.04626 0.20271 0.0
C102 C 0.77911 0.05308 0.27957 0.0
N103 N 0.74885 0.02063 0.18335 0.0
N104 N 0.74907 0.0313 0.30835 0.0
H105 H 0.70561 0.99157 0.2531 0.0
H106 H 0.79977 0.05915 0.164 0.0
C107 C 0.77418 0.06961 1.00146 0.0
O108 O 0.74769 0.07237 0.99055 0.0
N109 N 0.72273 0.98294 0.97818 0.0
C110 C 0.72345 0.95635 0.94821 0.0
C111 C 0.7192 0.95589 0.86975 0.0
C112 C 0.71775 0.99791 0.91718 0.0
N113 N 0.71594 0.9823 0.85023 0.0
C114 C 0.67082 0.99363 0.05238 0.0
C115 C 0.68113 0.05126 0.12463 0.0
C116 C 0.6492 0.02856 0.09707 0.0
C117 C 0.64436 0.99974 0.05933 0.0
C118 C 0.70713 0.04451 0.11513 0.0
N119 N 0.70197 1.01605 0.07873 0.0
H120 H 0.66587 0.97001 0.02845 0.0
H121 H 0.73135 0.06204 0.13822 0.0
H122 H 0.72858 0.93932 0.97963 0.0
H123 H 0.71601 0.02018 0.92148 0.0
O124 O 0.70664 0.95852 0.12631 0.0
O125 O 0.7597 0.97817 0.09791 0.0
O126 O 0.77225 0.0441 0.03513 0.0
C127 C 0.73227 0.95421 0.12706 0.0
H128 H 0.79982 0.07212 0.31229 0.0
H129 H 0.72065 0.93868 0.82996 0.0
H130 H 0.68581 0.07373 0.15465 0.0
H131 H 0.61987 0.98114 0.03918 0.0
Co132 Co 0.77719 0.72707 0.39527 0.0
C133 C 0.76328 0.72393 0.56024 0.0
C134 C 0.78256 0.77373 0.51811 0.0
C135 C 0.77869 0.77396 0.59667 0.0
N136 N 0.77281 0.7423 0.49567 0.0
N137 N 0.76667 0.74258 0.62309 0.0
H138 H 0.75562 0.6977 0.56127 0.0
H139 H 0.79285 0.79516 0.4806 0.0
C140 C 0.74656 0.75926 0.30186 0.0
O141 O 0.72578 0.72952 0.27404 0.0
N142 N 0.78313 0.71192 0.29393 0.0
C143 C 0.78851 0.68613 0.28097 0.0
C144 C 0.78865 0.68098 0.20344 0.0
C145 C 0.78256 0.72347 0.22268 0.0
N146 N 0.78459 0.70426 0.16691 0.0
C147 C 0.71861 0.66264 0.37471 0.0
C148 C 0.67279 0.68027 0.42245 0.0
C149 C 0.66127 0.6474 0.39723 0.0
C150 C 0.68488 0.63877 0.37393 0.0
C151 C 0.70688 0.70354 0.42157 0.0
N152 N 0.72934 0.695 0.39472 0.0
H153 H 0.736 0.65463 0.36033 0.0
H154 H 0.71516 0.72868 0.44111 0.0
H155 H 0.79075 0.67079 0.3246 0.0
H156 H 0.78018 0.74498 0.21051 0.0
O157 O 0.79075 0.69874 0.44383 0.0
O158 O 0.82564 0.75084 0.41007 0.0
O159 O 0.7703 0.76343 0.34692 0.0
C160 C 0.82112 0.72329 0.44181 0.0
H161 H 0.78499 0.79571 0.63157 0.0
H162 H 0.79054 0.66099 0.17595 0.0
H163 H 0.65572 0.68799 0.44332 0.0
H164 H 0.6775 0.61377 0.35448 0.0
Co165 Co 0.08135 0.76266 0.75436 0.0
C166 C 0.06951 0.74839 0.92117 0.0
C167 C 0.04254 0.77112 0.87695 0.0
C168 C 0.03796 0.76771 0.95534 0.0
N169 N 0.06182 0.75836 0.85526 0.0
N170 N 0.05498 0.75335 0.98296 0.0
H171 H 0.08736 0.74009 0.92532 0.0
H172 H 0.03341 0.7832 0.83875 0.0
C173 C 1.00836 0.72952 0.72483 0.0
O174 O 1.00489 0.70983 0.78269 0.0
N175 N 0.10146 0.76763 0.65455 0.0
C176 C 0.12935 0.76624 0.64144 0.0
C177 C 0.13245 0.76339 0.56377 0.0
C178 C 0.08804 0.76587 0.58441 0.0
N179 N 0.1064 0.76296 0.52815 0.0
C180 C 0.08771 0.70539 0.7968 0.0
C181 C 0.04477 0.66284 0.68573 0.0
C182 C 0.06149 0.65137 0.73285 0.0
C183 C 0.0831 0.67312 0.78943 0.0
C184 C 0.05024 0.69515 0.69469 0.0
N185 N 0.07041 0.7158 0.75181 0.0
H186 H 0.10676 0.72253 0.8356 0.0
H187 H 0.03922 0.7038 0.65267 0.0
H188 H 0.14518 0.765 0.6855 0.0
H189 H 0.06414 0.76403 0.5748 0.0
O190 O 0.12505 0.78294 0.8028 0.0
O191 O 0.10024 0.81037 0.76172 0.0
O192 O 0.03747 0.75198 0.70426 0.0
C193 C 0.12597 0.81133 0.79436 0.0
H194 H 1.02389 0.77591 0.98937 0.0
H195 H 0.15149 0.76019 0.53585 0.0
H196 H 0.02815 0.64729 0.64043 0.0
H197 H 0.09768 0.66596 0.82502 0.0
H198 H 0.48351 0.03648 0.00815 0.0
H199 H 0.47865 0.05126 0.2533 0.0
H200 H 0.52936 0.04787 0.27351 0.0
H201 H 0.51259 0.97592 0.02849 0.0
H202 H 0.53903 0.99124 0.94538 0.0
H203 H 0.50172 0.99407 0.94995 0.0
H204 H 0.5366 0.05771 0.9264 0.0
H205 H 0.57405 0.05516 0.92269 0.0
H206 H 0.57096 0.0832 0.98975 0.0
H207 H 0.5826 0.04711 0.26707 0.0
H208 H 0.63203 0.0425 0.23577 0.0
H209 H 0.60126 0.02452 0.99657 0.0
C210 C 0.4927 0.03836 0.06626 0.0
C211 C 0.4772 0.04468 0.12895 0.0
C212 C 0.49039 0.04725 0.20397 0.0
C213 C 0.51914 0.04518 0.21622 0.0
C214 C 0.53431 0.03997 0.15312 0.0
C215 C 0.5213 0.03597 0.07978 0.0
C216 C 0.54261 0.03045 0.0222 0.0
C217 C 0.5228 0.99586 0.98428 0.0
C218 C 0.5569 0.05829 0.9617 0.0
C219 C 0.56977 0.03244 0.07466 0.0
C220 C 0.56456 0.03822 0.14985 0.0
C221 C 0.58681 0.04227 0.20853 0.0
C222 C 0.61493 0.03989 0.19015 0.0
C223 C 0.62044 0.03319 0.11388 0.0
C224 C 0.59751 0.02945 0.05545 0.0
H225 H 0.63067 0.57976 0.42677 0.0
H226 H 0.60948 0.6578 0.36062 0.0
H227 H 0.54974 0.61617 0.35295 0.0
H228 H 0.57087 0.51705 0.29792 0.0
H229 H 0.55985 0.48327 0.36419 0.0
H230 H 0.60096 0.51934 0.36712 0.0
H231 H 0.59343 0.5281 0.51113 0.0
H232 H 0.55236 0.492 0.50873 0.0
H233 H 0.55811 0.53166 0.54043 0.0
H234 H 0.49236 0.56635 0.35319 0.0
H235 H 0.44103 0.51146 0.36105 0.0
H236 H 0.49954 0.46511 0.41937 0.0
C237 C 0.61363 0.5882 0.40989 0.0
C238 C 0.62503 0.6223 0.39454 0.0
C239 C 0.60152 0.63207 0.3741 0.0
C240 C 0.5675 0.60852 0.36887 0.0
C241 C 0.55729 0.5752 0.38364 0.0
C242 C 0.57963 0.56499 0.40354 0.0
C243 C 0.56216 0.52757 0.41582 0.0
C244 C 0.57418 0.51083 0.35779 0.0
C245 C 0.56679 0.51936 0.49897 0.0
C246 C 0.52642 0.51833 0.40004 0.0
C247 C 0.52422 0.54625 0.38182 0.0
C248 C 0.49379 0.54431 0.36708 0.0
C249 C 0.46482 0.51309 0.37182 0.0
C250 C 0.46644 0.48417 0.39065 0.0
C251 C 0.4977 0.48681 0.40403 0.0
H252 H 0.04271 0.47294 0.83429 0.0
H253 H 0.03518 0.45425 0.58827 0.0
H254 H 0.04238 0.50981 0.56504 0.0
H255 H 0.99655 0.51727 0.83378 0.0
H256 H 1.02195 0.54666 0.90713 0.0
H257 H 1.01685 0.50543 0.90542 0.0
H258 H 0.08083 0.53112 0.90139 0.0
H259 H 0.08611 0.57243 0.90274 0.0
H260 H 0.10427 0.56036 0.82671 0.0
H261 H 0.05102 0.56713 0.56671 0.0
H262 H 0.05841 0.6226 0.59344 0.0
H263 H 0.05796 0.60482 0.83856 0.0
C264 C 0.0424 0.48047 0.77557 0.0
C265 C 0.03892 0.45921 0.7131 0.0
C266 C 0.0387 0.4702 0.63716 0.0
C267 C 0.04253 0.50172 0.62325 0.0
C268 C 0.04632 0.52211 0.68578 0.0
C269 C 0.04609 0.512 0.76049 0.0
C270 C 0.05024 0.53893 0.81701 0.0
C271 C 1.01957 0.52631 0.86889 0.0
C272 C 0.08227 0.55145 0.86478 0.0
C273 C 0.05284 0.56565 0.76217 0.0
C274 C 0.05058 0.5553 0.68681 0.0
C275 C 0.05249 0.57542 0.62551 0.0
C276 C 0.05645 0.60687 0.64142 0.0
C277 C 0.05824 0.61806 0.71817 0.0
C278 C 0.05673 0.59713 0.77929 0.0
H279 H 0.38 0.09893 0.39576 0.0
H280 H 0.29319 0.99989 0.40602 0.0
H281 H 0.29793 1.00073 0.54708 0.0
H282 H 0.4258 0.08764 0.5539 0.0
H283 H 0.44232 0.12957 0.58983 0.0
H284 H 0.43308 0.12089 0.48894 0.0
H285 H 0.39498 0.14689 0.49432 0.0
H286 H 0.40397 0.15553 0.59524 0.0
H287 H 0.36146 0.13125 0.56264 0.0
H288 H 0.31038 1.01238 0.68532 0.0
H289 H 0.3304 0.03389 0.81535 0.0
H290 H 0.40962 0.12588 0.71978 0.0
C291 C 0.36235 0.07726 0.42773 0.0
C292 C 0.33612 0.04933 0.38985 0.0
C293 C 0.31317 0.02168 0.43382 0.0
C294 C 0.31578 0.02185 0.51393 0.0
C295 C 0.34153 0.04987 0.54953 0.0
C296 C 0.36452 0.07707 0.5082 0.0
C297 C 0.3892 0.10432 0.56159 0.0
C298 C 0.42471 0.11099 0.54773 0.0
C299 C 0.38727 0.13639 0.55292 0.0
C300 C 0.37626 0.08816 0.63926 0.0
C301 C 0.34876 0.05674 0.63047 0.0
C302 C 0.33187 0.03696 0.69305 0.0
C303 C 0.34328 0.04958 0.76683 0.0
C304 C 0.37133 0.08178 0.77792 0.0
C305 C 0.3882 0.10118 0.71301 0.0
H306 H 0.30482 0.30234 0.76083 0.0
H307 H 0.38122 0.40027 0.68452 0.0
H308 H 0.38798 0.42139 0.81677 0.0
H309 H 0.26729 0.32923 0.8969 0.0
H310 H 0.25994 0.29786 0.96754 0.0
H311 H 0.26184 0.28944 0.86722 0.0
H312 H 0.30831 0.27546 0.89616 0.0
H313 H 0.30643 0.28364 0.99677 0.0
H314 H 0.34538 0.30549 0.94638 0.0
H315 H 0.38365 0.43346 0.9541 0.0
H316 H 0.37131 0.43455 0.09153 0.0
H317 H 0.3003 0.32854 0.08327 0.0
C318 C 0.32341 0.32805 0.77192 0.0
C319 C 0.34212 0.34969 0.71131 0.0
C320 C 0.36596 0.38328 0.72901 0.0
C321 C 0.37022 0.39553 0.8043 0.0
C322 C 0.35086 0.37382 0.86204 0.0
C323 C 0.32827 0.34068 0.84724 0.0
C324 C 0.31031 0.32291 0.92018 0.0
C325 C 0.27261 0.30905 0.91247 0.0
C326 C 0.31808 0.29524 0.9411 0.0
C327 C 0.32587 0.35147 0.97768 0.0
C328 C 0.34916 0.3806 0.94261 0.0
C329 C 0.36574 0.41075 0.98244 0.0
C330 C 0.3584 0.4112 0.06026 0.0
C331 C 0.33488 0.38168 0.09782 0.0
C332 C 0.31864 0.35136 0.056 0.0
H333 H 0.99024 0.30883 0.05227 0.0
H334 H 0.09549 0.34144 0.06696 0.0
H335 H 0.09303 0.3432 0.20807 0.0
H336 H 0.98902 0.3593 0.21586 0.0
H337 H 0.94876 0.3273 0.24828 0.0
H338 H 0.95897 0.33053 0.14769 0.0
H339 H 0.94482 0.26885 0.14694 0.0
H340 H 0.93483 0.26549 0.24759 0.0
H341 H 0.96554 0.25552 0.21391 0.0
H342 H 0.07923 0.33833 0.34575 0.0
H343 H 0.0553 0.32965 0.47495 0.0
H344 H 0.9585 0.30045 0.37584 0.0
C345 C 1.01284 0.31698 0.08529 0.0
C346 C 0.0431 0.32492 0.04863 0.0
C347 C 0.07202 0.33491 0.09386 0.0
C348 C 0.0709 0.33612 0.17402 0.0
C349 C 0.04065 0.32739 0.20847 0.0
C350 C 1.01214 0.31827 0.16594 0.0
C351 C 0.98269 0.30908 0.21838 0.0
C352 C 0.96906 0.33298 0.20686 0.0
C353 C 0.95536 0.27256 0.20595 0.0
C354 C 0.99913 0.31406 0.29675 0.0
C355 C 0.03259 0.32465 0.2892 0.0
C356 C 0.05308 0.33013 0.35253 0.0
C357 C 0.03913 0.32476 0.4258 0.0
C358 C 1.00489 0.31395 0.43564 0.0
C359 C 0.98472 0.30878 0.37001 0.0
H360 H 0.69821 0.94651 0.71634 0.0
H361 H 0.73591 0.04636 0.80906 0.0
H362 H 0.74146 0.06817 0.67852 0.0
H363 H 0.75411 0.97033 0.56488 0.0
H364 H 0.72527 0.94062 0.4963 0.0
H365 H 0.71941 0.93162 0.59737 0.0
H366 H 0.65981 0.92286 0.58762 0.0
H367 H 0.66552 0.93185 0.48628 0.0
H368 H 0.65373 0.95544 0.5482 0.0
H369 H 0.75028 0.08082 0.53962 0.0
H370 H 0.76061 0.08285 0.39994 0.0
H371 H 0.7172 0.9755 0.39465 0.0
C372 C 0.70717 0.97287 0.70938 0.0
C373 C 0.71625 0.9945 0.77372 0.0
C374 C 0.72798 0.02893 0.76155 0.0
C375 C 0.73141 0.0417 0.68725 0.0
C376 C 0.72286 0.01982 0.62535 0.0
C377 C 0.7108 0.9861 0.63541 0.0
C378 C 0.70598 0.9685 0.55885 0.0
C379 C 0.72748 0.9518 0.55411 0.0
C380 C 0.66906 0.94316 0.5444 0.0
C381 C 0.71828 0.99783 0.50451 0.0
C382 C 0.72763 0.02714 0.54419 0.0
C383 C 0.74245 0.05798 0.50767 0.0
C384 C 0.74834 0.05895 0.42866 0.0
C385 C 0.73929 0.02932 0.38709 0.0
C386 C 0.72348 0.99833 0.42518 0.0
H387 H 0.79439 0.78068 0.75224 0.0
H388 H 0.72809 0.67914 0.67423 0.0
H389 H 0.72481 0.659 0.80614 0.0
H390 H 0.83962 0.76298 0.88633 0.0
H391 H 0.84266 0.7926 0.95791 0.0
H392 H 0.83857 0.7999 0.85796 0.0
H393 H 0.78642 0.80459 0.88816 0.0
H394 H 0.79055 0.79765 0.98846 0.0
H395 H 0.75206 0.77117 0.93837 0.0
H396 H 0.7325 0.64896 0.94246 0.0
H397 H 0.74668 0.65014 0.07953 0.0
H398 H 0.80517 0.7581 0.07335 0.0
C399 C 0.7786 0.75431 0.76285 0.0
C400 C 0.7619 0.73151 0.70197 0.0
C401 C 0.74179 0.69712 0.71902 0.0
C402 C 0.73953 0.6854 0.79406 0.0
C403 C 0.75704 0.70838 0.852 0.0
C404 C 0.77572 0.74217 0.83782 0.0
C405 C 0.7925 0.76138 0.91079 0.0
C406 C 0.8306 0.78032 0.90272 0.0
C407 C 0.77961 0.7851 0.93273 0.0
C408 C 0.78099 0.73295 0.96756 0.0
C409 C 0.76058 0.70262 0.93212 0.0
C410 C 0.74813 0.67255 0.97114 0.0
C411 C 0.75657 0.67344 0.04868 0.0
C412 C 0.77708 0.70418 0.08666 0.0
C413 C 0.78924 0.73433 0.04562 0.0
H414 H 0.0796 0.7901 0.43355 0.0
H415 H 0.11263 0.71756 0.44362 0.0
H416 H 0.0988 0.70438 0.30632 0.0
H417 H 1.01101 0.74464 0.29549 0.0
H418 H 1.01876 0.78195 0.24567 0.0
H419 H 0.02854 0.78379 0.34653 0.0
H420 H 0.08934 0.82968 0.31948 0.0
H421 H 0.07972 0.82799 0.21871 0.0
H422 H 0.11336 0.82185 0.24992 0.0
H423 H 0.0836 0.70038 0.16851 0.0
H424 H 0.07075 0.70782 0.03529 0.0
H425 H 0.04978 0.7849 0.11094 0.0
C426 C 0.08343 0.77117 0.40671 0.0
C427 C 0.09722 0.75485 0.44876 0.0
C428 C 0.10243 0.73055 0.41197 0.0
C429 C 0.0944 0.72272 0.3343 0.0
C430 C 0.08128 0.73951 0.29406 0.0
C431 C 0.07594 0.76334 0.32863 0.0
C432 C 0.06361 0.77918 0.2706 0.0
C433 C 0.02839 0.77195 0.29079 0.0
C434 C 0.08797 0.81691 0.26432 0.0
C435 C 0.06343 0.76089 0.19798 0.0
C436 C 0.07328 0.73782 0.21329 0.0
C437 C 0.07589 0.71839 0.15566 0.0
C438 C 0.06877 0.72301 0.07998 0.0
C439 C 0.05956 0.74718 0.0621 0.0
C440 C 0.05639 0.76598 0.12245 0.0
H441 H 0.39521 0.16898 0.22455 0.0
H442 H 0.31779 0.14278 0.05314 0.0
H443 H 0.31089 0.18982 0.09651 0.0
H444 H 0.35536 0.1894 0.37215 0.0
H445 H 0.39321 0.22341 0.41117 0.0
H446 H 0.394 0.18932 0.36311 0.0
H447 H 0.43906 0.23087 0.27013 0.0
H448 H 0.43847 0.26514 0.31799 0.0
H449 H 0.43132 0.25947 0.2158 0.0
H450 H 0.31101 0.23802 0.16009 0.0
H451 H 0.31634 0.28344 0.24267 0.0
H452 H 0.39293 0.27852 0.37694 0.0
C453 C 0.37719 0.17351 0.19542 0.0
C454 C 0.35724 0.15249 0.13487 0.0
C455 C 0.33339 0.15868 0.09934 0.0
C456 C 0.32935 0.18536 0.1235 0.0
C457 C 0.34916 0.20543 0.18375 0.0
C458 C 0.37251 0.19981 0.21959 0.0
C459 C 0.38924 0.22409 0.28578 0.0
C460 C 0.38254 0.20544 0.36258 0.0
C461 C 0.42675 0.24621 0.27154 0.0
C462 C 0.37154 0.24417 0.28159 0.0
C463 C 0.34873 0.23304 0.22186 0.0
C464 C 0.32892 0.24709 0.20675 0.0
C465 C 0.33228 0.27308 0.2541 0.0
C466 C 0.3553 0.28497 0.31624 0.0
C467 C 0.37526 0.27024 0.32979 0.0
H468 H 0.26664 0.38858 0.54185 0.0
H469 H 0.21589 0.29925 0.4009 0.0
H470 H 0.16178 0.28979 0.44816 0.0
H471 H 0.21297 0.35538 0.70383 0.0
H472 H 0.21409 0.39383 0.7279 0.0
H473 H 0.24888 0.39481 0.67992 0.0
H474 H 0.24445 0.43051 0.571 0.0
H475 H 0.20964 0.42967 0.61868 0.0
H476 H 0.20551 0.41554 0.52056 0.0
H477 H 0.11371 0.28913 0.51185 0.0
H478 H 0.07393 0.29591 0.59113 0.0
H479 H 0.15511 0.3854 0.69416 0.0
C480 C 0.24409 0.36724 0.52036 0.0
C481 C 0.24539 0.34473 0.46728 0.0
C482 C 0.21544 0.31681 0.4414 0.0
C483 C 0.18461 0.31128 0.4678 0.0
C484 C 0.18418 0.3338 0.5204 0.0
C485 C 0.21306 0.36116 0.54673 0.0
C486 C 0.20552 0.38067 0.60571 0.0
C487 C 0.2213 0.38119 0.68397 0.0
C488 C 0.21696 0.4162 0.57726 0.0
C489 C 0.16787 0.35989 0.60854 0.0
C490 C 0.15621 0.33313 0.5584 0.0
C491 C 0.12251 0.31006 0.55107 0.0
C492 C 0.10006 0.31427 0.59643 0.0
C493 C 0.11123 0.34136 0.64881 0.0
C494 C 0.1457 0.36451 0.6546 0.0
H495 H 0.79157 0.13315 0.95467 0.0
H496 H 0.83044 0.06559 0.98074 0.0
H497 H 0.88414 0.10842 0.9277 0.0
H498 H 0.83221 0.17029 0.77747 0.0
H499 H 0.84101 0.21172 0.8028 0.0
H500 H 0.80542 0.1759 0.84309 0.0
H501 H 0.82668 0.19836 0.9804 0.0
H502 H 0.86228 0.23431 0.94052 0.0
H503 H 0.86808 0.2083 0.00851 0.0
H504 H 0.93251 0.15705 0.86734 0.0
H505 H 0.97443 0.21021 0.81074 0.0
H506 H 0.90609 0.24831 0.82848 0.0
C507 C 0.81139 0.12737 0.94928 0.0
C508 C 0.80671 0.09589 0.97167 0.0
C509 C 0.83339 0.08947 0.9642 0.0
C510 C 0.86398 0.11363 0.93394 0.0
C511 C 0.8677 0.14426 0.91212 0.0
C512 C 0.84231 0.15141 0.92005 0.0
C513 C 0.85319 0.18659 0.89308 0.0
C514 C 0.83167 0.18608 0.82507 0.0
C515 C 0.85252 0.20816 0.95961 0.0
C516 C 0.88856 0.19796 0.86812 0.0
C517 C 0.89621 0.17296 0.87925 0.0
C518 C 0.9269 0.17689 0.85879 0.0
C519 C 0.95051 0.20718 0.82634 0.0
C520 C 0.94356 0.23344 0.81519 0.0
C521 C 0.91216 0.22876 0.83671 0.0
H522 H 0.78216 0.93871 0.15294 0.0
H523 H 0.67557 0.89892 0.17112 0.0
H524 H 0.66892 0.84649 0.22218 0.0
H525 H 0.77809 0.86198 0.0948 0.0
H526 H 0.81388 0.86878 0.15015 0.0
H527 H 0.81088 0.90387 0.11563 0.0
H528 H 0.81838 0.92673 0.25462 0.0
H529 H 0.82127 0.89162 0.28961 0.0
H530 H 0.79063 0.90055 0.32874 0.0
H531 H 0.67251 0.7977 0.26459 0.0
H532 H 0.68658 0.75475 0.30053 0.0
H533 H 0.79117 0.82501 0.26298 0.0
C534 C 0.75748 0.91893 0.16779 0.0
C535 C 0.72936 0.92297 0.15779 0.0
C536 C 0.6975 0.89654 0.17818 0.0
C537 C 0.69342 0.86659 0.20735 0.0
C538 C 0.72147 0.86335 0.21657 0.0
C539 C 0.75293 0.88871 0.19788 0.0
C540 C 0.7787 0.87821 0.21356 0.0
C541 C 0.79643 0.87821 0.13909 0.0
C542 C 0.80373 0.90062 0.27532 0.0
C543 C 0.75663 0.84293 0.24312 0.0
C544 C 0.7237 0.83505 0.24391 0.0
C545 C 0.69821 0.80363 0.26499 0.0
C546 C 0.70644 0.77939 0.28512 0.0
C547 C 0.73991 0.78668 0.28507 0.0
C548 C 0.76545 0.81903 0.26476 0.0
H549 H 0.99848 0.77349 0.6357 0.0
H550 H 0.95102 0.67049 0.71132 0.0
H551 H 0.90052 0.6581 0.63888 0.0
H552 H 0.92607 0.78147 0.65317 0.0
H553 H 0.93427 0.80737 0.56965 0.0
H554 H 0.96825 0.80815 0.62179 0.0
H555 H 0.98845 0.79348 0.49692 0.0
H556 H 0.95446 0.7926 0.44435 0.0
H557 H 0.96012 0.75679 0.44291 0.0
H558 H 0.85524 0.65632 0.56353 0.0
H559 H 0.81455 0.66559 0.49489 0.0
H560 H 0.88806 0.77057 0.46919 0.0
C561 C 0.97753 0.74829 0.63608 0.0
C562 C 0.97871 0.72288 0.67899 0.0
C563 C 0.95067 0.69035 0.67921 0.0
C564 C 0.92191 0.683 0.63783 0.0
C565 C 0.92135 0.70849 0.5968 0.0
C566 C 0.94816 0.74056 0.59576 0.0
C567 C 0.93969 0.76353 0.55052 0.0
C568 C 0.94222 0.7918 0.60186 0.0
C569 C 0.96201 0.77742 0.47946 0.0
C570 C 0.90378 0.73935 0.52761 0.0
C571 C 0.8942 0.7077 0.55424 0.0
C572 C 0.86239 0.68095 0.54225 0.0
C573 C 0.83939 0.6866 0.5031 0.0
C574 C 0.84793 0.71888 0.47664 0.0
C575 C 0.88081 0.74561 0.48828 0.0
H576 H 0.17326 0.82131 0.90385 0.0
H577 H 0.14305 0.87351 0.74484 0.0
H578 H 0.1899 0.92732 0.78885 0.0
H579 H 0.19549 0.88054 0.05753 0.0
H580 H 0.23046 0.8769 0.09014 0.0
H581 H 0.19585 0.84214 0.04298 0.0
H582 H 0.23588 0.84002 0.94276 0.0
H583 H 0.27063 0.87481 0.9896 0.0
H584 H 0.2629 0.87696 0.88878 0.0
H585 H 0.23905 0.97518 0.84969 0.0
H586 H 0.28587 1.01511 0.92938 0.0
H587 H 0.28424 0.93317 0.05469 0.0
C588 C 0.17679 0.8441 0.87784 0.0
C589 C 0.15468 0.84327 0.82044 0.0
C590 C 0.15969 0.87357 0.78876 0.0
C591 C 0.18629 0.90425 0.81321 0.0
C592 C 0.20753 0.90429 0.87005 0.0
C593 C 0.20303 0.87511 0.90255 0.0
C594 C 0.22861 0.88251 0.96558 0.0
C595 C 0.21158 0.86977 0.04368 0.0
C596 C 0.25082 0.8677 0.94545 0.0
C597 C 0.24809 0.9204 0.96339 0.0
C598 C 0.23559 0.93226 0.9072 0.0
C599 C 0.24909 0.96621 0.89383 0.0
C600 C 0.27587 0.98874 0.93948 0.0
C601 C 0.28902 0.97745 0.99845 0.0
C602 C 0.27489 0.94268 0.01016 0.0
loop_
_geom_bond_atom_site_label_1
_geom_bond_atom_site_label_2
_geom_bond_distance
_geom_bond_site_symmetry_2
_ccdc_geom_bond_type
Co0 N4 2.148 . S
Co0 N10 2.128 1_554 S
Co0 N20 2.194 . S
Co0 O25 2.351 . S
Co0 O26 2.155 . S
Co0 O27 2.096 1_545 S
C1 N4 1.301 . S
C1 N5 1.328 . S
C1 H6 0.930 . S
C2 C3 1.333 . S
C2 N4 1.317 1_565 S
C2 H7 0.930 . S
C3 C2 1.333 . S
C3 N5 1.350 1_565 S
C3 H29 0.931 . S
N4 Co0 2.148 . S
N4 C1 1.301 . S
N4 C2 1.317 1_545 S
N5 C1 1.328 . S
N5 C3 1.350 1_545 S
H6 C1 0.930 . S
H7 C2 0.930 . S
C8 O9 1.224 . S
C8 O27 1.247 . S
O9 C8 1.224 . S
N10 Co0 2.128 1_556 S
N10 C11 1.355 . S
N10 C13 1.311 . S
C11 N10 1.355 . S
C11 C12 1.363 . S
C11 H23 0.929 . S
C12 C11 1.363 . S
C12 N14 1.375 . S
C12 H30 0.931 . S
C13 N10 1.311 . S
C13 N14 1.347 . S
C13 H24 0.929 . S
N14 C12 1.375 . S
N14 C13 1.347 . S
C15 C18 1.365 . S
C15 N20 1.328 . S
C15 H21 0.929 . S
C16 C17 1.362 1_565 S
C16 C19 1.378 . S
C16 H31 0.929 . S
C17 C16 1.362 1_545 S
C17 C18 1.366 . S
C18 C15 1.365 . S
C18 C17 1.366 . S
C18 H32 0.930 . S
C19 C16 1.378 . S
C19 N20 1.315 1_565 S
C19 H22 0.930 . S
N20 Co0 2.194 . S
N20 C15 1.328 . S
N20 C19 1.315 1_545 S
H21 C15 0.929 . S
H22 C19 0.930 . S
H23 C11 0.929 . S
H24 C13 0.929 . S
O25 Co0 2.351 . S
O25 C28 1.244 . S
O26 Co0 2.155 . S
O26 C28 1.240 . S
O27 Co0 2.096 1_565 S
O27 C8 1.247 . S
C28 O25 1.244 . S
C28 O26 1.240 . S
H29 C3 0.931 . S
H30 C12 0.931 . S
H31 C16 0.929 . S
H32 C18 0.930 . S
Co33 N37 2.148 . S
Co33 N43 2.128 . S
Co33 N53 2.194 . S
Co33 O58 2.351 . S
Co33 O59 2.155 . S
Co33 O60 2.096 . S
C34 N37 1.301 . S
C34 N38 1.328 . S
C34 H39 0.930 . S
C35 C36 1.333 . S
C35 N37 1.317 . S
C35 H40 0.930 . S
C36 C35 1.333 . S
C36 N38 1.350 . S
C36 H62 0.931 . S
N37 Co33 2.148 . S
N37 C34 1.301 . S
N37 C35 1.317 . S
N38 C34 1.328 . S
N38 C36 1.350 . S
H39 C34 0.930 . S
H40 C35 0.930 . S
C41 O42 1.224 . S
C41 O60 1.247 . S
O42 C41 1.224 . S
N43 Co33 2.128 . S
N43 C44 1.355 . S
N43 C46 1.311 . S
C44 N43 1.355 . S
C44 C45 1.363 . S
C44 H56 0.929 . S
C45 C44 1.363 . S
C45 N47 1.375 . S
C45 H63 0.931 . S
C46 N43 1.311 . S
C46 N47 1.347 . S
C46 H57 0.929 . S
N47 C45 1.375 . S
N47 C46 1.347 . S
C48 C51 1.365 . S
C48 N53 1.328 . S
C48 H54 0.929 . S
C49 C50 1.362 . S
C49 C52 1.378 . S
C49 H64 0.929 . S
C50 C49 1.362 . S
C50 C51 1.366 . S
C51 C48 1.365 . S
C51 C50 1.366 . S
C51 H65 0.930 . S
C52 C49 1.378 . S
C52 N53 1.315 . S
C52 H55 0.930 . S
N53 Co33 2.194 . S
N53 C48 1.328 . S
N53 C52 1.315 . S
H54 C48 0.929 . S
H55 C52 0.930 . S
H56 C44 0.929 . S
H57 C46 0.929 . S
O58 Co33 2.351 . S
O58 C61 1.244 . S
O59 Co33 2.155 . S
O59 C61 1.240 . S
O60 Co33 2.096 . S
O60 C41 1.247 . S
C61 O58 1.244 . S
C61 O59 1.240 . S
H62 C36 0.931 . S
H63 C45 0.931 . S
H64 C49 0.929 . S
H65 C51 0.930 . S
Co66 N70 2.148 . S
Co66 N76 2.128 . S
Co66 N86 2.194 . S
Co66 O91 2.351 1_455 S
Co66 O92 2.155 1_455 S
Co66 O93 2.096 . S
C67 N70 1.301 . S
C67 N71 1.328 . S
C67 H72 0.970 . S
C68 C69 1.333 . S
C68 N70 1.317 . S
C68 H73 0.930 . S
C69 C68 1.333 . S
C69 N71 1.350 . S
C69 H95 0.931 . S
N70 Co66 2.148 . S
N70 C67 1.301 . S
N70 C68 1.317 . S
N71 C67 1.328 . S
N71 C69 1.350 . S
H72 C67 0.970 . S
H73 C68 0.930 . S
C74 O75 1.224 . S
C74 O93 1.247 . S
O75 C74 1.224 . S
N76 Co66 2.128 . S
N76 C77 1.355 1_455 S
N76 C79 1.311 . S
C77 N76 1.355 1_655 S
C77 C78 1.363 . S
C77 H89 0.929 . S
C78 C77 1.363 . S
C78 N80 1.375 1_655 S
C78 H96 0.931 . S
C79 N76 1.311 . S
C79 N80 1.347 . S
C79 H90 0.929 . S
N80 C78 1.375 1_455 S
N80 C79 1.347 . S
C81 C84 1.365 . S
C81 N86 1.328 1_655 S
C81 H87 0.929 . S
C82 C83 1.362 . S
C82 C85 1.378 . S
C82 H97 0.929 . S
C83 C82 1.362 . S
C83 C84 1.366 1_455 S
C84 C81 1.365 . S
C84 C83 1.366 1_655 S
C84 H98 0.930 . S
C85 C82 1.378 . S
C85 N86 1.315 . S
C85 H88 0.930 . S
N86 Co66 2.194 . S
N86 C81 1.328 1_455 S
N86 C85 1.315 . S
H87 C81 0.929 . S
H88 C85 0.930 . S
H89 C77 0.929 . S
H90 C79 0.929 . S
O91 Co66 2.351 1_655 S
O91 C94 1.244 . S
O92 Co66 2.155 1_655 S
O92 C94 1.240 . S
O93 Co66 2.096 . S
O93 C74 1.247 . S
C94 O91 1.244 . S
C94 O92 1.240 . S
H95 C69 0.931 . S
H96 C78 0.931 . S
H97 C82 0.929 . S
H98 C84 0.930 . S
Co99 N103 2.148 . S
Co99 N109 2.128 1_554 S
Co99 N119 2.194 . S
Co99 O124 2.351 1_545 S
Co99 O125 2.155 1_545 S
Co99 O126 2.096 . S
C100 N103 1.301 . S
C100 N104 1.328 . S
C100 H105 0.930 1_545 S
C101 C102 1.333 . S
C101 N103 1.317 . S
C101 H106 0.930 . S
C102 C101 1.333 . S
C102 N104 1.350 . S
C102 H128 0.931 . S
N103 Co99 2.148 . S
N103 C100 1.301 . S
N103 C101 1.317 . S
N104 C100 1.328 . S
N104 C102 1.350 . S
H105 C100 0.930 1_565 S
H106 C101 0.930 . S
C107 O108 1.224 . S
C107 O126 1.247 . S
O108 C107 1.224 . S
N109 Co99 2.128 1_556 S
N109 C110 1.355 1_545 S
N109 C112 1.311 . S
C110 N109 1.355 1_565 S
C110 C111 1.363 . S
C110 H122 0.929 . S
C111 C110 1.363 . S
C111 N113 1.375 1_565 S
C111 H129 0.931 . S
C112 N109 1.311 . S
C112 N113 1.347 . S
C112 H123 0.929 . S
N113 C111 1.375 1_545 S
N113 C112 1.347 . S
C114 C117 1.365 . S
C114 N119 1.328 1_565 S
C114 H120 0.929 . S
C115 C116 1.362 . S
C115 C118 1.378 . S
C115 H130 0.929 . S
C116 C115 1.362 . S
C116 C117 1.366 1_545 S
C117 C114 1.365 . S
C117 C116 1.366 1_565 S
C117 H131 0.930 . S
C118 C115 1.378 . S
C118 N119 1.315 . S
C118 H121 0.930 . S
N119 Co99 2.194 . S
N119 C114 1.328 1_545 S
N119 C118 1.315 . S
H120 C114 0.929 . S
H121 C118 0.930 . S
H122 C110 0.929 . S
H123 C112 0.929 . S
O124 Co99 2.351 1_565 S
O124 C127 1.244 . S
O125 Co99 2.155 1_565 S
O125 C127 1.240 . S
O126 Co99 2.096 . S
O126 C107 1.247 . S
C127 O124 1.244 . S
C127 O125 1.240 . S
H128 C102 0.931 . S
H129 C111 0.931 . S
H130 C115 0.929 . S
H131 C117 0.930 . S
Co132 N136 2.148 . S
Co132 N142 2.128 . S
Co132 N152 2.194 . S
Co132 O157 2.351 . S
Co132 O158 2.155 . S
Co132 O159 2.096 . S
C133 N136 1.301 . S
C133 N137 1.328 . S
C133 H138 0.930 . S
C134 C135 1.333 . S
C134 N136 1.317 . S
C134 H139 0.930 . S
C135 C134 1.333 . S
C135 N137 1.350 . S
C135 H161 0.931 . S
N136 Co132 2.148 . S
N136 C133 1.301 . S
N136 C134 1.317 . S
N137 C133 1.328 . S
N137 C135 1.350 . S
H138 C133 0.930 . S
H139 C134 0.930 . S
C140 O141 1.224 . S
C140 O159 1.247 . S
O141 C140 1.224 . S
N142 Co132 2.128 . S
N142 C143 1.355 . S
N142 C145 1.311 . S
C143 N142 1.355 . S
C143 C144 1.363 . S
C143 H155 0.929 . S
C144 C143 1.363 . S
C144 N146 1.375 . S
C144 H162 0.931 . S
C145 N142 1.311 . S
C145 N146 1.347 . S
C145 H156 0.929 . S
N146 C144 1.375 . S
N146 C145 1.347 . S
C147 C150 1.365 . S
C147 N152 1.328 . S
C147 H153 0.929 . S
C148 C149 1.362 . S
C148 C151 1.378 . S
C148 H163 0.929 . S
C149 C148 1.362 . S
C149 C150 1.366 . S
C150 C147 1.365 . S
C150 C149 1.366 . S
C150 H164 0.930 . S
C151 C148 1.378 . S
C151 N152 1.315 . S
C151 H154 0.930 . S
N152 Co132 2.194 . S
N152 C147 1.328 . S
N152 C151 1.315 . S
H153 C147 0.929 . S
H154 C151 0.930 . S
H155 C143 0.929 . S
H156 C145 0.929 . S
O157 Co132 2.351 . S
O157 C160 1.244 . S
O158 Co132 2.155 . S
O158 C160 1.240 . S
O159 Co132 2.096 . S
O159 C140 1.247 . S
C160 O157 1.244 . S
C160 O158 1.240 . S
H161 C135 0.931 . S
H162 C144 0.931 . S
H163 C148 0.929 . S
H164 C150 0.930 . S
Co165 N169 2.148 . S
Co165 N175 2.128 . S
Co165 N185 2.194 . S
Co165 O190 2.351 . S
Co165 O191 2.155 . S
Co165 O192 2.096 1_455 S
C166 N169 1.301 . S
C166 N170 1.328 . S
C166 H171 0.930 . S
C167 C168 1.333 . S
C167 N169 1.317 1_655 S
C167 H172 0.930 . S
C168 C167 1.333 . S
C168 N170 1.350 1_655 S
C168 H194 0.931 . S
N169 Co165 2.148 . S
N169 C166 1.301 . S
N169 C167 1.317 1_455 S
N170 C166 1.328 . S
N170 C168 1.350 1_455 S
H171 C166 0.930 . S
H172 C167 0.930 . S
C173 O174 1.224 . S
C173 O192 1.247 . S
O174 C173 1.224 . S
N175 Co165 2.128 . S
N175 C176 1.355 . S
N175 C178 1.311 . S
C176 N175 1.355 . S
C176 C177 1.363 . S
C176 H188 0.929 . S
C177 C176 1.363 . S
C177 N179 1.375 . S
C177 H195 0.931 . S
C178 N175 1.311 . S
C178 N179 1.347 . S
C178 H189 0.929 . S
N179 C177 1.375 . S
N179 C178 1.347 . S
C180 C183 1.365 . S
C180 N185 1.328 . S
C180 H186 0.929 . S
C181 C182 1.333 1_655 S
C181 C184 1.392 1_655 S
C181 H196 0.945 . S
C182 C181 1.333 1_455 S
C182 C183 1.366 . S
C183 C180 1.365 . S
C183 C182 1.366 . S
C183 H197 0.930 . S
C184 C181 1.392 1_455 S
C184 N185 1.315 . S
C184 H187 0.930 1_455 S
N185 Co165 2.194 . S
N185 C180 1.328 . S
N185 C184 1.315 . S
H186 C180 0.929 . S
H187 C184 0.930 1_655 S
H188 C176 0.929 . S
H189 C178 0.929 . S
O190 Co165 2.351 . S
O190 C193 1.244 . S
O191 Co165 2.155 . S
O191 C193 1.240 . S
O192 Co165 2.096 1_655 S
O192 C173 1.247 . S
C193 O190 1.244 . S
C193 O191 1.240 . S
H194 C168 0.931 . S
H195 C177 0.931 . S
H196 C181 0.945 . S
H197 C183 0.930 . S
H198 C210 0.930 1_556 S
H199 C212 0.930 . S
H200 C213 0.930 . S
H201 C217 0.959 . S
H202 C217 0.959 . S
H203 C217 0.961 . S
H204 C218 0.960 . S
H205 C218 0.961 . S
H206 C218 0.959 . S
H207 C221 0.929 . S
H208 C222 0.931 . S
H209 C224 0.930 1_556 S
C210 H198 0.930 1_554 S
C210 C211 1.399 . S
C210 C215 1.399 . S
C211 C210 1.399 . S
C211 C212 1.376 . S
C212 H199 0.930 . S
C212 C211 1.376 . S
C212 C213 1.388 . S
C213 H200 0.930 . S
C213 C212 1.388 . S
C213 C214 1.390 . S
C214 C213 1.390 . S
C214 C215 1.394 . S
C214 C220 1.465 . S
C215 C210 1.399 . S
C215 C214 1.394 . S
C215 C216 1.516 1_554 S
C216 C215 1.516 1_556 S
C216 C217 1.502 1_545 S
C216 C218 1.561 . S
C216 C219 1.526 1_556 S
C217 H201 0.959 . S
C217 H202 0.959 . S
C217 H203 0.961 . S
C217 C216 1.502 1_565 S
C218 H204 0.960 . S
C218 H205 0.961 . S
C218 H206 0.959 . S
C218 C216 1.561 . S
C219 C216 1.526 1_554 S
C219 C220 1.396 . S
C219 C224 1.390 . S
C220 C214 1.465 . S
C220 C219 1.396 . S
C220 C221 1.399 . S
C221 H207 0.929 . S
C221 C220 1.399 . S
C221 C222 1.385 . S
C222 H208 0.931 . S
C222 C221 1.385 . S
C222 C223 1.389 . S
C223 C222 1.389 . S
C223 C224 1.387 . S
C224 H209 0.930 1_554 S
C224 C219 1.390 . S
C224 C223 1.387 . S
H225 C237 0.930 . S
H226 C239 0.930 . S
H227 C240 0.930 . S
H228 C244 0.959 . S
H229 C244 0.959 . S
H230 C244 0.961 . S
H231 C245 0.960 . S
H232 C245 0.961 . S
H233 C245 0.959 . S
H234 C248 0.929 . S
H235 C249 0.931 . S
H236 C251 0.930 . S
C237 H225 0.930 . S
C237 C238 1.399 . S
C237 C242 1.399 . S
C238 C237 1.399 . S
C238 C239 1.376 . S
C239 H226 0.930 . S
C239 C238 1.376 . S
C239 C240 1.388 . S
C240 H227 0.930 . S
C240 C239 1.388 . S
C240 C241 1.390 . S
C241 C240 1.390 . S
C241 C242 1.394 . S
C241 C247 1.465 . S
C242 C237 1.399 . S
C242 C241 1.394 . S
C242 C243 1.516 . S
C243 C242 1.516 . S
C243 C244 1.502 . S
C243 C245 1.561 . S
C243 C246 1.526 . S
C244 H228 0.959 . S
C244 H229 0.959 . S
C244 H230 0.961 . S
C244 C243 1.502 . S
C245 H231 0.960 . S
C245 H232 0.961 . S
C245 H233 0.959 . S
C245 C243 1.561 . S
C246 C243 1.526 . S
C246 C247 1.396 . S
C246 C251 1.390 . S
C247 C241 1.465 . S
C247 C246 1.396 . S
C247 C248 1.399 . S
C248 H234 0.929 . S
C248 C247 1.399 . S
C248 C249 1.385 . S
C249 H235 0.931 . S
C249 C248 1.385 . S
C249 C250 1.389 . S
C250 C249 1.389 . S
C250 C251 1.387 . S
C251 H236 0.930 . S
C251 C246 1.390 . S
C251 C250 1.387 . S
H252 C264 0.925 1_655 S
H253 C266 0.930 . S
H254 C267 0.930 . S
H255 C271 0.959 . S
H256 C271 0.959 . S
H257 C271 0.961 . S
H258 C272 0.960 . S
H259 C272 0.961 . S
H260 C272 0.959 . S
H261 C275 0.929 . S
H262 C276 0.931 . S
H263 C278 0.930 . S
C264 H252 0.925 1_455 S
C264 C265 1.399 . S
C264 C269 1.399 . S
C265 C264 1.399 . S
C265 C266 1.376 . S
C266 H253 0.930 . S
C266 C265 1.376 . S
C266 C267 1.388 . S
C267 H254 0.930 . S
C267 C266 1.388 . S
C267 C268 1.390 . S
C268 C267 1.390 . S
C268 C269 1.394 . S
C268 C274 1.465 . S
C269 C264 1.399 . S
C269 C268 1.394 . S
C269 C270 1.516 . S
C270 C269 1.516 . S
C270 C271 1.502 1_455 S
C270 C272 1.561 . S
C270 C273 1.526 . S
C271 H255 0.959 . S
C271 H256 0.959 . S
C271 H257 0.961 . S
C271 C270 1.502 1_655 S
C272 H258 0.960 . S
C272 H259 0.961 . S
C272 H260 0.959 . S
C272 C270 1.561 . S
C273 C270 1.526 . S
C273 C274 1.396 . S
C273 C278 1.390 . S
C274 C268 1.465 . S
C274 C273 1.396 . S
C274 C275 1.399 . S
C275 H261 0.929 . S
C275 C274 1.399 . S
C275 C276 1.385 . S
C276 H262 0.931 . S
C276 C275 1.385 . S
C276 C277 1.389 . S
C277 C276 1.389 . S
C277 C278 1.387 . S
C278 H263 0.930 . S
C278 C273 1.390 . S
C278 C277 1.387 . S
H279 C291 0.930 . S
H280 C293 0.930 . S
H281 C294 0.930 . S
H282 C298 0.959 . S
H283 C298 0.959 . S
H284 C298 0.961 . S
H285 C299 0.960 . S
H286 C299 0.961 . S
H287 C299 0.959 . S
H288 C302 0.929 . S
H289 C303 0.931 . S
H290 C305 0.930 . S
C291 H279 0.930 . S
C291 C292 1.399 . S
C291 C296 1.399 . S
C292 C291 1.399 . S
C292 C293 1.376 1_545 S
C293 H280 0.930 . S
C293 C292 1.376 1_565 S
C293 C294 1.388 . S
C294 H281 0.930 . S
C294 C293 1.388 . S
C294 C295 1.390 1_565 S
C295 C294 1.390 1_545 S
C295 C296 1.394 . S
C295 C301 1.465 . S
C296 C291 1.399 . S
C296 C295 1.394 . S
C296 C297 1.516 . S
C297 C296 1.516 . S
C297 C298 1.502 . S
C297 C299 1.561 . S
C297 C300 1.526 . S
C298 H282 0.959 . S
C298 H283 0.959 . S
C298 H284 0.961 . S
C298 C297 1.502 . S
C299 H285 0.960 . S
C299 H286 0.961 . S
C299 H287 0.959 . S
C299 C297 1.561 . S
C300 C297 1.526 . S
C300 C301 1.396 . S
C300 C305 1.390 . S
C301 C295 1.465 . S
C301 C300 1.396 . S
C301 C302 1.399 1_545 S
C302 H288 0.929 . S
C302 C301 1.399 1_565 S
C302 C303 1.385 . S
C303 H289 0.931 . S
C303 C302 1.385 . S
C303 C304 1.389 1_565 S
C304 C303 1.389 1_545 S
C304 C305 1.387 . S
C305 H290 0.930 . S
C305 C300 1.390 . S
C305 C304 1.387 . S
H306 C318 0.930 . S
H307 C320 0.930 . S
H308 C321 0.930 . S
H309 C325 0.959 . S
H310 C325 0.959 . S
H311 C325 0.961 . S
H312 C326 0.960 . S
H313 C326 0.961 . S
H314 C326 0.959 . S
H315 C329 0.929 . S
H316 C330 0.931 . S
H317 C332 0.930 . S
C318 H306 0.930 . S
C318 C319 1.399 . S
C318 C323 1.399 . S
C319 C318 1.399 . S
C319 C320 1.376 . S
C320 H307 0.930 . S
C320 C319 1.376 . S
C320 C321 1.388 . S
C321 H308 0.930 . S
C321 C320 1.388 . S
C321 C322 1.390 . S
C322 C321 1.390 . S
C322 C323 1.394 . S
C322 C328 1.465 . S
C323 C318 1.399 . S
C323 C322 1.394 . S
C323 C324 1.516 . S
C324 C323 1.516 . S
C324 C325 1.502 . S
C324 C326 1.561 . S
C324 C327 1.526 . S
C325 H309 0.959 . S
C325 H310 0.959 . S
C325 H311 0.961 . S
C325 C324 1.502 . S
C326 H312 0.960 . S
C326 H313 0.961 . S
C326 H314 0.959 . S
C326 C324 1.561 . S
C327 C324 1.526 . S
C327 C328 1.396 . S
C327 C332 1.390 1_556 S
C328 C322 1.465 . S
C328 C327 1.396 . S
C328 C329 1.399 . S
C329 H315 0.929 . S
C329 C328 1.399 . S
C329 C330 1.385 1_556 S
C330 H316 0.931 . S
C330 C329 1.385 1_554 S
C330 C331 1.389 . S
C331 C330 1.389 . S
C331 C332 1.387 . S
C332 H317 0.930 . S
C332 C327 1.390 1_554 S
C332 C331 1.387 . S
H333 C345 0.930 1_655 S
H334 C347 0.930 . S
H335 C348 0.930 . S
H336 C352 0.959 . S
H337 C352 0.959 . S
H338 C352 0.961 . S
H339 C353 0.960 . S
H340 C353 0.961 . S
H341 C353 0.959 . S
H342 C356 0.929 . S
H343 C357 0.931 . S
H344 C359 0.930 . S
C345 H333 0.930 1_455 S
C345 C346 1.399 . S
C345 C350 1.399 . S
C346 C345 1.399 . S
C346 C347 1.376 . S
C347 H334 0.930 . S
C347 C346 1.376 . S
C347 C348 1.388 . S
C348 H335 0.930 . S
C348 C347 1.388 . S
C348 C349 1.390 . S
C349 C348 1.390 . S
C349 C350 1.394 . S
C349 C355 1.465 . S
C350 C345 1.399 . S
C350 C349 1.394 . S
C350 C351 1.516 1_455 S
C351 C350 1.516 1_655 S
C351 C352 1.502 . S
C351 C353 1.561 . S
C351 C354 1.526 1_655 S
C352 H336 0.959 . S
C352 H337 0.959 . S
C352 H338 0.961 . S
C352 C351 1.502 . S
C353 H339 0.960 . S
C353 H340 0.961 . S
C353 H341 0.959 . S
C353 C351 1.561 . S
C354 C351 1.526 1_455 S
C354 C355 1.396 . S
C354 C359 1.390 1_455 S
C355 C349 1.465 . S
C355 C354 1.396 . S
C355 C356 1.399 . S
C356 H342 0.929 . S
C356 C355 1.399 . S
C356 C357 1.385 . S
C357 H343 0.931 . S
C357 C356 1.385 . S
C357 C358 1.389 . S
C358 C357 1.389 . S
C358 C359 1.387 1_455 S
C359 H344 0.930 . S
C359 C354 1.390 1_655 S
C359 C358 1.387 1_655 S
H360 C372 0.930 . S
H361 C374 0.930 . S
H362 C375 0.930 . S
H363 C379 0.959 . S
H364 C379 0.959 . S
H365 C379 0.961 . S
H366 C380 0.960 . S
H367 C380 0.961 . S
H368 C380 0.959 . S
H369 C383 0.929 . S
H370 C384 0.931 . S
H371 C386 0.930 1_565 S
C372 H360 0.930 . S
C372 C373 1.399 1_565 S
C372 C377 1.399 1_565 S
C373 C372 1.399 1_545 S
C373 C374 1.376 . S
C374 H361 0.930 . S
C374 C373 1.376 . S
C374 C375 1.388 . S
C375 H362 0.930 . S
C375 C374 1.388 . S
C375 C376 1.390 . S
C376 C375 1.390 . S
C376 C377 1.394 . S
C376 C382 1.465 . S
C377 C372 1.399 1_545 S
C377 C376 1.394 . S
C377 C378 1.516 1_545 S
C378 C377 1.516 1_565 S
C378 C379 1.502 . S
C378 C380 1.561 . S
C378 C381 1.526 1_565 S
C379 H363 0.959 . S
C379 H364 0.959 . S
C379 H365 0.961 . S
C379 C378 1.502 . S
C380 H366 0.960 . S
C380 H367 0.961 . S
C380 H368 0.959 . S
C380 C378 1.561 . S
C381 C378 1.526 1_545 S
C381 C382 1.396 . S
C381 C386 1.390 . S
C382 C376 1.465 . S
C382 C381 1.396 . S
C382 C383 1.399 . S
C383 H369 0.929 . S
C383 C382 1.399 . S
C383 C384 1.385 . S
C384 H370 0.931 . S
C384 C383 1.385 . S
C384 C385 1.389 . S
C385 C384 1.389 . S
C385 C386 1.387 . S
C386 H371 0.930 1_545 S
C386 C381 1.390 . S
C386 C385 1.387 . S
H387 C399 0.930 . S
H388 C401 0.930 . S
H389 C402 0.930 . S
H390 C406 0.959 . S
H391 C406 0.959 . S
H392 C406 0.961 . S
H393 C407 0.960 . S
H394 C407 0.961 . S
H395 C407 0.959 . S
H396 C410 0.929 . S
H397 C411 0.931 . S
H398 C413 0.930 . S
C399 H387 0.930 . S
C399 C400 1.399 . S
C399 C404 1.399 . S
C400 C399 1.399 . S
C400 C401 1.376 . S
C401 H388 0.930 . S
C401 C400 1.376 . S
C401 C402 1.388 . S
C402 H389 0.930 . S
C402 C401 1.388 . S
C402 C403 1.390 . S
C403 C402 1.390 . S
C403 C404 1.394 . S
C403 C409 1.465 . S
C404 C399 1.399 . S
C404 C403 1.394 . S
C404 C405 1.516 . S
C405 C404 1.516 . S
C405 C406 1.502 . S
C405 C407 1.561 . S
C405 C408 1.526 . S
C406 H390 0.959 . S
C406 H391 0.959 . S
C406 H392 0.961 . S
C406 C405 1.502 . S
C407 H393 0.960 . S
C407 H394 0.961 . S
C407 H395 0.959 . S
C407 C405 1.561 . S
C408 C405 1.526 . S
C408 C409 1.396 . S
C408 C413 1.390 1_556 S
C409 C403 1.465 . S
C409 C408 1.396 . S
C409 C410 1.399 . S
C410 H396 0.929 . S
C410 C409 1.399 . S
C410 C411 1.385 1_556 S
C411 H397 0.931 . S
C411 C410 1.385 1_554 S
C411 C412 1.389 . S
C412 C411 1.389 . S
C412 C413 1.387 . S
C413 H398 0.930 . S
C413 C408 1.390 1_554 S
C413 C412 1.387 . S
H414 C426 0.930 . S
H415 C428 0.930 . S
H416 C429 0.930 . S
H417 C433 0.959 1_655 S
H418 C433 0.959 . S
H419 C433 0.961 . S
H420 C434 0.960 . S
H421 C434 0.961 . S
H422 C434 0.959 . S
H423 C437 0.929 . S
H424 C438 0.931 . S
H425 C440 0.930 . S
C426 H414 0.930 . S
C426 C427 1.399 . S
C426 C431 1.399 . S
C427 C426 1.399 . S
C427 C428 1.376 . S
C428 H415 0.930 . S
C428 C427 1.376 . S
C428 C429 1.388 . S
C429 H416 0.930 . S
C429 C428 1.388 . S
C429 C430 1.390 . S
C430 C429 1.390 . S
C430 C431 1.394 . S
C430 C436 1.465 . S
C431 C426 1.399 . S
C431 C430 1.394 . S
C431 C432 1.516 . S
C432 C431 1.516 . S
C432 C433 1.502 . S
C432 C434 1.561 . S
C432 C435 1.526 . S
C433 H417 0.959 1_455 S
C433 H418 0.959 . S
C433 H419 0.961 . S
C433 C432 1.502 . S
C434 H420 0.960 . S
C434 H421 0.961 . S
C434 H422 0.959 . S
C434 C432 1.561 . S
C435 C432 1.526 . S
C435 C436 1.396 . S
C435 C440 1.390 . S
C436 C430 1.465 . S
C436 C435 1.396 . S
C436 C437 1.399 . S
C437 H423 0.929 . S
C437 C436 1.399 . S
C437 C438 1.385 . S
C438 H424 0.931 . S
C438 C437 1.385 . S
C438 C439 1.389 . S
C439 C438 1.389 . S
C439 C440 1.387 . S
C440 H425 0.930 . S
C440 C435 1.390 . S
C440 C439 1.387 . S
H441 C453 0.930 . S
H442 C455 0.930 . S
H443 C456 0.930 . S
H444 C460 0.959 . S
H445 C460 0.959 . S
H446 C460 0.961 . S
H447 C461 0.960 . S
H448 C461 0.961 . S
H449 C461 0.959 . S
H450 C464 0.929 . S
H451 C465 0.931 . S
H452 C467 0.930 . S
C453 H441 0.930 . S
C453 C454 1.399 . S
C453 C458 1.399 . S
C454 C453 1.399 . S
C454 C455 1.376 . S
C455 H442 0.930 . S
C455 C454 1.376 . S
C455 C456 1.388 . S
C456 H443 0.930 . S
C456 C455 1.388 . S
C456 C457 1.390 . S
C457 C456 1.390 . S
C457 C458 1.394 . S
C457 C463 1.465 . S
C458 C453 1.399 . S
C458 C457 1.394 . S
C458 C459 1.516 . S
C459 C458 1.516 . S
C459 C460 1.502 . S
C459 C461 1.561 . S
C459 C462 1.526 . S
C460 H444 0.959 . S
C460 H445 0.959 . S
C460 H446 0.961 . S
C460 C459 1.502 . S
C461 H447 0.960 . S
C461 H448 0.961 . S
C461 H449 0.959 . S
C461 C459 1.561 . S
C462 C459 1.526 . S
C462 C463 1.396 . S
C462 C467 1.390 . S
C463 C457 1.465 . S
C463 C462 1.396 . S
C463 C464 1.399 . S
C464 H450 0.929 . S
C464 C463 1.399 . S
C464 C465 1.385 . S
C465 H451 0.931 . S
C465 C464 1.385 . S
C465 C466 1.389 . S
C466 C465 1.389 . S
C466 C467 1.387 . S
C467 H452 0.930 . S
C467 C462 1.390 . S
C467 C466 1.387 . S
H468 C480 0.930 . S
H469 C482 0.930 . S
H470 C483 0.930 . S
H471 C487 0.959 . S
H472 C487 0.959 . S
H473 C487 0.961 . S
H474 C488 0.960 . S
H475 C488 0.961 . S
H476 C488 0.959 . S
H477 C491 0.929 . S
H478 C492 0.931 . S
H479 C494 0.930 . S
C480 H468 0.930 . S
C480 C481 1.399 . S
C480 C485 1.399 . S
C481 C480 1.399 . S
C481 C482 1.376 . S
C482 H469 0.930 . S
C482 C481 1.376 . S
C482 C483 1.388 . S
C483 H470 0.930 . S
C483 C482 1.388 . S
C483 C484 1.390 . S
C484 C483 1.390 . S
C484 C485 1.394 . S
C484 C490 1.465 . S
C485 C480 1.399 . S
C485 C484 1.394 . S
C485 C486 1.516 . S
C486 C485 1.516 . S
C486 C487 1.502 . S
C486 C488 1.561 . S
C486 C489 1.526 . S
C487 H471 0.959 . S
C487 H472 0.959 . S
C487 H473 0.961 . S
C487 C486 1.502 . S
C488 H474 0.960 . S
C488 H475 0.961 . S
C488 H476 0.959 . S
C488 C486 1.561 . S
C489 C486 1.526 . S
C489 C490 1.396 . S
C489 C494 1.390 . S
C490 C484 1.465 . S
C490 C489 1.396 . S
C490 C491 1.399 . S
C491 H477 0.929 . S
C491 C490 1.399 . S
C491 C492 1.385 . S
C492 H478 0.931 . S
C492 C491 1.385 . S
C492 C493 1.389 . S
C493 C492 1.389 . S
C493 C494 1.387 . S
C494 H479 0.930 . S
C494 C489 1.390 . S
C494 C493 1.387 . S
H495 C507 0.930 . S
H496 C509 0.930 . S
H497 C510 0.930 . S
H498 C514 0.959 . S
H499 C514 0.959 . S
H500 C514 0.961 . S
H501 C515 0.960 . S
H502 C515 0.961 . S
H503 C515 0.959 . S
H504 C518 0.929 . S
H505 C519 0.931 . S
H506 C521 0.930 . S
C507 H495 0.930 . S
C507 C508 1.399 . S
C507 C512 1.399 . S
C508 C507 1.399 . S
C508 C509 1.376 1_556 S
C509 H496 0.930 . S
C509 C508 1.376 1_554 S
C509 C510 1.388 . S
C510 H497 0.930 . S
C510 C509 1.388 . S
C510 C511 1.390 1_554 S
C511 C510 1.390 1_556 S
C511 C512 1.394 . S
C511 C517 1.465 . S
C512 C507 1.399 . S
C512 C511 1.394 . S
C512 C513 1.516 . S
C513 C512 1.516 . S
C513 C514 1.502 . S
C513 C515 1.561 . S
C513 C516 1.526 . S
C514 H498 0.959 . S
C514 H499 0.959 . S
C514 H500 0.961 . S
C514 C513 1.502 . S
C515 H501 0.960 . S
C515 H502 0.961 . S
C515 H503 0.959 . S
C515 C513 1.561 . S
C516 C513 1.526 . S
C516 C517 1.396 . S
C516 C521 1.390 . S
C517 C511 1.465 . S
C517 C516 1.396 . S
C517 C518 1.399 . S
C518 H504 0.929 . S
C518 C517 1.399 . S
C518 C519 1.385 . S
C519 H505 0.931 . S
C519 C518 1.385 . S
C519 C520 1.389 . S
C520 C519 1.389 . S
C520 C521 1.387 . S
C521 H506 0.930 . S
C521 C516 1.390 . S
C521 C520 1.387 . S
H522 C534 0.930 . S
H523 C536 0.930 . S
H524 C537 0.930 . S
H525 C541 0.959 . S
H526 C541 0.959 . S
H527 C541 0.961 . S
H528 C542 0.960 . S
H529 C542 0.961 . S
H530 C542 0.959 . S
H531 C545 0.929 . S
H532 C546 0.931 . S
H533 C548 0.930 . S
C534 H522 0.930 . S
C534 C535 1.399 . S
C534 C539 1.399 . S
C535 C534 1.399 . S
C535 C536 1.376 . S
C536 H523 0.930 . S
C536 C535 1.376 . S
C536 C537 1.388 . S
C537 H524 0.930 . S
C537 C536 1.388 . S
C537 C538 1.390 . S
C538 C537 1.390 . S
C538 C539 1.394 . S
C538 C544 1.465 . S
C539 C534 1.399 . S
C539 C538 1.394 . S
C539 C540 1.516 . S
C540 C539 1.516 . S
C540 C541 1.502 . S
C540 C542 1.561 . S
C540 C543 1.526 . S
C541 H525 0.959 . S
C541 H526 0.959 . S
C541 H527 0.961 . S
C541 C540 1.502 . S
C542 H528 0.960 . S
C542 H529 0.961 . S
C542 H530 0.959 . S
C542 C540 1.561 . S
C543 C540 1.526 . S
C543 C544 1.396 . S
C543 C548 1.390 . S
C544 C538 1.465 . S
C544 C543 1.396 . S
C544 C545 1.399 . S
C545 H531 0.929 . S
C545 C544 1.399 . S
C545 C546 1.385 . S
C546 H532 0.931 . S
C546 C545 1.385 . S
C546 C547 1.389 . S
C547 C546 1.389 . S
C547 C548 1.387 . S
C548 H533 0.930 . S
C548 C543 1.390 . S
C548 C547 1.387 . S
H549 C561 0.930 . S
H550 C563 0.930 . S
H551 C564 0.930 . S
H552 C568 0.959 . S
H553 C568 0.959 . S
H554 C568 0.961 . S
H555 C569 0.960 . S
H556 C569 0.961 . S
H557 C569 0.959 . S
H558 C572 0.929 . S
H559 C573 0.931 . S
H560 C575 0.930 . S
C561 H549 0.930 . S
C561 C562 1.399 . S
C561 C566 1.399 . S
C562 C561 1.399 . S
C562 C563 1.376 . S
C563 H550 0.930 . S
C563 C562 1.376 . S
C563 C564 1.388 . S
C564 H551 0.930 . S
C564 C563 1.388 . S
C564 C565 1.390 . S
C565 C564 1.390 . S
C565 C566 1.394 . S
C565 C571 1.465 . S
C566 C561 1.399 . S
C566 C565 1.394 . S
C566 C567 1.516 . S
C567 C566 1.516 . S
C567 C568 1.502 . S
C567 C569 1.561 . S
C567 C570 1.526 . S
C568 H552 0.959 . S
C568 H553 0.959 . S
C568 H554 0.961 . S
C568 C567 1.502 . S
C569 H555 0.960 . S
C569 H556 0.961 . S
C569 H557 0.959 . S
C569 C567 1.561 . S
C570 C567 1.526 . S
C570 C571 1.396 . S
C570 C575 1.390 . S
C571 C565 1.465 . S
C571 C570 1.396 . S
C571 C572 1.399 . S
C572 H558 0.929 . S
C572 C571 1.399 . S
C572 C573 1.385 . S
C573 H559 0.931 . S
C573 C572 1.385 . S
C573 C574 1.389 . S
C574 C573 1.389 . S
C574 C575 1.387 . S
C575 H560 0.930 . S
C575 C570 1.390 . S
C575 C574 1.387 . S
H576 C588 0.930 . S
H577 C590 0.930 . S
H578 C591 0.930 . S
H579 C595 0.959 1_556 S
H580 C595 0.959 . S
H581 C595 0.961 . S
H582 C596 0.960 . S
H583 C596 0.961 . S
H584 C596 0.959 . S
H585 C599 0.929 . S
H586 C600 0.931 . S
H587 C602 0.930 . S
C588 H576 0.930 . S
C588 C589 1.399 . S
C588 C593 1.399 . S
C589 C588 1.399 . S
C589 C590 1.376 . S
C590 H577 0.930 . S
C590 C589 1.376 . S
C590 C591 1.388 . S
C591 H578 0.930 . S
C591 C590 1.388 . S
C591 C592 1.390 . S
C592 C591 1.390 . S
C592 C593 1.394 . S
C592 C598 1.465 . S
C593 C588 1.399 . S
C593 C592 1.394 . S
C593 C594 1.516 . S
C594 C593 1.516 . S
C594 C595 1.502 1_556 S
C594 C596 1.561 1_556 S
C594 C597 1.526 . S
C595 H579 0.959 1_554 S
C595 H580 0.959 . S
C595 H581 0.961 . S
C595 C594 1.502 1_554 S
C596 H582 0.960 . S
C596 H583 0.961 . S
C596 H584 0.959 . S
C596 C594 1.561 1_554 S
C597 C594 1.526 . S
C597 C598 1.396 . S
C597 C602 1.390 1_556 S
C598 C592 1.465 . S
C598 C597 1.396 . S
C598 C599 1.399 . S
C599 H585 0.929 . S
C599 C598 1.399 . S
C599 C600 1.385 . S
C600 H586 0.931 . S
C600 C599 1.385 . S
C600 C601 1.389 . S
C601 C600 1.389 . S
C601 C602 1.387 1_556 S
C602 H587 0.930 . S
C602 C597 1.390 1_554 S
C602 C601 1.387 1_554 S
C211 C17 1.578 . S
C223 C116 1.577 . S
C238 C149 1.587 . S
C250 C50 1.589 . S
C265 C83 1.587 . S
C277 C182 1.589 . S
C292 N5 1.188 . S
C304 N14 1.230 . S
C319 N38 1.224 . S
C331 N47 1.184 . S
C346 N71 1.189 1_554 S
C358 N80 1.227 . S
C373 N113 1.196 . S
C385 N104 1.211 . S
C400 N137 1.223 . S
C412 N146 1.185 . S
C427 N179 1.180 . S
C439 N170 1.230 1_554 S
C454 C28 1.520 . S
C466 C41 1.486 . S
C481 C61 1.516 . S
C493 C74 1.498 . S
C508 C107 1.515 1_556 S
C520 C94 1.497 . S
C535 C127 1.505 . S
C547 C140 1.502 . S
C562 C173 1.491 . S
C574 C160 1.513 . S
C589 C193 1.519 . S
C601 C8 1.486 1_556 S
