# Generated by pormake.
# Topology yfx, (5)-cn, num edge types: 1
# Building blocks:
#     Node 0, Type 0, BuildingBlock: XOMCOT_clean_sbu_1, # of connection points: 5
#     Node 1, Type 0, BuildingBlock: XOMCOT_clean_sbu_1, # of connection points: 5
#     Node 2, Type 0, BuildingBlock: XOMCOT_clean_sbu_1, # of connection points: 5
#     Node 3, Type 0, BuildingBlock: XOMCOT_clean_sbu_1, # of connection points: 5
#     Node 4, Type 0, BuildingBlock: XOMCOT_clean_sbu_1, # of connection points: 5
#     Node 5, Type 0, BuildingBlock: XOMCOT_clean_sbu_1, # of connection points: 5
#     Node 6, Type 0, BuildingBlock: XOMCOT_clean_sbu_1, # of connection points: 5
#     Node 7, Type 0, BuildingBlock: XOMCOT_clean_sbu_1, # of connection points: 5
#     Edge 8, Type (0, 0), BuildingBlock: EZIPEK_clean_linker_0, # of connection points: 2
#     Edge 9, Type (0, 0), BuildingBlock: EZIPEK_clean_linker_0, # of connection points: 2
#     Edge 10, Type (0, 0), BuildingBlock: EZIPEK_clean_linker_0, # of connection points: 2
#     Edge 11, Type (0, 0), BuildingBlock: EZIPEK_clean_linker_0, # of connection points: 2
#     Edge 12, Type (0, 0), BuildingBlock: EZIPEK_clean_linker_0, # of connection points: 2
#     Edge 13, Type (0, 0), BuildingBlock: EZIPEK_clean_linker_0, # of connection points: 2
#     Edge 14, Type (0, 0), BuildingBlock: EZIPEK_clean_linker_0, # of connection points: 2
#     Edge 15, Type (0, 0), BuildingBlock: EZIPEK_clean_linker_0, # of connection points: 2
#     Edge 16, Type (0, 0), BuildingBlock: EZIPEK_clean_linker_0, # of connection points: 2
#     Edge 17, Type (0, 0), BuildingBlock: EZIPEK_clean_linker_0, # of connection points: 2
#     Edge 18, Type (0, 0), BuildingBlock: EZIPEK_clean_linker_0, # of connection points: 2
#     Edge 19, Type (0, 0), BuildingBlock: EZIPEK_clean_linker_0, # of connection points: 2
#     Edge 20, Type (0, 0), BuildingBlock: EZIPEK_clean_linker_0, # of connection points: 2
#     Edge 21, Type (0, 0), BuildingBlock: EZIPEK_clean_linker_0, # of connection points: 2
#     Edge 22, Type (0, 0), BuildingBlock: EZIPEK_clean_linker_0, # of connection points: 2
#     Edge 23, Type (0, 0), BuildingBlock: EZIPEK_clean_linker_0, # of connection points: 2
#     Edge 24, Type (0, 0), BuildingBlock: EZIPEK_clean_linker_0, # of connection points: 2
#     Edge 25, Type (0, 0), BuildingBlock: EZIPEK_clean_linker_0, # of connection points: 2
#     Edge 26, Type (0, 0), BuildingBlock: EZIPEK_clean_linker_0, # of connection points: 2
#     Edge 27, Type (0, 0), BuildingBlock: EZIPEK_clean_linker_0, # of connection points: 2
# Relax obj value: 0.108
# Max RMSD: 0.116
# Mean RMSD: 0.116
data_MOF--net-yfx--node1-XOMCOT_clean_sbu_1--edge1-EZIPEK_clean_linker_0
_symmetry_space_group_name_H-M    P1
_symmetry_Int_Tables_number       1
_symmetry_cell_setting            triclinic
loop_
_symmetry_equiv_pos_as_xyz
'x, y, z'
_cell_length_a     27.569764
_cell_length_b     27.534308
_cell_length_c     20.897877
_cell_angle_alpha  89.456155
_cell_angle_beta   89.683876
_cell_angle_gamma 89.983824
loop_
_atom_site_label
_atom_site_type_symbol
_atom_site_fract_x
_atom_site_fract_y
_atom_site_fract_z
_atom_type_partial_charge
C0 C 0.31524 0.38462 0.94605 0.0
C1 C 0.36191 0.36762 0.95329 0.0
N2 N 0.36619 0.35024 1.01329 0.0
N3 N 0.2907 0.37825 1.00146 0.0
C4 C 0.32291 0.3572 0.04163 0.0
H5 H 0.29926 0.39769 0.90209 0.0
Co6 Co 0.22511 0.39084 1.01369 0.0
C7 C 0.20862 0.33632 0.13954 0.0
O8 O 0.1755 0.30749 0.11574 0.0
N9 N 0.15746 0.40408 1.02648 0.0
C10 C 0.07684 0.39535 0.03268 0.0
C11 C 0.12043 0.37169 1.02519 0.0
C12 C 0.1348 0.44733 0.03556 0.0
N13 N 0.08613 0.44284 0.03894 0.0
O14 O 0.243 0.4537 0.04244 0.0
H15 H 0.12427 0.33313 1.01765 0.0
H16 H 0.15294 0.48193 0.03867 0.0
O17 O 0.2296 0.36659 0.10207 0.0
C18 C 0.24299 0.48503 0.99703 0.0
O19 O 0.21886 0.47499 0.94472 0.0
N20 N 0.21154 0.33086 0.97587 0.0
C21 C 0.23174 0.26469 0.8791 0.0
C22 C 0.24217 0.25313 0.94325 0.0
C23 C 0.23244 0.2873 0.99125 0.0
C24 C 0.19623 0.33987 0.91492 0.0
C25 C 0.20609 0.30734 0.86576 0.0
H26 H 0.24717 0.28119 0.03842 0.0
H27 H 0.18185 0.3753 0.90273 0.0
H28 H 0.3145 0.3443 0.08935 0.0
H29 H 0.38956 0.36539 0.91646 0.0
H30 H 0.04104 0.37923 0.03187 0.0
H31 H 0.26223 0.22045 0.95499 0.0
H32 H 0.19762 0.31748 0.81686 0.0
C33 C 0.62702 0.31245 0.98093 0.0
C34 C 0.64441 0.35924 0.98366 0.0
N35 N 0.66985 0.36352 0.03795 0.0
N36 N 0.64144 0.28751 0.03338 0.0
C37 C 0.66752 0.31988 0.06733 0.0
H38 H 0.60708 0.29698 0.94169 0.0
Co39 Co 0.63015 0.22132 0.04799 0.0
C40 C 0.69798 0.21381 0.16502 0.0
O41 O 0.73276 0.18844 0.13807 0.0
N42 N 0.61745 0.15424 0.06204 0.0
C43 C 0.62145 0.07604 0.09108 0.0
C44 C 0.64655 0.11922 0.08648 0.0
C45 C 0.57527 0.1307 0.05021 0.0
N46 N 0.57658 0.08357 0.06845 0.0
O47 O 0.57023 0.23784 0.08884 0.0
H48 H 0.68397 0.12385 0.09909 0.0
H49 H 0.54417 0.14729 1.02794 0.0
O50 O 0.66112 0.22602 0.132 0.0
C51 C 0.53645 0.24545 0.04874 0.0
O52 O 0.54423 0.23562 0.98818 0.0
N53 N 0.68723 0.20742 1.0015 0.0
C54 C 0.74922 0.22361 0.89748 0.0
C55 C 0.76273 0.23772 0.95902 0.0
C56 C 0.7306 0.23048 1.01027 0.0
C57 C 0.67641 0.18832 0.94325 0.0
C58 C 0.70676 0.19639 0.89026 0.0
H59 H 0.73805 0.24933 0.05403 0.0
H60 H 0.64114 0.17221 0.93578 0.0
H61 H 0.68701 0.31131 0.11066 0.0
H62 H 0.64097 0.38715 0.94713 0.0
H63 H 0.63519 0.04162 0.10867 0.0
H64 H 0.79507 0.25936 0.96592 0.0
H65 H 0.69502 0.18535 0.84321 0.0
C66 C 0.70519 0.61551 0.97724 0.0
C67 C 0.65848 0.63301 0.97769 0.0
N68 N 0.65481 0.66631 1.0242 0.0
N69 N 0.73085 0.63733 1.02363 0.0
C70 C 0.69882 0.6679 0.05166 0.0
H71 H 0.72017 0.59088 0.94242 0.0
Co72 Co 0.79788 0.6304 0.03559 0.0
C73 C 0.80225 0.70059 0.15032 0.0
O74 O 0.82485 0.73698 0.12211 0.0
N75 N 0.86547 0.62278 0.04705 0.0
C76 C 0.94417 0.63584 0.06498 0.0
C77 C 0.89882 0.65683 0.06193 0.0
C78 C 0.89182 0.58166 0.03989 0.0
N79 N 0.93938 0.58857 0.05121 0.0
O80 O 0.78567 0.57057 0.08025 0.0
H81 H 0.89128 0.69486 0.0683 0.0
H82 H 0.877 0.54739 1.02541 0.0
O83 O 0.79278 0.66249 0.11859 0.0
C84 C 0.7796 0.53456 0.04342 0.0
O85 O 0.79021 0.53964 0.98236 0.0
N86 N 0.80784 0.68695 0.98533 0.0
C87 C 0.78913 0.74466 0.87794 0.0
C88 C 0.7736 0.7592 0.93869 0.0
C89 C 0.78324 0.72974 0.99201 0.0
C90 C 0.82759 0.67513 0.92744 0.0
C91 C 0.8189 0.7037 0.87295 0.0
H92 H 0.76574 0.73884 0.03638 0.0
H93 H 0.84539 0.64041 0.92179 0.0
H94 H 0.70817 0.69378 0.08808 0.0
H95 H 0.63059 0.62512 0.94303 0.0
H96 H 0.97806 0.65386 0.07546 0.0
H97 H 0.75027 0.7906 0.94399 0.0
H98 H 0.83122 0.69136 0.82656 0.0
C99 C 0.43 0.70049 0.98533 0.0
C100 C 0.41384 0.65324 0.98355 0.0
N101 N 0.36726 0.65277 1.00295 0.0
N102 N 0.39385 0.72942 1.00641 0.0
C103 C 0.35595 0.69911 1.016 0.0
H104 H 0.46553 0.71276 0.97095 0.0
Co105 Co 0.39489 0.79631 1.02014 0.0
C106 C 0.33623 0.80629 0.14422 0.0
O107 O 0.32783 0.85303 0.13782 0.0
N108 N 0.39625 0.86544 0.03405 0.0
C109 C 0.38806 0.94492 1.01329 0.0
C110 C 0.3691 0.89942 1.00341 0.0
C111 C 0.43061 0.89223 0.06415 0.0
N112 N 0.42732 0.94019 0.05046 0.0
O113 O 0.45566 0.78715 0.06265 0.0
H114 H 0.33972 0.8921 0.97102 0.0
H115 H 0.46027 0.87692 0.09124 0.0
O116 O 0.36008 0.78364 0.10118 0.0
C117 C 0.49351 0.79882 0.0305 0.0
O118 O 0.48963 0.83249 0.98591 0.0
N119 N 0.339 0.80166 0.97018 0.0
C120 C 0.27062 0.78487 0.87558 0.0
C121 C 0.25573 0.7947 0.93864 0.0
C122 C 0.29088 0.80338 0.98575 0.0
C123 C 0.3534 0.79607 0.9082 0.0
C124 C 0.31988 0.78724 0.86023 0.0
H125 H 0.27958 0.80986 0.03431 0.0
H126 H 0.39173 0.7952 0.89685 0.0
H127 H 0.32027 0.71072 0.0306 0.0
H128 H 0.43402 0.62192 0.96729 0.0
H129 H 0.37678 0.97827 0.98986 0.0
H130 H 0.21766 0.79378 0.95162 0.0
H131 H 0.33247 0.78024 0.81198 0.0
C132 C 0.81292 0.89684 0.47 0.0
C133 C 0.85974 0.87991 0.47402 0.0
N134 N 0.86423 0.85581 0.52986 0.0
N135 N 0.78819 0.88357 0.52324 0.0
C136 C 0.82068 0.85866 0.55911 0.0
H137 H 0.79718 0.91522 0.42918 0.0
Co138 Co 0.72162 0.89252 0.53428 0.0
C139 C 0.70224 0.8289 0.6503 0.0
O140 O 0.66901 0.80338 0.62109 0.0
N141 N 0.65346 0.90231 0.54424 0.0
C142 C 0.57289 0.89351 0.53968 0.0
C143 C 0.61693 0.87012 0.53562 0.0
C144 C 0.63013 0.94503 0.55373 0.0
N145 N 0.5815 0.94062 0.55078 0.0
O146 O 0.73492 0.95301 0.5745 0.0
H147 H 0.62155 0.83229 0.52377 0.0
H148 H 0.64799 0.9793 0.56066 0.0
O149 O 0.72505 0.86119 0.6181 0.0
C150 C 0.74373 0.98637 0.53344 0.0
O151 O 0.73492 0.9778 0.47285 0.0
N152 N 0.71175 0.83532 0.48857 0.0
C153 C 0.73091 0.7708 0.39017 0.0
C154 C 0.74107 0.75781 0.45369 0.0
C155 C 0.73175 0.79109 0.50258 0.0
C156 C 0.69755 0.8463 0.42774 0.0
C157 C 0.70669 0.81442 0.37768 0.0
H158 H 0.74574 0.78337 0.54971 0.0
H159 H 0.68374 0.88222 0.41693 0.0
H160 H 0.81217 0.84032 0.60376 0.0
H161 H 0.88751 0.88256 0.43733 0.0
H162 H 0.53747 0.87778 0.53176 0.0
H163 H 0.76025 0.72442 0.46449 0.0
H164 H 0.69875 0.82557 0.329 0.0
C165 C 0.11889 0.818 0.46129 0.0
C166 C 0.13696 0.86457 0.46071 0.0
N167 N 0.16958 0.86776 0.50797 0.0
N168 N 0.1399 0.79243 0.5091 0.0
C169 C 0.17099 0.82386 0.5364 0.0
H170 H 0.09355 0.80327 0.42735 0.0
Co171 Co 0.13131 0.72668 0.52539 0.0
C172 C 0.15472 0.7203 0.66199 0.0
O173 O 0.11405 0.69641 0.6715 0.0
N174 N 0.12251 0.6599 0.54047 0.0
C175 C 0.13416 0.58228 0.56742 0.0
C176 C 0.15569 0.62734 0.56125 0.0
C177 C 0.08147 0.63365 0.53325 0.0
N178 N 0.08746 0.58662 0.54992 0.0
O179 O 0.07259 0.74166 0.57073 0.0
H180 H 0.193 0.63599 0.57208 0.0
H181 H 0.04768 0.64839 0.51616 0.0
O182 O 0.16773 0.73269 0.60528 0.0
C183 C 0.03576 0.74772 0.53516 0.0
O184 O 0.03901 0.7364 0.47437 0.0
N185 N 0.1866 0.71456 0.47572 0.0
C186 C 0.25596 0.72281 0.37567 0.0
C187 C 0.26731 0.73434 0.43996 0.0
C188 C 0.23262 0.72915 0.48909 0.0
C189 C 0.17422 0.70332 0.41488 0.0
C190 C 0.20758 0.70792 0.36473 0.0
H191 H 0.24177 0.74087 0.53672 0.0
H192 H 0.13682 0.69476 0.40435 0.0
H193 H 0.19596 0.81457 0.5743 0.0
H194 H 0.12848 0.89323 0.42676 0.0
H195 H 0.15109 0.54913 0.58434 0.0
H196 H 0.30102 0.75041 0.45387 0.0
H197 H 0.19374 0.7027 0.31702 0.0
C198 C 0.2065 0.1301 0.45479 0.0
C199 C 0.15944 0.1464 0.46049 0.0
N200 N 0.15587 0.17119 0.51538 0.0
N201 N 0.23217 0.14443 0.50611 0.0
C202 C 0.20008 0.16954 0.54211 0.0
H203 H 0.2215 0.11101 0.41431 0.0
Co204 Co 0.29876 0.13589 0.51807 0.0
C205 C 0.30995 0.19458 0.64105 0.0
O206 O 0.34115 0.22622 0.61767 0.0
N207 N 0.36646 0.12695 0.53004 0.0
C208 C 0.44635 0.139 0.53841 0.0
C209 C 0.40182 0.16107 0.53107 0.0
C210 C 0.39078 0.08444 0.53685 0.0
N211 N 0.43904 0.09085 0.54193 0.0
O212 O 0.28573 0.07351 0.55455 0.0
H213 H 0.3961 0.19965 0.52501 0.0
H214 H 0.37398 0.04914 0.53734 0.0
O215 O 0.29298 0.16229 0.60422 0.0
C216 C 0.27864 0.04162 0.51189 0.0
O217 O 0.28889 0.05266 0.45202 0.0
N218 N 0.30899 0.19516 0.47477 0.0
C219 C 0.28875 0.25998 0.37504 0.0
C220 C 0.27752 0.272 0.43861 0.0
C221 C 0.28742 0.23861 0.48814 0.0
C222 C 0.32475 0.18556 0.41419 0.0
C223 C 0.31491 0.21744 0.36352 0.0
H224 H 0.27262 0.24536 0.53514 0.0
H225 H 0.33998 0.15028 0.40375 0.0
H226 H 0.20918 0.18903 0.58499 0.0
H227 H 0.13077 0.14254 0.42573 0.0
H228 H 0.48141 0.15666 0.53923 0.0
H229 H 0.25699 0.30456 0.44896 0.0
H230 H 0.32387 0.20691 0.31506 0.0
C231 C 0.89877 0.21145 0.47822 0.0
C232 C 0.88152 0.16457 0.47982 0.0
N233 N 0.8531 0.15959 0.53189 0.0
N234 N 0.88131 0.23578 0.52916 0.0
C235 C 0.85344 0.20297 0.56098 0.0
H236 H 0.9206 0.22742 0.44044 0.0
Co237 Co 0.89094 0.30196 0.54365 0.0
C238 C 0.82397 0.30758 0.66246 0.0
O239 O 0.79019 0.33526 0.63718 0.0
N240 N 0.90159 0.36914 0.55699 0.0
C241 C 0.89255 0.44856 0.57464 0.0
C242 C 0.86927 0.40431 0.57187 0.0
C243 C 0.94398 0.39345 0.54925 0.0
N244 N 0.93953 0.44137 0.56043 0.0
O245 O 0.95133 0.2862 0.58381 0.0
H246 H 0.83081 0.39896 0.57771 0.0
H247 H 0.97735 0.37702 0.53386 0.0
O248 O 0.8603 0.29522 0.62831 0.0
C249 C 0.98578 0.27986 0.54396 0.0
O250 O 0.97896 0.29176 0.48366 0.0
N251 N 0.83366 0.31512 0.49812 0.0
C252 C 0.7717 0.29955 0.39561 0.0
C253 C 0.7582 0.28504 0.45756 0.0
C254 C 0.7902 0.29235 0.50828 0.0
C255 C 0.84441 0.33462 0.43945 0.0
C256 C 0.81392 0.32709 0.38722 0.0
H257 H 0.78249 0.27403 0.55292 0.0
H258 H 0.87969 0.35075 0.43115 0.0
H259 H 0.83117 0.21115 0.60215 0.0
H260 H 0.88697 0.13715 0.4437 0.0
H261 H 0.87622 0.48339 0.58499 0.0
H262 H 0.72598 0.26319 0.4653 0.0
H263 H 0.8256 0.33836 0.33979 0.0
C264 C 0.49035 0.32114 0.07418 0.0
C265 C 0.49067 0.27003 0.06605 0.0
C266 C 0.40554 0.27135 0.03499 0.0
C267 C 0.40616 0.32268 0.03822 0.0
N268 N 0.44299 0.39581 0.07552 0.0
N269 N 0.44597 0.19557 0.06186 0.0
C270 C 0.44668 0.34735 0.06309 0.0
C271 C 0.4471 0.24485 0.05429 0.0
N272 N 0.5323 0.34467 0.08897 0.0
N273 N 0.36615 0.24835 1.01028 0.0
H274 H 0.47589 0.17638 0.07905 0.0
H275 H 0.41456 0.17482 0.05821 0.0
H276 H 0.33518 0.26712 0.99629 0.0
H277 H 0.36526 0.21145 0.99999 0.0
H278 H 0.53622 0.38222 0.08711 0.0
H279 H 0.56369 0.32618 0.10223 0.0
H280 H 0.46963 0.41576 0.09861 0.0
H281 H 0.41124 0.41537 0.06668 0.0
C282 C 0.74993 0.40335 0.03563 0.0
C283 C 0.7006 0.40359 0.05436 0.0
C284 C 0.70698 0.48858 0.08631 0.0
C285 C 0.75611 0.48878 0.06495 0.0
N286 N 0.82815 0.44293 0.04186 0.0
N287 N 0.63585 0.44019 0.11344 0.0
C288 C 0.77883 0.44479 0.04727 0.0
C289 C 0.68044 0.44428 0.0853 0.0
N290 N 0.76834 0.3645 1.00365 0.0
N291 N 0.68475 0.53082 0.10364 0.0
H292 H 0.61647 0.40767 0.11317 0.0
H293 H 0.62035 0.46705 0.1417 0.0
H294 H 0.70319 0.56346 0.10872 0.0
H295 H 0.64749 0.53396 0.11092 0.0
H296 H 0.80256 0.36421 0.98227 0.0
H297 H 0.74769 0.33378 0.99449 0.0
H298 H 0.84737 0.41101 0.03362 0.0
H299 H 0.84989 0.47255 0.05316 0.0
C300 C 0.58935 0.70707 0.08592 0.0
C301 C 0.61741 0.70262 1.02944 0.0
C302 C 0.56296 0.75747 0.97347 0.0
C303 C 0.53742 0.76703 0.03162 0.0
N304 N 0.53521 0.75847 0.14706 0.0
N305 N 0.641 0.73788 0.92847 0.0
C306 C 0.55321 0.74407 0.08928 0.0
C307 C 0.60758 0.73273 0.97629 0.0
N308 N 0.59621 0.67515 0.1353 0.0
N309 N 0.54326 0.76741 0.91487 0.0
H310 H 0.6752 0.72196 0.93135 0.0
H311 H 0.63674 0.76265 0.89083 0.0
H312 H 0.50731 0.77772 0.90819 0.0
H313 H 0.56038 0.75777 0.87219 0.0
H314 H 0.57388 0.67389 0.17568 0.0
H315 H 0.62172 0.64722 0.13288 0.0
H316 H 0.54842 0.74531 0.19051 0.0
H317 H 0.51108 0.78738 0.1518 0.0
C318 C 0.30012 0.54462 0.94337 0.0
C319 C 0.27393 0.5294 0.99922 0.0
C320 C 0.31322 0.59453 0.05932 0.0
C321 C 0.33444 0.61228 1.00192 0.0
N322 N 0.33703 0.61228 0.88704 0.0
N323 N 0.24783 0.54789 0.1071 0.0
C324 C 0.32429 0.58986 0.94322 0.0
C325 C 0.2783 0.55656 0.05651 0.0
N326 N 0.3051 0.5149 0.89175 0.0
N327 N 0.32754 0.61291 0.11659 0.0
H328 H 0.21981 0.52254 0.10582 0.0
H329 H 0.247 0.56955 0.1477 0.0
H330 H 0.35308 0.64069 0.12002 0.0
H331 H 0.31754 0.59743 0.1604 0.0
H332 H 0.32776 0.52316 0.85306 0.0
H333 H 0.29197 0.47962 0.89043 0.0
H334 H 0.32619 0.5996 0.84249 0.0
H335 H 0.35344 0.64641 0.88537 0.0
C336 C 0.99134 0.82215 0.573 0.0
C337 C 0.99095 0.77189 0.55785 0.0
C338 C 0.90421 0.77568 0.53568 0.0
C339 C 0.90486 0.82612 0.54796 0.0
N340 N 0.9441 0.8952 0.59311 0.0
N341 N 0.9452 0.69827 0.54743 0.0
C342 C 0.94694 0.84851 0.57203 0.0
C343 C 0.94653 0.74782 0.54703 0.0
N344 N 0.0342 0.84531 0.58418 0.0
N345 N 0.86419 0.75513 0.50911 0.0
H346 H 0.9758 0.6775 0.55812 0.0
H347 H 0.91324 0.67827 0.5445 0.0
H348 H 0.83307 0.77507 0.49926 0.0
H349 H 0.86323 0.71965 0.49235 0.0
H350 H 0.03757 0.88288 0.58684 0.0
H351 H 0.06698 0.827 0.58878 0.0
H352 H 0.9722 0.91284 0.61649 0.0
H353 H 0.91176 0.91488 0.5917 0.0
C354 C 0.27609 0.95207 0.49691 0.0
C355 C 0.25598 0.99387 0.52637 0.0
C356 C 0.18508 0.94581 0.55948 0.0
C357 C 0.20116 0.90795 0.51973 0.0
N358 N 0.26071 0.87362 0.44919 0.0
N359 N 0.18896 0.0312 0.58377 0.0
C360 C 0.24667 0.91039 0.48864 0.0
C361 C 0.21027 0.99081 0.55851 0.0
N362 N 0.3235 0.9522 0.47748 0.0
N363 N 0.14535 0.93851 0.59766 0.0
H364 H 0.20521 0.06519 0.58467 0.0
H365 H 0.15334 0.03183 0.60049 0.0
H366 H 0.12617 0.90584 0.598 0.0
H367 H 0.13427 0.9627 0.63285 0.0
H368 H 0.34149 0.92151 0.46084 0.0
H369 H 0.34627 0.98191 0.48395 0.0
H370 H 0.29103 0.87544 0.41933 0.0
H371 H 0.24005 0.84227 0.44324 0.0
C372 C 0.07462 0.17682 0.56428 0.0
C373 C 0.11529 0.19991 0.536 0.0
C374 C 0.07523 0.27858 0.54564 0.0
C375 C 0.03137 0.25463 0.56109 0.0
N376 N 0.98891 0.18101 0.59036 0.0
N377 N 0.15424 0.27222 0.49591 0.0
C378 C 0.0311 0.20378 0.57337 0.0
C379 C 0.11592 0.25084 0.52656 0.0
N380 N 0.07804 0.12916 0.58229 0.0
N381 N 0.07768 0.32793 0.54969 0.0
H382 H 0.18398 0.2524 0.48006 0.0
H383 H 0.15467 0.30853 0.48147 0.0
H384 H 0.04873 0.34823 0.56734 0.0
H385 H 0.10962 0.34764 0.54334 0.0
H386 H 0.05137 0.11079 0.60834 0.0
H387 H 0.10965 0.10903 0.57517 0.0
H388 H 0.98472 0.14345 0.59136 0.0
H389 H 0.9575 0.19991 0.60226 0.0
C390 C 0.77488 0.11836 0.51642 0.0
C391 C 0.82108 0.11957 0.54523 0.0
C392 C 0.81188 0.03537 0.58165 0.0
C393 C 0.76599 0.03352 0.55056 0.0
N394 N 0.69816 0.07679 0.50509 0.0
N395 N 0.87839 0.08582 0.61873 0.0
C396 C 0.74564 0.07635 0.52356 0.0
C397 C 0.83766 0.08016 0.58271 0.0
N398 N 0.76004 0.15678 0.47982 0.0
N399 N 0.83255 0.99408 0.60597 0.0
H400 H 0.89779 0.11836 0.61908 0.0
H401 H 0.89036 0.06029 0.65214 0.0
H402 H 0.8152 0.96059 0.60773 0.0
H403 H 0.86825 0.99231 0.62173 0.0
H404 H 0.7296 0.15622 0.45057 0.0
H405 H 0.78022 0.18857 0.47603 0.0
H406 H 0.67984 0.10803 0.49057 0.0
H407 H 0.67566 0.0466 0.50999 0.0
C408 C 0.29343 0.32066 0.28331 0.0
C409 C 0.2661 0.28675 0.32019 0.0
C410 C 0.19579 0.30105 0.25064 0.0
C411 C 0.22524 0.32873 0.20795 0.0
N412 N 0.29216 0.38564 0.20445 0.0
N413 N 0.19206 0.24118 0.33595 0.0
C414 C 0.27146 0.34468 0.22989 0.0
C415 C 0.21727 0.27649 0.30353 0.0
N416 N 0.34087 0.32896 0.29833 0.0
N417 N 0.14655 0.3016 0.2436 0.0
H418 H 0.20634 0.22185 0.37458 0.0
H419 H 0.15856 0.22807 0.32114 0.0
H420 H 0.1294 0.32397 0.21008 0.0
H421 H 0.12261 0.28574 0.27638 0.0
H422 H 0.36472 0.34806 0.26858 0.0
H423 H 0.35734 0.31385 0.3387 0.0
H424 H 0.32426 0.40069 0.22116 0.0
H425 H 0.27374 0.40918 0.17386 0.0
C426 C 0.73725 0.20524 0.27212 0.0
C427 C 0.70534 0.23185 0.2321 0.0
C428 C 0.71093 0.30135 0.30537 0.0
C429 C 0.74797 0.27673 0.33951 0.0
N430 N 0.8018 0.20786 0.34943 0.0
N431 N 0.64538 0.29633 0.22891 0.0
C432 C 0.76229 0.2292 0.32165 0.0
C433 C 0.68724 0.27755 0.25363 0.0
N434 N 0.74116 0.15609 0.26518 0.0
N435 N 0.69959 0.34808 0.32118 0.0
H436 H 0.62265 0.27711 0.19886 0.0
H437 H 0.629 0.32798 0.24511 0.0
H438 H 0.71514 0.36572 0.35999 0.0
H439 H 0.67767 0.37062 0.29346 0.0
H440 H 0.76027 0.13384 0.29682 0.0
H441 H 0.71988 0.1369 0.23289 0.0
H442 H 0.8171 0.17561 0.33323 0.0
H443 H 0.82212 0.22448 0.38494 0.0
C444 C 0.81925 0.73235 0.25955 0.0
C445 C 0.78816 0.70512 0.2197 0.0
C446 C 0.72521 0.70769 0.3042 0.0
C447 C 0.75259 0.74354 0.33595 0.0
N448 N 0.82611 0.79053 0.34498 0.0
N449 N 0.71462 0.65712 0.21116 0.0
C450 C 0.80002 0.75554 0.31444 0.0
C451 C 0.74226 0.68919 0.24443 0.0
N452 N 0.86779 0.73422 0.24607 0.0
N453 N 0.68334 0.69092 0.33207 0.0
H454 H 0.72812 0.63547 0.17486 0.0
H455 H 0.6782 0.65043 0.22083 0.0
H456 H 0.67012 0.70429 0.37535 0.0
H457 H 0.66334 0.66167 0.31547 0.0
H458 H 0.89319 0.74987 0.27628 0.0
H459 H 0.88331 0.71476 0.20851 0.0
H460 H 0.85833 0.80501 0.32685 0.0
H461 H 0.81402 0.80754 0.38645 0.0
C462 C 0.34149 0.79263 0.26412 0.0
C463 C 0.32106 0.77989 0.20413 0.0
C464 C 0.2787 0.71214 0.25777 0.0
C465 C 0.28992 0.7319 0.3183 0.0
N466 N 0.36196 0.7616 0.36876 0.0
N467 N 0.26741 0.72756 0.14506 0.0
C468 C 0.32959 0.7647 0.3199 0.0
C469 C 0.28963 0.73899 0.20105 0.0
N470 N 0.37318 0.83057 0.26812 0.0
N471 N 0.26116 0.66589 0.25466 0.0
H472 H 0.27199 0.74805 0.10352 0.0
H473 H 0.24066 0.70099 0.14166 0.0
H474 H 0.25768 0.64411 0.29564 0.0
H475 H 0.25537 0.64782 0.21185 0.0
H476 H 0.38444 0.84456 0.3118 0.0
H477 H 0.38615 0.84965 0.22824 0.0
H478 H 0.39353 0.78231 0.3708 0.0
H479 H 0.36206 0.73161 0.39967 0.0
C480 C 0.69732 0.77404 0.74833 0.0
C481 C 0.71934 0.8141 0.71629 0.0
C482 C 0.7861 0.81149 0.79449 0.0
C483 C 0.76716 0.7675 0.81998 0.0
N484 N 0.70859 0.70245 0.8141 0.0
N485 N 0.77111 0.88395 0.73092 0.0
C486 C 0.72395 0.74748 0.79478 0.0
C487 C 0.76024 0.83664 0.74525 0.0
N488 N 0.64914 0.76462 0.73989 0.0
N489 N 0.82956 0.82842 0.81614 0.0
H490 H 0.74793 0.90625 0.7046 0.0
H491 H 0.79858 0.90346 0.75291 0.0
H492 H 0.84887 0.81113 0.85263 0.0
H493 H 0.84844 0.85698 0.79457 0.0
H494 H 0.63028 0.73821 0.76596 0.0
H495 H 0.62635 0.78837 0.71514 0.0
H496 H 0.68047 0.684 0.79173 0.0
H497 H 0.72614 0.68184 0.84908 0.0
C498 C 0.20588 0.70237 0.75874 0.0
C499 C 0.18281 0.7369 0.71826 0.0
C500 C 0.21475 0.80337 0.7835 0.0
C501 C 0.23604 0.7688 0.82551 0.0
N502 N 0.24499 0.68563 0.86046 0.0
N503 N 0.15539 0.81915 0.70074 0.0
C504 C 0.22933 0.7183 0.81541 0.0
C505 C 0.18449 0.78716 0.733 0.0
N506 N 0.2071 0.65457 0.74163 0.0
N507 N 0.22434 0.85167 0.791 0.0
H508 H 0.13165 0.8084 0.66492 0.0
H509 H 0.15135 0.85543 0.71331 0.0
H510 H 0.24459 0.865 0.82904 0.0
H511 H 0.21489 0.87816 0.75741 0.0
H512 H 0.22788 0.62839 0.76507 0.0
H513 H 0.19021 0.64156 0.70067 0.0
H514 H 0.23668 0.64877 0.85956 0.0
H515 H 0.26301 0.69594 0.90195 0.0
C516 C 0.32387 0.22208 0.7541 0.0
C517 C 0.29296 0.19906 0.70968 0.0
C518 C 0.2248 0.2073 0.78575 0.0
C519 C 0.25401 0.23712 0.82495 0.0
N520 N 0.33126 0.27541 0.84465 0.0
N521 N 0.22196 0.14754 0.70168 0.0
C522 C 0.30377 0.24445 0.80927 0.0
C523 C 0.24553 0.18502 0.73048 0.0
N524 N 0.373 0.21945 0.74568 0.0
N525 N 0.17678 0.20133 0.80041 0.0
H526 H 0.23854 0.12475 0.66882 0.0
H527 H 0.18872 0.13386 0.7173 0.0
H528 H 0.16118 0.2145 0.84242 0.0
H529 H 0.15183 0.18601 0.76928 0.0
H530 H 0.39793 0.23141 0.7793 0.0
H531 H 0.38881 0.19929 0.70901 0.0
H532 H 0.36569 0.28719 0.83086 0.0
H533 H 0.31828 0.29247 0.88546 0.0
C534 C 0.76429 0.29513 0.8246 0.0
C535 C 0.77387 0.24577 0.84048 0.0
C536 C 0.83069 0.24075 0.7494 0.0
C537 C 0.8167 0.28858 0.72974 0.0
N538 N 0.78971 0.36684 0.76559 0.0
N539 N 0.81368 0.17024 0.81708 0.0
C540 C 0.78927 0.31742 0.77257 0.0
C541 C 0.80663 0.21827 0.80279 0.0
N542 N 0.729 0.32005 0.85676 0.0
N543 N 0.86935 0.21828 0.72112 0.0
H544 H 0.79849 0.1534 0.85738 0.0
H545 H 0.83166 0.1462 0.78699 0.0
H546 H 0.89261 0.23553 0.68898 0.0
H547 H 0.88306 0.18485 0.73594 0.0
H548 H 0.71654 0.35419 0.8426 0.0
H549 H 0.70877 0.3049 0.89414 0.0
H550 H 0.77438 0.39041 0.79873 0.0
H551 H 0.811 0.38443 0.73101 0.0
C552 C 0.99262 0.52894 0.10514 0.0
C553 C 0.9774 0.55271 0.04827 0.0
C554 C 0.03416 0.50369 0.98512 0.0
C555 C 0.0507 0.48125 0.04229 0.0
N556 N 0.05068 0.47483 0.15675 0.0
N557 N 0.98597 0.56772 0.93555 0.0
C558 C 0.03132 0.49466 0.10244 0.0
C559 C 0.99889 0.54144 0.98854 0.0
N560 N 0.96891 0.53846 0.1612 0.0
N561 N 0.05152 0.48776 0.92767 0.0
H562 H 0.95971 0.595 0.93705 0.0
H563 H 1.00294 0.56478 0.89117 0.0
H564 H 0.07814 0.46096 0.92422 0.0
H565 H 0.03804 0.49894 0.88353 0.0
H566 H 0.97486 0.51965 0.20383 0.0
H567 H 0.94085 0.5638 0.16413 0.0
H568 H 0.0415 0.48562 0.20283 0.0
H569 H 0.07852 0.44916 0.15542 0.0
C570 C 0.50202 0.04486 0.11158 0.0
C571 C 0.53839 0.04794 0.06343 0.0
C572 C 0.50082 0.9803 1.00618 0.0
C573 C 0.46562 0.97576 0.05581 0.0
N574 N 0.43349 1.00015 0.1572 0.0
N575 N 0.57561 0.01775 0.96777 0.0
C576 C 0.46647 1.00719 0.10899 0.0
C577 C 0.53863 0.0153 1.0115 0.0
N578 N 0.50162 0.07843 0.1593 0.0
N579 N 0.49705 0.95188 0.95319 0.0
H580 H 0.60222 0.04465 0.96891 0.0
H581 H 0.58151 0.99219 0.93223 0.0
H582 H 0.47054 0.92522 0.94854 0.0
H583 H 0.51825 0.95613 0.9122 0.0
H584 H 0.47428 0.08135 0.19352 0.0
H585 H 0.52814 0.10526 0.16297 0.0
H586 H 0.43354 0.01899 0.20008 0.0
H587 H 0.40697 0.97315 0.15533 0.0
C588 C 0.4896 0.03357 0.60421 0.0
C589 C 0.47561 0.05345 0.54432 0.0
C590 C 0.53198 0.99894 0.48872 0.0
C591 C 0.54647 0.9795 0.54873 0.0
N592 N 0.54317 0.97901 0.66332 0.0
N593 N 0.4835 0.05834 0.43009 0.0
C594 C 0.52638 0.99714 0.60653 0.0
C595 C 0.4969 0.03697 0.4866 0.0
N596 N 0.46686 0.04939 0.65841 0.0
N597 N 0.55172 0.98033 0.43404 0.0
H598 H 0.45688 0.08519 0.42748 0.0
H599 H 0.49929 0.05103 0.38594 0.0
H600 H 0.57878 0.95387 0.43465 0.0
H601 H 0.54092 0.98972 0.38798 0.0
H602 H 0.47231 0.03474 0.70384 0.0
H603 H 0.44066 0.07673 0.65748 0.0
H604 H 0.53298 0.99185 0.70804 0.0
H605 H 0.56934 0.95167 0.66557 0.0
C606 C 0.03217 0.53339 0.61248 0.0
C607 C 0.05051 0.54949 0.55243 0.0
C608 C 0.99325 0.49599 0.49748 0.0
C609 C 0.97734 0.47757 0.55753 0.0
N610 N 0.98563 0.47277 0.67166 0.0
N611 N 0.05372 0.54263 0.43807 0.0
C612 C 0.998 0.49465 0.61496 0.0
C613 C 0.03238 0.52982 0.49489 0.0
N614 N 0.04619 0.55659 0.66682 0.0
N615 N 0.96988 0.48192 0.44328 0.0
H616 H 0.0825 0.56714 0.43524 0.0
H617 H 0.04549 0.52654 0.39458 0.0
H618 H 0.9414 0.45701 0.4442 0.0
H619 H 0.97629 0.49722 0.39827 0.0
H620 H 0.03085 0.54993 0.7117 0.0
H621 H 0.0706 0.58549 0.66618 0.0
H622 H 1.00274 0.47998 0.71485 0.0
H623 H 0.96052 0.4445 0.67455 0.0
loop_
_geom_bond_atom_site_label_1
_geom_bond_atom_site_label_2
_geom_bond_distance
_geom_bond_site_symmetry_2
_ccdc_geom_bond_type
C0 C1 1.351 . S
C0 N3 1.368 1_556 S
C0 H5 0.931 . S
C1 C0 1.351 . S
C1 N2 1.373 1_556 S
C1 H29 0.930 . S
N2 C1 1.373 1_554 S
N2 C4 1.340 . S
N3 C0 1.368 1_554 S
N3 C4 1.321 . S
N3 Co6 2.135 . S
C4 N2 1.340 . S
C4 N3 1.321 . S
C4 H28 0.930 . S
H5 C0 0.931 . S
Co6 N3 2.135 . S
Co6 N9 2.121 . S
Co6 O14 2.055 . S
Co6 O17 2.039 . S
Co6 N20 2.140 1_554 S
C7 O8 1.227 . S
C7 O17 1.265 . S
O8 C7 1.227 . S
N9 Co6 2.121 . S
N9 C11 1.375 . S
N9 C12 1.313 . S
C10 C11 1.338 . S
C10 N13 1.377 . S
C10 H30 0.930 . S
C11 N9 1.375 . S
C11 C10 1.338 . S
C11 H15 0.931 . S
C12 N9 1.313 . S
C12 N13 1.344 . S
C12 H16 0.930 . S
N13 C10 1.377 . S
N13 C12 1.344 . S
O14 Co6 2.055 . S
O14 C18 1.243 1_554 S
H15 C11 0.931 . S
H16 C12 0.930 . S
O17 Co6 2.039 . S
O17 C7 1.265 . S
C18 O14 1.243 1_556 S
C18 O19 1.236 . S
O19 C18 1.236 . S
N20 Co6 2.140 1_556 S
N20 C23 1.346 . S
N20 C24 1.345 . S
C21 C22 1.387 . S
C21 C25 1.391 . S
C22 C21 1.387 . S
C22 C23 1.369 . S
C22 H31 0.929 . S
C23 N20 1.346 . S
C23 C22 1.369 . S
C23 H26 0.928 . S
C24 N20 1.345 . S
C24 C25 1.371 . S
C24 H27 0.931 . S
C25 C21 1.391 . S
C25 C24 1.371 . S
C25 H32 0.930 . S
H26 C23 0.928 . S
H27 C24 0.931 . S
H28 C4 0.930 . S
H29 C1 0.930 . S
H30 C10 0.930 . S
H31 C22 0.929 . S
H32 C25 0.930 . S
C33 C34 1.351 . S
C33 N36 1.368 1_556 S
C33 H38 0.931 . S
C34 C33 1.351 . S
C34 N35 1.373 1_556 S
C34 H62 0.930 . S
N35 C34 1.373 1_554 S
N35 C37 1.340 . S
N36 C33 1.368 1_554 S
N36 C37 1.321 . S
N36 Co39 2.135 . S
C37 N35 1.340 . S
C37 N36 1.321 . S
C37 H61 0.930 . S
H38 C33 0.931 . S
Co39 N36 2.135 . S
Co39 N42 2.121 . S
Co39 O47 2.055 . S
Co39 O50 2.039 . S
Co39 N53 2.140 1_554 S
C40 O41 1.227 . S
C40 O50 1.265 . S
O41 C40 1.227 . S
N42 Co39 2.121 . S
N42 C44 1.375 . S
N42 C45 1.313 . S
C43 C44 1.338 . S
C43 N46 1.377 . S
C43 H63 0.930 . S
C44 N42 1.375 . S
C44 C43 1.338 . S
C44 H48 0.931 . S
C45 N42 1.313 . S
C45 N46 1.344 . S
C45 H49 0.930 . S
N46 C43 1.377 . S
N46 C45 1.344 . S
O47 Co39 2.055 . S
O47 C51 1.243 1_554 S
H48 C44 0.931 . S
H49 C45 0.930 . S
O50 Co39 2.039 . S
O50 C40 1.265 . S
C51 O47 1.243 1_556 S
C51 O52 1.236 . S
O52 C51 1.236 . S
N53 Co39 2.140 1_556 S
N53 C56 1.346 . S
N53 C57 1.345 . S
C54 C55 1.387 . S
C54 C58 1.391 . S
C55 C54 1.387 . S
C55 C56 1.369 . S
C55 H64 0.929 . S
C56 N53 1.346 . S
C56 C55 1.369 . S
C56 H59 0.928 . S
C57 N53 1.345 . S
C57 C58 1.371 . S
C57 H60 0.931 . S
C58 C54 1.391 . S
C58 C57 1.371 . S
C58 H65 0.930 . S
H59 C56 0.928 . S
H60 C57 0.931 . S
H61 C37 0.930 . S
H62 C34 0.930 . S
H63 C43 0.930 . S
H64 C55 0.929 . S
H65 C58 0.930 . S
C66 C67 1.351 . S
C66 N69 1.368 1_556 S
C66 H71 0.931 . S
C67 C66 1.351 . S
C67 N68 1.373 1_556 S
C67 H95 0.930 . S
N68 C67 1.373 1_554 S
N68 C70 1.340 . S
N69 C66 1.368 1_554 S
N69 C70 1.321 . S
N69 Co72 2.135 . S
C70 N68 1.340 . S
C70 N69 1.321 . S
C70 H94 0.930 . S
H71 C66 0.931 . S
Co72 N69 2.135 . S
Co72 N75 2.121 . S
Co72 O80 2.055 . S
Co72 O83 2.039 . S
Co72 N86 2.140 1_554 S
C73 O74 1.227 . S
C73 O83 1.265 . S
O74 C73 1.227 . S
N75 Co72 2.121 . S
N75 C77 1.375 . S
N75 C78 1.313 . S
C76 C77 1.338 . S
C76 N79 1.377 . S
C76 H96 0.930 . S
C77 N75 1.375 . S
C77 C76 1.338 . S
C77 H81 0.931 . S
C78 N75 1.313 . S
C78 N79 1.344 . S
C78 H82 0.930 . S
N79 C76 1.377 . S
N79 C78 1.344 . S
O80 Co72 2.055 . S
O80 C84 1.243 1_554 S
H81 C77 0.931 . S
H82 C78 0.930 . S
O83 Co72 2.039 . S
O83 C73 1.265 . S
C84 O80 1.243 1_556 S
C84 O85 1.236 . S
O85 C84 1.236 . S
N86 Co72 2.140 1_556 S
N86 C89 1.346 . S
N86 C90 1.345 . S
C87 C88 1.387 . S
C87 C91 1.391 . S
C88 C87 1.387 . S
C88 C89 1.369 . S
C88 H97 0.929 . S
C89 N86 1.346 . S
C89 C88 1.369 . S
C89 H92 0.928 . S
C90 N86 1.345 . S
C90 C91 1.371 . S
C90 H93 0.931 . S
C91 C87 1.391 . S
C91 C90 1.371 . S
C91 H98 0.930 . S
H92 C89 0.928 . S
H93 C90 0.931 . S
H94 C70 0.930 . S
H95 C67 0.930 . S
H96 C76 0.930 . S
H97 C88 0.929 . S
H98 C91 0.930 . S
C99 C100 1.351 . S
C99 N102 1.368 1_556 S
C99 H104 0.931 . S
C100 C99 1.351 . S
C100 N101 1.373 1_556 S
C100 H128 0.930 . S
N101 C100 1.373 1_554 S
N101 C103 1.340 . S
N102 C99 1.368 1_554 S
N102 C103 1.321 . S
N102 Co105 2.135 . S
C103 N101 1.340 . S
C103 N102 1.321 . S
C103 H127 0.930 . S
H104 C99 0.931 . S
Co105 N102 2.135 . S
Co105 N108 2.121 . S
Co105 O113 2.055 . S
Co105 O116 2.039 . S
Co105 N119 2.140 1_554 S
C106 O107 1.227 . S
C106 O116 1.265 . S
O107 C106 1.227 . S
N108 Co105 2.121 . S
N108 C110 1.375 . S
N108 C111 1.313 . S
C109 C110 1.338 . S
C109 N112 1.377 . S
C109 H129 0.930 . S
C110 N108 1.375 . S
C110 C109 1.338 . S
C110 H114 0.931 . S
C111 N108 1.313 . S
C111 N112 1.344 . S
C111 H115 0.930 . S
N112 C109 1.377 . S
N112 C111 1.344 . S
O113 Co105 2.055 . S
O113 C117 1.243 1_554 S
H114 C110 0.931 . S
H115 C111 0.930 . S
O116 Co105 2.039 . S
O116 C106 1.265 . S
C117 O113 1.243 1_556 S
C117 O118 1.236 . S
O118 C117 1.236 . S
N119 Co105 2.140 1_556 S
N119 C122 1.346 . S
N119 C123 1.345 . S
C120 C121 1.387 . S
C120 C124 1.391 . S
C121 C120 1.387 . S
C121 C122 1.369 . S
C121 H130 0.929 . S
C122 N119 1.346 . S
C122 C121 1.369 . S
C122 H125 0.928 . S
C123 N119 1.345 . S
C123 C124 1.371 . S
C123 H126 0.931 . S
C124 C120 1.391 . S
C124 C123 1.371 . S
C124 H131 0.930 . S
H125 C122 0.928 . S
H126 C123 0.931 . S
H127 C103 0.930 . S
H128 C100 0.930 . S
H129 C109 0.930 . S
H130 C121 0.929 . S
H131 C124 0.930 . S
C132 C133 1.351 . S
C132 N135 1.368 . S
C132 H137 0.931 . S
C133 C132 1.351 . S
C133 N134 1.373 . S
C133 H161 0.930 . S
N134 C133 1.373 . S
N134 C136 1.340 . S
N135 C132 1.368 . S
N135 C136 1.321 . S
N135 Co138 2.135 . S
C136 N134 1.340 . S
C136 N135 1.321 . S
C136 H160 0.930 . S
H137 C132 0.931 . S
Co138 N135 2.135 . S
Co138 N141 2.121 . S
Co138 O146 2.055 . S
Co138 O149 2.039 . S
Co138 N152 2.140 . S
C139 O140 1.227 . S
C139 O149 1.265 . S
O140 C139 1.227 . S
N141 Co138 2.121 . S
N141 C143 1.375 . S
N141 C144 1.313 . S
C142 C143 1.338 . S
C142 N145 1.377 . S
C142 H162 0.930 . S
C143 N141 1.375 . S
C143 C142 1.338 . S
C143 H147 0.931 . S
C144 N141 1.313 . S
C144 N145 1.344 . S
C144 H148 0.930 . S
N145 C142 1.377 . S
N145 C144 1.344 . S
O146 Co138 2.055 . S
O146 C150 1.253 . S
H147 C143 0.931 . S
H148 C144 0.930 . S
O149 Co138 2.039 . S
O149 C139 1.265 . S
C150 O146 1.253 . S
C150 O151 1.227 . S
O151 C150 1.227 . S
N152 Co138 2.140 . S
N152 C155 1.346 . S
N152 C156 1.345 . S
C153 C154 1.387 . S
C153 C157 1.391 . S
C154 C153 1.387 . S
C154 C155 1.369 . S
C154 H163 0.929 . S
C155 N152 1.346 . S
C155 C154 1.369 . S
C155 H158 0.928 . S
C156 N152 1.345 . S
C156 C157 1.371 . S
C156 H159 0.931 . S
C157 C153 1.391 . S
C157 C156 1.371 . S
C157 H164 0.930 . S
H158 C155 0.928 . S
H159 C156 0.931 . S
H160 C136 0.930 . S
H161 C133 0.930 . S
H162 C142 0.930 . S
H163 C154 0.929 . S
H164 C157 0.930 . S
C165 C166 1.351 . S
C165 N168 1.368 . S
C165 H170 0.931 . S
C166 C165 1.351 . S
C166 N167 1.373 . S
C166 H194 0.930 . S
N167 C166 1.373 . S
N167 C169 1.340 . S
N168 C165 1.368 . S
N168 C169 1.321 . S
N168 Co171 2.135 . S
C169 N167 1.340 . S
C169 N168 1.321 . S
C169 H193 0.930 . S
H170 C165 0.931 . S
Co171 N168 2.135 . S
Co171 N174 2.121 . S
Co171 O179 2.055 . S
Co171 O182 2.039 . S
Co171 N185 2.140 . S
C172 O173 1.227 . S
C172 O182 1.265 . S
O173 C172 1.227 . S
N174 Co171 2.121 . S
N174 C176 1.375 . S
N174 C177 1.313 . S
C175 C176 1.338 . S
C175 N178 1.377 . S
C175 H195 0.930 . S
C176 N174 1.375 . S
C176 C175 1.338 . S
C176 H180 0.931 . S
C177 N174 1.313 . S
C177 N178 1.344 . S
C177 H181 0.930 . S
N178 C175 1.377 . S
N178 C177 1.344 . S
O179 Co171 2.055 . S
O179 C183 1.253 . S
H180 C176 0.931 . S
H181 C177 0.930 . S
O182 Co171 2.039 . S
O182 C172 1.265 . S
C183 O179 1.253 . S
C183 O184 1.227 . S
O184 C183 1.227 . S
N185 Co171 2.140 . S
N185 C188 1.346 . S
N185 C189 1.345 . S
C186 C187 1.387 . S
C186 C190 1.391 . S
C187 C186 1.387 . S
C187 C188 1.369 . S
C187 H196 0.929 . S
C188 N185 1.346 . S
C188 C187 1.369 . S
C188 H191 0.928 . S
C189 N185 1.345 . S
C189 C190 1.371 . S
C189 H192 0.931 . S
C190 C186 1.391 . S
C190 C189 1.371 . S
C190 H197 0.930 . S
H191 C188 0.928 . S
H192 C189 0.931 . S
H193 C169 0.930 . S
H194 C166 0.930 . S
H195 C175 0.930 . S
H196 C187 0.929 . S
H197 C190 0.930 . S
C198 C199 1.351 . S
C198 N201 1.368 . S
C198 H203 0.931 . S
C199 C198 1.351 . S
C199 N200 1.373 . S
C199 H227 0.930 . S
N200 C199 1.373 . S
N200 C202 1.340 . S
N201 C198 1.368 . S
N201 C202 1.321 . S
N201 Co204 2.135 . S
C202 N200 1.340 . S
C202 N201 1.321 . S
C202 H226 0.930 . S
H203 C198 0.931 . S
Co204 N201 2.135 . S
Co204 N207 2.121 . S
Co204 O212 2.055 . S
Co204 O215 2.039 . S
Co204 N218 2.140 . S
C205 O206 1.227 . S
C205 O215 1.265 . S
O206 C205 1.227 . S
N207 Co204 2.121 . S
N207 C209 1.375 . S
N207 C210 1.313 . S
C208 C209 1.338 . S
C208 N211 1.377 . S
C208 H228 0.930 . S
C209 N207 1.375 . S
C209 C208 1.338 . S
C209 H213 0.931 . S
C210 N207 1.313 . S
C210 N211 1.344 . S
C210 H214 0.930 . S
N211 C208 1.377 . S
N211 C210 1.344 . S
O212 Co204 2.055 . S
O212 C216 1.253 . S
H213 C209 0.931 . S
H214 C210 0.930 . S
O215 Co204 2.039 . S
O215 C205 1.265 . S
C216 O212 1.253 . S
C216 O217 1.227 . S
O217 C216 1.227 . S
N218 Co204 2.140 . S
N218 C221 1.346 . S
N218 C222 1.345 . S
C219 C220 1.387 . S
C219 C223 1.391 . S
C220 C219 1.387 . S
C220 C221 1.369 . S
C220 H229 0.929 . S
C221 N218 1.346 . S
C221 C220 1.369 . S
C221 H224 0.928 . S
C222 N218 1.345 . S
C222 C223 1.371 . S
C222 H225 0.931 . S
C223 C219 1.391 . S
C223 C222 1.371 . S
C223 H230 0.930 . S
H224 C221 0.928 . S
H225 C222 0.931 . S
H226 C202 0.930 . S
H227 C199 0.930 . S
H228 C208 0.930 . S
H229 C220 0.929 . S
H230 C223 0.930 . S
C231 C232 1.351 . S
C231 N234 1.368 . S
C231 H236 0.931 . S
C232 C231 1.351 . S
C232 N233 1.373 . S
C232 H260 0.930 . S
N233 C232 1.373 . S
N233 C235 1.340 . S
N234 C231 1.368 . S
N234 C235 1.321 . S
N234 Co237 2.135 . S
C235 N233 1.340 . S
C235 N234 1.321 . S
C235 H259 0.930 . S
H236 C231 0.931 . S
Co237 N234 2.135 . S
Co237 N240 2.121 . S
Co237 O245 2.055 . S
Co237 O248 2.039 . S
Co237 N251 2.140 . S
C238 O239 1.227 . S
C238 O248 1.265 . S
O239 C238 1.227 . S
N240 Co237 2.121 . S
N240 C242 1.375 . S
N240 C243 1.313 . S
C241 C242 1.338 . S
C241 N244 1.377 . S
C241 H261 0.930 . S
C242 N240 1.375 . S
C242 C241 1.338 . S
C242 H246 0.931 . S
C243 N240 1.313 . S
C243 N244 1.344 . S
C243 H247 0.930 . S
N244 C241 1.377 . S
N244 C243 1.344 . S
O245 Co237 2.055 . S
O245 C249 1.253 . S
H246 C242 0.931 . S
H247 C243 0.930 . S
O248 Co237 2.039 . S
O248 C238 1.265 . S
C249 O245 1.253 . S
C249 O250 1.227 . S
O250 C249 1.227 . S
N251 Co237 2.140 . S
N251 C254 1.346 . S
N251 C255 1.345 . S
C252 C253 1.387 . S
C252 C256 1.391 . S
C253 C252 1.387 . S
C253 C254 1.369 . S
C253 H262 0.929 . S
C254 N251 1.346 . S
C254 C253 1.369 . S
C254 H257 0.928 . S
C255 N251 1.345 . S
C255 C256 1.371 . S
C255 H258 0.931 . S
C256 C252 1.391 . S
C256 C255 1.371 . S
C256 H263 0.930 . S
H257 C254 0.928 . S
H258 C255 0.931 . S
H259 C235 0.930 . S
H260 C232 0.930 . S
H261 C241 0.930 . S
H262 C253 0.929 . S
H263 C256 0.930 . S
C264 C265 1.363 1_556 S
C264 C270 1.379 . S
C264 N272 1.356 . S
C265 C264 1.363 1_554 S
C265 C271 1.363 . S
C266 C267 1.363 . S
C266 C271 1.379 . S
C266 N273 1.356 . S
C267 C266 1.363 . S
C267 C270 1.363 1_554 S
N268 C270 1.356 . S
N268 H280 0.984 . S
N268 H281 0.985 . S
N269 C271 1.356 . S
N269 H274 0.984 . S
N269 H275 0.985 . S
C270 C264 1.379 . S
C270 C267 1.363 1_556 S
C270 N268 1.356 . S
C271 C265 1.363 . S
C271 C266 1.379 . S
C271 N269 1.356 . S
N272 C264 1.356 . S
N272 H278 0.984 . S
N272 H279 0.984 . S
N273 C266 1.356 . S
N273 H276 0.984 . S
N273 H277 0.985 . S
H274 N269 0.984 . S
H275 N269 0.985 . S
H276 N273 0.984 . S
H277 N273 0.985 . S
H278 N272 0.984 . S
H279 N272 0.984 . S
H280 N268 0.984 . S
H281 N268 0.985 . S
C282 C283 1.363 1_556 S
C282 C288 1.379 . S
C282 N290 1.356 . S
C283 C282 1.363 1_554 S
C283 C289 1.363 . S
C284 C285 1.363 . S
C284 C289 1.379 . S
C284 N291 1.356 . S
C285 C284 1.363 . S
C285 C288 1.363 1_554 S
N286 C288 1.356 . S
N286 H298 0.984 . S
N286 H299 0.985 . S
N287 C289 1.356 . S
N287 H292 0.984 . S
N287 H293 0.985 . S
C288 C282 1.379 . S
C288 C285 1.363 1_556 S
C288 N286 1.356 . S
C289 C283 1.363 . S
C289 C284 1.379 . S
C289 N287 1.356 . S
N290 C282 1.356 . S
N290 H296 0.984 . S
N290 H297 0.984 . S
N291 C284 1.356 . S
N291 H294 0.984 . S
N291 H295 0.985 . S
H292 N287 0.984 . S
H293 N287 0.985 . S
H294 N291 0.984 . S
H295 N291 0.985 . S
H296 N290 0.984 . S
H297 N290 0.984 . S
H298 N286 0.984 . S
H299 N286 0.985 . S
C300 C301 1.363 . S
C300 C306 1.379 . S
C300 N308 1.356 . S
C301 C300 1.363 . S
C301 C307 1.363 1_554 S
C302 C303 1.363 1_556 S
C302 C307 1.379 . S
C302 N309 1.356 . S
C303 C302 1.363 1_554 S
C303 C306 1.363 . S
N304 C306 1.356 . S
N304 H316 0.984 . S
N304 H317 0.985 . S
N305 C307 1.356 . S
N305 H310 0.984 . S
N305 H311 0.985 . S
C306 C300 1.379 . S
C306 C303 1.363 . S
C306 N304 1.356 . S
C307 C301 1.363 1_556 S
C307 C302 1.379 . S
C307 N305 1.356 . S
N308 C300 1.356 . S
N308 H314 0.984 . S
N308 H315 0.984 . S
N309 C302 1.356 . S
N309 H312 0.984 . S
N309 H313 0.985 . S
H310 N305 0.984 . S
H311 N305 0.985 . S
H312 N309 0.984 . S
H313 N309 0.985 . S
H314 N308 0.984 . S
H315 N308 0.984 . S
H316 N304 0.984 . S
H317 N304 0.985 . S
C318 C319 1.363 1_556 S
C318 C324 1.379 . S
C318 N326 1.356 . S
C319 C318 1.363 1_554 S
C319 C325 1.363 . S
C320 C321 1.363 . S
C320 C325 1.379 . S
C320 N327 1.356 . S
C321 C320 1.363 . S
C321 C324 1.363 1_554 S
N322 C324 1.356 . S
N322 H334 0.984 . S
N322 H335 0.985 . S
N323 C325 1.356 . S
N323 H328 0.984 . S
N323 H329 0.985 . S
C324 C318 1.379 . S
C324 C321 1.363 1_556 S
C324 N322 1.356 . S
C325 C319 1.363 . S
C325 C320 1.379 . S
C325 N323 1.356 . S
N326 C318 1.356 . S
N326 H332 0.984 . S
N326 H333 0.984 . S
N327 C320 1.356 . S
N327 H330 0.984 . S
N327 H331 0.985 . S
H328 N323 0.984 . S
H329 N323 0.985 . S
H330 N327 0.984 . S
H331 N327 0.985 . S
H332 N326 0.984 . S
H333 N326 0.984 . S
H334 N322 0.984 . S
H335 N322 0.985 . S
C336 C337 1.363 . S
C336 C342 1.379 . S
C336 N344 1.356 1_655 S
C337 C336 1.363 . S
C337 C343 1.363 . S
C338 C339 1.363 . S
C338 C343 1.379 . S
C338 N345 1.356 . S
C339 C338 1.363 . S
C339 C342 1.363 . S
N340 C342 1.356 . S
N340 H352 0.984 . S
N340 H353 0.985 . S
N341 C343 1.356 . S
N341 H346 0.984 1_655 S
N341 H347 0.985 . S
C342 C336 1.379 . S
C342 C339 1.363 . S
C342 N340 1.356 . S
C343 C337 1.363 . S
C343 C338 1.379 . S
C343 N341 1.356 . S
N344 C336 1.356 1_455 S
N344 H350 0.984 . S
N344 H351 0.984 . S
N345 C338 1.356 . S
N345 H348 0.984 . S
N345 H349 0.985 . S
H346 N341 0.984 1_455 S
H347 N341 0.985 . S
H348 N345 0.984 . S
H349 N345 0.985 . S
H350 N344 0.984 . S
H351 N344 0.984 . S
H352 N340 0.984 . S
H353 N340 0.985 . S
C354 C355 1.363 . S
C354 C360 1.379 . S
C354 N362 1.356 . S
C355 C354 1.363 . S
C355 C361 1.363 . S
C356 C357 1.363 . S
C356 C361 1.379 . S
C356 N363 1.356 . S
C357 C356 1.363 . S
C357 C360 1.363 . S
N358 C360 1.356 . S
N358 H370 0.984 . S
N358 H371 0.985 . S
N359 C361 1.356 1_545 S
N359 H364 0.984 . S
N359 H365 0.985 . S
C360 C354 1.379 . S
C360 C357 1.363 . S
C360 N358 1.356 . S
C361 C355 1.363 . S
C361 C356 1.379 . S
C361 N359 1.356 1_565 S
N362 C354 1.356 . S
N362 H368 0.984 . S
N362 H369 0.984 1_565 S
N363 C356 1.356 . S
N363 H366 0.984 . S
N363 H367 0.985 . S
H364 N359 0.984 . S
H365 N359 0.985 . S
H366 N363 0.984 . S
H367 N363 0.985 . S
H368 N362 0.984 . S
H369 N362 0.984 1_545 S
H370 N358 0.984 . S
H371 N358 0.985 . S
C372 C373 1.363 . S
C372 C378 1.379 . S
C372 N380 1.356 . S
C373 C372 1.363 . S
C373 C379 1.363 . S
C374 C375 1.363 . S
C374 C379 1.379 . S
C374 N381 1.356 . S
C375 C374 1.363 . S
C375 C378 1.363 . S
N376 C378 1.356 1_655 S
N376 H388 0.984 . S
N376 H389 0.985 . S
N377 C379 1.356 . S
N377 H382 0.984 . S
N377 H383 0.985 . S
C378 C372 1.379 . S
C378 C375 1.363 . S
C378 N376 1.356 1_455 S
C379 C373 1.363 . S
C379 C374 1.379 . S
C379 N377 1.356 . S
N380 C372 1.356 . S
N380 H386 0.984 . S
N380 H387 0.984 . S
N381 C374 1.356 . S
N381 H384 0.984 1_455 S
N381 H385 0.985 . S
H382 N377 0.984 . S
H383 N377 0.985 . S
H384 N381 0.984 1_655 S
H385 N381 0.985 . S
H386 N380 0.984 . S
H387 N380 0.984 . S
H388 N376 0.984 . S
H389 N376 0.985 . S
C390 C391 1.363 . S
C390 C396 1.379 . S
C390 N398 1.356 . S
C391 C390 1.363 . S
C391 C397 1.363 . S
C392 C393 1.363 . S
C392 C397 1.379 . S
C392 N399 1.356 1_545 S
C393 C392 1.363 . S
C393 C396 1.363 . S
N394 C396 1.356 . S
N394 H406 0.984 . S
N394 H407 0.985 1_545 S
N395 C397 1.356 . S
N395 H400 0.984 . S
N395 H401 0.985 . S
C396 C390 1.379 . S
C396 C393 1.363 . S
C396 N394 1.356 . S
C397 C391 1.363 . S
C397 C392 1.379 . S
C397 N395 1.356 . S
N398 C390 1.356 . S
N398 H404 0.984 . S
N398 H405 0.984 . S
N399 C392 1.356 1_565 S
N399 H402 0.984 . S
N399 H403 0.985 . S
H400 N395 0.984 . S
H401 N395 0.985 . S
H402 N399 0.984 . S
H403 N399 0.985 . S
H404 N398 0.984 . S
H405 N398 0.984 . S
H406 N394 0.984 . S
H407 N394 0.985 1_565 S
C408 C409 1.363 . S
C408 C414 1.379 . S
C408 N416 1.356 . S
C409 C408 1.363 . S
C409 C415 1.363 . S
C410 C411 1.363 . S
C410 C415 1.379 . S
C410 N417 1.356 . S
C411 C410 1.363 . S
C411 C414 1.363 . S
N412 C414 1.356 . S
N412 H424 0.984 . S
N412 H425 0.985 . S
N413 C415 1.356 . S
N413 H418 0.984 . S
N413 H419 0.985 . S
C414 C408 1.379 . S
C414 C411 1.363 . S
C414 N412 1.356 . S
C415 C409 1.363 . S
C415 C410 1.379 . S
C415 N413 1.356 . S
N416 C408 1.356 . S
N416 H422 0.984 . S
N416 H423 0.984 . S
N417 C410 1.356 . S
N417 H420 0.984 . S
N417 H421 0.985 . S
H418 N413 0.984 . S
H419 N413 0.985 . S
H420 N417 0.984 . S
H421 N417 0.985 . S
H422 N416 0.984 . S
H423 N416 0.984 . S
H424 N412 0.984 . S
H425 N412 0.985 . S
C426 C427 1.363 . S
C426 C432 1.379 . S
C426 N434 1.356 . S
C427 C426 1.363 . S
C427 C433 1.363 . S
C428 C429 1.363 . S
C428 C433 1.379 . S
C428 N435 1.356 . S
C429 C428 1.363 . S
C429 C432 1.363 . S
N430 C432 1.356 . S
N430 H442 0.984 . S
N430 H443 0.985 . S
N431 C433 1.356 . S
N431 H436 0.984 . S
N431 H437 0.985 . S
C432 C426 1.379 . S
C432 C429 1.363 . S
C432 N430 1.356 . S
C433 C427 1.363 . S
C433 C428 1.379 . S
C433 N431 1.356 . S
N434 C426 1.356 . S
N434 H440 0.984 . S
N434 H441 0.984 . S
N435 C428 1.356 . S
N435 H438 0.984 . S
N435 H439 0.985 . S
H436 N431 0.984 . S
H437 N431 0.985 . S
H438 N435 0.984 . S
H439 N435 0.985 . S
H440 N434 0.984 . S
H441 N434 0.984 . S
H442 N430 0.984 . S
H443 N430 0.985 . S
C444 C445 1.363 . S
C444 C450 1.379 . S
C444 N452 1.356 . S
C445 C444 1.363 . S
C445 C451 1.363 . S
C446 C447 1.363 . S
C446 C451 1.379 . S
C446 N453 1.356 . S
C447 C446 1.363 . S
C447 C450 1.363 . S
N448 C450 1.356 . S
N448 H460 0.984 . S
N448 H461 0.985 . S
N449 C451 1.356 . S
N449 H454 0.984 . S
N449 H455 0.985 . S
C450 C444 1.379 . S
C450 C447 1.363 . S
C450 N448 1.356 . S
C451 C445 1.363 . S
C451 C446 1.379 . S
C451 N449 1.356 . S
N452 C444 1.356 . S
N452 H458 0.984 . S
N452 H459 0.984 . S
N453 C446 1.356 . S
N453 H456 0.984 . S
N453 H457 0.985 . S
H454 N449 0.984 . S
H455 N449 0.985 . S
H456 N453 0.984 . S
H457 N453 0.985 . S
H458 N452 0.984 . S
H459 N452 0.984 . S
H460 N448 0.984 . S
H461 N448 0.985 . S
C462 C463 1.363 . S
C462 C468 1.379 . S
C462 N470 1.356 . S
C463 C462 1.363 . S
C463 C469 1.363 . S
C464 C465 1.363 . S
C464 C469 1.379 . S
C464 N471 1.356 . S
C465 C464 1.363 . S
C465 C468 1.363 . S
N466 C468 1.356 . S
N466 H478 0.984 . S
N466 H479 0.985 . S
N467 C469 1.356 . S
N467 H472 0.984 . S
N467 H473 0.985 . S
C468 C462 1.379 . S
C468 C465 1.363 . S
C468 N466 1.356 . S
C469 C463 1.363 . S
C469 C464 1.379 . S
C469 N467 1.356 . S
N470 C462 1.356 . S
N470 H476 0.984 . S
N470 H477 0.984 . S
N471 C464 1.356 . S
N471 H474 0.984 . S
N471 H475 0.985 . S
H472 N467 0.984 . S
H473 N467 0.985 . S
H474 N471 0.984 . S
H475 N471 0.985 . S
H476 N470 0.984 . S
H477 N470 0.984 . S
H478 N466 0.984 . S
H479 N466 0.985 . S
C480 C481 1.363 . S
C480 C486 1.379 . S
C480 N488 1.356 . S
C481 C480 1.363 . S
C481 C487 1.363 . S
C482 C483 1.363 . S
C482 C487 1.379 . S
C482 N489 1.356 . S
C483 C482 1.363 . S
C483 C486 1.363 . S
N484 C486 1.356 . S
N484 H496 0.984 . S
N484 H497 0.985 . S
N485 C487 1.356 . S
N485 H490 0.984 . S
N485 H491 0.985 . S
C486 C480 1.379 . S
C486 C483 1.363 . S
C486 N484 1.356 . S
C487 C481 1.363 . S
C487 C482 1.379 . S
C487 N485 1.356 . S
N488 C480 1.356 . S
N488 H494 0.984 . S
N488 H495 0.984 . S
N489 C482 1.356 . S
N489 H492 0.984 . S
N489 H493 0.985 . S
H490 N485 0.984 . S
H491 N485 0.985 . S
H492 N489 0.984 . S
H493 N489 0.985 . S
H494 N488 0.984 . S
H495 N488 0.984 . S
H496 N484 0.984 . S
H497 N484 0.985 . S
C498 C499 1.363 . S
C498 C504 1.379 . S
C498 N506 1.356 . S
C499 C498 1.363 . S
C499 C505 1.363 . S
C500 C501 1.363 . S
C500 C505 1.379 . S
C500 N507 1.356 . S
C501 C500 1.363 . S
C501 C504 1.363 . S
N502 C504 1.356 . S
N502 H514 0.984 . S
N502 H515 0.985 . S
N503 C505 1.356 . S
N503 H508 0.984 . S
N503 H509 0.985 . S
C504 C498 1.379 . S
C504 C501 1.363 . S
C504 N502 1.356 . S
C505 C499 1.363 . S
C505 C500 1.379 . S
C505 N503 1.356 . S
N506 C498 1.356 . S
N506 H512 0.984 . S
N506 H513 0.984 . S
N507 C500 1.356 . S
N507 H510 0.984 . S
N507 H511 0.985 . S
H508 N503 0.984 . S
H509 N503 0.985 . S
H510 N507 0.984 . S
H511 N507 0.985 . S
H512 N506 0.984 . S
H513 N506 0.984 . S
H514 N502 0.984 . S
H515 N502 0.985 . S
C516 C517 1.363 . S
C516 C522 1.379 . S
C516 N524 1.356 . S
C517 C516 1.363 . S
C517 C523 1.363 . S
C518 C519 1.363 . S
C518 C523 1.379 . S
C518 N525 1.356 . S
C519 C518 1.363 . S
C519 C522 1.363 . S
N520 C522 1.356 . S
N520 H532 0.984 . S
N520 H533 0.985 . S
N521 C523 1.356 . S
N521 H526 0.984 . S
N521 H527 0.985 . S
C522 C516 1.379 . S
C522 C519 1.363 . S
C522 N520 1.356 . S
C523 C517 1.363 . S
C523 C518 1.379 . S
C523 N521 1.356 . S
N524 C516 1.356 . S
N524 H530 0.984 . S
N524 H531 0.984 . S
N525 C518 1.356 . S
N525 H528 0.984 . S
N525 H529 0.985 . S
H526 N521 0.984 . S
H527 N521 0.985 . S
H528 N525 0.984 . S
H529 N525 0.985 . S
H530 N524 0.984 . S
H531 N524 0.984 . S
H532 N520 0.984 . S
H533 N520 0.985 . S
C534 C535 1.363 . S
C534 C540 1.379 . S
C534 N542 1.356 . S
C535 C534 1.363 . S
C535 C541 1.363 . S
C536 C537 1.363 . S
C536 C541 1.379 . S
C536 N543 1.356 . S
C537 C536 1.363 . S
C537 C540 1.363 . S
N538 C540 1.356 . S
N538 H550 0.984 . S
N538 H551 0.985 . S
N539 C541 1.356 . S
N539 H544 0.984 . S
N539 H545 0.985 . S
C540 C534 1.379 . S
C540 C537 1.363 . S
C540 N538 1.356 . S
C541 C535 1.363 . S
C541 C536 1.379 . S
C541 N539 1.356 . S
N542 C534 1.356 . S
N542 H548 0.984 . S
N542 H549 0.984 . S
N543 C536 1.356 . S
N543 H546 0.984 . S
N543 H547 0.985 . S
H544 N539 0.984 . S
H545 N539 0.985 . S
H546 N543 0.984 . S
H547 N543 0.985 . S
H548 N542 0.984 . S
H549 N542 0.984 . S
H550 N538 0.984 . S
H551 N538 0.985 . S
C552 C553 1.363 . S
C552 C558 1.379 1_655 S
C552 N560 1.356 . S
C553 C552 1.363 . S
C553 C559 1.363 1_554 S
C554 C555 1.363 1_556 S
C554 C559 1.379 1_455 S
C554 N561 1.356 . S
C555 C554 1.363 1_554 S
C555 C558 1.363 . S
N556 C558 1.356 . S
N556 H568 0.984 . S
N556 H569 0.985 . S
N557 C559 1.356 . S
N557 H562 0.984 . S
N557 H563 0.985 . S
C558 C552 1.379 1_455 S
C558 C555 1.363 . S
C558 N556 1.356 . S
C559 C553 1.363 1_556 S
C559 C554 1.379 1_655 S
C559 N557 1.356 . S
N560 C552 1.356 . S
N560 H566 0.984 . S
N560 H567 0.984 . S
N561 C554 1.356 . S
N561 H564 0.984 . S
N561 H565 0.985 . S
H562 N557 0.984 . S
H563 N557 0.985 . S
H564 N561 0.984 . S
H565 N561 0.985 . S
H566 N560 0.984 . S
H567 N560 0.984 . S
H568 N556 0.984 . S
H569 N556 0.985 . S
C570 C571 1.363 . S
C570 C576 1.379 1_545 S
C570 N578 1.356 . S
C571 C570 1.363 . S
C571 C577 1.363 1_554 S
C572 C573 1.363 1_556 S
C572 C577 1.379 1_565 S
C572 N579 1.356 . S
C573 C572 1.363 1_554 S
C573 C576 1.363 . S
N574 C576 1.356 . S
N574 H586 0.984 . S
N574 H587 0.985 . S
N575 C577 1.356 . S
N575 H580 0.984 . S
N575 H581 0.985 . S
C576 C570 1.379 1_565 S
C576 C573 1.363 . S
C576 N574 1.356 . S
C577 C571 1.363 1_556 S
C577 C572 1.379 1_545 S
C577 N575 1.356 . S
N578 C570 1.356 . S
N578 H584 0.984 . S
N578 H585 0.984 . S
N579 C572 1.356 . S
N579 H582 0.984 . S
N579 H583 0.985 . S
H580 N575 0.984 . S
H581 N575 0.985 . S
H582 N579 0.984 . S
H583 N579 0.985 . S
H584 N578 0.984 . S
H585 N578 0.984 . S
H586 N574 0.984 . S
H587 N574 0.985 . S
C588 C589 1.363 . S
C588 C594 1.379 . S
C588 N596 1.356 . S
C589 C588 1.363 . S
C589 C595 1.363 1_545 S
C590 C591 1.363 . S
C590 C595 1.379 . S
C590 N597 1.356 . S
C591 C590 1.363 . S
C591 C594 1.363 1_565 S
N592 C594 1.356 1_565 S
N592 H604 0.984 1_565 S
N592 H605 0.985 . S
N593 C595 1.356 1_545 S
N593 H598 0.984 . S
N593 H599 0.985 1_545 S
C594 C588 1.379 . S
C594 C591 1.363 1_545 S
C594 N592 1.356 1_545 S
C595 C589 1.363 1_565 S
C595 C590 1.379 . S
C595 N593 1.356 1_565 S
N596 C588 1.356 . S
N596 H602 0.984 . S
N596 H603 0.984 . S
N597 C590 1.356 . S
N597 H600 0.984 . S
N597 H601 0.985 . S
H598 N593 0.984 . S
H599 N593 0.985 1_565 S
H600 N597 0.984 . S
H601 N597 0.985 . S
H602 N596 0.984 . S
H603 N596 0.984 . S
H604 N592 0.984 1_545 S
H605 N592 0.985 . S
C606 C607 1.363 . S
C606 C612 1.379 . S
C606 N614 1.356 . S
C607 C606 1.363 . S
C607 C613 1.363 1_455 S
C608 C609 1.363 . S
C608 C613 1.379 . S
C608 N615 1.356 . S
C609 C608 1.363 . S
C609 C612 1.363 1_655 S
N610 C612 1.356 1_655 S
N610 H622 0.984 1_655 S
N610 H623 0.985 . S
N611 C613 1.356 1_455 S
N611 H616 0.984 . S
N611 H617 0.985 1_455 S
C612 C606 1.379 . S
C612 C609 1.363 1_455 S
C612 N610 1.356 1_455 S
C613 C607 1.363 1_655 S
C613 C608 1.379 . S
C613 N611 1.356 1_655 S
N614 C606 1.356 . S
N614 H620 0.984 . S
N614 H621 0.984 . S
N615 C608 1.356 . S
N615 H618 0.984 . S
N615 H619 0.985 . S
H616 N611 0.984 . S
H617 N611 0.985 1_655 S
H618 N615 0.984 . S
H619 N615 0.985 . S
H620 N614 0.984 . S
H621 N614 0.984 . S
H622 N610 0.984 1_455 S
H623 N610 0.985 . S
C265 C51 0.973 1_554 S
C267 N2 0.956 . S
C283 N35 0.956 . S
C285 C84 0.973 1_554 S
C301 N68 0.956 . S
C303 C117 0.973 1_554 S
C319 C18 0.973 1_554 S
C321 N101 0.956 . S
C337 C183 0.974 1_655 S
C339 N134 0.956 . S
C355 C216 0.974 1_565 S
C357 N167 0.956 . S
C373 N200 0.956 . S
C375 C249 0.974 1_455 S
C391 N233 0.956 . S
C393 C150 0.974 1_545 S
C409 C219 1.573 . S
C411 C7 1.555 . S
C427 C40 1.557 . S
C429 C252 1.571 . S
C445 C73 1.557 . S
C447 C153 1.571 . S
C463 C106 1.557 . S
C465 C186 1.571 . S
C481 C139 1.557 . S
C483 C87 1.575 . S
C499 C172 1.557 . S
C501 C120 1.575 . S
C517 C205 1.557 . S
C519 C21 1.575 . S
C535 C54 1.573 . S
C537 C238 1.559 . S
C553 N79 2.038 . S
C555 N13 2.038 . S
C571 N46 2.038 . S
C573 N112 2.038 . S
C589 N211 2.038 . S
C591 N145 2.038 . S
C607 N178 2.038 . S
C609 N244 2.038 . S
