# Generated by pormake.
# Topology sin, (3)-cn, num edge types: 1
# Building blocks:
#     Node 0, Type 0, BuildingBlock: OLANEW_clean_sbu_2, # of connection points: 3
#     Node 1, Type 0, BuildingBlock: OLANEW_clean_sbu_2, # of connection points: 3
#     Node 2, Type 0, BuildingBlock: OLANEW_clean_sbu_2, # of connection points: 3
#     Node 3, Type 0, BuildingBlock: OLANEW_clean_sbu_2, # of connection points: 3
#     Node 4, Type 0, BuildingBlock: OLANEW_clean_sbu_2, # of connection points: 3
#     Node 5, Type 0, BuildingBlock: OLANEW_clean_sbu_2, # of connection points: 3
#     Node 6, Type 0, BuildingBlock: OLANEW_clean_sbu_2, # of connection points: 3
#     Node 7, Type 0, BuildingBlock: OLANEW_clean_sbu_2, # of connection points: 3
#     Node 8, Type 0, BuildingBlock: OLANEW_clean_sbu_2, # of connection points: 3
#     Node 9, Type 0, BuildingBlock: OLANEW_clean_sbu_2, # of connection points: 3
#     Node 10, Type 0, BuildingBlock: OLANEW_clean_sbu_2, # of connection points: 3
#     Node 11, Type 0, BuildingBlock: OLANEW_clean_sbu_2, # of connection points: 3
#     Node 12, Type 0, BuildingBlock: OLANEW_clean_sbu_2, # of connection points: 3
#     Node 13, Type 0, BuildingBlock: OLANEW_clean_sbu_2, # of connection points: 3
#     Node 14, Type 0, BuildingBlock: OLANEW_clean_sbu_2, # of connection points: 3
#     Node 15, Type 0, BuildingBlock: OLANEW_clean_sbu_2, # of connection points: 3
#     Node 16, Type 0, BuildingBlock: OLANEW_clean_sbu_2, # of connection points: 3
#     Node 17, Type 0, BuildingBlock: OLANEW_clean_sbu_2, # of connection points: 3
#     Node 18, Type 0, BuildingBlock: OLANEW_clean_sbu_2, # of connection points: 3
#     Node 19, Type 0, BuildingBlock: OLANEW_clean_sbu_2, # of connection points: 3
#     Node 20, Type 0, BuildingBlock: OLANEW_clean_sbu_2, # of connection points: 3
#     Node 21, Type 0, BuildingBlock: OLANEW_clean_sbu_2, # of connection points: 3
#     Node 22, Type 0, BuildingBlock: OLANEW_clean_sbu_2, # of connection points: 3
#     Node 23, Type 0, BuildingBlock: OLANEW_clean_sbu_2, # of connection points: 3
#     Node 24, Type 0, BuildingBlock: OLANEW_clean_sbu_2, # of connection points: 3
#     Node 25, Type 0, BuildingBlock: OLANEW_clean_sbu_2, # of connection points: 3
#     Node 26, Type 0, BuildingBlock: OLANEW_clean_sbu_2, # of connection points: 3
#     Node 27, Type 0, BuildingBlock: OLANEW_clean_sbu_2, # of connection points: 3
#     Node 28, Type 0, BuildingBlock: OLANEW_clean_sbu_2, # of connection points: 3
#     Node 29, Type 0, BuildingBlock: OLANEW_clean_sbu_2, # of connection points: 3
#     Node 30, Type 0, BuildingBlock: OLANEW_clean_sbu_2, # of connection points: 3
#     Node 31, Type 0, BuildingBlock: OLANEW_clean_sbu_2, # of connection points: 3
#     Node 32, Type 0, BuildingBlock: OLANEW_clean_sbu_2, # of connection points: 3
#     Node 33, Type 0, BuildingBlock: OLANEW_clean_sbu_2, # of connection points: 3
#     Node 34, Type 0, BuildingBlock: OLANEW_clean_sbu_2, # of connection points: 3
#     Node 35, Type 0, BuildingBlock: OLANEW_clean_sbu_2, # of connection points: 3
#     Node 36, Type 0, BuildingBlock: OLANEW_clean_sbu_2, # of connection points: 3
#     Node 37, Type 0, BuildingBlock: OLANEW_clean_sbu_2, # of connection points: 3
#     Node 38, Type 0, BuildingBlock: OLANEW_clean_sbu_2, # of connection points: 3
#     Node 39, Type 0, BuildingBlock: OLANEW_clean_sbu_2, # of connection points: 3
#     Node 40, Type 0, BuildingBlock: OLANEW_clean_sbu_2, # of connection points: 3
#     Node 41, Type 0, BuildingBlock: OLANEW_clean_sbu_2, # of connection points: 3
#     Node 42, Type 0, BuildingBlock: OLANEW_clean_sbu_2, # of connection points: 3
#     Node 43, Type 0, BuildingBlock: OLANEW_clean_sbu_2, # of connection points: 3
#     Node 44, Type 0, BuildingBlock: OLANEW_clean_sbu_2, # of connection points: 3
#     Node 45, Type 0, BuildingBlock: OLANEW_clean_sbu_2, # of connection points: 3
#     Node 46, Type 0, BuildingBlock: OLANEW_clean_sbu_2, # of connection points: 3
#     Node 47, Type 0, BuildingBlock: OLANEW_clean_sbu_2, # of connection points: 3
#     Edge 48, Type (0, 0), BuildingBlock: XIVTED_clean_linker_0, # of connection points: 2
#     Edge 49, Type (0, 0), BuildingBlock: XIVTED_clean_linker_0, # of connection points: 2
#     Edge 50, Type (0, 0), BuildingBlock: XIVTED_clean_linker_0, # of connection points: 2
#     Edge 51, Type (0, 0), BuildingBlock: XIVTED_clean_linker_0, # of connection points: 2
#     Edge 52, Type (0, 0), BuildingBlock: XIVTED_clean_linker_0, # of connection points: 2
#     Edge 53, Type (0, 0), BuildingBlock: XIVTED_clean_linker_0, # of connection points: 2
#     Edge 54, Type (0, 0), BuildingBlock: XIVTED_clean_linker_0, # of connection points: 2
#     Edge 55, Type (0, 0), BuildingBlock: XIVTED_clean_linker_0, # of connection points: 2
#     Edge 56, Type (0, 0), BuildingBlock: XIVTED_clean_linker_0, # of connection points: 2
#     Edge 57, Type (0, 0), BuildingBlock: XIVTED_clean_linker_0, # of connection points: 2
#     Edge 58, Type (0, 0), BuildingBlock: XIVTED_clean_linker_0, # of connection points: 2
#     Edge 59, Type (0, 0), BuildingBlock: XIVTED_clean_linker_0, # of connection points: 2
#     Edge 60, Type (0, 0), BuildingBlock: XIVTED_clean_linker_0, # of connection points: 2
#     Edge 61, Type (0, 0), BuildingBlock: XIVTED_clean_linker_0, # of connection points: 2
#     Edge 62, Type (0, 0), BuildingBlock: XIVTED_clean_linker_0, # of connection points: 2
#     Edge 63, Type (0, 0), BuildingBlock: XIVTED_clean_linker_0, # of connection points: 2
#     Edge 64, Type (0, 0), BuildingBlock: XIVTED_clean_linker_0, # of connection points: 2
#     Edge 65, Type (0, 0), BuildingBlock: XIVTED_clean_linker_0, # of connection points: 2
#     Edge 66, Type (0, 0), BuildingBlock: XIVTED_clean_linker_0, # of connection points: 2
#     Edge 67, Type (0, 0), BuildingBlock: XIVTED_clean_linker_0, # of connection points: 2
#     Edge 68, Type (0, 0), BuildingBlock: XIVTED_clean_linker_0, # of connection points: 2
#     Edge 69, Type (0, 0), BuildingBlock: XIVTED_clean_linker_0, # of connection points: 2
#     Edge 70, Type (0, 0), BuildingBlock: XIVTED_clean_linker_0, # of connection points: 2
#     Edge 71, Type (0, 0), BuildingBlock: XIVTED_clean_linker_0, # of connection points: 2
#     Edge 72, Type (0, 0), BuildingBlock: XIVTED_clean_linker_0, # of connection points: 2
#     Edge 73, Type (0, 0), BuildingBlock: XIVTED_clean_linker_0, # of connection points: 2
#     Edge 74, Type (0, 0), BuildingBlock: XIVTED_clean_linker_0, # of connection points: 2
#     Edge 75, Type (0, 0), BuildingBlock: XIVTED_clean_linker_0, # of connection points: 2
#     Edge 76, Type (0, 0), BuildingBlock: XIVTED_clean_linker_0, # of connection points: 2
#     Edge 77, Type (0, 0), BuildingBlock: XIVTED_clean_linker_0, # of connection points: 2
#     Edge 78, Type (0, 0), BuildingBlock: XIVTED_clean_linker_0, # of connection points: 2
#     Edge 79, Type (0, 0), BuildingBlock: XIVTED_clean_linker_0, # of connection points: 2
#     Edge 80, Type (0, 0), BuildingBlock: XIVTED_clean_linker_0, # of connection points: 2
#     Edge 81, Type (0, 0), BuildingBlock: XIVTED_clean_linker_0, # of connection points: 2
#     Edge 82, Type (0, 0), BuildingBlock: XIVTED_clean_linker_0, # of connection points: 2
#     Edge 83, Type (0, 0), BuildingBlock: XIVTED_clean_linker_0, # of connection points: 2
#     Edge 84, Type (0, 0), BuildingBlock: XIVTED_clean_linker_0, # of connection points: 2
#     Edge 85, Type (0, 0), BuildingBlock: XIVTED_clean_linker_0, # of connection points: 2
#     Edge 86, Type (0, 0), BuildingBlock: XIVTED_clean_linker_0, # of connection points: 2
#     Edge 87, Type (0, 0), BuildingBlock: XIVTED_clean_linker_0, # of connection points: 2
#     Edge 88, Type (0, 0), BuildingBlock: XIVTED_clean_linker_0, # of connection points: 2
#     Edge 89, Type (0, 0), BuildingBlock: XIVTED_clean_linker_0, # of connection points: 2
#     Edge 90, Type (0, 0), BuildingBlock: XIVTED_clean_linker_0, # of connection points: 2
#     Edge 91, Type (0, 0), BuildingBlock: XIVTED_clean_linker_0, # of connection points: 2
#     Edge 92, Type (0, 0), BuildingBlock: XIVTED_clean_linker_0, # of connection points: 2
#     Edge 93, Type (0, 0), BuildingBlock: XIVTED_clean_linker_0, # of connection points: 2
#     Edge 94, Type (0, 0), BuildingBlock: XIVTED_clean_linker_0, # of connection points: 2
#     Edge 95, Type (0, 0), BuildingBlock: XIVTED_clean_linker_0, # of connection points: 2
#     Edge 96, Type (0, 0), BuildingBlock: XIVTED_clean_linker_0, # of connection points: 2
#     Edge 97, Type (0, 0), BuildingBlock: XIVTED_clean_linker_0, # of connection points: 2
#     Edge 98, Type (0, 0), BuildingBlock: XIVTED_clean_linker_0, # of connection points: 2
#     Edge 99, Type (0, 0), BuildingBlock: XIVTED_clean_linker_0, # of connection points: 2
#     Edge 100, Type (0, 0), BuildingBlock: XIVTED_clean_linker_0, # of connection points: 2
#     Edge 101, Type (0, 0), BuildingBlock: XIVTED_clean_linker_0, # of connection points: 2
#     Edge 102, Type (0, 0), BuildingBlock: XIVTED_clean_linker_0, # of connection points: 2
#     Edge 103, Type (0, 0), BuildingBlock: XIVTED_clean_linker_0, # of connection points: 2
#     Edge 104, Type (0, 0), BuildingBlock: XIVTED_clean_linker_0, # of connection points: 2
#     Edge 105, Type (0, 0), BuildingBlock: XIVTED_clean_linker_0, # of connection points: 2
#     Edge 106, Type (0, 0), BuildingBlock: XIVTED_clean_linker_0, # of connection points: 2
#     Edge 107, Type (0, 0), BuildingBlock: XIVTED_clean_linker_0, # of connection points: 2
#     Edge 108, Type (0, 0), BuildingBlock: XIVTED_clean_linker_0, # of connection points: 2
#     Edge 109, Type (0, 0), BuildingBlock: XIVTED_clean_linker_0, # of connection points: 2
#     Edge 110, Type (0, 0), BuildingBlock: XIVTED_clean_linker_0, # of connection points: 2
#     Edge 111, Type (0, 0), BuildingBlock: XIVTED_clean_linker_0, # of connection points: 2
#     Edge 112, Type (0, 0), BuildingBlock: XIVTED_clean_linker_0, # of connection points: 2
#     Edge 113, Type (0, 0), BuildingBlock: XIVTED_clean_linker_0, # of connection points: 2
#     Edge 114, Type (0, 0), BuildingBlock: XIVTED_clean_linker_0, # of connection points: 2
#     Edge 115, Type (0, 0), BuildingBlock: XIVTED_clean_linker_0, # of connection points: 2
#     Edge 116, Type (0, 0), BuildingBlock: XIVTED_clean_linker_0, # of connection points: 2
#     Edge 117, Type (0, 0), BuildingBlock: XIVTED_clean_linker_0, # of connection points: 2
#     Edge 118, Type (0, 0), BuildingBlock: XIVTED_clean_linker_0, # of connection points: 2
#     Edge 119, Type (0, 0), BuildingBlock: XIVTED_clean_linker_0, # of connection points: 2
# Relax obj value: 0.034
# Max RMSD: 0.037
# Mean RMSD: 0.019
data_MOF--net-sin--node1-OLANEW_clean_sbu_2--edge1-XIVTED_clean_linker_0
_symmetry_space_group_name_H-M    P1
_symmetry_Int_Tables_number       1
_symmetry_cell_setting            triclinic
loop_
_symmetry_equiv_pos_as_xyz
'x, y, z'
_cell_length_a     84.514253
_cell_length_b     84.127664
_cell_length_c     83.728509
_cell_angle_alpha  89.683849
_cell_angle_beta   89.7249
_cell_angle_gamma 89.756153
loop_
_atom_site_label
_atom_site_type_symbol
_atom_site_fract_x
_atom_site_fract_y
_atom_site_fract_z
_atom_type_partial_charge
O0 O 0.97573 0.36081 0.42324 0.0
Cd1 Cd 0.98149 0.38881 0.42813 0.0
O2 O -0.0043 0.35039 0.43648 0.0
Cd3 Cd 0.00697 0.37329 0.44067 0.0
O4 O 0.02698 0.38959 0.43916 0.0
C5 C 0.02982 0.39655 0.42595 0.0
O6 O 0.02 0.39454 0.41401 0.0
C7 C 0.98318 0.34866 0.42834 0.0
C8 C 0.95294 0.40477 0.43351 0.0
O9 O 0.95795 0.40207 0.41931 0.0
O10 O 0.96159 0.40027 0.44524 0.0
O11 O 0.93249 0.92117 0.26843 0.0
Cd12 Cd 0.92278 0.94558 0.28075 0.0
O13 O 0.95708 0.9292 0.27053 0.0
Cd14 Cd 0.98245 0.92566 0.26646 0.0
O15 O 0.0065 0.91909 0.25939 0.0
C16 C 0.01838 0.92764 0.26274 0.0
O17 O 0.0162 0.94084 0.27078 0.0
C18 C 0.9472 0.91853 0.26671 0.0
C19 C 0.92121 0.94097 0.31374 0.0
O20 O 0.90984 0.93676 0.30464 0.0
O21 O 0.93326 0.94768 0.30729 0.0
O22 O 0.68062 0.80481 0.92094 0.0
Cd23 Cd 0.67786 0.77659 0.92752 0.0
O24 O 0.67845 0.81207 0.94606 0.0
Cd25 Cd 0.66695 0.78951 0.95171 0.0
O26 O 0.64635 0.77449 0.94732 0.0
C27 C 0.63928 0.77739 0.93424 0.0
O28 O 0.64504 0.78844 0.92472 0.0
C29 C 0.6815 0.81552 0.93157 0.0
C30 C 0.70782 0.76353 0.93272 0.0
O31 O 0.70109 0.76236 0.91909 0.0
O32 O 0.70027 0.77061 0.94394 0.0
O33 O 0.70848 0.23451 0.80059 0.0
Cd34 Cd 0.70835 0.2089 0.81451 0.0
O35 O 0.68321 0.23188 0.7958 0.0
Cd36 Cd 0.65909 0.23882 0.78907 0.0
O37 O 0.6344 0.24433 0.78353 0.0
C38 C 0.62843 0.24065 0.77014 0.0
O39 O 0.63737 0.23355 0.75943 0.0
C40 C 0.69576 0.24016 0.7948 0.0
C41 C 0.72249 0.21163 0.84445 0.0
O42 O 0.73047 0.2069 0.8323 0.0
O43 O 0.70781 0.21492 0.84247 0.0
O44 O 0.97789 0.79712 0.24827 0.0
Cd45 Cd 0.98244 0.76876 0.2436 0.0
O46 O 0.98136 0.80357 0.22299 0.0
Cd47 Cd -0.00587 0.78126 0.21929 0.0
O48 O 0.01536 0.76781 0.22583 0.0
C49 C 0.02144 0.77189 0.23905 0.0
O50 O 0.0144 0.78304 0.24744 0.0
C51 C 0.97726 0.80741 0.23709 0.0
C52 C 0.95353 0.753 0.24106 0.0
O53 O 0.96081 0.75368 0.25443 0.0
O54 O 0.96 0.7596 0.22886 0.0
O55 O 0.71348 0.93309 0.89479 0.0
Cd56 Cd 0.71582 0.9591 0.88196 0.0
O57 O 0.68786 0.93735 0.89444 0.0
Cd58 Cd 0.66367 0.93006 0.90016 0.0
O59 O 0.64148 0.92003 0.90894 0.0
C60 C 0.62886 0.92825 0.90984 0.0
O61 O 0.62909 0.94319 0.90521 0.0
C62 C 0.69951 0.9282 0.89742 0.0
C63 C 0.71903 0.95462 0.84912 0.0
O64 O 0.73118 0.95687 0.8579 0.0
O65 O 0.70535 0.95483 0.8558 0.0
O66 O 0.69818 0.36431 0.76771 0.0
Cd67 Cd 0.69745 0.39331 0.76601 0.0
O68 O 0.67386 0.36034 0.75942 0.0
Cd69 Cd 0.66739 0.38552 0.75963 0.0
O70 O 0.65103 0.40475 0.76579 0.0
C71 C 0.6431 0.41197 0.75511 0.0
O72 O 0.64565 0.40851 0.74003 0.0
C73 C 0.68715 0.35484 0.76393 0.0
C74 C 0.72626 0.40424 0.75388 0.0
O75 O 0.72454 0.40096 0.76875 0.0
O76 O 0.71427 0.40263 0.74472 0.0
O77 O 0.93779 0.23902 0.38303 0.0
Cd78 Cd 0.92906 0.21435 0.37062 0.0
O79 O 0.9618 0.2301 0.3876 0.0
Cd80 Cd 0.98672 0.23266 0.39429 0.0
O81 O 0.01142 0.2376 0.40009 0.0
C82 C 0.01495 0.2442 0.41321 0.0
O83 O 0.00359 0.24778 0.42335 0.0
C84 C 0.9516 0.24125 0.38848 0.0
C85 C 0.92136 0.21936 0.33859 0.0
O86 O 0.91149 0.22261 0.34978 0.0
O87 O 0.93489 0.21363 0.34249 0.0
O88 O 0.41795 0.98054 0.36092 0.0
Cd89 Cd 0.42697 0.98625 0.38798 0.0
O90 O 0.42988 0.00126 0.35023 0.0
Cd91 Cd 0.43511 0.01257 0.37302 0.0
O92 O 0.43366 0.03284 0.38921 0.0
C93 C 0.42029 0.03622 0.39535 0.0
O94 O 0.40824 0.02681 0.39259 0.0
C95 C 0.42193 0.98857 0.34864 0.0
C96 C 0.43419 0.95782 0.40377 0.0
O97 O 0.42058 0.9644 0.40541 0.0
O98 O 0.44444 0.96479 0.39488 0.0
O99 O 0.22608 0.80153 0.71652 0.0
Cd100 Cd 0.2029 0.81901 0.71555 0.0
O101 O 0.2212 0.79571 0.69158 0.0
Cd102 Cd 0.22664 0.78583 0.668 0.0
O103 O 0.23322 0.77758 0.64416 0.0
C104 C 0.23792 0.76341 0.64183 0.0
O105 O 0.23869 0.75352 0.65401 0.0
C106 C 0.22977 0.79398 0.70393 0.0
C107 C 0.20846 0.84859 0.72934 0.0
O108 O 0.20214 0.83728 0.73743 0.0
O109 O 0.2122 0.8459 0.71475 0.0
O110 O 0.23841 0.19152 0.85087 0.0
Cd111 Cd 0.2285 0.18842 0.87817 0.0
O112 O 0.22702 0.16999 0.84162 0.0
Cd113 Cd 0.22091 0.16051 0.86517 0.0
O114 O 0.22221 0.14113 0.8826 0.0
C115 C 0.23581 0.13744 0.88792 0.0
O116 O 0.24803 0.14606 0.88356 0.0
C117 C 0.235 0.18256 0.83921 0.0
C118 C 0.22614 0.21839 0.89221 0.0
O119 O 0.23836 0.2096 0.89446 0.0
O120 O 0.21494 0.2129 0.8836 0.0
O121 O 0.43932 0.35638 0.20322 0.0
Cd122 Cd 0.46223 0.3386 0.20164 0.0
O123 O 0.44567 0.36607 0.17971 0.0
Cd124 Cd 0.44158 0.37967 0.15765 0.0
O125 O 0.43665 0.39197 0.13509 0.0
C126 C 0.42672 0.40335 0.13454 0.0
O127 O 0.41955 0.40778 0.14776 0.0
C128 C 0.43639 0.36586 0.19173 0.0
C129 C 0.45714 0.30997 0.21786 0.0
O130 O 0.46398 0.32165 0.22471 0.0
O131 O 0.4527 0.31183 0.20335 0.0
O132 O 0.42323 0.18608 0.32122 0.0
Cd133 Cd 0.4342 0.17976 0.29491 0.0
O134 O 0.43643 0.16709 0.33355 0.0
Cd135 Cd 0.44389 0.15555 0.31147 0.0
O136 O 0.44292 0.1355 0.29507 0.0
C137 C 0.42977 0.13273 0.28836 0.0
O138 O 0.41791 0.1426 0.29075 0.0
C139 C 0.42719 0.17904 0.33409 0.0
C140 C 0.43989 0.20759 0.27751 0.0
O141 O 0.4269 0.19996 0.27593 0.0
O142 O 0.45023 0.20198 0.28719 0.0
O143 O 0.43928 0.8043 0.46759 0.0
Cd144 Cd 0.46211 0.82205 0.46841 0.0
O145 O 0.44422 0.79844 0.4926 0.0
Cd146 Cd 0.43887 0.78845 0.51624 0.0
O147 O 0.43237 0.78024 0.54019 0.0
C148 C 0.42797 0.76602 0.54277 0.0
O149 O 0.42746 0.75603 0.53078 0.0
C150 C 0.4357 0.79667 0.48024 0.0
C151 C 0.45578 0.85173 0.45476 0.0
O152 O 0.46228 0.84063 0.44658 0.0
O153 O 0.45222 0.84879 0.46937 0.0
O154 O 0.24258 0.97921 0.82052 0.0
Cd155 Cd 0.23367 0.98429 0.79322 0.0
O156 O 0.23077 0.0004 0.83034 0.0
Cd157 Cd 0.2254 0.01092 0.80708 0.0
O158 O 0.22678 0.03043 0.78979 0.0
C159 C 0.24031 0.0339 0.78411 0.0
O160 O 0.25253 0.02502 0.78805 0.0
C161 C 0.23867 0.98768 0.83246 0.0
C162 C 0.22793 0.95551 0.77788 0.0
O163 O 0.24126 0.96257 0.77629 0.0
O164 O 0.21728 0.96215 0.78653 0.0
O165 O 0.24678 0.37311 0.94657 0.0
Cd166 Cd 0.22046 0.36134 0.94441 0.0
O167 O 0.24294 0.37249 0.97247 0.0
Cd168 Cd 0.2495 0.3778 -0.00288 0.0
O169 O 0.25518 0.38416 0.02171 0.0
C170 C 0.25488 0.39862 0.02602 0.0
O171 O 0.25117 0.40965 0.01549 0.0
C172 C 0.25183 0.37567 0.96058 0.0
C173 C 0.22155 0.33022 0.93305 0.0
O174 O 0.21901 0.34196 0.92357 0.0
O175 O 0.22363 0.33319 0.94789 0.0
O176 O 0.37204 0.40874 0.98145 0.0
Cd177 Cd 0.39909 0.41713 0.98747 0.0
O178 O 0.36249 0.43311 0.9811 0.0
Cd179 Cd 0.38362 0.44142 -0.00664 0.0
O180 O 0.39763 0.43951 0.01518 0.0
C181 C 0.39119 0.44413 0.0281 0.0
O182 O 0.37713 0.45083 0.02749 0.0
C183 C 0.3606 0.41829 0.97889 0.0
C184 C 0.41663 0.42259 0.95961 0.0
O185 O 0.41696 0.40903 0.96666 0.0
O186 O 0.40804 0.43358 0.96574 0.0
O187 O 0.8466 0.24835 0.19838 0.0
Cd188 Cd 0.87491 0.24311 0.19521 0.0
O189 O 0.83867 0.23783 0.17579 0.0
Cd190 Cd 0.86243 0.23363 0.16632 0.0
O191 O 0.87912 0.2358 0.14642 0.0
C192 C 0.88236 0.24979 0.14164 0.0
O193 O 0.87643 0.26193 0.1495 0.0
C194 C 0.83549 0.2446 0.18897 0.0
C195 C 0.88806 0.23852 0.22543 0.0
O196 O 0.88599 0.25251 0.21968 0.0
O197 O 0.88424 0.22663 0.21678 0.0
O198 O 0.79954 0.7043 0.25971 0.0
Cd199 Cd 0.81448 0.69267 0.23755 0.0
O200 O 0.77639 0.69498 0.25239 0.0
Cd201 Cd 0.78538 0.67989 0.23322 0.0
O202 O 0.78405 0.6549 0.22643 0.0
C203 C 0.77035 0.64941 0.22366 0.0
O204 O 0.75825 0.65927 0.22353 0.0
C205 C 0.78468 0.70318 0.2619 0.0
C206 C 0.84546 0.70419 0.23717 0.0
O207 O 0.83464 0.71079 0.22872 0.0
O208 O 0.84167 0.69206 0.24567 0.0
O209 O 0.77065 0.90313 0.70482 0.0
Cd210 Cd 0.74269 0.9107 0.70513 0.0
O211 O 0.77699 0.92504 0.69192 0.0
Cd212 Cd 0.75268 0.92962 0.68437 0.0
O213 O 0.73563 0.92736 0.66497 0.0
C214 C 0.7322 0.93924 0.65619 0.0
O215 O 0.73799 0.95323 0.65979 0.0
C216 C 0.78116 0.91245 0.69928 0.0
C217 C 0.73469 0.92194 0.73538 0.0
O218 O 0.73178 0.90755 0.73143 0.0
O219 O 0.74112 0.93108 0.72495 0.0
O220 O 0.37186 0.94827 0.23812 0.0
Cd221 Cd 0.35789 0.94552 0.2128 0.0
O222 O 0.37668 0.97289 0.23108 0.0
Cd223 Cd 0.3842 -0.00257 0.23508 0.0
O224 O 0.39086 0.02182 0.24073 0.0
C225 C 0.40481 0.02509 0.24522 0.0
O226 O 0.41533 0.0136 0.24629 0.0
C227 C 0.37794 0.96167 0.24127 0.0
C228 C 0.32741 0.93355 0.21708 0.0
O229 O 0.33902 0.92431 0.21366 0.0
O230 O 0.33021 0.94844 0.21849 0.0
O231 O 0.3213 0.74204 0.48419 0.0
Cd232 Cd 0.29521 0.73029 0.4887 0.0
O233 O 0.33197 0.72915 0.5044 0.0
Cd234 Cd 0.30938 0.72139 0.51441 0.0
O235 O 0.29207 0.72279 0.53382 0.0
C236 C 0.28442 0.73572 0.53544 0.0
O237 O 0.2864 0.74706 0.52477 0.0
C238 C 0.33342 0.73834 0.49238 0.0
C239 C 0.27931 0.72553 0.45996 0.0
O240 O 0.27691 0.7381 0.46823 0.0
O241 O 0.28917 0.7152 0.46531 0.0
O242 O 0.80185 0.4679 0.43046 0.0
Cd243 Cd 0.81367 0.46113 0.45622 0.0
O244 O 0.7942 0.49174 0.43784 0.0
Cd245 Cd 0.78203 0.51464 0.43473 0.0
O246 O 0.77073 0.53772 0.43042 0.0
C247 C 0.77366 0.54952 0.43934 0.0
O248 O 0.78349 0.54765 0.45132 0.0
C249 C 0.79517 0.48107 0.42716 0.0
C250 C 0.84423 0.44914 0.4519 0.0
O251 O 0.83207 0.44027 0.45021 0.0
O252 O 0.842 0.46369 0.4558 0.0
O253 O 0.86586 0.71536 0.92566 0.0
Cd254 Cd 0.85051 0.71447 0.95048 0.0
O255 O 0.87279 0.69085 0.93114 0.0
Cd256 Cd 0.88277 0.6673 0.92622 0.0
O257 O 0.89099 0.6432 0.92103 0.0
C258 C 0.90551 0.64022 0.91832 0.0
O259 O 0.91577 0.6519 0.9187 0.0
C260 C 0.87344 0.70286 0.92184 0.0
C261 C 0.81931 0.72463 0.94637 0.0
O262 O 0.82995 0.7342 0.95133 0.0
O263 O 0.82342 0.71029 0.9433 0.0
O264 O 0.46391 0.83987 0.94017 0.0
Cd265 Cd 0.4655 0.86573 0.95325 0.0
O266 O 0.48789 0.8418 0.92997 0.0
Cd267 Cd 0.49421 0.86522 0.9389 0.0
O268 O 0.514 0.88181 0.93895 0.0
C269 C 0.52741 0.87541 0.9415 0.0
O270 O 0.52799 0.86014 0.94485 0.0
C271 C 0.47516 0.83402 0.93193 0.0
C272 C 0.43591 0.88043 0.95553 0.0
O273 O 0.4453 0.88356 0.94387 0.0
O274 O 0.44052 0.87036 0.96609 0.0
O275 O 0.48014 0.41947 0.80932 0.0
Cd276 Cd 0.49081 0.44002 0.8267 0.0
O277 O 0.49069 0.42825 0.78687 0.0
Cd278 Cd 0.50608 0.4459 0.79769 0.0
O279 O 0.53151 0.45032 0.7961 0.0
C280 C 0.53699 0.45359 0.78231 0.0
O281 O 0.52702 0.45568 0.77048 0.0
C282 C 0.48191 0.41841 0.79428 0.0
C283 C 0.47639 0.43778 0.85674 0.0
O284 O 0.47089 0.44715 0.84597 0.0
O285 O 0.48884 0.42968 0.85339 0.0
O286 O 0.18822 0.32073 0.4199 0.0
Cd287 Cd 0.18537 0.2924 0.42586 0.0
O288 O 0.16307 0.32472 0.41433 0.0
Cd289 Cd 0.15437 0.30087 0.41972 0.0
O290 O 0.13446 0.28437 0.42041 0.0
C291 C 0.12385 0.28637 0.43103 0.0
O292 O 0.12588 0.29744 0.44183 0.0
C293 C 0.17711 0.32994 0.41542 0.0
C294 C 0.21506 0.27915 0.43211 0.0
O295 O 0.21015 0.28104 0.41776 0.0
O296 O 0.20585 0.28328 0.44356 0.0
O297 O 0.20437 0.73109 0.31261 0.0
Cd298 Cd 0.20695 0.70598 0.32721 0.0
O299 O 0.17978 0.72499 0.30718 0.0
Cd300 Cd 0.1565 0.72898 0.29633 0.0
O301 O 0.13297 0.7358 0.28784 0.0
C302 C 0.12755 0.73114 0.27453 0.0
O303 O 0.13631 0.72185 0.26549 0.0
C304 C 0.19118 0.7348 0.30636 0.0
C305 C 0.22242 0.71015 0.35627 0.0
O306 O 0.23006 0.70578 0.34376 0.0
O307 O 0.20748 0.71249 0.35504 0.0
O308 O 0.46793 0.30105 0.7556 0.0
Cd309 Cd 0.47066 0.27274 0.7498 0.0
O310 O 0.47922 0.30948 0.73343 0.0
Cd311 Cd 0.48942 0.28605 0.72893 0.0
O312 O 0.5108 0.27199 0.73316 0.0
C313 C 0.51645 0.27305 0.74715 0.0
O314 O 0.50863 0.2814 0.75784 0.0
C315 C 0.47173 0.31242 0.74629 0.0
C316 C 0.44113 0.26138 0.74071 0.0
O317 O 0.44484 0.26263 0.75546 0.0
O318 O 0.45153 0.26513 0.73017 0.0
O319 O 0.21348 0.44066 0.36522 0.0
Cd320 Cd 0.21854 0.46536 0.35058 0.0
O321 O 0.18941 0.44938 0.36968 0.0
Cd322 Cd 0.16534 0.44831 0.37948 0.0
O323 O 0.1409 0.44384 0.38676 0.0
C324 C 0.13775 0.43809 0.40047 0.0
O325 O 0.1494 0.43513 0.4104 0.0
C326 C 0.19975 0.43841 0.37105 0.0
C327 C 0.23194 0.45964 0.32061 0.0
O328 O 0.24064 0.4629 0.33265 0.0
O329 O 0.21693 0.45909 0.32274 0.0
O330 O 0.19048 0.84983 0.24921 0.0
Cd331 Cd 0.18836 0.87588 0.23631 0.0
O332 O 0.1659 0.84993 0.25804 0.0
Cd333 Cd 0.1585 0.87314 0.24895 0.0
O334 O 0.1381 0.88904 0.24696 0.0
C335 C 0.12609 0.88344 0.2399 0.0
O336 O 0.12719 0.86932 0.23335 0.0
C337 C 0.17925 0.84304 0.25671 0.0
C338 C 0.2183 0.88899 0.23145 0.0
O339 O 0.21004 0.89257 0.24381 0.0
O340 O 0.21234 0.87934 0.22135 0.0
O341 O 0.45567 0.72218 0.87508 0.0
Cd342 Cd 0.45437 0.69753 0.85985 0.0
O343 O 0.48103 0.71789 0.87866 0.0
Cd344 Cd 0.50462 0.72337 0.88794 0.0
O345 O 0.52812 0.73186 0.89457 0.0
C346 C 0.53454 0.72835 0.90784 0.0
O347 O 0.52689 0.71922 0.91802 0.0
C348 C 0.4689 0.72672 0.88055 0.0
C349 C 0.43999 0.70253 0.83028 0.0
O350 O 0.43196 0.6976 0.84234 0.0
O351 O 0.45481 0.70502 0.83218 0.0
O352 O 0.93296 0.4792 0.84401 0.0
Cd353 Cd 0.94349 0.48328 0.87081 0.0
O354 O 0.94502 0.49983 0.83332 0.0
Cd355 Cd 0.9516 0.50998 0.85626 0.0
O356 O 0.94898 0.52983 0.87278 0.0
C357 C 0.93535 0.53214 0.87883 0.0
O358 O 0.92407 0.52189 0.87582 0.0
C359 C 0.93651 0.48751 0.83178 0.0
C360 C 0.94647 0.45401 0.88645 0.0
O361 O 0.93413 0.4627 0.88843 0.0
O362 O 0.95747 0.45926 0.87728 0.0
O363 O 0.72351 0.29843 0.21552 0.0
Cd364 Cd 0.70029 0.31585 0.21557 0.0
O365 O 0.7196 0.29453 0.19001 0.0
Cd366 Cd 0.72587 0.28695 0.16578 0.0
O367 O 0.73272 0.28059 0.14143 0.0
C368 C 0.73599 0.26631 0.13771 0.0
O369 O 0.73515 0.25518 0.14876 0.0
C370 C 0.72782 0.29203 0.20248 0.0
C371 C 0.70778 0.34604 0.2269 0.0
O372 O 0.7019 0.33545 0.23623 0.0
O373 O 0.71005 0.34239 0.21223 0.0
O374 O 0.75507 0.71923 0.38308 0.0
Cd375 Cd 0.75279 0.71546 0.41198 0.0
O376 O 0.73636 0.70238 0.37662 0.0
Cd377 Cd 0.73488 0.69178 0.40045 0.0
O378 O 0.73869 0.66961 0.41369 0.0
C379 C 0.73336 0.65714 0.40715 0.0
O380 O 0.72532 0.6586 0.39382 0.0
C381 C 0.74648 0.71279 0.37253 0.0
C382 C 0.74478 0.74415 0.42659 0.0
O383 O 0.75906 0.74108 0.42242 0.0
O384 O 0.73421 0.73359 0.42406 0.0
O385 O 0.89502 0.85991 0.68499 0.0
Cd386 Cd 0.91875 0.84638 0.67516 0.0
O387 O 0.90059 0.88336 0.67464 0.0
Cd388 Cd 0.92122 0.87601 0.66064 0.0
O389 O 0.93171 0.87924 0.63692 0.0
C390 C 0.93667 0.89303 0.63324 0.0
O391 O 0.9366 0.90411 0.64424 0.0
C392 C 0.89159 0.87451 0.683 0.0
C393 C 0.92268 0.8177 0.6917 0.0
O394 O 0.92954 0.83041 0.69637 0.0
O395 O 0.91419 0.81851 0.67908 0.0
O396 O 0.91934 0.69479 0.80271 0.0
Cd397 Cd 0.92844 0.68955 0.77543 0.0
O398 O 0.93309 0.67494 0.8129 0.0
Cd399 Cd 0.93912 0.66436 0.78991 0.0
O400 O 0.9379 0.644 0.77387 0.0
C401 C 0.92431 0.63999 0.7689 0.0
O402 O 0.91203 0.64885 0.77269 0.0
C403 C 0.92409 0.68694 0.81482 0.0
C404 C 0.92754 0.71695 0.75642 0.0
O405 O 0.91586 0.70728 0.75681 0.0
O406 O 0.93965 0.71366 0.765 0.0
O407 O 0.9361 0.3007 0.9525 0.0
Cd408 Cd 0.96038 0.31643 0.95183 0.0
O409 O 0.94056 0.2973 0.97802 0.0
Cd410 Cd 0.93468 0.29033 0.0026 0.0
O411 O 0.92802 0.28516 0.02733 0.0
C412 C 0.92652 0.27097 0.03239 0.0
O413 O 0.92909 0.25915 0.02251 0.0
C414 C 0.93196 0.29478 0.96587 0.0
C415 C 0.95656 0.34602 0.93707 0.0
O416 O 0.96165 0.334 0.92921 0.0
O417 O 0.95314 0.34402 0.95188 0.0
O418 O 0.75318 0.48262 0.3061 0.0
Cd419 Cd 0.74461 0.48434 0.27829 0.0
O420 O 0.76299 0.50682 0.30645 0.0
Cd421 Cd 0.75898 0.51293 0.2814 0.0
O422 O 0.76214 0.53049 0.26234 0.0
C423 C 0.75061 0.53888 0.25739 0.0
O424 O 0.73635 0.53597 0.26298 0.0
C425 C 0.75985 0.49383 0.3136 0.0
C426 C 0.73674 0.45441 0.26653 0.0
O427 O 0.75052 0.46028 0.26412 0.0
O428 O 0.72667 0.46271 0.2744 0.0
O429 O 0.74879 0.89178 0.48482 0.0
Cd430 Cd 0.7226 0.88038 0.48925 0.0
O431 O 0.74761 0.91199 0.50142 0.0
Cd432 Cd 0.72507 0.90621 0.51284 0.0
O433 O 0.71465 0.90814 0.5367 0.0
C434 C 0.71198 0.92205 0.54197 0.0
O435 O 0.71404 0.93424 0.53231 0.0
C436 C 0.755 0.90408 0.49084 0.0
C437 C 0.72284 0.8503 0.47533 0.0
O438 O 0.72033 0.86285 0.46697 0.0
O439 O 0.72474 0.85187 0.49042 0.0
O440 O 0.87843 0.91256 0.46635 0.0
Cd441 Cd 0.90712 0.91131 0.46309 0.0
O442 O 0.87833 0.92861 0.487 0.0
Cd443 Cd 0.90351 0.92545 0.49194 0.0
O444 O 0.91939 0.91739 0.51089 0.0
C445 C 0.92415 0.92727 0.52122 0.0
O446 O 0.92064 0.94239 0.51931 0.0
C447 C 0.87086 0.92102 0.47636 0.0
C448 C 0.91379 0.91683 0.43088 0.0
O449 O 0.91057 0.90285 0.43606 0.0
O450 O 0.91433 0.92818 0.44101 0.0
O451 O 0.34498 0.74 0.70059 0.0
Cd452 Cd 0.37122 0.72834 0.69628 0.0
O453 O 0.33469 0.72765 0.68002 0.0
Cd454 Cd 0.35746 0.72021 0.67011 0.0
O455 O 0.37472 0.72208 0.65069 0.0
C456 C 0.38133 0.73548 0.64856 0.0
O457 O 0.37834 0.74696 0.65873 0.0
C458 C 0.333 0.73651 0.69218 0.0
C459 C 0.38641 0.72218 0.72523 0.0
O460 O 0.38894 0.73512 0.7175 0.0
O461 O 0.37677 0.71214 0.71926 0.0
O462 O 0.28475 0.22057 0.72731 0.0
Cd463 Cd 0.29869 0.22772 0.7027 0.0
O464 O 0.28278 0.19541 0.72087 0.0
Cd465 Cd 0.2778 0.17031 0.72577 0.0
O466 O 0.27277 0.14577 0.73276 0.0
C467 C 0.25868 0.14146 0.73588 0.0
O468 O 0.24716 0.15192 0.73467 0.0
C469 C 0.28027 0.20658 0.73078 0.0
C470 C 0.33003 0.23506 0.70972 0.0
O471 O 0.31895 0.24537 0.7114 0.0
O472 O 0.32637 0.22129 0.70446 0.0
O473 O 0.32218 0.42085 0.18812 0.0
Cd474 Cd 0.29605 0.43282 0.18419 0.0
O475 O 0.33343 0.43627 0.1701 0.0
Cd476 Cd 0.31095 0.4437 0.1597 0.0
O477 O 0.29535 0.4404 0.13927 0.0
C478 C 0.2922 0.42608 0.13578 0.0
O479 O 0.29748 0.41467 0.14515 0.0
C480 C 0.33459 0.42578 0.18103 0.0
C481 C 0.28163 0.4393 0.21353 0.0
O482 O 0.2786 0.42645 0.206 0.0
O483 O 0.29136 0.44912 0.20714 0.0
O484 O 0.87931 0.44989 0.72443 0.0
Cd485 Cd 0.86336 0.44307 0.70122 0.0
O486 O 0.8814 0.47499 0.7175 0.0
Cd487 Cd 0.88717 0.50004 0.72146 0.0
O488 O 0.89226 0.52491 0.72677 0.0
C489 C 0.90636 0.52952 0.72915 0.0
O490 O 0.91797 0.51912 0.72828 0.0
C491 C 0.88438 0.46377 0.72732 0.0
C492 C 0.83311 0.43427 0.71129 0.0
O493 O 0.8446 0.42428 0.71133 0.0
O494 O 0.83583 0.44841 0.70624 0.0
O495 O 0.81625 0.24373 0.97508 0.0
Cd496 Cd 0.78983 0.23274 0.97963 0.0
O497 O 0.8261 0.23244 -0.00336 0.0
Cd498 Cd 0.80324 0.22565 0.00677 0.0
O499 O 0.78646 0.22738 0.02663 0.0
C500 C 0.78127 0.24117 0.02999 0.0
O501 O 0.78535 0.25319 0.02079 0.0
C502 C 0.82805 0.24056 0.98393 0.0
C503 C 0.77422 0.22776 0.95076 0.0
O504 O 0.77205 0.24057 0.95871 0.0
O505 O 0.78369 0.21728 0.9565 0.0
O506 O 0.28673 0.95166 0.94556 0.0
Cd507 Cd 0.30078 0.94873 0.97086 0.0
O508 O 0.28335 0.97682 0.95133 0.0
Cd509 Cd 0.27709 0.0016 0.94603 0.0
O510 O 0.2716 0.02609 0.93913 0.0
C511 C 0.25755 0.03023 0.9356 0.0
O512 O 0.24624 0.01958 0.93627 0.0
C513 C 0.28137 0.9653 0.94176 0.0
C514 C 0.32983 0.9333 0.96702 0.0
O515 O 0.3174 0.92554 0.97104 0.0
O516 O 0.32852 0.94834 0.96481 0.0
O517 O 0.37004 0.22398 0.43939 0.0
Cd518 Cd 0.35617 0.2329 0.46342 0.0
O519 O 0.37336 0.19966 0.44848 0.0
Cd520 Cd 0.37992 0.17453 0.44602 0.0
O521 O 0.38585 0.14975 0.44079 0.0
C522 C 0.39991 0.14573 0.43711 0.0
O523 O 0.41098 0.15665 0.43671 0.0
C524 C 0.37535 0.20996 0.43746 0.0
C525 C 0.32505 0.24186 0.45673 0.0
O526 O 0.33659 0.25138 0.45418 0.0
O527 O 0.32817 0.22806 0.46251 0.0
H528 H 0.94253 0.42068 0.46006 0.0
H529 H 0.85279 0.42363 0.43379 0.0
H530 H 0.92778 0.40572 0.41324 0.0
H531 H 0.87223 0.46017 0.46379 0.0
H532 H 0.87959 0.41341 0.42908 0.0
H533 H 0.91607 0.43208 0.46456 0.0
C534 C 0.93374 0.41982 0.45074 0.0
C535 C 0.93733 0.41228 0.43625 0.0
C536 C 0.87795 0.42367 0.43667 0.0
C537 C 0.90713 0.42495 0.44144 0.0
C538 C 0.8627 0.42945 0.43944 0.0
C539 C 0.86032 0.44278 0.44918 0.0
C540 C 0.89088 0.43102 0.44399 0.0
C541 C 0.87358 0.44991 0.45614 0.0
C542 C 0.91871 0.42636 0.45329 0.0
C543 C 0.92553 0.41151 0.42455 0.0
N544 N 0.88832 0.44386 0.45353 0.0
N545 N 0.91089 0.41761 0.42746 0.0
H546 H 0.90603 0.89746 0.40609 0.0
H547 H 0.93927 0.95418 0.33729 0.0
H548 H 0.92645 0.94321 0.41635 0.0
H549 H 0.90186 0.92033 0.32968 0.0
H550 H 0.93821 0.94816 0.36599 0.0
H551 H 0.90823 0.90334 0.37753 0.0
C552 C 0.9111 0.90869 0.40234 0.0
C553 C 0.91603 0.91989 0.41361 0.0
C554 C 0.93024 0.9421 0.358 0.0
C555 C 0.9186 0.92664 0.38097 0.0
C556 C 0.93084 0.94549 0.34165 0.0
C557 C 0.92059 0.93777 0.33111 0.0
C558 C 0.91952 0.9307 0.36376 0.0
C559 C 0.90991 0.92662 0.33739 0.0
C560 C 0.91226 0.91207 0.38605 0.0
C561 C 0.92245 0.93427 0.40805 0.0
N562 N 0.90972 0.92334 0.3533 0.0
N563 N 0.9236 0.93723 0.3921 0.0
H564 H 0.72806 0.77048 0.95705 0.0
H565 H 0.79574 0.71009 0.92964 0.0
H566 H 0.72443 0.74245 0.91422 0.0
H567 H 0.80514 0.75125 0.95858 0.0
H568 H 0.76833 0.71917 0.92651 0.0
H569 H 0.75518 0.76079 0.96057 0.0
C570 C 0.73293 0.76221 0.94844 0.0
C571 C 0.72399 0.75728 0.9353 0.0
C572 C 0.77642 0.7262 0.93353 0.0
C573 C 0.75495 0.74611 0.93932 0.0
C574 C 0.79203 0.72101 0.93536 0.0
C575 C 0.80273 0.72995 0.94436 0.0
C576 C 0.77142 0.74027 0.94097 0.0
C577 C 0.7973 0.74403 0.95148 0.0
C578 C 0.74843 0.75676 0.95041 0.0
C579 C 0.73093 0.7466 0.92448 0.0
N580 N 0.78199 0.74872 0.94971 0.0
N581 N 0.74599 0.74131 0.92676 0.0
H582 H 0.75137 0.20038 0.85413 0.0
H583 H 0.74938 0.24455 0.93815 0.0
H584 H 0.71086 0.22713 0.87068 0.0
H585 H 0.78081 0.20523 0.92819 0.0
H586 H 0.73651 0.24032 0.9124 0.0
H587 H 0.7638 0.20399 0.8802 0.0
C588 C 0.74509 0.20701 0.86324 0.0
C589 C 0.73005 0.21346 0.86023 0.0
C590 C 0.74619 0.23259 0.91589 0.0
C591 C 0.74426 0.21774 0.89001 0.0
C592 C 0.75357 0.23503 0.93055 0.0
C593 C 0.76618 0.22522 0.93533 0.0
C594 C 0.7516 0.22041 0.90581 0.0
C595 C 0.7711 0.21304 0.92501 0.0
C596 C 0.75217 0.20901 0.87813 0.0
C597 C 0.72244 0.22191 0.8725 0.0
N598 N 0.76386 0.21104 0.91069 0.0
N599 N 0.72967 0.22389 0.88682 0.0
H600 H 0.86961 0.69617 0.2574 0.0
H601 H 0.9328 0.75393 0.21602 0.0
H602 H 0.85845 0.72673 0.21739 0.0
H603 H 0.93876 0.73414 0.26329 0.0
H604 H 0.90673 0.74149 0.2146 0.0
H605 H 0.89624 0.70743 0.25799 0.0
C606 C 0.87277 0.7052 0.24869 0.0
C607 C 0.86176 0.71055 0.23735 0.0
C608 C 0.91376 0.73986 0.22527 0.0
C609 C 0.89225 0.72343 0.23794 0.0
C610 C 0.92867 0.74691 0.22608 0.0
C611 C 0.93796 0.74511 0.23982 0.0
C612 C 0.90817 0.73079 0.23824 0.0
C613 C 0.93197 0.7359 0.25249 0.0
C614 C 0.88796 0.71165 0.24907 0.0
C615 C 0.86653 0.7223 0.22638 0.0
N616 N 0.91747 0.72906 0.25138 0.0
N617 N 0.88142 0.72832 0.22693 0.0
H618 H 0.74436 0.96103 0.8297 0.0
H619 H 0.7143 0.90917 0.7574 0.0
H620 H 0.69773 0.94034 0.82945 0.0
H621 H 0.74735 0.9476 0.7505 0.0
H622 H 0.7097 0.9182 0.78482 0.0
H623 H 0.74744 0.95405 0.80146 0.0
C624 C 0.73476 0.95508 0.82368 0.0
C625 C 0.72077 0.95126 0.8319 0.0
C626 C 0.71787 0.9247 0.77724 0.0
C627 C 0.72431 0.94305 0.79978 0.0
C628 C 0.72055 0.91953 0.76164 0.0
C629 C 0.73122 0.92766 0.75168 0.0
C630 C 0.72619 0.93787 0.78302 0.0
C631 C 0.73897 0.94103 0.75777 0.0
C632 C 0.7365 0.95116 0.80759 0.0
C633 C 0.70868 0.94356 0.82354 0.0
N634 N 0.73644 0.94563 0.77312 0.0
N635 N 0.7108 0.93954 0.80797 0.0
H636 H 0.82566 0.40942 0.73098 0.0
H637 H 0.73245 0.42005 0.72585 0.0
H638 H 0.80461 0.4487 0.70527 0.0
H639 H 0.75535 0.39971 0.76719 0.0
H640 H 0.7585 0.42761 0.71522 0.0
H641 H 0.79949 0.40238 0.74141 0.0
C642 C 0.81552 0.41651 0.72746 0.0
C643 C 0.81729 0.42968 0.71727 0.0
C644 C 0.75776 0.42154 0.72664 0.0
C645 C 0.78737 0.4216 0.72903 0.0
C646 C 0.74295 0.41719 0.73268 0.0
C647 C 0.74176 0.40928 0.74744 0.0
C648 C 0.77145 0.41762 0.73525 0.0
C649 C 0.75573 0.40587 0.75581 0.0
C650 C 0.80063 0.41254 0.73348 0.0
C651 C 0.80375 0.43849 0.71315 0.0
N652 N 0.77001 0.40994 0.74953 0.0
N653 N 0.78931 0.43423 0.71896 0.0
H654 H 0.88792 0.25991 0.24983 0.0
H655 H 0.93428 0.20548 0.31201 0.0
H656 H 0.90176 0.21185 0.23838 0.0
H657 H 0.89912 0.23981 0.32674 0.0
H658 H 0.92688 0.21031 0.28406 0.0
H659 H 0.89661 0.25544 0.27737 0.0
C660 C 0.89292 0.24847 0.25307 0.0
C661 C 0.89408 0.2362 0.24183 0.0
C662 C 0.92083 0.21676 0.29345 0.0
C663 C 0.90414 0.23111 0.2732 0.0
C664 C 0.92506 0.21407 0.30936 0.0
C665 C 0.91724 0.22222 0.32169 0.0
C666 C 0.90898 0.22795 0.28988 0.0
C667 C 0.90537 0.2332 0.3176 0.0
C668 C 0.89778 0.24591 0.26879 0.0
C669 C 0.90058 0.22159 0.24671 0.0
N670 N 0.90167 0.23583 0.30203 0.0
N671 N 0.90545 0.21946 0.26204 0.0
H672 H 0.43706 0.8756 0.46661 0.0
H673 H 0.45917 0.93787 0.39786 0.0
H674 H 0.46721 0.86384 0.4266 0.0
H675 H 0.41754 0.94273 0.42753 0.0
H676 H 0.46458 0.91211 0.41043 0.0
H677 H 0.43196 0.90167 0.4545 0.0
C678 C 0.44262 0.87851 0.4553 0.0
C679 C 0.45255 0.86752 0.44758 0.0
C680 C 0.45427 0.91882 0.41418 0.0
C681 C 0.44687 0.89735 0.43376 0.0
C682 C 0.4512 0.93356 0.40707 0.0
C683 C 0.43786 0.94245 0.41163 0.0
C684 C 0.44404 0.91302 0.42609 0.0
C685 C 0.42792 0.93624 0.4236 0.0
C686 C 0.43967 0.89336 0.44838 0.0
C687 C 0.45942 0.87192 0.43292 0.0
N688 N 0.43124 0.92193 0.43046 0.0
N689 N 0.45652 0.88652 0.42652 0.0
H690 H 0.24548 0.94095 0.75453 0.0
H691 H 0.19661 0.86006 0.7575 0.0
H692 H 0.20387 0.93464 0.78393 0.0
H693 H 0.22664 0.87294 0.71768 0.0
H694 H 0.20119 0.88625 0.76915 0.0
H695 H 0.24073 0.91492 0.74253 0.0
C696 C 0.23535 0.9341 0.75845 0.0
C697 C 0.22504 0.93998 0.77024 0.0
C698 C 0.20675 0.88334 0.75785 0.0
C699 C 0.21965 0.91017 0.75669 0.0
C700 C 0.20419 0.86838 0.75122 0.0
C701 C 0.21124 0.86432 0.73659 0.0
C702 C 0.21659 0.89424 0.7499 0.0
C703 C 0.22093 0.87559 0.72896 0.0
C704 C 0.23263 0.91928 0.75157 0.0
C705 C 0.21208 0.9306 0.77484 0.0
N706 N 0.22339 0.89002 0.73575 0.0
N707 N 0.20981 0.91612 0.76813 0.0
H708 H 0.24419 0.23124 0.91594 0.0
H709 H 0.21076 0.31916 0.90445 0.0
H710 H 0.20602 0.24248 0.88367 0.0
H711 H 0.2334 0.30372 0.94799 0.0
H712 H 0.21152 0.29174 0.89483 0.0
H713 H 0.2429 0.25845 0.9262 0.0
C714 C 0.23553 0.23942 0.91103 0.0
C715 C 0.22518 0.23459 0.89894 0.0
C716 C 0.21628 0.29437 0.9065 0.0
C717 C 0.2238 0.26572 0.91047 0.0
C718 C 0.21592 0.31001 0.91197 0.0
C719 C 0.22201 0.31372 0.92705 0.0
C720 C 0.22302 0.28239 0.91606 0.0
C721 C 0.22852 0.30138 0.93631 0.0
C722 C 0.23478 0.25491 0.91692 0.0
C723 C 0.21418 0.24568 0.89304 0.0
N724 N 0.22895 0.28627 0.93062 0.0
N725 N 0.21386 0.26076 0.89877 0.0
H726 H 0.43877 0.28492 0.20868 0.0
H727 H 0.4636 0.22915 0.28202 0.0
H728 H 0.46956 0.30035 0.24649 0.0
H729 H 0.42278 0.22011 0.2527 0.0
H730 H 0.4679 0.25404 0.26743 0.0
H731 H 0.43465 0.25984 0.22303 0.0
C732 C 0.44468 0.28303 0.21999 0.0
C733 C 0.45451 0.29476 0.22641 0.0
C734 C 0.458 0.24661 0.26421 0.0
C735 C 0.44992 0.26605 0.24282 0.0
C736 C 0.45557 0.23237 0.27248 0.0
C737 C 0.44279 0.22254 0.26858 0.0
C738 C 0.4477 0.25098 0.25181 0.0
C739 C 0.43275 0.22735 0.25613 0.0
C740 C 0.44228 0.26873 0.22818 0.0
C741 C 0.46184 0.29166 0.24112 0.0
N742 N 0.43545 0.2412 0.24815 0.0
N743 N 0.45945 0.27759 0.24879 0.0
H744 H 0.48267 0.4161 0.8804 0.0
H745 H 0.41545 0.44851 0.93967 0.0
H746 H 0.45174 0.45539 0.86874 0.0
H747 H 0.43876 0.40314 0.94571 0.0
H748 H 0.43046 0.45272 0.91497 0.0
H749 H 0.46858 0.41273 0.90576 0.0
C750 C 0.47297 0.42407 0.8832 0.0
C751 C 0.46835 0.43602 0.8724 0.0
C752 C 0.43229 0.44185 0.9217 0.0
C753 C 0.45218 0.43223 0.90143 0.0
C754 C 0.42375 0.43945 0.93583 0.0
C755 C 0.42582 0.42543 0.94476 0.0
C756 C 0.44309 0.43021 0.91652 0.0
C757 C 0.43674 0.4141 0.93918 0.0
C758 C 0.46489 0.4221 0.89766 0.0
C759 C 0.45567 0.44599 0.87667 0.0
N760 N 0.44498 0.41675 0.92545 0.0
N761 N 0.44803 0.44388 0.89086 0.0
H762 H 0.24112 0.87905 0.21045 0.0
H763 H 0.30177 0.94845 0.23047 0.0
H764 H 0.23193 0.91405 0.24687 0.0
H765 H 0.31622 0.90431 0.20864 0.0
H766 H 0.27506 0.93774 0.23392 0.0
H767 H 0.26772 0.88994 0.20689 0.0
C768 C 0.24468 0.88906 0.21766 0.0
C769 C 0.2343 0.89564 0.229 0.0
C770 C 0.2841 0.93041 0.2284 0.0
C771 C 0.26466 0.9082 0.2249 0.0
C772 C 0.29932 0.93652 0.22638 0.0
C773 C 0.31124 0.92724 0.21927 0.0
C774 C 0.28071 0.91501 0.22306 0.0
C775 C 0.3074 0.91185 0.21423 0.0
C776 C 0.25987 0.89521 0.21566 0.0
C777 C 0.23956 0.90857 0.23804 0.0
N778 N 0.29245 0.90625 0.21614 0.0
N779 N 0.25436 0.91449 0.23574 0.0
H780 H 0.2112 0.72506 0.38301 0.0
H781 H 0.28609 0.70368 0.43679 0.0
H782 H 0.25225 0.70044 0.36458 0.0
H783 H 0.25358 0.74167 0.44833 0.0
H784 H 0.27223 0.69986 0.4115 0.0
H785 H 0.225 0.72882 0.40834 0.0
C786 C 0.2231 0.72042 0.3843 0.0
C787 C 0.2306 0.71244 0.37166 0.0
C788 C 0.26816 0.70904 0.41957 0.0
C789 C 0.24638 0.7166 0.40063 0.0
C790 C 0.27601 0.71119 0.43403 0.0
C791 C 0.27099 0.72303 0.44468 0.0
C792 C 0.25504 0.71863 0.41583 0.0
C793 C 0.25789 0.73244 0.44045 0.0
C794 C 0.23098 0.72262 0.39874 0.0
C795 C 0.24605 0.70671 0.37399 0.0
N796 N 0.25032 0.72999 0.42639 0.0
N797 N 0.2534 0.70883 0.38823 0.0
H798 H 0.4249 0.90621 0.93877 0.0
H799 H 0.33794 0.90312 0.97636 0.0
H800 H 0.41119 0.87235 0.97515 0.0
H801 H 0.35688 0.94496 0.95327 0.0
H802 H 0.3637 0.89006 0.97334 0.0
H803 H 0.39895 0.91901 0.94128 0.0
C804 C 0.41642 0.90144 0.94726 0.0
C805 C 0.42023 0.88821 0.9568 0.0
C806 C 0.36221 0.9021 0.96895 0.0
C807 C 0.3905 0.90273 0.95963 0.0
C808 C 0.3475 0.90954 0.97062 0.0
C809 C 0.34527 0.92517 0.96509 0.0
C810 C 0.37472 0.91025 0.96152 0.0
C811 C 0.35809 0.93293 0.95776 0.0
C812 C 0.40164 0.90879 0.94871 0.0
C813 C 0.40879 0.88257 0.96761 0.0
N814 N 0.37225 0.92537 0.95613 0.0
N815 N 0.39442 0.88981 0.96869 0.0
H816 H 0.2405 0.27873 0.4119 0.0
H817 H 0.29759 0.22982 0.46926 0.0
H818 H 0.22608 0.26525 0.45957 0.0
H819 H 0.31519 0.26481 0.43582 0.0
H820 H 0.27046 0.23838 0.46315 0.0
H821 H 0.2673 0.26919 0.41774 0.0
C822 C 0.24295 0.27366 0.42355 0.0
C823 C 0.23108 0.27281 0.4353 0.0
C824 C 0.28029 0.24414 0.45718 0.0
C825 C 0.26159 0.26176 0.44194 0.0
C826 C 0.29574 0.23924 0.46059 0.0
C827 C 0.30863 0.24667 0.45307 0.0
C828 C 0.27776 0.25627 0.44589 0.0
C829 C 0.30558 0.25885 0.44197 0.0
C830 C 0.25824 0.26831 0.42688 0.0
C831 C 0.23492 0.26619 0.45022 0.0
N832 N 0.29044 0.26319 0.43862 0.0
N833 N 0.24984 0.26081 0.4531 0.0
H834 H 0.4316 0.24884 0.7122 0.0
H835 H 0.34004 0.25784 0.73034 0.0
H836 H 0.41409 0.26299 0.75851 0.0
H837 H 0.35737 0.22092 0.69916 0.0
H838 H 0.36732 0.26364 0.73804 0.0
H839 H 0.40448 0.24191 0.70448 0.0
C840 C 0.42206 0.25045 0.72073 0.0
C841 C 0.42506 0.25646 0.73602 0.0
C842 C 0.36512 0.25427 0.72952 0.0
C843 C 0.39417 0.2489 0.72718 0.0
C844 C 0.3496 0.25102 0.72505 0.0
C845 C 0.34648 0.23887 0.71411 0.0
C846 C 0.37762 0.24556 0.72273 0.0
C847 C 0.3593 0.23034 0.70768 0.0
C848 C 0.40665 0.24646 0.71634 0.0
C849 C 0.4123 0.2583 0.74664 0.0
N850 N 0.37436 0.23393 0.71199 0.0
N851 N 0.39737 0.2547 0.74196 0.0
H852 H 0.21806 0.44577 0.29475 0.0
H853 H 0.2906 0.46132 0.2356 0.0
H854 H 0.26189 0.46667 0.31027 0.0
H855 H 0.25588 0.42487 0.2272 0.0
H856 H 0.27847 0.46635 0.26171 0.0
H857 H 0.23004 0.44086 0.26853 0.0
C858 C 0.23019 0.44936 0.29263 0.0
C859 C 0.23901 0.45662 0.30471 0.0
C860 C 0.27353 0.45725 0.25414 0.0
C861 C 0.2527 0.45117 0.27474 0.0
C862 C 0.28039 0.45441 0.23922 0.0
C863 C 0.27425 0.44263 0.22922 0.0
C864 C 0.26027 0.44843 0.259 0.0
C865 C 0.26103 0.43401 0.23456 0.0
C866 C 0.23703 0.44649 0.2777 0.0
C867 C 0.25469 0.46098 0.30132 0.0
N868 N 0.25443 0.43714 0.24905 0.0
N869 N 0.26101 0.45827 0.28662 0.0
H870 H 0.45195 0.71855 0.80441 0.0
H871 H 0.3792 0.69925 0.74738 0.0
H872 H 0.41068 0.6929 0.82053 0.0
H873 H 0.41163 0.73776 0.7382 0.0
H874 H 0.3923 0.69429 0.77295 0.0
H875 H 0.43902 0.72327 0.77871 0.0
C876 C 0.44019 0.71388 0.80253 0.0
C877 C 0.43237 0.70534 0.81464 0.0
C878 C 0.39652 0.70383 0.76533 0.0
C879 C 0.41757 0.7106 0.78524 0.0
C880 C 0.3891 0.70664 0.75072 0.0
C881 C 0.39432 0.71896 0.74065 0.0
C882 C 0.40941 0.71327 0.76982 0.0
C883 C 0.40718 0.72818 0.74562 0.0
C884 C 0.4328 0.71662 0.78789 0.0
C885 C 0.41712 0.69959 0.81155 0.0
N886 N 0.41433 0.7251 0.75982 0.0
N887 N 0.41025 0.70226 0.79713 0.0
H888 H 0.96824 0.35567 0.90808 0.0
H889 H 0.92826 0.44176 0.91068 0.0
H890 H 0.94111 0.37232 0.94851 0.0
H891 H 0.96777 0.43031 0.87993 0.0
H892 H 0.93053 0.4154 0.92305 0.0
H893 H 0.96581 0.38203 0.8958 0.0
C894 C 0.96173 0.36485 0.91435 0.0
C895 C 0.95489 0.3618 0.92936 0.0
C896 C 0.93872 0.41869 0.91362 0.0
C897 C 0.95201 0.39194 0.91534 0.0
C898 C 0.93741 0.43371 0.90654 0.0
C899 C 0.94786 0.43825 0.89427 0.0
C900 C 0.95041 0.40805 0.90825 0.0
C901 C 0.95951 0.42734 0.88939 0.0
C902 C 0.96041 0.3799 0.90737 0.0
C903 C 0.94662 0.37417 0.93696 0.0
N904 N 0.96041 0.41272 0.89633 0.0
N905 N 0.94535 0.38868 0.92983 0.0
H906 H 0.75245 0.43673 0.24408 0.0
H907 H 0.69853 0.35987 0.25498 0.0
H908 H 0.71163 0.43579 0.27525 0.0
H909 H 0.7264 0.36851 0.21251 0.0
H910 H 0.70552 0.38635 0.26464 0.0
H911 H 0.74537 0.41031 0.23434 0.0
C912 C 0.74202 0.43096 0.24889 0.0
C913 C 0.7326 0.43848 0.26047 0.0
C914 C 0.71006 0.38244 0.25319 0.0
C915 C 0.72454 0.40823 0.24949 0.0
C916 C 0.70614 0.36733 0.2477 0.0
C917 C 0.71187 0.362 0.2329 0.0
C918 C 0.72001 0.3922 0.24394 0.0
C919 C 0.72166 0.37217 0.22395 0.0
C920 C 0.73796 0.41592 0.24328 0.0
C921 C 0.71919 0.43046 0.26626 0.0
N922 N 0.7255 0.38675 0.22965 0.0
N923 N 0.71561 0.41573 0.26078 0.0
H924 H 0.73157 0.84417 0.44462 0.0
H925 H 0.72057 0.7508 0.44742 0.0
H926 H 0.71808 0.82083 0.48861 0.0
H927 H 0.7595 0.77256 0.42209 0.0
H928 H 0.71417 0.77675 0.45933 0.0
H929 H 0.73629 0.81809 0.43254 0.0
C930 C 0.72941 0.83355 0.45166 0.0
C931 C 0.72448 0.83462 0.46764 0.0
C932 C 0.72408 0.77576 0.45115 0.0
C933 C 0.72966 0.80489 0.45385 0.0
C934 C 0.72771 0.76104 0.44433 0.0
C935 C 0.74062 0.75958 0.43383 0.0
C936 C 0.73316 0.78911 0.44703 0.0
C937 C 0.74952 0.77318 0.43023 0.0
C938 C 0.7322 0.81873 0.4448 0.0
C939 C 0.72196 0.82049 0.47627 0.0
N940 N 0.74553 0.78743 0.4367 0.0
N941 N 0.7245 0.80615 0.46923 0.0
H942 H 0.90542 0.72535 0.73408 0.0
H943 H 0.94233 0.81113 0.71686 0.0
H944 H 0.94843 0.74177 0.75602 0.0
H945 H 0.90635 0.79003 0.68744 0.0
H946 H 0.9439 0.78642 0.73234 0.0
H947 H 0.90464 0.74963 0.71791 0.0
C948 C 0.91471 0.73406 0.7355 0.0
C949 C 0.92701 0.73152 0.74643 0.0
C950 C 0.93571 0.78718 0.72245 0.0
C951 C 0.92615 0.75939 0.728 0.0
C952 C 0.93479 0.80129 0.71362 0.0
C953 C 0.92418 0.80266 0.70083 0.0
C954 C 0.92584 0.77439 0.71857 0.0
C955 C 0.91471 0.78951 0.69718 0.0
C956 C 0.91428 0.7479 0.72623 0.0
C957 C 0.93874 0.74322 0.74773 0.0
N958 N 0.91571 0.77596 0.70605 0.0
N959 N 0.93798 0.75667 0.73868 0.0
H960 H -0.00426 0.31985 0.43743 0.0
H961 H 0.93968 0.27005 0.3797 0.0
H962 H 0.95827 0.34069 0.40924 0.0
H963 H 0.97211 0.24814 0.41284 0.0
H964 H 0.94653 0.29607 0.39038 0.0
H965 H 0.98757 0.29349 0.42855 0.0
C966 C 0.98574 0.3189 0.42946 0.0
C967 C 0.97773 0.33254 0.42403 0.0
C968 C 0.95224 0.28559 0.39528 0.0
C969 C 0.96838 0.3024 0.41375 0.0
C970 C 0.94833 0.27073 0.38918 0.0
C971 C 0.95572 0.25696 0.39505 0.0
C972 C 0.9636 0.2867 0.40741 0.0
C973 C 0.9667 0.25851 0.40745 0.0
C974 C 0.98108 0.30383 0.42439 0.0
C975 C 0.96483 0.33054 0.41372 0.0
N976 N 0.97038 0.27313 0.41317 0.0
N977 N 0.96063 0.31578 0.40886 0.0
H978 H 0.96496 0.82986 0.21671 0.0
H979 H 0.97138 0.90072 0.2786 0.0
H980 H 0.97915 0.82262 0.26566 0.0
H981 H 0.93492 0.9005 0.24275 0.0
H982 H 0.97899 0.87372 0.27076 0.0
H983 H 0.95797 0.85751 0.22313 0.0
C984 C 0.9666 0.83409 0.22878 0.0
C985 C 0.97257 0.82395 0.2407 0.0
C986 C 0.96942 0.87966 0.26452 0.0
C987 C 0.96497 0.85545 0.24796 0.0
C988 C 0.96521 0.89509 0.26884 0.0
C989 C 0.95267 0.90286 0.26113 0.0
C990 C 0.96115 0.87204 0.25227 0.0
C991 C 0.94471 0.89488 0.24891 0.0
C992 C 0.96259 0.8498 0.23242 0.0
C993 C 0.97447 0.83 0.25615 0.0
N994 N 0.94915 0.87989 0.24476 0.0
N995 N 0.97082 0.8454 0.25931 0.0
H996 H 0.69336 0.83932 0.95026 0.0
H997 H 0.67773 0.90739 0.88651 0.0
H998 H 0.67784 0.8294 0.90232 0.0
H999 H 0.71551 0.91169 0.9206 0.0
H1000 H 0.67381 0.87981 0.89506 0.0
H1001 H 0.69824 0.86704 0.94226 0.0
C1002 C 0.69101 0.84297 0.93807 0.0
C1003 C 0.6852 0.83207 0.92692 0.0
C1004 C 0.68291 0.88682 0.90072 0.0
C1005 C 0.69045 0.86363 0.91787 0.0
C1006 C 0.68503 0.90257 0.89598 0.0
C1007 C 0.69679 0.91182 0.90306 0.0
C1008 C 0.69248 0.88034 0.91277 0.0
C1009 C 0.70626 0.9049 0.91494 0.0
C1010 C 0.69385 0.85872 0.93353 0.0
C1011 C 0.6824 0.83738 0.91127 0.0
N1012 N 0.70381 0.88956 0.91957 0.0
N1013 N 0.68488 0.85283 0.90725 0.0
H1014 H 0.71608 0.26411 0.8017 0.0
H1015 H 0.66688 0.3309 0.75553 0.0
H1016 H 0.6757 0.25346 0.77237 0.0
H1017 H 0.71251 0.33911 0.77686 0.0
H1018 H 0.66987 0.3025 0.76117 0.0
H1019 H 0.71512 0.29156 0.79225 0.0
C1020 C 0.70698 0.26754 0.79327 0.0
C1021 C 0.69561 0.25655 0.78825 0.0
C1022 C 0.67928 0.3105 0.76448 0.0
C1023 C 0.69442 0.28806 0.77737 0.0
C1024 C 0.67758 0.32673 0.76128 0.0
C1025 C 0.68941 0.33745 0.76583 0.0
C1026 C 0.69284 0.30496 0.77244 0.0
C1027 C 0.70305 0.33133 0.77318 0.0
C1028 C 0.70644 0.28324 0.78788 0.0
C1029 C 0.68421 0.26165 0.7772 0.0
N1030 N 0.70432 0.31553 0.77638 0.0
N1031 N 0.68381 0.27708 0.77223 0.0
H1032 H 0.42998 0.00173 0.31975 0.0
H1033 H 0.37069 0.94762 0.26979 0.0
H1034 H 0.40225 0.96398 0.34079 0.0
H1035 H 0.40296 0.98108 0.24822 0.0
H1036 H 0.38241 0.95303 0.29586 0.0
H1037 H 0.42036 -0.00581 0.29343 0.0
C1038 C 0.42192 -0.0082 0.31884 0.0
C1039 C 0.41687 0.98352 0.33254 0.0
C1040 C 0.3869 0.95924 0.28543 0.0
C1041 C 0.40574 0.97486 0.30238 0.0
C1042 C 0.38023 0.95613 0.27055 0.0
C1043 C 0.38551 0.96432 0.2569 0.0
C1044 C 0.399 0.97057 0.28665 0.0
C1045 C 0.39801 0.97509 0.25853 0.0
C1046 C 0.41645 0.98749 0.30379 0.0
C1047 C 0.40645 0.97072 0.33058 0.0
N1048 N 0.40426 0.97798 0.27314 0.0
N1049 N 0.40116 0.96685 0.3158 0.0
H1050 H 0.23521 0.76668 0.68699 0.0
H1051 H 0.32534 0.75843 0.71517 0.0
H1052 H 0.25705 0.79832 0.72061 0.0
H1053 H 0.30479 0.73056 0.67747 0.0
H1054 H 0.29968 0.77132 0.71941 0.0
H1055 H 0.25994 0.75164 0.68521 0.0
C1056 C 0.2453 0.77062 0.69379 0.0
C1057 C 0.24427 0.78411 0.70351 0.0
C1058 C 0.30078 0.76231 0.71027 0.0
C1059 C 0.27245 0.76661 0.70202 0.0
C1060 C 0.31542 0.75491 0.70787 0.0
C1061 C 0.31727 0.74346 0.69586 0.0
C1062 C 0.28788 0.75822 0.70062 0.0
C1063 C 0.30397 0.73939 0.68679 0.0
C1064 C 0.25935 0.7619 0.69295 0.0
C1065 C 0.25741 0.7881 0.71282 0.0
N1066 N 0.28988 0.74681 0.68931 0.0
N1067 N 0.27101 0.77947 0.71175 0.0
H1068 H 0.28606 0.22196 0.7586 0.0
H1069 H 0.22911 0.1667 0.81134 0.0
H1070 H 0.25741 0.1847 0.73879 0.0
H1071 H 0.25395 0.20733 0.82989 0.0
H1072 H 0.23948 0.17284 0.78474 0.0
H1073 H 0.27442 0.21667 0.78484 0.0
C1074 C 0.27736 0.21259 0.75979 0.0
C1075 C 0.27304 0.20343 0.74658 0.0
C1076 C 0.24261 0.18045 0.79462 0.0
C1077 C 0.2596 0.19733 0.77658 0.0
C1078 C 0.2367 0.17695 0.80983 0.0
C1079 C 0.24069 0.18649 0.82291 0.0
C1080 C 0.25265 0.19355 0.79245 0.0
C1081 C 0.25056 0.19962 0.82018 0.0
C1082 C 0.27073 0.20957 0.77478 0.0
C1083 C 0.26161 0.19156 0.74877 0.0
N1084 N 0.25624 0.20272 0.80529 0.0
N1085 N 0.25533 0.1888 0.76351 0.0
H1086 H 0.36358 0.43436 0.16911 0.0
H1087 H 0.40823 0.3589 0.20608 0.0
H1088 H 0.34122 0.40073 0.20106 0.0
H1089 H 0.43174 0.39558 0.17887 0.0
H1090 H 0.38381 0.3746 0.20534 0.0
H1091 H 0.38884 0.42085 0.17329 0.0
C1092 C 0.36399 0.42422 0.17712 0.0
C1093 C 0.35021 0.41862 0.18467 0.0
C1094 C 0.3943 0.37922 0.1995 0.0
C1095 C 0.37913 0.40301 0.18943 0.0
C1096 C 0.40824 0.37027 0.19994 0.0
C1097 C 0.42188 0.37571 0.19206 0.0
C1098 C 0.39402 0.39376 0.19117 0.0
C1099 C 0.42131 0.39059 0.18444 0.0
C1100 C 0.37844 0.4165 0.1795 0.0
C1101 C 0.35151 0.40544 0.19495 0.0
N1102 N 0.40757 0.39904 0.18408 0.0
N1103 N 0.36569 0.39801 0.19693 0.0
H1104 H 0.43358 0.16713 0.36392 0.0
H1105 H 0.36932 0.22197 0.40784 0.0
H1106 H 0.40557 0.20279 0.33967 0.0
H1107 H 0.40004 0.1892 0.43267 0.0
H1108 H 0.38252 0.21514 0.38274 0.0
H1109 H 0.42145 0.17499 0.3892 0.0
C1110 C 0.42494 0.17667 0.3639 0.0
C1111 C 0.42057 0.18428 0.34961 0.0
C1112 C 0.38632 0.20935 0.39365 0.0
C1113 C 0.40656 0.1933 0.37857 0.0
C1114 C 0.37878 0.21325 0.40798 0.0
C1115 C 0.38328 0.20577 0.42228 0.0
C1116 C 0.39852 0.19797 0.39363 0.0
C1117 C 0.39572 0.1947 0.42183 0.0
C1118 C 0.418 0.18115 0.37836 0.0
C1119 C 0.4093 0.19658 0.35037 0.0
N1120 N 0.40288 0.19109 0.40773 0.0
N1121 N 0.40265 0.20065 0.36458 0.0
H1122 H 0.4307 0.76926 0.49737 0.0
H1123 H 0.34062 0.76068 0.46947 0.0
H1124 H 0.40837 0.80086 0.46351 0.0
H1125 H 0.36182 0.73228 0.50684 0.0
H1126 H 0.36606 0.77378 0.46512 0.0
H1127 H 0.40623 0.75401 0.49922 0.0
C1128 C 0.42056 0.77314 0.49052 0.0
C1129 C 0.42137 0.78667 0.48071 0.0
C1130 C 0.36516 0.76461 0.47421 0.0
C1131 C 0.39347 0.76895 0.4823 0.0
C1132 C 0.35064 0.75709 0.47667 0.0
C1133 C 0.34903 0.74543 0.48862 0.0
C1134 C 0.37818 0.76043 0.48374 0.0
C1135 C 0.36246 0.74127 0.49756 0.0
C1136 C 0.40664 0.7643 0.49141 0.0
C1137 C 0.40817 0.79061 0.47137 0.0
N1138 N 0.37643 0.74882 0.495 0.0
N1139 N 0.39471 0.78186 0.47248 0.0
H1140 H 0.25757 0.96258 0.84139 0.0
H1141 H 0.2573 0.98588 0.93403 0.0
H1142 H 0.23147 0.00237 0.86071 0.0
H1143 H 0.28758 0.94968 0.91396 0.0
H1144 H 0.24613 -0.00925 0.90759 0.0
H1145 H 0.26696 0.95618 0.86824 0.0
C1146 C 0.25373 0.96992 0.85128 0.0
C1147 C 0.24377 0.98309 0.84875 0.0
C1148 C 0.25526 0.98178 0.90894 0.0
C1149 C 0.25451 0.97583 0.87954 0.0
C1150 C 0.2618 0.97916 0.92401 0.0
C1151 C 0.27378 0.96776 0.92608 0.0
C1152 C 0.26064 0.97282 0.89586 0.0
C1153 C 0.27848 0.95871 0.91284 0.0
C1154 C 0.25913 0.96628 0.86661 0.0
C1155 C 0.23919 -0.00785 0.86205 0.0
N1156 N 0.27197 0.96151 0.89827 0.0
N1157 N 0.24463 0.98838 0.87684 0.0
H1158 H 0.33586 0.43417 0.96476 0.0
H1159 H 0.2733 0.36661 0.983 0.0
H1160 H 0.34943 0.38825 0.98355 0.0
H1161 H 0.26685 0.39887 0.94334 0.0
H1162 H 0.30007 0.37696 0.98663 0.0
H1163 H 0.30926 0.42377 0.95957 0.0
C1164 C 0.33327 0.4219 0.96771 0.0
C1165 C 0.34487 0.41205 0.97458 0.0
C1166 C 0.29278 0.38178 0.97715 0.0
C1167 C 0.31452 0.40027 0.969 0.0
C1168 C 0.27747 0.37602 0.97519 0.0
C1169 C 0.26785 0.38207 0.96299 0.0
C1170 C 0.29839 0.39385 0.96699 0.0
C1171 C 0.27395 0.39395 0.95292 0.0
C1172 C 0.31814 0.41599 0.96472 0.0
C1173 C 0.34089 0.39624 0.97817 0.0
N1174 N 0.28882 0.3996 0.95523 0.0
N1175 N 0.326 0.39089 0.97552 0.0
H1176 H 0.73558 0.26696 0.18293 0.0
H1177 H 0.82462 0.26139 0.21478 0.0
H1178 H 0.75393 0.29576 0.221 0.0
H1179 H 0.80865 0.23841 0.1718 0.0
H1180 H 0.79776 0.27114 0.21941 0.0
H1181 H 0.76132 0.25375 0.18065 0.0
C1182 C 0.74509 0.27068 0.19063 0.0
C1183 C 0.7428 0.2829 0.20175 0.0
C1184 C 0.80011 0.26388 0.20902 0.0
C1185 C 0.77209 0.2674 0.19968 0.0
C1186 C 0.81545 0.25825 0.20639 0.0
C1187 C 0.81896 0.24917 0.19279 0.0
C1188 C 0.78814 0.26039 0.19802 0.0
C1189 C 0.80653 0.24546 0.18238 0.0
C1190 C 0.75972 0.26298 0.18949 0.0
C1191 C 0.75525 0.28653 0.21212 0.0
N1192 N 0.79171 0.25117 0.18516 0.0
N1193 N 0.76939 0.27891 0.21075 0.0
H1194 H 0.72905 0.70311 0.34686 0.0
H1195 H 0.79859 0.72088 0.28542 0.0
H1196 H 0.77084 0.72968 0.35905 0.0
H1197 H 0.75397 0.7001 0.27204 0.0
H1198 H 0.78736 0.72729 0.31155 0.0
H1199 H 0.73653 0.7049 0.31873 0.0
C1200 C 0.73969 0.70952 0.34361 0.0
C1201 C 0.74945 0.71605 0.35538 0.0
C1202 C 0.77995 0.72155 0.30281 0.0
C1203 C 0.75821 0.71798 0.32315 0.0
C1204 C 0.78635 0.71789 0.28786 0.0
C1205 C 0.7773 0.7097 0.27658 0.0
C1206 C 0.76443 0.71685 0.30657 0.0
C1207 C 0.76147 0.70625 0.2804 0.0
C1208 C 0.74396 0.71054 0.32752 0.0
C1209 C 0.76302 0.72434 0.35042 0.0
N1210 N 0.75563 0.70962 0.29515 0.0
N1211 N 0.76713 0.72485 0.3347 0.0
H1212 H 0.86825 0.85878 0.6996 0.0
H1213 H 0.80666 0.93042 0.6903 0.0
H1214 H 0.88021 0.90494 0.68033 0.0
H1215 H 0.79443 0.88475 0.71054 0.0
H1216 H 0.83433 0.92217 0.68941 0.0
H1217 H 0.84198 0.86893 0.70657 0.0
C1218 C 0.86544 0.8711 0.697 0.0
C1219 C 0.87643 0.88096 0.68919 0.0
C1220 C 0.82564 0.91399 0.69418 0.0
C1221 C 0.84631 0.89262 0.69704 0.0
C1222 C 0.8098 0.9187 0.6947 0.0
C1223 C 0.79815 0.9082 0.70034 0.0
C1224 C 0.8299 0.89862 0.69924 0.0
C1225 C 0.80299 0.89321 0.70599 0.0
C1226 C 0.85042 0.87688 0.70097 0.0
C1227 C 0.87211 0.89684 0.6862 0.0
N1228 N 0.81847 0.8888 0.70514 0.0
N1229 N 0.85736 0.90211 0.68999 0.0
H1230 H 0.79415 0.5087 0.40961 0.0
H1231 H 0.75675 0.46728 0.3326 0.0
H1232 H 0.78218 0.45898 0.40762 0.0
H1233 H 0.77252 0.51602 0.33356 0.0
H1234 H 0.76429 0.46441 0.36064 0.0
H1235 H 0.78433 0.51211 0.3824 0.0
C1236 C 0.7891 0.49859 0.40359 0.0
C1237 C 0.78864 0.48362 0.41101 0.0
C1238 C 0.76607 0.47574 0.35471 0.0
C1239 C 0.77788 0.48727 0.37965 0.0
C1240 C 0.76176 0.47739 0.3387 0.0
C1241 C 0.76406 0.49189 0.33067 0.0
C1242 C 0.77269 0.4887 0.36278 0.0
C1243 C 0.77058 0.50459 0.33922 0.0
C1244 C 0.7837 0.50048 0.38796 0.0
C1245 C 0.78268 0.47074 0.40234 0.0
N1246 N 0.77467 0.50269 0.35478 0.0
N1247 N 0.77751 0.47286 0.38713 0.0
H1248 H 0.93318 0.67376 0.84332 0.0
H1249 H 0.86664 0.71882 0.89425 0.0
H1250 H 0.90192 0.70934 0.82338 0.0
H1251 H 0.90034 0.68592 0.91458 0.0
H1252 H 0.88019 0.71656 0.86847 0.0
H1253 H 0.92205 0.67896 0.86971 0.0
C1254 C 0.92405 0.68276 0.84449 0.0
C1255 C 0.91841 0.69105 0.83106 0.0
C1256 C 0.88461 0.7098 0.87856 0.0
C1257 C 0.90552 0.697 0.86133 0.0
C1258 C 0.87688 0.7111 0.89328 0.0
C1259 C 0.88206 0.70214 0.90645 0.0
C1260 C 0.89766 0.69952 0.87702 0.0
C1261 C 0.89549 0.69247 0.90458 0.0
C1262 C 0.91769 0.68572 0.85959 0.0
C1263 C 0.90661 0.70263 0.83337 0.0
N1264 N 0.90277 0.69134 0.89012 0.0
N1265 N 0.90047 0.70517 0.84819 0.0
H1266 H 0.49341 0.74778 0.87948 0.0
H1267 H 0.44999 0.81335 0.93337 0.0
H1268 H 0.44658 0.74142 0.89909 0.0
H1269 H 0.49714 0.81829 0.91389 0.0
H1270 H 0.44834 0.78697 0.92123 0.0
H1271 H 0.49497 0.77352 0.89255 0.0
C1272 C 0.48361 0.75162 0.88688 0.0
C1273 C 0.47006 0.74222 0.88864 0.0
C1274 C 0.45903 0.79385 0.91963 0.0
C1275 C 0.47145 0.77206 0.90313 0.0
C1276 C 0.45998 0.80892 0.92655 0.0
C1277 C 0.47372 0.81808 0.92465 0.0
C1278 C 0.47191 0.78793 0.91077 0.0
C1279 C 0.4863 0.8117 0.91569 0.0
C1280 C 0.48439 0.76646 0.89415 0.0
C1281 C 0.45732 0.74825 0.89759 0.0
N1282 N 0.48508 0.79706 0.90911 0.0
N1283 N 0.45833 0.76279 0.90455 0.0
H1284 H 0.46382 0.39408 0.80631 0.0
H1285 H 0.47932 0.33982 0.7301 0.0
H1286 H 0.48544 0.411 0.76261 0.0
H1287 H 0.45751 0.323 0.77373 0.0
H1288 H 0.47773 0.36696 0.7402 0.0
H1289 H 0.45739 0.3692 0.793 0.0
C1290 C 0.467 0.39268 0.79385 0.0
C1291 C 0.47543 0.40457 0.78566 0.0
C1292 C 0.47311 0.35735 0.74748 0.0
C1293 C 0.46824 0.37601 0.77039 0.0
C1294 C 0.474 0.34184 0.74172 0.0
C1295 C 0.46877 0.32906 0.75118 0.0
C1296 C 0.46702 0.36012 0.76287 0.0
C1297 C 0.46187 0.33244 0.76609 0.0
C1298 C 0.46335 0.37844 0.78625 0.0
C1299 C 0.47911 0.40211 0.76948 0.0
N1300 N 0.46138 0.34761 0.77154 0.0
N1301 N 0.47569 0.38803 0.76244 0.0
H1302 H 0.20565 0.34552 0.41581 0.0
H1303 H 0.17153 0.42252 0.37129 0.0
H1304 H 0.15636 0.35232 0.40414 0.0
H1305 H 0.21966 0.41896 0.38783 0.0
H1306 H 0.16573 0.39706 0.38392 0.0
H1307 H 0.21108 0.37251 0.40624 0.0
C1308 C 0.19595 0.3527 0.41133 0.0
C1309 C 0.18053 0.34658 0.4107 0.0
C1310 C 0.17752 0.40191 0.385 0.0
C1311 C 0.18669 0.37744 0.39966 0.0
C1312 C 0.18077 0.41661 0.37799 0.0
C1313 C 0.19596 0.42314 0.37897 0.0
C1314 C 0.18962 0.39349 0.39283 0.0
C1315 C 0.20774 0.4144 0.38692 0.0
C1316 C 0.19907 0.36811 0.40587 0.0
C1317 C 0.16844 0.35647 0.40481 0.0
N1318 N 0.20434 0.4 0.39354 0.0
N1319 N 0.1718 0.37134 0.39944 0.0
H1320 H 0.20599 0.82425 0.25647 0.0
H1321 H 0.16491 0.75387 0.30617 0.0
H1322 H 0.15755 0.82526 0.27313 0.0
H1323 H 0.2133 0.75183 0.28973 0.0
H1324 H 0.162 0.77988 0.29355 0.0
H1325 H 0.20903 0.79769 0.26822 0.0
C1326 C 0.196 0.81892 0.26259 0.0
C1327 C 0.18149 0.82703 0.26381 0.0
C1328 C 0.17323 0.77371 0.29254 0.0
C1329 C 0.18489 0.79665 0.27725 0.0
C1330 C 0.17481 0.75872 0.29955 0.0
C1331 C 0.18921 0.75046 0.29854 0.0
C1332 C 0.1862 0.7806 0.2846 0.0
C1333 C 0.20194 0.75777 0.29062 0.0
C1334 C 0.19775 0.80375 0.26929 0.0
C1335 C 0.16897 0.8195 0.27188 0.0
N1336 N 0.20013 0.77242 0.2839 0.0
N1337 N 0.17096 0.80477 0.27827 0.0
H1338 H 0.88047 0.44829 0.75563 0.0
H1339 H 0.94182 0.50246 0.80307 0.0
H1340 H 0.90805 0.48531 0.73324 0.0
H1341 H 0.91663 0.46303 0.82429 0.0
H1342 H 0.92995 0.49623 0.77732 0.0
H1343 H 0.89404 0.45327 0.78077 0.0
C1344 C 0.88935 0.45753 0.75603 0.0
C1345 C 0.89281 0.46672 0.74243 0.0
C1346 C 0.92708 0.48889 0.78759 0.0
C1347 C 0.90846 0.47247 0.77118 0.0
C1348 C 0.93386 0.49244 0.80231 0.0
C1349 C 0.93018 0.4833 0.81591 0.0
C1350 C 0.91649 0.47614 0.78644 0.0
C1351 C 0.9198 0.47044 0.81417 0.0
C1352 C 0.89708 0.46038 0.77039 0.0
C1353 C 0.90451 0.47843 0.74358 0.0
N1354 N 0.91328 0.4673 0.79973 0.0
N1355 N 0.91188 0.48102 0.75774 0.0
H1356 H 0.90502 0.29866 0.9484 0.0
H1357 H 0.85598 0.23478 -0.00065 0.0
H1358 H 0.92517 0.26983 0.98594 0.0
H1359 H 0.83629 0.26106 0.95965 0.0
H1360 H 0.88163 0.24689 -0.00603 0.0
H1361 H 0.88003 0.28434 0.95155 0.0
C1362 C 0.90417 0.28934 0.95734 0.0
C1363 C 0.91703 0.28577 0.96728 0.0
C1364 C 0.87174 0.24995 0.98637 0.0
C1365 C 0.88853 0.2693 0.97091 0.0
C1366 C 0.85706 0.24303 0.98943 0.0
C1367 C 0.84391 0.24696 0.98 0.0
C1368 C 0.87332 0.26097 0.97381 0.0
C1369 C 0.84608 0.25769 0.96727 0.0
C1370 C 0.8899 0.28118 0.95914 0.0
C1371 C 0.91535 0.27347 0.97853 0.0
N1372 N 0.86048 0.2644 0.96461 0.0
N1373 N 0.90135 0.26574 0.9801 0.0
H1374 H 0.85076 0.93827 0.49543 0.0
H1375 H 0.77415 0.89063 0.46804 0.0
H1376 H 0.85099 0.90381 0.45739 0.0
H1377 H 0.77318 0.92785 0.50336 0.0
H1378 H 0.80188 0.89669 0.46254 0.0
H1379 H 0.82199 0.93609 0.49708 0.0
C1380 C 0.84476 0.93035 0.48732 0.0
C1381 C 0.85334 0.92109 0.47636 0.0
C1382 C 0.79556 0.90363 0.4714 0.0
C1383 C 0.82038 0.91846 0.47827 0.0
C1384 C 0.77971 0.90016 0.47455 0.0
C1385 C 0.77133 0.90864 0.48629 0.0
C1386 C 0.80315 0.91558 0.48011 0.0
C1387 C 0.77917 0.92093 0.49427 0.0
C1388 C 0.82832 0.92911 0.48827 0.0
C1389 C 0.84489 0.91111 0.4661 0.0
N1390 N 0.79467 0.92393 0.49114 0.0
N1391 N 0.82891 0.90994 0.46741 0.0
H1392 H 0.11108 0.44136 0.38224 0.0
H1393 H 0.05423 0.40034 0.44706 0.0
H1394 H 0.12677 0.42565 0.42874 0.0
H1395 H 0.03981 0.41228 0.39905 0.0
H1396 H 0.08004 0.41226 0.44163 0.0
H1397 H 0.08419 0.43332 0.38923 0.0
C1398 C 0.10887 0.43629 0.39396 0.0
C1399 C 0.12124 0.43408 0.40488 0.0
C1400 C 0.07119 0.41237 0.43232 0.0
C1401 C 0.09042 0.42483 0.41296 0.0
C1402 C 0.05642 0.4056 0.43542 0.0
C1403 C 0.04487 0.40518 0.42344 0.0
C1404 C 0.07444 0.41878 0.41714 0.0
C1405 C 0.04839 0.41223 0.40862 0.0
C1406 C 0.09349 0.4317 0.39794 0.0
C1407 C 0.11763 0.42751 0.41991 0.0
N1408 N 0.06288 0.41864 0.40586 0.0
N1409 N 0.10257 0.42305 0.42348 0.0
H1410 H 0.09814 0.87415 0.22669 0.0
H1411 H 0.04671 0.94177 0.26974 0.0
H1412 H 0.11858 0.91126 0.25531 0.0
H1413 H 0.02678 0.90189 0.24471 0.0
H1414 H 0.07322 0.93245 0.2624 0.0
H1415 H 0.07208 0.88603 0.23073 0.0
C1416 C 0.09718 0.88489 0.23371 0.0
C1417 C 0.11057 0.89163 0.24079 0.0
C1418 C 0.06303 0.92579 0.25846 0.0
C1419 C 0.08066 0.90525 0.24558 0.0
C1420 C 0.04789 0.93109 0.26265 0.0
C1421 C 0.03449 0.92254 0.25793 0.0
C1422 C 0.06479 0.91184 0.24945 0.0
C1423 C 0.03675 0.90882 0.24871 0.0
C1424 C 0.08226 0.89165 0.23605 0.0
C1425 C 0.10858 0.90561 0.2497 0.0
N1426 N 0.05159 0.90389 0.24483 0.0
N1427 N 0.09388 0.91189 0.25194 0.0
H1428 H 0.55186 0.72343 0.93512 0.0
H1429 H 0.6224 0.78037 0.90669 0.0
H1430 H 0.55332 0.74778 0.88962 0.0
H1431 H 0.62226 0.75576 0.95208 0.0
H1432 H 0.59738 0.76782 0.90013 0.0
H1433 H 0.57781 0.73451 0.94147 0.0
C1434 C 0.55763 0.73107 0.92645 0.0
C1435 C 0.55036 0.7347 0.91182 0.0
C1436 C 0.60281 0.7651 0.91152 0.0
C1437 C 0.58006 0.74741 0.91902 0.0
C1438 C 0.61714 0.77227 0.91528 0.0
C1439 C 0.62444 0.76916 0.93 0.0
C1440 C 0.59562 0.75473 0.92254 0.0
C1441 C 0.61704 0.75851 0.9406 0.0
C1442 C 0.57245 0.73738 0.93009 0.0
C1443 C 0.55843 0.74466 0.90105 0.0
N1444 N 0.603 0.75172 0.93669 0.0
N1445 N 0.5728 0.75067 0.90488 0.0
H1446 H 0.53164 0.2737 0.77585 0.0
H1447 H 0.61207 0.23538 0.74245 0.0
H1448 H 0.53737 0.25754 0.72731 0.0
H1449 H 0.60645 0.25425 0.79 0.0
H1450 H 0.58435 0.24187 0.73703 0.0
H1451 H 0.5585 0.26484 0.78165 0.0
C1452 C 0.53851 0.26818 0.76642 0.0
C1453 C 0.53225 0.26645 0.75103 0.0
C1454 C 0.58918 0.24455 0.74865 0.0
C1455 C 0.56316 0.25633 0.7576 0.0
C1456 C 0.60502 0.24086 0.75176 0.0
C1457 C 0.61163 0.24432 0.76669 0.0
C1458 C 0.57988 0.25173 0.76057 0.0
C1459 C 0.6019 0.2514 0.7783 0.0
C1460 C 0.55389 0.26315 0.76974 0.0
C1461 C 0.54172 0.25916 0.73932 0.0
N1462 N 0.58655 0.25488 0.77498 0.0
N1463 N 0.55674 0.25444 0.74283 0.0
H1464 H 0.03652 0.77756 0.26717 0.0
H1465 H 0.11217 0.72359 0.24678 0.0
H1466 H 0.04087 0.7504 0.22376 0.0
H1467 H 0.10659 0.75049 0.29022 0.0
H1468 H 0.08596 0.73267 0.23825 0.0
H1469 H 0.06194 0.76706 0.27595 0.0
C1470 C 0.04279 0.76933 0.25948 0.0
C1471 C 0.03655 0.7649 0.24467 0.0
C1472 C 0.09047 0.73655 0.24965 0.0
C1473 C 0.06583 0.75283 0.25467 0.0
C1474 C 0.10544 0.73138 0.25454 0.0
C1475 C 0.11162 0.7363 0.26923 0.0
C1476 C 0.08162 0.74673 0.25953 0.0
C1477 C 0.10234 0.74639 0.27879 0.0
C1478 C 0.05735 0.76334 0.26451 0.0
C1479 C 0.04524 0.75416 0.23526 0.0
N1480 N 0.08785 0.75128 0.27376 0.0
N1481 N 0.05948 0.74853 0.2404 0.0
H1482 H 0.62486 0.89833 0.92213 0.0
H1483 H 0.53095 0.90653 0.93195 0.0
H1484 H 0.59918 0.94156 0.91145 0.0
H1485 H 0.55771 0.86471 0.94521 0.0
H1486 H 0.55577 0.92011 0.92552 0.0
H1487 H 0.60033 0.88626 0.93152 0.0
C1488 C 0.61406 0.90531 0.92178 0.0
C1489 C 0.61408 0.92097 0.91591 0.0
C1490 C 0.5562 0.908 0.92994 0.0
C1491 C 0.58586 0.90717 0.92667 0.0
C1492 C 0.54203 0.90025 0.93365 0.0
C1493 C 0.54224 0.88441 0.93903 0.0
C1494 C 0.57064 0.89983 0.93158 0.0
C1495 C 0.55695 0.87688 0.94102 0.0
C1496 C 0.60004 0.89841 0.92718 0.0
C1497 C 0.59972 0.92944 0.91583 0.0
N1498 N 0.57053 0.88462 0.9372 0.0
N1499 N 0.58617 0.9224 0.92106 0.0
H1500 H 0.63289 0.41954 0.78527 0.0
H1501 H 0.55232 0.45817 0.75381 0.0
H1502 H 0.62248 0.42791 0.73549 0.0
H1503 H 0.56083 0.44573 0.80313 0.0
H1504 H 0.57983 0.45169 0.74755 0.0
H1505 H 0.60853 0.43351 0.79253 0.0
C1506 C 0.6256 0.42449 0.77586 0.0
C1507 C 0.62964 0.42234 0.75972 0.0
C1508 C 0.57574 0.45056 0.75978 0.0
C1509 C 0.60166 0.43829 0.76798 0.0
C1510 C 0.56003 0.45429 0.76338 0.0
C1511 C 0.55418 0.45227 0.77898 0.0
C1512 C 0.5857 0.4447 0.77185 0.0
C1513 C 0.56477 0.44732 0.7909 0.0
C1514 C 0.61166 0.43245 0.78002 0.0
C1515 C 0.61977 0.42912 0.74807 0.0
N1516 N 0.57997 0.44353 0.78705 0.0
N1517 N 0.60616 0.43664 0.75242 0.0
H1518 H 0.09867 0.28806 0.45164 0.0
H1519 H 0.04144 0.2382 0.39513 0.0
H1520 H 0.11419 0.26532 0.40816 0.0
H1521 H 0.02635 0.25987 0.43931 0.0
H1522 H 0.06854 0.2465 0.40058 0.0
H1523 H 0.07261 0.27614 0.44834 0.0
C1524 C 0.09665 0.28044 0.44147 0.0
C1525 C 0.10862 0.2778 0.43009 0.0
C1526 C 0.05932 0.24936 0.40913 0.0
C1527 C 0.07871 0.2642 0.42617 0.0
C1528 C 0.04382 0.24464 0.40602 0.0
C1529 C 0.03156 0.24843 0.41673 0.0
C1530 C 0.0626 0.258 0.42303 0.0
C1531 C 0.0354 0.25674 0.43068 0.0
C1532 C 0.08174 0.27365 0.43958 0.0
C1533 C 0.10531 0.26776 0.4172 0.0
N1534 N 0.05055 0.26132 0.43337 0.0
N1535 N 0.09064 0.26143 0.41552 0.0
H1536 H 0.39313 0.04716 0.40951 0.0
H1537 H 0.42852 0.13323 0.42789 0.0
H1538 H 0.44181 0.05996 0.40061 0.0
H1539 H 0.37981 0.12027 0.43635 0.0
H1540 H 0.43411 0.10596 0.4196 0.0
H1541 H 0.3886 0.07326 0.4213 0.0
C1542 C 0.40292 0.05541 0.41014 0.0
C1543 C 0.41785 0.05139 0.40394 0.0
C1544 C 0.42221 0.10906 0.42335 0.0
C1545 C 0.4127 0.0814 0.41735 0.0
C1546 C 0.41901 0.12464 0.42808 0.0
C1547 C 0.40364 0.12909 0.43275 0.0
C1548 C 0.40997 0.09782 0.42324 0.0
C1549 C 0.39181 0.11742 0.43279 0.0
C1550 C 0.4003 0.07034 0.41686 0.0
C1551 C 0.43009 0.06256 0.40517 0.0
N1552 N 0.39521 0.10236 0.42804 0.0
N1553 N 0.42721 0.07709 0.41163 0.0
H1554 H 0.2497 0.73438 0.63276 0.0
H1555 H 0.26719 0.76229 0.54287 0.0
H1556 H 0.23769 0.78079 0.61408 0.0
H1557 H 0.28041 0.7162 0.56153 0.0
H1558 H 0.2542 0.76832 0.56822 0.0
H1559 H 0.25908 0.72666 0.60623 0.0
C1560 C 0.24896 0.74293 0.62308 0.0
C1561 C 0.24299 0.7583 0.62569 0.0
C1562 C 0.25984 0.75684 0.56675 0.0
C1563 C 0.25371 0.74953 0.59527 0.0
C1564 C 0.26725 0.75337 0.55224 0.0
C1565 C 0.27503 0.73876 0.5501 0.0
C1566 C 0.26025 0.74565 0.57926 0.0
C1567 C 0.27463 0.72764 0.56267 0.0
C1568 C 0.25432 0.73851 0.60792 0.0
C1569 C 0.24228 0.76885 0.61266 0.0
N1570 N 0.26748 0.73137 0.57675 0.0
N1571 N 0.24764 0.76429 0.59805 0.0
H1572 H 0.21371 0.11506 0.89644 0.0
H1573 H 0.27823 0.05507 0.93263 0.0
H1574 H 0.26338 0.126 0.90063 0.0
H1575 H 0.22903 0.04299 0.92657 0.0
H1576 H 0.27252 0.08188 0.92293 0.0
H1577 H 0.21857 0.0895 0.90963 0.0
C1578 C 0.22561 0.11216 0.90026 0.0
C1579 C 0.23818 0.12265 0.89731 0.0
C1580 C 0.26295 0.07339 0.92377 0.0
C1581 C 0.24383 0.09337 0.91233 0.0
C1582 C 0.26621 0.05806 0.92931 0.0
C1583 C 0.25411 0.04671 0.93033 0.0
C1584 C 0.24748 0.07746 0.91918 0.0
C1585 C 0.23874 0.05132 0.92592 0.0
C1586 C 0.22838 0.09754 0.90775 0.0
C1587 C 0.25334 0.11826 0.90256 0.0
N1588 N 0.23588 0.06632 0.92048 0.0
N1589 N 0.25575 0.10393 0.90972 0.0
H1590 H 0.41814 0.42679 0.03409 0.0
H1591 H 0.40487 0.42683 0.1289 0.0
H1592 H 0.38059 0.45255 0.05781 0.0
H1593 H 0.43962 0.39753 0.105 0.0
H1594 H 0.39767 0.43853 0.10317 0.0
H1595 H 0.42812 0.41829 0.06016 0.0
C1596 C 0.41208 0.4308 0.04477 0.0
C1597 C 0.39842 0.4403 0.04375 0.0
C1598 C 0.40692 0.42959 0.10355 0.0
C1599 C 0.40974 0.43053 0.07363 0.0
C1600 C 0.41105 0.4229 0.11826 0.0
C1601 C 0.4228 0.41109 0.11912 0.0
C1602 C 0.41459 0.42446 0.08957 0.0
C1603 C 0.43043 0.40653 0.10491 0.0
C1604 C 0.41776 0.42589 0.05966 0.0
C1605 C 0.39109 0.44514 0.05801 0.0
N1606 N 0.42615 0.41317 0.09072 0.0
N1607 N 0.39678 0.44013 0.07234 0.0
H1608 H 0.45081 0.10824 0.28357 0.0
H1609 H 0.38589 0.0516 0.24447 0.0
H1610 H 0.40289 0.1229 0.27333 0.0
H1611 H 0.43322 0.03612 0.25619 0.0
H1612 H 0.39264 0.0784 0.25301 0.0
H1613 H 0.44539 0.08248 0.27142 0.0
C1614 C 0.4392 0.10611 0.27864 0.0
C1615 C 0.42725 0.11772 0.27959 0.0
C1616 C 0.40158 0.06917 0.25365 0.0
C1617 C 0.42093 0.08821 0.26576 0.0
C1618 C 0.39773 0.05384 0.24878 0.0
C1619 C 0.40897 0.04155 0.24971 0.0
C1620 C 0.41679 0.07228 0.25952 0.0
C1621 C 0.42415 0.0452 0.25533 0.0
C1622 C 0.4361 0.09138 0.27174 0.0
C1623 C 0.41243 0.11429 0.27296 0.0
N1624 N 0.42759 0.06022 0.2601 0.0
N1625 N 0.40967 0.09982 0.26643 0.0
H1626 H 0.38723 0.71551 0.62336 0.0
H1627 H 0.42762 0.78367 0.57016 0.0
H1628 H 0.39646 0.76298 0.64017 0.0
H1629 H 0.41693 0.73686 0.5524 0.0
H1630 H 0.41825 0.7755 0.59655 0.0
H1631 H 0.40024 0.72225 0.59807 0.0
C1632 C 0.39213 0.7273 0.62181 0.0
C1633 C 0.39063 0.73874 0.63388 0.0
C1634 C 0.41801 0.76698 0.58691 0.0
C1635 C 0.40545 0.74656 0.60491 0.0
C1636 C 0.42335 0.77165 0.57181 0.0
C1637 C 0.42297 0.76097 0.559 0.0
C1638 C 0.41219 0.75153 0.58926 0.0
C1639 C 0.41738 0.74552 0.5619 0.0
C1640 C 0.39951 0.73115 0.60734 0.0
C1641 C 0.39723 0.75381 0.63119 0.0
N1642 N 0.41214 0.74129 0.57671 0.0
N1643 N 0.40425 0.7573 0.61697 0.0
H1644 H 0.26776 0.04498 0.77074 0.0
H1645 H 0.23012 0.1285 0.74434 0.0
H1646 H 0.21823 0.0566 0.77617 0.0
H1647 H 0.27974 0.1169 0.73982 0.0
H1648 H 0.22516 0.10161 0.75429 0.0
H1649 H 0.27194 0.07053 0.75748 0.0
C1650 C 0.25772 0.05284 0.76904 0.0
C1651 C 0.24264 0.04866 0.77469 0.0
C1652 C 0.23712 0.10492 0.75106 0.0
C1653 C 0.24737 0.07805 0.75958 0.0
C1654 C 0.23997 0.12029 0.74537 0.0
C1655 C 0.25539 0.12501 0.74131 0.0
C1656 C 0.24978 0.09418 0.75271 0.0
C1657 C 0.26767 0.11383 0.74286 0.0
C1658 C 0.26013 0.06746 0.76148 0.0
C1659 C 0.23008 0.05934 0.77207 0.0
N1660 N 0.26461 0.09897 0.74849 0.0
N1661 N 0.23275 0.07358 0.7648 0.0
H1662 H 0.28452 0.39664 0.12464 0.0
H1663 H 0.25662 0.42845 0.03894 0.0
H1664 H 0.28219 0.44644 0.11207 0.0
H1665 H 0.26219 0.37878 0.05099 0.0
H1666 H 0.2639 0.43537 0.06625 0.0
H1667 H 0.27403 0.39003 0.09844 0.0
C1668 C 0.28169 0.40621 0.11642 0.0
C1669 C 0.28436 0.42212 0.12054 0.0
C1670 C 0.26348 0.42296 0.06293 0.0
C1671 C 0.27241 0.4146 0.09039 0.0
C1672 C 0.25933 0.41899 0.04733 0.0
C1673 C 0.25887 0.403 0.04263 0.0
C1674 C 0.26719 0.41086 0.07393 0.0
C1675 C 0.26245 0.39126 0.05404 0.0
C1676 C 0.27572 0.40242 0.10143 0.0
C1677 C 0.28039 0.434 0.10939 0.0
N1678 N 0.2665 0.39543 0.06913 0.0
N1679 N 0.2747 0.42999 0.09479 0.0
H1680 H 0.92029 0.29269 0.05585 0.0
H1681 H 0.8936 0.22749 0.12053 0.0
H1682 H 0.92151 0.24217 0.04708 0.0
H1683 H 0.89095 0.27815 0.12815 0.0
H1684 H 0.90581 0.23244 0.09442 0.0
H1685 H 0.91133 0.2874 0.08309 0.0
C1686 C 0.91872 0.28047 0.05966 0.0
C1687 C 0.92158 0.26786 0.04911 0.0
C1688 C 0.90265 0.24246 0.10186 0.0
C1689 C 0.91129 0.2617 0.08037 0.0
C1690 C 0.89571 0.23965 0.11679 0.0
C1691 C 0.89114 0.25243 0.12651 0.0
C1692 C 0.90502 0.25817 0.0966 0.0
C1693 C 0.89419 0.26792 0.12103 0.0
C1694 C 0.9136 0.27745 0.07524 0.0
C1695 C 0.91939 0.25227 0.05477 0.0
N1696 N 0.90085 0.27035 0.10643 0.0
N1697 N 0.91432 0.24963 0.06999 0.0
H1698 H 0.7791 0.55018 0.24653 0.0
H1699 H 0.74221 0.63381 0.22035 0.0
H1700 H 0.72902 0.56052 0.24605 0.0
H1701 H 0.79222 0.62535 0.22668 0.0
H1702 H 0.73738 0.6055 0.22445 0.0
H1703 H 0.78414 0.57599 0.23406 0.0
C1704 C 0.76913 0.55777 0.2436 0.0
C1705 C 0.75362 0.55327 0.24759 0.0
C1706 C 0.74943 0.6098 0.22475 0.0
C1707 C 0.75934 0.58289 0.23337 0.0
C1708 C 0.75222 0.62598 0.22237 0.0
C1709 C 0.76763 0.63203 0.22343 0.0
C1710 C 0.76214 0.59957 0.22824 0.0
C1711 C 0.78012 0.62126 0.22593 0.0
C1712 C 0.77203 0.57253 0.23651 0.0
C1713 C 0.74119 0.56356 0.24337 0.0
N1714 N 0.77708 0.60558 0.22844 0.0
N1715 N 0.74433 0.57796 0.23667 0.0
H1716 H 0.7217 0.91128 0.64337 0.0
H1717 H 0.70804 0.95038 0.55744 0.0
H1718 H 0.72437 0.96166 0.63368 0.0
H1719 H 0.71051 0.89978 0.56603 0.0
H1720 H 0.70861 0.9548 0.58622 0.0
H1721 H 0.7123 0.90709 0.61618 0.0
C1722 C 0.72009 0.9215 0.63561 0.0
C1723 C 0.72408 0.93683 0.64075 0.0
C1724 C 0.70883 0.94272 0.58182 0.0
C1725 C 0.7134 0.93208 0.60955 0.0
C1726 C 0.70846 0.94017 0.56537 0.0
C1727 C 0.7095 0.92468 0.55928 0.0
C1728 C 0.71028 0.9297 0.59229 0.0
C1729 C 0.70987 0.91193 0.57017 0.0
C1730 C 0.71475 0.91909 0.62006 0.0
C1731 C 0.72163 0.94961 0.63019 0.0
N1732 N 0.71047 0.91473 0.58614 0.0
N1733 N 0.71663 0.94693 0.61504 0.0
H1734 H 0.77849 0.57757 0.45509 0.0
H1735 H 0.72399 0.62838 0.39559 0.0
H1736 H 0.75252 0.55744 0.41585 0.0
H1737 H 0.75208 0.64935 0.43283 0.0
H1738 H 0.73256 0.60207 0.40444 0.0
H1739 H 0.76734 0.60367 0.44857 0.0
C1740 C 0.7704 0.57861 0.44514 0.0
C1741 C 0.76651 0.56528 0.43594 0.0
C1742 C 0.7368 0.61241 0.41075 0.0
C1743 C 0.7537 0.59516 0.42843 0.0
C1744 C 0.73188 0.62746 0.40572 0.0
C1745 C 0.7374 0.64113 0.41341 0.0
C1746 C 0.74736 0.61095 0.42357 0.0
C1747 C 0.74756 0.63916 0.4265 0.0
C1748 C 0.76404 0.59353 0.44143 0.0
C1749 C 0.75592 0.56737 0.42323 0.0
N1750 N 0.75229 0.62435 0.43111 0.0
N1751 N 0.74994 0.58202 0.41983 0.0
H1752 H 0.93538 0.62979 0.91068 0.0
H1753 H 0.90725 0.54098 0.89254 0.0
H1754 H 0.88742 0.61334 0.91695 0.0
H1755 H 0.95492 0.55748 0.88435 0.0
H1756 H 0.90047 0.56677 0.90389 0.0
H1757 H 0.94336 0.60286 0.90314 0.0
C1758 C 0.92653 0.62051 0.91054 0.0
C1759 C 0.91068 0.62387 0.91436 0.0
C1760 C 0.91245 0.56474 0.89972 0.0
C1761 C 0.91974 0.59301 0.90575 0.0
C1762 C 0.91635 0.54997 0.89325 0.0
C1763 C 0.93165 0.54709 0.88735 0.0
C1764 C 0.92391 0.57676 0.90026 0.0
C1765 C 0.94295 0.5592 0.88868 0.0
C1766 C 0.9311 0.60514 0.90624 0.0
C1767 C 0.89975 0.61135 0.91402 0.0
N1768 N 0.93882 0.57354 0.89488 0.0
N1769 N 0.90448 0.59651 0.90972 0.0
H1770 H 0.73888 0.28643 0.11205 0.0
H1771 H 0.77337 0.21965 0.05348 0.0
H1772 H 0.74457 0.23719 0.12577 0.0
H1773 H 0.76892 0.26926 0.04074 0.0
H1774 H 0.76086 0.22533 0.07925 0.0
H1775 H 0.74807 0.27988 0.08521 0.0
C1776 C 0.74201 0.27422 0.10942 0.0
C1777 C 0.74103 0.26236 0.12123 0.0
C1778 C 0.76253 0.23495 0.07077 0.0
C1779 C 0.75159 0.25477 0.09044 0.0
C1780 C 0.76964 0.2317 0.05603 0.0
C1781 C 0.77231 0.24402 0.04496 0.0
C1782 C 0.75808 0.25061 0.07448 0.0
C1783 C 0.7672 0.2594 0.04892 0.0
C1784 C 0.74726 0.27049 0.09406 0.0
C1785 C 0.7452 0.24674 0.11707 0.0
N1786 N 0.76042 0.26227 0.06337 0.0
N1787 N 0.75036 0.24341 0.10204 0.0
H1788 H 0.94562 0.92192 0.6211 0.0
H1789 H 0.92912 0.89646 0.53099 0.0
H1790 H 0.93492 0.87395 0.6068 0.0
H1791 H 0.93464 0.94503 0.54633 0.0
H1792 H 0.93635 0.8874 0.55777 0.0
H1793 H 0.94678 0.9298 0.59303 0.0
C1794 C 0.94373 0.91298 0.61206 0.0
C1795 C 0.93992 0.89729 0.61634 0.0
C1796 C 0.93617 0.90003 0.55522 0.0
C1797 C 0.94113 0.90629 0.58412 0.0
C1798 C 0.93209 0.90523 0.5399 0.0
C1799 C 0.93103 0.92155 0.53646 0.0
C1800 C 0.93922 0.91123 0.56718 0.0
C1801 C 0.93511 0.93234 0.54848 0.0
C1802 C 0.94436 0.91751 0.59601 0.0
C1803 C 0.93773 0.88621 0.60407 0.0
N1804 N 0.93885 0.92699 0.56334 0.0
N1805 N 0.93818 0.89096 0.58853 0.0
H1806 H 0.89679 0.62781 0.75715 0.0
H1807 H 0.93494 0.54325 0.7358 0.0
H1808 H 0.94656 0.61714 0.76191 0.0
H1809 H 0.88511 0.55404 0.73198 0.0
H1810 H 0.93978 0.57075 0.7436 0.0
H1811 H 0.8927 0.60146 0.74592 0.0
C1812 C 0.9069 0.61998 0.75572 0.0
C1813 C 0.92203 0.62467 0.7606 0.0
C1814 C 0.9278 0.56712 0.74099 0.0
C1815 C 0.91739 0.59437 0.74782 0.0
C1816 C 0.92502 0.5514 0.73654 0.0
C1817 C 0.90957 0.54628 0.73331 0.0
C1818 C 0.91505 0.57782 0.74224 0.0
C1819 C 0.8972 0.55742 0.73442 0.0
C1820 C 0.90454 0.6049 0.74932 0.0
C1821 C 0.93468 0.61401 0.75837 0.0
N1822 N 0.9002 0.57262 0.73885 0.0
N1823 N 0.93205 0.59932 0.75225 0.0
loop_
_geom_bond_atom_site_label_1
_geom_bond_atom_site_label_2
_geom_bond_distance
_geom_bond_site_symmetry_2
_ccdc_geom_bond_type
O0 Cd1 2.300 . S
O0 C7 1.275 . S
Cd1 O0 2.300 . S
Cd1 O9 2.381 . S
Cd1 O10 2.378 . S
O2 Cd3 2.385 . S
O2 C7 1.255 1_455 S
Cd3 O2 2.385 . S
Cd3 O4 2.317 . S
O4 Cd3 2.317 . S
O4 C5 1.232 . S
C5 O4 1.232 . S
C5 O6 1.218 . S
O6 C5 1.218 . S
C7 O0 1.275 . S
C7 O2 1.255 1_655 S
C8 O9 1.258 . S
C8 O10 1.256 . S
O9 Cd1 2.381 . S
O9 C8 1.258 . S
O10 Cd1 2.378 . S
O10 C8 1.256 . S
O11 Cd12 2.300 . S
O11 C18 1.275 . S
Cd12 O11 2.300 . S
Cd12 O20 2.381 . S
Cd12 O21 2.378 . S
O13 Cd14 2.385 . S
O13 C18 1.255 1_455 S
Cd14 O13 2.385 . S
Cd14 O15 2.317 . S
O15 Cd14 2.317 . S
O15 C16 1.232 . S
C16 O15 1.232 . S
C16 O17 1.218 . S
O17 C16 1.218 . S
C18 O11 1.275 . S
C18 O13 1.255 1_655 S
C19 O20 1.258 . S
C19 O21 1.256 . S
O20 Cd12 2.381 . S
O20 C19 1.258 . S
O21 Cd12 2.378 . S
O21 C19 1.256 . S
O22 Cd23 2.300 . S
O22 C29 1.275 . S
Cd23 O22 2.300 . S
Cd23 O31 2.381 . S
Cd23 O32 2.378 . S
O24 Cd25 2.385 . S
O24 C29 1.255 . S
Cd25 O24 2.385 . S
Cd25 O26 2.317 . S
O26 Cd25 2.317 . S
O26 C27 1.232 . S
C27 O26 1.232 . S
C27 O28 1.218 . S
O28 C27 1.218 . S
C29 O22 1.275 . S
C29 O24 1.255 . S
C30 O31 1.258 . S
C30 O32 1.256 . S
O31 Cd23 2.381 . S
O31 C30 1.258 . S
O32 Cd23 2.378 . S
O32 C30 1.256 . S
O33 Cd34 2.300 . S
O33 C40 1.275 . S
Cd34 O33 2.300 . S
Cd34 O42 2.381 . S
Cd34 O43 2.378 . S
O35 Cd36 2.385 . S
O35 C40 1.255 . S
Cd36 O35 2.385 . S
Cd36 O37 2.317 . S
O37 Cd36 2.317 . S
O37 C38 1.232 . S
C38 O37 1.232 . S
C38 O39 1.218 . S
O39 C38 1.218 . S
C40 O33 1.275 . S
C40 O35 1.255 . S
C41 O42 1.258 . S
C41 O43 1.256 . S
O42 Cd34 2.381 . S
O42 C41 1.258 . S
O43 Cd34 2.378 . S
O43 C41 1.256 . S
O44 Cd45 2.300 . S
O44 C51 1.275 . S
Cd45 O44 2.300 . S
Cd45 O53 2.381 . S
Cd45 O54 2.378 . S
O46 Cd47 2.385 . S
O46 C51 1.255 1_455 S
Cd47 O46 2.385 . S
Cd47 O48 2.317 . S
O48 Cd47 2.317 . S
O48 C49 1.232 . S
C49 O48 1.232 . S
C49 O50 1.218 . S
O50 C49 1.218 . S
C51 O44 1.275 . S
C51 O46 1.255 1_655 S
C52 O53 1.258 . S
C52 O54 1.256 . S
O53 Cd45 2.381 . S
O53 C52 1.258 . S
O54 Cd45 2.378 . S
O54 C52 1.256 . S
O55 Cd56 2.300 . S
O55 C62 1.275 . S
Cd56 O55 2.300 . S
Cd56 O64 2.381 . S
Cd56 O65 2.378 . S
O57 Cd58 2.385 . S
O57 C62 1.255 . S
Cd58 O57 2.385 . S
Cd58 O59 2.317 . S
O59 Cd58 2.317 . S
O59 C60 1.232 . S
C60 O59 1.232 . S
C60 O61 1.218 . S
O61 C60 1.218 . S
C62 O55 1.275 . S
C62 O57 1.255 . S
C63 O64 1.258 . S
C63 O65 1.256 . S
O64 Cd56 2.381 . S
O64 C63 1.258 . S
O65 Cd56 2.378 . S
O65 C63 1.256 . S
O66 Cd67 2.300 . S
O66 C73 1.275 . S
Cd67 O66 2.300 . S
Cd67 O75 2.381 . S
Cd67 O76 2.378 . S
O68 Cd69 2.385 . S
O68 C73 1.255 . S
Cd69 O68 2.385 . S
Cd69 O70 2.317 . S
O70 Cd69 2.317 . S
O70 C71 1.232 . S
C71 O70 1.232 . S
C71 O72 1.218 . S
O72 C71 1.218 . S
C73 O66 1.275 . S
C73 O68 1.255 . S
C74 O75 1.258 . S
C74 O76 1.256 . S
O75 Cd67 2.381 . S
O75 C74 1.258 . S
O76 Cd67 2.378 . S
O76 C74 1.256 . S
O77 Cd78 2.300 . S
O77 C84 1.275 . S
Cd78 O77 2.300 . S
Cd78 O86 2.381 . S
Cd78 O87 2.378 . S
O79 Cd80 2.385 . S
O79 C84 1.255 1_455 S
Cd80 O79 2.385 . S
Cd80 O81 2.317 . S
O81 Cd80 2.317 . S
O81 C82 1.232 . S
C82 O81 1.232 . S
C82 O83 1.218 . S
O83 C82 1.218 . S
C84 O77 1.275 . S
C84 O79 1.255 1_655 S
C85 O86 1.258 . S
C85 O87 1.256 . S
O86 Cd78 2.381 . S
O86 C85 1.258 . S
O87 Cd78 2.378 . S
O87 C85 1.256 . S
O88 Cd89 2.300 . S
O88 C95 1.275 . S
Cd89 O88 2.300 . S
Cd89 O97 2.381 . S
Cd89 O98 2.378 . S
O90 Cd91 2.385 . S
O90 C95 1.255 1_545 S
Cd91 O90 2.385 . S
Cd91 O92 2.317 . S
O92 Cd91 2.317 . S
O92 C93 1.232 . S
C93 O92 1.232 . S
C93 O94 1.218 . S
O94 C93 1.218 . S
C95 O88 1.275 . S
C95 O90 1.255 1_565 S
C96 O97 1.258 . S
C96 O98 1.256 . S
O97 Cd89 2.381 . S
O97 C96 1.258 . S
O98 Cd89 2.378 . S
O98 C96 1.256 . S
O99 Cd100 2.300 . S
O99 C106 1.275 . S
Cd100 O99 2.300 . S
Cd100 O108 2.381 . S
Cd100 O109 2.378 . S
O101 Cd102 2.385 . S
O101 C106 1.255 . S
Cd102 O101 2.385 . S
Cd102 O103 2.317 . S
O103 Cd102 2.317 . S
O103 C104 1.232 . S
C104 O103 1.232 . S
C104 O105 1.218 . S
O105 C104 1.218 . S
C106 O99 1.275 . S
C106 O101 1.255 . S
C107 O108 1.258 . S
C107 O109 1.256 . S
O108 Cd100 2.381 . S
O108 C107 1.258 . S
O109 Cd100 2.378 . S
O109 C107 1.256 . S
O110 Cd111 2.300 . S
O110 C117 1.275 . S
Cd111 O110 2.300 . S
Cd111 O119 2.381 . S
Cd111 O120 2.378 . S
O112 Cd113 2.385 . S
O112 C117 1.255 . S
Cd113 O112 2.385 . S
Cd113 O114 2.317 . S
O114 Cd113 2.317 . S
O114 C115 1.232 . S
C115 O114 1.232 . S
C115 O116 1.218 . S
O116 C115 1.218 . S
C117 O110 1.275 . S
C117 O112 1.255 . S
C118 O119 1.258 . S
C118 O120 1.256 . S
O119 Cd111 2.381 . S
O119 C118 1.258 . S
O120 Cd111 2.378 . S
O120 C118 1.256 . S
O121 Cd122 2.300 . S
O121 C128 1.275 . S
Cd122 O121 2.300 . S
Cd122 O130 2.381 . S
Cd122 O131 2.378 . S
O123 Cd124 2.385 . S
O123 C128 1.255 . S
Cd124 O123 2.385 . S
Cd124 O125 2.317 . S
O125 Cd124 2.317 . S
O125 C126 1.232 . S
C126 O125 1.232 . S
C126 O127 1.218 . S
O127 C126 1.218 . S
C128 O121 1.275 . S
C128 O123 1.255 . S
C129 O130 1.258 . S
C129 O131 1.256 . S
O130 Cd122 2.381 . S
O130 C129 1.258 . S
O131 Cd122 2.378 . S
O131 C129 1.256 . S
O132 Cd133 2.300 . S
O132 C139 1.275 . S
Cd133 O132 2.300 . S
Cd133 O141 2.381 . S
Cd133 O142 2.378 . S
O134 Cd135 2.385 . S
O134 C139 1.255 . S
Cd135 O134 2.385 . S
Cd135 O136 2.317 . S
O136 Cd135 2.317 . S
O136 C137 1.232 . S
C137 O136 1.232 . S
C137 O138 1.218 . S
O138 C137 1.218 . S
C139 O132 1.275 . S
C139 O134 1.255 . S
C140 O141 1.258 . S
C140 O142 1.256 . S
O141 Cd133 2.381 . S
O141 C140 1.258 . S
O142 Cd133 2.378 . S
O142 C140 1.256 . S
O143 Cd144 2.300 . S
O143 C150 1.275 . S
Cd144 O143 2.300 . S
Cd144 O152 2.381 . S
Cd144 O153 2.378 . S
O145 Cd146 2.385 . S
O145 C150 1.255 . S
Cd146 O145 2.385 . S
Cd146 O147 2.317 . S
O147 Cd146 2.317 . S
O147 C148 1.232 . S
C148 O147 1.232 . S
C148 O149 1.218 . S
O149 C148 1.218 . S
C150 O143 1.275 . S
C150 O145 1.255 . S
C151 O152 1.258 . S
C151 O153 1.256 . S
O152 Cd144 2.381 . S
O152 C151 1.258 . S
O153 Cd144 2.378 . S
O153 C151 1.256 . S
O154 Cd155 2.300 . S
O154 C161 1.275 . S
Cd155 O154 2.300 . S
Cd155 O163 2.381 . S
Cd155 O164 2.378 . S
O156 Cd157 2.385 . S
O156 C161 1.255 1_545 S
Cd157 O156 2.385 . S
Cd157 O158 2.317 . S
O158 Cd157 2.317 . S
O158 C159 1.232 . S
C159 O158 1.232 . S
C159 O160 1.218 . S
O160 C159 1.218 . S
C161 O154 1.275 . S
C161 O156 1.255 1_565 S
C162 O163 1.258 . S
C162 O164 1.256 . S
O163 Cd155 2.381 . S
O163 C162 1.258 . S
O164 Cd155 2.378 . S
O164 C162 1.256 . S
O165 Cd166 2.300 . S
O165 C172 1.275 . S
Cd166 O165 2.300 . S
Cd166 O174 2.381 . S
Cd166 O175 2.378 . S
O167 Cd168 2.385 . S
O167 C172 1.255 1_554 S
Cd168 O167 2.385 . S
Cd168 O169 2.317 . S
O169 Cd168 2.317 . S
O169 C170 1.232 . S
C170 O169 1.232 . S
C170 O171 1.218 . S
O171 C170 1.218 . S
C172 O165 1.275 . S
C172 O167 1.255 1_556 S
C173 O174 1.258 . S
C173 O175 1.256 . S
O174 Cd166 2.381 . S
O174 C173 1.258 . S
O175 Cd166 2.378 . S
O175 C173 1.256 . S
O176 Cd177 2.300 . S
O176 C183 1.275 . S
Cd177 O176 2.300 . S
Cd177 O185 2.381 . S
Cd177 O186 2.378 . S
O178 Cd179 2.385 . S
O178 C183 1.255 1_554 S
Cd179 O178 2.385 . S
Cd179 O180 2.317 . S
O180 Cd179 2.317 . S
O180 C181 1.232 . S
C181 O180 1.232 . S
C181 O182 1.218 . S
O182 C181 1.218 . S
C183 O176 1.275 . S
C183 O178 1.255 1_556 S
C184 O185 1.258 . S
C184 O186 1.256 . S
O185 Cd177 2.381 . S
O185 C184 1.258 . S
O186 Cd177 2.378 . S
O186 C184 1.256 . S
O187 Cd188 2.300 . S
O187 C194 1.275 . S
Cd188 O187 2.300 . S
Cd188 O196 2.381 . S
Cd188 O197 2.378 . S
O189 Cd190 2.385 . S
O189 C194 1.255 . S
Cd190 O189 2.385 . S
Cd190 O191 2.317 . S
O191 Cd190 2.317 . S
O191 C192 1.232 . S
C192 O191 1.232 . S
C192 O193 1.218 . S
O193 C192 1.218 . S
C194 O187 1.275 . S
C194 O189 1.255 . S
C195 O196 1.258 . S
C195 O197 1.256 . S
O196 Cd188 2.381 . S
O196 C195 1.258 . S
O197 Cd188 2.378 . S
O197 C195 1.256 . S
O198 Cd199 2.300 . S
O198 C205 1.275 . S
Cd199 O198 2.300 . S
Cd199 O207 2.381 . S
Cd199 O208 2.378 . S
O200 Cd201 2.385 . S
O200 C205 1.255 . S
Cd201 O200 2.385 . S
Cd201 O202 2.317 . S
O202 Cd201 2.317 . S
O202 C203 1.232 . S
C203 O202 1.232 . S
C203 O204 1.218 . S
O204 C203 1.218 . S
C205 O198 1.275 . S
C205 O200 1.255 . S
C206 O207 1.258 . S
C206 O208 1.256 . S
O207 Cd199 2.381 . S
O207 C206 1.258 . S
O208 Cd199 2.378 . S
O208 C206 1.256 . S
O209 Cd210 2.300 . S
O209 C216 1.275 . S
Cd210 O209 2.300 . S
Cd210 O218 2.381 . S
Cd210 O219 2.378 . S
O211 Cd212 2.385 . S
O211 C216 1.255 . S
Cd212 O211 2.385 . S
Cd212 O213 2.317 . S
O213 Cd212 2.317 . S
O213 C214 1.232 . S
C214 O213 1.232 . S
C214 O215 1.218 . S
O215 C214 1.218 . S
C216 O209 1.275 . S
C216 O211 1.255 . S
C217 O218 1.258 . S
C217 O219 1.256 . S
O218 Cd210 2.381 . S
O218 C217 1.258 . S
O219 Cd210 2.378 . S
O219 C217 1.256 . S
O220 Cd221 2.300 . S
O220 C227 1.275 . S
Cd221 O220 2.300 . S
Cd221 O229 2.381 . S
Cd221 O230 2.378 . S
O222 Cd223 2.385 . S
O222 C227 1.255 1_545 S
Cd223 O222 2.385 . S
Cd223 O224 2.317 . S
O224 Cd223 2.317 . S
O224 C225 1.232 . S
C225 O224 1.232 . S
C225 O226 1.218 . S
O226 C225 1.218 . S
C227 O220 1.275 . S
C227 O222 1.255 1_565 S
C228 O229 1.258 . S
C228 O230 1.256 . S
O229 Cd221 2.381 . S
O229 C228 1.258 . S
O230 Cd221 2.378 . S
O230 C228 1.256 . S
O231 Cd232 2.300 . S
O231 C238 1.275 . S
Cd232 O231 2.300 . S
Cd232 O240 2.381 . S
Cd232 O241 2.378 . S
O233 Cd234 2.385 . S
O233 C238 1.255 . S
Cd234 O233 2.385 . S
Cd234 O235 2.317 . S
O235 Cd234 2.317 . S
O235 C236 1.232 . S
C236 O235 1.232 . S
C236 O237 1.218 . S
O237 C236 1.218 . S
C238 O231 1.275 . S
C238 O233 1.255 . S
C239 O240 1.258 . S
C239 O241 1.256 . S
O240 Cd232 2.381 . S
O240 C239 1.258 . S
O241 Cd232 2.378 . S
O241 C239 1.256 . S
O242 Cd243 2.300 . S
O242 C249 1.275 . S
Cd243 O242 2.300 . S
Cd243 O251 2.381 . S
Cd243 O252 2.378 . S
O244 Cd245 2.385 . S
O244 C249 1.255 . S
Cd245 O244 2.385 . S
Cd245 O246 2.317 . S
O246 Cd245 2.317 . S
O246 C247 1.232 . S
C247 O246 1.232 . S
C247 O248 1.218 . S
O248 C247 1.218 . S
C249 O242 1.275 . S
C249 O244 1.255 . S
C250 O251 1.258 . S
C250 O252 1.256 . S
O251 Cd243 2.381 . S
O251 C250 1.258 . S
O252 Cd243 2.378 . S
O252 C250 1.256 . S
O253 Cd254 2.300 . S
O253 C260 1.275 . S
Cd254 O253 2.300 . S
Cd254 O262 2.381 . S
Cd254 O263 2.378 . S
O255 Cd256 2.385 . S
O255 C260 1.255 . S
Cd256 O255 2.385 . S
Cd256 O257 2.317 . S
O257 Cd256 2.317 . S
O257 C258 1.232 . S
C258 O257 1.232 . S
C258 O259 1.218 . S
O259 C258 1.218 . S
C260 O253 1.275 . S
C260 O255 1.255 . S
C261 O262 1.258 . S
C261 O263 1.256 . S
O262 Cd254 2.381 . S
O262 C261 1.258 . S
O263 Cd254 2.378 . S
O263 C261 1.256 . S
O264 Cd265 2.300 . S
O264 C271 1.275 . S
Cd265 O264 2.300 . S
Cd265 O273 2.381 . S
Cd265 O274 2.378 . S
O266 Cd267 2.385 . S
O266 C271 1.255 . S
Cd267 O266 2.385 . S
Cd267 O268 2.317 . S
O268 Cd267 2.317 . S
O268 C269 1.232 . S
C269 O268 1.232 . S
C269 O270 1.218 . S
O270 C269 1.218 . S
C271 O264 1.275 . S
C271 O266 1.255 . S
C272 O273 1.258 . S
C272 O274 1.256 . S
O273 Cd265 2.381 . S
O273 C272 1.258 . S
O274 Cd265 2.378 . S
O274 C272 1.256 . S
O275 Cd276 2.300 . S
O275 C282 1.275 . S
Cd276 O275 2.300 . S
Cd276 O284 2.381 . S
Cd276 O285 2.378 . S
O277 Cd278 2.385 . S
O277 C282 1.255 . S
Cd278 O277 2.385 . S
Cd278 O279 2.317 . S
O279 Cd278 2.317 . S
O279 C280 1.232 . S
C280 O279 1.232 . S
C280 O281 1.218 . S
O281 C280 1.218 . S
C282 O275 1.275 . S
C282 O277 1.255 . S
C283 O284 1.258 . S
C283 O285 1.256 . S
O284 Cd276 2.381 . S
O284 C283 1.258 . S
O285 Cd276 2.378 . S
O285 C283 1.256 . S
O286 Cd287 2.300 . S
O286 C293 1.275 . S
Cd287 O286 2.300 . S
Cd287 O295 2.381 . S
Cd287 O296 2.378 . S
O288 Cd289 2.385 . S
O288 C293 1.255 . S
Cd289 O288 2.385 . S
Cd289 O290 2.317 . S
O290 Cd289 2.317 . S
O290 C291 1.232 . S
C291 O290 1.232 . S
C291 O292 1.218 . S
O292 C291 1.218 . S
C293 O286 1.275 . S
C293 O288 1.255 . S
C294 O295 1.258 . S
C294 O296 1.256 . S
O295 Cd287 2.381 . S
O295 C294 1.258 . S
O296 Cd287 2.378 . S
O296 C294 1.256 . S
O297 Cd298 2.300 . S
O297 C304 1.275 . S
Cd298 O297 2.300 . S
Cd298 O306 2.381 . S
Cd298 O307 2.378 . S
O299 Cd300 2.385 . S
O299 C304 1.255 . S
Cd300 O299 2.385 . S
Cd300 O301 2.317 . S
O301 Cd300 2.317 . S
O301 C302 1.232 . S
C302 O301 1.232 . S
C302 O303 1.218 . S
O303 C302 1.218 . S
C304 O297 1.275 . S
C304 O299 1.255 . S
C305 O306 1.258 . S
C305 O307 1.256 . S
O306 Cd298 2.381 . S
O306 C305 1.258 . S
O307 Cd298 2.378 . S
O307 C305 1.256 . S
O308 Cd309 2.300 . S
O308 C315 1.275 . S
Cd309 O308 2.300 . S
Cd309 O317 2.381 . S
Cd309 O318 2.378 . S
O310 Cd311 2.385 . S
O310 C315 1.255 . S
Cd311 O310 2.385 . S
Cd311 O312 2.317 . S
O312 Cd311 2.317 . S
O312 C313 1.232 . S
C313 O312 1.232 . S
C313 O314 1.218 . S
O314 C313 1.218 . S
C315 O308 1.275 . S
C315 O310 1.255 . S
C316 O317 1.258 . S
C316 O318 1.256 . S
O317 Cd309 2.381 . S
O317 C316 1.258 . S
O318 Cd309 2.378 . S
O318 C316 1.256 . S
O319 Cd320 2.300 . S
O319 C326 1.275 . S
Cd320 O319 2.300 . S
Cd320 O328 2.381 . S
Cd320 O329 2.378 . S
O321 Cd322 2.385 . S
O321 C326 1.255 . S
Cd322 O321 2.385 . S
Cd322 O323 2.317 . S
O323 Cd322 2.317 . S
O323 C324 1.232 . S
C324 O323 1.232 . S
C324 O325 1.218 . S
O325 C324 1.218 . S
C326 O319 1.275 . S
C326 O321 1.255 . S
C327 O328 1.258 . S
C327 O329 1.256 . S
O328 Cd320 2.381 . S
O328 C327 1.258 . S
O329 Cd320 2.378 . S
O329 C327 1.256 . S
O330 Cd331 2.300 . S
O330 C337 1.275 . S
Cd331 O330 2.300 . S
Cd331 O339 2.381 . S
Cd331 O340 2.378 . S
O332 Cd333 2.385 . S
O332 C337 1.255 . S
Cd333 O332 2.385 . S
Cd333 O334 2.317 . S
O334 Cd333 2.317 . S
O334 C335 1.232 . S
C335 O334 1.232 . S
C335 O336 1.218 . S
O336 C335 1.218 . S
C337 O330 1.275 . S
C337 O332 1.255 . S
C338 O339 1.258 . S
C338 O340 1.256 . S
O339 Cd331 2.381 . S
O339 C338 1.258 . S
O340 Cd331 2.378 . S
O340 C338 1.256 . S
O341 Cd342 2.300 . S
O341 C348 1.275 . S
Cd342 O341 2.300 . S
Cd342 O350 2.381 . S
Cd342 O351 2.378 . S
O343 Cd344 2.385 . S
O343 C348 1.255 . S
Cd344 O343 2.385 . S
Cd344 O345 2.317 . S
O345 Cd344 2.317 . S
O345 C346 1.232 . S
C346 O345 1.232 . S
C346 O347 1.218 . S
O347 C346 1.218 . S
C348 O341 1.275 . S
C348 O343 1.255 . S
C349 O350 1.258 . S
C349 O351 1.256 . S
O350 Cd342 2.381 . S
O350 C349 1.258 . S
O351 Cd342 2.378 . S
O351 C349 1.256 . S
O352 Cd353 2.300 . S
O352 C359 1.275 . S
Cd353 O352 2.300 . S
Cd353 O361 2.381 . S
Cd353 O362 2.378 . S
O354 Cd355 2.385 . S
O354 C359 1.255 . S
Cd355 O354 2.385 . S
Cd355 O356 2.317 . S
O356 Cd355 2.317 . S
O356 C357 1.232 . S
C357 O356 1.232 . S
C357 O358 1.218 . S
O358 C357 1.218 . S
C359 O352 1.275 . S
C359 O354 1.255 . S
C360 O361 1.258 . S
C360 O362 1.256 . S
O361 Cd353 2.381 . S
O361 C360 1.258 . S
O362 Cd353 2.378 . S
O362 C360 1.256 . S
O363 Cd364 2.300 . S
O363 C370 1.275 . S
Cd364 O363 2.300 . S
Cd364 O372 2.381 . S
Cd364 O373 2.378 . S
O365 Cd366 2.385 . S
O365 C370 1.255 . S
Cd366 O365 2.385 . S
Cd366 O367 2.317 . S
O367 Cd366 2.317 . S
O367 C368 1.232 . S
C368 O367 1.232 . S
C368 O369 1.218 . S
O369 C368 1.218 . S
C370 O363 1.275 . S
C370 O365 1.255 . S
C371 O372 1.258 . S
C371 O373 1.256 . S
O372 Cd364 2.381 . S
O372 C371 1.258 . S
O373 Cd364 2.378 . S
O373 C371 1.256 . S
O374 Cd375 2.300 . S
O374 C381 1.275 . S
Cd375 O374 2.300 . S
Cd375 O383 2.381 . S
Cd375 O384 2.378 . S
O376 Cd377 2.385 . S
O376 C381 1.255 . S
Cd377 O376 2.385 . S
Cd377 O378 2.317 . S
O378 Cd377 2.317 . S
O378 C379 1.232 . S
C379 O378 1.232 . S
C379 O380 1.218 . S
O380 C379 1.218 . S
C381 O374 1.275 . S
C381 O376 1.255 . S
C382 O383 1.258 . S
C382 O384 1.256 . S
O383 Cd375 2.381 . S
O383 C382 1.258 . S
O384 Cd375 2.378 . S
O384 C382 1.256 . S
O385 Cd386 2.300 . S
O385 C392 1.275 . S
Cd386 O385 2.300 . S
Cd386 O394 2.381 . S
Cd386 O395 2.378 . S
O387 Cd388 2.385 . S
O387 C392 1.255 . S
Cd388 O387 2.385 . S
Cd388 O389 2.317 . S
O389 Cd388 2.317 . S
O389 C390 1.232 . S
C390 O389 1.232 . S
C390 O391 1.218 . S
O391 C390 1.218 . S
C392 O385 1.275 . S
C392 O387 1.255 . S
C393 O394 1.258 . S
C393 O395 1.256 . S
O394 Cd386 2.381 . S
O394 C393 1.258 . S
O395 Cd386 2.378 . S
O395 C393 1.256 . S
O396 Cd397 2.300 . S
O396 C403 1.275 . S
Cd397 O396 2.300 . S
Cd397 O405 2.381 . S
Cd397 O406 2.378 . S
O398 Cd399 2.385 . S
O398 C403 1.255 . S
Cd399 O398 2.385 . S
Cd399 O400 2.317 . S
O400 Cd399 2.317 . S
O400 C401 1.232 . S
C401 O400 1.232 . S
C401 O402 1.218 . S
O402 C401 1.218 . S
C403 O396 1.275 . S
C403 O398 1.255 . S
C404 O405 1.258 . S
C404 O406 1.256 . S
O405 Cd397 2.381 . S
O405 C404 1.258 . S
O406 Cd397 2.378 . S
O406 C404 1.256 . S
O407 Cd408 2.300 . S
O407 C414 1.275 . S
Cd408 O407 2.300 . S
Cd408 O416 2.381 . S
Cd408 O417 2.378 . S
O409 Cd410 2.385 . S
O409 C414 1.255 1_554 S
Cd410 O409 2.385 . S
Cd410 O411 2.317 . S
O411 Cd410 2.317 . S
O411 C412 1.232 . S
C412 O411 1.232 . S
C412 O413 1.218 . S
O413 C412 1.218 . S
C414 O407 1.275 . S
C414 O409 1.255 1_556 S
C415 O416 1.258 . S
C415 O417 1.256 . S
O416 Cd408 2.381 . S
O416 C415 1.258 . S
O417 Cd408 2.378 . S
O417 C415 1.256 . S
O418 Cd419 2.300 . S
O418 C425 1.275 . S
Cd419 O418 2.300 . S
Cd419 O427 2.381 . S
Cd419 O428 2.378 . S
O420 Cd421 2.385 . S
O420 C425 1.255 . S
Cd421 O420 2.385 . S
Cd421 O422 2.317 . S
O422 Cd421 2.317 . S
O422 C423 1.232 . S
C423 O422 1.232 . S
C423 O424 1.218 . S
O424 C423 1.218 . S
C425 O418 1.275 . S
C425 O420 1.255 . S
C426 O427 1.258 . S
C426 O428 1.256 . S
O427 Cd419 2.381 . S
O427 C426 1.258 . S
O428 Cd419 2.378 . S
O428 C426 1.256 . S
O429 Cd430 2.300 . S
O429 C436 1.275 . S
Cd430 O429 2.300 . S
Cd430 O438 2.381 . S
Cd430 O439 2.378 . S
O431 Cd432 2.385 . S
O431 C436 1.255 . S
Cd432 O431 2.385 . S
Cd432 O433 2.317 . S
O433 Cd432 2.317 . S
O433 C434 1.232 . S
C434 O433 1.232 . S
C434 O435 1.218 . S
O435 C434 1.218 . S
C436 O429 1.275 . S
C436 O431 1.255 . S
C437 O438 1.258 . S
C437 O439 1.256 . S
O438 Cd430 2.381 . S
O438 C437 1.258 . S
O439 Cd430 2.378 . S
O439 C437 1.256 . S
O440 Cd441 2.300 . S
O440 C447 1.275 . S
Cd441 O440 2.300 . S
Cd441 O449 2.381 . S
Cd441 O450 2.378 . S
O442 Cd443 2.385 . S
O442 C447 1.255 . S
Cd443 O442 2.385 . S
Cd443 O444 2.317 . S
O444 Cd443 2.317 . S
O444 C445 1.232 . S
C445 O444 1.232 . S
C445 O446 1.218 . S
O446 C445 1.218 . S
C447 O440 1.275 . S
C447 O442 1.255 . S
C448 O449 1.258 . S
C448 O450 1.256 . S
O449 Cd441 2.381 . S
O449 C448 1.258 . S
O450 Cd441 2.378 . S
O450 C448 1.256 . S
O451 Cd452 2.300 . S
O451 C458 1.275 . S
Cd452 O451 2.300 . S
Cd452 O460 2.381 . S
Cd452 O461 2.378 . S
O453 Cd454 2.385 . S
O453 C458 1.255 . S
Cd454 O453 2.385 . S
Cd454 O455 2.317 . S
O455 Cd454 2.317 . S
O455 C456 1.232 . S
C456 O455 1.232 . S
C456 O457 1.218 . S
O457 C456 1.218 . S
C458 O451 1.275 . S
C458 O453 1.255 . S
C459 O460 1.258 . S
C459 O461 1.256 . S
O460 Cd452 2.381 . S
O460 C459 1.258 . S
O461 Cd452 2.378 . S
O461 C459 1.256 . S
O462 Cd463 2.300 . S
O462 C469 1.275 . S
Cd463 O462 2.300 . S
Cd463 O471 2.381 . S
Cd463 O472 2.378 . S
O464 Cd465 2.385 . S
O464 C469 1.255 . S
Cd465 O464 2.385 . S
Cd465 O466 2.317 . S
O466 Cd465 2.317 . S
O466 C467 1.232 . S
C467 O466 1.232 . S
C467 O468 1.218 . S
O468 C467 1.218 . S
C469 O462 1.275 . S
C469 O464 1.255 . S
C470 O471 1.258 . S
C470 O472 1.256 . S
O471 Cd463 2.381 . S
O471 C470 1.258 . S
O472 Cd463 2.378 . S
O472 C470 1.256 . S
O473 Cd474 2.300 . S
O473 C480 1.275 . S
Cd474 O473 2.300 . S
Cd474 O482 2.381 . S
Cd474 O483 2.378 . S
O475 Cd476 2.385 . S
O475 C480 1.255 . S
Cd476 O475 2.385 . S
Cd476 O477 2.317 . S
O477 Cd476 2.317 . S
O477 C478 1.232 . S
C478 O477 1.232 . S
C478 O479 1.218 . S
O479 C478 1.218 . S
C480 O473 1.275 . S
C480 O475 1.255 . S
C481 O482 1.258 . S
C481 O483 1.256 . S
O482 Cd474 2.381 . S
O482 C481 1.258 . S
O483 Cd474 2.378 . S
O483 C481 1.256 . S
O484 Cd485 2.300 . S
O484 C491 1.275 . S
Cd485 O484 2.300 . S
Cd485 O493 2.381 . S
Cd485 O494 2.378 . S
O486 Cd487 2.385 . S
O486 C491 1.255 . S
Cd487 O486 2.385 . S
Cd487 O488 2.317 . S
O488 Cd487 2.317 . S
O488 C489 1.232 . S
C489 O488 1.232 . S
C489 O490 1.218 . S
O490 C489 1.218 . S
C491 O484 1.275 . S
C491 O486 1.255 . S
C492 O493 1.258 . S
C492 O494 1.256 . S
O493 Cd485 2.381 . S
O493 C492 1.258 . S
O494 Cd485 2.378 . S
O494 C492 1.256 . S
O495 Cd496 2.300 . S
O495 C502 1.275 . S
Cd496 O495 2.300 . S
Cd496 O504 2.381 . S
Cd496 O505 2.378 . S
O497 Cd498 2.385 . S
O497 C502 1.255 1_554 S
Cd498 O497 2.385 . S
Cd498 O499 2.317 . S
O499 Cd498 2.317 . S
O499 C500 1.232 . S
C500 O499 1.232 . S
C500 O501 1.218 . S
O501 C500 1.218 . S
C502 O495 1.275 . S
C502 O497 1.255 1_556 S
C503 O504 1.258 . S
C503 O505 1.256 . S
O504 Cd496 2.381 . S
O504 C503 1.258 . S
O505 Cd496 2.378 . S
O505 C503 1.256 . S
O506 Cd507 2.300 . S
O506 C513 1.275 . S
Cd507 O506 2.300 . S
Cd507 O515 2.381 . S
Cd507 O516 2.378 . S
O508 Cd509 2.385 . S
O508 C513 1.255 1_545 S
Cd509 O508 2.385 . S
Cd509 O510 2.317 . S
O510 Cd509 2.317 . S
O510 C511 1.232 . S
C511 O510 1.232 . S
C511 O512 1.218 . S
O512 C511 1.218 . S
C513 O506 1.275 . S
C513 O508 1.255 1_565 S
C514 O515 1.258 . S
C514 O516 1.256 . S
O515 Cd507 2.381 . S
O515 C514 1.258 . S
O516 Cd507 2.378 . S
O516 C514 1.256 . S
O517 Cd518 2.300 . S
O517 C524 1.275 . S
Cd518 O517 2.300 . S
Cd518 O526 2.381 . S
Cd518 O527 2.378 . S
O519 Cd520 2.385 . S
O519 C524 1.255 . S
Cd520 O519 2.385 . S
Cd520 O521 2.317 . S
O521 Cd520 2.317 . S
O521 C522 1.232 . S
C522 O521 1.232 . S
C522 O523 1.218 . S
O523 C522 1.218 . S
C524 O517 1.275 . S
C524 O519 1.255 . S
C525 O526 1.258 . S
C525 O527 1.256 . S
O526 Cd518 2.381 . S
O526 C525 1.258 . S
O527 Cd518 2.378 . S
O527 C525 1.256 . S
H528 C534 0.930 . S
H529 C538 0.930 . S
H530 C543 0.929 . S
H531 C541 0.929 . S
H532 C536 0.929 . S
H533 C542 0.929 . S
C534 H528 0.930 . S
C534 C535 1.367 . S
C534 C542 1.378 . S
C535 C534 1.367 . S
C535 C543 1.433 . S
C536 H532 0.929 . S
C536 C538 1.378 . S
C536 C540 1.350 . S
C537 C540 1.463 . S
C537 C542 1.350 . S
C537 N545 1.427 . S
C538 H529 0.930 . S
C538 C536 1.378 . S
C538 C539 1.367 . S
C539 C538 1.367 . S
C539 C541 1.433 . S
C540 C536 1.350 . S
C540 C537 1.463 . S
C540 N544 1.427 . S
C541 H531 0.929 . S
C541 C539 1.433 . S
C541 N544 1.384 . S
C542 H533 0.929 . S
C542 C534 1.378 . S
C542 C537 1.350 . S
C543 H530 0.929 . S
C543 C535 1.433 . S
C543 N545 1.384 . S
N544 C540 1.427 . S
N544 C541 1.384 . S
N545 C537 1.427 . S
N545 C543 1.384 . S
H546 C552 0.930 . S
H547 C556 0.930 . S
H548 C561 0.929 . S
H549 C559 0.929 . S
H550 C554 0.929 . S
H551 C560 0.929 . S
C552 H546 0.930 . S
C552 C553 1.367 . S
C552 C560 1.378 . S
C553 C552 1.367 . S
C553 C561 1.433 . S
C554 H550 0.929 . S
C554 C556 1.378 . S
C554 C558 1.350 . S
C555 C558 1.463 . S
C555 C560 1.350 . S
C555 N563 1.427 . S
C556 H547 0.930 . S
C556 C554 1.378 . S
C556 C557 1.367 . S
C557 C556 1.367 . S
C557 C559 1.433 . S
C558 C554 1.350 . S
C558 C555 1.463 . S
C558 N562 1.427 . S
C559 H549 0.929 . S
C559 C557 1.433 . S
C559 N562 1.384 . S
C560 H551 0.929 . S
C560 C552 1.378 . S
C560 C555 1.350 . S
C561 H548 0.929 . S
C561 C553 1.433 . S
C561 N563 1.384 . S
N562 C558 1.427 . S
N562 C559 1.384 . S
N563 C555 1.427 . S
N563 C561 1.384 . S
H564 C570 0.930 . S
H565 C574 0.930 . S
H566 C579 0.929 . S
H567 C577 0.929 . S
H568 C572 0.929 . S
H569 C578 0.929 . S
C570 H564 0.930 . S
C570 C571 1.367 . S
C570 C578 1.378 . S
C571 C570 1.367 . S
C571 C579 1.433 . S
C572 H568 0.929 . S
C572 C574 1.378 . S
C572 C576 1.350 . S
C573 C576 1.463 . S
C573 C578 1.350 . S
C573 N581 1.427 . S
C574 H565 0.930 . S
C574 C572 1.378 . S
C574 C575 1.367 . S
C575 C574 1.367 . S
C575 C577 1.433 . S
C576 C572 1.350 . S
C576 C573 1.463 . S
C576 N580 1.427 . S
C577 H567 0.929 . S
C577 C575 1.433 . S
C577 N580 1.384 . S
C578 H569 0.929 . S
C578 C570 1.378 . S
C578 C573 1.350 . S
C579 H566 0.929 . S
C579 C571 1.433 . S
C579 N581 1.384 . S
N580 C576 1.427 . S
N580 C577 1.384 . S
N581 C573 1.427 . S
N581 C579 1.384 . S
H582 C588 0.930 . S
H583 C592 0.930 . S
H584 C597 0.929 . S
H585 C595 0.929 . S
H586 C590 0.929 . S
H587 C596 0.929 . S
C588 H582 0.930 . S
C588 C589 1.367 . S
C588 C596 1.378 . S
C589 C588 1.367 . S
C589 C597 1.433 . S
C590 H586 0.929 . S
C590 C592 1.378 . S
C590 C594 1.350 . S
C591 C594 1.463 . S
C591 C596 1.350 . S
C591 N599 1.427 . S
C592 H583 0.930 . S
C592 C590 1.378 . S
C592 C593 1.367 . S
C593 C592 1.367 . S
C593 C595 1.433 . S
C594 C590 1.350 . S
C594 C591 1.463 . S
C594 N598 1.427 . S
C595 H585 0.929 . S
C595 C593 1.433 . S
C595 N598 1.384 . S
C596 H587 0.929 . S
C596 C588 1.378 . S
C596 C591 1.350 . S
C597 H584 0.929 . S
C597 C589 1.433 . S
C597 N599 1.384 . S
N598 C594 1.427 . S
N598 C595 1.384 . S
N599 C591 1.427 . S
N599 C597 1.384 . S
H600 C606 0.930 . S
H601 C610 0.930 . S
H602 C615 0.929 . S
H603 C613 0.929 . S
H604 C608 0.929 . S
H605 C614 0.929 . S
C606 H600 0.930 . S
C606 C607 1.367 . S
C606 C614 1.378 . S
C607 C606 1.367 . S
C607 C615 1.433 . S
C608 H604 0.929 . S
C608 C610 1.378 . S
C608 C612 1.350 . S
C609 C612 1.463 . S
C609 C614 1.350 . S
C609 N617 1.427 . S
C610 H601 0.930 . S
C610 C608 1.378 . S
C610 C611 1.367 . S
C611 C610 1.367 . S
C611 C613 1.433 . S
C612 C608 1.350 . S
C612 C609 1.463 . S
C612 N616 1.427 . S
C613 H603 0.929 . S
C613 C611 1.433 . S
C613 N616 1.384 . S
C614 H605 0.929 . S
C614 C606 1.378 . S
C614 C609 1.350 . S
C615 H602 0.929 . S
C615 C607 1.433 . S
C615 N617 1.384 . S
N616 C612 1.427 . S
N616 C613 1.384 . S
N617 C609 1.427 . S
N617 C615 1.384 . S
H618 C624 0.930 . S
H619 C628 0.930 . S
H620 C633 0.929 . S
H621 C631 0.929 . S
H622 C626 0.929 . S
H623 C632 0.929 . S
C624 H618 0.930 . S
C624 C625 1.367 . S
C624 C632 1.378 . S
C625 C624 1.367 . S
C625 C633 1.433 . S
C626 H622 0.929 . S
C626 C628 1.378 . S
C626 C630 1.350 . S
C627 C630 1.463 . S
C627 C632 1.350 . S
C627 N635 1.427 . S
C628 H619 0.930 . S
C628 C626 1.378 . S
C628 C629 1.367 . S
C629 C628 1.367 . S
C629 C631 1.433 . S
C630 C626 1.350 . S
C630 C627 1.463 . S
C630 N634 1.427 . S
C631 H621 0.929 . S
C631 C629 1.433 . S
C631 N634 1.384 . S
C632 H623 0.929 . S
C632 C624 1.378 . S
C632 C627 1.350 . S
C633 H620 0.929 . S
C633 C625 1.433 . S
C633 N635 1.384 . S
N634 C630 1.427 . S
N634 C631 1.384 . S
N635 C627 1.427 . S
N635 C633 1.384 . S
H636 C642 0.930 . S
H637 C646 0.930 . S
H638 C651 0.929 . S
H639 C649 0.929 . S
H640 C644 0.929 . S
H641 C650 0.929 . S
C642 H636 0.930 . S
C642 C643 1.367 . S
C642 C650 1.378 . S
C643 C642 1.367 . S
C643 C651 1.433 . S
C644 H640 0.929 . S
C644 C646 1.378 . S
C644 C648 1.350 . S
C645 C648 1.463 . S
C645 C650 1.350 . S
C645 N653 1.427 . S
C646 H637 0.930 . S
C646 C644 1.378 . S
C646 C647 1.367 . S
C647 C646 1.367 . S
C647 C649 1.433 . S
C648 C644 1.350 . S
C648 C645 1.463 . S
C648 N652 1.427 . S
C649 H639 0.929 . S
C649 C647 1.433 . S
C649 N652 1.384 . S
C650 H641 0.929 . S
C650 C642 1.378 . S
C650 C645 1.350 . S
C651 H638 0.929 . S
C651 C643 1.433 . S
C651 N653 1.384 . S
N652 C648 1.427 . S
N652 C649 1.384 . S
N653 C645 1.427 . S
N653 C651 1.384 . S
H654 C660 0.930 . S
H655 C664 0.930 . S
H656 C669 0.929 . S
H657 C667 0.929 . S
H658 C662 0.929 . S
H659 C668 0.929 . S
C660 H654 0.930 . S
C660 C661 1.367 . S
C660 C668 1.378 . S
C661 C660 1.367 . S
C661 C669 1.433 . S
C662 H658 0.929 . S
C662 C664 1.378 . S
C662 C666 1.350 . S
C663 C666 1.463 . S
C663 C668 1.350 . S
C663 N671 1.427 . S
C664 H655 0.930 . S
C664 C662 1.378 . S
C664 C665 1.367 . S
C665 C664 1.367 . S
C665 C667 1.433 . S
C666 C662 1.350 . S
C666 C663 1.463 . S
C666 N670 1.427 . S
C667 H657 0.929 . S
C667 C665 1.433 . S
C667 N670 1.384 . S
C668 H659 0.929 . S
C668 C660 1.378 . S
C668 C663 1.350 . S
C669 H656 0.929 . S
C669 C661 1.433 . S
C669 N671 1.384 . S
N670 C666 1.427 . S
N670 C667 1.384 . S
N671 C663 1.427 . S
N671 C669 1.384 . S
H672 C678 0.930 . S
H673 C682 0.930 . S
H674 C687 0.929 . S
H675 C685 0.929 . S
H676 C680 0.929 . S
H677 C686 0.929 . S
C678 H672 0.930 . S
C678 C679 1.367 . S
C678 C686 1.378 . S
C679 C678 1.367 . S
C679 C687 1.433 . S
C680 H676 0.929 . S
C680 C682 1.378 . S
C680 C684 1.350 . S
C681 C684 1.463 . S
C681 C686 1.350 . S
C681 N689 1.427 . S
C682 H673 0.930 . S
C682 C680 1.378 . S
C682 C683 1.367 . S
C683 C682 1.367 . S
C683 C685 1.433 . S
C684 C680 1.350 . S
C684 C681 1.463 . S
C684 N688 1.427 . S
C685 H675 0.929 . S
C685 C683 1.433 . S
C685 N688 1.384 . S
C686 H677 0.929 . S
C686 C678 1.378 . S
C686 C681 1.350 . S
C687 H674 0.929 . S
C687 C679 1.433 . S
C687 N689 1.384 . S
N688 C684 1.427 . S
N688 C685 1.384 . S
N689 C681 1.427 . S
N689 C687 1.384 . S
H690 C696 0.930 . S
H691 C700 0.930 . S
H692 C705 0.929 . S
H693 C703 0.929 . S
H694 C698 0.929 . S
H695 C704 0.929 . S
C696 H690 0.930 . S
C696 C697 1.367 . S
C696 C704 1.378 . S
C697 C696 1.367 . S
C697 C705 1.433 . S
C698 H694 0.929 . S
C698 C700 1.378 . S
C698 C702 1.350 . S
C699 C702 1.463 . S
C699 C704 1.350 . S
C699 N707 1.427 . S
C700 H691 0.930 . S
C700 C698 1.378 . S
C700 C701 1.367 . S
C701 C700 1.367 . S
C701 C703 1.433 . S
C702 C698 1.350 . S
C702 C699 1.463 . S
C702 N706 1.427 . S
C703 H693 0.929 . S
C703 C701 1.433 . S
C703 N706 1.384 . S
C704 H695 0.929 . S
C704 C696 1.378 . S
C704 C699 1.350 . S
C705 H692 0.929 . S
C705 C697 1.433 . S
C705 N707 1.384 . S
N706 C702 1.427 . S
N706 C703 1.384 . S
N707 C699 1.427 . S
N707 C705 1.384 . S
H708 C714 0.930 . S
H709 C718 0.930 . S
H710 C723 0.929 . S
H711 C721 0.929 . S
H712 C716 0.929 . S
H713 C722 0.929 . S
C714 H708 0.930 . S
C714 C715 1.367 . S
C714 C722 1.378 . S
C715 C714 1.367 . S
C715 C723 1.433 . S
C716 H712 0.929 . S
C716 C718 1.378 . S
C716 C720 1.350 . S
C717 C720 1.463 . S
C717 C722 1.350 . S
C717 N725 1.427 . S
C718 H709 0.930 . S
C718 C716 1.378 . S
C718 C719 1.367 . S
C719 C718 1.367 . S
C719 C721 1.433 . S
C720 C716 1.350 . S
C720 C717 1.463 . S
C720 N724 1.427 . S
C721 H711 0.929 . S
C721 C719 1.433 . S
C721 N724 1.384 . S
C722 H713 0.929 . S
C722 C714 1.378 . S
C722 C717 1.350 . S
C723 H710 0.929 . S
C723 C715 1.433 . S
C723 N725 1.384 . S
N724 C720 1.427 . S
N724 C721 1.384 . S
N725 C717 1.427 . S
N725 C723 1.384 . S
H726 C732 0.930 . S
H727 C736 0.930 . S
H728 C741 0.929 . S
H729 C739 0.929 . S
H730 C734 0.929 . S
H731 C740 0.929 . S
C732 H726 0.930 . S
C732 C733 1.367 . S
C732 C740 1.378 . S
C733 C732 1.367 . S
C733 C741 1.433 . S
C734 H730 0.929 . S
C734 C736 1.378 . S
C734 C738 1.350 . S
C735 C738 1.463 . S
C735 C740 1.350 . S
C735 N743 1.427 . S
C736 H727 0.930 . S
C736 C734 1.378 . S
C736 C737 1.367 . S
C737 C736 1.367 . S
C737 C739 1.433 . S
C738 C734 1.350 . S
C738 C735 1.463 . S
C738 N742 1.427 . S
C739 H729 0.929 . S
C739 C737 1.433 . S
C739 N742 1.384 . S
C740 H731 0.929 . S
C740 C732 1.378 . S
C740 C735 1.350 . S
C741 H728 0.929 . S
C741 C733 1.433 . S
C741 N743 1.384 . S
N742 C738 1.427 . S
N742 C739 1.384 . S
N743 C735 1.427 . S
N743 C741 1.384 . S
H744 C750 0.930 . S
H745 C754 0.930 . S
H746 C759 0.929 . S
H747 C757 0.929 . S
H748 C752 0.929 . S
H749 C758 0.929 . S
C750 H744 0.930 . S
C750 C751 1.367 . S
C750 C758 1.378 . S
C751 C750 1.367 . S
C751 C759 1.433 . S
C752 H748 0.929 . S
C752 C754 1.378 . S
C752 C756 1.350 . S
C753 C756 1.463 . S
C753 C758 1.350 . S
C753 N761 1.427 . S
C754 H745 0.930 . S
C754 C752 1.378 . S
C754 C755 1.367 . S
C755 C754 1.367 . S
C755 C757 1.433 . S
C756 C752 1.350 . S
C756 C753 1.463 . S
C756 N760 1.427 . S
C757 H747 0.929 . S
C757 C755 1.433 . S
C757 N760 1.384 . S
C758 H749 0.929 . S
C758 C750 1.378 . S
C758 C753 1.350 . S
C759 H746 0.929 . S
C759 C751 1.433 . S
C759 N761 1.384 . S
N760 C756 1.427 . S
N760 C757 1.384 . S
N761 C753 1.427 . S
N761 C759 1.384 . S
H762 C768 0.930 . S
H763 C772 0.930 . S
H764 C777 0.929 . S
H765 C775 0.929 . S
H766 C770 0.929 . S
H767 C776 0.929 . S
C768 H762 0.930 . S
C768 C769 1.367 . S
C768 C776 1.378 . S
C769 C768 1.367 . S
C769 C777 1.433 . S
C770 H766 0.929 . S
C770 C772 1.378 . S
C770 C774 1.350 . S
C771 C774 1.463 . S
C771 C776 1.350 . S
C771 N779 1.427 . S
C772 H763 0.930 . S
C772 C770 1.378 . S
C772 C773 1.367 . S
C773 C772 1.367 . S
C773 C775 1.433 . S
C774 C770 1.350 . S
C774 C771 1.463 . S
C774 N778 1.427 . S
C775 H765 0.929 . S
C775 C773 1.433 . S
C775 N778 1.384 . S
C776 H767 0.929 . S
C776 C768 1.378 . S
C776 C771 1.350 . S
C777 H764 0.929 . S
C777 C769 1.433 . S
C777 N779 1.384 . S
N778 C774 1.427 . S
N778 C775 1.384 . S
N779 C771 1.427 . S
N779 C777 1.384 . S
H780 C786 0.930 . S
H781 C790 0.930 . S
H782 C795 0.929 . S
H783 C793 0.929 . S
H784 C788 0.929 . S
H785 C794 0.929 . S
C786 H780 0.930 . S
C786 C787 1.367 . S
C786 C794 1.378 . S
C787 C786 1.367 . S
C787 C795 1.433 . S
C788 H784 0.929 . S
C788 C790 1.378 . S
C788 C792 1.350 . S
C789 C792 1.463 . S
C789 C794 1.350 . S
C789 N797 1.427 . S
C790 H781 0.930 . S
C790 C788 1.378 . S
C790 C791 1.367 . S
C791 C790 1.367 . S
C791 C793 1.433 . S
C792 C788 1.350 . S
C792 C789 1.463 . S
C792 N796 1.427 . S
C793 H783 0.929 . S
C793 C791 1.433 . S
C793 N796 1.384 . S
C794 H785 0.929 . S
C794 C786 1.378 . S
C794 C789 1.350 . S
C795 H782 0.929 . S
C795 C787 1.433 . S
C795 N797 1.384 . S
N796 C792 1.427 . S
N796 C793 1.384 . S
N797 C789 1.427 . S
N797 C795 1.384 . S
H798 C804 0.930 . S
H799 C808 0.930 . S
H800 C813 0.929 . S
H801 C811 0.929 . S
H802 C806 0.929 . S
H803 C812 0.929 . S
C804 H798 0.930 . S
C804 C805 1.367 . S
C804 C812 1.378 . S
C805 C804 1.367 . S
C805 C813 1.433 . S
C806 H802 0.929 . S
C806 C808 1.378 . S
C806 C810 1.350 . S
C807 C810 1.463 . S
C807 C812 1.350 . S
C807 N815 1.427 . S
C808 H799 0.930 . S
C808 C806 1.378 . S
C808 C809 1.367 . S
C809 C808 1.367 . S
C809 C811 1.433 . S
C810 C806 1.350 . S
C810 C807 1.463 . S
C810 N814 1.427 . S
C811 H801 0.929 . S
C811 C809 1.433 . S
C811 N814 1.384 . S
C812 H803 0.929 . S
C812 C804 1.378 . S
C812 C807 1.350 . S
C813 H800 0.929 . S
C813 C805 1.433 . S
C813 N815 1.384 . S
N814 C810 1.427 . S
N814 C811 1.384 . S
N815 C807 1.427 . S
N815 C813 1.384 . S
H816 C822 0.930 . S
H817 C826 0.930 . S
H818 C831 0.929 . S
H819 C829 0.929 . S
H820 C824 0.929 . S
H821 C830 0.929 . S
C822 H816 0.930 . S
C822 C823 1.367 . S
C822 C830 1.378 . S
C823 C822 1.367 . S
C823 C831 1.433 . S
C824 H820 0.929 . S
C824 C826 1.378 . S
C824 C828 1.350 . S
C825 C828 1.463 . S
C825 C830 1.350 . S
C825 N833 1.427 . S
C826 H817 0.930 . S
C826 C824 1.378 . S
C826 C827 1.367 . S
C827 C826 1.367 . S
C827 C829 1.433 . S
C828 C824 1.350 . S
C828 C825 1.463 . S
C828 N832 1.427 . S
C829 H819 0.929 . S
C829 C827 1.433 . S
C829 N832 1.384 . S
C830 H821 0.929 . S
C830 C822 1.378 . S
C830 C825 1.350 . S
C831 H818 0.929 . S
C831 C823 1.433 . S
C831 N833 1.384 . S
N832 C828 1.427 . S
N832 C829 1.384 . S
N833 C825 1.427 . S
N833 C831 1.384 . S
H834 C840 0.930 . S
H835 C844 0.930 . S
H836 C849 0.929 . S
H837 C847 0.929 . S
H838 C842 0.929 . S
H839 C848 0.929 . S
C840 H834 0.930 . S
C840 C841 1.367 . S
C840 C848 1.378 . S
C841 C840 1.367 . S
C841 C849 1.433 . S
C842 H838 0.929 . S
C842 C844 1.378 . S
C842 C846 1.350 . S
C843 C846 1.463 . S
C843 C848 1.350 . S
C843 N851 1.427 . S
C844 H835 0.930 . S
C844 C842 1.378 . S
C844 C845 1.367 . S
C845 C844 1.367 . S
C845 C847 1.433 . S
C846 C842 1.350 . S
C846 C843 1.463 . S
C846 N850 1.427 . S
C847 H837 0.929 . S
C847 C845 1.433 . S
C847 N850 1.384 . S
C848 H839 0.929 . S
C848 C840 1.378 . S
C848 C843 1.350 . S
C849 H836 0.929 . S
C849 C841 1.433 . S
C849 N851 1.384 . S
N850 C846 1.427 . S
N850 C847 1.384 . S
N851 C843 1.427 . S
N851 C849 1.384 . S
H852 C858 0.930 . S
H853 C862 0.930 . S
H854 C867 0.929 . S
H855 C865 0.929 . S
H856 C860 0.929 . S
H857 C866 0.929 . S
C858 H852 0.930 . S
C858 C859 1.367 . S
C858 C866 1.378 . S
C859 C858 1.367 . S
C859 C867 1.433 . S
C860 H856 0.929 . S
C860 C862 1.378 . S
C860 C864 1.350 . S
C861 C864 1.463 . S
C861 C866 1.350 . S
C861 N869 1.427 . S
C862 H853 0.930 . S
C862 C860 1.378 . S
C862 C863 1.367 . S
C863 C862 1.367 . S
C863 C865 1.433 . S
C864 C860 1.350 . S
C864 C861 1.463 . S
C864 N868 1.427 . S
C865 H855 0.929 . S
C865 C863 1.433 . S
C865 N868 1.384 . S
C866 H857 0.929 . S
C866 C858 1.378 . S
C866 C861 1.350 . S
C867 H854 0.929 . S
C867 C859 1.433 . S
C867 N869 1.384 . S
N868 C864 1.427 . S
N868 C865 1.384 . S
N869 C861 1.427 . S
N869 C867 1.384 . S
H870 C876 0.930 . S
H871 C880 0.930 . S
H872 C885 0.929 . S
H873 C883 0.929 . S
H874 C878 0.929 . S
H875 C884 0.929 . S
C876 H870 0.930 . S
C876 C877 1.367 . S
C876 C884 1.378 . S
C877 C876 1.367 . S
C877 C885 1.433 . S
C878 H874 0.929 . S
C878 C880 1.378 . S
C878 C882 1.350 . S
C879 C882 1.463 . S
C879 C884 1.350 . S
C879 N887 1.427 . S
C880 H871 0.930 . S
C880 C878 1.378 . S
C880 C881 1.367 . S
C881 C880 1.367 . S
C881 C883 1.433 . S
C882 C878 1.350 . S
C882 C879 1.463 . S
C882 N886 1.427 . S
C883 H873 0.929 . S
C883 C881 1.433 . S
C883 N886 1.384 . S
C884 H875 0.929 . S
C884 C876 1.378 . S
C884 C879 1.350 . S
C885 H872 0.929 . S
C885 C877 1.433 . S
C885 N887 1.384 . S
N886 C882 1.427 . S
N886 C883 1.384 . S
N887 C879 1.427 . S
N887 C885 1.384 . S
H888 C894 0.930 . S
H889 C898 0.930 . S
H890 C903 0.929 . S
H891 C901 0.929 . S
H892 C896 0.929 . S
H893 C902 0.929 . S
C894 H888 0.930 . S
C894 C895 1.367 . S
C894 C902 1.378 . S
C895 C894 1.367 . S
C895 C903 1.433 . S
C896 H892 0.929 . S
C896 C898 1.378 . S
C896 C900 1.350 . S
C897 C900 1.463 . S
C897 C902 1.350 . S
C897 N905 1.427 . S
C898 H889 0.930 . S
C898 C896 1.378 . S
C898 C899 1.367 . S
C899 C898 1.367 . S
C899 C901 1.433 . S
C900 C896 1.350 . S
C900 C897 1.463 . S
C900 N904 1.427 . S
C901 H891 0.929 . S
C901 C899 1.433 . S
C901 N904 1.384 . S
C902 H893 0.929 . S
C902 C894 1.378 . S
C902 C897 1.350 . S
C903 H890 0.929 . S
C903 C895 1.433 . S
C903 N905 1.384 . S
N904 C900 1.427 . S
N904 C901 1.384 . S
N905 C897 1.427 . S
N905 C903 1.384 . S
H906 C912 0.930 . S
H907 C916 0.930 . S
H908 C921 0.929 . S
H909 C919 0.929 . S
H910 C914 0.929 . S
H911 C920 0.929 . S
C912 H906 0.930 . S
C912 C913 1.367 . S
C912 C920 1.378 . S
C913 C912 1.367 . S
C913 C921 1.433 . S
C914 H910 0.929 . S
C914 C916 1.378 . S
C914 C918 1.350 . S
C915 C918 1.463 . S
C915 C920 1.350 . S
C915 N923 1.427 . S
C916 H907 0.930 . S
C916 C914 1.378 . S
C916 C917 1.367 . S
C917 C916 1.367 . S
C917 C919 1.433 . S
C918 C914 1.350 . S
C918 C915 1.463 . S
C918 N922 1.427 . S
C919 H909 0.929 . S
C919 C917 1.433 . S
C919 N922 1.384 . S
C920 H911 0.929 . S
C920 C912 1.378 . S
C920 C915 1.350 . S
C921 H908 0.929 . S
C921 C913 1.433 . S
C921 N923 1.384 . S
N922 C918 1.427 . S
N922 C919 1.384 . S
N923 C915 1.427 . S
N923 C921 1.384 . S
H924 C930 0.930 . S
H925 C934 0.930 . S
H926 C939 0.929 . S
H927 C937 0.929 . S
H928 C932 0.929 . S
H929 C938 0.929 . S
C930 H924 0.930 . S
C930 C931 1.367 . S
C930 C938 1.378 . S
C931 C930 1.367 . S
C931 C939 1.433 . S
C932 H928 0.929 . S
C932 C934 1.378 . S
C932 C936 1.350 . S
C933 C936 1.463 . S
C933 C938 1.350 . S
C933 N941 1.427 . S
C934 H925 0.930 . S
C934 C932 1.378 . S
C934 C935 1.367 . S
C935 C934 1.367 . S
C935 C937 1.433 . S
C936 C932 1.350 . S
C936 C933 1.463 . S
C936 N940 1.427 . S
C937 H927 0.929 . S
C937 C935 1.433 . S
C937 N940 1.384 . S
C938 H929 0.929 . S
C938 C930 1.378 . S
C938 C933 1.350 . S
C939 H926 0.929 . S
C939 C931 1.433 . S
C939 N941 1.384 . S
N940 C936 1.427 . S
N940 C937 1.384 . S
N941 C933 1.427 . S
N941 C939 1.384 . S
H942 C948 0.930 . S
H943 C952 0.930 . S
H944 C957 0.929 . S
H945 C955 0.929 . S
H946 C950 0.929 . S
H947 C956 0.929 . S
C948 H942 0.930 . S
C948 C949 1.367 . S
C948 C956 1.378 . S
C949 C948 1.367 . S
C949 C957 1.433 . S
C950 H946 0.929 . S
C950 C952 1.378 . S
C950 C954 1.350 . S
C951 C954 1.463 . S
C951 C956 1.350 . S
C951 N959 1.427 . S
C952 H943 0.930 . S
C952 C950 1.378 . S
C952 C953 1.367 . S
C953 C952 1.367 . S
C953 C955 1.433 . S
C954 C950 1.350 . S
C954 C951 1.463 . S
C954 N958 1.427 . S
C955 H945 0.929 . S
C955 C953 1.433 . S
C955 N958 1.384 . S
C956 H947 0.929 . S
C956 C948 1.378 . S
C956 C951 1.350 . S
C957 H944 0.929 . S
C957 C949 1.433 . S
C957 N959 1.384 . S
N958 C954 1.427 . S
N958 C955 1.384 . S
N959 C951 1.427 . S
N959 C957 1.384 . S
H960 C966 0.930 . S
H961 C970 0.930 . S
H962 C975 0.929 . S
H963 C973 0.929 . S
H964 C968 0.929 . S
H965 C974 0.929 . S
C966 H960 0.930 . S
C966 C967 1.369 . S
C966 C974 1.378 . S
C967 C966 1.369 . S
C967 C975 1.431 1_455 S
C968 H964 0.929 . S
C968 C970 1.378 . S
C968 C972 1.350 . S
C969 C972 1.463 . S
C969 C974 1.350 1_655 S
C969 N977 1.427 . S
C970 H961 0.930 . S
C970 C968 1.378 . S
C970 C971 1.367 . S
C971 C970 1.367 . S
C971 C973 1.433 1_655 S
C972 C968 1.350 . S
C972 C969 1.463 . S
C972 N976 1.427 1_655 S
C973 H963 0.929 . S
C973 C971 1.433 1_455 S
C973 N976 1.384 . S
C974 H965 0.929 . S
C974 C966 1.378 . S
C974 C969 1.350 1_455 S
C975 H962 0.929 . S
C975 C967 1.431 1_655 S
C975 N977 1.384 . S
N976 C972 1.427 1_455 S
N976 C973 1.384 . S
N977 C969 1.427 . S
N977 C975 1.384 . S
H978 C984 0.930 . S
H979 C988 0.951 . S
H980 C993 0.929 . S
H981 C991 0.929 . S
H982 C986 0.929 . S
H983 C992 0.929 . S
C984 H978 0.930 . S
C984 C985 1.366 . S
C984 C992 1.378 . S
C985 C984 1.366 . S
C985 C993 1.434 1_655 S
C986 H982 0.929 . S
C986 C988 1.383 . S
C986 C990 1.350 1_455 S
C987 C990 1.463 . S
C987 C992 1.350 . S
C987 N995 1.427 1_655 S
C988 H979 0.951 . S
C988 C986 1.383 . S
C988 C989 1.344 1_455 S
C989 C988 1.344 1_655 S
C989 C991 1.433 . S
C990 C986 1.350 1_655 S
C990 C987 1.463 . S
C990 N994 1.427 . S
C991 H981 0.929 . S
C991 C989 1.433 . S
C991 N994 1.384 . S
C992 H983 0.929 . S
C992 C984 1.378 . S
C992 C987 1.350 . S
C993 H980 0.929 . S
C993 C985 1.434 1_455 S
C993 N995 1.384 . S
N994 C990 1.427 . S
N994 C991 1.384 . S
N995 C987 1.427 1_455 S
N995 C993 1.384 . S
H996 C1002 0.930 . S
H997 C1006 0.930 . S
H998 C1011 0.929 . S
H999 C1009 0.929 . S
H1000 C1004 0.929 . S
H1001 C1010 0.929 . S
C1002 H996 0.930 . S
C1002 C1003 1.367 . S
C1002 C1010 1.378 . S
C1003 C1002 1.367 . S
C1003 C1011 1.433 . S
C1004 H1000 0.929 . S
C1004 C1006 1.378 . S
C1004 C1008 1.350 . S
C1005 C1008 1.463 . S
C1005 C1010 1.350 . S
C1005 N1013 1.427 . S
C1006 H997 0.930 . S
C1006 C1004 1.378 . S
C1006 C1007 1.367 . S
C1007 C1006 1.367 . S
C1007 C1009 1.433 . S
C1008 C1004 1.350 . S
C1008 C1005 1.463 . S
C1008 N1012 1.427 . S
C1009 H999 0.929 . S
C1009 C1007 1.433 . S
C1009 N1012 1.384 . S
C1010 H1001 0.929 . S
C1010 C1002 1.378 . S
C1010 C1005 1.350 . S
C1011 H998 0.929 . S
C1011 C1003 1.433 . S
C1011 N1013 1.384 . S
N1012 C1008 1.427 . S
N1012 C1009 1.384 . S
N1013 C1005 1.427 . S
N1013 C1011 1.384 . S
H1014 C1020 0.930 . S
H1015 C1024 0.930 . S
H1016 C1029 0.929 . S
H1017 C1027 0.929 . S
H1018 C1022 0.929 . S
H1019 C1028 0.929 . S
C1020 H1014 0.930 . S
C1020 C1021 1.367 . S
C1020 C1028 1.378 . S
C1021 C1020 1.367 . S
C1021 C1029 1.433 . S
C1022 H1018 0.929 . S
C1022 C1024 1.378 . S
C1022 C1026 1.350 . S
C1023 C1026 1.463 . S
C1023 C1028 1.350 . S
C1023 N1031 1.427 . S
C1024 H1015 0.930 . S
C1024 C1022 1.378 . S
C1024 C1025 1.367 . S
C1025 C1024 1.367 . S
C1025 C1027 1.433 . S
C1026 C1022 1.350 . S
C1026 C1023 1.463 . S
C1026 N1030 1.427 . S
C1027 H1017 0.929 . S
C1027 C1025 1.433 . S
C1027 N1030 1.384 . S
C1028 H1019 0.929 . S
C1028 C1020 1.378 . S
C1028 C1023 1.350 . S
C1029 H1016 0.929 . S
C1029 C1021 1.433 . S
C1029 N1031 1.384 . S
N1030 C1026 1.427 . S
N1030 C1027 1.384 . S
N1031 C1023 1.427 . S
N1031 C1029 1.384 . S
H1032 C1038 0.930 . S
H1033 C1042 0.930 . S
H1034 C1047 0.929 . S
H1035 C1045 0.929 . S
H1036 C1040 0.929 . S
H1037 C1046 0.929 . S
C1038 H1032 0.930 . S
C1038 C1039 1.367 . S
C1038 C1046 1.378 . S
C1039 C1038 1.367 . S
C1039 C1047 1.433 1_545 S
C1040 H1036 0.929 . S
C1040 C1042 1.378 . S
C1040 C1044 1.350 . S
C1041 C1044 1.463 . S
C1041 C1046 1.350 1_565 S
C1041 N1049 1.427 . S
C1042 H1033 0.930 . S
C1042 C1040 1.378 . S
C1042 C1043 1.367 . S
C1043 C1042 1.367 . S
C1043 C1045 1.433 1_565 S
C1044 C1040 1.350 . S
C1044 C1041 1.463 . S
C1044 N1048 1.427 1_565 S
C1045 H1035 0.929 . S
C1045 C1043 1.433 1_545 S
C1045 N1048 1.384 . S
C1046 H1037 0.929 . S
C1046 C1038 1.378 . S
C1046 C1041 1.350 1_545 S
C1047 H1034 0.929 . S
C1047 C1039 1.433 1_565 S
C1047 N1049 1.384 . S
N1048 C1044 1.427 1_545 S
N1048 C1045 1.384 . S
N1049 C1041 1.427 . S
N1049 C1047 1.384 . S
H1050 C1056 0.930 . S
H1051 C1060 0.930 . S
H1052 C1065 0.929 . S
H1053 C1063 0.929 . S
H1054 C1058 0.929 . S
H1055 C1064 0.929 . S
C1056 H1050 0.930 . S
C1056 C1057 1.367 . S
C1056 C1064 1.378 . S
C1057 C1056 1.367 . S
C1057 C1065 1.433 . S
C1058 H1054 0.929 . S
C1058 C1060 1.378 . S
C1058 C1062 1.350 . S
C1059 C1062 1.463 . S
C1059 C1064 1.350 . S
C1059 N1067 1.427 . S
C1060 H1051 0.930 . S
C1060 C1058 1.378 . S
C1060 C1061 1.367 . S
C1061 C1060 1.367 . S
C1061 C1063 1.433 . S
C1062 C1058 1.350 . S
C1062 C1059 1.463 . S
C1062 N1066 1.427 . S
C1063 H1053 0.929 . S
C1063 C1061 1.433 . S
C1063 N1066 1.384 . S
C1064 H1055 0.929 . S
C1064 C1056 1.378 . S
C1064 C1059 1.350 . S
C1065 H1052 0.929 . S
C1065 C1057 1.433 . S
C1065 N1067 1.384 . S
N1066 C1062 1.427 . S
N1066 C1063 1.384 . S
N1067 C1059 1.427 . S
N1067 C1065 1.384 . S
H1068 C1074 0.930 . S
H1069 C1078 0.930 . S
H1070 C1083 0.929 . S
H1071 C1081 0.929 . S
H1072 C1076 0.929 . S
H1073 C1082 0.929 . S
C1074 H1068 0.930 . S
C1074 C1075 1.367 . S
C1074 C1082 1.378 . S
C1075 C1074 1.367 . S
C1075 C1083 1.433 . S
C1076 H1072 0.929 . S
C1076 C1078 1.378 . S
C1076 C1080 1.350 . S
C1077 C1080 1.463 . S
C1077 C1082 1.350 . S
C1077 N1085 1.427 . S
C1078 H1069 0.930 . S
C1078 C1076 1.378 . S
C1078 C1079 1.367 . S
C1079 C1078 1.367 . S
C1079 C1081 1.433 . S
C1080 C1076 1.350 . S
C1080 C1077 1.463 . S
C1080 N1084 1.427 . S
C1081 H1071 0.929 . S
C1081 C1079 1.433 . S
C1081 N1084 1.384 . S
C1082 H1073 0.929 . S
C1082 C1074 1.378 . S
C1082 C1077 1.350 . S
C1083 H1070 0.929 . S
C1083 C1075 1.433 . S
C1083 N1085 1.384 . S
N1084 C1080 1.427 . S
N1084 C1081 1.384 . S
N1085 C1077 1.427 . S
N1085 C1083 1.384 . S
H1086 C1092 0.930 . S
H1087 C1096 0.930 . S
H1088 C1101 0.929 . S
H1089 C1099 0.929 . S
H1090 C1094 0.929 . S
H1091 C1100 0.929 . S
C1092 H1086 0.930 . S
C1092 C1093 1.367 . S
C1092 C1100 1.378 . S
C1093 C1092 1.367 . S
C1093 C1101 1.433 . S
C1094 H1090 0.929 . S
C1094 C1096 1.378 . S
C1094 C1098 1.350 . S
C1095 C1098 1.463 . S
C1095 C1100 1.350 . S
C1095 N1103 1.427 . S
C1096 H1087 0.930 . S
C1096 C1094 1.378 . S
C1096 C1097 1.367 . S
C1097 C1096 1.367 . S
C1097 C1099 1.433 . S
C1098 C1094 1.350 . S
C1098 C1095 1.463 . S
C1098 N1102 1.427 . S
C1099 H1089 0.929 . S
C1099 C1097 1.433 . S
C1099 N1102 1.384 . S
C1100 H1091 0.929 . S
C1100 C1092 1.378 . S
C1100 C1095 1.350 . S
C1101 H1088 0.929 . S
C1101 C1093 1.433 . S
C1101 N1103 1.384 . S
N1102 C1098 1.427 . S
N1102 C1099 1.384 . S
N1103 C1095 1.427 . S
N1103 C1101 1.384 . S
H1104 C1110 0.930 . S
H1105 C1114 0.930 . S
H1106 C1119 0.929 . S
H1107 C1117 0.929 . S
H1108 C1112 0.929 . S
H1109 C1118 0.929 . S
C1110 H1104 0.930 . S
C1110 C1111 1.367 . S
C1110 C1118 1.378 . S
C1111 C1110 1.367 . S
C1111 C1119 1.433 . S
C1112 H1108 0.929 . S
C1112 C1114 1.378 . S
C1112 C1116 1.350 . S
C1113 C1116 1.463 . S
C1113 C1118 1.350 . S
C1113 N1121 1.427 . S
C1114 H1105 0.930 . S
C1114 C1112 1.378 . S
C1114 C1115 1.367 . S
C1115 C1114 1.367 . S
C1115 C1117 1.433 . S
C1116 C1112 1.350 . S
C1116 C1113 1.463 . S
C1116 N1120 1.427 . S
C1117 H1107 0.929 . S
C1117 C1115 1.433 . S
C1117 N1120 1.384 . S
C1118 H1109 0.929 . S
C1118 C1110 1.378 . S
C1118 C1113 1.350 . S
C1119 H1106 0.929 . S
C1119 C1111 1.433 . S
C1119 N1121 1.384 . S
N1120 C1116 1.427 . S
N1120 C1117 1.384 . S
N1121 C1113 1.427 . S
N1121 C1119 1.384 . S
H1122 C1128 0.930 . S
H1123 C1132 0.930 . S
H1124 C1137 0.929 . S
H1125 C1135 0.929 . S
H1126 C1130 0.929 . S
H1127 C1136 0.929 . S
C1128 H1122 0.930 . S
C1128 C1129 1.367 . S
C1128 C1136 1.378 . S
C1129 C1128 1.367 . S
C1129 C1137 1.433 . S
C1130 H1126 0.929 . S
C1130 C1132 1.378 . S
C1130 C1134 1.350 . S
C1131 C1134 1.463 . S
C1131 C1136 1.350 . S
C1131 N1139 1.427 . S
C1132 H1123 0.930 . S
C1132 C1130 1.378 . S
C1132 C1133 1.367 . S
C1133 C1132 1.367 . S
C1133 C1135 1.433 . S
C1134 C1130 1.350 . S
C1134 C1131 1.463 . S
C1134 N1138 1.427 . S
C1135 H1125 0.929 . S
C1135 C1133 1.433 . S
C1135 N1138 1.384 . S
C1136 H1127 0.929 . S
C1136 C1128 1.378 . S
C1136 C1131 1.350 . S
C1137 H1124 0.929 . S
C1137 C1129 1.433 . S
C1137 N1139 1.384 . S
N1138 C1134 1.427 . S
N1138 C1135 1.384 . S
N1139 C1131 1.427 . S
N1139 C1137 1.384 . S
H1140 C1146 0.930 . S
H1141 C1150 0.930 . S
H1142 C1155 0.929 . S
H1143 C1153 0.929 . S
H1144 C1148 0.929 . S
H1145 C1154 0.929 . S
C1146 H1140 0.930 . S
C1146 C1147 1.375 . S
C1146 C1154 1.378 . S
C1147 C1146 1.375 . S
C1147 C1155 1.426 1_565 S
C1148 H1144 0.929 . S
C1148 C1150 1.378 . S
C1148 C1152 1.350 1_545 S
C1149 C1152 1.463 . S
C1149 C1154 1.350 . S
C1149 N1157 1.427 1_565 S
C1150 H1141 0.930 . S
C1150 C1148 1.378 . S
C1150 C1151 1.367 1_545 S
C1151 C1150 1.367 1_565 S
C1151 C1153 1.433 . S
C1152 C1148 1.350 1_565 S
C1152 C1149 1.463 . S
C1152 N1156 1.427 . S
C1153 H1143 0.929 . S
C1153 C1151 1.433 . S
C1153 N1156 1.384 . S
C1154 H1145 0.929 . S
C1154 C1146 1.378 . S
C1154 C1149 1.350 . S
C1155 H1142 0.929 . S
C1155 C1147 1.426 1_545 S
C1155 N1157 1.384 . S
N1156 C1152 1.427 . S
N1156 C1153 1.384 . S
N1157 C1149 1.427 1_545 S
N1157 C1155 1.384 . S
H1158 C1164 0.930 . S
H1159 C1168 0.930 1_554 S
H1160 C1173 0.929 . S
H1161 C1171 0.929 . S
H1162 C1166 0.928 . S
H1163 C1172 0.929 . S
C1164 H1158 0.930 . S
C1164 C1165 1.373 . S
C1164 C1172 1.378 . S
C1165 C1164 1.373 . S
C1165 C1173 1.428 1_556 S
C1166 H1162 0.928 . S
C1166 C1168 1.378 1_554 S
C1166 C1170 1.350 1_554 S
C1167 C1170 1.463 . S
C1167 C1172 1.350 . S
C1167 N1175 1.427 1_556 S
C1168 H1159 0.930 1_556 S
C1168 C1166 1.378 1_556 S
C1168 C1169 1.367 . S
C1169 C1168 1.367 . S
C1169 C1171 1.433 . S
C1170 C1166 1.350 1_556 S
C1170 C1167 1.463 . S
C1170 N1174 1.427 . S
C1171 H1161 0.929 . S
C1171 C1169 1.433 . S
C1171 N1174 1.384 . S
C1172 H1163 0.929 . S
C1172 C1164 1.378 . S
C1172 C1167 1.350 . S
C1173 H1160 0.929 . S
C1173 C1165 1.428 1_554 S
C1173 N1175 1.384 . S
N1174 C1170 1.427 . S
N1174 C1171 1.384 . S
N1175 C1167 1.427 1_554 S
N1175 C1173 1.384 . S
H1176 C1182 0.930 . S
H1177 C1186 0.930 . S
H1178 C1191 0.929 . S
H1179 C1189 0.929 . S
H1180 C1184 0.929 . S
H1181 C1190 0.929 . S
C1182 H1176 0.930 . S
C1182 C1183 1.367 . S
C1182 C1190 1.378 . S
C1183 C1182 1.367 . S
C1183 C1191 1.433 . S
C1184 H1180 0.929 . S
C1184 C1186 1.378 . S
C1184 C1188 1.350 . S
C1185 C1188 1.463 . S
C1185 C1190 1.350 . S
C1185 N1193 1.427 . S
C1186 H1177 0.930 . S
C1186 C1184 1.378 . S
C1186 C1187 1.367 . S
C1187 C1186 1.367 . S
C1187 C1189 1.433 . S
C1188 C1184 1.350 . S
C1188 C1185 1.463 . S
C1188 N1192 1.427 . S
C1189 H1179 0.929 . S
C1189 C1187 1.433 . S
C1189 N1192 1.384 . S
C1190 H1181 0.929 . S
C1190 C1182 1.378 . S
C1190 C1185 1.350 . S
C1191 H1178 0.929 . S
C1191 C1183 1.433 . S
C1191 N1193 1.384 . S
N1192 C1188 1.427 . S
N1192 C1189 1.384 . S
N1193 C1185 1.427 . S
N1193 C1191 1.384 . S
H1194 C1200 0.930 . S
H1195 C1204 0.930 . S
H1196 C1209 0.929 . S
H1197 C1207 0.929 . S
H1198 C1202 0.929 . S
H1199 C1208 0.929 . S
C1200 H1194 0.930 . S
C1200 C1201 1.367 . S
C1200 C1208 1.378 . S
C1201 C1200 1.367 . S
C1201 C1209 1.433 . S
C1202 H1198 0.929 . S
C1202 C1204 1.378 . S
C1202 C1206 1.350 . S
C1203 C1206 1.463 . S
C1203 C1208 1.350 . S
C1203 N1211 1.427 . S
C1204 H1195 0.930 . S
C1204 C1202 1.378 . S
C1204 C1205 1.367 . S
C1205 C1204 1.367 . S
C1205 C1207 1.433 . S
C1206 C1202 1.350 . S
C1206 C1203 1.463 . S
C1206 N1210 1.427 . S
C1207 H1197 0.929 . S
C1207 C1205 1.433 . S
C1207 N1210 1.384 . S
C1208 H1199 0.929 . S
C1208 C1200 1.378 . S
C1208 C1203 1.350 . S
C1209 H1196 0.929 . S
C1209 C1201 1.433 . S
C1209 N1211 1.384 . S
N1210 C1206 1.427 . S
N1210 C1207 1.384 . S
N1211 C1203 1.427 . S
N1211 C1209 1.384 . S
H1212 C1218 0.930 . S
H1213 C1222 0.930 . S
H1214 C1227 0.929 . S
H1215 C1225 0.929 . S
H1216 C1220 0.929 . S
H1217 C1226 0.929 . S
C1218 H1212 0.930 . S
C1218 C1219 1.367 . S
C1218 C1226 1.378 . S
C1219 C1218 1.367 . S
C1219 C1227 1.433 . S
C1220 H1216 0.929 . S
C1220 C1222 1.378 . S
C1220 C1224 1.350 . S
C1221 C1224 1.463 . S
C1221 C1226 1.350 . S
C1221 N1229 1.427 . S
C1222 H1213 0.930 . S
C1222 C1220 1.378 . S
C1222 C1223 1.367 . S
C1223 C1222 1.367 . S
C1223 C1225 1.433 . S
C1224 C1220 1.350 . S
C1224 C1221 1.463 . S
C1224 N1228 1.427 . S
C1225 H1215 0.929 . S
C1225 C1223 1.433 . S
C1225 N1228 1.384 . S
C1226 H1217 0.929 . S
C1226 C1218 1.378 . S
C1226 C1221 1.350 . S
C1227 H1214 0.929 . S
C1227 C1219 1.433 . S
C1227 N1229 1.384 . S
N1228 C1224 1.427 . S
N1228 C1225 1.384 . S
N1229 C1221 1.427 . S
N1229 C1227 1.384 . S
H1230 C1236 0.930 . S
H1231 C1240 0.930 . S
H1232 C1245 0.929 . S
H1233 C1243 0.929 . S
H1234 C1238 0.929 . S
H1235 C1244 0.929 . S
C1236 H1230 0.930 . S
C1236 C1237 1.367 . S
C1236 C1244 1.378 . S
C1237 C1236 1.367 . S
C1237 C1245 1.433 . S
C1238 H1234 0.929 . S
C1238 C1240 1.378 . S
C1238 C1242 1.350 . S
C1239 C1242 1.463 . S
C1239 C1244 1.350 . S
C1239 N1247 1.427 . S
C1240 H1231 0.930 . S
C1240 C1238 1.378 . S
C1240 C1241 1.367 . S
C1241 C1240 1.367 . S
C1241 C1243 1.433 . S
C1242 C1238 1.350 . S
C1242 C1239 1.463 . S
C1242 N1246 1.427 . S
C1243 H1233 0.929 . S
C1243 C1241 1.433 . S
C1243 N1246 1.384 . S
C1244 H1235 0.929 . S
C1244 C1236 1.378 . S
C1244 C1239 1.350 . S
C1245 H1232 0.929 . S
C1245 C1237 1.433 . S
C1245 N1247 1.384 . S
N1246 C1242 1.427 . S
N1246 C1243 1.384 . S
N1247 C1239 1.427 . S
N1247 C1245 1.384 . S
H1248 C1254 0.930 . S
H1249 C1258 0.930 . S
H1250 C1263 0.929 . S
H1251 C1261 0.929 . S
H1252 C1256 0.929 . S
H1253 C1262 0.929 . S
C1254 H1248 0.930 . S
C1254 C1255 1.367 . S
C1254 C1262 1.378 . S
C1255 C1254 1.367 . S
C1255 C1263 1.433 . S
C1256 H1252 0.929 . S
C1256 C1258 1.378 . S
C1256 C1260 1.350 . S
C1257 C1260 1.463 . S
C1257 C1262 1.350 . S
C1257 N1265 1.427 . S
C1258 H1249 0.930 . S
C1258 C1256 1.378 . S
C1258 C1259 1.367 . S
C1259 C1258 1.367 . S
C1259 C1261 1.433 . S
C1260 C1256 1.350 . S
C1260 C1257 1.463 . S
C1260 N1264 1.427 . S
C1261 H1251 0.929 . S
C1261 C1259 1.433 . S
C1261 N1264 1.384 . S
C1262 H1253 0.929 . S
C1262 C1254 1.378 . S
C1262 C1257 1.350 . S
C1263 H1250 0.929 . S
C1263 C1255 1.433 . S
C1263 N1265 1.384 . S
N1264 C1260 1.427 . S
N1264 C1261 1.384 . S
N1265 C1257 1.427 . S
N1265 C1263 1.384 . S
H1266 C1272 0.930 . S
H1267 C1276 0.930 . S
H1268 C1281 0.929 . S
H1269 C1279 0.929 . S
H1270 C1274 0.929 . S
H1271 C1280 0.929 . S
C1272 H1266 0.930 . S
C1272 C1273 1.367 . S
C1272 C1280 1.378 . S
C1273 C1272 1.367 . S
C1273 C1281 1.433 . S
C1274 H1270 0.929 . S
C1274 C1276 1.378 . S
C1274 C1278 1.350 . S
C1275 C1278 1.463 . S
C1275 C1280 1.350 . S
C1275 N1283 1.427 . S
C1276 H1267 0.930 . S
C1276 C1274 1.378 . S
C1276 C1277 1.367 . S
C1277 C1276 1.367 . S
C1277 C1279 1.433 . S
C1278 C1274 1.350 . S
C1278 C1275 1.463 . S
C1278 N1282 1.427 . S
C1279 H1269 0.929 . S
C1279 C1277 1.433 . S
C1279 N1282 1.384 . S
C1280 H1271 0.929 . S
C1280 C1272 1.378 . S
C1280 C1275 1.350 . S
C1281 H1268 0.929 . S
C1281 C1273 1.433 . S
C1281 N1283 1.384 . S
N1282 C1278 1.427 . S
N1282 C1279 1.384 . S
N1283 C1275 1.427 . S
N1283 C1281 1.384 . S
H1284 C1290 0.930 . S
H1285 C1294 0.930 . S
H1286 C1299 0.929 . S
H1287 C1297 0.929 . S
H1288 C1292 0.929 . S
H1289 C1298 0.929 . S
C1290 H1284 0.930 . S
C1290 C1291 1.367 . S
C1290 C1298 1.378 . S
C1291 C1290 1.367 . S
C1291 C1299 1.433 . S
C1292 H1288 0.929 . S
C1292 C1294 1.378 . S
C1292 C1296 1.350 . S
C1293 C1296 1.463 . S
C1293 C1298 1.350 . S
C1293 N1301 1.427 . S
C1294 H1285 0.930 . S
C1294 C1292 1.378 . S
C1294 C1295 1.367 . S
C1295 C1294 1.367 . S
C1295 C1297 1.433 . S
C1296 C1292 1.350 . S
C1296 C1293 1.463 . S
C1296 N1300 1.427 . S
C1297 H1287 0.929 . S
C1297 C1295 1.433 . S
C1297 N1300 1.384 . S
C1298 H1289 0.929 . S
C1298 C1290 1.378 . S
C1298 C1293 1.350 . S
C1299 H1286 0.929 . S
C1299 C1291 1.433 . S
C1299 N1301 1.384 . S
N1300 C1296 1.427 . S
N1300 C1297 1.384 . S
N1301 C1293 1.427 . S
N1301 C1299 1.384 . S
H1302 C1308 0.930 . S
H1303 C1312 0.930 . S
H1304 C1317 0.929 . S
H1305 C1315 0.929 . S
H1306 C1310 0.929 . S
H1307 C1316 0.929 . S
C1308 H1302 0.930 . S
C1308 C1309 1.367 . S
C1308 C1316 1.378 . S
C1309 C1308 1.367 . S
C1309 C1317 1.433 . S
C1310 H1306 0.929 . S
C1310 C1312 1.378 . S
C1310 C1314 1.350 . S
C1311 C1314 1.463 . S
C1311 C1316 1.350 . S
C1311 N1319 1.427 . S
C1312 H1303 0.930 . S
C1312 C1310 1.378 . S
C1312 C1313 1.367 . S
C1313 C1312 1.367 . S
C1313 C1315 1.433 . S
C1314 C1310 1.350 . S
C1314 C1311 1.463 . S
C1314 N1318 1.427 . S
C1315 H1305 0.929 . S
C1315 C1313 1.433 . S
C1315 N1318 1.384 . S
C1316 H1307 0.929 . S
C1316 C1308 1.378 . S
C1316 C1311 1.350 . S
C1317 H1304 0.929 . S
C1317 C1309 1.433 . S
C1317 N1319 1.384 . S
N1318 C1314 1.427 . S
N1318 C1315 1.384 . S
N1319 C1311 1.427 . S
N1319 C1317 1.384 . S
H1320 C1326 0.930 . S
H1321 C1330 0.930 . S
H1322 C1335 0.929 . S
H1323 C1333 0.929 . S
H1324 C1328 0.929 . S
H1325 C1334 0.929 . S
C1326 H1320 0.930 . S
C1326 C1327 1.367 . S
C1326 C1334 1.378 . S
C1327 C1326 1.367 . S
C1327 C1335 1.433 . S
C1328 H1324 0.929 . S
C1328 C1330 1.378 . S
C1328 C1332 1.350 . S
C1329 C1332 1.463 . S
C1329 C1334 1.350 . S
C1329 N1337 1.427 . S
C1330 H1321 0.930 . S
C1330 C1328 1.378 . S
C1330 C1331 1.367 . S
C1331 C1330 1.367 . S
C1331 C1333 1.433 . S
C1332 C1328 1.350 . S
C1332 C1329 1.463 . S
C1332 N1336 1.427 . S
C1333 H1323 0.929 . S
C1333 C1331 1.433 . S
C1333 N1336 1.384 . S
C1334 H1325 0.929 . S
C1334 C1326 1.378 . S
C1334 C1329 1.350 . S
C1335 H1322 0.929 . S
C1335 C1327 1.433 . S
C1335 N1337 1.384 . S
N1336 C1332 1.427 . S
N1336 C1333 1.384 . S
N1337 C1329 1.427 . S
N1337 C1335 1.384 . S
H1338 C1344 0.930 . S
H1339 C1348 0.930 . S
H1340 C1353 0.929 . S
H1341 C1351 0.929 . S
H1342 C1346 0.929 . S
H1343 C1352 0.929 . S
C1344 H1338 0.930 . S
C1344 C1345 1.367 . S
C1344 C1352 1.378 . S
C1345 C1344 1.367 . S
C1345 C1353 1.433 . S
C1346 H1342 0.929 . S
C1346 C1348 1.378 . S
C1346 C1350 1.350 . S
C1347 C1350 1.463 . S
C1347 C1352 1.350 . S
C1347 N1355 1.427 . S
C1348 H1339 0.930 . S
C1348 C1346 1.378 . S
C1348 C1349 1.367 . S
C1349 C1348 1.367 . S
C1349 C1351 1.433 . S
C1350 C1346 1.350 . S
C1350 C1347 1.463 . S
C1350 N1354 1.427 . S
C1351 H1341 0.929 . S
C1351 C1349 1.433 . S
C1351 N1354 1.384 . S
C1352 H1343 0.929 . S
C1352 C1344 1.378 . S
C1352 C1347 1.350 . S
C1353 H1340 0.929 . S
C1353 C1345 1.433 . S
C1353 N1355 1.384 . S
N1354 C1350 1.427 . S
N1354 C1351 1.384 . S
N1355 C1347 1.427 . S
N1355 C1353 1.384 . S
H1356 C1362 0.930 . S
H1357 C1366 0.930 . S
H1358 C1371 0.929 . S
H1359 C1369 0.929 . S
H1360 C1364 0.929 . S
H1361 C1370 0.929 . S
C1362 H1356 0.930 . S
C1362 C1363 1.367 . S
C1362 C1370 1.378 . S
C1363 C1362 1.367 . S
C1363 C1371 1.433 1_556 S
C1364 H1360 0.929 . S
C1364 C1366 1.378 . S
C1364 C1368 1.350 1_554 S
C1365 C1368 1.463 . S
C1365 C1370 1.350 . S
C1365 N1373 1.427 1_556 S
C1366 H1357 0.930 . S
C1366 C1364 1.378 . S
C1366 C1367 1.376 . S
C1367 C1366 1.376 . S
C1367 C1369 1.423 1_554 S
C1368 C1364 1.350 1_556 S
C1368 C1365 1.463 . S
C1368 N1372 1.427 . S
C1369 H1359 0.929 . S
C1369 C1367 1.423 1_556 S
C1369 N1372 1.384 . S
C1370 H1361 0.929 . S
C1370 C1362 1.378 . S
C1370 C1365 1.350 . S
C1371 H1358 0.929 . S
C1371 C1363 1.433 1_554 S
C1371 N1373 1.384 . S
N1372 C1368 1.427 . S
N1372 C1369 1.384 . S
N1373 C1365 1.427 1_554 S
N1373 C1371 1.384 . S
H1374 C1380 0.930 . S
H1375 C1384 0.930 . S
H1376 C1389 0.929 . S
H1377 C1387 0.929 . S
H1378 C1382 0.929 . S
H1379 C1388 0.929 . S
C1380 H1374 0.930 . S
C1380 C1381 1.367 . S
C1380 C1388 1.378 . S
C1381 C1380 1.367 . S
C1381 C1389 1.433 . S
C1382 H1378 0.929 . S
C1382 C1384 1.378 . S
C1382 C1386 1.350 . S
C1383 C1386 1.463 . S
C1383 C1388 1.350 . S
C1383 N1391 1.427 . S
C1384 H1375 0.930 . S
C1384 C1382 1.378 . S
C1384 C1385 1.367 . S
C1385 C1384 1.367 . S
C1385 C1387 1.433 . S
C1386 C1382 1.350 . S
C1386 C1383 1.463 . S
C1386 N1390 1.427 . S
C1387 H1377 0.929 . S
C1387 C1385 1.433 . S
C1387 N1390 1.384 . S
C1388 H1379 0.929 . S
C1388 C1380 1.378 . S
C1388 C1383 1.350 . S
C1389 H1376 0.929 . S
C1389 C1381 1.433 . S
C1389 N1391 1.384 . S
N1390 C1386 1.427 . S
N1390 C1387 1.384 . S
N1391 C1383 1.427 . S
N1391 C1389 1.384 . S
H1392 C1398 0.930 . S
H1393 C1402 0.930 . S
H1394 C1407 0.929 . S
H1395 C1405 0.929 . S
H1396 C1400 0.929 . S
H1397 C1406 0.929 . S
C1398 H1392 0.930 . S
C1398 C1399 1.367 . S
C1398 C1406 1.378 . S
C1399 C1398 1.367 . S
C1399 C1407 1.433 . S
C1400 H1396 0.929 . S
C1400 C1402 1.378 . S
C1400 C1404 1.350 . S
C1401 C1404 1.463 . S
C1401 C1406 1.350 . S
C1401 N1409 1.427 . S
C1402 H1393 0.930 . S
C1402 C1400 1.378 . S
C1402 C1403 1.367 . S
C1403 C1402 1.367 . S
C1403 C1405 1.433 . S
C1404 C1400 1.350 . S
C1404 C1401 1.463 . S
C1404 N1408 1.427 . S
C1405 H1395 0.929 . S
C1405 C1403 1.433 . S
C1405 N1408 1.384 . S
C1406 H1397 0.929 . S
C1406 C1398 1.378 . S
C1406 C1401 1.350 . S
C1407 H1394 0.929 . S
C1407 C1399 1.433 . S
C1407 N1409 1.384 . S
N1408 C1404 1.427 . S
N1408 C1405 1.384 . S
N1409 C1401 1.427 . S
N1409 C1407 1.384 . S
H1410 C1416 0.930 . S
H1411 C1420 0.930 . S
H1412 C1425 0.929 . S
H1413 C1423 0.929 . S
H1414 C1418 0.929 . S
H1415 C1424 0.929 . S
C1416 H1410 0.930 . S
C1416 C1417 1.367 . S
C1416 C1424 1.378 . S
C1417 C1416 1.367 . S
C1417 C1425 1.433 . S
C1418 H1414 0.929 . S
C1418 C1420 1.378 . S
C1418 C1422 1.350 . S
C1419 C1422 1.463 . S
C1419 C1424 1.350 . S
C1419 N1427 1.427 . S
C1420 H1411 0.930 . S
C1420 C1418 1.378 . S
C1420 C1421 1.367 . S
C1421 C1420 1.367 . S
C1421 C1423 1.433 . S
C1422 C1418 1.350 . S
C1422 C1419 1.463 . S
C1422 N1426 1.427 . S
C1423 H1413 0.929 . S
C1423 C1421 1.433 . S
C1423 N1426 1.384 . S
C1424 H1415 0.929 . S
C1424 C1416 1.378 . S
C1424 C1419 1.350 . S
C1425 H1412 0.929 . S
C1425 C1417 1.433 . S
C1425 N1427 1.384 . S
N1426 C1422 1.427 . S
N1426 C1423 1.384 . S
N1427 C1419 1.427 . S
N1427 C1425 1.384 . S
H1428 C1434 0.930 . S
H1429 C1438 0.930 . S
H1430 C1443 0.929 . S
H1431 C1441 0.929 . S
H1432 C1436 0.929 . S
H1433 C1442 0.929 . S
C1434 H1428 0.930 . S
C1434 C1435 1.367 . S
C1434 C1442 1.378 . S
C1435 C1434 1.367 . S
C1435 C1443 1.433 . S
C1436 H1432 0.929 . S
C1436 C1438 1.378 . S
C1436 C1440 1.350 . S
C1437 C1440 1.463 . S
C1437 C1442 1.350 . S
C1437 N1445 1.427 . S
C1438 H1429 0.930 . S
C1438 C1436 1.378 . S
C1438 C1439 1.367 . S
C1439 C1438 1.367 . S
C1439 C1441 1.433 . S
C1440 C1436 1.350 . S
C1440 C1437 1.463 . S
C1440 N1444 1.427 . S
C1441 H1431 0.929 . S
C1441 C1439 1.433 . S
C1441 N1444 1.384 . S
C1442 H1433 0.929 . S
C1442 C1434 1.378 . S
C1442 C1437 1.350 . S
C1443 H1430 0.929 . S
C1443 C1435 1.433 . S
C1443 N1445 1.384 . S
N1444 C1440 1.427 . S
N1444 C1441 1.384 . S
N1445 C1437 1.427 . S
N1445 C1443 1.384 . S
H1446 C1452 0.930 . S
H1447 C1456 0.930 . S
H1448 C1461 0.929 . S
H1449 C1459 0.929 . S
H1450 C1454 0.929 . S
H1451 C1460 0.929 . S
C1452 H1446 0.930 . S
C1452 C1453 1.367 . S
C1452 C1460 1.378 . S
C1453 C1452 1.367 . S
C1453 C1461 1.433 . S
C1454 H1450 0.929 . S
C1454 C1456 1.378 . S
C1454 C1458 1.350 . S
C1455 C1458 1.463 . S
C1455 C1460 1.350 . S
C1455 N1463 1.427 . S
C1456 H1447 0.930 . S
C1456 C1454 1.378 . S
C1456 C1457 1.367 . S
C1457 C1456 1.367 . S
C1457 C1459 1.433 . S
C1458 C1454 1.350 . S
C1458 C1455 1.463 . S
C1458 N1462 1.427 . S
C1459 H1449 0.929 . S
C1459 C1457 1.433 . S
C1459 N1462 1.384 . S
C1460 H1451 0.929 . S
C1460 C1452 1.378 . S
C1460 C1455 1.350 . S
C1461 H1448 0.929 . S
C1461 C1453 1.433 . S
C1461 N1463 1.384 . S
N1462 C1458 1.427 . S
N1462 C1459 1.384 . S
N1463 C1455 1.427 . S
N1463 C1461 1.384 . S
H1464 C1470 0.930 . S
H1465 C1474 0.930 . S
H1466 C1479 0.929 . S
H1467 C1477 0.929 . S
H1468 C1472 0.929 . S
H1469 C1478 0.929 . S
C1470 H1464 0.930 . S
C1470 C1471 1.367 . S
C1470 C1478 1.378 . S
C1471 C1470 1.367 . S
C1471 C1479 1.433 . S
C1472 H1468 0.929 . S
C1472 C1474 1.378 . S
C1472 C1476 1.350 . S
C1473 C1476 1.463 . S
C1473 C1478 1.350 . S
C1473 N1481 1.427 . S
C1474 H1465 0.930 . S
C1474 C1472 1.378 . S
C1474 C1475 1.367 . S
C1475 C1474 1.367 . S
C1475 C1477 1.433 . S
C1476 C1472 1.350 . S
C1476 C1473 1.463 . S
C1476 N1480 1.427 . S
C1477 H1467 0.929 . S
C1477 C1475 1.433 . S
C1477 N1480 1.384 . S
C1478 H1469 0.929 . S
C1478 C1470 1.378 . S
C1478 C1473 1.350 . S
C1479 H1466 0.929 . S
C1479 C1471 1.433 . S
C1479 N1481 1.384 . S
N1480 C1476 1.427 . S
N1480 C1477 1.384 . S
N1481 C1473 1.427 . S
N1481 C1479 1.384 . S
H1482 C1488 0.930 . S
H1483 C1492 0.930 . S
H1484 C1497 0.929 . S
H1485 C1495 0.929 . S
H1486 C1490 0.929 . S
H1487 C1496 0.929 . S
C1488 H1482 0.930 . S
C1488 C1489 1.367 . S
C1488 C1496 1.378 . S
C1489 C1488 1.367 . S
C1489 C1497 1.433 . S
C1490 H1486 0.929 . S
C1490 C1492 1.378 . S
C1490 C1494 1.350 . S
C1491 C1494 1.463 . S
C1491 C1496 1.350 . S
C1491 N1499 1.427 . S
C1492 H1483 0.930 . S
C1492 C1490 1.378 . S
C1492 C1493 1.367 . S
C1493 C1492 1.367 . S
C1493 C1495 1.433 . S
C1494 C1490 1.350 . S
C1494 C1491 1.463 . S
C1494 N1498 1.427 . S
C1495 H1485 0.929 . S
C1495 C1493 1.433 . S
C1495 N1498 1.384 . S
C1496 H1487 0.929 . S
C1496 C1488 1.378 . S
C1496 C1491 1.350 . S
C1497 H1484 0.929 . S
C1497 C1489 1.433 . S
C1497 N1499 1.384 . S
N1498 C1494 1.427 . S
N1498 C1495 1.384 . S
N1499 C1491 1.427 . S
N1499 C1497 1.384 . S
H1500 C1506 0.930 . S
H1501 C1510 0.930 . S
H1502 C1515 0.929 . S
H1503 C1513 0.929 . S
H1504 C1508 0.929 . S
H1505 C1514 0.929 . S
C1506 H1500 0.930 . S
C1506 C1507 1.367 . S
C1506 C1514 1.378 . S
C1507 C1506 1.367 . S
C1507 C1515 1.433 . S
C1508 H1504 0.929 . S
C1508 C1510 1.378 . S
C1508 C1512 1.350 . S
C1509 C1512 1.463 . S
C1509 C1514 1.350 . S
C1509 N1517 1.427 . S
C1510 H1501 0.930 . S
C1510 C1508 1.378 . S
C1510 C1511 1.367 . S
C1511 C1510 1.367 . S
C1511 C1513 1.433 . S
C1512 C1508 1.350 . S
C1512 C1509 1.463 . S
C1512 N1516 1.427 . S
C1513 H1503 0.929 . S
C1513 C1511 1.433 . S
C1513 N1516 1.384 . S
C1514 H1505 0.929 . S
C1514 C1506 1.378 . S
C1514 C1509 1.350 . S
C1515 H1502 0.929 . S
C1515 C1507 1.433 . S
C1515 N1517 1.384 . S
N1516 C1512 1.427 . S
N1516 C1513 1.384 . S
N1517 C1509 1.427 . S
N1517 C1515 1.384 . S
H1518 C1524 0.930 . S
H1519 C1528 0.930 . S
H1520 C1533 0.929 . S
H1521 C1531 0.929 . S
H1522 C1526 0.929 . S
H1523 C1532 0.929 . S
C1524 H1518 0.930 . S
C1524 C1525 1.367 . S
C1524 C1532 1.378 . S
C1525 C1524 1.367 . S
C1525 C1533 1.433 . S
C1526 H1522 0.929 . S
C1526 C1528 1.378 . S
C1526 C1530 1.350 . S
C1527 C1530 1.463 . S
C1527 C1532 1.350 . S
C1527 N1535 1.427 . S
C1528 H1519 0.930 . S
C1528 C1526 1.378 . S
C1528 C1529 1.367 . S
C1529 C1528 1.367 . S
C1529 C1531 1.433 . S
C1530 C1526 1.350 . S
C1530 C1527 1.463 . S
C1530 N1534 1.427 . S
C1531 H1521 0.929 . S
C1531 C1529 1.433 . S
C1531 N1534 1.384 . S
C1532 H1523 0.929 . S
C1532 C1524 1.378 . S
C1532 C1527 1.350 . S
C1533 H1520 0.929 . S
C1533 C1525 1.433 . S
C1533 N1535 1.384 . S
N1534 C1530 1.427 . S
N1534 C1531 1.384 . S
N1535 C1527 1.427 . S
N1535 C1533 1.384 . S
H1536 C1542 0.930 . S
H1537 C1546 0.930 . S
H1538 C1551 0.929 . S
H1539 C1549 0.929 . S
H1540 C1544 0.929 . S
H1541 C1550 0.929 . S
C1542 H1536 0.930 . S
C1542 C1543 1.367 . S
C1542 C1550 1.378 . S
C1543 C1542 1.367 . S
C1543 C1551 1.433 . S
C1544 H1540 0.929 . S
C1544 C1546 1.378 . S
C1544 C1548 1.350 . S
C1545 C1548 1.463 . S
C1545 C1550 1.350 . S
C1545 N1553 1.427 . S
C1546 H1537 0.930 . S
C1546 C1544 1.378 . S
C1546 C1547 1.367 . S
C1547 C1546 1.367 . S
C1547 C1549 1.433 . S
C1548 C1544 1.350 . S
C1548 C1545 1.463 . S
C1548 N1552 1.427 . S
C1549 H1539 0.929 . S
C1549 C1547 1.433 . S
C1549 N1552 1.384 . S
C1550 H1541 0.929 . S
C1550 C1542 1.378 . S
C1550 C1545 1.350 . S
C1551 H1538 0.929 . S
C1551 C1543 1.433 . S
C1551 N1553 1.384 . S
N1552 C1548 1.427 . S
N1552 C1549 1.384 . S
N1553 C1545 1.427 . S
N1553 C1551 1.384 . S
H1554 C1560 0.930 . S
H1555 C1564 0.930 . S
H1556 C1569 0.929 . S
H1557 C1567 0.929 . S
H1558 C1562 0.929 . S
H1559 C1568 0.929 . S
C1560 H1554 0.930 . S
C1560 C1561 1.367 . S
C1560 C1568 1.378 . S
C1561 C1560 1.367 . S
C1561 C1569 1.433 . S
C1562 H1558 0.929 . S
C1562 C1564 1.378 . S
C1562 C1566 1.350 . S
C1563 C1566 1.463 . S
C1563 C1568 1.350 . S
C1563 N1571 1.427 . S
C1564 H1555 0.930 . S
C1564 C1562 1.378 . S
C1564 C1565 1.367 . S
C1565 C1564 1.367 . S
C1565 C1567 1.433 . S
C1566 C1562 1.350 . S
C1566 C1563 1.463 . S
C1566 N1570 1.427 . S
C1567 H1557 0.929 . S
C1567 C1565 1.433 . S
C1567 N1570 1.384 . S
C1568 H1559 0.929 . S
C1568 C1560 1.378 . S
C1568 C1563 1.350 . S
C1569 H1556 0.929 . S
C1569 C1561 1.433 . S
C1569 N1571 1.384 . S
N1570 C1566 1.427 . S
N1570 C1567 1.384 . S
N1571 C1563 1.427 . S
N1571 C1569 1.384 . S
H1572 C1578 0.930 . S
H1573 C1582 0.930 . S
H1574 C1587 0.929 . S
H1575 C1585 0.929 . S
H1576 C1580 0.929 . S
H1577 C1586 0.929 . S
C1578 H1572 0.930 . S
C1578 C1579 1.367 . S
C1578 C1586 1.378 . S
C1579 C1578 1.367 . S
C1579 C1587 1.433 . S
C1580 H1576 0.929 . S
C1580 C1582 1.378 . S
C1580 C1584 1.350 . S
C1581 C1584 1.463 . S
C1581 C1586 1.350 . S
C1581 N1589 1.427 . S
C1582 H1573 0.930 . S
C1582 C1580 1.378 . S
C1582 C1583 1.367 . S
C1583 C1582 1.367 . S
C1583 C1585 1.433 . S
C1584 C1580 1.350 . S
C1584 C1581 1.463 . S
C1584 N1588 1.427 . S
C1585 H1575 0.929 . S
C1585 C1583 1.433 . S
C1585 N1588 1.384 . S
C1586 H1577 0.929 . S
C1586 C1578 1.378 . S
C1586 C1581 1.350 . S
C1587 H1574 0.929 . S
C1587 C1579 1.433 . S
C1587 N1589 1.384 . S
N1588 C1584 1.427 . S
N1588 C1585 1.384 . S
N1589 C1581 1.427 . S
N1589 C1587 1.384 . S
H1590 C1596 0.930 . S
H1591 C1600 0.930 . S
H1592 C1605 0.929 . S
H1593 C1603 0.929 . S
H1594 C1598 0.929 . S
H1595 C1604 0.929 . S
C1596 H1590 0.930 . S
C1596 C1597 1.367 . S
C1596 C1604 1.378 . S
C1597 C1596 1.367 . S
C1597 C1605 1.433 . S
C1598 H1594 0.929 . S
C1598 C1600 1.378 . S
C1598 C1602 1.350 . S
C1599 C1602 1.463 . S
C1599 C1604 1.350 . S
C1599 N1607 1.427 . S
C1600 H1591 0.930 . S
C1600 C1598 1.378 . S
C1600 C1601 1.367 . S
C1601 C1600 1.367 . S
C1601 C1603 1.433 . S
C1602 C1598 1.350 . S
C1602 C1599 1.463 . S
C1602 N1606 1.427 . S
C1603 H1593 0.929 . S
C1603 C1601 1.433 . S
C1603 N1606 1.384 . S
C1604 H1595 0.929 . S
C1604 C1596 1.378 . S
C1604 C1599 1.350 . S
C1605 H1592 0.929 . S
C1605 C1597 1.433 . S
C1605 N1607 1.384 . S
N1606 C1602 1.427 . S
N1606 C1603 1.384 . S
N1607 C1599 1.427 . S
N1607 C1605 1.384 . S
H1608 C1614 0.930 . S
H1609 C1618 0.930 . S
H1610 C1623 0.929 . S
H1611 C1621 0.929 . S
H1612 C1616 0.929 . S
H1613 C1622 0.929 . S
C1614 H1608 0.930 . S
C1614 C1615 1.367 . S
C1614 C1622 1.378 . S
C1615 C1614 1.367 . S
C1615 C1623 1.433 . S
C1616 H1612 0.929 . S
C1616 C1618 1.378 . S
C1616 C1620 1.350 . S
C1617 C1620 1.463 . S
C1617 C1622 1.350 . S
C1617 N1625 1.427 . S
C1618 H1609 0.930 . S
C1618 C1616 1.378 . S
C1618 C1619 1.367 . S
C1619 C1618 1.367 . S
C1619 C1621 1.433 . S
C1620 C1616 1.350 . S
C1620 C1617 1.463 . S
C1620 N1624 1.427 . S
C1621 H1611 0.929 . S
C1621 C1619 1.433 . S
C1621 N1624 1.384 . S
C1622 H1613 0.929 . S
C1622 C1614 1.378 . S
C1622 C1617 1.350 . S
C1623 H1610 0.929 . S
C1623 C1615 1.433 . S
C1623 N1625 1.384 . S
N1624 C1620 1.427 . S
N1624 C1621 1.384 . S
N1625 C1617 1.427 . S
N1625 C1623 1.384 . S
H1626 C1632 0.930 . S
H1627 C1636 0.930 . S
H1628 C1641 0.929 . S
H1629 C1639 0.929 . S
H1630 C1634 0.929 . S
H1631 C1640 0.929 . S
C1632 H1626 0.930 . S
C1632 C1633 1.367 . S
C1632 C1640 1.378 . S
C1633 C1632 1.367 . S
C1633 C1641 1.433 . S
C1634 H1630 0.929 . S
C1634 C1636 1.378 . S
C1634 C1638 1.350 . S
C1635 C1638 1.463 . S
C1635 C1640 1.350 . S
C1635 N1643 1.427 . S
C1636 H1627 0.930 . S
C1636 C1634 1.378 . S
C1636 C1637 1.367 . S
C1637 C1636 1.367 . S
C1637 C1639 1.433 . S
C1638 C1634 1.350 . S
C1638 C1635 1.463 . S
C1638 N1642 1.427 . S
C1639 H1629 0.929 . S
C1639 C1637 1.433 . S
C1639 N1642 1.384 . S
C1640 H1631 0.929 . S
C1640 C1632 1.378 . S
C1640 C1635 1.350 . S
C1641 H1628 0.929 . S
C1641 C1633 1.433 . S
C1641 N1643 1.384 . S
N1642 C1638 1.427 . S
N1642 C1639 1.384 . S
N1643 C1635 1.427 . S
N1643 C1641 1.384 . S
H1644 C1650 0.930 . S
H1645 C1654 0.930 . S
H1646 C1659 0.929 . S
H1647 C1657 0.929 . S
H1648 C1652 0.929 . S
H1649 C1658 0.929 . S
C1650 H1644 0.930 . S
C1650 C1651 1.367 . S
C1650 C1658 1.378 . S
C1651 C1650 1.367 . S
C1651 C1659 1.433 . S
C1652 H1648 0.929 . S
C1652 C1654 1.378 . S
C1652 C1656 1.350 . S
C1653 C1656 1.463 . S
C1653 C1658 1.350 . S
C1653 N1661 1.427 . S
C1654 H1645 0.930 . S
C1654 C1652 1.378 . S
C1654 C1655 1.367 . S
C1655 C1654 1.367 . S
C1655 C1657 1.433 . S
C1656 C1652 1.350 . S
C1656 C1653 1.463 . S
C1656 N1660 1.427 . S
C1657 H1647 0.929 . S
C1657 C1655 1.433 . S
C1657 N1660 1.384 . S
C1658 H1649 0.929 . S
C1658 C1650 1.378 . S
C1658 C1653 1.350 . S
C1659 H1646 0.929 . S
C1659 C1651 1.433 . S
C1659 N1661 1.384 . S
N1660 C1656 1.427 . S
N1660 C1657 1.384 . S
N1661 C1653 1.427 . S
N1661 C1659 1.384 . S
H1662 C1668 0.930 . S
H1663 C1672 0.930 . S
H1664 C1677 0.929 . S
H1665 C1675 0.929 . S
H1666 C1670 0.929 . S
H1667 C1676 0.929 . S
C1668 H1662 0.930 . S
C1668 C1669 1.367 . S
C1668 C1676 1.378 . S
C1669 C1668 1.367 . S
C1669 C1677 1.433 . S
C1670 H1666 0.929 . S
C1670 C1672 1.378 . S
C1670 C1674 1.350 . S
C1671 C1674 1.463 . S
C1671 C1676 1.350 . S
C1671 N1679 1.427 . S
C1672 H1663 0.930 . S
C1672 C1670 1.378 . S
C1672 C1673 1.367 . S
C1673 C1672 1.367 . S
C1673 C1675 1.433 . S
C1674 C1670 1.350 . S
C1674 C1671 1.463 . S
C1674 N1678 1.427 . S
C1675 H1665 0.929 . S
C1675 C1673 1.433 . S
C1675 N1678 1.384 . S
C1676 H1667 0.929 . S
C1676 C1668 1.378 . S
C1676 C1671 1.350 . S
C1677 H1664 0.929 . S
C1677 C1669 1.433 . S
C1677 N1679 1.384 . S
N1678 C1674 1.427 . S
N1678 C1675 1.384 . S
N1679 C1671 1.427 . S
N1679 C1677 1.384 . S
H1680 C1686 0.930 . S
H1681 C1690 0.930 . S
H1682 C1695 0.929 . S
H1683 C1693 0.929 . S
H1684 C1688 0.929 . S
H1685 C1694 0.929 . S
C1686 H1680 0.930 . S
C1686 C1687 1.367 . S
C1686 C1694 1.378 . S
C1687 C1686 1.367 . S
C1687 C1695 1.433 . S
C1688 H1684 0.929 . S
C1688 C1690 1.378 . S
C1688 C1692 1.350 . S
C1689 C1692 1.463 . S
C1689 C1694 1.350 . S
C1689 N1697 1.427 . S
C1690 H1681 0.930 . S
C1690 C1688 1.378 . S
C1690 C1691 1.367 . S
C1691 C1690 1.367 . S
C1691 C1693 1.433 . S
C1692 C1688 1.350 . S
C1692 C1689 1.463 . S
C1692 N1696 1.427 . S
C1693 H1683 0.929 . S
C1693 C1691 1.433 . S
C1693 N1696 1.384 . S
C1694 H1685 0.929 . S
C1694 C1686 1.378 . S
C1694 C1689 1.350 . S
C1695 H1682 0.929 . S
C1695 C1687 1.433 . S
C1695 N1697 1.384 . S
N1696 C1692 1.427 . S
N1696 C1693 1.384 . S
N1697 C1689 1.427 . S
N1697 C1695 1.384 . S
H1698 C1704 0.930 . S
H1699 C1708 0.930 . S
H1700 C1713 0.929 . S
H1701 C1711 0.929 . S
H1702 C1706 0.929 . S
H1703 C1712 0.929 . S
C1704 H1698 0.930 . S
C1704 C1705 1.367 . S
C1704 C1712 1.378 . S
C1705 C1704 1.367 . S
C1705 C1713 1.433 . S
C1706 H1702 0.929 . S
C1706 C1708 1.378 . S
C1706 C1710 1.350 . S
C1707 C1710 1.463 . S
C1707 C1712 1.350 . S
C1707 N1715 1.427 . S
C1708 H1699 0.930 . S
C1708 C1706 1.378 . S
C1708 C1709 1.367 . S
C1709 C1708 1.367 . S
C1709 C1711 1.433 . S
C1710 C1706 1.350 . S
C1710 C1707 1.463 . S
C1710 N1714 1.427 . S
C1711 H1701 0.929 . S
C1711 C1709 1.433 . S
C1711 N1714 1.384 . S
C1712 H1703 0.929 . S
C1712 C1704 1.378 . S
C1712 C1707 1.350 . S
C1713 H1700 0.929 . S
C1713 C1705 1.433 . S
C1713 N1715 1.384 . S
N1714 C1710 1.427 . S
N1714 C1711 1.384 . S
N1715 C1707 1.427 . S
N1715 C1713 1.384 . S
H1716 C1722 0.930 . S
H1717 C1726 0.930 . S
H1718 C1731 0.929 . S
H1719 C1729 0.929 . S
H1720 C1724 0.929 . S
H1721 C1730 0.929 . S
C1722 H1716 0.930 . S
C1722 C1723 1.367 . S
C1722 C1730 1.378 . S
C1723 C1722 1.367 . S
C1723 C1731 1.433 . S
C1724 H1720 0.929 . S
C1724 C1726 1.378 . S
C1724 C1728 1.350 . S
C1725 C1728 1.463 . S
C1725 C1730 1.350 . S
C1725 N1733 1.427 . S
C1726 H1717 0.930 . S
C1726 C1724 1.378 . S
C1726 C1727 1.367 . S
C1727 C1726 1.367 . S
C1727 C1729 1.433 . S
C1728 C1724 1.350 . S
C1728 C1725 1.463 . S
C1728 N1732 1.427 . S
C1729 H1719 0.929 . S
C1729 C1727 1.433 . S
C1729 N1732 1.384 . S
C1730 H1721 0.929 . S
C1730 C1722 1.378 . S
C1730 C1725 1.350 . S
C1731 H1718 0.929 . S
C1731 C1723 1.433 . S
C1731 N1733 1.384 . S
N1732 C1728 1.427 . S
N1732 C1729 1.384 . S
N1733 C1725 1.427 . S
N1733 C1731 1.384 . S
H1734 C1740 0.930 . S
H1735 C1744 0.930 . S
H1736 C1749 0.929 . S
H1737 C1747 0.929 . S
H1738 C1742 0.929 . S
H1739 C1748 0.929 . S
C1740 H1734 0.930 . S
C1740 C1741 1.367 . S
C1740 C1748 1.378 . S
C1741 C1740 1.367 . S
C1741 C1749 1.433 . S
C1742 H1738 0.929 . S
C1742 C1744 1.378 . S
C1742 C1746 1.350 . S
C1743 C1746 1.463 . S
C1743 C1748 1.350 . S
C1743 N1751 1.427 . S
C1744 H1735 0.930 . S
C1744 C1742 1.378 . S
C1744 C1745 1.367 . S
C1745 C1744 1.367 . S
C1745 C1747 1.433 . S
C1746 C1742 1.350 . S
C1746 C1743 1.463 . S
C1746 N1750 1.427 . S
C1747 H1737 0.929 . S
C1747 C1745 1.433 . S
C1747 N1750 1.384 . S
C1748 H1739 0.929 . S
C1748 C1740 1.378 . S
C1748 C1743 1.350 . S
C1749 H1736 0.929 . S
C1749 C1741 1.433 . S
C1749 N1751 1.384 . S
N1750 C1746 1.427 . S
N1750 C1747 1.384 . S
N1751 C1743 1.427 . S
N1751 C1749 1.384 . S
H1752 C1758 0.930 . S
H1753 C1762 0.930 . S
H1754 C1767 0.929 . S
H1755 C1765 0.929 . S
H1756 C1760 0.929 . S
H1757 C1766 0.929 . S
C1758 H1752 0.930 . S
C1758 C1759 1.367 . S
C1758 C1766 1.378 . S
C1759 C1758 1.367 . S
C1759 C1767 1.433 . S
C1760 H1756 0.929 . S
C1760 C1762 1.378 . S
C1760 C1764 1.350 . S
C1761 C1764 1.463 . S
C1761 C1766 1.350 . S
C1761 N1769 1.427 . S
C1762 H1753 0.930 . S
C1762 C1760 1.378 . S
C1762 C1763 1.367 . S
C1763 C1762 1.367 . S
C1763 C1765 1.433 . S
C1764 C1760 1.350 . S
C1764 C1761 1.463 . S
C1764 N1768 1.427 . S
C1765 H1755 0.929 . S
C1765 C1763 1.433 . S
C1765 N1768 1.384 . S
C1766 H1757 0.929 . S
C1766 C1758 1.378 . S
C1766 C1761 1.350 . S
C1767 H1754 0.929 . S
C1767 C1759 1.433 . S
C1767 N1769 1.384 . S
N1768 C1764 1.427 . S
N1768 C1765 1.384 . S
N1769 C1761 1.427 . S
N1769 C1767 1.384 . S
H1770 C1776 0.930 . S
H1771 C1780 0.930 . S
H1772 C1785 0.929 . S
H1773 C1783 0.929 . S
H1774 C1778 0.929 . S
H1775 C1784 0.929 . S
C1776 H1770 0.930 . S
C1776 C1777 1.367 . S
C1776 C1784 1.378 . S
C1777 C1776 1.367 . S
C1777 C1785 1.433 . S
C1778 H1774 0.929 . S
C1778 C1780 1.378 . S
C1778 C1782 1.350 . S
C1779 C1782 1.463 . S
C1779 C1784 1.350 . S
C1779 N1787 1.427 . S
C1780 H1771 0.930 . S
C1780 C1778 1.378 . S
C1780 C1781 1.367 . S
C1781 C1780 1.367 . S
C1781 C1783 1.433 . S
C1782 C1778 1.350 . S
C1782 C1779 1.463 . S
C1782 N1786 1.427 . S
C1783 H1773 0.929 . S
C1783 C1781 1.433 . S
C1783 N1786 1.384 . S
C1784 H1775 0.929 . S
C1784 C1776 1.378 . S
C1784 C1779 1.350 . S
C1785 H1772 0.929 . S
C1785 C1777 1.433 . S
C1785 N1787 1.384 . S
N1786 C1782 1.427 . S
N1786 C1783 1.384 . S
N1787 C1779 1.427 . S
N1787 C1785 1.384 . S
H1788 C1794 0.930 . S
H1789 C1798 0.930 . S
H1790 C1803 0.929 . S
H1791 C1801 0.929 . S
H1792 C1796 0.929 . S
H1793 C1802 0.929 . S
C1794 H1788 0.930 . S
C1794 C1795 1.367 . S
C1794 C1802 1.378 . S
C1795 C1794 1.367 . S
C1795 C1803 1.433 . S
C1796 H1792 0.929 . S
C1796 C1798 1.378 . S
C1796 C1800 1.350 . S
C1797 C1800 1.463 . S
C1797 C1802 1.350 . S
C1797 N1805 1.427 . S
C1798 H1789 0.930 . S
C1798 C1796 1.378 . S
C1798 C1799 1.367 . S
C1799 C1798 1.367 . S
C1799 C1801 1.433 . S
C1800 C1796 1.350 . S
C1800 C1797 1.463 . S
C1800 N1804 1.427 . S
C1801 H1791 0.929 . S
C1801 C1799 1.433 . S
C1801 N1804 1.384 . S
C1802 H1793 0.929 . S
C1802 C1794 1.378 . S
C1802 C1797 1.350 . S
C1803 H1790 0.929 . S
C1803 C1795 1.433 . S
C1803 N1805 1.384 . S
N1804 C1800 1.427 . S
N1804 C1801 1.384 . S
N1805 C1797 1.427 . S
N1805 C1803 1.384 . S
H1806 C1812 0.930 . S
H1807 C1816 0.930 . S
H1808 C1821 0.929 . S
H1809 C1819 0.929 . S
H1810 C1814 0.929 . S
H1811 C1820 0.929 . S
C1812 H1806 0.930 . S
C1812 C1813 1.367 . S
C1812 C1820 1.378 . S
C1813 C1812 1.367 . S
C1813 C1821 1.433 . S
C1814 H1810 0.929 . S
C1814 C1816 1.378 . S
C1814 C1818 1.350 . S
C1815 C1818 1.463 . S
C1815 C1820 1.350 . S
C1815 N1823 1.427 . S
C1816 H1807 0.930 . S
C1816 C1814 1.378 . S
C1816 C1817 1.367 . S
C1817 C1816 1.367 . S
C1817 C1819 1.433 . S
C1818 C1814 1.350 . S
C1818 C1815 1.463 . S
C1818 N1822 1.427 . S
C1819 H1809 0.929 . S
C1819 C1817 1.433 . S
C1819 N1822 1.384 . S
C1820 H1811 0.929 . S
C1820 C1812 1.378 . S
C1820 C1815 1.350 . S
C1821 H1808 0.929 . S
C1821 C1813 1.433 . S
C1821 N1823 1.384 . S
N1822 C1818 1.427 . S
N1822 C1819 1.384 . S
N1823 C1815 1.427 . S
N1823 C1821 1.384 . S
C535 C8 1.819 . S
C539 C250 1.771 . S
C553 C448 1.841 . S
C557 C19 1.775 . S
C571 C30 1.794 . S
C575 C261 1.736 . S
C589 C41 1.760 . S
C593 C503 1.819 . S
C607 C206 1.751 . S
C611 C52 1.819 . S
C625 C63 1.745 . S
C629 C217 1.797 . S
C643 C492 1.718 . S
C647 C74 1.780 . S
C661 C195 1.795 . S
C665 C85 1.733 . S
C679 C151 1.755 . S
C683 C96 1.822 . S
C697 C162 1.813 . S
C701 C107 1.769 . S
C715 C118 1.800 . S
C719 C173 1.740 . S
C733 C129 1.642 . S
C737 C140 1.700 . S
C751 C283 1.755 . S
C755 C184 1.822 . S
C769 C338 1.794 . S
C773 C228 1.728 . S
C787 C305 1.678 . S
C791 C239 1.740 . S
C805 C272 1.842 . S
C809 C514 1.777 . S
C823 C294 1.696 . S
C827 C525 1.645 . S
C841 C316 1.741 . S
C845 C470 1.682 . S
C859 C327 1.642 . S
C863 C481 1.697 . S
C877 C349 1.708 . S
C881 C459 1.777 . S
C895 C415 1.782 . S
C899 C360 1.841 . S
C913 C426 1.741 . S
C917 C371 1.690 . S
C931 C437 1.713 . S
C935 C382 1.779 . S
C949 C404 1.799 . S
C953 C393 1.745 . S
C967 C7 1.645 1_455 S
C971 C84 1.561 . S
C985 C51 1.623 . S
C989 C18 1.528 . S
C1003 C29 1.608 . S
C1007 C62 1.507 . S
C1021 C40 1.525 . S
C1025 C73 1.630 . S
C1039 C95 1.643 1_545 S
C1043 C227 1.550 . S
C1057 C106 1.528 . S
C1061 C458 1.625 . S
C1075 C469 1.464 . S
C1079 C117 1.545 . S
C1093 C480 1.578 . S
C1097 C128 1.494 . S
C1111 C139 1.578 . S
C1115 C524 1.499 . S
C1129 C150 1.524 . S
C1133 C238 1.621 . S
C1147 C161 1.624 . S
C1151 C513 1.539 . S
C1165 C183 1.638 . S
C1169 C172 1.544 . S
C1183 C370 1.465 . S
C1187 C194 1.538 . S
C1201 C381 1.631 . S
C1205 C205 1.528 . S
C1219 C392 1.520 . S
C1223 C216 1.614 . S
C1237 C249 1.521 . S
C1241 C425 1.621 . S
C1255 C403 1.612 . S
C1259 C260 1.511 . S
C1273 C348 1.486 . S
C1277 C271 1.591 . S
C1291 C282 1.522 . S
C1295 C315 1.626 . S
C1309 C293 1.570 . S
C1313 C326 1.483 . S
C1327 C337 1.535 . S
C1331 C304 1.451 . S
C1345 C491 1.500 . S
C1349 C359 1.598 . S
C1363 C414 1.539 . S
C1367 C502 1.629 1_554 S
C1381 C447 1.595 . S
C1385 C436 1.486 . S
C1399 C324 1.139 . S
C1403 C5 1.394 . S
C1417 C335 1.690 . S
C1421 C16 1.433 . S
C1435 C346 1.355 . S
C1439 C27 1.619 . S
C1453 C313 1.565 . S
C1457 C38 1.296 . S
C1471 C49 1.489 . S
C1475 C302 1.220 . S
C1489 C60 1.338 . S
C1493 C269 1.627 . S
C1507 C71 1.575 . S
C1511 C280 1.290 . S
C1525 C291 1.612 . S
C1529 C82 1.356 . S
C1543 C93 1.404 . S
C1547 C522 1.169 . S
C1561 C104 1.296 . S
C1565 C236 1.564 . S
C1579 C115 1.695 . S
C1583 C511 1.406 . S
C1597 C181 1.412 . S
C1601 C126 1.151 . S
C1615 C137 1.618 . S
C1619 C225 1.333 . S
C1633 C456 1.558 . S
C1637 C148 1.283 . S
C1651 C159 1.489 . S
C1655 C467 1.221 . S
C1669 C478 1.630 . S
C1673 C170 1.351 . S
C1687 C412 1.400 . S
C1691 C192 1.699 . S
C1705 C423 1.565 . S
C1709 C203 1.272 . S
C1723 C214 1.624 . S
C1727 C434 1.337 . S
C1741 C247 1.305 . S
C1745 C379 1.561 . S
C1759 C258 1.365 . S
C1763 C357 1.629 . S
C1777 C368 1.207 . S
C1781 C500 1.468 . S
C1795 C390 1.346 . S
C1799 C445 1.632 . S
C1813 C401 1.614 . S
C1817 C489 1.357 . S
