# Generated by pormake.
# Topology wlu, (5)-cn, num edge types: 1
# Building blocks:
#     Node 0, Type 0, BuildingBlock: BEQFEK_clean_sbu_0, # of connection points: 5
#     Node 1, Type 0, BuildingBlock: BEQFEK_clean_sbu_0, # of connection points: 5
#     Node 2, Type 0, BuildingBlock: BEQFEK_clean_sbu_0, # of connection points: 5
#     Node 3, Type 0, BuildingBlock: BEQFEK_clean_sbu_0, # of connection points: 5
#     Node 4, Type 0, BuildingBlock: BEQFEK_clean_sbu_0, # of connection points: 5
#     Node 5, Type 0, BuildingBlock: BEQFEK_clean_sbu_0, # of connection points: 5
#     Node 6, Type 0, BuildingBlock: BEQFEK_clean_sbu_0, # of connection points: 5
#     Node 7, Type 0, BuildingBlock: BEQFEK_clean_sbu_0, # of connection points: 5
#     Node 8, Type 0, BuildingBlock: BEQFEK_clean_sbu_0, # of connection points: 5
#     Node 9, Type 0, BuildingBlock: BEQFEK_clean_sbu_0, # of connection points: 5
#     Node 10, Type 0, BuildingBlock: BEQFEK_clean_sbu_0, # of connection points: 5
#     Node 11, Type 0, BuildingBlock: BEQFEK_clean_sbu_0, # of connection points: 5
#     Node 12, Type 0, BuildingBlock: BEQFEK_clean_sbu_0, # of connection points: 5
#     Node 13, Type 0, BuildingBlock: BEQFEK_clean_sbu_0, # of connection points: 5
#     Node 14, Type 0, BuildingBlock: BEQFEK_clean_sbu_0, # of connection points: 5
#     Node 15, Type 0, BuildingBlock: BEQFEK_clean_sbu_0, # of connection points: 5
#     Node 16, Type 0, BuildingBlock: BEQFEK_clean_sbu_0, # of connection points: 5
#     Node 17, Type 0, BuildingBlock: BEQFEK_clean_sbu_0, # of connection points: 5
#     Node 18, Type 0, BuildingBlock: BEQFEK_clean_sbu_0, # of connection points: 5
#     Node 19, Type 0, BuildingBlock: BEQFEK_clean_sbu_0, # of connection points: 5
#     Node 20, Type 0, BuildingBlock: BEQFEK_clean_sbu_0, # of connection points: 5
#     Node 21, Type 0, BuildingBlock: BEQFEK_clean_sbu_0, # of connection points: 5
#     Node 22, Type 0, BuildingBlock: BEQFEK_clean_sbu_0, # of connection points: 5
#     Node 23, Type 0, BuildingBlock: BEQFEK_clean_sbu_0, # of connection points: 5
#     Node 24, Type 0, BuildingBlock: BEQFEK_clean_sbu_0, # of connection points: 5
#     Node 25, Type 0, BuildingBlock: BEQFEK_clean_sbu_0, # of connection points: 5
#     Node 26, Type 0, BuildingBlock: BEQFEK_clean_sbu_0, # of connection points: 5
#     Node 27, Type 0, BuildingBlock: BEQFEK_clean_sbu_0, # of connection points: 5
#     Node 28, Type 0, BuildingBlock: BEQFEK_clean_sbu_0, # of connection points: 5
#     Node 29, Type 0, BuildingBlock: BEQFEK_clean_sbu_0, # of connection points: 5
#     Node 30, Type 0, BuildingBlock: BEQFEK_clean_sbu_0, # of connection points: 5
#     Node 31, Type 0, BuildingBlock: BEQFEK_clean_sbu_0, # of connection points: 5
#     Node 32, Type 0, BuildingBlock: BEQFEK_clean_sbu_0, # of connection points: 5
#     Node 33, Type 0, BuildingBlock: BEQFEK_clean_sbu_0, # of connection points: 5
#     Node 34, Type 0, BuildingBlock: BEQFEK_clean_sbu_0, # of connection points: 5
#     Node 35, Type 0, BuildingBlock: BEQFEK_clean_sbu_0, # of connection points: 5
#     Edge 36, Type (0, 0), BuildingBlock: XUDNAN_clean_linker_2, # of connection points: 2
#     Edge 37, Type (0, 0), BuildingBlock: XUDNAN_clean_linker_2, # of connection points: 2
#     Edge 38, Type (0, 0), BuildingBlock: XUDNAN_clean_linker_2, # of connection points: 2
#     Edge 39, Type (0, 0), BuildingBlock: XUDNAN_clean_linker_2, # of connection points: 2
#     Edge 40, Type (0, 0), BuildingBlock: XUDNAN_clean_linker_2, # of connection points: 2
#     Edge 41, Type (0, 0), BuildingBlock: XUDNAN_clean_linker_2, # of connection points: 2
#     Edge 42, Type (0, 0), BuildingBlock: XUDNAN_clean_linker_2, # of connection points: 2
#     Edge 43, Type (0, 0), BuildingBlock: XUDNAN_clean_linker_2, # of connection points: 2
#     Edge 44, Type (0, 0), BuildingBlock: XUDNAN_clean_linker_2, # of connection points: 2
#     Edge 45, Type (0, 0), BuildingBlock: XUDNAN_clean_linker_2, # of connection points: 2
#     Edge 46, Type (0, 0), BuildingBlock: XUDNAN_clean_linker_2, # of connection points: 2
#     Edge 47, Type (0, 0), BuildingBlock: XUDNAN_clean_linker_2, # of connection points: 2
#     Edge 48, Type (0, 0), BuildingBlock: XUDNAN_clean_linker_2, # of connection points: 2
#     Edge 49, Type (0, 0), BuildingBlock: XUDNAN_clean_linker_2, # of connection points: 2
#     Edge 50, Type (0, 0), BuildingBlock: XUDNAN_clean_linker_2, # of connection points: 2
#     Edge 51, Type (0, 0), BuildingBlock: XUDNAN_clean_linker_2, # of connection points: 2
#     Edge 52, Type (0, 0), BuildingBlock: XUDNAN_clean_linker_2, # of connection points: 2
#     Edge 53, Type (0, 0), BuildingBlock: XUDNAN_clean_linker_2, # of connection points: 2
#     Edge 54, Type (0, 0), BuildingBlock: XUDNAN_clean_linker_2, # of connection points: 2
#     Edge 55, Type (0, 0), BuildingBlock: XUDNAN_clean_linker_2, # of connection points: 2
#     Edge 56, Type (0, 0), BuildingBlock: XUDNAN_clean_linker_2, # of connection points: 2
#     Edge 57, Type (0, 0), BuildingBlock: XUDNAN_clean_linker_2, # of connection points: 2
#     Edge 58, Type (0, 0), BuildingBlock: XUDNAN_clean_linker_2, # of connection points: 2
#     Edge 59, Type (0, 0), BuildingBlock: XUDNAN_clean_linker_2, # of connection points: 2
#     Edge 60, Type (0, 0), BuildingBlock: XUDNAN_clean_linker_2, # of connection points: 2
#     Edge 61, Type (0, 0), BuildingBlock: XUDNAN_clean_linker_2, # of connection points: 2
#     Edge 62, Type (0, 0), BuildingBlock: XUDNAN_clean_linker_2, # of connection points: 2
#     Edge 63, Type (0, 0), BuildingBlock: XUDNAN_clean_linker_2, # of connection points: 2
#     Edge 64, Type (0, 0), BuildingBlock: XUDNAN_clean_linker_2, # of connection points: 2
#     Edge 65, Type (0, 0), BuildingBlock: XUDNAN_clean_linker_2, # of connection points: 2
#     Edge 66, Type (0, 0), BuildingBlock: XUDNAN_clean_linker_2, # of connection points: 2
#     Edge 67, Type (0, 0), BuildingBlock: XUDNAN_clean_linker_2, # of connection points: 2
#     Edge 68, Type (0, 0), BuildingBlock: XUDNAN_clean_linker_2, # of connection points: 2
#     Edge 69, Type (0, 0), BuildingBlock: XUDNAN_clean_linker_2, # of connection points: 2
#     Edge 70, Type (0, 0), BuildingBlock: XUDNAN_clean_linker_2, # of connection points: 2
#     Edge 71, Type (0, 0), BuildingBlock: XUDNAN_clean_linker_2, # of connection points: 2
#     Edge 72, Type (0, 0), BuildingBlock: XUDNAN_clean_linker_2, # of connection points: 2
#     Edge 73, Type (0, 0), BuildingBlock: XUDNAN_clean_linker_2, # of connection points: 2
#     Edge 74, Type (0, 0), BuildingBlock: XUDNAN_clean_linker_2, # of connection points: 2
#     Edge 75, Type (0, 0), BuildingBlock: XUDNAN_clean_linker_2, # of connection points: 2
#     Edge 76, Type (0, 0), BuildingBlock: XUDNAN_clean_linker_2, # of connection points: 2
#     Edge 77, Type (0, 0), BuildingBlock: XUDNAN_clean_linker_2, # of connection points: 2
#     Edge 78, Type (0, 0), BuildingBlock: XUDNAN_clean_linker_2, # of connection points: 2
#     Edge 79, Type (0, 0), BuildingBlock: XUDNAN_clean_linker_2, # of connection points: 2
#     Edge 80, Type (0, 0), BuildingBlock: XUDNAN_clean_linker_2, # of connection points: 2
#     Edge 81, Type (0, 0), BuildingBlock: XUDNAN_clean_linker_2, # of connection points: 2
#     Edge 82, Type (0, 0), BuildingBlock: XUDNAN_clean_linker_2, # of connection points: 2
#     Edge 83, Type (0, 0), BuildingBlock: XUDNAN_clean_linker_2, # of connection points: 2
#     Edge 84, Type (0, 0), BuildingBlock: XUDNAN_clean_linker_2, # of connection points: 2
#     Edge 85, Type (0, 0), BuildingBlock: XUDNAN_clean_linker_2, # of connection points: 2
#     Edge 86, Type (0, 0), BuildingBlock: XUDNAN_clean_linker_2, # of connection points: 2
#     Edge 87, Type (0, 0), BuildingBlock: XUDNAN_clean_linker_2, # of connection points: 2
#     Edge 88, Type (0, 0), BuildingBlock: XUDNAN_clean_linker_2, # of connection points: 2
#     Edge 89, Type (0, 0), BuildingBlock: XUDNAN_clean_linker_2, # of connection points: 2
#     Edge 90, Type (0, 0), BuildingBlock: XUDNAN_clean_linker_2, # of connection points: 2
#     Edge 91, Type (0, 0), BuildingBlock: XUDNAN_clean_linker_2, # of connection points: 2
#     Edge 92, Type (0, 0), BuildingBlock: XUDNAN_clean_linker_2, # of connection points: 2
#     Edge 93, Type (0, 0), BuildingBlock: XUDNAN_clean_linker_2, # of connection points: 2
#     Edge 94, Type (0, 0), BuildingBlock: XUDNAN_clean_linker_2, # of connection points: 2
#     Edge 95, Type (0, 0), BuildingBlock: XUDNAN_clean_linker_2, # of connection points: 2
#     Edge 96, Type (0, 0), BuildingBlock: XUDNAN_clean_linker_2, # of connection points: 2
#     Edge 97, Type (0, 0), BuildingBlock: XUDNAN_clean_linker_2, # of connection points: 2
#     Edge 98, Type (0, 0), BuildingBlock: XUDNAN_clean_linker_2, # of connection points: 2
#     Edge 99, Type (0, 0), BuildingBlock: XUDNAN_clean_linker_2, # of connection points: 2
#     Edge 100, Type (0, 0), BuildingBlock: XUDNAN_clean_linker_2, # of connection points: 2
#     Edge 101, Type (0, 0), BuildingBlock: XUDNAN_clean_linker_2, # of connection points: 2
#     Edge 102, Type (0, 0), BuildingBlock: XUDNAN_clean_linker_2, # of connection points: 2
#     Edge 103, Type (0, 0), BuildingBlock: XUDNAN_clean_linker_2, # of connection points: 2
#     Edge 104, Type (0, 0), BuildingBlock: XUDNAN_clean_linker_2, # of connection points: 2
#     Edge 105, Type (0, 0), BuildingBlock: XUDNAN_clean_linker_2, # of connection points: 2
#     Edge 106, Type (0, 0), BuildingBlock: XUDNAN_clean_linker_2, # of connection points: 2
#     Edge 107, Type (0, 0), BuildingBlock: XUDNAN_clean_linker_2, # of connection points: 2
#     Edge 108, Type (0, 0), BuildingBlock: XUDNAN_clean_linker_2, # of connection points: 2
#     Edge 109, Type (0, 0), BuildingBlock: XUDNAN_clean_linker_2, # of connection points: 2
#     Edge 110, Type (0, 0), BuildingBlock: XUDNAN_clean_linker_2, # of connection points: 2
#     Edge 111, Type (0, 0), BuildingBlock: XUDNAN_clean_linker_2, # of connection points: 2
#     Edge 112, Type (0, 0), BuildingBlock: XUDNAN_clean_linker_2, # of connection points: 2
#     Edge 113, Type (0, 0), BuildingBlock: XUDNAN_clean_linker_2, # of connection points: 2
#     Edge 114, Type (0, 0), BuildingBlock: XUDNAN_clean_linker_2, # of connection points: 2
#     Edge 115, Type (0, 0), BuildingBlock: XUDNAN_clean_linker_2, # of connection points: 2
#     Edge 116, Type (0, 0), BuildingBlock: XUDNAN_clean_linker_2, # of connection points: 2
#     Edge 117, Type (0, 0), BuildingBlock: XUDNAN_clean_linker_2, # of connection points: 2
#     Edge 118, Type (0, 0), BuildingBlock: XUDNAN_clean_linker_2, # of connection points: 2
#     Edge 119, Type (0, 0), BuildingBlock: XUDNAN_clean_linker_2, # of connection points: 2
#     Edge 120, Type (0, 0), BuildingBlock: XUDNAN_clean_linker_2, # of connection points: 2
#     Edge 121, Type (0, 0), BuildingBlock: XUDNAN_clean_linker_2, # of connection points: 2
#     Edge 122, Type (0, 0), BuildingBlock: XUDNAN_clean_linker_2, # of connection points: 2
#     Edge 123, Type (0, 0), BuildingBlock: XUDNAN_clean_linker_2, # of connection points: 2
#     Edge 124, Type (0, 0), BuildingBlock: XUDNAN_clean_linker_2, # of connection points: 2
#     Edge 125, Type (0, 0), BuildingBlock: XUDNAN_clean_linker_2, # of connection points: 2
# Relax obj value: 0.084
# Max RMSD: 0.146
# Mean RMSD: 0.146
data_MOF--net-wlu--node1-BEQFEK_clean_sbu_0--edge1-XUDNAN_clean_linker_2
_symmetry_space_group_name_H-M    P1
_symmetry_Int_Tables_number       1
_symmetry_cell_setting            triclinic
loop_
_symmetry_equiv_pos_as_xyz
'x, y, z'
_cell_length_a     68.381264
_cell_length_b     68.389509
_cell_length_c     57.149868
_cell_angle_alpha  89.961688
_cell_angle_beta   90.020001
_cell_angle_gamma 119.99194
loop_
_atom_site_label
_atom_site_type_symbol
_atom_site_fract_x
_atom_site_fract_y
_atom_site_fract_z
_atom_type_partial_charge
Co0 Co 0.2979 0.21445 0.03951 0.0
Co1 Co 0.26854 0.16185 0.03648 0.0
C2 C 0.30036 0.18866 0.99806 0.0
O3 O 0.30615 0.20726 0.0085 0.0
O4 O 0.28631 0.16974 0.00714 0.0
C5 C 0.33755 0.26042 0.04594 0.0
O6 O 0.35139 0.25283 0.04136 0.0
C7 C 0.24805 0.11339 0.02521 0.0
C8 C 0.2237 0.09808 0.0543 0.0
C9 C 0.23108 0.09294 0.03391 0.0
N10 N 0.25068 0.12986 0.03996 0.0
N11 N 0.23614 0.12055 0.05734 0.0
C12 C 0.2597 0.11767 0.00204 0.0
H13 H 0.27808 0.12491 0.00498 0.0
H14 H 0.25319 0.10212 0.99137 0.0
H15 H 0.25724 0.13021 0.99212 0.0
C16 C 0.31308 0.2029 0.08353 0.0
N17 N 0.30034 0.19703 0.06401 0.0
N18 N 0.28865 0.17486 0.0625 0.0
C19 C 0.29437 0.16597 0.08058 0.0
C20 C 0.31004 0.18348 0.09452 0.0
C21 C 0.32674 0.22657 0.09245 0.0
H22 H 0.31817 0.23627 0.08834 0.0
H23 H 0.34358 0.23483 0.08399 0.0
H24 H 0.32915 0.22677 0.11167 0.0
O25 O 0.26717 0.2094 0.03855 0.0
O26 O 0.24594 0.17233 0.03446 0.0
H27 H 0.26988 0.13307 0.09241 0.0
H28 H 0.29854 0.13871 0.09396 0.0
C29 C 0.28646 0.14136 0.08338 0.0
H30 H 0.2844 0.13337 0.066 0.0
H31 H 0.23422 0.12967 0.0709 0.0
O32 O 0.31635 0.24704 0.04574 0.0
C33 C 0.24801 0.19183 0.03606 0.0
Co34 Co 0.78454 0.07334 0.04893 0.0
Co35 Co 0.83546 0.09818 0.0333 0.0
C36 C 0.7992 0.09203 1.00024 0.0
O37 O 0.78407 0.08088 0.0155 0.0
O38 O 0.82012 0.10063 0.00484 0.0
C39 C 0.74135 0.06947 0.05642 0.0
O40 O 0.74949 0.08726 0.0427 0.0
C41 C 0.8799 0.13046 0.01272 0.0
C42 C 0.9032 0.1277 0.03753 0.0
C43 C 0.90269 0.13904 0.01765 0.0
N44 N 0.86762 0.11513 0.02922 0.0
N45 N 0.88168 0.11341 0.04382 0.0
C46 C 0.86981 0.13533 0.99181 0.0
H47 H 0.85716 0.11921 0.98365 0.0
H48 H 0.86102 0.14446 0.99747 0.0
H49 H 0.88266 0.14533 0.97838 0.0
C50 C 0.80282 0.10958 0.08446 0.0
N51 N 0.80557 0.09877 0.06619 0.0
N52 N 0.82695 0.10944 0.05984 0.0
C53 C 0.83839 0.1277 0.07378 0.0
C54 C 0.82342 0.12834 0.08977 0.0
C55 C 0.78093 0.10184 0.09698 0.0
H56 H 0.77178 0.08321 0.09882 0.0
H57 H 0.77035 0.10679 0.08667 0.0
H58 H 0.7837 0.10956 0.11462 0.0
O59 O 0.79188 0.04921 0.05089 0.0
O60 O 0.82694 0.06558 0.03709 0.0
H61 H 0.87334 0.13805 0.0768 0.0
H62 H 0.86725 0.16062 0.08089 0.0
C63 C 0.86273 0.14511 0.07071 0.0
H64 H 0.86637 0.1495 0.05193 0.0
H65 H 0.87656 0.10268 0.05831 0.0
O66 O 0.75362 0.06096 0.06148 0.0
C67 C 0.80923 0.04824 0.04475 0.0
Co68 Co 0.91493 0.69655 0.0356 0.0
Co69 Co 0.89382 0.72807 0.03229 0.0
C70 C 0.89091 0.69702 0.99291 0.0
O71 O 0.90031 0.68802 0.00443 0.0
O72 O 0.88809 0.71252 1.00171 0.0
C73 C 0.91541 0.65502 0.03938 0.0
O74 O 0.89603 0.64671 0.0283 0.0
C75 C 0.85833 0.73878 0.02181 0.0
C76 C 0.86979 0.77081 0.04092 0.0
C77 C 0.85264 0.75523 0.02673 0.0
N78 N 0.87772 0.74425 0.03293 0.0
N79 N 0.88455 0.76345 0.04422 0.0
C80 C 0.84723 0.71956 0.00486 0.0
H81 H 0.85877 0.72295 0.98986 0.0
H82 H 0.84434 0.70376 0.01343 0.0
H83 H 0.83121 0.71728 0.99769 0.0
C84 C 0.88819 0.6833 0.0797 0.0
N85 N 0.89441 0.69465 0.05926 0.0
N86 N 0.88544 0.70774 0.05785 0.0
C87 C 0.87329 0.70517 0.07738 0.0
C88 C 0.87471 0.68965 0.09192 0.0
C89 C 0.89508 0.66667 0.0874 0.0
H90 H 0.91375 0.67481 0.08731 0.0
H91 H 0.8881 0.65235 0.07497 0.0
H92 H 0.88858 0.65972 0.10504 0.0
O93 O 0.94142 0.72784 0.03369 0.0
O94 O 0.92626 0.75002 0.0338 0.0
H95 H 0.87612 0.73731 0.08322 0.0
H96 H 0.85424 0.71491 0.10028 0.0
C97 C 0.8628 0.71927 0.08304 0.0
H98 H 0.85042 0.71696 0.06924 0.0
H99 H 0.89935 0.77159 0.0541 0.0
O100 O 0.92655 0.67605 0.04369 0.0
C101 C 0.94345 0.74744 0.0335 0.0
Co102 Co 0.21251 0.29853 0.46368 0.0
Co103 Co 0.16012 0.26976 0.46855 0.0
C104 C 0.18953 0.30302 0.5057 0.0
O105 O 0.20775 0.30894 0.4945 0.0
O106 O 0.17041 0.28836 0.49752 0.0
C107 C 0.25871 0.33674 0.45604 0.0
O108 O 0.25201 0.35095 0.46225 0.0
C109 C 0.11459 0.26073 0.47874 0.0
C110 C 0.09386 0.22457 0.46999 0.0
C111 C 0.09263 0.24244 0.47997 0.0
N112 N 0.12795 0.25372 0.46913 0.0
N113 N 0.11543 0.23216 0.46367 0.0
C114 C 0.12316 0.28462 0.48612 0.0
H115 H 0.1394 0.2961 0.4773 0.0
H116 H 0.11063 0.28991 0.48194 0.0
H117 H 0.12622 0.28599 0.50523 0.0
C118 C 0.1993 0.31319 0.42011 0.0
N119 N 0.19412 0.30053 0.43966 0.0
N120 N 0.17199 0.28854 0.44166 0.0
C121 C 0.16242 0.29343 0.42359 0.0
C122 C 0.17948 0.30943 0.40941 0.0
C123 C 0.22282 0.32816 0.41132 0.0
H124 H 0.23301 0.31984 0.41388 0.0
H125 H 0.23068 0.34423 0.42125 0.0
H126 H 0.22287 0.33203 0.39245 0.0
O127 O 0.2067 0.26743 0.46688 0.0
O128 O 0.16953 0.2465 0.46962 0.0
H129 H 0.1286 0.26551 0.42268 0.0
H130 H 0.13311 0.28894 0.40421 0.0
C131 C 0.13753 0.28417 0.42109 0.0
H132 H 0.13157 0.29078 0.43544 0.0
H133 H 0.12176 0.2224 0.45653 0.0
O134 O 0.24476 0.31568 0.45559 0.0
C135 C 0.18897 0.24828 0.46902 0.0
Co136 Co 0.70384 0.92168 0.46294 0.0
Co137 Co 0.73406 0.89897 0.46744 0.0
C138 C 0.69847 0.89042 0.50266 0.0
O139 O 0.69315 0.90365 0.49234 0.0
O140 O 0.71364 0.88668 0.4946 0.0
C141 C 0.66167 0.92044 0.45672 0.0
O142 O 0.65347 0.89982 0.46482 0.0
C143 C 0.75338 0.86989 0.47886 0.0
C144 C 0.78348 0.88469 0.45598 0.0
C145 C 0.77236 0.86845 0.47303 0.0
N146 N 0.75327 0.88613 0.46562 0.0
N147 N 0.77127 0.89483 0.45197 0.0
C148 C 0.73729 0.85837 0.49864 0.0
H149 H 0.7384 0.87129 0.51113 0.0
H150 H 0.71979 0.84917 0.49171 0.0
H151 H 0.74096 0.84653 0.50829 0.0
C152 C 0.69566 0.8997 0.41605 0.0
N153 N 0.70516 0.90418 0.4375 0.0
N154 N 0.71714 0.89405 0.43971 0.0
C155 C 0.71518 0.88235 0.42002 0.0
C156 C 0.70164 0.88568 0.40433 0.0
C157 C 0.68058 0.90812 0.40725 0.0
H158 H 0.66418 0.89906 0.41652 0.0
H159 H 0.67722 0.90515 0.38824 0.0
H160 H 0.6883 0.92642 0.41095 0.0
O161 O 0.73394 0.94816 0.46922 0.0
O162 O 0.75473 0.93165 0.47221 0.0
H163 H 0.74516 0.88125 0.41255 0.0
H164 H 0.7201 0.85785 0.40066 0.0
C165 C 0.72705 0.86927 0.41594 0.0
H166 H 0.7257 0.85925 0.43174 0.0
H167 H 0.77564 0.90826 0.44048 0.0
O168 O 0.68295 0.93299 0.45486 0.0
C169 C 0.75285 0.94924 0.47266 0.0
Co170 Co 0.08057 0.7887 0.46651 0.0
Co171 Co 0.10458 0.84122 0.472 0.0
C172 C 0.11569 0.81443 0.50402 0.0
O173 O 0.10085 0.79628 0.49417 0.0
O174 O 0.12014 0.83382 0.49665 0.0
C175 C 0.0764 0.74462 0.4555 0.0
O176 O 0.09852 0.75444 0.45489 0.0
C177 C 0.13565 0.89065 0.4772 0.0
C178 C 0.1134 0.90311 0.4643 0.0
C179 C 0.13451 0.91033 0.47403 0.0
N180 N 0.11604 0.87295 0.46993 0.0
N181 N 0.10293 0.88058 0.46214 0.0
C182 C 0.15507 0.88842 0.4859 0.0
H183 H 0.1537 0.87247 0.47948 0.0
H184 H 0.17133 0.9029 0.47995 0.0
H185 H 0.15479 0.88799 0.50532 0.0
C186 C 0.09921 0.80206 0.41812 0.0
N187 N 0.09597 0.80693 0.44016 0.0
N188 N 0.10618 0.82902 0.4426 0.0
C189 C 0.11641 0.83886 0.42229 0.0
C190 C 0.11237 0.82209 0.40615 0.0
C191 C 0.08887 0.77875 0.40816 0.0
H192 H 0.07188 0.76786 0.41576 0.0
H193 H 0.09976 0.7715 0.41244 0.0
H194 H 0.08743 0.77904 0.38883 0.0
O195 O 0.05483 0.79242 0.47564 0.0
O196 O 0.07292 0.82919 0.48252 0.0
H197 H 0.11945 0.87133 0.41855 0.0
H198 H 0.14027 0.86802 0.40225 0.0
C199 C 0.13056 0.86383 0.41883 0.0
H200 H 0.14244 0.87135 0.4337 0.0
H201 H 0.08661 0.8703 0.45575 0.0
O202 O 0.06695 0.7562 0.45968 0.0
C203 C 0.05491 0.81006 0.4827 0.0
Co204 Co 0.69309 0.78392 0.95896 0.0
Co205 Co 0.73165 0.83237 0.97352 0.0
C206 C 0.69003 0.80423 0.00325 0.0
O207 O 0.68065 0.78848 0.98819 0.0
O208 O 0.70959 0.82133 1.0 0.0
C209 C 0.65304 0.73912 0.95098 0.0
O210 O 0.64657 0.7398 0.97246 0.0
C211 C 0.75134 0.87829 0.99225 0.0
C212 C 0.78637 0.89458 0.97908 0.0
C213 C 0.77193 0.89832 0.99294 0.0
N214 N 0.75363 0.86336 0.97896 0.0
N215 N 0.7746 0.87323 0.97106 0.0
C216 C 0.7294 0.87365 0.00284 0.0
H217 H 0.71512 0.86174 0.99164 0.0
H218 H 0.72881 0.88947 0.00497 0.0
H219 H 0.72747 0.86571 0.02027 0.0
C220 C 0.69045 0.80912 0.91893 0.0
N221 N 0.70078 0.80831 0.93859 0.0
N222 N 0.71644 0.82886 0.94446 0.0
C223 C 0.71645 0.84351 0.92854 0.0
C224 C 0.69992 0.83139 0.91189 0.0
C225 C 0.67087 0.78897 0.90793 0.0
H226 H 0.67592 0.77631 0.90362 0.0
H227 H 0.65669 0.78121 0.92059 0.0
H228 H 0.66513 0.79343 0.89166 0.0
O229 O 0.7193 0.78051 0.96664 0.0
O230 O 0.74767 0.81483 0.97438 0.0
H231 H 0.7485 0.87363 0.93166 0.0
H232 H 0.72772 0.87716 0.91538 0.0
C233 C 0.73039 0.86862 0.93055 0.0
H234 H 0.72587 0.87415 0.94691 0.0
H235 H 0.78094 0.86529 0.96042 0.0
O236 O 0.67121 0.75559 0.94313 0.0
C237 C 0.73984 0.79368 0.97214 0.0
Co238 Co 0.21279 0.91695 0.96324 0.0
Co239 Co 0.1602 0.89364 0.96882 0.0
C240 C 0.18861 0.8872 0.00429 0.0
O241 O 0.20691 0.90037 0.99353 0.0
O242 O 0.16944 0.88282 0.99638 0.0
C243 C 0.25687 0.92099 0.95952 0.0
O244 O 0.24803 0.90233 0.97194 0.0
C245 C 0.11241 0.86323 0.98103 0.0
C246 C 0.09593 0.87808 0.95998 0.0
C247 C 0.09171 0.86165 0.97654 0.0
N248 N 0.12812 0.87985 0.96765 0.0
N249 N 0.1181 0.8885 0.95497 0.0
C250 C 0.11788 0.85141 0.99978 0.0
H251 H 0.12816 0.84456 0.99221 0.0
H252 H 0.10256 0.83761 0.0081 0.0
H253 H 0.12812 0.86381 0.0135 0.0
C254 C 0.19852 0.88953 0.91947 0.0
N255 N 0.19386 0.8975 0.939 0.0
N256 N 0.17181 0.88765 0.94149 0.0
C257 C 0.16174 0.87289 0.92387 0.0
C258 C 0.17832 0.87358 0.90929 0.0
C259 C 0.22183 0.89526 0.91222 0.0
H260 H 0.23283 0.91387 0.91142 0.0
H261 H 0.22886 0.88865 0.92551 0.0
H262 H 0.22196 0.88787 0.89501 0.0
O263 O 0.20831 0.94309 0.96806 0.0
O264 O 0.17123 0.92621 0.9725 0.0
H265 H 0.12877 0.86862 0.92007 0.0
H266 H 0.13205 0.84695 0.90593 0.0
C267 C 0.13671 0.85797 0.92157 0.0
H268 H 0.12997 0.84746 0.93754 0.0
H269 H 0.1266 0.90216 0.94361 0.0
O270 O 0.24481 0.92969 0.95427 0.0
C271 C 0.19048 0.94403 0.9719 0.0
Co272 Co 0.09153 0.30178 0.96304 0.0
Co273 Co 0.10183 0.26241 0.97072 0.0
C274 C 0.1116 0.29819 0.00752 0.0
O275 O 0.10577 0.30959 0.99459 0.0
O276 O 0.11032 0.28001 1.0002 0.0
C277 C 0.08734 0.34214 0.96375 0.0
O278 O 0.09562 0.3454 0.98505 0.0
C279 C 0.13042 0.24456 0.9857 0.0
C280 C 0.11252 0.2094 0.97289 0.0
C281 C 0.13102 0.22456 0.98597 0.0
N282 N 0.11225 0.24126 0.97348 0.0
N283 N 0.10165 0.22025 0.96571 0.0
C284 C 0.14744 0.26695 0.99566 0.0
H285 H 0.14794 0.28083 0.9851 0.0
H286 H 0.16449 0.26876 0.99603 0.0
H287 H 0.14248 0.26839 0.01378 0.0
C288 C 0.11875 0.30827 0.92048 0.0
N289 N 0.10985 0.29779 0.94094 0.0
N290 N 0.11461 0.28158 0.94414 0.0
C291 C 0.1271 0.28146 0.92593 0.0
C292 C 0.13013 0.29837 0.91022 0.0
C293 C 0.11415 0.32567 0.91002 0.0
H294 H 0.09576 0.31948 0.91067 0.0
H295 H 0.12282 0.34136 0.92056 0.0
H296 H 0.11976 0.3295 0.89156 0.0
O297 O 0.06171 0.27396 0.96544 0.0
O298 O 0.06827 0.24543 0.96915 0.0
H299 H 0.12192 0.24825 0.92087 0.0
H300 H 0.14861 0.27049 0.90954 0.0
C301 C 0.13614 0.26561 0.92392 0.0
H302 H 0.14442 0.26554 0.94056 0.0
H303 H 0.08676 0.21317 0.95597 0.0
O304 O 0.08499 0.32534 0.95201 0.0
C305 C 0.05458 0.25292 0.96756 0.0
Co306 Co 0.78272 0.70404 0.53951 0.0
Co307 Co 0.83559 0.73353 0.53971 0.0
C308 C 0.81125 0.70104 0.50108 0.0
O309 O 0.79212 0.69539 0.51022 0.0
O310 O 0.82974 0.71516 0.51091 0.0
C311 C 0.73745 0.66333 0.54283 0.0
O312 O 0.74626 0.65114 0.53571 0.0
C313 C 0.88483 0.75039 0.53781 0.0
C314 C 0.89764 0.78407 0.55366 0.0
C315 C 0.90472 0.7704 0.54312 0.0
N316 N 0.86718 0.75257 0.54465 0.0
N317 N 0.875 0.77267 0.55423 0.0
C318 C 0.88219 0.72919 0.52726 0.0
H319 H 0.86546 0.71461 0.53187 0.0
H320 H 0.8957 0.726 0.53354 0.0
H321 H 0.8832 0.73088 0.50792 0.0
C322 C 0.79211 0.69144 0.58643 0.0
N323 N 0.79903 0.70286 0.56607 0.0
N324 N 0.82122 0.71502 0.56609 0.0
C325 C 0.82914 0.71159 0.58638 0.0
C326 C 0.81093 0.69656 0.6 0.0
C327 C 0.76797 0.67495 0.59215 0.0
H328 H 0.75758 0.68311 0.58978 0.0
H329 H 0.76175 0.66046 0.57998 0.0
H330 H 0.76578 0.66828 0.6102 0.0
O331 O 0.78729 0.73471 0.53499 0.0
O332 O 0.8246 0.75502 0.53447 0.0
H333 H 0.86062 0.74185 0.59195 0.0
H334 H 0.8563 0.71885 0.61077 0.0
C335 C 0.85362 0.72334 0.59288 0.0
H336 H 0.86293 0.71885 0.58008 0.0
H337 H 0.86482 0.77879 0.56071 0.0
O338 O 0.74991 0.6846 0.54484 0.0
C339 C 0.80538 0.75361 0.53298 0.0
Co340 Co 0.29532 0.08352 0.54943 0.0
Co341 Co 0.27266 0.11135 0.5329 0.0
C342 C 0.30842 0.11148 0.5043 0.0
O343 O 0.30933 0.09789 0.51904 0.0
O344 O 0.29537 0.11962 0.50742 0.0
C345 C 0.33202 0.07464 0.56085 0.0
O346 O 0.34512 0.09186 0.54739 0.0
C347 C 0.25258 0.1386 0.51478 0.0
C348 C 0.22403 0.12683 0.53958 0.0
C349 C 0.23349 0.14013 0.51998 0.0
N350 N 0.25419 0.12495 0.53073 0.0
N351 N 0.23712 0.11812 0.54548 0.0
C352 C 0.26759 0.14788 0.49384 0.0
H353 H 0.27084 0.13481 0.48635 0.0
H354 H 0.28405 0.16232 0.49938 0.0
H355 H 0.26003 0.15366 0.48025 0.0
C356 C 0.30648 0.11373 0.59046 0.0
N357 N 0.2957 0.10539 0.56999 0.0
N358 N 0.28691 0.11759 0.56277 0.0
C359 C 0.29206 0.13433 0.5783 0.0
C360 C 0.30461 0.13243 0.59644 0.0
C361 C 0.32078 0.10574 0.60223 0.0
H362 H 0.33553 0.10982 0.59095 0.0
H363 H 0.32705 0.11378 0.61952 0.0
H364 H 0.3109 0.08714 0.60442 0.0
O365 O 0.2645 0.05852 0.54273 0.0
O366 O 0.25044 0.07896 0.52853 0.0
H367 H 0.26717 0.14441 0.57813 0.0
H368 H 0.29428 0.16613 0.58797 0.0
C369 C 0.28559 0.15212 0.5753 0.0
H370 H 0.28939 0.1588 0.55717 0.0
H371 H 0.234 0.10685 0.55919 0.0
O372 O 0.31146 0.06915 0.56358 0.0
C373 C 0.24852 0.05987 0.53298 0.0
Co374 Co 0.90492 0.21626 0.5323 0.0
Co375 Co 0.89331 0.16596 0.534 0.0
C376 C 0.88321 0.1867 0.49189 0.0
O377 O 0.89176 0.20607 0.50134 0.0
O378 O 0.88212 0.16986 0.50269 0.0
C379 C 0.92601 0.26254 0.52352 0.0
O380 O 0.93285 0.25623 0.505 0.0
C381 C 0.86524 0.117 0.52812 0.0
C382 C 0.88595 0.1047 0.5455 0.0
C383 C 0.86641 0.09761 0.53256 0.0
N384 N 0.88326 0.13462 0.53805 0.0
N385 N 0.89545 0.12712 0.54858 0.0
C386 C 0.84963 0.11965 0.51171 0.0
H387 H 0.84648 0.13313 0.51816 0.0
H388 H 0.83333 0.10389 0.50945 0.0
H389 H 0.85782 0.12476 0.49429 0.0
C390 C 0.87776 0.20311 0.57483 0.0
N391 N 0.88603 0.19761 0.55628 0.0
N392 N 0.8836 0.1775 0.55931 0.0
C393 C 0.87503 0.1701 0.58092 0.0
C394 C 0.87096 0.18616 0.59169 0.0
C395 C 0.87555 0.22383 0.57536 0.0
H396 H 0.8726 0.22799 0.5574 0.0
H397 H 0.8613 0.22133 0.58668 0.0
H398 H 0.89149 0.23832 0.58194 0.0
O399 O 0.93446 0.21758 0.53316 0.0
O400 O 0.92665 0.18193 0.5323 0.0
H401 H 0.87677 0.15185 0.61098 0.0
H402 H 0.85655 0.13483 0.58875 0.0
C403 C 0.87361 0.14954 0.59187 0.0
H404 H 0.88627 0.14599 0.58398 0.0
H405 H 0.91079 0.13747 0.55698 0.0
O406 O 0.91228 0.24757 0.53752 0.0
C407 C 0.94079 0.20299 0.53248 0.0
Co408 Co 0.95777 0.5476 0.37593 0.0
Co409 Co 0.9321 0.49631 0.36254 0.0
C410 C 0.97 0.52946 0.33317 0.0
O411 O 0.9725 0.54534 0.34682 0.0
O412 O 0.955 0.50892 0.33699 0.0
C413 C 0.99527 0.59313 0.38676 0.0
O414 O 0.00831 0.58898 0.37324 0.0
C415 C 0.91711 0.44744 0.35413 0.0
C416 C 0.8818 0.4326 0.36616 0.0
C417 C 0.8972 0.42687 0.3575 0.0
N418 N 0.91338 0.46423 0.36076 0.0
N419 N 0.89221 0.45515 0.36772 0.0
C420 C 0.93956 0.45122 0.34617 0.0
H421 H 0.95312 0.46852 0.35077 0.0
H422 H 0.94315 0.43856 0.3542 0.0
H423 H 0.93933 0.44937 0.32687 0.0
C424 C 0.96677 0.52957 0.41913 0.0
N425 N 0.95628 0.5265 0.39834 0.0
N426 N 0.94621 0.50499 0.39267 0.0
C427 C 0.95024 0.49373 0.4097 0.0
C428 C 0.96341 0.50893 0.42703 0.0
C429 C 0.98226 0.55226 0.42953 0.0
H430 H 0.99712 0.56154 0.41794 0.0
H431 H 0.98827 0.55098 0.44717 0.0
H432 H 0.97338 0.56206 0.43076 0.0
O433 O 0.92765 0.54318 0.3681 0.0
O434 O 0.91049 0.50739 0.35721 0.0
H435 H 0.94586 0.46313 0.42574 0.0
H436 H 0.95217 0.46613 0.39482 0.0
C437 C 0.94278 0.46912 0.40884 0.0
H438 H 0.92452 0.45929 0.40469 0.0
H439 H 0.88492 0.46439 0.37394 0.0
O440 O 0.97463 0.57824 0.3893 0.0
C441 C 0.9104 0.52579 0.36009 0.0
Co442 Co 0.45492 0.41591 0.37502 0.0
Co443 Co 0.50733 0.44075 0.3679 0.0
C444 C 0.47575 0.44378 0.3327 0.0
O445 O 0.45797 0.43107 0.34441 0.0
O446 O 0.49527 0.44859 0.33998 0.0
C447 C 0.4086 0.40653 0.38335 0.0
O448 O 0.41374 0.42536 0.37231 0.0
C449 C 0.55305 0.47729 0.35623 0.0
C450 C 0.57452 0.46718 0.37569 0.0
C451 C 0.57537 0.48387 0.36127 0.0
N452 N 0.53964 0.45786 0.36754 0.0
N453 N 0.55258 0.45181 0.37898 0.0
C454 C 0.54441 0.48781 0.33918 0.0
H455 H 0.53471 0.4753 0.32537 0.0
H456 H 0.53282 0.49223 0.34831 0.0
H457 H 0.55807 0.50291 0.33042 0.0
C458 C 0.46925 0.44483 0.41784 0.0
N459 N 0.47391 0.43678 0.39833 0.0
N460 N 0.49593 0.44725 0.39532 0.0
C461 C 0.50595 0.4625 0.41261 0.0
C462 C 0.4894 0.46148 0.42748 0.0
C463 C 0.44589 0.43824 0.42574 0.0
H464 H 0.43574 0.41962 0.42752 0.0
H465 H 0.43782 0.44362 0.41234 0.0
H466 H 0.44587 0.44617 0.44263 0.0
O467 O 0.4616 0.39116 0.37053 0.0
O468 O 0.49875 0.40842 0.36638 0.0
H469 H 0.53949 0.46794 0.41487 0.0
H470 H 0.53549 0.48841 0.43069 0.0
C471 C 0.5309 0.47803 0.41457 0.0
H472 H 0.53698 0.48927 0.39904 0.0
H473 H 0.54642 0.43722 0.38915 0.0
O474 O 0.42337 0.4006 0.38571 0.0
C475 C 0.47962 0.39041 0.36736 0.0
Co476 Co 0.58706 0.03745 0.37646 0.0
Co477 Co 0.56242 0.06546 0.36887 0.0
C478 C 0.55593 0.02915 0.33552 0.0
O479 O 0.56978 0.02514 0.34654 0.0
O480 O 0.55121 0.04392 0.34266 0.0
C481 C 0.5866 0.99605 0.38419 0.0
O482 O 0.56625 0.98769 0.37528 0.0
C483 C 0.52899 0.07854 0.35605 0.0
C484 C 0.54461 0.11338 0.36959 0.0
C485 C 0.52659 0.09759 0.3564 0.0
N486 N 0.54777 0.08311 0.36793 0.0
N487 N 0.55689 0.10388 0.37622 0.0
C488 C 0.51343 0.05606 0.34531 0.0
H489 H 0.51392 0.04244 0.35537 0.0
H490 H 0.49583 0.05283 0.34485 0.0
H491 H 0.51906 0.05579 0.32717 0.0
C492 C 0.56057 0.02656 0.421 0.0
N493 N 0.56798 0.03818 0.40078 0.0
N494 N 0.55736 0.04957 0.39739 0.0
C495 C 0.5426 0.04518 0.41503 0.0
C496 C 0.54403 0.03029 0.43056 0.0
C497 C 0.56879 0.01173 0.431 0.0
H498 H 0.58718 0.01936 0.42799 0.0
H499 H 0.55985 0.99499 0.42236 0.0
H500 H 0.56538 0.00924 0.45008 0.0
O501 O 0.61317 0.06797 0.36975 0.0
O502 O 0.59497 0.08671 0.36326 0.0
H503 H 0.53474 0.07172 0.41599 0.0
H504 H 0.51405 0.0461 0.43045 0.0
C505 C 0.5257 0.053 0.41532 0.0
H506 H 0.51574 0.04771 0.3989 0.0
H507 H 0.57197 0.11187 0.38565 0.0
O508 O 0.59895 0.01736 0.38606 0.0
C509 C 0.61322 0.086 0.364 0.0
Co510 Co 0.88043 0.63264 0.78671 0.0
Co511 Co 0.83144 0.59729 0.80392 0.0
C512 C 0.86426 0.63704 0.83333 0.0
O513 O 0.87939 0.64511 0.81753 0.0
O514 O 0.84566 0.61873 0.83043 0.0
C515 C 0.92818 0.66285 0.77875 0.0
O516 O 0.9308 0.65715 0.79999 0.0
C517 C 0.78599 0.58476 0.82037 0.0
C518 C 0.76562 0.54927 0.80894 0.0
C519 C 0.76396 0.56673 0.81923 0.0
N520 N 0.79985 0.5784 0.81062 0.0
N521 N 0.7876 0.55705 0.80415 0.0
C522 C 0.79412 0.60743 0.83134 0.0
H523 H 0.80796 0.61104 0.84374 0.0
H524 H 0.80096 0.62066 0.81758 0.0
H525 H 0.78064 0.60826 0.84127 0.0
C526 C 0.85475 0.63899 0.7493 0.0
N527 N 0.85557 0.62828 0.7687 0.0
N528 N 0.83493 0.61344 0.77531 0.0
C529 C 0.82024 0.61415 0.75995 0.0
C530 C 0.83236 0.63033 0.74296 0.0
C531 C 0.87499 0.65867 0.73852 0.0
H532 H 0.88524 0.65251 0.72948 0.0
H533 H 0.88552 0.67061 0.75243 0.0
H534 H 0.87028 0.66786 0.72581 0.0
O535 O 0.88069 0.60391 0.79027 0.0
O536 O 0.8461 0.57844 0.8019 0.0
H537 H 0.79067 0.58187 0.76509 0.0
H538 H 0.78696 0.59987 0.74462 0.0
C539 C 0.79514 0.5995 0.76126 0.0
H540 H 0.78858 0.60555 0.77559 0.0
H541 H 0.79415 0.54802 0.79578 0.0
O542 O 0.90845 0.65433 0.77021 0.0
C543 C 0.86624 0.58383 0.7963 0.0
Co544 Co 0.37423 0.25244 0.8005 0.0
Co545 Co 0.40146 0.22698 0.80603 0.0
C546 C 0.36558 0.21995 0.84021 0.0
O547 O 0.36165 0.23404 0.8295 0.0
O548 O 0.38024 0.21509 0.83281 0.0
C549 C 0.33601 0.2602 0.79039 0.0
O550 O 0.32177 0.23933 0.79671 0.0
C551 C 0.41685 0.19325 0.81096 0.0
C552 C 0.45128 0.21361 0.79658 0.0
C553 C 0.43671 0.19278 0.80651 0.0
N554 N 0.41991 0.21344 0.80402 0.0
N555 N 0.4405 0.22542 0.79544 0.0
C556 C 0.39502 0.17484 0.82055 0.0
H557 H 0.38096 0.17776 0.81576 0.0
H558 H 0.39149 0.15818 0.81376 0.0
H559 H 0.39611 0.17472 0.83992 0.0
C560 C 0.36569 0.23073 0.75345 0.0
N561 N 0.37481 0.23467 0.77507 0.0
N562 N 0.38561 0.22338 0.77765 0.0
C563 C 0.38325 0.21149 0.75798 0.0
C564 C 0.37062 0.21583 0.74199 0.0
C565 C 0.35203 0.24059 0.74414 0.0
H566 H 0.3356 0.23278 0.75339 0.0
H567 H 0.34868 0.23743 0.72514 0.0
H568 H 0.361 0.25904 0.74743 0.0
O569 O 0.40483 0.2776 0.80751 0.0
O570 O 0.42365 0.25931 0.81178 0.0
H571 H 0.41223 0.20754 0.75522 0.0
H572 H 0.38879 0.1882 0.73717 0.0
C573 C 0.39358 0.19693 0.75434 0.0
H574 H 0.3881 0.18423 0.76857 0.0
H575 H 0.44727 0.2418 0.78893 0.0
O576 O 0.35713 0.26755 0.79136 0.0
C577 C 0.42305 0.27759 0.81184 0.0
Co578 Co 0.75173 0.11421 0.79136 0.0
Co579 Co 0.7747 0.16312 0.81241 0.0
C580 C 0.77255 0.12617 0.84035 0.0
O581 O 0.76173 0.11261 0.82372 0.0
O582 O 0.77987 0.14727 0.83855 0.0
C583 C 0.75676 0.07814 0.77336 0.0
O584 O 0.77773 0.09112 0.78025 0.0
C585 C 0.80599 0.20851 0.83228 0.0
C586 C 0.79202 0.22844 0.81654 0.0
C587 C 0.80888 0.23023 0.83139 0.0
N588 N 0.78825 0.19481 0.8187 0.0
N589 N 0.78001 0.20687 0.80942 0.0
C590 C 0.82051 0.20095 0.84434 0.0
H591 H 0.81854 0.1854 0.83606 0.0
H592 H 0.83853 0.21437 0.84364 0.0
H593 H 0.81525 0.1971 0.86292 0.0
C594 C 0.78146 0.13896 0.75178 0.0
N595 N 0.77431 0.13816 0.77385 0.0
N596 N 0.78578 0.15819 0.78348 0.0
C597 C 0.80205 0.17207 0.76846 0.0
C598 C 0.79979 0.16047 0.74749 0.0
C599 C 0.76855 0.12046 0.73445 0.0
H600 H 0.75062 0.11027 0.73983 0.0
H601 H 0.77585 0.10918 0.73366 0.0
H602 H 0.76921 0.12745 0.71675 0.0
O603 O 0.72561 0.11813 0.79326 0.0
O604 O 0.74112 0.15171 0.81061 0.0
H605 H 0.81426 0.20754 0.7709 0.0
H606 H 0.83601 0.20033 0.76539 0.0
C607 C 0.8201 0.19541 0.77495 0.0
H608 H 0.8236 0.19627 0.79393 0.0
H609 H 0.76616 0.20035 0.79814 0.0
O610 O 0.74262 0.08484 0.77623 0.0
C611 C 0.72397 0.13422 0.80226 0.0
Co612 Co 0.36592 0.11878 0.29527 0.0
Co613 Co 0.39775 0.16964 0.30864 0.0
C614 C 0.36497 0.13875 0.3428 0.0
O615 O 0.3594 0.12265 0.32831 0.0
O616 O 0.37913 0.1591 0.33745 0.0
C617 C 0.32303 0.07768 0.28127 0.0
O618 O 0.31244 0.08925 0.28108 0.0
C619 C 0.42061 0.2177 0.32415 0.0
C620 C 0.44988 0.23239 0.30012 0.0
C621 C 0.44012 0.23775 0.3184 0.0
N622 N 0.41894 0.20137 0.30971 0.0
N623 N 0.4365 0.21033 0.29544 0.0
C624 C 0.40488 0.21349 0.34418 0.0
H625 H 0.4031 0.19904 0.35465 0.0
H626 H 0.38795 0.20886 0.33725 0.0
H627 H 0.41101 0.22837 0.35582 0.0
C628 C 0.35784 0.13993 0.25363 0.0
N629 N 0.36667 0.14104 0.27502 0.0
N630 N 0.37933 0.16237 0.28107 0.0
C631 C 0.37818 0.17546 0.26406 0.0
C632 C 0.36462 0.16168 0.24605 0.0
C633 C 0.34609 0.11887 0.23923 0.0
H634 H 0.35097 0.10644 0.24502 0.0
H635 H 0.32757 0.11142 0.24109 0.0
H636 H 0.35035 0.1227 0.22042 0.0
O637 O 0.3953 0.12051 0.29481 0.0
O638 O 0.41724 0.15531 0.30811 0.0
H639 H 0.40759 0.20784 0.25961 0.0
H640 H 0.38146 0.20723 0.25326 0.0
C641 C 0.38974 0.20067 0.26509 0.0
H642 H 0.3894 0.20622 0.28324 0.0
H643 H 0.43949 0.20124 0.28267 0.0
O644 O 0.34396 0.08735 0.28607 0.0
C645 C 0.41441 0.13623 0.30165 0.0
Co646 Co 0.88517 0.24839 0.29148 0.0
Co647 Co 0.83279 0.22625 0.29938 0.0
C648 C 0.85943 0.21384 0.3299 0.0
O649 O 0.87758 0.22824 0.31962 0.0
O650 O 0.84014 0.21022 0.32324 0.0
C651 C 0.92463 0.24519 0.28125 0.0
O652 O 0.91143 0.22391 0.287 0.0
C653 C 0.7832 0.19668 0.30669 0.0
C654 C 0.77167 0.22032 0.29615 0.0
C655 C 0.76391 0.19882 0.30517 0.0
N656 N 0.80113 0.21607 0.29919 0.0
N657 N 0.79402 0.23 0.29282 0.0
C658 C 0.78487 0.1766 0.31416 0.0
H659 H 0.80087 0.17804 0.30781 0.0
H660 H 0.77045 0.16087 0.30712 0.0
H661 H 0.78466 0.17568 0.33355 0.0
C662 C 0.86885 0.2289 0.2439 0.0
N663 N 0.86517 0.23301 0.26609 0.0
N664 N 0.84326 0.22347 0.26957 0.0
C665 C 0.83231 0.21277 0.24989 0.0
C666 C 0.84816 0.21586 0.23291 0.0
C667 C 0.89172 0.23804 0.23313 0.0
H668 H 0.90321 0.25538 0.23958 0.0
H669 H 0.89877 0.22713 0.23817 0.0
H670 H 0.89082 0.23836 0.21375 0.0
O671 O 0.88367 0.27558 0.30079 0.0
O672 O 0.84712 0.25835 0.30911 0.0
H673 H 0.79979 0.20984 0.24732 0.0
H674 H 0.8019 0.18766 0.23236 0.0
C675 C 0.80716 0.19863 0.24807 0.0
H676 H 0.80042 0.18787 0.26385 0.0
H677 H 0.80455 0.24635 0.28661 0.0
O678 O 0.91686 0.25861 0.28211 0.0
C679 C 0.8665 0.27607 0.3086 0.0
Co680 Co 0.76105 0.64892 0.29616 0.0
Co681 Co 0.77205 0.60994 0.30623 0.0
C682 C 0.78727 0.64958 0.33852 0.0
O683 O 0.77812 0.65841 0.32616 0.0
O684 O 0.78655 0.63127 0.33256 0.0
C685 C 0.7658 0.69335 0.28513 0.0
O686 O 0.78591 0.70261 0.2948 0.0
C687 C 0.79861 0.58698 0.31449 0.0
C688 C 0.77287 0.55169 0.30671 0.0
C689 C 0.79516 0.56504 0.31372 0.0
N690 N 0.77927 0.5863 0.30824 0.0
N691 N 0.76399 0.56515 0.3037 0.0
C692 C 0.81992 0.60848 0.31985 0.0
H693 H 0.81889 0.62321 0.31324 0.0
H694 H 0.83464 0.60836 0.31183 0.0
H695 H 0.82235 0.61024 0.33909 0.0
C696 C 0.78563 0.65152 0.25236 0.0
N697 N 0.77664 0.64182 0.27312 0.0
N698 N 0.7812 0.62555 0.27717 0.0
C699 C 0.79334 0.6245 0.25912 0.0
C700 C 0.79659 0.64093 0.24286 0.0
C701 C 0.7855 0.67188 0.24296 0.0
H702 H 0.76788 0.66852 0.24213 0.0
H703 H 0.79514 0.68627 0.25501 0.0
H704 H 0.79322 0.67669 0.22533 0.0
O705 O 0.73146 0.62253 0.30306 0.0
O706 O 0.73874 0.59495 0.31022 0.0
H707 H 0.78851 0.59116 0.26274 0.0
H708 H 0.80754 0.60756 0.23943 0.0
C709 C 0.80194 0.60827 0.25748 0.0
H710 H 0.81646 0.61373 0.26952 0.0
H711 H 0.74745 0.55988 0.29852 0.0
O712 O 0.75374 0.67196 0.28426 0.0
C713 C 0.72487 0.60216 0.30859 0.0
Co714 Co 0.45382 0.03069 0.87576 0.0
Co715 Co 0.50603 0.06083 0.86749 0.0
C716 C 0.47731 0.0241 0.83425 0.0
O717 O 0.45937 0.01931 0.84557 0.0
O718 O 0.49668 0.03926 0.84131 0.0
C719 C 0.40636 0.01207 0.88774 0.0
O720 O 0.40887 0.03149 0.88073 0.0
C721 C 0.55312 0.07725 0.85451 0.0
C722 C 0.57046 0.11168 0.86933 0.0
C723 C 0.5739 0.097 0.85556 0.0
N724 N 0.53803 0.08028 0.86664 0.0
N725 N 0.54854 0.10083 0.87565 0.0
C726 C 0.54766 0.05554 0.8428 0.0
H727 H 0.53462 0.04105 0.85298 0.0
H728 H 0.56294 0.05388 0.84115 0.0
H729 H 0.54082 0.0551 0.82508 0.0
C730 C 0.47081 0.0214 0.92001 0.0
N731 N 0.47434 0.03271 0.89965 0.0
N732 N 0.49621 0.04523 0.89614 0.0
C733 C 0.5073 0.04215 0.91397 0.0
C734 C 0.49159 0.02696 0.92977 0.0
C735 C 0.44803 0.00366 0.92841 0.0
H736 H 0.44018 0.99018 0.91501 0.0
H737 H 0.44895 0.99601 0.94519 0.0
H738 H 0.43708 0.01122 0.93065 0.0
O739 O 0.45606 0.0604 0.86912 0.0
O740 O 0.49276 0.08017 0.8615 0.0
H741 H 0.54019 0.07143 0.91356 0.0
H742 H 0.53802 0.04894 0.93192 0.0
C743 C 0.53245 0.05286 0.91521 0.0
H744 H 0.53846 0.04687 0.90032 0.0
H745 H 0.54059 0.10771 0.88548 0.0
O746 O 0.42292 0.0086 0.8864 0.0
C747 C 0.47343 0.07859 0.86256 0.0
Co748 Co 0.97101 0.41944 0.87738 0.0
Co749 Co 0.93681 0.43422 0.85995 0.0
C750 C 0.97216 0.43544 0.82815 0.0
O751 O 0.97916 0.42731 0.84401 0.0
O752 O 0.9564 0.43978 0.83204 0.0
C753 C 0.00043 0.40105 0.88508 0.0
O754 O 0.99157 0.38975 0.86567 0.0
C755 C 0.92297 0.46549 0.84208 0.0
C756 C 0.88643 0.44783 0.84972 0.0
C757 C 0.90366 0.46731 0.83961 0.0
N758 N 0.91726 0.44589 0.85287 0.0
N759 N 0.8954 0.43538 0.85738 0.0
C760 C 0.9468 0.48245 0.83578 0.0
H761 H 0.9588 0.47981 0.84657 0.0
H762 H 0.95001 0.49989 0.83838 0.0
H763 H 0.94981 0.48024 0.81714 0.0
C764 C 0.97945 0.4534 0.91354 0.0
N765 N 0.96894 0.44223 0.8939 0.0
N766 N 0.95437 0.44838 0.88728 0.0
C767 C 0.95518 0.46376 0.90269 0.0
C768 C 0.97106 0.46734 0.91987 0.0
C769 C 0.99767 0.45112 0.92557 0.0
H770 H 0.01065 0.45327 0.9126 0.0
H771 H 0.00593 0.46382 0.93964 0.0
H772 H 0.9903 0.43394 0.93317 0.0
O773 O 0.94197 0.3909 0.87873 0.0
O774 O 0.91782 0.40066 0.86431 0.0
H775 H 0.94036 0.482 0.91863 0.0
H776 H 0.94618 0.48679 0.88774 0.0
C777 C 0.94021 0.47387 0.90178 0.0
H778 H 0.92268 0.46062 0.89761 0.0
H779 H 0.8866 0.41971 0.86566 0.0
O780 O 0.99408 0.41442 0.89267 0.0
C781 C 0.92216 0.38578 0.87225 0.0
Co782 Co 0.57588 0.54741 0.87436 0.0
Co783 Co 0.5644 0.49719 0.86757 0.0
C784 C 0.54792 0.51986 0.83426 0.0
O785 O 0.55596 0.53774 0.84654 0.0
O786 O 0.55053 0.50331 0.83994 0.0
C787 C 0.57143 0.58702 0.88691 0.0
O788 O 0.54954 0.57376 0.88925 0.0
C789 C 0.54012 0.44855 0.85538 0.0
C790 C 0.55667 0.43559 0.87899 0.0
C791 C 0.54011 0.42896 0.86199 0.0
N792 N 0.55573 0.46583 0.86823 0.0
N793 N 0.5656 0.45795 0.88219 0.0
C794 C 0.52726 0.4514 0.83573 0.0
H795 H 0.53928 0.46476 0.82373 0.0
H796 H 0.51572 0.45693 0.8429 0.0
H797 H 0.51751 0.43574 0.82541 0.0
C798 C 0.55569 0.52941 0.92135 0.0
N799 N 0.56197 0.527 0.89965 0.0
N800 N 0.55568 0.50561 0.89617 0.0
C801 C 0.54435 0.49362 0.91524 0.0
C802 C 0.54408 0.50832 0.9319 0.0
C803 C 0.5624 0.55162 0.93265 0.0
H804 H 0.57844 0.56508 0.92511 0.0
H805 H 0.54894 0.5559 0.9298 0.0
H806 H 0.56453 0.55074 0.95181 0.0
O807 O 0.60482 0.54947 0.86588 0.0
O808 O 0.59786 0.51423 0.86333 0.0
H809 H 0.54506 0.46328 0.92204 0.0
H810 H 0.51889 0.46188 0.93 0.0
C811 C 0.53266 0.46842 0.91684 0.0
H812 H 0.52541 0.46081 0.89962 0.0
H813 H 0.57852 0.46789 0.89389 0.0
O814 O 0.58395 0.57887 0.88161 0.0
C815 C 0.61154 0.53541 0.86234 0.0
Co816 Co 0.63817 0.88366 0.70477 0.0
Co817 Co 0.60891 0.83086 0.70112 0.0
C818 C 0.64163 0.85853 0.66358 0.0
O819 O 0.64715 0.87693 0.67418 0.0
O820 O 0.6275 0.83951 0.67232 0.0
C821 C 0.68004 0.92491 0.70799 0.0
O822 O 0.68792 0.91245 0.69921 0.0
C823 C 0.59875 0.7845 0.69409 0.0
C824 C 0.56212 0.76501 0.70107 0.0
C825 C 0.58004 0.76275 0.69297 0.0
N826 N 0.59193 0.79866 0.70186 0.0
N827 N 0.57008 0.78689 0.70627 0.0
C828 C 0.62289 0.79215 0.68851 0.0
H829 H 0.63421 0.8082 0.69773 0.0
H830 H 0.6272 0.77911 0.6937 0.0
H831 H 0.62568 0.79531 0.66945 0.0
C832 C 0.65009 0.87106 0.75031 0.0
N833 N 0.63956 0.86552 0.72938 0.0
N834 N 0.62705 0.84338 0.72805 0.0
C835 C 0.62905 0.83419 0.74813 0.0
C836 C 0.64389 0.85143 0.76277 0.0
C837 C 0.66419 0.89472 0.7591 0.0
H838 H 0.65563 0.90452 0.75535 0.0
H839 H 0.68066 0.90285 0.74988 0.0
H840 H 0.66734 0.89511 0.77819 0.0
O841 O 0.60716 0.87883 0.70154 0.0
O842 O 0.58691 0.84149 0.69855 0.0
H843 H 0.59781 0.80313 0.75138 0.0
H844 H 0.61953 0.8059 0.77156 0.0
C845 C 0.61615 0.80948 0.75353 0.0
H846 H 0.62098 0.80033 0.74091 0.0
H847 H 0.56042 0.79393 0.71188 0.0
O848 O 0.65896 0.916 0.71167 0.0
C849 C 0.58826 0.86075 0.69894 0.0
Co850 Co 0.12058 0.75926 0.70558 0.0
Co851 Co 0.1713 0.7719 0.69899 0.0
C852 C 0.14662 0.78291 0.66257 0.0
O853 O 0.12828 0.77368 0.67425 0.0
O854 O 0.16451 0.78381 0.67032 0.0
C855 C 0.07471 0.75056 0.70145 0.0
O856 O 0.07932 0.75484 0.67909 0.0
C857 C 0.21989 0.79705 0.68681 0.0
C858 C 0.23313 0.77974 0.70891 0.0
C859 C 0.23953 0.79677 0.69248 0.0
N860 N 0.20278 0.78108 0.69956 0.0
N861 N 0.21085 0.77082 0.7127 0.0
C862 C 0.21667 0.81034 0.66788 0.0
H863 H 0.20456 0.79848 0.65482 0.0
H864 H 0.20927 0.82012 0.6755 0.0
H865 H 0.23256 0.82184 0.65862 0.0
C866 C 0.1391 0.78482 0.74907 0.0
N867 N 0.14195 0.77726 0.72836 0.0
N868 N 0.16323 0.78264 0.72609 0.0
C869 C 0.17467 0.79416 0.74532 0.0
C870 C 0.15968 0.79576 0.76052 0.0
C871 C 0.11682 0.78075 0.75807 0.0
H872 H 0.10551 0.76238 0.76094 0.0
H873 H 0.10883 0.78637 0.7448 0.0
H874 H 0.11869 0.7899 0.7747 0.0
O875 O 0.11885 0.72988 0.70398 0.0
O876 O 0.1542 0.73805 0.69775 0.0
H877 H 0.20108 0.7872 0.75314 0.0
H878 H 0.20539 0.81342 0.76525 0.0
C879 C 0.19903 0.80205 0.74984 0.0
H880 H 0.20918 0.81103 0.73422 0.0
H881 H 0.20105 0.75747 0.72403 0.0
O882 O 0.09002 0.75232 0.71532 0.0
C883 C 0.13331 0.72372 0.70048 0.0
Co884 Co 0.25171 0.3709 0.70538 0.0
Co885 Co 0.22543 0.39752 0.70156 0.0
C886 C 0.21938 0.36341 0.66568 0.0
O887 O 0.23374 0.35952 0.67586 0.0
O888 O 0.21386 0.37727 0.67408 0.0
C889 C 0.26027 0.33281 0.71304 0.0
O890 O 0.23934 0.31848 0.70701 0.0
C891 C 0.19356 0.41501 0.69503 0.0
C892 C 0.21253 0.44719 0.71417 0.0
C893 C 0.19351 0.43499 0.70035 0.0
N894 N 0.21193 0.41597 0.70492 0.0
N895 N 0.22297 0.43514 0.71651 0.0
C896 C 0.17652 0.39498 0.6815 0.0
H897 H 0.17833 0.38005 0.68526 0.0
H898 H 0.15917 0.39097 0.68627 0.0
H899 H 0.17918 0.3987 0.66249 0.0
C900 C 0.22709 0.35764 0.75093 0.0
N901 N 0.23319 0.36973 0.73093 0.0
N902 N 0.22192 0.38063 0.72917 0.0
C903 C 0.20807 0.37553 0.74779 0.0
C904 C 0.21086 0.36072 0.76218 0.0
C905 C 0.23628 0.34304 0.75912 0.0
H906 H 0.25471 0.3516 0.75589 0.0
H907 H 0.22792 0.32689 0.74935 0.0
H908 H 0.23308 0.33926 0.77809 0.0
O909 O 0.27662 0.40193 0.6996 0.0
O910 O 0.25745 0.41983 0.69513 0.0
H911 H 0.19972 0.40131 0.75363 0.0
H912 H 0.17906 0.37398 0.76497 0.0
C913 C 0.19091 0.38286 0.75035 0.0
H914 H 0.18128 0.37958 0.7338 0.0
H915 H 0.2381 0.44031 0.72544 0.0
O916 O 0.26729 0.35388 0.71295 0.0
C917 C 0.27601 0.41978 0.69503 0.0
Co918 Co 0.54258 0.95977 0.13516 0.0
Co919 Co 0.48974 0.9301 0.14163 0.0
C920 C 0.51984 0.96474 0.17734 0.0
O921 O 0.53778 0.97003 0.16593 0.0
O922 O 0.5005 0.9502 0.16954 0.0
C923 C 0.59072 0.97794 0.12555 0.0
O924 O 0.58797 0.95851 0.13286 0.0
C925 C 0.44338 0.91263 0.1592 0.0
C926 C 0.42229 0.88961 0.13111 0.0
C927 C 0.42109 0.89878 0.15231 0.0
N928 N 0.45711 0.91252 0.14241 0.0
N929 N 0.44435 0.89819 0.12597 0.0
C930 C 0.45149 0.9236 0.18257 0.0
H931 H 0.4657 0.92145 0.1886 0.0
H932 H 0.45735 0.94186 0.18092 0.0
H933 H 0.43798 0.91606 0.19598 0.0
C934 C 0.528 0.97079 0.09081 0.0
N935 N 0.52294 0.96008 0.1116 0.0
N936 N 0.50083 0.9482 0.11397 0.0
C937 C 0.49119 0.95153 0.09481 0.0
C938 C 0.50813 0.9657 0.07939 0.0
C939 C 0.55155 0.98603 0.08227 0.0
H940 H 0.56058 0.97637 0.08094 0.0
H941 H 0.5606 0.99983 0.09511 0.0
H942 H 0.55186 0.99366 0.06505 0.0
O943 O 0.5384 0.92916 0.13902 0.0
O944 O 0.5012 0.90846 0.1436 0.0
H945 H 0.45999 0.92356 0.08358 0.0
H946 H 0.46231 0.95043 0.07806 0.0
C947 C 0.46631 0.94072 0.09082 0.0
H948 H 0.45756 0.93946 0.10754 0.0
H949 H 0.45068 0.89433 0.11116 0.0
O950 O 0.57406 0.98131 0.12572 0.0
C951 C 0.52063 0.91018 0.14248 0.0
Co952 Co 0.02803 0.5824 0.12918 0.0
Co953 Co 0.05684 0.55836 0.13373 0.0
C954 C 0.02665 0.55655 0.17244 0.0
O955 O 0.02075 0.56868 0.16087 0.0
O956 O 0.04018 0.55068 0.16401 0.0
C957 C 0.98623 0.58222 0.12497 0.0
O958 O 0.97785 0.56214 0.13455 0.0
C959 C 0.07504 0.52827 0.14552 0.0
C960 C 0.10408 0.54134 0.12128 0.0
C961 C 0.09349 0.52604 0.13927 0.0
N962 N 0.0748 0.54413 0.13171 0.0
N963 N 0.09211 0.55169 0.11718 0.0
C964 C 0.05972 0.51793 0.16609 0.0
H965 H 0.06377 0.53118 0.17945 0.0
H966 H 0.04195 0.51133 0.16054 0.0
H967 H 0.06154 0.5042 0.17417 0.0
C968 C 0.01532 0.55689 0.08438 0.0
N969 N 0.02579 0.56185 0.10534 0.0
N970 N 0.03739 0.55131 0.10728 0.0
C971 C 0.0344 0.53906 0.08769 0.0
C972 C 0.02046 0.54236 0.07241 0.0
C973 C 0.0007 0.566 0.07592 0.0
H974 H 0.98507 0.55852 0.08655 0.0
H975 H 0.99558 0.56168 0.05741 0.0
H976 H 0.00966 0.5846 0.0781 0.0
O977 O 0.05902 0.60863 0.13084 0.0
O978 O 0.07899 0.59132 0.13457 0.0
H979 H 0.06428 0.53853 0.07817 0.0
H980 H 0.03877 0.51445 0.06795 0.0
C981 C 0.0465 0.52635 0.08275 0.0
H982 H 0.04637 0.51689 0.09857 0.0
H983 H 0.09629 0.56465 0.1051 0.0
O984 O 0.00741 0.59401 0.12175 0.0
C985 C 0.07786 0.60935 0.13345 0.0
Co986 Co 0.41576 0.45419 0.13231 0.0
Co987 Co 0.44093 0.50675 0.13758 0.0
C988 C 0.44412 0.4767 0.17428 0.0
O989 O 0.43124 0.45863 0.16303 0.0
O990 O 0.4492 0.49609 0.16626 0.0
C991 C 0.40696 0.40775 0.12412 0.0
O992 O 0.42651 0.41326 0.13369 0.0
C993 C 0.47371 0.5539 0.15026 0.0
C994 C 0.46099 0.57226 0.12914 0.0
C995 C 0.47678 0.57521 0.146 0.0
N996 N 0.45683 0.539 0.13653 0.0
N997 N 0.44959 0.55018 0.12367 0.0
C998 C 0.48463 0.54735 0.16895 0.0
H999 H 0.47249 0.53924 0.18353 0.0
H1000 H 0.48895 0.53489 0.16182 0.0
H1001 H 0.50007 0.56215 0.17591 0.0
C1002 C 0.44403 0.46711 0.08906 0.0
N1003 N 0.43638 0.47245 0.1084 0.0
N1004 N 0.44727 0.49455 0.11076 0.0
C1005 C 0.46245 0.50392 0.09327 0.0
C1006 C 0.46094 0.4868 0.07894 0.0
C1007 C 0.43519 0.44358 0.0802 0.0
H1008 H 0.41652 0.43403 0.08141 0.0
H1009 H 0.44211 0.43501 0.09108 0.0
H1010 H 0.44015 0.44355 0.06172 0.0
O1011 O 0.39078 0.46056 0.13622 0.0
O1012 O 0.40838 0.49777 0.13936 0.0
H1013 H 0.47074 0.53796 0.08687 0.0
H1014 H 0.49274 0.532 0.07858 0.0
C1015 C 0.47947 0.52855 0.09173 0.0
H1016 H 0.48746 0.53474 0.10908 0.0
H1017 H 0.43606 0.54254 0.11201 0.0
O1018 O 0.40059 0.42226 0.1228 0.0
C1019 C 0.39024 0.47873 0.13889 0.0
Co1020 Co 0.0384 0.45212 0.61925 0.0
Co1021 Co 0.05982 0.50197 0.63668 0.0
C1022 C 0.0247 0.46447 0.66498 0.0
O1023 O 0.02391 0.45036 0.64986 0.0
O1024 O 0.03714 0.48574 0.66195 0.0
C1025 C 0.00429 0.40565 0.60786 0.0
O1026 O 0.99325 0.40576 0.62662 0.0
C1027 C 0.06979 0.54728 0.65237 0.0
C1028 C 0.10579 0.56744 0.6425 0.0
C1029 C 0.08852 0.56904 0.65338 0.0
N1030 N 0.07603 0.53374 0.6417 0.0
N1031 N 0.09751 0.54592 0.63578 0.0
C1032 C 0.04612 0.53933 0.66021 0.0
H1033 H 0.03414 0.52382 0.65054 0.0
H1034 H 0.04159 0.55263 0.65732 0.0
H1035 H 0.04461 0.53515 0.67912 0.0
C1036 C 0.02954 0.47195 0.57752 0.0
N1037 N 0.03776 0.47391 0.59933 0.0
N1038 N 0.04654 0.49496 0.60631 0.0
C1039 C 0.04416 0.50712 0.58899 0.0
C1040 C 0.0334 0.49288 0.57011 0.0
C1041 C 0.01756 0.45019 0.56428 0.0
H1042 H 0.00343 0.43744 0.57503 0.0
H1043 H 0.01058 0.45202 0.54745 0.0
H1044 H 0.0295 0.444 0.56086 0.0
O1045 O 0.06939 0.45857 0.62588 0.0
O1046 O 0.08317 0.49298 0.64035 0.0
H1047 H 0.04925 0.53838 0.57391 0.0
H1048 H 0.04523 0.53572 0.60533 0.0
C1049 C 0.05296 0.53198 0.59018 0.0
H1050 H 0.07148 0.54087 0.59305 0.0
H1051 H 0.10661 0.53945 0.62739 0.0
O1052 O 0.02314 0.42287 0.60293 0.0
C1053 C 0.08532 0.47598 0.63558 0.0
Co1054 Co 0.54453 0.57093 0.63334 0.0
Co1055 Co 0.49514 0.56212 0.63876 0.0
C1056 C 0.51719 0.5465 0.67479 0.0
O1057 O 0.53559 0.5537 0.66335 0.0
O1058 O 0.50102 0.54886 0.66695 0.0
C1059 C 0.59023 0.57436 0.62016 0.0
O1060 O 0.58566 0.55396 0.62617 0.0
C1061 C 0.44592 0.53468 0.64455 0.0
C1062 C 0.4355 0.55988 0.63736 0.0
C1063 C 0.42709 0.53754 0.64393 0.0
N1064 N 0.46427 0.5544 0.63885 0.0
N1065 N 0.45791 0.56936 0.63451 0.0
C1066 C 0.44689 0.51368 0.64938 0.0
H1067 H 0.46272 0.51526 0.64223 0.0
H1068 H 0.43215 0.49878 0.64148 0.0
H1069 H 0.44677 0.51116 0.66858 0.0
C1070 C 0.52589 0.54809 0.58808 0.0
N1071 N 0.52345 0.55553 0.60908 0.0
N1072 N 0.50277 0.55209 0.6109 0.0
C1073 C 0.4914 0.54229 0.59101 0.0
C1074 C 0.5057 0.53939 0.57599 0.0
C1075 C 0.5474 0.54994 0.57946 0.0
H1076 H 0.56055 0.56802 0.57818 0.0
H1077 H 0.5532 0.54169 0.59219 0.0
H1078 H 0.54522 0.54186 0.56208 0.0
O1079 O 0.5474 0.60078 0.63861 0.0
O1080 O 0.51283 0.59544 0.64198 0.0
H1081 H 0.46599 0.55184 0.5902 0.0
H1082 H 0.46319 0.53214 0.56741 0.0
C1083 C 0.46778 0.53698 0.58599 0.0
H1084 H 0.45596 0.52281 0.59734 0.0
H1085 H 0.46893 0.58613 0.62988 0.0
O1086 O 0.5755 0.58034 0.62271 0.0
C1087 C 0.5341 0.60846 0.64169 0.0
Co1088 Co 0.41806 0.96089 0.63229 0.0
Co1089 Co 0.44161 0.93182 0.63728 0.0
C1090 C 0.44771 0.96588 0.6735 0.0
O1091 O 0.43482 0.97132 0.66262 0.0
O1092 O 0.45214 0.95119 0.66536 0.0
C1093 C 0.41273 0.00053 0.62241 0.0
O1094 O 0.43475 0.01358 0.62353 0.0
C1095 C 0.47097 0.91296 0.64928 0.0
C1096 C 0.45812 0.88424 0.62463 0.0
C1097 C 0.47323 0.89462 0.64279 0.0
N1098 N 0.4553 0.91343 0.6354 0.0
N1099 N 0.44779 0.89628 0.62068 0.0
C1100 C 0.48124 0.9281 0.67 0.0
H1101 H 0.46759 0.9262 0.6819 0.0
H1102 H 0.49056 0.94591 0.664 0.0
H1103 H 0.49274 0.92416 0.67995 0.0
C1104 C 0.44245 0.97142 0.58592 0.0
N1105 N 0.43702 0.9614 0.60719 0.0
N1106 N 0.44741 0.9497 0.60994 0.0
C1107 C 0.46016 0.95241 0.59092 0.0
C1108 C 0.45734 0.9661 0.57497 0.0
C1109 C 0.43224 0.98429 0.5754 0.0
H1110 H 0.41458 0.97724 0.58145 0.0
H1111 H 0.44219 0.0022 0.58091 0.0
H1112 H 0.43253 0.98372 0.556 0.0
O1113 O 0.3921 0.93009 0.63715 0.0
O1114 O 0.40899 0.90981 0.64063 0.0
H1115 H 0.46549 0.925 0.58256 0.0
H1116 H 0.4889 0.95236 0.57525 0.0
C1117 C 0.47549 0.94281 0.58838 0.0
H1118 H 0.48349 0.94331 0.60542 0.0
H1119 H 0.43504 0.89236 0.60842 0.0
O1120 O 0.40386 0.97934 0.62525 0.0
C1121 C 0.39115 0.91124 0.64039 0.0
Co1122 Co 0.11768 0.3685 0.20738 0.0
Co1123 Co 0.16962 0.40064 0.1972 0.0
C1124 C 0.14077 0.36284 0.16501 0.0
O1125 O 0.12349 0.35661 0.17798 0.0
O1126 O 0.1599 0.37979 0.17005 0.0
C1127 C 0.0791 0.32546 0.21788 0.0
O1128 O 0.09234 0.31796 0.21045 0.0
C1129 C 0.21797 0.4225 0.18271 0.0
C1130 C 0.23281 0.45216 0.20616 0.0
C1131 C 0.23816 0.44189 0.1884 0.0
N1132 N 0.20157 0.4214 0.19669 0.0
N1133 N 0.21062 0.4392 0.21062 0.0
C1134 C 0.21368 0.4065 0.16294 0.0
H1135 H 0.19943 0.40488 0.15221 0.0
H1136 H 0.20871 0.38957 0.17015 0.0
H1137 H 0.22865 0.41228 0.15148 0.0
C1138 C 0.13665 0.36279 0.25223 0.0
N1139 N 0.13909 0.37174 0.23064 0.0
N1140 N 0.16079 0.38429 0.22594 0.0
C1141 C 0.17277 0.38337 0.24424 0.0
C1142 C 0.15789 0.36979 0.26153 0.0
C1143 C 0.11446 0.34898 0.26434 0.0
H1144 H 0.10276 0.35515 0.25962 0.0
H1145 H 0.10693 0.33113 0.25872 0.0
H1146 H 0.11658 0.34971 0.28363 0.0
O1147 O 0.11901 0.39782 0.20093 0.0
O1148 O 0.15571 0.41984 0.19453 0.0
H1149 H 0.20515 0.41246 0.2498 0.0
H1150 H 0.20363 0.38623 0.25771 0.0
C1151 C 0.19797 0.39449 0.24479 0.0
H1152 H 0.20446 0.39374 0.22724 0.0
H1153 H 0.20152 0.44269 0.22294 0.0
O1154 O 0.0865 0.34661 0.21801 0.0
C1155 C 0.13592 0.41707 0.19613 0.0
Co1156 Co 0.63759 0.75502 0.20767 0.0
Co1157 Co 0.6019 0.77133 0.20322 0.0
C1158 C 0.63307 0.7764 0.16378 0.0
O1159 O 0.64348 0.7685 0.1755 0.0
O1160 O 0.61682 0.778 0.17254 0.0
C1161 C 0.68202 0.75953 0.21149 0.0
O1162 O 0.68886 0.77869 0.20038 0.0
C1163 C 0.58015 0.79799 0.19071 0.0
C1164 C 0.55075 0.78317 0.21454 0.0
C1165 C 0.56088 0.79882 0.19674 0.0
N1166 N 0.58131 0.7826 0.20446 0.0
N1167 N 0.56374 0.77392 0.21871 0.0
C1168 C 0.59579 0.80941 0.17058 0.0
H1169 H 0.61354 0.81718 0.17668 0.0
H1170 H 0.59294 0.82235 0.16217 0.0
H1171 H 0.5931 0.79654 0.15724 0.0
C1172 C 0.65096 0.78625 0.24885 0.0
N1173 N 0.63766 0.77579 0.23021 0.0
N1174 N 0.62342 0.7833 0.22748 0.0
C1175 C 0.62758 0.79911 0.24378 0.0
C1176 C 0.6451 0.80146 0.25788 0.0
C1177 C 0.6697 0.78269 0.25713 0.0
H1178 H 0.68424 0.79141 0.24503 0.0
H1179 H 0.67544 0.78961 0.27495 0.0
H1180 H 0.66406 0.76441 0.25716 0.0
O1181 O 0.60795 0.72616 0.20714 0.0
O1182 O 0.58341 0.73842 0.20615 0.0
H1183 H 0.62192 0.8247 0.25966 0.0
H1184 H 0.61512 0.81947 0.22883 0.0
C1185 C 0.61483 0.81155 0.24587 0.0
H1186 H 0.59699 0.79939 0.25028 0.0
H1187 H 0.56033 0.76123 0.2309 0.0
O1188 O 0.6611 0.747 0.21592 0.0
C1189 C 0.5877 0.72236 0.20688 0.0
Co1190 Co 0.23697 0.87786 0.20876 0.0
Co1191 Co 0.22029 0.82622 0.20152 0.0
C1192 C 0.21393 0.85459 0.16487 0.0
O1193 O 0.22361 0.87266 0.177 0.0
O1194 O 0.21148 0.83594 0.17245 0.0
C1195 C 0.24404 0.92475 0.21566 0.0
O1196 O 0.22986 0.9223 0.19888 0.0
C1197 C 0.19347 0.77842 0.18643 0.0
C1198 C 0.2056 0.76202 0.21125 0.0
C1199 C 0.19138 0.75773 0.1923 0.0
N1200 N 0.20815 0.79415 0.20136 0.0
N1201 N 0.21524 0.78417 0.21618 0.0
C1202 C 0.18363 0.78378 0.16567 0.0
H1203 H 0.19753 0.79647 0.15463 0.0
H1204 H 0.17343 0.7913 0.17175 0.0
H1205 H 0.17306 0.76872 0.15478 0.0
C1206 C 0.20593 0.85976 0.24877 0.0
N1207 N 0.21652 0.85674 0.2305 0.0
N1208 N 0.20924 0.83506 0.22787 0.0
C1209 C 0.19334 0.82351 0.2443 0.0
C1210 C 0.19068 0.83884 0.25804 0.0
C1211 C 0.21062 0.88241 0.25729 0.0
H1212 H 0.22904 0.89346 0.25989 0.0
H1213 H 0.20501 0.89028 0.24387 0.0
H1214 H 0.20202 0.88125 0.2741 0.0
O1215 O 0.26448 0.87603 0.20713 0.0
O1216 O 0.25408 0.84007 0.20183 0.0
H1217 H 0.19033 0.7915 0.25147 0.0
H1218 H 0.16497 0.79261 0.25745 0.0
C1219 C 0.17952 0.79832 0.24537 0.0
H1220 H 0.17327 0.7915 0.22761 0.0
H1221 H 0.22706 0.79262 0.22938 0.0
O1222 O 0.24776 0.90876 0.22049 0.0
C1223 C 0.26944 0.86062 0.20428 0.0
H1224 H 0.35017 0.23896 0.87193 0.0
H1225 H 0.35589 0.17944 0.85948 0.0
H1226 H 0.33883 0.16437 0.89825 0.0
H1227 H 0.36624 0.24488 0.93171 0.0
H1228 H 0.34742 0.25469 0.94095 0.0
H1229 H 0.35818 0.25986 0.91149 0.0
H1230 H 0.31735 0.24019 0.89519 0.0
H1231 H 0.30645 0.23511 0.92462 0.0
H1232 H 0.29741 0.21187 0.9045 0.0
H1233 H 0.32118 0.15595 0.93846 0.0
H1234 H 0.30631 0.15574 0.97794 0.0
H1235 H 0.31494 0.22214 0.9651 0.0
C1236 C 0.34746 0.22257 0.8772 0.0
C1237 C 0.35402 0.21018 0.86262 0.0
C1238 C 0.35081 0.1891 0.87036 0.0
C1239 C 0.34113 0.18042 0.89231 0.0
C1240 C 0.33511 0.19321 0.9064 0.0
C1241 C 0.33829 0.2139 0.89922 0.0
C1242 C 0.33169 0.22494 0.91822 0.0
C1243 C 0.3521 0.24742 0.92605 0.0
C1244 C 0.31206 0.22821 0.91015 0.0
C1245 C 0.32429 0.20722 0.93723 0.0
C1246 C 0.32611 0.18892 0.92998 0.0
C1247 C 0.31977 0.17023 0.94436 0.0
C1248 C 0.31133 0.17025 0.96672 0.0
C1249 C 0.30964 0.18898 0.97462 0.0
C1250 C 0.31632 0.20771 0.95965 0.0
H1251 H 0.82023 0.12707 0.96884 0.0
H1252 H 0.76213 0.06005 0.97759 0.0
H1253 H 0.75046 0.061 0.93695 0.0
H1254 H 0.79044 0.14872 0.93508 0.0
H1255 H 0.8142 0.16619 0.91654 0.0
H1256 H 0.81881 0.15986 0.94594 0.0
H1257 H 0.84354 0.14399 0.92994 0.0
H1258 H 0.83891 0.15018 0.90048 0.0
H1259 H 0.83205 0.12191 0.90826 0.0
H1260 H 0.74576 0.06835 0.89543 0.0
H1261 H 0.7451 0.08367 0.85664 0.0
H1262 H 0.80422 0.14744 0.8752 0.0
C1263 C 0.8051 0.11262 0.9621 0.0
C1264 C 0.79211 0.09341 0.97622 0.0
C1265 C 0.77224 0.07493 0.96704 0.0
C1266 C 0.76557 0.07525 0.94396 0.0
C1267 C 0.77873 0.09435 0.93044 0.0
C1268 C 0.79783 0.11289 0.93922 0.0
C1269 C 0.80807 0.13179 0.92129 0.0
C1270 C 0.80785 0.15289 0.93025 0.0
C1271 C 0.83206 0.13728 0.9146 0.0
C1272 C 0.79174 0.12089 0.9011 0.0
C1273 C 0.77522 0.09915 0.90669 0.0
C1274 C 0.7585 0.0854 0.89086 0.0
C1275 C 0.75835 0.09424 0.86882 0.0
C1276 C 0.77457 0.11676 0.86292 0.0
C1277 C 0.79156 0.1302 0.87928 0.0
H1278 H 0.86051 0.62089 0.87773 0.0
H1279 H 0.87692 0.68125 0.83814 0.0
H1280 H 0.88279 0.70242 0.87509 0.0
H1281 H 0.83253 0.63013 0.92694 0.0
H1282 H 0.84482 0.62012 0.94837 0.0
H1283 H 0.83999 0.6092 0.91896 0.0
H1284 H 0.8822 0.62078 0.91529 0.0
H1285 H 0.88713 0.63163 0.9447 0.0
H1286 H 0.9036 0.64963 0.92089 0.0
H1287 H 0.88591 0.71655 0.91604 0.0
H1288 H 0.89181 0.72469 0.95831 0.0
H1289 H 0.8775 0.65626 0.97141 0.0
C1290 C 0.86516 0.63852 0.87698 0.0
C1291 C 0.86805 0.64953 0.85531 0.0
C1292 C 0.87461 0.67266 0.85472 0.0
C1293 C 0.87783 0.68471 0.87555 0.0
C1294 C 0.87487 0.67342 0.89671 0.0
C1295 C 0.86912 0.65097 0.89761 0.0
C1296 C 0.86889 0.6434 0.92259 0.0
C1297 C 0.84514 0.6246 0.92962 0.0
C1298 C 0.88651 0.63593 0.92606 0.0
C1299 C 0.87544 0.66512 0.93559 0.0
C1300 C 0.87829 0.68205 0.92034 0.0
C1301 C 0.88388 0.70349 0.92816 0.0
C1302 C 0.88708 0.70791 0.95219 0.0
C1303 C 0.8852 0.69112 0.96805 0.0
C1304 C 0.87917 0.66942 0.95962 0.0
H1305 H 0.22256 0.31576 0.53902 0.0
H1306 H 0.15845 0.31199 0.52506 0.0
H1307 H 0.15852 0.32605 0.56485 0.0
H1308 H 0.21038 0.29679 0.59859 0.0
H1309 H 0.23869 0.31533 0.60891 0.0
H1310 H 0.23402 0.30566 0.57903 0.0
H1311 H 0.25552 0.34705 0.56435 0.0
H1312 H 0.26044 0.35684 0.59418 0.0
H1313 H 0.24677 0.36656 0.57412 0.0
H1314 H 0.16597 0.34127 0.60581 0.0
H1315 H 0.18 0.35602 0.64547 0.0
H1316 H 0.23833 0.34805 0.63361 0.0
C1317 C 0.20867 0.31811 0.54431 0.0
C1318 C 0.19043 0.31273 0.52903 0.0
C1319 C 0.1724 0.31573 0.53662 0.0
C1320 C 0.17236 0.3238 0.55914 0.0
C1321 C 0.1904 0.3286 0.57394 0.0
C1322 C 0.2082 0.32584 0.56689 0.0
C1323 C 0.22526 0.33179 0.58641 0.0
C1324 C 0.22719 0.31116 0.59366 0.0
C1325 C 0.24836 0.35175 0.57934 0.0
C1326 C 0.2143 0.33843 0.60548 0.0
C1327 C 0.19428 0.3366 0.59787 0.0
C1328 C 0.18154 0.34261 0.61205 0.0
C1329 C 0.18963 0.35095 0.63453 0.0
C1330 C 0.2101 0.35293 0.64271 0.0
C1331 C 0.22241 0.34633 0.62801 0.0
H1332 H 0.6542 0.89189 0.63101 0.0
H1333 H 0.64862 0.8266 0.64258 0.0
H1334 H 0.66179 0.82711 0.60214 0.0
H1335 H 0.63335 0.88068 0.57214 0.0
H1336 H 0.65192 0.90908 0.56208 0.0
H1337 H 0.64305 0.90404 0.59221 0.0
H1338 H 0.68484 0.92481 0.60571 0.0
H1339 H 0.69383 0.93012 0.57563 0.0
H1340 H 0.70378 0.91586 0.59459 0.0
H1341 H 0.67674 0.83549 0.56083 0.0
H1342 H 0.69094 0.8504 0.5212 0.0
H1343 H 0.68386 0.90877 0.53592 0.0
C1344 C 0.656 0.87783 0.62511 0.0
C1345 C 0.65061 0.85928 0.63993 0.0
C1346 C 0.6527 0.84096 0.63146 0.0
C1347 C 0.66017 0.84112 0.60856 0.0
C1348 C 0.6651 0.85956 0.5943 0.0
C1349 C 0.66297 0.8775 0.6022 0.0
C1350 C 0.66862 0.89493 0.58316 0.0
C1351 C 0.648 0.89731 0.57704 0.0
C1352 C 0.68898 0.91778 0.5902 0.0
C1353 C 0.6745 0.8841 0.56337 0.0
C1354 C 0.67253 0.86379 0.57018 0.0
C1355 C 0.67812 0.85125 0.55522 0.0
C1356 C 0.68616 0.85983 0.53278 0.0
C1357 C 0.68819 0.88055 0.52547 0.0
C1358 C 0.682 0.89264 0.5409 0.0
H1359 H 0.09598 0.78182 0.53712 0.0
H1360 H 0.1578 0.84402 0.52128 0.0
H1361 H 0.17327 0.84232 0.56003 0.0
H1362 H 0.09284 0.79588 0.59593 0.0
H1363 H 0.08108 0.76742 0.60672 0.0
H1364 H 0.07597 0.77229 0.57696 0.0
H1365 H 0.09232 0.74763 0.56191 0.0
H1366 H 0.09728 0.74249 0.59165 0.0
H1367 H 0.12021 0.75414 0.57091 0.0
H1368 H 0.18173 0.83331 0.60075 0.0
H1369 H 0.18141 0.81947 0.64093 0.0
H1370 H 0.11244 0.7655 0.63079 0.0
C1371 C 0.11298 0.79483 0.54159 0.0
C1372 C 0.12594 0.81281 0.52611 0.0
C1373 C 0.14777 0.82996 0.53287 0.0
C1374 C 0.15665 0.82912 0.55479 0.0
C1375 C 0.14325 0.81127 0.56981 0.0
C1376 C 0.1218 0.79456 0.56354 0.0
C1377 C 0.1101 0.77814 0.58337 0.0
C1378 C 0.08874 0.77847 0.5912 0.0
C1379 C 0.10467 0.75419 0.57655 0.0
C1380 C 0.12833 0.78814 0.60184 0.0
C1381 C 0.14747 0.80703 0.59362 0.0
C1382 C 0.16677 0.81864 0.6074 0.0
C1383 C 0.16645 0.81068 0.63014 0.0
C1384 C 0.14681 0.79163 0.63894 0.0
C1385 C 0.12753 0.78035 0.62461 0.0
H1386 H 0.70762 0.81051 0.04717 0.0
H1387 H 0.64594 0.79196 0.00908 0.0
H1388 H 0.62548 0.78589 0.04654 0.0
H1389 H 0.68147 0.76771 0.08974 0.0
H1390 H 0.69931 0.78423 0.11361 0.0
H1391 H 0.70985 0.79018 0.08409 0.0
H1392 H 0.71945 0.83173 0.08872 0.0
H1393 H 0.70901 0.82594 0.11834 0.0
H1394 H 0.6977 0.83769 0.09774 0.0
H1395 H 0.61173 0.78101 0.08761 0.0
H1396 H 0.60415 0.77369 0.12976 0.0
H1397 H 0.67392 0.79174 0.14145 0.0
C1398 C 0.68992 0.80564 0.04684 0.0
C1399 C 0.67831 0.80207 0.02544 0.0
C1400 C 0.65503 0.79496 0.02543 0.0
C1401 C 0.64336 0.79157 0.04655 0.0
C1402 C 0.6552 0.79494 0.06743 0.0
C1403 C 0.67788 0.80155 0.06777 0.0
C1404 C 0.686 0.80173 0.09251 0.0
C1405 C 0.69466 0.78496 0.09513 0.0
C1406 C 0.70411 0.8257 0.09975 0.0
C1407 C 0.66426 0.79396 0.10599 0.0
C1408 C 0.64687 0.79064 0.09118 0.0
C1409 C 0.6252 0.78356 0.0994 0.0
C1410 C 0.62109 0.77952 0.12338 0.0
C1411 C 0.63846 0.78215 0.13883 0.0
C1412 C 0.66034 0.78952 0.12999 0.0
H1413 H 0.22059 0.90709 0.03843 0.0
H1414 H 0.15811 0.84592 0.02166 0.0
H1415 H 0.15804 0.83057 0.06087 0.0
H1416 H 0.24592 0.88152 0.07412 0.0
H1417 H 0.25762 0.90438 0.09492 0.0
H1418 H 0.25361 0.90969 0.06493 0.0
H1419 H 0.22961 0.92721 0.07874 0.0
H1420 H 0.23338 0.92177 0.10875 0.0
H1421 H 0.20533 0.91088 0.0971 0.0
H1422 H 0.16497 0.82188 0.10172 0.0
H1423 H 0.17724 0.82128 0.14229 0.0
H1424 H 0.23344 0.88937 0.13354 0.0
C1425 C 0.20713 0.89031 0.04292 0.0
C1426 C 0.18949 0.87751 0.02702 0.0
C1427 C 0.1718 0.8559 0.03364 0.0
C1428 C 0.17165 0.84706 0.05582 0.0
C1429 C 0.18912 0.86023 0.07125 0.0
C1430 C 0.20644 0.88146 0.06518 0.0
C1431 C 0.22243 0.89268 0.08549 0.0
C1432 C 0.24631 0.89733 0.0795 0.0
C1433 C 0.22269 0.91442 0.09296 0.0
C1434 C 0.21141 0.87443 0.10391 0.0
C1435 C 0.19238 0.85574 0.09524 0.0
C1436 C 0.17976 0.83646 0.10875 0.0
C1437 C 0.18685 0.83625 0.13173 0.0
C1438 C 0.20612 0.85534 0.14102 0.0
C1439 C 0.21842 0.8747 0.12696 0.0
H1440 H 0.12654 0.33994 0.02773 0.0
H1441 H 0.11143 0.27158 0.04312 0.0
H1442 H 0.11918 0.28133 0.08485 0.0
H1443 H 0.17294 0.36739 0.07073 0.0
H1444 H 0.16578 0.38867 0.07812 0.0
H1445 H 0.16011 0.37669 0.04914 0.0
H1446 H 0.11806 0.36544 0.05352 0.0
H1447 H 0.12356 0.37728 0.08252 0.0
H1448 H 0.10206 0.34826 0.07802 0.0
H1449 H 0.124 0.29694 0.12529 0.0
H1450 H 0.12985 0.31901 0.1616 0.0
H1451 H 0.14524 0.37809 0.1202 0.0
C1452 C 0.12513 0.32712 0.03985 0.0
C1453 C 0.1183 0.30498 0.03214 0.0
C1454 C 0.11672 0.28869 0.04855 0.0
C1455 C 0.12104 0.29403 0.07234 0.0
C1456 C 0.12737 0.31587 0.07943 0.0
C1457 C 0.12984 0.3323 0.06366 0.0
C1458 C 0.13674 0.35443 0.07601 0.0
C1459 C 0.16029 0.37289 0.06802 0.0
C1460 C 0.11904 0.36177 0.0723 0.0
C1461 C 0.13709 0.34765 0.1012 0.0
C1462 C 0.13149 0.32527 0.10277 0.0
C1463 C 0.12891 0.31461 0.12429 0.0
C1464 C 0.13218 0.32718 0.14476 0.0
C1465 C 0.13837 0.35018 0.14346 0.0
C1466 C 0.14103 0.3606 0.12147 0.0
H1467 H 0.7817 0.69289 0.46565 0.0
H1468 H 0.84277 0.69159 0.48301 0.0
H1469 H 0.84424 0.6792 0.44255 0.0
H1470 H 0.75685 0.64528 0.42713 0.0
H1471 H 0.74629 0.65817 0.40707 0.0
H1472 H 0.74982 0.66589 0.43753 0.0
H1473 H 0.77523 0.70794 0.42604 0.0
H1474 H 0.77197 0.70032 0.39554 0.0
H1475 H 0.79981 0.71611 0.40809 0.0
H1476 H 0.83731 0.66472 0.40057 0.0
H1477 H 0.82421 0.65207 0.35999 0.0
H1478 H 0.77034 0.66728 0.36961 0.0
C1479 C 0.79523 0.68973 0.46101 0.0
C1480 C 0.8119 0.69275 0.47745 0.0
C1481 C 0.82973 0.68911 0.47062 0.0
C1482 C 0.8307 0.68213 0.44773 0.0
C1483 C 0.81402 0.67945 0.43185 0.0
C1484 C 0.7968 0.68341 0.43816 0.0
C1485 C 0.78146 0.68025 0.4177 0.0
C1486 C 0.75717 0.66126 0.42266 0.0
C1487 C 0.78218 0.70248 0.41148 0.0
C1488 C 0.79249 0.67351 0.3989 0.0
C1489 C 0.81112 0.6729 0.4074 0.0
C1490 C 0.82302 0.66554 0.39361 0.0
C1491 C 0.81551 0.65844 0.37064 0.0
C1492 C 0.79664 0.65924 0.36163 0.0
C1493 C 0.78524 0.66716 0.37587 0.0
H1494 H 0.31476 0.14195 0.46886 0.0
H1495 H 0.33012 0.08973 0.48892 0.0
H1496 H 0.3467 0.09214 0.45031 0.0
H1497 H 0.29959 0.12498 0.41046 0.0
H1498 H 0.31292 0.15295 0.39804 0.0
H1499 H 0.30327 0.14854 0.42792 0.0
H1500 H 0.34334 0.17815 0.44195 0.0
H1501 H 0.35308 0.18285 0.41207 0.0
H1502 H 0.36713 0.17509 0.43377 0.0
H1503 H 0.35703 0.09615 0.40883 0.0
H1504 H 0.36639 0.10602 0.36732 0.0
H1505 H 0.34832 0.15825 0.37356 0.0
C1506 C 0.32198 0.13133 0.46524 0.0
C1507 C 0.32099 0.11557 0.48201 0.0
C1508 C 0.33062 0.10196 0.47653 0.0
C1509 C 0.34006 0.10312 0.45455 0.0
C1510 C 0.3402 0.11829 0.43828 0.0
C1511 C 0.33195 0.13257 0.44339 0.0
C1512 C 0.33433 0.14726 0.42238 0.0
C1513 C 0.31115 0.14318 0.41422 0.0
C1514 C 0.35043 0.17232 0.42787 0.0
C1515 C 0.3446 0.13848 0.4046 0.0
C1516 C 0.34757 0.1216 0.41424 0.0
C1517 C 0.35521 0.10962 0.40115 0.0
C1518 C 0.3603 0.11522 0.37757 0.0
C1519 C 0.35812 0.13289 0.36739 0.0
C1520 C 0.3503 0.14481 0.38108 0.0
H1521 H 0.90474 0.21753 0.45783 0.0
H1522 H 0.84701 0.15111 0.47017 0.0
H1523 H 0.83576 0.14911 0.42849 0.0
H1524 H 0.87921 0.23797 0.41956 0.0
H1525 H 0.90358 0.25286 0.40096 0.0
H1526 H 0.90716 0.24824 0.43125 0.0
H1527 H 0.92982 0.22875 0.41911 0.0
H1528 H 0.92621 0.23323 0.38871 0.0
H1529 H 0.91735 0.20515 0.39922 0.0
H1530 H 0.82889 0.15692 0.38647 0.0
H1531 H 0.82846 0.17238 0.34735 0.0
H1532 H 0.89289 0.23193 0.36235 0.0
C1533 C 0.88976 0.20251 0.45172 0.0
C1534 C 0.87653 0.18456 0.46711 0.0
C1535 C 0.85728 0.16502 0.45853 0.0
C1536 C 0.85082 0.16377 0.43495 0.0
C1537 C 0.8642 0.18195 0.42023 0.0
C1538 C 0.88347 0.20077 0.42827 0.0
C1539 C 0.89496 0.21813 0.40917 0.0
C1540 C 0.89629 0.24062 0.41563 0.0
C1541 C 0.91848 0.2215 0.40373 0.0
C1542 C 0.87877 0.20653 0.38919 0.0
C1543 C 0.86106 0.1857 0.39585 0.0
C1544 C 0.84294 0.17293 0.38091 0.0
C1545 C 0.84283 0.18183 0.35877 0.0
C1546 C 0.86088 0.2031 0.35172 0.0
C1547 C 0.87922 0.21531 0.36701 0.0
H1548 H 0.96294 0.50379 0.29338 0.0
H1549 H 0.00827 0.56934 0.32397 0.0
H1550 H 0.02906 0.58178 0.28682 0.0
H1551 H 0.00612 0.50113 0.25559 0.0
H1552 H 0.98642 0.4878 0.23191 0.0
H1553 H 0.97653 0.48287 0.26175 0.0
H1554 H 0.94811 0.49614 0.25151 0.0
H1555 H 0.95802 0.50129 0.22174 0.0
H1556 H 0.9583 0.52366 0.23869 0.0
H1557 H 0.04236 0.58886 0.24603 0.0
H1558 H 0.04863 0.58963 0.20342 0.0
H1559 H 0.9956 0.51968 0.19815 0.0
C1560 C 0.97758 0.52056 0.29242 0.0
C1561 C 0.98398 0.53557 0.31167 0.0
C1562 C 0.00299 0.55752 0.30953 0.0
C1563 C 0.01498 0.56475 0.2885 0.0
C1564 C 0.00787 0.54983 0.26971 0.0
C1565 C 0.98978 0.52812 0.27142 0.0
C1566 C 0.98493 0.51606 0.24799 0.0
C1567 C 0.98873 0.49576 0.2494 0.0
C1568 C 0.96092 0.50887 0.23949 0.0
C1569 C 0.00267 0.53467 0.23275 0.0
C1570 C 0.0158 0.55391 0.24581 0.0
C1571 C 0.03247 0.57381 0.23567 0.0
C1572 C 0.03585 0.57413 0.21152 0.0
C1573 C 0.0227 0.5547 0.1978 0.0
C1574 C 0.00601 0.53462 0.20847 0.0
H1575 H 0.42518 0.44167 0.20584 0.0
H1576 H 0.48266 0.50878 0.19537 0.0
H1577 H 0.49645 0.50778 0.23495 0.0
H1578 H 0.41604 0.44964 0.2661 0.0
H1579 H 0.40819 0.42132 0.27488 0.0
H1580 H 0.40306 0.4268 0.24533 0.0
H1581 H 0.42589 0.40878 0.22937 0.0
H1582 H 0.43093 0.40308 0.25887 0.0
H1583 H 0.45439 0.41911 0.23944 0.0
H1584 H 0.50422 0.49961 0.27529 0.0
H1585 H 0.50535 0.4848 0.31431 0.0
H1586 H 0.44225 0.42349 0.29971 0.0
C1587 C 0.44078 0.45604 0.21182 0.0
C1588 C 0.45287 0.47533 0.19752 0.0
C1589 C 0.47304 0.49393 0.20607 0.0
C1590 C 0.48104 0.49349 0.22851 0.0
C1591 C 0.46858 0.4744 0.24229 0.0
C1592 C 0.44887 0.45601 0.23435 0.0
C1593 C 0.43849 0.43782 0.25299 0.0
C1594 C 0.41506 0.43366 0.26025 0.0
C1595 C 0.43737 0.4159 0.24467 0.0
C1596 C 0.45553 0.44885 0.27256 0.0
C1597 C 0.47278 0.46989 0.26592 0.0
C1598 C 0.4908 0.48316 0.2807 0.0
C1599 C 0.49137 0.47457 0.30278 0.0
C1600 C 0.47396 0.45301 0.30996 0.0
C1601 C 0.45566 0.44013 0.29474 0.0
H1602 H 0.55471 0.97938 0.20874 0.0
H1603 H 0.48858 0.97232 0.19882 0.0
H1604 H 0.49002 0.98652 0.23884 0.0
H1605 H 0.54653 0.96149 0.26887 0.0
H1606 H 0.57511 0.98125 0.27753 0.0
H1607 H 0.56917 0.97091 0.2479 0.0
H1608 H 0.58816 0.01194 0.23226 0.0
H1609 H 0.59436 0.02241 0.26181 0.0
H1610 H 0.57871 0.03068 0.24279 0.0
H1611 H 0.49884 0.00201 0.27948 0.0
H1612 H 0.5146 0.01813 0.31821 0.0
H1613 H 0.57458 0.01415 0.30253 0.0
C1614 C 0.54063 0.98103 0.21494 0.0
C1615 C 0.52144 0.97466 0.20073 0.0
C1616 C 0.50326 0.97679 0.20953 0.0
C1617 C 0.50398 0.98492 0.2322 0.0
C1618 C 0.52295 0.99069 0.24591 0.0
C1619 C 0.54096 0.98887 0.23766 0.0
C1620 C 0.55923 0.99602 0.25611 0.0
C1621 C 0.5627 0.97623 0.26301 0.0
C1622 C 0.58142 0.01648 0.24774 0.0
C1623 C 0.54874 0.00234 0.27594 0.0
C1624 C 0.52783 0.99916 0.26963 0.0
C1625 C 0.51516 0.0045 0.28466 0.0
C1626 C 0.52427 0.0137 0.30658 0.0
C1627 C 0.54576 0.01734 0.31334 0.0
C1628 C 0.55796 0.01122 0.29794 0.0
H1629 H 0.42839 0.98032 0.7062 0.0
H1630 H 0.48665 0.9724 0.6938 0.0
H1631 H 0.50011 0.98558 0.73397 0.0
H1632 H 0.45618 0.03024 0.74275 0.0
H1633 H 0.4323 0.02107 0.76203 0.0
H1634 H 0.42797 0.01213 0.73192 0.0
H1635 H 0.4058 0.97037 0.74538 0.0
H1636 H 0.41031 0.97917 0.77554 0.0
H1637 H 0.419 0.95983 0.76508 0.0
H1638 H 0.50751 0.00011 0.77521 0.0
H1639 H 0.508 0.01445 0.81503 0.0
H1640 H 0.44365 0.01045 0.80161 0.0
C1641 C 0.44416 0.9817 0.71184 0.0
C1642 C 0.45661 0.97555 0.69684 0.0
C1643 C 0.47689 0.97708 0.70501 0.0
C1644 C 0.48466 0.98453 0.72778 0.0
C1645 C 0.47179 0.99009 0.74228 0.0
C1646 C 0.45194 0.98871 0.73469 0.0
C1647 C 0.44092 0.99495 0.75405 0.0
C1648 C 0.43925 0.01584 0.74728 0.0
C1649 C 0.41763 0.97488 0.76038 0.0
C1650 C 0.45775 0.0002 0.77366 0.0
C1651 C 0.47551 0.99743 0.76644 0.0
C1652 C 0.49362 0.00218 0.78113 0.0
C1653 C 0.49375 0.01029 0.80369 0.0
C1654 C 0.47575 0.01328 0.81144 0.0
C1655 C 0.45739 0.00785 0.79631 0.0
H1656 H 0.01309 0.48588 0.69898 0.0
H1657 H 0.01206 0.4232 0.68328 0.0
H1658 H 0.99894 0.40968 0.72316 0.0
H1659 H 0.03195 0.49196 0.75746 0.0
H1660 H 0.01386 0.50182 0.76894 0.0
H1661 H 0.0225 0.50681 0.73872 0.0
H1662 H 0.98068 0.48703 0.72557 0.0
H1663 H 0.97191 0.48223 0.75576 0.0
H1664 H 0.96141 0.45882 0.73568 0.0
H1665 H 0.99056 0.40457 0.76545 0.0
H1666 H 0.98015 0.40497 0.80668 0.0
H1667 H 0.98216 0.46867 0.79513 0.0
C1668 C 0.00973 0.46918 0.70386 0.0
C1669 C 0.01368 0.45565 0.68795 0.0
C1670 C 0.00907 0.43387 0.69501 0.0
C1671 C 0.00174 0.42604 0.71772 0.0
C1672 C 0.99857 0.43994 0.73312 0.0
C1673 C 0.00178 0.46077 0.72643 0.0
C1674 C 0.99655 0.47195 0.74656 0.0
C1675 C 0.01747 0.49447 0.75331 0.0
C1676 C 0.97644 0.47519 0.74053 0.0
C1677 C 0.99044 0.45433 0.76563 0.0
C1678 C 0.99211 0.43621 0.75748 0.0
C1679 C 0.98878 0.41845 0.77199 0.0
C1680 C 0.98307 0.41892 0.7954 0.0
C1681 C 0.98029 0.43678 0.80397 0.0
C1682 C 0.98401 0.45473 0.78889 0.0
H1683 H 0.56216 0.51706 0.79077 0.0
H1684 H 0.50996 0.5226 0.82791 0.0
H1685 H 0.49339 0.52487 0.79011 0.0
H1686 H 0.5717 0.55846 0.74956 0.0
H1687 H 0.57762 0.54524 0.72544 0.0
H1688 H 0.58289 0.53995 0.75495 0.0
H1689 H 0.55729 0.49692 0.74842 0.0
H1690 H 0.55195 0.50208 0.71881 0.0
H1691 H 0.52868 0.48601 0.73844 0.0
H1692 H 0.48409 0.52888 0.74876 0.0
H1693 H 0.48484 0.53882 0.70728 0.0
H1694 H 0.54531 0.53415 0.69691 0.0
C1695 C 0.54686 0.51809 0.79078 0.0
C1696 C 0.53688 0.51912 0.81199 0.0
C1697 C 0.51749 0.52143 0.81167 0.0
C1698 C 0.50798 0.52264 0.79034 0.0
C1699 C 0.51837 0.5219 0.76961 0.0
C1700 C 0.53754 0.51993 0.76965 0.0
C1701 C 0.54708 0.52246 0.74517 0.0
C1702 C 0.57125 0.54274 0.7437 0.0
C1703 C 0.54619 0.50056 0.73725 0.0
C1704 C 0.53059 0.52668 0.73142 0.0
C1705 C 0.51385 0.52568 0.74579 0.0
C1706 C 0.49704 0.5296 0.73731 0.0
C1707 C 0.49763 0.53523 0.71366 0.0
C1708 C 0.5152 0.53736 0.69877 0.0
C1709 C 0.53164 0.53261 0.70778 0.0
H1710 H 0.41815 0.37481 0.11501 0.0
H1711 H 0.36491 0.39129 0.10582 0.0
H1712 H 0.34281 0.35649 0.08323 0.0
H1713 H 0.41364 0.351 0.05775 0.0
H1714 H 0.41843 0.3287 0.06764 0.0
H1715 H 0.4305 0.35497 0.08347 0.0
H1716 H 0.41107 0.33345 0.12157 0.0
H1717 H 0.39917 0.30711 0.10592 0.0
H1718 H 0.38097 0.31446 0.12176 0.0
H1719 H 0.32637 0.32066 0.06179 0.0
H1720 H 0.31511 0.28368 0.04427 0.0
H1721 H 0.37852 0.28944 0.06657 0.0
C1722 C 0.40177 0.37099 0.1084 0.0
C1723 C 0.39331 0.38584 0.11218 0.0
C1724 C 0.37183 0.38026 0.10314 0.0
C1725 C 0.35912 0.36054 0.0902 0.0
C1726 C 0.36808 0.34651 0.08643 0.0
C1727 C 0.38877 0.35127 0.09535 0.0
C1728 C 0.39414 0.33294 0.08883 0.0
C1729 C 0.41544 0.34248 0.07351 0.0
C1730 C 0.39647 0.3213 0.11083 0.0
C1731 C 0.37316 0.31719 0.07496 0.0
C1732 C 0.35847 0.32551 0.07378 0.0
C1733 C 0.33771 0.31393 0.06252 0.0
C1734 C 0.33149 0.29296 0.05262 0.0
C1735 C 0.34598 0.28376 0.054 0.0
C1736 C 0.36727 0.29623 0.06497 0.0
H1737 H 0.71778 0.02994 0.08098 0.0
H1738 H 0.71294 0.08681 0.05418 0.0
H1739 H 0.67445 0.07026 0.07048 0.0
H1740 H 0.66112 0.98788 0.06829 0.0
H1741 H 0.65777 0.97154 0.09428 0.0
H1742 H 0.68532 0.98838 0.08148 0.0
H1743 H 0.70059 0.00902 0.12102 0.0
H1744 H 0.67307 0.99225 0.13395 0.0
H1745 H 0.68685 0.02262 0.13485 0.0
H1746 H 0.63644 0.04736 0.08914 0.0
H1747 H 0.60087 0.01902 0.1075 0.0
H1748 H 0.63009 0.97652 0.12137 0.0
C1749 C 0.7087 0.03901 0.07864 0.0
C1750 C 0.71839 0.05971 0.06634 0.0
C1751 C 0.70586 0.07093 0.06352 0.0
C1752 C 0.68402 0.0617 0.07277 0.0
C1753 C 0.67496 0.04124 0.08474 0.0
C1754 C 0.68685 0.02998 0.08763 0.0
C1755 C 0.67295 0.00787 0.10052 0.0
C1756 C 0.66906 0.98773 0.08522 0.0
C1757 C 0.68403 0.00796 0.12398 0.0
C1758 C 0.65127 0.00833 0.10423 0.0
C1759 C 0.65288 0.02783 0.09517 0.0
C1760 C 0.63498 0.03203 0.0963 0.0
C1761 C 0.61481 0.01578 0.10675 0.0
C1762 C 0.6126 0.99545 0.1158 0.0
C1763 C 0.63121 0.99185 0.11465 0.0
H1764 H 0.95677 0.66633 0.0576 0.0
H1765 H 0.88938 0.60947 0.04655 0.0
H1766 H 0.89975 0.58485 0.06851 0.0
H1767 H 0.98605 0.63464 0.05108 0.0
H1768 H 0.00677 0.65078 0.07312 0.0
H1769 H 0.99393 0.66366 0.05629 0.0
H1770 H 0.98134 0.67431 0.0947 0.0
H1771 H 0.99387 0.66119 0.11164 0.0
H1772 H 0.96447 0.6525 0.11552 0.0
H1773 H 0.91699 0.56692 0.09344 0.0
H1774 H 0.94108 0.55599 0.11561 0.0
H1775 H 0.9975 0.62435 0.10906 0.0
C1776 C 0.94424 0.64865 0.05963 0.0
C1777 C 0.92226 0.63981 0.05039 0.0
C1778 C 0.90637 0.61658 0.05336 0.0
C1779 C 0.91205 0.6025 0.06593 0.0
C1780 C 0.93375 0.61187 0.0752 0.0
C1781 C 0.9497 0.63433 0.07188 0.0
C1782 C 0.97195 0.64014 0.08325 0.0
C1783 C 0.99078 0.64775 0.06483 0.0
C1784 C 0.97827 0.6581 0.10242 0.0
C1785 C 0.96599 0.61746 0.09363 0.0
C1786 C 0.94382 0.60143 0.08899 0.0
C1787 C 0.93441 0.5793 0.09707 0.0
C1788 C 0.94819 0.5733 0.10977 0.0
C1789 C 0.97116 0.58931 0.11405 0.0
C1790 C 0.98001 0.61172 0.10605 0.0
H1791 H 0.28888 0.37804 0.43693 0.0
H1792 H 0.28073 0.31305 0.45671 0.0
H1793 H 0.31826 0.32431 0.44061 0.0
H1794 H 0.3158 0.38213 0.38247 0.0
H1795 H 0.33507 0.41212 0.38414 0.0
H1796 H 0.30815 0.3999 0.39872 0.0
H1797 H 0.32815 0.41722 0.43808 0.0
H1798 H 0.35513 0.42969 0.42356 0.0
H1799 H 0.34973 0.41159 0.44855 0.0
H1800 H 0.35541 0.34142 0.42154 0.0
H1801 H 0.39131 0.36407 0.40075 0.0
H1802 H 0.37592 0.41808 0.39194 0.0
C1803 C 0.29523 0.3664 0.43821 0.0
C1804 C 0.282 0.34473 0.44814 0.0
C1805 C 0.29061 0.32973 0.44914 0.0
C1806 C 0.3119 0.33596 0.44007 0.0
C1807 C 0.32434 0.3572 0.42996 0.0
C1808 C 0.31646 0.37227 0.42897 0.0
C1809 C 0.33306 0.39371 0.41625 0.0
C1810 C 0.32237 0.39716 0.39408 0.0
C1811 C 0.34205 0.41427 0.43259 0.0
C1812 C 0.35135 0.38818 0.41018 0.0
C1813 C 0.34591 0.36706 0.4184 0.0
C1814 C 0.35995 0.35803 0.41506 0.0
C1815 C 0.3803 0.37105 0.4032 0.0
C1816 C 0.38642 0.39284 0.3947 0.0
C1817 C 0.37163 0.40143 0.39811 0.0
H1818 H 0.67264 0.96305 0.4422 0.0
H1819 H 0.61614 0.8948 0.44941 0.0
H1820 H 0.59097 0.90667 0.43127 0.0
H1821 H 0.64106 0.99142 0.45532 0.0
H1822 H 0.65646 0.0138 0.43454 0.0
H1823 H 0.66995 -6e-05 0.44833 0.0
H1824 H 0.6795 0.99039 0.40755 0.0
H1825 H 0.6659 0.00407 0.39362 0.0
H1826 H 0.65711 0.97511 0.38675 0.0
H1827 H 0.57227 0.92553 0.41086 0.0
H1828 H 0.56069 0.9507 0.3922 0.0
H1829 H 0.62906 0.00701 0.39934 0.0
C1830 C 0.65495 0.95062 0.4401 0.0
C1831 C 0.64637 0.92797 0.44723 0.0
C1832 C 0.6231 0.91226 0.44419 0.0
C1833 C 0.60867 0.91881 0.43382 0.0
C1834 C 0.61772 0.94119 0.42675 0.0
C1835 C 0.64026 0.95692 0.42997 0.0
C1836 C 0.64566 0.97995 0.42099 0.0
C1837 C 0.65376 0.9973 0.44099 0.0
C1838 C 0.66307 0.98783 0.40104 0.0
C1839 C 0.62266 0.97467 0.41207 0.0
C1840 C 0.60682 0.95218 0.41543 0.0
C1841 C 0.58449 0.9432 0.40825 0.0
C1842 C 0.5781 0.95763 0.39757 0.0
C1843 C 0.59395 0.98084 0.39432 0.0
C1844 C 0.61653 0.98937 0.40164 0.0
H1845 H 0.03876 0.62954 0.38647 0.0
H1846 H 0.97248 0.60484 0.41755 0.0
H1847 H 0.98703 0.63991 0.44015 0.0
H1848 H 0.0713 0.65853 0.4386 0.0
H1849 H 0.09299 0.68197 0.42239 0.0
H1850 H 0.07781 0.65444 0.40907 0.0
H1851 H 0.06639 0.67121 0.37452 0.0
H1852 H 0.08159 0.69877 0.38768 0.0
H1853 H 0.05214 0.68685 0.38046 0.0
H1854 H 0.00752 0.67776 0.45782 0.0
H1855 H 0.03324 0.71713 0.46959 0.0
H1856 H 0.08688 0.71793 0.42822 0.0
C1857 C 0.02736 0.63149 0.39812 0.0
C1858 C 0.00446 0.61441 0.40019 0.0
C1859 C 0.99007 0.61765 0.41558 0.0
C1860 C 0.99818 0.6375 0.4286 0.0
C1861 C 0.02075 0.65397 0.42615 0.0
C1862 C 0.0352 0.65128 0.41134 0.0
C1863 C 0.05855 0.67208 0.41157 0.0
C1864 C 0.07621 0.66641 0.42097 0.0
C1865 C 0.06504 0.68286 0.38711 0.0
C1866 C 0.05478 0.68692 0.42854 0.0
C1867 C 0.03284 0.67601 0.43675 0.0
C1868 C 0.02482 0.68645 0.45172 0.0
C1869 C 0.03954 0.70881 0.45825 0.0
C1870 C 0.06205 0.72047 0.44993 0.0
C1871 C 0.06987 0.70926 0.43515 0.0
H1872 H 0.56598 0.60917 0.92405 0.0
H1873 H 0.60174 0.61956 0.85851 0.0
H1874 H 0.62333 0.66058 0.86603 0.0
H1875 H 0.56531 0.66359 0.92477 0.0
H1876 H 0.57061 0.66725 0.95581 0.0
H1877 H 0.55514 0.63925 0.94357 0.0
H1878 H 0.58364 0.62935 0.96223 0.0
H1879 H 0.59923 0.65729 0.97439 0.0
H1880 H 0.61332 0.64679 0.95594 0.0
H1881 H 0.64332 0.69925 0.88184 0.0
H1882 H 0.66219 0.73358 0.90583 0.0
H1883 H 0.61521 0.69865 0.96261 0.0
C1884 C 0.57786 0.62029 0.91103 0.0
C1885 C 0.582 0.61149 0.89049 0.0
C1886 C 0.59825 0.62619 0.87419 0.0
C1887 C 0.6105 0.64946 0.87828 0.0
C1888 C 0.60646 0.65767 0.89891 0.0
C1889 C 0.59062 0.6436 0.91511 0.0
C1890 C 0.59155 0.65654 0.93705 0.0
C1891 C 0.56933 0.65667 0.9405 0.0
C1892 C 0.59729 0.64692 0.95867 0.0
C1893 C 0.61076 0.67988 0.93084 0.0
C1894 C 0.61876 0.68015 0.90857 0.0
C1895 C 0.63707 0.69935 0.89921 0.0
C1896 C 0.64772 0.71878 0.91305 0.0
C1897 C 0.64021 0.71887 0.93614 0.0
C1898 C 0.62125 0.69919 0.94498 0.0
H1899 H 0.2803 0.96038 0.93483 0.0
H1900 H 0.28612 0.90467 0.96347 0.0
H1901 H 0.32472 0.92145 0.9473 0.0
H1902 H 0.3104 0.96633 0.88135 0.0
H1903 H 0.32389 0.99669 0.88104 0.0
H1904 H 0.29668 0.98019 0.89469 0.0
H1905 H 0.31257 0.00229 0.9334 0.0
H1906 H 0.33979 0.01892 0.91985 0.0
H1907 H 0.33722 0.00363 0.94645 0.0
H1908 H 0.36254 0.94423 0.92776 0.0
H1909 H 0.39743 0.97205 0.90778 0.0
H1910 H 0.36692 0.01314 0.8925 0.0
C1911 C 0.28966 0.95167 0.93774 0.0
C1912 C 0.28018 0.93118 0.95042 0.0
C1913 C 0.29304 0.92039 0.95385 0.0
C1914 C 0.31495 0.92975 0.94469 0.0
C1915 C 0.32372 0.94992 0.93219 0.0
C1916 C 0.31151 0.96079 0.92881 0.0
C1917 C 0.32491 0.98244 0.91504 0.0
C1918 C 0.31327 0.98133 0.89164 0.0
C1919 C 0.32886 0.00303 0.92956 0.0
C1920 C 0.34665 0.98212 0.91129 0.0
C1921 C 0.34556 0.96316 0.92119 0.0
C1922 C 0.3636 0.95915 0.91998 0.0
C1923 C 0.38334 0.97507 0.90856 0.0
C1924 C 0.38497 0.99484 0.89861 0.0
C1925 C 0.36625 0.99824 0.89992 0.0
H1926 H 0.06686 0.3378 0.9214 0.0
H1927 H 0.08776 0.37852 0.98456 0.0
H1928 H 0.07015 0.40007 0.96978 0.0
H1929 H 0.07413 0.3829 0.88093 0.0
H1930 H 0.04955 0.36401 0.86409 0.0
H1931 H 0.06584 0.35347 0.8786 0.0
H1932 H 0.02979 0.32347 0.89996 0.0
H1933 H 0.01344 0.33397 0.88566 0.0
H1934 H 0.01358 0.33244 0.91715 0.0
H1935 H 0.04759 0.41498 0.9496 0.0
H1936 H 0.02203 0.42234 0.92555 0.0
H1937 H 0.01568 0.37156 0.87573 0.0
C1938 C 0.0681 0.3515 0.932 0.0
C1939 C 0.07874 0.3565 0.95414 0.0
C1940 C 0.07977 0.37443 0.96751 0.0
C1941 C 0.06984 0.38678 0.95925 0.0
C1942 C 0.05908 0.38106 0.93756 0.0
C1943 C 0.05827 0.36392 0.92406 0.0
C1944 C 0.04455 0.36022 0.90202 0.0
C1945 C 0.05941 0.36547 0.88012 0.0
C1946 C 0.02413 0.3361 0.90117 0.0
C1947 C 0.03724 0.37756 0.9055 0.0
C1948 C 0.04599 0.38956 0.92598 0.0
C1949 C 0.04084 0.40585 0.93341 0.0
C1950 C 0.02624 0.40986 0.91963 0.0
C1951 C 0.01685 0.39755 0.8987 0.0
C1952 C 0.02268 0.38137 0.89152 0.0
H1953 H 0.62392 0.56686 0.60295 0.0
H1954 H 0.60545 0.61873 0.61161 0.0
H1955 H 0.63993 0.64592 0.59115 0.0
H1956 H 0.68396 0.6037 0.61167 0.0
H1957 H 0.69209 0.59005 0.5899 0.0
H1958 H 0.66569 0.57418 0.60521 0.0
H1959 H 0.6445 0.56258 0.56557 0.0
H1960 H 0.67083 0.57861 0.55014 0.0
H1961 H 0.64804 0.58416 0.54506 0.0
H1962 H 0.67577 0.66772 0.57021 0.0
H1963 H 0.71292 0.68386 0.55126 0.0
H1964 H 0.7094 0.61874 0.55538 0.0
C1965 C 0.62723 0.58396 0.60063 0.0
C1966 C 0.61187 0.59056 0.60887 0.0
C1967 C 0.6168 0.61313 0.6054 0.0
C1968 C 0.63637 0.62877 0.59375 0.0
C1969 C 0.65095 0.6217 0.58556 0.0
C1970 C 0.64682 0.59995 0.5889 0.0
C1971 C 0.66567 0.59712 0.57844 0.0
C1972 C 0.67756 0.5909 0.59744 0.0
C1973 C 0.65672 0.57957 0.55863 0.0
C1974 C 0.68102 0.62074 0.56898 0.0
C1975 C 0.67201 0.63452 0.57322 0.0
C1976 C 0.68304 0.65714 0.56671 0.0
C1977 C 0.70414 0.66614 0.55594 0.0
C1978 C 0.71406 0.65257 0.55177 0.0
C1979 C 0.70214 0.62946 0.55808 0.0
H1980 H 0.42339 0.03972 0.59868 0.0
H1981 H 0.36842 0.98208 0.63366 0.0
H1982 H 0.34251 0.99589 0.62312 0.0
H1983 H 0.40593 0.08095 0.61359 0.0
H1984 H 0.41383 0.0947 0.58547 0.0
H1985 H 0.42868 0.08133 0.59727 0.0
H1986 H 0.41967 0.05711 0.55972 0.0
H1987 H 0.40473 0.07032 0.54785 0.0
H1988 H 0.39072 0.04002 0.55046 0.0
H1989 H 0.32226 0.01472 0.60792 0.0
H1990 H 0.30828 0.03722 0.588 0.0
H1991 H 0.37574 0.08242 0.56142 0.0
C1992 C 0.40599 0.03026 0.60442 0.0
C1993 C 0.39791 0.00991 0.61712 0.0
C1994 C 0.37494 0.99771 0.62392 0.0
C1995 C 0.3601 0.00544 0.61809 0.0
C1996 C 0.36845 0.02534 0.60529 0.0
C1997 C 0.3908 0.03761 0.59845 0.0
C1998 C 0.39498 0.05778 0.58368 0.0
C1999 C 0.41185 0.08001 0.59573 0.0
C2000 C 0.40299 0.0562 0.55897 0.0
C2001 C 0.37144 0.05477 0.58318 0.0
C2002 C 0.35651 0.03603 0.59595 0.0
C2003 C 0.33377 0.02949 0.59792 0.0
C2004 C 0.326 0.04239 0.58649 0.0
C2005 C 0.34088 0.06159 0.57309 0.0
C2006 C 0.36394 0.06785 0.57152 0.0
H2007 H 0.96643 0.36388 0.6139 0.0
H2008 H 0.01957 0.40424 0.56415 0.0
H2009 H 0.0026 0.37328 0.53563 0.0
H2010 H 0.96477 0.3123 0.60091 0.0
H2011 H 0.93464 0.29499 0.60444 0.0
H2012 H 0.94984 0.32109 0.62032 0.0
H2013 H 0.92354 0.33451 0.60285 0.0
H2014 H 0.9084 0.30848 0.58673 0.0
H2015 H 0.92069 0.33513 0.57153 0.0
H2016 H 0.9811 0.33783 0.51298 0.0
H2017 H 0.95829 0.29863 0.49904 0.0
H2018 H 0.91955 0.28065 0.56356 0.0
C2019 C 0.97437 0.36625 0.59694 0.0
C2020 C 0.99419 0.3866 0.5912 0.0
C2021 C 0.00428 0.38891 0.56894 0.0
C2022 C 0.99472 0.37144 0.55253 0.0
C2023 C 0.97514 0.35169 0.55865 0.0
C2024 C 0.96518 0.34885 0.58038 0.0
C2025 C 0.94514 0.32526 0.58306 0.0
C2026 C 0.94883 0.31267 0.60338 0.0
C2027 C 0.92314 0.3259 0.58622 0.0
C2028 C 0.94569 0.31526 0.5596 0.0
C2029 C 0.96292 0.33091 0.54567 0.0
C2030 C 0.96744 0.32542 0.52363 0.0
C2031 C 0.95436 0.30312 0.51585 0.0
C2032 C 0.93715 0.28659 0.53019 0.0
C2033 C 0.93246 0.29294 0.5521 0.0
H2034 H 0.97312 0.6816 0.78989 0.0
H2035 H 0.92797 0.67943 0.73519 0.0
H2036 H 0.96075 0.70419 0.71059 0.0
H2037 H 0.01746 0.74044 0.78057 0.0
H2038 H 0.03991 0.73449 0.7862 0.0
H2039 H 0.01291 0.71795 0.80028 0.0
H2040 H 0.01001 0.68133 0.78367 0.0
H2041 H 0.03697 0.69773 0.76959 0.0
H2042 H 0.01257 0.6788 0.75256 0.0
H2043 H 0.99831 0.72698 0.6908 0.0
H2044 H 0.03794 0.74588 0.67729 0.0
H2045 H 0.0585 0.73357 0.74505 0.0
C2046 C 0.97011 0.68655 0.77286 0.0
C2047 C 0.94795 0.67857 0.76451 0.0
C2048 C 0.94477 0.6853 0.74201 0.0
C2049 C 0.9633 0.69943 0.72791 0.0
C2050 C 0.98491 0.7068 0.73657 0.0
C2051 C 0.98841 0.70065 0.75854 0.0
C2052 C 0.01331 0.70999 0.76323 0.0
C2053 C 0.02137 0.72671 0.78379 0.0
C2054 C 0.01851 0.69082 0.76751 0.0
C2055 C 0.0232 0.72195 0.74029 0.0
C2056 C 0.00657 0.72006 0.72519 0.0
C2057 C 0.01153 0.72879 0.70255 0.0
C2058 C 0.03408 0.73948 0.69503 0.0
C2059 C 0.05134 0.74129 0.71012 0.0
C2060 C 0.04576 0.73269 0.73315 0.0
H2061 H 0.29263 0.24834 0.77681 0.0
H2062 H 0.36146 0.3047 0.77914 0.0
H2063 H 0.34945 0.32855 0.75868 0.0
H2064 H 0.27938 0.2599 0.71954 0.0
H2065 H 0.25071 0.2522 0.72657 0.0
H2066 H 0.26429 0.23925 0.74202 0.0
H2067 H 0.25605 0.25217 0.78158 0.0
H2068 H 0.24225 0.26496 0.76628 0.0
H2069 H 0.26521 0.28161 0.78602 0.0
H2070 H 0.33077 0.3463 0.73777 0.0
H2071 H 0.30574 0.35774 0.71884 0.0
H2072 H 0.24863 0.29029 0.7293 0.0
C2073 C 0.30511 0.26575 0.77321 0.0
C2074 C 0.328 0.27462 0.77961 0.0
C2075 C 0.34384 0.29747 0.77441 0.0
C2076 C 0.33721 0.31118 0.76274 0.0
C2077 C 0.31468 0.30186 0.75634 0.0
C2078 C 0.29878 0.27976 0.76146 0.0
C2079 C 0.27564 0.27413 0.75249 0.0
C2080 C 0.26701 0.25525 0.73406 0.0
C2081 C 0.2588 0.26785 0.77281 0.0
C2082 C 0.28112 0.29653 0.74155 0.0
C2083 C 0.30377 0.31221 0.74401 0.0
C2084 C 0.31299 0.3342 0.73573 0.0
C2085 C 0.29861 0.34051 0.72498 0.0
C2086 C 0.27524 0.32491 0.72253 0.0
C2087 C 0.26646 0.30252 0.73069 0.0
H2088 H 0.71371 0.04468 0.76323 0.0
H2089 H 0.78387 0.06186 0.75806 0.0
H2090 H 0.77199 0.02498 0.73943 0.0
H2091 H 0.69179 0.9867 0.77786 0.0
H2092 H 0.66612 0.97696 0.76134 0.0
H2093 H 0.68026 0.00505 0.77337 0.0
H2094 H 0.68212 0.02165 0.73209 0.0
H2095 H 0.668 0.9936 0.71992 0.0
H2096 H 0.69494 0.01467 0.70839 0.0
H2097 H 0.75231 0.98599 0.72174 0.0
H2098 H 0.72631 0.94733 0.70765 0.0
H2099 H 0.66909 0.95562 0.72522 0.0
C2100 C 0.72661 0.04077 0.75806 0.0
C2101 C 0.74973 0.05618 0.76203 0.0
C2102 C 0.76605 0.05031 0.75521 0.0
C2103 C 0.75948 0.02944 0.74456 0.0
C2104 C 0.73653 0.01462 0.74096 0.0
C2105 C 0.72034 0.01999 0.74759 0.0
C2106 C 0.69676 0.00084 0.74245 0.0
C2107 C 0.68293 0.99186 0.7651 0.0
C2108 C 0.68475 0.00813 0.72465 0.0
C2109 C 0.70219 0.98379 0.73196 0.0
C2110 C 0.72521 0.9921 0.73111 0.0
C2111 C 0.73425 0.97932 0.72229 0.0
C2112 C 0.71934 0.95739 0.71429 0.0
C2113 C 0.69566 0.94844 0.71532 0.0
C2114 C 0.68709 0.96195 0.72417 0.0
H2115 H 0.28808 0.05404 0.25025 0.0
H2116 H 0.33155 0.04661 0.30047 0.0
H2117 H 0.31399 0.00623 0.29073 0.0
H2118 H 0.23781 0.99759 0.25864 0.0
H2119 H 0.23082 0.99391 0.22795 0.0
H2120 H 0.245 0.02183 0.24049 0.0
H2121 H 0.27694 0.03442 0.2098 0.0
H2122 H 0.26293 0.00655 0.19724 0.0
H2123 H 0.29174 0.01889 0.20711 0.0
H2124 H 0.29385 0.96791 0.27469 0.0
H2125 H 0.27268 0.933 0.25215 0.0
H2126 H 0.24254 0.96434 0.21052 0.0
C2127 C 0.29349 0.04372 0.25947 0.0
C2128 C 0.311 0.05329 0.27626 0.0
C2129 C 0.31813 0.03953 0.28759 0.0
C2130 C 0.30821 0.01659 0.28224 0.0
C2131 C 0.2913 0.00769 0.26536 0.0
C2132 C 0.28397 0.02072 0.25403 0.0
C2133 C 0.26666 0.00708 0.23534 0.0
C2134 C 0.24371 0.00498 0.24095 0.0
C2135 C 0.27508 0.01735 0.21093 0.0
C2136 C 0.26571 0.98451 0.23783 0.0
C2137 C 0.27992 0.98532 0.25546 0.0
C2138 C 0.28256 0.96697 0.2609 0.0
C2139 C 0.27045 0.9472 0.24788 0.0
C2140 C 0.25592 0.94586 0.22946 0.0
C2141 C 0.25343 0.96479 0.2245 0.0
H2142 H 0.04645 0.33507 0.23216 0.0
H2143 H 0.06014 0.27987 0.22456 0.0
H2144 H 0.02238 0.25344 0.2405 0.0
H2145 H 0.01563 0.31641 0.28622 0.0
H2146 H 0.99564 0.32519 0.27835 0.0
H2147 H 0.0238 0.3398 0.26646 0.0
H2148 H 0.0074 0.33222 0.22442 0.0
H2149 H 0.9792 0.31763 0.23618 0.0
H2150 H 0.98796 0.30365 0.21547 0.0
H2151 H 0.98314 0.23301 0.25753 0.0
H2152 H 0.94494 0.21996 0.27327 0.0
H2153 H 0.95675 0.28844 0.26922 0.0
C2154 C 0.04153 0.31743 0.23384 0.0
C2155 C 0.05629 0.30956 0.2271 0.0
C2156 C 0.04914 0.28631 0.22954 0.0
C2157 C 0.02773 0.27116 0.23863 0.0
C2158 C 0.01363 0.27949 0.24513 0.0
C2159 C 0.0202 0.30206 0.24277 0.0
C2160 C 0.00175 0.30664 0.25079 0.0
C2161 C 0.00969 0.32297 0.2717 0.0
C2162 C 0.9936 0.31556 0.2305 0.0
C2163 C 0.98377 0.28311 0.25804 0.0
C2164 C 0.99098 0.2677 0.25472 0.0
C2165 C 0.97731 0.24492 0.26018 0.0
C2166 C 0.95564 0.23768 0.26915 0.0
C2167 C 0.94781 0.25315 0.27249 0.0
C2168 C 0.96219 0.27617 0.26688 0.0
H2169 H 0.72244 0.68044 0.2721 0.0
H2170 H 0.79037 0.73818 0.27321 0.0
H2171 H 0.77656 0.76125 0.2536 0.0
H2172 H 0.70598 0.6911 0.21614 0.0
H2173 H 0.67745 0.68221 0.22503 0.0
H2174 H 0.69275 0.67025 0.23889 0.0
H2175 H 0.68573 0.68245 0.27949 0.0
H2176 H 0.67031 0.69434 0.26578 0.0
H2177 H 0.69402 0.71162 0.28446 0.0
H2178 H 0.75526 0.7777 0.23285 0.0
H2179 H 0.72786 0.78697 0.21526 0.0
H2180 H 0.67372 0.71874 0.22921 0.0
C2181 C 0.73445 0.69794 0.26822 0.0
C2182 C 0.75753 0.70749 0.27412 0.0
C2183 C 0.77262 0.73051 0.26891 0.0
C2184 C 0.76494 0.74372 0.2577 0.0
C2185 C 0.7421 0.73371 0.25201 0.0
C2186 C 0.72704 0.7114 0.25731 0.0
C2187 C 0.70325 0.70482 0.24989 0.0
C2188 C 0.69434 0.68598 0.23138 0.0
C2189 C 0.6874 0.69791 0.27117 0.0
C2190 C 0.70725 0.72689 0.23949 0.0
C2191 C 0.72979 0.74331 0.24069 0.0
C2192 C 0.73757 0.76498 0.2319 0.0
C2193 C 0.72188 0.77006 0.22186 0.0
C2194 C 0.69863 0.75361 0.22088 0.0
C2195 C 0.69135 0.73173 0.22976 0.0
H2196 H 0.29248 0.15676 0.13358 0.0
H2197 H 0.35532 0.20749 0.10225 0.0
H2198 H 0.37604 0.20777 0.13775 0.0
H2199 H 0.30465 0.17808 0.19189 0.0
H2200 H 0.29168 0.15073 0.20571 0.0
H2201 H 0.28172 0.15403 0.17763 0.0
H2202 H 0.28852 0.12295 0.16023 0.0
H2203 H 0.29836 0.11944 0.18832 0.0
H2204 H 0.31603 0.12563 0.16284 0.0
H2205 H 0.38982 0.20333 0.17686 0.0
H2206 H 0.39602 0.19309 0.21656 0.0
H2207 H 0.32444 0.14505 0.2227 0.0
C2208 C 0.31063 0.16769 0.13416 0.0
C2209 C 0.32233 0.18226 0.11532 0.0
C2210 C 0.34603 0.19648 0.11669 0.0
C2211 C 0.35795 0.19668 0.13671 0.0
C2212 C 0.34591 0.18243 0.15518 0.0
C2213 C 0.32281 0.16806 0.15406 0.0
C2214 C 0.314 0.15454 0.17646 0.0
C2215 C 0.29701 0.15966 0.18864 0.0
C2216 C 0.30362 0.12913 0.17167 0.0
C2217 C 0.33572 0.1637 0.19036 0.0
C2218 C 0.35391 0.17979 0.17775 0.0
C2219 C 0.37571 0.19077 0.18693 0.0
C2220 C 0.37905 0.18501 0.20954 0.0
C2221 C 0.36069 0.16847 0.22269 0.0
C2222 C 0.33877 0.15773 0.21295 0.0
H2223 H 0.85234 0.14174 0.12714 0.0
H2224 H 0.80292 0.15346 0.09216 0.0
H2225 H 0.80609 0.17962 0.12373 0.0
H2226 H 0.83218 0.13962 0.18388 0.0
H2227 H 0.85944 0.15358 0.19791 0.0
H2228 H 0.85552 0.13806 0.17124 0.0
H2229 H 0.88822 0.17363 0.15179 0.0
H2230 H 0.89234 0.18926 0.17848 0.0
H2231 H 0.88739 0.19957 0.15137 0.0
H2232 H 0.81212 0.20179 0.16045 0.0
H2233 H 0.82086 0.21876 0.20001 0.0
H2234 H 0.86574 0.19211 0.21182 0.0
C2235 C 0.84268 0.15033 0.12595 0.0
C2236 C 0.82754 0.14588 0.10727 0.0
C2237 C 0.81467 0.15685 0.10638 0.0
C2238 C 0.8164 0.17172 0.12417 0.0
C2239 C 0.83109 0.17541 0.1427 0.0
C2240 C 0.8441 0.16512 0.14371 0.0
C2241 C 0.85728 0.17072 0.16642 0.0
C2242 C 0.8507 0.14921 0.1807 0.0
C2243 C 0.88283 0.18409 0.16173 0.0
C2244 C 0.84928 0.18533 0.17819 0.0
C2245 C 0.83434 0.18799 0.16411 0.0
C2246 C 0.82395 0.19999 0.17155 0.0
C2247 C 0.82889 0.20945 0.19404 0.0
C2248 C 0.84393 0.20671 0.20882 0.0
C2249 C 0.8544 0.19468 0.20069 0.0
H2250 H 0.78579 0.64333 0.19727 0.0
H2251 H 0.84138 0.65515 0.24271 0.0
H2252 H 0.86758 0.66937 0.20898 0.0
H2253 H 0.80423 0.62429 0.14709 0.0
H2254 H 0.79501 0.63766 0.12608 0.0
H2255 H 0.78073 0.62834 0.15378 0.0
H2256 H 0.78798 0.66871 0.16189 0.0
H2257 H 0.80242 0.6782 0.13427 0.0
H2258 H 0.81645 0.69223 0.16096 0.0
H2259 H 0.88779 0.6837 0.17092 0.0
H2260 H 0.9005 0.69469 0.13008 0.0
H2261 H 0.83162 0.67218 0.10878 0.0
C2262 C 0.80348 0.64887 0.19996 0.0
C2263 C 0.81174 0.64826 0.22241 0.0
C2264 C 0.83488 0.65547 0.22551 0.0
C2265 C 0.84982 0.66363 0.20653 0.0
C2266 C 0.84125 0.66429 0.1846 0.0
C2267 C 0.8186 0.65691 0.18115 0.0
C2268 C 0.81375 0.65919 0.15572 0.0
C2269 C 0.79747 0.63599 0.14504 0.0
C2270 C 0.80461 0.67556 0.15306 0.0
C2271 C 0.83723 0.66906 0.14544 0.0
C2272 C 0.85284 0.67201 0.16247 0.0
C2273 C 0.8757 0.68126 0.15739 0.0
C2274 C 0.88274 0.68739 0.13421 0.0
C2275 C 0.86696 0.68397 0.11641 0.0
C2276 C 0.84396 0.67489 0.12214 0.0
H2277 H 0.15498 0.2929 0.36873 0.0
H2278 H 0.20013 0.35496 0.40519 0.0
H2279 H 0.1994 0.37714 0.37141 0.0
H2280 H 0.1778 0.31103 0.31167 0.0
H2281 H 0.15097 0.29697 0.29681 0.0
H2282 H 0.15458 0.28585 0.32402 0.0
H2283 H 0.12064 0.2876 0.34182 0.0
H2284 H 0.11684 0.2986 0.3146 0.0
H2285 H 0.12055 0.31391 0.34143 0.0
H2286 H 0.19508 0.39254 0.33328 0.0
H2287 H 0.18584 0.40026 0.29371 0.0
H2288 H 0.14236 0.32846 0.28224 0.0
C2289 C 0.16438 0.31116 0.36968 0.0
C2290 C 0.1776 0.32229 0.38951 0.0
C2291 C 0.19003 0.34617 0.39004 0.0
C2292 C 0.18966 0.35889 0.371 0.0
C2293 C 0.17663 0.34746 0.3516 0.0
C2294 C 0.16404 0.32415 0.35083 0.0
C2295 C 0.15156 0.31613 0.32775 0.0
C2296 C 0.15919 0.30164 0.31427 0.0
C2297 C 0.12587 0.3033 0.33164 0.0
C2298 C 0.15928 0.33855 0.31564 0.0
C2299 C 0.1738 0.3564 0.3297 0.0
C2300 C 0.18364 0.37873 0.32215 0.0
C2301 C 0.17841 0.38295 0.29966 0.0
C2302 C 0.16342 0.36496 0.28508 0.0
C2303 C 0.15372 0.3425 0.2932 0.0
H2304 H 0.67892 0.84173 0.39002 0.0
H2305 H 0.7113 0.91058 0.36449 0.0
H2306 H 0.7009 0.8965 0.32387 0.0
H2307 H 0.69609 0.81907 0.34172 0.0
H2308 H 0.66996 0.7925 0.34142 0.0
H2309 H 0.68015 0.80807 0.36835 0.0
H2310 H 0.64233 0.80775 0.37345 0.0
H2311 H 0.63203 0.79222 0.34654 0.0
H2312 H 0.63246 0.81859 0.35032 0.0
H2313 H 0.686 0.87492 0.28641 0.0
H2314 H 0.66817 0.84713 0.25433 0.0
H2315 H 0.64648 0.79236 0.30412 0.0
C2316 C 0.68394 0.85376 0.37578 0.0
C2317 C 0.69581 0.87718 0.38015 0.0
C2318 C 0.70203 0.89255 0.36131 0.0
C2319 C 0.69628 0.88472 0.33827 0.0
C2320 C 0.68447 0.86148 0.33448 0.0
C2321 C 0.67846 0.84621 0.35269 0.0
C2322 C 0.6657 0.82212 0.34388 0.0
C2323 C 0.67876 0.80971 0.34915 0.0
C2324 C 0.6417 0.80943 0.35416 0.0
C2325 C 0.66528 0.82621 0.31791 0.0
C2326 C 0.6762 0.84904 0.31285 0.0
C2327 C 0.67753 0.85701 0.29012 0.0
C2328 C 0.66738 0.8412 0.27208 0.0
C2329 C 0.65619 0.81781 0.27695 0.0
C2330 C 0.65519 0.81023 0.30008 0.0
H2331 H 0.13803 0.80618 0.38635 0.0
H2332 H 0.10456 0.84434 0.37122 0.0
H2333 H 0.11792 0.84928 0.33018 0.0
H2334 H 0.18721 0.84078 0.35309 0.0
H2335 H 0.19112 0.81794 0.34319 0.0
H2336 H 0.17712 0.81559 0.37057 0.0
H2337 H 0.14247 0.7784 0.35639 0.0
H2338 H 0.15634 0.78072 0.32886 0.0
H2339 H 0.12881 0.77818 0.32934 0.0
H2340 H 0.13584 0.85116 0.29157 0.0
H2341 H 0.16018 0.85314 0.25865 0.0
H2342 H 0.18365 0.8152 0.29902 0.0
C2343 C 0.13334 0.81532 0.37422 0.0
C2344 C 0.1202 0.8248 0.38166 0.0
C2345 C 0.11463 0.837 0.36565 0.0
C2346 C 0.12201 0.83974 0.34237 0.0
C2347 C 0.13504 0.83026 0.3355 0.0
C2348 C 0.14085 0.81846 0.35099 0.0
C2349 C 0.15648 0.81151 0.33959 0.0
C2350 C 0.17933 0.82209 0.35237 0.0
C2351 C 0.14535 0.78566 0.33848 0.0
C2352 C 0.15885 0.82155 0.31539 0.0
C2353 C 0.14601 0.83194 0.31334 0.0
C2354 C 0.14591 0.84304 0.29294 0.0
C2355 C 0.15977 0.84409 0.27439 0.0
C2356 C 0.17376 0.8344 0.27645 0.0
C2357 C 0.1729 0.82253 0.29699 0.0
H2358 H 0.68408 0.85909 0.78068 0.0
H2359 H 0.61555 0.84 0.79986 0.0
H2360 H 0.62439 0.83785 0.84152 0.0
H2361 H 0.6888 0.82125 0.81955 0.0
H2362 H 0.71815 0.84 0.82632 0.0
H2363 H 0.70695 0.8422 0.79858 0.0
H2364 H 0.72102 0.88446 0.8068 0.0
H2365 H 0.73201 0.88228 0.83475 0.0
H2366 H 0.71221 0.89235 0.83317 0.0
H2367 H 0.63998 0.83597 0.88035 0.0
H2368 H 0.65994 0.83031 0.91344 0.0
H2369 H 0.71818 0.84938 0.86925 0.0
C2370 C 0.67109 0.85464 0.7938 0.0
C2371 C 0.64919 0.84975 0.7874 0.0
C2372 C 0.63239 0.84375 0.80469 0.0
C2373 C 0.63733 0.84267 0.8283 0.0
C2374 C 0.65912 0.8476 0.83418 0.0
C2375 C 0.67568 0.85322 0.81743 0.0
C2376 C 0.69713 0.85583 0.82818 0.0
C2377 C 0.7031 0.8388 0.81753 0.0
C2378 C 0.71675 0.88018 0.82557 0.0
C2379 C 0.6899 0.85032 0.85352 0.0
C2380 C 0.66805 0.84607 0.85664 0.0
C2381 C 0.65717 0.8395 0.8782 0.0
C2382 C 0.66862 0.83645 0.89688 0.0
C2383 C 0.6906 0.83978 0.89379 0.0
C2384 C 0.70159 0.84731 0.87205 0.0
H2385 H 0.19263 0.88483 0.86405 0.0
H2386 H 0.15705 0.8278 0.9108 0.0
H2387 H 0.15071 0.80161 0.87806 0.0
H2388 H 0.15732 0.86028 0.81477 0.0
H2389 H 0.1798 0.87242 0.79354 0.0
H2390 H 0.18265 0.88663 0.8209 0.0
H2391 H 0.21994 0.88669 0.82927 0.0
H2392 H 0.21717 0.87242 0.80191 0.0
H2393 H 0.2201 0.86041 0.82886 0.0
H2394 H 0.14619 0.78177 0.84011 0.0
H2395 H 0.14367 0.76939 0.79897 0.0
H2396 H 0.18305 0.83911 0.77674 0.0
C2397 C 0.18375 0.86682 0.86732 0.0
C2398 C 0.17523 0.85818 0.88977 0.0
C2399 C 0.16351 0.8346 0.89358 0.0
C2400 C 0.15997 0.81966 0.87518 0.0
C2401 C 0.16843 0.82866 0.85315 0.0
C2402 C 0.18014 0.85168 0.84912 0.0
C2403 C 0.1867 0.85687 0.82359 0.0
C2404 C 0.17597 0.86981 0.81255 0.0
C2405 C 0.21251 0.86987 0.82075 0.0
C2406 C 0.17646 0.83317 0.81381 0.0
C2407 C 0.16612 0.81716 0.83122 0.0
C2408 C 0.15448 0.79411 0.82638 0.0
C2409 C 0.15314 0.78724 0.80307 0.0
C2410 C 0.16342 0.80335 0.78503 0.0
C2411 C 0.17545 0.82656 0.79044 0.0
H2412 H 0.20565 0.37659 0.80444 0.0
H2413 H 0.18465 0.31523 0.76488 0.0
H2414 H 0.16184 0.29247 0.79853 0.0
H2415 H 0.2114 0.35462 0.85966 0.0
H2416 H 0.20103 0.36964 0.87682 0.0
H2417 H 0.21504 0.38117 0.84937 0.0
H2418 H 0.18024 0.38322 0.83469 0.0
H2419 H 0.16615 0.37176 0.86213 0.0
H2420 H 0.1528 0.3581 0.83506 0.0
H2421 H 0.14092 0.27649 0.83612 0.0
H2422 H 0.12388 0.26826 0.87561 0.0
H2423 H 0.16036 0.33974 0.89191 0.0
C2424 C 0.19608 0.35837 0.80294 0.0
C2425 C 0.19674 0.34754 0.7822 0.0
C2426 C 0.18429 0.32371 0.78074 0.0
C2427 C 0.17131 0.3107 0.79971 0.0
C2428 C 0.17113 0.32181 0.82005 0.0
C2429 C 0.18323 0.3451 0.82186 0.0
C2430 C 0.18053 0.35273 0.84595 0.0
C2431 C 0.20336 0.36528 0.8587 0.0
C2432 C 0.16926 0.36731 0.84435 0.0
C2433 C 0.165 0.33012 0.85733 0.0
C2434 C 0.15968 0.31253 0.84204 0.0
C2435 C 0.14513 0.29012 0.84834 0.0
C2436 C 0.13568 0.28558 0.87084 0.0
C2437 C 0.14099 0.30333 0.88684 0.0
C2438 C 0.15598 0.32585 0.87998 0.0
H2439 H 0.84424 0.63433 0.69699 0.0
H2440 H 0.80198 0.64506 0.7457 0.0
H2441 H 0.79133 0.66284 0.71413 0.0
H2442 H 0.86584 0.68631 0.66732 0.0
H2443 H 0.86607 0.67517 0.63881 0.0
H2444 H 0.86892 0.66172 0.66466 0.0
H2445 H 0.83453 0.62363 0.65195 0.0
H2446 H 0.83175 0.63689 0.62589 0.0
H2447 H 0.80808 0.6223 0.64545 0.0
H2448 H 0.78785 0.6821 0.678 0.0
H2449 H 0.78926 0.69868 0.63906 0.0
H2450 H 0.83342 0.67486 0.61386 0.0
C2451 C 0.83248 0.64014 0.70084 0.0
C2452 C 0.82379 0.63832 0.72362 0.0
C2453 C 0.80854 0.64612 0.72822 0.0
C2454 C 0.80256 0.65635 0.71046 0.0
C2455 C 0.81192 0.65848 0.68828 0.0
C2456 C 0.82635 0.65036 0.68334 0.0
C2457 C 0.83456 0.65524 0.65826 0.0
C2458 C 0.86038 0.67052 0.65721 0.0
C2459 C 0.82675 0.6332 0.64458 0.0
C2460 C 0.82266 0.66757 0.64986 0.0
C2461 C 0.80974 0.66933 0.66745 0.0
C2462 C 0.79768 0.68057 0.66403 0.0
C2463 C 0.79857 0.68992 0.64193 0.0
C2464 C 0.81126 0.6878 0.62356 0.0
C2465 C 0.82359 0.67667 0.62767 0.0
H2466 H 0.34211 0.17229 0.72853 0.0
H2467 H 0.38445 0.23996 0.70165 0.0
H2468 H 0.37242 0.22596 0.66122 0.0
H2469 H 0.35097 0.14242 0.6807 0.0
H2470 H 0.32222 0.11941 0.68095 0.0
H2471 H 0.33497 0.13464 0.70753 0.0
H2472 H 0.3023 0.14317 0.71249 0.0
H2473 H 0.28951 0.12807 0.68587 0.0
H2474 H 0.29608 0.15695 0.68911 0.0
H2475 H 0.35562 0.20459 0.62394 0.0
H2476 H 0.33479 0.17737 0.59224 0.0
H2477 H 0.30195 0.12386 0.64346 0.0
C2478 C 0.34895 0.18402 0.71402 0.0
C2479 C 0.36423 0.20712 0.71793 0.0
C2480 C 0.37275 0.22218 0.69877 0.0
C2481 C 0.36602 0.21438 0.67585 0.0
C2482 C 0.3507 0.1915 0.67251 0.0
C2483 C 0.34225 0.17652 0.69104 0.0
C2484 C 0.3255 0.15291 0.6827 0.0
C2485 C 0.33393 0.13637 0.6883 0.0
C2486 C 0.30195 0.14481 0.69317 0.0
C2487 C 0.32579 0.15697 0.65661 0.0
C2488 C 0.34054 0.17931 0.65108 0.0
C2489 C 0.34392 0.18709 0.62807 0.0
C2490 C 0.33193 0.17159 0.61022 0.0
C2491 C 0.31661 0.1487 0.61553 0.0
C2492 C 0.31353 0.14134 0.63901 0.0
H2493 H 0.84214 0.15009 0.62019 0.0
H2494 H 0.88398 0.2232 0.62011 0.0
H2495 H 0.86875 0.22477 0.65837 0.0
H2496 H 0.7956 0.14239 0.65293 0.0
H2497 H 0.79359 0.11985 0.67101 0.0
H2498 H 0.80548 0.1241 0.64208 0.0
H2499 H 0.8422 0.1275 0.65905 0.0
H2500 H 0.83024 0.12282 0.688 0.0
H2501 H 0.85706 0.14765 0.68199 0.0
H2502 H 0.84409 0.21805 0.69407 0.0
H2503 H 0.82108 0.20397 0.72963 0.0
H2504 H 0.808 0.13633 0.7137 0.0
C2505 C 0.84858 0.16647 0.62824 0.0
C2506 C 0.86345 0.18661 0.61617 0.0
C2507 C 0.8713 0.20755 0.62784 0.0
C2508 C 0.86307 0.20865 0.64992 0.0
C2509 C 0.84808 0.18856 0.66096 0.0
C2510 C 0.84185 0.16785 0.65106 0.0
C2511 C 0.8278 0.14885 0.66799 0.0
C2512 C 0.80422 0.13286 0.65789 0.0
C2513 C 0.84006 0.13595 0.67466 0.0
C2514 C 0.82653 0.16219 0.68853 0.0
C2515 C 0.83768 0.18499 0.68376 0.0
C2516 C 0.83624 0.20035 0.69861 0.0
C2517 C 0.82336 0.19217 0.7191 0.0
C2518 C 0.81311 0.16903 0.72534 0.0
C2519 C 0.81513 0.15403 0.70975 0.0
H2520 H 0.00511 0.50904 0.55822 0.0
H2521 H 0.04986 0.48765 0.52904 0.0
H2522 H 0.03718 0.49001 0.48916 0.0
H2523 H 0.95972 0.47825 0.52012 0.0
H2524 H 0.95154 0.49943 0.51708 0.0
H2525 H 0.96561 0.49835 0.54328 0.0
H2526 H 0.99679 0.54004 0.53736 0.0
H2527 H 0.98261 0.54137 0.51133 0.0
H2528 H 0.01179 0.54859 0.50994 0.0
H2529 H 0.01715 0.49104 0.45304 0.0
H2530 H 0.99363 0.49451 0.42221 0.0
H2531 H 0.96206 0.51585 0.47417 0.0
C2532 C 0.01264 0.50552 0.54332 0.0
C2533 C 0.02854 0.49832 0.54652 0.0
C2534 C 0.03776 0.49334 0.52678 0.0
C2535 C 0.0306 0.49454 0.50413 0.0
C2536 C 0.01431 0.50093 0.50151 0.0
C2537 C 0.00568 0.50671 0.52049 0.0
C2538 C 0.98778 0.51228 0.51275 0.0
C2539 C 0.9648 0.49611 0.52398 0.0
C2540 C 0.99519 0.53704 0.51817 0.0
C2541 C 0.98743 0.50831 0.48659 0.0
C2542 C 0.00286 0.50174 0.48052 0.0
C2543 C 0.00517 0.49639 0.45753 0.0
C2544 C 0.99166 0.49822 0.44019 0.0
C2545 C 0.97611 0.50537 0.44593 0.0
C2546 C 0.9739 0.51037 0.46943 0.0
H2547 H 0.48371 0.49597 0.55999 0.0
H2548 H 0.52038 0.56569 0.53733 0.0
H2549 H 0.51849 0.55325 0.49627 0.0
H2550 H 0.51115 0.47659 0.52259 0.0
H2551 H 0.48665 0.44955 0.51656 0.0
H2552 H 0.48861 0.46374 0.54372 0.0
H2553 H 0.45048 0.46179 0.53508 0.0
H2554 H 0.44829 0.4474 0.50795 0.0
H2555 H 0.44681 0.47298 0.5079 0.0
H2556 H 0.51505 0.53336 0.45837 0.0
H2557 H 0.5096 0.50724 0.42582 0.0
H2558 H 0.47584 0.45029 0.47301 0.0
C2559 C 0.49077 0.50849 0.5462 0.0
C2560 C 0.50182 0.53172 0.55147 0.0
C2561 C 0.51153 0.54781 0.53333 0.0
C2562 C 0.51058 0.5409 0.51007 0.0
C2563 C 0.49991 0.51783 0.50535 0.0
C2564 C 0.49006 0.50183 0.52287 0.0
C2565 C 0.48084 0.47816 0.51325 0.0
C2566 C 0.49252 0.46632 0.52471 0.0
C2567 C 0.45507 0.46426 0.51622 0.0
C2568 C 0.48736 0.48337 0.48771 0.0
C2569 C 0.49822 0.50635 0.48352 0.0
C2570 C 0.50643 0.51534 0.46141 0.0
C2571 C 0.50338 0.50044 0.44309 0.0
C2572 C 0.49233 0.47688 0.44703 0.0
C2573 C 0.48418 0.46826 0.46959 0.0
H2574 H 0.53334 0.04595 0.47023 0.0
H2575 H 0.51889 0.98471 0.43352 0.0
H2576 H 0.49356 0.96179 0.46555 0.0
H2577 H 0.53481 0.02636 0.52744 0.0
H2578 H 0.52137 0.04012 0.54157 0.0
H2579 H 0.53741 0.05185 0.51518 0.0
H2580 H 0.50263 0.05061 0.49558 0.0
H2581 H 0.48647 0.03886 0.52195 0.0
H2582 H 0.47626 0.0243 0.49449 0.0
H2583 H 0.47163 0.94551 0.50208 0.0
H2584 H 0.45409 0.9367 0.5413 0.0
H2585 H 0.48171 0.0081 0.55478 0.0
C2586 C 0.52457 0.02772 0.46891 0.0
C2587 C 0.52808 0.01702 0.44952 0.0
C2588 C 0.51657 0.99316 0.44838 0.0
C2589 C 0.50206 0.98003 0.4664 0.0
C2590 C 0.49912 0.99101 0.48542 0.0
C2591 C 0.50994 0.01429 0.48683 0.0
C2592 C 0.50432 0.0217 0.50969 0.0
C2593 C 0.52575 0.03584 0.52433 0.0
C2594 C 0.49167 0.03463 0.50515 0.0
C2595 C 0.489 0.99896 0.52101 0.0
C2596 C 0.48618 0.98152 0.50659 0.0
C2597 C 0.47356 0.959 0.51346 0.0
C2598 C 0.46374 0.95416 0.53575 0.0
C2599 C 0.46657 0.97172 0.55092 0.0
C2600 C 0.47911 0.99439 0.54334 0.0
H2601 H 0.48791 0.98925 0.06322 0.0
H2602 H 0.52396 0.95547 0.04064 0.0
H2603 H 0.52328 0.96712 0.99981 0.0
H2604 H 0.45154 0.97502 0.01133 0.0
H2605 H 0.45245 0.00182 0.01102 0.0
H2606 H 0.45503 0.99007 0.03831 0.0
H2607 H 0.49284 0.02673 0.04656 0.0
H2608 H 0.49048 0.03852 0.01923 0.0
H2609 H 0.51532 0.03658 0.02534 0.0
H2610 H 0.52032 0.98383 0.96196 0.0
H2611 H 0.51365 0.00319 0.92892 0.0
H2612 H 0.47884 0.02565 0.9755 0.0
C2613 C 0.49526 0.98401 0.04955 0.0
C2614 C 0.50591 0.9714 0.05491 0.0
C2615 C 0.51574 0.96515 0.03675 0.0
C2616 C 0.51543 0.97167 0.01357 0.0
C2617 C 0.50508 0.98435 0.00883 0.0
C2618 C 0.49499 0.99032 0.02623 0.0
C2619 C 0.48534 0.00433 0.01637 0.0
C2620 C 0.45956 0.99208 0.01944 0.0
C2621 C 0.49668 0.02794 0.02754 0.0
C2622 C 0.49181 0.0055 0.99081 0.0
C2623 C 0.5032 0.99387 0.98688 0.0
C2624 C 0.51132 0.9929 0.9648 0.0
C2625 C 0.50758 0.00401 0.94619 0.0
C2626 C 0.49582 0.01586 0.94979 0.0
C2627 C 0.48782 0.0166 0.97237 0.0
H2628 H 0.96913 0.45541 0.96571 0.0
H2629 H 0.98836 0.51291 0.92024 0.0
H2630 H 0.00345 0.53855 0.95445 0.0
H2631 H 0.95189 0.47708 0.01538 0.0
H2632 H 0.96246 0.46522 0.03671 0.0
H2633 H 0.95258 0.45166 0.00875 0.0
H2634 H 0.99109 0.45387 0.00183 0.0
H2635 H 0.0012 0.46771 0.02963 0.0
H2636 H 0.01669 0.48087 0.00326 0.0
H2637 H 0.01898 0.55785 0.99313 0.0
H2638 H 0.03009 0.5694 0.03424 0.0
H2639 H 0.99892 0.49916 0.05494 0.0
C2640 C 0.97629 0.4734 0.9631 0.0
C2641 C 0.9777 0.48235 0.9405 0.0
C2642 C 0.9871 0.50587 0.93753 0.0
C2643 C 0.99579 0.52049 0.9568 0.0
C2644 C 0.99466 0.5112 0.97886 0.0
C2645 C 0.98482 0.48817 0.98216 0.0
C2646 C 0.98566 0.48249 0.00766 0.0
C2647 C 0.96172 0.46827 0.01772 0.0
C2648 C 0.99948 0.47053 0.01076 0.0
C2649 C 0.99773 0.50594 0.01819 0.0
C2650 C 0.00293 0.52227 1.00124 0.0
C2651 C 0.0147 0.5452 0.00658 0.0
C2652 C 0.02093 0.5516 0.02992 0.0
C2653 C 0.0151 0.53515 0.04767 0.0
C2654 C 0.00356 0.51205 0.04166 0.0
H2655 H 0.46999 0.51179 0.03867 0.0
H2656 H 0.4853 0.46547 0.07513 0.0
H2657 H 0.50888 0.46647 0.04184 0.0
H2658 H 0.46523 0.48846 0.98172 0.0
H2659 H 0.47806 0.51524 0.96672 0.0
H2660 H 0.46327 0.51175 0.99385 0.0
H2661 H 0.49896 0.54576 0.01156 0.0
H2662 H 0.51385 0.54938 0.98445 0.0
H2663 H 0.52532 0.54576 0.01144 0.0
H2664 H 0.53005 0.47181 0.00428 0.0
H2665 H 0.54742 0.4812 0.96492 0.0
H2666 H 0.51762 0.52326 0.9523 0.0
C2667 C 0.47855 0.5021 0.03965 0.0
C2668 C 0.4759 0.48853 0.05935 0.0
C2669 C 0.48709 0.47585 0.06006 0.0
C2670 C 0.50054 0.47637 0.0413 0.0
C2671 C 0.50263 0.48969 0.02195 0.0
C2672 C 0.49199 0.50236 0.02097 0.0
C2673 C 0.49653 0.51472 0.99782 0.0
C2674 C 0.47446 0.50708 0.98423 0.0
C2675 C 0.50943 0.54043 1.00155 0.0
C2676 C 0.51124 0.5069 0.98591 0.0
C2677 C 0.51463 0.49255 1.00018 0.0
C2678 C 0.5275 0.48302 0.99294 0.0
C2679 C 0.53716 0.48831 0.97053 0.0
C2680 C 0.53381 0.50287 0.95558 0.0
C2681 C 0.52069 0.51227 0.96346 0.0
H2682 H 0.25276 0.07174 0.01591 0.0
H2683 H 0.1864 0.06317 0.02843 0.0
H2684 H 0.16877 0.02504 0.01088 0.0
H2685 H 0.2397 0.04136 0.96014 0.0
H2686 H 0.25678 0.02875 0.96657 0.0
H2687 H 0.26418 0.05592 0.97867 0.0
H2688 H 0.26339 0.04076 0.02045 0.0
H2689 H 0.25605 0.0136 0.00848 0.0
H2690 H 0.23834 0.01579 0.03045 0.0
H2691 H 0.15844 0.98769 0.99333 0.0
H2692 H 0.15579 0.9524 0.97927 0.0
H2693 H 0.22902 0.98507 0.9784 0.0
C2694 C 0.23454 0.06195 0.0145 0.0
C2695 C 0.22087 0.07042 0.02303 0.0
C2696 C 0.19709 0.05693 0.02177 0.0
C2697 C 0.18697 0.03537 0.01174 0.0
C2698 C 0.20091 0.02754 0.00326 0.0
C2699 C 0.22417 0.04034 0.00466 0.0
C2700 C 0.23522 0.02739 0.99557 0.0
C2701 C 0.24983 0.03905 0.97395 0.0
C2702 C 0.24906 0.0242 0.01489 0.0
C2703 C 0.21451 0.00522 0.98912 0.0
C2704 C 0.19492 0.00577 0.99347 0.0
C2705 C 0.17365 0.98707 0.98972 0.0
C2706 C 0.17234 0.96709 0.98172 0.0
C2707 C 0.19219 0.96593 0.97769 0.0
C2708 C 0.21353 0.98543 0.98109 0.0
H2709 H 0.94376 0.14216 0.01139 0.0
H2710 H 0.90765 0.17837 0.99933 0.0
H2711 H 0.94171 0.20964 0.98132 0.0
H2712 H 0.9947 0.18991 0.02887 0.0
H2713 H 0.01285 0.18097 0.01558 0.0
H2714 H 0.98492 0.16027 0.025 0.0
H2715 H 0.97575 0.14319 0.98327 0.0
H2716 H 0.00369 0.1639 0.9737 0.0
H2717 H 0.97927 0.16112 0.95862 0.0
H2718 H 0.98012 0.23797 0.96712 0.0
H2719 H 0.02075 0.26231 0.95931 0.0
H2720 H 0.03264 0.2084 0.98164 0.0
C2721 C 0.94294 0.15651 0.00456 0.0
C2722 C 0.92277 0.15741 0.00585 0.0
C2723 C 0.92253 0.17676 0.99743 0.0
C2724 C 0.94189 0.19473 0.98739 0.0
C2725 C 0.96143 0.19321 0.98614 0.0
C2726 C 0.96216 0.17465 0.99459 0.0
C2727 C 0.98576 0.17799 0.99269 0.0
C2728 C 0.9951 0.17725 0.01698 0.0
C2729 C 0.98613 0.16051 0.97608 0.0
C2730 C 0.99826 0.2015 0.98227 0.0
C2731 C 0.98384 0.20985 0.97842 0.0
C2732 C 0.99156 0.23156 0.96988 0.0
C2733 C 0.0147 0.24527 0.96552 0.0
C2734 C 0.02994 0.23728 0.9698 0.0
C2735 C 0.02145 0.21493 0.97792 0.0
H2736 H 0.78584 0.81561 0.97995 0.0
H2737 H 0.72584 0.74905 0.97844 0.0
H2738 H 0.74823 0.73225 0.99221 0.0
H2739 H 0.82479 0.79706 0.95977 0.0
H2740 H 0.84751 0.81668 0.97827 0.0
H2741 H 0.82689 0.82358 0.9676 0.0
H2742 H 0.81835 0.82995 0.01019 0.0
H2743 H 0.83877 0.82286 0.02101 0.0
H2744 H 0.81005 0.80765 0.0314 0.0
H2745 H 0.7759 0.72295 0.00964 0.0
H2746 H 0.80867 0.72109 0.02495 0.0
H2747 H 0.85158 0.79285 0.01239 0.0
C2748 C 0.77747 0.79748 0.98227 0.0
C2749 C 0.75405 0.78369 0.97814 0.0
C2750 C 0.74375 0.76001 0.98138 0.0
C2751 C 0.7563 0.75027 0.98931 0.0
C2752 C 0.7792 0.76436 0.99366 0.0
C2753 C 0.78982 0.78738 0.98991 0.0
C2754 C 0.81473 0.79858 0.99586 0.0
C2755 C 0.82934 0.80962 0.97408 0.0
C2756 C 0.82082 0.81577 0.0158 0.0
C2757 C 0.8163 0.77826 0.00378 0.0
C2758 C 0.79554 0.75873 0.00254 0.0
C2759 C 0.7924 0.73798 0.01003 0.0
C2760 C 0.81114 0.73704 0.01844 0.0
C2761 C 0.83281 0.75658 0.0187 0.0
C2762 C 0.83528 0.77754 0.0118 0.0
H2763 H 0.96033 0.18469 0.50534 0.0
H2764 H 0.97567 0.23992 0.5529 0.0
H2765 H 0.01649 0.25548 0.54573 0.0
H2766 H 0.00938 0.1784 0.51817 0.0
H2767 H 0.01307 0.1732 0.48802 0.0
H2768 H 0.98532 0.16514 0.4989 0.0
H2769 H 0.98072 0.18879 0.46618 0.0
H2770 H 0.00852 0.19711 0.45534 0.0
H2771 H 0.00144 0.21832 0.46332 0.0
H2772 H 0.05532 0.26478 0.53343 0.0
H2773 H 0.08948 0.26884 0.51539 0.0
H2774 H 0.04877 0.21013 0.47188 0.0
C2775 C 0.97235 0.19975 0.51464 0.0
C2776 C 0.96503 0.21094 0.53 0.0
C2777 C 0.98109 0.23104 0.54127 0.0
C2778 C 0.00424 0.23996 0.53731 0.0
C2779 C 0.01093 0.22876 0.52171 0.0
C2780 C 0.99548 0.20919 0.51042 0.0
C2781 C 0.00704 0.20148 0.49315 0.0
C2782 C 0.00349 0.17817 0.49998 0.0
C2783 C 0.99895 0.20143 0.46801 0.0
C2784 C 0.03138 0.21981 0.49647 0.0
C2785 C 0.03325 0.23517 0.51323 0.0
C2786 C 0.05405 0.25315 0.51988 0.0
C2787 C 0.07351 0.25558 0.50904 0.0
C2788 C 0.07208 0.24051 0.49118 0.0
C2789 C 0.05059 0.22227 0.48509 0.0
H2790 H 0.76811 0.75641 0.52002 0.0
H2791 H 0.84022 0.7973 0.53273 0.0
H2792 H 0.83911 0.83124 0.52027 0.0
H2793 H 0.76725 0.78429 0.46849 0.0
H2794 H 0.74049 0.78244 0.47442 0.0
H2795 H 0.74643 0.76152 0.48612 0.0
H2796 H 0.73809 0.76992 0.528 0.0
H2797 H 0.73203 0.79084 0.51642 0.0
H2798 H 0.75307 0.79845 0.53894 0.0
H2799 H 0.83085 0.86026 0.50404 0.0
H2800 H 0.81554 0.88279 0.48628 0.0
H2801 H 0.74902 0.82314 0.4835 0.0
C2802 C 0.78361 0.77254 0.52057 0.0
C2803 C 0.80424 0.77417 0.52743 0.0
C2804 C 0.82419 0.79559 0.52757 0.0
C2805 C 0.82375 0.815 0.52054 0.0
C2806 C 0.80323 0.81273 0.51347 0.0
C2807 C 0.78349 0.79209 0.51352 0.0
C2808 C 0.76388 0.79417 0.50412 0.0
C2809 C 0.75394 0.77975 0.48197 0.0
C2810 C 0.7457 0.78798 0.523 0.0
C2811 C 0.77576 0.81915 0.4985 0.0
C2812 C 0.79843 0.82954 0.50412 0.0
C2813 C 0.81308 0.85238 0.49982 0.0
C2814 C 0.80427 0.865 0.48965 0.0
C2815 C 0.78105 0.85477 0.48405 0.0
C2816 C 0.76669 0.83151 0.48834 0.0
H2817 H 0.23558 0.01523 0.54183 0.0
H2818 H 0.21636 0.05785 0.50328 0.0
H2819 H 0.1858 0.0243 0.48415 0.0
H2820 H 0.22566 0.97607 0.49662 0.0
H2821 H 0.21376 0.95145 0.51516 0.0
H2822 H 0.23383 0.97864 0.52695 0.0
H2823 H 0.20529 0.97451 0.55909 0.0
H2824 H 0.18528 0.94713 0.54765 0.0
H2825 H 0.17739 0.96851 0.55076 0.0
H2826 H 0.15961 0.98709 0.46668 0.0
H2827 H 0.13578 0.9474 0.45531 0.0
H2828 H 0.16938 0.92797 0.50731 0.0
C2829 C 0.22474 0.01746 0.52961 0.0
C2830 C 0.22848 0.03925 0.52404 0.0
C2831 C 0.21388 0.04141 0.50795 0.0
C2832 C 0.19649 0.02244 0.49686 0.0
C2833 C 0.19365 0.00135 0.50226 0.0
C2834 C 0.207 0.99861 0.51858 0.0
C2835 C 0.20002 0.97388 0.52122 0.0
C2836 C 0.21948 0.96978 0.51459 0.0
C2837 C 0.19148 0.96552 0.54616 0.0
C2838 C 0.18098 0.96329 0.50351 0.0
C2839 C 0.17779 0.97953 0.49268 0.0
C2840 C 0.16175 0.97415 0.47522 0.0
C2841 C 0.14829 0.95148 0.46889 0.0
C2842 C 0.15071 0.93428 0.48008 0.0
C2843 C 0.16734 0.94042 0.49771 0.0
H2844 H 0.82439 0.0308 0.01091 0.0
H2845 H 0.78818 0.01476 0.07677 0.0
H2846 H 0.7781 0.97488 0.07249 0.0
H2847 H 0.78444 0.98399 0.98173 0.0
H2848 H 0.80361 0.97912 0.96438 0.0
H2849 H 0.81206 0.00713 0.97454 0.0
H2850 H 0.84729 0.00978 0.99457 0.0
H2851 H 0.83915 0.98185 0.98415 0.0
H2852 H 0.84388 0.98816 0.01495 0.0
H2853 H 0.76793 0.9364 0.05897 0.0
H2854 H 0.75874 0.90168 0.03732 0.0
H2855 H 0.79982 0.94199 0.97909 0.0
C2856 C 0.81517 0.01903 0.02486 0.0
C2857 C 0.80741 0.02584 0.04441 0.0
C2858 C 0.79452 0.00985 0.06185 0.0
C2859 C 0.78872 0.98719 0.05956 0.0
C2860 C 0.79583 0.98078 0.03963 0.0
C2861 C 0.8089 0.99621 0.02262 0.0
C2862 C 0.81209 0.98444 1.0017 0.0
C2863 C 0.80247 0.98894 0.97928 0.0
C2864 C 0.83709 0.99148 0.99867 0.0
C2865 C 0.79821 0.96 0.00932 0.0
C2866 C 0.78925 0.95832 0.03139 0.0
C2867 C 0.77494 0.9375 0.04173 0.0
C2868 C 0.76953 0.91786 0.02914 0.0
C2869 C 0.77813 0.91915 0.00631 0.0
C2870 C 0.793 0.94052 0.99651 0.0
H2871 H 0.98275 0.74918 0.01965 0.0
H2872 H 0.95495 0.79146 0.04027 0.0
H2873 H 0.99114 0.82541 0.03066 0.0
H2874 H 0.04148 0.78781 0.03995 0.0
H2875 H 0.05357 0.78118 0.0153 0.0
H2876 H 0.02649 0.76024 0.02666 0.0
H2877 H 0.00887 0.75585 0.9855 0.0
H2878 H 0.03578 0.77686 0.97405 0.0
H2879 H 0.0115 0.78038 0.97079 0.0
H2880 H 0.02835 0.85437 0.01474 0.0
H2881 H 0.0653 0.87677 0.99519 0.0
H2882 H 0.06902 0.81596 0.98451 0.0
C2883 C 0.98447 0.76559 0.02275 0.0
C2884 C 0.96604 0.76766 0.03082 0.0
C2885 C 0.96883 0.78944 0.03415 0.0
C2886 C 0.98934 0.80884 0.02878 0.0
C2887 C 0.00692 0.80619 0.02019 0.0
C2888 C 0.00481 0.78515 0.01737 0.0
C2889 C 0.02576 0.78697 0.00622 0.0
C2890 C 0.03752 0.77855 0.02304 0.0
C2891 C 0.02013 0.77427 0.98275 0.0
C2892 C 0.03971 0.81226 0.00267 0.0
C2893 C 0.02857 0.82302 0.01102 0.0
C2894 C 0.03743 0.8462 0.00852 0.0
C2895 C 0.05831 0.85874 0.9973 0.0
C2896 C 0.07009 0.84809 0.98886 0.0
C2897 C 0.06063 0.82456 0.99151 0.0
H2898 H 0.21489 0.1759 0.00261 0.0
H2899 H 0.23748 0.2155 0.06626 0.0
H2900 H 0.20728 0.22508 0.06218 0.0
H2901 H 0.20576 0.21459 0.97185 0.0
H2902 H 0.18123 0.19414 0.95596 0.0
H2903 H 0.20192 0.18703 0.96572 0.0
H2904 H 0.17093 0.15221 0.98783 0.0
H2905 H 0.15006 0.1591 0.97795 0.0
H2906 H 0.15331 0.15588 0.00877 0.0
H2907 H 0.17698 0.23273 0.04994 0.0
H2908 H 0.14917 0.23938 0.0295 0.0
H2909 H 0.14766 0.19734 0.9719 0.0
C2910 C 0.21289 0.18595 0.01603 0.0
C2911 C 0.22807 0.19462 0.03502 0.0
C2912 C 0.22572 0.20849 0.0518 0.0
C2913 C 0.20863 0.21397 0.04964 0.0
C2914 C 0.19424 0.20567 0.03041 0.0
C2915 C 0.19616 0.19199 0.01384 0.0
C2916 C 0.18007 0.18742 0.99358 0.0
C2917 C 0.19303 0.19633 0.97042 0.0
C2918 C 0.16255 0.16215 0.99195 0.0
C2919 C 0.16922 0.20105 1.00117 0.0
C2920 C 0.17743 0.21113 0.02263 0.0
C2921 C 0.17049 0.22503 0.03307 0.0
C2922 C 0.15494 0.229 0.02113 0.0
C2923 C 0.14683 0.2195 0.99875 0.0
C2924 C 0.15372 0.20495 0.98891 0.0
H2925 H 0.92308 0.75461 0.50914 0.0
H2926 H 0.94146 0.8043 0.56459 0.0
H2927 H 0.98145 0.82031 0.55428 0.0
H2928 H 0.97082 0.74525 0.51906 0.0
H2929 H 0.97384 0.74137 0.48835 0.0
H2930 H 0.94649 0.7337 0.50012 0.0
H2931 H 0.94263 0.7596 0.4696 0.0
H2932 H 0.97013 0.76765 0.45799 0.0
H2933 H 0.96403 0.789 0.46808 0.0
H2934 H 0.01905 0.83271 0.5365 0.0
H2935 H 0.05278 0.83761 0.51567 0.0
H2936 H 0.01067 0.77775 0.47434 0.0
C2937 C 0.93531 0.76828 0.51977 0.0
C2938 C 0.9288 0.77788 0.53798 0.0
C2939 C 0.94582 0.79655 0.55054 0.0
C2940 C 0.96866 0.80583 0.54484 0.0
C2941 C 0.97438 0.79611 0.5267 0.0
C2942 C 0.95831 0.77749 0.51464 0.0
C2943 C 0.96917 0.77013 0.49613 0.0
C2944 C 0.96483 0.74619 0.50123 0.0
C2945 C 0.961 0.7717 0.47149 0.0
C2946 C 0.99383 0.78768 0.49958 0.0
C2947 C 0.99636 0.80269 0.5171 0.0
C2948 C 0.01735 0.82093 0.52293 0.0
C2949 C 0.03638 0.82366 0.51088 0.0
C2950 C 0.03434 0.80802 0.49347 0.0
C2951 C 0.01273 0.78987 0.48769 0.0
H2952 H 0.25466 0.18353 0.50293 0.0
H2953 H 0.18921 0.12306 0.50992 0.0
H2954 H 0.17084 0.14325 0.49355 0.0
H2955 H 0.23754 0.22078 0.52151 0.0
H2956 H 0.25507 0.24341 0.50177 0.0
H2957 H 0.26351 0.22346 0.5106 0.0
H2958 H 0.26601 0.21407 0.46717 0.0
H2959 H 0.25772 0.23416 0.45818 0.0
H2960 H 0.24191 0.20531 0.44829 0.0
H2961 H 0.15921 0.17081 0.48064 0.0
H2962 H 0.15515 0.20401 0.47213 0.0
H2963 H 0.22813 0.24677 0.47366 0.0
C2964 C 0.23657 0.1744 0.50021 0.0
C2965 C 0.22334 0.15167 0.50725 0.0
C2966 C 0.19961 0.14045 0.5044 0.0
C2967 C 0.18904 0.15174 0.49505 0.0
C2968 C 0.20245 0.17429 0.48871 0.0
C2969 C 0.22571 0.18551 0.49105 0.0
C2970 C 0.23595 0.21028 0.48495 0.0
C2971 C 0.24876 0.22536 0.50596 0.0
C2972 C 0.2513 0.21631 0.46336 0.0
C2973 C 0.21479 0.21131 0.4795 0.0
C2974 C 0.19567 0.19033 0.48149 0.0
C2975 C 0.17407 0.18729 0.47868 0.0
C2976 C 0.17193 0.20627 0.47392 0.0
C2977 C 0.19129 0.22801 0.47212 0.0
C2978 C 0.21297 0.23038 0.47464 0.0
H2979 H 0.75401 0.98648 0.492 0.0
H2980 H 0.79701 0.96098 0.46708 0.0
H2981 H 0.83073 0.99648 0.47922 0.0
H2982 H 0.79075 0.04533 0.47599 0.0
H2983 H 0.78436 0.05596 0.502 0.0
H2984 H 0.76363 0.02914 0.48997 0.0
H2985 H 0.76094 0.00989 0.52986 0.0
H2986 H 0.78169 0.03661 0.54199 0.0
H2987 H 0.78622 0.01283 0.54308 0.0
H2988 H 0.85962 0.03415 0.49487 0.0
H2989 H 0.88191 0.07184 0.51293 0.0
H2990 H 0.82005 0.07162 0.53022 0.0
C2991 C 0.77054 0.98853 0.48876 0.0
C2992 C 0.77294 0.97109 0.47843 0.0
C2993 C 0.79482 0.97418 0.47493 0.0
C2994 C 0.81405 0.99426 0.48174 0.0
C2995 C 0.81109 0.01098 0.49221 0.0
C2996 C 0.78991 0.00834 0.49578 0.0
C2997 C 0.79139 0.02849 0.50842 0.0
C2998 C 0.78197 0.04044 0.49318 0.0
C2999 C 0.77935 0.02153 0.53225 0.0
C3000 C 0.81671 0.04288 0.51135 0.0
C3001 C 0.82776 0.03252 0.50176 0.0
C3002 C 0.85117 0.04249 0.50235 0.0
C3003 C 0.86367 0.06381 0.51272 0.0
C3004 C 0.85271 0.07488 0.52234 0.0
C3005 C 0.82892 0.06401 0.52208 0.0
H3006 H 0.89807 0.32046 0.29817 0.0
H3007 H 0.84052 0.27884 0.34271 0.0
H3008 H 0.84424 0.31294 0.36132 0.0
H3009 H 0.93042 0.36488 0.34066 0.0
H3010 H 0.93994 0.38749 0.31965 0.0
H3011 H 0.93397 0.35984 0.31042 0.0
H3012 H 0.90583 0.35881 0.27941 0.0
H3013 H 0.91186 0.38651 0.28842 0.0
H3014 H 0.88316 0.36338 0.28844 0.0
H3015 H 0.85361 0.35058 0.37518 0.0
H3016 H 0.86591 0.39052 0.38143 0.0
H3017 H 0.91593 0.40904 0.32629 0.0
C3018 C 0.88639 0.31861 0.31194 0.0
C3019 C 0.86905 0.29699 0.31907 0.0
C3020 C 0.85386 0.29521 0.3369 0.0
C3021 C 0.85592 0.31447 0.3477 0.0
C3022 C 0.8731 0.33548 0.34033 0.0
C3023 C 0.88792 0.33781 0.32269 0.0
C3024 C 0.90392 0.3626 0.31728 0.0
C3025 C 0.92852 0.36907 0.32231 0.0
C3026 C 0.90101 0.36815 0.29188 0.0
C3027 C 0.89564 0.3737 0.3346 0.0
C3028 C 0.87807 0.35762 0.34787 0.0
C3029 C 0.86734 0.36337 0.36489 0.0
C3030 C 0.87446 0.38619 0.36823 0.0
C3031 C 0.89205 0.40316 0.35452 0.0
C3032 C 0.90289 0.39674 0.33755 0.0
H3033 H 0.61525 0.48728 0.34759 0.0
H3034 H 0.58271 0.52697 0.35933 0.0
H3035 H 0.61675 0.56099 0.34497 0.0
H3036 H 0.67022 0.53027 0.36762 0.0
H3037 H 0.68539 0.52326 0.34659 0.0
H3038 H 0.65806 0.5018 0.35676 0.0
H3039 H 0.64384 0.4931 0.31391 0.0
H3040 H 0.6711 0.51466 0.30362 0.0
H3041 H 0.64609 0.51559 0.29555 0.0
H3042 H 0.65368 0.59032 0.32873 0.0
H3043 H 0.69285 0.61433 0.31537 0.0
H3044 H 0.70264 0.55624 0.31634 0.0
C3045 C 0.61533 0.50315 0.34704 0.0
C3046 C 0.59606 0.50439 0.35358 0.0
C3047 C 0.59692 0.52549 0.35327 0.0
C3048 C 0.61623 0.54492 0.34536 0.0
C3049 C 0.6347 0.54302 0.33833 0.0
C3050 C 0.63459 0.52278 0.33943 0.0
C3051 C 0.65709 0.52563 0.33179 0.0
C3052 C 0.66836 0.51991 0.35189 0.0
C3053 C 0.65436 0.5114 0.30992 0.0
C3054 C 0.66983 0.55064 0.32623 0.0
C3055 C 0.65648 0.56025 0.32991 0.0
C3056 C 0.66436 0.58304 0.32586 0.0
C3057 C 0.68663 0.59651 0.31818 0.0
C3058 C 0.70087 0.5872 0.31484 0.0
C3059 C 0.69221 0.56388 0.31876 0.0
H3060 H 0.44644 0.15012 0.33607 0.0
H3061 H 0.42327 0.11011 0.27266 0.0
H3062 H 0.45121 0.0977 0.2786 0.0
H3063 H 0.50673 0.16633 0.33175 0.0
H3064 H 0.50915 0.16333 0.36278 0.0
H3065 H 0.48951 0.17148 0.35189 0.0
H3066 H 0.45704 0.13786 0.37403 0.0
H3067 H 0.47649 0.12945 0.38477 0.0
H3068 H 0.45178 0.10965 0.36868 0.0
H3069 H 0.48022 0.08833 0.2922 0.0
H3070 H 0.50762 0.08149 0.31311 0.0
H3071 H 0.50987 0.12486 0.36971 0.0
C3072 C 0.44776 0.13928 0.32311 0.0
C3073 C 0.43303 0.13134 0.30368 0.0
C3074 C 0.4346 0.11652 0.28751 0.0
C3075 C 0.4504 0.10942 0.29074 0.0
C3076 C 0.46431 0.11707 0.31038 0.0
C3077 C 0.46315 0.13165 0.32633 0.0
C3078 C 0.47865 0.13572 0.347 0.0
C3079 C 0.49711 0.1607 0.34843 0.0
C3080 C 0.46518 0.12768 0.36997 0.0
C3081 C 0.48846 0.12094 0.34028 0.0
C3082 C 0.48014 0.11058 0.31896 0.0
C3083 C 0.48664 0.09612 0.30906 0.0
C3084 C 0.50195 0.09199 0.32134 0.0
C3085 C 0.51021 0.10185 0.34357 0.0
C3086 C 0.50359 0.1168 0.35292 0.0
H3087 H 0.6356 0.51275 0.86207 0.0
H3088 H 0.64164 0.57792 0.8475 0.0
H3089 H 0.68097 0.59269 0.83496 0.0
H3090 H 0.69236 0.5353 0.88518 0.0
H3091 H 0.69628 0.51332 0.87264 0.0
H3092 H 0.66837 0.50757 0.88045 0.0
H3093 H 0.65468 0.49409 0.83815 0.0
H3094 H 0.68255 0.49985 0.83019 0.0
H3095 H 0.66924 0.51264 0.81394 0.0
H3096 H 0.71861 0.59991 0.82169 0.0
H3097 H 0.75377 0.6002 0.81172 0.0
H3098 H 0.72512 0.53158 0.83746 0.0
C3099 C 0.64522 0.53013 0.85629 0.0
C3100 C 0.63546 0.54415 0.85575 0.0
C3101 C 0.6487 0.56685 0.84818 0.0
C3102 C 0.67106 0.57541 0.84093 0.0
C3103 C 0.68012 0.56117 0.84154 0.0
C3104 C 0.66777 0.53911 0.84925 0.0
C3105 C 0.68186 0.52762 0.84849 0.0
C3106 C 0.6849 0.52054 0.87316 0.0
C3107 C 0.67146 0.50735 0.83169 0.0
C3108 C 0.70394 0.54666 0.83902 0.0
C3109 C 0.70244 0.56578 0.83499 0.0
C3110 C 0.72023 0.58526 0.82535 0.0
C3111 C 0.74027 0.58537 0.82005 0.0
C3112 C 0.74262 0.56634 0.82494 0.0
C3113 C 0.724 0.54659 0.83412 0.0
H3114 H 0.41914 0.15729 0.83928 0.0
H3115 H 0.46968 0.18897 0.78455 0.0
H3116 H 0.48436 0.16374 0.79377 0.0
H3117 H 0.45248 0.14825 0.87982 0.0
H3118 H 0.4307 0.1207 0.8892 0.0
H3119 H 0.42322 0.14083 0.87833 0.0
H3120 H 0.39721 0.11217 0.84712 0.0
H3121 H 0.40432 0.09181 0.85813 0.0
H3122 H 0.40851 0.09956 0.82763 0.0
H3123 H 0.49592 0.13813 0.81046 0.0
H3124 H 0.50062 0.1089 0.83024 0.0
H3125 H 0.44066 0.09023 0.87192 0.0
C3126 C 0.43277 0.15856 0.82866 0.0
C3127 C 0.44307 0.17524 0.811 0.0
C3128 C 0.46149 0.17654 0.79826 0.0
C3129 C 0.47001 0.16224 0.80332 0.0
C3130 C 0.45977 0.14637 0.82099 0.0
C3131 C 0.44129 0.144 0.83317 0.0
C3132 C 0.4335 0.12518 0.85118 0.0
C3133 C 0.43508 0.1343 0.87611 0.0
C3134 C 0.40946 0.10604 0.84568 0.0
C3135 C 0.45077 0.11769 0.84732 0.0
C3136 C 0.46588 0.13047 0.82999 0.0
C3137 C 0.48404 0.12776 0.82385 0.0
C3138 C 0.48666 0.11121 0.83536 0.0
C3139 C 0.471 0.09724 0.85262 0.0
C3140 C 0.45281 0.10058 0.85871 0.0
H3141 H 0.82344 0.27314 0.81613 0.0
H3142 H 0.83237 0.23618 0.873 0.0
H3143 H 0.86126 0.27201 0.89033 0.0
H3144 H 0.88046 0.31643 0.81038 0.0
H3145 H 0.87387 0.33847 0.80494 0.0
H3146 H 0.85396 0.30978 0.797 0.0
H3147 H 0.82322 0.31148 0.82198 0.0
H3148 H 0.84309 0.34016 0.83011 0.0
H3149 H 0.82863 0.31915 0.85244 0.0
H3150 H 0.89099 0.31203 0.90018 0.0
H3151 H 0.91799 0.35304 0.90253 0.0
H3152 H 0.88716 0.36404 0.84137 0.0
C3153 C 0.83139 0.27249 0.83227 0.0
C3154 C 0.8261 0.25161 0.84264 0.0
C3155 C 0.83677 0.25169 0.86394 0.0
C3156 C 0.853 0.27208 0.8742 0.0
C3157 C 0.85801 0.29229 0.86327 0.0
C3158 C 0.84734 0.29265 0.84291 0.0
C3159 C 0.85569 0.31661 0.83466 0.0
C3160 C 0.86665 0.32054 0.81031 0.0
C3161 C 0.83651 0.32217 0.83482 0.0
C3162 C 0.87306 0.32971 0.85336 0.0
C3163 C 0.87418 0.31536 0.86968 0.0
C3164 C 0.89001 0.32344 0.88772 0.0
C3165 C 0.90527 0.34673 0.88891 0.0
C3166 C 0.90441 0.36171 0.87236 0.0
C3167 C 0.88783 0.35305 0.8546 0.0
H3168 H 0.41804 0.26034 0.33168 0.0
H3169 H 0.48432 0.26673 0.32778 0.0
H3170 H 0.50157 0.30583 0.34257 0.0
H3171 H 0.43437 0.31486 0.31206 0.0
H3172 H 0.41582 0.3191 0.33114 0.0
H3173 H 0.40846 0.291 0.32227 0.0
H3174 H 0.40505 0.27882 0.36572 0.0
H3175 H 0.41229 0.3069 0.37473 0.0
H3176 H 0.4285 0.29449 0.38527 0.0
H3177 H 0.51183 0.34491 0.35514 0.0
H3178 H 0.5144 0.38138 0.36444 0.0
H3179 H 0.44132 0.34933 0.36081 0.0
C3180 C 0.43609 0.26973 0.33468 0.0
C3181 C 0.44983 0.26037 0.32915 0.0
C3182 C 0.4735 0.27356 0.33218 0.0
C3183 C 0.48343 0.29572 0.34063 0.0
C3184 C 0.46945 0.30449 0.3459 0.0
C3185 C 0.44628 0.29191 0.34311 0.0
C3186 C 0.43523 0.3058 0.34873 0.0
C3187 C 0.42274 0.30781 0.32727 0.0
C3188 C 0.41933 0.29591 0.36987 0.0
C3189 C 0.45584 0.32824 0.3547 0.0
C3190 C 0.47539 0.3271 0.35309 0.0
C3191 C 0.49662 0.34597 0.35672 0.0
C3192 C 0.49791 0.36663 0.36195 0.0
C3193 C 0.47808 0.36825 0.36349 0.0
C3194 C 0.4568 0.34866 0.36005 0.0
H3195 H 0.7451 0.16045 0.33459 0.0
H3196 H 0.72757 0.20216 0.29186 0.0
H3197 H 0.68813 0.17922 0.30415 0.0
H3198 H 0.69449 0.10754 0.31998 0.0
H3199 H 0.69221 0.09567 0.3487 0.0
H3200 H 0.71951 0.1159 0.33725 0.0
H3201 H 0.72681 0.14089 0.3739 0.0
H3202 H 0.6994 0.1209 0.38531 0.0
H3203 H 0.70703 0.15002 0.38143 0.0
H3204 H 0.65095 0.15305 0.32168 0.0
H3205 H 0.61697 0.12202 0.33974 0.0
H3206 H 0.65723 0.09473 0.36845 0.0
C3207 C 0.73315 0.1646 0.32717 0.0
C3208 C 0.73987 0.18325 0.31189 0.0
C3209 C 0.72318 0.18813 0.3036 0.0
C3210 C 0.7006 0.17518 0.31048 0.0
C3211 C 0.69468 0.1571 0.32551 0.0
C3212 C 0.71031 0.1515 0.33347 0.0
C3213 C 0.6991 0.13058 0.34885 0.0
C3214 C 0.70147 0.11128 0.33805 0.0
C3215 C 0.70866 0.13593 0.37385 0.0
C3216 C 0.67477 0.12543 0.34825 0.0
C3217 C 0.67278 0.14121 0.33495 0.0
C3218 C 0.65222 0.14046 0.33201 0.0
C3219 C 0.63301 0.12279 0.34248 0.0
C3220 C 0.63434 0.10583 0.3555 0.0
C3221 C 0.65562 0.10737 0.35858 0.0
H3222 H 0.83415 0.58316 0.34163 0.0
H3223 H 0.79116 0.52599 0.29717 0.0
H3224 H 0.81495 0.50931 0.30551 0.0
H3225 H 0.88684 0.58712 0.3231 0.0
H3226 H 0.89948 0.59509 0.35173 0.0
H3227 H 0.87868 0.6024 0.34276 0.0
H3228 H 0.85479 0.58224 0.37943 0.0
H3229 H 0.87538 0.57463 0.38837 0.0
H3230 H 0.84627 0.55304 0.38465 0.0
H3231 H 0.84269 0.49825 0.31896 0.0
H3232 H 0.87451 0.49488 0.33437 0.0
H3233 H 0.90119 0.56021 0.36815 0.0
C3234 C 0.82993 0.56748 0.33308 0.0
C3235 C 0.81077 0.55618 0.31837 0.0
C3236 C 0.80565 0.5351 0.30851 0.0
C3237 C 0.81909 0.52542 0.31311 0.0
C3238 C 0.83778 0.53701 0.32757 0.0
C3239 C 0.8434 0.55767 0.33723 0.0
C3240 C 0.86474 0.56673 0.35182 0.0
C3241 C 0.88355 0.58916 0.34174 0.0
C3242 C 0.86 0.56931 0.3776 0.0
C3243 C 0.87019 0.54792 0.34876 0.0
C3244 C 0.85424 0.53085 0.3349 0.0
C3245 C 0.85537 0.51155 0.32975 0.0
C3246 C 0.8735 0.50976 0.33868 0.0
C3247 C 0.89045 0.52729 0.35244 0.0
C3248 C 0.88858 0.54654 0.35765 0.0
H3249 H 0.61749 0.12237 0.87091 0.0
H3250 H 0.57753 0.08571 0.81051 0.0
H3251 H 0.61222 0.09455 0.78911 0.0
H3252 H 0.66485 0.16722 0.8374 0.0
H3253 H 0.68585 0.16884 0.85761 0.0
H3254 H 0.65791 0.16081 0.86792 0.0
H3255 H 0.65379 0.12388 0.8852 0.0
H3256 H 0.68172 0.13187 0.8751 0.0
H3257 H 0.65805 0.10512 0.86649 0.0
H3258 H 0.65041 0.10429 0.77551 0.0
H3259 H 0.6902 0.1144 0.77048 0.0
H3260 H 0.70634 0.14669 0.83857 0.0
C3261 C 0.61613 0.11638 0.85312 0.0
C3262 C 0.59481 0.10278 0.8426 0.0
C3263 C 0.59361 0.09536 0.81926 0.0
C3264 C 0.61326 0.10061 0.80681 0.0
C3265 C 0.63399 0.11364 0.81781 0.0
C3266 C 0.63564 0.12155 0.84038 0.0
C3267 C 0.66003 0.13437 0.84841 0.0
C3268 C 0.6676 0.15929 0.85311 0.0
C3269 C 0.6636 0.12313 0.87008 0.0
C3270 C 0.67174 0.13187 0.82705 0.0
C3271 C 0.65635 0.12 0.80955 0.0
C3272 C 0.6627 0.11395 0.78887 0.0
C3273 C 0.68529 0.11973 0.78618 0.0
C3274 C 0.70129 0.13157 0.80399 0.0
C3275 C 0.69452 0.13818 0.82444 0.0
H3276 H 0.84921 0.54632 0.8245 0.0
H3277 H 0.90027 0.58341 0.77182 0.0
H3278 H 0.91441 0.55669 0.77593 0.0
H3279 H 0.88476 0.53623 0.86161 0.0
H3280 H 0.86311 0.50844 0.87053 0.0
H3281 H 0.85559 0.52917 0.862 0.0
H3282 H 0.82807 0.5017 0.83081 0.0
H3283 H 0.83542 0.48082 0.83933 0.0
H3284 H 0.83836 0.4898 0.80925 0.0
H3285 H 0.92332 0.52627 0.78608 0.0
H3286 H 0.92752 0.49543 0.80276 0.0
H3287 H 0.87262 0.47978 0.85107 0.0
C3288 C 0.86309 0.54855 0.81353 0.0
C3289 C 0.87351 0.5668 0.79766 0.0
C3290 C 0.892 0.5695 0.78403 0.0
C3291 C 0.90012 0.55439 0.7862 0.0
C3292 C 0.88971 0.53679 0.80225 0.0
C3293 C 0.87167 0.53383 0.81576 0.0
C3294 C 0.86446 0.51437 0.83273 0.0
C3295 C 0.86715 0.52255 0.85822 0.0
C3296 C 0.84013 0.49556 0.82772 0.0
C3297 C 0.88134 0.50694 0.82672 0.0
C3298 C 0.8956 0.51995 0.80894 0.0
C3299 C 0.91246 0.51618 0.80026 0.0
C3300 C 0.91496 0.49878 0.81015 0.0
C3301 C 0.901 0.48564 0.8289 0.0
C3302 C 0.88377 0.48967 0.83696 0.0
H3303 H 0.42682 0.31872 0.82151 0.0
H3304 H 0.46617 0.285 0.81574 0.0
H3305 H 0.5005 0.32036 0.82688 0.0
H3306 H 0.46959 0.37319 0.79914 0.0
H3307 H 0.46247 0.38891 0.81932 0.0
H3308 H 0.4411 0.36121 0.80991 0.0
H3309 H 0.43241 0.34819 0.85313 0.0
H3310 H 0.45371 0.37584 0.86267 0.0
H3311 H 0.45498 0.35129 0.87192 0.0
H3312 H 0.53035 0.35901 0.8398 0.0
H3313 H 0.55365 0.39842 0.85344 0.0
H3314 H 0.49465 0.40648 0.85198 0.0
C3315 C 0.44268 0.31879 0.82236 0.0
C3316 C 0.44378 0.29906 0.81767 0.0
C3317 C 0.46487 0.29987 0.81925 0.0
C3318 C 0.48448 0.31989 0.82553 0.0
C3319 C 0.48275 0.33895 0.83023 0.0
C3320 C 0.4624 0.33859 0.82874 0.0
C3321 C 0.46502 0.36121 0.83543 0.0
C3322 C 0.4592 0.37175 0.81471 0.0
C3323 C 0.45068 0.35899 0.85707 0.0
C3324 C 0.49001 0.37433 0.84097 0.0
C3325 C 0.49994 0.36121 0.83777 0.0
C3326 C 0.5228 0.3695 0.84219 0.0
C3327 C 0.53586 0.39185 0.84998 0.0
C3328 C 0.52607 0.40565 0.85315 0.0
C3329 C 0.50278 0.39661 0.84884 0.0
H3330 H 0.51732 0.62972 0.66897 0.0
H3331 H 0.57335 0.64224 0.6237 0.0
H3332 H 0.59119 0.68311 0.63167 0.0
H3333 H 0.51527 0.68049 0.65507 0.0
H3334 H 0.50927 0.68475 0.68474 0.0
H3335 H 0.50021 0.65664 0.67431 0.0
H3336 H 0.52154 0.65062 0.70852 0.0
H3337 H 0.5308 0.67876 0.71895 0.0
H3338 H 0.55123 0.67021 0.71249 0.0
H3339 H 0.60233 0.72248 0.64362 0.0
H3340 H 0.6073 0.75758 0.6602 0.0
H3341 H 0.54621 0.71951 0.70134 0.0
C3342 C 0.53318 0.64114 0.66051 0.0
C3343 C 0.54388 0.63293 0.64553 0.0
C3344 C 0.56487 0.64826 0.63517 0.0
C3345 C 0.57511 0.67147 0.63957 0.0
C3346 C 0.5643 0.67902 0.65466 0.0
C3347 C 0.5439 0.66435 0.66511 0.0
C3348 C 0.53647 0.67682 0.68152 0.0
C3349 C 0.51397 0.67454 0.67341 0.0
C3350 C 0.53493 0.66861 0.70687 0.0
C3351 C 0.55584 0.70077 0.67852 0.0
C3352 C 0.57157 0.70165 0.66281 0.0
C3353 C 0.59042 0.72197 0.65642 0.0
C3354 C 0.59333 0.74196 0.66639 0.0
C3355 C 0.57779 0.74155 0.6831 0.0
C3356 C 0.55873 0.72053 0.68904 0.0
H3357 H 0.35101 0.90893 0.65188 0.0
H3358 H 0.38159 0.8673 0.64042 0.0
H3359 H 0.34565 0.8334 0.65106 0.0
H3360 H 0.31963 0.87976 0.70207 0.0
H3361 H 0.29543 0.88252 0.69505 0.0
H3362 H 0.32301 0.90336 0.68486 0.0
H3363 H 0.30825 0.89669 0.64219 0.0
H3364 H 0.28058 0.87583 0.65225 0.0
H3365 H 0.29471 0.86853 0.63023 0.0
H3366 H 0.30708 0.80429 0.66478 0.0
H3367 H 0.26821 0.78187 0.68018 0.0
H3368 H 0.26318 0.84253 0.68402 0.0
C3369 C 0.35007 0.89265 0.65125 0.0
C3370 C 0.36912 0.89078 0.64518 0.0
C3371 C 0.36724 0.86918 0.64497 0.0
C3372 C 0.34688 0.84981 0.65096 0.0
C3373 C 0.32855 0.8523 0.65718 0.0
C3374 C 0.32992 0.87315 0.65735 0.0
C3375 C 0.30803 0.8713 0.66575 0.0
C3376 C 0.31176 0.88505 0.68827 0.0
C3377 C 0.29726 0.87851 0.64645 0.0
C3378 C 0.29421 0.84617 0.67042 0.0
C3379 C 0.30633 0.83551 0.66525 0.0
C3380 C 0.29734 0.81241 0.66868 0.0
C3381 C 0.27532 0.79985 0.67749 0.0
C3382 C 0.26252 0.81038 0.68267 0.0
C3383 C 0.27225 0.83389 0.67934 0.0
H3384 H 0.09808 0.44422 0.62665 0.0
H3385 H 0.11753 0.50594 0.66541 0.0
H3386 H 0.1472 0.50199 0.68544 0.0
H3387 H 0.10524 0.41395 0.67195 0.0
H3388 H 0.1172 0.40075 0.65423 0.0
H3389 H 0.09835 0.40894 0.64128 0.0
H3390 H 0.12863 0.43314 0.61042 0.0
H3391 H 0.14742 0.42466 0.62298 0.0
H3392 H 0.15644 0.45422 0.61995 0.0
H3393 H 0.17138 0.48923 0.70463 0.0
H3394 H 0.1929 0.47156 0.71804 0.0
H3395 H 0.16056 0.41983 0.66449 0.0
C3396 C 0.10888 0.45715 0.639 0.0
C3397 C 0.10537 0.47536 0.64448 0.0
C3398 C 0.11986 0.49187 0.66081 0.0
C3399 C 0.13673 0.48974 0.6724 0.0
C3400 C 0.13921 0.47122 0.6672 0.0
C3401 C 0.1261 0.45549 0.65052 0.0
C3402 C 0.13233 0.43714 0.64846 0.0
C3403 C 0.11207 0.41382 0.65433 0.0
C3404 C 0.14177 0.43731 0.624 0.0
C3405 C 0.15055 0.44476 0.66704 0.0
C3406 C 0.15405 0.46435 0.6777 0.0
C3407 C 0.1691 0.47409 0.69613 0.0
C3408 C 0.18124 0.46378 0.70364 0.0
C3409 C 0.17861 0.44398 0.69263 0.0
C3410 C 0.16296 0.43447 0.67396 0.0
H3411 H 0.28905 0.83797 0.18346 0.0
H3412 H 0.3047 0.8996 0.22042 0.0
H3413 H 0.34504 0.91478 0.21272 0.0
H3414 H 0.34082 0.83675 0.20254 0.0
H3415 H 0.34397 0.82637 0.17463 0.0
H3416 H 0.31625 0.81901 0.18511 0.0
H3417 H 0.30904 0.83485 0.14694 0.0
H3418 H 0.3368 0.84252 0.13647 0.0
H3419 H 0.32843 0.86362 0.13852 0.0
H3420 H 0.3823 0.92576 0.1966 0.0
H3421 H 0.4161 0.9304 0.17668 0.0
H3422 H 0.37844 0.86122 0.15192 0.0
C3423 C 0.30105 0.85438 0.19045 0.0
C3424 C 0.29367 0.8676 0.20252 0.0
C3425 C 0.30988 0.88918 0.21104 0.0
C3426 C 0.33288 0.89799 0.20679 0.0
C3427 C 0.33955 0.88497 0.19415 0.0
C3428 C 0.32429 0.8635 0.18638 0.0
C3429 C 0.33619 0.85371 0.17224 0.0
C3430 C 0.33419 0.83271 0.18436 0.0
C3431 C 0.32707 0.84837 0.14705 0.0
C3432 C 0.36033 0.87328 0.17285 0.0
C3433 C 0.36173 0.89108 0.18561 0.0
C3434 C 0.38167 0.91167 0.18731 0.0
C3435 C 0.4009 0.91405 0.17611 0.0
C3436 C 0.40031 0.89579 0.16382 0.0
C3437 C 0.37958 0.87525 0.16182 0.0
H3438 H 0.07171 0.48087 0.15102 0.0
H3439 H 0.13674 0.54246 0.15298 0.0
H3440 H 0.15389 0.5216 0.17056 0.0
H3441 H 0.0784 0.45659 0.20633 0.0
H3442 H 0.06447 0.4282 0.19497 0.0
H3443 H 0.05679 0.44827 0.1843 0.0
H3444 H 0.06503 0.4412 0.14186 0.0
H3445 H 0.07279 0.42119 0.15238 0.0
H3446 H 0.09236 0.44484 0.13482 0.0
H3447 H 0.16454 0.4942 0.18537 0.0
H3448 H 0.16847 0.46148 0.19609 0.0
H3449 H 0.09655 0.41703 0.18513 0.0
C3450 C 0.08941 0.49 0.15576 0.0
C3451 C 0.10288 0.51334 0.15111 0.0
C3452 C 0.12616 0.52461 0.15661 0.0
C3453 C 0.13601 0.51294 0.16667 0.0
C3454 C 0.12235 0.48995 0.17103 0.0
C3455 C 0.09956 0.47853 0.16579 0.0
C3456 C 0.0891 0.45351 0.17101 0.0
C3457 C 0.07113 0.44622 0.1903 0.0
C3458 C 0.07925 0.43936 0.14868 0.0
C3459 C 0.10967 0.45265 0.17956 0.0
C3460 C 0.12859 0.47393 0.17957 0.0
C3461 C 0.14982 0.47746 0.18566 0.0
C3462 C 0.15188 0.45873 0.19166 0.0
C3463 C 0.13282 0.43667 0.19153 0.0
C3464 C 0.11138 0.43369 0.1857 0.0
H3465 H 0.58811 0.68488 0.19009 0.0
H3466 H 0.54384 0.70751 0.21828 0.0
H3467 H 0.51077 0.67062 0.20891 0.0
H3468 H 0.55533 0.65737 0.14218 0.0
H3469 H 0.56047 0.63397 0.14214 0.0
H3470 H 0.58109 0.66062 0.15444 0.0
H3471 H 0.57965 0.6411 0.19377 0.0
H3472 H 0.55919 0.61427 0.1815 0.0
H3473 H 0.55289 0.62409 0.20816 0.0
H3474 H 0.48261 0.63414 0.19156 0.0
H3475 H 0.46079 0.5986 0.16945 0.0
H3476 H 0.52266 0.59876 0.15264 0.0
C3477 C 0.57151 0.68176 0.19502 0.0
C3478 C 0.56855 0.69901 0.20505 0.0
C3479 C 0.5465 0.69452 0.21065 0.0
C3480 C 0.52761 0.67361 0.20543 0.0
C3481 C 0.53101 0.65728 0.19472 0.0
C3482 C 0.55238 0.66094 0.18981 0.0
C3483 C 0.55115 0.6412 0.17642 0.0
C3484 C 0.56269 0.64875 0.15238 0.0
C3485 C 0.56132 0.62947 0.19083 0.0
C3486 C 0.5258 0.62628 0.17395 0.0
C3487 C 0.51454 0.63586 0.18479 0.0
C3488 C 0.49117 0.62621 0.18343 0.0
C3489 C 0.47895 0.60616 0.17075 0.0
C3490 C 0.4901 0.59595 0.15975 0.0
C3491 C 0.51379 0.60606 0.16143 0.0
H3492 H 0.14895 0.70244 0.67179 0.0
H3493 H 0.09848 0.69007 0.72458 0.0
H3494 H 0.08195 0.64895 0.71922 0.0
H3495 H 0.11157 0.65925 0.63353 0.0
H3496 H 0.13183 0.65145 0.62387 0.0
H3497 H 0.14127 0.67986 0.6335 0.0
H3498 H 0.16752 0.6767 0.66414 0.0
H3499 H 0.15833 0.64835 0.65442 0.0
H3500 H 0.15583 0.65371 0.68484 0.0
H3501 H 0.07061 0.60923 0.70769 0.0
H3502 H 0.06456 0.57386 0.69011 0.0
H3503 H 0.12016 0.61222 0.64215 0.0
C3504 C 0.13475 0.69103 0.68256 0.0
C3505 C 0.12513 0.69932 0.6988 0.0
C3506 C 0.10614 0.68396 0.71213 0.0
C3507 C 0.09665 0.66062 0.70923 0.0
C3508 C 0.1062 0.65293 0.6927 0.0
C3509 C 0.12477 0.66765 0.67954 0.0
C3510 C 0.13079 0.65502 0.66187 0.0
C3511 C 0.12873 0.6618 0.63671 0.0
C3512 C 0.15452 0.65866 0.66661 0.0
C3513 C 0.11268 0.63097 0.66714 0.0
C3514 C 0.0988 0.6301 0.68511 0.0
C3515 C 0.08114 0.60969 0.69333 0.0
C3516 C 0.07757 0.5896 0.68288 0.0
C3517 C 0.09129 0.59008 0.66406 0.0
C3518 C 0.10912 0.61116 0.65629 0.0
H3519 H 0.32009 0.42996 0.70087 0.0
H3520 H 0.27891 0.45583 0.6714 0.0
H3521 H 0.31303 0.48836 0.65511 0.0
H3522 H 0.36763 0.4853 0.71682 0.0
H3523 H 0.38843 0.47732 0.70996 0.0
H3524 H 0.36074 0.4563 0.71978 0.0
H3525 H 0.356 0.43269 0.68256 0.0
H3526 H 0.38352 0.45381 0.67246 0.0
H3527 H 0.35912 0.4454 0.65415 0.0
H3528 H 0.35097 0.51652 0.63973 0.0
H3529 H 0.39098 0.54086 0.6295 0.0
H3530 H 0.408 0.49851 0.67165 0.0
C3531 C 0.31829 0.44258 0.69118 0.0
C3532 C 0.29681 0.4403 0.68736 0.0
C3533 C 0.29517 0.45724 0.67466 0.0
C3534 C 0.31444 0.47573 0.66522 0.0
C3535 C 0.33528 0.47724 0.66892 0.0
C3536 C 0.33741 0.46138 0.68193 0.0
C3537 C 0.36189 0.46727 0.68353 0.0
C3538 C 0.37016 0.47182 0.70904 0.0
C3539 C 0.36532 0.44868 0.67252 0.0
C3540 C 0.37308 0.48869 0.66904 0.0
C3541 C 0.35737 0.49401 0.66066 0.0
C3542 C 0.36348 0.51265 0.64636 0.0
C3543 C 0.38631 0.52638 0.64066 0.0
C3544 C 0.40292 0.52158 0.64934 0.0
C3545 C 0.39604 0.50247 0.66388 0.0
H3546 H 0.58508 0.89844 0.68915 0.0
H3547 H 0.54467 0.82579 0.69841 0.0
H3548 H 0.51054 0.82713 0.68734 0.0
H3549 H 0.54221 0.91206 0.71027 0.0
H3550 H 0.54985 0.93405 0.68882 0.0
H3551 H 0.57086 0.92779 0.69973 0.0
H3552 H 0.57993 0.92157 0.65729 0.0
H3553 H 0.55891 0.92767 0.64626 0.0
H3554 H 0.55749 0.90138 0.63888 0.0
H3555 H 0.48151 0.8356 0.6719 0.0
H3556 H 0.45902 0.85113 0.65452 0.0
H3557 H 0.51806 0.91813 0.65498 0.0
C3558 C 0.56899 0.88287 0.68933 0.0
C3559 C 0.56757 0.86202 0.69472 0.0
C3560 C 0.54622 0.84198 0.69437 0.0
C3561 C 0.52671 0.84255 0.68814 0.0
C3562 C 0.52879 0.86329 0.6824 0.0
C3563 C 0.54933 0.88312 0.68308 0.0
C3564 C 0.54708 0.90297 0.67481 0.0
C3565 C 0.55284 0.92023 0.69459 0.0
C3566 C 0.56172 0.91404 0.65302 0.0
C3567 C 0.52216 0.89109 0.66893 0.0
C3568 C 0.51191 0.86823 0.67357 0.0
C3569 C 0.48924 0.85353 0.66853 0.0
C3570 C 0.47666 0.86245 0.65858 0.0
C3571 C 0.48674 0.88584 0.65394 0.0
C3572 C 0.5098 0.9003 0.65908 0.0
H3573 H 0.26037 0.41913 0.17591 0.0
H3574 H 0.26771 0.48585 0.1785 0.0
H3575 H 0.30673 0.5024 0.16363 0.0
H3576 H 0.31507 0.43518 0.19539 0.0
H3577 H 0.31881 0.41611 0.17666 0.0
H3578 H 0.29089 0.40927 0.18571 0.0
H3579 H 0.27835 0.40522 0.14235 0.0
H3580 H 0.30624 0.41196 0.13316 0.0
H3581 H 0.29405 0.42826 0.12234 0.0
H3582 H 0.34559 0.51196 0.15077 0.0
H3583 H 0.38172 0.51387 0.1412 0.0
H3584 H 0.34894 0.44083 0.14634 0.0
C3585 C 0.26996 0.43712 0.17265 0.0
C3586 C 0.26086 0.45117 0.17782 0.0
C3587 C 0.27431 0.47478 0.17441 0.0
C3588 C 0.29645 0.48432 0.16591 0.0
C3589 C 0.30494 0.47004 0.16096 0.0
C3590 C 0.29212 0.44694 0.16416 0.0
C3591 C 0.30572 0.43553 0.15872 0.0
C3592 C 0.30774 0.42331 0.18041 0.0
C3593 C 0.29548 0.41928 0.1379 0.0
C3594 C 0.32826 0.45585 0.15233 0.0
C3595 C 0.32741 0.47558 0.15361 0.0
C3596 C 0.34641 0.4966 0.14948 0.0
C3597 C 0.36688 0.49752 0.14409 0.0
C3598 C 0.36822 0.47752 0.14289 0.0
C3599 C 0.3485 0.45643 0.14683 0.0
H3600 H 0.58258 0.84403 0.18565 0.0
H3601 H 0.51715 0.78291 0.18457 0.0
H3602 H 0.50003 0.80431 0.16806 0.0
H3603 H 0.56324 0.88086 0.20269 0.0
H3604 H 0.58282 0.90419 0.18479 0.0
H3605 H 0.59018 0.88382 0.19508 0.0
H3606 H 0.59736 0.87619 0.15241 0.0
H3607 H 0.59006 0.89661 0.142 0.0
H3608 H 0.57541 0.86816 0.13084 0.0
H3609 H 0.48972 0.83258 0.15375 0.0
H3610 H 0.48674 0.86598 0.14314 0.0
H3611 H 0.55914 0.90864 0.15246 0.0
C3612 C 0.5648 0.83506 0.18126 0.0
C3613 C 0.55125 0.81172 0.18578 0.0
C3614 C 0.52782 0.80075 0.18097 0.0
C3615 C 0.51799 0.81273 0.17152 0.0
C3616 C 0.53182 0.83569 0.16707 0.0
C3617 C 0.55472 0.84677 0.17175 0.0
C3618 C 0.56557 0.87175 0.16641 0.0
C3619 C 0.57606 0.88599 0.18856 0.0
C3620 C 0.58314 0.87857 0.14674 0.0
C3621 C 0.54513 0.87303 0.15833 0.0
C3622 C 0.52586 0.85203 0.15875 0.0
C3623 C 0.50473 0.84909 0.15312 0.0
C3624 C 0.50321 0.86818 0.14715 0.0
C3625 C 0.52271 0.88993 0.14682 0.0
C3626 C 0.54396 0.89224 0.15221 0.0
H3627 H 0.0811 0.6504 0.14222 0.0
H3628 H 0.12151 0.61795 0.13493 0.0
H3629 H 0.15543 0.65336 0.14667 0.0
H3630 H 0.12476 0.70713 0.12204 0.0
H3631 H 0.11645 0.72125 0.14305 0.0
H3632 H 0.09578 0.69414 0.13154 0.0
H3633 H 0.08532 0.67838 0.17373 0.0
H3634 H 0.106 0.70534 0.18536 0.0
H3635 H 0.10712 0.68034 0.19299 0.0
H3636 H 0.18412 0.69086 0.16298 0.0
H3637 H 0.20599 0.72859 0.18112 0.0
H3638 H 0.14703 0.73661 0.17818 0.0
C3639 C 0.09717 0.65086 0.14253 0.0
C3640 C 0.09862 0.63137 0.13752 0.0
C3641 C 0.11994 0.63264 0.1386 0.0
C3642 C 0.13933 0.6527 0.14524 0.0
C3643 C 0.13718 0.67139 0.15066 0.0
C3644 C 0.11669 0.67073 0.1492 0.0
C3645 C 0.11872 0.69276 0.15739 0.0
C3646 C 0.11363 0.70452 0.1373 0.0
C3647 C 0.10338 0.68897 0.17863 0.0
C3648 C 0.14344 0.70572 0.16414 0.0
C3649 C 0.15381 0.69313 0.15998 0.0
C3650 C 0.17629 0.70102 0.16595 0.0
C3651 C 0.18853 0.72239 0.17632 0.0
C3652 C 0.17832 0.73566 0.18049 0.0
C3653 C 0.15545 0.72713 0.17441 0.0
loop_
_geom_bond_atom_site_label_1
_geom_bond_atom_site_label_2
_geom_bond_distance
_geom_bond_site_symmetry_2
_ccdc_geom_bond_type
Co0 O3 1.970 . S
Co0 N17 1.989 . S
Co0 O25 1.967 . S
Co0 O32 1.920 . S
Co1 O4 1.966 . S
Co1 N10 2.022 . S
Co1 N18 1.993 . S
Co1 O26 1.941 . S
C2 O3 1.258 1_556 S
C2 O4 1.263 1_556 S
O3 Co0 1.970 . S
O3 C2 1.258 1_554 S
O4 Co1 1.966 . S
O4 C2 1.263 1_554 S
C5 O6 1.235 . S
C5 O32 1.289 . S
O6 C5 1.235 . S
C7 C9 1.400 . S
C7 N10 1.351 . S
C7 C12 1.501 1_554 S
C8 C9 1.387 . S
C8 N11 1.341 . S
C9 C7 1.400 . S
C9 C8 1.387 . S
N10 Co1 2.022 . S
N10 C7 1.351 . S
N10 N11 1.365 . S
N11 C8 1.341 . S
N11 N10 1.365 . S
N11 H31 0.862 . S
C12 C7 1.501 1_556 S
C12 H13 0.961 . S
C12 H14 0.973 . S
C12 H15 0.960 . S
H13 C12 0.961 . S
H14 C12 0.973 . S
H15 C12 0.960 . S
C16 N17 1.342 . S
C16 C20 1.401 . S
C16 C21 1.499 . S
N17 Co0 1.989 . S
N17 C16 1.342 . S
N17 N18 1.388 . S
N18 Co1 1.993 . S
N18 N17 1.388 . S
N18 C19 1.346 . S
C19 N18 1.346 . S
C19 C20 1.396 . S
C19 C29 1.510 . S
C20 C16 1.401 . S
C20 C19 1.396 . S
C21 C16 1.499 . S
C21 H22 0.959 . S
C21 H23 0.960 . S
C21 H24 0.961 . S
H22 C21 0.959 . S
H23 C21 0.960 . S
H24 C21 0.961 . S
O25 Co0 1.967 . S
O25 C33 1.258 . S
O26 Co1 1.941 . S
O26 C33 1.266 . S
H27 C29 0.959 . S
H28 C29 0.961 . S
C29 C19 1.510 . S
C29 H27 0.959 . S
C29 H28 0.961 . S
C29 H30 0.960 . S
H30 C29 0.960 . S
H31 N11 0.862 . S
O32 Co0 1.920 . S
O32 C5 1.289 . S
C33 O25 1.258 . S
C33 O26 1.266 . S
Co34 O37 1.970 . S
Co34 N51 1.989 . S
Co34 O59 1.967 . S
Co34 O66 1.920 . S
Co35 O38 1.966 . S
Co35 N44 2.022 . S
Co35 N52 1.993 . S
Co35 O60 1.941 . S
C36 O37 1.258 1_556 S
C36 O38 1.263 1_556 S
O37 Co34 1.970 . S
O37 C36 1.258 1_554 S
O38 Co35 1.966 . S
O38 C36 1.263 1_554 S
C39 O40 1.235 . S
C39 O66 1.289 . S
O40 C39 1.235 . S
C41 C43 1.400 . S
C41 N44 1.351 . S
C41 C46 1.501 1_554 S
C42 C43 1.387 . S
C42 N45 1.341 . S
C43 C41 1.400 . S
C43 C42 1.387 . S
N44 Co35 2.022 . S
N44 C41 1.351 . S
N44 N45 1.365 . S
N45 C42 1.341 . S
N45 N44 1.365 . S
N45 H65 0.862 . S
C46 C41 1.501 1_556 S
C46 H47 0.961 . S
C46 H48 0.973 . S
C46 H49 0.960 . S
H47 C46 0.961 . S
H48 C46 0.973 . S
H49 C46 0.960 . S
C50 N51 1.342 . S
C50 C54 1.401 . S
C50 C55 1.499 . S
N51 Co34 1.989 . S
N51 C50 1.342 . S
N51 N52 1.388 . S
N52 Co35 1.993 . S
N52 N51 1.388 . S
N52 C53 1.346 . S
C53 N52 1.346 . S
C53 C54 1.396 . S
C53 C63 1.510 . S
C54 C50 1.401 . S
C54 C53 1.396 . S
C55 C50 1.499 . S
C55 H56 0.959 . S
C55 H57 0.960 . S
C55 H58 0.961 . S
H56 C55 0.959 . S
H57 C55 0.960 . S
H58 C55 0.961 . S
O59 Co34 1.967 . S
O59 C67 1.258 . S
O60 Co35 1.941 . S
O60 C67 1.266 . S
H61 C63 0.959 . S
H62 C63 0.961 . S
C63 C53 1.510 . S
C63 H61 0.959 . S
C63 H62 0.961 . S
C63 H64 0.960 . S
H64 C63 0.960 . S
H65 N45 0.862 . S
O66 Co34 1.920 . S
O66 C39 1.289 . S
C67 O59 1.258 . S
C67 O60 1.266 . S
Co68 O71 1.970 . S
Co68 N85 1.989 . S
Co68 O93 1.967 . S
Co68 O100 1.920 . S
Co69 O72 1.966 . S
Co69 N78 2.022 . S
Co69 N86 1.993 . S
Co69 O94 1.941 . S
C70 O71 1.258 1_556 S
C70 O72 1.263 1_556 S
O71 Co68 1.970 . S
O71 C70 1.258 1_554 S
O72 Co69 1.966 . S
O72 C70 1.263 1_554 S
C73 O74 1.235 . S
C73 O100 1.289 . S
O74 C73 1.235 . S
C75 C77 1.400 . S
C75 N78 1.351 . S
C75 C80 1.501 1_554 S
C76 C77 1.387 . S
C76 N79 1.341 . S
C77 C75 1.400 . S
C77 C76 1.387 . S
N78 Co69 2.022 . S
N78 C75 1.351 . S
N78 N79 1.365 . S
N79 C76 1.341 . S
N79 N78 1.365 . S
N79 H99 0.862 . S
C80 C75 1.501 1_556 S
C80 H81 0.961 . S
C80 H82 0.973 . S
C80 H83 0.960 . S
H81 C80 0.961 . S
H82 C80 0.973 . S
H83 C80 0.960 . S
C84 N85 1.342 . S
C84 C88 1.401 . S
C84 C89 1.499 . S
N85 Co68 1.989 . S
N85 C84 1.342 . S
N85 N86 1.388 . S
N86 Co69 1.993 . S
N86 N85 1.388 . S
N86 C87 1.346 . S
C87 N86 1.346 . S
C87 C88 1.396 . S
C87 C97 1.510 . S
C88 C84 1.401 . S
C88 C87 1.396 . S
C89 C84 1.499 . S
C89 H90 0.959 . S
C89 H91 0.960 . S
C89 H92 0.961 . S
H90 C89 0.959 . S
H91 C89 0.960 . S
H92 C89 0.961 . S
O93 Co68 1.967 . S
O93 C101 1.258 . S
O94 Co69 1.941 . S
O94 C101 1.266 . S
H95 C97 0.959 . S
H96 C97 0.961 . S
C97 C87 1.510 . S
C97 H95 0.959 . S
C97 H96 0.961 . S
C97 H98 0.960 . S
H98 C97 0.960 . S
H99 N79 0.862 . S
O100 Co68 1.920 . S
O100 C73 1.289 . S
C101 O93 1.258 . S
C101 O94 1.266 . S
Co102 O105 1.970 . S
Co102 N119 1.989 . S
Co102 O127 1.967 . S
Co102 O134 1.920 . S
Co103 O106 1.966 . S
Co103 N112 2.022 . S
Co103 N120 1.993 . S
Co103 O128 1.941 . S
C104 O105 1.258 . S
C104 O106 1.263 . S
O105 Co102 1.970 . S
O105 C104 1.258 . S
O106 Co103 1.966 . S
O106 C104 1.263 . S
C107 O108 1.235 . S
C107 O134 1.289 . S
O108 C107 1.235 . S
C109 C111 1.400 . S
C109 N112 1.351 . S
C109 C114 1.501 . S
C110 C111 1.387 . S
C110 N113 1.341 . S
C111 C109 1.400 . S
C111 C110 1.387 . S
N112 Co103 2.022 . S
N112 C109 1.351 . S
N112 N113 1.365 . S
N113 C110 1.341 . S
N113 N112 1.365 . S
N113 H133 0.862 . S
C114 C109 1.501 . S
C114 H115 0.961 . S
C114 H116 0.961 . S
C114 H117 0.960 . S
H115 C114 0.961 . S
H116 C114 0.961 . S
H117 C114 0.960 . S
C118 N119 1.342 . S
C118 C122 1.401 . S
C118 C123 1.499 . S
N119 Co102 1.989 . S
N119 C118 1.342 . S
N119 N120 1.388 . S
N120 Co103 1.993 . S
N120 N119 1.388 . S
N120 C121 1.346 . S
C121 N120 1.346 . S
C121 C122 1.396 . S
C121 C131 1.510 . S
C122 C118 1.401 . S
C122 C121 1.396 . S
C123 C118 1.499 . S
C123 H124 0.959 . S
C123 H125 0.960 . S
C123 H126 0.961 . S
H124 C123 0.959 . S
H125 C123 0.960 . S
H126 C123 0.961 . S
O127 Co102 1.967 . S
O127 C135 1.258 . S
O128 Co103 1.941 . S
O128 C135 1.266 . S
H129 C131 0.959 . S
H130 C131 0.961 . S
C131 C121 1.510 . S
C131 H129 0.959 . S
C131 H130 0.961 . S
C131 H132 0.960 . S
H132 C131 0.960 . S
H133 N113 0.862 . S
O134 Co102 1.920 . S
O134 C107 1.289 . S
C135 O127 1.258 . S
C135 O128 1.266 . S
Co136 O139 1.970 . S
Co136 N153 1.989 . S
Co136 O161 1.967 . S
Co136 O168 1.920 . S
Co137 O140 1.966 . S
Co137 N146 2.022 . S
Co137 N154 1.993 . S
Co137 O162 1.941 . S
C138 O139 1.258 . S
C138 O140 1.263 . S
O139 Co136 1.970 . S
O139 C138 1.258 . S
O140 Co137 1.966 . S
O140 C138 1.263 . S
C141 O142 1.235 . S
C141 O168 1.289 . S
O142 C141 1.235 . S
C143 C145 1.400 . S
C143 N146 1.351 . S
C143 C148 1.501 . S
C144 C145 1.387 . S
C144 N147 1.341 . S
C145 C143 1.400 . S
C145 C144 1.387 . S
N146 Co137 2.022 . S
N146 C143 1.351 . S
N146 N147 1.365 . S
N147 C144 1.341 . S
N147 N146 1.365 . S
N147 H167 0.862 . S
C148 C143 1.501 . S
C148 H149 0.961 . S
C148 H150 0.961 . S
C148 H151 0.960 . S
H149 C148 0.961 . S
H150 C148 0.961 . S
H151 C148 0.960 . S
C152 N153 1.342 . S
C152 C156 1.401 . S
C152 C157 1.499 . S
N153 Co136 1.989 . S
N153 C152 1.342 . S
N153 N154 1.388 . S
N154 Co137 1.993 . S
N154 N153 1.388 . S
N154 C155 1.346 . S
C155 N154 1.346 . S
C155 C156 1.396 . S
C155 C165 1.510 . S
C156 C152 1.401 . S
C156 C155 1.396 . S
C157 C152 1.499 . S
C157 H158 0.959 . S
C157 H159 0.960 . S
C157 H160 0.961 . S
H158 C157 0.959 . S
H159 C157 0.960 . S
H160 C157 0.961 . S
O161 Co136 1.967 . S
O161 C169 1.258 . S
O162 Co137 1.941 . S
O162 C169 1.266 . S
H163 C165 0.959 . S
H164 C165 0.961 . S
C165 C155 1.510 . S
C165 H163 0.959 . S
C165 H164 0.961 . S
C165 H166 0.960 . S
H166 C165 0.960 . S
H167 N147 0.862 . S
O168 Co136 1.920 . S
O168 C141 1.289 . S
C169 O161 1.258 . S
C169 O162 1.266 . S
Co170 O173 1.970 . S
Co170 N187 1.989 . S
Co170 O195 1.967 . S
Co170 O202 1.920 . S
Co171 O174 1.966 . S
Co171 N180 2.022 . S
Co171 N188 1.993 . S
Co171 O196 1.941 . S
C172 O173 1.258 . S
C172 O174 1.263 . S
O173 Co170 1.970 . S
O173 C172 1.258 . S
O174 Co171 1.966 . S
O174 C172 1.263 . S
C175 O176 1.235 . S
C175 O202 1.289 . S
O176 C175 1.235 . S
C177 C179 1.400 . S
C177 N180 1.351 . S
C177 C182 1.501 . S
C178 C179 1.387 . S
C178 N181 1.341 . S
C179 C177 1.400 . S
C179 C178 1.387 . S
N180 Co171 2.022 . S
N180 C177 1.351 . S
N180 N181 1.365 . S
N181 C178 1.341 . S
N181 N180 1.365 . S
N181 H201 0.862 . S
C182 C177 1.501 . S
C182 H183 0.961 . S
C182 H184 0.961 . S
C182 H185 0.960 . S
H183 C182 0.961 . S
H184 C182 0.961 . S
H185 C182 0.960 . S
C186 N187 1.342 . S
C186 C190 1.401 . S
C186 C191 1.499 . S
N187 Co170 1.989 . S
N187 C186 1.342 . S
N187 N188 1.388 . S
N188 Co171 1.993 . S
N188 N187 1.388 . S
N188 C189 1.346 . S
C189 N188 1.346 . S
C189 C190 1.396 . S
C189 C199 1.510 . S
C190 C186 1.401 . S
C190 C189 1.396 . S
C191 C186 1.499 . S
C191 H192 0.959 . S
C191 H193 0.960 . S
C191 H194 0.961 . S
H192 C191 0.959 . S
H193 C191 0.960 . S
H194 C191 0.961 . S
O195 Co170 1.967 . S
O195 C203 1.258 . S
O196 Co171 1.941 . S
O196 C203 1.266 . S
H197 C199 0.959 . S
H198 C199 0.961 . S
C199 C189 1.510 . S
C199 H197 0.959 . S
C199 H198 0.961 . S
C199 H200 0.960 . S
H200 C199 0.960 . S
H201 N181 0.862 . S
O202 Co170 1.920 . S
O202 C175 1.289 . S
C203 O195 1.258 . S
C203 O196 1.266 . S
Co204 O207 1.970 . S
Co204 N221 1.989 . S
Co204 O229 1.967 . S
Co204 O236 1.920 . S
Co205 O208 1.966 . S
Co205 N214 2.022 . S
Co205 N222 1.993 . S
Co205 O230 1.941 . S
C206 O207 1.258 1_554 S
C206 O208 1.263 1_554 S
O207 Co204 1.970 . S
O207 C206 1.258 1_556 S
O208 Co205 1.966 . S
O208 C206 1.263 1_556 S
C209 O210 1.235 . S
C209 O236 1.289 . S
O210 C209 1.235 . S
C211 C213 1.400 . S
C211 N214 1.351 . S
C211 C216 1.501 1_556 S
C212 C213 1.387 . S
C212 N215 1.341 . S
C213 C211 1.400 . S
C213 C212 1.387 . S
N214 Co205 2.022 . S
N214 C211 1.351 . S
N214 N215 1.365 . S
N215 C212 1.341 . S
N215 N214 1.365 . S
N215 H235 0.862 . S
C216 C211 1.501 1_554 S
C216 H217 0.961 . S
C216 H218 0.973 . S
C216 H219 0.960 . S
H217 C216 0.961 . S
H218 C216 0.973 . S
H219 C216 0.960 . S
C220 N221 1.342 . S
C220 C224 1.401 . S
C220 C225 1.499 . S
N221 Co204 1.989 . S
N221 C220 1.342 . S
N221 N222 1.388 . S
N222 Co205 1.993 . S
N222 N221 1.388 . S
N222 C223 1.346 . S
C223 N222 1.346 . S
C223 C224 1.396 . S
C223 C233 1.510 . S
C224 C220 1.401 . S
C224 C223 1.396 . S
C225 C220 1.499 . S
C225 H226 0.959 . S
C225 H227 0.960 . S
C225 H228 0.961 . S
H226 C225 0.959 . S
H227 C225 0.960 . S
H228 C225 0.961 . S
O229 Co204 1.967 . S
O229 C237 1.258 . S
O230 Co205 1.941 . S
O230 C237 1.266 . S
H231 C233 0.959 . S
H232 C233 0.961 . S
C233 C223 1.510 . S
C233 H231 0.959 . S
C233 H232 0.961 . S
C233 H234 0.960 . S
H234 C233 0.960 . S
H235 N215 0.862 . S
O236 Co204 1.920 . S
O236 C209 1.289 . S
C237 O229 1.258 . S
C237 O230 1.266 . S
Co238 O241 1.970 . S
Co238 N255 1.989 . S
Co238 O263 1.967 . S
Co238 O270 1.920 . S
Co239 O242 1.966 . S
Co239 N248 2.022 . S
Co239 N256 1.993 . S
Co239 O264 1.941 . S
C240 O241 1.258 1_554 S
C240 O242 1.263 1_554 S
O241 Co238 1.970 . S
O241 C240 1.258 1_556 S
O242 Co239 1.966 . S
O242 C240 1.263 1_556 S
C243 O244 1.235 . S
C243 O270 1.289 . S
O244 C243 1.235 . S
C245 C247 1.400 . S
C245 N248 1.351 . S
C245 C250 1.501 1_556 S
C246 C247 1.387 . S
C246 N249 1.341 . S
C247 C245 1.400 . S
C247 C246 1.387 . S
N248 Co239 2.022 . S
N248 C245 1.351 . S
N248 N249 1.365 . S
N249 C246 1.341 . S
N249 N248 1.365 . S
N249 H269 0.862 . S
C250 C245 1.501 1_554 S
C250 H251 0.961 . S
C250 H252 0.973 . S
C250 H253 0.960 . S
H251 C250 0.961 . S
H252 C250 0.973 . S
H253 C250 0.960 . S
C254 N255 1.342 . S
C254 C258 1.401 . S
C254 C259 1.499 . S
N255 Co238 1.989 . S
N255 C254 1.342 . S
N255 N256 1.388 . S
N256 Co239 1.993 . S
N256 N255 1.388 . S
N256 C257 1.346 . S
C257 N256 1.346 . S
C257 C258 1.396 . S
C257 C267 1.510 . S
C258 C254 1.401 . S
C258 C257 1.396 . S
C259 C254 1.499 . S
C259 H260 0.959 . S
C259 H261 0.960 . S
C259 H262 0.961 . S
H260 C259 0.959 . S
H261 C259 0.960 . S
H262 C259 0.961 . S
O263 Co238 1.967 . S
O263 C271 1.258 . S
O264 Co239 1.941 . S
O264 C271 1.266 . S
H265 C267 0.959 . S
H266 C267 0.961 . S
C267 C257 1.510 . S
C267 H265 0.959 . S
C267 H266 0.961 . S
C267 H268 0.960 . S
H268 C267 0.960 . S
H269 N249 0.862 . S
O270 Co238 1.920 . S
O270 C243 1.289 . S
C271 O263 1.258 . S
C271 O264 1.266 . S
Co272 O275 1.970 . S
Co272 N289 1.989 . S
Co272 O297 1.967 . S
Co272 O304 1.920 . S
Co273 O276 1.966 . S
Co273 N282 2.022 . S
Co273 N290 1.993 . S
Co273 O298 1.941 . S
C274 O275 1.258 1_554 S
C274 O276 1.263 1_554 S
O275 Co272 1.970 . S
O275 C274 1.258 1_556 S
O276 Co273 1.966 . S
O276 C274 1.263 1_556 S
C277 O278 1.235 . S
C277 O304 1.289 . S
O278 C277 1.235 . S
C279 C281 1.400 . S
C279 N282 1.351 . S
C279 C284 1.501 1_556 S
C280 C281 1.387 . S
C280 N283 1.341 . S
C281 C279 1.400 . S
C281 C280 1.387 . S
N282 Co273 2.022 . S
N282 C279 1.351 . S
N282 N283 1.365 . S
N283 C280 1.341 . S
N283 N282 1.365 . S
N283 H303 0.862 . S
C284 C279 1.501 1_554 S
C284 H285 0.961 . S
C284 H286 0.973 . S
C284 H287 0.960 . S
H285 C284 0.961 . S
H286 C284 0.973 . S
H287 C284 0.960 . S
C288 N289 1.342 . S
C288 C292 1.401 . S
C288 C293 1.499 . S
N289 Co272 1.989 . S
N289 C288 1.342 . S
N289 N290 1.388 . S
N290 Co273 1.993 . S
N290 N289 1.388 . S
N290 C291 1.346 . S
C291 N290 1.346 . S
C291 C292 1.396 . S
C291 C301 1.510 . S
C292 C288 1.401 . S
C292 C291 1.396 . S
C293 C288 1.499 . S
C293 H294 0.959 . S
C293 H295 0.960 . S
C293 H296 0.961 . S
H294 C293 0.959 . S
H295 C293 0.960 . S
H296 C293 0.961 . S
O297 Co272 1.967 . S
O297 C305 1.258 . S
O298 Co273 1.941 . S
O298 C305 1.266 . S
H299 C301 0.959 . S
H300 C301 0.961 . S
C301 C291 1.510 . S
C301 H299 0.959 . S
C301 H300 0.961 . S
C301 H302 0.960 . S
H302 C301 0.960 . S
H303 N283 0.862 . S
O304 Co272 1.920 . S
O304 C277 1.289 . S
C305 O297 1.258 . S
C305 O298 1.266 . S
Co306 O309 1.970 . S
Co306 N323 1.989 . S
Co306 O331 1.967 . S
Co306 O338 1.920 . S
Co307 O310 1.966 . S
Co307 N316 2.022 . S
Co307 N324 1.993 . S
Co307 O332 1.941 . S
C308 O309 1.258 . S
C308 O310 1.263 . S
O309 Co306 1.970 . S
O309 C308 1.258 . S
O310 Co307 1.966 . S
O310 C308 1.263 . S
C311 O312 1.235 . S
C311 O338 1.289 . S
O312 C311 1.235 . S
C313 C315 1.400 . S
C313 N316 1.351 . S
C313 C318 1.501 . S
C314 C315 1.387 . S
C314 N317 1.341 . S
C315 C313 1.400 . S
C315 C314 1.387 . S
N316 Co307 2.022 . S
N316 C313 1.351 . S
N316 N317 1.365 . S
N317 C314 1.341 . S
N317 N316 1.365 . S
N317 H337 0.862 . S
C318 C313 1.501 . S
C318 H319 0.961 . S
C318 H320 0.961 . S
C318 H321 0.960 . S
H319 C318 0.961 . S
H320 C318 0.961 . S
H321 C318 0.960 . S
C322 N323 1.342 . S
C322 C326 1.401 . S
C322 C327 1.499 . S
N323 Co306 1.989 . S
N323 C322 1.342 . S
N323 N324 1.388 . S
N324 Co307 1.993 . S
N324 N323 1.388 . S
N324 C325 1.346 . S
C325 N324 1.346 . S
C325 C326 1.396 . S
C325 C335 1.510 . S
C326 C322 1.401 . S
C326 C325 1.396 . S
C327 C322 1.499 . S
C327 H328 0.959 . S
C327 H329 0.960 . S
C327 H330 0.961 . S
H328 C327 0.959 . S
H329 C327 0.960 . S
H330 C327 0.961 . S
O331 Co306 1.967 . S
O331 C339 1.258 . S
O332 Co307 1.941 . S
O332 C339 1.266 . S
H333 C335 0.959 . S
H334 C335 0.961 . S
C335 C325 1.510 . S
C335 H333 0.959 . S
C335 H334 0.961 . S
C335 H336 0.960 . S
H336 C335 0.960 . S
H337 N317 0.862 . S
O338 Co306 1.920 . S
O338 C311 1.289 . S
C339 O331 1.258 . S
C339 O332 1.266 . S
Co340 O343 1.970 . S
Co340 N357 1.989 . S
Co340 O365 1.967 . S
Co340 O372 1.920 . S
Co341 O344 1.966 . S
Co341 N350 2.022 . S
Co341 N358 1.993 . S
Co341 O366 1.941 . S
C342 O343 1.258 . S
C342 O344 1.263 . S
O343 Co340 1.970 . S
O343 C342 1.258 . S
O344 Co341 1.966 . S
O344 C342 1.263 . S
C345 O346 1.235 . S
C345 O372 1.289 . S
O346 C345 1.235 . S
C347 C349 1.400 . S
C347 N350 1.351 . S
C347 C352 1.501 . S
C348 C349 1.387 . S
C348 N351 1.341 . S
C349 C347 1.400 . S
C349 C348 1.387 . S
N350 Co341 2.022 . S
N350 C347 1.351 . S
N350 N351 1.365 . S
N351 C348 1.341 . S
N351 N350 1.365 . S
N351 H371 0.862 . S
C352 C347 1.501 . S
C352 H353 0.961 . S
C352 H354 0.961 . S
C352 H355 0.960 . S
H353 C352 0.961 . S
H354 C352 0.961 . S
H355 C352 0.960 . S
C356 N357 1.342 . S
C356 C360 1.401 . S
C356 C361 1.499 . S
N357 Co340 1.989 . S
N357 C356 1.342 . S
N357 N358 1.388 . S
N358 Co341 1.993 . S
N358 N357 1.388 . S
N358 C359 1.346 . S
C359 N358 1.346 . S
C359 C360 1.396 . S
C359 C369 1.510 . S
C360 C356 1.401 . S
C360 C359 1.396 . S
C361 C356 1.499 . S
C361 H362 0.959 . S
C361 H363 0.960 . S
C361 H364 0.961 . S
H362 C361 0.959 . S
H363 C361 0.960 . S
H364 C361 0.961 . S
O365 Co340 1.967 . S
O365 C373 1.258 . S
O366 Co341 1.941 . S
O366 C373 1.266 . S
H367 C369 0.959 . S
H368 C369 0.961 . S
C369 C359 1.510 . S
C369 H367 0.959 . S
C369 H368 0.961 . S
C369 H370 0.960 . S
H370 C369 0.960 . S
H371 N351 0.862 . S
O372 Co340 1.920 . S
O372 C345 1.289 . S
C373 O365 1.258 . S
C373 O366 1.266 . S
Co374 O377 1.970 . S
Co374 N391 1.989 . S
Co374 O399 1.967 . S
Co374 O406 1.920 . S
Co375 O378 1.966 . S
Co375 N384 2.022 . S
Co375 N392 1.993 . S
Co375 O400 1.941 . S
C376 O377 1.258 . S
C376 O378 1.263 . S
O377 Co374 1.970 . S
O377 C376 1.258 . S
O378 Co375 1.966 . S
O378 C376 1.263 . S
C379 O380 1.235 . S
C379 O406 1.289 . S
O380 C379 1.235 . S
C381 C383 1.400 . S
C381 N384 1.351 . S
C381 C386 1.501 . S
C382 C383 1.387 . S
C382 N385 1.341 . S
C383 C381 1.400 . S
C383 C382 1.387 . S
N384 Co375 2.022 . S
N384 C381 1.351 . S
N384 N385 1.365 . S
N385 C382 1.341 . S
N385 N384 1.365 . S
N385 H405 0.862 . S
C386 C381 1.501 . S
C386 H387 0.961 . S
C386 H388 0.961 . S
C386 H389 0.960 . S
H387 C386 0.961 . S
H388 C386 0.961 . S
H389 C386 0.960 . S
C390 N391 1.342 . S
C390 C394 1.401 . S
C390 C395 1.499 . S
N391 Co374 1.989 . S
N391 C390 1.342 . S
N391 N392 1.388 . S
N392 Co375 1.993 . S
N392 N391 1.388 . S
N392 C393 1.346 . S
C393 N392 1.346 . S
C393 C394 1.396 . S
C393 C403 1.510 . S
C394 C390 1.401 . S
C394 C393 1.396 . S
C395 C390 1.499 . S
C395 H396 0.959 . S
C395 H397 0.960 . S
C395 H398 0.961 . S
H396 C395 0.959 . S
H397 C395 0.960 . S
H398 C395 0.961 . S
O399 Co374 1.967 . S
O399 C407 1.258 . S
O400 Co375 1.941 . S
O400 C407 1.266 . S
H401 C403 0.959 . S
H402 C403 0.961 . S
C403 C393 1.510 . S
C403 H401 0.959 . S
C403 H402 0.961 . S
C403 H404 0.960 . S
H404 C403 0.960 . S
H405 N385 0.862 . S
O406 Co374 1.920 . S
O406 C379 1.289 . S
C407 O399 1.258 . S
C407 O400 1.266 . S
Co408 O411 1.970 . S
Co408 N425 1.989 . S
Co408 O433 1.967 . S
Co408 O440 1.920 . S
Co409 O412 1.966 . S
Co409 N418 2.022 . S
Co409 N426 1.993 . S
Co409 O434 1.941 . S
C410 O411 1.258 . S
C410 O412 1.263 . S
O411 Co408 1.970 . S
O411 C410 1.258 . S
O412 Co409 1.966 . S
O412 C410 1.263 . S
C413 O414 1.267 . S
C413 O440 1.259 1_455 S
O414 C413 1.267 . S
C415 C417 1.400 . S
C415 N418 1.351 . S
C415 C420 1.501 . S
C416 C417 1.387 . S
C416 N419 1.341 . S
C417 C415 1.400 . S
C417 C416 1.387 . S
N418 Co409 2.022 . S
N418 C415 1.351 . S
N418 N419 1.365 . S
N419 C416 1.341 . S
N419 N418 1.365 . S
N419 H439 0.862 . S
C420 C415 1.501 . S
C420 H421 0.961 . S
C420 H422 0.961 . S
C420 H423 0.960 . S
H421 C420 0.961 . S
H422 C420 0.961 . S
H423 C420 0.960 . S
C424 N425 1.342 . S
C424 C428 1.401 . S
C424 C429 1.499 . S
N425 Co408 1.989 . S
N425 C424 1.342 . S
N425 N426 1.388 . S
N426 Co409 1.993 . S
N426 N425 1.388 . S
N426 C427 1.346 . S
C427 N426 1.346 . S
C427 C428 1.396 . S
C427 C437 1.510 . S
C428 C424 1.401 . S
C428 C427 1.396 . S
C429 C424 1.499 . S
C429 H430 0.959 . S
C429 H431 0.960 . S
C429 H432 0.961 . S
H430 C429 0.959 . S
H431 C429 0.960 . S
H432 C429 0.961 . S
O433 Co408 1.967 . S
O433 C441 1.258 . S
O434 Co409 1.941 . S
O434 C441 1.266 . S
H435 C437 0.959 . S
H436 C437 0.961 . S
C437 C427 1.510 . S
C437 H435 0.959 . S
C437 H436 0.961 . S
C437 H438 0.960 . S
H438 C437 0.960 . S
H439 N419 0.862 . S
O440 Co408 1.920 . S
O440 C413 1.259 1_655 S
C441 O433 1.258 . S
C441 O434 1.266 . S
Co442 O445 1.970 . S
Co442 N459 1.989 . S
Co442 O467 1.967 . S
Co442 O474 1.920 . S
Co443 O446 1.966 . S
Co443 N452 2.022 . S
Co443 N460 1.993 . S
Co443 O468 1.941 . S
C444 O445 1.258 . S
C444 O446 1.263 . S
O445 Co442 1.970 . S
O445 C444 1.258 . S
O446 Co443 1.966 . S
O446 C444 1.263 . S
C447 O448 1.235 . S
C447 O474 1.289 . S
O448 C447 1.235 . S
C449 C451 1.400 . S
C449 N452 1.351 . S
C449 C454 1.501 . S
C450 C451 1.387 . S
C450 N453 1.341 . S
C451 C449 1.400 . S
C451 C450 1.387 . S
N452 Co443 2.022 . S
N452 C449 1.351 . S
N452 N453 1.365 . S
N453 C450 1.341 . S
N453 N452 1.365 . S
N453 H473 0.862 . S
C454 C449 1.501 . S
C454 H455 0.961 . S
C454 H456 0.961 . S
C454 H457 0.960 . S
H455 C454 0.961 . S
H456 C454 0.961 . S
H457 C454 0.960 . S
C458 N459 1.342 . S
C458 C462 1.401 . S
C458 C463 1.499 . S
N459 Co442 1.989 . S
N459 C458 1.342 . S
N459 N460 1.388 . S
N460 Co443 1.993 . S
N460 N459 1.388 . S
N460 C461 1.346 . S
C461 N460 1.346 . S
C461 C462 1.396 . S
C461 C471 1.510 . S
C462 C458 1.401 . S
C462 C461 1.396 . S
C463 C458 1.499 . S
C463 H464 0.959 . S
C463 H465 0.960 . S
C463 H466 0.961 . S
H464 C463 0.959 . S
H465 C463 0.960 . S
H466 C463 0.961 . S
O467 Co442 1.967 . S
O467 C475 1.258 . S
O468 Co443 1.941 . S
O468 C475 1.266 . S
H469 C471 0.959 . S
H470 C471 0.961 . S
C471 C461 1.510 . S
C471 H469 0.959 . S
C471 H470 0.961 . S
C471 H472 0.960 . S
H472 C471 0.960 . S
H473 N453 0.862 . S
O474 Co442 1.920 . S
O474 C447 1.289 . S
C475 O467 1.258 . S
C475 O468 1.266 . S
Co476 O479 1.970 . S
Co476 N493 1.989 . S
Co476 O501 1.967 . S
Co476 O508 1.920 . S
Co477 O480 1.966 . S
Co477 N486 2.022 . S
Co477 N494 1.993 . S
Co477 O502 1.941 . S
C478 O479 1.258 . S
C478 O480 1.263 . S
O479 Co476 1.970 . S
O479 C478 1.258 . S
O480 Co477 1.966 . S
O480 C478 1.263 . S
C481 O482 1.240 . S
C481 O508 1.257 1_565 S
O482 C481 1.240 . S
C483 C485 1.400 . S
C483 N486 1.351 . S
C483 C488 1.501 . S
C484 C485 1.387 . S
C484 N487 1.341 . S
C485 C483 1.400 . S
C485 C484 1.387 . S
N486 Co477 2.022 . S
N486 C483 1.351 . S
N486 N487 1.365 . S
N487 C484 1.341 . S
N487 N486 1.365 . S
N487 H507 0.862 . S
C488 C483 1.501 . S
C488 H489 0.961 . S
C488 H490 0.961 . S
C488 H491 0.960 . S
H489 C488 0.961 . S
H490 C488 0.961 . S
H491 C488 0.960 . S
C492 N493 1.342 . S
C492 C496 1.401 . S
C492 C497 1.499 . S
N493 Co476 1.989 . S
N493 C492 1.342 . S
N493 N494 1.388 . S
N494 Co477 1.993 . S
N494 N493 1.388 . S
N494 C495 1.346 . S
C495 N494 1.346 . S
C495 C496 1.396 . S
C495 C505 1.510 . S
C496 C492 1.401 . S
C496 C495 1.396 . S
C497 C492 1.499 . S
C497 H498 0.959 . S
C497 H499 0.960 . S
C497 H500 0.961 . S
H498 C497 0.959 . S
H499 C497 0.960 . S
H500 C497 0.961 . S
O501 Co476 1.967 . S
O501 C509 1.258 . S
O502 Co477 1.941 . S
O502 C509 1.266 . S
H503 C505 0.959 . S
H504 C505 0.961 . S
C505 C495 1.510 . S
C505 H503 0.959 . S
C505 H504 0.961 . S
C505 H506 0.960 . S
H506 C505 0.960 . S
H507 N487 0.862 . S
O508 Co476 1.920 . S
O508 C481 1.257 1_545 S
C509 O501 1.258 . S
C509 O502 1.266 . S
Co510 O513 1.970 . S
Co510 N527 1.989 . S
Co510 O535 1.967 . S
Co510 O542 1.920 . S
Co511 O514 1.966 . S
Co511 N520 2.022 . S
Co511 N528 1.993 . S
Co511 O536 1.941 . S
C512 O513 1.258 . S
C512 O514 1.263 . S
O513 Co510 1.970 . S
O513 C512 1.258 . S
O514 Co511 1.966 . S
O514 C512 1.263 . S
C515 O516 1.235 . S
C515 O542 1.289 . S
O516 C515 1.235 . S
C517 C519 1.400 . S
C517 N520 1.351 . S
C517 C522 1.501 . S
C518 C519 1.387 . S
C518 N521 1.341 . S
C519 C517 1.400 . S
C519 C518 1.387 . S
N520 Co511 2.022 . S
N520 C517 1.351 . S
N520 N521 1.365 . S
N521 C518 1.341 . S
N521 N520 1.365 . S
N521 H541 0.862 . S
C522 C517 1.501 . S
C522 H523 0.961 . S
C522 H524 0.961 . S
C522 H525 0.960 . S
H523 C522 0.961 . S
H524 C522 0.961 . S
H525 C522 0.960 . S
C526 N527 1.342 . S
C526 C530 1.401 . S
C526 C531 1.499 . S
N527 Co510 1.989 . S
N527 C526 1.342 . S
N527 N528 1.388 . S
N528 Co511 1.993 . S
N528 N527 1.388 . S
N528 C529 1.346 . S
C529 N528 1.346 . S
C529 C530 1.396 . S
C529 C539 1.510 . S
C530 C526 1.401 . S
C530 C529 1.396 . S
C531 C526 1.499 . S
C531 H532 0.959 . S
C531 H533 0.960 . S
C531 H534 0.961 . S
H532 C531 0.959 . S
H533 C531 0.960 . S
H534 C531 0.961 . S
O535 Co510 1.967 . S
O535 C543 1.258 . S
O536 Co511 1.941 . S
O536 C543 1.266 . S
H537 C539 0.959 . S
H538 C539 0.961 . S
C539 C529 1.510 . S
C539 H537 0.959 . S
C539 H538 0.961 . S
C539 H540 0.960 . S
H540 C539 0.960 . S
H541 N521 0.862 . S
O542 Co510 1.920 . S
O542 C515 1.289 . S
C543 O535 1.258 . S
C543 O536 1.266 . S
Co544 O547 1.970 . S
Co544 N561 1.989 . S
Co544 O569 1.967 . S
Co544 O576 1.920 . S
Co545 O548 1.966 . S
Co545 N554 2.022 . S
Co545 N562 1.993 . S
Co545 O570 1.941 . S
C546 O547 1.258 . S
C546 O548 1.263 . S
O547 Co544 1.970 . S
O547 C546 1.258 . S
O548 Co545 1.966 . S
O548 C546 1.263 . S
C549 O550 1.235 . S
C549 O576 1.289 . S
O550 C549 1.235 . S
C551 C553 1.400 . S
C551 N554 1.351 . S
C551 C556 1.501 . S
C552 C553 1.387 . S
C552 N555 1.341 . S
C553 C551 1.400 . S
C553 C552 1.387 . S
N554 Co545 2.022 . S
N554 C551 1.351 . S
N554 N555 1.365 . S
N555 C552 1.341 . S
N555 N554 1.365 . S
N555 H575 0.862 . S
C556 C551 1.501 . S
C556 H557 0.961 . S
C556 H558 0.961 . S
C556 H559 0.960 . S
H557 C556 0.961 . S
H558 C556 0.961 . S
H559 C556 0.960 . S
C560 N561 1.342 . S
C560 C564 1.401 . S
C560 C565 1.499 . S
N561 Co544 1.989 . S
N561 C560 1.342 . S
N561 N562 1.388 . S
N562 Co545 1.993 . S
N562 N561 1.388 . S
N562 C563 1.346 . S
C563 N562 1.346 . S
C563 C564 1.396 . S
C563 C573 1.510 . S
C564 C560 1.401 . S
C564 C563 1.396 . S
C565 C560 1.499 . S
C565 H566 0.959 . S
C565 H567 0.960 . S
C565 H568 0.961 . S
H566 C565 0.959 . S
H567 C565 0.960 . S
H568 C565 0.961 . S
O569 Co544 1.967 . S
O569 C577 1.258 . S
O570 Co545 1.941 . S
O570 C577 1.266 . S
H571 C573 0.959 . S
H572 C573 0.961 . S
C573 C563 1.510 . S
C573 H571 0.959 . S
C573 H572 0.961 . S
C573 H574 0.960 . S
H574 C573 0.960 . S
H575 N555 0.862 . S
O576 Co544 1.920 . S
O576 C549 1.289 . S
C577 O569 1.258 . S
C577 O570 1.266 . S
Co578 O581 1.970 . S
Co578 N595 1.989 . S
Co578 O603 1.967 . S
Co578 O610 1.920 . S
Co579 O582 1.966 . S
Co579 N588 2.022 . S
Co579 N596 1.993 . S
Co579 O604 1.941 . S
C580 O581 1.258 . S
C580 O582 1.263 . S
O581 Co578 1.970 . S
O581 C580 1.258 . S
O582 Co579 1.966 . S
O582 C580 1.263 . S
C583 O584 1.235 . S
C583 O610 1.289 . S
O584 C583 1.235 . S
C585 C587 1.400 . S
C585 N588 1.351 . S
C585 C590 1.501 . S
C586 C587 1.387 . S
C586 N589 1.341 . S
C587 C585 1.400 . S
C587 C586 1.387 . S
N588 Co579 2.022 . S
N588 C585 1.351 . S
N588 N589 1.365 . S
N589 C586 1.341 . S
N589 N588 1.365 . S
N589 H609 0.862 . S
C590 C585 1.501 . S
C590 H591 0.961 . S
C590 H592 0.961 . S
C590 H593 0.960 . S
H591 C590 0.961 . S
H592 C590 0.961 . S
H593 C590 0.960 . S
C594 N595 1.342 . S
C594 C598 1.401 . S
C594 C599 1.499 . S
N595 Co578 1.989 . S
N595 C594 1.342 . S
N595 N596 1.388 . S
N596 Co579 1.993 . S
N596 N595 1.388 . S
N596 C597 1.346 . S
C597 N596 1.346 . S
C597 C598 1.396 . S
C597 C607 1.510 . S
C598 C594 1.401 . S
C598 C597 1.396 . S
C599 C594 1.499 . S
C599 H600 0.959 . S
C599 H601 0.960 . S
C599 H602 0.961 . S
H600 C599 0.959 . S
H601 C599 0.960 . S
H602 C599 0.961 . S
O603 Co578 1.967 . S
O603 C611 1.258 . S
O604 Co579 1.941 . S
O604 C611 1.266 . S
H605 C607 0.959 . S
H606 C607 0.961 . S
C607 C597 1.510 . S
C607 H605 0.959 . S
C607 H606 0.961 . S
C607 H608 0.960 . S
H608 C607 0.960 . S
H609 N589 0.862 . S
O610 Co578 1.920 . S
O610 C583 1.289 . S
C611 O603 1.258 . S
C611 O604 1.266 . S
Co612 O615 1.970 . S
Co612 N629 1.989 . S
Co612 O637 1.967 . S
Co612 O644 1.920 . S
Co613 O616 1.966 . S
Co613 N622 2.022 . S
Co613 N630 1.993 . S
Co613 O638 1.941 . S
C614 O615 1.258 . S
C614 O616 1.263 . S
O615 Co612 1.970 . S
O615 C614 1.258 . S
O616 Co613 1.966 . S
O616 C614 1.263 . S
C617 O618 1.235 . S
C617 O644 1.289 . S
O618 C617 1.235 . S
C619 C621 1.400 . S
C619 N622 1.351 . S
C619 C624 1.501 . S
C620 C621 1.387 . S
C620 N623 1.341 . S
C621 C619 1.400 . S
C621 C620 1.387 . S
N622 Co613 2.022 . S
N622 C619 1.351 . S
N622 N623 1.365 . S
N623 C620 1.341 . S
N623 N622 1.365 . S
N623 H643 0.862 . S
C624 C619 1.501 . S
C624 H625 0.961 . S
C624 H626 0.961 . S
C624 H627 0.960 . S
H625 C624 0.961 . S
H626 C624 0.961 . S
H627 C624 0.960 . S
C628 N629 1.342 . S
C628 C632 1.401 . S
C628 C633 1.499 . S
N629 Co612 1.989 . S
N629 C628 1.342 . S
N629 N630 1.388 . S
N630 Co613 1.993 . S
N630 N629 1.388 . S
N630 C631 1.346 . S
C631 N630 1.346 . S
C631 C632 1.396 . S
C631 C641 1.510 . S
C632 C628 1.401 . S
C632 C631 1.396 . S
C633 C628 1.499 . S
C633 H634 0.959 . S
C633 H635 0.960 . S
C633 H636 0.961 . S
H634 C633 0.959 . S
H635 C633 0.960 . S
H636 C633 0.961 . S
O637 Co612 1.967 . S
O637 C645 1.258 . S
O638 Co613 1.941 . S
O638 C645 1.266 . S
H639 C641 0.959 . S
H640 C641 0.961 . S
C641 C631 1.510 . S
C641 H639 0.959 . S
C641 H640 0.961 . S
C641 H642 0.960 . S
H642 C641 0.960 . S
H643 N623 0.862 . S
O644 Co612 1.920 . S
O644 C617 1.289 . S
C645 O637 1.258 . S
C645 O638 1.266 . S
Co646 O649 1.970 . S
Co646 N663 1.989 . S
Co646 O671 1.967 . S
Co646 O678 1.920 . S
Co647 O650 1.966 . S
Co647 N656 2.022 . S
Co647 N664 1.993 . S
Co647 O672 1.941 . S
C648 O649 1.258 . S
C648 O650 1.263 . S
O649 Co646 1.970 . S
O649 C648 1.258 . S
O650 Co647 1.966 . S
O650 C648 1.263 . S
C651 O652 1.235 . S
C651 O678 1.289 . S
O652 C651 1.235 . S
C653 C655 1.400 . S
C653 N656 1.351 . S
C653 C658 1.501 . S
C654 C655 1.387 . S
C654 N657 1.341 . S
C655 C653 1.400 . S
C655 C654 1.387 . S
N656 Co647 2.022 . S
N656 C653 1.351 . S
N656 N657 1.365 . S
N657 C654 1.341 . S
N657 N656 1.365 . S
N657 H677 0.862 . S
C658 C653 1.501 . S
C658 H659 0.961 . S
C658 H660 0.961 . S
C658 H661 0.960 . S
H659 C658 0.961 . S
H660 C658 0.961 . S
H661 C658 0.960 . S
C662 N663 1.342 . S
C662 C666 1.401 . S
C662 C667 1.499 . S
N663 Co646 1.989 . S
N663 C662 1.342 . S
N663 N664 1.388 . S
N664 Co647 1.993 . S
N664 N663 1.388 . S
N664 C665 1.346 . S
C665 N664 1.346 . S
C665 C666 1.396 . S
C665 C675 1.510 . S
C666 C662 1.401 . S
C666 C665 1.396 . S
C667 C662 1.499 . S
C667 H668 0.959 . S
C667 H669 0.960 . S
C667 H670 0.961 . S
H668 C667 0.959 . S
H669 C667 0.960 . S
H670 C667 0.961 . S
O671 Co646 1.967 . S
O671 C679 1.258 . S
O672 Co647 1.941 . S
O672 C679 1.266 . S
H673 C675 0.959 . S
H674 C675 0.961 . S
C675 C665 1.510 . S
C675 H673 0.959 . S
C675 H674 0.961 . S
C675 H676 0.960 . S
H676 C675 0.960 . S
H677 N657 0.862 . S
O678 Co646 1.920 . S
O678 C651 1.289 . S
C679 O671 1.258 . S
C679 O672 1.266 . S
Co680 O683 1.970 . S
Co680 N697 1.989 . S
Co680 O705 1.967 . S
Co680 O712 1.920 . S
Co681 O684 1.966 . S
Co681 N690 2.022 . S
Co681 N698 1.993 . S
Co681 O706 1.941 . S
C682 O683 1.258 . S
C682 O684 1.263 . S
O683 Co680 1.970 . S
O683 C682 1.258 . S
O684 Co681 1.966 . S
O684 C682 1.263 . S
C685 O686 1.235 . S
C685 O712 1.289 . S
O686 C685 1.235 . S
C687 C689 1.400 . S
C687 N690 1.351 . S
C687 C692 1.501 . S
C688 C689 1.387 . S
C688 N691 1.341 . S
C689 C687 1.400 . S
C689 C688 1.387 . S
N690 Co681 2.022 . S
N690 C687 1.351 . S
N690 N691 1.365 . S
N691 C688 1.341 . S
N691 N690 1.365 . S
N691 H711 0.862 . S
C692 C687 1.501 . S
C692 H693 0.961 . S
C692 H694 0.961 . S
C692 H695 0.960 . S
H693 C692 0.961 . S
H694 C692 0.961 . S
H695 C692 0.960 . S
C696 N697 1.342 . S
C696 C700 1.401 . S
C696 C701 1.499 . S
N697 Co680 1.989 . S
N697 C696 1.342 . S
N697 N698 1.388 . S
N698 Co681 1.993 . S
N698 N697 1.388 . S
N698 C699 1.346 . S
C699 N698 1.346 . S
C699 C700 1.396 . S
C699 C709 1.510 . S
C700 C696 1.401 . S
C700 C699 1.396 . S
C701 C696 1.499 . S
C701 H702 0.959 . S
C701 H703 0.960 . S
C701 H704 0.961 . S
H702 C701 0.959 . S
H703 C701 0.960 . S
H704 C701 0.961 . S
O705 Co680 1.967 . S
O705 C713 1.258 . S
O706 Co681 1.941 . S
O706 C713 1.266 . S
H707 C709 0.959 . S
H708 C709 0.961 . S
C709 C699 1.510 . S
C709 H707 0.959 . S
C709 H708 0.961 . S
C709 H710 0.960 . S
H710 C709 0.960 . S
H711 N691 0.862 . S
O712 Co680 1.920 . S
O712 C685 1.289 . S
C713 O705 1.258 . S
C713 O706 1.266 . S
Co714 O717 1.970 . S
Co714 N731 1.989 . S
Co714 O739 1.967 . S
Co714 O746 1.920 . S
Co715 O718 1.966 . S
Co715 N724 2.022 . S
Co715 N732 1.993 . S
Co715 O740 1.941 . S
C716 O717 1.258 . S
C716 O718 1.263 . S
O717 Co714 1.970 . S
O717 C716 1.258 . S
O718 Co715 1.966 . S
O718 C716 1.263 . S
C719 O720 1.267 . S
C719 O746 1.259 1_565 S
O720 C719 1.267 . S
C721 C723 1.400 . S
C721 N724 1.351 . S
C721 C726 1.501 . S
C722 C723 1.387 . S
C722 N725 1.341 . S
C723 C721 1.400 . S
C723 C722 1.387 . S
N724 Co715 2.022 . S
N724 C721 1.351 . S
N724 N725 1.365 . S
N725 C722 1.341 . S
N725 N724 1.365 . S
N725 H745 0.862 . S
C726 C721 1.501 . S
C726 H727 0.961 . S
C726 H728 0.961 . S
C726 H729 0.960 . S
H727 C726 0.961 . S
H728 C726 0.961 . S
H729 C726 0.960 . S
C730 N731 1.342 . S
C730 C734 1.401 . S
C730 C735 1.499 . S
N731 Co714 1.989 . S
N731 C730 1.342 . S
N731 N732 1.388 . S
N732 Co715 1.993 . S
N732 N731 1.388 . S
N732 C733 1.346 . S
C733 N732 1.346 . S
C733 C734 1.396 . S
C733 C743 1.510 . S
C734 C730 1.401 . S
C734 C733 1.396 . S
C735 C730 1.499 . S
C735 H736 0.959 . S
C735 H737 0.960 . S
C735 H738 0.961 . S
H736 C735 0.959 . S
H737 C735 0.960 . S
H738 C735 0.961 . S
O739 Co714 1.967 . S
O739 C747 1.258 . S
O740 Co715 1.941 . S
O740 C747 1.266 . S
H741 C743 0.959 . S
H742 C743 0.961 . S
C743 C733 1.510 . S
C743 H741 0.959 . S
C743 H742 0.961 . S
C743 H744 0.960 . S
H744 C743 0.960 . S
H745 N725 0.862 . S
O746 Co714 1.920 . S
O746 C719 1.259 1_545 S
C747 O739 1.258 . S
C747 O740 1.266 . S
Co748 O751 1.970 . S
Co748 N765 1.989 . S
Co748 O773 1.967 . S
Co748 O780 1.920 . S
Co749 O752 1.966 . S
Co749 N758 2.022 . S
Co749 N766 1.993 . S
Co749 O774 1.941 . S
C750 O751 1.258 . S
C750 O752 1.263 . S
O751 Co748 1.970 . S
O751 C750 1.258 . S
O752 Co749 1.966 . S
O752 C750 1.263 . S
C753 O754 1.240 . S
C753 O780 1.257 1_455 S
O754 C753 1.240 . S
C755 C757 1.400 . S
C755 N758 1.351 . S
C755 C760 1.501 . S
C756 C757 1.387 . S
C756 N759 1.341 . S
C757 C755 1.400 . S
C757 C756 1.387 . S
N758 Co749 2.022 . S
N758 C755 1.351 . S
N758 N759 1.365 . S
N759 C756 1.341 . S
N759 N758 1.365 . S
N759 H779 0.862 . S
C760 C755 1.501 . S
C760 H761 0.961 . S
C760 H762 0.961 . S
C760 H763 0.960 . S
H761 C760 0.961 . S
H762 C760 0.961 . S
H763 C760 0.960 . S
C764 N765 1.342 . S
C764 C768 1.401 . S
C764 C769 1.499 . S
N765 Co748 1.989 . S
N765 C764 1.342 . S
N765 N766 1.388 . S
N766 Co749 1.993 . S
N766 N765 1.388 . S
N766 C767 1.346 . S
C767 N766 1.346 . S
C767 C768 1.396 . S
C767 C777 1.510 . S
C768 C764 1.401 . S
C768 C767 1.396 . S
C769 C764 1.499 . S
C769 H770 0.959 . S
C769 H771 0.960 . S
C769 H772 0.961 . S
H770 C769 0.959 . S
H771 C769 0.960 . S
H772 C769 0.961 . S
O773 Co748 1.967 . S
O773 C781 1.258 . S
O774 Co749 1.941 . S
O774 C781 1.266 . S
H775 C777 0.959 . S
H776 C777 0.961 . S
C777 C767 1.510 . S
C777 H775 0.959 . S
C777 H776 0.961 . S
C777 H778 0.960 . S
H778 C777 0.960 . S
H779 N759 0.862 . S
O780 Co748 1.920 . S
O780 C753 1.257 1_655 S
C781 O773 1.258 . S
C781 O774 1.266 . S
Co782 O785 1.970 . S
Co782 N799 1.989 . S
Co782 O807 1.967 . S
Co782 O814 1.920 . S
Co783 O786 1.966 . S
Co783 N792 2.022 . S
Co783 N800 1.993 . S
Co783 O808 1.941 . S
C784 O785 1.258 . S
C784 O786 1.263 . S
O785 Co782 1.970 . S
O785 C784 1.258 . S
O786 Co783 1.966 . S
O786 C784 1.263 . S
C787 O788 1.235 . S
C787 O814 1.289 . S
O788 C787 1.235 . S
C789 C791 1.400 . S
C789 N792 1.351 . S
C789 C794 1.501 . S
C790 C791 1.387 . S
C790 N793 1.341 . S
C791 C789 1.400 . S
C791 C790 1.387 . S
N792 Co783 2.022 . S
N792 C789 1.351 . S
N792 N793 1.365 . S
N793 C790 1.341 . S
N793 N792 1.365 . S
N793 H813 0.862 . S
C794 C789 1.501 . S
C794 H795 0.961 . S
C794 H796 0.961 . S
C794 H797 0.960 . S
H795 C794 0.961 . S
H796 C794 0.961 . S
H797 C794 0.960 . S
C798 N799 1.342 . S
C798 C802 1.401 . S
C798 C803 1.499 . S
N799 Co782 1.989 . S
N799 C798 1.342 . S
N799 N800 1.388 . S
N800 Co783 1.993 . S
N800 N799 1.388 . S
N800 C801 1.346 . S
C801 N800 1.346 . S
C801 C802 1.396 . S
C801 C811 1.510 . S
C802 C798 1.401 . S
C802 C801 1.396 . S
C803 C798 1.499 . S
C803 H804 0.959 . S
C803 H805 0.960 . S
C803 H806 0.961 . S
H804 C803 0.959 . S
H805 C803 0.960 . S
H806 C803 0.961 . S
O807 Co782 1.967 . S
O807 C815 1.258 . S
O808 Co783 1.941 . S
O808 C815 1.266 . S
H809 C811 0.959 . S
H810 C811 0.961 . S
C811 C801 1.510 . S
C811 H809 0.959 . S
C811 H810 0.961 . S
C811 H812 0.960 . S
H812 C811 0.960 . S
H813 N793 0.862 . S
O814 Co782 1.920 . S
O814 C787 1.289 . S
C815 O807 1.258 . S
C815 O808 1.266 . S
Co816 O819 1.970 . S
Co816 N833 1.989 . S
Co816 O841 1.967 . S
Co816 O848 1.920 . S
Co817 O820 1.966 . S
Co817 N826 2.022 . S
Co817 N834 1.993 . S
Co817 O842 1.941 . S
C818 O819 1.258 . S
C818 O820 1.263 . S
O819 Co816 1.970 . S
O819 C818 1.258 . S
O820 Co817 1.966 . S
O820 C818 1.263 . S
C821 O822 1.235 . S
C821 O848 1.289 . S
O822 C821 1.235 . S
C823 C825 1.400 . S
C823 N826 1.351 . S
C823 C828 1.501 . S
C824 C825 1.387 . S
C824 N827 1.341 . S
C825 C823 1.400 . S
C825 C824 1.387 . S
N826 Co817 2.022 . S
N826 C823 1.351 . S
N826 N827 1.365 . S
N827 C824 1.341 . S
N827 N826 1.365 . S
N827 H847 0.862 . S
C828 C823 1.501 . S
C828 H829 0.961 . S
C828 H830 0.961 . S
C828 H831 0.960 . S
H829 C828 0.961 . S
H830 C828 0.961 . S
H831 C828 0.960 . S
C832 N833 1.342 . S
C832 C836 1.401 . S
C832 C837 1.499 . S
N833 Co816 1.989 . S
N833 C832 1.342 . S
N833 N834 1.388 . S
N834 Co817 1.993 . S
N834 N833 1.388 . S
N834 C835 1.346 . S
C835 N834 1.346 . S
C835 C836 1.396 . S
C835 C845 1.510 . S
C836 C832 1.401 . S
C836 C835 1.396 . S
C837 C832 1.499 . S
C837 H838 0.959 . S
C837 H839 0.960 . S
C837 H840 0.961 . S
H838 C837 0.959 . S
H839 C837 0.960 . S
H840 C837 0.961 . S
O841 Co816 1.967 . S
O841 C849 1.258 . S
O842 Co817 1.941 . S
O842 C849 1.266 . S
H843 C845 0.959 . S
H844 C845 0.961 . S
C845 C835 1.510 . S
C845 H843 0.959 . S
C845 H844 0.961 . S
C845 H846 0.960 . S
H846 C845 0.960 . S
H847 N827 0.862 . S
O848 Co816 1.920 . S
O848 C821 1.289 . S
C849 O841 1.258 . S
C849 O842 1.266 . S
Co850 O853 1.970 . S
Co850 N867 1.989 . S
Co850 O875 1.967 . S
Co850 O882 1.920 . S
Co851 O854 1.966 . S
Co851 N860 2.022 . S
Co851 N868 1.993 . S
Co851 O876 1.941 . S
C852 O853 1.258 . S
C852 O854 1.263 . S
O853 Co850 1.970 . S
O853 C852 1.258 . S
O854 Co851 1.966 . S
O854 C852 1.263 . S
C855 O856 1.235 . S
C855 O882 1.289 . S
O856 C855 1.235 . S
C857 C859 1.400 . S
C857 N860 1.351 . S
C857 C862 1.501 . S
C858 C859 1.387 . S
C858 N861 1.341 . S
C859 C857 1.400 . S
C859 C858 1.387 . S
N860 Co851 2.022 . S
N860 C857 1.351 . S
N860 N861 1.365 . S
N861 C858 1.341 . S
N861 N860 1.365 . S
N861 H881 0.862 . S
C862 C857 1.501 . S
C862 H863 0.961 . S
C862 H864 0.961 . S
C862 H865 0.960 . S
H863 C862 0.961 . S
H864 C862 0.961 . S
H865 C862 0.960 . S
C866 N867 1.342 . S
C866 C870 1.401 . S
C866 C871 1.499 . S
N867 Co850 1.989 . S
N867 C866 1.342 . S
N867 N868 1.388 . S
N868 Co851 1.993 . S
N868 N867 1.388 . S
N868 C869 1.346 . S
C869 N868 1.346 . S
C869 C870 1.396 . S
C869 C879 1.510 . S
C870 C866 1.401 . S
C870 C869 1.396 . S
C871 C866 1.499 . S
C871 H872 0.959 . S
C871 H873 0.960 . S
C871 H874 0.961 . S
H872 C871 0.959 . S
H873 C871 0.960 . S
H874 C871 0.961 . S
O875 Co850 1.967 . S
O875 C883 1.258 . S
O876 Co851 1.941 . S
O876 C883 1.266 . S
H877 C879 0.959 . S
H878 C879 0.961 . S
C879 C869 1.510 . S
C879 H877 0.959 . S
C879 H878 0.961 . S
C879 H880 0.960 . S
H880 C879 0.960 . S
H881 N861 0.862 . S
O882 Co850 1.920 . S
O882 C855 1.289 . S
C883 O875 1.258 . S
C883 O876 1.266 . S
Co884 O887 1.970 . S
Co884 N901 1.989 . S
Co884 O909 1.967 . S
Co884 O916 1.920 . S
Co885 O888 1.966 . S
Co885 N894 2.022 . S
Co885 N902 1.993 . S
Co885 O910 1.941 . S
C886 O887 1.258 . S
C886 O888 1.263 . S
O887 Co884 1.970 . S
O887 C886 1.258 . S
O888 Co885 1.966 . S
O888 C886 1.263 . S
C889 O890 1.235 . S
C889 O916 1.289 . S
O890 C889 1.235 . S
C891 C893 1.400 . S
C891 N894 1.351 . S
C891 C896 1.501 . S
C892 C893 1.387 . S
C892 N895 1.341 . S
C893 C891 1.400 . S
C893 C892 1.387 . S
N894 Co885 2.022 . S
N894 C891 1.351 . S
N894 N895 1.365 . S
N895 C892 1.341 . S
N895 N894 1.365 . S
N895 H915 0.862 . S
C896 C891 1.501 . S
C896 H897 0.961 . S
C896 H898 0.961 . S
C896 H899 0.960 . S
H897 C896 0.961 . S
H898 C896 0.961 . S
H899 C896 0.960 . S
C900 N901 1.342 . S
C900 C904 1.401 . S
C900 C905 1.499 . S
N901 Co884 1.989 . S
N901 C900 1.342 . S
N901 N902 1.388 . S
N902 Co885 1.993 . S
N902 N901 1.388 . S
N902 C903 1.346 . S
C903 N902 1.346 . S
C903 C904 1.396 . S
C903 C913 1.510 . S
C904 C900 1.401 . S
C904 C903 1.396 . S
C905 C900 1.499 . S
C905 H906 0.959 . S
C905 H907 0.960 . S
C905 H908 0.961 . S
H906 C905 0.959 . S
H907 C905 0.960 . S
H908 C905 0.961 . S
O909 Co884 1.967 . S
O909 C917 1.258 . S
O910 Co885 1.941 . S
O910 C917 1.266 . S
H911 C913 0.959 . S
H912 C913 0.961 . S
C913 C903 1.510 . S
C913 H911 0.959 . S
C913 H912 0.961 . S
C913 H914 0.960 . S
H914 C913 0.960 . S
H915 N895 0.862 . S
O916 Co884 1.920 . S
O916 C889 1.289 . S
C917 O909 1.258 . S
C917 O910 1.266 . S
Co918 O921 1.970 . S
Co918 N935 1.989 . S
Co918 O943 1.967 . S
Co918 O950 1.920 . S
Co919 O922 1.966 . S
Co919 N928 2.022 . S
Co919 N936 1.993 . S
Co919 O944 1.941 . S
C920 O921 1.258 . S
C920 O922 1.263 . S
O921 Co918 1.970 . S
O921 C920 1.258 . S
O922 Co919 1.966 . S
O922 C920 1.263 . S
C923 O924 1.267 . S
C923 O950 1.259 1_545 S
O924 C923 1.267 . S
C925 C927 1.400 . S
C925 N928 1.351 . S
C925 C930 1.501 . S
C926 C927 1.387 . S
C926 N929 1.341 . S
C927 C925 1.400 . S
C927 C926 1.387 . S
N928 Co919 2.022 . S
N928 C925 1.351 . S
N928 N929 1.365 . S
N929 C926 1.341 . S
N929 N928 1.365 . S
N929 H949 0.862 . S
C930 C925 1.501 . S
C930 H931 0.961 . S
C930 H932 0.961 . S
C930 H933 0.960 . S
H931 C930 0.961 . S
H932 C930 0.961 . S
H933 C930 0.960 . S
C934 N935 1.342 . S
C934 C938 1.401 . S
C934 C939 1.499 . S
N935 Co918 1.989 . S
N935 C934 1.342 . S
N935 N936 1.388 . S
N936 Co919 1.993 . S
N936 N935 1.388 . S
N936 C937 1.346 . S
C937 N936 1.346 . S
C937 C938 1.396 . S
C937 C947 1.510 . S
C938 C934 1.401 . S
C938 C937 1.396 . S
C939 C934 1.499 . S
C939 H940 0.959 . S
C939 H941 0.960 . S
C939 H942 0.961 . S
H940 C939 0.959 . S
H941 C939 0.960 . S
H942 C939 0.961 . S
O943 Co918 1.967 . S
O943 C951 1.258 . S
O944 Co919 1.941 . S
O944 C951 1.266 . S
H945 C947 0.959 . S
H946 C947 0.961 . S
C947 C937 1.510 . S
C947 H945 0.959 . S
C947 H946 0.961 . S
C947 H948 0.960 . S
H948 C947 0.960 . S
H949 N929 0.862 . S
O950 Co918 1.920 . S
O950 C923 1.259 1_565 S
C951 O943 1.258 . S
C951 O944 1.266 . S
Co952 O955 1.970 . S
Co952 N969 1.989 . S
Co952 O977 1.967 . S
Co952 O984 1.920 . S
Co953 O956 1.966 . S
Co953 N962 2.022 . S
Co953 N970 1.993 . S
Co953 O978 1.941 . S
C954 O955 1.258 . S
C954 O956 1.263 . S
O955 Co952 1.970 . S
O955 C954 1.258 . S
O956 Co953 1.966 . S
O956 C954 1.263 . S
C957 O958 1.240 . S
C957 O984 1.257 1_655 S
O958 C957 1.240 . S
C959 C961 1.400 . S
C959 N962 1.351 . S
C959 C964 1.501 . S
C960 C961 1.387 . S
C960 N963 1.341 . S
C961 C959 1.400 . S
C961 C960 1.387 . S
N962 Co953 2.022 . S
N962 C959 1.351 . S
N962 N963 1.365 . S
N963 C960 1.341 . S
N963 N962 1.365 . S
N963 H983 0.862 . S
C964 C959 1.501 . S
C964 H965 0.961 . S
C964 H966 0.961 . S
C964 H967 0.960 . S
H965 C964 0.961 . S
H966 C964 0.961 . S
H967 C964 0.960 . S
C968 N969 1.342 . S
C968 C972 1.401 . S
C968 C973 1.499 . S
N969 Co952 1.989 . S
N969 C968 1.342 . S
N969 N970 1.388 . S
N970 Co953 1.993 . S
N970 N969 1.388 . S
N970 C971 1.346 . S
C971 N970 1.346 . S
C971 C972 1.396 . S
C971 C981 1.510 . S
C972 C968 1.401 . S
C972 C971 1.396 . S
C973 C968 1.499 . S
C973 H974 0.959 . S
C973 H975 0.960 . S
C973 H976 0.961 . S
H974 C973 0.959 . S
H975 C973 0.960 . S
H976 C973 0.961 . S
O977 Co952 1.967 . S
O977 C985 1.258 . S
O978 Co953 1.941 . S
O978 C985 1.266 . S
H979 C981 0.959 . S
H980 C981 0.961 . S
C981 C971 1.510 . S
C981 H979 0.959 . S
C981 H980 0.961 . S
C981 H982 0.960 . S
H982 C981 0.960 . S
H983 N963 0.862 . S
O984 Co952 1.920 . S
O984 C957 1.257 1_455 S
C985 O977 1.258 . S
C985 O978 1.266 . S
Co986 O989 1.970 . S
Co986 N1003 1.989 . S
Co986 O1011 1.967 . S
Co986 O1018 1.920 . S
Co987 O990 1.966 . S
Co987 N996 2.022 . S
Co987 N1004 1.993 . S
Co987 O1012 1.941 . S
C988 O989 1.258 . S
C988 O990 1.263 . S
O989 Co986 1.970 . S
O989 C988 1.258 . S
O990 Co987 1.966 . S
O990 C988 1.263 . S
C991 O992 1.235 . S
C991 O1018 1.289 . S
O992 C991 1.235 . S
C993 C995 1.400 . S
C993 N996 1.351 . S
C993 C998 1.501 . S
C994 C995 1.387 . S
C994 N997 1.341 . S
C995 C993 1.400 . S
C995 C994 1.387 . S
N996 Co987 2.022 . S
N996 C993 1.351 . S
N996 N997 1.365 . S
N997 C994 1.341 . S
N997 N996 1.365 . S
N997 H1017 0.862 . S
C998 C993 1.501 . S
C998 H999 0.961 . S
C998 H1000 0.961 . S
C998 H1001 0.960 . S
H999 C998 0.961 . S
H1000 C998 0.961 . S
H1001 C998 0.960 . S
C1002 N1003 1.342 . S
C1002 C1006 1.401 . S
C1002 C1007 1.499 . S
N1003 Co986 1.989 . S
N1003 C1002 1.342 . S
N1003 N1004 1.388 . S
N1004 Co987 1.993 . S
N1004 N1003 1.388 . S
N1004 C1005 1.346 . S
C1005 N1004 1.346 . S
C1005 C1006 1.396 . S
C1005 C1015 1.510 . S
C1006 C1002 1.401 . S
C1006 C1005 1.396 . S
C1007 C1002 1.499 . S
C1007 H1008 0.959 . S
C1007 H1009 0.960 . S
C1007 H1010 0.961 . S
H1008 C1007 0.959 . S
H1009 C1007 0.960 . S
H1010 C1007 0.961 . S
O1011 Co986 1.967 . S
O1011 C1019 1.258 . S
O1012 Co987 1.941 . S
O1012 C1019 1.266 . S
H1013 C1015 0.959 . S
H1014 C1015 0.961 . S
C1015 C1005 1.510 . S
C1015 H1013 0.959 . S
C1015 H1014 0.961 . S
C1015 H1016 0.960 . S
H1016 C1015 0.960 . S
H1017 N997 0.862 . S
O1018 Co986 1.920 . S
O1018 C991 1.289 . S
C1019 O1011 1.258 . S
C1019 O1012 1.266 . S
Co1020 O1023 1.970 . S
Co1020 N1037 1.989 . S
Co1020 O1045 1.967 . S
Co1020 O1052 1.920 . S
Co1021 O1024 1.966 . S
Co1021 N1030 2.022 . S
Co1021 N1038 1.993 . S
Co1021 O1046 1.941 . S
C1022 O1023 1.258 . S
C1022 O1024 1.263 . S
O1023 Co1020 1.970 . S
O1023 C1022 1.258 . S
O1024 Co1021 1.966 . S
O1024 C1022 1.263 . S
C1025 O1026 1.267 . S
C1025 O1052 1.259 1_655 S
O1026 C1025 1.267 . S
C1027 C1029 1.400 . S
C1027 N1030 1.351 . S
C1027 C1032 1.501 . S
C1028 C1029 1.387 . S
C1028 N1031 1.341 . S
C1029 C1027 1.400 . S
C1029 C1028 1.387 . S
N1030 Co1021 2.022 . S
N1030 C1027 1.351 . S
N1030 N1031 1.365 . S
N1031 C1028 1.341 . S
N1031 N1030 1.365 . S
N1031 H1051 0.862 . S
C1032 C1027 1.501 . S
C1032 H1033 0.961 . S
C1032 H1034 0.961 . S
C1032 H1035 0.960 . S
H1033 C1032 0.961 . S
H1034 C1032 0.961 . S
H1035 C1032 0.960 . S
C1036 N1037 1.342 . S
C1036 C1040 1.401 . S
C1036 C1041 1.499 . S
N1037 Co1020 1.989 . S
N1037 C1036 1.342 . S
N1037 N1038 1.388 . S
N1038 Co1021 1.993 . S
N1038 N1037 1.388 . S
N1038 C1039 1.346 . S
C1039 N1038 1.346 . S
C1039 C1040 1.396 . S
C1039 C1049 1.510 . S
C1040 C1036 1.401 . S
C1040 C1039 1.396 . S
C1041 C1036 1.499 . S
C1041 H1042 0.959 . S
C1041 H1043 0.960 . S
C1041 H1044 0.961 . S
H1042 C1041 0.959 . S
H1043 C1041 0.960 . S
H1044 C1041 0.961 . S
O1045 Co1020 1.967 . S
O1045 C1053 1.258 . S
O1046 Co1021 1.941 . S
O1046 C1053 1.266 . S
H1047 C1049 0.959 . S
H1048 C1049 0.961 . S
C1049 C1039 1.510 . S
C1049 H1047 0.959 . S
C1049 H1048 0.961 . S
C1049 H1050 0.960 . S
H1050 C1049 0.960 . S
H1051 N1031 0.862 . S
O1052 Co1020 1.920 . S
O1052 C1025 1.259 1_455 S
C1053 O1045 1.258 . S
C1053 O1046 1.266 . S
Co1054 O1057 1.970 . S
Co1054 N1071 1.989 . S
Co1054 O1079 1.967 . S
Co1054 O1086 1.920 . S
Co1055 O1058 1.966 . S
Co1055 N1064 2.022 . S
Co1055 N1072 1.993 . S
Co1055 O1080 1.941 . S
C1056 O1057 1.258 . S
C1056 O1058 1.263 . S
O1057 Co1054 1.970 . S
O1057 C1056 1.258 . S
O1058 Co1055 1.966 . S
O1058 C1056 1.263 . S
C1059 O1060 1.235 . S
C1059 O1086 1.289 . S
O1060 C1059 1.235 . S
C1061 C1063 1.400 . S
C1061 N1064 1.351 . S
C1061 C1066 1.501 . S
C1062 C1063 1.387 . S
C1062 N1065 1.341 . S
C1063 C1061 1.400 . S
C1063 C1062 1.387 . S
N1064 Co1055 2.022 . S
N1064 C1061 1.351 . S
N1064 N1065 1.365 . S
N1065 C1062 1.341 . S
N1065 N1064 1.365 . S
N1065 H1085 0.862 . S
C1066 C1061 1.501 . S
C1066 H1067 0.961 . S
C1066 H1068 0.961 . S
C1066 H1069 0.960 . S
H1067 C1066 0.961 . S
H1068 C1066 0.961 . S
H1069 C1066 0.960 . S
C1070 N1071 1.342 . S
C1070 C1074 1.401 . S
C1070 C1075 1.499 . S
N1071 Co1054 1.989 . S
N1071 C1070 1.342 . S
N1071 N1072 1.388 . S
N1072 Co1055 1.993 . S
N1072 N1071 1.388 . S
N1072 C1073 1.346 . S
C1073 N1072 1.346 . S
C1073 C1074 1.396 . S
C1073 C1083 1.510 . S
C1074 C1070 1.401 . S
C1074 C1073 1.396 . S
C1075 C1070 1.499 . S
C1075 H1076 0.959 . S
C1075 H1077 0.960 . S
C1075 H1078 0.961 . S
H1076 C1075 0.959 . S
H1077 C1075 0.960 . S
H1078 C1075 0.961 . S
O1079 Co1054 1.967 . S
O1079 C1087 1.258 . S
O1080 Co1055 1.941 . S
O1080 C1087 1.266 . S
H1081 C1083 0.959 . S
H1082 C1083 0.961 . S
C1083 C1073 1.510 . S
C1083 H1081 0.959 . S
C1083 H1082 0.961 . S
C1083 H1084 0.960 . S
H1084 C1083 0.960 . S
H1085 N1065 0.862 . S
O1086 Co1054 1.920 . S
O1086 C1059 1.289 . S
C1087 O1079 1.258 . S
C1087 O1080 1.266 . S
Co1088 O1091 1.970 . S
Co1088 N1105 1.989 . S
Co1088 O1113 1.967 . S
Co1088 O1120 1.920 . S
Co1089 O1092 1.966 . S
Co1089 N1098 2.022 . S
Co1089 N1106 1.993 . S
Co1089 O1114 1.941 . S
C1090 O1091 1.258 . S
C1090 O1092 1.263 . S
O1091 Co1088 1.970 . S
O1091 C1090 1.258 . S
O1092 Co1089 1.966 . S
O1092 C1090 1.263 . S
C1093 O1094 1.240 . S
C1093 O1120 1.257 1_545 S
O1094 C1093 1.240 . S
C1095 C1097 1.400 . S
C1095 N1098 1.351 . S
C1095 C1100 1.501 . S
C1096 C1097 1.387 . S
C1096 N1099 1.341 . S
C1097 C1095 1.400 . S
C1097 C1096 1.387 . S
N1098 Co1089 2.022 . S
N1098 C1095 1.351 . S
N1098 N1099 1.365 . S
N1099 C1096 1.341 . S
N1099 N1098 1.365 . S
N1099 H1119 0.862 . S
C1100 C1095 1.501 . S
C1100 H1101 0.961 . S
C1100 H1102 0.961 . S
C1100 H1103 0.960 . S
H1101 C1100 0.961 . S
H1102 C1100 0.961 . S
H1103 C1100 0.960 . S
C1104 N1105 1.342 . S
C1104 C1108 1.401 . S
C1104 C1109 1.499 . S
N1105 Co1088 1.989 . S
N1105 C1104 1.342 . S
N1105 N1106 1.388 . S
N1106 Co1089 1.993 . S
N1106 N1105 1.388 . S
N1106 C1107 1.346 . S
C1107 N1106 1.346 . S
C1107 C1108 1.396 . S
C1107 C1117 1.510 . S
C1108 C1104 1.401 . S
C1108 C1107 1.396 . S
C1109 C1104 1.499 . S
C1109 H1110 0.959 . S
C1109 H1111 0.960 . S
C1109 H1112 0.961 . S
H1110 C1109 0.959 . S
H1111 C1109 0.960 . S
H1112 C1109 0.961 . S
O1113 Co1088 1.967 . S
O1113 C1121 1.258 . S
O1114 Co1089 1.941 . S
O1114 C1121 1.266 . S
H1115 C1117 0.959 . S
H1116 C1117 0.961 . S
C1117 C1107 1.510 . S
C1117 H1115 0.959 . S
C1117 H1116 0.961 . S
C1117 H1118 0.960 . S
H1118 C1117 0.960 . S
H1119 N1099 0.862 . S
O1120 Co1088 1.920 . S
O1120 C1093 1.257 1_565 S
C1121 O1113 1.258 . S
C1121 O1114 1.266 . S
Co1122 O1125 1.970 . S
Co1122 N1139 1.989 . S
Co1122 O1147 1.967 . S
Co1122 O1154 1.920 . S
Co1123 O1126 1.966 . S
Co1123 N1132 2.022 . S
Co1123 N1140 1.993 . S
Co1123 O1148 1.941 . S
C1124 O1125 1.258 . S
C1124 O1126 1.263 . S
O1125 Co1122 1.970 . S
O1125 C1124 1.258 . S
O1126 Co1123 1.966 . S
O1126 C1124 1.263 . S
C1127 O1128 1.235 . S
C1127 O1154 1.289 . S
O1128 C1127 1.235 . S
C1129 C1131 1.400 . S
C1129 N1132 1.351 . S
C1129 C1134 1.501 . S
C1130 C1131 1.387 . S
C1130 N1133 1.341 . S
C1131 C1129 1.400 . S
C1131 C1130 1.387 . S
N1132 Co1123 2.022 . S
N1132 C1129 1.351 . S
N1132 N1133 1.365 . S
N1133 C1130 1.341 . S
N1133 N1132 1.365 . S
N1133 H1153 0.862 . S
C1134 C1129 1.501 . S
C1134 H1135 0.961 . S
C1134 H1136 0.961 . S
C1134 H1137 0.960 . S
H1135 C1134 0.961 . S
H1136 C1134 0.961 . S
H1137 C1134 0.960 . S
C1138 N1139 1.342 . S
C1138 C1142 1.401 . S
C1138 C1143 1.499 . S
N1139 Co1122 1.989 . S
N1139 C1138 1.342 . S
N1139 N1140 1.388 . S
N1140 Co1123 1.993 . S
N1140 N1139 1.388 . S
N1140 C1141 1.346 . S
C1141 N1140 1.346 . S
C1141 C1142 1.396 . S
C1141 C1151 1.510 . S
C1142 C1138 1.401 . S
C1142 C1141 1.396 . S
C1143 C1138 1.499 . S
C1143 H1144 0.959 . S
C1143 H1145 0.960 . S
C1143 H1146 0.961 . S
H1144 C1143 0.959 . S
H1145 C1143 0.960 . S
H1146 C1143 0.961 . S
O1147 Co1122 1.967 . S
O1147 C1155 1.258 . S
O1148 Co1123 1.941 . S
O1148 C1155 1.266 . S
H1149 C1151 0.959 . S
H1150 C1151 0.961 . S
C1151 C1141 1.510 . S
C1151 H1149 0.959 . S
C1151 H1150 0.961 . S
C1151 H1152 0.960 . S
H1152 C1151 0.960 . S
H1153 N1133 0.862 . S
O1154 Co1122 1.920 . S
O1154 C1127 1.289 . S
C1155 O1147 1.258 . S
C1155 O1148 1.266 . S
Co1156 O1159 1.970 . S
Co1156 N1173 1.989 . S
Co1156 O1181 1.967 . S
Co1156 O1188 1.920 . S
Co1157 O1160 1.966 . S
Co1157 N1166 2.022 . S
Co1157 N1174 1.993 . S
Co1157 O1182 1.941 . S
C1158 O1159 1.258 . S
C1158 O1160 1.263 . S
O1159 Co1156 1.970 . S
O1159 C1158 1.258 . S
O1160 Co1157 1.966 . S
O1160 C1158 1.263 . S
C1161 O1162 1.235 . S
C1161 O1188 1.289 . S
O1162 C1161 1.235 . S
C1163 C1165 1.400 . S
C1163 N1166 1.351 . S
C1163 C1168 1.501 . S
C1164 C1165 1.387 . S
C1164 N1167 1.341 . S
C1165 C1163 1.400 . S
C1165 C1164 1.387 . S
N1166 Co1157 2.022 . S
N1166 C1163 1.351 . S
N1166 N1167 1.365 . S
N1167 C1164 1.341 . S
N1167 N1166 1.365 . S
N1167 H1187 0.862 . S
C1168 C1163 1.501 . S
C1168 H1169 0.961 . S
C1168 H1170 0.961 . S
C1168 H1171 0.960 . S
H1169 C1168 0.961 . S
H1170 C1168 0.961 . S
H1171 C1168 0.960 . S
C1172 N1173 1.342 . S
C1172 C1176 1.401 . S
C1172 C1177 1.499 . S
N1173 Co1156 1.989 . S
N1173 C1172 1.342 . S
N1173 N1174 1.388 . S
N1174 Co1157 1.993 . S
N1174 N1173 1.388 . S
N1174 C1175 1.346 . S
C1175 N1174 1.346 . S
C1175 C1176 1.396 . S
C1175 C1185 1.510 . S
C1176 C1172 1.401 . S
C1176 C1175 1.396 . S
C1177 C1172 1.499 . S
C1177 H1178 0.959 . S
C1177 H1179 0.960 . S
C1177 H1180 0.961 . S
H1178 C1177 0.959 . S
H1179 C1177 0.960 . S
H1180 C1177 0.961 . S
O1181 Co1156 1.967 . S
O1181 C1189 1.258 . S
O1182 Co1157 1.941 . S
O1182 C1189 1.266 . S
H1183 C1185 0.959 . S
H1184 C1185 0.961 . S
C1185 C1175 1.510 . S
C1185 H1183 0.959 . S
C1185 H1184 0.961 . S
C1185 H1186 0.960 . S
H1186 C1185 0.960 . S
H1187 N1167 0.862 . S
O1188 Co1156 1.920 . S
O1188 C1161 1.289 . S
C1189 O1181 1.258 . S
C1189 O1182 1.266 . S
Co1190 O1193 1.970 . S
Co1190 N1207 1.989 . S
Co1190 O1215 1.967 . S
Co1190 O1222 1.920 . S
Co1191 O1194 1.966 . S
Co1191 N1200 2.022 . S
Co1191 N1208 1.993 . S
Co1191 O1216 1.941 . S
C1192 O1193 1.258 . S
C1192 O1194 1.263 . S
O1193 Co1190 1.970 . S
O1193 C1192 1.258 . S
O1194 Co1191 1.966 . S
O1194 C1192 1.263 . S
C1195 O1196 1.235 . S
C1195 O1222 1.289 . S
O1196 C1195 1.235 . S
C1197 C1199 1.400 . S
C1197 N1200 1.351 . S
C1197 C1202 1.501 . S
C1198 C1199 1.387 . S
C1198 N1201 1.341 . S
C1199 C1197 1.400 . S
C1199 C1198 1.387 . S
N1200 Co1191 2.022 . S
N1200 C1197 1.351 . S
N1200 N1201 1.365 . S
N1201 C1198 1.341 . S
N1201 N1200 1.365 . S
N1201 H1221 0.862 . S
C1202 C1197 1.501 . S
C1202 H1203 0.961 . S
C1202 H1204 0.961 . S
C1202 H1205 0.960 . S
H1203 C1202 0.961 . S
H1204 C1202 0.961 . S
H1205 C1202 0.960 . S
C1206 N1207 1.342 . S
C1206 C1210 1.401 . S
C1206 C1211 1.499 . S
N1207 Co1190 1.989 . S
N1207 C1206 1.342 . S
N1207 N1208 1.388 . S
N1208 Co1191 1.993 . S
N1208 N1207 1.388 . S
N1208 C1209 1.346 . S
C1209 N1208 1.346 . S
C1209 C1210 1.396 . S
C1209 C1219 1.510 . S
C1210 C1206 1.401 . S
C1210 C1209 1.396 . S
C1211 C1206 1.499 . S
C1211 H1212 0.959 . S
C1211 H1213 0.960 . S
C1211 H1214 0.961 . S
H1212 C1211 0.959 . S
H1213 C1211 0.960 . S
H1214 C1211 0.961 . S
O1215 Co1190 1.967 . S
O1215 C1223 1.258 . S
O1216 Co1191 1.941 . S
O1216 C1223 1.266 . S
H1217 C1219 0.959 . S
H1218 C1219 0.961 . S
C1219 C1209 1.510 . S
C1219 H1217 0.959 . S
C1219 H1218 0.961 . S
C1219 H1220 0.960 . S
H1220 C1219 0.960 . S
H1221 N1201 0.862 . S
O1222 Co1190 1.920 . S
O1222 C1195 1.289 . S
C1223 O1215 1.258 . S
C1223 O1216 1.266 . S
H1224 C1236 0.930 . S
H1225 C1238 0.930 . S
H1226 C1239 0.930 . S
H1227 C1243 0.959 . S
H1228 C1243 0.959 . S
H1229 C1243 0.961 . S
H1230 C1244 0.960 . S
H1231 C1244 0.961 . S
H1232 C1244 0.959 . S
H1233 C1247 0.929 . S
H1234 C1248 0.931 . S
H1235 C1250 0.930 . S
C1236 H1224 0.930 . S
C1236 C1237 1.399 . S
C1236 C1241 1.399 . S
C1237 C1236 1.399 . S
C1237 C1238 1.376 . S
C1238 H1225 0.930 . S
C1238 C1237 1.376 . S
C1238 C1239 1.388 . S
C1239 H1226 0.930 . S
C1239 C1238 1.388 . S
C1239 C1240 1.390 . S
C1240 C1239 1.390 . S
C1240 C1241 1.394 . S
C1240 C1246 1.465 . S
C1241 C1236 1.399 . S
C1241 C1240 1.394 . S
C1241 C1242 1.516 . S
C1242 C1241 1.516 . S
C1242 C1243 1.502 . S
C1242 C1244 1.561 . S
C1242 C1245 1.526 . S
C1243 H1227 0.959 . S
C1243 H1228 0.959 . S
C1243 H1229 0.961 . S
C1243 C1242 1.502 . S
C1244 H1230 0.960 . S
C1244 H1231 0.961 . S
C1244 H1232 0.959 . S
C1244 C1242 1.561 . S
C1245 C1242 1.526 . S
C1245 C1246 1.396 . S
C1245 C1250 1.390 . S
C1246 C1240 1.465 . S
C1246 C1245 1.396 . S
C1246 C1247 1.399 . S
C1247 H1233 0.929 . S
C1247 C1246 1.399 . S
C1247 C1248 1.385 . S
C1248 H1234 0.931 . S
C1248 C1247 1.385 . S
C1248 C1249 1.389 . S
C1249 C1248 1.389 . S
C1249 C1250 1.387 . S
C1250 H1235 0.930 . S
C1250 C1245 1.390 . S
C1250 C1249 1.387 . S
H1251 C1263 0.930 . S
H1252 C1265 0.930 . S
H1253 C1266 0.930 . S
H1254 C1270 0.959 . S
H1255 C1270 0.959 . S
H1256 C1270 0.961 . S
H1257 C1271 0.960 . S
H1258 C1271 0.961 . S
H1259 C1271 0.959 . S
H1260 C1274 0.929 . S
H1261 C1275 0.931 . S
H1262 C1277 0.930 . S
C1263 H1251 0.930 . S
C1263 C1264 1.399 . S
C1263 C1268 1.399 . S
C1264 C1263 1.399 . S
C1264 C1265 1.376 . S
C1265 H1252 0.930 . S
C1265 C1264 1.376 . S
C1265 C1266 1.388 . S
C1266 H1253 0.930 . S
C1266 C1265 1.388 . S
C1266 C1267 1.390 . S
C1267 C1266 1.390 . S
C1267 C1268 1.394 . S
C1267 C1273 1.465 . S
C1268 C1263 1.399 . S
C1268 C1267 1.394 . S
C1268 C1269 1.516 . S
C1269 C1268 1.516 . S
C1269 C1270 1.502 . S
C1269 C1271 1.561 . S
C1269 C1272 1.526 . S
C1270 H1254 0.959 . S
C1270 H1255 0.959 . S
C1270 H1256 0.961 . S
C1270 C1269 1.502 . S
C1271 H1257 0.960 . S
C1271 H1258 0.961 . S
C1271 H1259 0.959 . S
C1271 C1269 1.561 . S
C1272 C1269 1.526 . S
C1272 C1273 1.396 . S
C1272 C1277 1.390 . S
C1273 C1267 1.465 . S
C1273 C1272 1.396 . S
C1273 C1274 1.399 . S
C1274 H1260 0.929 . S
C1274 C1273 1.399 . S
C1274 C1275 1.385 . S
C1275 H1261 0.931 . S
C1275 C1274 1.385 . S
C1275 C1276 1.389 . S
C1276 C1275 1.389 . S
C1276 C1277 1.387 . S
C1277 H1262 0.930 . S
C1277 C1272 1.390 . S
C1277 C1276 1.387 . S
H1278 C1290 0.930 . S
H1279 C1292 0.930 . S
H1280 C1293 0.930 . S
H1281 C1297 0.959 . S
H1282 C1297 0.959 . S
H1283 C1297 0.961 . S
H1284 C1298 0.960 . S
H1285 C1298 0.961 . S
H1286 C1298 0.959 . S
H1287 C1301 0.929 . S
H1288 C1302 0.931 . S
H1289 C1304 0.930 . S
C1290 H1278 0.930 . S
C1290 C1291 1.399 . S
C1290 C1295 1.399 . S
C1291 C1290 1.399 . S
C1291 C1292 1.376 . S
C1292 H1279 0.930 . S
C1292 C1291 1.376 . S
C1292 C1293 1.388 . S
C1293 H1280 0.930 . S
C1293 C1292 1.388 . S
C1293 C1294 1.390 . S
C1294 C1293 1.390 . S
C1294 C1295 1.394 . S
C1294 C1300 1.465 . S
C1295 C1290 1.399 . S
C1295 C1294 1.394 . S
C1295 C1296 1.516 . S
C1296 C1295 1.516 . S
C1296 C1297 1.502 . S
C1296 C1298 1.561 . S
C1296 C1299 1.526 . S
C1297 H1281 0.959 . S
C1297 H1282 0.959 . S
C1297 H1283 0.961 . S
C1297 C1296 1.502 . S
C1298 H1284 0.960 . S
C1298 H1285 0.961 . S
C1298 H1286 0.959 . S
C1298 C1296 1.561 . S
C1299 C1296 1.526 . S
C1299 C1300 1.396 . S
C1299 C1304 1.390 . S
C1300 C1294 1.465 . S
C1300 C1299 1.396 . S
C1300 C1301 1.399 . S
C1301 H1287 0.929 . S
C1301 C1300 1.399 . S
C1301 C1302 1.385 . S
C1302 H1288 0.931 . S
C1302 C1301 1.385 . S
C1302 C1303 1.389 . S
C1303 C1302 1.389 . S
C1303 C1304 1.387 . S
C1304 H1289 0.930 . S
C1304 C1299 1.390 . S
C1304 C1303 1.387 . S
H1305 C1317 0.930 . S
H1306 C1319 0.930 . S
H1307 C1320 0.930 . S
H1308 C1324 0.959 . S
H1309 C1324 0.959 . S
H1310 C1324 0.961 . S
H1311 C1325 0.960 . S
H1312 C1325 0.961 . S
H1313 C1325 0.959 . S
H1314 C1328 0.929 . S
H1315 C1329 0.931 . S
H1316 C1331 0.930 . S
C1317 H1305 0.930 . S
C1317 C1318 1.399 . S
C1317 C1322 1.399 . S
C1318 C1317 1.399 . S
C1318 C1319 1.376 . S
C1319 H1306 0.930 . S
C1319 C1318 1.376 . S
C1319 C1320 1.388 . S
C1320 H1307 0.930 . S
C1320 C1319 1.388 . S
C1320 C1321 1.390 . S
C1321 C1320 1.390 . S
C1321 C1322 1.394 . S
C1321 C1327 1.465 . S
C1322 C1317 1.399 . S
C1322 C1321 1.394 . S
C1322 C1323 1.516 . S
C1323 C1322 1.516 . S
C1323 C1324 1.502 . S
C1323 C1325 1.561 . S
C1323 C1326 1.526 . S
C1324 H1308 0.959 . S
C1324 H1309 0.959 . S
C1324 H1310 0.961 . S
C1324 C1323 1.502 . S
C1325 H1311 0.960 . S
C1325 H1312 0.961 . S
C1325 H1313 0.959 . S
C1325 C1323 1.561 . S
C1326 C1323 1.526 . S
C1326 C1327 1.396 . S
C1326 C1331 1.390 . S
C1327 C1321 1.465 . S
C1327 C1326 1.396 . S
C1327 C1328 1.399 . S
C1328 H1314 0.929 . S
C1328 C1327 1.399 . S
C1328 C1329 1.385 . S
C1329 H1315 0.931 . S
C1329 C1328 1.385 . S
C1329 C1330 1.389 . S
C1330 C1329 1.389 . S
C1330 C1331 1.387 . S
C1331 H1316 0.930 . S
C1331 C1326 1.390 . S
C1331 C1330 1.387 . S
H1332 C1344 0.930 . S
H1333 C1346 0.930 . S
H1334 C1347 0.930 . S
H1335 C1351 0.959 . S
H1336 C1351 0.959 . S
H1337 C1351 0.961 . S
H1338 C1352 0.960 . S
H1339 C1352 0.961 . S
H1340 C1352 0.959 . S
H1341 C1355 0.929 . S
H1342 C1356 0.931 . S
H1343 C1358 0.930 . S
C1344 H1332 0.930 . S
C1344 C1345 1.399 . S
C1344 C1349 1.399 . S
C1345 C1344 1.399 . S
C1345 C1346 1.376 . S
C1346 H1333 0.930 . S
C1346 C1345 1.376 . S
C1346 C1347 1.388 . S
C1347 H1334 0.930 . S
C1347 C1346 1.388 . S
C1347 C1348 1.390 . S
C1348 C1347 1.390 . S
C1348 C1349 1.394 . S
C1348 C1354 1.465 . S
C1349 C1344 1.399 . S
C1349 C1348 1.394 . S
C1349 C1350 1.516 . S
C1350 C1349 1.516 . S
C1350 C1351 1.502 . S
C1350 C1352 1.561 . S
C1350 C1353 1.526 . S
C1351 H1335 0.959 . S
C1351 H1336 0.959 . S
C1351 H1337 0.961 . S
C1351 C1350 1.502 . S
C1352 H1338 0.960 . S
C1352 H1339 0.961 . S
C1352 H1340 0.959 . S
C1352 C1350 1.561 . S
C1353 C1350 1.526 . S
C1353 C1354 1.396 . S
C1353 C1358 1.390 . S
C1354 C1348 1.465 . S
C1354 C1353 1.396 . S
C1354 C1355 1.399 . S
C1355 H1341 0.929 . S
C1355 C1354 1.399 . S
C1355 C1356 1.385 . S
C1356 H1342 0.931 . S
C1356 C1355 1.385 . S
C1356 C1357 1.389 . S
C1357 C1356 1.389 . S
C1357 C1358 1.387 . S
C1358 H1343 0.930 . S
C1358 C1353 1.390 . S
C1358 C1357 1.387 . S
H1359 C1371 0.930 . S
H1360 C1373 0.930 . S
H1361 C1374 0.930 . S
H1362 C1378 0.959 . S
H1363 C1378 0.959 . S
H1364 C1378 0.961 . S
H1365 C1379 0.960 . S
H1366 C1379 0.961 . S
H1367 C1379 0.959 . S
H1368 C1382 0.929 . S
H1369 C1383 0.931 . S
H1370 C1385 0.930 . S
C1371 H1359 0.930 . S
C1371 C1372 1.399 . S
C1371 C1376 1.399 . S
C1372 C1371 1.399 . S
C1372 C1373 1.376 . S
C1373 H1360 0.930 . S
C1373 C1372 1.376 . S
C1373 C1374 1.388 . S
C1374 H1361 0.930 . S
C1374 C1373 1.388 . S
C1374 C1375 1.390 . S
C1375 C1374 1.390 . S
C1375 C1376 1.394 . S
C1375 C1381 1.465 . S
C1376 C1371 1.399 . S
C1376 C1375 1.394 . S
C1376 C1377 1.516 . S
C1377 C1376 1.516 . S
C1377 C1378 1.502 . S
C1377 C1379 1.561 . S
C1377 C1380 1.526 . S
C1378 H1362 0.959 . S
C1378 H1363 0.959 . S
C1378 H1364 0.961 . S
C1378 C1377 1.502 . S
C1379 H1365 0.960 . S
C1379 H1366 0.961 . S
C1379 H1367 0.959 . S
C1379 C1377 1.561 . S
C1380 C1377 1.526 . S
C1380 C1381 1.396 . S
C1380 C1385 1.390 . S
C1381 C1375 1.465 . S
C1381 C1380 1.396 . S
C1381 C1382 1.399 . S
C1382 H1368 0.929 . S
C1382 C1381 1.399 . S
C1382 C1383 1.385 . S
C1383 H1369 0.931 . S
C1383 C1382 1.385 . S
C1383 C1384 1.389 . S
C1384 C1383 1.389 . S
C1384 C1385 1.387 . S
C1385 H1370 0.930 . S
C1385 C1380 1.390 . S
C1385 C1384 1.387 . S
H1386 C1398 0.930 . S
H1387 C1400 0.930 . S
H1388 C1401 0.930 . S
H1389 C1405 0.959 . S
H1390 C1405 0.959 . S
H1391 C1405 0.961 . S
H1392 C1406 0.960 . S
H1393 C1406 0.961 . S
H1394 C1406 0.959 . S
H1395 C1409 0.929 . S
H1396 C1410 0.931 . S
H1397 C1412 0.930 . S
C1398 H1386 0.930 . S
C1398 C1399 1.399 . S
C1398 C1403 1.399 . S
C1399 C1398 1.399 . S
C1399 C1400 1.376 . S
C1400 H1387 0.930 . S
C1400 C1399 1.376 . S
C1400 C1401 1.388 . S
C1401 H1388 0.930 . S
C1401 C1400 1.388 . S
C1401 C1402 1.390 . S
C1402 C1401 1.390 . S
C1402 C1403 1.394 . S
C1402 C1408 1.465 . S
C1403 C1398 1.399 . S
C1403 C1402 1.394 . S
C1403 C1404 1.516 . S
C1404 C1403 1.516 . S
C1404 C1405 1.502 . S
C1404 C1406 1.561 . S
C1404 C1407 1.526 . S
C1405 H1389 0.959 . S
C1405 H1390 0.959 . S
C1405 H1391 0.961 . S
C1405 C1404 1.502 . S
C1406 H1392 0.960 . S
C1406 H1393 0.961 . S
C1406 H1394 0.959 . S
C1406 C1404 1.561 . S
C1407 C1404 1.526 . S
C1407 C1408 1.396 . S
C1407 C1412 1.390 . S
C1408 C1402 1.465 . S
C1408 C1407 1.396 . S
C1408 C1409 1.399 . S
C1409 H1395 0.929 . S
C1409 C1408 1.399 . S
C1409 C1410 1.385 . S
C1410 H1396 0.931 . S
C1410 C1409 1.385 . S
C1410 C1411 1.389 . S
C1411 C1410 1.389 . S
C1411 C1412 1.387 . S
C1412 H1397 0.930 . S
C1412 C1407 1.390 . S
C1412 C1411 1.387 . S
H1413 C1425 0.930 . S
H1414 C1427 0.930 . S
H1415 C1428 0.930 . S
H1416 C1432 0.959 . S
H1417 C1432 0.959 . S
H1418 C1432 0.961 . S
H1419 C1433 0.960 . S
H1420 C1433 0.961 . S
H1421 C1433 0.959 . S
H1422 C1436 0.929 . S
H1423 C1437 0.931 . S
H1424 C1439 0.930 . S
C1425 H1413 0.930 . S
C1425 C1426 1.399 . S
C1425 C1430 1.399 . S
C1426 C1425 1.399 . S
C1426 C1427 1.376 . S
C1427 H1414 0.930 . S
C1427 C1426 1.376 . S
C1427 C1428 1.388 . S
C1428 H1415 0.930 . S
C1428 C1427 1.388 . S
C1428 C1429 1.390 . S
C1429 C1428 1.390 . S
C1429 C1430 1.394 . S
C1429 C1435 1.465 . S
C1430 C1425 1.399 . S
C1430 C1429 1.394 . S
C1430 C1431 1.516 . S
C1431 C1430 1.516 . S
C1431 C1432 1.502 . S
C1431 C1433 1.561 . S
C1431 C1434 1.526 . S
C1432 H1416 0.959 . S
C1432 H1417 0.959 . S
C1432 H1418 0.961 . S
C1432 C1431 1.502 . S
C1433 H1419 0.960 . S
C1433 H1420 0.961 . S
C1433 H1421 0.959 . S
C1433 C1431 1.561 . S
C1434 C1431 1.526 . S
C1434 C1435 1.396 . S
C1434 C1439 1.390 . S
C1435 C1429 1.465 . S
C1435 C1434 1.396 . S
C1435 C1436 1.399 . S
C1436 H1422 0.929 . S
C1436 C1435 1.399 . S
C1436 C1437 1.385 . S
C1437 H1423 0.931 . S
C1437 C1436 1.385 . S
C1437 C1438 1.389 . S
C1438 C1437 1.389 . S
C1438 C1439 1.387 . S
C1439 H1424 0.930 . S
C1439 C1434 1.390 . S
C1439 C1438 1.387 . S
H1440 C1452 0.930 . S
H1441 C1454 0.930 . S
H1442 C1455 0.930 . S
H1443 C1459 0.959 . S
H1444 C1459 0.959 . S
H1445 C1459 0.961 . S
H1446 C1460 0.960 . S
H1447 C1460 0.961 . S
H1448 C1460 0.959 . S
H1449 C1463 0.929 . S
H1450 C1464 0.931 . S
H1451 C1466 0.930 . S
C1452 H1440 0.930 . S
C1452 C1453 1.399 . S
C1452 C1457 1.399 . S
C1453 C1452 1.399 . S
C1453 C1454 1.376 . S
C1454 H1441 0.930 . S
C1454 C1453 1.376 . S
C1454 C1455 1.388 . S
C1455 H1442 0.930 . S
C1455 C1454 1.388 . S
C1455 C1456 1.390 . S
C1456 C1455 1.390 . S
C1456 C1457 1.394 . S
C1456 C1462 1.465 . S
C1457 C1452 1.399 . S
C1457 C1456 1.394 . S
C1457 C1458 1.516 . S
C1458 C1457 1.516 . S
C1458 C1459 1.502 . S
C1458 C1460 1.561 . S
C1458 C1461 1.526 . S
C1459 H1443 0.959 . S
C1459 H1444 0.959 . S
C1459 H1445 0.961 . S
C1459 C1458 1.502 . S
C1460 H1446 0.960 . S
C1460 H1447 0.961 . S
C1460 H1448 0.959 . S
C1460 C1458 1.561 . S
C1461 C1458 1.526 . S
C1461 C1462 1.396 . S
C1461 C1466 1.390 . S
C1462 C1456 1.465 . S
C1462 C1461 1.396 . S
C1462 C1463 1.399 . S
C1463 H1449 0.929 . S
C1463 C1462 1.399 . S
C1463 C1464 1.385 . S
C1464 H1450 0.931 . S
C1464 C1463 1.385 . S
C1464 C1465 1.389 . S
C1465 C1464 1.389 . S
C1465 C1466 1.387 . S
C1466 H1451 0.930 . S
C1466 C1461 1.390 . S
C1466 C1465 1.387 . S
H1467 C1479 0.930 . S
H1468 C1481 0.930 . S
H1469 C1482 0.930 . S
H1470 C1486 0.959 . S
H1471 C1486 0.959 . S
H1472 C1486 0.961 . S
H1473 C1487 0.960 . S
H1474 C1487 0.961 . S
H1475 C1487 0.959 . S
H1476 C1490 0.929 . S
H1477 C1491 0.931 . S
H1478 C1493 0.930 . S
C1479 H1467 0.930 . S
C1479 C1480 1.399 . S
C1479 C1484 1.399 . S
C1480 C1479 1.399 . S
C1480 C1481 1.376 . S
C1481 H1468 0.930 . S
C1481 C1480 1.376 . S
C1481 C1482 1.388 . S
C1482 H1469 0.930 . S
C1482 C1481 1.388 . S
C1482 C1483 1.390 . S
C1483 C1482 1.390 . S
C1483 C1484 1.394 . S
C1483 C1489 1.465 . S
C1484 C1479 1.399 . S
C1484 C1483 1.394 . S
C1484 C1485 1.516 . S
C1485 C1484 1.516 . S
C1485 C1486 1.502 . S
C1485 C1487 1.561 . S
C1485 C1488 1.526 . S
C1486 H1470 0.959 . S
C1486 H1471 0.959 . S
C1486 H1472 0.961 . S
C1486 C1485 1.502 . S
C1487 H1473 0.960 . S
C1487 H1474 0.961 . S
C1487 H1475 0.959 . S
C1487 C1485 1.561 . S
C1488 C1485 1.526 . S
C1488 C1489 1.396 . S
C1488 C1493 1.390 . S
C1489 C1483 1.465 . S
C1489 C1488 1.396 . S
C1489 C1490 1.399 . S
C1490 H1476 0.929 . S
C1490 C1489 1.399 . S
C1490 C1491 1.385 . S
C1491 H1477 0.931 . S
C1491 C1490 1.385 . S
C1491 C1492 1.389 . S
C1492 C1491 1.389 . S
C1492 C1493 1.387 . S
C1493 H1478 0.930 . S
C1493 C1488 1.390 . S
C1493 C1492 1.387 . S
H1494 C1506 0.930 . S
H1495 C1508 0.930 . S
H1496 C1509 0.930 . S
H1497 C1513 0.959 . S
H1498 C1513 0.959 . S
H1499 C1513 0.961 . S
H1500 C1514 0.960 . S
H1501 C1514 0.961 . S
H1502 C1514 0.959 . S
H1503 C1517 0.929 . S
H1504 C1518 0.931 . S
H1505 C1520 0.930 . S
C1506 H1494 0.930 . S
C1506 C1507 1.399 . S
C1506 C1511 1.399 . S
C1507 C1506 1.399 . S
C1507 C1508 1.376 . S
C1508 H1495 0.930 . S
C1508 C1507 1.376 . S
C1508 C1509 1.388 . S
C1509 H1496 0.930 . S
C1509 C1508 1.388 . S
C1509 C1510 1.390 . S
C1510 C1509 1.390 . S
C1510 C1511 1.394 . S
C1510 C1516 1.465 . S
C1511 C1506 1.399 . S
C1511 C1510 1.394 . S
C1511 C1512 1.516 . S
C1512 C1511 1.516 . S
C1512 C1513 1.502 . S
C1512 C1514 1.561 . S
C1512 C1515 1.526 . S
C1513 H1497 0.959 . S
C1513 H1498 0.959 . S
C1513 H1499 0.961 . S
C1513 C1512 1.502 . S
C1514 H1500 0.960 . S
C1514 H1501 0.961 . S
C1514 H1502 0.959 . S
C1514 C1512 1.561 . S
C1515 C1512 1.526 . S
C1515 C1516 1.396 . S
C1515 C1520 1.390 . S
C1516 C1510 1.465 . S
C1516 C1515 1.396 . S
C1516 C1517 1.399 . S
C1517 H1503 0.929 . S
C1517 C1516 1.399 . S
C1517 C1518 1.385 . S
C1518 H1504 0.931 . S
C1518 C1517 1.385 . S
C1518 C1519 1.389 . S
C1519 C1518 1.389 . S
C1519 C1520 1.387 . S
C1520 H1505 0.930 . S
C1520 C1515 1.390 . S
C1520 C1519 1.387 . S
H1521 C1533 0.930 . S
H1522 C1535 0.930 . S
H1523 C1536 0.930 . S
H1524 C1540 0.959 . S
H1525 C1540 0.959 . S
H1526 C1540 0.961 . S
H1527 C1541 0.960 . S
H1528 C1541 0.961 . S
H1529 C1541 0.959 . S
H1530 C1544 0.929 . S
H1531 C1545 0.931 . S
H1532 C1547 0.930 . S
C1533 H1521 0.930 . S
C1533 C1534 1.399 . S
C1533 C1538 1.399 . S
C1534 C1533 1.399 . S
C1534 C1535 1.376 . S
C1535 H1522 0.930 . S
C1535 C1534 1.376 . S
C1535 C1536 1.388 . S
C1536 H1523 0.930 . S
C1536 C1535 1.388 . S
C1536 C1537 1.390 . S
C1537 C1536 1.390 . S
C1537 C1538 1.394 . S
C1537 C1543 1.465 . S
C1538 C1533 1.399 . S
C1538 C1537 1.394 . S
C1538 C1539 1.516 . S
C1539 C1538 1.516 . S
C1539 C1540 1.502 . S
C1539 C1541 1.561 . S
C1539 C1542 1.526 . S
C1540 H1524 0.959 . S
C1540 H1525 0.959 . S
C1540 H1526 0.961 . S
C1540 C1539 1.502 . S
C1541 H1527 0.960 . S
C1541 H1528 0.961 . S
C1541 H1529 0.959 . S
C1541 C1539 1.561 . S
C1542 C1539 1.526 . S
C1542 C1543 1.396 . S
C1542 C1547 1.390 . S
C1543 C1537 1.465 . S
C1543 C1542 1.396 . S
C1543 C1544 1.399 . S
C1544 H1530 0.929 . S
C1544 C1543 1.399 . S
C1544 C1545 1.385 . S
C1545 H1531 0.931 . S
C1545 C1544 1.385 . S
C1545 C1546 1.389 . S
C1546 C1545 1.389 . S
C1546 C1547 1.387 . S
C1547 H1532 0.930 . S
C1547 C1542 1.390 . S
C1547 C1546 1.387 . S
H1548 C1560 0.930 . S
H1549 C1562 0.930 . S
H1550 C1563 0.930 . S
H1551 C1567 0.959 . S
H1552 C1567 0.959 . S
H1553 C1567 0.961 . S
H1554 C1568 0.960 . S
H1555 C1568 0.961 . S
H1556 C1568 0.959 . S
H1557 C1571 0.929 . S
H1558 C1572 0.931 . S
H1559 C1574 0.930 . S
C1560 H1548 0.930 . S
C1560 C1561 1.399 . S
C1560 C1565 1.399 . S
C1561 C1560 1.399 . S
C1561 C1562 1.376 . S
C1562 H1549 0.930 . S
C1562 C1561 1.376 . S
C1562 C1563 1.388 . S
C1563 H1550 0.930 . S
C1563 C1562 1.388 . S
C1563 C1564 1.390 . S
C1564 C1563 1.390 . S
C1564 C1565 1.394 . S
C1564 C1570 1.465 1_655 S
C1565 C1560 1.399 . S
C1565 C1564 1.394 . S
C1565 C1566 1.519 . S
C1566 C1565 1.519 . S
C1566 C1567 1.497 1_655 S
C1566 C1568 1.563 . S
C1566 C1569 1.526 1_655 S
C1567 H1551 0.959 . S
C1567 H1552 0.959 . S
C1567 H1553 0.961 . S
C1567 C1566 1.497 1_455 S
C1568 H1554 0.960 . S
C1568 H1555 0.961 . S
C1568 H1556 0.959 . S
C1568 C1566 1.563 . S
C1569 C1566 1.526 1_455 S
C1569 C1570 1.396 . S
C1569 C1574 1.390 . S
C1570 C1564 1.465 1_455 S
C1570 C1569 1.396 . S
C1570 C1571 1.399 . S
C1571 H1557 0.929 . S
C1571 C1570 1.399 . S
C1571 C1572 1.385 . S
C1572 H1558 0.931 . S
C1572 C1571 1.385 . S
C1572 C1573 1.389 . S
C1573 C1572 1.389 . S
C1573 C1574 1.387 . S
C1574 H1559 0.930 . S
C1574 C1569 1.390 . S
C1574 C1573 1.387 . S
H1575 C1587 0.930 . S
H1576 C1589 0.930 . S
H1577 C1590 0.930 . S
H1578 C1594 0.959 . S
H1579 C1594 0.959 . S
H1580 C1594 0.961 . S
H1581 C1595 0.960 . S
H1582 C1595 0.961 . S
H1583 C1595 0.959 . S
H1584 C1598 0.929 . S
H1585 C1599 0.931 . S
H1586 C1601 0.930 . S
C1587 H1575 0.930 . S
C1587 C1588 1.399 . S
C1587 C1592 1.399 . S
C1588 C1587 1.399 . S
C1588 C1589 1.376 . S
C1589 H1576 0.930 . S
C1589 C1588 1.376 . S
C1589 C1590 1.388 . S
C1590 H1577 0.930 . S
C1590 C1589 1.388 . S
C1590 C1591 1.390 . S
C1591 C1590 1.390 . S
C1591 C1592 1.394 . S
C1591 C1597 1.465 . S
C1592 C1587 1.399 . S
C1592 C1591 1.394 . S
C1592 C1593 1.516 . S
C1593 C1592 1.516 . S
C1593 C1594 1.502 . S
C1593 C1595 1.561 . S
C1593 C1596 1.526 . S
C1594 H1578 0.959 . S
C1594 H1579 0.959 . S
C1594 H1580 0.961 . S
C1594 C1593 1.502 . S
C1595 H1581 0.960 . S
C1595 H1582 0.961 . S
C1595 H1583 0.959 . S
C1595 C1593 1.561 . S
C1596 C1593 1.526 . S
C1596 C1597 1.396 . S
C1596 C1601 1.390 . S
C1597 C1591 1.465 . S
C1597 C1596 1.396 . S
C1597 C1598 1.399 . S
C1598 H1584 0.929 . S
C1598 C1597 1.399 . S
C1598 C1599 1.385 . S
C1599 H1585 0.931 . S
C1599 C1598 1.385 . S
C1599 C1600 1.389 . S
C1600 C1599 1.389 . S
C1600 C1601 1.387 . S
C1601 H1586 0.930 . S
C1601 C1596 1.390 . S
C1601 C1600 1.387 . S
H1602 C1614 0.930 . S
H1603 C1616 0.930 . S
H1604 C1617 0.930 . S
H1605 C1621 0.959 . S
H1606 C1621 0.959 . S
H1607 C1621 0.961 . S
H1608 C1622 0.960 . S
H1609 C1622 0.961 . S
H1610 C1622 0.959 . S
H1611 C1625 0.929 . S
H1612 C1626 0.931 . S
H1613 C1628 0.930 1_565 S
C1614 H1602 0.930 . S
C1614 C1615 1.399 . S
C1614 C1619 1.399 . S
C1615 C1614 1.399 . S
C1615 C1616 1.376 1_565 S
C1616 H1603 0.930 . S
C1616 C1615 1.376 1_545 S
C1616 C1617 1.388 . S
C1617 H1604 0.930 . S
C1617 C1616 1.388 . S
C1617 C1618 1.390 . S
C1618 C1617 1.390 . S
C1618 C1619 1.394 1_545 S
C1618 C1624 1.465 . S
C1619 C1614 1.399 . S
C1619 C1618 1.394 1_565 S
C1619 C1620 1.516 . S
C1620 C1619 1.516 . S
C1620 C1621 1.502 . S
C1620 C1622 1.561 . S
C1620 C1623 1.526 . S
C1621 H1605 0.959 . S
C1621 H1606 0.959 . S
C1621 H1607 0.961 . S
C1621 C1620 1.502 . S
C1622 H1608 0.960 . S
C1622 H1609 0.961 . S
C1622 H1610 0.959 . S
C1622 C1620 1.561 . S
C1623 C1620 1.526 . S
C1623 C1624 1.396 1_565 S
C1623 C1628 1.390 1_565 S
C1624 C1618 1.465 . S
C1624 C1623 1.396 1_545 S
C1624 C1625 1.399 . S
C1625 H1611 0.929 . S
C1625 C1624 1.399 . S
C1625 C1626 1.385 . S
C1626 H1612 0.931 . S
C1626 C1625 1.385 . S
C1626 C1627 1.389 . S
C1627 C1626 1.389 . S
C1627 C1628 1.387 . S
C1628 H1613 0.930 1_545 S
C1628 C1623 1.390 1_545 S
C1628 C1627 1.387 . S
H1629 C1641 0.930 . S
H1630 C1643 0.930 . S
H1631 C1644 0.930 . S
H1632 C1648 0.959 . S
H1633 C1648 0.959 . S
H1634 C1648 0.961 . S
H1635 C1649 0.960 . S
H1636 C1649 0.961 . S
H1637 C1649 0.959 . S
H1638 C1652 0.929 . S
H1639 C1653 0.931 . S
H1640 C1655 0.930 1_565 S
C1641 H1629 0.930 . S
C1641 C1642 1.399 . S
C1641 C1646 1.399 . S
C1642 C1641 1.399 . S
C1642 C1643 1.376 1_565 S
C1643 H1630 0.930 . S
C1643 C1642 1.376 1_545 S
C1643 C1644 1.388 . S
C1644 H1631 0.930 . S
C1644 C1643 1.388 . S
C1644 C1645 1.390 . S
C1645 C1644 1.390 . S
C1645 C1646 1.394 1_545 S
C1645 C1651 1.465 . S
C1646 C1641 1.399 . S
C1646 C1645 1.394 1_565 S
C1646 C1647 1.516 . S
C1647 C1646 1.516 . S
C1647 C1648 1.502 . S
C1647 C1649 1.561 . S
C1647 C1650 1.526 . S
C1648 H1632 0.959 . S
C1648 H1633 0.959 . S
C1648 H1634 0.961 . S
C1648 C1647 1.502 . S
C1649 H1635 0.960 . S
C1649 H1636 0.961 . S
C1649 H1637 0.959 . S
C1649 C1647 1.561 . S
C1650 C1647 1.526 . S
C1650 C1651 1.396 1_565 S
C1650 C1655 1.390 1_565 S
C1651 C1645 1.465 . S
C1651 C1650 1.396 1_545 S
C1651 C1652 1.399 . S
C1652 H1638 0.929 . S
C1652 C1651 1.399 . S
C1652 C1653 1.385 . S
C1653 H1639 0.931 . S
C1653 C1652 1.385 . S
C1653 C1654 1.389 . S
C1654 C1653 1.389 . S
C1654 C1655 1.387 . S
C1655 H1640 0.930 1_545 S
C1655 C1650 1.390 1_545 S
C1655 C1654 1.387 . S
H1656 C1668 0.930 . S
H1657 C1670 0.930 . S
H1658 C1671 0.930 . S
H1659 C1675 0.959 . S
H1660 C1675 0.959 . S
H1661 C1675 0.961 . S
H1662 C1676 0.956 1_455 S
H1663 C1676 0.958 . S
H1664 C1676 0.977 . S
H1665 C1679 0.929 . S
H1666 C1680 0.931 . S
H1667 C1682 0.930 . S
C1668 H1656 0.930 . S
C1668 C1669 1.399 . S
C1668 C1673 1.399 . S
C1669 C1668 1.399 . S
C1669 C1670 1.376 . S
C1670 H1657 0.930 . S
C1670 C1669 1.376 . S
C1670 C1671 1.388 1_455 S
C1671 H1658 0.930 . S
C1671 C1670 1.388 1_655 S
C1671 C1672 1.390 . S
C1672 C1671 1.390 . S
C1672 C1673 1.394 1_655 S
C1672 C1678 1.465 . S
C1673 C1668 1.399 . S
C1673 C1672 1.394 1_455 S
C1673 C1674 1.516 . S
C1674 C1673 1.516 . S
C1674 C1675 1.502 . S
C1674 C1676 1.541 1_455 S
C1674 C1677 1.526 1_455 S
C1675 H1659 0.959 . S
C1675 H1660 0.959 . S
C1675 H1661 0.961 . S
C1675 C1674 1.502 . S
C1676 H1662 0.956 1_655 S
C1676 H1663 0.958 . S
C1676 H1664 0.977 . S
C1676 C1674 1.541 1_655 S
C1677 C1674 1.526 1_655 S
C1677 C1678 1.396 . S
C1677 C1682 1.390 . S
C1678 C1672 1.465 . S
C1678 C1677 1.396 . S
C1678 C1679 1.399 . S
C1679 H1665 0.929 . S
C1679 C1678 1.399 . S
C1679 C1680 1.385 . S
C1680 H1666 0.931 . S
C1680 C1679 1.385 . S
C1680 C1681 1.389 . S
C1681 C1680 1.389 . S
C1681 C1682 1.387 . S
C1682 H1667 0.930 . S
C1682 C1677 1.390 . S
C1682 C1681 1.387 . S
H1683 C1695 0.930 . S
H1684 C1697 0.930 . S
H1685 C1698 0.930 . S
H1686 C1702 0.959 . S
H1687 C1702 0.959 . S
H1688 C1702 0.961 . S
H1689 C1703 0.960 . S
H1690 C1703 0.961 . S
H1691 C1703 0.959 . S
H1692 C1706 0.929 . S
H1693 C1707 0.931 . S
H1694 C1709 0.930 . S
C1695 H1683 0.930 . S
C1695 C1696 1.399 . S
C1695 C1700 1.399 . S
C1696 C1695 1.399 . S
C1696 C1697 1.376 . S
C1697 H1684 0.930 . S
C1697 C1696 1.376 . S
C1697 C1698 1.388 . S
C1698 H1685 0.930 . S
C1698 C1697 1.388 . S
C1698 C1699 1.390 . S
C1699 C1698 1.390 . S
C1699 C1700 1.394 . S
C1699 C1705 1.465 . S
C1700 C1695 1.399 . S
C1700 C1699 1.394 . S
C1700 C1701 1.516 . S
C1701 C1700 1.516 . S
C1701 C1702 1.502 . S
C1701 C1703 1.561 . S
C1701 C1704 1.526 . S
C1702 H1686 0.959 . S
C1702 H1687 0.959 . S
C1702 H1688 0.961 . S
C1702 C1701 1.502 . S
C1703 H1689 0.960 . S
C1703 H1690 0.961 . S
C1703 H1691 0.959 . S
C1703 C1701 1.561 . S
C1704 C1701 1.526 . S
C1704 C1705 1.396 . S
C1704 C1709 1.390 . S
C1705 C1699 1.465 . S
C1705 C1704 1.396 . S
C1705 C1706 1.399 . S
C1706 H1692 0.929 . S
C1706 C1705 1.399 . S
C1706 C1707 1.385 . S
C1707 H1693 0.931 . S
C1707 C1706 1.385 . S
C1707 C1708 1.389 . S
C1708 C1707 1.389 . S
C1708 C1709 1.387 . S
C1709 H1694 0.930 . S
C1709 C1704 1.390 . S
C1709 C1708 1.387 . S
H1710 C1722 0.930 . S
H1711 C1724 0.930 . S
H1712 C1725 0.930 . S
H1713 C1729 0.959 . S
H1714 C1729 0.959 . S
H1715 C1729 0.961 . S
H1716 C1730 0.960 . S
H1717 C1730 0.961 . S
H1718 C1730 0.959 . S
H1719 C1733 0.929 . S
H1720 C1734 0.931 . S
H1721 C1736 0.930 . S
C1722 H1710 0.930 . S
C1722 C1723 1.399 . S
C1722 C1727 1.399 . S
C1723 C1722 1.399 . S
C1723 C1724 1.376 . S
C1724 H1711 0.930 . S
C1724 C1723 1.376 . S
C1724 C1725 1.388 . S
C1725 H1712 0.930 . S
C1725 C1724 1.388 . S
C1725 C1726 1.390 . S
C1726 C1725 1.390 . S
C1726 C1727 1.394 . S
C1726 C1732 1.465 . S
C1727 C1722 1.399 . S
C1727 C1726 1.394 . S
C1727 C1728 1.516 . S
C1728 C1727 1.516 . S
C1728 C1729 1.502 . S
C1728 C1730 1.561 . S
C1728 C1731 1.526 . S
C1729 H1713 0.959 . S
C1729 H1714 0.959 . S
C1729 H1715 0.961 . S
C1729 C1728 1.502 . S
C1730 H1716 0.960 . S
C1730 H1717 0.961 . S
C1730 H1718 0.959 . S
C1730 C1728 1.561 . S
C1731 C1728 1.526 . S
C1731 C1732 1.396 . S
C1731 C1736 1.390 . S
C1732 C1726 1.465 . S
C1732 C1731 1.396 . S
C1732 C1733 1.399 . S
C1733 H1719 0.929 . S
C1733 C1732 1.399 . S
C1733 C1734 1.385 . S
C1734 H1720 0.931 . S
C1734 C1733 1.385 . S
C1734 C1735 1.389 . S
C1735 C1734 1.389 . S
C1735 C1736 1.387 . S
C1736 H1721 0.930 . S
C1736 C1731 1.390 . S
C1736 C1735 1.387 . S
H1737 C1749 0.930 . S
H1738 C1751 0.930 . S
H1739 C1752 0.930 . S
H1740 C1756 0.959 . S
H1741 C1756 0.959 . S
H1742 C1756 0.961 . S
H1743 C1757 0.960 . S
H1744 C1757 0.961 . S
H1745 C1757 0.959 . S
H1746 C1760 0.929 . S
H1747 C1761 0.931 . S
H1748 C1763 0.930 . S
C1749 H1737 0.930 . S
C1749 C1750 1.399 . S
C1749 C1754 1.399 . S
C1750 C1749 1.399 . S
C1750 C1751 1.376 . S
C1751 H1738 0.930 . S
C1751 C1750 1.376 . S
C1751 C1752 1.388 . S
C1752 H1739 0.930 . S
C1752 C1751 1.388 . S
C1752 C1753 1.390 . S
C1753 C1752 1.390 . S
C1753 C1754 1.394 . S
C1753 C1759 1.465 . S
C1754 C1749 1.399 . S
C1754 C1753 1.394 . S
C1754 C1755 1.516 . S
C1755 C1754 1.516 . S
C1755 C1756 1.502 . S
C1755 C1757 1.561 . S
C1755 C1758 1.526 . S
C1756 H1740 0.959 . S
C1756 H1741 0.959 . S
C1756 H1742 0.961 . S
C1756 C1755 1.502 . S
C1757 H1743 0.960 . S
C1757 H1744 0.961 . S
C1757 H1745 0.959 . S
C1757 C1755 1.561 . S
C1758 C1755 1.526 . S
C1758 C1759 1.396 . S
C1758 C1763 1.390 . S
C1759 C1753 1.465 . S
C1759 C1758 1.396 . S
C1759 C1760 1.399 . S
C1760 H1746 0.929 . S
C1760 C1759 1.399 . S
C1760 C1761 1.385 . S
C1761 H1747 0.931 . S
C1761 C1760 1.385 . S
C1761 C1762 1.389 . S
C1762 C1761 1.389 . S
C1762 C1763 1.387 . S
C1763 H1748 0.930 . S
C1763 C1758 1.390 . S
C1763 C1762 1.387 . S
H1764 C1776 0.930 . S
H1765 C1778 0.930 . S
H1766 C1779 0.930 . S
H1767 C1783 0.959 . S
H1768 C1783 0.906 1_455 S
H1769 C1783 0.961 . S
H1770 C1784 0.960 . S
H1771 C1784 0.961 . S
H1772 C1784 0.959 . S
H1773 C1787 0.929 . S
H1774 C1788 0.931 . S
H1775 C1790 0.930 1_455 S
C1776 H1764 0.930 . S
C1776 C1777 1.399 . S
C1776 C1781 1.399 . S
C1777 C1776 1.399 . S
C1777 C1778 1.376 . S
C1778 H1765 0.930 . S
C1778 C1777 1.376 . S
C1778 C1779 1.388 . S
C1779 H1766 0.930 . S
C1779 C1778 1.388 . S
C1779 C1780 1.390 . S
C1780 C1779 1.390 . S
C1780 C1781 1.394 . S
C1780 C1786 1.465 . S
C1781 C1776 1.399 . S
C1781 C1780 1.394 . S
C1781 C1782 1.516 . S
C1782 C1781 1.516 . S
C1782 C1783 1.502 . S
C1782 C1784 1.561 1_655 S
C1782 C1785 1.526 . S
C1783 H1767 0.959 . S
C1783 H1768 0.906 1_655 S
C1783 H1769 0.961 . S
C1783 C1782 1.502 . S
C1784 H1770 0.960 . S
C1784 H1771 0.961 . S
C1784 H1772 0.959 . S
C1784 C1782 1.561 1_455 S
C1785 C1782 1.526 . S
C1785 C1786 1.396 . S
C1785 C1790 1.390 . S
C1786 C1780 1.465 . S
C1786 C1785 1.396 . S
C1786 C1787 1.399 . S
C1787 H1773 0.929 . S
C1787 C1786 1.399 . S
C1787 C1788 1.385 . S
C1788 H1774 0.931 . S
C1788 C1787 1.385 . S
C1788 C1789 1.389 . S
C1789 C1788 1.389 . S
C1789 C1790 1.387 . S
C1790 H1775 0.930 1_655 S
C1790 C1785 1.390 . S
C1790 C1789 1.387 . S
H1791 C1803 0.930 . S
H1792 C1805 0.930 . S
H1793 C1806 0.930 . S
H1794 C1810 0.959 . S
H1795 C1810 0.959 . S
H1796 C1810 0.961 . S
H1797 C1811 0.960 . S
H1798 C1811 0.961 . S
H1799 C1811 0.959 . S
H1800 C1814 0.929 . S
H1801 C1815 0.931 . S
H1802 C1817 0.930 . S
C1803 H1791 0.930 . S
C1803 C1804 1.399 . S
C1803 C1808 1.399 . S
C1804 C1803 1.399 . S
C1804 C1805 1.376 . S
C1805 H1792 0.930 . S
C1805 C1804 1.376 . S
C1805 C1806 1.388 . S
C1806 H1793 0.930 . S
C1806 C1805 1.388 . S
C1806 C1807 1.390 . S
C1807 C1806 1.390 . S
C1807 C1808 1.394 . S
C1807 C1813 1.465 . S
C1808 C1803 1.399 . S
C1808 C1807 1.394 . S
C1808 C1809 1.516 . S
C1809 C1808 1.516 . S
C1809 C1810 1.502 . S
C1809 C1811 1.561 . S
C1809 C1812 1.526 . S
C1810 H1794 0.959 . S
C1810 H1795 0.959 . S
C1810 H1796 0.961 . S
C1810 C1809 1.502 . S
C1811 H1797 0.960 . S
C1811 H1798 0.961 . S
C1811 H1799 0.959 . S
C1811 C1809 1.561 . S
C1812 C1809 1.526 . S
C1812 C1813 1.396 . S
C1812 C1817 1.390 . S
C1813 C1807 1.465 . S
C1813 C1812 1.396 . S
C1813 C1814 1.399 . S
C1814 H1800 0.929 . S
C1814 C1813 1.399 . S
C1814 C1815 1.385 . S
C1815 H1801 0.931 . S
C1815 C1814 1.385 . S
C1815 C1816 1.389 . S
C1816 C1815 1.389 . S
C1816 C1817 1.387 . S
C1817 H1802 0.930 . S
C1817 C1812 1.390 . S
C1817 C1816 1.387 . S
H1818 C1830 0.930 . S
H1819 C1832 0.930 . S
H1820 C1833 0.930 . S
H1821 C1837 0.959 . S
H1822 C1837 0.959 . S
H1823 C1837 0.961 . S
H1824 C1838 0.960 . S
H1825 C1838 0.961 . S
H1826 C1838 0.959 . S
H1827 C1841 0.929 . S
H1828 C1842 0.931 . S
H1829 C1844 0.930 1_545 S
C1830 H1818 0.930 . S
C1830 C1831 1.399 . S
C1830 C1835 1.399 . S
C1831 C1830 1.399 . S
C1831 C1832 1.376 . S
C1832 H1819 0.930 . S
C1832 C1831 1.376 . S
C1832 C1833 1.388 . S
C1833 H1820 0.930 . S
C1833 C1832 1.388 . S
C1833 C1834 1.390 . S
C1834 C1833 1.390 . S
C1834 C1835 1.394 . S
C1834 C1840 1.465 . S
C1835 C1830 1.399 . S
C1835 C1834 1.394 . S
C1835 C1836 1.516 . S
C1836 C1835 1.516 . S
C1836 C1837 1.502 . S
C1836 C1838 1.561 1_565 S
C1836 C1839 1.526 . S
C1837 H1821 0.959 . S
C1837 H1822 0.959 . S
C1837 H1823 0.961 . S
C1837 C1836 1.502 . S
C1838 H1824 0.960 . S
C1838 H1825 0.961 . S
C1838 H1826 0.959 . S
C1838 C1836 1.561 1_545 S
C1839 C1836 1.526 . S
C1839 C1840 1.396 . S
C1839 C1844 1.390 . S
C1840 C1834 1.465 . S
C1840 C1839 1.396 . S
C1840 C1841 1.399 . S
C1841 H1827 0.929 . S
C1841 C1840 1.399 . S
C1841 C1842 1.385 . S
C1842 H1828 0.931 . S
C1842 C1841 1.385 . S
C1842 C1843 1.389 . S
C1843 C1842 1.389 . S
C1843 C1844 1.387 . S
C1844 H1829 0.930 1_565 S
C1844 C1839 1.390 . S
C1844 C1843 1.387 . S
H1845 C1857 0.930 . S
H1846 C1859 0.930 1_655 S
H1847 C1860 0.930 . S
H1848 C1864 0.959 . S
H1849 C1864 0.959 . S
H1850 C1864 0.961 . S
H1851 C1865 0.960 . S
H1852 C1865 0.961 . S
H1853 C1865 0.959 . S
H1854 C1868 0.929 . S
H1855 C1869 0.931 . S
H1856 C1871 0.930 . S
C1857 H1845 0.930 . S
C1857 C1858 1.399 . S
C1857 C1862 1.399 . S
C1858 C1857 1.399 . S
C1858 C1859 1.376 . S
C1859 H1846 0.930 1_455 S
C1859 C1858 1.376 . S
C1859 C1860 1.388 . S
C1860 H1847 0.930 . S
C1860 C1859 1.388 . S
C1860 C1861 1.390 . S
C1861 C1860 1.390 . S
C1861 C1862 1.394 . S
C1861 C1867 1.465 . S
C1862 C1857 1.399 . S
C1862 C1861 1.394 . S
C1862 C1863 1.516 . S
C1863 C1862 1.516 . S
C1863 C1864 1.502 . S
C1863 C1865 1.561 . S
C1863 C1866 1.526 . S
C1864 H1848 0.959 . S
C1864 H1849 0.959 . S
C1864 H1850 0.961 . S
C1864 C1863 1.502 . S
C1865 H1851 0.960 . S
C1865 H1852 0.961 . S
C1865 H1853 0.959 . S
C1865 C1863 1.561 . S
C1866 C1863 1.526 . S
C1866 C1867 1.396 . S
C1866 C1871 1.390 . S
C1867 C1861 1.465 . S
C1867 C1866 1.396 . S
C1867 C1868 1.399 . S
C1868 H1854 0.929 . S
C1868 C1867 1.399 . S
C1868 C1869 1.385 . S
C1869 H1855 0.931 . S
C1869 C1868 1.385 . S
C1869 C1870 1.389 . S
C1870 C1869 1.389 . S
C1870 C1871 1.387 . S
C1871 H1856 0.930 . S
C1871 C1866 1.390 . S
C1871 C1870 1.387 . S
H1872 C1884 0.930 . S
H1873 C1886 0.930 . S
H1874 C1887 0.930 . S
H1875 C1891 0.959 . S
H1876 C1891 0.959 . S
H1877 C1891 0.961 . S
H1878 C1892 0.960 . S
H1879 C1892 0.961 . S
H1880 C1892 0.959 . S
H1881 C1895 0.929 . S
H1882 C1896 0.931 . S
H1883 C1898 0.930 . S
C1884 H1872 0.930 . S
C1884 C1885 1.399 . S
C1884 C1889 1.399 . S
C1885 C1884 1.399 . S
C1885 C1886 1.376 . S
C1886 H1873 0.930 . S
C1886 C1885 1.376 . S
C1886 C1887 1.388 . S
C1887 H1874 0.930 . S
C1887 C1886 1.388 . S
C1887 C1888 1.390 . S
C1888 C1887 1.390 . S
C1888 C1889 1.394 . S
C1888 C1894 1.465 . S
C1889 C1884 1.399 . S
C1889 C1888 1.394 . S
C1889 C1890 1.516 . S
C1890 C1889 1.516 . S
C1890 C1891 1.502 . S
C1890 C1892 1.561 . S
C1890 C1893 1.526 . S
C1891 H1875 0.959 . S
C1891 H1876 0.959 . S
C1891 H1877 0.961 . S
C1891 C1890 1.502 . S
C1892 H1878 0.960 . S
C1892 H1879 0.961 . S
C1892 H1880 0.959 . S
C1892 C1890 1.561 . S
C1893 C1890 1.526 . S
C1893 C1894 1.396 . S
C1893 C1898 1.390 . S
C1894 C1888 1.465 . S
C1894 C1893 1.396 . S
C1894 C1895 1.399 . S
C1895 H1881 0.929 . S
C1895 C1894 1.399 . S
C1895 C1896 1.385 . S
C1896 H1882 0.931 . S
C1896 C1895 1.385 . S
C1896 C1897 1.389 . S
C1897 C1896 1.389 . S
C1897 C1898 1.387 . S
C1898 H1883 0.930 . S
C1898 C1893 1.390 . S
C1898 C1897 1.387 . S
H1899 C1911 0.930 . S
H1900 C1913 0.930 . S
H1901 C1914 0.930 . S
H1902 C1918 0.959 . S
H1903 C1918 0.959 . S
H1904 C1918 0.961 . S
H1905 C1919 0.960 . S
H1906 C1919 0.961 . S
H1907 C1919 0.959 . S
H1908 C1922 0.929 . S
H1909 C1923 0.931 1_545 S
H1910 C1925 0.930 . S
C1911 H1899 0.930 . S
C1911 C1912 1.399 . S
C1911 C1916 1.399 . S
C1912 C1911 1.399 . S
C1912 C1913 1.376 . S
C1913 H1900 0.930 . S
C1913 C1912 1.376 . S
C1913 C1914 1.388 . S
C1914 H1901 0.930 . S
C1914 C1913 1.388 . S
C1914 C1915 1.390 . S
C1915 C1914 1.390 . S
C1915 C1916 1.394 . S
C1915 C1921 1.465 . S
C1916 C1911 1.399 . S
C1916 C1915 1.394 . S
C1916 C1917 1.516 . S
C1917 C1916 1.516 . S
C1917 C1918 1.502 . S
C1917 C1919 1.561 . S
C1917 C1920 1.526 . S
C1918 H1902 0.959 . S
C1918 H1903 0.959 . S
C1918 H1904 0.961 . S
C1918 C1917 1.502 . S
C1919 H1905 0.960 . S
C1919 H1906 0.961 . S
C1919 H1907 0.959 . S
C1919 C1917 1.561 . S
C1920 C1917 1.526 . S
C1920 C1921 1.396 . S
C1920 C1925 1.390 . S
C1921 C1915 1.465 . S
C1921 C1920 1.396 . S
C1921 C1922 1.399 . S
C1922 H1908 0.929 . S
C1922 C1921 1.399 . S
C1922 C1923 1.385 . S
C1923 H1909 0.931 1_565 S
C1923 C1922 1.385 . S
C1923 C1924 1.389 . S
C1924 C1923 1.389 . S
C1924 C1925 1.387 . S
C1925 H1910 0.930 . S
C1925 C1920 1.390 . S
C1925 C1924 1.387 . S
H1926 C1938 0.930 . S
H1927 C1940 0.930 . S
H1928 C1941 0.930 . S
H1929 C1945 0.959 . S
H1930 C1945 0.959 . S
H1931 C1945 0.961 . S
H1932 C1946 0.960 . S
H1933 C1946 0.961 . S
H1934 C1946 0.959 . S
H1935 C1949 0.929 . S
H1936 C1950 0.931 1_655 S
H1937 C1952 0.930 . S
C1938 H1926 0.930 . S
C1938 C1939 1.399 . S
C1938 C1943 1.399 . S
C1939 C1938 1.399 . S
C1939 C1940 1.376 . S
C1940 H1927 0.930 . S
C1940 C1939 1.376 . S
C1940 C1941 1.388 . S
C1941 H1928 0.930 . S
C1941 C1940 1.388 . S
C1941 C1942 1.390 . S
C1942 C1941 1.390 . S
C1942 C1943 1.394 . S
C1942 C1948 1.465 . S
C1943 C1938 1.399 . S
C1943 C1942 1.394 . S
C1943 C1944 1.516 . S
C1944 C1943 1.516 . S
C1944 C1945 1.502 . S
C1944 C1946 1.561 . S
C1944 C1947 1.526 . S
C1945 H1929 0.959 . S
C1945 H1930 0.959 . S
C1945 H1931 0.961 . S
C1945 C1944 1.502 . S
C1946 H1932 0.960 . S
C1946 H1933 0.961 . S
C1946 H1934 0.959 . S
C1946 C1944 1.561 . S
C1947 C1944 1.526 . S
C1947 C1948 1.396 . S
C1947 C1952 1.390 . S
C1948 C1942 1.465 . S
C1948 C1947 1.396 . S
C1948 C1949 1.399 . S
C1949 H1935 0.929 . S
C1949 C1948 1.399 . S
C1949 C1950 1.385 . S
C1950 H1936 0.931 1_455 S
C1950 C1949 1.385 . S
C1950 C1951 1.389 . S
C1951 C1950 1.389 . S
C1951 C1952 1.387 . S
C1952 H1937 0.930 . S
C1952 C1947 1.390 . S
C1952 C1951 1.387 . S
H1953 C1965 0.930 . S
H1954 C1967 0.930 . S
H1955 C1968 0.930 . S
H1956 C1972 0.959 . S
H1957 C1972 0.959 . S
H1958 C1972 0.961 . S
H1959 C1973 0.960 . S
H1960 C1973 0.961 . S
H1961 C1973 0.959 . S
H1962 C1976 0.929 . S
H1963 C1977 0.931 . S
H1964 C1979 0.930 . S
C1965 H1953 0.930 . S
C1965 C1966 1.399 . S
C1965 C1970 1.399 . S
C1966 C1965 1.399 . S
C1966 C1967 1.376 . S
C1967 H1954 0.930 . S
C1967 C1966 1.376 . S
C1967 C1968 1.388 . S
C1968 H1955 0.930 . S
C1968 C1967 1.388 . S
C1968 C1969 1.390 . S
C1969 C1968 1.390 . S
C1969 C1970 1.394 . S
C1969 C1975 1.465 . S
C1970 C1965 1.399 . S
C1970 C1969 1.394 . S
C1970 C1971 1.516 . S
C1971 C1970 1.516 . S
C1971 C1972 1.502 . S
C1971 C1973 1.561 . S
C1971 C1974 1.526 . S
C1972 H1956 0.959 . S
C1972 H1957 0.959 . S
C1972 H1958 0.961 . S
C1972 C1971 1.502 . S
C1973 H1959 0.960 . S
C1973 H1960 0.961 . S
C1973 H1961 0.959 . S
C1973 C1971 1.561 . S
C1974 C1971 1.526 . S
C1974 C1975 1.396 . S
C1974 C1979 1.390 . S
C1975 C1969 1.465 . S
C1975 C1974 1.396 . S
C1975 C1976 1.399 . S
C1976 H1962 0.929 . S
C1976 C1975 1.399 . S
C1976 C1977 1.385 . S
C1977 H1963 0.931 . S
C1977 C1976 1.385 . S
C1977 C1978 1.389 . S
C1978 C1977 1.389 . S
C1978 C1979 1.387 . S
C1979 H1964 0.930 . S
C1979 C1974 1.390 . S
C1979 C1978 1.387 . S
H1980 C1992 0.930 . S
H1981 C1994 0.930 1_565 S
H1982 C1995 0.930 . S
H1983 C1999 0.959 . S
H1984 C1999 0.959 . S
H1985 C1999 0.961 . S
H1986 C2000 0.960 . S
H1987 C2000 0.961 . S
H1988 C2000 0.959 . S
H1989 C2003 0.929 . S
H1990 C2004 0.931 . S
H1991 C2006 0.930 . S
C1992 H1980 0.930 . S
C1992 C1993 1.399 . S
C1992 C1997 1.399 . S
C1993 C1992 1.399 . S
C1993 C1994 1.376 . S
C1994 H1981 0.930 1_545 S
C1994 C1993 1.376 . S
C1994 C1995 1.388 . S
C1995 H1982 0.930 . S
C1995 C1994 1.388 . S
C1995 C1996 1.390 . S
C1996 C1995 1.390 . S
C1996 C1997 1.394 . S
C1996 C2002 1.465 . S
C1997 C1992 1.399 . S
C1997 C1996 1.394 . S
C1997 C1998 1.516 . S
C1998 C1997 1.516 . S
C1998 C1999 1.502 . S
C1998 C2000 1.561 . S
C1998 C2001 1.526 . S
C1999 H1983 0.959 . S
C1999 H1984 0.959 . S
C1999 H1985 0.961 . S
C1999 C1998 1.502 . S
C2000 H1986 0.960 . S
C2000 H1987 0.961 . S
C2000 H1988 0.959 . S
C2000 C1998 1.561 . S
C2001 C1998 1.526 . S
C2001 C2002 1.396 . S
C2001 C2006 1.390 . S
C2002 C1996 1.465 . S
C2002 C2001 1.396 . S
C2002 C2003 1.399 . S
C2003 H1989 0.929 . S
C2003 C2002 1.399 . S
C2003 C2004 1.385 . S
C2004 H1990 0.931 . S
C2004 C2003 1.385 . S
C2004 C2005 1.389 . S
C2005 C2004 1.389 . S
C2005 C2006 1.387 . S
C2006 H1991 0.930 . S
C2006 C2001 1.390 . S
C2006 C2005 1.387 . S
H2007 C2019 0.930 . S
H2008 C2021 0.930 . S
H2009 C2022 0.930 . S
H2010 C2026 0.959 . S
H2011 C2026 0.959 . S
H2012 C2026 0.961 . S
H2013 C2027 0.960 . S
H2014 C2027 0.961 . S
H2015 C2027 0.959 . S
H2016 C2030 0.929 . S
H2017 C2031 0.931 . S
H2018 C2033 0.930 . S
C2019 H2007 0.930 . S
C2019 C2020 1.399 . S
C2019 C2024 1.399 . S
C2020 C2019 1.399 . S
C2020 C2021 1.376 . S
C2021 H2008 0.930 . S
C2021 C2020 1.376 . S
C2021 C2022 1.388 . S
C2022 H2009 0.930 . S
C2022 C2021 1.388 . S
C2022 C2023 1.390 . S
C2023 C2022 1.390 . S
C2023 C2024 1.394 . S
C2023 C2029 1.465 . S
C2024 C2019 1.399 . S
C2024 C2023 1.394 . S
C2024 C2025 1.516 . S
C2025 C2024 1.516 . S
C2025 C2026 1.502 . S
C2025 C2027 1.561 . S
C2025 C2028 1.526 . S
C2026 H2010 0.959 . S
C2026 H2011 0.959 . S
C2026 H2012 0.961 . S
C2026 C2025 1.502 . S
C2027 H2013 0.960 . S
C2027 H2014 0.961 . S
C2027 H2015 0.959 . S
C2027 C2025 1.561 . S
C2028 C2025 1.526 . S
C2028 C2029 1.396 . S
C2028 C2033 1.390 . S
C2029 C2023 1.465 . S
C2029 C2028 1.396 . S
C2029 C2030 1.399 . S
C2030 H2016 0.929 . S
C2030 C2029 1.399 . S
C2030 C2031 1.385 . S
C2031 H2017 0.931 . S
C2031 C2030 1.385 . S
C2031 C2032 1.389 . S
C2032 C2031 1.389 . S
C2032 C2033 1.387 . S
C2033 H2018 0.930 . S
C2033 C2028 1.390 . S
C2033 C2032 1.387 . S
H2034 C2046 0.930 . S
H2035 C2048 0.930 . S
H2036 C2049 0.930 . S
H2037 C2053 0.959 . S
H2038 C2053 0.959 . S
H2039 C2053 0.961 . S
H2040 C2054 0.960 . S
H2041 C2054 0.961 . S
H2042 C2054 0.959 . S
H2043 C2057 0.929 . S
H2044 C2058 0.931 . S
H2045 C2060 0.930 . S
C2046 H2034 0.930 . S
C2046 C2047 1.399 . S
C2046 C2051 1.399 . S
C2047 C2046 1.399 . S
C2047 C2048 1.376 . S
C2048 H2035 0.930 . S
C2048 C2047 1.376 . S
C2048 C2049 1.388 . S
C2049 H2036 0.930 . S
C2049 C2048 1.388 . S
C2049 C2050 1.390 . S
C2050 C2049 1.390 . S
C2050 C2051 1.394 . S
C2050 C2056 1.465 1_655 S
C2051 C2046 1.399 . S
C2051 C2050 1.394 . S
C2051 C2052 1.516 1_655 S
C2052 C2051 1.516 1_455 S
C2052 C2053 1.502 . S
C2052 C2054 1.561 . S
C2052 C2055 1.526 . S
C2053 H2037 0.959 . S
C2053 H2038 0.959 . S
C2053 H2039 0.961 . S
C2053 C2052 1.502 . S
C2054 H2040 0.960 . S
C2054 H2041 0.961 . S
C2054 H2042 0.959 . S
C2054 C2052 1.561 . S
C2055 C2052 1.526 . S
C2055 C2056 1.396 . S
C2055 C2060 1.390 . S
C2056 C2050 1.465 1_455 S
C2056 C2055 1.396 . S
C2056 C2057 1.399 . S
C2057 H2043 0.929 . S
C2057 C2056 1.399 . S
C2057 C2058 1.385 . S
C2058 H2044 0.931 . S
C2058 C2057 1.385 . S
C2058 C2059 1.389 . S
C2059 C2058 1.389 . S
C2059 C2060 1.387 . S
C2060 H2045 0.930 . S
C2060 C2055 1.390 . S
C2060 C2059 1.387 . S
H2061 C2073 0.930 . S
H2062 C2075 0.930 . S
H2063 C2076 0.930 . S
H2064 C2080 0.959 . S
H2065 C2080 0.959 . S
H2066 C2080 0.961 . S
H2067 C2081 0.960 . S
H2068 C2081 0.961 . S
H2069 C2081 0.959 . S
H2070 C2084 0.929 . S
H2071 C2085 0.931 . S
H2072 C2087 0.930 . S
C2073 H2061 0.930 . S
C2073 C2074 1.399 . S
C2073 C2078 1.399 . S
C2074 C2073 1.399 . S
C2074 C2075 1.376 . S
C2075 H2062 0.930 . S
C2075 C2074 1.376 . S
C2075 C2076 1.388 . S
C2076 H2063 0.930 . S
C2076 C2075 1.388 . S
C2076 C2077 1.390 . S
C2077 C2076 1.390 . S
C2077 C2078 1.394 . S
C2077 C2083 1.465 . S
C2078 C2073 1.399 . S
C2078 C2077 1.394 . S
C2078 C2079 1.516 . S
C2079 C2078 1.516 . S
C2079 C2080 1.502 . S
C2079 C2081 1.561 . S
C2079 C2082 1.526 . S
C2080 H2064 0.959 . S
C2080 H2065 0.959 . S
C2080 H2066 0.961 . S
C2080 C2079 1.502 . S
C2081 H2067 0.960 . S
C2081 H2068 0.961 . S
C2081 H2069 0.959 . S
C2081 C2079 1.561 . S
C2082 C2079 1.526 . S
C2082 C2083 1.396 . S
C2082 C2087 1.390 . S
C2083 C2077 1.465 . S
C2083 C2082 1.396 . S
C2083 C2084 1.399 . S
C2084 H2070 0.929 . S
C2084 C2083 1.399 . S
C2084 C2085 1.385 . S
C2085 H2071 0.931 . S
C2085 C2084 1.385 . S
C2085 C2086 1.389 . S
C2086 C2085 1.389 . S
C2086 C2087 1.387 . S
C2087 H2072 0.930 . S
C2087 C2082 1.390 . S
C2087 C2086 1.387 . S
H2088 C2100 0.930 . S
H2089 C2102 0.930 . S
H2090 C2103 0.930 . S
H2091 C2107 0.959 . S
H2092 C2107 0.962 . S
H2093 C2107 0.961 . S
H2094 C2108 0.960 . S
H2095 C2108 0.961 . S
H2096 C2108 0.959 . S
H2097 C2111 0.929 . S
H2098 C2112 0.931 . S
H2099 C2114 0.930 . S
C2100 H2088 0.930 . S
C2100 C2101 1.399 . S
C2100 C2105 1.399 . S
C2101 C2100 1.399 . S
C2101 C2102 1.376 . S
C2102 H2089 0.930 . S
C2102 C2101 1.376 . S
C2102 C2103 1.388 . S
C2103 H2090 0.930 . S
C2103 C2102 1.388 . S
C2103 C2104 1.390 . S
C2104 C2103 1.390 . S
C2104 C2105 1.394 . S
C2104 C2110 1.465 1_545 S
C2105 C2100 1.399 . S
C2105 C2104 1.394 . S
C2105 C2106 1.516 . S
C2106 C2105 1.516 . S
C2106 C2107 1.502 . S
C2106 C2108 1.561 . S
C2106 C2109 1.526 1_545 S
C2107 H2091 0.959 . S
C2107 H2092 0.962 . S
C2107 H2093 0.961 . S
C2107 C2106 1.502 . S
C2108 H2094 0.960 . S
C2108 H2095 0.961 . S
C2108 H2096 0.959 . S
C2108 C2106 1.561 . S
C2109 C2106 1.526 1_565 S
C2109 C2110 1.396 . S
C2109 C2114 1.390 . S
C2110 C2104 1.465 1_565 S
C2110 C2109 1.396 . S
C2110 C2111 1.399 . S
C2111 H2097 0.929 . S
C2111 C2110 1.399 . S
C2111 C2112 1.385 . S
C2112 H2098 0.931 . S
C2112 C2111 1.385 . S
C2112 C2113 1.389 . S
C2113 C2112 1.389 . S
C2113 C2114 1.387 . S
C2114 H2099 0.930 . S
C2114 C2109 1.390 . S
C2114 C2113 1.387 . S
H2115 C2127 0.930 . S
H2116 C2129 0.930 . S
H2117 C2130 0.930 . S
H2118 C2134 0.959 1_565 S
H2119 C2134 0.959 1_565 S
H2120 C2134 0.961 . S
H2121 C2135 0.960 . S
H2122 C2135 0.961 . S
H2123 C2135 0.959 . S
H2124 C2138 0.929 . S
H2125 C2139 0.931 . S
H2126 C2141 0.930 . S
C2127 H2115 0.930 . S
C2127 C2128 1.399 . S
C2127 C2132 1.399 . S
C2128 C2127 1.399 . S
C2128 C2129 1.376 . S
C2129 H2116 0.930 . S
C2129 C2128 1.376 . S
C2129 C2130 1.388 . S
C2130 H2117 0.930 . S
C2130 C2129 1.388 . S
C2130 C2131 1.390 . S
C2131 C2130 1.390 . S
C2131 C2132 1.394 . S
C2131 C2137 1.465 1_545 S
C2132 C2127 1.399 . S
C2132 C2131 1.394 . S
C2132 C2133 1.516 . S
C2133 C2132 1.516 . S
C2133 C2134 1.502 . S
C2133 C2135 1.561 . S
C2133 C2136 1.526 1_545 S
C2134 H2118 0.959 1_545 S
C2134 H2119 0.959 1_545 S
C2134 H2120 0.961 . S
C2134 C2133 1.502 . S
C2135 H2121 0.960 . S
C2135 H2122 0.961 . S
C2135 H2123 0.959 . S
C2135 C2133 1.561 . S
C2136 C2133 1.526 1_565 S
C2136 C2137 1.396 . S
C2136 C2141 1.390 . S
C2137 C2131 1.465 1_565 S
C2137 C2136 1.396 . S
C2137 C2138 1.399 . S
C2138 H2124 0.929 . S
C2138 C2137 1.399 . S
C2138 C2139 1.385 . S
C2139 H2125 0.931 . S
C2139 C2138 1.385 . S
C2139 C2140 1.389 . S
C2140 C2139 1.389 . S
C2140 C2141 1.387 . S
C2141 H2126 0.930 . S
C2141 C2136 1.390 . S
C2141 C2140 1.387 . S
H2142 C2154 0.930 . S
H2143 C2156 0.930 . S
H2144 C2157 0.930 . S
H2145 C2161 0.959 . S
H2146 C2161 0.959 . S
H2147 C2161 0.961 1_455 S
H2148 C2162 0.960 . S
H2149 C2162 0.961 . S
H2150 C2162 0.959 . S
H2151 C2165 0.929 . S
H2152 C2166 0.931 . S
H2153 C2168 0.930 . S
C2154 H2142 0.930 . S
C2154 C2155 1.399 . S
C2154 C2159 1.399 . S
C2155 C2154 1.399 . S
C2155 C2156 1.376 . S
C2156 H2143 0.930 . S
C2156 C2155 1.376 . S
C2156 C2157 1.388 . S
C2157 H2144 0.930 . S
C2157 C2156 1.388 . S
C2157 C2158 1.390 . S
C2158 C2157 1.390 . S
C2158 C2159 1.394 . S
C2158 C2164 1.465 1_455 S
C2159 C2154 1.399 . S
C2159 C2158 1.394 . S
C2159 C2160 1.516 1_455 S
C2160 C2159 1.516 1_655 S
C2160 C2161 1.502 . S
C2160 C2162 1.561 . S
C2160 C2163 1.526 . S
C2161 H2145 0.959 . S
C2161 H2146 0.959 . S
C2161 H2147 0.961 1_655 S
C2161 C2160 1.502 . S
C2162 H2148 0.960 . S
C2162 H2149 0.961 . S
C2162 H2150 0.959 . S
C2162 C2160 1.561 . S
C2163 C2160 1.526 . S
C2163 C2164 1.396 . S
C2163 C2168 1.390 . S
C2164 C2158 1.465 1_655 S
C2164 C2163 1.396 . S
C2164 C2165 1.399 . S
C2165 H2151 0.929 . S
C2165 C2164 1.399 . S
C2165 C2166 1.385 . S
C2166 H2152 0.931 . S
C2166 C2165 1.385 . S
C2166 C2167 1.389 . S
C2167 C2166 1.389 . S
C2167 C2168 1.387 . S
C2168 H2153 0.930 . S
C2168 C2163 1.390 . S
C2168 C2167 1.387 . S
H2169 C2181 0.930 . S
H2170 C2183 0.930 . S
H2171 C2184 0.930 . S
H2172 C2188 0.959 . S
H2173 C2188 0.959 . S
H2174 C2188 0.961 . S
H2175 C2189 0.960 . S
H2176 C2189 0.961 . S
H2177 C2189 0.959 . S
H2178 C2192 0.929 . S
H2179 C2193 0.931 . S
H2180 C2195 0.930 . S
C2181 H2169 0.930 . S
C2181 C2182 1.399 . S
C2181 C2186 1.399 . S
C2182 C2181 1.399 . S
C2182 C2183 1.376 . S
C2183 H2170 0.930 . S
C2183 C2182 1.376 . S
C2183 C2184 1.388 . S
C2184 H2171 0.930 . S
C2184 C2183 1.388 . S
C2184 C2185 1.390 . S
C2185 C2184 1.390 . S
C2185 C2186 1.394 . S
C2185 C2191 1.465 . S
C2186 C2181 1.399 . S
C2186 C2185 1.394 . S
C2186 C2187 1.516 . S
C2187 C2186 1.516 . S
C2187 C2188 1.502 . S
C2187 C2189 1.561 . S
C2187 C2190 1.526 . S
C2188 H2172 0.959 . S
C2188 H2173 0.959 . S
C2188 H2174 0.961 . S
C2188 C2187 1.502 . S
C2189 H2175 0.960 . S
C2189 H2176 0.961 . S
C2189 H2177 0.959 . S
C2189 C2187 1.561 . S
C2190 C2187 1.526 . S
C2190 C2191 1.396 . S
C2190 C2195 1.390 . S
C2191 C2185 1.465 . S
C2191 C2190 1.396 . S
C2191 C2192 1.399 . S
C2192 H2178 0.929 . S
C2192 C2191 1.399 . S
C2192 C2193 1.385 . S
C2193 H2179 0.931 . S
C2193 C2192 1.385 . S
C2193 C2194 1.389 . S
C2194 C2193 1.389 . S
C2194 C2195 1.387 . S
C2195 H2180 0.930 . S
C2195 C2190 1.390 . S
C2195 C2194 1.387 . S
H2196 C2208 0.930 . S
H2197 C2210 0.930 . S
H2198 C2211 0.930 . S
H2199 C2215 0.959 . S
H2200 C2215 0.959 . S
H2201 C2215 0.961 . S
H2202 C2216 0.960 . S
H2203 C2216 0.961 . S
H2204 C2216 0.959 . S
H2205 C2219 0.929 . S
H2206 C2220 0.931 . S
H2207 C2222 0.930 . S
C2208 H2196 0.930 . S
C2208 C2209 1.399 . S
C2208 C2213 1.399 . S
C2209 C2208 1.399 . S
C2209 C2210 1.376 . S
C2210 H2197 0.930 . S
C2210 C2209 1.376 . S
C2210 C2211 1.388 . S
C2211 H2198 0.930 . S
C2211 C2210 1.388 . S
C2211 C2212 1.390 . S
C2212 C2211 1.390 . S
C2212 C2213 1.394 . S
C2212 C2218 1.465 . S
C2213 C2208 1.399 . S
C2213 C2212 1.394 . S
C2213 C2214 1.516 . S
C2214 C2213 1.516 . S
C2214 C2215 1.502 . S
C2214 C2216 1.561 . S
C2214 C2217 1.526 . S
C2215 H2199 0.959 . S
C2215 H2200 0.959 . S
C2215 H2201 0.961 . S
C2215 C2214 1.502 . S
C2216 H2202 0.960 . S
C2216 H2203 0.961 . S
C2216 H2204 0.959 . S
C2216 C2214 1.561 . S
C2217 C2214 1.526 . S
C2217 C2218 1.396 . S
C2217 C2222 1.390 . S
C2218 C2212 1.465 . S
C2218 C2217 1.396 . S
C2218 C2219 1.399 . S
C2219 H2205 0.929 . S
C2219 C2218 1.399 . S
C2219 C2220 1.385 . S
C2220 H2206 0.931 . S
C2220 C2219 1.385 . S
C2220 C2221 1.389 . S
C2221 C2220 1.389 . S
C2221 C2222 1.387 . S
C2222 H2207 0.930 . S
C2222 C2217 1.390 . S
C2222 C2221 1.387 . S
H2223 C2235 0.930 . S
H2224 C2237 0.930 . S
H2225 C2238 0.930 . S
H2226 C2242 0.959 . S
H2227 C2242 0.959 . S
H2228 C2242 0.961 . S
H2229 C2243 0.960 . S
H2230 C2243 0.961 . S
H2231 C2243 0.959 . S
H2232 C2246 0.929 . S
H2233 C2247 0.931 . S
H2234 C2249 0.930 . S
C2235 H2223 0.930 . S
C2235 C2236 1.399 . S
C2235 C2240 1.399 . S
C2236 C2235 1.399 . S
C2236 C2237 1.376 . S
C2237 H2224 0.930 . S
C2237 C2236 1.376 . S
C2237 C2238 1.388 . S
C2238 H2225 0.930 . S
C2238 C2237 1.388 . S
C2238 C2239 1.390 . S
C2239 C2238 1.390 . S
C2239 C2240 1.394 . S
C2239 C2245 1.465 . S
C2240 C2235 1.399 . S
C2240 C2239 1.394 . S
C2240 C2241 1.516 . S
C2241 C2240 1.516 . S
C2241 C2242 1.502 . S
C2241 C2243 1.561 . S
C2241 C2244 1.526 . S
C2242 H2226 0.959 . S
C2242 H2227 0.959 . S
C2242 H2228 0.961 . S
C2242 C2241 1.502 . S
C2243 H2229 0.960 . S
C2243 H2230 0.961 . S
C2243 H2231 0.959 . S
C2243 C2241 1.561 . S
C2244 C2241 1.526 . S
C2244 C2245 1.396 . S
C2244 C2249 1.390 . S
C2245 C2239 1.465 . S
C2245 C2244 1.396 . S
C2245 C2246 1.399 . S
C2246 H2232 0.929 . S
C2246 C2245 1.399 . S
C2246 C2247 1.385 . S
C2247 H2233 0.931 . S
C2247 C2246 1.385 . S
C2247 C2248 1.389 . S
C2248 C2247 1.389 . S
C2248 C2249 1.387 . S
C2249 H2234 0.930 . S
C2249 C2244 1.390 . S
C2249 C2248 1.387 . S
H2250 C2262 0.930 . S
H2251 C2264 0.930 . S
H2252 C2265 0.930 . S
H2253 C2269 0.959 . S
H2254 C2269 0.959 . S
H2255 C2269 0.961 . S
H2256 C2270 0.960 . S
H2257 C2270 0.961 . S
H2258 C2270 0.959 . S
H2259 C2273 0.929 . S
H2260 C2274 0.931 . S
H2261 C2276 0.930 . S
C2262 H2250 0.930 . S
C2262 C2263 1.399 . S
C2262 C2267 1.399 . S
C2263 C2262 1.399 . S
C2263 C2264 1.376 . S
C2264 H2251 0.930 . S
C2264 C2263 1.376 . S
C2264 C2265 1.388 . S
C2265 H2252 0.930 . S
C2265 C2264 1.388 . S
C2265 C2266 1.390 . S
C2266 C2265 1.390 . S
C2266 C2267 1.394 . S
C2266 C2272 1.465 . S
C2267 C2262 1.399 . S
C2267 C2266 1.394 . S
C2267 C2268 1.516 . S
C2268 C2267 1.516 . S
C2268 C2269 1.502 . S
C2268 C2270 1.561 . S
C2268 C2271 1.526 . S
C2269 H2253 0.959 . S
C2269 H2254 0.959 . S
C2269 H2255 0.961 . S
C2269 C2268 1.502 . S
C2270 H2256 0.960 . S
C2270 H2257 0.961 . S
C2270 H2258 0.959 . S
C2270 C2268 1.561 . S
C2271 C2268 1.526 . S
C2271 C2272 1.396 . S
C2271 C2276 1.390 . S
C2272 C2266 1.465 . S
C2272 C2271 1.396 . S
C2272 C2273 1.399 . S
C2273 H2259 0.929 . S
C2273 C2272 1.399 . S
C2273 C2274 1.385 . S
C2274 H2260 0.931 . S
C2274 C2273 1.385 . S
C2274 C2275 1.389 . S
C2275 C2274 1.389 . S
C2275 C2276 1.387 . S
C2276 H2261 0.930 . S
C2276 C2271 1.390 . S
C2276 C2275 1.387 . S
H2277 C2289 0.930 . S
H2278 C2291 0.930 . S
H2279 C2292 0.930 . S
H2280 C2296 0.959 . S
H2281 C2296 0.959 . S
H2282 C2296 0.961 . S
H2283 C2297 0.960 . S
H2284 C2297 0.961 . S
H2285 C2297 0.959 . S
H2286 C2300 0.929 . S
H2287 C2301 0.931 . S
H2288 C2303 0.930 . S
C2289 H2277 0.930 . S
C2289 C2290 1.399 . S
C2289 C2294 1.399 . S
C2290 C2289 1.399 . S
C2290 C2291 1.376 . S
C2291 H2278 0.930 . S
C2291 C2290 1.376 . S
C2291 C2292 1.388 . S
C2292 H2279 0.930 . S
C2292 C2291 1.388 . S
C2292 C2293 1.390 . S
C2293 C2292 1.390 . S
C2293 C2294 1.394 . S
C2293 C2299 1.465 . S
C2294 C2289 1.399 . S
C2294 C2293 1.394 . S
C2294 C2295 1.516 . S
C2295 C2294 1.516 . S
C2295 C2296 1.502 . S
C2295 C2297 1.561 . S
C2295 C2298 1.526 . S
C2296 H2280 0.959 . S
C2296 H2281 0.959 . S
C2296 H2282 0.961 . S
C2296 C2295 1.502 . S
C2297 H2283 0.960 . S
C2297 H2284 0.961 . S
C2297 H2285 0.959 . S
C2297 C2295 1.561 . S
C2298 C2295 1.526 . S
C2298 C2299 1.396 . S
C2298 C2303 1.390 . S
C2299 C2293 1.465 . S
C2299 C2298 1.396 . S
C2299 C2300 1.399 . S
C2300 H2286 0.929 . S
C2300 C2299 1.399 . S
C2300 C2301 1.385 . S
C2301 H2287 0.931 . S
C2301 C2300 1.385 . S
C2301 C2302 1.389 . S
C2302 C2301 1.389 . S
C2302 C2303 1.387 . S
C2303 H2288 0.930 . S
C2303 C2298 1.390 . S
C2303 C2302 1.387 . S
H2304 C2316 0.930 . S
H2305 C2318 0.930 . S
H2306 C2319 0.930 . S
H2307 C2323 0.959 . S
H2308 C2323 0.959 . S
H2309 C2323 0.961 . S
H2310 C2324 0.960 . S
H2311 C2324 0.961 . S
H2312 C2324 0.959 . S
H2313 C2327 0.929 . S
H2314 C2328 0.931 . S
H2315 C2330 0.930 . S
C2316 H2304 0.930 . S
C2316 C2317 1.399 . S
C2316 C2321 1.399 . S
C2317 C2316 1.399 . S
C2317 C2318 1.376 . S
C2318 H2305 0.930 . S
C2318 C2317 1.376 . S
C2318 C2319 1.388 . S
C2319 H2306 0.930 . S
C2319 C2318 1.388 . S
C2319 C2320 1.390 . S
C2320 C2319 1.390 . S
C2320 C2321 1.394 . S
C2320 C2326 1.465 . S
C2321 C2316 1.399 . S
C2321 C2320 1.394 . S
C2321 C2322 1.516 . S
C2322 C2321 1.516 . S
C2322 C2323 1.502 . S
C2322 C2324 1.561 . S
C2322 C2325 1.526 . S
C2323 H2307 0.959 . S
C2323 H2308 0.959 . S
C2323 H2309 0.961 . S
C2323 C2322 1.502 . S
C2324 H2310 0.960 . S
C2324 H2311 0.961 . S
C2324 H2312 0.959 . S
C2324 C2322 1.561 . S
C2325 C2322 1.526 . S
C2325 C2326 1.396 . S
C2325 C2330 1.390 . S
C2326 C2320 1.465 . S
C2326 C2325 1.396 . S
C2326 C2327 1.399 . S
C2327 H2313 0.929 . S
C2327 C2326 1.399 . S
C2327 C2328 1.385 . S
C2328 H2314 0.931 . S
C2328 C2327 1.385 . S
C2328 C2329 1.389 . S
C2329 C2328 1.389 . S
C2329 C2330 1.387 . S
C2330 H2315 0.930 . S
C2330 C2325 1.390 . S
C2330 C2329 1.387 . S
H2331 C2343 0.930 . S
H2332 C2345 0.930 . S
H2333 C2346 0.930 . S
H2334 C2350 0.959 . S
H2335 C2350 0.959 . S
H2336 C2350 0.961 . S
H2337 C2351 0.960 . S
H2338 C2351 0.961 . S
H2339 C2351 0.959 . S
H2340 C2354 0.929 . S
H2341 C2355 0.931 . S
H2342 C2357 0.930 . S
C2343 H2331 0.930 . S
C2343 C2344 1.399 . S
C2343 C2348 1.399 . S
C2344 C2343 1.399 . S
C2344 C2345 1.376 . S
C2345 H2332 0.930 . S
C2345 C2344 1.376 . S
C2345 C2346 1.388 . S
C2346 H2333 0.930 . S
C2346 C2345 1.388 . S
C2346 C2347 1.390 . S
C2347 C2346 1.390 . S
C2347 C2348 1.394 . S
C2347 C2353 1.465 . S
C2348 C2343 1.399 . S
C2348 C2347 1.394 . S
C2348 C2349 1.516 . S
C2349 C2348 1.516 . S
C2349 C2350 1.502 . S
C2349 C2351 1.561 . S
C2349 C2352 1.526 . S
C2350 H2334 0.959 . S
C2350 H2335 0.959 . S
C2350 H2336 0.961 . S
C2350 C2349 1.502 . S
C2351 H2337 0.960 . S
C2351 H2338 0.961 . S
C2351 H2339 0.959 . S
C2351 C2349 1.561 . S
C2352 C2349 1.526 . S
C2352 C2353 1.396 . S
C2352 C2357 1.390 . S
C2353 C2347 1.465 . S
C2353 C2352 1.396 . S
C2353 C2354 1.399 . S
C2354 H2340 0.929 . S
C2354 C2353 1.399 . S
C2354 C2355 1.385 . S
C2355 H2341 0.931 . S
C2355 C2354 1.385 . S
C2355 C2356 1.389 . S
C2356 C2355 1.389 . S
C2356 C2357 1.387 . S
C2357 H2342 0.930 . S
C2357 C2352 1.390 . S
C2357 C2356 1.387 . S
H2358 C2370 0.930 . S
H2359 C2372 0.930 . S
H2360 C2373 0.930 . S
H2361 C2377 0.959 . S
H2362 C2377 0.959 . S
H2363 C2377 0.961 . S
H2364 C2378 0.960 . S
H2365 C2378 0.961 . S
H2366 C2378 0.959 . S
H2367 C2381 0.929 . S
H2368 C2382 0.931 . S
H2369 C2384 0.930 . S
C2370 H2358 0.930 . S
C2370 C2371 1.399 . S
C2370 C2375 1.399 . S
C2371 C2370 1.399 . S
C2371 C2372 1.376 . S
C2372 H2359 0.930 . S
C2372 C2371 1.376 . S
C2372 C2373 1.388 . S
C2373 H2360 0.930 . S
C2373 C2372 1.388 . S
C2373 C2374 1.390 . S
C2374 C2373 1.390 . S
C2374 C2375 1.394 . S
C2374 C2380 1.465 . S
C2375 C2370 1.399 . S
C2375 C2374 1.394 . S
C2375 C2376 1.516 . S
C2376 C2375 1.516 . S
C2376 C2377 1.502 . S
C2376 C2378 1.561 . S
C2376 C2379 1.526 . S
C2377 H2361 0.959 . S
C2377 H2362 0.959 . S
C2377 H2363 0.961 . S
C2377 C2376 1.502 . S
C2378 H2364 0.960 . S
C2378 H2365 0.961 . S
C2378 H2366 0.959 . S
C2378 C2376 1.561 . S
C2379 C2376 1.526 . S
C2379 C2380 1.396 . S
C2379 C2384 1.390 . S
C2380 C2374 1.465 . S
C2380 C2379 1.396 . S
C2380 C2381 1.399 . S
C2381 H2367 0.929 . S
C2381 C2380 1.399 . S
C2381 C2382 1.385 . S
C2382 H2368 0.931 . S
C2382 C2381 1.385 . S
C2382 C2383 1.389 . S
C2383 C2382 1.389 . S
C2383 C2384 1.387 . S
C2384 H2369 0.930 . S
C2384 C2379 1.390 . S
C2384 C2383 1.387 . S
H2385 C2397 0.930 . S
H2386 C2399 0.930 . S
H2387 C2400 0.930 . S
H2388 C2404 0.959 . S
H2389 C2404 0.959 . S
H2390 C2404 0.961 . S
H2391 C2405 0.960 . S
H2392 C2405 0.961 . S
H2393 C2405 0.959 . S
H2394 C2408 0.929 . S
H2395 C2409 0.931 . S
H2396 C2411 0.930 . S
C2397 H2385 0.930 . S
C2397 C2398 1.399 . S
C2397 C2402 1.399 . S
C2398 C2397 1.399 . S
C2398 C2399 1.376 . S
C2399 H2386 0.930 . S
C2399 C2398 1.376 . S
C2399 C2400 1.388 . S
C2400 H2387 0.930 . S
C2400 C2399 1.388 . S
C2400 C2401 1.390 . S
C2401 C2400 1.390 . S
C2401 C2402 1.394 . S
C2401 C2407 1.465 . S
C2402 C2397 1.399 . S
C2402 C2401 1.394 . S
C2402 C2403 1.516 . S
C2403 C2402 1.516 . S
C2403 C2404 1.502 . S
C2403 C2405 1.561 . S
C2403 C2406 1.526 . S
C2404 H2388 0.959 . S
C2404 H2389 0.959 . S
C2404 H2390 0.961 . S
C2404 C2403 1.502 . S
C2405 H2391 0.960 . S
C2405 H2392 0.961 . S
C2405 H2393 0.959 . S
C2405 C2403 1.561 . S
C2406 C2403 1.526 . S
C2406 C2407 1.396 . S
C2406 C2411 1.390 . S
C2407 C2401 1.465 . S
C2407 C2406 1.396 . S
C2407 C2408 1.399 . S
C2408 H2394 0.929 . S
C2408 C2407 1.399 . S
C2408 C2409 1.385 . S
C2409 H2395 0.931 . S
C2409 C2408 1.385 . S
C2409 C2410 1.389 . S
C2410 C2409 1.389 . S
C2410 C2411 1.387 . S
C2411 H2396 0.930 . S
C2411 C2406 1.390 . S
C2411 C2410 1.387 . S
H2412 C2424 0.930 . S
H2413 C2426 0.930 . S
H2414 C2427 0.930 . S
H2415 C2431 0.959 . S
H2416 C2431 0.959 . S
H2417 C2431 0.961 . S
H2418 C2432 0.960 . S
H2419 C2432 0.961 . S
H2420 C2432 0.959 . S
H2421 C2435 0.929 . S
H2422 C2436 0.931 . S
H2423 C2438 0.930 . S
C2424 H2412 0.930 . S
C2424 C2425 1.399 . S
C2424 C2429 1.399 . S
C2425 C2424 1.399 . S
C2425 C2426 1.376 . S
C2426 H2413 0.930 . S
C2426 C2425 1.376 . S
C2426 C2427 1.388 . S
C2427 H2414 0.930 . S
C2427 C2426 1.388 . S
C2427 C2428 1.390 . S
C2428 C2427 1.390 . S
C2428 C2429 1.394 . S
C2428 C2434 1.465 . S
C2429 C2424 1.399 . S
C2429 C2428 1.394 . S
C2429 C2430 1.516 . S
C2430 C2429 1.516 . S
C2430 C2431 1.502 . S
C2430 C2432 1.561 . S
C2430 C2433 1.526 . S
C2431 H2415 0.959 . S
C2431 H2416 0.959 . S
C2431 H2417 0.961 . S
C2431 C2430 1.502 . S
C2432 H2418 0.960 . S
C2432 H2419 0.961 . S
C2432 H2420 0.959 . S
C2432 C2430 1.561 . S
C2433 C2430 1.526 . S
C2433 C2434 1.396 . S
C2433 C2438 1.390 . S
C2434 C2428 1.465 . S
C2434 C2433 1.396 . S
C2434 C2435 1.399 . S
C2435 H2421 0.929 . S
C2435 C2434 1.399 . S
C2435 C2436 1.385 . S
C2436 H2422 0.931 . S
C2436 C2435 1.385 . S
C2436 C2437 1.389 . S
C2437 C2436 1.389 . S
C2437 C2438 1.387 . S
C2438 H2423 0.930 . S
C2438 C2433 1.390 . S
C2438 C2437 1.387 . S
H2439 C2451 0.930 . S
H2440 C2453 0.930 . S
H2441 C2454 0.930 . S
H2442 C2458 0.959 . S
H2443 C2458 0.959 . S
H2444 C2458 0.961 . S
H2445 C2459 0.960 . S
H2446 C2459 0.961 . S
H2447 C2459 0.959 . S
H2448 C2462 0.929 . S
H2449 C2463 0.931 . S
H2450 C2465 0.930 . S
C2451 H2439 0.930 . S
C2451 C2452 1.399 . S
C2451 C2456 1.399 . S
C2452 C2451 1.399 . S
C2452 C2453 1.376 . S
C2453 H2440 0.930 . S
C2453 C2452 1.376 . S
C2453 C2454 1.388 . S
C2454 H2441 0.930 . S
C2454 C2453 1.388 . S
C2454 C2455 1.390 . S
C2455 C2454 1.390 . S
C2455 C2456 1.394 . S
C2455 C2461 1.465 . S
C2456 C2451 1.399 . S
C2456 C2455 1.394 . S
C2456 C2457 1.516 . S
C2457 C2456 1.516 . S
C2457 C2458 1.502 . S
C2457 C2459 1.561 . S
C2457 C2460 1.526 . S
C2458 H2442 0.959 . S
C2458 H2443 0.959 . S
C2458 H2444 0.961 . S
C2458 C2457 1.502 . S
C2459 H2445 0.960 . S
C2459 H2446 0.961 . S
C2459 H2447 0.959 . S
C2459 C2457 1.561 . S
C2460 C2457 1.526 . S
C2460 C2461 1.396 . S
C2460 C2465 1.390 . S
C2461 C2455 1.465 . S
C2461 C2460 1.396 . S
C2461 C2462 1.399 . S
C2462 H2448 0.929 . S
C2462 C2461 1.399 . S
C2462 C2463 1.385 . S
C2463 H2449 0.931 . S
C2463 C2462 1.385 . S
C2463 C2464 1.389 . S
C2464 C2463 1.389 . S
C2464 C2465 1.387 . S
C2465 H2450 0.930 . S
C2465 C2460 1.390 . S
C2465 C2464 1.387 . S
H2466 C2478 0.930 . S
H2467 C2480 0.930 . S
H2468 C2481 0.930 . S
H2469 C2485 0.959 . S
H2470 C2485 0.959 . S
H2471 C2485 0.961 . S
H2472 C2486 0.960 . S
H2473 C2486 0.961 . S
H2474 C2486 0.959 . S
H2475 C2489 0.929 . S
H2476 C2490 0.931 . S
H2477 C2492 0.930 . S
C2478 H2466 0.930 . S
C2478 C2479 1.399 . S
C2478 C2483 1.399 . S
C2479 C2478 1.399 . S
C2479 C2480 1.376 . S
C2480 H2467 0.930 . S
C2480 C2479 1.376 . S
C2480 C2481 1.388 . S
C2481 H2468 0.930 . S
C2481 C2480 1.388 . S
C2481 C2482 1.390 . S
C2482 C2481 1.390 . S
C2482 C2483 1.394 . S
C2482 C2488 1.465 . S
C2483 C2478 1.399 . S
C2483 C2482 1.394 . S
C2483 C2484 1.516 . S
C2484 C2483 1.516 . S
C2484 C2485 1.502 . S
C2484 C2486 1.561 . S
C2484 C2487 1.526 . S
C2485 H2469 0.959 . S
C2485 H2470 0.959 . S
C2485 H2471 0.961 . S
C2485 C2484 1.502 . S
C2486 H2472 0.960 . S
C2486 H2473 0.961 . S
C2486 H2474 0.959 . S
C2486 C2484 1.561 . S
C2487 C2484 1.526 . S
C2487 C2488 1.396 . S
C2487 C2492 1.390 . S
C2488 C2482 1.465 . S
C2488 C2487 1.396 . S
C2488 C2489 1.399 . S
C2489 H2475 0.929 . S
C2489 C2488 1.399 . S
C2489 C2490 1.385 . S
C2490 H2476 0.931 . S
C2490 C2489 1.385 . S
C2490 C2491 1.389 . S
C2491 C2490 1.389 . S
C2491 C2492 1.387 . S
C2492 H2477 0.930 . S
C2492 C2487 1.390 . S
C2492 C2491 1.387 . S
H2493 C2505 0.930 . S
H2494 C2507 0.930 . S
H2495 C2508 0.930 . S
H2496 C2512 0.959 . S
H2497 C2512 0.959 . S
H2498 C2512 0.961 . S
H2499 C2513 0.960 . S
H2500 C2513 0.961 . S
H2501 C2513 0.959 . S
H2502 C2516 0.929 . S
H2503 C2517 0.931 . S
H2504 C2519 0.930 . S
C2505 H2493 0.930 . S
C2505 C2506 1.399 . S
C2505 C2510 1.399 . S
C2506 C2505 1.399 . S
C2506 C2507 1.376 . S
C2507 H2494 0.930 . S
C2507 C2506 1.376 . S
C2507 C2508 1.388 . S
C2508 H2495 0.930 . S
C2508 C2507 1.388 . S
C2508 C2509 1.390 . S
C2509 C2508 1.390 . S
C2509 C2510 1.394 . S
C2509 C2515 1.465 . S
C2510 C2505 1.399 . S
C2510 C2509 1.394 . S
C2510 C2511 1.516 . S
C2511 C2510 1.516 . S
C2511 C2512 1.502 . S
C2511 C2513 1.561 . S
C2511 C2514 1.526 . S
C2512 H2496 0.959 . S
C2512 H2497 0.959 . S
C2512 H2498 0.961 . S
C2512 C2511 1.502 . S
C2513 H2499 0.960 . S
C2513 H2500 0.961 . S
C2513 H2501 0.959 . S
C2513 C2511 1.561 . S
C2514 C2511 1.526 . S
C2514 C2515 1.396 . S
C2514 C2519 1.390 . S
C2515 C2509 1.465 . S
C2515 C2514 1.396 . S
C2515 C2516 1.399 . S
C2516 H2502 0.929 . S
C2516 C2515 1.399 . S
C2516 C2517 1.385 . S
C2517 H2503 0.931 . S
C2517 C2516 1.385 . S
C2517 C2518 1.389 . S
C2518 C2517 1.389 . S
C2518 C2519 1.387 . S
C2519 H2504 0.930 . S
C2519 C2514 1.390 . S
C2519 C2518 1.387 . S
H2520 C2532 0.930 . S
H2521 C2534 0.930 . S
H2522 C2535 0.930 . S
H2523 C2539 0.959 . S
H2524 C2539 0.959 . S
H2525 C2539 0.961 1_455 S
H2526 C2540 0.960 . S
H2527 C2540 0.961 . S
H2528 C2540 0.959 . S
H2529 C2543 0.929 . S
H2530 C2544 0.931 . S
H2531 C2546 0.930 . S
C2532 H2520 0.930 . S
C2532 C2533 1.399 . S
C2532 C2537 1.399 . S
C2533 C2532 1.399 . S
C2533 C2534 1.376 . S
C2534 H2521 0.930 . S
C2534 C2533 1.376 . S
C2534 C2535 1.388 . S
C2535 H2522 0.930 . S
C2535 C2534 1.388 . S
C2535 C2536 1.390 . S
C2536 C2535 1.390 . S
C2536 C2537 1.394 . S
C2536 C2542 1.465 1_455 S
C2537 C2532 1.399 . S
C2537 C2536 1.394 . S
C2537 C2538 1.516 . S
C2538 C2537 1.516 . S
C2538 C2539 1.502 1_455 S
C2538 C2540 1.561 . S
C2538 C2541 1.526 1_455 S
C2539 H2523 0.959 . S
C2539 H2524 0.959 . S
C2539 H2525 0.961 1_655 S
C2539 C2538 1.502 1_655 S
C2540 H2526 0.960 . S
C2540 H2527 0.961 . S
C2540 H2528 0.959 . S
C2540 C2538 1.561 . S
C2541 C2538 1.526 1_655 S
C2541 C2542 1.396 . S
C2541 C2546 1.390 . S
C2542 C2536 1.465 1_655 S
C2542 C2541 1.396 . S
C2542 C2543 1.399 . S
C2543 H2529 0.929 . S
C2543 C2542 1.399 . S
C2543 C2544 1.385 . S
C2544 H2530 0.931 . S
C2544 C2543 1.385 . S
C2544 C2545 1.389 . S
C2545 C2544 1.389 . S
C2545 C2546 1.387 . S
C2546 H2531 0.930 . S
C2546 C2541 1.390 . S
C2546 C2545 1.387 . S
H2547 C2559 0.930 . S
H2548 C2561 0.930 . S
H2549 C2562 0.930 . S
H2550 C2566 0.959 . S
H2551 C2566 0.959 . S
H2552 C2566 0.961 . S
H2553 C2567 0.960 . S
H2554 C2567 0.961 . S
H2555 C2567 0.959 . S
H2556 C2570 0.929 . S
H2557 C2571 0.931 . S
H2558 C2573 0.930 . S
C2559 H2547 0.930 . S
C2559 C2560 1.399 . S
C2559 C2564 1.399 . S
C2560 C2559 1.399 . S
C2560 C2561 1.376 . S
C2561 H2548 0.930 . S
C2561 C2560 1.376 . S
C2561 C2562 1.388 . S
C2562 H2549 0.930 . S
C2562 C2561 1.388 . S
C2562 C2563 1.390 . S
C2563 C2562 1.390 . S
C2563 C2564 1.394 . S
C2563 C2569 1.465 . S
C2564 C2559 1.399 . S
C2564 C2563 1.394 . S
C2564 C2565 1.516 . S
C2565 C2564 1.516 . S
C2565 C2566 1.502 . S
C2565 C2567 1.561 . S
C2565 C2568 1.526 . S
C2566 H2550 0.959 . S
C2566 H2551 0.959 . S
C2566 H2552 0.961 . S
C2566 C2565 1.502 . S
C2567 H2553 0.960 . S
C2567 H2554 0.961 . S
C2567 H2555 0.959 . S
C2567 C2565 1.561 . S
C2568 C2565 1.526 . S
C2568 C2569 1.396 . S
C2568 C2573 1.390 . S
C2569 C2563 1.465 . S
C2569 C2568 1.396 . S
C2569 C2570 1.399 . S
C2570 H2556 0.929 . S
C2570 C2569 1.399 . S
C2570 C2571 1.385 . S
C2571 H2557 0.931 . S
C2571 C2570 1.385 . S
C2571 C2572 1.389 . S
C2572 C2571 1.389 . S
C2572 C2573 1.387 . S
C2573 H2558 0.930 . S
C2573 C2568 1.390 . S
C2573 C2572 1.387 . S
H2574 C2586 0.930 . S
H2575 C2588 0.928 1_565 S
H2576 C2589 0.930 . S
H2577 C2593 0.959 . S
H2578 C2593 0.959 . S
H2579 C2593 0.961 . S
H2580 C2594 0.960 . S
H2581 C2594 0.961 . S
H2582 C2594 0.959 . S
H2583 C2597 0.929 . S
H2584 C2598 0.931 . S
H2585 C2600 0.930 1_545 S
C2586 H2574 0.930 . S
C2586 C2587 1.399 . S
C2586 C2591 1.399 . S
C2587 C2586 1.399 . S
C2587 C2588 1.376 . S
C2588 H2575 0.928 1_545 S
C2588 C2587 1.376 . S
C2588 C2589 1.388 1_545 S
C2589 H2576 0.930 . S
C2589 C2588 1.388 1_565 S
C2589 C2590 1.390 . S
C2590 C2589 1.390 . S
C2590 C2591 1.394 1_565 S
C2590 C2596 1.465 . S
C2591 C2586 1.399 . S
C2591 C2590 1.394 1_545 S
C2591 C2592 1.516 . S
C2592 C2591 1.516 . S
C2592 C2593 1.502 . S
C2592 C2594 1.561 . S
C2592 C2595 1.504 1_545 S
C2593 H2577 0.959 . S
C2593 H2578 0.959 . S
C2593 H2579 0.961 . S
C2593 C2592 1.502 . S
C2594 H2580 0.960 . S
C2594 H2581 0.961 . S
C2594 H2582 0.959 . S
C2594 C2592 1.561 . S
C2595 C2592 1.504 1_565 S
C2595 C2596 1.417 . S
C2595 C2600 1.393 . S
C2596 C2590 1.465 . S
C2596 C2595 1.417 . S
C2596 C2597 1.399 . S
C2597 H2583 0.929 . S
C2597 C2596 1.399 . S
C2597 C2598 1.385 . S
C2598 H2584 0.931 . S
C2598 C2597 1.385 . S
C2598 C2599 1.389 . S
C2599 C2598 1.389 . S
C2599 C2600 1.387 . S
C2600 H2585 0.930 1_565 S
C2600 C2595 1.393 . S
C2600 C2599 1.387 . S
H2601 C2613 0.930 . S
H2602 C2615 0.930 . S
H2603 C2616 0.930 1_556 S
H2604 C2620 0.959 1_565 S
H2605 C2620 0.959 . S
H2606 C2620 0.961 . S
H2607 C2621 0.960 . S
H2608 C2621 0.961 . S
H2609 C2621 0.959 . S
H2610 C2624 0.929 1_565 S
H2611 C2625 0.931 . S
H2612 C2627 0.930 . S
C2613 H2601 0.930 . S
C2613 C2614 1.399 . S
C2613 C2618 1.399 . S
C2614 C2613 1.399 . S
C2614 C2615 1.376 . S
C2615 H2602 0.930 . S
C2615 C2614 1.376 . S
C2615 C2616 1.388 . S
C2616 H2603 0.930 1_554 S
C2616 C2615 1.388 . S
C2616 C2617 1.390 . S
C2617 C2616 1.390 . S
C2617 C2618 1.394 . S
C2617 C2623 1.465 1_564 S
C2618 C2613 1.399 . S
C2618 C2617 1.394 . S
C2618 C2619 1.516 1_565 S
C2619 C2618 1.516 1_545 S
C2619 C2620 1.502 . S
C2619 C2621 1.561 . S
C2619 C2622 1.526 1_554 S
C2620 H2604 0.959 1_545 S
C2620 H2605 0.959 . S
C2620 H2606 0.961 . S
C2620 C2619 1.502 . S
C2621 H2607 0.960 . S
C2621 H2608 0.961 . S
C2621 H2609 0.959 . S
C2621 C2619 1.561 . S
C2622 C2619 1.526 1_556 S
C2622 C2623 1.396 . S
C2622 C2627 1.390 . S
C2623 C2617 1.465 1_546 S
C2623 C2622 1.396 . S
C2623 C2624 1.399 . S
C2624 H2610 0.929 1_545 S
C2624 C2623 1.399 . S
C2624 C2625 1.385 . S
C2625 H2611 0.931 . S
C2625 C2624 1.385 . S
C2625 C2626 1.389 . S
C2626 C2625 1.389 . S
C2626 C2627 1.387 . S
C2627 H2612 0.930 . S
C2627 C2622 1.390 . S
C2627 C2626 1.387 . S
H2628 C2640 0.930 . S
H2629 C2642 0.930 . S
H2630 C2643 0.930 . S
H2631 C2647 0.959 . S
H2632 C2647 0.959 . S
H2633 C2647 0.961 . S
H2634 C2648 0.960 1_556 S
H2635 C2648 0.961 . S
H2636 C2648 0.959 1_556 S
H2637 C2651 0.929 1_556 S
H2638 C2652 0.931 . S
H2639 C2654 0.930 . S
C2640 H2628 0.930 . S
C2640 C2641 1.399 . S
C2640 C2645 1.399 . S
C2641 C2640 1.399 . S
C2641 C2642 1.376 . S
C2642 H2629 0.930 . S
C2642 C2641 1.376 . S
C2642 C2643 1.388 . S
C2643 H2630 0.930 . S
C2643 C2642 1.388 . S
C2643 C2644 1.390 . S
C2644 C2643 1.390 . S
C2644 C2645 1.394 . S
C2644 C2650 1.465 1_656 S
C2645 C2640 1.399 . S
C2645 C2644 1.394 . S
C2645 C2646 1.516 1_656 S
C2646 C2645 1.516 1_454 S
C2646 C2647 1.502 1_455 S
C2646 C2648 1.561 . S
C2646 C2649 1.526 . S
C2647 H2631 0.959 . S
C2647 H2632 0.959 . S
C2647 H2633 0.961 . S
C2647 C2646 1.502 1_655 S
C2648 H2634 0.960 1_554 S
C2648 H2635 0.961 . S
C2648 H2636 0.959 1_554 S
C2648 C2646 1.561 . S
C2649 C2646 1.526 . S
C2649 C2650 1.396 . S
C2649 C2654 1.390 . S
C2650 C2644 1.465 1_454 S
C2650 C2649 1.396 . S
C2650 C2651 1.399 . S
C2651 H2637 0.929 1_554 S
C2651 C2650 1.399 . S
C2651 C2652 1.385 . S
C2652 H2638 0.931 . S
C2652 C2651 1.385 . S
C2652 C2653 1.389 . S
C2653 C2652 1.389 . S
C2653 C2654 1.387 . S
C2654 H2639 0.930 . S
C2654 C2649 1.390 . S
C2654 C2653 1.387 . S
H2655 C2667 0.930 . S
H2656 C2669 0.930 . S
H2657 C2670 0.930 . S
H2658 C2674 0.959 . S
H2659 C2674 0.959 . S
H2660 C2674 0.961 . S
H2661 C2675 0.960 . S
H2662 C2675 0.961 . S
H2663 C2675 0.959 . S
H2664 C2678 0.929 . S
H2665 C2679 0.931 . S
H2666 C2681 0.930 . S
C2667 H2655 0.930 . S
C2667 C2668 1.399 . S
C2667 C2672 1.399 . S
C2668 C2667 1.399 . S
C2668 C2669 1.376 . S
C2669 H2656 0.930 . S
C2669 C2668 1.376 . S
C2669 C2670 1.388 . S
C2670 H2657 0.930 . S
C2670 C2669 1.388 . S
C2670 C2671 1.390 . S
C2671 C2670 1.390 . S
C2671 C2672 1.394 . S
C2671 C2677 1.465 1_554 S
C2672 C2667 1.399 . S
C2672 C2671 1.394 . S
C2672 C2673 1.502 1_554 S
C2673 C2672 1.502 1_556 S
C2673 C2674 1.513 . S
C2673 C2675 1.550 1_556 S
C2673 C2676 1.539 . S
C2674 H2658 0.959 . S
C2674 H2659 0.959 . S
C2674 H2660 0.961 . S
C2674 C2673 1.513 . S
C2675 H2661 0.960 . S
C2675 H2662 0.961 . S
C2675 H2663 0.959 . S
C2675 C2673 1.550 1_554 S
C2676 C2673 1.539 . S
C2676 C2677 1.396 . S
C2676 C2681 1.390 . S
C2677 C2671 1.465 1_556 S
C2677 C2676 1.396 . S
C2677 C2678 1.399 . S
C2678 H2664 0.929 . S
C2678 C2677 1.399 . S
C2678 C2679 1.385 . S
C2679 H2665 0.931 . S
C2679 C2678 1.385 . S
C2679 C2680 1.389 . S
C2680 C2679 1.389 . S
C2680 C2681 1.387 . S
C2681 H2666 0.930 . S
C2681 C2676 1.390 . S
C2681 C2680 1.387 . S
H2682 C2694 0.930 . S
H2683 C2696 0.930 . S
H2684 C2697 0.930 . S
H2685 C2701 0.959 . S
H2686 C2701 0.959 . S
H2687 C2701 0.961 . S
H2688 C2702 0.960 . S
H2689 C2702 0.961 1_565 S
H2690 C2702 0.959 . S
H2691 C2705 0.931 1_545 S
H2692 C2706 0.931 . S
H2693 C2708 0.930 1_554 S
C2694 H2682 0.930 . S
C2694 C2695 1.399 . S
C2694 C2699 1.399 . S
C2695 C2694 1.399 . S
C2695 C2696 1.376 1_554 S
C2696 H2683 0.930 . S
C2696 C2695 1.376 1_556 S
C2696 C2697 1.388 . S
C2697 H2684 0.930 . S
C2697 C2696 1.388 . S
C2697 C2698 1.390 . S
C2698 C2697 1.390 . S
C2698 C2699 1.394 1_556 S
C2698 C2704 1.465 . S
C2699 C2694 1.399 . S
C2699 C2698 1.394 1_554 S
C2699 C2700 1.516 . S
C2700 C2699 1.516 . S
C2700 C2701 1.502 . S
C2700 C2702 1.561 . S
C2700 C2703 1.521 1_544 S
C2701 H2685 0.959 . S
C2701 H2686 0.959 . S
C2701 H2687 0.961 . S
C2701 C2700 1.502 . S
C2702 H2688 0.960 . S
C2702 H2689 0.961 1_545 S
C2702 H2690 0.959 . S
C2702 C2700 1.561 . S
C2703 C2700 1.521 1_566 S
C2703 C2704 1.387 1_565 S
C2703 C2708 1.402 . S
C2704 C2698 1.465 . S
C2704 C2703 1.387 1_545 S
C2704 C2705 1.399 1_545 S
C2705 H2691 0.931 1_565 S
C2705 C2704 1.399 1_565 S
C2705 C2706 1.384 . S
C2706 H2692 0.931 . S
C2706 C2705 1.384 . S
C2706 C2707 1.389 . S
C2707 C2706 1.389 . S
C2707 C2708 1.387 . S
C2708 H2693 0.930 1_556 S
C2708 C2703 1.402 . S
C2708 C2707 1.387 . S
H2709 C2721 0.930 . S
H2710 C2723 0.930 . S
H2711 C2724 0.930 . S
H2712 C2728 0.959 . S
H2713 C2728 0.959 1_455 S
H2714 C2728 0.961 . S
H2715 C2729 0.962 1_554 S
H2716 C2729 0.961 . S
H2717 C2729 0.959 . S
H2718 C2732 0.929 . S
H2719 C2733 0.931 . S
H2720 C2735 0.930 . S
C2721 H2709 0.930 . S
C2721 C2722 1.399 . S
C2721 C2726 1.399 . S
C2722 C2721 1.399 . S
C2722 C2723 1.376 1_554 S
C2723 H2710 0.930 . S
C2723 C2722 1.376 1_556 S
C2723 C2724 1.388 . S
C2724 H2711 0.930 . S
C2724 C2723 1.388 . S
C2724 C2725 1.390 . S
C2725 C2724 1.390 . S
C2725 C2726 1.394 1_556 S
C2725 C2731 1.465 . S
C2726 C2721 1.399 . S
C2726 C2725 1.394 1_554 S
C2726 C2727 1.516 . S
C2727 C2726 1.516 . S
C2727 C2728 1.502 . S
C2727 C2729 1.561 1_554 S
C2727 C2730 1.526 1_654 S
C2728 H2712 0.959 . S
C2728 H2713 0.959 1_655 S
C2728 H2714 0.961 . S
C2728 C2727 1.502 . S
C2729 H2715 0.962 1_556 S
C2729 H2716 0.961 . S
C2729 H2717 0.959 . S
C2729 C2727 1.561 1_556 S
C2730 C2727 1.526 1_456 S
C2730 C2731 1.398 1_455 S
C2730 C2735 1.388 . S
C2731 C2725 1.465 . S
C2731 C2730 1.398 1_655 S
C2731 C2732 1.399 . S
C2732 H2718 0.929 . S
C2732 C2731 1.399 . S
C2732 C2733 1.385 1_655 S
C2733 H2719 0.931 . S
C2733 C2732 1.385 1_455 S
C2733 C2734 1.389 . S
C2734 C2733 1.389 . S
C2734 C2735 1.387 . S
C2735 H2720 0.930 . S
C2735 C2730 1.388 . S
C2735 C2734 1.387 . S
H2736 C2748 0.930 . S
H2737 C2750 0.930 . S
H2738 C2751 0.930 . S
H2739 C2755 0.987 . S
H2740 C2755 0.942 1_554 S
H2741 C2755 0.962 . S
H2742 C2756 0.960 . S
H2743 C2756 0.961 . S
H2744 C2756 0.959 . S
H2745 C2759 0.929 . S
H2746 C2760 0.924 1_556 S
H2747 C2762 0.930 . S
C2748 H2736 0.930 . S
C2748 C2749 1.399 . S
C2748 C2753 1.399 . S
C2749 C2748 1.399 . S
C2749 C2750 1.376 . S
C2750 H2737 0.930 . S
C2750 C2749 1.376 . S
C2750 C2751 1.388 . S
C2751 H2738 0.930 . S
C2751 C2750 1.388 . S
C2751 C2752 1.390 . S
C2752 C2751 1.390 . S
C2752 C2753 1.394 . S
C2752 C2758 1.465 . S
C2753 C2748 1.399 . S
C2753 C2752 1.394 . S
C2753 C2754 1.516 1_556 S
C2754 C2753 1.516 1_554 S
C2754 C2755 1.492 1_554 S
C2754 C2756 1.561 . S
C2754 C2757 1.526 . S
C2755 H2739 0.987 . S
C2755 H2740 0.942 1_556 S
C2755 H2741 0.962 . S
C2755 C2754 1.492 1_556 S
C2756 H2742 0.960 . S
C2756 H2743 0.961 . S
C2756 H2744 0.959 . S
C2756 C2754 1.561 . S
C2757 C2754 1.526 . S
C2757 C2758 1.396 1_554 S
C2757 C2762 1.390 . S
C2758 C2752 1.465 . S
C2758 C2757 1.396 1_556 S
C2758 C2759 1.399 . S
C2759 H2745 0.929 . S
C2759 C2758 1.399 . S
C2759 C2760 1.369 1_556 S
C2760 H2746 0.924 1_554 S
C2760 C2759 1.369 1_554 S
C2760 C2761 1.413 . S
C2761 C2760 1.413 . S
C2761 C2762 1.387 . S
C2762 H2747 0.930 . S
C2762 C2757 1.390 . S
C2762 C2761 1.387 . S
H2763 C2775 0.930 . S
H2764 C2777 0.930 . S
H2765 C2778 0.930 . S
H2766 C2782 0.959 . S
H2767 C2782 0.959 . S
H2768 C2782 0.961 1_655 S
H2769 C2783 0.960 1_655 S
H2770 C2783 0.961 . S
H2771 C2783 0.959 . S
H2772 C2786 0.929 . S
H2773 C2787 0.931 . S
H2774 C2789 0.930 . S
C2775 H2763 0.930 . S
C2775 C2776 1.399 . S
C2775 C2780 1.399 . S
C2776 C2775 1.399 . S
C2776 C2777 1.376 . S
C2777 H2764 0.930 . S
C2777 C2776 1.376 . S
C2777 C2778 1.388 1_655 S
C2778 H2765 0.930 . S
C2778 C2777 1.388 1_455 S
C2778 C2779 1.390 . S
C2779 C2778 1.390 . S
C2779 C2780 1.394 1_455 S
C2779 C2785 1.465 . S
C2780 C2775 1.399 . S
C2780 C2779 1.394 1_655 S
C2780 C2781 1.516 1_655 S
C2781 C2780 1.516 1_455 S
C2781 C2782 1.502 . S
C2781 C2783 1.561 . S
C2781 C2784 1.526 . S
C2782 H2766 0.959 . S
C2782 H2767 0.959 . S
C2782 H2768 0.961 1_455 S
C2782 C2781 1.502 . S
C2783 H2769 0.960 1_455 S
C2783 H2770 0.961 . S
C2783 H2771 0.959 . S
C2783 C2781 1.561 . S
C2784 C2781 1.526 . S
C2784 C2785 1.396 . S
C2784 C2789 1.390 . S
C2785 C2779 1.465 . S
C2785 C2784 1.396 . S
C2785 C2786 1.399 . S
C2786 H2772 0.929 . S
C2786 C2785 1.399 . S
C2786 C2787 1.385 . S
C2787 H2773 0.931 . S
C2787 C2786 1.385 . S
C2787 C2788 1.389 . S
C2788 C2787 1.389 . S
C2788 C2789 1.387 . S
C2789 H2774 0.930 . S
C2789 C2784 1.390 . S
C2789 C2788 1.387 . S
H2790 C2802 0.930 . S
H2791 C2804 0.930 . S
H2792 C2805 0.930 . S
H2793 C2809 0.959 . S
H2794 C2809 0.959 . S
H2795 C2809 0.961 . S
H2796 C2810 0.960 . S
H2797 C2810 0.961 . S
H2798 C2810 0.959 . S
H2799 C2813 0.929 . S
H2800 C2814 0.931 . S
H2801 C2816 0.930 . S
C2802 H2790 0.930 . S
C2802 C2803 1.399 . S
C2802 C2807 1.399 . S
C2803 C2802 1.399 . S
C2803 C2804 1.376 . S
C2804 H2791 0.930 . S
C2804 C2803 1.376 . S
C2804 C2805 1.388 . S
C2805 H2792 0.930 . S
C2805 C2804 1.388 . S
C2805 C2806 1.390 . S
C2806 C2805 1.390 . S
C2806 C2807 1.394 . S
C2806 C2812 1.465 . S
C2807 C2802 1.399 . S
C2807 C2806 1.394 . S
C2807 C2808 1.516 . S
C2808 C2807 1.516 . S
C2808 C2809 1.502 . S
C2808 C2810 1.561 . S
C2808 C2811 1.526 . S
C2809 H2793 0.959 . S
C2809 H2794 0.959 . S
C2809 H2795 0.961 . S
C2809 C2808 1.502 . S
C2810 H2796 0.960 . S
C2810 H2797 0.961 . S
C2810 H2798 0.959 . S
C2810 C2808 1.561 . S
C2811 C2808 1.526 . S
C2811 C2812 1.396 . S
C2811 C2816 1.390 . S
C2812 C2806 1.465 . S
C2812 C2811 1.396 . S
C2812 C2813 1.399 . S
C2813 H2799 0.929 . S
C2813 C2812 1.399 . S
C2813 C2814 1.385 . S
C2814 H2800 0.931 . S
C2814 C2813 1.385 . S
C2814 C2815 1.389 . S
C2815 C2814 1.389 . S
C2815 C2816 1.387 . S
C2816 H2801 0.930 . S
C2816 C2811 1.390 . S
C2816 C2815 1.387 . S
H2817 C2829 0.930 . S
H2818 C2831 0.930 . S
H2819 C2832 0.930 . S
H2820 C2836 0.959 . S
H2821 C2836 0.959 . S
H2822 C2836 0.961 . S
H2823 C2837 0.960 . S
H2824 C2837 0.961 . S
H2825 C2837 0.959 . S
H2826 C2840 0.929 . S
H2827 C2841 0.931 . S
H2828 C2843 0.930 . S
C2829 H2817 0.930 . S
C2829 C2830 1.399 . S
C2829 C2834 1.399 1_545 S
C2830 C2829 1.399 . S
C2830 C2831 1.376 . S
C2831 H2818 0.930 . S
C2831 C2830 1.376 . S
C2831 C2832 1.388 . S
C2832 H2819 0.930 . S
C2832 C2831 1.388 . S
C2832 C2833 1.390 1_545 S
C2833 C2832 1.390 1_565 S
C2833 C2834 1.394 . S
C2833 C2839 1.465 . S
C2834 C2829 1.399 1_565 S
C2834 C2833 1.394 . S
C2834 C2835 1.516 . S
C2835 C2834 1.516 . S
C2835 C2836 1.502 . S
C2835 C2837 1.561 . S
C2835 C2838 1.526 . S
C2836 H2820 0.959 . S
C2836 H2821 0.959 . S
C2836 H2822 0.961 . S
C2836 C2835 1.502 . S
C2837 H2823 0.960 . S
C2837 H2824 0.961 . S
C2837 H2825 0.959 . S
C2837 C2835 1.561 . S
C2838 C2835 1.526 . S
C2838 C2839 1.396 . S
C2838 C2843 1.390 . S
C2839 C2833 1.465 . S
C2839 C2838 1.396 . S
C2839 C2840 1.399 . S
C2840 H2826 0.929 . S
C2840 C2839 1.399 . S
C2840 C2841 1.385 . S
C2841 H2827 0.931 . S
C2841 C2840 1.385 . S
C2841 C2842 1.389 . S
C2842 C2841 1.389 . S
C2842 C2843 1.387 . S
C2843 H2828 0.930 . S
C2843 C2838 1.390 . S
C2843 C2842 1.387 . S
H2844 C2856 0.930 1_556 S
H2845 C2858 0.930 . S
H2846 C2859 0.930 . S
H2847 C2863 0.959 . S
H2848 C2863 0.959 . S
H2849 C2863 0.961 1_545 S
H2850 C2864 0.960 1_545 S
H2851 C2864 0.961 . S
H2852 C2864 0.959 . S
H2853 C2867 0.929 . S
H2854 C2868 0.931 . S
H2855 C2870 0.930 . S
C2856 H2844 0.930 1_554 S
C2856 C2857 1.399 . S
C2856 C2861 1.450 . S
C2857 C2856 1.399 . S
C2857 C2858 1.376 . S
C2858 H2845 0.930 . S
C2858 C2857 1.376 . S
C2858 C2859 1.388 1_545 S
C2859 H2846 0.930 . S
C2859 C2858 1.388 1_565 S
C2859 C2860 1.390 . S
C2860 C2859 1.390 . S
C2860 C2861 1.374 1_565 S
C2860 C2866 1.465 . S
C2861 C2856 1.450 . S
C2861 C2860 1.374 1_545 S
C2861 C2862 1.480 1_544 S
C2862 C2861 1.480 1_566 S
C2862 C2863 1.502 . S
C2862 C2864 1.561 . S
C2862 C2865 1.526 . S
C2863 H2847 0.959 . S
C2863 H2848 0.959 . S
C2863 H2849 0.961 1_565 S
C2863 C2862 1.502 . S
C2864 H2850 0.960 1_565 S
C2864 H2851 0.961 . S
C2864 H2852 0.959 . S
C2864 C2862 1.561 . S
C2865 C2862 1.526 . S
C2865 C2866 1.396 1_556 S
C2865 C2870 1.390 . S
C2866 C2860 1.465 . S
C2866 C2865 1.396 1_554 S
C2866 C2867 1.399 . S
C2867 H2853 0.929 . S
C2867 C2866 1.399 . S
C2867 C2868 1.385 . S
C2868 H2854 0.931 . S
C2868 C2867 1.385 . S
C2868 C2869 1.389 1_554 S
C2869 C2868 1.389 1_556 S
C2869 C2870 1.387 . S
C2870 H2855 0.930 . S
C2870 C2865 1.390 . S
C2870 C2869 1.387 . S
H2871 C2883 0.930 1_556 S
H2872 C2885 0.930 . S
H2873 C2886 0.930 1_455 S
H2874 C2890 0.959 . S
H2875 C2890 0.959 . S
H2876 C2890 0.961 . S
H2877 C2891 0.960 1_655 S
H2878 C2891 0.961 . S
H2879 C2891 0.959 . S
H2880 C2894 0.929 . S
H2881 C2895 0.931 . S
H2882 C2897 0.930 . S
C2883 H2871 0.930 1_554 S
C2883 C2884 1.399 . S
C2883 C2888 1.400 1_655 S
C2884 C2883 1.399 . S
C2884 C2885 1.376 . S
C2885 H2872 0.930 . S
C2885 C2884 1.376 . S
C2885 C2886 1.388 . S
C2886 H2873 0.930 1_655 S
C2886 C2885 1.388 . S
C2886 C2887 1.390 1_655 S
C2887 C2886 1.390 1_455 S
C2887 C2888 1.394 . S
C2887 C2893 1.465 . S
C2888 C2883 1.400 1_455 S
C2888 C2887 1.394 . S
C2888 C2889 1.516 1_554 S
C2889 C2888 1.516 1_556 S
C2889 C2890 1.502 . S
C2889 C2891 1.561 . S
C2889 C2892 1.526 . S
C2890 H2874 0.959 . S
C2890 H2875 0.959 . S
C2890 H2876 0.961 . S
C2890 C2889 1.502 . S
C2891 H2877 0.960 1_455 S
C2891 H2878 0.961 . S
C2891 H2879 0.959 . S
C2891 C2889 1.561 . S
C2892 C2889 1.526 . S
C2892 C2893 1.396 1_556 S
C2892 C2897 1.390 . S
C2893 C2887 1.465 . S
C2893 C2892 1.396 1_554 S
C2893 C2894 1.399 . S
C2894 H2880 0.929 . S
C2894 C2893 1.399 . S
C2894 C2895 1.385 . S
C2895 H2881 0.931 . S
C2895 C2894 1.385 . S
C2895 C2896 1.389 1_554 S
C2896 C2895 1.389 1_556 S
C2896 C2897 1.387 . S
C2897 H2882 0.930 . S
C2897 C2892 1.390 . S
C2897 C2896 1.387 . S
H2898 C2910 0.930 1_556 S
H2899 C2912 0.930 . S
H2900 C2913 0.930 . S
H2901 C2917 0.959 . S
H2902 C2917 0.959 . S
H2903 C2917 0.961 . S
H2904 C2918 0.960 . S
H2905 C2918 0.961 . S
H2906 C2918 0.959 1_554 S
H2907 C2921 0.929 . S
H2908 C2922 0.931 . S
H2909 C2924 0.930 . S
C2910 H2898 0.930 1_554 S
C2910 C2911 1.399 . S
C2910 C2915 1.399 . S
C2911 C2910 1.399 . S
C2911 C2912 1.376 . S
C2912 H2899 0.930 . S
C2912 C2911 1.376 . S
C2912 C2913 1.388 . S
C2913 H2900 0.930 . S
C2913 C2912 1.388 . S
C2913 C2914 1.390 . S
C2914 C2913 1.390 . S
C2914 C2915 1.394 . S
C2914 C2920 1.465 . S
C2915 C2910 1.399 . S
C2915 C2914 1.394 . S
C2915 C2916 1.516 1_554 S
C2916 C2915 1.516 1_556 S
C2916 C2917 1.502 . S
C2916 C2918 1.561 . S
C2916 C2919 1.526 . S
C2917 H2901 0.959 . S
C2917 H2902 0.959 . S
C2917 H2903 0.961 . S
C2917 C2916 1.502 . S
C2918 H2904 0.960 . S
C2918 H2905 0.961 . S
C2918 H2906 0.959 1_556 S
C2918 C2916 1.561 . S
C2919 C2916 1.526 . S
C2919 C2920 1.396 1_556 S
C2919 C2924 1.390 . S
C2920 C2914 1.465 . S
C2920 C2919 1.396 1_554 S
C2920 C2921 1.399 . S
C2921 H2907 0.929 . S
C2921 C2920 1.399 . S
C2921 C2922 1.385 . S
C2922 H2908 0.931 . S
C2922 C2921 1.385 . S
C2922 C2923 1.389 1_554 S
C2923 C2922 1.389 1_556 S
C2923 C2924 1.387 . S
C2924 H2909 0.930 . S
C2924 C2919 1.390 . S
C2924 C2923 1.387 . S
H2925 C2937 0.930 . S
H2926 C2939 0.930 . S
H2927 C2940 0.930 . S
H2928 C2944 0.959 . S
H2929 C2944 0.959 . S
H2930 C2944 0.961 . S
H2931 C2945 0.960 . S
H2932 C2945 0.961 . S
H2933 C2945 0.959 . S
H2934 C2948 0.929 . S
H2935 C2949 0.931 . S
H2936 C2951 0.930 . S
C2937 H2925 0.930 . S
C2937 C2938 1.399 . S
C2937 C2942 1.399 . S
C2938 C2937 1.399 . S
C2938 C2939 1.376 . S
C2939 H2926 0.930 . S
C2939 C2938 1.376 . S
C2939 C2940 1.388 . S
C2940 H2927 0.930 . S
C2940 C2939 1.388 . S
C2940 C2941 1.390 . S
C2941 C2940 1.390 . S
C2941 C2942 1.394 . S
C2941 C2947 1.465 . S
C2942 C2937 1.399 . S
C2942 C2941 1.394 . S
C2942 C2943 1.516 . S
C2943 C2942 1.516 . S
C2943 C2944 1.502 . S
C2943 C2945 1.561 . S
C2943 C2946 1.526 . S
C2944 H2928 0.959 . S
C2944 H2929 0.959 . S
C2944 H2930 0.961 . S
C2944 C2943 1.502 . S
C2945 H2931 0.960 . S
C2945 H2932 0.961 . S
C2945 H2933 0.959 . S
C2945 C2943 1.561 . S
C2946 C2943 1.526 . S
C2946 C2947 1.396 . S
C2946 C2951 1.390 1_655 S
C2947 C2941 1.465 . S
C2947 C2946 1.396 . S
C2947 C2948 1.399 1_655 S
C2948 H2934 0.929 . S
C2948 C2947 1.399 1_455 S
C2948 C2949 1.385 . S
C2949 H2935 0.931 . S
C2949 C2948 1.385 . S
C2949 C2950 1.389 . S
C2950 C2949 1.389 . S
C2950 C2951 1.387 . S
C2951 H2936 0.930 . S
C2951 C2946 1.390 1_455 S
C2951 C2950 1.387 . S
H2952 C2964 0.930 . S
H2953 C2966 0.930 . S
H2954 C2967 0.930 . S
H2955 C2971 0.959 . S
H2956 C2971 0.959 . S
H2957 C2971 0.961 . S
H2958 C2972 0.960 . S
H2959 C2972 0.961 . S
H2960 C2972 0.959 . S
H2961 C2975 0.929 . S
H2962 C2976 0.931 . S
H2963 C2978 0.930 . S
C2964 H2952 0.930 . S
C2964 C2965 1.399 . S
C2964 C2969 1.399 . S
C2965 C2964 1.399 . S
C2965 C2966 1.376 . S
C2966 H2953 0.930 . S
C2966 C2965 1.376 . S
C2966 C2967 1.388 . S
C2967 H2954 0.930 . S
C2967 C2966 1.388 . S
C2967 C2968 1.390 . S
C2968 C2967 1.390 . S
C2968 C2969 1.394 . S
C2968 C2974 1.465 . S
C2969 C2964 1.399 . S
C2969 C2968 1.394 . S
C2969 C2970 1.516 . S
C2970 C2969 1.516 . S
C2970 C2971 1.502 . S
C2970 C2972 1.561 . S
C2970 C2973 1.526 . S
C2971 H2955 0.959 . S
C2971 H2956 0.959 . S
C2971 H2957 0.961 . S
C2971 C2970 1.502 . S
C2972 H2958 0.960 . S
C2972 H2959 0.961 . S
C2972 H2960 0.959 . S
C2972 C2970 1.561 . S
C2973 C2970 1.526 . S
C2973 C2974 1.396 . S
C2973 C2978 1.390 . S
C2974 C2968 1.465 . S
C2974 C2973 1.396 . S
C2974 C2975 1.399 . S
C2975 H2961 0.929 . S
C2975 C2974 1.399 . S
C2975 C2976 1.385 . S
C2976 H2962 0.931 . S
C2976 C2975 1.385 . S
C2976 C2977 1.389 . S
C2977 C2976 1.389 . S
C2977 C2978 1.387 . S
C2978 H2963 0.930 . S
C2978 C2973 1.390 . S
C2978 C2977 1.387 . S
H2979 C2991 0.930 . S
H2980 C2993 0.930 . S
H2981 C2994 0.930 1_545 S
H2982 C2998 0.959 . S
H2983 C2998 0.959 . S
H2984 C2998 0.961 . S
H2985 C2999 0.960 1_565 S
H2986 C2999 0.961 . S
H2987 C2999 0.959 . S
H2988 C3002 0.929 . S
H2989 C3003 0.931 . S
H2990 C3005 0.930 . S
C2991 H2979 0.930 . S
C2991 C2992 1.399 . S
C2991 C2996 1.379 1_565 S
C2992 C2991 1.399 . S
C2992 C2993 1.376 . S
C2993 H2980 0.930 . S
C2993 C2992 1.376 . S
C2993 C2994 1.388 . S
C2994 H2981 0.930 1_565 S
C2994 C2993 1.388 . S
C2994 C2995 1.390 1_565 S
C2995 C2994 1.390 1_545 S
C2995 C2996 1.393 . S
C2995 C3001 1.465 . S
C2996 C2991 1.379 1_545 S
C2996 C2995 1.393 . S
C2996 C2997 1.538 . S
C2997 C2996 1.538 . S
C2997 C2998 1.502 . S
C2997 C2999 1.561 . S
C2997 C3000 1.526 . S
C2998 H2982 0.959 . S
C2998 H2983 0.959 . S
C2998 H2984 0.961 . S
C2998 C2997 1.502 . S
C2999 H2985 0.960 1_545 S
C2999 H2986 0.961 . S
C2999 H2987 0.959 . S
C2999 C2997 1.561 . S
C3000 C2997 1.526 . S
C3000 C3001 1.396 . S
C3000 C3005 1.390 . S
C3001 C2995 1.465 . S
C3001 C3000 1.396 . S
C3001 C3002 1.399 . S
C3002 H2988 0.929 . S
C3002 C3001 1.399 . S
C3002 C3003 1.385 . S
C3003 H2989 0.931 . S
C3003 C3002 1.385 . S
C3003 C3004 1.389 . S
C3004 C3003 1.389 . S
C3004 C3005 1.387 . S
C3005 H2990 0.930 . S
C3005 C3000 1.390 . S
C3005 C3004 1.387 . S
H3006 C3018 0.930 . S
H3007 C3020 0.930 . S
H3008 C3021 0.930 . S
H3009 C3025 0.959 . S
H3010 C3025 0.959 . S
H3011 C3025 0.961 . S
H3012 C3026 0.960 . S
H3013 C3026 0.961 . S
H3014 C3026 0.959 . S
H3015 C3029 0.929 . S
H3016 C3030 0.931 . S
H3017 C3032 0.930 . S
C3018 H3006 0.930 . S
C3018 C3019 1.399 . S
C3018 C3023 1.399 . S
C3019 C3018 1.399 . S
C3019 C3020 1.376 . S
C3020 H3007 0.930 . S
C3020 C3019 1.376 . S
C3020 C3021 1.388 . S
C3021 H3008 0.930 . S
C3021 C3020 1.388 . S
C3021 C3022 1.390 . S
C3022 C3021 1.390 . S
C3022 C3023 1.394 . S
C3022 C3028 1.465 . S
C3023 C3018 1.399 . S
C3023 C3022 1.394 . S
C3023 C3024 1.516 . S
C3024 C3023 1.516 . S
C3024 C3025 1.502 . S
C3024 C3026 1.561 . S
C3024 C3027 1.526 . S
C3025 H3009 0.959 . S
C3025 H3010 0.959 . S
C3025 H3011 0.961 . S
C3025 C3024 1.502 . S
C3026 H3012 0.960 . S
C3026 H3013 0.961 . S
C3026 H3014 0.959 . S
C3026 C3024 1.561 . S
C3027 C3024 1.526 . S
C3027 C3028 1.396 . S
C3027 C3032 1.390 . S
C3028 C3022 1.465 . S
C3028 C3027 1.396 . S
C3028 C3029 1.399 . S
C3029 H3015 0.929 . S
C3029 C3028 1.399 . S
C3029 C3030 1.385 . S
C3030 H3016 0.931 . S
C3030 C3029 1.385 . S
C3030 C3031 1.389 . S
C3031 C3030 1.389 . S
C3031 C3032 1.387 . S
C3032 H3017 0.930 . S
C3032 C3027 1.390 . S
C3032 C3031 1.387 . S
H3033 C3045 0.930 . S
H3034 C3047 0.930 . S
H3035 C3048 0.930 . S
H3036 C3052 0.959 . S
H3037 C3052 0.959 . S
H3038 C3052 0.961 . S
H3039 C3053 0.960 . S
H3040 C3053 0.961 . S
H3041 C3053 0.959 . S
H3042 C3056 0.929 . S
H3043 C3057 0.931 . S
H3044 C3059 0.930 . S
C3045 H3033 0.930 . S
C3045 C3046 1.399 . S
C3045 C3050 1.399 . S
C3046 C3045 1.399 . S
C3046 C3047 1.376 . S
C3047 H3034 0.930 . S
C3047 C3046 1.376 . S
C3047 C3048 1.388 . S
C3048 H3035 0.930 . S
C3048 C3047 1.388 . S
C3048 C3049 1.390 . S
C3049 C3048 1.390 . S
C3049 C3050 1.394 . S
C3049 C3055 1.465 . S
C3050 C3045 1.399 . S
C3050 C3049 1.394 . S
C3050 C3051 1.516 . S
C3051 C3050 1.516 . S
C3051 C3052 1.502 . S
C3051 C3053 1.561 . S
C3051 C3054 1.526 . S
C3052 H3036 0.959 . S
C3052 H3037 0.959 . S
C3052 H3038 0.961 . S
C3052 C3051 1.502 . S
C3053 H3039 0.960 . S
C3053 H3040 0.961 . S
C3053 H3041 0.959 . S
C3053 C3051 1.561 . S
C3054 C3051 1.526 . S
C3054 C3055 1.396 . S
C3054 C3059 1.390 . S
C3055 C3049 1.465 . S
C3055 C3054 1.396 . S
C3055 C3056 1.399 . S
C3056 H3042 0.929 . S
C3056 C3055 1.399 . S
C3056 C3057 1.385 . S
C3057 H3043 0.931 . S
C3057 C3056 1.385 . S
C3057 C3058 1.389 . S
C3058 C3057 1.389 . S
C3058 C3059 1.387 . S
C3059 H3044 0.930 . S
C3059 C3054 1.390 . S
C3059 C3058 1.387 . S
H3060 C3072 0.930 . S
H3061 C3074 0.930 . S
H3062 C3075 0.930 . S
H3063 C3079 0.959 . S
H3064 C3079 0.959 . S
H3065 C3079 0.961 . S
H3066 C3080 0.960 . S
H3067 C3080 0.961 . S
H3068 C3080 0.959 . S
H3069 C3083 0.929 . S
H3070 C3084 0.931 . S
H3071 C3086 0.930 . S
C3072 H3060 0.930 . S
C3072 C3073 1.399 . S
C3072 C3077 1.399 . S
C3073 C3072 1.399 . S
C3073 C3074 1.376 . S
C3074 H3061 0.930 . S
C3074 C3073 1.376 . S
C3074 C3075 1.388 . S
C3075 H3062 0.930 . S
C3075 C3074 1.388 . S
C3075 C3076 1.390 . S
C3076 C3075 1.390 . S
C3076 C3077 1.394 . S
C3076 C3082 1.465 . S
C3077 C3072 1.399 . S
C3077 C3076 1.394 . S
C3077 C3078 1.516 . S
C3078 C3077 1.516 . S
C3078 C3079 1.502 . S
C3078 C3080 1.561 . S
C3078 C3081 1.526 . S
C3079 H3063 0.959 . S
C3079 H3064 0.959 . S
C3079 H3065 0.961 . S
C3079 C3078 1.502 . S
C3080 H3066 0.960 . S
C3080 H3067 0.961 . S
C3080 H3068 0.959 . S
C3080 C3078 1.561 . S
C3081 C3078 1.526 . S
C3081 C3082 1.396 . S
C3081 C3086 1.390 . S
C3082 C3076 1.465 . S
C3082 C3081 1.396 . S
C3082 C3083 1.399 . S
C3083 H3069 0.929 . S
C3083 C3082 1.399 . S
C3083 C3084 1.385 . S
C3084 H3070 0.931 . S
C3084 C3083 1.385 . S
C3084 C3085 1.389 . S
C3085 C3084 1.389 . S
C3085 C3086 1.387 . S
C3086 H3071 0.930 . S
C3086 C3081 1.390 . S
C3086 C3085 1.387 . S
H3087 C3099 0.930 . S
H3088 C3101 0.930 . S
H3089 C3102 0.930 . S
H3090 C3106 0.959 . S
H3091 C3106 0.959 . S
H3092 C3106 0.961 . S
H3093 C3107 0.960 . S
H3094 C3107 0.961 . S
H3095 C3107 0.959 . S
H3096 C3110 0.929 . S
H3097 C3111 0.931 . S
H3098 C3113 0.930 . S
C3099 H3087 0.930 . S
C3099 C3100 1.399 . S
C3099 C3104 1.399 . S
C3100 C3099 1.399 . S
C3100 C3101 1.376 . S
C3101 H3088 0.930 . S
C3101 C3100 1.376 . S
C3101 C3102 1.388 . S
C3102 H3089 0.930 . S
C3102 C3101 1.388 . S
C3102 C3103 1.390 . S
C3103 C3102 1.390 . S
C3103 C3104 1.394 . S
C3103 C3109 1.465 . S
C3104 C3099 1.399 . S
C3104 C3103 1.394 . S
C3104 C3105 1.516 . S
C3105 C3104 1.516 . S
C3105 C3106 1.502 . S
C3105 C3107 1.561 . S
C3105 C3108 1.526 . S
C3106 H3090 0.959 . S
C3106 H3091 0.959 . S
C3106 H3092 0.961 . S
C3106 C3105 1.502 . S
C3107 H3093 0.960 . S
C3107 H3094 0.961 . S
C3107 H3095 0.959 . S
C3107 C3105 1.561 . S
C3108 C3105 1.526 . S
C3108 C3109 1.396 . S
C3108 C3113 1.390 . S
C3109 C3103 1.465 . S
C3109 C3108 1.396 . S
C3109 C3110 1.399 . S
C3110 H3096 0.929 . S
C3110 C3109 1.399 . S
C3110 C3111 1.385 . S
C3111 H3097 0.931 . S
C3111 C3110 1.385 . S
C3111 C3112 1.389 . S
C3112 C3111 1.389 . S
C3112 C3113 1.387 . S
C3113 H3098 0.930 . S
C3113 C3108 1.390 . S
C3113 C3112 1.387 . S
H3114 C3126 0.930 . S
H3115 C3128 0.930 . S
H3116 C3129 0.930 . S
H3117 C3133 0.959 . S
H3118 C3133 0.959 . S
H3119 C3133 0.961 . S
H3120 C3134 0.960 . S
H3121 C3134 0.961 . S
H3122 C3134 0.959 . S
H3123 C3137 0.929 . S
H3124 C3138 0.931 . S
H3125 C3140 0.930 . S
C3126 H3114 0.930 . S
C3126 C3127 1.399 . S
C3126 C3131 1.399 . S
C3127 C3126 1.399 . S
C3127 C3128 1.376 . S
C3128 H3115 0.930 . S
C3128 C3127 1.376 . S
C3128 C3129 1.388 . S
C3129 H3116 0.930 . S
C3129 C3128 1.388 . S
C3129 C3130 1.390 . S
C3130 C3129 1.390 . S
C3130 C3131 1.394 . S
C3130 C3136 1.465 . S
C3131 C3126 1.399 . S
C3131 C3130 1.394 . S
C3131 C3132 1.516 . S
C3132 C3131 1.516 . S
C3132 C3133 1.502 . S
C3132 C3134 1.561 . S
C3132 C3135 1.526 . S
C3133 H3117 0.959 . S
C3133 H3118 0.959 . S
C3133 H3119 0.961 . S
C3133 C3132 1.502 . S
C3134 H3120 0.960 . S
C3134 H3121 0.961 . S
C3134 H3122 0.959 . S
C3134 C3132 1.561 . S
C3135 C3132 1.526 . S
C3135 C3136 1.396 . S
C3135 C3140 1.390 . S
C3136 C3130 1.465 . S
C3136 C3135 1.396 . S
C3136 C3137 1.399 . S
C3137 H3123 0.929 . S
C3137 C3136 1.399 . S
C3137 C3138 1.385 . S
C3138 H3124 0.931 . S
C3138 C3137 1.385 . S
C3138 C3139 1.389 . S
C3139 C3138 1.389 . S
C3139 C3140 1.387 . S
C3140 H3125 0.930 . S
C3140 C3135 1.390 . S
C3140 C3139 1.387 . S
H3141 C3153 0.930 . S
H3142 C3155 0.930 . S
H3143 C3156 0.930 . S
H3144 C3160 0.959 . S
H3145 C3160 0.959 . S
H3146 C3160 0.961 . S
H3147 C3161 0.960 . S
H3148 C3161 0.961 . S
H3149 C3161 0.959 . S
H3150 C3164 0.929 . S
H3151 C3165 0.931 . S
H3152 C3167 0.930 . S
C3153 H3141 0.930 . S
C3153 C3154 1.399 . S
C3153 C3158 1.399 . S
C3154 C3153 1.399 . S
C3154 C3155 1.376 . S
C3155 H3142 0.930 . S
C3155 C3154 1.376 . S
C3155 C3156 1.388 . S
C3156 H3143 0.930 . S
C3156 C3155 1.388 . S
C3156 C3157 1.390 . S
C3157 C3156 1.390 . S
C3157 C3158 1.394 . S
C3157 C3163 1.465 . S
C3158 C3153 1.399 . S
C3158 C3157 1.394 . S
C3158 C3159 1.516 . S
C3159 C3158 1.516 . S
C3159 C3160 1.502 . S
C3159 C3161 1.561 . S
C3159 C3162 1.526 . S
C3160 H3144 0.959 . S
C3160 H3145 0.959 . S
C3160 H3146 0.961 . S
C3160 C3159 1.502 . S
C3161 H3147 0.960 . S
C3161 H3148 0.961 . S
C3161 H3149 0.959 . S
C3161 C3159 1.561 . S
C3162 C3159 1.526 . S
C3162 C3163 1.396 . S
C3162 C3167 1.390 . S
C3163 C3157 1.465 . S
C3163 C3162 1.396 . S
C3163 C3164 1.399 . S
C3164 H3150 0.929 . S
C3164 C3163 1.399 . S
C3164 C3165 1.385 . S
C3165 H3151 0.931 . S
C3165 C3164 1.385 . S
C3165 C3166 1.389 . S
C3166 C3165 1.389 . S
C3166 C3167 1.387 . S
C3167 H3152 0.930 . S
C3167 C3162 1.390 . S
C3167 C3166 1.387 . S
H3168 C3180 0.930 . S
H3169 C3182 0.930 . S
H3170 C3183 0.930 . S
H3171 C3187 0.959 . S
H3172 C3187 0.959 . S
H3173 C3187 0.961 . S
H3174 C3188 0.960 . S
H3175 C3188 0.961 . S
H3176 C3188 0.959 . S
H3177 C3191 0.929 . S
H3178 C3192 0.931 . S
H3179 C3194 0.930 . S
C3180 H3168 0.930 . S
C3180 C3181 1.399 . S
C3180 C3185 1.399 . S
C3181 C3180 1.399 . S
C3181 C3182 1.376 . S
C3182 H3169 0.930 . S
C3182 C3181 1.376 . S
C3182 C3183 1.388 . S
C3183 H3170 0.930 . S
C3183 C3182 1.388 . S
C3183 C3184 1.390 . S
C3184 C3183 1.390 . S
C3184 C3185 1.394 . S
C3184 C3190 1.465 . S
C3185 C3180 1.399 . S
C3185 C3184 1.394 . S
C3185 C3186 1.516 . S
C3186 C3185 1.516 . S
C3186 C3187 1.502 . S
C3186 C3188 1.561 . S
C3186 C3189 1.526 . S
C3187 H3171 0.959 . S
C3187 H3172 0.959 . S
C3187 H3173 0.961 . S
C3187 C3186 1.502 . S
C3188 H3174 0.960 . S
C3188 H3175 0.961 . S
C3188 H3176 0.959 . S
C3188 C3186 1.561 . S
C3189 C3186 1.526 . S
C3189 C3190 1.396 . S
C3189 C3194 1.390 . S
C3190 C3184 1.465 . S
C3190 C3189 1.396 . S
C3190 C3191 1.399 . S
C3191 H3177 0.929 . S
C3191 C3190 1.399 . S
C3191 C3192 1.385 . S
C3192 H3178 0.931 . S
C3192 C3191 1.385 . S
C3192 C3193 1.389 . S
C3193 C3192 1.389 . S
C3193 C3194 1.387 . S
C3194 H3179 0.930 . S
C3194 C3189 1.390 . S
C3194 C3193 1.387 . S
H3195 C3207 0.930 . S
H3196 C3209 0.930 . S
H3197 C3210 0.930 . S
H3198 C3214 0.959 . S
H3199 C3214 0.959 . S
H3200 C3214 0.961 . S
H3201 C3215 0.960 . S
H3202 C3215 0.961 . S
H3203 C3215 0.959 . S
H3204 C3218 0.929 . S
H3205 C3219 0.931 . S
H3206 C3221 0.930 . S
C3207 H3195 0.930 . S
C3207 C3208 1.399 . S
C3207 C3212 1.399 . S
C3208 C3207 1.399 . S
C3208 C3209 1.376 . S
C3209 H3196 0.930 . S
C3209 C3208 1.376 . S
C3209 C3210 1.388 . S
C3210 H3197 0.930 . S
C3210 C3209 1.388 . S
C3210 C3211 1.390 . S
C3211 C3210 1.390 . S
C3211 C3212 1.394 . S
C3211 C3217 1.465 . S
C3212 C3207 1.399 . S
C3212 C3211 1.394 . S
C3212 C3213 1.516 . S
C3213 C3212 1.516 . S
C3213 C3214 1.502 . S
C3213 C3215 1.561 . S
C3213 C3216 1.526 . S
C3214 H3198 0.959 . S
C3214 H3199 0.959 . S
C3214 H3200 0.961 . S
C3214 C3213 1.502 . S
C3215 H3201 0.960 . S
C3215 H3202 0.961 . S
C3215 H3203 0.959 . S
C3215 C3213 1.561 . S
C3216 C3213 1.526 . S
C3216 C3217 1.396 . S
C3216 C3221 1.390 . S
C3217 C3211 1.465 . S
C3217 C3216 1.396 . S
C3217 C3218 1.399 . S
C3218 H3204 0.929 . S
C3218 C3217 1.399 . S
C3218 C3219 1.385 . S
C3219 H3205 0.931 . S
C3219 C3218 1.385 . S
C3219 C3220 1.389 . S
C3220 C3219 1.389 . S
C3220 C3221 1.387 . S
C3221 H3206 0.930 . S
C3221 C3216 1.390 . S
C3221 C3220 1.387 . S
H3222 C3234 0.930 . S
H3223 C3236 0.930 . S
H3224 C3237 0.930 . S
H3225 C3241 0.959 . S
H3226 C3241 0.959 . S
H3227 C3241 0.961 . S
H3228 C3242 0.960 . S
H3229 C3242 0.961 . S
H3230 C3242 0.959 . S
H3231 C3245 0.929 . S
H3232 C3246 0.931 . S
H3233 C3248 0.930 . S
C3234 H3222 0.930 . S
C3234 C3235 1.399 . S
C3234 C3239 1.399 . S
C3235 C3234 1.399 . S
C3235 C3236 1.376 . S
C3236 H3223 0.930 . S
C3236 C3235 1.376 . S
C3236 C3237 1.388 . S
C3237 H3224 0.930 . S
C3237 C3236 1.388 . S
C3237 C3238 1.390 . S
C3238 C3237 1.390 . S
C3238 C3239 1.394 . S
C3238 C3244 1.465 . S
C3239 C3234 1.399 . S
C3239 C3238 1.394 . S
C3239 C3240 1.516 . S
C3240 C3239 1.516 . S
C3240 C3241 1.502 . S
C3240 C3242 1.561 . S
C3240 C3243 1.526 . S
C3241 H3225 0.959 . S
C3241 H3226 0.959 . S
C3241 H3227 0.961 . S
C3241 C3240 1.502 . S
C3242 H3228 0.960 . S
C3242 H3229 0.961 . S
C3242 H3230 0.959 . S
C3242 C3240 1.561 . S
C3243 C3240 1.526 . S
C3243 C3244 1.396 . S
C3243 C3248 1.390 . S
C3244 C3238 1.465 . S
C3244 C3243 1.396 . S
C3244 C3245 1.399 . S
C3245 H3231 0.929 . S
C3245 C3244 1.399 . S
C3245 C3246 1.385 . S
C3246 H3232 0.931 . S
C3246 C3245 1.385 . S
C3246 C3247 1.389 . S
C3247 C3246 1.389 . S
C3247 C3248 1.387 . S
C3248 H3233 0.930 . S
C3248 C3243 1.390 . S
C3248 C3247 1.387 . S
H3249 C3261 0.930 . S
H3250 C3263 0.930 . S
H3251 C3264 0.930 . S
H3252 C3268 0.959 . S
H3253 C3268 0.959 . S
H3254 C3268 0.961 . S
H3255 C3269 0.960 . S
H3256 C3269 0.961 . S
H3257 C3269 0.959 . S
H3258 C3272 0.929 . S
H3259 C3273 0.931 . S
H3260 C3275 0.930 . S
C3261 H3249 0.930 . S
C3261 C3262 1.399 . S
C3261 C3266 1.399 . S
C3262 C3261 1.399 . S
C3262 C3263 1.376 . S
C3263 H3250 0.930 . S
C3263 C3262 1.376 . S
C3263 C3264 1.388 . S
C3264 H3251 0.930 . S
C3264 C3263 1.388 . S
C3264 C3265 1.390 . S
C3265 C3264 1.390 . S
C3265 C3266 1.394 . S
C3265 C3271 1.465 . S
C3266 C3261 1.399 . S
C3266 C3265 1.394 . S
C3266 C3267 1.516 . S
C3267 C3266 1.516 . S
C3267 C3268 1.502 . S
C3267 C3269 1.561 . S
C3267 C3270 1.526 . S
C3268 H3252 0.959 . S
C3268 H3253 0.959 . S
C3268 H3254 0.961 . S
C3268 C3267 1.502 . S
C3269 H3255 0.960 . S
C3269 H3256 0.961 . S
C3269 H3257 0.959 . S
C3269 C3267 1.561 . S
C3270 C3267 1.526 . S
C3270 C3271 1.396 . S
C3270 C3275 1.390 . S
C3271 C3265 1.465 . S
C3271 C3270 1.396 . S
C3271 C3272 1.399 . S
C3272 H3258 0.929 . S
C3272 C3271 1.399 . S
C3272 C3273 1.385 . S
C3273 H3259 0.931 . S
C3273 C3272 1.385 . S
C3273 C3274 1.389 . S
C3274 C3273 1.389 . S
C3274 C3275 1.387 . S
C3275 H3260 0.930 . S
C3275 C3270 1.390 . S
C3275 C3274 1.387 . S
H3276 C3288 0.930 . S
H3277 C3290 0.930 . S
H3278 C3291 0.930 . S
H3279 C3295 0.959 . S
H3280 C3295 0.959 . S
H3281 C3295 0.961 . S
H3282 C3296 0.960 . S
H3283 C3296 0.961 . S
H3284 C3296 0.959 . S
H3285 C3299 0.929 . S
H3286 C3300 0.931 . S
H3287 C3302 0.930 . S
C3288 H3276 0.930 . S
C3288 C3289 1.399 . S
C3288 C3293 1.399 . S
C3289 C3288 1.399 . S
C3289 C3290 1.376 . S
C3290 H3277 0.930 . S
C3290 C3289 1.376 . S
C3290 C3291 1.388 . S
C3291 H3278 0.930 . S
C3291 C3290 1.388 . S
C3291 C3292 1.390 . S
C3292 C3291 1.390 . S
C3292 C3293 1.394 . S
C3292 C3298 1.465 . S
C3293 C3288 1.399 . S
C3293 C3292 1.394 . S
C3293 C3294 1.516 . S
C3294 C3293 1.516 . S
C3294 C3295 1.502 . S
C3294 C3296 1.561 . S
C3294 C3297 1.526 . S
C3295 H3279 0.959 . S
C3295 H3280 0.959 . S
C3295 H3281 0.961 . S
C3295 C3294 1.502 . S
C3296 H3282 0.960 . S
C3296 H3283 0.961 . S
C3296 H3284 0.959 . S
C3296 C3294 1.561 . S
C3297 C3294 1.526 . S
C3297 C3298 1.396 . S
C3297 C3302 1.390 . S
C3298 C3292 1.465 . S
C3298 C3297 1.396 . S
C3298 C3299 1.399 . S
C3299 H3285 0.929 . S
C3299 C3298 1.399 . S
C3299 C3300 1.385 . S
C3300 H3286 0.931 . S
C3300 C3299 1.385 . S
C3300 C3301 1.389 . S
C3301 C3300 1.389 . S
C3301 C3302 1.387 . S
C3302 H3287 0.930 . S
C3302 C3297 1.390 . S
C3302 C3301 1.387 . S
H3303 C3315 0.930 . S
H3304 C3317 0.930 . S
H3305 C3318 0.930 . S
H3306 C3322 0.959 . S
H3307 C3322 0.959 . S
H3308 C3322 0.961 . S
H3309 C3323 0.960 . S
H3310 C3323 0.961 . S
H3311 C3323 0.959 . S
H3312 C3326 0.929 . S
H3313 C3327 0.931 . S
H3314 C3329 0.930 . S
C3315 H3303 0.930 . S
C3315 C3316 1.399 . S
C3315 C3320 1.399 . S
C3316 C3315 1.399 . S
C3316 C3317 1.376 . S
C3317 H3304 0.930 . S
C3317 C3316 1.376 . S
C3317 C3318 1.388 . S
C3318 H3305 0.930 . S
C3318 C3317 1.388 . S
C3318 C3319 1.390 . S
C3319 C3318 1.390 . S
C3319 C3320 1.394 . S
C3319 C3325 1.465 . S
C3320 C3315 1.399 . S
C3320 C3319 1.394 . S
C3320 C3321 1.516 . S
C3321 C3320 1.516 . S
C3321 C3322 1.502 . S
C3321 C3323 1.561 . S
C3321 C3324 1.526 . S
C3322 H3306 0.959 . S
C3322 H3307 0.959 . S
C3322 H3308 0.961 . S
C3322 C3321 1.502 . S
C3323 H3309 0.960 . S
C3323 H3310 0.961 . S
C3323 H3311 0.959 . S
C3323 C3321 1.561 . S
C3324 C3321 1.526 . S
C3324 C3325 1.396 . S
C3324 C3329 1.390 . S
C3325 C3319 1.465 . S
C3325 C3324 1.396 . S
C3325 C3326 1.399 . S
C3326 H3312 0.929 . S
C3326 C3325 1.399 . S
C3326 C3327 1.385 . S
C3327 H3313 0.931 . S
C3327 C3326 1.385 . S
C3327 C3328 1.389 . S
C3328 C3327 1.389 . S
C3328 C3329 1.387 . S
C3329 H3314 0.930 . S
C3329 C3324 1.390 . S
C3329 C3328 1.387 . S
H3330 C3342 0.930 . S
H3331 C3344 0.930 . S
H3332 C3345 0.930 . S
H3333 C3349 0.959 . S
H3334 C3349 0.959 . S
H3335 C3349 0.961 . S
H3336 C3350 0.960 . S
H3337 C3350 0.961 . S
H3338 C3350 0.959 . S
H3339 C3353 0.929 . S
H3340 C3354 0.931 . S
H3341 C3356 0.930 . S
C3342 H3330 0.930 . S
C3342 C3343 1.399 . S
C3342 C3347 1.399 . S
C3343 C3342 1.399 . S
C3343 C3344 1.376 . S
C3344 H3331 0.930 . S
C3344 C3343 1.376 . S
C3344 C3345 1.388 . S
C3345 H3332 0.930 . S
C3345 C3344 1.388 . S
C3345 C3346 1.390 . S
C3346 C3345 1.390 . S
C3346 C3347 1.394 . S
C3346 C3352 1.465 . S
C3347 C3342 1.399 . S
C3347 C3346 1.394 . S
C3347 C3348 1.516 . S
C3348 C3347 1.516 . S
C3348 C3349 1.502 . S
C3348 C3350 1.561 . S
C3348 C3351 1.526 . S
C3349 H3333 0.959 . S
C3349 H3334 0.959 . S
C3349 H3335 0.961 . S
C3349 C3348 1.502 . S
C3350 H3336 0.960 . S
C3350 H3337 0.961 . S
C3350 H3338 0.959 . S
C3350 C3348 1.561 . S
C3351 C3348 1.526 . S
C3351 C3352 1.396 . S
C3351 C3356 1.390 . S
C3352 C3346 1.465 . S
C3352 C3351 1.396 . S
C3352 C3353 1.399 . S
C3353 H3339 0.929 . S
C3353 C3352 1.399 . S
C3353 C3354 1.385 . S
C3354 H3340 0.931 . S
C3354 C3353 1.385 . S
C3354 C3355 1.389 . S
C3355 C3354 1.389 . S
C3355 C3356 1.387 . S
C3356 H3341 0.930 . S
C3356 C3351 1.390 . S
C3356 C3355 1.387 . S
H3357 C3369 0.930 . S
H3358 C3371 0.930 . S
H3359 C3372 0.930 . S
H3360 C3376 0.959 . S
H3361 C3376 0.959 . S
H3362 C3376 0.961 . S
H3363 C3377 0.960 . S
H3364 C3377 0.961 . S
H3365 C3377 0.959 . S
H3366 C3380 0.929 . S
H3367 C3381 0.931 . S
H3368 C3383 0.930 . S
C3369 H3357 0.930 . S
C3369 C3370 1.399 . S
C3369 C3374 1.399 . S
C3370 C3369 1.399 . S
C3370 C3371 1.376 . S
C3371 H3358 0.930 . S
C3371 C3370 1.376 . S
C3371 C3372 1.388 . S
C3372 H3359 0.930 . S
C3372 C3371 1.388 . S
C3372 C3373 1.390 . S
C3373 C3372 1.390 . S
C3373 C3374 1.394 . S
C3373 C3379 1.465 . S
C3374 C3369 1.399 . S
C3374 C3373 1.394 . S
C3374 C3375 1.516 . S
C3375 C3374 1.516 . S
C3375 C3376 1.502 . S
C3375 C3377 1.561 . S
C3375 C3378 1.526 . S
C3376 H3360 0.959 . S
C3376 H3361 0.959 . S
C3376 H3362 0.961 . S
C3376 C3375 1.502 . S
C3377 H3363 0.960 . S
C3377 H3364 0.961 . S
C3377 H3365 0.959 . S
C3377 C3375 1.561 . S
C3378 C3375 1.526 . S
C3378 C3379 1.396 . S
C3378 C3383 1.390 . S
C3379 C3373 1.465 . S
C3379 C3378 1.396 . S
C3379 C3380 1.399 . S
C3380 H3366 0.929 . S
C3380 C3379 1.399 . S
C3380 C3381 1.385 . S
C3381 H3367 0.931 . S
C3381 C3380 1.385 . S
C3381 C3382 1.389 . S
C3382 C3381 1.389 . S
C3382 C3383 1.387 . S
C3383 H3368 0.930 . S
C3383 C3378 1.390 . S
C3383 C3382 1.387 . S
H3384 C3396 0.930 . S
H3385 C3398 0.930 . S
H3386 C3399 0.930 . S
H3387 C3403 0.959 . S
H3388 C3403 0.959 . S
H3389 C3403 0.961 . S
H3390 C3404 0.960 . S
H3391 C3404 0.961 . S
H3392 C3404 0.959 . S
H3393 C3407 0.929 . S
H3394 C3408 0.931 . S
H3395 C3410 0.930 . S
C3396 H3384 0.930 . S
C3396 C3397 1.399 . S
C3396 C3401 1.399 . S
C3397 C3396 1.399 . S
C3397 C3398 1.376 . S
C3398 H3385 0.930 . S
C3398 C3397 1.376 . S
C3398 C3399 1.388 . S
C3399 H3386 0.930 . S
C3399 C3398 1.388 . S
C3399 C3400 1.390 . S
C3400 C3399 1.390 . S
C3400 C3401 1.394 . S
C3400 C3406 1.465 . S
C3401 C3396 1.399 . S
C3401 C3400 1.394 . S
C3401 C3402 1.516 . S
C3402 C3401 1.516 . S
C3402 C3403 1.502 . S
C3402 C3404 1.561 . S
C3402 C3405 1.526 . S
C3403 H3387 0.959 . S
C3403 H3388 0.959 . S
C3403 H3389 0.961 . S
C3403 C3402 1.502 . S
C3404 H3390 0.960 . S
C3404 H3391 0.961 . S
C3404 H3392 0.959 . S
C3404 C3402 1.561 . S
C3405 C3402 1.526 . S
C3405 C3406 1.396 . S
C3405 C3410 1.390 . S
C3406 C3400 1.465 . S
C3406 C3405 1.396 . S
C3406 C3407 1.399 . S
C3407 H3393 0.929 . S
C3407 C3406 1.399 . S
C3407 C3408 1.385 . S
C3408 H3394 0.931 . S
C3408 C3407 1.385 . S
C3408 C3409 1.389 . S
C3409 C3408 1.389 . S
C3409 C3410 1.387 . S
C3410 H3395 0.930 . S
C3410 C3405 1.390 . S
C3410 C3409 1.387 . S
H3411 C3423 0.930 . S
H3412 C3425 0.930 . S
H3413 C3426 0.930 . S
H3414 C3430 0.959 . S
H3415 C3430 0.959 . S
H3416 C3430 0.961 . S
H3417 C3431 0.960 . S
H3418 C3431 0.961 . S
H3419 C3431 0.959 . S
H3420 C3434 0.929 . S
H3421 C3435 0.931 . S
H3422 C3437 0.930 . S
C3423 H3411 0.930 . S
C3423 C3424 1.399 . S
C3423 C3428 1.399 . S
C3424 C3423 1.399 . S
C3424 C3425 1.376 . S
C3425 H3412 0.930 . S
C3425 C3424 1.376 . S
C3425 C3426 1.388 . S
C3426 H3413 0.930 . S
C3426 C3425 1.388 . S
C3426 C3427 1.390 . S
C3427 C3426 1.390 . S
C3427 C3428 1.394 . S
C3427 C3433 1.465 . S
C3428 C3423 1.399 . S
C3428 C3427 1.394 . S
C3428 C3429 1.516 . S
C3429 C3428 1.516 . S
C3429 C3430 1.502 . S
C3429 C3431 1.561 . S
C3429 C3432 1.526 . S
C3430 H3414 0.959 . S
C3430 H3415 0.959 . S
C3430 H3416 0.961 . S
C3430 C3429 1.502 . S
C3431 H3417 0.960 . S
C3431 H3418 0.961 . S
C3431 H3419 0.959 . S
C3431 C3429 1.561 . S
C3432 C3429 1.526 . S
C3432 C3433 1.396 . S
C3432 C3437 1.390 . S
C3433 C3427 1.465 . S
C3433 C3432 1.396 . S
C3433 C3434 1.399 . S
C3434 H3420 0.929 . S
C3434 C3433 1.399 . S
C3434 C3435 1.385 . S
C3435 H3421 0.931 . S
C3435 C3434 1.385 . S
C3435 C3436 1.389 . S
C3436 C3435 1.389 . S
C3436 C3437 1.387 . S
C3437 H3422 0.930 . S
C3437 C3432 1.390 . S
C3437 C3436 1.387 . S
H3438 C3450 0.930 . S
H3439 C3452 0.930 . S
H3440 C3453 0.930 . S
H3441 C3457 0.959 . S
H3442 C3457 0.959 . S
H3443 C3457 0.961 . S
H3444 C3458 0.960 . S
H3445 C3458 0.961 . S
H3446 C3458 0.959 . S
H3447 C3461 0.929 . S
H3448 C3462 0.931 . S
H3449 C3464 0.930 . S
C3450 H3438 0.930 . S
C3450 C3451 1.399 . S
C3450 C3455 1.399 . S
C3451 C3450 1.399 . S
C3451 C3452 1.376 . S
C3452 H3439 0.930 . S
C3452 C3451 1.376 . S
C3452 C3453 1.388 . S
C3453 H3440 0.930 . S
C3453 C3452 1.388 . S
C3453 C3454 1.390 . S
C3454 C3453 1.390 . S
C3454 C3455 1.394 . S
C3454 C3460 1.465 . S
C3455 C3450 1.399 . S
C3455 C3454 1.394 . S
C3455 C3456 1.516 . S
C3456 C3455 1.516 . S
C3456 C3457 1.502 . S
C3456 C3458 1.561 . S
C3456 C3459 1.526 . S
C3457 H3441 0.959 . S
C3457 H3442 0.959 . S
C3457 H3443 0.961 . S
C3457 C3456 1.502 . S
C3458 H3444 0.960 . S
C3458 H3445 0.961 . S
C3458 H3446 0.959 . S
C3458 C3456 1.561 . S
C3459 C3456 1.526 . S
C3459 C3460 1.396 . S
C3459 C3464 1.390 . S
C3460 C3454 1.465 . S
C3460 C3459 1.396 . S
C3460 C3461 1.399 . S
C3461 H3447 0.929 . S
C3461 C3460 1.399 . S
C3461 C3462 1.385 . S
C3462 H3448 0.931 . S
C3462 C3461 1.385 . S
C3462 C3463 1.389 . S
C3463 C3462 1.389 . S
C3463 C3464 1.387 . S
C3464 H3449 0.930 . S
C3464 C3459 1.390 . S
C3464 C3463 1.387 . S
H3465 C3477 0.930 . S
H3466 C3479 0.930 . S
H3467 C3480 0.930 . S
H3468 C3484 0.959 . S
H3469 C3484 0.959 . S
H3470 C3484 0.961 . S
H3471 C3485 0.960 . S
H3472 C3485 0.961 . S
H3473 C3485 0.959 . S
H3474 C3488 0.929 . S
H3475 C3489 0.931 . S
H3476 C3491 0.930 . S
C3477 H3465 0.930 . S
C3477 C3478 1.399 . S
C3477 C3482 1.399 . S
C3478 C3477 1.399 . S
C3478 C3479 1.376 . S
C3479 H3466 0.930 . S
C3479 C3478 1.376 . S
C3479 C3480 1.388 . S
C3480 H3467 0.930 . S
C3480 C3479 1.388 . S
C3480 C3481 1.390 . S
C3481 C3480 1.390 . S
C3481 C3482 1.394 . S
C3481 C3487 1.465 . S
C3482 C3477 1.399 . S
C3482 C3481 1.394 . S
C3482 C3483 1.516 . S
C3483 C3482 1.516 . S
C3483 C3484 1.502 . S
C3483 C3485 1.561 . S
C3483 C3486 1.526 . S
C3484 H3468 0.959 . S
C3484 H3469 0.959 . S
C3484 H3470 0.961 . S
C3484 C3483 1.502 . S
C3485 H3471 0.960 . S
C3485 H3472 0.961 . S
C3485 H3473 0.959 . S
C3485 C3483 1.561 . S
C3486 C3483 1.526 . S
C3486 C3487 1.396 . S
C3486 C3491 1.390 . S
C3487 C3481 1.465 . S
C3487 C3486 1.396 . S
C3487 C3488 1.399 . S
C3488 H3474 0.929 . S
C3488 C3487 1.399 . S
C3488 C3489 1.385 . S
C3489 H3475 0.931 . S
C3489 C3488 1.385 . S
C3489 C3490 1.389 . S
C3490 C3489 1.389 . S
C3490 C3491 1.387 . S
C3491 H3476 0.930 . S
C3491 C3486 1.390 . S
C3491 C3490 1.387 . S
H3492 C3504 0.930 . S
H3493 C3506 0.930 . S
H3494 C3507 0.930 . S
H3495 C3511 0.959 . S
H3496 C3511 0.959 . S
H3497 C3511 0.961 . S
H3498 C3512 0.960 . S
H3499 C3512 0.961 . S
H3500 C3512 0.959 . S
H3501 C3515 0.929 . S
H3502 C3516 0.931 . S
H3503 C3518 0.930 . S
C3504 H3492 0.930 . S
C3504 C3505 1.399 . S
C3504 C3509 1.399 . S
C3505 C3504 1.399 . S
C3505 C3506 1.376 . S
C3506 H3493 0.930 . S
C3506 C3505 1.376 . S
C3506 C3507 1.388 . S
C3507 H3494 0.930 . S
C3507 C3506 1.388 . S
C3507 C3508 1.390 . S
C3508 C3507 1.390 . S
C3508 C3509 1.394 . S
C3508 C3514 1.465 . S
C3509 C3504 1.399 . S
C3509 C3508 1.394 . S
C3509 C3510 1.516 . S
C3510 C3509 1.516 . S
C3510 C3511 1.502 . S
C3510 C3512 1.561 . S
C3510 C3513 1.526 . S
C3511 H3495 0.959 . S
C3511 H3496 0.959 . S
C3511 H3497 0.961 . S
C3511 C3510 1.502 . S
C3512 H3498 0.960 . S
C3512 H3499 0.961 . S
C3512 H3500 0.959 . S
C3512 C3510 1.561 . S
C3513 C3510 1.526 . S
C3513 C3514 1.396 . S
C3513 C3518 1.390 . S
C3514 C3508 1.465 . S
C3514 C3513 1.396 . S
C3514 C3515 1.399 . S
C3515 H3501 0.929 . S
C3515 C3514 1.399 . S
C3515 C3516 1.385 . S
C3516 H3502 0.931 . S
C3516 C3515 1.385 . S
C3516 C3517 1.389 . S
C3517 C3516 1.389 . S
C3517 C3518 1.387 . S
C3518 H3503 0.930 . S
C3518 C3513 1.390 . S
C3518 C3517 1.387 . S
H3519 C3531 0.930 . S
H3520 C3533 0.930 . S
H3521 C3534 0.930 . S
H3522 C3538 0.959 . S
H3523 C3538 0.959 . S
H3524 C3538 0.961 . S
H3525 C3539 0.960 . S
H3526 C3539 0.961 . S
H3527 C3539 0.959 . S
H3528 C3542 0.929 . S
H3529 C3543 0.931 . S
H3530 C3545 0.930 . S
C3531 H3519 0.930 . S
C3531 C3532 1.399 . S
C3531 C3536 1.399 . S
C3532 C3531 1.399 . S
C3532 C3533 1.376 . S
C3533 H3520 0.930 . S
C3533 C3532 1.376 . S
C3533 C3534 1.388 . S
C3534 H3521 0.930 . S
C3534 C3533 1.388 . S
C3534 C3535 1.390 . S
C3535 C3534 1.390 . S
C3535 C3536 1.394 . S
C3535 C3541 1.465 . S
C3536 C3531 1.399 . S
C3536 C3535 1.394 . S
C3536 C3537 1.516 . S
C3537 C3536 1.516 . S
C3537 C3538 1.502 . S
C3537 C3539 1.561 . S
C3537 C3540 1.526 . S
C3538 H3522 0.959 . S
C3538 H3523 0.959 . S
C3538 H3524 0.961 . S
C3538 C3537 1.502 . S
C3539 H3525 0.960 . S
C3539 H3526 0.961 . S
C3539 H3527 0.959 . S
C3539 C3537 1.561 . S
C3540 C3537 1.526 . S
C3540 C3541 1.396 . S
C3540 C3545 1.390 . S
C3541 C3535 1.465 . S
C3541 C3540 1.396 . S
C3541 C3542 1.399 . S
C3542 H3528 0.929 . S
C3542 C3541 1.399 . S
C3542 C3543 1.385 . S
C3543 H3529 0.931 . S
C3543 C3542 1.385 . S
C3543 C3544 1.389 . S
C3544 C3543 1.389 . S
C3544 C3545 1.387 . S
C3545 H3530 0.930 . S
C3545 C3540 1.390 . S
C3545 C3544 1.387 . S
H3546 C3558 0.930 . S
H3547 C3560 0.930 . S
H3548 C3561 0.930 . S
H3549 C3565 0.959 . S
H3550 C3565 0.959 . S
H3551 C3565 0.961 . S
H3552 C3566 0.960 . S
H3553 C3566 0.961 . S
H3554 C3566 0.959 . S
H3555 C3569 0.929 . S
H3556 C3570 0.931 . S
H3557 C3572 0.930 . S
C3558 H3546 0.930 . S
C3558 C3559 1.399 . S
C3558 C3563 1.399 . S
C3559 C3558 1.399 . S
C3559 C3560 1.376 . S
C3560 H3547 0.930 . S
C3560 C3559 1.376 . S
C3560 C3561 1.388 . S
C3561 H3548 0.930 . S
C3561 C3560 1.388 . S
C3561 C3562 1.390 . S
C3562 C3561 1.390 . S
C3562 C3563 1.394 . S
C3562 C3568 1.465 . S
C3563 C3558 1.399 . S
C3563 C3562 1.394 . S
C3563 C3564 1.516 . S
C3564 C3563 1.516 . S
C3564 C3565 1.502 . S
C3564 C3566 1.561 . S
C3564 C3567 1.526 . S
C3565 H3549 0.959 . S
C3565 H3550 0.959 . S
C3565 H3551 0.961 . S
C3565 C3564 1.502 . S
C3566 H3552 0.960 . S
C3566 H3553 0.961 . S
C3566 H3554 0.959 . S
C3566 C3564 1.561 . S
C3567 C3564 1.526 . S
C3567 C3568 1.396 . S
C3567 C3572 1.390 . S
C3568 C3562 1.465 . S
C3568 C3567 1.396 . S
C3568 C3569 1.399 . S
C3569 H3555 0.929 . S
C3569 C3568 1.399 . S
C3569 C3570 1.385 . S
C3570 H3556 0.931 . S
C3570 C3569 1.385 . S
C3570 C3571 1.389 . S
C3571 C3570 1.389 . S
C3571 C3572 1.387 . S
C3572 H3557 0.930 . S
C3572 C3567 1.390 . S
C3572 C3571 1.387 . S
H3573 C3585 0.930 . S
H3574 C3587 0.930 . S
H3575 C3588 0.930 . S
H3576 C3592 0.959 . S
H3577 C3592 0.959 . S
H3578 C3592 0.961 . S
H3579 C3593 0.960 . S
H3580 C3593 0.961 . S
H3581 C3593 0.959 . S
H3582 C3596 0.929 . S
H3583 C3597 0.931 . S
H3584 C3599 0.930 . S
C3585 H3573 0.930 . S
C3585 C3586 1.399 . S
C3585 C3590 1.399 . S
C3586 C3585 1.399 . S
C3586 C3587 1.376 . S
C3587 H3574 0.930 . S
C3587 C3586 1.376 . S
C3587 C3588 1.388 . S
C3588 H3575 0.930 . S
C3588 C3587 1.388 . S
C3588 C3589 1.390 . S
C3589 C3588 1.390 . S
C3589 C3590 1.394 . S
C3589 C3595 1.465 . S
C3590 C3585 1.399 . S
C3590 C3589 1.394 . S
C3590 C3591 1.516 . S
C3591 C3590 1.516 . S
C3591 C3592 1.502 . S
C3591 C3593 1.561 . S
C3591 C3594 1.526 . S
C3592 H3576 0.959 . S
C3592 H3577 0.959 . S
C3592 H3578 0.961 . S
C3592 C3591 1.502 . S
C3593 H3579 0.960 . S
C3593 H3580 0.961 . S
C3593 H3581 0.959 . S
C3593 C3591 1.561 . S
C3594 C3591 1.526 . S
C3594 C3595 1.396 . S
C3594 C3599 1.390 . S
C3595 C3589 1.465 . S
C3595 C3594 1.396 . S
C3595 C3596 1.399 . S
C3596 H3582 0.929 . S
C3596 C3595 1.399 . S
C3596 C3597 1.385 . S
C3597 H3583 0.931 . S
C3597 C3596 1.385 . S
C3597 C3598 1.389 . S
C3598 C3597 1.389 . S
C3598 C3599 1.387 . S
C3599 H3584 0.930 . S
C3599 C3594 1.390 . S
C3599 C3598 1.387 . S
H3600 C3612 0.930 . S
H3601 C3614 0.930 . S
H3602 C3615 0.930 . S
H3603 C3619 0.959 . S
H3604 C3619 0.959 . S
H3605 C3619 0.961 . S
H3606 C3620 0.960 . S
H3607 C3620 0.961 . S
H3608 C3620 0.959 . S
H3609 C3623 0.929 . S
H3610 C3624 0.931 . S
H3611 C3626 0.930 . S
C3612 H3600 0.930 . S
C3612 C3613 1.399 . S
C3612 C3617 1.399 . S
C3613 C3612 1.399 . S
C3613 C3614 1.376 . S
C3614 H3601 0.930 . S
C3614 C3613 1.376 . S
C3614 C3615 1.388 . S
C3615 H3602 0.930 . S
C3615 C3614 1.388 . S
C3615 C3616 1.390 . S
C3616 C3615 1.390 . S
C3616 C3617 1.394 . S
C3616 C3622 1.465 . S
C3617 C3612 1.399 . S
C3617 C3616 1.394 . S
C3617 C3618 1.516 . S
C3618 C3617 1.516 . S
C3618 C3619 1.502 . S
C3618 C3620 1.561 . S
C3618 C3621 1.526 . S
C3619 H3603 0.959 . S
C3619 H3604 0.959 . S
C3619 H3605 0.961 . S
C3619 C3618 1.502 . S
C3620 H3606 0.960 . S
C3620 H3607 0.961 . S
C3620 H3608 0.959 . S
C3620 C3618 1.561 . S
C3621 C3618 1.526 . S
C3621 C3622 1.396 . S
C3621 C3626 1.390 . S
C3622 C3616 1.465 . S
C3622 C3621 1.396 . S
C3622 C3623 1.399 . S
C3623 H3609 0.929 . S
C3623 C3622 1.399 . S
C3623 C3624 1.385 . S
C3624 H3610 0.931 . S
C3624 C3623 1.385 . S
C3624 C3625 1.389 . S
C3625 C3624 1.389 . S
C3625 C3626 1.387 . S
C3626 H3611 0.930 . S
C3626 C3621 1.390 . S
C3626 C3625 1.387 . S
H3627 C3639 0.930 . S
H3628 C3641 0.930 . S
H3629 C3642 0.930 . S
H3630 C3646 0.959 . S
H3631 C3646 0.959 . S
H3632 C3646 0.961 . S
H3633 C3647 0.960 . S
H3634 C3647 0.961 . S
H3635 C3647 0.959 . S
H3636 C3650 0.929 . S
H3637 C3651 0.931 . S
H3638 C3653 0.930 . S
C3639 H3627 0.930 . S
C3639 C3640 1.399 . S
C3639 C3644 1.399 . S
C3640 C3639 1.399 . S
C3640 C3641 1.376 . S
C3641 H3628 0.930 . S
C3641 C3640 1.376 . S
C3641 C3642 1.388 . S
C3642 H3629 0.930 . S
C3642 C3641 1.388 . S
C3642 C3643 1.390 . S
C3643 C3642 1.390 . S
C3643 C3644 1.394 . S
C3643 C3649 1.465 . S
C3644 C3639 1.399 . S
C3644 C3643 1.394 . S
C3644 C3645 1.516 . S
C3645 C3644 1.516 . S
C3645 C3646 1.502 . S
C3645 C3647 1.561 . S
C3645 C3648 1.526 . S
C3646 H3630 0.959 . S
C3646 H3631 0.959 . S
C3646 H3632 0.961 . S
C3646 C3645 1.502 . S
C3647 H3633 0.960 . S
C3647 H3634 0.961 . S
C3647 H3635 0.959 . S
C3647 C3645 1.561 . S
C3648 C3645 1.526 . S
C3648 C3649 1.396 . S
C3648 C3653 1.390 . S
C3649 C3643 1.465 . S
C3649 C3648 1.396 . S
C3649 C3650 1.399 . S
C3650 H3636 0.929 . S
C3650 C3649 1.399 . S
C3650 C3651 1.385 . S
C3651 H3637 0.931 . S
C3651 C3650 1.385 . S
C3651 C3652 1.389 . S
C3652 C3651 1.389 . S
C3652 C3653 1.387 . S
C3653 H3638 0.930 . S
C3653 C3648 1.390 . S
C3653 C3652 1.387 . S
C1237 C546 1.483 . S
C1249 C2 1.488 . S
C1264 C36 1.486 . S
C1276 C580 1.480 . S
C1291 C512 1.480 . S
C1303 C70 1.485 . S
C1318 C104 1.488 . S
C1330 C886 1.482 . S
C1345 C818 1.485 . S
C1357 C138 1.486 . S
C1372 C172 1.486 . S
C1384 C852 1.486 . S
C1399 C206 1.481 . S
C1411 C1158 1.487 . S
C1426 C240 1.487 . S
C1438 C1192 1.485 . S
C1453 C274 1.484 . S
C1465 C1124 1.480 . S
C1480 C308 1.483 . S
C1492 C682 1.488 . S
C1507 C342 1.480 . S
C1519 C614 1.481 . S
C1534 C376 1.480 . S
C1546 C648 1.485 . S
C1561 C410 1.483 . S
C1573 C954 1.481 . S
C1588 C988 1.485 . S
C1600 C444 1.486 . S
C1615 C920 1.480 . S
C1627 C478 1.486 . S
C1642 C1090 1.482 . S
C1654 C716 1.487 . S
C1669 C1022 1.480 . S
C1681 C750 1.484 . S
C1696 C784 1.480 . S
C1708 C1056 1.484 . S
C1723 C991 1.320 . S
C1735 C5 1.330 . S
C1750 C39 1.318 . S
C1762 C923 1.301 . S
C1777 C73 1.302 . S
C1789 C957 1.348 . S
C1804 C107 1.327 . S
C1816 C447 1.312 . S
C1831 C141 1.303 . S
C1843 C481 1.350 . S
C1858 C413 1.309 . S
C1870 C175 1.329 . S
C1885 C787 1.331 . S
C1897 C209 1.314 . S
C1912 C243 1.330 . S
C1924 C719 1.304 . S
C1939 C277 1.330 . S
C1951 C753 1.335 . S
C1966 C1059 1.330 . S
C1978 C311 1.318 . S
C1993 C1093 1.357 . S
C2005 C345 1.315 . S
C2020 C1025 1.299 . S
C2032 C379 1.322 . S
C2047 C515 1.311 . S
C2059 C855 1.327 . S
C2074 C549 1.322 . S
C2086 C889 1.331 . S
C2101 C583 1.308 . S
C2113 C821 1.300 . S
C2128 C617 1.329 . S
C2140 C1195 1.320 . S
C2155 C1127 1.300 . S
C2167 C651 1.313 . S
C2182 C685 1.300 . S
C2194 C1161 1.315 . S
C2209 C20 1.552 . S
C2221 C632 1.603 . S
C2236 C54 1.553 . S
C2248 C666 1.601 . S
C2263 C700 1.551 . S
C2275 C88 1.604 . S
C2290 C122 1.562 . S
C2302 C1142 1.604 . S
C2317 C156 1.568 . S
C2329 C1176 1.583 . S
C2344 C190 1.610 . S
C2356 C1210 1.551 . S
C2371 C836 1.610 . S
C2383 C224 1.553 . S
C2398 C258 1.550 . S
C2410 C870 1.606 . S
C2425 C904 1.562 . S
C2437 C292 1.604 . S
C2452 C530 1.566 . S
C2464 C326 1.601 . S
C2479 C564 1.586 . S
C2491 C360 1.566 . S
C2506 C394 1.585 . S
C2518 C598 1.584 . S
C2533 C1040 1.592 . S
C2545 C428 1.578 . S
C2560 C1074 1.610 . S
C2572 C462 1.554 . S
C2587 C496 1.551 . S
C2599 C1108 1.610 . S
C2614 C938 1.588 . S
C2626 C734 1.565 . S
C2641 C768 1.563 . S
C2653 C972 1.588 . S
C2668 C1006 1.552 . S
C2680 C802 1.603 . S
C2695 C9 1.261 . S
C2707 C271 1.357 . S
C2722 C43 1.326 . S
C2734 C305 1.330 . S
C2749 C237 1.316 . S
C2761 C77 1.340 . S
C2776 C407 1.325 . S
C2788 C111 1.332 . S
C2803 C339 1.356 . S
C2815 C145 1.253 . S
C2830 C373 1.337 . S
C2842 C179 1.271 . S
C2857 C67 1.350 . S
C2869 C213 1.315 . S
C2884 C101 1.357 . S
C2896 C247 1.269 . S
C2911 C33 1.346 . S
C2923 C281 1.322 . S
C2938 C315 1.252 . S
C2950 C203 1.340 . S
C2965 C349 1.251 . S
C2977 C135 1.342 . S
C2992 C169 1.356 . S
C3004 C383 1.264 . S
C3019 C679 1.338 . S
C3031 C417 1.269 . S
C3046 C451 1.331 . S
C3058 C713 1.312 . S
C3073 C645 1.337 . S
C3085 C485 1.315 . S
C3100 C815 1.313 . S
C3112 C519 1.322 . S
C3127 C553 1.315 . S
C3139 C747 1.317 . S
C3154 C587 1.270 . S
C3166 C781 1.355 . S
C3181 C621 1.259 . S
C3193 C475 1.331 . S
C3208 C655 1.275 . S
C3220 C509 1.321 . S
C3235 C689 1.253 . S
C3247 C441 1.339 . S
C3262 C723 1.339 . S
C3274 C611 1.332 . S
C3289 C543 1.352 . S
C3301 C757 1.309 . S
C3316 C577 1.357 . S
C3328 C791 1.271 . S
C3343 C1087 1.338 . S
C3355 C825 1.312 . S
C3370 C1121 1.357 . S
C3382 C859 1.253 . S
C3397 C1053 1.321 . S
C3409 C893 1.302 . S
C3424 C1223 1.315 . S
C3436 C927 1.340 . S
C3451 C961 1.266 . S
C3463 C1155 1.340 . S
C3478 C1189 1.351 . S
C3490 C995 1.285 . S
C3505 C883 1.358 . S
C3517 C1029 1.282 . S
C3532 C917 1.328 . S
C3544 C1063 1.263 . S
C3559 C849 1.333 . S
C3571 C1097 1.258 . S
C3586 C1131 1.252 . S
C3598 C1019 1.349 . S
C3613 C1165 1.276 . S
C3625 C951 1.358 . S
C3640 C985 1.357 . S
C3652 C1199 1.269 . S
