# Generated by pormake.
# Topology noy, (5)-cn, num edge types: 1
# Building blocks:
#     Node 0, Type 0, BuildingBlock: XOMCOT_clean_sbu_0, # of connection points: 5
#     Node 1, Type 0, BuildingBlock: XOMCOT_clean_sbu_0, # of connection points: 5
#     Node 2, Type 0, BuildingBlock: XOMCOT_clean_sbu_0, # of connection points: 5
#     Node 3, Type 0, BuildingBlock: XOMCOT_clean_sbu_0, # of connection points: 5
#     Node 4, Type 0, BuildingBlock: XOMCOT_clean_sbu_0, # of connection points: 5
#     Node 5, Type 0, BuildingBlock: XOMCOT_clean_sbu_0, # of connection points: 5
#     Node 6, Type 0, BuildingBlock: XOMCOT_clean_sbu_0, # of connection points: 5
#     Node 7, Type 0, BuildingBlock: XOMCOT_clean_sbu_0, # of connection points: 5
#     Edge 8, Type (0, 0), BuildingBlock: UVAHIK_clean_linker_0, # of connection points: 2
#     Edge 9, Type (0, 0), BuildingBlock: UVAHIK_clean_linker_0, # of connection points: 2
#     Edge 10, Type (0, 0), BuildingBlock: UVAHIK_clean_linker_0, # of connection points: 2
#     Edge 11, Type (0, 0), BuildingBlock: UVAHIK_clean_linker_0, # of connection points: 2
#     Edge 12, Type (0, 0), BuildingBlock: UVAHIK_clean_linker_0, # of connection points: 2
#     Edge 13, Type (0, 0), BuildingBlock: UVAHIK_clean_linker_0, # of connection points: 2
#     Edge 14, Type (0, 0), BuildingBlock: UVAHIK_clean_linker_0, # of connection points: 2
#     Edge 15, Type (0, 0), BuildingBlock: UVAHIK_clean_linker_0, # of connection points: 2
#     Edge 16, Type (0, 0), BuildingBlock: UVAHIK_clean_linker_0, # of connection points: 2
#     Edge 17, Type (0, 0), BuildingBlock: UVAHIK_clean_linker_0, # of connection points: 2
#     Edge 18, Type (0, 0), BuildingBlock: UVAHIK_clean_linker_0, # of connection points: 2
#     Edge 19, Type (0, 0), BuildingBlock: UVAHIK_clean_linker_0, # of connection points: 2
#     Edge 20, Type (0, 0), BuildingBlock: UVAHIK_clean_linker_0, # of connection points: 2
#     Edge 21, Type (0, 0), BuildingBlock: UVAHIK_clean_linker_0, # of connection points: 2
#     Edge 22, Type (0, 0), BuildingBlock: UVAHIK_clean_linker_0, # of connection points: 2
#     Edge 23, Type (0, 0), BuildingBlock: UVAHIK_clean_linker_0, # of connection points: 2
#     Edge 24, Type (0, 0), BuildingBlock: UVAHIK_clean_linker_0, # of connection points: 2
#     Edge 25, Type (0, 0), BuildingBlock: UVAHIK_clean_linker_0, # of connection points: 2
#     Edge 26, Type (0, 0), BuildingBlock: UVAHIK_clean_linker_0, # of connection points: 2
#     Edge 27, Type (0, 0), BuildingBlock: UVAHIK_clean_linker_0, # of connection points: 2
# Relax obj value: 0.201
# Max RMSD: 0.217
# Mean RMSD: 0.217
data_MOF--net-noy--node1-XOMCOT_clean_sbu_0--edge1-UVAHIK_clean_linker_0
_symmetry_space_group_name_H-M    P1
_symmetry_Int_Tables_number       1
_symmetry_cell_setting            triclinic
loop_
_symmetry_equiv_pos_as_xyz
'x, y, z'
_cell_length_a     61.373693
_cell_length_b     60.328873
_cell_length_c     25.282913
_cell_angle_alpha  89.957115
_cell_angle_beta   89.981155
_cell_angle_gamma 90.006421
loop_
_atom_site_label
_atom_site_type_symbol
_atom_site_fract_x
_atom_site_fract_y
_atom_site_fract_z
_atom_type_partial_charge
Co0 Co 0.3129 0.37625 0.31793 0.0
C1 C 0.32277 0.4084 0.23189 0.0
C2 C 0.29453 0.38849 0.21548 0.0
C3 C 0.29797 0.40246 0.1734 0.0
N4 N 0.31017 0.39203 0.25183 0.0
N5 N 0.31568 0.41495 0.18368 0.0
H6 H 0.3368 0.41526 0.252 0.0
H7 H 0.28131 0.37677 0.21951 0.0
C8 C 0.30364 0.3288 0.2884 0.0
O9 O 0.31907 0.32228 0.32087 0.0
N10 N 0.31478 0.3603 0.38497 0.0
C11 C 0.33086 0.36043 0.42146 0.0
C12 C 0.32518 0.3467 0.4626 0.0
C13 C 0.29908 0.34724 0.40607 0.0
N14 N 0.30526 0.33835 0.45279 0.0
C15 C 0.35947 0.37693 0.32351 0.0
C16 C 0.36782 0.34795 0.24155 0.0
C17 C 0.3852 0.35568 0.27235 0.0
C18 C 0.38087 0.37075 0.31288 0.0
C19 C 0.34646 0.35427 0.2544 0.0
N20 N 0.34239 0.36745 0.29737 0.0
H21 H 0.35678 0.3895 0.353 0.0
H22 H 0.33336 0.34877 0.2292 0.0
H23 H 0.34563 0.36997 0.41993 0.0
H24 H 0.28373 0.34375 0.38676 0.0
O25 O 0.32 0.40337 0.35388 0.0
O26 O 0.28645 0.39062 0.34334 0.0
O27 O 0.29938 0.34942 0.2829 0.0
C28 C 0.2993 0.40587 0.36232 0.0
H29 H 0.28782 0.4038 0.13853 0.0
H30 H 0.33489 0.34328 0.49742 0.0
H31 H 0.37069 0.337 0.20834 0.0
H32 H 0.39399 0.378 0.33572 0.0
Co33 Co 0.69098 0.63271 0.80943 0.0
C34 C 0.68069 0.60123 0.72261 0.0
C35 C 0.7053 0.6247 0.69991 0.0
C36 C 0.70153 0.61073 0.65799 0.0
N37 N 0.69209 0.6189 0.74026 0.0
N38 N 0.68614 0.59597 0.67238 0.0
H39 H 0.66881 0.5923 0.74602 0.0
H40 H 0.71723 0.63786 0.70089 0.0
C41 C 0.69896 0.68005 0.77754 0.0
O42 O 0.68129 0.68589 0.80336 0.0
N43 N 0.69088 0.64636 0.87971 0.0
C44 C 0.68154 0.63843 0.92433 0.0
C45 C 0.68762 0.65139 0.96657 0.0
C46 C 0.70349 0.66334 0.89658 0.0
N47 N 0.70141 0.66713 0.94906 0.0
C48 C 0.64533 0.63982 0.82783 0.0
C49 C 0.63594 0.6593 0.73156 0.0
C50 C 0.61906 0.65602 0.76808 0.0
C51 C 0.624 0.64617 0.8167 0.0
C52 C 0.65724 0.65304 0.74476 0.0
N53 N 0.66185 0.64386 0.79304 0.0
H54 H 0.64822 0.63078 0.86366 0.0
H55 H 0.66999 0.65541 0.71586 0.0
H56 H 0.67187 0.62352 0.92714 0.0
H57 H 0.71463 0.67233 0.87153 0.0
O58 O 0.68249 0.60482 0.83971 0.0
O59 O 0.7167 0.61598 0.8302 0.0
O60 O 0.70543 0.6599 0.77825 0.0
C61 C 0.7031 0.60064 0.84559 0.0
H62 H 0.71007 0.61082 0.62052 0.0
H63 H 0.68298 0.64873 0.00738 0.0
H64 H 0.6327 0.66653 0.69313 0.0
H65 H 0.61128 0.64249 0.84511 0.0
Co66 Co 0.3132 0.63176 0.69153 0.0
C67 C 0.3186 0.59945 0.78311 0.0
C68 C 0.28867 0.61769 0.78347 0.0
C69 C 0.28855 0.60349 0.82568 0.0
N70 N 0.30767 0.61569 0.75718 0.0
N71 N 0.30731 0.59184 0.82555 0.0
H72 H 0.33392 0.59259 0.77051 0.0
H73 H 0.27557 0.62872 0.77226 0.0
C74 C 0.30555 0.66597 0.77293 0.0
O75 O 0.31976 0.65484 0.80137 0.0
N76 N 0.31725 0.64764 0.62598 0.0
C77 C 0.33214 0.64352 0.5881 0.0
C78 C 0.32801 0.65723 0.54559 0.0
C79 C 0.30435 0.66377 0.60637 0.0
N80 N 0.31056 0.66994 0.55728 0.0
C81 C 0.35808 0.62287 0.71368 0.0
C82 C 0.37184 0.66637 0.72014 0.0
C83 C 0.38734 0.64938 0.72493 0.0
C84 C 0.38011 0.6274 0.72127 0.0
C85 C 0.34986 0.66107 0.71218 0.0
N86 N 0.34303 0.63948 0.71116 0.0
H87 H 0.35342 0.60592 0.70684 0.0
H88 H 0.33849 0.67441 0.70514 0.0
H89 H 0.3448 0.6311 0.59078 0.0
H90 H 0.2902 0.67024 0.62673 0.0
O91 O 0.31955 0.60435 0.65659 0.0
O92 O 0.28646 0.61868 0.66315 0.0
O93 O 0.30106 0.65959 0.72583 0.0
C94 C 0.29889 0.60247 0.64705 0.0
H95 H 0.27548 0.60195 0.85412 0.0
H96 H 0.33704 0.65775 0.50882 0.0
H97 H 0.37663 0.68363 0.72164 0.0
H98 H 0.39149 0.61368 0.72181 0.0
Co99 Co 0.68956 0.37588 0.18705 0.0
C100 C 0.68222 0.40806 0.27748 0.0
C101 C 0.71404 0.39338 0.27588 0.0
C102 C 0.7128 0.40702 0.31918 0.0
N103 N 0.69475 0.39351 0.25027 0.0
N104 N 0.69285 0.41621 0.32002 0.0
H105 H 0.66579 0.41268 0.2674 0.0
H106 H 0.72807 0.38373 0.26404 0.0
C107 C 0.69958 0.34359 0.27225 0.0
O108 O 0.68559 0.35472 0.30128 0.0
N109 N 0.68554 0.35851 0.12382 0.0
C110 C 0.66993 0.3613 0.08696 0.0
C111 C 0.67449 0.34771 0.04463 0.0
C112 C 0.6993 0.34325 0.10381 0.0
N113 N 0.69292 0.3364 0.05541 0.0
C114 C 0.64433 0.38374 0.20631 0.0
C115 C 0.6321 0.34009 0.22099 0.0
C116 C 0.61598 0.3565 0.21933 0.0
C117 C 0.62234 0.37855 0.21219 0.0
C118 C 0.654 0.34599 0.21412 0.0
N119 N 0.66003 0.36772 0.20849 0.0
H120 H 0.64851 0.40065 0.1971 0.0
H121 H 0.66588 0.33289 0.21059 0.0
H122 H 0.6566 0.37296 0.08991 0.0
H123 H 0.71421 0.33808 0.12308 0.0
O124 O 0.68235 0.40214 0.1479 0.0
O125 O 0.71581 0.38889 0.15617 0.0
O126 O 0.70286 0.34923 0.22404 0.0
C127 C 0.70285 0.40389 0.13638 0.0
H128 H 0.72564 0.41024 0.3475 0.0
H129 H 0.66518 0.34645 0.00839 0.0
H130 H 0.62773 0.32276 0.22477 0.0
H131 H 0.61034 0.39168 0.20981 0.0
Co132 Co 0.8174 0.87592 0.31505 0.0
C133 C 0.82287 0.91195 0.23218 0.0
C134 C 0.79397 0.8924 0.22349 0.0
C135 C 0.79348 0.90894 0.1864 0.0
N136 N 0.81259 0.89378 0.25172 0.0
N137 N 0.81163 0.92123 0.19185 0.0
H138 H 0.8372 0.91944 0.24898 0.0
H139 H 0.78102 0.88065 0.23093 0.0
C140 C 0.80867 0.84311 0.23087 0.0
O141 O 0.82357 0.85385 0.20362 0.0
N142 N 0.82072 0.85834 0.37834 0.0
C143 C 0.83792 0.85773 0.4114 0.0
C144 C 0.83334 0.84312 0.45186 0.0
C145 C 0.8058 0.84451 0.39938 0.0
N146 N 0.81312 0.83491 0.44426 0.0
C147 C 0.86242 0.88291 0.28881 0.0
C148 C 0.87425 0.83872 0.28494 0.0
C149 C 0.89018 0.855 0.27732 0.0
C150 C 0.88408 0.87729 0.27909 0.0
C151 C 0.85258 0.84509 0.29318 0.0
N152 N 0.84673 0.86701 0.29365 0.0
H153 H 0.85865 0.90003 0.29574 0.0
H154 H 0.84067 0.83236 0.30143 0.0
H155 H 0.85271 0.86727 0.40646 0.0
H156 H 0.78996 0.84146 0.38199 0.0
O157 O 0.82518 0.90192 0.35444 0.0
O158 O 0.7914 0.88946 0.34513 0.0
O159 O 0.80388 0.84953 0.27775 0.0
C160 C 0.80461 0.90421 0.36503 0.0
H161 H 0.78046 0.9121 0.15852 0.0
H162 H 0.84388 0.83917 0.48487 0.0
H163 H 0.87857 0.82132 0.2853 0.0
H164 H 0.89618 0.89029 0.27563 0.0
Co165 Co 0.18805 0.13256 0.82115 0.0
C166 C 0.17846 0.10156 0.72968 0.0
C167 C 0.20819 0.11992 0.72149 0.0
C168 C 0.20586 0.10667 0.67784 0.0
N169 N 0.19071 0.1174 0.75339 0.0
N170 N 0.18724 0.09516 0.68311 0.0
H171 H 0.1638 0.09444 0.74579 0.0
H172 H 0.22191 0.13063 0.72974 0.0
C173 C 0.19349 0.168 0.74113 0.0
O174 O 0.17791 0.15783 0.71501 0.0
N175 N 0.18661 0.14748 0.88852 0.0
C176 C 0.17303 0.14285 0.92889 0.0
C177 C 0.17847 0.15611 0.97126 0.0
C178 C 0.20005 0.16348 0.90651 0.0
N179 N 0.19542 0.16906 0.95701 0.0
C180 C 0.14226 0.12469 0.80999 0.0
C181 C 0.12922 0.16854 0.80892 0.0
C182 C 0.11337 0.15186 0.80908 0.0
C183 C 0.1201 0.12974 0.80962 0.0
C184 C 0.15132 0.16274 0.81038 0.0
N185 N 0.1577 0.14099 0.80892 0.0
H186 H 0.14685 0.10757 0.81431 0.0
H187 H 0.16318 0.17581 0.81497 0.0
H188 H 0.1603 0.13046 0.92784 0.0
H189 H 0.21337 0.17038 0.88377 0.0
O190 O 0.18267 0.10469 0.8553 0.0
O191 O 0.21554 0.11883 0.8425 0.0
O192 O 0.19944 0.1607 0.78653 0.0
C193 C 0.20358 0.10257 0.86033 0.0
H194 H 0.21731 0.10501 0.64547 0.0
H195 H 0.1706 0.15622 0.00958 0.0
H196 H 0.12457 0.18585 0.81029 0.0
H197 H 0.10829 0.1164 0.81102 0.0
Co198 Co 0.81373 0.13437 0.6906 0.0
C199 C 0.81873 0.10343 0.78245 0.0
C200 C 0.78977 0.1234 0.78594 0.0
C201 C 0.78989 0.10949 0.8287 0.0
N202 N 0.80783 0.11978 0.75708 0.0
N203 N 0.80794 0.09673 0.82648 0.0
H204 H 0.83373 0.09617 0.76811 0.0
H205 H 0.77701 0.13501 0.77593 0.0
C206 C 0.80325 0.18218 0.71468 0.0
O207 O 0.81974 0.18868 0.6854 0.0
N208 N 0.81833 0.14931 0.62306 0.0
C209 C 0.8357 0.1493 0.59021 0.0
C210 C 0.83124 0.16266 0.54739 0.0
C211 C 0.80325 0.16191 0.59819 0.0
N212 N 0.81086 0.17065 0.5526 0.0
C213 C 0.86024 0.13436 0.69605 0.0
C214 C 0.86491 0.16357 0.77929 0.0
C215 C 0.88356 0.1558 0.75321 0.0
C216 C 0.88103 0.14067 0.71191 0.0
C217 C 0.84423 0.15712 0.76122 0.0
N218 N 0.84209 0.14373 0.71781 0.0
H219 H 0.85887 0.1217 0.66626 0.0
H220 H 0.83008 0.16264 0.78283 0.0
H221 H 0.8506 0.14022 0.59549 0.0
H222 H 0.78723 0.16526 0.61425 0.0
O223 O 0.82255 0.10666 0.66025 0.0
O224 O 0.78868 0.11924 0.65973 0.0
O225 O 0.79878 0.1616 0.71955 0.0
C226 C 0.80234 0.1035 0.64742 0.0
H227 H 0.77745 0.10879 0.85899 0.0
H228 H 0.84213 0.16613 0.51472 0.0
H229 H 0.8663 0.17458 0.81293 0.0
H230 H 0.89509 0.13339 0.69265 0.0
Co231 Co 0.19465 0.87788 0.19468 0.0
C232 C 0.18541 0.90976 0.28106 0.0
C233 C 0.2131 0.88915 0.29798 0.0
C234 C 0.20973 0.90304 0.34027 0.0
N235 N 0.19775 0.89321 0.26117 0.0
N236 N 0.19237 0.91597 0.32957 0.0
H237 H 0.17163 0.917 0.26067 0.0
H238 H 0.22607 0.87714 0.29417 0.0
C239 C 0.20446 0.83002 0.22163 0.0
O240 O 0.18938 0.82342 0.18831 0.0
N241 N 0.19206 0.86253 0.12719 0.0
C242 C 0.1755 0.86331 0.0921 0.0
C243 C 0.18043 0.84999 0.04972 0.0
C244 C 0.20729 0.8495 0.10414 0.0
N245 N 0.20034 0.8412 0.05746 0.0
C246 C 0.14823 0.88051 0.19211 0.0
C247 C 0.13898 0.8478 0.26509 0.0
C248 C 0.12179 0.8575 0.23669 0.0
C249 C 0.12669 0.87465 0.20142 0.0
C250 C 0.16054 0.85431 0.2545 0.0
N251 N 0.16504 0.86934 0.21536 0.0
H252 H 0.15121 0.89397 0.16507 0.0
H253 H 0.17339 0.84729 0.27821 0.0
H254 H 0.16089 0.87302 0.0957 0.0
H255 H 0.2228 0.84553 0.12216 0.0
O256 O 0.18777 0.90529 0.15972 0.0
O257 O 0.22119 0.89216 0.16872 0.0
O258 O 0.20812 0.85069 0.22857 0.0
C259 C 0.20839 0.90758 0.1503 0.0
H260 H 0.21965 0.904 0.37558 0.0
H261 H 0.17017 0.84707 0.0156 0.0
H262 H 0.13587 0.83513 0.29449 0.0
H263 H 0.11391 0.88357 0.18089 0.0
C264 C 0.42044 0.34001 0.30389 0.0
C265 C 0.40797 0.34881 0.26239 0.0
C266 C 0.4427 0.33613 0.29733 0.0
C267 C 0.48744 0.33432 0.19662 0.0
H268 H 0.52314 0.35015 0.31743 0.0
C269 C 0.57818 0.35912 0.18311 0.0
C270 C 0.59251 0.35078 0.2216 0.0
C271 C 0.55583 0.35503 0.18654 0.0
C272 C 0.5134 0.34534 0.28359 0.0
H273 H 0.40868 0.35989 0.18106 0.0
H274 H 0.4478 0.3539 0.16976 0.0
H275 H 0.48369 0.35021 0.32581 0.0
H276 H 0.59487 0.33118 0.29314 0.0
H277 H 0.55551 0.32434 0.29986 0.0
H278 H 0.51743 0.3306 0.15391 0.0
C279 C 0.44038 0.34939 0.20709 0.0
C280 C 0.49072 0.34529 0.28834 0.0
C281 C 0.41797 0.35291 0.21347 0.0
C282 C 0.58414 0.33778 0.26297 0.0
C283 C 0.56168 0.33397 0.2669 0.0
C284 C 0.51016 0.33467 0.19172 0.0
C285 C 0.45315 0.34141 0.24938 0.0
C286 C 0.47738 0.33997 0.24481 0.0
C287 C 0.54729 0.34274 0.22894 0.0
C288 C 0.52335 0.34039 0.23504 0.0
H289 H 0.413 0.33655 0.34189 0.0
H290 H 0.45179 0.3294 0.33034 0.0
H291 H 0.47779 0.32976 0.16249 0.0
H292 H 0.58427 0.36903 0.15053 0.0
H293 H 0.54514 0.36215 0.15698 0.0
C294 C 0.58281 0.67228 0.79179 0.0
C295 C 0.59608 0.66122 0.75495 0.0
C296 C 0.56044 0.67448 0.78295 0.0
C297 C 0.51404 0.68369 0.74245 0.0
H298 H 0.48595 0.62766 0.7107 0.0
C299 C 0.42081 0.67196 0.70291 0.0
C300 C 0.41107 0.65419 0.73032 0.0
C301 C 0.44343 0.67503 0.70425 0.0
C302 C 0.49358 0.64343 0.71948 0.0
H303 H 0.59653 0.64454 0.67913 0.0
H304 H 0.55728 0.64817 0.66388 0.0
H305 H 0.52566 0.62987 0.7123 0.0
H306 H 0.41755 0.62658 0.78319 0.0
H307 H 0.45691 0.63162 0.78412 0.0
H308 H 0.48178 0.69713 0.75006 0.0
C309 C 0.56426 0.65519 0.69949 0.0
C310 C 0.51629 0.64475 0.71986 0.0
C311 C 0.5867 0.65325 0.708 0.0
C312 C 0.42446 0.6401 0.76052 0.0
C313 C 0.44702 0.643 0.76123 0.0
C314 C 0.49125 0.68244 0.74124 0.0
C315 C 0.55084 0.6654 0.73743 0.0
C316 C 0.52677 0.6648 0.73208 0.0
C317 C 0.45676 0.66026 0.73246 0.0
C318 C 0.48084 0.66219 0.73066 0.0
H319 H 0.58967 0.67865 0.82821 0.0
H320 H 0.55049 0.6823 0.81301 0.0
H321 H 0.52172 0.69937 0.75187 0.0
H322 H 0.4111 0.68301 0.67877 0.0
H323 H 0.45057 0.68845 0.68162 0.0
C324 C 0.08532 0.84893 0.19809 0.0
C325 C 0.09874 0.85038 0.24303 0.0
C326 C 0.06296 0.84566 0.20325 0.0
C327 C 0.01831 0.82668 0.28566 0.0
H328 H 0.98619 0.87436 0.21848 0.0
C329 C 0.92494 0.8394 0.31284 0.0
C330 C 0.91339 0.84918 0.27104 0.0
C331 C 0.9476 0.83693 0.30973 0.0
C332 C 0.99475 0.86062 0.23659 0.0
H333 H 0.09939 0.84781 0.32855 0.0
H334 H 0.05995 0.84163 0.33748 0.0
H335 H 0.02565 0.87379 0.21338 0.0
H336 H 0.91588 0.86295 0.19234 0.0
H337 H 0.95514 0.85758 0.18531 0.0
H338 H 0.98731 0.81314 0.30773 0.0
C339 C 0.06695 0.84329 0.29835 0.0
C340 C 0.01743 0.86044 0.23402 0.0
C341 C 0.08947 0.84679 0.29322 0.0
C342 C 0.92456 0.85545 0.2251 0.0
C343 C 0.94708 0.85259 0.2215 0.0
C344 C 0.99546 0.82663 0.28755 0.0
C345 C 0.05346 0.84346 0.25341 0.0
C346 C 0.02942 0.84345 0.25823 0.0
C347 C 0.95905 0.84396 0.26441 0.0
C348 C 0.98336 0.84357 0.2627 0.0
H349 H 0.09203 0.85104 0.15876 0.0
H350 H 0.05294 0.8455 0.16796 0.0
H351 H 0.02725 0.81337 0.30454 0.0
H352 H 0.91659 0.83465 0.34887 0.0
H353 H 0.95618 0.8304 0.34375 0.0
C354 C 0.07706 0.14827 0.85274 0.0
C355 C 0.08987 0.15725 0.81205 0.0
C356 C 0.05461 0.15195 0.85403 0.0
C357 C 0.00982 0.1855 0.79267 0.0
H358 H 0.97456 0.13543 0.83676 0.0
C359 C 0.92028 0.17085 0.73117 0.0
C360 C 0.90579 0.16246 0.76924 0.0
C361 C 0.94225 0.17401 0.74342 0.0
C362 C 0.98416 0.1497 0.82517 0.0
H363 H 0.08951 0.17748 0.74144 0.0
H364 H 0.05008 0.18321 0.74203 0.0
H365 H 0.01396 0.13326 0.84357 0.0
H366 H 0.90257 0.15151 0.85039 0.0
H367 H 0.94128 0.15668 0.87181 0.0
H368 H 0.97973 0.20131 0.77152 0.0
C369 C 0.05734 0.17383 0.77397 0.0
C370 C 0.00683 0.14852 0.82916 0.0
C371 C 0.07993 0.17046 0.77332 0.0
C372 C 0.91344 0.15815 0.82054 0.0
C373 C 0.93554 0.16096 0.8326 0.0
C374 C 0.98711 0.18652 0.78795 0.0
C375 C 0.0443 0.16433 0.81398 0.0
C376 C 0.02004 0.16631 0.81253 0.0
C377 C 0.95024 0.16848 0.79378 0.0
C378 C 0.97407 0.16855 0.80373 0.0
H379 H 0.08445 0.13827 0.8835 0.0
H380 H 0.04532 0.14487 0.88629 0.0
H381 H 0.01934 0.1997 0.78038 0.0
H382 H 0.91472 0.17426 0.69131 0.0
H383 H 0.9532 0.17964 0.71261 0.0
C384 C 0.29732 0.56448 0.8945 0.0
C385 C 0.31332 0.57457 0.86259 0.0
C386 C 0.30294 0.54854 0.932 0.0
C387 C 0.34229 0.50596 0.96467 0.0
H388 H 0.31553 0.50983 0.10344 0.0
C389 C 0.32269 0.4306 0.09535 0.0
C390 C 0.32385 0.43254 0.15064 0.0
C391 C 0.32745 0.44867 0.06281 0.0
C392 C 0.32349 0.50864 0.06531 0.0
H393 H 0.34796 0.57511 0.84504 0.0
H394 H 0.35764 0.54655 0.90989 0.0
H395 H 0.31192 0.5406 0.0415 0.0
H396 H 0.33201 0.45453 0.21523 0.0
H397 H 0.34022 0.4864 0.15822 0.0
H398 H 0.35309 0.47355 0.98782 0.0
C399 C 0.34073 0.55142 0.90581 0.0
C400 C 0.32124 0.52618 0.02965 0.0
C401 C 0.33514 0.5677 0.8685 0.0
C402 C 0.33105 0.45259 0.17273 0.0
C403 C 0.33559 0.47083 0.14012 0.0
C404 C 0.34437 0.48826 1.00023 0.0
C405 C 0.32468 0.54192 0.9384 0.0
C406 C 0.33008 0.52478 0.97847 0.0
C407 C 0.33331 0.4692 0.08483 0.0
C408 C 0.33449 0.48919 0.05046 0.0
H409 H 0.28029 0.56868 0.89052 0.0
H410 H 0.29013 0.54113 0.95564 0.0
H411 H 0.34924 0.50442 0.92545 0.0
H412 H 0.31739 0.41524 0.07733 0.0
H413 H 0.32534 0.44687 0.0205 0.0
C414 C 0.68862 0.42779 0.4125 0.0
C415 C 0.68513 0.43181 0.35856 0.0
C416 C 0.68358 0.44393 0.45009 0.0
C417 C 0.65698 0.49954 0.46814 0.0
H418 H 0.69845 0.5037 0.58341 0.0
C419 C 0.67658 0.57918 0.58672 0.0
C420 C 0.67916 0.5772 0.64172 0.0
C421 C 0.67266 0.56047 0.55562 0.0
C422 C 0.68652 0.50256 0.55195 0.0
H423 H 0.67316 0.4554 0.30126 0.0
H424 H 0.66528 0.48425 0.3664 0.0
H425 H 0.7007 0.47288 0.52213 0.0
H426 H 0.67893 0.55431 0.70766 0.0
H427 H 0.67251 0.52135 0.65302 0.0
H428 H 0.64384 0.53026 0.49682 0.0
C429 C 0.67123 0.4684 0.38032 0.0
C430 C 0.68771 0.48479 0.51674 0.0
C431 C 0.6758 0.45196 0.34281 0.0
C432 C 0.67685 0.55627 0.66539 0.0
C433 C 0.67332 0.53746 0.63415 0.0
C434 C 0.65607 0.51757 0.50294 0.0
C435 C 0.67551 0.46479 0.43448 0.0
C436 C 0.67308 0.48307 0.47397 0.0
C437 C 0.67161 0.53935 0.57886 0.0
C438 C 0.67095 0.51932 0.54492 0.0
H439 H 0.69558 0.4122 0.42539 0.0
H440 H 0.68647 0.44015 0.49135 0.0
H441 H 0.64517 0.49866 0.43643 0.0
H442 H 0.67819 0.59518 0.5677 0.0
H443 H 0.67156 0.56239 0.5131 0.0
C444 C 0.69549 0.56135 0.86836 0.0
C445 C 0.71018 0.57918 0.8681 0.0
C446 C 0.70119 0.54116 0.89125 0.0
C447 C 0.73452 0.51658 0.99424 0.0
H448 H 0.71502 0.46207 0.92815 0.0
C449 C 0.73141 0.43046 0.10221 0.0
C450 C 0.71023 0.42164 0.10028 0.0
C451 C 0.73715 0.44844 0.06961 0.0
C452 C 0.72079 0.4771 0.94693 0.0
H453 H 0.74251 0.58983 0.89126 0.0
H454 H 0.75244 0.55426 0.93267 0.0
H455 H 0.71489 0.4965 0.87757 0.0
H456 H 0.67877 0.42405 0.06166 0.0
H457 H 0.68882 0.45475 0.00465 0.0
H458 H 0.73938 0.49716 0.06455 0.0
C459 C 0.73653 0.55604 0.9146 0.0
C460 C 0.72067 0.49681 0.91804 0.0
C461 C 0.73091 0.57631 0.89079 0.0
C462 C 0.69519 0.43056 0.06425 0.0
C463 C 0.701 0.44806 0.03125 0.0
C464 C 0.73467 0.49674 0.02327 0.0
C465 C 0.72168 0.53826 0.915 0.0
C466 C 0.7266 0.51694 0.94203 0.0
C467 C 0.72193 0.45737 0.03378 0.0
C468 C 0.7269 0.47702 1.00048 0.0
H469 H 0.67943 0.56299 0.85104 0.0
H470 H 0.68923 0.52795 0.89161 0.0
H471 H 0.73913 0.53184 0.01381 0.0
H472 H 0.74326 0.42391 0.12985 0.0
H473 H 0.75339 0.45538 0.07238 0.0
C474 C 0.30566 0.43467 0.43051 0.0
C475 C 0.2914 0.42476 0.39416 0.0
C476 C 0.29904 0.45281 0.46052 0.0
C477 C 0.26692 0.50172 0.46062 0.0
H478 H 0.27822 0.5004 0.61152 0.0
C479 C 0.27064 0.58114 0.59472 0.0
C480 C 0.29058 0.582 0.62205 0.0
C481 C 0.26414 0.56147 0.56926 0.0
C482 C 0.27471 0.50102 0.56955 0.0
H483 H 0.25899 0.42611 0.36035 0.0
H484 H 0.24753 0.45876 0.41226 0.0
H485 H 0.27889 0.46598 0.56097 0.0
H486 H 0.3189 0.56286 0.64565 0.0
H487 H 0.30759 0.52903 0.60244 0.0
H488 H 0.26438 0.53709 0.46877 0.0
C489 C 0.26374 0.45205 0.41775 0.0
C490 C 0.27505 0.48133 0.54071 0.0
C491 C 0.27025 0.43342 0.38833 0.0
C492 C 0.3035 0.56282 0.62469 0.0
C493 C 0.29691 0.5433 0.60029 0.0
C494 C 0.26671 0.52157 0.48958 0.0
C495 C 0.2781 0.46177 0.45433 0.0
C496 C 0.2721 0.4816 0.48568 0.0
C497 C 0.27726 0.54234 0.57204 0.0
C498 C 0.27164 0.52148 0.54392 0.0
H499 H 0.32202 0.42833 0.43604 0.0
H500 H 0.31049 0.46013 0.48804 0.0
H501 H 0.2647 0.50234 0.41814 0.0
H502 H 0.26041 0.59572 0.59199 0.0
H503 H 0.24894 0.56118 0.54754 0.0
C504 C 0.83506 0.07264 0.8721 0.0
C505 C 0.81334 0.07915 0.86305 0.0
C506 C 0.83995 0.05671 0.911 0.0
C507 C 0.81758 0.03468 0.03452 0.0
H508 H 0.84812 0.97969 0.00625 0.0
C509 C 0.79962 0.9557 0.1489 0.0
C510 C 0.81653 0.94124 0.16314 0.0
C511 C 0.80375 0.97423 0.11756 0.0
C512 C 0.83998 0.99518 0.01514 0.0
H513 H 0.77974 0.0727 0.8852 0.0
H514 H 0.78826 0.04574 0.95294 0.0
H515 H 0.84745 0.00903 0.93881 0.0
H516 H 0.85114 0.93498 0.15662 0.0
H517 H 0.85848 0.96761 0.10066 0.0
H518 H 0.80936 0.02077 0.1097 0.0
C519 C 0.80154 0.05319 0.93098 0.0
C520 C 0.8396 0.01192 0.97655 0.0
C521 C 0.79668 0.06876 0.89215 0.0
C522 C 0.83787 0.94599 0.14633 0.0
C523 C 0.842 0.9645 0.11412 0.0
C524 C 0.81801 0.01809 0.07291 0.0
C525 C 0.82319 0.04728 0.94161 0.0
C526 C 0.82764 0.03144 0.98521 0.0
C527 C 0.82492 0.97875 0.09925 0.0
C528 C 0.82845 0.9978 0.06288 0.0
H529 H 0.84826 0.08028 0.85033 0.0
H530 H 0.85679 0.05228 0.91825 0.0
H531 H 0.80854 0.04974 0.04252 0.0
H532 H 0.78307 0.95255 0.1617 0.0
H533 H 0.79017 0.98469 0.10632 0.0
C534 C 0.17486 0.05705 0.66465 0.0
C535 C 0.17959 0.07855 0.64698 0.0
C536 C 0.17106 0.04001 0.62815 0.0
C537 C 0.18279 0.02671 0.48714 0.0
H538 H 0.14903 0.97396 0.51808 0.0
C539 C 0.17772 0.95386 0.34017 0.0
C540 C 0.18425 0.9336 0.36245 0.0
C541 C 0.17268 0.97192 0.37274 0.0
C542 C 0.15843 0.98866 0.50888 0.0
H543 H 0.18256 0.09966 0.57837 0.0
H544 H 0.17468 0.07045 0.51459 0.0
H545 H 0.14782 0.0054 0.57895 0.0
H546 H 0.18924 0.91582 0.43584 0.0
H547 H 0.1801 0.94721 0.49277 0.0
H548 H 0.19332 0.00993 0.41709 0.0
C549 C 0.17484 0.06626 0.55623 0.0
C550 C 0.15788 0.00664 0.54391 0.0
C551 C 0.17912 0.08309 0.59263 0.0
C552 C 0.18444 0.93134 0.41776 0.0
C553 C 0.17905 0.94923 0.45027 0.0
C554 C 0.18303 0.00892 0.45185 0.0
C555 C 0.17155 0.04428 0.57327 0.0
C556 C 0.17037 0.0258 0.534 0.0
C557 C 0.17367 0.96987 0.42812 0.0
C558 C 0.17117 0.98957 0.46275 0.0
H559 H 0.17538 0.05322 0.70648 0.0
H560 H 0.16883 0.02334 0.64304 0.0
H561 H 0.19307 0.04082 0.47843 0.0
H562 H 0.17757 0.95604 0.29767 0.0
H563 H 0.1685 0.98764 0.35466 0.0
C564 C 0.19991 0.06267 0.88154 0.0
C565 C 0.2126 0.08201 0.88344 0.0
C566 C 0.20702 0.04321 0.90553 0.0
C567 C 0.23882 0.02233 0.01503 0.0
H568 H 0.22613 0.96617 0.94706 0.0
C569 C 0.23714 0.93506 0.12118 0.0
C570 C 0.21603 0.92617 0.11696 0.0
C571 C 0.24324 0.95346 0.09026 0.0
C572 C 0.23013 0.98168 0.96634 0.0
H573 H 0.24292 0.0961 0.91147 0.0
H574 H 0.25533 0.06172 0.95511 0.0
H575 H 0.22566 1.00025 0.8951 0.0
H576 H 0.18505 0.92903 0.07624 0.0
H577 H 0.19582 0.96036 0.02186 0.0
H578 H 0.24211 1.00361 0.08702 0.0
C579 C 0.2399 0.06179 0.93434 0.0
C580 C 0.22979 1.00119 0.9367 0.0
C581 C 0.23288 0.08137 0.90928 0.0
C582 C 0.2014 0.93557 0.08063 0.0
C583 C 0.20759 0.95343 0.0492 0.0
C584 C 0.23927 1.00268 0.0448 0.0
C585 C 0.22697 0.04251 0.93266 0.0
C586 C 0.23306 0.02184 0.96118 0.0
C587 C 0.22848 0.96268 0.05379 0.0
C588 C 0.23392 0.98233 0.02107 0.0
H589 H 0.18425 0.06258 0.86175 0.0
H590 H 0.19648 0.02881 0.9042 0.0
H591 H 0.24133 0.038 0.035 0.0
H592 H 0.24868 0.92815 0.14908 0.0
H593 H 0.25942 0.96039 0.09457 0.0
C594 C 0.77528 0.0797 0.59782 0.0
C595 C 0.79568 0.08241 0.62231 0.0
C596 C 0.76984 0.05945 0.57363 0.0
C597 C 0.78507 1.00015 0.57442 0.0
H598 H 0.76867 0.99903 0.42634 0.0
C599 C 0.81205 0.93206 0.43476 0.0
C600 C 0.79722 0.9226 0.3991 0.0
C601 C 0.80608 0.95013 0.46577 0.0
C602 C 0.77274 0.99905 0.46803 0.0
H603 H 0.82616 0.06599 0.64136 0.0
H604 H 0.8167 0.03112 0.60007 0.0
H605 H 0.76847 0.03429 0.47477 0.0
H606 H 0.76441 0.92456 0.36786 0.0
H607 H 0.75403 0.95697 0.42172 0.0
H608 H 0.7906 0.96527 0.5671 0.0
C609 C 0.80482 0.04441 0.59947 0.0
C610 C 0.77262 0.0192 0.49572 0.0
C611 C 0.81032 0.06452 0.62278 0.0
C612 C 0.7761 0.9315 0.39533 0.0
C613 C 0.77021 0.95003 0.42585 0.0
C614 C 0.78525 0.98014 0.54685 0.0
C615 C 0.78457 0.04157 0.57461 0.0
C616 C 0.77973 0.02005 0.54857 0.0
C617 C 0.7852 0.95945 0.46142 0.0
C618 C 0.77998 0.97952 0.49284 0.0
H619 H 0.7637 0.09323 0.59681 0.0
H620 H 0.75413 0.05771 0.55457 0.0
H621 H 0.79023 1.00023 0.6154 0.0
H622 H 0.82842 0.92554 0.43864 0.0
H623 H 0.81806 0.95721 0.4923 0.0
C624 C 0.28331 0.31874 0.20604 0.0
C625 C 0.29226 0.31237 0.25485 0.0
C626 C 0.27308 0.30316 0.17349 0.0
C627 C 0.26705 0.24196 0.15345 0.0
H628 H 0.21894 0.26026 0.06411 0.0
C629 C 0.20968 0.18087 0.04387 0.0
C630 C 0.20664 0.18495 0.98964 0.0
C631 C 0.22055 0.19627 0.07568 0.0
C632 C 0.23245 0.25498 0.08864 0.0
H633 H 0.29718 0.28479 0.30836 0.0
H634 H 0.27845 0.25778 0.25299 0.0
H635 H 0.23636 0.28725 0.12199 0.0
H636 H 0.21234 0.20839 0.92628 0.0
H637 H 0.23092 0.23569 0.98232 0.0
H638 H 0.26237 0.20942 0.12118 0.0
C639 C 0.27994 0.27462 0.23866 0.0
C640 C 0.24257 0.27046 0.1217 0.0
C641 C 0.29055 0.29014 0.27074 0.0
C642 C 0.2146 0.20481 0.96788 0.0
C643 C 0.22508 0.22044 0.99994 0.0
C644 C 0.25664 0.22641 0.12112 0.0
C645 C 0.27114 0.28086 0.18933 0.0
C646 C 0.26011 0.26423 0.15449 0.0
C647 C 0.22822 0.21627 0.05412 0.0
C648 C 0.23931 0.23279 0.08825 0.0
H649 H 0.28463 0.3357 0.19233 0.0
H650 H 0.26703 0.30864 0.13545 0.0
H651 H 0.28075 0.2365 0.17706 0.0
H652 H 0.20388 0.16562 0.06152 0.0
H653 H 0.22267 0.19271 0.11737 0.0
C654 C 0.70125 0.71679 0.73153 0.0
C655 C 0.71117 0.69672 0.74631 0.0
C656 C 0.71233 0.73202 0.69955 0.0
C657 C 0.76668 0.75023 0.65916 0.0
H658 H 0.73787 0.77251 0.53345 0.0
C659 C 0.81302 0.8026 0.50433 0.0
C660 C 0.80167 0.81946 0.47771 0.0
C661 C 0.80196 0.78766 0.53707 0.0
C662 C 0.74609 0.76681 0.56881 0.0
H663 H 0.74067 0.6771 0.74006 0.0
H664 H 0.76019 0.70397 0.6852 0.0
H665 H 0.71866 0.74705 0.59205 0.0
H666 H 0.76993 0.83415 0.46518 0.0
H667 H 0.75065 0.80866 0.5236 0.0
H668 H 0.79388 0.77035 0.63719 0.0
C669 C 0.74378 0.70781 0.6981 0.0
C670 C 0.73506 0.75211 0.60225 0.0
C671 C 0.73257 0.69241 0.72933 0.0
C672 C 0.77904 0.82113 0.48466 0.0
C673 C 0.768 0.80641 0.51807 0.0
C674 C 0.7776 0.7652 0.6262 0.0
C675 C 0.73369 0.72766 0.68244 0.0
C676 C 0.74528 0.7436 0.6476 0.0
C677 C 0.77929 0.78942 0.54473 0.0
C678 C 0.76752 0.77364 0.58034 0.0
H679 H 0.68475 0.72057 0.74374 0.0
H680 H 0.70423 0.74726 0.68834 0.0
H681 H 0.77486 0.74409 0.69419 0.0
H682 H 0.83043 0.80076 0.49912 0.0
H683 H 0.81122 0.77456 0.55582 0.0
C684 C 0.23363 0.82422 0.01959 0.0
C685 C 0.21083 0.82481 0.02479 0.0
C686 C 0.24362 0.80804 0.98805 0.0
C687 C 0.23549 0.75178 0.94035 0.0
H688 H 0.27933 0.76541 0.83457 0.0
C689 C 0.29307 0.68638 0.85287 0.0
C690 C 0.29417 0.68498 0.79744 0.0
C691 C 0.28235 0.70399 0.87728 0.0
C692 C 0.267 0.76145 0.86375 0.0
H693 H 0.1807 0.80877 1.00172 0.0
H694 H 0.19812 0.7804 0.94755 0.0
H695 H 0.26201 0.79561 0.88451 0.0
H696 H 0.28514 0.7011 0.72402 0.0
H697 H 0.26671 0.73251 0.76725 0.0
H698 H 0.24083 0.71767 0.92081 0.0
C699 C 0.20823 0.79257 0.96728 0.0
C700 C 0.25726 0.77864 0.89255 0.0
C701 C 0.19827 0.8089 0.99799 0.0
C702 C 0.28447 0.70175 0.76681 0.0
C703 C 0.27406 0.71971 0.79145 0.0
C704 C 0.24547 0.73463 0.91232 0.0
C705 C 0.23099 0.79194 0.96205 0.0
C706 C 0.24142 0.77394 0.93114 0.0
C707 C 0.27278 0.72083 0.84693 0.0
C708 C 0.26136 0.73928 0.8739 0.0
H709 H 0.24366 0.83635 0.03961 0.0
H710 H 0.26122 0.80781 0.98494 0.0
H711 H 0.22341 0.74768 0.97006 0.0
H712 H 0.30027 0.67368 0.87761 0.0
H713 H 0.28171 0.70454 0.92009 0.0
C714 C 0.71366 0.32379 0.35185 0.0
C715 C 0.71174 0.32499 0.29652 0.0
C716 C 0.72519 0.30654 0.37571 0.0
C717 C 0.74217 0.24933 0.35994 0.0
H718 H 0.7856 0.26378 0.46599 0.0
C719 C 0.77749 0.18639 0.51229 0.0
C720 C 0.80023 0.18664 0.51895 0.0
C721 C 0.76721 0.20244 0.48094 0.0
C722 C 0.7736 0.25949 0.43628 0.0
H723 H 0.72021 0.30884 0.22277 0.0
H724 H 0.74004 0.27814 0.26495 0.0
H725 H 0.76689 0.29356 0.41861 0.0
H726 H 0.82997 0.20396 0.4982 0.0
H727 H 0.812 0.23214 0.4442 0.0
H728 H 0.74854 0.21521 0.37877 0.0
C729 C 0.73271 0.2908 0.28956 0.0
C730 C 0.76284 0.27651 0.40939 0.0
C731 C 0.72147 0.30837 0.26549 0.0
C732 C 0.81246 0.2032 0.49339 0.0
C733 C 0.80217 0.21942 0.46281 0.0
C734 C 0.75269 0.23226 0.38758 0.0
C735 C 0.73479 0.28984 0.34492 0.0
C736 C 0.74696 0.27162 0.37111 0.0
C737 C 0.77943 0.21928 0.45643 0.0
C738 C 0.76849 0.2372 0.4261 0.0
H739 H 0.70644 0.33637 0.37689 0.0
H740 H 0.7264 0.30612 0.41845 0.0
H741 H 0.7299 0.24513 0.33085 0.0
H742 H 0.76769 0.17376 0.53124 0.0
H743 H 0.74964 0.20203 0.47698 0.0
C744 C 0.7031 0.69112 0.02859 0.0
C745 C 0.71205 0.6841 0.98011 0.0
C746 C 0.71305 0.70795 0.05802 0.0
C747 C 0.75012 0.75553 0.0431 0.0
H748 H 0.75714 0.75092 0.19517 0.0
C749 C 0.80454 0.81613 0.15681 0.0
C750 C 0.79737 0.82406 0.20608 0.0
C751 C 0.79363 0.79886 0.13153 0.0
C752 C 0.75504 0.75259 0.15283 0.0
H753 H 0.739 0.68907 0.9257 0.0
H754 H 0.7561 0.71846 0.97658 0.0
H755 H 0.73905 0.72109 0.14661 0.0
H756 H 0.77329 0.81972 0.26799 0.0
H757 H 0.75394 0.78957 0.22328 0.0
H758 H 0.76593 0.78697 0.04898 0.0
C759 C 0.7412 0.71111 0.99145 0.0
C760 C 0.74472 0.73549 0.12501 0.0
C761 C 0.73133 0.69424 0.96217 0.0
C762 C 0.77922 0.81399 0.23003 0.0
C763 C 0.76819 0.79666 0.20451 0.0
C764 C 0.76033 0.77262 0.07083 0.0
C765 C 0.73211 0.71827 0.03955 0.0
C766 C 0.74238 0.73666 0.06972 0.0
C767 C 0.77514 0.78908 0.15461 0.0
C768 C 0.76319 0.77126 0.12595 0.0
H769 H 0.68814 0.68396 0.0434 0.0
H770 H 0.70552 0.71324 0.09464 0.0
H771 H 0.74816 0.75716 1.0007 0.0
H772 H 0.8186 0.82331 0.1374 0.0
H773 H 0.79977 0.79312 0.09378 0.0
C774 C 0.20443 0.18859 0.65995 0.0
C775 C 0.20503 0.18665 0.71535 0.0
C776 C 0.21561 0.20562 0.63433 0.0
C777 C 0.23556 0.26156 0.64662 0.0
H778 H 0.27609 0.2453 0.53533 0.0
C779 C 0.27113 0.32274 0.48954 0.0
C780 C 0.29391 0.32209 0.48416 0.0
C781 C 0.26033 0.30693 0.52062 0.0
C782 C 0.26485 0.25007 0.56635 0.0
H783 H 0.21752 0.20129 0.78748 0.0
H784 H 0.2367 0.23174 0.74225 0.0
H785 H 0.25733 0.21632 0.58551 0.0
H786 H 0.32316 0.30423 0.50607 0.0
H787 H 0.30428 0.27636 0.55918 0.0
H788 H 0.2427 0.29539 0.62628 0.0
C789 C 0.22768 0.21979 0.71898 0.0
C790 C 0.25411 0.23353 0.59493 0.0
C791 C 0.21682 0.20237 0.74474 0.0
C792 C 0.30563 0.30525 0.50998 0.0
C793 C 0.29483 0.28925 0.54009 0.0
C794 C 0.246 0.27817 0.61723 0.0
C795 C 0.22733 0.22138 0.66349 0.0
C796 C 0.23938 0.2391 0.63529 0.0
C797 C 0.27209 0.28994 0.54583 0.0
C798 C 0.26077 0.27255 0.57688 0.0
H799 H 0.19561 0.17668 0.6361 0.0
H800 H 0.215 0.20656 0.59155 0.0
H801 H 0.22415 0.26624 0.67734 0.0
H802 H 0.26176 0.33562 0.47023 0.0
H803 H 0.24275 0.30772 0.52418 0.0
C804 C 0.78937 0.22064 0.73196 0.0
C805 C 0.79133 0.19841 0.74758 0.0
C806 C 0.7783 0.23588 0.764 0.0
C807 C 0.74059 0.23867 0.88087 0.0
H808 H 0.7592 0.30008 0.88417 0.0
C809 C 0.71406 0.30212 0.04106 0.0
C810 C 0.70419 0.32134 0.02083 0.0
C811 C 0.72459 0.28725 0.00715 0.0
C812 C 0.75384 0.28297 0.88343 0.0
H813 H 0.78387 0.1748 0.80965 0.0
H814 H 0.76562 0.20131 0.8664 0.0
H815 H 0.77786 0.2739 0.82623 0.0
H816 H 0.69811 0.34047 0.94986 0.0
H817 H 0.71714 0.31474 0.89067 0.0
H818 H 0.71718 0.2478 0.93998 0.0
C819 C 0.77165 0.20702 0.82855 0.0
C820 C 0.76439 0.26795 0.84991 0.0
C821 C 0.78226 0.19175 0.79604 0.0
C822 C 0.70542 0.32565 0.96628 0.0
C823 C 0.71639 0.31106 0.93257 0.0
C824 C 0.73041 0.25359 0.91517 0.0
C825 C 0.76937 0.22932 0.81299 0.0
C826 C 0.75792 0.24554 0.84808 0.0
C827 C 0.7259 0.29164 0.95266 0.0
C828 C 0.73691 0.27586 0.91667 0.0
H829 H 0.79615 0.22619 0.69466 0.0
H830 H 0.77661 0.25275 0.74999 0.0
H831 H 0.73468 0.22178 0.87987 0.0
H832 H 0.71324 0.29844 0.08293 0.0
H833 H 0.73188 0.27239 0.02351 0.0
C834 C 0.21842 0.79152 0.238 0.0
C835 C 0.2159 0.81354 0.25506 0.0
C836 C 0.22903 0.77594 0.27005 0.0
C837 C 0.24075 0.76249 0.40739 0.0
H838 H 0.28908 0.72799 0.35314 0.0
C839 C 0.29117 0.70545 0.54463 0.0
C840 C 0.30012 0.68598 0.52343 0.0
C841 C 0.28114 0.72108 0.5117 0.0
C842 C 0.27537 0.73712 0.36888 0.0
H843 H 0.2222 0.8364 0.31943 0.0
H844 H 0.24021 0.80904 0.37584 0.0
H845 H 0.27073 0.75454 0.29566 0.0
H846 H 0.30513 0.6673 0.45146 0.0
H847 H 0.28687 0.69392 0.39419 0.0
H848 H 0.24461 0.74471 0.47986 0.0
C849 C 0.23423 0.80394 0.33742 0.0
C850 C 0.26496 0.75246 0.33585 0.0
C851 C 0.22405 0.81961 0.30496 0.0
C852 C 0.29864 0.68233 0.46872 0.0
C853 C 0.28824 0.69772 0.43589 0.0
C854 C 0.25085 0.74686 0.44014 0.0
C855 C 0.23686 0.78197 0.32025 0.0
C856 C 0.24764 0.76538 0.35489 0.0
C857 C 0.27941 0.71742 0.45677 0.0
C858 C 0.26843 0.73399 0.42154 0.0
H859 H 0.21233 0.78638 0.19971 0.0
H860 H 0.23077 0.75907 0.25599 0.0
H861 H 0.22727 0.7721 0.42288 0.0
H862 H 0.29231 0.70877 0.58662 0.0
H863 H 0.27503 0.73618 0.52943 0.0
loop_
_geom_bond_atom_site_label_1
_geom_bond_atom_site_label_2
_geom_bond_distance
_geom_bond_site_symmetry_2
_ccdc_geom_bond_type
Co0 N4 2.148 . S
Co0 N10 2.128 . S
Co0 N20 2.194 . S
Co0 O25 2.351 . S
Co0 O26 2.155 . S
Co0 O27 2.096 . S
C1 N4 1.301 . S
C1 N5 1.328 . S
C1 H6 0.930 . S
C2 C3 1.333 . S
C2 N4 1.317 . S
C2 H7 0.930 . S
C3 C2 1.333 . S
C3 N5 1.350 . S
C3 H29 0.931 . S
N4 Co0 2.148 . S
N4 C1 1.301 . S
N4 C2 1.317 . S
N5 C1 1.328 . S
N5 C3 1.350 . S
H6 C1 0.930 . S
H7 C2 0.930 . S
C8 O9 1.224 . S
C8 O27 1.247 . S
O9 C8 1.224 . S
N10 Co0 2.128 . S
N10 C11 1.355 . S
N10 C13 1.311 . S
C11 N10 1.355 . S
C11 C12 1.363 . S
C11 H23 0.929 . S
C12 C11 1.363 . S
C12 N14 1.375 . S
C12 H30 0.931 . S
C13 N10 1.311 . S
C13 N14 1.347 . S
C13 H24 0.929 . S
N14 C12 1.375 . S
N14 C13 1.347 . S
C15 C18 1.365 . S
C15 N20 1.328 . S
C15 H21 0.929 . S
C16 C17 1.362 . S
C16 C19 1.378 . S
C16 H31 0.929 . S
C17 C16 1.362 . S
C17 C18 1.366 . S
C18 C15 1.365 . S
C18 C17 1.366 . S
C18 H32 0.930 . S
C19 C16 1.378 . S
C19 N20 1.315 . S
C19 H22 0.930 . S
N20 Co0 2.194 . S
N20 C15 1.328 . S
N20 C19 1.315 . S
H21 C15 0.929 . S
H22 C19 0.930 . S
H23 C11 0.929 . S
H24 C13 0.929 . S
O25 Co0 2.351 . S
O25 C28 1.244 . S
O26 Co0 2.155 . S
O26 C28 1.240 . S
O27 Co0 2.096 . S
O27 C8 1.247 . S
C28 O25 1.244 . S
C28 O26 1.240 . S
H29 C3 0.931 . S
H30 C12 0.931 . S
H31 C16 0.929 . S
H32 C18 0.930 . S
Co33 N37 2.148 . S
Co33 N43 2.128 . S
Co33 N53 2.194 . S
Co33 O58 2.351 . S
Co33 O59 2.155 . S
Co33 O60 2.096 . S
C34 N37 1.301 . S
C34 N38 1.328 . S
C34 H39 0.930 . S
C35 C36 1.333 . S
C35 N37 1.317 . S
C35 H40 0.930 . S
C36 C35 1.333 . S
C36 N38 1.350 . S
C36 H62 0.931 . S
N37 Co33 2.148 . S
N37 C34 1.301 . S
N37 C35 1.317 . S
N38 C34 1.328 . S
N38 C36 1.350 . S
H39 C34 0.930 . S
H40 C35 0.930 . S
C41 O42 1.224 . S
C41 O60 1.247 . S
O42 C41 1.224 . S
N43 Co33 2.128 . S
N43 C44 1.355 . S
N43 C46 1.311 . S
C44 N43 1.355 . S
C44 C45 1.363 . S
C44 H56 0.929 . S
C45 C44 1.363 . S
C45 N47 1.375 . S
C45 H63 0.931 . S
C46 N43 1.311 . S
C46 N47 1.347 . S
C46 H57 0.929 . S
N47 C45 1.375 . S
N47 C46 1.347 . S
C48 C51 1.365 . S
C48 N53 1.328 . S
C48 H54 0.929 . S
C49 C50 1.362 . S
C49 C52 1.378 . S
C49 H64 0.929 . S
C50 C49 1.362 . S
C50 C51 1.366 . S
C51 C48 1.365 . S
C51 C50 1.366 . S
C51 H65 0.930 . S
C52 C49 1.378 . S
C52 N53 1.315 . S
C52 H55 0.930 . S
N53 Co33 2.194 . S
N53 C48 1.328 . S
N53 C52 1.315 . S
H54 C48 0.929 . S
H55 C52 0.930 . S
H56 C44 0.929 . S
H57 C46 0.929 . S
O58 Co33 2.351 . S
O58 C61 1.244 . S
O59 Co33 2.155 . S
O59 C61 1.240 . S
O60 Co33 2.096 . S
O60 C41 1.247 . S
C61 O58 1.244 . S
C61 O59 1.240 . S
H62 C36 0.931 . S
H63 C45 0.931 . S
H64 C49 0.929 . S
H65 C51 0.930 . S
Co66 N70 2.148 . S
Co66 N76 2.128 . S
Co66 N86 2.194 . S
Co66 O91 2.351 . S
Co66 O92 2.155 . S
Co66 O93 2.096 . S
C67 N70 1.301 . S
C67 N71 1.328 . S
C67 H72 0.930 . S
C68 C69 1.333 . S
C68 N70 1.317 . S
C68 H73 0.930 . S
C69 C68 1.333 . S
C69 N71 1.350 . S
C69 H95 0.931 . S
N70 Co66 2.148 . S
N70 C67 1.301 . S
N70 C68 1.317 . S
N71 C67 1.328 . S
N71 C69 1.350 . S
H72 C67 0.930 . S
H73 C68 0.930 . S
C74 O75 1.224 . S
C74 O93 1.247 . S
O75 C74 1.224 . S
N76 Co66 2.128 . S
N76 C77 1.355 . S
N76 C79 1.311 . S
C77 N76 1.355 . S
C77 C78 1.363 . S
C77 H89 0.929 . S
C78 C77 1.363 . S
C78 N80 1.375 . S
C78 H96 0.931 . S
C79 N76 1.311 . S
C79 N80 1.347 . S
C79 H90 0.929 . S
N80 C78 1.375 . S
N80 C79 1.347 . S
C81 C84 1.365 . S
C81 N86 1.328 . S
C81 H87 0.929 . S
C82 C83 1.362 . S
C82 C85 1.378 . S
C82 H97 0.929 . S
C83 C82 1.362 . S
C83 C84 1.366 . S
C84 C81 1.365 . S
C84 C83 1.366 . S
C84 H98 0.930 . S
C85 C82 1.378 . S
C85 N86 1.315 . S
C85 H88 0.930 . S
N86 Co66 2.194 . S
N86 C81 1.328 . S
N86 C85 1.315 . S
H87 C81 0.929 . S
H88 C85 0.930 . S
H89 C77 0.929 . S
H90 C79 0.929 . S
O91 Co66 2.351 . S
O91 C94 1.244 . S
O92 Co66 2.155 . S
O92 C94 1.240 . S
O93 Co66 2.096 . S
O93 C74 1.247 . S
C94 O91 1.244 . S
C94 O92 1.240 . S
H95 C69 0.931 . S
H96 C78 0.931 . S
H97 C82 0.929 . S
H98 C84 0.930 . S
Co99 N103 2.148 . S
Co99 N109 2.128 . S
Co99 N119 2.194 . S
Co99 O124 2.351 . S
Co99 O125 2.155 . S
Co99 O126 2.096 . S
C100 N103 1.301 . S
C100 N104 1.328 . S
C100 H105 0.930 . S
C101 C102 1.333 . S
C101 N103 1.317 . S
C101 H106 0.930 . S
C102 C101 1.333 . S
C102 N104 1.350 . S
C102 H128 0.931 . S
N103 Co99 2.148 . S
N103 C100 1.301 . S
N103 C101 1.317 . S
N104 C100 1.328 . S
N104 C102 1.350 . S
H105 C100 0.930 . S
H106 C101 0.930 . S
C107 O108 1.224 . S
C107 O126 1.247 . S
O108 C107 1.224 . S
N109 Co99 2.128 . S
N109 C110 1.355 . S
N109 C112 1.311 . S
C110 N109 1.355 . S
C110 C111 1.363 . S
C110 H122 0.929 . S
C111 C110 1.363 . S
C111 N113 1.375 . S
C111 H129 0.931 . S
C112 N109 1.311 . S
C112 N113 1.347 . S
C112 H123 0.929 . S
N113 C111 1.375 . S
N113 C112 1.347 . S
C114 C117 1.365 . S
C114 N119 1.328 . S
C114 H120 0.929 . S
C115 C116 1.362 . S
C115 C118 1.378 . S
C115 H130 0.929 . S
C116 C115 1.362 . S
C116 C117 1.366 . S
C117 C114 1.365 . S
C117 C116 1.366 . S
C117 H131 0.930 . S
C118 C115 1.378 . S
C118 N119 1.315 . S
C118 H121 0.930 . S
N119 Co99 2.194 . S
N119 C114 1.328 . S
N119 C118 1.315 . S
H120 C114 0.929 . S
H121 C118 0.930 . S
H122 C110 0.929 . S
H123 C112 0.929 . S
O124 Co99 2.351 . S
O124 C127 1.244 . S
O125 Co99 2.155 . S
O125 C127 1.240 . S
O126 Co99 2.096 . S
O126 C107 1.247 . S
C127 O124 1.244 . S
C127 O125 1.240 . S
H128 C102 0.931 . S
H129 C111 0.931 . S
H130 C115 0.929 . S
H131 C117 0.930 . S
Co132 N136 2.148 . S
Co132 N142 2.128 . S
Co132 N152 2.194 . S
Co132 O157 2.351 . S
Co132 O158 2.155 . S
Co132 O159 2.096 . S
C133 N136 1.301 . S
C133 N137 1.328 . S
C133 H138 0.930 . S
C134 C135 1.333 . S
C134 N136 1.317 . S
C134 H139 0.930 . S
C135 C134 1.333 . S
C135 N137 1.350 . S
C135 H161 0.931 . S
N136 Co132 2.148 . S
N136 C133 1.301 . S
N136 C134 1.317 . S
N137 C133 1.328 . S
N137 C135 1.350 . S
H138 C133 0.930 . S
H139 C134 0.930 . S
C140 O141 1.224 . S
C140 O159 1.247 . S
O141 C140 1.224 . S
N142 Co132 2.128 . S
N142 C143 1.355 . S
N142 C145 1.311 . S
C143 N142 1.355 . S
C143 C144 1.363 . S
C143 H155 0.929 . S
C144 C143 1.363 . S
C144 N146 1.375 . S
C144 H162 0.931 . S
C145 N142 1.311 . S
C145 N146 1.347 . S
C145 H156 0.929 . S
N146 C144 1.375 . S
N146 C145 1.347 . S
C147 C150 1.365 . S
C147 N152 1.328 . S
C147 H153 0.929 . S
C148 C149 1.362 . S
C148 C151 1.378 . S
C148 H163 0.929 . S
C149 C148 1.362 . S
C149 C150 1.366 . S
C150 C147 1.365 . S
C150 C149 1.366 . S
C150 H164 0.930 . S
C151 C148 1.378 . S
C151 N152 1.315 . S
C151 H154 0.930 . S
N152 Co132 2.194 . S
N152 C147 1.328 . S
N152 C151 1.315 . S
H153 C147 0.929 . S
H154 C151 0.930 . S
H155 C143 0.929 . S
H156 C145 0.929 . S
O157 Co132 2.351 . S
O157 C160 1.244 . S
O158 Co132 2.155 . S
O158 C160 1.240 . S
O159 Co132 2.096 . S
O159 C140 1.247 . S
C160 O157 1.244 . S
C160 O158 1.240 . S
H161 C135 0.931 . S
H162 C144 0.931 . S
H163 C148 0.929 . S
H164 C150 0.930 . S
Co165 N169 2.148 . S
Co165 N175 2.128 . S
Co165 N185 2.194 . S
Co165 O190 2.351 . S
Co165 O191 2.155 . S
Co165 O192 2.096 . S
C166 N169 1.301 . S
C166 N170 1.328 . S
C166 H171 0.930 . S
C167 C168 1.333 . S
C167 N169 1.317 . S
C167 H172 0.930 . S
C168 C167 1.333 . S
C168 N170 1.350 . S
C168 H194 0.931 . S
N169 Co165 2.148 . S
N169 C166 1.301 . S
N169 C167 1.317 . S
N170 C166 1.328 . S
N170 C168 1.350 . S
H171 C166 0.930 . S
H172 C167 0.930 . S
C173 O174 1.224 . S
C173 O192 1.247 . S
O174 C173 1.224 . S
N175 Co165 2.128 . S
N175 C176 1.355 . S
N175 C178 1.311 . S
C176 N175 1.355 . S
C176 C177 1.363 . S
C176 H188 0.929 . S
C177 C176 1.363 . S
C177 N179 1.375 . S
C177 H195 0.931 . S
C178 N175 1.311 . S
C178 N179 1.347 . S
C178 H189 0.929 . S
N179 C177 1.375 . S
N179 C178 1.347 . S
C180 C183 1.365 . S
C180 N185 1.328 . S
C180 H186 0.929 . S
C181 C182 1.362 . S
C181 C184 1.378 . S
C181 H196 0.929 . S
C182 C181 1.362 . S
C182 C183 1.366 . S
C183 C180 1.365 . S
C183 C182 1.366 . S
C183 H197 0.930 . S
C184 C181 1.378 . S
C184 N185 1.315 . S
C184 H187 0.930 . S
N185 Co165 2.194 . S
N185 C180 1.328 . S
N185 C184 1.315 . S
H186 C180 0.929 . S
H187 C184 0.930 . S
H188 C176 0.929 . S
H189 C178 0.929 . S
O190 Co165 2.351 . S
O190 C193 1.244 . S
O191 Co165 2.155 . S
O191 C193 1.240 . S
O192 Co165 2.096 . S
O192 C173 1.247 . S
C193 O190 1.244 . S
C193 O191 1.240 . S
H194 C168 0.931 . S
H195 C177 0.931 . S
H196 C181 0.929 . S
H197 C183 0.930 . S
Co198 N202 2.148 . S
Co198 N208 2.128 . S
Co198 N218 2.194 . S
Co198 O223 2.351 . S
Co198 O224 2.155 . S
Co198 O225 2.096 . S
C199 N202 1.301 . S
C199 N203 1.328 . S
C199 H204 0.930 . S
C200 C201 1.333 . S
C200 N202 1.317 . S
C200 H205 0.930 . S
C201 C200 1.333 . S
C201 N203 1.350 . S
C201 H227 0.931 . S
N202 Co198 2.148 . S
N202 C199 1.301 . S
N202 C200 1.317 . S
N203 C199 1.328 . S
N203 C201 1.350 . S
H204 C199 0.930 . S
H205 C200 0.930 . S
C206 O207 1.224 . S
C206 O225 1.247 . S
O207 C206 1.224 . S
N208 Co198 2.128 . S
N208 C209 1.355 . S
N208 C211 1.311 . S
C209 N208 1.355 . S
C209 C210 1.363 . S
C209 H221 0.929 . S
C210 C209 1.363 . S
C210 N212 1.375 . S
C210 H228 0.931 . S
C211 N208 1.311 . S
C211 N212 1.347 . S
C211 H222 0.929 . S
N212 C210 1.375 . S
N212 C211 1.347 . S
C213 C216 1.365 . S
C213 N218 1.328 . S
C213 H219 0.929 . S
C214 C215 1.362 . S
C214 C217 1.378 . S
C214 H229 0.929 . S
C215 C214 1.362 . S
C215 C216 1.366 . S
C216 C213 1.365 . S
C216 C215 1.366 . S
C216 H230 0.930 . S
C217 C214 1.378 . S
C217 N218 1.315 . S
C217 H220 0.930 . S
N218 Co198 2.194 . S
N218 C213 1.328 . S
N218 C217 1.315 . S
H219 C213 0.929 . S
H220 C217 0.930 . S
H221 C209 0.929 . S
H222 C211 0.929 . S
O223 Co198 2.351 . S
O223 C226 1.244 . S
O224 Co198 2.155 . S
O224 C226 1.240 . S
O225 Co198 2.096 . S
O225 C206 1.247 . S
C226 O223 1.244 . S
C226 O224 1.240 . S
H227 C201 0.931 . S
H228 C210 0.931 . S
H229 C214 0.929 . S
H230 C216 0.930 . S
Co231 N235 2.148 . S
Co231 N241 2.128 . S
Co231 N251 2.194 . S
Co231 O256 2.351 . S
Co231 O257 2.155 . S
Co231 O258 2.096 . S
C232 N235 1.301 . S
C232 N236 1.328 . S
C232 H237 0.930 . S
C233 C234 1.333 . S
C233 N235 1.317 . S
C233 H238 0.930 . S
C234 C233 1.333 . S
C234 N236 1.350 . S
C234 H260 0.931 . S
N235 Co231 2.148 . S
N235 C232 1.301 . S
N235 C233 1.317 . S
N236 C232 1.328 . S
N236 C234 1.350 . S
H237 C232 0.930 . S
H238 C233 0.930 . S
C239 O240 1.224 . S
C239 O258 1.247 . S
O240 C239 1.224 . S
N241 Co231 2.128 . S
N241 C242 1.355 . S
N241 C244 1.311 . S
C242 N241 1.355 . S
C242 C243 1.363 . S
C242 H254 0.929 . S
C243 C242 1.363 . S
C243 N245 1.375 . S
C243 H261 0.931 . S
C244 N241 1.311 . S
C244 N245 1.347 . S
C244 H255 0.929 . S
N245 C243 1.375 . S
N245 C244 1.347 . S
C246 C249 1.365 . S
C246 N251 1.328 . S
C246 H252 0.929 . S
C247 C248 1.362 . S
C247 C250 1.378 . S
C247 H262 0.929 . S
C248 C247 1.362 . S
C248 C249 1.366 . S
C249 C246 1.365 . S
C249 C248 1.366 . S
C249 H263 0.930 . S
C250 C247 1.378 . S
C250 N251 1.315 . S
C250 H253 0.930 . S
N251 Co231 2.194 . S
N251 C246 1.328 . S
N251 C250 1.315 . S
H252 C246 0.929 . S
H253 C250 0.930 . S
H254 C242 0.929 . S
H255 C244 0.929 . S
O256 Co231 2.351 . S
O256 C259 1.244 . S
O257 Co231 2.155 . S
O257 C259 1.240 . S
O258 Co231 2.096 . S
O258 C239 1.247 . S
C259 O256 1.244 . S
C259 O257 1.240 . S
H260 C234 0.931 . S
H261 C243 0.931 . S
H262 C247 0.929 . S
H263 C249 0.930 . S
C264 C265 1.349 . S
C264 C266 1.327 . S
C264 H289 0.950 . S
C265 C264 1.349 . S
C265 C281 1.349 . S
C266 C264 1.327 . S
C266 C285 1.429 . S
C266 H290 0.950 . S
C267 C284 1.574 . S
C267 C286 1.368 . S
C267 H291 0.949 . S
H268 C272 0.949 . S
C269 C270 1.349 . S
C269 C271 1.327 . S
C269 H292 0.950 . S
C270 C269 1.349 . S
C270 C282 1.349 . S
C271 C269 1.327 . S
C271 C287 1.429 . S
C271 H293 0.950 . S
C272 H268 0.949 . S
C272 C280 1.574 . S
C272 C288 1.368 . S
H273 C281 0.950 . S
H274 C279 0.950 . S
H275 C280 0.949 . S
H276 C282 0.950 . S
H277 C283 0.950 . S
H278 C284 0.949 . S
C279 H274 0.950 . S
C279 C281 1.327 . S
C279 C285 1.429 . S
C280 C272 1.574 . S
C280 H275 0.949 . S
C280 C286 1.368 . S
C281 C265 1.349 . S
C281 H273 0.950 . S
C281 C279 1.327 . S
C282 C270 1.349 . S
C282 H276 0.950 . S
C282 C283 1.327 . S
C283 H277 0.950 . S
C283 C282 1.327 . S
C283 C287 1.429 . S
C284 C267 1.574 . S
C284 H278 0.949 . S
C284 C288 1.368 . S
C285 C266 1.429 . S
C285 C279 1.429 . S
C285 C286 1.523 . S
C286 C267 1.368 . S
C286 C280 1.368 . S
C286 C285 1.523 . S
C287 C271 1.429 . S
C287 C283 1.429 . S
C287 C288 1.523 . S
C288 C272 1.368 . S
C288 C284 1.368 . S
C288 C287 1.523 . S
H289 C264 0.950 . S
H290 C266 0.950 . S
H291 C267 0.949 . S
H292 C269 0.950 . S
H293 C271 0.950 . S
C294 C295 1.349 . S
C294 C296 1.327 . S
C294 H319 0.950 . S
C295 C294 1.349 . S
C295 C311 1.349 . S
C296 C294 1.327 . S
C296 C315 1.429 . S
C296 H320 0.950 . S
C297 C314 1.574 . S
C297 C316 1.368 . S
C297 H321 0.949 . S
H298 C302 0.949 . S
C299 C300 1.349 . S
C299 C301 1.327 . S
C299 H322 0.950 . S
C300 C299 1.349 . S
C300 C312 1.349 . S
C301 C299 1.327 . S
C301 C317 1.429 . S
C301 H323 0.950 . S
C302 H298 0.949 . S
C302 C310 1.574 . S
C302 C318 1.368 . S
H303 C311 0.950 . S
H304 C309 0.950 . S
H305 C310 0.949 . S
H306 C312 0.950 . S
H307 C313 0.950 . S
H308 C314 0.949 . S
C309 H304 0.950 . S
C309 C311 1.327 . S
C309 C315 1.429 . S
C310 C302 1.574 . S
C310 H305 0.949 . S
C310 C316 1.368 . S
C311 C295 1.349 . S
C311 H303 0.950 . S
C311 C309 1.327 . S
C312 C300 1.349 . S
C312 H306 0.950 . S
C312 C313 1.327 . S
C313 H307 0.950 . S
C313 C312 1.327 . S
C313 C317 1.429 . S
C314 C297 1.574 . S
C314 H308 0.949 . S
C314 C318 1.368 . S
C315 C296 1.429 . S
C315 C309 1.429 . S
C315 C316 1.523 . S
C316 C297 1.368 . S
C316 C310 1.368 . S
C316 C315 1.523 . S
C317 C301 1.429 . S
C317 C313 1.429 . S
C317 C318 1.523 . S
C318 C302 1.368 . S
C318 C314 1.368 . S
C318 C317 1.523 . S
H319 C294 0.950 . S
H320 C296 0.950 . S
H321 C297 0.949 . S
H322 C299 0.950 . S
H323 C301 0.950 . S
C324 C325 1.349 . S
C324 C326 1.327 . S
C324 H349 0.950 . S
C325 C324 1.349 . S
C325 C341 1.349 . S
C326 C324 1.327 . S
C326 C345 1.429 . S
C326 H350 0.950 . S
C327 C344 1.574 1_455 S
C327 C346 1.368 . S
C327 H351 0.949 . S
H328 C332 0.949 . S
C329 C330 1.349 . S
C329 C331 1.327 . S
C329 H352 0.950 . S
C330 C329 1.349 . S
C330 C342 1.349 . S
C331 C329 1.327 . S
C331 C347 1.429 . S
C331 H353 0.950 . S
C332 H328 0.949 . S
C332 C340 1.574 1_655 S
C332 C348 1.368 . S
H333 C341 0.950 . S
H334 C339 0.950 . S
H335 C340 0.949 . S
H336 C342 0.950 . S
H337 C343 0.950 . S
H338 C344 0.949 . S
C339 H334 0.950 . S
C339 C341 1.327 . S
C339 C345 1.429 . S
C340 C332 1.574 1_455 S
C340 H335 0.949 . S
C340 C346 1.368 . S
C341 C325 1.349 . S
C341 H333 0.950 . S
C341 C339 1.327 . S
C342 C330 1.349 . S
C342 H336 0.950 . S
C342 C343 1.327 . S
C343 H337 0.950 . S
C343 C342 1.327 . S
C343 C347 1.429 . S
C344 C327 1.574 1_655 S
C344 H338 0.949 . S
C344 C348 1.368 . S
C345 C326 1.429 . S
C345 C339 1.429 . S
C345 C346 1.523 . S
C346 C327 1.368 . S
C346 C340 1.368 . S
C346 C345 1.523 . S
C347 C331 1.429 . S
C347 C343 1.429 . S
C347 C348 1.523 . S
C348 C332 1.368 . S
C348 C344 1.368 . S
C348 C347 1.523 . S
H349 C324 0.950 . S
H350 C326 0.950 . S
H351 C327 0.949 . S
H352 C329 0.950 . S
H353 C331 0.950 . S
C354 C355 1.349 . S
C354 C356 1.327 . S
C354 H379 0.950 . S
C355 C354 1.349 . S
C355 C371 1.349 . S
C356 C354 1.327 . S
C356 C375 1.429 . S
C356 H380 0.950 . S
C357 C374 1.574 1_455 S
C357 C376 1.368 . S
C357 H381 0.949 . S
H358 C362 0.949 . S
C359 C360 1.349 . S
C359 C361 1.327 . S
C359 H382 0.950 . S
C360 C359 1.349 . S
C360 C372 1.349 . S
C361 C359 1.327 . S
C361 C377 1.429 . S
C361 H383 0.950 . S
C362 H358 0.949 . S
C362 C370 1.574 1_655 S
C362 C378 1.368 . S
H363 C371 0.950 . S
H364 C369 0.950 . S
H365 C370 0.949 . S
H366 C372 0.950 . S
H367 C373 0.950 . S
H368 C374 0.949 . S
C369 H364 0.950 . S
C369 C371 1.327 . S
C369 C375 1.429 . S
C370 C362 1.574 1_455 S
C370 H365 0.949 . S
C370 C376 1.368 . S
C371 C355 1.349 . S
C371 H363 0.950 . S
C371 C369 1.327 . S
C372 C360 1.349 . S
C372 H366 0.950 . S
C372 C373 1.327 . S
C373 H367 0.950 . S
C373 C372 1.327 . S
C373 C377 1.429 . S
C374 C357 1.574 1_655 S
C374 H368 0.949 . S
C374 C378 1.368 . S
C375 C356 1.429 . S
C375 C369 1.429 . S
C375 C376 1.523 . S
C376 C357 1.368 . S
C376 C370 1.368 . S
C376 C375 1.523 . S
C377 C361 1.429 . S
C377 C373 1.429 . S
C377 C378 1.523 . S
C378 C362 1.368 . S
C378 C374 1.368 . S
C378 C377 1.523 . S
H379 C354 0.950 . S
H380 C356 0.950 . S
H381 C357 0.949 . S
H382 C359 0.950 . S
H383 C361 0.950 . S
C384 C385 1.349 . S
C384 C386 1.327 . S
C384 H409 0.950 . S
C385 C384 1.349 . S
C385 C401 1.349 . S
C386 C384 1.327 . S
C386 C405 1.429 . S
C386 H410 0.950 . S
C387 C404 1.574 1_556 S
C387 C406 1.368 . S
C387 H411 0.949 . S
H388 C392 0.949 . S
C389 C390 1.349 . S
C389 C391 1.327 . S
C389 H412 0.950 . S
C390 C389 1.349 . S
C390 C402 1.349 . S
C391 C389 1.327 . S
C391 C407 1.429 . S
C391 H413 0.950 . S
C392 H388 0.949 . S
C392 C400 1.574 1_554 S
C392 C408 1.368 . S
H393 C401 0.950 . S
H394 C399 0.950 . S
H395 C400 0.949 . S
H396 C402 0.950 . S
H397 C403 0.950 . S
H398 C404 0.949 . S
C399 H394 0.950 . S
C399 C401 1.327 . S
C399 C405 1.429 . S
C400 C392 1.574 1_556 S
C400 H395 0.949 . S
C400 C406 1.368 . S
C401 C385 1.349 . S
C401 H393 0.950 . S
C401 C399 1.327 . S
C402 C390 1.349 . S
C402 H396 0.950 . S
C402 C403 1.327 . S
C403 H397 0.950 . S
C403 C402 1.327 . S
C403 C407 1.429 . S
C404 C387 1.574 1_554 S
C404 H398 0.949 . S
C404 C408 1.368 . S
C405 C386 1.429 . S
C405 C399 1.429 . S
C405 C406 1.523 . S
C406 C387 1.368 . S
C406 C400 1.368 . S
C406 C405 1.523 . S
C407 C391 1.429 . S
C407 C403 1.429 . S
C407 C408 1.523 . S
C408 C392 1.368 . S
C408 C404 1.368 . S
C408 C407 1.523 . S
H409 C384 0.950 . S
H410 C386 0.950 . S
H411 C387 0.949 . S
H412 C389 0.950 . S
H413 C391 0.950 . S
C414 C415 1.349 . S
C414 C416 1.327 . S
C414 H439 0.950 . S
C415 C414 1.349 . S
C415 C431 1.349 . S
C416 C414 1.327 . S
C416 C435 1.429 . S
C416 H440 0.950 . S
C417 C434 1.574 . S
C417 C436 1.368 . S
C417 H441 0.949 . S
H418 C422 0.949 . S
C419 C420 1.349 . S
C419 C421 1.327 . S
C419 H442 0.950 . S
C420 C419 1.349 . S
C420 C432 1.349 . S
C421 C419 1.327 . S
C421 C437 1.429 . S
C421 H443 0.950 . S
C422 H418 0.949 . S
C422 C430 1.574 . S
C422 C438 1.368 . S
H423 C431 0.950 . S
H424 C429 0.950 . S
H425 C430 0.949 . S
H426 C432 0.950 . S
H427 C433 0.950 . S
H428 C434 0.949 . S
C429 H424 0.950 . S
C429 C431 1.327 . S
C429 C435 1.429 . S
C430 C422 1.574 . S
C430 H425 0.949 . S
C430 C436 1.368 . S
C431 C415 1.349 . S
C431 H423 0.950 . S
C431 C429 1.327 . S
C432 C420 1.349 . S
C432 H426 0.950 . S
C432 C433 1.327 . S
C433 H427 0.950 . S
C433 C432 1.327 . S
C433 C437 1.429 . S
C434 C417 1.574 . S
C434 H428 0.949 . S
C434 C438 1.368 . S
C435 C416 1.429 . S
C435 C429 1.429 . S
C435 C436 1.523 . S
C436 C417 1.368 . S
C436 C430 1.368 . S
C436 C435 1.523 . S
C437 C421 1.429 . S
C437 C433 1.429 . S
C437 C438 1.523 . S
C438 C422 1.368 . S
C438 C434 1.368 . S
C438 C437 1.523 . S
H439 C414 0.950 . S
H440 C416 0.950 . S
H441 C417 0.949 . S
H442 C419 0.950 . S
H443 C421 0.950 . S
C444 C445 1.349 . S
C444 C446 1.327 . S
C444 H469 0.950 . S
C445 C444 1.349 . S
C445 C461 1.349 . S
C446 C444 1.327 . S
C446 C465 1.429 . S
C446 H470 0.950 . S
C447 C464 1.574 . S
C447 C466 1.368 . S
C447 H471 0.949 . S
H448 C452 0.949 . S
C449 C450 1.349 . S
C449 C451 1.327 . S
C449 H472 0.950 . S
C450 C449 1.349 . S
C450 C462 1.349 . S
C451 C449 1.327 . S
C451 C467 1.429 . S
C451 H473 0.950 . S
C452 H448 0.949 . S
C452 C460 1.574 . S
C452 C468 1.368 . S
H453 C461 0.950 . S
H454 C459 0.950 . S
H455 C460 0.949 . S
H456 C462 0.950 . S
H457 C463 0.950 . S
H458 C464 0.949 . S
C459 H454 0.950 . S
C459 C461 1.327 . S
C459 C465 1.429 . S
C460 C452 1.574 . S
C460 H455 0.949 . S
C460 C466 1.368 1_554 S
C461 C445 1.349 . S
C461 H453 0.950 . S
C461 C459 1.327 . S
C462 C450 1.349 . S
C462 H456 0.950 . S
C462 C463 1.327 . S
C463 H457 0.950 . S
C463 C462 1.327 . S
C463 C467 1.429 . S
C464 C447 1.574 . S
C464 H458 0.949 . S
C464 C468 1.368 1_556 S
C465 C446 1.429 . S
C465 C459 1.429 . S
C465 C466 1.523 . S
C466 C447 1.368 . S
C466 C460 1.368 1_556 S
C466 C465 1.523 . S
C467 C451 1.429 . S
C467 C463 1.429 . S
C467 C468 1.523 . S
C468 C452 1.368 . S
C468 C464 1.368 1_554 S
C468 C467 1.523 . S
H469 C444 0.950 . S
H470 C446 0.950 . S
H471 C447 0.949 . S
H472 C449 0.950 . S
H473 C451 0.950 . S
C474 C475 1.349 . S
C474 C476 1.327 . S
C474 H499 0.950 . S
C475 C474 1.349 . S
C475 C491 1.349 . S
C476 C474 1.327 . S
C476 C495 1.429 . S
C476 H500 0.950 . S
C477 C494 1.574 . S
C477 C496 1.368 . S
C477 H501 0.949 . S
H478 C482 0.949 . S
C479 C480 1.349 . S
C479 C481 1.327 . S
C479 H502 0.950 . S
C480 C479 1.349 . S
C480 C492 1.349 . S
C481 C479 1.327 . S
C481 C497 1.429 . S
C481 H503 0.950 . S
C482 H478 0.949 . S
C482 C490 1.574 . S
C482 C498 1.368 . S
H483 C491 0.950 . S
H484 C489 0.950 . S
H485 C490 0.949 . S
H486 C492 0.950 . S
H487 C493 0.950 . S
H488 C494 0.949 . S
C489 H484 0.950 . S
C489 C491 1.327 . S
C489 C495 1.429 . S
C490 C482 1.574 . S
C490 H485 0.949 . S
C490 C496 1.368 . S
C491 C475 1.349 . S
C491 H483 0.950 . S
C491 C489 1.327 . S
C492 C480 1.349 . S
C492 H486 0.950 . S
C492 C493 1.327 . S
C493 H487 0.950 . S
C493 C492 1.327 . S
C493 C497 1.429 . S
C494 C477 1.574 . S
C494 H488 0.949 . S
C494 C498 1.368 . S
C495 C476 1.429 . S
C495 C489 1.429 . S
C495 C496 1.523 . S
C496 C477 1.368 . S
C496 C490 1.368 . S
C496 C495 1.523 . S
C497 C481 1.429 . S
C497 C493 1.429 . S
C497 C498 1.523 . S
C498 C482 1.368 . S
C498 C494 1.368 . S
C498 C497 1.523 . S
H499 C474 0.950 . S
H500 C476 0.950 . S
H501 C477 0.949 . S
H502 C479 0.950 . S
H503 C481 0.950 . S
C504 C505 1.349 . S
C504 C506 1.327 . S
C504 H529 0.950 . S
C505 C504 1.349 . S
C505 C521 1.349 . S
C506 C504 1.327 . S
C506 C525 1.429 . S
C506 H530 0.950 . S
C507 C524 1.574 1_546 S
C507 C526 1.368 . S
C507 H531 0.949 . S
H508 C512 0.949 . S
C509 C510 1.349 . S
C509 C511 1.327 . S
C509 H532 0.950 . S
C510 C509 1.349 . S
C510 C522 1.349 . S
C511 C509 1.327 . S
C511 C527 1.429 . S
C511 H533 0.950 . S
C512 H508 0.949 . S
C512 C520 1.574 1_564 S
C512 C528 1.368 . S
H513 C521 0.950 . S
H514 C519 0.950 . S
H515 C520 0.949 . S
H516 C522 0.950 . S
H517 C523 0.950 . S
H518 C524 0.949 . S
C519 H514 0.950 . S
C519 C521 1.327 . S
C519 C525 1.429 . S
C520 C512 1.574 1_546 S
C520 H515 0.949 . S
C520 C526 1.368 . S
C521 C505 1.349 . S
C521 H513 0.950 . S
C521 C519 1.327 . S
C522 C510 1.349 . S
C522 H516 0.950 . S
C522 C523 1.327 . S
C523 H517 0.950 . S
C523 C522 1.327 . S
C523 C527 1.429 . S
C524 C507 1.574 1_564 S
C524 H518 0.949 . S
C524 C528 1.368 . S
C525 C506 1.429 . S
C525 C519 1.429 . S
C525 C526 1.523 . S
C526 C507 1.368 . S
C526 C520 1.368 . S
C526 C525 1.523 . S
C527 C511 1.429 . S
C527 C523 1.429 . S
C527 C528 1.523 . S
C528 C512 1.368 . S
C528 C524 1.368 . S
C528 C527 1.523 . S
H529 C504 0.950 . S
H530 C506 0.950 . S
H531 C507 0.949 . S
H532 C509 0.950 . S
H533 C511 0.950 . S
C534 C535 1.349 . S
C534 C536 1.327 . S
C534 H559 0.950 . S
C535 C534 1.349 . S
C535 C551 1.349 . S
C536 C534 1.327 . S
C536 C555 1.429 . S
C536 H560 0.950 . S
C537 C554 1.574 . S
C537 C556 1.368 . S
C537 H561 0.949 . S
H538 C542 0.949 . S
C539 C540 1.349 . S
C539 C541 1.327 . S
C539 H562 0.950 . S
C540 C539 1.349 . S
C540 C552 1.349 . S
C541 C539 1.327 . S
C541 C557 1.429 . S
C541 H563 0.950 . S
C542 H538 0.949 . S
C542 C550 1.574 . S
C542 C558 1.368 . S
H543 C551 0.950 . S
H544 C549 0.950 . S
H545 C550 0.949 . S
H546 C552 0.950 . S
H547 C553 0.950 . S
H548 C554 0.949 . S
C549 H544 0.950 . S
C549 C551 1.327 . S
C549 C555 1.429 . S
C550 C542 1.574 . S
C550 H545 0.949 . S
C550 C556 1.368 1_565 S
C551 C535 1.349 . S
C551 H543 0.950 . S
C551 C549 1.327 . S
C552 C540 1.349 . S
C552 H546 0.950 . S
C552 C553 1.327 . S
C553 H547 0.950 . S
C553 C552 1.327 . S
C553 C557 1.429 . S
C554 C537 1.574 . S
C554 H548 0.949 . S
C554 C558 1.368 1_545 S
C555 C536 1.429 . S
C555 C549 1.429 . S
C555 C556 1.523 . S
C556 C537 1.368 . S
C556 C550 1.368 1_545 S
C556 C555 1.523 . S
C557 C541 1.429 . S
C557 C553 1.429 . S
C557 C558 1.523 . S
C558 C542 1.368 . S
C558 C554 1.368 1_565 S
C558 C557 1.523 . S
H559 C534 0.950 . S
H560 C536 0.950 . S
H561 C537 0.949 . S
H562 C539 0.950 . S
H563 C541 0.950 . S
C564 C565 1.349 . S
C564 C566 1.327 . S
C564 H589 0.950 . S
C565 C564 1.349 . S
C565 C581 1.349 . S
C566 C564 1.327 . S
C566 C585 1.429 . S
C566 H590 0.950 . S
C567 C584 1.545 1_545 S
C567 C586 1.395 . S
C567 H591 0.952 . S
H568 C572 0.952 . S
C569 C570 1.349 . S
C569 C571 1.327 . S
C569 H592 0.950 . S
C570 C569 1.349 . S
C570 C582 1.349 . S
C571 C569 1.327 . S
C571 C587 1.429 . S
C571 H593 0.950 . S
C572 H568 0.952 . S
C572 C580 1.545 1_565 S
C572 C588 1.395 . S
H573 C581 0.950 . S
H574 C579 0.950 . S
H575 C580 0.949 . S
H576 C582 0.950 . S
H577 C583 0.950 . S
H578 C584 0.949 . S
C579 H574 0.950 . S
C579 C581 1.327 . S
C579 C585 1.429 . S
C580 C572 1.545 1_545 S
C580 H575 0.949 . S
C580 C586 1.368 1_554 S
C581 C565 1.349 . S
C581 H573 0.950 . S
C581 C579 1.327 . S
C582 C570 1.349 . S
C582 H576 0.950 . S
C582 C583 1.327 . S
C583 H577 0.950 . S
C583 C582 1.327 . S
C583 C587 1.429 . S
C584 C567 1.545 1_565 S
C584 H578 0.949 . S
C584 C588 1.368 1_556 S
C585 C566 1.429 . S
C585 C579 1.429 . S
C585 C586 1.523 . S
C586 C567 1.395 . S
C586 C580 1.368 1_556 S
C586 C585 1.523 . S
C587 C571 1.429 . S
C587 C583 1.429 . S
C587 C588 1.523 . S
C588 C572 1.395 . S
C588 C584 1.368 1_554 S
C588 C587 1.523 . S
H589 C564 0.950 . S
H590 C566 0.950 . S
H591 C567 0.952 . S
H592 C569 0.950 . S
H593 C571 0.950 . S
C594 C595 1.349 . S
C594 C596 1.327 . S
C594 H619 0.950 . S
C595 C594 1.349 . S
C595 C611 1.349 . S
C596 C594 1.327 . S
C596 C615 1.429 . S
C596 H620 0.950 . S
C597 C614 1.546 1_545 S
C597 C616 1.368 . S
C597 H621 0.949 . S
H598 C602 0.949 . S
C599 C600 1.349 . S
C599 C601 1.327 . S
C599 H622 0.950 . S
C600 C599 1.349 . S
C600 C612 1.349 . S
C601 C599 1.327 . S
C601 C617 1.429 . S
C601 H623 0.950 . S
C602 H598 0.949 . S
C602 C610 1.546 1_565 S
C602 C618 1.368 . S
H603 C611 0.950 . S
H604 C609 0.950 . S
H605 C610 0.951 . S
H606 C612 0.950 . S
H607 C613 0.950 . S
H608 C614 0.951 . S
C609 H604 0.950 . S
C609 C611 1.327 . S
C609 C615 1.429 . S
C610 C602 1.546 1_545 S
C610 H605 0.951 . S
C610 C616 1.394 . S
C611 C595 1.349 . S
C611 H603 0.950 . S
C611 C609 1.327 . S
C612 C600 1.349 . S
C612 H606 0.950 . S
C612 C613 1.327 . S
C613 H607 0.950 . S
C613 C612 1.327 . S
C613 C617 1.429 . S
C614 C597 1.546 1_565 S
C614 H608 0.951 . S
C614 C618 1.394 . S
C615 C596 1.429 . S
C615 C609 1.429 . S
C615 C616 1.523 . S
C616 C597 1.368 . S
C616 C610 1.394 . S
C616 C615 1.523 . S
C617 C601 1.429 . S
C617 C613 1.429 . S
C617 C618 1.523 . S
C618 C602 1.368 . S
C618 C614 1.394 . S
C618 C617 1.523 . S
H619 C594 0.950 . S
H620 C596 0.950 . S
H621 C597 0.949 . S
H622 C599 0.950 . S
H623 C601 0.950 . S
C624 C625 1.349 . S
C624 C626 1.327 . S
C624 H649 0.950 . S
C625 C624 1.349 . S
C625 C641 1.349 . S
C626 C624 1.327 . S
C626 C645 1.429 . S
C626 H650 0.950 . S
C627 C644 1.574 . S
C627 C646 1.368 . S
C627 H651 0.949 . S
H628 C632 0.949 1_556 S
C629 C630 1.349 . S
C629 C631 1.327 1_556 S
C629 H652 0.950 . S
C630 C629 1.349 . S
C630 C642 1.349 . S
C631 C629 1.327 1_554 S
C631 C647 1.429 1_554 S
C631 H653 0.950 . S
C632 H628 0.949 1_554 S
C632 C640 1.574 . S
C632 C648 1.368 . S
H633 C641 0.950 . S
H634 C639 0.950 . S
H635 C640 0.949 . S
H636 C642 0.950 . S
H637 C643 0.950 . S
H638 C644 0.949 . S
C639 H634 0.950 . S
C639 C641 1.327 . S
C639 C645 1.429 . S
C640 C632 1.574 . S
C640 H635 0.949 . S
C640 C646 1.368 . S
C641 C625 1.349 . S
C641 H633 0.950 . S
C641 C639 1.327 . S
C642 C630 1.349 . S
C642 H636 0.950 . S
C642 C643 1.327 . S
C643 H637 0.950 . S
C643 C642 1.327 . S
C643 C647 1.429 . S
C644 C627 1.574 . S
C644 H638 0.949 . S
C644 C648 1.368 . S
C645 C626 1.429 . S
C645 C639 1.429 . S
C645 C646 1.523 . S
C646 C627 1.368 . S
C646 C640 1.368 . S
C646 C645 1.523 . S
C647 C631 1.429 1_556 S
C647 C643 1.429 . S
C647 C648 1.523 1_556 S
C648 C632 1.368 . S
C648 C644 1.368 . S
C648 C647 1.523 1_554 S
H649 C624 0.950 . S
H650 C626 0.950 . S
H651 C627 0.949 . S
H652 C629 0.950 . S
H653 C631 0.950 . S
C654 C655 1.349 . S
C654 C656 1.327 . S
C654 H679 0.950 . S
C655 C654 1.349 . S
C655 C671 1.349 . S
C656 C654 1.327 . S
C656 C675 1.429 . S
C656 H680 0.950 . S
C657 C674 1.574 . S
C657 C676 1.368 . S
C657 H681 0.949 . S
H658 C662 0.949 . S
C659 C660 1.349 . S
C659 C661 1.327 . S
C659 H682 0.950 . S
C660 C659 1.349 . S
C660 C672 1.349 . S
C661 C659 1.327 . S
C661 C677 1.429 . S
C661 H683 0.950 . S
C662 H658 0.949 . S
C662 C670 1.574 . S
C662 C678 1.368 . S
H663 C671 0.950 . S
H664 C669 0.950 . S
H665 C670 0.949 . S
H666 C672 0.950 . S
H667 C673 0.950 . S
H668 C674 0.949 . S
C669 H664 0.950 . S
C669 C671 1.327 . S
C669 C675 1.429 . S
C670 C662 1.574 . S
C670 H665 0.949 . S
C670 C676 1.368 . S
C671 C655 1.349 . S
C671 H663 0.950 . S
C671 C669 1.327 . S
C672 C660 1.349 . S
C672 H666 0.950 . S
C672 C673 1.327 . S
C673 H667 0.950 . S
C673 C672 1.327 . S
C673 C677 1.429 . S
C674 C657 1.574 . S
C674 H668 0.949 . S
C674 C678 1.368 . S
C675 C656 1.429 . S
C675 C669 1.429 . S
C675 C676 1.523 . S
C676 C657 1.368 . S
C676 C670 1.368 . S
C676 C675 1.523 . S
C677 C661 1.429 . S
C677 C673 1.429 . S
C677 C678 1.523 . S
C678 C662 1.368 . S
C678 C674 1.368 . S
C678 C677 1.523 . S
H679 C654 0.950 . S
H680 C656 0.950 . S
H681 C657 0.949 . S
H682 C659 0.950 . S
H683 C661 0.950 . S
C684 C685 1.349 . S
C684 C686 1.327 . S
C684 H709 0.950 . S
C685 C684 1.349 . S
C685 C701 1.349 . S
C686 C684 1.327 . S
C686 C705 1.429 . S
C686 H710 0.950 1_554 S
C687 C704 1.574 . S
C687 C706 1.368 . S
C687 H711 0.949 . S
H688 C692 0.949 . S
C689 C690 1.349 . S
C689 C691 1.327 . S
C689 H712 0.950 . S
C690 C689 1.349 . S
C690 C702 1.349 . S
C691 C689 1.327 . S
C691 C707 1.429 . S
C691 H713 0.950 . S
C692 H688 0.949 . S
C692 C700 1.574 . S
C692 C708 1.368 . S
H693 C701 0.950 . S
H694 C699 0.950 . S
H695 C700 0.949 . S
H696 C702 0.950 . S
H697 C703 0.950 . S
H698 C704 0.949 . S
C699 H694 0.950 . S
C699 C701 1.327 . S
C699 C705 1.429 . S
C700 C692 1.574 . S
C700 H695 0.949 . S
C700 C706 1.368 . S
C701 C685 1.349 . S
C701 H693 0.950 . S
C701 C699 1.327 . S
C702 C690 1.349 . S
C702 H696 0.950 . S
C702 C703 1.327 . S
C703 H697 0.950 . S
C703 C702 1.327 . S
C703 C707 1.429 . S
C704 C687 1.574 . S
C704 H698 0.949 . S
C704 C708 1.368 . S
C705 C686 1.429 . S
C705 C699 1.429 . S
C705 C706 1.523 1_554 S
C706 C687 1.368 . S
C706 C700 1.368 . S
C706 C705 1.523 1_556 S
C707 C691 1.429 . S
C707 C703 1.429 . S
C707 C708 1.523 . S
C708 C692 1.368 . S
C708 C704 1.368 . S
C708 C707 1.523 . S
H709 C684 0.950 . S
H710 C686 0.950 1_556 S
H711 C687 0.949 . S
H712 C689 0.950 . S
H713 C691 0.950 . S
C714 C715 1.349 . S
C714 C716 1.327 . S
C714 H739 0.950 . S
C715 C714 1.349 . S
C715 C731 1.349 . S
C716 C714 1.327 . S
C716 C735 1.429 . S
C716 H740 0.950 . S
C717 C734 1.574 . S
C717 C736 1.368 . S
C717 H741 0.949 . S
H718 C722 0.949 . S
C719 C720 1.349 . S
C719 C721 1.327 . S
C719 H742 0.950 . S
C720 C719 1.349 . S
C720 C732 1.349 . S
C721 C719 1.327 . S
C721 C737 1.429 . S
C721 H743 0.950 . S
C722 H718 0.949 . S
C722 C730 1.574 . S
C722 C738 1.368 . S
H723 C731 0.950 . S
H724 C729 0.950 . S
H725 C730 0.949 . S
H726 C732 0.950 . S
H727 C733 0.950 . S
H728 C734 0.949 . S
C729 H724 0.950 . S
C729 C731 1.327 . S
C729 C735 1.429 . S
C730 C722 1.574 . S
C730 H725 0.949 . S
C730 C736 1.368 . S
C731 C715 1.349 . S
C731 H723 0.950 . S
C731 C729 1.327 . S
C732 C720 1.349 . S
C732 H726 0.950 . S
C732 C733 1.327 . S
C733 H727 0.950 . S
C733 C732 1.327 . S
C733 C737 1.429 . S
C734 C717 1.574 . S
C734 H728 0.949 . S
C734 C738 1.368 . S
C735 C716 1.429 . S
C735 C729 1.429 . S
C735 C736 1.523 . S
C736 C717 1.368 . S
C736 C730 1.368 . S
C736 C735 1.523 . S
C737 C721 1.429 . S
C737 C733 1.429 . S
C737 C738 1.523 . S
C738 C722 1.368 . S
C738 C734 1.368 . S
C738 C737 1.523 . S
H739 C714 0.950 . S
H740 C716 0.950 . S
H741 C717 0.949 . S
H742 C719 0.950 . S
H743 C721 0.950 . S
C744 C745 1.349 . S
C744 C746 1.327 . S
C744 H769 0.950 . S
C745 C744 1.349 . S
C745 C761 1.349 . S
C746 C744 1.327 . S
C746 C765 1.429 . S
C746 H770 0.950 . S
C747 C764 1.574 . S
C747 C766 1.368 . S
C747 H771 0.949 . S
H748 C752 0.949 . S
C749 C750 1.349 . S
C749 C751 1.327 . S
C749 H772 0.950 . S
C750 C749 1.349 . S
C750 C762 1.349 . S
C751 C749 1.327 . S
C751 C767 1.429 . S
C751 H773 0.950 . S
C752 H748 0.949 . S
C752 C760 1.574 . S
C752 C768 1.368 . S
H753 C761 0.950 . S
H754 C759 0.950 . S
H755 C760 0.949 . S
H756 C762 0.950 . S
H757 C763 0.950 . S
H758 C764 0.949 . S
C759 H754 0.950 . S
C759 C761 1.327 . S
C759 C765 1.429 . S
C760 C752 1.574 . S
C760 H755 0.949 . S
C760 C766 1.368 . S
C761 C745 1.349 . S
C761 H753 0.950 . S
C761 C759 1.327 . S
C762 C750 1.349 . S
C762 H756 0.950 . S
C762 C763 1.327 . S
C763 H757 0.950 . S
C763 C762 1.327 . S
C763 C767 1.429 . S
C764 C747 1.574 . S
C764 H758 0.949 . S
C764 C768 1.368 . S
C765 C746 1.429 . S
C765 C759 1.429 . S
C765 C766 1.523 1_556 S
C766 C747 1.368 . S
C766 C760 1.368 . S
C766 C765 1.523 1_554 S
C767 C751 1.429 . S
C767 C763 1.429 . S
C767 C768 1.523 . S
C768 C752 1.368 . S
C768 C764 1.368 . S
C768 C767 1.523 . S
H769 C744 0.950 . S
H770 C746 0.950 . S
H771 C747 0.949 . S
H772 C749 0.950 . S
H773 C751 0.950 . S
C774 C775 1.349 . S
C774 C776 1.327 . S
C774 H799 0.950 . S
C775 C774 1.349 . S
C775 C791 1.349 . S
C776 C774 1.327 . S
C776 C795 1.429 . S
C776 H800 0.950 . S
C777 C794 1.574 . S
C777 C796 1.368 . S
C777 H801 0.949 . S
H778 C782 0.949 . S
C779 C780 1.349 . S
C779 C781 1.327 . S
C779 H802 0.950 . S
C780 C779 1.349 . S
C780 C792 1.349 . S
C781 C779 1.327 . S
C781 C797 1.429 . S
C781 H803 0.950 . S
C782 H778 0.949 . S
C782 C790 1.574 . S
C782 C798 1.368 . S
H783 C791 0.950 . S
H784 C789 0.950 . S
H785 C790 0.949 . S
H786 C792 0.950 . S
H787 C793 0.950 . S
H788 C794 0.949 . S
C789 H784 0.950 . S
C789 C791 1.327 . S
C789 C795 1.429 . S
C790 C782 1.574 . S
C790 H785 0.949 . S
C790 C796 1.368 . S
C791 C775 1.349 . S
C791 H783 0.950 . S
C791 C789 1.327 . S
C792 C780 1.349 . S
C792 H786 0.950 . S
C792 C793 1.327 . S
C793 H787 0.950 . S
C793 C792 1.327 . S
C793 C797 1.429 . S
C794 C777 1.574 . S
C794 H788 0.949 . S
C794 C798 1.368 . S
C795 C776 1.429 . S
C795 C789 1.429 . S
C795 C796 1.523 . S
C796 C777 1.368 . S
C796 C790 1.368 . S
C796 C795 1.523 . S
C797 C781 1.429 . S
C797 C793 1.429 . S
C797 C798 1.523 . S
C798 C782 1.368 . S
C798 C794 1.368 . S
C798 C797 1.523 . S
H799 C774 0.950 . S
H800 C776 0.950 . S
H801 C777 0.949 . S
H802 C779 0.950 . S
H803 C781 0.950 . S
C804 C805 1.349 . S
C804 C806 1.327 . S
C804 H829 0.950 . S
C805 C804 1.349 . S
C805 C821 1.349 . S
C806 C804 1.327 . S
C806 C825 1.429 . S
C806 H830 0.950 . S
C807 C824 1.574 . S
C807 C826 1.368 . S
C807 H831 0.949 . S
H808 C812 0.949 . S
C809 C810 1.349 . S
C809 C811 1.327 . S
C809 H832 0.950 . S
C810 C809 1.349 . S
C810 C822 1.349 . S
C811 C809 1.327 . S
C811 C827 1.429 . S
C811 H833 0.950 . S
C812 H808 0.949 . S
C812 C820 1.574 . S
C812 C828 1.368 . S
H813 C821 0.950 . S
H814 C819 0.950 . S
H815 C820 0.949 . S
H816 C822 0.950 . S
H817 C823 0.950 . S
H818 C824 0.949 1_554 S
C819 H814 0.950 . S
C819 C821 1.327 . S
C819 C825 1.429 . S
C820 C812 1.574 . S
C820 H815 0.949 . S
C820 C826 1.368 . S
C821 C805 1.349 . S
C821 H813 0.950 . S
C821 C819 1.327 . S
C822 C810 1.349 . S
C822 H816 0.950 . S
C822 C823 1.327 1_554 S
C823 H817 0.950 . S
C823 C822 1.327 1_556 S
C823 C827 1.429 1_556 S
C824 C807 1.574 . S
C824 H818 0.949 1_556 S
C824 C828 1.368 . S
C825 C806 1.429 . S
C825 C819 1.429 . S
C825 C826 1.523 . S
C826 C807 1.368 . S
C826 C820 1.368 . S
C826 C825 1.523 . S
C827 C811 1.429 . S
C827 C823 1.429 1_554 S
C827 C828 1.523 1_554 S
C828 C812 1.368 . S
C828 C824 1.368 . S
C828 C827 1.523 1_556 S
H829 C804 0.950 . S
H830 C806 0.950 . S
H831 C807 0.949 . S
H832 C809 0.950 . S
H833 C811 0.950 . S
C834 C835 1.349 . S
C834 C836 1.327 . S
C834 H859 0.950 . S
C835 C834 1.349 . S
C835 C851 1.349 . S
C836 C834 1.327 . S
C836 C855 1.429 . S
C836 H860 0.950 . S
C837 C854 1.574 . S
C837 C856 1.368 . S
C837 H861 0.949 . S
H838 C842 0.949 . S
C839 C840 1.349 . S
C839 C841 1.327 . S
C839 H862 0.950 . S
C840 C839 1.349 . S
C840 C852 1.349 . S
C841 C839 1.327 . S
C841 C857 1.429 . S
C841 H863 0.950 . S
C842 H838 0.949 . S
C842 C850 1.574 . S
C842 C858 1.368 . S
H843 C851 0.950 . S
H844 C849 0.950 . S
H845 C850 0.949 . S
H846 C852 0.950 . S
H847 C853 0.950 . S
H848 C854 0.949 . S
C849 H844 0.950 . S
C849 C851 1.327 . S
C849 C855 1.429 . S
C850 C842 1.574 . S
C850 H845 0.949 . S
C850 C856 1.368 . S
C851 C835 1.349 . S
C851 H843 0.950 . S
C851 C849 1.327 . S
C852 C840 1.349 . S
C852 H846 0.950 . S
C852 C853 1.327 . S
C853 H847 0.950 . S
C853 C852 1.327 . S
C853 C857 1.429 . S
C854 C837 1.574 . S
C854 H848 0.949 . S
C854 C858 1.368 . S
C855 C836 1.429 . S
C855 C849 1.429 . S
C855 C856 1.523 . S
C856 C837 1.368 . S
C856 C850 1.368 . S
C856 C855 1.523 . S
C857 C841 1.429 . S
C857 C853 1.429 . S
C857 C858 1.523 . S
C858 C842 1.368 . S
C858 C854 1.368 . S
C858 C857 1.523 . S
H859 C834 0.950 . S
H860 C836 0.950 . S
H861 C837 0.949 . S
H862 C839 0.950 . S
H863 C841 0.950 . S
C265 C17 1.463 . S
C270 C116 1.463 . S
C295 C50 1.463 . S
C300 C83 1.463 . S
C325 C248 1.463 . S
C330 C149 1.463 . S
C355 C182 1.463 . S
C360 C215 1.463 . S
C385 N71 1.109 . S
C390 N5 1.109 . S
C415 N104 1.109 . S
C420 N38 1.109 . S
C445 C61 1.426 . S
C450 C127 1.426 . S
C475 C28 1.426 . S
C480 C94 1.426 . S
C505 N203 1.109 . S
C510 N137 1.109 . S
C535 N170 1.109 . S
C540 N236 1.109 . S
C565 C193 1.426 . S
C570 C259 1.426 . S
C595 C226 1.426 . S
C600 C160 1.426 . S
C625 C8 1.276 . S
C630 N179 1.274 . S
C655 C41 1.276 . S
C660 N146 1.274 . S
C685 N245 1.274 . S
C690 C74 1.276 . S
C715 C107 1.276 . S
C720 N212 1.274 . S
C745 N47 1.274 . S
C750 C140 1.276 . S
C775 C173 1.276 . S
C780 N14 1.274 . S
C805 C206 1.276 . S
C810 N113 1.274 . S
C835 C239 1.276 . S
C840 N80 1.274 . S
