# Generated by pormake.
# Topology upc, (4)-cn, num edge types: 1
# Building blocks:
#     Node 0, Type 0, BuildingBlock: ICAMEG_clean_sbu_1, # of connection points: 4
#     Node 1, Type 0, BuildingBlock: ICAMEG_clean_sbu_1, # of connection points: 4
#     Node 2, Type 0, BuildingBlock: ICAMEG_clean_sbu_1, # of connection points: 4
#     Node 3, Type 0, BuildingBlock: ICAMEG_clean_sbu_1, # of connection points: 4
#     Node 4, Type 0, BuildingBlock: ICAMEG_clean_sbu_1, # of connection points: 4
#     Node 5, Type 0, BuildingBlock: ICAMEG_clean_sbu_1, # of connection points: 4
#     Node 6, Type 0, BuildingBlock: ICAMEG_clean_sbu_1, # of connection points: 4
#     Node 7, Type 0, BuildingBlock: ICAMEG_clean_sbu_1, # of connection points: 4
#     Node 8, Type 0, BuildingBlock: ICAMEG_clean_sbu_1, # of connection points: 4
#     Node 9, Type 0, BuildingBlock: ICAMEG_clean_sbu_1, # of connection points: 4
#     Node 10, Type 0, BuildingBlock: ICAMEG_clean_sbu_1, # of connection points: 4
#     Node 11, Type 0, BuildingBlock: ICAMEG_clean_sbu_1, # of connection points: 4
#     Node 12, Type 0, BuildingBlock: ICAMEG_clean_sbu_1, # of connection points: 4
#     Node 13, Type 0, BuildingBlock: ICAMEG_clean_sbu_1, # of connection points: 4
#     Node 14, Type 0, BuildingBlock: ICAMEG_clean_sbu_1, # of connection points: 4
#     Node 15, Type 0, BuildingBlock: ICAMEG_clean_sbu_1, # of connection points: 4
#     Edge 16, Type (0, 0), BuildingBlock: TEMPAE_clean_linker_10, # of connection points: 2
#     Edge 17, Type (0, 0), BuildingBlock: TEMPAE_clean_linker_10, # of connection points: 2
#     Edge 18, Type (0, 0), BuildingBlock: TEMPAE_clean_linker_10, # of connection points: 2
#     Edge 19, Type (0, 0), BuildingBlock: TEMPAE_clean_linker_10, # of connection points: 2
#     Edge 20, Type (0, 0), BuildingBlock: TEMPAE_clean_linker_10, # of connection points: 2
#     Edge 21, Type (0, 0), BuildingBlock: TEMPAE_clean_linker_10, # of connection points: 2
#     Edge 22, Type (0, 0), BuildingBlock: TEMPAE_clean_linker_10, # of connection points: 2
#     Edge 23, Type (0, 0), BuildingBlock: TEMPAE_clean_linker_10, # of connection points: 2
#     Edge 24, Type (0, 0), BuildingBlock: TEMPAE_clean_linker_10, # of connection points: 2
#     Edge 25, Type (0, 0), BuildingBlock: TEMPAE_clean_linker_10, # of connection points: 2
#     Edge 26, Type (0, 0), BuildingBlock: TEMPAE_clean_linker_10, # of connection points: 2
#     Edge 27, Type (0, 0), BuildingBlock: TEMPAE_clean_linker_10, # of connection points: 2
#     Edge 28, Type (0, 0), BuildingBlock: TEMPAE_clean_linker_10, # of connection points: 2
#     Edge 29, Type (0, 0), BuildingBlock: TEMPAE_clean_linker_10, # of connection points: 2
#     Edge 30, Type (0, 0), BuildingBlock: TEMPAE_clean_linker_10, # of connection points: 2
#     Edge 31, Type (0, 0), BuildingBlock: TEMPAE_clean_linker_10, # of connection points: 2
#     Edge 32, Type (0, 0), BuildingBlock: TEMPAE_clean_linker_10, # of connection points: 2
#     Edge 33, Type (0, 0), BuildingBlock: TEMPAE_clean_linker_10, # of connection points: 2
#     Edge 34, Type (0, 0), BuildingBlock: TEMPAE_clean_linker_10, # of connection points: 2
#     Edge 35, Type (0, 0), BuildingBlock: TEMPAE_clean_linker_10, # of connection points: 2
#     Edge 36, Type (0, 0), BuildingBlock: TEMPAE_clean_linker_10, # of connection points: 2
#     Edge 37, Type (0, 0), BuildingBlock: TEMPAE_clean_linker_10, # of connection points: 2
#     Edge 38, Type (0, 0), BuildingBlock: TEMPAE_clean_linker_10, # of connection points: 2
#     Edge 39, Type (0, 0), BuildingBlock: TEMPAE_clean_linker_10, # of connection points: 2
#     Edge 40, Type (0, 0), BuildingBlock: TEMPAE_clean_linker_10, # of connection points: 2
#     Edge 41, Type (0, 0), BuildingBlock: TEMPAE_clean_linker_10, # of connection points: 2
#     Edge 42, Type (0, 0), BuildingBlock: TEMPAE_clean_linker_10, # of connection points: 2
#     Edge 43, Type (0, 0), BuildingBlock: TEMPAE_clean_linker_10, # of connection points: 2
#     Edge 44, Type (0, 0), BuildingBlock: TEMPAE_clean_linker_10, # of connection points: 2
#     Edge 45, Type (0, 0), BuildingBlock: TEMPAE_clean_linker_10, # of connection points: 2
#     Edge 46, Type (0, 0), BuildingBlock: TEMPAE_clean_linker_10, # of connection points: 2
#     Edge 47, Type (0, 0), BuildingBlock: TEMPAE_clean_linker_10, # of connection points: 2
# Relax obj value: 0.215
# Max RMSD: 0.209
# Mean RMSD: 0.209
data_MOF--net-upc--node1-ICAMEG_clean_sbu_1--edge1-TEMPAE_clean_linker_10
_symmetry_space_group_name_H-M    P1
_symmetry_Int_Tables_number       1
_symmetry_cell_setting            triclinic
loop_
_symmetry_equiv_pos_as_xyz
'x, y, z'
_cell_length_a     35.772664
_cell_length_b     35.771357
_cell_length_c     47.621985
_cell_angle_alpha  90.013272
_cell_angle_beta   89.986983
_cell_angle_gamma 90.010063
loop_
_atom_site_label
_atom_site_type_symbol
_atom_site_fract_x
_atom_site_fract_y
_atom_site_fract_z
_atom_type_partial_charge
Co0 Co 0.14301 0.59229 0.14907 0.0
Co1 Co 0.07573 0.64231 0.11286 0.0
O2 O 0.09627 0.59595 0.12816 0.0
C3 C 0.08539 0.56211 0.18578 0.0
O4 O 0.06562 0.59126 0.17818 0.0
C5 C 0.07744 0.58663 0.06677 0.0
O6 O 0.11125 0.578 0.07523 0.0
O7 O 0.12475 0.65543 0.09528 0.0
O8 O 0.16788 0.62778 0.12267 0.0
H9 H 0.07554 0.77961 0.09086 0.0
H10 H 0.10575 0.5221 0.13121 0.0
O11 O 0.11835 0.55746 0.17632 0.0
H12 H 0.22944 0.52042 0.08549 0.0
H13 H 0.24193 0.52437 0.20429 0.0
H14 H 0.20046 0.64658 0.16792 0.0
H15 H 0.21107 0.57305 0.116 0.0
H16 H 0.18404 0.52953 0.17637 0.0
O17 O 0.06011 0.61397 0.07802 0.0
H18 H 0.10056 0.72127 0.11109 0.0
H19 H 0.00695 0.66082 0.0803 0.0
H20 H 0.25867 0.64266 0.19551 0.0
H21 H 0.12326 0.46856 0.10131 0.0
H22 H 0.2797 0.58122 0.21397 0.0
H23 H 0.18541 0.46763 0.07807 0.0
O24 O 0.12871 0.63482 0.17335 0.0
H25 H 0.96876 0.55713 0.13749 0.0
H26 H 0.02065 0.68409 0.14791 0.0
H27 H 0.961 0.66829 0.17099 0.0
H28 H 0.93464 0.60441 0.16581 0.0
H29 H 0.02857 0.57391 0.11514 0.0
H30 H 0.981 0.71847 0.05958 0.0
H31 H 0.01533 0.77843 0.06489 0.0
O32 O 0.09002 0.67099 0.14798 0.0
C33 C 0.15861 0.64984 0.10275 0.0
C34 C 0.06025 0.75369 0.08849 0.0
C35 C 0.00722 0.71935 0.0709 0.0
N36 N 0.05508 0.68777 0.09706 0.0
C37 C 0.07422 0.7206 0.09997 0.0
C38 C 0.02208 0.68679 0.08263 0.0
C39 C 0.02649 0.75299 0.0739 0.0
C40 C 0.13304 0.52164 0.12148 0.0
N41 N 0.15743 0.55057 0.12544 0.0
C42 C 0.14273 0.49135 0.10445 0.0
C43 C 0.17758 0.49088 0.09137 0.0
C44 C 0.20227 0.52052 0.0955 0.0
C45 C 0.19166 0.55031 0.1127 0.0
C46 C 0.23312 0.55128 0.19629 0.0
C47 C 0.20965 0.61968 0.17561 0.0
C48 C 0.20037 0.55437 0.18048 0.0
N49 N 0.18915 0.58824 0.17025 0.0
C50 C 0.24255 0.61766 0.19133 0.0
C51 C 0.25431 0.58319 0.20171 0.0
C52 C 0.10927 0.66433 0.17013 0.0
C53 C 0.97988 0.5851 0.13981 0.0
C54 C 0.00946 0.6562 0.14564 0.0
C55 C 0.9756 0.64744 0.15869 0.0
C56 C 0.9608 0.61161 0.15575 0.0
N57 N 0.02806 0.63003 0.13007 0.0
C58 C 0.01367 0.59485 0.12706 0.0
Co59 Co 0.91186 0.13896 0.14668 0.0
Co60 Co 0.85992 0.07192 0.11183 0.0
O61 O 0.90713 0.09235 0.1257 0.0
C62 C 0.94507 0.08143 0.18194 0.0
O63 O 0.91575 0.06131 0.17527 0.0
C64 C 0.91313 0.07338 0.06418 0.0
O65 O 0.9219 0.10736 0.07218 0.0
O66 O 0.84611 0.12094 0.09455 0.0
O67 O 0.87439 0.16376 0.12183 0.0
H68 H 0.72157 0.07217 0.09392 0.0
H69 H 0.98111 0.1026 0.12597 0.0
O70 O 0.94872 0.11448 0.17241 0.0
H71 H 0.97835 0.22655 0.08073 0.0
H72 H 0.98269 0.23837 0.19932 0.0
H73 H 0.85842 0.19555 0.16811 0.0
H74 H 0.92811 0.20746 0.11319 0.0
H75 H 0.97608 0.1805 0.17152 0.0
O76 O 0.88642 0.05604 0.07626 0.0
H77 H 0.78104 0.09705 0.11234 0.0
H78 H 0.83944 0.00309 0.07996 0.0
H79 H 0.86375 0.25372 0.19564 0.0
H80 H 0.03232 0.12085 0.09408 0.0
H81 H 0.92624 0.27545 0.21148 0.0
H82 H 0.03099 0.18314 0.07108 0.0
O83 O 0.87124 0.12394 0.1725 0.0
H84 H 0.94575 0.96459 0.13412 0.0
H85 H 0.81977 0.01727 0.14831 0.0
H86 H 0.83646 0.95763 0.17101 0.0
H87 H 0.89984 0.93088 0.16394 0.0
H88 H 0.92812 0.02439 0.11214 0.0
H89 H 0.78064 0.97727 0.06104 0.0
H90 H 0.72115 0.01185 0.06806 0.0
O91 O 0.83313 0.08642 0.14774 0.0
C92 C 0.85164 0.1547 0.10231 0.0
C93 C 0.74729 0.05677 0.09081 0.0
C94 C 0.78046 0.00354 0.07232 0.0
N95 N 0.81359 0.05139 0.09742 0.0
C96 C 0.78102 0.07067 0.10126 0.0
C97 C 0.81367 0.01833 0.08303 0.0
C98 C 0.74708 0.02295 0.07627 0.0
C99 C 0.98062 0.12994 0.11634 0.0
N100 N 0.95175 0.15398 0.12152 0.0
C101 C 0.00958 0.14005 0.09818 0.0
C102 C 0.00878 0.17498 0.08524 0.0
C103 C 0.97922 0.19933 0.09062 0.0
C104 C 0.95078 0.1883 0.10893 0.0
C105 C 0.95532 0.22926 0.19246 0.0
C106 C 0.88574 0.20504 0.17467 0.0
C107 C 0.95141 0.19652 0.17673 0.0
N108 N 0.91695 0.18495 0.1679 0.0
C109 C 0.88857 0.23791 0.19036 0.0
C110 C 0.92364 0.25006 0.19927 0.0
C111 C 0.84137 0.10487 0.16999 0.0
C112 C 0.918 0.97589 0.13726 0.0
C113 C 0.84745 0.00589 0.14519 0.0
C114 C 0.85671 0.97205 0.15804 0.0
C115 C 0.89225 0.95703 0.15404 0.0
N116 N 0.87286 0.02427 0.12877 0.0
C117 C 0.90776 0.00966 0.12472 0.0
Co118 Co 0.36386 0.90579 0.1466 0.0
Co119 Co 0.42937 0.85369 0.11029 0.0
O120 O 0.41 0.90082 0.1251 0.0
C121 C 0.42277 0.93681 0.18174 0.0
O122 O 0.44194 0.90702 0.17468 0.0
C123 C 0.42792 0.90823 0.06351 0.0
O124 O 0.39422 0.91727 0.07198 0.0
O125 O 0.37984 0.84124 0.09331 0.0
O126 O 0.33789 0.86948 0.12139 0.0
H127 H 0.42631 0.71594 0.09003 0.0
H128 H 0.40115 0.97502 0.1267 0.0
O129 O 0.38964 0.94145 0.17262 0.0
H130 H 0.27627 0.97592 0.08287 0.0
H131 H 0.26713 0.97699 0.20172 0.0
H132 H 0.30656 0.85288 0.16774 0.0
H133 H 0.29512 0.92427 0.11412 0.0
H134 H 0.32416 0.97008 0.17301 0.0
O135 O 0.44507 0.88095 0.07499 0.0
H136 H 0.40286 0.77526 0.10975 0.0
H137 H 0.49725 0.83298 0.07738 0.0
H138 H 0.24918 0.85853 0.19617 0.0
H139 H 0.38313 0.02765 0.09609 0.0
H140 H 0.22918 0.92095 0.21342 0.0
H141 H 0.32039 0.02817 0.07379 0.0
O142 O 0.37844 0.86413 0.17155 0.0
H143 H 0.53863 0.93703 0.13275 0.0
H144 H 0.484 0.8116 0.14549 0.0
H145 H 0.54438 0.8266 0.16776 0.0
H146 H 0.57212 0.8897 0.16141 0.0
H147 H 0.47806 0.92108 0.11122 0.0
H148 H 0.52164 0.77433 0.05716 0.0
H149 H 0.48613 0.71525 0.06352 0.0
O150 O 0.415 0.8261 0.14592 0.0
C151 C 0.3463 0.8471 0.10145 0.0
C152 C 0.44212 0.74147 0.08721 0.0
C153 C 0.49559 0.77426 0.06872 0.0
N154 N 0.44883 0.80745 0.09491 0.0
C155 C 0.42904 0.77511 0.0984 0.0
C156 C 0.48161 0.80739 0.08017 0.0
C157 C 0.47565 0.74112 0.07231 0.0
C158 C 0.37361 0.97532 0.11738 0.0
N159 N 0.34917 0.9467 0.12228 0.0
C160 C 0.36364 0.00509 0.09995 0.0
C161 C 0.32845 0.00533 0.0874 0.0
C162 C 0.3037 0.97599 0.09245 0.0
C163 C 0.3146 0.94674 0.11006 0.0
C164 C 0.27548 0.94967 0.19424 0.0
C165 C 0.29779 0.88019 0.1749 0.0
C166 C 0.30774 0.94559 0.17799 0.0
N167 N 0.31838 0.91118 0.1684 0.0
C168 C 0.26538 0.88319 0.1911 0.0
C169 C 0.2542 0.91821 0.20079 0.0
C170 C 0.39686 0.83397 0.16838 0.0
C171 C 0.5269 0.90939 0.13557 0.0
C172 C 0.49579 0.83916 0.14271 0.0
C173 C 0.53006 0.84746 0.15531 0.0
C174 C 0.54564 0.88285 0.15171 0.0
N175 N 0.47754 0.86535 0.12694 0.0
C176 C 0.49268 0.90011 0.12329 0.0
Co177 Co 0.59482 0.35884 0.14908 0.0
Co178 Co 0.64528 0.42527 0.11236 0.0
O179 O 0.59865 0.40498 0.12742 0.0
C180 C 0.56279 0.41715 0.18431 0.0
O181 O 0.59197 0.43708 0.17697 0.0
C182 C 0.59034 0.42282 0.06577 0.0
O183 O 0.58154 0.38913 0.07442 0.0
O184 O 0.65864 0.37588 0.09545 0.0
O185 O 0.63137 0.33353 0.12374 0.0
H186 H 0.78294 0.425 0.09166 0.0
H187 H 0.52482 0.39471 0.12933 0.0
O188 O 0.55886 0.38391 0.17524 0.0
H189 H 0.52591 0.26958 0.08586 0.0
H190 H 0.52627 0.26127 0.20526 0.0
H191 H 0.6491 0.30271 0.17001 0.0
H192 H 0.57733 0.28951 0.11695 0.0
H193 H 0.53163 0.31796 0.176 0.0
O194 O 0.61756 0.44025 0.07709 0.0
H195 H 0.72423 0.40039 0.11159 0.0
H196 H 0.6644 0.49342 0.07922 0.0
H197 H 0.64499 0.24569 0.19896 0.0
H198 H 0.47246 0.37565 0.09881 0.0
H199 H 0.58324 0.22472 0.21691 0.0
H200 H 0.47292 0.31277 0.07669 0.0
O201 O 0.63639 0.37444 0.17381 0.0
H202 H 0.55971 0.5327 0.135 0.0
H203 H 0.68648 0.48107 0.14715 0.0
H204 H 0.67031 0.54117 0.1694 0.0
H205 H 0.60653 0.5674 0.16335 0.0
H206 H 0.57686 0.47245 0.11349 0.0
H207 H 0.72243 0.51895 0.05878 0.0
H208 H 0.78226 0.48471 0.06503 0.0
O209 O 0.67336 0.41173 0.14791 0.0
C210 C 0.65342 0.34226 0.10367 0.0
C211 C 0.75708 0.44025 0.08888 0.0
C212 C 0.7231 0.49295 0.07039 0.0
N213 N 0.69102 0.44561 0.09676 0.0
C214 C 0.72377 0.42651 0.10019 0.0
C215 C 0.69032 0.47833 0.08196 0.0
C216 C 0.75666 0.47373 0.07391 0.0
C217 C 0.52496 0.36711 0.12009 0.0
N218 N 0.554 0.34319 0.125 0.0
C219 C 0.49534 0.35655 0.1027 0.0
C220 C 0.49565 0.32129 0.09026 0.0
C221 C 0.5254 0.29706 0.09536 0.0
C222 C 0.55451 0.30856 0.11289 0.0
C223 C 0.55332 0.27006 0.1975 0.0
C224 C 0.62207 0.29349 0.17743 0.0
C225 C 0.55652 0.30213 0.18093 0.0
N226 N 0.59058 0.31336 0.17103 0.0
C227 C 0.61994 0.26129 0.19394 0.0
C228 C 0.58529 0.24956 0.20402 0.0
C229 C 0.66608 0.39357 0.17046 0.0
C230 C 0.58764 0.52163 0.1377 0.0
C231 C 0.65863 0.4922 0.14451 0.0
C232 C 0.64967 0.52632 0.15709 0.0
C233 C 0.61389 0.54104 0.15366 0.0
N234 N 0.63272 0.47327 0.12892 0.0
C235 C 0.5976 0.4876 0.12542 0.0
Co236 Co 0.14129 0.9083 0.36328 0.0
Co237 Co 0.07435 0.8552 0.39666 0.0
O238 O 0.09442 0.90275 0.38362 0.0
C239 C 0.08448 0.942 0.32779 0.0
O240 O 0.06484 0.91195 0.33333 0.0
C241 C 0.07337 0.90553 0.44653 0.0
O242 O 0.10935 0.91094 0.44287 0.0
O243 O 0.12292 0.84235 0.4152 0.0
O244 O 0.16577 0.87024 0.38771 0.0
H245 H 0.07638 0.7169 0.41474 0.0
H246 H 0.10316 0.97526 0.38611 0.0
O247 O 0.11711 0.94595 0.33803 0.0
H248 H 0.2268 0.97278 0.43184 0.0
H249 H 0.24121 0.98145 0.31306 0.0
H250 H 0.19859 0.85592 0.34145 0.0
H251 H 0.20946 0.92453 0.39717 0.0
H252 H 0.18295 0.97358 0.34021 0.0
O253 O 0.05602 0.88178 0.43137 0.0
H254 H 0.10096 0.77679 0.39688 0.0
H255 H 0.00454 0.83348 0.42681 0.0
H256 H 0.25716 0.8625 0.31455 0.0
H257 H 0.11937 0.02415 0.42058 0.0
H258 H 0.27878 0.92564 0.30012 0.0
H259 H 0.18157 0.02304 0.44375 0.0
O260 O 0.12699 0.86832 0.33652 0.0
H261 H 0.96666 0.93887 0.3709 0.0
H262 H 0.02191 0.81353 0.3593 0.0
H263 H 0.96283 0.82871 0.33522 0.0
H264 H 0.93473 0.89174 0.34104 0.0
H265 H 0.02609 0.92278 0.39409 0.0
H266 H 0.979 0.77423 0.44515 0.0
H267 H 0.01496 0.71538 0.43907 0.0
O268 O 0.09103 0.8287 0.36126 0.0
C269 C 0.15672 0.84777 0.40741 0.0
C270 C 0.06038 0.74233 0.41743 0.0
C271 C 0.00576 0.77452 0.43454 0.0
N272 N 0.05406 0.8085 0.4106 0.0
C273 C 0.0741 0.7763 0.40729 0.0
C274 C 0.02039 0.80799 0.42416 0.0
C275 C 0.02594 0.74151 0.43111 0.0
C276 C 0.1304 0.97483 0.3959 0.0
N277 N 0.15543 0.94726 0.38951 0.0
C278 C 0.13937 0.00248 0.41549 0.0
C279 C 0.17425 0.0018 0.42851 0.0
C280 C 0.19964 0.9736 0.42185 0.0
C281 C 0.18966 0.94634 0.40223 0.0
C282 C 0.23215 0.95381 0.31931 0.0
C283 C 0.20803 0.88351 0.3355 0.0
C284 C 0.19919 0.94919 0.33466 0.0
N285 N 0.18767 0.91437 0.34269 0.0
C286 C 0.24113 0.88705 0.32017 0.0
C287 C 0.25322 0.92248 0.31205 0.0
C288 C 0.10897 0.83775 0.33898 0.0
C289 C 0.97851 0.91124 0.36833 0.0
C290 C 0.00997 0.84106 0.36185 0.0
C291 C 0.97644 0.84947 0.34822 0.0
C292 C 0.96066 0.88481 0.35152 0.0
N293 N 0.0273 0.8671 0.37835 0.0
C294 C 0.01202 0.90186 0.38161 0.0
Co295 Co 0.5945 0.14464 0.35774 0.0
Co296 Co 0.64479 0.08 0.39636 0.0
O297 O 0.5984 0.09911 0.3801 0.0
C298 C 0.56563 0.08466 0.32254 0.0
O299 O 0.59498 0.06572 0.33088 0.0
C300 C 0.58833 0.08326 0.4419 0.0
O301 O 0.57942 0.11655 0.43247 0.0
O302 O 0.6569 0.13011 0.4126 0.0
O303 O 0.62922 0.17143 0.38368 0.0
H304 H 0.7817 0.08291 0.41955 0.0
H305 H 0.52448 0.1075 0.37614 0.0
O306 O 0.56042 0.11801 0.33102 0.0
H307 H 0.52049 0.23362 0.41785 0.0
H308 H 0.5263 0.2392 0.29854 0.0
H309 H 0.64835 0.20162 0.33746 0.0
H310 H 0.57388 0.21423 0.38846 0.0
H311 H 0.53165 0.18329 0.32863 0.0
O312 O 0.61612 0.06583 0.43139 0.0
H313 H 0.72335 0.106 0.39807 0.0
H314 H 0.66369 0.01327 0.43115 0.0
H315 H 0.64423 0.2579 0.30771 0.0
H316 H 0.47018 0.12602 0.40489 0.0
H317 H 0.58287 0.27693 0.28792 0.0
H318 H 0.46809 0.1894 0.42613 0.0
O319 O 0.63751 0.12954 0.33428 0.0
H320 H 0.56138 0.97069 0.37421 0.0
H321 H 0.68788 0.02356 0.36349 0.0
H322 H 0.67324 0.9625 0.34214 0.0
H323 H 0.60959 0.93564 0.34748 0.0
H324 H 0.57701 0.0319 0.39484 0.0
H325 H 0.72135 0.98927 0.45313 0.0
H326 H 0.78091 0.02413 0.44731 0.0
O327 O 0.67382 0.09271 0.36104 0.0
C328 C 0.65092 0.1635 0.40415 0.0
C329 C 0.75595 0.0674 0.42215 0.0
C330 C 0.72206 0.01487 0.44104 0.0
N331 N 0.69026 0.06083 0.41316 0.0
C332 C 0.72286 0.08027 0.40997 0.0
C333 C 0.6895 0.02863 0.42859 0.0
C334 C 0.75548 0.03444 0.43775 0.0
C335 C 0.52352 0.1353 0.38499 0.0
N336 N 0.55222 0.15981 0.38053 0.0
C337 C 0.4928 0.14557 0.40137 0.0
C338 C 0.49168 0.18111 0.41333 0.0
C339 C 0.5211 0.20592 0.40872 0.0
C340 C 0.55132 0.19473 0.39216 0.0
C341 C 0.55317 0.23126 0.30711 0.0
C342 C 0.62147 0.21 0.32924 0.0
C343 C 0.55636 0.19964 0.32416 0.0
N344 N 0.5902 0.18949 0.33508 0.0
C345 C 0.61935 0.24179 0.31228 0.0
C346 C 0.58492 0.25243 0.30116 0.0
C347 C 0.66716 0.11059 0.33825 0.0
C348 C 0.58925 0.98203 0.37183 0.0
C349 C 0.66009 0.01216 0.36581 0.0
C350 C 0.65199 0.9775 0.35375 0.0
C351 C 0.61629 0.96242 0.35678 0.0
N352 N 0.6334 0.03128 0.38051 0.0
C353 C 0.59835 0.01662 0.38361 0.0
Co354 Co 0.36284 0.59245 0.36283 0.0
Co355 Co 0.42979 0.64546 0.39638 0.0
O356 O 0.40964 0.59799 0.38325 0.0
C357 C 0.42004 0.55931 0.32734 0.0
O358 O 0.43943 0.58947 0.33304 0.0
C359 C 0.42997 0.59491 0.44607 0.0
O360 O 0.3941 0.58938 0.44198 0.0
O361 O 0.38105 0.6586 0.4146 0.0
O362 O 0.33815 0.6302 0.38745 0.0
H363 H 0.42826 0.78381 0.41429 0.0
H364 H 0.40121 0.52543 0.38532 0.0
O365 O 0.38734 0.55511 0.33742 0.0
H366 H 0.27744 0.52699 0.43094 0.0
H367 H 0.26346 0.51933 0.31199 0.0
H368 H 0.30528 0.64476 0.34132 0.0
H369 H 0.29467 0.57563 0.39655 0.0
H370 H 0.3216 0.5272 0.33927 0.0
O371 O 0.44752 0.6189 0.43125 0.0
H372 H 0.4036 0.724 0.39631 0.0
H373 H 0.49931 0.66688 0.42699 0.0
H374 H 0.24683 0.63816 0.3143 0.0
H375 H 0.38511 0.47617 0.41951 0.0
H376 H 0.22561 0.57508 0.29939 0.0
H377 H 0.32285 0.47682 0.44261 0.0
O378 O 0.377 0.63272 0.33628 0.0
H379 H 0.53741 0.56114 0.37162 0.0
H380 H 0.48299 0.68672 0.35938 0.0
H381 H 0.54233 0.67114 0.33577 0.0
H382 H 0.57001 0.60799 0.34192 0.0
H383 H 0.47773 0.57761 0.3943 0.0
H384 H 0.52492 0.72604 0.44547 0.0
H385 H 0.48935 0.78506 0.43907 0.0
O386 O 0.41369 0.67192 0.36081 0.0
C387 C 0.34723 0.65288 0.40701 0.0
C388 C 0.44408 0.7583 0.41712 0.0
C389 C 0.4983 0.72586 0.43466 0.0
N390 N 0.45015 0.69208 0.4104 0.0
C391 C 0.43032 0.72438 0.40691 0.0
C392 C 0.48364 0.69245 0.42421 0.0
C393 C 0.47834 0.75897 0.43105 0.0
C394 C 0.37393 0.52566 0.39509 0.0
N395 N 0.34881 0.55319 0.38883 0.0
C396 C 0.36503 0.49779 0.41451 0.0
C397 C 0.33011 0.49821 0.4275 0.0
C398 C 0.30463 0.52637 0.42097 0.0
C399 C 0.31455 0.55385 0.40151 0.0
C400 C 0.27235 0.54695 0.31844 0.0
C401 C 0.29602 0.61718 0.33516 0.0
C402 C 0.30524 0.55157 0.33386 0.0
N403 N 0.31655 0.58635 0.34215 0.0
C404 C 0.26298 0.61364 0.31977 0.0
C405 C 0.25112 0.57824 0.31138 0.0
C406 C 0.39541 0.66307 0.33864 0.0
C407 C 0.52574 0.58882 0.3689 0.0
C408 C 0.49473 0.65912 0.36204 0.0
C409 C 0.52842 0.6505 0.3487 0.0
C410 C 0.54396 0.61508 0.35218 0.0
N411 N 0.47701 0.63323 0.37843 0.0
C412 C 0.49206 0.59841 0.38187 0.0
Co413 Co 0.90656 0.36969 0.36663 0.0
Co414 Co 0.85244 0.43727 0.39832 0.0
O415 O 0.90033 0.41701 0.38623 0.0
C416 C 0.94109 0.42581 0.33091 0.0
O417 O 0.91079 0.44542 0.33567 0.0
C418 C 0.90139 0.43921 0.4489 0.0
O419 O 0.90668 0.40313 0.44576 0.0
O420 O 0.83903 0.38907 0.41722 0.0
O421 O 0.86791 0.34571 0.3908 0.0
H422 H 0.71367 0.43554 0.41432 0.0
H423 H 0.97277 0.40865 0.38992 0.0
O424 O 0.94482 0.39342 0.34162 0.0
H425 H 0.96942 0.28615 0.43734 0.0
H426 H 0.98134 0.2687 0.31904 0.0
H427 H 0.85495 0.31154 0.345 0.0
H428 H 0.92207 0.30244 0.40171 0.0
H429 H 0.97255 0.32776 0.34505 0.0
O430 O 0.87812 0.45635 0.43319 0.0
H431 H 0.77402 0.41065 0.39763 0.0
H432 H 0.82992 0.50765 0.42735 0.0
H433 H 0.86244 0.25218 0.31925 0.0
H434 H 0.02074 0.39348 0.42535 0.0
H435 H 0.92602 0.23044 0.30605 0.0
H436 H 0.01919 0.33186 0.44936 0.0
O437 O 0.8672 0.38316 0.33912 0.0
H438 H 0.93673 0.54449 0.37249 0.0
H439 H 0.81175 0.48886 0.35974 0.0
H440 H 0.82753 0.54745 0.33519 0.0
H441 H 0.89037 0.57574 0.34159 0.0
H442 H 0.92008 0.48552 0.39613 0.0
H443 H 0.77019 0.53352 0.44453 0.0
H444 H 0.71151 0.49742 0.43796 0.0
O445 O 0.82692 0.41974 0.36274 0.0
C446 C 0.84473 0.35512 0.40993 0.0
C447 C 0.73902 0.4516 0.41722 0.0
C448 C 0.77076 0.50656 0.43422 0.0
N449 N 0.80537 0.45782 0.41132 0.0
C450 C 0.77325 0.4377 0.40774 0.0
C451 C 0.8045 0.49174 0.4245 0.0
C452 C 0.73784 0.4863 0.43051 0.0
C453 C 0.97215 0.38164 0.40008 0.0
N454 N 0.94485 0.35636 0.39363 0.0
C455 C 0.99929 0.37327 0.4202 0.0
C456 C 0.99836 0.33872 0.4337 0.0
C457 C 0.97043 0.31306 0.42698 0.0
C458 C 0.94369 0.32245 0.40681 0.0
C459 C 0.95351 0.27783 0.32475 0.0
C460 C 0.88272 0.30208 0.33957 0.0
C461 C 0.94837 0.31124 0.33944 0.0
N462 N 0.91332 0.32283 0.34681 0.0
C463 C 0.88678 0.26852 0.32489 0.0
C464 C 0.92246 0.25636 0.31747 0.0
C465 C 0.83652 0.40114 0.34089 0.0
C466 C 0.90918 0.53256 0.36967 0.0
C467 C 0.8392 0.50089 0.36255 0.0
C468 C 0.84794 0.53414 0.34866 0.0
C469 C 0.88319 0.55003 0.35228 0.0
N470 N 0.86481 0.48393 0.37963 0.0
C471 C 0.89947 0.49931 0.3832 0.0
Co472 Co 0.86396 0.40792 0.86384 0.0
Co473 Co 0.93016 0.35381 0.89702 0.0
O474 O 0.91054 0.4017 0.8844 0.0
C475 C 0.92147 0.44239 0.8293 0.0
O476 O 0.94078 0.41198 0.83435 0.0
C477 C 0.931 0.40331 0.94734 0.0
O478 O 0.89506 0.40885 0.9436 0.0
O479 O 0.88133 0.34097 0.9152 0.0
O480 O 0.83897 0.36925 0.88753 0.0
H481 H 0.92703 0.21521 0.91363 0.0
H482 H 0.90203 0.47415 0.88794 0.0
O483 O 0.88871 0.44618 0.83935 0.0
H484 H 0.77778 0.47085 0.93275 0.0
H485 H 0.76502 0.48278 0.81402 0.0
H486 H 0.80677 0.35634 0.84078 0.0
H487 H 0.79541 0.42348 0.89747 0.0
H488 H 0.82289 0.47396 0.84146 0.0
O489 O 0.94838 0.37969 0.93207 0.0
H490 H 0.90302 0.27558 0.8963 0.0
H491 H 0.99952 0.33109 0.92729 0.0
H492 H 0.7486 0.36387 0.81356 0.0
H493 H 0.88554 0.52214 0.92304 0.0
H494 H 0.72741 0.42747 0.79995 0.0
H495 H 0.82303 0.52061 0.94574 0.0
O496 O 0.87847 0.36856 0.83664 0.0
H497 H 0.03876 0.43711 0.87268 0.0
H498 H 0.98261 0.31244 0.85949 0.0
H499 H 0.04207 0.32757 0.83591 0.0
H500 H 0.07064 0.39026 0.84254 0.0
H501 H 0.97892 0.42111 0.89532 0.0
H502 H 0.0245 0.27134 0.94512 0.0
H503 H 0.98822 0.21284 0.93823 0.0
O504 O 0.91355 0.32807 0.86128 0.0
C505 C 0.84767 0.34645 0.90712 0.0
C506 C 0.94317 0.24048 0.91667 0.0
C507 C 0.99785 0.27201 0.93439 0.0
N508 N 0.95 0.30674 0.91058 0.0
C509 C 0.92977 0.27472 0.90683 0.0
C510 C 0.98353 0.30576 0.9243 0.0
C511 C 0.97748 0.23918 0.9305 0.0
C512 C 0.87465 0.47354 0.89753 0.0
N513 N 0.84962 0.44623 0.89054 0.0
C514 C 0.86552 0.50069 0.91747 0.0
C515 C 0.83047 0.49977 0.93023 0.0
C516 C 0.80507 0.47185 0.92296 0.0
C517 C 0.81522 0.44509 0.903 0.0
C518 C 0.77389 0.45494 0.8199 0.0
C519 C 0.79752 0.38413 0.83519 0.0
C520 C 0.80663 0.44978 0.83542 0.0
N521 N 0.81791 0.41471 0.843 0.0
C522 C 0.76465 0.38821 0.81967 0.0
C523 C 0.7528 0.4239 0.81202 0.0
C524 C 0.89606 0.33773 0.83894 0.0
C525 C 0.02672 0.40962 0.86976 0.0
C526 C 0.99475 0.33983 0.86239 0.0
C527 C 0.0285 0.3482 0.84904 0.0
C528 C 0.04453 0.38336 0.85279 0.0
N529 N 0.97745 0.36571 0.87904 0.0
C530 C 0.99297 0.40029 0.88273 0.0
Co531 Co 0.09556 0.85952 0.86114 0.0
Co532 Co 0.14786 0.92585 0.89593 0.0
O533 O 0.10068 0.90605 0.88198 0.0
C534 C 0.06319 0.91723 0.8257 0.0
O535 O 0.09338 0.9364 0.8317 0.0
C536 C 0.09609 0.9262 0.94499 0.0
O537 O 0.09058 0.89032 0.94089 0.0
O538 O 0.16007 0.87695 0.91422 0.0
O539 O 0.13285 0.83447 0.88601 0.0
H540 H 0.2856 0.92324 0.91622 0.0
H541 H 0.02809 0.8976 0.8832 0.0
O542 O 0.05874 0.88442 0.83552 0.0
H543 H 0.0286 0.77311 0.92767 0.0
H544 H 0.02353 0.76125 0.80823 0.0
H545 H 0.14829 0.80222 0.83974 0.0
H546 H 0.07801 0.79087 0.89406 0.0
H547 H 0.03081 0.81869 0.83644 0.0
O548 O 0.12036 0.94368 0.93038 0.0
H549 H 0.22619 0.89907 0.89718 0.0
H550 H 0.16884 0.99513 0.92705 0.0
H551 H 0.14229 0.74446 0.81179 0.0
H552 H 0.97806 0.88098 0.91662 0.0
H553 H 0.07955 0.7237 0.79575 0.0
H554 H 0.97817 0.81835 0.93914 0.0
O555 O 0.13641 0.87397 0.83523 0.0
H556 H 0.0652 0.03427 0.87009 0.0
H557 H 0.19065 0.97886 0.85977 0.0
H558 H 0.17629 0.03845 0.83612 0.0
H559 H 0.11321 0.06665 0.84132 0.0
H560 H 0.08045 0.97429 0.89279 0.0
H561 H 0.22759 0.02026 0.94657 0.0
H562 H 0.28654 0.98427 0.94111 0.0
O563 O 0.17535 0.90963 0.86082 0.0
C564 C 0.15484 0.84326 0.9061 0.0
C565 C 0.26013 0.93925 0.91864 0.0
C566 C 0.22756 0.99367 0.93571 0.0
N567 N 0.19418 0.94582 0.9108 0.0
C568 C 0.22644 0.92576 0.90783 0.0
C569 C 0.19437 0.97927 0.92467 0.0
C570 C 0.26062 0.97347 0.93263 0.0
C571 C 0.0281 0.87017 0.89272 0.0
N572 N 0.05576 0.84514 0.88656 0.0
C573 C 0.9998 0.86097 0.91171 0.0
C574 C 0.99991 0.82585 0.92437 0.0
C575 C 0.02821 0.80046 0.91796 0.0
C576 C 0.05613 0.81067 0.89894 0.0
C577 C 0.051 0.76994 0.81516 0.0
C578 C 0.12085 0.79312 0.83312 0.0
C579 C 0.05529 0.80243 0.83113 0.0
N580 N 0.08988 0.81353 0.83999 0.0
C581 C 0.11765 0.76049 0.81719 0.0
C582 C 0.08244 0.74888 0.80818 0.0
C583 C 0.16698 0.89179 0.83834 0.0
C584 C 0.09285 0.02238 0.86779 0.0
C585 C 0.16308 0.99081 0.862 0.0
C586 C 0.15514 0.02464 0.84864 0.0
C587 C 0.11977 0.04048 0.85159 0.0
N588 N 0.13654 0.97322 0.87789 0.0
C589 C 0.10175 0.98854 0.88079 0.0
Co590 Co 0.64319 0.08983 0.86056 0.0
Co591 Co 0.57568 0.14179 0.89434 0.0
O592 O 0.59624 0.09464 0.88093 0.0
C593 C 0.58663 0.05614 0.82475 0.0
O594 O 0.56683 0.086 0.83052 0.0
C595 C 0.57504 0.09079 0.94386 0.0
O596 O 0.61106 0.08566 0.94021 0.0
O597 O 0.62413 0.1549 0.913 0.0
O598 O 0.66731 0.12777 0.88537 0.0
H599 H 0.5763 0.27987 0.91349 0.0
H600 H 0.60561 0.02218 0.88276 0.0
O601 O 0.61931 0.05231 0.83495 0.0
H602 H 0.72921 0.02503 0.92854 0.0
H603 H 0.74363 0.01839 0.80954 0.0
H604 H 0.70015 0.14304 0.83937 0.0
H605 H 0.71146 0.07369 0.89433 0.0
H606 H 0.68536 0.0253 0.83683 0.0
O607 O 0.55755 0.11459 0.92884 0.0
H608 H 0.6015 0.22047 0.89519 0.0
H609 H 0.50562 0.16239 0.92462 0.0
H610 H 0.75873 0.13742 0.81235 0.0
H611 H 0.62224 0.97288 0.91676 0.0
H612 H 0.78076 0.07473 0.79718 0.0
H613 H 0.68442 0.97417 0.93995 0.0
O614 O 0.6286 0.1301 0.83416 0.0
H615 H 0.46883 0.05736 0.86792 0.0
H616 H 0.52281 0.18342 0.85732 0.0
H617 H 0.46389 0.16796 0.83312 0.0
H618 H 0.43642 0.10456 0.83844 0.0
H619 H 0.52811 0.07374 0.89121 0.0
H620 H 0.47947 0.22113 0.94339 0.0
H621 H 0.51484 0.28043 0.93778 0.0
O622 O 0.59213 0.16894 0.85917 0.0
C623 C 0.658 0.14993 0.90522 0.0
C624 C 0.56056 0.25424 0.91597 0.0
C625 C 0.50624 0.22125 0.9328 0.0
N626 N 0.55491 0.18809 0.90864 0.0
C627 C 0.57463 0.22055 0.90559 0.0
C628 C 0.52122 0.18808 0.92218 0.0
C629 C 0.52609 0.25452 0.92963 0.0
C630 C 0.63285 0.0227 0.89256 0.0
N631 N 0.65763 0.05059 0.88644 0.0
C632 C 0.64205 0.99481 0.91188 0.0
C633 C 0.67692 0.99559 0.92492 0.0
C634 C 0.70206 0.02413 0.91854 0.0
C635 C 0.69185 0.05161 0.89918 0.0
C636 C 0.73438 0.04584 0.8161 0.0
C637 C 0.70978 0.11564 0.8331 0.0
C638 C 0.70141 0.04992 0.83153 0.0
N639 N 0.68963 0.08449 0.83994 0.0
C640 C 0.74288 0.11264 0.8177 0.0
C641 C 0.75521 0.07747 0.80918 0.0
C642 C 0.61028 0.16044 0.83686 0.0
C643 C 0.4804 0.08515 0.86556 0.0
C644 C 0.51116 0.15573 0.85964 0.0
C645 C 0.47771 0.14717 0.84595 0.0
C646 C 0.46229 0.11161 0.84897 0.0
N647 N 0.52876 0.12965 0.87592 0.0
C648 C 0.51383 0.09469 0.8789 0.0
Co649 Co 0.41152 0.63881 0.86309 0.0
Co650 Co 0.35806 0.57172 0.89597 0.0
O651 O 0.40567 0.59173 0.88307 0.0
C652 C 0.4447 0.58205 0.82723 0.0
O653 O 0.41436 0.56277 0.83258 0.0
C654 C 0.40828 0.57011 0.94588 0.0
O655 O 0.41372 0.60612 0.94244 0.0
O656 O 0.34538 0.62014 0.91481 0.0
O657 O 0.3736 0.66326 0.88775 0.0
H658 H 0.21975 0.57407 0.914 0.0
H659 H 0.47825 0.5999 0.88555 0.0
O660 O 0.44899 0.61457 0.83762 0.0
H661 H 0.47668 0.72295 0.93224 0.0
H662 H 0.48542 0.7389 0.81369 0.0
H663 H 0.35958 0.69687 0.84183 0.0
H664 H 0.42826 0.70639 0.8975 0.0
H665 H 0.47709 0.68022 0.84024 0.0
O666 O 0.38457 0.55291 0.93057 0.0
H667 H 0.27975 0.59862 0.89633 0.0
H668 H 0.33605 0.50168 0.92566 0.0
H669 H 0.36662 0.75586 0.81554 0.0
H670 H 0.5273 0.61533 0.92008 0.0
H671 H 0.42992 0.77719 0.80125 0.0
H672 H 0.52664 0.67723 0.94373 0.0
O673 O 0.37138 0.62521 0.83627 0.0
H674 H 0.44119 0.4638 0.8697 0.0
H675 H 0.31625 0.51994 0.85819 0.0
H676 H 0.33116 0.461 0.83379 0.0
H677 H 0.39398 0.43245 0.83957 0.0
H678 H 0.4254 0.52313 0.89317 0.0
H679 H 0.27668 0.47615 0.94381 0.0
H680 H 0.21797 0.51239 0.93793 0.0
O681 O 0.33165 0.58896 0.86068 0.0
C682 C 0.35096 0.65402 0.90731 0.0
C683 C 0.24512 0.55795 0.9166 0.0
C684 C 0.27709 0.50302 0.93338 0.0
N685 N 0.31127 0.55146 0.90977 0.0
C686 C 0.27915 0.57166 0.90657 0.0
C687 C 0.31062 0.51765 0.92311 0.0
C688 C 0.24415 0.52337 0.93006 0.0
C689 C 0.47802 0.62702 0.89556 0.0
N690 N 0.45061 0.65231 0.88939 0.0
C691 C 0.50576 0.63554 0.91517 0.0
C692 C 0.50534 0.67026 0.92846 0.0
C693 C 0.4773 0.69592 0.92204 0.0
C694 C 0.44994 0.68638 0.90238 0.0
C695 C 0.45771 0.72996 0.81988 0.0
C696 C 0.38724 0.70617 0.83593 0.0
C697 C 0.45283 0.69676 0.83489 0.0
N698 N 0.41794 0.68541 0.84286 0.0
C699 C 0.39104 0.73951 0.82094 0.0
C700 C 0.42656 0.75144 0.81291 0.0
C701 C 0.34071 0.60733 0.8386 0.0
C702 C 0.41364 0.47584 0.86715 0.0
C703 C 0.3437 0.50781 0.86072 0.0
C704 C 0.35195 0.47436 0.84691 0.0
C705 C 0.38718 0.45832 0.85019 0.0
N706 N 0.36978 0.52482 0.87736 0.0
C707 C 0.40443 0.5093 0.88058 0.0
Co708 Co 0.8612 0.09314 0.64861 0.0
Co709 Co 0.9276 0.14382 0.61201 0.0
O710 O 0.90767 0.09723 0.62738 0.0
C711 C 0.91942 0.06281 0.68478 0.0
O712 O 0.93888 0.0923 0.67742 0.0
C713 C 0.9261 0.08822 0.56589 0.0
O714 O 0.89238 0.07935 0.57443 0.0
O715 O 0.87832 0.15635 0.59464 0.0
O716 O 0.83579 0.12878 0.6226 0.0
H717 H 0.92602 0.28109 0.58994 0.0
H718 H 0.8985 0.02328 0.63007 0.0
O719 O 0.8864 0.05812 0.67543 0.0
H720 H 0.77422 0.02151 0.58532 0.0
H721 H 0.76336 0.02418 0.70424 0.0
H722 H 0.8038 0.14696 0.66827 0.0
H723 H 0.79279 0.07392 0.61596 0.0
H724 H 0.82081 0.0299 0.67586 0.0
O725 O 0.94329 0.11566 0.57711 0.0
H726 H 0.90186 0.22248 0.61034 0.0
H727 H 0.99593 0.16312 0.57913 0.0
H728 H 0.74601 0.14248 0.69633 0.0
H729 H 0.88079 0.96994 0.60004 0.0
H730 H 0.7255 0.08075 0.71459 0.0
H731 H 0.81834 0.96897 0.57728 0.0
O732 O 0.87565 0.13551 0.67298 0.0
H733 H 0.03569 0.05987 0.63617 0.0
H734 H 0.98251 0.18625 0.64676 0.0
H735 H 0.04252 0.17116 0.66953 0.0
H736 H 0.06953 0.10757 0.66426 0.0
H737 H 0.9755 0.07595 0.61412 0.0
H738 H 0.02103 0.22106 0.55825 0.0
H739 H 0.98603 0.2806 0.56367 0.0
O740 O 0.91326 0.17234 0.6472 0.0
C741 C 0.84463 0.15073 0.6025 0.0
C742 C 0.9416 0.25535 0.58752 0.0
C743 C 0.99489 0.22164 0.5697 0.0
N744 N 0.94763 0.18952 0.59612 0.0
C745 C 0.92812 0.22211 0.59909 0.0
C746 C 0.98052 0.18892 0.58152 0.0
C747 C 0.97525 0.25505 0.57276 0.0
C748 C 0.87109 0.0228 0.62055 0.0
N749 N 0.84665 0.05158 0.62486 0.0
C750 C 0.86128 0.99262 0.60345 0.0
C751 C 0.82627 0.99213 0.59064 0.0
C752 C 0.80152 0.02163 0.59511 0.0
C753 C 0.81224 0.0513 0.61239 0.0
C754 C 0.77194 0.05121 0.69632 0.0
C755 C 0.79483 0.11993 0.67587 0.0
C756 C 0.80444 0.05462 0.68026 0.0
N757 N 0.81538 0.08865 0.67013 0.0
C758 C 0.76217 0.1176 0.69186 0.0
C759 C 0.7507 0.08296 0.70212 0.0
C760 C 0.89456 0.16533 0.66956 0.0
C761 C 0.02427 0.08771 0.63853 0.0
C762 C 0.99398 0.15848 0.64446 0.0
C763 C 0.02804 0.15013 0.65733 0.0
C764 C 0.04321 0.11446 0.65434 0.0
N765 N 0.97553 0.13208 0.62901 0.0
C766 C 0.99027 0.09706 0.62595 0.0
Co767 Co 0.40857 0.86521 0.64301 0.0
Co768 Co 0.35587 0.93416 0.61169 0.0
O769 O 0.40333 0.91296 0.62385 0.0
C770 C 0.44376 0.92009 0.67947 0.0
O771 O 0.41383 0.94028 0.67478 0.0
C772 C 0.40532 0.93641 0.56136 0.0
O773 O 0.41011 0.9002 0.56411 0.0
O774 O 0.34199 0.88655 0.59217 0.0
O775 O 0.3697 0.8423 0.61844 0.0
H776 H 0.21729 0.93475 0.59479 0.0
H777 H 0.47567 0.90337 0.62042 0.0
O778 O 0.44705 0.88783 0.66843 0.0
H779 H 0.47057 0.78177 0.57176 0.0
H780 H 0.48117 0.76213 0.68992 0.0
H781 H 0.35577 0.80763 0.66388 0.0
H782 H 0.4232 0.7983 0.60733 0.0
H783 H 0.47364 0.82175 0.66444 0.0
O784 O 0.3822 0.95356 0.57719 0.0
H785 H 0.27707 0.90866 0.61157 0.0
H786 H 0.3347 0.00545 0.58337 0.0
H787 H 0.36201 0.74775 0.68911 0.0
H788 H 0.52369 0.88795 0.58507 0.0
H789 H 0.42508 0.72466 0.70234 0.0
H790 H 0.52126 0.82678 0.56044 0.0
O791 O 0.36918 0.87886 0.67046 0.0
H792 H 0.44139 0.03967 0.63918 0.0
H793 H 0.31553 0.98553 0.65066 0.0
H794 H 0.33188 0.04339 0.67598 0.0
H795 H 0.39517 0.07093 0.67023 0.0
H796 H 0.42415 0.98143 0.61477 0.0
H797 H 0.27556 0.03252 0.56613 0.0
H798 H 0.21629 0.99713 0.57188 0.0
O799 O 0.32968 0.91627 0.64686 0.0
C800 C 0.34691 0.85242 0.59926 0.0
C801 C 0.2429 0.9505 0.59225 0.0
C802 C 0.27562 0.00535 0.57612 0.0
N803 N 0.30926 0.95565 0.59864 0.0
C804 C 0.27682 0.93592 0.60178 0.0
C805 C 0.30903 0.98986 0.58587 0.0
C806 C 0.24238 0.98549 0.57937 0.0
C807 C 0.47467 0.87656 0.60998 0.0
N808 N 0.44686 0.85166 0.61605 0.0
C809 C 0.50183 0.86804 0.58991 0.0
C810 C 0.50041 0.83374 0.57606 0.0
C811 C 0.47197 0.80848 0.58239 0.0
C812 C 0.44521 0.818 0.60252 0.0
C813 C 0.45356 0.77184 0.68419 0.0
C814 C 0.38333 0.79759 0.66933 0.0
C815 C 0.44913 0.80557 0.66979 0.0
N816 N 0.41434 0.8179 0.6624 0.0
C817 C 0.38668 0.76374 0.68371 0.0
C818 C 0.42207 0.75082 0.69115 0.0
C819 C 0.33871 0.89717 0.66858 0.0
C820 C 0.41364 0.02807 0.64174 0.0
C821 C 0.34317 0.99723 0.64813 0.0
C822 C 0.35224 0.03007 0.66246 0.0
C823 C 0.38774 0.04554 0.6592 0.0
N824 N 0.36871 0.98026 0.63099 0.0
C825 C 0.40361 0.99523 0.62777 0.0
Co826 Co 0.64217 0.40697 0.6472 0.0
Co827 Co 0.57508 0.3562 0.61145 0.0
O828 O 0.59545 0.40289 0.62632 0.0
C829 C 0.58476 0.43863 0.68347 0.0
O830 O 0.56479 0.40933 0.67645 0.0
C831 C 0.57634 0.41107 0.56489 0.0
O832 O 0.61026 0.41972 0.57307 0.0
O833 O 0.62404 0.34316 0.59375 0.0
O834 O 0.66694 0.37061 0.62143 0.0
H835 H 0.57553 0.2186 0.59046 0.0
H836 H 0.6053 0.47679 0.62815 0.0
O837 O 0.6177 0.44275 0.67383 0.0
H838 H 0.72897 0.47643 0.5824 0.0
H839 H 0.74154 0.4761 0.70115 0.0
H840 H 0.69922 0.35297 0.6671 0.0
H841 H 0.71038 0.4249 0.61386 0.0
H842 H 0.68357 0.47036 0.67338 0.0
O843 O 0.55902 0.38399 0.5765 0.0
H844 H 0.60038 0.27738 0.61012 0.0
H845 H 0.50615 0.33681 0.57934 0.0
H846 H 0.75749 0.35745 0.69456 0.0
H847 H 0.62303 0.52924 0.59726 0.0
H848 H 0.77896 0.41936 0.71185 0.0
H849 H 0.68518 0.52914 0.574 0.0
O850 O 0.62757 0.3652 0.67212 0.0
H851 H 0.46776 0.44098 0.63595 0.0
H852 H 0.5206 0.31454 0.6471 0.0
H853 H 0.46104 0.33026 0.67034 0.0
H854 H 0.43421 0.39387 0.6648 0.0
H855 H 0.52748 0.42429 0.61342 0.0
H856 H 0.48036 0.27871 0.5592 0.0
H857 H 0.51509 0.21904 0.5648 0.0
O858 O 0.58984 0.32807 0.64668 0.0
C859 C 0.65782 0.34852 0.60149 0.0
C860 C 0.56007 0.24439 0.58798 0.0
C861 C 0.50668 0.27815 0.57039 0.0
N862 N 0.55458 0.31039 0.59607 0.0
C863 C 0.57395 0.27773 0.59913 0.0
C864 C 0.52145 0.31096 0.58179 0.0
C865 C 0.52618 0.24467 0.57355 0.0
C866 C 0.63259 0.47681 0.61841 0.0
N867 N 0.65683 0.44792 0.62289 0.0
C868 C 0.6424 0.50648 0.60082 0.0
C869 C 0.67725 0.50637 0.58773 0.0
C870 C 0.70181 0.47678 0.5924 0.0
C871 C 0.69107 0.44761 0.61015 0.0
C872 C 0.73254 0.44898 0.69366 0.0
C873 C 0.70859 0.38006 0.67429 0.0
C874 C 0.69974 0.44557 0.67794 0.0
N875 N 0.68829 0.41143 0.66834 0.0
C876 C 0.74152 0.3824 0.68994 0.0
C877 C 0.75353 0.41714 0.69965 0.0
C878 C 0.60862 0.33535 0.66895 0.0
C879 C 0.47909 0.41313 0.63843 0.0
C880 C 0.50919 0.34232 0.64466 0.0
C881 C 0.47539 0.35103 0.65781 0.0
C882 C 0.46033 0.38671 0.65467 0.0
N883 N 0.52748 0.36839 0.62879 0.0
C884 C 0.51282 0.40343 0.62558 0.0
Co885 Co 0.09201 0.64904 0.65224 0.0
Co886 Co 0.14123 0.5833 0.61386 0.0
O887 O 0.09521 0.60308 0.63028 0.0
C888 C 0.06255 0.59008 0.68814 0.0
O889 O 0.09164 0.57064 0.67992 0.0
C890 C 0.0842 0.58588 0.56868 0.0
O891 O 0.07547 0.61935 0.57784 0.0
O892 O 0.15341 0.63294 0.59692 0.0
O893 O 0.12696 0.67495 0.62593 0.0
H894 H 0.2778 0.58489 0.58946 0.0
H895 H 0.02147 0.61245 0.63438 0.0
O896 O 0.05771 0.62333 0.67933 0.0
H897 H 0.01886 0.73786 0.59146 0.0
H898 H 0.02535 0.74557 0.71068 0.0
H899 H 0.14674 0.70561 0.67185 0.0
H900 H 0.07208 0.71836 0.62095 0.0
H901 H 0.02983 0.68904 0.68114 0.0
O902 O 0.11201 0.56851 0.57923 0.0
H903 H 0.21991 0.6088 0.61115 0.0
H904 H 0.15925 0.51565 0.57979 0.0
H905 H 0.1435 0.76247 0.70106 0.0
H906 H 0.96736 0.63106 0.60548 0.0
H907 H 0.08247 0.78272 0.72078 0.0
H908 H 0.96595 0.69409 0.58365 0.0
O909 O 0.13501 0.63379 0.67566 0.0
H910 H 0.05751 0.47499 0.63802 0.0
H911 H 0.18443 0.5274 0.64714 0.0
H912 H 0.16972 0.46693 0.66937 0.0
H913 H 0.10587 0.4403 0.66484 0.0
H914 H 0.07322 0.53563 0.6165 0.0
H915 H 0.21645 0.49082 0.55762 0.0
H916 H 0.27628 0.52547 0.56247 0.0
O917 O 0.17086 0.59666 0.64875 0.0
C918 C 0.14816 0.66649 0.60529 0.0
C919 C 0.25193 0.56946 0.58729 0.0
C920 C 0.21748 0.51669 0.56937 0.0
N921 N 0.18634 0.56348 0.59693 0.0
C922 C 0.2191 0.5828 0.59959 0.0
C923 C 0.18518 0.53092 0.58193 0.0
C924 C 0.25105 0.53615 0.57212 0.0
C925 C 0.02082 0.6401 0.62526 0.0
N926 N 0.04981 0.66435 0.62944 0.0
C927 C 0.9902 0.65042 0.6088 0.0
C928 C 0.98946 0.68576 0.59651 0.0
C929 C 0.01916 0.71032 0.60085 0.0
C930 C 0.04929 0.69907 0.61748 0.0
C931 C 0.05208 0.73711 0.70213 0.0
C932 C 0.12 0.7145 0.68006 0.0
C933 C 0.05478 0.70513 0.68539 0.0
N934 N 0.08843 0.69432 0.67449 0.0
C935 C 0.11838 0.74662 0.6967 0.0
C936 C 0.08414 0.75794 0.70778 0.0
C937 C 0.1646 0.6148 0.67149 0.0
C938 C 0.08547 0.48624 0.64005 0.0
C939 C 0.15654 0.5161 0.64517 0.0
C940 C 0.14841 0.48178 0.65773 0.0
C941 C 0.1126 0.46683 0.65515 0.0
N942 N 0.12978 0.53503 0.63042 0.0
C943 C 0.09461 0.52049 0.62777 0.0
C944 C 0.18034 0.70102 0.07013 0.0
C945 C 0.18845 0.67401 0.09069 0.0
C946 C 0.20634 0.72923 0.06344 0.0
C947 C 0.24058 0.7311 0.07831 0.0
C948 C 0.25018 0.702 0.09712 0.0
C949 C 0.2243 0.67356 0.1027 0.0
C950 C 0.19601 0.75841 0.04194 0.0
C951 C 0.28641 0.70266 0.11345 0.0
C952 C 0.32287 0.7968 0.0687 0.0
C953 C 0.31595 0.82295 0.09013 0.0
C954 C 0.29662 0.76871 0.06231 0.0
C955 C 0.2634 0.76598 0.07838 0.0
C956 C 0.25495 0.79416 0.0983 0.0
C957 C 0.28099 0.82256 0.10354 0.0
C958 C 0.30575 0.74056 0.03973 0.0
C959 C 0.21994 0.79249 0.11604 0.0
H960 H 0.15306 0.70132 0.06024 0.0
H961 H 0.23138 0.65247 0.11813 0.0
H962 H 0.18494 0.78353 0.05278 0.0
H963 H 0.2208 0.76711 0.02953 0.0
H964 H 0.17412 0.74801 0.02735 0.0
H965 H 0.29073 0.67672 0.12586 0.0
H966 H 0.31047 0.70623 0.09903 0.0
H967 H 0.28636 0.72679 0.12811 0.0
H968 H 0.34944 0.79715 0.05777 0.0
H969 H 0.27483 0.84295 0.11972 0.0
H970 H 0.28013 0.73084 0.0288 0.0
H971 H 0.31939 0.71586 0.04939 0.0
H972 H 0.32532 0.75245 0.02397 0.0
H973 H 0.19489 0.78945 0.10253 0.0
H974 H 0.21639 0.81778 0.12932 0.0
H975 H 0.22114 0.76766 0.13 0.0
C976 C 0.82714 0.22007 0.10371 0.0
C977 C 0.82688 0.1846 0.09105 0.0
C978 C 0.79857 0.24597 0.09863 0.0
C979 C 0.76951 0.23684 0.07964 0.0
C980 C 0.77143 0.20298 0.06426 0.0
C981 C 0.79977 0.17692 0.07048 0.0
C982 C 0.79779 0.28168 0.1156 0.0
C983 C 0.74224 0.19312 0.04263 0.0
C984 C 0.67805 0.27694 0.10517 0.0
C985 C 0.67778 0.31218 0.09217 0.0
C986 C 0.7064 0.25095 0.09967 0.0
C987 C 0.73469 0.25975 0.07994 0.0
C988 C 0.73216 0.29334 0.06431 0.0
C989 C 0.70407 0.31951 0.07092 0.0
C990 C 0.70787 0.21552 0.11693 0.0
C991 C 0.76049 0.30286 0.04195 0.0
H992 H 0.84826 0.22681 0.1192 0.0
H993 H 0.79959 0.14993 0.06012 0.0
H994 H 0.7942 0.30618 0.10161 0.0
H995 H 0.77362 0.28112 0.13022 0.0
H996 H 0.82369 0.28568 0.12813 0.0
H997 H 0.75281 0.17189 0.02756 0.0
H998 H 0.71732 0.18135 0.05331 0.0
H999 H 0.73319 0.21824 0.03076 0.0
H1000 H 0.65756 0.27046 0.1212 0.0
H1001 H 0.70382 0.34631 0.06031 0.0
H1002 H 0.7326 0.21633 0.131 0.0
H1003 H 0.71093 0.19079 0.1031 0.0
H1004 H 0.68247 0.21171 0.13007 0.0
H1005 H 0.78575 0.31495 0.05195 0.0
H1006 H 0.74926 0.32374 0.02688 0.0
H1007 H 0.76919 0.27754 0.03016 0.0
C1008 C 0.22232 0.82401 0.40629 0.0
C1009 C 0.18683 0.82347 0.41893 0.0
C1010 C 0.24866 0.79599 0.41169 0.0
C1011 C 0.24006 0.76727 0.4311 0.0
C1012 C 0.20615 0.76901 0.44646 0.0
C1013 C 0.17957 0.79671 0.43983 0.0
C1014 C 0.28429 0.79535 0.3946 0.0
C1015 C 0.19666 0.74037 0.46857 0.0
C1016 C 0.28137 0.67603 0.40639 0.0
C1017 C 0.31705 0.67699 0.41869 0.0
C1018 C 0.25484 0.70384 0.41198 0.0
C1019 C 0.26356 0.73282 0.43114 0.0
C1020 C 0.29765 0.73143 0.44624 0.0
C1021 C 0.32438 0.70392 0.43947 0.0
C1022 C 0.2188 0.70393 0.39542 0.0
C1023 C 0.30691 0.76029 0.46827 0.0
H1024 H 0.22878 0.84491 0.39055 0.0
H1025 H 0.15259 0.79634 0.4502 0.0
H1026 H 0.30895 0.79307 0.40858 0.0
H1027 H 0.28429 0.7705 0.38062 0.0
H1028 H 0.28757 0.82074 0.38139 0.0
H1029 H 0.17891 0.75286 0.48527 0.0
H1030 H 0.18059 0.71725 0.45881 0.0
H1031 H 0.22212 0.72843 0.47837 0.0
H1032 H 0.27484 0.65496 0.3908 0.0
H1033 H 0.35149 0.70456 0.44962 0.0
H1034 H 0.21804 0.72875 0.38143 0.0
H1035 H 0.19451 0.70588 0.40981 0.0
H1036 H 0.21554 0.67846 0.38229 0.0
H1037 H 0.31842 0.78561 0.45798 0.0
H1038 H 0.32819 0.74967 0.48327 0.0
H1039 H 0.28156 0.76867 0.48016 0.0
C1040 C 0.791 0.33318 0.44022 0.0
C1041 C 0.81986 0.32522 0.42109 0.0
C1042 C 0.76282 0.30669 0.44587 0.0
C1043 C 0.76284 0.27214 0.4313 0.0
C1044 C 0.79359 0.26284 0.41394 0.0
C1045 C 0.82195 0.28915 0.40951 0.0
C1046 C 0.73182 0.31664 0.46601 0.0
C1047 C 0.79496 0.22641 0.39788 0.0
C1048 C 0.69861 0.18826 0.43853 0.0
C1049 C 0.67389 0.19439 0.41605 0.0
C1050 C 0.72552 0.21526 0.44596 0.0
C1051 C 0.72856 0.24848 0.42992 0.0
C1052 C 0.70176 0.25602 0.40878 0.0
C1053 C 0.67445 0.22923 0.40248 0.0
C1054 C 0.75221 0.20694 0.46968 0.0
C1055 C 0.70394 0.29088 0.39091 0.0
H1056 H 0.78939 0.36064 0.44979 0.0
H1057 H 0.84448 0.28215 0.39524 0.0
H1058 H 0.70698 0.32607 0.45402 0.0
H1059 H 0.72342 0.29196 0.47866 0.0
H1060 H 0.74026 0.33954 0.48044 0.0
H1061 H 0.82175 0.22264 0.38642 0.0
H1062 H 0.79116 0.20244 0.41234 0.0
H1063 H 0.77178 0.22558 0.38239 0.0
H1064 H 0.69807 0.16177 0.44958 0.0
H1065 H 0.65517 0.23475 0.38544 0.0
H1066 H 0.7606 0.23287 0.48082 0.0
H1067 H 0.77783 0.19372 0.46112 0.0
H1068 H 0.73962 0.18726 0.48505 0.0
H1069 H 0.70526 0.31615 0.40434 0.0
H1070 H 0.67965 0.29363 0.37651 0.0
H1071 H 0.72984 0.29018 0.37807 0.0
C1072 C 0.82427 0.29516 0.93915 0.0
C1073 C 0.81741 0.32186 0.91812 0.0
C1074 C 0.79765 0.26732 0.94544 0.0
C1075 C 0.76414 0.26538 0.92963 0.0
C1076 C 0.75592 0.294 0.91005 0.0
C1077 C 0.78227 0.32214 0.90495 0.0
C1078 C 0.80655 0.23871 0.96773 0.0
C1079 C 0.7207 0.29314 0.89251 0.0
C1080 C 0.72364 0.17378 0.90478 0.0
C1081 C 0.68787 0.17439 0.91697 0.0
C1082 C 0.74986 0.20187 0.91041 0.0
C1083 C 0.74076 0.23082 0.9295 0.0
C1084 C 0.70651 0.22922 0.94441 0.0
C1085 C 0.68011 0.20138 0.93762 0.0
C1086 C 0.78595 0.20231 0.89389 0.0
C1087 C 0.69667 0.25822 0.9662 0.0
H1088 H 0.85097 0.29499 0.9499 0.0
H1089 H 0.77613 0.34294 0.88908 0.0
H1090 H 0.78092 0.22975 0.97902 0.0
H1091 H 0.81908 0.21365 0.95774 0.0
H1092 H 0.82692 0.24983 0.98323 0.0
H1093 H 0.71748 0.31861 0.87938 0.0
H1094 H 0.72127 0.26842 0.87842 0.0
H1095 H 0.69574 0.29047 0.90616 0.0
H1096 H 0.73047 0.15272 0.88925 0.0
H1097 H 0.6529 0.20182 0.94763 0.0
H1098 H 0.8102 0.20517 0.90821 0.0
H1099 H 0.78617 0.22677 0.87954 0.0
H1100 H 0.78976 0.17659 0.88112 0.0
H1101 H 0.72169 0.2666 0.97847 0.0
H1102 H 0.67492 0.24778 0.98089 0.0
H1103 H 0.68561 0.28353 0.95563 0.0
C1104 C 0.32738 0.71973 0.9067 0.0
C1105 C 0.32652 0.68399 0.91891 0.0
C1106 C 0.29915 0.74593 0.91198 0.0
C1107 C 0.26984 0.73685 0.93076 0.0
C1108 C 0.27125 0.70271 0.9458 0.0
C1109 C 0.29921 0.67631 0.93934 0.0
C1110 C 0.29896 0.78194 0.89537 0.0
C1111 C 0.2419 0.69293 0.96733 0.0
C1112 C 0.20507 0.82018 0.93914 0.0
C1113 C 0.17895 0.81307 0.91775 0.0
C1114 C 0.23278 0.7937 0.94598 0.0
C1115 C 0.23519 0.76006 0.93037 0.0
C1116 C 0.20706 0.75153 0.91045 0.0
C1117 C 0.17903 0.77779 0.90479 0.0
C1118 C 0.26081 0.80291 0.96861 0.0
C1119 C 0.2084 0.71612 0.89315 0.0
H1120 H 0.3487 0.72651 0.89137 0.0
H1121 H 0.29859 0.64913 0.94938 0.0
H1122 H 0.27479 0.78203 0.88074 0.0
H1123 H 0.29577 0.80625 0.9096 0.0
H1124 H 0.32493 0.78575 0.88288 0.0
H1125 H 0.25233 0.67164 0.9824 0.0
H1126 H 0.23288 0.71807 0.97922 0.0
H1127 H 0.217 0.68124 0.95658 0.0
H1128 H 0.20495 0.847 0.94974 0.0
H1129 H 0.15865 0.77145 0.88865 0.0
H1130 H 0.28587 0.81586 0.95894 0.0
H1131 H 0.26992 0.77738 0.97995 0.0
H1132 H 0.24909 0.82307 0.98403 0.0
H1133 H 0.23345 0.71659 0.87937 0.0
H1134 H 0.18325 0.71269 0.8797 0.0
H1135 H 0.2108 0.69132 0.90698 0.0
C1136 C 0.72321 0.32411 0.6023 0.0
C1137 C 0.68766 0.32406 0.58979 0.0
C1138 C 0.74894 0.29545 0.59702 0.0
C1139 C 0.73955 0.26655 0.57796 0.0
C1140 C 0.70569 0.26882 0.56263 0.0
C1141 C 0.67979 0.2972 0.56907 0.0
C1142 C 0.78472 0.29437 0.61389 0.0
C1143 C 0.69552 0.23995 0.54084 0.0
C1144 C 0.82205 0.20098 0.56941 0.0
C1145 C 0.81452 0.17471 0.59062 0.0
C1146 C 0.79594 0.22903 0.56264 0.0
C1147 C 0.76222 0.23158 0.57812 0.0
C1148 C 0.75314 0.20319 0.59769 0.0
C1149 C 0.77909 0.17484 0.60333 0.0
C1150 C 0.80571 0.25733 0.54034 0.0
C1151 C 0.71747 0.20456 0.61468 0.0
H1152 H 0.73013 0.34508 0.61787 0.0
H1153 H 0.65275 0.2972 0.55879 0.0
H1154 H 0.78428 0.26989 0.62821 0.0
H1155 H 0.80915 0.29112 0.59978 0.0
H1156 H 0.78875 0.32001 0.62671 0.0
H1157 H 0.67638 0.25185 0.52479 0.0
H1158 H 0.72073 0.22879 0.53015 0.0
H1159 H 0.68091 0.2163 0.55116 0.0
H1160 H 0.84899 0.20081 0.55897 0.0
H1161 H 0.77244 0.15431 0.61928 0.0
H1162 H 0.81943 0.28179 0.55028 0.0
H1163 H 0.78036 0.26739 0.52921 0.0
H1164 H 0.82544 0.24541 0.5247 0.0
H1165 H 0.71792 0.2294 0.62866 0.0
H1166 H 0.71362 0.17924 0.62787 0.0
H1167 H 0.69295 0.20737 0.60061 0.0
C1168 C 0.19611 0.68995 0.57061 0.0
C1169 C 0.17167 0.6968 0.59315 0.0
C1170 C 0.22373 0.71618 0.56309 0.0
C1171 C 0.22777 0.74932 0.5791 0.0
C1172 C 0.20124 0.75767 0.60027 0.0
C1173 C 0.17321 0.73167 0.60666 0.0
C1174 C 0.25011 0.70706 0.53933 0.0
C1175 C 0.20447 0.79248 0.61812 0.0
C1176 C 0.3224 0.78708 0.59941 0.0
C1177 C 0.32135 0.82323 0.58791 0.0
C1178 C 0.29325 0.76165 0.59498 0.0
C1179 C 0.26276 0.77191 0.57768 0.0
C1180 C 0.26377 0.80646 0.56314 0.0
C1181 C 0.29273 0.83209 0.56881 0.0
C1182 C 0.29351 0.72519 0.61105 0.0
C1183 C 0.23307 0.81738 0.54305 0.0
H1184 H 0.19483 0.66345 0.55961 0.0
H1185 H 0.15415 0.73775 0.62373 0.0
H1186 H 0.25908 0.73272 0.52809 0.0
H1187 H 0.27544 0.69327 0.54786 0.0
H1188 H 0.23698 0.6876 0.52405 0.0
H1189 H 0.18031 0.79596 0.63256 0.0
H1190 H 0.23037 0.79104 0.63092 0.0
H1191 H 0.20649 0.81768 0.60467 0.0
H1192 H 0.34472 0.77937 0.61364 0.0
H1193 H 0.29191 0.85961 0.55931 0.0
H1194 H 0.28896 0.70134 0.59659 0.0
H1195 H 0.27033 0.72509 0.62656 0.0
H1196 H 0.32018 0.7206 0.62248 0.0
H1197 H 0.22368 0.79294 0.53053 0.0
H1198 H 0.2423 0.83984 0.5285 0.0
H1199 H 0.20866 0.82786 0.55507 0.0
C1200 C 0.98766 0.41826 0.29248 0.0
C1201 C 0.96975 0.44114 0.31218 0.0
C1202 C 0.01078 0.43393 0.27177 0.0
C1203 C 0.01672 0.47307 0.2715 0.0
C1204 C 1.00074 0.49577 0.2927 0.0
C1205 C 0.97691 0.47956 0.31252 0.0
C1206 C 0.02665 0.40901 0.24914 0.0
C1207 C 0.0072 0.53749 0.29359 0.0
C1208 C 0.09127 0.51931 0.2268 0.0
C1209 C 0.06923 0.5354 0.20574 0.0
C1210 C 0.07482 0.4976 0.24802 0.0
C1211 C 0.03576 0.49119 0.24746 0.0
C1212 C 0.01393 0.50546 0.2251 0.0
C1213 C 0.03089 0.52794 0.20474 0.0
C1214 C 0.09878 0.48359 0.27188 0.0
C1215 C 0.97235 0.49842 0.22334 0.0
H1216 H 0.98183 0.38851 0.29224 0.0
H1217 H 0.96328 0.49706 0.32804 0.0
H1218 H 0.01193 0.41462 0.22906 0.0
H1219 H 0.0567 0.41506 0.24571 0.0
H1220 H 0.02341 0.37889 0.2543 0.0
H1221 H 0.99677 0.55021 0.31339 0.0
H1222 H 0.03743 0.54386 0.29145 0.0
H1223 H 0.99255 0.55096 0.27572 0.0
H1224 H 0.12097 0.52535 0.22752 0.0
H1225 H 0.01403 0.54012 0.18818 0.0
H1226 H 0.09318 0.4536 0.27603 0.0
H1227 H 0.09168 0.4992 0.29131 0.0
H1228 H 0.12908 0.48725 0.26759 0.0
H1229 H 0.96628 0.46823 0.22611 0.0
H1230 H 0.96041 0.50772 0.20296 0.0
H1231 H 0.95789 0.5137 0.24046 0.0
C1232 C 0.98023 0.02756 0.20092 0.0
C1233 C 0.97271 0.06591 0.20144 0.0
C1234 C 0.00331 0.01124 0.22118 0.0
C1235 C 0.01815 0.03374 0.24296 0.0
C1236 C 0.0118 0.07281 0.24295 0.0
C1237 C 0.98946 0.08859 0.22184 0.0
C1238 C 0.01026 0.96961 0.22003 0.0
C1239 C 0.02647 0.09749 0.26618 0.0
C1240 C 0.03057 0.97726 0.3091 0.0
C1241 C 0.06896 0.96999 0.30859 0.0
C1242 C 0.01413 1.00034 0.28889 0.0
C1243 C 0.03657 0.01542 0.26717 0.0
C1244 C 0.07569 0.00938 0.26724 0.0
C1245 C 0.09159 0.98703 0.28831 0.0
C1246 C 0.97245 0.00696 0.29 0.0
C1247 C 0.10032 0.0243 0.24407 0.0
H1248 H 0.96752 0.0102 0.18487 0.0
H1249 H 0.98338 0.11829 0.2222 0.0
H1250 H 0.04048 0.96356 0.22266 0.0
H1251 H 0.9952 0.95569 0.23751 0.0
H1252 H 1.00063 0.95709 0.19994 0.0
H1253 H 0.02301 0.12766 0.26129 0.0
H1254 H 0.0111 0.09127 0.28588 0.0
H1255 H 0.05647 0.09177 0.27016 0.0
H1256 H 0.01326 0.96429 0.32506 0.0
H1257 H 0.12132 0.9811 0.28795 0.0
H1258 H 0.95868 0.99179 0.2725 0.0
H1259 H 0.96616 0.03713 0.28737 0.0
H1260 H 0.95997 0.99721 0.31008 0.0
H1261 H 0.09437 0.00883 0.22436 0.0
H1262 H 0.1305 0.02118 0.24904 0.0
H1263 H 0.09429 0.05423 0.24004 0.0
C1264 C 0.52194 0.08797 0.28191 0.0
C1265 C 0.53917 0.06704 0.3031 0.0
C1266 C 0.49983 0.07034 0.26148 0.0
C1267 C 0.49413 0.03121 0.263 0.0
C1268 C 0.50984 0.01044 0.28537 0.0
C1269 C 0.53271 0.02856 0.30491 0.0
C1270 C 0.48433 0.09317 0.23751 0.0
C1271 C 0.50361 0.96882 0.28814 0.0
C1272 C 0.41837 0.98237 0.22114 0.0
C1273 C 0.43981 0.96437 0.2006 0.0
C1274 C 0.43548 0.00537 0.24127 0.0
C1275 C 0.47461 0.01116 0.24008 0.0
C1276 C 0.49589 0.99478 0.21824 0.0
C1277 C 0.47828 0.97105 0.19902 0.0
C1278 C 0.4121 0.02161 0.26467 0.0
C1279 C 0.53752 1.00111 0.2158 0.0
H1280 H 0.52722 0.11777 0.28053 0.0
H1281 H 0.54578 0.01255 0.32156 0.0
H1282 H 0.49839 0.08486 0.21769 0.0
H1283 H 0.45403 0.08768 0.2348 0.0
H1284 H 0.48854 0.12365 0.24071 0.0
H1285 H 0.51442 0.95768 0.30835 0.0
H1286 H 0.47337 0.96224 0.2866 0.0
H1287 H 0.51794 0.95402 0.27073 0.0
H1288 H 0.38858 0.97694 0.22233 0.0
H1289 H 0.49468 0.95739 0.18285 0.0
H1290 H 0.4176 0.05196 0.26698 0.0
H1291 H 0.41987 0.00808 0.28481 0.0
H1292 H 0.3817 0.01737 0.26111 0.0
H1293 H 0.544 0.0314 0.21707 0.0
H1294 H 0.54905 0.98992 0.19583 0.0
H1295 H 0.55205 0.98717 0.23351 0.0
C1296 C 0.5281 0.47172 0.20274 0.0
C1297 C 0.53531 0.43332 0.20367 0.0
C1298 C 0.50467 0.48853 0.22256 0.0
C1299 C 0.48912 0.46649 0.24432 0.0
C1300 C 0.4953 0.4274 0.24479 0.0
C1301 C 0.51802 0.41111 0.22411 0.0
C1302 C 0.49794 0.53017 0.22091 0.0
C1303 C 0.47991 0.4032 0.26804 0.0
C1304 C 0.47455 0.524 0.30974 0.0
C1305 C 0.43618 0.53122 0.30851 0.0
C1306 C 0.49165 0.50068 0.29 0.0
C1307 C 0.46994 0.48529 0.268 0.0
C1308 C 0.43082 0.49134 0.2673 0.0
C1309 C 0.41423 0.51394 0.28794 0.0
C1310 C 0.53329 0.49407 0.29192 0.0
C1311 C 0.40697 0.4761 0.24381 0.0
H1312 H 0.54119 0.48872 0.18665 0.0
H1313 H 0.52383 0.38137 0.22479 0.0
H1314 H 0.46767 0.53637 0.2229 0.0
H1315 H 0.51244 0.54432 0.23856 0.0
H1316 H 0.50832 0.54232 0.20091 0.0
H1317 H 0.48371 0.37293 0.26366 0.0
H1318 H 0.49445 0.41002 0.28798 0.0
H1319 H 0.44973 0.40884 0.27129 0.0
H1320 H 0.49133 0.53715 0.32593 0.0
H1321 H 0.38451 0.51984 0.28702 0.0
H1322 H 0.54763 0.50891 0.27452 0.0
H1323 H 0.53964 0.46386 0.28971 0.0
H1324 H 0.54512 0.50419 0.31211 0.0
H1325 H 0.41375 0.4911 0.22405 0.0
H1326 H 0.37663 0.4795 0.24811 0.0
H1327 H 0.41295 0.44605 0.24025 0.0
C1328 C 0.02892 0.53471 0.70631 0.0
C1329 C 0.03592 0.57312 0.7078 0.0
C1330 C 0.00602 0.51715 0.72611 0.0
C1331 C 0.99081 0.53841 0.74844 0.0
C1332 C 0.99695 0.57749 0.7496 0.0
C1333 C 0.0191 0.59456 0.72891 0.0
C1334 C 0.99932 0.47556 0.72372 0.0
C1335 C 0.98197 0.60085 0.77348 0.0
C1336 C 0.91582 0.48948 0.79104 0.0
C1337 C 0.93773 0.47122 0.81115 0.0
C1338 C 0.93247 0.51291 0.77096 0.0
C1339 C 0.97161 0.5188 0.77176 0.0
C1340 C 0.9933 0.50241 0.79335 0.0
C1341 C 0.97614 0.47828 0.81252 0.0
C1342 C 0.90863 0.52921 0.74787 0.0
C1343 C 0.03495 0.50881 0.79539 0.0
H1344 H 0.04165 0.5183 0.68972 0.0
H1345 H 0.02477 0.62431 0.73004 0.0
H1346 H 0.01385 0.46086 0.74108 0.0
H1347 H 0.96905 0.46929 0.72563 0.0
H1348 H 0.00965 0.46405 0.70348 0.0
H1349 H 0.98603 0.63125 0.76982 0.0
H1350 H 0.95176 0.59535 0.7767 0.0
H1351 H 0.99655 0.59305 0.79319 0.0
H1352 H 0.88608 0.48373 0.79 0.0
H1353 H 0.9929 0.46438 0.82835 0.0
H1354 H 0.91539 0.51508 0.72774 0.0
H1355 H 0.91465 0.55939 0.74508 0.0
H1356 H 0.87829 0.52565 0.75209 0.0
H1357 H 0.04923 0.49454 0.7777 0.0
H1358 H 0.04674 0.49796 0.81538 0.0
H1359 H 0.04142 0.53908 0.79378 0.0
C1360 C 0.01817 0.91268 0.78597 0.0
C1361 C 0.03514 0.93392 0.80711 0.0
C1362 C 0.99548 0.92993 0.7657 0.0
C1363 C 0.98897 0.96893 0.76735 0.0
C1364 C 0.00408 0.98985 0.78989 0.0
C1365 C 0.02754 0.97215 0.80924 0.0
C1366 C 0.9806 0.90693 0.74159 0.0
C1367 C 0.99698 0.0313 0.79284 0.0
C1368 C 0.97463 0.02915 0.7032 0.0
C1369 C 0.93607 0.03552 0.70408 0.0
C1370 C 0.9918 0.00553 0.72272 0.0
C1371 C 0.96995 0.98889 0.74413 0.0
C1372 C 0.93075 0.99439 0.74462 0.0
C1373 C 0.91412 0.01733 0.72422 0.0
C1374 C 0.03356 0.9996 0.72104 0.0
C1375 C 0.90675 0.97786 0.76754 0.0
H1376 H 0.02436 0.88308 0.78436 0.0
H1377 H 0.04044 0.98835 0.82586 0.0
H1378 H 0.95043 0.91252 0.73829 0.0
H1379 H 0.99537 0.91496 0.722 0.0
H1380 H 0.98458 0.87648 0.74504 0.0
H1381 H 0.0069 0.04235 0.81333 0.0
H1382 H 0.01168 0.04657 0.77583 0.0
H1383 H 0.96669 0.03738 0.79074 0.0
H1384 H 0.99146 0.04294 0.68734 0.0
H1385 H 0.88426 0.02248 0.72487 0.0
H1386 H 0.04025 0.96936 0.72229 0.0
H1387 H 0.04737 0.01354 0.73908 0.0
H1388 H 0.04566 0.01104 0.70134 0.0
H1389 H 0.91259 0.94759 0.77 0.0
H1390 H 0.87644 0.98166 0.76334 0.0
H1391 H 0.91359 0.99153 0.78782 0.0
C1392 C 0.53278 0.02055 0.80633 0.0
C1393 C 0.5711 0.02814 0.80553 0.0
C1394 C 0.51616 0.99767 0.78606 0.0
C1395 C 0.53833 0.98309 0.76399 0.0
C1396 C 0.57743 0.98933 0.76381 0.0
C1397 C 0.59352 0.0115 0.78494 0.0
C1398 C 0.47452 0.99086 0.78744 0.0
C1399 C 0.60179 0.97492 0.74031 0.0
C1400 C 0.4898 0.91132 0.71813 0.0
C1401 C 0.47256 0.93467 0.69843 0.0
C1402 C 0.51294 0.92639 0.73909 0.0
C1403 C 0.51955 0.96542 0.73963 0.0
C1404 C 0.5043 0.98857 0.71841 0.0
C1405 C 0.48046 0.97295 0.69832 0.0
C1406 C 0.52805 0.901 0.76171 0.0
C1407 C 0.51147 0.03018 0.71779 0.0
H1408 H 0.51562 0.03319 0.82253 0.0
H1409 H 0.6232 0.01765 0.78436 0.0
H1410 H 0.46043 0.00642 0.77029 0.0
H1411 H 0.46828 0.96074 0.78444 0.0
H1412 H 0.46234 1.00006 0.80776 0.0
H1413 H 0.63202 0.97773 0.74522 0.0
H1414 H 0.59555 0.94514 0.73581 0.0
H1415 H 0.59581 0.99099 0.72089 0.0
H1416 H 0.48342 0.88168 0.71818 0.0
H1417 H 0.46736 0.99083 0.6828 0.0
H1418 H 0.51282 0.90637 0.78161 0.0
H1419 H 0.55804 0.90679 0.76565 0.0
H1420 H 0.52474 0.871 0.7562 0.0
H1421 H 0.49673 0.04374 0.73558 0.0
H1422 H 0.5016 0.04323 0.69796 0.0
H1423 H 0.54175 0.03604 0.72024 0.0
C1424 C 0.53051 0.47311 0.70266 0.0
C1425 C 0.56897 0.4661 0.70303 0.0
C1426 C 0.51412 0.49664 0.72262 0.0
C1427 C 0.53666 0.51251 0.74396 0.0
C1428 C 0.57578 0.50649 0.74387 0.0
C1429 C 0.59162 0.48367 0.72305 0.0
C1430 C 0.47242 0.50318 0.72155 0.0
C1431 C 0.60051 0.52222 0.76667 0.0
C1432 C 0.48971 0.58775 0.78758 0.0
C1433 C 0.47287 0.56595 0.80845 0.0
C1434 C 0.51209 0.57102 0.76687 0.0
C1435 C 0.51838 0.53194 0.76778 0.0
C1436 C 0.50354 0.51044 0.7901 0.0
C1437 C 0.48041 0.52765 0.80992 0.0
C1438 C 0.52674 0.59465 0.74303 0.0
C1439 C 0.51043 0.46887 0.79227 0.0
H1440 H 0.51315 0.45981 0.68689 0.0
H1441 H 0.62141 0.47802 0.7233 0.0
H1442 H 0.4588 0.48886 0.73951 0.0
H1443 H 0.46615 0.53345 0.7234 0.0
H1444 H 0.45977 0.49249 0.7018 0.0
H1445 H 0.63067 0.51851 0.76186 0.0
H1446 H 0.59483 0.55241 0.76984 0.0
H1447 H 0.59428 0.50785 0.78678 0.0
H1448 H 0.48355 0.6174 0.78648 0.0
H1449 H 0.46759 0.511 0.82633 0.0
H1450 H 0.51124 0.58769 0.72354 0.0
H1451 H 0.5567 0.58865 0.73908 0.0
H1452 H 0.52344 0.62503 0.74723 0.0
H1453 H 0.49521 0.4542 0.77522 0.0
H1454 H 0.50092 0.45729 0.81271 0.0
H1455 H 0.54062 0.46264 0.78966 0.0
C1456 C 0.08296 0.72094 0.19507 0.0
C1457 C 0.10864 0.69128 0.19404 0.0
C1458 C 0.08149 0.74512 0.21844 0.0
C1459 C 0.10647 0.73978 0.24122 0.0
C1460 C 0.13271 0.71023 0.24011 0.0
C1461 C 0.13341 0.68643 0.21669 0.0
C1462 C 0.05306 0.77628 0.21884 0.0
C1463 C 0.16017 0.70369 0.26371 0.0
C1464 C 0.12959 0.8207 0.2902 0.0
C1465 C 0.1082 0.81227 0.31417 0.0
C1466 C 0.1288 0.79774 0.26627 0.0
C1467 C 0.10596 0.76543 0.26604 0.0
C1468 C 0.08415 0.75675 0.29004 0.0
C1469 C 0.08562 0.78015 0.31382 0.0
C1470 C 0.15281 0.80789 0.2413 0.0
C1471 C 0.05944 0.72255 0.29067 0.0
H1472 H 0.06368 0.72502 0.1778 0.0
H1473 H 0.15359 0.66383 0.21622 0.0
H1474 H 0.03475 0.77344 0.23753 0.0
H1475 H 0.06745 0.80366 0.22054 0.0
H1476 H 0.0353 0.77646 0.19971 0.0
H1477 H 0.17883 0.67946 0.25963 0.0
H1478 H 0.17773 0.72893 0.26682 0.0
H1479 H 0.14491 0.69864 0.28363 0.0
H1480 H 0.14723 0.84534 0.29007 0.0
H1481 H 0.06893 0.77328 0.3321 0.0
H1482 H 0.13523 0.81064 0.22223 0.0
H1483 H 0.17334 0.78529 0.23721 0.0
H1484 H 0.1683 0.83448 0.24451 0.0
H1485 H 0.03977 0.72307 0.27266 0.0
H1486 H 0.04305 0.72049 0.31043 0.0
H1487 H 0.07677 0.697 0.2885 0.0
C1488 C 0.82383 0.12571 0.21855 0.0
C1489 C 0.81574 0.10388 0.19472 0.0
C1490 C 0.80067 0.12528 0.24234 0.0
C1491 C 0.76841 0.10239 0.2426 0.0
C1492 C 0.76012 0.08001 0.21881 0.0
C1493 C 0.7838 0.08107 0.19513 0.0
C1494 C 0.81047 0.14987 0.26707 0.0
C1495 C 0.72599 0.05523 0.21825 0.0
C1496 C 0.72347 0.08257 0.31396 0.0
C1497 C 0.69413 0.10864 0.3144 0.0
C1498 C 0.74751 0.07972 0.29057 0.0
C1499 C 0.74238 0.10373 0.26718 0.0
C1500 C 0.7131 0.13031 0.26766 0.0
C1501 C 0.68942 0.13236 0.2911 0.0
C1502 C 0.77839 0.05099 0.29087 0.0
C1503 C 0.70683 0.15683 0.24342 0.0
H1504 H 0.84834 0.14353 0.21866 0.0
H1505 H 0.77724 0.06401 0.17698 0.0
H1506 H 0.78792 0.17065 0.27059 0.0
H1507 H 0.81273 0.13279 0.28643 0.0
H1508 H 0.83721 0.16512 0.26395 0.0
H1509 H 0.72436 0.03818 0.19878 0.0
H1510 H 0.72615 0.03617 0.23663 0.0
H1511 H 0.70038 0.0726 0.21979 0.0
H1512 H 0.7274 0.06406 0.33172 0.0
H1513 H 0.66706 0.1528 0.29109 0.0
H1514 H 0.80593 0.0651 0.28924 0.0
H1515 H 0.77572 0.03225 0.27241 0.0
H1516 H 0.77808 0.03372 0.31025 0.0
H1517 H 0.73206 0.17436 0.24018 0.0
H1518 H 0.68249 0.17556 0.24688 0.0
H1519 H 0.70217 0.14082 0.22377 0.0
C1520 C 0.3735 0.68097 0.29038 0.0
C1521 C 0.39636 0.6884 0.31376 0.0
C1522 C 0.37455 0.70361 0.2663 0.0
C1523 C 0.39923 0.73451 0.26527 0.0
C1524 C 0.4225 0.74218 0.28868 0.0
C1525 C 0.42066 0.7192 0.31267 0.0
C1526 C 0.34887 0.69464 0.24203 0.0
C1527 C 0.44924 0.77483 0.28843 0.0
C1528 C 0.42145 0.77657 0.19332 0.0
C1529 C 0.39743 0.8076 0.19266 0.0
C1530 C 0.42268 0.75273 0.21689 0.0
C1531 C 0.39914 0.75985 0.24028 0.0
C1532 C 0.37464 0.79087 0.23959 0.0
C1533 C 0.37414 0.81427 0.21595 0.0
C1534 C 0.44924 0.71996 0.21683 0.0
C1535 C 0.34876 0.79936 0.26385 0.0
H1536 H 0.35448 0.65739 0.29086 0.0
H1537 H 0.43849 0.72528 0.33048 0.0
H1538 H 0.32958 0.71841 0.23827 0.0
H1539 H 0.3654 0.69059 0.22255 0.0
H1540 H 0.33194 0.66909 0.24583 0.0
H1541 H 0.46658 0.77613 0.30775 0.0
H1542 H 0.46804 0.7729 0.26995 0.0
H1543 H 0.43339 0.80136 0.28648 0.0
H1544 H 0.43958 0.77108 0.17556 0.0
H1545 H 0.35526 0.83796 0.2158 0.0
H1546 H 0.43333 0.69349 0.21901 0.0
H1547 H 0.46842 0.72187 0.23508 0.0
H1548 H 0.46617 0.71857 0.1973 0.0
H1549 H 0.32985 0.77529 0.26761 0.0
H1550 H 0.33143 0.82464 0.26007 0.0
H1551 H 0.36522 0.8037 0.28332 0.0
C1552 C 0.68682 0.3718 0.21803 0.0
C1553 C 0.69252 0.39519 0.19467 0.0
C1554 C 0.71018 0.37348 0.24168 0.0
C1555 C 0.74012 0.39931 0.24228 0.0
C1556 C 0.74628 0.42291 0.21879 0.0
C1557 C 0.72254 0.42047 0.19522 0.0
C1558 C 0.70276 0.34747 0.26606 0.0
C1559 C 0.77788 0.45087 0.21862 0.0
C1560 C 0.77963 0.42375 0.31451 0.0
C1561 C 0.81147 0.40086 0.31584 0.0
C1562 C 0.75659 0.42413 0.29051 0.0
C1563 C 0.76533 0.40085 0.26732 0.0
C1564 C 0.79734 0.37765 0.26856 0.0
C1565 C 0.81997 0.378 0.29266 0.0
C1566 C 0.72274 0.4493 0.29004 0.0
C1567 C 0.80751 0.35206 0.2445 0.0
H1568 H 0.66392 0.35195 0.21796 0.0
H1569 H 0.72728 0.43868 0.17739 0.0
H1570 H 0.72766 0.32974 0.26999 0.0
H1571 H 0.69758 0.36392 0.28542 0.0
H1572 H 0.67833 0.32895 0.26231 0.0
H1573 H 0.77865 0.46758 0.19897 0.0
H1574 H 0.77501 0.47022 0.23671 0.0
H1575 H 0.805 0.43618 0.22102 0.0
H1576 H 0.77271 0.44155 0.33218 0.0
H1577 H 0.84437 0.36006 0.29332 0.0
H1578 H 0.69698 0.43221 0.28816 0.0
H1579 H 0.72385 0.46795 0.27144 0.0
H1580 H 0.72057 0.4668 0.30925 0.0
H1581 H 0.83377 0.33634 0.24847 0.0
H1582 H 0.81088 0.36848 0.22491 0.0
H1583 H 0.78463 0.33168 0.24085 0.0
C1584 C 0.92085 0.222 0.69441 0.0
C1585 C 0.89523 0.19229 0.69346 0.0
C1586 C 0.92246 0.24612 0.71781 0.0
C1587 C 0.89763 0.24068 0.74069 0.0
C1588 C 0.87138 0.21113 0.73962 0.0
C1589 C 0.87057 0.18736 0.71618 0.0
C1590 C 0.9509 0.27727 0.71817 0.0
C1591 C 0.84405 0.20452 0.76331 0.0
C1592 C 0.91915 0.28037 0.81336 0.0
C1593 C 0.89669 0.31256 0.81396 0.0
C1594 C 0.92039 0.25719 0.78946 0.0
C1595 C 0.89842 0.26614 0.7656 0.0
C1596 C 0.8757 0.29852 0.76608 0.0
C1597 C 0.87518 0.32129 0.79012 0.0
C1598 C 0.94501 0.22293 0.7898 0.0
C1599 C 0.85149 0.30892 0.74129 0.0
H1600 H 0.94002 0.22615 0.67708 0.0
H1601 H 0.85043 0.16473 0.71575 0.0
H1602 H 0.93656 0.30465 0.72009 0.0
H1603 H 0.96941 0.27427 0.73672 0.0
H1604 H 0.96846 0.2776 0.69892 0.0
H1605 H 0.85943 0.19922 0.78313 0.0
H1606 H 0.82664 0.22981 0.76662 0.0
H1607 H 0.82523 0.18041 0.75919 0.0
H1608 H 0.93592 0.27328 0.83154 0.0
H1609 H 0.85761 0.34597 0.7902 0.0
H1610 H 0.9645 0.22353 0.77167 0.0
H1611 H 0.92759 0.19744 0.78764 0.0
H1612 H 0.96161 0.2207 0.80945 0.0
H1613 H 0.86891 0.31176 0.72214 0.0
H1614 H 0.83612 0.33553 0.74469 0.0
H1615 H 0.83086 0.28641 0.73722 0.0
C1616 C 0.28167 0.92 0.69465 0.0
C1617 C 0.31314 0.8966 0.69332 0.0
C1618 C 0.25821 0.92021 0.71841 0.0
C1619 C 0.2661 0.8962 0.74134 0.0
C1620 C 0.29761 0.87234 0.74004 0.0
C1621 C 0.32071 0.8729 0.71619 0.0
C1622 C 0.22493 0.94614 0.71898 0.0
C1623 C 0.30686 0.84598 0.76383 0.0
C1624 C 0.2242 0.91662 0.81353 0.0
C1625 C 0.19328 0.89245 0.81404 0.0
C1626 C 0.24793 0.91842 0.78995 0.0
C1627 C 0.2409 0.8952 0.76639 0.0
C1628 C 0.21009 0.87038 0.76695 0.0
C1629 C 0.18668 0.8694 0.79062 0.0
C1630 C 0.28042 0.94534 0.79016 0.0
C1631 C 0.20179 0.84477 0.7425 0.0
H1632 H 0.27544 0.93841 0.6772 0.0
H1633 H 0.34478 0.85452 0.7155 0.0
H1634 H 0.19878 0.92966 0.72089 0.0
H1635 H 0.22655 0.96471 0.7376 0.0
H1636 H 0.22312 0.96374 0.69981 0.0
H1637 H 0.3325 0.82935 0.75966 0.0
H1638 H 0.31094 0.86198 0.78356 0.0
H1639 H 0.28324 0.82644 0.76737 0.0
H1640 H 0.22968 0.93453 0.83141 0.0
H1641 H 0.16307 0.85041 0.7907 0.0
H1642 H 0.27816 0.96488 0.77215 0.0
H1643 H 0.30705 0.92979 0.78767 0.0
H1644 H 0.28179 0.96191 0.80987 0.0
H1645 H 0.19703 0.86149 0.72321 0.0
H1646 H 0.17681 0.82698 0.74625 0.0
H1647 H 0.22612 0.82632 0.73842 0.0
C1648 C 0.58577 0.21769 0.81193 0.0
C1649 C 0.60938 0.18633 0.81231 0.0
C1650 C 0.58407 0.24136 0.78833 0.0
C1651 C 0.60677 0.2338 0.76458 0.0
C1652 C 0.63075 0.20234 0.76488 0.0
C1653 C 0.63169 0.17903 0.78861 0.0
C1654 C 0.55809 0.2746 0.78885 0.0
C1655 C 0.65577 0.19344 0.7402 0.0
C1656 C 0.58364 0.27791 0.69354 0.0
C1657 C 0.6082 0.30852 0.69293 0.0
C1658 C 0.58256 0.25354 0.7168 0.0
C1659 C 0.60681 0.25968 0.73991 0.0
C1660 C 0.63188 0.29027 0.73927 0.0
C1661 C 0.6322 0.31424 0.71594 0.0
C1662 C 0.55538 0.22127 0.7167 0.0
C1663 C 0.65853 0.2977 0.76324 0.0
H1664 H 0.56838 0.22369 0.83001 0.0
H1665 H 0.65018 0.15503 0.78855 0.0
H1666 H 0.57449 0.30081 0.78699 0.0
H1667 H 0.53881 0.27349 0.77062 0.0
H1668 H 0.54125 0.27588 0.80843 0.0
H1669 H 0.67229 0.1675 0.74349 0.0
H1670 H 0.63877 0.19011 0.72089 0.0
H1671 H 0.67541 0.21693 0.73649 0.0
H1672 H 0.56498 0.27314 0.67598 0.0
H1673 H 0.6515 0.3376 0.71581 0.0
H1674 H 0.53665 0.22314 0.73522 0.0
H1675 H 0.57082 0.19446 0.71835 0.0
H1676 H 0.53798 0.22062 0.69738 0.0
H1677 H 0.67628 0.32271 0.75952 0.0
H1678 H 0.67701 0.27317 0.76644 0.0
H1679 H 0.64264 0.30193 0.783 0.0
C1680 C 0.28285 0.58494 0.81328 0.0
C1681 C 0.31502 0.60744 0.81391 0.0
C1682 C 0.25914 0.58451 0.78966 0.0
C1683 C 0.26753 0.60732 0.76613 0.0
C1684 C 0.29991 0.63005 0.76664 0.0
C1685 C 0.3232 0.62977 0.79038 0.0
C1686 C 0.2249 0.55985 0.78997 0.0
C1687 C 0.30975 0.65511 0.7422 0.0
C1688 C 0.22178 0.58754 0.69506 0.0
C1689 C 0.19212 0.61325 0.695 0.0
C1690 C 0.24638 0.58503 0.71812 0.0
C1691 C 0.24149 0.609 0.74158 0.0
C1692 C 0.21198 0.63533 0.74142 0.0
C1693 C 0.18773 0.63705 0.7183 0.0
C1694 C 0.27749 0.55655 0.71749 0.0
C1695 C 0.20591 0.66177 0.76576 0.0
H1696 H 0.27619 0.56753 0.83121 0.0
H1697 H 0.34786 0.64738 0.79049 0.0
H1698 H 0.19935 0.57733 0.78852 0.0
H1699 H 0.22506 0.54104 0.77144 0.0
H1700 H 0.22313 0.54255 0.80929 0.0
H1701 H 0.33647 0.67032 0.74552 0.0
H1702 H 0.31207 0.63838 0.72266 0.0
H1703 H 0.28718 0.67592 0.73887 0.0
H1704 H 0.2255 0.56901 0.67729 0.0
H1705 H 0.16515 0.65724 0.71858 0.0
H1706 H 0.27489 0.53739 0.73571 0.0
H1707 H 0.30493 0.5708 0.71933 0.0
H1708 H 0.27734 0.53968 0.6979 0.0
H1709 H 0.2011 0.64565 0.78533 0.0
H1710 H 0.1817 0.68069 0.76237 0.0
H1711 H 0.23126 0.67908 0.76908 0.0
C1712 C 0.03328 0.57268 0.0271 0.0
C1713 C 0.05663 0.56007 0.04872 0.0
C1714 C 0.01284 0.5472 0.01051 0.0
C1715 C 0.0145 0.50837 0.01656 0.0
C1716 C 0.0374 0.49575 0.03891 0.0
C1717 C 0.05868 0.52166 0.05431 0.0
C1718 C 0.98992 0.56177 0.98627 0.0
C1719 C 0.03898 0.45493 0.04689 0.0
C1720 C 0.93523 0.44691 0.98872 0.0
C1721 C 0.95261 0.42844 0.96624 0.0
C1722 C 0.95518 0.47237 0.00564 0.0
C1723 C 0.99299 0.48081 0.99923 0.0
C1724 C 0.01049 0.46246 0.97638 0.0
C1725 C 0.9904 0.43598 0.96062 0.0
C1726 C 0.93584 0.4901 0.03047 0.0
C1727 C 0.05028 0.47139 0.96814 0.0
H1728 H 0.03155 0.60241 0.02286 0.0
H1729 H 0.07605 0.51194 0.07145 0.0
H1730 H 0.99878 0.54789 0.9665 0.0
H1731 H 0.95999 0.555 0.98951 0.0
H1732 H 0.99273 0.5925 0.98364 0.0
H1733 H 0.05663 0.44995 0.06572 0.0
H1734 H 0.01036 0.4444 0.0512 0.0
H1735 H 0.05038 0.43826 0.02922 0.0
H1736 H 0.90608 0.4412 0.99323 0.0
H1737 H 0.0041 0.42204 0.94325 0.0
H1738 H 0.93404 0.52078 0.02746 0.0
H1739 H 0.95231 0.48515 0.04986 0.0
H1740 H 0.90714 0.47898 0.03362 0.0
H1741 H 0.0533 0.50187 0.96445 0.0
H1742 H 0.05913 0.45627 0.94887 0.0
H1743 H 0.06959 0.46382 0.98544 0.0
C1744 C 0.05135 0.9301 0.9857 0.0
C1745 C 0.07049 0.94766 0.96363 0.0
C1746 C 0.02574 0.95003 1.00251 0.0
C1747 C 0.01789 0.98805 0.99639 0.0
C1748 C 0.03683 0.00571 0.97388 0.0
C1749 C 0.06339 0.98559 0.95823 0.0
C1750 C 0.00731 0.93049 0.02696 0.0
C1751 C 0.02857 0.04575 0.96598 0.0
C1752 C 0.9265 0.02958 0.02417 0.0
C1753 C 0.93937 0.05229 0.04609 0.0
C1754 C 0.95175 0.00892 0.00752 0.0
C1755 C 0.99054 0.00971 0.01381 0.0
C1756 C 0.00337 0.03193 0.03648 0.0
C1757 C 0.97773 0.05342 0.05196 0.0
C1758 C 0.93699 0.98672 0.98296 0.0
C1759 C 0.04413 0.0326 0.0447 0.0
H1760 H 0.05671 0.90084 0.99004 0.0
H1761 H 0.07782 0.99941 0.94114 0.0
H1762 H 0.01249 0.94637 0.04661 0.0
H1763 H 0.97663 0.92951 0.02379 0.0
H1764 H 0.01771 0.90147 0.02975 0.0
H1765 H 0.04398 0.05468 0.94686 0.0
H1766 H 0.99816 0.0493 0.96219 0.0
H1767 H 0.03631 0.06466 0.98349 0.0
H1768 H 0.89679 0.02854 0.01974 0.0
H1769 H 0.9876 0.07026 0.06935 0.0
H1770 H 0.94328 0.95662 0.98586 0.0
H1771 H 0.95113 0.99578 0.96335 0.0
H1772 H 0.90632 0.99005 0.98025 0.0
H1773 H 0.0541 0.00371 0.04871 0.0
H1774 H 0.04925 0.04976 0.06377 0.0
H1775 H 0.06117 0.04407 0.02726 0.0
C1776 C 0.44693 0.97294 0.05055 0.0
C1777 C 0.44893 0.93444 0.04529 0.0
C1778 C 0.46837 0.99856 0.03502 0.0
C1779 C 0.49144 0.98556 0.01289 0.0
C1780 C 0.49308 0.94663 0.00718 0.0
C1781 C 0.47244 0.92144 0.02389 0.0
C1782 C 0.46675 0.03951 0.04263 0.0
C1783 C 0.51619 0.93165 0.98317 0.0
C1784 C 0.51586 0.05741 0.95666 0.0
C1785 C 0.55352 0.06528 0.96252 0.0
C1786 C 0.49576 0.0309 0.97238 0.0
C1787 C 0.5131 0.01285 0.99542 0.0
C1788 C 0.55081 0.0215 1.002 0.0
C1789 C 0.57078 0.04701 0.98512 0.0
C1790 C 0.45609 0.02175 0.96398 0.0
C1791 C 0.56997 0.00406 0.027 0.0
H1792 H 0.42946 0.98296 0.06753 0.0
H1793 H 0.47415 0.89165 0.01991 0.0
H1794 H 0.49535 0.05012 0.04692 0.0
H1795 H 0.45545 0.05588 0.02478 0.0
H1796 H 0.44901 0.0448 0.06137 0.0
H1797 H 0.51342 0.90087 0.98083 0.0
H1798 H 0.50747 0.94517 0.96324 0.0
H1799 H 0.5461 0.9385 0.98647 0.0
H1800 H 0.50227 0.07118 0.93917 0.0
H1801 H 0.59983 0.05298 0.98982 0.0
H1802 H 0.43657 0.02962 0.98107 0.0
H1803 H 0.45314 0.99119 0.96059 0.0
H1804 H 0.44745 0.03649 0.9445 0.0
H1805 H 0.55346 0.00947 0.04632 0.0
H1806 H 0.59873 0.01504 0.0301 0.0
H1807 H 0.57156 0.97332 0.0243 0.0
C1808 C 0.45161 0.56536 0.98736 0.0
C1809 C 0.43344 0.54831 0.96462 0.0
C1810 C 0.47693 0.54522 1.00426 0.0
C1811 C 0.48552 0.50753 0.99756 0.0
C1812 C 0.46754 0.49037 0.9744 0.0
C1813 C 0.44119 0.51065 0.95866 0.0
C1814 C 0.4943 0.5642 0.02938 0.0
C1815 C 0.47665 0.45074 0.96586 0.0
C1816 C 0.57697 0.46707 0.02605 0.0
C1817 C 0.56403 0.44348 0.04742 0.0
C1818 C 0.55174 0.48758 0.0093 0.0
C1819 C 0.51281 0.48577 0.01495 0.0
C1820 C 0.49985 0.46257 0.03702 0.0
C1821 C 0.52552 0.44123 0.05258 0.0
C1822 C 0.5667 0.51082 0.98536 0.0
C1823 C 0.45889 0.4608 0.04458 0.0
H1824 H 0.44573 0.59441 0.99213 0.0
H1825 H 0.42751 0.49722 0.94105 0.0
H1826 H 0.48898 0.54748 0.0486 0.0
H1827 H 0.52503 0.56596 0.02666 0.0
H1828 H 0.4832 0.59287 0.03265 0.0
H1829 H 0.46185 0.44219 0.94639 0.0
H1830 H 0.5072 0.44783 0.96241 0.0
H1831 H 0.46885 0.43113 0.98291 0.0
H1832 H 0.60677 0.46898 0.02214 0.0
H1833 H 0.51553 0.42368 0.06953 0.0
H1834 H 0.55996 0.54072 0.9888 0.0
H1835 H 0.55309 0.50229 0.96542 0.0
H1836 H 0.59746 0.50799 0.98294 0.0
H1837 H 0.44826 0.48933 0.04909 0.0
H1838 H 0.45358 0.44281 0.06318 0.0
H1839 H 0.44254 0.44972 0.02664 0.0
C1840 C 0.06897 0.94924 0.48782 0.0
C1841 C 0.05173 0.9308 0.46529 0.0
C1842 C 0.04893 0.97467 0.50471 0.0
C1843 C 0.01114 0.98307 0.4982 0.0
C1844 C 0.99379 0.96479 0.47526 0.0
C1845 C 0.01398 0.93836 0.45953 0.0
C1846 C 0.06811 0.99237 0.52961 0.0
C1847 C 0.95403 0.97367 0.46693 0.0
C1848 C 0.94508 0.02338 0.55325 0.0
C1849 C 0.94701 0.06183 0.54777 0.0
C1850 C 0.96651 0.99764 0.53781 0.0
C1851 C 0.98947 0.01047 0.51556 0.0
C1852 C 0.99102 0.04933 0.50963 0.0
C1853 C 0.97042 0.07464 0.52624 0.0
C1854 C 0.96502 0.95677 0.54566 0.0
C1855 C 0.01401 0.06411 0.48548 0.0
H1856 H 0.09809 0.94351 0.49244 0.0
H1857 H 1.00039 0.92444 0.4421 0.0
H1858 H 0.06973 0.02308 0.52672 0.0
H1859 H 0.05161 0.98719 0.54897 0.0
H1860 H 0.09686 0.98141 0.53276 0.0
H1861 H 0.94532 0.95865 0.44759 0.0
H1862 H 0.93464 0.96596 0.48415 0.0
H1863 H 0.95097 0.00417 0.46334 0.0
H1864 H 0.92766 0.01351 0.57032 0.0
H1865 H 0.97207 0.1044 0.5221 0.0
H1866 H 0.99365 0.94632 0.55001 0.0
H1867 H 0.95376 0.94016 0.52792 0.0
H1868 H 0.9473 0.95163 0.56444 0.0
H1869 H 0.04395 0.05742 0.48878 0.0
H1870 H 0.01112 0.09485 0.48295 0.0
H1871 H 0.00529 0.05032 0.46565 0.0
C1872 C 0.52329 0.0662 0.45568 0.0
C1873 C 0.56184 0.06295 0.46036 0.0
C1874 C 0.49742 0.04503 0.4712 0.0
C1875 C 0.51026 0.02096 0.49276 0.0
C1876 C 0.54923 0.01819 0.49801 0.0
C1877 C 0.5746 0.03858 0.4813 0.0
C1878 C 0.45638 0.04786 0.46408 0.0
C1879 C 0.56408 0.99398 0.52143 0.0
C1880 C 0.43911 0.99564 0.54931 0.0
C1881 C 0.43056 0.95832 0.54276 0.0
C1882 C 0.46556 0.01593 0.53365 0.0
C1883 C 0.48283 0.99918 0.51002 0.0
C1884 C 0.47342 0.96188 0.50275 0.0
C1885 C 0.44802 0.94166 0.51954 0.0
C1886 C 0.47556 0.05511 0.54279 0.0
C1887 C 0.49002 0.94339 0.47713 0.0
H1888 H 0.51337 0.08439 0.4391 0.0
H1889 H 0.60441 0.03591 0.48487 0.0
H1890 H 0.44511 0.0197 0.45916 0.0
H1891 H 0.44056 0.05865 0.48239 0.0
H1892 H 0.45114 0.06656 0.44588 0.0
H1893 H 0.59492 0.99623 0.52366 0.0
H1894 H 0.55087 0.00212 0.54162 0.0
H1895 H 0.55679 0.96431 0.51751 0.0
H1896 H 0.42599 0.00875 0.56728 0.0
H1897 H 0.44152 0.91289 0.51431 0.0
H1898 H 0.46791 0.07539 0.52615 0.0
H1899 H 0.5062 0.05733 0.54604 0.0
H1900 H 0.46119 0.06334 0.56254 0.0
H1901 H 0.48473 0.96081 0.45826 0.0
H1902 H 0.47832 0.91503 0.47346 0.0
H1903 H 0.52075 0.94096 0.47952 0.0
C1904 C 0.53312 0.42506 0.52468 0.0
C1905 C 0.55534 0.43758 0.54699 0.0
C1906 C 0.51263 0.45054 0.50814 0.0
C1907 C 0.51308 0.48919 0.51492 0.0
C1908 C 0.5348 0.50166 0.53797 0.0
C1909 C 0.55615 0.47582 0.55335 0.0
C1910 C 0.49098 0.43618 0.48317 0.0
C1911 C 0.53508 0.54225 0.5467 0.0
C1912 C 0.48947 0.56277 0.45979 0.0
C1913 C 0.45137 0.56946 0.46485 0.0
C1914 C 0.50953 0.53619 0.47546 0.0
C1915 C 0.4916 0.51678 0.49761 0.0
C1916 C 0.45342 0.52424 0.50342 0.0
C1917 C 0.43359 0.54992 0.48662 0.0
C1918 C 0.54979 0.52838 0.46791 0.0
C1919 C 0.43356 0.50525 0.52747 0.0
H1920 H 0.53236 0.39544 0.51987 0.0
H1921 H 0.57265 0.4854 0.57102 0.0
H1922 H 0.4608 0.44227 0.48583 0.0
H1923 H 0.50035 0.45077 0.46384 0.0
H1924 H 0.49451 0.40559 0.48014 0.0
H1925 H 0.55188 0.54706 0.56598 0.0
H1926 H 0.54673 0.55973 0.52958 0.0
H1927 H 0.50607 0.55195 0.55057 0.0
H1928 H 0.50348 0.5775 0.44293 0.0
H1929 H 0.4042 0.55494 0.49069 0.0
H1930 H 0.5536 0.49809 0.46373 0.0
H1931 H 0.56828 0.53579 0.48574 0.0
H1932 H 0.55902 0.54431 0.44911 0.0
H1933 H 0.43272 0.47463 0.52391 0.0
H1934 H 0.40445 0.51549 0.53013 0.0
H1935 H 0.44909 0.51006 0.54732 0.0
C1936 C 0.94406 0.44423 0.49075 0.0
C1937 C 0.92638 0.4611 0.46772 0.0
C1938 C 0.96937 0.46438 0.50766 0.0
C1939 C 0.97847 0.50186 0.5007 0.0
C1940 C 0.96092 0.51886 0.47729 0.0
C1941 C 0.93456 0.4986 0.46153 0.0
C1942 C 0.98624 0.44562 0.53306 0.0
C1943 C 0.9706 0.55824 0.46846 0.0
C1944 C 0.01911 0.56842 0.55532 0.0
C1945 C 0.05763 0.56545 0.55036 0.0
C1946 C 0.99321 0.54727 0.53982 0.0
C1947 C 0.00595 0.52353 0.518 0.0
C1948 C 0.04488 0.52103 0.51251 0.0
C1949 C 0.07032 0.54137 0.5292 0.0
C1950 C 0.95223 0.54978 0.5472 0.0
C1951 C 0.05964 0.4972 0.48882 0.0
H1952 H 0.93785 0.41531 0.49571 0.0
H1953 H 0.92124 0.5119 0.44372 0.0
H1954 H 0.01695 0.44326 0.53047 0.0
H1955 H 0.9811 0.4628 0.55208 0.0
H1956 H 0.97462 0.4172 0.53659 0.0
H1957 H 0.95601 0.56669 0.44887 0.0
H1958 H 0.963 0.5782 0.48533 0.0
H1959 H 1.0012 0.56069 0.46506 0.0
H1960 H 0.00927 0.5864 0.57208 0.0
H1961 H 0.10011 0.53892 0.52543 0.0
H1962 H 0.94114 0.5215 0.55194 0.0
H1963 H 0.93617 0.56077 0.52908 0.0
H1964 H 0.94707 0.56819 0.56559 0.0
H1965 H 0.05249 0.46744 0.49253 0.0
H1966 H 0.09044 0.49959 0.48646 0.0
H1967 H 0.04623 0.50556 0.46876 0.0
loop_
_geom_bond_atom_site_label_1
_geom_bond_atom_site_label_2
_geom_bond_distance
_geom_bond_site_symmetry_2
_ccdc_geom_bond_type
Co0 O2 2.143 . S
Co0 O8 2.074 . S
Co0 O11 2.093 . S
Co0 O24 2.097 . S
Co0 N41 2.151 . S
Co0 N49 2.214 . S
Co1 O2 2.160 . S
Co1 O7 2.058 . S
Co1 O17 2.057 . S
Co1 O32 2.037 . S
Co1 N36 2.145 . S
Co1 N57 2.257 1_455 S
O2 Co0 2.143 . S
O2 Co1 2.160 . S
C3 O4 1.278 1_455 S
C3 O11 1.224 . S
O4 C3 1.278 1_655 S
C5 O6 1.245 . S
C5 O17 1.232 . S
O6 C5 1.245 . S
O7 Co1 2.058 . S
O7 C33 1.269 . S
O8 Co0 2.074 . S
O8 C33 1.257 . S
H9 C34 0.930 . S
H10 C40 0.930 . S
O11 Co0 2.093 . S
O11 C3 1.224 . S
H12 C44 0.929 . S
H13 C46 0.930 . S
H14 C47 0.930 . S
H15 C45 0.929 . S
H16 C48 0.928 . S
O17 Co1 2.057 . S
O17 C5 1.232 . S
H18 C37 0.929 . S
H19 C38 0.929 . S
H20 C50 0.931 . S
H21 C42 0.929 . S
H22 C51 0.930 . S
H23 C43 0.931 . S
O24 Co0 2.097 . S
O24 C52 1.214 . S
H25 C53 0.929 . S
H26 C54 0.929 . S
H27 C55 0.930 . S
H28 C56 0.929 . S
H29 C58 0.930 . S
H30 C35 0.930 . S
H31 C39 0.930 . S
O32 Co1 2.037 . S
O32 C52 1.234 . S
C33 O7 1.269 . S
C33 O8 1.257 . S
C34 H9 0.930 . S
C34 C37 1.388 . S
C34 C39 1.418 . S
C35 H30 0.930 . S
C35 C38 1.404 . S
C35 C39 1.353 . S
N36 Co1 2.145 . S
N36 C37 1.397 . S
N36 C38 1.334 . S
C37 H18 0.929 . S
C37 C34 1.388 . S
C37 N36 1.397 . S
C38 H19 0.929 . S
C38 C35 1.404 . S
C38 N36 1.334 . S
C39 H31 0.930 . S
C39 C34 1.418 . S
C39 C35 1.353 . S
C40 H10 0.930 . S
C40 N41 1.330 . S
C40 C42 1.446 . S
N41 Co0 2.151 . S
N41 C40 1.330 . S
N41 C45 1.418 . S
C42 H21 0.929 . S
C42 C40 1.446 . S
C42 C43 1.332 . S
C43 H23 0.931 . S
C43 C42 1.332 . S
C43 C44 1.267 . S
C44 H12 0.929 . S
C44 C43 1.267 . S
C44 C45 1.251 . S
C45 H15 0.929 . S
C45 N41 1.418 . S
C45 C44 1.251 . S
C46 H13 0.930 . S
C46 C48 1.406 . S
C46 C51 1.261 . S
C47 H14 0.930 . S
C47 N49 1.325 . S
C47 C50 1.357 . S
C48 H16 0.928 . S
C48 C46 1.406 . S
C48 N49 1.261 . S
N49 Co0 2.214 . S
N49 C47 1.325 . S
N49 C48 1.261 . S
C50 H20 0.931 . S
C50 C47 1.357 . S
C50 C51 1.312 . S
C51 H22 0.930 . S
C51 C46 1.261 . S
C51 C50 1.312 . S
C52 O24 1.214 . S
C52 O32 1.234 . S
C53 H25 0.929 . S
C53 C56 1.391 . S
C53 C58 1.391 . S
C54 H26 0.929 . S
C54 C55 1.390 . S
C54 N57 1.391 . S
C55 H27 0.930 . S
C55 C54 1.390 . S
C55 C56 1.392 . S
C56 H28 0.929 . S
C56 C53 1.391 . S
C56 C55 1.392 . S
N57 Co1 2.257 1_655 S
N57 C54 1.391 . S
N57 C58 1.388 . S
C58 H29 0.930 . S
C58 C53 1.391 . S
C58 N57 1.388 . S
Co59 O61 2.143 . S
Co59 O67 2.074 . S
Co59 O70 2.093 . S
Co59 O83 2.097 . S
Co59 N100 2.151 . S
Co59 N108 2.214 . S
Co60 O61 2.160 . S
Co60 O66 2.058 . S
Co60 O76 2.057 . S
Co60 O91 2.037 . S
Co60 N95 2.145 . S
Co60 N116 2.257 1_545 S
O61 Co59 2.143 . S
O61 Co60 2.160 . S
C62 O63 1.278 1_545 S
C62 O70 1.224 . S
O63 C62 1.278 1_565 S
C64 O65 1.245 . S
C64 O76 1.232 . S
O65 C64 1.245 . S
O66 Co60 2.058 . S
O66 C92 1.269 . S
O67 Co59 2.074 . S
O67 C92 1.257 . S
H68 C93 0.930 . S
H69 C99 0.930 . S
O70 Co59 2.093 . S
O70 C62 1.224 . S
H71 C103 0.929 . S
H72 C105 0.930 . S
H73 C106 0.930 . S
H74 C104 0.929 . S
H75 C107 0.928 . S
O76 Co60 2.057 . S
O76 C64 1.232 . S
H77 C96 0.929 . S
H78 C97 0.929 . S
H79 C109 0.931 . S
H80 C101 0.929 1_455 S
H81 C110 0.930 . S
H82 C102 0.929 1_455 S
O83 Co59 2.097 . S
O83 C111 1.214 . S
H84 C112 0.929 . S
H85 C113 0.929 . S
H86 C114 0.930 . S
H87 C115 0.929 . S
H88 C117 0.930 . S
H89 C94 0.930 . S
H90 C98 0.930 . S
O91 Co60 2.037 . S
O91 C111 1.234 . S
C92 O66 1.269 . S
C92 O67 1.257 . S
C93 H68 0.930 . S
C93 C96 1.388 . S
C93 C98 1.418 . S
C94 H89 0.930 . S
C94 C97 1.404 . S
C94 C98 1.353 . S
N95 Co60 2.145 . S
N95 C96 1.397 . S
N95 C97 1.334 . S
C96 H77 0.929 . S
C96 C93 1.388 . S
C96 N95 1.397 . S
C97 H78 0.929 . S
C97 C94 1.404 . S
C97 N95 1.334 . S
C98 H90 0.930 . S
C98 C93 1.418 . S
C98 C94 1.353 . S
C99 H69 0.930 . S
C99 N100 1.330 . S
C99 C101 1.446 . S
N100 Co59 2.151 . S
N100 C99 1.330 . S
N100 C104 1.418 . S
C101 H80 0.929 1_655 S
C101 C99 1.446 . S
C101 C102 1.332 . S
C102 H82 0.929 1_655 S
C102 C101 1.332 . S
C102 C103 1.267 . S
C103 H71 0.929 . S
C103 C102 1.267 . S
C103 C104 1.251 . S
C104 H74 0.929 . S
C104 N100 1.418 . S
C104 C103 1.251 . S
C105 H72 0.930 . S
C105 C107 1.406 . S
C105 C110 1.261 . S
C106 H73 0.930 . S
C106 N108 1.325 . S
C106 C109 1.357 . S
C107 H75 0.928 . S
C107 C105 1.406 . S
C107 N108 1.261 . S
N108 Co59 2.214 . S
N108 C106 1.325 . S
N108 C107 1.261 . S
C109 H79 0.931 . S
C109 C106 1.357 . S
C109 C110 1.312 . S
C110 H81 0.930 . S
C110 C105 1.261 . S
C110 C109 1.312 . S
C111 O83 1.214 . S
C111 O91 1.234 . S
C112 H84 0.929 . S
C112 C115 1.391 . S
C112 C117 1.391 . S
C113 H85 0.929 . S
C113 C114 1.390 . S
C113 N116 1.391 . S
C114 H86 0.930 . S
C114 C113 1.390 . S
C114 C115 1.392 . S
C115 H87 0.929 . S
C115 C112 1.391 . S
C115 C114 1.392 . S
N116 Co60 2.257 1_565 S
N116 C113 1.391 . S
N116 C117 1.388 . S
C117 H88 0.930 . S
C117 C112 1.391 . S
C117 N116 1.388 . S
Co118 O120 2.143 . S
Co118 O126 2.074 . S
Co118 O129 2.093 . S
Co118 O142 2.097 . S
Co118 N159 2.151 . S
Co118 N167 2.214 . S
Co119 O120 2.160 . S
Co119 O125 2.058 . S
Co119 O135 2.057 . S
Co119 O150 2.037 . S
Co119 N154 2.145 . S
Co119 N175 2.257 . S
O120 Co118 2.143 . S
O120 Co119 2.160 . S
C121 O122 1.278 . S
C121 O129 1.224 . S
O122 C121 1.278 . S
C123 O124 1.245 . S
C123 O135 1.232 . S
O124 C123 1.245 . S
O125 Co119 2.058 . S
O125 C151 1.269 . S
O126 Co118 2.074 . S
O126 C151 1.257 . S
H127 C152 0.930 . S
H128 C158 0.930 . S
O129 Co118 2.093 . S
O129 C121 1.224 . S
H130 C162 0.929 . S
H131 C164 0.930 . S
H132 C165 0.930 . S
H133 C163 0.929 . S
H134 C166 0.928 . S
O135 Co119 2.057 . S
O135 C123 1.232 . S
H136 C155 0.929 . S
H137 C156 0.929 . S
H138 C168 0.931 . S
H139 C160 0.929 1_545 S
H140 C169 0.930 . S
H141 C161 0.929 1_545 S
O142 Co118 2.097 . S
O142 C170 1.214 . S
H143 C171 0.929 . S
H144 C172 0.929 . S
H145 C173 0.930 . S
H146 C174 0.929 . S
H147 C176 0.930 . S
H148 C153 0.930 . S
H149 C157 0.930 . S
O150 Co119 2.037 . S
O150 C170 1.234 . S
C151 O125 1.269 . S
C151 O126 1.257 . S
C152 H127 0.930 . S
C152 C155 1.388 . S
C152 C157 1.418 . S
C153 H148 0.930 . S
C153 C156 1.404 . S
C153 C157 1.353 . S
N154 Co119 2.145 . S
N154 C155 1.397 . S
N154 C156 1.334 . S
C155 H136 0.929 . S
C155 C152 1.388 . S
C155 N154 1.397 . S
C156 H137 0.929 . S
C156 C153 1.404 . S
C156 N154 1.334 . S
C157 H149 0.930 . S
C157 C152 1.418 . S
C157 C153 1.353 . S
C158 H128 0.930 . S
C158 N159 1.330 . S
C158 C160 1.446 . S
N159 Co118 2.151 . S
N159 C158 1.330 . S
N159 C163 1.418 . S
C160 H139 0.929 1_565 S
C160 C158 1.446 . S
C160 C161 1.332 . S
C161 H141 0.929 1_565 S
C161 C160 1.332 . S
C161 C162 1.267 . S
C162 H130 0.929 . S
C162 C161 1.267 . S
C162 C163 1.251 . S
C163 H133 0.929 . S
C163 N159 1.418 . S
C163 C162 1.251 . S
C164 H131 0.930 . S
C164 C166 1.406 . S
C164 C169 1.261 . S
C165 H132 0.930 . S
C165 N167 1.325 . S
C165 C168 1.357 . S
C166 H134 0.928 . S
C166 C164 1.406 . S
C166 N167 1.261 . S
N167 Co118 2.214 . S
N167 C165 1.325 . S
N167 C166 1.261 . S
C168 H138 0.931 . S
C168 C165 1.357 . S
C168 C169 1.312 . S
C169 H140 0.930 . S
C169 C164 1.261 . S
C169 C168 1.312 . S
C170 O142 1.214 . S
C170 O150 1.234 . S
C171 H143 0.929 . S
C171 C174 1.391 . S
C171 C176 1.391 . S
C172 H144 0.929 . S
C172 C173 1.390 . S
C172 N175 1.391 . S
C173 H145 0.930 . S
C173 C172 1.390 . S
C173 C174 1.392 . S
C174 H146 0.929 . S
C174 C171 1.391 . S
C174 C173 1.392 . S
N175 Co119 2.257 . S
N175 C172 1.391 . S
N175 C176 1.388 . S
C176 H147 0.930 . S
C176 C171 1.391 . S
C176 N175 1.388 . S
Co177 O179 2.143 . S
Co177 O185 2.074 . S
Co177 O188 2.093 . S
Co177 O201 2.097 . S
Co177 N218 2.151 . S
Co177 N226 2.214 . S
Co178 O179 2.160 . S
Co178 O184 2.058 . S
Co178 O194 2.057 . S
Co178 O209 2.037 . S
Co178 N213 2.145 . S
Co178 N234 2.257 . S
O179 Co177 2.143 . S
O179 Co178 2.160 . S
C180 O181 1.278 . S
C180 O188 1.224 . S
O181 C180 1.278 . S
C182 O183 1.245 . S
C182 O194 1.232 . S
O183 C182 1.245 . S
O184 Co178 2.058 . S
O184 C210 1.269 . S
O185 Co177 2.074 . S
O185 C210 1.257 . S
H186 C211 0.930 . S
H187 C217 0.930 . S
O188 Co177 2.093 . S
O188 C180 1.224 . S
H189 C221 0.929 . S
H190 C223 0.930 . S
H191 C224 0.930 . S
H192 C222 0.929 . S
H193 C225 0.928 . S
O194 Co178 2.057 . S
O194 C182 1.232 . S
H195 C214 0.929 . S
H196 C215 0.929 . S
H197 C227 0.931 . S
H198 C219 0.929 . S
H199 C228 0.930 . S
H200 C220 0.931 . S
O201 Co177 2.097 . S
O201 C229 1.214 . S
H202 C230 0.929 . S
H203 C231 0.929 . S
H204 C232 0.930 . S
H205 C233 0.929 . S
H206 C235 0.930 . S
H207 C212 0.930 . S
H208 C216 0.930 . S
O209 Co178 2.037 . S
O209 C229 1.234 . S
C210 O184 1.269 . S
C210 O185 1.257 . S
C211 H186 0.930 . S
C211 C214 1.388 . S
C211 C216 1.418 . S
C212 H207 0.930 . S
C212 C215 1.404 . S
C212 C216 1.353 . S
N213 Co178 2.145 . S
N213 C214 1.397 . S
N213 C215 1.334 . S
C214 H195 0.929 . S
C214 C211 1.388 . S
C214 N213 1.397 . S
C215 H196 0.929 . S
C215 C212 1.404 . S
C215 N213 1.334 . S
C216 H208 0.930 . S
C216 C211 1.418 . S
C216 C212 1.353 . S
C217 H187 0.930 . S
C217 N218 1.330 . S
C217 C219 1.446 . S
N218 Co177 2.151 . S
N218 C217 1.330 . S
N218 C222 1.418 . S
C219 H198 0.929 . S
C219 C217 1.446 . S
C219 C220 1.332 . S
C220 H200 0.931 . S
C220 C219 1.332 . S
C220 C221 1.267 . S
C221 H189 0.929 . S
C221 C220 1.267 . S
C221 C222 1.251 . S
C222 H192 0.929 . S
C222 N218 1.418 . S
C222 C221 1.251 . S
C223 H190 0.930 . S
C223 C225 1.406 . S
C223 C228 1.261 . S
C224 H191 0.930 . S
C224 N226 1.325 . S
C224 C227 1.357 . S
C225 H193 0.928 . S
C225 C223 1.406 . S
C225 N226 1.261 . S
N226 Co177 2.214 . S
N226 C224 1.325 . S
N226 C225 1.261 . S
C227 H197 0.931 . S
C227 C224 1.357 . S
C227 C228 1.312 . S
C228 H199 0.930 . S
C228 C223 1.261 . S
C228 C227 1.312 . S
C229 O201 1.214 . S
C229 O209 1.234 . S
C230 H202 0.929 . S
C230 C233 1.391 . S
C230 C235 1.391 . S
C231 H203 0.929 . S
C231 C232 1.390 . S
C231 N234 1.391 . S
C232 H204 0.930 . S
C232 C231 1.390 . S
C232 C233 1.392 . S
C233 H205 0.929 . S
C233 C230 1.391 . S
C233 C232 1.392 . S
N234 Co178 2.257 . S
N234 C231 1.391 . S
N234 C235 1.388 . S
C235 H206 0.930 . S
C235 C230 1.391 . S
C235 N234 1.388 . S
Co236 O238 2.143 . S
Co236 O244 2.074 . S
Co236 O247 2.093 . S
Co236 O260 2.097 . S
Co236 N277 2.151 . S
Co236 N285 2.214 . S
Co237 O238 2.160 . S
Co237 O243 2.058 . S
Co237 O253 2.057 . S
Co237 O268 2.037 . S
Co237 N272 2.145 . S
Co237 N293 2.257 1_455 S
O238 Co236 2.143 . S
O238 Co237 2.160 . S
C239 O240 1.278 1_455 S
C239 O247 1.224 . S
O240 C239 1.278 1_655 S
C241 O242 1.245 . S
C241 O253 1.232 . S
O242 C241 1.245 . S
O243 Co237 2.058 . S
O243 C269 1.269 . S
O244 Co236 2.074 . S
O244 C269 1.257 . S
H245 C270 0.930 . S
H246 C276 0.930 . S
O247 Co236 2.093 . S
O247 C239 1.224 . S
H248 C280 0.929 . S
H249 C282 0.930 . S
H250 C283 0.930 . S
H251 C281 0.929 . S
H252 C284 0.928 . S
O253 Co237 2.057 . S
O253 C241 1.232 . S
H254 C273 0.929 . S
H255 C274 0.929 . S
H256 C286 0.931 . S
H257 C278 0.929 1_545 S
H258 C287 0.930 . S
H259 C279 0.929 1_545 S
O260 Co236 2.097 . S
O260 C288 1.214 . S
H261 C289 0.929 . S
H262 C290 0.929 . S
H263 C291 0.930 . S
H264 C292 0.929 . S
H265 C294 0.930 . S
H266 C271 0.930 . S
H267 C275 0.930 . S
O268 Co237 2.037 . S
O268 C288 1.234 . S
C269 O243 1.269 . S
C269 O244 1.257 . S
C270 H245 0.930 . S
C270 C273 1.388 . S
C270 C275 1.418 . S
C271 H266 0.930 . S
C271 C274 1.404 . S
C271 C275 1.353 . S
N272 Co237 2.145 . S
N272 C273 1.397 . S
N272 C274 1.334 . S
C273 H254 0.929 . S
C273 C270 1.388 . S
C273 N272 1.397 . S
C274 H255 0.929 . S
C274 C271 1.404 . S
C274 N272 1.334 . S
C275 H267 0.930 . S
C275 C270 1.418 . S
C275 C271 1.353 . S
C276 H246 0.930 . S
C276 N277 1.330 . S
C276 C278 1.446 . S
N277 Co236 2.151 . S
N277 C276 1.330 . S
N277 C281 1.418 . S
C278 H257 0.929 1_565 S
C278 C276 1.446 . S
C278 C279 1.332 . S
C279 H259 0.929 1_565 S
C279 C278 1.332 . S
C279 C280 1.267 . S
C280 H248 0.929 . S
C280 C279 1.267 . S
C280 C281 1.251 . S
C281 H251 0.929 . S
C281 N277 1.418 . S
C281 C280 1.251 . S
C282 H249 0.930 . S
C282 C284 1.406 . S
C282 C287 1.261 . S
C283 H250 0.930 . S
C283 N285 1.325 . S
C283 C286 1.357 . S
C284 H252 0.928 . S
C284 C282 1.406 . S
C284 N285 1.261 . S
N285 Co236 2.214 . S
N285 C283 1.325 . S
N285 C284 1.261 . S
C286 H256 0.931 . S
C286 C283 1.357 . S
C286 C287 1.312 . S
C287 H258 0.930 . S
C287 C282 1.261 . S
C287 C286 1.312 . S
C288 O260 1.214 . S
C288 O268 1.234 . S
C289 H261 0.929 . S
C289 C292 1.391 . S
C289 C294 1.391 . S
C290 H262 0.929 . S
C290 C291 1.390 . S
C290 N293 1.391 . S
C291 H263 0.930 . S
C291 C290 1.390 . S
C291 C292 1.392 . S
C292 H264 0.929 . S
C292 C289 1.391 . S
C292 C291 1.392 . S
N293 Co237 2.257 1_655 S
N293 C290 1.391 . S
N293 C294 1.388 . S
C294 H265 0.930 . S
C294 C289 1.391 . S
C294 N293 1.388 . S
Co295 O297 2.143 . S
Co295 O303 2.074 . S
Co295 O306 2.093 . S
Co295 O319 2.097 . S
Co295 N336 2.151 . S
Co295 N344 2.214 . S
Co296 O297 2.160 . S
Co296 O302 2.058 . S
Co296 O312 2.057 . S
Co296 O327 2.037 . S
Co296 N331 2.145 . S
Co296 N352 2.257 1_545 S
O297 Co295 2.143 . S
O297 Co296 2.160 . S
C298 O299 1.278 1_545 S
C298 O306 1.224 . S
O299 C298 1.278 1_565 S
C300 O301 1.245 . S
C300 O312 1.232 . S
O301 C300 1.245 . S
O302 Co296 2.058 . S
O302 C328 1.269 . S
O303 Co295 2.074 . S
O303 C328 1.257 . S
H304 C329 0.930 . S
H305 C335 0.930 . S
O306 Co295 2.093 . S
O306 C298 1.224 . S
H307 C339 0.929 . S
H308 C341 0.930 . S
H309 C342 0.930 . S
H310 C340 0.929 . S
H311 C343 0.928 . S
O312 Co296 2.057 . S
O312 C300 1.232 . S
H313 C332 0.929 . S
H314 C333 0.929 . S
H315 C345 0.931 . S
H316 C337 0.929 . S
H317 C346 0.930 . S
H318 C338 0.931 . S
O319 Co295 2.097 . S
O319 C347 1.214 . S
H320 C348 0.929 . S
H321 C349 0.929 . S
H322 C350 0.930 . S
H323 C351 0.929 . S
H324 C353 0.930 . S
H325 C330 0.930 . S
H326 C334 0.930 . S
O327 Co296 2.037 . S
O327 C347 1.234 . S
C328 O302 1.269 . S
C328 O303 1.257 . S
C329 H304 0.930 . S
C329 C332 1.388 . S
C329 C334 1.418 . S
C330 H325 0.930 . S
C330 C333 1.404 . S
C330 C334 1.353 . S
N331 Co296 2.145 . S
N331 C332 1.397 . S
N331 C333 1.334 . S
C332 H313 0.929 . S
C332 C329 1.388 . S
C332 N331 1.397 . S
C333 H314 0.929 . S
C333 C330 1.404 . S
C333 N331 1.334 . S
C334 H326 0.930 . S
C334 C329 1.418 . S
C334 C330 1.353 . S
C335 H305 0.930 . S
C335 N336 1.330 . S
C335 C337 1.446 . S
N336 Co295 2.151 . S
N336 C335 1.330 . S
N336 C340 1.418 . S
C337 H316 0.929 . S
C337 C335 1.446 . S
C337 C338 1.332 . S
C338 H318 0.931 . S
C338 C337 1.332 . S
C338 C339 1.267 . S
C339 H307 0.929 . S
C339 C338 1.267 . S
C339 C340 1.251 . S
C340 H310 0.929 . S
C340 N336 1.418 . S
C340 C339 1.251 . S
C341 H308 0.930 . S
C341 C343 1.406 . S
C341 C346 1.261 . S
C342 H309 0.930 . S
C342 N344 1.325 . S
C342 C345 1.357 . S
C343 H311 0.928 . S
C343 C341 1.406 . S
C343 N344 1.261 . S
N344 Co295 2.214 . S
N344 C342 1.325 . S
N344 C343 1.261 . S
C345 H315 0.931 . S
C345 C342 1.357 . S
C345 C346 1.312 . S
C346 H317 0.930 . S
C346 C341 1.261 . S
C346 C345 1.312 . S
C347 O319 1.214 . S
C347 O327 1.234 . S
C348 H320 0.929 . S
C348 C351 1.391 . S
C348 C353 1.391 . S
C349 H321 0.929 . S
C349 C350 1.390 . S
C349 N352 1.391 . S
C350 H322 0.930 . S
C350 C349 1.390 . S
C350 C351 1.392 . S
C351 H323 0.929 . S
C351 C348 1.391 . S
C351 C350 1.392 . S
N352 Co296 2.257 1_565 S
N352 C349 1.391 . S
N352 C353 1.388 . S
C353 H324 0.930 . S
C353 C348 1.391 . S
C353 N352 1.388 . S
Co354 O356 2.143 . S
Co354 O362 2.074 . S
Co354 O365 2.093 . S
Co354 O378 2.097 . S
Co354 N395 2.151 . S
Co354 N403 2.214 . S
Co355 O356 2.160 . S
Co355 O361 2.058 . S
Co355 O371 2.057 . S
Co355 O386 2.037 . S
Co355 N390 2.145 . S
Co355 N411 2.257 . S
O356 Co354 2.143 . S
O356 Co355 2.160 . S
C357 O358 1.278 . S
C357 O365 1.224 . S
O358 C357 1.278 . S
C359 O360 1.245 . S
C359 O371 1.232 . S
O360 C359 1.245 . S
O361 Co355 2.058 . S
O361 C387 1.269 . S
O362 Co354 2.074 . S
O362 C387 1.257 . S
H363 C388 0.930 . S
H364 C394 0.930 . S
O365 Co354 2.093 . S
O365 C357 1.224 . S
H366 C398 0.929 . S
H367 C400 0.930 . S
H368 C401 0.930 . S
H369 C399 0.929 . S
H370 C402 0.928 . S
O371 Co355 2.057 . S
O371 C359 1.232 . S
H372 C391 0.929 . S
H373 C392 0.929 . S
H374 C404 0.931 . S
H375 C396 0.929 . S
H376 C405 0.930 . S
H377 C397 0.931 . S
O378 Co354 2.097 . S
O378 C406 1.214 . S
H379 C407 0.929 . S
H380 C408 0.929 . S
H381 C409 0.930 . S
H382 C410 0.929 . S
H383 C412 0.930 . S
H384 C389 0.930 . S
H385 C393 0.930 . S
O386 Co355 2.037 . S
O386 C406 1.234 . S
C387 O361 1.269 . S
C387 O362 1.257 . S
C388 H363 0.930 . S
C388 C391 1.388 . S
C388 C393 1.418 . S
C389 H384 0.930 . S
C389 C392 1.404 . S
C389 C393 1.353 . S
N390 Co355 2.145 . S
N390 C391 1.397 . S
N390 C392 1.334 . S
C391 H372 0.929 . S
C391 C388 1.388 . S
C391 N390 1.397 . S
C392 H373 0.929 . S
C392 C389 1.404 . S
C392 N390 1.334 . S
C393 H385 0.930 . S
C393 C388 1.418 . S
C393 C389 1.353 . S
C394 H364 0.930 . S
C394 N395 1.330 . S
C394 C396 1.446 . S
N395 Co354 2.151 . S
N395 C394 1.330 . S
N395 C399 1.418 . S
C396 H375 0.929 . S
C396 C394 1.446 . S
C396 C397 1.332 . S
C397 H377 0.931 . S
C397 C396 1.332 . S
C397 C398 1.267 . S
C398 H366 0.929 . S
C398 C397 1.267 . S
C398 C399 1.251 . S
C399 H369 0.929 . S
C399 N395 1.418 . S
C399 C398 1.251 . S
C400 H367 0.930 . S
C400 C402 1.406 . S
C400 C405 1.261 . S
C401 H368 0.930 . S
C401 N403 1.325 . S
C401 C404 1.357 . S
C402 H370 0.928 . S
C402 C400 1.406 . S
C402 N403 1.261 . S
N403 Co354 2.214 . S
N403 C401 1.325 . S
N403 C402 1.261 . S
C404 H374 0.931 . S
C404 C401 1.357 . S
C404 C405 1.312 . S
C405 H376 0.930 . S
C405 C400 1.261 . S
C405 C404 1.312 . S
C406 O378 1.214 . S
C406 O386 1.234 . S
C407 H379 0.929 . S
C407 C410 1.391 . S
C407 C412 1.391 . S
C408 H380 0.929 . S
C408 C409 1.390 . S
C408 N411 1.391 . S
C409 H381 0.930 . S
C409 C408 1.390 . S
C409 C410 1.392 . S
C410 H382 0.929 . S
C410 C407 1.391 . S
C410 C409 1.392 . S
N411 Co355 2.257 . S
N411 C408 1.391 . S
N411 C412 1.388 . S
C412 H383 0.930 . S
C412 C407 1.391 . S
C412 N411 1.388 . S
Co413 O415 2.143 . S
Co413 O421 2.074 . S
Co413 O424 2.093 . S
Co413 O437 2.097 . S
Co413 N454 2.151 . S
Co413 N462 2.214 . S
Co414 O415 2.160 . S
Co414 O420 2.058 . S
Co414 O430 2.057 . S
Co414 O445 2.037 . S
Co414 N449 2.145 . S
Co414 N470 2.257 . S
O415 Co413 2.143 . S
O415 Co414 2.160 . S
C416 O417 1.278 . S
C416 O424 1.224 . S
O417 C416 1.278 . S
C418 O419 1.245 . S
C418 O430 1.232 . S
O419 C418 1.245 . S
O420 Co414 2.058 . S
O420 C446 1.269 . S
O421 Co413 2.074 . S
O421 C446 1.257 . S
H422 C447 0.930 . S
H423 C453 0.930 . S
O424 Co413 2.093 . S
O424 C416 1.224 . S
H425 C457 0.929 . S
H426 C459 0.930 . S
H427 C460 0.930 . S
H428 C458 0.929 . S
H429 C461 0.928 . S
O430 Co414 2.057 . S
O430 C418 1.232 . S
H431 C450 0.929 . S
H432 C451 0.929 . S
H433 C463 0.931 . S
H434 C455 0.929 1_455 S
H435 C464 0.930 . S
H436 C456 0.929 1_455 S
O437 Co413 2.097 . S
O437 C465 1.214 . S
H438 C466 0.929 . S
H439 C467 0.929 . S
H440 C468 0.930 . S
H441 C469 0.929 . S
H442 C471 0.930 . S
H443 C448 0.930 . S
H444 C452 0.930 . S
O445 Co414 2.037 . S
O445 C465 1.234 . S
C446 O420 1.269 . S
C446 O421 1.257 . S
C447 H422 0.930 . S
C447 C450 1.388 . S
C447 C452 1.418 . S
C448 H443 0.930 . S
C448 C451 1.404 . S
C448 C452 1.353 . S
N449 Co414 2.145 . S
N449 C450 1.397 . S
N449 C451 1.334 . S
C450 H431 0.929 . S
C450 C447 1.388 . S
C450 N449 1.397 . S
C451 H432 0.929 . S
C451 C448 1.404 . S
C451 N449 1.334 . S
C452 H444 0.930 . S
C452 C447 1.418 . S
C452 C448 1.353 . S
C453 H423 0.930 . S
C453 N454 1.330 . S
C453 C455 1.446 . S
N454 Co413 2.151 . S
N454 C453 1.330 . S
N454 C458 1.418 . S
C455 H434 0.929 1_655 S
C455 C453 1.446 . S
C455 C456 1.332 . S
C456 H436 0.929 1_655 S
C456 C455 1.332 . S
C456 C457 1.267 . S
C457 H425 0.929 . S
C457 C456 1.267 . S
C457 C458 1.251 . S
C458 H428 0.929 . S
C458 N454 1.418 . S
C458 C457 1.251 . S
C459 H426 0.930 . S
C459 C461 1.406 . S
C459 C464 1.261 . S
C460 H427 0.930 . S
C460 N462 1.325 . S
C460 C463 1.357 . S
C461 H429 0.928 . S
C461 C459 1.406 . S
C461 N462 1.261 . S
N462 Co413 2.214 . S
N462 C460 1.325 . S
N462 C461 1.261 . S
C463 H433 0.931 . S
C463 C460 1.357 . S
C463 C464 1.312 . S
C464 H435 0.930 . S
C464 C459 1.261 . S
C464 C463 1.312 . S
C465 O437 1.214 . S
C465 O445 1.234 . S
C466 H438 0.929 . S
C466 C469 1.391 . S
C466 C471 1.391 . S
C467 H439 0.929 . S
C467 C468 1.390 . S
C467 N470 1.391 . S
C468 H440 0.930 . S
C468 C467 1.390 . S
C468 C469 1.392 . S
C469 H441 0.929 . S
C469 C466 1.391 . S
C469 C468 1.392 . S
N470 Co414 2.257 . S
N470 C467 1.391 . S
N470 C471 1.388 . S
C471 H442 0.930 . S
C471 C466 1.391 . S
C471 N470 1.388 . S
Co472 O474 2.143 . S
Co472 O480 2.074 . S
Co472 O483 2.093 . S
Co472 O496 2.097 . S
Co472 N513 2.151 . S
Co472 N521 2.214 . S
Co473 O474 2.160 . S
Co473 O479 2.058 . S
Co473 O489 2.057 . S
Co473 O504 2.037 . S
Co473 N508 2.145 . S
Co473 N529 2.257 1_655 S
O474 Co472 2.143 . S
O474 Co473 2.160 . S
C475 O476 1.278 1_655 S
C475 O483 1.224 . S
O476 C475 1.278 1_455 S
C477 O478 1.245 . S
C477 O489 1.232 . S
O478 C477 1.245 . S
O479 Co473 2.058 . S
O479 C505 1.269 . S
O480 Co472 2.074 . S
O480 C505 1.257 . S
H481 C506 0.930 . S
H482 C512 0.930 . S
O483 Co472 2.093 . S
O483 C475 1.224 . S
H484 C516 0.929 . S
H485 C518 0.930 . S
H486 C519 0.930 . S
H487 C517 0.929 . S
H488 C520 0.928 . S
O489 Co473 2.057 . S
O489 C477 1.232 . S
H490 C509 0.929 . S
H491 C510 0.929 . S
H492 C522 0.931 . S
H493 C514 0.929 . S
H494 C523 0.930 . S
H495 C515 0.931 . S
O496 Co472 2.097 . S
O496 C524 1.214 . S
H497 C525 0.929 . S
H498 C526 0.929 . S
H499 C527 0.930 . S
H500 C528 0.929 . S
H501 C530 0.930 . S
H502 C507 0.930 . S
H503 C511 0.930 . S
O504 Co473 2.037 . S
O504 C524 1.234 . S
C505 O479 1.269 . S
C505 O480 1.257 . S
C506 H481 0.930 . S
C506 C509 1.388 . S
C506 C511 1.418 . S
C507 H502 0.930 . S
C507 C510 1.404 . S
C507 C511 1.353 . S
N508 Co473 2.145 . S
N508 C509 1.397 . S
N508 C510 1.334 . S
C509 H490 0.929 . S
C509 C506 1.388 . S
C509 N508 1.397 . S
C510 H491 0.929 . S
C510 C507 1.404 . S
C510 N508 1.334 . S
C511 H503 0.930 . S
C511 C506 1.418 . S
C511 C507 1.353 . S
C512 H482 0.930 . S
C512 N513 1.330 . S
C512 C514 1.446 . S
N513 Co472 2.151 . S
N513 C512 1.330 . S
N513 C517 1.418 . S
C514 H493 0.929 . S
C514 C512 1.446 . S
C514 C515 1.332 . S
C515 H495 0.931 . S
C515 C514 1.332 . S
C515 C516 1.267 . S
C516 H484 0.929 . S
C516 C515 1.267 . S
C516 C517 1.251 . S
C517 H487 0.929 . S
C517 N513 1.418 . S
C517 C516 1.251 . S
C518 H485 0.930 . S
C518 C520 1.406 . S
C518 C523 1.261 . S
C519 H486 0.930 . S
C519 N521 1.325 . S
C519 C522 1.357 . S
C520 H488 0.928 . S
C520 C518 1.406 . S
C520 N521 1.261 . S
N521 Co472 2.214 . S
N521 C519 1.325 . S
N521 C520 1.261 . S
C522 H492 0.931 . S
C522 C519 1.357 . S
C522 C523 1.312 . S
C523 H494 0.930 . S
C523 C518 1.261 . S
C523 C522 1.312 . S
C524 O496 1.214 . S
C524 O504 1.234 . S
C525 H497 0.929 . S
C525 C528 1.391 . S
C525 C530 1.391 . S
C526 H498 0.929 . S
C526 C527 1.390 . S
C526 N529 1.391 . S
C527 H499 0.930 . S
C527 C526 1.390 . S
C527 C528 1.392 . S
C528 H500 0.929 . S
C528 C525 1.391 . S
C528 C527 1.392 . S
N529 Co473 2.257 1_455 S
N529 C526 1.391 . S
N529 C530 1.388 . S
C530 H501 0.930 . S
C530 C525 1.391 . S
C530 N529 1.388 . S
Co531 O533 2.143 . S
Co531 O539 2.074 . S
Co531 O542 2.093 . S
Co531 O555 2.097 . S
Co531 N572 2.151 . S
Co531 N580 2.214 . S
Co532 O533 2.160 . S
Co532 O538 2.058 . S
Co532 O548 2.057 . S
Co532 O563 2.037 . S
Co532 N567 2.145 . S
Co532 N588 2.257 1_565 S
O533 Co531 2.143 . S
O533 Co532 2.160 . S
C534 O535 1.278 1_565 S
C534 O542 1.224 . S
O535 C534 1.278 1_545 S
C536 O537 1.245 . S
C536 O548 1.232 . S
O537 C536 1.245 . S
O538 Co532 2.058 . S
O538 C564 1.269 . S
O539 Co531 2.074 . S
O539 C564 1.257 . S
H540 C565 0.930 . S
H541 C571 0.930 . S
O542 Co531 2.093 . S
O542 C534 1.224 . S
H543 C575 0.929 . S
H544 C577 0.930 . S
H545 C578 0.930 . S
H546 C576 0.929 . S
H547 C579 0.928 . S
O548 Co532 2.057 . S
O548 C536 1.232 . S
H549 C568 0.929 . S
H550 C569 0.929 . S
H551 C581 0.931 . S
H552 C573 0.929 1_655 S
H553 C582 0.930 . S
H554 C574 0.929 1_655 S
O555 Co531 2.097 . S
O555 C583 1.214 . S
H556 C584 0.929 . S
H557 C585 0.929 . S
H558 C586 0.930 . S
H559 C587 0.929 . S
H560 C589 0.930 . S
H561 C566 0.930 . S
H562 C570 0.930 . S
O563 Co532 2.037 . S
O563 C583 1.234 . S
C564 O538 1.269 . S
C564 O539 1.257 . S
C565 H540 0.930 . S
C565 C568 1.388 . S
C565 C570 1.418 . S
C566 H561 0.930 . S
C566 C569 1.404 . S
C566 C570 1.353 . S
N567 Co532 2.145 . S
N567 C568 1.397 . S
N567 C569 1.334 . S
C568 H549 0.929 . S
C568 C565 1.388 . S
C568 N567 1.397 . S
C569 H550 0.929 . S
C569 C566 1.404 . S
C569 N567 1.334 . S
C570 H562 0.930 . S
C570 C565 1.418 . S
C570 C566 1.353 . S
C571 H541 0.930 . S
C571 N572 1.330 . S
C571 C573 1.446 . S
N572 Co531 2.151 . S
N572 C571 1.330 . S
N572 C576 1.418 . S
C573 H552 0.929 1_455 S
C573 C571 1.446 . S
C573 C574 1.332 . S
C574 H554 0.929 1_455 S
C574 C573 1.332 . S
C574 C575 1.267 . S
C575 H543 0.929 . S
C575 C574 1.267 . S
C575 C576 1.251 . S
C576 H546 0.929 . S
C576 N572 1.418 . S
C576 C575 1.251 . S
C577 H544 0.930 . S
C577 C579 1.406 . S
C577 C582 1.261 . S
C578 H545 0.930 . S
C578 N580 1.325 . S
C578 C581 1.357 . S
C579 H547 0.928 . S
C579 C577 1.406 . S
C579 N580 1.261 . S
N580 Co531 2.214 . S
N580 C578 1.325 . S
N580 C579 1.261 . S
C581 H551 0.931 . S
C581 C578 1.357 . S
C581 C582 1.312 . S
C582 H553 0.930 . S
C582 C577 1.261 . S
C582 C581 1.312 . S
C583 O555 1.214 . S
C583 O563 1.234 . S
C584 H556 0.929 . S
C584 C587 1.391 . S
C584 C589 1.391 . S
C585 H557 0.929 . S
C585 C586 1.390 . S
C585 N588 1.391 . S
C586 H558 0.930 . S
C586 C585 1.390 . S
C586 C587 1.392 . S
C587 H559 0.929 . S
C587 C584 1.391 . S
C587 C586 1.392 . S
N588 Co532 2.257 1_545 S
N588 C585 1.391 . S
N588 C589 1.388 . S
C589 H560 0.930 . S
C589 C584 1.391 . S
C589 N588 1.388 . S
Co590 O592 2.143 . S
Co590 O598 2.074 . S
Co590 O601 2.093 . S
Co590 O614 2.097 . S
Co590 N631 2.151 . S
Co590 N639 2.214 . S
Co591 O592 2.160 . S
Co591 O597 2.058 . S
Co591 O607 2.057 . S
Co591 O622 2.037 . S
Co591 N626 2.145 . S
Co591 N647 2.257 . S
O592 Co590 2.143 . S
O592 Co591 2.160 . S
C593 O594 1.278 . S
C593 O601 1.224 . S
O594 C593 1.278 . S
C595 O596 1.245 . S
C595 O607 1.232 . S
O596 C595 1.245 . S
O597 Co591 2.058 . S
O597 C623 1.269 . S
O598 Co590 2.074 . S
O598 C623 1.257 . S
H599 C624 0.930 . S
H600 C630 0.930 . S
O601 Co590 2.093 . S
O601 C593 1.224 . S
H602 C634 0.929 . S
H603 C636 0.930 . S
H604 C637 0.930 . S
H605 C635 0.929 . S
H606 C638 0.928 . S
O607 Co591 2.057 . S
O607 C595 1.232 . S
H608 C627 0.929 . S
H609 C628 0.929 . S
H610 C640 0.931 . S
H611 C632 0.929 1_565 S
H612 C641 0.930 . S
H613 C633 0.929 1_565 S
O614 Co590 2.097 . S
O614 C642 1.214 . S
H615 C643 0.929 . S
H616 C644 0.929 . S
H617 C645 0.930 . S
H618 C646 0.929 . S
H619 C648 0.930 . S
H620 C625 0.930 . S
H621 C629 0.930 . S
O622 Co591 2.037 . S
O622 C642 1.234 . S
C623 O597 1.269 . S
C623 O598 1.257 . S
C624 H599 0.930 . S
C624 C627 1.388 . S
C624 C629 1.418 . S
C625 H620 0.930 . S
C625 C628 1.404 . S
C625 C629 1.353 . S
N626 Co591 2.145 . S
N626 C627 1.397 . S
N626 C628 1.334 . S
C627 H608 0.929 . S
C627 C624 1.388 . S
C627 N626 1.397 . S
C628 H609 0.929 . S
C628 C625 1.404 . S
C628 N626 1.334 . S
C629 H621 0.930 . S
C629 C624 1.418 . S
C629 C625 1.353 . S
C630 H600 0.930 . S
C630 N631 1.330 . S
C630 C632 1.446 . S
N631 Co590 2.151 . S
N631 C630 1.330 . S
N631 C635 1.418 . S
C632 H611 0.929 1_545 S
C632 C630 1.446 . S
C632 C633 1.332 . S
C633 H613 0.929 1_545 S
C633 C632 1.332 . S
C633 C634 1.267 . S
C634 H602 0.929 . S
C634 C633 1.267 . S
C634 C635 1.251 . S
C635 H605 0.929 . S
C635 N631 1.418 . S
C635 C634 1.251 . S
C636 H603 0.930 . S
C636 C638 1.406 . S
C636 C641 1.261 . S
C637 H604 0.930 . S
C637 N639 1.325 . S
C637 C640 1.357 . S
C638 H606 0.928 . S
C638 C636 1.406 . S
C638 N639 1.261 . S
N639 Co590 2.214 . S
N639 C637 1.325 . S
N639 C638 1.261 . S
C640 H610 0.931 . S
C640 C637 1.357 . S
C640 C641 1.312 . S
C641 H612 0.930 . S
C641 C636 1.261 . S
C641 C640 1.312 . S
C642 O614 1.214 . S
C642 O622 1.234 . S
C643 H615 0.929 . S
C643 C646 1.391 . S
C643 C648 1.391 . S
C644 H616 0.929 . S
C644 C645 1.390 . S
C644 N647 1.391 . S
C645 H617 0.930 . S
C645 C644 1.390 . S
C645 C646 1.392 . S
C646 H618 0.929 . S
C646 C643 1.391 . S
C646 C645 1.392 . S
N647 Co591 2.257 . S
N647 C644 1.391 . S
N647 C648 1.388 . S
C648 H619 0.930 . S
C648 C643 1.391 . S
C648 N647 1.388 . S
Co649 O651 2.143 . S
Co649 O657 2.074 . S
Co649 O660 2.093 . S
Co649 O673 2.097 . S
Co649 N690 2.151 . S
Co649 N698 2.214 . S
Co650 O651 2.160 . S
Co650 O656 2.058 . S
Co650 O666 2.057 . S
Co650 O681 2.037 . S
Co650 N685 2.145 . S
Co650 N706 2.257 . S
O651 Co649 2.143 . S
O651 Co650 2.160 . S
C652 O653 1.278 . S
C652 O660 1.224 . S
O653 C652 1.278 . S
C654 O655 1.245 . S
C654 O666 1.232 . S
O655 C654 1.245 . S
O656 Co650 2.058 . S
O656 C682 1.269 . S
O657 Co649 2.074 . S
O657 C682 1.257 . S
H658 C683 0.930 . S
H659 C689 0.930 . S
O660 Co649 2.093 . S
O660 C652 1.224 . S
H661 C693 0.929 . S
H662 C695 0.930 . S
H663 C696 0.930 . S
H664 C694 0.929 . S
H665 C697 0.928 . S
O666 Co650 2.057 . S
O666 C654 1.232 . S
H667 C686 0.929 . S
H668 C687 0.929 . S
H669 C699 0.931 . S
H670 C691 0.929 . S
H671 C700 0.930 . S
H672 C692 0.931 . S
O673 Co649 2.097 . S
O673 C701 1.214 . S
H674 C702 0.929 . S
H675 C703 0.929 . S
H676 C704 0.930 . S
H677 C705 0.929 . S
H678 C707 0.930 . S
H679 C684 0.930 . S
H680 C688 0.930 . S
O681 Co650 2.037 . S
O681 C701 1.234 . S
C682 O656 1.269 . S
C682 O657 1.257 . S
C683 H658 0.930 . S
C683 C686 1.388 . S
C683 C688 1.418 . S
C684 H679 0.930 . S
C684 C687 1.404 . S
C684 C688 1.353 . S
N685 Co650 2.145 . S
N685 C686 1.397 . S
N685 C687 1.334 . S
C686 H667 0.929 . S
C686 C683 1.388 . S
C686 N685 1.397 . S
C687 H668 0.929 . S
C687 C684 1.404 . S
C687 N685 1.334 . S
C688 H680 0.930 . S
C688 C683 1.418 . S
C688 C684 1.353 . S
C689 H659 0.930 . S
C689 N690 1.330 . S
C689 C691 1.446 . S
N690 Co649 2.151 . S
N690 C689 1.330 . S
N690 C694 1.418 . S
C691 H670 0.929 . S
C691 C689 1.446 . S
C691 C692 1.332 . S
C692 H672 0.931 . S
C692 C691 1.332 . S
C692 C693 1.267 . S
C693 H661 0.929 . S
C693 C692 1.267 . S
C693 C694 1.251 . S
C694 H664 0.929 . S
C694 N690 1.418 . S
C694 C693 1.251 . S
C695 H662 0.930 . S
C695 C697 1.406 . S
C695 C700 1.261 . S
C696 H663 0.930 . S
C696 N698 1.325 . S
C696 C699 1.357 . S
C697 H665 0.928 . S
C697 C695 1.406 . S
C697 N698 1.261 . S
N698 Co649 2.214 . S
N698 C696 1.325 . S
N698 C697 1.261 . S
C699 H669 0.931 . S
C699 C696 1.357 . S
C699 C700 1.312 . S
C700 H671 0.930 . S
C700 C695 1.261 . S
C700 C699 1.312 . S
C701 O673 1.214 . S
C701 O681 1.234 . S
C702 H674 0.929 . S
C702 C705 1.391 . S
C702 C707 1.391 . S
C703 H675 0.929 . S
C703 C704 1.390 . S
C703 N706 1.391 . S
C704 H676 0.930 . S
C704 C703 1.390 . S
C704 C705 1.392 . S
C705 H677 0.929 . S
C705 C702 1.391 . S
C705 C704 1.392 . S
N706 Co650 2.257 . S
N706 C703 1.391 . S
N706 C707 1.388 . S
C707 H678 0.930 . S
C707 C702 1.391 . S
C707 N706 1.388 . S
Co708 O710 2.143 . S
Co708 O716 2.074 . S
Co708 O719 2.093 . S
Co708 O732 2.097 . S
Co708 N749 2.151 . S
Co708 N757 2.214 . S
Co709 O710 2.160 . S
Co709 O715 2.058 . S
Co709 O725 2.057 . S
Co709 O740 2.037 . S
Co709 N744 2.145 . S
Co709 N765 2.257 1_655 S
O710 Co708 2.143 . S
O710 Co709 2.160 . S
C711 O712 1.278 1_655 S
C711 O719 1.224 . S
O712 C711 1.278 1_455 S
C713 O714 1.245 . S
C713 O725 1.232 . S
O714 C713 1.245 . S
O715 Co709 2.058 . S
O715 C741 1.269 . S
O716 Co708 2.074 . S
O716 C741 1.257 . S
H717 C742 0.930 . S
H718 C748 0.930 . S
O719 Co708 2.093 . S
O719 C711 1.224 . S
H720 C752 0.929 . S
H721 C754 0.930 . S
H722 C755 0.930 . S
H723 C753 0.929 . S
H724 C756 0.928 . S
O725 Co709 2.057 . S
O725 C713 1.232 . S
H726 C745 0.929 . S
H727 C746 0.929 . S
H728 C758 0.931 . S
H729 C750 0.929 1_565 S
H730 C759 0.930 . S
H731 C751 0.929 1_565 S
O732 Co708 2.097 . S
O732 C760 1.214 . S
H733 C761 0.929 . S
H734 C762 0.929 . S
H735 C763 0.930 . S
H736 C764 0.929 . S
H737 C766 0.930 . S
H738 C743 0.930 . S
H739 C747 0.930 . S
O740 Co709 2.037 . S
O740 C760 1.234 . S
C741 O715 1.269 . S
C741 O716 1.257 . S
C742 H717 0.930 . S
C742 C745 1.388 . S
C742 C747 1.418 . S
C743 H738 0.930 . S
C743 C746 1.404 . S
C743 C747 1.353 . S
N744 Co709 2.145 . S
N744 C745 1.397 . S
N744 C746 1.334 . S
C745 H726 0.929 . S
C745 C742 1.388 . S
C745 N744 1.397 . S
C746 H727 0.929 . S
C746 C743 1.404 . S
C746 N744 1.334 . S
C747 H739 0.930 . S
C747 C742 1.418 . S
C747 C743 1.353 . S
C748 H718 0.930 . S
C748 N749 1.330 . S
C748 C750 1.446 . S
N749 Co708 2.151 . S
N749 C748 1.330 . S
N749 C753 1.418 . S
C750 H729 0.929 1_545 S
C750 C748 1.446 . S
C750 C751 1.332 . S
C751 H731 0.929 1_545 S
C751 C750 1.332 . S
C751 C752 1.267 . S
C752 H720 0.929 . S
C752 C751 1.267 . S
C752 C753 1.251 . S
C753 H723 0.929 . S
C753 N749 1.418 . S
C753 C752 1.251 . S
C754 H721 0.930 . S
C754 C756 1.406 . S
C754 C759 1.261 . S
C755 H722 0.930 . S
C755 N757 1.325 . S
C755 C758 1.357 . S
C756 H724 0.928 . S
C756 C754 1.406 . S
C756 N757 1.261 . S
N757 Co708 2.214 . S
N757 C755 1.325 . S
N757 C756 1.261 . S
C758 H728 0.931 . S
C758 C755 1.357 . S
C758 C759 1.312 . S
C759 H730 0.930 . S
C759 C754 1.261 . S
C759 C758 1.312 . S
C760 O732 1.214 . S
C760 O740 1.234 . S
C761 H733 0.929 . S
C761 C764 1.391 . S
C761 C766 1.391 . S
C762 H734 0.929 . S
C762 C763 1.390 . S
C762 N765 1.391 . S
C763 H735 0.930 . S
C763 C762 1.390 . S
C763 C764 1.392 . S
C764 H736 0.929 . S
C764 C761 1.391 . S
C764 C763 1.392 . S
N765 Co709 2.257 1_455 S
N765 C762 1.391 . S
N765 C766 1.388 . S
C766 H737 0.930 . S
C766 C761 1.391 . S
C766 N765 1.388 . S
Co767 O769 2.143 . S
Co767 O775 2.074 . S
Co767 O778 2.093 . S
Co767 O791 2.097 . S
Co767 N808 2.151 . S
Co767 N816 2.214 . S
Co768 O769 2.160 . S
Co768 O774 2.058 . S
Co768 O784 2.057 . S
Co768 O799 2.037 . S
Co768 N803 2.145 . S
Co768 N824 2.257 1_565 S
O769 Co767 2.143 . S
O769 Co768 2.160 . S
C770 O771 1.278 1_565 S
C770 O778 1.224 . S
O771 C770 1.278 1_545 S
C772 O773 1.245 . S
C772 O784 1.232 . S
O773 C772 1.245 . S
O774 Co768 2.058 . S
O774 C800 1.269 . S
O775 Co767 2.074 . S
O775 C800 1.257 . S
H776 C801 0.930 . S
H777 C807 0.930 . S
O778 Co767 2.093 . S
O778 C770 1.224 . S
H779 C811 0.929 . S
H780 C813 0.930 . S
H781 C814 0.930 . S
H782 C812 0.929 . S
H783 C815 0.928 . S
O784 Co768 2.057 . S
O784 C772 1.232 . S
H785 C804 0.929 . S
H786 C805 0.929 . S
H787 C817 0.931 . S
H788 C809 0.929 . S
H789 C818 0.930 . S
H790 C810 0.931 . S
O791 Co767 2.097 . S
O791 C819 1.214 . S
H792 C820 0.929 . S
H793 C821 0.929 . S
H794 C822 0.930 . S
H795 C823 0.929 . S
H796 C825 0.930 . S
H797 C802 0.930 . S
H798 C806 0.930 . S
O799 Co768 2.037 . S
O799 C819 1.234 . S
C800 O774 1.269 . S
C800 O775 1.257 . S
C801 H776 0.930 . S
C801 C804 1.388 . S
C801 C806 1.418 . S
C802 H797 0.930 . S
C802 C805 1.404 . S
C802 C806 1.353 . S
N803 Co768 2.145 . S
N803 C804 1.397 . S
N803 C805 1.334 . S
C804 H785 0.929 . S
C804 C801 1.388 . S
C804 N803 1.397 . S
C805 H786 0.929 . S
C805 C802 1.404 . S
C805 N803 1.334 . S
C806 H798 0.930 . S
C806 C801 1.418 . S
C806 C802 1.353 . S
C807 H777 0.930 . S
C807 N808 1.330 . S
C807 C809 1.446 . S
N808 Co767 2.151 . S
N808 C807 1.330 . S
N808 C812 1.418 . S
C809 H788 0.929 . S
C809 C807 1.446 . S
C809 C810 1.332 . S
C810 H790 0.931 . S
C810 C809 1.332 . S
C810 C811 1.267 . S
C811 H779 0.929 . S
C811 C810 1.267 . S
C811 C812 1.251 . S
C812 H782 0.929 . S
C812 N808 1.418 . S
C812 C811 1.251 . S
C813 H780 0.930 . S
C813 C815 1.406 . S
C813 C818 1.261 . S
C814 H781 0.930 . S
C814 N816 1.325 . S
C814 C817 1.357 . S
C815 H783 0.928 . S
C815 C813 1.406 . S
C815 N816 1.261 . S
N816 Co767 2.214 . S
N816 C814 1.325 . S
N816 C815 1.261 . S
C817 H787 0.931 . S
C817 C814 1.357 . S
C817 C818 1.312 . S
C818 H789 0.930 . S
C818 C813 1.261 . S
C818 C817 1.312 . S
C819 O791 1.214 . S
C819 O799 1.234 . S
C820 H792 0.929 . S
C820 C823 1.391 . S
C820 C825 1.391 . S
C821 H793 0.929 . S
C821 C822 1.390 . S
C821 N824 1.391 . S
C822 H794 0.930 . S
C822 C821 1.390 . S
C822 C823 1.392 . S
C823 H795 0.929 . S
C823 C820 1.391 . S
C823 C822 1.392 . S
N824 Co768 2.257 1_545 S
N824 C821 1.391 . S
N824 C825 1.388 . S
C825 H796 0.930 . S
C825 C820 1.391 . S
C825 N824 1.388 . S
Co826 O828 2.143 . S
Co826 O834 2.074 . S
Co826 O837 2.093 . S
Co826 O850 2.097 . S
Co826 N867 2.151 . S
Co826 N875 2.214 . S
Co827 O828 2.160 . S
Co827 O833 2.058 . S
Co827 O843 2.057 . S
Co827 O858 2.037 . S
Co827 N862 2.145 . S
Co827 N883 2.257 . S
O828 Co826 2.143 . S
O828 Co827 2.160 . S
C829 O830 1.278 . S
C829 O837 1.224 . S
O830 C829 1.278 . S
C831 O832 1.245 . S
C831 O843 1.232 . S
O832 C831 1.245 . S
O833 Co827 2.058 . S
O833 C859 1.269 . S
O834 Co826 2.074 . S
O834 C859 1.257 . S
H835 C860 0.930 . S
H836 C866 0.930 . S
O837 Co826 2.093 . S
O837 C829 1.224 . S
H838 C870 0.929 . S
H839 C872 0.930 . S
H840 C873 0.930 . S
H841 C871 0.929 . S
H842 C874 0.928 . S
O843 Co827 2.057 . S
O843 C831 1.232 . S
H844 C863 0.929 . S
H845 C864 0.929 . S
H846 C876 0.931 . S
H847 C868 0.929 . S
H848 C877 0.930 . S
H849 C869 0.931 . S
O850 Co826 2.097 . S
O850 C878 1.214 . S
H851 C879 0.929 . S
H852 C880 0.929 . S
H853 C881 0.930 . S
H854 C882 0.929 . S
H855 C884 0.930 . S
H856 C861 0.930 . S
H857 C865 0.930 . S
O858 Co827 2.037 . S
O858 C878 1.234 . S
C859 O833 1.269 . S
C859 O834 1.257 . S
C860 H835 0.930 . S
C860 C863 1.388 . S
C860 C865 1.418 . S
C861 H856 0.930 . S
C861 C864 1.404 . S
C861 C865 1.353 . S
N862 Co827 2.145 . S
N862 C863 1.397 . S
N862 C864 1.334 . S
C863 H844 0.929 . S
C863 C860 1.388 . S
C863 N862 1.397 . S
C864 H845 0.929 . S
C864 C861 1.404 . S
C864 N862 1.334 . S
C865 H857 0.930 . S
C865 C860 1.418 . S
C865 C861 1.353 . S
C866 H836 0.930 . S
C866 N867 1.330 . S
C866 C868 1.446 . S
N867 Co826 2.151 . S
N867 C866 1.330 . S
N867 C871 1.418 . S
C868 H847 0.929 . S
C868 C866 1.446 . S
C868 C869 1.332 . S
C869 H849 0.931 . S
C869 C868 1.332 . S
C869 C870 1.267 . S
C870 H838 0.929 . S
C870 C869 1.267 . S
C870 C871 1.251 . S
C871 H841 0.929 . S
C871 N867 1.418 . S
C871 C870 1.251 . S
C872 H839 0.930 . S
C872 C874 1.406 . S
C872 C877 1.261 . S
C873 H840 0.930 . S
C873 N875 1.325 . S
C873 C876 1.357 . S
C874 H842 0.928 . S
C874 C872 1.406 . S
C874 N875 1.261 . S
N875 Co826 2.214 . S
N875 C873 1.325 . S
N875 C874 1.261 . S
C876 H846 0.931 . S
C876 C873 1.357 . S
C876 C877 1.312 . S
C877 H848 0.930 . S
C877 C872 1.261 . S
C877 C876 1.312 . S
C878 O850 1.214 . S
C878 O858 1.234 . S
C879 H851 0.929 . S
C879 C882 1.391 . S
C879 C884 1.391 . S
C880 H852 0.929 . S
C880 C881 1.390 . S
C880 N883 1.391 . S
C881 H853 0.930 . S
C881 C880 1.390 . S
C881 C882 1.392 . S
C882 H854 0.929 . S
C882 C879 1.391 . S
C882 C881 1.392 . S
N883 Co827 2.257 . S
N883 C880 1.391 . S
N883 C884 1.388 . S
C884 H855 0.930 . S
C884 C879 1.391 . S
C884 N883 1.388 . S
Co885 O887 2.143 . S
Co885 O893 2.074 . S
Co885 O896 2.093 . S
Co885 O909 2.097 . S
Co885 N926 2.151 . S
Co885 N934 2.214 . S
Co886 O887 2.160 . S
Co886 O892 2.058 . S
Co886 O902 2.057 . S
Co886 O917 2.037 . S
Co886 N921 2.145 . S
Co886 N942 2.257 . S
O887 Co885 2.143 . S
O887 Co886 2.160 . S
C888 O889 1.278 . S
C888 O896 1.224 . S
O889 C888 1.278 . S
C890 O891 1.245 . S
C890 O902 1.232 . S
O891 C890 1.245 . S
O892 Co886 2.058 . S
O892 C918 1.269 . S
O893 Co885 2.074 . S
O893 C918 1.257 . S
H894 C919 0.930 . S
H895 C925 0.930 . S
O896 Co885 2.093 . S
O896 C888 1.224 . S
H897 C929 0.929 . S
H898 C931 0.930 . S
H899 C932 0.930 . S
H900 C930 0.929 . S
H901 C933 0.928 . S
O902 Co886 2.057 . S
O902 C890 1.232 . S
H903 C922 0.929 . S
H904 C923 0.929 . S
H905 C935 0.931 . S
H906 C927 0.929 1_655 S
H907 C936 0.930 . S
H908 C928 0.929 1_655 S
O909 Co885 2.097 . S
O909 C937 1.214 . S
H910 C938 0.929 . S
H911 C939 0.929 . S
H912 C940 0.930 . S
H913 C941 0.929 . S
H914 C943 0.930 . S
H915 C920 0.930 . S
H916 C924 0.930 . S
O917 Co886 2.037 . S
O917 C937 1.234 . S
C918 O892 1.269 . S
C918 O893 1.257 . S
C919 H894 0.930 . S
C919 C922 1.388 . S
C919 C924 1.418 . S
C920 H915 0.930 . S
C920 C923 1.404 . S
C920 C924 1.353 . S
N921 Co886 2.145 . S
N921 C922 1.397 . S
N921 C923 1.334 . S
C922 H903 0.929 . S
C922 C919 1.388 . S
C922 N921 1.397 . S
C923 H904 0.929 . S
C923 C920 1.404 . S
C923 N921 1.334 . S
C924 H916 0.930 . S
C924 C919 1.418 . S
C924 C920 1.353 . S
C925 H895 0.930 . S
C925 N926 1.330 . S
C925 C927 1.446 . S
N926 Co885 2.151 . S
N926 C925 1.330 . S
N926 C930 1.418 . S
C927 H906 0.929 1_455 S
C927 C925 1.446 . S
C927 C928 1.332 . S
C928 H908 0.929 1_455 S
C928 C927 1.332 . S
C928 C929 1.267 . S
C929 H897 0.929 . S
C929 C928 1.267 . S
C929 C930 1.251 . S
C930 H900 0.929 . S
C930 N926 1.418 . S
C930 C929 1.251 . S
C931 H898 0.930 . S
C931 C933 1.406 . S
C931 C936 1.261 . S
C932 H899 0.930 . S
C932 N934 1.325 . S
C932 C935 1.357 . S
C933 H901 0.928 . S
C933 C931 1.406 . S
C933 N934 1.261 . S
N934 Co885 2.214 . S
N934 C932 1.325 . S
N934 C933 1.261 . S
C935 H905 0.931 . S
C935 C932 1.357 . S
C935 C936 1.312 . S
C936 H907 0.930 . S
C936 C931 1.261 . S
C936 C935 1.312 . S
C937 O909 1.214 . S
C937 O917 1.234 . S
C938 H910 0.929 . S
C938 C941 1.391 . S
C938 C943 1.391 . S
C939 H911 0.929 . S
C939 C940 1.390 . S
C939 N942 1.391 . S
C940 H912 0.930 . S
C940 C939 1.390 . S
C940 C941 1.392 . S
C941 H913 0.929 . S
C941 C938 1.391 . S
C941 C940 1.392 . S
N942 Co886 2.257 . S
N942 C939 1.391 . S
N942 C943 1.388 . S
C943 H914 0.930 . S
C943 C938 1.391 . S
C943 N942 1.388 . S
C944 C945 1.391 . S
C944 C946 1.394 . S
C944 H960 0.931 . S
C945 C944 1.391 . S
C945 C949 1.376 . S
C946 C944 1.394 . S
C946 C947 1.369 . S
C946 C950 1.531 . S
C947 C946 1.369 . S
C947 C948 1.410 . S
C947 C955 1.503 . S
C948 C947 1.410 . S
C948 C949 1.392 . S
C948 C951 1.511 . S
C949 C945 1.376 . S
C949 C948 1.392 . S
C949 H961 0.929 . S
C950 C946 1.531 . S
C950 H962 0.960 . S
C950 H963 0.962 . S
C950 H964 0.960 . S
C951 C948 1.511 . S
C951 H965 0.961 . S
C951 H966 0.961 . S
C951 H967 0.961 . S
C952 C953 1.370 . S
C952 C954 1.363 . S
C952 H968 0.931 . S
C953 C952 1.370 . S
C953 C957 1.408 . S
C954 C952 1.363 . S
C954 C955 1.370 . S
C954 C958 1.524 . S
C955 C947 1.503 . S
C955 C954 1.370 . S
C955 C956 1.403 . S
C956 C955 1.403 . S
C956 C957 1.404 . S
C956 C959 1.539 . S
C957 C953 1.408 . S
C957 C956 1.404 . S
C957 H969 0.930 . S
C958 C954 1.524 . S
C958 H970 0.956 . S
C958 H971 0.961 . S
C958 H972 0.961 . S
C959 C956 1.539 . S
C959 H973 0.958 . S
C959 H974 0.961 . S
C959 H975 0.960 . S
H960 C944 0.931 . S
H961 C949 0.929 . S
H962 C950 0.960 . S
H963 C950 0.962 . S
H964 C950 0.960 . S
H965 C951 0.961 . S
H966 C951 0.961 . S
H967 C951 0.961 . S
H968 C952 0.931 . S
H969 C957 0.930 . S
H970 C958 0.956 . S
H971 C958 0.961 . S
H972 C958 0.961 . S
H973 C959 0.958 . S
H974 C959 0.961 . S
H975 C959 0.960 . S
C976 C977 1.391 . S
C976 C978 1.394 . S
C976 H992 0.931 . S
C977 C976 1.391 . S
C977 C981 1.376 . S
C978 C976 1.394 . S
C978 C979 1.369 . S
C978 C982 1.531 . S
C979 C978 1.369 . S
C979 C980 1.410 . S
C979 C987 1.503 . S
C980 C979 1.410 . S
C980 C981 1.392 . S
C980 C983 1.511 . S
C981 C977 1.376 . S
C981 C980 1.392 . S
C981 H993 0.929 . S
C982 C978 1.531 . S
C982 H994 0.960 . S
C982 H995 0.962 . S
C982 H996 0.960 . S
C983 C980 1.511 . S
C983 H997 0.961 . S
C983 H998 0.961 . S
C983 H999 0.961 . S
C984 C985 1.370 . S
C984 C986 1.363 . S
C984 H1000 0.931 . S
C985 C984 1.370 . S
C985 C989 1.408 . S
C986 C984 1.363 . S
C986 C987 1.370 . S
C986 C990 1.524 . S
C987 C979 1.503 . S
C987 C986 1.370 . S
C987 C988 1.403 . S
C988 C987 1.403 . S
C988 C989 1.404 . S
C988 C991 1.539 . S
C989 C985 1.408 . S
C989 C988 1.404 . S
C989 H1001 0.930 . S
C990 C986 1.524 . S
C990 H1002 0.956 . S
C990 H1003 0.961 . S
C990 H1004 0.961 . S
C991 C988 1.539 . S
C991 H1005 0.958 . S
C991 H1006 0.961 . S
C991 H1007 0.960 . S
H992 C976 0.931 . S
H993 C981 0.929 . S
H994 C982 0.960 . S
H995 C982 0.962 . S
H996 C982 0.960 . S
H997 C983 0.961 . S
H998 C983 0.961 . S
H999 C983 0.961 . S
H1000 C984 0.931 . S
H1001 C989 0.930 . S
H1002 C990 0.956 . S
H1003 C990 0.961 . S
H1004 C990 0.961 . S
H1005 C991 0.958 . S
H1006 C991 0.961 . S
H1007 C991 0.960 . S
C1008 C1009 1.391 . S
C1008 C1010 1.394 . S
C1008 H1024 0.931 . S
C1009 C1008 1.391 . S
C1009 C1013 1.376 . S
C1010 C1008 1.394 . S
C1010 C1011 1.369 . S
C1010 C1014 1.531 . S
C1011 C1010 1.369 . S
C1011 C1012 1.410 . S
C1011 C1019 1.503 . S
C1012 C1011 1.410 . S
C1012 C1013 1.392 . S
C1012 C1015 1.511 . S
C1013 C1009 1.376 . S
C1013 C1012 1.392 . S
C1013 H1025 0.929 . S
C1014 C1010 1.531 . S
C1014 H1026 0.960 . S
C1014 H1027 0.962 . S
C1014 H1028 0.960 . S
C1015 C1012 1.511 . S
C1015 H1029 0.961 . S
C1015 H1030 0.961 . S
C1015 H1031 0.961 . S
C1016 C1017 1.370 . S
C1016 C1018 1.363 . S
C1016 H1032 0.931 . S
C1017 C1016 1.370 . S
C1017 C1021 1.408 . S
C1018 C1016 1.363 . S
C1018 C1019 1.370 . S
C1018 C1022 1.524 . S
C1019 C1011 1.503 . S
C1019 C1018 1.370 . S
C1019 C1020 1.403 . S
C1020 C1019 1.403 . S
C1020 C1021 1.404 . S
C1020 C1023 1.539 . S
C1021 C1017 1.408 . S
C1021 C1020 1.404 . S
C1021 H1033 0.930 . S
C1022 C1018 1.524 . S
C1022 H1034 0.956 . S
C1022 H1035 0.961 . S
C1022 H1036 0.961 . S
C1023 C1020 1.539 . S
C1023 H1037 0.958 . S
C1023 H1038 0.961 . S
C1023 H1039 0.960 . S
H1024 C1008 0.931 . S
H1025 C1013 0.929 . S
H1026 C1014 0.960 . S
H1027 C1014 0.962 . S
H1028 C1014 0.960 . S
H1029 C1015 0.961 . S
H1030 C1015 0.961 . S
H1031 C1015 0.961 . S
H1032 C1016 0.931 . S
H1033 C1021 0.930 . S
H1034 C1022 0.956 . S
H1035 C1022 0.961 . S
H1036 C1022 0.961 . S
H1037 C1023 0.958 . S
H1038 C1023 0.961 . S
H1039 C1023 0.960 . S
C1040 C1041 1.391 . S
C1040 C1042 1.394 . S
C1040 H1056 0.931 . S
C1041 C1040 1.391 . S
C1041 C1045 1.376 . S
C1042 C1040 1.394 . S
C1042 C1043 1.369 . S
C1042 C1046 1.531 . S
C1043 C1042 1.369 . S
C1043 C1044 1.410 . S
C1043 C1051 1.503 . S
C1044 C1043 1.410 . S
C1044 C1045 1.392 . S
C1044 C1047 1.511 . S
C1045 C1041 1.376 . S
C1045 C1044 1.392 . S
C1045 H1057 0.929 . S
C1046 C1042 1.531 . S
C1046 H1058 0.960 . S
C1046 H1059 0.962 . S
C1046 H1060 0.960 . S
C1047 C1044 1.511 . S
C1047 H1061 0.961 . S
C1047 H1062 0.961 . S
C1047 H1063 0.961 . S
C1048 C1049 1.370 . S
C1048 C1050 1.363 . S
C1048 H1064 0.931 . S
C1049 C1048 1.370 . S
C1049 C1053 1.408 . S
C1050 C1048 1.363 . S
C1050 C1051 1.370 . S
C1050 C1054 1.524 . S
C1051 C1043 1.503 . S
C1051 C1050 1.370 . S
C1051 C1052 1.403 . S
C1052 C1051 1.403 . S
C1052 C1053 1.404 . S
C1052 C1055 1.539 . S
C1053 C1049 1.408 . S
C1053 C1052 1.404 . S
C1053 H1065 0.930 . S
C1054 C1050 1.524 . S
C1054 H1066 0.956 . S
C1054 H1067 0.961 . S
C1054 H1068 0.961 . S
C1055 C1052 1.539 . S
C1055 H1069 0.958 . S
C1055 H1070 0.961 . S
C1055 H1071 0.960 . S
H1056 C1040 0.931 . S
H1057 C1045 0.929 . S
H1058 C1046 0.960 . S
H1059 C1046 0.962 . S
H1060 C1046 0.960 . S
H1061 C1047 0.961 . S
H1062 C1047 0.961 . S
H1063 C1047 0.961 . S
H1064 C1048 0.931 . S
H1065 C1053 0.930 . S
H1066 C1054 0.956 . S
H1067 C1054 0.961 . S
H1068 C1054 0.961 . S
H1069 C1055 0.958 . S
H1070 C1055 0.961 . S
H1071 C1055 0.960 . S
C1072 C1073 1.391 . S
C1072 C1074 1.394 . S
C1072 H1088 0.931 . S
C1073 C1072 1.391 . S
C1073 C1077 1.376 . S
C1074 C1072 1.394 . S
C1074 C1075 1.369 . S
C1074 C1078 1.531 . S
C1075 C1074 1.369 . S
C1075 C1076 1.410 . S
C1075 C1083 1.503 . S
C1076 C1075 1.410 . S
C1076 C1077 1.392 . S
C1076 C1079 1.511 . S
C1077 C1073 1.376 . S
C1077 C1076 1.392 . S
C1077 H1089 0.929 . S
C1078 C1074 1.531 . S
C1078 H1090 0.960 . S
C1078 H1091 0.962 . S
C1078 H1092 0.960 . S
C1079 C1076 1.511 . S
C1079 H1093 0.961 . S
C1079 H1094 0.961 . S
C1079 H1095 0.961 . S
C1080 C1081 1.370 . S
C1080 C1082 1.363 . S
C1080 H1096 0.931 . S
C1081 C1080 1.370 . S
C1081 C1085 1.408 . S
C1082 C1080 1.363 . S
C1082 C1083 1.370 . S
C1082 C1086 1.524 . S
C1083 C1075 1.503 . S
C1083 C1082 1.370 . S
C1083 C1084 1.403 . S
C1084 C1083 1.403 . S
C1084 C1085 1.404 . S
C1084 C1087 1.539 . S
C1085 C1081 1.408 . S
C1085 C1084 1.404 . S
C1085 H1097 0.930 . S
C1086 C1082 1.524 . S
C1086 H1098 0.956 . S
C1086 H1099 0.961 . S
C1086 H1100 0.961 . S
C1087 C1084 1.539 . S
C1087 H1101 0.958 . S
C1087 H1102 0.961 . S
C1087 H1103 0.960 . S
H1088 C1072 0.931 . S
H1089 C1077 0.929 . S
H1090 C1078 0.960 . S
H1091 C1078 0.962 . S
H1092 C1078 0.960 . S
H1093 C1079 0.961 . S
H1094 C1079 0.961 . S
H1095 C1079 0.961 . S
H1096 C1080 0.931 . S
H1097 C1085 0.930 . S
H1098 C1086 0.956 . S
H1099 C1086 0.961 . S
H1100 C1086 0.961 . S
H1101 C1087 0.958 . S
H1102 C1087 0.961 . S
H1103 C1087 0.960 . S
C1104 C1105 1.391 . S
C1104 C1106 1.394 . S
C1104 H1120 0.931 . S
C1105 C1104 1.391 . S
C1105 C1109 1.376 . S
C1106 C1104 1.394 . S
C1106 C1107 1.369 . S
C1106 C1110 1.531 . S
C1107 C1106 1.369 . S
C1107 C1108 1.410 . S
C1107 C1115 1.503 . S
C1108 C1107 1.410 . S
C1108 C1109 1.392 . S
C1108 C1111 1.511 . S
C1109 C1105 1.376 . S
C1109 C1108 1.392 . S
C1109 H1121 0.929 . S
C1110 C1106 1.531 . S
C1110 H1122 0.960 . S
C1110 H1123 0.962 . S
C1110 H1124 0.960 . S
C1111 C1108 1.511 . S
C1111 H1125 0.961 . S
C1111 H1126 0.961 . S
C1111 H1127 0.961 . S
C1112 C1113 1.370 . S
C1112 C1114 1.363 . S
C1112 H1128 0.931 . S
C1113 C1112 1.370 . S
C1113 C1117 1.408 . S
C1114 C1112 1.363 . S
C1114 C1115 1.370 . S
C1114 C1118 1.524 . S
C1115 C1107 1.503 . S
C1115 C1114 1.370 . S
C1115 C1116 1.403 . S
C1116 C1115 1.403 . S
C1116 C1117 1.404 . S
C1116 C1119 1.539 . S
C1117 C1113 1.408 . S
C1117 C1116 1.404 . S
C1117 H1129 0.930 . S
C1118 C1114 1.524 . S
C1118 H1130 0.956 . S
C1118 H1131 0.961 . S
C1118 H1132 0.961 . S
C1119 C1116 1.539 . S
C1119 H1133 0.958 . S
C1119 H1134 0.961 . S
C1119 H1135 0.960 . S
H1120 C1104 0.931 . S
H1121 C1109 0.929 . S
H1122 C1110 0.960 . S
H1123 C1110 0.962 . S
H1124 C1110 0.960 . S
H1125 C1111 0.961 . S
H1126 C1111 0.961 . S
H1127 C1111 0.961 . S
H1128 C1112 0.931 . S
H1129 C1117 0.930 . S
H1130 C1118 0.956 . S
H1131 C1118 0.961 . S
H1132 C1118 0.961 . S
H1133 C1119 0.958 . S
H1134 C1119 0.961 . S
H1135 C1119 0.960 . S
C1136 C1137 1.391 . S
C1136 C1138 1.394 . S
C1136 H1152 0.931 . S
C1137 C1136 1.391 . S
C1137 C1141 1.376 . S
C1138 C1136 1.394 . S
C1138 C1139 1.369 . S
C1138 C1142 1.531 . S
C1139 C1138 1.369 . S
C1139 C1140 1.410 . S
C1139 C1147 1.503 . S
C1140 C1139 1.410 . S
C1140 C1141 1.392 . S
C1140 C1143 1.511 . S
C1141 C1137 1.376 . S
C1141 C1140 1.392 . S
C1141 H1153 0.929 . S
C1142 C1138 1.531 . S
C1142 H1154 0.960 . S
C1142 H1155 0.962 . S
C1142 H1156 0.960 . S
C1143 C1140 1.511 . S
C1143 H1157 0.961 . S
C1143 H1158 0.961 . S
C1143 H1159 0.961 . S
C1144 C1145 1.370 . S
C1144 C1146 1.363 . S
C1144 H1160 0.931 . S
C1145 C1144 1.370 . S
C1145 C1149 1.408 . S
C1146 C1144 1.363 . S
C1146 C1147 1.370 . S
C1146 C1150 1.524 . S
C1147 C1139 1.503 . S
C1147 C1146 1.370 . S
C1147 C1148 1.403 . S
C1148 C1147 1.403 . S
C1148 C1149 1.404 . S
C1148 C1151 1.539 . S
C1149 C1145 1.408 . S
C1149 C1148 1.404 . S
C1149 H1161 0.930 . S
C1150 C1146 1.524 . S
C1150 H1162 0.956 . S
C1150 H1163 0.961 . S
C1150 H1164 0.961 . S
C1151 C1148 1.539 . S
C1151 H1165 0.958 . S
C1151 H1166 0.961 . S
C1151 H1167 0.960 . S
H1152 C1136 0.931 . S
H1153 C1141 0.929 . S
H1154 C1142 0.960 . S
H1155 C1142 0.962 . S
H1156 C1142 0.960 . S
H1157 C1143 0.961 . S
H1158 C1143 0.961 . S
H1159 C1143 0.961 . S
H1160 C1144 0.931 . S
H1161 C1149 0.930 . S
H1162 C1150 0.956 . S
H1163 C1150 0.961 . S
H1164 C1150 0.961 . S
H1165 C1151 0.958 . S
H1166 C1151 0.961 . S
H1167 C1151 0.960 . S
C1168 C1169 1.391 . S
C1168 C1170 1.394 . S
C1168 H1184 0.931 . S
C1169 C1168 1.391 . S
C1169 C1173 1.376 . S
C1170 C1168 1.394 . S
C1170 C1171 1.369 . S
C1170 C1174 1.531 . S
C1171 C1170 1.369 . S
C1171 C1172 1.410 . S
C1171 C1179 1.503 . S
C1172 C1171 1.410 . S
C1172 C1173 1.392 . S
C1172 C1175 1.511 . S
C1173 C1169 1.376 . S
C1173 C1172 1.392 . S
C1173 H1185 0.929 . S
C1174 C1170 1.531 . S
C1174 H1186 0.960 . S
C1174 H1187 0.962 . S
C1174 H1188 0.960 . S
C1175 C1172 1.511 . S
C1175 H1189 0.961 . S
C1175 H1190 0.961 . S
C1175 H1191 0.961 . S
C1176 C1177 1.370 . S
C1176 C1178 1.363 . S
C1176 H1192 0.931 . S
C1177 C1176 1.370 . S
C1177 C1181 1.408 . S
C1178 C1176 1.363 . S
C1178 C1179 1.370 . S
C1178 C1182 1.524 . S
C1179 C1171 1.503 . S
C1179 C1178 1.370 . S
C1179 C1180 1.403 . S
C1180 C1179 1.403 . S
C1180 C1181 1.404 . S
C1180 C1183 1.539 . S
C1181 C1177 1.408 . S
C1181 C1180 1.404 . S
C1181 H1193 0.930 . S
C1182 C1178 1.524 . S
C1182 H1194 0.956 . S
C1182 H1195 0.961 . S
C1182 H1196 0.961 . S
C1183 C1180 1.539 . S
C1183 H1197 0.958 . S
C1183 H1198 0.961 . S
C1183 H1199 0.960 . S
H1184 C1168 0.931 . S
H1185 C1173 0.929 . S
H1186 C1174 0.960 . S
H1187 C1174 0.962 . S
H1188 C1174 0.960 . S
H1189 C1175 0.961 . S
H1190 C1175 0.961 . S
H1191 C1175 0.961 . S
H1192 C1176 0.931 . S
H1193 C1181 0.930 . S
H1194 C1182 0.956 . S
H1195 C1182 0.961 . S
H1196 C1182 0.961 . S
H1197 C1183 0.958 . S
H1198 C1183 0.961 . S
H1199 C1183 0.960 . S
C1200 C1201 1.391 . S
C1200 C1202 1.394 . S
C1200 H1216 0.931 . S
C1201 C1200 1.391 . S
C1201 C1205 1.376 . S
C1202 C1200 1.394 . S
C1202 C1203 1.369 . S
C1202 C1206 1.531 . S
C1203 C1202 1.369 . S
C1203 C1204 1.410 . S
C1203 C1211 1.503 . S
C1204 C1203 1.410 . S
C1204 C1205 1.392 . S
C1204 C1207 1.511 . S
C1205 C1201 1.376 . S
C1205 C1204 1.392 . S
C1205 H1217 0.929 . S
C1206 C1202 1.531 . S
C1206 H1218 0.960 . S
C1206 H1219 0.962 1_655 S
C1206 H1220 0.960 . S
C1207 C1204 1.511 . S
C1207 H1221 0.961 . S
C1207 H1222 0.961 . S
C1207 H1223 0.961 . S
C1208 C1209 1.370 . S
C1208 C1210 1.363 . S
C1208 H1224 0.931 . S
C1209 C1208 1.370 . S
C1209 C1213 1.408 1_455 S
C1210 C1208 1.363 . S
C1210 C1211 1.370 1_455 S
C1210 C1214 1.524 . S
C1211 C1203 1.503 . S
C1211 C1210 1.370 1_655 S
C1211 C1212 1.403 . S
C1212 C1211 1.403 . S
C1212 C1213 1.404 . S
C1212 C1215 1.539 . S
C1213 C1209 1.408 1_655 S
C1213 C1212 1.404 . S
C1213 H1225 0.930 . S
C1214 C1210 1.524 . S
C1214 H1226 0.956 . S
C1214 H1227 0.961 . S
C1214 H1228 0.961 . S
C1215 C1212 1.539 . S
C1215 H1229 0.958 . S
C1215 H1230 0.961 . S
C1215 H1231 0.960 . S
H1216 C1200 0.931 . S
H1217 C1205 0.929 . S
H1218 C1206 0.960 . S
H1219 C1206 0.962 1_455 S
H1220 C1206 0.960 . S
H1221 C1207 0.961 . S
H1222 C1207 0.961 . S
H1223 C1207 0.961 . S
H1224 C1208 0.931 . S
H1225 C1213 0.930 . S
H1226 C1214 0.956 . S
H1227 C1214 0.961 . S
H1228 C1214 0.961 . S
H1229 C1215 0.958 . S
H1230 C1215 0.961 . S
H1231 C1215 0.960 . S
C1232 C1233 1.391 1_565 S
C1232 C1234 1.394 . S
C1232 H1248 0.931 . S
C1233 C1232 1.391 1_545 S
C1233 C1237 1.376 . S
C1234 C1232 1.394 . S
C1234 C1235 1.369 . S
C1234 C1238 1.531 . S
C1235 C1234 1.369 . S
C1235 C1236 1.410 1_565 S
C1235 C1243 1.503 . S
C1236 C1235 1.410 1_545 S
C1236 C1237 1.392 . S
C1236 C1239 1.511 1_655 S
C1237 C1233 1.376 . S
C1237 C1236 1.392 . S
C1237 H1249 0.929 . S
C1238 C1234 1.531 . S
C1238 H1250 0.960 . S
C1238 H1251 0.962 . S
C1238 H1252 0.960 . S
C1239 C1236 1.511 1_455 S
C1239 H1253 0.961 . S
C1239 H1254 0.961 . S
C1239 H1255 0.961 . S
C1240 C1241 1.370 1_655 S
C1240 C1242 1.363 . S
C1240 H1256 0.931 . S
C1241 C1240 1.370 1_455 S
C1241 C1245 1.408 . S
C1242 C1240 1.363 . S
C1242 C1243 1.370 . S
C1242 C1246 1.524 . S
C1243 C1235 1.503 . S
C1243 C1242 1.370 . S
C1243 C1244 1.403 1_655 S
C1244 C1243 1.403 1_455 S
C1244 C1245 1.404 . S
C1244 C1247 1.539 . S
C1245 C1241 1.408 . S
C1245 C1244 1.404 . S
C1245 H1257 0.930 . S
C1246 C1242 1.524 . S
C1246 H1258 0.956 . S
C1246 H1259 0.961 1_565 S
C1246 H1260 0.961 1_565 S
C1247 C1244 1.539 . S
C1247 H1261 0.958 . S
C1247 H1262 0.961 . S
C1247 H1263 0.960 . S
H1248 C1232 0.931 . S
H1249 C1237 0.929 . S
H1250 C1238 0.960 . S
H1251 C1238 0.962 . S
H1252 C1238 0.960 . S
H1253 C1239 0.961 . S
H1254 C1239 0.961 . S
H1255 C1239 0.961 . S
H1256 C1240 0.931 . S
H1257 C1245 0.930 . S
H1258 C1246 0.956 . S
H1259 C1246 0.961 1_545 S
H1260 C1246 0.961 1_545 S
H1261 C1247 0.958 . S
H1262 C1247 0.961 . S
H1263 C1247 0.960 . S
C1264 C1265 1.391 . S
C1264 C1266 1.394 . S
C1264 H1280 0.931 . S
C1265 C1264 1.391 . S
C1265 C1269 1.376 1_545 S
C1266 C1264 1.394 . S
C1266 C1267 1.369 1_545 S
C1266 C1270 1.531 . S
C1267 C1266 1.369 1_565 S
C1267 C1268 1.410 . S
C1267 C1275 1.503 . S
C1268 C1267 1.410 . S
C1268 C1269 1.392 . S
C1268 C1271 1.511 . S
C1269 C1265 1.376 1_565 S
C1269 C1268 1.392 . S
C1269 H1281 0.929 . S
C1270 C1266 1.531 . S
C1270 H1282 0.960 . S
C1270 H1283 0.962 . S
C1270 H1284 0.960 . S
C1271 C1268 1.511 . S
C1271 H1285 0.961 . S
C1271 H1286 0.961 . S
C1271 H1287 0.961 . S
C1272 C1273 1.370 . S
C1272 C1274 1.363 . S
C1272 H1288 0.931 . S
C1273 C1272 1.370 . S
C1273 C1277 1.408 . S
C1274 C1272 1.363 . S
C1274 C1275 1.370 . S
C1274 C1278 1.524 . S
C1275 C1267 1.503 . S
C1275 C1274 1.370 . S
C1275 C1276 1.403 . S
C1276 C1275 1.403 . S
C1276 C1277 1.404 . S
C1276 C1279 1.539 . S
C1277 C1273 1.408 . S
C1277 C1276 1.404 . S
C1277 H1289 0.930 . S
C1278 C1274 1.524 . S
C1278 H1290 0.956 1_565 S
C1278 H1291 0.961 . S
C1278 H1292 0.961 . S
C1279 C1276 1.539 . S
C1279 H1293 0.958 . S
C1279 H1294 0.961 . S
C1279 H1295 0.960 . S
H1280 C1264 0.931 . S
H1281 C1269 0.929 . S
H1282 C1270 0.960 . S
H1283 C1270 0.962 . S
H1284 C1270 0.960 . S
H1285 C1271 0.961 . S
H1286 C1271 0.961 . S
H1287 C1271 0.961 . S
H1288 C1272 0.931 . S
H1289 C1277 0.930 . S
H1290 C1278 0.956 1_545 S
H1291 C1278 0.961 . S
H1292 C1278 0.961 . S
H1293 C1279 0.958 . S
H1294 C1279 0.961 . S
H1295 C1279 0.960 . S
C1296 C1297 1.391 . S
C1296 C1298 1.394 . S
C1296 H1312 0.931 . S
C1297 C1296 1.391 . S
C1297 C1301 1.376 . S
C1298 C1296 1.394 . S
C1298 C1299 1.369 . S
C1298 C1302 1.531 . S
C1299 C1298 1.369 . S
C1299 C1300 1.410 . S
C1299 C1307 1.503 . S
C1300 C1299 1.410 . S
C1300 C1301 1.392 . S
C1300 C1303 1.511 . S
C1301 C1297 1.376 . S
C1301 C1300 1.392 . S
C1301 H1313 0.929 . S
C1302 C1298 1.531 . S
C1302 H1314 0.960 . S
C1302 H1315 0.962 . S
C1302 H1316 0.960 . S
C1303 C1300 1.511 . S
C1303 H1317 0.961 . S
C1303 H1318 0.961 . S
C1303 H1319 0.961 . S
C1304 C1305 1.370 . S
C1304 C1306 1.363 . S
C1304 H1320 0.931 . S
C1305 C1304 1.370 . S
C1305 C1309 1.408 . S
C1306 C1304 1.363 . S
C1306 C1307 1.370 . S
C1306 C1310 1.524 . S
C1307 C1299 1.503 . S
C1307 C1306 1.370 . S
C1307 C1308 1.403 . S
C1308 C1307 1.403 . S
C1308 C1309 1.404 . S
C1308 C1311 1.539 . S
C1309 C1305 1.408 . S
C1309 C1308 1.404 . S
C1309 H1321 0.930 . S
C1310 C1306 1.524 . S
C1310 H1322 0.956 . S
C1310 H1323 0.961 . S
C1310 H1324 0.961 . S
C1311 C1308 1.539 . S
C1311 H1325 0.958 . S
C1311 H1326 0.961 . S
C1311 H1327 0.960 . S
H1312 C1296 0.931 . S
H1313 C1301 0.929 . S
H1314 C1302 0.960 . S
H1315 C1302 0.962 . S
H1316 C1302 0.960 . S
H1317 C1303 0.961 . S
H1318 C1303 0.961 . S
H1319 C1303 0.961 . S
H1320 C1304 0.931 . S
H1321 C1309 0.930 . S
H1322 C1310 0.956 . S
H1323 C1310 0.961 . S
H1324 C1310 0.961 . S
H1325 C1311 0.958 . S
H1326 C1311 0.961 . S
H1327 C1311 0.960 . S
C1328 C1329 1.391 . S
C1328 C1330 1.394 . S
C1328 H1344 0.931 . S
C1329 C1328 1.391 . S
C1329 C1333 1.376 . S
C1330 C1328 1.394 . S
C1330 C1331 1.369 . S
C1330 C1334 1.531 . S
C1331 C1330 1.369 . S
C1331 C1332 1.410 . S
C1331 C1339 1.503 . S
C1332 C1331 1.410 . S
C1332 C1333 1.392 . S
C1332 C1335 1.511 . S
C1333 C1329 1.376 . S
C1333 C1332 1.392 . S
C1333 H1345 0.929 . S
C1334 C1330 1.531 . S
C1334 H1346 0.960 . S
C1334 H1347 0.962 1_455 S
C1334 H1348 0.960 . S
C1335 C1332 1.511 . S
C1335 H1349 0.961 . S
C1335 H1350 0.961 . S
C1335 H1351 0.961 . S
C1336 C1337 1.370 . S
C1336 C1338 1.371 . S
C1336 H1352 0.931 . S
C1337 C1336 1.370 . S
C1337 C1341 1.408 1_655 S
C1338 C1336 1.371 . S
C1338 C1339 1.355 1_655 S
C1338 C1342 1.532 . S
C1339 C1331 1.503 . S
C1339 C1338 1.355 1_455 S
C1339 C1340 1.403 . S
C1340 C1339 1.403 . S
C1340 C1341 1.404 . S
C1340 C1343 1.539 . S
C1341 C1337 1.408 1_455 S
C1341 C1340 1.404 . S
C1341 H1353 0.930 . S
C1342 C1338 1.532 . S
C1342 H1354 0.956 . S
C1342 H1355 0.961 1_655 S
C1342 H1356 0.961 . S
C1343 C1340 1.539 . S
C1343 H1357 0.958 . S
C1343 H1358 0.961 . S
C1343 H1359 0.960 . S
H1344 C1328 0.931 . S
H1345 C1333 0.929 . S
H1346 C1334 0.960 . S
H1347 C1334 0.962 1_655 S
H1348 C1334 0.960 . S
H1349 C1335 0.961 . S
H1350 C1335 0.961 . S
H1351 C1335 0.961 . S
H1352 C1336 0.931 . S
H1353 C1341 0.930 . S
H1354 C1342 0.956 . S
H1355 C1342 0.961 1_455 S
H1356 C1342 0.961 . S
H1357 C1343 0.958 . S
H1358 C1343 0.961 . S
H1359 C1343 0.960 . S
C1360 C1361 1.391 . S
C1360 C1362 1.394 1_565 S
C1360 H1376 0.931 . S
C1361 C1360 1.391 . S
C1361 C1365 1.376 1_565 S
C1362 C1360 1.394 1_545 S
C1362 C1363 1.369 . S
C1362 C1366 1.531 . S
C1363 C1362 1.369 . S
C1363 C1364 1.410 . S
C1363 C1371 1.503 . S
C1364 C1363 1.410 . S
C1364 C1365 1.392 . S
C1364 C1367 1.511 1_455 S
C1365 C1361 1.376 1_545 S
C1365 C1364 1.392 . S
C1365 H1377 0.929 . S
C1366 C1362 1.531 . S
C1366 H1378 0.960 1_545 S
C1366 H1379 0.963 . S
C1366 H1380 0.959 1_545 S
C1367 C1364 1.511 1_655 S
C1367 H1381 0.961 . S
C1367 H1382 0.961 . S
C1367 H1383 0.961 . S
C1368 C1369 1.370 1_455 S
C1368 C1370 1.363 . S
C1368 H1384 0.931 . S
C1369 C1368 1.370 1_655 S
C1369 C1373 1.408 . S
C1370 C1368 1.363 . S
C1370 C1371 1.370 . S
C1370 C1374 1.524 . S
C1371 C1363 1.503 . S
C1371 C1370 1.370 . S
C1371 C1372 1.403 . S
C1372 C1371 1.403 . S
C1372 C1373 1.404 1_455 S
C1372 C1375 1.539 1_445 S
C1373 C1369 1.408 . S
C1373 C1372 1.404 1_655 S
C1373 H1385 0.930 . S
C1374 C1370 1.524 . S
C1374 H1386 0.956 . S
C1374 H1387 0.961 . S
C1374 H1388 0.961 . S
C1375 C1372 1.539 1_665 S
C1375 H1389 0.958 1_655 S
C1375 H1390 0.961 . S
C1375 H1391 0.960 . S
H1376 C1360 0.931 . S
H1377 C1365 0.929 . S
H1378 C1366 0.960 1_565 S
H1379 C1366 0.963 . S
H1380 C1366 0.959 1_565 S
H1381 C1367 0.961 . S
H1382 C1367 0.961 . S
H1383 C1367 0.961 . S
H1384 C1368 0.931 . S
H1385 C1373 0.930 . S
H1386 C1374 0.956 . S
H1387 C1374 0.961 . S
H1388 C1374 0.961 . S
H1389 C1375 0.958 1_455 S
H1390 C1375 0.961 . S
H1391 C1375 0.960 . S
C1392 C1393 1.391 . S
C1392 C1394 1.394 . S
C1392 H1408 0.931 . S
C1393 C1392 1.391 . S
C1393 C1397 1.376 . S
C1394 C1392 1.394 . S
C1394 C1395 1.369 . S
C1394 C1398 1.531 . S
C1395 C1394 1.369 . S
C1395 C1396 1.410 . S
C1395 C1403 1.503 . S
C1396 C1395 1.410 . S
C1396 C1397 1.392 . S
C1396 C1399 1.511 1_545 S
C1397 C1393 1.376 . S
C1397 C1396 1.392 . S
C1397 H1409 0.929 . S
C1398 C1394 1.531 . S
C1398 H1410 0.960 . S
C1398 H1411 0.962 . S
C1398 H1412 0.960 . S
C1399 C1396 1.511 1_565 S
C1399 H1413 0.961 . S
C1399 H1414 0.961 . S
C1399 H1415 0.961 . S
C1400 C1401 1.370 . S
C1400 C1402 1.363 1_565 S
C1400 H1416 0.931 . S
C1401 C1400 1.370 . S
C1401 C1405 1.408 1_565 S
C1402 C1400 1.363 1_545 S
C1402 C1403 1.370 . S
C1402 C1406 1.524 . S
C1403 C1395 1.503 . S
C1403 C1402 1.370 . S
C1403 C1404 1.403 . S
C1404 C1403 1.403 . S
C1404 C1405 1.404 . S
C1404 C1407 1.539 . S
C1405 C1401 1.408 1_545 S
C1405 C1404 1.404 . S
C1405 H1417 0.930 . S
C1406 C1402 1.524 . S
C1406 H1418 0.956 . S
C1406 H1419 0.961 1_545 S
C1406 H1420 0.961 1_545 S
C1407 C1404 1.539 . S
C1407 H1421 0.958 . S
C1407 H1422 0.961 . S
C1407 H1423 0.960 . S
H1408 C1392 0.931 . S
H1409 C1397 0.929 . S
H1410 C1398 0.960 . S
H1411 C1398 0.962 . S
H1412 C1398 0.960 . S
H1413 C1399 0.961 . S
H1414 C1399 0.961 . S
H1415 C1399 0.961 . S
H1416 C1400 0.931 . S
H1417 C1405 0.930 . S
H1418 C1406 0.956 . S
H1419 C1406 0.961 1_565 S
H1420 C1406 0.961 1_565 S
H1421 C1407 0.958 . S
H1422 C1407 0.961 . S
H1423 C1407 0.960 . S
C1424 C1425 1.391 . S
C1424 C1426 1.394 . S
C1424 H1440 0.931 . S
C1425 C1424 1.391 . S
C1425 C1429 1.376 . S
C1426 C1424 1.394 . S
C1426 C1427 1.369 . S
C1426 C1430 1.531 . S
C1427 C1426 1.369 . S
C1427 C1428 1.410 . S
C1427 C1435 1.503 . S
C1428 C1427 1.410 . S
C1428 C1429 1.392 . S
C1428 C1431 1.511 . S
C1429 C1425 1.376 . S
C1429 C1428 1.392 . S
C1429 H1441 0.929 . S
C1430 C1426 1.531 . S
C1430 H1442 0.960 . S
C1430 H1443 0.962 . S
C1430 H1444 0.960 . S
C1431 C1428 1.511 . S
C1431 H1445 0.961 . S
C1431 H1446 0.961 . S
C1431 H1447 0.961 . S
C1432 C1433 1.370 . S
C1432 C1434 1.363 . S
C1432 H1448 0.931 . S
C1433 C1432 1.370 . S
C1433 C1437 1.408 . S
C1434 C1432 1.363 . S
C1434 C1435 1.370 . S
C1434 C1438 1.524 . S
C1435 C1427 1.503 . S
C1435 C1434 1.370 . S
C1435 C1436 1.403 . S
C1436 C1435 1.403 . S
C1436 C1437 1.404 . S
C1436 C1439 1.539 . S
C1437 C1433 1.408 . S
C1437 C1436 1.404 . S
C1437 H1449 0.930 . S
C1438 C1434 1.524 . S
C1438 H1450 0.956 . S
C1438 H1451 0.961 . S
C1438 H1452 0.961 . S
C1439 C1436 1.539 . S
C1439 H1453 0.958 . S
C1439 H1454 0.961 . S
C1439 H1455 0.960 . S
H1440 C1424 0.931 . S
H1441 C1429 0.929 . S
H1442 C1430 0.960 . S
H1443 C1430 0.962 . S
H1444 C1430 0.960 . S
H1445 C1431 0.961 . S
H1446 C1431 0.961 . S
H1447 C1431 0.961 . S
H1448 C1432 0.931 . S
H1449 C1437 0.930 . S
H1450 C1438 0.956 . S
H1451 C1438 0.961 . S
H1452 C1438 0.961 . S
H1453 C1439 0.958 . S
H1454 C1439 0.961 . S
H1455 C1439 0.960 . S
C1456 C1457 1.391 . S
C1456 C1458 1.394 . S
C1456 H1472 0.931 1_455 S
C1457 C1456 1.391 . S
C1457 C1461 1.376 . S
C1458 C1456 1.394 . S
C1458 C1459 1.369 . S
C1458 C1462 1.531 1_455 S
C1459 C1458 1.369 . S
C1459 C1460 1.410 . S
C1459 C1467 1.503 . S
C1460 C1459 1.410 . S
C1460 C1461 1.392 . S
C1460 C1463 1.511 . S
C1461 C1457 1.376 . S
C1461 C1460 1.392 . S
C1461 H1473 0.929 . S
C1462 C1458 1.531 1_655 S
C1462 H1474 0.960 . S
C1462 H1475 0.962 . S
C1462 H1476 0.960 . S
C1463 C1460 1.511 . S
C1463 H1477 0.961 . S
C1463 H1478 0.961 . S
C1463 H1479 0.961 . S
C1464 C1465 1.370 . S
C1464 C1466 1.363 . S
C1464 H1480 0.931 . S
C1465 C1464 1.370 . S
C1465 C1469 1.408 . S
C1466 C1464 1.363 . S
C1466 C1467 1.370 . S
C1466 C1470 1.524 . S
C1467 C1459 1.503 . S
C1467 C1466 1.370 . S
C1467 C1468 1.403 . S
C1468 C1467 1.403 . S
C1468 C1469 1.404 . S
C1468 C1471 1.539 . S
C1469 C1465 1.408 . S
C1469 C1468 1.404 . S
C1469 H1481 0.930 . S
C1470 C1466 1.524 . S
C1470 H1482 0.956 . S
C1470 H1483 0.961 . S
C1470 H1484 0.961 . S
C1471 C1468 1.539 . S
C1471 H1485 0.958 . S
C1471 H1486 0.961 . S
C1471 H1487 0.960 . S
H1472 C1456 0.931 1_655 S
H1473 C1461 0.929 . S
H1474 C1462 0.960 . S
H1475 C1462 0.962 . S
H1476 C1462 0.960 . S
H1477 C1463 0.961 . S
H1478 C1463 0.961 . S
H1479 C1463 0.961 . S
H1480 C1464 0.931 . S
H1481 C1469 0.930 . S
H1482 C1470 0.956 . S
H1483 C1470 0.961 . S
H1484 C1470 0.961 . S
H1485 C1471 0.958 . S
H1486 C1471 0.961 . S
H1487 C1471 0.960 . S
C1488 C1489 1.391 . S
C1488 C1490 1.394 . S
C1488 H1504 0.931 . S
C1489 C1488 1.391 . S
C1489 C1493 1.376 . S
C1490 C1488 1.394 . S
C1490 C1491 1.369 . S
C1490 C1494 1.531 . S
C1491 C1490 1.369 . S
C1491 C1492 1.410 . S
C1491 C1499 1.503 . S
C1492 C1491 1.410 . S
C1492 C1493 1.392 . S
C1492 C1495 1.511 . S
C1493 C1489 1.376 . S
C1493 C1492 1.392 . S
C1493 H1505 0.929 . S
C1494 C1490 1.531 . S
C1494 H1506 0.960 . S
C1494 H1507 0.965 1_545 S
C1494 H1508 0.960 . S
C1495 C1492 1.511 . S
C1495 H1509 0.961 . S
C1495 H1510 0.961 . S
C1495 H1511 0.961 . S
C1496 C1497 1.370 . S
C1496 C1498 1.363 . S
C1496 H1512 0.931 1_545 S
C1497 C1496 1.370 . S
C1497 C1501 1.408 . S
C1498 C1496 1.363 . S
C1498 C1499 1.370 . S
C1498 C1502 1.524 1_545 S
C1499 C1491 1.503 . S
C1499 C1498 1.370 . S
C1499 C1500 1.403 . S
C1500 C1499 1.403 . S
C1500 C1501 1.404 . S
C1500 C1503 1.539 . S
C1501 C1497 1.408 . S
C1501 C1500 1.404 . S
C1501 H1513 0.930 . S
C1502 C1498 1.524 1_565 S
C1502 H1514 0.956 . S
C1502 H1515 0.961 . S
C1502 H1516 0.961 . S
C1503 C1500 1.539 . S
C1503 H1517 0.958 . S
C1503 H1518 0.961 . S
C1503 H1519 0.960 . S
H1504 C1488 0.931 . S
H1505 C1493 0.929 . S
H1506 C1494 0.960 . S
H1507 C1494 0.965 1_565 S
H1508 C1494 0.960 . S
H1509 C1495 0.961 . S
H1510 C1495 0.961 . S
H1511 C1495 0.961 . S
H1512 C1496 0.931 1_565 S
H1513 C1501 0.930 . S
H1514 C1502 0.956 . S
H1515 C1502 0.961 . S
H1516 C1502 0.961 . S
H1517 C1503 0.958 . S
H1518 C1503 0.961 . S
H1519 C1503 0.960 . S
C1520 C1521 1.391 . S
C1520 C1522 1.394 . S
C1520 H1536 0.931 . S
C1521 C1520 1.391 . S
C1521 C1525 1.376 . S
C1522 C1520 1.394 . S
C1522 C1523 1.369 . S
C1522 C1526 1.531 . S
C1523 C1522 1.369 . S
C1523 C1524 1.410 . S
C1523 C1531 1.503 . S
C1524 C1523 1.410 . S
C1524 C1525 1.392 . S
C1524 C1527 1.511 . S
C1525 C1521 1.376 . S
C1525 C1524 1.392 . S
C1525 H1537 0.929 . S
C1526 C1522 1.531 . S
C1526 H1538 0.960 . S
C1526 H1539 0.962 . S
C1526 H1540 0.960 . S
C1527 C1524 1.511 . S
C1527 H1541 0.961 . S
C1527 H1542 0.961 . S
C1527 H1543 0.961 . S
C1528 C1529 1.370 . S
C1528 C1530 1.363 . S
C1528 H1544 0.931 . S
C1529 C1528 1.370 . S
C1529 C1533 1.408 . S
C1530 C1528 1.363 . S
C1530 C1531 1.370 . S
C1530 C1534 1.524 . S
C1531 C1523 1.503 . S
C1531 C1530 1.370 . S
C1531 C1532 1.403 . S
C1532 C1531 1.403 . S
C1532 C1533 1.404 . S
C1532 C1535 1.539 . S
C1533 C1529 1.408 . S
C1533 C1532 1.404 . S
C1533 H1545 0.930 . S
C1534 C1530 1.524 . S
C1534 H1546 0.956 . S
C1534 H1547 0.961 . S
C1534 H1548 0.961 . S
C1535 C1532 1.539 . S
C1535 H1549 0.958 . S
C1535 H1550 0.961 . S
C1535 H1551 0.960 . S
H1536 C1520 0.931 . S
H1537 C1525 0.929 . S
H1538 C1526 0.960 . S
H1539 C1526 0.962 . S
H1540 C1526 0.960 . S
H1541 C1527 0.961 . S
H1542 C1527 0.961 . S
H1543 C1527 0.961 . S
H1544 C1528 0.931 . S
H1545 C1533 0.930 . S
H1546 C1534 0.956 . S
H1547 C1534 0.961 . S
H1548 C1534 0.961 . S
H1549 C1535 0.958 . S
H1550 C1535 0.961 . S
H1551 C1535 0.960 . S
C1552 C1553 1.391 . S
C1552 C1554 1.394 . S
C1552 H1568 0.931 . S
C1553 C1552 1.391 . S
C1553 C1557 1.376 . S
C1554 C1552 1.394 . S
C1554 C1555 1.369 . S
C1554 C1558 1.531 . S
C1555 C1554 1.369 . S
C1555 C1556 1.410 . S
C1555 C1563 1.503 . S
C1556 C1555 1.410 . S
C1556 C1557 1.392 . S
C1556 C1559 1.511 . S
C1557 C1553 1.376 . S
C1557 C1556 1.392 . S
C1557 H1569 0.929 . S
C1558 C1554 1.531 . S
C1558 H1570 0.960 . S
C1558 H1571 0.962 . S
C1558 H1572 0.960 . S
C1559 C1556 1.511 . S
C1559 H1573 0.961 . S
C1559 H1574 0.961 . S
C1559 H1575 0.961 . S
C1560 C1561 1.370 . S
C1560 C1562 1.363 . S
C1560 H1576 0.931 . S
C1561 C1560 1.370 . S
C1561 C1565 1.408 . S
C1562 C1560 1.363 . S
C1562 C1563 1.370 . S
C1562 C1566 1.524 . S
C1563 C1555 1.503 . S
C1563 C1562 1.370 . S
C1563 C1564 1.403 . S
C1564 C1563 1.403 . S
C1564 C1565 1.404 . S
C1564 C1567 1.539 . S
C1565 C1561 1.408 . S
C1565 C1564 1.404 . S
C1565 H1577 0.930 . S
C1566 C1562 1.524 . S
C1566 H1578 0.956 . S
C1566 H1579 0.961 . S
C1566 H1580 0.961 . S
C1567 C1564 1.539 . S
C1567 H1581 0.958 . S
C1567 H1582 0.961 . S
C1567 H1583 0.960 . S
H1568 C1552 0.931 . S
H1569 C1557 0.929 . S
H1570 C1558 0.960 . S
H1571 C1558 0.962 . S
H1572 C1558 0.960 . S
H1573 C1559 0.961 . S
H1574 C1559 0.961 . S
H1575 C1559 0.961 . S
H1576 C1560 0.931 . S
H1577 C1565 0.930 . S
H1578 C1566 0.956 . S
H1579 C1566 0.961 . S
H1580 C1566 0.961 . S
H1581 C1567 0.958 . S
H1582 C1567 0.961 . S
H1583 C1567 0.960 . S
C1584 C1585 1.391 . S
C1584 C1586 1.394 . S
C1584 H1600 0.931 1_655 S
C1585 C1584 1.391 . S
C1585 C1589 1.376 . S
C1586 C1584 1.394 . S
C1586 C1587 1.369 . S
C1586 C1590 1.531 1_655 S
C1587 C1586 1.369 . S
C1587 C1588 1.410 . S
C1587 C1595 1.503 . S
C1588 C1587 1.410 . S
C1588 C1589 1.392 . S
C1588 C1591 1.511 . S
C1589 C1585 1.376 . S
C1589 C1588 1.392 . S
C1589 H1601 0.929 . S
C1590 C1586 1.531 1_455 S
C1590 H1602 0.960 . S
C1590 H1603 0.962 . S
C1590 H1604 0.960 . S
C1591 C1588 1.511 . S
C1591 H1605 0.961 . S
C1591 H1606 0.961 . S
C1591 H1607 0.961 . S
C1592 C1593 1.370 . S
C1592 C1594 1.363 . S
C1592 H1608 0.931 . S
C1593 C1592 1.370 . S
C1593 C1597 1.408 . S
C1594 C1592 1.363 . S
C1594 C1595 1.370 . S
C1594 C1598 1.524 . S
C1595 C1587 1.503 . S
C1595 C1594 1.370 . S
C1595 C1596 1.403 . S
C1596 C1595 1.403 . S
C1596 C1597 1.404 . S
C1596 C1599 1.539 . S
C1597 C1593 1.408 . S
C1597 C1596 1.404 . S
C1597 H1609 0.930 . S
C1598 C1594 1.524 . S
C1598 H1610 0.956 . S
C1598 H1611 0.961 . S
C1598 H1612 0.961 . S
C1599 C1596 1.539 . S
C1599 H1613 0.958 . S
C1599 H1614 0.961 . S
C1599 H1615 0.960 . S
H1600 C1584 0.931 1_455 S
H1601 C1589 0.929 . S
H1602 C1590 0.960 . S
H1603 C1590 0.962 . S
H1604 C1590 0.960 . S
H1605 C1591 0.961 . S
H1606 C1591 0.961 . S
H1607 C1591 0.961 . S
H1608 C1592 0.931 . S
H1609 C1597 0.930 . S
H1610 C1598 0.956 . S
H1611 C1598 0.961 . S
H1612 C1598 0.961 . S
H1613 C1599 0.958 . S
H1614 C1599 0.961 . S
H1615 C1599 0.960 . S
C1616 C1617 1.391 . S
C1616 C1618 1.394 . S
C1616 H1632 0.931 . S
C1617 C1616 1.391 . S
C1617 C1621 1.376 . S
C1618 C1616 1.394 . S
C1618 C1619 1.369 . S
C1618 C1622 1.531 . S
C1619 C1618 1.369 . S
C1619 C1620 1.410 . S
C1619 C1627 1.503 . S
C1620 C1619 1.410 . S
C1620 C1621 1.392 . S
C1620 C1623 1.511 . S
C1621 C1617 1.376 . S
C1621 C1620 1.392 . S
C1621 H1633 0.929 . S
C1622 C1618 1.531 . S
C1622 H1634 0.960 . S
C1622 H1635 0.962 . S
C1622 H1636 0.960 . S
C1623 C1620 1.511 . S
C1623 H1637 0.961 1_565 S
C1623 H1638 0.961 . S
C1623 H1639 0.961 . S
C1624 C1625 1.370 . S
C1624 C1626 1.363 . S
C1624 H1640 0.931 . S
C1625 C1624 1.370 . S
C1625 C1629 1.408 . S
C1626 C1624 1.363 . S
C1626 C1627 1.370 . S
C1626 C1630 1.524 1_565 S
C1627 C1619 1.503 . S
C1627 C1626 1.370 . S
C1627 C1628 1.403 . S
C1628 C1627 1.403 . S
C1628 C1629 1.404 . S
C1628 C1631 1.539 . S
C1629 C1625 1.408 . S
C1629 C1628 1.404 . S
C1629 H1641 0.930 . S
C1630 C1626 1.524 1_545 S
C1630 H1642 0.956 1_545 S
C1630 H1643 0.961 . S
C1630 H1644 0.961 . S
C1631 C1628 1.539 . S
C1631 H1645 0.958 . S
C1631 H1646 0.961 . S
C1631 H1647 0.960 . S
H1632 C1616 0.931 . S
H1633 C1621 0.929 . S
H1634 C1622 0.960 . S
H1635 C1622 0.962 . S
H1636 C1622 0.960 . S
H1637 C1623 0.961 1_545 S
H1638 C1623 0.961 . S
H1639 C1623 0.961 . S
H1640 C1624 0.931 . S
H1641 C1629 0.930 . S
H1642 C1630 0.956 1_565 S
H1643 C1630 0.961 . S
H1644 C1630 0.961 . S
H1645 C1631 0.958 . S
H1646 C1631 0.961 . S
H1647 C1631 0.960 . S
C1648 C1649 1.391 . S
C1648 C1650 1.394 . S
C1648 H1664 0.931 . S
C1649 C1648 1.391 . S
C1649 C1653 1.376 . S
C1650 C1648 1.394 . S
C1650 C1651 1.369 . S
C1650 C1654 1.531 . S
C1651 C1650 1.369 . S
C1651 C1652 1.410 . S
C1651 C1659 1.503 . S
C1652 C1651 1.410 . S
C1652 C1653 1.392 . S
C1652 C1655 1.511 . S
C1653 C1649 1.376 . S
C1653 C1652 1.392 . S
C1653 H1665 0.929 . S
C1654 C1650 1.531 . S
C1654 H1666 0.960 . S
C1654 H1667 0.962 . S
C1654 H1668 0.960 . S
C1655 C1652 1.511 . S
C1655 H1669 0.961 . S
C1655 H1670 0.961 . S
C1655 H1671 0.961 . S
C1656 C1657 1.370 . S
C1656 C1658 1.363 . S
C1656 H1672 0.931 . S
C1657 C1656 1.370 . S
C1657 C1661 1.408 . S
C1658 C1656 1.363 . S
C1658 C1659 1.370 . S
C1658 C1662 1.524 . S
C1659 C1651 1.503 . S
C1659 C1658 1.370 . S
C1659 C1660 1.403 . S
C1660 C1659 1.403 . S
C1660 C1661 1.404 . S
C1660 C1663 1.539 . S
C1661 C1657 1.408 . S
C1661 C1660 1.404 . S
C1661 H1673 0.930 . S
C1662 C1658 1.524 . S
C1662 H1674 0.956 . S
C1662 H1675 0.961 . S
C1662 H1676 0.961 . S
C1663 C1660 1.539 . S
C1663 H1677 0.958 . S
C1663 H1678 0.961 . S
C1663 H1679 0.960 . S
H1664 C1648 0.931 . S
H1665 C1653 0.929 . S
H1666 C1654 0.960 . S
H1667 C1654 0.962 . S
H1668 C1654 0.960 . S
H1669 C1655 0.961 . S
H1670 C1655 0.961 . S
H1671 C1655 0.961 . S
H1672 C1656 0.931 . S
H1673 C1661 0.930 . S
H1674 C1662 0.956 . S
H1675 C1662 0.961 . S
H1676 C1662 0.961 . S
H1677 C1663 0.958 . S
H1678 C1663 0.961 . S
H1679 C1663 0.960 . S
C1680 C1681 1.391 . S
C1680 C1682 1.394 . S
C1680 H1696 0.931 . S
C1681 C1680 1.391 . S
C1681 C1685 1.376 . S
C1682 C1680 1.394 . S
C1682 C1683 1.369 . S
C1682 C1686 1.531 . S
C1683 C1682 1.369 . S
C1683 C1684 1.410 . S
C1683 C1691 1.503 . S
C1684 C1683 1.410 . S
C1684 C1685 1.392 . S
C1684 C1687 1.511 . S
C1685 C1681 1.376 . S
C1685 C1684 1.392 . S
C1685 H1697 0.929 . S
C1686 C1682 1.531 . S
C1686 H1698 0.960 . S
C1686 H1699 0.962 . S
C1686 H1700 0.960 . S
C1687 C1684 1.511 . S
C1687 H1701 0.961 . S
C1687 H1702 0.961 . S
C1687 H1703 0.961 . S
C1688 C1689 1.370 . S
C1688 C1690 1.363 . S
C1688 H1704 0.931 . S
C1689 C1688 1.370 . S
C1689 C1693 1.408 . S
C1690 C1688 1.363 . S
C1690 C1691 1.370 . S
C1690 C1694 1.524 . S
C1691 C1683 1.503 . S
C1691 C1690 1.370 . S
C1691 C1692 1.403 . S
C1692 C1691 1.403 . S
C1692 C1693 1.404 . S
C1692 C1695 1.539 . S
C1693 C1689 1.408 . S
C1693 C1692 1.404 . S
C1693 H1705 0.930 . S
C1694 C1690 1.524 . S
C1694 H1706 0.956 . S
C1694 H1707 0.961 . S
C1694 H1708 0.961 . S
C1695 C1692 1.539 . S
C1695 H1709 0.958 . S
C1695 H1710 0.961 . S
C1695 H1711 0.960 . S
H1696 C1680 0.931 . S
H1697 C1685 0.929 . S
H1698 C1686 0.960 . S
H1699 C1686 0.962 . S
H1700 C1686 0.960 . S
H1701 C1687 0.961 . S
H1702 C1687 0.961 . S
H1703 C1687 0.961 . S
H1704 C1688 0.931 . S
H1705 C1693 0.930 . S
H1706 C1694 0.956 . S
H1707 C1694 0.961 . S
H1708 C1694 0.961 . S
H1709 C1695 0.958 . S
H1710 C1695 0.961 . S
H1711 C1695 0.960 . S
C1712 C1713 1.391 . S
C1712 C1714 1.394 1_554 S
C1712 H1728 0.931 . S
C1713 C1712 1.391 . S
C1713 C1717 1.376 . S
C1714 C1712 1.394 1_556 S
C1714 C1715 1.369 1_556 S
C1714 C1718 1.531 1_455 S
C1715 C1714 1.369 1_554 S
C1715 C1716 1.410 . S
C1715 C1723 1.508 1_554 S
C1716 C1715 1.410 . S
C1716 C1717 1.392 . S
C1716 C1719 1.511 . S
C1717 C1713 1.376 . S
C1717 C1716 1.392 . S
C1717 H1729 0.929 . S
C1718 C1714 1.531 1_655 S
C1718 H1730 0.960 . S
C1718 H1731 0.962 . S
C1718 H1732 0.960 . S
C1719 C1716 1.511 . S
C1719 H1733 0.961 . S
C1719 H1734 0.961 . S
C1719 H1735 0.961 . S
C1720 C1721 1.370 . S
C1720 C1722 1.363 . S
C1720 H1736 0.931 . S
C1721 C1720 1.370 . S
C1721 C1725 1.408 1_655 S
C1722 C1720 1.363 . S
C1722 C1723 1.357 1_655 S
C1722 C1726 1.524 1_556 S
C1723 C1715 1.508 1_556 S
C1723 C1722 1.357 1_455 S
C1723 C1724 1.412 . S
C1724 C1723 1.412 . S
C1724 C1725 1.404 . S
C1724 C1727 1.539 . S
C1725 C1721 1.408 1_455 S
C1725 C1724 1.404 . S
C1725 H1737 0.930 . S
C1726 C1722 1.524 1_554 S
C1726 H1738 0.956 . S
C1726 H1739 0.961 . S
C1726 H1740 0.961 . S
C1727 C1724 1.539 . S
C1727 H1741 0.958 . S
C1727 H1742 0.961 . S
C1727 H1743 0.960 . S
H1728 C1712 0.931 . S
H1729 C1717 0.929 . S
H1730 C1718 0.960 . S
H1731 C1718 0.962 . S
H1732 C1718 0.960 . S
H1733 C1719 0.961 . S
H1734 C1719 0.961 . S
H1735 C1719 0.961 . S
H1736 C1720 0.931 . S
H1737 C1725 0.930 . S
H1738 C1726 0.956 . S
H1739 C1726 0.961 . S
H1740 C1726 0.961 . S
H1741 C1727 0.958 . S
H1742 C1727 0.961 . S
H1743 C1727 0.960 . S
C1744 C1745 1.391 . S
C1744 C1746 1.395 1_556 S
C1744 H1760 0.931 . S
C1745 C1744 1.391 . S
C1745 C1749 1.376 1_565 S
C1746 C1744 1.395 1_554 S
C1746 C1747 1.369 1_554 S
C1746 C1750 1.529 . S
C1747 C1746 1.369 1_556 S
C1747 C1748 1.410 1_565 S
C1747 C1755 1.503 1_466 S
C1748 C1747 1.410 1_545 S
C1748 C1749 1.392 . S
C1748 C1751 1.511 . S
C1749 C1745 1.376 1_545 S
C1749 C1748 1.392 . S
C1749 H1761 0.929 . S
C1750 C1746 1.529 . S
C1750 H1762 0.960 . S
C1750 H1763 0.962 . S
C1750 H1764 0.960 . S
C1751 C1748 1.511 . S
C1751 H1765 0.961 . S
C1751 H1766 0.961 1_455 S
C1751 H1767 0.961 . S
C1752 C1753 1.370 . S
C1752 C1754 1.363 1_545 S
C1752 H1768 0.931 1_545 S
C1753 C1752 1.370 . S
C1753 C1757 1.408 . S
C1754 C1752 1.363 1_565 S
C1754 C1755 1.370 1_565 S
C1754 C1758 1.524 1_554 S
C1755 C1747 1.503 1_644 S
C1755 C1754 1.370 1_545 S
C1755 C1756 1.403 . S
C1756 C1755 1.403 . S
C1756 C1757 1.404 . S
C1756 C1759 1.539 1_655 S
C1757 C1753 1.408 . S
C1757 C1756 1.404 . S
C1757 H1769 0.930 . S
C1758 C1754 1.524 1_556 S
C1758 H1770 0.956 . S
C1758 H1771 0.961 . S
C1758 H1772 0.961 . S
C1759 C1756 1.539 1_455 S
C1759 H1773 0.958 . S
C1759 H1774 0.961 . S
C1759 H1775 0.960 . S
H1760 C1744 0.931 . S
H1761 C1749 0.929 . S
H1762 C1750 0.960 . S
H1763 C1750 0.962 . S
H1764 C1750 0.960 . S
H1765 C1751 0.961 . S
H1766 C1751 0.961 1_655 S
H1767 C1751 0.961 . S
H1768 C1752 0.931 1_565 S
H1769 C1757 0.930 . S
H1770 C1758 0.956 . S
H1771 C1758 0.961 . S
H1772 C1758 0.961 . S
H1773 C1759 0.958 . S
H1774 C1759 0.961 . S
H1775 C1759 0.960 . S
C1776 C1777 1.391 . S
C1776 C1778 1.394 . S
C1776 H1792 0.931 . S
C1777 C1776 1.391 . S
C1777 C1781 1.376 . S
C1778 C1776 1.394 . S
C1778 C1779 1.369 . S
C1778 C1782 1.531 1_565 S
C1779 C1778 1.369 . S
C1779 C1780 1.410 . S
C1779 C1787 1.503 1_564 S
C1780 C1779 1.410 . S
C1780 C1781 1.392 . S
C1780 C1783 1.511 1_554 S
C1781 C1777 1.376 . S
C1781 C1780 1.392 . S
C1781 H1793 0.929 . S
C1782 C1778 1.531 1_545 S
C1782 H1794 0.960 . S
C1782 H1795 0.962 . S
C1782 H1796 0.960 . S
C1783 C1780 1.511 1_556 S
C1783 H1797 0.961 . S
C1783 H1798 0.961 . S
C1783 H1799 0.961 . S
C1784 C1785 1.370 . S
C1784 C1786 1.363 . S
C1784 H1800 0.931 . S
C1785 C1784 1.370 . S
C1785 C1789 1.408 . S
C1786 C1784 1.363 . S
C1786 C1787 1.370 . S
C1786 C1790 1.524 1_545 S
C1787 C1779 1.503 1_546 S
C1787 C1786 1.370 . S
C1787 C1788 1.403 1_556 S
C1788 C1787 1.403 1_554 S
C1788 C1789 1.404 1_554 S
C1788 C1791 1.539 . S
C1789 C1785 1.408 . S
C1789 C1788 1.404 1_556 S
C1789 H1801 0.930 . S
C1790 C1786 1.524 1_565 S
C1790 H1802 0.956 . S
C1790 H1803 0.961 . S
C1790 H1804 0.961 1_565 S
C1791 C1788 1.539 . S
C1791 H1805 0.958 . S
C1791 H1806 0.961 . S
C1791 H1807 0.960 . S
H1792 C1776 0.931 . S
H1793 C1781 0.929 . S
H1794 C1782 0.960 . S
H1795 C1782 0.962 . S
H1796 C1782 0.960 . S
H1797 C1783 0.961 . S
H1798 C1783 0.961 . S
H1799 C1783 0.961 . S
H1800 C1784 0.931 . S
H1801 C1789 0.930 . S
H1802 C1790 0.956 . S
H1803 C1790 0.961 . S
H1804 C1790 0.961 1_545 S
H1805 C1791 0.958 . S
H1806 C1791 0.961 . S
H1807 C1791 0.960 . S
C1808 C1809 1.391 . S
C1808 C1810 1.394 . S
C1808 H1824 0.931 . S
C1809 C1808 1.391 . S
C1809 C1813 1.376 . S
C1810 C1808 1.394 . S
C1810 C1811 1.369 . S
C1810 C1814 1.531 1_556 S
C1811 C1810 1.369 . S
C1811 C1812 1.410 . S
C1811 C1819 1.503 1_556 S
C1812 C1811 1.410 . S
C1812 C1813 1.392 . S
C1812 C1815 1.511 . S
C1813 C1809 1.376 . S
C1813 C1812 1.392 . S
C1813 H1825 0.929 . S
C1814 C1810 1.531 1_554 S
C1814 H1826 0.960 . S
C1814 H1827 0.962 . S
C1814 H1828 0.960 . S
C1815 C1812 1.511 . S
C1815 H1829 0.961 . S
C1815 H1830 0.961 . S
C1815 H1831 0.961 . S
C1816 C1817 1.370 . S
C1816 C1818 1.368 . S
C1816 H1832 0.931 . S
C1817 C1816 1.370 . S
C1817 C1821 1.408 . S
C1818 C1816 1.368 . S
C1818 C1819 1.374 . S
C1818 C1822 1.515 1_554 S
C1819 C1811 1.503 1_554 S
C1819 C1818 1.374 . S
C1819 C1820 1.403 . S
C1820 C1819 1.403 . S
C1820 C1821 1.404 . S
C1820 C1823 1.539 . S
C1821 C1817 1.408 . S
C1821 C1820 1.404 . S
C1821 H1833 0.930 . S
C1822 C1818 1.515 1_556 S
C1822 H1834 0.956 . S
C1822 H1835 0.961 . S
C1822 H1836 0.961 . S
C1823 C1820 1.539 . S
C1823 H1837 0.958 . S
C1823 H1838 0.961 . S
C1823 H1839 0.960 . S
H1824 C1808 0.931 . S
H1825 C1813 0.929 . S
H1826 C1814 0.960 . S
H1827 C1814 0.962 . S
H1828 C1814 0.960 . S
H1829 C1815 0.961 . S
H1830 C1815 0.961 . S
H1831 C1815 0.961 . S
H1832 C1816 0.931 . S
H1833 C1821 0.930 . S
H1834 C1822 0.956 . S
H1835 C1822 0.961 . S
H1836 C1822 0.961 . S
H1837 C1823 0.958 . S
H1838 C1823 0.961 . S
H1839 C1823 0.960 . S
C1840 C1841 1.391 . S
C1840 C1842 1.394 . S
C1840 H1856 0.931 . S
C1841 C1840 1.391 . S
C1841 C1845 1.376 1_455 S
C1842 C1840 1.394 . S
C1842 C1843 1.369 . S
C1842 C1846 1.531 . S
C1843 C1842 1.369 . S
C1843 C1844 1.410 1_455 S
C1843 C1851 1.503 1_465 S
C1844 C1843 1.410 1_655 S
C1844 C1845 1.392 . S
C1844 C1847 1.511 . S
C1845 C1841 1.376 1_655 S
C1845 C1844 1.392 . S
C1845 H1857 0.929 . S
C1846 C1842 1.531 . S
C1846 H1858 0.960 1_565 S
C1846 H1859 0.962 . S
C1846 H1860 0.960 . S
C1847 C1844 1.511 . S
C1847 H1861 0.961 . S
C1847 H1862 0.961 1_565 S
C1847 H1863 0.961 1_565 S
C1848 C1849 1.370 . S
C1848 C1850 1.363 . S
C1848 H1864 0.931 . S
C1849 C1848 1.370 . S
C1849 C1853 1.408 . S
C1850 C1848 1.363 . S
C1850 C1851 1.370 . S
C1850 C1854 1.524 1_545 S
C1851 C1843 1.503 1_645 S
C1851 C1850 1.370 . S
C1851 C1852 1.403 1_655 S
C1852 C1851 1.403 1_455 S
C1852 C1853 1.404 1_455 S
C1852 C1855 1.539 . S
C1853 C1849 1.408 . S
C1853 C1852 1.404 1_655 S
C1853 H1865 0.930 1_655 S
C1854 C1850 1.524 1_565 S
C1854 H1866 0.956 . S
C1854 H1867 0.961 . S
C1854 H1868 0.961 . S
C1855 C1852 1.539 . S
C1855 H1869 0.958 . S
C1855 H1870 0.961 . S
C1855 H1871 0.960 . S
H1856 C1840 0.931 . S
H1857 C1845 0.929 . S
H1858 C1846 0.960 1_545 S
H1859 C1846 0.962 . S
H1860 C1846 0.960 . S
H1861 C1847 0.961 . S
H1862 C1847 0.961 1_545 S
H1863 C1847 0.961 1_545 S
H1864 C1848 0.931 . S
H1865 C1853 0.930 1_455 S
H1866 C1854 0.956 . S
H1867 C1854 0.961 . S
H1868 C1854 0.961 . S
H1869 C1855 0.958 . S
H1870 C1855 0.961 . S
H1871 C1855 0.960 . S
C1872 C1873 1.391 . S
C1872 C1874 1.394 . S
C1872 H1888 0.931 . S
C1873 C1872 1.391 . S
C1873 C1877 1.376 1_545 S
C1874 C1872 1.394 . S
C1874 C1875 1.369 1_545 S
C1874 C1878 1.531 . S
C1875 C1874 1.369 1_565 S
C1875 C1876 1.410 . S
C1875 C1883 1.503 . S
C1876 C1875 1.410 . S
C1876 C1877 1.392 . S
C1876 C1879 1.511 . S
C1877 C1873 1.376 1_565 S
C1877 C1876 1.392 . S
C1877 H1889 0.929 . S
C1878 C1874 1.531 . S
C1878 H1890 0.960 . S
C1878 H1891 0.962 . S
C1878 H1892 0.960 . S
C1879 C1876 1.511 . S
C1879 H1893 0.961 . S
C1879 H1894 0.961 . S
C1879 H1895 0.961 . S
C1880 C1881 1.370 1_545 S
C1880 C1882 1.363 . S
C1880 H1896 0.931 . S
C1881 C1880 1.370 1_565 S
C1881 C1885 1.408 . S
C1882 C1880 1.363 . S
C1882 C1883 1.370 1_545 S
C1882 C1886 1.524 . S
C1883 C1875 1.503 . S
C1883 C1882 1.370 1_565 S
C1883 C1884 1.403 . S
C1884 C1883 1.403 . S
C1884 C1885 1.404 . S
C1884 C1887 1.539 . S
C1885 C1881 1.408 . S
C1885 C1884 1.404 . S
C1885 H1897 0.930 . S
C1886 C1882 1.524 . S
C1886 H1898 0.956 . S
C1886 H1899 0.961 . S
C1886 H1900 0.961 . S
C1887 C1884 1.539 . S
C1887 H1901 0.958 . S
C1887 H1902 0.961 . S
C1887 H1903 0.960 . S
H1888 C1872 0.931 . S
H1889 C1877 0.929 . S
H1890 C1878 0.960 . S
H1891 C1878 0.962 . S
H1892 C1878 0.960 . S
H1893 C1879 0.961 . S
H1894 C1879 0.961 . S
H1895 C1879 0.961 . S
H1896 C1880 0.931 . S
H1897 C1885 0.930 . S
H1898 C1886 0.956 . S
H1899 C1886 0.961 . S
H1900 C1886 0.961 . S
H1901 C1887 0.958 . S
H1902 C1887 0.961 . S
H1903 C1887 0.960 . S
C1904 C1905 1.391 . S
C1904 C1906 1.394 . S
C1904 H1920 0.931 . S
C1905 C1904 1.391 . S
C1905 C1909 1.376 . S
C1906 C1904 1.394 . S
C1906 C1907 1.369 . S
C1906 C1910 1.531 . S
C1907 C1906 1.369 . S
C1907 C1908 1.410 . S
C1907 C1915 1.503 . S
C1908 C1907 1.410 . S
C1908 C1909 1.392 . S
C1908 C1911 1.511 . S
C1909 C1905 1.376 . S
C1909 C1908 1.392 . S
C1909 H1921 0.929 . S
C1910 C1906 1.531 . S
C1910 H1922 0.960 . S
C1910 H1923 0.962 . S
C1910 H1924 0.960 . S
C1911 C1908 1.511 . S
C1911 H1925 0.961 . S
C1911 H1926 0.961 . S
C1911 H1927 0.961 . S
C1912 C1913 1.370 . S
C1912 C1914 1.363 . S
C1912 H1928 0.931 . S
C1913 C1912 1.370 . S
C1913 C1917 1.408 . S
C1914 C1912 1.363 . S
C1914 C1915 1.370 . S
C1914 C1918 1.524 . S
C1915 C1907 1.503 . S
C1915 C1914 1.370 . S
C1915 C1916 1.403 . S
C1916 C1915 1.403 . S
C1916 C1917 1.404 . S
C1916 C1919 1.539 . S
C1917 C1913 1.408 . S
C1917 C1916 1.404 . S
C1917 H1929 0.930 . S
C1918 C1914 1.524 . S
C1918 H1930 0.956 . S
C1918 H1931 0.961 . S
C1918 H1932 0.961 . S
C1919 C1916 1.539 . S
C1919 H1933 0.958 . S
C1919 H1934 0.961 . S
C1919 H1935 0.960 . S
H1920 C1904 0.931 . S
H1921 C1909 0.929 . S
H1922 C1910 0.960 . S
H1923 C1910 0.962 . S
H1924 C1910 0.960 . S
H1925 C1911 0.961 . S
H1926 C1911 0.961 . S
H1927 C1911 0.961 . S
H1928 C1912 0.931 . S
H1929 C1917 0.930 . S
H1930 C1918 0.956 . S
H1931 C1918 0.961 . S
H1932 C1918 0.961 . S
H1933 C1919 0.958 . S
H1934 C1919 0.961 . S
H1935 C1919 0.960 . S
C1936 C1937 1.391 . S
C1936 C1938 1.394 . S
C1936 H1952 0.931 . S
C1937 C1936 1.391 . S
C1937 C1941 1.376 . S
C1938 C1936 1.394 . S
C1938 C1939 1.369 . S
C1938 C1942 1.531 . S
C1939 C1938 1.369 . S
C1939 C1940 1.410 . S
C1939 C1947 1.503 1_655 S
C1940 C1939 1.410 . S
C1940 C1941 1.392 . S
C1940 C1943 1.511 . S
C1941 C1937 1.376 . S
C1941 C1940 1.392 . S
C1941 H1953 0.929 . S
C1942 C1938 1.531 . S
C1942 H1954 0.960 1_655 S
C1942 H1955 0.962 . S
C1942 H1956 0.960 . S
C1943 C1940 1.511 . S
C1943 H1957 0.961 . S
C1943 H1958 0.961 1_655 S
C1943 H1959 0.961 1_655 S
C1944 C1945 1.370 . S
C1944 C1946 1.363 . S
C1944 H1960 0.931 . S
C1945 C1944 1.370 . S
C1945 C1949 1.408 . S
C1946 C1944 1.363 . S
C1946 C1947 1.370 . S
C1946 C1950 1.524 1_455 S
C1947 C1939 1.503 1_455 S
C1947 C1946 1.370 . S
C1947 C1948 1.403 . S
C1948 C1947 1.403 . S
C1948 C1949 1.404 . S
C1948 C1951 1.539 . S
C1949 C1945 1.408 . S
C1949 C1948 1.404 . S
C1949 H1961 0.930 . S
C1950 C1946 1.524 1_655 S
C1950 H1962 0.956 . S
C1950 H1963 0.961 . S
C1950 H1964 0.961 . S
C1951 C1948 1.539 . S
C1951 H1965 0.958 . S
C1951 H1966 0.961 . S
C1951 H1967 0.960 . S
H1952 C1936 0.931 . S
H1953 C1941 0.929 . S
H1954 C1942 0.960 1_455 S
H1955 C1942 0.962 . S
H1956 C1942 0.960 . S
H1957 C1943 0.961 . S
H1958 C1943 0.961 1_455 S
H1959 C1943 0.961 1_455 S
H1960 C1944 0.931 . S
H1961 C1949 0.930 . S
H1962 C1950 0.956 . S
H1963 C1950 0.961 . S
H1964 C1950 0.961 . S
H1965 C1951 0.958 . S
H1966 C1951 0.961 . S
H1967 C1951 0.960 . S
C945 C33 1.669 . S
C953 C151 1.666 . S
C977 C92 1.677 . S
C985 C210 1.667 . S
C1009 C269 1.683 . S
C1017 C387 1.669 . S
C1041 C446 1.654 . S
C1049 C328 1.671 . S
C1073 C505 1.687 . S
C1081 C623 1.670 . S
C1105 C682 1.670 . S
C1113 C564 1.667 . S
C1137 C859 1.652 . S
C1145 C741 1.676 . S
C1169 C918 1.687 . S
C1177 C800 1.672 . S
C1201 C416 0.810 . S
C1209 C3 0.882 . S
C1233 C62 0.918 . S
C1241 C239 0.850 . S
C1265 C298 0.817 . S
C1273 C121 0.865 . S
C1297 C180 0.917 . S
C1305 C357 0.849 . S
C1329 C888 0.839 . S
C1337 C475 0.861 . S
C1361 C534 0.872 . S
C1369 C711 0.883 . S
C1393 C593 0.826 . S
C1401 C770 0.891 . S
C1425 C829 0.811 . S
C1433 C652 0.879 . S
C1457 C52 0.942 . S
C1465 C288 1.030 . S
C1489 C111 0.975 . S
C1497 C347 1.012 . S
C1521 C406 1.066 . S
C1529 C170 0.989 . S
C1553 C229 1.027 . S
C1561 C465 0.991 . S
C1585 C760 1.064 . S
C1593 C524 0.983 . S
C1617 C819 0.965 . S
C1625 C583 1.024 . S
C1649 C642 1.047 . S
C1657 C878 0.990 . S
C1681 C701 1.016 . S
C1689 C937 1.004 . S
C1713 C5 1.859 . S
C1721 C477 1.857 . S
C1745 C536 1.877 . S
C1753 C64 1.849 . S
C1777 C123 1.842 . S
C1785 C595 1.861 . S
C1809 C654 1.878 . S
C1817 C182 1.848 . S
C1841 C241 1.829 . S
C1849 C713 1.868 . S
C1873 C300 1.844 . S
C1881 C772 1.860 . S
C1905 C831 1.871 . S
C1913 C359 1.852 . S
C1937 C418 1.829 . S
C1945 C890 1.868 . S
