# Generated by pormake.
# Topology afi, (4)-cn, num edge types: 1
# Building blocks:
#     Node 0, Type 0, BuildingBlock: AZAVOO_clean_sbu_0, # of connection points: 4
#     Node 1, Type 0, BuildingBlock: AZAVOO_clean_sbu_0, # of connection points: 4
#     Node 2, Type 0, BuildingBlock: AZAVOO_clean_sbu_0, # of connection points: 4
#     Node 3, Type 0, BuildingBlock: AZAVOO_clean_sbu_0, # of connection points: 4
#     Node 4, Type 0, BuildingBlock: AZAVOO_clean_sbu_0, # of connection points: 4
#     Node 5, Type 0, BuildingBlock: AZAVOO_clean_sbu_0, # of connection points: 4
#     Node 6, Type 0, BuildingBlock: AZAVOO_clean_sbu_0, # of connection points: 4
#     Node 7, Type 0, BuildingBlock: AZAVOO_clean_sbu_0, # of connection points: 4
#     Node 8, Type 0, BuildingBlock: AZAVOO_clean_sbu_0, # of connection points: 4
#     Node 9, Type 0, BuildingBlock: AZAVOO_clean_sbu_0, # of connection points: 4
#     Node 10, Type 0, BuildingBlock: AZAVOO_clean_sbu_0, # of connection points: 4
#     Node 11, Type 0, BuildingBlock: AZAVOO_clean_sbu_0, # of connection points: 4
#     Node 12, Type 0, BuildingBlock: AZAVOO_clean_sbu_0, # of connection points: 4
#     Node 13, Type 0, BuildingBlock: AZAVOO_clean_sbu_0, # of connection points: 4
#     Node 14, Type 0, BuildingBlock: AZAVOO_clean_sbu_0, # of connection points: 4
#     Node 15, Type 0, BuildingBlock: AZAVOO_clean_sbu_0, # of connection points: 4
#     Node 16, Type 0, BuildingBlock: AZAVOO_clean_sbu_0, # of connection points: 4
#     Node 17, Type 0, BuildingBlock: AZAVOO_clean_sbu_0, # of connection points: 4
#     Node 18, Type 0, BuildingBlock: AZAVOO_clean_sbu_0, # of connection points: 4
#     Node 19, Type 0, BuildingBlock: AZAVOO_clean_sbu_0, # of connection points: 4
#     Node 20, Type 0, BuildingBlock: AZAVOO_clean_sbu_0, # of connection points: 4
#     Node 21, Type 0, BuildingBlock: AZAVOO_clean_sbu_0, # of connection points: 4
#     Node 22, Type 0, BuildingBlock: AZAVOO_clean_sbu_0, # of connection points: 4
#     Node 23, Type 0, BuildingBlock: AZAVOO_clean_sbu_0, # of connection points: 4
#     Edge 24, Type (0, 0), BuildingBlock: UVAHIK_clean_linker_0, # of connection points: 2
#     Edge 25, Type (0, 0), BuildingBlock: UVAHIK_clean_linker_0, # of connection points: 2
#     Edge 26, Type (0, 0), BuildingBlock: UVAHIK_clean_linker_0, # of connection points: 2
#     Edge 27, Type (0, 0), BuildingBlock: UVAHIK_clean_linker_0, # of connection points: 2
#     Edge 28, Type (0, 0), BuildingBlock: UVAHIK_clean_linker_0, # of connection points: 2
#     Edge 29, Type (0, 0), BuildingBlock: UVAHIK_clean_linker_0, # of connection points: 2
#     Edge 30, Type (0, 0), BuildingBlock: UVAHIK_clean_linker_0, # of connection points: 2
#     Edge 31, Type (0, 0), BuildingBlock: UVAHIK_clean_linker_0, # of connection points: 2
#     Edge 32, Type (0, 0), BuildingBlock: UVAHIK_clean_linker_0, # of connection points: 2
#     Edge 33, Type (0, 0), BuildingBlock: UVAHIK_clean_linker_0, # of connection points: 2
#     Edge 34, Type (0, 0), BuildingBlock: UVAHIK_clean_linker_0, # of connection points: 2
#     Edge 35, Type (0, 0), BuildingBlock: UVAHIK_clean_linker_0, # of connection points: 2
#     Edge 36, Type (0, 0), BuildingBlock: UVAHIK_clean_linker_0, # of connection points: 2
#     Edge 37, Type (0, 0), BuildingBlock: UVAHIK_clean_linker_0, # of connection points: 2
#     Edge 38, Type (0, 0), BuildingBlock: UVAHIK_clean_linker_0, # of connection points: 2
#     Edge 39, Type (0, 0), BuildingBlock: UVAHIK_clean_linker_0, # of connection points: 2
#     Edge 40, Type (0, 0), BuildingBlock: UVAHIK_clean_linker_0, # of connection points: 2
#     Edge 41, Type (0, 0), BuildingBlock: UVAHIK_clean_linker_0, # of connection points: 2
#     Edge 42, Type (0, 0), BuildingBlock: UVAHIK_clean_linker_0, # of connection points: 2
#     Edge 43, Type (0, 0), BuildingBlock: UVAHIK_clean_linker_0, # of connection points: 2
#     Edge 44, Type (0, 0), BuildingBlock: UVAHIK_clean_linker_0, # of connection points: 2
#     Edge 45, Type (0, 0), BuildingBlock: UVAHIK_clean_linker_0, # of connection points: 2
#     Edge 46, Type (0, 0), BuildingBlock: UVAHIK_clean_linker_0, # of connection points: 2
#     Edge 47, Type (0, 0), BuildingBlock: UVAHIK_clean_linker_0, # of connection points: 2
#     Edge 48, Type (0, 0), BuildingBlock: UVAHIK_clean_linker_0, # of connection points: 2
#     Edge 49, Type (0, 0), BuildingBlock: UVAHIK_clean_linker_0, # of connection points: 2
#     Edge 50, Type (0, 0), BuildingBlock: UVAHIK_clean_linker_0, # of connection points: 2
#     Edge 51, Type (0, 0), BuildingBlock: UVAHIK_clean_linker_0, # of connection points: 2
#     Edge 52, Type (0, 0), BuildingBlock: UVAHIK_clean_linker_0, # of connection points: 2
#     Edge 53, Type (0, 0), BuildingBlock: UVAHIK_clean_linker_0, # of connection points: 2
#     Edge 54, Type (0, 0), BuildingBlock: UVAHIK_clean_linker_0, # of connection points: 2
#     Edge 55, Type (0, 0), BuildingBlock: UVAHIK_clean_linker_0, # of connection points: 2
#     Edge 56, Type (0, 0), BuildingBlock: UVAHIK_clean_linker_0, # of connection points: 2
#     Edge 57, Type (0, 0), BuildingBlock: UVAHIK_clean_linker_0, # of connection points: 2
#     Edge 58, Type (0, 0), BuildingBlock: UVAHIK_clean_linker_0, # of connection points: 2
#     Edge 59, Type (0, 0), BuildingBlock: UVAHIK_clean_linker_0, # of connection points: 2
#     Edge 60, Type (0, 0), BuildingBlock: UVAHIK_clean_linker_0, # of connection points: 2
#     Edge 61, Type (0, 0), BuildingBlock: UVAHIK_clean_linker_0, # of connection points: 2
#     Edge 62, Type (0, 0), BuildingBlock: UVAHIK_clean_linker_0, # of connection points: 2
#     Edge 63, Type (0, 0), BuildingBlock: UVAHIK_clean_linker_0, # of connection points: 2
#     Edge 64, Type (0, 0), BuildingBlock: UVAHIK_clean_linker_0, # of connection points: 2
#     Edge 65, Type (0, 0), BuildingBlock: UVAHIK_clean_linker_0, # of connection points: 2
#     Edge 66, Type (0, 0), BuildingBlock: UVAHIK_clean_linker_0, # of connection points: 2
#     Edge 67, Type (0, 0), BuildingBlock: UVAHIK_clean_linker_0, # of connection points: 2
#     Edge 68, Type (0, 0), BuildingBlock: UVAHIK_clean_linker_0, # of connection points: 2
#     Edge 69, Type (0, 0), BuildingBlock: UVAHIK_clean_linker_0, # of connection points: 2
#     Edge 70, Type (0, 0), BuildingBlock: UVAHIK_clean_linker_0, # of connection points: 2
#     Edge 71, Type (0, 0), BuildingBlock: UVAHIK_clean_linker_0, # of connection points: 2
# Relax obj value: 0.097
# Max RMSD: 0.122
# Mean RMSD: 0.121
data_MOF--net-afi--node1-AZAVOO_clean_sbu_0--edge1-UVAHIK_clean_linker_0
_symmetry_space_group_name_H-M    P1
_symmetry_Int_Tables_number       1
_symmetry_cell_setting            triclinic
loop_
_symmetry_equiv_pos_as_xyz
'x, y, z'
_cell_length_a     84.352424
_cell_length_b     84.347177
_cell_length_c     54.127021
_cell_angle_alpha  89.957958
_cell_angle_beta   90.011558
_cell_angle_gamma 120.02687
loop_
_atom_site_label
_atom_site_type_symbol
_atom_site_fract_x
_atom_site_fract_y
_atom_site_fract_z
_atom_type_partial_charge
Mg0 Mg 0.44328 0.1157 0.18507 0.0
O1 O 0.46347 0.10732 0.20065 0.0
O2 O 0.45434 0.07908 0.18664 0.0
Mg3 Mg 0.42859 0.06915 0.16325 0.0
C4 C 0.46545 0.09328 0.1989 0.0
C5 C 0.46398 0.15034 0.21878 0.0
O6 O 0.45669 0.13761 0.23588 0.0
O7 O 0.4572 0.12017 0.14736 0.0
O8 O 0.44643 0.09119 0.13531 0.0
O9 O 0.42429 0.10237 0.21739 0.0
O10 O 0.42297 0.08858 0.18223 0.0
C11 C 0.456 0.10841 0.13145 0.0
C12 C 0.41695 0.08756 0.20427 0.0
O13 O 0.46188 0.14556 0.19621 0.0
Mg14 Mg 0.32983 0.44606 0.17909 0.0
O15 O 0.35846 0.46594 0.19477 0.0
O16 O 0.37728 0.45609 0.18204 0.0
Mg17 Mg 0.36145 0.43099 0.15754 0.0
C18 C 0.3743 0.46741 0.19393 0.0
C19 C 0.3034 0.46061 0.18183 0.0
O20 O 0.29645 0.4478 0.1648 0.0
O21 O 0.33954 0.46028 0.1416 0.0
O22 O 0.35778 0.44944 0.12997 0.0
O23 O 0.3238 0.42686 0.21116 0.0
O24 O 0.33627 0.42546 0.17601 0.0
C25 C 0.35029 0.45913 0.12594 0.0
C26 C 0.33111 0.41937 0.19801 0.0
O27 O 0.31875 0.46457 0.19129 0.0
Mg28 Mg 0.8757 0.32618 0.18097 0.0
O29 O 0.8844 0.35509 0.19593 0.0
O30 O 0.91219 0.37417 0.1805 0.0
Mg31 Mg 0.92099 0.35842 0.15536 0.0
C32 C 0.8984 0.37111 0.19367 0.0
C33 C 0.84372 0.3159 0.2183 0.0
O34 O 0.85788 0.32537 0.2328 0.0
O35 O 0.869 0.33433 0.14367 0.0
O36 O 0.89737 0.3539 0.13022 0.0
O37 O 0.89073 0.32168 0.212 0.0
O38 O 0.90288 0.33348 0.17576 0.0
C39 C 0.88 0.34557 0.1276 0.0
C40 C 0.90498 0.32917 0.19778 0.0
O41 O 0.84649 0.31466 0.19546 0.0
Mg42 Mg 0.55331 0.88431 0.1723 0.0
O43 O 0.53181 0.89106 0.18732 0.0
O44 O 0.53929 0.91882 0.17294 0.0
Mg45 Mg 0.56546 0.93017 0.15009 0.0
C46 C 0.52875 0.90441 0.18526 0.0
C47 C 0.54046 0.84347 0.17442 0.0
O48 O 0.55301 0.84973 0.15702 0.0
O49 O 0.53974 0.87891 0.13414 0.0
O50 O 0.54927 0.90766 0.12197 0.0
O51 O 0.57179 0.89843 0.20471 0.0
O52 O 0.57252 0.91187 0.16944 0.0
C53 C 0.54065 0.89042 0.11798 0.0
C54 C 0.57859 0.91321 0.19153 0.0
O55 O 0.53614 0.85444 0.18434 0.0
Mg56 Mg 0.6692 0.54176 0.16559 0.0
O57 O 0.64135 0.52256 0.1843 0.0
O58 O 0.62098 0.52911 0.16784 0.0
Mg59 Mg 0.6348 0.55132 0.13882 0.0
C60 C 0.62505 0.51987 0.18257 0.0
C61 C 0.6822 0.52435 0.20593 0.0
O62 O 0.67303 0.52988 0.21961 0.0
O63 O 0.65941 0.52351 0.13124 0.0
O64 O 0.63874 0.53049 0.11677 0.0
O65 O 0.67511 0.56411 0.19287 0.0
O66 O 0.66096 0.56057 0.1573 0.0
C67 C 0.64725 0.52156 0.11551 0.0
C68 C 0.66665 0.56928 0.17779 0.0
O69 O 0.68225 0.52621 0.18261 0.0
Mg70 Mg 0.12087 0.67352 0.17028 0.0
O71 O 0.1136 0.64541 0.18693 0.0
O72 O 0.08504 0.62555 0.17477 0.0
Mg73 Mg 0.07421 0.64001 0.15055 0.0
C74 C 0.09965 0.62925 0.18643 0.0
C75 C 0.15577 0.68734 0.20321 0.0
O76 O 0.14297 0.68028 0.22024 0.0
O77 O 0.125 0.66391 0.13255 0.0
O78 O 0.09599 0.64377 0.12233 0.0
O79 O 0.1081 0.67932 0.20283 0.0
O80 O 0.09335 0.66578 0.1686 0.0
C81 C 0.11314 0.65217 0.11774 0.0
C82 C 0.09285 0.67108 0.19068 0.0
O83 O 0.15105 0.6858 0.18064 0.0
Mg84 Mg 0.8838 0.55531 0.3108 0.0
O85 O 0.8912 0.53418 0.29611 0.0
O86 O 0.91876 0.54191 0.31152 0.0
Mg87 Mg 0.92927 0.56772 0.3349 0.0
C88 C 0.90465 0.53134 0.2987 0.0
C89 C 0.84137 0.53634 0.31215 0.0
O90 O 0.84566 0.54356 0.33435 0.0
O91 O 0.87784 0.5411 0.34846 0.0
O92 O 0.90623 0.55052 0.36206 0.0
O93 O 0.89832 0.57404 0.27884 0.0
O94 O 0.91127 0.5747 0.31452 0.0
C95 C 0.88888 0.54162 0.36505 0.0
C96 C 0.91294 0.58077 0.29235 0.0
O97 O 0.85409 0.53791 0.29796 0.0
Mg98 Mg 0.32864 0.87832 0.31879 0.0
O99 O 0.3567 0.8859 0.30164 0.0
O100 O 0.37668 0.91409 0.31492 0.0
Mg101 Mg 0.3623 0.9245 0.34003 0.0
C102 C 0.3729 0.89977 0.3025 0.0
C103 C 0.31626 0.84437 0.28432 0.0
O104 O 0.32518 0.85764 0.26831 0.0
O105 O 0.33822 0.8733 0.35602 0.0
O106 O 0.35824 0.90209 0.36735 0.0
O107 O 0.32265 0.89183 0.28731 0.0
O108 O 0.33643 0.90578 0.32187 0.0
C109 C 0.34984 0.88485 0.37126 0.0
C110 C 0.33087 0.90677 0.30013 0.0
O111 O 0.31615 0.84842 0.30692 0.0
Mg112 Mg 0.44537 0.32613 0.31936 0.0
O113 O 0.46684 0.35391 0.30255 0.0
O114 O 0.45909 0.37452 0.31456 0.0
Mg115 Mg 0.43352 0.36071 0.33839 0.0
C116 C 0.46969 0.3703 0.30308 0.0
C117 C 0.46761 0.31287 0.28743 0.0
O118 O 0.46429 0.32192 0.27037 0.0
O119 O 0.4593 0.33583 0.35689 0.0
O120 O 0.45113 0.35655 0.36682 0.0
O121 O 0.42676 0.32045 0.28686 0.0
O122 O 0.42622 0.33463 0.32082 0.0
C123 C 0.45956 0.34784 0.37152 0.0
C124 C 0.42012 0.32907 0.29892 0.0
O125 O 0.46248 0.31295 0.3095 0.0
Mg126 Mg 0.11675 0.44763 0.30931 0.0
O127 O 0.11003 0.4694 0.29522 0.0
O128 O 0.08235 0.46176 0.31006 0.0
Mg129 Mg 0.07107 0.43536 0.33232 0.0
C130 C 0.09672 0.47245 0.29775 0.0
C131 C 0.1573 0.4597 0.30584 0.0
O132 O 0.15076 0.44619 0.32189 0.0
O133 O 0.12241 0.4608 0.34768 0.0
O134 O 0.09381 0.45143 0.36031 0.0
O135 O 0.10264 0.42974 0.27655 0.0
O136 O 0.0891 0.42843 0.31195 0.0
C137 C 0.11108 0.45995 0.36406 0.0
C138 C 0.08778 0.42282 0.28959 0.0
O139 O 0.1466 0.46489 0.29728 0.0
Mg140 Mg 0.6693 0.11892 0.31541 0.0
O141 O 0.64067 0.1101 0.29951 0.0
O142 O 0.62215 0.08127 0.31201 0.0
Mg143 Mg 0.63831 0.07135 0.33455 0.0
C144 C 0.62488 0.09567 0.30058 0.0
C145 C 0.69037 0.16153 0.31978 0.0
O146 O 0.69308 0.15705 0.342 0.0
O147 O 0.65904 0.12177 0.35349 0.0
O148 O 0.64164 0.09224 0.36378 0.0
O149 O 0.67601 0.10732 0.28231 0.0
O150 O 0.66331 0.0919 0.31648 0.0
C151 C 0.64867 0.10925 0.36876 0.0
C152 C 0.6687 0.09197 0.29427 0.0
O153 O 0.68001 0.14886 0.30493 0.0
Mg154 Mg 0.56157 0.67232 0.2899 0.0
O155 O 0.54028 0.64362 0.27608 0.0
O156 O 0.55043 0.62453 0.28619 0.0
Mg157 Mg 0.5775 0.64048 0.30697 0.0
C158 C 0.53848 0.62765 0.27637 0.0
C159 C 0.54727 0.69909 0.2909 0.0
O160 O 0.56139 0.70637 0.30595 0.0
O161 O 0.5504 0.66332 0.32908 0.0
O162 O 0.5619 0.64513 0.33797 0.0
O163 O 0.57801 0.67756 0.25502 0.0
O164 O 0.58197 0.66551 0.28901 0.0
C165 C 0.5528 0.65293 0.34399 0.0
C166 C 0.58628 0.67023 0.26638 0.0
O167 O 0.54247 0.68351 0.28153 0.0
Mg168 Mg 0.53102 0.86526 0.80965 0.0
O169 O 0.50244 0.85738 0.7953 0.0
O170 O 0.48381 0.82763 0.80318 0.0
Mg171 Mg 0.50021 0.81634 0.82227 0.0
C172 C 0.48667 0.84294 0.79459 0.0
C173 C 0.5557 0.9035 0.79133 0.0
O174 O 0.56367 0.894 0.78573 0.0
O175 O 0.52119 0.86485 0.84919 0.0
O176 O 0.50404 0.83466 0.85543 0.0
O177 O 0.53828 0.85716 0.77396 0.0
O178 O 0.52514 0.83826 0.80527 0.0
C179 C 0.51117 0.85115 0.86309 0.0
C180 C 0.53114 0.84079 0.78293 0.0
O181 O 0.54083 0.89565 0.80356 0.0
Mg182 Mg 0.66922 0.55091 0.82159 0.0
O183 O 0.65488 0.52439 0.79921 0.0
O184 O 0.66938 0.50858 0.80444 0.0
Mg185 Mg 0.6926 0.52462 0.83181 0.0
C186 C 0.65658 0.51044 0.79486 0.0
C187 C 0.65153 0.57341 0.80944 0.0
O188 O 0.66866 0.58535 0.81469 0.0
O189 O 0.65532 0.53428 0.85637 0.0
O190 O 0.67064 0.51907 0.86071 0.0
O191 O 0.68925 0.5648 0.79089 0.0
O192 O 0.69338 0.55014 0.82185 0.0
C193 C 0.65839 0.52277 0.86775 0.0
C194 C 0.69911 0.5589 0.80138 0.0
O195 O 0.64612 0.55648 0.81205 0.0
Mg196 Mg 0.11398 0.66718 0.81233 0.0
O197 O 0.12619 0.65146 0.79325 0.0
O198 O 0.15624 0.66524 0.8006 0.0
Mg199 Mg 0.16346 0.69004 0.82494 0.0
C200 C 0.14169 0.65241 0.7908 0.0
C201 C 0.08227 0.63901 0.78108 0.0
O202 O 0.09573 0.64747 0.76519 0.0
O203 O 0.11578 0.65501 0.84919 0.0
O204 O 0.14608 0.67021 0.85569 0.0
O205 O 0.12034 0.68598 0.78007 0.0
O206 O 0.13944 0.69084 0.81093 0.0
C207 C 0.12978 0.65857 0.86233 0.0
C208 C 0.13637 0.69578 0.78982 0.0
O209 O 0.08522 0.64364 0.80372 0.0
Mg210 Mg 0.4556 0.12684 0.83239 0.0
O211 O 0.48302 0.13868 0.81236 0.0
O212 O 0.49953 0.16884 0.8185 0.0
Mg213 Mg 0.48256 0.17639 0.84373 0.0
C214 C 0.49751 0.1541 0.80902 0.0
C215 C 0.45046 0.09432 0.80106 0.0
O216 O 0.45541 0.1075 0.78473 0.0
O217 O 0.47032 0.12887 0.86872 0.0
O218 O 0.48542 0.15925 0.87437 0.0
O219 O 0.44337 0.13361 0.80027 0.0
O220 O 0.45717 0.15216 0.83174 0.0
C221 C 0.48098 0.14308 0.88141 0.0
C222 C 0.44926 0.14941 0.81063 0.0
O223 O 0.44982 0.09791 0.82375 0.0
Mg224 Mg 0.32664 0.45592 0.82886 0.0
O225 O 0.34275 0.48184 0.80546 0.0
O226 O 0.33162 0.50049 0.81311 0.0
Mg227 Mg 0.30748 0.48604 0.83963 0.0
C228 C 0.34295 0.49695 0.80229 0.0
C229 C 0.34105 0.43084 0.81409 0.0
O230 O 0.3232 0.42012 0.81546 0.0
O231 O 0.34152 0.47207 0.8635 0.0
O232 O 0.32762 0.48843 0.86963 0.0
O233 O 0.30589 0.44231 0.79889 0.0
O234 O 0.30415 0.45966 0.82814 0.0
C235 C 0.33903 0.48345 0.87617 0.0
C236 C 0.2976 0.4503 0.80824 0.0
O237 O 0.3479 0.44755 0.82019 0.0
Mg238 Mg 0.87458 0.32969 0.82246 0.0
O239 O 0.86247 0.34574 0.80399 0.0
O240 O 0.83251 0.33176 0.81221 0.0
Mg241 Mg 0.82559 0.30735 0.83721 0.0
C242 C 0.84684 0.34459 0.80198 0.0
C243 C 0.91376 0.34562 0.80748 0.0
O244 O 0.90719 0.32796 0.81058 0.0
O245 O 0.87413 0.34227 0.85966 0.0
O246 O 0.84391 0.32749 0.86697 0.0
O247 O 0.86654 0.31086 0.79 0.0
O248 O 0.84917 0.3061 0.82287 0.0
C249 C 0.86036 0.339 0.87318 0.0
C250 C 0.85112 0.30099 0.80129 0.0
O251 O 0.90344 0.35218 0.81238 0.0
Mg252 Mg 0.12379 0.45514 0.66763 0.0
O253 O 0.13273 0.4826 0.6867 0.0
O254 O 0.16311 0.50005 0.68293 0.0
Mg255 Mg 0.1738 0.48364 0.66237 0.0
C256 C 0.14767 0.49761 0.69034 0.0
C257 C 0.08333 0.43046 0.67464 0.0
O258 O 0.09025 0.41959 0.6727 0.0
O259 O 0.12805 0.46924 0.63018 0.0
O260 O 0.15865 0.48461 0.62776 0.0
O261 O 0.12802 0.44312 0.70207 0.0
O262 O 0.14945 0.45837 0.67407 0.0
C263 C 0.1429 0.47955 0.61845 0.0
C264 C 0.14488 0.4502 0.69511 0.0
O265 O 0.09388 0.44751 0.67117 0.0
Mg266 Mg 0.6649 0.12431 0.67149 0.0
O267 O 0.64864 0.13591 0.69048 0.0
O268 O 0.662 0.16588 0.68254 0.0
Mg269 Mg 0.68644 0.17348 0.65726 0.0
C270 C 0.64942 0.15136 0.69274 0.0
C271 C 0.64898 0.08721 0.69535 0.0
O272 O 0.66661 0.09585 0.70008 0.0
O273 O 0.65175 0.12471 0.63461 0.0
O274 O 0.66639 0.15495 0.62766 0.0
O275 O 0.68418 0.13285 0.70363 0.0
O276 O 0.68837 0.15013 0.67093 0.0
C277 C 0.65491 0.13853 0.62126 0.0
C278 C 0.69382 0.14828 0.69232 0.0
O279 O 0.64264 0.09508 0.6818 0.0
Mg280 Mg 0.53597 0.66271 0.65072 0.0
O281 O 0.5077 0.64384 0.66771 0.0
O282 O 0.48881 0.65358 0.65502 0.0
Mg283 Mg 0.50495 0.67914 0.63146 0.0
C284 C 0.49189 0.64237 0.66701 0.0
C285 C 0.56191 0.65108 0.67062 0.0
O286 O 0.57124 0.66906 0.66978 0.0
O287 O 0.52558 0.64929 0.61291 0.0
O288 O 0.50825 0.66143 0.60236 0.0
O289 O 0.54378 0.68175 0.68286 0.0
O290 O 0.53045 0.68413 0.64908 0.0
C291 C 0.51529 0.65144 0.59753 0.0
C292 C 0.53671 0.68999 0.67088 0.0
O293 O 0.54558 0.64289 0.66247 0.0
Mg294 Mg 0.86515 0.53611 0.66363 0.0
O295 O 0.8537 0.50875 0.68357 0.0
O296 O 0.82349 0.492 0.6782 0.0
Mg297 Mg 0.81542 0.50923 0.65415 0.0
C298 C 0.83845 0.49415 0.68712 0.0
C299 C 0.89802 0.54085 0.69348 0.0
O300 O 0.88518 0.5363 0.71023 0.0
O301 O 0.86221 0.52148 0.62704 0.0
O302 O 0.83178 0.50671 0.62202 0.0
O303 O 0.85937 0.54864 0.69619 0.0
O304 O 0.83991 0.53473 0.66562 0.0
C305 C 0.84784 0.51118 0.61442 0.0
C306 C 0.84337 0.54296 0.68658 0.0
O307 O 0.89411 0.54153 0.67093 0.0
Mg308 Mg 0.31952 0.88081 0.67363 0.0
O309 O 0.33465 0.86834 0.69372 0.0
O310 O 0.32133 0.83846 0.68529 0.0
Mg311 Mg 0.29774 0.83168 0.65883 0.0
C312 C 0.33366 0.85281 0.69609 0.0
C313 C 0.34629 0.91192 0.70721 0.0
O314 O 0.33718 0.8982 0.72253 0.0
O315 O 0.33352 0.88018 0.63778 0.0
O316 O 0.31912 0.85002 0.63026 0.0
O317 O 0.29923 0.87309 0.70452 0.0
O318 O 0.29612 0.8552 0.67283 0.0
C319 C 0.3309 0.86651 0.62458 0.0
C320 C 0.29022 0.85734 0.69373 0.0
O321 O 0.34251 0.9094 0.68428 0.0
Mg322 Mg 0.45654 0.33347 0.67764 0.0
O323 O 0.48504 0.35121 0.69446 0.0
O324 O 0.50224 0.33869 0.68545 0.0
Mg325 Mg 0.48495 0.31322 0.66211 0.0
C326 C 0.50017 0.35121 0.69554 0.0
C327 C 0.43181 0.34853 0.68976 0.0
O328 O 0.4209 0.33099 0.68549 0.0
O329 O 0.46824 0.34563 0.63987 0.0
O330 O 0.4848 0.33215 0.63179 0.0
O331 O 0.44723 0.31521 0.71074 0.0
O332 O 0.45986 0.31079 0.67764 0.0
C333 C 0.47882 0.34287 0.62583 0.0
C334 C 0.45319 0.30569 0.69943 0.0
O335 O 0.44894 0.35516 0.68702 0.0
C336 C 0.40175 0.06624 0.24001 0.0
C337 C 0.40348 0.06955 0.21446 0.0
C338 C 0.39053 0.04844 0.249 0.0
C339 C 0.37245 0.00093 0.22879 0.0
H340 H 0.34348 0.98854 0.28869 0.0
C341 C 0.33307 0.92676 0.26443 0.0
C342 C 0.33521 0.92469 0.28974 0.0
C343 C 0.33846 0.94409 0.25465 0.0
C344 C 0.35156 0.99182 0.27196 0.0
H345 H 0.39381 0.05727 0.17839 0.0
H346 H 0.37416 0.02646 0.19401 0.0
H347 H 0.35846 0.01997 0.27311 0.0
H348 H 0.34368 0.93893 0.32486 0.0
H349 H 0.35344 0.96905 0.30779 0.0
H350 H 0.36606 0.97304 0.22788 0.0
C351 C 0.38179 0.03739 0.20711 0.0
C352 C 0.36014 0.0098 0.26308 0.0
C353 C 0.39303 0.05505 0.19818 0.0
C354 C 0.34213 0.94011 0.3052 0.0
C355 C 0.34751 0.95738 0.29546 0.0
C356 C 0.36393 0.98302 0.23766 0.0
C357 C 0.38082 0.03376 0.23254 0.0
C358 C 0.37081 0.01457 0.24151 0.0
C359 C 0.34603 0.95963 0.27002 0.0
C360 C 0.35356 0.97828 0.25949 0.0
H361 H 0.40965 0.07719 0.25296 0.0
H362 H 0.39011 0.04605 0.26871 0.0
H363 H 0.38086 0.00422 0.21236 0.0
H364 H 0.32763 0.91509 0.2521 0.0
H365 H 0.33691 0.94535 0.235 0.0
C366 C 0.40371 0.332 0.26204 0.0
C367 C 0.40713 0.33383 0.28756 0.0
C368 C 0.39236 0.33782 0.25143 0.0
C369 C 0.35786 0.35157 0.26645 0.0
H370 H 0.37715 0.38176 0.2079 0.0
C371 C 0.33617 0.40343 0.23377 0.0
C372 C 0.33532 0.40567 0.2082 0.0
C373 C 0.34221 0.39183 0.24291 0.0
C374 C 0.37137 0.37311 0.22402 0.0
H375 H 0.40054 0.34222 0.32216 0.0
H376 H 0.38119 0.35269 0.30368 0.0
H377 H 0.39246 0.36611 0.2243 0.0
H378 H 0.33877 0.39655 0.17215 0.0
H379 H 0.34906 0.37627 0.18803 0.0
H380 H 0.33703 0.35905 0.26644 0.0
C381 C 0.38711 0.34668 0.29181 0.0
C382 C 0.38015 0.3641 0.23339 0.0
C383 C 0.39842 0.34089 0.30236 0.0
C384 C 0.33965 0.39539 0.19198 0.0
C385 C 0.34557 0.38379 0.20106 0.0
C386 C 0.34908 0.36062 0.25708 0.0
C387 C 0.38417 0.34549 0.26618 0.0
C388 C 0.37365 0.35343 0.2549 0.0
C389 C 0.3474 0.38224 0.22658 0.0
C390 C 0.35588 0.37165 0.23591 0.0
H391 H 0.41014 0.32648 0.2502 0.0
H392 H 0.39017 0.33653 0.23164 0.0
H393 H 0.35239 0.34325 0.2829 0.0
H394 H 0.33289 0.41118 0.24668 0.0
H395 H 0.34356 0.39098 0.26269 0.0
C396 C 0.93783 0.33963 0.18987 0.0
C397 C 0.92349 0.33455 0.20687 0.0
C398 C 0.95576 0.34648 0.198 0.0
C399 C 0.98426 0.35098 0.25233 0.0
H400 H 0.02036 0.39508 0.21881 0.0
C401 C 0.05435 0.4011 0.2946 0.0
C402 C 0.06965 0.41004 0.27898 0.0
C403 C 0.03694 0.38979 0.28486 0.0
C404 C 0.01055 0.38259 0.22809 0.0
H405 H 0.91654 0.33183 0.24577 0.0
H406 H 0.94806 0.34404 0.26011 0.0
H407 H 0.98895 0.37895 0.20395 0.0
H408 H 0.07883 0.41356 0.24094 0.0
H409 H 0.0483 0.39361 0.22381 0.0
H410 H 0.00588 0.35486 0.27675 0.0
C411 C 0.94535 0.3426 0.24044 0.0
C412 C 0.99252 0.37335 0.2196 0.0
C413 C 0.92733 0.33567 0.23226 0.0
C414 C 0.06727 0.40695 0.25341 0.0
C415 C 0.04979 0.3956 0.24362 0.0
C416 C 0.00234 0.36022 0.26081 0.0
C417 C 0.9598 0.34845 0.22335 0.0
C418 C 0.97913 0.35755 0.23177 0.0
C419 C 0.03441 0.38709 0.25924 0.0
C420 C 0.01563 0.37627 0.24897 0.0
H421 H 0.93525 0.33859 0.17016 0.0
H422 H 0.96652 0.35049 0.1844 0.0
H423 H 0.9743 0.33871 0.26187 0.0
H424 H 0.05574 0.40296 0.31443 0.0
H425 H 0.02539 0.38362 0.2974 0.0
C426 C 0.59479 0.93431 0.22711 0.0
C427 C 0.59178 0.93138 0.20159 0.0
C428 C 0.60632 0.95198 0.23623 0.0
C429 C 0.62358 -7e-05 0.21879 0.0
H430 H 0.6565 0.01088 0.27428 0.0
C431 C 0.66532 0.07322 0.2566 0.0
C432 C 0.66466 0.0746 0.28237 0.0
C433 C 0.65954 0.0562 0.24554 0.0
C434 C 0.64732 0.00801 0.2588 0.0
H435 H 0.59937 0.94437 0.16555 0.0
H436 H 0.61941 0.97498 0.18139 0.0
H437 H 0.64006 0.97976 0.25771 0.0
H438 H 0.65868 0.05954 0.31687 0.0
H439 H 0.64825 0.02997 0.29768 0.0
H440 H 0.63032 0.02792 0.2202 0.0
C441 C 0.61258 0.9638 0.19442 0.0
C442 C 0.6379 0.9902 0.24937 0.0
C443 C 0.60109 0.94624 0.18536 0.0
C444 C 0.65905 0.05887 0.29691 0.0
C445 C 0.65328 0.04192 0.28592 0.0
C446 C 0.63292 0.01768 0.22823 0.0
C447 C 0.61503 0.96696 0.21995 0.0
C448 C 0.62579 0.98595 0.22941 0.0
C449 C 0.65307 0.04029 0.26009 0.0
C450 C 0.64473 0.02189 0.24854 0.0
H451 H 0.58783 0.92308 0.24004 0.0
H452 H 0.60788 0.95402 0.25603 0.0
H453 H 0.61412 0.99703 0.20363 0.0
H454 H 0.66972 0.08514 0.24494 0.0
H455 H 0.6598 0.05542 0.22559 0.0
C456 C 0.59887 0.66406 0.2278 0.0
C457 C 0.59882 0.66552 0.25364 0.0
C458 C 0.60937 0.65749 0.21644 0.0
C459 C 0.64672 0.64701 0.22796 0.0
H460 H 0.61995 0.60757 0.18136 0.0
C461 C 0.66441 0.59032 0.20855 0.0
C462 C 0.6623 0.58368 0.18429 0.0
C463 C 0.65916 0.60316 0.21464 0.0
C464 C 0.62777 0.61876 0.19401 0.0
H465 H 0.61057 0.66243 0.2877 0.0
H466 H 0.62858 0.65085 0.26807 0.0
H467 H 0.60676 0.62586 0.19538 0.0
H468 H 0.65406 0.58605 0.1471 0.0
H469 H 0.64495 0.60836 0.15773 0.0
H470 H 0.66746 0.63944 0.22719 0.0
C471 C 0.62066 0.65479 0.25647 0.0
C472 C 0.62022 0.62929 0.20199 0.0
C473 C 0.61015 0.66124 0.26775 0.0
C474 C 0.65549 0.5906 0.16609 0.0
C475 C 0.65028 0.60341 0.17215 0.0
C476 C 0.65425 0.63644 0.22002 0.0
C477 C 0.6201 0.65245 0.23074 0.0
C478 C 0.62941 0.64326 0.21948 0.0
C479 C 0.65177 0.60961 0.19655 0.0
C480 C 0.64468 0.62196 0.20335 0.0
H481 H 0.5903 0.66733 0.21648 0.0
H482 H 0.60881 0.65599 0.19654 0.0
H483 H 0.65425 0.65786 0.24119 0.0
H484 H 0.66966 0.58527 0.22294 0.0
H485 H 0.66033 0.60757 0.23367 0.0
C486 C 0.07355 0.66719 0.22796 0.0
C487 C 0.07512 0.66615 0.20227 0.0
C488 C 0.05637 0.66101 0.23878 0.0
C489 C 0.00817 0.64787 0.22473 0.0
H490 H 0.99716 0.61581 0.28129 0.0
C491 C 0.93434 0.5965 0.25689 0.0
C492 C 0.93126 0.59371 0.28242 0.0
C493 C 0.95209 0.60773 0.24781 0.0
C494 C 6e-05 0.62496 0.26575 0.0
H495 H 0.06014 0.65882 0.16765 0.0
H496 H 0.03029 0.6478 0.18647 0.0
H497 H 0.02809 0.63174 0.26471 0.0
H498 H 0.94412 0.60133 0.31851 0.0
H499 H 0.9749 0.62091 0.30275 0.0
H500 H 0.97995 0.64071 0.22552 0.0
C501 C 0.04224 0.65343 0.19832 0.0
C502 C 0.01782 0.63413 0.25628 0.0
C503 C 0.05935 0.65955 0.18755 0.0
C504 C 0.9461 0.60291 0.2987 0.0
C505 C 0.96376 0.61412 0.28968 0.0
C506 C 0.99036 0.63867 0.23422 0.0
C507 C 0.04049 0.65378 0.22408 0.0
C508 C 0.02204 0.64551 0.23548 0.0
C509 C 0.96703 0.61638 0.26414 0.0
C510 C 0.98608 0.62697 0.25468 0.0
H511 H 0.08548 0.67231 0.23975 0.0
H512 H 0.05548 0.66167 0.25868 0.0
H513 H 0.01105 0.65673 0.20886 0.0
H514 H 0.92316 0.5896 0.24391 0.0
H515 H 0.95419 0.6091 0.22801 0.0
C516 C 0.5567 0.9339 0.78948 0.0
C517 C 0.56362 0.92253 0.78216 0.0
C518 C 0.56457 0.95189 0.78048 0.0
C519 C 0.57846 0.98654 0.74833 0.0
H520 H 0.63128 0.01281 0.74117 0.0
C521 C 0.61972 0.05666 0.697 0.0
C522 C 0.63712 0.06899 0.70654 0.0
C523 C 0.60943 0.03901 0.70708 0.0
C524 C 0.61654 0.00582 0.74328 0.0
H525 H 0.58381 0.92096 0.75902 0.0
H526 H 0.59712 0.95183 0.74312 0.0
H527 H 0.61602 0.98206 0.75779 0.0
H528 H 0.65684 0.07295 0.73507 0.0
H529 H 0.63888 0.04272 0.75291 0.0
H530 H 0.57923 0.01074 0.73431 0.0
C531 C 0.58599 0.94718 0.75629 0.0
C532 C 0.60773 0.98801 0.75251 0.0
C533 C 0.57828 0.92938 0.76537 0.0
C534 C 0.64364 0.06366 0.72695 0.0
C535 C 0.63335 0.04625 0.73714 0.0
C536 C 0.58735 0.00452 0.73915 0.0
C537 C 0.57944 0.95877 0.76393 0.0
C538 C 0.58858 0.97805 0.75498 0.0
C539 C 0.61634 0.03351 0.72699 0.0
C540 C 0.60652 0.01437 0.73655 0.0
H541 H 0.54537 0.92898 0.80234 0.0
H542 H 0.55926 0.96049 0.78685 0.0
H543 H 0.56368 0.97921 0.74983 0.0
H544 H 0.61432 0.06044 0.68132 0.0
H545 H 0.5964 0.02952 0.69876 0.0
C546 C 0.64673 0.59843 0.79334 0.0
C547 C 0.63979 0.57964 0.79745 0.0
C548 C 0.63689 0.60447 0.77933 0.0
C549 C 0.59163 0.59242 0.75503 0.0
H550 H 0.62027 0.62871 0.70528 0.0
C551 C 0.55976 0.6219 0.68623 0.0
C552 C 0.56999 0.64096 0.68263 0.0
C553 C 0.56736 0.61279 0.69898 0.0
C554 C 0.61208 0.61869 0.71918 0.0
H555 H 0.6166 0.55249 0.79108 0.0
H556 H 0.59927 0.56316 0.76663 0.0
H557 H 0.63479 0.61605 0.73121 0.0
H558 H 0.59625 0.66534 0.68941 0.0
H559 H 0.60929 0.64963 0.71165 0.0
H560 H 0.56898 0.59543 0.7433 0.0
C561 C 0.61241 0.57315 0.77425 0.0
C562 C 0.62041 0.61143 0.73404 0.0
C563 C 0.62234 0.56706 0.78822 0.0
C564 C 0.58799 0.65064 0.69171 0.0
C565 C 0.59553 0.64159 0.70438 0.0
C566 C 0.58327 0.5998 0.7402 0.0
C567 C 0.61983 0.59189 0.76914 0.0
C568 C 0.61039 0.59849 0.75243 0.0
C569 C 0.58533 0.62257 0.70827 0.0
C570 C 0.59352 0.61329 0.72243 0.0
H571 H 0.66004 0.60853 0.80033 0.0
H572 H 0.64279 0.61903 0.77613 0.0
H573 H 0.58358 0.58247 0.76908 0.0
H574 H 0.54584 0.61405 0.67949 0.0
H575 H 0.55919 0.59811 0.70148 0.0
C576 C 0.93125 0.55285 0.68388 0.0
C577 C 0.91702 0.54685 0.70127 0.0
C578 C 0.9494 0.56014 0.69167 0.0
C579 C 0.97833 0.56497 0.74649 0.0
H580 H 0.01394 0.6093 0.71309 0.0
C581 C 0.04874 0.61728 0.78832 0.0
C582 C 0.06378 0.62542 0.77214 0.0
C583 C 0.0311 0.60559 0.77921 0.0
C584 C 0.00423 0.59679 0.72242 0.0
H585 H 0.91064 0.54313 0.74043 0.0
H586 H 0.94216 0.55612 0.75394 0.0
H587 H 0.98274 0.59241 0.69756 0.0
H588 H 0.07219 0.62703 0.73387 0.0
H589 H 0.04154 0.6067 0.71813 0.0
H590 H -0.00015 0.56977 0.77179 0.0
C591 C 0.93937 0.555 0.73429 0.0
C592 C 0.98633 0.58706 0.71346 0.0
C593 C 0.92126 0.54766 0.72652 0.0
C594 C 0.0609 0.62113 0.74684 0.0
C595 C 0.04331 0.60953 0.73777 0.0
C596 C 0.99624 0.57479 0.75554 0.0
C597 C 0.95372 0.56164 0.717 0.0
C598 C 0.9731 0.57111 0.7255 0.0
C599 C 0.02818 0.60188 0.75376 0.0
C600 C 0.00935 0.59088 0.7437 0.0
H601 H 0.92843 0.5523 0.66428 0.0
H602 H 0.96009 0.56484 0.67783 0.0
H603 H 0.96856 0.5526 0.75601 0.0
H604 H 0.05051 0.62028 0.8079 0.0
H605 H 0.01968 0.59999 0.79198 0.0
C606 C 0.43676 0.06068 0.80954 0.0
C607 C 0.44374 0.07529 0.79265 0.0
C608 C 0.42864 0.04259 0.80114 0.0
C609 C 0.4229 0.01406 0.74558 0.0
H610 H 0.37709 0.9798 0.77718 0.0
C611 C 0.36906 0.94536 0.70123 0.0
C612 C 0.35992 0.93014 0.71696 0.0
C613 C 0.38106 0.96271 0.71093 0.0
C614 C 0.38999 0.98911 0.76835 0.0
H615 H 0.44838 0.08239 0.75373 0.0
H616 H 0.43401 0.05099 0.73916 0.0
H617 H 0.39524 0.01059 0.79372 0.0
H618 H 0.35673 0.92111 0.75513 0.0
H619 H 0.37763 0.95125 0.77192 0.0
H620 H 0.41731 0.99258 0.71982 0.0
C621 C 0.43495 0.05342 0.75889 0.0
C622 C 0.40044 0.00677 0.77788 0.0
C623 C 0.44311 0.07147 0.76727 0.0
C624 C 0.36342 0.93255 0.74248 0.0
C625 C 0.37535 0.94986 0.75215 0.0
C626 C 0.41239 0.99638 0.73597 0.0
C627 C 0.42729 0.03873 0.77568 0.0
C628 C 0.41695 0.01953 0.76652 0.0
C629 C 0.38411 0.96518 0.73656 0.0
C630 C 0.39574 0.98375 0.74716 0.0
H631 H 0.43714 0.06316 0.82922 0.0
H632 H 0.42316 0.03161 0.8146 0.0
H633 H 0.43568 0.02345 0.73656 0.0
H634 H 0.36668 0.94396 0.68148 0.0
H635 H 0.38751 0.97428 0.69845 0.0
C636 C 0.34407 0.40591 0.79382 0.0
C637 C 0.35244 0.42394 0.8028 0.0
C638 C 0.35422 0.39971 0.7809 0.0
C639 C 0.40033 0.4074 0.76953 0.0
H640 H 0.37816 0.38032 0.70937 0.0
C641 C 0.43568 0.3778 0.70769 0.0
C642 C 0.4242 0.35971 0.69965 0.0
C643 C 0.42825 0.38766 0.71874 0.0
C644 C 0.38451 0.38775 0.72619 0.0
H645 H 0.37826 0.44942 0.80605 0.0
H646 H 0.39611 0.43842 0.78355 0.0
H647 H 0.36283 0.3934 0.73275 0.0
H648 H 0.39591 0.33795 0.69645 0.0
H649 H 0.38308 0.35494 0.71578 0.0
H650 H 0.42179 0.40127 0.76329 0.0
C651 C 0.38162 0.42917 0.78651 0.0
C652 C 0.37572 0.39525 0.73957 0.0
C653 C 0.3714 0.43545 0.79935 0.0
C654 C 0.40517 0.35186 0.70237 0.0
C655 C 0.39778 0.36168 0.71334 0.0
C656 C 0.40911 0.39977 0.75618 0.0
C657 C 0.37303 0.41135 0.77672 0.0
C658 C 0.38332 0.40482 0.76165 0.0
C659 C 0.4092 0.37964 0.72185 0.0
C660 C 0.40108 0.38952 0.73463 0.0
H661 H 0.32953 0.39663 0.79625 0.0
H662 H 0.34729 0.38579 0.77399 0.0
H663 H 0.40648 0.41468 0.78651 0.0
H664 H 0.45041 0.38424 0.70587 0.0
H665 H 0.43742 0.40154 0.7249 0.0
C666 C 0.05797 0.43502 0.69116 0.0
C667 C 0.0647 0.42326 0.68497 0.0
C668 C 0.04151 0.42837 0.70429 0.0
C669 C 0.01402 0.39248 0.74876 0.0
H670 H 0.97398 0.40066 0.73207 0.0
C671 C 0.94286 0.349 0.79085 0.0
C672 C 0.9321 0.35697 0.79629 0.0
C673 C 0.95953 0.35895 0.77859 0.0
C674 C 0.98518 0.39853 0.73724 0.0
H675 H 0.05885 0.39511 0.68642 0.0
H676 H 0.03038 0.38366 0.70927 0.0
H677 H 0.00179 0.41451 0.70669 0.0
H678 H 0.93065 0.38187 0.79351 0.0
H679 H 0.9601 0.39945 0.77227 0.0
H680 H 0.99771 0.37663 0.77923 0.0
C681 C 0.03791 0.39803 0.70428 0.0
C682 C 0.00104 0.4064 0.72264 0.0
C683 C 0.05418 0.4046 0.69106 0.0
C684 C 0.93863 0.37534 0.78961 0.0
C685 C 0.95543 0.38536 0.77728 0.0
C686 C -0.00168 0.38479 0.76341 0.0
C687 C 0.03165 0.40991 0.71161 0.0
C688 C 0.01541 0.40304 0.72794 0.0
C689 C 0.96601 0.37722 0.77149 0.0
C690 C 0.9835 0.38731 0.7575 0.0
H691 H 0.06573 0.44947 0.6867 0.0
H692 H 0.03695 0.4378 0.70967 0.0
H693 H 0.02507 0.39002 0.75361 0.0
H694 H 0.93824 0.33487 0.79562 0.0
H695 H 0.96711 0.3521 0.77407 0.0
C696 C 0.47194 0.17504 0.25019 0.0
C697 C 0.47184 0.16991 0.22546 0.0
C698 C 0.47669 0.19302 0.25615 0.0
C699 C 0.47572 0.23209 0.22822 0.0
H700 H 0.49992 0.25687 0.28883 0.0
C701 C 0.4794 0.2996 0.25579 0.0
C702 C 0.47458 0.30048 0.2804 0.0
C703 C 0.48347 0.28614 0.24844 0.0
C704 C 0.49309 0.2501 0.27186 0.0
H705 H 0.4779 0.17998 0.18777 0.0
H706 H 0.48635 0.21135 0.19821 0.0
H707 H 0.4993 0.22859 0.27708 0.0
H708 H 0.47131 0.28854 0.31689 0.0
H709 H 0.47808 0.26494 0.30402 0.0
H710 H 0.4689 0.2531 0.22335 0.0
C711 C 0.48241 0.20139 0.21295 0.0
C712 C 0.49275 0.23392 0.26512 0.0
C713 C 0.47767 0.18342 0.20699 0.0
C714 C 0.47492 0.28824 0.29776 0.0
C715 C 0.47892 0.27474 0.29039 0.0
C716 C 0.47601 0.24822 0.23497 0.0
C717 C 0.48147 0.20628 0.23751 0.0
C718 C 0.48377 0.22455 0.24343 0.0
C719 C 0.48276 0.2732 0.2655 0.0
C720 C 0.4844 0.25726 0.2571 0.0
H721 H 0.46758 0.16501 0.2649 0.0
H722 H 0.47569 0.19626 0.27524 0.0
H723 H 0.46841 0.2251 0.21161 0.0
H724 H 0.47944 0.30892 0.24199 0.0
H725 H 0.48673 0.28559 0.22922 0.0
C726 C 0.18676 0.45944 0.3035 0.0
C727 C 0.17599 0.4669 0.29566 0.0
C728 C 0.2034 0.46438 0.29195 0.0
C729 C 0.22676 0.48181 0.23228 0.0
H730 H 0.26601 0.47964 0.2665 0.0
C731 C 0.29846 0.48022 0.21236 0.0
C732 C 0.29221 0.46806 0.19223 0.0
C733 C 0.28677 0.48515 0.22416 0.0
C734 C 0.25541 0.48067 0.25659 0.0
H735 H 0.17479 0.48626 0.27043 0.0
H736 H 0.20409 0.4952 0.25054 0.0
H737 H 0.24164 0.47985 0.29016 0.0
H738 H 0.26908 0.45236 0.16791 0.0
H739 H 0.24873 0.46052 0.18865 0.0
H740 H 0.24058 0.48272 0.19872 0.0
C741 C 0.19945 0.48519 0.2653 0.0
C742 C 0.24125 0.48052 0.2702 0.0
C743 C 0.1827 0.48016 0.2768 0.0
C744 C 0.27437 0.46172 0.1834 0.0
C745 C 0.26269 0.46655 0.19523 0.0
C746 C 0.24102 0.48213 0.21868 0.0
C747 C 0.20982 0.47705 0.27235 0.0
C748 C 0.2264 0.48042 0.2582 0.0
C749 C 0.26857 0.47798 0.21614 0.0
C750 C 0.25519 0.48091 0.23061 0.0
H751 H 0.18204 0.4492 0.31797 0.0
H752 H 0.21079 0.45758 0.29771 0.0
H753 H 0.21557 0.48169 0.22232 0.0
H754 H 0.31218 0.48546 0.21953 0.0
H755 H 0.29189 0.49424 0.23994 0.0
C756 C 0.703 0.18464 0.28545 0.0
C757 C 0.70178 0.18061 0.31083 0.0
C758 C 0.71607 0.20192 0.27664 0.0
C759 C 0.7612 0.24022 0.29449 0.0
H760 H 0.75556 0.26325 0.23572 0.0
C761 C 0.82241 0.30497 0.2546 0.0
C762 C 0.82519 0.3045 0.22907 0.0
C763 C 0.80573 0.29236 0.26541 0.0
C764 C 0.75735 0.25696 0.25214 0.0
H765 H 0.71234 0.19205 0.34702 0.0
H766 H 0.7348 0.22227 0.33173 0.0
H767 H 0.72887 0.23661 0.2535 0.0
H768 H 0.8122 0.29112 0.19466 0.0
H769 H 0.7832 0.26902 0.21356 0.0
H770 H 0.78966 0.26018 0.29289 0.0
C771 C 0.72604 0.21192 0.31853 0.0
C772 C 0.74206 0.24168 0.26232 0.0
C773 C 0.71307 0.19462 0.32733 0.0
C774 C 0.81054 0.29184 0.2144 0.0
C775 C 0.79386 0.2792 0.22523 0.0
C776 C 0.77643 0.25547 0.28438 0.0
C777 C 0.72814 0.21561 0.29302 0.0
C778 C 0.74385 0.23295 0.28343 0.0
C779 C 0.79143 0.27897 0.25097 0.0
C780 C 0.77477 0.26388 0.26287 0.0
H781 H 0.69451 0.17417 0.27222 0.0
H782 H 0.71734 0.20419 0.25686 0.0
H783 H 0.76324 0.23368 0.31044 0.0
H784 H 0.83333 0.31465 0.26642 0.0
H785 H 0.80419 0.29279 0.28523 0.0
C786 C 0.52168 0.81848 0.20495 0.0
C787 C 0.53359 0.8248 0.18453 0.0
C788 C 0.51723 0.80184 0.21634 0.0
C789 C 0.52269 0.77493 0.24746 0.0
H790 H 0.52198 0.73488 0.21144 0.0
C791 C 0.54616 0.72815 0.29078 0.0
C792 C 0.5391 0.71012 0.28228 0.0
C793 C 0.54049 0.73962 0.2803 0.0
C794 C 0.52177 0.74571 0.2219 0.0
H795 H 0.54936 0.8181 0.15931 0.0
H796 H 0.542 0.78952 0.17931 0.0
H797 H 0.52016 0.75888 0.18897 0.0
H798 H 0.5196 0.68961 0.25715 0.0
H799 H 0.50938 0.70955 0.23915 0.0
H800 H 0.52423 0.76174 0.28039 0.0
C801 C 0.53581 0.79715 0.18644 0.0
C802 C 0.521 0.75966 0.20894 0.0
C803 C 0.54018 0.8137 0.17503 0.0
C804 C 0.52542 0.70348 0.264 0.0
C805 C 0.51966 0.71496 0.25357 0.0
C806 C 0.52329 0.7609 0.26044 0.0
C807 C 0.52462 0.79117 0.20759 0.0
C808 C 0.52212 0.7748 0.22148 0.0
C809 C 0.52748 0.73334 0.26113 0.0
C810 C 0.52352 0.74645 0.24778 0.0
H811 H 0.51626 0.82666 0.21264 0.0
H812 H 0.50832 0.79753 0.23233 0.0
H813 H 0.52365 0.78636 0.25782 0.0
H814 H 0.55669 0.73373 0.30486 0.0
H815 H 0.54704 0.75371 0.28644 0.0
C816 C 0.69519 0.51772 0.24358 0.0
C817 C 0.69463 0.5189 0.21772 0.0
C818 C 0.7087 0.51528 0.25497 0.0
C819 C 0.74517 0.50347 0.24374 0.0
H820 H 0.76895 0.53664 0.2985 0.0
C821 C 0.81845 0.52509 0.27754 0.0
C822 C 0.82242 0.5288 0.30281 0.0
C823 C 0.80114 0.52041 0.26832 0.0
C824 C 0.7623 0.52701 0.28356 0.0
H825 H 0.70718 0.51734 0.1835 0.0
H826 H 0.73085 0.51332 0.20339 0.0
H827 H 0.74158 0.5344 0.28041 0.0
H828 H 0.81092 0.5293 0.33846 0.0
H829 H 0.78072 0.52084 0.32249 0.0
H830 H 0.76628 0.49646 0.24663 0.0
C831 C 0.72078 0.51414 0.21489 0.0
C832 C 0.74655 0.52572 0.27315 0.0
C833 C 0.70723 0.51653 0.20347 0.0
C834 C 0.8084 0.52674 0.31884 0.0
C835 C 0.7911 0.52199 0.30966 0.0
C836 C 0.76097 0.50476 0.2542 0.0
C837 C 0.72199 0.51401 0.2408 0.0
C838 C 0.73788 0.51409 0.25295 0.0
C839 C 0.7874 0.51928 0.2842 0.0
C840 C 0.76983 0.5167 0.27408 0.0
H841 H 0.68559 0.5193 0.25511 0.0
H842 H 0.709 0.51486 0.27496 0.0
H843 H 0.73871 0.49423 0.22837 0.0
H844 H 0.82894 0.52655 0.26468 0.0
H845 H 0.79883 0.51855 0.24859 0.0
C846 C 0.18876 0.70857 0.19233 0.0
C847 C 0.17521 0.6993 0.21039 0.0
C848 C 0.20653 0.72182 0.19916 0.0
C849 C 0.2385 0.74126 0.25261 0.0
H850 H 0.25732 0.78663 0.21587 0.0
C851 C 0.29184 0.81177 0.2919 0.0
C852 C 0.30413 0.82536 0.27558 0.0
C853 C 0.27852 0.79465 0.283 0.0
C854 C 0.25253 0.77399 0.22608 0.0
H855 H 0.17005 0.69593 0.24985 0.0
H856 H 0.20092 0.71913 0.26171 0.0
H857 H 0.22969 0.75958 0.20186 0.0
H858 H 0.31289 0.83111 0.23734 0.0
H859 H 0.28988 0.80117 0.22191 0.0
H860 H 0.26116 0.75593 0.27724 0.0
C861 C 0.19789 0.7161 0.24227 0.0
C862 C 0.23663 0.75843 0.21802 0.0
C863 C 0.18012 0.70285 0.23545 0.0
C864 C 0.30351 0.82104 0.25039 0.0
C865 C 0.29024 0.8039 0.24151 0.0
C866 C 0.25446 0.75686 0.26068 0.0
C867 C 0.21118 0.72611 0.2242 0.0
C868 C 0.22922 0.74195 0.23141 0.0
C869 C 0.27723 0.79067 0.25759 0.0
C870 C 0.26149 0.77351 0.24774 0.0
H871 H 0.18549 0.70607 0.17286 0.0
H872 H 0.21653 0.72904 0.18479 0.0
H873 H 0.23331 0.72872 0.26317 0.0
H874 H 0.29194 0.81462 0.31142 0.0
H875 H 0.26867 0.78488 0.29592 0.0
C876 C 0.54267 0.71199 0.70548 0.0
C877 C 0.53545 0.70533 0.68189 0.0
C878 C 0.54202 0.72694 0.7154 0.0
C879 C 0.51677 0.75152 0.71203 0.0
H880 H 0.56063 0.79236 0.73974 0.0
C881 C 0.51701 0.80745 0.77344 0.0
C882 C 0.53026 0.82567 0.76827 0.0
C883 C 0.51721 0.79307 0.76104 0.0
C884 C 0.54833 0.78109 0.73188 0.0
H885 H 0.52214 0.70937 0.65012 0.0
H886 H 0.52056 0.73505 0.66774 0.0
H887 H 0.56191 0.76618 0.72255 0.0
H888 H 0.55384 0.84321 0.74563 0.0
H889 H 0.55437 0.81793 0.72415 0.0
H890 H 0.50312 0.7663 0.7217 0.0
C891 C 0.52664 0.72864 0.67855 0.0
C892 C 0.54902 0.76608 0.72232 0.0
C893 C 0.52751 0.71388 0.66851 0.0
C894 C 0.54344 0.82928 0.74995 0.0
C895 C 0.54383 0.81486 0.7378 0.0
C896 C 0.51602 0.76641 0.7219 0.0
C897 C 0.53396 0.73535 0.70201 0.0
C898 C 0.53324 0.75117 0.71234 0.0
C899 C 0.53081 0.79664 0.74347 0.0
C900 C 0.53179 0.7813 0.73192 0.0
H901 H 0.54896 0.70575 0.7162 0.0
H902 H 0.54767 0.73184 0.73362 0.0
H903 H 0.5044 0.74014 0.7045 0.0
H904 H 0.50654 0.80421 0.78715 0.0
H905 H 0.50706 0.77912 0.76577 0.0
C906 C 0.72886 0.55976 0.80428 0.0
C907 C 0.71555 0.5605 0.78958 0.0
C908 C 0.74385 0.5598 0.79347 0.0
C909 C 0.7693 0.56795 0.73435 0.0
H910 H 0.78459 0.53606 0.76471 0.0
C911 C 0.81422 0.54366 0.68575 0.0
C912 C 0.82935 0.54558 0.69914 0.0
C913 C 0.80119 0.54675 0.69713 0.0
C914 C 0.78058 0.54515 0.75621 0.0
H915 H 0.70756 0.56228 0.75213 0.0
H916 H 0.73345 0.56161 0.73297 0.0
H917 H 0.76013 0.53923 0.78351 0.0
H918 H 0.84268 0.55204 0.73493 0.0
H919 H 0.81949 0.55699 0.75507 0.0
H920 H 0.78938 0.57315 0.70646 0.0
C921 C 0.73259 0.56147 0.75293 0.0
C922 C 0.76662 0.54706 0.767 0.0
C923 C 0.71771 0.56178 0.76384 0.0
C924 C 0.83113 0.55046 0.7242 0.0
C925 C 0.8179 0.55326 0.7357 0.0
C926 C 0.78309 0.56579 0.72337 0.0
C927 C 0.74569 0.56019 0.76764 0.0
C928 C 0.7608 0.5585 0.75623 0.0
C929 C 0.8029 0.55154 0.72218 0.0
C930 C 0.78881 0.55436 0.73421 0.0
H931 H 0.72762 0.55902 0.82423 0.0
H932 H 0.75391 0.55935 0.80542 0.0
H933 H 0.76539 0.57708 0.72576 0.0
H934 H 0.81255 0.54002 0.66635 0.0
H935 H 0.78963 0.54516 0.68641 0.0
C936 C 0.25942 0.84313 0.71341 0.0
C937 C 0.27455 0.84179 0.70562 0.0
C938 C 0.2436 0.82755 0.72182 0.0
C939 C 0.22113 0.77667 0.71959 0.0
H940 H 0.19033 0.77862 0.77128 0.0
C941 C 0.16876 0.71469 0.77639 0.0
C942 C 0.15089 0.71179 0.77698 0.0
C943 C 0.18287 0.73056 0.76578 0.0
C944 C 0.19876 0.77799 0.75664 0.0
H945 H 0.2858 0.82381 0.70213 0.0
H946 H 0.25874 0.7969 0.71785 0.0
H947 H 0.21756 0.80681 0.75802 0.0
H948 H 0.13349 0.72283 0.7668 0.0
H949 H 0.1585 0.7511 0.7488 0.0
H950 H 0.20274 0.74767 0.71924 0.0
C951 C 0.25851 0.80959 0.71638 0.0
C952 C 0.21431 0.7941 0.74898 0.0
C953 C 0.27409 0.82502 0.70752 0.0
C954 C 0.14722 0.72483 0.76643 0.0
C955 C 0.16145 0.74095 0.75632 0.0
C956 C 0.20582 0.76057 0.72758 0.0
C957 C 0.24286 0.8105 0.72299 0.0
C958 C 0.22583 0.7936 0.73056 0.0
C959 C 0.17937 0.74392 0.75605 0.0
C960 C 0.19463 0.76111 0.74628 0.0
H961 H 0.25954 0.856 0.71195 0.0
H962 H 0.2318 0.82878 0.7266 0.0
H963 H 0.22932 0.77577 0.70484 0.0
H964 H 0.17183 0.70468 0.78406 0.0
H965 H 0.19662 0.73262 0.76572 0.0
C966 C 0.45467 0.27706 0.69617 0.0
C967 C 0.45264 0.2896 0.71095 0.0
C968 C 0.45354 0.26141 0.70655 0.0
C969 C 0.43711 0.23194 0.76229 0.0
H970 H 0.46834 0.21403 0.73719 0.0
C971 C 0.44966 0.17903 0.81249 0.0
C972 C 0.44806 0.16434 0.79835 0.0
C973 C 0.44901 0.19353 0.80121 0.0
C974 C 0.45941 0.21879 0.74415 0.0
H975 H 0.44809 0.2958 0.74822 0.0
H976 H 0.44679 0.26874 0.76665 0.0
H977 H 0.47045 0.24158 0.71946 0.0
H978 H 0.44444 0.15319 0.76138 0.0
H979 H 0.44374 0.17897 0.74143 0.0
H980 H 0.42664 0.20942 0.78766 0.0
C981 C 0.44876 0.27074 0.74689 0.0
C982 C 0.46056 0.23454 0.73401 0.0
C983 C 0.44964 0.28631 0.7364 0.0
C984 C 0.44568 0.16434 0.77268 0.0
C985 C 0.44535 0.17907 0.7613 0.0
C986 C 0.43616 0.21634 0.77267 0.0
C987 C 0.45061 0.25805 0.73204 0.0
C988 C 0.44943 0.24133 0.74296 0.0
C989 C 0.44702 0.19376 0.77552 0.0
C990 C 0.44731 0.20966 0.76369 0.0
H991 H 0.45677 0.27912 0.67642 0.0
H992 H 0.45465 0.25179 0.69445 0.0
H993 H 0.42807 0.23654 0.76932 0.0
H994 H 0.4514 0.17932 0.83235 0.0
H995 H 0.45048 0.20479 0.81251 0.0
C996 C 0.17596 0.46491 0.71367 0.0
C997 C 0.15859 0.44939 0.71087 0.0
C998 C 0.18957 0.46378 0.72683 0.0
C999 C 0.20664 0.43376 0.73922 0.0
H1000 H 0.23314 0.46626 0.79353 0.0
C1001 C 0.26731 0.43257 0.78756 0.0
C1002 C 0.28157 0.44935 0.79618 0.0
C1003 C 0.25126 0.43139 0.77834 0.0
C1004 C 0.22607 0.45726 0.77815 0.0
H1005 H 0.14148 0.42065 0.7198 0.0
H1006 H 0.16568 0.4185 0.74227 0.0
H1007 H 0.20659 0.46646 0.77613 0.0
H1008 H 0.29103 0.47823 0.80039 0.0
H1009 H 0.26355 0.47647 0.78338 0.0
H1010 H 0.2266 0.42525 0.74009 0.0
C1011 C 0.1686 0.43154 0.73454 0.0
C1012 C 0.21077 0.45727 0.76843 0.0
C1013 C 0.15482 0.43279 0.72187 0.0
C1014 C 0.27998 0.46506 0.79447 0.0
C1015 C 0.26416 0.46398 0.78482 0.0
C1016 C 0.22218 0.434 0.7486 0.0
C1017 C 0.18609 0.44701 0.73691 0.0
C1018 C 0.20108 0.44566 0.74876 0.0
C1019 C 0.24941 0.44707 0.77713 0.0
C1020 C 0.23226 0.44595 0.76797 0.0
H1021 H 0.17905 0.4779 0.70564 0.0
H1022 H 0.203 0.47586 0.72844 0.0
H1023 H 0.1994 0.42484 0.72383 0.0
H1024 H 0.26828 0.42027 0.78884 0.0
H1025 H 0.24017 0.41811 0.77279 0.0
C1026 C 0.82144 0.27192 0.80439 0.0
C1027 C 0.83571 0.28491 0.7896 0.0
C1028 C 0.80653 0.2568 0.79374 0.0
C1029 C 0.79075 0.2296 0.73603 0.0
H1030 H 0.74283 0.21303 0.76482 0.0
C1031 C 0.72269 0.17826 0.68903 0.0
C1032 C 0.71012 0.1636 0.70375 0.0
C1033 C 0.73833 0.19273 0.69951 0.0
C1034 C 0.75616 0.21744 0.75676 0.0
H1035 H 0.84572 0.29229 0.75211 0.0
H1036 H 0.81924 0.26611 0.73324 0.0
H1037 H 0.76961 0.23934 0.78253 0.0
H1038 H 0.70397 0.15255 0.74092 0.0
H1039 H 0.73127 0.17819 0.75941 0.0
H1040 H 0.77699 0.20792 0.70974 0.0
C1041 C 0.81978 0.26738 0.75316 0.0
C1042 C 0.77152 0.23246 0.76691 0.0
C1043 C 0.8349 0.28242 0.76391 0.0
C1044 C 0.71344 0.16369 0.72918 0.0
C1045 C 0.72898 0.17834 0.73974 0.0
C1046 C 0.77531 0.21472 0.72567 0.0
C1047 C 0.80536 0.25445 0.76798 0.0
C1048 C 0.78903 0.23866 0.75677 0.0
C1049 C 0.74157 0.19292 0.72495 0.0
C1050 C 0.75793 0.2085 0.73603 0.0
H1051 H 0.82185 0.27336 0.82431 0.0
H1052 H 0.79594 0.2469 0.80578 0.0
H1053 H 0.80403 0.23382 0.72799 0.0
H1054 H 0.72053 0.17849 0.66933 0.0
H1055 H 0.74779 0.20391 0.68779 0.0
C1056 C 0.47714 0.1332 0.10207 0.0
C1057 C 0.46569 0.11454 0.10752 0.0
C1058 C 0.48543 0.13861 0.07882 0.0
C1059 C 0.49417 0.12034 0.02051 0.0
H1060 H 0.48885 0.15892 0.98979 0.0
C1061 C 0.4798 0.1237 0.91739 0.0
C1062 C 0.48719 0.14099 0.90615 0.0
C1063 C 0.48329 0.12226 0.9423 0.0
C1064 C 0.49082 0.14837 -0.00181 0.0
H1065 H 0.4545 0.08694 0.09304 0.0
H1066 H 0.46834 0.09633 0.05276 0.0
H1067 H 0.48379 0.15365 0.03391 0.0
H1068 H 0.50548 0.17018 0.91162 0.0
H1069 H 0.51136 0.16758 0.95498 0.0
H1070 H 0.49998 0.11435 0.98424 0.0
C1071 C 0.47135 0.10684 0.06642 0.0
C1072 C 0.48797 0.14538 0.02355 0.0
C1073 C 0.46319 0.10145 0.08955 0.0
C1074 C 0.49928 0.15665 0.91978 0.0
C1075 C 0.50269 0.15521 0.94464 0.0
C1076 C 0.49681 0.12321 -0.00494 0.0
C1077 C 0.48237 0.12547 0.0606 0.0
C1078 C 0.48898 0.13092 0.03487 0.0
C1079 C 0.49419 0.13808 0.95636 0.0
C1080 C 0.49462 0.13691 0.98359 0.0
H1081 H 0.47949 0.14361 0.11558 0.0
H1082 H 0.494 0.15309 0.075 0.0
H1083 H 0.49547 0.10935 0.02877 0.0
H1084 H 0.47053 0.11137 0.90739 0.0
H1085 H 0.47648 0.10888 0.95094 0.0
C1086 C 0.34546 0.50249 0.91418 0.0
C1087 C 0.34803 0.48976 0.9005 0.0
C1088 C 0.35068 0.50589 0.93891 0.0
C1089 C 0.37625 0.49884 0.98889 0.0
H1090 H 0.33347 0.48745 0.0284 0.0
C1091 C 0.36444 0.466 0.08402 0.0
C1092 C 0.35408 0.46884 0.10198 0.0
C1093 C 0.36725 0.47401 0.06077 0.0
C1094 C 0.34575 0.49117 0.01786 0.0
H1095 H 0.3597 0.47195 0.90149 0.0
H1096 H 0.36884 0.47793 0.94482 0.0
H1097 H 0.3331 0.4924 0.98428 0.0
H1098 H 0.33929 0.48315 0.10991 0.0
H1099 H 0.34446 0.49747 0.06918 0.0
H1100 H 0.38879 0.49725 0.02242 0.0
C1101 C 0.36272 0.48522 0.93631 0.0
C1102 C 0.34551 0.49395 0.9925 0.0
C1103 C 0.35742 0.48174 0.91152 0.0
C1104 C 0.34718 0.48053 0.09641 0.0
C1105 C 0.35012 0.4887 0.07306 0.0
C1106 C 0.3766 0.4963 0.01435 0.0
C1107 C 0.3587 0.49675 0.95046 0.0
C1108 C 0.36051 0.49718 0.97766 0.0
C1109 C 0.35992 0.48525 0.05482 0.0
C1110 C 0.36107 0.49171 0.02898 0.0
H1111 H 0.33856 0.50918 0.90619 0.0
H1112 H 0.34768 0.51503 0.94934 0.0
H1113 H 0.38807 0.50154 0.97787 0.0
H1114 H 0.37001 0.4571 0.08758 0.0
H1115 H 0.37453 0.47069 0.04713 0.0
C1116 C 0.84901 0.34869 0.90933 0.0
C1117 C 0.86323 0.3473 0.89792 0.0
C1118 C 0.85005 0.35316 0.93431 0.0
C1119 C 0.84865 0.34648 0.98914 0.0
H1120 H 0.89413 0.37631 0.02419 0.0
C1121 C 0.85954 0.33413 0.09073 0.0
C1122 C 0.87297 0.3488 0.10442 0.0
C1123 C 0.85616 0.33681 0.06621 0.0
C1124 C 0.88118 0.36819 0.0148 0.0
H1125 H 0.89017 0.35062 0.90322 0.0
H1126 H 0.89183 0.35791 0.94701 0.0
H1127 H 0.89373 0.37761 0.97945 0.0
H1128 H 0.89205 0.378 0.10452 0.0
H1129 H 0.88551 0.38291 0.06229 0.0
H1130 H 0.83608 0.33717 0.02453 0.0
C1131 C 0.87999 0.35589 0.93665 0.0
C1132 C 0.88104 0.36875 0.98904 0.0
C1133 C 0.87905 0.35166 0.91153 0.0
C1134 C 0.88176 0.36644 0.09412 0.0
C1135 C 0.87814 0.3692 0.06987 0.0
C1136 C 0.84875 0.34608 0.01493 0.0
C1137 C 0.86521 0.35608 0.94851 0.0
C1138 C 0.86489 0.35753 0.97586 0.0
C1139 C 0.86597 0.35428 0.05521 0.0
C1140 C 0.86512 0.35656 0.02807 0.0
H1141 H 0.83674 0.34565 0.89916 0.0
H1142 H 0.83865 0.35367 0.94267 0.0
H1143 H 0.83597 0.33749 0.97964 0.0
H1144 H 0.85269 0.32039 0.09829 0.0
H1145 H 0.84676 0.32497 0.05547 0.0
C1146 C 0.52235 0.86539 0.08723 0.0
C1147 C 0.53209 0.88407 0.0934 0.0
C1148 C 0.5154 0.85989 0.06331 0.0
C1149 C 0.50658 0.87731 0.0043 0.0
H1150 H 0.51528 0.84061 0.97446 0.0
C1151 C 0.51666 0.87173 0.89959 0.0
C1152 C 0.50851 0.85405 0.88939 0.0
C1153 C 0.5156 0.87406 0.92501 0.0
C1154 C 0.51251 0.8507 0.98262 0.0
H1155 H 0.54165 0.91157 0.07939 0.0
H1156 H 0.53014 0.9021 0.03806 0.0
H1157 H 0.52014 0.84647 0.01859 0.0
H1158 H 0.49197 0.825 0.89781 0.0
H1159 H 0.49036 0.82918 0.94194 0.0
H1160 H 0.49989 0.88213 0.96787 0.0
C1161 C 0.52744 0.89159 0.05162 0.0
C1162 C 0.5152 0.854 0.00795 0.0
C1163 C 0.53424 0.89704 0.0754 0.0
C1164 C 0.49859 0.83884 0.90499 0.0
C1165 C 0.49766 0.84118 0.93032 0.0
C1166 C 0.50411 0.87416 0.97889 0.0
C1167 C 0.51813 0.87298 0.04514 0.0
C1168 C 0.51267 0.86763 0.01902 0.0
C1169 C 0.50647 0.85877 0.94064 0.0
C1170 C 0.50737 0.86105 0.96778 0.0
H1171 H 0.52034 0.85504 0.1007 0.0
H1172 H 0.50809 0.84542 0.05899 0.0
H1173 H 0.50412 0.88765 0.01231 0.0
H1174 H 0.52433 0.88373 0.88811 0.0
H1175 H 0.5226 0.88779 0.93258 0.0
C1176 C 0.65815 0.51142 0.07939 0.0
C1177 C 0.64362 0.50987 0.09372 0.0
C1178 C 0.65498 0.5048 0.05516 0.0
C1179 C 0.62235 0.49822 0.00596 0.0
H1180 H 0.65508 0.48834 0.96737 0.0
C1181 C 0.64709 0.49762 0.89874 0.0
C1182 C 0.64863 0.51423 0.89091 0.0
C1183 C 0.64116 0.49109 0.9226 0.0
C1184 C 0.64549 0.49069 0.97778 0.0
H1185 H 0.61423 0.49832 0.09555 0.0
H1186 H 0.60852 0.48591 0.05377 0.0
H1187 H 0.65472 0.48554 0.01206 0.0
H1188 H 0.64396 0.53636 0.90116 0.0
H1189 H 0.63412 0.52533 0.9431 0.0
H1190 H 0.6132 0.5035 0.97172 0.0
C1191 C 0.62244 0.49289 0.06064 0.0
C1192 C 0.64547 0.48931 0.00349 0.0
C1193 C 0.62567 0.49983 0.08462 0.0
C1194 C 0.64287 0.52351 0.90672 0.0
C1195 C 0.63716 0.51711 0.93075 0.0
C1196 C 0.62222 0.49942 0.98027 0.0
C1197 C 0.63717 0.49629 0.04511 0.0
C1198 C 0.63444 0.49378 0.01795 0.0
C1199 C 0.63689 0.50117 0.93924 0.0
C1200 C 0.63432 0.4964 0.96593 0.0
H1201 H 0.67211 0.51922 0.08603 0.0
H1202 H 0.66669 0.50777 0.04378 0.0
H1203 H 0.61374 0.50194 0.0164 0.0
H1204 H 0.65117 0.49001 0.88674 0.0
H1205 H 0.64066 0.47854 0.92831 0.0
C1206 C 0.11146 0.64574 0.90091 0.0
C1207 C 0.12726 0.65034 0.8871 0.0
C1208 C 0.11064 0.64131 0.92593 0.0
C1209 C 0.10963 0.62829 0.97809 0.0
H1210 H 0.15485 0.65888 0.01351 0.0
C1211 C 0.10915 0.63095 0.08341 0.0
C1212 C 0.11893 0.64852 0.09379 0.0
C1213 C 0.11226 0.62793 0.05903 0.0
C1214 C 0.14209 0.65027 0.00395 0.0
H1215 H 0.15386 0.65226 0.88789 0.0
H1216 H 0.15213 0.64376 0.93122 0.0
H1217 H 0.15491 0.65881 0.9687 0.0
H1218 H 0.14031 0.67651 0.08748 0.0
H1219 H 0.14526 0.67155 0.04448 0.0
H1220 H 0.0965 0.62092 0.01321 0.0
C1221 C 0.14067 0.6443 0.92311 0.0
C1222 C 0.14216 0.64998 0.97815 0.0
C1223 C 0.14161 0.64903 0.89823 0.0
C1224 C 0.13266 0.66282 0.07988 0.0
C1225 C 0.13551 0.6599 0.05525 0.0
C1226 C 0.1095 0.6288 0.00385 0.0
C1227 C 0.12548 0.64109 0.93754 0.0
C1228 C 0.12583 0.63933 0.96487 0.0
C1229 C 0.1249 0.64253 0.04427 0.0
C1230 C 0.12565 0.64014 0.01712 0.0
H1231 H 0.10023 0.64671 0.89283 0.0
H1232 H 0.09878 0.63913 0.93642 0.0
H1233 H 0.09687 0.61965 0.96853 0.0
H1234 H 0.09865 0.61963 0.09395 0.0
H1235 H 0.10424 0.61426 0.0515 0.0
C1236 C 0.83403 0.49529 0.57452 0.0
C1237 C 0.84971 0.50563 0.58913 0.0
C1238 C 0.83566 0.49268 0.54942 0.0
C1239 C 0.86789 0.49737 0.4999 0.0
H1240 H 0.84132 0.51518 0.4611 0.0
C1241 C 0.89398 0.53296 0.40716 0.0
C1242 C 0.88169 0.53178 0.38871 0.0
C1243 C 0.8876 0.52456 0.42999 0.0
C1244 C 0.8485 0.50971 0.47144 0.0
H1245 H 0.87942 0.51996 0.58921 0.0
H1246 H 0.88225 0.51539 0.54532 0.0
H1247 H 0.83469 0.50901 0.50486 0.0
H1248 H 0.85295 0.52015 0.37953 0.0
H1249 H 0.84175 0.50524 0.41958 0.0
H1250 H 0.88205 0.49854 0.46658 0.0
C1251 C 0.86869 0.50934 0.55335 0.0
C1252 C 0.84472 0.50621 0.49658 0.0
C1253 C 0.86707 0.51205 0.57848 0.0
C1254 C 0.86279 0.52145 0.39341 0.0
C1255 C 0.85638 0.51294 0.41635 0.0
C1256 C 0.87155 0.5007 0.47468 0.0
C1257 C 0.853 0.50021 0.53843 0.0
C1258 C 0.85481 0.50061 0.51121 0.0
C1259 C 0.86875 0.51462 0.43501 0.0
C1260 C 0.86239 0.50759 0.46037 0.0
H1261 H 0.82042 0.48992 0.58216 0.0
H1262 H 0.82336 0.48537 0.53839 0.0
H1263 H 0.87568 0.49282 0.51071 0.0
H1264 H 0.90864 0.54076 0.40426 0.0
H1265 H 0.89756 0.52649 0.44403 0.0
C1266 C 0.34537 0.88518 0.5867 0.0
C1267 C 0.34066 0.86953 0.60091 0.0
C1268 C 0.35133 0.88628 0.56234 0.0
C1269 C 0.34687 0.85518 0.51146 0.0
H1270 H 0.37645 0.90107 0.4771 0.0
C1271 C 0.33824 0.86452 0.40828 0.0
C1272 C 0.35289 0.87862 0.39528 0.0
C1273 C 0.34026 0.86154 0.4332 0.0
C1274 C 0.36847 0.88802 0.48633 0.0
H1275 H 0.34012 0.84357 0.6018 0.0
H1276 H 0.35125 0.84581 0.55973 0.0
H1277 H 0.37532 0.90078 0.52185 0.0
H1278 H 0.3816 0.89934 0.39706 0.0
H1279 H 0.38543 0.89355 0.44012 0.0
H1280 H 0.34019 0.8424 0.47595 0.0
C1281 C 0.34965 0.85691 0.5669 0.0
C1282 C 0.36759 0.88793 0.51208 0.0
C1283 C 0.34339 0.85568 0.59107 0.0
C1284 C 0.37001 0.88854 0.40686 0.0
C1285 C 0.37215 0.88533 0.43158 0.0
C1286 C 0.34795 0.85524 0.48572 0.0
C1287 C 0.35298 0.87187 0.55189 0.0
C1288 C 0.35631 0.87161 0.52494 0.0
C1289 C 0.35708 0.8724 0.4454 0.0
C1290 C 0.35828 0.87174 0.47277 0.0
H1291 H 0.34331 0.89602 0.59382 0.0
H1292 H 0.35358 0.89795 0.55133 0.0
H1293 H 0.33789 0.84234 0.52063 0.0
H1294 H 0.32487 0.85675 0.39976 0.0
H1295 H 0.32829 0.85155 0.44321 0.0
C1296 C 0.47098 0.35473 0.58823 0.0
C1297 C 0.48327 0.35103 0.60093 0.0
C1298 C 0.47355 0.35915 0.56313 0.0
C1299 C 0.48345 0.37237 0.51061 0.0
H1300 H 0.49828 0.34281 0.47305 0.0
C1301 C 0.47707 0.36925 0.40554 0.0
C1302 C 0.46931 0.35166 0.39524 0.0
C1303 C 0.48388 0.37249 0.42958 0.0
C1304 C 0.49407 0.35113 0.48323 0.0
H1305 H 0.50877 0.35075 0.59811 0.0
H1306 H 0.51365 0.35917 0.55459 0.0
H1307 H 0.50013 0.34322 0.51781 0.0
H1308 H 0.46342 0.32387 0.40129 0.0
H1309 H 0.47456 0.32922 0.44375 0.0
H1310 H 0.47599 0.37912 0.47622 0.0
C1311 C 0.50164 0.35796 0.56366 0.0
C1312 C 0.49541 0.35162 0.50895 0.0
C1313 C 0.49892 0.35325 0.58862 0.0
C1314 C 0.4694 0.33756 0.40885 0.0
C1315 C 0.47588 0.3407 0.43315 0.0
C1316 C 0.48187 0.37168 0.48493 0.0
C1317 C 0.48862 0.36024 0.55036 0.0
C1318 C 0.48968 0.3619 0.523 0.0
C1319 C 0.48269 0.35809 0.44405 0.0
C1320 C 0.48675 0.36071 0.47095 0.0
H1321 H 0.45877 0.35306 0.59725 0.0
H1322 H 0.46311 0.36063 0.55349 0.0
H1323 H 0.47923 0.38069 0.52079 0.0
H1324 H 0.47743 0.38044 0.39521 0.0
H1325 H 0.48952 0.38616 0.43709 0.0
C1326 C 0.12524 0.47917 0.58084 0.0
C1327 C 0.1421 0.4848 0.59256 0.0
C1328 C 0.12461 0.48229 0.55558 0.0
C1329 C 0.14974 0.48571 0.49974 0.0
H1330 H 0.11641 0.49882 0.4689 0.0
C1331 C 0.13637 0.47738 0.39484 0.0
C1332 C 0.11772 0.46866 0.38849 0.0
C1333 C 0.14208 0.48437 0.41869 0.0
C1334 C 0.12578 0.49512 0.47723 0.0
H1335 H 0.17161 0.49916 0.58716 0.0
H1336 H 0.17038 0.50435 0.54318 0.0
H1337 H 0.12085 0.50173 0.51361 0.0
H1338 H 0.09057 0.46115 0.40201 0.0
H1339 H 0.10038 0.47275 0.44324 0.0
H1340 H 0.15389 0.47804 0.46377 0.0
C1341 C 0.15769 0.49743 0.55351 0.0
C1342 C 0.12832 0.49683 0.50279 0.0
C1343 C 0.15834 0.49445 0.57874 0.0
C1344 C 0.10506 0.46769 0.40618 0.0
C1345 C 0.11072 0.47458 0.42988 0.0
C1346 C 0.14704 0.4838 0.47423 0.0
C1347 C 0.14081 0.49099 0.54158 0.0
C1348 C 0.13997 0.49169 0.51433 0.0
C1349 C 0.12924 0.48276 0.43659 0.0
C1350 C 0.1346 0.48795 0.46277 0.0
H1351 H 0.11248 0.47179 0.59094 0.0
H1352 H 0.11139 0.47707 0.54677 0.0
H1353 H 0.15869 0.4815 0.5082 0.0
H1354 H 0.1465 0.47848 0.3816 0.0
H1355 H 0.1565 0.49078 0.42321 0.0
C1356 C 0.65077 0.13245 0.39986 0.0
C1357 C 0.64462 0.11417 0.39327 0.0
C1358 C 0.64741 0.13671 0.4236 0.0
C1359 C 0.62066 0.11523 0.48138 0.0
H1360 H 0.66271 0.15528 0.51338 0.0
C1361 C 0.63807 0.11859 0.58498 0.0
C1362 C 0.64649 0.13582 0.5965 0.0
C1363 C 0.63334 0.11698 0.55995 0.0
C1364 C 0.65069 0.14426 0.50463 0.0
H1365 H 0.62969 0.08601 0.40631 0.0
H1366 H 0.62447 0.09343 0.44738 0.0
H1367 H 0.66325 0.15124 0.46905 0.0
H1368 H 0.65479 0.16452 0.59148 0.0
H1369 H 0.64665 0.16164 0.54799 0.0
H1370 H 0.60869 0.10763 0.51749 0.0
C1371 C 0.63144 0.10451 0.43426 0.0
C1372 C 0.65097 0.14197 0.47915 0.0
C1373 C 0.63467 0.10027 0.41065 0.0
C1374 C 0.64866 0.15108 0.58307 0.0
C1375 C 0.644 0.14948 0.55815 0.0
C1376 C 0.62049 0.11739 0.50695 0.0
C1377 C 0.63794 0.12278 0.44119 0.0
C1378 C 0.63619 0.1271 0.46731 0.0
C1379 C 0.63696 0.13257 0.54613 0.0
C1380 C 0.6357 0.13166 0.51886 0.0
H1381 H 0.65833 0.14346 0.38684 0.0
H1382 H 0.65244 0.15092 0.42826 0.0
H1383 H 0.60886 0.10387 0.47275 0.0
H1384 H 0.63613 0.10656 0.59482 0.0
H1385 H 0.62797 0.10377 0.55107 0.0
C1386 C 0.53152 0.65398 0.37568 0.0
C1387 C 0.545 0.6496 0.36919 0.0
C1388 C 0.52425 0.6505 0.39961 0.0
C1389 C 0.52159 0.62498 0.4574 0.0
H1390 H 0.51498 0.66258 0.48866 0.0
C1391 C 0.52457 0.63818 0.56265 0.0
C1392 C 0.51279 0.64393 0.57223 0.0
C1393 C 0.52453 0.63477 0.53734 0.0
C1394 C 0.51645 0.65179 0.48008 0.0
H1395 H 0.5615 0.63828 0.3828 0.0
H1396 H 0.54938 0.63286 0.42434 0.0
H1397 H 0.52258 0.66515 0.44499 0.0
H1398 H 0.49045 0.64876 0.56323 0.0
H1399 H 0.49048 0.64287 0.51928 0.0
H1400 H 0.51636 0.61218 0.49304 0.0
C1401 C 0.54392 0.63841 0.41093 0.0
C1402 C 0.52076 0.65323 0.455 0.0
C1403 C 0.55103 0.6417 0.38707 0.0
C1404 C 0.49995 0.64468 0.5564 0.0
C1405 C 0.49995 0.64134 0.5312 0.0
C1406 C 0.51748 0.62365 0.48259 0.0
C1407 C 0.53045 0.64275 0.41755 0.0
C1408 C 0.52374 0.64004 0.44345 0.0
C1409 C 0.51272 0.63708 0.5213 0.0
C1410 C 0.51514 0.6372 0.49421 0.0
H1411 H 0.5265 0.65994 0.36226 0.0
H1412 H 0.51375 0.65385 0.40403 0.0
H1413 H 0.52341 0.61436 0.44897 0.0
H1414 H 0.53458 0.63741 0.57436 0.0
H1415 H 0.53454 0.63152 0.53014 0.0
C1416 C 0.48677 0.08092 0.20287 0.0
C1417 C 0.48168 0.09373 0.21018 0.0
C1418 C 0.50242 0.08159 0.21251 0.0
C1419 C 0.5459 0.11209 0.24546 0.0
H1420 H 0.54511 0.06631 0.25665 0.0
C1421 C 0.59106 0.08225 0.29614 0.0
C1422 C 0.60888 0.09578 0.28942 0.0
C1423 C 0.57584 0.08245 0.28651 0.0
C1424 C 0.54557 0.07925 0.25393 0.0
H1425 H 0.48901 0.11724 0.23364 0.0
H1426 H 0.51607 0.11803 0.25121 0.0
H1427 H 0.51785 0.06582 0.24153 0.0
H1428 H 0.62464 0.12008 0.26708 0.0
H1429 H 0.59795 0.12008 0.24951 0.0
H1430 H 0.57346 0.12546 0.25894 0.0
C1431 C 0.50817 0.10772 0.23751 0.0
C1432 C 0.52996 0.07898 0.24485 0.0
C1433 C 0.49257 0.10718 0.22758 0.0
C1434 C 0.6111 0.10948 0.27267 0.0
C1435 C 0.59579 0.10955 0.26275 0.0
C1436 C 0.5615 0.11236 0.25484 0.0
C1437 C 0.51331 0.09493 0.23004 0.0
C1438 C 0.52991 0.09538 0.24036 0.0
C1439 C 0.57795 0.09603 0.26958 0.0
C1440 C 0.56153 0.09592 0.25919 0.0
H1441 H 0.47885 0.07051 0.18926 0.0
H1442 H 0.50612 0.07177 0.20586 0.0
H1443 H 0.54648 0.12501 0.24196 0.0
H1444 H 0.58882 0.07162 0.30926 0.0
H1445 H 0.56238 0.07206 0.29269 0.0
C1446 C 0.52062 0.59499 0.26249 0.0
C1447 C 0.52161 0.61197 0.26616 0.0
C1448 C 0.50442 0.57984 0.25432 0.0
C1449 C 0.4547 0.56063 0.25315 0.0
H1450 H 0.45611 0.52857 0.20298 0.0
C1451 C 0.38925 0.49921 0.21158 0.0
C1452 C 0.39012 0.48347 0.20544 0.0
C1453 C 0.40492 0.51509 0.21967 0.0
C1454 C 0.45548 0.53722 0.21727 0.0
H1455 H 0.50634 0.62635 0.26381 0.0
H1456 H 0.47796 0.59977 0.24958 0.0
H1457 H 0.48424 0.55616 0.21469 0.0
H1458 H 0.40787 0.47173 0.20439 0.0
H1459 H 0.43492 0.49911 0.2191 0.0
H1460 H 0.42596 0.54151 0.25602 0.0
C1461 C 0.48977 0.59826 0.25315 0.0
C1462 C 0.47161 0.55308 0.22388 0.0
C1463 C 0.50606 0.61349 0.26111 0.0
C1464 C 0.40676 0.48368 0.20866 0.0
C1465 C 0.42233 0.49945 0.21692 0.0
C1466 C 0.43854 0.54466 0.24664 0.0
C1467 C 0.48877 0.58126 0.24979 0.0
C1468 C 0.47143 0.56489 0.242 0.0
C1469 C 0.42174 0.5155 0.22196 0.0
C1470 C 0.43877 0.53268 0.22876 0.0
H1471 H 0.53232 0.59331 0.26616 0.0
H1472 H 0.50402 0.56689 0.25211 0.0
H1473 H 0.45419 0.56939 0.26737 0.0
H1474 H 0.37666 0.49953 0.20922 0.0
H1475 H 0.40397 0.52722 0.22326 0.0
C1476 C 0.91592 0.50908 0.29526 0.0
C1477 C 0.9036 0.51475 0.28768 0.0
C1478 C 0.91474 0.49317 0.28574 0.0
C1479 C 0.91668 0.46546 0.253 0.0
H1480 H 0.86974 0.42259 0.23869 0.0
C1481 C 0.91191 0.40486 0.19894 0.0
C1482 C 0.89849 0.38698 0.20559 0.0
C1483 C 0.91197 0.41999 0.20935 0.0
C1484 C 0.88295 0.43437 0.24285 0.0
H1485 H 0.88037 0.50812 0.26396 0.0
H1486 H 0.87866 0.48056 0.24667 0.0
H1487 H 0.87081 0.44974 0.25626 0.0
H1488 H 0.87461 0.37102 0.22858 0.0
H1489 H 0.87502 0.39758 0.24739 0.0
H1490 H 0.92885 0.45 0.2405 0.0
C1491 C 0.889 0.48825 0.26045 0.0
C1492 C 0.88358 0.45005 0.25258 0.0
C1493 C 0.89007 0.50413 0.27021 0.0
C1494 C 0.88513 0.38461 0.22305 0.0
C1495 C 0.8853 0.39984 0.23369 0.0
C1496 C 0.91605 0.44978 0.24353 0.0
C1497 C 0.90134 0.48257 0.26812 0.0
C1498 C 0.90048 0.46582 0.25771 0.0
C1499 C 0.89876 0.41773 0.22696 0.0
C1500 C 0.8992 0.43408 0.23812 0.0
H1501 H 0.92638 0.51678 0.30893 0.0
H1502 H 0.92423 0.48906 0.29251 0.0
H1503 H 0.92996 0.47739 0.25638 0.0
H1504 H 0.92229 0.40726 0.18533 0.0
H1505 H 0.92229 0.43351 0.20327 0.0
C1506 C 0.50603 0.91505 0.18945 0.0
C1507 C 0.51213 0.903 0.19672 0.0
C1508 C 0.49031 0.91379 0.19985 0.0
C1509 C 0.44856 0.88312 0.23618 0.0
H1510 H 0.4491 0.9286 0.2489 0.0
C1511 C 0.4063 0.91262 0.29466 0.0
C1512 C 0.38809 0.89924 0.28949 0.0
C1513 C 0.42083 0.91235 0.28286 0.0
C1514 C 0.44873 0.91575 0.24571 0.0
H1515 H 0.50642 0.88011 0.22065 0.0
H1516 H 0.47924 0.87829 0.23946 0.0
H1517 H 0.47564 0.92942 0.23041 0.0
H1518 H 0.37092 0.87498 0.26778 0.0
H1519 H 0.39643 0.87476 0.24655 0.0
H1520 H 0.42183 0.86954 0.25254 0.0
C1521 C 0.48641 0.88846 0.22527 0.0
C1522 C 0.4639 0.91621 0.23472 0.0
C1523 C 0.50207 0.88959 0.21462 0.0
C1524 C 0.38479 0.88548 0.27219 0.0
C1525 C 0.39941 0.8853 0.26015 0.0
C1526 C 0.43338 0.88267 0.24741 0.0
C1527 C 0.48037 0.90061 0.21807 0.0
C1528 C 0.46405 0.89992 0.22979 0.0
C1529 C 0.41762 0.89881 0.26528 0.0
C1530 C 0.43334 0.89901 0.25245 0.0
H1531 H 0.51328 0.92538 0.17546 0.0
H1532 H 0.48589 0.92312 0.19341 0.0
H1533 H 0.44809 0.87029 0.23239 0.0
H1534 H 0.40942 0.9233 0.30811 0.0
H1535 H 0.43465 0.9227 0.28776 0.0
C1536 C 0.61343 0.49497 0.21488 0.0
C1537 C 0.60999 0.50484 0.19676 0.0
C1538 C 0.59888 0.48035 0.22734 0.0
C1539 C 0.56515 0.44357 0.24047 0.0
H1540 H 0.52231 0.44746 0.25562 0.0
C1541 C 0.49648 0.38165 0.2739 0.0
C1542 C 0.48629 0.38527 0.29125 0.0
C1543 C 0.51215 0.39608 0.26301 0.0
C1544 C 0.53421 0.44615 0.25184 0.0
H1545 H 0.58849 0.50685 0.17738 0.0
H1546 H 0.56345 0.48138 0.19847 0.0
H1547 H 0.54881 0.47322 0.23714 0.0
H1548 H 0.48499 0.40683 0.31142 0.0
H1549 H 0.51234 0.43169 0.29314 0.0
H1550 H 0.55061 0.41661 0.25604 0.0
C1551 C 0.57729 0.48513 0.20364 0.0
C1552 C 0.54936 0.46089 0.24087 0.0
C1553 C 0.59174 0.49975 0.19141 0.0
C1554 C 0.4923 0.40353 0.2978 0.0
C1555 C 0.50801 0.41785 0.28721 0.0
C1556 C 0.54998 0.42881 0.25172 0.0
C1557 C 0.58063 0.47526 0.22183 0.0
C1558 C 0.56497 0.45976 0.23479 0.0
C1559 C 0.51804 0.41438 0.26945 0.0
C1560 C 0.53429 0.42991 0.25747 0.0
H1561 H 0.62733 0.49853 0.21943 0.0
H1562 H 0.60195 0.47316 0.24142 0.0
H1563 H 0.57687 0.44216 0.23584 0.0
H1564 H 0.49221 0.36772 0.26849 0.0
H1565 H 0.51944 0.3929 0.24922 0.0
C1566 C 0.11457 0.61721 0.21544 0.0
C1567 C 0.10042 0.61399 0.19887 0.0
C1568 C 0.11499 0.60252 0.22692 0.0
C1569 C 0.11778 0.56842 0.23821 0.0
H1570 H 0.07136 0.52621 0.25648 0.0
C1571 C 0.11116 0.49936 0.26872 0.0
C1572 C 0.0981 0.48924 0.28697 0.0
C1573 C 0.1122 0.51516 0.25867 0.0
C1574 C 0.0845 0.53793 0.25181 0.0
H1575 H 0.07591 0.59278 0.18092 0.0
H1576 H 0.07692 0.56744 0.20028 0.0
H1577 H 0.07188 0.55289 0.23897 0.0
H1578 H 0.07632 0.48816 0.30955 0.0
H1579 H 0.07847 0.51579 0.29267 0.0
H1580 H 0.1304 0.55355 0.2519 0.0
C1581 C 0.0874 0.58123 0.20507 0.0
C1582 C 0.08477 0.55318 0.24139 0.0
C1583 C 0.08689 0.59582 0.19383 0.0
C1584 C 0.08636 0.49545 0.29525 0.0
C1585 C 0.08754 0.5113 0.28546 0.0
C1586 C 0.11752 0.55316 0.24889 0.0
C1587 C 0.10134 0.58434 0.22193 0.0
C1588 C 0.10137 0.56855 0.23419 0.0
C1589 C 0.10033 0.52127 0.26685 0.0
C1590 C 0.10085 0.53768 0.25572 0.0
H1591 H 0.1252 0.63105 0.21972 0.0
H1592 H 0.12584 0.60542 0.23998 0.0
H1593 H 0.13081 0.57995 0.23271 0.0
H1594 H 0.1204 0.49493 0.26194 0.0
H1595 H 0.12207 0.52237 0.24416 0.0
C1596 C 0.47262 0.86114 0.77893 0.0
C1597 C 0.471 0.84407 0.7843 0.0
C1598 C 0.45753 0.86216 0.77032 0.0
C1599 C 0.41318 0.83521 0.73929 0.0
H1600 H 0.40185 0.87046 0.76811 0.0
C1601 C 0.34674 0.83465 0.71472 0.0
C1602 C 0.34813 0.8517 0.71011 0.0
C1603 C 0.36125 0.83367 0.72552 0.0
C1604 C 0.40493 0.86067 0.75971 0.0
H1605 H 0.45232 0.81469 0.78444 0.0
H1606 H 0.4261 0.81653 0.76932 0.0
H1607 H 0.42863 0.86916 0.78244 0.0
H1608 H 0.36565 0.8811 0.71416 0.0
H1609 H 0.39107 0.87939 0.73256 0.0
H1610 H 0.38976 0.82687 0.71628 0.0
C1611 C 0.43904 0.82909 0.77173 0.0
C1612 C 0.42026 0.85993 0.76791 0.0
C1613 C 0.45406 0.82806 0.7805 0.0
C1614 C 0.3641 0.86773 0.71746 0.0
C1615 C 0.37867 0.86675 0.72811 0.0
C1616 C 0.39794 0.83601 0.73099 0.0
C1617 C 0.44059 0.84615 0.76671 0.0
C1618 C 0.42451 0.84716 0.75781 0.0
C1619 C 0.37755 0.84972 0.73182 0.0
C1620 C 0.39359 0.84871 0.74113 0.0
H1621 H 0.48546 0.87374 0.78167 0.0
H1622 H 0.45915 0.87548 0.76633 0.0
H1623 H 0.41628 0.8254 0.73093 0.0
H1624 H 0.33457 0.82202 0.70954 0.0
H1625 H 0.35978 0.82031 0.72864 0.0
C1626 C 0.62614 0.49521 0.77355 0.0
C1627 C 0.6422 0.49513 0.7803 0.0
C1628 C 0.61153 0.47981 0.76272 0.0
C1629 C 0.59209 0.42984 0.75844 0.0
H1630 H 0.5605 0.43337 0.70937 0.0
C1631 C 0.53276 0.36686 0.7101 0.0
C1632 C 0.51623 0.36695 0.70714 0.0
C1633 C 0.54839 0.38234 0.71898 0.0
C1634 C 0.56912 0.4322 0.72324 0.0
H1635 H 0.65585 0.4791 0.77961 0.0
H1636 H 0.6305 0.45239 0.76019 0.0
H1637 H 0.588 0.46104 0.72292 0.0
H1638 H 0.5031 0.38328 0.71185 0.0
H1639 H 0.53039 0.41025 0.72737 0.0
H1640 H 0.5732 0.40096 0.75862 0.0
C1641 C 0.62904 0.46422 0.76388 0.0
C1642 C 0.58488 0.44804 0.73099 0.0
C1643 C 0.64363 0.47959 0.77485 0.0
C1644 C 0.51558 0.38272 0.71387 0.0
C1645 C 0.53125 0.39823 0.72257 0.0
C1646 C 0.57639 0.41399 0.75057 0.0
C1647 C 0.61266 0.46399 0.75821 0.0
C1648 C 0.59648 0.44707 0.74883 0.0
C1649 C 0.54786 0.39828 0.72492 0.0
C1650 C 0.56467 0.41504 0.73305 0.0
H1651 H 0.62452 0.50691 0.77751 0.0
H1652 H 0.59907 0.48007 0.75882 0.0
H1653 H 0.60053 0.42862 0.77254 0.0
H1654 H 0.53375 0.35495 0.70513 0.0
H1655 H 0.56103 0.38202 0.72049 0.0
C1656 C 0.15942 0.63815 0.77426 0.0
C1657 C 0.14256 0.63743 0.77775 0.0
C1658 C 0.16007 0.62329 0.76401 0.0
C1659 C 0.13289 0.58039 0.72849 0.0
H1660 H 0.16598 0.56672 0.7589 0.0
C1661 C 0.1301 0.51206 0.70688 0.0
C1662 C 0.14698 0.51306 0.70225 0.0
C1663 C 0.12951 0.52715 0.71641 0.0
C1664 C 0.15678 0.57046 0.75009 0.0
H1665 H 0.11317 0.62068 0.77246 0.0
H1666 H 0.11431 0.59473 0.75495 0.0
H1667 H 0.16523 0.59361 0.77373 0.0
H1668 H 0.17649 0.5306 0.70469 0.0
H1669 H 0.17541 0.55685 0.72134 0.0
H1670 H 0.12434 0.55708 0.70501 0.0
C1671 C 0.12706 0.60685 0.75987 0.0
C1672 C 0.15639 0.5859 0.75851 0.0
C1673 C 0.12641 0.62174 0.77002 0.0
C1674 C 0.16324 0.52934 0.70799 0.0
C1675 C 0.16264 0.54437 0.71764 0.0
C1676 C 0.13323 0.56489 0.72014 0.0
C1677 C 0.14387 0.60734 0.7571 0.0
C1678 C 0.14446 0.59107 0.74779 0.0
C1679 C 0.14577 0.54351 0.72167 0.0
C1680 C 0.14519 0.55978 0.73084 0.0
H1681 H 0.17214 0.65007 0.77982 0.0
H1682 H 0.17327 0.62425 0.76167 0.0
H1683 H 0.12372 0.58413 0.7196 0.0
H1684 H 0.1173 0.49974 0.70271 0.0
H1685 H 0.1163 0.52601 0.71963 0.0
C1686 C 0.6188 0.13607 0.71363 0.0
C1687 C 0.63464 0.15224 0.70632 0.0
C1688 C 0.60421 0.13681 0.72462 0.0
C1689 C 0.59183 0.16692 0.75808 0.0
H1690 H 0.54308 0.13377 0.73317 0.0
C1691 C 0.52887 0.17132 0.79011 0.0
C1692 C 0.51281 0.15461 0.79492 0.0
C1693 C 0.54373 0.17159 0.77828 0.0
C1694 C 0.55657 0.14299 0.74053 0.0
H1695 H 0.64779 0.18191 0.70564 0.0
H1696 H 0.62232 0.18314 0.72501 0.0
H1697 H 0.56929 0.13294 0.71577 0.0
H1698 H 0.4997 0.1251 0.79061 0.0
H1699 H 0.52564 0.12559 0.77048 0.0
H1700 H 0.57912 0.17677 0.78316 0.0
C1701 C 0.62123 0.16992 0.72216 0.0
C1702 C 0.57157 0.14251 0.73055 0.0
C1703 C 0.63578 0.16919 0.71098 0.0
C1704 C 0.51182 0.13824 0.78715 0.0
C1705 C 0.52669 0.13851 0.77546 0.0
C1706 C 0.5768 0.16732 0.76821 0.0
C1707 C 0.60519 0.15372 0.72874 0.0
C1708 C 0.58934 0.1544 0.7393 0.0
C1709 C 0.54289 0.15517 0.77107 0.0
C1710 C 0.55897 0.15529 0.75963 0.0
H1711 H 0.61745 0.12279 0.71036 0.0
H1712 H 0.59211 0.12412 0.72983 0.0
H1713 H 0.60537 0.17614 0.76531 0.0
H1714 H 0.53006 0.18419 0.79572 0.0
H1715 H 0.55589 0.18468 0.77481 0.0
C1716 C 0.36741 0.50685 0.76996 0.0
C1717 C 0.35733 0.51121 0.78649 0.0
C1718 C 0.38149 0.52053 0.75584 0.0
C1719 C 0.41745 0.55299 0.73943 0.0
H1720 H 0.4138 0.59461 0.7166 0.0
C1721 C 0.47965 0.61762 0.69915 0.0
C1722 C 0.47647 0.62698 0.68006 0.0
C1723 C 0.46497 0.60318 0.71152 0.0
C1724 C 0.415 0.583 0.72252 0.0
H1725 H 0.35416 0.53339 0.80124 0.0
H1726 H 0.379 0.55724 0.77736 0.0
H1727 H 0.38805 0.56969 0.73777 0.0
H1728 H 0.45543 0.62821 0.6585 0.0
H1729 H 0.42993 0.60269 0.67935 0.0
H1730 H 0.44414 0.56598 0.72322 0.0
C1731 C 0.37576 0.54322 0.77466 0.0
C1732 C 0.40029 0.56879 0.73505 0.0
C1733 C 0.36154 0.52952 0.7885 0.0
C1734 C 0.45834 0.62143 0.67335 0.0
C1735 C 0.44369 0.60683 0.68543 0.0
C1736 C 0.43208 0.5671 0.72658 0.0
C1737 C 0.38596 0.53893 0.75818 0.0
C1738 C 0.40137 0.55367 0.74388 0.0
C1739 C 0.44679 0.59759 0.70481 0.0
C1740 C 0.43111 0.58236 0.7181 0.0
H1741 H 0.36442 0.49284 0.76788 0.0
H1742 H 0.38881 0.51666 0.74302 0.0
H1743 H 0.41889 0.5417 0.7462 0.0
H1744 H 0.49348 0.62164 0.70482 0.0
H1745 H 0.46791 0.59661 0.7266 0.0
C1746 C 0.86131 0.37532 0.78134 0.0
C1747 C 0.84543 0.35915 0.78855 0.0
C1748 C 0.86002 0.38964 0.7704 0.0
C1749 C 0.82885 0.40072 0.73702 0.0
H1750 H 0.86078 0.44973 0.76206 0.0
C1751 C 0.822 0.46253 0.70553 0.0
C1752 C 0.83842 0.47892 0.70085 0.0
C1753 C 0.82226 0.44784 0.71714 0.0
C1754 C 0.8519 0.43617 0.75465 0.0
H1755 H 0.81572 0.34515 0.78913 0.0
H1756 H 0.81353 0.37014 0.76989 0.0
H1757 H 0.86267 0.42403 0.77928 0.0
H1758 H 0.86798 0.49277 0.7051 0.0
H1759 H 0.86842 0.46717 0.72482 0.0
H1760 H 0.81827 0.41287 0.71209 0.0
C1761 C 0.82695 0.3717 0.77276 0.0
C1762 C 0.85299 0.42145 0.76454 0.0
C1763 C 0.82823 0.35743 0.78388 0.0
C1764 C 0.85505 0.48039 0.70846 0.0
C1765 C 0.8553 0.46571 0.71993 0.0
C1766 C 0.82784 0.41547 0.72699 0.0
C1767 C 0.84284 0.38805 0.76625 0.0
C1768 C 0.84154 0.4036 0.75574 0.0
C1769 C 0.83894 0.4492 0.72426 0.0
C1770 C 0.83942 0.43339 0.73561 0.0
H1771 H 0.87478 0.37712 0.78462 0.0
H1772 H 0.87249 0.402 0.76526 0.0
H1773 H 0.81996 0.38712 0.72975 0.0
H1774 H 0.80895 0.46095 0.7 0.0
H1775 H 0.80938 0.43541 0.72053 0.0
loop_
_geom_bond_atom_site_label_1
_geom_bond_atom_site_label_2
_geom_bond_distance
_geom_bond_site_symmetry_2
_ccdc_geom_bond_type
Mg0 O1 2.028 . S
Mg0 O7 1.986 . S
Mg0 O9 2.114 . S
Mg0 O10 2.251 . S
Mg0 O13 2.010 . S
O1 Mg0 2.028 . S
O1 C4 1.250 . S
O2 Mg3 2.028 . S
O2 C4 1.248 . S
Mg3 O2 2.028 . S
Mg3 O8 2.032 . S
Mg3 O10 2.079 . S
C4 O1 1.250 . S
C4 O2 1.248 . S
C5 O6 1.264 . S
C5 O13 1.249 . S
O6 C5 1.264 . S
O7 Mg0 1.986 . S
O7 C11 1.246 . S
O8 Mg3 2.032 . S
O8 C11 1.259 . S
O9 Mg0 2.114 . S
O9 C12 1.252 . S
O10 Mg0 2.251 . S
O10 Mg3 2.079 . S
O10 C12 1.273 . S
C11 O7 1.246 . S
C11 O8 1.259 . S
C12 O9 1.252 . S
C12 O10 1.273 . S
O13 Mg0 2.010 . S
O13 C5 1.249 . S
Mg14 O15 2.028 . S
Mg14 O21 1.986 . S
Mg14 O23 2.114 . S
Mg14 O24 2.251 . S
Mg14 O27 2.010 . S
O15 Mg14 2.028 . S
O15 C18 1.250 . S
O16 Mg17 2.028 . S
O16 C18 1.248 . S
Mg17 O16 2.028 . S
Mg17 O22 2.032 . S
Mg17 O24 2.079 . S
C18 O15 1.250 . S
C18 O16 1.248 . S
C19 O20 1.264 . S
C19 O27 1.249 . S
O20 C19 1.264 . S
O21 Mg14 1.986 . S
O21 C25 1.246 . S
O22 Mg17 2.032 . S
O22 C25 1.259 . S
O23 Mg14 2.114 . S
O23 C26 1.252 . S
O24 Mg14 2.251 . S
O24 Mg17 2.079 . S
O24 C26 1.273 . S
C25 O21 1.246 . S
C25 O22 1.259 . S
C26 O23 1.252 . S
C26 O24 1.273 . S
O27 Mg14 2.010 . S
O27 C19 1.249 . S
Mg28 O29 2.028 . S
Mg28 O35 1.986 . S
Mg28 O37 2.114 . S
Mg28 O38 2.251 . S
Mg28 O41 2.010 . S
O29 Mg28 2.028 . S
O29 C32 1.250 . S
O30 Mg31 2.028 . S
O30 C32 1.248 . S
Mg31 O30 2.028 . S
Mg31 O36 2.032 . S
Mg31 O38 2.079 . S
C32 O29 1.250 . S
C32 O30 1.248 . S
C33 O34 1.264 . S
C33 O41 1.249 . S
O34 C33 1.264 . S
O35 Mg28 1.986 . S
O35 C39 1.246 . S
O36 Mg31 2.032 . S
O36 C39 1.259 . S
O37 Mg28 2.114 . S
O37 C40 1.252 . S
O38 Mg28 2.251 . S
O38 Mg31 2.079 . S
O38 C40 1.273 . S
C39 O35 1.246 . S
C39 O36 1.259 . S
C40 O37 1.252 . S
C40 O38 1.273 . S
O41 Mg28 2.010 . S
O41 C33 1.249 . S
Mg42 O43 2.028 . S
Mg42 O49 1.986 . S
Mg42 O51 2.114 . S
Mg42 O52 2.251 . S
Mg42 O55 2.010 . S
O43 Mg42 2.028 . S
O43 C46 1.250 . S
O44 Mg45 2.028 . S
O44 C46 1.248 . S
Mg45 O44 2.028 . S
Mg45 O50 2.032 . S
Mg45 O52 2.079 . S
C46 O43 1.250 . S
C46 O44 1.248 . S
C47 O48 1.264 . S
C47 O55 1.249 . S
O48 C47 1.264 . S
O49 Mg42 1.986 . S
O49 C53 1.246 . S
O50 Mg45 2.032 . S
O50 C53 1.259 . S
O51 Mg42 2.114 . S
O51 C54 1.252 . S
O52 Mg42 2.251 . S
O52 Mg45 2.079 . S
O52 C54 1.273 . S
C53 O49 1.246 . S
C53 O50 1.259 . S
C54 O51 1.252 . S
C54 O52 1.273 . S
O55 Mg42 2.010 . S
O55 C47 1.249 . S
Mg56 O57 2.028 . S
Mg56 O63 1.986 . S
Mg56 O65 2.114 . S
Mg56 O66 2.251 . S
Mg56 O69 2.010 . S
O57 Mg56 2.028 . S
O57 C60 1.250 . S
O58 Mg59 2.028 . S
O58 C60 1.248 . S
Mg59 O58 2.028 . S
Mg59 O64 2.032 . S
Mg59 O66 2.079 . S
C60 O57 1.250 . S
C60 O58 1.248 . S
C61 O62 1.264 . S
C61 O69 1.249 . S
O62 C61 1.264 . S
O63 Mg56 1.986 . S
O63 C67 1.246 . S
O64 Mg59 2.032 . S
O64 C67 1.259 . S
O65 Mg56 2.114 . S
O65 C68 1.252 . S
O66 Mg56 2.251 . S
O66 Mg59 2.079 . S
O66 C68 1.273 . S
C67 O63 1.246 . S
C67 O64 1.259 . S
C68 O65 1.252 . S
C68 O66 1.273 . S
O69 Mg56 2.010 . S
O69 C61 1.249 . S
Mg70 O71 2.028 . S
Mg70 O77 1.986 . S
Mg70 O79 2.114 . S
Mg70 O80 2.251 . S
Mg70 O83 2.010 . S
O71 Mg70 2.028 . S
O71 C74 1.250 . S
O72 Mg73 2.028 . S
O72 C74 1.248 . S
Mg73 O72 2.028 . S
Mg73 O78 2.032 . S
Mg73 O80 2.079 . S
C74 O71 1.250 . S
C74 O72 1.248 . S
C75 O76 1.264 . S
C75 O83 1.249 . S
O76 C75 1.264 . S
O77 Mg70 1.986 . S
O77 C81 1.246 . S
O78 Mg73 2.032 . S
O78 C81 1.259 . S
O79 Mg70 2.114 . S
O79 C82 1.252 . S
O80 Mg70 2.251 . S
O80 Mg73 2.079 . S
O80 C82 1.273 . S
C81 O77 1.246 . S
C81 O78 1.259 . S
C82 O79 1.252 . S
C82 O80 1.273 . S
O83 Mg70 2.010 . S
O83 C75 1.249 . S
Mg84 O85 2.028 . S
Mg84 O91 1.986 . S
Mg84 O93 2.114 . S
Mg84 O94 2.251 . S
Mg84 O97 2.010 . S
O85 Mg84 2.028 . S
O85 C88 1.250 . S
O86 Mg87 2.028 . S
O86 C88 1.248 . S
Mg87 O86 2.028 . S
Mg87 O92 2.032 . S
Mg87 O94 2.079 . S
C88 O85 1.250 . S
C88 O86 1.248 . S
C89 O90 1.264 . S
C89 O97 1.249 . S
O90 C89 1.264 . S
O91 Mg84 1.986 . S
O91 C95 1.246 . S
O92 Mg87 2.032 . S
O92 C95 1.259 . S
O93 Mg84 2.114 . S
O93 C96 1.252 . S
O94 Mg84 2.251 . S
O94 Mg87 2.079 . S
O94 C96 1.273 . S
C95 O91 1.246 . S
C95 O92 1.259 . S
C96 O93 1.252 . S
C96 O94 1.273 . S
O97 Mg84 2.010 . S
O97 C89 1.249 . S
Mg98 O99 2.028 . S
Mg98 O105 1.986 . S
Mg98 O107 2.114 . S
Mg98 O108 2.251 . S
Mg98 O111 2.010 . S
O99 Mg98 2.028 . S
O99 C102 1.250 . S
O100 Mg101 2.028 . S
O100 C102 1.248 . S
Mg101 O100 2.028 . S
Mg101 O106 2.032 . S
Mg101 O108 2.079 . S
C102 O99 1.250 . S
C102 O100 1.248 . S
C103 O104 1.264 . S
C103 O111 1.249 . S
O104 C103 1.264 . S
O105 Mg98 1.986 . S
O105 C109 1.246 . S
O106 Mg101 2.032 . S
O106 C109 1.259 . S
O107 Mg98 2.114 . S
O107 C110 1.252 . S
O108 Mg98 2.251 . S
O108 Mg101 2.079 . S
O108 C110 1.273 . S
C109 O105 1.246 . S
C109 O106 1.259 . S
C110 O107 1.252 . S
C110 O108 1.273 . S
O111 Mg98 2.010 . S
O111 C103 1.249 . S
Mg112 O113 2.028 . S
Mg112 O119 1.986 . S
Mg112 O121 2.114 . S
Mg112 O122 2.251 . S
Mg112 O125 2.010 . S
O113 Mg112 2.028 . S
O113 C116 1.250 . S
O114 Mg115 2.028 . S
O114 C116 1.248 . S
Mg115 O114 2.028 . S
Mg115 O120 2.032 . S
Mg115 O122 2.079 . S
C116 O113 1.250 . S
C116 O114 1.248 . S
C117 O118 1.264 . S
C117 O125 1.249 . S
O118 C117 1.264 . S
O119 Mg112 1.986 . S
O119 C123 1.246 . S
O120 Mg115 2.032 . S
O120 C123 1.259 . S
O121 Mg112 2.114 . S
O121 C124 1.252 . S
O122 Mg112 2.251 . S
O122 Mg115 2.079 . S
O122 C124 1.273 . S
C123 O119 1.246 . S
C123 O120 1.259 . S
C124 O121 1.252 . S
C124 O122 1.273 . S
O125 Mg112 2.010 . S
O125 C117 1.249 . S
Mg126 O127 2.028 . S
Mg126 O133 1.986 . S
Mg126 O135 2.114 . S
Mg126 O136 2.251 . S
Mg126 O139 2.010 . S
O127 Mg126 2.028 . S
O127 C130 1.250 . S
O128 Mg129 2.028 . S
O128 C130 1.248 . S
Mg129 O128 2.028 . S
Mg129 O134 2.032 . S
Mg129 O136 2.079 . S
C130 O127 1.250 . S
C130 O128 1.248 . S
C131 O132 1.264 . S
C131 O139 1.249 . S
O132 C131 1.264 . S
O133 Mg126 1.986 . S
O133 C137 1.246 . S
O134 Mg129 2.032 . S
O134 C137 1.259 . S
O135 Mg126 2.114 . S
O135 C138 1.252 . S
O136 Mg126 2.251 . S
O136 Mg129 2.079 . S
O136 C138 1.273 . S
C137 O133 1.246 . S
C137 O134 1.259 . S
C138 O135 1.252 . S
C138 O136 1.273 . S
O139 Mg126 2.010 . S
O139 C131 1.249 . S
Mg140 O141 2.028 . S
Mg140 O147 1.986 . S
Mg140 O149 2.114 . S
Mg140 O150 2.251 . S
Mg140 O153 2.010 . S
O141 Mg140 2.028 . S
O141 C144 1.250 . S
O142 Mg143 2.028 . S
O142 C144 1.248 . S
Mg143 O142 2.028 . S
Mg143 O148 2.032 . S
Mg143 O150 2.079 . S
C144 O141 1.250 . S
C144 O142 1.248 . S
C145 O146 1.264 . S
C145 O153 1.249 . S
O146 C145 1.264 . S
O147 Mg140 1.986 . S
O147 C151 1.246 . S
O148 Mg143 2.032 . S
O148 C151 1.259 . S
O149 Mg140 2.114 . S
O149 C152 1.252 . S
O150 Mg140 2.251 . S
O150 Mg143 2.079 . S
O150 C152 1.273 . S
C151 O147 1.246 . S
C151 O148 1.259 . S
C152 O149 1.252 . S
C152 O150 1.273 . S
O153 Mg140 2.010 . S
O153 C145 1.249 . S
Mg154 O155 2.028 . S
Mg154 O161 1.986 . S
Mg154 O163 2.114 . S
Mg154 O164 2.251 . S
Mg154 O167 2.010 . S
O155 Mg154 2.028 . S
O155 C158 1.250 . S
O156 Mg157 2.028 . S
O156 C158 1.248 . S
Mg157 O156 2.028 . S
Mg157 O162 2.032 . S
Mg157 O164 2.079 . S
C158 O155 1.250 . S
C158 O156 1.248 . S
C159 O160 1.264 . S
C159 O167 1.249 . S
O160 C159 1.264 . S
O161 Mg154 1.986 . S
O161 C165 1.246 . S
O162 Mg157 2.032 . S
O162 C165 1.259 . S
O163 Mg154 2.114 . S
O163 C166 1.252 . S
O164 Mg154 2.251 . S
O164 Mg157 2.079 . S
O164 C166 1.273 . S
C165 O161 1.246 . S
C165 O162 1.259 . S
C166 O163 1.252 . S
C166 O164 1.273 . S
O167 Mg154 2.010 . S
O167 C159 1.249 . S
Mg168 O169 2.028 . S
Mg168 O175 1.986 . S
Mg168 O177 2.114 . S
Mg168 O178 2.251 . S
Mg168 O181 2.010 . S
O169 Mg168 2.028 . S
O169 C172 1.250 . S
O170 Mg171 2.028 . S
O170 C172 1.248 . S
Mg171 O170 2.028 . S
Mg171 O176 2.032 . S
Mg171 O178 2.079 . S
C172 O169 1.250 . S
C172 O170 1.248 . S
C173 O174 1.264 . S
C173 O181 1.249 . S
O174 C173 1.264 . S
O175 Mg168 1.986 . S
O175 C179 1.246 . S
O176 Mg171 2.032 . S
O176 C179 1.259 . S
O177 Mg168 2.114 . S
O177 C180 1.252 . S
O178 Mg168 2.251 . S
O178 Mg171 2.079 . S
O178 C180 1.273 . S
C179 O175 1.246 . S
C179 O176 1.259 . S
C180 O177 1.252 . S
C180 O178 1.273 . S
O181 Mg168 2.010 . S
O181 C173 1.249 . S
Mg182 O183 2.028 . S
Mg182 O189 1.986 . S
Mg182 O191 2.114 . S
Mg182 O192 2.251 . S
Mg182 O195 2.010 . S
O183 Mg182 2.028 . S
O183 C186 1.250 . S
O184 Mg185 2.028 . S
O184 C186 1.248 . S
Mg185 O184 2.028 . S
Mg185 O190 2.032 . S
Mg185 O192 2.079 . S
C186 O183 1.250 . S
C186 O184 1.248 . S
C187 O188 1.264 . S
C187 O195 1.249 . S
O188 C187 1.264 . S
O189 Mg182 1.986 . S
O189 C193 1.246 . S
O190 Mg185 2.032 . S
O190 C193 1.259 . S
O191 Mg182 2.114 . S
O191 C194 1.252 . S
O192 Mg182 2.251 . S
O192 Mg185 2.079 . S
O192 C194 1.273 . S
C193 O189 1.246 . S
C193 O190 1.259 . S
C194 O191 1.252 . S
C194 O192 1.273 . S
O195 Mg182 2.010 . S
O195 C187 1.249 . S
Mg196 O197 2.028 . S
Mg196 O203 1.986 . S
Mg196 O205 2.114 . S
Mg196 O206 2.251 . S
Mg196 O209 2.010 . S
O197 Mg196 2.028 . S
O197 C200 1.250 . S
O198 Mg199 2.028 . S
O198 C200 1.248 . S
Mg199 O198 2.028 . S
Mg199 O204 2.032 . S
Mg199 O206 2.079 . S
C200 O197 1.250 . S
C200 O198 1.248 . S
C201 O202 1.264 . S
C201 O209 1.249 . S
O202 C201 1.264 . S
O203 Mg196 1.986 . S
O203 C207 1.246 . S
O204 Mg199 2.032 . S
O204 C207 1.259 . S
O205 Mg196 2.114 . S
O205 C208 1.252 . S
O206 Mg196 2.251 . S
O206 Mg199 2.079 . S
O206 C208 1.273 . S
C207 O203 1.246 . S
C207 O204 1.259 . S
C208 O205 1.252 . S
C208 O206 1.273 . S
O209 Mg196 2.010 . S
O209 C201 1.249 . S
Mg210 O211 2.028 . S
Mg210 O217 1.986 . S
Mg210 O219 2.114 . S
Mg210 O220 2.251 . S
Mg210 O223 2.010 . S
O211 Mg210 2.028 . S
O211 C214 1.250 . S
O212 Mg213 2.028 . S
O212 C214 1.248 . S
Mg213 O212 2.028 . S
Mg213 O218 2.032 . S
Mg213 O220 2.079 . S
C214 O211 1.250 . S
C214 O212 1.248 . S
C215 O216 1.264 . S
C215 O223 1.249 . S
O216 C215 1.264 . S
O217 Mg210 1.986 . S
O217 C221 1.246 . S
O218 Mg213 2.032 . S
O218 C221 1.259 . S
O219 Mg210 2.114 . S
O219 C222 1.252 . S
O220 Mg210 2.251 . S
O220 Mg213 2.079 . S
O220 C222 1.273 . S
C221 O217 1.246 . S
C221 O218 1.259 . S
C222 O219 1.252 . S
C222 O220 1.273 . S
O223 Mg210 2.010 . S
O223 C215 1.249 . S
Mg224 O225 2.028 . S
Mg224 O231 1.986 . S
Mg224 O233 2.114 . S
Mg224 O234 2.251 . S
Mg224 O237 2.010 . S
O225 Mg224 2.028 . S
O225 C228 1.250 . S
O226 Mg227 2.028 . S
O226 C228 1.248 . S
Mg227 O226 2.028 . S
Mg227 O232 2.032 . S
Mg227 O234 2.079 . S
C228 O225 1.250 . S
C228 O226 1.248 . S
C229 O230 1.264 . S
C229 O237 1.249 . S
O230 C229 1.264 . S
O231 Mg224 1.986 . S
O231 C235 1.246 . S
O232 Mg227 2.032 . S
O232 C235 1.259 . S
O233 Mg224 2.114 . S
O233 C236 1.252 . S
O234 Mg224 2.251 . S
O234 Mg227 2.079 . S
O234 C236 1.273 . S
C235 O231 1.246 . S
C235 O232 1.259 . S
C236 O233 1.252 . S
C236 O234 1.273 . S
O237 Mg224 2.010 . S
O237 C229 1.249 . S
Mg238 O239 2.028 . S
Mg238 O245 1.986 . S
Mg238 O247 2.114 . S
Mg238 O248 2.251 . S
Mg238 O251 2.010 . S
O239 Mg238 2.028 . S
O239 C242 1.250 . S
O240 Mg241 2.028 . S
O240 C242 1.248 . S
Mg241 O240 2.028 . S
Mg241 O246 2.032 . S
Mg241 O248 2.079 . S
C242 O239 1.250 . S
C242 O240 1.248 . S
C243 O244 1.264 . S
C243 O251 1.249 . S
O244 C243 1.264 . S
O245 Mg238 1.986 . S
O245 C249 1.246 . S
O246 Mg241 2.032 . S
O246 C249 1.259 . S
O247 Mg238 2.114 . S
O247 C250 1.252 . S
O248 Mg238 2.251 . S
O248 Mg241 2.079 . S
O248 C250 1.273 . S
C249 O245 1.246 . S
C249 O246 1.259 . S
C250 O247 1.252 . S
C250 O248 1.273 . S
O251 Mg238 2.010 . S
O251 C243 1.249 . S
Mg252 O253 2.028 . S
Mg252 O259 1.986 . S
Mg252 O261 2.114 . S
Mg252 O262 2.251 . S
Mg252 O265 2.010 . S
O253 Mg252 2.028 . S
O253 C256 1.250 . S
O254 Mg255 2.028 . S
O254 C256 1.248 . S
Mg255 O254 2.028 . S
Mg255 O260 2.032 . S
Mg255 O262 2.079 . S
C256 O253 1.250 . S
C256 O254 1.248 . S
C257 O258 1.264 . S
C257 O265 1.249 . S
O258 C257 1.264 . S
O259 Mg252 1.986 . S
O259 C263 1.246 . S
O260 Mg255 2.032 . S
O260 C263 1.259 . S
O261 Mg252 2.114 . S
O261 C264 1.252 . S
O262 Mg252 2.251 . S
O262 Mg255 2.079 . S
O262 C264 1.273 . S
C263 O259 1.246 . S
C263 O260 1.259 . S
C264 O261 1.252 . S
C264 O262 1.273 . S
O265 Mg252 2.010 . S
O265 C257 1.249 . S
Mg266 O267 2.028 . S
Mg266 O273 1.986 . S
Mg266 O275 2.114 . S
Mg266 O276 2.251 . S
Mg266 O279 2.010 . S
O267 Mg266 2.028 . S
O267 C270 1.250 . S
O268 Mg269 2.028 . S
O268 C270 1.248 . S
Mg269 O268 2.028 . S
Mg269 O274 2.032 . S
Mg269 O276 2.079 . S
C270 O267 1.250 . S
C270 O268 1.248 . S
C271 O272 1.264 . S
C271 O279 1.249 . S
O272 C271 1.264 . S
O273 Mg266 1.986 . S
O273 C277 1.246 . S
O274 Mg269 2.032 . S
O274 C277 1.259 . S
O275 Mg266 2.114 . S
O275 C278 1.252 . S
O276 Mg266 2.251 . S
O276 Mg269 2.079 . S
O276 C278 1.273 . S
C277 O273 1.246 . S
C277 O274 1.259 . S
C278 O275 1.252 . S
C278 O276 1.273 . S
O279 Mg266 2.010 . S
O279 C271 1.249 . S
Mg280 O281 2.028 . S
Mg280 O287 1.986 . S
Mg280 O289 2.114 . S
Mg280 O290 2.251 . S
Mg280 O293 2.010 . S
O281 Mg280 2.028 . S
O281 C284 1.250 . S
O282 Mg283 2.028 . S
O282 C284 1.248 . S
Mg283 O282 2.028 . S
Mg283 O288 2.032 . S
Mg283 O290 2.079 . S
C284 O281 1.250 . S
C284 O282 1.248 . S
C285 O286 1.264 . S
C285 O293 1.249 . S
O286 C285 1.264 . S
O287 Mg280 1.986 . S
O287 C291 1.246 . S
O288 Mg283 2.032 . S
O288 C291 1.259 . S
O289 Mg280 2.114 . S
O289 C292 1.252 . S
O290 Mg280 2.251 . S
O290 Mg283 2.079 . S
O290 C292 1.273 . S
C291 O287 1.246 . S
C291 O288 1.259 . S
C292 O289 1.252 . S
C292 O290 1.273 . S
O293 Mg280 2.010 . S
O293 C285 1.249 . S
Mg294 O295 2.028 . S
Mg294 O301 1.986 . S
Mg294 O303 2.114 . S
Mg294 O304 2.251 . S
Mg294 O307 2.010 . S
O295 Mg294 2.028 . S
O295 C298 1.250 . S
O296 Mg297 2.028 . S
O296 C298 1.248 . S
Mg297 O296 2.028 . S
Mg297 O302 2.032 . S
Mg297 O304 2.079 . S
C298 O295 1.250 . S
C298 O296 1.248 . S
C299 O300 1.264 . S
C299 O307 1.249 . S
O300 C299 1.264 . S
O301 Mg294 1.986 . S
O301 C305 1.246 . S
O302 Mg297 2.032 . S
O302 C305 1.259 . S
O303 Mg294 2.114 . S
O303 C306 1.252 . S
O304 Mg294 2.251 . S
O304 Mg297 2.079 . S
O304 C306 1.273 . S
C305 O301 1.246 . S
C305 O302 1.259 . S
C306 O303 1.252 . S
C306 O304 1.273 . S
O307 Mg294 2.010 . S
O307 C299 1.249 . S
Mg308 O309 2.028 . S
Mg308 O315 1.986 . S
Mg308 O317 2.114 . S
Mg308 O318 2.251 . S
Mg308 O321 2.010 . S
O309 Mg308 2.028 . S
O309 C312 1.250 . S
O310 Mg311 2.028 . S
O310 C312 1.248 . S
Mg311 O310 2.028 . S
Mg311 O316 2.032 . S
Mg311 O318 2.079 . S
C312 O309 1.250 . S
C312 O310 1.248 . S
C313 O314 1.264 . S
C313 O321 1.249 . S
O314 C313 1.264 . S
O315 Mg308 1.986 . S
O315 C319 1.246 . S
O316 Mg311 2.032 . S
O316 C319 1.259 . S
O317 Mg308 2.114 . S
O317 C320 1.252 . S
O318 Mg308 2.251 . S
O318 Mg311 2.079 . S
O318 C320 1.273 . S
C319 O315 1.246 . S
C319 O316 1.259 . S
C320 O317 1.252 . S
C320 O318 1.273 . S
O321 Mg308 2.010 . S
O321 C313 1.249 . S
Mg322 O323 2.028 . S
Mg322 O329 1.986 . S
Mg322 O331 2.114 . S
Mg322 O332 2.251 . S
Mg322 O335 2.010 . S
O323 Mg322 2.028 . S
O323 C326 1.250 . S
O324 Mg325 2.028 . S
O324 C326 1.248 . S
Mg325 O324 2.028 . S
Mg325 O330 2.032 . S
Mg325 O332 2.079 . S
C326 O323 1.250 . S
C326 O324 1.248 . S
C327 O328 1.264 . S
C327 O335 1.249 . S
O328 C327 1.264 . S
O329 Mg322 1.986 . S
O329 C333 1.246 . S
O330 Mg325 2.032 . S
O330 C333 1.259 . S
O331 Mg322 2.114 . S
O331 C334 1.252 . S
O332 Mg322 2.251 . S
O332 Mg325 2.079 . S
O332 C334 1.273 . S
C333 O329 1.246 . S
C333 O330 1.259 . S
C334 O331 1.252 . S
C334 O332 1.273 . S
O335 Mg322 2.010 . S
O335 C327 1.249 . S
C336 C337 1.349 . S
C336 C338 1.327 . S
C336 H361 0.950 . S
C337 C336 1.349 . S
C337 C353 1.349 . S
C338 C336 1.327 . S
C338 C357 1.429 . S
C338 H362 0.950 . S
C339 C356 1.574 1_545 S
C339 C358 1.368 . S
C339 H363 0.949 . S
H340 C344 0.949 . S
C341 C342 1.349 . S
C341 C343 1.327 . S
C341 H364 0.950 . S
C342 C341 1.349 . S
C342 C354 1.349 . S
C343 C341 1.327 . S
C343 C359 1.429 . S
C343 H365 0.950 . S
C344 H340 0.949 . S
C344 C352 1.574 1_565 S
C344 C360 1.368 . S
H345 C353 0.950 . S
H346 C351 0.950 . S
H347 C352 0.949 . S
H348 C354 0.950 . S
H349 C355 0.950 . S
H350 C356 0.949 . S
C351 H346 0.950 . S
C351 C353 1.327 . S
C351 C357 1.429 . S
C352 C344 1.574 1_545 S
C352 H347 0.949 . S
C352 C358 1.368 . S
C353 C337 1.349 . S
C353 H345 0.950 . S
C353 C351 1.327 . S
C354 C342 1.349 . S
C354 H348 0.950 . S
C354 C355 1.327 . S
C355 H349 0.950 . S
C355 C354 1.327 . S
C355 C359 1.429 . S
C356 C339 1.574 1_565 S
C356 H350 0.949 . S
C356 C360 1.368 . S
C357 C338 1.429 . S
C357 C351 1.429 . S
C357 C358 1.523 . S
C358 C339 1.368 . S
C358 C352 1.368 . S
C358 C357 1.523 . S
C359 C343 1.429 . S
C359 C355 1.429 . S
C359 C360 1.523 . S
C360 C344 1.368 . S
C360 C356 1.368 . S
C360 C359 1.523 . S
H361 C336 0.950 . S
H362 C338 0.950 . S
H363 C339 0.949 . S
H364 C341 0.950 . S
H365 C343 0.950 . S
C366 C367 1.349 . S
C366 C368 1.327 . S
C366 H391 0.950 . S
C367 C366 1.349 . S
C367 C383 1.349 . S
C368 C366 1.327 . S
C368 C387 1.429 . S
C368 H392 0.950 . S
C369 C386 1.574 . S
C369 C388 1.368 . S
C369 H393 0.949 . S
H370 C374 0.949 . S
C371 C372 1.349 . S
C371 C373 1.327 . S
C371 H394 0.950 . S
C372 C371 1.349 . S
C372 C384 1.349 . S
C373 C371 1.327 . S
C373 C389 1.429 . S
C373 H395 0.950 . S
C374 H370 0.949 . S
C374 C382 1.574 . S
C374 C390 1.368 . S
H375 C383 0.950 . S
H376 C381 0.950 . S
H377 C382 0.949 . S
H378 C384 0.950 . S
H379 C385 0.950 . S
H380 C386 0.949 . S
C381 H376 0.950 . S
C381 C383 1.327 . S
C381 C387 1.429 . S
C382 C374 1.574 . S
C382 H377 0.949 . S
C382 C388 1.368 . S
C383 C367 1.349 . S
C383 H375 0.950 . S
C383 C381 1.327 . S
C384 C372 1.349 . S
C384 H378 0.950 . S
C384 C385 1.327 . S
C385 H379 0.950 . S
C385 C384 1.327 . S
C385 C389 1.429 . S
C386 C369 1.574 . S
C386 H380 0.949 . S
C386 C390 1.368 . S
C387 C368 1.429 . S
C387 C381 1.429 . S
C387 C388 1.523 . S
C388 C369 1.368 . S
C388 C382 1.368 . S
C388 C387 1.523 . S
C389 C373 1.429 . S
C389 C385 1.429 . S
C389 C390 1.523 . S
C390 C374 1.368 . S
C390 C386 1.368 . S
C390 C389 1.523 . S
H391 C366 0.950 . S
H392 C368 0.950 . S
H393 C369 0.949 . S
H394 C371 0.950 . S
H395 C373 0.950 . S
C396 C397 1.349 . S
C396 C398 1.327 . S
C396 H421 0.950 . S
C397 C396 1.349 . S
C397 C413 1.349 . S
C398 C396 1.327 . S
C398 C417 1.429 . S
C398 H422 0.950 . S
C399 C416 1.574 1_655 S
C399 C418 1.368 . S
C399 H423 0.949 . S
H400 C404 0.949 . S
C401 C402 1.349 . S
C401 C403 1.327 . S
C401 H424 0.950 . S
C402 C401 1.349 . S
C402 C414 1.349 . S
C403 C401 1.327 . S
C403 C419 1.429 . S
C403 H425 0.950 . S
C404 H400 0.949 . S
C404 C412 1.574 1_455 S
C404 C420 1.368 . S
H405 C413 0.950 . S
H406 C411 0.950 . S
H407 C412 0.949 . S
H408 C414 0.950 . S
H409 C415 0.950 . S
H410 C416 0.949 . S
C411 H406 0.950 . S
C411 C413 1.327 . S
C411 C417 1.429 . S
C412 C404 1.574 1_655 S
C412 H407 0.949 . S
C412 C418 1.368 . S
C413 C397 1.349 . S
C413 H405 0.950 . S
C413 C411 1.327 . S
C414 C402 1.349 . S
C414 H408 0.950 . S
C414 C415 1.327 . S
C415 H409 0.950 . S
C415 C414 1.327 . S
C415 C419 1.429 . S
C416 C399 1.574 1_455 S
C416 H410 0.949 . S
C416 C420 1.368 . S
C417 C398 1.429 . S
C417 C411 1.429 . S
C417 C418 1.523 . S
C418 C399 1.368 . S
C418 C412 1.368 . S
C418 C417 1.523 . S
C419 C403 1.429 . S
C419 C415 1.429 . S
C419 C420 1.523 . S
C420 C404 1.368 . S
C420 C416 1.368 . S
C420 C419 1.523 . S
H421 C396 0.950 . S
H422 C398 0.950 . S
H423 C399 0.949 . S
H424 C401 0.950 . S
H425 C403 0.950 . S
C426 C427 1.349 . S
C426 C428 1.327 . S
C426 H451 0.950 . S
C427 C426 1.349 . S
C427 C443 1.349 . S
C428 C426 1.327 . S
C428 C447 1.429 . S
C428 H452 0.950 . S
C429 C446 1.574 1_565 S
C429 C448 1.368 . S
C429 H453 0.949 . S
H430 C434 0.949 . S
C431 C432 1.349 . S
C431 C433 1.327 . S
C431 H454 0.950 . S
C432 C431 1.349 . S
C432 C444 1.349 . S
C433 C431 1.327 . S
C433 C449 1.429 . S
C433 H455 0.950 . S
C434 H430 0.949 . S
C434 C442 1.574 1_545 S
C434 C450 1.368 . S
H435 C443 0.950 . S
H436 C441 0.950 . S
H437 C442 0.949 . S
H438 C444 0.950 . S
H439 C445 0.950 . S
H440 C446 0.949 . S
C441 H436 0.950 . S
C441 C443 1.327 . S
C441 C447 1.429 . S
C442 C434 1.574 1_565 S
C442 H437 0.949 . S
C442 C448 1.368 . S
C443 C427 1.349 . S
C443 H435 0.950 . S
C443 C441 1.327 . S
C444 C432 1.349 . S
C444 H438 0.950 . S
C444 C445 1.327 . S
C445 H439 0.950 . S
C445 C444 1.327 . S
C445 C449 1.429 . S
C446 C429 1.574 1_545 S
C446 H440 0.949 . S
C446 C450 1.368 . S
C447 C428 1.429 . S
C447 C441 1.429 . S
C447 C448 1.523 . S
C448 C429 1.368 . S
C448 C442 1.368 . S
C448 C447 1.523 . S
C449 C433 1.429 . S
C449 C445 1.429 . S
C449 C450 1.523 . S
C450 C434 1.368 . S
C450 C446 1.368 . S
C450 C449 1.523 . S
H451 C426 0.950 . S
H452 C428 0.950 . S
H453 C429 0.949 . S
H454 C431 0.950 . S
H455 C433 0.950 . S
C456 C457 1.349 . S
C456 C458 1.327 . S
C456 H481 0.950 . S
C457 C456 1.349 . S
C457 C473 1.349 . S
C458 C456 1.327 . S
C458 C477 1.429 . S
C458 H482 0.950 . S
C459 C476 1.574 . S
C459 C478 1.368 . S
C459 H483 0.949 . S
H460 C464 0.949 . S
C461 C462 1.349 . S
C461 C463 1.327 . S
C461 H484 0.950 . S
C462 C461 1.349 . S
C462 C474 1.349 . S
C463 C461 1.327 . S
C463 C479 1.429 . S
C463 H485 0.950 . S
C464 H460 0.949 . S
C464 C472 1.574 . S
C464 C480 1.368 . S
H465 C473 0.950 . S
H466 C471 0.950 . S
H467 C472 0.949 . S
H468 C474 0.950 . S
H469 C475 0.950 . S
H470 C476 0.949 . S
C471 H466 0.950 . S
C471 C473 1.327 . S
C471 C477 1.429 . S
C472 C464 1.574 . S
C472 H467 0.949 . S
C472 C478 1.368 . S
C473 C457 1.349 . S
C473 H465 0.950 . S
C473 C471 1.327 . S
C474 C462 1.349 . S
C474 H468 0.950 . S
C474 C475 1.327 . S
C475 H469 0.950 . S
C475 C474 1.327 . S
C475 C479 1.429 . S
C476 C459 1.574 . S
C476 H470 0.949 . S
C476 C480 1.368 . S
C477 C458 1.429 . S
C477 C471 1.429 . S
C477 C478 1.523 . S
C478 C459 1.368 . S
C478 C472 1.368 . S
C478 C477 1.523 . S
C479 C463 1.429 . S
C479 C475 1.429 . S
C479 C480 1.523 . S
C480 C464 1.368 . S
C480 C476 1.368 . S
C480 C479 1.523 . S
H481 C456 0.950 . S
H482 C458 0.950 . S
H483 C459 0.949 . S
H484 C461 0.950 . S
H485 C463 0.950 . S
C486 C487 1.349 . S
C486 C488 1.327 . S
C486 H511 0.950 . S
C487 C486 1.349 . S
C487 C503 1.349 . S
C488 C486 1.327 . S
C488 C507 1.429 . S
C488 H512 0.950 . S
C489 C506 1.574 1_455 S
C489 C508 1.368 . S
C489 H513 0.949 . S
H490 C494 0.949 . S
C491 C492 1.349 . S
C491 C493 1.327 . S
C491 H514 0.950 . S
C492 C491 1.349 . S
C492 C504 1.349 . S
C493 C491 1.327 . S
C493 C509 1.429 . S
C493 H515 0.950 . S
C494 H490 0.949 . S
C494 C502 1.574 1_655 S
C494 C510 1.368 . S
H495 C503 0.950 . S
H496 C501 0.950 . S
H497 C502 0.949 . S
H498 C504 0.950 . S
H499 C505 0.950 . S
H500 C506 0.949 . S
C501 H496 0.950 . S
C501 C503 1.327 . S
C501 C507 1.429 . S
C502 C494 1.574 1_455 S
C502 H497 0.949 . S
C502 C508 1.368 . S
C503 C487 1.349 . S
C503 H495 0.950 . S
C503 C501 1.327 . S
C504 C492 1.349 . S
C504 H498 0.950 . S
C504 C505 1.327 . S
C505 H499 0.950 . S
C505 C504 1.327 . S
C505 C509 1.429 . S
C506 C489 1.574 1_655 S
C506 H500 0.949 . S
C506 C510 1.368 . S
C507 C488 1.429 . S
C507 C501 1.429 . S
C507 C508 1.523 . S
C508 C489 1.368 . S
C508 C502 1.368 . S
C508 C507 1.523 . S
C509 C493 1.429 . S
C509 C505 1.429 . S
C509 C510 1.523 . S
C510 C494 1.368 . S
C510 C506 1.368 . S
C510 C509 1.523 . S
H511 C486 0.950 . S
H512 C488 0.950 . S
H513 C489 0.949 . S
H514 C491 0.950 . S
H515 C493 0.950 . S
C516 C517 1.349 . S
C516 C518 1.327 . S
C516 H541 0.950 . S
C517 C516 1.349 . S
C517 C533 1.349 . S
C518 C516 1.327 . S
C518 C537 1.429 . S
C518 H542 0.950 . S
C519 C536 1.574 1_565 S
C519 C538 1.368 . S
C519 H543 0.949 . S
H520 C524 0.949 . S
C521 C522 1.349 . S
C521 C523 1.327 . S
C521 H544 0.950 . S
C522 C521 1.349 . S
C522 C534 1.349 . S
C523 C521 1.327 . S
C523 C539 1.429 . S
C523 H545 0.950 . S
C524 H520 0.949 . S
C524 C532 1.574 1_545 S
C524 C540 1.368 . S
H525 C533 0.950 . S
H526 C531 0.950 . S
H527 C532 0.949 . S
H528 C534 0.950 . S
H529 C535 0.950 . S
H530 C536 0.949 . S
C531 H526 0.950 . S
C531 C533 1.327 . S
C531 C537 1.429 . S
C532 C524 1.574 1_565 S
C532 H527 0.949 . S
C532 C538 1.368 . S
C533 C517 1.349 . S
C533 H525 0.950 . S
C533 C531 1.327 . S
C534 C522 1.349 . S
C534 H528 0.950 . S
C534 C535 1.327 . S
C535 H529 0.950 . S
C535 C534 1.327 . S
C535 C539 1.429 . S
C536 C519 1.574 1_545 S
C536 H530 0.949 . S
C536 C540 1.368 . S
C537 C518 1.429 . S
C537 C531 1.429 . S
C537 C538 1.523 . S
C538 C519 1.368 . S
C538 C532 1.368 . S
C538 C537 1.523 . S
C539 C523 1.429 . S
C539 C535 1.429 . S
C539 C540 1.523 . S
C540 C524 1.368 . S
C540 C536 1.368 . S
C540 C539 1.523 . S
H541 C516 0.950 . S
H542 C518 0.950 . S
H543 C519 0.949 . S
H544 C521 0.950 . S
H545 C523 0.950 . S
C546 C547 1.349 . S
C546 C548 1.327 . S
C546 H571 0.950 . S
C547 C546 1.349 . S
C547 C563 1.349 . S
C548 C546 1.327 . S
C548 C567 1.429 . S
C548 H572 0.950 . S
C549 C566 1.574 . S
C549 C568 1.368 . S
C549 H573 0.949 . S
H550 C554 0.949 . S
C551 C552 1.349 . S
C551 C553 1.327 . S
C551 H574 0.950 . S
C552 C551 1.349 . S
C552 C564 1.349 . S
C553 C551 1.327 . S
C553 C569 1.429 . S
C553 H575 0.950 . S
C554 H550 0.949 . S
C554 C562 1.574 . S
C554 C570 1.368 . S
H555 C563 0.950 . S
H556 C561 0.950 . S
H557 C562 0.949 . S
H558 C564 0.950 . S
H559 C565 0.950 . S
H560 C566 0.949 . S
C561 H556 0.950 . S
C561 C563 1.327 . S
C561 C567 1.429 . S
C562 C554 1.574 . S
C562 H557 0.949 . S
C562 C568 1.368 . S
C563 C547 1.349 . S
C563 H555 0.950 . S
C563 C561 1.327 . S
C564 C552 1.349 . S
C564 H558 0.950 . S
C564 C565 1.327 . S
C565 H559 0.950 . S
C565 C564 1.327 . S
C565 C569 1.429 . S
C566 C549 1.574 . S
C566 H560 0.949 . S
C566 C570 1.368 . S
C567 C548 1.429 . S
C567 C561 1.429 . S
C567 C568 1.523 . S
C568 C549 1.368 . S
C568 C562 1.368 . S
C568 C567 1.523 . S
C569 C553 1.429 . S
C569 C565 1.429 . S
C569 C570 1.523 . S
C570 C554 1.368 . S
C570 C566 1.368 . S
C570 C569 1.523 . S
H571 C546 0.950 . S
H572 C548 0.950 . S
H573 C549 0.949 . S
H574 C551 0.950 . S
H575 C553 0.950 . S
C576 C577 1.349 . S
C576 C578 1.327 . S
C576 H601 0.950 . S
C577 C576 1.349 . S
C577 C593 1.349 . S
C578 C576 1.327 . S
C578 C597 1.429 . S
C578 H602 0.950 . S
C579 C596 1.574 1_655 S
C579 C598 1.368 . S
C579 H603 0.949 . S
H580 C584 0.949 . S
C581 C582 1.349 . S
C581 C583 1.327 . S
C581 H604 0.950 . S
C582 C581 1.349 . S
C582 C594 1.349 . S
C583 C581 1.327 . S
C583 C599 1.429 . S
C583 H605 0.950 . S
C584 H580 0.949 . S
C584 C592 1.574 1_455 S
C584 C600 1.368 . S
H585 C593 0.950 . S
H586 C591 0.950 . S
H587 C592 0.949 . S
H588 C594 0.950 . S
H589 C595 0.950 . S
H590 C596 0.949 . S
C591 H586 0.950 . S
C591 C593 1.327 . S
C591 C597 1.429 . S
C592 C584 1.574 1_655 S
C592 H587 0.949 . S
C592 C598 1.368 . S
C593 C577 1.349 . S
C593 H585 0.950 . S
C593 C591 1.327 . S
C594 C582 1.349 . S
C594 H588 0.950 . S
C594 C595 1.327 . S
C595 H589 0.950 . S
C595 C594 1.327 . S
C595 C599 1.429 . S
C596 C579 1.574 1_455 S
C596 H590 0.949 . S
C596 C600 1.368 . S
C597 C578 1.429 . S
C597 C591 1.429 . S
C597 C598 1.523 . S
C598 C579 1.368 . S
C598 C592 1.368 . S
C598 C597 1.523 . S
C599 C583 1.429 . S
C599 C595 1.429 . S
C599 C600 1.523 . S
C600 C584 1.368 . S
C600 C596 1.368 . S
C600 C599 1.523 . S
H601 C576 0.950 . S
H602 C578 0.950 . S
H603 C579 0.949 . S
H604 C581 0.950 . S
H605 C583 0.950 . S
C606 C607 1.349 . S
C606 C608 1.327 . S
C606 H631 0.950 . S
C607 C606 1.349 . S
C607 C623 1.349 . S
C608 C606 1.327 . S
C608 C627 1.429 . S
C608 H632 0.950 . S
C609 C626 1.574 1_545 S
C609 C628 1.368 . S
C609 H633 0.949 . S
H610 C614 0.949 . S
C611 C612 1.349 . S
C611 C613 1.327 . S
C611 H634 0.950 . S
C612 C611 1.349 . S
C612 C624 1.349 . S
C613 C611 1.327 . S
C613 C629 1.429 . S
C613 H635 0.950 . S
C614 H610 0.949 . S
C614 C622 1.574 1_565 S
C614 C630 1.368 . S
H615 C623 0.950 . S
H616 C621 0.950 . S
H617 C622 0.949 . S
H618 C624 0.950 . S
H619 C625 0.950 . S
H620 C626 0.949 . S
C621 H616 0.950 . S
C621 C623 1.327 . S
C621 C627 1.429 . S
C622 C614 1.574 1_545 S
C622 H617 0.949 . S
C622 C628 1.368 . S
C623 C607 1.349 . S
C623 H615 0.950 . S
C623 C621 1.327 . S
C624 C612 1.349 . S
C624 H618 0.950 . S
C624 C625 1.327 . S
C625 H619 0.950 . S
C625 C624 1.327 . S
C625 C629 1.429 . S
C626 C609 1.574 1_565 S
C626 H620 0.949 . S
C626 C630 1.368 . S
C627 C608 1.429 . S
C627 C621 1.429 . S
C627 C628 1.523 . S
C628 C609 1.368 . S
C628 C622 1.368 . S
C628 C627 1.523 . S
C629 C613 1.429 . S
C629 C625 1.429 . S
C629 C630 1.523 . S
C630 C614 1.368 . S
C630 C626 1.368 . S
C630 C629 1.523 . S
H631 C606 0.950 . S
H632 C608 0.950 . S
H633 C609 0.949 . S
H634 C611 0.950 . S
H635 C613 0.950 . S
C636 C637 1.349 . S
C636 C638 1.327 . S
C636 H661 0.950 . S
C637 C636 1.349 . S
C637 C653 1.349 . S
C638 C636 1.327 . S
C638 C657 1.429 . S
C638 H662 0.950 . S
C639 C656 1.574 . S
C639 C658 1.368 . S
C639 H663 0.949 . S
H640 C644 0.949 . S
C641 C642 1.349 . S
C641 C643 1.327 . S
C641 H664 0.950 . S
C642 C641 1.349 . S
C642 C654 1.349 . S
C643 C641 1.327 . S
C643 C659 1.429 . S
C643 H665 0.950 . S
C644 H640 0.949 . S
C644 C652 1.574 . S
C644 C660 1.368 . S
H645 C653 0.950 . S
H646 C651 0.950 . S
H647 C652 0.949 . S
H648 C654 0.950 . S
H649 C655 0.950 . S
H650 C656 0.949 . S
C651 H646 0.950 . S
C651 C653 1.327 . S
C651 C657 1.429 . S
C652 C644 1.574 . S
C652 H647 0.949 . S
C652 C658 1.368 . S
C653 C637 1.349 . S
C653 H645 0.950 . S
C653 C651 1.327 . S
C654 C642 1.349 . S
C654 H648 0.950 . S
C654 C655 1.327 . S
C655 H649 0.950 . S
C655 C654 1.327 . S
C655 C659 1.429 . S
C656 C639 1.574 . S
C656 H650 0.949 . S
C656 C660 1.368 . S
C657 C638 1.429 . S
C657 C651 1.429 . S
C657 C658 1.523 . S
C658 C639 1.368 . S
C658 C652 1.368 . S
C658 C657 1.523 . S
C659 C643 1.429 . S
C659 C655 1.429 . S
C659 C660 1.523 . S
C660 C644 1.368 . S
C660 C656 1.368 . S
C660 C659 1.523 . S
H661 C636 0.950 . S
H662 C638 0.950 . S
H663 C639 0.949 . S
H664 C641 0.950 . S
H665 C643 0.950 . S
C666 C667 1.349 . S
C666 C668 1.327 . S
C666 H691 0.950 . S
C667 C666 1.349 . S
C667 C683 1.349 . S
C668 C666 1.327 . S
C668 C687 1.429 . S
C668 H692 0.950 . S
C669 C686 1.574 1_455 S
C669 C688 1.368 . S
C669 H693 0.949 . S
H670 C674 0.949 . S
C671 C672 1.349 . S
C671 C673 1.327 . S
C671 H694 0.950 . S
C672 C671 1.349 . S
C672 C684 1.349 . S
C673 C671 1.327 . S
C673 C689 1.429 . S
C673 H695 0.950 . S
C674 H670 0.949 . S
C674 C682 1.574 1_655 S
C674 C690 1.368 . S
H675 C683 0.950 . S
H676 C681 0.950 . S
H677 C682 0.949 . S
H678 C684 0.950 . S
H679 C685 0.950 . S
H680 C686 0.949 . S
C681 H676 0.950 . S
C681 C683 1.327 . S
C681 C687 1.429 . S
C682 C674 1.574 1_455 S
C682 H677 0.949 . S
C682 C688 1.368 . S
C683 C667 1.349 . S
C683 H675 0.950 . S
C683 C681 1.327 . S
C684 C672 1.349 . S
C684 H678 0.950 . S
C684 C685 1.327 . S
C685 H679 0.950 . S
C685 C684 1.327 . S
C685 C689 1.429 . S
C686 C669 1.574 1_655 S
C686 H680 0.949 . S
C686 C690 1.368 . S
C687 C668 1.429 . S
C687 C681 1.429 . S
C687 C688 1.523 . S
C688 C669 1.368 . S
C688 C682 1.368 . S
C688 C687 1.523 . S
C689 C673 1.429 . S
C689 C685 1.429 . S
C689 C690 1.523 . S
C690 C674 1.368 . S
C690 C686 1.368 . S
C690 C689 1.523 . S
H691 C666 0.950 . S
H692 C668 0.950 . S
H693 C669 0.949 . S
H694 C671 0.950 . S
H695 C673 0.950 . S
C696 C697 1.349 . S
C696 C698 1.327 . S
C696 H721 0.950 . S
C697 C696 1.349 . S
C697 C713 1.349 . S
C698 C696 1.327 . S
C698 C717 1.429 . S
C698 H722 0.950 . S
C699 C716 1.574 . S
C699 C718 1.368 . S
C699 H723 0.949 . S
H700 C704 0.949 . S
C701 C702 1.349 . S
C701 C703 1.327 . S
C701 H724 0.950 . S
C702 C701 1.349 . S
C702 C714 1.349 . S
C703 C701 1.327 . S
C703 C719 1.429 . S
C703 H725 0.950 . S
C704 H700 0.949 . S
C704 C712 1.574 . S
C704 C720 1.368 . S
H705 C713 0.950 . S
H706 C711 0.950 . S
H707 C712 0.949 . S
H708 C714 0.950 . S
H709 C715 0.950 . S
H710 C716 0.949 . S
C711 H706 0.950 . S
C711 C713 1.327 . S
C711 C717 1.429 . S
C712 C704 1.574 . S
C712 H707 0.949 . S
C712 C718 1.368 . S
C713 C697 1.349 . S
C713 H705 0.950 . S
C713 C711 1.327 . S
C714 C702 1.349 . S
C714 H708 0.950 . S
C714 C715 1.327 . S
C715 H709 0.950 . S
C715 C714 1.327 . S
C715 C719 1.429 . S
C716 C699 1.574 . S
C716 H710 0.949 . S
C716 C720 1.368 . S
C717 C698 1.429 . S
C717 C711 1.429 . S
C717 C718 1.523 . S
C718 C699 1.368 . S
C718 C712 1.368 . S
C718 C717 1.523 . S
C719 C703 1.429 . S
C719 C715 1.429 . S
C719 C720 1.523 . S
C720 C704 1.368 . S
C720 C716 1.368 . S
C720 C719 1.523 . S
H721 C696 0.950 . S
H722 C698 0.950 . S
H723 C699 0.949 . S
H724 C701 0.950 . S
H725 C703 0.950 . S
C726 C727 1.349 . S
C726 C728 1.327 . S
C726 H751 0.950 . S
C727 C726 1.349 . S
C727 C743 1.349 . S
C728 C726 1.327 . S
C728 C747 1.429 . S
C728 H752 0.950 . S
C729 C746 1.574 . S
C729 C748 1.368 . S
C729 H753 0.949 . S
H730 C734 0.949 . S
C731 C732 1.349 . S
C731 C733 1.327 . S
C731 H754 0.950 . S
C732 C731 1.349 . S
C732 C744 1.349 . S
C733 C731 1.327 . S
C733 C749 1.429 . S
C733 H755 0.950 . S
C734 H730 0.949 . S
C734 C742 1.574 . S
C734 C750 1.368 . S
H735 C743 0.950 . S
H736 C741 0.950 . S
H737 C742 0.949 . S
H738 C744 0.950 . S
H739 C745 0.950 . S
H740 C746 0.949 . S
C741 H736 0.950 . S
C741 C743 1.327 . S
C741 C747 1.429 . S
C742 C734 1.574 . S
C742 H737 0.949 . S
C742 C748 1.368 . S
C743 C727 1.349 . S
C743 H735 0.950 . S
C743 C741 1.327 . S
C744 C732 1.349 . S
C744 H738 0.950 . S
C744 C745 1.327 . S
C745 H739 0.950 . S
C745 C744 1.327 . S
C745 C749 1.429 . S
C746 C729 1.574 . S
C746 H740 0.949 . S
C746 C750 1.368 . S
C747 C728 1.429 . S
C747 C741 1.429 . S
C747 C748 1.523 . S
C748 C729 1.368 . S
C748 C742 1.368 . S
C748 C747 1.523 . S
C749 C733 1.429 . S
C749 C745 1.429 . S
C749 C750 1.523 . S
C750 C734 1.368 . S
C750 C746 1.368 . S
C750 C749 1.523 . S
H751 C726 0.950 . S
H752 C728 0.950 . S
H753 C729 0.949 . S
H754 C731 0.950 . S
H755 C733 0.950 . S
C756 C757 1.349 . S
C756 C758 1.327 . S
C756 H781 0.950 . S
C757 C756 1.349 . S
C757 C773 1.349 . S
C758 C756 1.327 . S
C758 C777 1.429 . S
C758 H782 0.950 . S
C759 C776 1.574 . S
C759 C778 1.368 . S
C759 H783 0.949 . S
H760 C764 0.949 . S
C761 C762 1.349 . S
C761 C763 1.327 . S
C761 H784 0.950 . S
C762 C761 1.349 . S
C762 C774 1.349 . S
C763 C761 1.327 . S
C763 C779 1.429 . S
C763 H785 0.950 . S
C764 H760 0.949 . S
C764 C772 1.574 . S
C764 C780 1.368 . S
H765 C773 0.950 . S
H766 C771 0.950 . S
H767 C772 0.949 . S
H768 C774 0.950 . S
H769 C775 0.950 . S
H770 C776 0.949 . S
C771 H766 0.950 . S
C771 C773 1.327 . S
C771 C777 1.429 . S
C772 C764 1.574 . S
C772 H767 0.949 . S
C772 C778 1.368 . S
C773 C757 1.349 . S
C773 H765 0.950 . S
C773 C771 1.327 . S
C774 C762 1.349 . S
C774 H768 0.950 . S
C774 C775 1.327 . S
C775 H769 0.950 . S
C775 C774 1.327 . S
C775 C779 1.429 . S
C776 C759 1.574 . S
C776 H770 0.949 . S
C776 C780 1.368 . S
C777 C758 1.429 . S
C777 C771 1.429 . S
C777 C778 1.523 . S
C778 C759 1.368 . S
C778 C772 1.368 . S
C778 C777 1.523 . S
C779 C763 1.429 . S
C779 C775 1.429 . S
C779 C780 1.523 . S
C780 C764 1.368 . S
C780 C776 1.368 . S
C780 C779 1.523 . S
H781 C756 0.950 . S
H782 C758 0.950 . S
H783 C759 0.949 . S
H784 C761 0.950 . S
H785 C763 0.950 . S
C786 C787 1.349 . S
C786 C788 1.327 . S
C786 H811 0.950 . S
C787 C786 1.349 . S
C787 C803 1.349 . S
C788 C786 1.327 . S
C788 C807 1.429 . S
C788 H812 0.950 . S
C789 C806 1.574 . S
C789 C808 1.368 . S
C789 H813 0.949 . S
H790 C794 0.949 . S
C791 C792 1.349 . S
C791 C793 1.327 . S
C791 H814 0.950 . S
C792 C791 1.349 . S
C792 C804 1.349 . S
C793 C791 1.327 . S
C793 C809 1.429 . S
C793 H815 0.950 . S
C794 H790 0.949 . S
C794 C802 1.574 . S
C794 C810 1.368 . S
H795 C803 0.950 . S
H796 C801 0.950 . S
H797 C802 0.949 . S
H798 C804 0.950 . S
H799 C805 0.950 . S
H800 C806 0.949 . S
C801 H796 0.950 . S
C801 C803 1.327 . S
C801 C807 1.429 . S
C802 C794 1.574 . S
C802 H797 0.949 . S
C802 C808 1.368 . S
C803 C787 1.349 . S
C803 H795 0.950 . S
C803 C801 1.327 . S
C804 C792 1.349 . S
C804 H798 0.950 . S
C804 C805 1.327 . S
C805 H799 0.950 . S
C805 C804 1.327 . S
C805 C809 1.429 . S
C806 C789 1.574 . S
C806 H800 0.949 . S
C806 C810 1.368 . S
C807 C788 1.429 . S
C807 C801 1.429 . S
C807 C808 1.523 . S
C808 C789 1.368 . S
C808 C802 1.368 . S
C808 C807 1.523 . S
C809 C793 1.429 . S
C809 C805 1.429 . S
C809 C810 1.523 . S
C810 C794 1.368 . S
C810 C806 1.368 . S
C810 C809 1.523 . S
H811 C786 0.950 . S
H812 C788 0.950 . S
H813 C789 0.949 . S
H814 C791 0.950 . S
H815 C793 0.950 . S
C816 C817 1.349 . S
C816 C818 1.327 . S
C816 H841 0.950 . S
C817 C816 1.349 . S
C817 C833 1.349 . S
C818 C816 1.327 . S
C818 C837 1.429 . S
C818 H842 0.950 . S
C819 C836 1.574 . S
C819 C838 1.368 . S
C819 H843 0.949 . S
H820 C824 0.949 . S
C821 C822 1.349 . S
C821 C823 1.327 . S
C821 H844 0.950 . S
C822 C821 1.349 . S
C822 C834 1.349 . S
C823 C821 1.327 . S
C823 C839 1.429 . S
C823 H845 0.950 . S
C824 H820 0.949 . S
C824 C832 1.574 . S
C824 C840 1.368 . S
H825 C833 0.950 . S
H826 C831 0.950 . S
H827 C832 0.949 . S
H828 C834 0.950 . S
H829 C835 0.950 . S
H830 C836 0.949 . S
C831 H826 0.950 . S
C831 C833 1.327 . S
C831 C837 1.429 . S
C832 C824 1.574 . S
C832 H827 0.949 . S
C832 C838 1.368 . S
C833 C817 1.349 . S
C833 H825 0.950 . S
C833 C831 1.327 . S
C834 C822 1.349 . S
C834 H828 0.950 . S
C834 C835 1.327 . S
C835 H829 0.950 . S
C835 C834 1.327 . S
C835 C839 1.429 . S
C836 C819 1.574 . S
C836 H830 0.949 . S
C836 C840 1.368 . S
C837 C818 1.429 . S
C837 C831 1.429 . S
C837 C838 1.523 . S
C838 C819 1.368 . S
C838 C832 1.368 . S
C838 C837 1.523 . S
C839 C823 1.429 . S
C839 C835 1.429 . S
C839 C840 1.523 . S
C840 C824 1.368 . S
C840 C836 1.368 . S
C840 C839 1.523 . S
H841 C816 0.950 . S
H842 C818 0.950 . S
H843 C819 0.949 . S
H844 C821 0.950 . S
H845 C823 0.950 . S
C846 C847 1.349 . S
C846 C848 1.327 . S
C846 H871 0.950 . S
C847 C846 1.349 . S
C847 C863 1.349 . S
C848 C846 1.327 . S
C848 C867 1.429 . S
C848 H872 0.950 . S
C849 C866 1.574 . S
C849 C868 1.368 . S
C849 H873 0.949 . S
H850 C854 0.949 . S
C851 C852 1.349 . S
C851 C853 1.327 . S
C851 H874 0.950 . S
C852 C851 1.349 . S
C852 C864 1.349 . S
C853 C851 1.327 . S
C853 C869 1.429 . S
C853 H875 0.950 . S
C854 H850 0.949 . S
C854 C862 1.574 . S
C854 C870 1.368 . S
H855 C863 0.950 . S
H856 C861 0.950 . S
H857 C862 0.949 . S
H858 C864 0.950 . S
H859 C865 0.950 . S
H860 C866 0.949 . S
C861 H856 0.950 . S
C861 C863 1.327 . S
C861 C867 1.429 . S
C862 C854 1.574 . S
C862 H857 0.949 . S
C862 C868 1.368 . S
C863 C847 1.349 . S
C863 H855 0.950 . S
C863 C861 1.327 . S
C864 C852 1.349 . S
C864 H858 0.950 . S
C864 C865 1.327 . S
C865 H859 0.950 . S
C865 C864 1.327 . S
C865 C869 1.429 . S
C866 C849 1.574 . S
C866 H860 0.949 . S
C866 C870 1.368 . S
C867 C848 1.429 . S
C867 C861 1.429 . S
C867 C868 1.523 . S
C868 C849 1.368 . S
C868 C862 1.368 . S
C868 C867 1.523 . S
C869 C853 1.429 . S
C869 C865 1.429 . S
C869 C870 1.523 . S
C870 C854 1.368 . S
C870 C866 1.368 . S
C870 C869 1.523 . S
H871 C846 0.950 . S
H872 C848 0.950 . S
H873 C849 0.949 . S
H874 C851 0.950 . S
H875 C853 0.950 . S
C876 C877 1.349 . S
C876 C878 1.327 . S
C876 H901 0.950 . S
C877 C876 1.349 . S
C877 C893 1.349 . S
C878 C876 1.327 . S
C878 C897 1.429 . S
C878 H902 0.950 . S
C879 C896 1.574 . S
C879 C898 1.368 . S
C879 H903 0.949 . S
H880 C884 0.949 . S
C881 C882 1.349 . S
C881 C883 1.327 . S
C881 H904 0.950 . S
C882 C881 1.349 . S
C882 C894 1.349 . S
C883 C881 1.327 . S
C883 C899 1.429 . S
C883 H905 0.950 . S
C884 H880 0.949 . S
C884 C892 1.574 . S
C884 C900 1.368 . S
H885 C893 0.950 . S
H886 C891 0.950 . S
H887 C892 0.949 . S
H888 C894 0.950 . S
H889 C895 0.950 . S
H890 C896 0.949 . S
C891 H886 0.950 . S
C891 C893 1.327 . S
C891 C897 1.429 . S
C892 C884 1.574 . S
C892 H887 0.949 . S
C892 C898 1.368 . S
C893 C877 1.349 . S
C893 H885 0.950 . S
C893 C891 1.327 . S
C894 C882 1.349 . S
C894 H888 0.950 . S
C894 C895 1.327 . S
C895 H889 0.950 . S
C895 C894 1.327 . S
C895 C899 1.429 . S
C896 C879 1.574 . S
C896 H890 0.949 . S
C896 C900 1.368 . S
C897 C878 1.429 . S
C897 C891 1.429 . S
C897 C898 1.523 . S
C898 C879 1.368 . S
C898 C892 1.368 . S
C898 C897 1.523 . S
C899 C883 1.429 . S
C899 C895 1.429 . S
C899 C900 1.523 . S
C900 C884 1.368 . S
C900 C896 1.368 . S
C900 C899 1.523 . S
H901 C876 0.950 . S
H902 C878 0.950 . S
H903 C879 0.949 . S
H904 C881 0.950 . S
H905 C883 0.950 . S
C906 C907 1.349 . S
C906 C908 1.327 . S
C906 H931 0.950 . S
C907 C906 1.349 . S
C907 C923 1.349 . S
C908 C906 1.327 . S
C908 C927 1.429 . S
C908 H932 0.950 . S
C909 C926 1.574 . S
C909 C928 1.368 . S
C909 H933 0.949 . S
H910 C914 0.949 . S
C911 C912 1.349 . S
C911 C913 1.327 . S
C911 H934 0.950 . S
C912 C911 1.349 . S
C912 C924 1.349 . S
C913 C911 1.327 . S
C913 C929 1.429 . S
C913 H935 0.950 . S
C914 H910 0.949 . S
C914 C922 1.574 . S
C914 C930 1.368 . S
H915 C923 0.950 . S
H916 C921 0.950 . S
H917 C922 0.949 . S
H918 C924 0.950 . S
H919 C925 0.950 . S
H920 C926 0.949 . S
C921 H916 0.950 . S
C921 C923 1.327 . S
C921 C927 1.429 . S
C922 C914 1.574 . S
C922 H917 0.949 . S
C922 C928 1.368 . S
C923 C907 1.349 . S
C923 H915 0.950 . S
C923 C921 1.327 . S
C924 C912 1.349 . S
C924 H918 0.950 . S
C924 C925 1.327 . S
C925 H919 0.950 . S
C925 C924 1.327 . S
C925 C929 1.429 . S
C926 C909 1.574 . S
C926 H920 0.949 . S
C926 C930 1.368 . S
C927 C908 1.429 . S
C927 C921 1.429 . S
C927 C928 1.523 . S
C928 C909 1.368 . S
C928 C922 1.368 . S
C928 C927 1.523 . S
C929 C913 1.429 . S
C929 C925 1.429 . S
C929 C930 1.523 . S
C930 C914 1.368 . S
C930 C926 1.368 . S
C930 C929 1.523 . S
H931 C906 0.950 . S
H932 C908 0.950 . S
H933 C909 0.949 . S
H934 C911 0.950 . S
H935 C913 0.950 . S
C936 C937 1.349 . S
C936 C938 1.327 . S
C936 H961 0.950 . S
C937 C936 1.349 . S
C937 C953 1.349 . S
C938 C936 1.327 . S
C938 C957 1.429 . S
C938 H962 0.950 . S
C939 C956 1.574 . S
C939 C958 1.368 . S
C939 H963 0.949 . S
H940 C944 0.949 . S
C941 C942 1.349 . S
C941 C943 1.327 . S
C941 H964 0.950 . S
C942 C941 1.349 . S
C942 C954 1.349 . S
C943 C941 1.327 . S
C943 C959 1.429 . S
C943 H965 0.950 . S
C944 H940 0.949 . S
C944 C952 1.574 . S
C944 C960 1.368 . S
H945 C953 0.950 . S
H946 C951 0.950 . S
H947 C952 0.949 . S
H948 C954 0.950 . S
H949 C955 0.950 . S
H950 C956 0.949 . S
C951 H946 0.950 . S
C951 C953 1.327 . S
C951 C957 1.429 . S
C952 C944 1.574 . S
C952 H947 0.949 . S
C952 C958 1.368 . S
C953 C937 1.349 . S
C953 H945 0.950 . S
C953 C951 1.327 . S
C954 C942 1.349 . S
C954 H948 0.950 . S
C954 C955 1.327 . S
C955 H949 0.950 . S
C955 C954 1.327 . S
C955 C959 1.429 . S
C956 C939 1.574 . S
C956 H950 0.949 . S
C956 C960 1.368 . S
C957 C938 1.429 . S
C957 C951 1.429 . S
C957 C958 1.523 . S
C958 C939 1.368 . S
C958 C952 1.368 . S
C958 C957 1.523 . S
C959 C943 1.429 . S
C959 C955 1.429 . S
C959 C960 1.523 . S
C960 C944 1.368 . S
C960 C956 1.368 . S
C960 C959 1.523 . S
H961 C936 0.950 . S
H962 C938 0.950 . S
H963 C939 0.949 . S
H964 C941 0.950 . S
H965 C943 0.950 . S
C966 C967 1.349 . S
C966 C968 1.327 . S
C966 H991 0.950 . S
C967 C966 1.349 . S
C967 C983 1.349 . S
C968 C966 1.327 . S
C968 C987 1.429 . S
C968 H992 0.950 . S
C969 C986 1.574 . S
C969 C988 1.368 . S
C969 H993 0.949 . S
H970 C974 0.949 . S
C971 C972 1.349 . S
C971 C973 1.327 . S
C971 H994 0.950 . S
C972 C971 1.349 . S
C972 C984 1.349 . S
C973 C971 1.327 . S
C973 C989 1.429 . S
C973 H995 0.950 . S
C974 H970 0.949 . S
C974 C982 1.574 . S
C974 C990 1.368 . S
H975 C983 0.950 . S
H976 C981 0.950 . S
H977 C982 0.949 . S
H978 C984 0.950 . S
H979 C985 0.950 . S
H980 C986 0.949 . S
C981 H976 0.950 . S
C981 C983 1.327 . S
C981 C987 1.429 . S
C982 C974 1.574 . S
C982 H977 0.949 . S
C982 C988 1.368 . S
C983 C967 1.349 . S
C983 H975 0.950 . S
C983 C981 1.327 . S
C984 C972 1.349 . S
C984 H978 0.950 . S
C984 C985 1.327 . S
C985 H979 0.950 . S
C985 C984 1.327 . S
C985 C989 1.429 . S
C986 C969 1.574 . S
C986 H980 0.949 . S
C986 C990 1.368 . S
C987 C968 1.429 . S
C987 C981 1.429 . S
C987 C988 1.523 . S
C988 C969 1.368 . S
C988 C982 1.368 . S
C988 C987 1.523 . S
C989 C973 1.429 . S
C989 C985 1.429 . S
C989 C990 1.523 . S
C990 C974 1.368 . S
C990 C986 1.368 . S
C990 C989 1.523 . S
H991 C966 0.950 . S
H992 C968 0.950 . S
H993 C969 0.949 . S
H994 C971 0.950 . S
H995 C973 0.950 . S
C996 C997 1.349 . S
C996 C998 1.327 . S
C996 H1021 0.950 . S
C997 C996 1.349 . S
C997 C1013 1.349 . S
C998 C996 1.327 . S
C998 C1017 1.429 . S
C998 H1022 0.950 . S
C999 C1016 1.574 . S
C999 C1018 1.368 . S
C999 H1023 0.949 . S
H1000 C1004 0.949 . S
C1001 C1002 1.349 . S
C1001 C1003 1.327 . S
C1001 H1024 0.950 . S
C1002 C1001 1.349 . S
C1002 C1014 1.349 . S
C1003 C1001 1.327 . S
C1003 C1019 1.429 . S
C1003 H1025 0.950 . S
C1004 H1000 0.949 . S
C1004 C1012 1.574 . S
C1004 C1020 1.368 . S
H1005 C1013 0.950 . S
H1006 C1011 0.950 . S
H1007 C1012 0.949 . S
H1008 C1014 0.950 . S
H1009 C1015 0.950 . S
H1010 C1016 0.949 . S
C1011 H1006 0.950 . S
C1011 C1013 1.327 . S
C1011 C1017 1.429 . S
C1012 C1004 1.574 . S
C1012 H1007 0.949 . S
C1012 C1018 1.368 . S
C1013 C997 1.349 . S
C1013 H1005 0.950 . S
C1013 C1011 1.327 . S
C1014 C1002 1.349 . S
C1014 H1008 0.950 . S
C1014 C1015 1.327 . S
C1015 H1009 0.950 . S
C1015 C1014 1.327 . S
C1015 C1019 1.429 . S
C1016 C999 1.574 . S
C1016 H1010 0.949 . S
C1016 C1020 1.368 . S
C1017 C998 1.429 . S
C1017 C1011 1.429 . S
C1017 C1018 1.523 . S
C1018 C999 1.368 . S
C1018 C1012 1.368 . S
C1018 C1017 1.523 . S
C1019 C1003 1.429 . S
C1019 C1015 1.429 . S
C1019 C1020 1.523 . S
C1020 C1004 1.368 . S
C1020 C1016 1.368 . S
C1020 C1019 1.523 . S
H1021 C996 0.950 . S
H1022 C998 0.950 . S
H1023 C999 0.949 . S
H1024 C1001 0.950 . S
H1025 C1003 0.950 . S
C1026 C1027 1.349 . S
C1026 C1028 1.327 . S
C1026 H1051 0.950 . S
C1027 C1026 1.349 . S
C1027 C1043 1.349 . S
C1028 C1026 1.327 . S
C1028 C1047 1.429 . S
C1028 H1052 0.950 . S
C1029 C1046 1.574 . S
C1029 C1048 1.368 . S
C1029 H1053 0.949 . S
H1030 C1034 0.949 . S
C1031 C1032 1.349 . S
C1031 C1033 1.327 . S
C1031 H1054 0.950 . S
C1032 C1031 1.349 . S
C1032 C1044 1.349 . S
C1033 C1031 1.327 . S
C1033 C1049 1.429 . S
C1033 H1055 0.950 . S
C1034 H1030 0.949 . S
C1034 C1042 1.574 . S
C1034 C1050 1.368 . S
H1035 C1043 0.950 . S
H1036 C1041 0.950 . S
H1037 C1042 0.949 . S
H1038 C1044 0.950 . S
H1039 C1045 0.950 . S
H1040 C1046 0.949 . S
C1041 H1036 0.950 . S
C1041 C1043 1.327 . S
C1041 C1047 1.429 . S
C1042 C1034 1.574 . S
C1042 H1037 0.949 . S
C1042 C1048 1.368 . S
C1043 C1027 1.349 . S
C1043 H1035 0.950 . S
C1043 C1041 1.327 . S
C1044 C1032 1.349 . S
C1044 H1038 0.950 . S
C1044 C1045 1.327 . S
C1045 H1039 0.950 . S
C1045 C1044 1.327 . S
C1045 C1049 1.429 . S
C1046 C1029 1.574 . S
C1046 H1040 0.949 . S
C1046 C1050 1.368 . S
C1047 C1028 1.429 . S
C1047 C1041 1.429 . S
C1047 C1048 1.523 . S
C1048 C1029 1.368 . S
C1048 C1042 1.368 . S
C1048 C1047 1.523 . S
C1049 C1033 1.429 . S
C1049 C1045 1.429 . S
C1049 C1050 1.523 . S
C1050 C1034 1.368 . S
C1050 C1046 1.368 . S
C1050 C1049 1.523 . S
H1051 C1026 0.950 . S
H1052 C1028 0.950 . S
H1053 C1029 0.949 . S
H1054 C1031 0.950 . S
H1055 C1033 0.950 . S
C1056 C1057 1.349 . S
C1056 C1058 1.327 . S
C1056 H1081 0.950 . S
C1057 C1056 1.349 . S
C1057 C1073 1.349 . S
C1058 C1056 1.327 . S
C1058 C1077 1.429 . S
C1058 H1082 0.950 . S
C1059 C1076 1.574 1_554 S
C1059 C1078 1.368 . S
C1059 H1083 0.949 . S
H1060 C1064 0.949 . S
C1061 C1062 1.349 . S
C1061 C1063 1.327 . S
C1061 H1084 0.950 . S
C1062 C1061 1.349 . S
C1062 C1074 1.349 . S
C1063 C1061 1.327 . S
C1063 C1079 1.429 . S
C1063 H1085 0.950 . S
C1064 H1060 0.949 . S
C1064 C1072 1.574 1_556 S
C1064 C1080 1.368 . S
H1065 C1073 0.950 . S
H1066 C1071 0.950 . S
H1067 C1072 0.949 . S
H1068 C1074 0.950 . S
H1069 C1075 0.950 . S
H1070 C1076 0.949 . S
C1071 H1066 0.950 . S
C1071 C1073 1.327 . S
C1071 C1077 1.429 . S
C1072 C1064 1.574 1_554 S
C1072 H1067 0.949 . S
C1072 C1078 1.368 . S
C1073 C1057 1.349 . S
C1073 H1065 0.950 . S
C1073 C1071 1.327 . S
C1074 C1062 1.349 . S
C1074 H1068 0.950 . S
C1074 C1075 1.327 . S
C1075 H1069 0.950 . S
C1075 C1074 1.327 . S
C1075 C1079 1.429 . S
C1076 C1059 1.574 1_556 S
C1076 H1070 0.949 . S
C1076 C1080 1.368 . S
C1077 C1058 1.429 . S
C1077 C1071 1.429 . S
C1077 C1078 1.523 . S
C1078 C1059 1.368 . S
C1078 C1072 1.368 . S
C1078 C1077 1.523 . S
C1079 C1063 1.429 . S
C1079 C1075 1.429 . S
C1079 C1080 1.523 . S
C1080 C1064 1.368 . S
C1080 C1076 1.368 . S
C1080 C1079 1.523 . S
H1081 C1056 0.950 . S
H1082 C1058 0.950 . S
H1083 C1059 0.949 . S
H1084 C1061 0.950 . S
H1085 C1063 0.950 . S
C1086 C1087 1.349 . S
C1086 C1088 1.327 . S
C1086 H1111 0.950 . S
C1087 C1086 1.349 . S
C1087 C1103 1.349 . S
C1088 C1086 1.327 . S
C1088 C1107 1.429 . S
C1088 H1112 0.950 . S
C1089 C1106 1.574 1_556 S
C1089 C1108 1.368 . S
C1089 H1113 0.949 . S
H1090 C1094 0.949 . S
C1091 C1092 1.349 . S
C1091 C1093 1.327 . S
C1091 H1114 0.950 . S
C1092 C1091 1.349 . S
C1092 C1104 1.349 . S
C1093 C1091 1.327 . S
C1093 C1109 1.429 . S
C1093 H1115 0.950 . S
C1094 H1090 0.949 . S
C1094 C1102 1.574 1_554 S
C1094 C1110 1.368 . S
H1095 C1103 0.950 . S
H1096 C1101 0.950 . S
H1097 C1102 0.949 . S
H1098 C1104 0.950 . S
H1099 C1105 0.950 . S
H1100 C1106 0.949 . S
C1101 H1096 0.950 . S
C1101 C1103 1.327 . S
C1101 C1107 1.429 . S
C1102 C1094 1.574 1_556 S
C1102 H1097 0.949 . S
C1102 C1108 1.368 . S
C1103 C1087 1.349 . S
C1103 H1095 0.950 . S
C1103 C1101 1.327 . S
C1104 C1092 1.349 . S
C1104 H1098 0.950 . S
C1104 C1105 1.327 . S
C1105 H1099 0.950 . S
C1105 C1104 1.327 . S
C1105 C1109 1.429 . S
C1106 C1089 1.574 1_554 S
C1106 H1100 0.949 . S
C1106 C1110 1.368 . S
C1107 C1088 1.429 . S
C1107 C1101 1.429 . S
C1107 C1108 1.523 . S
C1108 C1089 1.368 . S
C1108 C1102 1.368 . S
C1108 C1107 1.523 . S
C1109 C1093 1.429 . S
C1109 C1105 1.429 . S
C1109 C1110 1.523 . S
C1110 C1094 1.368 . S
C1110 C1106 1.368 . S
C1110 C1109 1.523 . S
H1111 C1086 0.950 . S
H1112 C1088 0.950 . S
H1113 C1089 0.949 . S
H1114 C1091 0.950 . S
H1115 C1093 0.950 . S
C1116 C1117 1.349 . S
C1116 C1118 1.327 . S
C1116 H1141 0.950 . S
C1117 C1116 1.349 . S
C1117 C1133 1.349 . S
C1118 C1116 1.327 . S
C1118 C1137 1.429 . S
C1118 H1142 0.950 . S
C1119 C1136 1.574 1_556 S
C1119 C1138 1.368 . S
C1119 H1143 0.949 . S
H1120 C1124 0.949 . S
C1121 C1122 1.349 . S
C1121 C1123 1.327 . S
C1121 H1144 0.950 . S
C1122 C1121 1.349 . S
C1122 C1134 1.349 . S
C1123 C1121 1.327 . S
C1123 C1139 1.429 . S
C1123 H1145 0.950 . S
C1124 H1120 0.949 . S
C1124 C1132 1.574 1_554 S
C1124 C1140 1.368 . S
H1125 C1133 0.950 . S
H1126 C1131 0.950 . S
H1127 C1132 0.949 . S
H1128 C1134 0.950 . S
H1129 C1135 0.950 . S
H1130 C1136 0.949 . S
C1131 H1126 0.950 . S
C1131 C1133 1.327 . S
C1131 C1137 1.429 . S
C1132 C1124 1.574 1_556 S
C1132 H1127 0.949 . S
C1132 C1138 1.368 . S
C1133 C1117 1.349 . S
C1133 H1125 0.950 . S
C1133 C1131 1.327 . S
C1134 C1122 1.349 . S
C1134 H1128 0.950 . S
C1134 C1135 1.327 . S
C1135 H1129 0.950 . S
C1135 C1134 1.327 . S
C1135 C1139 1.429 . S
C1136 C1119 1.574 1_554 S
C1136 H1130 0.949 . S
C1136 C1140 1.368 . S
C1137 C1118 1.429 . S
C1137 C1131 1.429 . S
C1137 C1138 1.523 . S
C1138 C1119 1.368 . S
C1138 C1132 1.368 . S
C1138 C1137 1.523 . S
C1139 C1123 1.429 . S
C1139 C1135 1.429 . S
C1139 C1140 1.523 . S
C1140 C1124 1.368 . S
C1140 C1136 1.368 . S
C1140 C1139 1.523 . S
H1141 C1116 0.950 . S
H1142 C1118 0.950 . S
H1143 C1119 0.949 . S
H1144 C1121 0.950 . S
H1145 C1123 0.950 . S
C1146 C1147 1.349 . S
C1146 C1148 1.327 . S
C1146 H1171 0.950 . S
C1147 C1146 1.349 . S
C1147 C1163 1.349 . S
C1148 C1146 1.327 . S
C1148 C1167 1.429 . S
C1148 H1172 0.950 . S
C1149 C1166 1.574 1_554 S
C1149 C1168 1.368 . S
C1149 H1173 0.949 . S
H1150 C1154 0.949 . S
C1151 C1152 1.349 . S
C1151 C1153 1.327 . S
C1151 H1174 0.950 . S
C1152 C1151 1.349 . S
C1152 C1164 1.349 . S
C1153 C1151 1.327 . S
C1153 C1169 1.429 . S
C1153 H1175 0.950 . S
C1154 H1150 0.949 . S
C1154 C1162 1.574 1_556 S
C1154 C1170 1.368 . S
H1155 C1163 0.950 . S
H1156 C1161 0.950 . S
H1157 C1162 0.949 . S
H1158 C1164 0.950 . S
H1159 C1165 0.950 . S
H1160 C1166 0.949 . S
C1161 H1156 0.950 . S
C1161 C1163 1.327 . S
C1161 C1167 1.429 . S
C1162 C1154 1.574 1_554 S
C1162 H1157 0.949 . S
C1162 C1168 1.368 . S
C1163 C1147 1.349 . S
C1163 H1155 0.950 . S
C1163 C1161 1.327 . S
C1164 C1152 1.349 . S
C1164 H1158 0.950 . S
C1164 C1165 1.327 . S
C1165 H1159 0.950 . S
C1165 C1164 1.327 . S
C1165 C1169 1.429 . S
C1166 C1149 1.574 1_556 S
C1166 H1160 0.949 . S
C1166 C1170 1.368 . S
C1167 C1148 1.429 . S
C1167 C1161 1.429 . S
C1167 C1168 1.523 . S
C1168 C1149 1.368 . S
C1168 C1162 1.368 . S
C1168 C1167 1.523 . S
C1169 C1153 1.429 . S
C1169 C1165 1.429 . S
C1169 C1170 1.523 . S
C1170 C1154 1.368 . S
C1170 C1166 1.368 . S
C1170 C1169 1.523 . S
H1171 C1146 0.950 . S
H1172 C1148 0.950 . S
H1173 C1149 0.949 . S
H1174 C1151 0.950 . S
H1175 C1153 0.950 . S
C1176 C1177 1.349 . S
C1176 C1178 1.327 . S
C1176 H1201 0.950 . S
C1177 C1176 1.349 . S
C1177 C1193 1.349 . S
C1178 C1176 1.327 . S
C1178 C1197 1.429 . S
C1178 H1202 0.950 . S
C1179 C1196 1.574 1_554 S
C1179 C1198 1.368 . S
C1179 H1203 0.949 . S
H1180 C1184 0.949 . S
C1181 C1182 1.349 . S
C1181 C1183 1.327 . S
C1181 H1204 0.950 . S
C1182 C1181 1.349 . S
C1182 C1194 1.349 . S
C1183 C1181 1.327 . S
C1183 C1199 1.429 . S
C1183 H1205 0.950 . S
C1184 H1180 0.949 . S
C1184 C1192 1.574 1_556 S
C1184 C1200 1.368 . S
H1185 C1193 0.950 . S
H1186 C1191 0.950 . S
H1187 C1192 0.949 . S
H1188 C1194 0.950 . S
H1189 C1195 0.950 . S
H1190 C1196 0.949 . S
C1191 H1186 0.950 . S
C1191 C1193 1.327 . S
C1191 C1197 1.429 . S
C1192 C1184 1.574 1_554 S
C1192 H1187 0.949 . S
C1192 C1198 1.368 . S
C1193 C1177 1.349 . S
C1193 H1185 0.950 . S
C1193 C1191 1.327 . S
C1194 C1182 1.349 . S
C1194 H1188 0.950 . S
C1194 C1195 1.327 . S
C1195 H1189 0.950 . S
C1195 C1194 1.327 . S
C1195 C1199 1.429 . S
C1196 C1179 1.574 1_556 S
C1196 H1190 0.949 . S
C1196 C1200 1.368 . S
C1197 C1178 1.429 . S
C1197 C1191 1.429 . S
C1197 C1198 1.523 . S
C1198 C1179 1.368 . S
C1198 C1192 1.368 . S
C1198 C1197 1.523 . S
C1199 C1183 1.429 . S
C1199 C1195 1.429 . S
C1199 C1200 1.523 . S
C1200 C1184 1.368 . S
C1200 C1196 1.368 . S
C1200 C1199 1.523 . S
H1201 C1176 0.950 . S
H1202 C1178 0.950 . S
H1203 C1179 0.949 . S
H1204 C1181 0.950 . S
H1205 C1183 0.950 . S
C1206 C1207 1.349 . S
C1206 C1208 1.327 . S
C1206 H1231 0.950 . S
C1207 C1206 1.349 . S
C1207 C1223 1.349 . S
C1208 C1206 1.327 . S
C1208 C1227 1.429 . S
C1208 H1232 0.950 . S
C1209 C1226 1.574 1_556 S
C1209 C1228 1.368 . S
C1209 H1233 0.949 . S
H1210 C1214 0.949 . S
C1211 C1212 1.349 . S
C1211 C1213 1.327 . S
C1211 H1234 0.950 . S
C1212 C1211 1.349 . S
C1212 C1224 1.349 . S
C1213 C1211 1.327 . S
C1213 C1229 1.429 . S
C1213 H1235 0.950 . S
C1214 H1210 0.949 . S
C1214 C1222 1.574 1_554 S
C1214 C1230 1.368 . S
H1215 C1223 0.950 . S
H1216 C1221 0.950 . S
H1217 C1222 0.949 . S
H1218 C1224 0.950 . S
H1219 C1225 0.950 . S
H1220 C1226 0.949 . S
C1221 H1216 0.950 . S
C1221 C1223 1.327 . S
C1221 C1227 1.429 . S
C1222 C1214 1.574 1_556 S
C1222 H1217 0.949 . S
C1222 C1228 1.368 . S
C1223 C1207 1.349 . S
C1223 H1215 0.950 . S
C1223 C1221 1.327 . S
C1224 C1212 1.349 . S
C1224 H1218 0.950 . S
C1224 C1225 1.327 . S
C1225 H1219 0.950 . S
C1225 C1224 1.327 . S
C1225 C1229 1.429 . S
C1226 C1209 1.574 1_554 S
C1226 H1220 0.949 . S
C1226 C1230 1.368 . S
C1227 C1208 1.429 . S
C1227 C1221 1.429 . S
C1227 C1228 1.523 . S
C1228 C1209 1.368 . S
C1228 C1222 1.368 . S
C1228 C1227 1.523 . S
C1229 C1213 1.429 . S
C1229 C1225 1.429 . S
C1229 C1230 1.523 . S
C1230 C1214 1.368 . S
C1230 C1226 1.368 . S
C1230 C1229 1.523 . S
H1231 C1206 0.950 . S
H1232 C1208 0.950 . S
H1233 C1209 0.949 . S
H1234 C1211 0.950 . S
H1235 C1213 0.950 . S
C1236 C1237 1.349 . S
C1236 C1238 1.327 . S
C1236 H1261 0.950 . S
C1237 C1236 1.349 . S
C1237 C1253 1.349 . S
C1238 C1236 1.327 . S
C1238 C1257 1.429 . S
C1238 H1262 0.950 . S
C1239 C1256 1.574 . S
C1239 C1258 1.368 . S
C1239 H1263 0.949 . S
H1240 C1244 0.949 . S
C1241 C1242 1.349 . S
C1241 C1243 1.327 . S
C1241 H1264 0.950 . S
C1242 C1241 1.349 . S
C1242 C1254 1.349 . S
C1243 C1241 1.327 . S
C1243 C1259 1.429 . S
C1243 H1265 0.950 . S
C1244 H1240 0.949 . S
C1244 C1252 1.574 . S
C1244 C1260 1.368 . S
H1245 C1253 0.950 . S
H1246 C1251 0.950 . S
H1247 C1252 0.949 . S
H1248 C1254 0.950 . S
H1249 C1255 0.950 . S
H1250 C1256 0.949 . S
C1251 H1246 0.950 . S
C1251 C1253 1.327 . S
C1251 C1257 1.429 . S
C1252 C1244 1.574 . S
C1252 H1247 0.949 . S
C1252 C1258 1.368 . S
C1253 C1237 1.349 . S
C1253 H1245 0.950 . S
C1253 C1251 1.327 . S
C1254 C1242 1.349 . S
C1254 H1248 0.950 . S
C1254 C1255 1.327 . S
C1255 H1249 0.950 . S
C1255 C1254 1.327 . S
C1255 C1259 1.429 . S
C1256 C1239 1.574 . S
C1256 H1250 0.949 . S
C1256 C1260 1.368 . S
C1257 C1238 1.429 . S
C1257 C1251 1.429 . S
C1257 C1258 1.523 . S
C1258 C1239 1.368 . S
C1258 C1252 1.368 . S
C1258 C1257 1.523 . S
C1259 C1243 1.429 . S
C1259 C1255 1.429 . S
C1259 C1260 1.523 . S
C1260 C1244 1.368 . S
C1260 C1256 1.368 . S
C1260 C1259 1.523 . S
H1261 C1236 0.950 . S
H1262 C1238 0.950 . S
H1263 C1239 0.949 . S
H1264 C1241 0.950 . S
H1265 C1243 0.950 . S
C1266 C1267 1.349 . S
C1266 C1268 1.327 . S
C1266 H1291 0.950 . S
C1267 C1266 1.349 . S
C1267 C1283 1.349 . S
C1268 C1266 1.327 . S
C1268 C1287 1.429 . S
C1268 H1292 0.950 . S
C1269 C1286 1.574 . S
C1269 C1288 1.368 . S
C1269 H1293 0.949 . S
H1270 C1274 0.949 . S
C1271 C1272 1.349 . S
C1271 C1273 1.327 . S
C1271 H1294 0.950 . S
C1272 C1271 1.349 . S
C1272 C1284 1.349 . S
C1273 C1271 1.327 . S
C1273 C1289 1.429 . S
C1273 H1295 0.950 . S
C1274 H1270 0.949 . S
C1274 C1282 1.574 . S
C1274 C1290 1.368 . S
H1275 C1283 0.950 . S
H1276 C1281 0.950 . S
H1277 C1282 0.949 . S
H1278 C1284 0.950 . S
H1279 C1285 0.950 . S
H1280 C1286 0.949 . S
C1281 H1276 0.950 . S
C1281 C1283 1.327 . S
C1281 C1287 1.429 . S
C1282 C1274 1.574 . S
C1282 H1277 0.949 . S
C1282 C1288 1.368 . S
C1283 C1267 1.349 . S
C1283 H1275 0.950 . S
C1283 C1281 1.327 . S
C1284 C1272 1.349 . S
C1284 H1278 0.950 . S
C1284 C1285 1.327 . S
C1285 H1279 0.950 . S
C1285 C1284 1.327 . S
C1285 C1289 1.429 . S
C1286 C1269 1.574 . S
C1286 H1280 0.949 . S
C1286 C1290 1.368 . S
C1287 C1268 1.429 . S
C1287 C1281 1.429 . S
C1287 C1288 1.523 . S
C1288 C1269 1.368 . S
C1288 C1282 1.368 . S
C1288 C1287 1.523 . S
C1289 C1273 1.429 . S
C1289 C1285 1.429 . S
C1289 C1290 1.523 . S
C1290 C1274 1.368 . S
C1290 C1286 1.368 . S
C1290 C1289 1.523 . S
H1291 C1266 0.950 . S
H1292 C1268 0.950 . S
H1293 C1269 0.949 . S
H1294 C1271 0.950 . S
H1295 C1273 0.950 . S
C1296 C1297 1.349 . S
C1296 C1298 1.327 . S
C1296 H1321 0.950 . S
C1297 C1296 1.349 . S
C1297 C1313 1.349 . S
C1298 C1296 1.327 . S
C1298 C1317 1.429 . S
C1298 H1322 0.950 . S
C1299 C1316 1.574 . S
C1299 C1318 1.368 . S
C1299 H1323 0.949 . S
H1300 C1304 0.949 . S
C1301 C1302 1.349 . S
C1301 C1303 1.327 . S
C1301 H1324 0.950 . S
C1302 C1301 1.349 . S
C1302 C1314 1.349 . S
C1303 C1301 1.327 . S
C1303 C1319 1.429 . S
C1303 H1325 0.950 . S
C1304 H1300 0.949 . S
C1304 C1312 1.574 . S
C1304 C1320 1.368 . S
H1305 C1313 0.950 . S
H1306 C1311 0.950 . S
H1307 C1312 0.949 . S
H1308 C1314 0.950 . S
H1309 C1315 0.950 . S
H1310 C1316 0.949 . S
C1311 H1306 0.950 . S
C1311 C1313 1.327 . S
C1311 C1317 1.429 . S
C1312 C1304 1.574 . S
C1312 H1307 0.949 . S
C1312 C1318 1.368 . S
C1313 C1297 1.349 . S
C1313 H1305 0.950 . S
C1313 C1311 1.327 . S
C1314 C1302 1.349 . S
C1314 H1308 0.950 . S
C1314 C1315 1.327 . S
C1315 H1309 0.950 . S
C1315 C1314 1.327 . S
C1315 C1319 1.429 . S
C1316 C1299 1.574 . S
C1316 H1310 0.949 . S
C1316 C1320 1.368 . S
C1317 C1298 1.429 . S
C1317 C1311 1.429 . S
C1317 C1318 1.523 . S
C1318 C1299 1.368 . S
C1318 C1312 1.368 . S
C1318 C1317 1.523 . S
C1319 C1303 1.429 . S
C1319 C1315 1.429 . S
C1319 C1320 1.523 . S
C1320 C1304 1.368 . S
C1320 C1316 1.368 . S
C1320 C1319 1.523 . S
H1321 C1296 0.950 . S
H1322 C1298 0.950 . S
H1323 C1299 0.949 . S
H1324 C1301 0.950 . S
H1325 C1303 0.950 . S
C1326 C1327 1.349 . S
C1326 C1328 1.327 . S
C1326 H1351 0.950 . S
C1327 C1326 1.349 . S
C1327 C1343 1.349 . S
C1328 C1326 1.327 . S
C1328 C1347 1.429 . S
C1328 H1352 0.950 . S
C1329 C1346 1.574 . S
C1329 C1348 1.368 . S
C1329 H1353 0.949 . S
H1330 C1334 0.949 . S
C1331 C1332 1.349 . S
C1331 C1333 1.327 . S
C1331 H1354 0.950 . S
C1332 C1331 1.349 . S
C1332 C1344 1.349 . S
C1333 C1331 1.327 . S
C1333 C1349 1.429 . S
C1333 H1355 0.950 . S
C1334 H1330 0.949 . S
C1334 C1342 1.574 . S
C1334 C1350 1.368 . S
H1335 C1343 0.950 . S
H1336 C1341 0.950 . S
H1337 C1342 0.949 . S
H1338 C1344 0.950 . S
H1339 C1345 0.950 . S
H1340 C1346 0.949 . S
C1341 H1336 0.950 . S
C1341 C1343 1.327 . S
C1341 C1347 1.429 . S
C1342 C1334 1.574 . S
C1342 H1337 0.949 . S
C1342 C1348 1.368 . S
C1343 C1327 1.349 . S
C1343 H1335 0.950 . S
C1343 C1341 1.327 . S
C1344 C1332 1.349 . S
C1344 H1338 0.950 . S
C1344 C1345 1.327 . S
C1345 H1339 0.950 . S
C1345 C1344 1.327 . S
C1345 C1349 1.429 . S
C1346 C1329 1.574 . S
C1346 H1340 0.949 . S
C1346 C1350 1.368 . S
C1347 C1328 1.429 . S
C1347 C1341 1.429 . S
C1347 C1348 1.523 . S
C1348 C1329 1.368 . S
C1348 C1342 1.368 . S
C1348 C1347 1.523 . S
C1349 C1333 1.429 . S
C1349 C1345 1.429 . S
C1349 C1350 1.523 . S
C1350 C1334 1.368 . S
C1350 C1346 1.368 . S
C1350 C1349 1.523 . S
H1351 C1326 0.950 . S
H1352 C1328 0.950 . S
H1353 C1329 0.949 . S
H1354 C1331 0.950 . S
H1355 C1333 0.950 . S
C1356 C1357 1.349 . S
C1356 C1358 1.327 . S
C1356 H1381 0.950 . S
C1357 C1356 1.349 . S
C1357 C1373 1.349 . S
C1358 C1356 1.327 . S
C1358 C1377 1.429 . S
C1358 H1382 0.950 . S
C1359 C1376 1.574 . S
C1359 C1378 1.368 . S
C1359 H1383 0.949 . S
H1360 C1364 0.949 . S
C1361 C1362 1.349 . S
C1361 C1363 1.327 . S
C1361 H1384 0.950 . S
C1362 C1361 1.349 . S
C1362 C1374 1.349 . S
C1363 C1361 1.327 . S
C1363 C1379 1.429 . S
C1363 H1385 0.950 . S
C1364 H1360 0.949 . S
C1364 C1372 1.574 . S
C1364 C1380 1.368 . S
H1365 C1373 0.950 . S
H1366 C1371 0.950 . S
H1367 C1372 0.949 . S
H1368 C1374 0.950 . S
H1369 C1375 0.950 . S
H1370 C1376 0.949 . S
C1371 H1366 0.950 . S
C1371 C1373 1.327 . S
C1371 C1377 1.429 . S
C1372 C1364 1.574 . S
C1372 H1367 0.949 . S
C1372 C1378 1.368 . S
C1373 C1357 1.349 . S
C1373 H1365 0.950 . S
C1373 C1371 1.327 . S
C1374 C1362 1.349 . S
C1374 H1368 0.950 . S
C1374 C1375 1.327 . S
C1375 H1369 0.950 . S
C1375 C1374 1.327 . S
C1375 C1379 1.429 . S
C1376 C1359 1.574 . S
C1376 H1370 0.949 . S
C1376 C1380 1.368 . S
C1377 C1358 1.429 . S
C1377 C1371 1.429 . S
C1377 C1378 1.523 . S
C1378 C1359 1.368 . S
C1378 C1372 1.368 . S
C1378 C1377 1.523 . S
C1379 C1363 1.429 . S
C1379 C1375 1.429 . S
C1379 C1380 1.523 . S
C1380 C1364 1.368 . S
C1380 C1376 1.368 . S
C1380 C1379 1.523 . S
H1381 C1356 0.950 . S
H1382 C1358 0.950 . S
H1383 C1359 0.949 . S
H1384 C1361 0.950 . S
H1385 C1363 0.950 . S
C1386 C1387 1.349 . S
C1386 C1388 1.327 . S
C1386 H1411 0.950 . S
C1387 C1386 1.349 . S
C1387 C1403 1.349 . S
C1388 C1386 1.327 . S
C1388 C1407 1.429 . S
C1388 H1412 0.950 . S
C1389 C1406 1.574 . S
C1389 C1408 1.368 . S
C1389 H1413 0.949 . S
H1390 C1394 0.949 . S
C1391 C1392 1.349 . S
C1391 C1393 1.327 . S
C1391 H1414 0.950 . S
C1392 C1391 1.349 . S
C1392 C1404 1.349 . S
C1393 C1391 1.327 . S
C1393 C1409 1.429 . S
C1393 H1415 0.950 . S
C1394 H1390 0.949 . S
C1394 C1402 1.574 . S
C1394 C1410 1.368 . S
H1395 C1403 0.950 . S
H1396 C1401 0.950 . S
H1397 C1402 0.949 . S
H1398 C1404 0.950 . S
H1399 C1405 0.950 . S
H1400 C1406 0.949 . S
C1401 H1396 0.950 . S
C1401 C1403 1.327 . S
C1401 C1407 1.429 . S
C1402 C1394 1.574 . S
C1402 H1397 0.949 . S
C1402 C1408 1.368 . S
C1403 C1387 1.349 . S
C1403 H1395 0.950 . S
C1403 C1401 1.327 . S
C1404 C1392 1.349 . S
C1404 H1398 0.950 . S
C1404 C1405 1.327 . S
C1405 H1399 0.950 . S
C1405 C1404 1.327 . S
C1405 C1409 1.429 . S
C1406 C1389 1.574 . S
C1406 H1400 0.949 . S
C1406 C1410 1.368 . S
C1407 C1388 1.429 . S
C1407 C1401 1.429 . S
C1407 C1408 1.523 . S
C1408 C1389 1.368 . S
C1408 C1402 1.368 . S
C1408 C1407 1.523 . S
C1409 C1393 1.429 . S
C1409 C1405 1.429 . S
C1409 C1410 1.523 . S
C1410 C1394 1.368 . S
C1410 C1406 1.368 . S
C1410 C1409 1.523 . S
H1411 C1386 0.950 . S
H1412 C1388 0.950 . S
H1413 C1389 0.949 . S
H1414 C1391 0.950 . S
H1415 C1393 0.950 . S
C1416 C1417 1.349 . S
C1416 C1418 1.327 . S
C1416 H1441 0.950 . S
C1417 C1416 1.349 . S
C1417 C1433 1.349 . S
C1418 C1416 1.327 . S
C1418 C1437 1.429 . S
C1418 H1442 0.950 . S
C1419 C1436 1.574 . S
C1419 C1438 1.368 . S
C1419 H1443 0.949 . S
H1420 C1424 0.949 . S
C1421 C1422 1.349 . S
C1421 C1423 1.327 . S
C1421 H1444 0.950 . S
C1422 C1421 1.349 . S
C1422 C1434 1.349 . S
C1423 C1421 1.327 . S
C1423 C1439 1.429 . S
C1423 H1445 0.950 . S
C1424 H1420 0.949 . S
C1424 C1432 1.574 . S
C1424 C1440 1.368 . S
H1425 C1433 0.950 . S
H1426 C1431 0.950 . S
H1427 C1432 0.949 . S
H1428 C1434 0.950 . S
H1429 C1435 0.950 . S
H1430 C1436 0.949 . S
C1431 H1426 0.950 . S
C1431 C1433 1.327 . S
C1431 C1437 1.429 . S
C1432 C1424 1.574 . S
C1432 H1427 0.949 . S
C1432 C1438 1.368 . S
C1433 C1417 1.349 . S
C1433 H1425 0.950 . S
C1433 C1431 1.327 . S
C1434 C1422 1.349 . S
C1434 H1428 0.950 . S
C1434 C1435 1.327 . S
C1435 H1429 0.950 . S
C1435 C1434 1.327 . S
C1435 C1439 1.429 . S
C1436 C1419 1.574 . S
C1436 H1430 0.949 . S
C1436 C1440 1.368 . S
C1437 C1418 1.429 . S
C1437 C1431 1.429 . S
C1437 C1438 1.523 . S
C1438 C1419 1.368 . S
C1438 C1432 1.368 . S
C1438 C1437 1.523 . S
C1439 C1423 1.429 . S
C1439 C1435 1.429 . S
C1439 C1440 1.523 . S
C1440 C1424 1.368 . S
C1440 C1436 1.368 . S
C1440 C1439 1.523 . S
H1441 C1416 0.950 . S
H1442 C1418 0.950 . S
H1443 C1419 0.949 . S
H1444 C1421 0.950 . S
H1445 C1423 0.950 . S
C1446 C1447 1.349 . S
C1446 C1448 1.327 . S
C1446 H1471 0.950 . S
C1447 C1446 1.349 . S
C1447 C1463 1.349 . S
C1448 C1446 1.327 . S
C1448 C1467 1.429 . S
C1448 H1472 0.950 . S
C1449 C1466 1.574 . S
C1449 C1468 1.368 . S
C1449 H1473 0.949 . S
H1450 C1454 0.949 . S
C1451 C1452 1.349 . S
C1451 C1453 1.327 . S
C1451 H1474 0.950 . S
C1452 C1451 1.349 . S
C1452 C1464 1.349 . S
C1453 C1451 1.327 . S
C1453 C1469 1.429 . S
C1453 H1475 0.950 . S
C1454 H1450 0.949 . S
C1454 C1462 1.574 . S
C1454 C1470 1.368 . S
H1455 C1463 0.950 . S
H1456 C1461 0.950 . S
H1457 C1462 0.949 . S
H1458 C1464 0.950 . S
H1459 C1465 0.950 . S
H1460 C1466 0.949 . S
C1461 H1456 0.950 . S
C1461 C1463 1.327 . S
C1461 C1467 1.429 . S
C1462 C1454 1.574 . S
C1462 H1457 0.949 . S
C1462 C1468 1.368 . S
C1463 C1447 1.349 . S
C1463 H1455 0.950 . S
C1463 C1461 1.327 . S
C1464 C1452 1.349 . S
C1464 H1458 0.950 . S
C1464 C1465 1.327 . S
C1465 H1459 0.950 . S
C1465 C1464 1.327 . S
C1465 C1469 1.429 . S
C1466 C1449 1.574 . S
C1466 H1460 0.949 . S
C1466 C1470 1.368 . S
C1467 C1448 1.429 . S
C1467 C1461 1.429 . S
C1467 C1468 1.523 . S
C1468 C1449 1.368 . S
C1468 C1462 1.368 . S
C1468 C1467 1.523 . S
C1469 C1453 1.429 . S
C1469 C1465 1.429 . S
C1469 C1470 1.523 . S
C1470 C1454 1.368 . S
C1470 C1466 1.368 . S
C1470 C1469 1.523 . S
H1471 C1446 0.950 . S
H1472 C1448 0.950 . S
H1473 C1449 0.949 . S
H1474 C1451 0.950 . S
H1475 C1453 0.950 . S
C1476 C1477 1.349 . S
C1476 C1478 1.327 . S
C1476 H1501 0.950 . S
C1477 C1476 1.349 . S
C1477 C1493 1.349 . S
C1478 C1476 1.327 . S
C1478 C1497 1.429 . S
C1478 H1502 0.950 . S
C1479 C1496 1.574 . S
C1479 C1498 1.368 . S
C1479 H1503 0.949 . S
H1480 C1484 0.949 . S
C1481 C1482 1.349 . S
C1481 C1483 1.327 . S
C1481 H1504 0.950 . S
C1482 C1481 1.349 . S
C1482 C1494 1.349 . S
C1483 C1481 1.327 . S
C1483 C1499 1.429 . S
C1483 H1505 0.950 . S
C1484 H1480 0.949 . S
C1484 C1492 1.574 . S
C1484 C1500 1.368 . S
H1485 C1493 0.950 . S
H1486 C1491 0.950 . S
H1487 C1492 0.949 . S
H1488 C1494 0.950 . S
H1489 C1495 0.950 . S
H1490 C1496 0.949 . S
C1491 H1486 0.950 . S
C1491 C1493 1.327 . S
C1491 C1497 1.429 . S
C1492 C1484 1.574 . S
C1492 H1487 0.949 . S
C1492 C1498 1.368 . S
C1493 C1477 1.349 . S
C1493 H1485 0.950 . S
C1493 C1491 1.327 . S
C1494 C1482 1.349 . S
C1494 H1488 0.950 . S
C1494 C1495 1.327 . S
C1495 H1489 0.950 . S
C1495 C1494 1.327 . S
C1495 C1499 1.429 . S
C1496 C1479 1.574 . S
C1496 H1490 0.949 . S
C1496 C1500 1.368 . S
C1497 C1478 1.429 . S
C1497 C1491 1.429 . S
C1497 C1498 1.523 . S
C1498 C1479 1.368 . S
C1498 C1492 1.368 . S
C1498 C1497 1.523 . S
C1499 C1483 1.429 . S
C1499 C1495 1.429 . S
C1499 C1500 1.523 . S
C1500 C1484 1.368 . S
C1500 C1496 1.368 . S
C1500 C1499 1.523 . S
H1501 C1476 0.950 . S
H1502 C1478 0.950 . S
H1503 C1479 0.949 . S
H1504 C1481 0.950 . S
H1505 C1483 0.950 . S
C1506 C1507 1.349 . S
C1506 C1508 1.327 . S
C1506 H1531 0.950 . S
C1507 C1506 1.349 . S
C1507 C1523 1.349 . S
C1508 C1506 1.327 . S
C1508 C1527 1.429 . S
C1508 H1532 0.950 . S
C1509 C1526 1.574 . S
C1509 C1528 1.368 . S
C1509 H1533 0.949 . S
H1510 C1514 0.949 . S
C1511 C1512 1.349 . S
C1511 C1513 1.327 . S
C1511 H1534 0.950 . S
C1512 C1511 1.349 . S
C1512 C1524 1.349 . S
C1513 C1511 1.327 . S
C1513 C1529 1.429 . S
C1513 H1535 0.950 . S
C1514 H1510 0.949 . S
C1514 C1522 1.574 . S
C1514 C1530 1.368 . S
H1515 C1523 0.950 . S
H1516 C1521 0.950 . S
H1517 C1522 0.949 . S
H1518 C1524 0.950 . S
H1519 C1525 0.950 . S
H1520 C1526 0.949 . S
C1521 H1516 0.950 . S
C1521 C1523 1.327 . S
C1521 C1527 1.429 . S
C1522 C1514 1.574 . S
C1522 H1517 0.949 . S
C1522 C1528 1.368 . S
C1523 C1507 1.349 . S
C1523 H1515 0.950 . S
C1523 C1521 1.327 . S
C1524 C1512 1.349 . S
C1524 H1518 0.950 . S
C1524 C1525 1.327 . S
C1525 H1519 0.950 . S
C1525 C1524 1.327 . S
C1525 C1529 1.429 . S
C1526 C1509 1.574 . S
C1526 H1520 0.949 . S
C1526 C1530 1.368 . S
C1527 C1508 1.429 . S
C1527 C1521 1.429 . S
C1527 C1528 1.523 . S
C1528 C1509 1.368 . S
C1528 C1522 1.368 . S
C1528 C1527 1.523 . S
C1529 C1513 1.429 . S
C1529 C1525 1.429 . S
C1529 C1530 1.523 . S
C1530 C1514 1.368 . S
C1530 C1526 1.368 . S
C1530 C1529 1.523 . S
H1531 C1506 0.950 . S
H1532 C1508 0.950 . S
H1533 C1509 0.949 . S
H1534 C1511 0.950 . S
H1535 C1513 0.950 . S
C1536 C1537 1.349 . S
C1536 C1538 1.327 . S
C1536 H1561 0.950 . S
C1537 C1536 1.349 . S
C1537 C1553 1.349 . S
C1538 C1536 1.327 . S
C1538 C1557 1.429 . S
C1538 H1562 0.950 . S
C1539 C1556 1.574 . S
C1539 C1558 1.368 . S
C1539 H1563 0.949 . S
H1540 C1544 0.949 . S
C1541 C1542 1.349 . S
C1541 C1543 1.327 . S
C1541 H1564 0.950 . S
C1542 C1541 1.349 . S
C1542 C1554 1.349 . S
C1543 C1541 1.327 . S
C1543 C1559 1.429 . S
C1543 H1565 0.950 . S
C1544 H1540 0.949 . S
C1544 C1552 1.574 . S
C1544 C1560 1.368 . S
H1545 C1553 0.950 . S
H1546 C1551 0.950 . S
H1547 C1552 0.949 . S
H1548 C1554 0.950 . S
H1549 C1555 0.950 . S
H1550 C1556 0.949 . S
C1551 H1546 0.950 . S
C1551 C1553 1.327 . S
C1551 C1557 1.429 . S
C1552 C1544 1.574 . S
C1552 H1547 0.949 . S
C1552 C1558 1.368 . S
C1553 C1537 1.349 . S
C1553 H1545 0.950 . S
C1553 C1551 1.327 . S
C1554 C1542 1.349 . S
C1554 H1548 0.950 . S
C1554 C1555 1.327 . S
C1555 H1549 0.950 . S
C1555 C1554 1.327 . S
C1555 C1559 1.429 . S
C1556 C1539 1.574 . S
C1556 H1550 0.949 . S
C1556 C1560 1.368 . S
C1557 C1538 1.429 . S
C1557 C1551 1.429 . S
C1557 C1558 1.523 . S
C1558 C1539 1.368 . S
C1558 C1552 1.368 . S
C1558 C1557 1.523 . S
C1559 C1543 1.429 . S
C1559 C1555 1.429 . S
C1559 C1560 1.523 . S
C1560 C1544 1.368 . S
C1560 C1556 1.368 . S
C1560 C1559 1.523 . S
H1561 C1536 0.950 . S
H1562 C1538 0.950 . S
H1563 C1539 0.949 . S
H1564 C1541 0.950 . S
H1565 C1543 0.950 . S
C1566 C1567 1.349 . S
C1566 C1568 1.327 . S
C1566 H1591 0.950 . S
C1567 C1566 1.349 . S
C1567 C1583 1.349 . S
C1568 C1566 1.327 . S
C1568 C1587 1.429 . S
C1568 H1592 0.950 . S
C1569 C1586 1.574 . S
C1569 C1588 1.368 . S
C1569 H1593 0.949 . S
H1570 C1574 0.949 . S
C1571 C1572 1.349 . S
C1571 C1573 1.327 . S
C1571 H1594 0.950 . S
C1572 C1571 1.349 . S
C1572 C1584 1.349 . S
C1573 C1571 1.327 . S
C1573 C1589 1.429 . S
C1573 H1595 0.950 . S
C1574 H1570 0.949 . S
C1574 C1582 1.574 . S
C1574 C1590 1.368 . S
H1575 C1583 0.950 . S
H1576 C1581 0.950 . S
H1577 C1582 0.949 . S
H1578 C1584 0.950 . S
H1579 C1585 0.950 . S
H1580 C1586 0.949 . S
C1581 H1576 0.950 . S
C1581 C1583 1.327 . S
C1581 C1587 1.429 . S
C1582 C1574 1.574 . S
C1582 H1577 0.949 . S
C1582 C1588 1.368 . S
C1583 C1567 1.349 . S
C1583 H1575 0.950 . S
C1583 C1581 1.327 . S
C1584 C1572 1.349 . S
C1584 H1578 0.950 . S
C1584 C1585 1.327 . S
C1585 H1579 0.950 . S
C1585 C1584 1.327 . S
C1585 C1589 1.429 . S
C1586 C1569 1.574 . S
C1586 H1580 0.949 . S
C1586 C1590 1.368 . S
C1587 C1568 1.429 . S
C1587 C1581 1.429 . S
C1587 C1588 1.523 . S
C1588 C1569 1.368 . S
C1588 C1582 1.368 . S
C1588 C1587 1.523 . S
C1589 C1573 1.429 . S
C1589 C1585 1.429 . S
C1589 C1590 1.523 . S
C1590 C1574 1.368 . S
C1590 C1586 1.368 . S
C1590 C1589 1.523 . S
H1591 C1566 0.950 . S
H1592 C1568 0.950 . S
H1593 C1569 0.949 . S
H1594 C1571 0.950 . S
H1595 C1573 0.950 . S
C1596 C1597 1.349 . S
C1596 C1598 1.327 . S
C1596 H1621 0.950 . S
C1597 C1596 1.349 . S
C1597 C1613 1.349 . S
C1598 C1596 1.327 . S
C1598 C1617 1.429 . S
C1598 H1622 0.950 . S
C1599 C1616 1.574 . S
C1599 C1618 1.368 . S
C1599 H1623 0.949 . S
H1600 C1604 0.949 . S
C1601 C1602 1.349 . S
C1601 C1603 1.327 . S
C1601 H1624 0.950 . S
C1602 C1601 1.349 . S
C1602 C1614 1.349 . S
C1603 C1601 1.327 . S
C1603 C1619 1.429 . S
C1603 H1625 0.950 . S
C1604 H1600 0.949 . S
C1604 C1612 1.574 . S
C1604 C1620 1.368 . S
H1605 C1613 0.950 . S
H1606 C1611 0.950 . S
H1607 C1612 0.949 . S
H1608 C1614 0.950 . S
H1609 C1615 0.950 . S
H1610 C1616 0.949 . S
C1611 H1606 0.950 . S
C1611 C1613 1.327 . S
C1611 C1617 1.429 . S
C1612 C1604 1.574 . S
C1612 H1607 0.949 . S
C1612 C1618 1.368 . S
C1613 C1597 1.349 . S
C1613 H1605 0.950 . S
C1613 C1611 1.327 . S
C1614 C1602 1.349 . S
C1614 H1608 0.950 . S
C1614 C1615 1.327 . S
C1615 H1609 0.950 . S
C1615 C1614 1.327 . S
C1615 C1619 1.429 . S
C1616 C1599 1.574 . S
C1616 H1610 0.949 . S
C1616 C1620 1.368 . S
C1617 C1598 1.429 . S
C1617 C1611 1.429 . S
C1617 C1618 1.523 . S
C1618 C1599 1.368 . S
C1618 C1612 1.368 . S
C1618 C1617 1.523 . S
C1619 C1603 1.429 . S
C1619 C1615 1.429 . S
C1619 C1620 1.523 . S
C1620 C1604 1.368 . S
C1620 C1616 1.368 . S
C1620 C1619 1.523 . S
H1621 C1596 0.950 . S
H1622 C1598 0.950 . S
H1623 C1599 0.949 . S
H1624 C1601 0.950 . S
H1625 C1603 0.950 . S
C1626 C1627 1.349 . S
C1626 C1628 1.327 . S
C1626 H1651 0.950 . S
C1627 C1626 1.349 . S
C1627 C1643 1.349 . S
C1628 C1626 1.327 . S
C1628 C1647 1.429 . S
C1628 H1652 0.950 . S
C1629 C1646 1.574 . S
C1629 C1648 1.368 . S
C1629 H1653 0.949 . S
H1630 C1634 0.949 . S
C1631 C1632 1.349 . S
C1631 C1633 1.327 . S
C1631 H1654 0.950 . S
C1632 C1631 1.349 . S
C1632 C1644 1.349 . S
C1633 C1631 1.327 . S
C1633 C1649 1.429 . S
C1633 H1655 0.950 . S
C1634 H1630 0.949 . S
C1634 C1642 1.574 . S
C1634 C1650 1.368 . S
H1635 C1643 0.950 . S
H1636 C1641 0.950 . S
H1637 C1642 0.949 . S
H1638 C1644 0.950 . S
H1639 C1645 0.950 . S
H1640 C1646 0.949 . S
C1641 H1636 0.950 . S
C1641 C1643 1.327 . S
C1641 C1647 1.429 . S
C1642 C1634 1.574 . S
C1642 H1637 0.949 . S
C1642 C1648 1.368 . S
C1643 C1627 1.349 . S
C1643 H1635 0.950 . S
C1643 C1641 1.327 . S
C1644 C1632 1.349 . S
C1644 H1638 0.950 . S
C1644 C1645 1.327 . S
C1645 H1639 0.950 . S
C1645 C1644 1.327 . S
C1645 C1649 1.429 . S
C1646 C1629 1.574 . S
C1646 H1640 0.949 . S
C1646 C1650 1.368 . S
C1647 C1628 1.429 . S
C1647 C1641 1.429 . S
C1647 C1648 1.523 . S
C1648 C1629 1.368 . S
C1648 C1642 1.368 . S
C1648 C1647 1.523 . S
C1649 C1633 1.429 . S
C1649 C1645 1.429 . S
C1649 C1650 1.523 . S
C1650 C1634 1.368 . S
C1650 C1646 1.368 . S
C1650 C1649 1.523 . S
H1651 C1626 0.950 . S
H1652 C1628 0.950 . S
H1653 C1629 0.949 . S
H1654 C1631 0.950 . S
H1655 C1633 0.950 . S
C1656 C1657 1.349 . S
C1656 C1658 1.327 . S
C1656 H1681 0.950 . S
C1657 C1656 1.349 . S
C1657 C1673 1.349 . S
C1658 C1656 1.327 . S
C1658 C1677 1.429 . S
C1658 H1682 0.950 . S
C1659 C1676 1.574 . S
C1659 C1678 1.368 . S
C1659 H1683 0.949 . S
H1660 C1664 0.949 . S
C1661 C1662 1.349 . S
C1661 C1663 1.327 . S
C1661 H1684 0.950 . S
C1662 C1661 1.349 . S
C1662 C1674 1.349 . S
C1663 C1661 1.327 . S
C1663 C1679 1.429 . S
C1663 H1685 0.950 . S
C1664 H1660 0.949 . S
C1664 C1672 1.574 . S
C1664 C1680 1.368 . S
H1665 C1673 0.950 . S
H1666 C1671 0.950 . S
H1667 C1672 0.949 . S
H1668 C1674 0.950 . S
H1669 C1675 0.950 . S
H1670 C1676 0.949 . S
C1671 H1666 0.950 . S
C1671 C1673 1.327 . S
C1671 C1677 1.429 . S
C1672 C1664 1.574 . S
C1672 H1667 0.949 . S
C1672 C1678 1.368 . S
C1673 C1657 1.349 . S
C1673 H1665 0.950 . S
C1673 C1671 1.327 . S
C1674 C1662 1.349 . S
C1674 H1668 0.950 . S
C1674 C1675 1.327 . S
C1675 H1669 0.950 . S
C1675 C1674 1.327 . S
C1675 C1679 1.429 . S
C1676 C1659 1.574 . S
C1676 H1670 0.949 . S
C1676 C1680 1.368 . S
C1677 C1658 1.429 . S
C1677 C1671 1.429 . S
C1677 C1678 1.523 . S
C1678 C1659 1.368 . S
C1678 C1672 1.368 . S
C1678 C1677 1.523 . S
C1679 C1663 1.429 . S
C1679 C1675 1.429 . S
C1679 C1680 1.523 . S
C1680 C1664 1.368 . S
C1680 C1676 1.368 . S
C1680 C1679 1.523 . S
H1681 C1656 0.950 . S
H1682 C1658 0.950 . S
H1683 C1659 0.949 . S
H1684 C1661 0.950 . S
H1685 C1663 0.950 . S
C1686 C1687 1.349 . S
C1686 C1688 1.327 . S
C1686 H1711 0.950 . S
C1687 C1686 1.349 . S
C1687 C1703 1.349 . S
C1688 C1686 1.327 . S
C1688 C1707 1.429 . S
C1688 H1712 0.950 . S
C1689 C1706 1.574 . S
C1689 C1708 1.368 . S
C1689 H1713 0.949 . S
H1690 C1694 0.949 . S
C1691 C1692 1.349 . S
C1691 C1693 1.327 . S
C1691 H1714 0.950 . S
C1692 C1691 1.349 . S
C1692 C1704 1.349 . S
C1693 C1691 1.327 . S
C1693 C1709 1.429 . S
C1693 H1715 0.950 . S
C1694 H1690 0.949 . S
C1694 C1702 1.574 . S
C1694 C1710 1.368 . S
H1695 C1703 0.950 . S
H1696 C1701 0.950 . S
H1697 C1702 0.949 . S
H1698 C1704 0.950 . S
H1699 C1705 0.950 . S
H1700 C1706 0.949 . S
C1701 H1696 0.950 . S
C1701 C1703 1.327 . S
C1701 C1707 1.429 . S
C1702 C1694 1.574 . S
C1702 H1697 0.949 . S
C1702 C1708 1.368 . S
C1703 C1687 1.349 . S
C1703 H1695 0.950 . S
C1703 C1701 1.327 . S
C1704 C1692 1.349 . S
C1704 H1698 0.950 . S
C1704 C1705 1.327 . S
C1705 H1699 0.950 . S
C1705 C1704 1.327 . S
C1705 C1709 1.429 . S
C1706 C1689 1.574 . S
C1706 H1700 0.949 . S
C1706 C1710 1.368 . S
C1707 C1688 1.429 . S
C1707 C1701 1.429 . S
C1707 C1708 1.523 . S
C1708 C1689 1.368 . S
C1708 C1702 1.368 . S
C1708 C1707 1.523 . S
C1709 C1693 1.429 . S
C1709 C1705 1.429 . S
C1709 C1710 1.523 . S
C1710 C1694 1.368 . S
C1710 C1706 1.368 . S
C1710 C1709 1.523 . S
H1711 C1686 0.950 . S
H1712 C1688 0.950 . S
H1713 C1689 0.949 . S
H1714 C1691 0.950 . S
H1715 C1693 0.950 . S
C1716 C1717 1.349 . S
C1716 C1718 1.327 . S
C1716 H1741 0.950 . S
C1717 C1716 1.349 . S
C1717 C1733 1.349 . S
C1718 C1716 1.327 . S
C1718 C1737 1.429 . S
C1718 H1742 0.950 . S
C1719 C1736 1.574 . S
C1719 C1738 1.368 . S
C1719 H1743 0.949 . S
H1720 C1724 0.949 . S
C1721 C1722 1.349 . S
C1721 C1723 1.327 . S
C1721 H1744 0.950 . S
C1722 C1721 1.349 . S
C1722 C1734 1.349 . S
C1723 C1721 1.327 . S
C1723 C1739 1.429 . S
C1723 H1745 0.950 . S
C1724 H1720 0.949 . S
C1724 C1732 1.574 . S
C1724 C1740 1.368 . S
H1725 C1733 0.950 . S
H1726 C1731 0.950 . S
H1727 C1732 0.949 . S
H1728 C1734 0.950 . S
H1729 C1735 0.950 . S
H1730 C1736 0.949 . S
C1731 H1726 0.950 . S
C1731 C1733 1.327 . S
C1731 C1737 1.429 . S
C1732 C1724 1.574 . S
C1732 H1727 0.949 . S
C1732 C1738 1.368 . S
C1733 C1717 1.349 . S
C1733 H1725 0.950 . S
C1733 C1731 1.327 . S
C1734 C1722 1.349 . S
C1734 H1728 0.950 . S
C1734 C1735 1.327 . S
C1735 H1729 0.950 . S
C1735 C1734 1.327 . S
C1735 C1739 1.429 . S
C1736 C1719 1.574 . S
C1736 H1730 0.949 . S
C1736 C1740 1.368 . S
C1737 C1718 1.429 . S
C1737 C1731 1.429 . S
C1737 C1738 1.523 . S
C1738 C1719 1.368 . S
C1738 C1732 1.368 . S
C1738 C1737 1.523 . S
C1739 C1723 1.429 . S
C1739 C1735 1.429 . S
C1739 C1740 1.523 . S
C1740 C1724 1.368 . S
C1740 C1736 1.368 . S
C1740 C1739 1.523 . S
H1741 C1716 0.950 . S
H1742 C1718 0.950 . S
H1743 C1719 0.949 . S
H1744 C1721 0.950 . S
H1745 C1723 0.950 . S
C1746 C1747 1.349 . S
C1746 C1748 1.327 . S
C1746 H1771 0.950 . S
C1747 C1746 1.349 . S
C1747 C1763 1.349 . S
C1748 C1746 1.327 . S
C1748 C1767 1.429 . S
C1748 H1772 0.950 . S
C1749 C1766 1.574 . S
C1749 C1768 1.368 . S
C1749 H1773 0.949 . S
H1750 C1754 0.949 . S
C1751 C1752 1.349 . S
C1751 C1753 1.327 . S
C1751 H1774 0.950 . S
C1752 C1751 1.349 . S
C1752 C1764 1.349 . S
C1753 C1751 1.327 . S
C1753 C1769 1.429 . S
C1753 H1775 0.950 . S
C1754 H1750 0.949 . S
C1754 C1762 1.574 . S
C1754 C1770 1.368 . S
H1755 C1763 0.950 . S
H1756 C1761 0.950 . S
H1757 C1762 0.949 . S
H1758 C1764 0.950 . S
H1759 C1765 0.950 . S
H1760 C1766 0.949 . S
C1761 H1756 0.950 . S
C1761 C1763 1.327 . S
C1761 C1767 1.429 . S
C1762 C1754 1.574 . S
C1762 H1757 0.949 . S
C1762 C1768 1.368 . S
C1763 C1747 1.349 . S
C1763 H1755 0.950 . S
C1763 C1761 1.327 . S
C1764 C1752 1.349 . S
C1764 H1758 0.950 . S
C1764 C1765 1.327 . S
C1765 H1759 0.950 . S
C1765 C1764 1.327 . S
C1765 C1769 1.429 . S
C1766 C1749 1.574 . S
C1766 H1760 0.949 . S
C1766 C1770 1.368 . S
C1767 C1748 1.429 . S
C1767 C1761 1.429 . S
C1767 C1768 1.523 . S
C1768 C1749 1.368 . S
C1768 C1762 1.368 . S
C1768 C1767 1.523 . S
C1769 C1753 1.429 . S
C1769 C1765 1.429 . S
C1769 C1770 1.523 . S
C1770 C1754 1.368 . S
C1770 C1766 1.368 . S
C1770 C1769 1.523 . S
H1771 C1746 0.950 . S
H1772 C1748 0.950 . S
H1773 C1749 0.949 . S
H1774 C1751 0.950 . S
H1775 C1753 0.950 . S
C337 C12 1.367 . S
C342 C110 1.367 . S
C367 C124 1.367 . S
C372 C26 1.367 . S
C397 C40 1.367 . S
C402 C138 1.367 . S
C427 C54 1.367 . S
C432 C152 1.367 . S
C457 C166 1.366 . S
C462 C68 1.366 . S
C487 C82 1.367 . S
C492 C96 1.367 . S
C517 C173 1.012 . S
C522 C271 1.012 . S
C547 C187 1.012 . S
C552 C285 1.012 . S
C577 C299 1.012 . S
C582 C201 1.012 . S
C607 C215 1.012 . S
C612 C313 1.012 . S
C637 C229 1.012 . S
C642 C327 1.012 . S
C667 C257 1.012 . S
C672 C243 1.012 . S
C697 C5 0.880 . S
C702 C117 0.880 . S
C727 C131 0.880 . S
C732 C19 0.880 . S
C757 C145 0.880 . S
C762 C33 0.880 . S
C787 C47 0.880 . S
C792 C159 0.880 . S
C817 C61 0.880 . S
C822 C89 0.880 . S
C847 C75 0.880 . S
C852 C103 0.880 . S
C877 C292 1.255 . S
C882 C180 1.255 . S
C907 C194 1.255 . S
C912 C306 1.255 . S
C937 C320 1.255 . S
C942 C208 1.255 . S
C967 C334 1.255 . S
C972 C222 1.255 . S
C997 C264 1.255 . S
C1002 C236 1.255 . S
C1027 C250 1.255 . S
C1032 C278 1.255 . S
C1057 C11 1.488 . S
C1062 C221 1.493 . S
C1087 C235 1.493 . S
C1092 C25 1.488 . S
C1117 C249 1.493 . S
C1122 C39 1.488 . S
C1147 C53 1.488 . S
C1152 C179 1.493 . S
C1177 C67 1.488 . S
C1182 C193 1.493 . S
C1207 C207 1.493 . S
C1212 C81 1.488 . S
C1237 C305 1.493 . S
C1242 C95 1.488 . S
C1267 C319 1.493 . S
C1272 C109 1.488 . S
C1297 C333 1.493 . S
C1302 C123 1.488 . S
C1327 C263 1.493 . S
C1332 C137 1.488 . S
C1357 C151 1.488 . S
C1362 C277 1.493 . S
C1387 C165 1.488 . S
C1392 C291 1.493 . S
C1417 C4 1.447 . S
C1422 C144 1.447 . S
C1447 C158 1.447 . S
C1452 C18 1.447 . S
C1477 C88 1.447 . S
C1482 C32 1.447 . S
C1507 C46 1.447 . S
C1512 C102 1.447 . S
C1537 C60 1.447 . S
C1542 C116 1.447 . S
C1567 C74 1.447 . S
C1572 C130 1.447 . S
C1597 C172 1.490 . S
C1602 C312 1.490 . S
C1627 C186 1.490 . S
C1632 C326 1.490 . S
C1657 C200 1.490 . S
C1662 C256 1.490 . S
C1687 C270 1.490 . S
C1692 C214 1.490 . S
C1717 C228 1.490 . S
C1722 C284 1.490 . S
C1747 C242 1.490 . S
C1752 C298 1.490 . S
