# Generated by pormake.
# Topology wiv, (6)-cn, num edge types: 1
# Building blocks:
#     Node 0, Type 0, BuildingBlock: HISSIN_clean_sbu_0, # of connection points: 6
#     Node 1, Type 0, BuildingBlock: HISSIN_clean_sbu_0, # of connection points: 6
#     Node 2, Type 0, BuildingBlock: HISSIN_clean_sbu_0, # of connection points: 6
#     Node 3, Type 0, BuildingBlock: HISSIN_clean_sbu_0, # of connection points: 6
#     Node 4, Type 0, BuildingBlock: HISSIN_clean_sbu_0, # of connection points: 6
#     Node 5, Type 0, BuildingBlock: HISSIN_clean_sbu_0, # of connection points: 6
#     Node 6, Type 0, BuildingBlock: HISSIN_clean_sbu_0, # of connection points: 6
#     Node 7, Type 0, BuildingBlock: HISSIN_clean_sbu_0, # of connection points: 6
#     Node 8, Type 0, BuildingBlock: HISSIN_clean_sbu_0, # of connection points: 6
#     Node 9, Type 0, BuildingBlock: HISSIN_clean_sbu_0, # of connection points: 6
#     Node 10, Type 0, BuildingBlock: HISSIN_clean_sbu_0, # of connection points: 6
#     Node 11, Type 0, BuildingBlock: HISSIN_clean_sbu_0, # of connection points: 6
#     Node 12, Type 0, BuildingBlock: HISSIN_clean_sbu_0, # of connection points: 6
#     Node 13, Type 0, BuildingBlock: HISSIN_clean_sbu_0, # of connection points: 6
#     Node 14, Type 0, BuildingBlock: HISSIN_clean_sbu_0, # of connection points: 6
#     Node 15, Type 0, BuildingBlock: HISSIN_clean_sbu_0, # of connection points: 6
#     Edge 16, Type (0, 0), BuildingBlock: OJICUG_clean_linker_0, # of connection points: 2
#     Edge 17, Type (0, 0), BuildingBlock: OJICUG_clean_linker_0, # of connection points: 2
#     Edge 18, Type (0, 0), BuildingBlock: OJICUG_clean_linker_0, # of connection points: 2
#     Edge 19, Type (0, 0), BuildingBlock: OJICUG_clean_linker_0, # of connection points: 2
#     Edge 20, Type (0, 0), BuildingBlock: OJICUG_clean_linker_0, # of connection points: 2
#     Edge 21, Type (0, 0), BuildingBlock: OJICUG_clean_linker_0, # of connection points: 2
#     Edge 22, Type (0, 0), BuildingBlock: OJICUG_clean_linker_0, # of connection points: 2
#     Edge 23, Type (0, 0), BuildingBlock: OJICUG_clean_linker_0, # of connection points: 2
#     Edge 24, Type (0, 0), BuildingBlock: OJICUG_clean_linker_0, # of connection points: 2
#     Edge 25, Type (0, 0), BuildingBlock: OJICUG_clean_linker_0, # of connection points: 2
#     Edge 26, Type (0, 0), BuildingBlock: OJICUG_clean_linker_0, # of connection points: 2
#     Edge 27, Type (0, 0), BuildingBlock: OJICUG_clean_linker_0, # of connection points: 2
#     Edge 28, Type (0, 0), BuildingBlock: OJICUG_clean_linker_0, # of connection points: 2
#     Edge 29, Type (0, 0), BuildingBlock: OJICUG_clean_linker_0, # of connection points: 2
#     Edge 30, Type (0, 0), BuildingBlock: OJICUG_clean_linker_0, # of connection points: 2
#     Edge 31, Type (0, 0), BuildingBlock: OJICUG_clean_linker_0, # of connection points: 2
#     Edge 32, Type (0, 0), BuildingBlock: OJICUG_clean_linker_0, # of connection points: 2
#     Edge 33, Type (0, 0), BuildingBlock: OJICUG_clean_linker_0, # of connection points: 2
#     Edge 34, Type (0, 0), BuildingBlock: OJICUG_clean_linker_0, # of connection points: 2
#     Edge 35, Type (0, 0), BuildingBlock: OJICUG_clean_linker_0, # of connection points: 2
#     Edge 36, Type (0, 0), BuildingBlock: OJICUG_clean_linker_0, # of connection points: 2
#     Edge 37, Type (0, 0), BuildingBlock: OJICUG_clean_linker_0, # of connection points: 2
#     Edge 38, Type (0, 0), BuildingBlock: OJICUG_clean_linker_0, # of connection points: 2
#     Edge 39, Type (0, 0), BuildingBlock: OJICUG_clean_linker_0, # of connection points: 2
#     Edge 40, Type (0, 0), BuildingBlock: OJICUG_clean_linker_0, # of connection points: 2
#     Edge 41, Type (0, 0), BuildingBlock: OJICUG_clean_linker_0, # of connection points: 2
#     Edge 42, Type (0, 0), BuildingBlock: OJICUG_clean_linker_0, # of connection points: 2
#     Edge 43, Type (0, 0), BuildingBlock: OJICUG_clean_linker_0, # of connection points: 2
#     Edge 44, Type (0, 0), BuildingBlock: OJICUG_clean_linker_0, # of connection points: 2
#     Edge 45, Type (0, 0), BuildingBlock: OJICUG_clean_linker_0, # of connection points: 2
#     Edge 46, Type (0, 0), BuildingBlock: OJICUG_clean_linker_0, # of connection points: 2
#     Edge 47, Type (0, 0), BuildingBlock: OJICUG_clean_linker_0, # of connection points: 2
#     Edge 48, Type (0, 0), BuildingBlock: OJICUG_clean_linker_0, # of connection points: 2
#     Edge 49, Type (0, 0), BuildingBlock: OJICUG_clean_linker_0, # of connection points: 2
#     Edge 50, Type (0, 0), BuildingBlock: OJICUG_clean_linker_0, # of connection points: 2
#     Edge 51, Type (0, 0), BuildingBlock: OJICUG_clean_linker_0, # of connection points: 2
#     Edge 52, Type (0, 0), BuildingBlock: OJICUG_clean_linker_0, # of connection points: 2
#     Edge 53, Type (0, 0), BuildingBlock: OJICUG_clean_linker_0, # of connection points: 2
#     Edge 54, Type (0, 0), BuildingBlock: OJICUG_clean_linker_0, # of connection points: 2
#     Edge 55, Type (0, 0), BuildingBlock: OJICUG_clean_linker_0, # of connection points: 2
#     Edge 56, Type (0, 0), BuildingBlock: OJICUG_clean_linker_0, # of connection points: 2
#     Edge 57, Type (0, 0), BuildingBlock: OJICUG_clean_linker_0, # of connection points: 2
#     Edge 58, Type (0, 0), BuildingBlock: OJICUG_clean_linker_0, # of connection points: 2
#     Edge 59, Type (0, 0), BuildingBlock: OJICUG_clean_linker_0, # of connection points: 2
#     Edge 60, Type (0, 0), BuildingBlock: OJICUG_clean_linker_0, # of connection points: 2
#     Edge 61, Type (0, 0), BuildingBlock: OJICUG_clean_linker_0, # of connection points: 2
#     Edge 62, Type (0, 0), BuildingBlock: OJICUG_clean_linker_0, # of connection points: 2
#     Edge 63, Type (0, 0), BuildingBlock: OJICUG_clean_linker_0, # of connection points: 2
# Relax obj value: 0.174
# Max RMSD: 0.223
# Mean RMSD: 0.223
data_MOF--net-wiv--node1-HISSIN_clean_sbu_0--edge1-OJICUG_clean_linker_0
_symmetry_space_group_name_H-M    P1
_symmetry_Int_Tables_number       1
_symmetry_cell_setting            triclinic
loop_
_symmetry_equiv_pos_as_xyz
'x, y, z'
_cell_length_a     35.781556
_cell_length_b     35.827149
_cell_length_c     20.059036
_cell_angle_alpha  90.09623
_cell_angle_beta   90.001448
_cell_angle_gamma 90.195111
loop_
_atom_site_label
_atom_site_type_symbol
_atom_site_fract_x
_atom_site_fract_y
_atom_site_fract_z
_atom_type_partial_charge
Eu0 Eu 0.31647 0.07657 0.19807 0.0
Eu1 Eu 0.38191 0.086 0.08056 0.0
C2 C 0.36804 0.01157 0.15874 0.0
C3 C 0.28304 0.06602 0.37313 0.0
C4 C 0.28236 0.03525 0.41642 0.0
C5 C 0.30891 0.10393 0.46314 0.0
C6 C 0.29528 0.03862 0.48211 0.0
C7 C 0.296 0.10054 0.39747 0.0
C8 C 0.30946 0.07284 0.50599 0.0
C9 C 0.27518 0.06042 0.3012 0.0
O10 O 0.32842 0.06636 1.03266 0.0
O11 O 0.2829 0.08707 0.10356 0.0
C12 C 0.29416 0.07769 1.0432 0.0
O13 O 0.32747 0.13787 0.19994 0.0
O14 O 0.418 0.05833 1.00804 0.0
O15 O 0.41036 0.11808 1.00267 0.0
O16 O 0.36632 0.14548 0.1084 0.0
C17 C 0.34681 0.15887 0.15892 0.0
O18 O 0.37114 0.08679 0.25308 0.0
O19 O 0.41685 0.09572 0.17217 0.0
O20 O 0.39464 0.03456 0.14097 0.0
O21 O 0.26982 0.09011 0.26457 0.0
O22 O 0.29693 0.03635 0.27185 0.0
O23 O 0.3335 0.02232 0.15094 0.0
C24 C 0.40884 0.08471 0.90024 0.0
C25 C 0.40921 0.11608 0.85826 0.0
C26 C 0.37854 0.04916 0.81125 0.0
C27 C 0.39386 0.11421 0.794 0.0
C28 C 0.39378 0.05105 0.87548 0.0
C29 C 0.37783 0.08085 0.76989 0.0
C30 C 0.42112 0.08811 0.97099 0.0
C31 C 0.40584 0.09412 0.23487 0.0
H32 H 0.27293 0.00823 0.39872 0.0
H33 H 0.319 0.13086 0.48003 0.0
H34 H 0.29552 0.01398 0.5133 0.0
H35 H 0.29728 0.12474 0.36524 0.0
H36 H 0.42049 0.14242 0.87584 0.0
H37 H 0.36718 0.02278 0.79412 0.0
H38 H 0.39361 0.13929 0.76396 0.0
H39 H 0.39298 0.02622 0.90614 0.0
Eu40 Eu 0.08741 0.61083 1.01458 0.0
Eu41 Eu 0.08072 0.67425 0.89647 0.0
C42 C 0.16045 0.64622 0.94431 0.0
C43 C 0.08675 0.58243 0.19431 0.0
C44 C 0.11912 0.5844 0.23391 0.0
C45 C 0.05124 0.60919 0.28656 0.0
C46 C 0.11771 0.59923 0.29856 0.0
C47 C 0.05265 0.59441 0.22198 0.0
C48 C 0.08384 0.61236 0.32541 0.0
C49 C 0.08923 0.57083 0.12312 0.0
O50 O 0.08302 0.6184 0.84275 0.0
O51 O 0.10628 0.57888 0.92395 0.0
C52 C 0.098 0.58647 0.86135 0.0
O53 O 0.03614 0.59714 0.95228 0.0
O54 O 0.10217 0.7174 0.8293 0.0
O55 O 0.04388 0.70166 0.82501 0.0
O56 O 0.02406 0.65801 0.93474 0.0
C57 C 0.01329 0.62315 0.93134 0.0
O58 O 0.06364 0.66298 0.05907 0.0
O59 O 0.09142 0.70649 0.99291 0.0
O60 O 0.13991 0.6547 0.89259 0.0
O61 O 0.05921 0.57508 0.08699 0.0
O62 O 0.11926 0.5811 0.09096 0.0
O63 O 0.14501 0.63746 1.00196 0.0
C64 C 0.07485 0.70798 0.72194 0.0
C65 C 0.04263 0.70609 0.68196 0.0
C66 C 0.11108 0.6832 0.629 0.0
C67 C 0.04449 0.69236 0.61662 0.0
C68 C 0.1092 0.6968 0.69436 0.0
C69 C 0.07866 0.68016 0.58963 0.0
C70 C 0.07157 0.71758 0.79376 0.0
C71 C 0.07797 0.69627 0.05136 0.0
H72 H 0.14581 0.5754 0.2142 0.0
H73 H 0.02453 0.61828 0.30596 0.0
H74 H 0.14345 0.60143 0.32672 0.0
H75 H 0.02704 0.59318 0.19329 0.0
H76 H 0.01574 0.71428 0.70193 0.0
H77 H 0.13797 0.67474 0.6095 0.0
H78 H 0.0189 0.69021 0.58805 0.0
H79 H 0.13462 0.69776 0.72362 0.0
Eu80 Eu 0.67127 0.88694 0.18812 0.0
Eu81 Eu 0.60408 0.89394 0.07532 0.0
C82 C 0.63175 0.96388 0.16617 0.0
C83 C 0.69993 0.88422 0.36726 0.0
C84 C 0.6853 0.91786 0.39236 0.0
C85 C 0.68684 0.85506 0.47466 0.0
C86 C 0.6714 0.91999 0.45756 0.0
C87 C 0.70083 0.85297 0.40947 0.0
C88 C 0.67149 0.88848 0.4994 0.0
C89 C 0.71128 0.88045 0.29616 0.0
O90 O 0.65848 0.89096 1.01961 0.0
O91 O 0.70717 0.89107 0.09461 0.0
C92 C 0.69433 0.89109 1.03281 0.0
O93 O 0.66731 0.83136 0.13752 0.0
O94 O 0.5793 0.93021 0.99982 0.0
O95 O 0.56379 0.87177 1.00334 0.0
O96 O 0.60578 0.83303 0.10697 0.0
C97 C 0.6358 0.81429 0.12428 0.0
O98 O 0.61527 0.88497 0.24278 0.0
O99 O 0.56786 0.88627 0.1645 0.0
O100 O 0.603 0.94731 0.13768 0.0
O101 O 0.69703 0.85196 0.26449 0.0
O102 O 0.71111 0.91058 0.25959 0.0
O103 O 0.66434 0.94765 0.16742 0.0
C104 C 0.57537 0.89865 0.89634 0.0
C105 C 0.5916 0.8656 0.87192 0.0
C106 C 0.58795 0.92805 0.78888 0.0
C107 C 0.60599 0.86388 0.80703 0.0
C108 C 0.57331 0.92969 0.85373 0.0
C109 C 0.60482 0.89521 0.76486 0.0
C110 C 0.56423 0.90225 0.96758 0.0
C111 C 0.57954 0.88392 0.22644 0.0
H112 H 0.68392 0.94247 0.36135 0.0
H113 H 0.68804 0.83039 0.50569 0.0
H114 H 0.65953 0.94611 0.47444 0.0
H115 H 0.71194 0.82669 0.39167 0.0
H116 H 0.59421 0.84126 0.9035 0.0
H117 H 0.58615 0.95259 0.75759 0.0
H118 H 0.61915 0.83828 0.79065 0.0
H119 H 0.56119 0.95559 0.87121 0.0
Eu120 Eu 0.8958 0.38237 1.02172 0.0
Eu121 Eu 0.91036 0.3181 0.90471 0.0
C122 C 0.82606 0.34497 0.9397 0.0
C123 C 0.8966 0.41098 0.20106 0.0
C124 C 0.86662 0.41226 0.24621 0.0
C125 C 0.93434 0.38108 0.28716 0.0
C126 C 0.87021 0.39756 0.31066 0.0
C127 C 0.93067 0.39556 0.22262 0.0
C128 C 0.90402 0.38134 0.33193 0.0
C129 C 0.89091 0.42224 0.13035 0.0
O130 O 0.90431 0.37358 0.85091 0.0
O131 O 0.87839 0.41345 0.92932 0.0
C132 C 0.88771 0.40509 0.86744 0.0
O133 O 0.94793 0.39708 0.96347 0.0
O134 O 0.89872 0.27191 0.83597 0.0
O135 O 0.95223 0.30022 0.83234 0.0
O136 O 0.96267 0.33664 0.95662 0.0
C137 C 0.97247 0.37143 0.94837 0.0
O138 O 0.91662 0.33024 0.0715 0.0
O139 O 0.90077 0.28346 0.99875 0.0
O140 O 0.84885 0.3288 0.89734 0.0
O141 O 0.92027 0.42251 0.09163 0.0
O142 O 0.86195 0.4075 0.1007 0.0
O143 O 0.83767 0.3622 0.99412 0.0
C144 C 0.92374 0.2877 0.72902 0.0
C145 C 0.95501 0.28971 0.68675 0.0
C146 C 0.8853 0.31213 0.63871 0.0
C147 C 0.95152 0.30293 0.62127 0.0
C148 C 0.88875 0.29876 0.704 0.0
C149 C 0.9167 0.31493 0.59676 0.0
C150 C 0.92876 0.27863 0.80071 0.0
C151 C 0.90831 0.29521 0.05979 0.0
H152 H 0.83996 0.42366 0.23094 0.0
H153 H 0.96104 0.36954 0.30178 0.0
H154 H 0.84603 0.39795 0.34307 0.0
H155 H 0.95437 0.39386 0.18921 0.0
H156 H 0.98238 0.28183 0.70494 0.0
H157 H 0.858 0.32069 0.62126 0.0
H158 H 0.97634 0.30494 0.59058 0.0
H159 H 0.86413 0.29804 0.73536 0.0
Eu160 Eu 0.31272 0.39251 0.15117 0.0
Eu161 Eu 0.38044 0.3961 0.26585 0.0
C162 C 0.35578 0.46648 0.17852 0.0
C163 C 0.28202 0.39428 0.97225 0.0
C164 C 0.28735 0.42884 0.94021 0.0
C165 C 0.3034 0.36307 0.87097 0.0
C166 C 0.30111 0.43047 0.87476 0.0
C167 C 0.28947 0.36143 0.93613 0.0
C168 C 0.31006 0.3976 0.83978 0.0
C169 C 0.27117 0.39231 1.04398 0.0
O170 O 0.3259 0.39947 0.32029 0.0
O171 O 0.27737 0.39382 0.24544 0.0
C172 C 0.29015 0.39723 0.30698 0.0
O173 O 0.31636 0.33419 0.19056 0.0
O174 O 0.41012 0.43171 0.33716 0.0
O175 O 0.41743 0.37189 0.34089 0.0
O176 O 0.37475 0.33483 0.23923 0.0
C177 C 0.34585 0.31697 0.21387 0.0
O178 O 0.36859 0.38948 0.09624 0.0
O179 O 0.41455 0.38157 0.17646 0.0
O180 O 0.38465 0.44824 0.20196 0.0
O181 O 0.28064 0.36208 0.07581 0.0
O182 O 0.27693 0.42205 0.08016 0.0
O183 O 0.32249 0.45163 0.18223 0.0
C184 C 0.40916 0.40342 0.44467 0.0
C185 C 0.40493 0.36969 0.47979 0.0
C186 C 0.38393 0.43642 0.54142 0.0
C187 C 0.38981 0.36926 0.54423 0.0
C188 C 0.39905 0.43685 0.47689 0.0
C189 C 0.37864 0.40256 0.57574 0.0
C190 C 0.42093 0.40339 0.37322 0.0
C191 C 0.4034 0.38263 0.11406 0.0
H192 H 0.28159 0.45473 0.96612 0.0
H193 H 0.30918 0.33718 0.84506 0.0
H194 H 0.30588 0.45756 0.85236 0.0
H195 H 0.28522 0.33429 0.95867 0.0
H196 H 0.41239 0.34336 0.45685 0.0
H197 H 0.37636 0.46271 0.56439 0.0
H198 H 0.38592 0.34258 0.56858 0.0
H199 H 0.4021 0.46341 0.45171 0.0
Eu200 Eu 0.39159 0.60752 0.83204 0.0
Eu201 Eu 0.40331 0.67034 0.95024 0.0
C202 C 0.32133 0.64548 0.90611 0.0
C203 C 0.39139 0.57877 0.65243 0.0
C204 C 0.35998 0.57955 0.61041 0.0
C205 C 0.42842 0.60631 0.56272 0.0
C206 C 0.36257 0.59416 0.54577 0.0
C207 C 0.42581 0.59177 0.62731 0.0
C208 C 0.39672 0.60829 0.52139 0.0
C209 C 0.38741 0.56748 0.72349 0.0
O210 O 0.39908 0.61446 1.00318 0.0
O211 O 0.37251 0.57602 0.92319 0.0
C212 C 0.38228 0.58316 0.98539 0.0
O213 O 0.44273 0.59265 0.89274 0.0
O214 O 0.38716 0.71575 1.01735 0.0
O215 O 0.4427 0.69227 1.02367 0.0
O216 O 0.45812 0.65305 0.90549 0.0
C217 C 0.4674 0.61793 0.91027 0.0
O218 O 0.41671 0.65877 0.78606 0.0
O219 O 0.39339 0.70371 0.85482 0.0
O220 O 0.3429 0.65385 0.95678 0.0
O221 O 0.41737 0.56953 0.76045 0.0
O222 O 0.35803 0.58003 0.7548 0.0
O223 O 0.33554 0.6359 0.84792 0.0
C224 C 0.41224 0.70348 0.12546 0.0
C225 C 0.44336 0.70345 0.16814 0.0
C226 C 0.3746 0.67748 0.21554 0.0
C227 C 0.44032 0.68999 0.23348 0.0
C228 C 0.37769 0.69077 0.15018 0.0
C229 C 0.40602 0.67617 0.2577 0.0
C230 C 0.41727 0.71212 0.05371 0.0
C231 C 0.40489 0.69287 0.79531 0.0
H232 H 0.33309 0.56981 0.62825 0.0
H233 H 0.45534 0.61618 0.54533 0.0
H234 H 0.33749 0.59544 0.51568 0.0
H235 H 0.45071 0.59159 0.65798 0.0
H236 H 0.47039 0.71274 0.15021 0.0
H237 H 0.34759 0.66777 0.23275 0.0
H238 H 0.46521 0.6892 0.26413 0.0
H239 H 0.35316 0.69012 0.11855 0.0
Eu240 Eu 0.66633 0.57491 0.15347 0.0
Eu241 Eu 0.59988 0.58457 0.26971 0.0
C242 C 0.61505 0.50987 0.19241 0.0
C243 C 0.69616 0.56418 0.97739 0.0
C244 C 0.70086 0.53535 0.93071 0.0
C245 C 0.66394 0.60052 0.89237 0.0
C246 C 0.68716 0.53898 0.86548 0.0
C247 C 0.67764 0.59686 0.95744 0.0
C248 C 0.6681 0.57149 0.8455 0.0
C249 C 0.70562 0.55794 0.04847 0.0
O250 O 0.65397 0.56947 0.32056 0.0
O251 O 0.70073 0.58527 0.24737 0.0
C252 C 0.68892 0.57841 0.30856 0.0
O253 O 0.65565 0.63621 0.15209 0.0
O254 O 0.56861 0.5554 0.34766 0.0
O255 O 0.56559 0.61558 0.34102 0.0
O256 O 0.61513 0.64424 0.24126 0.0
C257 C 0.63541 0.65739 0.19138 0.0
O258 O 0.61213 0.58616 0.09817 0.0
O259 O 0.56512 0.59192 0.17737 0.0
O260 O 0.58807 0.53258 0.20893 0.0
O261 O 0.71255 0.58737 0.08528 0.0
O262 O 0.68375 0.53423 0.07872 0.0
O263 O 0.64926 0.52123 0.2023 0.0
C264 C 0.57133 0.58865 0.44907 0.0
C265 C 0.60215 0.61076 0.46772 0.0
C266 C 0.56907 0.56403 0.56234 0.0
C267 C 0.6167 0.60903 0.5325 0.0
C268 C 0.55461 0.56569 0.49732 0.0
C269 C 0.60082 0.58516 0.58063 0.0
C270 C 0.55949 0.58624 0.3782 0.0
C271 C 0.57702 0.59189 0.11518 0.0
H272 H 0.71455 0.50966 0.94509 0.0
H273 H 0.64885 0.62566 0.87965 0.0
H274 H 0.69146 0.51622 0.83078 0.0
H275 H 0.67266 0.6192 0.99277 0.0
H276 H 0.61609 0.6283 0.43141 0.0
H277 H 0.5555 0.54589 0.59809 0.0
H278 H 0.64145 0.62531 0.5438 0.0
H279 H 0.5309 0.54827 0.48423 0.0
Eu280 Eu 0.58888 0.37777 0.82848 0.0
Eu281 Eu 0.59896 0.31017 0.94034 0.0
C282 C 0.66923 0.34506 0.8716 0.0
C283 C 0.58644 0.40559 0.64908 0.0
C284 C 0.61978 0.3895 0.62549 0.0
C285 C 0.55754 0.39165 0.5414 0.0
C286 C 0.62188 0.3745 0.56095 0.0
C287 C 0.55551 0.40686 0.60587 0.0
C288 C 0.59067 0.37491 0.51819 0.0
C289 C 0.58236 0.41732 0.72013 0.0
O290 O 0.60635 0.36607 0.99323 0.0
O291 O 0.58912 0.41309 0.9207 0.0
C292 C 0.59905 0.40137 0.98019 0.0
O293 O 0.53554 0.37911 0.89002 0.0
O294 O 0.63533 0.28616 1.01663 0.0
O295 O 0.57751 0.26884 1.01115 0.0
O296 O 0.53743 0.31931 0.92979 0.0
C297 C 0.52054 0.35149 0.92403 0.0
O298 O 0.58685 0.32321 0.77321 0.0
O299 O 0.59369 0.27447 0.84676 0.0
O300 O 0.65231 0.31329 0.88261 0.0
O301 O 0.5538 0.40298 0.75162 0.0
O302 O 0.6125 0.41758 0.75713 0.0
O303 O 0.64996 0.37558 0.86004 0.0
C304 C 0.60338 0.28043 0.11936 0.0
C305 C 0.56972 0.29528 0.14404 0.0
C306 C 0.63185 0.29196 0.22815 0.0
C307 C 0.56725 0.30857 0.20972 0.0
C308 C 0.63424 0.27853 0.16254 0.0
C309 C 0.59846 0.30769 0.25247 0.0
C310 C 0.60769 0.27003 0.04779 0.0
C311 C 0.58946 0.28743 0.78558 0.0
H312 H 0.64407 0.38748 0.65748 0.0
H313 H 0.53306 0.39296 0.50975 0.0
H314 H 0.64773 0.36151 0.54533 0.0
H315 H 0.52938 0.41885 0.6226 0.0
H316 H 0.54541 0.29744 0.11226 0.0
H317 H 0.65629 0.29016 0.2598 0.0
H318 H 0.54116 0.3207 0.22622 0.0
H319 H 0.66053 0.26723 0.14507 0.0
Eu320 Eu 0.80936 0.58688 0.6976 0.0
Eu321 Eu 0.87334 0.58733 0.57928 0.0
C322 C 0.85461 0.51524 0.66554 0.0
C323 C 0.77544 0.58348 0.87316 0.0
C324 C 0.79258 0.5522 0.9024 0.0
C325 C 0.7831 0.61683 0.97848 0.0
C326 C 0.80526 0.55339 0.96827 0.0
C327 C 0.77034 0.61562 0.91237 0.0
C328 C 0.8012 0.58587 1.00703 0.0
C329 C 0.76547 0.58344 0.8011 0.0
O330 O 0.81955 0.5682 0.5336 0.0
O331 O 0.77729 0.59769 0.60047 0.0
C332 C 0.78682 0.5835 0.542 0.0
O333 O 0.83544 0.64344 0.70048 0.0
O334 O 0.90248 0.55607 0.50157 0.0
O335 O 0.90987 0.61592 0.50819 0.0
O336 O 0.85134 0.64675 0.59052 0.0
C337 C 0.84489 0.66306 0.64836 0.0
O338 O 0.86521 0.58337 0.75199 0.0
O339 O 0.90741 0.60113 0.67043 0.0
O340 O 0.88238 0.5351 0.64134 0.0
O341 O 0.7715 0.61432 0.7683 0.0
O342 O 0.77561 0.55423 0.76683 0.0
O343 O 0.82072 0.52863 0.66251 0.0
C344 C 0.90146 0.58923 0.40003 0.0
C345 C 0.88173 0.6206 0.37693 0.0
C346 C 0.89028 0.55891 0.29291 0.0
C347 C 0.86616 0.62093 0.31286 0.0
C348 C 0.90609 0.55869 0.35681 0.0
C349 C 0.86965 0.58982 0.27046 0.0
C350 C 0.91342 0.58624 0.47077 0.0
C351 C 0.89896 0.59423 0.73328 0.0
H352 H 0.79698 0.52685 0.87411 0.0
H353 H 0.77885 0.64209 1.00718 0.0
H354 H 0.81936 0.52912 0.98807 0.0
H355 H 0.75699 0.64007 0.89156 0.0
H356 H 0.87719 0.64449 0.40904 0.0
H357 H 0.89399 0.5347 0.2612 0.0
H358 H 0.8502 0.64505 0.29744 0.0
H359 H 0.92101 0.5341 0.37325 0.0
Eu360 Eu 0.59556 0.10639 0.51101 0.0
Eu361 Eu 0.58395 0.1693 0.39376 0.0
C362 C 0.66577 0.14569 0.4387 0.0
C363 C 0.59599 0.07798 0.6905 0.0
C364 C 0.62759 0.07912 0.7321 0.0
C365 C 0.55938 0.10558 0.78066 0.0
C366 C 0.62527 0.0939 0.79677 0.0
C367 C 0.56169 0.09085 0.71609 0.0
C368 C 0.59123 0.10785 0.82162 0.0
C369 C 0.59959 0.06642 0.61939 0.0
O370 O 0.5879 0.11333 0.34014 0.0
O371 O 0.61479 0.0751 0.41955 0.0
C372 C 0.60488 0.08215 0.35743 0.0
O373 O 0.5439 0.09216 0.45057 0.0
O374 O 0.60026 0.21512 0.32759 0.0
O375 O 0.54493 0.19088 0.31977 0.0
O376 O 0.52909 0.15267 0.43935 0.0
C377 C 0.51927 0.11764 0.43462 0.0
O378 O 0.57089 0.15741 0.55812 0.0
O379 O 0.59419 0.20258 0.48978 0.0
O380 O 0.64431 0.1533 0.38765 0.0
O381 O 0.56955 0.06857 0.58271 0.0
O382 O 0.62905 0.07863 0.58768 0.0
O383 O 0.6514 0.13584 0.49661 0.0
C384 C 0.57591 0.2028 0.21878 0.0
C385 C 0.54536 0.20423 0.17494 0.0
C386 C 0.61337 0.17571 0.12953 0.0
C387 C 0.54851 0.19083 0.1095 0.0
C388 C 0.6101 0.18878 0.1951 0.0
C389 C 0.58241 0.17571 0.08615 0.0
C390 C 0.5704 0.21118 0.29057 0.0
C391 C 0.58301 0.1915 0.54939 0.0
H392 H 0.6544 0.06952 0.71393 0.0
H393 H 0.53254 0.11536 0.79837 0.0
H394 H 0.65047 0.0954 0.82655 0.0
H395 H 0.53666 0.09041 0.68577 0.0
H396 H 0.51858 0.2145 0.1921 0.0
H397 H 0.64016 0.16514 0.11318 0.0
H398 H 0.5239 0.19105 0.07813 0.0
H399 H 0.63417 0.18701 0.22766 0.0
Eu400 Eu 0.17084 0.39433 0.6961 0.0
Eu401 Eu 0.10236 0.39853 0.58373 0.0
C402 C 0.12815 0.46966 0.67057 0.0
C403 C 0.20079 0.39299 0.87532 0.0
C404 C 0.19416 0.42722 0.90781 0.0
C405 C 0.18047 0.36068 0.97627 0.0
C406 C 0.18043 0.42812 0.97334 0.0
C407 C 0.19438 0.35977 0.91097 0.0
C408 C 0.17275 0.39484 1.0081 0.0
C409 C 0.21193 0.39163 0.80359 0.0
O410 O 0.1569 0.40278 0.52851 0.0
O411 O 0.20592 0.39633 0.60203 0.0
C412 C 0.19275 0.4001 0.54091 0.0
O413 O 0.16797 0.33873 0.64632 0.0
O414 O 0.07246 0.43147 0.50945 0.0
O415 O 0.06587 0.37142 0.51038 0.0
O416 O 0.1059 0.33847 0.62016 0.0
C417 C 0.13664 0.32065 0.63665 0.0
O418 O 0.11563 0.38633 0.75035 0.0
O419 O 0.06733 0.39772 0.67631 0.0
O420 O 0.09967 0.4525 0.64271 0.0
O421 O 0.20162 0.36204 0.77029 0.0
O422 O 0.20744 0.422 0.76865 0.0
O423 O 0.16122 0.4543 0.67112 0.0
C424 C 0.07404 0.40078 0.40415 0.0
C425 C 0.08045 0.36656 0.37155 0.0
C426 C 0.09736 0.43299 0.30502 0.0
C427 C 0.09562 0.36558 0.30705 0.0
C428 C 0.08209 0.43398 0.3694 0.0
C429 C 0.10482 0.39877 0.27317 0.0
C430 C 0.06209 0.40203 0.47557 0.0
C431 C 0.07989 0.39066 0.73662 0.0
H432 H 0.19893 0.4534 0.88226 0.0
H433 H 0.17566 0.33451 1.00185 0.0
H434 H 0.17475 0.45496 0.99601 0.0
H435 H 0.19955 0.33291 0.88798 0.0
H436 H 0.07462 0.34038 0.39647 0.0
H437 H 0.10334 0.45916 0.28019 0.0
H438 H 0.10114 0.33867 0.28451 0.0
H439 H 0.07732 0.46089 0.39254 0.0
Eu440 Eu 0.39832 0.88096 0.5208 0.0
Eu441 Eu 0.39546 0.8127 0.4071 0.0
C442 C 0.32052 0.84639 0.46475 0.0
C443 C 0.40035 0.90999 0.70005 0.0
C444 C 0.36762 0.89409 0.72685 0.0
C445 C 0.4323 0.89649 0.80487 0.0
C446 C 0.36736 0.87923 0.79146 0.0
C447 C 0.43248 0.91154 0.74035 0.0
C448 C 0.39986 0.87961 0.83114 0.0
C449 C 0.40243 0.92143 0.62869 0.0
O450 O 0.38627 0.86762 0.35313 0.0
O451 O 0.39581 0.91588 0.4284 0.0
C452 C 0.38912 0.90338 0.36783 0.0
O453 O 0.45125 0.8863 0.45957 0.0
O454 O 0.3648 0.78125 0.33099 0.0
O455 O 0.42486 0.77691 0.33593 0.0
O456 O 0.45521 0.82487 0.43281 0.0
C457 C 0.46944 0.85848 0.43243 0.0
O458 O 0.40223 0.8262 0.57517 0.0
O459 O 0.39765 0.77734 0.50072 0.0
O460 O 0.3385 0.81533 0.45258 0.0
O461 O 0.43181 0.90978 0.59618 0.0
O462 O 0.37194 0.91839 0.59302 0.0
O463 O 0.33816 0.87666 0.48503 0.0
C464 C 0.39739 0.78272 0.22786 0.0
C465 C 0.4312 0.79526 0.19962 0.0
C466 C 0.36606 0.7972 0.12291 0.0
C467 C 0.43224 0.80936 0.13451 0.0
C468 C 0.36499 0.78327 0.18817 0.0
C469 C 0.39957 0.81108 0.09554 0.0
C470 C 0.39512 0.77161 0.29939 0.0
C471 C 0.40052 0.79036 0.56214 0.0
H472 H 0.34229 0.89228 0.69744 0.0
H473 H 0.45803 0.89706 0.83327 0.0
H474 H 0.3416 0.86725 0.81013 0.0
H475 H 0.4582 0.92339 0.72112 0.0
H476 H 0.4569 0.79469 0.22807 0.0
H477 H 0.3403 0.79814 0.09464 0.0
H478 H 0.45871 0.81903 0.11473 0.0
H479 H 0.33855 0.77361 0.20812 0.0
Eu480 Eu 0.81137 0.90068 0.64051 0.0
Eu481 Eu 0.87543 0.89851 0.75805 0.0
C482 C 0.85587 0.97205 0.67707 0.0
C483 C 0.77753 0.90317 0.4654 0.0
C484 C 0.77664 0.93514 0.42493 0.0
C485 C 0.80543 0.86879 0.373 0.0
C486 C 0.79059 0.93416 0.3597 0.0
C487 C 0.79171 0.86984 0.43836 0.0
C488 C 0.80576 0.9011 0.33312 0.0
C489 C 0.76767 0.90612 0.53718 0.0
O490 O 0.82181 0.91764 0.80402 0.0
O491 O 0.78005 0.88732 0.73747 0.0
C492 C 0.78958 0.90097 0.79636 0.0
O493 O 0.83631 0.84381 0.634 0.0
O494 O 0.90964 0.92858 0.83077 0.0
O495 O 0.90732 0.86837 0.83388 0.0
O496 O 0.85309 0.83929 0.74354 0.0
C497 C 0.84601 0.82362 0.68527 0.0
O498 O 0.86742 0.90452 0.58707 0.0
O499 O 0.90854 0.88263 0.66695 0.0
O500 O 0.88394 0.95168 0.69818 0.0
O501 O 0.76983 0.87586 0.57329 0.0
O502 O 0.78179 0.93491 0.56799 0.0
O503 O 0.82206 0.9582 0.6802 0.0
C504 C 0.90418 0.90027 0.93779 0.0
C505 C 0.90378 0.86764 0.97666 0.0
C506 C 0.87582 0.93382 1.03091 0.0
C507 C 0.88893 0.86793 1.04134 0.0
C508 C 0.89063 0.93354 0.9663 0.0
C509 C 0.87421 0.90091 0.069 0.0
C510 C 0.91579 0.8988 0.86648 0.0
C511 C 0.90035 0.89135 0.60482 0.0
H512 H 0.76611 0.96128 0.44448 0.0
H513 H 0.81611 0.84262 0.35394 0.0
H514 H 0.79059 0.95971 0.33098 0.0
H515 H 0.79293 0.84465 0.46802 0.0
H516 H 0.91402 0.84157 0.95635 0.0
H517 H 0.86548 0.95991 0.05093 0.0
H518 H 0.88798 0.84197 0.06888 0.0
H519 H 0.89063 0.95933 0.93822 0.0
Eu520 Eu 0.89727 0.11161 0.3303 0.0
Eu521 Eu 0.90802 0.17469 0.44792 0.0
C522 C 0.82656 0.14979 0.40114 0.0
C523 C 0.89533 0.08376 0.15059 0.0
C524 C 0.86255 0.09287 0.11553 0.0
C525 C 0.93189 0.10481 0.05486 0.0
C526 C 0.86445 0.10836 0.05147 0.0
C527 C 0.93 0.08925 0.11876 0.0
C528 C 0.89918 0.1151 1.02069 0.0
C529 C 0.89365 0.07169 0.22166 0.0
O530 O 0.90417 0.11895 0.50163 0.0
O531 O 0.87761 0.08045 0.42171 0.0
C532 C 0.88722 0.08771 0.48397 0.0
O533 O 0.94796 0.09652 0.39231 0.0
O534 O 0.89031 0.21908 0.51613 0.0
O535 O 0.94698 0.19838 0.52023 0.0
O536 O 0.96322 0.15696 0.40532 0.0
C537 C 0.9724 0.12183 0.4108 0.0
O538 O 0.92181 0.16302 0.28358 0.0
O539 O 0.89869 0.20814 0.35224 0.0
O540 O 0.84771 0.15778 0.45255 0.0
O541 O 0.92423 0.07592 0.25639 0.0
O542 O 0.86412 0.08153 0.25566 0.0
O543 O 0.84132 0.14056 0.34325 0.0
C544 C 0.91701 0.20804 0.62373 0.0
C545 C 0.94888 0.1994 0.6617 0.0
C546 C 0.87828 0.19241 0.71991 0.0
C547 C 0.94549 0.18691 0.72751 0.0
C548 C 0.88167 0.20501 0.65407 0.0
C549 C 0.9101 0.18257 0.75713 0.0
C550 C 0.9209 0.21674 0.55154 0.0
C551 C 0.91011 0.19718 0.29272 0.0
H552 H 0.83537 0.08898 0.13829 0.0
H553 H 0.95909 0.10884 1.03224 0.0
H554 H 0.83867 0.11607 1.02687 0.0
H555 H 0.95587 0.08233 0.14381 0.0
H556 H 0.97652 0.2015 0.63994 0.0
H557 H 0.85064 0.19006 0.74151 0.0
H558 H 0.97061 0.17943 0.7544 0.0
H559 H 0.85649 0.21155 0.62658 0.0
Eu560 Eu 0.17292 0.09076 0.65633 0.0
Eu561 Eu 0.10453 0.08732 0.77015 0.0
C562 C 0.12791 0.01653 0.68261 0.0
C563 C 0.2043 0.0904 0.47722 0.0
C564 C 0.19441 0.05647 0.44625 0.0
C565 C 0.1884 0.12276 0.37402 0.0
C566 C 0.18086 0.05581 0.38067 0.0
C567 C 0.20192 0.12341 0.43962 0.0
C568 C 0.17696 0.08905 0.34401 0.0
C569 C 0.21465 0.09194 0.54928 0.0
O570 O 0.15955 0.08312 0.82433 0.0
O571 O 0.20837 0.0881 0.74988 0.0
C572 C 0.19544 0.08479 0.81124 0.0
O573 O 0.16976 0.14729 0.70308 0.0
O574 O 0.07525 0.05419 0.84527 0.0
O575 O 0.0678 0.11411 0.84304 0.0
O576 O 0.1082 0.14728 0.73395 0.0
C577 C 0.13847 0.16509 0.71437 0.0
O578 O 0.11777 0.09912 0.60212 0.0
O579 O 0.0695 0.08933 0.67733 0.0
O580 O 0.09975 0.034 0.71015 0.0
O581 O 0.20481 0.12193 0.58167 0.0
O582 O 0.2089 0.06192 0.58462 0.0
O583 O 0.16137 0.03125 0.68348 0.0
C584 C 0.07649 0.08546 0.94968 0.0
C585 C 0.08847 0.11926 0.97871 0.0
C586 C 0.09492 0.05322 0.05177 0.0
C587 C 0.10387 0.11994 1.043 0.0
C588 C 0.07934 0.05257 0.9876 0.0
C589 C 0.10783 0.08686 0.08009 0.0
C590 C 0.06445 0.08365 0.87846 0.0
C591 C 0.08196 0.09594 0.61669 0.0
H592 H 0.19668 0.03034 0.47285 0.0
H593 H 0.18667 0.14881 0.34693 0.0
H594 H 0.17241 0.02928 0.35946 0.0
H595 H 0.20982 0.14998 0.4614 0.0
H596 H 0.08691 0.14518 0.95118 0.0
H597 H 0.09691 0.02729 0.07919 0.0
H598 H 0.11371 0.14632 0.06284 0.0
H599 H 0.07031 0.02606 0.96698 0.0
Eu600 Eu 0.08846 0.88354 0.32635 0.0
Eu601 Eu 0.08626 0.81608 0.44054 0.0
C602 C 0.16465 0.84794 0.387 0.0
C603 C 0.08538 0.91301 0.14755 0.0
C604 C 0.11837 0.8997 0.11769 0.0
C605 C 0.05165 0.8974 1.04531 0.0
C606 C 0.1179 0.88502 0.05291 0.0
C607 C 0.05216 0.91227 0.11002 0.0
C608 C 0.08444 0.88317 1.01616 0.0
C609 C 0.08463 0.92436 0.21908 0.0
O610 O 0.09075 0.87153 0.49592 0.0
O611 O 0.10031 0.91764 0.41685 0.0
C612 C 0.09813 0.90635 0.47905 0.0
O613 O 0.03496 0.88968 0.38655 0.0
O614 O 0.11424 0.78199 0.51574 0.0
O615 O 0.05403 0.78289 0.51188 0.0
O616 O 0.02831 0.82789 0.40528 0.0
C617 C 0.01493 0.86166 0.40898 0.0
O618 O 0.08623 0.8289 0.27162 0.0
O619 O 0.08432 0.78044 0.34692 0.0
O620 O 0.14547 0.81841 0.40506 0.0
O621 O 0.05522 0.91389 0.25292 0.0
O622 O 0.1154 0.91998 0.25326 0.0
O623 O 0.14862 0.87745 0.36051 0.0
C624 C 0.08242 0.78671 0.61932 0.0
C625 C 0.04904 0.7988 0.64949 0.0
C626 C 0.11564 0.80215 0.72206 0.0
C627 C 0.04908 0.81284 0.71475 0.0
C628 C 0.11559 0.78806 0.65688 0.0
C629 C 0.08249 0.81527 0.75158 0.0
C630 C 0.08332 0.77516 0.54793 0.0
C631 C 0.08493 0.79316 0.2852 0.0
H632 H 0.14451 0.89962 0.14492 0.0
H633 H 0.0255 0.89698 1.01813 0.0
H634 H 0.14362 0.87406 1.0324 0.0
H635 H 0.02628 0.92237 0.13138 0.0
H636 H 0.02289 0.7981 0.62233 0.0
H637 H 0.14175 0.8028 0.74932 0.0
H638 H 0.02304 0.82285 0.73557 0.0
H639 H 0.14173 0.77863 0.63556 0.0
C640 C 0.35746 0.92438 0.26341 0.0
C641 C 0.38473 0.93031 0.31281 0.0
H642 H 0.33046 0.94592 0.17596 0.0
C643 C 0.40814 0.96168 0.30834 0.0
H644 H 0.33913 0.90028 0.26574 0.0
C645 C 0.40415 0.98686 0.25561 0.0
C646 C 0.37594 0.98177 0.20758 0.0
H647 H 0.42964 0.96661 0.34538 0.0
H648 H 0.42219 0.01112 0.25403 0.0
C649 C 0.35264 0.95028 0.21194 0.0
C650 C 0.96227 0.61709 0.7673 0.0
C651 C 0.9285 0.59952 0.78467 0.0
H652 H 0.01513 0.63777 0.8 0.0
C653 C 0.92323 0.58825 0.85143 0.0
H654 H 0.96753 0.62611 0.71663 0.0
C655 C 0.95103 0.59497 0.89965 0.0
C656 C 0.98415 0.61356 0.88196 0.0
H657 H 0.8976 0.57448 0.86652 0.0
H658 H 0.94633 0.58644 0.95076 0.0
C659 C 0.98958 0.62409 0.81532 0.0
C660 C 0.59524 0.02067 0.20306 0.0
C661 C 0.62633 -0.00291 0.20965 0.0
H662 H 0.56476 0.06711 0.24336 0.0
C663 C 0.65104 0.00315 0.2633 0.0
H664 H 0.57569 0.01676 0.16239 0.0
C665 C 0.64391 0.03063 0.31105 0.0
C666 C 0.6126 0.05379 0.30526 0.0
H667 H 0.67536 0.98566 0.27003 0.0
H668 H 0.66302 0.03375 0.35261 0.0
C669 C 0.58888 0.0493 0.2497 0.0
C670 C -0.00245 0.40779 0.85153 0.0
C671 C 0.00241 0.37966 0.8996 0.0
H672 H 0.01754 0.43242 0.76059 0.0
C673 C 0.03355 0.35606 0.89464 0.0
H674 H 0.9737 0.42625 0.85386 0.0
C675 C 0.05904 0.36019 0.84225 0.0
C676 C 0.05317 0.38711 0.79247 0.0
H677 H 0.0378 0.33398 0.93066 0.0
H678 H 0.08275 0.34151 0.83951 0.0
C679 C 0.02235 0.41106 0.79777 0.0
C680 C 0.39178 0.52316 0.14063 0.0
C681 C 0.36134 0.49868 0.13334 0.0
H682 H 0.42156 0.57016 0.1006 0.0
C683 C 0.33734 0.50312 0.07836 0.0
H684 H 0.41075 0.52033 0.18239 0.0
C685 C 0.34434 0.53039 1.03034 0.0
C686 C 0.37483 0.55473 1.03718 0.0
H687 H 0.31376 0.48463 0.07094 0.0
H688 H 0.32574 0.53247 0.98788 0.0
C689 C 0.39802 0.55149 0.09365 0.0
C690 C 0.55715 0.62312 1.0098 0.0
C691 C 0.5498 0.59734 0.06089 0.0
H692 H 0.53625 0.65039 0.92209 0.0
C693 C 0.51675 0.57622 0.05871 0.0
H694 H 0.58264 0.63955 1.01035 0.0
C695 C 0.49135 0.58092 1.00638 0.0
C696 C 0.49769 0.60806 0.95707 0.0
H697 H 0.51067 0.55594 0.09724 0.0
H698 H 0.46594 0.56446 1.00619 0.0
C699 C 0.53088 0.62907 0.95914 0.0
C700 C 0.63257 0.44934 0.13824 0.0
C701 C 0.60839 0.48005 0.14244 0.0
H702 H 0.64814 0.40006 0.08417 0.0
C703 C 0.58066 0.48436 0.09334 0.0
H704 H 0.65444 0.44555 0.17495 0.0
C705 C 0.57793 0.45916 1.04002 0.0
C706 C 0.6022 0.42853 1.03575 0.0
H707 H 0.56198 0.50802 0.09466 0.0
H708 H 0.55668 0.46351 1.00238 0.0
C709 C 0.62909 0.42349 0.08609 0.0
C710 C 0.45343 0.3423 0.06851 0.0
C711 C 0.43104 0.37401 0.06169 0.0
H712 H 0.49757 0.30941 1.02876 0.0
C713 C 0.43581 0.39706 1.00559 0.0
H714 H 0.44997 0.32388 0.11089 0.0
C715 C 0.46413 0.38943 0.95891 0.0
C716 C 0.48709 0.35789 0.96651 0.0
H717 H 0.41865 0.42166 0.99931 0.0
H718 H 0.46848 0.40849 0.91775 0.0
C719 C 0.4806 0.33397 1.02099 0.0
C720 C 0.90387 0.43767 0.7602 0.0
C721 C 0.87908 0.43195 0.81377 0.0
H722 H 0.91604 0.4692 0.67156 0.0
C723 C 0.84529 0.45155 0.81501 0.0
H724 H 0.92991 0.42243 0.7575 0.0
C725 C 0.83659 0.47672 0.7643 0.0
C726 C 0.86211 0.48412 0.71247 0.0
H727 H 0.82536 0.44715 0.85494 0.0
H728 H 0.81025 0.49128 0.76716 0.0
C729 C 0.89583 0.46416 0.71075 0.0
C730 C 0.49379 0.08249 0.33726 0.0
C731 C 0.48809 0.10818 0.38925 0.0
H732 H 0.473 0.0594 0.24563 0.0
C733 C 0.45457 0.12846 0.39117 0.0
H734 H 0.51946 0.0667 0.33436 0.0
C735 C 0.4273 0.12316 0.3418 0.0
C736 C 0.43396 0.09887 0.28807 0.0
H737 H 0.4497 0.14872 0.43034 0.0
H738 H 0.40159 0.13899 0.34431 0.0
C739 C 0.46738 0.07853 0.28628 0.0
C740 C 0.08281 0.55338 0.75414 0.0
C741 C 0.10629 0.55826 0.80978 0.0
H742 H 0.07096 0.52097 0.6662 0.0
C743 C 0.13808 0.53583 0.81613 0.0
H744 H 0.0581 0.57045 0.74815 0.0
C745 C 0.14607 0.50865 0.76844 0.0
C746 C 0.1219 0.5025 0.7141 0.0
H747 H 0.15685 0.5393 0.85811 0.0
H748 H 0.17052 0.49143 0.77588 0.0
C749 C 0.09021 0.52525 0.70721 0.0
C750 C 0.56066 0.88505 0.3478 0.0
C751 C 0.55141 0.87905 0.2802 0.0
H752 H 0.54164 0.88378 0.44982 0.0
C753 C 0.51497 0.86733 0.26425 0.0
H754 H 0.58846 0.89425 0.36177 0.0
C755 C 0.48874 0.86099 0.31444 0.0
C756 C 0.49805 0.86655 0.38166 0.0
H757 H 0.5068 0.86234 0.21299 0.0
H758 H 0.46092 0.85174 0.30071 0.0
C759 C 0.534 0.87918 0.39819 0.0
C760 C 0.89669 0.02457 0.63513 0.0
C761 C 0.86279 0.00467 0.63304 0.0
H762 H 0.93046 0.06761 0.59088 0.0
C763 C 0.83653 0.01378 0.58339 0.0
H764 H 0.91745 0.0183 0.67275 0.0
C765 C 0.84475 0.04041 0.53474 0.0
C766 C 0.87878 0.05983 0.53616 0.0
H767 H 0.80996 -0.00054 0.58044 0.0
H768 H 0.82433 0.04601 0.49617 0.0
C769 C 0.90424 0.05253 0.58799 0.0
C770 C 0.06021 0.12979 0.51516 0.0
C771 C 0.05495 0.10094 0.56166 0.0
H772 H 0.03791 0.15922 0.43105 0.0
C773 C 0.02418 0.07687 0.55428 0.0
H774 H 0.08385 0.14862 0.51961 0.0
C775 C -0.00118 0.08194 0.50179 0.0
C776 C 0.00299 0.11202 0.45733 0.0
H777 H 0.01982 0.05411 0.58893 0.0
H778 H 0.97504 0.06331 0.49783 0.0
C779 C 0.03412 0.1357 0.46427 0.0
C780 C 0.12816 0.96487 0.51942 0.0
C781 C 0.10523 0.93393 0.53253 0.0
H782 H 0.15323 0.01461 0.55741 0.0
C783 C 0.08991 0.92965 0.59684 0.0
H784 H 0.14049 0.96895 0.47062 0.0
C785 C 0.09701 0.95636 0.64668 0.0
C786 C 0.12054 0.98685 0.63331 0.0
H787 H 0.07201 0.90605 0.60823 0.0
H788 H 0.08448 0.95306 0.69549 0.0
C789 C 0.13592 0.99076 0.56936 0.0
C790 C 0.97434 0.84232 0.5041 0.0
C791 C 0.98279 0.86856 0.45412 0.0
H792 H 0.94268 0.82966 0.59182 0.0
C793 C 0.96287 0.90234 0.45289 0.0
H794 H 0.98902 0.81603 0.50685 0.0
C795 C 0.93528 0.90965 0.50101 0.0
C796 C 0.92832 0.88392 0.55245 0.0
H797 H 0.96884 0.92316 0.41525 0.0
H798 H 0.92023 0.93582 0.49926 0.0
C799 C 0.94795 0.85018 0.55328 0.0
C800 C 0.37968 0.22078 0.16475 0.0
C801 C 0.34695 0.19943 0.1723 0.0
H802 H 0.40535 0.27482 0.17481 0.0
C803 C 0.31459 0.21665 0.19716 0.0
H804 H 0.40514 0.20801 0.1466 0.0
C805 C 0.31457 0.25471 0.21236 0.0
C806 C 0.34726 0.27609 0.20516 0.0
H807 H 0.28903 0.20077 0.20383 0.0
H808 H 0.28892 0.26751 0.22956 0.0
C809 C 0.37996 0.25875 0.1819 0.0
C810 C 0.26483 0.64663 0.98073 0.0
C811 C 0.28017 0.64595 0.91597 0.0
H812 H 0.21511 0.64679 1.04078 0.0
C813 C 0.2558 0.64508 0.86121 0.0
H814 H 0.28282 0.647 1.02416 0.0
C815 C 0.21708 0.64532 0.87085 0.0
C816 C 0.20168 0.64593 0.93553 0.0
H817 H 0.2666 0.64445 0.81077 0.0
H818 H 0.19918 0.64471 0.8273 0.0
C819 C 0.22601 0.64633 0.99041 0.0
C820 C 0.66629 0.75192 0.12791 0.0
C821 C 0.63403 0.7736 0.13648 0.0
H822 H 0.6919 0.69843 0.13869 0.0
C823 C 0.60203 0.75694 0.1645 0.0
H824 H 0.69146 0.76408 0.10704 0.0
C825 C 0.60263 0.71941 0.1847 0.0
C826 C 0.635 0.6978 0.17587 0.0
H827 H 0.57699 0.77322 0.17279 0.0
H828 H 0.57767 0.70717 0.20615 0.0
C829 C 0.66662 0.7144 0.14657 0.0
C830 C 0.77001 0.31521 0.88737 0.0
C831 C 0.78584 0.34528 0.92259 0.0
H832 H 0.72059 0.29163 0.84374 0.0
C833 C 0.76352 0.37648 0.93711 0.0
H834 H 0.78664 0.29094 0.87503 0.0
C835 C 0.72598 0.37742 0.91704 0.0
C836 C 0.70996 0.34681 0.88353 0.0
H837 H 0.77521 0.40032 0.96317 0.0
H838 H 0.70918 0.40149 0.92986 0.0
C839 C 0.73234 0.31572 0.86898 0.0
C840 C 0.84869 0.71974 0.72143 0.0
C841 C 0.84758 0.70417 0.65678 0.0
H842 H 0.84942 0.7694 0.7813 0.0
C843 C 0.84783 0.72827 0.60179 0.0
H844 H 0.84893 0.70199 0.7651 0.0
C845 C 0.84785 0.76702 0.61132 0.0
C846 C 0.84804 0.78255 0.67605 0.0
H847 H 0.84712 0.71724 0.55149 0.0
H848 H 0.84741 0.78483 0.56775 0.0
C849 C 0.84912 0.75844 0.73094 0.0
C850 C 0.76994 0.14907 0.47496 0.0
C851 C 0.78538 0.14961 0.41032 0.0
H852 H 0.72029 0.14704 0.53476 0.0
C853 C 0.76111 0.14911 0.35535 0.0
H854 H 0.78783 0.14912 0.51853 0.0
C855 C 0.72233 0.14832 0.3648 0.0
C856 C 0.70691 0.14742 0.42944 0.0
H857 H 0.77203 0.14946 0.30499 0.0
H858 H 0.70445 0.14789 0.32123 0.0
C859 C 0.73119 0.14771 0.4844 0.0
C860 C 0.16997 0.26137 0.66168 0.0
C861 C 0.13599 0.28029 0.65281 0.0
H862 H 0.19735 0.21099 0.68932 0.0
C863 C 0.10237 0.26124 0.66625 0.0
H864 H 0.19643 0.27514 0.65217 0.0
C865 C 0.10292 0.22408 0.68851 0.0
C866 C 0.13709 0.20534 0.69741 0.0
H867 H 0.07574 0.27519 0.66078 0.0
H868 H 0.07664 0.20992 0.69779 0.0
C869 C 0.17051 0.22451 0.68357 0.0
C870 C 0.2604 0.81411 0.43816 0.0
C871 C 0.28018 0.84763 0.44786 0.0
H872 H 0.20904 0.78798 0.4102 0.0
C873 C 0.26203 0.88162 0.4346 0.0
H874 H 0.27353 0.78741 0.44735 0.0
C875 C 0.22487 0.88193 0.41199 0.0
C876 C 0.20514 0.84826 0.40285 0.0
H877 H 0.27669 0.90792 0.44055 0.0
H878 H 0.21139 0.90849 0.40312 0.0
C879 C 0.22341 0.81443 0.41627 0.0
C880 C 0.25992 0.07917 0.86273 0.0
C881 C 0.22115 0.0831 0.87013 0.0
H882 H 0.313 0.0741 0.91096 0.0
C883 C 0.20648 0.08525 0.9356 0.0
H884 H 0.2723 0.07758 0.81357 0.0
C885 C 0.22982 0.08354 0.99177 0.0
C886 C 0.26853 0.07918 0.98433 0.0
H887 H 0.17674 0.08847 0.94382 0.0
H888 H 0.21746 0.08542 1.04097 0.0
C889 C 0.28323 0.07704 0.91896 0.0
C890 C 0.07319 0.70666 0.17543 0.0
C891 C 0.07966 0.72123 0.11093 0.0
H892 H 0.07025 0.71736 0.28084 0.0
C893 C 0.08865 0.75917 0.10494 0.0
H894 H 0.0666 0.67739 0.18223 0.0
C895 C 0.09057 0.78201 0.16163 0.0
C896 C 0.08393 0.76758 0.22623 0.0
H897 H 0.09397 0.77133 0.05643 0.0
H898 H 0.09735 0.81122 0.15445 0.0
C899 C 0.07548 0.72948 0.23232 0.0
C900 C 0.70505 0.88449 0.90897 0.0
C901 C 0.71975 0.89167 0.97334 0.0
H902 H 0.71496 0.88159 0.80333 0.0
C903 C 0.75774 0.90099 0.97849 0.0
H904 H 0.67594 0.87697 0.90252 0.0
C905 C 0.78003 0.90401 0.92099 0.0
C906 C 0.76512 0.8974 0.85662 0.0
H907 H 0.77009 0.90664 1.02672 0.0
H908 H 0.80916 0.91152 0.9272 0.0
C909 C 0.72741 0.88711 0.8516 0.0
C910 C 0.91082 0.23061 0.11162 0.0
C911 C 0.90838 0.2695 0.11862 0.0
H912 H 0.91375 0.17762 0.16065 0.0
C913 C 0.90612 0.28446 0.18385 0.0
H914 H 0.91247 0.21805 0.06256 0.0
C915 C 0.90641 0.26133 0.24031 0.0
C916 C 0.90958 0.22252 0.23342 0.0
H917 H 0.90378 0.31429 0.19152 0.0
H918 H 0.90445 0.27391 0.28932 0.0
C919 C 0.91173 0.20749 0.16821 0.0
C920 C 0.22568 0.39941 0.35946 0.0
C921 C 0.26466 0.39838 0.36614 0.0
H922 H 0.17274 0.40104 0.4086 0.0
C923 C 0.2799 0.39843 0.43137 0.0
H924 H 0.21287 0.39947 0.31052 0.0
C925 C 0.25695 0.39925 0.48802 0.0
C926 C 0.21799 0.40022 0.4814 0.0
H927 H 0.30985 0.3976 0.43914 0.0
H928 H 0.2698 0.39901 0.53693 0.0
C929 C 0.2027 0.40042 0.4162 0.0
C930 C 0.40738 0.70319 0.67107 0.0
C931 C 0.40407 0.71815 0.73612 0.0
H932 H 0.40835 0.71367 0.56556 0.0
C933 C 0.3992 0.75676 0.74292 0.0
H934 H 0.41073 0.67345 0.6636 0.0
C935 C 0.39816 0.77981 0.68644 0.0
C936 C 0.40149 0.7649 0.62128 0.0
H937 H 0.39644 0.76926 0.79186 0.0
H938 H 0.39451 0.8095 0.69418 0.0
C939 C 0.40588 0.7262 0.61449 0.0
C940 C 0.75351 0.58345 0.36101 0.0
C941 C 0.71459 0.58019 0.36771 0.0
H942 H 0.80651 0.58667 0.41068 0.0
C943 C 0.69957 0.57903 0.43298 0.0
H944 H 0.76625 0.58444 0.31204 0.0
C945 C 0.7225 0.58148 0.48969 0.0
C946 C 0.76137 0.58393 0.48291 0.0
H947 H 0.66984 0.57604 0.44053 0.0
H948 H 0.70985 0.58031 0.53873 0.0
C949 C 0.77656 0.58481 0.41781 0.0
C950 C 0.58258 0.20084 0.67412 0.0
C951 C 0.58463 0.21637 0.60936 0.0
H952 H 0.58314 0.21045 0.78005 0.0
C953 C 0.58888 0.25513 0.60364 0.0
H954 H 0.5798 0.17098 0.68075 0.0
C955 C 0.59037 0.27771 0.66087 0.0
C956 C 0.5882 0.26226 0.72576 0.0
H957 H 0.59073 0.2681 0.555 0.0
H958 H 0.5934 0.30753 0.65388 0.0
C959 C 0.58461 0.22341 0.73144 0.0
C960 C 0.31049 0.05658 0.62852 0.0
C961 C 0.32629 0.07567 0.57409 0.0
H962 H 0.31387 0.04349 0.73244 0.0
C963 C 0.35908 0.09668 0.5848 0.0
H964 H 0.28504 0.04048 0.62249 0.0
C965 C 0.37568 0.09842 0.64801 0.0
C966 C 0.36001 0.07917 0.7024 0.0
H967 H 0.37252 0.11116 0.54392 0.0
H968 H 0.40128 0.11429 0.65384 0.0
C969 C 0.32711 0.05829 0.69173 0.0
C970 C 0.10289 0.63185 0.50918 0.0
C971 C 0.08032 0.66321 0.5216 0.0
H972 H 0.12127 0.59096 0.43855 0.0
C973 C 0.05892 0.67769 0.46887 0.0
H974 H 0.11921 0.61947 0.54882 0.0
C975 C 0.06 0.6612 0.40554 0.0
C976 C 0.08257 0.62982 0.39311 0.0
H977 H 0.04158 0.70206 0.47629 0.0
H978 H 0.04345 0.6734 0.36606 0.0
C979 C 0.10403 0.61542 0.44583 0.0
C980 C 0.65929 0.92203 0.60832 0.0
C981 C 0.65477 0.89021 0.56777 0.0
H982 H 0.64751 0.94848 0.70198 0.0
C983 C 0.6335 0.86018 0.59268 0.0
H984 H 0.67591 0.94548 0.59137 0.0
C985 C 0.61728 0.86188 0.6562 0.0
C986 C 0.62173 0.8937 0.69668 0.0
H987 H 0.62876 0.8355 0.56257 0.0
H988 H 0.60073 0.83839 0.67322 0.0
C989 C 0.64296 0.92377 0.67184 0.0
C990 C 0.9289 0.33186 0.41022 0.0
C991 C 0.90743 0.36428 0.39992 0.0
H992 H 0.94842 0.29078 0.47963 0.0
C993 C 0.88901 0.38006 0.45519 0.0
H994 H 0.94301 0.31841 0.36898 0.0
C995 C 0.89184 0.36391 0.51856 0.0
C996 C 0.91335 0.3316 0.52876 0.0
H997 H 0.87279 0.40533 0.44987 0.0
H998 H 0.87769 0.3772 0.55996 0.0
C999 C 0.93193 0.31585 0.47376 0.0
C1000 C 0.33136 0.42567 0.66011 0.0
C1001 C 0.36122 0.40179 0.64368 0.0
H1002 H 0.29157 0.44285 0.7341 0.0
C1003 C 0.37398 0.37673 0.69255 0.0
H1004 H 0.3203 0.44492 0.62358 0.0
C1005 C 0.35732 0.37539 0.75567 0.0
C1006 C 0.32744 0.39915 0.77204 0.0
H1007 H 0.39728 0.35837 0.6824 0.0
H1008 H 0.36829 0.35606 0.79215 0.0
C1009 C 0.31477 0.42443 0.72349 0.0
C1010 C 0.38132 0.62706 0.33636 0.0
C1011 C 0.40331 0.65917 0.32557 0.0
H1012 H 0.36244 0.58562 0.40555 0.0
C1013 C 0.42322 0.67427 0.37982 0.0
H1014 H 0.36622 0.61411 0.2956 0.0
C1015 C 0.42122 0.65772 0.44296 0.0
C1016 C 0.39914 0.62567 0.45378 0.0
H1017 H 0.44009 0.69917 0.37376 0.0
H1018 H 0.43665 0.67041 0.48355 0.0
C1019 C 0.37921 0.61061 0.39954 0.0
C1020 C 0.63512 0.54371 0.74524 0.0
C1021 C 0.65159 0.57477 0.77701 0.0
H1022 H 0.60682 0.52234 0.65915 0.0
C1023 C 0.65123 0.60923 0.74338 0.0
H1024 H 0.63436 0.51677 0.76958 0.0
C1025 C 0.63461 0.61265 0.68039 0.0
C1026 C 0.61799 0.58165 0.64866 0.0
H1027 H 0.66401 0.63372 0.76556 0.0
H1028 H 0.63447 0.63984 0.65697 0.0
C1029 C 0.61867 0.54708 0.68205 0.0
C1030 C 0.6248 0.36144 0.41042 0.0
C1031 C 0.5926 0.35753 0.45017 0.0
H1032 H 0.65171 0.3495 0.31742 0.0
C1033 C 0.56245 0.33657 0.42453 0.0
H1034 H 0.64838 0.37777 0.42788 0.0
C1035 C 0.56441 0.32017 0.36099 0.0
C1036 C 0.59658 0.32425 0.32114 0.0
H1037 H 0.53744 0.33235 0.45401 0.0
H1038 H 0.54083 0.30389 0.3434 0.0
C1039 C 0.62674 0.3451 0.34692 0.0
C1040 C 0.81547 0.5563 0.11822 0.0
C1041 C 0.81701 0.5876 0.07595 0.0
H1042 H 0.83052 0.53253 0.2124 0.0
C1043 C 0.83524 0.62 0.09908 0.0
H1044 H 0.80107 0.53109 0.10276 0.0
C1045 C 0.85202 0.62085 0.16219 0.0
C1046 C 0.85118 0.58927 0.20374 0.0
H1047 H 0.83748 0.64446 0.06767 0.0
H1048 H 0.86648 0.646 0.17779 0.0
C1049 C 0.8324 0.55709 0.18115 0.0
C1050 C 0.56706 0.15722 0.90052 0.0
C1051 C 0.58904 0.12528 0.88936 0.0
H1052 H 0.54844 0.19864 0.96986 0.0
C1053 C 0.60898 0.1103 0.94343 0.0
H1054 H 0.55153 0.1698 0.86013 0.0
C1055 C 0.60693 0.12668 1.00679 0.0
C1056 C 0.58509 0.15875 1.01797 0.0
H1057 H 0.62567 0.08538 0.93717 0.0
H1058 H 0.62195 0.11364 1.04735 0.0
C1059 C 0.56523 0.17379 0.96376 0.0
C1060 C 0.15097 0.42305 0.18778 0.0
C1061 C 0.12241 0.39772 0.20531 0.0
H1062 H 0.18955 0.44172 0.11289 0.0
C1063 C 0.11094 0.37126 0.15747 0.0
H1064 H 0.16108 0.44339 0.22354 0.0
C1065 C 0.12738 0.37025 0.09403 0.0
C1066 C 0.15581 0.39566 0.0764 0.0
H1067 H 0.08871 0.35166 0.16858 0.0
H1068 H 0.11724 0.34993 0.05826 0.0
C1069 C 0.16739 0.42206 0.12424 0.0
C1070 C 0.42116 0.86073 1.01485 0.0
C1071 C 0.40022 0.82816 1.02745 0.0
H1072 H 0.43688 0.90287 0.94453 0.0
C1073 C 0.37934 0.81259 0.97481 0.0
H1074 H 0.43709 0.87393 0.05435 0.0
C1075 C 0.37936 0.8291 0.91149 0.0
C1076 C 0.40006 0.86189 0.8989 0.0
H1077 H 0.3632 0.78732 0.98226 0.0
H1078 H 0.36342 0.8158 0.87216 0.0
C1079 C 0.42103 0.87738 0.95162 0.0
C1080 C 0.80747 0.92158 0.2126 0.0
C1081 C 0.8229 0.90062 0.26506 0.0
H1082 H 0.8112 0.93798 0.11025 0.0
C1083 C 0.85543 0.87977 0.25229 0.0
H1084 H 0.78224 0.93764 0.22004 0.0
C1085 C 0.872 0.87983 0.18901 0.0
C1086 C 0.85663 0.90087 0.13666 0.0
H1087 H 0.86866 0.8639 0.29161 0.0
H1088 H 0.89731 0.86388 0.1815 0.0
C1089 C 0.82414 0.92176 0.14941 0.0
C1090 C 0.92914 0.15993 0.93961 0.0
C1091 C 0.90138 0.13311 0.95361 0.0
H1092 H 0.95323 0.19703 0.86759 0.0
C1093 C 0.87587 0.1236 0.90293 0.0
H1094 H 0.94882 0.1685 0.97773 0.0
C1095 C 0.87836 0.14005 0.83976 0.0
C1096 C 0.90642 0.16648 0.8255 0.0
H1097 H 0.85442 0.10276 0.91155 0.0
H1098 H 0.85883 0.1313 0.80152 0.0
C1099 C 0.93164 0.17637 0.87643 0.0
C1100 C 0.1182 0.11638 0.19306 0.0
C1101 C 0.12575 0.08743 0.14757 0.0
H1102 H 0.12775 0.13931 0.29026 0.0
C1103 C 0.15078 0.0592 0.16697 0.0
H1104 H 0.09872 0.13831 0.18036 0.0
C1105 C 0.16764 0.05985 0.23014 0.0
C1106 C 0.15992 0.08873 0.27577 0.0
H1107 H 0.15781 0.03681 0.13292 0.0
H1108 H 0.18709 0.0379 0.24291 0.0
C1109 C 0.13498 0.11699 0.2562 0.0
C1110 C 0.05384 0.82565 0.86531 0.0
C1111 C 0.08299 0.83233 0.81969 0.0
H1112 H 0.03158 0.83599 0.96284 0.0
C1113 C 0.11249 0.85602 0.8393 0.0
H1114 H 0.03094 0.80717 0.85239 0.0
C1115 C 0.11288 0.87252 0.90266 0.0
C1116 C 0.08373 0.8659 0.94825 0.0
H1117 H 0.13508 0.86241 0.80519 0.0
H1118 H 0.13581 0.89096 0.91556 0.0
C1119 C 0.05419 0.84223 0.92869 0.0
loop_
_geom_bond_atom_site_label_1
_geom_bond_atom_site_label_2
_geom_bond_distance
_geom_bond_site_symmetry_2
_ccdc_geom_bond_type
Eu0 C9 2.828 . S
Eu0 O11 2.392 . S
Eu0 O13 2.418 . S
Eu0 O18 2.373 . S
Eu0 O21 2.488 . S
Eu0 O22 2.471 . S
Eu0 O23 2.349 . S
Eu1 O10 2.373 . S
Eu1 O14 2.488 1_554 S
Eu1 O15 2.471 1_554 S
Eu1 O16 2.349 . S
Eu1 O19 2.392 . S
Eu1 O20 2.418 . S
Eu1 C30 2.828 1_554 S
C2 O20 1.244 . S
C2 O23 1.265 . S
C3 C4 1.379 . S
C3 C7 1.373 . S
C3 C9 1.505 . S
C4 C3 1.379 . S
C4 C6 1.369 . S
C4 H32 0.930 . S
C5 C7 1.383 . S
C5 C8 1.382 . S
C5 H33 0.930 . S
C6 C4 1.369 . S
C6 C8 1.392 . S
C6 H34 0.930 . S
C7 C3 1.373 . S
C7 C5 1.383 . S
C7 H35 0.931 . S
C8 C5 1.382 . S
C8 C6 1.392 . S
C9 Eu0 2.828 . S
C9 C3 1.505 . S
C9 O21 1.249 . S
C9 O22 1.244 . S
O10 Eu1 2.373 . S
O10 C12 1.258 . S
O11 Eu0 2.392 . S
O11 C12 1.242 . S
C12 O10 1.258 . S
C12 O11 1.242 . S
O13 Eu0 2.418 . S
O13 C17 1.244 . S
O14 Eu1 2.488 1_556 S
O14 C30 1.249 . S
O15 Eu1 2.471 1_556 S
O15 C30 1.244 . S
O16 Eu1 2.349 . S
O16 C17 1.265 . S
C17 O13 1.244 . S
C17 O16 1.265 . S
O18 Eu0 2.373 . S
O18 C31 1.258 . S
O19 Eu1 2.392 . S
O19 C31 1.242 . S
O20 Eu1 2.418 . S
O20 C2 1.244 . S
O21 Eu0 2.488 . S
O21 C9 1.249 . S
O22 Eu0 2.471 . S
O22 C9 1.244 . S
O23 Eu0 2.349 . S
O23 C2 1.265 . S
C24 C25 1.379 . S
C24 C28 1.373 . S
C24 C30 1.505 . S
C25 C24 1.379 . S
C25 C27 1.369 . S
C25 H36 0.930 . S
C26 C28 1.383 . S
C26 C29 1.382 . S
C26 H37 0.930 . S
C27 C25 1.369 . S
C27 C29 1.392 . S
C27 H38 0.930 . S
C28 C24 1.373 . S
C28 C26 1.383 . S
C28 H39 0.931 . S
C29 C26 1.382 . S
C29 C27 1.392 . S
C30 Eu1 2.828 1_556 S
C30 O14 1.249 . S
C30 O15 1.244 . S
C30 C24 1.505 . S
C31 O18 1.258 . S
C31 O19 1.242 . S
H32 C4 0.930 . S
H33 C5 0.930 . S
H34 C6 0.930 . S
H35 C7 0.931 . S
H36 C25 0.930 . S
H37 C26 0.930 . S
H38 C27 0.930 . S
H39 C28 0.931 . S
Eu40 C49 2.828 1_556 S
Eu40 O51 2.392 . S
Eu40 O53 2.418 . S
Eu40 O58 2.373 . S
Eu40 O61 2.488 1_556 S
Eu40 O62 2.471 1_556 S
Eu40 O63 2.349 . S
Eu41 O50 2.373 . S
Eu41 O54 2.488 . S
Eu41 O55 2.471 . S
Eu41 O56 2.349 . S
Eu41 O59 2.392 . S
Eu41 O60 2.418 . S
Eu41 C70 2.828 . S
C42 O60 1.244 . S
C42 O63 1.265 . S
C43 C44 1.379 . S
C43 C47 1.373 . S
C43 C49 1.505 . S
C44 C43 1.379 . S
C44 C46 1.369 . S
C44 H72 0.930 . S
C45 C47 1.383 . S
C45 C48 1.382 . S
C45 H73 0.930 . S
C46 C44 1.369 . S
C46 C48 1.392 . S
C46 H74 0.930 . S
C47 C43 1.373 . S
C47 C45 1.383 . S
C47 H75 0.931 . S
C48 C45 1.382 . S
C48 C46 1.392 . S
C49 Eu40 2.828 1_554 S
C49 C43 1.505 . S
C49 O61 1.249 . S
C49 O62 1.244 . S
O50 Eu41 2.373 . S
O50 C52 1.258 . S
O51 Eu40 2.392 . S
O51 C52 1.242 . S
C52 O50 1.258 . S
C52 O51 1.242 . S
O53 Eu40 2.418 . S
O53 C57 1.244 . S
O54 Eu41 2.488 . S
O54 C70 1.249 . S
O55 Eu41 2.471 . S
O55 C70 1.244 . S
O56 Eu41 2.349 . S
O56 C57 1.265 . S
C57 O53 1.244 . S
C57 O56 1.265 . S
O58 Eu40 2.373 . S
O58 C71 1.258 . S
O59 Eu41 2.392 . S
O59 C71 1.242 . S
O60 Eu41 2.418 . S
O60 C42 1.244 . S
O61 Eu40 2.488 1_554 S
O61 C49 1.249 . S
O62 Eu40 2.471 1_554 S
O62 C49 1.244 . S
O63 Eu40 2.349 . S
O63 C42 1.265 . S
C64 C65 1.379 . S
C64 C68 1.373 . S
C64 C70 1.505 . S
C65 C64 1.379 . S
C65 C67 1.369 . S
C65 H76 0.930 . S
C66 C68 1.383 . S
C66 C69 1.382 . S
C66 H77 0.930 . S
C67 C65 1.369 . S
C67 C69 1.392 . S
C67 H78 0.930 . S
C68 C64 1.373 . S
C68 C66 1.383 . S
C68 H79 0.931 . S
C69 C66 1.382 . S
C69 C67 1.392 . S
C70 Eu41 2.828 . S
C70 O54 1.249 . S
C70 O55 1.244 . S
C70 C64 1.505 . S
C71 O58 1.258 . S
C71 O59 1.242 . S
H72 C44 0.930 . S
H73 C45 0.930 . S
H74 C46 0.930 . S
H75 C47 0.931 . S
H76 C65 0.930 . S
H77 C66 0.930 . S
H78 C67 0.930 . S
H79 C68 0.931 . S
Eu80 C89 2.828 . S
Eu80 O91 2.392 . S
Eu80 O93 2.418 . S
Eu80 O98 2.373 . S
Eu80 O101 2.488 . S
Eu80 O102 2.471 . S
Eu80 O103 2.349 . S
Eu81 O90 2.373 . S
Eu81 O94 2.488 1_554 S
Eu81 O95 2.471 1_554 S
Eu81 O96 2.349 . S
Eu81 O99 2.392 . S
Eu81 O100 2.418 . S
Eu81 C110 2.828 1_554 S
C82 O100 1.244 . S
C82 O103 1.265 . S
C83 C84 1.379 . S
C83 C87 1.373 . S
C83 C89 1.505 . S
C84 C83 1.379 . S
C84 C86 1.369 . S
C84 H112 0.930 . S
C85 C87 1.383 . S
C85 C88 1.382 . S
C85 H113 0.930 . S
C86 C84 1.369 . S
C86 C88 1.392 . S
C86 H114 0.930 . S
C87 C83 1.373 . S
C87 C85 1.383 . S
C87 H115 0.931 . S
C88 C85 1.382 . S
C88 C86 1.392 . S
C89 Eu80 2.828 . S
C89 C83 1.505 . S
C89 O101 1.249 . S
C89 O102 1.244 . S
O90 Eu81 2.373 . S
O90 C92 1.258 . S
O91 Eu80 2.392 . S
O91 C92 1.242 . S
C92 O90 1.258 . S
C92 O91 1.242 . S
O93 Eu80 2.418 . S
O93 C97 1.244 . S
O94 Eu81 2.488 1_556 S
O94 C110 1.249 . S
O95 Eu81 2.471 1_556 S
O95 C110 1.244 . S
O96 Eu81 2.349 . S
O96 C97 1.265 . S
C97 O93 1.244 . S
C97 O96 1.265 . S
O98 Eu80 2.373 . S
O98 C111 1.258 . S
O99 Eu81 2.392 . S
O99 C111 1.242 . S
O100 Eu81 2.418 . S
O100 C82 1.244 . S
O101 Eu80 2.488 . S
O101 C89 1.249 . S
O102 Eu80 2.471 . S
O102 C89 1.244 . S
O103 Eu80 2.349 . S
O103 C82 1.265 . S
C104 C105 1.379 . S
C104 C108 1.373 . S
C104 C110 1.505 . S
C105 C104 1.379 . S
C105 C107 1.369 . S
C105 H116 0.930 . S
C106 C108 1.383 . S
C106 C109 1.382 . S
C106 H117 0.930 . S
C107 C105 1.369 . S
C107 C109 1.392 . S
C107 H118 0.930 . S
C108 C104 1.373 . S
C108 C106 1.383 . S
C108 H119 0.931 . S
C109 C106 1.382 . S
C109 C107 1.392 . S
C110 Eu81 2.828 1_556 S
C110 O94 1.249 . S
C110 O95 1.244 . S
C110 C104 1.505 . S
C111 O98 1.258 . S
C111 O99 1.242 . S
H112 C84 0.930 . S
H113 C85 0.930 . S
H114 C86 0.930 . S
H115 C87 0.931 . S
H116 C105 0.930 . S
H117 C106 0.930 . S
H118 C107 0.930 . S
H119 C108 0.931 . S
Eu120 C129 2.828 1_556 S
Eu120 O131 2.392 . S
Eu120 O133 2.418 . S
Eu120 O138 2.373 . S
Eu120 O141 2.488 1_556 S
Eu120 O142 2.471 1_556 S
Eu120 O143 2.349 . S
Eu121 O130 2.373 . S
Eu121 O134 2.488 . S
Eu121 O135 2.471 . S
Eu121 O136 2.349 . S
Eu121 O139 2.392 . S
Eu121 O140 2.418 . S
Eu121 C150 2.828 . S
C122 O140 1.244 . S
C122 O143 1.265 . S
C123 C124 1.379 . S
C123 C127 1.373 . S
C123 C129 1.505 . S
C124 C123 1.379 . S
C124 C126 1.369 . S
C124 H152 0.930 . S
C125 C127 1.383 . S
C125 C128 1.382 . S
C125 H153 0.930 . S
C126 C124 1.369 . S
C126 C128 1.392 . S
C126 H154 0.930 . S
C127 C123 1.373 . S
C127 C125 1.383 . S
C127 H155 0.931 . S
C128 C125 1.382 . S
C128 C126 1.392 . S
C129 Eu120 2.828 1_554 S
C129 C123 1.505 . S
C129 O141 1.249 . S
C129 O142 1.244 . S
O130 Eu121 2.373 . S
O130 C132 1.258 . S
O131 Eu120 2.392 . S
O131 C132 1.242 . S
C132 O130 1.258 . S
C132 O131 1.242 . S
O133 Eu120 2.418 . S
O133 C137 1.244 . S
O134 Eu121 2.488 . S
O134 C150 1.249 . S
O135 Eu121 2.471 . S
O135 C150 1.244 . S
O136 Eu121 2.349 . S
O136 C137 1.265 . S
C137 O133 1.244 . S
C137 O136 1.265 . S
O138 Eu120 2.373 . S
O138 C151 1.258 . S
O139 Eu121 2.392 . S
O139 C151 1.242 . S
O140 Eu121 2.418 . S
O140 C122 1.244 . S
O141 Eu120 2.488 1_554 S
O141 C129 1.249 . S
O142 Eu120 2.471 1_554 S
O142 C129 1.244 . S
O143 Eu120 2.349 . S
O143 C122 1.265 . S
C144 C145 1.379 . S
C144 C148 1.373 . S
C144 C150 1.505 . S
C145 C144 1.379 . S
C145 C147 1.369 . S
C145 H156 0.930 . S
C146 C148 1.383 . S
C146 C149 1.382 . S
C146 H157 0.930 . S
C147 C145 1.369 . S
C147 C149 1.392 . S
C147 H158 0.930 . S
C148 C144 1.373 . S
C148 C146 1.383 . S
C148 H159 0.931 . S
C149 C146 1.382 . S
C149 C147 1.392 . S
C150 Eu121 2.828 . S
C150 O134 1.249 . S
C150 O135 1.244 . S
C150 C144 1.505 . S
C151 O138 1.258 . S
C151 O139 1.242 . S
H152 C124 0.930 . S
H153 C125 0.930 . S
H154 C126 0.930 . S
H155 C127 0.931 . S
H156 C145 0.930 . S
H157 C146 0.930 . S
H158 C147 0.930 . S
H159 C148 0.931 . S
Eu160 C169 2.828 1_554 S
Eu160 O171 2.392 . S
Eu160 O173 2.418 . S
Eu160 O178 2.373 . S
Eu160 O181 2.488 1_554 S
Eu160 O182 2.471 1_554 S
Eu160 O183 2.349 . S
Eu161 O170 2.373 . S
Eu161 O174 2.488 . S
Eu161 O175 2.471 . S
Eu161 O176 2.349 . S
Eu161 O179 2.392 . S
Eu161 O180 2.418 . S
Eu161 C190 2.828 . S
C162 O180 1.244 . S
C162 O183 1.265 . S
C163 C164 1.379 . S
C163 C167 1.373 . S
C163 C169 1.505 . S
C164 C163 1.379 . S
C164 C166 1.369 . S
C164 H192 0.930 . S
C165 C167 1.383 . S
C165 C168 1.382 . S
C165 H193 0.930 . S
C166 C164 1.369 . S
C166 C168 1.392 . S
C166 H194 0.930 . S
C167 C163 1.373 . S
C167 C165 1.383 . S
C167 H195 0.931 . S
C168 C165 1.382 . S
C168 C166 1.392 . S
C169 Eu160 2.828 1_556 S
C169 C163 1.505 . S
C169 O181 1.249 . S
C169 O182 1.244 . S
O170 Eu161 2.373 . S
O170 C172 1.258 . S
O171 Eu160 2.392 . S
O171 C172 1.242 . S
C172 O170 1.258 . S
C172 O171 1.242 . S
O173 Eu160 2.418 . S
O173 C177 1.244 . S
O174 Eu161 2.488 . S
O174 C190 1.249 . S
O175 Eu161 2.471 . S
O175 C190 1.244 . S
O176 Eu161 2.349 . S
O176 C177 1.265 . S
C177 O173 1.244 . S
C177 O176 1.265 . S
O178 Eu160 2.373 . S
O178 C191 1.258 . S
O179 Eu161 2.392 . S
O179 C191 1.242 . S
O180 Eu161 2.418 . S
O180 C162 1.244 . S
O181 Eu160 2.488 1_556 S
O181 C169 1.249 . S
O182 Eu160 2.471 1_556 S
O182 C169 1.244 . S
O183 Eu160 2.349 . S
O183 C162 1.265 . S
C184 C185 1.379 . S
C184 C188 1.373 . S
C184 C190 1.505 . S
C185 C184 1.379 . S
C185 C187 1.369 . S
C185 H196 0.930 . S
C186 C188 1.383 . S
C186 C189 1.382 . S
C186 H197 0.930 . S
C187 C185 1.369 . S
C187 C189 1.392 . S
C187 H198 0.930 . S
C188 C184 1.373 . S
C188 C186 1.383 . S
C188 H199 0.931 . S
C189 C186 1.382 . S
C189 C187 1.392 . S
C190 Eu161 2.828 . S
C190 O174 1.249 . S
C190 O175 1.244 . S
C190 C184 1.505 . S
C191 O178 1.258 . S
C191 O179 1.242 . S
H192 C164 0.930 . S
H193 C165 0.930 . S
H194 C166 0.930 . S
H195 C167 0.931 . S
H196 C185 0.930 . S
H197 C186 0.930 . S
H198 C187 0.930 . S
H199 C188 0.931 . S
Eu200 C209 2.828 . S
Eu200 O211 2.392 . S
Eu200 O213 2.418 . S
Eu200 O218 2.373 . S
Eu200 O221 2.488 . S
Eu200 O222 2.471 . S
Eu200 O223 2.349 . S
Eu201 O210 2.373 . S
Eu201 O214 2.488 1_556 S
Eu201 O215 2.471 1_556 S
Eu201 O216 2.349 . S
Eu201 O219 2.392 . S
Eu201 O220 2.418 . S
Eu201 C230 2.828 1_556 S
C202 O220 1.244 . S
C202 O223 1.265 . S
C203 C204 1.379 . S
C203 C207 1.373 . S
C203 C209 1.505 . S
C204 C203 1.379 . S
C204 C206 1.369 . S
C204 H232 0.930 . S
C205 C207 1.383 . S
C205 C208 1.382 . S
C205 H233 0.930 . S
C206 C204 1.369 . S
C206 C208 1.392 . S
C206 H234 0.930 . S
C207 C203 1.373 . S
C207 C205 1.383 . S
C207 H235 0.931 . S
C208 C205 1.382 . S
C208 C206 1.392 . S
C209 Eu200 2.828 . S
C209 C203 1.505 . S
C209 O221 1.249 . S
C209 O222 1.244 . S
O210 Eu201 2.373 . S
O210 C212 1.258 . S
O211 Eu200 2.392 . S
O211 C212 1.242 . S
C212 O210 1.258 . S
C212 O211 1.242 . S
O213 Eu200 2.418 . S
O213 C217 1.244 . S
O214 Eu201 2.488 1_554 S
O214 C230 1.249 . S
O215 Eu201 2.471 1_554 S
O215 C230 1.244 . S
O216 Eu201 2.349 . S
O216 C217 1.265 . S
C217 O213 1.244 . S
C217 O216 1.265 . S
O218 Eu200 2.373 . S
O218 C231 1.258 . S
O219 Eu201 2.392 . S
O219 C231 1.242 . S
O220 Eu201 2.418 . S
O220 C202 1.244 . S
O221 Eu200 2.488 . S
O221 C209 1.249 . S
O222 Eu200 2.471 . S
O222 C209 1.244 . S
O223 Eu200 2.349 . S
O223 C202 1.265 . S
C224 C225 1.379 . S
C224 C228 1.373 . S
C224 C230 1.505 . S
C225 C224 1.379 . S
C225 C227 1.369 . S
C225 H236 0.930 . S
C226 C228 1.383 . S
C226 C229 1.382 . S
C226 H237 0.930 . S
C227 C225 1.369 . S
C227 C229 1.392 . S
C227 H238 0.930 . S
C228 C224 1.373 . S
C228 C226 1.383 . S
C228 H239 0.931 . S
C229 C226 1.382 . S
C229 C227 1.392 . S
C230 Eu201 2.828 1_554 S
C230 O214 1.249 . S
C230 O215 1.244 . S
C230 C224 1.505 . S
C231 O218 1.258 . S
C231 O219 1.242 . S
H232 C204 0.930 . S
H233 C205 0.930 . S
H234 C206 0.930 . S
H235 C207 0.931 . S
H236 C225 0.930 . S
H237 C226 0.930 . S
H238 C227 0.930 . S
H239 C228 0.931 . S
Eu240 C249 2.828 1_554 S
Eu240 O251 2.392 . S
Eu240 O253 2.418 . S
Eu240 O258 2.373 . S
Eu240 O261 2.488 1_554 S
Eu240 O262 2.471 1_554 S
Eu240 O263 2.349 . S
Eu241 O250 2.373 . S
Eu241 O254 2.488 . S
Eu241 O255 2.471 . S
Eu241 O256 2.349 . S
Eu241 O259 2.392 . S
Eu241 O260 2.418 . S
Eu241 C270 2.828 . S
C242 O260 1.244 . S
C242 O263 1.265 . S
C243 C244 1.379 . S
C243 C247 1.373 . S
C243 C249 1.505 . S
C244 C243 1.379 . S
C244 C246 1.369 . S
C244 H272 0.930 . S
C245 C247 1.383 . S
C245 C248 1.382 . S
C245 H273 0.930 . S
C246 C244 1.369 . S
C246 C248 1.392 . S
C246 H274 0.930 . S
C247 C243 1.373 . S
C247 C245 1.383 . S
C247 H275 0.931 . S
C248 C245 1.382 . S
C248 C246 1.392 . S
C249 Eu240 2.828 1_556 S
C249 C243 1.505 . S
C249 O261 1.249 . S
C249 O262 1.244 . S
O250 Eu241 2.373 . S
O250 C252 1.258 . S
O251 Eu240 2.392 . S
O251 C252 1.242 . S
C252 O250 1.258 . S
C252 O251 1.242 . S
O253 Eu240 2.418 . S
O253 C257 1.244 . S
O254 Eu241 2.488 . S
O254 C270 1.249 . S
O255 Eu241 2.471 . S
O255 C270 1.244 . S
O256 Eu241 2.349 . S
O256 C257 1.265 . S
C257 O253 1.244 . S
C257 O256 1.265 . S
O258 Eu240 2.373 . S
O258 C271 1.258 . S
O259 Eu241 2.392 . S
O259 C271 1.242 . S
O260 Eu241 2.418 . S
O260 C242 1.244 . S
O261 Eu240 2.488 1_556 S
O261 C249 1.249 . S
O262 Eu240 2.471 1_556 S
O262 C249 1.244 . S
O263 Eu240 2.349 . S
O263 C242 1.265 . S
C264 C265 1.379 . S
C264 C268 1.373 . S
C264 C270 1.505 . S
C265 C264 1.379 . S
C265 C267 1.369 . S
C265 H276 0.930 . S
C266 C268 1.383 . S
C266 C269 1.382 . S
C266 H277 0.930 . S
C267 C265 1.369 . S
C267 C269 1.392 . S
C267 H278 0.930 . S
C268 C264 1.373 . S
C268 C266 1.383 . S
C268 H279 0.931 . S
C269 C266 1.382 . S
C269 C267 1.392 . S
C270 Eu241 2.828 . S
C270 O254 1.249 . S
C270 O255 1.244 . S
C270 C264 1.505 . S
C271 O258 1.258 . S
C271 O259 1.242 . S
H272 C244 0.930 . S
H273 C245 0.930 . S
H274 C246 0.930 . S
H275 C247 0.931 . S
H276 C265 0.930 . S
H277 C266 0.930 . S
H278 C267 0.930 . S
H279 C268 0.931 . S
Eu280 C289 2.828 . S
Eu280 O291 2.392 . S
Eu280 O293 2.418 . S
Eu280 O298 2.373 . S
Eu280 O301 2.488 . S
Eu280 O302 2.471 . S
Eu280 O303 2.349 . S
Eu281 O290 2.373 . S
Eu281 O294 2.488 1_556 S
Eu281 O295 2.471 1_556 S
Eu281 O296 2.349 . S
Eu281 O299 2.392 . S
Eu281 O300 2.418 . S
Eu281 C310 2.828 1_556 S
C282 O300 1.244 . S
C282 O303 1.265 . S
C283 C284 1.379 . S
C283 C287 1.373 . S
C283 C289 1.505 . S
C284 C283 1.379 . S
C284 C286 1.369 . S
C284 H312 0.930 . S
C285 C287 1.383 . S
C285 C288 1.382 . S
C285 H313 0.930 . S
C286 C284 1.369 . S
C286 C288 1.392 . S
C286 H314 0.930 . S
C287 C283 1.373 . S
C287 C285 1.383 . S
C287 H315 0.931 . S
C288 C285 1.382 . S
C288 C286 1.392 . S
C289 Eu280 2.828 . S
C289 C283 1.505 . S
C289 O301 1.249 . S
C289 O302 1.244 . S
O290 Eu281 2.373 . S
O290 C292 1.258 . S
O291 Eu280 2.392 . S
O291 C292 1.242 . S
C292 O290 1.258 . S
C292 O291 1.242 . S
O293 Eu280 2.418 . S
O293 C297 1.244 . S
O294 Eu281 2.488 1_554 S
O294 C310 1.249 . S
O295 Eu281 2.471 1_554 S
O295 C310 1.244 . S
O296 Eu281 2.349 . S
O296 C297 1.265 . S
C297 O293 1.244 . S
C297 O296 1.265 . S
O298 Eu280 2.373 . S
O298 C311 1.258 . S
O299 Eu281 2.392 . S
O299 C311 1.242 . S
O300 Eu281 2.418 . S
O300 C282 1.244 . S
O301 Eu280 2.488 . S
O301 C289 1.249 . S
O302 Eu280 2.471 . S
O302 C289 1.244 . S
O303 Eu280 2.349 . S
O303 C282 1.265 . S
C304 C305 1.379 . S
C304 C308 1.373 . S
C304 C310 1.505 . S
C305 C304 1.379 . S
C305 C307 1.369 . S
C305 H316 0.930 . S
C306 C308 1.383 . S
C306 C309 1.382 . S
C306 H317 0.930 . S
C307 C305 1.369 . S
C307 C309 1.392 . S
C307 H318 0.930 . S
C308 C304 1.373 . S
C308 C306 1.383 . S
C308 H319 0.931 . S
C309 C306 1.382 . S
C309 C307 1.392 . S
C310 Eu281 2.828 1_554 S
C310 O294 1.249 . S
C310 O295 1.244 . S
C310 C304 1.505 . S
C311 O298 1.258 . S
C311 O299 1.242 . S
H312 C284 0.930 . S
H313 C285 0.930 . S
H314 C286 0.930 . S
H315 C287 0.931 . S
H316 C305 0.930 . S
H317 C306 0.930 . S
H318 C307 0.930 . S
H319 C308 0.931 . S
Eu320 C329 2.828 . S
Eu320 O331 2.392 . S
Eu320 O333 2.418 . S
Eu320 O338 2.373 . S
Eu320 O341 2.488 . S
Eu320 O342 2.471 . S
Eu320 O343 2.349 . S
Eu321 O330 2.373 . S
Eu321 O334 2.488 . S
Eu321 O335 2.471 . S
Eu321 O336 2.349 . S
Eu321 O339 2.392 . S
Eu321 O340 2.418 . S
Eu321 C350 2.828 . S
C322 O340 1.244 . S
C322 O343 1.265 . S
C323 C324 1.379 . S
C323 C327 1.373 . S
C323 C329 1.505 . S
C324 C323 1.379 . S
C324 C326 1.369 . S
C324 H352 0.930 . S
C325 C327 1.383 . S
C325 C328 1.382 1_556 S
C325 H353 0.930 1_556 S
C326 C324 1.369 . S
C326 C328 1.392 1_556 S
C326 H354 0.930 1_556 S
C327 C323 1.373 . S
C327 C325 1.383 . S
C327 H355 0.931 . S
C328 C325 1.382 1_554 S
C328 C326 1.392 1_554 S
C329 Eu320 2.828 . S
C329 C323 1.505 . S
C329 O341 1.249 . S
C329 O342 1.244 . S
O330 Eu321 2.373 . S
O330 C332 1.258 . S
O331 Eu320 2.392 . S
O331 C332 1.242 . S
C332 O330 1.258 . S
C332 O331 1.242 . S
O333 Eu320 2.418 . S
O333 C337 1.244 . S
O334 Eu321 2.488 . S
O334 C350 1.249 . S
O335 Eu321 2.471 . S
O335 C350 1.244 . S
O336 Eu321 2.349 . S
O336 C337 1.265 . S
C337 O333 1.244 . S
C337 O336 1.265 . S
O338 Eu320 2.373 . S
O338 C351 1.258 . S
O339 Eu321 2.392 . S
O339 C351 1.242 . S
O340 Eu321 2.418 . S
O340 C322 1.244 . S
O341 Eu320 2.488 . S
O341 C329 1.249 . S
O342 Eu320 2.471 . S
O342 C329 1.244 . S
O343 Eu320 2.349 . S
O343 C322 1.265 . S
C344 C345 1.379 . S
C344 C348 1.373 . S
C344 C350 1.505 . S
C345 C344 1.379 . S
C345 C347 1.369 . S
C345 H356 0.930 . S
C346 C348 1.383 . S
C346 C349 1.382 . S
C346 H357 0.930 . S
C347 C345 1.369 . S
C347 C349 1.392 . S
C347 H358 0.930 . S
C348 C344 1.373 . S
C348 C346 1.383 . S
C348 H359 0.931 . S
C349 C346 1.382 . S
C349 C347 1.392 . S
C350 Eu321 2.828 . S
C350 O334 1.249 . S
C350 O335 1.244 . S
C350 C344 1.505 . S
C351 O338 1.258 . S
C351 O339 1.242 . S
H352 C324 0.930 . S
H353 C325 0.930 1_554 S
H354 C326 0.930 1_554 S
H355 C327 0.931 . S
H356 C345 0.930 . S
H357 C346 0.930 . S
H358 C347 0.930 . S
H359 C348 0.931 . S
Eu360 C369 2.828 . S
Eu360 O371 2.392 . S
Eu360 O373 2.418 . S
Eu360 O378 2.373 . S
Eu360 O381 2.488 . S
Eu360 O382 2.471 . S
Eu360 O383 2.349 . S
Eu361 O370 2.373 . S
Eu361 O374 2.488 . S
Eu361 O375 2.471 . S
Eu361 O376 2.349 . S
Eu361 O379 2.392 . S
Eu361 O380 2.418 . S
Eu361 C390 2.828 . S
C362 O380 1.244 . S
C362 O383 1.265 . S
C363 C364 1.379 . S
C363 C367 1.373 . S
C363 C369 1.505 . S
C364 C363 1.379 . S
C364 C366 1.369 . S
C364 H392 0.930 . S
C365 C367 1.383 . S
C365 C368 1.382 . S
C365 H393 0.930 . S
C366 C364 1.369 . S
C366 C368 1.392 . S
C366 H394 0.930 . S
C367 C363 1.373 . S
C367 C365 1.383 . S
C367 H395 0.931 . S
C368 C365 1.382 . S
C368 C366 1.392 . S
C369 Eu360 2.828 . S
C369 C363 1.505 . S
C369 O381 1.249 . S
C369 O382 1.244 . S
O370 Eu361 2.373 . S
O370 C372 1.258 . S
O371 Eu360 2.392 . S
O371 C372 1.242 . S
C372 O370 1.258 . S
C372 O371 1.242 . S
O373 Eu360 2.418 . S
O373 C377 1.244 . S
O374 Eu361 2.488 . S
O374 C390 1.249 . S
O375 Eu361 2.471 . S
O375 C390 1.244 . S
O376 Eu361 2.349 . S
O376 C377 1.265 . S
C377 O373 1.244 . S
C377 O376 1.265 . S
O378 Eu360 2.373 . S
O378 C391 1.258 . S
O379 Eu361 2.392 . S
O379 C391 1.242 . S
O380 Eu361 2.418 . S
O380 C362 1.244 . S
O381 Eu360 2.488 . S
O381 C369 1.249 . S
O382 Eu360 2.471 . S
O382 C369 1.244 . S
O383 Eu360 2.349 . S
O383 C362 1.265 . S
C384 C385 1.379 . S
C384 C388 1.373 . S
C384 C390 1.505 . S
C385 C384 1.379 . S
C385 C387 1.369 . S
C385 H396 0.930 . S
C386 C388 1.383 . S
C386 C389 1.382 1_554 S
C386 H397 0.930 1_554 S
C387 C385 1.369 . S
C387 C389 1.392 1_554 S
C387 H398 0.930 1_554 S
C388 C384 1.373 . S
C388 C386 1.383 . S
C388 H399 0.931 . S
C389 C386 1.382 1_556 S
C389 C387 1.392 1_556 S
C390 Eu361 2.828 . S
C390 O374 1.249 . S
C390 O375 1.244 . S
C390 C384 1.505 . S
C391 O378 1.258 . S
C391 O379 1.242 . S
H392 C364 0.930 . S
H393 C365 0.930 . S
H394 C366 0.930 . S
H395 C367 0.931 . S
H396 C385 0.930 . S
H397 C386 0.930 1_556 S
H398 C387 0.930 1_556 S
H399 C388 0.931 . S
Eu400 C409 2.828 . S
Eu400 O411 2.392 . S
Eu400 O413 2.418 . S
Eu400 O418 2.373 . S
Eu400 O421 2.488 . S
Eu400 O422 2.471 . S
Eu400 O423 2.349 . S
Eu401 O410 2.373 . S
Eu401 O414 2.488 . S
Eu401 O415 2.471 . S
Eu401 O416 2.349 . S
Eu401 O419 2.392 . S
Eu401 O420 2.418 . S
Eu401 C430 2.828 . S
C402 O420 1.244 . S
C402 O423 1.265 . S
C403 C404 1.379 . S
C403 C407 1.373 . S
C403 C409 1.505 . S
C404 C403 1.379 . S
C404 C406 1.369 . S
C404 H432 0.930 . S
C405 C407 1.383 . S
C405 C408 1.382 1_556 S
C405 H433 0.930 1_556 S
C406 C404 1.369 . S
C406 C408 1.392 1_556 S
C406 H434 0.930 1_556 S
C407 C403 1.373 . S
C407 C405 1.383 . S
C407 H435 0.931 . S
C408 C405 1.382 1_554 S
C408 C406 1.392 1_554 S
C409 Eu400 2.828 . S
C409 C403 1.505 . S
C409 O421 1.249 . S
C409 O422 1.244 . S
O410 Eu401 2.373 . S
O410 C412 1.258 . S
O411 Eu400 2.392 . S
O411 C412 1.242 . S
C412 O410 1.258 . S
C412 O411 1.242 . S
O413 Eu400 2.418 . S
O413 C417 1.244 . S
O414 Eu401 2.488 . S
O414 C430 1.249 . S
O415 Eu401 2.471 . S
O415 C430 1.244 . S
O416 Eu401 2.349 . S
O416 C417 1.265 . S
C417 O413 1.244 . S
C417 O416 1.265 . S
O418 Eu400 2.373 . S
O418 C431 1.258 . S
O419 Eu401 2.392 . S
O419 C431 1.242 . S
O420 Eu401 2.418 . S
O420 C402 1.244 . S
O421 Eu400 2.488 . S
O421 C409 1.249 . S
O422 Eu400 2.471 . S
O422 C409 1.244 . S
O423 Eu400 2.349 . S
O423 C402 1.265 . S
C424 C425 1.379 . S
C424 C428 1.373 . S
C424 C430 1.505 . S
C425 C424 1.379 . S
C425 C427 1.369 . S
C425 H436 0.930 . S
C426 C428 1.383 . S
C426 C429 1.382 . S
C426 H437 0.930 . S
C427 C425 1.369 . S
C427 C429 1.392 . S
C427 H438 0.930 . S
C428 C424 1.373 . S
C428 C426 1.383 . S
C428 H439 0.931 . S
C429 C426 1.382 . S
C429 C427 1.392 . S
C430 Eu401 2.828 . S
C430 O414 1.249 . S
C430 O415 1.244 . S
C430 C424 1.505 . S
C431 O418 1.258 . S
C431 O419 1.242 . S
H432 C404 0.930 . S
H433 C405 0.930 1_554 S
H434 C406 0.930 1_554 S
H435 C407 0.931 . S
H436 C425 0.930 . S
H437 C426 0.930 . S
H438 C427 0.930 . S
H439 C428 0.931 . S
Eu440 C449 2.828 . S
Eu440 O451 2.392 . S
Eu440 O453 2.418 . S
Eu440 O458 2.373 . S
Eu440 O461 2.488 . S
Eu440 O462 2.471 . S
Eu440 O463 2.349 . S
Eu441 O450 2.373 . S
Eu441 O454 2.488 . S
Eu441 O455 2.471 . S
Eu441 O456 2.349 . S
Eu441 O459 2.392 . S
Eu441 O460 2.418 . S
Eu441 C470 2.828 . S
C442 O460 1.244 . S
C442 O463 1.265 . S
C443 C444 1.379 . S
C443 C447 1.373 . S
C443 C449 1.505 . S
C444 C443 1.379 . S
C444 C446 1.369 . S
C444 H472 0.930 . S
C445 C447 1.383 . S
C445 C448 1.382 . S
C445 H473 0.930 . S
C446 C444 1.369 . S
C446 C448 1.392 . S
C446 H474 0.930 . S
C447 C443 1.373 . S
C447 C445 1.383 . S
C447 H475 0.931 . S
C448 C445 1.382 . S
C448 C446 1.392 . S
C449 Eu440 2.828 . S
C449 C443 1.505 . S
C449 O461 1.249 . S
C449 O462 1.244 . S
O450 Eu441 2.373 . S
O450 C452 1.258 . S
O451 Eu440 2.392 . S
O451 C452 1.242 . S
C452 O450 1.258 . S
C452 O451 1.242 . S
O453 Eu440 2.418 . S
O453 C457 1.244 . S
O454 Eu441 2.488 . S
O454 C470 1.249 . S
O455 Eu441 2.471 . S
O455 C470 1.244 . S
O456 Eu441 2.349 . S
O456 C457 1.265 . S
C457 O453 1.244 . S
C457 O456 1.265 . S
O458 Eu440 2.373 . S
O458 C471 1.258 . S
O459 Eu441 2.392 . S
O459 C471 1.242 . S
O460 Eu441 2.418 . S
O460 C442 1.244 . S
O461 Eu440 2.488 . S
O461 C449 1.249 . S
O462 Eu440 2.471 . S
O462 C449 1.244 . S
O463 Eu440 2.349 . S
O463 C442 1.265 . S
C464 C465 1.379 . S
C464 C468 1.373 . S
C464 C470 1.505 . S
C465 C464 1.379 . S
C465 C467 1.369 . S
C465 H476 0.930 . S
C466 C468 1.383 . S
C466 C469 1.382 1_554 S
C466 H477 0.930 1_554 S
C467 C465 1.369 . S
C467 C469 1.392 1_554 S
C467 H478 0.930 1_554 S
C468 C464 1.373 . S
C468 C466 1.383 . S
C468 H479 0.931 . S
C469 C466 1.382 1_556 S
C469 C467 1.392 1_556 S
C470 Eu441 2.828 . S
C470 O454 1.249 . S
C470 O455 1.244 . S
C470 C464 1.505 . S
C471 O458 1.258 . S
C471 O459 1.242 . S
H472 C444 0.930 . S
H473 C445 0.930 . S
H474 C446 0.930 . S
H475 C447 0.931 . S
H476 C465 0.930 . S
H477 C466 0.930 1_556 S
H478 C467 0.930 1_556 S
H479 C468 0.931 . S
Eu480 C489 2.828 . S
Eu480 O491 2.392 . S
Eu480 O493 2.418 . S
Eu480 O498 2.373 . S
Eu480 O501 2.488 . S
Eu480 O502 2.471 . S
Eu480 O503 2.349 . S
Eu481 O490 2.373 . S
Eu481 O494 2.488 . S
Eu481 O495 2.471 . S
Eu481 O496 2.349 . S
Eu481 O499 2.392 . S
Eu481 O500 2.418 . S
Eu481 C510 2.828 . S
C482 O500 1.244 . S
C482 O503 1.265 . S
C483 C484 1.379 . S
C483 C487 1.373 . S
C483 C489 1.505 . S
C484 C483 1.379 . S
C484 C486 1.369 . S
C484 H512 0.930 . S
C485 C487 1.383 . S
C485 C488 1.382 . S
C485 H513 0.930 . S
C486 C484 1.369 . S
C486 C488 1.392 . S
C486 H514 0.930 . S
C487 C483 1.373 . S
C487 C485 1.383 . S
C487 H515 0.931 . S
C488 C485 1.382 . S
C488 C486 1.392 . S
C489 Eu480 2.828 . S
C489 C483 1.505 . S
C489 O501 1.249 . S
C489 O502 1.244 . S
O490 Eu481 2.373 . S
O490 C492 1.258 . S
O491 Eu480 2.392 . S
O491 C492 1.242 . S
C492 O490 1.258 . S
C492 O491 1.242 . S
O493 Eu480 2.418 . S
O493 C497 1.244 . S
O494 Eu481 2.488 . S
O494 C510 1.249 . S
O495 Eu481 2.471 . S
O495 C510 1.244 . S
O496 Eu481 2.349 . S
O496 C497 1.265 . S
C497 O493 1.244 . S
C497 O496 1.265 . S
O498 Eu480 2.373 . S
O498 C511 1.258 . S
O499 Eu481 2.392 . S
O499 C511 1.242 . S
O500 Eu481 2.418 . S
O500 C482 1.244 . S
O501 Eu480 2.488 . S
O501 C489 1.249 . S
O502 Eu480 2.471 . S
O502 C489 1.244 . S
O503 Eu480 2.349 . S
O503 C482 1.265 . S
C504 C505 1.379 . S
C504 C508 1.373 . S
C504 C510 1.505 . S
C505 C504 1.379 . S
C505 C507 1.369 . S
C505 H516 0.930 . S
C506 C508 1.383 . S
C506 C509 1.382 1_556 S
C506 H517 0.930 1_556 S
C507 C505 1.369 . S
C507 C509 1.392 1_556 S
C507 H518 0.930 . S
C508 C504 1.373 . S
C508 C506 1.383 . S
C508 H519 0.931 . S
C509 C506 1.382 1_554 S
C509 C507 1.392 1_554 S
C510 Eu481 2.828 . S
C510 O494 1.249 . S
C510 O495 1.244 . S
C510 C504 1.505 . S
C511 O498 1.258 . S
C511 O499 1.242 . S
H512 C484 0.930 . S
H513 C485 0.930 . S
H514 C486 0.930 . S
H515 C487 0.931 . S
H516 C505 0.930 . S
H517 C506 0.930 1_554 S
H518 C507 0.930 . S
H519 C508 0.931 . S
Eu520 C529 2.828 . S
Eu520 O531 2.392 . S
Eu520 O533 2.418 . S
Eu520 O538 2.373 . S
Eu520 O541 2.488 . S
Eu520 O542 2.471 . S
Eu520 O543 2.349 . S
Eu521 O530 2.373 . S
Eu521 O534 2.488 . S
Eu521 O535 2.471 . S
Eu521 O536 2.349 . S
Eu521 O539 2.392 . S
Eu521 O540 2.418 . S
Eu521 C550 2.828 . S
C522 O540 1.244 . S
C522 O543 1.265 . S
C523 C524 1.379 . S
C523 C527 1.373 . S
C523 C529 1.505 . S
C524 C523 1.379 . S
C524 C526 1.369 . S
C524 H552 0.930 . S
C525 C527 1.383 . S
C525 C528 1.382 1_554 S
C525 H553 0.930 1_554 S
C526 C524 1.369 . S
C526 C528 1.392 1_554 S
C526 H554 0.930 . S
C527 C523 1.373 . S
C527 C525 1.383 . S
C527 H555 0.931 . S
C528 C525 1.382 1_556 S
C528 C526 1.392 1_556 S
C529 Eu520 2.828 . S
C529 C523 1.505 . S
C529 O541 1.249 . S
C529 O542 1.244 . S
O530 Eu521 2.373 . S
O530 C532 1.258 . S
O531 Eu520 2.392 . S
O531 C532 1.242 . S
C532 O530 1.258 . S
C532 O531 1.242 . S
O533 Eu520 2.418 . S
O533 C537 1.244 . S
O534 Eu521 2.488 . S
O534 C550 1.249 . S
O535 Eu521 2.471 . S
O535 C550 1.244 . S
O536 Eu521 2.349 . S
O536 C537 1.265 . S
C537 O533 1.244 . S
C537 O536 1.265 . S
O538 Eu520 2.373 . S
O538 C551 1.258 . S
O539 Eu521 2.392 . S
O539 C551 1.242 . S
O540 Eu521 2.418 . S
O540 C522 1.244 . S
O541 Eu520 2.488 . S
O541 C529 1.249 . S
O542 Eu520 2.471 . S
O542 C529 1.244 . S
O543 Eu520 2.349 . S
O543 C522 1.265 . S
C544 C545 1.379 . S
C544 C548 1.373 . S
C544 C550 1.505 . S
C545 C544 1.379 . S
C545 C547 1.369 . S
C545 H556 0.930 . S
C546 C548 1.383 . S
C546 C549 1.382 . S
C546 H557 0.930 . S
C547 C545 1.369 . S
C547 C549 1.392 . S
C547 H558 0.930 . S
C548 C544 1.373 . S
C548 C546 1.383 . S
C548 H559 0.931 . S
C549 C546 1.382 . S
C549 C547 1.392 . S
C550 Eu521 2.828 . S
C550 O534 1.249 . S
C550 O535 1.244 . S
C550 C544 1.505 . S
C551 O538 1.258 . S
C551 O539 1.242 . S
H552 C524 0.930 . S
H553 C525 0.930 1_556 S
H554 C526 0.930 . S
H555 C527 0.931 . S
H556 C545 0.930 . S
H557 C546 0.930 . S
H558 C547 0.930 . S
H559 C548 0.931 . S
Eu560 C569 2.828 . S
Eu560 O571 2.392 . S
Eu560 O573 2.418 . S
Eu560 O578 2.373 . S
Eu560 O581 2.488 . S
Eu560 O582 2.471 . S
Eu560 O583 2.349 . S
Eu561 O570 2.373 . S
Eu561 O574 2.488 . S
Eu561 O575 2.471 . S
Eu561 O576 2.349 . S
Eu561 O579 2.392 . S
Eu561 O580 2.418 . S
Eu561 C590 2.828 . S
C562 O580 1.244 . S
C562 O583 1.265 . S
C563 C564 1.379 . S
C563 C567 1.373 . S
C563 C569 1.505 . S
C564 C563 1.379 . S
C564 C566 1.369 . S
C564 H592 0.930 . S
C565 C567 1.383 . S
C565 C568 1.382 . S
C565 H593 0.930 . S
C566 C564 1.369 . S
C566 C568 1.392 . S
C566 H594 0.930 . S
C567 C563 1.373 . S
C567 C565 1.383 . S
C567 H595 0.931 . S
C568 C565 1.382 . S
C568 C566 1.392 . S
C569 Eu560 2.828 . S
C569 C563 1.505 . S
C569 O581 1.249 . S
C569 O582 1.244 . S
O570 Eu561 2.373 . S
O570 C572 1.258 . S
O571 Eu560 2.392 . S
O571 C572 1.242 . S
C572 O570 1.258 . S
C572 O571 1.242 . S
O573 Eu560 2.418 . S
O573 C577 1.244 . S
O574 Eu561 2.488 . S
O574 C590 1.249 . S
O575 Eu561 2.471 . S
O575 C590 1.244 . S
O576 Eu561 2.349 . S
O576 C577 1.265 . S
C577 O573 1.244 . S
C577 O576 1.265 . S
O578 Eu560 2.373 . S
O578 C591 1.258 . S
O579 Eu561 2.392 . S
O579 C591 1.242 . S
O580 Eu561 2.418 . S
O580 C562 1.244 . S
O581 Eu560 2.488 . S
O581 C569 1.249 . S
O582 Eu560 2.471 . S
O582 C569 1.244 . S
O583 Eu560 2.349 . S
O583 C562 1.265 . S
C584 C585 1.379 . S
C584 C588 1.373 . S
C584 C590 1.505 . S
C585 C584 1.379 . S
C585 C587 1.369 . S
C585 H596 0.930 . S
C586 C588 1.383 . S
C586 C589 1.382 1_556 S
C586 H597 0.930 1_556 S
C587 C585 1.369 . S
C587 C589 1.392 1_556 S
C587 H598 0.930 . S
C588 C584 1.373 . S
C588 C586 1.383 . S
C588 H599 0.931 . S
C589 C586 1.382 1_554 S
C589 C587 1.392 1_554 S
C590 Eu561 2.828 . S
C590 O574 1.249 . S
C590 O575 1.244 . S
C590 C584 1.505 . S
C591 O578 1.258 . S
C591 O579 1.242 . S
H592 C564 0.930 . S
H593 C565 0.930 . S
H594 C566 0.930 . S
H595 C567 0.931 . S
H596 C585 0.930 . S
H597 C586 0.930 1_554 S
H598 C587 0.930 . S
H599 C588 0.931 . S
Eu600 C609 2.828 . S
Eu600 O611 2.392 . S
Eu600 O613 2.418 . S
Eu600 O618 2.373 . S
Eu600 O621 2.488 . S
Eu600 O622 2.471 . S
Eu600 O623 2.349 . S
Eu601 O610 2.373 . S
Eu601 O614 2.488 . S
Eu601 O615 2.471 . S
Eu601 O616 2.349 . S
Eu601 O619 2.392 . S
Eu601 O620 2.418 . S
Eu601 C630 2.828 . S
C602 O620 1.244 . S
C602 O623 1.265 . S
C603 C604 1.379 . S
C603 C607 1.373 . S
C603 C609 1.505 . S
C604 C603 1.379 . S
C604 C606 1.369 . S
C604 H632 0.930 . S
C605 C607 1.383 . S
C605 C608 1.382 1_554 S
C605 H633 0.930 1_554 S
C606 C604 1.369 . S
C606 C608 1.392 1_554 S
C606 H634 0.930 . S
C607 C603 1.373 . S
C607 C605 1.383 . S
C607 H635 0.931 . S
C608 C605 1.382 1_556 S
C608 C606 1.392 1_556 S
C609 Eu600 2.828 . S
C609 C603 1.505 . S
C609 O621 1.249 . S
C609 O622 1.244 . S
O610 Eu601 2.373 . S
O610 C612 1.258 . S
O611 Eu600 2.392 . S
O611 C612 1.242 . S
C612 O610 1.258 . S
C612 O611 1.242 . S
O613 Eu600 2.418 . S
O613 C617 1.244 . S
O614 Eu601 2.488 . S
O614 C630 1.249 . S
O615 Eu601 2.471 . S
O615 C630 1.244 . S
O616 Eu601 2.349 . S
O616 C617 1.265 . S
C617 O613 1.244 . S
C617 O616 1.265 . S
O618 Eu600 2.373 . S
O618 C631 1.258 . S
O619 Eu601 2.392 . S
O619 C631 1.242 . S
O620 Eu601 2.418 . S
O620 C602 1.244 . S
O621 Eu600 2.488 . S
O621 C609 1.249 . S
O622 Eu600 2.471 . S
O622 C609 1.244 . S
O623 Eu600 2.349 . S
O623 C602 1.265 . S
C624 C625 1.379 . S
C624 C628 1.373 . S
C624 C630 1.505 . S
C625 C624 1.379 . S
C625 C627 1.369 . S
C625 H636 0.930 . S
C626 C628 1.383 . S
C626 C629 1.382 . S
C626 H637 0.930 . S
C627 C625 1.369 . S
C627 C629 1.392 . S
C627 H638 0.930 . S
C628 C624 1.373 . S
C628 C626 1.383 . S
C628 H639 0.931 . S
C629 C626 1.382 . S
C629 C627 1.392 . S
C630 Eu601 2.828 . S
C630 O614 1.249 . S
C630 O615 1.244 . S
C630 C624 1.505 . S
C631 O618 1.258 . S
C631 O619 1.242 . S
H632 C604 0.930 . S
H633 C605 0.930 1_556 S
H634 C606 0.930 . S
H635 C607 0.931 . S
H636 C625 0.930 . S
H637 C626 0.930 . S
H638 C627 0.930 . S
H639 C628 0.931 . S
C640 C641 1.387 . S
C640 H644 0.950 . S
C640 C649 1.390 . S
C641 C640 1.387 . S
C641 C643 1.387 . S
H642 C649 0.950 . S
C643 C641 1.387 . S
C643 C645 1.390 . S
C643 H647 0.950 . S
H644 C640 0.950 . S
C645 C643 1.390 . S
C645 C646 1.387 . S
C645 H648 0.950 1_565 S
C646 C645 1.387 . S
C646 C649 1.387 . S
H647 C643 0.950 . S
H648 C645 0.950 1_545 S
C649 C640 1.390 . S
C649 H642 0.950 . S
C649 C646 1.387 . S
C650 C651 1.387 . S
C650 H654 0.950 . S
C650 C659 1.390 . S
C651 C650 1.387 . S
C651 C653 1.387 . S
H652 C659 0.970 . S
C653 C651 1.387 . S
C653 C655 1.390 . S
C653 H657 0.950 . S
H654 C650 0.950 . S
C655 C653 1.390 . S
C655 C656 1.387 . S
C655 H658 0.950 . S
C656 C655 1.387 . S
C656 C659 1.387 . S
H657 C653 0.950 . S
H658 C655 0.950 . S
C659 C650 1.390 . S
C659 H652 0.970 . S
C659 C656 1.387 . S
C660 C661 1.387 . S
C660 H664 0.950 . S
C660 C669 1.390 . S
C661 C660 1.387 . S
C661 C663 1.387 . S
H662 C669 0.950 . S
C663 C661 1.387 . S
C663 C665 1.390 . S
C663 H667 0.950 1_545 S
H664 C660 0.950 . S
C665 C663 1.390 . S
C665 C666 1.387 . S
C665 H668 0.950 . S
C666 C665 1.387 . S
C666 C669 1.387 . S
H667 C663 0.950 1_565 S
H668 C665 0.950 . S
C669 C660 1.390 . S
C669 H662 0.950 . S
C669 C666 1.387 . S
C670 C671 1.387 . S
C670 H674 0.950 1_455 S
C670 C679 1.390 . S
C671 C670 1.387 . S
C671 C673 1.387 . S
H672 C679 0.950 . S
C673 C671 1.387 . S
C673 C675 1.390 . S
C673 H677 0.950 . S
H674 C670 0.950 1_655 S
C675 C673 1.390 . S
C675 C676 1.387 . S
C675 H678 0.950 . S
C676 C675 1.387 . S
C676 C679 1.387 . S
H677 C673 0.950 . S
H678 C675 0.950 . S
C679 C670 1.390 . S
C679 H672 0.950 . S
C679 C676 1.387 . S
C680 C681 1.387 . S
C680 H684 0.950 . S
C680 C689 1.390 . S
C681 C680 1.387 . S
C681 C683 1.387 . S
H682 C689 0.950 . S
C683 C681 1.387 . S
C683 C685 1.390 1_554 S
C683 H687 0.950 1_554 S
H684 C680 0.950 . S
C685 C683 1.390 1_556 S
C685 C686 1.387 1_556 S
C685 H688 0.950 . S
C686 C685 1.387 1_554 S
C686 C689 1.387 . S
H687 C683 0.950 1_556 S
H688 C685 0.950 . S
C689 C680 1.390 . S
C689 H682 0.950 . S
C689 C686 1.387 . S
C690 C691 1.387 . S
C690 H694 0.950 . S
C690 C699 1.390 . S
C691 C690 1.387 . S
C691 C693 1.387 . S
H692 C699 0.950 . S
C693 C691 1.387 . S
C693 C695 1.390 . S
C693 H697 0.950 . S
H694 C690 0.950 . S
C695 C693 1.390 . S
C695 C696 1.387 . S
C695 H698 0.950 . S
C696 C695 1.387 . S
C696 C699 1.387 . S
H697 C693 0.950 . S
H698 C695 0.950 . S
C699 C690 1.390 . S
C699 H692 0.950 . S
C699 C696 1.387 . S
C700 C701 1.387 . S
C700 H704 0.950 . S
C700 C709 1.398 . S
C701 C700 1.387 . S
C701 C703 1.387 . S
H702 C709 0.941 1_556 S
C703 C701 1.387 . S
C703 C705 1.390 . S
C703 H707 0.950 . S
H704 C700 0.950 . S
C705 C703 1.390 . S
C705 C706 1.387 . S
C705 H708 0.950 . S
C706 C705 1.387 . S
C706 C709 1.389 . S
H707 C703 0.950 . S
H708 C705 0.950 . S
C709 C700 1.398 . S
C709 H702 0.941 1_554 S
C709 C706 1.389 . S
C710 C711 1.387 1_554 S
C710 H714 0.950 . S
C710 C719 1.390 1_554 S
C711 C710 1.387 1_556 S
C711 C713 1.387 . S
H712 C719 0.950 1_554 S
C713 C711 1.387 . S
C713 C715 1.390 . S
C713 H717 0.950 . S
H714 C710 0.950 . S
C715 C713 1.390 . S
C715 C716 1.387 . S
C715 H718 0.950 . S
C716 C715 1.387 . S
C716 C719 1.387 . S
H717 C713 0.950 . S
H718 C715 0.950 . S
C719 C710 1.390 1_556 S
C719 H712 0.950 1_556 S
C719 C716 1.387 . S
C720 C721 1.387 . S
C720 H724 0.950 . S
C720 C729 1.390 . S
C721 C720 1.387 . S
C721 C723 1.387 . S
H722 C729 0.950 . S
C723 C721 1.387 . S
C723 C725 1.390 . S
C723 H727 0.950 . S
H724 C720 0.950 . S
C725 C723 1.390 . S
C725 C726 1.387 . S
C725 H728 0.950 . S
C726 C725 1.387 . S
C726 C729 1.387 . S
H727 C723 0.950 . S
H728 C725 0.950 . S
C729 C720 1.390 . S
C729 H722 0.950 . S
C729 C726 1.387 . S
C730 C731 1.387 . S
C730 H734 0.950 . S
C730 C739 1.390 . S
C731 C730 1.387 . S
C731 C733 1.387 . S
H732 C739 0.950 . S
C733 C731 1.387 . S
C733 C735 1.390 . S
C733 H737 0.950 . S
H734 C730 0.950 . S
C735 C733 1.390 . S
C735 C736 1.387 . S
C735 H738 0.950 . S
C736 C735 1.387 . S
C736 C739 1.387 . S
H737 C733 0.950 . S
H738 C735 0.950 . S
C739 C730 1.390 . S
C739 H732 0.950 . S
C739 C736 1.387 . S
C740 C741 1.387 . S
C740 H744 0.950 . S
C740 C749 1.390 . S
C741 C740 1.387 . S
C741 C743 1.387 . S
H742 C749 0.950 . S
C743 C741 1.387 . S
C743 C745 1.390 . S
C743 H747 0.950 . S
H744 C740 0.950 . S
C745 C743 1.390 . S
C745 C746 1.387 . S
C745 H748 0.950 . S
C746 C745 1.387 . S
C746 C749 1.387 . S
H747 C743 0.950 . S
H748 C745 0.950 . S
C749 C740 1.390 . S
C749 H742 0.950 . S
C749 C746 1.387 . S
C750 C751 1.387 . S
C750 H754 0.950 . S
C750 C759 1.390 . S
C751 C750 1.387 . S
C751 C753 1.387 . S
H752 C759 0.950 . S
C753 C751 1.387 . S
C753 C755 1.390 . S
C753 H757 0.950 . S
H754 C750 0.950 . S
C755 C753 1.390 . S
C755 C756 1.387 . S
C755 H758 0.950 . S
C756 C755 1.387 . S
C756 C759 1.387 . S
H757 C753 0.950 . S
H758 C755 0.950 . S
C759 C750 1.390 . S
C759 H752 0.950 . S
C759 C756 1.387 . S
C760 C761 1.387 . S
C760 H764 0.950 . S
C760 C769 1.390 . S
C761 C760 1.387 . S
C761 C763 1.387 . S
H762 C769 0.950 . S
C763 C761 1.387 . S
C763 C765 1.390 . S
C763 H767 0.950 1_545 S
H764 C760 0.950 . S
C765 C763 1.390 . S
C765 C766 1.387 . S
C765 H768 0.950 . S
C766 C765 1.387 . S
C766 C769 1.387 . S
H767 C763 0.950 1_565 S
H768 C765 0.950 . S
C769 C760 1.390 . S
C769 H762 0.950 . S
C769 C766 1.387 . S
C770 C771 1.387 . S
C770 H774 0.950 . S
C770 C779 1.390 . S
C771 C770 1.387 . S
C771 C773 1.387 . S
H772 C779 0.950 . S
C773 C771 1.387 . S
C773 C775 1.390 . S
C773 H777 0.950 . S
H774 C770 0.950 . S
C775 C773 1.390 . S
C775 C776 1.387 . S
C775 H778 0.950 . S
C776 C775 1.387 . S
C776 C779 1.387 . S
H777 C773 0.950 . S
H778 C775 0.950 . S
C779 C770 1.390 . S
C779 H772 0.950 . S
C779 C776 1.387 . S
C780 C781 1.387 . S
C780 H784 0.950 . S
C780 C789 1.390 . S
C781 C780 1.387 . S
C781 C783 1.387 . S
H782 C789 0.950 1_545 S
C783 C781 1.387 . S
C783 C785 1.390 . S
C783 H787 0.950 . S
H784 C780 0.950 . S
C785 C783 1.390 . S
C785 C786 1.387 . S
C785 H788 0.950 . S
C786 C785 1.387 . S
C786 C789 1.387 . S
H787 C783 0.950 . S
H788 C785 0.950 . S
C789 C780 1.390 . S
C789 H782 0.950 1_565 S
C789 C786 1.387 . S
C790 C791 1.387 . S
C790 H794 0.950 . S
C790 C799 1.390 . S
C791 C790 1.387 . S
C791 C793 1.387 . S
H792 C799 0.950 . S
C793 C791 1.387 . S
C793 C795 1.390 . S
C793 H797 0.950 . S
H794 C790 0.950 . S
C795 C793 1.390 . S
C795 C796 1.387 . S
C795 H798 0.950 . S
C796 C795 1.387 . S
C796 C799 1.387 . S
H797 C793 0.950 . S
H798 C795 0.950 . S
C799 C790 1.390 . S
C799 H792 0.950 . S
C799 C796 1.387 . S
C800 C801 1.387 . S
C800 H804 0.950 . S
C800 C809 1.390 . S
C801 C800 1.387 . S
C801 C803 1.387 . S
H802 C809 0.950 . S
C803 C801 1.387 . S
C803 C805 1.390 . S
C803 H807 0.950 . S
H804 C800 0.950 . S
C805 C803 1.390 . S
C805 C806 1.387 . S
C805 H808 0.950 . S
C806 C805 1.387 . S
C806 C809 1.387 . S
H807 C803 0.950 . S
H808 C805 0.950 . S
C809 C800 1.390 . S
C809 H802 0.950 . S
C809 C806 1.387 . S
C810 C811 1.387 . S
C810 H814 0.950 . S
C810 C819 1.390 . S
C811 C810 1.387 . S
C811 C813 1.387 . S
H812 C819 0.950 . S
C813 C811 1.387 . S
C813 C815 1.390 . S
C813 H817 0.950 . S
H814 C810 0.950 . S
C815 C813 1.390 . S
C815 C816 1.387 . S
C815 H818 0.950 . S
C816 C815 1.387 . S
C816 C819 1.387 . S
H817 C813 0.950 . S
H818 C815 0.950 . S
C819 C810 1.390 . S
C819 H812 0.950 . S
C819 C816 1.387 . S
C820 C821 1.387 . S
C820 H824 0.950 . S
C820 C829 1.390 . S
C821 C820 1.387 . S
C821 C823 1.387 . S
H822 C829 0.950 . S
C823 C821 1.387 . S
C823 C825 1.390 . S
C823 H827 0.950 . S
H824 C820 0.950 . S
C825 C823 1.390 . S
C825 C826 1.387 . S
C825 H828 0.950 . S
C826 C825 1.387 . S
C826 C829 1.387 . S
H827 C823 0.950 . S
H828 C825 0.950 . S
C829 C820 1.390 . S
C829 H822 0.950 . S
C829 C826 1.387 . S
C830 C831 1.387 . S
C830 H834 0.950 . S
C830 C839 1.390 . S
C831 C830 1.387 . S
C831 C833 1.387 . S
H832 C839 0.950 . S
C833 C831 1.387 . S
C833 C835 1.390 . S
C833 H837 0.950 . S
H834 C830 0.950 . S
C835 C833 1.390 . S
C835 C836 1.387 . S
C835 H838 0.950 . S
C836 C835 1.387 . S
C836 C839 1.387 . S
H837 C833 0.950 . S
H838 C835 0.950 . S
C839 C830 1.390 . S
C839 H832 0.950 . S
C839 C836 1.387 . S
C840 C841 1.387 . S
C840 H844 0.950 . S
C840 C849 1.390 . S
C841 C840 1.387 . S
C841 C843 1.387 . S
H842 C849 0.950 . S
C843 C841 1.387 . S
C843 C845 1.390 . S
C843 H847 0.950 . S
H844 C840 0.950 . S
C845 C843 1.390 . S
C845 C846 1.387 . S
C845 H848 0.950 . S
C846 C845 1.387 . S
C846 C849 1.387 . S
H847 C843 0.950 . S
H848 C845 0.950 . S
C849 C840 1.390 . S
C849 H842 0.950 . S
C849 C846 1.387 . S
C850 C851 1.387 . S
C850 H854 0.950 . S
C850 C859 1.390 . S
C851 C850 1.387 . S
C851 C853 1.387 . S
H852 C859 0.950 . S
C853 C851 1.387 . S
C853 C855 1.390 . S
C853 H857 0.950 . S
H854 C850 0.950 . S
C855 C853 1.390 . S
C855 C856 1.387 . S
C855 H858 0.950 . S
C856 C855 1.387 . S
C856 C859 1.387 . S
H857 C853 0.950 . S
H858 C855 0.950 . S
C859 C850 1.390 . S
C859 H852 0.950 . S
C859 C856 1.387 . S
C860 C861 1.387 . S
C860 H864 0.950 . S
C860 C869 1.390 . S
C861 C860 1.387 . S
C861 C863 1.387 . S
H862 C869 0.950 . S
C863 C861 1.387 . S
C863 C865 1.390 . S
C863 H867 0.950 . S
H864 C860 0.950 . S
C865 C863 1.390 . S
C865 C866 1.387 . S
C865 H868 0.950 . S
C866 C865 1.387 . S
C866 C869 1.387 . S
H867 C863 0.950 . S
H868 C865 0.950 . S
C869 C860 1.390 . S
C869 H862 0.950 . S
C869 C866 1.387 . S
C870 C871 1.387 . S
C870 H874 0.950 . S
C870 C879 1.390 . S
C871 C870 1.387 . S
C871 C873 1.387 . S
H872 C879 0.950 . S
C873 C871 1.387 . S
C873 C875 1.390 . S
C873 H877 0.950 . S
H874 C870 0.950 . S
C875 C873 1.390 . S
C875 C876 1.387 . S
C875 H878 0.950 . S
C876 C875 1.387 . S
C876 C879 1.387 . S
H877 C873 0.950 . S
H878 C875 0.950 . S
C879 C870 1.390 . S
C879 H872 0.950 . S
C879 C876 1.387 . S
C880 C881 1.387 . S
C880 H884 0.950 . S
C880 C889 1.390 . S
C881 C880 1.387 . S
C881 C883 1.387 . S
H882 C889 0.950 . S
C883 C881 1.387 . S
C883 C885 1.390 . S
C883 H887 0.950 . S
H884 C880 0.950 . S
C885 C883 1.390 . S
C885 C886 1.387 . S
C885 H888 0.950 . S
C886 C885 1.387 . S
C886 C889 1.387 . S
H887 C883 0.950 . S
H888 C885 0.950 . S
C889 C880 1.390 . S
C889 H882 0.950 . S
C889 C886 1.387 . S
C890 C891 1.387 . S
C890 H894 0.950 . S
C890 C899 1.390 . S
C891 C890 1.387 . S
C891 C893 1.387 . S
H892 C899 0.950 . S
C893 C891 1.387 . S
C893 C895 1.390 . S
C893 H897 0.950 . S
H894 C890 0.950 . S
C895 C893 1.390 . S
C895 C896 1.387 . S
C895 H898 0.950 . S
C896 C895 1.387 . S
C896 C899 1.387 . S
H897 C893 0.950 . S
H898 C895 0.950 . S
C899 C890 1.390 . S
C899 H892 0.950 . S
C899 C896 1.387 . S
C900 C901 1.387 . S
C900 H904 0.950 . S
C900 C909 1.390 . S
C901 C900 1.387 . S
C901 C903 1.387 . S
H902 C909 0.950 . S
C903 C901 1.387 . S
C903 C905 1.390 . S
C903 H907 0.950 . S
H904 C900 0.950 . S
C905 C903 1.390 . S
C905 C906 1.387 . S
C905 H908 0.950 . S
C906 C905 1.387 . S
C906 C909 1.387 . S
H907 C903 0.950 . S
H908 C905 0.950 . S
C909 C900 1.390 . S
C909 H902 0.950 . S
C909 C906 1.387 . S
C910 C911 1.387 . S
C910 H914 0.950 . S
C910 C919 1.390 . S
C911 C910 1.387 . S
C911 C913 1.387 . S
H912 C919 0.950 . S
C913 C911 1.387 . S
C913 C915 1.390 . S
C913 H917 0.950 . S
H914 C910 0.950 . S
C915 C913 1.390 . S
C915 C916 1.387 . S
C915 H918 0.950 . S
C916 C915 1.387 . S
C916 C919 1.387 . S
H917 C913 0.950 . S
H918 C915 0.950 . S
C919 C910 1.390 . S
C919 H912 0.950 . S
C919 C916 1.387 . S
C920 C921 1.387 . S
C920 H924 0.950 . S
C920 C929 1.390 . S
C921 C920 1.387 . S
C921 C923 1.387 . S
H922 C929 0.950 . S
C923 C921 1.387 . S
C923 C925 1.390 . S
C923 H927 0.950 . S
H924 C920 0.950 . S
C925 C923 1.390 . S
C925 C926 1.387 . S
C925 H928 0.950 . S
C926 C925 1.387 . S
C926 C929 1.387 . S
H927 C923 0.950 . S
H928 C925 0.950 . S
C929 C920 1.390 . S
C929 H922 0.950 . S
C929 C926 1.387 . S
C930 C931 1.387 . S
C930 H934 0.950 . S
C930 C939 1.390 . S
C931 C930 1.387 . S
C931 C933 1.387 . S
H932 C939 0.950 . S
C933 C931 1.387 . S
C933 C935 1.390 . S
C933 H937 0.950 . S
H934 C930 0.950 . S
C935 C933 1.390 . S
C935 C936 1.387 . S
C935 H938 0.950 . S
C936 C935 1.387 . S
C936 C939 1.387 . S
H937 C933 0.950 . S
H938 C935 0.950 . S
C939 C930 1.390 . S
C939 H932 0.950 . S
C939 C936 1.387 . S
C940 C941 1.387 . S
C940 H944 0.950 . S
C940 C949 1.390 . S
C941 C940 1.387 . S
C941 C943 1.387 . S
H942 C949 0.950 . S
C943 C941 1.387 . S
C943 C945 1.390 . S
C943 H947 0.950 . S
H944 C940 0.950 . S
C945 C943 1.390 . S
C945 C946 1.387 . S
C945 H948 0.950 . S
C946 C945 1.387 . S
C946 C949 1.387 . S
H947 C943 0.950 . S
H948 C945 0.950 . S
C949 C940 1.390 . S
C949 H942 0.950 . S
C949 C946 1.387 . S
C950 C951 1.387 . S
C950 H954 0.950 . S
C950 C959 1.390 . S
C951 C950 1.387 . S
C951 C953 1.387 . S
H952 C959 0.950 . S
C953 C951 1.387 . S
C953 C955 1.390 . S
C953 H957 0.950 . S
H954 C950 0.950 . S
C955 C953 1.390 . S
C955 C956 1.387 . S
C955 H958 0.950 . S
C956 C955 1.387 . S
C956 C959 1.387 . S
H957 C953 0.950 . S
H958 C955 0.950 . S
C959 C950 1.390 . S
C959 H952 0.950 . S
C959 C956 1.387 . S
C960 C961 1.387 . S
C960 H964 0.950 . S
C960 C969 1.390 . S
C961 C960 1.387 . S
C961 C963 1.387 . S
H962 C969 0.950 . S
C963 C961 1.387 . S
C963 C965 1.390 . S
C963 H967 0.950 . S
H964 C960 0.950 . S
C965 C963 1.390 . S
C965 C966 1.387 . S
C965 H968 0.950 . S
C966 C965 1.387 . S
C966 C969 1.387 . S
H967 C963 0.950 . S
H968 C965 0.950 . S
C969 C960 1.390 . S
C969 H962 0.950 . S
C969 C966 1.387 . S
C970 C971 1.387 . S
C970 H974 0.950 . S
C970 C979 1.390 . S
C971 C970 1.387 . S
C971 C973 1.387 . S
H972 C979 0.950 . S
C973 C971 1.387 . S
C973 C975 1.390 . S
C973 H977 0.950 . S
H974 C970 0.950 . S
C975 C973 1.390 . S
C975 C976 1.387 . S
C975 H978 0.950 . S
C976 C975 1.387 . S
C976 C979 1.387 . S
H977 C973 0.950 . S
H978 C975 0.950 . S
C979 C970 1.390 . S
C979 H972 0.950 . S
C979 C976 1.387 . S
C980 C981 1.387 . S
C980 H984 0.950 . S
C980 C989 1.390 . S
C981 C980 1.387 . S
C981 C983 1.387 . S
H982 C989 0.950 . S
C983 C981 1.387 . S
C983 C985 1.390 . S
C983 H987 0.950 . S
H984 C980 0.950 . S
C985 C983 1.390 . S
C985 C986 1.387 . S
C985 H988 0.950 . S
C986 C985 1.387 . S
C986 C989 1.387 . S
H987 C983 0.950 . S
H988 C985 0.950 . S
C989 C980 1.390 . S
C989 H982 0.950 . S
C989 C986 1.387 . S
C990 C991 1.387 . S
C990 H994 0.950 . S
C990 C999 1.390 . S
C991 C990 1.387 . S
C991 C993 1.387 . S
H992 C999 0.950 . S
C993 C991 1.387 . S
C993 C995 1.390 . S
C993 H997 0.950 . S
H994 C990 0.950 . S
C995 C993 1.390 . S
C995 C996 1.387 . S
C995 H998 0.950 . S
C996 C995 1.387 . S
C996 C999 1.387 . S
H997 C993 0.950 . S
H998 C995 0.950 . S
C999 C990 1.390 . S
C999 H992 0.950 . S
C999 C996 1.387 . S
C1000 C1001 1.387 . S
C1000 H1004 0.950 . S
C1000 C1009 1.390 . S
C1001 C1000 1.387 . S
C1001 C1003 1.387 . S
H1002 C1009 0.950 . S
C1003 C1001 1.387 . S
C1003 C1005 1.390 . S
C1003 H1007 0.950 . S
H1004 C1000 0.950 . S
C1005 C1003 1.390 . S
C1005 C1006 1.387 . S
C1005 H1008 0.950 . S
C1006 C1005 1.387 . S
C1006 C1009 1.387 . S
H1007 C1003 0.950 . S
H1008 C1005 0.950 . S
C1009 C1000 1.390 . S
C1009 H1002 0.950 . S
C1009 C1006 1.387 . S
C1010 C1011 1.387 . S
C1010 H1014 0.950 . S
C1010 C1019 1.390 . S
C1011 C1010 1.387 . S
C1011 C1013 1.387 . S
H1012 C1019 0.950 . S
C1013 C1011 1.387 . S
C1013 C1015 1.390 . S
C1013 H1017 0.950 . S
H1014 C1010 0.950 . S
C1015 C1013 1.390 . S
C1015 C1016 1.387 . S
C1015 H1018 0.950 . S
C1016 C1015 1.387 . S
C1016 C1019 1.387 . S
H1017 C1013 0.950 . S
H1018 C1015 0.950 . S
C1019 C1010 1.390 . S
C1019 H1012 0.950 . S
C1019 C1016 1.387 . S
C1020 C1021 1.387 . S
C1020 H1024 0.950 . S
C1020 C1029 1.390 . S
C1021 C1020 1.387 . S
C1021 C1023 1.387 . S
H1022 C1029 0.950 . S
C1023 C1021 1.387 . S
C1023 C1025 1.390 . S
C1023 H1027 0.950 . S
H1024 C1020 0.950 . S
C1025 C1023 1.390 . S
C1025 C1026 1.387 . S
C1025 H1028 0.950 . S
C1026 C1025 1.387 . S
C1026 C1029 1.387 . S
H1027 C1023 0.950 . S
H1028 C1025 0.950 . S
C1029 C1020 1.390 . S
C1029 H1022 0.950 . S
C1029 C1026 1.387 . S
C1030 C1031 1.387 . S
C1030 H1034 0.950 . S
C1030 C1039 1.390 . S
C1031 C1030 1.387 . S
C1031 C1033 1.387 . S
H1032 C1039 0.950 . S
C1033 C1031 1.387 . S
C1033 C1035 1.390 . S
C1033 H1037 0.950 . S
H1034 C1030 0.950 . S
C1035 C1033 1.390 . S
C1035 C1036 1.387 . S
C1035 H1038 0.950 . S
C1036 C1035 1.387 . S
C1036 C1039 1.387 . S
H1037 C1033 0.950 . S
H1038 C1035 0.950 . S
C1039 C1030 1.390 . S
C1039 H1032 0.950 . S
C1039 C1036 1.387 . S
C1040 C1041 1.387 . S
C1040 H1044 0.950 . S
C1040 C1049 1.390 . S
C1041 C1040 1.387 . S
C1041 C1043 1.387 . S
H1042 C1049 0.950 . S
C1043 C1041 1.387 . S
C1043 C1045 1.390 . S
C1043 H1047 0.950 . S
H1044 C1040 0.950 . S
C1045 C1043 1.390 . S
C1045 C1046 1.387 . S
C1045 H1048 0.950 . S
C1046 C1045 1.387 . S
C1046 C1049 1.387 . S
H1047 C1043 0.950 . S
H1048 C1045 0.950 . S
C1049 C1040 1.390 . S
C1049 H1042 0.950 . S
C1049 C1046 1.387 . S
C1050 C1051 1.387 . S
C1050 H1054 0.950 . S
C1050 C1059 1.390 . S
C1051 C1050 1.387 . S
C1051 C1053 1.387 . S
H1052 C1059 0.950 . S
C1053 C1051 1.387 . S
C1053 C1055 1.390 . S
C1053 H1057 0.950 . S
H1054 C1050 0.950 . S
C1055 C1053 1.390 . S
C1055 C1056 1.387 . S
C1055 H1058 0.950 . S
C1056 C1055 1.387 . S
C1056 C1059 1.387 . S
H1057 C1053 0.950 . S
H1058 C1055 0.950 . S
C1059 C1050 1.390 . S
C1059 H1052 0.950 . S
C1059 C1056 1.387 . S
C1060 C1061 1.387 . S
C1060 H1064 0.950 . S
C1060 C1069 1.390 . S
C1061 C1060 1.387 . S
C1061 C1063 1.387 . S
H1062 C1069 0.950 . S
C1063 C1061 1.387 . S
C1063 C1065 1.390 . S
C1063 H1067 0.950 . S
H1064 C1060 0.950 . S
C1065 C1063 1.390 . S
C1065 C1066 1.387 . S
C1065 H1068 0.950 . S
C1066 C1065 1.387 . S
C1066 C1069 1.387 . S
H1067 C1063 0.950 . S
H1068 C1065 0.950 . S
C1069 C1060 1.390 . S
C1069 H1062 0.950 . S
C1069 C1066 1.387 . S
C1070 C1071 1.387 . S
C1070 H1074 0.950 . S
C1070 C1079 1.390 . S
C1071 C1070 1.387 . S
C1071 C1073 1.387 . S
H1072 C1079 0.950 . S
C1073 C1071 1.387 . S
C1073 C1075 1.390 . S
C1073 H1077 0.950 . S
H1074 C1070 0.950 . S
C1075 C1073 1.390 . S
C1075 C1076 1.387 . S
C1075 H1078 0.950 . S
C1076 C1075 1.387 . S
C1076 C1079 1.387 . S
H1077 C1073 0.950 . S
H1078 C1075 0.950 . S
C1079 C1070 1.390 . S
C1079 H1072 0.950 . S
C1079 C1076 1.387 . S
C1080 C1081 1.387 . S
C1080 H1084 0.950 . S
C1080 C1089 1.390 . S
C1081 C1080 1.387 . S
C1081 C1083 1.387 . S
H1082 C1089 0.950 . S
C1083 C1081 1.387 . S
C1083 C1085 1.390 . S
C1083 H1087 0.950 . S
H1084 C1080 0.950 . S
C1085 C1083 1.390 . S
C1085 C1086 1.387 . S
C1085 H1088 0.950 . S
C1086 C1085 1.387 . S
C1086 C1089 1.387 . S
H1087 C1083 0.950 . S
H1088 C1085 0.950 . S
C1089 C1080 1.390 . S
C1089 H1082 0.950 . S
C1089 C1086 1.387 . S
C1090 C1091 1.387 . S
C1090 H1094 0.950 . S
C1090 C1099 1.390 . S
C1091 C1090 1.387 . S
C1091 C1093 1.387 . S
H1092 C1099 0.950 . S
C1093 C1091 1.387 . S
C1093 C1095 1.390 . S
C1093 H1097 0.950 . S
H1094 C1090 0.950 . S
C1095 C1093 1.390 . S
C1095 C1096 1.387 . S
C1095 H1098 0.950 . S
C1096 C1095 1.387 . S
C1096 C1099 1.387 . S
H1097 C1093 0.950 . S
H1098 C1095 0.950 . S
C1099 C1090 1.390 . S
C1099 H1092 0.950 . S
C1099 C1096 1.387 . S
C1100 C1101 1.387 . S
C1100 H1104 0.950 . S
C1100 C1109 1.390 . S
C1101 C1100 1.387 . S
C1101 C1103 1.387 . S
H1102 C1109 0.950 . S
C1103 C1101 1.387 . S
C1103 C1105 1.390 . S
C1103 H1107 0.950 . S
H1104 C1100 0.950 . S
C1105 C1103 1.390 . S
C1105 C1106 1.387 . S
C1105 H1108 0.950 . S
C1106 C1105 1.387 . S
C1106 C1109 1.387 . S
H1107 C1103 0.950 . S
H1108 C1105 0.950 . S
C1109 C1100 1.390 . S
C1109 H1102 0.950 . S
C1109 C1106 1.387 . S
C1110 C1111 1.387 . S
C1110 H1114 0.950 . S
C1110 C1119 1.390 . S
C1111 C1110 1.387 . S
C1111 C1113 1.387 . S
H1112 C1119 0.950 . S
C1113 C1111 1.387 . S
C1113 C1115 1.390 . S
C1113 H1117 0.950 . S
H1114 C1110 0.950 . S
C1115 C1113 1.390 . S
C1115 C1116 1.387 . S
C1115 H1118 0.950 . S
C1116 C1115 1.387 . S
C1116 C1119 1.387 . S
H1117 C1113 0.950 . S
H1118 C1115 0.950 . S
C1119 C1110 1.390 . S
C1119 H1112 0.950 . S
C1119 C1116 1.387 . S
C641 C452 1.802 . S
C646 C2 1.756 1_565 S
C651 C351 1.801 . S
C656 C57 1.756 1_655 S
C661 C82 1.757 1_545 S
C666 C372 1.802 . S
C671 C137 1.756 1_455 S
C676 C431 1.802 . S
C681 C162 1.757 . S
C686 C212 1.802 1_554 S
C691 C271 1.801 1_556 S
C696 C217 1.755 . S
C701 C242 1.755 . S
C706 C292 1.802 1_554 S
C711 C191 1.802 1_556 S
C716 C297 1.756 . S
C721 C132 1.801 . S
C726 C322 1.756 . S
C731 C377 1.756 . S
C736 C31 1.802 . S
C741 C52 1.802 . S
C746 C402 1.756 . S
C751 C111 1.801 . S
C756 C457 1.754 . S
C761 C482 1.756 1_545 S
C766 C532 1.802 . S
C771 C591 1.801 . S
C776 C537 1.756 1_455 S
C781 C612 1.801 . S
C786 C562 1.754 1_565 S
C791 C617 1.756 1_655 S
C796 C511 1.801 . S
C801 C17 1.257 . S
C806 C177 1.257 . S
C811 C202 1.257 . S
C816 C42 1.257 . S
C821 C97 1.262 . S
C826 C257 1.262 . S
C831 C122 1.257 . S
C836 C282 1.257 . S
C841 C337 1.262 . S
C846 C497 1.262 . S
C851 C522 1.257 . S
C856 C362 1.257 . S
C861 C417 1.262 . S
C866 C577 1.262 . S
C871 C442 1.257 . S
C876 C602 1.257 . S
C881 C572 2.516 . S
C886 C12 2.516 1_556 S
C891 C71 2.518 1_554 S
C896 C631 2.518 . S
C901 C92 2.518 1_556 S
C906 C492 2.518 . S
C911 C151 2.516 1_554 S
C916 C551 2.516 . S
C921 C172 2.516 . S
C926 C412 2.516 . S
C931 C231 2.518 . S
C936 C471 2.518 . S
C941 C252 2.518 . S
C946 C332 2.518 . S
C951 C391 2.518 . S
C956 C311 2.518 . S
C961 C8 1.206 . S
C966 C29 1.206 . S
C971 C69 1.206 . S
C976 C48 1.206 . S
C981 C88 1.206 . S
C986 C109 1.206 . S
C991 C128 1.204 . S
C996 C149 1.204 . S
C1001 C189 1.206 . S
C1006 C168 1.206 . S
C1011 C229 1.206 . S
C1016 C208 1.206 . S
C1021 C248 1.206 . S
C1026 C269 1.206 . S
C1031 C288 1.206 . S
C1036 C309 1.206 . S
C1041 C328 1.206 . S
C1046 C349 1.206 . S
C1051 C368 1.204 . S
C1056 C389 1.204 . S
C1061 C429 1.206 . S
C1066 C408 1.206 . S
C1071 C469 1.204 . S
C1076 C448 1.204 . S
C1081 C488 1.206 . S
C1086 C509 1.206 . S
C1091 C528 1.204 . S
C1096 C549 1.204 . S
C1101 C589 1.204 . S
C1106 C568 1.204 . S
C1111 C629 1.204 . S
C1116 C608 1.204 . S
