# Generated by pormake.
# Topology vbm, (6)-cn, num edge types: 1
# Building blocks:
#     Node 0, Type 0, BuildingBlock: FUNLAD_clean_sbu_0, # of connection points: 6
#     Node 1, Type 0, BuildingBlock: FUNLAD_clean_sbu_0, # of connection points: 6
#     Node 2, Type 0, BuildingBlock: FUNLAD_clean_sbu_0, # of connection points: 6
#     Node 3, Type 0, BuildingBlock: FUNLAD_clean_sbu_0, # of connection points: 6
#     Node 4, Type 0, BuildingBlock: FUNLAD_clean_sbu_0, # of connection points: 6
#     Node 5, Type 0, BuildingBlock: FUNLAD_clean_sbu_0, # of connection points: 6
#     Node 6, Type 0, BuildingBlock: FUNLAD_clean_sbu_0, # of connection points: 6
#     Node 7, Type 0, BuildingBlock: FUNLAD_clean_sbu_0, # of connection points: 6
#     Node 8, Type 0, BuildingBlock: FUNLAD_clean_sbu_0, # of connection points: 6
#     Node 9, Type 0, BuildingBlock: FUNLAD_clean_sbu_0, # of connection points: 6
#     Node 10, Type 0, BuildingBlock: FUNLAD_clean_sbu_0, # of connection points: 6
#     Node 11, Type 0, BuildingBlock: FUNLAD_clean_sbu_0, # of connection points: 6
#     Node 12, Type 0, BuildingBlock: FUNLAD_clean_sbu_0, # of connection points: 6
#     Node 13, Type 0, BuildingBlock: FUNLAD_clean_sbu_0, # of connection points: 6
#     Node 14, Type 0, BuildingBlock: FUNLAD_clean_sbu_0, # of connection points: 6
#     Node 15, Type 0, BuildingBlock: FUNLAD_clean_sbu_0, # of connection points: 6
#     Edge 16, Type (0, 0), BuildingBlock: KIFKEQ_clean_linker_1, # of connection points: 2
#     Edge 17, Type (0, 0), BuildingBlock: KIFKEQ_clean_linker_1, # of connection points: 2
#     Edge 18, Type (0, 0), BuildingBlock: KIFKEQ_clean_linker_1, # of connection points: 2
#     Edge 19, Type (0, 0), BuildingBlock: KIFKEQ_clean_linker_1, # of connection points: 2
#     Edge 20, Type (0, 0), BuildingBlock: KIFKEQ_clean_linker_1, # of connection points: 2
#     Edge 21, Type (0, 0), BuildingBlock: KIFKEQ_clean_linker_1, # of connection points: 2
#     Edge 22, Type (0, 0), BuildingBlock: KIFKEQ_clean_linker_1, # of connection points: 2
#     Edge 23, Type (0, 0), BuildingBlock: KIFKEQ_clean_linker_1, # of connection points: 2
#     Edge 24, Type (0, 0), BuildingBlock: KIFKEQ_clean_linker_1, # of connection points: 2
#     Edge 25, Type (0, 0), BuildingBlock: KIFKEQ_clean_linker_1, # of connection points: 2
#     Edge 26, Type (0, 0), BuildingBlock: KIFKEQ_clean_linker_1, # of connection points: 2
#     Edge 27, Type (0, 0), BuildingBlock: KIFKEQ_clean_linker_1, # of connection points: 2
#     Edge 28, Type (0, 0), BuildingBlock: KIFKEQ_clean_linker_1, # of connection points: 2
#     Edge 29, Type (0, 0), BuildingBlock: KIFKEQ_clean_linker_1, # of connection points: 2
#     Edge 30, Type (0, 0), BuildingBlock: KIFKEQ_clean_linker_1, # of connection points: 2
#     Edge 31, Type (0, 0), BuildingBlock: KIFKEQ_clean_linker_1, # of connection points: 2
#     Edge 32, Type (0, 0), BuildingBlock: KIFKEQ_clean_linker_1, # of connection points: 2
#     Edge 33, Type (0, 0), BuildingBlock: KIFKEQ_clean_linker_1, # of connection points: 2
#     Edge 34, Type (0, 0), BuildingBlock: KIFKEQ_clean_linker_1, # of connection points: 2
#     Edge 35, Type (0, 0), BuildingBlock: KIFKEQ_clean_linker_1, # of connection points: 2
#     Edge 36, Type (0, 0), BuildingBlock: KIFKEQ_clean_linker_1, # of connection points: 2
#     Edge 37, Type (0, 0), BuildingBlock: KIFKEQ_clean_linker_1, # of connection points: 2
#     Edge 38, Type (0, 0), BuildingBlock: KIFKEQ_clean_linker_1, # of connection points: 2
#     Edge 39, Type (0, 0), BuildingBlock: KIFKEQ_clean_linker_1, # of connection points: 2
#     Edge 40, Type (0, 0), BuildingBlock: KIFKEQ_clean_linker_1, # of connection points: 2
#     Edge 41, Type (0, 0), BuildingBlock: KIFKEQ_clean_linker_1, # of connection points: 2
#     Edge 42, Type (0, 0), BuildingBlock: KIFKEQ_clean_linker_1, # of connection points: 2
#     Edge 43, Type (0, 0), BuildingBlock: KIFKEQ_clean_linker_1, # of connection points: 2
#     Edge 44, Type (0, 0), BuildingBlock: KIFKEQ_clean_linker_1, # of connection points: 2
#     Edge 45, Type (0, 0), BuildingBlock: KIFKEQ_clean_linker_1, # of connection points: 2
#     Edge 46, Type (0, 0), BuildingBlock: KIFKEQ_clean_linker_1, # of connection points: 2
#     Edge 47, Type (0, 0), BuildingBlock: KIFKEQ_clean_linker_1, # of connection points: 2
#     Edge 48, Type (0, 0), BuildingBlock: KIFKEQ_clean_linker_1, # of connection points: 2
#     Edge 49, Type (0, 0), BuildingBlock: KIFKEQ_clean_linker_1, # of connection points: 2
#     Edge 50, Type (0, 0), BuildingBlock: KIFKEQ_clean_linker_1, # of connection points: 2
#     Edge 51, Type (0, 0), BuildingBlock: KIFKEQ_clean_linker_1, # of connection points: 2
#     Edge 52, Type (0, 0), BuildingBlock: KIFKEQ_clean_linker_1, # of connection points: 2
#     Edge 53, Type (0, 0), BuildingBlock: KIFKEQ_clean_linker_1, # of connection points: 2
#     Edge 54, Type (0, 0), BuildingBlock: KIFKEQ_clean_linker_1, # of connection points: 2
#     Edge 55, Type (0, 0), BuildingBlock: KIFKEQ_clean_linker_1, # of connection points: 2
#     Edge 56, Type (0, 0), BuildingBlock: KIFKEQ_clean_linker_1, # of connection points: 2
#     Edge 57, Type (0, 0), BuildingBlock: KIFKEQ_clean_linker_1, # of connection points: 2
#     Edge 58, Type (0, 0), BuildingBlock: KIFKEQ_clean_linker_1, # of connection points: 2
#     Edge 59, Type (0, 0), BuildingBlock: KIFKEQ_clean_linker_1, # of connection points: 2
#     Edge 60, Type (0, 0), BuildingBlock: KIFKEQ_clean_linker_1, # of connection points: 2
#     Edge 61, Type (0, 0), BuildingBlock: KIFKEQ_clean_linker_1, # of connection points: 2
#     Edge 62, Type (0, 0), BuildingBlock: KIFKEQ_clean_linker_1, # of connection points: 2
#     Edge 63, Type (0, 0), BuildingBlock: KIFKEQ_clean_linker_1, # of connection points: 2
# Relax obj value: 0.032
# Max RMSD: 0.081
# Mean RMSD: 0.081
data_MOF--net-vbm--node1-FUNLAD_clean_sbu_0--edge1-KIFKEQ_clean_linker_1
_symmetry_space_group_name_H-M    P1
_symmetry_Int_Tables_number       1
_symmetry_cell_setting            triclinic
loop_
_symmetry_equiv_pos_as_xyz
'x, y, z'
_cell_length_a     59.401274
_cell_length_b     15.44
_cell_length_c     88.065059
_cell_angle_alpha  90.003703
_cell_angle_beta   89.976743
_cell_angle_gamma 90.042329
loop_
_atom_site_label
_atom_site_type_symbol
_atom_site_fract_x
_atom_site_fract_y
_atom_site_fract_z
_atom_type_partial_charge
C0 C 0.12292 0.21913 0.13806 0.0
N1 N 0.12637 0.04717 0.1015 0.0
C2 C 0.10896 0.0868 0.09423 0.0
C3 C 0.10815 0.08889 0.07837 0.0
C4 C 0.12564 0.05135 0.06993 0.0
C5 C 0.14346 0.01148 0.07768 0.0
C6 C 0.14339 0.00938 0.09354 0.0
Zn7 Zn 0.12728 0.04403 0.12482 0.0
C8 C 0.17352 0.07186 0.13667 0.0
N9 N 0.12967 0.03738 0.17353 0.0
C10 C 0.1159 0.08803 0.18211 0.0
C11 C 0.14383 -0.02063 0.18014 0.0
C12 C 0.14403 0.96859 0.19587 0.0
C13 C 0.12993 0.0195 0.2051 0.0
C14 C 0.11593 0.08077 0.19795 0.0
Zn15 Zn 0.12854 0.04277 0.15022 0.0
O16 O 0.12336 0.17766 0.12561 0.0
C17 C 0.0821 0.0206 0.1384 0.0
O18 O 0.12423 0.17849 0.15059 0.0
H19 H 0.15479 0.93998 0.17319 0.0
H20 H 0.09568 0.11708 0.10074 0.0
H21 H 0.10472 0.13371 0.17666 0.0
O22 O 0.09225 0.02712 0.12575 0.0
O23 O 0.09327 0.02443 0.15069 0.0
H24 H 0.15697 0.97743 0.09948 0.0
O25 O 0.13279 0.90774 0.14916 0.0
O26 O 0.13124 0.90953 0.12426 0.0
O27 O 0.16372 0.0626 0.1494 0.0
O28 O 0.16229 0.0637 0.12448 0.0
C29 C 0.13298 0.86759 0.13659 0.0
H30 H 0.0942 0.12074 0.07276 0.0
H31 H 0.15715 -0.01884 0.07153 0.0
H32 H 0.15485 0.91925 0.20064 0.0
H33 H 0.10506 0.12298 0.20447 0.0
C34 C 0.87323 0.7359 0.13829 0.0
N35 N 0.86958 0.90924 0.10155 0.0
C36 C 0.88376 0.85489 0.09403 0.0
C37 C 0.88392 0.85241 0.07815 0.0
C38 C 0.86958 0.90729 0.06982 0.0
C39 C 0.85533 0.96337 0.07795 0.0
C40 C 0.85546 0.96272 0.09381 0.0
Zn41 Zn 0.86896 0.91096 0.12493 0.0
C42 C 0.8227 0.8838 0.13677 0.0
N43 N 0.86676 0.91654 0.17371 0.0
C44 C 0.88309 0.87726 0.18207 0.0
C45 C 0.85014 0.96307 0.18053 0.0
C46 C 0.84969 0.97258 0.1963 0.0
C47 C 0.8666 0.93445 0.20524 0.0
C48 C 0.88335 0.88552 0.1979 0.0
Zn49 Zn 0.86768 0.91224 0.15037 0.0
O50 O 0.87307 0.77599 0.12569 0.0
C51 C 0.91416 0.93362 0.1383 0.0
O52 O 0.8716 0.7778 0.15066 0.0
H53 H 0.83734 -0.00595 0.17371 0.0
H54 H 0.89489 0.81285 0.10035 0.0
H55 H 0.89619 0.84075 0.17645 0.0
O56 O 0.90399 0.92751 0.12565 0.0
O57 O 0.903 0.92973 0.1506 0.0
H58 H 0.84422 0.00523 0.09995 0.0
O59 O 0.8638 0.04605 0.14974 0.0
O60 O 0.86487 0.04679 0.12482 0.0
O61 O 0.83245 0.89315 0.14951 0.0
O62 O 0.834 0.89164 0.12459 0.0
C63 C 0.86345 0.0875 0.13732 0.0
H64 H 0.89498 0.80694 0.07251 0.0
H65 H 0.84426 0.00819 0.07217 0.0
H66 H 0.83619 0.00956 0.20142 0.0
H67 H 0.89688 0.85567 0.20425 0.0
C68 C 0.1211 0.73274 0.38664 0.0
N69 N 0.12636 0.90554 0.4233 0.0
C70 C 0.10901 0.86758 0.43089 0.0
C71 C 0.10858 0.8672 0.44677 0.0
C72 C 0.12635 0.90508 0.455 0.0
C73 C 0.14417 0.94282 0.44679 0.0
C74 C 0.14372 0.94301 0.43094 0.0
Zn75 Zn 0.12653 0.90805 0.39996 0.0
C76 C 0.17197 0.87878 0.38711 0.0
N77 N 0.12696 0.91409 0.35121 0.0
C78 C 0.11338 0.86272 0.34262 0.0
C79 C 0.14113 0.9722 0.3446 0.0
C80 C 0.14163 -0.01799 0.32887 0.0
C81 C 0.12786 0.92996 0.31961 0.0
C82 C 0.1137 0.86904 0.32676 0.0
Zn83 Zn 0.12629 0.9087 0.37454 0.0
O84 O 0.12161 0.77324 0.3992 0.0
C85 C 0.08062 0.93228 0.387 0.0
O86 O 0.1225 0.77427 0.37422 0.0
H87 H 0.15197 0.01205 0.35155 0.0
H88 H 0.09537 0.83795 0.42464 0.0
H89 H 0.10222 0.81685 0.34806 0.0
O90 O 0.09127 0.92784 0.3995 0.0
O91 O 0.09125 0.92555 0.37454 0.0
H92 H 0.15733 0.97322 0.42473 0.0
O93 O 0.12998 0.04288 0.37549 0.0
O94 O 0.13142 0.04339 0.40038 0.0
O95 O 0.16123 0.88991 0.3748 0.0
O96 O 0.16171 0.88584 0.39971 0.0
C97 C 0.13163 0.08427 0.38787 0.0
H98 H 0.09426 0.83853 0.45248 0.0
H99 H 0.15849 0.97137 0.45251 0.0
H100 H 0.1525 0.03125 0.3241 0.0
H101 H 0.10305 0.82614 0.32022 0.0
C102 C 0.87216 0.22113 0.38644 0.0
N103 N 0.86787 0.04815 0.42318 0.0
C104 C 0.88215 0.10252 0.43064 0.0
C105 C 0.88245 0.10488 0.44652 0.0
C106 C 0.86821 0.04967 0.45479 0.0
C107 C 0.85378 -0.00614 0.44683 0.0
C108 C 0.85373 -0.0053 0.43096 0.0
Zn109 Zn 0.86742 0.04609 0.39983 0.0
C110 C 0.82137 0.07469 0.3878 0.0
N111 N 0.86581 0.04017 0.35106 0.0
C112 C 0.88236 0.07878 0.34277 0.0
C113 C 0.84916 -0.00589 0.34417 0.0
C114 C 0.84889 -0.01558 0.3284 0.0
C115 C 0.86601 0.02188 0.31954 0.0
C116 C 0.8828 0.07031 0.32695 0.0
Zn117 Zn 0.86645 0.04478 0.3744 0.0
O118 O 0.87175 0.18109 0.39904 0.0
C119 C 0.91274 0.0221 0.38676 0.0
O120 O 0.87068 0.17916 0.37407 0.0
H121 H 0.83618 0.96366 0.35093 0.0
H122 H 0.89337 0.14412 0.42428 0.0
H123 H 0.89549 0.11491 0.34846 0.0
O124 O 0.90239 0.02881 0.39933 0.0
O125 O 0.90179 0.0261 0.37437 0.0
H126 H 0.84234 0.95259 0.42486 0.0
O127 O 0.86225 0.91104 0.37506 0.0
O128 O 0.86311 0.91022 0.39998 0.0
O129 O 0.83121 0.06512 0.37509 0.0
O130 O 0.83253 0.06615 0.40001 0.0
C131 C 0.86173 0.86954 0.38748 0.0
H132 H 0.89393 0.14841 0.45227 0.0
H133 H 0.8424 0.95093 0.45282 0.0
H134 H 0.83536 0.94784 0.32322 0.0
H135 H 0.8965 0.09962 0.32067 0.0
C136 C 0.862 0.09021 0.88757 0.0
N137 N 0.86738 0.91944 0.85067 0.0
C138 C 0.85334 0.97713 0.84385 0.0
C139 C 0.8535 -0.01269 0.8281 0.0
C140 C 0.86785 0.93624 0.81907 0.0
C141 C 0.88175 0.87548 0.82645 0.0
C142 C 0.8814 0.86872 0.8423 0.0
Zn143 Zn 0.8677 0.91408 0.87404 0.0
C144 C 0.91319 0.93914 0.88662 0.0
N145 N 0.86742 0.91147 0.92288 0.0
C146 C 0.85012 0.94797 0.93075 0.0
C147 C 0.88495 0.87323 0.93025 0.0
C148 C 0.88565 0.87163 0.94612 0.0
C149 C 0.86795 0.90829 0.95449 0.0
C150 C 0.84996 0.9464 0.94663 0.0
Zn151 Zn 0.86719 0.91481 0.8995 0.0
O152 O 0.86336 0.04972 0.87505 0.0
C153 C 0.82192 0.8841 0.88653 0.0
O154 O 0.86266 0.0486 0.89998 0.0
H155 H 0.89845 0.84386 0.92382 0.0
H156 H 0.84218 0.01659 0.85064 0.0
H157 H 0.83644 -0.02131 0.92472 0.0
O158 O 0.83283 0.89362 0.87423 0.0
O159 O 0.83199 0.89315 0.89917 0.0
H160 H 0.89246 0.82326 0.84791 0.0
O161 O 0.87171 0.78077 0.89873 0.0
O162 O 0.87208 0.77885 0.87375 0.0
O163 O 0.90243 0.93502 0.89908 0.0
O164 O 0.90267 0.93181 0.87413 0.0
C165 C 0.87284 0.73877 0.88635 0.0
H166 H 0.84274 0.03627 0.82315 0.0
H167 H 0.89281 0.83319 0.82009 0.0
H168 H 0.89972 0.84098 0.95178 0.0
H169 H 0.83609 0.97597 0.9527 0.0
C170 C 0.132 0.8749 0.88735 0.0
N171 N 0.12786 0.04636 0.85103 0.0
C172 C 0.14431 -0.00045 0.84409 0.0
C173 C 0.14443 -0.0103 0.82833 0.0
C174 C 0.12734 0.0277 0.81953 0.0
C175 C 0.11077 0.07695 0.82699 0.0
C176 C 0.11138 0.08562 0.8428 0.0
Zn177 Zn 0.12731 0.05086 0.87434 0.0
C178 C 0.08108 0.02714 0.88672 0.0
N179 N 0.12594 0.05269 0.92305 0.0
C180 C 0.14022 5e-05 0.93083 0.0
C181 C 0.11149 0.10624 0.9305 0.0
C182 C 0.11116 0.10869 0.94637 0.0
C183 C 0.12559 0.05446 0.95475 0.0
C184 C 0.14017 -0.0007 0.94669 0.0
Zn185 Zn 0.1264 0.05064 0.89973 0.0
O186 O 0.13095 0.91659 0.87496 0.0
C187 C 0.17242 0.0799 0.88767 0.0
O188 O 0.13119 0.9154 0.89988 0.0
H189 H 0.10023 0.14753 0.92413 0.0
H190 H 0.15723 0.96857 0.85082 0.0
H191 H 0.15166 0.95815 0.92474 0.0
O192 O 0.16265 0.06917 0.87497 0.0
O193 O 0.16119 0.07265 0.89988 0.0
H194 H 0.09841 0.12237 0.84852 0.0
O195 O 0.12161 0.18586 0.89895 0.0
O196 O 0.12364 0.18495 0.87401 0.0
O197 O 0.09154 0.03044 0.89928 0.0
O198 O 0.09191 0.03494 0.87434 0.0
C199 C 0.1217 0.22643 0.88639 0.0
H200 H 0.1578 0.95251 0.82311 0.0
H201 H 0.09711 0.1067 0.82075 0.0
H202 H 0.09987 0.15351 0.95196 0.0
H203 H 0.15133 0.95503 0.95252 0.0
C204 C 0.86315 0.86979 0.63722 0.0
N205 N 0.86855 0.04039 0.67389 0.0
C206 C 0.85518 -0.01961 0.68079 0.0
C207 C 0.85569 0.97002 0.69653 0.0
C208 C 0.86964 0.02329 0.70532 0.0
C209 C 0.88278 0.08644 0.69805 0.0
C210 C 0.88216 0.09331 0.6822 0.0
Zn211 Zn 0.8684 0.04609 0.65052 0.0
C212 C 0.91383 0.02353 0.63752 0.0
N213 N 0.86738 0.04851 0.60177 0.0
C214 C 0.84997 0.01169 0.59408 0.0
C215 C 0.88474 0.08671 0.59422 0.0
C216 C 0.88517 0.08787 0.57835 0.0
C217 C 0.86738 0.05062 0.57005 0.0
C218 C 0.84953 0.01266 0.57821 0.0
Zn219 Zn 0.86761 0.04524 0.62511 0.0
O220 O 0.86546 0.91136 0.64954 0.0
C221 C 0.82238 0.07319 0.63842 0.0
O222 O 0.86252 0.91048 0.6247 0.0
H223 H 0.89841 0.11592 0.60051 0.0
H224 H 0.84423 0.93968 0.67407 0.0
H225 H 0.83634 -0.01859 0.60025 0.0
O226 O 0.83328 0.06166 0.65066 0.0
O227 O 0.83252 0.06774 0.62575 0.0
H228 H 0.89275 0.14028 0.67653 0.0
O229 O 0.8727 0.18031 0.62588 0.0
O230 O 0.87139 0.18031 0.65085 0.0
O231 O 0.90276 0.02405 0.62517 0.0
O232 O 0.90357 0.03323 0.65006 0.0
C233 C 0.87293 0.22135 0.6384 0.0
H234 H 0.84517 0.92119 0.70181 0.0
H235 H 0.89377 0.12852 0.70452 0.0
H236 H 0.89952 0.11664 0.57269 0.0
H237 H 0.8352 -0.01551 0.57244 0.0
C238 C 0.13258 0.08886 0.6375 0.0
N239 N 0.1271 0.91823 0.67389 0.0
C240 C 0.14354 0.96521 0.68082 0.0
C241 C 0.14362 0.97544 0.69656 0.0
C242 C 0.12649 0.93772 0.70538 0.0
C243 C 0.10989 0.88845 0.69794 0.0
C244 C 0.11054 0.87938 0.68213 0.0
Zn245 Zn 0.12712 0.91263 0.65058 0.0
C246 C 0.08172 0.9356 0.63753 0.0
N247 N 0.12808 0.91028 0.60183 0.0
C248 C 0.14232 0.96323 0.59403 0.0
C249 C 0.11376 0.85597 0.5944 0.0
C250 C 0.11347 0.85323 0.57854 0.0
C251 C 0.12776 0.90802 0.57024 0.0
C252 C 0.14229 0.96371 0.57816 0.0
Zn253 Zn 0.12796 0.91329 0.62517 0.0
O254 O 0.13091 0.04701 0.64984 0.0
C255 C 0.17314 0.88466 0.63825 0.0
O256 O 0.13244 0.04852 0.62494 0.0
H257 H 0.10243 0.81492 0.60078 0.0
H258 H 0.15653 -0.00412 0.6741 0.0
H259 H 0.15371 0.00542 0.60012 0.0
O260 O 0.16211 0.8938 0.6505 0.0
O261 O 0.16314 0.893 0.62557 0.0
H262 H 0.09758 0.84251 0.67641 0.0
O263 O 0.12347 0.77786 0.62603 0.0
O264 O 0.12332 0.77868 0.65101 0.0
O265 O 0.09273 0.93211 0.62517 0.0
O266 O 0.09203 0.92864 0.65011 0.0
C267 C 0.12248 0.73724 0.63856 0.0
H268 H 0.15703 0.0126 0.70176 0.0
H269 H 0.09621 0.85888 0.7042 0.0
H270 H 0.10191 0.80989 0.57281 0.0
H271 H 0.15368 0.00639 0.57213 0.0
C272 C 0.6221 0.71957 0.13815 0.0
N273 N 0.62679 0.54541 0.10173 0.0
C274 C 0.60926 0.58287 0.09427 0.0
C275 C 0.60857 0.58333 0.0784 0.0
C276 C 0.62627 0.54607 0.07001 0.0
C277 C 0.64425 0.50862 0.07808 0.0
C278 C 0.64406 0.50833 0.09394 0.0
Zn279 Zn 0.62746 0.54389 0.1251 0.0
C280 C 0.67348 0.57677 0.13702 0.0
N281 N 0.62947 0.54011 0.17386 0.0
C282 C 0.613 0.57916 0.18213 0.0
C283 C 0.64609 0.49403 0.18076 0.0
C284 C 0.64638 0.48472 0.19654 0.0
C285 C 0.62931 0.52261 0.20539 0.0
C286 C 0.61258 0.5711 0.19795 0.0
Zn287 Zn 0.62866 0.54411 0.15053 0.0
O288 O 0.62249 0.67771 0.12573 0.0
C289 C 0.58239 0.51687 0.13852 0.0
O290 O 0.62379 0.67936 0.1507 0.0
H291 H 0.65901 0.46329 0.174 0.0
H292 H 0.59569 0.6122 0.10064 0.0
H293 H 0.59989 0.61529 0.17643 0.0
O294 O 0.59258 0.522 0.12587 0.0
O295 O 0.59344 0.52426 0.15081 0.0
H296 H 0.65782 0.47854 0.10004 0.0
O297 O 0.63352 0.40873 0.1498 0.0
O298 O 0.63246 0.41006 0.12486 0.0
O299 O 0.6638 0.56634 0.14976 0.0
O300 O 0.66225 0.56773 0.12486 0.0
C301 C 0.63408 0.36834 0.13723 0.0
H302 H 0.59413 0.61173 0.07281 0.0
H303 H 0.65852 0.48051 0.07225 0.0
H304 H 0.65987 0.44807 0.20173 0.0
H305 H 0.59893 0.60072 0.20423 0.0
C306 C 0.37453 0.23333 0.1382 0.0
N307 N 0.36991 0.40715 0.10178 0.0
C308 C 0.38748 0.36956 0.09435 0.0
C309 C 0.38813 0.3685 0.07848 0.0
C310 C 0.37034 0.40501 0.07019 0.0
C311 C 0.35237 0.44283 0.07812 0.0
C312 C 0.35259 0.44392 0.09398 0.0
Zn313 Zn 0.36921 0.40901 0.12513 0.0
C314 C 0.32315 0.3763 0.13704 0.0
N315 N 0.36714 0.41311 0.17383 0.0
C316 C 0.3836 0.37416 0.18212 0.0
C317 C 0.35055 0.45951 0.18071 0.0
C318 C 0.35029 0.46937 0.19647 0.0
C319 C 0.36736 0.43167 0.20533 0.0
C320 C 0.38405 0.38274 0.19793 0.0
Zn321 Zn 0.36797 0.40879 0.15053 0.0
O322 O 0.37416 0.27518 0.12578 0.0
C323 C 0.41426 0.43594 0.13853 0.0
O324 O 0.37282 0.27355 0.15075 0.0
H325 H 0.33764 0.49016 0.17393 0.0
H326 H 0.40102 0.34015 0.10073 0.0
H327 H 0.39668 0.33778 0.17644 0.0
O328 O 0.40408 0.43084 0.12588 0.0
O329 O 0.4032 0.42856 0.15081 0.0
H330 H 0.33889 0.47429 0.10005 0.0
O331 O 0.36315 0.54418 0.14977 0.0
O332 O 0.36423 0.54284 0.12484 0.0
O333 O 0.33282 0.38667 0.14978 0.0
O334 O 0.3344 0.38525 0.12488 0.0
C335 C 0.3626 0.58457 0.13721 0.0
H336 H 0.40221 0.33822 0.07274 0.0
H337 H 0.33844 0.47236 0.0721 0.0
H338 H 0.33684 0.50633 0.20165 0.0
H339 H 0.39769 0.35324 0.20423 0.0
C340 C 0.62168 0.23764 0.38658 0.0
N341 N 0.62614 0.41059 0.42331 0.0
C342 C 0.61193 0.35629 0.43082 0.0
C343 C 0.61186 0.35344 0.44669 0.0
C344 C 0.62631 0.40797 0.45502 0.0
C345 C 0.64062 0.46398 0.4469 0.0
C346 C 0.6404 0.46367 0.43104 0.0
Zn347 Zn 0.62648 0.41274 0.39997 0.0
C348 C 0.67249 0.38398 0.38788 0.0
N349 N 0.62804 0.41861 0.35122 0.0
C350 C 0.61155 0.38001 0.34288 0.0
C351 C 0.64475 0.46461 0.34437 0.0
C352 C 0.64517 0.47417 0.32861 0.0
C353 C 0.62813 0.43666 0.31969 0.0
C354 C 0.61126 0.38834 0.32706 0.0
Zn355 Zn 0.62738 0.41391 0.37455 0.0
O356 O 0.62212 0.27772 0.39918 0.0
C357 C 0.58112 0.43672 0.38699 0.0
O358 O 0.62316 0.27957 0.3742 0.0
H359 H 0.65768 0.49505 0.35117 0.0
H360 H 0.60068 0.31462 0.4245 0.0
H361 H 0.59837 0.34393 0.34853 0.0
O362 O 0.59152 0.43019 0.39953 0.0
O363 O 0.59202 0.4325 0.37458 0.0
H364 H 0.65166 0.50614 0.4249 0.0
O365 O 0.63157 0.54769 0.37521 0.0
O366 O 0.63082 0.54858 0.40013 0.0
O367 O 0.66263 0.39357 0.37518 0.0
O368 O 0.66136 0.39256 0.40011 0.0
C369 C 0.63214 0.58923 0.38762 0.0
H370 H 0.60077 0.30801 0.45233 0.0
H371 H 0.65177 0.5085 0.45269 0.0
H372 H 0.65876 0.51065 0.32347 0.0
H373 H 0.59763 0.35899 0.32072 0.0
C374 C 0.37234 0.72187 0.38652 0.0
N375 N 0.36684 0.54894 0.42303 0.0
C376 C 0.3807 0.60441 0.43058 0.0
C377 C 0.38078 0.60693 0.44645 0.0
C378 C 0.36671 0.55084 0.45476 0.0
C379 C 0.35269 0.49391 0.44661 0.0
C380 C 0.35289 0.49455 0.43074 0.0
Zn381 Zn 0.36696 0.54649 0.39966 0.0
C382 C 0.32171 0.57513 0.3867 0.0
N383 N 0.36746 0.54092 0.35095 0.0
C384 C 0.38426 0.57833 0.34273 0.0
C385 C 0.35069 0.49575 0.34401 0.0
C386 C 0.35053 0.48575 0.32826 0.0
C387 C 0.3679 0.52195 0.31946 0.0
C388 C 0.38482 0.56953 0.32691 0.0
Zn389 Zn 0.36762 0.54583 0.37427 0.0
O390 O 0.37005 0.68067 0.3989 0.0
C391 C 0.4131 0.52298 0.38711 0.0
O392 O 0.37293 0.6809 0.374 0.0
H393 H 0.33751 0.46629 0.35073 0.0
H394 H 0.39171 0.64711 0.42428 0.0
H395 H 0.39747 0.61375 0.34846 0.0
O396 O 0.40244 0.53296 0.39952 0.0
O397 O 0.40244 0.52384 0.37461 0.0
H398 H 0.34192 0.45107 0.42458 0.0
O399 O 0.36227 0.41111 0.37495 0.0
O400 O 0.36388 0.41176 0.39985 0.0
O401 O 0.33292 0.5698 0.37445 0.0
O402 O 0.33152 0.56238 0.39934 0.0
C403 C 0.36212 0.37035 0.38747 0.0
H404 H 0.39162 0.65317 0.4521 0.0
H405 H 0.34182 0.44825 0.45239 0.0
H406 H 0.3369 0.44992 0.32305 0.0
H407 H 0.39868 0.59788 0.32066 0.0
C408 C 0.36273 0.58772 0.88755 0.0
N409 N 0.36701 0.41643 0.85115 0.0
C410 C 0.35071 0.46385 0.84418 0.0
C411 C 0.35066 0.47358 0.82841 0.0
C412 C 0.36765 0.43469 0.81963 0.0
C413 C 0.38406 0.38486 0.82712 0.0
C414 C 0.3834 0.37645 0.84294 0.0
Zn415 Zn 0.36747 0.41177 0.87449 0.0
C416 C 0.41363 0.43537 0.88695 0.0
N417 N 0.36871 0.40962 0.92325 0.0
C418 C 0.35445 0.46201 0.93111 0.0
C419 C 0.38324 0.35608 0.93062 0.0
C420 C 0.38368 0.35338 0.94649 0.0
C421 C 0.36929 0.40734 0.95495 0.0
C422 C 0.3546 0.46246 0.94698 0.0
Zn423 Zn 0.36825 0.41198 0.89991 0.0
O424 O 0.36386 0.54605 0.87516 0.0
C425 C 0.32229 0.38289 0.88779 0.0
O426 O 0.36346 0.54721 0.90009 0.0
H427 H 0.39449 0.31502 0.9242 0.0
H428 H 0.33785 0.49535 0.85089 0.0
H429 H 0.34296 0.50396 0.92508 0.0
O430 O 0.33212 0.39364 0.8751 0.0
O431 O 0.33347 0.39004 0.90002 0.0
H432 H 0.39626 0.33924 0.84868 0.0
O433 O 0.37303 0.27678 0.89909 0.0
O434 O 0.37109 0.27766 0.87414 0.0
O435 O 0.40309 0.43215 0.89948 0.0
O436 O 0.40288 0.42754 0.87454 0.0
C437 C 0.37298 0.23619 0.88653 0.0
H438 H 0.33741 0.5113 0.82317 0.0
H439 H 0.39763 0.35441 0.8209 0.0
H440 H 0.39504 0.30858 0.95201 0.0
H441 H 0.34345 0.5065 0.95288 0.0
C442 C 0.63249 0.36986 0.88732 0.0
N443 N 0.62706 0.54115 0.851 0.0
C444 C 0.64337 0.49406 0.84397 0.0
C445 C 0.64328 0.48409 0.82822 0.0
C446 C 0.62612 0.5223 0.81951 0.0
C447 C 0.60969 0.57179 0.82706 0.0
C448 C 0.6105 0.58052 0.84286 0.0
Zn449 Zn 0.62704 0.54605 0.87431 0.0
C450 C 0.58156 0.52232 0.88718 0.0
N451 N 0.62764 0.54771 0.9231 0.0
C452 C 0.64189 0.4947 0.93086 0.0
C453 C 0.61323 0.60142 0.93058 0.0
C454 C 0.61287 0.60343 0.94646 0.0
C455 C 0.62716 0.54852 0.95471 0.0
C456 C 0.64178 0.49351 0.94673 0.0
Zn457 Zn 0.62764 0.54537 0.89974 0.0
O458 O 0.63089 0.41169 0.87497 0.0
C459 C 0.67291 0.57492 0.88674 0.0
O460 O 0.63223 0.4102 0.89988 0.0
H461 H 0.6019 0.64255 0.92425 0.0
H462 H 0.65637 0.46302 0.85062 0.0
H463 H 0.65335 0.453 0.92473 0.0
O464 O 0.66198 0.56531 0.87445 0.0
O465 O 0.66283 0.56646 0.89939 0.0
H466 H 0.59764 0.61748 0.84866 0.0
O467 O 0.62303 0.68078 0.89896 0.0
O468 O 0.62319 0.67997 0.87398 0.0
O469 O 0.59239 0.52584 0.89962 0.0
O470 O 0.59202 0.52961 0.87467 0.0
C471 C 0.62218 0.72139 0.88642 0.0
H472 H 0.65656 0.44672 0.82293 0.0
H473 H 0.59599 0.60174 0.82088 0.0
H474 H 0.60124 0.6463 0.95222 0.0
H475 H 0.65319 0.45078 0.95271 0.0
C476 C 0.36182 0.37012 0.63719 0.0
N477 N 0.36836 0.54027 0.67384 0.0
C478 C 0.35158 0.49538 0.68084 0.0
C479 C 0.35147 0.48551 0.6966 0.0
C480 C 0.3689 0.52155 0.70536 0.0
C481 C 0.38585 0.56874 0.69785 0.0
C482 C 0.38524 0.57741 0.68203 0.0
Zn483 Zn 0.36829 0.54545 0.6505 0.0
C484 C 0.4135 0.51907 0.63741 0.0
N485 N 0.36705 0.54887 0.60171 0.0
C486 C 0.34976 0.51067 0.59407 0.0
C487 C 0.3842 0.58823 0.5941 0.0
C488 C 0.38453 0.58922 0.57823 0.0
C489 C 0.36685 0.55075 0.57009 0.0
C490 C 0.34923 0.51156 0.5782 0.0
Zn491 Zn 0.36735 0.54609 0.62509 0.0
O492 O 0.36264 0.41063 0.64973 0.0
C493 C 0.3224 0.57823 0.63838 0.0
O494 O 0.36319 0.41174 0.62479 0.0
H495 H 0.3977 0.61892 0.60034 0.0
H496 H 0.33833 0.46612 0.67416 0.0
H497 H 0.33638 0.47906 0.60029 0.0
O498 O 0.33362 0.57082 0.65058 0.0
O499 O 0.33209 0.56618 0.62569 0.0
H500 H 0.39847 0.61262 0.67626 0.0
O501 O 0.37153 0.67994 0.62579 0.0
O502 O 0.37392 0.68064 0.65072 0.0
O503 O 0.40266 0.52829 0.62508 0.0
O504 O 0.4031 0.52214 0.65 0.0
C505 C 0.37372 0.72137 0.63816 0.0
H506 H 0.33781 0.44999 0.70185 0.0
H507 H 0.39976 0.59696 0.70407 0.0
H508 H 0.39833 0.62074 0.57237 0.0
H509 H 0.33538 0.48059 0.57231 0.0
C510 C 0.63319 0.58416 0.63745 0.0
N511 N 0.62658 0.41415 0.67388 0.0
C512 C 0.64315 0.45994 0.68091 0.0
C513 C 0.64307 0.4701 0.69666 0.0
C514 C 0.62566 0.43346 0.70536 0.0
C515 C 0.60894 0.38534 0.69782 0.0
C516 C 0.60974 0.37635 0.68202 0.0
Zn517 Zn 0.62676 0.40873 0.65058 0.0
C518 C 0.58153 0.4353 0.63748 0.0
N519 N 0.62791 0.40521 0.60184 0.0
C520 C 0.64527 0.44251 0.59414 0.0
C521 C 0.61055 0.36679 0.59431 0.0
C522 C 0.61004 0.36608 0.57845 0.0
C523 C 0.62777 0.40379 0.57024 0.0
C524 C 0.64564 0.44182 0.57826 0.0
Zn525 Zn 0.62765 0.40811 0.62517 0.0
O526 O 0.63154 0.54254 0.64982 0.0
C527 C 0.67265 0.37604 0.63846 0.0
O528 O 0.63273 0.54357 0.62489 0.0
H529 H 0.597 0.33677 0.60061 0.0
H530 H 0.65637 0.48974 0.67427 0.0
H531 H 0.65883 0.47332 0.6003 0.0
O532 O 0.66159 0.38592 0.65068 0.0
O533 O 0.66278 0.38537 0.62576 0.0
H534 H 0.59668 0.34043 0.67622 0.0
O535 O 0.62255 0.27311 0.62592 0.0
O536 O 0.62199 0.27466 0.6509 0.0
O537 O 0.59248 0.42872 0.62514 0.0
O538 O 0.59182 0.42949 0.65007 0.0
C539 C 0.62121 0.23287 0.63848 0.0
H540 H 0.65657 0.50635 0.70195 0.0
H541 H 0.59505 0.35664 0.704 0.0
H542 H 0.59607 0.33546 0.57264 0.0
H543 H 0.65953 0.47212 0.57231 0.0
H544 H 0.19411 0.14816 0.11259 0.0
H545 H 0.20483 0.07616 0.15945 0.0
H546 H 0.22929 0.22744 0.11256 0.0
H547 H 0.2409 0.15174 0.15921 0.0
H548 H 0.29166 0.37 0.15972 0.0
H549 H 0.25576 0.29321 0.15928 0.0
H550 H 0.26816 0.21785 0.1127 0.0
H551 H 0.30315 0.29831 0.11292 0.0
C552 C 0.20432 0.14724 0.12278 0.0
C553 C 0.1967 0.10591 0.13603 0.0
C554 C 0.22457 0.19283 0.12277 0.0
C555 C 0.23794 0.19684 0.13592 0.0
C556 C 0.23078 0.15197 0.14898 0.0
C557 C 0.21028 0.10756 0.14907 0.0
C558 C 0.28643 0.33833 0.14932 0.0
C559 C 0.30015 0.34058 0.13634 0.0
C560 C 0.26602 0.29323 0.14912 0.0
C561 C 0.25912 0.24826 0.13601 0.0
C562 C 0.27268 0.25255 0.12294 0.0
C563 C 0.29282 0.29882 0.12306 0.0
H564 H 0.79139 0.87879 0.15956 0.0
H565 H 0.80215 0.8081 0.11263 0.0
H566 H 0.7554 0.80264 0.15929 0.0
H567 H 0.76706 0.72827 0.11257 0.0
H568 H 0.69335 0.6556 0.11294 0.0
H569 H 0.72821 0.73695 0.11276 0.0
H570 H 0.74075 0.66084 0.15927 0.0
H571 H 0.70497 0.58317 0.15968 0.0
C572 C 0.78596 0.8476 0.14916 0.0
C573 C 0.79953 0.84973 0.13611 0.0
C574 C 0.7655 0.80285 0.14905 0.0
C575 C 0.7584 0.75814 0.13597 0.0
C576 C 0.77175 0.76272 0.1228 0.0
C577 C 0.79195 0.80864 0.12283 0.0
C578 C 0.70369 0.6551 0.12308 0.0
C579 C 0.69644 0.61288 0.13633 0.0
C580 C 0.72375 0.70189 0.12297 0.0
C581 C 0.7373 0.70623 0.13603 0.0
C582 C 0.73048 0.66079 0.14912 0.0
C583 C 0.71015 0.61518 0.1493 0.0
H584 H 0.29038 0.57788 0.40957 0.0
H585 H 0.30134 0.65517 0.36299 0.0
H586 H 0.2543 0.65354 0.40951 0.0
H587 H 0.26632 0.73462 0.36317 0.0
H588 H 0.19275 0.80421 0.36301 0.0
H589 H 0.22771 0.72412 0.36294 0.0
H590 H 0.23872 0.79361 0.40996 0.0
H591 H 0.20273 0.8698 0.41023 0.0
C592 C 0.285 0.61048 0.3993 0.0
C593 C 0.29862 0.61006 0.38627 0.0
C594 C 0.26449 0.65495 0.39932 0.0
C595 C 0.25741 0.70111 0.38638 0.0
C596 C 0.27092 0.69881 0.37327 0.0
C597 C 0.29111 0.65313 0.37317 0.0
C598 C 0.20277 0.80359 0.37329 0.0
C599 C 0.19503 0.84359 0.38662 0.0
C600 C 0.22291 0.75751 0.37325 0.0
C601 C 0.23612 0.75181 0.38647 0.0
C602 C 0.22877 0.79484 0.39967 0.0
C603 C 0.20832 0.83964 0.39978 0.0
H604 H 0.80111 0.15199 0.41187 0.0
H605 H 0.79009 0.08109 0.36499 0.0
H606 H 0.76631 0.23322 0.41194 0.0
H607 H 0.75429 0.15853 0.36528 0.0
H608 H 0.70372 0.37729 0.36502 0.0
H609 H 0.73951 0.29979 0.36527 0.0
H610 H 0.72759 0.22554 0.41197 0.0
H611 H 0.6928 0.30683 0.41193 0.0
C612 C 0.7909 0.1517 0.40168 0.0
C613 C 0.79833 0.11 0.38842 0.0
C614 C 0.77085 0.19844 0.40171 0.0
C615 C 0.75745 0.20321 0.38858 0.0
C616 C 0.76443 0.15816 0.3755 0.0
C617 C 0.78476 0.11264 0.37538 0.0
C618 C 0.70906 0.34582 0.3754 0.0
C619 C 0.69553 0.3486 0.38847 0.0
C620 C 0.7294 0.30027 0.3755 0.0
C621 C 0.7364 0.25533 0.38859 0.0
C622 C 0.72303 0.26023 0.40174 0.0
C623 C 0.70299 0.30701 0.40172 0.0
H624 H 0.69332 0.65192 0.86272 0.0
H625 H 0.70402 0.58187 0.90967 0.0
H626 H 0.72814 0.73298 0.86269 0.0
H627 H 0.7399 0.65903 0.90941 0.0
H628 H 0.79088 0.87715 0.90952 0.0
H629 H 0.75505 0.79967 0.90936 0.0
H630 H 0.76676 0.7248 0.86267 0.0
H631 H 0.80154 0.80619 0.8626 0.0
C632 C 0.70347 0.65174 0.87294 0.0
C633 C 0.69595 0.6103 0.8862 0.0
C634 C 0.72354 0.69838 0.87292 0.0
C635 C 0.7369 0.70322 0.88607 0.0
C636 C 0.72981 0.65854 0.89918 0.0
C637 C 0.70943 0.61319 0.89928 0.0
C638 C 0.78547 0.84554 0.89916 0.0
C639 C 0.79892 0.8483 0.88605 0.0
C640 C 0.76512 0.8 0.89912 0.0
C641 C 0.75803 0.75501 0.88605 0.0
C642 C 0.77136 0.75965 0.87288 0.0
C643 C 0.7914 0.80647 0.87283 0.0
H644 H 0.29109 0.37782 0.8649 0.0
H645 H 0.30173 0.30577 0.91177 0.0
H646 H 0.25503 0.30195 0.86512 0.0
H647 H 0.26665 0.22619 0.91176 0.0
H648 H 0.19285 0.15709 0.91168 0.0
H649 H 0.22792 0.23675 0.91173 0.0
H650 H 0.23977 0.161 0.8651 0.0
H651 H 0.20372 0.08505 0.86483 0.0
C652 C 0.28563 0.34634 0.87527 0.0
C653 C 0.29916 0.3482 0.88833 0.0
C654 C 0.26514 0.30175 0.87534 0.0
C655 C 0.25797 0.25694 0.88841 0.0
C656 C 0.27135 0.26085 0.90155 0.0
C657 C 0.29156 0.30662 0.90156 0.0
C658 C 0.20307 0.15625 0.90149 0.0
C659 C 0.19553 0.11465 0.88825 0.0
C660 C 0.22327 0.20207 0.90151 0.0
C661 C 0.23671 0.206 0.88839 0.0
C662 C 0.22961 0.16118 0.87531 0.0
C663 C 0.20912 0.11654 0.87521 0.0
H664 H 0.70411 0.37132 0.61576 0.0
H665 H 0.69261 0.29649 0.6624 0.0
H666 H 0.74006 0.295 0.61606 0.0
H667 H 0.7276 0.21628 0.66247 0.0
H668 H 0.80154 0.14676 0.66263 0.0
H669 H 0.76634 0.22569 0.66274 0.0
H670 H 0.75523 0.1546 0.61581 0.0
H671 H 0.79136 0.07961 0.6155 0.0
C672 C 0.70935 0.33902 0.62609 0.0
C673 C 0.69564 0.34036 0.63907 0.0
C674 C 0.72978 0.29417 0.62622 0.0
C675 C 0.73669 0.24843 0.63924 0.0
C676 C 0.7231 0.25166 0.6523 0.0
C677 C 0.70295 0.29778 0.65227 0.0
C678 C 0.79142 0.14675 0.65239 0.0
C679 C 0.79919 0.1069 0.63905 0.0
C680 C 0.77116 0.19216 0.65245 0.0
C681 C 0.75791 0.19734 0.63925 0.0
C682 C 0.76523 0.15394 0.62608 0.0
C683 C 0.78577 0.10983 0.62594 0.0
H684 H 0.20413 0.87727 0.61525 0.0
H685 H 0.19391 0.81049 0.6624 0.0
H686 H 0.24013 0.80125 0.61553 0.0
H687 H 0.22893 0.7307 0.66248 0.0
H688 H 0.3025 0.65906 0.66222 0.0
H689 H 0.26767 0.74012 0.66219 0.0
H690 H 0.25514 0.66015 0.61586 0.0
H691 H 0.29096 0.58283 0.61565 0.0
C692 C 0.20967 0.84694 0.62569 0.0
C693 C 0.19627 0.85026 0.63881 0.0
C694 C 0.23013 0.80226 0.62581 0.0
C695 C 0.23739 0.75878 0.63898 0.0
C696 C 0.22416 0.7643 0.65219 0.0
C697 C 0.20399 0.81019 0.65214 0.0
C698 C 0.29218 0.65766 0.65208 0.0
C699 C 0.29945 0.61438 0.63893 0.0
C700 C 0.27212 0.70427 0.65206 0.0
C701 C 0.25855 0.70734 0.639 0.0
C702 C 0.2654 0.66102 0.62602 0.0
C703 C 0.28576 0.6156 0.62595 0.0
H704 H 0.16351 0.97651 0.30134 0.0
H705 H 0.09304 0.90675 0.29925 0.0
H706 H 0.16355 0.00311 0.27434 0.0
H707 H 0.09377 0.92401 0.27191 0.0
H708 H 0.09437 0.04042 0.22494 0.0
H709 H 0.09411 0.02165 0.25224 0.0
H710 H 0.16393 0.94281 0.25078 0.0
H711 H 0.16488 0.97098 0.22382 0.0
C712 C 0.14797 0.96645 0.29517 0.0
C713 C 0.1282 0.94021 0.30271 0.0
C714 C 0.14812 -0.01991 0.27949 0.0
C715 C 0.12868 0.96569 0.27072 0.0
C716 C 0.10902 0.93755 0.2782 0.0
C717 C 0.10872 0.92584 0.29396 0.0
C718 C 0.10986 0.02109 0.23044 0.0
C719 C 0.12966 0.00753 0.22197 0.0
C720 C 0.10958 0.00845 0.24617 0.0
C721 C 0.12896 -0.01991 0.25391 0.0
C722 C 0.14871 0.96605 0.24542 0.0
C723 C 0.14913 -0.01935 0.22976 0.0
H724 H 0.87834 0.13868 0.29748 0.0
H725 H 0.85495 0.87577 0.30343 0.0
H726 H 0.87953 0.11678 0.27011 0.0
H727 H 0.85492 0.85553 0.27605 0.0
H728 H 0.87832 0.81711 0.22735 0.0
H729 H 0.87924 0.83888 0.25473 0.0
H730 H 0.85542 0.10099 0.24869 0.0
H731 H 0.85573 0.08085 0.22131 0.0
C732 C 0.87345 0.07617 0.29298 0.0
C733 C 0.86651 0.00912 0.30274 0.0
C734 C 0.87386 0.06393 0.27723 0.0
C735 C 0.86726 -0.01559 0.2708 0.0
C736 C 0.86038 0.91732 0.28056 0.0
C737 C 0.86007 0.92942 0.2963 0.0
C738 C 0.87355 0.87977 0.23183 0.0
C739 C 0.86692 0.94709 0.22205 0.0
C740 C 0.8738 0.89194 0.24759 0.0
C741 C 0.86734 0.97168 0.25399 0.0
C742 C 0.86076 0.03902 0.2442 0.0
C743 C 0.86062 0.02699 0.22846 0.0
H744 H 0.86027 0.14309 0.72716 0.0
H745 H 0.88084 0.87756 0.72091 0.0
H746 H 0.85998 0.12145 0.75482 0.0
H747 H 0.88122 0.8567 0.74855 0.0
H748 H 0.90394 0.91542 0.79964 0.0
H749 H 0.9048 0.93511 0.77216 0.0
H750 H 0.8348 0.00806 0.7726 0.0
H751 H 0.8332 -0.01709 0.79988 0.0
C752 C 0.86494 0.08053 0.73175 0.0
C753 C 0.87055 0.01191 0.722 0.0
C754 C 0.86469 0.06807 0.74749 0.0
C755 C 0.87059 -0.01255 0.75373 0.0
C756 C 0.8767 0.91947 0.74398 0.0
C757 C 0.87642 0.9313 0.72823 0.0
C758 C 0.88854 0.93387 0.79394 0.0
C759 C 0.86849 0.94752 0.80219 0.0
C760 C 0.88916 0.94589 0.77819 0.0
C761 C 0.86992 0.9737 0.77036 0.0
C762 C 0.84993 -0.01233 0.77846 0.0
C763 C 0.84913 0.97374 0.79414 0.0
H764 H 0.11506 0.14441 0.79747 0.0
H765 H 0.13786 0.88089 0.80348 0.0
H766 H 0.11351 0.12193 0.77013 0.0
H767 H 0.1376 0.86013 0.77612 0.0
H768 H 0.11428 0.82124 0.72751 0.0
H769 H 0.11323 0.84368 0.75488 0.0
H770 H 0.13741 0.10536 0.74869 0.0
H771 H 0.13717 0.08465 0.72134 0.0
C772 C 0.11974 0.08165 0.79299 0.0
C773 C 0.12663 0.0146 0.80275 0.0
C774 C 0.11913 0.06907 0.77726 0.0
C775 C 0.1255 -0.01076 0.77085 0.0
C776 C 0.13232 0.92215 0.78062 0.0
C777 C 0.1328 0.93455 0.79634 0.0
C778 C 0.11907 0.88398 0.73196 0.0
C779 C 0.12586 0.95098 0.72215 0.0
C780 C 0.11876 0.89652 0.7477 0.0
C781 C 0.12532 0.97629 0.75406 0.0
C782 C 0.13199 0.04338 0.74424 0.0
C783 C 0.13218 0.03101 0.72851 0.0
H784 H 0.63933 0.58263 0.3036 0.0
H785 H 0.61614 0.3195 0.29761 0.0
H786 H 0.63982 0.60244 0.27622 0.0
H787 H 0.61542 0.34097 0.27021 0.0
H788 H 0.64012 0.37658 0.22157 0.0
H789 H 0.63997 0.35672 0.24896 0.0
H790 H 0.61582 0.61857 0.25475 0.0
H791 H 0.61719 0.64007 0.22737 0.0
C792 C 0.63435 0.52884 0.29646 0.0
C793 C 0.62783 0.4492 0.30289 0.0
C794 C 0.63431 0.54069 0.28072 0.0
C795 C 0.62763 0.47341 0.27094 0.0
C796 C 0.62094 0.39395 0.27736 0.0
C797 C 0.62107 0.38196 0.29311 0.0
C798 C 0.63507 0.43044 0.22867 0.0
C799 C 0.62879 0.51017 0.22219 0.0
C800 C 0.63466 0.41856 0.24441 0.0
C801 C 0.62784 0.48592 0.25413 0.0
C802 C 0.62143 0.56551 0.24766 0.0
C803 C 0.62194 0.57752 0.23191 0.0
H804 H 0.38059 0.63773 0.29735 0.0
H805 H 0.35661 0.37577 0.3035 0.0
H806 H 0.38159 0.61524 0.26997 0.0
H807 H 0.35642 0.35496 0.27614 0.0
H808 H 0.37932 0.31482 0.22743 0.0
H809 H 0.38068 0.33735 0.25478 0.0
H810 H 0.357 0.5996 0.24869 0.0
H811 H 0.35684 0.57864 0.22132 0.0
C812 C 0.37555 0.57531 0.29289 0.0
C813 C 0.36847 0.50872 0.30269 0.0
C814 C 0.37584 0.56274 0.27715 0.0
C815 C 0.36901 0.48332 0.27079 0.0
C816 C 0.36204 0.41664 0.2806 0.0
C817 C 0.36184 0.42907 0.29633 0.0
C818 C 0.37467 0.37766 0.2319 0.0
C819 C 0.36793 0.44479 0.22211 0.0
C820 C 0.37518 0.39028 0.24763 0.0
C821 C 0.36888 0.47027 0.254 0.0
C822 C 0.36221 0.53745 0.24421 0.0
C823 C 0.36179 0.52496 0.22849 0.0
H824 H 0.35773 0.58174 0.80347 0.0
H825 H 0.37941 0.3167 0.79765 0.0
H826 H 0.35812 0.60184 0.77608 0.0
H827 H 0.381 0.33833 0.77028 0.0
H828 H 0.35733 0.37613 0.72146 0.0
H829 H 0.35701 0.35618 0.74884 0.0
H830 H 0.38271 0.61585 0.75479 0.0
H831 H 0.38184 0.63752 0.72739 0.0
C832 C 0.36257 0.52761 0.79637 0.0
C833 C 0.3684 0.44735 0.80284 0.0
C834 C 0.36311 0.5396 0.78063 0.0
C835 C 0.36962 0.47182 0.7709 0.0
C836 C 0.37563 0.39174 0.77737 0.0
C837 C 0.37499 0.37963 0.79312 0.0
C838 C 0.36265 0.42949 0.72859 0.0
C839 C 0.36946 0.50873 0.72215 0.0
C840 C 0.36278 0.41754 0.74433 0.0
C841 C 0.36985 0.48431 0.75409 0.0
C842 C 0.37688 0.56329 0.74766 0.0
C843 C 0.37666 0.57538 0.7319 0.0
H844 H 0.61395 0.6395 0.79751 0.0
H845 H 0.6362 0.37522 0.80343 0.0
H846 H 0.61242 0.61741 0.77015 0.0
H847 H 0.63591 0.35476 0.77607 0.0
H848 H 0.61279 0.31742 0.72739 0.0
H849 H 0.61151 0.33963 0.75476 0.0
H850 H 0.63658 0.60021 0.74878 0.0
H851 H 0.63662 0.57973 0.72142 0.0
C852 C 0.6185 0.57664 0.793 0.0
C853 C 0.62526 0.50929 0.80274 0.0
C854 C 0.61789 0.56428 0.77727 0.0
C855 C 0.62412 0.48434 0.77083 0.0
C856 C 0.63075 0.41688 0.78058 0.0
C857 C 0.63124 0.4291 0.79631 0.0
C858 C 0.61773 0.37987 0.73189 0.0
C859 C 0.62487 0.44662 0.72214 0.0
C860 C 0.61728 0.39228 0.74763 0.0
C861 C 0.62403 0.47166 0.75404 0.0
C862 C 0.63102 0.53854 0.74428 0.0
C863 C 0.63137 0.52629 0.72855 0.0
H864 H 0.08969 0.08122 0.97399 0.0
H865 H 0.16124 0.02986 0.97421 0.0
H866 H 0.08973 0.0857 1.00152 0.0
H867 H 0.16086 0.02626 1.0017 0.0
H868 H 0.15905 0.10603 0.05103 0.0
H869 H 0.15878 0.11047 0.02338 0.0
H870 H 0.09163 0.00159 0.02331 0.0
H871 H 0.09166 0.00203 0.051 0.0
C872 C 0.10546 0.07079 0.97985 0.0
C873 C 0.12547 0.05539 0.97172 0.0
C874 C 0.10541 0.07181 0.99574 0.0
C875 C 0.12528 0.05606 1.00399 0.0
C876 C 0.14525 0.04009 0.99585 0.0
C877 C 0.14538 0.04055 0.97997 0.0
C878 C 0.14426 0.08326 0.04504 0.0
C879 C 0.12538 0.05377 0.05311 0.0
C880 C 0.14411 0.08518 0.02917 0.0
C881 C 0.12521 0.05599 0.02096 0.0
C882 C 0.10634 0.0262 0.02914 0.0
C883 C 0.10635 0.02589 0.04502 0.0
H884 H 0.90219 0.95724 0.97328 0.0
H885 H 0.83447 0.85642 0.97366 0.0
H886 H 0.90256 0.95807 1.00096 0.0
H887 H 0.83504 0.85271 1.00133 0.0
H888 H 0.8337 0.93345 0.05059 0.0
H889 H 0.83362 0.93675 0.02309 0.0
H890 H 0.90452 0.8737 0.02275 0.0
H891 H 0.90504 0.87816 0.05028 0.0
C892 C 0.88748 0.93423 0.97934 0.0
C893 C 0.86829 0.90699 0.97135 0.0
C894 C 0.88769 0.93414 0.99523 0.0
C895 C 0.86884 0.90535 1.00354 0.0
C896 C 0.84973 0.87714 0.99544 0.0
C897 C 0.8494 0.87871 0.97955 0.0
C898 C 0.84941 0.92186 0.04471 0.0
C899 C 0.86941 0.90606 0.05283 0.0
C900 C 0.84927 0.92218 0.02883 0.0
C901 C 0.86904 0.90521 0.02053 0.0
C902 C 0.88899 0.88841 0.02864 0.0
C903 C 0.88921 0.88946 0.04453 0.0
H904 H 0.10965 0.78114 0.4745 0.0
H905 H 0.14297 0.03023 0.47424 0.0
H906 H 0.10895 0.78361 0.50203 0.0
H907 H 0.14412 0.02888 0.50173 0.0
H908 H 0.12398 0.04644 0.55121 0.0
H909 H 0.12281 0.04596 0.52355 0.0
H910 H 0.1308 0.7674 0.52369 0.0
H911 H 0.13074 0.76838 0.55138 0.0
C912 C 0.11686 0.83652 0.48026 0.0
C913 C 0.12633 0.90554 0.47198 0.0
C914 C 0.11682 0.83721 0.49614 0.0
C915 C 0.12656 0.90628 0.50426 0.0
C916 C 0.13614 0.97504 0.49598 0.0
C917 C 0.13584 0.97504 0.48011 0.0
C918 C 0.12549 -0.01472 0.54527 0.0
C919 C 0.12743 0.90748 0.5534 0.0
C920 C 0.12496 -0.01516 0.52939 0.0
C921 C 0.12678 0.90662 0.52124 0.0
C922 C 0.12889 0.82881 0.52948 0.0
C923 C 0.129 0.82922 0.54536 0.0
H924 H 0.85077 0.92657 0.55058 0.0
H925 H 0.88428 0.17528 0.55078 0.0
H926 H 0.85019 0.92852 0.52307 0.0
H927 H 0.88553 0.17342 0.52327 0.0
H928 H 0.86506 0.1893 0.47366 0.0
H929 H 0.8643 0.19004 0.50134 0.0
H930 H 0.87214 0.91144 0.50151 0.0
H931 H 0.8717 0.91118 0.47384 0.0
C932 C 0.85805 -0.0182 0.54482 0.0
C933 C 0.86749 0.05092 0.55307 0.0
C934 C 0.85809 -0.01784 0.52893 0.0
C935 C 0.86792 0.05093 0.52079 0.0
C936 C 0.8775 0.11979 0.52904 0.0
C937 C 0.87713 0.12011 0.54493 0.0
C938 C 0.86665 0.1284 0.47967 0.0
C939 C 0.86838 0.0502 0.47163 0.0
C940 C 0.86634 0.12868 0.49556 0.0
C941 C 0.86817 0.05077 0.50381 0.0
C942 C 0.87019 0.97263 0.49566 0.0
C943 C 0.87009 0.97233 0.47977 0.0
H944 H 0.60911 0.67013 0.05074 0.0
H945 H 0.6429 0.42218 0.05052 0.0
H946 H 0.60818 0.66886 0.02321 0.0
H947 H 0.64382 0.42479 0.02303 0.0
H948 H 0.62366 0.40904 0.97355 0.0
H949 H 0.62252 0.40809 1.00121 0.0
H950 H 0.62981 0.68695 1.00149 0.0
H951 H 0.62973 0.68737 0.9738 0.0
C952 C 0.61637 0.61523 0.04488 0.0
C953 C 0.62604 0.54619 0.05302 0.0
C954 C 0.6162 0.61525 0.02899 0.0
C955 C 0.62601 0.54691 0.02073 0.0
C956 C 0.63577 0.47809 0.02888 0.0
C957 C 0.63561 0.47737 0.04476 0.0
C958 C 0.62501 0.46998 0.97958 0.0
C959 C 0.62676 0.54825 0.97156 0.0
C960 C 0.6245 0.46959 0.99546 0.0
C961 C 0.62615 0.54745 1.00374 0.0
C962 C 0.62804 0.62576 0.99561 0.0
C963 C 0.62814 0.62616 0.97972 0.0
H964 H 0.4054 0.38084 0.97401 0.0
H965 H 0.3338 0.43112 0.97462 0.0
H966 H 0.40561 0.37544 1.00153 0.0
H967 H 0.33443 0.43363 1.00212 0.0
H968 H 0.33683 0.35069 0.05133 0.0
H969 H 0.33682 0.34812 0.02367 0.0
H970 H 0.4038 0.45857 0.02347 0.0
H971 H 0.40404 0.45646 0.05116 0.0
C972 C 0.38966 0.39084 0.97996 0.0
C973 C 0.36956 0.40615 0.97193 0.0
C974 C 0.38987 0.38928 0.99584 0.0
C975 C 0.37005 0.40433 1.0042 0.0
C976 C 0.34999 0.42032 0.99617 0.0
C977 C 0.34972 0.42046 0.9803 0.0
C978 C 0.35152 0.37425 0.04531 0.0
C979 C 0.37044 0.40369 0.05335 0.0
C980 C 0.35151 0.37339 0.02944 0.0
C981 C 0.37027 0.40352 0.02118 0.0
C982 C 0.38918 0.43326 0.02933 0.0
C983 C 0.38933 0.43259 0.04522 0.0
H984 H 0.66228 0.43308 0.47422 0.0
H985 H 0.59083 0.37933 0.47453 0.0
H986 H 0.66239 0.43562 0.50173 0.0
H987 H 0.59138 0.37397 0.50204 0.0
H988 H 0.59378 0.45519 0.55153 0.0
H989 H 0.59351 0.45783 0.52386 0.0
H990 H 0.6608 0.3506 0.52339 0.0
H991 H 0.66128 0.35262 0.55107 0.0
C992 C 0.64655 0.42167 0.4801 0.0
C993 C 0.62651 0.40647 0.47199 0.0
C994 C 0.64671 0.42155 0.49598 0.0
C995 C 0.62691 0.40472 0.50426 0.0
C996 C 0.60692 0.38857 0.49616 0.0
C997 C 0.60669 0.39011 0.48027 0.0
C998 C 0.60847 0.4322 0.54545 0.0
C999 C 0.62756 0.40385 0.55341 0.0
C1000 C 0.60831 0.43314 0.52957 0.0
C1001 C 0.62712 0.40423 0.52124 0.0
C1002 C 0.64615 0.37508 0.52931 0.0
C1003 C 0.64643 0.37567 0.54519 0.0
H1004 H 0.33272 0.59899 0.55117 0.0
H1005 H 0.40091 0.50338 0.55105 0.0
H1006 H 0.33277 0.60169 0.52349 0.0
H1007 H 0.40078 0.50151 0.52338 0.0
H1008 H 0.40224 0.58191 0.47411 0.0
H1009 H 0.40203 0.58603 0.50163 0.0
H1010 H 0.33144 0.51758 0.5017 0.0
H1011 H 0.33117 0.5212 0.47418 0.0
C1012 C 0.34764 0.5776 0.54517 0.0
C1013 C 0.36682 0.55119 0.55323 0.0
C1014 C 0.34767 0.57859 0.52928 0.0
C1015 C 0.36677 0.55167 0.52104 0.0
C1016 C 0.3859 0.5245 0.52922 0.0
C1017 C 0.38598 0.52502 0.5451 0.0
C1018 C 0.38653 0.56935 0.47994 0.0
C1019 C 0.36671 0.55149 0.47175 0.0
C1020 C 0.3865 0.57018 0.49583 0.0
C1021 C 0.36674 0.55179 0.50405 0.0
C1022 C 0.34695 0.53339 0.49587 0.0
C1023 C 0.34689 0.53393 0.47998 0.0
H1024 H 0.94383 0.90295 0.1154 0.0
H1025 H 0.93995 -0.01 0.16196 0.0
H1026 H 0.98444 0.9219 0.11579 0.0
H1027 H 0.98055 0.01295 0.16218 0.0
H1028 H 0.05626 0.96362 0.16202 0.0
H1029 H 0.01567 0.94024 0.16218 0.0
H1030 H 0.0119 0.03177 0.11583 0.0
H1031 H 0.05249 0.05115 0.11549 0.0
C1032 C 0.95167 0.92691 0.12568 0.0
C1033 C 0.93876 0.94519 0.13863 0.0
C1034 C 0.97494 0.93832 0.12589 0.0
C1035 C 0.98579 0.96957 0.13898 0.0
C1036 C 0.97281 -0.01237 0.15197 0.0
C1037 C 0.94954 0.97499 0.15182 0.0
C1038 C 0.04671 -0.02136 0.15189 0.0
C1039 C 0.05751 0.00873 0.13872 0.0
C1040 C 0.02344 0.96574 0.152 0.0
C1041 C 0.0105 -0.01617 0.139 0.0
C1042 C 0.02137 0.01532 0.12593 0.0
C1043 C 0.04463 0.02699 0.12576 0.0
H1044 H 0.94212 0.05372 0.40979 0.0
H1045 H 0.93876 0.96247 0.36347 0.0
H1046 H 0.98272 0.03386 0.40971 0.0
H1047 H 0.97929 0.93847 0.36357 0.0
H1048 H 0.05463 -0.01238 0.36347 0.0
H1049 H 0.01414 0.01134 0.36338 0.0
H1050 H 0.01061 0.92592 0.41011 0.0
H1051 H 0.05127 0.90631 0.41036 0.0
C1052 C 0.95007 0.02863 0.39963 0.0
C1053 C 0.93732 0.00965 0.38663 0.0
C1054 C 0.97334 0.01666 0.39961 0.0
C1055 C 0.98432 -0.01583 0.38666 0.0
C1056 C 0.97147 0.96496 0.37366 0.0
C1057 C 0.94822 0.97821 0.37361 0.0
C1058 C 0.04517 0.97402 0.37371 0.0
C1059 C 0.05607 0.94534 0.38693 0.0
C1060 C 0.02193 -0.01293 0.37365 0.0
C1061 C 0.00906 0.97046 0.38673 0.0
C1062 C 0.02002 0.94097 0.39991 0.0
C1063 C 0.04331 0.9292 0.40004 0.0
H1064 H 0.05481 0.96796 0.90982 0.0
H1065 H 0.05201 0.05694 0.86333 0.0
H1066 H 0.01432 0.9452 0.90966 0.0
H1067 H 0.01129 0.03808 0.86336 0.0
H1068 H 0.94236 0.91078 0.86329 0.0
H1069 H 0.98299 0.93053 0.86331 0.0
H1070 H 0.97986 0.02092 0.90976 0.0
H1071 H 0.93935 -0.0028 0.90992 0.0
C1072 C 0.04548 -0.01658 0.8996 0.0
C1073 C 0.05653 0.01415 0.88658 0.0
C1074 C 0.02223 0.97093 0.89954 0.0
C1075 C 0.00949 -0.00989 0.88652 0.0
C1076 C 0.02061 0.02127 0.87351 0.0
C1077 C 0.04392 0.03257 0.8735 0.0
C1078 C 0.95039 0.93481 0.8735 0.0
C1079 C 0.93773 0.95229 0.88661 0.0
C1080 C 0.97366 0.94668 0.87349 0.0
C1081 C 0.98473 0.97746 0.88653 0.0
C1082 C 0.97197 -0.00438 0.89961 0.0
C1083 C 0.94873 -0.01746 0.89968 0.0
H1084 H 0.93971 0.96367 0.61418 0.0
H1085 H 0.94341 0.05643 0.66041 0.0
H1086 H 0.98026 0.94051 0.61412 0.0
H1087 H 0.98403 0.03709 0.66016 0.0
H1088 H 0.05227 0.90775 0.66071 0.0
H1089 H 0.01166 0.92738 0.66046 0.0
H1090 H 0.01521 0.01451 0.61384 0.0
H1091 H 0.05575 -0.00897 0.61392 0.0
C1092 C 0.94924 -0.02013 0.62428 0.0
C1093 C 0.93842 0.0115 0.63732 0.0
C1094 C 0.9725 0.96711 0.62422 0.0
C1095 C 0.98543 -0.01319 0.63714 0.0
C1096 C 0.97455 0.01955 0.65011 0.0
C1097 C 0.95128 0.03119 0.65024 0.0
C1098 C 0.04435 0.93099 0.65041 0.0
C1099 C 0.05715 0.94788 0.63733 0.0
C1100 C 0.02108 0.9428 0.65028 0.0
C1101 C 0.01015 0.97295 0.63715 0.0
C1102 C 0.02302 -0.01007 0.62407 0.0
C1103 C 0.04627 0.97697 0.62414 0.0
H1104 H 0.44091 0.49498 0.11563 0.0
H1105 H 0.4429 0.4073 0.16221 0.0
H1106 H 0.48146 0.51609 0.116 0.0
H1107 H 0.48368 0.42442 0.1624 0.0
H1108 H 0.55373 0.54551 0.1622 0.0
H1109 H 0.51295 0.52837 0.1624 0.0
H1110 H 0.51522 0.43664 0.116 0.0
H1111 H 0.55577 0.45777 0.11563 0.0
C1112 C 0.45008 0.47958 0.12592 0.0
C1113 C 0.43879 0.44943 0.13889 0.0
C1114 C 0.47335 0.49108 0.12611 0.0
C1115 C 0.4859 0.47134 0.1392 0.0
C1116 C 0.47453 0.44144 0.1522 0.0
C1117 C 0.45118 0.43117 0.15207 0.0
C1118 C 0.54546 0.52163 0.15207 0.0
C1119 C 0.55786 0.50335 0.13888 0.0
C1120 C 0.52211 0.51134 0.15219 0.0
C1121 C 0.51075 0.48142 0.13919 0.0
C1122 C 0.52332 0.46166 0.12611 0.0
C1123 C 0.54659 0.47317 0.12592 0.0
H1124 H 0.44246 0.55527 0.41024 0.0
H1125 H 0.43917 0.46224 0.36402 0.0
H1126 H 0.48317 0.53669 0.41007 0.0
H1127 H 0.47968 0.43987 0.36403 0.0
H1128 H 0.55485 0.49198 0.3635 0.0
H1129 H 0.5143 0.51522 0.36363 0.0
H1130 H 0.51132 0.42878 0.4103 0.0
H1131 H 0.55193 0.40942 0.41034 0.0
C1132 C 0.45043 0.53009 0.4001 0.0
C1133 C 0.43767 0.51034 0.38714 0.0
C1134 C 0.47375 0.51894 0.40001 0.0
C1135 C 0.48474 0.48666 0.38703 0.0
C1136 C 0.47186 0.46637 0.37412 0.0
C1137 C 0.44861 0.47863 0.37414 0.0
C1138 C 0.54549 0.47805 0.37377 0.0
C1139 C 0.55653 0.44912 0.38691 0.0
C1140 C 0.52223 0.49087 0.37383 0.0
C1141 C 0.5095 0.47384 0.38698 0.0
C1142 C 0.52061 0.44415 0.40007 0.0
C1143 C 0.54389 0.43248 0.40007 0.0
H1144 H 0.43974 0.49421 0.91013 0.0
H1145 H 0.44288 0.40576 0.86363 0.0
H1146 H 0.48024 0.51686 0.91011 0.0
H1147 H 0.4836 0.42454 0.86378 0.0
H1148 H 0.55246 0.55176 0.86388 0.0
H1149 H 0.51183 0.53234 0.86385 0.0
H1150 H 0.51473 0.44114 0.91025 0.0
H1151 H 0.55527 0.4645 0.91047 0.0
C1152 C 0.44915 0.47886 0.89994 0.0
C1153 C 0.43819 0.44832 0.88688 0.0
C1154 C 0.47239 0.49129 0.89995 0.0
C1155 C 0.48522 0.47225 0.88696 0.0
C1156 C 0.4742 0.44125 0.8739 0.0
C1157 C 0.45089 0.42999 0.87383 0.0
C1158 C 0.54439 0.52766 0.87408 0.0
C1159 C 0.55699 0.50978 0.88719 0.0
C1160 C 0.52111 0.51596 0.87403 0.0
C1161 C 0.50998 0.48496 0.88703 0.0
C1162 C 0.52268 0.46656 0.90012 0.0
C1163 C 0.54593 0.47946 0.90023 0.0
H1164 H 0.43986 0.4578 0.66028 0.0
H1165 H 0.44245 0.55007 0.61399 0.0
H1166 H 0.48039 0.43601 0.66 0.0
H1167 H 0.48319 0.5322 0.6139 0.0
H1168 H 0.5528 0.40896 0.61378 0.0
H1169 H 0.51207 0.42697 0.61364 0.0
H1170 H 0.51444 0.51414 0.6603 0.0
H1171 H 0.55496 0.49216 0.66061 0.0
C1172 C 0.44915 0.47407 0.65008 0.0
C1173 C 0.43803 0.50563 0.63715 0.0
C1174 C 0.47241 0.46217 0.64994 0.0
C1175 C 0.48511 0.48283 0.63696 0.0
C1176 C 0.47392 0.51436 0.62402 0.0
C1177 C 0.45059 0.52508 0.62408 0.0
C1178 C 0.54457 0.432 0.62399 0.0
C1179 C 0.557 0.44885 0.63722 0.0
C1180 C 0.52125 0.44281 0.6239 0.0
C1181 C 0.50993 0.47184 0.63697 0.0
C1182 C 0.52251 0.48993 0.65012 0.0
C1183 C 0.54577 0.47791 0.65028 0.0
H1184 H 0.14589 0.759 0.15936 0.0
H1185 H 0.11972 0.76237 0.11358 0.0
H1186 H 0.14327 0.60146 0.15968 0.0
H1187 H 0.116 0.60586 0.11413 0.0
H1188 H 0.13334 0.32166 0.11411 0.0
H1189 H 0.13707 0.4778 0.11379 0.0
H1190 H 0.11614 0.48843 0.16082 0.0
H1191 H 0.11353 0.33065 0.16133 0.0
C1192 C 0.1396 0.72591 0.14938 0.0
C1193 C 0.13311 0.77256 0.13642 0.0
C1194 C 0.13786 0.63587 0.14961 0.0
C1195 C 0.12928 0.59109 0.13697 0.0
C1196 C 0.12302 0.63809 0.12397 0.0
C1197 C 0.12511 0.72785 0.12365 0.0
C1198 C 0.12935 0.35731 0.12436 0.0
C1199 C 0.12308 0.3142 0.13775 0.0
C1200 C 0.13143 0.44697 0.12416 0.0
C1201 C 0.1269 0.49571 0.13727 0.0
C1202 C 0.12016 0.45261 0.1506 0.0
C1203 C 0.11843 0.36247 0.15087 0.0
H1204 H 0.85423 0.19809 0.11392 0.0
H1205 H 0.87326 0.1909 0.16128 0.0
H1206 H 0.85663 0.35588 0.11428 0.0
H1207 H 0.87679 0.34718 0.16147 0.0
H1208 H 0.85942 0.6315 0.16125 0.0
H1209 H 0.85565 0.47504 0.16082 0.0
H1210 H 0.88368 0.46908 0.11547 0.0
H1211 H 0.88635 0.62665 0.11565 0.0
C1212 C 0.85892 0.23032 0.12438 0.0
C1213 C 0.86345 0.18255 0.13758 0.0
C1214 C 0.86052 0.32048 0.12457 0.0
C1215 C 0.867 0.36411 0.13789 0.0
C1216 C 0.87136 0.3159 0.15109 0.0
C1217 C 0.86941 0.22618 0.15097 0.0
C1218 C 0.86497 0.59665 0.15124 0.0
C1219 C 0.87322 0.64091 0.13849 0.0
C1220 C 0.86284 0.50693 0.151 0.0
C1221 C 0.86933 0.4595 0.13809 0.0
C1222 C 0.87811 0.50384 0.12547 0.0
C1223 C 0.87987 0.59388 0.12562 0.0
H1224 H 0.14187 0.19559 0.41103 0.0
H1225 H 0.12068 0.18729 0.36409 0.0
H1226 H 0.13927 0.3534 0.41064 0.0
H1227 H 0.11698 0.34337 0.3639 0.0
H1228 H 0.134 0.62786 0.36352 0.0
H1229 H 0.13805 0.47156 0.36403 0.0
H1230 H 0.112 0.46625 0.40991 0.0
H1231 H 0.10904 0.62377 0.40962 0.0
C1232 C 0.13668 0.22754 0.40066 0.0
C1233 C 0.13159 0.1794 0.38759 0.0
C1234 C 0.13497 0.3177 0.40046 0.0
C1235 C 0.12783 0.36097 0.38725 0.0
C1236 C 0.12292 0.31241 0.37418 0.0
C1237 C 0.12497 0.22275 0.37431 0.0
C1238 C 0.12893 0.59321 0.37366 0.0
C1239 C 0.12115 0.63769 0.38652 0.0
C1240 C 0.13122 0.50355 0.37396 0.0
C1241 C 0.12538 0.45634 0.38702 0.0
C1242 C 0.11707 0.50085 0.39978 0.0
C1243 C 0.11513 0.59085 0.39956 0.0
H1244 H 0.88498 0.33065 0.40912 0.0
H1245 H 0.85852 0.32532 0.36343 0.0
H1246 H 0.88207 0.48815 0.40933 0.0
H1247 H 0.85449 0.48165 0.36387 0.0
H1248 H 0.87159 0.76633 0.3635 0.0
H1249 H 0.87528 0.61017 0.36329 0.0
H1250 H 0.85498 0.60083 0.41046 0.0
H1251 H 0.85244 0.7586 0.41084 0.0
C1252 C 0.87856 0.36331 0.39913 0.0
C1253 C 0.87211 0.31615 0.38623 0.0
C1254 C 0.87665 0.45331 0.3993 0.0
C1255 C 0.86792 0.49751 0.38665 0.0
C1256 C 0.86165 0.44994 0.37371 0.0
C1257 C 0.86392 0.36027 0.37345 0.0
C1258 C 0.86773 0.73095 0.3738 0.0
C1259 C 0.8617 0.77444 0.3872 0.0
C1260 C 0.86977 0.64126 0.37367 0.0
C1261 C 0.86544 0.59288 0.38686 0.0
C1262 C 0.85886 0.63635 0.40018 0.0
C1263 C 0.85718 0.7265 0.40038 0.0
H1264 H 0.87344 0.19538 0.911 0.0
H1265 H 0.85105 0.19898 0.86432 0.0
H1266 H 0.8774 0.35172 0.91059 0.0
H1267 H 0.85385 0.35654 0.8641 0.0
H1268 H 0.88382 0.6269 0.86347 0.0
H1269 H 0.88097 0.46922 0.8639 0.0
H1270 H 0.85684 0.48046 0.91023 0.0
H1271 H 0.86084 0.63656 0.91002 0.0
C1272 C 0.8689 0.22994 0.90075 0.0
C1273 C 0.86191 0.18529 0.8877 0.0
C1274 C 0.87113 0.31965 0.90051 0.0
C1275 C 0.866 0.36678 0.8873 0.0
C1276 C 0.8584 0.32208 0.87436 0.0
C1277 C 0.85655 0.23202 0.87452 0.0
C1278 C 0.87818 0.59523 0.87377 0.0
C1279 C 0.8727 0.64368 0.88673 0.0
C1280 C 0.87631 0.50512 0.87399 0.0
C1281 C 0.86857 0.46218 0.88708 0.0
C1282 C 0.86325 0.5111 0.90004 0.0
C1283 C 0.86549 0.60074 0.89991 0.0
H1284 H 0.13513 0.33098 0.86336 0.0
H1285 H 0.10912 0.33578 0.90921 0.0
H1286 H 0.13903 0.48729 0.86379 0.0
H1287 H 0.11195 0.49339 0.90939 0.0
H1288 H 0.12161 0.77155 0.86348 0.0
H1289 H 0.11792 0.61531 0.86334 0.0
H1290 H 0.13921 0.60636 0.91029 0.0
H1291 H 0.1418 0.7641 0.91062 0.0
C1292 C 0.12981 0.36577 0.87343 0.0
C1293 C 0.12177 0.32148 0.88624 0.0
C1294 C 0.13201 0.45545 0.87367 0.0
C1295 C 0.12583 0.5029 0.88663 0.0
C1296 C 0.11728 0.45859 0.89934 0.0
C1297 C 0.11542 0.36854 0.89918 0.0
C1298 C 0.12569 0.73623 0.87374 0.0
C1299 C 0.13202 0.77981 0.88706 0.0
C1300 C 0.12363 0.64653 0.87365 0.0
C1301 C 0.12825 0.59827 0.8868 0.0
C1302 C 0.13511 0.64181 0.90005 0.0
C1303 C 0.13683 0.73195 0.90021 0.0
H1304 H 0.87508 0.7667 0.66078 0.0
H1305 H 0.8519 0.75864 0.61426 0.0
H1306 H 0.87856 0.61046 0.66091 0.0
H1307 H 0.85435 0.60083 0.61461 0.0
H1308 H 0.88441 0.32985 0.6152 0.0
H1309 H 0.8817 0.48747 0.61492 0.0
H1310 H 0.8569 0.48312 0.66111 0.0
H1311 H 0.86064 0.32675 0.6616 0.0
C1312 C 0.87034 0.73129 0.65065 0.0
C1313 C 0.8632 0.7747 0.6375 0.0
C1314 C 0.87227 0.64159 0.65074 0.0
C1315 C 0.86674 0.59315 0.63777 0.0
C1316 C 0.85913 0.63649 0.6247 0.0
C1317 C 0.85751 0.72665 0.62454 0.0
C1318 C 0.87863 0.36297 0.62532 0.0
C1319 C 0.87287 0.31639 0.63844 0.0
C1320 C 0.87684 0.45301 0.62512 0.0
C1321 C 0.86899 0.49778 0.63797 0.0
C1322 C 0.86338 0.45084 0.6511 0.0
C1323 C 0.86548 0.36115 0.65138 0.0
H1324 H 0.14371 0.20007 0.61455 0.0
H1325 H 0.12091 0.19177 0.66115 0.0
H1326 H 0.14124 0.35782 0.61492 0.0
H1327 H 0.11734 0.34802 0.66131 0.0
H1328 H 0.13459 0.63244 0.66187 0.0
H1329 H 0.13849 0.47609 0.66147 0.0
H1330 H 0.11404 0.47075 0.6152 0.0
H1331 H 0.11123 0.62831 0.6154 0.0
C1332 C 0.13818 0.23204 0.62485 0.0
C1333 C 0.13261 0.18393 0.63783 0.0
C1334 C 0.13655 0.32218 0.62503 0.0
C1335 C 0.12899 0.36549 0.63812 0.0
C1336 C 0.1236 0.31698 0.65112 0.0
C1337 C 0.12558 0.22727 0.65101 0.0
C1338 C 0.12985 0.59777 0.65166 0.0
C1339 C 0.12255 0.64223 0.63868 0.0
C1340 C 0.13205 0.50809 0.65143 0.0
C1341 C 0.1266 0.46086 0.63829 0.0
C1342 C 0.11879 0.50537 0.6254 0.0
C1343 C 0.11695 0.59539 0.62556 0.0
H1344 H 0.61249 0.83121 0.16135 0.0
H1345 H 0.63282 0.82223 0.11426 0.0
H1346 H 0.61573 -0.0112 0.16101 0.0
H1347 H 0.63725 0.97816 0.1141 0.0
H1348 H 0.62152 0.26389 0.11396 0.0
H1349 H 0.61725 0.10779 0.11433 0.0
H1350 H 0.64292 0.10091 0.16029 0.0
H1351 H 0.64602 0.25846 0.16015 0.0
C1352 C 0.61761 0.86302 0.15094 0.0
C1353 C 0.62224 0.81474 0.13781 0.0
C1354 C 0.61972 0.9531 0.15078 0.0
C1355 C 0.62686 -0.00377 0.13754 0.0
C1356 C 0.63131 0.94748 0.12441 0.0
C1357 C 0.62881 0.85789 0.1245 0.0
C1358 C 0.62647 0.22898 0.12409 0.0
C1359 C 0.63414 0.27316 0.13702 0.0
C1360 C 0.62407 0.13932 0.12431 0.0
C1361 C 0.6297 0.09161 0.13736 0.0
C1362 C 0.63799 0.13579 0.15016 0.0
C1363 C 0.64002 0.22585 0.15004 0.0
H1364 H 0.37529 0.68905 0.11396 0.0
H1365 H 0.35057 0.69439 0.16012 0.0
H1366 H 0.37956 0.84515 0.11436 0.0
H1367 H 0.35368 0.85193 0.16028 0.0
H1368 H 0.38406 0.12167 0.16141 0.0
H1369 H 0.38086 0.96406 0.16105 0.0
H1370 H 0.35955 0.97475 0.11411 0.0
H1371 H 0.36393 0.13068 0.11429 0.0
C1372 C 0.37029 0.72395 0.12409 0.0
C1373 C 0.36256 0.67975 0.137 0.0
C1374 C 0.3727 0.8136 0.12432 0.0
C1375 C 0.36702 0.86127 0.13737 0.0
C1376 C 0.35866 0.81708 0.15015 0.0
C1377 C 0.35662 0.72702 0.15001 0.0
C1378 C 0.37899 0.08986 0.15099 0.0
C1379 C 0.37441 0.13816 0.13786 0.0
C1380 C 0.37691 -0.00022 0.15081 0.0
C1381 C 0.36983 0.95666 0.13756 0.0
C1382 C 0.36544 0.00542 0.12443 0.0
C1383 C 0.3679 0.09501 0.12454 0.0
H1384 H 0.6352 0.13335 0.36354 0.0
H1385 H 0.60894 0.12819 0.4093 0.0
H1386 H 0.63921 0.97702 0.36398 0.0
H1387 H 0.61182 0.97068 0.4095 0.0
H1388 H 0.6415 0.70026 0.41096 0.0
H1389 H 0.63893 0.85802 0.41057 0.0
H1390 H 0.61841 0.84849 0.36346 0.0
H1391 H 0.62214 0.69234 0.36367 0.0
C1392 C 0.62983 0.09844 0.37358 0.0
C1393 C 0.62171 0.14261 0.38637 0.0
C1394 C 0.63209 0.00877 0.37383 0.0
C1395 C 0.62587 0.96124 0.38679 0.0
C1396 C 0.6172 0.00548 0.39946 0.0
C1397 C 0.6153 0.09549 0.3993 0.0
C1398 C 0.63671 0.73232 0.40051 0.0
C1399 C 0.63214 0.68432 0.38734 0.0
C1400 C 0.63501 0.82246 0.40031 0.0
C1401 C 0.62836 0.86587 0.387 0.0
C1402 C 0.62397 0.81744 0.37383 0.0
C1403 C 0.62604 0.72777 0.37396 0.0
H1404 H 0.38373 0.83307 0.36358 0.0
H1405 H 0.35987 0.82494 0.40995 0.0
H1406 H 0.38101 -0.00913 0.36387 0.0
H1407 H 0.35611 -0.01898 0.41001 0.0
H1408 H 0.37385 0.26499 0.41082 0.0
H1409 H 0.3776 0.10863 0.41037 0.0
H1410 H 0.35361 0.10402 0.364 0.0
H1411 H 0.3509 0.26162 0.36424 0.0
C1412 C 0.37793 0.86504 0.37381 0.0
C1413 C 0.37216 0.81698 0.38676 0.0
C1414 C 0.37615 0.95518 0.37394 0.0
C1415 C 0.36828 -0.00154 0.38696 0.0
C1416 C 0.36263 0.94998 0.3999 0.0
C1417 C 0.36472 0.86035 0.39984 0.0
C1418 C 0.36918 0.23055 0.40057 0.0
C1419 C 0.36206 0.27527 0.38757 0.0
C1420 C 0.37129 0.14084 0.40032 0.0
C1421 C 0.36594 0.09382 0.38714 0.0
C1422 C 0.35828 0.13853 0.37423 0.0
C1423 C 0.3565 0.22858 0.37442 0.0
H1424 H 0.35287 0.69858 0.91081 0.0
H1425 H 0.37316 0.69103 0.86368 0.0
H1426 H 0.35542 0.85634 0.91047 0.0
H1427 H 0.37681 0.84727 0.86353 0.0
H1428 H 0.38551 0.12695 0.90936 0.0
H1429 H 0.38267 0.96936 0.90956 0.0
H1430 H 0.35566 0.97523 0.86395 0.0
H1431 H 0.35957 0.13155 0.86351 0.0
C1432 C 0.35786 0.73071 0.9004 0.0
C1433 C 0.36271 0.68281 0.88726 0.0
C1434 C 0.35955 0.82085 0.90023 0.0
C1435 C 0.36643 0.86437 0.88699 0.0
C1436 C 0.37108 0.81607 0.87384 0.0
C1437 C 0.36905 0.72637 0.87394 0.0
C1438 C 0.37923 0.09416 0.89934 0.0
C1439 C 0.3729 0.14115 0.88639 0.0
C1440 C 0.37737 0.00411 0.8995 0.0
C1441 C 0.36883 0.95974 0.8868 0.0
C1442 C 0.36267 0.00713 0.87383 0.0
C1443 C 0.36487 0.0968 0.87358 0.0
H1444 H 0.62092 0.26673 0.86366 0.0
H1445 H 0.64347 0.25884 0.91031 0.0
H1446 H 0.61726 0.11048 0.86355 0.0
H1447 H 0.64091 0.1011 0.90998 0.0
H1448 H 0.61084 0.83054 0.90954 0.0
H1449 H 0.61368 -0.01186 0.9097 0.0
H1450 H 0.63833 -0.01761 0.86347 0.0
H1451 H 0.63439 0.82606 0.8631 0.0
C1452 C 0.62552 0.23131 0.87381 0.0
C1453 C 0.63251 0.27477 0.887 0.0
C1454 C 0.62349 0.1416 0.87374 0.0
C1455 C 0.62877 0.09321 0.88676 0.0
C1456 C 0.63629 0.13665 0.89986 0.0
C1457 C 0.63799 0.22679 0.90001 0.0
C1458 C 0.61661 0.86338 0.89938 0.0
C1459 C 0.62225 0.81643 0.88628 0.0
C1460 C 0.61847 0.95342 0.89951 0.0
C1461 C 0.62635 -0.00217 0.88662 0.0
C1462 C 0.63183 0.95048 0.8735 0.0
C1463 C 0.62961 0.8608 0.8733 0.0
H1464 H 0.36141 0.82401 0.61464 0.0
H1465 H 0.38484 0.83336 0.66108 0.0
H1466 H 0.35713 -0.02019 0.61455 0.0
H1467 H 0.38166 -0.00895 0.66076 0.0
H1468 H 0.35106 0.26076 0.66045 0.0
H1469 H 0.35426 0.10327 0.66068 0.0
H1470 H 0.37756 0.10899 0.61413 0.0
H1471 H 0.37325 0.26509 0.61371 0.0
C1472 C 0.3661 0.85967 0.62475 0.0
C1473 C 0.37353 0.8166 0.63787 0.0
C1474 C 0.3637 0.94923 0.62468 0.0
C1475 C 0.36906 -0.00189 0.63764 0.0
C1476 C 0.377 0.95515 0.65067 0.0
C1477 C 0.37906 0.86504 0.65082 0.0
C1478 C 0.35657 0.22794 0.65023 0.0
C1479 C 0.36177 0.27492 0.63704 0.0
C1480 C 0.35866 0.13792 0.6504 0.0
C1481 C 0.3663 0.09347 0.63745 0.0
C1482 C 0.37126 0.14082 0.62423 0.0
C1483 C 0.36882 0.23044 0.62399 0.0
H1484 H 0.64367 0.69599 0.61438 0.0
H1485 H 0.62199 0.68697 0.66121 0.0
H1486 H 0.64068 0.85369 0.61475 0.0
H1487 H 0.61784 0.84285 0.66138 0.0
H1488 H 0.6334 0.12853 0.66184 0.0
H1489 H 0.63794 0.97248 0.66143 0.0
H1490 H 0.61342 0.96569 0.61518 0.0
H1491 H 0.61004 0.12311 0.61539 0.0
C1492 C 0.63831 0.72776 0.62473 0.0
C1493 C 0.63319 0.67939 0.63778 0.0
C1494 C 0.63635 0.8179 0.62492 0.0
C1495 C 0.6289 0.861 0.63808 0.0
C1496 C 0.62402 0.8122 0.65113 0.0
C1497 C 0.62633 0.72258 0.65102 0.0
C1498 C 0.62874 0.0936 0.65164 0.0
C1499 C 0.62129 0.13772 0.63866 0.0
C1500 C 0.63132 0.00401 0.6514 0.0
C1501 C 0.62608 0.95637 0.63826 0.0
C1502 C 0.61805 0.00052 0.62539 0.0
C1503 C 0.61585 0.0905 0.62555 0.0
loop_
_geom_bond_atom_site_label_1
_geom_bond_atom_site_label_2
_geom_bond_distance
_geom_bond_site_symmetry_2
_ccdc_geom_bond_type
C0 O16 1.251 . S
C0 O18 1.254 . S
N1 C2 1.333 . S
N1 C6 1.307 . S
N1 Zn7 2.020 . S
C2 N1 1.333 . S
C2 C3 1.379 . S
C2 H20 0.952 . S
C3 C2 1.379 . S
C3 C4 1.390 . S
C3 H30 0.949 . S
C4 C3 1.390 . S
C4 C5 1.357 . S
C5 C4 1.357 . S
C5 C6 1.370 . S
C5 H31 0.950 . S
C6 N1 1.307 . S
C6 C5 1.370 . S
C6 H24 0.948 1_545 S
Zn7 N1 2.020 . S
Zn7 O16 2.039 . S
Zn7 O22 2.034 . S
Zn7 O26 2.025 1_545 S
Zn7 O28 2.024 . S
C8 O27 1.246 . S
C8 O28 1.249 . S
N9 C10 1.307 . S
N9 C11 1.333 . S
N9 Zn15 2.020 . S
C10 N9 1.307 . S
C10 C14 1.370 . S
C10 H21 0.948 . S
C11 N9 1.333 . S
C11 C12 1.379 . S
C11 H19 0.952 1_545 S
C12 C11 1.379 . S
C12 C13 1.390 . S
C12 H32 0.949 1_545 S
C13 C12 1.390 . S
C13 C14 1.357 . S
C14 C10 1.370 . S
C14 C13 1.357 . S
C14 H33 0.950 . S
Zn15 N9 2.020 . S
Zn15 O18 2.025 . S
Zn15 O23 2.024 . S
Zn15 O25 2.039 1_545 S
Zn15 O27 2.034 . S
O16 C0 1.251 . S
O16 Zn7 2.039 . S
C17 O22 1.246 . S
C17 O23 1.249 . S
O18 C0 1.254 . S
O18 Zn15 2.025 . S
H19 C11 0.952 1_565 S
H20 C2 0.952 . S
H21 C10 0.948 . S
O22 Zn7 2.034 . S
O22 C17 1.246 . S
O23 Zn15 2.024 . S
O23 C17 1.249 . S
H24 C6 0.948 1_565 S
O25 Zn15 2.039 1_565 S
O25 C29 1.251 . S
O26 Zn7 2.025 1_565 S
O26 C29 1.254 . S
O27 C8 1.246 . S
O27 Zn15 2.034 . S
O28 Zn7 2.024 . S
O28 C8 1.249 . S
C29 O25 1.251 . S
C29 O26 1.254 . S
H30 C3 0.949 . S
H31 C5 0.950 . S
H32 C12 0.949 1_565 S
H33 C14 0.950 . S
C34 O50 1.251 . S
C34 O52 1.254 . S
N35 C36 1.333 . S
N35 C40 1.307 . S
N35 Zn41 2.020 . S
C36 N35 1.333 . S
C36 C37 1.379 . S
C36 H54 0.952 . S
C37 C36 1.379 . S
C37 C38 1.390 . S
C37 H64 0.949 . S
C38 C37 1.390 . S
C38 C39 1.357 . S
C39 C38 1.357 . S
C39 C40 1.370 . S
C39 H65 0.950 . S
C40 N35 1.307 . S
C40 C39 1.370 . S
C40 H58 0.948 1_565 S
Zn41 N35 2.020 . S
Zn41 O50 2.039 . S
Zn41 O56 2.034 . S
Zn41 O60 2.025 1_565 S
Zn41 O62 2.024 . S
C42 O61 1.246 . S
C42 O62 1.249 . S
N43 C44 1.307 . S
N43 C45 1.333 . S
N43 Zn49 2.020 . S
C44 N43 1.307 . S
C44 C48 1.370 . S
C44 H55 0.948 . S
C45 N43 1.333 . S
C45 C46 1.379 . S
C45 H53 0.952 1_565 S
C46 C45 1.379 . S
C46 C47 1.390 . S
C46 H66 0.949 1_565 S
C47 C46 1.390 . S
C47 C48 1.357 . S
C48 C44 1.370 . S
C48 C47 1.357 . S
C48 H67 0.950 . S
Zn49 N43 2.020 . S
Zn49 O52 2.025 . S
Zn49 O57 2.024 . S
Zn49 O59 2.039 1_565 S
Zn49 O61 2.034 . S
O50 C34 1.251 . S
O50 Zn41 2.039 . S
C51 O56 1.246 . S
C51 O57 1.249 . S
O52 C34 1.254 . S
O52 Zn49 2.025 . S
H53 C45 0.952 1_545 S
H54 C36 0.952 . S
H55 C44 0.948 . S
O56 Zn41 2.034 . S
O56 C51 1.246 . S
O57 Zn49 2.024 . S
O57 C51 1.249 . S
H58 C40 0.948 1_545 S
O59 Zn49 2.039 1_545 S
O59 C63 1.251 . S
O60 Zn41 2.025 1_545 S
O60 C63 1.254 . S
O61 C42 1.246 . S
O61 Zn49 2.034 . S
O62 Zn41 2.024 . S
O62 C42 1.249 . S
C63 O59 1.251 . S
C63 O60 1.254 . S
H64 C37 0.949 . S
H65 C39 0.950 . S
H66 C46 0.949 1_545 S
H67 C48 0.950 . S
C68 O84 1.251 . S
C68 O86 1.254 . S
N69 C70 1.333 . S
N69 C74 1.307 . S
N69 Zn75 2.020 . S
C70 N69 1.333 . S
C70 C71 1.379 . S
C70 H88 0.952 . S
C71 C70 1.379 . S
C71 C72 1.390 . S
C71 H98 0.949 . S
C72 C71 1.390 . S
C72 C73 1.357 . S
C73 C72 1.357 . S
C73 C74 1.370 . S
C73 H99 0.950 . S
C74 N69 1.307 . S
C74 C73 1.370 . S
C74 H92 0.948 1_565 S
Zn75 N69 2.020 . S
Zn75 O84 2.039 . S
Zn75 O90 2.034 . S
Zn75 O94 2.025 1_565 S
Zn75 O96 2.024 . S
C76 O95 1.246 . S
C76 O96 1.249 . S
N77 C78 1.307 . S
N77 C79 1.333 . S
N77 Zn83 2.020 . S
C78 N77 1.307 . S
C78 C82 1.370 . S
C78 H89 0.948 . S
C79 N77 1.333 . S
C79 C80 1.379 . S
C79 H87 0.952 1_565 S
C80 C79 1.379 . S
C80 C81 1.390 . S
C80 H100 0.949 1_565 S
C81 C80 1.390 . S
C81 C82 1.357 . S
C82 C78 1.370 . S
C82 C81 1.357 . S
C82 H101 0.950 . S
Zn83 N77 2.020 . S
Zn83 O86 2.025 . S
Zn83 O91 2.024 . S
Zn83 O93 2.039 1_565 S
Zn83 O95 2.034 . S
O84 C68 1.251 . S
O84 Zn75 2.039 . S
C85 O90 1.246 . S
C85 O91 1.249 . S
O86 C68 1.254 . S
O86 Zn83 2.025 . S
H87 C79 0.952 1_545 S
H88 C70 0.952 . S
H89 C78 0.948 . S
O90 Zn75 2.034 . S
O90 C85 1.246 . S
O91 Zn83 2.024 . S
O91 C85 1.249 . S
H92 C74 0.948 1_545 S
O93 Zn83 2.039 1_545 S
O93 C97 1.251 . S
O94 Zn75 2.025 1_545 S
O94 C97 1.254 . S
O95 C76 1.246 . S
O95 Zn83 2.034 . S
O96 Zn75 2.024 . S
O96 C76 1.249 . S
C97 O93 1.251 . S
C97 O94 1.254 . S
H98 C71 0.949 . S
H99 C73 0.950 . S
H100 C80 0.949 1_545 S
H101 C82 0.950 . S
C102 O118 1.251 . S
C102 O120 1.254 . S
N103 C104 1.333 . S
N103 C108 1.307 . S
N103 Zn109 2.020 . S
C104 N103 1.333 . S
C104 C105 1.379 . S
C104 H122 0.952 . S
C105 C104 1.379 . S
C105 C106 1.390 . S
C105 H132 0.949 . S
C106 C105 1.390 . S
C106 C107 1.357 . S
C107 C106 1.357 . S
C107 C108 1.370 . S
C107 H133 0.950 . S
C108 N103 1.307 . S
C108 C107 1.370 . S
C108 H126 0.948 1_545 S
Zn109 N103 2.020 . S
Zn109 O118 2.039 . S
Zn109 O124 2.034 . S
Zn109 O128 2.025 1_545 S
Zn109 O130 2.024 . S
C110 O129 1.246 . S
C110 O130 1.249 . S
N111 C112 1.307 . S
N111 C113 1.333 . S
N111 Zn117 2.020 . S
C112 N111 1.307 . S
C112 C116 1.370 . S
C112 H123 0.948 . S
C113 N111 1.333 . S
C113 C114 1.379 . S
C113 H121 0.952 1_545 S
C114 C113 1.379 . S
C114 C115 1.390 . S
C114 H134 0.949 1_545 S
C115 C114 1.390 . S
C115 C116 1.357 . S
C116 C112 1.370 . S
C116 C115 1.357 . S
C116 H135 0.950 . S
Zn117 N111 2.020 . S
Zn117 O120 2.025 . S
Zn117 O125 2.024 . S
Zn117 O127 2.039 1_545 S
Zn117 O129 2.034 . S
O118 C102 1.251 . S
O118 Zn109 2.039 . S
C119 O124 1.246 . S
C119 O125 1.249 . S
O120 C102 1.254 . S
O120 Zn117 2.025 . S
H121 C113 0.952 1_565 S
H122 C104 0.952 . S
H123 C112 0.948 . S
O124 Zn109 2.034 . S
O124 C119 1.246 . S
O125 Zn117 2.024 . S
O125 C119 1.249 . S
H126 C108 0.948 1_565 S
O127 Zn117 2.039 1_565 S
O127 C131 1.251 . S
O128 Zn109 2.025 1_565 S
O128 C131 1.254 . S
O129 C110 1.246 . S
O129 Zn117 2.034 . S
O130 Zn109 2.024 . S
O130 C110 1.249 . S
C131 O127 1.251 . S
C131 O128 1.254 . S
H132 C105 0.949 . S
H133 C107 0.950 . S
H134 C114 0.949 1_565 S
H135 C116 0.950 . S
C136 O152 1.251 . S
C136 O154 1.254 . S
N137 C138 1.333 . S
N137 C142 1.307 . S
N137 Zn143 2.020 . S
C138 N137 1.333 . S
C138 C139 1.379 . S
C138 H156 0.952 1_565 S
C139 C138 1.379 . S
C139 C140 1.390 . S
C139 H166 0.949 1_565 S
C140 C139 1.390 . S
C140 C141 1.357 . S
C141 C140 1.357 . S
C141 C142 1.370 . S
C141 H167 0.950 . S
C142 N137 1.307 . S
C142 C141 1.370 . S
C142 H160 0.948 . S
Zn143 N137 2.020 . S
Zn143 O152 2.039 1_565 S
Zn143 O158 2.034 . S
Zn143 O162 2.025 . S
Zn143 O164 2.024 . S
C144 O163 1.246 . S
C144 O164 1.249 . S
N145 C146 1.307 . S
N145 C147 1.333 . S
N145 Zn151 2.020 . S
C146 N145 1.307 . S
C146 C150 1.370 . S
C146 H157 0.948 1_565 S
C147 N145 1.333 . S
C147 C148 1.379 . S
C147 H155 0.952 . S
C148 C147 1.379 . S
C148 C149 1.390 . S
C148 H168 0.949 . S
C149 C148 1.390 . S
C149 C150 1.357 . S
C150 C146 1.370 . S
C150 C149 1.357 . S
C150 H169 0.950 . S
Zn151 N145 2.020 . S
Zn151 O154 2.025 1_565 S
Zn151 O159 2.024 . S
Zn151 O161 2.039 . S
Zn151 O163 2.034 . S
O152 C136 1.251 . S
O152 Zn143 2.039 1_545 S
C153 O158 1.246 . S
C153 O159 1.249 . S
O154 C136 1.254 . S
O154 Zn151 2.025 1_545 S
H155 C147 0.952 . S
H156 C138 0.952 1_545 S
H157 C146 0.948 1_545 S
O158 Zn143 2.034 . S
O158 C153 1.246 . S
O159 Zn151 2.024 . S
O159 C153 1.249 . S
H160 C142 0.948 . S
O161 Zn151 2.039 . S
O161 C165 1.251 . S
O162 Zn143 2.025 . S
O162 C165 1.254 . S
O163 C144 1.246 . S
O163 Zn151 2.034 . S
O164 Zn143 2.024 . S
O164 C144 1.249 . S
C165 O161 1.251 . S
C165 O162 1.254 . S
H166 C139 0.949 1_545 S
H167 C141 0.950 . S
H168 C148 0.949 . S
H169 C150 0.950 . S
C170 O186 1.251 . S
C170 O188 1.254 . S
N171 C172 1.333 . S
N171 C176 1.307 . S
N171 Zn177 2.020 . S
C172 N171 1.333 . S
C172 C173 1.379 . S
C172 H190 0.952 1_545 S
C173 C172 1.379 . S
C173 C174 1.390 . S
C173 H200 0.949 1_545 S
C174 C173 1.390 . S
C174 C175 1.357 . S
C175 C174 1.357 . S
C175 C176 1.370 . S
C175 H201 0.950 . S
C176 N171 1.307 . S
C176 C175 1.370 . S
C176 H194 0.948 . S
Zn177 N171 2.020 . S
Zn177 O186 2.039 1_545 S
Zn177 O192 2.034 . S
Zn177 O196 2.025 . S
Zn177 O198 2.024 . S
C178 O197 1.246 . S
C178 O198 1.249 . S
N179 C180 1.307 . S
N179 C181 1.333 . S
N179 Zn185 2.020 . S
C180 N179 1.307 . S
C180 C184 1.370 . S
C180 H191 0.948 1_545 S
C181 N179 1.333 . S
C181 C182 1.379 . S
C181 H189 0.952 . S
C182 C181 1.379 . S
C182 C183 1.390 . S
C182 H202 0.949 . S
C183 C182 1.390 . S
C183 C184 1.357 . S
C184 C180 1.370 . S
C184 C183 1.357 . S
C184 H203 0.950 . S
Zn185 N179 2.020 . S
Zn185 O188 2.025 1_545 S
Zn185 O193 2.024 . S
Zn185 O195 2.039 . S
Zn185 O197 2.034 . S
O186 C170 1.251 . S
O186 Zn177 2.039 1_565 S
C187 O192 1.246 . S
C187 O193 1.249 . S
O188 C170 1.254 . S
O188 Zn185 2.025 1_565 S
H189 C181 0.952 . S
H190 C172 0.952 1_565 S
H191 C180 0.948 1_565 S
O192 Zn177 2.034 . S
O192 C187 1.246 . S
O193 Zn185 2.024 . S
O193 C187 1.249 . S
H194 C176 0.948 . S
O195 Zn185 2.039 . S
O195 C199 1.251 . S
O196 Zn177 2.025 . S
O196 C199 1.254 . S
O197 C178 1.246 . S
O197 Zn185 2.034 . S
O198 Zn177 2.024 . S
O198 C178 1.249 . S
C199 O195 1.251 . S
C199 O196 1.254 . S
H200 C173 0.949 1_565 S
H201 C175 0.950 . S
H202 C182 0.949 . S
H203 C184 0.950 . S
C204 O220 1.251 . S
C204 O222 1.254 . S
N205 C206 1.333 . S
N205 C210 1.307 . S
N205 Zn211 2.020 . S
C206 N205 1.333 . S
C206 C207 1.379 . S
C206 H224 0.952 1_545 S
C207 C206 1.379 . S
C207 C208 1.390 . S
C207 H234 0.949 1_545 S
C208 C207 1.390 . S
C208 C209 1.357 . S
C209 C208 1.357 . S
C209 C210 1.370 . S
C209 H235 0.950 . S
C210 N205 1.307 . S
C210 C209 1.370 . S
C210 H228 0.948 . S
Zn211 N205 2.020 . S
Zn211 O220 2.039 1_545 S
Zn211 O226 2.034 . S
Zn211 O230 2.025 . S
Zn211 O232 2.024 . S
C212 O231 1.246 . S
C212 O232 1.249 . S
N213 C214 1.307 . S
N213 C215 1.333 . S
N213 Zn219 2.020 . S
C214 N213 1.307 . S
C214 C218 1.370 . S
C214 H225 0.948 1_545 S
C215 N213 1.333 . S
C215 C216 1.379 . S
C215 H223 0.952 . S
C216 C215 1.379 . S
C216 C217 1.390 . S
C216 H236 0.949 . S
C217 C216 1.390 . S
C217 C218 1.357 . S
C218 C214 1.370 . S
C218 C217 1.357 . S
C218 H237 0.950 . S
Zn219 N213 2.020 . S
Zn219 O222 2.025 1_545 S
Zn219 O227 2.024 . S
Zn219 O229 2.039 . S
Zn219 O231 2.034 . S
O220 C204 1.251 . S
O220 Zn211 2.039 1_565 S
C221 O226 1.246 . S
C221 O227 1.249 . S
O222 C204 1.254 . S
O222 Zn219 2.025 1_565 S
H223 C215 0.952 . S
H224 C206 0.952 1_565 S
H225 C214 0.948 1_565 S
O226 Zn211 2.034 . S
O226 C221 1.246 . S
O227 Zn219 2.024 . S
O227 C221 1.249 . S
H228 C210 0.948 . S
O229 Zn219 2.039 . S
O229 C233 1.251 . S
O230 Zn211 2.025 . S
O230 C233 1.254 . S
O231 C212 1.246 . S
O231 Zn219 2.034 . S
O232 Zn211 2.024 . S
O232 C212 1.249 . S
C233 O229 1.251 . S
C233 O230 1.254 . S
H234 C207 0.949 1_565 S
H235 C209 0.950 . S
H236 C216 0.949 . S
H237 C218 0.950 . S
C238 O254 1.251 . S
C238 O256 1.254 . S
N239 C240 1.333 . S
N239 C244 1.307 . S
N239 Zn245 2.020 . S
C240 N239 1.333 . S
C240 C241 1.379 . S
C240 H258 0.952 1_565 S
C241 C240 1.379 . S
C241 C242 1.390 . S
C241 H268 0.949 1_565 S
C242 C241 1.390 . S
C242 C243 1.357 . S
C243 C242 1.357 . S
C243 C244 1.370 . S
C243 H269 0.950 . S
C244 N239 1.307 . S
C244 C243 1.370 . S
C244 H262 0.948 . S
Zn245 N239 2.020 . S
Zn245 O254 2.039 1_565 S
Zn245 O260 2.034 . S
Zn245 O264 2.025 . S
Zn245 O266 2.024 . S
C246 O265 1.246 . S
C246 O266 1.249 . S
N247 C248 1.307 . S
N247 C249 1.333 . S
N247 Zn253 2.020 . S
C248 N247 1.307 . S
C248 C252 1.370 . S
C248 H259 0.948 1_565 S
C249 N247 1.333 . S
C249 C250 1.379 . S
C249 H257 0.952 . S
C250 C249 1.379 . S
C250 C251 1.390 . S
C250 H270 0.949 . S
C251 C250 1.390 . S
C251 C252 1.357 . S
C252 C248 1.370 . S
C252 C251 1.357 . S
C252 H271 0.950 . S
Zn253 N247 2.020 . S
Zn253 O256 2.025 1_565 S
Zn253 O261 2.024 . S
Zn253 O263 2.039 . S
Zn253 O265 2.034 . S
O254 C238 1.251 . S
O254 Zn245 2.039 1_545 S
C255 O260 1.246 . S
C255 O261 1.249 . S
O256 C238 1.254 . S
O256 Zn253 2.025 1_545 S
H257 C249 0.952 . S
H258 C240 0.952 1_545 S
H259 C248 0.948 1_545 S
O260 Zn245 2.034 . S
O260 C255 1.246 . S
O261 Zn253 2.024 . S
O261 C255 1.249 . S
H262 C244 0.948 . S
O263 Zn253 2.039 . S
O263 C267 1.251 . S
O264 Zn245 2.025 . S
O264 C267 1.254 . S
O265 C246 1.246 . S
O265 Zn253 2.034 . S
O266 Zn245 2.024 . S
O266 C246 1.249 . S
C267 O263 1.251 . S
C267 O264 1.254 . S
H268 C241 0.949 1_545 S
H269 C243 0.950 . S
H270 C250 0.949 . S
H271 C252 0.950 . S
C272 O288 1.251 . S
C272 O290 1.254 . S
N273 C274 1.333 . S
N273 C278 1.307 . S
N273 Zn279 2.020 . S
C274 N273 1.333 . S
C274 C275 1.379 . S
C274 H292 0.952 . S
C275 C274 1.379 . S
C275 C276 1.390 . S
C275 H302 0.949 . S
C276 C275 1.390 . S
C276 C277 1.357 . S
C277 C276 1.357 . S
C277 C278 1.370 . S
C277 H303 0.950 . S
C278 N273 1.307 . S
C278 C277 1.370 . S
C278 H296 0.948 . S
Zn279 N273 2.020 . S
Zn279 O288 2.039 . S
Zn279 O294 2.034 . S
Zn279 O298 2.025 . S
Zn279 O300 2.024 . S
C280 O299 1.246 . S
C280 O300 1.249 . S
N281 C282 1.307 . S
N281 C283 1.333 . S
N281 Zn287 2.020 . S
C282 N281 1.307 . S
C282 C286 1.370 . S
C282 H293 0.948 . S
C283 N281 1.333 . S
C283 C284 1.379 . S
C283 H291 0.952 . S
C284 C283 1.379 . S
C284 C285 1.390 . S
C284 H304 0.949 . S
C285 C284 1.390 . S
C285 C286 1.357 . S
C286 C282 1.370 . S
C286 C285 1.357 . S
C286 H305 0.950 . S
Zn287 N281 2.020 . S
Zn287 O290 2.025 . S
Zn287 O295 2.024 . S
Zn287 O297 2.039 . S
Zn287 O299 2.034 . S
O288 C272 1.251 . S
O288 Zn279 2.039 . S
C289 O294 1.246 . S
C289 O295 1.249 . S
O290 C272 1.254 . S
O290 Zn287 2.025 . S
H291 C283 0.952 . S
H292 C274 0.952 . S
H293 C282 0.948 . S
O294 Zn279 2.034 . S
O294 C289 1.246 . S
O295 Zn287 2.024 . S
O295 C289 1.249 . S
H296 C278 0.948 . S
O297 Zn287 2.039 . S
O297 C301 1.251 . S
O298 Zn279 2.025 . S
O298 C301 1.254 . S
O299 C280 1.246 . S
O299 Zn287 2.034 . S
O300 Zn279 2.024 . S
O300 C280 1.249 . S
C301 O297 1.251 . S
C301 O298 1.254 . S
H302 C275 0.949 . S
H303 C277 0.950 . S
H304 C284 0.949 . S
H305 C286 0.950 . S
C306 O322 1.251 . S
C306 O324 1.254 . S
N307 C308 1.333 . S
N307 C312 1.307 . S
N307 Zn313 2.020 . S
C308 N307 1.333 . S
C308 C309 1.379 . S
C308 H326 0.952 . S
C309 C308 1.379 . S
C309 C310 1.390 . S
C309 H336 0.949 . S
C310 C309 1.390 . S
C310 C311 1.357 . S
C311 C310 1.357 . S
C311 C312 1.370 . S
C311 H337 0.950 . S
C312 N307 1.307 . S
C312 C311 1.370 . S
C312 H330 0.948 . S
Zn313 N307 2.020 . S
Zn313 O322 2.039 . S
Zn313 O328 2.034 . S
Zn313 O332 2.025 . S
Zn313 O334 2.024 . S
C314 O333 1.246 . S
C314 O334 1.249 . S
N315 C316 1.307 . S
N315 C317 1.333 . S
N315 Zn321 2.020 . S
C316 N315 1.307 . S
C316 C320 1.370 . S
C316 H327 0.948 . S
C317 N315 1.333 . S
C317 C318 1.379 . S
C317 H325 0.952 . S
C318 C317 1.379 . S
C318 C319 1.390 . S
C318 H338 0.949 . S
C319 C318 1.390 . S
C319 C320 1.357 . S
C320 C316 1.370 . S
C320 C319 1.357 . S
C320 H339 0.950 . S
Zn321 N315 2.020 . S
Zn321 O324 2.025 . S
Zn321 O329 2.024 . S
Zn321 O331 2.039 . S
Zn321 O333 2.034 . S
O322 C306 1.251 . S
O322 Zn313 2.039 . S
C323 O328 1.246 . S
C323 O329 1.249 . S
O324 C306 1.254 . S
O324 Zn321 2.025 . S
H325 C317 0.952 . S
H326 C308 0.952 . S
H327 C316 0.948 . S
O328 Zn313 2.034 . S
O328 C323 1.246 . S
O329 Zn321 2.024 . S
O329 C323 1.249 . S
H330 C312 0.948 . S
O331 Zn321 2.039 . S
O331 C335 1.251 . S
O332 Zn313 2.025 . S
O332 C335 1.254 . S
O333 C314 1.246 . S
O333 Zn321 2.034 . S
O334 Zn313 2.024 . S
O334 C314 1.249 . S
C335 O331 1.251 . S
C335 O332 1.254 . S
H336 C309 0.949 . S
H337 C311 0.950 . S
H338 C318 0.949 . S
H339 C320 0.950 . S
C340 O356 1.251 . S
C340 O358 1.254 . S
N341 C342 1.333 . S
N341 C346 1.307 . S
N341 Zn347 2.020 . S
C342 N341 1.333 . S
C342 C343 1.379 . S
C342 H360 0.952 . S
C343 C342 1.379 . S
C343 C344 1.390 . S
C343 H370 0.949 . S
C344 C343 1.390 . S
C344 C345 1.357 . S
C345 C344 1.357 . S
C345 C346 1.370 . S
C345 H371 0.950 . S
C346 N341 1.307 . S
C346 C345 1.370 . S
C346 H364 0.948 . S
Zn347 N341 2.020 . S
Zn347 O356 2.039 . S
Zn347 O362 2.034 . S
Zn347 O366 2.025 . S
Zn347 O368 2.024 . S
C348 O367 1.246 . S
C348 O368 1.249 . S
N349 C350 1.307 . S
N349 C351 1.333 . S
N349 Zn355 2.020 . S
C350 N349 1.307 . S
C350 C354 1.370 . S
C350 H361 0.948 . S
C351 N349 1.333 . S
C351 C352 1.379 . S
C351 H359 0.952 . S
C352 C351 1.379 . S
C352 C353 1.390 . S
C352 H372 0.949 . S
C353 C352 1.390 . S
C353 C354 1.357 . S
C354 C350 1.370 . S
C354 C353 1.357 . S
C354 H373 0.950 . S
Zn355 N349 2.020 . S
Zn355 O358 2.025 . S
Zn355 O363 2.024 . S
Zn355 O365 2.039 . S
Zn355 O367 2.034 . S
O356 C340 1.251 . S
O356 Zn347 2.039 . S
C357 O362 1.246 . S
C357 O363 1.249 . S
O358 C340 1.254 . S
O358 Zn355 2.025 . S
H359 C351 0.952 . S
H360 C342 0.952 . S
H361 C350 0.948 . S
O362 Zn347 2.034 . S
O362 C357 1.246 . S
O363 Zn355 2.024 . S
O363 C357 1.249 . S
H364 C346 0.948 . S
O365 Zn355 2.039 . S
O365 C369 1.251 . S
O366 Zn347 2.025 . S
O366 C369 1.254 . S
O367 C348 1.246 . S
O367 Zn355 2.034 . S
O368 Zn347 2.024 . S
O368 C348 1.249 . S
C369 O365 1.251 . S
C369 O366 1.254 . S
H370 C343 0.949 . S
H371 C345 0.950 . S
H372 C352 0.949 . S
H373 C354 0.950 . S
C374 O390 1.251 . S
C374 O392 1.254 . S
N375 C376 1.333 . S
N375 C380 1.307 . S
N375 Zn381 2.020 . S
C376 N375 1.333 . S
C376 C377 1.379 . S
C376 H394 0.952 . S
C377 C376 1.379 . S
C377 C378 1.390 . S
C377 H404 0.949 . S
C378 C377 1.390 . S
C378 C379 1.357 . S
C379 C378 1.357 . S
C379 C380 1.370 . S
C379 H405 0.950 . S
C380 N375 1.307 . S
C380 C379 1.370 . S
C380 H398 0.948 . S
Zn381 N375 2.020 . S
Zn381 O390 2.039 . S
Zn381 O396 2.034 . S
Zn381 O400 2.025 . S
Zn381 O402 2.024 . S
C382 O401 1.246 . S
C382 O402 1.249 . S
N383 C384 1.307 . S
N383 C385 1.333 . S
N383 Zn389 2.020 . S
C384 N383 1.307 . S
C384 C388 1.370 . S
C384 H395 0.948 . S
C385 N383 1.333 . S
C385 C386 1.379 . S
C385 H393 0.952 . S
C386 C385 1.379 . S
C386 C387 1.390 . S
C386 H406 0.949 . S
C387 C386 1.390 . S
C387 C388 1.357 . S
C388 C384 1.370 . S
C388 C387 1.357 . S
C388 H407 0.950 . S
Zn389 N383 2.020 . S
Zn389 O392 2.025 . S
Zn389 O397 2.024 . S
Zn389 O399 2.039 . S
Zn389 O401 2.034 . S
O390 C374 1.251 . S
O390 Zn381 2.039 . S
C391 O396 1.246 . S
C391 O397 1.249 . S
O392 C374 1.254 . S
O392 Zn389 2.025 . S
H393 C385 0.952 . S
H394 C376 0.952 . S
H395 C384 0.948 . S
O396 Zn381 2.034 . S
O396 C391 1.246 . S
O397 Zn389 2.024 . S
O397 C391 1.249 . S
H398 C380 0.948 . S
O399 Zn389 2.039 . S
O399 C403 1.251 . S
O400 Zn381 2.025 . S
O400 C403 1.254 . S
O401 C382 1.246 . S
O401 Zn389 2.034 . S
O402 Zn381 2.024 . S
O402 C382 1.249 . S
C403 O399 1.251 . S
C403 O400 1.254 . S
H404 C377 0.949 . S
H405 C379 0.950 . S
H406 C386 0.949 . S
H407 C388 0.950 . S
C408 O424 1.251 . S
C408 O426 1.254 . S
N409 C410 1.333 . S
N409 C414 1.307 . S
N409 Zn415 2.020 . S
C410 N409 1.333 . S
C410 C411 1.379 . S
C410 H428 0.952 . S
C411 C410 1.379 . S
C411 C412 1.390 . S
C411 H438 0.949 . S
C412 C411 1.390 . S
C412 C413 1.357 . S
C413 C412 1.357 . S
C413 C414 1.370 . S
C413 H439 0.950 . S
C414 N409 1.307 . S
C414 C413 1.370 . S
C414 H432 0.948 . S
Zn415 N409 2.020 . S
Zn415 O424 2.039 . S
Zn415 O430 2.034 . S
Zn415 O434 2.025 . S
Zn415 O436 2.024 . S
C416 O435 1.246 . S
C416 O436 1.249 . S
N417 C418 1.307 . S
N417 C419 1.333 . S
N417 Zn423 2.020 . S
C418 N417 1.307 . S
C418 C422 1.370 . S
C418 H429 0.948 . S
C419 N417 1.333 . S
C419 C420 1.379 . S
C419 H427 0.952 . S
C420 C419 1.379 . S
C420 C421 1.390 . S
C420 H440 0.949 . S
C421 C420 1.390 . S
C421 C422 1.357 . S
C422 C418 1.370 . S
C422 C421 1.357 . S
C422 H441 0.950 . S
Zn423 N417 2.020 . S
Zn423 O426 2.025 . S
Zn423 O431 2.024 . S
Zn423 O433 2.039 . S
Zn423 O435 2.034 . S
O424 C408 1.251 . S
O424 Zn415 2.039 . S
C425 O430 1.246 . S
C425 O431 1.249 . S
O426 C408 1.254 . S
O426 Zn423 2.025 . S
H427 C419 0.952 . S
H428 C410 0.952 . S
H429 C418 0.948 . S
O430 Zn415 2.034 . S
O430 C425 1.246 . S
O431 Zn423 2.024 . S
O431 C425 1.249 . S
H432 C414 0.948 . S
O433 Zn423 2.039 . S
O433 C437 1.251 . S
O434 Zn415 2.025 . S
O434 C437 1.254 . S
O435 C416 1.246 . S
O435 Zn423 2.034 . S
O436 Zn415 2.024 . S
O436 C416 1.249 . S
C437 O433 1.251 . S
C437 O434 1.254 . S
H438 C411 0.949 . S
H439 C413 0.950 . S
H440 C420 0.949 . S
H441 C422 0.950 . S
C442 O458 1.251 . S
C442 O460 1.254 . S
N443 C444 1.333 . S
N443 C448 1.307 . S
N443 Zn449 2.020 . S
C444 N443 1.333 . S
C444 C445 1.379 . S
C444 H462 0.952 . S
C445 C444 1.379 . S
C445 C446 1.390 . S
C445 H472 0.949 . S
C446 C445 1.390 . S
C446 C447 1.357 . S
C447 C446 1.357 . S
C447 C448 1.370 . S
C447 H473 0.950 . S
C448 N443 1.307 . S
C448 C447 1.370 . S
C448 H466 0.948 . S
Zn449 N443 2.020 . S
Zn449 O458 2.039 . S
Zn449 O464 2.034 . S
Zn449 O468 2.025 . S
Zn449 O470 2.024 . S
C450 O469 1.246 . S
C450 O470 1.249 . S
N451 C452 1.307 . S
N451 C453 1.333 . S
N451 Zn457 2.020 . S
C452 N451 1.307 . S
C452 C456 1.370 . S
C452 H463 0.948 . S
C453 N451 1.333 . S
C453 C454 1.379 . S
C453 H461 0.952 . S
C454 C453 1.379 . S
C454 C455 1.390 . S
C454 H474 0.949 . S
C455 C454 1.390 . S
C455 C456 1.357 . S
C456 C452 1.370 . S
C456 C455 1.357 . S
C456 H475 0.950 . S
Zn457 N451 2.020 . S
Zn457 O460 2.025 . S
Zn457 O465 2.024 . S
Zn457 O467 2.039 . S
Zn457 O469 2.034 . S
O458 C442 1.251 . S
O458 Zn449 2.039 . S
C459 O464 1.246 . S
C459 O465 1.249 . S
O460 C442 1.254 . S
O460 Zn457 2.025 . S
H461 C453 0.952 . S
H462 C444 0.952 . S
H463 C452 0.948 . S
O464 Zn449 2.034 . S
O464 C459 1.246 . S
O465 Zn457 2.024 . S
O465 C459 1.249 . S
H466 C448 0.948 . S
O467 Zn457 2.039 . S
O467 C471 1.251 . S
O468 Zn449 2.025 . S
O468 C471 1.254 . S
O469 C450 1.246 . S
O469 Zn457 2.034 . S
O470 Zn449 2.024 . S
O470 C450 1.249 . S
C471 O467 1.251 . S
C471 O468 1.254 . S
H472 C445 0.949 . S
H473 C447 0.950 . S
H474 C454 0.949 . S
H475 C456 0.950 . S
C476 O492 1.251 . S
C476 O494 1.254 . S
N477 C478 1.333 . S
N477 C482 1.307 . S
N477 Zn483 2.020 . S
C478 N477 1.333 . S
C478 C479 1.379 . S
C478 H496 0.952 . S
C479 C478 1.379 . S
C479 C480 1.390 . S
C479 H506 0.949 . S
C480 C479 1.390 . S
C480 C481 1.357 . S
C481 C480 1.357 . S
C481 C482 1.370 . S
C481 H507 0.950 . S
C482 N477 1.307 . S
C482 C481 1.370 . S
C482 H500 0.948 . S
Zn483 N477 2.020 . S
Zn483 O492 2.039 . S
Zn483 O498 2.034 . S
Zn483 O502 2.025 . S
Zn483 O504 2.024 . S
C484 O503 1.246 . S
C484 O504 1.249 . S
N485 C486 1.307 . S
N485 C487 1.333 . S
N485 Zn491 2.020 . S
C486 N485 1.307 . S
C486 C490 1.370 . S
C486 H497 0.948 . S
C487 N485 1.333 . S
C487 C488 1.379 . S
C487 H495 0.952 . S
C488 C487 1.379 . S
C488 C489 1.390 . S
C488 H508 0.949 . S
C489 C488 1.390 . S
C489 C490 1.357 . S
C490 C486 1.370 . S
C490 C489 1.357 . S
C490 H509 0.950 . S
Zn491 N485 2.020 . S
Zn491 O494 2.025 . S
Zn491 O499 2.024 . S
Zn491 O501 2.039 . S
Zn491 O503 2.034 . S
O492 C476 1.251 . S
O492 Zn483 2.039 . S
C493 O498 1.246 . S
C493 O499 1.249 . S
O494 C476 1.254 . S
O494 Zn491 2.025 . S
H495 C487 0.952 . S
H496 C478 0.952 . S
H497 C486 0.948 . S
O498 Zn483 2.034 . S
O498 C493 1.246 . S
O499 Zn491 2.024 . S
O499 C493 1.249 . S
H500 C482 0.948 . S
O501 Zn491 2.039 . S
O501 C505 1.251 . S
O502 Zn483 2.025 . S
O502 C505 1.254 . S
O503 C484 1.246 . S
O503 Zn491 2.034 . S
O504 Zn483 2.024 . S
O504 C484 1.249 . S
C505 O501 1.251 . S
C505 O502 1.254 . S
H506 C479 0.949 . S
H507 C481 0.950 . S
H508 C488 0.949 . S
H509 C490 0.950 . S
C510 O526 1.251 . S
C510 O528 1.254 . S
N511 C512 1.333 . S
N511 C516 1.307 . S
N511 Zn517 2.020 . S
C512 N511 1.333 . S
C512 C513 1.379 . S
C512 H530 0.952 . S
C513 C512 1.379 . S
C513 C514 1.390 . S
C513 H540 0.949 . S
C514 C513 1.390 . S
C514 C515 1.357 . S
C515 C514 1.357 . S
C515 C516 1.370 . S
C515 H541 0.950 . S
C516 N511 1.307 . S
C516 C515 1.370 . S
C516 H534 0.948 . S
Zn517 N511 2.020 . S
Zn517 O526 2.039 . S
Zn517 O532 2.034 . S
Zn517 O536 2.025 . S
Zn517 O538 2.024 . S
C518 O537 1.246 . S
C518 O538 1.249 . S
N519 C520 1.307 . S
N519 C521 1.333 . S
N519 Zn525 2.020 . S
C520 N519 1.307 . S
C520 C524 1.370 . S
C520 H531 0.948 . S
C521 N519 1.333 . S
C521 C522 1.379 . S
C521 H529 0.952 . S
C522 C521 1.379 . S
C522 C523 1.390 . S
C522 H542 0.949 . S
C523 C522 1.390 . S
C523 C524 1.357 . S
C524 C520 1.370 . S
C524 C523 1.357 . S
C524 H543 0.950 . S
Zn525 N519 2.020 . S
Zn525 O528 2.025 . S
Zn525 O533 2.024 . S
Zn525 O535 2.039 . S
Zn525 O537 2.034 . S
O526 C510 1.251 . S
O526 Zn517 2.039 . S
C527 O532 1.246 . S
C527 O533 1.249 . S
O528 C510 1.254 . S
O528 Zn525 2.025 . S
H529 C521 0.952 . S
H530 C512 0.952 . S
H531 C520 0.948 . S
O532 Zn517 2.034 . S
O532 C527 1.246 . S
O533 Zn525 2.024 . S
O533 C527 1.249 . S
H534 C516 0.948 . S
O535 Zn525 2.039 . S
O535 C539 1.251 . S
O536 Zn517 2.025 . S
O536 C539 1.254 . S
O537 C518 1.246 . S
O537 Zn525 2.034 . S
O538 Zn517 2.024 . S
O538 C518 1.249 . S
C539 O535 1.251 . S
C539 O536 1.254 . S
H540 C513 0.949 . S
H541 C515 0.950 . S
H542 C522 0.949 . S
H543 C524 0.950 . S
H544 C552 0.950 . S
H545 C557 0.950 . S
H546 C554 0.950 . S
H547 C556 0.950 . S
H548 C558 0.950 . S
H549 C560 0.950 . S
H550 C562 0.950 . S
H551 C563 0.950 . S
C552 H544 0.950 . S
C552 C553 1.386 . S
C552 C554 1.391 . S
C553 C552 1.386 . S
C553 C557 1.393 . S
C554 H546 0.950 . S
C554 C552 1.391 . S
C554 C555 1.400 . S
C555 C554 1.400 . S
C555 C556 1.398 . S
C555 C561 1.491 . S
C556 H547 0.950 . S
C556 C555 1.398 . S
C556 C557 1.391 . S
C557 H545 0.950 . S
C557 C553 1.393 . S
C557 C556 1.391 . S
C558 H548 0.950 . S
C558 C559 1.386 . S
C558 C560 1.391 . S
C559 C558 1.386 . S
C559 C563 1.393 . S
C560 H549 0.950 . S
C560 C558 1.391 . S
C560 C561 1.400 . S
C561 C555 1.491 . S
C561 C560 1.400 . S
C561 C562 1.398 . S
C562 H550 0.950 . S
C562 C561 1.398 . S
C562 C563 1.391 . S
C563 H551 0.950 . S
C563 C559 1.393 . S
C563 C562 1.391 . S
H564 C572 0.950 . S
H565 C577 0.950 . S
H566 C574 0.950 . S
H567 C576 0.950 . S
H568 C578 0.950 . S
H569 C580 0.950 . S
H570 C582 0.950 . S
H571 C583 0.950 . S
C572 H564 0.950 . S
C572 C573 1.386 . S
C572 C574 1.391 . S
C573 C572 1.386 . S
C573 C577 1.393 . S
C574 H566 0.950 . S
C574 C572 1.391 . S
C574 C575 1.400 . S
C575 C574 1.400 . S
C575 C576 1.398 . S
C575 C581 1.491 . S
C576 H567 0.950 . S
C576 C575 1.398 . S
C576 C577 1.391 . S
C577 H565 0.950 . S
C577 C573 1.393 . S
C577 C576 1.391 . S
C578 H568 0.950 . S
C578 C579 1.386 . S
C578 C580 1.391 . S
C579 C578 1.386 . S
C579 C583 1.393 . S
C580 H569 0.950 . S
C580 C578 1.391 . S
C580 C581 1.400 . S
C581 C575 1.491 . S
C581 C580 1.400 . S
C581 C582 1.398 . S
C582 H570 0.950 . S
C582 C581 1.398 . S
C582 C583 1.391 . S
C583 H571 0.950 . S
C583 C579 1.393 . S
C583 C582 1.391 . S
H584 C592 0.950 . S
H585 C597 0.950 . S
H586 C594 0.950 . S
H587 C596 0.950 . S
H588 C598 0.950 . S
H589 C600 0.950 . S
H590 C602 0.950 . S
H591 C603 0.950 . S
C592 H584 0.950 . S
C592 C593 1.386 . S
C592 C594 1.391 . S
C593 C592 1.386 . S
C593 C597 1.393 . S
C594 H586 0.950 . S
C594 C592 1.391 . S
C594 C595 1.400 . S
C595 C594 1.400 . S
C595 C596 1.398 . S
C595 C601 1.491 . S
C596 H587 0.950 . S
C596 C595 1.398 . S
C596 C597 1.391 . S
C597 H585 0.950 . S
C597 C593 1.393 . S
C597 C596 1.391 . S
C598 H588 0.950 . S
C598 C599 1.386 . S
C598 C600 1.391 . S
C599 C598 1.386 . S
C599 C603 1.393 . S
C600 H589 0.950 . S
C600 C598 1.391 . S
C600 C601 1.400 . S
C601 C595 1.491 . S
C601 C600 1.400 . S
C601 C602 1.398 . S
C602 H590 0.950 . S
C602 C601 1.398 . S
C602 C603 1.391 . S
C603 H591 0.950 . S
C603 C599 1.393 . S
C603 C602 1.391 . S
H604 C612 0.950 . S
H605 C617 0.950 . S
H606 C614 0.950 . S
H607 C616 0.950 . S
H608 C618 0.950 . S
H609 C620 0.950 . S
H610 C622 0.950 . S
H611 C623 0.950 . S
C612 H604 0.950 . S
C612 C613 1.386 . S
C612 C614 1.391 . S
C613 C612 1.386 . S
C613 C617 1.393 . S
C614 H606 0.950 . S
C614 C612 1.391 . S
C614 C615 1.400 . S
C615 C614 1.400 . S
C615 C616 1.398 . S
C615 C621 1.491 . S
C616 H607 0.950 . S
C616 C615 1.398 . S
C616 C617 1.391 . S
C617 H605 0.950 . S
C617 C613 1.393 . S
C617 C616 1.391 . S
C618 H608 0.950 . S
C618 C619 1.386 . S
C618 C620 1.391 . S
C619 C618 1.386 . S
C619 C623 1.393 . S
C620 H609 0.950 . S
C620 C618 1.391 . S
C620 C621 1.400 . S
C621 C615 1.491 . S
C621 C620 1.400 . S
C621 C622 1.398 . S
C622 H610 0.950 . S
C622 C621 1.398 . S
C622 C623 1.391 . S
C623 H611 0.950 . S
C623 C619 1.393 . S
C623 C622 1.391 . S
H624 C632 0.950 . S
H625 C637 0.950 . S
H626 C634 0.950 . S
H627 C636 0.950 . S
H628 C638 0.950 . S
H629 C640 0.950 . S
H630 C642 0.950 . S
H631 C643 0.950 . S
C632 H624 0.950 . S
C632 C633 1.386 . S
C632 C634 1.391 . S
C633 C632 1.386 . S
C633 C637 1.393 . S
C634 H626 0.950 . S
C634 C632 1.391 . S
C634 C635 1.400 . S
C635 C634 1.400 . S
C635 C636 1.398 . S
C635 C641 1.491 . S
C636 H627 0.950 . S
C636 C635 1.398 . S
C636 C637 1.391 . S
C637 H625 0.950 . S
C637 C633 1.393 . S
C637 C636 1.391 . S
C638 H628 0.950 . S
C638 C639 1.386 . S
C638 C640 1.391 . S
C639 C638 1.386 . S
C639 C643 1.393 . S
C640 H629 0.950 . S
C640 C638 1.391 . S
C640 C641 1.400 . S
C641 C635 1.491 . S
C641 C640 1.400 . S
C641 C642 1.398 . S
C642 H630 0.950 . S
C642 C641 1.398 . S
C642 C643 1.391 . S
C643 H631 0.950 . S
C643 C639 1.393 . S
C643 C642 1.391 . S
H644 C652 0.950 . S
H645 C657 0.950 . S
H646 C654 0.950 . S
H647 C656 0.950 . S
H648 C658 0.950 . S
H649 C660 0.950 . S
H650 C662 0.950 . S
H651 C663 0.950 . S
C652 H644 0.950 . S
C652 C653 1.386 . S
C652 C654 1.391 . S
C653 C652 1.386 . S
C653 C657 1.393 . S
C654 H646 0.950 . S
C654 C652 1.391 . S
C654 C655 1.400 . S
C655 C654 1.400 . S
C655 C656 1.398 . S
C655 C661 1.491 . S
C656 H647 0.950 . S
C656 C655 1.398 . S
C656 C657 1.391 . S
C657 H645 0.950 . S
C657 C653 1.393 . S
C657 C656 1.391 . S
C658 H648 0.950 . S
C658 C659 1.386 . S
C658 C660 1.391 . S
C659 C658 1.386 . S
C659 C663 1.393 . S
C660 H649 0.950 . S
C660 C658 1.391 . S
C660 C661 1.400 . S
C661 C655 1.491 . S
C661 C660 1.400 . S
C661 C662 1.398 . S
C662 H650 0.950 . S
C662 C661 1.398 . S
C662 C663 1.391 . S
C663 H651 0.950 . S
C663 C659 1.393 . S
C663 C662 1.391 . S
H664 C672 0.950 . S
H665 C677 0.950 . S
H666 C674 0.950 . S
H667 C676 0.950 . S
H668 C678 0.950 . S
H669 C680 0.950 . S
H670 C682 0.950 . S
H671 C683 0.950 . S
C672 H664 0.950 . S
C672 C673 1.386 . S
C672 C674 1.391 . S
C673 C672 1.386 . S
C673 C677 1.393 . S
C674 H666 0.950 . S
C674 C672 1.391 . S
C674 C675 1.400 . S
C675 C674 1.400 . S
C675 C676 1.398 . S
C675 C681 1.491 . S
C676 H667 0.950 . S
C676 C675 1.398 . S
C676 C677 1.391 . S
C677 H665 0.950 . S
C677 C673 1.393 . S
C677 C676 1.391 . S
C678 H668 0.950 . S
C678 C679 1.386 . S
C678 C680 1.391 . S
C679 C678 1.386 . S
C679 C683 1.393 . S
C680 H669 0.950 . S
C680 C678 1.391 . S
C680 C681 1.400 . S
C681 C675 1.491 . S
C681 C680 1.400 . S
C681 C682 1.398 . S
C682 H670 0.950 . S
C682 C681 1.398 . S
C682 C683 1.391 . S
C683 H671 0.950 . S
C683 C679 1.393 . S
C683 C682 1.391 . S
H684 C692 0.950 . S
H685 C697 0.950 . S
H686 C694 0.950 . S
H687 C696 0.950 . S
H688 C698 0.950 . S
H689 C700 0.950 . S
H690 C702 0.950 . S
H691 C703 0.950 . S
C692 H684 0.950 . S
C692 C693 1.386 . S
C692 C694 1.391 . S
C693 C692 1.386 . S
C693 C697 1.393 . S
C694 H686 0.950 . S
C694 C692 1.391 . S
C694 C695 1.400 . S
C695 C694 1.400 . S
C695 C696 1.398 . S
C695 C701 1.491 . S
C696 H687 0.950 . S
C696 C695 1.398 . S
C696 C697 1.391 . S
C697 H685 0.950 . S
C697 C693 1.393 . S
C697 C696 1.391 . S
C698 H688 0.950 . S
C698 C699 1.386 . S
C698 C700 1.391 . S
C699 C698 1.386 . S
C699 C703 1.393 . S
C700 H689 0.950 . S
C700 C698 1.391 . S
C700 C701 1.400 . S
C701 C695 1.491 . S
C701 C700 1.400 . S
C701 C702 1.398 . S
C702 H690 0.950 . S
C702 C701 1.398 . S
C702 C703 1.391 . S
C703 H691 0.950 . S
C703 C699 1.393 . S
C703 C702 1.391 . S
H704 C712 0.950 1_545 S
H705 C717 0.950 . S
H706 C714 0.950 . S
H707 C716 0.950 . S
H708 C718 0.950 1_565 S
H709 C720 0.950 . S
H710 C722 0.950 . S
H711 C723 0.950 . S
C712 H704 0.950 1_565 S
C712 C713 1.386 . S
C712 C714 1.391 1_565 S
C713 C712 1.386 . S
C713 C717 1.393 . S
C714 H706 0.950 . S
C714 C712 1.391 1_545 S
C714 C715 1.400 1_545 S
C715 C714 1.400 1_565 S
C715 C716 1.398 . S
C715 C721 1.491 1_565 S
C716 H707 0.950 . S
C716 C715 1.398 . S
C716 C717 1.391 . S
C717 H705 0.950 . S
C717 C713 1.393 . S
C717 C716 1.391 . S
C718 H708 0.950 1_545 S
C718 C719 1.386 . S
C718 C720 1.391 1_545 S
C719 C718 1.386 . S
C719 C723 1.393 . S
C720 H709 0.950 . S
C720 C718 1.391 1_565 S
C720 C721 1.400 1_565 S
C721 C715 1.491 1_545 S
C721 C720 1.400 1_545 S
C721 C722 1.398 . S
C722 H710 0.950 . S
C722 C721 1.398 . S
C722 C723 1.391 . S
C723 H711 0.950 . S
C723 C719 1.393 . S
C723 C722 1.391 . S
H724 C732 0.950 . S
H725 C737 0.950 . S
H726 C734 0.950 . S
H727 C736 0.950 . S
H728 C738 0.950 . S
H729 C740 0.950 . S
H730 C742 0.950 . S
H731 C743 0.950 . S
C732 H724 0.950 . S
C732 C733 1.386 . S
C732 C734 1.391 . S
C733 C732 1.386 . S
C733 C737 1.393 1_545 S
C734 H726 0.950 . S
C734 C732 1.391 . S
C734 C735 1.400 . S
C735 C734 1.400 . S
C735 C736 1.398 1_545 S
C735 C741 1.491 1_545 S
C736 H727 0.950 . S
C736 C735 1.398 1_565 S
C736 C737 1.391 . S
C737 H725 0.950 . S
C737 C733 1.393 1_565 S
C737 C736 1.391 . S
C738 H728 0.950 . S
C738 C739 1.386 . S
C738 C740 1.391 . S
C739 C738 1.386 . S
C739 C743 1.393 1_565 S
C740 H729 0.950 . S
C740 C738 1.391 . S
C740 C741 1.400 . S
C741 C735 1.491 1_565 S
C741 C740 1.400 . S
C741 C742 1.398 1_565 S
C742 H730 0.950 . S
C742 C741 1.398 1_545 S
C742 C743 1.391 . S
C743 H731 0.950 . S
C743 C739 1.393 1_545 S
C743 C742 1.391 . S
H744 C752 0.950 . S
H745 C757 0.950 . S
H746 C754 0.950 . S
H747 C756 0.950 . S
H748 C758 0.950 . S
H749 C760 0.950 . S
H750 C762 0.950 . S
H751 C763 0.950 . S
C752 H744 0.950 . S
C752 C753 1.386 . S
C752 C754 1.391 . S
C753 C752 1.386 . S
C753 C757 1.393 1_545 S
C754 H746 0.950 . S
C754 C752 1.391 . S
C754 C755 1.400 . S
C755 C754 1.400 . S
C755 C756 1.398 1_545 S
C755 C761 1.491 1_545 S
C756 H747 0.950 . S
C756 C755 1.398 1_565 S
C756 C757 1.391 . S
C757 H745 0.950 . S
C757 C753 1.393 1_565 S
C757 C756 1.391 . S
C758 H748 0.950 . S
C758 C759 1.386 . S
C758 C760 1.391 . S
C759 C758 1.386 . S
C759 C763 1.393 1_565 S
C760 H749 0.950 . S
C760 C758 1.391 . S
C760 C761 1.400 . S
C761 C755 1.491 1_565 S
C761 C760 1.400 . S
C761 C762 1.398 1_565 S
C762 H750 0.950 . S
C762 C761 1.398 1_545 S
C762 C763 1.391 . S
C763 H751 0.950 . S
C763 C759 1.393 1_545 S
C763 C762 1.391 . S
H764 C772 0.950 . S
H765 C777 0.950 . S
H766 C774 0.950 . S
H767 C776 0.950 . S
H768 C778 0.950 . S
H769 C780 0.950 . S
H770 C782 0.950 . S
H771 C783 0.950 . S
C772 H764 0.950 . S
C772 C773 1.386 . S
C772 C774 1.391 . S
C773 C772 1.386 . S
C773 C777 1.393 1_545 S
C774 H766 0.950 . S
C774 C772 1.391 . S
C774 C775 1.400 . S
C775 C774 1.400 . S
C775 C776 1.398 1_545 S
C775 C781 1.491 1_545 S
C776 H767 0.950 . S
C776 C775 1.398 1_565 S
C776 C777 1.391 . S
C777 H765 0.950 . S
C777 C773 1.393 1_565 S
C777 C776 1.391 . S
C778 H768 0.950 . S
C778 C779 1.386 . S
C778 C780 1.391 . S
C779 C778 1.386 . S
C779 C783 1.393 1_565 S
C780 H769 0.950 . S
C780 C778 1.391 . S
C780 C781 1.400 . S
C781 C775 1.491 1_565 S
C781 C780 1.400 . S
C781 C782 1.398 1_565 S
C782 H770 0.950 . S
C782 C781 1.398 1_545 S
C782 C783 1.391 . S
C783 H771 0.950 . S
C783 C779 1.393 1_545 S
C783 C782 1.391 . S
H784 C792 0.950 . S
H785 C797 0.950 . S
H786 C794 0.950 . S
H787 C796 0.950 . S
H788 C798 0.950 . S
H789 C800 0.950 . S
H790 C802 0.950 . S
H791 C803 0.950 . S
C792 H784 0.950 . S
C792 C793 1.386 . S
C792 C794 1.391 . S
C793 C792 1.386 . S
C793 C797 1.393 . S
C794 H786 0.950 . S
C794 C792 1.391 . S
C794 C795 1.400 . S
C795 C794 1.400 . S
C795 C796 1.398 . S
C795 C801 1.491 . S
C796 H787 0.950 . S
C796 C795 1.398 . S
C796 C797 1.391 . S
C797 H785 0.950 . S
C797 C793 1.393 . S
C797 C796 1.391 . S
C798 H788 0.950 . S
C798 C799 1.386 . S
C798 C800 1.391 . S
C799 C798 1.386 . S
C799 C803 1.393 . S
C800 H789 0.950 . S
C800 C798 1.391 . S
C800 C801 1.400 . S
C801 C795 1.491 . S
C801 C800 1.400 . S
C801 C802 1.398 . S
C802 H790 0.950 . S
C802 C801 1.398 . S
C802 C803 1.391 . S
C803 H791 0.950 . S
C803 C799 1.393 . S
C803 C802 1.391 . S
H804 C812 0.950 . S
H805 C817 0.950 . S
H806 C814 0.950 . S
H807 C816 0.950 . S
H808 C818 0.950 . S
H809 C820 0.950 . S
H810 C822 0.950 . S
H811 C823 0.950 . S
C812 H804 0.950 . S
C812 C813 1.386 . S
C812 C814 1.391 . S
C813 C812 1.386 . S
C813 C817 1.393 . S
C814 H806 0.950 . S
C814 C812 1.391 . S
C814 C815 1.400 . S
C815 C814 1.400 . S
C815 C816 1.398 . S
C815 C821 1.491 . S
C816 H807 0.950 . S
C816 C815 1.398 . S
C816 C817 1.391 . S
C817 H805 0.950 . S
C817 C813 1.393 . S
C817 C816 1.391 . S
C818 H808 0.950 . S
C818 C819 1.386 . S
C818 C820 1.391 . S
C819 C818 1.386 . S
C819 C823 1.393 . S
C820 H809 0.950 . S
C820 C818 1.391 . S
C820 C821 1.400 . S
C821 C815 1.491 . S
C821 C820 1.400 . S
C821 C822 1.398 . S
C822 H810 0.950 . S
C822 C821 1.398 . S
C822 C823 1.391 . S
C823 H811 0.950 . S
C823 C819 1.393 . S
C823 C822 1.391 . S
H824 C832 0.950 . S
H825 C837 0.950 . S
H826 C834 0.950 . S
H827 C836 0.950 . S
H828 C838 0.950 . S
H829 C840 0.950 . S
H830 C842 0.950 . S
H831 C843 0.950 . S
C832 H824 0.950 . S
C832 C833 1.386 . S
C832 C834 1.391 . S
C833 C832 1.386 . S
C833 C837 1.393 . S
C834 H826 0.950 . S
C834 C832 1.391 . S
C834 C835 1.400 . S
C835 C834 1.400 . S
C835 C836 1.398 . S
C835 C841 1.491 . S
C836 H827 0.950 . S
C836 C835 1.398 . S
C836 C837 1.391 . S
C837 H825 0.950 . S
C837 C833 1.393 . S
C837 C836 1.391 . S
C838 H828 0.950 . S
C838 C839 1.386 . S
C838 C840 1.391 . S
C839 C838 1.386 . S
C839 C843 1.393 . S
C840 H829 0.950 . S
C840 C838 1.391 . S
C840 C841 1.400 . S
C841 C835 1.491 . S
C841 C840 1.400 . S
C841 C842 1.398 . S
C842 H830 0.950 . S
C842 C841 1.398 . S
C842 C843 1.391 . S
C843 H831 0.950 . S
C843 C839 1.393 . S
C843 C842 1.391 . S
H844 C852 0.950 . S
H845 C857 0.950 . S
H846 C854 0.950 . S
H847 C856 0.950 . S
H848 C858 0.950 . S
H849 C860 0.950 . S
H850 C862 0.950 . S
H851 C863 0.950 . S
C852 H844 0.950 . S
C852 C853 1.386 . S
C852 C854 1.391 . S
C853 C852 1.386 . S
C853 C857 1.393 . S
C854 H846 0.950 . S
C854 C852 1.391 . S
C854 C855 1.400 . S
C855 C854 1.400 . S
C855 C856 1.398 . S
C855 C861 1.491 . S
C856 H847 0.950 . S
C856 C855 1.398 . S
C856 C857 1.391 . S
C857 H845 0.950 . S
C857 C853 1.393 . S
C857 C856 1.391 . S
C858 H848 0.950 . S
C858 C859 1.386 . S
C858 C860 1.391 . S
C859 C858 1.386 . S
C859 C863 1.393 . S
C860 H849 0.950 . S
C860 C858 1.391 . S
C860 C861 1.400 . S
C861 C855 1.491 . S
C861 C860 1.400 . S
C861 C862 1.398 . S
C862 H850 0.950 . S
C862 C861 1.398 . S
C862 C863 1.391 . S
C863 H851 0.950 . S
C863 C859 1.393 . S
C863 C862 1.391 . S
H864 C872 0.950 . S
H865 C877 0.950 . S
H866 C874 0.950 . S
H867 C876 0.950 . S
H868 C878 0.950 . S
H869 C880 0.950 . S
H870 C882 0.950 . S
H871 C883 0.950 . S
C872 H864 0.950 . S
C872 C873 1.386 . S
C872 C874 1.391 . S
C873 C872 1.386 . S
C873 C877 1.393 . S
C874 H866 0.950 . S
C874 C872 1.391 . S
C874 C875 1.400 . S
C875 C874 1.400 . S
C875 C876 1.398 . S
C875 C881 1.491 1_556 S
C876 H867 0.950 . S
C876 C875 1.398 . S
C876 C877 1.391 . S
C877 H865 0.950 . S
C877 C873 1.393 . S
C877 C876 1.391 . S
C878 H868 0.950 . S
C878 C879 1.386 . S
C878 C880 1.391 . S
C879 C878 1.386 . S
C879 C883 1.393 . S
C880 H869 0.950 . S
C880 C878 1.391 . S
C880 C881 1.400 . S
C881 C875 1.491 1_554 S
C881 C880 1.400 . S
C881 C882 1.398 . S
C882 H870 0.950 . S
C882 C881 1.398 . S
C882 C883 1.391 . S
C883 H871 0.950 . S
C883 C879 1.393 . S
C883 C882 1.391 . S
H884 C892 0.950 . S
H885 C897 0.950 . S
H886 C894 0.950 . S
H887 C896 0.950 . S
H888 C898 0.950 . S
H889 C900 0.950 . S
H890 C902 0.950 . S
H891 C903 0.950 . S
C892 H884 0.950 . S
C892 C893 1.386 . S
C892 C894 1.391 . S
C893 C892 1.386 . S
C893 C897 1.393 . S
C894 H886 0.950 . S
C894 C892 1.391 . S
C894 C895 1.400 . S
C895 C894 1.400 . S
C895 C896 1.398 . S
C895 C901 1.491 1_556 S
C896 H887 0.950 . S
C896 C895 1.398 . S
C896 C897 1.391 . S
C897 H885 0.950 . S
C897 C893 1.393 . S
C897 C896 1.391 . S
C898 H888 0.950 . S
C898 C899 1.386 . S
C898 C900 1.391 . S
C899 C898 1.386 . S
C899 C903 1.393 . S
C900 H889 0.950 . S
C900 C898 1.391 . S
C900 C901 1.400 . S
C901 C895 1.491 1_554 S
C901 C900 1.400 . S
C901 C902 1.398 . S
C902 H890 0.950 . S
C902 C901 1.398 . S
C902 C903 1.391 . S
C903 H891 0.950 . S
C903 C899 1.393 . S
C903 C902 1.391 . S
H904 C912 0.950 . S
H905 C917 0.950 . S
H906 C914 0.950 . S
H907 C916 0.950 . S
H908 C918 0.950 . S
H909 C920 0.950 . S
H910 C922 0.950 . S
H911 C923 0.950 . S
C912 H904 0.950 . S
C912 C913 1.386 . S
C912 C914 1.391 . S
C913 C912 1.386 . S
C913 C917 1.393 . S
C914 H906 0.950 . S
C914 C912 1.391 . S
C914 C915 1.400 . S
C915 C914 1.400 . S
C915 C916 1.398 . S
C915 C921 1.491 . S
C916 H907 0.950 . S
C916 C915 1.398 . S
C916 C917 1.391 . S
C917 H905 0.950 . S
C917 C913 1.393 . S
C917 C916 1.391 . S
C918 H908 0.950 . S
C918 C919 1.386 . S
C918 C920 1.391 . S
C919 C918 1.386 . S
C919 C923 1.393 . S
C920 H909 0.950 . S
C920 C918 1.391 . S
C920 C921 1.400 . S
C921 C915 1.491 . S
C921 C920 1.400 . S
C921 C922 1.398 . S
C922 H910 0.950 . S
C922 C921 1.398 . S
C922 C923 1.391 . S
C923 H911 0.950 . S
C923 C919 1.393 . S
C923 C922 1.391 . S
H924 C932 0.950 1_565 S
H925 C937 0.950 . S
H926 C934 0.950 1_565 S
H927 C936 0.950 . S
H928 C938 0.950 . S
H929 C940 0.950 . S
H930 C942 0.950 1_565 S
H931 C943 0.950 1_565 S
C932 H924 0.950 1_545 S
C932 C933 1.386 . S
C932 C934 1.391 . S
C933 C932 1.386 . S
C933 C937 1.393 . S
C934 H926 0.950 1_545 S
C934 C932 1.391 . S
C934 C935 1.400 . S
C935 C934 1.400 . S
C935 C936 1.398 . S
C935 C941 1.491 . S
C936 H927 0.950 . S
C936 C935 1.398 . S
C936 C937 1.391 . S
C937 H925 0.950 . S
C937 C933 1.393 . S
C937 C936 1.391 . S
C938 H928 0.950 . S
C938 C939 1.386 . S
C938 C940 1.391 . S
C939 C938 1.386 . S
C939 C943 1.393 . S
C940 H929 0.950 . S
C940 C938 1.391 . S
C940 C941 1.400 . S
C941 C935 1.491 . S
C941 C940 1.400 . S
C941 C942 1.398 . S
C942 H930 0.950 1_545 S
C942 C941 1.398 . S
C942 C943 1.391 . S
C943 H931 0.950 1_545 S
C943 C939 1.393 . S
C943 C942 1.391 . S
H944 C952 0.950 . S
H945 C957 0.950 . S
H946 C954 0.950 . S
H947 C956 0.950 . S
H948 C958 0.950 . S
H949 C960 0.950 . S
H950 C962 0.950 . S
H951 C963 0.950 . S
C952 H944 0.950 . S
C952 C953 1.386 . S
C952 C954 1.391 . S
C953 C952 1.386 . S
C953 C957 1.393 . S
C954 H946 0.950 . S
C954 C952 1.391 . S
C954 C955 1.400 . S
C955 C954 1.400 . S
C955 C956 1.398 . S
C955 C961 1.491 1_554 S
C956 H947 0.950 . S
C956 C955 1.398 . S
C956 C957 1.391 . S
C957 H945 0.950 . S
C957 C953 1.393 . S
C957 C956 1.391 . S
C958 H948 0.950 . S
C958 C959 1.386 . S
C958 C960 1.391 . S
C959 C958 1.386 . S
C959 C963 1.393 . S
C960 H949 0.950 . S
C960 C958 1.391 . S
C960 C961 1.400 . S
C961 C955 1.491 1_556 S
C961 C960 1.400 . S
C961 C962 1.398 . S
C962 H950 0.950 . S
C962 C961 1.398 . S
C962 C963 1.391 . S
C963 H951 0.950 . S
C963 C959 1.393 . S
C963 C962 1.391 . S
H964 C972 0.950 . S
H965 C977 0.950 . S
H966 C974 0.950 . S
H967 C976 0.950 . S
H968 C978 0.950 . S
H969 C980 0.950 . S
H970 C982 0.950 . S
H971 C983 0.950 . S
C972 H964 0.950 . S
C972 C973 1.386 . S
C972 C974 1.391 . S
C973 C972 1.386 . S
C973 C977 1.393 . S
C974 H966 0.950 . S
C974 C972 1.391 . S
C974 C975 1.400 . S
C975 C974 1.400 . S
C975 C976 1.398 . S
C975 C981 1.491 1_556 S
C976 H967 0.950 . S
C976 C975 1.398 . S
C976 C977 1.391 . S
C977 H965 0.950 . S
C977 C973 1.393 . S
C977 C976 1.391 . S
C978 H968 0.950 . S
C978 C979 1.386 . S
C978 C980 1.391 . S
C979 C978 1.386 . S
C979 C983 1.393 . S
C980 H969 0.950 . S
C980 C978 1.391 . S
C980 C981 1.400 . S
C981 C975 1.491 1_554 S
C981 C980 1.400 . S
C981 C982 1.398 . S
C982 H970 0.950 . S
C982 C981 1.398 . S
C982 C983 1.391 . S
C983 H971 0.950 . S
C983 C979 1.393 . S
C983 C982 1.391 . S
H984 C992 0.950 . S
H985 C997 0.950 . S
H986 C994 0.950 . S
H987 C996 0.950 . S
H988 C998 0.950 . S
H989 C1000 0.950 . S
H990 C1002 0.950 . S
H991 C1003 0.950 . S
C992 H984 0.950 . S
C992 C993 1.386 . S
C992 C994 1.391 . S
C993 C992 1.386 . S
C993 C997 1.393 . S
C994 H986 0.950 . S
C994 C992 1.391 . S
C994 C995 1.400 . S
C995 C994 1.400 . S
C995 C996 1.398 . S
C995 C1001 1.491 . S
C996 H987 0.950 . S
C996 C995 1.398 . S
C996 C997 1.391 . S
C997 H985 0.950 . S
C997 C993 1.393 . S
C997 C996 1.391 . S
C998 H988 0.950 . S
C998 C999 1.386 . S
C998 C1000 1.391 . S
C999 C998 1.386 . S
C999 C1003 1.393 . S
C1000 H989 0.950 . S
C1000 C998 1.391 . S
C1000 C1001 1.400 . S
C1001 C995 1.491 . S
C1001 C1000 1.400 . S
C1001 C1002 1.398 . S
C1002 H990 0.950 . S
C1002 C1001 1.398 . S
C1002 C1003 1.391 . S
C1003 H991 0.950 . S
C1003 C999 1.393 . S
C1003 C1002 1.391 . S
H1004 C1012 0.950 . S
H1005 C1017 0.950 . S
H1006 C1014 0.950 . S
H1007 C1016 0.950 . S
H1008 C1018 0.950 . S
H1009 C1020 0.950 . S
H1010 C1022 0.950 . S
H1011 C1023 0.950 . S
C1012 H1004 0.950 . S
C1012 C1013 1.386 . S
C1012 C1014 1.391 . S
C1013 C1012 1.386 . S
C1013 C1017 1.393 . S
C1014 H1006 0.950 . S
C1014 C1012 1.391 . S
C1014 C1015 1.400 . S
C1015 C1014 1.400 . S
C1015 C1016 1.398 . S
C1015 C1021 1.491 . S
C1016 H1007 0.950 . S
C1016 C1015 1.398 . S
C1016 C1017 1.391 . S
C1017 H1005 0.950 . S
C1017 C1013 1.393 . S
C1017 C1016 1.391 . S
C1018 H1008 0.950 . S
C1018 C1019 1.386 . S
C1018 C1020 1.391 . S
C1019 C1018 1.386 . S
C1019 C1023 1.393 . S
C1020 H1009 0.950 . S
C1020 C1018 1.391 . S
C1020 C1021 1.400 . S
C1021 C1015 1.491 . S
C1021 C1020 1.400 . S
C1021 C1022 1.398 . S
C1022 H1010 0.950 . S
C1022 C1021 1.398 . S
C1022 C1023 1.391 . S
C1023 H1011 0.950 . S
C1023 C1019 1.393 . S
C1023 C1022 1.391 . S
H1024 C1032 0.950 . S
H1025 C1037 0.950 . S
H1026 C1034 0.950 . S
H1027 C1036 0.950 . S
H1028 C1038 0.950 . S
H1029 C1040 0.950 . S
H1030 C1042 0.950 . S
H1031 C1043 0.950 . S
C1032 H1024 0.950 . S
C1032 C1033 1.386 . S
C1032 C1034 1.391 . S
C1033 C1032 1.386 . S
C1033 C1037 1.393 1_565 S
C1034 H1026 0.950 . S
C1034 C1032 1.391 . S
C1034 C1035 1.400 . S
C1035 C1034 1.400 . S
C1035 C1036 1.398 1_565 S
C1035 C1041 1.491 1_665 S
C1036 H1027 0.950 . S
C1036 C1035 1.398 1_545 S
C1036 C1037 1.391 . S
C1037 H1025 0.950 . S
C1037 C1033 1.393 1_545 S
C1037 C1036 1.391 . S
C1038 H1028 0.950 . S
C1038 C1039 1.386 . S
C1038 C1040 1.391 . S
C1039 C1038 1.386 . S
C1039 C1043 1.393 1_545 S
C1040 H1029 0.950 . S
C1040 C1038 1.391 . S
C1040 C1041 1.400 . S
C1041 C1035 1.491 1_445 S
C1041 C1040 1.400 . S
C1041 C1042 1.398 1_545 S
C1042 H1030 0.950 . S
C1042 C1041 1.398 1_565 S
C1042 C1043 1.391 . S
C1043 H1031 0.950 . S
C1043 C1039 1.393 1_565 S
C1043 C1042 1.391 . S
H1044 C1052 0.950 . S
H1045 C1057 0.950 . S
H1046 C1054 0.950 . S
H1047 C1056 0.950 . S
H1048 C1058 0.950 . S
H1049 C1060 0.950 . S
H1050 C1062 0.950 . S
H1051 C1063 0.950 . S
C1052 H1044 0.950 . S
C1052 C1053 1.386 . S
C1052 C1054 1.391 . S
C1053 C1052 1.386 . S
C1053 C1057 1.393 1_545 S
C1054 H1046 0.950 . S
C1054 C1052 1.391 . S
C1054 C1055 1.400 . S
C1055 C1054 1.400 . S
C1055 C1056 1.398 1_545 S
C1055 C1061 1.491 1_645 S
C1056 H1047 0.950 . S
C1056 C1055 1.398 1_565 S
C1056 C1057 1.391 . S
C1057 H1045 0.950 . S
C1057 C1053 1.393 1_565 S
C1057 C1056 1.391 . S
C1058 H1048 0.950 . S
C1058 C1059 1.386 . S
C1058 C1060 1.391 . S
C1059 C1058 1.386 . S
C1059 C1063 1.393 1_565 S
C1060 H1049 0.950 . S
C1060 C1058 1.391 . S
C1060 C1061 1.400 . S
C1061 C1055 1.491 1_465 S
C1061 C1060 1.400 . S
C1061 C1062 1.398 1_565 S
C1062 H1050 0.950 . S
C1062 C1061 1.398 1_545 S
C1062 C1063 1.391 . S
C1063 H1051 0.950 . S
C1063 C1059 1.393 1_545 S
C1063 C1062 1.391 . S
H1064 C1072 0.950 . S
H1065 C1077 0.950 . S
H1066 C1074 0.950 . S
H1067 C1076 0.950 . S
H1068 C1078 0.950 . S
H1069 C1080 0.950 . S
H1070 C1082 0.950 . S
H1071 C1083 0.950 . S
C1072 H1064 0.950 . S
C1072 C1073 1.386 1_565 S
C1072 C1074 1.391 . S
C1073 C1072 1.386 1_545 S
C1073 C1077 1.393 . S
C1074 H1066 0.950 . S
C1074 C1072 1.391 . S
C1074 C1075 1.400 1_565 S
C1075 C1074 1.400 1_545 S
C1075 C1076 1.398 . S
C1075 C1081 1.491 1_445 S
C1076 H1067 0.950 . S
C1076 C1075 1.398 . S
C1076 C1077 1.391 . S
C1077 H1065 0.950 . S
C1077 C1073 1.393 . S
C1077 C1076 1.391 . S
C1078 H1068 0.950 . S
C1078 C1079 1.386 1_545 S
C1078 C1080 1.391 . S
C1079 C1078 1.386 1_565 S
C1079 C1083 1.393 . S
C1080 H1069 0.950 . S
C1080 C1078 1.391 . S
C1080 C1081 1.400 1_545 S
C1081 C1075 1.491 1_665 S
C1081 C1080 1.400 1_565 S
C1081 C1082 1.398 . S
C1082 H1070 0.950 . S
C1082 C1081 1.398 . S
C1082 C1083 1.391 . S
C1083 H1071 0.950 . S
C1083 C1079 1.393 . S
C1083 C1082 1.391 . S
H1084 C1092 0.950 . S
H1085 C1097 0.950 . S
H1086 C1094 0.950 . S
H1087 C1096 0.950 . S
H1088 C1098 0.950 . S
H1089 C1100 0.950 . S
H1090 C1102 0.950 . S
H1091 C1103 0.950 . S
C1092 H1084 0.950 . S
C1092 C1093 1.386 . S
C1092 C1094 1.391 . S
C1093 C1092 1.386 . S
C1093 C1097 1.393 1_545 S
C1094 H1086 0.950 . S
C1094 C1092 1.391 . S
C1094 C1095 1.400 . S
C1095 C1094 1.400 . S
C1095 C1096 1.398 1_545 S
C1095 C1101 1.491 1_645 S
C1096 H1087 0.950 . S
C1096 C1095 1.398 1_565 S
C1096 C1097 1.391 . S
C1097 H1085 0.950 . S
C1097 C1093 1.393 1_565 S
C1097 C1096 1.391 . S
C1098 H1088 0.950 . S
C1098 C1099 1.386 . S
C1098 C1100 1.391 . S
C1099 C1098 1.386 . S
C1099 C1103 1.393 1_565 S
C1100 H1089 0.950 . S
C1100 C1098 1.391 . S
C1100 C1101 1.400 . S
C1101 C1095 1.491 1_465 S
C1101 C1100 1.400 . S
C1101 C1102 1.398 1_565 S
C1102 H1090 0.950 . S
C1102 C1101 1.398 1_545 S
C1102 C1103 1.391 . S
C1103 H1091 0.950 . S
C1103 C1099 1.393 1_545 S
C1103 C1102 1.391 . S
H1104 C1112 0.950 . S
H1105 C1117 0.950 . S
H1106 C1114 0.950 . S
H1107 C1116 0.950 . S
H1108 C1118 0.950 . S
H1109 C1120 0.950 . S
H1110 C1122 0.950 . S
H1111 C1123 0.950 . S
C1112 H1104 0.950 . S
C1112 C1113 1.386 . S
C1112 C1114 1.391 . S
C1113 C1112 1.386 . S
C1113 C1117 1.393 . S
C1114 H1106 0.950 . S
C1114 C1112 1.391 . S
C1114 C1115 1.400 . S
C1115 C1114 1.400 . S
C1115 C1116 1.398 . S
C1115 C1121 1.491 . S
C1116 H1107 0.950 . S
C1116 C1115 1.398 . S
C1116 C1117 1.391 . S
C1117 H1105 0.950 . S
C1117 C1113 1.393 . S
C1117 C1116 1.391 . S
C1118 H1108 0.950 . S
C1118 C1119 1.386 . S
C1118 C1120 1.391 . S
C1119 C1118 1.386 . S
C1119 C1123 1.393 . S
C1120 H1109 0.950 . S
C1120 C1118 1.391 . S
C1120 C1121 1.400 . S
C1121 C1115 1.491 . S
C1121 C1120 1.400 . S
C1121 C1122 1.398 . S
C1122 H1110 0.950 . S
C1122 C1121 1.398 . S
C1122 C1123 1.391 . S
C1123 H1111 0.950 . S
C1123 C1119 1.393 . S
C1123 C1122 1.391 . S
H1124 C1132 0.950 . S
H1125 C1137 0.950 . S
H1126 C1134 0.950 . S
H1127 C1136 0.950 . S
H1128 C1138 0.950 . S
H1129 C1140 0.950 . S
H1130 C1142 0.950 . S
H1131 C1143 0.950 . S
C1132 H1124 0.950 . S
C1132 C1133 1.386 . S
C1132 C1134 1.391 . S
C1133 C1132 1.386 . S
C1133 C1137 1.393 . S
C1134 H1126 0.950 . S
C1134 C1132 1.391 . S
C1134 C1135 1.400 . S
C1135 C1134 1.400 . S
C1135 C1136 1.398 . S
C1135 C1141 1.491 . S
C1136 H1127 0.950 . S
C1136 C1135 1.398 . S
C1136 C1137 1.391 . S
C1137 H1125 0.950 . S
C1137 C1133 1.393 . S
C1137 C1136 1.391 . S
C1138 H1128 0.950 . S
C1138 C1139 1.386 . S
C1138 C1140 1.391 . S
C1139 C1138 1.386 . S
C1139 C1143 1.393 . S
C1140 H1129 0.950 . S
C1140 C1138 1.391 . S
C1140 C1141 1.400 . S
C1141 C1135 1.491 . S
C1141 C1140 1.400 . S
C1141 C1142 1.398 . S
C1142 H1130 0.950 . S
C1142 C1141 1.398 . S
C1142 C1143 1.391 . S
C1143 H1131 0.950 . S
C1143 C1139 1.393 . S
C1143 C1142 1.391 . S
H1144 C1152 0.950 . S
H1145 C1157 0.950 . S
H1146 C1154 0.950 . S
H1147 C1156 0.950 . S
H1148 C1158 0.950 . S
H1149 C1160 0.950 . S
H1150 C1162 0.950 . S
H1151 C1163 0.950 . S
C1152 H1144 0.950 . S
C1152 C1153 1.386 . S
C1152 C1154 1.391 . S
C1153 C1152 1.386 . S
C1153 C1157 1.393 . S
C1154 H1146 0.950 . S
C1154 C1152 1.391 . S
C1154 C1155 1.400 . S
C1155 C1154 1.400 . S
C1155 C1156 1.398 . S
C1155 C1161 1.491 . S
C1156 H1147 0.950 . S
C1156 C1155 1.398 . S
C1156 C1157 1.391 . S
C1157 H1145 0.950 . S
C1157 C1153 1.393 . S
C1157 C1156 1.391 . S
C1158 H1148 0.950 . S
C1158 C1159 1.386 . S
C1158 C1160 1.391 . S
C1159 C1158 1.386 . S
C1159 C1163 1.393 . S
C1160 H1149 0.950 . S
C1160 C1158 1.391 . S
C1160 C1161 1.400 . S
C1161 C1155 1.491 . S
C1161 C1160 1.400 . S
C1161 C1162 1.398 . S
C1162 H1150 0.950 . S
C1162 C1161 1.398 . S
C1162 C1163 1.391 . S
C1163 H1151 0.950 . S
C1163 C1159 1.393 . S
C1163 C1162 1.391 . S
H1164 C1172 0.950 . S
H1165 C1177 0.950 . S
H1166 C1174 0.950 . S
H1167 C1176 0.950 . S
H1168 C1178 0.950 . S
H1169 C1180 0.950 . S
H1170 C1182 0.950 . S
H1171 C1183 0.950 . S
C1172 H1164 0.950 . S
C1172 C1173 1.386 . S
C1172 C1174 1.391 . S
C1173 C1172 1.386 . S
C1173 C1177 1.393 . S
C1174 H1166 0.950 . S
C1174 C1172 1.391 . S
C1174 C1175 1.400 . S
C1175 C1174 1.400 . S
C1175 C1176 1.398 . S
C1175 C1181 1.491 . S
C1176 H1167 0.950 . S
C1176 C1175 1.398 . S
C1176 C1177 1.391 . S
C1177 H1165 0.950 . S
C1177 C1173 1.393 . S
C1177 C1176 1.391 . S
C1178 H1168 0.950 . S
C1178 C1179 1.386 . S
C1178 C1180 1.391 . S
C1179 C1178 1.386 . S
C1179 C1183 1.393 . S
C1180 H1169 0.950 . S
C1180 C1178 1.391 . S
C1180 C1181 1.400 . S
C1181 C1175 1.491 . S
C1181 C1180 1.400 . S
C1181 C1182 1.398 . S
C1182 H1170 0.950 . S
C1182 C1181 1.398 . S
C1182 C1183 1.391 . S
C1183 H1171 0.950 . S
C1183 C1179 1.393 . S
C1183 C1182 1.391 . S
H1184 C1192 0.950 . S
H1185 C1197 0.950 . S
H1186 C1194 0.950 . S
H1187 C1196 0.950 . S
H1188 C1198 0.950 . S
H1189 C1200 0.950 . S
H1190 C1202 0.950 . S
H1191 C1203 0.950 . S
C1192 H1184 0.950 . S
C1192 C1193 1.386 . S
C1192 C1194 1.391 . S
C1193 C1192 1.386 . S
C1193 C1197 1.393 . S
C1194 H1186 0.950 . S
C1194 C1192 1.391 . S
C1194 C1195 1.400 . S
C1195 C1194 1.400 . S
C1195 C1196 1.398 . S
C1195 C1201 1.491 . S
C1196 H1187 0.950 . S
C1196 C1195 1.398 . S
C1196 C1197 1.391 . S
C1197 H1185 0.950 . S
C1197 C1193 1.393 . S
C1197 C1196 1.391 . S
C1198 H1188 0.950 . S
C1198 C1199 1.386 . S
C1198 C1200 1.391 . S
C1199 C1198 1.386 . S
C1199 C1203 1.393 . S
C1200 H1189 0.950 . S
C1200 C1198 1.391 . S
C1200 C1201 1.400 . S
C1201 C1195 1.491 . S
C1201 C1200 1.400 . S
C1201 C1202 1.398 . S
C1202 H1190 0.950 . S
C1202 C1201 1.398 . S
C1202 C1203 1.391 . S
C1203 H1191 0.950 . S
C1203 C1199 1.393 . S
C1203 C1202 1.391 . S
H1204 C1212 0.950 . S
H1205 C1217 0.950 . S
H1206 C1214 0.950 . S
H1207 C1216 0.950 . S
H1208 C1218 0.950 . S
H1209 C1220 0.950 . S
H1210 C1222 0.950 . S
H1211 C1223 0.950 . S
C1212 H1204 0.950 . S
C1212 C1213 1.386 . S
C1212 C1214 1.391 . S
C1213 C1212 1.386 . S
C1213 C1217 1.393 . S
C1214 H1206 0.950 . S
C1214 C1212 1.391 . S
C1214 C1215 1.400 . S
C1215 C1214 1.400 . S
C1215 C1216 1.398 . S
C1215 C1221 1.491 . S
C1216 H1207 0.950 . S
C1216 C1215 1.398 . S
C1216 C1217 1.391 . S
C1217 H1205 0.950 . S
C1217 C1213 1.393 . S
C1217 C1216 1.391 . S
C1218 H1208 0.950 . S
C1218 C1219 1.386 . S
C1218 C1220 1.391 . S
C1219 C1218 1.386 . S
C1219 C1223 1.393 . S
C1220 H1209 0.950 . S
C1220 C1218 1.391 . S
C1220 C1221 1.400 . S
C1221 C1215 1.491 . S
C1221 C1220 1.400 . S
C1221 C1222 1.398 . S
C1222 H1210 0.950 . S
C1222 C1221 1.398 . S
C1222 C1223 1.391 . S
C1223 H1211 0.950 . S
C1223 C1219 1.393 . S
C1223 C1222 1.391 . S
H1224 C1232 0.950 . S
H1225 C1237 0.950 . S
H1226 C1234 0.950 . S
H1227 C1236 0.950 . S
H1228 C1238 0.950 . S
H1229 C1240 0.950 . S
H1230 C1242 0.950 . S
H1231 C1243 0.950 . S
C1232 H1224 0.950 . S
C1232 C1233 1.386 . S
C1232 C1234 1.391 . S
C1233 C1232 1.386 . S
C1233 C1237 1.393 . S
C1234 H1226 0.950 . S
C1234 C1232 1.391 . S
C1234 C1235 1.400 . S
C1235 C1234 1.400 . S
C1235 C1236 1.398 . S
C1235 C1241 1.491 . S
C1236 H1227 0.950 . S
C1236 C1235 1.398 . S
C1236 C1237 1.391 . S
C1237 H1225 0.950 . S
C1237 C1233 1.393 . S
C1237 C1236 1.391 . S
C1238 H1228 0.950 . S
C1238 C1239 1.386 . S
C1238 C1240 1.391 . S
C1239 C1238 1.386 . S
C1239 C1243 1.393 . S
C1240 H1229 0.950 . S
C1240 C1238 1.391 . S
C1240 C1241 1.400 . S
C1241 C1235 1.491 . S
C1241 C1240 1.400 . S
C1241 C1242 1.398 . S
C1242 H1230 0.950 . S
C1242 C1241 1.398 . S
C1242 C1243 1.391 . S
C1243 H1231 0.950 . S
C1243 C1239 1.393 . S
C1243 C1242 1.391 . S
H1244 C1252 0.950 . S
H1245 C1257 0.950 . S
H1246 C1254 0.950 . S
H1247 C1256 0.950 . S
H1248 C1258 0.950 . S
H1249 C1260 0.950 . S
H1250 C1262 0.950 . S
H1251 C1263 0.950 . S
C1252 H1244 0.950 . S
C1252 C1253 1.386 . S
C1252 C1254 1.391 . S
C1253 C1252 1.386 . S
C1253 C1257 1.393 . S
C1254 H1246 0.950 . S
C1254 C1252 1.391 . S
C1254 C1255 1.400 . S
C1255 C1254 1.400 . S
C1255 C1256 1.398 . S
C1255 C1261 1.491 . S
C1256 H1247 0.950 . S
C1256 C1255 1.398 . S
C1256 C1257 1.391 . S
C1257 H1245 0.950 . S
C1257 C1253 1.393 . S
C1257 C1256 1.391 . S
C1258 H1248 0.950 . S
C1258 C1259 1.386 . S
C1258 C1260 1.391 . S
C1259 C1258 1.386 . S
C1259 C1263 1.393 . S
C1260 H1249 0.950 . S
C1260 C1258 1.391 . S
C1260 C1261 1.400 . S
C1261 C1255 1.491 . S
C1261 C1260 1.400 . S
C1261 C1262 1.398 . S
C1262 H1250 0.950 . S
C1262 C1261 1.398 . S
C1262 C1263 1.391 . S
C1263 H1251 0.950 . S
C1263 C1259 1.393 . S
C1263 C1262 1.391 . S
H1264 C1272 0.950 . S
H1265 C1277 0.950 . S
H1266 C1274 0.950 . S
H1267 C1276 0.950 . S
H1268 C1278 0.950 . S
H1269 C1280 0.950 . S
H1270 C1282 0.950 . S
H1271 C1283 0.950 . S
C1272 H1264 0.950 . S
C1272 C1273 1.386 . S
C1272 C1274 1.391 . S
C1273 C1272 1.386 . S
C1273 C1277 1.393 . S
C1274 H1266 0.950 . S
C1274 C1272 1.391 . S
C1274 C1275 1.400 . S
C1275 C1274 1.400 . S
C1275 C1276 1.398 . S
C1275 C1281 1.491 . S
C1276 H1267 0.950 . S
C1276 C1275 1.398 . S
C1276 C1277 1.391 . S
C1277 H1265 0.950 . S
C1277 C1273 1.393 . S
C1277 C1276 1.391 . S
C1278 H1268 0.950 . S
C1278 C1279 1.386 . S
C1278 C1280 1.391 . S
C1279 C1278 1.386 . S
C1279 C1283 1.393 . S
C1280 H1269 0.950 . S
C1280 C1278 1.391 . S
C1280 C1281 1.400 . S
C1281 C1275 1.491 . S
C1281 C1280 1.400 . S
C1281 C1282 1.398 . S
C1282 H1270 0.950 . S
C1282 C1281 1.398 . S
C1282 C1283 1.391 . S
C1283 H1271 0.950 . S
C1283 C1279 1.393 . S
C1283 C1282 1.391 . S
H1284 C1292 0.950 . S
H1285 C1297 0.950 . S
H1286 C1294 0.950 . S
H1287 C1296 0.950 . S
H1288 C1298 0.950 . S
H1289 C1300 0.950 . S
H1290 C1302 0.950 . S
H1291 C1303 0.950 . S
C1292 H1284 0.950 . S
C1292 C1293 1.386 . S
C1292 C1294 1.391 . S
C1293 C1292 1.386 . S
C1293 C1297 1.393 . S
C1294 H1286 0.950 . S
C1294 C1292 1.391 . S
C1294 C1295 1.400 . S
C1295 C1294 1.400 . S
C1295 C1296 1.398 . S
C1295 C1301 1.491 . S
C1296 H1287 0.950 . S
C1296 C1295 1.398 . S
C1296 C1297 1.391 . S
C1297 H1285 0.950 . S
C1297 C1293 1.393 . S
C1297 C1296 1.391 . S
C1298 H1288 0.950 . S
C1298 C1299 1.386 . S
C1298 C1300 1.391 . S
C1299 C1298 1.386 . S
C1299 C1303 1.393 . S
C1300 H1289 0.950 . S
C1300 C1298 1.391 . S
C1300 C1301 1.400 . S
C1301 C1295 1.491 . S
C1301 C1300 1.400 . S
C1301 C1302 1.398 . S
C1302 H1290 0.950 . S
C1302 C1301 1.398 . S
C1302 C1303 1.391 . S
C1303 H1291 0.950 . S
C1303 C1299 1.393 . S
C1303 C1302 1.391 . S
H1304 C1312 0.950 . S
H1305 C1317 0.950 . S
H1306 C1314 0.950 . S
H1307 C1316 0.950 . S
H1308 C1318 0.950 . S
H1309 C1320 0.950 . S
H1310 C1322 0.950 . S
H1311 C1323 0.950 . S
C1312 H1304 0.950 . S
C1312 C1313 1.386 . S
C1312 C1314 1.391 . S
C1313 C1312 1.386 . S
C1313 C1317 1.393 . S
C1314 H1306 0.950 . S
C1314 C1312 1.391 . S
C1314 C1315 1.400 . S
C1315 C1314 1.400 . S
C1315 C1316 1.398 . S
C1315 C1321 1.491 . S
C1316 H1307 0.950 . S
C1316 C1315 1.398 . S
C1316 C1317 1.391 . S
C1317 H1305 0.950 . S
C1317 C1313 1.393 . S
C1317 C1316 1.391 . S
C1318 H1308 0.950 . S
C1318 C1319 1.386 . S
C1318 C1320 1.391 . S
C1319 C1318 1.386 . S
C1319 C1323 1.393 . S
C1320 H1309 0.950 . S
C1320 C1318 1.391 . S
C1320 C1321 1.400 . S
C1321 C1315 1.491 . S
C1321 C1320 1.400 . S
C1321 C1322 1.398 . S
C1322 H1310 0.950 . S
C1322 C1321 1.398 . S
C1322 C1323 1.391 . S
C1323 H1311 0.950 . S
C1323 C1319 1.393 . S
C1323 C1322 1.391 . S
H1324 C1332 0.950 . S
H1325 C1337 0.950 . S
H1326 C1334 0.950 . S
H1327 C1336 0.950 . S
H1328 C1338 0.950 . S
H1329 C1340 0.950 . S
H1330 C1342 0.950 . S
H1331 C1343 0.950 . S
C1332 H1324 0.950 . S
C1332 C1333 1.386 . S
C1332 C1334 1.391 . S
C1333 C1332 1.386 . S
C1333 C1337 1.393 . S
C1334 H1326 0.950 . S
C1334 C1332 1.391 . S
C1334 C1335 1.400 . S
C1335 C1334 1.400 . S
C1335 C1336 1.398 . S
C1335 C1341 1.491 . S
C1336 H1327 0.950 . S
C1336 C1335 1.398 . S
C1336 C1337 1.391 . S
C1337 H1325 0.950 . S
C1337 C1333 1.393 . S
C1337 C1336 1.391 . S
C1338 H1328 0.950 . S
C1338 C1339 1.386 . S
C1338 C1340 1.391 . S
C1339 C1338 1.386 . S
C1339 C1343 1.393 . S
C1340 H1329 0.950 . S
C1340 C1338 1.391 . S
C1340 C1341 1.400 . S
C1341 C1335 1.491 . S
C1341 C1340 1.400 . S
C1341 C1342 1.398 . S
C1342 H1330 0.950 . S
C1342 C1341 1.398 . S
C1342 C1343 1.391 . S
C1343 H1331 0.950 . S
C1343 C1339 1.393 . S
C1343 C1342 1.391 . S
H1344 C1352 0.950 . S
H1345 C1357 0.950 . S
H1346 C1354 0.950 . S
H1347 C1356 0.950 1_545 S
H1348 C1358 0.950 . S
H1349 C1360 0.950 . S
H1350 C1362 0.950 . S
H1351 C1363 0.950 . S
C1352 H1344 0.950 . S
C1352 C1353 1.386 . S
C1352 C1354 1.391 1_565 S
C1353 C1352 1.386 . S
C1353 C1357 1.393 . S
C1354 H1346 0.950 . S
C1354 C1352 1.391 1_545 S
C1354 C1355 1.400 . S
C1355 C1354 1.400 . S
C1355 C1356 1.398 1_545 S
C1355 C1361 1.491 . S
C1356 H1347 0.950 1_565 S
C1356 C1355 1.398 1_565 S
C1356 C1357 1.391 . S
C1357 H1345 0.950 . S
C1357 C1353 1.393 . S
C1357 C1356 1.391 . S
C1358 H1348 0.950 . S
C1358 C1359 1.386 . S
C1358 C1360 1.391 . S
C1359 C1358 1.386 . S
C1359 C1363 1.393 . S
C1360 H1349 0.950 . S
C1360 C1358 1.391 . S
C1360 C1361 1.400 . S
C1361 C1355 1.491 . S
C1361 C1360 1.400 . S
C1361 C1362 1.398 . S
C1362 H1350 0.950 . S
C1362 C1361 1.398 . S
C1362 C1363 1.391 . S
C1363 H1351 0.950 . S
C1363 C1359 1.393 . S
C1363 C1362 1.391 . S
H1364 C1372 0.950 . S
H1365 C1377 0.950 . S
H1366 C1374 0.950 . S
H1367 C1376 0.950 . S
H1368 C1378 0.950 . S
H1369 C1380 0.949 . S
H1370 C1382 0.950 1_565 S
H1371 C1383 0.950 . S
C1372 H1364 0.950 . S
C1372 C1373 1.386 . S
C1372 C1374 1.391 . S
C1373 C1372 1.386 . S
C1373 C1377 1.393 . S
C1374 H1366 0.950 . S
C1374 C1372 1.391 . S
C1374 C1375 1.400 . S
C1375 C1374 1.400 . S
C1375 C1376 1.398 . S
C1375 C1381 1.491 . S
C1376 H1367 0.950 . S
C1376 C1375 1.398 . S
C1376 C1377 1.391 . S
C1377 H1365 0.950 . S
C1377 C1373 1.393 . S
C1377 C1376 1.391 . S
C1378 H1368 0.950 . S
C1378 C1379 1.386 . S
C1378 C1380 1.392 1_545 S
C1379 C1378 1.386 . S
C1379 C1383 1.393 . S
C1380 H1369 0.949 . S
C1380 C1378 1.392 1_565 S
C1380 C1381 1.400 . S
C1381 C1375 1.491 . S
C1381 C1380 1.400 . S
C1381 C1382 1.398 1_565 S
C1382 H1370 0.950 1_545 S
C1382 C1381 1.398 1_545 S
C1382 C1383 1.391 . S
C1383 H1371 0.950 . S
C1383 C1379 1.393 . S
C1383 C1382 1.391 . S
H1384 C1392 0.950 . S
H1385 C1397 0.950 . S
H1386 C1394 0.954 . S
H1387 C1396 0.950 1_565 S
H1388 C1398 0.950 . S
H1389 C1400 0.950 . S
H1390 C1402 0.950 . S
H1391 C1403 0.950 . S
C1392 H1384 0.950 . S
C1392 C1393 1.386 . S
C1392 C1394 1.383 1_545 S
C1393 C1392 1.386 . S
C1393 C1397 1.393 . S
C1394 H1386 0.954 . S
C1394 C1392 1.383 1_565 S
C1394 C1395 1.404 . S
C1395 C1394 1.404 . S
C1395 C1396 1.398 1_565 S
C1395 C1401 1.491 . S
C1396 H1387 0.950 1_545 S
C1396 C1395 1.398 1_545 S
C1396 C1397 1.391 . S
C1397 H1385 0.950 . S
C1397 C1393 1.393 . S
C1397 C1396 1.391 . S
C1398 H1388 0.950 . S
C1398 C1399 1.386 . S
C1398 C1400 1.391 . S
C1399 C1398 1.386 . S
C1399 C1403 1.393 . S
C1400 H1389 0.950 . S
C1400 C1398 1.391 . S
C1400 C1401 1.400 . S
C1401 C1395 1.491 . S
C1401 C1400 1.400 . S
C1401 C1402 1.398 . S
C1402 H1390 0.950 . S
C1402 C1401 1.398 . S
C1402 C1403 1.391 . S
C1403 H1391 0.950 . S
C1403 C1399 1.393 . S
C1403 C1402 1.391 . S
H1404 C1412 0.950 . S
H1405 C1417 0.950 . S
H1406 C1414 0.950 . S
H1407 C1416 0.950 1_545 S
H1408 C1418 0.950 . S
H1409 C1420 0.950 . S
H1410 C1422 0.950 . S
H1411 C1423 0.950 . S
C1412 H1404 0.950 . S
C1412 C1413 1.386 . S
C1412 C1414 1.391 1_565 S
C1413 C1412 1.386 . S
C1413 C1417 1.393 . S
C1414 H1406 0.950 . S
C1414 C1412 1.391 1_545 S
C1414 C1415 1.400 . S
C1415 C1414 1.400 . S
C1415 C1416 1.398 1_545 S
C1415 C1421 1.491 . S
C1416 H1407 0.950 1_565 S
C1416 C1415 1.398 1_565 S
C1416 C1417 1.391 . S
C1417 H1405 0.950 . S
C1417 C1413 1.393 . S
C1417 C1416 1.391 . S
C1418 H1408 0.950 . S
C1418 C1419 1.386 . S
C1418 C1420 1.391 . S
C1419 C1418 1.386 . S
C1419 C1423 1.393 . S
C1420 H1409 0.950 . S
C1420 C1418 1.391 . S
C1420 C1421 1.400 . S
C1421 C1415 1.491 . S
C1421 C1420 1.400 . S
C1421 C1422 1.398 . S
C1422 H1410 0.950 . S
C1422 C1421 1.398 . S
C1422 C1423 1.391 . S
C1423 H1411 0.950 . S
C1423 C1419 1.393 . S
C1423 C1422 1.391 . S
H1424 C1432 0.950 . S
H1425 C1437 0.950 . S
H1426 C1434 0.950 . S
H1427 C1436 0.950 . S
H1428 C1438 0.950 . S
H1429 C1440 0.950 . S
H1430 C1442 0.950 1_565 S
H1431 C1443 0.950 . S
C1432 H1424 0.950 . S
C1432 C1433 1.386 . S
C1432 C1434 1.391 . S
C1433 C1432 1.386 . S
C1433 C1437 1.393 . S
C1434 H1426 0.950 . S
C1434 C1432 1.391 . S
C1434 C1435 1.400 . S
C1435 C1434 1.400 . S
C1435 C1436 1.398 . S
C1435 C1441 1.491 . S
C1436 H1427 0.950 . S
C1436 C1435 1.398 . S
C1436 C1437 1.391 . S
C1437 H1425 0.950 . S
C1437 C1433 1.393 . S
C1437 C1436 1.391 . S
C1438 H1428 0.950 . S
C1438 C1439 1.386 . S
C1438 C1440 1.391 1_545 S
C1439 C1438 1.386 . S
C1439 C1443 1.393 . S
C1440 H1429 0.950 . S
C1440 C1438 1.391 1_565 S
C1440 C1441 1.400 . S
C1441 C1435 1.491 . S
C1441 C1440 1.400 . S
C1441 C1442 1.398 1_565 S
C1442 H1430 0.950 1_545 S
C1442 C1441 1.398 1_545 S
C1442 C1443 1.391 . S
C1443 H1431 0.950 . S
C1443 C1439 1.393 . S
C1443 C1442 1.391 . S
H1444 C1452 0.950 . S
H1445 C1457 0.950 . S
H1446 C1454 0.950 . S
H1447 C1456 0.950 . S
H1448 C1458 0.950 . S
H1449 C1460 0.950 1_545 S
H1450 C1462 0.950 . S
H1451 C1463 0.950 . S
C1452 H1444 0.950 . S
C1452 C1453 1.386 . S
C1452 C1454 1.391 . S
C1453 C1452 1.386 . S
C1453 C1457 1.393 . S
C1454 H1446 0.950 . S
C1454 C1452 1.391 . S
C1454 C1455 1.400 . S
C1455 C1454 1.400 . S
C1455 C1456 1.398 . S
C1455 C1461 1.491 . S
C1456 H1447 0.950 . S
C1456 C1455 1.398 . S
C1456 C1457 1.391 . S
C1457 H1445 0.950 . S
C1457 C1453 1.393 . S
C1457 C1456 1.391 . S
C1458 H1448 0.950 . S
C1458 C1459 1.386 . S
C1458 C1460 1.391 . S
C1459 C1458 1.386 . S
C1459 C1463 1.393 . S
C1460 H1449 0.950 1_565 S
C1460 C1458 1.391 . S
C1460 C1461 1.400 1_565 S
C1461 C1455 1.491 . S
C1461 C1460 1.400 1_545 S
C1461 C1462 1.398 . S
C1462 H1450 0.950 . S
C1462 C1461 1.398 . S
C1462 C1463 1.391 1_545 S
C1463 H1451 0.950 . S
C1463 C1459 1.393 . S
C1463 C1462 1.391 1_565 S
H1464 C1472 0.950 . S
H1465 C1477 0.950 . S
H1466 C1474 0.950 1_545 S
H1467 C1476 0.950 . S
H1468 C1478 0.950 . S
H1469 C1480 0.950 . S
H1470 C1482 0.950 . S
H1471 C1483 0.950 . S
C1472 H1464 0.950 . S
C1472 C1473 1.386 . S
C1472 C1474 1.391 . S
C1473 C1472 1.386 . S
C1473 C1477 1.393 . S
C1474 H1466 0.950 1_565 S
C1474 C1472 1.391 . S
C1474 C1475 1.400 1_565 S
C1475 C1474 1.400 1_545 S
C1475 C1476 1.398 . S
C1475 C1481 1.491 . S
C1476 H1467 0.950 . S
C1476 C1475 1.398 . S
C1476 C1477 1.391 1_545 S
C1477 H1465 0.950 . S
C1477 C1473 1.393 . S
C1477 C1476 1.391 1_565 S
C1478 H1468 0.950 . S
C1478 C1479 1.386 . S
C1478 C1480 1.391 . S
C1479 C1478 1.386 . S
C1479 C1483 1.393 . S
C1480 H1469 0.950 . S
C1480 C1478 1.391 . S
C1480 C1481 1.400 . S
C1481 C1475 1.491 . S
C1481 C1480 1.400 . S
C1481 C1482 1.398 . S
C1482 H1470 0.950 . S
C1482 C1481 1.398 . S
C1482 C1483 1.391 . S
C1483 H1471 0.950 . S
C1483 C1479 1.393 . S
C1483 C1482 1.391 . S
H1484 C1492 0.950 . S
H1485 C1497 0.950 . S
H1486 C1494 0.950 . S
H1487 C1496 0.950 . S
H1488 C1498 0.950 . S
H1489 C1500 0.950 . S
H1490 C1502 0.950 1_565 S
H1491 C1503 0.950 . S
C1492 H1484 0.950 . S
C1492 C1493 1.386 . S
C1492 C1494 1.391 . S
C1493 C1492 1.386 . S
C1493 C1497 1.393 . S
C1494 H1486 0.950 . S
C1494 C1492 1.391 . S
C1494 C1495 1.400 . S
C1495 C1494 1.400 . S
C1495 C1496 1.398 . S
C1495 C1501 1.491 . S
C1496 H1487 0.950 . S
C1496 C1495 1.398 . S
C1496 C1497 1.391 . S
C1497 H1485 0.950 . S
C1497 C1493 1.393 . S
C1497 C1496 1.391 . S
C1498 H1488 0.950 . S
C1498 C1499 1.386 . S
C1498 C1500 1.391 1_545 S
C1499 C1498 1.386 . S
C1499 C1503 1.393 . S
C1500 H1489 0.950 . S
C1500 C1498 1.391 1_565 S
C1500 C1501 1.400 . S
C1501 C1495 1.491 . S
C1501 C1500 1.400 . S
C1501 C1502 1.398 1_565 S
C1502 H1490 0.950 1_545 S
C1502 C1501 1.398 1_545 S
C1502 C1503 1.391 . S
C1503 H1491 0.950 . S
C1503 C1499 1.393 . S
C1503 C1502 1.391 . S
C553 C8 1.552 . S
C559 C314 1.553 . S
C573 C42 1.554 . S
C579 C280 1.557 . S
C593 C382 1.553 . S
C599 C76 1.552 . S
C613 C110 1.553 . S
C619 C348 1.555 . S
C633 C459 1.554 . S
C639 C153 1.552 . S
C653 C425 1.553 . S
C659 C187 1.551 . S
C673 C527 1.558 . S
C679 C221 1.556 . S
C693 C255 1.556 . S
C699 C493 1.558 . S
C713 C81 1.555 . S
C719 C13 1.555 . S
C733 C115 1.552 . S
C739 C47 1.553 . S
C753 C208 1.552 . S
C759 C140 1.552 . S
C773 C174 1.552 . S
C779 C242 1.552 . S
C793 C353 1.554 . S
C799 C285 1.553 . S
C813 C387 1.553 . S
C819 C319 1.554 . S
C833 C412 1.553 . S
C839 C480 1.553 . S
C853 C446 1.553 . S
C859 C514 1.553 . S
C873 C183 1.520 . S
C879 C4 1.527 . S
C893 C149 1.520 . S
C899 C38 1.526 . S
C913 C72 1.521 . S
C919 C251 1.526 . S
C933 C217 1.522 . S
C939 C106 1.525 . S
C953 C276 1.521 . S
C959 C455 1.525 . S
C973 C421 1.520 . S
C979 C310 1.527 . S
C993 C344 1.520 . S
C999 C523 1.527 . S
C1013 C489 1.527 . S
C1019 C378 1.521 . S
C1033 C51 1.509 . S
C1039 C17 1.508 . S
C1053 C119 1.509 . S
C1059 C85 1.508 . S
C1073 C178 1.506 . S
C1079 C144 1.505 . S
C1093 C212 1.505 . S
C1099 C246 1.507 . S
C1113 C323 1.506 . S
C1119 C289 1.509 . S
C1133 C391 1.509 . S
C1139 C357 1.506 . S
C1153 C416 1.506 . S
C1159 C450 1.505 . S
C1173 C484 1.508 . S
C1179 C518 1.505 . S
C1193 C29 1.260 . S
C1199 C0 1.260 . S
C1213 C63 1.266 . S
C1219 C34 1.266 . S
C1233 C97 1.264 . S
C1239 C68 1.264 . S
C1253 C102 1.266 . S
C1259 C131 1.266 . S
C1273 C136 1.260 . S
C1279 C165 1.260 . S
C1293 C199 1.262 . S
C1299 C170 1.262 . S
C1313 C204 1.265 . S
C1319 C233 1.265 . S
C1333 C238 1.264 . S
C1339 C267 1.264 . S
C1353 C272 1.261 . S
C1359 C301 1.261 . S
C1373 C335 1.266 . S
C1379 C306 1.266 . S
C1393 C340 1.260 . S
C1399 C369 1.260 . S
C1413 C374 1.261 . S
C1419 C403 1.261 . S
C1433 C408 1.261 . S
C1439 C437 1.261 . S
C1453 C442 1.265 . S
C1459 C471 1.265 . S
C1473 C505 1.261 . S
C1479 C476 1.261 . S
C1493 C510 1.260 . S
C1499 C539 1.260 . S
