# Generated by pormake.
# Topology smm, (6)-cn, num edge types: 1
# Building blocks:
#     Node 0, Type 0, BuildingBlock: BETDAH_clean_sbu_0, # of connection points: 6
#     Node 1, Type 0, BuildingBlock: BETDAH_clean_sbu_0, # of connection points: 6
#     Node 2, Type 0, BuildingBlock: BETDAH_clean_sbu_0, # of connection points: 6
#     Node 3, Type 0, BuildingBlock: BETDAH_clean_sbu_0, # of connection points: 6
#     Node 4, Type 0, BuildingBlock: BETDAH_clean_sbu_0, # of connection points: 6
#     Node 5, Type 0, BuildingBlock: BETDAH_clean_sbu_0, # of connection points: 6
#     Node 6, Type 0, BuildingBlock: BETDAH_clean_sbu_0, # of connection points: 6
#     Node 7, Type 0, BuildingBlock: BETDAH_clean_sbu_0, # of connection points: 6
#     Node 8, Type 0, BuildingBlock: BETDAH_clean_sbu_0, # of connection points: 6
#     Edge 9, Type (0, 0), BuildingBlock: AJUNOK_clean_linker_0, # of connection points: 2
#     Edge 10, Type (0, 0), BuildingBlock: AJUNOK_clean_linker_0, # of connection points: 2
#     Edge 11, Type (0, 0), BuildingBlock: AJUNOK_clean_linker_0, # of connection points: 2
#     Edge 12, Type (0, 0), BuildingBlock: AJUNOK_clean_linker_0, # of connection points: 2
#     Edge 13, Type (0, 0), BuildingBlock: AJUNOK_clean_linker_0, # of connection points: 2
#     Edge 14, Type (0, 0), BuildingBlock: AJUNOK_clean_linker_0, # of connection points: 2
#     Edge 15, Type (0, 0), BuildingBlock: AJUNOK_clean_linker_0, # of connection points: 2
#     Edge 16, Type (0, 0), BuildingBlock: AJUNOK_clean_linker_0, # of connection points: 2
#     Edge 17, Type (0, 0), BuildingBlock: AJUNOK_clean_linker_0, # of connection points: 2
#     Edge 18, Type (0, 0), BuildingBlock: AJUNOK_clean_linker_0, # of connection points: 2
#     Edge 19, Type (0, 0), BuildingBlock: AJUNOK_clean_linker_0, # of connection points: 2
#     Edge 20, Type (0, 0), BuildingBlock: AJUNOK_clean_linker_0, # of connection points: 2
#     Edge 21, Type (0, 0), BuildingBlock: AJUNOK_clean_linker_0, # of connection points: 2
#     Edge 22, Type (0, 0), BuildingBlock: AJUNOK_clean_linker_0, # of connection points: 2
#     Edge 23, Type (0, 0), BuildingBlock: AJUNOK_clean_linker_0, # of connection points: 2
#     Edge 24, Type (0, 0), BuildingBlock: AJUNOK_clean_linker_0, # of connection points: 2
#     Edge 25, Type (0, 0), BuildingBlock: AJUNOK_clean_linker_0, # of connection points: 2
#     Edge 26, Type (0, 0), BuildingBlock: AJUNOK_clean_linker_0, # of connection points: 2
#     Edge 27, Type (0, 0), BuildingBlock: AJUNOK_clean_linker_0, # of connection points: 2
#     Edge 28, Type (0, 0), BuildingBlock: AJUNOK_clean_linker_0, # of connection points: 2
#     Edge 29, Type (0, 0), BuildingBlock: AJUNOK_clean_linker_0, # of connection points: 2
#     Edge 30, Type (0, 0), BuildingBlock: AJUNOK_clean_linker_0, # of connection points: 2
#     Edge 31, Type (0, 0), BuildingBlock: AJUNOK_clean_linker_0, # of connection points: 2
#     Edge 32, Type (0, 0), BuildingBlock: AJUNOK_clean_linker_0, # of connection points: 2
#     Edge 33, Type (0, 0), BuildingBlock: AJUNOK_clean_linker_0, # of connection points: 2
#     Edge 34, Type (0, 0), BuildingBlock: AJUNOK_clean_linker_0, # of connection points: 2
#     Edge 35, Type (0, 0), BuildingBlock: AJUNOK_clean_linker_0, # of connection points: 2
# Relax obj value: 0.038
# Max RMSD: 0.116
# Mean RMSD: 0.116
data_MOF--net-smm--node1-BETDAH_clean_sbu_0--edge1-AJUNOK_clean_linker_0
_symmetry_space_group_name_H-M    P1
_symmetry_Int_Tables_number       1
_symmetry_cell_setting            triclinic
loop_
_symmetry_equiv_pos_as_xyz
'x, y, z'
_cell_length_a     57.214648
_cell_length_b     57.170111
_cell_length_c     10.345684
_cell_angle_alpha  90.0345
_cell_angle_beta   89.967753
_cell_angle_gamma 120.07718
loop_
_atom_site_label
_atom_site_type_symbol
_atom_site_fract_x
_atom_site_fract_y
_atom_site_fract_z
_atom_type_partial_charge
Ho0 Ho 0.07273 0.23406 -0.00386 0.0
Ho1 Ho 1.02251 0.17793 0.04147 0.0
C2 C 1.01392 0.2293 0.04169 0.0
C3 C 0.10767 0.28025 0.8965 0.0
C4 C 0.11495 0.30895 0.87847 0.0
C5 C 0.11248 0.31801 0.7555 0.0
C6 C 0.12323 0.34565 0.73068 0.0
C7 C 0.137 0.36491 0.82787 0.0
C8 C 0.13834 0.35578 0.95249 0.0
C9 C 0.12756 0.32815 0.97742 0.0
C10 C 0.06148 0.21859 0.24671 0.0
C11 C 0.08238 0.18383 0.02038 0.0
C12 C 0.98698 0.13006 0.12181 0.0
C13 C 0.97826 0.1012 0.09764 0.0
C14 C 0.97631 0.08456 0.20182 0.0
C15 C 0.9659 0.05676 0.18389 0.0
C16 C 0.95693 0.04491 0.06146 0.0
C17 C 0.95962 0.0617 0.95639 0.0
C18 C 0.97016 0.08953 0.97418 0.0
C19 C 1.03416 0.19297 0.79097 0.0
O20 O 0.03846 0.24339 -0.00905 0.0
O21 O 1.00471 0.20438 0.08525 0.0
O22 O 0.11008 0.27228 0.01194 0.0
O23 O 0.08664 0.2617 0.83372 0.0
O24 O 0.0858 0.23408 0.20298 0.0
O25 O 0.04473 0.21439 0.15851 0.0
O26 O 0.0571 0.16956 0.06177 0.0
O27 O 0.0921 0.20849 0.97279 0.0
O28 O 0.9824 0.1431 0.03059 0.0
O29 O 1.0104 0.14491 0.17793 0.0
O30 O 1.00996 0.1779 0.83533 0.0
O31 O 0.0509 0.19722 0.87941 0.0
H32 H 0.10317 0.3038 0.67674 0.0
H33 H 0.12188 0.35203 0.63376 0.0
H34 H 0.14836 0.37009 0.03013 0.0
H35 H 0.12996 0.32199 0.07314 0.0
H36 H 0.98229 0.09298 0.298 0.0
H37 H 0.96408 0.04438 0.26673 0.0
H38 H 0.9534 0.05327 0.86038 0.0
H39 H 0.97151 0.10178 0.89155 0.0
Ho40 Ho 0.85504 0.86761 -0.00707 0.0
Ho41 Ho 0.91073 0.87222 0.03803 0.0
C42 C 0.858 0.81253 0.04132 0.0
C43 C 0.81013 0.85931 0.89 0.0
C44 C 0.7809 0.84053 0.87097 0.0
C45 C 0.76962 0.81234 0.86725 0.0
C46 C 0.742 0.79542 0.84065 0.0
C47 C 0.72524 0.80644 0.8152 0.0
C48 C 0.73676 0.83471 0.82005 0.0
C49 C 0.76418 0.85148 0.84785 0.0
C50 C 0.8705 0.87163 0.24341 0.0
C51 C 0.90655 0.9271 0.01696 0.0
C52 C 0.95782 0.88217 0.11958 0.0
C53 C 0.98692 0.90113 0.09862 0.0
C54 C 1.0058 0.89552 0.15573 0.0
C55 C 1.03353 0.91281 0.13689 0.0
C56 C 0.04306 0.93621 0.06066 0.0
C57 C 1.02402 0.9417 0.00256 0.0
C58 C 0.99619 0.92432 0.02146 0.0
C59 C 0.89563 0.86907 0.78767 0.0
O60 O 0.84408 0.82339 -0.00709 0.0
O61 O 0.88333 0.82792 0.08059 0.0
O62 O 0.81836 0.86996 0.00475 0.0
O63 O 0.82706 0.85359 0.8325 0.0
O64 O 0.85516 0.88063 0.20011 0.0
O65 O 0.87441 0.8589 0.15497 0.0
O66 O 0.92039 0.91569 0.0589 0.0
O67 O 0.88191 0.91245 0.96883 0.0
O68 O 0.94478 0.86567 0.02456 0.0
O69 O 0.94378 0.89179 0.17466 0.0
O70 O 0.91039 0.85958 0.83161 0.0
O71 O 0.89177 0.8818 0.87641 0.0
H72 H 0.78219 0.80349 0.88363 0.0
H73 H 0.73378 0.77375 0.84077 0.0
H74 H 0.72464 0.84398 0.80006 0.0
H75 H 0.77248 0.87318 0.8489 0.0
H76 H 0.99906 0.87769 0.21533 0.0
H77 H 0.04758 0.90805 0.18354 0.0
H78 H 1.03063 0.95927 0.94135 0.0
H79 H 0.98193 0.92891 0.97563 0.0
Ho80 Ho 0.22046 1.01539 -0.00781 0.0
Ho81 Ho 0.21505 0.0659 0.03655 0.0
C82 C 0.27489 0.07431 0.04045 0.0
C83 C 0.23176 0.98053 0.89211 0.0
C84 C 0.25332 0.97344 0.87442 0.0
C85 C 0.26487 0.97583 0.75146 0.0
C86 C 0.28205 0.96541 0.72738 0.0
C87 C 0.28783 0.95204 0.82529 0.0
C88 C 0.27728 0.95072 0.94977 0.0
C89 C 0.26015 0.96118 0.97398 0.0
C90 C 0.21614 0.0267 0.24225 0.0
C91 C 0.16059 1.00628 0.01631 0.0
C92 C 0.20324 0.10175 0.11672 0.0
C93 C 0.18347 0.11087 0.09267 0.0
C94 C 0.16727 0.11088 0.19477 0.0
C95 C 0.15032 0.12177 0.1781 0.0
C96 C 0.14938 0.13317 0.05916 0.0
C97 C 0.16497 0.13242 0.95575 0.0
C98 C 0.18185 0.12143 0.97225 0.0
C99 C 0.21851 0.05415 0.78646 0.0
O100 O 0.26443 0.04959 -0.00901 0.0
O101 O 0.25913 0.08359 0.08113 0.0
O102 O 0.22127 0.97802 0.0074 0.0
O103 O 0.23424 1.00156 0.82949 0.0
O104 O 0.20723 1.00233 0.19879 0.0
O105 O 0.22885 0.04345 0.15412 0.0
O106 O 0.17196 0.0317 0.05589 0.0
O107 O 0.17527 0.996 0.97127 0.0
O108 O 0.22092 0.10621 0.02585 0.0
O109 O 0.1943 0.07823 0.17255 0.0
O110 O 0.22777 0.07839 0.83062 0.0
O111 O 0.20585 0.03742 0.87484 0.0
H112 H 0.25979 0.98486 0.67222 0.0
H113 H 0.28981 0.96672 0.63051 0.0
H114 H 0.28176 0.94099 0.02794 0.0
H115 H 0.25159 0.95884 0.06973 0.0
H116 H 0.1682 0.10301 0.28871 0.0
H117 H 0.13856 0.12203 0.25958 0.0
H118 H 0.16424 0.14051 0.86214 0.0
H119 H 0.19395 0.12167 0.89122 0.0
Ho120 Ho 0.74015 0.56707 0.33413 0.0
Ho121 Ho 0.68896 0.51141 0.37857 0.0
C122 C 0.68194 0.56388 0.37985 0.0
C123 C 0.7772 0.61207 0.2328 0.0
C124 C 0.78683 0.64089 0.2063 0.0
C125 C 0.80991 0.65515 0.1292 0.0
C126 C 0.82023 0.68256 0.10226 0.0
C127 C 0.80767 0.69643 0.15152 0.0
C128 C 0.78434 0.68203 0.22855 0.0
C129 C 0.77398 0.65444 0.2557 0.0
C130 C 0.72854 0.55142 0.58406 0.0
C131 C 0.74789 0.51534 0.35971 0.0
C132 C 0.6517 0.46443 0.46116 0.0
C133 C 0.64139 0.43528 0.44128 0.0
C134 C 0.61638 0.41663 0.49506 0.0
C135 C 0.60557 0.38887 0.47592 0.0
C136 C 0.61956 0.37911 0.40245 0.0
C137 C 0.6449 0.39783 0.35012 0.0
C138 C 0.65563 0.42573 0.36848 0.0
C139 C 0.70096 0.52649 0.12846 0.0
O140 O 0.70678 0.57796 0.33148 0.0
O141 O 0.6723 0.53877 0.42102 0.0
O142 O 0.77786 0.60497 0.35237 0.0
O143 O 0.75588 0.59408 0.16975 0.0
O144 O 0.75296 0.56644 0.54064 0.0
O145 O 0.71192 0.54771 0.49582 0.0
O146 O 0.7224 0.50149 0.39822 0.0
O147 O 0.75857 0.54038 0.3152 0.0
O148 O 0.64827 0.47736 0.36563 0.0
O149 O 0.67538 0.47851 0.51608 0.0
O150 O 0.67667 0.51178 0.17248 0.0
O151 O 0.71757 0.53035 0.21706 0.0
H152 H 0.82009 0.64506 0.08985 0.0
H153 H 0.83806 0.69291 0.04205 0.0
H154 H 0.77442 0.6922 0.26972 0.0
H155 H 0.75615 0.64379 0.31565 0.0
H156 H 0.60509 0.42358 0.55175 0.0
H157 H 0.58627 0.37497 0.51945 0.0
H158 H 0.65614 0.39089 0.29317 0.0
H159 H 0.67487 0.43982 0.32521 0.0
Ho160 Ho 0.52154 0.20163 0.32632 0.0
Ho161 Ho 0.57762 0.20771 0.37128 0.0
C162 C 0.52614 0.14768 0.3775 0.0
C163 C 0.4756 0.19037 0.2243 0.0
C164 C 0.44686 0.16909 0.20621 0.0
C165 C 0.43769 0.15786 0.08275 0.0
C166 C 0.41005 0.14105 0.05809 0.0
C167 C 0.39088 0.13532 0.15597 0.0
C168 C 0.40011 0.14552 0.28094 0.0
C169 C 0.42775 0.16229 0.30573 0.0
C170 C 0.53697 0.20676 0.57644 0.0
C171 C 0.57181 0.26177 0.35206 0.0
C172 C 0.62519 0.21887 0.45018 0.0
C173 C 0.6543 0.23762 0.42661 0.0
C174 C 0.66457 0.26486 0.39252 0.0
C175 C 0.69246 0.282 0.3736 0.0
C176 C 0.7105 0.27214 0.38732 0.0
C177 C 0.70003 0.24491 0.42202 0.0
C178 C 0.67229 0.22788 0.4411 0.0
C179 C 0.56234 0.20479 0.12049 0.0
O180 O 0.51215 0.15795 0.32422 0.0
O181 O 0.55098 0.16366 0.42143 0.0
O182 O 0.48351 0.20109 0.33925 0.0
O183 O 0.49403 0.18742 0.16335 0.0
O184 O 0.52128 0.21513 0.53083 0.0
O185 O 0.54134 0.19384 0.49032 0.0
O186 O 0.58626 0.25088 0.39254 0.0
O187 O 0.54714 0.24666 0.30491 0.0
O188 O 0.61186 0.20139 0.35885 0.0
O189 O 0.61117 0.22867 0.5038 0.0
O190 O 0.57706 0.19511 0.16289 0.0
O191 O 0.55839 0.21703 0.21084 0.0
H192 H 0.45184 0.16295 0.00361 0.0
H193 H 0.4036 0.13353 0.96088 0.0
H194 H 0.38587 0.14103 0.35907 0.0
H195 H 0.434 0.17061 0.40187 0.0
H196 H 0.65109 0.27287 0.38075 0.0
H197 H 0.69991 0.30289 0.34711 0.0
H198 H 0.71337 0.23681 0.43642 0.0
H199 H 0.66487 0.20702 0.4683 0.0
Ho200 Ho 0.88742 0.34861 0.32312 0.0
Ho201 Ho 0.88319 0.39981 0.36729 0.0
C202 C 0.94254 0.40661 0.3757 0.0
C203 C 0.89588 0.31213 0.21981 0.0
C204 C 0.91468 0.30168 0.20318 0.0
C205 C 0.94285 0.31868 0.19896 0.0
C206 C 0.95977 0.30792 0.17442 0.0
C207 C 0.94878 0.28001 0.15183 0.0
C208 C 0.92055 0.26317 0.15754 0.0
C209 C 0.90377 0.27388 0.18306 0.0
C210 C 0.88257 0.35931 0.57284 0.0
C211 C 0.82807 0.34083 0.34575 0.0
C212 C 0.87237 0.43669 0.44292 0.0
C213 C 0.85228 0.44563 0.4215 0.0
C214 C 0.83329 0.44147 0.51817 0.0
C215 C 0.8157 0.45169 0.50432 0.0
C216 C 0.81665 0.4664 0.39349 0.0
C217 C 0.8356 0.47053 0.29659 0.0
C218 C 0.85317 0.46026 0.31027 0.0
C219 C 0.88592 0.38703 0.11707 0.0
O220 O 0.93164 0.38187 0.32625 0.0
O221 O 0.92724 0.41667 0.41449 0.0
O222 O 0.88464 0.30936 0.33325 0.0
O223 O 0.90201 0.33502 0.16346 0.0
O224 O 0.87368 0.33511 0.52747 0.0
O225 O 0.89586 0.37647 0.48679 0.0
O226 O 0.83959 0.36611 0.38817 0.0
O227 O 0.84264 0.33069 0.2986 0.0
O228 O 0.88888 0.44 0.34805 0.0
O229 O 0.86425 0.4139 0.50471 0.0
O230 O 0.89634 0.41157 0.15942 0.0
O231 O 0.8732 0.37098 0.2072 0.0
H232 H 0.9517 0.34023 0.21324 0.0
H233 H 0.98142 0.32144 0.1737 0.0
H234 H 0.91133 0.24167 0.13979 0.0
H235 H 0.88209 0.26041 0.18466 0.0
H236 H 0.83241 0.43077 0.60607 0.0
H237 H 0.80179 0.44865 0.58216 0.0
H238 H 0.83685 0.48177 0.21009 0.0
H239 H 0.86772 0.46418 0.23435 0.0
Ho240 Ho 0.40794 0.90141 0.66169 0.0
Ho241 Ho 0.35689 0.84535 0.70492 0.0
C242 C 0.34963 0.8978 0.71039 0.0
C243 C 0.44445 0.94676 0.56114 0.0
C244 C 0.45465 0.97599 0.54349 0.0
C245 C 0.43775 0.98725 0.5473 0.0
C246 C 0.44831 1.01493 0.52192 0.0
C247 C 0.47589 0.03176 0.4915 0.0
C248 C 0.49262 1.02027 0.4896 0.0
C249 C 0.48213 0.99279 0.51528 0.0
C250 C 0.39638 0.88552 0.91138 0.0
C251 C 0.41601 0.84971 0.6806 0.0
C252 C 0.31934 0.79839 0.78585 0.0
C253 C 0.30873 0.76912 0.76578 0.0
C254 C 0.32588 0.75832 0.75299 0.0
C255 C 0.31516 0.73041 0.73764 0.0
C256 C 0.28701 0.71264 0.73675 0.0
C257 C 0.26993 0.72364 0.74783 0.0
C258 C 0.28068 0.75154 0.76217 0.0
C259 C 0.36875 0.86107 0.45556 0.0
O260 O 0.37446 0.91212 0.66235 0.0
O261 O 0.34005 0.87253 0.74908 0.0
O262 O 0.44671 0.93842 0.67574 0.0
O263 O 0.42202 0.9297 0.50224 0.0
O264 O 0.42074 0.90116 0.86861 0.0
O265 O 0.37975 0.88157 0.82293 0.0
O266 O 0.39046 0.83531 0.71837 0.0
O267 O 0.42657 0.875 0.63972 0.0
O268 O 0.31608 0.81147 0.69046 0.0
O269 O 0.34289 0.81243 0.8423 0.0
O270 O 0.34448 0.84609 0.49947 0.0
O271 O 0.38542 0.86486 0.54369 0.0
H272 H 0.41646 0.97466 0.56901 0.0
H273 H 0.43494 1.02318 0.52698 0.0
H274 H 0.51385 0.03248 0.46585 0.0
H275 H 0.49551 0.98451 0.511 0.0
H276 H 0.34753 0.77143 0.75596 0.0
H277 H 0.32894 0.72275 0.72635 0.0
H278 H 0.24819 0.71059 0.74813 0.0
H279 H 0.26703 0.7594 0.77215 0.0
Ho280 Ho 0.18822 0.53547 0.66508 0.0
Ho281 Ho 0.24413 0.54079 0.70991 0.0
C282 C 0.1923 0.48095 0.7116 0.0
C283 C 0.14294 0.52669 0.56425 0.0
C284 C 0.11428 0.50709 0.53616 0.0
C285 C 0.10072 0.51457 0.44724 0.0
C286 C 0.07332 0.49739 0.42071 0.0
C287 C 0.05874 0.47216 0.48216 0.0
C288 C 0.07246 0.46445 0.57043 0.0
C289 C 0.10004 0.4818 0.5973 0.0
C290 C 0.20386 0.53977 0.91522 0.0
C291 C 0.23888 0.59508 0.69682 0.0
C292 C 0.2919 0.55256 0.78853 0.0
C293 C 0.32086 0.57233 0.76314 0.0
C294 C 0.33718 0.58914 0.86358 0.0
C295 C 0.36503 0.60618 0.84563 0.0
C296 C 0.3773 0.60663 0.72707 0.0
C297 C 0.36084 0.59038 0.62533 0.0
C298 C 0.33297 0.5734 0.6431 0.0
C299 C 0.22924 0.53788 0.4595 0.0
O300 O 0.17821 0.49145 0.66103 0.0
O301 O 0.21728 0.49669 0.75388 0.0
O302 O 0.14981 0.53404 0.68449 0.0
O303 O 0.16134 0.52427 0.50005 0.0
O304 O 0.18863 0.54888 0.87161 0.0
O305 O 0.20778 0.52696 0.8271 0.0
O306 O 0.25285 0.58365 0.73569 0.0
O307 O 0.21433 0.58066 0.64722 0.0
O308 O 0.27845 0.53474 0.69849 0.0
O309 O 0.27747 0.56159 0.84475 0.0
O310 O 0.24409 0.52851 0.50338 0.0
O311 O 0.22508 0.55037 0.54852 0.0
H312 H 0.11132 0.53398 0.39889 0.0
H313 H 0.06348 0.50389 0.35175 0.0
H314 H 0.06174 0.44532 0.62084 0.0
H315 H 0.11011 0.47565 0.66656 0.0
H316 H 0.32847 0.58865 0.95725 0.0
H317 H 0.37712 0.61842 0.92592 0.0
H318 H 0.36956 0.59068 0.53196 0.0
H319 H 0.32104 0.56082 0.56331 0.0
Ho320 Ho 0.55494 0.68307 0.65488 0.0
Ho321 Ho 0.54963 0.73373 0.70038 0.0
C322 C 0.60941 0.74153 0.69975 0.0
C323 C 0.56391 0.64674 0.55346 0.0
C324 C 0.5836 0.63793 0.52347 0.0
C325 C 0.57587 0.6167 0.43517 0.0
C326 C 0.59279 0.6062 0.40913 0.0
C327 C 0.61791 0.61664 0.47109 0.0
C328 C 0.62622 0.63871 0.55602 0.0
C329 C 0.60911 0.64923 0.58257 0.0
C330 C 0.55071 0.69447 0.90521 0.0
C331 C 0.49513 0.67401 0.68212 0.0
C332 C 0.53933 0.77057 0.78312 0.0
C333 C 0.52009 0.78038 0.76377 0.0
C334 C 0.52079 0.79984 0.84874 0.0
C335 C 0.5037 0.81049 0.83013 0.0
C336 C 0.48542 0.80185 0.72613 0.0
C337 C 0.4847 0.78222 0.64103 0.0
C338 C 0.50186 0.77155 0.65979 0.0
C339 C 0.55279 0.72187 0.44993 0.0
O340 O 0.59877 0.71699 0.64851 0.0
O341 O 0.59386 0.75091 0.74322 0.0
O342 O 0.55695 0.64638 0.67431 0.0
O343 O 0.56576 0.66728 0.48894 0.0
O344 O 0.54151 0.67008 0.86145 0.0
O345 O 0.56348 0.71119 0.817 0.0
O346 O 0.50633 0.69954 0.72066 0.0
O347 O 0.50989 0.66394 0.63636 0.0
O348 O 0.5556 0.7741 0.68694 0.0
O349 O 0.53012 0.74701 0.83879 0.0
O350 O 0.56218 0.74613 0.4941 0.0
O351 O 0.54022 0.70518 0.53867 0.0
H352 H 0.55637 0.60782 0.38777 0.0
H353 H 0.58602 0.58955 0.34159 0.0
H354 H 0.64552 0.6472 0.60486 0.0
H355 H 0.61555 0.66575 0.65055 0.0
H356 H 0.53476 0.80699 0.92934 0.0
H357 H 0.50468 0.82542 0.89783 0.0
H358 H 0.47122 0.77546 0.55864 0.0
H359 H 0.50113 0.75668 0.59247 0.0
C360 C 0.13815 0.40609 0.7317 0.0
C361 C 0.15137 0.39443 0.79728 0.0
C362 C 0.15154 0.4339 0.70262 0.0
C363 C 0.17883 0.45118 0.73666 0.0
H364 H 0.11714 0.39368 0.70439 0.0
H365 H 0.14027 0.4419 0.6541 0.0
S366 S 0.22311 0.42998 0.9009 0.0
N367 N 0.19362 0.40193 0.88905 0.0
N368 N 0.21882 0.45383 0.83505 0.0
C369 C 0.1924 0.43949 0.79971 0.0
C370 C 0.17869 0.41128 0.82989 0.0
C371 C 0.67685 0.79469 0.84172 0.0
C372 C 0.69579 0.78893 0.78499 0.0
C373 C 0.64924 0.7795 0.81215 0.0
C374 C 0.63911 0.75764 0.72487 0.0
H375 H 0.68337 0.81105 0.91072 0.0
H376 H 0.63572 0.78486 0.85983 0.0
S377 S 0.68014 0.73439 0.54653 0.0
N378 N 0.70241 0.76011 0.63403 0.0
N379 N 0.65047 0.73116 0.58069 0.0
C380 C 0.65776 0.7515 0.66759 0.0
C381 C 0.68602 0.76716 0.6972 0.0
C382 C 0.32827 0.95146 0.73008 0.0
C383 C 0.30335 0.93802 0.79563 0.0
C384 C 0.34298 0.93835 0.70165 0.0
C385 C 0.33322 0.91112 0.73617 0.0
H386 H 0.33667 0.97242 0.70215 0.0
H387 H 0.36223 0.94976 0.65284 0.0
S388 S 0.2678 0.86634 0.90117 0.0
N389 N 0.2689 0.89564 0.88839 0.0
N390 N 0.29608 0.87096 0.83551 0.0
C391 C 0.30794 0.89734 0.79944 0.0
C392 C 0.29317 0.91077 0.82904 0.0
C393 C 0.34975 0.09535 0.05883 0.0
C394 C 0.36137 0.12011 0.1259 0.0
C395 C 0.32195 0.08086 0.03003 0.0
C396 C 0.30463 0.09067 0.06582 0.0
H397 H 0.36219 0.08689 0.03006 0.0
H398 H 0.31401 0.06171 0.98013 0.0
S399 S 0.32565 0.15576 0.23489 0.0
N400 N 0.35375 0.15453 0.2213 0.0
N401 N 0.30185 0.12768 0.16781 0.0
C402 C 0.31625 0.11581 0.13051 0.0
C403 C 0.34446 0.13038 0.16043 0.0
C404 C 0.9609 0.24374 0.183 0.0
C405 C 0.96629 0.26807 0.12305 0.0
C406 C 0.97615 0.23134 0.15473 0.0
C407 C 0.99766 0.24272 0.06557 0.0
H408 H 0.9448 0.23421 0.25345 0.0
H409 H 0.97115 0.21277 0.20487 0.0
S410 S 1.01963 0.30575 0.87787 0.0
N411 N 0.99423 0.30265 0.96668 0.0
N412 N 1.02326 0.27969 0.91551 0.0
C413 C 1.00336 0.26709 0.00485 0.0
C414 C 0.98766 0.27967 0.03319 0.0
C415 C 0.85964 0.77125 0.1111 0.0
C416 C 0.84437 0.78272 0.06572 0.0
C417 C 0.84757 0.74356 0.13921 0.0
C418 C 0.81961 0.72595 0.12415 0.0
H419 H 0.88122 0.78373 0.1255 0.0
H420 H 0.8603 0.7359 0.17423 0.0
S421 S 0.77026 0.7452 0.00719 0.0
N422 N 0.79943 0.77383 0.00694 0.0
N423 N 0.77695 0.72186 0.05883 0.0
C424 C 0.804 0.737 0.07913 0.0
C425 C 0.81631 0.76527 0.0499 0.0
C426 C 1.01219 0.46591 0.459 0.0
C427 C 1.02916 0.45465 0.45603 0.0
C428 C 0.98444 0.45029 0.43224 0.0
C429 C 0.97232 0.42267 0.40003 0.0
H430 H 1.0204 0.48703 0.48342 0.0
H431 H 0.97243 0.46008 0.43663 0.0
S432 S 1.00794 0.38341 0.3773 0.0
N433 N 1.0319 0.4142 0.41691 0.0
N434 N 0.97983 0.38475 0.36745 0.0
C435 C 0.98911 0.41114 0.39642 0.0
C436 C 1.01742 0.42709 0.42449 0.0
C437 C 0.66147 0.61814 0.40938 0.0
C438 C 0.63443 0.60334 0.45105 0.0
C439 C 0.6766 0.6053 0.38444 0.0
C440 C 0.66538 0.57717 0.40161 0.0
H441 H 0.67085 0.63974 0.39398 0.0
H442 H 0.69731 0.61759 0.35234 0.0
S443 S 0.59557 0.52963 0.5162 0.0
N444 N 0.59739 0.55935 0.51311 0.0
N445 N 0.62533 0.53519 0.46649 0.0
C446 C 0.63837 0.5623 0.44502 0.0
C447 C 0.62306 0.57536 0.46969 0.0
C448 C 0.52479 0.10792 0.48848 0.0
C449 C 0.51273 0.11797 0.40298 0.0
C450 C 0.51254 0.08027 0.51763 0.0
C451 C 0.48764 0.06123 0.46253 0.0
H452 H 0.54384 0.12155 0.53478 0.0
H453 H 0.52265 0.07376 0.58484 0.0
S454 S 0.44792 0.07653 0.22854 0.0
N455 N 0.47442 0.10631 0.26156 0.0
N456 N 0.4517 0.05436 0.31492 0.0
C457 C 0.47531 0.07089 0.37658 0.0
C458 C 0.48777 0.09916 0.34706 0.0
C459 C 0.10551 0.13282 0.08592 0.0
C460 C 0.13257 0.14626 0.04452 0.0
C461 C 0.0895 0.14501 0.07637 0.0
C462 C 0.09989 0.1713 0.02576 0.0
H463 H 0.09656 0.1126 0.12565 0.0
H464 H 0.06881 0.13365 0.1099 0.0
S465 S 0.17006 0.21553 0.90774 0.0
N466 N 0.16934 0.18753 0.9537 0.0
N467 N 0.13943 0.21046 0.93497 0.0
C468 C 0.12701 0.18498 0.98397 0.0
C469 C 0.14327 0.17247 -0.00659 0.0
C470 C 0.94468 0.97292 0.08271 0.0
C471 C 0.91929 0.95722 0.02283 0.0
C472 C 0.95675 1.00115 0.09399 0.0
C473 C 0.94415 1.01501 0.04482 0.0
H474 H 0.9553 0.96336 0.12267 0.0
H475 H 0.97622 1.01226 0.14142 0.0
S476 S 0.87756 0.98387 0.88075 0.0
N477 N 0.88199 0.95812 0.91395 0.0
N478 N 0.90471 1.01096 0.93576 0.0
C479 C 0.91892 0.99971 0.98396 0.0
C480 C 0.90652 0.97094 0.97297 0.0
C481 C 0.0897 0.94415 0.01232 0.0
C482 C 0.0728 0.95471 0.04343 0.0
C483 C 0.11786 0.96094 0.00136 0.0
C484 C 0.13046 0.98904 0.02219 0.0
H485 H 0.08106 0.92265 -0.00367 0.0
H486 H 0.12985 0.95166 0.97831 0.0
S487 S 0.09521 0.02687 0.10594 0.0
N488 N 0.07074 0.99509 0.09493 0.0
N489 N 0.12336 0.02666 0.07365 0.0
C490 C 0.11368 0.9999 0.05201 0.0
C491 C 0.085 0.98277 0.06259 0.0
C492 C 0.79273 0.51718 0.33851 0.0
C493 C 0.76481 0.50213 0.365 0.0
C494 C 0.80921 0.50543 0.34615 0.0
C495 C 0.79854 0.47813 0.38091 0.0
H496 H 0.80212 0.53837 0.31307 0.0
H497 H 0.83062 0.51802 0.32713 0.0
S498 S 0.72653 0.42905 0.45 0.0
N499 N 0.72714 0.45775 0.4216 0.0
N500 N 0.75805 0.4359 0.43431 0.0
C501 C 0.77063 0.46266 0.40496 0.0
C502 C 0.75382 0.47457 0.39735 0.0
C503 C 0.6224 0.33657 0.41173 0.0
C504 C 0.6076 0.34943 0.38156 0.0
C505 C 0.61078 0.30836 0.4008 0.0
C506 C 0.58394 0.29181 0.35797 0.0
H507 H 0.64291 0.34833 0.44722 0.0
H508 H 0.62296 0.2995 0.42747 0.0
S509 S 0.53743 0.31615 0.25628 0.0
N510 N 0.56533 0.34384 0.29993 0.0
N511 N 0.54346 0.29107 0.27877 0.0
C512 C 0.56923 0.30466 0.32383 0.0
C513 C 0.58104 0.33334 0.33585 0.0
C514 C 0.75411 0.3154 0.43088 0.0
C515 C 0.74023 0.29015 0.36842 0.0
C516 C 0.78237 0.33177 0.42153 0.0
C517 C 0.79797 0.32361 0.34916 0.0
H518 H 0.74314 0.32226 0.49039 0.0
H519 H 0.79206 0.35075 0.47373 0.0
S520 S 0.77089 0.26054 0.15518 0.0
N521 N 0.74395 0.25877 0.22315 0.0
N522 N 0.7968 0.28919 0.2061 0.0
C523 C 0.78415 0.29874 0.28282 0.0
C524 C 0.75541 0.28214 0.29232 0.0
C525 C 0.4781 0.84177 0.71408 0.0
C526 C 0.46742 0.81358 0.70731 0.0
C527 C 0.46148 0.85328 0.70199 0.0
C528 C 0.43338 0.83708 0.6843 0.0
H529 H 0.49955 0.8551 0.72906 0.0
H530 H 0.47069 0.87503 0.70971 0.0
S531 S 0.39539 0.76226 0.65447 0.0
N532 N 0.42694 0.76982 0.67856 0.0
N533 N 0.39588 0.79138 0.6541 0.0
C534 C 0.42252 0.80892 0.67478 0.0
C535 C 0.43947 0.79721 0.68644 0.0
C536 C 0.24174 0.63902 0.63404 0.0
C537 C 0.25154 0.62504 0.70766 0.0
C538 C 0.25343 0.66726 0.64305 0.0
C539 C 0.27535 0.68272 0.72647 0.0
H540 H 0.22503 0.62814 0.56791 0.0
H541 H 0.24534 0.67708 0.58333 0.0
S542 S 0.30734 0.6558 0.94763 0.0
N543 N 0.28392 0.6289 0.87102 0.0
N544 N 0.3054 0.68163 0.88925 0.0
C545 C 0.28512 0.66896 0.80177 0.0
C546 C 0.27335 0.64026 0.79214 0.0
C547 C 0.44914 0.66695 0.73835 0.0
C548 C 0.46504 0.65646 0.68907 0.0
C549 C 0.42092 0.65084 0.74957 0.0
C550 C 0.40724 0.62355 0.71113 0.0
H551 H 0.45852 0.68781 0.76958 0.0
H552 H 0.40969 0.6599 0.78818 0.0
S553 S 0.43896 0.5857 0.57893 0.0
N554 N 0.46453 0.61654 0.60281 0.0
N555 N 0.41172 0.58648 0.62461 0.0
C556 C 0.42275 0.61275 0.66139 0.0
C557 C 0.45151 0.6291 0.6503 0.0
C558 C 0.06795 0.2134 0.61065 0.0
C559 C 0.04087 0.19935 0.65228 0.0
C560 C 0.07449 0.21942 0.4792 0.0
C561 C 0.05421 0.21147 0.38464 0.0
H562 H 0.08421 0.2198 0.67997 0.0
H563 H 0.0956 0.23042 0.45163 0.0
S564 S 0.98018 0.17359 0.44328 0.0
N565 N 0.99368 0.1774 0.58813 0.0
N566 N 1.0059 0.18831 0.34247 0.0
C567 C 1.02709 0.19715 0.42523 0.0
C568 C 1.02044 0.1912 0.55867 0.0
C569 C 0.87573 0.88306 0.60768 0.0
C570 C 0.88935 0.86962 0.64899 0.0
C571 C 0.86985 0.88382 0.47622 0.0
C572 C 0.87749 0.87126 0.38135 0.0
H573 H 0.86956 0.89309 0.67726 0.0
H574 H 0.85919 0.89426 0.4489 0.0
S575 S 0.91414 0.83392 0.43911 0.0
N576 N 0.91055 0.84372 0.58416 0.0
N577 N 0.89984 0.84537 0.33858 0.0
C578 C 0.89136 0.858 0.42163 0.0
C579 C 0.89719 0.85711 0.55505 0.0
C580 C 0.20483 1.02031 0.60627 0.0
C581 C 0.21799 0.04741 0.64777 0.0
C582 C 0.20411 1.01373 0.47479 0.0
C583 C 0.2164 0.03401 0.38012 0.0
H584 H 0.19499 1.00405 0.67573 0.0
H585 H 0.19391 0.99261 0.44731 0.0
S586 S 0.25283 0.10812 0.43838 0.0
N587 N 0.24329 0.09464 0.58339 0.0
N588 N 0.24163 0.08236 0.33761 0.0
C589 C 0.22934 0.06117 0.42055 0.0
C590 C 0.23022 0.06785 0.55402 0.0
C591 C 0.74137 0.55155 0.81619 0.0
C592 C 0.72116 0.54444 0.72196 0.0
C593 C 0.73477 0.54572 0.94769 0.0
C594 C 0.70774 0.53271 -0.01027 0.0
H595 H 0.76245 0.56174 0.78831 0.0
H596 H 0.75098 0.55143 0.01674 0.0
S597 S 0.6472 0.50951 0.78166 0.0
N598 N 0.67292 0.52325 0.68047 0.0
N599 N 0.66063 0.51268 0.92627 0.0
C600 C 0.68736 0.5254 0.89641 0.0
C601 C 0.69406 0.53117 0.76291 0.0
C602 C 0.55599 0.19242 0.75779 0.0
C603 C 0.5437 0.20707 0.71504 0.0
C604 C 0.56184 0.19175 0.88909 0.0
C605 C 0.55577 0.20579 0.98257 0.0
H606 H 0.56094 0.18118 0.68958 0.0
H607 H 0.57115 0.18006 0.91746 0.0
S608 S 0.52468 0.24821 0.92004 0.0
N609 N 0.52629 0.23653 0.77632 0.0
N610 N 0.5376 0.23557 0.02219 0.0
C611 C 0.54384 0.22084 0.94079 0.0
C612 C 0.53775 0.22141 0.80726 0.0
C613 C 0.8979 0.39279 0.75424 0.0
C614 C 0.88257 0.36587 0.71144 0.0
C615 C 0.89894 0.3994 0.88564 0.0
C616 C 0.88461 0.37937 0.97915 0.0
H617 H 0.9094 0.40891 0.68596 0.0
H618 H 0.91113 0.42039 0.91407 0.0
S619 S 0.8405 0.30594 0.91648 0.0
N620 N 0.85217 0.31912 0.77261 0.0
N621 N 0.85391 0.33153 0.0188 0.0
C622 C 0.86891 0.35241 0.93733 0.0
C623 C 0.86793 0.34567 0.80366 0.0
C624 C 0.40259 0.88087 0.27552 0.0
C625 C 0.37551 0.86726 0.31695 0.0
C626 C 0.40921 0.88653 0.144 0.0
C627 C 0.38898 0.87868 0.04926 0.0
H628 H 0.41881 0.88717 0.34503 0.0
H629 H 0.43032 0.89718 0.11652 0.0
S630 S 0.31493 0.84207 0.10754 0.0
N631 N 0.32835 0.84591 0.2526 0.0
N632 N 0.3407 0.85622 0.00672 0.0
C633 C 0.36184 0.86486 0.08968 0.0
C634 C 0.35513 0.85925 0.2232 0.0
C635 C 0.2035 0.55242 0.14741 0.0
C636 C 0.21106 0.53971 0.05303 0.0
C637 C 0.20946 0.55186 0.27889 0.0
C638 C 0.22304 0.53842 0.32073 0.0
H639 H 0.19282 0.56282 0.1197 0.0
H640 H 0.20337 0.56202 0.34807 0.0
S641 S 0.24792 0.50261 0.11203 0.0
N642 N 0.23355 0.51393 0.01108 0.0
N643 N 0.24431 0.51252 0.25677 0.0
C644 C 0.2309 0.52585 0.22719 0.0
C645 C 0.22502 0.52658 0.09373 0.0
C646 C 0.53854 0.68805 0.26896 0.0
C647 C 0.55233 0.71511 0.31112 0.0
C648 C 0.53793 0.6815 0.13742 0.0
C649 C 0.55093 0.70177 0.04323 0.0
H650 H 0.5281 0.6718 0.33791 0.0
H651 H 0.52722 0.6604 0.10948 0.0
S652 S 0.58923 0.77581 0.10324 0.0
N653 N 0.57902 0.7623 0.24778 0.0
N654 N 0.57755 0.75009 0.00199 0.0
C655 C 0.5645 0.7289 0.08432 0.0
C656 C 0.56527 0.73554 0.21785 0.0
loop_
_geom_bond_atom_site_label_1
_geom_bond_atom_site_label_2
_geom_bond_distance
_geom_bond_site_symmetry_2
_ccdc_geom_bond_type
Ho0 C3 2.811 1_554 S
Ho0 O20 2.322 . S
Ho0 O22 2.378 . S
Ho0 O23 2.524 1_554 S
Ho0 O24 2.381 . S
Ho0 O25 2.669 . S
Ho0 O27 2.346 . S
Ho0 O31 2.305 1_554 S
Ho1 C12 2.811 1_556 S
Ho1 O21 2.346 1_556 S
Ho1 O25 2.305 1_656 S
Ho1 O26 2.322 1_655 S
Ho1 O28 2.378 . S
Ho1 O29 2.524 1_556 S
Ho1 O30 2.381 . S
Ho1 O31 2.669 1_655 S
C2 O20 1.259 1_655 S
C2 O21 1.268 . S
C3 Ho0 2.811 1_556 S
C3 C4 1.488 . S
C3 O22 1.215 1_556 S
C3 O23 1.289 . S
C4 C3 1.488 . S
C4 C5 1.348 . S
C4 C9 1.413 1_556 S
C5 C4 1.348 . S
C5 C6 1.442 . S
C5 H32 0.930 . S
C6 C5 1.442 . S
C6 C7 1.381 . S
C6 H33 0.931 . S
C7 C6 1.381 . S
C7 C8 1.321 1_556 S
C8 C7 1.321 1_554 S
C8 C9 1.403 . S
C8 H34 0.934 . S
C9 C4 1.413 1_554 S
C9 C8 1.403 . S
C9 H35 0.930 . S
C10 O24 1.275 . S
C10 O25 1.256 . S
C11 O26 1.259 . S
C11 O27 1.268 1_556 S
C12 Ho1 2.811 1_554 S
C12 C13 1.488 . S
C12 O28 1.215 1_554 S
C12 O29 1.289 . S
C13 C12 1.488 . S
C13 C14 1.348 . S
C13 C18 1.413 1_554 S
C14 C13 1.348 . S
C14 C15 1.442 . S
C14 H36 0.930 . S
C15 C14 1.442 . S
C15 C16 1.381 . S
C15 H37 0.931 . S
C16 C15 1.381 . S
C16 C17 1.321 1_554 S
C17 C16 1.321 1_556 S
C17 C18 1.403 . S
C17 H38 0.934 . S
C18 C13 1.413 1_556 S
C18 C17 1.403 . S
C18 H39 0.930 . S
C19 O30 1.275 1_455 S
C19 O31 1.256 . S
O20 Ho0 2.322 . S
O20 C2 1.259 1_455 S
O21 Ho1 2.346 1_554 S
O21 C2 1.268 . S
O22 Ho0 2.378 . S
O22 C3 1.215 1_554 S
O23 Ho0 2.524 1_556 S
O23 C3 1.289 . S
O24 Ho0 2.381 . S
O24 C10 1.275 . S
O25 Ho0 2.669 . S
O25 Ho1 2.305 1_454 S
O25 C10 1.256 . S
O26 Ho1 2.322 1_455 S
O26 C11 1.259 . S
O27 Ho0 2.346 . S
O27 C11 1.268 1_554 S
O28 Ho1 2.378 . S
O28 C12 1.215 1_556 S
O29 Ho1 2.524 1_554 S
O29 C12 1.289 . S
O30 Ho1 2.381 . S
O30 C19 1.275 1_655 S
O31 Ho0 2.305 1_556 S
O31 Ho1 2.669 1_455 S
O31 C19 1.256 . S
H32 C5 0.930 . S
H33 C6 0.931 . S
H34 C8 0.934 . S
H35 C9 0.930 . S
H36 C14 0.930 . S
H37 C15 0.931 . S
H38 C17 0.934 . S
H39 C18 0.930 . S
Ho40 C43 2.811 1_554 S
Ho40 O60 2.322 . S
Ho40 O62 2.378 . S
Ho40 O63 2.524 1_554 S
Ho40 O64 2.381 . S
Ho40 O65 2.669 . S
Ho40 O67 2.346 . S
Ho40 O71 2.305 1_554 S
Ho41 C52 2.811 1_556 S
Ho41 O61 2.346 1_556 S
Ho41 O65 2.305 1_556 S
Ho41 O66 2.322 . S
Ho41 O68 2.378 . S
Ho41 O69 2.524 1_556 S
Ho41 O70 2.381 . S
Ho41 O71 2.669 . S
C42 O60 1.259 . S
C42 O61 1.268 . S
C43 Ho40 2.811 1_556 S
C43 C44 1.488 . S
C43 O62 1.215 1_556 S
C43 O63 1.289 . S
C44 C43 1.488 . S
C44 C45 1.348 . S
C44 C49 1.413 1_556 S
C45 C44 1.348 . S
C45 C46 1.442 . S
C45 H72 0.930 . S
C46 C45 1.442 . S
C46 C47 1.381 . S
C46 H73 0.931 . S
C47 C46 1.381 . S
C47 C48 1.321 1_556 S
C48 C47 1.321 1_554 S
C48 C49 1.403 . S
C48 H74 0.934 . S
C49 C44 1.413 1_554 S
C49 C48 1.403 . S
C49 H75 0.930 . S
C50 O64 1.275 . S
C50 O65 1.256 . S
C51 O66 1.259 . S
C51 O67 1.268 1_556 S
C52 Ho41 2.811 1_554 S
C52 C53 1.488 . S
C52 O68 1.215 1_554 S
C52 O69 1.289 . S
C53 C52 1.488 . S
C53 C54 1.348 . S
C53 C58 1.413 1_554 S
C54 C53 1.348 . S
C54 C55 1.442 . S
C54 H76 0.930 . S
C55 C54 1.442 . S
C55 C56 1.381 1_655 S
C55 H77 0.933 . S
C56 C55 1.381 1_455 S
C56 C57 1.322 1_554 S
C57 C56 1.322 1_556 S
C57 C58 1.393 1_455 S
C57 H78 0.943 . S
C58 C53 1.413 1_556 S
C58 C57 1.393 1_655 S
C58 H79 0.930 . S
C59 O70 1.275 . S
C59 O71 1.256 . S
O60 Ho40 2.322 . S
O60 C42 1.259 . S
O61 Ho41 2.346 1_554 S
O61 C42 1.268 . S
O62 Ho40 2.378 . S
O62 C43 1.215 1_554 S
O63 Ho40 2.524 1_556 S
O63 C43 1.289 . S
O64 Ho40 2.381 . S
O64 C50 1.275 . S
O65 Ho40 2.669 . S
O65 Ho41 2.305 1_554 S
O65 C50 1.256 . S
O66 Ho41 2.322 . S
O66 C51 1.259 . S
O67 Ho40 2.346 . S
O67 C51 1.268 1_554 S
O68 Ho41 2.378 . S
O68 C52 1.215 1_556 S
O69 Ho41 2.524 1_554 S
O69 C52 1.289 . S
O70 Ho41 2.381 . S
O70 C59 1.275 . S
O71 Ho40 2.305 1_556 S
O71 Ho41 2.669 . S
O71 C59 1.256 . S
H72 C45 0.930 . S
H73 C46 0.931 . S
H74 C48 0.934 . S
H75 C49 0.930 . S
H76 C54 0.930 . S
H77 C55 0.933 . S
H78 C57 0.943 . S
H79 C58 0.930 . S
Ho80 C83 2.811 1_554 S
Ho80 O100 2.322 1_565 S
Ho80 O102 2.378 . S
Ho80 O103 2.524 1_554 S
Ho80 O104 2.381 . S
Ho80 O105 2.669 1_565 S
Ho80 O107 2.346 . S
Ho80 O111 2.305 1_564 S
Ho81 C92 2.811 1_556 S
Ho81 O101 2.346 1_556 S
Ho81 O105 2.305 1_556 S
Ho81 O106 2.322 . S
Ho81 O108 2.378 . S
Ho81 O109 2.524 1_556 S
Ho81 O110 2.381 . S
Ho81 O111 2.669 . S
C82 O100 1.259 . S
C82 O101 1.268 . S
C83 Ho80 2.811 1_556 S
C83 C84 1.488 . S
C83 O102 1.215 1_556 S
C83 O103 1.289 . S
C84 C83 1.488 . S
C84 C85 1.348 . S
C84 C89 1.413 1_556 S
C85 C84 1.348 . S
C85 C86 1.442 . S
C85 H112 0.930 . S
C86 C85 1.442 . S
C86 C87 1.381 . S
C86 H113 0.931 . S
C87 C86 1.381 . S
C87 C88 1.321 1_556 S
C88 C87 1.321 1_554 S
C88 C89 1.403 . S
C88 H114 0.934 . S
C89 C84 1.413 1_554 S
C89 C88 1.403 . S
C89 H115 0.930 . S
C90 O104 1.275 1_545 S
C90 O105 1.256 . S
C91 O106 1.259 1_565 S
C91 O107 1.268 1_556 S
C92 Ho81 2.811 1_554 S
C92 C93 1.488 . S
C92 O108 1.215 1_554 S
C92 O109 1.289 . S
C93 C92 1.488 . S
C93 C94 1.348 . S
C93 C98 1.413 1_554 S
C94 C93 1.348 . S
C94 C95 1.442 . S
C94 H116 0.930 . S
C95 C94 1.442 . S
C95 C96 1.381 . S
C95 H117 0.931 . S
C96 C95 1.381 . S
C96 C97 1.321 1_554 S
C97 C96 1.321 1_556 S
C97 C98 1.403 . S
C97 H118 0.934 . S
C98 C93 1.413 1_556 S
C98 C97 1.403 . S
C98 H119 0.930 . S
C99 O110 1.275 . S
C99 O111 1.256 . S
O100 Ho80 2.322 1_545 S
O100 C82 1.259 . S
O101 Ho81 2.346 1_554 S
O101 C82 1.268 . S
O102 Ho80 2.378 . S
O102 C83 1.215 1_554 S
O103 Ho80 2.524 1_556 S
O103 C83 1.289 . S
O104 Ho80 2.381 . S
O104 C90 1.275 1_565 S
O105 Ho80 2.669 1_545 S
O105 Ho81 2.305 1_554 S
O105 C90 1.256 . S
O106 Ho81 2.322 . S
O106 C91 1.259 1_545 S
O107 Ho80 2.346 . S
O107 C91 1.268 1_554 S
O108 Ho81 2.378 . S
O108 C92 1.215 1_556 S
O109 Ho81 2.524 1_554 S
O109 C92 1.289 . S
O110 Ho81 2.381 . S
O110 C99 1.275 . S
O111 Ho80 2.305 1_546 S
O111 Ho81 2.669 . S
O111 C99 1.256 . S
H112 C85 0.930 . S
H113 C86 0.931 . S
H114 C88 0.934 . S
H115 C89 0.930 . S
H116 C94 0.930 . S
H117 C95 0.931 . S
H118 C97 0.934 . S
H119 C98 0.930 . S
Ho120 C123 2.811 . S
Ho120 O140 2.322 . S
Ho120 O142 2.378 . S
Ho120 O143 2.524 . S
Ho120 O144 2.381 . S
Ho120 O145 2.669 . S
Ho120 O147 2.346 . S
Ho120 O151 2.305 . S
Ho121 C132 2.811 . S
Ho121 O141 2.346 . S
Ho121 O145 2.305 . S
Ho121 O146 2.322 . S
Ho121 O148 2.378 . S
Ho121 O149 2.524 . S
Ho121 O150 2.381 . S
Ho121 O151 2.669 . S
C122 O140 1.259 . S
C122 O141 1.268 . S
C123 Ho120 2.811 . S
C123 C124 1.488 . S
C123 O142 1.215 . S
C123 O143 1.289 . S
C124 C123 1.488 . S
C124 C125 1.348 . S
C124 C129 1.413 . S
C125 C124 1.348 . S
C125 C126 1.442 . S
C125 H152 0.930 . S
C126 C125 1.442 . S
C126 C127 1.381 . S
C126 H153 0.931 . S
C127 C126 1.381 . S
C127 C128 1.321 . S
C128 C127 1.321 . S
C128 C129 1.403 . S
C128 H154 0.934 . S
C129 C124 1.413 . S
C129 C128 1.403 . S
C129 H155 0.930 . S
C130 O144 1.275 . S
C130 O145 1.256 . S
C131 O146 1.259 . S
C131 O147 1.268 . S
C132 Ho121 2.811 . S
C132 C133 1.488 . S
C132 O148 1.215 . S
C132 O149 1.289 . S
C133 C132 1.488 . S
C133 C134 1.348 . S
C133 C138 1.413 . S
C134 C133 1.348 . S
C134 C135 1.442 . S
C134 H156 0.930 . S
C135 C134 1.442 . S
C135 C136 1.381 . S
C135 H157 0.931 . S
C136 C135 1.381 . S
C136 C137 1.321 . S
C137 C136 1.321 . S
C137 C138 1.403 . S
C137 H158 0.934 . S
C138 C133 1.413 . S
C138 C137 1.403 . S
C138 H159 0.930 . S
C139 O150 1.275 . S
C139 O151 1.256 . S
O140 Ho120 2.322 . S
O140 C122 1.259 . S
O141 Ho121 2.346 . S
O141 C122 1.268 . S
O142 Ho120 2.378 . S
O142 C123 1.215 . S
O143 Ho120 2.524 . S
O143 C123 1.289 . S
O144 Ho120 2.381 . S
O144 C130 1.275 . S
O145 Ho120 2.669 . S
O145 Ho121 2.305 . S
O145 C130 1.256 . S
O146 Ho121 2.322 . S
O146 C131 1.259 . S
O147 Ho120 2.346 . S
O147 C131 1.268 . S
O148 Ho121 2.378 . S
O148 C132 1.215 . S
O149 Ho121 2.524 . S
O149 C132 1.289 . S
O150 Ho121 2.381 . S
O150 C139 1.275 . S
O151 Ho120 2.305 . S
O151 Ho121 2.669 . S
O151 C139 1.256 . S
H152 C125 0.930 . S
H153 C126 0.931 . S
H154 C128 0.934 . S
H155 C129 0.930 . S
H156 C134 0.930 . S
H157 C135 0.931 . S
H158 C137 0.934 . S
H159 C138 0.930 . S
Ho160 C163 2.811 . S
Ho160 O180 2.322 . S
Ho160 O182 2.378 . S
Ho160 O183 2.524 . S
Ho160 O184 2.381 . S
Ho160 O185 2.669 . S
Ho160 O187 2.346 . S
Ho160 O191 2.305 . S
Ho161 C172 2.811 . S
Ho161 O181 2.346 . S
Ho161 O185 2.305 . S
Ho161 O186 2.322 . S
Ho161 O188 2.378 . S
Ho161 O189 2.524 . S
Ho161 O190 2.381 . S
Ho161 O191 2.669 . S
C162 O180 1.259 . S
C162 O181 1.268 . S
C163 Ho160 2.811 . S
C163 C164 1.488 . S
C163 O182 1.215 . S
C163 O183 1.289 . S
C164 C163 1.488 . S
C164 C165 1.348 . S
C164 C169 1.413 . S
C165 C164 1.348 . S
C165 C166 1.442 . S
C165 H192 0.930 . S
C166 C165 1.442 . S
C166 C167 1.381 . S
C166 H193 0.931 . S
C167 C166 1.381 . S
C167 C168 1.321 . S
C168 C167 1.321 . S
C168 C169 1.403 . S
C168 H194 0.934 . S
C169 C164 1.413 . S
C169 C168 1.403 . S
C169 H195 0.930 . S
C170 O184 1.275 . S
C170 O185 1.256 . S
C171 O186 1.259 . S
C171 O187 1.268 . S
C172 Ho161 2.811 . S
C172 C173 1.488 . S
C172 O188 1.215 . S
C172 O189 1.289 . S
C173 C172 1.488 . S
C173 C174 1.348 . S
C173 C178 1.413 . S
C174 C173 1.348 . S
C174 C175 1.442 . S
C174 H196 0.930 . S
C175 C174 1.442 . S
C175 C176 1.381 . S
C175 H197 0.931 . S
C176 C175 1.381 . S
C176 C177 1.321 . S
C177 C176 1.321 . S
C177 C178 1.403 . S
C177 H198 0.934 . S
C178 C173 1.413 . S
C178 C177 1.403 . S
C178 H199 0.930 . S
C179 O190 1.275 . S
C179 O191 1.256 . S
O180 Ho160 2.322 . S
O180 C162 1.259 . S
O181 Ho161 2.346 . S
O181 C162 1.268 . S
O182 Ho160 2.378 . S
O182 C163 1.215 . S
O183 Ho160 2.524 . S
O183 C163 1.289 . S
O184 Ho160 2.381 . S
O184 C170 1.275 . S
O185 Ho160 2.669 . S
O185 Ho161 2.305 . S
O185 C170 1.256 . S
O186 Ho161 2.322 . S
O186 C171 1.259 . S
O187 Ho160 2.346 . S
O187 C171 1.268 . S
O188 Ho161 2.378 . S
O188 C172 1.215 . S
O189 Ho161 2.524 . S
O189 C172 1.289 . S
O190 Ho161 2.381 . S
O190 C179 1.275 . S
O191 Ho160 2.305 . S
O191 Ho161 2.669 . S
O191 C179 1.256 . S
H192 C165 0.930 . S
H193 C166 0.931 . S
H194 C168 0.934 . S
H195 C169 0.930 . S
H196 C174 0.930 . S
H197 C175 0.931 . S
H198 C177 0.934 . S
H199 C178 0.930 . S
Ho200 C203 2.811 . S
Ho200 O220 2.322 . S
Ho200 O222 2.378 . S
Ho200 O223 2.524 . S
Ho200 O224 2.381 . S
Ho200 O225 2.669 . S
Ho200 O227 2.346 . S
Ho200 O231 2.305 . S
Ho201 C212 2.811 . S
Ho201 O221 2.346 . S
Ho201 O225 2.305 . S
Ho201 O226 2.322 . S
Ho201 O228 2.378 . S
Ho201 O229 2.524 . S
Ho201 O230 2.381 . S
Ho201 O231 2.669 . S
C202 O220 1.259 . S
C202 O221 1.268 . S
C203 Ho200 2.811 . S
C203 C204 1.488 . S
C203 O222 1.215 . S
C203 O223 1.289 . S
C204 C203 1.488 . S
C204 C205 1.348 . S
C204 C209 1.413 . S
C205 C204 1.348 . S
C205 C206 1.442 . S
C205 H232 0.930 . S
C206 C205 1.442 . S
C206 C207 1.381 . S
C206 H233 0.931 . S
C207 C206 1.381 . S
C207 C208 1.321 . S
C208 C207 1.321 . S
C208 C209 1.403 . S
C208 H234 0.934 . S
C209 C204 1.413 . S
C209 C208 1.403 . S
C209 H235 0.930 . S
C210 O224 1.275 . S
C210 O225 1.256 . S
C211 O226 1.259 . S
C211 O227 1.268 . S
C212 Ho201 2.811 . S
C212 C213 1.488 . S
C212 O228 1.215 . S
C212 O229 1.289 . S
C213 C212 1.488 . S
C213 C214 1.348 . S
C213 C218 1.413 . S
C214 C213 1.348 . S
C214 C215 1.442 . S
C214 H236 0.930 . S
C215 C214 1.442 . S
C215 C216 1.381 . S
C215 H237 0.931 . S
C216 C215 1.381 . S
C216 C217 1.321 . S
C217 C216 1.321 . S
C217 C218 1.403 . S
C217 H238 0.934 . S
C218 C213 1.413 . S
C218 C217 1.403 . S
C218 H239 0.930 . S
C219 O230 1.275 . S
C219 O231 1.256 . S
O220 Ho200 2.322 . S
O220 C202 1.259 . S
O221 Ho201 2.346 . S
O221 C202 1.268 . S
O222 Ho200 2.378 . S
O222 C203 1.215 . S
O223 Ho200 2.524 . S
O223 C203 1.289 . S
O224 Ho200 2.381 . S
O224 C210 1.275 . S
O225 Ho200 2.669 . S
O225 Ho201 2.305 . S
O225 C210 1.256 . S
O226 Ho201 2.322 . S
O226 C211 1.259 . S
O227 Ho200 2.346 . S
O227 C211 1.268 . S
O228 Ho201 2.378 . S
O228 C212 1.215 . S
O229 Ho201 2.524 . S
O229 C212 1.289 . S
O230 Ho201 2.381 . S
O230 C219 1.275 . S
O231 Ho200 2.305 . S
O231 Ho201 2.669 . S
O231 C219 1.256 . S
H232 C205 0.930 . S
H233 C206 0.931 . S
H234 C208 0.934 . S
H235 C209 0.930 . S
H236 C214 0.930 . S
H237 C215 0.931 . S
H238 C217 0.934 . S
H239 C218 0.930 . S
Ho240 C243 2.811 . S
Ho240 O260 2.322 . S
Ho240 O262 2.378 . S
Ho240 O263 2.524 . S
Ho240 O264 2.381 . S
Ho240 O265 2.669 . S
Ho240 O267 2.346 . S
Ho240 O271 2.305 . S
Ho241 C252 2.811 . S
Ho241 O261 2.346 . S
Ho241 O265 2.305 . S
Ho241 O266 2.322 . S
Ho241 O268 2.378 . S
Ho241 O269 2.524 . S
Ho241 O270 2.381 . S
Ho241 O271 2.669 . S
C242 O260 1.259 . S
C242 O261 1.268 . S
C243 Ho240 2.811 . S
C243 C244 1.488 . S
C243 O262 1.215 . S
C243 O263 1.289 . S
C244 C243 1.488 . S
C244 C245 1.348 . S
C244 C249 1.413 . S
C245 C244 1.348 . S
C245 C246 1.442 . S
C245 H272 0.930 . S
C246 C245 1.442 . S
C246 C247 1.381 1_565 S
C246 H273 0.931 1_565 S
C247 C246 1.381 1_545 S
C247 C248 1.321 . S
C248 C247 1.321 . S
C248 C249 1.403 1_545 S
C248 H274 0.934 . S
C249 C244 1.413 . S
C249 C248 1.403 1_565 S
C249 H275 0.930 . S
C250 O264 1.275 . S
C250 O265 1.256 . S
C251 O266 1.259 . S
C251 O267 1.268 . S
C252 Ho241 2.811 . S
C252 C253 1.488 . S
C252 O268 1.215 . S
C252 O269 1.289 . S
C253 C252 1.488 . S
C253 C254 1.348 . S
C253 C258 1.413 . S
C254 C253 1.348 . S
C254 C255 1.442 . S
C254 H276 0.930 . S
C255 C254 1.442 . S
C255 C256 1.381 . S
C255 H277 0.931 . S
C256 C255 1.381 . S
C256 C257 1.321 . S
C257 C256 1.321 . S
C257 C258 1.403 . S
C257 H278 0.934 . S
C258 C253 1.413 . S
C258 C257 1.403 . S
C258 H279 0.930 . S
C259 O270 1.275 . S
C259 O271 1.256 . S
O260 Ho240 2.322 . S
O260 C242 1.259 . S
O261 Ho241 2.346 . S
O261 C242 1.268 . S
O262 Ho240 2.378 . S
O262 C243 1.215 . S
O263 Ho240 2.524 . S
O263 C243 1.289 . S
O264 Ho240 2.381 . S
O264 C250 1.275 . S
O265 Ho240 2.669 . S
O265 Ho241 2.305 . S
O265 C250 1.256 . S
O266 Ho241 2.322 . S
O266 C251 1.259 . S
O267 Ho240 2.346 . S
O267 C251 1.268 . S
O268 Ho241 2.378 . S
O268 C252 1.215 . S
O269 Ho241 2.524 . S
O269 C252 1.289 . S
O270 Ho241 2.381 . S
O270 C259 1.275 . S
O271 Ho240 2.305 . S
O271 Ho241 2.669 . S
O271 C259 1.256 . S
H272 C245 0.930 . S
H273 C246 0.931 1_545 S
H274 C248 0.934 . S
H275 C249 0.930 . S
H276 C254 0.930 . S
H277 C255 0.931 . S
H278 C257 0.934 . S
H279 C258 0.930 . S
Ho280 C283 2.811 . S
Ho280 O300 2.322 . S
Ho280 O302 2.378 . S
Ho280 O303 2.524 . S
Ho280 O304 2.381 . S
Ho280 O305 2.669 . S
Ho280 O307 2.346 . S
Ho280 O311 2.305 . S
Ho281 C292 2.811 . S
Ho281 O301 2.346 . S
Ho281 O305 2.305 . S
Ho281 O306 2.322 . S
Ho281 O308 2.378 . S
Ho281 O309 2.524 . S
Ho281 O310 2.381 . S
Ho281 O311 2.669 . S
C282 O300 1.259 . S
C282 O301 1.268 . S
C283 Ho280 2.811 . S
C283 C284 1.488 . S
C283 O302 1.215 . S
C283 O303 1.289 . S
C284 C283 1.488 . S
C284 C285 1.348 . S
C284 C289 1.413 . S
C285 C284 1.348 . S
C285 C286 1.442 . S
C285 H312 0.930 . S
C286 C285 1.442 . S
C286 C287 1.381 . S
C286 H313 0.931 . S
C287 C286 1.381 . S
C287 C288 1.321 . S
C288 C287 1.321 . S
C288 C289 1.403 . S
C288 H314 0.934 . S
C289 C284 1.413 . S
C289 C288 1.403 . S
C289 H315 0.930 . S
C290 O304 1.275 . S
C290 O305 1.256 . S
C291 O306 1.259 . S
C291 O307 1.268 . S
C292 Ho281 2.811 . S
C292 C293 1.488 . S
C292 O308 1.215 . S
C292 O309 1.289 . S
C293 C292 1.488 . S
C293 C294 1.348 . S
C293 C298 1.413 . S
C294 C293 1.348 . S
C294 C295 1.442 . S
C294 H316 0.930 . S
C295 C294 1.442 . S
C295 C296 1.381 . S
C295 H317 0.931 . S
C296 C295 1.381 . S
C296 C297 1.321 . S
C297 C296 1.321 . S
C297 C298 1.403 . S
C297 H318 0.934 . S
C298 C293 1.413 . S
C298 C297 1.403 . S
C298 H319 0.930 . S
C299 O310 1.275 . S
C299 O311 1.256 . S
O300 Ho280 2.322 . S
O300 C282 1.259 . S
O301 Ho281 2.346 . S
O301 C282 1.268 . S
O302 Ho280 2.378 . S
O302 C283 1.215 . S
O303 Ho280 2.524 . S
O303 C283 1.289 . S
O304 Ho280 2.381 . S
O304 C290 1.275 . S
O305 Ho280 2.669 . S
O305 Ho281 2.305 . S
O305 C290 1.256 . S
O306 Ho281 2.322 . S
O306 C291 1.259 . S
O307 Ho280 2.346 . S
O307 C291 1.268 . S
O308 Ho281 2.378 . S
O308 C292 1.215 . S
O309 Ho281 2.524 . S
O309 C292 1.289 . S
O310 Ho281 2.381 . S
O310 C299 1.275 . S
O311 Ho280 2.305 . S
O311 Ho281 2.669 . S
O311 C299 1.256 . S
H312 C285 0.930 . S
H313 C286 0.931 . S
H314 C288 0.934 . S
H315 C289 0.930 . S
H316 C294 0.930 . S
H317 C295 0.931 . S
H318 C297 0.934 . S
H319 C298 0.930 . S
Ho320 C323 2.811 . S
Ho320 O340 2.322 . S
Ho320 O342 2.378 . S
Ho320 O343 2.524 . S
Ho320 O344 2.381 . S
Ho320 O345 2.669 . S
Ho320 O347 2.346 . S
Ho320 O351 2.305 . S
Ho321 C332 2.811 . S
Ho321 O341 2.346 . S
Ho321 O345 2.305 . S
Ho321 O346 2.322 . S
Ho321 O348 2.378 . S
Ho321 O349 2.524 . S
Ho321 O350 2.381 . S
Ho321 O351 2.669 . S
C322 O340 1.259 . S
C322 O341 1.268 . S
C323 Ho320 2.811 . S
C323 C324 1.488 . S
C323 O342 1.215 . S
C323 O343 1.289 . S
C324 C323 1.488 . S
C324 C325 1.348 . S
C324 C329 1.413 . S
C325 C324 1.348 . S
C325 C326 1.442 . S
C325 H352 0.930 . S
C326 C325 1.442 . S
C326 C327 1.381 . S
C326 H353 0.931 . S
C327 C326 1.381 . S
C327 C328 1.321 . S
C328 C327 1.321 . S
C328 C329 1.403 . S
C328 H354 0.934 . S
C329 C324 1.413 . S
C329 C328 1.403 . S
C329 H355 0.930 . S
C330 O344 1.275 . S
C330 O345 1.256 . S
C331 O346 1.259 . S
C331 O347 1.268 . S
C332 Ho321 2.811 . S
C332 C333 1.488 . S
C332 O348 1.215 . S
C332 O349 1.289 . S
C333 C332 1.488 . S
C333 C334 1.348 . S
C333 C338 1.413 . S
C334 C333 1.348 . S
C334 C335 1.442 . S
C334 H356 0.930 . S
C335 C334 1.442 . S
C335 C336 1.381 . S
C335 H357 0.931 . S
C336 C335 1.381 . S
C336 C337 1.321 . S
C337 C336 1.321 . S
C337 C338 1.403 . S
C337 H358 0.934 . S
C338 C333 1.413 . S
C338 C337 1.403 . S
C338 H359 0.930 . S
C339 O350 1.275 . S
C339 O351 1.256 . S
O340 Ho320 2.322 . S
O340 C322 1.259 . S
O341 Ho321 2.346 . S
O341 C322 1.268 . S
O342 Ho320 2.378 . S
O342 C323 1.215 . S
O343 Ho320 2.524 . S
O343 C323 1.289 . S
O344 Ho320 2.381 . S
O344 C330 1.275 . S
O345 Ho320 2.669 . S
O345 Ho321 2.305 . S
O345 C330 1.256 . S
O346 Ho321 2.322 . S
O346 C331 1.259 . S
O347 Ho320 2.346 . S
O347 C331 1.268 . S
O348 Ho321 2.378 . S
O348 C332 1.215 . S
O349 Ho321 2.524 . S
O349 C332 1.289 . S
O350 Ho321 2.381 . S
O350 C339 1.275 . S
O351 Ho320 2.305 . S
O351 Ho321 2.669 . S
O351 C339 1.256 . S
H352 C325 0.930 . S
H353 C326 0.931 . S
H354 C328 0.934 . S
H355 C329 0.930 . S
H356 C334 0.930 . S
H357 C335 0.931 . S
H358 C337 0.934 . S
H359 C338 0.930 . S
C360 C361 1.369 . S
C360 C362 1.419 . S
C360 H364 0.930 . S
C361 C360 1.369 . S
C361 C370 1.429 . S
C362 C360 1.419 . S
C362 C363 1.363 . S
C362 H365 0.929 . S
C363 C362 1.363 . S
C363 C369 1.428 . S
H364 C360 0.930 . S
H365 C362 0.929 . S
S366 N367 1.613 . S
S366 N368 1.610 1_554 S
N367 S366 1.613 . S
N367 C370 1.350 1_554 S
N368 S366 1.610 1_556 S
N368 C369 1.351 . S
C369 C363 1.428 . S
C369 N368 1.351 . S
C369 C370 1.434 . S
C370 C361 1.429 . S
C370 N367 1.350 1_556 S
C370 C369 1.434 . S
C371 C372 1.369 . S
C371 C373 1.419 . S
C371 H375 0.930 1_556 S
C372 C371 1.369 . S
C372 C381 1.429 . S
C373 C371 1.419 . S
C373 C374 1.363 . S
C373 H376 0.929 . S
C374 C373 1.363 . S
C374 C380 1.428 . S
H375 C371 0.930 1_554 S
H376 C373 0.929 . S
S377 N378 1.613 . S
S377 N379 1.610 . S
N378 S377 1.613 . S
N378 C381 1.350 . S
N379 S377 1.610 . S
N379 C380 1.351 . S
C380 C374 1.428 . S
C380 N379 1.351 . S
C380 C381 1.434 . S
C381 C372 1.429 . S
C381 N378 1.350 . S
C381 C380 1.434 . S
C382 C383 1.369 . S
C382 C384 1.419 . S
C382 H386 0.930 . S
C383 C382 1.369 . S
C383 C392 1.429 . S
C384 C382 1.419 . S
C384 C385 1.363 . S
C384 H387 0.929 . S
C385 C384 1.363 . S
C385 C391 1.428 . S
H386 C382 0.930 . S
H387 C384 0.929 . S
S388 N389 1.613 . S
S388 N390 1.610 . S
N389 S388 1.613 . S
N389 C392 1.350 . S
N390 S388 1.610 . S
N390 C391 1.351 . S
C391 C385 1.428 . S
C391 N390 1.351 . S
C391 C392 1.434 . S
C392 C383 1.429 . S
C392 N389 1.350 . S
C392 C391 1.434 . S
C393 C394 1.369 . S
C393 C395 1.419 . S
C393 H397 0.930 . S
C394 C393 1.369 . S
C394 C403 1.429 . S
C395 C393 1.419 . S
C395 C396 1.363 . S
C395 H398 0.929 1_554 S
C396 C395 1.363 . S
C396 C402 1.428 . S
H397 C393 0.930 . S
H398 C395 0.929 1_556 S
S399 N400 1.613 . S
S399 N401 1.610 . S
N400 S399 1.613 . S
N400 C403 1.350 . S
N401 S399 1.610 . S
N401 C402 1.351 . S
C402 C396 1.428 . S
C402 N401 1.351 . S
C402 C403 1.434 . S
C403 C394 1.429 . S
C403 N400 1.350 . S
C403 C402 1.434 . S
C404 C405 1.369 . S
C404 C406 1.419 . S
C404 H408 0.930 . S
C405 C404 1.369 . S
C405 C414 1.429 . S
C406 C404 1.419 . S
C406 C407 1.363 . S
C406 H409 0.929 . S
C407 C406 1.363 . S
C407 C413 1.428 . S
H408 C404 0.930 . S
H409 C406 0.929 . S
S410 N411 1.613 1_556 S
S410 N412 1.610 . S
N411 S410 1.613 1_554 S
N411 C414 1.350 . S
N412 S410 1.610 . S
N412 C413 1.351 1_556 S
C413 C407 1.428 . S
C413 N412 1.351 1_554 S
C413 C414 1.434 . S
C414 C405 1.429 . S
C414 N411 1.350 . S
C414 C413 1.434 . S
C415 C416 1.369 . S
C415 C417 1.419 . S
C415 H419 0.930 1_554 S
C416 C415 1.369 . S
C416 C425 1.429 . S
C417 C415 1.419 . S
C417 C418 1.363 . S
C417 H420 0.929 . S
C418 C417 1.363 . S
C418 C424 1.428 . S
H419 C415 0.930 1_556 S
H420 C417 0.929 . S
S421 N422 1.613 . S
S421 N423 1.610 . S
N422 S421 1.613 . S
N422 C425 1.350 . S
N423 S421 1.610 . S
N423 C424 1.351 . S
C424 C418 1.428 . S
C424 N423 1.351 . S
C424 C425 1.434 . S
C425 C416 1.429 . S
C425 N422 1.350 . S
C425 C424 1.434 . S
C426 C427 1.369 . S
C426 C428 1.419 . S
C426 H430 0.930 . S
C427 C426 1.369 . S
C427 C436 1.429 . S
C428 C426 1.419 . S
C428 C429 1.363 . S
C428 H431 0.929 . S
C429 C428 1.363 . S
C429 C435 1.428 . S
H430 C426 0.930 . S
H431 C428 0.929 . S
S432 N433 1.613 . S
S432 N434 1.610 . S
N433 S432 1.613 . S
N433 C436 1.350 . S
N434 S432 1.610 . S
N434 C435 1.351 . S
C435 C429 1.428 . S
C435 N434 1.351 . S
C435 C436 1.434 . S
C436 C427 1.429 . S
C436 N433 1.350 . S
C436 C435 1.434 . S
C437 C438 1.369 . S
C437 C439 1.419 . S
C437 H441 0.930 . S
C438 C437 1.369 . S
C438 C447 1.429 . S
C439 C437 1.419 . S
C439 C440 1.363 . S
C439 H442 0.929 . S
C440 C439 1.363 . S
C440 C446 1.428 . S
H441 C437 0.930 . S
H442 C439 0.929 . S
S443 N444 1.613 . S
S443 N445 1.610 . S
N444 S443 1.613 . S
N444 C447 1.350 . S
N445 S443 1.610 . S
N445 C446 1.351 . S
C446 C440 1.428 . S
C446 N445 1.351 . S
C446 C447 1.434 . S
C447 C438 1.429 . S
C447 N444 1.350 . S
C447 C446 1.434 . S
C448 C449 1.369 . S
C448 C450 1.419 . S
C448 H452 0.930 . S
C449 C448 1.369 . S
C449 C458 1.429 . S
C450 C448 1.419 . S
C450 C451 1.363 . S
C450 H453 0.929 . S
C451 C450 1.363 . S
C451 C457 1.428 . S
H452 C448 0.930 . S
H453 C450 0.929 . S
S454 N455 1.613 . S
S454 N456 1.610 . S
N455 S454 1.613 . S
N455 C458 1.350 . S
N456 S454 1.610 . S
N456 C457 1.351 . S
C457 C451 1.428 . S
C457 N456 1.351 . S
C457 C458 1.434 . S
C458 C449 1.429 . S
C458 N455 1.350 . S
C458 C457 1.434 . S
C459 C460 1.369 . S
C459 C461 1.419 . S
C459 H463 0.930 . S
C460 C459 1.369 . S
C460 C469 1.429 . S
C461 C459 1.419 . S
C461 C462 1.363 . S
C461 H464 0.929 1_554 S
C462 C461 1.363 . S
C462 C468 1.428 . S
H463 C459 0.930 . S
H464 C461 0.929 1_556 S
S465 N466 1.613 . S
S465 N467 1.610 . S
N466 S465 1.613 . S
N466 C469 1.350 . S
N467 S465 1.610 . S
N467 C468 1.351 . S
C468 C462 1.428 . S
C468 N467 1.351 . S
C468 C469 1.434 . S
C469 C460 1.429 . S
C469 N466 1.350 . S
C469 C468 1.434 . S
C470 C471 1.369 . S
C470 C472 1.419 . S
C470 H474 0.930 . S
C471 C470 1.369 . S
C471 C480 1.429 1_554 S
C472 C470 1.419 . S
C472 C473 1.363 . S
C472 H475 0.929 . S
C473 C472 1.363 . S
C473 C479 1.428 1_554 S
H474 C470 0.930 . S
H475 C472 0.929 . S
S476 N477 1.613 . S
S476 N478 1.610 . S
N477 S476 1.613 . S
N477 C480 1.350 . S
N478 S476 1.610 . S
N478 C479 1.351 . S
C479 C473 1.428 1_556 S
C479 N478 1.351 . S
C479 C480 1.434 . S
C480 C471 1.429 1_556 S
C480 N477 1.350 . S
C480 C479 1.434 . S
C481 C482 1.369 . S
C481 C483 1.419 . S
C481 H485 0.930 . S
C482 C481 1.369 . S
C482 C491 1.429 1_554 S
C483 C481 1.419 . S
C483 C484 1.363 . S
C483 H486 0.929 . S
C484 C483 1.363 . S
C484 C490 1.428 1_554 S
H485 C481 0.930 . S
H486 C483 0.929 . S
S487 N488 1.613 1_545 S
S487 N489 1.610 . S
N488 S487 1.613 1_565 S
N488 C491 1.350 . S
N489 S487 1.610 . S
N489 C490 1.351 1_545 S
C490 C484 1.428 1_556 S
C490 N489 1.351 1_565 S
C490 C491 1.434 . S
C491 C482 1.429 1_556 S
C491 N488 1.350 . S
C491 C490 1.434 . S
C492 C493 1.369 . S
C492 C494 1.419 . S
C492 H496 0.930 . S
C493 C492 1.369 . S
C493 C502 1.429 . S
C494 C492 1.419 . S
C494 C495 1.363 . S
C494 H497 0.929 . S
C495 C494 1.363 . S
C495 C501 1.428 . S
H496 C492 0.930 . S
H497 C494 0.929 . S
S498 N499 1.613 . S
S498 N500 1.610 . S
N499 S498 1.613 . S
N499 C502 1.350 . S
N500 S498 1.610 . S
N500 C501 1.351 . S
C501 C495 1.428 . S
C501 N500 1.351 . S
C501 C502 1.434 . S
C502 C493 1.429 . S
C502 N499 1.350 . S
C502 C501 1.434 . S
C503 C504 1.369 . S
C503 C505 1.419 . S
C503 H507 0.930 . S
C504 C503 1.369 . S
C504 C513 1.429 . S
C505 C503 1.419 . S
C505 C506 1.363 . S
C505 H508 0.929 . S
C506 C505 1.363 . S
C506 C512 1.428 . S
H507 C503 0.930 . S
H508 C505 0.929 . S
S509 N510 1.613 . S
S509 N511 1.610 . S
N510 S509 1.613 . S
N510 C513 1.350 . S
N511 S509 1.610 . S
N511 C512 1.351 . S
C512 C506 1.428 . S
C512 N511 1.351 . S
C512 C513 1.434 . S
C513 C504 1.429 . S
C513 N510 1.350 . S
C513 C512 1.434 . S
C514 C515 1.369 . S
C514 C516 1.419 . S
C514 H518 0.930 . S
C515 C514 1.369 . S
C515 C524 1.429 . S
C516 C514 1.419 . S
C516 C517 1.363 . S
C516 H519 0.929 . S
C517 C516 1.363 . S
C517 C523 1.428 . S
H518 C514 0.930 . S
H519 C516 0.929 . S
S520 N521 1.613 . S
S520 N522 1.610 . S
N521 S520 1.613 . S
N521 C524 1.350 . S
N522 S520 1.610 . S
N522 C523 1.351 . S
C523 C517 1.428 . S
C523 N522 1.351 . S
C523 C524 1.434 . S
C524 C515 1.429 . S
C524 N521 1.350 . S
C524 C523 1.434 . S
C525 C526 1.369 . S
C525 C527 1.419 . S
C525 H529 0.930 . S
C526 C525 1.369 . S
C526 C535 1.429 . S
C527 C525 1.419 . S
C527 C528 1.363 . S
C527 H530 0.929 . S
C528 C527 1.363 . S
C528 C534 1.428 . S
H529 C525 0.930 . S
H530 C527 0.929 . S
S531 N532 1.613 . S
S531 N533 1.610 . S
N532 S531 1.613 . S
N532 C535 1.350 . S
N533 S531 1.610 . S
N533 C534 1.351 . S
C534 C528 1.428 . S
C534 N533 1.351 . S
C534 C535 1.434 . S
C535 C526 1.429 . S
C535 N532 1.350 . S
C535 C534 1.434 . S
C536 C537 1.369 . S
C536 C538 1.419 . S
C536 H540 0.930 . S
C537 C536 1.369 . S
C537 C546 1.429 . S
C538 C536 1.419 . S
C538 C539 1.363 . S
C538 H541 0.929 . S
C539 C538 1.363 . S
C539 C545 1.428 . S
H540 C536 0.930 . S
H541 C538 0.929 . S
S542 N543 1.613 1_554 S
S542 N544 1.610 1_554 S
N543 S542 1.613 1_556 S
N543 C546 1.350 . S
N544 S542 1.610 1_556 S
N544 C545 1.351 . S
C545 C539 1.428 . S
C545 N544 1.351 . S
C545 C546 1.434 . S
C546 C537 1.429 . S
C546 N543 1.350 . S
C546 C545 1.434 . S
C547 C548 1.369 . S
C547 C549 1.419 . S
C547 H551 0.930 . S
C548 C547 1.369 . S
C548 C557 1.429 . S
C549 C547 1.419 . S
C549 C550 1.363 . S
C549 H552 0.929 . S
C550 C549 1.363 . S
C550 C556 1.428 . S
H551 C547 0.930 . S
H552 C549 0.929 . S
S553 N554 1.613 . S
S553 N555 1.610 . S
N554 S553 1.613 . S
N554 C557 1.350 . S
N555 S553 1.610 . S
N555 C556 1.351 . S
C556 C550 1.428 . S
C556 N555 1.351 . S
C556 C557 1.434 . S
C557 C548 1.429 . S
C557 N554 1.350 . S
C557 C556 1.434 . S
C558 C559 1.369 1_655 S
C558 C560 1.419 . S
C558 H562 0.930 . S
C559 C558 1.369 1_455 S
C559 C568 1.429 . S
C560 C558 1.419 . S
C560 C561 1.363 1_655 S
C560 H563 0.929 . S
C561 C560 1.363 1_455 S
C561 C567 1.428 . S
H562 C558 0.930 . S
H563 C560 0.929 . S
S564 N565 1.613 . S
S564 N566 1.610 . S
N565 S564 1.613 . S
N565 C568 1.350 . S
N566 S564 1.610 . S
N566 C567 1.351 . S
C567 C561 1.428 . S
C567 N566 1.351 . S
C567 C568 1.434 . S
C568 C559 1.429 . S
C568 N565 1.350 . S
C568 C567 1.434 . S
C569 C570 1.369 . S
C569 C571 1.419 . S
C569 H573 0.930 . S
C570 C569 1.369 . S
C570 C579 1.429 . S
C571 C569 1.419 . S
C571 C572 1.363 . S
C571 H574 0.929 . S
C572 C571 1.363 . S
C572 C578 1.428 . S
H573 C569 0.930 . S
H574 C571 0.929 . S
S575 N576 1.613 . S
S575 N577 1.610 . S
N576 S575 1.613 . S
N576 C579 1.350 . S
N577 S575 1.610 . S
N577 C578 1.351 . S
C578 C572 1.428 . S
C578 N577 1.351 . S
C578 C579 1.434 . S
C579 C570 1.429 . S
C579 N576 1.350 . S
C579 C578 1.434 . S
C580 C581 1.369 . S
C580 C582 1.419 1_545 S
C580 H584 0.930 1_545 S
C581 C580 1.369 . S
C581 C590 1.429 . S
C582 C580 1.419 1_565 S
C582 C583 1.363 1_565 S
C582 H585 0.929 . S
C583 C582 1.363 1_545 S
C583 C589 1.428 . S
H584 C580 0.930 1_565 S
H585 C582 0.929 . S
S586 N587 1.613 . S
S586 N588 1.610 . S
N587 S586 1.613 . S
N587 C590 1.350 . S
N588 S586 1.610 . S
N588 C589 1.351 . S
C589 C583 1.428 . S
C589 N588 1.351 . S
C589 C590 1.434 . S
C590 C581 1.429 . S
C590 N587 1.350 . S
C590 C589 1.434 . S
C591 C592 1.369 . S
C591 C593 1.419 . S
C591 H595 0.930 . S
C592 C591 1.369 . S
C592 C601 1.429 . S
C593 C591 1.419 . S
C593 C594 1.363 . S
C593 H596 0.929 . S
C594 C593 1.363 . S
C594 C600 1.428 . S
H595 C591 0.930 . S
H596 C593 0.929 . S
S597 N598 1.613 . S
S597 N599 1.610 . S
N598 S597 1.613 . S
N598 C601 1.350 . S
N599 S597 1.610 . S
N599 C600 1.351 . S
C600 C594 1.428 . S
C600 N599 1.351 . S
C600 C601 1.434 . S
C601 C592 1.429 . S
C601 N598 1.350 . S
C601 C600 1.434 . S
C602 C603 1.369 . S
C602 C604 1.419 . S
C602 H606 0.930 . S
C603 C602 1.369 . S
C603 C612 1.429 . S
C604 C602 1.419 . S
C604 C605 1.363 . S
C604 H607 0.929 . S
C605 C604 1.363 . S
C605 C611 1.428 . S
H606 C602 0.930 . S
H607 C604 0.929 . S
S608 N609 1.613 . S
S608 N610 1.610 . S
N609 S608 1.613 . S
N609 C612 1.350 . S
N610 S608 1.610 . S
N610 C611 1.351 . S
C611 C605 1.428 . S
C611 N610 1.351 . S
C611 C612 1.434 . S
C612 C603 1.429 . S
C612 N609 1.350 . S
C612 C611 1.434 . S
C613 C614 1.369 . S
C613 C615 1.419 . S
C613 H617 0.930 . S
C614 C613 1.369 . S
C614 C623 1.429 . S
C615 C613 1.419 . S
C615 C616 1.363 . S
C615 H618 0.929 . S
C616 C615 1.363 . S
C616 C622 1.428 . S
H617 C613 0.930 . S
H618 C615 0.929 . S
S619 N620 1.613 . S
S619 N621 1.610 . S
N620 S619 1.613 . S
N620 C623 1.350 . S
N621 S619 1.610 . S
N621 C622 1.351 . S
C622 C616 1.428 . S
C622 N621 1.351 . S
C622 C623 1.434 . S
C623 C614 1.429 . S
C623 N620 1.350 . S
C623 C622 1.434 . S
C624 C625 1.369 . S
C624 C626 1.419 . S
C624 H628 0.930 . S
C625 C624 1.369 . S
C625 C634 1.429 . S
C626 C624 1.419 . S
C626 C627 1.363 . S
C626 H629 0.929 . S
C627 C626 1.363 . S
C627 C633 1.428 . S
H628 C624 0.930 . S
H629 C626 0.929 . S
S630 N631 1.613 . S
S630 N632 1.610 . S
N631 S630 1.613 . S
N631 C634 1.350 . S
N632 S630 1.610 . S
N632 C633 1.351 . S
C633 C627 1.428 . S
C633 N632 1.351 . S
C633 C634 1.434 . S
C634 C625 1.429 . S
C634 N631 1.350 . S
C634 C633 1.434 . S
C635 C636 1.369 . S
C635 C637 1.419 . S
C635 H639 0.930 . S
C636 C635 1.369 . S
C636 C645 1.429 . S
C637 C635 1.419 . S
C637 C638 1.363 . S
C637 H640 0.929 . S
C638 C637 1.363 . S
C638 C644 1.428 . S
H639 C635 0.930 . S
H640 C637 0.929 . S
S641 N642 1.613 . S
S641 N643 1.610 . S
N642 S641 1.613 . S
N642 C645 1.350 . S
N643 S641 1.610 . S
N643 C644 1.351 . S
C644 C638 1.428 . S
C644 N643 1.351 . S
C644 C645 1.434 . S
C645 C636 1.429 . S
C645 N642 1.350 . S
C645 C644 1.434 . S
C646 C647 1.369 . S
C646 C648 1.419 . S
C646 H650 0.930 . S
C647 C646 1.369 . S
C647 C656 1.429 . S
C648 C646 1.419 . S
C648 C649 1.363 . S
C648 H651 0.929 . S
C649 C648 1.363 . S
C649 C655 1.428 . S
H650 C646 0.930 . S
H651 C648 0.929 . S
S652 N653 1.613 . S
S652 N654 1.610 . S
N653 S652 1.613 . S
N653 C656 1.350 . S
N654 S652 1.610 . S
N654 C655 1.351 . S
C655 C649 1.428 . S
C655 N654 1.351 . S
C655 C656 1.434 . S
C656 C647 1.429 . S
C656 N653 1.350 . S
C656 C655 1.434 . S
C361 C7 1.874 . S
C363 C282 1.796 . S
C372 C47 1.869 . S
C374 C322 1.803 . S
C383 C87 1.870 . S
C385 C242 1.800 . S
C394 C167 1.874 . S
C396 C82 1.796 . S
C405 C207 1.868 . S
C407 C2 1.801 . S
C416 C42 1.795 . S
C418 C127 1.874 . S
C427 C287 1.874 1_655 S
C429 C202 1.798 . S
C438 C327 1.869 . S
C440 C122 1.802 . S
C449 C162 1.804 . S
C451 C247 1.871 . S
C460 C96 1.665 . S
C462 C11 1.682 1_554 S
C471 C51 1.682 1_554 S
C473 C16 1.664 1_565 S
C482 C56 1.665 . S
C484 C91 1.682 1_554 S
C493 C131 1.684 . S
C495 C216 1.668 . S
C504 C136 1.667 . S
C506 C171 1.683 . S
C515 C176 1.663 . S
C517 C211 1.682 . S
C526 C336 1.663 . S
C528 C251 1.681 . S
C537 C291 1.682 . S
C539 C256 1.666 . S
C548 C331 1.682 . S
C550 C296 1.665 . S
C559 C19 1.115 . S
C561 C10 1.106 . S
C570 C59 1.105 . S
C572 C50 1.114 . S
C581 C99 1.109 . S
C583 C90 1.111 . S
C592 C130 1.106 . S
C594 C139 1.113 1_556 S
C603 C170 1.113 . S
C605 C179 1.108 1_556 S
C614 C210 1.115 . S
C616 C219 1.106 1_556 S
C625 C259 1.105 . S
C627 C250 1.114 1_554 S
C636 C290 1.113 1_554 S
C638 C299 1.108 . S
C647 C339 1.108 . S
C649 C330 1.112 1_554 S
