# Generated by pormake.
# Topology sxc, (6)-cn, num edge types: 1
# Building blocks:
#     Node 0, Type 0, BuildingBlock: BETFAJ_clean_sbu_0, # of connection points: 6
#     Node 1, Type 0, BuildingBlock: BETFAJ_clean_sbu_0, # of connection points: 6
#     Node 2, Type 0, BuildingBlock: BETFAJ_clean_sbu_0, # of connection points: 6
#     Edge 3, Type (0, 0), BuildingBlock: EZIPEK_clean_linker_0, # of connection points: 2
#     Edge 4, Type (0, 0), BuildingBlock: EZIPEK_clean_linker_0, # of connection points: 2
#     Edge 5, Type (0, 0), BuildingBlock: EZIPEK_clean_linker_0, # of connection points: 2
#     Edge 6, Type (0, 0), BuildingBlock: EZIPEK_clean_linker_0, # of connection points: 2
#     Edge 7, Type (0, 0), BuildingBlock: EZIPEK_clean_linker_0, # of connection points: 2
#     Edge 8, Type (0, 0), BuildingBlock: EZIPEK_clean_linker_0, # of connection points: 2
#     Edge 9, Type (0, 0), BuildingBlock: EZIPEK_clean_linker_0, # of connection points: 2
#     Edge 10, Type (0, 0), BuildingBlock: EZIPEK_clean_linker_0, # of connection points: 2
#     Edge 11, Type (0, 0), BuildingBlock: EZIPEK_clean_linker_0, # of connection points: 2
# Relax obj value: 0.513
# Max RMSD: 0.192
# Mean RMSD: 0.104
data_MOF--net-sxc--node1-BETFAJ_clean_sbu_0--edge1-EZIPEK_clean_linker_0
_symmetry_space_group_name_H-M    P1
_symmetry_Int_Tables_number       1
_symmetry_cell_setting            triclinic
loop_
_symmetry_equiv_pos_as_xyz
'x, y, z'
_cell_length_a     12.016737
_cell_length_b     13.6657
_cell_length_c     34.035379
_cell_angle_alpha  95.307008
_cell_angle_beta   90.442436
_cell_angle_gamma 87.854487
loop_
_atom_site_label
_atom_site_type_symbol
_atom_site_fract_x
_atom_site_fract_y
_atom_site_fract_z
_atom_type_partial_charge
Sm0 Sm 0.1274 0.16798 0.96729 0.0
Sm1 Sm 1.03513 0.1703 0.96167 0.0
C2 C 0.3429 0.20333 0.95835 0.0
C3 C 0.4027 0.29421 0.95684 0.0
C4 C 0.35112 0.37444 0.94016 0.0
C5 C 0.4006 0.4649 0.94303 0.0
C6 C 0.50317 0.47605 0.96218 0.0
C7 C 0.55789 0.39529 -0.02248 0.0
C8 C 0.50711 0.30457 0.97514 0.0
C9 C 0.10111 0.17502 0.04944 0.0
C10 C 0.10314 0.43082 -0.02201 0.0
C11 C 0.81764 1.14022 0.96859 0.0
C12 C 0.75772 1.05153 0.9742 0.0
C13 C 0.81017 0.97656 -0.0061 0.0
C14 C 0.76274 0.88537 -0.00642 0.0
C15 C 0.66138 0.86875 0.97411 0.0
C16 C 0.60506 0.94521 0.9564 0.0
C17 C 0.65387 1.03629 0.9561 0.0
C18 C 1.06843 0.15364 0.87975 0.0
C19 C 1.05688 0.90766 0.95241 0.0
O20 O 0.27535 0.18123 0.92934 0.0
O21 O 0.29813 0.19169 -0.00809 0.0
O22 O 1.05651 0.23282 0.0263 0.0
O23 O 0.15785 1.10684 0.02856 0.0
O24 O 1.06279 0.34636 0.959 0.0
O25 O 1.05921 0.35033 0.95738 0.0
O26 O 0.88066 0.1724 -0.00241 0.0
O27 O 0.8681 1.13929 0.93519 0.0
O28 O 0.10163 1.09425 0.90423 0.0
O29 O 1.02471 0.23135 0.8993 0.0
O30 O 0.09907 0.99221 0.97071 0.0
O31 O 0.10269 0.98821 0.97228 0.0
H32 H 0.27092 0.36832 0.92591 0.0
H33 H 0.35803 0.52677 0.93092 0.0
H34 H 0.63777 0.40341 -0.0078 0.0
H35 H 0.54769 0.24353 -0.01159 0.0
H36 H 0.89 0.98717 0.0082 0.0
H37 H 0.80658 0.82687 0.00747 0.0
H38 H 0.52627 0.93284 0.94142 0.0
H39 H 0.61281 1.09329 0.94055 0.0
Sm40 Sm 1.08787 0.27914 0.30871 0.0
Sm41 Sm 0.10487 1.08856 0.2957 0.0
C42 C 0.09267 0.46987 0.32635 0.0
C43 C 0.12092 0.5115 0.36621 0.0
C44 C 0.08951 0.60781 0.37957 0.0
C45 C 0.12679 0.64776 0.41633 0.0
C46 C 0.1982 0.59222 0.44011 0.0
C47 C 0.21638 0.49172 0.42839 0.0
C48 C 0.17904 0.45215 0.39166 0.0
C49 C 1.07447 0.19517 0.38124 0.0
C50 C 0.85085 0.18286 0.297 0.0
C51 C 0.15873 0.90458 0.30587 0.0
C52 C 0.23917 0.87627 0.33598 0.0
C53 C 0.28455 0.94992 0.36233 0.0
C54 C 0.34211 0.92595 0.39609 0.0
C55 C 0.35431 0.82767 0.40425 0.0
C56 C 0.32199 0.75364 0.37496 0.0
C57 C 0.26309 0.7778 0.3414 0.0
C58 C 1.06248 0.15823 0.22207 0.0
C59 C 0.34836 0.19332 0.29969 0.0
O60 O 0.99965 0.42399 0.32358 0.0
O61 O 0.17378 0.42004 0.30768 0.0
O62 O 0.14441 0.17337 0.35417 0.0
O63 O 1.00425 0.25895 0.36907 0.0
O64 O 0.90632 0.25628 0.28519 0.0
O65 O 0.9117 1.10893 0.3096 0.0
O66 O 1.0676 0.94871 0.32037 0.0
O67 O 0.2001 0.94917 0.27729 0.0
O68 O 0.12746 0.1972 0.24816 0.0
O69 O 1.01489 1.08457 0.2355 0.0
O70 O 0.29769 1.10921 0.29472 0.0
O71 O 0.28458 0.27439 0.30545 0.0
H72 H 1.04126 0.65359 0.36086 0.0
H73 H 0.1078 0.72516 0.42392 0.0
H74 H 0.26414 0.44426 0.44635 0.0
H75 H 0.19976 0.37584 0.38238 0.0
H76 H 0.27002 1.0265 0.35817 0.0
H77 H 0.37141 0.98456 0.41666 0.0
H78 H 0.33331 0.67657 0.37952 0.0
H79 H 0.23091 0.71981 0.32107 0.0
Sm80 Sm 0.10283 1.04969 0.62271 0.0
Sm81 Sm 1.0753 0.24799 0.63689 0.0
C82 C 0.09959 0.85623 0.62246 0.0
C83 C 1.00802 0.78908 0.62069 0.0
C84 C 0.9069 0.81926 0.63908 0.0
C85 C 0.81306 0.76474 0.63131 0.0
C86 C 0.81914 0.67983 0.60499 0.0
C87 C 0.92097 0.64656 0.58791 0.0
C88 C 1.01557 0.70128 0.59596 0.0
C89 C 0.11295 1.13342 0.55134 0.0
C90 C 0.83884 1.14501 0.62994 0.0
C91 C 1.0809 0.44041 0.63511 0.0
C92 C 0.16675 0.49879 0.61949 0.0
C93 C 0.21759 0.46662 0.58325 0.0
C94 C 0.31965 0.50255 0.57382 0.0
C95 C 0.37128 0.57056 0.60048 0.0
C96 C 0.31568 0.61036 0.63467 0.0
C97 C 0.2134 0.57435 0.6442 0.0
C98 C 1.06336 0.16095 0.70773 0.0
C99 C 0.33869 0.15604 0.62975 0.0
O100 O 0.10673 0.91544 0.65468 0.0
O101 O 0.11194 0.90076 0.59064 0.0
O102 O 1.04187 0.15703 0.57841 0.0
O103 O 0.18465 1.0688 0.56287 0.0
O104 O 0.90434 1.06386 0.62827 0.0
O105 O 0.88577 0.23049 0.63158 0.0
O106 O 1.02705 0.38384 0.6091 0.0
O107 O 0.11172 0.39562 0.66586 0.0
O108 O 0.13551 1.13994 0.68089 0.0
O109 O 0.99433 0.22864 0.69697 0.0
O110 O 0.27174 0.23506 0.62747 0.0
O111 O 0.29187 1.07126 0.63213 0.0
H112 H 0.89903 0.88702 0.65814 0.0
H113 H 0.73459 0.79057 0.64477 0.0
H114 H 0.92627 0.58044 0.56774 0.0
H115 H 0.09354 0.67742 0.58182 0.0
H116 H 0.18376 0.40776 0.56376 0.0
H117 H 0.36268 0.47091 0.54758 0.0
H118 H 0.35547 0.66325 0.65537 0.0
H119 H 0.17521 0.59978 0.67222 0.0
C120 C 0.15304 0.62836 -0.00754 0.0
C121 C 1.08872 0.55272 0.96942 0.0
C122 C 1.00898 0.70997 0.93764 0.0
C123 C 1.0724 0.78577 0.9609 0.0
N124 N 0.22475 0.7965 0.00678 0.0
N125 N 0.93562 0.54252 0.92386 0.0
C126 C 0.14873 0.73797 -0.01261 0.0
C127 C 1.01246 0.60061 0.94298 0.0
N128 N 0.21827 0.59553 0.02188 0.0
N129 N 0.94593 0.74218 0.90755 0.0
H130 H 0.93457 0.46717 0.92608 0.0
H131 H 0.86711 0.56966 0.90887 0.0
H132 H 0.93503 0.81636 0.90303 0.0
H133 H 0.91247 0.69547 0.88499 0.0
H134 H 0.25335 0.6416 0.04429 0.0
H135 H 0.23019 0.52114 0.02592 0.0
H136 H 0.29372 0.76993 0.0217 0.0
H137 H 0.22444 0.87206 0.00498 0.0
C138 C 0.5392 1.13146 0.26967 0.0
C139 C 0.4776 0.19475 0.29832 0.0
C140 C 0.66095 0.2571 0.32348 0.0
C141 C 0.72195 0.18607 0.29774 0.0
N142 N 0.71416 1.04553 0.24981 0.0
N143 N 0.4873 0.3074 0.35719 0.0
C144 C 0.65923 1.11997 0.27218 0.0
C145 C 0.54077 0.25523 0.32627 0.0
N146 N 0.48396 1.08672 0.23809 0.0
N147 N 0.71776 0.3273 0.3457 0.0
H148 H 0.40155 0.30848 0.361 0.0
H149 H 0.52863 0.34269 0.38117 0.0
H150 H 0.80435 0.32807 0.34671 0.0
H151 H 0.67909 0.38872 0.36099 0.0
H152 H 0.52411 1.04791 0.21416 0.0
H153 H 0.39888 1.09811 0.2333 0.0
H154 H 0.67374 0.98781 0.23429 0.0
H155 H 0.8007 1.03718 0.24922 0.0
C156 C 0.64022 0.67437 0.56896 0.0
C157 C 0.71529 0.63011 0.59488 0.0
C158 C 0.56847 0.53062 0.61727 0.0
C159 C 0.4904 0.58678 0.59619 0.0
N160 N 0.44769 0.71534 0.55397 0.0
N161 N 0.75703 0.51458 0.64261 0.0
C162 C 0.52509 0.65856 0.57199 0.0
C163 C 0.68166 0.55611 0.61816 0.0
N164 N 0.67977 0.7323 0.54195 0.0
N165 N 0.5337 0.45412 0.63675 0.0
H166 H 0.84159 0.52923 0.64256 0.0
H167 H 0.73619 0.46859 0.6639 0.0
H168 H 0.45053 0.43545 0.63799 0.0
H169 H 0.58742 0.40455 0.64953 0.0
H170 H 0.63075 0.76019 0.51991 0.0
H171 H 0.76447 0.74479 0.53938 0.0
H172 H 0.46722 0.77638 0.53956 0.0
H173 H 0.36229 0.70542 0.55574 0.0
C174 C 0.64965 1.09927 0.65837 0.0
C175 C 0.71064 1.14327 0.62921 0.0
C176 C 0.52979 0.20794 0.60333 0.0
C177 C 0.46754 0.15989 0.63118 0.0
N178 N 0.47318 1.08078 0.69154 0.0
N179 N 0.70454 0.22168 0.56877 0.0
C180 C 0.5293 1.11002 0.66006 0.0
C181 C 0.64914 0.193 0.60049 0.0
N182 N 0.70695 1.04671 0.6847 0.0
N183 N 0.47655 0.27261 0.58066 0.0
H184 H 0.79023 0.21054 0.56495 0.0
H185 H 0.66488 0.24665 0.5441 0.0
H186 H 0.39267 0.2921 0.58345 0.0
H187 H 0.51756 0.31755 0.56285 0.0
H188 H 0.6701 1.00101 0.70322 0.0
H189 H 0.79342 1.04433 0.68667 0.0
H190 H 0.51116 1.05218 0.71575 0.0
H191 H 0.388 1.09448 0.69577 0.0
C192 C 0.63633 0.70701 0.93529 0.0
C193 C 0.61836 0.7688 0.97073 0.0
C194 C 0.53379 0.63555 0.00183 0.0
C195 C 0.55087 0.5741 0.96631 0.0
N196 N 0.6278 0.5432 0.90105 0.0
N197 N 0.53954 0.79975 0.03573 0.0
C198 C 0.60448 0.60773 0.93342 0.0
C199 C 0.56479 0.73504 0.00362 0.0
N200 N 0.6818 0.74433 0.90333 0.0
N201 N 0.48962 0.59784 0.03392 0.0
H202 H 0.5605 0.87344 0.03777 0.0
H203 H 0.49159 0.78335 0.05939 0.0
H204 H 0.46233 0.52618 0.03325 0.0
H205 H 0.48486 0.63492 0.06197 0.0
H206 H 0.68756 0.7072 0.87532 0.0
H207 H 0.71057 0.81549 0.90409 0.0
H208 H 0.6735 0.55961 0.87687 0.0
H209 H 0.60678 0.46953 0.89911 0.0
C210 C 0.23324 0.73936 0.48517 0.0
C211 C 0.27165 0.64417 0.47059 0.0
C212 C 0.44005 0.71314 0.44829 0.0
C213 C 0.37661 0.80108 0.44519 0.0
N214 N 0.24719 0.91387 0.4819 0.0
N215 N 0.44485 0.54798 0.46796 0.0
C216 C 0.28725 0.82054 0.47215 0.0
C217 C 0.38752 0.6336 0.46309 0.0
N218 N 0.13522 0.75288 0.50474 0.0
N219 N 0.54435 0.70126 0.43326 0.0
H220 H 0.40848 0.49134 0.4812 0.0
H221 H 0.52954 0.53821 0.46143 0.0
H222 H 0.58362 0.75804 0.42093 0.0
H223 H 0.58362 0.75804 0.42093 0.0
H224 H 1.08874 0.69368 0.51157 0.0
H225 H 1.08874 0.69368 0.51157 0.0
H226 H 0.17715 0.92882 0.49972 0.0
H227 H 0.28848 0.97468 0.47393 0.0
C228 C 0.09063 1.07955 0.15185 0.0
C229 C 1.07509 0.16619 0.17806 0.0
C230 C 1.08442 0.26332 0.11998 0.0
C231 C 1.08447 0.17548 0.09376 0.0
N232 N 1.05294 1.00079 0.08701 0.0
N233 N 1.04275 0.342 0.18572 0.0
C234 C 1.07731 1.08401 0.11041 0.0
C235 C 1.06795 0.25862 0.16169 0.0
N236 N 0.12489 0.99299 0.16602 0.0
N237 N 0.10513 0.35085 0.10561 0.0
H238 H 1.03109 0.34161 0.21604 0.0
H239 H 1.02457 0.40992 0.17512 0.0
H240 H 0.11973 0.35745 0.07587 0.0
H241 H 0.11785 0.41528 0.12367 0.0
H242 H 0.14655 0.93002 0.1476 0.0
H243 H 0.14661 0.98752 0.19545 0.0
H244 H 1.0373 0.93441 0.0984 0.0
H245 H 1.03397 1.0008 0.05712 0.0
C246 C 0.99114 0.14945 0.44576 0.0
C247 C 1.08634 0.17526 0.4245 0.0
C248 C 0.19306 0.18342 0.48743 0.0
C249 C 0.10036 0.15166 0.50803 0.0
N250 N 0.91844 1.08285 0.50384 0.0
N251 N 0.28484 0.20184 0.42567 0.0
C252 C 1.00102 1.12958 0.48645 0.0
C253 C 0.18926 0.18722 0.44545 0.0
N254 N 0.8904 1.1423 0.42697 0.0
N255 N 0.28448 0.21438 0.50842 0.0
H256 H 0.28773 0.21304 0.39601 0.0
H257 H 0.36389 0.19612 0.43819 0.0
H258 H 0.29116 0.21058 0.53869 0.0
H259 H 0.34874 0.25157 0.49673 0.0
H260 H 0.81546 1.1385 0.44183 0.0
H261 H 0.88035 1.14491 0.39665 0.0
H262 H 0.84954 1.05453 0.48862 0.0
H263 H 0.92345 1.06326 0.53267 0.0
C264 C 1.02919 1.07089 0.76876 0.0
C265 C 1.08194 1.14715 0.75094 0.0
C266 C 0.13916 0.21856 0.8171 0.0
C267 C 1.08423 1.14367 0.83528 0.0
N268 N 0.99238 0.98938 0.82797 0.0
N269 N 0.20742 0.28068 0.75728 0.0
C270 C 1.03487 1.06649 0.81087 0.0
C271 C 0.14316 0.21691 0.77495 0.0
N272 N 0.97059 1.00425 0.74532 0.0
N273 N 0.18655 0.29279 0.84032 0.0
H274 H 0.21161 0.28222 0.72676 0.0
H275 H 0.2638 0.32657 0.77235 0.0
H276 H 0.19545 0.29172 0.87068 0.0
H277 H 0.21343 0.35713 0.82995 0.0
H278 H 0.91885 0.95338 0.75589 0.0
H279 H 0.97067 1.0024 0.71462 0.0
H280 H 0.96455 0.92602 0.81224 0.0
H281 H 0.99101 0.98567 0.8584 0.0
loop_
_geom_bond_atom_site_label_1
_geom_bond_atom_site_label_2
_geom_bond_distance
_geom_bond_site_symmetry_2
_ccdc_geom_bond_type
Sm0 C2 2.846 . S
Sm0 O20 2.543 1_554 S
Sm0 O21 2.450 . S
Sm0 O22 2.681 1_455 S
Sm0 O23 2.464 . S
Sm0 O24 2.396 . S
Sm0 O28 2.386 1_554 S
Sm0 O31 2.408 1_545 S
Sm1 C11 2.844 1_556 S
Sm1 O22 2.386 1_566 S
Sm1 O25 2.408 1_565 S
Sm1 O26 2.543 1_556 S
Sm1 O27 2.450 . S
Sm1 O28 2.681 1_665 S
Sm1 O29 2.464 . S
Sm1 O30 2.396 . S
C2 Sm0 2.846 . S
C2 C3 1.506 . S
C2 O20 1.261 1_554 S
C2 O21 1.242 . S
C3 C2 1.506 . S
C3 C4 1.358 1_554 S
C3 C8 1.382 . S
C4 C3 1.358 1_556 S
C4 C5 1.385 . S
C4 H32 0.930 . S
C5 C4 1.385 . S
C5 C6 1.385 1_556 S
C5 H33 0.929 . S
C6 C5 1.385 1_554 S
C6 C7 1.346 . S
C7 C6 1.346 . S
C7 C8 1.398 . S
C7 H34 0.930 . S
C8 C3 1.382 . S
C8 C7 1.398 . S
C8 H35 0.929 . S
C9 O22 1.271 1_455 S
C9 O23 1.251 . S
C10 O24 1.252 1_655 S
C10 O25 1.272 1_554 S
C11 Sm1 2.844 1_554 S
C11 C12 1.507 . S
C11 O26 1.270 . S
C11 O27 1.232 1_554 S
C12 C11 1.507 . S
C12 C13 1.358 . S
C12 C17 1.382 1_554 S
C13 C12 1.358 . S
C13 C14 1.385 . S
C13 H36 0.930 . S
C14 C13 1.385 . S
C14 C15 1.395 . S
C14 H37 0.929 . S
C15 C14 1.395 . S
C15 C16 1.335 1_554 S
C16 C15 1.335 1_556 S
C16 C17 1.398 . S
C16 H38 0.930 . S
C17 C12 1.382 1_556 S
C17 C16 1.398 . S
C17 H39 0.929 . S
C18 O28 1.271 1_655 S
C18 O29 1.251 1_545 S
C19 O30 1.252 1_455 S
C19 O31 1.272 1_556 S
O20 Sm0 2.543 1_556 S
O20 C2 1.261 1_556 S
O21 Sm0 2.450 . S
O21 C2 1.242 . S
O22 Sm0 2.681 1_655 S
O22 Sm1 2.386 1_544 S
O22 C9 1.271 1_655 S
O23 Sm0 2.464 . S
O23 C9 1.251 . S
O24 Sm0 2.396 . S
O24 C10 1.252 1_455 S
O25 Sm1 2.408 1_545 S
O25 C10 1.272 1_556 S
O26 Sm1 2.543 1_554 S
O26 C11 1.270 . S
O27 Sm1 2.450 . S
O27 C11 1.232 1_556 S
O28 Sm0 2.386 1_556 S
O28 Sm1 2.681 1_445 S
O28 C18 1.271 1_455 S
O29 Sm1 2.464 . S
O29 C18 1.251 1_565 S
O30 Sm1 2.396 . S
O30 C19 1.252 1_655 S
O31 Sm0 2.408 1_565 S
O31 C19 1.272 1_554 S
H32 C4 0.930 . S
H33 C5 0.929 . S
H34 C7 0.930 . S
H35 C8 0.929 . S
H36 C13 0.930 . S
H37 C14 0.929 . S
H38 C16 0.930 . S
H39 C17 0.929 . S
Sm40 C42 2.853 . S
Sm40 O60 2.543 1_455 S
Sm40 O61 2.450 . S
Sm40 O62 2.681 . S
Sm40 O63 2.464 . S
Sm40 O64 2.396 1_455 S
Sm40 O68 2.386 . S
Sm40 O71 2.408 . S
Sm41 C51 2.846 1_655 S
Sm41 O62 2.386 1_665 S
Sm41 O65 2.408 . S
Sm41 O66 2.543 1_655 S
Sm41 O67 2.450 1_655 S
Sm41 O68 2.681 1_665 S
Sm41 O69 2.464 . S
Sm41 O70 2.396 1_655 S
C42 Sm40 2.853 . S
C42 C43 1.499 1_455 S
C42 O60 1.262 1_455 S
C42 O61 1.248 . S
C43 C42 1.499 1_655 S
C43 C44 1.358 . S
C43 C48 1.382 . S
C44 C43 1.358 . S
C44 C45 1.385 . S
C44 H72 0.930 . S
C45 C44 1.385 . S
C45 C46 1.395 . S
C45 H73 0.929 . S
C46 C45 1.395 . S
C46 C47 1.335 . S
C47 C46 1.335 . S
C47 C48 1.398 . S
C47 H74 0.930 . S
C48 C43 1.382 . S
C48 C47 1.398 . S
C48 H75 0.933 . S
C49 O62 1.271 . S
C49 O63 1.251 . S
C50 O64 1.252 . S
C50 O65 1.272 1_545 S
C51 Sm41 2.846 1_455 S
C51 C52 1.506 . S
C51 O66 1.261 . S
C51 O67 1.242 . S
C52 C51 1.506 . S
C52 C53 1.358 . S
C52 C57 1.382 . S
C53 C52 1.358 . S
C53 C54 1.385 . S
C53 H76 0.930 . S
C54 C53 1.385 . S
C54 C55 1.395 . S
C54 H77 0.929 . S
C55 C54 1.395 . S
C55 C56 1.335 . S
C56 C55 1.335 . S
C56 C57 1.398 . S
C56 H78 0.930 . S
C57 C52 1.382 . S
C57 C56 1.398 . S
C57 H79 0.929 . S
C58 O68 1.271 . S
C58 O69 1.251 1_445 S
C59 O70 1.252 . S
C59 O71 1.272 1_565 S
O60 Sm40 2.543 1_655 S
O60 C42 1.262 1_655 S
O61 Sm40 2.450 . S
O61 C42 1.248 . S
O62 Sm40 2.681 . S
O62 Sm41 2.386 1_445 S
O62 C49 1.271 . S
O63 Sm40 2.464 . S
O63 C49 1.251 . S
O64 Sm40 2.396 1_655 S
O64 C50 1.252 . S
O65 Sm41 2.408 . S
O65 C50 1.272 1_565 S
O66 Sm41 2.543 1_455 S
O66 C51 1.261 . S
O67 Sm41 2.450 1_455 S
O67 C51 1.242 . S
O68 Sm40 2.386 . S
O68 Sm41 2.681 1_445 S
O68 C58 1.271 . S
O69 Sm41 2.464 . S
O69 C58 1.251 1_665 S
O70 Sm41 2.396 1_455 S
O70 C59 1.252 . S
O71 Sm40 2.408 . S
O71 C59 1.272 1_545 S
H72 C44 0.930 . S
H73 C45 0.929 . S
H74 C47 0.930 . S
H75 C48 0.933 . S
H76 C53 0.930 . S
H77 C54 0.929 . S
H78 C56 0.930 . S
H79 C57 0.929 . S
Sm80 C82 2.846 1_455 S
Sm80 O100 2.543 1_455 S
Sm80 O101 2.450 1_455 S
Sm80 O102 2.681 1_565 S
Sm80 O103 2.464 . S
Sm80 O104 2.396 1_455 S
Sm80 O108 2.386 . S
Sm80 O111 2.408 . S
Sm81 C91 2.846 . S
Sm81 O102 2.386 . S
Sm81 O105 2.408 1_455 S
Sm81 O106 2.543 . S
Sm81 O107 2.450 . S
Sm81 O108 2.681 1_545 S
Sm81 O109 2.464 . S
Sm81 O110 2.396 . S
C82 Sm80 2.846 1_655 S
C82 C83 1.506 . S
C82 O100 1.261 . S
C82 O101 1.242 . S
C83 C82 1.506 . S
C83 C84 1.358 . S
C83 C88 1.382 . S
C84 C83 1.358 . S
C84 C85 1.385 . S
C84 H112 0.930 . S
C85 C84 1.385 . S
C85 C86 1.395 . S
C85 H113 0.929 . S
C86 C85 1.395 . S
C86 C87 1.335 . S
C87 C86 1.335 . S
C87 C88 1.398 . S
C87 H114 0.930 . S
C88 C83 1.382 . S
C88 C87 1.398 . S
C88 H115 0.929 . S
C89 O102 1.271 1_565 S
C89 O103 1.251 . S
C90 O104 1.252 1_545 S
C90 O105 1.272 . S
C91 Sm81 2.846 . S
C91 C92 1.506 . S
C91 O106 1.261 . S
C91 O107 1.242 . S
C92 C91 1.506 . S
C92 C93 1.358 . S
C92 C97 1.382 . S
C93 C92 1.358 . S
C93 C94 1.385 . S
C93 H116 0.930 . S
C94 C93 1.385 . S
C94 C95 1.395 . S
C94 H117 0.929 . S
C95 C94 1.395 . S
C95 C96 1.335 . S
C96 C95 1.335 . S
C96 C97 1.398 . S
C96 H118 0.930 . S
C97 C92 1.382 . S
C97 C96 1.398 . S
C97 H119 0.929 . S
C98 O108 1.271 1_545 S
C98 O109 1.251 . S
C99 O110 1.252 . S
C99 O111 1.272 1_545 S
O100 Sm80 2.543 1_655 S
O100 C82 1.261 . S
O101 Sm80 2.450 1_655 S
O101 C82 1.242 . S
O102 Sm80 2.681 1_545 S
O102 Sm81 2.386 . S
O102 C89 1.271 1_545 S
O103 Sm80 2.464 . S
O103 C89 1.251 . S
O104 Sm80 2.396 1_655 S
O104 C90 1.252 1_565 S
O105 Sm81 2.408 1_655 S
O105 C90 1.272 . S
O106 Sm81 2.543 . S
O106 C91 1.261 . S
O107 Sm81 2.450 . S
O107 C91 1.242 . S
O108 Sm80 2.386 . S
O108 Sm81 2.681 1_565 S
O108 C98 1.271 1_565 S
O109 Sm81 2.464 . S
O109 C98 1.251 . S
O110 Sm81 2.396 . S
O110 C99 1.252 . S
O111 Sm80 2.408 . S
O111 C99 1.272 1_565 S
H112 C84 0.930 . S
H113 C85 0.929 . S
H114 C87 0.930 . S
H115 C88 0.929 . S
H116 C93 0.930 . S
H117 C94 0.929 . S
H118 C96 0.930 . S
H119 C97 0.929 . S
C120 C121 1.363 1_456 S
C120 C126 1.379 . S
C120 N128 1.356 . S
C121 C120 1.363 1_654 S
C121 C127 1.363 . S
C122 C123 1.363 1_655 S
C122 C127 1.379 . S
C122 N129 1.356 . S
C123 C122 1.363 1_455 S
C123 C126 1.363 1_554 S
N124 C126 1.356 . S
N124 H136 0.984 . S
N124 H137 0.985 . S
N125 C127 1.356 . S
N125 H130 0.984 . S
N125 H131 0.985 . S
C126 C120 1.379 . S
C126 C123 1.363 1_556 S
C126 N124 1.356 . S
C127 C121 1.363 . S
C127 C122 1.379 . S
C127 N125 1.356 . S
N128 C120 1.356 . S
N128 H134 0.984 . S
N128 H135 0.984 . S
N129 C122 1.356 . S
N129 H132 0.984 . S
N129 H133 0.985 . S
H130 N125 0.984 . S
H131 N125 0.985 . S
H132 N129 0.984 . S
H133 N129 0.985 . S
H134 N128 0.984 . S
H135 N128 0.984 . S
H136 N124 0.984 . S
H137 N124 0.985 . S
C138 C139 1.363 1_565 S
C138 C144 1.379 . S
C138 N146 1.356 . S
C139 C138 1.363 1_545 S
C139 C145 1.363 . S
C140 C141 1.363 . S
C140 C145 1.379 . S
C140 N147 1.356 . S
C141 C140 1.363 . S
C141 C144 1.363 1_545 S
N142 C144 1.356 . S
N142 H154 0.984 . S
N142 H155 0.985 . S
N143 C145 1.356 . S
N143 H148 0.984 . S
N143 H149 0.985 . S
C144 C138 1.379 . S
C144 C141 1.363 1_565 S
C144 N142 1.356 . S
C145 C139 1.363 . S
C145 C140 1.379 . S
C145 N143 1.356 . S
N146 C138 1.356 . S
N146 H152 0.984 . S
N146 H153 0.984 . S
N147 C140 1.356 . S
N147 H150 0.984 . S
N147 H151 0.985 . S
H148 N143 0.984 . S
H149 N143 0.985 . S
H150 N147 0.984 . S
H151 N147 0.985 . S
H152 N146 0.984 . S
H153 N146 0.984 . S
H154 N142 0.984 . S
H155 N142 0.985 . S
C156 C157 1.363 . S
C156 C162 1.379 . S
C156 N164 1.356 . S
C157 C156 1.363 . S
C157 C163 1.363 . S
C158 C159 1.363 . S
C158 C163 1.379 . S
C158 N165 1.356 . S
C159 C158 1.363 . S
C159 C162 1.363 . S
N160 C162 1.356 . S
N160 H172 0.984 . S
N160 H173 0.985 . S
N161 C163 1.356 . S
N161 H166 0.984 . S
N161 H167 0.985 . S
C162 C156 1.379 . S
C162 C159 1.363 . S
C162 N160 1.356 . S
C163 C157 1.363 . S
C163 C158 1.379 . S
C163 N161 1.356 . S
N164 C156 1.356 . S
N164 H170 0.984 . S
N164 H171 0.984 . S
N165 C158 1.356 . S
N165 H168 0.984 . S
N165 H169 0.985 . S
H166 N161 0.984 . S
H167 N161 0.985 . S
H168 N165 0.984 . S
H169 N165 0.985 . S
H170 N164 0.984 . S
H171 N164 0.984 . S
H172 N160 0.984 . S
H173 N160 0.985 . S
C174 C175 1.363 1_565 S
C174 C180 1.379 . S
C174 N182 1.356 . S
C175 C174 1.363 1_545 S
C175 C181 1.363 . S
C176 C177 1.363 . S
C176 C181 1.379 . S
C176 N183 1.356 . S
C177 C176 1.363 . S
C177 C180 1.363 1_545 S
N178 C180 1.356 . S
N178 H190 0.984 . S
N178 H191 0.985 . S
N179 C181 1.356 . S
N179 H184 0.984 . S
N179 H185 0.985 . S
C180 C174 1.379 . S
C180 C177 1.363 1_565 S
C180 N178 1.356 . S
C181 C175 1.363 . S
C181 C176 1.379 . S
C181 N179 1.356 . S
N182 C174 1.356 . S
N182 H188 0.984 . S
N182 H189 0.984 . S
N183 C176 1.356 . S
N183 H186 0.984 . S
N183 H187 0.985 . S
H184 N179 0.984 . S
H185 N179 0.985 . S
H186 N183 0.984 . S
H187 N183 0.985 . S
H188 N182 0.984 . S
H189 N182 0.984 . S
H190 N178 0.984 . S
H191 N178 0.985 . S
C192 C193 1.363 1_556 S
C192 C198 1.379 . S
C192 N200 1.356 . S
C193 C192 1.363 1_554 S
C193 C199 1.363 . S
C194 C195 1.362 1_554 S
C194 C199 1.379 . S
C194 N201 1.356 . S
C195 C194 1.362 1_556 S
C195 C198 1.364 . S
N196 C198 1.356 . S
N196 H208 0.984 . S
N196 H209 0.985 . S
N197 C199 1.356 . S
N197 H202 0.984 . S
N197 H203 0.985 . S
C198 C192 1.379 . S
C198 C195 1.364 . S
C198 N196 1.356 . S
C199 C193 1.363 . S
C199 C194 1.379 . S
C199 N197 1.356 . S
N200 C192 1.356 . S
N200 H206 0.984 . S
N200 H207 0.984 . S
N201 C194 1.356 . S
N201 H204 0.984 . S
N201 H205 0.985 . S
H202 N197 0.984 . S
H203 N197 0.985 . S
H204 N201 0.984 . S
H205 N201 0.985 . S
H206 N200 0.984 . S
H207 N200 0.984 . S
H208 N196 0.984 . S
H209 N196 0.985 . S
C210 C211 1.363 . S
C210 C216 1.379 1_655 S
C210 N218 1.356 . S
C211 C210 1.363 . S
C211 C217 1.363 . S
C212 C213 1.363 . S
C212 C217 1.379 1_455 S
C212 N219 1.356 . S
C213 C212 1.363 . S
C213 C216 1.363 . S
N214 C216 1.356 . S
N214 H226 0.984 . S
N214 H227 0.985 . S
N215 C217 1.356 . S
N215 H220 0.984 . S
N215 H221 0.985 . S
C216 C210 1.379 1_455 S
C216 C213 1.363 . S
C216 N214 1.356 . S
C217 C211 1.363 . S
C217 C212 1.379 1_655 S
C217 N215 1.356 . S
N218 C210 1.356 . S
N218 H224 0.984 . S
N218 H225 0.984 . S
N219 C212 1.356 . S
N219 H222 0.984 . S
N219 H223 0.985 . S
H220 N215 0.984 . S
H221 N215 0.985 . S
H222 N219 0.984 . S
H223 N219 0.985 . S
H224 N218 0.984 . S
H225 N218 0.984 . S
H226 N214 0.984 . S
H227 N214 0.985 . S
C228 C229 1.363 1_565 S
C228 C234 1.379 . S
C228 N236 1.356 . S
C229 C228 1.363 1_545 S
C229 C235 1.363 1_455 S
C230 C231 1.363 1_655 S
C230 C235 1.379 . S
C230 N237 1.356 . S
C231 C230 1.363 1_455 S
C231 C234 1.363 1_545 S
N232 C234 1.356 . S
N232 H244 0.984 . S
N232 H245 0.985 . S
N233 C235 1.356 . S
N233 H238 0.984 . S
N233 H239 0.985 . S
C234 C228 1.379 . S
C234 C231 1.363 1_565 S
C234 N232 1.356 . S
C235 C229 1.363 1_655 S
C235 C230 1.379 . S
C235 N233 1.356 . S
N236 C228 1.356 . S
N236 H242 0.984 . S
N236 H243 0.984 . S
N237 C230 1.356 . S
N237 H240 0.984 . S
N237 H241 0.985 . S
H238 N233 0.984 . S
H239 N233 0.985 . S
H240 N237 0.984 . S
H241 N237 0.985 . S
H242 N236 0.984 . S
H243 N236 0.984 . S
H244 N232 0.984 . S
H245 N232 0.985 . S
C246 C247 1.363 1_665 S
C246 C252 1.379 . S
C246 N254 1.356 . S
C247 C246 1.363 1_445 S
C247 C253 1.363 . S
C248 C249 1.363 . S
C248 C253 1.379 . S
C248 N255 1.356 . S
C249 C248 1.363 . S
C249 C252 1.363 1_445 S
N250 C252 1.356 . S
N250 H262 0.984 . S
N250 H263 0.985 . S
N251 C253 1.356 . S
N251 H256 0.984 . S
N251 H257 0.985 . S
C252 C246 1.379 . S
C252 C249 1.363 1_665 S
C252 N250 1.356 . S
C253 C247 1.363 . S
C253 C248 1.379 . S
C253 N251 1.356 . S
N254 C246 1.356 . S
N254 H260 0.984 . S
N254 H261 0.984 . S
N255 C248 1.356 . S
N255 H258 0.984 . S
N255 H259 0.985 . S
H256 N251 0.984 . S
H257 N251 0.985 . S
H258 N255 0.984 . S
H259 N255 0.985 . S
H260 N254 0.984 . S
H261 N254 0.984 . S
H262 N250 0.984 . S
H263 N250 0.985 . S
C264 C265 1.363 1_665 S
C264 C270 1.379 . S
C264 N272 1.356 . S
C265 C264 1.363 1_445 S
C265 C271 1.363 . S
C266 C267 1.363 . S
C266 C271 1.379 . S
C266 N273 1.356 . S
C267 C266 1.363 . S
C267 C270 1.363 1_445 S
N268 C270 1.356 . S
N268 H280 0.984 . S
N268 H281 0.985 . S
N269 C271 1.356 . S
N269 H274 0.984 . S
N269 H275 0.985 . S
C270 C264 1.379 . S
C270 C267 1.363 1_665 S
C270 N268 1.356 . S
C271 C265 1.363 . S
C271 C266 1.379 . S
C271 N269 1.356 . S
N272 C264 1.356 . S
N272 H278 0.984 . S
N272 H279 0.984 . S
N273 C266 1.356 . S
N273 H276 0.984 . S
N273 H277 0.985 . S
H274 N269 0.984 . S
H275 N269 0.985 . S
H276 N273 0.984 . S
H277 N273 0.985 . S
H278 N272 0.984 . S
H279 N272 0.984 . S
H280 N268 0.984 . S
H281 N268 0.985 . S
C121 C10 4.930 . S
C123 C19 4.930 1_554 S
C139 C59 3.109 1_545 S
C141 C50 3.109 . S
C157 C86 0.592 . S
C159 C95 0.592 . S
C175 C90 3.007 . S
C177 C99 3.007 . S
C193 C15 0.900 . S
C195 C6 0.899 1_556 S
C211 C46 0.883 . S
C213 C55 0.883 . S
C229 C58 1.457 . S
C231 C9 1.445 . S
C247 C49 1.471 . S
C249 C89 1.472 1_545 S
C265 C98 1.452 . S
C267 C18 1.472 1_455 S
