# Generated by pormake.
# Topology pts-e, (5)-cn, num edge types: 1
# Building blocks:
#     Node 0, Type 0, BuildingBlock: XOMCOT_clean_sbu_0, # of connection points: 5
#     Node 1, Type 0, BuildingBlock: XOMCOT_clean_sbu_0, # of connection points: 5
#     Node 2, Type 0, BuildingBlock: XOMCOT_clean_sbu_0, # of connection points: 5
#     Node 3, Type 0, BuildingBlock: XOMCOT_clean_sbu_0, # of connection points: 5
#     Node 4, Type 0, BuildingBlock: XOMCOT_clean_sbu_0, # of connection points: 5
#     Node 5, Type 0, BuildingBlock: XOMCOT_clean_sbu_0, # of connection points: 5
#     Node 6, Type 0, BuildingBlock: XOMCOT_clean_sbu_0, # of connection points: 5
#     Node 7, Type 0, BuildingBlock: XOMCOT_clean_sbu_0, # of connection points: 5
#     Edge 8, Type (0, 0), BuildingBlock: CIFDUS_clean_linker_0, # of connection points: 2
#     Edge 9, Type (0, 0), BuildingBlock: CIFDUS_clean_linker_0, # of connection points: 2
#     Edge 10, Type (0, 0), BuildingBlock: CIFDUS_clean_linker_0, # of connection points: 2
#     Edge 11, Type (0, 0), BuildingBlock: CIFDUS_clean_linker_0, # of connection points: 2
#     Edge 12, Type (0, 0), BuildingBlock: CIFDUS_clean_linker_0, # of connection points: 2
#     Edge 13, Type (0, 0), BuildingBlock: CIFDUS_clean_linker_0, # of connection points: 2
#     Edge 14, Type (0, 0), BuildingBlock: CIFDUS_clean_linker_0, # of connection points: 2
#     Edge 15, Type (0, 0), BuildingBlock: CIFDUS_clean_linker_0, # of connection points: 2
#     Edge 16, Type (0, 0), BuildingBlock: CIFDUS_clean_linker_0, # of connection points: 2
#     Edge 17, Type (0, 0), BuildingBlock: CIFDUS_clean_linker_0, # of connection points: 2
#     Edge 18, Type (0, 0), BuildingBlock: CIFDUS_clean_linker_0, # of connection points: 2
#     Edge 19, Type (0, 0), BuildingBlock: CIFDUS_clean_linker_0, # of connection points: 2
#     Edge 20, Type (0, 0), BuildingBlock: CIFDUS_clean_linker_0, # of connection points: 2
#     Edge 21, Type (0, 0), BuildingBlock: CIFDUS_clean_linker_0, # of connection points: 2
#     Edge 22, Type (0, 0), BuildingBlock: CIFDUS_clean_linker_0, # of connection points: 2
#     Edge 23, Type (0, 0), BuildingBlock: CIFDUS_clean_linker_0, # of connection points: 2
#     Edge 24, Type (0, 0), BuildingBlock: CIFDUS_clean_linker_0, # of connection points: 2
#     Edge 25, Type (0, 0), BuildingBlock: CIFDUS_clean_linker_0, # of connection points: 2
#     Edge 26, Type (0, 0), BuildingBlock: CIFDUS_clean_linker_0, # of connection points: 2
#     Edge 27, Type (0, 0), BuildingBlock: CIFDUS_clean_linker_0, # of connection points: 2
# Relax obj value: 0.544
# Max RMSD: 0.259
# Mean RMSD: 0.259
data_MOF--net-pts-e--node1-XOMCOT_clean_sbu_0--edge1-CIFDUS_clean_linker_0
_symmetry_space_group_name_H-M    P1
_symmetry_Int_Tables_number       1
_symmetry_cell_setting            triclinic
loop_
_symmetry_equiv_pos_as_xyz
'x, y, z'
_cell_length_a     30.605441
_cell_length_b     30.715396
_cell_length_c     42.443212
_cell_angle_alpha  89.948972
_cell_angle_beta   90.05323
_cell_angle_gamma 90.02225
loop_
_atom_site_label
_atom_site_type_symbol
_atom_site_fract_x
_atom_site_fract_y
_atom_site_fract_z
_atom_type_partial_charge
Co0 Co 0.27478 -0.00134 0.1338 0.0
C1 C 0.37049 0.99597 0.13452 0.0
C2 C 0.34573 0.93651 0.15365 0.0
C3 C 0.39087 0.93588 0.1556 0.0
N4 N 0.33293 0.97521 0.14158 0.0
N5 N 0.40596 0.97339 0.14332 0.0
H6 H 0.37244 0.02724 0.12305 0.0
H7 H 0.32431 0.91018 0.16036 0.0
C8 C 0.2538 0.93933 0.18927 0.0
O9 O 0.28502 0.95747 0.20602 0.0
N10 N 0.21795 0.02369 0.12534 0.0
C11 C 0.21176 0.06485 0.11525 0.0
C12 C 0.16793 0.07362 0.11486 0.0
C13 C 0.17756 0.00797 0.13123 0.0
N14 N 0.14631 0.03809 0.12518 0.0
C15 C 0.31036 0.0723 0.16633 0.0
C16 C 0.24747 0.07524 0.21278 0.0
C17 C 0.27746 0.10934 0.21012 0.0
C18 C 0.30954 0.1076 0.18692 0.0
C19 C 0.24873 0.0412 0.19124 0.0
N20 N 0.28037 0.03942 0.16859 0.0
H21 H 0.3326 0.07397 0.14687 0.0
H22 H 0.22215 0.01817 0.19145 0.0
H23 H 0.23746 0.08766 0.1095 0.0
H24 H 0.17131 0.97601 0.14094 0.0
O25 O 0.29833 0.03482 0.10065 0.0
O26 O 0.27292 0.96779 0.09419 0.0
O27 O 0.24664 0.95184 0.16094 0.0
C28 C 0.28975 0.00274 0.08173 0.0
H29 H 0.41097 0.9099 0.16494 0.0
H30 H 0.15331 0.10413 0.10773 0.0
H31 H 0.2208 0.07695 0.22952 0.0
H32 H 0.3317 0.13467 0.18333 0.0
Co33 Co 0.02536 0.27526 0.65 0.0
C34 C 0.03162 0.37131 0.6546 0.0
C35 C 0.09453 0.34207 0.64873 0.0
C36 C 0.09943 0.38677 0.64845 0.0
N37 N 0.05194 0.33245 0.65298 0.0
N38 N 0.05961 0.40494 0.65192 0.0
H39 H 0.99704 0.37555 0.65695 0.0
H40 H 0.12004 0.31824 0.6451 0.0
C41 C 0.08915 0.2664 0.70328 0.0
O42 O 0.0754 0.30438 0.71348 0.0
N43 N 0.99819 0.21873 0.64635 0.0
C44 C 0.95487 0.21201 0.64317 0.0
C45 C 0.94692 0.16807 0.64339 0.0
C46 C 0.01624 0.17873 0.64802 0.0
N47 N 0.98541 0.14723 0.64644 0.0
C48 C 0.94934 0.31139 0.67885 0.0
C49 C 0.95055 0.25792 0.731 0.0
C50 C 0.91215 0.28031 0.72338 0.0
C51 C 0.91248 0.30903 0.69794 0.0
C52 C 0.98654 0.26076 0.71111 0.0
N53 N 0.98571 0.2868 0.68496 0.0
H54 H 0.94584 0.32876 0.65698 0.0
H55 H 0.0123 0.2375 0.71482 0.0
H56 H 0.93056 0.23739 0.64116 0.0
H57 H 0.05087 0.1728 0.65096 0.0
O58 O 0.98856 0.29565 0.61631 0.0
O59 O 0.05425 0.26674 0.60976 0.0
O60 O 0.07237 0.24984 0.67837 0.0
C61 C 0.01905 0.28315 0.59718 0.0
H62 H 0.1296 0.40442 0.64472 0.0
H63 H 0.9153 0.15256 0.64114 0.0
H64 H 0.95098 0.23397 0.74977 0.0
H65 H 0.88294 0.32586 0.69085 0.0
Co66 Co 0.76956 0.0296 0.14965 0.0
C67 C 0.67809 0.04089 0.17094 0.0
C68 C 0.70241 0.09812 0.14813 0.0
C69 C 0.65799 0.10279 0.15256 0.0
N70 N 0.71484 0.05876 0.15909 0.0
N71 N 0.64307 0.06667 0.16699 0.0
H72 H 0.67538 0.00832 0.17992 0.0
H73 H 0.7234 0.12045 0.13551 0.0
C74 C 0.79112 0.09098 0.20272 0.0
O75 O 0.75478 0.07943 0.21689 0.0
N76 N 0.82346 -8e-05 0.13989 0.0
C77 C 0.82654 0.95852 0.12972 0.0
C78 C 0.86987 0.94788 0.12676 0.0
C79 C 0.86494 0.01391 0.1432 0.0
N80 N 0.89416 0.98261 0.13535 0.0
C81 C 0.73486 0.95283 0.17749 0.0
C82 C 0.79209 0.94906 0.2276 0.0
C83 C 0.76633 0.91273 0.22044 0.0
C84 C 0.73644 0.9153 0.19577 0.0
C85 C 0.78996 0.98587 0.2084 0.0
N86 N 0.76157 0.9876 0.18355 0.0
H87 H 0.71372 0.95261 0.15715 0.0
H88 H 0.81436 0.01064 0.21185 0.0
H89 H 0.79914 0.93726 0.12502 0.0
H90 H 0.87341 0.04597 0.15172 0.0
O91 O 0.74112 -0.00252 0.11626 0.0
O92 O 0.7735 0.06137 0.11024 0.0
O93 O 0.80224 0.07297 0.17678 0.0
C94 C 0.75275 0.02878 0.09756 0.0
H95 H 0.63781 0.12919 0.14396 0.0
H96 H 0.88225 0.91693 0.11858 0.0
H97 H 0.81702 0.94728 0.2457 0.0
H98 H 0.71699 0.88729 0.1891 0.0
Co99 Co 0.9974 0.77101 0.63459 0.0
C100 C 0.9888 0.67544 0.63872 0.0
C101 C 0.92617 0.70596 0.64168 0.0
C102 C 0.92053 0.66136 0.64338 0.0
N103 N 0.96929 0.71474 0.63968 0.0
N104 N 0.96021 0.64242 0.64176 0.0
H105 H 0.02282 0.67042 0.63384 0.0
H106 H 0.90052 0.73015 0.64156 0.0
C107 C 0.93455 0.7879 0.68782 0.0
O108 O 0.9484 0.7519 0.70127 0.0
N109 N 0.02625 0.82639 0.62893 0.0
C110 C 0.06949 0.83146 0.62433 0.0
C111 C 0.0788 0.87509 0.62288 0.0
C112 C 0.00967 0.86702 0.63021 0.0
N113 N 0.04126 0.89752 0.62656 0.0
C114 C 0.07017 0.73269 0.66656 0.0
C115 C 0.07193 0.7911 0.71578 0.0
C116 C 0.10792 0.76382 0.71083 0.0
C117 C 0.10603 0.73313 0.68672 0.0
C118 C 0.03686 0.7899 0.69488 0.0
N119 N 0.03603 0.76095 0.67043 0.0
H120 H 0.07323 0.71335 0.64567 0.0
H121 H 0.0132 0.81574 0.69649 0.0
H122 H 0.09287 0.80515 0.62282 0.0
H123 H 0.97538 0.87402 0.63375 0.0
O124 O 0.03429 0.74719 0.60229 0.0
O125 O 0.96963 0.77732 0.59365 0.0
O126 O 0.95071 0.80001 0.66138 0.0
C127 C 0.00481 0.75938 0.5822 0.0
H128 H 0.88972 0.64433 0.64558 0.0
H129 H 0.11102 0.88914 0.62024 0.0
H130 H 0.07307 0.81669 0.73332 0.0
H131 H 0.13396 0.71269 0.68152 0.0
Co132 Co 0.27545 0.05447 0.84845 0.0
C133 C 0.37043 0.05205 0.83701 0.0
C134 C 0.34434 0.11409 0.82412 0.0
C135 C 0.38886 0.11441 0.81872 0.0
N136 N 0.33263 0.07431 0.83467 0.0
N137 N 0.40505 0.07506 0.82669 0.0
H138 H 0.37346 0.02082 0.84817 0.0
H139 H 0.32233 0.14128 0.82102 0.0
C140 C 0.25443 0.10078 0.78804 0.0
O141 O 0.28629 0.07856 0.77494 0.0
N142 N 0.21927 0.03372 0.86294 0.0
C143 C 0.21301 0.99492 0.87709 0.0
C144 C 0.16917 0.9887 0.88162 0.0
C145 C 0.17895 0.05068 0.85892 0.0
N146 N 0.14765 0.02352 0.87003 0.0
C147 C 0.30169 0.97077 0.82593 0.0
C148 C 0.23269 0.96043 0.78484 0.0
C149 C 0.25806 0.92442 0.79309 0.0
C150 C 0.29359 0.92985 0.8131 0.0
C151 C 0.24135 0.00059 0.79862 0.0
N152 N 0.27555 0.00572 0.81908 0.0
H153 H 0.32558 0.97224 0.84436 0.0
H154 H 0.21739 0.02589 0.79543 0.0
H155 H 0.23855 0.97201 0.88301 0.0
H156 H 0.17254 0.08131 0.84721 0.0
O157 O 0.30225 0.02518 0.88333 0.0
O158 O 0.27877 0.09329 0.88464 0.0
O159 O 0.24567 0.09524 0.81729 0.0
C160 C 0.29569 0.0602 0.89961 0.0
H161 H 0.40771 0.14162 0.80991 0.0
H162 H 0.15434 0.96051 0.89257 0.0
H163 H 0.20374 0.95659 0.77037 0.0
H164 H 0.31259 0.90207 0.82087 0.0
Co165 Co 0.00946 0.26551 0.3576 0.0
C166 C 0.00056 0.35782 0.33823 0.0
C167 C 0.9441 0.33554 0.36319 0.0
C168 C 0.94084 0.38006 0.35914 0.0
N169 N 0.98205 0.32171 0.35048 0.0
N170 N 0.97648 0.3937 0.34336 0.0
H171 H 0.03241 0.35928 0.32776 0.0
H172 H 0.92175 0.31525 0.37637 0.0
C173 C 0.94194 0.24771 0.30746 0.0
O174 O 0.9529 0.28416 0.29332 0.0
N175 N 0.03741 0.21023 0.36508 0.0
C176 C 0.08021 0.20456 0.37132 0.0
C177 C 0.08862 0.16076 0.37344 0.0
C178 C 0.02025 0.16991 0.36348 0.0
N179 N 0.05096 0.139 0.36845 0.0
C180 C 0.08482 0.29758 0.32568 0.0
C181 C 0.07831 0.24473 0.27342 0.0
C182 C 0.11607 0.26965 0.2779 0.0
C183 C 0.11887 0.29694 0.30402 0.0
C184 C 0.04527 0.24576 0.29597 0.0
N185 N 0.04819 0.2726 0.32155 0.0
H186 H 0.08897 0.31707 0.34658 0.0
H187 H 0.01962 0.22197 0.29396 0.0
H188 H 0.10393 0.23048 0.37347 0.0
H189 H 0.98616 0.16334 0.35868 0.0
O190 O 0.04643 0.29112 0.3895 0.0
O191 O 0.98157 0.26169 0.39846 0.0
O192 O 0.96196 0.23558 0.33242 0.0
C193 C 0.01655 0.28019 0.40967 0.0
H194 H 0.91548 0.40098 0.36842 0.0
H195 H 0.12033 0.1461 0.37731 0.0
H196 H 0.07622 0.22145 0.25431 0.0
H197 H 0.14833 0.31543 0.3087 0.0
Co198 Co 0.76193 0.97854 0.86351 0.0
C199 C 0.66708 0.97939 0.85016 0.0
C200 C 0.69452 0.9169 0.84021 0.0
C201 C 0.65062 0.91603 0.8327 0.0
N202 N 0.70507 0.95722 0.85025 0.0
N203 N 0.63358 0.95567 0.83876 0.0
H204 H 0.66311 0.0115 0.85966 0.0
H205 H 0.71708 0.88995 0.83836 0.0
C206 C 0.78441 0.92944 0.80386 0.0
O207 O 0.75292 0.95011 0.78902 0.0
N208 N 0.81817 0.00041 0.87705 0.0
C209 C 0.825 0.03926 0.89096 0.0
C210 C 0.86917 0.04634 0.89328 0.0
C211 C 0.85832 0.98434 0.87105 0.0
N212 N 0.89012 0.01196 0.88058 0.0
C213 C 0.73385 0.06127 0.84077 0.0
C214 C 0.79937 0.07164 0.79691 0.0
C215 C 0.77352 0.10729 0.80523 0.0
C216 C 0.73979 0.10174 0.82673 0.0
C217 C 0.79278 0.03176 0.81187 0.0
N218 N 0.76013 0.02661 0.83355 0.0
H219 H 0.71143 0.06004 0.86014 0.0
H220 H 0.81702 0.00684 0.80831 0.0
H221 H 0.79961 0.06176 0.8979 0.0
H222 H 0.8642 0.95411 0.85873 0.0
O223 O 0.73528 0.00804 0.89842 0.0
O224 O 0.76004 0.94043 0.90018 0.0
O225 O 0.79195 0.93733 0.83299 0.0
C226 C 0.74289 0.97345 0.91499 0.0
H227 H 0.63289 0.88847 0.82328 0.0
H228 H 0.88459 0.07491 0.90323 0.0
H229 H 0.82711 0.07566 0.78132 0.0
H230 H 0.72058 0.12929 0.8346 0.0
Co231 Co 0.03486 0.76353 0.34268 0.0
C232 C 0.04236 0.66991 0.35577 0.0
C233 C 0.10103 0.69205 0.33366 0.0
C234 C 0.10334 0.64736 0.3372 0.0
N235 N 0.06178 0.70599 0.34418 0.0
N236 N 0.06629 0.63386 0.35119 0.0
H237 H 0.01033 0.66927 0.36643 0.0
H238 H 0.12649 0.71228 0.32399 0.0
C239 C 0.10194 0.77976 0.29086 0.0
O240 O 0.08759 0.74611 0.27477 0.0
N241 N 0.00675 0.8197 0.34204 0.0
C242 C 0.96325 0.8261 0.34012 0.0
C243 C 0.9552 0.87003 0.33957 0.0
C244 C 0.0247 0.85972 0.34314 0.0
N245 N 0.99377 0.89107 0.34149 0.0
C246 C 0.97179 0.71546 0.30718 0.0
C247 C 0.96723 0.77377 0.2578 0.0
C248 C 0.93389 0.7431 0.26172 0.0
C249 C 0.93741 0.71233 0.28576 0.0
C250 C 0.00032 0.77655 0.2802 0.0
N251 N 0.00186 0.74824 0.30505 0.0
H252 H 0.97057 0.69472 0.32749 0.0
H253 H 0.02152 0.80461 0.27942 0.0
H254 H 0.93907 0.80045 0.33895 0.0
H255 H 0.05948 0.86574 0.34471 0.0
O256 O 0.99253 0.74577 0.37388 0.0
O257 O 0.05714 0.77523 0.38441 0.0
O258 O 0.08553 0.78895 0.31778 0.0
C259 C 0.02027 0.75963 0.39479 0.0
H260 H 0.12983 0.62641 0.32978 0.0
H261 H 0.92339 0.88534 0.33837 0.0
H262 H 0.96451 0.79917 0.24016 0.0
H263 H 0.91132 0.68922 0.29003 0.0
H264 H 0.29324 0.07731 0.04767 0.0
H265 H 0.30094 0.93751 0.03937 0.0
H266 H 0.30838 0.94405 0.98224 0.0
H267 H 0.30797 0.98871 0.93496 0.0
H268 H 0.29348 0.12814 0.94182 0.0
H269 H 0.29397 0.1227 -0.00045 0.0
C270 C 0.29704 0.04836 0.03331 0.0
C271 C 0.29665 0.00694 0.04756 0.0
C272 C 0.30001 0.05236 0.00042 0.0
C273 C 0.30099 0.96964 0.02882 0.0
C274 C 0.3053 0.9734 0.99623 0.0
C275 C 0.30554 0.01813 0.94899 0.0
C276 C 0.30092 0.05887 0.93417 0.0
C277 C 0.30422 0.0145 0.98181 0.0
C278 C 0.29723 0.09647 0.95273 0.0
C279 C 0.29733 0.0933 0.98566 0.0
H280 H 0.9557 0.2814 0.456 0.0
H281 H 0.09453 0.28901 0.43961 0.0
H282 H 0.10811 0.29044 0.49633 0.0
H283 H 0.08046 0.28676 0.55087 0.0
H284 H 0.94133 0.28346 0.56687 0.0
H285 H 0.92792 0.28312 0.51022 0.0
C286 C 0.98885 0.28365 0.46491 0.0
C287 C 0.02402 0.28488 0.44378 0.0
C288 C 0.9964 0.28502 0.49752 0.0
C289 C 0.06687 0.2882 0.45551 0.0
C290 C 0.0747 0.2888 0.48793 0.0
C291 C 0.04729 0.28608 0.54185 0.0
C292 C 0.01198 0.28486 0.56288 0.0
C293 C 0.03974 0.28675 0.50918 0.0
C294 C 0.96908 0.28452 0.55104 0.0
C295 C 0.96134 0.28421 0.51867 0.0
H296 H 0.7441 0.9552 0.06309 0.0
H297 H 0.74666 0.09523 0.05541 0.0
H298 H 0.73931 0.08981 -0.00187 0.0
H299 H 0.73664 0.04554 0.95052 0.0
H300 H 0.74111 0.90543 0.9571 0.0
H301 H 0.74084 0.91045 0.01483 0.0
C302 C 0.74251 0.98449 0.04884 0.0
C303 C 0.74568 0.02561 0.06331 0.0
C304 C 0.73967 0.98102 0.01591 0.0
C305 C 0.74433 0.06331 0.04469 0.0
C306 C 0.74011 0.06019 0.01202 0.0
C307 C 0.7369 0.01598 0.96453 0.0
C308 C 0.73852 0.97509 0.94961 0.0
C309 C 0.73835 0.01925 0.99741 0.0
C310 C 0.73967 0.93721 0.96809 0.0
C311 C 0.73965 0.94013 0.00103 0.0
H312 H 0.07719 0.7558 0.44342 0.0
H313 H 0.93966 0.76051 0.42173 0.0
H314 H 0.92202 0.76096 0.47798 0.0
H315 H 0.94615 0.76143 0.53363 0.0
H316 H 0.08386 0.7518 0.55447 0.0
H317 H 0.10092 0.75163 0.49847 0.0
C318 C 0.04339 0.75693 0.45108 0.0
C319 C 0.0098 0.75848 0.42864 0.0
C320 C 0.03351 0.7562 0.48334 0.0
C321 C 0.96608 0.75927 0.43871 0.0
C322 C 0.95598 0.75962 0.47083 0.0
C323 C 0.9798 0.75911 0.5258 0.0
C324 C 0.01364 0.75675 0.5481 0.0
C325 C 0.98946 0.75828 0.4934 0.0
C326 C 0.05714 0.75342 0.53774 0.0
C327 C 0.06702 0.75351 0.50571 0.0
H328 H 0.18988 0.23691 0.30146 0.0
H329 H 0.12836 0.27521 0.21441 0.0
H330 H 0.18437 0.2362 0.18443 0.0
H331 H 0.23878 0.17783 0.18417 0.0
H332 H 0.29078 0.12962 0.27177 0.0
H333 H 0.25171 0.18658 0.30072 0.0
C334 C 0.18996 0.23809 0.2759 0.0
C335 C 0.15549 0.25864 0.25993 0.0
C336 C 0.22031 0.21326 0.25915 0.0
C337 C 0.15491 0.25949 0.22692 0.0
C338 C 0.18665 0.23698 0.20991 0.0
C339 C 0.24285 0.18123 0.20947 0.0
C340 C 0.26747 0.15032 0.22607 0.0
C341 C 0.21786 0.21177 0.22587 0.0
C342 C 0.27214 0.15368 0.2588 0.0
C343 C 0.24948 0.18584 0.27524 0.0
H344 H 0.76653 0.14761 0.74891 0.0
H345 H 0.81465 0.16343 0.84357 0.0
H346 H 0.85594 0.228 0.82772 0.0
H347 H 0.88973 0.26932 0.78461 0.0
H348 H 0.8427 0.25204 0.68966 0.0
H349 H 0.78816 0.20018 0.70797 0.0
C350 C 0.78498 0.16624 0.76608 0.0
C351 C 0.78831 0.15116 0.79707 0.0
C352 C 0.80881 0.20295 0.75673 0.0
C353 C 0.81201 0.17498 0.8195 0.0
C354 C 0.83568 0.21163 0.81044 0.0
C355 C 0.8663 0.25543 0.76826 0.0
C356 C 0.87046 0.26384 0.73595 0.0
C357 C 0.83601 0.22455 0.77879 0.0
C358 C 0.83995 0.24608 0.71475 0.0
C359 C 0.80917 0.21589 0.72511 0.0
H360 H 0.7982 0.84664 0.187 0.0
H361 H 0.76575 0.88547 0.28164 0.0
H362 H 0.80693 0.82353 0.30272 0.0
H363 H 0.86545 0.77097 0.29416 0.0
H364 H 0.90887 0.74261 0.1999 0.0
H365 H 0.84911 0.78652 0.17824 0.0
C366 C 0.79879 0.84032 0.21217 0.0
C367 C 0.77917 0.87003 0.23292 0.0
C368 C 0.82489 0.8067 0.22395 0.0
C369 C 0.78067 0.86262 0.26547 0.0
C370 C 0.80437 0.82749 0.2774 0.0
C371 C 0.86038 0.77283 0.26886 0.0
C372 C 0.89089 0.75363 0.24847 0.0
C373 C 0.82855 0.80095 0.25691 0.0
C374 C 0.88523 0.75691 0.2158 0.0
C375 C 0.85151 0.78243 0.20355 0.0
H376 H 0.2673 0.87824 0.73949 0.0
H377 H 0.20915 0.87555 0.83178 0.0
H378 H 0.1618 0.81516 0.81612 0.0
H379 H 0.12631 0.77608 0.77263 0.0
H380 H 0.18322 0.78075 0.67982 0.0
H381 H 0.24281 0.82588 0.69931 0.0
C382 C 0.24542 0.86307 0.75635 0.0
C383 C 0.24101 0.88092 0.78645 0.0
C384 C 0.2179 0.82902 0.74698 0.0
C385 C 0.2127 0.86175 0.80842 0.0
C386 C 0.18552 0.82757 0.79943 0.0
C387 C 0.15278 0.78564 0.75709 0.0
C388 C 0.15021 0.77589 0.72491 0.0
C389 C 0.18618 0.8127 0.76825 0.0
C390 C 0.18464 0.78793 0.70479 0.0
C391 C 0.21843 0.81424 0.7158 0.0
H392 H 0.91612 0.78871 0.7506 0.0
H393 H 0.88344 0.85248 0.66311 0.0
H394 H 0.83297 0.90071 0.69096 0.0
H395 H 0.79874 0.92558 0.74042 0.0
H396 H 0.83537 0.86482 0.82824 0.0
H397 H 0.88349 0.81474 0.80008 0.0
C398 C 0.89774 0.81296 0.73757 0.0
C399 C 0.90332 0.81665 0.70472 0.0
C400 C 0.86948 0.84125 0.75386 0.0
C401 C 0.87974 0.84881 0.68835 0.0
C402 C 0.85084 0.87642 0.70428 0.0
C403 C 0.81706 0.9012 0.75337 0.0
C404 C 0.81314 0.8988 0.78642 0.0
C405 C 0.84549 0.87303 0.73706 0.0
C406 C 0.83769 0.86743 0.80284 0.0
C407 C 0.86522 0.83871 0.78673 0.0
H408 H 0.24107 0.92241 0.25171 0.0
H409 H 0.20195 0.88044 0.15889 0.0
H410 H 0.15366 0.82575 0.18204 0.0
H411 H 0.12079 0.79105 0.22867 0.0
H412 H 0.15609 0.83636 0.32144 0.0
H413 H 0.2076 0.88821 0.29837 0.0
C414 C 0.22223 0.90108 0.23654 0.0
C415 C 0.22539 0.90543 0.20358 0.0
C416 C 0.19374 0.87024 0.25004 0.0
C417 C 0.20021 0.87788 0.18431 0.0
C418 C 0.17257 0.84652 0.19754 0.0
C419 C 0.14011 0.81195 0.24385 0.0
C420 C 0.13483 0.80952 0.27677 0.0
C421 C 0.16888 0.84253 0.23037 0.0
C422 C 0.15956 0.83744 0.29605 0.0
C423 C 0.18901 0.86716 0.28286 0.0
H424 H 0.14053 0.19822 0.6852 0.0
H425 H 0.10551 0.27558 0.7661 0.0
H426 H 0.15254 0.23098 0.7996 0.0
H427 H 0.2033 0.16919 0.80624 0.0
H428 H 0.24182 0.09486 0.72469 0.0
H429 H 0.19404 0.13884 0.69135 0.0
C430 C 0.14331 0.20537 0.71015 0.0
C431 C 0.11941 0.24018 0.72307 0.0
C432 C 0.1711 0.18001 0.72927 0.0
C433 C 0.12366 0.24917 0.75543 0.0
C434 C 0.15047 0.22355 0.77468 0.0
C435 C 0.20124 0.1627 0.78117 0.0
C436 C 0.22606 0.12869 0.76805 0.0
C437 C 0.17427 0.18878 0.76191 0.0
C438 C 0.22329 0.12095 0.73544 0.0
C439 C 0.19583 0.14603 0.71632 0.0
H440 H 0.80174 0.10763 0.26536 0.0
H441 H 0.84776 0.14611 0.17348 0.0
H442 H 0.89662 0.19972 0.19752 0.0
H443 H 0.92711 0.23523 0.24483 0.0
H444 H 0.88628 0.19182 0.33682 0.0
H445 H 0.83465 0.14081 0.31274 0.0
C446 C 0.82233 0.12792 0.25063 0.0
C447 C 0.82082 0.12316 0.21766 0.0
C448 C 0.85131 0.15785 0.26469 0.0
C449 C 0.84829 0.14914 0.19891 0.0
C450 C 0.87618 0.17987 0.21264 0.0
C451 C 0.90661 0.21484 0.25956 0.0
C452 C 0.91006 0.2177 0.29257 0.0
C453 C 0.87803 0.18452 0.24552 0.0
C454 C 0.88405 0.19035 0.31136 0.0
C455 C 0.85454 0.16117 0.2976 0.0
H456 H 0.09825 0.96422 0.12765 0.0
H457 H 0.08879 0.10426 0.13368 0.0
H458 H 0.00987 0.09929 0.13752 0.0
H459 H 0.94332 0.05581 0.13698 0.0
H460 H 0.95234 0.91547 0.13462 0.0
H461 H 0.03145 0.92022 0.13162 0.0
C462 C 0.07907 0.99363 0.1302 0.0
C463 C 0.09973 0.03453 0.12972 0.0
C464 C 0.03341 0.99063 0.13286 0.0
C465 C 0.07402 0.0723 0.13301 0.0
C466 C 0.02872 0.06955 0.13547 0.0
C467 C 0.96232 0.02612 0.13627 0.0
C468 C 0.9413 0.98542 0.13559 0.0
C469 C 0.00802 0.02893 0.13503 0.0
C470 C 0.9671 0.94744 0.13442 0.0
C471 C 0.0126 0.95003 0.13292 0.0
H472 H 0.05074 0.10174 0.6201 0.0
H473 H 0.93275 0.08869 0.67453 0.0
H474 H 0.93939 0.00939 0.67322 0.0
H475 H 0.97828 0.94382 0.6559 0.0
H476 H 0.09471 0.95697 0.59938 0.0
H477 H 0.08946 0.03593 0.60246 0.0
C478 C 0.02689 0.08141 0.63195 0.0
C479 C 0.99136 0.10083 0.64737 0.0
C480 C 0.03054 0.03587 0.63063 0.0
C481 C 0.96018 0.07429 0.66229 0.0
C482 C 0.96398 0.02903 0.66157 0.0
C483 C 0.00224 0.96388 0.64397 0.0
C484 C 0.03689 0.94427 0.62754 0.0
C485 C 0.99879 0.00943 0.64552 0.0
C486 C 0.06803 0.971 0.61262 0.0
C487 C 0.06498 0.01628 0.61423 0.0
H488 H 0.94992 0.07626 0.87552 0.0
H489 H 0.93531 0.93648 0.87637 0.0
H490 H 0.0142 0.92793 0.87106 0.0
H491 H 0.08714 0.95998 0.86813 0.0
H492 H 0.10263 0.09957 0.86974 0.0
H493 H 0.02324 0.10845 0.87183 0.0
C494 C 0.96394 0.04391 0.87486 0.0
C495 C 0.93663 0.00704 0.87665 0.0
C496 C 0.0094 0.03924 0.87216 0.0
C497 C 0.95542 0.96538 0.87486 0.0
C498 C 0.00058 0.96047 0.87199 0.0
C499 C 0.07329 0.99239 0.86925 0.0
C500 C 0.1009 0.02907 0.86923 0.0
C501 C 0.02784 0.99716 0.87095 0.0
C502 C 0.08218 0.07082 0.86963 0.0
C503 C 0.03681 0.07588 0.87104 0.0
H504 H 0.05519 0.93488 0.37374 0.0
H505 H 0.94548 0.95136 0.31112 0.0
H506 H 0.95306 0.03041 0.31427 0.0
H507 H 0.9909 0.09467 0.33487 0.0
H508 H 0.09961 0.07832 0.39858 0.0
H509 H 0.09284 -0.0006 0.39464 0.0
C510 C 0.03333 0.95585 0.36055 0.0
C511 C -0.00015 0.93744 0.34227 0.0
C512 C 0.03765 0.00122 0.3627 0.0
C513 C 0.97122 0.96489 0.32563 0.0
C514 C 0.97561 0.01003 0.32735 0.0
C515 C 0.01276 0.0739 0.3482 0.0
C516 C 0.04571 0.09246 0.36697 0.0
C517 C 0.00852 0.02855 0.34599 0.0
C518 C 0.07429 0.06493 0.38364 0.0
C519 C 0.07035 0.01977 0.38151 0.0
H520 H 0.46631 0.96864 0.18911 0.0
H521 H 0.443 0.01615 0.09511 0.0
H522 H 0.51366 0.0533 0.09516 0.0
H523 H 0.58199 0.07247 0.12212 0.0
H524 H 0.6066 0.02424 0.21567 0.0
H525 H 0.53528 0.98776 0.21614 0.0
C526 C 0.47727 0.9865 0.16853 0.0
C527 C 0.44991 0.98955 0.14207 0.0
C528 C 0.51759 0.00839 0.169 0.0
C529 C 0.46378 0.01346 0.11568 0.0
C530 C 0.50394 0.03487 0.11579 0.0
C531 C 0.57113 0.05481 0.14281 0.0
C532 C 0.59881 0.05155 0.16905 0.0
C533 C 0.53086 0.03301 0.14245 0.0
C534 C 0.58526 0.02747 0.19543 0.0
C535 C 0.54482 0.00636 0.19555 0.0
H536 H 0.03593 0.60715 0.66157 0.0
H537 H 0.90908 0.57454 0.62389 0.0
H538 H 0.92909 0.49744 0.6235 0.0
H539 H 0.98331 0.44001 0.63245 0.0
H540 H 0.11021 0.47277 0.66999 0.0
H541 H 0.09003 0.54979 0.6706 0.0
C542 C 0.01275 0.58332 0.65291 0.0
C543 C 0.97112 0.59675 0.6425 0.0
C544 C 0.02468 0.53927 0.65241 0.0
C545 C 0.94116 0.56515 0.63221 0.0
C546 C 0.95272 0.52111 0.63178 0.0
C547 C 0.00645 0.46382 0.64115 0.0
C548 C 0.0482 0.45049 0.6514 0.0
C549 C 0.99445 0.50788 0.64171 0.0
C550 C 0.07808 0.48212 0.66175 0.0
C551 C 0.06642 0.5261 0.66231 0.0
H552 H 0.4329 0.99169 0.82479 0.0
H553 H 0.47873 0.12466 0.82673 0.0
H554 H 0.55414 0.09892 0.82865 0.0
H555 H 0.6065 0.03896 0.83205 0.0
H556 H 0.56018 0.90614 0.83453 0.0
H557 H 0.48518 0.93178 0.82858 0.0
C558 C 0.45919 0.01522 0.82606 0.0
C559 C 0.44982 0.06019 0.8261 0.0
C560 C 0.50236 0.00022 0.82798 0.0
C561 C 0.48472 0.08996 0.82658 0.0
C562 C 0.52791 0.07523 0.82789 0.0
C563 C 0.58013 0.01546 0.83177 0.0
C564 C 0.58924 0.97054 0.83422 0.0
C565 C 0.53702 0.03046 0.82906 0.0
C566 C 0.55441 0.94079 0.83263 0.0
C567 C 0.51142 0.95546 0.82939 0.0
H568 H 0.9695 0.46011 0.3842 0.0
H569 H 0.02019 0.4245 0.29319 0.0
H570 H 0.05596 0.49547 0.28838 0.0
H571 H 0.07335 0.56758 0.31049 0.0
H572 H 0.02215 0.6034 0.40126 0.0
H573 H 0.98648 0.53235 0.40615 0.0
C574 C 0.98765 0.46835 0.3631 0.0
C575 C 0.99196 0.43746 0.33894 0.0
C576 C 0.00872 0.50886 0.36081 0.0
C577 C 0.01643 0.448 0.31199 0.0
C578 C 0.03705 0.48838 0.30934 0.0
C579 C 0.05506 0.55932 0.33153 0.0
C580 C 0.05068 0.5902 0.35565 0.0
C581 C 0.03389 0.51886 0.33378 0.0
C582 C 0.02602 0.57981 0.38253 0.0
C583 C 0.00545 0.5394 0.38521 0.0
loop_
_geom_bond_atom_site_label_1
_geom_bond_atom_site_label_2
_geom_bond_distance
_geom_bond_site_symmetry_2
_ccdc_geom_bond_type
Co0 N4 2.148 . S
Co0 N10 2.128 . S
Co0 N20 2.194 . S
Co0 O25 2.351 . S
Co0 O26 2.155 1_545 S
Co0 O27 2.096 1_545 S
C1 N4 1.301 . S
C1 N5 1.328 . S
C1 H6 0.930 . S
C2 C3 1.333 . S
C2 N4 1.317 1_565 S
C2 H7 0.930 . S
C3 C2 1.333 . S
C3 N5 1.350 1_565 S
C3 H29 0.931 . S
N4 Co0 2.148 . S
N4 C1 1.301 . S
N4 C2 1.317 1_545 S
N5 C1 1.328 . S
N5 C3 1.350 1_545 S
H6 C1 0.930 . S
H7 C2 0.930 . S
C8 O9 1.224 . S
C8 O27 1.247 . S
O9 C8 1.224 . S
N10 Co0 2.128 . S
N10 C11 1.355 . S
N10 C13 1.307 1_545 S
C11 N10 1.355 . S
C11 C12 1.363 . S
C11 H23 0.929 . S
C12 C11 1.363 . S
C12 N14 1.375 . S
C12 H30 0.931 . S
C13 N10 1.307 1_565 S
C13 N14 1.345 1_565 S
C13 H24 0.934 . S
N14 C12 1.375 . S
N14 C13 1.345 1_545 S
C15 C18 1.365 . S
C15 N20 1.328 . S
C15 H21 0.929 . S
C16 C17 1.362 . S
C16 C19 1.378 . S
C16 H31 0.929 . S
C17 C16 1.362 . S
C17 C18 1.366 . S
C18 C15 1.365 . S
C18 C17 1.366 . S
C18 H32 0.930 . S
C19 C16 1.378 . S
C19 N20 1.315 . S
C19 H22 0.930 . S
N20 Co0 2.194 . S
N20 C15 1.328 . S
N20 C19 1.315 . S
H21 C15 0.929 . S
H22 C19 0.930 . S
H23 C11 0.929 . S
H24 C13 0.934 . S
O25 Co0 2.351 . S
O25 C28 1.244 . S
O26 Co0 2.155 1_565 S
O26 C28 1.240 1_565 S
O27 Co0 2.096 1_565 S
O27 C8 1.247 . S
C28 O25 1.244 . S
C28 O26 1.240 1_545 S
H29 C3 0.931 . S
H30 C12 0.931 . S
H31 C16 0.929 . S
H32 C18 0.930 . S
Co33 N37 2.148 . S
Co33 N43 2.128 . S
Co33 N53 2.194 1_455 S
Co33 O58 2.351 1_455 S
Co33 O59 2.155 . S
Co33 O60 2.096 . S
C34 N37 1.301 . S
C34 N38 1.328 . S
C34 H39 0.930 1_455 S
C35 C36 1.333 . S
C35 N37 1.317 . S
C35 H40 0.930 . S
C36 C35 1.333 . S
C36 N38 1.350 . S
C36 H62 0.931 . S
N37 Co33 2.148 . S
N37 C34 1.301 . S
N37 C35 1.317 . S
N38 C34 1.328 . S
N38 C36 1.350 . S
H39 C34 0.930 1_655 S
H40 C35 0.930 . S
C41 O42 1.224 . S
C41 O60 1.247 . S
O42 C41 1.224 . S
N43 Co33 2.128 . S
N43 C44 1.355 1_455 S
N43 C46 1.311 . S
C44 N43 1.355 1_655 S
C44 C45 1.363 . S
C44 H56 0.929 . S
C45 C44 1.363 . S
C45 N47 1.375 1_655 S
C45 H63 0.931 . S
C46 N43 1.311 . S
C46 N47 1.347 . S
C46 H57 0.929 . S
N47 C45 1.375 1_455 S
N47 C46 1.347 . S
C48 C51 1.365 . S
C48 N53 1.328 . S
C48 H54 0.929 . S
C49 C50 1.362 . S
C49 C52 1.378 . S
C49 H64 0.929 . S
C50 C49 1.362 . S
C50 C51 1.366 . S
C51 C48 1.365 . S
C51 C50 1.366 . S
C51 H65 0.930 . S
C52 C49 1.378 . S
C52 N53 1.315 . S
C52 H55 0.930 . S
N53 Co33 2.194 1_655 S
N53 C48 1.328 . S
N53 C52 1.315 . S
H54 C48 0.929 . S
H55 C52 0.930 . S
H56 C44 0.929 . S
H57 C46 0.929 . S
O58 Co33 2.351 1_655 S
O58 C61 1.244 1_655 S
O59 Co33 2.155 . S
O59 C61 1.240 . S
O60 Co33 2.096 . S
O60 C41 1.247 . S
C61 O58 1.244 1_455 S
C61 O59 1.240 . S
H62 C36 0.931 . S
H63 C45 0.931 . S
H64 C49 0.929 . S
H65 C51 0.930 . S
Co66 N70 2.148 . S
Co66 N76 2.128 . S
Co66 N86 2.194 1_545 S
Co66 O91 2.351 1_545 S
Co66 O92 2.155 . S
Co66 O93 2.096 . S
C67 N70 1.301 . S
C67 N71 1.328 . S
C67 H72 0.930 1_545 S
C68 C69 1.333 . S
C68 N70 1.317 . S
C68 H73 0.930 . S
C69 C68 1.333 . S
C69 N71 1.350 . S
C69 H95 0.931 . S
N70 Co66 2.148 . S
N70 C67 1.301 . S
N70 C68 1.317 . S
N71 C67 1.328 . S
N71 C69 1.350 . S
H72 C67 0.930 1_565 S
H73 C68 0.930 . S
C74 O75 1.224 . S
C74 O93 1.247 . S
O75 C74 1.224 . S
N76 Co66 2.128 . S
N76 C77 1.355 1_545 S
N76 C79 1.311 . S
C77 N76 1.355 1_565 S
C77 C78 1.363 . S
C77 H89 0.929 . S
C78 C77 1.363 . S
C78 N80 1.375 1_565 S
C78 H96 0.931 . S
C79 N76 1.311 . S
C79 N80 1.347 . S
C79 H90 0.929 . S
N80 C78 1.375 1_545 S
N80 C79 1.347 . S
C81 C84 1.365 . S
C81 N86 1.328 . S
C81 H87 0.929 . S
C82 C83 1.362 . S
C82 C85 1.378 . S
C82 H97 0.929 . S
C83 C82 1.362 . S
C83 C84 1.366 . S
C84 C81 1.365 . S
C84 C83 1.366 . S
C84 H98 0.930 . S
C85 C82 1.378 . S
C85 N86 1.315 . S
C85 H88 0.930 . S
N86 Co66 2.194 1_565 S
N86 C81 1.328 . S
N86 C85 1.315 . S
H87 C81 0.929 . S
H88 C85 0.930 . S
H89 C77 0.929 . S
H90 C79 0.929 . S
O91 Co66 2.351 1_565 S
O91 C94 1.244 1_565 S
O92 Co66 2.155 . S
O92 C94 1.240 . S
O93 Co66 2.096 . S
O93 C74 1.247 . S
C94 O91 1.244 1_545 S
C94 O92 1.240 . S
H95 C69 0.931 . S
H96 C78 0.931 . S
H97 C82 0.929 . S
H98 C84 0.930 . S
Co99 N103 2.148 . S
Co99 N109 2.128 . S
Co99 N119 2.194 . S
Co99 O124 2.351 . S
Co99 O125 2.155 1_455 S
Co99 O126 2.096 1_455 S
C100 N103 1.301 . S
C100 N104 1.328 . S
C100 H105 0.930 . S
C101 C102 1.333 . S
C101 N103 1.317 1_655 S
C101 H106 0.930 . S
C102 C101 1.333 . S
C102 N104 1.350 1_655 S
C102 H128 0.931 . S
N103 Co99 2.148 . S
N103 C100 1.301 . S
N103 C101 1.317 1_455 S
N104 C100 1.328 . S
N104 C102 1.350 1_455 S
H105 C100 0.930 . S
H106 C101 0.930 . S
C107 O108 1.224 . S
C107 O126 1.247 . S
O108 C107 1.224 . S
N109 Co99 2.128 . S
N109 C110 1.355 . S
N109 C112 1.308 1_455 S
C110 N109 1.355 . S
C110 C111 1.363 . S
C110 H122 0.929 . S
C111 C110 1.363 . S
C111 N113 1.375 . S
C111 H129 0.931 . S
C112 N109 1.308 1_655 S
C112 N113 1.345 1_655 S
C112 H123 0.933 . S
N113 C111 1.375 . S
N113 C112 1.345 1_455 S
C114 C117 1.365 . S
C114 N119 1.328 . S
C114 H120 0.929 . S
C115 C116 1.362 . S
C115 C118 1.378 . S
C115 H130 0.929 . S
C116 C115 1.362 . S
C116 C117 1.366 . S
C117 C114 1.365 . S
C117 C116 1.366 . S
C117 H131 0.930 . S
C118 C115 1.378 . S
C118 N119 1.315 . S
C118 H121 0.930 . S
N119 Co99 2.194 . S
N119 C114 1.328 . S
N119 C118 1.315 . S
H120 C114 0.929 . S
H121 C118 0.930 . S
H122 C110 0.929 . S
H123 C112 0.933 . S
O124 Co99 2.351 . S
O124 C127 1.244 . S
O125 Co99 2.155 1_655 S
O125 C127 1.240 1_655 S
O126 Co99 2.096 1_655 S
O126 C107 1.247 . S
C127 O124 1.244 . S
C127 O125 1.240 1_455 S
H128 C102 0.931 . S
H129 C111 0.931 . S
H130 C115 0.929 . S
H131 C117 0.930 . S
Co132 N136 2.148 . S
Co132 N142 2.128 . S
Co132 N152 2.194 1_545 S
Co132 O157 2.351 1_545 S
Co132 O158 2.155 . S
Co132 O159 2.096 . S
C133 N136 1.301 . S
C133 N137 1.328 . S
C133 H138 0.930 1_545 S
C134 C135 1.333 . S
C134 N136 1.317 . S
C134 H139 0.930 . S
C135 C134 1.333 . S
C135 N137 1.350 . S
C135 H161 0.931 . S
N136 Co132 2.148 . S
N136 C133 1.301 . S
N136 C134 1.317 . S
N137 C133 1.328 . S
N137 C135 1.350 . S
H138 C133 0.930 1_565 S
H139 C134 0.930 . S
C140 O141 1.224 . S
C140 O159 1.247 . S
O141 C140 1.224 . S
N142 Co132 2.128 . S
N142 C143 1.355 1_545 S
N142 C145 1.311 . S
C143 N142 1.355 1_565 S
C143 C144 1.363 . S
C143 H155 0.929 . S
C144 C143 1.363 . S
C144 N146 1.375 1_565 S
C144 H162 0.931 . S
C145 N142 1.311 . S
C145 N146 1.347 . S
C145 H156 0.929 . S
N146 C144 1.375 1_545 S
N146 C145 1.347 . S
C147 C150 1.365 . S
C147 N152 1.328 . S
C147 H153 0.929 . S
C148 C149 1.362 . S
C148 C151 1.378 . S
C148 H163 0.929 . S
C149 C148 1.362 . S
C149 C150 1.366 . S
C150 C147 1.365 . S
C150 C149 1.366 . S
C150 H164 0.930 . S
C151 C148 1.378 . S
C151 N152 1.315 . S
C151 H154 0.930 . S
N152 Co132 2.194 1_565 S
N152 C147 1.328 . S
N152 C151 1.315 . S
H153 C147 0.929 . S
H154 C151 0.930 . S
H155 C143 0.929 . S
H156 C145 0.929 . S
O157 Co132 2.351 1_565 S
O157 C160 1.244 1_565 S
O158 Co132 2.155 . S
O158 C160 1.240 . S
O159 Co132 2.096 . S
O159 C140 1.247 . S
C160 O157 1.244 1_545 S
C160 O158 1.240 . S
H161 C135 0.931 . S
H162 C144 0.931 . S
H163 C148 0.929 . S
H164 C150 0.930 . S
Co165 N169 2.148 . S
Co165 N175 2.128 . S
Co165 N185 2.194 . S
Co165 O190 2.351 . S
Co165 O191 2.155 1_455 S
Co165 O192 2.096 1_455 S
C166 N169 1.301 . S
C166 N170 1.328 . S
C166 H171 0.930 . S
C167 C168 1.333 . S
C167 N169 1.317 1_655 S
C167 H172 0.930 . S
C168 C167 1.333 . S
C168 N170 1.350 1_655 S
C168 H194 0.931 . S
N169 Co165 2.148 . S
N169 C166 1.301 . S
N169 C167 1.317 1_455 S
N170 C166 1.328 . S
N170 C168 1.350 1_455 S
H171 C166 0.930 . S
H172 C167 0.930 . S
C173 O174 1.224 . S
C173 O192 1.247 . S
O174 C173 1.224 . S
N175 Co165 2.128 . S
N175 C176 1.355 . S
N175 C178 1.307 1_455 S
C176 N175 1.355 . S
C176 C177 1.363 . S
C176 H188 0.929 . S
C177 C176 1.363 . S
C177 N179 1.375 . S
C177 H195 0.931 . S
C178 N175 1.307 1_655 S
C178 N179 1.345 1_655 S
C178 H189 0.934 . S
N179 C177 1.375 . S
N179 C178 1.345 1_455 S
C180 C183 1.365 . S
C180 N185 1.328 . S
C180 H186 0.929 . S
C181 C182 1.362 . S
C181 C184 1.378 . S
C181 H196 0.929 . S
C182 C181 1.362 . S
C182 C183 1.366 . S
C183 C180 1.365 . S
C183 C182 1.366 . S
C183 H197 0.930 . S
C184 C181 1.378 . S
C184 N185 1.315 . S
C184 H187 0.930 . S
N185 Co165 2.194 . S
N185 C180 1.328 . S
N185 C184 1.315 . S
H186 C180 0.929 . S
H187 C184 0.930 . S
H188 C176 0.929 . S
H189 C178 0.934 . S
O190 Co165 2.351 . S
O190 C193 1.244 . S
O191 Co165 2.155 1_655 S
O191 C193 1.240 1_655 S
O192 Co165 2.096 1_655 S
O192 C173 1.247 . S
C193 O190 1.244 . S
C193 O191 1.240 1_455 S
H194 C168 0.931 . S
H195 C177 0.931 . S
H196 C181 0.929 . S
H197 C183 0.930 . S
Co198 N202 2.148 . S
Co198 N208 2.128 . S
Co198 N218 2.194 . S
Co198 O223 2.351 . S
Co198 O224 2.155 1_545 S
Co198 O225 2.096 1_545 S
C199 N202 1.301 . S
C199 N203 1.328 . S
C199 H204 0.930 . S
C200 C201 1.333 . S
C200 N202 1.317 1_565 S
C200 H205 0.930 . S
C201 C200 1.333 . S
C201 N203 1.350 1_565 S
C201 H227 0.931 . S
N202 Co198 2.148 . S
N202 C199 1.301 . S
N202 C200 1.317 1_545 S
N203 C199 1.328 . S
N203 C201 1.350 1_545 S
H204 C199 0.930 . S
H205 C200 0.930 . S
C206 O207 1.224 . S
C206 O225 1.247 . S
O207 C206 1.224 . S
N208 Co198 2.128 . S
N208 C209 1.355 . S
N208 C211 1.308 1_545 S
C209 N208 1.355 . S
C209 C210 1.363 . S
C209 H221 0.929 . S
C210 C209 1.363 . S
C210 N212 1.375 . S
C210 H228 0.931 . S
C211 N208 1.308 1_565 S
C211 N212 1.345 1_565 S
C211 H222 0.933 . S
N212 C210 1.375 . S
N212 C211 1.345 1_545 S
C213 C216 1.365 . S
C213 N218 1.328 . S
C213 H219 0.929 . S
C214 C215 1.362 . S
C214 C217 1.378 . S
C214 H229 0.929 . S
C215 C214 1.362 . S
C215 C216 1.366 . S
C216 C213 1.365 . S
C216 C215 1.366 . S
C216 H230 0.930 . S
C217 C214 1.378 . S
C217 N218 1.315 . S
C217 H220 0.930 . S
N218 Co198 2.194 . S
N218 C213 1.328 . S
N218 C217 1.315 . S
H219 C213 0.929 . S
H220 C217 0.930 . S
H221 C209 0.929 . S
H222 C211 0.933 . S
O223 Co198 2.351 . S
O223 C226 1.244 . S
O224 Co198 2.155 1_565 S
O224 C226 1.240 1_565 S
O225 Co198 2.096 1_565 S
O225 C206 1.247 . S
C226 O223 1.244 . S
C226 O224 1.240 1_545 S
H227 C201 0.931 . S
H228 C210 0.931 . S
H229 C214 0.929 . S
H230 C216 0.930 . S
Co231 N235 2.148 . S
Co231 N241 2.128 . S
Co231 N251 2.194 1_455 S
Co231 O256 2.351 1_455 S
Co231 O257 2.155 . S
Co231 O258 2.096 . S
C232 N235 1.301 . S
C232 N236 1.328 . S
C232 H237 0.930 1_455 S
C233 C234 1.333 . S
C233 N235 1.317 . S
C233 H238 0.930 . S
C234 C233 1.333 . S
C234 N236 1.350 . S
C234 H260 0.931 . S
N235 Co231 2.148 . S
N235 C232 1.301 . S
N235 C233 1.317 . S
N236 C232 1.328 . S
N236 C234 1.350 . S
H237 C232 0.930 1_655 S
H238 C233 0.930 . S
C239 O240 1.224 . S
C239 O258 1.247 . S
O240 C239 1.224 . S
N241 Co231 2.128 . S
N241 C242 1.355 1_455 S
N241 C244 1.311 . S
C242 N241 1.355 1_655 S
C242 C243 1.363 . S
C242 H254 0.929 . S
C243 C242 1.363 . S
C243 N245 1.375 1_655 S
C243 H261 0.931 . S
C244 N241 1.311 . S
C244 N245 1.347 . S
C244 H255 0.929 . S
N245 C243 1.375 1_455 S
N245 C244 1.347 . S
C246 C249 1.365 . S
C246 N251 1.328 . S
C246 H252 0.929 . S
C247 C248 1.362 . S
C247 C250 1.378 . S
C247 H262 0.929 . S
C248 C247 1.362 . S
C248 C249 1.366 . S
C249 C246 1.365 . S
C249 C248 1.366 . S
C249 H263 0.930 . S
C250 C247 1.378 . S
C250 N251 1.315 . S
C250 H253 0.930 . S
N251 Co231 2.194 1_655 S
N251 C246 1.328 . S
N251 C250 1.315 . S
H252 C246 0.929 . S
H253 C250 0.930 . S
H254 C242 0.929 . S
H255 C244 0.929 . S
O256 Co231 2.351 1_655 S
O256 C259 1.244 1_655 S
O257 Co231 2.155 . S
O257 C259 1.240 . S
O258 Co231 2.096 . S
O258 C239 1.247 . S
C259 O256 1.244 1_455 S
C259 O257 1.240 . S
H260 C234 0.931 . S
H261 C243 0.931 . S
H262 C247 0.929 . S
H263 C249 0.930 . S
H264 C270 0.930 . S
H265 C273 0.930 . S
H266 C274 0.930 . S
H267 C275 0.930 . S
H268 C278 0.930 . S
H269 C279 0.930 . S
C270 H264 0.930 . S
C270 C271 1.355 . S
C270 C272 1.415 . S
C271 C270 1.355 . S
C271 C273 1.419 1_545 S
C272 C270 1.415 . S
C272 C277 1.410 1_544 S
C272 C279 1.409 1_554 S
C273 H265 0.930 . S
C273 C271 1.419 1_565 S
C273 C274 1.362 . S
C274 H266 0.930 . S
C274 C273 1.362 . S
C274 C277 1.421 1_554 S
C275 H267 0.930 . S
C275 C276 1.355 1_565 S
C275 C277 1.418 . S
C276 C275 1.355 1_545 S
C276 C278 1.419 . S
C277 C272 1.410 1_566 S
C277 C274 1.421 1_556 S
C277 C275 1.418 . S
C278 H268 0.930 . S
C278 C276 1.419 . S
C278 C279 1.362 . S
C279 H269 0.930 . S
C279 C272 1.409 1_556 S
C279 C278 1.362 . S
H280 C286 0.946 . S
H281 C289 0.930 . S
H282 C290 0.930 . S
H283 C291 0.930 . S
H284 C294 0.930 . S
H285 C295 0.930 . S
C286 H280 0.946 . S
C286 C287 1.341 1_655 S
C286 C288 1.413 1_655 S
C287 C286 1.341 1_455 S
C287 C289 1.419 . S
C288 C286 1.413 1_455 S
C288 C293 1.425 . S
C288 C295 1.409 1_455 S
C289 H281 0.930 . S
C289 C287 1.419 . S
C289 C290 1.362 . S
C290 H282 0.930 . S
C290 C289 1.362 . S
C290 C293 1.409 . S
C291 H283 0.930 . S
C291 C292 1.355 . S
C291 C293 1.415 . S
C292 C291 1.355 . S
C292 C294 1.419 1_455 S
C293 C288 1.425 . S
C293 C290 1.409 . S
C293 C291 1.415 . S
C294 H284 0.930 . S
C294 C292 1.419 1_655 S
C294 C295 1.362 . S
C295 H285 0.930 . S
C295 C288 1.409 1_655 S
C295 C294 1.362 . S
H296 C302 0.930 . S
H297 C305 0.930 . S
H298 C306 0.930 . S
H299 C307 0.930 . S
H300 C310 0.930 . S
H301 C311 0.930 . S
C302 H296 0.930 . S
C302 C303 1.355 1_565 S
C302 C304 1.419 . S
C303 C302 1.355 1_545 S
C303 C305 1.419 . S
C304 C302 1.419 . S
C304 C309 1.407 1_564 S
C304 C311 1.423 1_554 S
C305 H297 0.930 . S
C305 C303 1.419 . S
C305 C306 1.362 . S
C306 H298 0.930 . S
C306 C305 1.362 . S
C306 C309 1.409 1_554 S
C307 H299 0.930 . S
C307 C308 1.355 . S
C307 C309 1.415 . S
C308 C307 1.355 . S
C308 C310 1.419 1_545 S
C309 C304 1.407 1_546 S
C309 C306 1.409 1_556 S
C309 C307 1.415 . S
C310 H300 0.930 . S
C310 C308 1.419 1_565 S
C310 C311 1.362 . S
C311 H301 0.930 . S
C311 C304 1.423 1_556 S
C311 C310 1.362 . S
H312 C318 0.930 . S
H313 C321 0.930 . S
H314 C322 0.930 . S
H315 C323 0.930 1_655 S
H316 C326 0.930 . S
H317 C327 0.930 . S
C318 H312 0.930 . S
C318 C319 1.355 . S
C318 C320 1.415 . S
C319 C318 1.355 . S
C319 C321 1.419 1_455 S
C320 C318 1.415 . S
C320 C325 1.425 . S
C320 C327 1.409 . S
C321 H313 0.930 . S
C321 C319 1.419 1_655 S
C321 C322 1.362 . S
C322 H314 0.930 . S
C322 C321 1.362 . S
C322 C325 1.409 1_655 S
C323 H315 0.930 1_455 S
C323 C324 1.355 . S
C323 C325 1.415 . S
C324 C323 1.355 . S
C324 C326 1.419 . S
C325 C320 1.425 . S
C325 C322 1.409 1_455 S
C325 C323 1.415 . S
C326 H316 0.930 . S
C326 C324 1.419 . S
C326 C327 1.362 . S
C327 H317 0.930 . S
C327 C320 1.409 . S
C327 C326 1.362 . S
H328 C334 0.930 . S
H329 C337 0.930 . S
H330 C338 0.930 . S
H331 C339 0.930 . S
H332 C342 0.930 . S
H333 C343 0.930 . S
C334 H328 0.930 . S
C334 C335 1.355 . S
C334 C336 1.415 . S
C335 C334 1.355 . S
C335 C337 1.419 . S
C336 C334 1.415 . S
C336 C341 1.425 . S
C336 C343 1.409 . S
C337 H329 0.930 . S
C337 C335 1.419 . S
C337 C338 1.362 . S
C338 H330 0.930 . S
C338 C337 1.362 . S
C338 C341 1.409 . S
C339 H331 0.930 . S
C339 C340 1.355 . S
C339 C341 1.415 . S
C340 C339 1.355 . S
C340 C342 1.419 . S
C341 C336 1.425 . S
C341 C338 1.409 . S
C341 C339 1.415 . S
C342 H332 0.930 . S
C342 C340 1.419 . S
C342 C343 1.362 . S
C343 H333 0.930 . S
C343 C336 1.409 . S
C343 C342 1.362 . S
H344 C350 0.930 . S
H345 C353 0.930 . S
H346 C354 0.930 . S
H347 C355 0.930 . S
H348 C358 0.930 . S
H349 C359 0.930 . S
C350 H344 0.930 . S
C350 C351 1.355 . S
C350 C352 1.415 . S
C351 C350 1.355 . S
C351 C353 1.419 . S
C352 C350 1.415 . S
C352 C357 1.425 . S
C352 C359 1.409 . S
C353 H345 0.930 . S
C353 C351 1.419 . S
C353 C354 1.362 . S
C354 H346 0.930 . S
C354 C353 1.362 . S
C354 C357 1.409 . S
C355 H347 0.930 . S
C355 C356 1.355 . S
C355 C357 1.415 . S
C356 C355 1.355 . S
C356 C358 1.419 . S
C357 C352 1.425 . S
C357 C354 1.409 . S
C357 C355 1.415 . S
C358 H348 0.930 . S
C358 C356 1.419 . S
C358 C359 1.362 . S
C359 H349 0.930 . S
C359 C352 1.409 . S
C359 C358 1.362 . S
H360 C366 0.930 . S
H361 C369 0.930 . S
H362 C370 0.930 . S
H363 C371 0.930 . S
H364 C374 0.930 . S
H365 C375 0.930 . S
C366 H360 0.930 . S
C366 C367 1.355 . S
C366 C368 1.415 . S
C367 C366 1.355 . S
C367 C369 1.419 . S
C368 C366 1.415 . S
C368 C373 1.425 . S
C368 C375 1.409 . S
C369 H361 0.930 . S
C369 C367 1.419 . S
C369 C370 1.362 . S
C370 H362 0.930 . S
C370 C369 1.362 . S
C370 C373 1.409 . S
C371 H363 0.930 . S
C371 C372 1.355 . S
C371 C373 1.415 . S
C372 C371 1.355 . S
C372 C374 1.419 . S
C373 C368 1.425 . S
C373 C370 1.409 . S
C373 C371 1.415 . S
C374 H364 0.930 . S
C374 C372 1.419 . S
C374 C375 1.362 . S
C375 H365 0.930 . S
C375 C368 1.409 . S
C375 C374 1.362 . S
H376 C382 0.930 . S
H377 C385 0.930 . S
H378 C386 0.930 . S
H379 C387 0.930 . S
H380 C390 0.930 . S
H381 C391 0.930 . S
C382 H376 0.930 . S
C382 C383 1.355 . S
C382 C384 1.415 . S
C383 C382 1.355 . S
C383 C385 1.419 . S
C384 C382 1.415 . S
C384 C389 1.425 . S
C384 C391 1.409 . S
C385 H377 0.930 . S
C385 C383 1.419 . S
C385 C386 1.362 . S
C386 H378 0.930 . S
C386 C385 1.362 . S
C386 C389 1.409 . S
C387 H379 0.930 . S
C387 C388 1.355 . S
C387 C389 1.415 . S
C388 C387 1.355 . S
C388 C390 1.419 . S
C389 C384 1.425 . S
C389 C386 1.409 . S
C389 C387 1.415 . S
C390 H380 0.930 . S
C390 C388 1.419 . S
C390 C391 1.362 . S
C391 H381 0.930 . S
C391 C384 1.409 . S
C391 C390 1.362 . S
H392 C398 0.930 . S
H393 C401 0.930 . S
H394 C402 0.930 . S
H395 C403 0.930 . S
H396 C406 0.930 . S
H397 C407 0.930 . S
C398 H392 0.930 . S
C398 C399 1.355 . S
C398 C400 1.415 . S
C399 C398 1.355 . S
C399 C401 1.419 . S
C400 C398 1.415 . S
C400 C405 1.425 . S
C400 C407 1.409 . S
C401 H393 0.930 . S
C401 C399 1.419 . S
C401 C402 1.362 . S
C402 H394 0.930 . S
C402 C401 1.362 . S
C402 C405 1.409 . S
C403 H395 0.930 . S
C403 C404 1.355 . S
C403 C405 1.415 . S
C404 C403 1.355 . S
C404 C406 1.419 . S
C405 C400 1.425 . S
C405 C402 1.409 . S
C405 C403 1.415 . S
C406 H396 0.930 . S
C406 C404 1.419 . S
C406 C407 1.362 . S
C407 H397 0.930 . S
C407 C400 1.409 . S
C407 C406 1.362 . S
H408 C414 0.930 . S
H409 C417 0.930 . S
H410 C418 0.930 . S
H411 C419 0.930 . S
H412 C422 0.930 . S
H413 C423 0.930 . S
C414 H408 0.930 . S
C414 C415 1.355 . S
C414 C416 1.415 . S
C415 C414 1.355 . S
C415 C417 1.419 . S
C416 C414 1.415 . S
C416 C421 1.425 . S
C416 C423 1.409 . S
C417 H409 0.930 . S
C417 C415 1.419 . S
C417 C418 1.362 . S
C418 H410 0.930 . S
C418 C417 1.362 . S
C418 C421 1.409 . S
C419 H411 0.930 . S
C419 C420 1.355 . S
C419 C421 1.415 . S
C420 C419 1.355 . S
C420 C422 1.419 . S
C421 C416 1.425 . S
C421 C418 1.409 . S
C421 C419 1.415 . S
C422 H412 0.930 . S
C422 C420 1.419 . S
C422 C423 1.362 . S
C423 H413 0.930 . S
C423 C416 1.409 . S
C423 C422 1.362 . S
H424 C430 0.930 . S
H425 C433 0.930 . S
H426 C434 0.930 . S
H427 C435 0.930 . S
H428 C438 0.930 . S
H429 C439 0.930 . S
C430 H424 0.930 . S
C430 C431 1.355 . S
C430 C432 1.415 . S
C431 C430 1.355 . S
C431 C433 1.419 . S
C432 C430 1.415 . S
C432 C437 1.425 . S
C432 C439 1.409 . S
C433 H425 0.930 . S
C433 C431 1.419 . S
C433 C434 1.362 . S
C434 H426 0.930 . S
C434 C433 1.362 . S
C434 C437 1.409 . S
C435 H427 0.930 . S
C435 C436 1.355 . S
C435 C437 1.415 . S
C436 C435 1.355 . S
C436 C438 1.419 . S
C437 C432 1.425 . S
C437 C434 1.409 . S
C437 C435 1.415 . S
C438 H428 0.930 . S
C438 C436 1.419 . S
C438 C439 1.362 . S
C439 H429 0.930 . S
C439 C432 1.409 . S
C439 C438 1.362 . S
H440 C446 0.930 . S
H441 C449 0.930 . S
H442 C450 0.930 . S
H443 C451 0.930 . S
H444 C454 0.930 . S
H445 C455 0.930 . S
C446 H440 0.930 . S
C446 C447 1.355 . S
C446 C448 1.415 . S
C447 C446 1.355 . S
C447 C449 1.419 . S
C448 C446 1.415 . S
C448 C453 1.425 . S
C448 C455 1.409 . S
C449 H441 0.930 . S
C449 C447 1.419 . S
C449 C450 1.362 . S
C450 H442 0.930 . S
C450 C449 1.362 . S
C450 C453 1.409 . S
C451 H443 0.930 . S
C451 C452 1.355 . S
C451 C453 1.415 . S
C452 C451 1.355 . S
C452 C454 1.419 . S
C453 C448 1.425 . S
C453 C450 1.409 . S
C453 C451 1.415 . S
C454 H444 0.930 . S
C454 C452 1.419 . S
C454 C455 1.362 . S
C455 H445 0.930 . S
C455 C448 1.409 . S
C455 C454 1.362 . S
H456 C462 0.930 . S
H457 C465 0.930 . S
H458 C466 0.930 . S
H459 C467 0.930 . S
H460 C470 0.930 . S
H461 C471 0.930 . S
C462 H456 0.930 . S
C462 C463 1.355 1_565 S
C462 C464 1.415 . S
C463 C462 1.355 1_545 S
C463 C465 1.419 . S
C464 C462 1.415 . S
C464 C469 1.425 1_565 S
C464 C471 1.409 1_455 S
C465 H457 0.930 . S
C465 C463 1.419 . S
C465 C466 1.362 . S
C466 H458 0.930 . S
C466 C465 1.362 . S
C466 C469 1.409 . S
C467 H459 0.930 . S
C467 C468 1.355 . S
C467 C469 1.415 1_655 S
C468 C467 1.355 . S
C468 C470 1.419 1_545 S
C469 C464 1.425 1_545 S
C469 C466 1.409 . S
C469 C467 1.415 1_455 S
C470 H460 0.930 . S
C470 C468 1.419 1_565 S
C470 C471 1.362 . S
C471 H461 0.930 . S
C471 C464 1.409 1_655 S
C471 C470 1.362 . S
H472 C478 0.930 . S
H473 C481 0.930 . S
H474 C482 0.930 . S
H475 C483 0.930 . S
H476 C486 0.930 . S
H477 C487 0.930 . S
C478 H472 0.930 . S
C478 C479 1.355 . S
C478 C480 1.415 . S
C479 C478 1.355 . S
C479 C481 1.419 1_455 S
C480 C478 1.415 . S
C480 C485 1.425 1_455 S
C480 C487 1.409 1_545 S
C481 H473 0.930 . S
C481 C479 1.419 1_655 S
C481 C482 1.362 . S
C482 H474 0.930 . S
C482 C481 1.362 . S
C482 C485 1.409 . S
C483 H475 0.930 . S
C483 C484 1.355 1_655 S
C483 C485 1.415 1_565 S
C484 C483 1.355 1_455 S
C484 C486 1.419 . S
C485 C480 1.425 1_655 S
C485 C482 1.409 . S
C485 C483 1.415 1_545 S
C486 H476 0.930 . S
C486 C484 1.419 . S
C486 C487 1.362 . S
C487 H477 0.930 . S
C487 C480 1.409 1_565 S
C487 C486 1.362 . S
H488 C494 0.930 . S
H489 C497 0.930 . S
H490 C498 0.930 . S
H491 C499 0.930 . S
H492 C502 0.930 . S
H493 C503 0.930 . S
C494 H488 0.930 . S
C494 C495 1.355 . S
C494 C496 1.415 1_655 S
C495 C494 1.355 . S
C495 C497 1.419 1_545 S
C496 C494 1.415 1_455 S
C496 C501 1.425 1_545 S
C496 C503 1.409 . S
C497 H489 0.930 . S
C497 C495 1.419 1_565 S
C497 C498 1.362 1_655 S
C498 H490 0.930 . S
C498 C497 1.362 1_455 S
C498 C501 1.409 . S
C499 H491 0.930 . S
C499 C500 1.355 1_565 S
C499 C501 1.415 . S
C500 C499 1.355 1_545 S
C500 C502 1.419 . S
C501 C496 1.425 1_565 S
C501 C498 1.409 . S
C501 C499 1.415 . S
C502 H492 0.930 . S
C502 C500 1.419 . S
C502 C503 1.362 . S
C503 H493 0.930 . S
C503 C496 1.409 . S
C503 C502 1.362 . S
H504 C510 0.930 . S
H505 C513 0.930 . S
H506 C514 0.930 1_545 S
H507 C515 0.930 . S
H508 C518 0.930 . S
H509 C519 0.930 . S
C510 H504 0.930 . S
C510 C511 1.355 . S
C510 C512 1.415 1_565 S
C511 C510 1.355 . S
C511 C513 1.419 1_455 S
C512 C510 1.415 1_545 S
C512 C517 1.425 . S
C512 C519 1.409 . S
C513 H505 0.930 . S
C513 C511 1.419 1_655 S
C513 C514 1.362 . S
C514 H506 0.930 1_565 S
C514 C513 1.362 . S
C514 C517 1.409 1_665 S
C515 H507 0.930 . S
C515 C516 1.355 1_655 S
C515 C517 1.415 1_655 S
C516 C515 1.355 1_455 S
C516 C518 1.419 . S
C517 C512 1.425 . S
C517 C514 1.409 1_445 S
C517 C515 1.415 1_455 S
C518 H508 0.930 . S
C518 C516 1.419 . S
C518 C519 1.362 . S
C519 H509 0.930 . S
C519 C512 1.409 . S
C519 C518 1.362 . S
H520 C526 0.930 . S
H521 C529 0.930 . S
H522 C530 0.930 . S
H523 C531 0.930 . S
H524 C534 0.930 . S
H525 C535 0.930 . S
C526 H520 0.930 . S
C526 C527 1.355 . S
C526 C528 1.415 . S
C527 C526 1.355 . S
C527 C529 1.419 . S
C528 C526 1.415 . S
C528 C533 1.425 . S
C528 C535 1.409 . S
C529 H521 0.930 . S
C529 C527 1.419 . S
C529 C530 1.362 . S
C530 H522 0.930 . S
C530 C529 1.362 . S
C530 C533 1.409 . S
C531 H523 0.930 . S
C531 C532 1.355 . S
C531 C533 1.415 . S
C532 C531 1.355 . S
C532 C534 1.419 . S
C533 C528 1.425 . S
C533 C530 1.409 . S
C533 C531 1.415 . S
C534 H524 0.930 . S
C534 C532 1.419 . S
C534 C535 1.362 . S
C535 H525 0.930 . S
C535 C528 1.409 . S
C535 C534 1.362 . S
H536 C542 0.930 . S
H537 C545 0.930 . S
H538 C546 0.930 . S
H539 C547 0.930 . S
H540 C550 0.930 1_655 S
H541 C551 0.930 1_655 S
C542 H536 0.930 . S
C542 C543 1.355 . S
C542 C544 1.415 . S
C543 C542 1.355 . S
C543 C545 1.419 . S
C544 C542 1.415 . S
C544 C549 1.425 . S
C544 C551 1.409 . S
C545 H537 0.930 . S
C545 C543 1.419 . S
C545 C546 1.362 . S
C546 H538 0.930 . S
C546 C545 1.362 . S
C546 C549 1.409 . S
C547 H539 0.930 . S
C547 C548 1.355 . S
C547 C549 1.415 . S
C548 C547 1.355 . S
C548 C550 1.419 . S
C549 C544 1.425 . S
C549 C546 1.409 . S
C549 C547 1.415 . S
C550 H540 0.930 1_455 S
C550 C548 1.419 . S
C550 C551 1.362 . S
C551 H541 0.930 1_455 S
C551 C544 1.409 . S
C551 C550 1.362 . S
H552 C558 0.930 . S
H553 C561 0.930 . S
H554 C562 0.930 . S
H555 C563 0.930 . S
H556 C566 0.930 . S
H557 C567 0.930 . S
C558 H552 0.930 . S
C558 C559 1.355 1_565 S
C558 C560 1.415 . S
C559 C558 1.355 1_545 S
C559 C561 1.419 . S
C560 C558 1.415 . S
C560 C565 1.425 1_565 S
C560 C567 1.409 . S
C561 H553 0.930 . S
C561 C559 1.419 . S
C561 C562 1.362 . S
C562 H554 0.930 . S
C562 C561 1.362 . S
C562 C565 1.409 . S
C563 H555 0.930 . S
C563 C564 1.355 . S
C563 C565 1.415 . S
C564 C563 1.355 . S
C564 C566 1.419 1_545 S
C565 C560 1.425 1_545 S
C565 C562 1.409 . S
C565 C563 1.415 . S
C566 H556 0.930 . S
C566 C564 1.419 1_565 S
C566 C567 1.362 . S
C567 H557 0.930 . S
C567 C560 1.409 . S
C567 C566 1.362 . S
H568 C574 0.930 . S
H569 C577 0.930 . S
H570 C578 0.930 . S
H571 C579 0.930 . S
H572 C582 0.930 . S
H573 C583 0.930 . S
C574 H568 0.930 . S
C574 C575 1.355 1_655 S
C574 C576 1.415 . S
C575 C574 1.355 1_455 S
C575 C577 1.419 . S
C576 C574 1.415 . S
C576 C581 1.425 1_655 S
C576 C583 1.409 . S
C577 H569 0.930 . S
C577 C575 1.419 . S
C577 C578 1.362 . S
C578 H570 0.930 . S
C578 C577 1.362 . S
C578 C581 1.409 . S
C579 H571 0.930 . S
C579 C580 1.355 . S
C579 C581 1.415 . S
C580 C579 1.355 . S
C580 C582 1.419 1_455 S
C581 C576 1.425 1_455 S
C581 C578 1.409 . S
C581 C579 1.415 . S
C582 H572 0.930 . S
C582 C580 1.419 1_655 S
C582 C583 1.362 . S
C583 H573 0.930 . S
C583 C576 1.409 . S
C583 C582 1.362 . S
C271 C28 1.654 . S
C276 C160 1.650 . S
C287 C193 1.676 . S
C292 C61 1.643 . S
C303 C94 1.654 . S
C308 C226 1.651 . S
C319 C259 1.655 . S
C324 C127 1.670 . S
C335 C182 0.413 . S
C340 C17 0.448 . S
C351 C215 0.299 . S
C356 C50 0.488 . S
C367 C83 0.519 . S
C372 C248 0.296 . S
C383 C149 0.451 . S
C388 C116 0.344 . S
C399 C107 1.448 . S
C404 C206 1.378 . S
C415 C8 1.441 . S
C420 C239 1.391 . S
C431 C41 1.380 . S
C436 C140 1.444 . S
C447 C74 1.411 . S
C452 C173 1.423 . S
C463 N14 0.715 . S
C468 N80 0.719 . S
C479 N47 0.716 . S
C484 N113 0.716 . S
C495 N212 0.845 . S
C500 N146 0.833 . S
C511 N245 0.735 . S
C516 N179 0.717 . S
C527 N5 1.115 . S
C532 N71 1.091 . S
C543 N104 1.121 . S
C548 N38 1.100 . S
C559 N137 1.071 . S
C564 N203 1.056 . S
C575 N170 1.121 . S
C580 N236 1.127 . S
