# Generated by pormake.
# Topology une, (4)-cn, num edge types: 1
# Building blocks:
#     Node 0, Type 0, BuildingBlock: CEKHIL_clean_sbu_0, # of connection points: 4
#     Node 1, Type 0, BuildingBlock: CEKHIL_clean_sbu_0, # of connection points: 4
#     Node 2, Type 0, BuildingBlock: CEKHIL_clean_sbu_0, # of connection points: 4
#     Node 3, Type 0, BuildingBlock: CEKHIL_clean_sbu_0, # of connection points: 4
#     Node 4, Type 0, BuildingBlock: CEKHIL_clean_sbu_0, # of connection points: 4
#     Node 5, Type 0, BuildingBlock: CEKHIL_clean_sbu_0, # of connection points: 4
#     Node 6, Type 0, BuildingBlock: CEKHIL_clean_sbu_0, # of connection points: 4
#     Node 7, Type 0, BuildingBlock: CEKHIL_clean_sbu_0, # of connection points: 4
#     Node 8, Type 0, BuildingBlock: CEKHIL_clean_sbu_0, # of connection points: 4
#     Node 9, Type 0, BuildingBlock: CEKHIL_clean_sbu_0, # of connection points: 4
#     Node 10, Type 0, BuildingBlock: CEKHIL_clean_sbu_0, # of connection points: 4
#     Node 11, Type 0, BuildingBlock: CEKHIL_clean_sbu_0, # of connection points: 4
#     Node 12, Type 0, BuildingBlock: CEKHIL_clean_sbu_0, # of connection points: 4
#     Node 13, Type 0, BuildingBlock: CEKHIL_clean_sbu_0, # of connection points: 4
#     Node 14, Type 0, BuildingBlock: CEKHIL_clean_sbu_0, # of connection points: 4
#     Node 15, Type 0, BuildingBlock: CEKHIL_clean_sbu_0, # of connection points: 4
#     Node 16, Type 0, BuildingBlock: CEKHIL_clean_sbu_0, # of connection points: 4
#     Node 17, Type 0, BuildingBlock: CEKHIL_clean_sbu_0, # of connection points: 4
#     Edge 18, Type (0, 0), BuildingBlock: XIVTED_clean_linker_0, # of connection points: 2
#     Edge 19, Type (0, 0), BuildingBlock: XIVTED_clean_linker_0, # of connection points: 2
#     Edge 20, Type (0, 0), BuildingBlock: XIVTED_clean_linker_0, # of connection points: 2
#     Edge 21, Type (0, 0), BuildingBlock: XIVTED_clean_linker_0, # of connection points: 2
#     Edge 22, Type (0, 0), BuildingBlock: XIVTED_clean_linker_0, # of connection points: 2
#     Edge 23, Type (0, 0), BuildingBlock: XIVTED_clean_linker_0, # of connection points: 2
#     Edge 24, Type (0, 0), BuildingBlock: XIVTED_clean_linker_0, # of connection points: 2
#     Edge 25, Type (0, 0), BuildingBlock: XIVTED_clean_linker_0, # of connection points: 2
#     Edge 26, Type (0, 0), BuildingBlock: XIVTED_clean_linker_0, # of connection points: 2
#     Edge 27, Type (0, 0), BuildingBlock: XIVTED_clean_linker_0, # of connection points: 2
#     Edge 28, Type (0, 0), BuildingBlock: XIVTED_clean_linker_0, # of connection points: 2
#     Edge 29, Type (0, 0), BuildingBlock: XIVTED_clean_linker_0, # of connection points: 2
#     Edge 30, Type (0, 0), BuildingBlock: XIVTED_clean_linker_0, # of connection points: 2
#     Edge 31, Type (0, 0), BuildingBlock: XIVTED_clean_linker_0, # of connection points: 2
#     Edge 32, Type (0, 0), BuildingBlock: XIVTED_clean_linker_0, # of connection points: 2
#     Edge 33, Type (0, 0), BuildingBlock: XIVTED_clean_linker_0, # of connection points: 2
#     Edge 34, Type (0, 0), BuildingBlock: XIVTED_clean_linker_0, # of connection points: 2
#     Edge 35, Type (0, 0), BuildingBlock: XIVTED_clean_linker_0, # of connection points: 2
#     Edge 36, Type (0, 0), BuildingBlock: XIVTED_clean_linker_0, # of connection points: 2
#     Edge 37, Type (0, 0), BuildingBlock: XIVTED_clean_linker_0, # of connection points: 2
#     Edge 38, Type (0, 0), BuildingBlock: XIVTED_clean_linker_0, # of connection points: 2
#     Edge 39, Type (0, 0), BuildingBlock: XIVTED_clean_linker_0, # of connection points: 2
#     Edge 40, Type (0, 0), BuildingBlock: XIVTED_clean_linker_0, # of connection points: 2
#     Edge 41, Type (0, 0), BuildingBlock: XIVTED_clean_linker_0, # of connection points: 2
#     Edge 42, Type (0, 0), BuildingBlock: XIVTED_clean_linker_0, # of connection points: 2
#     Edge 43, Type (0, 0), BuildingBlock: XIVTED_clean_linker_0, # of connection points: 2
#     Edge 44, Type (0, 0), BuildingBlock: XIVTED_clean_linker_0, # of connection points: 2
#     Edge 45, Type (0, 0), BuildingBlock: XIVTED_clean_linker_0, # of connection points: 2
#     Edge 46, Type (0, 0), BuildingBlock: XIVTED_clean_linker_0, # of connection points: 2
#     Edge 47, Type (0, 0), BuildingBlock: XIVTED_clean_linker_0, # of connection points: 2
#     Edge 48, Type (0, 0), BuildingBlock: XIVTED_clean_linker_0, # of connection points: 2
#     Edge 49, Type (0, 0), BuildingBlock: XIVTED_clean_linker_0, # of connection points: 2
#     Edge 50, Type (0, 0), BuildingBlock: XIVTED_clean_linker_0, # of connection points: 2
#     Edge 51, Type (0, 0), BuildingBlock: XIVTED_clean_linker_0, # of connection points: 2
#     Edge 52, Type (0, 0), BuildingBlock: XIVTED_clean_linker_0, # of connection points: 2
#     Edge 53, Type (0, 0), BuildingBlock: XIVTED_clean_linker_0, # of connection points: 2
# Relax obj value: 0.261
# Max RMSD: 0.176
# Mean RMSD: 0.165
data_MOF--net-une--node1-CEKHIL_clean_sbu_0--edge1-XIVTED_clean_linker_0
_symmetry_space_group_name_H-M    P1
_symmetry_Int_Tables_number       1
_symmetry_cell_setting            triclinic
loop_
_symmetry_equiv_pos_as_xyz
'x, y, z'
_cell_length_a     38.305678
_cell_length_b     37.815244
_cell_length_c     52.309548
_cell_angle_alpha  90.014731
_cell_angle_beta   90.618859
_cell_angle_gamma 119.81556
loop_
_atom_site_label
_atom_site_type_symbol
_atom_site_fract_x
_atom_site_fract_y
_atom_site_fract_z
_atom_type_partial_charge
Co0 Co 0.38442 0.07945 0.07122 0.0
O1 O 0.40948 0.04616 0.07613 0.0
O2 O 0.42729 0.09428 0.04701 0.0
C3 C 0.37884 0.09551 0.11217 0.0
O4 O 0.3674 0.1203 0.06027 0.0
Co5 Co 0.29837 0.05299 0.09097 0.0
O6 O 0.31417 0.11041 0.08345 0.0
C7 C 0.30797 0.01254 0.04582 0.0
C8 C 0.43131 0.06461 0.05632 0.0
C9 C 0.34275 0.13159 0.0682 0.0
O10 O 0.34597 0.03775 0.04604 0.0
O11 O 0.28399 0.01205 0.06283 0.0
O12 O 0.41318 0.11541 0.1005 0.0
O13 O 0.35192 0.06355 0.10022 0.0
Co14 Co 0.91789 0.3099 0.06584 0.0
O15 O 0.87969 0.29446 0.0937 0.0
O16 O 0.93116 0.28344 0.09261 0.0
C17 C 0.93079 0.37398 0.05717 0.0
O18 O 0.96416 0.32105 0.04239 0.0
Co19 Co 0.90061 0.32791 0.01046 0.0
O20 O 0.95797 0.34518 1.00437 0.0
C21 C 0.85861 0.24404 0.02974 0.0
C22 C 0.89899 0.27776 0.1042 0.0
C23 C 0.97799 0.33679 0.02043 0.0
O24 O 0.88171 0.25513 0.0496 0.0
O25 O 0.85946 0.26886 0.01282 0.0
O26 O 0.94843 0.36743 0.07661 0.0
O27 O 0.90235 0.34161 0.04644 0.0
Co28 Co 0.70625 0.61424 0.06888 0.0
O29 O 0.64831 0.58731 0.07338 0.0
O30 O 0.67884 0.57333 0.04265 0.0
C31 C 0.72771 0.61575 0.10965 0.0
O32 O 0.76369 0.6335 0.05772 0.0
Co33 Co 0.76504 0.69929 0.09273 0.0
O34 O 0.80679 0.68554 0.08292 0.0
C35 C 0.71428 0.6935 0.04861 0.0
C36 C 0.64528 0.56733 0.05239 0.0
C37 C 0.79946 0.65829 0.06608 0.0
O38 O 0.70231 0.65531 0.04639 0.0
O39 O 0.73759 0.71607 0.06662 0.0
O40 O 0.71369 0.58243 0.09603 0.0
O41 O 0.72267 0.64403 0.09955 0.0
Co42 Co 0.59829 0.91388 0.93952 0.0
O43 O 0.57622 0.87919 0.90931 0.0
O44 O 0.63957 0.92776 0.91459 0.0
C45 C 0.55124 0.93195 0.94785 0.0
O46 O 0.63343 0.95546 0.96589 0.0
Co47 Co 0.55909 0.89236 0.99313 0.0
O48 O 0.60436 0.94664 1.0041 0.0
C49 C 0.59532 0.8463 0.97229 0.0
C50 C 0.61299 0.8978 0.90077 0.0
C51 C 0.63364 0.96661 0.98905 0.0
O52 O 0.61137 0.87289 0.95455 0.0
O53 O 0.56987 0.84603 0.98805 0.0
O54 O 0.57712 0.94991 0.92965 0.0
O55 O 0.55082 0.90016 0.95725 0.0
Co56 Co 0.08325 0.68295 0.93405 0.0
O57 O 0.11455 0.6951 0.90306 0.0
O58 O 0.06782 0.71187 0.91016 0.0
C59 C 0.06624 0.61744 0.94158 0.0
O60 O 0.04463 0.67606 0.96233 0.0
Co61 Co 0.11359 0.66519 0.98529 0.0
O62 O 0.06095 0.65527 0.99858 0.0
C63 C 0.15481 0.74736 0.96437 0.0
C64 C 0.09628 0.71466 0.89554 0.0
C65 C 0.0377 0.66376 0.9856 0.0
O66 O 0.12531 0.73684 0.94861 0.0
O67 O 0.15825 0.72204 0.9789 0.0
O68 O 0.04655 0.62578 0.92434 0.0
O69 O 0.09893 0.64852 0.94988 0.0
Co70 Co 0.32 0.40317 0.94532 0.0
O71 O 0.30598 0.42255 0.91455 0.0
O72 O 0.28731 0.35821 0.92265 0.0
C73 C 0.38651 0.44852 0.94998 0.0
O74 O 0.32809 0.37054 0.97309 0.0
Co75 Co 0.34716 0.45299 0.99611 0.0
O76 O 0.35725 0.409 1.00811 0.0
C77 C 0.26226 0.41383 0.98031 0.0
C78 C 0.28504 0.38434 0.90767 0.0
C79 C 0.34445 0.37603 0.99538 0.0
O80 O 0.26953 0.39605 0.96185 0.0
O81 O 0.2897 0.44 0.99518 0.0
O82 O 0.3741 0.41907 0.93322 0.0
O83 O 0.35838 0.45336 0.9599 0.0
Co84 Co 0.05202 0.41137 0.40735 0.0
O85 O 0.0846 0.38552 0.41136 0.0
O86 O 0.08721 0.42331 0.37841 0.0
C87 C 0.05612 0.43745 0.44698 0.0
O88 O 0.02475 0.44328 0.39643 0.0
Co89 Co 0.97204 0.38058 0.4372 0.0
O90 O 0.97592 0.43191 0.42433 0.0
C91 C 0.97754 0.3303 0.3967 0.0
C92 C 0.09864 0.3994 0.38875 0.0
C93 C 0.99877 0.45163 0.40586 0.0
O94 O 0.01018 0.36111 0.38897 0.0
O95 O 0.9598 0.33048 0.41724 0.0
O96 O 0.08566 0.45651 0.43105 0.0
O97 O 0.0295 0.40119 0.43989 0.0
Co98 Co 0.57751 0.63829 0.39294 0.0
O99 O 0.54279 0.62486 0.42251 0.0
O100 O 0.58977 0.60783 0.4175 0.0
C101 C 0.59503 0.70442 0.3869 0.0
O102 O 0.61981 0.64627 0.36683 0.0
Co103 Co 0.5583 0.66269 0.33997 0.0
O104 O 0.6158 0.68105 0.33315 0.0
C105 C 0.51237 0.57753 0.35718 0.0
C106 C 0.56024 0.605 0.43099 0.0
C107 C 0.63423 0.66687 0.34626 0.0
O108 O 0.53637 0.58572 0.37641 0.0
O109 O 0.51455 0.60439 0.3414 0.0
O110 O 0.61315 0.69476 0.40451 0.0
O111 O 0.56409 0.67399 0.37643 0.0
Co112 Co 0.37016 0.94447 0.40244 0.0
O113 O 0.3131 0.91982 0.40927 0.0
O114 O 0.33912 0.89988 0.37881 0.0
C115 C 0.39536 0.95177 0.44278 0.0
O116 O 0.42634 0.96084 0.38968 0.0
Co117 Co 0.43092 0.03278 0.42122 0.0
O118 O 0.47179 0.01979 0.40855 0.0
C119 C 0.37577 0.02067 0.37852 0.0
C120 C 0.3071 0.89666 0.38938 0.0
C121 C 0.46286 0.98889 0.39444 0.0
O122 O 0.36455 0.98251 0.37788 0.0
O123 O 0.40001 0.04545 0.39537 0.0
O124 O 0.37983 0.91651 0.4312 0.0
O125 O 0.38976 0.97861 0.43118 0.0
Co126 Co 0.25595 0.23956 0.27234 0.0
O127 O 0.23415 0.2036 0.24267 0.0
O128 O 0.29699 0.2537 0.24725 0.0
C129 C 0.20805 0.25636 0.28059 0.0
O130 O 0.29056 0.28276 0.29803 0.0
Co131 Co 0.21797 0.21835 0.32622 0.0
O132 O 0.26124 0.2743 0.33612 0.0
C133 C 0.25554 0.17358 0.30562 0.0
C134 C 0.27078 0.22279 0.2339 0.0
C135 C 0.29001 0.29482 0.32084 0.0
O136 O 0.2709 0.20019 0.28784 0.0
O137 O 0.22999 0.17279 0.32149 0.0
O138 O 0.23317 0.27392 0.26197 0.0
O139 O 0.20855 0.22519 0.29032 0.0
Co140 Co 0.75524 0.01486 0.2712 0.0
O141 O 0.7888 0.0305 0.24093 0.0
O142 O 0.74627 0.05188 0.25045 0.0
C143 C 0.73175 0.94674 0.27209 0.0
O144 O 0.71525 0.00668 0.29886 0.0
Co145 Co 0.77017 0.97702 0.32018 0.0
O146 O 0.71576 0.96642 0.33025 0.0
C147 C 0.82297 0.06427 0.30897 0.0
C148 C 0.77383 0.05393 0.23531 0.0
C149 C 0.70037 0.98554 0.31915 0.0
O150 O 0.79959 0.06231 0.29049 0.0
O151 O 0.81816 0.03305 0.32142 0.0
O152 O 0.71529 0.96155 0.25666 0.0
O153 O 0.76427 0.97351 0.28332 0.0
Co154 Co 0.9784 0.7262 0.28257 0.0
O155 O 0.96753 0.74786 0.25168 0.0
O156 O 0.94807 0.68292 0.25831 0.0
C157 C 0.0444 0.77143 0.29015 0.0
O158 O 0.98336 0.69165 0.31019 0.0
Co159 Co 0.99929 0.77241 0.33457 0.0
O160 O 0.0058 0.72629 0.34724 0.0
C161 C 0.91791 0.738 0.31334 0.0
C162 C 0.9471 0.71015 0.2437 0.0
C163 C 0.99542 0.69466 0.33349 0.0
O164 O 0.92625 0.71778 0.29715 0.0
O165 O 0.94428 0.76516 0.32827 0.0
O166 O 0.03392 0.74317 0.27272 0.0
O167 O 0.01507 0.77522 0.29906 0.0
Co168 Co 0.7189 0.74547 0.7386 0.0
O169 O 0.75031 0.7185 0.74359 0.0
O170 O 0.75744 0.75943 0.71145 0.0
C171 C 0.71829 0.76835 0.77853 0.0
O172 O 0.694 0.77931 0.72709 0.0
Co173 Co 0.63527 0.71249 0.76417 0.0
O174 O 0.63794 0.76225 0.74952 0.0
C175 C 0.64709 0.66459 0.7251 0.0
C176 C 0.76713 0.73422 0.72184 0.0
C177 C 0.66482 0.78489 0.73363 0.0
O178 O 0.67894 0.69683 0.7179 0.0
O179 O 0.6278 0.66322 0.74521 0.0
O180 O 0.74991 0.78834 0.76427 0.0
O181 O 0.6923 0.73286 0.76986 0.0
Co182 Co 0.24018 0.97492 0.72908 0.0
O183 O 0.20021 0.95871 0.75588 0.0
O184 O 0.25269 0.94926 0.75671 0.0
C185 C 0.25228 0.03839 0.71955 0.0
O186 O 0.28806 0.987 0.70691 0.0
Co187 Co 0.22478 0.99111 0.67288 0.0
O188 O 0.28266 0.00935 0.66806 0.0
C189 C 0.18342 0.90779 0.69282 0.0
C190 C 0.21943 0.94258 0.76722 0.0
C191 C 0.30254 0.00219 0.68494 0.0
O192 O 0.20604 0.91987 0.71287 0.0
O193 O 0.18415 0.93182 0.67538 0.0
O194 O 0.26895 0.03242 0.73974 0.0
O195 O 0.22475 0.00567 0.70855 0.0
Co196 Co 0.03902 0.27931 0.73379 0.0
O197 O 0.9818 0.25358 0.74032 0.0
O198 O 0.00895 0.23498 0.70983 0.0
C199 C 0.064 0.2862 0.77415 0.0
O200 O 0.09559 0.29692 0.72128 0.0
Co201 Co 0.09829 0.36765 0.75317 0.0
O202 O 0.14004 0.35594 0.74054 0.0
C203 C 0.0435 0.35528 0.71023 0.0
C204 C 0.97651 0.23086 0.72031 0.0
C205 C 0.13184 0.32538 0.72628 0.0
O206 O 0.0329 0.31728 0.70944 0.0
O207 O 0.06729 0.38008 0.72724 0.0
O208 O 0.04887 0.25118 0.76231 0.0
O209 O 0.0579 0.31295 0.76282 0.0
Co210 Co 0.92851 0.57757 0.6049 0.0
O211 O 0.90662 0.54451 0.57407 0.0
O212 O 0.97017 0.59212 0.5802 0.0
C213 C 0.88223 0.59642 0.61382 0.0
O214 O 0.96356 0.61749 0.63199 0.0
Co215 Co 0.88844 0.55373 0.65814 0.0
O216 O 0.9336 0.60751 0.66996 0.0
C217 C 0.92432 0.50797 0.6363 0.0
C218 C 0.94359 0.56301 0.56587 0.0
C219 C 0.96335 0.62773 0.6553 0.0
O220 O 0.94046 0.53521 0.61893 0.0
O221 O 0.89908 0.50742 0.65236 0.0
O222 O 0.90846 0.61483 0.59586 0.0
O223 O 0.88092 0.56381 0.62252 0.0
Co224 Co 0.42206 0.34931 0.60222 0.0
O225 O 0.45339 0.36166 0.5711 0.0
O226 O 0.41351 0.38615 0.58102 0.0
C227 C 0.39596 0.28086 0.60485 0.0
O228 O 0.38458 0.34447 0.63078 0.0
Co229 Co 0.43966 0.31412 0.65144 0.0
O230 O 0.38621 0.30518 0.66247 0.0
C231 C 0.49338 0.39995 0.63758 0.0
C232 C 0.43953 0.386 0.5654 0.0
C233 C 0.37069 0.3243 0.65153 0.0
O234 O 0.46871 0.3972 0.61976 0.0
O235 O 0.48878 0.36942 0.65073 0.0
O236 O 0.37974 0.2958 0.58933 0.0
O237 O 0.42982 0.3074 0.61489 0.0
Co238 Co 0.64543 0.0629 0.61665 0.0
O239 O 0.63562 0.08449 0.58532 0.0
O240 O 0.61301 0.01923 0.59306 0.0
C241 C 0.71225 0.10657 0.62317 0.0
O242 O 0.64839 0.02783 0.64485 0.0
Co243 Co 0.67143 0.11044 0.66828 0.0
O244 O 0.68176 0.06599 0.67913 0.0
C245 C 0.58748 0.07529 0.65019 0.0
C246 C 0.61351 0.04665 0.57793 0.0
C247 C 0.66549 0.0324 0.66678 0.0
O248 O 0.59484 0.05811 0.63141 0.0
O249 O 0.61451 0.09932 0.66615 0.0
O250 O 0.70026 0.07697 0.60655 0.0
O251 O 0.68399 0.11186 0.63229 0.0
H252 H 0.43475 0.99511 0.06625 0.0
H253 H 0.56023 0.00858 0.94068 0.0
H254 H 0.47808 0.09558 0.01361 0.0
H255 H 0.49983 0.90196 0.98805 0.0
H256 H 0.5339 0.04294 0.96781 0.0
H257 H 0.46369 0.96348 0.03941 0.0
C258 C 0.4509 0.0109 0.04927 0.0
C259 C 0.45398 0.04819 0.0423 0.0
C260 C 0.52629 0.01195 0.97217 0.0
C261 C 0.48684 0.01163 0.01104 0.0
C262 C 0.54112 0.99221 0.95656 0.0
C263 C 0.53226 0.95221 0.96199 0.0
C264 C 0.50262 0.99167 0.99348 0.0
C265 C 0.5076 0.93277 0.98305 0.0
C266 C 0.46716 0.9926 0.03378 0.0
C267 C 0.475 0.06688 0.01984 0.0
N268 N 0.49391 0.95265 0.998 0.0
N269 N 0.49047 0.0484 1.00501 0.0
H270 H 0.89575 0.39681 0.02012 0.0
H271 H 0.10139 0.59343 0.97812 0.0
H272 H 0.00852 0.43893 0.06036 0.0
H273 H 0.98714 0.55517 0.94068 0.0
H274 H 0.06834 0.53636 1.00763 0.0
H275 H 0.92848 0.45479 0.99127 0.0
C276 C 0.92734 0.41867 0.02316 0.0
C277 C 0.94933 0.41301 0.04284 0.0
C278 C 0.05046 0.54022 0.9929 0.0
C279 C 0.98741 0.47939 0.00932 0.0
C280 C 0.06937 0.5727 0.97587 0.0
C281 C 0.04708 0.57918 0.95676 0.0
C282 C 0.00876 0.51371 0.99094 0.0
C283 C 0.00565 0.55128 0.95492 0.0
C284 C 0.94609 0.45169 1.00653 0.0
C285 C 0.99024 0.44225 0.04569 0.0
N286 N 0.98785 0.51993 0.97184 0.0
N287 N 0.008 0.47396 0.02901 0.0
H288 H 0.44619 0.42946 0.94198 0.0
H289 H 0.63079 0.5227 1.00835 0.0
H290 H 0.41844 0.50721 0.98745 0.0
H291 H 0.57193 0.56091 0.06257 0.0
H292 H 0.5705 0.49337 0.98149 0.0
H293 H 0.50855 0.45336 0.96646 0.0
C294 C 0.45362 0.45223 0.95678 0.0
C295 C 0.42702 0.46652 0.96245 0.0
C296 C 0.57005 0.50718 0.99948 0.0
C297 C 0.49912 0.49461 0.99082 0.0
C298 C 0.6048 0.52416 0.0149 0.0
C299 C 0.60652 0.54411 0.03795 0.0
C300 C 0.53639 0.51006 1.00705 0.0
C301 C 0.57198 0.54551 0.04514 0.0
C302 C 0.48948 0.46603 0.97086 0.0
C303 C 0.43802 0.49542 0.98226 0.0
N304 N 0.53859 0.52905 0.02969 0.0
N305 N 0.47296 0.50829 0.99573 0.0
H306 H 0.13444 0.42457 0.34184 0.0
H307 H 0.16041 0.2289 0.32269 0.0
H308 H 0.11088 0.33568 0.40057 0.0
H309 H 0.21469 0.33172 0.27183 0.0
H310 H 0.1373 0.26582 0.34941 0.0
H311 H 0.16103 0.39061 0.31471 0.0
C312 C 0.13538 0.39829 0.34921 0.0
C313 C 0.12047 0.38313 0.37365 0.0
C314 C 0.15417 0.28039 0.33239 0.0
C315 C 0.15 0.34343 0.34233 0.0
C316 C 0.16723 0.25916 0.31696 0.0
C317 C 0.18971 0.27714 0.2949 0.0
C318 C 0.16315 0.32 0.32576 0.0
C319 C 0.19737 0.31651 0.28857 0.0
C320 C 0.15041 0.3788 0.33363 0.0
C321 C 0.12222 0.34872 0.382 0.0
N322 N 0.18414 0.3366 0.3039 0.0
N323 N 0.13627 0.32991 0.36633 0.0
H324 H 0.67577 0.76128 0.38522 0.0
H325 H 0.64943 0.89633 0.27608 0.0
H326 H 0.55999 0.73564 0.35559 0.0
H327 H 0.76298 0.90613 0.29734 0.0
H328 H 0.61544 0.83846 0.30543 0.0
H329 H 0.70814 0.81804 0.35515 0.0
C330 C 0.65713 0.76824 0.37288 0.0
C331 C 0.61509 0.74385 0.37309 0.0
C332 C 0.64775 0.85293 0.30336 0.0
C333 C 0.65191 0.8082 0.33809 0.0
C334 C 0.66706 0.88556 0.28629 0.0
C335 C 0.7091 0.90593 0.28408 0.0
C336 C 0.67069 0.84079 0.3184 0.0
C337 C 0.73051 0.89126 0.29837 0.0
C338 C 0.67561 0.80029 0.35541 0.0
C339 C 0.5925 0.75378 0.35616 0.0
N340 N 0.71121 0.85999 0.31501 0.0
N341 N 0.61112 0.78501 0.33935 0.0
H342 H 0.10938 0.76076 0.2807 0.0
H343 H 0.23687 0.89458 0.40241 0.0
H344 H 0.07044 0.82498 0.33053 0.0
H345 H 0.2854 0.84694 0.34682 0.0
H346 H 0.17358 0.86417 0.37806 0.0
H347 H 0.17243 0.78838 0.30557 0.0
C348 C 0.11416 0.7809 0.29671 0.0
C349 C 0.08441 0.79054 0.30344 0.0
C350 C 0.19793 0.86007 0.37124 0.0
C351 C 0.15641 0.82179 0.33234 0.0
C352 C 0.23408 0.87719 0.3853 0.0
C353 C 0.26667 0.8733 0.37678 0.0
C354 C 0.19401 0.83867 0.3484 0.0
C355 C 0.26114 0.85067 0.35423 0.0
C356 C 0.15012 0.79652 0.311 0.0
C357 C 0.09233 0.8166 0.32455 0.0
N358 N 0.22568 0.83436 0.34083 0.0
N359 N 0.1273 0.83109 0.33823 0.0
H360 H 0.83237 0.56682 0.65481 0.0
H361 H 0.80844 0.76321 0.67696 0.0
H362 H 0.89075 0.67295 0.60683 0.0
H363 H 0.77654 0.66843 0.7328 0.0
H364 H 0.83682 0.73072 0.65012 0.0
H365 H 0.80811 0.60243 0.68181 0.0
C366 C 0.83991 0.59757 0.64978 0.0
C367 C 0.8638 0.61683 0.62843 0.0
C368 C 0.82399 0.71727 0.66836 0.0
C369 C 0.83592 0.65817 0.65962 0.0
C370 C 0.80793 0.73592 0.68379 0.0
C371 C 0.79012 0.71868 0.70731 0.0
C372 C 0.82178 0.68069 0.67625 0.0
C373 C 0.79013 0.68307 0.71497 0.0
C374 C 0.82616 0.61803 0.66537 0.0
C375 C 0.87234 0.65676 0.62301 0.0
N376 N 0.80528 0.66514 0.69943 0.0
N377 N 0.85842 0.67608 0.63847 0.0
H378 H 0.31335 0.22908 0.60583 0.0
H379 H 0.33007 0.10195 0.72359 0.0
H380 H 0.42529 0.24279 0.6348 0.0
H381 H 0.21935 0.06191 0.68126 0.0
H382 H 0.364 0.15928 0.69411 0.0
H383 H 0.27686 0.17104 0.63482 0.0
C384 C 0.33022 0.21936 0.6178 0.0
C385 C 0.37249 0.24082 0.61777 0.0
C386 C 0.33217 0.13815 0.69139 0.0
C387 C 0.33107 0.17546 0.65158 0.0
C388 C 0.31268 0.10571 0.70845 0.0
C389 C 0.27174 0.07717 0.705 0.0
C390 C 0.31056 0.14242 0.67081 0.0
C391 C 0.25095 0.08326 0.68468 0.0
C392 C 0.30942 0.18655 0.63457 0.0
C393 C 0.39273 0.22726 0.63414 0.0
N394 N 0.27052 0.11511 0.66837 0.0
N395 N 0.37195 0.19588 0.65047 0.0
H396 H 0.74125 0.16551 0.66014 0.0
H397 H 0.95555 0.17932 0.67867 0.0
H398 H 0.77517 0.09117 0.61605 0.0
H399 H 0.90621 0.22957 0.73184 0.0
H400 H 0.89187 0.14852 0.65434 0.0
H401 H 0.80397 0.1924 0.68448 0.0
C402 C 0.76202 0.15496 0.65541 0.0
C403 C 0.75266 0.12586 0.63595 0.0
C404 C 0.89486 0.16595 0.67147 0.0
C405 C 0.82522 0.15679 0.66411 0.0
C406 C 0.93118 0.18341 0.68547 0.0
C407 C 0.93635 0.20702 0.70747 0.0
C408 C 0.86354 0.17253 0.67928 0.0
C409 C 0.9037 0.21148 0.71515 0.0
C410 C 0.79788 0.17026 0.66948 0.0
C411 C 0.78108 0.11363 0.63079 0.0
N412 N 0.869 0.19476 0.70101 0.0
N413 N 0.81605 0.12913 0.64476 0.0
H414 H 0.31121 0.05799 0.14079 0.0
H415 H 0.34234 0.26168 0.20879 0.0
H416 H 0.4159 0.17571 0.12883 0.0
H417 H 0.23193 0.14639 0.21177 0.0
H418 H 0.37019 0.23135 0.17994 0.0
H419 H 0.28355 0.08971 0.16844 0.0
C420 C 0.32874 0.09051 0.1443 0.0
C421 C 0.36609 0.11414 0.13248 0.0
C422 C 0.33974 0.21275 0.18666 0.0
C423 C 0.33404 0.151 0.16402 0.0
C424 C 0.32364 0.23011 0.20303 0.0
C425 C 0.28458 0.2066 0.21272 0.0
C426 C 0.31687 0.17132 0.18003 0.0
C427 C 0.26198 0.16581 0.20466 0.0
C428 C 0.31269 0.10868 0.15995 0.0
C429 C 0.38724 0.1562 0.13771 0.0
N430 N 0.27857 0.14941 0.18901 0.0
N431 N 0.37085 0.17329 0.153 0.0
H432 H 0.9325 0.23695 0.12773 0.0
H433 H 0.74391 0.10186 0.21748 0.0
H434 H 0.82674 0.24974 0.12913 0.0
H435 H 0.84184 0.07812 0.20658 0.0
H436 H 0.77457 0.15764 0.18675 0.0
H437 H 0.90159 0.182 0.1588 0.0
C438 C 0.90293 0.22861 0.1348 0.0
C439 C 0.88231 0.24829 0.12574 0.0
C440 C 0.78928 0.14012 0.19094 0.0
C441 C 0.8463 0.18449 0.16137 0.0
C442 C 0.7717 0.10808 0.20845 0.0
C443 C 0.79019 0.08499 0.21463 0.0
C444 C 0.82597 0.14965 0.17957 0.0
C445 C 0.82631 0.09479 0.20234 0.0
C446 C 0.88515 0.1969 0.15247 0.0
C447 C 0.84393 0.23574 0.13562 0.0
N448 N 0.84307 0.12643 0.18556 0.0
N449 N 0.82717 0.20464 0.15282 0.0
H450 H 0.92278 0.75623 0.21628 0.0
H451 H 0.76254 0.57156 0.12785 0.0
H452 H 0.90583 0.63479 0.22089 0.0
H453 H 0.76208 0.6843 0.13929 0.0
H454 H 0.81819 0.59476 0.15914 0.0
H455 H 0.86884 0.73196 0.18401 0.0
C456 C 0.90822 0.72463 0.21021 0.0
C457 C 0.91896 0.69758 0.22136 0.0
C458 C 0.80568 0.61426 0.15486 0.0
C459 C 0.85658 0.66931 0.18457 0.0
C460 C 0.77371 0.60088 0.13715 0.0
C461 C 0.7575 0.62596 0.13088 0.0
C462 C 0.8218 0.65313 0.16621 0.0
C463 C 0.77359 0.66391 0.14339 0.0
C464 C 0.87709 0.71065 0.19195 0.0
C465 C 0.89859 0.65678 0.21285 0.0
N466 N 0.80487 0.67637 0.16023 0.0
N467 N 0.8684 0.64389 0.19505 0.0
H468 H 0.68405 0.93679 0.87504 0.0
H469 H 0.65402 0.73196 0.81011 0.0
H470 H 0.57354 0.82167 0.8784 0.0
H471 H 0.75291 0.85034 0.79106 0.0
H472 H 0.62691 0.76446 0.83748 0.0
H473 H 0.71113 0.90649 0.84548 0.0
C474 C 0.66516 0.90529 0.86921 0.0
C475 C 0.62631 0.8818 0.87921 0.0
C476 C 0.65462 0.78344 0.82743 0.0
C477 C 0.65773 0.84656 0.84578 0.0
C478 C 0.67038 0.76487 0.8119 0.0
C479 C 0.70592 0.78838 0.79818 0.0
C480 C 0.67454 0.82607 0.8296 0.0
C481 C 0.72564 0.83093 0.80138 0.0
C482 C 0.6808 0.88797 0.85242 0.0
C483 C 0.60344 0.84108 0.87106 0.0
N484 N 0.70967 0.8484 0.81672 0.0
N485 N 0.61964 0.82468 0.85509 0.0
H486 H 0.16448 0.73911 0.86725 0.0
H487 H 0.14511 0.91246 0.78979 0.0
H488 H 0.06436 0.76007 0.87594 0.0
H489 H 0.25205 0.90171 0.79168 0.0
H490 H 0.11345 0.85543 0.8199 0.0
H491 H 0.19443 0.79556 0.83694 0.0
C492 C 0.14842 0.7551 0.86249 0.0
C493 C 0.11171 0.74457 0.87418 0.0
C494 C 0.14396 0.86579 0.81386 0.0
C495 C 0.14631 0.81005 0.83964 0.0
C496 C 0.16218 0.8986 0.7968 0.0
C497 C 0.20146 0.91221 0.78821 0.0
C498 C 0.16499 0.84612 0.82225 0.0
C499 C 0.22182 0.89254 0.79777 0.0
C500 C 0.16576 0.78768 0.84533 0.0
C501 C 0.09263 0.76691 0.86739 0.0
N502 N 0.20335 0.86053 0.81405 0.0
N503 N 0.11014 0.79855 0.85067 0.0
H504 H 0.24328 0.30763 0.88686 0.0
H505 H 0.10071 0.35859 0.79999 0.0
H506 H 0.25871 0.42816 0.87944 0.0
H507 H 0.09792 0.24329 0.7958 0.0
H508 H 0.15597 0.38283 0.83095 0.0
H509 H 0.18904 0.28255 0.85479 0.0
C510 C 0.23561 0.32898 0.87827 0.0
C511 C 0.25579 0.37019 0.88587 0.0
C512 C 0.14331 0.35218 0.82336 0.0
C513 C 0.19294 0.34133 0.84935 0.0
C514 C 0.1115 0.33815 0.80572 0.0
C515 C 0.09452 0.29875 0.79516 0.0
C516 C 0.15846 0.32668 0.83081 0.0
C517 C 0.1099 0.27379 0.80347 0.0
C518 C 0.20448 0.31454 0.86 0.0
C519 C 0.24428 0.39626 0.87411 0.0
N520 N 0.14099 0.28817 0.82077 0.0
N521 N 0.21351 0.38136 0.85663 0.0
H522 H 0.0878 0.52045 0.45466 0.0
H523 H 0.90469 0.48686 0.54379 0.0
H524 H 0.9973 0.40324 0.48245 0.0
H525 H 0.01452 0.60257 0.53998 0.0
H526 H 0.93402 0.45769 0.515 0.0
H527 H 0.05903 0.55301 0.48141 0.0
C528 C 0.06248 0.50163 0.46673 0.0
C529 C 0.04507 0.459 0.46633 0.0
C530 C 0.95155 0.4896 0.52025 0.0
C531 C 0.01118 0.49589 0.49621 0.0
C532 C 0.93457 0.5064 0.53642 0.0
C533 C 0.95711 0.54724 0.54432 0.0
C534 C 0.99124 0.51386 0.51168 0.0
C535 C 0.99603 0.57091 0.53441 0.0
C536 C 0.04579 0.52018 0.48176 0.0
C537 C 0.01176 0.43617 0.48207 0.0
N538 N 0.0119 0.55391 0.51869 0.0
N539 N 0.99575 0.45478 0.49609 0.0
H540 H 0.49403 0.58562 0.46061 0.0
H541 H 0.50295 0.40293 0.53373 0.0
H542 H 0.58844 0.55642 0.45023 0.0
H543 H 0.41412 0.43838 0.54897 0.0
H544 H 0.5332 0.45736 0.50194 0.0
H545 H 0.46384 0.53157 0.49267 0.0
C546 C 0.50872 0.56824 0.46527 0.0
C547 C 0.54398 0.57583 0.45269 0.0
C548 C 0.50696 0.45312 0.51215 0.0
C549 C 0.50909 0.51318 0.48915 0.0
C550 C 0.48949 0.4218 0.5302 0.0
C551 C 0.45581 0.41586 0.54406 0.0
C552 C 0.49068 0.4788 0.5078 0.0
C553 C 0.43999 0.44166 0.53876 0.0
C554 C 0.49131 0.53716 0.48349 0.0
C555 C 0.56136 0.5519 0.45943 0.0
N556 N 0.45753 0.47191 0.52116 0.0
N557 N 0.54371 0.52167 0.47703 0.0
H558 H 0.59956 0.09575 0.54559 0.0
H559 H 0.42745 0.02201 0.4705 0.0
H560 H 0.56297 0.96962 0.55933 0.0
H561 H 0.43296 0.91132 0.46309 0.0
H562 H 0.48198 0.04733 0.50179 0.0
H563 H 0.54748 0.07422 0.51241 0.0
C564 C 0.58069 0.06351 0.54156 0.0
C565 C 0.58559 0.03453 0.55546 0.0
C566 C 0.47196 0.01779 0.49314 0.0
C567 C 0.52432 0.00923 0.51803 0.0
C568 C 0.44021 0.00295 0.47545 0.0
C569 C 0.42561 0.9645 0.46395 0.0
C570 C 0.48982 0.99422 0.49948 0.0
C571 C 0.44317 0.94111 0.47146 0.0
C572 C 0.55036 0.05109 0.52283 0.0
C573 C 0.56022 0.99311 0.54923 0.0
N574 N 0.47436 0.95635 0.48874 0.0
N575 N 0.53068 0.98173 0.53108 0.0
H576 H 0.34537 0.97616 0.02243 0.0
H577 H 0.14469 0.8116 0.95121 0.0
H578 H 0.23297 0.97663 0.02431 0.0
H579 H 0.23065 0.78273 0.9853 0.0
H580 H 0.18804 0.8829 0.9637 0.0
H581 H 0.31348 0.91567 0.99461 0.0
C582 C 0.31428 0.96408 0.0165 0.0
C583 C 0.29142 0.9808 0.02592 0.0
C584 C 0.19763 0.86097 0.96797 0.0
C585 C 0.25539 0.91261 0.99409 0.0
C586 C 0.17305 0.82036 0.96084 0.0
C587 C 0.18375 0.79111 0.96776 0.0
C588 C 0.23332 0.87236 0.98171 0.0
C589 C 0.22094 0.80423 0.98008 0.0
C590 C 0.29619 0.92965 1.00075 0.0
C591 C 0.25132 0.96411 0.01775 0.0
N592 N 0.24431 0.84396 0.98691 0.0
N593 N 0.23443 0.93068 1.00238 0.0
H594 H 0.03758 0.34608 0.05347 0.0
H595 H 0.1976 0.37825 0.94719 0.0
H596 H 0.01288 0.35046 0.97314 0.0
H597 H 0.23072 0.42347 0.02459 0.0
H598 H 0.12761 0.35876 0.95636 0.0
H599 H 0.10656 0.36466 0.04319 0.0
C600 C 0.04657 0.35068 0.03363 0.0
C601 C 0.01939 0.3467 0.01412 0.0
C602 C 0.15033 0.37308 0.97124 0.0
C603 C 0.09837 0.36791 1.00227 0.0
C604 C 0.19017 0.38406 0.96609 0.0
C605 C 0.22004 0.40257 0.98516 0.0
C606 C 0.14028 0.37996 0.99575 0.0
C607 C 0.20876 0.40952 0.00926 0.0
C608 C 0.08603 0.36153 0.02782 0.0
C609 C 0.03289 0.35336 0.98877 0.0
N610 N 0.16975 0.39794 0.01392 0.0
N611 N 0.07146 0.36346 0.98354 0.0
H612 H 0.7522 0.77128 0.03075 0.0
H613 H 0.55624 0.77172 0.99529 0.0
H614 H 0.64009 0.6575 0.02578 0.0
H615 H 0.66788 0.85526 0.95887 0.0
H616 H 0.58531 0.7292 1.00752 0.0
H617 H 0.72208 0.80372 1.00526 0.0
C618 C 0.7214 0.75308 0.02399 0.0
C619 C 0.69842 0.71185 0.03046 0.0
C620 C 0.60308 0.75645 0.99642 0.0
C621 C 0.66374 0.74874 1.00187 0.0
C622 C 0.58664 0.78078 0.98958 0.0
C623 C 0.6099 0.81726 0.97636 0.0
C624 C 0.64329 0.76934 0.99056 0.0
C625 C 0.64899 0.82746 0.96918 0.0
C626 C 0.70434 0.77148 0.00936 0.0
C627 C 0.65874 0.68943 0.02114 0.0
N628 N 0.66483 0.80405 0.97688 0.0
N629 N 0.64227 0.70841 1.00774 0.0
H630 H 0.70307 0.01076 0.96306 0.0
H631 H 0.81818 0.18654 0.06642 0.0
H632 H 0.64721 0.00847 0.0349 0.0
H633 H 0.83196 0.20329 0.98479 0.0
H634 H 0.76475 0.11545 0.05896 0.0
H635 H 0.76073 0.0753 0.97523 0.0
C636 C 0.70283 0.02372 0.98148 0.0
C637 C 0.66972 0.0044 0.99779 0.0
C638 C 0.7798 0.13481 0.04281 0.0
C639 C 0.73631 0.0787 0.01181 0.0
C640 C 0.8103 0.17507 0.047 0.0
C641 C 0.82919 0.20062 0.02612 0.0
C642 C 0.76915 0.12021 0.01765 0.0
C643 C 0.81787 0.18464 1.00137 0.0
C644 C 0.73593 0.06066 0.98838 0.0
C645 C 0.67187 0.02256 0.02163 0.0
N646 N 0.78867 0.14543 0.99783 0.0
N647 N 0.70465 0.05906 0.02792 0.0
H648 H 0.87384 0.68518 0.08761 0.0
H649 H 0.96957 0.65402 0.96199 0.0
H650 H 0.80294 0.62611 0.01996 0.0
H651 H 0.02275 0.66401 0.03673 0.0
H652 H 0.91029 0.64956 0.98215 0.0
H653 H 0.93107 0.68345 0.06859 0.0
C654 C 0.87032 0.67185 0.06876 0.0
C655 C 0.83368 0.65597 0.05525 0.0
C656 C 0.93484 0.65249 0.99413 0.0
C657 C 0.89897 0.65416 0.03343 0.0
C658 C 0.96877 0.65527 0.98265 0.0
C659 C 1.00121 0.65958 0.99772 0.0
C660 C 0.93361 0.65474 0.02084 0.0
C661 C 0.99838 0.66065 0.02441 0.0
C662 C 0.90289 0.67067 0.05801 0.0
C663 C 0.83064 0.63866 0.03103 0.0
N664 N 0.96529 0.65866 0.03514 0.0
N665 N 0.86303 0.6386 0.02076 0.0
H666 H 0.34932 0.31586 0.96996 0.0
H667 H 0.31913 0.18061 0.09163 0.0
H668 H 0.34841 0.35972 0.04602 0.0
H669 H 0.37594 0.1702 0.02342 0.0
H670 H 0.32354 0.24305 0.07466 0.0
H671 H 0.35292 0.25847 0.9885 0.0
C672 C 0.3499 0.31339 0.99058 0.0
C673 C 0.34834 0.34238 1.00652 0.0
C674 C 0.33527 0.2272 0.06354 0.0
C675 C 0.35216 0.27679 0.02776 0.0
C676 C 0.33254 0.19151 0.07309 0.0
C677 C 0.34692 0.17015 0.05877 0.0
C678 C 0.35177 0.24104 0.03932 0.0
C679 C 0.36448 0.18579 0.03504 0.0
C680 C 0.35222 0.28082 1.00111 0.0
C681 C 0.3496 0.338 0.03309 0.0
N682 N 0.36598 0.22009 0.02589 0.0
N683 N 0.35096 0.30544 0.04293 0.0
H684 H 0.9791 0.3221 0.34475 0.0
H685 H 0.87175 0.08088 0.35091 0.0
H686 H 0.93667 0.25298 0.41434 0.0
H687 H 0.84632 0.13981 0.28839 0.0
H688 H 0.91547 0.14729 0.37015 0.0
H689 H 0.94773 0.25774 0.3202 0.0
C690 C 0.96342 0.29341 0.3548 0.0
C691 C 0.95997 0.29258 0.38151 0.0
C692 C 0.90065 0.14559 0.35206 0.0
C693 C 0.92552 0.21988 0.3539 0.0
C694 C 0.87574 0.10774 0.34097 0.0
C695 C 0.85457 0.10465 0.31822 0.0
C696 C 0.90484 0.18067 0.34026 0.0
C697 C 0.86154 0.14075 0.30615 0.0
C698 C 0.94563 0.25697 0.34085 0.0
C699 C 0.9395 0.25484 0.39374 0.0
N700 N 0.88593 0.17747 0.31748 0.0
N701 N 0.9232 0.21993 0.37983 0.0
H702 H 0.88988 0.78908 0.32698 0.0
H703 H 0.66735 0.61782 0.35081 0.0
H704 H 0.84997 0.66464 0.30488 0.0
H705 H 0.69272 0.73609 0.32408 0.0
H706 H 0.73621 0.63496 0.34008 0.0
H707 H 0.81938 0.77129 0.33214 0.0
C708 C 0.86627 0.75806 0.3232 0.0
C709 C 0.87566 0.72823 0.31555 0.0
C710 C 0.72648 0.65692 0.33637 0.0
C711 C 0.79548 0.70772 0.32182 0.0
C712 C 0.68739 0.64726 0.34254 0.0
C713 C 0.67445 0.67555 0.33819 0.0
C714 C 0.75306 0.69556 0.32654 0.0
C715 C 0.70152 0.71333 0.32748 0.0
C716 C 0.82619 0.74805 0.326 0.0
C717 C 0.84396 0.68855 0.31073 0.0
N718 N 0.73984 0.72253 0.32236 0.0
N719 N 0.80523 0.67926 0.31431 0.0
H720 H 0.32608 0.18106 0.28865 0.0
H721 H 0.29878 0.98251 0.3598 0.0
H722 H 0.21919 0.10044 0.33059 0.0
H723 H 0.41194 0.09505 0.35591 0.0
H724 H 0.26671 0.01441 0.33532 0.0
H725 H 0.35451 0.1376 0.29966 0.0
C726 C 0.30828 0.15386 0.29979 0.0
C727 C 0.27051 0.14471 0.30916 0.0
C728 C 0.29871 0.03168 0.33943 0.0
C729 C 0.30265 0.09486 0.32137 0.0
C730 C 0.31701 0.01355 0.35321 0.0
C731 C 0.35787 0.03651 0.36004 0.0
C732 C 0.32176 0.07256 0.33205 0.0
C733 C 0.38022 0.07662 0.35124 0.0
C734 C 0.32457 0.1292 0.30605 0.0
C735 C 0.24872 0.10896 0.32339 0.0
N736 N 0.36182 0.09349 0.33775 0.0
N737 N 0.26524 0.08539 0.32923 0.0
H738 H 0.47599 0.54241 0.31207 0.0
H739 H 0.30657 0.33317 0.36813 0.0
H740 H 0.47656 0.51627 0.39239 0.0
H741 H 0.35112 0.3481 0.29101 0.0
H742 H 0.36245 0.40188 0.37856 0.0
H743 H 0.42249 0.4726 0.30485 0.0
C744 C 0.46479 0.52192 0.3282 0.0
C745 C 0.4807 0.53501 0.35283 0.0
C746 C 0.35984 0.38964 0.35947 0.0
C747 C 0.4193 0.45513 0.34473 0.0
C748 C 0.32802 0.35065 0.35349 0.0
C749 C 0.32393 0.3349 0.32862 0.0
C750 C 0.387 0.41285 0.34031 0.0
C751 C 0.3527 0.35881 0.31041 0.0
C752 C 0.4344 0.48205 0.32406 0.0
C753 C 0.46519 0.50712 0.37305 0.0
N754 N 0.3827 0.39658 0.31657 0.0
N755 N 0.43497 0.46834 0.3686 0.0
H756 H 0.67873 0.04364 0.3148 0.0
H757 H 0.46543 0.92017 0.38028 0.0
H758 H 0.64077 0.92585 0.34825 0.0
H759 H 0.53659 0.05148 0.3822 0.0
H760 H 0.52313 0.91761 0.36196 0.0
H761 H 0.61979 0.04283 0.33264 0.0
C762 C 0.6579 0.01752 0.32587 0.0
C763 C 0.66474 0.98485 0.3302 0.0
C764 C 0.52589 0.94686 0.36646 0.0
C765 C 0.59698 0.98361 0.35041 0.0
C766 C 0.49304 0.94837 0.37671 0.0
C767 C 0.49634 0.9861 0.38277 0.0
C768 C 0.56169 0.98334 0.36174 0.0
C769 C 0.53282 0.02174 0.37796 0.0
C770 C 0.62438 0.01718 0.33611 0.0
C771 C 0.63676 0.95183 0.34473 0.0
N772 N 0.56393 0.01949 0.36756 0.0
N773 N 0.60381 0.95189 0.35423 0.0
H774 H 0.99963 0.63453 0.30762 0.0
H775 H 0.97218 0.49809 0.42967 0.0
H776 H 0.99482 0.67481 0.3841 0.0
H777 H 0.02144 0.48548 0.35862 0.0
H778 H 0.97212 0.55838 0.41254 0.0
H779 H 0.99991 0.57516 0.32539 0.0
C780 C 0.99862 0.63087 0.32819 0.0
C781 C 0.9971 0.6596 0.34443 0.0
C782 C 0.98288 0.54231 0.40075 0.0
C783 C 0.99718 0.5915 0.36485 0.0
C784 C 0.98258 0.50777 0.41038 0.0
C785 C 0.99662 0.48668 0.39544 0.0
C786 C 0.99676 0.55539 0.37591 0.0
C787 C 0.01038 0.50086 0.37077 0.0
C788 C 0.99893 0.59704 0.3383 0.0
C789 C 0.99615 0.65344 0.37093 0.0
N790 N 0.0099 0.53423 0.36172 0.0
N791 N 0.9959 0.6198 0.38035 0.0
H792 H 0.51353 0.47457 0.61675 0.0
H793 H 0.61556 0.58805 0.74319 0.0
H794 H 0.54819 0.41852 0.67636 0.0
H795 H 0.645 0.65609 0.67293 0.0
H796 H 0.58723 0.5249 0.71849 0.0
H797 H 0.55966 0.54155 0.63555 0.0
C798 C 0.53126 0.47629 0.63347 0.0
C799 C 0.52623 0.44074 0.64534 0.0
C800 C 0.60027 0.55363 0.70843 0.0
C801 C 0.57838 0.51685 0.66685 0.0
C802 C 0.61608 0.58957 0.7225 0.0
C803 C 0.63219 0.62704 0.70998 0.0
C804 C 0.59958 0.55511 0.68165 0.0
C805 C 0.63268 0.62757 0.68317 0.0
C806 C 0.55761 0.5145 0.64409 0.0
C807 C 0.55037 0.44491 0.66679 0.0
N808 N 0.61581 0.59189 0.66976 0.0
N809 N 0.57478 0.4822 0.67714 0.0
H810 H 0.52434 0.04262 0.61579 0.0
H811 H 0.36122 0.01284 0.71924 0.0
H812 H 0.55482 0.08568 0.69377 0.0
H813 H 0.33929 0.01558 0.6383 0.0
H814 H 0.43057 0.0313 0.71025 0.0
H815 H 0.45452 0.02492 0.62367 0.0
C816 C 0.5164 0.0484 0.63453 0.0
C817 C 0.54549 0.06568 0.65416 0.0
C818 C 0.41059 0.0279 0.69446 0.0
C819 C 0.46582 0.04512 0.66329 0.0
C820 C 0.37091 0.01712 0.69955 0.0
C821 C 0.34436 0.01261 0.67948 0.0
C822 C 0.4238 0.0337 0.6691 0.0
C823 C 0.35877 0.01887 0.65435 0.0
C824 C 0.47664 0.03842 0.63896 0.0
C825 C 0.53352 0.07263 0.67804 0.0
N826 N 0.39753 0.02889 0.64984 0.0
N827 N 0.49456 0.06204 0.68197 0.0
H828 H 0.96666 0.31664 0.69126 0.0
H829 H 0.9941 0.51424 0.61883 0.0
H830 H 0.07944 0.42959 0.68755 0.0
H831 H 0.88711 0.43452 0.66098 0.0
H832 H 0.02213 0.47055 0.63005 0.0
H833 H 0.93452 0.34801 0.66626 0.0
C834 C 0.98479 0.34767 0.68462 0.0
C835 C 0.02556 0.37089 0.69162 0.0
C836 C 0.99223 0.46236 0.63641 0.0
C837 C 0.98942 0.40629 0.663 0.0
C838 C 0.97614 0.48714 0.63001 0.0
C839 C 0.93852 0.47839 0.63943 0.0
C840 C 0.97026 0.4283 0.65193 0.0
C841 C 0.91654 0.44275 0.65373 0.0
C842 C 0.96646 0.36548 0.67053 0.0
C843 C 0.0478 0.41095 0.68274 0.0
N844 N 0.9329 0.41908 0.65974 0.0
N845 N 0.02939 0.4275 0.66893 0.0
H846 H 0.1435 0.8523 0.73043 0.0
H847 H 0.03539 0.6687 0.63174 0.0
H848 H 0.15774 0.86444 0.6486 0.0
H849 H 0.97389 0.67187 0.69977 0.0
H850 H 0.09213 0.7343 0.64349 0.0
H851 H 0.09167 0.78027 0.72434 0.0
C852 C 0.13604 0.83963 0.71126 0.0
C853 C 0.15462 0.86411 0.68991 0.0
C854 C 0.06632 0.72053 0.65593 0.0
C855 C 0.09652 0.78262 0.68303 0.0
C856 C 0.03379 0.68305 0.64928 0.0
C857 C 0.99931 0.66512 0.66452 0.0
C858 C 0.06472 0.74039 0.67805 0.0
C859 C 0.99967 0.68489 0.68734 0.0
C860 C 0.10647 0.79884 0.70785 0.0
C861 C 0.14387 0.8466 0.66549 0.0
N862 N 0.0319 0.72191 0.69336 0.0
N863 N 0.11561 0.80683 0.66273 0.0
H864 H 0.13557 0.25749 0.71182 0.0
H865 H 0.35004 0.38327 0.6482 0.0
H866 H 0.2056 0.38883 0.71489 0.0
H867 H 0.31128 0.2646 0.68051 0.0
H868 H 0.29104 0.38234 0.66618 0.0
H869 H 0.19404 0.256 0.69396 0.0
C870 C 0.16311 0.28593 0.7086 0.0
C871 C 0.16585 0.32334 0.71484 0.0
C872 C 0.29552 0.35656 0.6694 0.0
C873 C 0.23212 0.32181 0.69435 0.0
C874 C 0.32906 0.357 0.6591 0.0
C875 C 0.33561 0.32406 0.66304 0.0
C876 C 0.26782 0.32261 0.68331 0.0
C877 C 0.30748 0.29079 0.67732 0.0
C878 C 0.19639 0.28503 0.69862 0.0
C879 C 0.20226 0.35932 0.71048 0.0
N880 N 0.27449 0.29073 0.68682 0.0
N881 N 0.23385 0.35767 0.70034 0.0
H882 H 0.59898 0.7934 0.72454 0.0
H883 H 0.72265 0.03086 0.69784 0.0
H884 H 0.72858 0.85788 0.72025 0.0
H885 H 0.6079 0.95293 0.66114 0.0
H886 H 0.72243 0.96996 0.71454 0.0
H887 H 0.59879 0.85457 0.70905 0.0
C888 C 0.62732 0.8204 0.72029 0.0
C889 C 0.66382 0.82062 0.7234 0.0
C890 C 0.69734 0.96641 0.70287 0.0
C891 C 0.66383 0.89045 0.70642 0.0
C892 C 0.69733 0.00098 0.69353 0.0
C893 C 0.66531 0.99671 0.67809 0.0
C894 C 0.66468 0.92764 0.69719 0.0
C895 C 0.63328 0.9574 0.67284 0.0
C896 C 0.62718 0.85512 0.71147 0.0
C897 C 0.69977 0.85638 0.71775 0.0
N898 N 0.63363 0.92431 0.68253 0.0
N899 N 0.69893 0.89008 0.70971 0.0
loop_
_geom_bond_atom_site_label_1
_geom_bond_atom_site_label_2
_geom_bond_distance
_geom_bond_site_symmetry_2
_ccdc_geom_bond_type
Co0 O1 2.216 . S
Co0 O2 2.091 . S
Co0 O4 2.004 . S
Co0 O10 2.021 . S
Co0 O12 2.137 . S
Co0 O13 2.244 . S
O1 Co0 2.216 . S
O1 C8 1.247 . S
O2 Co0 2.091 . S
O2 C8 1.261 . S
C3 O12 1.247 . S
C3 O13 1.272 . S
O4 Co0 2.004 . S
O4 C9 1.259 . S
Co5 O6 2.061 . S
Co5 O11 2.052 1_545 S
Co5 O13 2.135 . S
O6 Co5 2.061 . S
O6 C9 1.235 . S
C7 O10 1.238 1_565 S
C7 O11 1.241 . S
C8 O1 1.247 . S
C8 O2 1.261 . S
C9 O4 1.259 . S
C9 O6 1.235 . S
O10 Co0 2.021 . S
O10 C7 1.238 1_545 S
O11 Co5 2.052 1_565 S
O11 C7 1.241 . S
O12 Co0 2.137 . S
O12 C3 1.247 . S
O13 Co0 2.244 . S
O13 C3 1.272 . S
O13 Co5 2.135 . S
Co14 O15 2.216 . S
Co14 O16 2.091 . S
Co14 O18 2.004 1_655 S
Co14 O24 2.021 . S
Co14 O26 2.137 . S
Co14 O27 2.244 . S
O15 Co14 2.216 . S
O15 C22 1.247 . S
O16 Co14 2.091 . S
O16 C22 1.261 . S
C17 O26 1.247 . S
C17 O27 1.272 . S
O18 Co14 2.004 1_455 S
O18 C23 1.259 . S
Co19 O20 2.061 1_656 S
Co19 O25 2.052 1_556 S
Co19 O27 2.135 1_556 S
O20 Co19 2.061 1_454 S
O20 C23 1.235 . S
C21 O24 1.238 . S
C21 O25 1.241 . S
C22 O15 1.247 . S
C22 O16 1.261 . S
C23 O18 1.259 . S
C23 O20 1.235 . S
O24 Co14 2.021 . S
O24 C21 1.238 . S
O25 Co19 2.052 1_554 S
O25 C21 1.241 . S
O26 Co14 2.137 . S
O26 C17 1.247 . S
O27 Co14 2.244 . S
O27 C17 1.272 . S
O27 Co19 2.135 1_554 S
Co28 O29 2.216 . S
Co28 O30 2.091 . S
Co28 O32 2.004 . S
Co28 O38 2.021 . S
Co28 O40 2.137 . S
Co28 O41 2.244 . S
O29 Co28 2.216 . S
O29 C36 1.247 . S
O30 Co28 2.091 . S
O30 C36 1.261 . S
C31 O40 1.247 . S
C31 O41 1.272 . S
O32 Co28 2.004 . S
O32 C37 1.259 . S
Co33 O34 2.061 . S
Co33 O39 2.052 . S
Co33 O41 2.135 . S
O34 Co33 2.061 . S
O34 C37 1.235 . S
C35 O38 1.238 . S
C35 O39 1.241 . S
C36 O29 1.247 . S
C36 O30 1.261 . S
C37 O32 1.259 . S
C37 O34 1.235 . S
O38 Co28 2.021 . S
O38 C35 1.238 . S
O39 Co33 2.052 . S
O39 C35 1.241 . S
O40 Co28 2.137 . S
O40 C31 1.247 . S
O41 Co28 2.244 . S
O41 C31 1.272 . S
O41 Co33 2.135 . S
Co42 O43 2.216 . S
Co42 O44 2.091 . S
Co42 O46 2.004 1_565 S
Co42 O52 2.021 . S
Co42 O54 2.137 . S
Co42 O55 2.244 . S
O43 Co42 2.216 . S
O43 C50 1.247 . S
O44 Co42 2.091 . S
O44 C50 1.261 . S
C45 O54 1.247 . S
C45 O55 1.272 . S
O46 Co42 2.004 1_545 S
O46 C51 1.259 . S
Co47 O48 2.051 1_564 S
Co47 O53 2.044 1_554 S
Co47 O55 2.108 1_554 S
O48 Co47 2.051 1_546 S
O48 C51 1.235 . S
C49 O52 1.238 . S
C49 O53 1.241 . S
C50 O43 1.247 . S
C50 O44 1.261 . S
C51 O46 1.259 . S
C51 O48 1.235 . S
O52 Co42 2.021 . S
O52 C49 1.238 . S
O53 Co47 2.044 1_556 S
O53 C49 1.241 . S
O54 Co42 2.137 . S
O54 C45 1.247 . S
O55 Co42 2.244 . S
O55 C45 1.272 . S
O55 Co47 2.108 1_556 S
Co56 O57 2.216 . S
Co56 O58 2.091 . S
Co56 O60 2.004 1_455 S
Co56 O66 2.021 . S
Co56 O68 2.137 . S
Co56 O69 2.244 . S
O57 Co56 2.216 . S
O57 C64 1.247 . S
O58 Co56 2.091 . S
O58 C64 1.261 . S
C59 O68 1.247 . S
C59 O69 1.272 . S
O60 Co56 2.004 1_655 S
O60 C65 1.259 . S
Co61 O62 2.061 1_454 S
Co61 O67 2.052 1_554 S
Co61 O69 2.135 1_554 S
O62 Co61 2.061 1_656 S
O62 C65 1.235 . S
C63 O66 1.238 . S
C63 O67 1.241 . S
C64 O57 1.247 . S
C64 O58 1.261 . S
C65 O60 1.259 . S
C65 O62 1.235 . S
O66 Co56 2.021 . S
O66 C63 1.238 . S
O67 Co61 2.052 1_556 S
O67 C63 1.241 . S
O68 Co56 2.137 . S
O68 C59 1.247 . S
O69 Co56 2.244 . S
O69 C59 1.272 . S
O69 Co61 2.135 1_556 S
Co70 O71 2.216 . S
Co70 O72 2.091 . S
Co70 O74 2.004 . S
Co70 O80 2.021 . S
Co70 O82 2.137 . S
Co70 O83 2.244 . S
O71 Co70 2.216 . S
O71 C78 1.247 . S
O72 Co70 2.091 . S
O72 C78 1.261 . S
C73 O82 1.247 . S
C73 O83 1.272 . S
O74 Co70 2.004 . S
O74 C79 1.259 . S
Co75 O76 2.061 1_554 S
Co75 O81 2.052 1_554 S
Co75 O83 2.135 1_554 S
O76 Co75 2.061 1_556 S
O76 C79 1.235 . S
C77 O80 1.238 . S
C77 O81 1.241 . S
C78 O71 1.247 . S
C78 O72 1.261 . S
C79 O74 1.259 . S
C79 O76 1.235 . S
O80 Co70 2.021 . S
O80 C77 1.238 . S
O81 Co75 2.052 1_556 S
O81 C77 1.241 . S
O82 Co70 2.137 . S
O82 C73 1.247 . S
O83 Co70 2.244 . S
O83 C73 1.272 . S
O83 Co75 2.135 1_556 S
Co84 O85 2.216 . S
Co84 O86 2.091 . S
Co84 O88 2.004 . S
Co84 O94 2.021 1_455 S
Co84 O96 2.137 . S
Co84 O97 2.244 1_455 S
O85 Co84 2.216 . S
O85 C92 1.247 . S
O86 Co84 2.091 . S
O86 C92 1.261 . S
C87 O96 1.247 . S
C87 O97 1.272 1_455 S
O88 Co84 2.004 . S
O88 C93 1.259 1_455 S
Co89 O90 2.061 . S
Co89 O95 2.052 . S
Co89 O97 2.135 . S
O90 Co89 2.061 . S
O90 C93 1.235 . S
C91 O94 1.238 . S
C91 O95 1.241 . S
C92 O85 1.247 . S
C92 O86 1.261 . S
C93 O88 1.259 1_655 S
C93 O90 1.235 . S
O94 Co84 2.021 1_655 S
O94 C91 1.238 . S
O95 Co89 2.052 . S
O95 C91 1.241 . S
O96 Co84 2.137 . S
O96 C87 1.247 . S
O97 Co84 2.244 1_655 S
O97 C87 1.272 1_655 S
O97 Co89 2.135 . S
Co98 O99 2.216 . S
Co98 O100 2.091 . S
Co98 O102 2.004 . S
Co98 O108 2.021 . S
Co98 O110 2.137 . S
Co98 O111 2.244 . S
O99 Co98 2.216 . S
O99 C106 1.247 . S
O100 Co98 2.091 . S
O100 C106 1.261 . S
C101 O110 1.247 . S
C101 O111 1.272 . S
O102 Co98 2.004 . S
O102 C107 1.259 . S
Co103 O104 2.061 . S
Co103 O109 2.052 . S
Co103 O111 2.135 . S
O104 Co103 2.061 . S
O104 C107 1.235 . S
C105 O108 1.238 . S
C105 O109 1.241 . S
C106 O99 1.247 . S
C106 O100 1.261 . S
C107 O102 1.259 . S
C107 O104 1.235 . S
O108 Co98 2.021 . S
O108 C105 1.238 . S
O109 Co103 2.052 . S
O109 C105 1.241 . S
O110 Co98 2.137 . S
O110 C101 1.247 . S
O111 Co98 2.244 . S
O111 C101 1.272 . S
O111 Co103 2.135 . S
Co112 O113 2.216 . S
Co112 O114 2.091 . S
Co112 O116 2.004 . S
Co112 O122 2.021 1_565 S
Co112 O124 2.137 . S
Co112 O125 2.244 1_565 S
O113 Co112 2.216 . S
O113 C120 1.247 . S
O114 Co112 2.091 . S
O114 C120 1.261 . S
C115 O124 1.247 . S
C115 O125 1.272 1_565 S
O116 Co112 2.004 . S
O116 C121 1.259 1_565 S
Co117 O118 2.061 . S
Co117 O123 2.052 . S
Co117 O125 2.135 . S
O118 Co117 2.061 . S
O118 C121 1.235 . S
C119 O122 1.238 . S
C119 O123 1.241 . S
C120 O113 1.247 . S
C120 O114 1.261 . S
C121 O116 1.259 1_545 S
C121 O118 1.235 . S
O122 Co112 2.021 1_545 S
O122 C119 1.238 . S
O123 Co117 2.052 . S
O123 C119 1.241 . S
O124 Co112 2.137 . S
O124 C115 1.247 . S
O125 Co112 2.244 1_545 S
O125 C115 1.272 1_545 S
O125 Co117 2.135 . S
Co126 O127 2.216 . S
Co126 O128 2.091 . S
Co126 O130 2.004 . S
Co126 O136 2.021 . S
Co126 O138 2.137 . S
Co126 O139 2.244 . S
O127 Co126 2.216 . S
O127 C134 1.247 . S
O128 Co126 2.091 . S
O128 C134 1.261 . S
C129 O138 1.247 . S
C129 O139 1.272 . S
O130 Co126 2.004 . S
O130 C135 1.259 . S
Co131 O132 2.061 . S
Co131 O137 2.052 . S
Co131 O139 2.135 . S
O132 Co131 2.061 . S
O132 C135 1.235 . S
C133 O136 1.238 . S
C133 O137 1.241 . S
C134 O127 1.247 . S
C134 O128 1.261 . S
C135 O130 1.259 . S
C135 O132 1.235 . S
O136 Co126 2.021 . S
O136 C133 1.238 . S
O137 Co131 2.052 . S
O137 C133 1.241 . S
O138 Co126 2.137 . S
O138 C129 1.247 . S
O139 Co126 2.244 . S
O139 C129 1.272 . S
O139 Co131 2.135 . S
Co140 O141 2.216 . S
Co140 O142 2.091 . S
Co140 O144 2.004 . S
Co140 O150 2.021 . S
Co140 O152 2.137 1_545 S
Co140 O153 2.244 . S
O141 Co140 2.216 . S
O141 C148 1.247 . S
O142 Co140 2.091 . S
O142 C148 1.261 . S
C143 O152 1.247 . S
C143 O153 1.272 1_565 S
O144 Co140 2.004 . S
O144 C149 1.259 . S
Co145 O146 2.061 . S
Co145 O151 2.052 . S
Co145 O153 2.135 . S
O146 Co145 2.061 . S
O146 C149 1.235 . S
C147 O150 1.238 . S
C147 O151 1.241 . S
C148 O141 1.247 . S
C148 O142 1.261 . S
C149 O144 1.259 . S
C149 O146 1.235 . S
O150 Co140 2.021 . S
O150 C147 1.238 . S
O151 Co145 2.052 . S
O151 C147 1.241 . S
O152 Co140 2.137 1_565 S
O152 C143 1.247 . S
O153 Co140 2.244 . S
O153 C143 1.272 1_545 S
O153 Co145 2.135 . S
Co154 O155 2.216 . S
Co154 O156 2.091 . S
Co154 O158 2.004 . S
Co154 O164 2.021 . S
Co154 O166 2.137 1_655 S
Co154 O167 2.244 . S
O155 Co154 2.216 . S
O155 C162 1.247 . S
O156 Co154 2.091 . S
O156 C162 1.261 . S
C157 O166 1.247 . S
C157 O167 1.272 1_455 S
O158 Co154 2.004 . S
O158 C163 1.259 . S
Co159 O160 2.061 . S
Co159 O165 2.052 . S
Co159 O167 2.135 . S
O160 Co159 2.061 . S
O160 C163 1.235 . S
C161 O164 1.238 . S
C161 O165 1.241 . S
C162 O155 1.247 . S
C162 O156 1.261 . S
C163 O158 1.259 . S
C163 O160 1.235 . S
O164 Co154 2.021 . S
O164 C161 1.238 . S
O165 Co159 2.052 . S
O165 C161 1.241 . S
O166 Co154 2.137 1_455 S
O166 C157 1.247 . S
O167 Co154 2.244 . S
O167 C157 1.272 1_655 S
O167 Co159 2.135 . S
Co168 O169 2.216 . S
Co168 O170 2.091 . S
Co168 O172 2.004 . S
Co168 O178 2.021 . S
Co168 O180 2.137 . S
Co168 O181 2.244 . S
O169 Co168 2.216 . S
O169 C176 1.247 . S
O170 Co168 2.091 . S
O170 C176 1.261 . S
C171 O180 1.247 . S
C171 O181 1.272 . S
O172 Co168 2.004 . S
O172 C177 1.259 . S
Co173 O174 2.061 . S
Co173 O179 2.052 . S
Co173 O181 2.135 . S
O174 Co173 2.061 . S
O174 C177 1.235 . S
C175 O178 1.238 . S
C175 O179 1.241 . S
C176 O169 1.247 . S
C176 O170 1.261 . S
C177 O172 1.259 . S
C177 O174 1.235 . S
O178 Co168 2.021 . S
O178 C175 1.238 . S
O179 Co173 2.052 . S
O179 C175 1.241 . S
O180 Co168 2.137 . S
O180 C171 1.247 . S
O181 Co168 2.244 . S
O181 C171 1.272 . S
O181 Co173 2.135 . S
Co182 O183 2.216 . S
Co182 O184 2.091 . S
Co182 O186 2.004 . S
Co182 O192 2.021 . S
Co182 O194 2.137 1_565 S
Co182 O195 2.244 . S
O183 Co182 2.216 . S
O183 C190 1.247 . S
O184 Co182 2.091 . S
O184 C190 1.261 . S
C185 O194 1.247 . S
C185 O195 1.272 1_545 S
O186 Co182 2.004 . S
O186 C191 1.259 . S
Co187 O188 2.061 . S
Co187 O193 2.052 . S
Co187 O195 2.135 . S
O188 Co187 2.061 . S
O188 C191 1.235 . S
C189 O192 1.238 . S
C189 O193 1.241 . S
C190 O183 1.247 . S
C190 O184 1.261 . S
C191 O186 1.259 . S
C191 O188 1.235 . S
O192 Co182 2.021 . S
O192 C189 1.238 . S
O193 Co187 2.052 . S
O193 C189 1.241 . S
O194 Co182 2.137 1_545 S
O194 C185 1.247 . S
O195 Co182 2.244 . S
O195 C185 1.272 1_565 S
O195 Co187 2.135 . S
Co196 O197 2.216 1_455 S
Co196 O198 2.091 1_455 S
Co196 O200 2.004 . S
Co196 O206 2.021 . S
Co196 O208 2.137 . S
Co196 O209 2.244 . S
O197 Co196 2.216 1_655 S
O197 C204 1.247 . S
O198 Co196 2.091 1_655 S
O198 C204 1.261 . S
C199 O208 1.247 . S
C199 O209 1.272 . S
O200 Co196 2.004 . S
O200 C205 1.259 . S
Co201 O202 2.061 . S
Co201 O207 2.052 . S
Co201 O209 2.135 . S
O202 Co201 2.061 . S
O202 C205 1.235 . S
C203 O206 1.238 . S
C203 O207 1.241 . S
C204 O197 1.247 . S
C204 O198 1.261 . S
C205 O200 1.259 . S
C205 O202 1.235 . S
O206 Co196 2.021 . S
O206 C203 1.238 . S
O207 Co201 2.052 . S
O207 C203 1.241 . S
O208 Co196 2.137 . S
O208 C199 1.247 . S
O209 Co196 2.244 . S
O209 C199 1.272 . S
O209 Co201 2.135 . S
Co210 O211 2.211 1_455 S
Co210 O212 2.098 . S
Co210 O214 2.013 . S
Co210 O220 2.036 . S
Co210 O222 2.118 1_455 S
Co210 O223 2.228 1_455 S
O211 Co210 2.211 1_655 S
O211 C218 1.247 . S
O212 Co210 2.098 . S
O212 C218 1.261 1_455 S
C213 O222 1.247 . S
C213 O223 1.272 . S
O214 Co210 2.013 . S
O214 C219 1.259 . S
Co215 O216 2.061 1_655 S
Co215 O221 2.052 . S
Co215 O223 2.135 . S
O216 Co215 2.061 1_455 S
O216 C219 1.235 . S
C217 O220 1.238 . S
C217 O221 1.241 1_455 S
C218 O211 1.247 . S
C218 O212 1.261 1_655 S
C219 O214 1.259 . S
C219 O216 1.235 . S
O220 Co210 2.036 . S
O220 C217 1.238 . S
O221 Co215 2.052 . S
O221 C217 1.241 1_655 S
O222 Co210 2.118 1_655 S
O222 C213 1.247 . S
O223 Co210 2.228 1_655 S
O223 C213 1.272 . S
O223 Co215 2.135 . S
Co224 O225 2.216 . S
Co224 O226 2.091 . S
Co224 O228 2.004 . S
Co224 O234 2.021 . S
Co224 O236 2.137 . S
Co224 O237 2.244 . S
O225 Co224 2.216 . S
O225 C232 1.247 . S
O226 Co224 2.091 . S
O226 C232 1.261 . S
C227 O236 1.247 . S
C227 O237 1.272 . S
O228 Co224 2.004 . S
O228 C233 1.259 . S
Co229 O230 2.061 . S
Co229 O235 2.052 . S
Co229 O237 2.135 . S
O230 Co229 2.061 . S
O230 C233 1.235 . S
C231 O234 1.238 . S
C231 O235 1.241 . S
C232 O225 1.247 . S
C232 O226 1.261 . S
C233 O228 1.259 . S
C233 O230 1.235 . S
O234 Co224 2.021 . S
O234 C231 1.238 . S
O235 Co229 2.052 . S
O235 C231 1.241 . S
O236 Co224 2.137 . S
O236 C227 1.247 . S
O237 Co224 2.244 . S
O237 C227 1.272 . S
O237 Co229 2.135 . S
Co238 O239 2.197 1_565 S
Co238 O240 2.094 . S
Co238 O242 2.027 . S
Co238 O248 2.018 . S
Co238 O250 2.134 1_565 S
Co238 O251 2.234 1_565 S
O239 Co238 2.197 1_545 S
O239 C246 1.247 . S
O240 Co238 2.094 . S
O240 C246 1.261 1_565 S
C241 O250 1.247 . S
C241 O251 1.272 . S
O242 Co238 2.027 . S
O242 C247 1.259 . S
Co243 O244 2.061 1_545 S
Co243 O249 2.052 . S
Co243 O251 2.135 . S
O244 Co243 2.061 1_565 S
O244 C247 1.235 . S
C245 O248 1.238 . S
C245 O249 1.241 1_565 S
C246 O239 1.247 . S
C246 O240 1.261 1_545 S
C247 O242 1.259 . S
C247 O244 1.235 . S
O248 Co238 2.018 . S
O248 C245 1.238 . S
O249 Co243 2.052 . S
O249 C245 1.241 1_545 S
O250 Co238 2.134 1_545 S
O250 C241 1.247 . S
O251 Co238 2.234 1_545 S
O251 C241 1.272 . S
O251 Co243 2.135 . S
H252 C258 0.930 . S
H253 C262 0.930 . S
H254 C267 0.929 1_556 S
H255 C265 0.929 1_545 S
H256 C260 0.929 . S
H257 C266 0.929 . S
C258 H252 0.930 . S
C258 C259 1.367 . S
C258 C266 1.378 . S
C259 C258 1.367 . S
C259 C267 1.433 1_545 S
C260 H256 0.929 . S
C260 C262 1.378 . S
C260 C264 1.350 . S
C261 C264 1.453 1_544 S
C261 C266 1.357 . S
C261 N269 1.430 1_544 S
C262 H253 0.930 . S
C262 C260 1.378 . S
C262 C263 1.367 . S
C263 C262 1.367 . S
C263 C265 1.433 . S
C264 C260 1.350 . S
C264 C261 1.453 1_566 S
C264 N268 1.409 1_566 S
C265 H255 0.929 1_565 S
C265 C263 1.433 . S
C265 N268 1.361 1_566 S
C266 H257 0.929 . S
C266 C258 1.378 . S
C266 C261 1.357 . S
C267 H254 0.929 1_554 S
C267 C259 1.433 1_565 S
C267 N269 1.384 1_554 S
N268 C264 1.409 1_544 S
N268 C265 1.361 1_544 S
N269 C261 1.430 1_566 S
N269 C267 1.384 1_556 S
H270 C276 0.930 1_556 S
H271 C280 0.930 1_554 S
H272 C285 0.929 . S
H273 C283 0.929 . S
H274 C278 0.929 . S
H275 C284 0.929 . S
C276 H270 0.930 1_554 S
C276 C277 1.367 . S
C276 C284 1.378 1_554 S
C277 C276 1.367 . S
C277 C285 1.433 . S
C278 H274 0.929 . S
C278 C280 1.378 1_554 S
C278 C282 1.350 1_554 S
C279 C282 1.463 1_654 S
C279 C284 1.350 1_554 S
C279 N287 1.427 . S
C280 H271 0.930 1_556 S
C280 C278 1.378 1_556 S
C280 C281 1.367 . S
C281 C280 1.367 . S
C281 C283 1.433 . S
C282 C278 1.350 1_556 S
C282 C279 1.463 1_456 S
C282 N286 1.427 . S
C283 H273 0.929 . S
C283 C281 1.433 . S
C283 N286 1.384 . S
C284 H275 0.929 . S
C284 C276 1.378 1_556 S
C284 C279 1.350 1_556 S
C285 H272 0.929 . S
C285 C277 1.433 . S
C285 N287 1.384 . S
N286 C282 1.427 . S
N286 C283 1.384 . S
N287 C279 1.427 . S
N287 C285 1.384 . S
H288 C294 0.930 . S
H289 C298 0.930 . S
H290 C303 0.929 . S
H291 C301 0.929 . S
H292 C296 0.929 . S
H293 C302 0.929 1_554 S
C294 H288 0.930 . S
C294 C295 1.367 . S
C294 C302 1.378 . S
C295 C294 1.367 . S
C295 C303 1.433 . S
C296 H292 0.929 . S
C296 C298 1.378 1_556 S
C296 C300 1.350 1_556 S
C297 C300 1.463 1_556 S
C297 C302 1.350 . S
C297 N305 1.427 . S
C298 H289 0.930 . S
C298 C296 1.378 1_554 S
C298 C299 1.367 . S
C299 C298 1.367 . S
C299 C301 1.433 . S
C300 C296 1.350 1_554 S
C300 C297 1.463 1_554 S
C300 N304 1.427 . S
C301 H291 0.929 . S
C301 C299 1.433 . S
C301 N304 1.384 . S
C302 H293 0.929 1_556 S
C302 C294 1.378 . S
C302 C297 1.350 . S
C303 H290 0.929 . S
C303 C295 1.433 . S
C303 N305 1.384 . S
N304 C300 1.427 . S
N304 C301 1.384 . S
N305 C297 1.427 . S
N305 C303 1.384 . S
H306 C312 0.930 . S
H307 C316 0.930 . S
H308 C321 0.929 . S
H309 C319 0.929 . S
H310 C314 0.929 . S
H311 C320 0.929 . S
C312 H306 0.930 . S
C312 C313 1.367 . S
C312 C320 1.378 . S
C313 C312 1.367 . S
C313 C321 1.433 . S
C314 H310 0.929 . S
C314 C316 1.378 . S
C314 C318 1.350 . S
C315 C318 1.463 . S
C315 C320 1.350 . S
C315 N323 1.427 . S
C316 H307 0.930 . S
C316 C314 1.378 . S
C316 C317 1.367 . S
C317 C316 1.367 . S
C317 C319 1.433 . S
C318 C314 1.350 . S
C318 C315 1.463 . S
C318 N322 1.427 . S
C319 H309 0.929 . S
C319 C317 1.433 . S
C319 N322 1.384 . S
C320 H311 0.929 . S
C320 C312 1.378 . S
C320 C315 1.350 . S
C321 H308 0.929 . S
C321 C313 1.433 . S
C321 N323 1.384 . S
N322 C318 1.427 . S
N322 C319 1.384 . S
N323 C315 1.427 . S
N323 C321 1.384 . S
H324 C330 0.930 . S
H325 C334 0.930 . S
H326 C339 0.929 . S
H327 C337 0.929 . S
H328 C332 0.929 . S
H329 C338 0.929 . S
C330 H324 0.930 . S
C330 C331 1.367 . S
C330 C338 1.378 . S
C331 C330 1.367 . S
C331 C339 1.433 . S
C332 H328 0.929 . S
C332 C334 1.378 . S
C332 C336 1.350 . S
C333 C336 1.463 . S
C333 C338 1.350 . S
C333 N341 1.427 . S
C334 H325 0.930 . S
C334 C332 1.378 . S
C334 C335 1.367 . S
C335 C334 1.367 . S
C335 C337 1.433 . S
C336 C332 1.350 . S
C336 C333 1.463 . S
C336 N340 1.427 . S
C337 H327 0.929 . S
C337 C335 1.433 . S
C337 N340 1.384 . S
C338 H329 0.929 . S
C338 C330 1.378 . S
C338 C333 1.350 . S
C339 H326 0.929 . S
C339 C331 1.433 . S
C339 N341 1.384 . S
N340 C336 1.427 . S
N340 C337 1.384 . S
N341 C333 1.427 . S
N341 C339 1.384 . S
H342 C348 0.930 . S
H343 C352 0.930 . S
H344 C357 0.929 . S
H345 C355 0.929 . S
H346 C350 0.929 . S
H347 C356 0.929 . S
C348 H342 0.930 . S
C348 C349 1.367 . S
C348 C356 1.378 . S
C349 C348 1.367 . S
C349 C357 1.433 . S
C350 H346 0.929 . S
C350 C352 1.378 . S
C350 C354 1.350 . S
C351 C354 1.463 . S
C351 C356 1.350 . S
C351 N359 1.427 . S
C352 H343 0.930 . S
C352 C350 1.378 . S
C352 C353 1.367 . S
C353 C352 1.367 . S
C353 C355 1.433 . S
C354 C350 1.350 . S
C354 C351 1.463 . S
C354 N358 1.427 . S
C355 H345 0.929 . S
C355 C353 1.433 . S
C355 N358 1.384 . S
C356 H347 0.929 . S
C356 C348 1.378 . S
C356 C351 1.350 . S
C357 H344 0.929 . S
C357 C349 1.433 . S
C357 N359 1.384 . S
N358 C354 1.427 . S
N358 C355 1.384 . S
N359 C351 1.427 . S
N359 C357 1.384 . S
H360 C366 0.930 . S
H361 C370 0.930 . S
H362 C375 0.929 . S
H363 C373 0.929 . S
H364 C368 0.929 . S
H365 C374 0.929 . S
C366 H360 0.930 . S
C366 C367 1.367 . S
C366 C374 1.378 . S
C367 C366 1.367 . S
C367 C375 1.433 . S
C368 H364 0.929 . S
C368 C370 1.378 . S
C368 C372 1.350 . S
C369 C372 1.463 . S
C369 C374 1.350 . S
C369 N377 1.427 . S
C370 H361 0.930 . S
C370 C368 1.378 . S
C370 C371 1.367 . S
C371 C370 1.367 . S
C371 C373 1.433 . S
C372 C368 1.350 . S
C372 C369 1.463 . S
C372 N376 1.427 . S
C373 H363 0.929 . S
C373 C371 1.433 . S
C373 N376 1.384 . S
C374 H365 0.929 . S
C374 C366 1.378 . S
C374 C369 1.350 . S
C375 H362 0.929 . S
C375 C367 1.433 . S
C375 N377 1.384 . S
N376 C372 1.427 . S
N376 C373 1.384 . S
N377 C369 1.427 . S
N377 C375 1.384 . S
H378 C384 0.930 . S
H379 C388 0.930 . S
H380 C393 0.929 . S
H381 C391 0.929 . S
H382 C386 0.929 . S
H383 C392 0.929 . S
C384 H378 0.930 . S
C384 C385 1.367 . S
C384 C392 1.378 . S
C385 C384 1.367 . S
C385 C393 1.433 . S
C386 H382 0.929 . S
C386 C388 1.378 . S
C386 C390 1.350 . S
C387 C390 1.463 . S
C387 C392 1.350 . S
C387 N395 1.427 . S
C388 H379 0.930 . S
C388 C386 1.378 . S
C388 C389 1.367 . S
C389 C388 1.367 . S
C389 C391 1.433 . S
C390 C386 1.350 . S
C390 C387 1.463 . S
C390 N394 1.427 . S
C391 H381 0.929 . S
C391 C389 1.433 . S
C391 N394 1.384 . S
C392 H383 0.929 . S
C392 C384 1.378 . S
C392 C387 1.350 . S
C393 H380 0.929 . S
C393 C385 1.433 . S
C393 N395 1.384 . S
N394 C390 1.427 . S
N394 C391 1.384 . S
N395 C387 1.427 . S
N395 C393 1.384 . S
H396 C402 0.930 . S
H397 C406 0.930 . S
H398 C411 0.929 . S
H399 C409 0.929 . S
H400 C404 0.929 . S
H401 C410 0.929 . S
C402 H396 0.930 . S
C402 C403 1.367 . S
C402 C410 1.378 . S
C403 C402 1.367 . S
C403 C411 1.433 . S
C404 H400 0.929 . S
C404 C406 1.378 . S
C404 C408 1.350 . S
C405 C408 1.463 . S
C405 C410 1.350 . S
C405 N413 1.427 . S
C406 H397 0.930 . S
C406 C404 1.378 . S
C406 C407 1.367 . S
C407 C406 1.367 . S
C407 C409 1.433 . S
C408 C404 1.350 . S
C408 C405 1.463 . S
C408 N412 1.427 . S
C409 H399 0.929 . S
C409 C407 1.433 . S
C409 N412 1.384 . S
C410 H401 0.929 . S
C410 C402 1.378 . S
C410 C405 1.350 . S
C411 H398 0.929 . S
C411 C403 1.433 . S
C411 N413 1.384 . S
N412 C408 1.427 . S
N412 C409 1.384 . S
N413 C405 1.427 . S
N413 C411 1.384 . S
H414 C420 0.930 . S
H415 C424 0.930 . S
H416 C429 0.929 . S
H417 C427 0.929 . S
H418 C422 0.929 . S
H419 C428 0.929 . S
C420 H414 0.930 . S
C420 C421 1.367 . S
C420 C428 1.378 . S
C421 C420 1.367 . S
C421 C429 1.433 . S
C422 H418 0.929 . S
C422 C424 1.378 . S
C422 C426 1.350 . S
C423 C426 1.463 . S
C423 C428 1.350 . S
C423 N431 1.427 . S
C424 H415 0.930 . S
C424 C422 1.378 . S
C424 C425 1.367 . S
C425 C424 1.367 . S
C425 C427 1.433 . S
C426 C422 1.350 . S
C426 C423 1.463 . S
C426 N430 1.427 . S
C427 H417 0.929 . S
C427 C425 1.433 . S
C427 N430 1.384 . S
C428 H419 0.929 . S
C428 C420 1.378 . S
C428 C423 1.350 . S
C429 H416 0.929 . S
C429 C421 1.433 . S
C429 N431 1.384 . S
N430 C426 1.427 . S
N430 C427 1.384 . S
N431 C423 1.427 . S
N431 C429 1.384 . S
H432 C438 0.930 . S
H433 C442 0.930 . S
H434 C447 0.929 . S
H435 C445 0.929 . S
H436 C440 0.929 . S
H437 C446 0.929 . S
C438 H432 0.930 . S
C438 C439 1.367 . S
C438 C446 1.378 . S
C439 C438 1.367 . S
C439 C447 1.433 . S
C440 H436 0.929 . S
C440 C442 1.378 . S
C440 C444 1.350 . S
C441 C444 1.463 . S
C441 C446 1.350 . S
C441 N449 1.427 . S
C442 H433 0.930 . S
C442 C440 1.378 . S
C442 C443 1.367 . S
C443 C442 1.367 . S
C443 C445 1.433 . S
C444 C440 1.350 . S
C444 C441 1.463 . S
C444 N448 1.427 . S
C445 H435 0.929 . S
C445 C443 1.433 . S
C445 N448 1.384 . S
C446 H437 0.929 . S
C446 C438 1.378 . S
C446 C441 1.350 . S
C447 H434 0.929 . S
C447 C439 1.433 . S
C447 N449 1.384 . S
N448 C444 1.427 . S
N448 C445 1.384 . S
N449 C441 1.427 . S
N449 C447 1.384 . S
H450 C456 0.930 . S
H451 C460 0.930 . S
H452 C465 0.929 . S
H453 C463 0.929 . S
H454 C458 0.929 . S
H455 C464 0.929 . S
C456 H450 0.930 . S
C456 C457 1.367 . S
C456 C464 1.378 . S
C457 C456 1.367 . S
C457 C465 1.433 . S
C458 H454 0.929 . S
C458 C460 1.378 . S
C458 C462 1.350 . S
C459 C462 1.463 . S
C459 C464 1.350 . S
C459 N467 1.427 . S
C460 H451 0.930 . S
C460 C458 1.378 . S
C460 C461 1.367 . S
C461 C460 1.367 . S
C461 C463 1.433 . S
C462 C458 1.350 . S
C462 C459 1.463 . S
C462 N466 1.427 . S
C463 H453 0.929 . S
C463 C461 1.433 . S
C463 N466 1.384 . S
C464 H455 0.929 . S
C464 C456 1.378 . S
C464 C459 1.350 . S
C465 H452 0.929 . S
C465 C457 1.433 . S
C465 N467 1.384 . S
N466 C462 1.427 . S
N466 C463 1.384 . S
N467 C459 1.427 . S
N467 C465 1.384 . S
H468 C474 0.930 . S
H469 C478 0.930 . S
H470 C483 0.929 . S
H471 C481 0.929 . S
H472 C476 0.929 . S
H473 C482 0.929 . S
C474 H468 0.930 . S
C474 C475 1.367 . S
C474 C482 1.378 . S
C475 C474 1.367 . S
C475 C483 1.433 . S
C476 H472 0.929 . S
C476 C478 1.378 . S
C476 C480 1.350 . S
C477 C480 1.463 . S
C477 C482 1.350 . S
C477 N485 1.427 . S
C478 H469 0.930 . S
C478 C476 1.378 . S
C478 C479 1.367 . S
C479 C478 1.367 . S
C479 C481 1.433 . S
C480 C476 1.350 . S
C480 C477 1.463 . S
C480 N484 1.427 . S
C481 H471 0.929 . S
C481 C479 1.433 . S
C481 N484 1.384 . S
C482 H473 0.929 . S
C482 C474 1.378 . S
C482 C477 1.350 . S
C483 H470 0.929 . S
C483 C475 1.433 . S
C483 N485 1.384 . S
N484 C480 1.427 . S
N484 C481 1.384 . S
N485 C477 1.427 . S
N485 C483 1.384 . S
H486 C492 0.930 . S
H487 C496 0.930 . S
H488 C501 0.929 . S
H489 C499 0.929 . S
H490 C494 0.929 . S
H491 C500 0.929 . S
C492 H486 0.930 . S
C492 C493 1.367 . S
C492 C500 1.378 . S
C493 C492 1.367 . S
C493 C501 1.433 . S
C494 H490 0.929 . S
C494 C496 1.378 . S
C494 C498 1.350 . S
C495 C498 1.463 . S
C495 C500 1.350 . S
C495 N503 1.427 . S
C496 H487 0.930 . S
C496 C494 1.378 . S
C496 C497 1.367 . S
C497 C496 1.367 . S
C497 C499 1.433 . S
C498 C494 1.350 . S
C498 C495 1.463 . S
C498 N502 1.427 . S
C499 H489 0.929 . S
C499 C497 1.433 . S
C499 N502 1.384 . S
C500 H491 0.929 . S
C500 C492 1.378 . S
C500 C495 1.350 . S
C501 H488 0.929 . S
C501 C493 1.433 . S
C501 N503 1.384 . S
N502 C498 1.427 . S
N502 C499 1.384 . S
N503 C495 1.427 . S
N503 C501 1.384 . S
H504 C510 0.930 . S
H505 C514 0.930 . S
H506 C519 0.929 . S
H507 C517 0.929 . S
H508 C512 0.929 . S
H509 C518 0.929 . S
C510 H504 0.930 . S
C510 C511 1.367 . S
C510 C518 1.378 . S
C511 C510 1.367 . S
C511 C519 1.433 . S
C512 H508 0.929 . S
C512 C514 1.378 . S
C512 C516 1.350 . S
C513 C516 1.463 . S
C513 C518 1.350 . S
C513 N521 1.427 . S
C514 H505 0.930 . S
C514 C512 1.378 . S
C514 C515 1.367 . S
C515 C514 1.367 . S
C515 C517 1.433 . S
C516 C512 1.350 . S
C516 C513 1.463 . S
C516 N520 1.427 . S
C517 H507 0.929 . S
C517 C515 1.433 . S
C517 N520 1.384 . S
C518 H509 0.929 . S
C518 C510 1.378 . S
C518 C513 1.350 . S
C519 H506 0.929 . S
C519 C511 1.433 . S
C519 N521 1.384 . S
N520 C516 1.427 . S
N520 C517 1.384 . S
N521 C513 1.427 . S
N521 C519 1.384 . S
H522 C528 0.930 . S
H523 C532 0.930 . S
H524 C537 0.929 . S
H525 C535 0.929 . S
H526 C530 0.929 . S
H527 C536 0.929 . S
C528 H522 0.930 . S
C528 C529 1.367 . S
C528 C536 1.378 . S
C529 C528 1.367 . S
C529 C537 1.433 . S
C530 H526 0.929 . S
C530 C532 1.378 . S
C530 C534 1.350 . S
C531 C534 1.463 1_455 S
C531 C536 1.350 . S
C531 N539 1.429 . S
C532 H523 0.930 . S
C532 C530 1.378 . S
C532 C533 1.367 . S
C533 C532 1.367 . S
C533 C535 1.433 . S
C534 C530 1.350 . S
C534 C531 1.463 1_655 S
C534 N538 1.427 . S
C535 H525 0.929 . S
C535 C533 1.433 . S
C535 N538 1.384 . S
C536 H527 0.929 . S
C536 C528 1.378 . S
C536 C531 1.350 . S
C537 H524 0.929 . S
C537 C529 1.433 . S
C537 N539 1.382 . S
N538 C534 1.427 . S
N538 C535 1.384 . S
N539 C531 1.429 . S
N539 C537 1.382 . S
H540 C546 0.930 . S
H541 C550 0.930 . S
H542 C555 0.929 . S
H543 C553 0.929 . S
H544 C548 0.929 . S
H545 C554 0.929 . S
C546 H540 0.930 . S
C546 C547 1.367 . S
C546 C554 1.378 . S
C547 C546 1.367 . S
C547 C555 1.433 . S
C548 H544 0.929 . S
C548 C550 1.378 . S
C548 C552 1.350 . S
C549 C552 1.463 . S
C549 C554 1.350 . S
C549 N557 1.427 . S
C550 H541 0.930 . S
C550 C548 1.378 . S
C550 C551 1.367 . S
C551 C550 1.367 . S
C551 C553 1.433 . S
C552 C548 1.350 . S
C552 C549 1.463 . S
C552 N556 1.427 . S
C553 H543 0.929 . S
C553 C551 1.433 . S
C553 N556 1.384 . S
C554 H545 0.929 . S
C554 C546 1.378 . S
C554 C549 1.350 . S
C555 H542 0.929 . S
C555 C547 1.433 . S
C555 N557 1.384 . S
N556 C552 1.427 . S
N556 C553 1.384 . S
N557 C549 1.427 . S
N557 C555 1.384 . S
H558 C564 0.930 . S
H559 C568 0.930 . S
H560 C573 0.929 . S
H561 C571 0.929 . S
H562 C566 0.929 . S
H563 C572 0.929 . S
C564 H558 0.930 . S
C564 C565 1.367 . S
C564 C572 1.378 . S
C565 C564 1.367 . S
C565 C573 1.433 1_545 S
C566 H562 0.929 . S
C566 C568 1.378 . S
C566 C570 1.354 . S
C567 C570 1.470 1_545 S
C567 C572 1.350 . S
C567 N575 1.427 1_545 S
C568 H559 0.930 . S
C568 C566 1.378 . S
C568 C569 1.367 . S
C569 C568 1.367 . S
C569 C571 1.433 1_565 S
C570 C566 1.354 . S
C570 C567 1.470 1_565 S
C570 N574 1.416 1_565 S
C571 H561 0.929 . S
C571 C569 1.433 1_545 S
C571 N574 1.384 . S
C572 H563 0.929 . S
C572 C564 1.378 . S
C572 C567 1.350 . S
C573 H560 0.929 . S
C573 C565 1.433 1_565 S
C573 N575 1.384 . S
N574 C570 1.416 1_545 S
N574 C571 1.384 . S
N575 C567 1.427 1_565 S
N575 C573 1.384 . S
H576 C582 0.930 . S
H577 C586 0.930 . S
H578 C591 0.929 . S
H579 C589 0.929 . S
H580 C584 0.914 1_554 S
H581 C590 0.929 . S
C582 H576 0.930 . S
C582 C583 1.367 . S
C582 C590 1.378 . S
C583 C582 1.367 . S
C583 C591 1.433 . S
C584 H580 0.914 1_556 S
C584 C586 1.393 . S
C584 C588 1.350 . S
C585 C588 1.454 1_554 S
C585 C590 1.350 . S
C585 N593 1.427 . S
C586 H577 0.930 . S
C586 C584 1.393 . S
C586 C587 1.367 . S
C587 C586 1.367 . S
C587 C589 1.433 . S
C588 C584 1.350 . S
C588 C585 1.454 1_556 S
C588 N592 1.436 . S
C589 H579 0.929 . S
C589 C587 1.433 . S
C589 N592 1.384 . S
C590 H581 0.929 . S
C590 C582 1.378 . S
C590 C585 1.350 . S
C591 H578 0.929 . S
C591 C583 1.433 . S
C591 N593 1.384 . S
N592 C588 1.436 . S
N592 C589 1.384 . S
N593 C585 1.427 . S
N593 C591 1.384 . S
H594 C600 0.930 . S
H595 C604 0.930 . S
H596 C609 0.935 . S
H597 C607 0.929 . S
H598 C602 0.929 . S
H599 C608 0.929 . S
C600 H594 0.930 . S
C600 C601 1.367 . S
C600 C608 1.378 . S
C601 C600 1.367 . S
C601 C609 1.433 . S
C602 H598 0.929 . S
C602 C604 1.378 . S
C602 C606 1.350 . S
C603 C606 1.463 1_554 S
C603 C608 1.350 . S
C603 N611 1.438 . S
C604 H595 0.930 . S
C604 C602 1.378 . S
C604 C605 1.367 . S
C605 C604 1.367 . S
C605 C607 1.433 . S
C606 C602 1.350 . S
C606 C603 1.463 1_556 S
C606 N610 1.427 1_556 S
C607 H597 0.929 . S
C607 C605 1.433 . S
C607 N610 1.384 1_556 S
C608 H599 0.929 . S
C608 C600 1.378 . S
C608 C603 1.350 . S
C609 H596 0.935 . S
C609 C601 1.433 . S
C609 N611 1.402 . S
N610 C606 1.427 1_554 S
N610 C607 1.384 1_554 S
N611 C603 1.438 . S
N611 C609 1.402 . S
H612 C618 0.930 . S
H613 C622 0.930 . S
H614 C627 0.929 1_556 S
H615 C625 0.929 1_554 S
H616 C620 0.929 . S
H617 C626 0.929 . S
C618 H612 0.930 . S
C618 C619 1.367 . S
C618 C626 1.378 . S
C619 C618 1.367 . S
C619 C627 1.433 . S
C620 H616 0.929 . S
C620 C622 1.378 . S
C620 C624 1.350 . S
C621 C624 1.463 1_554 S
C621 C626 1.350 . S
C621 N629 1.427 1_554 S
C622 H613 0.930 . S
C622 C620 1.378 . S
C622 C623 1.367 . S
C623 C622 1.367 . S
C623 C625 1.433 . S
C624 C620 1.350 . S
C624 C621 1.463 1_556 S
C624 N628 1.427 1_556 S
C625 H615 0.929 1_556 S
C625 C623 1.433 . S
C625 N628 1.384 1_556 S
C626 H617 0.929 . S
C626 C618 1.378 . S
C626 C621 1.350 . S
C627 H614 0.929 1_554 S
C627 C619 1.433 . S
C627 N629 1.384 1_554 S
N628 C624 1.427 1_554 S
N628 C625 1.384 1_554 S
N629 C621 1.427 1_556 S
N629 C627 1.384 1_556 S
H630 C636 0.930 . S
H631 C640 0.930 . S
H632 C645 0.929 1_554 S
H633 C643 0.953 . S
H634 C638 0.929 . S
H635 C644 0.929 . S
C636 H630 0.930 . S
C636 C637 1.367 . S
C636 C644 1.378 . S
C637 C636 1.367 . S
C637 C645 1.433 . S
C638 H634 0.929 . S
C638 C640 1.378 . S
C638 C642 1.350 . S
C639 C642 1.463 1_556 S
C639 C644 1.350 . S
C639 N647 1.427 1_556 S
C640 H631 0.930 . S
C640 C638 1.378 . S
C640 C641 1.367 . S
C641 C640 1.367 . S
C641 C643 1.392 1_554 S
C642 C638 1.350 . S
C642 C639 1.463 1_554 S
C642 N646 1.427 1_554 S
C643 H633 0.953 . S
C643 C641 1.392 1_556 S
C643 N646 1.401 . S
C644 H635 0.929 . S
C644 C636 1.378 . S
C644 C639 1.350 . S
C645 H632 0.929 1_556 S
C645 C637 1.433 . S
C645 N647 1.384 1_556 S
N646 C642 1.427 1_556 S
N646 C643 1.401 . S
N647 C639 1.427 1_554 S
N647 C645 1.384 1_554 S
H648 C654 0.930 . S
H649 C658 0.930 . S
H650 C663 0.929 . S
H651 C661 0.929 . S
H652 C656 0.929 . S
H653 C662 0.929 . S
C654 H648 0.930 . S
C654 C655 1.367 . S
C654 C662 1.378 . S
C655 C654 1.367 . S
C655 C663 1.433 1_554 S
C656 H652 0.929 . S
C656 C658 1.378 . S
C656 C660 1.350 . S
C657 C660 1.463 1_554 S
C657 C662 1.350 . S
C657 N665 1.427 1_554 S
C658 H649 0.930 . S
C658 C656 1.378 . S
C658 C659 1.367 . S
C659 C658 1.367 . S
C659 C661 1.433 1_556 S
C660 C656 1.350 . S
C660 C657 1.463 1_556 S
C660 N664 1.427 1_556 S
C661 H651 0.929 . S
C661 C659 1.433 1_554 S
C661 N664 1.384 . S
C662 H653 0.929 . S
C662 C654 1.378 . S
C662 C657 1.350 . S
C663 H650 0.929 . S
C663 C655 1.433 1_556 S
C663 N665 1.384 . S
N664 C660 1.427 1_554 S
N664 C661 1.384 . S
N665 C657 1.427 1_556 S
N665 C663 1.384 . S
H666 C672 0.930 . S
H667 C676 0.930 . S
H668 C681 0.929 1_554 S
H669 C679 0.929 . S
H670 C674 0.929 . S
H671 C680 0.929 . S
C672 H666 0.930 . S
C672 C673 1.367 . S
C672 C680 1.378 . S
C673 C672 1.367 . S
C673 C681 1.433 . S
C674 H670 0.929 . S
C674 C676 1.378 . S
C674 C678 1.350 . S
C675 C678 1.463 1_556 S
C675 C680 1.350 . S
C675 N683 1.427 1_556 S
C676 H667 0.930 . S
C676 C674 1.378 . S
C676 C677 1.367 . S
C677 C676 1.367 . S
C677 C679 1.433 1_554 S
C678 C674 1.350 . S
C678 C675 1.463 1_554 S
C678 N682 1.427 1_554 S
C679 H669 0.929 . S
C679 C677 1.433 1_556 S
C679 N682 1.384 . S
C680 H671 0.929 . S
C680 C672 1.378 . S
C680 C675 1.350 . S
C681 H668 0.929 1_556 S
C681 C673 1.433 . S
C681 N683 1.384 1_556 S
N682 C678 1.427 1_556 S
N682 C679 1.384 . S
N683 C675 1.427 1_554 S
N683 C681 1.384 1_554 S
H684 C690 0.930 . S
H685 C694 0.930 . S
H686 C699 0.929 . S
H687 C697 0.929 . S
H688 C692 0.929 . S
H689 C698 0.929 . S
C690 H684 0.930 . S
C690 C691 1.367 . S
C690 C698 1.378 . S
C691 C690 1.367 . S
C691 C699 1.433 . S
C692 H688 0.929 . S
C692 C694 1.378 . S
C692 C696 1.350 . S
C693 C696 1.463 . S
C693 C698 1.350 . S
C693 N701 1.427 . S
C694 H685 0.930 . S
C694 C692 1.378 . S
C694 C695 1.367 . S
C695 C694 1.367 . S
C695 C697 1.433 . S
C696 C692 1.350 . S
C696 C693 1.463 . S
C696 N700 1.427 . S
C697 H687 0.929 . S
C697 C695 1.433 . S
C697 N700 1.384 . S
C698 H689 0.929 . S
C698 C690 1.378 . S
C698 C693 1.350 . S
C699 H686 0.929 . S
C699 C691 1.433 . S
C699 N701 1.384 . S
N700 C696 1.427 . S
N700 C697 1.384 . S
N701 C693 1.427 . S
N701 C699 1.384 . S
H702 C708 0.930 . S
H703 C712 0.930 . S
H704 C717 0.929 . S
H705 C715 0.929 . S
H706 C710 0.929 . S
H707 C716 0.929 . S
C708 H702 0.930 . S
C708 C709 1.367 . S
C708 C716 1.378 . S
C709 C708 1.367 . S
C709 C717 1.433 . S
C710 H706 0.929 . S
C710 C712 1.378 . S
C710 C714 1.350 . S
C711 C714 1.463 . S
C711 C716 1.350 . S
C711 N719 1.427 . S
C712 H703 0.930 . S
C712 C710 1.378 . S
C712 C713 1.367 . S
C713 C712 1.367 . S
C713 C715 1.433 . S
C714 C710 1.350 . S
C714 C711 1.463 . S
C714 N718 1.427 . S
C715 H705 0.929 . S
C715 C713 1.433 . S
C715 N718 1.384 . S
C716 H707 0.929 . S
C716 C708 1.378 . S
C716 C711 1.350 . S
C717 H704 0.929 . S
C717 C709 1.433 . S
C717 N719 1.384 . S
N718 C714 1.427 . S
N718 C715 1.384 . S
N719 C711 1.427 . S
N719 C717 1.384 . S
H720 C726 0.930 . S
H721 C730 0.930 . S
H722 C735 0.929 . S
H723 C733 0.929 . S
H724 C728 0.929 . S
H725 C734 0.929 . S
C726 H720 0.930 . S
C726 C727 1.367 . S
C726 C734 1.378 . S
C727 C726 1.367 . S
C727 C735 1.433 . S
C728 H724 0.929 . S
C728 C730 1.378 . S
C728 C732 1.350 . S
C729 C732 1.463 . S
C729 C734 1.350 . S
C729 N737 1.427 . S
C730 H721 0.930 . S
C730 C728 1.378 . S
C730 C731 1.367 . S
C731 C730 1.367 . S
C731 C733 1.433 . S
C732 C728 1.350 . S
C732 C729 1.463 . S
C732 N736 1.427 . S
C733 H723 0.929 . S
C733 C731 1.433 . S
C733 N736 1.384 . S
C734 H725 0.929 . S
C734 C726 1.378 . S
C734 C729 1.350 . S
C735 H722 0.929 . S
C735 C727 1.433 . S
C735 N737 1.384 . S
N736 C732 1.427 . S
N736 C733 1.384 . S
N737 C729 1.427 . S
N737 C735 1.384 . S
H738 C744 0.930 . S
H739 C748 0.930 . S
H740 C753 0.929 . S
H741 C751 0.929 . S
H742 C746 0.929 . S
H743 C752 0.929 . S
C744 H738 0.930 . S
C744 C745 1.367 . S
C744 C752 1.378 . S
C745 C744 1.367 . S
C745 C753 1.433 . S
C746 H742 0.929 . S
C746 C748 1.378 . S
C746 C750 1.350 . S
C747 C750 1.463 . S
C747 C752 1.350 . S
C747 N755 1.427 . S
C748 H739 0.930 . S
C748 C746 1.378 . S
C748 C749 1.367 . S
C749 C748 1.367 . S
C749 C751 1.433 . S
C750 C746 1.350 . S
C750 C747 1.463 . S
C750 N754 1.427 . S
C751 H741 0.929 . S
C751 C749 1.433 . S
C751 N754 1.384 . S
C752 H743 0.929 . S
C752 C744 1.378 . S
C752 C747 1.350 . S
C753 H740 0.929 . S
C753 C745 1.433 . S
C753 N755 1.384 . S
N754 C750 1.427 . S
N754 C751 1.384 . S
N755 C747 1.427 . S
N755 C753 1.384 . S
H756 C762 0.930 . S
H757 C766 0.930 . S
H758 C771 0.929 . S
H759 C769 0.929 . S
H760 C764 0.929 . S
H761 C770 0.929 . S
C762 H756 0.930 . S
C762 C763 1.367 . S
C762 C770 1.378 . S
C763 C762 1.367 . S
C763 C771 1.433 1_545 S
C764 H760 0.929 . S
C764 C766 1.378 . S
C764 C768 1.350 1_565 S
C765 C768 1.463 . S
C765 C770 1.350 . S
C765 N773 1.427 1_545 S
C766 H757 0.930 . S
C766 C764 1.378 . S
C766 C767 1.367 1_565 S
C767 C766 1.367 1_545 S
C767 C769 1.433 . S
C768 C764 1.350 1_545 S
C768 C765 1.463 . S
C768 N772 1.427 . S
C769 H759 0.929 . S
C769 C767 1.433 . S
C769 N772 1.384 . S
C770 H761 0.929 . S
C770 C762 1.378 . S
C770 C765 1.350 . S
C771 H758 0.929 . S
C771 C763 1.433 1_565 S
C771 N773 1.384 . S
N772 C768 1.427 . S
N772 C769 1.384 . S
N773 C765 1.427 1_565 S
N773 C771 1.384 . S
H774 C780 0.930 . S
H775 C784 0.930 . S
H776 C789 0.929 . S
H777 C787 0.929 . S
H778 C782 0.929 . S
H779 C788 0.929 . S
C780 H774 0.930 . S
C780 C781 1.367 . S
C780 C788 1.378 . S
C781 C780 1.367 . S
C781 C789 1.433 . S
C782 H778 0.929 . S
C782 C784 1.378 . S
C782 C786 1.350 . S
C783 C786 1.463 . S
C783 C788 1.350 . S
C783 N791 1.427 . S
C784 H775 0.930 . S
C784 C782 1.378 . S
C784 C785 1.367 . S
C785 C784 1.367 . S
C785 C787 1.433 . S
C786 C782 1.350 . S
C786 C783 1.463 . S
C786 N790 1.427 . S
C787 H777 0.929 . S
C787 C785 1.433 . S
C787 N790 1.384 . S
C788 H779 0.929 . S
C788 C780 1.378 . S
C788 C783 1.350 . S
C789 H776 0.929 . S
C789 C781 1.433 . S
C789 N791 1.384 . S
N790 C786 1.427 . S
N790 C787 1.384 . S
N791 C783 1.427 . S
N791 C789 1.384 . S
H792 C798 0.930 . S
H793 C802 0.930 . S
H794 C807 0.929 . S
H795 C805 0.929 . S
H796 C800 0.929 . S
H797 C806 0.929 . S
C798 H792 0.930 . S
C798 C799 1.367 . S
C798 C806 1.378 . S
C799 C798 1.367 . S
C799 C807 1.433 . S
C800 H796 0.929 . S
C800 C802 1.378 . S
C800 C804 1.350 . S
C801 C804 1.463 . S
C801 C806 1.350 . S
C801 N809 1.427 . S
C802 H793 0.930 . S
C802 C800 1.378 . S
C802 C803 1.367 . S
C803 C802 1.367 . S
C803 C805 1.433 . S
C804 C800 1.350 . S
C804 C801 1.463 . S
C804 N808 1.427 . S
C805 H795 0.929 . S
C805 C803 1.433 . S
C805 N808 1.384 . S
C806 H797 0.929 . S
C806 C798 1.378 . S
C806 C801 1.350 . S
C807 H794 0.929 . S
C807 C799 1.433 . S
C807 N809 1.384 . S
N808 C804 1.427 . S
N808 C805 1.384 . S
N809 C801 1.427 . S
N809 C807 1.384 . S
H810 C816 0.930 . S
H811 C820 0.930 . S
H812 C825 0.929 1_545 S
H813 C823 0.929 . S
H814 C818 0.929 . S
H815 C824 0.929 . S
C816 H810 0.930 . S
C816 C817 1.367 . S
C816 C824 1.378 . S
C817 C816 1.367 . S
C817 C825 1.433 . S
C818 H814 0.929 . S
C818 C820 1.378 . S
C818 C822 1.350 . S
C819 C822 1.463 . S
C819 C824 1.350 . S
C819 N827 1.427 . S
C820 H811 0.930 . S
C820 C818 1.378 . S
C820 C821 1.367 . S
C821 C820 1.367 . S
C821 C823 1.433 . S
C822 C818 1.350 . S
C822 C819 1.463 . S
C822 N826 1.427 . S
C823 H813 0.929 . S
C823 C821 1.433 . S
C823 N826 1.384 . S
C824 H815 0.929 . S
C824 C816 1.378 . S
C824 C819 1.350 . S
C825 H812 0.929 1_565 S
C825 C817 1.433 . S
C825 N827 1.384 . S
N826 C822 1.427 . S
N826 C823 1.384 . S
N827 C819 1.427 . S
N827 C825 1.384 . S
H828 C834 0.932 . S
H829 C838 0.930 . S
H830 C843 0.929 . S
H831 C841 0.929 . S
H832 C836 0.929 . S
H833 C842 0.929 . S
C834 H828 0.932 . S
C834 C835 1.360 1_655 S
C834 C842 1.382 . S
C835 C834 1.360 1_455 S
C835 C843 1.433 . S
C836 H832 0.929 . S
C836 C838 1.378 . S
C836 C840 1.350 . S
C837 C840 1.463 . S
C837 C842 1.350 1_455 S
C837 N845 1.427 . S
C838 H829 0.930 . S
C838 C836 1.378 . S
C838 C839 1.367 . S
C839 C838 1.367 . S
C839 C841 1.433 1_455 S
C840 C836 1.350 . S
C840 C837 1.463 . S
C840 N844 1.427 1_455 S
C841 H831 0.929 . S
C841 C839 1.433 1_655 S
C841 N844 1.384 . S
C842 H833 0.929 . S
C842 C834 1.382 . S
C842 C837 1.350 1_655 S
C843 H830 0.929 . S
C843 C835 1.433 . S
C843 N845 1.384 . S
N844 C840 1.427 1_655 S
N844 C841 1.384 . S
N845 C837 1.427 . S
N845 C843 1.384 . S
H846 C852 0.930 . S
H847 C856 0.930 . S
H848 C861 0.929 . S
H849 C859 0.929 . S
H850 C854 0.929 . S
H851 C860 0.929 . S
C852 H846 0.930 . S
C852 C853 1.367 . S
C852 C860 1.378 . S
C853 C852 1.367 . S
C853 C861 1.433 . S
C854 H850 0.929 . S
C854 C856 1.378 . S
C854 C858 1.350 . S
C855 C858 1.463 . S
C855 C860 1.350 . S
C855 N863 1.427 . S
C856 H847 0.930 . S
C856 C854 1.378 . S
C856 C857 1.367 . S
C857 C856 1.367 . S
C857 C859 1.433 . S
C858 C854 1.350 . S
C858 C855 1.463 . S
C858 N862 1.427 . S
C859 H849 0.929 . S
C859 C857 1.433 . S
C859 N862 1.384 . S
C860 H851 0.929 . S
C860 C852 1.378 . S
C860 C855 1.350 . S
C861 H848 0.929 . S
C861 C853 1.433 . S
C861 N863 1.384 . S
N862 C858 1.427 . S
N862 C859 1.384 . S
N863 C855 1.427 . S
N863 C861 1.384 . S
H864 C870 0.930 . S
H865 C874 0.930 . S
H866 C879 0.929 . S
H867 C877 0.929 . S
H868 C872 0.929 . S
H869 C878 0.929 . S
C870 H864 0.930 . S
C870 C871 1.367 . S
C870 C878 1.378 . S
C871 C870 1.367 . S
C871 C879 1.433 . S
C872 H868 0.929 . S
C872 C874 1.378 . S
C872 C876 1.350 . S
C873 C876 1.463 . S
C873 C878 1.350 . S
C873 N881 1.427 . S
C874 H865 0.930 . S
C874 C872 1.378 . S
C874 C875 1.367 . S
C875 C874 1.367 . S
C875 C877 1.433 . S
C876 C872 1.350 . S
C876 C873 1.463 . S
C876 N880 1.427 . S
C877 H867 0.929 . S
C877 C875 1.433 . S
C877 N880 1.384 . S
C878 H869 0.929 . S
C878 C870 1.378 . S
C878 C873 1.350 . S
C879 H866 0.929 . S
C879 C871 1.433 . S
C879 N881 1.384 . S
N880 C876 1.427 . S
N880 C877 1.384 . S
N881 C873 1.427 . S
N881 C879 1.384 . S
H882 C888 0.930 . S
H883 C892 0.930 . S
H884 C897 0.929 . S
H885 C895 0.929 . S
H886 C890 0.929 . S
H887 C896 0.929 . S
C888 H882 0.930 . S
C888 C889 1.367 . S
C888 C896 1.378 . S
C889 C888 1.367 . S
C889 C897 1.433 . S
C890 H886 0.929 . S
C890 C892 1.378 . S
C890 C894 1.350 . S
C891 C894 1.463 . S
C891 C896 1.350 . S
C891 N899 1.427 . S
C892 H883 0.930 . S
C892 C890 1.378 . S
C892 C893 1.367 . S
C893 C892 1.367 . S
C893 C895 1.433 . S
C894 C890 1.350 . S
C894 C891 1.463 . S
C894 N898 1.427 . S
C895 H885 0.929 . S
C895 C893 1.433 . S
C895 N898 1.384 . S
C896 H887 0.929 . S
C896 C888 1.378 . S
C896 C891 1.350 . S
C897 H884 0.929 . S
C897 C889 1.433 . S
C897 N899 1.384 . S
N898 C894 1.427 . S
N898 C895 1.384 . S
N899 C891 1.427 . S
N899 C897 1.384 . S
C259 C8 2.110 . S
C263 C45 2.127 . S
C277 C17 2.071 . S
C281 C59 2.073 . S
C295 C73 2.047 . S
C299 C36 2.034 . S
C313 C92 2.101 . S
C317 C129 2.116 . S
C331 C101 2.075 . S
C335 C143 2.077 . S
C349 C157 2.047 . S
C353 C120 2.034 . S
C367 C213 2.119 . S
C371 C176 2.098 . S
C385 C227 2.078 . S
C389 C185 2.076 . S
C403 C241 2.043 . S
C407 C204 2.026 . S
C421 C3 1.695 . S
C425 C134 1.702 . S
C439 C22 1.675 . S
C443 C148 1.673 . S
C457 C162 1.670 . S
C461 C31 1.656 . S
C475 C50 1.702 . S
C479 C171 1.693 . S
C493 C64 1.678 . S
C497 C190 1.681 . S
C511 C78 1.669 . S
C515 C199 1.659 . S
C529 C87 1.699 . S
C533 C218 1.711 . S
C547 C106 1.674 . S
C551 C232 1.672 . S
C565 C246 1.665 . S
C569 C115 1.652 . S
C583 C7 0.526 . S
C587 C63 0.497 . S
C601 C23 0.484 . S
C605 C77 0.492 . S
C619 C35 0.490 . S
C623 C49 0.496 . S
C637 C51 0.555 . S
C641 C21 0.559 . S
C655 C37 0.561 . S
C659 C65 0.578 . S
C673 C79 0.582 . S
C677 C9 0.560 . S
C691 C91 0.527 . S
C695 C147 0.496 . S
C709 C161 0.474 . S
C713 C107 0.480 . S
C727 C133 0.496 . S
C731 C119 0.505 . S
C745 C105 0.538 . S
C749 C135 0.531 . S
C763 C149 0.575 . S
C767 C121 0.580 . S
C781 C163 0.579 . S
C785 C93 0.559 . S
C799 C231 0.501 . S
C803 C175 0.502 . S
C817 C245 0.498 . S
C821 C191 0.492 . S
C835 C203 0.496 . S
C839 C217 0.476 . S
C853 C189 0.570 . S
C857 C219 0.569 . S
C871 C205 0.578 . S
C875 C233 0.570 . S
C889 C177 0.577 . S
C893 C247 0.570 . S
