# Generated by pormake.
# Topology upa, (4)-cn, num edge types: 1
# Building blocks:
#     Node 0, Type 0, BuildingBlock: KUFVIS_clean_sbu_0, # of connection points: 4
#     Node 1, Type 0, BuildingBlock: KUFVIS_clean_sbu_0, # of connection points: 4
#     Node 2, Type 0, BuildingBlock: KUFVIS_clean_sbu_0, # of connection points: 4
#     Node 3, Type 0, BuildingBlock: KUFVIS_clean_sbu_0, # of connection points: 4
#     Node 4, Type 0, BuildingBlock: KUFVIS_clean_sbu_0, # of connection points: 4
#     Node 5, Type 0, BuildingBlock: KUFVIS_clean_sbu_0, # of connection points: 4
#     Node 6, Type 0, BuildingBlock: KUFVIS_clean_sbu_0, # of connection points: 4
#     Node 7, Type 0, BuildingBlock: KUFVIS_clean_sbu_0, # of connection points: 4
#     Edge 8, Type (0, 0), BuildingBlock: ZUJKAS_clean_linker_0, # of connection points: 2
#     Edge 9, Type (0, 0), BuildingBlock: ZUJKAS_clean_linker_0, # of connection points: 2
#     Edge 10, Type (0, 0), BuildingBlock: ZUJKAS_clean_linker_0, # of connection points: 2
#     Edge 11, Type (0, 0), BuildingBlock: ZUJKAS_clean_linker_0, # of connection points: 2
#     Edge 12, Type (0, 0), BuildingBlock: ZUJKAS_clean_linker_0, # of connection points: 2
#     Edge 13, Type (0, 0), BuildingBlock: ZUJKAS_clean_linker_0, # of connection points: 2
#     Edge 14, Type (0, 0), BuildingBlock: ZUJKAS_clean_linker_0, # of connection points: 2
#     Edge 15, Type (0, 0), BuildingBlock: ZUJKAS_clean_linker_0, # of connection points: 2
#     Edge 16, Type (0, 0), BuildingBlock: ZUJKAS_clean_linker_0, # of connection points: 2
#     Edge 17, Type (0, 0), BuildingBlock: ZUJKAS_clean_linker_0, # of connection points: 2
#     Edge 18, Type (0, 0), BuildingBlock: ZUJKAS_clean_linker_0, # of connection points: 2
#     Edge 19, Type (0, 0), BuildingBlock: ZUJKAS_clean_linker_0, # of connection points: 2
#     Edge 20, Type (0, 0), BuildingBlock: ZUJKAS_clean_linker_0, # of connection points: 2
#     Edge 21, Type (0, 0), BuildingBlock: ZUJKAS_clean_linker_0, # of connection points: 2
#     Edge 22, Type (0, 0), BuildingBlock: ZUJKAS_clean_linker_0, # of connection points: 2
#     Edge 23, Type (0, 0), BuildingBlock: ZUJKAS_clean_linker_0, # of connection points: 2
# Relax obj value: 0.193
# Max RMSD: 0.140
# Mean RMSD: 0.140
data_MOF--net-upa--node1-KUFVIS_clean_sbu_0--edge1-ZUJKAS_clean_linker_0
_symmetry_space_group_name_H-M    P1
_symmetry_Int_Tables_number       1
_symmetry_cell_setting            triclinic
loop_
_symmetry_equiv_pos_as_xyz
'x, y, z'
_cell_length_a     33.049689
_cell_length_b     33.021796
_cell_length_c     57.365037
_cell_angle_alpha  90.03426
_cell_angle_beta   90.024368
_cell_angle_gamma 89.992229
loop_
_atom_site_label
_atom_site_type_symbol
_atom_site_fract_x
_atom_site_fract_y
_atom_site_fract_z
_atom_type_partial_charge
Mn0 Mn 0.19724 0.20259 0.34408 0.0
Mn1 Mn 0.24965 0.12192 0.36376 0.0
C2 C 0.16381 0.14815 0.36035 0.0
C3 C 0.15975 0.23411 0.31436 0.0
C4 C 0.23943 0.19874 0.39201 0.0
O5 O 0.25274 0.21129 0.32882 0.0
O6 O 0.28466 0.15729 0.34425 0.0
C7 C 0.26137 0.08225 0.31795 0.0
N8 N 0.2475 0.08087 0.34029 0.0
C9 C 0.22379 0.01253 0.33519 0.0
C10 C 0.23805 0.01315 0.31217 0.0
C11 C 0.25684 0.0482 0.30351 0.0
C12 C 0.22914 0.04739 0.34875 0.0
H13 H 0.27573 0.10915 0.31118 0.0
C14 C 0.28433 0.18944 0.33175 0.0
O15 O 0.17408 0.25484 0.3318 0.0
O16 O 0.17043 0.19648 0.31325 0.0
N17 N 0.21989 0.08476 0.38274 0.0
C18 C 0.20722 0.08935 0.4052 0.0
C19 C 0.18744 0.05715 0.41639 0.0
C20 C 0.1814 0.02044 0.40451 0.0
C21 C 0.19527 0.01622 0.38154 0.0
C22 C 0.21489 0.04931 0.37131 0.0
H23 H 0.21192 0.11745 0.41444 0.0
O24 O 0.14687 0.18341 0.35933 0.0
O25 O 0.19985 0.14531 0.35134 0.0
O26 O 0.21992 0.21883 0.3765 0.0
O27 O 0.25177 0.16244 0.3889 0.0
C28 C 0.1902 0.98058 0.36835 0.0
C29 C 0.20423 0.97881 0.34515 0.0
H30 H 0.23458 0.98696 0.30097 0.0
H31 H 0.26778 0.04897 0.28573 0.0
H32 H 0.17689 0.06061 0.43414 0.0
H33 H 0.1661 0.9957 0.41322 0.0
H34 H 0.17533 0.95441 0.37582 0.0
H35 H 0.19977 0.95138 0.33511 0.0
Mn36 Mn 0.30829 0.69785 0.84194 0.0
Mn37 Mn 0.3923 0.7467 0.85985 0.0
C38 C 0.36183 0.66199 0.85753 0.0
C39 C 0.27441 0.66134 0.81273 0.0
C40 C 0.31555 0.7422 0.88885 0.0
O41 O 0.3016 0.75372 0.82663 0.0
O42 O 0.3596 0.78231 0.83912 0.0
C43 C 0.43331 0.75222 0.81409 0.0
N44 N 0.4334 0.73987 0.83674 0.0
C45 C 0.49928 0.70973 0.83243 0.0
C46 C 0.50001 0.72238 0.8091 0.0
C47 C 0.46686 0.74369 0.7999 0.0
C48 C 0.46515 0.71938 0.84578 0.0
H49 H 0.40778 0.76832 0.80688 0.0
C50 C 0.32637 0.78353 0.82757 0.0
O51 O 0.25478 0.67665 0.83032 0.0
O52 O 0.31227 0.67071 0.81114 0.0
N53 N 0.42693 0.71565 0.87977 0.0
C54 C 0.42089 0.70439 0.90236 0.0
C55 C 0.45089 0.68208 0.91401 0.0
C56 C 0.48685 0.67181 0.90238 0.0
C57 C 0.49266 0.6843 0.87926 0.0
C58 C 0.46185 0.70681 0.86862 0.0
H59 H 0.39323 0.71201 0.91136 0.0
O60 O 0.32587 0.6466 0.85711 0.0
O61 O 0.36568 0.69786 0.84843 0.0
O62 O 0.29445 0.72147 0.87437 0.0
O63 O 0.35182 0.75372 0.88479 0.0
C64 C 0.52749 0.67468 0.86624 0.0
C65 C 0.53078 0.68733 0.84283 0.0
H66 H 0.52571 0.71562 0.79805 0.0
H67 H 0.4671 0.75336 0.78188 0.0
H68 H 0.4462 0.6726 0.93186 0.0
H69 H 0.50973 0.6542 0.91133 0.0
H70 H 0.55176 0.6572 0.87398 0.0
H71 H 0.55752 0.67937 0.83292 0.0
Mn72 Mn 0.81205 0.81141 0.34133 0.0
Mn73 Mn 0.75949 0.8924 0.36051 0.0
C74 C 0.84534 0.86561 0.35805 0.0
C75 C 0.85013 0.77998 0.31181 0.0
C76 C 0.76801 0.81522 0.38862 0.0
O77 O 0.75683 0.80305 0.32557 0.0
O78 O 0.72506 0.85779 0.34023 0.0
C79 C 0.75034 0.93307 0.31483 0.0
N80 N 0.76316 0.93388 0.33739 0.0
C81 C 0.7875 1.00216 0.33324 0.0
C82 C 0.77434 1.00215 0.31 0.0
C83 C 0.75577 0.96741 0.30074 0.0
C84 C 0.78131 0.96705 0.34642 0.0
H85 H 0.73614 0.90641 0.30762 0.0
C86 C 0.72546 0.82545 0.32787 0.0
O87 O 0.83535 0.75915 0.32907 0.0
O88 O 0.83956 0.81763 0.31073 0.0
N89 N 0.78877 0.92884 0.38023 0.0
C90 C 0.80048 0.92361 0.40281 0.0
C91 C 0.82001 0.95538 0.41457 0.0
C92 C 0.82677 0.99234 0.40311 0.0
C93 C 0.8139 0.99722 0.37998 0.0
C94 C 0.79451 0.96451 0.36917 0.0
H95 H 0.79519 0.89532 0.41174 0.0
O96 O 0.86215 0.83029 0.35705 0.0
O97 O 0.80956 0.86866 0.34871 0.0
O98 O 0.78856 0.79519 0.37354 0.0
O99 O 0.75567 0.85146 0.38531 0.0
C100 C 0.81973 0.03315 0.36718 0.0
C101 C 0.80678 0.03554 0.34379 0.0
H102 H 0.7785 0.02857 0.29907 0.0
H103 H 0.74567 0.9671 0.2828 0.0
H104 H 0.82978 0.95141 0.43243 0.0
H105 H 0.84186 0.01676 0.41224 0.0
H106 H 0.83438 0.05906 0.37511 0.0
H107 H 0.81186 0.06317 0.33405 0.0
Mn108 Mn 0.71377 0.31808 0.84226 0.0
Mn109 Mn 0.63188 0.26767 0.86204 0.0
C110 C 0.6599 0.35314 0.85801 0.0
C111 C 0.74636 0.354 0.81246 0.0
C112 C 0.70968 0.27543 0.88971 0.0
O113 O 0.72123 0.26163 0.82764 0.0
O114 O 0.66428 0.23224 0.84108 0.0
C115 C 0.58853 0.25957 0.8171 0.0
N116 N 0.58941 0.27276 0.83959 0.0
C117 C 0.52268 0.30134 0.83611 0.0
C118 C 0.52096 0.2878 0.81296 0.0
C119 C 0.55405 0.26685 0.80342 0.0
C120 C 0.55771 0.29289 0.84896 0.0
H121 H 0.614 0.24374 0.80962 0.0
C122 C 0.69705 0.23138 0.82911 0.0
O123 O 0.76652 0.33971 0.83011 0.0
O124 O 0.70861 0.3439 0.81109 0.0
N125 N 0.59766 0.29867 0.88222 0.0
C126 C 0.60471 0.31098 0.90454 0.0
C127 C 0.57489 0.33312 0.91644 0.0
C128 C 0.5381 0.34218 0.90535 0.0
C129 C 0.5313 0.32868 0.8825 0.0
C130 C 0.56197 0.30637 0.87159 0.0
H131 H 0.63303 0.30434 0.91312 0.0
O132 O 0.69538 0.36952 0.85686 0.0
O133 O 0.65665 0.31676 0.84949 0.0
O134 O 0.72921 0.29665 0.87483 0.0
O135 O 0.67379 0.26221 0.88641 0.0
C136 C 0.4956 0.33712 0.86999 0.0
C137 C 0.49131 0.32349 0.8468 0.0
H138 H 0.49454 0.29361 0.8023 0.0
H139 H 0.55303 0.2565 0.78552 0.0
H140 H 0.58037 0.34342 0.93408 0.0
H141 H 0.51536 0.35968 0.91449 0.0
H142 H 0.47143 0.35445 0.87794 0.0
H143 H 0.46389 0.33055 0.83728 0.0
Mn144 Mn 0.69683 0.30137 0.18433 0.0
Mn145 Mn 0.74649 0.38179 0.16188 0.0
C146 C 0.66097 0.35487 0.16863 0.0
C147 C 0.66213 0.26976 0.21494 0.0
C148 C 0.73559 0.30287 0.13573 0.0
O149 O 0.75382 0.29427 0.19805 0.0
O150 O 0.78314 0.34933 0.18215 0.0
C151 C 0.76059 0.4269 0.20577 0.0
N152 N 0.74533 0.4255 0.18372 0.0
C153 C 0.72199 0.49438 0.18642 0.0
C154 C 0.73772 0.49664 0.20909 0.0
C155 C 0.75705 0.46273 0.2188 0.0
C156 C 0.72682 0.45802 0.17416 0.0
H157 H 0.77528 0.40086 0.21337 0.0
C158 C 0.78435 0.31762 0.19505 0.0
O159 O 0.67584 0.24907 0.19735 0.0
O160 O 0.67236 0.30758 0.21585 0.0
N161 N 0.71453 0.41613 0.14229 0.0
C162 C 0.69832 0.40798 0.12095 0.0
C163 C 0.67635 0.43818 0.10926 0.0
C164 C 0.67153 0.47649 0.11954 0.0
C165 C 0.6888 0.48429 0.14141 0.0
C166 C 0.71061 0.45309 0.15218 0.0
H167 H 0.70175 0.37855 0.113 0.0
O168 O 0.64496 0.31926 0.17042 0.0
O169 O 0.69793 0.35859 0.17632 0.0
O170 O 0.71627 0.28398 0.15165 0.0
O171 O 0.74845 0.3391 0.13786 0.0
C172 C 0.68427 0.52141 0.15325 0.0
C173 C 0.70086 0.52645 0.17573 0.0
H174 H 0.73474 0.5241 0.21928 0.0
H175 H 0.76907 0.46416 0.23634 0.0
H176 H 0.66301 0.43189 0.09241 0.0
H177 H 0.6542 0.49957 0.11057 0.0
H178 H 0.66751 0.54606 0.14538 0.0
H179 H 0.69664 0.55493 0.18479 0.0
Mn180 Mn 0.20164 0.19845 0.68216 0.0
Mn181 Mn 0.11957 0.25003 0.66362 0.0
C182 C 0.14815 0.16459 0.66497 0.0
C183 C 0.23374 0.16013 0.71132 0.0
C184 C 0.19732 0.24449 0.63564 0.0
O185 O 0.20894 0.25352 0.69842 0.0
O186 O 0.15242 0.28379 0.68514 0.0
C187 C 0.07722 0.25516 0.709 0.0
N188 N 0.07745 0.2439 0.68616 0.0
C189 C 0.00926 0.21882 0.68879 0.0
C190 C 0.0082 0.23037 0.71231 0.0
C191 C 0.04238 0.2485 0.72247 0.0
C192 C 0.04486 0.22612 0.67626 0.0
H193 H 0.10341 0.26909 0.7169 0.0
C194 C 0.18491 0.2839 0.69734 0.0
O195 O 0.25427 0.17582 0.69421 0.0
O196 O 0.19592 0.16992 0.71249 0.0
N197 N 0.08456 0.22115 0.64288 0.0
C198 C 0.09093 0.21074 0.62018 0.0
C199 C 0.05988 0.19166 0.60758 0.0
C200 C 0.02246 0.18406 0.61832 0.0
C201 C 0.01644 0.19554 0.6416 0.0
C202 C 0.04849 0.21442 0.65329 0.0
H203 H 0.11953 0.21675 0.61179 0.0
O204 O 0.18372 0.14837 0.66591 0.0
O205 O 0.14439 0.19999 0.6747 0.0
O206 O 0.21745 0.22313 0.65026 0.0
O207 O 0.1611 0.25655 0.63927 0.0
C208 C 0.97997 0.18881 0.65371 0.0
C209 C 0.97649 0.20015 0.67733 0.0
H210 H 0.98137 0.2253 0.72276 0.0
H211 H 0.04185 0.25736 0.74064 0.0
H212 H 0.06474 0.18293 0.58961 0.0
H213 H 0.99859 0.16937 0.60852 0.0
H214 H 0.95449 0.17466 0.64507 0.0
H215 H 0.94847 0.19432 0.68653 0.0
Mn216 Mn 0.31264 0.70856 0.18125 0.0
Mn217 Mn 0.26313 0.62598 0.16147 0.0
C218 C 0.34851 0.65409 0.16663 0.0
C219 C 0.34812 0.74245 0.21081 0.0
C220 C 0.27207 0.70301 0.13312 0.0
O221 O 0.25606 0.71622 0.19543 0.0
O222 O 0.22687 0.65955 0.18137 0.0
C223 C 0.25122 0.58399 0.20654 0.0
N224 N 0.26557 0.5839 0.18429 0.0
C225 C 0.28949 0.51541 0.18823 0.0
C226 C 0.2747 0.51467 0.21114 0.0
C227 C 0.25553 0.54913 0.22033 0.0
C228 C 0.28391 0.55085 0.17523 0.0
H229 H 0.23664 0.61046 0.21373 0.0
C230 C 0.22571 0.69231 0.19339 0.0
O231 O 0.33385 0.76187 0.19289 0.0
O232 O 0.33813 0.70469 0.21261 0.0
N233 N 0.29472 0.59056 0.14231 0.0
C234 C 0.31015 0.59736 0.12063 0.0
C235 C 0.3319 0.56651 0.10937 0.0
C236 C 0.33728 0.52893 0.1204 0.0
C237 C 0.32085 0.52255 0.14263 0.0
C238 C 0.29924 0.55433 0.15295 0.0
H239 H 0.30627 0.62624 0.11211 0.0
O240 O 0.36426 0.68993 0.16722 0.0
O241 O 0.31182 0.65082 0.17474 0.0
O242 O 0.2916 0.72341 0.14841 0.0
O243 O 0.2598 0.66684 0.13655 0.0
C244 C 0.32609 0.48631 0.15523 0.0
C245 C 0.31042 0.48274 0.178 0.0
H246 H 0.27829 0.48797 0.2219 0.0
H247 H 0.24425 0.54887 0.23804 0.0
H248 H 0.34463 0.57172 0.09225 0.0
H249 H 0.35441 0.50535 0.11175 0.0
H250 H 0.34274 0.46124 0.14771 0.0
H251 H 0.3152 0.45496 0.18765 0.0
Mn252 Mn 0.81094 0.81666 0.67957 0.0
Mn253 Mn 0.89011 0.7624 0.65947 0.0
C254 C 0.86517 0.84874 0.66224 0.0
C255 C 0.78112 0.85563 0.70928 0.0
C256 C 0.8124 0.77268 0.63213 0.0
O257 O 0.8021 0.76171 0.69554 0.0
O258 O 0.85525 0.72865 0.67994 0.0
C259 C 0.93158 0.75197 0.70484 0.0
N260 N 0.93217 0.76495 0.68231 0.0
C261 C 1.00092 0.78799 0.68611 0.0
C262 C 1.00114 0.77463 0.70931 0.0
C263 C 0.96628 0.75662 0.71872 0.0
C264 C 0.96546 0.78254 0.67313 0.0
H265 H 0.90483 0.73822 0.71218 0.0
C266 C 0.82358 0.72979 0.6928 0.0
O267 O 0.75954 0.84102 0.69226 0.0
O268 O 0.81858 0.8444 0.71003 0.0
N269 N 0.92675 0.79098 0.63958 0.0
C270 C 0.92131 0.80293 0.61706 0.0
C271 C 0.95318 0.82199 0.60517 0.0
C272 C 0.99043 0.82803 0.61644 0.0
C273 C 0.99553 0.81486 0.63949 0.0
C274 C 0.96272 0.79597 0.65043 0.0
H275 H 0.89277 0.79824 0.60829 0.0
O276 O 0.83026 0.86629 0.66354 0.0
O277 O 0.86782 0.81294 0.67161 0.0
O278 O 0.79323 0.79323 0.64758 0.0
O279 O 0.84853 0.75976 0.63495 0.0
C280 C 0.03177 0.81998 0.65209 0.0
C281 C 0.0344 0.80677 0.67543 0.0
H282 H 0.02783 0.77822 0.72009 0.0
H283 H 0.96615 0.74639 0.73664 0.0
H284 H 0.94904 0.83198 0.58737 0.0
H285 H 0.01491 0.84281 0.60721 0.0
H286 H 0.05775 0.83427 0.64406 0.0
H287 H 0.06228 0.81129 0.68501 0.0
H288 H 0.11735 0.13952 0.39873 0.0
H289 H 0.06403 0.08904 0.40489 0.0
H290 H 0.09684 0.03074 0.34026 0.0
H291 H 0.15034 0.08098 0.33427 0.0
H292 H 1.00043 0.08151 0.37508 0.0
H293 H 0.07928 0.9338 0.38273 0.0
H294 H 0.10407 0.98163 0.388 0.0
H295 H 0.09617 0.96414 0.35865 0.0
C296 C 0.11392 0.11503 0.3863 0.0
C297 C 0.13852 0.1132 0.36641 0.0
C298 C 0.08347 0.08638 0.38976 0.0
C299 C 0.07677 0.05583 0.37319 0.0
C300 C 0.10214 0.05334 0.3536 0.0
H301 H 0.85987 0.93301 0.3324 0.0
H302 H 0.91337 0.98298 0.33918 0.0
C303 C 0.13274 0.08194 0.35019 0.0
C304 C 0.04034 0.02987 0.37489 0.0
H305 H 0.00868 0.93159 0.37443 0.0
C306 C 1.00222 0.04871 0.37522 0.0
C307 C 0.04271 0.98716 0.37529 0.0
C308 C 0.08274 0.96538 0.37636 0.0
C309 C 0.96641 0.02593 0.37518 0.0
C310 C 0.9688 0.98325 0.3744 0.0
C311 C 0.00689 0.96439 0.37485 0.0
C312 C 0.93239 0.95738 0.37218 0.0
C313 C 0.92635 0.04768 0.37614 0.0
C314 C 0.9251 0.92666 0.38854 0.0
C315 C 0.8946 0.89821 0.38464 0.0
C316 C 0.87057 0.90039 0.36452 0.0
C317 C 0.87698 0.93179 0.3485 0.0
C318 C 0.90759 0.96022 0.35235 0.0
H319 H 0.92968 0.07917 0.38268 0.0
H320 H 0.91316 0.0491 0.35837 0.0
H321 H 0.90489 0.03124 0.38759 0.0
H322 H 0.94409 0.92374 0.40384 0.0
H323 H 0.8907 0.87359 0.39692 0.0
H324 H 0.4252 0.64545 0.82925 0.0
H325 H 0.47638 0.59254 0.8347 0.0
H326 H 0.42425 0.56272 0.90147 0.0
H327 H 0.37283 0.61557 0.8959 0.0
H328 H 0.53414 0.57804 0.86961 0.0
H329 H 0.41866 0.45582 0.8651 0.0
H330 H 0.40778 0.50749 0.85701 0.0
H331 H 0.41021 0.49341 0.88722 0.0
C332 C 0.42549 0.62829 0.84535 0.0
C333 C 0.39607 0.63513 0.8625 0.0
C334 C 0.45442 0.59793 0.84837 0.0
C335 C 0.45376 0.57347 0.86837 0.0
C336 C 0.42491 0.58095 0.88579 0.0
H337 H 0.64935 0.40062 0.896 0.0
H338 H 0.59728 0.45283 0.90151 0.0
C339 C 0.39587 0.61122 0.88271 0.0
C340 C 0.4821 0.53896 0.8703 0.0
H341 H 0.48627 0.4356 0.87118 0.0
C342 C 0.52377 0.5469 0.87014 0.0
C343 C 0.46829 0.49839 0.87068 0.0
C344 C 0.42382 0.48805 0.86982 0.0
C345 C 0.55212 0.51528 0.87005 0.0
C346 C 0.53832 0.4747 0.87058 0.0
C347 C 0.49665 0.46677 0.87102 0.0
C348 C 0.56667 0.44016 0.86894 0.0
C349 C 0.59653 0.52559 0.86847 0.0
C350 C 0.56556 0.41475 0.84933 0.0
C351 C 0.59488 0.38475 0.84635 0.0
C352 C 0.62516 0.37924 0.86318 0.0
C353 C 0.62569 0.40396 0.88307 0.0
C354 C 0.59626 0.43386 0.88611 0.0
H355 H 0.60148 0.55753 0.8631 0.0
H356 H 0.61079 0.52126 0.88581 0.0
H357 H 0.61213 0.50543 0.85584 0.0
H358 H 0.54303 0.41923 0.83585 0.0
H359 H 0.59486 0.36693 0.83048 0.0
H360 H 0.65682 0.42699 0.19149 0.0
H361 H 0.60624 0.48011 0.18632 0.0
H362 H 0.54675 0.40713 0.13399 0.0
H363 H 0.60125 0.35748 0.13655 0.0
H364 H 0.53327 0.47676 0.12278 0.0
H365 H 0.503 0.47382 0.21728 0.0
H366 H 0.55335 0.49162 0.21239 0.0
H367 H 0.53951 0.44062 0.20411 0.0
C368 C 0.63432 0.42364 0.17793 0.0
C369 C 0.63398 0.3892 0.16366 0.0
C370 C 0.60443 0.45326 0.17556 0.0
C371 C 0.57151 0.44715 0.1604 0.0
C372 C 0.57158 0.41285 0.14587 0.0
H373 H 0.35366 0.58466 0.19181 0.0
H374 H 0.40254 0.52992 0.18713 0.0
C375 C 0.60267 0.38435 0.14738 0.0
C376 C 0.53619 0.47525 0.16034 0.0
H377 H 0.47278 0.52793 0.19608 0.0
C378 C 0.51969 0.48743 0.13886 0.0
C379 C 0.51729 0.48841 0.18121 0.0
C380 C 0.52894 0.47248 0.20498 0.0
C381 C 0.48538 0.51247 0.13766 0.0
C382 C 0.46889 0.52856 0.15852 0.0
C383 C 0.48529 0.51615 0.17997 0.0
C384 C 0.43523 0.55865 0.15877 0.0
C385 C 0.4666 0.51988 0.11405 0.0
C386 C 0.43617 0.59281 0.14415 0.0
C387 C 0.4062 0.6225 0.14572 0.0
C388 C 0.37544 0.61939 0.16246 0.0
C389 C 0.37529 0.58626 0.17768 0.0
C390 C 0.40401 0.55552 0.17537 0.0
H391 H 0.47154 0.49359 0.10228 0.0
H392 H 0.43355 0.52542 0.11531 0.0
H393 H 0.48127 0.54649 0.10583 0.0
H394 H 0.46084 0.59747 0.13207 0.0
H395 H 0.40796 0.64875 0.13445 0.0
H396 H 0.14166 0.12026 0.62556 0.0
H397 H 0.0919 0.06693 0.61751 0.0
H398 H 0.03075 0.09522 0.68194 0.0
H399 H 0.08038 0.14853 0.68988 0.0
H400 H 0.08287 1.00107 0.64597 0.0
H401 H 0.93599 0.0809 0.63726 0.0
H402 H 0.98412 0.10553 0.63284 0.0
H403 H 0.96548 0.09697 0.6619 0.0
C404 C 0.11674 0.11581 0.63756 0.0
C405 C 0.11389 0.13913 0.65794 0.0
C406 C 0.08851 0.08537 0.63302 0.0
C407 C 0.05731 0.07748 0.64896 0.0
C408 C 0.05388 0.1015 0.66908 0.0
H409 H 0.93327 0.86192 0.68742 0.0
H410 H 0.98415 0.91433 0.68031 0.0
C411 C 0.0821 0.13201 0.67359 0.0
C412 C 0.03144 0.04122 0.64605 0.0
H413 H 0.93313 0.01011 0.645 0.0
C414 C 0.05012 1.00302 0.64543 0.0
C415 C 0.98883 0.04383 0.64504 0.0
C416 C 0.96731 0.08401 0.64408 0.0
C417 C 0.02718 0.9673 0.64482 0.0
C418 C 0.98452 0.96991 0.64525 0.0
C419 C 0.96589 0.00813 0.64487 0.0
C420 C 0.95841 0.93369 0.64741 0.0
C421 C 0.04872 0.92712 0.64369 0.0
C422 C 0.92726 0.92697 0.63123 0.0
C423 C 0.89821 0.89715 0.63535 0.0
C424 C 0.90026 0.87322 0.6555 0.0
C425 C 0.93211 0.87897 0.67131 0.0
C426 C 0.9611 0.90893 0.66725 0.0
H427 H 0.08014 0.93042 0.63708 0.0
H428 H 0.05031 0.91381 0.66142 0.0
H429 H 0.03213 0.90575 0.63222 0.0
H430 H 0.92442 0.946 0.61594 0.0
H431 H 0.87327 0.89374 0.62324 0.0
H432 H 0.28742 0.16966 0.42699 0.0
H433 H 0.28725 0.18936 0.46786 0.0
H434 H 0.20423 0.28646 0.45252 0.0
H435 H 0.20338 0.2663 0.41135 0.0
H436 H 0.30475 0.25845 0.49314 0.0
H437 H 0.14167 0.2188 0.49974 0.0
H438 H 0.17175 0.2062 0.47455 0.0
H439 H 0.15335 0.25697 0.47851 0.0
C440 C 0.26942 0.19559 0.43212 0.0
C441 C 0.2449 0.216 0.4158 0.0
C442 C 0.2695 0.20687 0.45559 0.0
C443 C 0.24508 0.23881 0.4634 0.0
C444 C 0.22267 0.26112 0.44697 0.0
H445 H 0.1734 0.30214 0.60451 0.0
H446 H 0.18969 0.30575 0.56312 0.0
C447 C 0.22249 0.24978 0.42338 0.0
C448 C 0.24112 0.24641 0.4889 0.0
H449 H 0.17339 0.24223 0.53381 0.0
C450 C 0.27598 0.2552 0.50203 0.0
C451 C 0.20366 0.24171 0.50056 0.0
C452 C 0.1655 0.23005 0.48772 0.0
C453 C 0.27432 0.25957 0.52644 0.0
C454 C 0.23692 0.25453 0.53806 0.0
C455 C 0.20203 0.24631 0.52489 0.0
C456 C 0.23288 0.25659 0.56389 0.0
C457 C 0.31253 0.26978 0.53956 0.0
C458 C 0.25268 0.2285 0.57837 0.0
C459 C 0.24354 0.22644 0.60224 0.0
C460 C 0.21408 0.25215 0.61198 0.0
C461 C 0.19611 0.28172 0.59763 0.0
C462 C 0.20534 0.28383 0.5739 0.0
H463 H 0.33573 0.28335 0.52794 0.0
H464 H 0.30623 0.29115 0.55407 0.0
H465 H 0.32536 0.24164 0.54711 0.0
H466 H 0.27351 0.20665 0.57101 0.0
H467 H 0.25763 0.20304 0.61269 0.0
H468 H 0.34076 0.79973 0.91977 0.0
H469 H 0.32543 0.80368 0.96132 0.0
H470 H 0.24088 0.70508 0.95425 0.0
H471 H 0.25568 0.70118 0.91238 0.0
H472 H 0.21565 0.76807 0.9862 0.0
H473 H 0.37214 0.71454 1.00369 0.0
H474 H 0.36902 0.75932 0.98604 0.0
H475 H 0.34947 0.71221 0.9751 0.0
C476 C 0.31829 0.77932 0.9269 0.0
C477 C 0.29977 0.74981 0.91273 0.0
C478 C 0.30972 0.78153 0.95071 0.0
C479 C 0.28276 0.75406 0.96099 0.0
C480 C 0.26201 0.72642 0.94669 0.0
H481 H 0.22097 0.67569 0.09915 0.0
H482 H 0.2207 0.69393 0.05804 0.0
C483 C 0.27039 0.72433 0.92273 0.0
C484 C 0.2788 0.75218 0.98681 0.0
H485 H 0.33253 0.73181 0.03635 0.0
C486 C 0.24118 0.76021 0.99719 0.0
C487 C 0.31216 0.74192 1.00115 0.0
C488 C 0.35291 0.73114 0.99099 0.0
C489 C 0.23613 0.75853 0.02156 0.0
C490 C 0.26944 0.74791 0.03586 0.0
C491 C 0.30711 0.74036 0.02544 0.0
C492 C 0.26551 0.74132 0.06144 0.0
C493 C 0.19528 0.76845 0.03177 0.0
C494 C 0.29066 0.762 0.07725 0.0
C495 C 0.29102 0.75151 0.10095 0.0
C496 C 0.26659 0.71972 0.10923 0.0
C497 C 0.2402 0.70034 0.09347 0.0
C498 C 0.23976 0.71094 0.06989 0.0
H499 H 0.17728 0.78792 0.01985 0.0
H500 H 0.17816 0.73994 0.03451 0.0
H501 H 0.19831 0.78404 0.04884 0.0
H502 H 0.31102 0.78537 0.07109 0.0
H503 H 0.31193 0.76686 0.11249 0.0
H504 H 0.75034 0.81518 0.61143 0.0
H505 H 0.73096 0.81354 0.57015 0.0
H506 H 0.81616 0.71693 0.55803 0.0
H507 H 0.83511 0.71787 0.59902 0.0
H508 H 0.7846 0.8306 0.53518 0.0
H509 H 0.72024 0.67804 0.52029 0.0
H510 H 0.72584 0.69949 0.54908 0.0
H511 H 0.76841 0.67647 0.53469 0.0
C512 C 0.76399 0.79272 0.60014 0.0
C513 C 0.79436 0.76673 0.6086 0.0
C514 C 0.75305 0.79196 0.5765 0.0
C515 C 0.77184 0.76486 0.56096 0.0
C516 C 0.80058 0.73754 0.56966 0.0
H517 H 0.81156 0.75609 0.41142 0.0
H518 H 0.80889 0.74034 0.45327 0.0
C519 C 0.81161 0.73835 0.59318 0.0
C520 C 0.76534 0.76833 0.53534 0.0
H521 H 0.74211 0.7142 0.48619 0.0
C522 C 0.77473 0.80529 0.52454 0.0
C523 C 0.75297 0.73516 0.52136 0.0
C524 C 0.74091 0.69516 0.53196 0.0
C525 C 0.77309 0.80974 0.50022 0.0
C526 C 0.76115 0.7765 0.48623 0.0
C527 C 0.75138 0.73958 0.49694 0.0
C528 C 0.75849 0.78024 0.46046 0.0
C529 C 0.78522 0.84975 0.48958 0.0
C530 C 0.72991 0.80639 0.45051 0.0
C531 C 0.73133 0.81538 0.42674 0.0
C532 C 0.7613 0.79828 0.41231 0.0
C533 C 0.78801 0.76965 0.42198 0.0
C534 C 0.78663 0.76074 0.44591 0.0
H535 H 0.8018 0.86923 0.50217 0.0
H536 H 0.80459 0.84498 0.474 0.0
H537 H 0.75766 0.86625 0.48393 0.0
H538 H 0.7076 0.82131 0.46136 0.0
H539 H 0.71001 0.83726 0.41988 0.0
H540 H 0.71928 0.20574 0.91467 0.0
H541 H 0.73402 0.20022 0.95646 0.0
H542 H 0.7458 0.33026 0.96058 0.0
H543 H 0.7346 0.33519 0.91855 0.0
H544 H 0.79464 0.30068 0.98946 0.0
H545 H 0.65039 0.21893 1.00336 0.0
H546 H 0.6846 0.1907 0.98544 0.0
H547 H 0.66469 0.23842 0.97528 0.0
C548 C 0.72625 0.2329 0.92449 0.0
C549 C 0.72619 0.27083 0.91346 0.0
C550 C 0.73392 0.22987 0.94845 0.0
C551 C 0.73951 0.26493 0.96205 0.0
C552 C 0.7414 0.30266 0.95068 0.0
H553 H 0.67386 0.29822 0.10545 0.0
H554 H 0.67785 0.28525 0.06359 0.0
C555 C 0.73518 0.30552 0.92661 0.0
C556 C 0.74156 0.26296 0.9881 0.0
H557 H 0.69202 0.22769 0.03632 0.0
C558 C 0.77211 0.28473 0.99968 0.0
C559 C 0.71189 0.24267 1.00165 0.0
C560 C 0.67584 0.22176 0.99081 0.0
C561 C 0.77323 0.28781 0.02415 0.0
C562 C 0.74429 0.2665 0.03769 0.0
C563 C 0.7145 0.24372 0.02611 0.0
C564 C 0.74179 0.27042 0.06365 0.0
C565 C 0.8041 0.31581 0.03498 0.0
C566 C 0.77593 0.26513 0.07805 0.0
C567 C 0.77377 0.27363 0.10199 0.0
C568 C 0.73701 0.28563 0.11208 0.0
C569 C 0.70235 0.28818 0.09807 0.0
C570 C 0.70474 0.28094 0.07411 0.0
H571 H 0.81552 0.33839 0.02222 0.0
H572 H 0.79119 0.33244 0.05007 0.0
H573 H 0.83039 0.2978 0.04107 0.0
H574 H 0.80455 0.25561 0.07072 0.0
H575 H 0.80097 0.2719 0.1125 0.0
H576 H 0.63715 0.3006 0.2567 0.0
H577 H 0.57473 0.28457 0.27762 0.0
H578 H 0.54802 0.19106 0.22738 0.0
H579 H 0.61125 0.20587 0.20701 0.0
H580 H 0.50086 0.29364 0.26261 0.0
H581 H 0.51977 0.13198 0.28531 0.0
H582 H 0.56118 0.16244 0.27478 0.0
H583 H 0.52547 0.14059 0.25464 0.0
C584 C 0.61862 0.27573 0.25055 0.0
C585 C 0.62946 0.25423 0.23032 0.0
C586 C 0.58267 0.26681 0.26241 0.0
C587 C 0.55646 0.23641 0.25426 0.0
C588 C 0.56796 0.21396 0.23448 0.0
H589 H 0.2967 0.23181 0.29085 0.0
H590 H 0.36157 0.24419 0.27118 0.0
C591 C 0.60427 0.22246 0.2228 0.0
C592 C 0.51601 0.23036 0.26546 0.0
H593 H 0.45314 0.15889 0.28876 0.0
C594 C 0.49059 0.26417 0.26847 0.0
C595 C 0.50241 0.19204 0.27328 0.0
C596 C 0.52881 0.1548 0.27207 0.0
C597 C 0.45228 0.26079 0.27904 0.0
C598 C 0.43816 0.22225 0.2862 0.0
C599 C 0.46357 0.18845 0.28313 0.0
C600 C 0.39828 0.21629 0.29807 0.0
C601 C 0.42797 0.29886 0.28306 0.0
C602 C 0.39687 0.19588 0.31951 0.0
C603 C 0.35993 0.18809 0.33045 0.0
C604 C 0.3232 0.20081 0.32041 0.0
C605 C 0.32445 0.22205 0.29918 0.0
C606 C 0.36161 0.22928 0.28797 0.0
H607 H 0.44748 0.32626 0.28293 0.0
H608 H 0.4054 0.30219 0.26887 0.0
H609 H 0.41162 0.29767 0.29994 0.0
H610 H 0.4245 0.18563 0.3278 0.0
H611 H 0.36019 0.17185 0.34686 0.0
H612 H 0.37457 0.85048 0.82356 0.0
H613 H 0.35975 0.91452 0.80451 0.0
H614 H 0.24271 0.8696 0.78382 0.0
H615 H 0.25738 0.80454 0.80288 0.0
H616 H 0.28466 0.91174 0.74791 0.0
H617 H 0.28238 1.00112 0.82973 0.0
H618 H 0.32753 0.97158 0.82599 0.0
H619 H 0.2796 0.94652 0.82944 0.0
C620 C 0.34551 0.85391 0.81505 0.0
C621 C 0.317 0.82211 0.81504 0.0
C622 C 0.33707 0.89085 0.8042 0.0
C623 C 0.29983 0.8973 0.7931 0.0
C624 C 0.27157 0.86545 0.79245 0.0
H625 H 0.19894 0.12814 0.75023 0.0
H626 H 0.21675 0.0652 0.77005 0.0
C627 C 0.27999 0.82825 0.80337 0.0
C628 C 0.29088 0.93736 0.78221 0.0
H629 H 0.28345 0.03857 0.79434 0.0
C630 C 0.28425 0.93946 0.75806 0.0
C631 C 0.28997 0.97357 0.79547 0.0
C632 C 0.29486 0.97322 0.82162 0.0
C633 C 0.27746 0.97676 0.74678 0.0
C634 C 0.27791 0.01312 0.75994 0.0
C635 C 0.28379 0.01088 0.78416 0.0
C636 C 0.2699 0.05348 0.74913 0.0
C637 C 0.26903 0.9768 0.72093 0.0
C638 C 0.29482 0.06901 0.73136 0.0
C639 C 0.28481 0.10538 0.72002 0.0
C640 C 0.24969 0.1269 0.72626 0.0
C641 C 0.2262 0.1124 0.74495 0.0
C642 C 0.23626 0.07625 0.75627 0.0
H643 H 0.26032 0.94627 0.71452 0.0
H644 H 0.24445 0.99845 0.71658 0.0
H645 H 0.29672 0.98631 0.71148 0.0
H646 H 0.32147 0.0525 0.72587 0.0
H647 H 0.30347 0.11553 0.70565 0.0
H648 H 0.64938 0.84569 0.34143 0.0
H649 H 0.5856 0.83202 0.32177 0.0
H650 H 0.64946 0.76869 0.26724 0.0
H651 H 0.71383 0.78106 0.28752 0.0
H652 H 0.55882 0.85657 0.28167 0.0
H653 H 0.5618 0.68877 0.28003 0.0
H654 H 0.59749 0.71806 0.2968 0.0
H655 H 0.60467 0.7113 0.26594 0.0
C656 C 0.64998 0.82849 0.32534 0.0
C657 C 0.68684 0.81441 0.31608 0.0
C658 C 0.61333 0.82076 0.31406 0.0
C659 C 0.61232 0.79901 0.29304 0.0
C660 C 0.6491 0.78471 0.2837 0.0
H661 H 0.39983 0.80486 0.20089 0.0
H662 H 0.4634 0.82062 0.22077 0.0
C663 C 0.68597 0.79193 0.29525 0.0
C664 C 0.57271 0.79283 0.28088 0.0
H665 H 0.5091 0.72065 0.25887 0.0
C666 C 0.54796 0.82678 0.27675 0.0
C667 C 0.55806 0.75399 0.27464 0.0
C668 C 0.58168 0.71591 0.27977 0.0
C669 C 0.5092 0.82304 0.26679 0.0
C670 C 0.49499 0.78434 0.25998 0.0
C671 C 0.51983 0.7504 0.26398 0.0
C672 C 0.4544 0.77798 0.24898 0.0
C673 C 0.48347 0.86057 0.26442 0.0
C674 C 0.42773 0.74883 0.25808 0.0
C675 C 0.39161 0.73937 0.24653 0.0
C676 C 0.38101 0.75908 0.22567 0.0
C677 C 0.40663 0.78971 0.21717 0.0
C678 C 0.44314 0.79873 0.22856 0.0
H679 H 0.49294 0.88448 0.27692 0.0
H680 H 0.48699 0.87302 0.24657 0.0
H681 H 0.45098 0.85377 0.26737 0.0
H682 H 0.43547 0.73241 0.27381 0.0
H683 H 0.37273 0.71541 0.25344 0.0
H684 H 0.65023 0.16325 0.82677 0.0
H685 H 0.66445 0.09958 0.8072 0.0
H686 H 0.77852 0.14674 0.78303 0.0
H687 H 0.7644 0.21153 0.8026 0.0
H688 H 0.73426 0.10433 0.74834 0.0
H689 H 0.745 0.01382 0.8294 0.0
H690 H 0.69906 0.04259 0.82728 0.0
H691 H 0.74681 0.06845 0.82938 0.0
C692 C 0.67854 0.1604 0.81741 0.0
C693 C 0.70635 0.19279 0.81655 0.0
C694 C 0.68666 0.12366 0.80626 0.0
C695 C 0.72288 0.11794 0.794 0.0
C696 C 0.75046 0.15031 0.79256 0.0
H697 H 0.81911 0.88687 0.74743 0.0
H698 H 0.80361 0.94982 0.76787 0.0
C699 C 0.74236 0.18735 0.80379 0.0
C700 C 0.73133 0.07815 0.78263 0.0
H701 H 0.7401 0.97678 0.79389 0.0
C702 C 0.73574 0.07646 0.7583 0.0
C703 C 0.73364 0.04173 0.79561 0.0
C704 C 0.73128 0.04162 0.82188 0.0
C705 C 0.74157 0.03936 0.7466 0.0
C706 C 0.74236 1.00277 0.75952 0.0
C707 C 0.7388 1.00462 0.7839 0.0
C708 C 0.7492 0.96254 0.74823 0.0
C709 C 0.74766 0.03982 0.72053 0.0
C710 C 0.72288 0.94756 0.73096 0.0
C711 C 0.73161 0.91122 0.71923 0.0
C712 C 0.76679 0.8891 0.7246 0.0
C713 C 0.79176 0.90306 0.7428 0.0
C714 C 0.78301 0.93923 0.7545 0.0
H715 H 0.75617 0.0704 0.71413 0.0
H716 H 0.77153 0.01799 0.71527 0.0
H717 H 0.71901 0.03091 0.71184 0.0
H718 H 0.69604 0.96445 0.72618 0.0
H719 H 0.7118 0.90147 0.70527 0.0
H720 H 0.12947 0.19807 0.27535 0.0
H721 H 0.06756 0.21516 0.25443 0.0
H722 H 0.0523 0.32089 0.29767 0.0
H723 H 0.11431 0.30351 0.31906 0.0
H724 H 0.98296 0.27414 0.29528 0.0
H725 H 0.04184 0.30105 0.20628 0.0
H726 H 0.05752 0.25327 0.21812 0.0
H727 H 0.07434 0.29956 0.23156 0.0
C728 C 0.11355 0.22553 0.28011 0.0
C729 C 0.1271 0.24954 0.29885 0.0
C730 C 0.07806 0.23531 0.26805 0.0
C731 C 0.05524 0.2695 0.27429 0.0
C732 C 0.06939 0.29439 0.29247 0.0
H733 H 0.8526 0.36438 0.1955 0.0
H734 H 0.91638 0.352 0.21532 0.0
C735 C 0.10509 0.28465 0.30455 0.0
C736 C 0.01546 0.27752 0.26282 0.0
H737 H 0.97054 0.29166 0.20974 0.0
C738 C 0.98028 0.27825 0.27659 0.0
C739 C 0.01181 0.28305 0.23843 0.0
C740 C 0.04842 0.28461 0.22275 0.0
C741 C 0.94167 0.28377 0.26664 0.0
C742 C 0.93793 0.28803 0.24216 0.0
C743 C 0.9732 0.28787 0.22845 0.0
C744 C 0.89811 0.29492 0.23046 0.0
C745 C 0.90533 0.28581 0.2825 0.0
C746 C 0.86621 0.26681 0.23214 0.0
C747 C 0.82916 0.27386 0.22076 0.0
C748 C 0.82337 0.30903 0.20729 0.0
C749 C 0.85563 0.33684 0.20559 0.0
C750 C 0.89237 0.32984 0.21696 0.0
H751 H 0.91414 0.29223 0.30083 0.0
H752 H 0.8838 0.30952 0.27663 0.0
H753 H 0.88941 0.25623 0.28217 0.0
H754 H 0.87008 0.2392 0.24206 0.0
H755 H 0.8052 0.25168 0.22243 0.0
H756 H 0.13495 0.34867 0.70393 0.0
H757 H 0.14949 0.41264 0.72307 0.0
H758 H 0.26953 0.3709 0.73991 0.0
H759 H 0.25514 0.30579 0.72068 0.0
H760 H 0.22921 0.41223 0.77723 0.0
H761 H 0.22248 0.50085 0.6953 0.0
H762 H 0.17858 0.46997 0.70016 0.0
H763 H 0.22699 0.44637 0.69561 0.0
C764 C 0.16461 0.35277 0.71161 0.0
C765 C 0.19408 0.32193 0.71042 0.0
C766 C 0.17285 0.38964 0.72254 0.0
C767 C 0.21085 0.39702 0.7325 0.0
C768 C 0.24006 0.36601 0.73213 0.0
H769 H 0.30642 0.6315 0.77253 0.0
H770 H 0.28924 0.56805 0.75308 0.0
C771 C 0.2318 0.32879 0.72115 0.0
C772 C 0.21959 0.43734 0.74309 0.0
H773 H 0.22225 0.53861 0.73063 0.0
C774 C 0.22789 0.43986 0.76705 0.0
C775 C 0.21821 0.47342 0.72976 0.0
C776 C 0.21147 0.47265 0.70374 0.0
C777 C 0.23405 0.47749 0.77809 0.0
C778 C 0.23118 0.51368 0.7649 0.0
C779 C 0.22372 0.51102 0.74085 0.0
C780 C 0.23837 0.5544 0.77544 0.0
C781 C 0.24437 0.47808 0.80371 0.0
C782 C 0.21433 0.56904 0.79385 0.0
C783 C 0.22396 0.60571 0.80498 0.0
C784 C 0.25781 0.62838 0.79787 0.0
C785 C 0.28015 0.61485 0.77848 0.0
C786 C 0.27047 0.5784 0.76737 0.0
H787 H 0.25483 0.44799 0.80993 0.0
H788 H 0.26831 0.50077 0.80745 0.0
H789 H 0.21702 0.48649 0.81384 0.0
H790 H 0.18879 0.55156 0.80004 0.0
H791 H 0.20626 0.6151 0.81992 0.0
H792 H 0.15743 0.64566 0.19503 0.0
H793 H 0.09351 0.65987 0.21427 0.0
H794 H 0.14032 0.77396 0.23885 0.0
H795 H 0.20535 0.75979 0.21968 0.0
H796 H 0.09792 0.73047 0.27321 0.0
H797 H 0.00763 0.73957 0.192 0.0
H798 H 0.03617 0.69352 0.1944 0.0
H799 H 0.06222 0.74117 0.19204 0.0
C800 C 0.15442 0.67399 0.20439 0.0
C801 C 0.18679 0.70176 0.20552 0.0
C802 C 0.11753 0.6821 0.21535 0.0
C803 C 0.11166 0.71832 0.22764 0.0
C804 C 0.144 0.74591 0.22929 0.0
H805 H 0.8812 0.81619 0.2731 0.0
H806 H 0.94385 0.7995 0.25278 0.0
C807 C 0.18117 0.73779 0.21828 0.0
C808 C 0.07182 0.72675 0.23891 0.0
H809 H 0.97055 0.73522 0.22748 0.0
C810 C 0.07009 0.73169 0.26321 0.0
C811 C 0.03544 0.72873 0.22587 0.0
C812 C 0.03536 0.72587 0.19961 0.0
C813 C 0.03301 0.73782 0.27483 0.0
C814 C 0.99647 0.73832 0.26186 0.0
C815 C 0.99835 0.73413 0.23751 0.0
C816 C 0.9563 0.7457 0.27304 0.0
C817 C 0.03345 0.74459 0.30084 0.0
C818 C 0.94123 0.72007 0.29061 0.0
C819 C 0.90505 0.7295 0.30229 0.0
C820 C 0.8832 0.76469 0.29655 0.0
C821 C 0.89719 0.78887 0.27802 0.0
C822 C 0.93319 0.77943 0.26639 0.0
H823 H 0.06402 0.7532 0.30721 0.0
H824 H 0.0117 0.76868 0.30589 0.0
H825 H 0.02446 0.71619 0.30976 0.0
H826 H 0.95795 0.69329 0.29569 0.0
H827 H 0.89527 0.71029 0.31651 0.0
H828 H 0.71744 0.37829 0.77023 0.0
H829 H 0.73326 0.44103 0.74958 0.0
H830 H 0.82381 0.46947 0.80123 0.0
H831 H 0.8091 0.40591 0.82144 0.0
H832 H 0.72209 0.51502 0.76511 0.0
H833 H 0.88455 0.49841 0.74363 0.0
H834 H 0.85429 0.45646 0.75367 0.0
H835 H 0.87469 0.4924 0.77417 0.0
C836 C 0.74164 0.39728 0.77678 0.0
C837 C 0.76229 0.38685 0.79736 0.0
C838 C 0.75042 0.4334 0.76506 0.0
C839 C 0.77986 0.4602 0.77371 0.0
C840 C 0.80161 0.4491 0.79382 0.0
H841 H 0.78205 0.71935 0.73419 0.0
H842 H 0.77047 0.65536 0.75504 0.0
C843 C 0.79321 0.4126 0.80538 0.0
C844 C 0.78555 0.50074 0.76257 0.0
H845 H 0.85624 0.56408 0.73892 0.0
C846 C 0.75144 0.52563 0.75928 0.0
C847 C 0.82374 0.51476 0.75484 0.0
C848 C 0.86132 0.48896 0.75653 0.0
C849 C 0.75435 0.56374 0.7484 0.0
C850 C 0.79269 0.57813 0.74114 0.0
C851 C 0.82684 0.55337 0.74461 0.0
C852 C 0.79805 0.61746 0.72859 0.0
C853 C 0.71606 0.5875 0.74412 0.0
C854 C 0.81785 0.61785 0.70696 0.0
C855 C 0.82509 0.65425 0.69532 0.0
C856 C 0.81245 0.69146 0.70484 0.0
C857 C 0.79175 0.6912 0.72626 0.0
C858 C 0.78501 0.65456 0.73815 0.0
H859 H 0.68882 0.56781 0.74477 0.0
H860 H 0.71279 0.61093 0.75786 0.0
H861 H 0.71689 0.60286 0.72692 0.0
H862 H 0.82808 0.58983 0.69908 0.0
H863 H 0.8409 0.6532 0.67879 0.0
loop_
_geom_bond_atom_site_label_1
_geom_bond_atom_site_label_2
_geom_bond_distance
_geom_bond_site_symmetry_2
_ccdc_geom_bond_type
Mn0 O5 2.095 . S
Mn0 O15 2.162 . S
Mn0 O16 2.297 . S
Mn0 O24 2.385 . S
Mn0 O25 2.209 . S
Mn0 O26 2.094 . S
Mn1 O6 2.121 . S
Mn1 N8 2.257 . S
Mn1 N17 2.282 . S
Mn1 O25 2.215 . S
Mn1 O27 2.117 . S
C2 O24 1.234 . S
C2 O25 1.283 . S
C3 O15 1.281 . S
C3 O16 1.236 . S
C4 O26 1.240 . S
C4 O27 1.264 . S
O5 Mn0 2.095 . S
O5 C14 1.250 . S
O6 Mn1 2.121 . S
O6 C14 1.258 . S
C7 N8 1.326 . S
C7 C11 1.460 . S
C7 H13 0.929 . S
N8 Mn1 2.257 . S
N8 C7 1.326 . S
N8 C12 1.362 . S
C9 C10 1.258 . S
C9 C12 1.431 . S
C9 C29 1.449 1_545 S
C10 C9 1.258 . S
C10 C11 1.477 . S
C10 H30 0.931 . S
C11 C7 1.460 . S
C11 C10 1.477 . S
C11 H31 0.930 . S
C12 N8 1.362 . S
C12 C9 1.431 . S
C12 C22 1.476 . S
H13 C7 0.929 . S
C14 O5 1.250 . S
C14 O6 1.258 . S
O15 Mn0 2.162 . S
O15 C3 1.281 . S
O16 Mn0 2.297 . S
O16 C3 1.236 . S
N17 Mn1 2.282 . S
N17 C18 1.328 . S
N17 C22 1.318 . S
C18 N17 1.328 . S
C18 C19 1.457 . S
C18 H23 0.929 . S
C19 C18 1.457 . S
C19 C20 1.291 . S
C19 H32 0.931 . S
C20 C19 1.291 . S
C20 C21 1.373 . S
C20 H33 0.929 . S
C21 C20 1.373 . S
C21 C22 1.396 . S
C21 C28 1.403 1_545 S
C22 C12 1.476 . S
C22 N17 1.318 . S
C22 C21 1.396 . S
H23 C18 0.929 . S
O24 Mn0 2.385 . S
O24 C2 1.234 . S
O25 Mn0 2.209 . S
O25 Mn1 2.215 . S
O25 C2 1.283 . S
O26 Mn0 2.094 . S
O26 C4 1.240 . S
O27 Mn1 2.117 . S
O27 C4 1.264 . S
C28 C21 1.403 1_565 S
C28 C29 1.399 . S
C28 H34 0.929 . S
C29 C9 1.449 1_565 S
C29 C28 1.399 . S
C29 H35 0.930 . S
H30 C10 0.931 . S
H31 C11 0.930 . S
H32 C19 0.931 . S
H33 C20 0.929 . S
H34 C28 0.929 . S
H35 C29 0.930 . S
Mn36 O41 2.095 . S
Mn36 O51 2.162 . S
Mn36 O52 2.297 . S
Mn36 O60 2.385 . S
Mn36 O61 2.209 . S
Mn36 O62 2.094 . S
Mn37 O42 2.121 . S
Mn37 N44 2.257 . S
Mn37 N53 2.282 . S
Mn37 O61 2.215 . S
Mn37 O63 2.117 . S
C38 O60 1.234 . S
C38 O61 1.283 . S
C39 O51 1.281 . S
C39 O52 1.236 . S
C40 O62 1.240 . S
C40 O63 1.264 . S
O41 Mn36 2.095 . S
O41 C50 1.250 . S
O42 Mn37 2.121 . S
O42 C50 1.258 . S
C43 N44 1.326 . S
C43 C47 1.460 . S
C43 H49 0.929 . S
N44 Mn37 2.257 . S
N44 C43 1.326 . S
N44 C48 1.362 . S
C45 C46 1.258 . S
C45 C48 1.431 . S
C45 C65 1.449 . S
C46 C45 1.258 . S
C46 C47 1.477 . S
C46 H66 0.931 . S
C47 C43 1.460 . S
C47 C46 1.477 . S
C47 H67 0.930 . S
C48 N44 1.362 . S
C48 C45 1.431 . S
C48 C58 1.476 . S
H49 C43 0.929 . S
C50 O41 1.250 . S
C50 O42 1.258 . S
O51 Mn36 2.162 . S
O51 C39 1.281 . S
O52 Mn36 2.297 . S
O52 C39 1.236 . S
N53 Mn37 2.282 . S
N53 C54 1.328 . S
N53 C58 1.318 . S
C54 N53 1.328 . S
C54 C55 1.457 . S
C54 H59 0.929 . S
C55 C54 1.457 . S
C55 C56 1.291 . S
C55 H68 0.931 . S
C56 C55 1.291 . S
C56 C57 1.373 . S
C56 H69 0.929 . S
C57 C56 1.373 . S
C57 C58 1.396 . S
C57 C64 1.403 . S
C58 C48 1.476 . S
C58 N53 1.318 . S
C58 C57 1.396 . S
H59 C54 0.929 . S
O60 Mn36 2.385 . S
O60 C38 1.234 . S
O61 Mn36 2.209 . S
O61 Mn37 2.215 . S
O61 C38 1.283 . S
O62 Mn36 2.094 . S
O62 C40 1.240 . S
O63 Mn37 2.117 . S
O63 C40 1.264 . S
C64 C57 1.403 . S
C64 C65 1.399 . S
C64 H70 0.929 . S
C65 C45 1.449 . S
C65 C64 1.399 . S
C65 H71 0.930 . S
H66 C46 0.931 . S
H67 C47 0.930 . S
H68 C55 0.931 . S
H69 C56 0.929 . S
H70 C64 0.929 . S
H71 C65 0.930 . S
Mn72 O77 2.095 . S
Mn72 O87 2.162 . S
Mn72 O88 2.297 . S
Mn72 O96 2.385 . S
Mn72 O97 2.209 . S
Mn72 O98 2.094 . S
Mn73 O78 2.121 . S
Mn73 N80 2.257 . S
Mn73 N89 2.282 . S
Mn73 O97 2.215 . S
Mn73 O99 2.117 . S
C74 O96 1.234 . S
C74 O97 1.283 . S
C75 O87 1.281 . S
C75 O88 1.236 . S
C76 O98 1.240 . S
C76 O99 1.264 . S
O77 Mn72 2.095 . S
O77 C86 1.250 . S
O78 Mn73 2.121 . S
O78 C86 1.258 . S
C79 N80 1.326 . S
C79 C83 1.460 . S
C79 H85 0.929 . S
N80 Mn73 2.257 . S
N80 C79 1.326 . S
N80 C84 1.362 . S
C81 C82 1.258 . S
C81 C84 1.431 . S
C81 C101 1.449 1_565 S
C82 C81 1.258 . S
C82 C83 1.477 . S
C82 H102 0.931 . S
C83 C79 1.460 . S
C83 C82 1.477 . S
C83 H103 0.930 . S
C84 N80 1.362 . S
C84 C81 1.431 . S
C84 C94 1.476 . S
H85 C79 0.929 . S
C86 O77 1.250 . S
C86 O78 1.258 . S
O87 Mn72 2.162 . S
O87 C75 1.281 . S
O88 Mn72 2.297 . S
O88 C75 1.236 . S
N89 Mn73 2.282 . S
N89 C90 1.328 . S
N89 C94 1.318 . S
C90 N89 1.328 . S
C90 C91 1.457 . S
C90 H95 0.929 . S
C91 C90 1.457 . S
C91 C92 1.291 . S
C91 H104 0.931 . S
C92 C91 1.291 . S
C92 C93 1.373 . S
C92 H105 0.929 . S
C93 C92 1.373 . S
C93 C94 1.396 . S
C93 C100 1.403 1_565 S
C94 C84 1.476 . S
C94 N89 1.318 . S
C94 C93 1.396 . S
H95 C90 0.929 . S
O96 Mn72 2.385 . S
O96 C74 1.234 . S
O97 Mn72 2.209 . S
O97 Mn73 2.215 . S
O97 C74 1.283 . S
O98 Mn72 2.094 . S
O98 C76 1.240 . S
O99 Mn73 2.117 . S
O99 C76 1.264 . S
C100 C93 1.403 1_545 S
C100 C101 1.399 . S
C100 H106 0.929 . S
C101 C81 1.449 1_545 S
C101 C100 1.399 . S
C101 H107 0.930 . S
H102 C82 0.931 . S
H103 C83 0.930 . S
H104 C91 0.931 . S
H105 C92 0.929 . S
H106 C100 0.929 . S
H107 C101 0.930 . S
Mn108 O113 2.095 . S
Mn108 O123 2.162 . S
Mn108 O124 2.297 . S
Mn108 O132 2.385 . S
Mn108 O133 2.209 . S
Mn108 O134 2.094 . S
Mn109 O114 2.121 . S
Mn109 N116 2.257 . S
Mn109 N125 2.282 . S
Mn109 O133 2.215 . S
Mn109 O135 2.117 . S
C110 O132 1.234 . S
C110 O133 1.283 . S
C111 O123 1.281 . S
C111 O124 1.236 . S
C112 O134 1.240 . S
C112 O135 1.264 . S
O113 Mn108 2.095 . S
O113 C122 1.250 . S
O114 Mn109 2.121 . S
O114 C122 1.258 . S
C115 N116 1.326 . S
C115 C119 1.460 . S
C115 H121 0.929 . S
N116 Mn109 2.257 . S
N116 C115 1.326 . S
N116 C120 1.362 . S
C117 C118 1.258 . S
C117 C120 1.431 . S
C117 C137 1.449 . S
C118 C117 1.258 . S
C118 C119 1.477 . S
C118 H138 0.931 . S
C119 C115 1.460 . S
C119 C118 1.477 . S
C119 H139 0.930 . S
C120 N116 1.362 . S
C120 C117 1.431 . S
C120 C130 1.476 . S
H121 C115 0.929 . S
C122 O113 1.250 . S
C122 O114 1.258 . S
O123 Mn108 2.162 . S
O123 C111 1.281 . S
O124 Mn108 2.297 . S
O124 C111 1.236 . S
N125 Mn109 2.282 . S
N125 C126 1.328 . S
N125 C130 1.318 . S
C126 N125 1.328 . S
C126 C127 1.457 . S
C126 H131 0.929 . S
C127 C126 1.457 . S
C127 C128 1.291 . S
C127 H140 0.931 . S
C128 C127 1.291 . S
C128 C129 1.373 . S
C128 H141 0.929 . S
C129 C128 1.373 . S
C129 C130 1.396 . S
C129 C136 1.403 . S
C130 C120 1.476 . S
C130 N125 1.318 . S
C130 C129 1.396 . S
H131 C126 0.929 . S
O132 Mn108 2.385 . S
O132 C110 1.234 . S
O133 Mn108 2.209 . S
O133 Mn109 2.215 . S
O133 C110 1.283 . S
O134 Mn108 2.094 . S
O134 C112 1.240 . S
O135 Mn109 2.117 . S
O135 C112 1.264 . S
C136 C129 1.403 . S
C136 C137 1.399 . S
C136 H142 0.929 . S
C137 C117 1.449 . S
C137 C136 1.399 . S
C137 H143 0.930 . S
H138 C118 0.931 . S
H139 C119 0.930 . S
H140 C127 0.931 . S
H141 C128 0.929 . S
H142 C136 0.929 . S
H143 C137 0.930 . S
Mn144 O149 2.095 . S
Mn144 O159 2.162 . S
Mn144 O160 2.297 . S
Mn144 O168 2.385 . S
Mn144 O169 2.209 . S
Mn144 O170 2.094 . S
Mn145 O150 2.121 . S
Mn145 N152 2.257 . S
Mn145 N161 2.282 . S
Mn145 O169 2.215 . S
Mn145 O171 2.117 . S
C146 O168 1.234 . S
C146 O169 1.283 . S
C147 O159 1.281 . S
C147 O160 1.236 . S
C148 O170 1.240 . S
C148 O171 1.264 . S
O149 Mn144 2.095 . S
O149 C158 1.250 . S
O150 Mn145 2.121 . S
O150 C158 1.258 . S
C151 N152 1.326 . S
C151 C155 1.460 . S
C151 H157 0.929 . S
N152 Mn145 2.257 . S
N152 C151 1.326 . S
N152 C156 1.362 . S
C153 C154 1.258 . S
C153 C156 1.431 . S
C153 C173 1.449 . S
C154 C153 1.258 . S
C154 C155 1.477 . S
C154 H174 0.931 . S
C155 C151 1.460 . S
C155 C154 1.477 . S
C155 H175 0.930 . S
C156 N152 1.362 . S
C156 C153 1.431 . S
C156 C166 1.476 . S
H157 C151 0.929 . S
C158 O149 1.250 . S
C158 O150 1.258 . S
O159 Mn144 2.162 . S
O159 C147 1.281 . S
O160 Mn144 2.297 . S
O160 C147 1.236 . S
N161 Mn145 2.282 . S
N161 C162 1.328 . S
N161 C166 1.318 . S
C162 N161 1.328 . S
C162 C163 1.457 . S
C162 H167 0.929 . S
C163 C162 1.457 . S
C163 C164 1.291 . S
C163 H176 0.931 . S
C164 C163 1.291 . S
C164 C165 1.373 . S
C164 H177 0.929 . S
C165 C164 1.373 . S
C165 C166 1.396 . S
C165 C172 1.403 . S
C166 C156 1.476 . S
C166 N161 1.318 . S
C166 C165 1.396 . S
H167 C162 0.929 . S
O168 Mn144 2.385 . S
O168 C146 1.234 . S
O169 Mn144 2.209 . S
O169 Mn145 2.215 . S
O169 C146 1.283 . S
O170 Mn144 2.094 . S
O170 C148 1.240 . S
O171 Mn145 2.117 . S
O171 C148 1.264 . S
C172 C165 1.403 . S
C172 C173 1.399 . S
C172 H178 0.929 . S
C173 C153 1.449 . S
C173 C172 1.399 . S
C173 H179 0.930 . S
H174 C154 0.931 . S
H175 C155 0.930 . S
H176 C163 0.931 . S
H177 C164 0.929 . S
H178 C172 0.929 . S
H179 C173 0.930 . S
Mn180 O185 2.095 . S
Mn180 O195 2.162 . S
Mn180 O196 2.297 . S
Mn180 O204 2.385 . S
Mn180 O205 2.209 . S
Mn180 O206 2.094 . S
Mn181 O186 2.121 . S
Mn181 N188 2.257 . S
Mn181 N197 2.282 . S
Mn181 O205 2.215 . S
Mn181 O207 2.117 . S
C182 O204 1.234 . S
C182 O205 1.283 . S
C183 O195 1.281 . S
C183 O196 1.236 . S
C184 O206 1.240 . S
C184 O207 1.264 . S
O185 Mn180 2.095 . S
O185 C194 1.250 . S
O186 Mn181 2.121 . S
O186 C194 1.258 . S
C187 N188 1.326 . S
C187 C191 1.460 . S
C187 H193 0.929 . S
N188 Mn181 2.257 . S
N188 C187 1.326 . S
N188 C192 1.362 . S
C189 C190 1.258 . S
C189 C192 1.431 . S
C189 C209 1.449 1_455 S
C190 C189 1.258 . S
C190 C191 1.477 . S
C190 H210 0.931 . S
C191 C187 1.460 . S
C191 C190 1.477 . S
C191 H211 0.930 . S
C192 N188 1.362 . S
C192 C189 1.431 . S
C192 C202 1.476 . S
H193 C187 0.929 . S
C194 O185 1.250 . S
C194 O186 1.258 . S
O195 Mn180 2.162 . S
O195 C183 1.281 . S
O196 Mn180 2.297 . S
O196 C183 1.236 . S
N197 Mn181 2.282 . S
N197 C198 1.328 . S
N197 C202 1.318 . S
C198 N197 1.328 . S
C198 C199 1.457 . S
C198 H203 0.929 . S
C199 C198 1.457 . S
C199 C200 1.291 . S
C199 H212 0.931 . S
C200 C199 1.291 . S
C200 C201 1.373 . S
C200 H213 0.929 . S
C201 C200 1.373 . S
C201 C202 1.396 . S
C201 C208 1.403 1_455 S
C202 C192 1.476 . S
C202 N197 1.318 . S
C202 C201 1.396 . S
H203 C198 0.929 . S
O204 Mn180 2.385 . S
O204 C182 1.234 . S
O205 Mn180 2.209 . S
O205 Mn181 2.215 . S
O205 C182 1.283 . S
O206 Mn180 2.094 . S
O206 C184 1.240 . S
O207 Mn181 2.117 . S
O207 C184 1.264 . S
C208 C201 1.403 1_655 S
C208 C209 1.399 . S
C208 H214 0.929 . S
C209 C189 1.449 1_655 S
C209 C208 1.399 . S
C209 H215 0.930 . S
H210 C190 0.931 . S
H211 C191 0.930 . S
H212 C199 0.931 . S
H213 C200 0.929 . S
H214 C208 0.929 . S
H215 C209 0.930 . S
Mn216 O221 2.095 . S
Mn216 O231 2.162 . S
Mn216 O232 2.297 . S
Mn216 O240 2.385 . S
Mn216 O241 2.209 . S
Mn216 O242 2.094 . S
Mn217 O222 2.121 . S
Mn217 N224 2.257 . S
Mn217 N233 2.282 . S
Mn217 O241 2.215 . S
Mn217 O243 2.117 . S
C218 O240 1.234 . S
C218 O241 1.283 . S
C219 O231 1.281 . S
C219 O232 1.236 . S
C220 O242 1.240 . S
C220 O243 1.264 . S
O221 Mn216 2.095 . S
O221 C230 1.250 . S
O222 Mn217 2.121 . S
O222 C230 1.258 . S
C223 N224 1.326 . S
C223 C227 1.460 . S
C223 H229 0.929 . S
N224 Mn217 2.257 . S
N224 C223 1.326 . S
N224 C228 1.362 . S
C225 C226 1.258 . S
C225 C228 1.431 . S
C225 C245 1.449 . S
C226 C225 1.258 . S
C226 C227 1.477 . S
C226 H246 0.931 . S
C227 C223 1.460 . S
C227 C226 1.477 . S
C227 H247 0.930 . S
C228 N224 1.362 . S
C228 C225 1.431 . S
C228 C238 1.476 . S
H229 C223 0.929 . S
C230 O221 1.250 . S
C230 O222 1.258 . S
O231 Mn216 2.162 . S
O231 C219 1.281 . S
O232 Mn216 2.297 . S
O232 C219 1.236 . S
N233 Mn217 2.282 . S
N233 C234 1.328 . S
N233 C238 1.318 . S
C234 N233 1.328 . S
C234 C235 1.457 . S
C234 H239 0.929 . S
C235 C234 1.457 . S
C235 C236 1.291 . S
C235 H248 0.931 . S
C236 C235 1.291 . S
C236 C237 1.373 . S
C236 H249 0.929 . S
C237 C236 1.373 . S
C237 C238 1.396 . S
C237 C244 1.403 . S
C238 C228 1.476 . S
C238 N233 1.318 . S
C238 C237 1.396 . S
H239 C234 0.929 . S
O240 Mn216 2.385 . S
O240 C218 1.234 . S
O241 Mn216 2.209 . S
O241 Mn217 2.215 . S
O241 C218 1.283 . S
O242 Mn216 2.094 . S
O242 C220 1.240 . S
O243 Mn217 2.117 . S
O243 C220 1.264 . S
C244 C237 1.403 . S
C244 C245 1.399 . S
C244 H250 0.929 . S
C245 C225 1.449 . S
C245 C244 1.399 . S
C245 H251 0.930 . S
H246 C226 0.931 . S
H247 C227 0.930 . S
H248 C235 0.931 . S
H249 C236 0.929 . S
H250 C244 0.929 . S
H251 C245 0.930 . S
Mn252 O257 2.095 . S
Mn252 O267 2.162 . S
Mn252 O268 2.297 . S
Mn252 O276 2.385 . S
Mn252 O277 2.209 . S
Mn252 O278 2.094 . S
Mn253 O258 2.121 . S
Mn253 N260 2.257 . S
Mn253 N269 2.282 . S
Mn253 O277 2.215 . S
Mn253 O279 2.117 . S
C254 O276 1.234 . S
C254 O277 1.283 . S
C255 O267 1.281 . S
C255 O268 1.236 . S
C256 O278 1.240 . S
C256 O279 1.264 . S
O257 Mn252 2.095 . S
O257 C266 1.250 . S
O258 Mn253 2.121 . S
O258 C266 1.258 . S
C259 N260 1.326 . S
C259 C263 1.460 . S
C259 H265 0.929 . S
N260 Mn253 2.257 . S
N260 C259 1.326 . S
N260 C264 1.362 . S
C261 C262 1.258 . S
C261 C264 1.431 . S
C261 C281 1.449 1_655 S
C262 C261 1.258 . S
C262 C263 1.477 . S
C262 H282 0.931 . S
C263 C259 1.460 . S
C263 C262 1.477 . S
C263 H283 0.930 . S
C264 N260 1.362 . S
C264 C261 1.431 . S
C264 C274 1.476 . S
H265 C259 0.929 . S
C266 O257 1.250 . S
C266 O258 1.258 . S
O267 Mn252 2.162 . S
O267 C255 1.281 . S
O268 Mn252 2.297 . S
O268 C255 1.236 . S
N269 Mn253 2.282 . S
N269 C270 1.328 . S
N269 C274 1.318 . S
C270 N269 1.328 . S
C270 C271 1.457 . S
C270 H275 0.929 . S
C271 C270 1.457 . S
C271 C272 1.291 . S
C271 H284 0.931 . S
C272 C271 1.291 . S
C272 C273 1.373 . S
C272 H285 0.929 . S
C273 C272 1.373 . S
C273 C274 1.396 . S
C273 C280 1.403 1_655 S
C274 C264 1.476 . S
C274 N269 1.318 . S
C274 C273 1.396 . S
H275 C270 0.929 . S
O276 Mn252 2.385 . S
O276 C254 1.234 . S
O277 Mn252 2.209 . S
O277 Mn253 2.215 . S
O277 C254 1.283 . S
O278 Mn252 2.094 . S
O278 C256 1.240 . S
O279 Mn253 2.117 . S
O279 C256 1.264 . S
C280 C273 1.403 1_455 S
C280 C281 1.399 . S
C280 H286 0.929 . S
C281 C261 1.449 1_455 S
C281 C280 1.399 . S
C281 H287 0.930 . S
H282 C262 0.931 . S
H283 C263 0.930 . S
H284 C271 0.931 . S
H285 C272 0.929 . S
H286 C280 0.929 . S
H287 C281 0.930 . S
H288 C296 0.929 . S
H289 C298 0.930 . S
H290 C300 0.930 . S
H291 C303 0.929 . S
H292 C306 0.930 . S
H293 C308 0.960 . S
H294 C308 0.960 1_545 S
H295 C308 0.960 1_545 S
C296 H288 0.929 . S
C296 C297 1.377 . S
C296 C298 1.384 . S
C297 C296 1.377 . S
C297 C303 1.390 . S
C298 H289 0.930 . S
C298 C296 1.384 . S
C298 C299 1.372 . S
C299 C298 1.372 . S
C299 C300 1.400 . S
C299 C304 1.490 . S
C300 H290 0.930 . S
C300 C299 1.400 . S
C300 C303 1.386 . S
H301 C317 0.930 . S
H302 C318 0.931 . S
C303 H291 0.929 . S
C303 C297 1.390 . S
C303 C300 1.386 . S
C304 C299 1.490 . S
C304 C306 1.395 1_455 S
C304 C307 1.391 1_545 S
H305 C311 0.930 . S
C306 H292 0.930 . S
C306 C304 1.395 1_655 S
C306 C309 1.403 . S
C307 C304 1.391 1_565 S
C307 C308 1.525 . S
C307 C311 1.410 . S
C308 H293 0.960 . S
C308 H294 0.960 1_565 S
C308 H295 0.960 1_565 S
C308 C307 1.525 . S
C309 C306 1.403 . S
C309 C310 1.392 1_545 S
C309 C313 1.495 . S
C310 C309 1.392 1_565 S
C310 C311 1.385 1_655 S
C310 C312 1.478 . S
C311 H305 0.930 . S
C311 C307 1.410 . S
C311 C310 1.385 1_455 S
C312 C310 1.478 . S
C312 C314 1.381 . S
C312 C318 1.383 . S
C313 C309 1.495 . S
C313 H319 0.959 . S
C313 H320 0.961 1_545 S
C313 H321 0.960 1_545 S
C314 C312 1.381 . S
C314 C315 1.394 . S
C314 H322 0.930 . S
C315 C314 1.394 . S
C315 C316 1.383 . S
C315 H323 0.929 . S
C316 C315 1.383 . S
C316 C317 1.377 . S
C317 H301 0.930 . S
C317 C316 1.377 . S
C317 C318 1.379 . S
C318 H302 0.931 . S
C318 C312 1.383 . S
C318 C317 1.379 . S
H319 C313 0.959 . S
H320 C313 0.961 1_565 S
H321 C313 0.960 1_565 S
H322 C314 0.930 . S
H323 C315 0.929 . S
H324 C332 0.929 . S
H325 C334 0.930 . S
H326 C336 0.930 . S
H327 C339 0.929 . S
H328 C342 0.930 . S
H329 C344 0.960 . S
H330 C344 0.960 . S
H331 C344 0.960 . S
C332 H324 0.929 . S
C332 C333 1.377 . S
C332 C334 1.384 . S
C333 C332 1.377 . S
C333 C339 1.390 . S
C334 H325 0.930 . S
C334 C332 1.384 . S
C334 C335 1.372 . S
C335 C334 1.372 . S
C335 C336 1.400 . S
C335 C340 1.490 . S
C336 H326 0.930 . S
C336 C335 1.400 . S
C336 C339 1.386 . S
H337 C353 0.930 . S
H338 C354 0.931 . S
C339 H327 0.929 . S
C339 C333 1.390 . S
C339 C336 1.386 . S
C340 C335 1.490 . S
C340 C342 1.395 . S
C340 C343 1.403 . S
H341 C347 0.930 . S
C342 H328 0.930 . S
C342 C340 1.395 . S
C342 C345 1.403 . S
C343 C340 1.403 . S
C343 C344 1.524 . S
C343 C347 1.400 . S
C344 H329 0.960 . S
C344 H330 0.960 . S
C344 H331 0.960 . S
C344 C343 1.524 . S
C345 C342 1.403 . S
C345 C346 1.392 . S
C345 C349 1.495 . S
C346 C345 1.392 . S
C346 C347 1.385 . S
C346 C348 1.478 . S
C347 H341 0.930 . S
C347 C343 1.400 . S
C347 C346 1.385 . S
C348 C346 1.478 . S
C348 C350 1.381 . S
C348 C354 1.383 . S
C349 C345 1.495 . S
C349 H355 0.959 . S
C349 H356 0.961 . S
C349 H357 0.960 . S
C350 C348 1.381 . S
C350 C351 1.394 . S
C350 H358 0.930 . S
C351 C350 1.394 . S
C351 C352 1.383 . S
C351 H359 0.929 . S
C352 C351 1.383 . S
C352 C353 1.377 . S
C353 H337 0.930 . S
C353 C352 1.377 . S
C353 C354 1.379 . S
C354 H338 0.931 . S
C354 C348 1.383 . S
C354 C353 1.379 . S
H355 C349 0.959 . S
H356 C349 0.961 . S
H357 C349 0.960 . S
H358 C350 0.930 . S
H359 C351 0.929 . S
H360 C368 0.929 . S
H361 C370 0.930 . S
H362 C372 0.930 . S
H363 C375 0.929 . S
H364 C378 0.930 . S
H365 C380 0.960 . S
H366 C380 0.960 . S
H367 C380 0.960 . S
C368 H360 0.929 . S
C368 C369 1.377 . S
C368 C370 1.384 . S
C369 C368 1.377 . S
C369 C375 1.390 . S
C370 H361 0.930 . S
C370 C368 1.384 . S
C370 C371 1.372 . S
C371 C370 1.372 . S
C371 C372 1.400 . S
C371 C376 1.490 . S
C372 H362 0.930 . S
C372 C371 1.400 . S
C372 C375 1.386 . S
H373 C389 0.930 . S
H374 C390 0.931 . S
C375 H363 0.929 . S
C375 C369 1.390 . S
C375 C372 1.386 . S
C376 C371 1.490 . S
C376 C378 1.395 . S
C376 C379 1.403 . S
H377 C383 0.930 . S
C378 H364 0.930 . S
C378 C376 1.395 . S
C378 C381 1.403 . S
C379 C376 1.403 . S
C379 C380 1.524 . S
C379 C383 1.400 . S
C380 H365 0.960 . S
C380 H366 0.960 . S
C380 H367 0.960 . S
C380 C379 1.524 . S
C381 C378 1.403 . S
C381 C382 1.392 . S
C381 C385 1.495 . S
C382 C381 1.392 . S
C382 C383 1.385 . S
C382 C384 1.478 . S
C383 H377 0.930 . S
C383 C379 1.400 . S
C383 C382 1.385 . S
C384 C382 1.478 . S
C384 C386 1.381 . S
C384 C390 1.383 . S
C385 C381 1.495 . S
C385 H391 0.959 . S
C385 H392 0.961 . S
C385 H393 0.960 . S
C386 C384 1.381 . S
C386 C387 1.394 . S
C386 H394 0.930 . S
C387 C386 1.394 . S
C387 C388 1.383 . S
C387 H395 0.929 . S
C388 C387 1.383 . S
C388 C389 1.377 . S
C389 H373 0.930 . S
C389 C388 1.377 . S
C389 C390 1.379 . S
C390 H374 0.931 . S
C390 C384 1.383 . S
C390 C389 1.379 . S
H391 C385 0.959 . S
H392 C385 0.961 . S
H393 C385 0.960 . S
H394 C386 0.930 . S
H395 C387 0.929 . S
H396 C404 0.929 . S
H397 C406 0.930 . S
H398 C408 0.930 . S
H399 C411 0.929 . S
H400 C414 0.930 . S
H401 C416 0.960 . S
H402 C416 0.960 1_455 S
H403 C416 0.960 1_455 S
C404 H396 0.929 . S
C404 C405 1.377 . S
C404 C406 1.384 . S
C405 C404 1.377 . S
C405 C411 1.390 . S
C406 H397 0.930 . S
C406 C404 1.384 . S
C406 C407 1.372 . S
C407 C406 1.372 . S
C407 C408 1.400 . S
C407 C412 1.490 . S
C408 H398 0.930 . S
C408 C407 1.400 . S
C408 C411 1.386 . S
H409 C425 0.930 . S
H410 C426 0.931 . S
C411 H399 0.929 . S
C411 C405 1.390 . S
C411 C408 1.386 . S
C412 C407 1.490 . S
C412 C414 1.395 1_545 S
C412 C415 1.392 1_455 S
H413 C419 0.930 . S
C414 H400 0.930 . S
C414 C412 1.395 1_565 S
C414 C417 1.403 . S
C415 C412 1.392 1_655 S
C415 C416 1.525 . S
C415 C419 1.410 . S
C416 H401 0.960 . S
C416 H402 0.960 1_655 S
C416 H403 0.960 1_655 S
C416 C415 1.525 . S
C417 C414 1.403 . S
C417 C418 1.392 1_455 S
C417 C421 1.495 . S
C418 C417 1.392 1_655 S
C418 C419 1.385 1_565 S
C418 C420 1.478 . S
C419 H413 0.930 . S
C419 C415 1.410 . S
C419 C418 1.385 1_545 S
C420 C418 1.478 . S
C420 C422 1.381 . S
C420 C426 1.383 . S
C421 C417 1.495 . S
C421 H427 0.959 . S
C421 H428 0.961 1_455 S
C421 H429 0.960 1_455 S
C422 C420 1.381 . S
C422 C423 1.394 . S
C422 H430 0.930 . S
C423 C422 1.394 . S
C423 C424 1.383 . S
C423 H431 0.929 . S
C424 C423 1.383 . S
C424 C425 1.377 . S
C425 H409 0.930 . S
C425 C424 1.377 . S
C425 C426 1.379 . S
C426 H410 0.931 . S
C426 C420 1.383 . S
C426 C425 1.379 . S
H427 C421 0.959 . S
H428 C421 0.961 1_655 S
H429 C421 0.960 1_655 S
H430 C422 0.930 . S
H431 C423 0.929 . S
H432 C440 0.929 . S
H433 C442 0.930 . S
H434 C444 0.930 . S
H435 C447 0.929 . S
H436 C450 0.930 . S
H437 C452 0.960 . S
H438 C452 0.960 . S
H439 C452 0.960 . S
C440 H432 0.929 . S
C440 C441 1.377 . S
C440 C442 1.384 . S
C441 C440 1.377 . S
C441 C447 1.390 . S
C442 H433 0.930 . S
C442 C440 1.384 . S
C442 C443 1.372 . S
C443 C442 1.372 . S
C443 C444 1.400 . S
C443 C448 1.490 . S
C444 H434 0.930 . S
C444 C443 1.400 . S
C444 C447 1.386 . S
H445 C461 0.930 . S
H446 C462 0.931 . S
C447 H435 0.929 . S
C447 C441 1.390 . S
C447 C444 1.386 . S
C448 C443 1.490 . S
C448 C450 1.395 . S
C448 C451 1.403 . S
H449 C455 0.930 . S
C450 H436 0.930 . S
C450 C448 1.395 . S
C450 C453 1.403 . S
C451 C448 1.403 . S
C451 C452 1.524 . S
C451 C455 1.400 . S
C452 H437 0.960 . S
C452 H438 0.960 . S
C452 H439 0.960 . S
C452 C451 1.524 . S
C453 C450 1.403 . S
C453 C454 1.392 . S
C453 C457 1.495 . S
C454 C453 1.392 . S
C454 C455 1.385 . S
C454 C456 1.478 . S
C455 H449 0.930 . S
C455 C451 1.400 . S
C455 C454 1.385 . S
C456 C454 1.478 . S
C456 C458 1.381 . S
C456 C462 1.383 . S
C457 C453 1.495 . S
C457 H463 0.959 . S
C457 H464 0.961 . S
C457 H465 0.960 . S
C458 C456 1.381 . S
C458 C459 1.394 . S
C458 H466 0.930 . S
C459 C458 1.394 . S
C459 C460 1.383 . S
C459 H467 0.929 . S
C460 C459 1.383 . S
C460 C461 1.377 . S
C461 H445 0.930 . S
C461 C460 1.377 . S
C461 C462 1.379 . S
C462 H446 0.931 . S
C462 C456 1.383 . S
C462 C461 1.379 . S
H463 C457 0.959 . S
H464 C457 0.961 . S
H465 C457 0.960 . S
H466 C458 0.930 . S
H467 C459 0.929 . S
H468 C476 0.929 . S
H469 C478 0.930 . S
H470 C480 0.930 . S
H471 C483 0.929 . S
H472 C486 0.930 . S
H473 C488 0.960 . S
H474 C488 0.960 . S
H475 C488 0.960 . S
C476 H468 0.929 . S
C476 C477 1.377 . S
C476 C478 1.384 . S
C477 C476 1.377 . S
C477 C483 1.390 . S
C478 H469 0.930 . S
C478 C476 1.384 . S
C478 C479 1.372 . S
C479 C478 1.372 . S
C479 C480 1.400 . S
C479 C484 1.490 . S
C480 H470 0.930 . S
C480 C479 1.400 . S
C480 C483 1.386 . S
H481 C497 0.930 . S
H482 C498 0.931 . S
C483 H471 0.929 . S
C483 C477 1.390 . S
C483 C480 1.386 . S
C484 C479 1.490 . S
C484 C486 1.395 . S
C484 C487 1.403 . S
H485 C491 0.930 . S
C486 H472 0.930 . S
C486 C484 1.395 . S
C486 C489 1.403 1_556 S
C487 C484 1.403 . S
C487 C488 1.524 . S
C487 C491 1.400 1_556 S
C488 H473 0.960 . S
C488 H474 0.960 . S
C488 H475 0.960 . S
C488 C487 1.524 . S
C489 C486 1.403 1_554 S
C489 C490 1.392 . S
C489 C493 1.495 . S
C490 C489 1.392 . S
C490 C491 1.385 . S
C490 C492 1.478 . S
C491 H485 0.930 . S
C491 C487 1.400 1_554 S
C491 C490 1.385 . S
C492 C490 1.478 . S
C492 C494 1.381 . S
C492 C498 1.383 . S
C493 C489 1.495 . S
C493 H499 0.959 . S
C493 H500 0.961 . S
C493 H501 0.960 . S
C494 C492 1.381 . S
C494 C495 1.394 . S
C494 H502 0.930 . S
C495 C494 1.394 . S
C495 C496 1.383 . S
C495 H503 0.929 . S
C496 C495 1.383 . S
C496 C497 1.377 . S
C497 H481 0.930 . S
C497 C496 1.377 . S
C497 C498 1.379 . S
C498 H482 0.931 . S
C498 C492 1.383 . S
C498 C497 1.379 . S
H499 C493 0.959 . S
H500 C493 0.961 . S
H501 C493 0.960 . S
H502 C494 0.930 . S
H503 C495 0.929 . S
H504 C512 0.929 . S
H505 C514 0.930 . S
H506 C516 0.930 . S
H507 C519 0.929 . S
H508 C522 0.930 . S
H509 C524 0.960 . S
H510 C524 0.960 . S
H511 C524 0.960 . S
C512 H504 0.929 . S
C512 C513 1.377 . S
C512 C514 1.384 . S
C513 C512 1.377 . S
C513 C519 1.390 . S
C514 H505 0.930 . S
C514 C512 1.384 . S
C514 C515 1.372 . S
C515 C514 1.372 . S
C515 C516 1.400 . S
C515 C520 1.490 . S
C516 H506 0.930 . S
C516 C515 1.400 . S
C516 C519 1.386 . S
H517 C533 0.930 . S
H518 C534 0.931 . S
C519 H507 0.929 . S
C519 C513 1.390 . S
C519 C516 1.386 . S
C520 C515 1.490 . S
C520 C522 1.395 . S
C520 C523 1.403 . S
H521 C527 0.930 . S
C522 H508 0.930 . S
C522 C520 1.395 . S
C522 C525 1.403 . S
C523 C520 1.403 . S
C523 C524 1.524 . S
C523 C527 1.400 . S
C524 H509 0.960 . S
C524 H510 0.960 . S
C524 H511 0.960 . S
C524 C523 1.524 . S
C525 C522 1.403 . S
C525 C526 1.392 . S
C525 C529 1.495 . S
C526 C525 1.392 . S
C526 C527 1.385 . S
C526 C528 1.478 . S
C527 H521 0.930 . S
C527 C523 1.400 . S
C527 C526 1.385 . S
C528 C526 1.478 . S
C528 C530 1.381 . S
C528 C534 1.383 . S
C529 C525 1.495 . S
C529 H535 0.959 . S
C529 H536 0.961 . S
C529 H537 0.960 . S
C530 C528 1.381 . S
C530 C531 1.394 . S
C530 H538 0.930 . S
C531 C530 1.394 . S
C531 C532 1.383 . S
C531 H539 0.929 . S
C532 C531 1.383 . S
C532 C533 1.377 . S
C533 H517 0.930 . S
C533 C532 1.377 . S
C533 C534 1.379 . S
C534 H518 0.931 . S
C534 C528 1.383 . S
C534 C533 1.379 . S
H535 C529 0.959 . S
H536 C529 0.961 . S
H537 C529 0.960 . S
H538 C530 0.930 . S
H539 C531 0.929 . S
H540 C548 0.929 . S
H541 C550 0.930 . S
H542 C552 0.930 . S
H543 C555 0.929 . S
H544 C558 0.930 . S
H545 C560 0.960 . S
H546 C560 0.960 . S
H547 C560 0.960 . S
C548 H540 0.929 . S
C548 C549 1.377 . S
C548 C550 1.384 . S
C549 C548 1.377 . S
C549 C555 1.390 . S
C550 H541 0.930 . S
C550 C548 1.384 . S
C550 C551 1.372 . S
C551 C550 1.372 . S
C551 C552 1.400 . S
C551 C556 1.490 . S
C552 H542 0.930 . S
C552 C551 1.400 . S
C552 C555 1.386 . S
H553 C569 0.930 . S
H554 C570 0.931 . S
C555 H543 0.929 . S
C555 C549 1.390 . S
C555 C552 1.386 . S
C556 C551 1.490 . S
C556 C558 1.395 . S
C556 C559 1.403 . S
H557 C563 0.930 . S
C558 H544 0.930 . S
C558 C556 1.395 . S
C558 C561 1.403 1_556 S
C559 C556 1.403 . S
C559 C560 1.524 . S
C559 C563 1.400 1_556 S
C560 H545 0.960 . S
C560 H546 0.960 . S
C560 H547 0.960 . S
C560 C559 1.524 . S
C561 C558 1.403 1_554 S
C561 C562 1.392 . S
C561 C565 1.495 . S
C562 C561 1.392 . S
C562 C563 1.385 . S
C562 C564 1.478 . S
C563 H557 0.930 . S
C563 C559 1.400 1_554 S
C563 C562 1.385 . S
C564 C562 1.478 . S
C564 C566 1.381 . S
C564 C570 1.383 . S
C565 C561 1.495 . S
C565 H571 0.959 . S
C565 H572 0.961 . S
C565 H573 0.960 . S
C566 C564 1.381 . S
C566 C567 1.394 . S
C566 H574 0.930 . S
C567 C566 1.394 . S
C567 C568 1.383 . S
C567 H575 0.929 . S
C568 C567 1.383 . S
C568 C569 1.377 . S
C569 H553 0.930 . S
C569 C568 1.377 . S
C569 C570 1.379 . S
C570 H554 0.931 . S
C570 C564 1.383 . S
C570 C569 1.379 . S
H571 C565 0.959 . S
H572 C565 0.961 . S
H573 C565 0.960 . S
H574 C566 0.930 . S
H575 C567 0.929 . S
H576 C584 0.929 . S
H577 C586 0.930 . S
H578 C588 0.930 . S
H579 C591 0.929 . S
H580 C594 0.930 . S
H581 C596 0.960 . S
H582 C596 0.960 . S
H583 C596 0.960 . S
C584 H576 0.929 . S
C584 C585 1.377 . S
C584 C586 1.384 . S
C585 C584 1.377 . S
C585 C591 1.390 . S
C586 H577 0.930 . S
C586 C584 1.384 . S
C586 C587 1.372 . S
C587 C586 1.372 . S
C587 C588 1.400 . S
C587 C592 1.490 . S
C588 H578 0.930 . S
C588 C587 1.400 . S
C588 C591 1.386 . S
H589 C605 0.930 . S
H590 C606 0.931 . S
C591 H579 0.929 . S
C591 C585 1.390 . S
C591 C588 1.386 . S
C592 C587 1.490 . S
C592 C594 1.395 . S
C592 C595 1.403 . S
H593 C599 0.930 . S
C594 H580 0.930 . S
C594 C592 1.395 . S
C594 C597 1.403 . S
C595 C592 1.403 . S
C595 C596 1.524 . S
C595 C599 1.400 . S
C596 H581 0.960 . S
C596 H582 0.960 . S
C596 H583 0.960 . S
C596 C595 1.524 . S
C597 C594 1.403 . S
C597 C598 1.392 . S
C597 C601 1.495 . S
C598 C597 1.392 . S
C598 C599 1.385 . S
C598 C600 1.478 . S
C599 H593 0.930 . S
C599 C595 1.400 . S
C599 C598 1.385 . S
C600 C598 1.478 . S
C600 C602 1.381 . S
C600 C606 1.383 . S
C601 C597 1.495 . S
C601 H607 0.959 . S
C601 H608 0.961 . S
C601 H609 0.960 . S
C602 C600 1.381 . S
C602 C603 1.394 . S
C602 H610 0.930 . S
C603 C602 1.394 . S
C603 C604 1.383 . S
C603 H611 0.929 . S
C604 C603 1.383 . S
C604 C605 1.377 . S
C605 H589 0.930 . S
C605 C604 1.377 . S
C605 C606 1.379 . S
C606 H590 0.931 . S
C606 C600 1.383 . S
C606 C605 1.379 . S
H607 C601 0.959 . S
H608 C601 0.961 . S
H609 C601 0.960 . S
H610 C602 0.930 . S
H611 C603 0.929 . S
H612 C620 0.929 . S
H613 C622 0.930 . S
H614 C624 0.930 . S
H615 C627 0.929 . S
H616 C630 0.930 . S
H617 C632 0.960 . S
H618 C632 0.960 . S
H619 C632 0.960 . S
C620 H612 0.929 . S
C620 C621 1.377 . S
C620 C622 1.384 . S
C621 C620 1.377 . S
C621 C627 1.390 . S
C622 H613 0.930 . S
C622 C620 1.384 . S
C622 C623 1.372 . S
C623 C622 1.372 . S
C623 C624 1.400 . S
C623 C628 1.490 . S
C624 H614 0.930 . S
C624 C623 1.400 . S
C624 C627 1.386 . S
H625 C641 0.930 1_545 S
H626 C642 0.931 . S
C627 H615 0.929 . S
C627 C621 1.390 . S
C627 C624 1.386 . S
C628 C623 1.490 . S
C628 C630 1.395 . S
C628 C631 1.403 . S
H629 C635 0.930 . S
C630 H616 0.930 . S
C630 C628 1.395 . S
C630 C633 1.403 . S
C631 C628 1.403 . S
C631 C632 1.524 . S
C631 C635 1.400 . S
C632 H617 0.960 . S
C632 H618 0.960 . S
C632 H619 0.960 . S
C632 C631 1.524 . S
C633 C630 1.403 . S
C633 C634 1.392 . S
C633 C637 1.495 . S
C634 C633 1.392 . S
C634 C635 1.385 . S
C634 C636 1.478 . S
C635 H629 0.930 . S
C635 C631 1.400 . S
C635 C634 1.385 . S
C636 C634 1.478 . S
C636 C638 1.381 . S
C636 C642 1.383 . S
C637 C633 1.495 . S
C637 H643 0.959 . S
C637 H644 0.961 . S
C637 H645 0.960 . S
C638 C636 1.381 . S
C638 C639 1.394 . S
C638 H646 0.930 . S
C639 C638 1.394 . S
C639 C640 1.383 1_565 S
C639 H647 0.929 . S
C640 C639 1.383 1_545 S
C640 C641 1.377 1_545 S
C641 H625 0.930 1_565 S
C641 C640 1.377 1_565 S
C641 C642 1.379 . S
C642 H626 0.931 . S
C642 C636 1.383 . S
C642 C641 1.379 . S
H643 C637 0.959 . S
H644 C637 0.961 . S
H645 C637 0.960 . S
H646 C638 0.930 . S
H647 C639 0.929 . S
H648 C656 0.929 . S
H649 C658 0.930 . S
H650 C660 0.930 . S
H651 C663 0.929 . S
H652 C666 0.930 . S
H653 C668 0.960 . S
H654 C668 0.960 . S
H655 C668 0.960 . S
C656 H648 0.929 . S
C656 C657 1.377 . S
C656 C658 1.384 . S
C657 C656 1.377 . S
C657 C663 1.390 . S
C658 H649 0.930 . S
C658 C656 1.384 . S
C658 C659 1.372 . S
C659 C658 1.372 . S
C659 C660 1.400 . S
C659 C664 1.490 . S
C660 H650 0.930 . S
C660 C659 1.400 . S
C660 C663 1.386 . S
H661 C677 0.930 . S
H662 C678 0.931 . S
C663 H651 0.929 . S
C663 C657 1.390 . S
C663 C660 1.386 . S
C664 C659 1.490 . S
C664 C666 1.395 . S
C664 C667 1.403 . S
H665 C671 0.930 . S
C666 H652 0.930 . S
C666 C664 1.395 . S
C666 C669 1.403 . S
C667 C664 1.403 . S
C667 C668 1.524 . S
C667 C671 1.400 . S
C668 H653 0.960 . S
C668 H654 0.960 . S
C668 H655 0.960 . S
C668 C667 1.524 . S
C669 C666 1.403 . S
C669 C670 1.392 . S
C669 C673 1.495 . S
C670 C669 1.392 . S
C670 C671 1.385 . S
C670 C672 1.478 . S
C671 H665 0.930 . S
C671 C667 1.400 . S
C671 C670 1.385 . S
C672 C670 1.478 . S
C672 C674 1.381 . S
C672 C678 1.383 . S
C673 C669 1.495 . S
C673 H679 0.959 . S
C673 H680 0.961 . S
C673 H681 0.960 . S
C674 C672 1.381 . S
C674 C675 1.394 . S
C674 H682 0.930 . S
C675 C674 1.394 . S
C675 C676 1.383 . S
C675 H683 0.929 . S
C676 C675 1.383 . S
C676 C677 1.377 . S
C677 H661 0.930 . S
C677 C676 1.377 . S
C677 C678 1.379 . S
C678 H662 0.931 . S
C678 C672 1.383 . S
C678 C677 1.379 . S
H679 C673 0.959 . S
H680 C673 0.961 . S
H681 C673 0.960 . S
H682 C674 0.930 . S
H683 C675 0.929 . S
H684 C692 0.929 . S
H685 C694 0.930 . S
H686 C696 0.930 . S
H687 C699 0.929 . S
H688 C702 0.930 . S
H689 C704 0.960 . S
H690 C704 0.960 . S
H691 C704 0.960 . S
C692 H684 0.929 . S
C692 C693 1.377 . S
C692 C694 1.384 . S
C693 C692 1.377 . S
C693 C699 1.390 . S
C694 H685 0.930 . S
C694 C692 1.384 . S
C694 C695 1.372 . S
C695 C694 1.372 . S
C695 C696 1.400 . S
C695 C700 1.490 . S
C696 H686 0.930 . S
C696 C695 1.400 . S
C696 C699 1.386 . S
H697 C713 0.930 . S
H698 C714 0.931 . S
C699 H687 0.929 . S
C699 C693 1.390 . S
C699 C696 1.386 . S
C700 C695 1.490 . S
C700 C702 1.395 . S
C700 C703 1.403 . S
H701 C707 0.930 . S
C702 H688 0.930 . S
C702 C700 1.395 . S
C702 C705 1.403 . S
C703 C700 1.403 . S
C703 C704 1.524 . S
C703 C707 1.400 . S
C704 H689 0.960 . S
C704 H690 0.960 . S
C704 H691 0.960 . S
C704 C703 1.524 . S
C705 C702 1.403 . S
C705 C706 1.392 . S
C705 C709 1.495 . S
C706 C705 1.392 . S
C706 C707 1.385 . S
C706 C708 1.478 . S
C707 H701 0.930 . S
C707 C703 1.400 . S
C707 C706 1.385 . S
C708 C706 1.478 . S
C708 C710 1.381 . S
C708 C714 1.383 . S
C709 C705 1.495 . S
C709 H715 0.959 . S
C709 H716 0.961 . S
C709 H717 0.960 . S
C710 C708 1.381 . S
C710 C711 1.394 . S
C710 H718 0.930 . S
C711 C710 1.394 . S
C711 C712 1.383 1_545 S
C711 H719 0.929 1_545 S
C712 C711 1.383 1_565 S
C712 C713 1.377 1_565 S
C713 H697 0.930 . S
C713 C712 1.377 1_545 S
C713 C714 1.379 . S
C714 H698 0.931 . S
C714 C708 1.383 . S
C714 C713 1.379 . S
H715 C709 0.959 . S
H716 C709 0.961 . S
H717 C709 0.960 . S
H718 C710 0.930 . S
H719 C711 0.929 1_565 S
H720 C728 0.929 . S
H721 C730 0.930 . S
H722 C732 0.930 . S
H723 C735 0.929 1_455 S
H724 C738 0.930 . S
H725 C740 0.960 . S
H726 C740 0.960 . S
H727 C740 0.960 . S
C728 H720 0.929 . S
C728 C729 1.377 1_655 S
C728 C730 1.384 . S
C729 C728 1.377 1_455 S
C729 C735 1.390 1_455 S
C730 H721 0.930 . S
C730 C728 1.384 . S
C730 C731 1.372 . S
C731 C730 1.372 . S
C731 C732 1.400 . S
C731 C736 1.490 . S
C732 H722 0.930 . S
C732 C731 1.400 . S
C732 C735 1.386 . S
H733 C749 0.930 . S
H734 C750 0.931 . S
C735 H723 0.929 1_655 S
C735 C729 1.390 1_655 S
C735 C732 1.386 . S
C736 C731 1.490 . S
C736 C738 1.395 . S
C736 C739 1.403 . S
H737 C743 0.930 . S
C738 H724 0.930 . S
C738 C736 1.395 . S
C738 C741 1.403 . S
C739 C736 1.403 . S
C739 C740 1.524 . S
C739 C743 1.400 . S
C740 H725 0.960 . S
C740 H726 0.960 . S
C740 H727 0.960 . S
C740 C739 1.524 . S
C741 C738 1.403 . S
C741 C742 1.392 . S
C741 C745 1.495 . S
C742 C741 1.392 . S
C742 C743 1.385 . S
C742 C744 1.478 . S
C743 H737 0.930 . S
C743 C739 1.400 . S
C743 C742 1.385 . S
C744 C742 1.478 . S
C744 C746 1.381 . S
C744 C750 1.383 . S
C745 C741 1.495 . S
C745 H751 0.959 . S
C745 H752 0.961 . S
C745 H753 0.960 . S
C746 C744 1.381 . S
C746 C747 1.394 . S
C746 H754 0.930 . S
C747 C746 1.394 . S
C747 C748 1.383 . S
C747 H755 0.929 . S
C748 C747 1.383 . S
C748 C749 1.377 . S
C749 H733 0.930 . S
C749 C748 1.377 . S
C749 C750 1.379 . S
C750 H734 0.931 . S
C750 C744 1.383 . S
C750 C749 1.379 . S
H751 C745 0.959 . S
H752 C745 0.961 . S
H753 C745 0.960 . S
H754 C746 0.930 . S
H755 C747 0.929 . S
H756 C764 0.929 . S
H757 C766 0.930 . S
H758 C768 0.930 . S
H759 C771 0.929 . S
H760 C774 0.930 . S
H761 C776 0.960 . S
H762 C776 0.960 . S
H763 C776 0.960 . S
C764 H756 0.929 . S
C764 C765 1.377 . S
C764 C766 1.384 . S
C765 C764 1.377 . S
C765 C771 1.390 . S
C766 H757 0.930 . S
C766 C764 1.384 . S
C766 C767 1.372 . S
C767 C766 1.372 . S
C767 C768 1.400 . S
C767 C772 1.490 . S
C768 H758 0.930 . S
C768 C767 1.400 . S
C768 C771 1.386 . S
H769 C785 0.930 . S
H770 C786 0.931 . S
C771 H759 0.929 . S
C771 C765 1.390 . S
C771 C768 1.386 . S
C772 C767 1.490 . S
C772 C774 1.395 . S
C772 C775 1.403 . S
H773 C779 0.930 . S
C774 H760 0.930 . S
C774 C772 1.395 . S
C774 C777 1.403 . S
C775 C772 1.403 . S
C775 C776 1.524 . S
C775 C779 1.400 . S
C776 H761 0.960 . S
C776 H762 0.960 . S
C776 H763 0.960 . S
C776 C775 1.524 . S
C777 C774 1.403 . S
C777 C778 1.392 . S
C777 C781 1.495 . S
C778 C777 1.392 . S
C778 C779 1.385 . S
C778 C780 1.478 . S
C779 H773 0.930 . S
C779 C775 1.400 . S
C779 C778 1.385 . S
C780 C778 1.478 . S
C780 C782 1.381 . S
C780 C786 1.383 . S
C781 C777 1.495 . S
C781 H787 0.959 . S
C781 H788 0.961 . S
C781 H789 0.960 . S
C782 C780 1.381 . S
C782 C783 1.394 . S
C782 H790 0.930 . S
C783 C782 1.394 . S
C783 C784 1.383 . S
C783 H791 0.929 . S
C784 C783 1.383 . S
C784 C785 1.377 . S
C785 H769 0.930 . S
C785 C784 1.377 . S
C785 C786 1.379 . S
C786 H770 0.931 . S
C786 C780 1.383 . S
C786 C785 1.379 . S
H787 C781 0.959 . S
H788 C781 0.961 . S
H789 C781 0.960 . S
H790 C782 0.930 . S
H791 C783 0.929 . S
H792 C800 0.929 . S
H793 C802 0.930 . S
H794 C804 0.930 . S
H795 C807 0.929 . S
H796 C810 0.930 . S
H797 C812 0.960 . S
H798 C812 0.960 . S
H799 C812 0.960 . S
C800 H792 0.929 . S
C800 C801 1.377 . S
C800 C802 1.384 . S
C801 C800 1.377 . S
C801 C807 1.390 . S
C802 H793 0.930 . S
C802 C800 1.384 . S
C802 C803 1.372 . S
C803 C802 1.372 . S
C803 C804 1.400 . S
C803 C808 1.490 . S
C804 H794 0.930 . S
C804 C803 1.400 . S
C804 C807 1.386 . S
H805 C821 0.930 . S
H806 C822 0.931 . S
C807 H795 0.929 . S
C807 C801 1.390 . S
C807 C804 1.386 . S
C808 C803 1.490 . S
C808 C810 1.395 . S
C808 C811 1.403 . S
H809 C815 0.930 . S
C810 H796 0.930 . S
C810 C808 1.395 . S
C810 C813 1.403 . S
C811 C808 1.403 . S
C811 C812 1.524 . S
C811 C815 1.400 . S
C812 H797 0.960 . S
C812 H798 0.960 . S
C812 H799 0.960 . S
C812 C811 1.524 . S
C813 C810 1.403 . S
C813 C814 1.392 . S
C813 C817 1.495 . S
C814 C813 1.392 . S
C814 C815 1.385 . S
C814 C816 1.478 . S
C815 H809 0.930 . S
C815 C811 1.400 . S
C815 C814 1.385 . S
C816 C814 1.478 . S
C816 C818 1.381 . S
C816 C822 1.383 . S
C817 C813 1.495 . S
C817 H823 0.959 . S
C817 H824 0.961 . S
C817 H825 0.960 . S
C818 C816 1.381 . S
C818 C819 1.379 1_455 S
C818 H826 0.930 . S
C819 C818 1.379 1_655 S
C819 C820 1.386 . S
C819 H827 0.942 . S
C820 C819 1.386 . S
C820 C821 1.377 1_655 S
C821 H805 0.930 . S
C821 C820 1.377 1_455 S
C821 C822 1.379 . S
C822 H806 0.931 . S
C822 C816 1.383 . S
C822 C821 1.379 . S
H823 C817 0.959 . S
H824 C817 0.961 . S
H825 C817 0.960 . S
H826 C818 0.930 . S
H827 C819 0.942 . S
H828 C836 0.929 . S
H829 C838 0.930 . S
H830 C840 0.930 . S
H831 C843 0.929 . S
H832 C846 0.930 . S
H833 C848 0.960 . S
H834 C848 0.960 . S
H835 C848 0.960 . S
C836 H828 0.929 . S
C836 C837 1.377 . S
C836 C838 1.384 . S
C837 C836 1.377 . S
C837 C843 1.390 . S
C838 H829 0.930 . S
C838 C836 1.384 . S
C838 C839 1.372 . S
C839 C838 1.372 . S
C839 C840 1.400 . S
C839 C844 1.490 . S
C840 H830 0.930 . S
C840 C839 1.400 . S
C840 C843 1.386 . S
H841 C857 0.930 . S
H842 C858 0.931 . S
C843 H831 0.929 . S
C843 C837 1.390 . S
C843 C840 1.386 . S
C844 C839 1.490 . S
C844 C846 1.395 . S
C844 C847 1.403 . S
H845 C851 0.930 . S
C846 H832 0.930 . S
C846 C844 1.395 . S
C846 C849 1.403 . S
C847 C844 1.403 . S
C847 C848 1.524 . S
C847 C851 1.400 . S
C848 H833 0.960 . S
C848 H834 0.960 . S
C848 H835 0.960 . S
C848 C847 1.524 . S
C849 C846 1.403 . S
C849 C850 1.392 . S
C849 C853 1.495 . S
C850 C849 1.392 . S
C850 C851 1.385 . S
C850 C852 1.478 . S
C851 H845 0.930 . S
C851 C847 1.400 . S
C851 C850 1.385 . S
C852 C850 1.478 . S
C852 C854 1.381 . S
C852 C858 1.383 . S
C853 C849 1.495 . S
C853 H859 0.959 . S
C853 H860 0.961 . S
C853 H861 0.960 . S
C854 C852 1.381 . S
C854 C855 1.394 . S
C854 H862 0.930 . S
C855 C854 1.394 . S
C855 C856 1.383 . S
C855 H863 0.929 . S
C856 C855 1.383 . S
C856 C857 1.377 . S
C857 H841 0.930 . S
C857 C856 1.377 . S
C857 C858 1.379 . S
C858 H842 0.931 . S
C858 C852 1.383 . S
C858 C857 1.379 . S
H859 C853 0.959 . S
H860 C853 0.961 . S
H861 C853 0.960 . S
H862 C854 0.930 . S
H863 C855 0.929 . S
C297 C2 0.275 . S
C316 C74 0.366 . S
C333 C38 0.269 . S
C352 C110 0.209 . S
C369 C146 0.292 . S
C388 C218 0.213 . S
C405 C182 0.275 . S
C424 C254 0.367 . S
C441 C4 1.376 . S
C460 C184 1.404 . S
C477 C40 1.375 . S
C496 C220 1.385 . S
C513 C256 1.386 . S
C532 C76 1.362 . S
C549 C112 1.377 . S
C568 C148 1.374 . S
C585 C147 1.695 . S
C604 C14 1.623 . S
C621 C50 1.622 . S
C640 C183 1.686 . S
C657 C86 1.633 . S
C676 C219 1.700 . S
C693 C122 1.623 . S
C712 C255 1.699 . S
C729 C3 1.688 . S
C748 C158 1.642 . S
C765 C194 1.622 . S
C784 C39 1.688 . S
C801 C230 1.624 . S
C820 C75 1.703 . S
C837 C111 1.692 . S
C856 C266 1.654 . S
