# Generated by pormake.
# Topology wme, (6)-cn, num edge types: 1
# Building blocks:
#     Node 0, Type 0, BuildingBlock: BETDIP_clean_sbu_0, # of connection points: 6
#     Node 1, Type 0, BuildingBlock: BETDIP_clean_sbu_0, # of connection points: 6
#     Node 2, Type 0, BuildingBlock: BETDIP_clean_sbu_0, # of connection points: 6
#     Node 3, Type 0, BuildingBlock: BETDIP_clean_sbu_0, # of connection points: 6
#     Node 4, Type 0, BuildingBlock: BETDIP_clean_sbu_0, # of connection points: 6
#     Node 5, Type 0, BuildingBlock: BETDIP_clean_sbu_0, # of connection points: 6
#     Node 6, Type 0, BuildingBlock: BETDIP_clean_sbu_0, # of connection points: 6
#     Node 7, Type 0, BuildingBlock: BETDIP_clean_sbu_0, # of connection points: 6
#     Node 8, Type 0, BuildingBlock: BETDIP_clean_sbu_0, # of connection points: 6
#     Node 9, Type 0, BuildingBlock: BETDIP_clean_sbu_0, # of connection points: 6
#     Node 10, Type 0, BuildingBlock: BETDIP_clean_sbu_0, # of connection points: 6
#     Node 11, Type 0, BuildingBlock: BETDIP_clean_sbu_0, # of connection points: 6
#     Edge 12, Type (0, 0), BuildingBlock: CIFDUS_clean_linker_0, # of connection points: 2
#     Edge 13, Type (0, 0), BuildingBlock: CIFDUS_clean_linker_0, # of connection points: 2
#     Edge 14, Type (0, 0), BuildingBlock: CIFDUS_clean_linker_0, # of connection points: 2
#     Edge 15, Type (0, 0), BuildingBlock: CIFDUS_clean_linker_0, # of connection points: 2
#     Edge 16, Type (0, 0), BuildingBlock: CIFDUS_clean_linker_0, # of connection points: 2
#     Edge 17, Type (0, 0), BuildingBlock: CIFDUS_clean_linker_0, # of connection points: 2
#     Edge 18, Type (0, 0), BuildingBlock: CIFDUS_clean_linker_0, # of connection points: 2
#     Edge 19, Type (0, 0), BuildingBlock: CIFDUS_clean_linker_0, # of connection points: 2
#     Edge 20, Type (0, 0), BuildingBlock: CIFDUS_clean_linker_0, # of connection points: 2
#     Edge 21, Type (0, 0), BuildingBlock: CIFDUS_clean_linker_0, # of connection points: 2
#     Edge 22, Type (0, 0), BuildingBlock: CIFDUS_clean_linker_0, # of connection points: 2
#     Edge 23, Type (0, 0), BuildingBlock: CIFDUS_clean_linker_0, # of connection points: 2
#     Edge 24, Type (0, 0), BuildingBlock: CIFDUS_clean_linker_0, # of connection points: 2
#     Edge 25, Type (0, 0), BuildingBlock: CIFDUS_clean_linker_0, # of connection points: 2
#     Edge 26, Type (0, 0), BuildingBlock: CIFDUS_clean_linker_0, # of connection points: 2
#     Edge 27, Type (0, 0), BuildingBlock: CIFDUS_clean_linker_0, # of connection points: 2
#     Edge 28, Type (0, 0), BuildingBlock: CIFDUS_clean_linker_0, # of connection points: 2
#     Edge 29, Type (0, 0), BuildingBlock: CIFDUS_clean_linker_0, # of connection points: 2
#     Edge 30, Type (0, 0), BuildingBlock: CIFDUS_clean_linker_0, # of connection points: 2
#     Edge 31, Type (0, 0), BuildingBlock: CIFDUS_clean_linker_0, # of connection points: 2
#     Edge 32, Type (0, 0), BuildingBlock: CIFDUS_clean_linker_0, # of connection points: 2
#     Edge 33, Type (0, 0), BuildingBlock: CIFDUS_clean_linker_0, # of connection points: 2
#     Edge 34, Type (0, 0), BuildingBlock: CIFDUS_clean_linker_0, # of connection points: 2
#     Edge 35, Type (0, 0), BuildingBlock: CIFDUS_clean_linker_0, # of connection points: 2
#     Edge 36, Type (0, 0), BuildingBlock: CIFDUS_clean_linker_0, # of connection points: 2
#     Edge 37, Type (0, 0), BuildingBlock: CIFDUS_clean_linker_0, # of connection points: 2
#     Edge 38, Type (0, 0), BuildingBlock: CIFDUS_clean_linker_0, # of connection points: 2
#     Edge 39, Type (0, 0), BuildingBlock: CIFDUS_clean_linker_0, # of connection points: 2
#     Edge 40, Type (0, 0), BuildingBlock: CIFDUS_clean_linker_0, # of connection points: 2
#     Edge 41, Type (0, 0), BuildingBlock: CIFDUS_clean_linker_0, # of connection points: 2
#     Edge 42, Type (0, 0), BuildingBlock: CIFDUS_clean_linker_0, # of connection points: 2
#     Edge 43, Type (0, 0), BuildingBlock: CIFDUS_clean_linker_0, # of connection points: 2
#     Edge 44, Type (0, 0), BuildingBlock: CIFDUS_clean_linker_0, # of connection points: 2
#     Edge 45, Type (0, 0), BuildingBlock: CIFDUS_clean_linker_0, # of connection points: 2
#     Edge 46, Type (0, 0), BuildingBlock: CIFDUS_clean_linker_0, # of connection points: 2
#     Edge 47, Type (0, 0), BuildingBlock: CIFDUS_clean_linker_0, # of connection points: 2
# Relax obj value: 0.106
# Max RMSD: 0.207
# Mean RMSD: 0.207
data_MOF--net-wme--node1-BETDIP_clean_sbu_0--edge1-CIFDUS_clean_linker_0
_symmetry_space_group_name_H-M    P1
_symmetry_Int_Tables_number       1
_symmetry_cell_setting            triclinic
loop_
_symmetry_equiv_pos_as_xyz
'x, y, z'
_cell_length_a     36.147563
_cell_length_b     36.072257
_cell_length_c     43.50581
_cell_angle_alpha  89.948065
_cell_angle_beta   89.780538
_cell_angle_gamma 119.6895
loop_
_atom_site_label
_atom_site_type_symbol
_atom_site_fract_x
_atom_site_fract_y
_atom_site_fract_z
_atom_type_partial_charge
Tb0 Tb 0.2374 0.38989 0.11711 0.0
Tb1 Tb 0.26548 0.3346 0.14525 0.0
C2 C 0.22012 0.44628 0.09937 0.0
C3 C 0.21244 0.47994 0.11167 0.0
C4 C 0.18361 0.48873 0.09636 0.0
C5 C 0.17706 0.5219 0.10617 0.0
C6 C 0.19931 0.54711 0.13156 0.0
C7 C 0.22755 0.53754 0.14737 0.0
C8 C 0.234 0.50415 0.13755 0.0
C9 C 0.25556 0.34448 0.0774 0.0
C10 C 0.33054 0.43195 0.14196 0.0
C11 C 0.28005 0.27432 0.15583 0.0
C12 C 0.26024 0.22836 0.14819 0.0
C13 C 0.26035 0.21465 0.11794 0.0
C14 C 0.2445 0.17137 0.11164 0.0
C15 C 0.22811 0.14079 0.13537 0.0
C16 C 0.22669 0.15437 0.16541 0.0
C17 C 0.24277 0.1977 0.17176 0.0
C18 C 0.25052 0.37889 0.18695 0.0
C19 C 0.1673 0.29991 0.13069 0.0
O20 O 0.19141 0.40705 0.10578 0.0
O21 O 0.25877 0.45227 0.10123 0.0
O22 O 0.27532 0.3628 0.10123 0.0
O23 O 0.22574 0.35372 0.07376 0.0
O24 O 0.29656 0.4361 0.13851 0.0
O25 O 0.32736 0.39367 0.14159 0.0
O26 O 0.29754 0.30164 0.13328 0.0
O27 O 0.25887 0.28531 0.17462 0.0
O28 O 0.22919 0.36281 0.16268 0.0
O29 O 0.28026 0.36881 0.18852 0.0
O30 O 0.19832 0.29025 0.13117 0.0
O31 O 0.17656 0.33991 0.13202 0.0
H32 H 0.1667 0.4704 0.07633 0.0
H33 H 0.15562 0.52871 0.09316 0.0
H34 H 0.24487 0.55606 0.16718 0.0
H35 H 0.2562 0.49768 0.14985 0.0
H36 H 0.27342 0.23734 0.09917 0.0
H37 H 0.24569 0.16188 0.0882 0.0
H38 H 0.21478 0.13172 0.18427 0.0
H39 H 0.24247 0.20737 0.19529 0.0
Tb40 Tb 0.87974 0.21659 0.62407 0.0
Tb41 Tb 0.96873 0.2515 0.64513 0.0
C42 C 0.80151 0.18679 0.61408 0.0
C43 C 0.76151 0.18621 0.62165 0.0
C44 C 0.75808 0.21008 0.64581 0.0
C45 C 0.71866 0.20725 0.65241 0.0
C46 C 0.68215 0.18032 0.63506 0.0
C47 C 0.68617 0.15666 0.61092 0.0
C48 C 0.72536 0.1596 0.60435 0.0
C49 C 0.93849 0.2371 0.57986 0.0
C50 C 0.92778 0.31203 0.64642 0.0
C51 C 0.0473 0.28197 0.65143 0.0
C52 C 0.07192 0.25922 0.65413 0.0
C53 C 0.06577 0.22713 0.63303 0.0
C54 C 0.08902 0.20581 0.63521 0.0
C55 C 0.11863 0.21526 0.65895 0.0
C56 C 0.12374 0.24645 0.68074 0.0
C57 C 0.10081 0.26833 0.67822 0.0
C58 C 0.91172 0.20701 0.68826 0.0
C59 C 0.91574 0.15497 0.62735 0.0
O60 O 0.81659 0.17109 0.63451 0.0
O61 O 0.83147 0.22034 0.59983 0.0
O62 O 0.94133 0.25675 0.60413 0.0
O63 O 0.8998 0.20614 0.57799 0.0
O64 O 0.89103 0.27853 0.63897 0.0
O65 O 0.96315 0.30958 0.64948 0.0
O66 O 1.02909 0.27857 0.62482 0.0
O67 O 1.02205 0.2778 0.67448 0.0
O68 O 0.90907 0.23219 0.66916 0.0
O69 O 0.94634 0.20607 0.68252 0.0
O70 O 0.9542 0.18904 0.62636 0.0
O71 O 0.88187 0.15878 0.63212 0.0
H72 H 0.78568 0.23065 0.65952 0.0
H73 H 0.71667 0.22577 0.67126 0.0
H74 H 0.65913 0.13633 0.59666 0.0
H75 H 0.72742 0.14091 0.58561 0.0
H76 H 0.04316 0.2185 0.61452 0.0
H77 H 0.08441 0.18265 0.61768 0.0
H78 H 0.14551 0.25411 0.69977 0.0
H79 H 0.10565 0.29235 0.69512 0.0
Tb80 Tb 0.68379 0.87002 0.12926 0.0
Tb81 Tb 0.73374 0.96593 0.15138 0.0
C82 C 0.63732 0.79154 0.11869 0.0
C83 C 0.59829 0.75116 0.12598 0.0
C84 C 0.57205 0.74673 0.15117 0.0
C85 C 0.53621 0.70694 0.15778 0.0
C86 C 0.52621 0.67094 0.1394 0.0
C87 C 0.55285 0.67589 0.11426 0.0
C88 C 0.5884 0.71551 0.10767 0.0
C89 C 0.72712 0.93079 0.08752 0.0
C90 C 0.63342 0.91924 0.14689 0.0
C91 C 0.78538 0.04468 0.14684 0.0
C92 C 0.83246 0.06998 0.1473 0.0
C93 C 0.85738 0.05193 0.13795 0.0
C94 C 0.90188 0.07624 0.13768 0.0
C95 C 0.92247 0.11938 0.14632 0.0
C96 C 0.89747 0.13735 0.15584 0.0
C97 C 0.85292 0.11282 0.15643 0.0
C98 C 0.70623 0.91327 0.19908 0.0
C99 C 0.77842 0.90792 0.14886 0.0
O100 O 0.66723 0.80696 0.13958 0.0
O101 O 0.6336 0.82139 0.10411 0.0
O102 O 0.70648 0.93218 0.11022 0.0
O103 O 0.72009 0.89205 0.08551 0.0
O104 O 0.63305 0.8823 0.14417 0.0
O105 O 0.6693 0.95692 0.14743 0.0
O106 O 0.76898 1.01926 0.12331 0.0
O107 O 0.76639 0.02623 0.17266 0.0
O108 O 0.70197 0.9043 0.17086 0.0
O109 O 0.72621 0.95459 0.20125 0.0
O110 O 0.78329 0.94696 0.14761 0.0
O111 O 0.74106 0.87317 0.14587 0.0
H112 H 0.57938 0.77384 0.16574 0.0
H113 H 0.51655 0.70427 0.17743 0.0
H114 H 0.54583 0.64929 0.09925 0.0
H115 H 0.60838 0.71828 0.08818 0.0
H116 H 0.8425 1.01923 0.13028 0.0
H117 H 0.92014 0.06161 0.12986 0.0
H118 H 0.91241 0.17045 0.16284 0.0
H119 H 0.83442 0.12746 0.1637 0.0
Tb120 Tb 0.85286 0.6739 0.62674 0.0
Tb121 Tb 0.80798 0.7201 0.64994 0.0
C122 C 0.88494 0.62663 0.617 0.0
C123 C 0.88223 0.58553 0.62591 0.0
C124 C 0.914 0.58586 0.64471 0.0
C125 C 0.91506 0.54824 0.65072 0.0
C126 C 0.8845 0.50921 0.63794 0.0
C127 C 0.85229 0.50881 0.61949 0.0
C128 C 0.8512 0.54647 0.61351 0.0
C129 C 0.83179 0.71379 0.58473 0.0
C130 C 0.75473 0.62135 0.64408 0.0
C131 C 0.7798 0.7712 0.65444 0.0
C132 C 0.79662 0.81713 0.64918 0.0
C133 C 0.83311 0.84146 0.63102 0.0
C134 C 0.84762 0.88488 0.62564 0.0
C135 C 0.82551 0.90435 0.63804 0.0
C136 C 0.78947 0.8799 0.65662 0.0
C137 C 0.77525 0.83677 0.66215 0.0
C138 C 0.82848 0.68269 0.69368 0.0
C139 C 0.90938 0.76995 0.64044 0.0
O140 O 0.89846 0.65642 0.63796 0.0
O141 O 0.85453 0.6259 0.60024 0.0
O142 O 0.81042 0.69291 0.60756 0.0
O143 O 0.86631 0.7113 0.58363 0.0
O144 O 0.79161 0.6219 0.64273 0.0
O145 O 0.75266 0.65703 0.64362 0.0
O146 O 0.77524 0.74826 0.62999 0.0
O147 O 0.79616 0.76096 0.67748 0.0
O148 O 0.84979 0.70094 0.66982 0.0
O149 O 0.79513 0.68746 0.69435 0.0
O150 O 0.874 0.77253 0.64128 0.0
O151 O 0.90839 0.73312 0.63808 0.0
H152 H 0.93871 0.61552 0.65431 0.0
H153 H 0.93997 0.54983 0.66535 0.0
H154 H 0.82852 0.47955 0.60884 0.0
H155 H 0.82663 0.54505 0.59858 0.0
H156 H 0.84995 0.82682 0.62061 0.0
H157 H 0.87529 0.90286 0.61109 0.0
H158 H 0.77209 0.89416 0.6668 0.0
H159 H 0.74717 0.81858 0.67631 0.0
Tb160 Tb 0.19276 0.8334 0.12766 0.0
Tb161 Tb 0.10304 0.7921 0.15276 0.0
C162 C 0.27173 0.86384 0.11891 0.0
C163 C 0.31013 0.86135 0.12787 0.0
C164 C 0.34091 0.89308 0.1469 0.0
C165 C 0.3801 0.89515 0.15219 0.0
C166 C 0.38976 0.86566 0.13845 0.0
C167 C 0.3585 0.83325 0.11998 0.0
C168 C 0.31927 0.83119 0.11469 0.0
C169 C 0.13101 0.80803 0.08644 0.0
C170 C 0.14574 0.73598 0.14721 0.0
C171 C 1.02507 0.76699 0.15975 0.0
C172 C 0.99809 0.78705 0.16249 0.0
C173 C 1.00007 0.8171 0.14092 0.0
C174 C 0.97187 0.83314 0.14298 0.0
C175 C 0.94129 0.81957 0.1667 0.0
C176 C 0.94092 0.79108 0.18901 0.0
C177 C 0.96882 0.77487 0.18682 0.0
C178 C 0.16205 0.81528 0.19509 0.0
C179 C 0.15338 0.89235 0.1354 0.0
O180 O 0.25545 0.87824 0.13944 0.0
O181 O 0.24234 0.83309 0.10232 0.0
O182 O 0.13077 0.78937 0.11079 0.0
O183 O 0.16913 0.8398 0.08229 0.0
O184 O 0.18233 0.77234 0.14578 0.0
O185 O 0.10872 0.73522 0.14588 0.0
O186 O 0.04292 0.76953 0.13299 0.0
O187 O 0.05086 0.77317 0.18263 0.0
O188 O 0.16461 0.83555 0.17066 0.0
O189 O 0.12434 0.78201 0.19701 0.0
O190 O 0.11702 0.8581 0.14344 0.0
O191 O 0.18833 0.8906 0.12985 0.0
H192 H 0.33518 0.91719 0.15709 0.0
H193 H 0.403 0.92015 0.16689 0.0
H194 H 0.36486 0.81024 0.10868 0.0
H195 H 0.29667 0.80673 0.09951 0.0
H196 H 1.02269 0.82751 0.12208 0.0
H197 H 0.97293 0.85483 0.12532 0.0
H198 H 0.91841 0.78059 0.20795 0.0
H199 H 0.96698 0.75212 0.20389 0.0
Tb200 Tb 0.39678 0.18816 0.62258 0.0
Tb201 Tb 0.3426 0.09405 0.64423 0.0
C202 C 0.45031 0.26476 0.61068 0.0
C203 C 0.49083 0.30156 0.62133 0.0
C204 C 0.52965 0.31091 0.6074 0.0
C205 C 0.567 0.34899 0.614 0.0
C206 C 0.56639 0.37882 0.63453 0.0
C207 C 0.52781 0.36883 0.6492 0.0
C208 C 0.49048 0.33073 0.64263 0.0
C209 C 0.35321 0.12882 0.5806 0.0
C210 C 0.44211 0.13556 0.64108 0.0
C211 C 0.28888 1.01658 0.63785 0.0
C212 C 0.24453 0.98746 0.64708 0.0
C213 C 0.22853 0.94343 0.64511 0.0
C214 C 0.18531 0.91511 0.65021 0.0
C215 C 0.15715 0.93033 0.6573 0.0
C216 C 0.17346 0.9746 0.6598 0.0
C217 C 0.21687 1.00295 0.65484 0.0
C218 C 0.37057 0.1438 0.69281 0.0
C219 C 0.3054 0.15856 0.64686 0.0
O220 O 0.41648 0.25292 0.62796 0.0
O221 O 0.45158 0.23221 0.5984 0.0
O222 O 0.37311 0.12643 0.60319 0.0
O223 O 0.35738 0.16656 0.58026 0.0
O224 O 0.44423 0.17332 0.64032 0.0
O225 O 0.40531 0.09916 0.63887 0.0
O226 O 0.29386 0.04651 0.61843 0.0
O227 O 0.3179 0.03068 0.65951 0.0
O228 O 0.37719 0.15476 0.66487 0.0
O229 O 0.3473 0.10247 0.69408 0.0
O230 O 0.29657 0.11814 0.6445 0.0
O231 O 0.34398 0.19105 0.64235 0.0
H232 H 0.53094 0.28953 0.59051 0.0
H233 H 0.59602 0.35583 0.602 0.0
H234 H 0.52631 0.3908 0.66543 0.0
H235 H 0.46108 0.32484 0.65358 0.0
H236 H 0.24927 0.93093 0.63875 0.0
H237 H 0.17371 0.88126 0.64763 0.0
H238 H 0.15268 0.98727 0.66546 0.0
H239 H 0.22861 0.03695 0.65631 0.0
Tb240 Tb 0.68861 0.83554 0.4306 0.0
Tb241 Tb 0.74021 0.79094 0.40787 0.0
C242 C 0.64176 0.86817 0.4384 0.0
C243 C 0.60509 0.87271 0.42802 0.0
C244 C 0.61307 0.91136 0.41438 0.0
C245 C 0.58001 0.92018 0.40935 0.0
C246 C 0.53797 0.8906 0.41789 0.0
C247 C 0.5296 0.85108 0.43033 0.0
C248 C 0.56283 0.84231 0.43551 0.0
C249 C 0.72516 0.81087 0.47284 0.0
C250 C 0.63992 0.73846 0.40861 0.0
C251 C 0.79103 0.76286 0.41189 0.0
C252 C 0.83748 0.78186 0.40616 0.0
C253 C 0.86639 0.80028 0.43055 0.0
C254 C 0.91023 0.81865 0.42558 0.0
C255 C 0.92632 0.81866 0.39615 0.0
C256 C 0.89748 0.80034 0.37169 0.0
C257 C 0.85356 0.78216 0.37663 0.0
C258 C 0.718 0.82247 0.36091 0.0
C259 C 0.7865 0.89229 0.41874 0.0
O260 O 0.67587 0.88486 0.42089 0.0
O261 O 0.63494 0.83278 0.45204 0.0
O262 O 0.70784 0.7924 0.44829 0.0
O263 O 0.71782 0.84228 0.47645 0.0
O264 O 0.63951 0.77497 0.41154 0.0
O265 O 0.6756 0.73622 0.40998 0.0
O266 O 0.78063 0.7791 0.43505 0.0
O267 O 0.76612 0.75555 0.38805 0.0
O268 O 0.71226 0.82491 0.38923 0.0
O269 O 0.73796 0.80099 0.35811 0.0
O270 O 0.79038 0.85783 0.4149 0.0
O271 O 0.74968 0.89104 0.42232 0.0
H272 H 0.64531 0.93571 0.4087 0.0
H273 H 0.58755 0.95064 0.39933 0.0
H274 H 0.49763 0.82767 0.43738 0.0
H275 H 0.55559 0.81245 0.44643 0.0
H276 H 0.85512 0.80027 0.45365 0.0
H277 H 0.93144 0.83171 0.44503 0.0
H278 H 0.90889 0.79994 0.34871 0.0
H279 H 0.83228 0.76822 0.35732 0.0
Tb280 Tb 0.87501 0.66912 0.92811 0.0
Tb281 Tb 0.97168 0.72411 0.91017 0.0
C282 C 0.79658 0.61802 0.93453 0.0
C283 C 0.75907 0.58019 0.92155 0.0
C284 C 0.72785 0.5855 0.90616 0.0
C285 C 0.68904 0.55016 0.8979 0.0
C286 C 0.6804 0.50861 0.90499 0.0
C287 C 0.71226 0.50326 0.91946 0.0
C288 C 0.75111 0.53863 0.92771 0.0
C289 C 0.93081 0.70641 0.97323 0.0
C290 C 0.92839 0.62399 0.90913 0.0
C291 C 0.0486 0.77783 0.91895 0.0
C292 C 0.07479 0.82492 0.91623 0.0
C293 C 0.08457 0.84977 0.94301 0.0
C294 C 0.10766 0.8942 0.94142 0.0
C295 C 0.12252 0.91523 0.91304 0.0
C296 C 0.11299 0.89039 0.88617 0.0
C297 C 0.0893 0.84568 0.88774 0.0
C298 C 0.92335 0.70093 0.8604 0.0
C299 C 0.91072 0.76514 0.91229 0.0
O300 O 0.81229 0.65352 0.91862 0.0
O301 O 0.82619 0.61296 0.94807 0.0
O302 O 0.93523 0.68979 0.94926 0.0
O303 O 0.89274 0.70124 0.97339 0.0
O304 O 0.89077 0.62228 0.90964 0.0
O305 O 0.96506 0.66039 0.91248 0.0
O306 O 1.01901 0.76476 0.94013 0.0
O307 O 1.0351 0.7549 0.89376 0.0
O308 O 0.91222 0.69348 0.88816 0.0
O309 O 0.96471 0.72296 0.85983 0.0
O310 O 0.9501 0.77152 0.91488 0.0
O311 O 0.87682 0.72676 0.91305 0.0
H312 H 0.73281 0.61714 0.9014 0.0
H313 H 0.66552 0.55545 0.88641 0.0
H314 H 0.70654 0.47175 0.92562 0.0
H315 H 0.77421 0.53339 0.93989 0.0
H316 H 0.07393 0.83479 0.96535 0.0
H317 H 0.11361 0.91206 0.96256 0.0
H318 H 0.12442 0.90541 0.86396 0.0
H319 H 0.08243 0.82749 0.86668 0.0
Tb320 Tb 0.22722 0.86386 0.42904 0.0
Tb321 Tb 0.27733 0.95999 0.40825 0.0
C322 C 0.19423 0.78507 0.43973 0.0
C323 C 0.19278 0.74498 0.43077 0.0
C324 C 0.16753 0.70827 0.4483 0.0
C325 C 0.16427 0.6692 0.44047 0.0
C326 C 0.18625 0.66587 0.41483 0.0
C327 C 0.21159 0.70291 0.39717 0.0
C328 C 0.21477 0.74215 0.40504 0.0
C329 C 0.24922 0.92424 0.4715 0.0
C330 C 0.32517 0.90736 0.40906 0.0
C331 C 0.30551 0.03873 0.41366 0.0
C332 C 0.28432 0.06504 0.41102 0.0
C333 C 0.25933 0.06651 0.43537 0.0
C334 C 0.23826 0.09002 0.43285 0.0
C335 C 0.24159 0.113 0.40589 0.0
C336 C 0.26684 0.11187 0.38153 0.0
C337 C 0.28798 0.08822 0.38409 0.0
C338 C 0.24952 0.90956 0.35977 0.0
C339 C 0.17496 0.90691 0.41003 0.0
O340 O 0.17872 0.80143 0.42018 0.0
O341 O 0.22871 0.81423 0.45336 0.0
O342 O 0.27025 0.92422 0.44864 0.0
O343 O 0.21477 0.88753 0.47282 0.0
O344 O 0.28731 0.87219 0.41107 0.0
O345 O 0.33019 0.94653 0.411 0.0
O346 O 0.29351 1.01221 0.43694 0.0
O347 O 0.31001 1.02144 0.38841 0.0
O348 O 0.2442 0.89925 0.38778 0.0
O349 O 0.27235 0.95085 0.35832 0.0
O350 O 0.21002 0.94483 0.41251 0.0
O351 O 0.17537 0.87067 0.41199 0.0
H352 H 0.15028 0.70983 0.46823 0.0
H353 H 0.14516 0.64175 0.45496 0.0
H354 H 0.22875 0.7015 0.37716 0.0
H355 H 0.23422 0.77014 0.3911 0.0
H356 H 0.25591 0.04942 0.45653 0.0
H357 H 0.21994 0.09079 0.45235 0.0
H358 H 0.26999 0.12897 0.36033 0.0
H359 H 0.30701 0.0879 0.3649 0.0
Tb360 Tb 0.39637 0.22126 0.92346 0.0
Tb361 Tb 0.3412 0.2587 0.90264 0.0
C362 C 0.44937 0.1958 0.92413 0.0
C363 C 0.48067 0.18065 0.92329 0.0
C364 C 0.49333 0.17166 0.89497 0.0
C365 C 0.52368 0.1584 0.89377 0.0
C366 C 0.54188 0.15349 0.92087 0.0
C367 C 0.52867 0.16179 0.94927 0.0
C368 C 0.49851 0.17544 0.95045 0.0
C369 C 0.36141 0.24396 0.96779 0.0
C370 C 0.43977 0.31942 0.90374 0.0
C371 C 0.28603 0.28167 0.89849 0.0
C372 C 0.2415 0.26544 0.90796 0.0
C373 C 0.21577 0.22335 0.91841 0.0
C374 C 0.1731 0.20847 0.92638 0.0
C375 C 0.15552 0.23551 0.92409 0.0
C376 C 0.18169 0.27772 0.91375 0.0
C377 C 0.22421 0.29249 0.90585 0.0
C378 C 0.37563 0.23662 0.85809 0.0
C379 C 0.29974 0.15969 0.92298 0.0
O380 O 0.42707 0.1936 0.89987 0.0
O381 O 0.44171 0.21245 0.94845 0.0
O382 O 0.37581 0.26266 0.94253 0.0
O383 O 0.3715 0.21423 0.9708 0.0
O384 O 0.44333 0.28505 0.90813 0.0
O385 O 0.40239 0.31799 0.90393 0.0
O386 O 0.31414 0.29394 0.92055 0.0
O387 O 0.29253 0.25972 0.87734 0.0
O388 O 0.36076 0.217 0.88316 0.0
O389 O 0.36896 0.26876 0.85671 0.0
O390 O 0.29448 0.19327 0.91846 0.0
O391 O 0.33738 0.16236 0.92271 0.0
H392 H 0.48013 0.17531 0.87362 0.0
H393 H 0.53289 0.1519 0.87157 0.0
H394 H 0.54241 0.1587 0.97053 0.0
H395 H 0.48931 0.18209 0.97259 0.0
H396 H 0.22847 0.20189 0.92024 0.0
H397 H 0.15397 0.17594 0.93448 0.0
H398 H 0.16909 0.29924 0.91115 0.0
H399 H 0.2435 0.32501 0.89771 0.0
Tb400 Tb 0.20182 0.38578 0.42554 0.0
Tb401 Tb 0.10927 0.32794 0.40352 0.0
C402 C 0.27733 0.44011 0.43924 0.0
C403 C 0.31807 0.47653 0.4288 0.0
C404 C 0.32045 0.50727 0.40786 0.0
C405 C 0.36009 0.54275 0.40039 0.0
C406 C 0.39796 0.54808 0.41378 0.0
C407 C 0.39511 0.51655 0.43424 0.0
C408 C 0.35571 0.48127 0.44157 0.0
C409 C 0.14208 0.3423 0.46809 0.0
C410 C 0.14698 0.42749 0.40528 0.0
C411 C 1.03255 0.27133 0.40942 0.0
C412 C 1.00564 0.22614 0.40122 0.0
C413 C 1.02291 0.20324 0.38679 0.0
C414 C 0.99863 0.15872 0.38403 0.0
C415 C 0.95696 0.13651 0.39602 0.0
C416 C 0.9394 0.15995 0.4093 0.0
C417 C 0.96355 0.20429 0.4119 0.0
C418 C 0.1595 0.35726 0.35488 0.0
C419 C 0.17679 0.29499 0.40301 0.0
O420 O 0.26634 0.40282 0.42729 0.0
O421 O 0.24473 0.44603 0.44359 0.0
O422 O 0.1392 0.36032 0.44448 0.0
O423 O 0.18064 0.3492 0.46938 0.0
O424 O 0.18539 0.43129 0.40608 0.0
O425 O 0.11153 0.38976 0.40799 0.0
O426 O 0.06224 0.27834 0.42944 0.0
O427 O 0.04633 0.29968 0.38711 0.0
O428 O 0.17019 0.36444 0.38281 0.0
O429 O 0.11851 0.33238 0.35371 0.0
O430 O 0.1361 0.28437 0.40635 0.0
O431 O 0.20779 0.33486 0.40495 0.0
H432 H 0.29177 0.50418 0.39765 0.0
H433 H 0.36104 0.56613 0.3843 0.0
H434 H 0.4232 0.51975 0.44551 0.0
H435 H 0.35455 0.45801 0.45792 0.0
H436 H 0.05563 0.21957 0.37878 0.0
H437 H 1.01306 0.14155 0.37379 0.0
H438 H 0.90717 0.14384 0.41829 0.0
H439 H 0.94984 0.22136 0.42337 0.0
Tb440 Tb 0.84827 0.18456 0.92454 0.0
Tb441 Tb 0.80843 0.09159 0.90905 0.0
C442 C 0.8786 0.26401 0.92951 0.0
C443 C 0.87643 0.30222 0.91938 0.0
C444 C 0.84267 0.30877 0.92826 0.0
C445 C 0.84466 0.348 0.92267 0.0
C446 C 0.88048 0.38173 0.90813 0.0
C447 C 0.91356 0.37455 0.89841 0.0
C448 C 0.91158 0.33536 0.90405 0.0
C449 C 0.82615 0.13018 0.97185 0.0
C450 C 0.75217 0.13641 0.90438 0.0
C451 C 0.77093 1.01162 0.90816 0.0
C452 C 0.78532 0.98062 0.90236 0.0
C453 C 0.75762 0.93727 0.90808 0.0
C454 C 0.77198 0.90787 0.90535 0.0
C455 C 0.81445 0.92129 0.89683 0.0
C456 C 0.84211 0.96492 0.89096 0.0
C457 C 0.82766 0.99434 0.89372 0.0
C458 C 0.85468 0.1431 0.86407 0.0
C459 C 0.906 0.14388 0.92474 0.0
O460 O 0.89284 0.24645 0.9098 0.0
O461 O 0.84787 0.23576 0.947 0.0
O462 O 0.80625 0.12586 0.94747 0.0
O463 O 0.86021 0.16715 0.97099 0.0
O464 O 0.78703 0.17356 0.90829 0.0
O465 O 0.75213 0.09964 0.90559 0.0
O466 O 0.78666 0.03434 0.93307 0.0
O467 O 0.77153 0.03476 0.88465 0.0
O468 O 0.8306 0.14929 0.88193 0.0
O469 O 0.85151 0.10662 0.87031 0.0
O470 O 0.87109 0.10602 0.92693 0.0
O471 O 0.90428 0.17868 0.91838 0.0
H472 H 0.81533 0.28417 0.94047 0.0
H473 H 0.81875 0.35237 0.93084 0.0
H474 H 0.94132 0.39942 0.88675 0.0
H475 H 0.93832 0.33146 0.89725 0.0
H476 H 0.72507 0.92624 0.91529 0.0
H477 H 0.74999 0.87469 0.91062 0.0
H478 H 0.87485 0.9763 0.88415 0.0
H479 H 0.84968 0.02787 0.88958 0.0
H480 H 0.21395 0.96311 0.10674 0.0
H481 H 0.10049 0.91758 0.16234 0.0
H482 H 0.11227 0.99048 0.16608 0.0
H483 H 0.15816 0.06811 0.15652 0.0
H484 H 0.27149 0.11197 0.10091 0.0
H485 H 0.25619 0.03873 0.09405 0.0
C486 C 0.19155 0.96897 0.11954 0.0
C487 C 0.15671 0.935 0.1346 0.0
C488 C 0.19863 1.01077 0.12168 0.0
C489 C 0.12765 0.94315 0.15061 0.0
C490 C 0.13451 0.98488 0.15288 0.0
C491 C 0.17934 0.06152 0.14281 0.0
C492 C 0.21601 0.09557 0.12932 0.0
C493 C 0.17044 1.01909 0.13903 0.0
C494 C 0.24286 0.08647 0.11128 0.0
C495 C 0.23429 0.04457 0.1075 0.0
H496 H 0.21802 0.11287 0.63881 0.0
H497 H 0.31951 0.23029 0.67586 0.0
H498 H 0.27053 0.25677 0.68455 0.0
H499 H 0.20136 0.25058 0.67686 0.0
H500 H 0.09737 0.13305 0.6423 0.0
H501 H 0.14479 0.10324 0.63714 0.0
C502 C 0.22911 0.14389 0.64922 0.0
C503 C 0.27261 0.16983 0.65598 0.0
C504 C 0.20052 0.15944 0.65418 0.0
C505 C 0.28642 0.20992 0.66969 0.0
C506 C 0.25841 0.22523 0.67478 0.0
C507 C 0.18848 0.21802 0.66896 0.0
C508 C 0.14577 0.19459 0.65962 0.0
C509 C 0.2157 0.20083 0.66637 0.0
C510 C 0.13034 0.15254 0.64895 0.0
C511 C 0.15742 0.13523 0.64617 0.0
H512 H 0.96764 0.19792 0.12105 0.0
H513 H 0.98332 0.10033 0.16626 0.0
H514 H 0.06104 0.1457 0.16359 0.0
H515 H 0.12509 0.21571 0.15052 0.0
H516 H 0.10635 0.31169 0.10524 0.0
H517 H 1.0299 0.26454 0.10569 0.0
C518 C 0.98804 0.18664 0.13048 0.0
C519 C 0.96971 0.1461 0.1442 0.0
C520 C 1.03244 0.21272 0.12878 0.0
C521 C 0.99666 0.13152 0.15561 0.0
C522 C 0.04112 0.1575 0.15413 0.0
C523 C 0.1042 0.22589 0.14042 0.0
C524 C 0.12155 0.26741 0.12819 0.0
C525 C 0.05951 0.19847 0.14099 0.0
C526 C 0.09398 0.28018 0.11521 0.0
C527 C 0.05009 0.25323 0.11543 0.0
H528 H 0.9053 0.97519 0.64021 0.0
H529 H 0.77407 0.93441 0.61913 0.0
H530 H 0.79176 1.00821 0.61124 0.0
H531 H 0.84256 0.08385 0.61391 0.0
H532 H 0.97396 0.12742 0.63607 0.0
H533 H 0.95846 0.05301 0.63924 0.0
C534 C 0.88081 0.98259 0.63352 0.0
C535 C 0.83826 0.94939 0.63074 0.0
C536 C 0.89119 1.02547 0.62925 0.0
C537 C 0.80682 0.95938 0.62204 0.0
C538 C 0.81693 1.00156 0.61738 0.0
C539 C 0.86804 0.07726 0.61927 0.0
C540 C 0.90924 0.11113 0.62515 0.0
C541 C 0.85872 0.0348 0.62156 0.0
C542 C 0.94194 0.10191 0.63148 0.0
C543 C 0.93298 0.05936 0.63348 0.0
H544 H 0.94879 0.89797 0.15389 0.0
H545 H 0.85723 0.76833 0.17929 0.0
H546 H 0.80041 0.78568 0.17821 0.0
H547 H 0.77568 0.83564 0.16797 0.0
H548 H 0.86438 0.96511 0.14081 0.0
H549 H 0.92334 0.9499 0.14488 0.0
C550 C 0.91639 0.87357 0.15915 0.0
C551 C 0.90753 0.8319 0.16689 0.0
C552 C 0.88332 0.88364 0.15813 0.0
C553 C 0.86533 0.80081 0.17388 0.0
C554 C 0.83262 0.81059 0.17303 0.0
C555 C 0.80787 0.86076 0.16286 0.0
C556 C 0.81544 0.90137 0.15369 0.0
C557 C 0.84118 0.85166 0.16493 0.0
C558 C 0.85756 0.93356 0.14786 0.0
C559 C 0.89124 0.92476 0.15005 0.0
H560 H 0.97347 0.77266 0.67241 0.0
H561 H 0.9397 0.85199 0.61889 0.0
H562 H 1.01382 0.91088 0.62142 0.0
H563 H 0.08958 0.93646 0.63473 0.0
H564 H 0.1208 0.85532 0.6888 0.0
H565 H 0.0461 0.80022 0.69009 0.0
C566 C 0.98226 0.80298 0.66143 0.0
C567 C 0.95159 0.80793 0.64502 0.0
C568 C 1.02447 0.83608 0.66289 0.0
C569 C 0.96297 0.84754 0.63155 0.0
C570 C 1.00532 0.881 0.63288 0.0
C571 C 0.07987 0.90704 0.64726 0.0
C572 C 0.1109 0.89972 0.6612 0.0
C573 C 1.03659 0.87523 0.64789 0.0
C574 C 0.09778 0.86138 0.6773 0.0
C575 C 0.05504 0.82991 0.67816 0.0
H576 H 0.11114 0.84717 0.37672 0.0
H577 H 0.14418 0.95779 0.43259 0.0
H578 H 0.06969 0.94189 0.43151 0.0
H579 H 0.99389 0.89179 0.41882 0.0
H580 H 0.96285 0.78091 0.36348 0.0
H581 H 1.03794 0.80185 0.36001 0.0
C582 C 0.10214 0.86813 0.38839 0.0
C583 C 0.13283 0.90323 0.40508 0.0
C584 C 0.05956 0.85849 0.38793 0.0
C585 C 0.12104 0.93058 0.4196 0.0
C586 C 0.07843 0.92125 0.41917 0.0
C587 C 1.00368 0.87242 0.40586 0.0
C588 C 0.97265 0.83463 0.39159 0.0
C589 C 0.04717 0.88453 0.40413 0.0
C590 C 0.98592 0.81024 0.37447 0.0
C591 C 1.02888 0.82205 0.37263 0.0
H592 H 0.18303 0.9669 0.95375 0.0
H593 H 0.12214 0.97076 0.86962 0.0
H594 H 0.16823 0.04828 0.86706 0.0
H595 H 0.22963 0.11473 0.8872 0.0
H596 H 0.29007 0.10866 0.97075 0.0
H597 H 0.23909 0.03262 0.97585 0.0
C598 C 0.17901 0.9846 0.93515 0.0
C599 C 0.14908 0.96274 0.91189 0.0
C600 C 0.20535 0.02905 0.93393 0.0
C601 C 0.14533 0.9865 0.88761 0.0
C602 C 0.17146 0.03095 0.88626 0.0
C603 C 0.23065 0.09681 0.9069 0.0
C604 C 0.2631 0.11705 0.92878 0.0
C605 C 0.20201 0.05256 0.9091 0.0
C606 C 0.26502 0.09357 0.95384 0.0
C607 C 0.23615 0.05009 0.95661 0.0
H608 H 0.13574 0.20983 0.41903 0.0
H609 H 0.24752 0.3077 0.37278 0.0
H610 H 0.27601 0.2595 0.3679 0.0
H611 H 0.27281 0.19212 0.38067 0.0
H612 H 0.16198 0.09318 0.42695 0.0
H613 H 0.12993 0.13905 0.42806 0.0
C614 C 0.16594 0.22023 0.40745 0.0
C615 C 0.1896 0.2625 0.39663 0.0
C616 C 0.18277 0.19235 0.40509 0.0
C617 C 0.22883 0.27555 0.38174 0.0
C618 C 0.24526 0.24799 0.3789 0.0
C619 C 0.24128 0.18014 0.39047 0.0
C620 C 0.22016 0.1393 0.40392 0.0
C621 C 0.22305 0.20669 0.39111 0.0
C622 C 0.17946 0.12478 0.41691 0.0
C623 C 0.16094 0.15094 0.41742 0.0
H624 H 0.08582 0.15816 0.91042 0.0
H625 H 0.12277 0.27821 0.9553 0.0
H626 H 0.04825 0.25812 0.96197 0.0
H627 H 0.97332 0.21 0.95071 0.0
H628 H 0.93443 0.08928 0.90679 0.0
H629 H 1.00896 0.10545 0.90488 0.0
C630 C 0.07755 0.17954 0.92221 0.0
C631 C 0.10999 0.22011 0.93173 0.0
C632 C 1.03435 0.16769 0.9261 0.0
C633 C 0.09858 0.24737 0.94697 0.0
C634 C 0.05594 0.23581 0.95097 0.0
C635 C 0.98112 0.18694 0.94111 0.0
C636 C 0.94873 0.14877 0.9286 0.0
C637 C 1.0237 0.19665 0.93988 0.0
C638 C 0.95897 0.11884 0.91663 0.0
C639 C 1.00157 0.12828 0.91532 0.0
H640 H 0.91269 0.08505 0.44357 0.0
H641 H 0.94625 0.08137 0.3489 0.0
H642 H 0.90062 1.00351 0.34855 0.0
H643 H 0.84508 0.93715 0.37402 0.0
H644 H 0.81038 0.94317 0.46798 0.0
H645 H 0.86267 1.01916 0.46996 0.0
C646 C 0.91004 0.06721 0.42284 0.0
C647 C 0.9322 0.08902 0.39615 0.0
C648 C 0.88358 1.02274 0.42278 0.0
C649 C 0.92935 0.06534 0.36972 0.0
C650 C 0.90317 1.02084 0.3695 0.0
C651 C 0.85006 0.95504 0.39509 0.0
C652 C 0.82449 0.93482 0.42097 0.0
C653 C 0.87941 0.99923 0.39574 0.0
C654 C 0.8302 0.95824 0.44797 0.0
C655 C 0.8598 1.00169 0.44902 0.0
H656 H 0.8421 0.76257 0.88624 0.0
H657 H 0.96177 0.84928 0.92888 0.0
H658 H 0.94357 0.90644 0.92646 0.0
H659 H 0.89072 0.92969 0.91563 0.0
H660 H 0.7719 0.84154 0.87229 0.0
H661 H 0.7926 0.78681 0.87198 0.0
C662 C 0.86439 0.79401 0.89497 0.0
C663 C 0.90299 0.80152 0.90814 0.0
C664 C 0.85362 0.82631 0.89365 0.0
C665 C 0.93181 0.84267 0.9187 0.0
C666 C 0.92128 0.87524 0.91745 0.0
C667 C 0.86965 0.89873 0.9057 0.0
C668 C 0.82943 0.88963 0.89443 0.0
C669 C 0.88188 0.86719 0.90545 0.0
C670 C 0.80252 0.84919 0.88178 0.0
C671 C 0.81444 0.81789 0.88141 0.0
H672 H 0.21517 0.72674 0.15578 0.0
H673 H 0.07953 0.65415 0.14059 0.0
H674 H 0.08366 0.58866 0.13663 0.0
H675 H 0.12668 0.55289 0.13392 0.0
H676 H 0.26252 0.62653 0.14777 0.0
H677 H 0.25719 0.69053 0.15633 0.0
C678 C 0.18635 0.69659 0.15184 0.0
C679 C 0.14712 0.69554 0.1482 0.0
C680 C 0.18901 0.65918 0.14932 0.0
C681 C 0.11016 0.65602 0.14342 0.0
C682 C 0.11253 0.61853 0.14105 0.0
C683 C 0.15511 0.58293 0.13889 0.0
C684 C 0.195 0.58483 0.14 0.0
C685 C 0.15192 0.61987 0.14336 0.0
C686 C 0.23137 0.62391 0.14704 0.0
C687 C 0.22841 0.66067 0.1517 0.0
H688 H 0.60276 0.1095 0.63448 0.0
H689 H 0.66716 0.24573 0.64877 0.0
H690 H 0.59866 0.24309 0.65403 0.0
H691 H 0.52096 0.20327 0.65111 0.0
H692 H 0.45574 0.0673 0.63533 0.0
H693 H 0.52419 0.0688 0.63402 0.0
C694 C 0.60184 0.13865 0.63873 0.0
C695 C 0.64027 0.17785 0.64103 0.0
C696 C 0.56221 0.137 0.64131 0.0
C697 C 0.63831 0.2151 0.64717 0.0
C698 C 0.59907 0.21366 0.64995 0.0
C699 C 0.52147 0.17377 0.64756 0.0
C700 C 0.48303 0.1352 0.64309 0.0
C701 C 0.56088 0.17493 0.64657 0.0
C702 C 0.48466 0.09742 0.6388 0.0
C703 C 0.52386 0.0983 0.63796 0.0
H704 H 0.51715 0.59078 0.13586 0.0
H705 H 0.44705 0.65617 0.15588 0.0
H706 H 0.3816 0.58789 0.16117 0.0
H707 H 0.34326 0.51038 0.15633 0.0
H708 H 0.41149 0.44361 0.13493 0.0
H709 H 0.47872 0.51171 0.13411 0.0
C710 C 0.48755 0.5901 0.14141 0.0
C711 C 0.48719 0.62884 0.14529 0.0
C712 C 0.44968 0.5505 0.14408 0.0
C713 C 0.44859 0.62713 0.15306 0.0
C714 C 0.41099 0.58802 0.15587 0.0
C715 C 0.37282 0.51047 0.15169 0.0
C716 C 0.37219 0.47181 0.1454 0.0
C717 C 0.41105 0.54961 0.15091 0.0
C718 C 0.41097 0.47277 0.13987 0.0
C719 C 0.44939 0.51177 0.13922 0.0
H720 H 0.95526 0.49944 0.64052 0.0
H721 H 0.81806 0.42853 0.64769 0.0
H722 H 0.82001 0.3623 0.65299 0.0
H723 H 0.8598 0.32397 0.65309 0.0
H724 H 0.99694 0.39346 0.64629 0.0
H725 H 0.99587 0.46089 0.64439 0.0
C726 C 0.92579 0.46963 0.64372 0.0
C727 C 0.88647 0.46921 0.64329 0.0
C728 C 0.92711 0.43136 0.64696 0.0
C729 C 0.8487 0.42998 0.6472 0.0
C730 C 0.84979 0.392 0.65048 0.0
C731 C 0.88964 0.35382 0.65143 0.0
C732 C 0.92844 0.35348 0.6496 0.0
C733 C 0.88871 0.39225 0.64994 0.0
C734 C 0.96664 0.39266 0.64782 0.0
C735 C 0.96599 0.43123 0.64652 0.0
H736 H 0.55497 0.84834 0.15107 0.0
H737 H 0.61643 0.98571 0.14504 0.0
H738 H 0.54672 0.98137 0.14288 0.0
H739 H 0.46825 0.93822 0.14001 0.0
H740 H 0.40778 0.80095 0.14647 0.0
H741 H 0.47728 0.80579 0.1507 0.0
C742 C 0.55338 0.87752 0.14944 0.0
C743 C 0.59125 0.91737 0.14808 0.0
C744 C 0.51323 0.87478 0.14797 0.0
C745 C 0.58805 0.95461 0.14616 0.0
C746 C 0.54811 0.95213 0.14481 0.0
C747 C 0.47015 0.90934 0.14278 0.0
C748 C 0.4325 0.86919 0.14268 0.0
C749 C 0.51045 0.91234 0.14535 0.0
C750 C 0.43598 0.83222 0.14589 0.0
C751 C 0.4758 0.83496 0.14852 0.0
H752 H 0.74794 0.54283 0.64663 0.0
H753 H 0.67203 0.60493 0.64364 0.0
H754 H 0.60711 0.53538 0.64184 0.0
H755 H 0.57217 0.45708 0.6383 0.0
H756 H 0.64848 0.3955 0.64133 0.0
H757 H 0.71302 0.46488 0.64563 0.0
C758 C 0.71724 0.54134 0.64578 0.0
C759 C 0.71503 0.57927 0.64516 0.0
C760 C 0.68008 0.50129 0.64451 0.0
C761 C 0.67482 0.5764 0.64413 0.0
C762 C 0.63763 0.53658 0.64303 0.0
C763 C 0.60283 0.45874 0.64042 0.0
C764 C 0.60537 0.42099 0.63937 0.0
C765 C 0.6399 0.49883 0.64286 0.0
C766 C 0.64555 0.42396 0.64164 0.0
C767 C 0.68249 0.46365 0.64423 0.0
H768 H 0.40955 0.96295 0.42186 0.0
H769 H 0.32452 0.8363 0.38782 0.0
H770 H 0.38244 0.82043 0.38672 0.0
H771 H 0.45648 0.84057 0.3978 0.0
H772 H 0.54207 0.96639 0.43253 0.0
H773 H 0.48526 0.98442 0.43063 0.0
C774 C 0.40389 0.93215 0.41379 0.0
C775 C 0.36252 0.90089 0.40517 0.0
C776 C 0.43752 0.9228 0.41348 0.0
C777 C 0.35583 0.86099 0.39492 0.0
C778 C 0.389 0.85173 0.39427 0.0
C779 C 0.4627 0.87191 0.40499 0.0
C780 C 0.50354 0.90194 0.41535 0.0
C781 C 0.42979 0.88205 0.40402 0.0
C782 C 0.5111 0.94269 0.42414 0.0
C783 C 0.47851 0.953 0.42323 0.0
H784 H 0.60224 0.50223 0.91275 0.0
H785 H 0.66241 0.43038 0.88335 0.0
H786 H 0.59283 0.3666 0.8781 0.0
H787 H 0.51579 0.33017 0.88522 0.0
H788 H 0.4544 0.40075 0.9145 0.0
H789 H 0.52367 0.46659 0.91548 0.0
C790 C 0.60015 0.47285 0.90463 0.0
C791 C 0.6377 0.47108 0.89881 0.0
C792 C 0.55987 0.43614 0.90163 0.0
C793 C 0.63421 0.43252 0.8886 0.0
C794 C 0.5944 0.39606 0.88542 0.0
C795 C 0.51739 0.35999 0.89162 0.0
C796 C 0.48001 0.36046 0.90017 0.0
C797 C 0.55716 0.39732 0.89248 0.0
C798 C 0.48266 0.39951 0.90784 0.0
C799 C 0.5223 0.43707 0.90859 0.0
H800 H 0.11664 0.58535 0.41731 0.0
H801 H 0.25122 0.65265 0.39647 0.0
H802 H 0.24973 0.58493 0.38906 0.0
H803 H 0.21189 0.50708 0.39223 0.0
H804 H 0.0778 0.43876 0.4146 0.0
H805 H 0.07752 0.50643 0.4176 0.0
C806 C 0.14567 0.58524 0.41114 0.0
C807 C 0.18409 0.62431 0.40765 0.0
C808 C 0.14474 0.54598 0.4073 0.0
C809 C 0.22114 0.62334 0.39904 0.0
C810 C 0.22039 0.58453 0.39501 0.0
C811 C 0.18238 0.50675 0.39755 0.0
C812 C 0.14494 0.46766 0.40344 0.0
C813 C 0.18258 0.54572 0.3996 0.0
C814 C 0.10708 0.46819 0.40995 0.0
C815 C 0.10696 0.50696 0.41183 0.0
H816 H 0.67713 0.09122 0.93513 0.0
H817 H 0.73938 0.18584 0.86417 0.0
H818 H 0.67831 0.19742 0.86153 0.0
H819 H 0.61025 0.18536 0.88252 0.0
H820 H 0.54957 0.09465 0.95612 0.0
H821 H 0.60696 0.07714 0.95498 0.0
C822 C 0.67667 0.11355 0.91863 0.0
C823 C 0.71225 0.13725 0.89954 0.0
C824 C 0.64211 0.12134 0.91818 0.0
C825 C 0.71204 0.16701 0.87884 0.0
C826 C 0.6773 0.17383 0.87748 0.0
C827 C 0.60924 0.16129 0.898 0.0
C828 C 0.57567 0.14134 0.91936 0.0
C829 C 0.64261 0.15191 0.89752 0.0
C830 C 0.57527 0.11077 0.93965 0.0
C831 C 0.60796 0.1006 0.9389 0.0
H832 H 0.47649 0.55453 0.40731 0.0
H833 H 0.41442 0.63054 0.40803 0.0
H834 H 0.48338 0.69548 0.40406 0.0
H835 H 0.56127 0.73109 0.40441 0.0
H836 H 0.62403 0.65571 0.4059 0.0
H837 H 0.55485 0.59032 0.40529 0.0
C838 C 0.47796 0.58527 0.40665 0.0
C839 C 0.44 0.58736 0.40817 0.0
C840 C 0.51794 0.62274 0.40502 0.0
C841 C 0.44278 0.62763 0.40657 0.0
C842 C 0.48235 0.66494 0.40458 0.0
C843 C 0.56004 0.70043 0.40438 0.0
C844 C 0.59811 0.69857 0.40542 0.0
C845 C 0.52014 0.66292 0.40436 0.0
C846 C 0.59547 0.65834 0.40518 0.0
C847 C 0.55583 0.62084 0.4049 0.0
H848 H 0.86115 0.54606 0.8954 0.0
H849 H 0.99512 0.60865 0.91703 0.0
H850 H 0.99253 0.53955 0.91738 0.0
H851 H 0.95107 0.46088 0.91482 0.0
H852 H 0.81731 0.39922 0.89258 0.0
H853 H 0.82103 0.46849 0.88967 0.0
C854 C 0.88999 0.54484 0.90001 0.0
C855 C 0.92828 0.58276 0.90636 0.0
C856 C 0.88821 0.50501 0.90041 0.0
C857 C 0.96522 0.58018 0.91203 0.0
C858 C 0.96371 0.54057 0.91237 0.0
C859 C 0.92284 0.46253 0.90882 0.0
C860 C 0.88382 0.42452 0.9042 0.0
C861 C 0.92522 0.50269 0.90702 0.0
C862 C 0.84757 0.42762 0.89686 0.0
C863 C 0.84971 0.46733 0.89499 0.0
H864 H 0.13407 0.36394 0.29852 0.0
H865 H 0.24541 0.38608 0.34915 0.0
H866 H 0.28572 0.40047 0.30076 0.0
H867 H 0.28588 0.39777 0.24387 0.0
H868 H 0.17333 0.3743 0.19403 0.0
H869 H 0.13698 0.3703 0.24243 0.0
C870 C 0.16739 0.37257 0.299 0.0
C871 C 0.18672 0.37343 0.3272 0.0
C872 C 0.18993 0.38038 0.27125 0.0
C873 C 0.22995 0.38517 0.32766 0.0
C874 C 0.25282 0.39315 0.3 0.0
C875 C 0.25365 0.39257 0.2436 0.0
C876 C 0.23203 0.38562 0.2154 0.0
C877 C 0.2327 0.38955 0.27161 0.0
C878 C 0.19051 0.37941 0.21537 0.0
C879 C 0.16966 0.37689 0.24306 0.0
H880 H 0.94875 0.19577 0.73801 0.0
H881 H 0.83762 0.20239 0.71078 0.0
H882 H 0.81149 0.18823 0.76437 0.0
H883 H 0.81894 0.16895 0.81874 0.0
H884 H 0.93148 0.16311 0.8431 0.0
H885 H 0.95905 0.18325 0.79096 0.0
C886 C 0.91875 0.19424 0.74358 0.0
C887 C 0.89483 0.19949 0.72026 0.0
C888 C 0.90457 0.18681 0.77413 0.0
C889 C 0.85644 0.19807 0.72825 0.0
C890 C 0.84164 0.1901 0.7589 0.0
C891 C 0.85001 0.17341 0.81268 0.0
C892 C 0.87354 0.16507 0.83474 0.0
C893 C 0.8653 0.18398 0.78208 0.0
C894 C 0.91318 0.16981 0.82655 0.0
C895 C 0.92875 0.18092 0.79668 0.0
H896 H 0.69468 0.93018 0.25736 0.0
H897 H 0.69616 0.83284 0.20082 0.0
H898 H 0.69552 0.79354 0.24704 0.0
H899 H 0.70427 0.79236 0.30315 0.0
H900 H 0.70229 0.88936 0.35976 0.0
H901 H 0.69281 0.92334 0.31385 0.0
C902 C 0.69388 0.89983 0.2552 0.0
C903 C 0.69582 0.88447 0.22581 0.0
C904 C 0.69387 0.87779 0.28184 0.0
C905 C 0.6945 0.84512 0.22318 0.0
C906 C 0.69452 0.82291 0.24961 0.0
C907 C 0.70098 0.82054 0.30545 0.0
C908 C 0.7044 0.83874 0.33467 0.0
C909 C 0.69569 0.83975 0.27899 0.0
C910 C 0.69966 0.87486 0.33751 0.0
C911 C 0.69454 0.89436 0.31124 0.0
H912 H 0.79482 0.66438 0.75167 0.0
H913 H 0.90705 0.69106 0.6993 0.0
H914 H 0.94497 0.6956 0.74666 0.0
H915 H 0.94873 0.69942 0.80275 0.0
H916 H 0.8377 0.67341 0.85609 0.0
H917 H 0.79656 0.66089 0.8086 0.0
C918 C 0.82734 0.67046 0.75065 0.0
C919 C 0.84827 0.67782 0.722 0.0
C920 C 0.84922 0.67359 0.77813 0.0
C921 C 0.8903 0.68545 0.72101 0.0
C922 C 0.91208 0.68826 0.74811 0.0
C923 C 0.91535 0.69052 0.80399 0.0
C924 C 0.89627 0.68774 0.83275 0.0
C925 C 0.89225 0.68359 0.77675 0.0
C926 C 0.85298 0.67575 0.83415 0.0
C927 C 0.8296 0.66879 0.80701 0.0
H928 H 0.14855 0.78218 0.25283 0.0
H929 H 0.23433 0.89254 0.19907 0.0
H930 H 0.27169 0.92943 0.24577 0.0
H931 H 0.27496 0.93315 0.3018 0.0
H932 H 0.18812 0.82471 0.35651 0.0
H933 H 0.15609 0.78381 0.30941 0.0
C934 C 0.17582 0.81409 0.25132 0.0
C935 C 0.18848 0.83485 0.22257 0.0
C936 C 0.19653 0.83543 0.27839 0.0
C937 C 0.22394 0.87602 0.2209 0.0
C938 C 0.24515 0.89716 0.24761 0.0
C939 C 0.24932 0.90034 0.30345 0.0
C940 C 0.23352 0.88195 0.33247 0.0
C941 C 0.23093 0.87762 0.27646 0.0
C942 C 0.20067 0.83942 0.33437 0.0
C943 C 0.18232 0.81622 0.30746 0.0
H944 H 0.39688 0.27072 0.8006 0.0
H945 H 0.36914 0.15842 0.85339 0.0
H946 H 0.37039 0.12193 0.80656 0.0
H947 H 0.37127 0.11903 0.75054 0.0
H948 H 0.39662 0.2295 0.6966 0.0
H949 H 0.4048 0.26997 0.74396 0.0
C950 C 0.39174 0.23848 0.80183 0.0
C951 C 0.38267 0.21716 0.8304 0.0
C952 C 0.39171 0.21736 0.77464 0.0
C953 C 0.37628 0.17552 0.83175 0.0
C954 C 0.37674 0.15455 0.80494 0.0
C955 C 0.37921 0.1522 0.74914 0.0
C956 C 0.38294 0.17125 0.72026 0.0
C957 C 0.38322 0.17474 0.77627 0.0
C958 C 0.39362 0.21426 0.71865 0.0
C959 C 0.39802 0.23722 0.74571 0.0
H960 H 0.28826 0.24771 0.96816 0.0
H961 H 0.39761 0.27557 1.02322 0.0
H962 H 0.37448 0.30887 0.06234 0.0
H963 H 0.32539 0.33407 0.0792 0.0
H964 H 0.21534 0.30531 1.02435 0.0
H965 H 0.2372 0.26997 0.9862 0.0
C966 C 0.30724 0.26167 0.98853 0.0
C967 C 0.34509 0.26023 0.99255 0.0
C968 C 0.29379 0.28097 1.01075 0.0
C969 C 0.36847 0.27655 1.01965 0.0
C970 C 0.35535 0.29578 0.04189 0.0
C971 C 0.30583 0.31949 0.05916 0.0
C972 C 0.26862 0.32217 0.05476 0.0
C973 C 0.31839 0.29875 0.03749 0.0
C974 C 0.24411 0.30376 0.02832 0.0
C975 C 0.25656 0.28345 1.00651 0.0
H976 H 0.06497 0.33847 0.47098 0.0
H977 H 0.14116 0.29383 0.51681 0.0
H978 H 0.08377 0.25505 0.55431 0.0
H979 H 1.01165 0.23414 0.57421 0.0
H980 H 0.93613 0.27949 0.52887 0.0
H981 H 0.99246 0.31614 0.49017 0.0
C982 C 0.06892 0.32003 0.48907 0.0
C983 C 0.1073 0.31887 0.49097 0.0
C984 C 1.03556 0.29747 0.51033 0.0
C985 C 0.11201 0.29521 0.51476 0.0
C986 C 0.07911 0.2729 0.53614 0.0
C987 C 1.00782 0.25226 0.55594 0.0
C988 C 0.97011 0.25451 0.55449 0.0
C989 C 0.04075 0.27384 0.53418 0.0
C990 C 0.96483 0.27717 0.5303 0.0
C991 C 0.99718 0.29837 0.50836 0.0
H992 H 0.80606 0.99896 0.07704 0.0
H993 H 0.67852 0.93289 0.04124 0.0
H994 H 0.69785 0.98859 1.00215 0.0
H995 H 0.75002 0.05796 0.9798 0.0
H996 H 0.87699 0.12607 1.01667 0.0
H997 H 0.85877 0.06877 0.05431 0.0
C998 C 0.78273 0.99678 0.06048 0.0
C999 C 0.74097 0.96189 0.06184 0.0
C1000 C 0.79382 0.02973 0.03868 0.0
C1001 C 0.71091 0.95931 0.04039 0.0
C1002 C 0.72188 0.99131 1.01824 0.0
C1003 C 0.77378 0.06013 0.99598 0.0
C1004 C 0.81491 0.09611 0.99529 0.0
C1005 C 0.76305 0.02698 1.01743 0.0
C1006 C 0.84513 0.09874 1.0167 0.0
C1007 C 0.83476 0.06585 0.03811 0.0
H1008 H 0.75219 0.70079 0.57416 0.0
H1009 H 0.88315 0.78 0.54662 0.0
H1010 H 0.86242 0.81965 0.51139 0.0
H1011 H 0.80624 0.83049 0.48717 0.0
H1012 H 0.67502 0.74759 0.51231 0.0
H1013 H 0.69639 0.71119 0.54994 0.0
C1014 C 0.7762 0.72685 0.5605 0.0
C1015 C 0.8192 0.73753 0.56307 0.0
C1016 C 0.76387 0.74895 0.53991 0.0
C1017 C 0.84985 0.77104 0.54498 0.0
C1018 C 0.83799 0.79379 0.52489 0.0
C1019 C 0.7825 0.80465 0.50113 0.0
C1020 C 0.73912 0.7918 0.49721 0.0
C1021 C 0.79503 0.78292 0.52202 0.0
C1022 C 0.70856 0.7581 0.51513 0.0
C1023 C 0.72079 0.73719 0.53651 0.0
H1024 H 1.00193 0.70027 0.98178 0.0
H1025 H 0.93368 0.76003 1.01879 0.0
H1026 H 0.99019 0.79784 0.05672 0.0
H1027 H 0.06026 0.81504 0.07868 0.0
H1028 H 0.12838 0.75578 0.04088 0.0
H1029 H 0.07163 0.71776 1.00321 0.0
C1030 C 0.99951 0.7217 0.9981 0.0
C1031 C 0.9639 0.72777 0.99722 0.0
C1032 C 1.03252 0.74393 1.01933 0.0
C1033 C 0.96085 0.75503 1.01886 0.0
C1034 C 0.99329 0.77682 0.04042 0.0
C1035 C 0.06251 0.79384 0.06209 0.0
C1036 C 0.09831 0.78816 0.06234 0.0
C1037 C 1.02947 0.77181 0.04072 0.0
C1038 C 0.10119 0.76078 0.04083 0.0
C1039 C 0.06865 0.7389 1.01947 0.0
H1040 H 0.22824 0.98445 0.48841 0.0
H1041 H 0.3131 0.93628 0.50914 0.0
H1042 H 0.35205 0.9948 0.54528 0.0
H1043 H 0.36473 0.06189 0.56874 0.0
H1044 H 0.28482 0.1149 0.54505 0.0
H1045 H 0.24149 0.05301 0.5122 0.0
C1046 C 0.25486 0.98663 0.5013 0.0
C1047 C 0.26754 0.95588 0.49657 0.0
C1048 C 0.27847 1.02173 0.52099 0.0
C1049 C 0.30253 0.9593 0.5128 0.0
C1050 C 0.32501 0.99295 0.53322 0.0
C1051 C 0.33791 0.05996 0.55625 0.0
C1052 C 0.32801 0.09294 0.55925 0.0
C1053 C 0.31381 1.02477 0.53705 0.0
C1054 C 0.29328 0.0901 0.5429 0.0
C1055 C 0.2684 0.05458 0.52425 0.0
loop_
_geom_bond_atom_site_label_1
_geom_bond_atom_site_label_2
_geom_bond_distance
_geom_bond_site_symmetry_2
_ccdc_geom_bond_type
Tb0 C2 2.809 . S
Tb0 O20 2.484 . S
Tb0 O21 2.440 . S
Tb0 O22 2.658 . S
Tb0 O23 2.409 . S
Tb0 O24 2.378 . S
Tb0 O28 2.325 . S
Tb0 O31 2.341 . S
Tb1 C11 2.809 . S
Tb1 O22 2.325 . S
Tb1 O25 2.341 . S
Tb1 O26 2.484 . S
Tb1 O27 2.440 . S
Tb1 O28 2.658 . S
Tb1 O29 2.409 . S
Tb1 O30 2.378 . S
C2 Tb0 2.809 . S
C2 C3 1.514 . S
C2 O20 1.248 . S
C2 O21 1.266 . S
C3 C2 1.514 . S
C3 C4 1.359 . S
C3 C8 1.348 . S
C4 C3 1.359 . S
C4 C5 1.380 . S
C4 H32 0.929 . S
C5 C4 1.380 . S
C5 C6 1.347 . S
C5 H33 0.931 . S
C6 C5 1.347 . S
C6 C7 1.369 . S
C7 C6 1.369 . S
C7 C8 1.408 . S
C7 H34 0.930 . S
C8 C3 1.348 . S
C8 C7 1.408 . S
C8 H35 0.930 . S
C9 O22 1.281 . S
C9 O23 1.254 . S
C10 O24 1.236 . S
C10 O25 1.266 . S
C11 Tb1 2.809 . S
C11 C12 1.514 . S
C11 O26 1.248 . S
C11 O27 1.266 . S
C12 C11 1.514 . S
C12 C13 1.359 . S
C12 C17 1.348 . S
C13 C12 1.359 . S
C13 C14 1.380 . S
C13 H36 0.929 . S
C14 C13 1.380 . S
C14 C15 1.347 . S
C14 H37 0.931 . S
C15 C14 1.347 . S
C15 C16 1.369 . S
C16 C15 1.369 . S
C16 C17 1.408 . S
C16 H38 0.930 . S
C17 C12 1.348 . S
C17 C16 1.408 . S
C17 H39 0.930 . S
C18 O28 1.281 . S
C18 O29 1.254 . S
C19 O30 1.236 . S
C19 O31 1.266 . S
O20 Tb0 2.484 . S
O20 C2 1.248 . S
O21 Tb0 2.440 . S
O21 C2 1.266 . S
O22 Tb0 2.658 . S
O22 Tb1 2.325 . S
O22 C9 1.281 . S
O23 Tb0 2.409 . S
O23 C9 1.254 . S
O24 Tb0 2.378 . S
O24 C10 1.236 . S
O25 Tb1 2.341 . S
O25 C10 1.266 . S
O26 Tb1 2.484 . S
O26 C11 1.248 . S
O27 Tb1 2.440 . S
O27 C11 1.266 . S
O28 Tb0 2.325 . S
O28 Tb1 2.658 . S
O28 C18 1.281 . S
O29 Tb1 2.409 . S
O29 C18 1.254 . S
O30 Tb1 2.378 . S
O30 C19 1.236 . S
O31 Tb0 2.341 . S
O31 C19 1.266 . S
H32 C4 0.929 . S
H33 C5 0.931 . S
H34 C7 0.930 . S
H35 C8 0.930 . S
H36 C13 0.929 . S
H37 C14 0.931 . S
H38 C16 0.930 . S
H39 C17 0.930 . S
Tb40 C42 2.809 . S
Tb40 O60 2.484 . S
Tb40 O61 2.440 . S
Tb40 O62 2.658 . S
Tb40 O63 2.409 . S
Tb40 O64 2.378 . S
Tb40 O68 2.325 . S
Tb40 O71 2.341 . S
Tb41 C51 2.809 . S
Tb41 O62 2.325 . S
Tb41 O65 2.341 . S
Tb41 O66 2.484 . S
Tb41 O67 2.440 . S
Tb41 O68 2.658 . S
Tb41 O69 2.409 . S
Tb41 O70 2.378 . S
C42 Tb40 2.809 . S
C42 C43 1.514 . S
C42 O60 1.248 . S
C42 O61 1.266 . S
C43 C42 1.514 . S
C43 C44 1.359 . S
C43 C48 1.348 . S
C44 C43 1.359 . S
C44 C45 1.380 . S
C44 H72 0.929 . S
C45 C44 1.380 . S
C45 C46 1.347 . S
C45 H73 0.931 . S
C46 C45 1.347 . S
C46 C47 1.369 . S
C47 C46 1.369 . S
C47 C48 1.408 . S
C47 H74 0.930 . S
C48 C43 1.348 . S
C48 C47 1.408 . S
C48 H75 0.930 . S
C49 O62 1.281 . S
C49 O63 1.254 . S
C50 O64 1.236 . S
C50 O65 1.266 . S
C51 Tb41 2.809 . S
C51 C52 1.514 1_655 S
C51 O66 1.248 . S
C51 O67 1.266 . S
C52 C51 1.514 1_455 S
C52 C53 1.359 . S
C52 C57 1.348 . S
C53 C52 1.359 . S
C53 C54 1.380 . S
C53 H76 0.929 . S
C54 C53 1.380 . S
C54 C55 1.347 . S
C54 H77 0.931 . S
C55 C54 1.347 . S
C55 C56 1.369 . S
C56 C55 1.369 . S
C56 C57 1.408 . S
C56 H78 0.930 . S
C57 C52 1.348 . S
C57 C56 1.408 . S
C57 H79 0.930 . S
C58 O68 1.281 . S
C58 O69 1.254 . S
C59 O70 1.236 . S
C59 O71 1.266 . S
O60 Tb40 2.484 . S
O60 C42 1.248 . S
O61 Tb40 2.440 . S
O61 C42 1.266 . S
O62 Tb40 2.658 . S
O62 Tb41 2.325 . S
O62 C49 1.281 . S
O63 Tb40 2.409 . S
O63 C49 1.254 . S
O64 Tb40 2.378 . S
O64 C50 1.236 . S
O65 Tb41 2.341 . S
O65 C50 1.266 . S
O66 Tb41 2.484 . S
O66 C51 1.248 . S
O67 Tb41 2.440 . S
O67 C51 1.266 . S
O68 Tb40 2.325 . S
O68 Tb41 2.658 . S
O68 C58 1.281 . S
O69 Tb41 2.409 . S
O69 C58 1.254 . S
O70 Tb41 2.378 . S
O70 C59 1.236 . S
O71 Tb40 2.341 . S
O71 C59 1.266 . S
H72 C44 0.929 . S
H73 C45 0.931 . S
H74 C47 0.930 . S
H75 C48 0.930 . S
H76 C53 0.929 . S
H77 C54 0.931 . S
H78 C56 0.930 . S
H79 C57 0.930 . S
Tb80 C82 2.809 . S
Tb80 O100 2.484 . S
Tb80 O101 2.440 . S
Tb80 O102 2.658 . S
Tb80 O103 2.409 . S
Tb80 O104 2.378 . S
Tb80 O108 2.325 . S
Tb80 O111 2.341 . S
Tb81 C91 2.809 . S
Tb81 O102 2.325 . S
Tb81 O105 2.341 . S
Tb81 O106 2.484 . S
Tb81 O107 2.440 . S
Tb81 O108 2.658 . S
Tb81 O109 2.409 . S
Tb81 O110 2.378 . S
C82 Tb80 2.809 . S
C82 C83 1.514 . S
C82 O100 1.248 . S
C82 O101 1.266 . S
C83 C82 1.514 . S
C83 C84 1.359 . S
C83 C88 1.348 . S
C84 C83 1.359 . S
C84 C85 1.380 . S
C84 H112 0.929 . S
C85 C84 1.380 . S
C85 C86 1.347 . S
C85 H113 0.931 . S
C86 C85 1.347 . S
C86 C87 1.369 . S
C87 C86 1.369 . S
C87 C88 1.408 . S
C87 H114 0.930 . S
C88 C83 1.348 . S
C88 C87 1.408 . S
C88 H115 0.930 . S
C89 O102 1.281 . S
C89 O103 1.254 . S
C90 O104 1.236 . S
C90 O105 1.266 . S
C91 Tb81 2.809 . S
C91 C92 1.514 1_565 S
C91 O106 1.248 . S
C91 O107 1.266 . S
C92 C91 1.514 1_545 S
C92 C93 1.359 . S
C92 C97 1.348 . S
C93 C92 1.359 . S
C93 C94 1.380 . S
C93 H116 0.929 . S
C94 C93 1.380 . S
C94 C95 1.347 . S
C94 H117 0.931 . S
C95 C94 1.347 . S
C95 C96 1.369 . S
C96 C95 1.369 . S
C96 C97 1.408 . S
C96 H118 0.930 . S
C97 C92 1.348 . S
C97 C96 1.408 . S
C97 H119 0.930 . S
C98 O108 1.281 . S
C98 O109 1.254 . S
C99 O110 1.236 . S
C99 O111 1.266 . S
O100 Tb80 2.484 . S
O100 C82 1.248 . S
O101 Tb80 2.440 . S
O101 C82 1.266 . S
O102 Tb80 2.658 . S
O102 Tb81 2.325 . S
O102 C89 1.281 . S
O103 Tb80 2.409 . S
O103 C89 1.254 . S
O104 Tb80 2.378 . S
O104 C90 1.236 . S
O105 Tb81 2.341 . S
O105 C90 1.266 . S
O106 Tb81 2.484 . S
O106 C91 1.248 . S
O107 Tb81 2.440 . S
O107 C91 1.266 . S
O108 Tb80 2.325 . S
O108 Tb81 2.658 . S
O108 C98 1.281 . S
O109 Tb81 2.409 . S
O109 C98 1.254 . S
O110 Tb81 2.378 . S
O110 C99 1.236 . S
O111 Tb80 2.341 . S
O111 C99 1.266 . S
H112 C84 0.929 . S
H113 C85 0.931 . S
H114 C87 0.930 . S
H115 C88 0.930 . S
H116 C93 0.929 . S
H117 C94 0.931 . S
H118 C96 0.930 . S
H119 C97 0.930 . S
Tb120 C122 2.809 . S
Tb120 O140 2.484 . S
Tb120 O141 2.440 . S
Tb120 O142 2.658 . S
Tb120 O143 2.409 . S
Tb120 O144 2.378 . S
Tb120 O148 2.325 . S
Tb120 O151 2.341 . S
Tb121 C131 2.809 . S
Tb121 O142 2.325 . S
Tb121 O145 2.341 . S
Tb121 O146 2.484 . S
Tb121 O147 2.440 . S
Tb121 O148 2.658 . S
Tb121 O149 2.409 . S
Tb121 O150 2.378 . S
C122 Tb120 2.809 . S
C122 C123 1.514 . S
C122 O140 1.248 . S
C122 O141 1.266 . S
C123 C122 1.514 . S
C123 C124 1.359 . S
C123 C128 1.348 . S
C124 C123 1.359 . S
C124 C125 1.380 . S
C124 H152 0.929 . S
C125 C124 1.380 . S
C125 C126 1.347 . S
C125 H153 0.931 . S
C126 C125 1.347 . S
C126 C127 1.369 . S
C127 C126 1.369 . S
C127 C128 1.408 . S
C127 H154 0.930 . S
C128 C123 1.348 . S
C128 C127 1.408 . S
C128 H155 0.930 . S
C129 O142 1.281 . S
C129 O143 1.254 . S
C130 O144 1.236 . S
C130 O145 1.266 . S
C131 Tb121 2.809 . S
C131 C132 1.514 . S
C131 O146 1.248 . S
C131 O147 1.266 . S
C132 C131 1.514 . S
C132 C133 1.359 . S
C132 C137 1.348 . S
C133 C132 1.359 . S
C133 C134 1.380 . S
C133 H156 0.929 . S
C134 C133 1.380 . S
C134 C135 1.347 . S
C134 H157 0.931 . S
C135 C134 1.347 . S
C135 C136 1.369 . S
C136 C135 1.369 . S
C136 C137 1.408 . S
C136 H158 0.930 . S
C137 C132 1.348 . S
C137 C136 1.408 . S
C137 H159 0.930 . S
C138 O148 1.281 . S
C138 O149 1.254 . S
C139 O150 1.236 . S
C139 O151 1.266 . S
O140 Tb120 2.484 . S
O140 C122 1.248 . S
O141 Tb120 2.440 . S
O141 C122 1.266 . S
O142 Tb120 2.658 . S
O142 Tb121 2.325 . S
O142 C129 1.281 . S
O143 Tb120 2.409 . S
O143 C129 1.254 . S
O144 Tb120 2.378 . S
O144 C130 1.236 . S
O145 Tb121 2.341 . S
O145 C130 1.266 . S
O146 Tb121 2.484 . S
O146 C131 1.248 . S
O147 Tb121 2.440 . S
O147 C131 1.266 . S
O148 Tb120 2.325 . S
O148 Tb121 2.658 . S
O148 C138 1.281 . S
O149 Tb121 2.409 . S
O149 C138 1.254 . S
O150 Tb121 2.378 . S
O150 C139 1.236 . S
O151 Tb120 2.341 . S
O151 C139 1.266 . S
H152 C124 0.929 . S
H153 C125 0.931 . S
H154 C127 0.930 . S
H155 C128 0.930 . S
H156 C133 0.929 . S
H157 C134 0.931 . S
H158 C136 0.930 . S
H159 C137 0.930 . S
Tb160 C162 2.809 . S
Tb160 O180 2.484 . S
Tb160 O181 2.440 . S
Tb160 O182 2.658 . S
Tb160 O183 2.409 . S
Tb160 O184 2.378 . S
Tb160 O188 2.325 . S
Tb160 O191 2.341 . S
Tb161 C171 2.809 . S
Tb161 O182 2.325 . S
Tb161 O185 2.341 . S
Tb161 O186 2.484 . S
Tb161 O187 2.440 . S
Tb161 O188 2.658 . S
Tb161 O189 2.409 . S
Tb161 O190 2.378 . S
C162 Tb160 2.809 . S
C162 C163 1.514 . S
C162 O180 1.248 . S
C162 O181 1.266 . S
C163 C162 1.514 . S
C163 C164 1.359 . S
C163 C168 1.348 . S
C164 C163 1.359 . S
C164 C165 1.380 . S
C164 H192 0.929 . S
C165 C164 1.380 . S
C165 C166 1.347 . S
C165 H193 0.931 . S
C166 C165 1.347 . S
C166 C167 1.369 . S
C167 C166 1.369 . S
C167 C168 1.408 . S
C167 H194 0.930 . S
C168 C163 1.348 . S
C168 C167 1.408 . S
C168 H195 0.930 . S
C169 O182 1.281 . S
C169 O183 1.254 . S
C170 O184 1.236 . S
C170 O185 1.266 . S
C171 Tb161 2.809 . S
C171 C172 1.514 1_455 S
C171 O186 1.248 . S
C171 O187 1.266 . S
C172 C171 1.514 1_655 S
C172 C173 1.359 . S
C172 C177 1.348 . S
C173 C172 1.359 . S
C173 C174 1.380 . S
C173 H196 0.929 . S
C174 C173 1.380 . S
C174 C175 1.347 . S
C174 H197 0.931 . S
C175 C174 1.347 . S
C175 C176 1.369 . S
C176 C175 1.369 . S
C176 C177 1.408 . S
C176 H198 0.930 . S
C177 C172 1.348 . S
C177 C176 1.408 . S
C177 H199 0.930 . S
C178 O188 1.281 . S
C178 O189 1.254 . S
C179 O190 1.236 . S
C179 O191 1.266 . S
O180 Tb160 2.484 . S
O180 C162 1.248 . S
O181 Tb160 2.440 . S
O181 C162 1.266 . S
O182 Tb160 2.658 . S
O182 Tb161 2.325 . S
O182 C169 1.281 . S
O183 Tb160 2.409 . S
O183 C169 1.254 . S
O184 Tb160 2.378 . S
O184 C170 1.236 . S
O185 Tb161 2.341 . S
O185 C170 1.266 . S
O186 Tb161 2.484 . S
O186 C171 1.248 . S
O187 Tb161 2.440 . S
O187 C171 1.266 . S
O188 Tb160 2.325 . S
O188 Tb161 2.658 . S
O188 C178 1.281 . S
O189 Tb161 2.409 . S
O189 C178 1.254 . S
O190 Tb161 2.378 . S
O190 C179 1.236 . S
O191 Tb160 2.341 . S
O191 C179 1.266 . S
H192 C164 0.929 . S
H193 C165 0.931 . S
H194 C167 0.930 . S
H195 C168 0.930 . S
H196 C173 0.929 . S
H197 C174 0.931 . S
H198 C176 0.930 . S
H199 C177 0.930 . S
Tb200 C202 2.809 . S
Tb200 O220 2.484 . S
Tb200 O221 2.440 . S
Tb200 O222 2.658 . S
Tb200 O223 2.409 . S
Tb200 O224 2.378 . S
Tb200 O228 2.325 . S
Tb200 O231 2.341 . S
Tb201 C211 2.809 . S
Tb201 O222 2.325 . S
Tb201 O225 2.341 . S
Tb201 O226 2.484 . S
Tb201 O227 2.440 . S
Tb201 O228 2.658 . S
Tb201 O229 2.409 . S
Tb201 O230 2.378 . S
C202 Tb200 2.809 . S
C202 C203 1.514 . S
C202 O220 1.248 . S
C202 O221 1.266 . S
C203 C202 1.514 . S
C203 C204 1.359 . S
C203 C208 1.348 . S
C204 C203 1.359 . S
C204 C205 1.380 . S
C204 H232 0.929 . S
C205 C204 1.380 . S
C205 C206 1.347 . S
C205 H233 0.931 . S
C206 C205 1.347 . S
C206 C207 1.369 . S
C207 C206 1.369 . S
C207 C208 1.408 . S
C207 H234 0.930 . S
C208 C203 1.348 . S
C208 C207 1.408 . S
C208 H235 0.930 . S
C209 O222 1.281 . S
C209 O223 1.254 . S
C210 O224 1.236 . S
C210 O225 1.266 . S
C211 Tb201 2.809 . S
C211 C212 1.514 1_545 S
C211 O226 1.248 . S
C211 O227 1.266 . S
C212 C211 1.514 1_565 S
C212 C213 1.359 . S
C212 C217 1.348 . S
C213 C212 1.359 . S
C213 C214 1.380 . S
C213 H236 0.929 . S
C214 C213 1.380 . S
C214 C215 1.347 . S
C214 H237 0.931 . S
C215 C214 1.347 . S
C215 C216 1.369 . S
C216 C215 1.369 . S
C216 C217 1.408 . S
C216 H238 0.930 . S
C217 C212 1.348 . S
C217 C216 1.408 . S
C217 H239 0.930 . S
C218 O228 1.281 . S
C218 O229 1.254 . S
C219 O230 1.236 . S
C219 O231 1.266 . S
O220 Tb200 2.484 . S
O220 C202 1.248 . S
O221 Tb200 2.440 . S
O221 C202 1.266 . S
O222 Tb200 2.658 . S
O222 Tb201 2.325 . S
O222 C209 1.281 . S
O223 Tb200 2.409 . S
O223 C209 1.254 . S
O224 Tb200 2.378 . S
O224 C210 1.236 . S
O225 Tb201 2.341 . S
O225 C210 1.266 . S
O226 Tb201 2.484 . S
O226 C211 1.248 . S
O227 Tb201 2.440 . S
O227 C211 1.266 . S
O228 Tb200 2.325 . S
O228 Tb201 2.658 . S
O228 C218 1.281 . S
O229 Tb201 2.409 . S
O229 C218 1.254 . S
O230 Tb201 2.378 . S
O230 C219 1.236 . S
O231 Tb200 2.341 . S
O231 C219 1.266 . S
H232 C204 0.929 . S
H233 C205 0.931 . S
H234 C207 0.930 . S
H235 C208 0.930 . S
H236 C213 0.929 . S
H237 C214 0.931 . S
H238 C216 0.930 . S
H239 C217 0.930 . S
Tb240 C242 2.809 . S
Tb240 O260 2.484 . S
Tb240 O261 2.440 . S
Tb240 O262 2.658 . S
Tb240 O263 2.409 . S
Tb240 O264 2.378 . S
Tb240 O268 2.325 . S
Tb240 O271 2.341 . S
Tb241 C251 2.809 . S
Tb241 O262 2.325 . S
Tb241 O265 2.341 . S
Tb241 O266 2.484 . S
Tb241 O267 2.440 . S
Tb241 O268 2.658 . S
Tb241 O269 2.409 . S
Tb241 O270 2.378 . S
C242 Tb240 2.809 . S
C242 C243 1.514 . S
C242 O260 1.248 . S
C242 O261 1.266 . S
C243 C242 1.514 . S
C243 C244 1.359 . S
C243 C248 1.348 . S
C244 C243 1.359 . S
C244 C245 1.380 . S
C244 H272 0.929 . S
C245 C244 1.380 . S
C245 C246 1.347 . S
C245 H273 0.931 . S
C246 C245 1.347 . S
C246 C247 1.369 . S
C247 C246 1.369 . S
C247 C248 1.408 . S
C247 H274 0.930 . S
C248 C243 1.348 . S
C248 C247 1.408 . S
C248 H275 0.930 . S
C249 O262 1.281 . S
C249 O263 1.254 . S
C250 O264 1.236 . S
C250 O265 1.266 . S
C251 Tb241 2.809 . S
C251 C252 1.514 . S
C251 O266 1.248 . S
C251 O267 1.266 . S
C252 C251 1.514 . S
C252 C253 1.359 . S
C252 C257 1.348 . S
C253 C252 1.359 . S
C253 C254 1.380 . S
C253 H276 0.929 . S
C254 C253 1.380 . S
C254 C255 1.347 . S
C254 H277 0.931 . S
C255 C254 1.347 . S
C255 C256 1.369 . S
C256 C255 1.369 . S
C256 C257 1.408 . S
C256 H278 0.930 . S
C257 C252 1.348 . S
C257 C256 1.408 . S
C257 H279 0.930 . S
C258 O268 1.281 . S
C258 O269 1.254 . S
C259 O270 1.236 . S
C259 O271 1.266 . S
O260 Tb240 2.484 . S
O260 C242 1.248 . S
O261 Tb240 2.440 . S
O261 C242 1.266 . S
O262 Tb240 2.658 . S
O262 Tb241 2.325 . S
O262 C249 1.281 . S
O263 Tb240 2.409 . S
O263 C249 1.254 . S
O264 Tb240 2.378 . S
O264 C250 1.236 . S
O265 Tb241 2.341 . S
O265 C250 1.266 . S
O266 Tb241 2.484 . S
O266 C251 1.248 . S
O267 Tb241 2.440 . S
O267 C251 1.266 . S
O268 Tb240 2.325 . S
O268 Tb241 2.658 . S
O268 C258 1.281 . S
O269 Tb241 2.409 . S
O269 C258 1.254 . S
O270 Tb241 2.378 . S
O270 C259 1.236 . S
O271 Tb240 2.341 . S
O271 C259 1.266 . S
H272 C244 0.929 . S
H273 C245 0.931 . S
H274 C247 0.930 . S
H275 C248 0.930 . S
H276 C253 0.929 . S
H277 C254 0.931 . S
H278 C256 0.930 . S
H279 C257 0.930 . S
Tb280 C282 2.809 . S
Tb280 O300 2.484 . S
Tb280 O301 2.440 . S
Tb280 O302 2.658 . S
Tb280 O303 2.409 . S
Tb280 O304 2.378 . S
Tb280 O308 2.325 . S
Tb280 O311 2.341 . S
Tb281 C291 2.809 . S
Tb281 O302 2.325 . S
Tb281 O305 2.341 . S
Tb281 O306 2.484 . S
Tb281 O307 2.440 . S
Tb281 O308 2.658 . S
Tb281 O309 2.409 . S
Tb281 O310 2.378 . S
C282 Tb280 2.809 . S
C282 C283 1.514 . S
C282 O300 1.248 . S
C282 O301 1.266 . S
C283 C282 1.514 . S
C283 C284 1.359 . S
C283 C288 1.348 . S
C284 C283 1.359 . S
C284 C285 1.380 . S
C284 H312 0.929 . S
C285 C284 1.380 . S
C285 C286 1.347 . S
C285 H313 0.931 . S
C286 C285 1.347 . S
C286 C287 1.369 . S
C287 C286 1.369 . S
C287 C288 1.408 . S
C287 H314 0.930 . S
C288 C283 1.348 . S
C288 C287 1.408 . S
C288 H315 0.930 . S
C289 O302 1.281 . S
C289 O303 1.254 . S
C290 O304 1.236 . S
C290 O305 1.266 . S
C291 Tb281 2.809 . S
C291 C292 1.514 1_655 S
C291 O306 1.248 . S
C291 O307 1.266 . S
C292 C291 1.514 1_455 S
C292 C293 1.359 . S
C292 C297 1.348 . S
C293 C292 1.359 . S
C293 C294 1.380 . S
C293 H316 0.929 . S
C294 C293 1.380 . S
C294 C295 1.347 . S
C294 H317 0.931 . S
C295 C294 1.347 . S
C295 C296 1.369 . S
C296 C295 1.369 . S
C296 C297 1.408 . S
C296 H318 0.930 . S
C297 C292 1.348 . S
C297 C296 1.408 . S
C297 H319 0.930 . S
C298 O308 1.281 . S
C298 O309 1.254 . S
C299 O310 1.236 . S
C299 O311 1.266 . S
O300 Tb280 2.484 . S
O300 C282 1.248 . S
O301 Tb280 2.440 . S
O301 C282 1.266 . S
O302 Tb280 2.658 . S
O302 Tb281 2.325 . S
O302 C289 1.281 . S
O303 Tb280 2.409 . S
O303 C289 1.254 . S
O304 Tb280 2.378 . S
O304 C290 1.236 . S
O305 Tb281 2.341 . S
O305 C290 1.266 . S
O306 Tb281 2.484 . S
O306 C291 1.248 . S
O307 Tb281 2.440 . S
O307 C291 1.266 . S
O308 Tb280 2.325 . S
O308 Tb281 2.658 . S
O308 C298 1.281 . S
O309 Tb281 2.409 . S
O309 C298 1.254 . S
O310 Tb281 2.378 . S
O310 C299 1.236 . S
O311 Tb280 2.341 . S
O311 C299 1.266 . S
H312 C284 0.929 . S
H313 C285 0.931 . S
H314 C287 0.930 . S
H315 C288 0.930 . S
H316 C293 0.929 . S
H317 C294 0.931 . S
H318 C296 0.930 . S
H319 C297 0.930 . S
Tb320 C322 2.809 . S
Tb320 O340 2.484 . S
Tb320 O341 2.440 . S
Tb320 O342 2.658 . S
Tb320 O343 2.409 . S
Tb320 O344 2.378 . S
Tb320 O348 2.325 . S
Tb320 O351 2.341 . S
Tb321 C331 2.809 . S
Tb321 O342 2.325 . S
Tb321 O345 2.341 . S
Tb321 O346 2.484 . S
Tb321 O347 2.440 . S
Tb321 O348 2.658 . S
Tb321 O349 2.409 . S
Tb321 O350 2.378 . S
C322 Tb320 2.809 . S
C322 C323 1.514 . S
C322 O340 1.248 . S
C322 O341 1.266 . S
C323 C322 1.514 . S
C323 C324 1.359 . S
C323 C328 1.348 . S
C324 C323 1.359 . S
C324 C325 1.380 . S
C324 H352 0.929 . S
C325 C324 1.380 . S
C325 C326 1.347 . S
C325 H353 0.931 . S
C326 C325 1.347 . S
C326 C327 1.369 . S
C327 C326 1.369 . S
C327 C328 1.408 . S
C327 H354 0.930 . S
C328 C323 1.348 . S
C328 C327 1.408 . S
C328 H355 0.930 . S
C329 O342 1.281 . S
C329 O343 1.254 . S
C330 O344 1.236 . S
C330 O345 1.266 . S
C331 Tb321 2.809 . S
C331 C332 1.514 1_565 S
C331 O346 1.248 . S
C331 O347 1.266 . S
C332 C331 1.514 1_545 S
C332 C333 1.359 . S
C332 C337 1.348 . S
C333 C332 1.359 . S
C333 C334 1.380 . S
C333 H356 0.929 . S
C334 C333 1.380 . S
C334 C335 1.347 . S
C334 H357 0.931 . S
C335 C334 1.347 . S
C335 C336 1.369 . S
C336 C335 1.369 . S
C336 C337 1.408 . S
C336 H358 0.930 . S
C337 C332 1.348 . S
C337 C336 1.408 . S
C337 H359 0.930 . S
C338 O348 1.281 . S
C338 O349 1.254 . S
C339 O350 1.236 . S
C339 O351 1.266 . S
O340 Tb320 2.484 . S
O340 C322 1.248 . S
O341 Tb320 2.440 . S
O341 C322 1.266 . S
O342 Tb320 2.658 . S
O342 Tb321 2.325 . S
O342 C329 1.281 . S
O343 Tb320 2.409 . S
O343 C329 1.254 . S
O344 Tb320 2.378 . S
O344 C330 1.236 . S
O345 Tb321 2.341 . S
O345 C330 1.266 . S
O346 Tb321 2.484 . S
O346 C331 1.248 . S
O347 Tb321 2.440 . S
O347 C331 1.266 . S
O348 Tb320 2.325 . S
O348 Tb321 2.658 . S
O348 C338 1.281 . S
O349 Tb321 2.409 . S
O349 C338 1.254 . S
O350 Tb321 2.378 . S
O350 C339 1.236 . S
O351 Tb320 2.341 . S
O351 C339 1.266 . S
H352 C324 0.929 . S
H353 C325 0.931 . S
H354 C327 0.930 . S
H355 C328 0.930 . S
H356 C333 0.929 . S
H357 C334 0.931 . S
H358 C336 0.930 . S
H359 C337 0.930 . S
Tb360 C362 2.809 . S
Tb360 O380 2.484 . S
Tb360 O381 2.440 . S
Tb360 O382 2.658 . S
Tb360 O383 2.409 . S
Tb360 O384 2.378 . S
Tb360 O388 2.325 . S
Tb360 O391 2.341 . S
Tb361 C371 2.809 . S
Tb361 O382 2.325 . S
Tb361 O385 2.341 . S
Tb361 O386 2.484 . S
Tb361 O387 2.440 . S
Tb361 O388 2.658 . S
Tb361 O389 2.409 . S
Tb361 O390 2.378 . S
C362 Tb360 2.809 . S
C362 C363 1.514 . S
C362 O380 1.248 . S
C362 O381 1.266 . S
C363 C362 1.514 . S
C363 C364 1.359 . S
C363 C368 1.348 . S
C364 C363 1.359 . S
C364 C365 1.380 . S
C364 H392 0.929 . S
C365 C364 1.380 . S
C365 C366 1.347 . S
C365 H393 0.931 . S
C366 C365 1.347 . S
C366 C367 1.369 . S
C367 C366 1.369 . S
C367 C368 1.408 . S
C367 H394 0.930 . S
C368 C363 1.348 . S
C368 C367 1.408 . S
C368 H395 0.930 . S
C369 O382 1.281 . S
C369 O383 1.254 . S
C370 O384 1.236 . S
C370 O385 1.266 . S
C371 Tb361 2.809 . S
C371 C372 1.514 . S
C371 O386 1.248 . S
C371 O387 1.266 . S
C372 C371 1.514 . S
C372 C373 1.359 . S
C372 C377 1.348 . S
C373 C372 1.359 . S
C373 C374 1.380 . S
C373 H396 0.929 . S
C374 C373 1.380 . S
C374 C375 1.347 . S
C374 H397 0.931 . S
C375 C374 1.347 . S
C375 C376 1.369 . S
C376 C375 1.369 . S
C376 C377 1.408 . S
C376 H398 0.930 . S
C377 C372 1.348 . S
C377 C376 1.408 . S
C377 H399 0.930 . S
C378 O388 1.281 . S
C378 O389 1.254 . S
C379 O390 1.236 . S
C379 O391 1.266 . S
O380 Tb360 2.484 . S
O380 C362 1.248 . S
O381 Tb360 2.440 . S
O381 C362 1.266 . S
O382 Tb360 2.658 . S
O382 Tb361 2.325 . S
O382 C369 1.281 . S
O383 Tb360 2.409 . S
O383 C369 1.254 . S
O384 Tb360 2.378 . S
O384 C370 1.236 . S
O385 Tb361 2.341 . S
O385 C370 1.266 . S
O386 Tb361 2.484 . S
O386 C371 1.248 . S
O387 Tb361 2.440 . S
O387 C371 1.266 . S
O388 Tb360 2.325 . S
O388 Tb361 2.658 . S
O388 C378 1.281 . S
O389 Tb361 2.409 . S
O389 C378 1.254 . S
O390 Tb361 2.378 . S
O390 C379 1.236 . S
O391 Tb360 2.341 . S
O391 C379 1.266 . S
H392 C364 0.929 . S
H393 C365 0.931 . S
H394 C367 0.930 . S
H395 C368 0.930 . S
H396 C373 0.929 . S
H397 C374 0.931 . S
H398 C376 0.930 . S
H399 C377 0.930 . S
Tb400 C402 2.809 . S
Tb400 O420 2.484 . S
Tb400 O421 2.440 . S
Tb400 O422 2.658 . S
Tb400 O423 2.409 . S
Tb400 O424 2.378 . S
Tb400 O428 2.325 . S
Tb400 O431 2.341 . S
Tb401 C411 2.809 . S
Tb401 O422 2.325 . S
Tb401 O425 2.341 . S
Tb401 O426 2.484 . S
Tb401 O427 2.440 . S
Tb401 O428 2.658 . S
Tb401 O429 2.409 . S
Tb401 O430 2.378 . S
C402 Tb400 2.809 . S
C402 C403 1.514 . S
C402 O420 1.248 . S
C402 O421 1.266 . S
C403 C402 1.514 . S
C403 C404 1.359 . S
C403 C408 1.348 . S
C404 C403 1.359 . S
C404 C405 1.380 . S
C404 H432 0.929 . S
C405 C404 1.380 . S
C405 C406 1.347 . S
C405 H433 0.931 . S
C406 C405 1.347 . S
C406 C407 1.369 . S
C407 C406 1.369 . S
C407 C408 1.408 . S
C407 H434 0.930 . S
C408 C403 1.348 . S
C408 C407 1.408 . S
C408 H435 0.930 . S
C409 O422 1.281 . S
C409 O423 1.254 . S
C410 O424 1.236 . S
C410 O425 1.266 . S
C411 Tb401 2.809 . S
C411 C412 1.514 1_455 S
C411 O426 1.248 . S
C411 O427 1.266 . S
C412 C411 1.514 1_655 S
C412 C413 1.359 . S
C412 C417 1.348 . S
C413 C412 1.359 . S
C413 C414 1.380 . S
C413 H436 0.929 . S
C414 C413 1.380 . S
C414 C415 1.347 . S
C414 H437 0.931 . S
C415 C414 1.347 . S
C415 C416 1.369 . S
C416 C415 1.369 . S
C416 C417 1.408 . S
C416 H438 0.930 . S
C417 C412 1.348 . S
C417 C416 1.408 . S
C417 H439 0.930 . S
C418 O428 1.281 . S
C418 O429 1.254 . S
C419 O430 1.236 . S
C419 O431 1.266 . S
O420 Tb400 2.484 . S
O420 C402 1.248 . S
O421 Tb400 2.440 . S
O421 C402 1.266 . S
O422 Tb400 2.658 . S
O422 Tb401 2.325 . S
O422 C409 1.281 . S
O423 Tb400 2.409 . S
O423 C409 1.254 . S
O424 Tb400 2.378 . S
O424 C410 1.236 . S
O425 Tb401 2.341 . S
O425 C410 1.266 . S
O426 Tb401 2.484 . S
O426 C411 1.248 . S
O427 Tb401 2.440 . S
O427 C411 1.266 . S
O428 Tb400 2.325 . S
O428 Tb401 2.658 . S
O428 C418 1.281 . S
O429 Tb401 2.409 . S
O429 C418 1.254 . S
O430 Tb401 2.378 . S
O430 C419 1.236 . S
O431 Tb400 2.341 . S
O431 C419 1.266 . S
H432 C404 0.929 . S
H433 C405 0.931 . S
H434 C407 0.930 . S
H435 C408 0.930 . S
H436 C413 0.929 . S
H437 C414 0.931 . S
H438 C416 0.930 . S
H439 C417 0.930 . S
Tb440 C442 2.809 . S
Tb440 O460 2.484 . S
Tb440 O461 2.440 . S
Tb440 O462 2.658 . S
Tb440 O463 2.409 . S
Tb440 O464 2.378 . S
Tb440 O468 2.325 . S
Tb440 O471 2.341 . S
Tb441 C451 2.809 . S
Tb441 O462 2.325 . S
Tb441 O465 2.341 . S
Tb441 O466 2.484 . S
Tb441 O467 2.440 . S
Tb441 O468 2.658 . S
Tb441 O469 2.409 . S
Tb441 O470 2.378 . S
C442 Tb440 2.809 . S
C442 C443 1.514 . S
C442 O460 1.248 . S
C442 O461 1.266 . S
C443 C442 1.514 . S
C443 C444 1.359 . S
C443 C448 1.348 . S
C444 C443 1.359 . S
C444 C445 1.380 . S
C444 H472 0.929 . S
C445 C444 1.380 . S
C445 C446 1.347 . S
C445 H473 0.931 . S
C446 C445 1.347 . S
C446 C447 1.369 . S
C447 C446 1.369 . S
C447 C448 1.408 . S
C447 H474 0.930 . S
C448 C443 1.348 . S
C448 C447 1.408 . S
C448 H475 0.930 . S
C449 O462 1.281 . S
C449 O463 1.254 . S
C450 O464 1.236 . S
C450 O465 1.266 . S
C451 Tb441 2.809 . S
C451 C452 1.514 1_545 S
C451 O466 1.248 . S
C451 O467 1.266 . S
C452 C451 1.514 1_565 S
C452 C453 1.359 . S
C452 C457 1.348 . S
C453 C452 1.359 . S
C453 C454 1.380 . S
C453 H476 0.929 . S
C454 C453 1.380 . S
C454 C455 1.347 . S
C454 H477 0.931 . S
C455 C454 1.347 . S
C455 C456 1.369 . S
C456 C455 1.369 . S
C456 C457 1.408 . S
C456 H478 0.930 . S
C457 C452 1.348 . S
C457 C456 1.408 . S
C457 H479 0.930 . S
C458 O468 1.281 . S
C458 O469 1.254 . S
C459 O470 1.236 . S
C459 O471 1.266 . S
O460 Tb440 2.484 . S
O460 C442 1.248 . S
O461 Tb440 2.440 . S
O461 C442 1.266 . S
O462 Tb440 2.658 . S
O462 Tb441 2.325 . S
O462 C449 1.281 . S
O463 Tb440 2.409 . S
O463 C449 1.254 . S
O464 Tb440 2.378 . S
O464 C450 1.236 . S
O465 Tb441 2.341 . S
O465 C450 1.266 . S
O466 Tb441 2.484 . S
O466 C451 1.248 . S
O467 Tb441 2.440 . S
O467 C451 1.266 . S
O468 Tb440 2.325 . S
O468 Tb441 2.658 . S
O468 C458 1.281 . S
O469 Tb441 2.409 . S
O469 C458 1.254 . S
O470 Tb441 2.378 . S
O470 C459 1.236 . S
O471 Tb440 2.341 . S
O471 C459 1.266 . S
H472 C444 0.929 . S
H473 C445 0.931 . S
H474 C447 0.930 . S
H475 C448 0.930 . S
H476 C453 0.929 . S
H477 C454 0.931 . S
H478 C456 0.930 . S
H479 C457 0.930 . S
H480 C486 0.930 . S
H481 C489 0.930 . S
H482 C490 0.930 . S
H483 C491 0.930 . S
H484 C494 0.930 . S
H485 C495 0.930 . S
C486 H480 0.930 . S
C486 C487 1.355 . S
C486 C488 1.415 . S
C487 C486 1.355 . S
C487 C489 1.419 . S
C488 C486 1.415 . S
C488 C493 1.425 . S
C488 C495 1.409 1_565 S
C489 H481 0.930 . S
C489 C487 1.419 . S
C489 C490 1.362 . S
C490 H482 0.930 . S
C490 C489 1.362 . S
C490 C493 1.409 . S
C491 H483 0.930 . S
C491 C492 1.355 . S
C491 C493 1.415 1_545 S
C492 C491 1.355 . S
C492 C494 1.419 . S
C493 C488 1.425 . S
C493 C490 1.409 . S
C493 C491 1.415 1_565 S
C494 H484 0.930 . S
C494 C492 1.419 . S
C494 C495 1.362 . S
C495 H485 0.930 . S
C495 C488 1.409 1_545 S
C495 C494 1.362 . S
H496 C502 0.930 . S
H497 C505 0.930 . S
H498 C506 0.930 . S
H499 C507 0.930 . S
H500 C510 0.930 . S
H501 C511 0.930 . S
C502 H496 0.930 . S
C502 C503 1.355 . S
C502 C504 1.415 . S
C503 C502 1.355 . S
C503 C505 1.419 . S
C504 C502 1.415 . S
C504 C509 1.425 . S
C504 C511 1.409 . S
C505 H497 0.930 . S
C505 C503 1.419 . S
C505 C506 1.362 . S
C506 H498 0.930 . S
C506 C505 1.362 . S
C506 C509 1.409 . S
C507 H499 0.930 . S
C507 C508 1.355 . S
C507 C509 1.415 . S
C508 C507 1.355 . S
C508 C510 1.419 . S
C509 C504 1.425 . S
C509 C506 1.409 . S
C509 C507 1.415 . S
C510 H500 0.930 . S
C510 C508 1.419 . S
C510 C511 1.362 . S
C511 H501 0.930 . S
C511 C504 1.409 . S
C511 C510 1.362 . S
H512 C518 0.930 . S
H513 C521 0.930 . S
H514 C522 0.930 . S
H515 C523 0.930 . S
H516 C526 0.930 . S
H517 C527 0.930 . S
C518 H512 0.930 . S
C518 C519 1.355 . S
C518 C520 1.415 1_655 S
C519 C518 1.355 . S
C519 C521 1.419 . S
C520 C518 1.415 1_455 S
C520 C525 1.425 . S
C520 C527 1.409 . S
C521 H513 0.930 . S
C521 C519 1.419 . S
C521 C522 1.362 1_655 S
C522 H514 0.930 . S
C522 C521 1.362 1_455 S
C522 C525 1.409 . S
C523 H515 0.930 . S
C523 C524 1.355 . S
C523 C525 1.415 . S
C524 C523 1.355 . S
C524 C526 1.419 . S
C525 C520 1.425 . S
C525 C522 1.409 . S
C525 C523 1.415 . S
C526 H516 0.930 . S
C526 C524 1.419 . S
C526 C527 1.362 . S
C527 H517 0.930 . S
C527 C520 1.409 . S
C527 C526 1.362 . S
H528 C534 0.930 . S
H529 C537 0.930 . S
H530 C538 0.930 . S
H531 C539 0.930 . S
H532 C542 0.930 . S
H533 C543 0.930 . S
C534 H528 0.930 . S
C534 C535 1.355 . S
C534 C536 1.415 1_565 S
C535 C534 1.355 . S
C535 C537 1.419 . S
C536 C534 1.415 1_545 S
C536 C541 1.425 . S
C536 C543 1.409 . S
C537 H529 0.930 . S
C537 C535 1.419 . S
C537 C538 1.362 . S
C538 H530 0.930 . S
C538 C537 1.362 . S
C538 C541 1.409 1_565 S
C539 H531 0.930 . S
C539 C540 1.355 . S
C539 C541 1.415 . S
C540 C539 1.355 . S
C540 C542 1.419 . S
C541 C536 1.425 . S
C541 C538 1.409 1_545 S
C541 C539 1.415 . S
C542 H532 0.930 . S
C542 C540 1.419 . S
C542 C543 1.362 . S
C543 H533 0.930 . S
C543 C536 1.409 . S
C543 C542 1.362 . S
H544 C550 0.930 . S
H545 C553 0.930 . S
H546 C554 0.930 . S
H547 C555 0.930 . S
H548 C558 0.930 . S
H549 C559 0.930 . S
C550 H544 0.930 . S
C550 C551 1.355 . S
C550 C552 1.415 . S
C551 C550 1.355 . S
C551 C553 1.419 . S
C552 C550 1.415 . S
C552 C557 1.425 . S
C552 C559 1.409 . S
C553 H545 0.930 . S
C553 C551 1.419 . S
C553 C554 1.362 . S
C554 H546 0.930 . S
C554 C553 1.362 . S
C554 C557 1.409 . S
C555 H547 0.930 . S
C555 C556 1.355 . S
C555 C557 1.415 . S
C556 C555 1.355 . S
C556 C558 1.419 . S
C557 C552 1.425 . S
C557 C554 1.409 . S
C557 C555 1.415 . S
C558 H548 0.930 . S
C558 C556 1.419 . S
C558 C559 1.362 . S
C559 H549 0.930 . S
C559 C552 1.409 . S
C559 C558 1.362 . S
H560 C566 0.930 . S
H561 C569 0.930 . S
H562 C570 0.930 . S
H563 C571 0.930 . S
H564 C574 0.930 . S
H565 C575 0.930 . S
C566 H560 0.930 . S
C566 C567 1.355 . S
C566 C568 1.415 . S
C567 C566 1.355 . S
C567 C569 1.419 . S
C568 C566 1.415 . S
C568 C573 1.425 . S
C568 C575 1.409 1_655 S
C569 H561 0.930 . S
C569 C567 1.419 . S
C569 C570 1.362 . S
C570 H562 0.930 . S
C570 C569 1.362 . S
C570 C573 1.409 . S
C571 H563 0.930 . S
C571 C572 1.355 . S
C571 C573 1.415 1_455 S
C572 C571 1.355 . S
C572 C574 1.419 . S
C573 C568 1.425 . S
C573 C570 1.409 . S
C573 C571 1.415 1_655 S
C574 H564 0.930 . S
C574 C572 1.419 . S
C574 C575 1.362 . S
C575 H565 0.930 . S
C575 C568 1.409 1_455 S
C575 C574 1.362 . S
H576 C582 0.930 . S
H577 C585 0.930 . S
H578 C586 0.930 . S
H579 C587 0.930 . S
H580 C590 0.930 . S
H581 C591 0.930 . S
C582 H576 0.930 . S
C582 C583 1.355 . S
C582 C584 1.415 . S
C583 C582 1.355 . S
C583 C585 1.419 . S
C584 C582 1.415 . S
C584 C589 1.425 . S
C584 C591 1.409 1_455 S
C585 H577 0.930 . S
C585 C583 1.419 . S
C585 C586 1.362 . S
C586 H578 0.930 . S
C586 C585 1.362 . S
C586 C589 1.409 . S
C587 H579 0.930 . S
C587 C588 1.355 . S
C587 C589 1.415 1_655 S
C588 C587 1.355 . S
C588 C590 1.419 . S
C589 C584 1.425 . S
C589 C586 1.409 . S
C589 C587 1.415 1_455 S
C590 H580 0.930 . S
C590 C588 1.419 . S
C590 C591 1.362 . S
C591 H581 0.930 . S
C591 C584 1.409 1_655 S
C591 C590 1.362 . S
H592 C598 0.930 . S
H593 C601 0.930 . S
H594 C602 0.930 . S
H595 C603 0.930 . S
H596 C606 0.930 . S
H597 C607 0.930 . S
C598 H592 0.930 . S
C598 C599 1.355 . S
C598 C600 1.415 1_565 S
C599 C598 1.355 . S
C599 C601 1.419 . S
C600 C598 1.415 1_545 S
C600 C605 1.425 . S
C600 C607 1.409 . S
C601 H593 0.930 . S
C601 C599 1.419 . S
C601 C602 1.362 1_565 S
C602 H594 0.930 . S
C602 C601 1.362 1_545 S
C602 C605 1.409 . S
C603 H595 0.930 . S
C603 C604 1.355 . S
C603 C605 1.415 . S
C604 C603 1.355 . S
C604 C606 1.419 . S
C605 C600 1.425 . S
C605 C602 1.409 . S
C605 C603 1.415 . S
C606 H596 0.930 . S
C606 C604 1.419 . S
C606 C607 1.362 . S
C607 H597 0.930 . S
C607 C600 1.409 . S
C607 C606 1.362 . S
H608 C614 0.930 . S
H609 C617 0.930 . S
H610 C618 0.930 . S
H611 C619 0.930 . S
H612 C622 0.930 . S
H613 C623 0.930 . S
C614 H608 0.930 . S
C614 C615 1.355 . S
C614 C616 1.415 . S
C615 C614 1.355 . S
C615 C617 1.419 . S
C616 C614 1.415 . S
C616 C621 1.425 . S
C616 C623 1.409 . S
C617 H609 0.930 . S
C617 C615 1.419 . S
C617 C618 1.362 . S
C618 H610 0.930 . S
C618 C617 1.362 . S
C618 C621 1.409 . S
C619 H611 0.930 . S
C619 C620 1.355 . S
C619 C621 1.415 . S
C620 C619 1.355 . S
C620 C622 1.419 . S
C621 C616 1.425 . S
C621 C618 1.409 . S
C621 C619 1.415 . S
C622 H612 0.930 . S
C622 C620 1.419 . S
C622 C623 1.362 . S
C623 H613 0.930 . S
C623 C616 1.409 . S
C623 C622 1.362 . S
H624 C630 0.930 . S
H625 C633 0.930 . S
H626 C634 0.930 . S
H627 C635 0.930 . S
H628 C638 0.930 . S
H629 C639 0.930 . S
C630 H624 0.930 . S
C630 C631 1.355 . S
C630 C632 1.415 1_455 S
C631 C630 1.355 . S
C631 C633 1.419 . S
C632 C630 1.415 1_655 S
C632 C637 1.425 . S
C632 C639 1.409 . S
C633 H625 0.930 . S
C633 C631 1.419 . S
C633 C634 1.362 . S
C634 H626 0.930 . S
C634 C633 1.362 . S
C634 C637 1.409 1_455 S
C635 H627 0.930 . S
C635 C636 1.355 . S
C635 C637 1.415 . S
C636 C635 1.355 . S
C636 C638 1.419 . S
C637 C632 1.425 . S
C637 C634 1.409 1_655 S
C637 C635 1.415 . S
C638 H628 0.930 . S
C638 C636 1.419 . S
C638 C639 1.362 . S
C639 H629 0.930 . S
C639 C632 1.409 . S
C639 C638 1.362 . S
H640 C646 0.930 . S
H641 C649 0.930 . S
H642 C650 0.945 . S
H643 C651 0.930 . S
H644 C654 0.930 . S
H645 C655 0.930 . S
C646 H640 0.930 . S
C646 C647 1.355 . S
C646 C648 1.415 1_545 S
C647 C646 1.355 . S
C647 C649 1.419 . S
C648 C646 1.415 1_565 S
C648 C653 1.425 . S
C648 C655 1.409 . S
C649 H641 0.930 . S
C649 C647 1.419 . S
C649 C650 1.346 1_545 S
C650 H642 0.945 . S
C650 C649 1.346 1_565 S
C650 C653 1.411 . S
C651 H643 0.930 . S
C651 C652 1.355 . S
C651 C653 1.415 . S
C652 C651 1.355 . S
C652 C654 1.419 . S
C653 C648 1.425 . S
C653 C650 1.411 . S
C653 C651 1.415 . S
C654 H644 0.930 . S
C654 C652 1.419 . S
C654 C655 1.362 . S
C655 H645 0.930 . S
C655 C648 1.409 . S
C655 C654 1.362 . S
H656 C662 0.930 . S
H657 C665 0.930 . S
H658 C666 0.930 . S
H659 C667 0.930 . S
H660 C670 0.930 . S
H661 C671 0.930 . S
C662 H656 0.930 . S
C662 C663 1.355 . S
C662 C664 1.415 . S
C663 C662 1.355 . S
C663 C665 1.419 . S
C664 C662 1.415 . S
C664 C669 1.425 . S
C664 C671 1.409 . S
C665 H657 0.930 . S
C665 C663 1.419 . S
C665 C666 1.362 . S
C666 H658 0.930 . S
C666 C665 1.362 . S
C666 C669 1.409 . S
C667 H659 0.930 . S
C667 C668 1.355 . S
C667 C669 1.415 . S
C668 C667 1.355 . S
C668 C670 1.419 . S
C669 C664 1.425 . S
C669 C666 1.409 . S
C669 C667 1.415 . S
C670 H660 0.930 . S
C670 C668 1.419 . S
C670 C671 1.362 . S
C671 H661 0.930 . S
C671 C664 1.409 . S
C671 C670 1.362 . S
H672 C678 0.930 . S
H673 C681 0.930 . S
H674 C682 0.930 . S
H675 C683 0.930 . S
H676 C686 0.930 . S
H677 C687 0.930 . S
C678 H672 0.930 . S
C678 C679 1.355 . S
C678 C680 1.415 . S
C679 C678 1.355 . S
C679 C681 1.419 . S
C680 C678 1.415 . S
C680 C685 1.425 . S
C680 C687 1.409 . S
C681 H673 0.930 . S
C681 C679 1.419 . S
C681 C682 1.362 . S
C682 H674 0.930 . S
C682 C681 1.362 . S
C682 C685 1.409 . S
C683 H675 0.930 . S
C683 C684 1.355 . S
C683 C685 1.415 . S
C684 C683 1.355 . S
C684 C686 1.419 . S
C685 C680 1.425 . S
C685 C682 1.409 . S
C685 C683 1.415 . S
C686 H676 0.930 . S
C686 C684 1.419 . S
C686 C687 1.362 . S
C687 H677 0.930 . S
C687 C680 1.409 . S
C687 C686 1.362 . S
H688 C694 0.930 . S
H689 C697 0.930 . S
H690 C698 0.930 . S
H691 C699 0.930 . S
H692 C702 0.930 . S
H693 C703 0.930 . S
C694 H688 0.930 . S
C694 C695 1.355 . S
C694 C696 1.415 . S
C695 C694 1.355 . S
C695 C697 1.419 . S
C696 C694 1.415 . S
C696 C701 1.425 . S
C696 C703 1.409 . S
C697 H689 0.930 . S
C697 C695 1.419 . S
C697 C698 1.362 . S
C698 H690 0.930 . S
C698 C697 1.362 . S
C698 C701 1.409 . S
C699 H691 0.930 . S
C699 C700 1.355 . S
C699 C701 1.415 . S
C700 C699 1.355 . S
C700 C702 1.419 . S
C701 C696 1.425 . S
C701 C698 1.409 . S
C701 C699 1.415 . S
C702 H692 0.930 . S
C702 C700 1.419 . S
C702 C703 1.362 . S
C703 H693 0.930 . S
C703 C696 1.409 . S
C703 C702 1.362 . S
H704 C710 0.930 . S
H705 C713 0.930 . S
H706 C714 0.930 . S
H707 C715 0.930 . S
H708 C718 0.930 . S
H709 C719 0.930 . S
C710 H704 0.930 . S
C710 C711 1.355 . S
C710 C712 1.415 . S
C711 C710 1.355 . S
C711 C713 1.419 . S
C712 C710 1.415 . S
C712 C717 1.425 . S
C712 C719 1.409 . S
C713 H705 0.930 . S
C713 C711 1.419 . S
C713 C714 1.362 . S
C714 H706 0.930 . S
C714 C713 1.362 . S
C714 C717 1.409 . S
C715 H707 0.930 . S
C715 C716 1.355 . S
C715 C717 1.415 . S
C716 C715 1.355 . S
C716 C718 1.419 . S
C717 C712 1.425 . S
C717 C714 1.409 . S
C717 C715 1.415 . S
C718 H708 0.930 . S
C718 C716 1.419 . S
C718 C719 1.362 . S
C719 H709 0.930 . S
C719 C712 1.409 . S
C719 C718 1.362 . S
H720 C726 0.930 . S
H721 C729 0.930 . S
H722 C730 0.930 . S
H723 C731 0.930 . S
H724 C734 0.930 . S
H725 C735 0.930 . S
C726 H720 0.930 . S
C726 C727 1.355 . S
C726 C728 1.415 . S
C727 C726 1.355 . S
C727 C729 1.419 . S
C728 C726 1.415 . S
C728 C733 1.425 . S
C728 C735 1.409 . S
C729 H721 0.930 . S
C729 C727 1.419 . S
C729 C730 1.362 . S
C730 H722 0.930 . S
C730 C729 1.362 . S
C730 C733 1.409 . S
C731 H723 0.930 . S
C731 C732 1.355 . S
C731 C733 1.415 . S
C732 C731 1.355 . S
C732 C734 1.419 . S
C733 C728 1.425 . S
C733 C730 1.409 . S
C733 C731 1.415 . S
C734 H724 0.930 . S
C734 C732 1.419 . S
C734 C735 1.362 . S
C735 H725 0.930 . S
C735 C728 1.409 . S
C735 C734 1.362 . S
H736 C742 0.930 . S
H737 C745 0.930 . S
H738 C746 0.930 . S
H739 C747 0.930 . S
H740 C750 0.930 . S
H741 C751 0.930 . S
C742 H736 0.930 . S
C742 C743 1.355 . S
C742 C744 1.415 . S
C743 C742 1.355 . S
C743 C745 1.419 . S
C744 C742 1.415 . S
C744 C749 1.425 . S
C744 C751 1.409 . S
C745 H737 0.930 . S
C745 C743 1.419 . S
C745 C746 1.362 . S
C746 H738 0.930 . S
C746 C745 1.362 . S
C746 C749 1.409 . S
C747 H739 0.930 . S
C747 C748 1.355 . S
C747 C749 1.415 . S
C748 C747 1.355 . S
C748 C750 1.419 . S
C749 C744 1.425 . S
C749 C746 1.409 . S
C749 C747 1.415 . S
C750 H740 0.930 . S
C750 C748 1.419 . S
C750 C751 1.362 . S
C751 H741 0.930 . S
C751 C744 1.409 . S
C751 C750 1.362 . S
H752 C758 0.930 . S
H753 C761 0.930 . S
H754 C762 0.930 . S
H755 C763 0.930 . S
H756 C766 0.930 . S
H757 C767 0.930 . S
C758 H752 0.930 . S
C758 C759 1.355 . S
C758 C760 1.415 . S
C759 C758 1.355 . S
C759 C761 1.419 . S
C760 C758 1.415 . S
C760 C765 1.425 . S
C760 C767 1.409 . S
C761 H753 0.930 . S
C761 C759 1.419 . S
C761 C762 1.362 . S
C762 H754 0.930 . S
C762 C761 1.362 . S
C762 C765 1.409 . S
C763 H755 0.930 . S
C763 C764 1.355 . S
C763 C765 1.415 . S
C764 C763 1.355 . S
C764 C766 1.419 . S
C765 C760 1.425 . S
C765 C762 1.409 . S
C765 C763 1.415 . S
C766 H756 0.930 . S
C766 C764 1.419 . S
C766 C767 1.362 . S
C767 H757 0.930 . S
C767 C760 1.409 . S
C767 C766 1.362 . S
H768 C774 0.930 . S
H769 C777 0.930 . S
H770 C778 0.930 . S
H771 C779 0.930 . S
H772 C782 0.930 . S
H773 C783 0.930 . S
C774 H768 0.930 . S
C774 C775 1.355 . S
C774 C776 1.415 . S
C775 C774 1.355 . S
C775 C777 1.419 . S
C776 C774 1.415 . S
C776 C781 1.425 . S
C776 C783 1.409 . S
C777 H769 0.930 . S
C777 C775 1.419 . S
C777 C778 1.362 . S
C778 H770 0.930 . S
C778 C777 1.362 . S
C778 C781 1.409 . S
C779 H771 0.930 . S
C779 C780 1.355 . S
C779 C781 1.415 . S
C780 C779 1.355 . S
C780 C782 1.419 . S
C781 C776 1.425 . S
C781 C778 1.409 . S
C781 C779 1.415 . S
C782 H772 0.930 . S
C782 C780 1.419 . S
C782 C783 1.362 . S
C783 H773 0.930 . S
C783 C776 1.409 . S
C783 C782 1.362 . S
H784 C790 0.930 . S
H785 C793 0.930 . S
H786 C794 0.930 . S
H787 C795 0.930 . S
H788 C798 0.930 . S
H789 C799 0.930 . S
C790 H784 0.930 . S
C790 C791 1.355 . S
C790 C792 1.415 . S
C791 C790 1.355 . S
C791 C793 1.419 . S
C792 C790 1.415 . S
C792 C797 1.425 . S
C792 C799 1.409 . S
C793 H785 0.930 . S
C793 C791 1.419 . S
C793 C794 1.362 . S
C794 H786 0.930 . S
C794 C793 1.362 . S
C794 C797 1.409 . S
C795 H787 0.930 . S
C795 C796 1.355 . S
C795 C797 1.415 . S
C796 C795 1.355 . S
C796 C798 1.419 . S
C797 C792 1.425 . S
C797 C794 1.409 . S
C797 C795 1.415 . S
C798 H788 0.930 . S
C798 C796 1.419 . S
C798 C799 1.362 . S
C799 H789 0.930 . S
C799 C792 1.409 . S
C799 C798 1.362 . S
H800 C806 0.930 . S
H801 C809 0.930 . S
H802 C810 0.930 . S
H803 C811 0.930 . S
H804 C814 0.930 . S
H805 C815 0.930 . S
C806 H800 0.930 . S
C806 C807 1.355 . S
C806 C808 1.415 . S
C807 C806 1.355 . S
C807 C809 1.419 . S
C808 C806 1.415 . S
C808 C813 1.425 . S
C808 C815 1.409 . S
C809 H801 0.930 . S
C809 C807 1.419 . S
C809 C810 1.362 . S
C810 H802 0.930 . S
C810 C809 1.362 . S
C810 C813 1.409 . S
C811 H803 0.930 . S
C811 C812 1.355 . S
C811 C813 1.415 . S
C812 C811 1.355 . S
C812 C814 1.419 . S
C813 C808 1.425 . S
C813 C810 1.409 . S
C813 C811 1.415 . S
C814 H804 0.930 . S
C814 C812 1.419 . S
C814 C815 1.362 . S
C815 H805 0.930 . S
C815 C808 1.409 . S
C815 C814 1.362 . S
H816 C822 0.930 . S
H817 C825 0.930 . S
H818 C826 0.930 . S
H819 C827 0.930 . S
H820 C830 0.930 . S
H821 C831 0.930 . S
C822 H816 0.930 . S
C822 C823 1.355 . S
C822 C824 1.415 . S
C823 C822 1.355 . S
C823 C825 1.419 . S
C824 C822 1.415 . S
C824 C829 1.425 . S
C824 C831 1.409 . S
C825 H817 0.930 . S
C825 C823 1.419 . S
C825 C826 1.362 . S
C826 H818 0.930 . S
C826 C825 1.362 . S
C826 C829 1.409 . S
C827 H819 0.930 . S
C827 C828 1.355 . S
C827 C829 1.415 . S
C828 C827 1.355 . S
C828 C830 1.419 . S
C829 C824 1.425 . S
C829 C826 1.409 . S
C829 C827 1.415 . S
C830 H820 0.930 . S
C830 C828 1.419 . S
C830 C831 1.362 . S
C831 H821 0.930 . S
C831 C824 1.409 . S
C831 C830 1.362 . S
H832 C838 0.930 . S
H833 C841 0.930 . S
H834 C842 0.930 . S
H835 C843 0.930 . S
H836 C846 0.930 . S
H837 C847 0.930 . S
C838 H832 0.930 . S
C838 C839 1.355 . S
C838 C840 1.415 . S
C839 C838 1.355 . S
C839 C841 1.419 . S
C840 C838 1.415 . S
C840 C845 1.425 . S
C840 C847 1.409 . S
C841 H833 0.930 . S
C841 C839 1.419 . S
C841 C842 1.362 . S
C842 H834 0.930 . S
C842 C841 1.362 . S
C842 C845 1.409 . S
C843 H835 0.930 . S
C843 C844 1.355 . S
C843 C845 1.415 . S
C844 C843 1.355 . S
C844 C846 1.419 . S
C845 C840 1.425 . S
C845 C842 1.409 . S
C845 C843 1.415 . S
C846 H836 0.930 . S
C846 C844 1.419 . S
C846 C847 1.362 . S
C847 H837 0.930 . S
C847 C840 1.409 . S
C847 C846 1.362 . S
H848 C854 0.930 . S
H849 C857 0.930 . S
H850 C858 0.930 . S
H851 C859 0.930 . S
H852 C862 0.930 . S
H853 C863 0.930 . S
C854 H848 0.930 . S
C854 C855 1.355 . S
C854 C856 1.415 . S
C855 C854 1.355 . S
C855 C857 1.419 . S
C856 C854 1.415 . S
C856 C861 1.425 . S
C856 C863 1.409 . S
C857 H849 0.930 . S
C857 C855 1.419 . S
C857 C858 1.362 . S
C858 H850 0.930 . S
C858 C857 1.362 . S
C858 C861 1.409 . S
C859 H851 0.930 . S
C859 C860 1.355 . S
C859 C861 1.415 . S
C860 C859 1.355 . S
C860 C862 1.419 . S
C861 C856 1.425 . S
C861 C858 1.409 . S
C861 C859 1.415 . S
C862 H852 0.930 . S
C862 C860 1.419 . S
C862 C863 1.362 . S
C863 H853 0.930 . S
C863 C856 1.409 . S
C863 C862 1.362 . S
H864 C870 0.930 . S
H865 C873 0.930 . S
H866 C874 0.930 . S
H867 C875 0.930 . S
H868 C878 0.930 . S
H869 C879 0.930 . S
C870 H864 0.930 . S
C870 C871 1.355 . S
C870 C872 1.415 . S
C871 C870 1.355 . S
C871 C873 1.419 . S
C872 C870 1.415 . S
C872 C877 1.425 . S
C872 C879 1.409 . S
C873 H865 0.930 . S
C873 C871 1.419 . S
C873 C874 1.362 . S
C874 H866 0.930 . S
C874 C873 1.362 . S
C874 C877 1.409 . S
C875 H867 0.930 . S
C875 C876 1.355 . S
C875 C877 1.415 . S
C876 C875 1.355 . S
C876 C878 1.419 . S
C877 C872 1.425 . S
C877 C874 1.409 . S
C877 C875 1.415 . S
C878 H868 0.930 . S
C878 C876 1.419 . S
C878 C879 1.362 . S
C879 H869 0.930 . S
C879 C872 1.409 . S
C879 C878 1.362 . S
H880 C886 0.930 . S
H881 C889 0.930 . S
H882 C890 0.930 . S
H883 C891 0.930 . S
H884 C894 0.930 . S
H885 C895 0.930 . S
C886 H880 0.930 . S
C886 C887 1.355 . S
C886 C888 1.415 . S
C887 C886 1.355 . S
C887 C889 1.419 . S
C888 C886 1.415 . S
C888 C893 1.425 . S
C888 C895 1.409 . S
C889 H881 0.930 . S
C889 C887 1.419 . S
C889 C890 1.362 . S
C890 H882 0.930 . S
C890 C889 1.362 . S
C890 C893 1.409 . S
C891 H883 0.930 . S
C891 C892 1.355 . S
C891 C893 1.415 . S
C892 C891 1.355 . S
C892 C894 1.419 . S
C893 C888 1.425 . S
C893 C890 1.409 . S
C893 C891 1.415 . S
C894 H884 0.930 . S
C894 C892 1.419 . S
C894 C895 1.362 . S
C895 H885 0.930 . S
C895 C888 1.409 . S
C895 C894 1.362 . S
H896 C902 0.930 . S
H897 C905 0.930 . S
H898 C906 0.930 . S
H899 C907 0.930 . S
H900 C910 0.930 . S
H901 C911 0.930 . S
C902 H896 0.930 . S
C902 C903 1.355 . S
C902 C904 1.415 . S
C903 C902 1.355 . S
C903 C905 1.419 . S
C904 C902 1.415 . S
C904 C909 1.425 . S
C904 C911 1.409 . S
C905 H897 0.930 . S
C905 C903 1.419 . S
C905 C906 1.362 . S
C906 H898 0.930 . S
C906 C905 1.362 . S
C906 C909 1.409 . S
C907 H899 0.930 . S
C907 C908 1.355 . S
C907 C909 1.415 . S
C908 C907 1.355 . S
C908 C910 1.419 . S
C909 C904 1.425 . S
C909 C906 1.409 . S
C909 C907 1.415 . S
C910 H900 0.930 . S
C910 C908 1.419 . S
C910 C911 1.362 . S
C911 H901 0.930 . S
C911 C904 1.409 . S
C911 C910 1.362 . S
H912 C918 0.930 . S
H913 C921 0.930 . S
H914 C922 0.930 . S
H915 C923 0.930 . S
H916 C926 0.930 . S
H917 C927 0.930 . S
C918 H912 0.930 . S
C918 C919 1.355 . S
C918 C920 1.415 . S
C919 C918 1.355 . S
C919 C921 1.419 . S
C920 C918 1.415 . S
C920 C925 1.425 . S
C920 C927 1.409 . S
C921 H913 0.930 . S
C921 C919 1.419 . S
C921 C922 1.362 . S
C922 H914 0.930 . S
C922 C921 1.362 . S
C922 C925 1.409 . S
C923 H915 0.930 . S
C923 C924 1.355 . S
C923 C925 1.415 . S
C924 C923 1.355 . S
C924 C926 1.419 . S
C925 C920 1.425 . S
C925 C922 1.409 . S
C925 C923 1.415 . S
C926 H916 0.930 . S
C926 C924 1.419 . S
C926 C927 1.362 . S
C927 H917 0.930 . S
C927 C920 1.409 . S
C927 C926 1.362 . S
H928 C934 0.930 . S
H929 C937 0.930 . S
H930 C938 0.930 . S
H931 C939 0.930 . S
H932 C942 0.930 . S
H933 C943 0.930 . S
C934 H928 0.930 . S
C934 C935 1.355 . S
C934 C936 1.415 . S
C935 C934 1.355 . S
C935 C937 1.419 . S
C936 C934 1.415 . S
C936 C941 1.425 . S
C936 C943 1.409 . S
C937 H929 0.930 . S
C937 C935 1.419 . S
C937 C938 1.362 . S
C938 H930 0.930 . S
C938 C937 1.362 . S
C938 C941 1.409 . S
C939 H931 0.930 . S
C939 C940 1.355 . S
C939 C941 1.415 . S
C940 C939 1.355 . S
C940 C942 1.419 . S
C941 C936 1.425 . S
C941 C938 1.409 . S
C941 C939 1.415 . S
C942 H932 0.930 . S
C942 C940 1.419 . S
C942 C943 1.362 . S
C943 H933 0.930 . S
C943 C936 1.409 . S
C943 C942 1.362 . S
H944 C950 0.930 . S
H945 C953 0.930 . S
H946 C954 0.930 . S
H947 C955 0.930 . S
H948 C958 0.930 . S
H949 C959 0.930 . S
C950 H944 0.930 . S
C950 C951 1.355 . S
C950 C952 1.415 . S
C951 C950 1.355 . S
C951 C953 1.419 . S
C952 C950 1.415 . S
C952 C957 1.425 . S
C952 C959 1.409 . S
C953 H945 0.930 . S
C953 C951 1.419 . S
C953 C954 1.362 . S
C954 H946 0.930 . S
C954 C953 1.362 . S
C954 C957 1.409 . S
C955 H947 0.930 . S
C955 C956 1.355 . S
C955 C957 1.415 . S
C956 C955 1.355 . S
C956 C958 1.419 . S
C957 C952 1.425 . S
C957 C954 1.409 . S
C957 C955 1.415 . S
C958 H948 0.930 . S
C958 C956 1.419 . S
C958 C959 1.362 . S
C959 H949 0.930 . S
C959 C952 1.409 . S
C959 C958 1.362 . S
H960 C966 0.930 . S
H961 C969 0.929 1_554 S
H962 C970 0.930 . S
H963 C971 0.930 . S
H964 C974 0.929 1_556 S
H965 C975 0.930 . S
C966 H960 0.930 . S
C966 C967 1.355 . S
C966 C968 1.415 . S
C967 C966 1.355 . S
C967 C969 1.419 . S
C968 C966 1.415 . S
C968 C973 1.425 1_556 S
C968 C975 1.409 . S
C969 H961 0.929 1_556 S
C969 C967 1.419 . S
C969 C970 1.362 1_556 S
C970 H962 0.930 . S
C970 C969 1.362 1_554 S
C970 C973 1.409 . S
C971 H963 0.930 . S
C971 C972 1.355 . S
C971 C973 1.415 . S
C972 C971 1.355 . S
C972 C974 1.419 . S
C973 C968 1.425 1_554 S
C973 C970 1.409 . S
C973 C971 1.415 . S
C974 H964 0.929 1_554 S
C974 C972 1.419 . S
C974 C975 1.362 1_554 S
C975 H965 0.930 . S
C975 C968 1.409 . S
C975 C974 1.362 1_556 S
H976 C982 0.930 . S
H977 C985 0.930 . S
H978 C986 0.930 . S
H979 C987 0.930 . S
H980 C990 0.930 . S
H981 C991 0.930 . S
C982 H976 0.930 . S
C982 C983 1.355 . S
C982 C984 1.415 1_455 S
C983 C982 1.355 . S
C983 C985 1.419 . S
C984 C982 1.415 1_655 S
C984 C989 1.425 1_655 S
C984 C991 1.409 . S
C985 H977 0.930 . S
C985 C983 1.419 . S
C985 C986 1.362 . S
C986 H978 0.930 . S
C986 C985 1.362 . S
C986 C989 1.409 . S
C987 H979 0.930 . S
C987 C988 1.355 . S
C987 C989 1.415 1_655 S
C988 C987 1.355 . S
C988 C990 1.419 . S
C989 C984 1.425 1_455 S
C989 C986 1.409 . S
C989 C987 1.415 1_455 S
C990 H980 0.930 . S
C990 C988 1.419 . S
C990 C991 1.362 . S
C991 H981 0.930 . S
C991 C984 1.409 . S
C991 C990 1.362 . S
H992 C998 0.930 1_556 S
H993 C1001 0.930 . S
H994 C1002 0.930 . S
H995 C1003 0.930 1_554 S
H996 C1006 0.930 . S
H997 C1007 0.930 . S
C998 H992 0.930 1_554 S
C998 C999 1.355 . S
C998 C1000 1.415 1_554 S
C999 C998 1.355 . S
C999 C1001 1.419 . S
C1000 C998 1.415 1_556 S
C1000 C1005 1.425 1_566 S
C1000 C1007 1.409 . S
C1001 H993 0.930 . S
C1001 C999 1.419 . S
C1001 C1002 1.362 1_565 S
C1002 H994 0.930 . S
C1002 C1001 1.362 1_545 S
C1002 C1005 1.409 . S
C1003 H995 0.930 1_556 S
C1003 C1004 1.355 . S
C1003 C1005 1.415 1_556 S
C1004 C1003 1.355 . S
C1004 C1006 1.419 . S
C1005 C1000 1.425 1_544 S
C1005 C1002 1.409 . S
C1005 C1003 1.415 1_554 S
C1006 H996 0.930 . S
C1006 C1004 1.419 . S
C1006 C1007 1.362 1_545 S
C1007 H997 0.930 . S
C1007 C1000 1.409 . S
C1007 C1006 1.362 1_565 S
H1008 C1014 0.930 . S
H1009 C1017 0.930 . S
H1010 C1018 0.930 . S
H1011 C1019 0.930 . S
H1012 C1022 0.930 . S
H1013 C1023 0.930 . S
C1014 H1008 0.930 . S
C1014 C1015 1.355 . S
C1014 C1016 1.415 . S
C1015 C1014 1.355 . S
C1015 C1017 1.419 . S
C1016 C1014 1.415 . S
C1016 C1021 1.425 . S
C1016 C1023 1.409 . S
C1017 H1009 0.930 . S
C1017 C1015 1.419 . S
C1017 C1018 1.362 . S
C1018 H1010 0.930 . S
C1018 C1017 1.362 . S
C1018 C1021 1.409 . S
C1019 H1011 0.930 . S
C1019 C1020 1.355 . S
C1019 C1021 1.415 . S
C1020 C1019 1.355 . S
C1020 C1022 1.419 . S
C1021 C1016 1.425 . S
C1021 C1018 1.409 . S
C1021 C1019 1.415 . S
C1022 H1012 0.930 . S
C1022 C1020 1.419 . S
C1022 C1023 1.362 . S
C1023 H1013 0.930 . S
C1023 C1016 1.409 . S
C1023 C1022 1.362 . S
H1024 C1030 0.930 . S
H1025 C1033 0.930 . S
H1026 C1034 0.930 . S
H1027 C1035 0.930 . S
H1028 C1038 0.930 . S
H1029 C1039 0.930 . S
C1030 H1024 0.930 . S
C1030 C1031 1.355 . S
C1030 C1032 1.415 1_655 S
C1031 C1030 1.355 . S
C1031 C1033 1.419 1_556 S
C1032 C1030 1.415 1_455 S
C1032 C1037 1.425 1_456 S
C1032 C1039 1.409 . S
C1033 H1025 0.930 . S
C1033 C1031 1.419 1_554 S
C1033 C1034 1.362 . S
C1034 H1026 0.930 . S
C1034 C1033 1.362 . S
C1034 C1037 1.409 . S
C1035 H1027 0.930 . S
C1035 C1036 1.355 . S
C1035 C1037 1.415 1_455 S
C1036 C1035 1.355 . S
C1036 C1038 1.419 1_554 S
C1037 C1032 1.425 1_654 S
C1037 C1034 1.409 . S
C1037 C1035 1.415 1_655 S
C1038 H1028 0.930 . S
C1038 C1036 1.419 1_556 S
C1038 C1039 1.362 . S
C1039 H1029 0.930 . S
C1039 C1032 1.409 . S
C1039 C1038 1.362 . S
H1040 C1046 0.930 . S
H1041 C1049 0.930 . S
H1042 C1050 0.930 . S
H1043 C1051 0.930 . S
H1044 C1054 0.930 . S
H1045 C1055 0.930 . S
C1046 H1040 0.930 . S
C1046 C1047 1.355 . S
C1046 C1048 1.415 . S
C1047 C1046 1.355 . S
C1047 C1049 1.419 . S
C1048 C1046 1.415 . S
C1048 C1053 1.425 1_565 S
C1048 C1055 1.409 1_565 S
C1049 H1041 0.930 . S
C1049 C1047 1.419 . S
C1049 C1050 1.362 . S
C1050 H1042 0.930 . S
C1050 C1049 1.362 . S
C1050 C1053 1.409 1_565 S
C1051 H1043 0.930 . S
C1051 C1052 1.355 . S
C1051 C1053 1.415 . S
C1052 C1051 1.355 . S
C1052 C1054 1.419 . S
C1053 C1048 1.425 1_545 S
C1053 C1050 1.409 1_545 S
C1053 C1051 1.415 . S
C1054 H1044 0.930 . S
C1054 C1052 1.419 . S
C1054 C1055 1.362 . S
C1055 H1045 0.930 . S
C1055 C1048 1.409 1_545 S
C1055 C1054 1.362 . S
C487 C179 1.309 . S
C492 C15 1.349 . S
C503 C219 1.289 . S
C508 C55 1.356 . S
C519 C95 1.345 . S
C524 C19 1.280 . S
C535 C135 1.374 . S
C540 C59 1.356 . S
C551 C175 1.386 . S
C556 C99 1.365 . S
C567 C139 1.296 . S
C572 C215 1.344 . S
C583 C339 1.353 . S
C588 C255 1.372 . S
C599 C295 1.384 . S
C604 C379 1.342 . S
C615 C419 1.281 . S
C620 C335 1.343 . S
C631 C375 1.387 . S
C636 C459 1.364 . S
C647 C415 1.344 . S
C652 C259 1.280 . S
C663 C299 1.296 . S
C668 C455 1.344 . S
C679 C170 1.826 . S
C684 C6 1.799 . S
C695 C46 1.811 . S
C700 C210 1.815 . S
C711 C86 1.781 . S
C716 C10 1.785 . S
C727 C126 1.812 . S
C732 C50 1.823 . S
C743 C90 1.825 . S
C748 C166 1.811 . S
C759 C130 1.782 . S
C764 C206 1.756 . S
C775 C330 1.796 . S
C780 C246 1.760 . S
C791 C286 1.797 . S
C796 C370 1.826 . S
C807 C326 1.755 . S
C812 C410 1.787 . S
C823 C450 1.800 . S
C828 C366 1.762 . S
C839 C406 1.811 . S
C844 C250 1.815 . S
C855 C290 1.792 . S
C860 C446 1.757 . S
C871 C418 1.619 . S
C876 C18 1.587 . S
C887 C58 1.569 . S
C892 C458 1.549 . S
C903 C98 1.601 . S
C908 C258 1.630 . S
C919 C138 1.567 . S
C924 C298 1.600 . S
C935 C178 1.640 . S
C940 C338 1.635 . S
C951 C378 1.548 . S
C956 C218 1.564 . S
C967 C369 2.246 . S
C972 C9 2.236 . S
C983 C409 2.248 . S
C988 C49 2.247 . S
C999 C89 2.227 . S
C1004 C449 2.225 . S
C1015 C129 2.226 . S
C1020 C249 2.236 . S
C1031 C289 2.248 . S
C1036 C169 2.247 . S
C1047 C329 2.244 . S
C1052 C209 2.233 . S
