# Generated by pormake.
# Topology sow, (4)-cn, num edge types: 1
# Building blocks:
#     Node 0, Type 0, BuildingBlock: QUQFOY_clean_sbu_1, # of connection points: 4
#     Node 1, Type 0, BuildingBlock: QUQFOY_clean_sbu_1, # of connection points: 4
#     Node 2, Type 0, BuildingBlock: QUQFOY_clean_sbu_1, # of connection points: 4
#     Node 3, Type 0, BuildingBlock: QUQFOY_clean_sbu_1, # of connection points: 4
#     Node 4, Type 0, BuildingBlock: QUQFOY_clean_sbu_1, # of connection points: 4
#     Node 5, Type 0, BuildingBlock: QUQFOY_clean_sbu_1, # of connection points: 4
#     Node 6, Type 0, BuildingBlock: QUQFOY_clean_sbu_1, # of connection points: 4
#     Node 7, Type 0, BuildingBlock: QUQFOY_clean_sbu_1, # of connection points: 4
#     Edge 8, Type (0, 0), BuildingBlock: KIFKEQ_clean_linker_1, # of connection points: 2
#     Edge 9, Type (0, 0), BuildingBlock: KIFKEQ_clean_linker_1, # of connection points: 2
#     Edge 10, Type (0, 0), BuildingBlock: KIFKEQ_clean_linker_1, # of connection points: 2
#     Edge 11, Type (0, 0), BuildingBlock: KIFKEQ_clean_linker_1, # of connection points: 2
#     Edge 12, Type (0, 0), BuildingBlock: KIFKEQ_clean_linker_1, # of connection points: 2
#     Edge 13, Type (0, 0), BuildingBlock: KIFKEQ_clean_linker_1, # of connection points: 2
#     Edge 14, Type (0, 0), BuildingBlock: KIFKEQ_clean_linker_1, # of connection points: 2
#     Edge 15, Type (0, 0), BuildingBlock: KIFKEQ_clean_linker_1, # of connection points: 2
#     Edge 16, Type (0, 0), BuildingBlock: KIFKEQ_clean_linker_1, # of connection points: 2
#     Edge 17, Type (0, 0), BuildingBlock: KIFKEQ_clean_linker_1, # of connection points: 2
#     Edge 18, Type (0, 0), BuildingBlock: KIFKEQ_clean_linker_1, # of connection points: 2
#     Edge 19, Type (0, 0), BuildingBlock: KIFKEQ_clean_linker_1, # of connection points: 2
#     Edge 20, Type (0, 0), BuildingBlock: KIFKEQ_clean_linker_1, # of connection points: 2
#     Edge 21, Type (0, 0), BuildingBlock: KIFKEQ_clean_linker_1, # of connection points: 2
#     Edge 22, Type (0, 0), BuildingBlock: KIFKEQ_clean_linker_1, # of connection points: 2
#     Edge 23, Type (0, 0), BuildingBlock: KIFKEQ_clean_linker_1, # of connection points: 2
# Relax obj value: 0.073
# Max RMSD: 0.123
# Mean RMSD: 0.123
data_MOF--net-sow--node1-QUQFOY_clean_sbu_1--edge1-KIFKEQ_clean_linker_1
_symmetry_space_group_name_H-M    P1
_symmetry_Int_Tables_number       1
_symmetry_cell_setting            triclinic
loop_
_symmetry_equiv_pos_as_xyz
'x, y, z'
_cell_length_a     35.97287
_cell_length_b     36.923131
_cell_length_c     24.222262
_cell_angle_alpha  90.018549
_cell_angle_beta   90.032119
_cell_angle_gamma 89.945444
loop_
_atom_site_label
_atom_site_type_symbol
_atom_site_fract_x
_atom_site_fract_y
_atom_site_fract_z
_atom_type_partial_charge
O0 O 0.18313 0.2432 0.07442 0.0
Cd1 Cd 0.14038 0.25748 0.02278 0.0
Cd2 Cd 0.11159 0.18969 0.06965 0.0
O3 O 0.16358 0.19083 0.10805 0.0
O4 O 0.16126 0.29896 0.97983 0.0
O5 O 0.14358 0.24778 0.94077 0.0
C6 C 0.15783 0.27971 0.9358 0.0
C7 C 0.0821 0.13399 0.04928 0.0
C8 C 0.1878 0.216 0.10585 0.0
C9 C 0.07195 0.26231 0.09137 0.0
O10 O 0.07421 0.22815 0.09683 0.0
O11 O 0.0954 0.27975 0.0627 0.0
O12 O 0.08706 0.14484 0.0992 0.0
O13 O 0.0957 0.15381 0.01031 0.0
O14 O 0.31187 0.31343 0.57485 0.0
Cd15 Cd 0.35485 0.29435 0.52734 0.0
Cd16 Cd 0.38852 0.36074 0.57001 0.0
O17 O 0.33746 0.36261 0.61055 0.0
O18 O 0.33056 0.25358 0.48688 0.0
O19 O 0.35564 0.30044 0.44436 0.0
C20 C 0.33763 0.27025 0.44143 0.0
C21 C 0.41862 0.4152 0.54469 0.0
C22 C 0.31038 0.3405 0.60716 0.0
C23 C 0.42327 0.28711 0.59682 0.0
O24 O 0.4246 0.32151 0.59813 0.0
O25 O 0.3974 0.27059 0.57152 0.0
O26 O 0.41367 0.40636 0.59552 0.0
O27 O 0.40524 0.39375 0.50756 0.0
O28 O 0.68879 0.31076 0.92791 0.0
Cd29 Cd 0.646 0.2941 0.9778 0.0
Cd30 Cd 0.61382 0.36111 0.93525 0.0
O31 O 0.66464 0.36123 0.89388 0.0
O32 O 0.66768 0.25229 0.0192 0.0
O33 O 0.64822 0.30219 0.06026 0.0
C34 C 0.66332 0.27053 0.06403 0.0
C35 C 0.58529 0.41623 0.96152 0.0
C36 C 0.69083 0.33797 0.89594 0.0
C37 C 0.57632 0.28872 0.91031 0.0
O38 O 0.57633 0.32309 0.90764 0.0
O39 O 0.60161 0.27168 0.93612 0.0
O40 O 0.58979 0.40753 0.91052 0.0
O41 O 0.59843 0.39433 0.99824 0.0
O42 O 0.81423 0.23224 0.42775 0.0
Cd43 Cd 0.85649 0.25067 0.47728 0.0
Cd44 Cd 0.89195 0.18553 0.43222 0.0
O45 O 0.84139 0.18441 0.38997 0.0
O46 O 0.83325 0.29148 0.51918 0.0
O47 O 0.85544 0.24253 0.55982 0.0
C48 C 0.83905 0.27355 0.56392 0.0
C49 C 0.92322 0.13077 0.45346 0.0
C50 C 0.81379 0.20598 0.3938 0.0
C51 C 0.92555 0.26014 0.4098 0.0
O52 O 0.92781 0.22583 0.40754 0.0
O53 O 0.89898 0.27566 0.43492 0.0
O54 O 0.91939 0.14197 0.40352 0.0
O55 O 0.90776 0.14977 0.49188 0.0
O56 O 0.81146 0.81371 0.93194 0.0
Cd57 Cd 0.85456 0.7974 0.98161 0.0
Cd58 Cd 0.88581 0.86454 0.93901 0.0
O59 O 0.83452 0.86485 0.89882 0.0
O60 O 0.83334 0.75586 0.02398 0.0
O61 O 0.85269 0.80622 0.06387 0.0
C62 C 0.83774 0.77455 0.06838 0.0
C63 C 0.9152 0.9193 0.96468 0.0
C64 C 0.80875 0.84119 0.90062 0.0
C65 C 0.92347 0.79227 0.91296 0.0
O66 O 0.92291 0.82662 0.91005 0.0
O67 O 0.89882 0.77499 0.93963 0.0
O68 O 0.90963 0.9109 0.9138 0.0
O69 O 0.90249 0.89742 1.0017 0.0
O70 O 0.68463 0.73851 0.43137 0.0
Cd71 Cd 0.6422 0.75562 0.48171 0.0
Cd72 Cd 0.60843 0.68966 0.43649 0.0
O73 O 0.6588 0.68992 0.3939 0.0
O74 O 0.66454 0.7965 0.52444 0.0
O75 O 0.64406 0.7465 0.56397 0.0
C76 C 0.65961 0.77786 0.56873 0.0
C77 C 0.57913 0.63391 0.45728 0.0
C78 C 0.68576 0.71222 0.39753 0.0
C79 C 0.57216 0.76346 0.41581 0.0
O80 O 0.57112 0.72912 0.41298 0.0
O81 O 0.59843 0.77964 0.44065 0.0
O82 O 0.58212 0.6456 0.40748 0.0
O83 O 0.59428 0.65306 0.49578 0.0
O84 O 0.31327 0.73208 0.07815 0.0
Cd85 Cd 0.35563 0.75291 0.03116 0.0
Cd86 Cd 0.39243 0.68841 0.07541 0.0
O87 O 0.34211 0.68599 0.11793 0.0
O88 O 0.32991 0.79277 0.9904 0.0
O89 O 0.35756 0.74718 0.9481 0.0
C90 C 0.33838 0.7767 0.94496 0.0
C91 C 0.42397 0.63399 0.05318 0.0
C92 C 0.31358 0.70623 0.11276 0.0
C93 C 0.42393 0.76365 0.09977 0.0
O94 O 0.42761 0.72941 0.09998 0.0
O95 O 0.39648 0.77872 0.07605 0.0
O96 O 0.42077 0.64518 0.10324 0.0
O97 O 0.40799 0.65297 0.0152 0.0
O98 O 0.18698 0.80536 0.57703 0.0
Cd99 Cd 0.14354 0.79209 0.52612 0.0
Cd100 Cd 0.11785 0.86114 0.56935 0.0
O101 O 0.17028 0.85973 0.60635 0.0
O102 O 0.16288 0.74952 0.48396 0.0
O103 O 0.14692 0.80095 0.44399 0.0
C104 C 0.1602 0.76855 0.43962 0.0
C105 C 0.08983 0.9163 0.54231 0.0
C106 C 0.1932 0.83335 0.60615 0.0
C107 C 0.07578 0.79107 0.59648 0.0
O108 O 0.07976 0.82513 0.60124 0.0
O109 O 0.09774 0.77232 0.56702 0.0
O110 O 0.09627 0.90886 0.59332 0.0
O111 O 0.10111 0.89325 0.50586 0.0
H112 H 0.30927 0.37539 0.70676 0.0
H113 H 0.24251 0.3076 0.60058 0.0
H114 H 0.26639 0.36452 0.78248 0.0
H115 H 0.19871 0.29778 0.67572 0.0
H116 H 0.16956 0.24145 0.84064 0.0
H117 H 0.20018 0.26232 0.75692 0.0
H118 H 0.20789 0.37015 0.82563 0.0
H119 H 0.17854 0.34878 0.91015 0.0
C120 C 0.28471 0.35921 0.69898 0.0
C121 C 0.27959 0.34201 0.6478 0.0
C122 C 0.25999 0.35292 0.74254 0.0
C123 C 0.22933 0.32962 0.73572 0.0
C124 C 0.22255 0.31502 0.68303 0.0
C125 C 0.24747 0.32098 0.6397 0.0
C126 C 0.17735 0.2697 0.83755 0.0
C127 C 0.17195 0.29333 0.88224 0.0
C128 C 0.19474 0.28183 0.78931 0.0
C129 C 0.20681 0.318 0.78437 0.0
C130 C 0.19968 0.34199 0.82822 0.0
C131 C 0.18264 0.32977 0.87663 0.0
H132 H 0.2088 0.16403 0.18143 0.0
H133 H 0.23713 0.27091 0.12241 0.0
H134 H 0.25254 0.17138 0.25765 0.0
H135 H 0.27864 0.27916 0.19953 0.0
H136 H 0.35939 0.28836 0.33652 0.0
H137 H 0.33167 0.26843 0.24974 0.0
H138 H 0.25375 0.20217 0.34077 0.0
H139 H 0.28302 0.22035 0.4265 0.0
C140 C 0.22465 0.18888 0.18426 0.0
C141 C 0.21902 0.21699 0.14605 0.0
C142 C 0.24949 0.19333 0.22839 0.0
C143 C 0.26882 0.22621 0.23583 0.0
C144 C 0.26481 0.25329 0.19543 0.0
C145 C 0.24056 0.24862 0.15102 0.0
C146 C 0.3367 0.26911 0.3377 0.0
C147 C 0.32323 0.25615 0.38833 0.0
C148 C 0.32057 0.25779 0.28795 0.0
C149 C 0.28998 0.2339 0.28775 0.0
C150 C 0.27753 0.22005 0.33862 0.0
C151 C 0.29415 0.23078 0.38813 0.0
H152 H 0.74517 0.23757 0.39997 0.0
H153 H 0.81466 0.17334 0.29244 0.0
H154 H 0.70202 0.24812 0.32412 0.0
H155 H 0.77243 0.18497 0.21611 0.0
H156 H 0.68563 0.20146 0.0869 0.0
H157 H 0.71463 0.17903 0.17112 0.0
H158 H 0.70338 0.28518 0.24469 0.0
H159 H 0.67309 0.30707 0.16123 0.0
C160 C 0.7509 0.22514 0.36035 0.0
C161 C 0.78357 0.20488 0.35216 0.0
C162 C 0.72634 0.23152 0.31665 0.0
C163 C 0.73403 0.21814 0.26348 0.0
C164 C 0.76532 0.19561 0.25639 0.0
C165 C 0.78967 0.18889 0.30031 0.0
C166 C 0.68889 0.21986 0.1214 0.0
C167 C 0.67729 0.25614 0.11725 0.0
C168 C 0.70573 0.20703 0.16965 0.0
C169 C 0.71176 0.23027 0.2148 0.0
C170 C 0.6988 0.26624 0.21126 0.0
C171 C 0.6816 0.27895 0.16317 0.0
H172 H 0.69092 0.37202 0.79582 0.0
H173 H 0.75829 0.30402 0.90091 0.0
H174 H 0.73257 0.36016 0.71901 0.0
H175 H 0.80111 0.29338 0.82472 0.0
H176 H 0.82925 0.23629 0.66037 0.0
H177 H 0.79961 0.25781 0.74453 0.0
H178 H 0.78962 0.36479 0.67333 0.0
H179 H 0.81772 0.34263 0.58832 0.0
C180 C 0.7154 0.35558 0.80308 0.0
C181 C 0.72102 0.33864 0.85432 0.0
C182 C 0.73944 0.34873 0.75888 0.0
C183 C 0.77001 0.32517 0.7651 0.0
C184 C 0.77731 0.31078 0.8178 0.0
C185 C 0.75298 0.31722 0.86174 0.0
C186 C 0.82112 0.2645 0.66301 0.0
C187 C 0.82547 0.28763 0.61752 0.0
C188 C 0.8043 0.27701 0.7115 0.0
C189 C 0.79188 0.31313 0.71595 0.0
C190 C 0.79803 0.33666 0.6712 0.0
C191 C 0.81437 0.324 0.62249 0.0
H192 H 0.81644 0.70554 0.09326 0.0
H193 H 0.82699 0.81232 0.16422 0.0
H194 H 0.78708 0.68401 0.17766 0.0
H195 H 0.79629 0.79134 0.24779 0.0
H196 H 0.7535 0.74544 0.40373 0.0
H197 H 0.79714 0.7556 0.32849 0.0
H198 H 0.72882 0.68995 0.22103 0.0
H199 H 0.68614 0.67869 0.29683 0.0
C200 C 0.81268 0.72438 0.12708 0.0
C201 C 0.82381 0.76072 0.12191 0.0
C202 C 0.79562 0.71208 0.17542 0.0
C203 C 0.78886 0.73592 0.21962 0.0
C204 C 0.80142 0.77195 0.21513 0.0
C205 C 0.81886 0.78414 0.16698 0.0
C206 C 0.74832 0.73243 0.36438 0.0
C207 C 0.71613 0.71151 0.35617 0.0
C208 C 0.77317 0.73857 0.32101 0.0
C209 C 0.76623 0.72429 0.26815 0.0
C210 C 0.73538 0.70126 0.2611 0.0
C211 C 0.71075 0.69477 0.30469 0.0
H212 H 0.67965 0.84703 0.59478 0.0
H213 H 0.67099 0.73964 0.66396 0.0
H214 H 0.70795 0.86867 0.67996 0.0
H215 H 0.70082 0.7607 0.74827 0.0
H216 H 0.74205 0.80598 0.90545 0.0
H217 H 0.69903 0.79535 0.82947 0.0
H218 H 0.76549 0.86451 0.7247 0.0
H219 H 0.80736 0.8763 0.80134 0.0
C220 C 0.68367 0.82805 0.62836 0.0
C221 C 0.67331 0.79155 0.62252 0.0
C222 C 0.70013 0.84042 0.67716 0.0
C223 C 0.70713 0.81648 0.72114 0.0
C224 C 0.69546 0.7802 0.71585 0.0
C225 C 0.67853 0.76795 0.66727 0.0
C226 C 0.74685 0.81969 0.86656 0.0
C227 C 0.7783 0.84177 0.85934 0.0
C228 C 0.72241 0.81326 0.82273 0.0
C229 C 0.72909 0.82835 0.77033 0.0
C230 C 0.75911 0.85252 0.76436 0.0
C231 C 0.78327 0.85935 0.80846 0.0
H232 H 0.36171 0.75897 0.84057 0.0
H233 H 0.28367 0.82647 0.92865 0.0
H234 H 0.33541 0.77941 0.75305 0.0
H235 H 0.25597 0.84529 0.84206 0.0
H236 H 0.21437 0.88511 0.68192 0.0
H237 H 0.25707 0.87698 0.75925 0.0
H238 H 0.28278 0.7691 0.70094 0.0
H239 H 0.2422 0.77804 0.62282 0.0
C240 C 0.33896 0.77821 0.84119 0.0
C241 C 0.3246 0.79087 0.8915 0.0
C242 C 0.32367 0.78984 0.79101 0.0
C243 C 0.29315 0.81385 0.79001 0.0
C244 C 0.27976 0.82735 0.8406 0.0
C245 C 0.29547 0.81624 0.89057 0.0
C246 C 0.22996 0.86008 0.68489 0.0
C247 C 0.22436 0.83209 0.64644 0.0
C248 C 0.25418 0.85519 0.72967 0.0
C249 C 0.27298 0.82203 0.73742 0.0
C250 C 0.26925 0.79514 0.69665 0.0
C251 C 0.24556 0.80022 0.65167 0.0
H252 H 0.24431 0.73628 0.105 0.0
H253 H 0.31409 0.67339 0.21406 0.0
H254 H 0.20035 0.74614 0.17996 0.0
H255 H 0.27086 0.6842 0.28944 0.0
H256 H 0.18218 0.69939 0.41636 0.0
H257 H 0.21199 0.67724 0.33258 0.0
H258 H 0.20161 0.78365 0.25978 0.0
H259 H 0.17074 0.80537 0.34286 0.0
C260 C 0.24993 0.72394 0.14472 0.0
C261 C 0.28296 0.70436 0.15365 0.0
C262 C 0.22488 0.72992 0.18789 0.0
C263 C 0.23236 0.71671 0.2412 0.0
C264 C 0.26396 0.69471 0.24898 0.0
C265 C 0.28887 0.68846 0.20562 0.0
C266 C 0.18577 0.71791 0.38211 0.0
C267 C 0.17432 0.75424 0.38642 0.0
C268 C 0.20306 0.70523 0.33414 0.0
C269 C 0.20957 0.72863 0.28939 0.0
C270 C 0.19667 0.76461 0.29297 0.0
C271 C 0.17913 0.77722 0.34082 0.0
H272 H 0.99891 0.24795 0.10803 0.0
H273 H 0.08837 0.31783 0.16012 0.0
H274 H 0.96285 0.26583 0.18915 0.0
H275 H 0.05292 0.33434 0.2429 0.0
H276 H 0.99996 0.25257 0.3952 0.0
H277 H 0.03453 0.27126 0.31314 0.0
H278 H 0.93836 0.32935 0.2541 0.0
H279 H 0.90424 0.31212 0.33762 0.0
C280 C 0.01009 0.26833 0.13561 0.0
C281 C 0.04617 0.2817 0.12793 0.0
C282 C 0.98954 0.27857 0.18191 0.0
C283 C 0.00527 0.30144 0.2219 0.0
C284 C 0.04018 0.31704 0.21212 0.0
C285 C 0.06029 0.30768 0.16479 0.0
C286 C 0.98696 0.27098 0.36618 0.0
C287 C 0.94962 0.28104 0.37261 0.0
C288 C 0.00667 0.28168 0.31934 0.0
C289 C 0.98893 0.30168 0.27765 0.0
C290 C 0.9526 0.31429 0.28615 0.0
C291 C 0.93324 0.30453 0.33394 0.0
H292 H 0.40399 0.2363 0.67209 0.0
H293 H 0.49774 0.29573 0.60809 0.0
H294 H 0.44028 0.22018 0.75425 0.0
H295 H 0.53445 0.2782 0.68876 0.0
H296 H 0.59318 0.2347 0.83889 0.0
H297 H 0.55623 0.2175 0.7579 0.0
H298 H 0.46499 0.28231 0.818 0.0
H299 H 0.50243 0.30084 0.89739 0.0
C300 C 0.43297 0.24415 0.67417 0.0
C301 C 0.44824 0.26721 0.63403 0.0
C302 C 0.45359 0.23502 0.72115 0.0
C303 C 0.49003 0.24789 0.72741 0.0
C304 C 0.50653 0.26757 0.68434 0.0
C305 C 0.4856 0.27763 0.63831 0.0
C306 C 0.56464 0.24391 0.83596 0.0
C307 C 0.55049 0.26906 0.87412 0.0
C308 C 0.54365 0.23415 0.78966 0.0
C309 C 0.50789 0.24851 0.78217 0.0
C310 C 0.49236 0.27052 0.82344 0.0
C311 C 0.51371 0.28117 0.86872 0.0
H312 H 0.0039 0.80954 0.6144 0.0
H313 H 0.08952 0.73463 0.665 0.0
H314 H 0.96679 0.79267 0.69499 0.0
H315 H 0.05302 0.71906 0.74727 0.0
H316 H 0.99709 0.80473 0.89871 0.0
H317 H 0.03344 0.7876 0.81747 0.0
H318 H 0.9419 0.72308 0.75815 0.0
H319 H 0.90603 0.73882 0.84091 0.0
C320 C 0.014 0.7884 0.6416 0.0
C321 C 0.04929 0.77318 0.63359 0.0
C322 C 0.99285 0.77875 0.68754 0.0
C323 C 0.0072 0.75454 0.72679 0.0
C324 C 0.04133 0.73738 0.71692 0.0
C325 C 0.06203 0.74621 0.66994 0.0
C326 C 0.98557 0.78534 0.86981 0.0
C327 C 0.94898 0.77292 0.87594 0.0
C328 C 0.00628 0.77555 0.82348 0.0
C329 C 0.99029 0.75402 0.78205 0.0
C330 C 0.95482 0.73928 0.79013 0.0
C331 C 0.93446 0.74821 0.83743 0.0
H332 H 0.4987 0.75806 0.11234 0.0
H333 H 0.40196 0.81385 0.17458 0.0
H334 H 0.53379 0.77662 0.19396 0.0
H335 H 0.43669 0.83104 0.25762 0.0
H336 H 0.49805 0.75277 0.4025 0.0
H337 H 0.46146 0.77159 0.32247 0.0
H338 H 0.5538 0.83529 0.26384 0.0
H339 H 0.58994 0.81776 0.3454 0.0
C340 C 0.48551 0.77563 0.14236 0.0
C341 C 0.44778 0.78461 0.13732 0.0
C342 C 0.50553 0.78629 0.18898 0.0
C343 C 0.48779 0.80517 0.23188 0.0
C344 C 0.45095 0.81679 0.22474 0.0
C345 C 0.43121 0.80706 0.17722 0.0
C346 C 0.50975 0.77232 0.37405 0.0
C347 C 0.54666 0.78389 0.37997 0.0
C348 C 0.48886 0.78314 0.32836 0.0
C349 C 0.50498 0.8048 0.28719 0.0
C350 C 0.54078 0.81886 0.29541 0.0
C351 C 0.56131 0.80892 0.34209 0.0
H352 H 0.07404 0.09743 0.95114 0.0
H353 H 0.03797 0.09682 0.12105 0.0
H354 H 0.03408 0.04553 0.93204 0.0
H355 H 0.99672 0.04638 0.1017 0.0
H356 H 0.94951 0.93475 0.06297 0.0
H357 H 0.99131 0.98495 0.08332 0.0
H358 H 0.97248 0.02802 0.91965 0.0
H359 H 0.9323 0.97686 0.89876 0.0
C360 C 0.05753 0.08624 0.98439 0.0
C361 C 0.05936 0.10124 0.03762 0.0
C362 C 0.03424 0.05664 0.9734 0.0
C363 C 0.0117 0.04158 0.01516 0.0
C364 C 0.01392 0.05656 0.06852 0.0
C365 C 0.03756 0.08576 0.07963 0.0
C366 C 0.95412 0.95512 0.03154 0.0
C367 C 0.93756 0.95176 0.97926 0.0
C368 C 0.97809 0.98408 0.0432 0.0
C369 C 0.98574 1.01077 1.0031 0.0
C370 C 0.96823 1.00774 0.95128 0.0
C371 C 0.94474 0.97853 0.93942 0.0
H372 H 0.53292 0.59734 0.38762 0.0
H373 H 0.57507 0.59573 0.55448 0.0
H374 H 0.49351 0.54568 0.40793 0.0
H375 H 0.53691 0.54269 0.57439 0.0
H376 H 0.43734 0.47165 0.61191 0.0
H377 H 0.47603 0.52375 0.59048 0.0
H378 H 0.49055 0.48369 0.42409 0.0
H379 H 0.45025 0.43246 0.44515 0.0
C380 C 0.53421 0.58557 0.42854 0.0
C381 C 0.55718 0.60075 0.46945 0.0
C382 C 0.51165 0.55568 0.44018 0.0
C383 C 0.51172 0.5397 0.49294 0.0
C384 C 0.53536 0.55453 0.53358 0.0
C385 C 0.55759 0.58481 0.52209 0.0
C386 C 0.44856 0.47413 0.57059 0.0
C387 C 0.44057 0.44792 0.53019 0.0
C388 C 0.47117 0.50391 0.55839 0.0
C389 C 0.48694 0.50811 0.50558 0.0
C390 C 0.47862 0.4819 0.46501 0.0
C391 C 0.45554 0.45235 0.47707 0.0
H392 H 0.42843 0.59652 0.95535 0.0
H393 H 0.47152 0.59802 0.12167 0.0
H394 H 0.46725 0.54405 0.93441 0.0
H395 H 0.51156 0.5469 0.10034 0.0
H396 H 0.55464 0.43353 0.06174 0.0
H397 H 0.51464 0.48489 0.08374 0.0
H398 H 0.52823 0.52539 0.91749 0.0
H399 H 0.56666 0.47317 0.89512 0.0
C400 C 0.4463 0.58573 0.98738 0.0
C401 C 0.44672 0.60144 0.0402 0.0
C402 C 0.4689 0.55577 0.9753 0.0
C403 C 0.49293 0.54101 0.01553 0.0
C404 C 0.49312 0.55684 0.06841 0.0
C405 C 0.47021 0.58643 0.08063 0.0
C406 C 0.54926 0.45357 0.03006 0.0
C407 C 0.56385 0.44919 0.97669 0.0
C408 C 0.52634 0.48319 0.04266 0.0
C409 C 0.51779 0.50952 1.0024 0.0
C410 C 0.53328 0.50544 0.94937 0.0
C411 C 0.55574 0.4756 0.93662 0.0
H412 H 0.05592 0.93145 0.44357 0.0
H413 H 0.07315 0.97462 0.60718 0.0
H414 H 0.01457 0.9819 0.42223 0.0
H415 H 0.03323 0.0259 0.58535 0.0
H416 H 0.93089 0.0946 0.55201 0.0
H417 H 0.97114 0.04299 0.57215 0.0
H418 H 0.01008 0.04369 0.40331 0.0
H419 H 0.96871 0.09397 0.38292 0.0
C420 C 0.05141 0.95208 0.47466 0.0
C421 C 0.06786 0.94894 0.52707 0.0
C422 C 0.02769 0.98117 0.46244 0.0
C423 C 0.02012 1.00817 0.50211 0.0
C424 C 0.03751 1.00539 0.55404 0.0
C425 C 0.06083 0.9761 0.56643 0.0
C426 C 0.94784 0.08349 0.51916 0.0
C427 C 0.94642 0.09839 0.46584 0.0
C428 C 0.97128 0.05405 0.53077 0.0
C429 C 0.99427 0.039 0.4895 0.0
C430 C 0.99252 0.05391 0.43609 0.0
C431 C 0.96882 0.08301 0.42439 0.0
loop_
_geom_bond_atom_site_label_1
_geom_bond_atom_site_label_2
_geom_bond_distance
_geom_bond_site_symmetry_2
_ccdc_geom_bond_type
O0 Cd1 2.223 . S
O0 C8 1.315 . S
Cd1 O0 2.223 . S
Cd1 O4 2.297 1_554 S
Cd1 O5 2.439 1_554 S
Cd1 O11 2.240 . S
Cd2 O3 2.240 . S
Cd2 O10 2.223 . S
Cd2 O12 2.297 . S
Cd2 O13 2.439 . S
O3 Cd2 2.240 . S
O3 C8 1.279 . S
O4 Cd1 2.297 1_556 S
O4 C6 1.247 . S
O5 Cd1 2.439 1_556 S
O5 C6 1.208 . S
C6 O4 1.247 . S
C6 O5 1.208 . S
C7 O12 1.247 . S
C7 O13 1.208 . S
C8 O0 1.315 . S
C8 O3 1.279 . S
C9 O10 1.315 . S
C9 O11 1.279 . S
O10 Cd2 2.223 . S
O10 C9 1.315 . S
O11 Cd1 2.240 . S
O11 C9 1.279 . S
O12 Cd2 2.297 . S
O12 C7 1.247 . S
O13 Cd2 2.439 . S
O13 C7 1.208 . S
O14 Cd15 2.223 . S
O14 C22 1.315 . S
Cd15 O14 2.223 . S
Cd15 O18 2.297 . S
Cd15 O19 2.439 . S
Cd15 O25 2.240 . S
Cd16 O17 2.240 . S
Cd16 O24 2.223 . S
Cd16 O26 2.297 . S
Cd16 O27 2.439 . S
O17 Cd16 2.240 . S
O17 C22 1.279 . S
O18 Cd15 2.297 . S
O18 C20 1.247 . S
O19 Cd15 2.439 . S
O19 C20 1.208 . S
C20 O18 1.247 . S
C20 O19 1.208 . S
C21 O26 1.247 . S
C21 O27 1.208 . S
C22 O14 1.315 . S
C22 O17 1.279 . S
C23 O24 1.315 . S
C23 O25 1.279 . S
O24 Cd16 2.223 . S
O24 C23 1.315 . S
O25 Cd15 2.240 . S
O25 C23 1.279 . S
O26 Cd16 2.297 . S
O26 C21 1.247 . S
O27 Cd16 2.439 . S
O27 C21 1.208 . S
O28 Cd29 2.223 . S
O28 C36 1.315 . S
Cd29 O28 2.223 . S
Cd29 O32 2.297 1_556 S
Cd29 O33 2.439 1_556 S
Cd29 O39 2.240 . S
Cd30 O31 2.240 . S
Cd30 O38 2.223 . S
Cd30 O40 2.297 . S
Cd30 O41 2.439 . S
O31 Cd30 2.240 . S
O31 C36 1.279 . S
O32 Cd29 2.297 1_554 S
O32 C34 1.247 . S
O33 Cd29 2.439 1_554 S
O33 C34 1.208 . S
C34 O32 1.247 . S
C34 O33 1.208 . S
C35 O40 1.247 . S
C35 O41 1.208 . S
C36 O28 1.315 . S
C36 O31 1.279 . S
C37 O38 1.315 . S
C37 O39 1.279 . S
O38 Cd30 2.223 . S
O38 C37 1.315 . S
O39 Cd29 2.240 . S
O39 C37 1.279 . S
O40 Cd30 2.297 . S
O40 C35 1.247 . S
O41 Cd30 2.439 . S
O41 C35 1.208 . S
O42 Cd43 2.223 . S
O42 C50 1.315 . S
Cd43 O42 2.223 . S
Cd43 O46 2.297 . S
Cd43 O47 2.439 . S
Cd43 O53 2.240 . S
Cd44 O45 2.240 . S
Cd44 O52 2.223 . S
Cd44 O54 2.297 . S
Cd44 O55 2.439 . S
O45 Cd44 2.240 . S
O45 C50 1.279 . S
O46 Cd43 2.297 . S
O46 C48 1.247 . S
O47 Cd43 2.439 . S
O47 C48 1.208 . S
C48 O46 1.247 . S
C48 O47 1.208 . S
C49 O54 1.247 . S
C49 O55 1.208 . S
C50 O42 1.315 . S
C50 O45 1.279 . S
C51 O52 1.315 . S
C51 O53 1.279 . S
O52 Cd44 2.223 . S
O52 C51 1.315 . S
O53 Cd43 2.240 . S
O53 C51 1.279 . S
O54 Cd44 2.297 . S
O54 C49 1.247 . S
O55 Cd44 2.439 . S
O55 C49 1.208 . S
O56 Cd57 2.223 . S
O56 C64 1.315 . S
Cd57 O56 2.223 . S
Cd57 O60 2.297 1_556 S
Cd57 O61 2.439 1_556 S
Cd57 O67 2.240 . S
Cd58 O59 2.240 . S
Cd58 O66 2.223 . S
Cd58 O68 2.297 . S
Cd58 O69 2.439 . S
O59 Cd58 2.240 . S
O59 C64 1.279 . S
O60 Cd57 2.297 1_554 S
O60 C62 1.247 . S
O61 Cd57 2.439 1_554 S
O61 C62 1.208 . S
C62 O60 1.247 . S
C62 O61 1.208 . S
C63 O68 1.247 . S
C63 O69 1.208 . S
C64 O56 1.315 . S
C64 O59 1.279 . S
C65 O66 1.315 . S
C65 O67 1.279 . S
O66 Cd58 2.223 . S
O66 C65 1.315 . S
O67 Cd57 2.240 . S
O67 C65 1.279 . S
O68 Cd58 2.297 . S
O68 C63 1.247 . S
O69 Cd58 2.439 . S
O69 C63 1.208 . S
O70 Cd71 2.223 . S
O70 C78 1.315 . S
Cd71 O70 2.223 . S
Cd71 O74 2.297 . S
Cd71 O75 2.439 . S
Cd71 O81 2.240 . S
Cd72 O73 2.240 . S
Cd72 O80 2.223 . S
Cd72 O82 2.297 . S
Cd72 O83 2.439 . S
O73 Cd72 2.240 . S
O73 C78 1.279 . S
O74 Cd71 2.297 . S
O74 C76 1.247 . S
O75 Cd71 2.439 . S
O75 C76 1.208 . S
C76 O74 1.247 . S
C76 O75 1.208 . S
C77 O82 1.247 . S
C77 O83 1.208 . S
C78 O70 1.315 . S
C78 O73 1.279 . S
C79 O80 1.315 . S
C79 O81 1.279 . S
O80 Cd72 2.223 . S
O80 C79 1.315 . S
O81 Cd71 2.240 . S
O81 C79 1.279 . S
O82 Cd72 2.297 . S
O82 C77 1.247 . S
O83 Cd72 2.439 . S
O83 C77 1.208 . S
O84 Cd85 2.223 . S
O84 C92 1.315 . S
Cd85 O84 2.223 . S
Cd85 O88 2.297 1_554 S
Cd85 O89 2.439 1_554 S
Cd85 O95 2.240 . S
Cd86 O87 2.240 . S
Cd86 O94 2.223 . S
Cd86 O96 2.297 . S
Cd86 O97 2.439 . S
O87 Cd86 2.240 . S
O87 C92 1.279 . S
O88 Cd85 2.297 1_556 S
O88 C90 1.247 . S
O89 Cd85 2.439 1_556 S
O89 C90 1.208 . S
C90 O88 1.247 . S
C90 O89 1.208 . S
C91 O96 1.247 . S
C91 O97 1.208 . S
C92 O84 1.315 . S
C92 O87 1.279 . S
C93 O94 1.315 . S
C93 O95 1.279 . S
O94 Cd86 2.223 . S
O94 C93 1.315 . S
O95 Cd85 2.240 . S
O95 C93 1.279 . S
O96 Cd86 2.297 . S
O96 C91 1.247 . S
O97 Cd86 2.439 . S
O97 C91 1.208 . S
O98 Cd99 2.223 . S
O98 C106 1.315 . S
Cd99 O98 2.223 . S
Cd99 O102 2.297 . S
Cd99 O103 2.439 . S
Cd99 O109 2.240 . S
Cd100 O101 2.240 . S
Cd100 O108 2.223 . S
Cd100 O110 2.297 . S
Cd100 O111 2.439 . S
O101 Cd100 2.240 . S
O101 C106 1.279 . S
O102 Cd99 2.297 . S
O102 C104 1.247 . S
O103 Cd99 2.439 . S
O103 C104 1.208 . S
C104 O102 1.247 . S
C104 O103 1.208 . S
C105 O110 1.247 . S
C105 O111 1.208 . S
C106 O98 1.315 . S
C106 O101 1.279 . S
C107 O108 1.315 . S
C107 O109 1.279 . S
O108 Cd100 2.223 . S
O108 C107 1.315 . S
O109 Cd99 2.240 . S
O109 C107 1.279 . S
O110 Cd100 2.297 . S
O110 C105 1.247 . S
O111 Cd100 2.439 . S
O111 C105 1.208 . S
H112 C120 0.950 . S
H113 C125 0.950 . S
H114 C122 0.950 . S
H115 C124 0.950 . S
H116 C126 0.950 . S
H117 C128 0.950 . S
H118 C130 0.950 . S
H119 C131 0.950 . S
C120 H112 0.950 . S
C120 C121 1.386 . S
C120 C122 1.391 . S
C121 C120 1.386 . S
C121 C125 1.393 . S
C122 H114 0.950 . S
C122 C120 1.391 . S
C122 C123 1.400 . S
C123 C122 1.400 . S
C123 C124 1.398 . S
C123 C129 1.491 . S
C124 H115 0.950 . S
C124 C123 1.398 . S
C124 C125 1.391 . S
C125 H113 0.950 . S
C125 C121 1.393 . S
C125 C124 1.391 . S
C126 H116 0.950 . S
C126 C127 1.386 . S
C126 C128 1.391 . S
C127 C126 1.386 . S
C127 C131 1.393 . S
C128 H117 0.950 . S
C128 C126 1.391 . S
C128 C129 1.400 . S
C129 C123 1.491 . S
C129 C128 1.400 . S
C129 C130 1.398 . S
C130 H118 0.950 . S
C130 C129 1.398 . S
C130 C131 1.391 . S
C131 H119 0.950 . S
C131 C127 1.393 . S
C131 C130 1.391 . S
H132 C140 0.950 . S
H133 C145 0.950 . S
H134 C142 0.950 . S
H135 C144 0.950 . S
H136 C146 0.950 . S
H137 C148 0.950 . S
H138 C150 0.950 . S
H139 C151 0.950 . S
C140 H132 0.950 . S
C140 C141 1.386 . S
C140 C142 1.391 . S
C141 C140 1.386 . S
C141 C145 1.393 . S
C142 H134 0.950 . S
C142 C140 1.391 . S
C142 C143 1.400 . S
C143 C142 1.400 . S
C143 C144 1.398 . S
C143 C149 1.491 . S
C144 H135 0.950 . S
C144 C143 1.398 . S
C144 C145 1.391 . S
C145 H133 0.950 . S
C145 C141 1.393 . S
C145 C144 1.391 . S
C146 H136 0.950 . S
C146 C147 1.386 . S
C146 C148 1.391 . S
C147 C146 1.386 . S
C147 C151 1.393 . S
C148 H137 0.950 . S
C148 C146 1.391 . S
C148 C149 1.400 . S
C149 C143 1.491 . S
C149 C148 1.400 . S
C149 C150 1.398 . S
C150 H138 0.950 . S
C150 C149 1.398 . S
C150 C151 1.391 . S
C151 H139 0.950 . S
C151 C147 1.393 . S
C151 C150 1.391 . S
H152 C160 0.950 . S
H153 C165 0.950 . S
H154 C162 0.950 . S
H155 C164 0.950 . S
H156 C166 0.950 . S
H157 C168 0.950 . S
H158 C170 0.950 . S
H159 C171 0.950 . S
C160 H152 0.950 . S
C160 C161 1.386 . S
C160 C162 1.391 . S
C161 C160 1.386 . S
C161 C165 1.393 . S
C162 H154 0.950 . S
C162 C160 1.391 . S
C162 C163 1.400 . S
C163 C162 1.400 . S
C163 C164 1.398 . S
C163 C169 1.491 . S
C164 H155 0.950 . S
C164 C163 1.398 . S
C164 C165 1.391 . S
C165 H153 0.950 . S
C165 C161 1.393 . S
C165 C164 1.391 . S
C166 H156 0.950 . S
C166 C167 1.386 . S
C166 C168 1.391 . S
C167 C166 1.386 . S
C167 C171 1.393 . S
C168 H157 0.950 . S
C168 C166 1.391 . S
C168 C169 1.400 . S
C169 C163 1.491 . S
C169 C168 1.400 . S
C169 C170 1.398 . S
C170 H158 0.950 . S
C170 C169 1.398 . S
C170 C171 1.391 . S
C171 H159 0.950 . S
C171 C167 1.393 . S
C171 C170 1.391 . S
H172 C180 0.950 . S
H173 C185 0.950 . S
H174 C182 0.950 . S
H175 C184 0.950 . S
H176 C186 0.950 . S
H177 C188 0.950 . S
H178 C190 0.950 . S
H179 C191 0.950 . S
C180 H172 0.950 . S
C180 C181 1.386 . S
C180 C182 1.391 . S
C181 C180 1.386 . S
C181 C185 1.393 . S
C182 H174 0.950 . S
C182 C180 1.391 . S
C182 C183 1.400 . S
C183 C182 1.400 . S
C183 C184 1.398 . S
C183 C189 1.491 . S
C184 H175 0.950 . S
C184 C183 1.398 . S
C184 C185 1.391 . S
C185 H173 0.950 . S
C185 C181 1.393 . S
C185 C184 1.391 . S
C186 H176 0.950 . S
C186 C187 1.386 . S
C186 C188 1.391 . S
C187 C186 1.386 . S
C187 C191 1.393 . S
C188 H177 0.950 . S
C188 C186 1.391 . S
C188 C189 1.400 . S
C189 C183 1.491 . S
C189 C188 1.400 . S
C189 C190 1.398 . S
C190 H178 0.950 . S
C190 C189 1.398 . S
C190 C191 1.391 . S
C191 H179 0.950 . S
C191 C187 1.393 . S
C191 C190 1.391 . S
H192 C200 0.950 . S
H193 C205 0.950 . S
H194 C202 0.950 . S
H195 C204 0.950 . S
H196 C206 0.950 . S
H197 C208 0.950 . S
H198 C210 0.950 . S
H199 C211 0.950 . S
C200 H192 0.950 . S
C200 C201 1.386 . S
C200 C202 1.391 . S
C201 C200 1.386 . S
C201 C205 1.393 . S
C202 H194 0.950 . S
C202 C200 1.391 . S
C202 C203 1.400 . S
C203 C202 1.400 . S
C203 C204 1.398 . S
C203 C209 1.491 . S
C204 H195 0.950 . S
C204 C203 1.398 . S
C204 C205 1.391 . S
C205 H193 0.950 . S
C205 C201 1.393 . S
C205 C204 1.391 . S
C206 H196 0.950 . S
C206 C207 1.386 . S
C206 C208 1.391 . S
C207 C206 1.386 . S
C207 C211 1.393 . S
C208 H197 0.950 . S
C208 C206 1.391 . S
C208 C209 1.400 . S
C209 C203 1.491 . S
C209 C208 1.400 . S
C209 C210 1.398 . S
C210 H198 0.950 . S
C210 C209 1.398 . S
C210 C211 1.391 . S
C211 H199 0.950 . S
C211 C207 1.393 . S
C211 C210 1.391 . S
H212 C220 0.950 . S
H213 C225 0.950 . S
H214 C222 0.950 . S
H215 C224 0.950 . S
H216 C226 0.950 . S
H217 C228 0.950 . S
H218 C230 0.950 . S
H219 C231 0.950 . S
C220 H212 0.950 . S
C220 C221 1.386 . S
C220 C222 1.391 . S
C221 C220 1.386 . S
C221 C225 1.393 . S
C222 H214 0.950 . S
C222 C220 1.391 . S
C222 C223 1.400 . S
C223 C222 1.400 . S
C223 C224 1.398 . S
C223 C229 1.491 . S
C224 H215 0.950 . S
C224 C223 1.398 . S
C224 C225 1.391 . S
C225 H213 0.950 . S
C225 C221 1.393 . S
C225 C224 1.391 . S
C226 H216 0.950 . S
C226 C227 1.386 . S
C226 C228 1.391 . S
C227 C226 1.386 . S
C227 C231 1.393 . S
C228 H217 0.950 . S
C228 C226 1.391 . S
C228 C229 1.400 . S
C229 C223 1.491 . S
C229 C228 1.400 . S
C229 C230 1.398 . S
C230 H218 0.950 . S
C230 C229 1.398 . S
C230 C231 1.391 . S
C231 H219 0.950 . S
C231 C227 1.393 . S
C231 C230 1.391 . S
H232 C240 0.950 . S
H233 C245 0.950 . S
H234 C242 0.950 . S
H235 C244 0.950 . S
H236 C246 0.950 . S
H237 C248 0.950 . S
H238 C250 0.950 . S
H239 C251 0.950 . S
C240 H232 0.950 . S
C240 C241 1.386 . S
C240 C242 1.391 . S
C241 C240 1.386 . S
C241 C245 1.393 . S
C242 H234 0.950 . S
C242 C240 1.391 . S
C242 C243 1.400 . S
C243 C242 1.400 . S
C243 C244 1.398 . S
C243 C249 1.491 . S
C244 H235 0.950 . S
C244 C243 1.398 . S
C244 C245 1.391 . S
C245 H233 0.950 . S
C245 C241 1.393 . S
C245 C244 1.391 . S
C246 H236 0.950 . S
C246 C247 1.386 . S
C246 C248 1.391 . S
C247 C246 1.386 . S
C247 C251 1.393 . S
C248 H237 0.950 . S
C248 C246 1.391 . S
C248 C249 1.400 . S
C249 C243 1.491 . S
C249 C248 1.400 . S
C249 C250 1.398 . S
C250 H238 0.950 . S
C250 C249 1.398 . S
C250 C251 1.391 . S
C251 H239 0.950 . S
C251 C247 1.393 . S
C251 C250 1.391 . S
H252 C260 0.950 . S
H253 C265 0.950 . S
H254 C262 0.950 . S
H255 C264 0.950 . S
H256 C266 0.950 . S
H257 C268 0.950 . S
H258 C270 0.950 . S
H259 C271 0.950 . S
C260 H252 0.950 . S
C260 C261 1.386 . S
C260 C262 1.391 . S
C261 C260 1.386 . S
C261 C265 1.393 . S
C262 H254 0.950 . S
C262 C260 1.391 . S
C262 C263 1.400 . S
C263 C262 1.400 . S
C263 C264 1.398 . S
C263 C269 1.491 . S
C264 H255 0.950 . S
C264 C263 1.398 . S
C264 C265 1.391 . S
C265 H253 0.950 . S
C265 C261 1.393 . S
C265 C264 1.391 . S
C266 H256 0.950 . S
C266 C267 1.386 . S
C266 C268 1.391 . S
C267 C266 1.386 . S
C267 C271 1.393 . S
C268 H257 0.950 . S
C268 C266 1.391 . S
C268 C269 1.400 . S
C269 C263 1.491 . S
C269 C268 1.400 . S
C269 C270 1.398 . S
C270 H258 0.950 . S
C270 C269 1.398 . S
C270 C271 1.391 . S
C271 H259 0.950 . S
C271 C267 1.393 . S
C271 C270 1.391 . S
H272 C280 0.950 . S
H273 C285 0.950 . S
H274 C282 0.950 . S
H275 C284 0.950 . S
H276 C286 0.950 . S
H277 C288 0.950 . S
H278 C290 0.950 . S
H279 C291 0.950 . S
C280 H272 0.950 . S
C280 C281 1.386 . S
C280 C282 1.391 1_455 S
C281 C280 1.386 . S
C281 C285 1.393 . S
C282 H274 0.950 . S
C282 C280 1.391 1_655 S
C282 C283 1.400 1_655 S
C283 C282 1.400 1_455 S
C283 C284 1.398 . S
C283 C289 1.491 1_455 S
C284 H275 0.950 . S
C284 C283 1.398 . S
C284 C285 1.391 . S
C285 H273 0.950 . S
C285 C281 1.393 . S
C285 C284 1.391 . S
C286 H276 0.950 . S
C286 C287 1.386 . S
C286 C288 1.391 1_655 S
C287 C286 1.386 . S
C287 C291 1.393 . S
C288 H277 0.950 . S
C288 C286 1.391 1_455 S
C288 C289 1.400 1_455 S
C289 C283 1.491 1_655 S
C289 C288 1.400 1_655 S
C289 C290 1.398 . S
C290 H278 0.950 . S
C290 C289 1.398 . S
C290 C291 1.391 . S
C291 H279 0.950 . S
C291 C287 1.393 . S
C291 C290 1.391 . S
H292 C300 0.950 . S
H293 C305 0.950 . S
H294 C302 0.950 . S
H295 C304 0.950 . S
H296 C306 0.950 . S
H297 C308 0.950 . S
H298 C310 0.950 . S
H299 C311 0.950 . S
C300 H292 0.950 . S
C300 C301 1.386 . S
C300 C302 1.391 . S
C301 C300 1.386 . S
C301 C305 1.393 . S
C302 H294 0.950 . S
C302 C300 1.391 . S
C302 C303 1.400 . S
C303 C302 1.400 . S
C303 C304 1.398 . S
C303 C309 1.491 . S
C304 H295 0.950 . S
C304 C303 1.398 . S
C304 C305 1.391 . S
C305 H293 0.950 . S
C305 C301 1.393 . S
C305 C304 1.391 . S
C306 H296 0.950 . S
C306 C307 1.386 . S
C306 C308 1.391 . S
C307 C306 1.386 . S
C307 C311 1.393 . S
C308 H297 0.950 . S
C308 C306 1.391 . S
C308 C309 1.400 . S
C309 C303 1.491 . S
C309 C308 1.400 . S
C309 C310 1.398 . S
C310 H298 0.950 . S
C310 C309 1.398 . S
C310 C311 1.391 . S
C311 H299 0.950 . S
C311 C307 1.393 . S
C311 C310 1.391 . S
H312 C320 0.950 . S
H313 C325 0.950 . S
H314 C322 0.950 . S
H315 C324 0.950 . S
H316 C326 0.950 . S
H317 C328 0.950 . S
H318 C330 0.950 . S
H319 C331 0.950 . S
C320 H312 0.950 . S
C320 C321 1.386 . S
C320 C322 1.391 1_455 S
C321 C320 1.386 . S
C321 C325 1.393 . S
C322 H314 0.950 . S
C322 C320 1.391 1_655 S
C322 C323 1.400 1_655 S
C323 C322 1.400 1_455 S
C323 C324 1.398 . S
C323 C329 1.491 1_455 S
C324 H315 0.950 . S
C324 C323 1.398 . S
C324 C325 1.391 . S
C325 H313 0.950 . S
C325 C321 1.393 . S
C325 C324 1.391 . S
C326 H316 0.950 . S
C326 C327 1.386 . S
C326 C328 1.391 1_655 S
C327 C326 1.386 . S
C327 C331 1.393 . S
C328 H317 0.950 . S
C328 C326 1.391 1_455 S
C328 C329 1.400 1_455 S
C329 C323 1.491 1_655 S
C329 C328 1.400 1_655 S
C329 C330 1.398 . S
C330 H318 0.950 . S
C330 C329 1.398 . S
C330 C331 1.391 . S
C331 H319 0.950 . S
C331 C327 1.393 . S
C331 C330 1.391 . S
H332 C340 0.950 . S
H333 C345 0.950 . S
H334 C342 0.950 . S
H335 C344 0.950 . S
H336 C346 0.950 . S
H337 C348 0.950 . S
H338 C350 0.950 . S
H339 C351 0.950 . S
C340 H332 0.950 . S
C340 C341 1.386 . S
C340 C342 1.391 . S
C341 C340 1.386 . S
C341 C345 1.393 . S
C342 H334 0.950 . S
C342 C340 1.391 . S
C342 C343 1.400 . S
C343 C342 1.400 . S
C343 C344 1.398 . S
C343 C349 1.491 . S
C344 H335 0.950 . S
C344 C343 1.398 . S
C344 C345 1.391 . S
C345 H333 0.950 . S
C345 C341 1.393 . S
C345 C344 1.391 . S
C346 H336 0.950 . S
C346 C347 1.386 . S
C346 C348 1.391 . S
C347 C346 1.386 . S
C347 C351 1.393 . S
C348 H337 0.950 . S
C348 C346 1.391 . S
C348 C349 1.400 . S
C349 C343 1.491 . S
C349 C348 1.400 . S
C349 C350 1.398 . S
C350 H338 0.950 . S
C350 C349 1.398 . S
C350 C351 1.391 . S
C351 H339 0.950 . S
C351 C347 1.393 . S
C351 C350 1.391 . S
H352 C360 0.949 1_556 S
H353 C365 0.950 . S
H354 C362 0.950 . S
H355 C364 0.950 1_565 S
H356 C366 0.949 1_554 S
H357 C368 0.950 . S
H358 C370 0.950 1_545 S
H359 C371 0.950 . S
C360 H352 0.949 1_554 S
C360 C361 1.386 . S
C360 C362 1.391 1_454 S
C361 C360 1.386 . S
C361 C365 1.393 . S
C362 H354 0.950 . S
C362 C360 1.391 1_656 S
C362 C363 1.400 1_656 S
C363 C362 1.400 1_454 S
C363 C364 1.398 . S
C363 C369 1.491 1_444 S
C364 H355 0.950 1_545 S
C364 C363 1.398 . S
C364 C365 1.391 . S
C365 H353 0.950 . S
C365 C361 1.393 . S
C365 C364 1.391 . S
C366 H356 0.949 1_556 S
C366 C367 1.386 . S
C366 C368 1.391 1_656 S
C367 C366 1.386 . S
C367 C371 1.393 . S
C368 H357 0.950 . S
C368 C366 1.391 1_454 S
C368 C369 1.400 1_454 S
C369 C363 1.491 1_666 S
C369 C368 1.400 1_656 S
C369 C370 1.398 . S
C370 H358 0.950 1_565 S
C370 C369 1.398 . S
C370 C371 1.391 . S
C371 H359 0.950 . S
C371 C367 1.393 . S
C371 C370 1.391 . S
H372 C380 0.950 . S
H373 C385 0.950 . S
H374 C382 0.950 . S
H375 C384 0.950 . S
H376 C386 0.950 . S
H377 C388 0.950 . S
H378 C390 0.950 . S
H379 C391 0.950 . S
C380 H372 0.950 . S
C380 C381 1.386 . S
C380 C382 1.391 . S
C381 C380 1.386 . S
C381 C385 1.393 . S
C382 H374 0.950 . S
C382 C380 1.391 . S
C382 C383 1.400 . S
C383 C382 1.400 . S
C383 C384 1.398 . S
C383 C389 1.491 . S
C384 H375 0.950 . S
C384 C383 1.398 . S
C384 C385 1.391 . S
C385 H373 0.950 . S
C385 C381 1.393 . S
C385 C384 1.391 . S
C386 H376 0.950 . S
C386 C387 1.386 . S
C386 C388 1.391 . S
C387 C386 1.386 . S
C387 C391 1.393 . S
C388 H377 0.950 . S
C388 C386 1.391 . S
C388 C389 1.400 . S
C389 C383 1.491 . S
C389 C388 1.400 . S
C389 C390 1.398 . S
C390 H378 0.950 . S
C390 C389 1.398 . S
C390 C391 1.391 . S
C391 H379 0.950 . S
C391 C387 1.393 . S
C391 C390 1.391 . S
H392 C400 0.950 . S
H393 C405 0.950 . S
H394 C402 0.950 . S
H395 C404 0.950 . S
H396 C406 0.950 . S
H397 C408 0.950 . S
H398 C410 0.950 . S
H399 C411 0.950 . S
C400 H392 0.950 . S
C400 C401 1.386 1_556 S
C400 C402 1.391 . S
C401 C400 1.386 1_554 S
C401 C405 1.393 . S
C402 H394 0.950 . S
C402 C400 1.391 . S
C402 C403 1.400 1_556 S
C403 C402 1.400 1_554 S
C403 C404 1.398 . S
C403 C409 1.491 1_554 S
C404 H395 0.950 . S
C404 C403 1.398 . S
C404 C405 1.391 . S
C405 H393 0.950 . S
C405 C401 1.393 . S
C405 C404 1.391 . S
C406 H396 0.950 . S
C406 C407 1.386 1_554 S
C406 C408 1.391 . S
C407 C406 1.386 1_556 S
C407 C411 1.393 . S
C408 H397 0.950 . S
C408 C406 1.391 . S
C408 C409 1.400 1_554 S
C409 C403 1.491 1_556 S
C409 C408 1.400 1_556 S
C409 C410 1.398 . S
C410 H398 0.950 . S
C410 C409 1.398 . S
C410 C411 1.391 . S
C411 H399 0.950 . S
C411 C407 1.393 . S
C411 C410 1.391 . S
H412 C420 0.950 . S
H413 C425 0.950 . S
H414 C422 0.950 1_655 S
H415 C424 0.951 1_545 S
H416 C426 0.950 . S
H417 C428 0.950 1_455 S
H418 C430 0.951 1_565 S
H419 C431 0.950 . S
C420 H412 0.950 . S
C420 C421 1.386 . S
C420 C422 1.391 . S
C421 C420 1.386 . S
C421 C425 1.393 . S
C422 H414 0.950 1_455 S
C422 C420 1.391 . S
C422 C423 1.400 . S
C423 C422 1.400 . S
C423 C424 1.398 . S
C423 C429 1.491 1_465 S
C424 H415 0.951 1_565 S
C424 C423 1.398 . S
C424 C425 1.391 . S
C425 H413 0.950 . S
C425 C421 1.393 . S
C425 C424 1.391 . S
C426 H416 0.950 . S
C426 C427 1.386 . S
C426 C428 1.391 . S
C427 C426 1.386 . S
C427 C431 1.393 . S
C428 H417 0.950 1_655 S
C428 C426 1.391 . S
C428 C429 1.400 . S
C429 C423 1.491 1_645 S
C429 C428 1.400 . S
C429 C430 1.398 . S
C430 H418 0.951 1_545 S
C430 C429 1.398 . S
C430 C431 1.391 . S
C431 H419 0.950 . S
C431 C427 1.393 . S
C431 C430 1.391 . S
C121 C22 1.629 . S
C127 C6 1.636 . S
C141 C8 1.627 . S
C147 C20 1.635 . S
C161 C50 1.628 . S
C167 C34 1.637 . S
C181 C36 1.638 . S
C187 C48 1.642 . S
C201 C62 1.643 . S
C207 C78 1.638 . S
C221 C76 1.643 . S
C227 C64 1.638 . S
C241 C90 1.643 . S
C247 C106 1.638 . S
C261 C92 1.637 . S
C267 C104 1.641 . S
C281 C9 0.526 . S
C287 C51 0.600 . S
C301 C23 0.601 . S
C307 C37 0.556 . S
C321 C107 0.599 . S
C327 C65 0.524 . S
C341 C93 0.604 . S
C347 C79 0.532 . S
C361 C7 1.517 . S
C367 C63 1.517 . S
C381 C77 1.493 . S
C387 C21 1.493 . S
C401 C91 1.515 . S
C407 C35 1.515 . S
C421 C105 1.495 . S
C427 C49 1.496 . S
