# Generated by pormake.
# Topology ukt, (4)-cn, num edge types: 1
# Building blocks:
#     Node 0, Type 0, BuildingBlock: CEKHIL_clean_sbu_0, # of connection points: 4
#     Node 1, Type 0, BuildingBlock: CEKHIL_clean_sbu_0, # of connection points: 4
#     Node 2, Type 0, BuildingBlock: CEKHIL_clean_sbu_0, # of connection points: 4
#     Node 3, Type 0, BuildingBlock: CEKHIL_clean_sbu_0, # of connection points: 4
#     Node 4, Type 0, BuildingBlock: CEKHIL_clean_sbu_0, # of connection points: 4
#     Node 5, Type 0, BuildingBlock: CEKHIL_clean_sbu_0, # of connection points: 4
#     Node 6, Type 0, BuildingBlock: CEKHIL_clean_sbu_0, # of connection points: 4
#     Node 7, Type 0, BuildingBlock: CEKHIL_clean_sbu_0, # of connection points: 4
#     Node 8, Type 0, BuildingBlock: CEKHIL_clean_sbu_0, # of connection points: 4
#     Node 9, Type 0, BuildingBlock: CEKHIL_clean_sbu_0, # of connection points: 4
#     Node 10, Type 0, BuildingBlock: CEKHIL_clean_sbu_0, # of connection points: 4
#     Node 11, Type 0, BuildingBlock: CEKHIL_clean_sbu_0, # of connection points: 4
#     Node 12, Type 0, BuildingBlock: CEKHIL_clean_sbu_0, # of connection points: 4
#     Node 13, Type 0, BuildingBlock: CEKHIL_clean_sbu_0, # of connection points: 4
#     Node 14, Type 0, BuildingBlock: CEKHIL_clean_sbu_0, # of connection points: 4
#     Node 15, Type 0, BuildingBlock: CEKHIL_clean_sbu_0, # of connection points: 4
#     Edge 16, Type (0, 0), BuildingBlock: KIFKEQ_clean_linker_1, # of connection points: 2
#     Edge 17, Type (0, 0), BuildingBlock: KIFKEQ_clean_linker_1, # of connection points: 2
#     Edge 18, Type (0, 0), BuildingBlock: KIFKEQ_clean_linker_1, # of connection points: 2
#     Edge 19, Type (0, 0), BuildingBlock: KIFKEQ_clean_linker_1, # of connection points: 2
#     Edge 20, Type (0, 0), BuildingBlock: KIFKEQ_clean_linker_1, # of connection points: 2
#     Edge 21, Type (0, 0), BuildingBlock: KIFKEQ_clean_linker_1, # of connection points: 2
#     Edge 22, Type (0, 0), BuildingBlock: KIFKEQ_clean_linker_1, # of connection points: 2
#     Edge 23, Type (0, 0), BuildingBlock: KIFKEQ_clean_linker_1, # of connection points: 2
#     Edge 24, Type (0, 0), BuildingBlock: KIFKEQ_clean_linker_1, # of connection points: 2
#     Edge 25, Type (0, 0), BuildingBlock: KIFKEQ_clean_linker_1, # of connection points: 2
#     Edge 26, Type (0, 0), BuildingBlock: KIFKEQ_clean_linker_1, # of connection points: 2
#     Edge 27, Type (0, 0), BuildingBlock: KIFKEQ_clean_linker_1, # of connection points: 2
#     Edge 28, Type (0, 0), BuildingBlock: KIFKEQ_clean_linker_1, # of connection points: 2
#     Edge 29, Type (0, 0), BuildingBlock: KIFKEQ_clean_linker_1, # of connection points: 2
#     Edge 30, Type (0, 0), BuildingBlock: KIFKEQ_clean_linker_1, # of connection points: 2
#     Edge 31, Type (0, 0), BuildingBlock: KIFKEQ_clean_linker_1, # of connection points: 2
#     Edge 32, Type (0, 0), BuildingBlock: KIFKEQ_clean_linker_1, # of connection points: 2
#     Edge 33, Type (0, 0), BuildingBlock: KIFKEQ_clean_linker_1, # of connection points: 2
#     Edge 34, Type (0, 0), BuildingBlock: KIFKEQ_clean_linker_1, # of connection points: 2
#     Edge 35, Type (0, 0), BuildingBlock: KIFKEQ_clean_linker_1, # of connection points: 2
#     Edge 36, Type (0, 0), BuildingBlock: KIFKEQ_clean_linker_1, # of connection points: 2
#     Edge 37, Type (0, 0), BuildingBlock: KIFKEQ_clean_linker_1, # of connection points: 2
#     Edge 38, Type (0, 0), BuildingBlock: KIFKEQ_clean_linker_1, # of connection points: 2
#     Edge 39, Type (0, 0), BuildingBlock: KIFKEQ_clean_linker_1, # of connection points: 2
#     Edge 40, Type (0, 0), BuildingBlock: KIFKEQ_clean_linker_1, # of connection points: 2
#     Edge 41, Type (0, 0), BuildingBlock: KIFKEQ_clean_linker_1, # of connection points: 2
#     Edge 42, Type (0, 0), BuildingBlock: KIFKEQ_clean_linker_1, # of connection points: 2
#     Edge 43, Type (0, 0), BuildingBlock: KIFKEQ_clean_linker_1, # of connection points: 2
#     Edge 44, Type (0, 0), BuildingBlock: KIFKEQ_clean_linker_1, # of connection points: 2
#     Edge 45, Type (0, 0), BuildingBlock: KIFKEQ_clean_linker_1, # of connection points: 2
#     Edge 46, Type (0, 0), BuildingBlock: KIFKEQ_clean_linker_1, # of connection points: 2
#     Edge 47, Type (0, 0), BuildingBlock: KIFKEQ_clean_linker_1, # of connection points: 2
# Relax obj value: 0.283
# Max RMSD: 0.165
# Mean RMSD: 0.165
data_MOF--net-ukt--node1-CEKHIL_clean_sbu_0--edge1-KIFKEQ_clean_linker_1
_symmetry_space_group_name_H-M    P1
_symmetry_Int_Tables_number       1
_symmetry_cell_setting            triclinic
loop_
_symmetry_equiv_pos_as_xyz
'x, y, z'
_cell_length_a     42.550668
_cell_length_b     42.550475
_cell_length_c     35.003782
_cell_angle_alpha  89.964448
_cell_angle_beta   90.025282
_cell_angle_gamma 90.009808
loop_
_atom_site_label
_atom_site_type_symbol
_atom_site_fract_x
_atom_site_fract_y
_atom_site_fract_z
_atom_type_partial_charge
Co0 Co 0.54287 0.14329 0.09453 0.0
O1 O 0.53159 0.10062 0.10593 0.0
O2 O 0.52092 0.12536 0.05162 0.0
C3 C 0.52856 0.16522 0.15037 0.0
O4 O 0.55065 0.18679 0.0727 0.0
Co5 Co 0.5957 0.17624 0.14109 0.0
O6 O 0.58083 0.21443 0.11347 0.0
C7 C 0.61232 0.12848 0.08402 0.0
C8 C 0.52032 0.09949 0.07145 0.0
C9 C 0.56393 0.21244 0.08346 0.0
O10 O 0.58373 0.12835 0.07229 0.0
O11 O 0.62153 0.14366 0.11356 0.0
O12 O 0.50746 0.1598 0.12425 0.0
O13 O 0.55611 0.15393 0.1435 0.0
Co14 Co 0.35335 0.54326 0.0925 0.0
O15 O 0.39562 0.5311 0.10484 0.0
O16 O 0.37165 0.52154 0.04973 0.0
C17 C 0.33013 0.52866 0.14746 0.0
O18 O 0.31035 0.55192 0.06951 0.0
Co19 Co 0.32038 0.59611 0.13877 0.0
O20 O 0.28282 0.58345 0.10868 0.0
C21 C 0.369 0.61282 0.08265 0.0
C22 C 0.39716 0.52027 0.07018 0.0
C23 C 0.28494 0.56638 0.07884 0.0
O24 O 0.36961 0.58409 0.07142 0.0
O25 O 0.35277 0.62209 0.11132 0.0
O26 O 0.33571 0.50779 0.12113 0.0
O27 O 0.34198 0.55612 0.1414 0.0
Co28 Co 0.95933 0.354 0.09127 0.0
O29 O 0.9722 0.39631 0.10188 0.0
O30 O 0.98174 0.37073 0.04792 0.0
C31 C 0.97298 0.33201 0.14744 0.0
O32 O 0.94985 0.31054 0.07039 0.0
Co33 Co 0.90514 0.32434 0.1389 0.0
O34 O 0.91637 0.28567 0.10994 0.0
C35 C 0.8905 0.37173 0.08078 0.0
C36 C 0.98331 0.39677 0.06731 0.0
C37 C 0.93406 0.28613 0.0805 0.0
O38 O 0.91895 0.37015 0.06876 0.0
O39 O 0.88083 0.35781 0.111 0.0
O40 O 0.9942 0.33647 0.1212 0.0
O41 O 0.94592 0.34441 0.14052 0.0
Co42 Co 0.14579 0.95807 0.09295 0.0
O43 O 0.10341 0.97263 0.10055 0.0
O44 O 0.13144 0.97914 0.04767 0.0
C45 C 0.16639 0.97299 0.14937 0.0
O46 O 0.18948 0.94709 0.07437 0.0
Co47 Co 0.17405 0.90511 0.14347 0.0
O48 O 0.21409 0.91626 0.11715 0.0
C49 C 0.12841 0.88894 0.08362 0.0
C50 C 0.10478 0.98238 0.06537 0.0
C51 C 0.21394 0.9325 0.08652 0.0
O52 O 0.12946 0.91741 0.07155 0.0
O53 O 0.14221 0.87966 0.11413 0.0
O54 O 0.16314 0.99342 0.12195 0.0
O55 O 0.15371 0.94589 0.14324 0.0
Co56 Co 0.54231 0.35334 0.40861 0.0
O57 O 0.5305 0.39596 0.39803 0.0
O58 O 0.51996 0.37034 0.45178 0.0
C59 C 0.52844 0.33187 0.35231 0.0
O60 O 0.55061 0.30961 0.42941 0.0
Co61 Co 0.59613 0.32266 0.36151 0.0
O62 O 0.58389 0.28415 0.39024 0.0
C63 C 0.61147 0.36945 0.42 0.0
C64 C 0.51909 0.39647 0.43245 0.0
C65 C 0.56595 0.28489 0.41944 0.0
O66 O 0.58287 0.3685 0.43159 0.0
O67 O 0.62109 0.35538 0.38987 0.0
O68 O 0.50722 0.33678 0.3784 0.0
O69 O 0.55579 0.3436 0.35943 0.0
Co70 Co 0.14254 0.54259 0.40464 0.0
O71 O 0.09986 0.53008 0.39552 0.0
O72 O 0.1264 0.52129 0.44908 0.0
C73 C 0.16322 0.52739 0.34848 0.0
O74 O 0.18654 0.55166 0.42431 0.0
Co75 Co 0.17306 0.59497 0.35517 0.0
O76 O 0.21206 0.58292 0.38284 0.0
C77 C 0.12717 0.61225 0.41431 0.0
C78 C 0.10001 0.5196 0.43041 0.0
C79 C 0.21143 0.56611 0.41301 0.0
O80 O 0.1271 0.58364 0.42602 0.0
O81 O 0.14207 0.62124 0.38446 0.0
O82 O 0.15898 0.50686 0.37557 0.0
O83 O 0.15151 0.55488 0.35475 0.0
Co84 Co 0.95243 0.14243 0.40432 0.0
O85 O 0.96448 0.09982 0.39342 0.0
O86 O 0.97381 0.12482 0.44785 0.0
C87 C 0.9676 0.16463 0.34889 0.0
O88 O 0.94406 0.18596 0.42594 0.0
Co89 Co 0.90022 0.17514 0.35672 0.0
O90 O 0.91323 0.21319 0.38562 0.0
C91 C 0.88259 0.12765 0.41393 0.0
C92 C 0.97523 0.09894 0.42817 0.0
C93 C 0.93011 0.21143 0.41566 0.0
O94 O 0.91127 0.12682 0.42538 0.0
O95 O 0.87366 0.14364 0.38487 0.0
O96 O 0.98821 0.1593 0.3756 0.0
O97 O 0.94 0.15307 0.35491 0.0
Co98 Co 0.35228 0.95863 0.41069 0.0
O99 O 0.39429 0.97417 0.40289 0.0
O100 O 0.36652 0.97958 0.45613 0.0
C101 C 0.33088 0.97353 0.35469 0.0
O102 O 0.30883 0.94652 0.42937 0.0
Co103 Co 0.32584 0.90514 0.35964 0.0
O104 O 0.28606 0.91314 0.38802 0.0
C105 C 0.37243 0.89011 0.41847 0.0
C106 C 0.39302 0.98346 0.43824 0.0
C107 C 0.28527 0.93002 0.41813 0.0
O108 O 0.36975 0.91819 0.43145 0.0
O109 O 0.35931 0.88082 0.38756 0.0
O110 O 0.33391 0.99384 0.38227 0.0
O111 O 0.34439 0.94677 0.36033 0.0
Co112 Co 0.46042 0.85477 0.9046 0.0
O113 O 0.47492 0.8972 0.89782 0.0
O114 O 0.4814 0.86853 0.95025 0.0
C115 C 0.47538 0.8347 0.84802 0.0
O116 O 0.44941 0.81069 0.92193 0.0
Co117 Co 0.40703 0.82853 0.85318 0.0
O118 O 0.41647 0.78822 0.8798 0.0
C119 C 0.39148 0.87312 0.91394 0.0
C120 C 0.48456 0.89544 0.93301 0.0
C121 C 0.43352 0.78702 0.90976 0.0
O122 O 0.41977 0.87084 0.92636 0.0
O123 O 0.38213 0.86057 0.88271 0.0
O124 O 0.49582 0.83778 0.87546 0.0
O125 O 0.4484 0.84764 0.85412 0.0
Co126 Co 0.64326 0.45939 0.90693 0.0
O127 O 0.60117 0.47472 0.8994 0.0
O128 O 0.62893 0.47957 0.95278 0.0
C129 C 0.66452 0.47529 0.85131 0.0
O130 O 0.68671 0.44737 0.92543 0.0
Co131 Co 0.6708 0.40712 0.85494 0.0
O132 O 0.71101 0.41762 0.88133 0.0
C133 C 0.62442 0.39039 0.91361 0.0
C134 C 0.60243 0.48357 0.93492 0.0
C135 C 0.71107 0.43306 0.91254 0.0
O136 O 0.62613 0.4185 0.92674 0.0
O137 O 0.63818 0.38158 0.8829 0.0
O138 O 0.66134 0.49515 0.87933 0.0
O139 O 0.65129 0.4483 0.85636 0.0
Co140 Co 0.04269 0.64396 0.90246 0.0
O141 O 0.02665 0.60208 0.89444 0.0
O142 O 0.02619 0.62786 0.94953 0.0
C143 C 0.02243 0.6672 0.85036 0.0
O144 O 0.05598 0.68665 0.92241 0.0
Co145 Co 0.09056 0.67474 0.84767 0.0
O146 O 0.08083 0.7139 0.87653 0.0
C147 C 0.11248 0.62673 0.90205 0.0
C148 C 0.02072 0.60201 0.93092 0.0
C149 C 0.06823 0.7121 0.90947 0.0
O150 O 0.08471 0.62592 0.91629 0.0
O151 O 0.1196 0.64349 0.87289 0.0
O152 O 0.0051 0.66311 0.8806 0.0
O153 O 0.04984 0.65412 0.85111 0.0
Co154 Co 0.85714 0.04181 0.90231 0.0
O155 O 0.89933 0.02841 0.8915 0.0
O156 O 0.87518 0.02316 0.94734 0.0
C157 C 0.83369 0.02329 0.84943 0.0
O158 O 0.81431 0.05233 0.92432 0.0
Co159 Co 0.82384 0.09113 0.85134 0.0
O160 O 0.78574 0.07827 0.88043 0.0
C161 C 0.872 0.11204 0.90616 0.0
C162 C 0.90068 0.02009 0.92721 0.0
C163 C 0.78833 0.06426 0.91246 0.0
O164 O 0.87369 0.0838 0.9189 0.0
O165 O 0.85488 0.11975 0.87752 0.0
O166 O 0.83914 0.0046 0.87812 0.0
O167 O 0.8457 0.0511 0.85196 0.0
Co168 Co 0.45509 0.64257 0.59578 0.0
O169 O 0.46944 0.60021 0.60445 0.0
O170 O 0.47491 0.627 0.55041 0.0
C171 C 0.47153 0.66442 0.65078 0.0
O172 O 0.44431 0.68598 0.57578 0.0
Co173 Co 0.40386 0.67334 0.64635 0.0
O174 O 0.41653 0.71269 0.61962 0.0
C175 C 0.38533 0.62645 0.58873 0.0
C176 C 0.47833 0.60072 0.56888 0.0
C177 C 0.43156 0.71135 0.58818 0.0
O178 O 0.41382 0.62587 0.57663 0.0
O179 O 0.37676 0.6423 0.61803 0.0
O180 O 0.49128 0.66026 0.62283 0.0
O181 O 0.44413 0.65194 0.64608 0.0
Co182 Co 0.85702 0.45386 0.60013 0.0
O183 O 0.89929 0.46891 0.60804 0.0
O184 O 0.87207 0.47314 0.55417 0.0
C185 C 0.8352 0.47093 0.65488 0.0
O186 O 0.8137 0.44226 0.58062 0.0
Co187 Co 0.82686 0.4031 0.65194 0.0
O188 O 0.78732 0.4145 0.62479 0.0
C189 C 0.87364 0.38413 0.5944 0.0
C190 C 0.89843 0.47721 0.57226 0.0
C191 C 0.78852 0.42915 0.59307 0.0
O192 O 0.87411 0.4125 0.58186 0.0
O193 O 0.85783 0.37578 0.62385 0.0
O194 O 0.83905 0.49026 0.6264 0.0
O195 O 0.84793 0.44358 0.65078 0.0
Co196 Co 0.03875 0.85399 0.59587 0.0
O197 O 0.02353 0.89627 0.60258 0.0
O198 O 0.02092 0.86885 0.54876 0.0
C199 C 0.0198 0.83261 0.64986 0.0
O200 O 0.0508 0.81037 0.57778 0.0
Co201 Co 0.08812 0.82529 0.65058 0.0
O202 O 0.07947 0.78561 0.62243 0.0
C203 C 0.10873 0.87061 0.5924 0.0
C204 C 0.01627 0.89528 0.5665 0.0
C205 C 0.06485 0.7858 0.59063 0.0
O206 O 0.08063 0.87086 0.57907 0.0
O207 O 0.11641 0.85548 0.62264 0.0
O208 O 0.00159 0.83614 0.62028 0.0
O209 O 0.04723 0.84549 0.64737 0.0
Co210 Co 0.64132 0.04182 0.60086 0.0
O211 O 0.59902 0.02853 0.61116 0.0
O212 O 0.62364 0.02287 0.55571 0.0
C213 C 0.66428 0.0237 0.65429 0.0
O214 O 0.68458 0.05219 0.57974 0.0
Co215 Co 0.67286 0.09199 0.65224 0.0
O216 O 0.71119 0.0812 0.62254 0.0
C217 C 0.62542 0.11189 0.59632 0.0
C218 C 0.59792 0.02004 0.57552 0.0
C219 C 0.70981 0.06594 0.59124 0.0
O220 O 0.62487 0.08367 0.58342 0.0
O221 O 0.64149 0.11992 0.62568 0.0
O222 O 0.65904 0.00479 0.62578 0.0
O223 O 0.65207 0.0514 0.65132 0.0
H224 H 0.57073 0.21139 0.00672 0.0
H225 H 0.55677 0.27434 0.10165 0.0
H226 H 0.58007 0.25571 0.96475 0.0
H227 H 0.56307 0.31929 0.05916 0.0
H228 H 0.6224 0.38796 0.99075 0.0
H229 H 0.60188 0.34637 0.03058 0.0
H230 H 0.56733 0.29841 0.92978 0.0
H231 H 0.59067 0.33919 0.88986 0.0
C232 C 0.56857 0.23492 0.01823 0.0
C233 C 0.56334 0.23956 0.05737 0.0
C234 C 0.57374 0.26053 0.99408 0.0
C235 C 0.57288 0.29151 0.00832 0.0
C236 C 0.56515 0.29597 0.04715 0.0
C237 C 0.5611 0.27025 0.07156 0.0
C238 C 0.61017 0.36861 0.97718 0.0
C239 C 0.60835 0.36661 0.93724 0.0
C240 C 0.59801 0.34472 1.0001 0.0
C241 C 0.58282 0.31855 0.98377 0.0
C242 C 0.57957 0.31755 0.94365 0.0
C243 C 0.59269 0.34105 0.92063 0.0
H244 H 0.1763 0.62893 0.89015 0.0
H245 H 0.1054 0.58538 0.96118 0.0
H246 H 0.21721 0.60705 0.93119 0.0
H247 H 0.1463 0.56353 0.0018 0.0
H248 H 0.22405 0.58258 0.09344 0.0
H249 H 0.18205 0.59041 0.04722 0.0
H250 H 0.24301 0.55822 0.95673 0.0
H251 H 0.2853 0.55043 0.00306 0.0
C252 C 0.16943 0.61419 0.91396 0.0
C253 C 0.13753 0.6094 0.92267 0.0
C254 C 0.19289 0.60154 0.9374 0.0
C255 C 0.18491 0.58389 0.96997 0.0
C256 C 0.15312 0.57746 0.97725 0.0
C257 C 0.12971 0.58999 0.95385 0.0
C258 C 0.22838 0.57665 0.06381 0.0
C259 C 0.2581 0.56613 0.05192 0.0
C260 C 0.20424 0.58097 0.03733 0.0
C261 C 0.20931 0.57509 0.9983 0.0
C262 C 0.23855 0.5632 0.98659 0.0
C263 C 0.26266 0.55854 0.01319 0.0
H264 H 0.87187 0.17576 0.8933 0.0
H265 H 0.91024 0.10458 0.96831 0.0
H266 H 0.89374 0.21655 0.93443 0.0
H267 H 0.93204 0.1454 0.00909 0.0
H268 H 0.91413 0.22659 0.09695 0.0
H269 H 0.9054 0.18373 0.05214 0.0
H270 H 0.94349 0.24029 0.96075 0.0
H271 H 0.95221 0.28339 0.00557 0.0
C272 C 0.88539 0.16876 0.91811 0.0
C273 C 0.88886 0.13686 0.92771 0.0
C274 C 0.89806 0.19215 0.94157 0.0
C275 C 0.91434 0.18412 0.97515 0.0
C276 C 0.91922 0.15226 0.98367 0.0
C277 C 0.90674 0.1289 0.96018 0.0
C278 C 0.92115 0.22975 0.06745 0.0
C279 C 0.93362 0.25851 0.05481 0.0
C280 C 0.9163 0.20511 0.0418 0.0
C281 C 0.92357 0.20877 0.00289 0.0
C282 C 0.93739 0.23697 0.99052 0.0
C283 C 0.94258 0.26153 0.01628 0.0
H284 H 0.34187 0.91031 0.89344 0.0
H285 H 0.38841 0.86928 0.9909 0.0
H286 H 0.30163 0.93212 0.93528 0.0
H287 H 0.34711 0.88824 0.03242 0.0
H288 H 0.276 0.93296 0.10684 0.0
H289 H 0.32117 0.92588 0.06486 0.0
H290 H 0.2582 0.91835 0.96796 0.0
H291 H 0.21395 0.9283 0.00955 0.0
C292 C 0.34332 0.9059 0.92387 0.0
C293 C 0.3681 0.88814 0.939 0.0
C294 C 0.32011 0.91811 0.94797 0.0
C295 C 0.32055 0.91176 0.98756 0.0
C296 C 0.34595 0.89442 0.00248 0.0
C297 C 0.36963 0.88319 0.97857 0.0
C298 C 0.27214 0.93039 0.0764 0.0
C299 C 0.24163 0.93117 0.06136 0.0
C300 C 0.29795 0.92596 0.05225 0.0
C301 C 0.29367 0.921 0.01271 0.0
C302 C 0.26294 0.92267 0.99786 0.0
C303 C 0.23735 0.92815 0.02181 0.0
H304 H 0.54578 0.28212 0.49362 0.0
H305 H 0.58612 0.22529 0.40379 0.0
H306 H 0.55346 0.23909 0.53884 0.0
H307 H 0.59386 0.18252 0.44902 0.0
H308 H 0.58862 0.10365 0.53304 0.0
H309 H 0.56703 0.14404 0.49139 0.0
H310 H 0.60249 0.21592 0.567 0.0
H311 H 0.62408 0.17558 0.60899 0.0
C312 C 0.5557 0.26027 0.48331 0.0
C313 C 0.56562 0.25725 0.44514 0.0
C314 C 0.56028 0.23574 0.50931 0.0
C315 C 0.57448 0.20757 0.49754 0.0
C316 C 0.58265 0.20387 0.4589 0.0
C317 C 0.57837 0.22847 0.43301 0.0
C318 C 0.59152 0.12804 0.54118 0.0
C319 C 0.60856 0.13636 0.57417 0.0
C320 C 0.57916 0.15116 0.5172 0.0
C321 C 0.58334 0.1831 0.52573 0.0
C322 C 0.59872 0.19146 0.55982 0.0
C323 C 0.61124 0.16832 0.58378 0.0
H324 H 0.32189 0.6229 0.60213 0.0
H325 H 0.3939 0.59236 0.52322 0.0
H326 H 0.28173 0.60136 0.56003 0.0
H327 H 0.35364 0.57065 0.48145 0.0
H328 H 0.27036 0.58786 0.39638 0.0
H329 H 0.31363 0.59603 0.44069 0.0
H330 H 0.25954 0.55295 0.53102 0.0
H331 H 0.21594 0.54498 0.48678 0.0
C332 C 0.32923 0.61116 0.57618 0.0
C333 C 0.36114 0.60978 0.56591 0.0
C334 C 0.30619 0.59863 0.55215 0.0
C335 C 0.31453 0.58451 0.51729 0.0
C336 C 0.34649 0.58176 0.50789 0.0
C337 C 0.36954 0.59416 0.53196 0.0
C338 C 0.26781 0.57964 0.42551 0.0
C339 C 0.2395 0.56612 0.43809 0.0
C340 C 0.29273 0.58416 0.45088 0.0
C341 C 0.28987 0.57539 0.48944 0.0
C342 C 0.26224 0.56032 0.50157 0.0
C343 C 0.23736 0.55559 0.47612 0.0
H344 H 0.87514 0.32044 0.6068 0.0
H345 H 0.90956 0.39254 0.53032 0.0
H346 H 0.896 0.2802 0.56435 0.0
H347 H 0.93062 0.35221 0.48822 0.0
H348 H 0.91111 0.27154 0.40052 0.0
H349 H 0.90423 0.31419 0.44596 0.0
H350 H 0.94358 0.25638 0.53545 0.0
H351 H 0.95023 0.21339 0.49002 0.0
C352 C 0.88764 0.32777 0.58136 0.0
C353 C 0.89022 0.35976 0.57178 0.0
C354 C 0.89977 0.30467 0.55711 0.0
C355 C 0.91471 0.31305 0.52276 0.0
C356 C 0.91881 0.34503 0.51422 0.0
C357 C 0.90678 0.36813 0.53847 0.0
C358 C 0.91878 0.26802 0.42973 0.0
C359 C 0.93086 0.23888 0.44168 0.0
C360 C 0.91502 0.29258 0.45575 0.0
C361 C 0.92313 0.28855 0.49438 0.0
C362 C 0.93676 0.26001 0.50596 0.0
C363 C 0.94074 0.23548 0.47984 0.0
H364 H 0.172 0.87398 0.60759 0.0
H365 H 0.10183 0.90281 0.52523 0.0
H366 H 0.2132 0.89383 0.56559 0.0
H367 H 0.14307 0.92265 0.48357 0.0
H368 H 0.22784 0.90437 0.40147 0.0
H369 H 0.18423 0.89544 0.44524 0.0
H370 H 0.23545 0.94229 0.53522 0.0
H371 H 0.27924 0.95117 0.4916 0.0
C372 C 0.16528 0.88498 0.5809 0.0
C373 C 0.13357 0.88643 0.5697 0.0
C374 C 0.1889 0.89647 0.55689 0.0
C375 C 0.18134 0.90953 0.52114 0.0
C376 C 0.14961 0.9123 0.51071 0.0
C377 C 0.12599 0.90101 0.53475 0.0
C378 C 0.22968 0.91316 0.43042 0.0
C379 C 0.25717 0.92827 0.44304 0.0
C380 C 0.20461 0.90819 0.45546 0.0
C381 C 0.20653 0.91802 0.49372 0.0
C382 C 0.23347 0.93417 0.50599 0.0
C383 C 0.25846 0.93941 0.48087 0.0
H384 H 0.40749 0.72999 0.89197 0.0
H385 H 0.45658 0.7792 0.98213 0.0
H386 H 0.39826 0.68601 0.93509 0.0
H387 H 0.44744 0.73503 0.02505 0.0
H388 H 0.37554 0.67578 0.09701 0.0
H389 H 0.39784 0.71553 0.05494 0.0
H390 H 0.42334 0.64351 0.97382 0.0
H391 H 0.40093 0.6036 0.01568 0.0
C392 C 0.41681 0.73123 0.92073 0.0
C393 C 0.43242 0.75833 0.93369 0.0
C394 C 0.41167 0.70592 0.94538 0.0
C395 C 0.42188 0.70726 0.98353 0.0
C396 C 0.43897 0.73357 0.99591 0.0
C397 C 0.44433 0.75879 0.9712 0.0
C398 C 0.38627 0.6683 0.07048 0.0
C399 C 0.38604 0.63651 0.05957 0.0
C400 C 0.39925 0.69109 0.04648 0.0
C401 C 0.41215 0.6826 0.011 0.0
C402 C 0.41322 0.65072 0.00081 0.0
C403 C 0.40044 0.62789 0.02491 0.0
H404 H 0.71199 0.42658 0.98926 0.0
H405 H 0.77284 0.4351 0.89131 0.0
H406 H 0.75691 0.41652 0.02982 0.0
H407 H 0.81863 0.42791 0.93234 0.0
H408 H 0.88752 0.37041 0.00366 0.0
H409 H 0.84576 0.39003 0.96314 0.0
H410 H 0.80034 0.43072 0.06225 0.0
H411 H 0.84104 0.40824 0.10294 0.0
C412 C 0.73525 0.42721 0.97667 0.0
C413 C 0.73904 0.43135 0.9372 0.0
C414 C 0.76122 0.42171 1.00003 0.0
C415 C 0.79182 0.42114 0.98468 0.0
C416 C 0.79556 0.42716 0.94528 0.0
C417 C 0.76939 0.43162 0.92169 0.0
C418 C 0.86868 0.38381 0.01661 0.0
C419 C 0.86723 0.38759 0.05636 0.0
C420 C 0.84472 0.3954 0.99332 0.0
C421 C 0.81914 0.41191 0.00912 0.0
C422 C 0.81892 0.4173 0.0489 0.0
C423 C 0.84239 0.40473 0.07233 0.0
H424 H 0.0793 0.71048 0.98552 0.0
H425 H 0.06314 0.77451 0.892 0.0
H426 H 0.08949 0.75428 0.02784 0.0
H427 H 0.07061 0.81898 0.93499 0.0
H428 H 0.12738 0.88817 0.00633 0.0
H429 H 0.10869 0.8467 0.96487 0.0
H430 H 0.0743 0.79578 0.0636 0.0
H431 H 0.09575 0.83645 0.10513 0.0
C432 C 0.07712 0.73413 0.97432 0.0
C433 C 0.07072 0.73919 0.93549 0.0
C434 C 0.0827 0.75943 0.99872 0.0
C435 C 0.08111 0.79057 0.98516 0.0
C436 C 0.07303 0.7955 0.94649 0.0
C437 C 0.06844 0.77006 0.92179 0.0
C438 C 0.11557 0.86819 0.01908 0.0
C439 C 0.11323 0.86533 0.05891 0.0
C440 C 0.10452 0.84436 0.99522 0.0
C441 C 0.09001 0.81741 0.01054 0.0
C442 C 0.08616 0.81555 0.05053 0.0
C443 C 0.09815 0.83899 0.07447 0.0
H444 H 0.66465 0.09665 0.10752 0.0
H445 H 0.61332 0.12481 0.00689 0.0
H446 H 0.70514 0.07315 0.06741 0.0
H447 H 0.65464 0.10408 0.96666 0.0
H448 H 0.7261 0.05661 0.89611 0.0
H449 H 0.68181 0.06456 0.93919 0.0
H450 H 0.74684 0.0862 0.03078 0.0
H451 H 0.79052 0.07539 0.98844 0.0
C452 C 0.6622 0.09787 0.07674 0.0
C453 C 0.63601 0.11256 0.06024 0.0
C454 C 0.68551 0.08466 0.05362 0.0
C455 C 0.68368 0.08686 0.01345 0.0
C456 C 0.65691 0.1011 0.99723 0.0
C457 C 0.63321 0.11335 0.02034 0.0
C458 C 0.73066 0.06243 0.92573 0.0
C459 C 0.76157 0.06548 0.93904 0.0
C460 C 0.70533 0.06737 0.95044 0.0
C461 C 0.7104 0.07669 0.98864 0.0
C462 C 0.74159 0.07859 0.002 0.0
C463 C 0.76682 0.0726 0.97761 0.0
H464 H 0.43689 0.77322 0.60779 0.0
H465 H 0.42446 0.71133 0.51145 0.0
H466 H 0.4309 0.81865 0.56591 0.0
H467 H 0.41559 0.75606 0.47008 0.0
H468 H 0.4076 0.83965 0.39578 0.0
H469 H 0.43015 0.79887 0.43633 0.0
H470 H 0.39286 0.8462 0.53606 0.0
H471 H 0.37309 0.88786 0.49569 0.0
C472 C 0.43283 0.76946 0.57757 0.0
C473 C 0.431 0.73892 0.56278 0.0
C474 C 0.42906 0.79544 0.5535 0.0
C475 C 0.42215 0.79138 0.51437 0.0
C476 C 0.4214 0.76057 0.49966 0.0
C477 C 0.42623 0.73473 0.52348 0.0
C478 C 0.40485 0.84141 0.42647 0.0
C479 C 0.38855 0.86675 0.44263 0.0
C480 C 0.41749 0.8179 0.44983 0.0
C481 C 0.41308 0.81866 0.48978 0.0
C482 C 0.39749 0.84473 0.50573 0.0
C483 C 0.3858 0.86866 0.48249 0.0
H484 H 0.72629 0.43311 0.61182 0.0
H485 H 0.78939 0.42135 0.51651 0.0
H486 H 0.68142 0.42623 0.56927 0.0
H487 H 0.74528 0.41161 0.47453 0.0
H488 H 0.6626 0.40405 0.39859 0.0
H489 H 0.70297 0.42611 0.44007 0.0
H490 H 0.65426 0.38832 0.5386 0.0
H491 H 0.61292 0.3691 0.49722 0.0
C492 C 0.73044 0.42898 0.5817 0.0
C493 C 0.76116 0.4277 0.56738 0.0
C494 C 0.70478 0.42469 0.55724 0.0
C495 C 0.70937 0.41784 0.51819 0.0
C496 C 0.74035 0.41743 0.504 0.0
C497 C 0.76584 0.42276 0.52819 0.0
C498 C 0.66047 0.40105 0.42922 0.0
C499 C 0.63481 0.38486 0.44477 0.0
C500 C 0.68375 0.4134 0.45312 0.0
C501 C 0.68246 0.40875 0.49302 0.0
C502 C 0.65613 0.39312 0.50834 0.0
C503 C 0.63241 0.38176 0.48455 0.0
H504 H 0.12193 0.67549 0.40077 0.0
H505 H 0.09605 0.60327 0.48195 0.0
H506 H 0.10097 0.71537 0.44354 0.0
H507 H 0.07485 0.64331 0.52446 0.0
H508 H 0.09038 0.72831 0.60751 0.0
H509 H 0.09971 0.68488 0.56369 0.0
H510 H 0.05258 0.73591 0.47368 0.0
H511 H 0.04347 0.77957 0.51725 0.0
C512 C 0.11137 0.66803 0.42743 0.0
C513 C 0.11106 0.63616 0.43805 0.0
C514 C 0.09917 0.69092 0.45186 0.0
C515 C 0.08644 0.68247 0.48747 0.0
C516 C 0.08489 0.65053 0.49741 0.0
C517 C 0.09696 0.62761 0.47293 0.0
C518 C 0.0816 0.73014 0.57854 0.0
C519 C 0.06654 0.75764 0.56583 0.0
C520 C 0.08679 0.70514 0.55348 0.0
C521 C 0.07712 0.70713 0.51515 0.0
C522 C 0.06069 0.73393 0.50292 0.0
C523 C 0.05535 0.75886 0.52801 0.0
H524 H 0.769 0.08722 0.60745 0.0
H525 H 0.71324 0.04687 0.51656 0.0
H526 H 0.8119 0.09593 0.56282 0.0
H527 H 0.75651 0.05527 0.47201 0.0
H528 H 0.81905 0.1248 0.40141 0.0
H529 H 0.77908 0.10331 0.44369 0.0
H530 H 0.85136 0.07135 0.52117 0.0
H531 H 0.89148 0.09315 0.47918 0.0
C532 C 0.76605 0.0797 0.57811 0.0
C533 C 0.73748 0.06671 0.56553 0.0
C534 C 0.79078 0.08451 0.55256 0.0
C535 C 0.78749 0.07652 0.51381 0.0
C536 C 0.75955 0.06205 0.5016 0.0
C537 C 0.73484 0.05708 0.52722 0.0
C538 C 0.82652 0.11284 0.42717 0.0
C539 C 0.85851 0.11112 0.43707 0.0
C540 C 0.80357 0.10031 0.45131 0.0
C541 C 0.81206 0.08582 0.48591 0.0
C542 C 0.84409 0.08277 0.49495 0.0
C543 C 0.86706 0.0952 0.47077 0.0
H544 H 0.48575 0.90357 0.01006 0.0
H545 H 0.50275 0.95195 0.90359 0.0
H546 H 0.49201 0.95266 0.04467 0.0
H547 H 0.51073 0.00094 0.93829 0.0
H548 H 0.48978 0.08959 0.00379 0.0
H549 H 0.48202 0.03957 0.97117 0.0
H550 H 0.52679 0.9913 0.0654 0.0
H551 H 0.53292 0.04097 0.0986 0.0
C552 C 0.49168 0.9246 0.99415 0.0
C553 C 0.49378 0.92396 0.95413 0.0
C554 C 0.49527 0.95282 0.014 0.0
C555 C 0.50156 0.98098 0.99433 0.0
C556 C 0.50507 0.97995 0.95436 0.0
C557 C 0.50095 0.95179 0.93446 0.0
C558 C 0.49742 0.06818 0.01773 0.0
C559 C 0.51185 0.06918 0.05376 0.0
C560 C 0.49339 0.03952 0.99884 0.0
C561 C 0.50418 0.0113 0.01533 0.0
C562 C 0.51783 0.01237 0.05191 0.0
C563 C 0.52139 0.04094 0.071 0.0
H564 H 0.40758 0.49032 0.00234 0.0
H565 H 0.45546 0.53201 0.09861 0.0
H566 H 0.45789 0.48246 0.97047 0.0
H567 H 0.50548 0.52575 0.06617 0.0
H568 H 0.59332 0.48404 0.01181 0.0
H569 H 0.54393 0.49066 0.04563 0.0
H570 H 0.49722 0.51117 0.93869 0.0
H571 H 0.54652 0.50284 0.90472 0.0
C572 C 0.4289 0.49761 0.01676 0.0
C573 C 0.4276 0.51166 0.05298 0.0
C574 C 0.45773 0.49353 0.99831 0.0
C575 C 0.48584 0.50388 0.01544 0.0
C576 C 0.48447 0.51714 0.0522 0.0
C577 C 0.45572 0.52076 0.07085 0.0
C578 C 0.57259 0.49043 0.99559 0.0
C579 C 0.57374 0.49292 0.95562 0.0
C580 C 0.54419 0.49423 0.01501 0.0
C581 C 0.51637 0.50113 0.99493 0.0
C582 C 0.51794 0.50503 0.95503 0.0
C583 C 0.54627 0.50071 0.93556 0.0
H584 H 0.02461 0.59132 0.00725 0.0
H585 H 0.00039 0.54628 0.9007 0.0
H586 H 0.01868 0.54169 0.04056 0.0
H587 H 0.99273 0.49662 0.93439 0.0
H588 H 0.01124 0.40562 0.99762 0.0
H589 H 0.02027 0.45553 0.96497 0.0
H590 H 0.98247 0.50514 0.0625 0.0
H591 H 0.97511 0.45564 0.09553 0.0
C592 C 0.01727 0.5709 0.99106 0.0
C593 C 0.01281 0.57272 0.95137 0.0
C594 C 0.01382 0.54235 0.0102 0.0
C595 C 0.00529 0.51495 0.99026 0.0
C596 C -3e-05 0.51703 0.95061 0.0
C597 C 0.00393 0.54557 0.93133 0.0
C598 C 0.00545 0.42728 0.01225 0.0
C599 C 0.99261 0.42671 0.04918 0.0
C600 C 0.0102 0.45589 0.99337 0.0
C601 C 0.00182 0.48449 0.01086 0.0
C602 C 0.98968 0.48376 0.04822 0.0
C603 C 0.98538 0.45527 0.06723 0.0
H604 H 0.09595 0.98365 0.98853 0.0
H605 H 0.04876 0.0015 0.0955 0.0
H606 H 0.04684 0.99095 0.95441 0.0
H607 H -0.00029 0.01072 0.06124 0.0
H608 H 0.91016 0.99141 0.99606 0.0
H609 H 0.96006 0.98354 0.02893 0.0
H610 H 0.0089 0.02586 0.93348 0.0
H611 H 0.95928 0.03191 0.90002 0.0
C612 C 0.07519 0.99 0.00466 0.0
C613 C 0.07616 0.99201 0.04467 0.0
C614 C 0.04693 0.99423 0.98507 0.0
C615 C 0.01905 0.00118 0.00497 0.0
C616 C 0.02045 0.00458 0.04496 0.0
C617 C 0.04864 -0.00026 0.06462 0.0
C618 C 0.93168 0.9985 0.98196 0.0
C619 C 0.93088 0.01204 0.94541 0.0
C620 C 0.96028 0.99442 0.00097 0.0
C621 C 0.98866 0.00438 0.98415 0.0
C622 C 0.98773 0.01744 0.94722 0.0
C623 C 0.95921 0.02095 0.92796 0.0
H624 H 0.49599 0.54445 0.59999 0.0
H625 H 0.47963 0.59116 0.49225 0.0
H626 H 0.50514 0.49509 0.56629 0.0
H627 H 0.48695 0.54186 0.45874 0.0
H628 H 0.53095 0.45531 0.40622 0.0
H629 H 0.52333 0.50463 0.4395 0.0
H630 H 0.47871 0.45505 0.53281 0.0
H631 H 0.48806 0.40529 0.50008 0.0
C632 C 0.49451 0.54416 0.5691 0.0
C633 C 0.48735 0.57166 0.54874 0.0
C634 C 0.49932 0.51581 0.54977 0.0
C635 C 0.49652 0.51429 0.50972 0.0
C636 C 0.48983 0.54207 0.48947 0.0
C637 C 0.48558 0.57044 0.50872 0.0
C638 C 0.51916 0.45495 0.43363 0.0
C639 C 0.51004 0.42643 0.45053 0.0
C640 C 0.51471 0.48332 0.45278 0.0
C641 C 0.50051 0.48398 0.48904 0.0
C642 C 0.49037 0.45545 0.50534 0.0
C643 C 0.49532 0.42694 0.48639 0.0
H644 H 0.04055 0.53051 0.40562 0.0
H645 H 0.0928 0.48964 0.49905 0.0
H646 H 0.99193 0.52262 0.44036 0.0
H647 H 0.04377 0.47999 0.53327 0.0
H648 H 0.95486 0.496 0.60209 0.0
H649 H 0.00361 0.50577 0.56727 0.0
H650 H 0.95578 0.4857 0.46094 0.0
H651 H 0.9071 0.47778 0.4955 0.0
C652 C 0.04156 0.51911 0.43327 0.0
C653 C 0.07048 0.51059 0.44957 0.0
C654 C 0.01359 0.51451 0.45326 0.0
C655 C 0.01376 0.50072 0.4898 0.0
C656 C 0.04272 0.49129 0.50558 0.0
C657 C 0.07081 0.49641 0.48579 0.0
C658 C 0.95479 0.49423 0.57122 0.0
C659 C 0.92716 0.48639 0.5515 0.0
C660 C 0.98279 0.49941 0.55125 0.0
C661 C 0.98383 0.49632 0.5112 0.0
C662 C 0.95593 0.48887 0.49163 0.0
C663 C 0.92791 0.48426 0.51149 0.0
H664 H 0.9963 0.95124 0.59596 0.0
H665 H 0.01745 0.90448 0.4896 0.0
H666 H 0.98723 0.00021 0.56147 0.0
H667 H 0.00999 0.95356 0.45526 0.0
H668 H 0.96528 0.03992 0.40084 0.0
H669 H 0.97332 0.99044 0.43405 0.0
H670 H 0.01451 0.04045 0.52927 0.0
H671 H 0.00494 0.09015 0.49658 0.0
C672 C 0.99887 0.95143 0.56518 0.0
C673 C 0.00739 0.92402 0.54546 0.0
C674 C 0.99408 0.97958 0.5454 0.0
C675 C 0.9982 0.98105 0.50552 0.0
C676 C 0.00616 0.95335 0.48584 0.0
C677 C 0.01047 0.92514 0.50555 0.0
C678 C 0.97641 0.04032 0.42867 0.0
C679 C 0.98446 0.06892 0.44613 0.0
C680 C 0.98108 0.01188 0.44777 0.0
C681 C 0.99434 0.01132 0.48459 0.0
C682 C 0.00353 0.03996 0.50137 0.0
C683 C 0.99843 0.06846 0.48246 0.0
H684 H 0.53933 0.03078 0.60331 0.0
H685 H 0.58832 0.99289 0.50566 0.0
H686 H 0.48963 0.02503 0.5701 0.0
H687 H 0.53826 0.98529 0.47294 0.0
H688 H 0.44863 0.00367 0.40796 0.0
H689 H 0.49795 0.01252 0.44183 0.0
H690 H 0.45188 0.99027 0.54866 0.0
H691 H 0.40252 0.98334 0.51499 0.0
C692 C 0.53938 0.02047 0.57502 0.0
C693 C 0.56771 0.01218 0.55712 0.0
C694 C 0.51079 0.01711 0.55591 0.0
C695 C 0.50973 0.00482 0.51862 0.0
C696 C 0.53811 0.99555 0.50124 0.0
C697 C 0.56681 -0.00053 0.52016 0.0
C698 C 0.44904 0.00131 0.43877 0.0
C699 C 0.42172 0.99302 0.45885 0.0
C700 C 0.47739 0.00592 0.45819 0.0
C701 C 0.47918 0.00174 0.49806 0.0
C702 C 0.45151 0.99419 0.5181 0.0
C703 C 0.42309 0.99018 0.49877 0.0
H704 H 0.56963 0.31884 0.29554 0.0
H705 H 0.47695 0.29488 0.33673 0.0
H706 H 0.56577 0.27801 0.24729 0.0
H707 H 0.47313 0.25361 0.28784 0.0
H708 H 0.47752 0.2034 0.16417 0.0
H709 H 0.47375 0.245 0.21271 0.0
H710 H 0.56499 0.21864 0.25613 0.0
H711 H 0.5688 0.17753 0.20829 0.0
C712 C 0.54828 0.30503 0.29407 0.0
C713 C 0.52376 0.3098 0.32025 0.0
C714 C 0.54613 0.28157 0.2665 0.0
C715 C 0.51938 0.26234 0.2643 0.0
C716 C 0.49403 0.26812 0.28903 0.0
C717 C 0.49625 0.29166 0.31696 0.0
C718 C 0.49649 0.20627 0.18451 0.0
C719 C 0.52363 0.18749 0.18217 0.0
C720 C 0.49432 0.23001 0.21221 0.0
C721 C 0.51934 0.23532 0.23764 0.0
C722 C 0.54564 0.21547 0.23636 0.0
C723 C 0.54775 0.19184 0.20902 0.0
H724 H 0.17327 0.5663 0.28857 0.0
H725 H 0.20221 0.47688 0.33543 0.0
H726 H 0.21396 0.56244 0.24012 0.0
H727 H 0.24331 0.47306 0.28627 0.0
H728 H 0.29336 0.47662 0.16157 0.0
H729 H 0.25142 0.47201 0.20962 0.0
H730 H 0.27394 0.56479 0.25123 0.0
H731 H 0.31548 0.56939 0.20403 0.0
C732 C 0.18809 0.5456 0.28825 0.0
C733 C 0.18484 0.5221 0.31613 0.0
C734 C 0.21143 0.54346 0.26055 0.0
C735 C 0.23204 0.51772 0.25994 0.0
C736 C 0.22769 0.49316 0.28626 0.0
C737 C 0.20425 0.49538 0.31432 0.0
C738 C 0.28956 0.49578 0.18139 0.0
C739 C 0.30743 0.52352 0.17876 0.0
C740 C 0.26564 0.49312 0.2088 0.0
C741 C 0.25921 0.51827 0.23358 0.0
C742 C 0.27806 0.54529 0.23196 0.0
C743 C 0.30192 0.54786 0.20497 0.0
H744 H 0.93191 0.32056 0.20481 0.0
H745 H 0.02312 0.29287 0.1623 0.0
H746 H 0.93444 0.27945 0.25287 0.0
H747 H 0.02561 0.25133 0.21109 0.0
H748 H 0.01982 0.20121 0.33511 0.0
H749 H 0.02502 0.24276 0.28665 0.0
H750 H 0.93276 0.21992 0.24353 0.0
H751 H 0.92755 0.1788 0.29126 0.0
C752 C 0.95268 0.30588 0.20595 0.0
C753 C 0.97714 0.3097 0.17944 0.0
C754 C 0.95406 0.28225 0.23343 0.0
C755 C 0.97997 0.26191 0.23523 0.0
C756 C 0.00534 0.26671 0.21019 0.0
C757 C 0.00389 0.29041 0.18234 0.0
C758 C 0.0009 0.20485 0.31488 0.0
C759 C 0.97312 0.18702 0.31727 0.0
C760 C 0.00391 0.22855 0.28721 0.0
C761 C 0.97906 0.23483 0.26185 0.0
C762 C 0.95202 0.21597 0.26322 0.0
C763 C 0.94911 0.19233 0.29051 0.0
H764 H 0.29243 0.02415 0.3399 0.0
H765 H 0.31914 0.9328 0.29689 0.0
H766 H 0.25153 0.02768 0.29044 0.0
H767 H 0.27851 0.9363 0.24827 0.0
H768 H 0.178 0.93238 0.20739 0.0
H769 H 0.21839 0.93612 0.25626 0.0
H770 H 0.24491 0.02775 0.21429 0.0
H771 H 0.20424 0.02398 0.16458 0.0
C772 C 0.28986 0.00507 0.31967 0.0
C773 C 0.30876 0.97804 0.32255 0.0
C774 C 0.26652 0.00712 0.29143 0.0
C775 C 0.26162 0.98204 0.26601 0.0
C776 C 0.28144 0.95573 0.26796 0.0
C777 C 0.30479 0.9538 0.29576 0.0
C778 C 0.19218 0.9535 0.20863 0.0
C779 C 0.18818 0.97773 0.1818 0.0
C780 C 0.21539 0.95556 0.23658 0.0
C781 C 0.23504 0.982 0.23864 0.0
C782 C 0.23005 0.00709 0.21322 0.0
C783 C 0.20685 0.00491 0.18483 0.0
H784 H 0.52593 0.79615 0.83374 0.0
H785 H 0.43453 0.82251 0.7904 0.0
H786 H 0.5289 0.75409 0.78579 0.0
H787 H 0.43748 0.78066 0.74328 0.0
H788 H 0.43241 0.67809 0.70952 0.0
H789 H 0.43718 0.72041 0.75572 0.0
H790 H 0.52773 0.7453 0.7092 0.0
H791 H 0.52289 0.70273 0.66208 0.0
C792 C 0.50676 0.7933 0.81368 0.0
C793 C 0.47983 0.81238 0.81612 0.0
C794 C 0.5085 0.7693 0.78631 0.0
C795 C 0.4832 0.76392 0.76135 0.0
C796 C 0.45707 0.78402 0.76264 0.0
C797 C 0.45546 0.80804 0.78958 0.0
C798 C 0.45352 0.69233 0.7092 0.0
C799 C 0.47711 0.6873 0.68183 0.0
C800 C 0.45616 0.71663 0.73561 0.0
C801 C 0.48258 0.73637 0.73556 0.0
C802 C 0.5071 0.7304 0.70968 0.0
C803 C 0.50431 0.70609 0.68281 0.0
H804 H 0.79738 0.52268 0.66593 0.0
H805 H 0.82131 0.43221 0.71403 0.0
H806 H 0.75496 0.52812 0.7132 0.0
H807 H 0.77908 0.43756 0.7603 0.0
H808 H 0.67591 0.43592 0.7921 0.0
H809 H 0.71808 0.43907 0.74543 0.0
H810 H 0.74687 0.5285 0.79175 0.0
H811 H 0.7045 0.52528 0.83939 0.0
C812 C 0.7939 0.50423 0.68684 0.0
C813 C 0.81244 0.47684 0.68598 0.0
C814 C 0.7697 0.50737 0.7138 0.0
C815 C 0.76358 0.48303 0.73988 0.0
C816 C 0.78306 0.45644 0.74008 0.0
C817 C 0.80729 0.45345 0.7136 0.0
C818 C 0.69093 0.45647 0.79224 0.0
C819 C 0.68712 0.48016 0.81977 0.0
C820 C 0.71512 0.4582 0.76554 0.0
C821 C 0.7359 0.4838 0.76543 0.0
C822 C 0.7311 0.50851 0.79137 0.0
C823 C 0.70692 0.50664 0.81854 0.0
H824 H 0.04081 0.83439 0.72305 0.0
H825 H 0.98335 0.77995 0.64588 0.0
H826 H 0.03442 0.7939 0.77227 0.0
H827 H 0.97798 0.7389 0.6948 0.0
H828 H 0.03946 0.66524 0.77579 0.0
H829 H 0.03182 0.70617 0.7274 0.0
H830 H 0.98156 0.7626 0.80944 0.0
H831 H 0.98815 0.72108 0.85763 0.0
C832 C 0.02643 0.814 0.71689 0.0
C833 C 0.01246 0.81029 0.68083 0.0
C834 C 0.02271 0.79097 0.74501 0.0
C835 C 0.00566 0.7635 0.73716 0.0
C836 C 0.99105 0.76005 0.70144 0.0
C837 C 0.99405 0.78352 0.67363 0.0
C838 C 0.02615 0.68607 0.78318 0.0
C839 C 0.01424 0.69001 0.82026 0.0
C840 C 0.02172 0.70935 0.75555 0.0
C841 C 0.00605 0.73732 0.76486 0.0
C842 C 0.99354 0.74107 0.80168 0.0
C843 C 0.99721 0.71735 0.82907 0.0
H844 H 0.667 0.04889 0.72539 0.0
H845 H 0.71375 0.9829 0.65091 0.0
H846 H 0.70865 0.04194 0.77302 0.0
H847 H 0.75593 0.97679 0.69833 0.0
H848 H 0.832 0.04617 0.7772 0.0
H849 H 0.78999 0.03952 0.72998 0.0
H850 H 0.7401 0.97884 0.80779 0.0
H851 H 0.78265 0.98461 0.85483 0.0
C852 C 0.68593 0.03257 0.7195 0.0
C853 C 0.68718 0.01637 0.68461 0.0
C854 C 0.70959 0.02856 0.74672 0.0
C855 C 0.73515 0.00875 0.73914 0.0
C856 C 0.73615 0.99192 0.70473 0.0
C857 C 0.71208 0.9954 0.67779 0.0
C858 C 0.81241 0.03084 0.78386 0.0
C859 C 0.81055 0.01579 0.81948 0.0
C860 C 0.78853 0.02701 0.7569 0.0
C861 C 0.76215 0.00859 0.76545 0.0
C862 C 0.76051 0.99288 0.80064 0.0
C863 C 0.7848 0.99613 0.82735 0.0
loop_
_geom_bond_atom_site_label_1
_geom_bond_atom_site_label_2
_geom_bond_distance
_geom_bond_site_symmetry_2
_ccdc_geom_bond_type
Co0 O1 2.216 . S
Co0 O2 2.091 . S
Co0 O4 2.004 . S
Co0 O10 2.021 . S
Co0 O12 2.137 . S
Co0 O13 2.244 . S
O1 Co0 2.216 . S
O1 C8 1.247 . S
O2 Co0 2.091 . S
O2 C8 1.261 . S
C3 O12 1.247 . S
C3 O13 1.272 . S
O4 Co0 2.004 . S
O4 C9 1.259 . S
Co5 O6 2.061 . S
Co5 O11 2.052 . S
Co5 O13 2.135 . S
O6 Co5 2.061 . S
O6 C9 1.235 . S
C7 O10 1.238 . S
C7 O11 1.241 . S
C8 O1 1.247 . S
C8 O2 1.261 . S
C9 O4 1.259 . S
C9 O6 1.235 . S
O10 Co0 2.021 . S
O10 C7 1.238 . S
O11 Co5 2.052 . S
O11 C7 1.241 . S
O12 Co0 2.137 . S
O12 C3 1.247 . S
O13 Co0 2.244 . S
O13 C3 1.272 . S
O13 Co5 2.135 . S
Co14 O15 2.216 . S
Co14 O16 2.091 . S
Co14 O18 2.004 . S
Co14 O24 2.021 . S
Co14 O26 2.137 . S
Co14 O27 2.244 . S
O15 Co14 2.216 . S
O15 C22 1.247 . S
O16 Co14 2.091 . S
O16 C22 1.261 . S
C17 O26 1.247 . S
C17 O27 1.272 . S
O18 Co14 2.004 . S
O18 C23 1.259 . S
Co19 O20 2.061 . S
Co19 O25 2.052 . S
Co19 O27 2.135 . S
O20 Co19 2.061 . S
O20 C23 1.235 . S
C21 O24 1.238 . S
C21 O25 1.241 . S
C22 O15 1.247 . S
C22 O16 1.261 . S
C23 O18 1.259 . S
C23 O20 1.235 . S
O24 Co14 2.021 . S
O24 C21 1.238 . S
O25 Co19 2.052 . S
O25 C21 1.241 . S
O26 Co14 2.137 . S
O26 C17 1.247 . S
O27 Co14 2.244 . S
O27 C17 1.272 . S
O27 Co19 2.135 . S
Co28 O29 2.216 . S
Co28 O30 2.094 . S
Co28 O32 2.004 . S
Co28 O38 2.021 . S
Co28 O40 2.137 . S
Co28 O41 2.244 . S
O29 Co28 2.216 . S
O29 C36 1.247 . S
O30 Co28 2.094 . S
O30 C36 1.262 . S
C31 O40 1.247 . S
C31 O41 1.272 . S
O32 Co28 2.004 . S
O32 C37 1.259 . S
Co33 O34 2.061 . S
Co33 O39 2.052 . S
Co33 O41 2.135 . S
O34 Co33 2.061 . S
O34 C37 1.235 . S
C35 O38 1.238 . S
C35 O39 1.241 . S
C36 O29 1.247 . S
C36 O30 1.262 . S
C37 O32 1.259 . S
C37 O34 1.235 . S
O38 Co28 2.021 . S
O38 C35 1.238 . S
O39 Co33 2.052 . S
O39 C35 1.241 . S
O40 Co28 2.137 . S
O40 C31 1.247 . S
O41 Co28 2.244 . S
O41 C31 1.272 . S
O41 Co33 2.135 . S
Co42 O43 2.216 . S
Co42 O44 2.094 . S
Co42 O46 2.004 . S
Co42 O52 2.021 . S
Co42 O54 2.137 . S
Co42 O55 2.244 . S
O43 Co42 2.216 . S
O43 C50 1.247 . S
O44 Co42 2.094 . S
O44 C50 1.262 . S
C45 O54 1.247 . S
C45 O55 1.272 . S
O46 Co42 2.004 . S
O46 C51 1.259 . S
Co47 O48 2.061 . S
Co47 O53 2.052 . S
Co47 O55 2.135 . S
O48 Co47 2.061 . S
O48 C51 1.235 . S
C49 O52 1.238 . S
C49 O53 1.241 . S
C50 O43 1.247 . S
C50 O44 1.262 . S
C51 O46 1.259 . S
C51 O48 1.235 . S
O52 Co42 2.021 . S
O52 C49 1.238 . S
O53 Co47 2.052 . S
O53 C49 1.241 . S
O54 Co42 2.137 . S
O54 C45 1.247 . S
O55 Co42 2.244 . S
O55 C45 1.272 . S
O55 Co47 2.135 . S
Co56 O57 2.216 . S
Co56 O58 2.091 . S
Co56 O60 2.004 . S
Co56 O66 2.021 . S
Co56 O68 2.137 . S
Co56 O69 2.244 . S
O57 Co56 2.216 . S
O57 C64 1.247 . S
O58 Co56 2.091 . S
O58 C64 1.261 . S
C59 O68 1.247 . S
C59 O69 1.272 . S
O60 Co56 2.004 . S
O60 C65 1.259 . S
Co61 O62 2.061 . S
Co61 O67 2.052 . S
Co61 O69 2.135 . S
O62 Co61 2.061 . S
O62 C65 1.235 . S
C63 O66 1.238 . S
C63 O67 1.241 . S
C64 O57 1.247 . S
C64 O58 1.261 . S
C65 O60 1.259 . S
C65 O62 1.235 . S
O66 Co56 2.021 . S
O66 C63 1.238 . S
O67 Co61 2.052 . S
O67 C63 1.241 . S
O68 Co56 2.137 . S
O68 C59 1.247 . S
O69 Co56 2.244 . S
O69 C59 1.272 . S
O69 Co61 2.135 . S
Co70 O71 2.216 . S
Co70 O72 2.091 . S
Co70 O74 2.004 . S
Co70 O80 2.021 . S
Co70 O82 2.137 . S
Co70 O83 2.244 . S
O71 Co70 2.216 . S
O71 C78 1.247 . S
O72 Co70 2.091 . S
O72 C78 1.261 . S
C73 O82 1.247 . S
C73 O83 1.272 . S
O74 Co70 2.004 . S
O74 C79 1.259 . S
Co75 O76 2.061 . S
Co75 O81 2.052 . S
Co75 O83 2.135 . S
O76 Co75 2.061 . S
O76 C79 1.235 . S
C77 O80 1.238 . S
C77 O81 1.241 . S
C78 O71 1.247 . S
C78 O72 1.261 . S
C79 O74 1.259 . S
C79 O76 1.235 . S
O80 Co70 2.021 . S
O80 C77 1.238 . S
O81 Co75 2.052 . S
O81 C77 1.241 . S
O82 Co70 2.137 . S
O82 C73 1.247 . S
O83 Co70 2.244 . S
O83 C73 1.272 . S
O83 Co75 2.135 . S
Co84 O85 2.216 . S
Co84 O86 2.094 . S
Co84 O88 2.004 . S
Co84 O94 2.021 . S
Co84 O96 2.137 . S
Co84 O97 2.244 . S
O85 Co84 2.216 . S
O85 C92 1.247 . S
O86 Co84 2.094 . S
O86 C92 1.262 . S
C87 O96 1.247 . S
C87 O97 1.272 . S
O88 Co84 2.004 . S
O88 C93 1.259 . S
Co89 O90 2.061 . S
Co89 O95 2.052 . S
Co89 O97 2.135 . S
O90 Co89 2.061 . S
O90 C93 1.235 . S
C91 O94 1.238 . S
C91 O95 1.241 . S
C92 O85 1.247 . S
C92 O86 1.262 . S
C93 O88 1.259 . S
C93 O90 1.235 . S
O94 Co84 2.021 . S
O94 C91 1.238 . S
O95 Co89 2.052 . S
O95 C91 1.241 . S
O96 Co84 2.137 . S
O96 C87 1.247 . S
O97 Co84 2.244 . S
O97 C87 1.272 . S
O97 Co89 2.135 . S
Co98 O99 2.216 . S
Co98 O100 2.094 . S
Co98 O102 2.004 . S
Co98 O108 2.021 . S
Co98 O110 2.137 . S
Co98 O111 2.244 . S
O99 Co98 2.216 . S
O99 C106 1.247 . S
O100 Co98 2.094 . S
O100 C106 1.262 . S
C101 O110 1.247 . S
C101 O111 1.272 . S
O102 Co98 2.004 . S
O102 C107 1.259 . S
Co103 O104 2.061 . S
Co103 O109 2.052 . S
Co103 O111 2.135 . S
O104 Co103 2.061 . S
O104 C107 1.235 . S
C105 O108 1.238 . S
C105 O109 1.241 . S
C106 O99 1.247 . S
C106 O100 1.262 . S
C107 O102 1.259 . S
C107 O104 1.235 . S
O108 Co98 2.021 . S
O108 C105 1.238 . S
O109 Co103 2.052 . S
O109 C105 1.241 . S
O110 Co98 2.137 . S
O110 C101 1.247 . S
O111 Co98 2.244 . S
O111 C101 1.272 . S
O111 Co103 2.135 . S
Co112 O113 2.216 . S
Co112 O114 2.091 . S
Co112 O116 2.004 . S
Co112 O122 2.021 . S
Co112 O124 2.137 . S
Co112 O125 2.244 . S
O113 Co112 2.216 . S
O113 C120 1.247 . S
O114 Co112 2.091 . S
O114 C120 1.261 . S
C115 O124 1.247 . S
C115 O125 1.272 . S
O116 Co112 2.004 . S
O116 C121 1.259 . S
Co117 O118 2.061 . S
Co117 O123 2.052 . S
Co117 O125 2.135 . S
O118 Co117 2.061 . S
O118 C121 1.235 . S
C119 O122 1.238 . S
C119 O123 1.241 . S
C120 O113 1.247 . S
C120 O114 1.261 . S
C121 O116 1.259 . S
C121 O118 1.235 . S
O122 Co112 2.021 . S
O122 C119 1.238 . S
O123 Co117 2.052 . S
O123 C119 1.241 . S
O124 Co112 2.137 . S
O124 C115 1.247 . S
O125 Co112 2.244 . S
O125 C115 1.272 . S
O125 Co117 2.135 . S
Co126 O127 2.216 . S
Co126 O128 2.091 . S
Co126 O130 2.004 . S
Co126 O136 2.021 . S
Co126 O138 2.137 . S
Co126 O139 2.244 . S
O127 Co126 2.216 . S
O127 C134 1.247 . S
O128 Co126 2.091 . S
O128 C134 1.261 . S
C129 O138 1.247 . S
C129 O139 1.272 . S
O130 Co126 2.004 . S
O130 C135 1.259 . S
Co131 O132 2.061 . S
Co131 O137 2.052 . S
Co131 O139 2.135 . S
O132 Co131 2.061 . S
O132 C135 1.235 . S
C133 O136 1.238 . S
C133 O137 1.241 . S
C134 O127 1.247 . S
C134 O128 1.261 . S
C135 O130 1.259 . S
C135 O132 1.235 . S
O136 Co126 2.021 . S
O136 C133 1.238 . S
O137 Co131 2.052 . S
O137 C133 1.241 . S
O138 Co126 2.137 . S
O138 C129 1.247 . S
O139 Co126 2.244 . S
O139 C129 1.272 . S
O139 Co131 2.135 . S
Co140 O141 2.216 . S
Co140 O142 2.094 . S
Co140 O144 2.004 . S
Co140 O150 2.021 . S
Co140 O152 2.137 . S
Co140 O153 2.244 . S
O141 Co140 2.216 . S
O141 C148 1.247 . S
O142 Co140 2.094 . S
O142 C148 1.262 . S
C143 O152 1.247 . S
C143 O153 1.272 . S
O144 Co140 2.004 . S
O144 C149 1.259 . S
Co145 O146 2.061 . S
Co145 O151 2.052 . S
Co145 O153 2.135 . S
O146 Co145 2.061 . S
O146 C149 1.235 . S
C147 O150 1.238 . S
C147 O151 1.241 . S
C148 O141 1.247 . S
C148 O142 1.262 . S
C149 O144 1.259 . S
C149 O146 1.235 . S
O150 Co140 2.021 . S
O150 C147 1.238 . S
O151 Co145 2.052 . S
O151 C147 1.241 . S
O152 Co140 2.137 . S
O152 C143 1.247 . S
O153 Co140 2.244 . S
O153 C143 1.272 . S
O153 Co145 2.135 . S
Co154 O155 2.216 . S
Co154 O156 2.094 . S
Co154 O158 2.004 . S
Co154 O164 2.021 . S
Co154 O166 2.137 . S
Co154 O167 2.244 . S
O155 Co154 2.216 . S
O155 C162 1.247 . S
O156 Co154 2.094 . S
O156 C162 1.262 . S
C157 O166 1.247 . S
C157 O167 1.272 . S
O158 Co154 2.004 . S
O158 C163 1.259 . S
Co159 O160 2.061 . S
Co159 O165 2.052 . S
Co159 O167 2.135 . S
O160 Co159 2.061 . S
O160 C163 1.235 . S
C161 O164 1.238 . S
C161 O165 1.241 . S
C162 O155 1.247 . S
C162 O156 1.262 . S
C163 O158 1.259 . S
C163 O160 1.235 . S
O164 Co154 2.021 . S
O164 C161 1.238 . S
O165 Co159 2.052 . S
O165 C161 1.241 . S
O166 Co154 2.137 . S
O166 C157 1.247 . S
O167 Co154 2.244 . S
O167 C157 1.272 . S
O167 Co159 2.135 . S
Co168 O169 2.216 . S
Co168 O170 2.091 . S
Co168 O172 2.004 . S
Co168 O178 2.021 . S
Co168 O180 2.137 . S
Co168 O181 2.244 . S
O169 Co168 2.216 . S
O169 C176 1.247 . S
O170 Co168 2.091 . S
O170 C176 1.261 . S
C171 O180 1.247 . S
C171 O181 1.272 . S
O172 Co168 2.004 . S
O172 C177 1.259 . S
Co173 O174 2.061 . S
Co173 O179 2.052 . S
Co173 O181 2.135 . S
O174 Co173 2.061 . S
O174 C177 1.235 . S
C175 O178 1.238 . S
C175 O179 1.241 . S
C176 O169 1.247 . S
C176 O170 1.261 . S
C177 O172 1.259 . S
C177 O174 1.235 . S
O178 Co168 2.021 . S
O178 C175 1.238 . S
O179 Co173 2.052 . S
O179 C175 1.241 . S
O180 Co168 2.137 . S
O180 C171 1.247 . S
O181 Co168 2.244 . S
O181 C171 1.272 . S
O181 Co173 2.135 . S
Co182 O183 2.216 . S
Co182 O184 2.091 . S
Co182 O186 2.004 . S
Co182 O192 2.021 . S
Co182 O194 2.137 . S
Co182 O195 2.244 . S
O183 Co182 2.216 . S
O183 C190 1.247 . S
O184 Co182 2.091 . S
O184 C190 1.261 . S
C185 O194 1.247 . S
C185 O195 1.272 . S
O186 Co182 2.004 . S
O186 C191 1.259 . S
Co187 O188 2.061 . S
Co187 O193 2.052 . S
Co187 O195 2.135 . S
O188 Co187 2.061 . S
O188 C191 1.235 . S
C189 O192 1.238 . S
C189 O193 1.241 . S
C190 O183 1.247 . S
C190 O184 1.261 . S
C191 O186 1.259 . S
C191 O188 1.235 . S
O192 Co182 2.021 . S
O192 C189 1.238 . S
O193 Co187 2.052 . S
O193 C189 1.241 . S
O194 Co182 2.137 . S
O194 C185 1.247 . S
O195 Co182 2.244 . S
O195 C185 1.272 . S
O195 Co187 2.135 . S
Co196 O197 2.216 . S
Co196 O198 2.094 . S
Co196 O200 2.004 . S
Co196 O206 2.021 . S
Co196 O208 2.137 . S
Co196 O209 2.244 . S
O197 Co196 2.216 . S
O197 C204 1.247 . S
O198 Co196 2.094 . S
O198 C204 1.262 . S
C199 O208 1.247 . S
C199 O209 1.272 . S
O200 Co196 2.004 . S
O200 C205 1.259 . S
Co201 O202 2.061 . S
Co201 O207 2.052 . S
Co201 O209 2.135 . S
O202 Co201 2.061 . S
O202 C205 1.235 . S
C203 O206 1.238 . S
C203 O207 1.241 . S
C204 O197 1.247 . S
C204 O198 1.262 . S
C205 O200 1.259 . S
C205 O202 1.235 . S
O206 Co196 2.021 . S
O206 C203 1.238 . S
O207 Co201 2.052 . S
O207 C203 1.241 . S
O208 Co196 2.137 . S
O208 C199 1.247 . S
O209 Co196 2.244 . S
O209 C199 1.272 . S
O209 Co201 2.135 . S
Co210 O211 2.216 . S
Co210 O212 2.094 . S
Co210 O214 2.004 . S
Co210 O220 2.021 . S
Co210 O222 2.137 . S
Co210 O223 2.244 . S
O211 Co210 2.216 . S
O211 C218 1.247 . S
O212 Co210 2.094 . S
O212 C218 1.262 . S
C213 O222 1.247 . S
C213 O223 1.272 . S
O214 Co210 2.004 . S
O214 C219 1.259 . S
Co215 O216 2.061 . S
Co215 O221 2.052 . S
Co215 O223 2.135 . S
O216 Co215 2.061 . S
O216 C219 1.235 . S
C217 O220 1.238 . S
C217 O221 1.241 . S
C218 O211 1.247 . S
C218 O212 1.262 . S
C219 O214 1.259 . S
C219 O216 1.235 . S
O220 Co210 2.021 . S
O220 C217 1.238 . S
O221 Co215 2.052 . S
O221 C217 1.241 . S
O222 Co210 2.137 . S
O222 C213 1.247 . S
O223 Co210 2.244 . S
O223 C213 1.272 . S
O223 Co215 2.135 . S
H224 C232 0.950 . S
H225 C237 0.950 . S
H226 C234 0.950 . S
H227 C236 0.950 . S
H228 C238 0.950 . S
H229 C240 0.950 . S
H230 C242 0.950 . S
H231 C243 0.950 . S
C232 H224 0.950 . S
C232 C233 1.386 1_556 S
C232 C234 1.391 . S
C233 C232 1.386 1_554 S
C233 C237 1.393 . S
C234 H226 0.950 . S
C234 C232 1.391 . S
C234 C235 1.400 . S
C235 C234 1.400 . S
C235 C236 1.398 1_556 S
C235 C241 1.491 . S
C236 H227 0.950 . S
C236 C235 1.398 1_554 S
C236 C237 1.391 . S
C237 H225 0.950 . S
C237 C233 1.393 . S
C237 C236 1.391 . S
C238 H228 0.950 . S
C238 C239 1.386 1_554 S
C238 C240 1.391 . S
C239 C238 1.386 1_556 S
C239 C243 1.393 . S
C240 H229 0.950 . S
C240 C238 1.391 . S
C240 C241 1.400 1_554 S
C241 C235 1.491 . S
C241 C240 1.400 1_556 S
C241 C242 1.398 . S
C242 H230 0.950 . S
C242 C241 1.398 . S
C242 C243 1.391 . S
C243 H231 0.950 . S
C243 C239 1.393 . S
C243 C242 1.391 . S
H244 C252 0.950 1_554 S
H245 C257 0.950 . S
H246 C254 0.950 . S
H247 C256 0.950 . S
H248 C258 0.950 . S
H249 C260 0.950 . S
H250 C262 0.950 . S
H251 C263 0.950 . S
C252 H244 0.950 1_556 S
C252 C253 1.386 . S
C252 C254 1.391 1_556 S
C253 C252 1.386 . S
C253 C257 1.393 . S
C254 H246 0.950 . S
C254 C252 1.391 1_554 S
C254 C255 1.400 1_554 S
C255 C254 1.400 1_556 S
C255 C256 1.398 . S
C255 C261 1.491 . S
C256 H247 0.950 . S
C256 C255 1.398 . S
C256 C257 1.391 . S
C257 H245 0.950 . S
C257 C253 1.393 . S
C257 C256 1.391 . S
C258 H248 0.950 . S
C258 C259 1.386 1_556 S
C258 C260 1.391 . S
C259 C258 1.386 1_554 S
C259 C263 1.393 . S
C260 H249 0.950 . S
C260 C258 1.391 . S
C260 C261 1.400 . S
C261 C255 1.491 . S
C261 C260 1.400 . S
C261 C262 1.398 1_556 S
C262 H250 0.950 . S
C262 C261 1.398 1_554 S
C262 C263 1.391 . S
C263 H251 0.950 . S
C263 C259 1.393 . S
C263 C262 1.391 . S
H264 C272 0.950 . S
H265 C277 0.950 . S
H266 C274 0.950 . S
H267 C276 0.950 . S
H268 C278 0.950 . S
H269 C280 0.950 . S
H270 C282 0.950 . S
H271 C283 0.950 . S
C272 H264 0.950 . S
C272 C273 1.386 . S
C272 C274 1.391 . S
C273 C272 1.386 . S
C273 C277 1.393 1_556 S
C274 H266 0.950 . S
C274 C272 1.391 . S
C274 C275 1.400 . S
C275 C274 1.400 . S
C275 C276 1.398 1_556 S
C275 C281 1.491 . S
C276 H267 0.950 . S
C276 C275 1.398 1_554 S
C276 C277 1.391 . S
C277 H265 0.950 . S
C277 C273 1.393 1_554 S
C277 C276 1.391 . S
C278 H268 0.950 . S
C278 C279 1.386 . S
C278 C280 1.391 . S
C279 C278 1.386 . S
C279 C283 1.393 1_554 S
C280 H269 0.950 . S
C280 C278 1.391 . S
C280 C281 1.400 1_554 S
C281 C275 1.491 . S
C281 C280 1.400 1_556 S
C281 C282 1.398 . S
C282 H270 0.950 . S
C282 C281 1.398 . S
C282 C283 1.391 . S
C283 H271 0.950 . S
C283 C279 1.393 1_556 S
C283 C282 1.391 . S
H284 C292 0.950 . S
H285 C297 0.950 . S
H286 C294 0.950 . S
H287 C296 0.950 . S
H288 C298 0.950 . S
H289 C300 0.950 . S
H290 C302 0.950 . S
H291 C303 0.950 . S
C292 H284 0.950 . S
C292 C293 1.386 . S
C292 C294 1.391 . S
C293 C292 1.386 . S
C293 C297 1.393 1_556 S
C294 H286 0.950 . S
C294 C292 1.391 . S
C294 C295 1.400 . S
C295 C294 1.400 . S
C295 C296 1.398 1_556 S
C295 C301 1.491 . S
C296 H287 0.950 . S
C296 C295 1.398 1_554 S
C296 C297 1.391 . S
C297 H285 0.950 . S
C297 C293 1.393 1_554 S
C297 C296 1.391 . S
C298 H288 0.950 . S
C298 C299 1.386 . S
C298 C300 1.391 . S
C299 C298 1.386 . S
C299 C303 1.393 1_554 S
C300 H289 0.950 . S
C300 C298 1.391 . S
C300 C301 1.400 1_554 S
C301 C295 1.491 . S
C301 C300 1.400 1_556 S
C301 C302 1.398 . S
C302 H290 0.950 . S
C302 C301 1.398 . S
C302 C303 1.391 . S
C303 H291 0.950 . S
C303 C299 1.393 1_556 S
C303 C302 1.391 . S
H304 C312 0.950 . S
H305 C317 0.950 . S
H306 C314 0.950 . S
H307 C316 0.950 . S
H308 C318 0.950 . S
H309 C320 0.950 . S
H310 C322 0.950 . S
H311 C323 0.950 . S
C312 H304 0.950 . S
C312 C313 1.386 . S
C312 C314 1.391 . S
C313 C312 1.386 . S
C313 C317 1.393 . S
C314 H306 0.950 . S
C314 C312 1.391 . S
C314 C315 1.400 . S
C315 C314 1.400 . S
C315 C316 1.398 . S
C315 C321 1.491 . S
C316 H307 0.950 . S
C316 C315 1.398 . S
C316 C317 1.391 . S
C317 H305 0.950 . S
C317 C313 1.393 . S
C317 C316 1.391 . S
C318 H308 0.950 . S
C318 C319 1.386 . S
C318 C320 1.391 . S
C319 C318 1.386 . S
C319 C323 1.393 . S
C320 H309 0.950 . S
C320 C318 1.391 . S
C320 C321 1.400 . S
C321 C315 1.491 . S
C321 C320 1.400 . S
C321 C322 1.398 . S
C322 H310 0.950 . S
C322 C321 1.398 . S
C322 C323 1.391 . S
C323 H311 0.950 . S
C323 C319 1.393 . S
C323 C322 1.391 . S
H324 C332 0.950 . S
H325 C337 0.950 . S
H326 C334 0.950 . S
H327 C336 0.950 . S
H328 C338 0.950 . S
H329 C340 0.950 . S
H330 C342 0.950 . S
H331 C343 0.950 . S
C332 H324 0.950 . S
C332 C333 1.386 . S
C332 C334 1.391 . S
C333 C332 1.386 . S
C333 C337 1.393 . S
C334 H326 0.950 . S
C334 C332 1.391 . S
C334 C335 1.400 . S
C335 C334 1.400 . S
C335 C336 1.398 . S
C335 C341 1.491 . S
C336 H327 0.950 . S
C336 C335 1.398 . S
C336 C337 1.391 . S
C337 H325 0.950 . S
C337 C333 1.393 . S
C337 C336 1.391 . S
C338 H328 0.950 . S
C338 C339 1.386 . S
C338 C340 1.391 . S
C339 C338 1.386 . S
C339 C343 1.393 . S
C340 H329 0.950 . S
C340 C338 1.391 . S
C340 C341 1.400 . S
C341 C335 1.491 . S
C341 C340 1.400 . S
C341 C342 1.398 . S
C342 H330 0.950 . S
C342 C341 1.398 . S
C342 C343 1.391 . S
C343 H331 0.950 . S
C343 C339 1.393 . S
C343 C342 1.391 . S
H344 C352 0.950 . S
H345 C357 0.950 . S
H346 C354 0.950 . S
H347 C356 0.950 . S
H348 C358 0.950 . S
H349 C360 0.950 . S
H350 C362 0.950 . S
H351 C363 0.950 . S
C352 H344 0.950 . S
C352 C353 1.386 . S
C352 C354 1.391 . S
C353 C352 1.386 . S
C353 C357 1.393 . S
C354 H346 0.950 . S
C354 C352 1.391 . S
C354 C355 1.400 . S
C355 C354 1.400 . S
C355 C356 1.398 . S
C355 C361 1.491 . S
C356 H347 0.950 . S
C356 C355 1.398 . S
C356 C357 1.391 . S
C357 H345 0.950 . S
C357 C353 1.393 . S
C357 C356 1.391 . S
C358 H348 0.950 . S
C358 C359 1.386 . S
C358 C360 1.391 . S
C359 C358 1.386 . S
C359 C363 1.393 . S
C360 H349 0.950 . S
C360 C358 1.391 . S
C360 C361 1.400 . S
C361 C355 1.491 . S
C361 C360 1.400 . S
C361 C362 1.398 . S
C362 H350 0.950 . S
C362 C361 1.398 . S
C362 C363 1.391 . S
C363 H351 0.950 . S
C363 C359 1.393 . S
C363 C362 1.391 . S
H364 C372 0.950 . S
H365 C377 0.950 . S
H366 C374 0.950 . S
H367 C376 0.950 . S
H368 C378 0.950 . S
H369 C380 0.950 . S
H370 C382 0.950 . S
H371 C383 0.950 . S
C372 H364 0.950 . S
C372 C373 1.386 . S
C372 C374 1.391 . S
C373 C372 1.386 . S
C373 C377 1.393 . S
C374 H366 0.950 . S
C374 C372 1.391 . S
C374 C375 1.400 . S
C375 C374 1.400 . S
C375 C376 1.398 . S
C375 C381 1.491 . S
C376 H367 0.950 . S
C376 C375 1.398 . S
C376 C377 1.391 . S
C377 H365 0.950 . S
C377 C373 1.393 . S
C377 C376 1.391 . S
C378 H368 0.950 . S
C378 C379 1.386 . S
C378 C380 1.391 . S
C379 C378 1.386 . S
C379 C383 1.393 . S
C380 H369 0.950 . S
C380 C378 1.391 . S
C380 C381 1.400 . S
C381 C375 1.491 . S
C381 C380 1.400 . S
C381 C382 1.398 . S
C382 H370 0.950 . S
C382 C381 1.398 . S
C382 C383 1.391 . S
C383 H371 0.950 . S
C383 C379 1.393 . S
C383 C382 1.391 . S
H384 C392 0.949 1_554 S
H385 C397 0.950 . S
H386 C394 0.950 . S
H387 C396 0.950 . S
H388 C398 0.950 . S
H389 C400 0.947 1_556 S
H390 C402 0.950 . S
H391 C403 0.950 . S
C392 H384 0.949 1_556 S
C392 C393 1.386 . S
C392 C394 1.391 1_556 S
C393 C392 1.386 . S
C393 C397 1.393 . S
C394 H386 0.950 . S
C394 C392 1.391 1_554 S
C394 C395 1.400 . S
C395 C394 1.400 . S
C395 C396 1.398 1_554 S
C395 C401 1.491 . S
C396 H387 0.950 . S
C396 C395 1.398 1_556 S
C396 C397 1.391 . S
C397 H385 0.950 . S
C397 C393 1.393 . S
C397 C396 1.391 . S
C398 H388 0.950 . S
C398 C399 1.386 . S
C398 C400 1.391 . S
C399 C398 1.386 . S
C399 C403 1.393 . S
C400 H389 0.947 1_554 S
C400 C398 1.391 . S
C400 C401 1.400 . S
C401 C395 1.491 . S
C401 C400 1.400 . S
C401 C402 1.398 . S
C402 H390 0.950 . S
C402 C401 1.398 . S
C402 C403 1.391 . S
C403 H391 0.950 . S
C403 C399 1.393 . S
C403 C402 1.391 . S
H404 C412 0.950 . S
H405 C417 0.950 . S
H406 C414 0.950 . S
H407 C416 0.950 . S
H408 C418 0.950 . S
H409 C420 0.950 . S
H410 C422 0.950 . S
H411 C423 0.950 . S
C412 H404 0.950 . S
C412 C413 1.386 1_554 S
C412 C414 1.391 . S
C413 C412 1.386 1_556 S
C413 C417 1.393 . S
C414 H406 0.950 . S
C414 C412 1.391 . S
C414 C415 1.400 . S
C415 C414 1.400 . S
C415 C416 1.398 1_554 S
C415 C421 1.491 . S
C416 H407 0.950 . S
C416 C415 1.398 1_556 S
C416 C417 1.391 . S
C417 H405 0.950 . S
C417 C413 1.393 . S
C417 C416 1.391 . S
C418 H408 0.950 . S
C418 C419 1.386 1_556 S
C418 C420 1.391 . S
C419 C418 1.386 1_554 S
C419 C423 1.393 . S
C420 H409 0.950 . S
C420 C418 1.391 . S
C420 C421 1.400 1_556 S
C421 C415 1.491 . S
C421 C420 1.400 1_554 S
C421 C422 1.398 . S
C422 H410 0.950 . S
C422 C421 1.398 . S
C422 C423 1.391 . S
C423 H411 0.950 . S
C423 C419 1.393 . S
C423 C422 1.391 . S
H424 C432 0.950 . S
H425 C437 0.950 . S
H426 C434 0.950 . S
H427 C436 0.950 . S
H428 C438 0.950 . S
H429 C440 0.950 . S
H430 C442 0.950 . S
H431 C443 0.950 . S
C432 H424 0.950 . S
C432 C433 1.386 1_554 S
C432 C434 1.391 . S
C433 C432 1.386 1_556 S
C433 C437 1.393 . S
C434 H426 0.950 . S
C434 C432 1.391 . S
C434 C435 1.400 . S
C435 C434 1.400 . S
C435 C436 1.398 1_554 S
C435 C441 1.491 . S
C436 H427 0.950 . S
C436 C435 1.398 1_556 S
C436 C437 1.391 . S
C437 H425 0.950 . S
C437 C433 1.393 . S
C437 C436 1.391 . S
C438 H428 0.950 . S
C438 C439 1.386 1_556 S
C438 C440 1.391 . S
C439 C438 1.386 1_554 S
C439 C443 1.393 . S
C440 H429 0.950 . S
C440 C438 1.391 . S
C440 C441 1.400 1_556 S
C441 C435 1.491 . S
C441 C440 1.400 1_554 S
C441 C442 1.398 . S
C442 H430 0.950 . S
C442 C441 1.398 . S
C442 C443 1.391 . S
C443 H431 0.950 . S
C443 C439 1.393 . S
C443 C442 1.391 . S
H444 C452 0.950 . S
H445 C457 0.950 . S
H446 C454 0.950 . S
H447 C456 0.950 . S
H448 C458 0.950 . S
H449 C460 0.950 . S
H450 C462 0.950 . S
H451 C463 0.950 . S
C452 H444 0.950 . S
C452 C453 1.386 . S
C452 C454 1.391 . S
C453 C452 1.386 . S
C453 C457 1.393 1_554 S
C454 H446 0.950 . S
C454 C452 1.391 . S
C454 C455 1.400 . S
C455 C454 1.400 . S
C455 C456 1.398 1_554 S
C455 C461 1.491 . S
C456 H447 0.950 . S
C456 C455 1.398 1_556 S
C456 C457 1.391 . S
C457 H445 0.950 . S
C457 C453 1.393 1_556 S
C457 C456 1.391 . S
C458 H448 0.950 . S
C458 C459 1.386 . S
C458 C460 1.391 . S
C459 C458 1.386 . S
C459 C463 1.393 1_556 S
C460 H449 0.950 . S
C460 C458 1.391 . S
C460 C461 1.400 1_556 S
C461 C455 1.491 . S
C461 C460 1.400 1_554 S
C461 C462 1.398 . S
C462 H450 0.950 . S
C462 C461 1.398 . S
C462 C463 1.391 . S
C463 H451 0.950 . S
C463 C459 1.393 1_554 S
C463 C462 1.391 . S
H464 C472 0.950 . S
H465 C477 0.950 . S
H466 C474 0.950 . S
H467 C476 0.950 . S
H468 C478 0.950 . S
H469 C480 0.950 . S
H470 C482 0.950 . S
H471 C483 0.950 . S
C472 H464 0.950 . S
C472 C473 1.386 . S
C472 C474 1.391 . S
C473 C472 1.386 . S
C473 C477 1.393 . S
C474 H466 0.950 . S
C474 C472 1.391 . S
C474 C475 1.400 . S
C475 C474 1.400 . S
C475 C476 1.398 . S
C475 C481 1.491 . S
C476 H467 0.950 . S
C476 C475 1.398 . S
C476 C477 1.391 . S
C477 H465 0.950 . S
C477 C473 1.393 . S
C477 C476 1.391 . S
C478 H468 0.950 . S
C478 C479 1.386 . S
C478 C480 1.391 . S
C479 C478 1.386 . S
C479 C483 1.393 . S
C480 H469 0.950 . S
C480 C478 1.391 . S
C480 C481 1.400 . S
C481 C475 1.491 . S
C481 C480 1.400 . S
C481 C482 1.398 . S
C482 H470 0.950 . S
C482 C481 1.398 . S
C482 C483 1.391 . S
C483 H471 0.950 . S
C483 C479 1.393 . S
C483 C482 1.391 . S
H484 C492 0.950 . S
H485 C497 0.950 . S
H486 C494 0.950 . S
H487 C496 0.950 . S
H488 C498 0.950 . S
H489 C500 0.950 . S
H490 C502 0.950 . S
H491 C503 0.950 . S
C492 H484 0.950 . S
C492 C493 1.386 . S
C492 C494 1.391 . S
C493 C492 1.386 . S
C493 C497 1.393 . S
C494 H486 0.950 . S
C494 C492 1.391 . S
C494 C495 1.400 . S
C495 C494 1.400 . S
C495 C496 1.398 . S
C495 C501 1.491 . S
C496 H487 0.950 . S
C496 C495 1.398 . S
C496 C497 1.391 . S
C497 H485 0.950 . S
C497 C493 1.393 . S
C497 C496 1.391 . S
C498 H488 0.950 . S
C498 C499 1.386 . S
C498 C500 1.391 . S
C499 C498 1.386 . S
C499 C503 1.393 . S
C500 H489 0.950 . S
C500 C498 1.391 . S
C500 C501 1.400 . S
C501 C495 1.491 . S
C501 C500 1.400 . S
C501 C502 1.398 . S
C502 H490 0.950 . S
C502 C501 1.398 . S
C502 C503 1.391 . S
C503 H491 0.950 . S
C503 C499 1.393 . S
C503 C502 1.391 . S
H504 C512 0.950 . S
H505 C517 0.950 . S
H506 C514 0.950 . S
H507 C516 0.950 . S
H508 C518 0.950 . S
H509 C520 0.950 . S
H510 C522 0.950 . S
H511 C523 0.950 . S
C512 H504 0.950 . S
C512 C513 1.386 . S
C512 C514 1.391 . S
C513 C512 1.386 . S
C513 C517 1.393 . S
C514 H506 0.950 . S
C514 C512 1.391 . S
C514 C515 1.400 . S
C515 C514 1.400 . S
C515 C516 1.398 . S
C515 C521 1.491 . S
C516 H507 0.950 . S
C516 C515 1.398 . S
C516 C517 1.391 . S
C517 H505 0.950 . S
C517 C513 1.393 . S
C517 C516 1.391 . S
C518 H508 0.950 . S
C518 C519 1.386 . S
C518 C520 1.391 . S
C519 C518 1.386 . S
C519 C523 1.393 . S
C520 H509 0.950 . S
C520 C518 1.391 . S
C520 C521 1.400 . S
C521 C515 1.491 . S
C521 C520 1.400 . S
C521 C522 1.398 . S
C522 H510 0.950 . S
C522 C521 1.398 . S
C522 C523 1.391 . S
C523 H511 0.950 . S
C523 C519 1.393 . S
C523 C522 1.391 . S
H524 C532 0.950 . S
H525 C537 0.950 . S
H526 C534 0.950 . S
H527 C536 0.950 . S
H528 C538 0.950 . S
H529 C540 0.950 . S
H530 C542 0.950 . S
H531 C543 0.950 . S
C532 H524 0.950 . S
C532 C533 1.386 . S
C532 C534 1.391 . S
C533 C532 1.386 . S
C533 C537 1.393 . S
C534 H526 0.950 . S
C534 C532 1.391 . S
C534 C535 1.400 . S
C535 C534 1.400 . S
C535 C536 1.398 . S
C535 C541 1.491 . S
C536 H527 0.950 . S
C536 C535 1.398 . S
C536 C537 1.391 . S
C537 H525 0.950 . S
C537 C533 1.393 . S
C537 C536 1.391 . S
C538 H528 0.950 . S
C538 C539 1.386 . S
C538 C540 1.391 . S
C539 C538 1.386 . S
C539 C543 1.393 . S
C540 H529 0.950 . S
C540 C538 1.391 . S
C540 C541 1.400 . S
C541 C535 1.491 . S
C541 C540 1.400 . S
C541 C542 1.398 . S
C542 H530 0.950 . S
C542 C541 1.398 . S
C542 C543 1.391 . S
C543 H531 0.950 . S
C543 C539 1.393 . S
C543 C542 1.391 . S
H544 C552 0.950 . S
H545 C557 0.950 . S
H546 C554 0.942 1_554 S
H547 C556 0.950 . S
H548 C558 0.950 . S
H549 C560 0.942 1_556 S
H550 C562 0.950 . S
H551 C563 0.950 . S
C552 H544 0.950 . S
C552 C553 1.386 . S
C552 C554 1.391 . S
C553 C552 1.386 . S
C553 C557 1.393 . S
C554 H546 0.942 1_556 S
C554 C552 1.391 . S
C554 C555 1.400 . S
C555 C554 1.400 . S
C555 C556 1.398 . S
C555 C561 1.491 1_566 S
C556 H547 0.950 . S
C556 C555 1.398 . S
C556 C557 1.391 . S
C557 H545 0.950 . S
C557 C553 1.393 . S
C557 C556 1.391 . S
C558 H548 0.950 . S
C558 C559 1.386 . S
C558 C560 1.391 . S
C559 C558 1.386 . S
C559 C563 1.393 . S
C560 H549 0.942 1_554 S
C560 C558 1.391 . S
C560 C561 1.400 . S
C561 C555 1.491 1_544 S
C561 C560 1.400 . S
C561 C562 1.398 . S
C562 H550 0.950 . S
C562 C561 1.398 . S
C562 C563 1.391 . S
C563 H551 0.950 . S
C563 C559 1.393 . S
C563 C562 1.391 . S
H564 C572 0.950 . S
H565 C577 0.950 . S
H566 C574 0.950 . S
H567 C576 0.950 . S
H568 C578 0.950 . S
H569 C580 0.950 . S
H570 C582 0.950 . S
H571 C583 0.950 . S
C572 H564 0.950 . S
C572 C573 1.386 1_556 S
C572 C574 1.391 . S
C573 C572 1.386 1_554 S
C573 C577 1.393 . S
C574 H566 0.950 . S
C574 C572 1.391 . S
C574 C575 1.400 1_556 S
C575 C574 1.400 1_554 S
C575 C576 1.398 . S
C575 C581 1.491 1_554 S
C576 H567 0.950 . S
C576 C575 1.398 . S
C576 C577 1.391 . S
C577 H565 0.950 . S
C577 C573 1.393 . S
C577 C576 1.391 . S
C578 H568 0.950 . S
C578 C579 1.386 1_554 S
C578 C580 1.391 . S
C579 C578 1.386 1_556 S
C579 C583 1.393 . S
C580 H569 0.950 . S
C580 C578 1.391 . S
C580 C581 1.400 1_554 S
C581 C575 1.491 1_556 S
C581 C580 1.400 1_556 S
C581 C582 1.398 . S
C582 H570 0.950 . S
C582 C581 1.398 . S
C582 C583 1.391 . S
C583 H571 0.950 . S
C583 C579 1.393 . S
C583 C582 1.391 . S
H584 C592 0.950 . S
H585 C597 0.950 . S
H586 C594 0.950 . S
H587 C596 0.950 . S
H588 C598 0.950 . S
H589 C600 0.950 . S
H590 C602 0.950 . S
H591 C603 0.950 . S
C592 H584 0.950 . S
C592 C593 1.386 1_554 S
C592 C594 1.391 . S
C593 C592 1.386 1_556 S
C593 C597 1.393 . S
C594 H586 0.950 . S
C594 C592 1.391 . S
C594 C595 1.400 1_554 S
C595 C594 1.400 1_556 S
C595 C596 1.398 . S
C595 C601 1.491 1_656 S
C596 H587 0.950 . S
C596 C595 1.398 . S
C596 C597 1.391 . S
C597 H585 0.950 . S
C597 C593 1.393 . S
C597 C596 1.391 . S
C598 H588 0.950 . S
C598 C599 1.386 1_556 S
C598 C600 1.391 . S
C599 C598 1.386 1_554 S
C599 C603 1.393 . S
C600 H589 0.950 . S
C600 C598 1.391 . S
C600 C601 1.400 1_556 S
C601 C595 1.491 1_454 S
C601 C600 1.400 1_554 S
C601 C602 1.398 . S
C602 H590 0.950 . S
C602 C601 1.398 . S
C602 C603 1.391 . S
C603 H591 0.950 . S
C603 C599 1.393 . S
C603 C602 1.391 . S
H604 C612 0.956 . S
H605 C617 0.950 . S
H606 C614 0.950 . S
H607 C616 0.950 . S
H608 C618 0.956 . S
H609 C620 0.950 . S
H610 C622 0.950 . S
H611 C623 0.950 . S
C612 H604 0.956 . S
C612 C613 1.386 . S
C612 C614 1.391 1_554 S
C613 C612 1.386 . S
C613 C617 1.393 1_545 S
C614 H606 0.950 . S
C614 C612 1.391 1_556 S
C614 C615 1.416 1_556 S
C615 C614 1.416 1_554 S
C615 C616 1.384 1_545 S
C615 C621 1.490 1_444 S
C616 H607 0.950 . S
C616 C615 1.384 1_565 S
C616 C617 1.391 . S
C617 H605 0.950 . S
C617 C613 1.393 1_565 S
C617 C616 1.391 . S
C618 H608 0.956 . S
C618 C619 1.386 . S
C618 C620 1.391 1_556 S
C619 C618 1.386 . S
C619 C623 1.393 1_565 S
C620 H609 0.950 . S
C620 C618 1.391 1_554 S
C620 C621 1.416 1_554 S
C621 C615 1.490 1_666 S
C621 C620 1.416 1_556 S
C621 C622 1.384 1_565 S
C622 H610 0.950 . S
C622 C621 1.384 1_545 S
C622 C623 1.391 . S
C623 H611 0.950 . S
C623 C619 1.393 1_545 S
C623 C622 1.391 . S
H624 C632 0.950 . S
H625 C637 0.950 . S
H626 C634 0.950 . S
H627 C636 0.950 . S
H628 C638 0.950 . S
H629 C640 0.950 . S
H630 C642 0.950 . S
H631 C643 0.950 . S
C632 H624 0.950 . S
C632 C633 1.386 . S
C632 C634 1.391 . S
C633 C632 1.386 . S
C633 C637 1.393 . S
C634 H626 0.950 . S
C634 C632 1.391 . S
C634 C635 1.400 . S
C635 C634 1.400 . S
C635 C636 1.398 . S
C635 C641 1.491 . S
C636 H627 0.950 . S
C636 C635 1.398 . S
C636 C637 1.391 . S
C637 H625 0.950 . S
C637 C633 1.393 . S
C637 C636 1.391 . S
C638 H628 0.950 . S
C638 C639 1.386 . S
C638 C640 1.391 . S
C639 C638 1.386 . S
C639 C643 1.393 . S
C640 H629 0.950 . S
C640 C638 1.391 . S
C640 C641 1.400 . S
C641 C635 1.491 . S
C641 C640 1.400 . S
C641 C642 1.398 . S
C642 H630 0.950 . S
C642 C641 1.398 . S
C642 C643 1.391 . S
C643 H631 0.950 . S
C643 C639 1.393 . S
C643 C642 1.391 . S
H644 C652 0.950 . S
H645 C657 0.950 . S
H646 C654 0.950 . S
H647 C656 0.950 . S
H648 C658 0.950 . S
H649 C660 0.950 . S
H650 C662 0.950 . S
H651 C663 0.950 . S
C652 H644 0.950 . S
C652 C653 1.386 . S
C652 C654 1.391 . S
C653 C652 1.386 . S
C653 C657 1.393 . S
C654 H646 0.950 . S
C654 C652 1.391 . S
C654 C655 1.400 . S
C655 C654 1.400 . S
C655 C656 1.398 . S
C655 C661 1.491 1_455 S
C656 H647 0.950 . S
C656 C655 1.398 . S
C656 C657 1.391 . S
C657 H645 0.950 . S
C657 C653 1.393 . S
C657 C656 1.391 . S
C658 H648 0.950 . S
C658 C659 1.386 . S
C658 C660 1.391 . S
C659 C658 1.386 . S
C659 C663 1.393 . S
C660 H649 0.950 . S
C660 C658 1.391 . S
C660 C661 1.400 . S
C661 C655 1.491 1_655 S
C661 C660 1.400 . S
C661 C662 1.398 . S
C662 H650 0.950 . S
C662 C661 1.398 . S
C662 C663 1.391 . S
C663 H651 0.950 . S
C663 C659 1.393 . S
C663 C662 1.391 . S
H664 C672 0.950 . S
H665 C677 0.950 . S
H666 C674 0.950 . S
H667 C676 0.950 . S
H668 C678 0.950 . S
H669 C680 0.950 . S
H670 C682 0.950 . S
H671 C683 0.950 . S
C672 H664 0.950 . S
C672 C673 1.386 . S
C672 C674 1.391 . S
C673 C672 1.386 . S
C673 C677 1.393 1_655 S
C674 H666 0.950 . S
C674 C672 1.391 . S
C674 C675 1.405 . S
C675 C674 1.405 . S
C675 C676 1.393 1_655 S
C675 C681 1.490 1_665 S
C676 H667 0.950 . S
C676 C675 1.393 1_455 S
C676 C677 1.391 . S
C677 H665 0.950 . S
C677 C673 1.393 1_455 S
C677 C676 1.391 . S
C678 H668 0.950 . S
C678 C679 1.386 . S
C678 C680 1.391 . S
C679 C678 1.386 . S
C679 C683 1.393 1_455 S
C680 H669 0.950 . S
C680 C678 1.391 . S
C680 C681 1.405 . S
C681 C675 1.490 1_445 S
C681 C680 1.405 . S
C681 C682 1.393 1_455 S
C682 H670 0.950 . S
C682 C681 1.393 1_655 S
C682 C683 1.391 . S
C683 H671 0.950 . S
C683 C679 1.393 1_655 S
C683 C682 1.391 . S
H684 C692 0.950 . S
H685 C697 0.950 . S
H686 C694 0.950 . S
H687 C696 0.950 . S
H688 C698 0.950 . S
H689 C700 0.950 . S
H690 C702 0.950 . S
H691 C703 0.950 . S
C692 H684 0.950 . S
C692 C693 1.386 . S
C692 C694 1.391 . S
C693 C692 1.386 . S
C693 C697 1.393 1_565 S
C694 H686 0.950 . S
C694 C692 1.391 . S
C694 C695 1.414 . S
C695 C694 1.414 . S
C695 C696 1.385 1_565 S
C695 C701 1.490 1_565 S
C696 H687 0.950 . S
C696 C695 1.385 1_545 S
C696 C697 1.391 . S
C697 H685 0.950 . S
C697 C693 1.393 1_545 S
C697 C696 1.391 . S
C698 H688 0.950 . S
C698 C699 1.386 . S
C698 C700 1.391 . S
C699 C698 1.386 . S
C699 C703 1.393 1_545 S
C700 H689 0.950 . S
C700 C698 1.391 . S
C700 C701 1.414 . S
C701 C695 1.490 1_545 S
C701 C700 1.414 . S
C701 C702 1.385 1_545 S
C702 H690 0.950 . S
C702 C701 1.385 1_565 S
C702 C703 1.391 . S
C703 H691 0.950 . S
C703 C699 1.393 1_565 S
C703 C702 1.391 . S
H704 C712 0.950 . S
H705 C717 0.950 . S
H706 C714 0.950 . S
H707 C716 0.950 . S
H708 C718 0.950 . S
H709 C720 0.950 . S
H710 C722 0.950 . S
H711 C723 0.950 . S
C712 H704 0.950 . S
C712 C713 1.386 . S
C712 C714 1.391 . S
C713 C712 1.386 . S
C713 C717 1.393 . S
C714 H706 0.950 . S
C714 C712 1.391 . S
C714 C715 1.400 . S
C715 C714 1.400 . S
C715 C716 1.398 . S
C715 C721 1.491 . S
C716 H707 0.950 . S
C716 C715 1.398 . S
C716 C717 1.391 . S
C717 H705 0.950 . S
C717 C713 1.393 . S
C717 C716 1.391 . S
C718 H708 0.950 . S
C718 C719 1.386 . S
C718 C720 1.391 . S
C719 C718 1.386 . S
C719 C723 1.393 . S
C720 H709 0.950 . S
C720 C718 1.391 . S
C720 C721 1.400 . S
C721 C715 1.491 . S
C721 C720 1.400 . S
C721 C722 1.398 . S
C722 H710 0.950 . S
C722 C721 1.398 . S
C722 C723 1.391 . S
C723 H711 0.950 . S
C723 C719 1.393 . S
C723 C722 1.391 . S
H724 C732 0.950 . S
H725 C737 0.950 . S
H726 C734 0.950 . S
H727 C736 0.950 . S
H728 C738 0.950 . S
H729 C740 0.950 . S
H730 C742 0.950 . S
H731 C743 0.950 . S
C732 H724 0.950 . S
C732 C733 1.386 . S
C732 C734 1.391 . S
C733 C732 1.386 . S
C733 C737 1.393 . S
C734 H726 0.950 . S
C734 C732 1.391 . S
C734 C735 1.400 . S
C735 C734 1.400 . S
C735 C736 1.398 . S
C735 C741 1.491 . S
C736 H727 0.950 . S
C736 C735 1.398 . S
C736 C737 1.391 . S
C737 H725 0.950 . S
C737 C733 1.393 . S
C737 C736 1.391 . S
C738 H728 0.950 . S
C738 C739 1.386 . S
C738 C740 1.391 . S
C739 C738 1.386 . S
C739 C743 1.393 . S
C740 H729 0.950 . S
C740 C738 1.391 . S
C740 C741 1.400 . S
C741 C735 1.491 . S
C741 C740 1.400 . S
C741 C742 1.398 . S
C742 H730 0.950 . S
C742 C741 1.398 . S
C742 C743 1.391 . S
C743 H731 0.950 . S
C743 C739 1.393 . S
C743 C742 1.391 . S
H744 C752 0.950 . S
H745 C757 0.950 1_455 S
H746 C754 0.950 . S
H747 C756 0.950 1_455 S
H748 C758 0.950 1_455 S
H749 C760 0.950 1_455 S
H750 C762 0.950 . S
H751 C763 0.950 . S
C752 H744 0.950 . S
C752 C753 1.386 . S
C752 C754 1.391 . S
C753 C752 1.386 . S
C753 C757 1.393 . S
C754 H746 0.950 . S
C754 C752 1.391 . S
C754 C755 1.400 . S
C755 C754 1.400 . S
C755 C756 1.398 . S
C755 C761 1.491 . S
C756 H747 0.950 1_655 S
C756 C755 1.398 . S
C756 C757 1.391 . S
C757 H745 0.950 1_655 S
C757 C753 1.393 . S
C757 C756 1.391 . S
C758 H748 0.950 1_655 S
C758 C759 1.386 . S
C758 C760 1.391 . S
C759 C758 1.386 . S
C759 C763 1.393 . S
C760 H749 0.950 1_655 S
C760 C758 1.391 . S
C760 C761 1.400 . S
C761 C755 1.491 . S
C761 C760 1.400 . S
C761 C762 1.398 . S
C762 H750 0.950 . S
C762 C761 1.398 . S
C762 C763 1.391 . S
C763 H751 0.950 . S
C763 C759 1.393 . S
C763 C762 1.391 . S
H764 C772 0.950 . S
H765 C777 0.950 . S
H766 C774 0.950 . S
H767 C776 0.950 . S
H768 C778 0.950 . S
H769 C780 0.950 . S
H770 C782 0.950 . S
H771 C783 0.950 . S
C772 H764 0.950 . S
C772 C773 1.386 1_545 S
C772 C774 1.391 . S
C773 C772 1.386 1_565 S
C773 C777 1.393 . S
C774 H766 0.950 . S
C774 C772 1.391 . S
C774 C775 1.400 1_545 S
C775 C774 1.400 1_565 S
C775 C776 1.398 . S
C775 C781 1.491 . S
C776 H767 0.950 . S
C776 C775 1.398 . S
C776 C777 1.391 . S
C777 H765 0.950 . S
C777 C773 1.393 . S
C777 C776 1.391 . S
C778 H768 0.950 . S
C778 C779 1.386 . S
C778 C780 1.391 . S
C779 C778 1.386 . S
C779 C783 1.393 1_565 S
C780 H769 0.950 . S
C780 C778 1.391 . S
C780 C781 1.400 . S
C781 C775 1.491 . S
C781 C780 1.400 . S
C781 C782 1.398 1_565 S
C782 H770 0.950 . S
C782 C781 1.398 1_545 S
C782 C783 1.391 . S
C783 H771 0.950 . S
C783 C779 1.393 1_545 S
C783 C782 1.391 . S
H784 C792 0.950 . S
H785 C797 0.950 . S
H786 C794 0.950 . S
H787 C796 0.950 . S
H788 C798 0.950 . S
H789 C800 0.950 . S
H790 C802 0.950 . S
H791 C803 0.950 . S
C792 H784 0.950 . S
C792 C793 1.386 . S
C792 C794 1.391 . S
C793 C792 1.386 . S
C793 C797 1.393 . S
C794 H786 0.950 . S
C794 C792 1.391 . S
C794 C795 1.400 . S
C795 C794 1.400 . S
C795 C796 1.398 . S
C795 C801 1.491 . S
C796 H787 0.950 . S
C796 C795 1.398 . S
C796 C797 1.391 . S
C797 H785 0.950 . S
C797 C793 1.393 . S
C797 C796 1.391 . S
C798 H788 0.950 . S
C798 C799 1.386 . S
C798 C800 1.391 . S
C799 C798 1.386 . S
C799 C803 1.393 . S
C800 H789 0.950 . S
C800 C798 1.391 . S
C800 C801 1.400 . S
C801 C795 1.491 . S
C801 C800 1.400 . S
C801 C802 1.398 . S
C802 H790 0.950 . S
C802 C801 1.398 . S
C802 C803 1.391 . S
C803 H791 0.950 . S
C803 C799 1.393 . S
C803 C802 1.391 . S
H804 C812 0.950 . S
H805 C817 0.950 . S
H806 C814 0.950 . S
H807 C816 0.950 . S
H808 C818 0.950 . S
H809 C820 0.950 . S
H810 C822 0.950 . S
H811 C823 0.950 . S
C812 H804 0.950 . S
C812 C813 1.386 . S
C812 C814 1.391 . S
C813 C812 1.386 . S
C813 C817 1.393 . S
C814 H806 0.950 . S
C814 C812 1.391 . S
C814 C815 1.400 . S
C815 C814 1.400 . S
C815 C816 1.398 . S
C815 C821 1.491 . S
C816 H807 0.950 . S
C816 C815 1.398 . S
C816 C817 1.391 . S
C817 H805 0.950 . S
C817 C813 1.393 . S
C817 C816 1.391 . S
C818 H808 0.950 . S
C818 C819 1.386 . S
C818 C820 1.391 . S
C819 C818 1.386 . S
C819 C823 1.393 . S
C820 H809 0.950 . S
C820 C818 1.391 . S
C820 C821 1.400 . S
C821 C815 1.491 . S
C821 C820 1.400 . S
C821 C822 1.398 . S
C822 H810 0.950 . S
C822 C821 1.398 . S
C822 C823 1.391 . S
C823 H811 0.950 . S
C823 C819 1.393 . S
C823 C822 1.391 . S
H824 C832 0.950 . S
H825 C837 0.950 . S
H826 C834 0.950 . S
H827 C836 0.950 . S
H828 C838 0.950 . S
H829 C840 0.950 . S
H830 C842 0.950 . S
H831 C843 0.950 . S
C832 H824 0.950 . S
C832 C833 1.386 . S
C832 C834 1.391 . S
C833 C832 1.386 . S
C833 C837 1.393 . S
C834 H826 0.950 . S
C834 C832 1.391 . S
C834 C835 1.400 . S
C835 C834 1.400 . S
C835 C836 1.398 . S
C835 C841 1.491 . S
C836 H827 0.950 . S
C836 C835 1.398 . S
C836 C837 1.391 . S
C837 H825 0.950 . S
C837 C833 1.393 . S
C837 C836 1.391 . S
C838 H828 0.950 . S
C838 C839 1.386 . S
C838 C840 1.391 . S
C839 C838 1.386 . S
C839 C843 1.393 . S
C840 H829 0.950 . S
C840 C838 1.391 . S
C840 C841 1.400 . S
C841 C835 1.491 . S
C841 C840 1.400 . S
C841 C842 1.398 . S
C842 H830 0.950 . S
C842 C841 1.398 . S
C842 C843 1.391 . S
C843 H831 0.950 . S
C843 C839 1.393 . S
C843 C842 1.391 . S
H844 C852 0.950 . S
H845 C857 0.940 1_565 S
H846 C854 0.950 . S
H847 C856 0.950 1_565 S
H848 C858 0.950 . S
H849 C860 0.950 . S
H850 C862 0.950 . S
H851 C863 0.950 . S
C852 H844 0.950 . S
C852 C853 1.386 . S
C852 C854 1.391 . S
C853 C852 1.386 . S
C853 C857 1.393 . S
C854 H846 0.950 . S
C854 C852 1.391 . S
C854 C855 1.400 . S
C855 C854 1.400 . S
C855 C856 1.398 . S
C855 C861 1.491 . S
C856 H847 0.950 1_545 S
C856 C855 1.398 . S
C856 C857 1.391 . S
C857 H845 0.940 1_545 S
C857 C853 1.393 . S
C857 C856 1.391 . S
C858 H848 0.950 . S
C858 C859 1.386 . S
C858 C860 1.391 . S
C859 C858 1.386 . S
C859 C863 1.393 . S
C860 H849 0.950 . S
C860 C858 1.391 . S
C860 C861 1.400 . S
C861 C855 1.491 . S
C861 C860 1.400 . S
C861 C862 1.398 . S
C862 H850 0.950 . S
C862 C861 1.398 . S
C862 C863 1.391 . S
C863 H851 0.950 . S
C863 C859 1.393 . S
C863 C862 1.391 . S
C233 C9 0.854 . S
C239 C133 0.837 . S
C253 C147 0.859 . S
C259 C23 0.827 . S
C273 C161 0.842 . S
C279 C37 0.855 . S
C293 C119 0.828 . S
C299 C51 0.836 . S
C313 C65 0.855 . S
C319 C217 0.847 . S
C333 C175 0.827 . S
C339 C79 0.829 . S
C353 C189 0.858 . S
C359 C93 0.832 . S
C373 C203 0.856 . S
C379 C107 0.843 . S
C393 C121 0.838 . S
C399 C21 0.857 . S
C413 C135 0.808 . S
C419 C35 0.856 . S
C433 C149 0.816 . S
C439 C49 0.858 . S
C453 C7 0.849 . S
C459 C163 0.797 . S
C473 C177 0.854 . S
C479 C105 0.837 . S
C493 C191 0.844 . S
C499 C63 0.830 . S
C513 C77 0.834 . S
C519 C205 0.802 . S
C533 C219 0.831 . S
C539 C91 0.859 . S
C553 C120 1.767 . S
C559 C8 1.767 . S
C573 C22 1.752 . S
C579 C134 1.752 . S
C593 C148 1.777 1_655 S
C599 C36 1.777 1_455 S
C613 C50 1.756 1_545 S
C619 C162 1.756 1_565 S
C633 C176 1.760 . S
C639 C64 1.760 . S
C653 C78 1.775 . S
C659 C190 1.775 . S
C673 C204 1.754 1_655 S
C679 C92 1.754 1_455 S
C693 C218 1.758 1_565 S
C699 C106 1.758 1_545 S
C713 C59 1.691 . S
C719 C3 1.687 . S
C733 C73 1.687 . S
C739 C17 1.689 . S
C753 C31 1.687 . S
C759 C87 1.692 . S
C773 C101 1.699 . S
C779 C45 1.701 . S
C793 C115 1.687 . S
C799 C171 1.690 . S
C813 C185 1.690 . S
C819 C129 1.687 . S
C833 C199 1.697 . S
C839 C143 1.690 . S
C853 C213 1.700 . S
C859 C157 1.694 . S
