# Generated by pormake.
# Topology fch, (5)-cn, num edge types: 1
# Building blocks:
#     Node 0, Type 0, BuildingBlock: BEQFEK_clean_sbu_0, # of connection points: 5
#     Node 1, Type 0, BuildingBlock: BEQFEK_clean_sbu_0, # of connection points: 5
#     Node 2, Type 0, BuildingBlock: BEQFEK_clean_sbu_0, # of connection points: 5
#     Node 3, Type 0, BuildingBlock: BEQFEK_clean_sbu_0, # of connection points: 5
#     Node 4, Type 0, BuildingBlock: BEQFEK_clean_sbu_0, # of connection points: 5
#     Node 5, Type 0, BuildingBlock: BEQFEK_clean_sbu_0, # of connection points: 5
#     Node 6, Type 0, BuildingBlock: BEQFEK_clean_sbu_0, # of connection points: 5
#     Node 7, Type 0, BuildingBlock: BEQFEK_clean_sbu_0, # of connection points: 5
#     Node 8, Type 0, BuildingBlock: BEQFEK_clean_sbu_0, # of connection points: 5
#     Node 9, Type 0, BuildingBlock: BEQFEK_clean_sbu_0, # of connection points: 5
#     Node 10, Type 0, BuildingBlock: BEQFEK_clean_sbu_0, # of connection points: 5
#     Node 11, Type 0, BuildingBlock: BEQFEK_clean_sbu_0, # of connection points: 5
#     Node 12, Type 0, BuildingBlock: BEQFEK_clean_sbu_0, # of connection points: 5
#     Node 13, Type 0, BuildingBlock: BEQFEK_clean_sbu_0, # of connection points: 5
#     Node 14, Type 0, BuildingBlock: BEQFEK_clean_sbu_0, # of connection points: 5
#     Node 15, Type 0, BuildingBlock: BEQFEK_clean_sbu_0, # of connection points: 5
#     Node 16, Type 0, BuildingBlock: BEQFEK_clean_sbu_0, # of connection points: 5
#     Node 17, Type 0, BuildingBlock: BEQFEK_clean_sbu_0, # of connection points: 5
#     Node 18, Type 0, BuildingBlock: BEQFEK_clean_sbu_0, # of connection points: 5
#     Node 19, Type 0, BuildingBlock: BEQFEK_clean_sbu_0, # of connection points: 5
#     Node 20, Type 0, BuildingBlock: BEQFEK_clean_sbu_0, # of connection points: 5
#     Node 21, Type 0, BuildingBlock: BEQFEK_clean_sbu_0, # of connection points: 5
#     Node 22, Type 0, BuildingBlock: BEQFEK_clean_sbu_0, # of connection points: 5
#     Node 23, Type 0, BuildingBlock: BEQFEK_clean_sbu_0, # of connection points: 5
#     Node 24, Type 0, BuildingBlock: BEQFEK_clean_sbu_0, # of connection points: 5
#     Node 25, Type 0, BuildingBlock: BEQFEK_clean_sbu_0, # of connection points: 5
#     Node 26, Type 0, BuildingBlock: BEQFEK_clean_sbu_0, # of connection points: 5
#     Node 27, Type 0, BuildingBlock: BEQFEK_clean_sbu_0, # of connection points: 5
#     Node 28, Type 0, BuildingBlock: BEQFEK_clean_sbu_0, # of connection points: 5
#     Node 29, Type 0, BuildingBlock: BEQFEK_clean_sbu_0, # of connection points: 5
#     Node 30, Type 0, BuildingBlock: BEQFEK_clean_sbu_0, # of connection points: 5
#     Node 31, Type 0, BuildingBlock: BEQFEK_clean_sbu_0, # of connection points: 5
#     Node 32, Type 0, BuildingBlock: BEQFEK_clean_sbu_0, # of connection points: 5
#     Node 33, Type 0, BuildingBlock: BEQFEK_clean_sbu_0, # of connection points: 5
#     Node 34, Type 0, BuildingBlock: BEQFEK_clean_sbu_0, # of connection points: 5
#     Node 35, Type 0, BuildingBlock: BEQFEK_clean_sbu_0, # of connection points: 5
#     Node 36, Type 0, BuildingBlock: BEQFEK_clean_sbu_0, # of connection points: 5
#     Node 37, Type 0, BuildingBlock: BEQFEK_clean_sbu_0, # of connection points: 5
#     Node 38, Type 0, BuildingBlock: BEQFEK_clean_sbu_0, # of connection points: 5
#     Node 39, Type 0, BuildingBlock: BEQFEK_clean_sbu_0, # of connection points: 5
#     Node 40, Type 0, BuildingBlock: BEQFEK_clean_sbu_0, # of connection points: 5
#     Node 41, Type 0, BuildingBlock: BEQFEK_clean_sbu_0, # of connection points: 5
#     Node 42, Type 0, BuildingBlock: BEQFEK_clean_sbu_0, # of connection points: 5
#     Node 43, Type 0, BuildingBlock: BEQFEK_clean_sbu_0, # of connection points: 5
#     Node 44, Type 0, BuildingBlock: BEQFEK_clean_sbu_0, # of connection points: 5
#     Node 45, Type 0, BuildingBlock: BEQFEK_clean_sbu_0, # of connection points: 5
#     Node 46, Type 0, BuildingBlock: BEQFEK_clean_sbu_0, # of connection points: 5
#     Node 47, Type 0, BuildingBlock: BEQFEK_clean_sbu_0, # of connection points: 5
#     Edge 48, Type (0, 0), BuildingBlock: KIFKEQ_clean_linker_1, # of connection points: 2
#     Edge 49, Type (0, 0), BuildingBlock: KIFKEQ_clean_linker_1, # of connection points: 2
#     Edge 50, Type (0, 0), BuildingBlock: KIFKEQ_clean_linker_1, # of connection points: 2
#     Edge 51, Type (0, 0), BuildingBlock: KIFKEQ_clean_linker_1, # of connection points: 2
#     Edge 52, Type (0, 0), BuildingBlock: KIFKEQ_clean_linker_1, # of connection points: 2
#     Edge 53, Type (0, 0), BuildingBlock: KIFKEQ_clean_linker_1, # of connection points: 2
#     Edge 54, Type (0, 0), BuildingBlock: KIFKEQ_clean_linker_1, # of connection points: 2
#     Edge 55, Type (0, 0), BuildingBlock: KIFKEQ_clean_linker_1, # of connection points: 2
#     Edge 56, Type (0, 0), BuildingBlock: KIFKEQ_clean_linker_1, # of connection points: 2
#     Edge 57, Type (0, 0), BuildingBlock: KIFKEQ_clean_linker_1, # of connection points: 2
#     Edge 58, Type (0, 0), BuildingBlock: KIFKEQ_clean_linker_1, # of connection points: 2
#     Edge 59, Type (0, 0), BuildingBlock: KIFKEQ_clean_linker_1, # of connection points: 2
#     Edge 60, Type (0, 0), BuildingBlock: KIFKEQ_clean_linker_1, # of connection points: 2
#     Edge 61, Type (0, 0), BuildingBlock: KIFKEQ_clean_linker_1, # of connection points: 2
#     Edge 62, Type (0, 0), BuildingBlock: KIFKEQ_clean_linker_1, # of connection points: 2
#     Edge 63, Type (0, 0), BuildingBlock: KIFKEQ_clean_linker_1, # of connection points: 2
#     Edge 64, Type (0, 0), BuildingBlock: KIFKEQ_clean_linker_1, # of connection points: 2
#     Edge 65, Type (0, 0), BuildingBlock: KIFKEQ_clean_linker_1, # of connection points: 2
#     Edge 66, Type (0, 0), BuildingBlock: KIFKEQ_clean_linker_1, # of connection points: 2
#     Edge 67, Type (0, 0), BuildingBlock: KIFKEQ_clean_linker_1, # of connection points: 2
#     Edge 68, Type (0, 0), BuildingBlock: KIFKEQ_clean_linker_1, # of connection points: 2
#     Edge 69, Type (0, 0), BuildingBlock: KIFKEQ_clean_linker_1, # of connection points: 2
#     Edge 70, Type (0, 0), BuildingBlock: KIFKEQ_clean_linker_1, # of connection points: 2
#     Edge 71, Type (0, 0), BuildingBlock: KIFKEQ_clean_linker_1, # of connection points: 2
#     Edge 72, Type (0, 0), BuildingBlock: KIFKEQ_clean_linker_1, # of connection points: 2
#     Edge 73, Type (0, 0), BuildingBlock: KIFKEQ_clean_linker_1, # of connection points: 2
#     Edge 74, Type (0, 0), BuildingBlock: KIFKEQ_clean_linker_1, # of connection points: 2
#     Edge 75, Type (0, 0), BuildingBlock: KIFKEQ_clean_linker_1, # of connection points: 2
#     Edge 76, Type (0, 0), BuildingBlock: KIFKEQ_clean_linker_1, # of connection points: 2
#     Edge 77, Type (0, 0), BuildingBlock: KIFKEQ_clean_linker_1, # of connection points: 2
#     Edge 78, Type (0, 0), BuildingBlock: KIFKEQ_clean_linker_1, # of connection points: 2
#     Edge 79, Type (0, 0), BuildingBlock: KIFKEQ_clean_linker_1, # of connection points: 2
#     Edge 80, Type (0, 0), BuildingBlock: KIFKEQ_clean_linker_1, # of connection points: 2
#     Edge 81, Type (0, 0), BuildingBlock: KIFKEQ_clean_linker_1, # of connection points: 2
#     Edge 82, Type (0, 0), BuildingBlock: KIFKEQ_clean_linker_1, # of connection points: 2
#     Edge 83, Type (0, 0), BuildingBlock: KIFKEQ_clean_linker_1, # of connection points: 2
#     Edge 84, Type (0, 0), BuildingBlock: KIFKEQ_clean_linker_1, # of connection points: 2
#     Edge 85, Type (0, 0), BuildingBlock: KIFKEQ_clean_linker_1, # of connection points: 2
#     Edge 86, Type (0, 0), BuildingBlock: KIFKEQ_clean_linker_1, # of connection points: 2
#     Edge 87, Type (0, 0), BuildingBlock: KIFKEQ_clean_linker_1, # of connection points: 2
#     Edge 88, Type (0, 0), BuildingBlock: KIFKEQ_clean_linker_1, # of connection points: 2
#     Edge 89, Type (0, 0), BuildingBlock: KIFKEQ_clean_linker_1, # of connection points: 2
#     Edge 90, Type (0, 0), BuildingBlock: KIFKEQ_clean_linker_1, # of connection points: 2
#     Edge 91, Type (0, 0), BuildingBlock: KIFKEQ_clean_linker_1, # of connection points: 2
#     Edge 92, Type (0, 0), BuildingBlock: KIFKEQ_clean_linker_1, # of connection points: 2
#     Edge 93, Type (0, 0), BuildingBlock: KIFKEQ_clean_linker_1, # of connection points: 2
#     Edge 94, Type (0, 0), BuildingBlock: KIFKEQ_clean_linker_1, # of connection points: 2
#     Edge 95, Type (0, 0), BuildingBlock: KIFKEQ_clean_linker_1, # of connection points: 2
#     Edge 96, Type (0, 0), BuildingBlock: KIFKEQ_clean_linker_1, # of connection points: 2
#     Edge 97, Type (0, 0), BuildingBlock: KIFKEQ_clean_linker_1, # of connection points: 2
#     Edge 98, Type (0, 0), BuildingBlock: KIFKEQ_clean_linker_1, # of connection points: 2
#     Edge 99, Type (0, 0), BuildingBlock: KIFKEQ_clean_linker_1, # of connection points: 2
#     Edge 100, Type (0, 0), BuildingBlock: KIFKEQ_clean_linker_1, # of connection points: 2
#     Edge 101, Type (0, 0), BuildingBlock: KIFKEQ_clean_linker_1, # of connection points: 2
#     Edge 102, Type (0, 0), BuildingBlock: KIFKEQ_clean_linker_1, # of connection points: 2
#     Edge 103, Type (0, 0), BuildingBlock: KIFKEQ_clean_linker_1, # of connection points: 2
#     Edge 104, Type (0, 0), BuildingBlock: KIFKEQ_clean_linker_1, # of connection points: 2
#     Edge 105, Type (0, 0), BuildingBlock: KIFKEQ_clean_linker_1, # of connection points: 2
#     Edge 106, Type (0, 0), BuildingBlock: KIFKEQ_clean_linker_1, # of connection points: 2
#     Edge 107, Type (0, 0), BuildingBlock: KIFKEQ_clean_linker_1, # of connection points: 2
#     Edge 108, Type (0, 0), BuildingBlock: KIFKEQ_clean_linker_1, # of connection points: 2
#     Edge 109, Type (0, 0), BuildingBlock: KIFKEQ_clean_linker_1, # of connection points: 2
#     Edge 110, Type (0, 0), BuildingBlock: KIFKEQ_clean_linker_1, # of connection points: 2
#     Edge 111, Type (0, 0), BuildingBlock: KIFKEQ_clean_linker_1, # of connection points: 2
#     Edge 112, Type (0, 0), BuildingBlock: KIFKEQ_clean_linker_1, # of connection points: 2
#     Edge 113, Type (0, 0), BuildingBlock: KIFKEQ_clean_linker_1, # of connection points: 2
#     Edge 114, Type (0, 0), BuildingBlock: KIFKEQ_clean_linker_1, # of connection points: 2
#     Edge 115, Type (0, 0), BuildingBlock: KIFKEQ_clean_linker_1, # of connection points: 2
#     Edge 116, Type (0, 0), BuildingBlock: KIFKEQ_clean_linker_1, # of connection points: 2
#     Edge 117, Type (0, 0), BuildingBlock: KIFKEQ_clean_linker_1, # of connection points: 2
#     Edge 118, Type (0, 0), BuildingBlock: KIFKEQ_clean_linker_1, # of connection points: 2
#     Edge 119, Type (0, 0), BuildingBlock: KIFKEQ_clean_linker_1, # of connection points: 2
#     Edge 120, Type (0, 0), BuildingBlock: KIFKEQ_clean_linker_1, # of connection points: 2
#     Edge 121, Type (0, 0), BuildingBlock: KIFKEQ_clean_linker_1, # of connection points: 2
#     Edge 122, Type (0, 0), BuildingBlock: KIFKEQ_clean_linker_1, # of connection points: 2
#     Edge 123, Type (0, 0), BuildingBlock: KIFKEQ_clean_linker_1, # of connection points: 2
#     Edge 124, Type (0, 0), BuildingBlock: KIFKEQ_clean_linker_1, # of connection points: 2
#     Edge 125, Type (0, 0), BuildingBlock: KIFKEQ_clean_linker_1, # of connection points: 2
#     Edge 126, Type (0, 0), BuildingBlock: KIFKEQ_clean_linker_1, # of connection points: 2
#     Edge 127, Type (0, 0), BuildingBlock: KIFKEQ_clean_linker_1, # of connection points: 2
#     Edge 128, Type (0, 0), BuildingBlock: KIFKEQ_clean_linker_1, # of connection points: 2
#     Edge 129, Type (0, 0), BuildingBlock: KIFKEQ_clean_linker_1, # of connection points: 2
#     Edge 130, Type (0, 0), BuildingBlock: KIFKEQ_clean_linker_1, # of connection points: 2
#     Edge 131, Type (0, 0), BuildingBlock: KIFKEQ_clean_linker_1, # of connection points: 2
#     Edge 132, Type (0, 0), BuildingBlock: KIFKEQ_clean_linker_1, # of connection points: 2
#     Edge 133, Type (0, 0), BuildingBlock: KIFKEQ_clean_linker_1, # of connection points: 2
#     Edge 134, Type (0, 0), BuildingBlock: KIFKEQ_clean_linker_1, # of connection points: 2
#     Edge 135, Type (0, 0), BuildingBlock: KIFKEQ_clean_linker_1, # of connection points: 2
#     Edge 136, Type (0, 0), BuildingBlock: KIFKEQ_clean_linker_1, # of connection points: 2
#     Edge 137, Type (0, 0), BuildingBlock: KIFKEQ_clean_linker_1, # of connection points: 2
#     Edge 138, Type (0, 0), BuildingBlock: KIFKEQ_clean_linker_1, # of connection points: 2
#     Edge 139, Type (0, 0), BuildingBlock: KIFKEQ_clean_linker_1, # of connection points: 2
#     Edge 140, Type (0, 0), BuildingBlock: KIFKEQ_clean_linker_1, # of connection points: 2
#     Edge 141, Type (0, 0), BuildingBlock: KIFKEQ_clean_linker_1, # of connection points: 2
#     Edge 142, Type (0, 0), BuildingBlock: KIFKEQ_clean_linker_1, # of connection points: 2
#     Edge 143, Type (0, 0), BuildingBlock: KIFKEQ_clean_linker_1, # of connection points: 2
#     Edge 144, Type (0, 0), BuildingBlock: KIFKEQ_clean_linker_1, # of connection points: 2
#     Edge 145, Type (0, 0), BuildingBlock: KIFKEQ_clean_linker_1, # of connection points: 2
#     Edge 146, Type (0, 0), BuildingBlock: KIFKEQ_clean_linker_1, # of connection points: 2
#     Edge 147, Type (0, 0), BuildingBlock: KIFKEQ_clean_linker_1, # of connection points: 2
#     Edge 148, Type (0, 0), BuildingBlock: KIFKEQ_clean_linker_1, # of connection points: 2
#     Edge 149, Type (0, 0), BuildingBlock: KIFKEQ_clean_linker_1, # of connection points: 2
#     Edge 150, Type (0, 0), BuildingBlock: KIFKEQ_clean_linker_1, # of connection points: 2
#     Edge 151, Type (0, 0), BuildingBlock: KIFKEQ_clean_linker_1, # of connection points: 2
#     Edge 152, Type (0, 0), BuildingBlock: KIFKEQ_clean_linker_1, # of connection points: 2
#     Edge 153, Type (0, 0), BuildingBlock: KIFKEQ_clean_linker_1, # of connection points: 2
#     Edge 154, Type (0, 0), BuildingBlock: KIFKEQ_clean_linker_1, # of connection points: 2
#     Edge 155, Type (0, 0), BuildingBlock: KIFKEQ_clean_linker_1, # of connection points: 2
#     Edge 156, Type (0, 0), BuildingBlock: KIFKEQ_clean_linker_1, # of connection points: 2
#     Edge 157, Type (0, 0), BuildingBlock: KIFKEQ_clean_linker_1, # of connection points: 2
#     Edge 158, Type (0, 0), BuildingBlock: KIFKEQ_clean_linker_1, # of connection points: 2
#     Edge 159, Type (0, 0), BuildingBlock: KIFKEQ_clean_linker_1, # of connection points: 2
#     Edge 160, Type (0, 0), BuildingBlock: KIFKEQ_clean_linker_1, # of connection points: 2
#     Edge 161, Type (0, 0), BuildingBlock: KIFKEQ_clean_linker_1, # of connection points: 2
#     Edge 162, Type (0, 0), BuildingBlock: KIFKEQ_clean_linker_1, # of connection points: 2
#     Edge 163, Type (0, 0), BuildingBlock: KIFKEQ_clean_linker_1, # of connection points: 2
#     Edge 164, Type (0, 0), BuildingBlock: KIFKEQ_clean_linker_1, # of connection points: 2
#     Edge 165, Type (0, 0), BuildingBlock: KIFKEQ_clean_linker_1, # of connection points: 2
#     Edge 166, Type (0, 0), BuildingBlock: KIFKEQ_clean_linker_1, # of connection points: 2
#     Edge 167, Type (0, 0), BuildingBlock: KIFKEQ_clean_linker_1, # of connection points: 2
# Relax obj value: 0.847
# Max RMSD: 0.194
# Mean RMSD: 0.194
data_MOF--net-fch--node1-BEQFEK_clean_sbu_0--edge1-KIFKEQ_clean_linker_1
_symmetry_space_group_name_H-M    P1
_symmetry_Int_Tables_number       1
_symmetry_cell_setting            triclinic
loop_
_symmetry_equiv_pos_as_xyz
'x, y, z'
_cell_length_a     74.799265
_cell_length_b     74.814692
_cell_length_c     74.804619
_cell_angle_alpha  90.003235
_cell_angle_beta   90.006811
_cell_angle_gamma 89.989577
loop_
_atom_site_label
_atom_site_type_symbol
_atom_site_fract_x
_atom_site_fract_y
_atom_site_fract_z
_atom_type_partial_charge
Co0 Co 0.07412 0.42615 0.14846 0.0
Co1 Co 0.0418 0.40026 0.15326 0.0
C2 C 0.03688 0.44022 0.15095 0.0
O3 O 0.05356 0.44249 0.1489 0.0
O4 O 0.0304 0.42462 0.15307 0.0
C5 C 0.0931 0.45436 0.13384 0.0
O6 O 0.07779 0.45652 0.1255 0.0
C7 C 0.00749 0.38592 0.14254 0.0
C8 C 0.00727 0.35853 0.15353 0.0
C9 C 0.99734 0.37055 0.14355 0.0
N10 N 0.02278 0.38331 0.15155 0.0
N11 N 0.02259 0.36691 0.15816 0.0
C12 C 0.00331 0.40241 0.132 0.0
H13 H 0.01574 0.40799 0.12614 0.0
H14 H 0.99359 0.39954 0.12116 0.0
H15 H 0.9974 0.41256 0.14105 0.0
C16 C 0.08089 0.40356 0.11721 0.0
N17 N 0.07112 0.40808 0.13157 0.0
N18 N 0.0575 0.39706 0.13318 0.0
C19 C 0.05814 0.38518 0.11956 0.0
C20 C 0.07302 0.38894 0.10915 0.0
C21 C 0.09739 0.4132 0.11128 0.0
H22 H 0.09363 0.42669 0.10641 0.0
H23 H 0.1044 0.40596 0.1004 0.0
H24 H 0.10658 0.41488 0.1228 0.0
O25 O 0.07766 0.41581 0.17185 0.0
O26 O 0.05507 0.39713 0.17651 0.0
H27 H 0.04422 0.36198 0.12869 0.0
H28 H 0.04868 0.36212 0.10492 0.0
C29 C 0.04493 0.37049 0.11658 0.0
H30 H 0.03152 0.37635 0.11424 0.0
H31 H 0.033 0.36135 0.1656 0.0
O32 O 0.09523 0.44086 0.14382 0.0
C33 C 0.06955 0.40461 0.18166 0.0
Co34 Co 0.58008 0.07945 0.15521 0.0
Co35 Co 0.60192 0.04406 0.1547 0.0
C36 C 0.5622 0.04432 0.14835 0.0
O37 O 0.56145 0.0612 0.15008 0.0
O38 O 0.57703 0.03613 0.14967 0.0
C39 C 0.5583 0.10521 0.14021 0.0
O40 O 0.56013 0.09449 0.12641 0.0
C41 C 0.61371 0.01249 0.13623 0.0
C42 C 0.63456 0.00102 0.15367 0.0
C43 C 0.62517 0.99796 0.13794 0.0
N44 N 0.61606 0.02336 0.1503 0.0
N45 N 0.6286 0.01652 0.16068 0.0
C46 C 0.60121 0.01675 0.12115 0.0
H47 H 0.59858 0.03133 0.12053 0.0
H48 H 0.60684 0.01216 0.10822 0.0
H49 H 0.58825 0.00997 0.12345 0.0
C50 C 0.60732 0.09014 0.12842 0.0
N51 N 0.60002 0.07826 0.1398 0.0
N52 N 0.6092 0.06325 0.13922 0.0
C53 C 0.62233 0.06503 0.12693 0.0
C54 C 0.62152 0.08208 0.1197 0.0
C55 C 0.60044 0.10868 0.12535 0.0
H56 H 0.59015 0.10838 0.11468 0.0
H57 H 0.61126 0.11777 0.12094 0.0
H58 H 0.59452 0.1141 0.13778 0.0
O59 O 0.58818 0.07685 0.17956 0.0
O60 O 0.6032 0.05118 0.18067 0.0
H61 H 0.63994 0.04357 0.13422 0.0
H62 H 0.64746 0.05681 0.11544 0.0
C63 C 0.6356 0.05087 0.1221 0.0
H64 H 0.62935 0.04128 0.11269 0.0
H65 H 0.63287 0.02226 0.17266 0.0
O66 O 0.56717 0.10211 0.15428 0.0
C67 C 0.59701 0.06522 0.18817 0.0
Co68 Co 0.92104 0.56503 0.1504 0.0
Co69 Co 0.95389 0.59045 0.15406 0.0
C70 C 0.95763 0.55008 0.15059 0.0
O71 O 0.94084 0.54788 0.14911 0.0
O72 O 0.9643 0.56563 0.15276 0.0
C73 C 0.89282 0.54296 0.16045 0.0
O74 O 0.90211 0.54272 0.17535 0.0
C75 C 0.98573 0.60659 0.13871 0.0
C76 C 0.99311 0.62723 0.15848 0.0
C77 C 0.99834 0.61961 0.14243 0.0
N78 N 0.97344 0.60664 0.1518 0.0
N79 N 0.97783 0.6191 0.16354 0.0
C80 C 0.98626 0.5931 0.12394 0.0
H81 H 0.99856 0.58489 0.1252 0.0
H82 H 0.97432 0.58432 0.12436 0.0
H83 H 0.98676 0.59993 0.1108 0.0
C84 C 0.91298 0.5882 0.12006 0.0
N85 N 0.92359 0.58329 0.13366 0.0
N86 N 0.93699 0.5946 0.13514 0.0
C87 C 0.93516 0.60727 0.12238 0.0
C88 C 0.9199 0.60355 0.1125 0.0
C89 C 0.89649 0.57829 0.11457 0.0
H90 H 0.88614 0.57989 0.12508 0.0
H91 H 0.89956 0.56383 0.1134 0.0
H92 H 0.89112 0.58326 0.10166 0.0
O93 O 0.91945 0.5754 0.17406 0.0
O94 O 0.94232 0.59378 0.17806 0.0
H95 H 0.95153 0.6281 0.13342 0.0
H96 H 0.94015 0.63403 0.11286 0.0
C97 C 0.9471 0.62314 0.12018 0.0
H98 H 0.95904 0.61919 0.11235 0.0
H99 H 0.97066 0.62174 0.17521 0.0
O100 O 0.8986 0.5519 0.1472 0.0
C101 C 0.92804 0.58637 0.18369 0.0
Co102 Co 0.43883 0.92869 0.15124 0.0
Co103 Co 0.41175 0.96027 0.15221 0.0
C104 C 0.45169 0.96629 0.1491 0.0
O105 O 0.45464 0.94956 0.14971 0.0
O106 O 0.43578 0.97245 0.14966 0.0
C107 C 0.46269 0.90253 0.16293 0.0
O108 O 0.46284 0.91284 0.17715 0.0
C109 C 0.39198 0.98933 0.13533 0.0
C110 C 0.37067 0.99501 0.15498 0.0
C111 C 0.37738 0.00028 0.13854 0.0
N112 N 0.39368 0.97793 0.1491 0.0
N113 N 0.38082 0.9813 0.16075 0.0
C114 C 0.40505 0.99062 0.12023 0.0
H115 H 0.41026 0.00448 0.1193 0.0
H116 H 0.41626 0.98111 0.12209 0.0
H117 H 0.39828 0.98749 0.10743 0.0
C118 C 0.41681 0.91739 0.12107 0.0
N119 N 0.42094 0.92925 0.13387 0.0
N120 N 0.40861 0.94177 0.13461 0.0
C121 C 0.3959 0.93796 0.12232 0.0
C122 C 0.4007 0.92236 0.11339 0.0
C123 C 0.42837 0.90178 0.11621 0.0
H124 H 0.44265 0.90574 0.11677 0.0
H125 H 0.4253 0.89675 0.1026 0.0
H126 H 0.4262 0.89088 0.12604 0.0
O127 O 0.42784 0.92715 0.17459 0.0
O128 O 0.40947 0.95031 0.17708 0.0
H129 H 0.37401 0.95293 0.13334 0.0
H130 H 0.36827 0.93945 0.11409 0.0
C131 C 0.37874 0.94802 0.12019 0.0
H132 H 0.38099 0.95963 0.11128 0.0
H133 H 0.37917 0.97444 0.17279 0.0
O134 O 0.45332 0.907 0.14948 0.0
C135 C 0.41674 0.93631 0.18349 0.0
Co136 Co 0.0731 0.5757 0.84344 0.0
Co137 Co 0.0383 0.5985 0.84447 0.0
C138 C 0.03728 0.55841 0.84755 0.0
O139 O 0.0542 0.55741 0.84611 0.0
O140 O 0.02932 0.57347 0.84742 0.0
C141 C 0.09849 0.55112 0.83313 0.0
O142 O 0.08575 0.5475 0.82159 0.0
C143 C 0.00653 0.6129 0.86163 0.0
C144 C 0.99808 0.63435 0.84318 0.0
C145 C 0.99346 0.62571 0.85888 0.0
N146 N 0.0185 0.61404 0.84831 0.0
N147 N 0.01349 0.62699 0.83738 0.0
C148 C 0.00669 0.59856 0.87558 0.0
H149 H 0.99608 0.58866 0.8725 0.0
H150 H 0.01984 0.5917 0.87592 0.0
H151 H 0.00382 0.60427 0.88895 0.0
C152 C 0.0827 0.59828 0.87384 0.0
N153 N 0.07135 0.59355 0.86077 0.0
N154 N 0.05694 0.60362 0.86143 0.0
C155 C 0.05875 0.61518 0.87522 0.0
C156 C 0.07515 0.61217 0.88342 0.0
C157 C 0.09988 0.58876 0.87767 0.0
H158 H 0.10923 0.59085 0.86633 0.0
H159 H 0.09731 0.57419 0.87874 0.0
H160 H 0.10623 0.59353 0.89019 0.0
O161 O 0.07205 0.58607 0.81987 0.0
O162 O 0.04656 0.60125 0.81899 0.0
H163 H 0.03915 0.63502 0.86852 0.0
H164 H 0.05135 0.63943 0.88897 0.0
C165 C 0.0452 0.62886 0.88056 0.0
H166 H 0.0345 0.6223 0.88843 0.0
H167 H 0.02029 0.63047 0.82571 0.0
O168 O 0.09611 0.56344 0.84454 0.0
C169 C 0.06083 0.59562 0.81154 0.0
Co170 Co 0.42436 0.07639 0.84017 0.0
Co171 Co 0.40061 0.04223 0.84293 0.0
C172 C 0.44086 0.04012 0.84381 0.0
O173 O 0.44223 0.05698 0.84213 0.0
O174 O 0.42559 0.03256 0.84446 0.0
C175 C 0.45008 0.10075 0.82952 0.0
O176 O 0.45312 0.088 0.81783 0.0
C177 C 0.38756 0.00899 0.85858 0.0
C178 C 0.35981 0.00711 0.84871 0.0
C179 C 0.3724 0.99848 0.85917 0.0
N180 N 0.38429 0.02325 0.84819 0.0
N181 N 0.36763 0.02208 0.84234 0.0
C182 C 0.40467 0.00585 0.86842 0.0
H183 H 0.41397 0.99849 0.85954 0.0
H184 H 0.41086 0.01877 0.87225 0.0
H185 H 0.40238 0.99767 0.88058 0.0
C186 C 0.40362 0.08696 0.87161 0.0
N187 N 0.40747 0.07533 0.85849 0.0
N188 N 0.39729 0.06108 0.86 0.0
C189 C 0.38669 0.06316 0.87448 0.0
C190 C 0.39027 0.0797 0.88217 0.0
C191 C 0.41351 0.10412 0.87452 0.0
H192 H 0.41091 0.11323 0.8631 0.0
H193 H 0.42808 0.10139 0.87488 0.0
H194 H 0.40952 0.11079 0.88714 0.0
O195 O 0.41264 0.07551 0.81728 0.0
O196 O 0.3965 0.05057 0.81757 0.0
H197 H 0.36406 0.04633 0.86993 0.0
H198 H 0.3658 0.05455 0.89258 0.0
C199 C 0.37348 0.0496 0.8809 0.0
H200 H 0.38065 0.03718 0.88466 0.0
H201 H 0.36158 0.03152 0.83403 0.0
O202 O 0.4375 0.09887 0.84075 0.0
C203 C 0.40216 0.06461 0.80968 0.0
Co204 Co 0.92762 0.42814 0.84225 0.0
Co205 Co 0.96193 0.40447 0.84085 0.0
C206 C 0.96403 0.44458 0.84434 0.0
O207 O 0.94708 0.4459 0.8441 0.0
O208 O 0.97169 0.42939 0.84325 0.0
C209 C 0.90291 0.45402 0.83416 0.0
O210 O 0.91556 0.45786 0.8226 0.0
C211 C 0.99617 0.39062 0.85314 0.0
C212 C 0.99717 0.36341 0.84172 0.0
C213 C 0.0066 0.37541 0.85218 0.0
N214 N 0.98122 0.38795 0.84361 0.0
N215 N 0.98186 0.37163 0.8368 0.0
C216 C -2e-05 0.40709 0.86381 0.0
H217 H 0.98735 0.41293 0.86894 0.0
H218 H 0.00902 0.40409 0.8752 0.0
H219 H 0.00665 0.41699 0.85504 0.0
C220 C 0.91948 0.40538 0.87296 0.0
N221 N 0.93003 0.41005 0.85922 0.0
N222 N 0.94442 0.39996 0.85905 0.0
C223 C 0.94357 0.3886 0.87308 0.0
C224 C 0.92764 0.39155 0.88217 0.0
C225 C 0.90267 0.41507 0.87785 0.0
H226 H 0.8927 0.41328 0.86701 0.0
H227 H 0.90551 0.42958 0.87898 0.0
H228 H 0.89694 0.41022 0.89063 0.0
O229 O 0.92691 0.41788 0.81867 0.0
O230 O 0.95166 0.40168 0.81604 0.0
H231 H 0.96051 0.36657 0.86649 0.0
H232 H 0.95395 0.36732 0.88972 0.0
C233 C 0.95786 0.37552 0.87799 0.0
H234 H 0.97037 0.38284 0.88111 0.0
H235 H 0.9718 0.36606 0.8289 0.0
O236 O 0.90506 0.44099 0.84481 0.0
C237 C 0.93708 0.40782 0.80965 0.0
Co238 Co 0.56736 0.9265 0.8442 0.0
Co239 Co 0.59283 0.95935 0.84254 0.0
C240 C 0.55239 0.96313 0.84459 0.0
O241 O 0.55017 0.9463 0.84505 0.0
O242 O 0.56802 0.96992 0.84365 0.0
C243 C 0.54538 0.89829 0.83326 0.0
O244 O 0.54487 0.90771 0.81845 0.0
C245 C 0.60834 0.99018 0.85997 0.0
C246 C 0.63055 0.99806 0.8422 0.0
C247 C 0.62196 0.00254 0.85798 0.0
N248 N 0.60899 0.97869 0.84621 0.0
N249 N 0.62234 0.98341 0.83562 0.0
C250 C 0.59391 0.99016 0.87386 0.0
H251 H 0.58524 0.00205 0.87191 0.0
H252 H 0.58569 0.97787 0.87292 0.0
H253 H 0.59975 0.99105 0.88744 0.0
C254 C 0.58892 0.91774 0.8755 0.0
N255 N 0.58491 0.92853 0.86175 0.0
N256 N 0.59635 0.94187 0.86109 0.0
C257 C 0.60822 0.93981 0.8746 0.0
C258 C 0.60384 0.92446 0.88406 0.0
C259 C 0.57834 0.90151 0.88049 0.0
H260 H 0.58006 0.89119 0.86998 0.0
H261 H 0.56393 0.90499 0.8811 0.0
H262 H 0.58263 0.89591 0.89354 0.0
O263 O 0.57856 0.92534 0.82105 0.0
O264 O 0.59679 0.94851 0.81814 0.0
H265 H 0.62945 0.95686 0.86548 0.0
H266 H 0.63431 0.94464 0.88582 0.0
C267 C 0.62378 0.95182 0.87821 0.0
H268 H 0.61926 0.96332 0.88637 0.0
H269 H 0.62569 0.97678 0.82382 0.0
O270 O 0.55428 0.90406 0.84653 0.0
C271 C 0.58971 0.93425 0.81197 0.0
Co272 Co 0.15307 0.07002 0.4229 0.0
Co273 Co 0.15818 0.03717 0.39786 0.0
C274 C 0.15556 0.03339 0.43804 0.0
O275 O 0.15335 0.05008 0.43997 0.0
O276 O 0.15797 0.02668 0.4226 0.0
C277 C 0.13758 0.08945 0.45006 0.0
O278 O 0.12904 0.07421 0.45186 0.0
C279 C 0.14554 0.00303 0.3863 0.0
C280 C 0.15944 0.99742 0.36089 0.0
C281 C 0.1474 0.99032 0.37306 0.0
N282 N 0.15607 0.01698 0.38244 0.0
N283 N 0.16435 0.01366 0.36717 0.0
C284 C 0.13309 0.00236 0.40198 0.0
H285 H 0.12903 0.01606 0.40596 0.0
H286 H 0.12101 0.99437 0.39878 0.0
H287 H 0.14002 0.99595 0.41343 0.0
C288 C 0.12138 0.07563 0.40045 0.0
N289 N 0.13614 0.06643 0.4049 0.0
N290 N 0.13806 0.05272 0.39404 0.0
C291 C 0.12434 0.05283 0.38225 0.0
C292 C 0.11339 0.06731 0.38605 0.0
C293 C 0.11499 0.09209 0.40986 0.0
H294 H 0.12635 0.10135 0.41206 0.0
H295 H 0.10945 0.08829 0.42308 0.0
H296 H 0.10443 0.09906 0.40212 0.0
O297 O 0.17659 0.07314 0.41251 0.0
O298 O 0.1815 0.05019 0.3943 0.0
H299 H 0.13438 0.03682 0.36074 0.0
H300 H 0.11135 0.04387 0.35806 0.0
C301 C 0.12159 0.03931 0.36779 0.0
H302 H 0.11705 0.02656 0.37384 0.0
H303 H 0.17342 0.02236 0.36112 0.0
O304 O 0.14825 0.09145 0.43706 0.0
C305 C 0.18653 0.06483 0.40156 0.0
Co306 Co 0.92762 0.15755 0.42824 0.0
Co307 Co 0.96079 0.15549 0.40324 0.0
C308 C 0.96385 0.15429 0.44383 0.0
O309 O 0.94703 0.15564 0.44577 0.0
O310 O 0.97091 0.15395 0.42829 0.0
C311 C 0.90058 0.17073 0.4508 0.0
O312 O 0.91145 0.18445 0.4522 0.0
C313 C 0.99014 0.13519 0.38769 0.0
C314 C -0.00064 0.15249 0.36561 0.0
C315 C 0.00269 0.13634 0.37408 0.0
N316 N 0.97975 0.14983 0.38715 0.0
N317 N 0.98523 0.16008 0.37384 0.0
C318 C 0.9889 0.12117 0.40193 0.0
H319 H 0.00229 0.11884 0.40792 0.0
H320 H 0.97926 0.1251 0.41245 0.0
H321 H 0.98429 0.1084 0.39602 0.0
C322 C 0.91635 0.12654 0.40746 0.0
N323 N 0.9284 0.13923 0.41138 0.0
N324 N 0.94162 0.13869 0.39981 0.0
C325 C 0.93808 0.12568 0.38774 0.0
C326 C 0.92193 0.1176 0.39222 0.0
C327 C 0.90018 0.12274 0.41865 0.0
H328 H 0.90351 0.12429 0.43301 0.0
H329 H 0.89508 0.109 0.41639 0.0
H330 H 0.88953 0.13249 0.41527 0.0
O331 O 0.92841 0.18031 0.41629 0.0
O332 O 0.95243 0.18074 0.39883 0.0
H333 H 0.95529 0.13441 0.36646 0.0
H334 H 0.94078 0.1159 0.36076 0.0
C335 C 0.94909 0.12192 0.37148 0.0
H336 H 0.95981 0.11231 0.37495 0.0
H337 H 0.97954 0.1724 0.37059 0.0
O338 O 0.90498 0.15754 0.44106 0.0
C339 C 0.93848 0.18819 0.40522 0.0
Co340 Co 0.84697 0.92788 0.43259 0.0
Co341 Co 0.84389 0.96095 0.40735 0.0
C342 C 0.84516 0.96443 0.44778 0.0
O343 O 0.84649 0.94762 0.44981 0.0
O344 O 0.84407 0.97141 0.43224 0.0
C345 C 0.83823 0.90294 0.45778 0.0
O346 O 0.82598 0.91518 0.46073 0.0
C347 C 0.8556 0.99531 0.39335 0.0
C348 C 0.8452 0.9955 0.36572 0.0
C349 C 0.85506 0.00537 0.37787 0.0
N350 N 0.8464 0.98015 0.39066 0.0
N351 N 0.84013 0.98035 0.37412 0.0
C352 C 0.8659 -0.00057 0.40998 0.0
H353 H 0.85702 0.00661 0.41942 0.0
H354 H 0.87059 0.9869 0.41638 0.0
H355 H 0.87755 0.00812 0.407 0.0
C356 C 0.87922 0.92139 0.41148 0.0
N357 N 0.86468 0.93114 0.41538 0.0
N358 N 0.8635 0.94474 0.40429 0.0
C359 C 0.87744 0.94396 0.39281 0.0
C360 C 0.88775 0.92914 0.39706 0.0
C361 C 0.88459 0.90484 0.42134 0.0
H362 H 0.87406 0.89453 0.41963 0.0
H363 H 0.88559 0.90786 0.43583 0.0
H364 H 0.89754 0.89947 0.41647 0.0
O365 O 0.82397 0.92551 0.42126 0.0
O366 O 0.8203 0.94865 0.40316 0.0
H367 H 0.86899 0.95798 0.3694 0.0
H368 H 0.8927 0.95319 0.37005 0.0
C369 C 0.88091 0.9571 0.37817 0.0
H370 H 0.88331 0.97048 0.38406 0.0
H371 H 0.83267 0.97001 0.36846 0.0
O372 O 0.84994 0.90557 0.44579 0.0
C373 C 0.81464 0.93412 0.41007 0.0
Co374 Co 0.07123 0.83863 0.43074 0.0
Co375 Co 0.03903 0.8407 0.40449 0.0
C376 C 0.03443 0.84279 0.4448 0.0
O377 O 0.05117 0.84147 0.4474 0.0
O378 O 0.02797 0.8426 0.42902 0.0
C379 C 0.09417 0.82684 0.45714 0.0
O380 O 0.08043 0.81636 0.46026 0.0
C381 C 0.00982 0.86079 0.38904 0.0
C382 C 0.00103 0.84414 0.36629 0.0
C383 C 0.99734 0.85986 0.37539 0.0
N384 N 0.02056 0.84646 0.38794 0.0
N385 N 0.01537 0.8366 0.37422 0.0
C386 C 0.01045 0.87402 0.40406 0.0
H387 H 0.99821 0.87265 0.41235 0.0
H388 H 0.02244 0.87189 0.4125 0.0
H389 H 0.01082 0.88785 0.39881 0.0
C390 C 0.08331 0.86962 0.41033 0.0
N391 N 0.07142 0.85658 0.41348 0.0
N392 N 0.05843 0.85738 0.40166 0.0
C393 C 0.06193 0.87099 0.39028 0.0
C394 C 0.07772 0.87924 0.39556 0.0
C395 C 0.09984 0.87253 0.42126 0.0
H396 H 0.10806 0.86019 0.42103 0.0
H397 H 0.096 0.87512 0.43535 0.0
H398 H 0.10798 0.88381 0.41615 0.0
O399 O 0.07042 0.8156 0.41925 0.0
O400 O 0.04733 0.8154 0.40054 0.0
H401 H 0.04432 0.86451 0.36857 0.0
H402 H 0.05787 0.88423 0.36496 0.0
C403 C 0.05023 0.87646 0.37502 0.0
H404 H 0.03929 0.88505 0.38012 0.0
H405 H 0.0213 0.82451 0.37057 0.0
O406 O 0.09326 0.83833 0.44469 0.0
C407 C 0.06078 0.80778 0.40775 0.0
Co408 Co 0.15164 0.91931 0.56445 0.0
Co409 Co 0.15555 0.95252 0.58909 0.0
C410 C 0.1515 0.95498 0.5484 0.0
O411 O 0.14963 0.93822 0.54643 0.0
O412 O 0.15409 0.96176 0.56383 0.0
C413 C 0.16071 0.8927 0.54074 0.0
O414 O 0.1729 0.90471 0.53679 0.0
C415 C 0.13884 0.98484 0.60124 0.0
C416 C 0.15567 0.99412 0.62364 0.0
C417 C 0.14066 0.99858 0.61363 0.0
N418 N 0.15216 0.97309 0.60369 0.0
N419 N 0.16221 0.97863 0.61711 0.0
C420 C 0.12424 0.98209 0.58781 0.0
H421 H 0.12288 0.96772 0.58446 0.0
H422 H 0.11129 0.98719 0.59297 0.0
H423 H 0.12767 0.98929 0.57531 0.0
C424 C 0.121 0.91215 0.58775 0.0
N425 N 0.13501 0.9222 0.58281 0.0
N426 N 0.13705 0.9355 0.5941 0.0
C427 C 0.1245 0.93404 0.60701 0.0
C428 C 0.1139 0.91916 0.60341 0.0
C429 C 0.11402 0.89685 0.57688 0.0
H430 H 0.12135 0.8845 0.58061 0.0
H431 H 0.11627 0.89942 0.56246 0.0
H432 H 0.09952 0.89476 0.57919 0.0
O433 O 0.17566 0.91884 0.57431 0.0
O434 O 0.17973 0.94167 0.59276 0.0
H435 H 0.13681 0.95052 0.62703 0.0
H436 H 0.11671 0.93918 0.63432 0.0
C437 C 0.12328 0.94608 0.62294 0.0
H438 H 0.11525 0.95803 0.61941 0.0
H439 H 0.17353 0.97191 0.62174 0.0
O440 O 0.14916 0.89616 0.55267 0.0
C441 C 0.18544 0.92755 0.58508 0.0
Co442 Co 0.07682 0.1541 0.57169 0.0
Co443 Co 0.04323 0.15604 0.59606 0.0
C444 C 0.0405 0.15316 0.55568 0.0
O445 O 0.05741 0.1529 0.55398 0.0
O446 O 0.03325 0.15428 0.57108 0.0
C447 C 0.10489 0.16347 0.54871 0.0
O448 O 0.09569 0.17836 0.54735 0.0
C449 C 0.01136 0.13988 0.61112 0.0
C450 C 0.00401 0.15811 0.63315 0.0
C451 C -0.00113 0.14256 0.6245 0.0
N452 N 0.02353 0.15304 0.61195 0.0
N453 N 0.01914 0.16388 0.6252 0.0
C454 C 0.0109 0.12602 0.59667 0.0
H455 H -0.00029 0.12902 0.58741 0.0
H456 H 0.02364 0.1259 0.58909 0.0
H457 H 0.00855 0.11257 0.60238 0.0
C458 C 0.08486 0.123 0.59382 0.0
N459 N 0.07435 0.13689 0.58953 0.0
N460 N 0.06053 0.1375 0.60038 0.0
C461 C 0.06193 0.12378 0.61209 0.0
C462 C 0.07742 0.11427 0.60831 0.0
C463 C 0.10107 0.11764 0.58336 0.0
H464 H 0.11167 0.12785 0.58527 0.0
H465 H 0.09773 0.11723 0.56892 0.0
H466 H 0.10628 0.1044 0.58753 0.0
O467 O 0.0779 0.17749 0.58222 0.0
O468 O 0.05405 0.18055 0.59953 0.0
H469 H 0.04388 0.13241 0.63268 0.0
H470 H 0.05531 0.11157 0.63734 0.0
C471 C 0.04895 0.11981 0.62676 0.0
H472 H 0.03752 0.11218 0.62121 0.0
H473 H 0.02629 0.17536 0.62862 0.0
O474 O 0.09927 0.15111 0.5589 0.0
C475 C 0.06849 0.18672 0.59283 0.0
Co476 Co 0.84625 0.07873 0.57333 0.0
Co477 Co 0.84155 0.04615 0.59885 0.0
C478 C 0.84409 0.04164 0.55894 0.0
O479 O 0.84531 0.0584 0.55678 0.0
O480 O 0.84284 0.03491 0.57451 0.0
C481 C 0.86045 0.09773 0.54498 0.0
O482 O 0.86792 0.08209 0.54211 0.0
C483 C 0.85598 0.01394 0.61426 0.0
C484 C 0.83604 0.00587 0.63445 0.0
C485 C 0.85199 0.00073 0.62654 0.0
N486 N 0.8432 0.02651 0.615 0.0
N487 N 0.83135 0.02173 0.62721 0.0
C488 C 0.87052 0.01358 0.6005 0.0
H489 H 0.86776 0.00273 0.59076 0.0
H490 H 0.87135 0.02652 0.59332 0.0
H491 H 0.88358 0.01069 0.60686 0.0
C492 C 0.87745 0.08537 0.59601 0.0
N493 N 0.86312 0.07557 0.59148 0.0
N494 N 0.86119 0.06228 0.60285 0.0
C495 C 0.87442 0.06336 0.61515 0.0
C496 C 0.88509 0.07798 0.6111 0.0
C497 C 0.88374 0.10149 0.58596 0.0
H498 H 0.87258 0.11117 0.58465 0.0
H499 H 0.88788 0.0974 0.57232 0.0
H500 H 0.89519 0.10809 0.59269 0.0
O501 O 0.82284 0.08217 0.58355 0.0
O502 O 0.81779 0.05888 0.60125 0.0
H503 H 0.86342 0.04694 0.63597 0.0
H504 H 0.8844 0.05769 0.64158 0.0
C505 C 0.87666 0.0511 0.63077 0.0
H506 H 0.88413 0.03905 0.62647 0.0
H507 H 0.81975 0.02892 0.63013 0.0
O508 O 0.85108 0.1 0.55889 0.0
C509 C 0.81274 0.07357 0.5941 0.0
Co510 Co 0.91971 0.84462 0.57138 0.0
Co511 Co 0.95395 0.84735 0.59516 0.0
C512 C 0.95594 0.84895 0.55491 0.0
O513 O 0.93909 0.84709 0.55354 0.0
O514 O 0.96352 0.84952 0.57018 0.0
C515 C 0.89577 0.83297 0.54608 0.0
O516 O 0.90905 0.82179 0.54338 0.0
C517 C 0.98678 0.86336 0.60911 0.0
C518 C 0.98806 0.85308 0.63677 0.0
C519 C 0.9967 0.86424 0.62478 0.0
N520 N 0.97273 0.85252 0.61183 0.0
N521 N 0.97358 0.84637 0.62838 0.0
C522 C 0.9913 0.87103 0.59119 0.0
H523 H 0.99441 0.85981 0.58205 0.0
H524 H 0.97955 0.87828 0.58576 0.0
H525 H 0.00308 0.87995 0.59141 0.0
C526 C 0.90874 0.87549 0.5928 0.0
N527 N 0.92053 0.86262 0.58863 0.0
N528 N 0.9348 0.86408 0.59882 0.0
C529 C 0.93255 0.87831 0.60973 0.0
C530 C 0.9159 0.88586 0.60636 0.0
C531 C 0.89149 0.87836 0.58306 0.0
H532 H 0.89409 0.87884 0.56847 0.0
H533 H 0.88475 0.89089 0.58722 0.0
H534 H 0.88249 0.86685 0.58564 0.0
O535 O 0.92104 0.82154 0.58268 0.0
O536 O 0.94607 0.8218 0.59865 0.0
H537 H 0.94939 0.87355 0.63231 0.0
H538 H 0.94104 0.89615 0.63091 0.0
C539 C 0.94607 0.88462 0.62304 0.0
H540 H 0.95846 0.88859 0.61594 0.0
H541 H 0.96422 0.83768 0.63398 0.0
O542 O 0.89715 0.84469 0.55828 0.0
C543 C 0.93213 0.81383 0.59288 0.0
Co544 Co 0.42038 0.14974 0.08008 0.0
Co545 Co 0.39887 0.15458 0.04483 0.0
C546 C 0.43858 0.14705 0.04484 0.0
O547 O 0.43905 0.14575 0.06177 0.0
O548 O 0.42402 0.15061 0.03678 0.0
C549 C 0.44158 0.13233 0.1054 0.0
O550 O 0.44126 0.11963 0.09328 0.0
C551 C 0.38615 0.14049 0.01115 0.0
C552 C 0.3663 0.16038 0.0021 0.0
C553 C 0.37452 0.14448 0.99733 0.0
N554 N 0.38472 0.15325 0.02368 0.0
N555 N 0.37277 0.16509 0.01827 0.0
C556 C 0.39975 0.1258 0.01171 0.0
H557 H 0.41125 0.12952 0.00311 0.0
H558 H 0.40459 0.12369 0.02557 0.0
H559 H 0.39411 0.11313 0.00653 0.0
C560 C 0.39269 0.12236 0.08682 0.0
N561 N 0.40012 0.13523 0.07671 0.0
N562 N 0.39124 0.1366 0.06156 0.0
C563 C 0.37818 0.1241 0.06144 0.0
C564 C 0.3787 0.11477 0.07744 0.0
C565 C 0.39935 0.11671 0.10483 0.0
H566 H 0.40455 0.1284 0.11227 0.0
H567 H 0.41018 0.10674 0.10312 0.0
H568 H 0.38855 0.11039 0.11278 0.0
O569 O 0.41335 0.17455 0.08003 0.0
O570 O 0.39727 0.17923 0.05555 0.0
H571 H 0.36071 0.13367 0.04081 0.0
H572 H 0.35388 0.11274 0.05084 0.0
C573 C 0.36551 0.12079 0.04634 0.0
H574 H 0.3725 0.11329 0.03565 0.0
H575 H 0.36932 0.17657 0.02542 0.0
O576 O 0.43226 0.14625 0.10304 0.0
C577 C 0.40429 0.18485 0.07007 0.0
Co578 Co 0.4333 0.84899 0.92568 0.0
Co579 Co 0.40673 0.84421 0.95739 0.0
C580 C 0.44718 0.84774 0.96238 0.0
O581 O 0.44998 0.85011 0.94579 0.0
O582 O 0.43144 0.84488 0.96832 0.0
C583 C 0.45506 0.8393 0.89686 0.0
O584 O 0.45554 0.82411 0.90566 0.0
C585 C 0.3932 0.85678 0.99126 0.0
C586 C 0.36657 0.84431 0.99377 0.0
C587 C 0.37852 0.85554 0.00236 0.0
N588 N 0.39028 0.84671 0.97672 0.0
N589 N 0.3743 0.83928 0.97824 0.0
C590 C 0.40947 0.86809 0.99404 0.0
H591 H 0.41452 0.87305 0.981 0.0
H592 H 0.40649 0.87959 0.00293 0.0
H593 H 0.42005 0.85987 0.00039 0.0
C594 C 0.41027 0.87941 0.91766 0.0
N595 N 0.41498 0.86564 0.92812 0.0
N596 N 0.40323 0.8637 0.94105 0.0
C597 C 0.39047 0.87636 0.93913 0.0
C598 C 0.39447 0.8866 0.92412 0.0
C599 C 0.42091 0.88557 0.90186 0.0
H600 H 0.43537 0.88522 0.90512 0.0
H601 H 0.41719 0.89934 0.8978 0.0
H602 H 0.41852 0.87633 0.8905 0.0
O603 O 0.42303 0.82537 0.92352 0.0
O604 O 0.4033 0.82054 0.94504 0.0
H605 H 0.36761 0.86466 0.95165 0.0
H606 H 0.36465 0.88785 0.9454 0.0
C607 C 0.37425 0.87787 0.95071 0.0
H608 H 0.37839 0.88189 0.96438 0.0
H609 H 0.36866 0.83082 0.96869 0.0
O610 O 0.44643 0.85243 0.90333 0.0
C611 C 0.4116 0.8154 0.93105 0.0
Co612 Co 0.15187 0.43783 0.92544 0.0
Co613 Co 0.15485 0.41075 0.95682 0.0
C614 C 0.15041 0.45078 0.96272 0.0
O615 O 0.14978 0.45375 0.94602 0.0
O616 O 0.1523 0.43494 0.96876 0.0
C617 C 0.16042 0.46499 0.90227 0.0
O618 O 0.17161 0.46838 0.91538 0.0
C619 C 0.13785 0.39202 0.98609 0.0
C620 C 0.15786 0.37182 0.99407 0.0
C621 C 0.14101 0.37837 0.99819 0.0
N622 N 0.152 0.39332 0.97514 0.0
N623 N 0.16389 0.38113 0.97985 0.0
C624 C 0.12243 0.40479 0.98596 0.0
H625 H 0.12444 0.41544 0.97586 0.0
H626 H 0.10992 0.39756 0.98272 0.0
H627 H 0.12081 0.41083 -0.00058 0.0
C628 C 0.12275 0.4143 0.91455 0.0
N629 N 0.1354 0.41916 0.92628 0.0
N630 N 0.13693 0.40693 0.93882 0.0
C631 C 0.12531 0.39356 0.93517 0.0
C632 C 0.11601 0.39783 0.91965 0.0
C633 C 0.11731 0.42536 0.89878 0.0
H634 H 0.11719 0.43971 0.90252 0.0
H635 H 0.10387 0.42153 0.89382 0.0
H636 H 0.12722 0.42349 0.8879 0.0
O637 O 0.17573 0.42812 0.92404 0.0
O638 O 0.17937 0.40862 0.94603 0.0
H639 H 0.11898 0.36545 0.93655 0.0
H640 H 0.11522 0.37786 0.95676 0.0
C641 C 0.12432 0.37627 0.94518 0.0
H642 H 0.13775 0.37243 0.95015 0.0
H643 H 0.17627 0.37944 0.97365 0.0
O644 O 0.14958 0.45202 0.90369 0.0
C645 C 0.1853 0.41689 0.93234 0.0
Co646 Co 0.56366 0.14502 0.93251 0.0
Co647 Co 0.59045 0.15208 0.96341 0.0
C648 C 0.55098 0.14439 0.96989 0.0
O649 O 0.54816 0.1422 0.95329 0.0
O650 O 0.56648 0.1486 0.9757 0.0
C651 C 0.53597 0.15027 0.90949 0.0
O652 O 0.53175 0.16124 0.92255 0.0
C653 C 0.61043 0.13932 0.99408 0.0
C654 C 0.63019 0.16072 -0.00109 0.0
C655 C 0.62439 0.14428 0.00515 0.0
N656 N 0.60823 0.15204 0.98163 0.0
N657 N 0.62014 0.16479 0.9845 0.0
C658 C 0.59826 0.12357 0.99621 0.0
H659 H 0.59069 0.12492 0.0089 0.0
H660 H 0.58878 0.12265 0.98485 0.0
H661 H 0.60613 0.11105 0.997 0.0
C662 C 0.58858 0.1164 0.92391 0.0
N663 N 0.58351 0.13021 0.93413 0.0
N664 N 0.59549 0.13312 0.94668 0.0
C665 C 0.60892 0.12117 0.94451 0.0
C666 C 0.60484 0.11023 0.93009 0.0
C667 C 0.57792 0.10932 0.90853 0.0
H668 H 0.57732 0.11964 0.89788 0.0
H669 H 0.56402 0.10665 0.91298 0.0
H670 H 0.58383 0.09692 0.90294 0.0
O671 O 0.57116 0.16963 0.92975 0.0
O672 O 0.59075 0.17591 0.95102 0.0
H673 H 0.62974 0.13398 0.95957 0.0
H674 H 0.63649 0.11367 0.9482 0.0
C675 C 0.6255 0.12034 0.95563 0.0
H676 H 0.62277 0.11244 0.96786 0.0
H677 H 0.62121 0.17638 0.97681 0.0
O678 O 0.54975 0.1405 0.91094 0.0
C679 C 0.58176 0.18048 0.93727 0.0
Co680 Co 0.84344 0.56707 0.92574 0.0
Co681 Co 0.83969 0.59251 0.95843 0.0
C682 C 0.84668 0.55286 0.96264 0.0
O683 O 0.84733 0.55049 0.94582 0.0
O684 O 0.84361 0.56827 0.96922 0.0
C685 C 0.83673 0.54 0.90203 0.0
O686 O 0.82563 0.5359 0.91501 0.0
C687 C 0.85529 0.6095 0.98939 0.0
C688 C 0.83512 0.62946 0.99753 0.0
C689 C 0.85163 0.6224 0.00212 0.0
N690 N 0.84177 0.6091 0.97761 0.0
N691 N 0.82978 0.62117 0.98243 0.0
C692 C 0.87042 0.59639 0.98946 0.0
H693 H 0.8684 0.58668 0.0005 0.0
H694 H 0.8711 0.58907 0.97658 0.0
H695 H 0.8833 0.60331 0.99183 0.0
C696 C 0.87205 0.5918 0.91614 0.0
N697 N 0.85879 0.58661 0.92704 0.0
N698 N 0.85738 0.59783 0.94052 0.0
C699 C 0.86991 0.61071 0.93846 0.0
C700 C 0.87951 0.60725 0.92296 0.0
C701 C 0.87792 0.58154 0.9 0.0
H702 H 0.86701 0.58166 0.88994 0.0
H703 H 0.88041 0.56741 0.90377 0.0
H704 H 0.8902 0.58727 0.89395 0.0
O705 O 0.81887 0.57527 0.92503 0.0
O706 O 0.81482 0.59326 0.94831 0.0
H707 H 0.85971 0.63097 0.95605 0.0
H708 H 0.87973 0.63724 0.94395 0.0
C709 C 0.87271 0.62613 0.95086 0.0
H710 H 0.88112 0.62176 0.96225 0.0
H711 H 0.81775 0.62337 0.97572 0.0
O712 O 0.84667 0.55366 0.9036 0.0
C713 C 0.80899 0.58539 0.93435 0.0
Co714 Co 0.57314 0.84433 0.07836 0.0
Co715 Co 0.59646 0.84077 0.04403 0.0
C716 C 0.55583 0.8452 0.04316 0.0
O717 O 0.55434 0.84688 0.06001 0.0
O718 O 0.57103 0.8425 0.03597 0.0
C719 C 0.55383 0.83481 0.10935 0.0
O720 O 0.55266 0.81932 0.10116 0.0
C721 C 0.60614 0.85724 0.0109 0.0
C722 C 0.62896 0.84156 0.00072 0.0
C723 C 0.61783 0.85583 0.99657 0.0
N724 N 0.60998 0.84435 0.02276 0.0
N725 N 0.62366 0.83498 0.01667 0.0
C726 C 0.59216 0.87124 0.01409 0.0
H727 H 0.58977 0.87299 0.02862 0.0
H728 H 0.59623 0.88422 0.00818 0.0
H729 H 0.57939 0.86692 0.0079 0.0
C730 C 0.59719 0.87443 0.0851 0.0
N731 N 0.59177 0.86061 0.07503 0.0
N732 N 0.60213 0.85915 0.0609 0.0
C733 C 0.61461 0.8722 0.06159 0.0
C734 C 0.61192 0.88219 0.077 0.0
C735 C 0.5876 0.88069 0.10152 0.0
H736 H 0.59015 0.87112 0.11256 0.0
H737 H 0.57299 0.88091 0.09897 0.0
H738 H 0.592 0.89421 0.10571 0.0
O739 O 0.58268 0.8202 0.07814 0.0
O740 O 0.60022 0.81638 0.05452 0.0
H741 H 0.63398 0.86206 0.04303 0.0
H742 H 0.64006 0.88307 0.05348 0.0
C743 C 0.62886 0.87509 0.04788 0.0
H744 H 0.62314 0.88249 0.03638 0.0
H745 H 0.6293 0.82409 0.02332 0.0
O746 O 0.56217 0.84758 0.10189 0.0
C747 C 0.59301 0.8105 0.06884 0.0
Co748 Co 0.15525 0.57727 0.07802 0.0
Co749 Co 0.15432 0.60037 0.04342 0.0
C750 C 0.15072 0.56026 0.04221 0.0
O751 O 0.15237 0.55897 0.05909 0.0
O752 O 0.151 0.57543 0.03448 0.0
C753 C 0.16616 0.55474 0.10602 0.0
O754 O 0.18073 0.55354 0.09628 0.0
C755 C 0.13704 0.61462 0.0116 0.0
C756 C 0.15558 0.63587 0.00285 0.0
C757 C 0.13981 0.62725 0.99836 0.0
N758 N 0.15042 0.61583 0.02353 0.0
N759 N 0.16139 0.62867 0.01832 0.0
C760 C 0.12303 0.60034 0.01194 0.0
H761 H 0.12599 0.59036 0.00137 0.0
H762 H 0.12273 0.59358 0.02513 0.0
H763 H 0.10967 0.60609 0.0091 0.0
C764 C 0.12474 0.59972 0.08759 0.0
N765 N 0.13801 0.59527 0.07636 0.0
N766 N 0.1374 0.60549 0.06207 0.0
C767 C 0.12345 0.61686 0.06383 0.0
C768 C 0.11508 0.61358 0.08008 0.0
C769 C 0.12062 0.58976 0.10447 0.0
H770 H 0.13188 0.59143 0.11398 0.0
H771 H 0.11937 0.57529 0.10146 0.0
H772 H 0.1081 0.5945 0.11084 0.0
O773 O 0.17886 0.58748 0.07708 0.0
O774 O 0.17989 0.60286 0.05171 0.0
H775 H 0.12983 0.63657 0.04399 0.0
H776 H 0.10953 0.64099 0.05643 0.0
C777 C 0.1179 0.63041 0.05024 0.0
H778 H 0.10989 0.62374 0.0397 0.0
H779 H 0.17311 0.63215 0.02503 0.0
O780 O 0.15355 0.56488 0.10088 0.0
C781 C 0.18728 0.59705 0.06595 0.0
Co782 Co 0.84545 0.42659 0.07694 0.0
Co783 Co 0.84561 0.40242 0.04302 0.0
C784 C 0.84931 0.44295 0.04133 0.0
O785 O 0.84896 0.44477 0.05822 0.0
O786 O 0.84794 0.42757 0.03416 0.0
C787 C 0.83266 0.44753 0.1053 0.0
O788 O 0.81833 0.44807 0.09514 0.0
C789 C 0.86481 0.39111 0.01183 0.0
C790 C 0.84888 0.36887 0.0008 0.0
C791 C 0.8639 0.37929 0.99753 0.0
N792 N 0.85094 0.38801 0.02275 0.0
N793 N 0.84147 0.37463 0.0162 0.0
C794 C 0.87891 0.40478 0.01575 0.0
H795 H 0.87972 0.40735 0.03033 0.0
H796 H 0.89215 0.40029 0.01078 0.0
H797 H 0.87531 0.41756 0.00915 0.0
C798 C 0.87531 0.40351 0.08713 0.0
N799 N 0.86254 0.40847 0.07555 0.0
N800 N 0.86237 0.39749 0.06183 0.0
C801 C 0.87507 0.3849 0.06442 0.0
C802 C 0.88361 0.38827 0.08061 0.0
C803 C 0.88 0.41389 0.1036 0.0
H804 H 0.87038 0.41052 0.11437 0.0
H805 H 0.87895 0.42842 0.10085 0.0
H806 H 0.89375 0.41088 0.10825 0.0
O807 O 0.82172 0.41615 0.07525 0.0
O808 O 0.82031 0.39888 0.05111 0.0
H809 H 0.86578 0.36481 0.04617 0.0
H810 H 0.88525 0.35841 0.05913 0.0
C811 C 0.87853 0.36959 0.05204 0.0
H812 H 0.88734 0.37414 0.04102 0.0
H813 H 0.82981 0.36967 0.02204 0.0
O814 O 0.84621 0.4387 0.10012 0.0
C815 C 0.81317 0.40571 0.065 0.0
Co816 Co 0.57473 0.93056 0.65016 0.0
Co817 Co 0.54274 0.90435 0.65454 0.0
C818 C 0.53769 0.94438 0.6496 0.0
O819 O 0.55437 0.94699 0.64769 0.0
O820 O 0.53156 0.9288 0.65281 0.0
C821 C 0.59856 0.95692 0.65811 0.0
O822 O 0.58595 0.95997 0.66995 0.0
C823 C 0.50869 0.88962 0.64323 0.0
C824 C 0.50855 0.86238 0.65462 0.0
C825 C 0.49867 0.87416 0.64432 0.0
N826 N 0.52387 0.88728 0.6525 0.0
N827 N 0.52373 0.87096 0.65933 0.0
C828 C 0.50443 0.90598 0.63253 0.0
H829 H 0.49863 0.91626 0.6415 0.0
H830 H 0.51682 0.91145 0.62647 0.0
H831 H 0.49461 0.90298 0.62181 0.0
C832 C 0.58319 0.90728 0.62002 0.0
N833 N 0.57303 0.91164 0.63413 0.0
N834 N 0.55947 0.90052 0.6354 0.0
C835 C 0.56051 0.88874 0.62173 0.0
C836 C 0.57569 0.89255 0.61172 0.0
C837 C 0.59894 0.91802 0.61393 0.0
H838 H 0.60969 0.91707 0.62411 0.0
H839 H 0.59504 0.93229 0.61285 0.0
H840 H 0.60415 0.91336 0.60085 0.0
O841 O 0.57639 0.92155 0.67423 0.0
O842 O 0.55458 0.90203 0.67866 0.0
H843 H 0.54554 0.86587 0.63 0.0
H844 H 0.55111 0.86603 0.60647 0.0
C845 C 0.54706 0.87444 0.61801 0.0
H846 H 0.53393 0.88068 0.61512 0.0
H847 H 0.53407 0.86561 0.66702 0.0
O848 O 0.59666 0.94425 0.64699 0.0
C849 C 0.56834 0.91048 0.68418 0.0
Co850 Co 0.06607 0.57011 0.65324 0.0
Co851 Co 0.09048 0.53661 0.65637 0.0
C852 C 0.05037 0.53383 0.65044 0.0
O853 O 0.04857 0.55072 0.64975 0.0
O854 O 0.06564 0.52674 0.65314 0.0
C855 C 0.04086 0.59561 0.66141 0.0
O856 O 0.03625 0.58295 0.67268 0.0
C857 C 0.10646 0.50562 0.63979 0.0
C858 C 0.12703 0.49694 0.65912 0.0
C859 C 0.11952 0.49286 0.64268 0.0
N860 N 0.10641 0.51697 0.65367 0.0
N861 N 0.1188 0.51181 0.66518 0.0
C862 C 0.09307 0.50616 0.62491 0.0
H863 H 0.08389 0.49457 0.62618 0.0
H864 H 0.08523 0.51873 0.62531 0.0
H865 H 0.09983 0.50511 0.61177 0.0
C866 C 0.09053 0.57905 0.62415 0.0
N867 N 0.08518 0.5682 0.6374 0.0
N868 N 0.09606 0.55445 0.63864 0.0
C869 C 0.10893 0.55628 0.62605 0.0
C870 C 0.10582 0.57193 0.61655 0.0
C871 C 0.08042 0.5953 0.61829 0.0
H872 H 0.0822 0.60601 0.6284 0.0
H873 H 0.06595 0.59215 0.61751 0.0
H874 H 0.08505 0.60025 0.6051 0.0
O875 O 0.07499 0.57032 0.67754 0.0
O876 O 0.09242 0.54656 0.68121 0.0
H877 H 0.12882 0.53827 0.63629 0.0
H878 H 0.13551 0.55052 0.61652 0.0
C879 C 0.12421 0.54369 0.6233 0.0
H880 H 0.11979 0.53248 0.61468 0.0
H881 H 0.12142 0.51823 0.67728 0.0
O882 O 0.05377 0.59298 0.65074 0.0
C883 C 0.08512 0.56076 0.68717 0.0
Co884 Co 0.41993 0.06754 0.65259 0.0
Co885 Co 0.45288 0.0929 0.65178 0.0
C886 C 0.45608 0.05242 0.64847 0.0
O887 O 0.43927 0.05006 0.649 0.0
O888 O 0.46275 0.06805 0.64961 0.0
C889 C 0.39588 0.04282 0.66506 0.0
O890 O 0.4093 0.04025 0.6761 0.0
C891 C 0.4834 0.10563 0.63219 0.0
C892 C 0.49391 0.12783 0.64854 0.0
C893 C 0.49738 0.11787 0.63324 0.0
N894 N 0.47252 0.1081 0.64623 0.0
N895 N 0.47875 0.12146 0.65594 0.0
C896 C 0.47974 0.09206 0.61792 0.0
H897 H 0.46529 0.08882 0.61744 0.0
H898 H 0.48413 0.09705 0.60466 0.0
H899 H 0.48702 0.07953 0.62109 0.0
C900 C 0.40822 0.09018 0.62293 0.0
N901 N 0.42031 0.08555 0.63534 0.0
N902 N 0.43366 0.09699 0.63521 0.0
C903 C 0.43028 0.10955 0.62265 0.0
C904 C 0.41399 0.10566 0.61454 0.0
C905 C 0.39185 0.07941 0.61882 0.0
H906 H 0.39489 0.06495 0.62004 0.0
H907 H 0.38682 0.08214 0.60514 0.0
H908 H 0.38125 0.08276 0.62864 0.0
O909 O 0.42144 0.07825 0.67613 0.0
O910 O 0.44483 0.09654 0.67712 0.0
H911 H 0.44793 0.13026 0.63175 0.0
H912 H 0.43423 0.13635 0.61271 0.0
C913 C 0.44194 0.12539 0.6191 0.0
H914 H 0.45291 0.1214 0.60996 0.0
H915 H 0.47291 0.12596 0.66778 0.0
O916 O 0.39729 0.05454 0.65287 0.0
C917 C 0.43127 0.08925 0.68444 0.0
Co918 Co 0.91991 0.42363 0.65395 0.0
Co919 Co 0.89711 0.45833 0.65481 0.0
C920 C 0.93739 0.45917 0.6506 0.0
O921 O 0.93853 0.44219 0.65085 0.0
O922 O 0.92231 0.46697 0.65209 0.0
C923 C 0.9407 0.39423 0.66481 0.0
O924 O 0.94243 0.40369 0.6795 0.0
C925 C 0.88385 0.4908 0.63843 0.0
C926 C 0.86342 0.50029 0.6575 0.0
C927 C 0.87201 0.50462 0.64168 0.0
N928 N 0.88223 0.4787 0.65156 0.0
N929 N 0.86984 0.48432 0.66285 0.0
C930 C 0.89798 0.4901 0.62427 0.0
H931 H 0.90873 0.49975 0.62764 0.0
H932 H 0.90379 0.47649 0.62332 0.0
H933 H 0.89233 0.49399 0.61113 0.0
C934 C 0.89693 0.41527 0.62354 0.0
N935 N 0.9017 0.42601 0.63709 0.0
N936 N 0.89161 0.44042 0.63714 0.0
C937 C 0.87997 0.4392 0.62334 0.0
C938 C 0.88299 0.42321 0.61437 0.0
C939 C 0.90648 0.39831 0.61883 0.0
H940 H 0.90459 0.38848 0.62978 0.0
H941 H 0.92102 0.401 0.61765 0.0
H942 H 0.90153 0.39248 0.60613 0.0
O943 O 0.91015 0.42437 0.67781 0.0
O944 O 0.89427 0.44932 0.67999 0.0
H945 H 0.86061 0.45901 0.63084 0.0
H946 H 0.85552 0.44715 0.61032 0.0
C947 C 0.86637 0.45304 0.61856 0.0
H948 H 0.87289 0.46374 0.61066 0.0
H949 H 0.86627 0.47759 0.67454 0.0
O950 O 0.93137 0.40032 0.65199 0.0
C951 C 0.90045 0.43495 0.68676 0.0
Co952 Co 0.57158 0.06509 0.34459 0.0
Co953 Co 0.53812 0.09 0.34475 0.0
C954 C 0.53504 0.04964 0.34708 0.0
O955 O 0.55192 0.04768 0.3465 0.0
O956 O 0.52796 0.06515 0.34662 0.0
C957 C 0.60008 0.04429 0.33185 0.0
O958 O 0.59032 0.04431 0.31724 0.0
C959 C 0.50798 0.10608 0.36327 0.0
C960 C 0.49992 0.1281 0.34532 0.0
C961 C 0.49577 0.11989 0.36139 0.0
N962 N 0.51904 0.10629 0.34913 0.0
N963 N 0.51423 0.11954 0.33847 0.0
C964 C 0.50826 0.09194 0.37745 0.0
H965 H 0.49516 0.08497 0.37776 0.0
H966 H 0.51911 0.08217 0.37499 0.0
H967 H 0.51041 0.09807 0.39075 0.0
C968 C 0.58195 0.08738 0.37495 0.0
N969 N 0.57025 0.08273 0.36215 0.0
N970 N 0.55667 0.09392 0.36213 0.0
C971 C 0.55947 0.10623 0.37508 0.0
C972 C 0.57554 0.10243 0.38354 0.0
C973 C 0.59884 0.07739 0.37886 0.0
H974 H 0.60847 0.07964 0.36781 0.0
H975 H 0.59598 0.06285 0.37951 0.0
H976 H 0.60499 0.08176 0.39163 0.0
O977 O 0.57135 0.07636 0.32136 0.0
O978 O 0.54723 0.09358 0.31971 0.0
H979 H 0.54218 0.12727 0.36597 0.0
H980 H 0.55523 0.13275 0.3856 0.0
C981 C 0.54771 0.122 0.37866 0.0
H982 H 0.53651 0.11784 0.38741 0.0
H983 H 0.52056 0.12258 0.32641 0.0
O984 O 0.5944 0.05231 0.34571 0.0
C985 C 0.5614 0.08705 0.31284 0.0
Co986 Co 0.92842 0.56818 0.34415 0.0
Co987 Co 0.90303 0.53536 0.33957 0.0
C988 C 0.9429 0.53086 0.34171 0.0
O989 O 0.94478 0.54762 0.3435 0.0
O990 O 0.92743 0.52397 0.33984 0.0
C991 C 0.95664 0.58696 0.35914 0.0
O992 O 0.95894 0.57144 0.36703 0.0
C993 C 0.88791 0.50103 0.34954 0.0
C994 C 0.86001 0.50264 0.33997 0.0
C995 C 0.8719 0.49182 0.34913 0.0
N996 N 0.88573 0.51664 0.34097 0.0
N997 N 0.86906 0.51748 0.33511 0.0
C998 C 0.90451 0.49593 0.3595 0.0
H999 H 0.91434 0.49028 0.34993 0.0
H1000 H 0.91052 0.50793 0.36581 0.0
H1001 H 0.90167 0.48578 0.36994 0.0
C1002 C 0.90576 0.57474 0.37536 0.0
N1003 N 0.91034 0.56499 0.36101 0.0
N1004 N 0.89973 0.55102 0.35969 0.0
C1005 C 0.88819 0.55132 0.37362 0.0
C1006 C 0.89157 0.56646 0.38379 0.0
C1007 C 0.91536 0.59128 0.38126 0.0
H1008 H 0.91696 0.60047 0.36975 0.0
H1009 H 0.92887 0.58756 0.38611 0.0
H1010 H 0.90816 0.59827 0.39217 0.0
O1011 O 0.91804 0.57186 0.32084 0.0
O1012 O 0.89998 0.54874 0.31634 0.0
H1013 H 0.86494 0.53672 0.36578 0.0
H1014 H 0.8666 0.54056 0.38957 0.0
C1015 C 0.87428 0.53745 0.37726 0.0
H1016 H 0.88079 0.52423 0.3788 0.0
H1017 H 0.86371 0.52842 0.3283 0.0
O1018 O 0.94315 0.58925 0.34915 0.0
C1019 C 0.90704 0.56339 0.31111 0.0
Co1020 Co 0.423 0.92035 0.34029 0.0
Co1021 Co 0.45786 0.89758 0.34155 0.0
C1022 C 0.45904 0.9376 0.34445 0.0
O1023 O 0.44213 0.93863 0.34275 0.0
O1024 O 0.46698 0.92253 0.34445 0.0
C1025 C 0.3959 0.94421 0.33045 0.0
O1026 O 0.40616 0.94626 0.31634 0.0
C1027 C 0.49254 0.88439 0.35377 0.0
C1028 C 0.49262 0.85625 0.34485 0.0
C1029 C 0.50269 0.86897 0.35372 0.0
N1030 N 0.47711 0.88114 0.34522 0.0
N1031 N 0.47722 0.86427 0.33991 0.0
C1032 C 0.49713 0.90173 0.3626 0.0
H1033 H 0.50192 0.9112 0.35226 0.0
H1034 H 0.4851 0.90743 0.36912 0.0
H1035 H 0.50781 0.89998 0.37276 0.0
C1036 C 0.41394 0.89847 0.37145 0.0
N1037 N 0.42486 0.90265 0.35783 0.0
N1038 N 0.43956 0.89307 0.35886 0.0
C1039 C 0.43858 0.88267 0.3736 0.0
C1040 C 0.42222 0.88563 0.38189 0.0
C1041 C 0.3967 0.90792 0.37524 0.0
H1042 H 0.38763 0.90639 0.3636 0.0
H1043 H 0.39936 0.9224 0.377 0.0
H1044 H 0.39003 0.90268 0.3874 0.0
O1045 O 0.42356 0.90992 0.31675 0.0
O1046 O 0.44923 0.89501 0.31612 0.0
H1047 H 0.45616 0.86048 0.36999 0.0
H1048 H 0.4498 0.86432 0.39297 0.0
C1049 C 0.45334 0.8709 0.38015 0.0
H1050 H 0.46565 0.87896 0.38197 0.0
H1051 H 0.46673 0.85819 0.333 0.0
O1052 O 0.40035 0.93298 0.34237 0.0
C1053 C 0.43495 0.90047 0.30853 0.0
Co1054 Co 0.07228 0.41983 0.34238 0.0
Co1055 Co 0.09613 0.45373 0.33805 0.0
C1056 C 0.05596 0.45615 0.34107 0.0
O1057 O 0.05464 0.43934 0.34272 0.0
O1058 O 0.07115 0.46348 0.33901 0.0
C1059 C 0.04623 0.39999 0.35872 0.0
O1060 O 0.0454 0.41496 0.36787 0.0
C1061 C 0.10779 0.48697 0.353 0.0
C1062 C 0.1315 0.49477 0.33728 0.0
C1063 C 0.12059 0.5003 0.35125 0.0
N1064 N 0.11086 0.47436 0.34062 0.0
N1065 N 0.12505 0.47904 0.3312 0.0
C1066 C 0.09353 0.4853 0.36698 0.0
H1067 H 0.08993 0.47107 0.36906 0.0
H1068 H 0.09804 0.49114 0.37986 0.0
H1069 H 0.08135 0.49244 0.36243 0.0
C1070 C 0.09643 0.41316 0.3726 0.0
N1071 N 0.09076 0.42326 0.35888 0.0
N1072 N 0.10106 0.43744 0.35734 0.0
C1073 C 0.1136 0.43682 0.37037 0.0
C1074 C 0.11107 0.42139 0.38033 0.0
C1075 C 0.08758 0.39623 0.37856 0.0
H1076 H 0.08503 0.38753 0.36683 0.0
H1077 H 0.07456 0.39951 0.38484 0.0
H1078 H 0.0958 0.38883 0.38842 0.0
O1079 O 0.08237 0.41766 0.31865 0.0
O1080 O 0.09962 0.44149 0.31428 0.0
H1081 H 0.13357 0.45462 0.36006 0.0
H1082 H 0.13888 0.44499 0.38163 0.0
C1083 C 0.12799 0.45042 0.37312 0.0
H1084 H 0.12226 0.4623 0.37987 0.0
H1085 H 0.13033 0.47153 0.3207 0.0
O1086 O 0.05844 0.39811 0.34713 0.0
C1087 C 0.09288 0.42673 0.30887 0.0
Co1088 Co 0.65287 0.57057 0.92771 0.0
Co1089 Co 0.65 0.53684 0.90352 0.0
C1090 C 0.64827 0.53423 0.94369 0.0
O1091 O 0.65016 0.55105 0.94528 0.0
O1092 O 0.64777 0.52686 0.92832 0.0
C1093 C 0.66458 0.59443 0.95324 0.0
O1094 O 0.67541 0.58097 0.95643 0.0
C1095 C 0.63108 0.50648 0.88813 0.0
C1096 C 0.64826 0.49882 0.86536 0.0
C1097 C 0.63273 0.49422 0.87434 0.0
N1098 N 0.64486 0.51795 0.88722 0.0
N1099 N 0.65502 0.51341 0.87349 0.0
C1100 C 0.61768 0.50634 0.903 0.0
H1101 H 0.61984 0.49432 0.91143 0.0
H1102 H 0.61892 0.51853 0.91134 0.0
H1103 H 0.60392 0.50565 0.89759 0.0
C1104 C 0.62223 0.5822 0.90634 0.0
N1105 N 0.63487 0.57013 0.91043 0.0
N1106 N 0.63349 0.5562 0.89978 0.0
C1107 C 0.61968 0.55908 0.88847 0.0
C1108 C 0.61219 0.57564 0.89227 0.0
C1109 C 0.61939 0.59924 0.91645 0.0
H1110 H 0.61889 0.59633 0.93099 0.0
H1111 H 0.60687 0.60608 0.9124 0.0
H1112 H 0.63091 0.60827 0.91406 0.0
O1113 O 0.67599 0.56924 0.91636 0.0
O1114 O 0.67555 0.54454 0.8999 0.0
H1115 H 0.62574 0.54058 0.8674 0.0
H1116 H 0.60554 0.55346 0.86394 0.0
C1117 C 0.6139 0.54651 0.87404 0.0
H1118 H 0.60586 0.5356 0.88003 0.0
H1119 H 0.66678 0.52002 0.86992 0.0
O1120 O 0.65303 0.59307 0.94088 0.0
C1121 C 0.68358 0.55833 0.90588 0.0
Co1122 Co 0.42017 0.65563 0.92369 0.0
Co1123 Co 0.45385 0.65712 0.89927 0.0
C1124 C 0.45657 0.65427 0.93951 0.0
O1125 O 0.43968 0.65433 0.94128 0.0
O1126 O 0.46378 0.65521 0.92411 0.0
C1127 C 0.39462 0.66626 0.94771 0.0
O1128 O 0.40502 0.68041 0.94729 0.0
C1129 C 0.48579 0.64046 0.88511 0.0
C1130 C 0.49502 0.65936 0.86441 0.0
C1131 C 0.49933 0.64346 0.87289 0.0
N1132 N 0.47383 0.65378 0.8838 0.0
N1133 N 0.47931 0.66499 0.87129 0.0
C1134 C 0.48524 0.62628 0.89922 0.0
H1135 H 0.49585 0.62895 0.90924 0.0
H1136 H 0.47205 0.62607 0.90599 0.0
H1137 H 0.48792 0.61297 0.89328 0.0
C1138 C 0.41189 0.62445 0.90162 0.0
N1139 N 0.42247 0.63828 0.90593 0.0
N1140 N 0.43631 0.63881 0.89507 0.0
C1141 C 0.43485 0.62512 0.88336 0.0
C1142 C 0.41935 0.61567 0.88717 0.0
C1143 C 0.39539 0.61944 0.91175 0.0
H1144 H 0.38527 0.63017 0.91017 0.0
H1145 H 0.3986 0.61841 0.9262 0.0
H1146 H 0.38969 0.60659 0.90704 0.0
O1147 O 0.41938 0.67899 0.91287 0.0
O1148 O 0.44345 0.68182 0.89582 0.0
H1149 H 0.45314 0.63374 0.86298 0.0
H1150 H 0.44123 0.61328 0.85788 0.0
C1151 C 0.44777 0.62115 0.86863 0.0
H1152 H 0.45899 0.61312 0.87403 0.0
H1153 H 0.47268 0.67678 0.86788 0.0
O1154 O 0.39806 0.65321 0.93739 0.0
C1155 C 0.42902 0.68815 0.90239 0.0
Co1156 Co 0.3471 0.42281 0.93045 0.0
Co1157 Co 0.34605 0.45544 0.90464 0.0
C1158 C 0.34974 0.45965 0.94485 0.0
O1159 O 0.34938 0.44282 0.94721 0.0
O1160 O 0.34872 0.46636 0.9292 0.0
C1161 C 0.33507 0.39569 0.95301 0.0
O1162 O 0.32079 0.40591 0.95321 0.0
C1163 C 0.36271 0.48603 0.88739 0.0
C1164 C 0.34259 0.49404 0.86732 0.0
C1165 C 0.35902 0.49876 0.87446 0.0
N1166 N 0.34919 0.47423 0.88778 0.0
N1167 N 0.33729 0.47894 0.8756 0.0
C1168 C 0.37781 0.48613 0.90053 0.0
H1169 H 0.37757 0.49879 0.90827 0.0
H1170 H 0.37688 0.47457 0.90975 0.0
H1171 H 0.39074 0.48548 0.89333 0.0
C1172 C 0.37646 0.41191 0.9072 0.0
N1173 N 0.36404 0.42384 0.91218 0.0
N1174 N 0.36345 0.43701 0.90054 0.0
C1175 C 0.37555 0.43368 0.88753 0.0
C1176 C 0.38408 0.4176 0.89131 0.0
C1177 C 0.38096 0.39547 0.91771 0.0
H1178 H 0.38104 0.39864 0.93219 0.0
H1179 H 0.39421 0.39 0.9139 0.0
H1180 H 0.37057 0.38517 0.9153 0.0
O1181 O 0.32347 0.42253 0.92011 0.0
O1182 O 0.32112 0.4458 0.90198 0.0
H1183 H 0.36486 0.44992 0.86643 0.0
H1184 H 0.38457 0.43721 0.86032 0.0
C1185 C 0.37799 0.44491 0.87117 0.0
H1186 H 0.38651 0.45656 0.87452 0.0
H1187 H 0.32525 0.47225 0.8734 0.0
O1188 O 0.34863 0.40048 0.94397 0.0
C1189 C 0.31446 0.43193 0.9093 0.0
Co1190 Co 0.56988 0.34183 0.92524 0.0
Co1191 Co 0.53628 0.33756 0.90086 0.0
C1192 C 0.53284 0.34209 0.94058 0.0
O1193 O 0.54971 0.34316 0.94214 0.0
O1194 O 0.52562 0.33973 0.92535 0.0
C1195 C 0.58979 0.35801 0.95175 0.0
O1196 O 0.57475 0.36695 0.95329 0.0
C1197 C 0.50187 0.34814 0.88646 0.0
C1198 C 0.5017 0.33674 0.85922 0.0
C1199 C 0.49181 0.34699 0.87103 0.0
N1200 N 0.51708 0.33894 0.88408 0.0
N1201 N 0.5169 0.33205 0.86779 0.0
C1202 C 0.49774 0.35908 0.90271 0.0
H1203 H 0.49218 0.35022 0.91321 0.0
H1204 H 0.51015 0.36532 0.90792 0.0
H1205 H 0.4878 0.36968 0.89971 0.0
C1206 C 0.57701 0.37189 0.90109 0.0
N1207 N 0.56706 0.35791 0.90633 0.0
N1208 N 0.55274 0.35671 0.89618 0.0
C1209 C 0.55302 0.37034 0.88429 0.0
C1210 C 0.56847 0.38023 0.887 0.0
C1211 C 0.59398 0.37769 0.90998 0.0
H1212 H 0.60259 0.3659 0.91255 0.0
H1213 H 0.59071 0.38402 0.92298 0.0
H1214 H 0.60141 0.38749 0.90169 0.0
O1215 O 0.57208 0.3177 0.91627 0.0
O1216 O 0.54824 0.31348 0.89906 0.0
H1217 H 0.53681 0.36238 0.86217 0.0
H1218 H 0.54201 0.38597 0.8626 0.0
C1219 C 0.53865 0.37417 0.87095 0.0
H1220 H 0.52589 0.37672 0.87804 0.0
H1221 H 0.5273 0.32448 0.86238 0.0
O1222 O 0.59144 0.3467 0.93926 0.0
C1223 C 0.56271 0.3078 0.90617 0.0
Co1224 Co 0.65534 0.42194 0.07204 0.0
Co1225 Co 0.65505 0.45604 0.09577 0.0
C1226 C 0.65151 0.4581 0.05564 0.0
O1227 O 0.65273 0.4412 0.05413 0.0
O1228 O 0.65205 0.46559 0.07093 0.0
C1229 C 0.66526 0.3946 0.04831 0.0
O1230 O 0.67944 0.40474 0.04617 0.0
C1231 C 0.63765 0.48731 0.11059 0.0
C1232 C 0.65595 0.49592 0.13211 0.0
C1233 C 0.6401 0.50027 0.12356 0.0
N1234 N 0.65125 0.47564 0.11156 0.0
N1235 N 0.6621 0.48075 0.12454 0.0
C1236 C 0.62368 0.48699 0.09625 0.0
H1237 H 0.62649 0.49778 0.08647 0.0
H1238 H 0.62363 0.47392 0.08925 0.0
H1239 H 0.61025 0.48947 0.10197 0.0
C1240 C 0.62476 0.41236 0.09442 0.0
N1241 N 0.63808 0.42355 0.09 0.0
N1242 N 0.63778 0.43762 0.10054 0.0
C1243 C 0.62402 0.43572 0.11214 0.0
C1244 C 0.61543 0.41965 0.10861 0.0
C1245 C 0.62047 0.39559 0.08438 0.0
H1246 H 0.61916 0.39869 0.06993 0.0
H1247 H 0.60793 0.38929 0.08916 0.0
H1248 H 0.63166 0.38598 0.08594 0.0
O1249 O 0.67898 0.42223 0.08238 0.0
O1250 O 0.68037 0.44716 0.09845 0.0
H1251 H 0.63127 0.45476 0.13235 0.0
H1252 H 0.61101 0.44235 0.13698 0.0
C1253 C 0.61907 0.44886 0.12636 0.0
H1254 H 0.61093 0.45969 0.12037 0.0
H1255 H 0.67393 0.47416 0.12792 0.0
O1256 O 0.65323 0.39934 0.05931 0.0
C1257 C 0.68751 0.43292 0.09235 0.0
Co1258 Co 0.57167 0.64975 0.06444 0.0
Co1259 Co 0.53929 0.65369 0.09025 0.0
C1260 C 0.53495 0.65093 0.04991 0.0
O1261 O 0.5517 0.64951 0.04751 0.0
O1262 O 0.52839 0.65258 0.06557 0.0
C1263 C 0.59669 0.65777 0.03885 0.0
O1264 O 0.58459 0.67003 0.03543 0.0
C1265 C 0.50805 0.63796 0.10681 0.0
C1266 C 0.50108 0.65696 0.1283 0.0
C1267 C 0.49593 0.64099 0.12046 0.0
N1268 N 0.52002 0.65132 0.10674 0.0
N1269 N 0.51586 0.66263 0.11966 0.0
C1270 C 0.5074 0.62347 0.09301 0.0
H1271 H 0.49477 0.62457 0.0853 0.0
H1272 H 0.51896 0.6244 0.08379 0.0
H1273 H 0.50753 0.61016 0.0995 0.0
C1274 C 0.57918 0.61864 0.08678 0.0
N1275 N 0.56895 0.63269 0.08236 0.0
N1276 N 0.5559 0.63446 0.09403 0.0
C1277 C 0.55768 0.62152 0.10654 0.0
C1278 C 0.57241 0.61112 0.10222 0.0
C1279 C 0.59532 0.61281 0.07649 0.0
H1280 H 0.60596 0.62304 0.07797 0.0
H1281 H 0.59193 0.61187 0.06208 0.0
H1282 H 0.60045 0.59974 0.08128 0.0
O1283 O 0.57405 0.67313 0.07501 0.0
O1284 O 0.5514 0.6775 0.09361 0.0
H1285 H 0.542 0.63288 0.12775 0.0
H1286 H 0.55354 0.61241 0.13356 0.0
C1287 C 0.54624 0.61957 0.12281 0.0
H1288 H 0.5342 0.61165 0.11939 0.0
H1289 H 0.52294 0.67433 0.12242 0.0
O1290 O 0.59387 0.64646 0.05117 0.0
C1291 C 0.56578 0.68286 0.08614 0.0
Co1292 Co 0.34512 0.57366 0.07223 0.0
Co1293 Co 0.34369 0.53922 0.09563 0.0
C1294 C 0.34858 0.53707 0.05591 0.0
O1295 O 0.34794 0.55401 0.05463 0.0
O1296 O 0.34724 0.52935 0.07104 0.0
C1297 C 0.36179 0.59793 0.04935 0.0
O1298 O 0.37434 0.58563 0.04945 0.0
C1299 C 0.35487 0.50477 0.11029 0.0
C1300 C 0.34452 0.50554 0.13794 0.0
C1301 C 0.35419 0.49518 0.12606 0.0
N1302 N 0.34596 0.52018 0.11257 0.0
N1303 N 0.33971 0.52054 0.12912 0.0
C1304 C 0.36491 0.49989 0.0937 0.0
H1305 H 0.37144 0.51191 0.088 0.0
H1306 H 0.37521 0.48956 0.09643 0.0
H1307 H 0.35532 0.49452 0.08375 0.0
C1308 C 0.37377 0.58311 0.09782 0.0
N1309 N 0.36116 0.57194 0.09151 0.0
N1310 N 0.36142 0.55702 0.10084 0.0
C1311 C 0.37495 0.55794 0.11278 0.0
C1312 C 0.38301 0.57458 0.11137 0.0
C1313 C 0.37741 0.60144 0.09066 0.0
H1314 H 0.36482 0.60774 0.08604 0.0
H1315 H 0.38687 0.60046 0.07929 0.0
H1316 H 0.38359 0.61011 0.10096 0.0
O1317 O 0.3211 0.5741 0.08126 0.0
O1318 O 0.31857 0.54921 0.09729 0.0
H1319 H 0.36962 0.54066 0.13485 0.0
H1320 H 0.3929 0.54635 0.1323 0.0
C1321 C 0.38041 0.54309 0.12499 0.0
H1322 H 0.3824 0.53068 0.11713 0.0
H1323 H 0.33246 0.53117 0.1345 0.0
O1324 O 0.34794 0.59581 0.05882 0.0
C1325 C 0.312 0.56362 0.09094 0.0
Co1326 Co 0.42119 0.34737 0.06828 0.0
Co1327 Co 0.45437 0.34383 0.09326 0.0
C1328 C 0.45732 0.34803 0.05274 0.0
O1329 O 0.44051 0.34943 0.05078 0.0
O1330 O 0.46422 0.34563 0.06818 0.0
C1331 C 0.39199 0.33683 0.04737 0.0
O1332 O 0.40106 0.3218 0.04694 0.0
C1333 C 0.48603 0.36001 0.10885 0.0
C1334 C 0.49534 0.33962 0.12806 0.0
C1335 C 0.49954 0.3562 0.12093 0.0
N1336 N 0.47428 0.34643 0.10895 0.0
N1337 N 0.4798 0.33435 0.12059 0.0
C1338 C 0.48526 0.37533 0.096 0.0
H1339 H 0.49777 0.3758 0.08804 0.0
H1340 H 0.47357 0.37409 0.08697 0.0
H1341 H 0.48418 0.38808 0.10346 0.0
C1342 C 0.4127 0.37691 0.09218 0.0
N1343 N 0.42369 0.36382 0.08679 0.0
N1344 N 0.43706 0.36221 0.09811 0.0
C1345 C 0.43477 0.3743 0.11137 0.0
C1346 C 0.41919 0.3839 0.10804 0.0
C1347 C 0.39641 0.38266 0.08206 0.0
H1348 H 0.39926 0.38263 0.06751 0.0
H1349 H 0.39198 0.39623 0.08608 0.0
H1350 H 0.38543 0.37302 0.08464 0.0
O1351 O 0.42054 0.32349 0.07816 0.0
O1352 O 0.4435 0.31948 0.0964 0.0
H1353 H 0.43901 0.38193 0.13886 0.0
H1354 H 0.45804 0.38439 0.1244 0.0
C1355 C 0.4464 0.37578 0.12756 0.0
H1356 H 0.45137 0.3624 0.13155 0.0
H1357 H 0.4733 0.32224 0.123 0.0
O1358 O 0.39831 0.35013 0.05585 0.0
C1359 C 0.42934 0.31374 0.08884 0.0
Co1360 Co 0.93454 0.65697 0.57213 0.0
Co1361 Co 0.90995 0.65557 0.53859 0.0
C1362 C 0.95035 0.65286 0.53602 0.0
O1363 O 0.95234 0.65403 0.55286 0.0
O1364 O 0.93485 0.6533 0.52899 0.0
C1365 C 0.95998 0.66765 0.59678 0.0
O1366 O 0.96402 0.67847 0.58356 0.0
C1367 C 0.89758 0.63568 0.50824 0.0
C1368 C 0.87395 0.65049 0.49857 0.0
C1369 C 0.8846 0.63571 0.49496 0.0
N1370 N 0.89486 0.64979 0.51896 0.0
N1371 N 0.88069 0.65862 0.5132 0.0
C1372 C 0.91176 0.62194 0.51163 0.0
H1373 H 0.91566 0.62189 0.52593 0.0
H1374 H 0.90703 0.60843 0.50774 0.0
H1375 H 0.92382 0.62527 0.50369 0.0
C1376 C 0.91229 0.62667 0.58318 0.0
N1377 N 0.91682 0.63939 0.57135 0.0
N1378 N 0.90585 0.63889 0.55761 0.0
C1379 C 0.89384 0.62568 0.56037 0.0
C1380 C 0.89757 0.61757 0.57664 0.0
C1381 C 0.92237 0.623 0.60007 0.0
H1382 H 0.91998 0.63408 0.60964 0.0
H1383 H 0.93692 0.62257 0.59718 0.0
H1384 H 0.91822 0.6102 0.6063 0.0
O1385 O 0.92348 0.68029 0.57084 0.0
O1386 O 0.906 0.68088 0.54678 0.0
H1387 H 0.87313 0.63356 0.54213 0.0
H1388 H 0.86799 0.61392 0.55531 0.0
C1389 C 0.87871 0.6212 0.54809 0.0
H1390 H 0.88369 0.61249 0.53718 0.0
H1391 H 0.87569 0.67019 0.51917 0.0
O1392 O 0.94724 0.65661 0.59491 0.0
C1393 C 0.91264 0.68834 0.56062 0.0
Co1394 Co 0.92173 0.34206 0.42041 0.0
Co1395 Co 0.89793 0.34271 0.45461 0.0
C1396 C 0.93827 0.34541 0.45636 0.0
O1397 O 0.93969 0.34417 0.43947 0.0
O1398 O 0.92299 0.34534 0.46393 0.0
C1399 C 0.94458 0.33074 0.39288 0.0
O1400 O 0.94568 0.31638 0.40293 0.0
C1401 C 0.88312 0.36098 0.48568 0.0
C1402 C 0.86288 0.34193 0.4956 0.0
C1403 C 0.87082 0.35826 0.49928 0.0
N1404 N 0.88238 0.347 0.47441 0.0
N1405 N 0.87011 0.33574 0.48029 0.0
C1406 C 0.8967 0.37562 0.4844 0.0
H1407 H 0.90518 0.37561 0.49658 0.0
H1408 H 0.90518 0.37395 0.47236 0.0
H1409 H 0.88991 0.38876 0.48362 0.0
C1410 C 0.89923 0.37224 0.41039 0.0
N1411 N 0.90406 0.35955 0.42209 0.0
N1412 N 0.89315 0.35966 0.43588 0.0
C1413 C 0.8807 0.37251 0.43316 0.0
C1414 C 0.88413 0.38079 0.41685 0.0
C1415 C 0.90951 0.37649 0.39374 0.0
H1416 H 0.92405 0.37605 0.39659 0.0
H1417 H 0.90611 0.38991 0.38843 0.0
H1418 H 0.90651 0.36626 0.38342 0.0
O1419 O 0.91093 0.31873 0.421 0.0
O1420 O 0.895 0.31728 0.44603 0.0
H1421 H 0.86042 0.36364 0.45142 0.0
H1422 H 0.85427 0.38295 0.43813 0.0
C1423 C 0.86534 0.37625 0.4454 0.0
H1424 H 0.86989 0.38522 0.45628 0.0
H1425 H 0.8671 0.32355 0.47421 0.0
O1426 O 0.93444 0.34349 0.39769 0.0
C1427 C 0.90098 0.31019 0.4317 0.0
Co1428 Co 0.65348 0.93343 0.41651 0.0
Co1429 Co 0.65501 0.90908 0.45028 0.0
C1430 C 0.65179 0.94973 0.45229 0.0
O1431 O 0.65158 0.95163 0.43541 0.0
O1432 O 0.65303 0.93428 0.45938 0.0
C1433 C 0.66491 0.95351 0.38677 0.0
O1434 O 0.67995 0.95409 0.39582 0.0
C1435 C 0.63683 0.89692 0.48185 0.0
C1436 C 0.65359 0.87491 0.49212 0.0
C1437 C 0.6383 0.88478 0.49585 0.0
N1438 N 0.65063 0.89448 0.47065 0.0
N1439 N 0.66061 0.88126 0.47677 0.0
C1440 C 0.6222 0.91015 0.47838 0.0
H1441 H 0.62135 0.91331 0.46393 0.0
H1442 H 0.60914 0.90491 0.48308 0.0
H1443 H 0.62522 0.92278 0.48554 0.0
C1444 C 0.62342 0.91001 0.4076 0.0
N1445 N 0.63637 0.91535 0.41881 0.0
N1446 N 0.63739 0.90424 0.43239 0.0
C1447 C 0.62509 0.89122 0.4301 0.0
C1448 C 0.61591 0.89443 0.41426 0.0
C1449 C 0.61818 0.91999 0.39106 0.0
H1450 H 0.61873 0.93458 0.39361 0.0
H1451 H 0.6045 0.91638 0.38661 0.0
H1452 H 0.6278 0.91681 0.38022 0.0
O1453 O 0.67706 0.92277 0.41685 0.0
O1454 O 0.67973 0.90514 0.44054 0.0
H1455 H 0.63613 0.87114 0.44738 0.0
H1456 H 0.61649 0.86411 0.43507 0.0
C1457 C 0.62293 0.87543 0.44218 0.0
H1458 H 0.61436 0.87924 0.45367 0.0
H1459 H 0.67228 0.87673 0.47061 0.0
O1460 O 0.65154 0.94529 0.39328 0.0
C1461 C 0.68616 0.91207 0.42633 0.0
Co1462 Co 0.07717 0.6532 0.42141 0.0
Co1463 Co 0.10075 0.65258 0.45569 0.0
C1464 C 0.06036 0.64955 0.45711 0.0
O1465 O 0.0588 0.65054 0.44022 0.0
O1466 O 0.07567 0.65006 0.46451 0.0
C1467 C 0.05335 0.66329 0.39428 0.0
O1468 O 0.05089 0.67708 0.40488 0.0
C1469 C 0.11178 0.63375 0.48724 0.0
C1470 C 0.13347 0.65017 0.49865 0.0
C1471 C 0.12318 0.63504 0.50187 0.0
N1472 N 0.11498 0.64752 0.4762 0.0
N1473 N 0.12804 0.65728 0.48299 0.0
C1474 C 0.09838 0.61944 0.48315 0.0
H1475 H 0.09574 0.61875 0.46859 0.0
H1476 H 0.10316 0.60624 0.48796 0.0
H1477 H 0.08554 0.62266 0.48982 0.0
C1478 C 0.09983 0.62292 0.4116 0.0
N1479 N 0.09517 0.63596 0.423 0.0
N1480 N 0.10577 0.63568 0.43703 0.0
C1481 C 0.11766 0.62222 0.43489 0.0
C1482 C 0.1143 0.6138 0.41867 0.0
C1483 C 0.08971 0.6186 0.39487 0.0
H1484 H 0.09156 0.62961 0.38511 0.0
H1485 H 0.07523 0.61767 0.39796 0.0
H1486 H 0.0942 0.60587 0.38876 0.0
O1487 O 0.08761 0.67675 0.42253 0.0
O1488 O 0.10397 0.67802 0.44735 0.0
H1489 H 0.13711 0.62952 0.45472 0.0
H1490 H 0.14312 0.61032 0.44119 0.0
C1491 C 0.13197 0.61736 0.44798 0.0
H1492 H 0.12633 0.60826 0.45823 0.0
H1493 H 0.13295 0.66896 0.47717 0.0
O1494 O 0.06479 0.65151 0.39855 0.0
C1495 C 0.09771 0.68522 0.43318 0.0
Co1496 Co 0.3465 0.06933 0.4256 0.0
Co1497 Co 0.33974 0.09458 0.4581 0.0
C1498 C 0.34361 0.05467 0.46255 0.0
O1499 O 0.34616 0.05273 0.4459 0.0
O1500 O 0.34064 0.07007 0.46918 0.0
C1501 C 0.36291 0.04201 0.40665 0.0
O1502 O 0.37074 0.03979 0.42222 0.0
C1503 C 0.34909 0.10883 0.49282 0.0
C1504 C 0.33731 0.1359 0.49305 0.0
C1505 C 0.34745 0.12409 0.50307 0.0
N1506 N 0.34028 0.11131 0.47739 0.0
N1507 N 0.33316 0.1275 0.4776 0.0
C1508 C 0.36015 0.09269 0.49701 0.0
H1509 H 0.35136 0.08213 0.50258 0.0
H1510 H 0.36649 0.0875 0.48464 0.0
H1511 H 0.37067 0.09581 0.507 0.0
C1512 C 0.37735 0.09283 0.42039 0.0
N1513 N 0.36264 0.08793 0.42941 0.0
N1514 N 0.36019 0.09874 0.44308 0.0
C1515 C 0.37359 0.11089 0.4432 0.0
C1516 C 0.38478 0.10747 0.4288 0.0
C1517 C 0.38428 0.0835 0.40409 0.0
H1518 H 0.3732 0.08137 0.39448 0.0
H1519 H 0.38964 0.07025 0.40801 0.0
H1520 H 0.39507 0.09125 0.3975 0.0
O1521 O 0.32283 0.07883 0.42146 0.0
O1522 O 0.31676 0.097 0.44413 0.0
H1523 H 0.36344 0.13344 0.45749 0.0
H1524 H 0.38729 0.13414 0.45354 0.0
C1525 C 0.37582 0.12533 0.45682 0.0
H1526 H 0.37808 0.11921 0.47013 0.0
H1527 H 0.3258 0.13295 0.46708 0.0
O1528 O 0.35243 0.05513 0.40446 0.0
C1529 C 0.31234 0.08953 0.42941 0.0
Co1530 Co 0.06384 0.34655 0.57023 0.0
Co1531 Co 0.08988 0.34234 0.53805 0.0
C1532 C 0.04979 0.3443 0.53315 0.0
O1533 O 0.04743 0.34562 0.54987 0.0
O1534 O 0.06546 0.34304 0.52663 0.0
C1535 C 0.0351 0.35971 0.58939 0.0
O1536 O 0.03219 0.36761 0.57398 0.0
C1537 C 0.10371 0.3576 0.5059 0.0
C1538 C 0.12792 0.342 0.49948 0.0
C1539 C 0.11732 0.35599 0.49342 0.0
N1540 N 0.10599 0.34511 0.51855 0.0
N1541 N 0.12049 0.33578 0.51471 0.0
C1542 C 0.08938 0.37159 0.50675 0.0
H1543 H 0.08487 0.3736 0.52072 0.0
H1544 H 0.09426 0.38447 0.50124 0.0
H1545 H 0.07769 0.36711 0.49883 0.0
C1546 C 0.08622 0.37778 0.57761 0.0
N1547 N 0.08163 0.36376 0.5674 0.0
N1548 N 0.09328 0.36187 0.55435 0.0
C1549 C 0.10584 0.37477 0.55599 0.0
C1550 C 0.10165 0.38522 0.57072 0.0
C1551 C 0.07625 0.38356 0.59396 0.0
H1552 H 0.07539 0.37221 0.60347 0.0
H1553 H 0.06244 0.38737 0.59016 0.0
H1554 H 0.08279 0.39508 0.60065 0.0
O1555 O 0.0748 0.32348 0.57352 0.0
O1556 O 0.09332 0.31877 0.55078 0.0
H1557 H 0.12752 0.36327 0.54117 0.0
H1558 H 0.13236 0.38495 0.55085 0.0
C1559 C 0.12195 0.37664 0.5443 0.0
H1560 H 0.11802 0.38319 0.53161 0.0
H1561 H 0.1253 0.32522 0.52245 0.0
O1562 O 0.04924 0.35064 0.5915 0.0
C1563 C 0.08601 0.3137 0.56539 0.0
Co1564 Co 0.65372 0.07214 0.5703 0.0
Co1565 Co 0.65692 0.09848 0.53837 0.0
C1566 C 0.65418 0.05824 0.53333 0.0
O1567 O 0.6531 0.0555 0.55004 0.0
O1568 O 0.65575 0.07403 0.52711 0.0
C1569 C 0.66259 0.04601 0.59416 0.0
O1570 O 0.67463 0.04337 0.58164 0.0
C1571 C 0.641 0.11399 0.50687 0.0
C1572 C 0.66013 0.13489 0.49863 0.0
C1573 C 0.64422 0.12669 0.49386 0.0
N1574 N 0.65417 0.11477 0.51902 0.0
N1575 N 0.66553 0.12741 0.51414 0.0
C1576 C 0.62674 0.09996 0.50668 0.0
H1577 H 0.62946 0.09039 0.49567 0.0
H1578 H 0.62635 0.09263 0.51956 0.0
H1579 H 0.6135 0.10612 0.5041 0.0
C1580 C 0.62223 0.0938 0.57849 0.0
N1581 N 0.63647 0.09003 0.56826 0.0
N1582 N 0.63771 0.10174 0.55519 0.0
C1583 C 0.62408 0.11352 0.55684 0.0
C1584 C 0.61392 0.10884 0.57166 0.0
C1585 C 0.61635 0.08257 0.59397 0.0
H1586 H 0.62581 0.08452 0.60523 0.0
H1587 H 0.61675 0.06825 0.59016 0.0
H1588 H 0.60266 0.08609 0.59846 0.0
O1589 O 0.67695 0.0829 0.57258 0.0
O1590 O 0.68096 0.10198 0.55029 0.0
H1591 H 0.63385 0.13482 0.54024 0.0
H1592 H 0.61321 0.13974 0.55194 0.0
C1593 C 0.62094 0.12922 0.54488 0.0
H1594 H 0.61307 0.12487 0.5331 0.0
H1595 H 0.67727 0.13048 0.52103 0.0
O1596 O 0.65103 0.05826 0.59218 0.0
C1597 C 0.68648 0.09432 0.56451 0.0
Co1598 Co 0.34693 0.92894 0.57686 0.0
Co1599 Co 0.34587 0.90354 0.54392 0.0
C1600 C 0.34832 0.94409 0.54054 0.0
O1601 O 0.349 0.94627 0.55736 0.0
O1602 O 0.34688 0.92851 0.53374 0.0
C1603 C 0.33563 0.95356 0.60148 0.0
O1604 O 0.32407 0.95621 0.58853 0.0
C1605 C 0.36339 0.88836 0.51268 0.0
C1606 C 0.34427 0.86776 0.50365 0.0
C1607 C 0.3604 0.87581 0.49936 0.0
N1608 N 0.34976 0.88766 0.52436 0.0
N1609 N 0.33845 0.87518 0.51901 0.0
C1610 C 0.37793 0.90209 0.51334 0.0
H1611 H 0.37832 0.9096 0.50055 0.0
H1612 H 0.37588 0.91144 0.52465 0.0
H1613 H 0.39105 0.89542 0.51508 0.0
C1614 C 0.37738 0.90664 0.58671 0.0
N1615 N 0.36432 0.91118 0.5753 0.0
N1616 N 0.36382 0.89975 0.56195 0.0
C1617 C 0.3766 0.88725 0.56467 0.0
C1618 C 0.38553 0.8912 0.58051 0.0
C1619 C 0.38219 0.91734 0.60293 0.0
H1620 H 0.38087 0.93181 0.6 0.0
H1621 H 0.39606 0.91455 0.60739 0.0
H1622 H 0.3728 0.91397 0.61392 0.0
O1623 O 0.32345 0.91815 0.57687 0.0
O1624 O 0.32129 0.89953 0.55394 0.0
H1625 H 0.36646 0.86635 0.54781 0.0
H1626 H 0.3861 0.86031 0.56065 0.0
C1627 C 0.37943 0.8712 0.55309 0.0
H1628 H 0.38808 0.87493 0.54166 0.0
H1629 H 0.32648 0.87216 0.52549 0.0
O1630 O 0.34784 0.94194 0.59949 0.0
C1631 C 0.31461 0.90693 0.56778 0.0
H1632 H 0.10418 0.4458 0.27959 0.0
H1633 H 0.08697 0.39321 0.29627 0.0
H1634 H 0.10164 0.4365 0.24835 0.0
H1635 H 0.08438 0.38406 0.2652 0.0
H1636 H 0.05205 0.39136 0.2111 0.0
H1637 H 0.06189 0.39393 0.24217 0.0
H1638 H 0.11254 0.41529 0.22456 0.0
H1639 H 0.10285 0.41269 0.19365 0.0
C1640 C 0.10036 0.43215 0.27662 0.0
C1641 C 0.09548 0.42037 0.29036 0.0
C1642 C 0.09888 0.42681 0.25875 0.0
C1643 C 0.09251 0.40963 0.25441 0.0
C1644 C 0.08899 0.39746 0.26818 0.0
C1645 C 0.09054 0.40274 0.28596 0.0
C1646 C 0.06545 0.39611 0.21385 0.0
C1647 C 0.07653 0.4021 0.19996 0.0
C1648 C 0.0711 0.3976 0.23162 0.0
C1649 C 0.08788 0.4051 0.23572 0.0
C1650 C 0.09943 0.40979 0.22177 0.0
C1651 C 0.09386 0.40822 0.20408 0.0
H1652 H 0.60758 0.0947 0.206 0.0
H1653 H 0.58586 0.04181 0.21348 0.0
H1654 H 0.59888 0.10271 0.23649 0.0
H1655 H 0.57683 0.04991 0.24394 0.0
H1656 H 0.54093 0.07944 0.28395 0.0
H1657 H 0.55243 0.07363 0.25378 0.0
H1658 H 0.60429 0.09329 0.26973 0.0
H1659 H 0.59286 0.09876 0.29988 0.0
C1660 C 0.60156 0.0846 0.21447 0.0
C1661 C 0.59757 0.06759 0.2076 0.0
C1662 C 0.5964 0.08924 0.23177 0.0
C1663 C 0.58684 0.07705 0.2423 0.0
C1664 C 0.58393 0.05962 0.23588 0.0
C1665 C 0.5894 0.05486 0.21865 0.0
C1666 C 0.55454 0.0832 0.28073 0.0
C1667 C 0.56598 0.08978 0.29402 0.0
C1668 C 0.56122 0.07954 0.26366 0.0
C1669 C 0.57932 0.08269 0.25966 0.0
C1670 C 0.59033 0.09068 0.27255 0.0
C1671 C 0.58375 0.09402 0.28967 0.0
H1672 H 0.94675 0.59869 0.2128 0.0
H1673 H 0.89486 0.57918 0.19644 0.0
H1674 H 0.93761 0.59614 0.24409 0.0
H1675 H 0.88584 0.57665 0.22754 0.0
H1676 H 0.89419 0.54531 0.28188 0.0
H1677 H 0.89636 0.55495 0.25074 0.0
H1678 H 0.91627 0.60636 0.26786 0.0
H1679 H 0.9141 0.59684 0.29887 0.0
C1680 C 0.93327 0.59435 0.21585 0.0
C1681 C 0.92166 0.58885 0.2022 0.0
C1682 C 0.92802 0.59288 0.23374 0.0
C1683 C 0.9111 0.58591 0.23819 0.0
C1684 C 0.89906 0.58173 0.22448 0.0
C1685 C 0.90425 0.58325 0.20668 0.0
C1686 C 0.89853 0.55882 0.27901 0.0
C1687 C 0.90426 0.57017 0.29278 0.0
C1688 C 0.89979 0.56436 0.26119 0.0
C1689 C 0.90678 0.58132 0.25693 0.0
C1690 C 0.91117 0.59312 0.27078 0.0
C1691 C 0.90986 0.58764 0.28852 0.0
H1692 H 0.40464 0.89172 0.29081 0.0
H1693 H 0.45941 0.90807 0.28295 0.0
H1694 H 0.39772 0.89976 0.25982 0.0
H1695 H 0.45234 0.9166 0.2521 0.0
H1696 H 0.42309 0.9559 0.21329 0.0
H1697 H 0.42776 0.94371 0.24342 0.0
H1698 H 0.41021 0.89185 0.22528 0.0
H1699 H 0.40606 0.90391 0.19508 0.0
C1700 C 0.41532 0.89639 0.28221 0.0
C1701 C 0.43259 0.89913 0.28911 0.0
C1702 C 0.41132 0.90115 0.26462 0.0
C1703 C 0.42443 0.90912 0.25388 0.0
C1704 C 0.442 0.91067 0.26033 0.0
C1705 C 0.44611 0.90551 0.27781 0.0
C1706 C 0.41962 0.94209 0.21596 0.0
C1707 C 0.41398 0.93085 0.20208 0.0
C1708 C 0.42258 0.93506 0.23302 0.0
C1709 C 0.4196 0.91682 0.23641 0.0
C1710 C 0.41265 0.90592 0.22287 0.0
C1711 C 0.4101 0.91285 0.20574 0.0
H1712 H 0.09495 0.59305 0.69974 0.0
H1713 H 0.07696 0.54084 0.71634 0.0
H1714 H 0.08893 0.60479 0.72971 0.0
H1715 H 0.07047 0.5527 0.74626 0.0
H1716 H 0.03743 0.58663 0.78546 0.0
H1717 H 0.04576 0.57826 0.75488 0.0
H1718 H 0.09919 0.59806 0.76392 0.0
H1719 H 0.09099 0.60598 0.79461 0.0
C1720 C 0.09026 0.58399 0.71003 0.0
C1721 C 0.08665 0.56602 0.70596 0.0
C1722 C 0.08665 0.59074 0.72704 0.0
C1723 C 0.07892 0.57969 0.74004 0.0
C1724 C 0.0762 0.56148 0.73627 0.0
C1725 C 0.0802 0.55463 0.71935 0.0
C1726 C 0.0507 0.58988 0.78063 0.0
C1727 C 0.06355 0.59709 0.79221 0.0
C1728 C 0.05555 0.58479 0.76332 0.0
C1729 C 0.07319 0.58722 0.75733 0.0
C1730 C 0.08555 0.59599 0.76834 0.0
C1731 C 0.08081 0.6007 0.78575 0.0
H1732 H 0.45248 0.08081 0.71249 0.0
H1733 H 0.40026 0.10091 0.69858 0.0
H1734 H 0.44183 0.07431 0.74281 0.0
H1735 H 0.38969 0.0948 0.72896 0.0
H1736 H 0.39052 0.09478 0.79367 0.0
H1737 H 0.39716 0.10349 0.76284 0.0
H1738 H 0.41678 0.05029 0.75218 0.0
H1739 H 0.40974 0.04149 0.78294 0.0
C1740 C 0.439 0.0846 0.7162 0.0
C1741 C 0.42724 0.09161 0.70343 0.0
C1742 C 0.4328 0.08055 0.73336 0.0
C1743 C 0.41485 0.08373 0.73797 0.0
C1744 C 0.40353 0.09215 0.72564 0.0
C1745 C 0.40963 0.09585 0.7084 0.0
C1746 C 0.39544 0.08475 0.78444 0.0
C1747 C 0.39944 0.06743 0.7905 0.0
C1748 C 0.39945 0.08979 0.76694 0.0
C1749 C 0.40787 0.07767 0.7554 0.0
C1750 C 0.41055 0.05993 0.76101 0.0
C1751 C 0.40619 0.05479 0.77843 0.0
H1752 H 0.95683 0.41735 0.78089 0.0
H1753 H 0.9059 0.39532 0.79656 0.0
H1754 H 0.94467 0.42415 0.75121 0.0
H1755 H 0.89385 0.40173 0.76681 0.0
H1756 H 0.89118 0.40375 0.70234 0.0
H1757 H 0.9 0.39422 0.73237 0.0
H1758 H 0.91843 0.44768 0.74379 0.0
H1759 H 0.90922 0.4573 0.71385 0.0
C1760 C 0.94333 0.41321 0.77767 0.0
C1761 C 0.93234 0.40561 0.7908 0.0
C1762 C 0.93626 0.41741 0.76089 0.0
C1763 C 0.91824 0.41379 0.75699 0.0
C1764 C 0.90774 0.40474 0.76959 0.0
C1765 C 0.91469 0.40087 0.78646 0.0
C1766 C 0.89636 0.41362 0.7116 0.0
C1767 C 0.89934 0.43129 0.70597 0.0
C1768 C 0.9016 0.40812 0.72864 0.0
C1769 C 0.91026 0.42014 0.7401 0.0
C1770 C 0.91203 0.43814 0.73498 0.0
C1771 C 0.90644 0.44373 0.71805 0.0
H1772 H 0.60047 0.95405 0.78293 0.0
H1773 H 0.58507 0.90076 0.7991 0.0
H1774 H 0.59803 0.94499 0.75156 0.0
H1775 H 0.58256 0.89185 0.76796 0.0
H1776 H 0.60081 0.92056 0.69677 0.0
H1777 H 0.60978 0.92416 0.72775 0.0
H1778 H 0.55972 0.90112 0.7449 0.0
H1779 H 0.55055 0.89755 0.71367 0.0
C1780 C 0.59711 0.94032 0.77981 0.0
C1781 C 0.59271 0.92822 0.79343 0.0
C1782 C 0.59564 0.93512 0.76188 0.0
C1783 C 0.58976 0.91779 0.7574 0.0
C1784 C 0.58674 0.90537 0.77105 0.0
C1785 C 0.58829 0.9105 0.78887 0.0
C1786 C 0.59176 0.91599 0.70711 0.0
C1787 C 0.5748 0.909 0.70278 0.0
C1788 C 0.59694 0.91814 0.72485 0.0
C1789 C 0.58537 0.91318 0.73868 0.0
C1790 C 0.56893 0.90501 0.73443 0.0
C1791 C 0.56367 0.90293 0.71659 0.0
H1792 H 0.19813 0.09859 0.40804 0.0
H1793 H 0.21648 0.04667 0.39052 0.0
H1794 H 0.22892 0.10835 0.41178 0.0
H1795 H 0.24742 0.05656 0.39423 0.0
H1796 H 0.2819 0.10182 0.44593 0.0
H1797 H 0.25128 0.0987 0.43489 0.0
H1798 H 0.27127 0.07816 0.38478 0.0
H1799 H 0.30172 0.08129 0.39567 0.0
C1800 C 0.20876 0.08936 0.40461 0.0
C1801 C 0.20489 0.07172 0.39927 0.0
C1802 C 0.22637 0.09497 0.40684 0.0
C1803 C 0.24051 0.08313 0.40362 0.0
C1804 C 0.23674 0.06599 0.39679 0.0
C1805 C 0.21904 0.06032 0.39462 0.0
C1806 C 0.27976 0.09711 0.43241 0.0
C1807 C 0.2942 0.09153 0.42182 0.0
C1808 C 0.26225 0.09531 0.42606 0.0
C1809 C 0.25894 0.08791 0.40906 0.0
C1810 C 0.27343 0.08359 0.39803 0.0
C1811 C 0.29086 0.08545 0.40431 0.0
H1812 H 0.95805 0.21677 0.41533 0.0
H1813 H 0.90849 0.20133 0.39027 0.0
H1814 H 0.94543 0.24624 0.422 0.0
H1815 H 0.89591 0.23083 0.39668 0.0
H1816 H 0.89093 0.29451 0.40081 0.0
H1817 H 0.90034 0.26477 0.39104 0.0
H1818 H 0.91946 0.25347 0.44431 0.0
H1819 H 0.90981 0.28319 0.45411 0.0
C1820 C 0.94481 0.22004 0.41043 0.0
C1821 C 0.93431 0.20701 0.40203 0.0
C1822 C 0.93744 0.23669 0.41461 0.0
C1823 C 0.91956 0.24054 0.41025 0.0
C1824 C 0.90967 0.22811 0.40028 0.0
C1825 C 0.91695 0.21139 0.39636 0.0
C1826 C 0.89635 0.2853 0.41061 0.0
C1827 C 0.8995 0.29097 0.42824 0.0
C1828 C 0.90195 0.26843 0.40496 0.0
C1829 C 0.91106 0.25713 0.41681 0.0
C1830 C 0.91279 0.26218 0.43484 0.0
C1831 C 0.90691 0.27897 0.44056 0.0
H1832 H 0.78594 0.9523 0.39604 0.0
H1833 H 0.80181 0.901 0.41745 0.0
H1834 H 0.75463 0.94291 0.39736 0.0
H1835 H 0.77069 0.89182 0.41887 0.0
H1836 H 0.70049 0.91783 0.39355 0.0
H1837 H 0.73199 0.92036 0.38603 0.0
H1838 H 0.74608 0.90318 0.4393 0.0
H1839 H 0.71436 0.90074 0.447 0.0
C1840 C 0.78281 0.93891 0.40056 0.0
C1841 C 0.7963 0.92754 0.4069 0.0
C1842 C 0.76491 0.93353 0.40135 0.0
C1843 C 0.7603 0.91673 0.40851 0.0
C1844 C 0.77388 0.90492 0.41361 0.0
C1845 C 0.79169 0.91022 0.41271 0.0
C1846 C 0.71028 0.91428 0.40362 0.0
C1847 C 0.70497 0.90939 0.42101 0.0
C1848 C 0.7283 0.9158 0.39927 0.0
C1849 C 0.7414 0.91227 0.41214 0.0
C1850 C 0.73618 0.90595 0.4291 0.0
C1851 C 0.71806 0.90452 0.43352 0.0
H1852 H 0.04124 0.77927 0.41803 0.0
H1853 H 0.09076 0.79459 0.39286 0.0
H1854 H 0.05372 0.74968 0.42446 0.0
H1855 H 0.10321 0.76496 0.39901 0.0
H1856 H 0.10739 0.70109 0.40229 0.0
H1857 H 0.09824 0.73104 0.39292 0.0
H1858 H 0.07988 0.74202 0.44652 0.0
H1859 H 0.08929 0.7121 0.45592 0.0
C1860 C 0.05444 0.77595 0.41307 0.0
C1861 C 0.06496 0.78896 0.40466 0.0
C1862 C 0.06173 0.75924 0.41711 0.0
C1863 C 0.07956 0.7553 0.4126 0.0
C1864 C 0.08949 0.76774 0.40271 0.0
C1865 C 0.08229 0.78454 0.39894 0.0
C1866 C 0.10219 0.71026 0.41223 0.0
C1867 C 0.0992 0.70446 0.42985 0.0
C1868 C 0.09675 0.72726 0.40682 0.0
C1869 C 0.08793 0.73856 0.4189 0.0
C1870 C 0.08634 0.73334 0.4369 0.0
C1871 C 0.09207 0.71642 0.44238 0.0
H1872 H 0.3 0.91297 0.60036 0.0
H1873 H 0.2867 0.89525 0.54698 0.0
H1874 H 0.26842 0.91529 0.60762 0.0
H1875 H 0.25491 0.89763 0.55434 0.0
H1876 H 0.19894 0.89519 0.5757 0.0
H1877 H 0.23016 0.88652 0.57383 0.0
H1878 H 0.24558 0.93716 0.59688 0.0
H1879 H 0.21414 0.94595 0.59881 0.0
C1880 C 0.29031 0.90924 0.59026 0.0
C1881 C 0.2958 0.90418 0.57298 0.0
C1882 C 0.27224 0.91067 0.59444 0.0
C1883 C 0.25926 0.90696 0.58147 0.0
C1884 C 0.26468 0.90054 0.56462 0.0
C1885 C 0.28285 0.89914 0.56039 0.0
C1886 C 0.20894 0.90443 0.58063 0.0
C1887 C 0.20409 0.92141 0.58718 0.0
C1888 C 0.22682 0.89943 0.57947 0.0
C1889 C 0.24027 0.91123 0.58497 0.0
C1890 C 0.23543 0.92775 0.59261 0.0
C1891 C 0.21746 0.93281 0.59372 0.0
H1892 H 0.10162 0.20045 0.58779 0.0
H1893 H 0.04786 0.21543 0.60285 0.0
H1894 H 0.10941 0.23175 0.58388 0.0
H1895 H 0.05586 0.24696 0.59913 0.0
H1896 H 0.09962 0.28394 0.54856 0.0
H1897 H 0.09801 0.25314 0.55956 0.0
H1898 H 0.07675 0.27198 0.60979 0.0
H1899 H 0.07854 0.30257 0.59907 0.0
C1900 C 0.09156 0.21047 0.59068 0.0
C1901 C 0.074 0.20549 0.59533 0.0
C1902 C 0.09606 0.22836 0.58835 0.0
C1903 C 0.08317 0.24167 0.59088 0.0
C1904 C 0.06605 0.23687 0.5971 0.0
C1905 C 0.06147 0.21887 0.5993 0.0
C1906 C 0.09509 0.28152 0.5621 0.0
C1907 C 0.08893 0.29563 0.5728 0.0
C1908 C 0.09414 0.26393 0.5684 0.0
C1909 C 0.08697 0.26026 0.58543 0.0
C1910 C 0.08203 0.27446 0.59653 0.0
C1911 C 0.08311 0.29196 0.59034 0.0
H1912 H 0.80046 0.10682 0.58624 0.0
H1913 H 0.78295 0.05504 0.60503 0.0
H1914 H 0.76955 0.11566 0.58139 0.0
H1915 H 0.75188 0.0641 0.60034 0.0
H1916 H 0.71661 0.10618 0.54697 0.0
H1917 H 0.7474 0.10411 0.55806 0.0
H1918 H 0.72787 0.08635 0.60938 0.0
H1919 H 0.69735 0.08853 0.59851 0.0
C1920 C 0.78999 0.09744 0.58972 0.0
C1921 C 0.79416 0.08008 0.59576 0.0
C1922 C 0.77231 0.10253 0.58684 0.0
C1923 C 0.7584 0.09048 0.59018 0.0
C1924 C 0.76241 0.07367 0.59766 0.0
C1925 C 0.78018 0.06849 0.60042 0.0
C1926 C 0.71891 0.10237 0.56074 0.0
C1927 C 0.70462 0.09725 0.57174 0.0
C1928 C 0.73649 0.10113 0.5671 0.0
C1929 C 0.73995 0.09476 0.58449 0.0
C1930 C 0.72558 0.09097 0.59584 0.0
C1931 C 0.70812 0.09229 0.58958 0.0
H1932 H 0.89881 0.70184 0.59099 0.0
H1933 H 0.92162 0.71681 0.54021 0.0
H1934 H 0.90352 0.73222 0.60221 0.0
H1935 H 0.92669 0.74716 0.55152 0.0
H1936 H 0.95637 0.78793 0.58572 0.0
H1937 H 0.94886 0.75708 0.57768 0.0
H1938 H 0.89449 0.76573 0.59498 0.0
H1939 H 0.90193 0.79664 0.60266 0.0
C1940 C 0.90416 0.71189 0.58203 0.0
C1941 C 0.90956 0.70722 0.56466 0.0
C1942 C 0.90707 0.72913 0.58851 0.0
C1943 C 0.91582 0.7418 0.57783 0.0
C1944 C 0.92018 0.73746 0.56007 0.0
C1945 C 0.91695 0.72028 0.55347 0.0
C1946 C 0.94306 0.78297 0.58854 0.0
C1947 C 0.92975 0.7945 0.59494 0.0
C1948 C 0.93867 0.76549 0.58361 0.0
C1949 C 0.92101 0.75929 0.58534 0.0
C1950 C 0.90815 0.77028 0.59341 0.0
C1951 C 0.91246 0.78784 0.598 0.0
H1952 H 0.41307 0.19905 0.10232 0.0
H1953 H 0.39427 0.21373 0.04964 0.0
H1954 H 0.41723 0.23037 0.10972 0.0
H1955 H 0.3984 0.24529 0.05724 0.0
H1956 H 0.3965 0.30063 0.08088 0.0
H1957 H 0.38774 0.26949 0.07825 0.0
H1958 H 0.43936 0.25327 0.09839 0.0
H1959 H 0.44832 0.28466 0.10095 0.0
C1960 C 0.40959 0.20898 0.09236 0.0
C1961 C 0.40356 0.20389 0.07525 0.0
C1962 C 0.41206 0.22691 0.09664 0.0
C1963 C 0.40839 0.24019 0.08399 0.0
C1964 C 0.40129 0.23526 0.06726 0.0
C1965 C 0.3989 0.21722 0.0629 0.0
C1966 C 0.40596 0.29046 0.08499 0.0
C1967 C 0.42325 0.29508 0.09087 0.0
C1968 C 0.40092 0.27264 0.08339 0.0
C1969 C 0.41295 0.25902 0.08782 0.0
C1970 C 0.42981 0.26357 0.09489 0.0
C1971 C 0.43494 0.2815 0.09641 0.0
H1972 H 0.39602 0.70241 0.90693 0.0
H1973 H 0.45036 0.71664 0.89335 0.0
H1974 H 0.38872 0.73378 0.91126 0.0
H1975 H 0.4429 0.74822 0.89756 0.0
H1976 H 0.4213 0.8043 0.89794 0.0
H1977 H 0.42334 0.77381 0.88704 0.0
H1978 H 0.39918 0.75475 0.93587 0.0
H1979 H 0.39724 0.7855 0.94702 0.0
C1980 C 0.40632 0.71228 0.90445 0.0
C1981 C 0.42388 0.70705 0.90006 0.0
C1982 C 0.40211 0.73022 0.90705 0.0
C1983 C 0.4153 0.74334 0.9051 0.0
C1984 C 0.43246 0.73831 0.89916 0.0
C1985 C 0.43674 0.72026 0.89666 0.0
C1986 C 0.41619 0.79366 0.90634 0.0
C1987 C 0.40936 0.79728 0.92353 0.0
C1988 C 0.41742 0.7762 0.90005 0.0
C1989 C 0.41167 0.76195 0.91069 0.0
C1990 C 0.40368 0.76557 0.92736 0.0
C1991 C 0.40254 0.78313 0.93376 0.0
H1992 H 0.2867 0.45328 0.89837 0.0
H1993 H 0.29934 0.39964 0.91574 0.0
H1994 H 0.25485 0.44659 0.90152 0.0
H1995 H 0.26769 0.39303 0.91885 0.0
H1996 H 0.19852 0.42633 0.89995 0.0
H1997 H 0.22963 0.42765 0.89082 0.0
H1998 H 0.24539 0.4041 0.94113 0.0
H1999 H 0.21403 0.40269 0.95038 0.0
C2000 C 0.28268 0.43996 0.90235 0.0
C2001 C 0.29548 0.4271 0.90706 0.0
C2002 C 0.26447 0.43611 0.90421 0.0
C2003 C 0.25887 0.41936 0.91075 0.0
C2004 C 0.27166 0.40614 0.91415 0.0
C2005 C 0.28977 0.40994 0.91227 0.0
C2006 C 0.20858 0.4212 0.90903 0.0
C2007 C 0.20386 0.41464 0.92605 0.0
C2008 C 0.22639 0.42203 0.90377 0.0
C2009 C 0.2399 0.41623 0.91533 0.0
C2010 C 0.23518 0.40861 0.9319 0.0
C2011 C 0.21726 0.4078 0.93722 0.0
H2012 H 0.59553 0.29366 0.91264 0.0
H2013 H 0.54171 0.27904 0.89751 0.0
H2014 H 0.60274 0.26236 0.91773 0.0
H2015 H 0.54894 0.24765 0.90274 0.0
H2016 H 0.59581 0.21079 0.9527 0.0
H2017 H 0.59324 0.2414 0.94148 0.0
H2018 H 0.56722 0.22187 0.89376 0.0
H2019 H 0.56957 0.19152 0.90492 0.0
C2020 C 0.58532 0.28372 0.91007 0.0
C2021 C 0.56795 0.28882 0.9049 0.0
C2022 C 0.58945 0.26581 0.91311 0.0
C2023 C 0.57633 0.25262 0.91098 0.0
C2024 C 0.55936 0.25755 0.90446 0.0
C2025 C 0.55521 0.27552 0.90141 0.0
C2026 C 0.58982 0.21304 0.93971 0.0
C2027 C 0.58268 0.19877 0.92985 0.0
C2028 C 0.58838 0.23054 0.93324 0.0
C2029 C 0.57984 0.23402 0.91681 0.0
C2030 C 0.57356 0.21964 0.90659 0.0
C2031 C 0.57498 0.20224 0.91302 0.0
H2032 H 0.7802 0.57935 0.95561 0.0
H2033 H 0.79566 0.59149 0.90138 0.0
H2034 H 0.74995 0.57194 0.9452 0.0
H2035 H 0.76534 0.5846 0.89107 0.0
H2036 H 0.69981 0.58782 0.89291 0.0
H2037 H 0.73084 0.59651 0.89884 0.0
H2038 H 0.741 0.54444 0.92146 0.0
H2039 H 0.71009 0.53557 0.91502 0.0
C2040 C 0.7769 0.58109 0.94161 0.0
C2041 C 0.79007 0.58613 0.92929 0.0
C2042 C 0.75978 0.57659 0.93563 0.0
C2043 C 0.75558 0.57744 0.91733 0.0
C2044 C 0.76837 0.58376 0.90521 0.0
C2045 C 0.78558 0.58785 0.91112 0.0
C2046 C 0.70897 0.57799 0.89834 0.0
C2047 C 0.70278 0.56096 0.90326 0.0
C2048 C 0.72657 0.58302 0.90193 0.0
C2049 C 0.73803 0.57123 0.9109 0.0
C2050 C 0.73223 0.55378 0.9147 0.0
C2051 C 0.71473 0.5486 0.91072 0.0
H2052 H 0.58601 0.79662 0.1016 0.0
H2053 H 0.60341 0.78171 0.04854 0.0
H2054 H 0.58189 0.76531 0.10921 0.0
H2055 H 0.59939 0.75019 0.05631 0.0
H2056 H 0.54832 0.71236 0.09948 0.0
H2057 H 0.55874 0.74335 0.09786 0.0
H2058 H 0.60943 0.72538 0.07687 0.0
H2059 H 0.5992 0.69462 0.07853 0.0
C2060 C 0.58929 0.78663 0.09164 0.0
C2061 C 0.59476 0.79163 0.07433 0.0
C2062 C 0.58684 0.76871 0.09603 0.0
C2063 C 0.59002 0.7554 0.08328 0.0
C2064 C 0.59687 0.76025 0.06642 0.0
C2065 C 0.59922 0.77826 0.06196 0.0
C2066 C 0.56182 0.71502 0.09498 0.0
C2067 C 0.5728 0.7011 0.08887 0.0
C2068 C 0.5678 0.73272 0.09403 0.0
C2069 C 0.5848 0.7367 0.08696 0.0
C2070 C 0.59617 0.72269 0.08205 0.0
C2071 C 0.59027 0.70508 0.08307 0.0
H2072 H 0.2837 0.54315 0.08127 0.0
H2073 H 0.29808 0.59465 0.10283 0.0
H2074 H 0.25359 0.55439 0.07469 0.0
H2075 H 0.26796 0.6058 0.09662 0.0
H2076 H 0.2039 0.6073 0.09629 0.0
H2077 H 0.23441 0.59924 0.10486 0.0
H2078 H 0.24411 0.57961 0.05147 0.0
H2079 H 0.21364 0.58802 0.04281 0.0
C2080 C 0.28015 0.5566 0.0853 0.0
C2081 C 0.293 0.56799 0.09276 0.0
C2082 C 0.26311 0.56314 0.08122 0.0
C2083 C 0.25869 0.58105 0.08483 0.0
C2084 C 0.27111 0.59198 0.09363 0.0
C2085 C 0.28821 0.58555 0.09737 0.0
C2086 C 0.21286 0.602 0.0862 0.0
C2087 C 0.2066 0.59847 0.06885 0.0
C2088 C 0.23018 0.5972 0.09116 0.0
C2089 C 0.24136 0.58844 0.07893 0.0
C2090 C 0.23556 0.58609 0.0612 0.0
C2091 C 0.21831 0.59123 0.05614 0.0
H2092 H 0.78558 0.41346 0.04286 0.0
H2093 H 0.79822 0.39556 0.0962 0.0
H2094 H 0.75499 0.42035 0.0525 0.0
H2095 H 0.76755 0.40199 0.10573 0.0
H2096 H 0.70276 0.40205 0.10314 0.0
H2097 H 0.73348 0.39265 0.0968 0.0
H2098 H 0.74553 0.44559 0.07733 0.0
H2099 H 0.71489 0.45512 0.08414 0.0
C2100 C 0.78155 0.41025 0.05639 0.0
C2101 C 0.79405 0.40378 0.06876 0.0
C2102 C 0.76423 0.41449 0.06199 0.0
C2103 C 0.75917 0.41199 0.07991 0.0
C2104 C 0.77123 0.4041 0.09188 0.0
C2105 C 0.78864 0.40024 0.08639 0.0
C2106 C 0.71224 0.41185 0.09824 0.0
C2107 C 0.70666 0.42935 0.09434 0.0
C2108 C 0.72968 0.40642 0.09442 0.0
C2109 C 0.74161 0.41832 0.08624 0.0
C2110 C 0.73639 0.43615 0.08341 0.0
C2111 C 0.71904 0.44169 0.08761 0.0
H2112 H 0.99329 0.54802 0.15897 0.0
H2113 H 0.94863 0.5159 0.14136 0.0
H2114 H 0.01214 0.52144 0.15947 0.0
H2115 H 0.96757 0.48951 0.14121 0.0
H2116 H 0.00135 0.44236 0.16012 0.0
H2117 H 0.98239 0.46891 0.16024 0.0
H2118 H 0.02665 0.50054 0.14074 0.0
H2119 H 0.04565 0.47426 0.14124 0.0
C2120 C 0.98753 0.53533 0.15504 0.0
C2121 C 0.96943 0.53412 0.15017 0.0
C2122 C 0.99836 0.52007 0.15524 0.0
C2123 C 0.99141 0.50324 0.15041 0.0
C2124 C 0.97334 0.50212 0.14535 0.0
C2125 C 0.96249 0.51733 0.1453 0.0
C2126 C 0.00701 0.45499 0.15586 0.0
C2127 C 0.02504 0.45615 0.15073 0.0
C2128 C 0.99612 0.47023 0.15584 0.0
C2129 C 0.00296 0.48696 0.15053 0.0
C2130 C 0.02096 0.48802 0.14525 0.0
C2131 C 0.03186 0.47286 0.14542 0.0
H2132 H 0.55879 0.00963 0.13746 0.0
H2133 H 0.52767 0.0553 0.15413 0.0
H2134 H 0.53177 0.99173 0.13588 0.0
H2135 H 0.50062 0.03711 0.1535 0.0
H2136 H 0.45249 0.00179 0.13918 0.0
H2137 H 0.47873 0.02123 0.13699 0.0
H2138 H 0.51214 0.97786 0.15553 0.0
H2139 H 0.4863 0.95849 0.15692 0.0
C2140 C 0.54617 0.01587 0.14078 0.0
C2141 C 0.54546 0.03389 0.146 0.0
C2142 C 0.53062 0.00554 0.14005 0.0
C2143 C 0.51393 0.0128 0.14489 0.0
C2144 C 0.51314 0.03102 0.14955 0.0
C2145 C 0.52871 0.04146 0.14999 0.0
C2146 C 0.46548 0.99646 0.14272 0.0
C2147 C 0.46729 0.97854 0.14809 0.0
C2148 C 0.48054 0.00762 0.14154 0.0
C2149 C 0.49771 0.00114 0.14589 0.0
C2150 C 0.49933 0.98328 0.15155 0.0
C2151 C 0.4844 0.97214 0.1525 0.0
H2152 H -0.00081 0.44798 0.85423 0.0
H2153 H 0.95334 0.47879 0.83752 0.0
H2154 H 0.01674 0.47528 0.85652 0.0
H2155 H 0.971 0.50601 0.83902 0.0
H2156 H 0.00221 0.5543 0.85745 0.0
H2157 H 0.98474 0.52681 0.85797 0.0
H2158 H 0.03082 0.49728 0.83935 0.0
H2159 H 0.0484 0.52456 0.83964 0.0
C2160 C 0.9929 0.46055 0.85088 0.0
C2161 C 0.97487 0.46115 0.84567 0.0
C2162 C 0.00299 0.47627 0.85212 0.0
C2163 C 0.99537 0.49298 0.84793 0.0
C2164 C 0.9773 0.49351 0.84271 0.0
C2165 C 0.96717 0.47784 0.84171 0.0
C2166 C 0.00862 0.5419 0.85359 0.0
C2167 C 0.0267 0.54165 0.84851 0.0
C2168 C 0.99856 0.52612 0.85375 0.0
C2169 C 0.00627 0.50971 0.84861 0.0
C2170 C 0.02443 0.50951 0.8437 0.0
C2171 C 0.03453 0.52523 0.84376 0.0
H2172 H 0.51787 0.95354 0.83806 0.0
H2173 H 0.55056 -0.00082 0.85155 0.0
H2174 H 0.49145 0.97231 0.83804 0.0
H2175 H 0.52386 0.01799 0.8523 0.0
H2176 H 0.47474 0.04987 0.83407 0.0
H2177 H 0.50173 0.03168 0.83442 0.0
H2178 H 0.47159 0.98765 0.85664 0.0
H2179 H 0.44455 0.00564 0.85555 0.0
C2180 C 0.5194 0.96759 0.84122 0.0
C2181 C 0.53636 0.97484 0.84483 0.0
C2182 C 0.50417 0.97838 0.84134 0.0
C2183 C 0.50537 0.99671 0.84531 0.0
C2184 C 0.52238 0.00399 0.84895 0.0
C2185 C 0.53771 0.9932 0.84862 0.0
C2186 C 0.47388 0.0363 0.83905 0.0
C2187 C 0.45741 0.02917 0.84466 0.0
C2188 C 0.48942 0.02588 0.83936 0.0
C2189 C 0.48894 0.00809 0.84549 0.0
C2190 C 0.47249 0.00113 0.85144 0.0
C2191 C 0.45693 0.01148 0.85091 0.0
H2192 H 0.14538 0.04267 0.47182 0.0
H2193 H 0.16409 0.99776 0.44068 0.0
H2194 H 0.14374 0.02384 0.49818 0.0
H2195 H 0.16309 0.97897 0.46733 0.0
H2196 H 0.14259 0.94586 0.5141 0.0
H2197 H 0.14327 0.96465 0.48756 0.0
H2198 H 0.16159 0.00911 0.5196 0.0
H2199 H 0.16024 0.99049 0.54625 0.0
C2200 C 0.14931 0.02879 0.47062 0.0
C2201 C 0.15491 0.02175 0.45409 0.0
C2202 C 0.14847 0.01798 0.48582 0.0
C2203 C 0.15335 -0.00015 0.485 0.0
C2204 C 0.15897 0.9928 0.46845 0.0
C2205 C 0.15967 0.0036 0.45317 0.0
C2206 C 0.14667 0.95968 0.51551 0.0
C2207 C 0.15134 0.96666 0.53235 0.0
C2208 C 0.14721 0.97043 0.50023 0.0
C2209 C 0.15257 0.98842 0.50133 0.0
C2210 C 0.15714 0.99541 0.51821 0.0
C2211 C 0.15645 0.98469 0.53353 0.0
H2212 H 0.05084 0.15944 0.52125 0.0
H2213 H 0.00472 0.14546 0.55304 0.0
H2214 H 0.03253 0.15932 0.49444 0.0
H2215 H 0.98646 0.14449 0.52605 0.0
H2216 H 0.95461 0.16338 0.47789 0.0
H2217 H 0.973 0.16269 0.50459 0.0
H2218 H 0.01713 0.14183 0.4736 0.0
H2219 H -0.00118 0.14333 0.44663 0.0
C2220 C 0.03679 0.15613 0.5225 0.0
C2221 C 0.02924 0.15252 0.53934 0.0
C2222 C 0.02628 0.15593 0.50704 0.0
C2223 C 0.00793 0.15189 0.50793 0.0
C2224 C 0.00044 0.14801 0.52479 0.0
C2225 C 0.01093 0.14845 0.54031 0.0
C2226 C 0.96824 0.15862 0.47674 0.0
C2227 C 0.97524 0.15344 0.46008 0.0
C2228 C 0.97879 0.15809 0.49215 0.0
C2229 C 0.99662 0.15214 0.49142 0.0
C2230 C 0.00358 0.14679 0.47473 0.0
C2231 C 0.99306 0.14755 0.45923 0.0
H2232 H 0.8516 0.0058 0.55677 0.0
H2233 H 0.83628 0.05134 0.52477 0.0
H2234 H 0.85232 0.98727 0.52993 0.0
H2235 H 0.83604 0.03278 0.49819 0.0
H2236 H 0.83561 0.9547 0.48154 0.0
H2237 H 0.83491 0.97311 0.50829 0.0
H2238 H 0.8541 0.01819 0.4776 0.0
H2239 H 0.85388 -0.00011 0.45068 0.0
C2240 C 0.84819 0.01179 0.54403 0.0
C2241 C 0.84395 0.03004 0.54289 0.0
C2242 C 0.84849 0.00116 0.52861 0.0
C2243 C 0.84428 0.00847 0.51175 0.0
C2244 C 0.83978 0.0267 0.51077 0.0
C2245 C 0.83977 0.03735 0.52609 0.0
C2246 C 0.83964 0.96857 0.4805 0.0
C2247 C 0.84475 0.97586 0.46395 0.0
C2248 C 0.83937 0.97912 0.49591 0.0
C2249 C 0.8445 0.9972 0.49526 0.0
C2250 C 0.84972 0.00444 0.47865 0.0
C2251 C 0.84968 0.99394 0.46317 0.0
H2252 H 0.99044 0.86073 0.55107 0.0
H2253 H 0.94624 0.83873 0.52117 0.0
H2254 H 0.0088 0.86039 0.52425 0.0
H2255 H 0.96476 0.83785 0.49441 0.0
H2256 H -0.00122 0.85181 0.44554 0.0
H2257 H 0.97952 0.85474 0.47178 0.0
H2258 H 0.02376 0.83966 0.50578 0.0
H2259 H 0.043 0.83736 0.4798 0.0
C2260 C 0.98466 0.85571 0.53882 0.0
C2261 C 0.96692 0.84961 0.53837 0.0
C2262 C 0.99522 0.85545 0.52339 0.0
C2263 C 0.98838 0.84891 0.50712 0.0
C2264 C 0.97047 0.84317 0.50659 0.0
C2265 C 0.95986 0.84359 0.522 0.0
C2266 C 0.00436 0.84916 0.45864 0.0
C2267 C 0.02245 0.8444 0.46054 0.0
C2268 C 0.99331 0.85076 0.4737 0.0
C2269 C 6e-05 0.84753 0.49098 0.0
C2270 C 0.01813 0.84265 0.49278 0.0
C2271 C 0.02917 0.8412 0.47781 0.0
H2272 H 0.51893 0.12871 0.96293 0.0
H2273 H 0.54794 0.15606 0.00472 0.0
H2274 H 0.49246 0.12793 0.98163 0.0
H2275 H 0.52105 0.15574 0.02341 0.0
H2276 H 0.47231 0.13961 0.05733 0.0
H2277 H 0.5 0.13754 0.04018 0.0
H2278 H 0.47064 0.14881 0.99172 0.0
H2279 H 0.44301 0.1504 0.0087 0.0
C2280 C 0.51968 0.13457 0.97616 0.0
C2281 C 0.53554 0.14262 0.98225 0.0
C2282 C 0.50441 0.13422 0.98685 0.0
C2283 C 0.50447 0.14205 0.00393 0.0
C2284 C 0.52054 0.14951 0.01035 0.0
C2285 C 0.53594 0.14975 -0.00037 0.0
C2286 C 0.47175 0.14152 0.04299 0.0
C2287 C 0.45538 0.14513 0.0344 0.0
C2288 C 0.48767 0.14046 0.03317 0.0
C2289 C 0.4876 0.14296 0.01454 0.0
C2290 C 0.4712 0.14649 0.00599 0.0
C2291 C 0.45532 0.14751 0.01577 0.0
H2292 H 0.44835 0.83751 0.99767 0.0
H2293 H 0.48108 0.85911 0.95527 0.0
H2294 H 0.47434 0.8371 0.01743 0.0
H2295 H 0.50677 0.85928 0.97508 0.0
H2296 H 0.5535 0.83849 0.00733 0.0
H2297 H 0.52706 0.8392 0.9885 0.0
H2298 H 0.49505 0.85514 0.03388 0.0
H2299 H 0.5215 0.85381 0.05293 0.0
C2300 C 0.46103 0.84233 0.99262 0.0
C2301 C 0.46263 0.8482 0.97483 0.0
C2302 C 0.47593 0.84218 0.00398 0.0
C2303 C 0.49275 0.84802 0.99785 0.0
C2304 C 0.49418 0.85429 0.98018 0.0
C2305 C 0.47937 0.85429 0.96882 0.0
C2306 C 0.54084 0.84217 0.01333 0.0
C2307 C 0.53967 0.8461 0.03167 0.0
C2308 C 0.52565 0.84269 0.00248 0.0
C2309 C 0.50886 0.84733 0.00961 0.0
C2310 C 0.50768 0.8513 0.02796 0.0
C2311 C 0.52289 0.85065 0.03887 0.0
H2312 H 0.15601 0.48568 0.95443 0.0
H2313 H 0.14307 0.45112 -0.00117 0.0
H2314 H 0.15526 0.5114 0.974 0.0
H2315 H 0.14149 0.4772 0.01852 0.0
H2316 H 0.15945 0.52602 0.05171 0.0
H2317 H 0.15865 0.49931 0.03308 0.0
H2318 H 0.13643 0.53042 0.98972 0.0
H2319 H 0.13811 0.5572 0.00807 0.0
C2320 C 0.15276 0.48359 0.96838 0.0
C2321 C 0.14955 0.46631 0.97504 0.0
C2322 C 0.15219 0.49843 0.97964 0.0
C2323 C 0.14811 0.49654 0.9979 0.0
C2324 C 0.14486 0.47921 0.0046 0.0
C2325 C 0.14568 0.46425 0.9933 0.0
C2326 C 0.15433 0.52712 0.03821 0.0
C2327 C 0.14902 0.54378 0.03131 0.0
C2328 C 0.15376 0.51175 0.02753 0.0
C2329 C 0.14763 0.51262 0.00976 0.0
C2330 C 0.14169 0.52923 0.00315 0.0
C2331 C 0.14253 0.54462 0.01371 0.0
H2332 H 0.85981 0.51988 0.95408 0.0
H2333 H 0.83855 0.55036 0.99828 0.0
H2334 H 0.86216 0.4937 0.97317 0.0
H2335 H 0.84012 0.52393 0.01724 0.0
H2336 H 0.85765 0.47716 0.05138 0.0
H2337 H 0.85873 0.50378 0.03268 0.0
H2338 H 0.84416 0.47193 0.98669 0.0
H2339 H 0.84387 0.44526 0.00524 0.0
C2340 C 0.85558 0.52098 0.96788 0.0
C2341 C 0.84892 0.53722 0.97462 0.0
C2342 C 0.8568 0.5059 0.97883 0.0
C2343 C 0.85117 0.50655 0.99677 0.0
C2344 C 0.84481 0.52291 0.00359 0.0
C2345 C 0.8438 0.53808 0.99268 0.0
C2346 C 0.8548 0.47583 0.03724 0.0
C2347 C 0.85065 0.45906 0.02983 0.0
C2348 C 0.85529 0.49114 0.02652 0.0
C2349 C 0.85145 0.49012 0.00812 0.0
C2350 C 0.84749 0.47328 0.00071 0.0
C2351 C 0.84721 0.45794 0.01139 0.0
H2352 H 0.49239 0.05127 0.65304 0.0
H2353 H 0.44686 0.01774 0.64126 0.0
H2354 H 0.5117 0.0251 0.65292 0.0
H2355 H 0.46627 0.99164 0.64038 0.0
H2356 H 0.50252 0.94632 0.65989 0.0
H2357 H 0.4829 0.97232 0.659 0.0
H2358 H 0.52523 0.00334 0.63478 0.0
H2359 H 0.54497 0.9776 0.63636 0.0
C2360 C 0.48653 0.03834 0.65019 0.0
C2361 C 0.46805 0.03663 0.64723 0.0
C2362 C 0.49764 0.02329 0.65001 0.0
C2363 C 0.49061 0.00615 0.64666 0.0
C2364 C 0.47216 0.00453 0.64335 0.0
C2365 C 0.46102 0.01955 0.64371 0.0
C2366 C 0.5076 0.95868 0.65432 0.0
C2367 C 0.52535 0.95987 0.64829 0.0
C2368 C 0.49631 0.97361 0.65371 0.0
C2369 C 0.50244 0.99005 0.64687 0.0
C2370 C 0.5201 0.99107 0.64049 0.0
C2371 C 0.53142 0.97623 0.64129 0.0
H2372 H 0.94123 0.49516 0.65597 0.0
H2373 H 0.97114 0.44778 0.64198 0.0
H2374 H 0.96859 0.51268 0.65516 0.0
H2375 H 0.99844 0.46544 0.64038 0.0
H2376 H 0.0468 0.49833 0.65891 0.0
H2377 H 0.01966 0.48032 0.6582 0.0
H2378 H 0.99043 0.5253 0.63668 0.0
H2379 H 0.01733 0.54345 0.63815 0.0
C2380 C 0.95362 0.4885 0.65249 0.0
C2381 C 0.95396 0.47003 0.64911 0.0
C2382 C 0.96935 0.4986 0.65191 0.0
C2383 C 0.98585 0.49055 0.64769 0.0
C2384 C 0.98611 0.4721 0.64399 0.0
C2385 C 0.97039 0.46196 0.64478 0.0
C2386 C 0.03459 0.50434 0.65395 0.0
C2387 C 0.03424 0.52238 0.64872 0.0
C2388 C 0.019 0.49397 0.65344 0.0
C2389 C 0.0027 0.50132 0.64749 0.0
C2390 C 0.00255 0.51924 0.64175 0.0
C2391 C 0.01806 0.52964 0.64246 0.0
H2392 H 0.49285 0.94153 0.35784 0.0
H2393 H 0.44919 0.97154 0.33495 0.0
H2394 H 0.51061 0.96866 0.35974 0.0
H2395 H 0.46717 -0.00132 0.33624 0.0
H2396 H 0.49902 0.04755 0.35415 0.0
H2397 H 0.48035 0.02077 0.3548 0.0
H2398 H 0.52638 0.98852 0.3413 0.0
H2399 H 0.54501 0.01504 0.34134 0.0
C2400 C 0.48709 0.95389 0.35305 0.0
C2401 C 0.46966 0.95429 0.34608 0.0
C2402 C 0.49731 0.96951 0.35409 0.0
C2403 C 0.49045 0.98594 0.34798 0.0
C2404 C 0.47287 0.98637 0.34128 0.0
C2405 C 0.46257 0.97076 0.34044 0.0
C2406 C 0.50513 0.03471 0.3514 0.0
C2407 C 0.52353 0.03347 0.34775 0.0
C2408 C 0.49441 0.01934 0.35167 0.0
C2409 C 0.5018 0.00238 0.34814 0.0
C2410 C 0.52022 0.00123 0.34447 0.0
C2411 C 0.53093 0.01652 0.34437 0.0
H2412 H 0.05217 0.49164 0.33266 0.0
H2413 H 0.0222 0.44546 0.35011 0.0
H2414 H 0.02475 0.50923 0.33233 0.0
H2415 H 0.99495 0.46316 0.35045 0.0
H2416 H 0.94611 0.49535 0.33257 0.0
H2417 H 0.97337 0.47735 0.33203 0.0
H2418 H 0.00358 0.52265 0.35138 0.0
H2419 H 0.97667 0.54067 0.35125 0.0
C2420 C 0.03977 0.48528 0.33657 0.0
C2421 C 0.03942 0.46713 0.34137 0.0
C2422 C 0.02401 0.49539 0.33648 0.0
C2423 C 0.00754 0.48766 0.34138 0.0
C2424 C 0.00727 0.46952 0.34629 0.0
C2425 C 0.02297 0.45939 0.34622 0.0
C2426 C 0.95859 0.50143 0.3367 0.0
C2427 C 0.95917 0.51948 0.34186 0.0
C2428 C 0.97423 0.4911 0.33648 0.0
C2429 C 0.99079 0.49853 0.34158 0.0
C2430 C 0.99123 0.51652 0.34698 0.0
C2431 C 0.97569 0.52685 0.34703 0.0
H2432 H 0.65661 0.5441 0.97781 0.0
H2433 H 0.63796 0.49913 0.94676 0.0
H2434 H 0.65665 0.52575 0.00456 0.0
H2435 H 0.63724 0.48086 0.97376 0.0
H2436 H 0.65765 0.44798 0.02107 0.0
H2437 H 0.65603 0.46626 0.99426 0.0
H2438 H 0.63907 0.51141 0.02613 0.0
H2439 H 0.64148 0.49325 0.05306 0.0
C2440 C 0.65227 0.53033 0.97673 0.0
C2441 C 0.64734 0.52308 0.96009 0.0
C2442 C 0.65218 0.51979 0.99215 0.0
C2443 C 0.64693 0.50174 0.99145 0.0
C2444 C 0.64167 0.49459 0.97483 0.0
C2445 C 0.64197 0.5051 0.95933 0.0
C2446 C 0.65353 0.46181 0.02236 0.0
C2447 C 0.64978 0.46917 0.03925 0.0
C2448 C 0.65247 0.47229 0.00692 0.0
C2449 C 0.64742 0.49039 0.0079 0.0
C2450 C 0.64334 0.49764 0.02481 0.0
C2451 C 0.64462 0.4872 0.04029 0.0
H2452 H 0.44709 0.6622 0.97385 0.0
H2453 H 0.49163 0.64409 0.9419 0.0
H2454 H 0.46572 0.66135 0.00047 0.0
H2455 H 0.51009 0.64228 0.96866 0.0
H2456 H 0.54422 0.65881 0.01565 0.0
H2457 H 0.52526 0.65958 0.98938 0.0
H2458 H 0.48004 0.64341 0.02159 0.0
H2459 H 0.49901 0.64359 0.04816 0.0
C2460 C 0.46084 0.65783 0.97255 0.0
C2461 C 0.46791 0.6533 0.95573 0.0
C2462 C 0.47152 0.65721 0.98788 0.0
C2463 C 0.4895 0.65175 0.98686 0.0
C2464 C 0.49645 0.64693 0.97001 0.0
C2465 C 0.48584 0.64786 0.95463 0.0
C2466 C 0.53022 0.6554 0.01714 0.0
C2467 C 0.52313 0.65112 0.03401 0.0
C2468 C 0.51932 0.65571 0.00199 0.0
C2469 C 0.50105 0.65143 0.00318 0.0
C2470 C 0.49396 0.64706 0.0201 0.0
C2471 C 0.50485 0.64706 0.03536 0.0
H2472 H 0.36035 0.50256 0.05275 0.0
H2473 H 0.34085 0.54706 0.02162 0.0
H2474 H 0.36221 0.48447 0.0258 0.0
H2475 H 0.34192 0.52879 0.99471 0.0
H2476 H 0.3582 0.49542 0.94643 0.0
H2477 H 0.35957 0.51439 0.97301 0.0
H2478 H 0.34384 0.4694 0.00572 0.0
H2479 H 0.3433 0.45048 0.97947 0.0
C2480 C 0.35631 0.50844 0.04017 0.0
C2481 C 0.35031 0.5262 0.0394 0.0
C2482 C 0.3573 0.49804 0.02466 0.0
C2483 C 0.35203 0.50503 0.00797 0.0
C2484 C 0.34632 0.52294 0.0072 0.0
C2485 C 0.34559 0.53342 0.02269 0.0
C2486 C 0.35513 0.48962 0.95934 0.0
C2487 C 0.35072 0.47142 0.96081 0.0
C2488 C 0.35581 0.50051 0.9746 0.0
C2489 C 0.35188 0.49349 0.99165 0.0
C2490 C 0.34739 0.47528 0.99298 0.0
C2491 C 0.34695 0.4644 0.97783 0.0
H2492 H 0.49278 0.33898 0.04991 0.0
H2493 H 0.44785 0.35785 0.01888 0.0
H2494 H 0.51085 0.33764 0.02282 0.0
H2495 H 0.46603 0.35712 0.99197 0.0
H2496 H 0.49704 0.33488 0.94436 0.0
H2497 H 0.47913 0.3367 0.97154 0.0
H2498 H 0.52542 0.35516 0.0008 0.0
H2499 H 0.54338 0.35276 0.97386 0.0
C2500 C 0.48682 0.34306 0.03736 0.0
C2501 C 0.46884 0.34844 0.03659 0.0
C2502 C 0.4972 0.34236 0.0218 0.0
C2503 C 0.4899 0.34718 0.00511 0.0
C2504 C 0.47202 0.35295 0.00447 0.0
C2505 C 0.46162 0.35351 0.01997 0.0
C2506 C 0.50337 0.33936 0.95658 0.0
C2507 C 0.52166 0.34362 0.9569 0.0
C2508 C 0.49308 0.3405 0.97218 0.0
C2509 C 0.5008 0.34607 0.98844 0.0
C2510 C 0.51906 0.3505 0.98865 0.0
C2511 C 0.52936 0.34923 0.97313 0.0
H2512 H 0.95191 0.64275 0.50084 0.0
H2513 H 0.9851 0.65972 0.54492 0.0
H2514 H 0.97824 0.64038 0.48188 0.0
H2515 H 0.0113 0.65834 0.52579 0.0
H2516 H 0.058 0.64041 0.49247 0.0
H2517 H 0.03147 0.63975 0.51122 0.0
H2518 H -0.00059 0.65708 0.46632 0.0
H2519 H 0.02583 0.65673 0.44739 0.0
C2520 C 0.96482 0.64606 0.50646 0.0
C2521 C 0.96638 0.65135 0.52443 0.0
C2522 C 0.97996 0.64485 0.49553 0.0
C2523 C 0.99704 0.64918 0.5022 0.0
C2524 C 0.99852 0.65451 0.52019 0.0
C2525 C 0.98342 0.65544 0.53118 0.0
C2526 C 0.04526 0.6439 0.48656 0.0
C2527 C 0.04407 0.64857 0.4684 0.0
C2528 C 0.03001 0.6437 0.49737 0.0
C2529 C 0.01318 0.64849 0.49041 0.0
C2530 C 0.01201 0.65301 0.47217 0.0
C2531 C 0.02722 0.65292 0.46129 0.0
H2532 H 0.04808 0.35087 0.49702 0.0
H2533 H 0.01529 0.33792 0.54273 0.0
H2534 H 0.02135 0.35241 0.47836 0.0
H2535 H 0.9888 0.3385 0.52408 0.0
H2536 H 0.94188 0.35658 0.49106 0.0
H2537 H 0.96904 0.35719 0.50905 0.0
H2538 H -0.00104 0.33561 0.46452 0.0
H2539 H 0.97203 0.33591 0.44637 0.0
C2540 C 0.0352 0.34817 0.50304 0.0
C2541 C 0.03383 0.34437 0.52137 0.0
C2542 C 0.01983 0.34896 0.49233 0.0
C2543 C 0.00277 0.34569 0.49967 0.0
C2544 C 0.00156 0.34156 0.51797 0.0
C2545 C 0.01683 0.34105 0.52868 0.0
C2546 C 0.9543 0.35206 0.48512 0.0
C2547 C 0.95478 0.34619 0.4673 0.0
C2548 C 0.96989 0.35228 0.49547 0.0
C2549 C 0.98631 0.34632 0.48835 0.0
C2550 C 0.98673 0.34058 0.47045 0.0
C2551 C 0.97121 0.34064 0.46003 0.0
H2552 H 0.66195 0.0236 0.54128 0.0
H2553 H 0.64533 0.05763 0.49773 0.0
H2554 H 0.66121 0.99784 0.5216 0.0
H2555 H 0.64359 0.03164 0.47811 0.0
H2556 H 0.6593 0.98425 0.44301 0.0
H2557 H 0.65994 0.01045 0.46225 0.0
H2558 H 0.6427 0.97795 0.50686 0.0
H2559 H 0.64309 0.95163 0.48778 0.0
C2560 C 0.65794 0.02554 0.5275 0.0
C2561 C 0.65369 0.04268 0.52107 0.0
C2562 C 0.65736 0.01069 0.5162 0.0
C2563 C 0.65218 0.01247 0.49819 0.0
C2564 C 0.64791 0.02968 0.49178 0.0
C2565 C 0.6488 0.04462 0.50305 0.0
C2566 C 0.6556 0.98272 0.45693 0.0
C2567 C 0.6512 0.96582 0.46387 0.0
C2568 C 0.65586 0.99781 0.46798 0.0
C2569 C 0.65143 0.99646 0.48623 0.0
C2570 C 0.64661 0.97956 0.49302 0.0
C2571 C 0.64668 0.96442 0.48203 0.0
H2572 H 0.34087 0.94608 0.50468 0.0
H2573 H 0.35593 0.97853 0.55003 0.0
H2574 H 0.33935 0.97281 0.48612 0.0
H2575 H 0.35507 0.00512 0.53138 0.0
H2576 H 0.33392 0.05155 0.49788 0.0
H2577 H 0.33508 0.02479 0.51652 0.0
H2578 H 0.35706 0.99492 0.47221 0.0
H2579 H 0.3553 0.02134 0.45352 0.0
C2580 C 0.34407 0.95888 0.51064 0.0
C2581 C 0.34848 0.96013 0.52885 0.0
C2582 C 0.34327 0.97424 0.49998 0.0
C2583 C 0.34703 0.99121 0.50723 0.0
C2584 C 0.35173 0.99237 0.52539 0.0
C2585 C 0.35238 0.97706 0.53607 0.0
C2586 C 0.33898 0.03926 0.49214 0.0
C2587 C 0.34445 0.03862 0.47419 0.0
C2588 C 0.33975 0.02391 0.50285 0.0
C2589 C 0.34614 0.00761 0.49589 0.0
C2590 C 0.35173 0.00708 0.47797 0.0
C2591 C 0.35082 0.02233 0.46726 0.0
H2592 H 0.18047 0.52133 0.10866 0.0
H2593 H 0.14197 0.55689 0.13295 0.0
H2594 H 0.16484 0.49575 0.12137 0.0
H2595 H 0.12659 0.53131 0.14595 0.0
H2596 H 0.08878 0.48813 0.12158 0.0
H2597 H 0.11016 0.51243 0.12255 0.0
H2598 H 0.1493 0.47758 0.1468 0.0
H2599 H 0.12765 0.45294 0.14596 0.0
C2600 C 0.16924 0.52374 0.11748 0.0
C2601 C 0.16198 0.54096 0.11933 0.0
C2602 C 0.16032 0.50908 0.12479 0.0
C2603 C 0.14423 0.51164 0.13408 0.0
C2604 C 0.13878 0.52906 0.13844 0.0
C2605 C 0.14757 0.54367 0.13104 0.0
C2606 C 0.10191 0.48558 0.12713 0.0
C2607 C 0.10658 0.46864 0.13362 0.0
C2608 C 0.11406 0.49958 0.12797 0.0
C2609 C 0.1312 0.49693 0.13516 0.0
C2610 C 0.13606 0.47995 0.14145 0.0
C2611 C 0.12374 0.4659 0.14084 0.0
H2612 H 0.53645 0.11079 0.16855 0.0
H2613 H 0.54493 0.12549 0.11336 0.0
H2614 H 0.50586 0.12231 0.16691 0.0
H2615 H 0.51466 0.13774 0.11206 0.0
H2616 H 0.45632 0.10379 0.12225 0.0
H2617 H 0.48513 0.10349 0.13768 0.0
H2618 H 0.48863 0.16082 0.13268 0.0
H2619 H 0.45944 0.1613 0.11796 0.0
C2620 C 0.53208 0.11734 0.15639 0.0
C2621 C 0.54284 0.11716 0.14098 0.0
C2622 C 0.51465 0.12391 0.15551 0.0
C2623 C 0.50815 0.13088 0.13942 0.0
C2624 C 0.51961 0.13259 0.12466 0.0
C2625 C 0.53682 0.12554 0.12536 0.0
C2626 C 0.46287 0.11637 0.12519 0.0
C2627 C 0.45585 0.13251 0.11882 0.0
C2628 C 0.47923 0.11622 0.13408 0.0
C2629 C 0.48888 0.13216 0.13627 0.0
C2630 C 0.4812 0.14846 0.13127 0.0
C2631 C 0.46458 0.14867 0.12284 0.0
H2632 H 0.88182 0.5163 0.18283 0.0
H2633 H 0.86872 0.54288 0.1332 0.0
H2634 H 0.86024 0.49282 0.1759 0.0
H2635 H 0.8473 0.51948 0.12633 0.0
H2636 H 0.81189 0.47648 0.1133 0.0
H2637 H 0.82015 0.501 0.1332 0.0
H2638 H 0.86583 0.47068 0.15141 0.0
H2639 H 0.85762 0.44629 0.13166 0.0
C2640 C 0.87399 0.5174 0.17069 0.0
C2641 C 0.87727 0.53112 0.15829 0.0
C2642 C 0.86162 0.50399 0.16679 0.0
C2643 C 0.85226 0.50425 0.15052 0.0
C2644 C 0.85421 0.51899 0.13904 0.0
C2645 C 0.86666 0.53228 0.14286 0.0
C2646 C 0.82333 0.47482 0.12203 0.0
C2647 C 0.83445 0.45976 0.12059 0.0
C2648 C 0.82802 0.48884 0.13341 0.0
C2649 C 0.84377 0.48784 0.14358 0.0
C2650 C 0.85358 0.47183 0.14376 0.0
C2651 C 0.84899 0.45791 0.1323 0.0
H2652 H 0.46122 0.8755 0.13874 0.0
H2653 H 0.4909 0.89429 0.18463 0.0
H2654 H 0.484 0.85309 0.13316 0.0
H2655 H 0.51382 0.87169 0.179 0.0
H2656 H 0.55729 0.86262 0.13242 0.0
H2657 H 0.53447 0.8736 0.15269 0.0
H2658 H 0.50247 0.82665 0.14233 0.0
H2659 H 0.5254 0.81562 0.12187 0.0
C2660 C 0.47242 0.87454 0.14789 0.0
C2661 C 0.47457 0.88691 0.16181 0.0
C2662 C 0.48535 0.86152 0.14485 0.0
C2663 C 0.50075 0.86075 0.15559 0.0
C2664 C 0.50211 0.87209 0.17049 0.0
C2665 C 0.48904 0.88504 0.17364 0.0
C2666 C 0.54566 0.85435 0.13492 0.0
C2667 C 0.54281 0.83857 0.12518 0.0
C2668 C 0.53266 0.86054 0.1467 0.0
C2669 C 0.51657 0.85111 0.1488 0.0
C2670 C 0.5147 0.83425 0.14073 0.0
C2671 C 0.52781 0.82797 0.12903 0.0
H2672 H 0.09835 0.51543 0.82757 0.0
H2673 H 0.13222 0.55905 0.84416 0.0
H2674 H 0.11955 0.49423 0.83943 0.0
H2675 H 0.15456 0.53779 0.85471 0.0
H2676 H 0.16464 0.50085 0.9031 0.0
H2677 H 0.15536 0.52189 0.88044 0.0
H2678 H 0.14461 0.47801 0.84416 0.0
H2679 H 0.15242 0.45696 0.86777 0.0
C2680 C 0.11079 0.52042 0.83307 0.0
C2681 C 0.11351 0.53878 0.83545 0.0
C2682 C 0.12314 0.50823 0.83979 0.0
C2683 C 0.13868 0.51421 0.84863 0.0
C2684 C 0.14242 0.53267 0.84873 0.0
C2685 C 0.12974 0.54487 0.84255 0.0
C2686 C 0.16059 0.49578 0.89015 0.0
C2687 C 0.15874 0.4774 0.88724 0.0
C2688 C 0.15543 0.50786 0.87697 0.0
C2689 C 0.14875 0.50175 0.86043 0.0
C2690 C 0.14897 0.48325 0.85692 0.0
C2691 C 0.15355 0.47117 0.87036 0.0
H2692 H 0.54594 0.14246 0.87543 0.0
H2693 H 0.50017 0.15508 0.90819 0.0
H2694 H 0.52636 0.13754 0.84983 0.0
H2695 H 0.48046 0.14882 0.88334 0.0
H2696 H 0.44491 0.13455 0.84176 0.0
H2697 H 0.46745 0.15321 0.85608 0.0
H2698 H 0.5081 0.1147 0.84129 0.0
H2699 H 0.48585 0.09717 0.82582 0.0
C2700 C 0.53164 0.14417 0.87708 0.0
C2701 C 0.52444 0.14882 0.89374 0.0
C2702 C 0.52041 0.14133 0.86246 0.0
C2703 C 0.50173 0.14247 0.86444 0.0
C2704 C 0.49472 0.14808 0.88101 0.0
C2705 C 0.506 0.15145 0.89543 0.0
C2706 C 0.45883 0.1306 0.84099 0.0
C2707 C 0.4637 0.11434 0.83307 0.0
C2708 C 0.47173 0.14113 0.84936 0.0
C2709 C 0.48953 0.13513 0.85057 0.0
C2710 C 0.49461 0.11988 0.84076 0.0
C2711 C 0.48179 0.10968 0.83189 0.0
H2712 H 0.86911 0.44606 0.84488 0.0
H2713 H 0.90353 0.48991 0.83013 0.0
H2714 H 0.84656 0.46716 0.85529 0.0
H2715 H 0.88204 0.51095 0.84187 0.0
H2716 H 0.84665 0.54796 0.86797 0.0
H2717 H 0.85644 0.52691 0.84509 0.0
H2718 H 0.84458 0.48306 0.88104 0.0
H2719 H 0.83346 0.50403 0.90292 0.0
C2720 C 0.8717 0.46026 0.84371 0.0
C2721 C 0.88807 0.46645 0.83705 0.0
C2722 C 0.85889 0.47237 0.84979 0.0
C2723 C 0.8626 0.49083 0.85003 0.0
C2724 C 0.87846 0.49694 0.84188 0.0
C2725 C 0.89096 0.48485 0.83525 0.0
C2726 C 0.84573 0.53375 0.87063 0.0
C2727 C 0.83965 0.52753 0.88722 0.0
C2728 C 0.85144 0.52167 0.85762 0.0
C2729 C 0.85185 0.50321 0.86129 0.0
C2730 C 0.84439 0.49707 0.87746 0.0
C2731 C 0.83814 0.50912 0.89019 0.0
H2732 H 0.51602 0.88927 0.81353 0.0
H2733 H 0.54833 0.87225 0.85831 0.0
H2734 H 0.49272 0.86815 0.82238 0.0
H2735 H 0.52519 0.85129 0.86708 0.0
H2736 H 0.48197 0.81788 0.88461 0.0
H2737 H 0.50412 0.82569 0.86191 0.0
H2738 H 0.47486 0.87411 0.85023 0.0
H2739 H 0.45284 0.86636 0.87275 0.0
C2740 C 0.5184 0.8806 0.82488 0.0
C2741 C 0.53368 0.8827 0.83558 0.0
C2742 C 0.5051 0.86851 0.8299 0.0
C2743 C 0.50706 0.8583 0.84553 0.0
C2744 C 0.52332 0.85891 0.85492 0.0
C2745 C 0.53649 0.87109 0.85003 0.0
C2746 C 0.48002 0.82993 0.87681 0.0
C2747 C 0.46604 0.84182 0.88077 0.0
C2748 C 0.49264 0.83433 0.8638 0.0
C2749 C 0.4913 0.85057 0.85449 0.0
C2750 C 0.4762 0.86143 0.8571 0.0
C2751 C 0.46371 0.85713 0.8702 0.0
H2752 H 0.14967 0.12402 0.44899 0.0
H2753 H 0.12356 0.08535 0.48313 0.0
H2754 H 0.14902 0.14589 0.47346 0.0
H2755 H 0.12307 0.10693 0.50726 0.0
H2756 H 0.13148 0.13908 0.55201 0.0
H2757 H 0.1456 0.12355 0.52712 0.0
H2758 H 0.12236 0.16137 0.49023 0.0
H2759 H 0.10852 0.17718 0.51515 0.0
C2760 C 0.14386 0.1202 0.46169 0.0
C2761 C 0.13659 0.10304 0.46418 0.0
C2762 C 0.14361 0.13264 0.47564 0.0
C2763 C 0.13642 0.1279 0.49228 0.0
C2764 C 0.12917 0.11075 0.49468 0.0
C2765 C 0.12919 0.09848 0.48077 0.0
C2766 C 0.13007 0.14455 0.53866 0.0
C2767 C 0.11849 0.15891 0.53535 0.0
C2768 C 0.13814 0.13567 0.52446 0.0
C2769 C 0.13453 0.14099 0.50683 0.0
C2770 C 0.12522 0.15698 0.50373 0.0
C2771 C 0.11727 0.16599 0.518 0.0
H2772 H 0.85237 0.13328 0.54854 0.0
H2773 H 0.87052 0.0937 0.51053 0.0
H2774 H 0.85429 0.15636 0.52527 0.0
H2775 H 0.87231 0.11643 0.48761 0.0
H2776 H 0.87017 0.15178 0.44578 0.0
H2777 H 0.85309 0.13767 0.46965 0.0
H2778 H 0.88187 0.16894 0.50872 0.0
H2779 H 0.89855 0.18346 0.48482 0.0
C2780 C 0.85661 0.12952 0.53522 0.0
C2781 C 0.86148 0.11178 0.53133 0.0
C2782 C 0.85758 0.14266 0.52195 0.0
C2783 C 0.86307 0.13808 0.50461 0.0
C2784 C 0.86755 0.12026 0.50074 0.0
C2785 C 0.86684 0.10728 0.51396 0.0
C2786 C 0.87217 0.15627 0.45941 0.0
C2787 C 0.886 0.1682 0.46362 0.0
C2788 C 0.86242 0.14822 0.47304 0.0
C2789 C 0.86668 0.1518 0.49096 0.0
C2790 C 0.87844 0.16587 0.49499 0.0
C2791 C 0.88804 0.17413 0.4813 0.0
H2792 H 0.89893 0.82828 0.51045 0.0
H2793 H 0.86106 0.84229 0.55161 0.0
H2794 H 0.87914 0.84012 0.48794 0.0
H2795 H 0.84013 0.85269 0.52891 0.0
H2796 H 0.83119 0.90204 0.49316 0.0
H2797 H 0.83961 0.87889 0.51399 0.0
H2798 H 0.85564 0.84503 0.46976 0.0
H2799 H 0.84867 0.86924 0.44909 0.0
C2800 C 0.88592 0.83316 0.51456 0.0
C2801 C 0.88164 0.83487 0.53269 0.0
C2802 C 0.87438 0.83988 0.50159 0.0
C2803 C 0.85812 0.84802 0.50654 0.0
C2804 C 0.85286 0.84732 0.52462 0.0
C2805 C 0.86472 0.84119 0.53764 0.0
C2806 C 0.83625 0.88951 0.48794 0.0
C2807 C 0.83977 0.8875 0.46969 0.0
C2808 C 0.84092 0.87603 0.49988 0.0
C2809 C 0.84877 0.86003 0.49371 0.0
C2810 C 0.85032 0.85737 0.47513 0.0
C2811 C 0.84625 0.87115 0.46324 0.0
H2812 H 0.14893 0.85985 0.55088 0.0
H2813 H 0.16737 0.89001 0.50534 0.0
H2814 H 0.13936 0.83576 0.53115 0.0
H2815 H 0.15648 0.86707 0.48549 0.0
H2816 H 0.12925 0.83254 0.44977 0.0
H2817 H 0.15238 0.84086 0.47116 0.0
H2818 H 0.11444 0.83324 0.5143 0.0
H2819 H 0.09228 0.82338 0.49302 0.0
C2820 C 0.1511 0.86116 0.53662 0.0
C2821 C 0.15846 0.87684 0.5295 0.0
C2822 C 0.14551 0.84746 0.52527 0.0
C2823 C 0.14646 0.8496 0.50659 0.0
C2824 C 0.15548 0.86466 0.49972 0.0
C2825 C 0.16163 0.87803 0.5111 0.0
C2826 C 0.12623 0.83209 0.46393 0.0
C2827 C 0.10901 0.82774 0.46985 0.0
C2828 C 0.13938 0.837 0.4762 0.0
C2829 C 0.1352 0.83849 0.4945 0.0
C2830 C 0.1184 0.83231 0.50043 0.0
C2831 C 0.10551 0.82677 0.48819 0.0
H2832 H 0.59736 0.99258 0.66353 0.0
H2833 H 0.63264 0.9498 0.64768 0.0
H2834 H 0.61881 0.01433 0.65323 0.0
H2835 H 0.65518 0.97158 0.63879 0.0
H2836 H 0.66793 0.01037 0.59253 0.0
H2837 H 0.65767 0.98843 0.61385 0.0
H2838 H 0.64394 0.03088 0.65083 0.0
H2839 H 0.65274 0.05284 0.62843 0.0
C2840 C 0.61009 0.98789 0.65846 0.0
C2841 C 0.61324 0.96964 0.65589 0.0
C2842 C 0.6226 0.00039 0.65268 0.0
C2843 C 0.63872 0.99483 0.64466 0.0
C2844 C 0.64266 0.97642 0.64418 0.0
C2845 C 0.62984 0.96392 0.64939 0.0
C2846 C 0.66304 0.01493 0.60538 0.0
C2847 C 0.66062 0.03316 0.60876 0.0
C2848 C 0.65728 0.00233 0.61779 0.0
C2849 C 0.64943 0.00778 0.63404 0.0
C2850 C 0.64918 0.02614 0.63821 0.0
C2851 C 0.65433 0.03875 0.62548 0.0
H2852 H 0.95146 0.65937 0.63111 0.0
H2853 H 0.99597 0.6708 0.59629 0.0
H2854 H 0.97201 0.64863 0.654 0.0
H2855 H 0.01639 0.65868 0.61813 0.0
H2856 H 0.05156 0.62905 0.65207 0.0
H2857 H 0.03238 0.65392 0.64337 0.0
H2858 H 0.98584 0.62179 0.656 0.0
H2859 H 0.00509 0.59792 0.66609 0.0
C2860 C 0.96571 0.65983 0.62854 0.0
C2861 C 0.97221 0.66551 0.61192 0.0
C2862 C 0.9775 0.65353 0.64154 0.0
C2863 C 0.99589 0.65204 0.63776 0.0
C2864 C 0.00242 0.65955 0.62175 0.0
C2865 C 0.99067 0.66642 0.60904 0.0
C2866 C 0.0372 0.62767 0.65343 0.0
C2867 C 0.02969 0.61156 0.65934 0.0
C2868 C 0.02618 0.64183 0.64834 0.0
C2869 C 0.00746 0.6398 0.64837 0.0
C2870 C 0.00011 0.62413 0.65583 0.0
C2871 C 0.01115 0.61024 0.66147 0.0
H2872 H 0.34511 0.94604 0.63577 0.0
H2873 H 0.32797 0.98882 0.60112 0.0
H2874 H 0.35225 0.96766 0.65908 0.0
H2875 H 0.33661 0.01052 0.62332 0.0
H2876 H 0.36117 0.0493 0.65635 0.0
H2877 H 0.33883 0.02698 0.64835 0.0
H2878 H 0.37641 0.98516 0.66245 0.0
H2879 H 0.39763 0.00745 0.67194 0.0
C2880 C 0.34271 0.96011 0.63329 0.0
C2881 C 0.33643 0.96591 0.61663 0.0
C2882 C 0.34692 0.97254 0.64654 0.0
C2883 C 0.34575 0.991 0.64298 0.0
C2884 C 0.33774 0.99654 0.62683 0.0
C2885 C 0.33292 0.98407 0.61389 0.0
C2886 C 0.36424 0.03528 0.65828 0.0
C2887 C 0.38115 0.02997 0.66431 0.0
C2888 C 0.35155 0.02245 0.65355 0.0
C2889 C 0.35596 0.00414 0.65394 0.0
C2890 C 0.37228 -0.001 0.66186 0.0
C2891 C 0.38465 0.01182 0.6672 0.0
H2892 H 0.97429 0.38957 0.67794 0.0
H2893 H 0.9351 0.3662 0.64257 0.0
H2894 H 0.99798 0.37397 0.66202 0.0
H2895 H 0.95876 0.35008 0.62703 0.0
H2896 H 0.0008 0.37059 0.58576 0.0
H2897 H 0.97749 0.37041 0.60815 0.0
H2898 H 0.01428 0.34828 0.64682 0.0
H2899 H 0.03795 0.34844 0.62413 0.0
C2900 C 0.97065 0.38031 0.66742 0.0
C2901 C 0.95305 0.37953 0.66097 0.0
C2902 C 0.98423 0.37131 0.65833 0.0
C2903 C 0.98017 0.36139 0.64292 0.0
C2904 C 0.9622 0.35807 0.63861 0.0
C2905 C 0.94869 0.36726 0.64749 0.0
C2906 C 0.00396 0.3656 0.59898 0.0
C2907 C 0.02121 0.3597 0.60326 0.0
C2908 C 0.99051 0.36518 0.61174 0.0
C2909 C 0.99401 0.35896 0.62912 0.0
C2910 C 0.01124 0.35292 0.63345 0.0
C2911 C 0.02474 0.35315 0.62054 0.0
H2912 H 0.63885 0.95063 0.36168 0.0
H2913 H 0.68515 0.98199 0.37618 0.0
H2914 H 0.62959 0.97379 0.34096 0.0
H2915 H 0.67583 0.0053 0.35529 0.0
H2916 H 0.6262 0.04608 0.35699 0.0
H2917 H 0.64888 0.02369 0.36297 0.0
H2918 H 0.63336 0.99499 0.31531 0.0
H2919 H 0.6105 0.01753 0.30928 0.0
C2920 C 0.64736 0.96223 0.35997 0.0
C2921 C 0.66237 0.96483 0.37091 0.0
C2922 C 0.64218 0.97542 0.34793 0.0
C2923 C 0.65185 0.99148 0.34677 0.0
C2924 C 0.66806 0.9931 0.35611 0.0
C2925 C 0.67335 0.97979 0.36807 0.0
C2926 C 0.62795 0.03527 0.34751 0.0
C2927 C 0.61628 0.03322 0.33298 0.0
C2928 C 0.64113 0.02256 0.35079 0.0
C2929 C 0.64273 0.00748 0.33969 0.0
C2930 C 0.63228 0.00643 0.32412 0.0
C2931 C 0.61918 0.01929 0.32073 0.0
H2932 H 0.01898 0.67532 0.39197 0.0
H2933 H 0.05719 0.64025 0.36652 0.0
H2934 H 0.9946 0.65901 0.3778 0.0
H2935 H 0.0328 0.6242 0.3521 0.0
H2936 H 0.99041 0.58284 0.37145 0.0
H2937 H 0.01386 0.60514 0.37291 0.0
H2938 H 0.97804 0.64475 0.35092 0.0
H2939 H 0.95428 0.62217 0.34934 0.0
C2940 C 0.02222 0.6647 0.38267 0.0
C2941 C 0.03988 0.6586 0.38078 0.0
C2942 C 0.00824 0.65539 0.37452 0.0
C2943 C 0.0119 0.64006 0.36435 0.0
C2944 C 0.0297 0.63576 0.36025 0.0
C2945 C 0.04363 0.64495 0.36847 0.0
C2946 C 0.98749 0.59626 0.36688 0.0
C2947 C 0.97051 0.60081 0.36039 0.0
C2948 C 0.001 0.60897 0.36745 0.0
C2949 C 0.99782 0.62655 0.36167 0.0
C2950 C 0.98082 0.63121 0.35525 0.0
C2951 C 0.96728 0.61835 0.35444 0.0
H2952 H 0.35242 0.04409 0.37163 0.0
H2953 H 0.37649 0.00868 0.41049 0.0
H2954 H 0.35368 0.02018 0.34919 0.0
H2955 H 0.37759 0.98507 0.3883 0.0
H2956 H 0.36872 0.94116 0.35427 0.0
H2957 H 0.35526 0.96603 0.3704 0.0
H2958 H 0.38049 0.00325 0.33423 0.0
H2959 H 0.39376 0.97838 0.31787 0.0
C2960 C 0.35794 0.03123 0.37536 0.0
C2961 C 0.36443 0.02822 0.39276 0.0
C2962 C 0.35854 0.01761 0.36259 0.0
C2963 C 0.36532 0.00075 0.3672 0.0
C2964 C 0.37184 0.99783 0.38456 0.0
C2965 C 0.37147 0.01143 0.39718 0.0
C2966 C 0.37075 0.95461 0.3493 0.0
C2967 C 0.38271 0.95795 0.33524 0.0
C2968 C 0.36308 0.96881 0.35853 0.0
C2969 C 0.36736 0.98646 0.35383 0.0
C2970 C 0.37711 0.98972 0.33814 0.0
C2971 C 0.38472 0.97547 0.3288 0.0
H2972 H 0.04574 0.36544 0.34641 0.0
H2973 H 0.01382 0.40512 0.37379 0.0
H2974 H 0.02047 0.34445 0.34766 0.0
H2975 H 0.98891 0.38447 0.37477 0.0
H2976 H 0.94255 0.35465 0.3657 0.0
H2977 H 0.96819 0.36875 0.35141 0.0
H2978 H 0.00325 0.32987 0.37565 0.0
H2979 H 0.9776 0.31552 0.38976 0.0
C2980 C 0.03336 0.36966 0.35262 0.0
C2981 C 0.03172 0.38685 0.36008 0.0
C2982 C 0.01897 0.35773 0.35322 0.0
C2983 C 0.00271 0.36307 0.36089 0.0
C2984 C 0.00117 0.38022 0.36834 0.0
C2985 C 0.01554 0.39194 0.36802 0.0
C2986 C 0.95563 0.34863 0.36732 0.0
C2987 C 0.95824 0.33442 0.37927 0.0
C2988 C 0.97026 0.35667 0.35913 0.0
C2989 C 0.98762 0.35064 0.36293 0.0
C2990 C 0.98996 0.33477 0.37263 0.0
C2991 C 0.97527 0.32662 0.38075 0.0
H2992 H 0.66888 0.59255 0.98903 0.0
H2993 H 0.65657 0.62916 0.94623 0.0
H2994 H 0.65786 0.61381 0.01063 0.0
H2995 H 0.647 0.65147 0.96796 0.0
H2996 H 0.59787 0.66364 0.00324 0.0
H2997 H 0.62078 0.65366 0.9828 0.0
H2998 H 0.65412 0.63841 0.0277 0.0
H2999 H 0.63014 0.64699 0.04803 0.0
C3000 C 0.66455 0.60556 0.98435 0.0
C3001 C 0.66307 0.60913 0.96605 0.0
C3002 C 0.65831 0.61793 0.99678 0.0
C3003 C 0.6509 0.63431 0.9911 0.0
C3004 C 0.65183 0.63873 0.97282 0.0
C3005 C 0.65747 0.62607 0.96035 0.0
C3006 C 0.61026 0.65845 0.00868 0.0
C3007 C 0.61215 0.65558 0.02706 0.0
C3008 C 0.6236 0.65286 0.99696 0.0
C3009 C 0.63931 0.64473 0.00348 0.0
C3010 C 0.64196 0.64391 0.02211 0.0
C3011 C 0.62831 0.64892 0.03379 0.0
H3012 H 0.39538 0.68344 0.97974 0.0
H3013 H 0.3674 0.64226 0.95039 0.0
H3014 H 0.38302 0.67193 0.00763 0.0
H3015 H 0.3547 0.63114 0.9783 0.0
H3016 H 0.33456 0.61609 0.03359 0.0
H3017 H 0.33714 0.63895 0.01025 0.0
H3018 H 0.3946 0.63761 0.01551 0.0
H3019 H 0.39211 0.61441 0.03834 0.0
C3020 C 0.38595 0.67247 0.97914 0.0
C3021 C 0.38266 0.66341 0.96301 0.0
C3022 C 0.37889 0.66595 0.99509 0.0
C3023 C 0.36814 0.65062 0.99497 0.0
C3024 C 0.36293 0.64305 0.97863 0.0
C3025 C 0.37027 0.64933 0.96271 0.0
C3026 C 0.3477 0.621 0.03 0.0
C3027 C 0.36319 0.61343 0.03749 0.0
C3028 C 0.34912 0.63406 0.01676 0.0
C3029 C 0.36602 0.64004 0.01134 0.0
C3030 C 0.38142 0.63335 0.01974 0.0
C3031 C 0.38002 0.61998 0.03261 0.0
H3032 H 0.3805 0.31504 0.02043 0.0
H3033 H 0.36788 0.364 0.04841 0.0
H3034 H 0.35925 0.32301 0.99698 0.0
H3035 H 0.34679 0.37192 0.02506 0.0
H3036 H 0.31341 0.38759 0.98125 0.0
H3037 H 0.32017 0.3666 0.00532 0.0
H3038 H 0.36651 0.34825 0.97611 0.0
H3039 H 0.3598 0.3691 0.95218 0.0
C3040 C 0.37279 0.32721 0.02186 0.0
C3041 C 0.37621 0.33922 0.0359 0.0
C3042 C 0.3606 0.33172 0.00848 0.0
C3043 C 0.3516 0.34818 0.00909 0.0
C3044 C 0.35347 0.3591 0.02425 0.0
C3045 C 0.36574 0.35468 0.03753 0.0
C3046 C 0.32471 0.37867 0.97974 0.0
C3047 C 0.33642 0.3803 0.96516 0.0
C3048 C 0.32852 0.36664 0.99348 0.0
C3049 C 0.34397 0.35601 0.99267 0.0
C3050 C 0.35444 0.35621 0.97708 0.0
C3051 C 0.35074 0.36832 0.96346 0.0
H3052 H 0.67789 0.3915 0.01423 0.0
H3053 H 0.64198 0.36712 0.05235 0.0
H3054 H 0.66191 0.37687 0.98987 0.0
H3055 H 0.62623 0.35231 0.02799 0.0
H3056 H 0.58602 0.3725 0.98464 0.0
H3057 H 0.60819 0.37426 0.0082 0.0
H3058 H 0.64714 0.3488 0.974 0.0
H3059 H 0.62464 0.34681 0.95013 0.0
C3060 C 0.66717 0.38233 0.01747 0.0
C3061 C 0.66073 0.38087 0.03505 0.0
C3062 C 0.65806 0.37392 0.00351 0.0
C3063 C 0.64259 0.36395 0.00714 0.0
C3064 C 0.63795 0.36026 0.02493 0.0
C3065 C 0.64694 0.36873 0.03883 0.0
C3066 C 0.59927 0.36724 0.98208 0.0
C3067 C 0.60365 0.35959 0.96556 0.0
C3068 C 0.61189 0.368 0.99567 0.0
C3069 C 0.62921 0.36129 0.99297 0.0
C3070 C 0.63376 0.35382 0.97639 0.0
C3071 C 0.62097 0.35279 0.96279 0.0
H3072 H 0.06191 0.39655 0.07573 0.0
H3073 H 0.09847 0.36348 0.10548 0.0
H3074 H 0.07734 0.38894 0.04804 0.0
H3075 H 0.11375 0.35521 0.07773 0.0
H3076 H 0.15214 0.37463 0.03247 0.0
H3077 H 0.1335 0.3719 0.05904 0.0
H3078 H 0.08647 0.36808 0.02562 0.0
H3079 H 0.10526 0.37115 -0.00091 0.0
C3080 C 0.07282 0.38703 0.07614 0.0
C3081 C 0.07902 0.38045 0.09251 0.0
C3082 C 0.08169 0.38263 0.06032 0.0
C3083 C 0.09693 0.37158 0.06066 0.0
C3084 C 0.10225 0.36396 0.07703 0.0
C3085 C 0.09341 0.36848 0.09286 0.0
C3086 C 0.13785 0.37286 0.03085 0.0
C3087 C 0.13003 0.37362 0.01385 0.0
C3088 C 0.12714 0.37119 0.04606 0.0
C3089 C 0.10841 0.37002 0.0445 0.0
C3090 C 0.10079 0.36941 0.02732 0.0
C3091 C 0.11151 0.37123 0.01214 0.0
H3092 H 0.63609 0.10997 0.00809 0.0
H3093 H 0.62656 0.1579 0.03864 0.0
H3094 H 0.64181 0.09341 0.03566 0.0
H3095 H 0.63169 0.14142 0.06628 0.0
H3096 H 0.6436 0.11066 0.11482 0.0
H3097 H 0.65029 0.12525 0.08629 0.0
H3098 H 0.62275 0.08268 0.05847 0.0
H3099 H 0.6167 0.06808 0.08688 0.0
C3100 C 0.63528 0.11693 0.02077 0.0
C3101 C 0.63048 0.13503 0.02141 0.0
C3102 C 0.63858 0.10749 0.03654 0.0
C3103 C 0.63695 0.11597 0.05325 0.0
C3104 C 0.63328 0.13444 0.0537 0.0
C3105 C 0.6302 0.1439 0.03789 0.0
C3106 C 0.63954 0.10426 0.10249 0.0
C3107 C 0.62956 0.08841 0.10289 0.0
C3108 C 0.6432 0.11264 0.08619 0.0
C3109 C 0.63678 0.10534 0.07007 0.0
C3110 C 0.62807 0.08866 0.07053 0.0
C3111 C 0.62455 0.08026 0.0868 0.0
H3112 H 0.89032 0.62435 0.11172 0.0
H3113 H 0.93241 0.60318 0.07863 0.0
H3114 H 0.87436 0.63462 0.08511 0.0
H3115 H 0.91624 0.61246 0.05189 0.0
H3116 H 0.88631 0.63289 0.00511 0.0
H3117 H 0.90428 0.634 0.03239 0.0
H3118 H 0.85753 0.6197 0.06333 0.0
H3119 H 0.83968 0.61936 0.03611 0.0
C3120 C 0.89629 0.62231 0.09868 0.0
C3121 C 0.91252 0.61313 0.09703 0.0
C3122 C 0.8871 0.62796 0.08344 0.0
C3123 C 0.89381 0.62413 0.06627 0.0
C3124 C 0.9107 0.61587 0.06482 0.0
C3125 C 0.91999 0.61049 0.08009 0.0
C3126 C 0.87994 0.63027 0.01785 0.0
C3127 C 0.86176 0.62579 0.01863 0.0
C3128 C 0.89019 0.63084 0.03345 0.0
C3129 C 0.88247 0.6267 0.05011 0.0
C3130 C 0.86397 0.62321 0.05085 0.0
C3131 C 0.8537 0.6229 0.03526 0.0
H3132 H 0.39971 0.84912 0.03069 0.0
H3133 H 0.3541 0.88011 0.01388 0.0
H3134 H 0.40013 0.86492 0.0592 0.0
H3135 H 0.35458 0.89631 0.04256 0.0
H3136 H 0.38807 0.93565 0.08186 0.0
H3137 H 0.37792 0.91823 0.05599 0.0
H3138 H 0.38177 0.86983 0.0872 0.0
H3139 H 0.39177 0.88724 0.11295 0.0
C3140 C 0.38956 0.85912 0.03333 0.0
C3141 C 0.37684 0.86344 0.02028 0.0
C3142 C 0.38973 0.86812 0.04963 0.0
C3143 C 0.37734 0.8818 0.0531 0.0
C3144 C 0.36426 0.88581 0.04019 0.0
C3145 C 0.36391 0.87652 0.02391 0.0
C3146 C 0.38619 0.92136 0.08327 0.0
C3147 C 0.391 0.91268 0.09918 0.0
C3148 C 0.38037 0.91141 0.06852 0.0
C3149 C 0.37933 0.89266 0.06955 0.0
C3150 C 0.38272 0.88423 0.08598 0.0
C3151 C 0.38845 0.89416 0.10067 0.0
H3152 H 0.06182 0.60792 0.91678 0.0
H3153 H 0.10464 0.6328 0.88741 0.0
H3154 H 0.0769 0.61482 0.94486 0.0
H3155 H 0.11944 0.64073 0.91544 0.0
H3156 H 0.15278 0.62516 0.96467 0.0
H3157 H 0.13589 0.62516 0.93685 0.0
H3158 H 0.0872 0.63496 0.96653 0.0
H3159 H 0.10425 0.63419 0.9944 0.0
C3160 C 0.07419 0.61546 0.91646 0.0
C3161 C 0.08216 0.61986 0.90012 0.0
C3162 C 0.08285 0.61947 0.93252 0.0
C3163 C 0.09958 0.62816 0.9325 0.0
C3164 C 0.10684 0.63365 0.91601 0.0
C3165 C 0.0983 0.62935 0.89997 0.0
C3166 C 0.13849 0.6275 0.96514 0.0
C3167 C 0.12972 0.62933 0.98158 0.0
C3168 C 0.12877 0.62764 0.9492 0.0
C3169 C 0.11007 0.62996 0.94935 0.0
C3170 C 0.10148 0.63272 0.96588 0.0
C3171 C 0.11121 0.6323 0.98184 0.0
H3172 H 0.36533 0.10965 0.99235 0.0
H3173 H 0.37929 0.15783 0.96401 0.0
H3174 H 0.36519 0.093 0.96423 0.0
H3175 H 0.37978 0.14127 0.93592 0.0
H3176 H 0.3716 0.11053 0.88575 0.0
H3177 H 0.36384 0.12583 0.91356 0.0
H3178 H 0.38653 0.08197 0.94368 0.0
H3179 H 0.39348 0.06652 0.91578 0.0
C3180 C 0.3684 0.11662 0.98003 0.0
C3181 C 0.37262 0.13488 0.98025 0.0
C3182 C 0.36836 0.10712 0.96395 0.0
C3183 C 0.37267 0.11571 0.94777 0.0
C3184 C 0.37616 0.13422 0.94802 0.0
C3185 C 0.37599 0.14372 0.9641 0.0
C3186 C 0.37448 0.10407 0.89839 0.0
C3187 C 0.38307 0.08743 0.89878 0.0
C3188 C 0.37023 0.11287 0.91431 0.0
C3189 C 0.37476 0.10528 0.93092 0.0
C3190 C 0.38263 0.08816 0.9312 0.0
C3191 C 0.38667 0.07929 0.91525 0.0
H3192 H 0.87155 0.35006 0.97697 0.0
H3193 H 0.88095 0.40694 0.98038 0.0
H3194 H 0.88947 0.34901 0.94946 0.0
H3195 H 0.89951 0.4056 0.95396 0.0
H3196 H 0.94327 0.39607 0.91448 0.0
H3197 H 0.92968 0.39005 0.94371 0.0
H3198 H 0.88468 0.36506 0.91762 0.0
H3199 H 0.8982 0.37137 0.88841 0.0
C3200 C 0.87771 0.36223 0.97212 0.0
C3201 C 0.87536 0.37846 0.98135 0.0
C3202 C 0.88798 0.36159 0.95647 0.0
C3203 C 0.89621 0.37714 0.94993 0.0
C3204 C 0.8938 0.39331 0.95908 0.0
C3205 C 0.88329 0.39401 0.97443 0.0
C3206 C 0.93077 0.38878 0.9151 0.0
C3207 C 0.92171 0.38412 0.89939 0.0
C3208 C 0.92298 0.38542 0.93173 0.0
C3209 C 0.90613 0.37717 0.93283 0.0
C3210 C 0.89774 0.37129 0.91711 0.0
C3211 C 0.90543 0.37489 0.90046 0.0
H3212 H 0.59861 0.93735 0.91732 0.0
H3213 H 0.62522 0.89545 0.88806 0.0
H3214 H 0.60473 0.92163 0.94543 0.0
H3215 H 0.63175 0.87985 0.91622 0.0
H3216 H 0.647 0.86538 0.97664 0.0
H3217 H 0.64748 0.88404 0.94954 0.0
H3218 H 0.59011 0.88916 0.95218 0.0
H3219 H 0.58945 0.86989 0.97823 0.0
C3220 C 0.60639 0.92513 0.91705 0.0
C3221 C 0.61161 0.91758 0.90073 0.0
C3222 C 0.6098 0.91612 0.93303 0.0
C3223 C 0.61866 0.89955 0.93289 0.0
C3224 C 0.62505 0.89268 0.91664 0.0
C3225 C 0.62136 0.90157 0.90061 0.0
C3226 C 0.63452 0.87051 0.97138 0.0
C3227 C 0.61825 0.86675 0.98004 0.0
C3228 C 0.63482 0.8812 0.95598 0.0
C3229 C 0.61887 0.88839 0.94918 0.0
C3230 C 0.60264 0.88425 0.95756 0.0
C3231 C 0.6023 0.87335 0.97263 0.0
H3232 H 0.00259 0.09974 0.37271 0.0
H3233 H 0.037 0.14565 0.36687 0.0
H3234 H 0.0285 0.07999 0.37082 0.0
H3235 H 0.06294 0.12601 0.36499 0.0
H3236 H 0.10757 0.08813 0.35694 0.0
H3237 H 0.07941 0.10303 0.3492 0.0
H3238 H 0.05274 0.07387 0.39138 0.0
H3239 H 0.08077 0.0589 0.39867 0.0
C3240 C 0.01571 0.1056 0.37112 0.0
C3241 C 0.0179 0.12423 0.37057 0.0
C3242 C 0.03053 0.09429 0.36987 0.0
C3243 C 0.04783 0.10141 0.36798 0.0
C3244 C 0.04982 0.12004 0.36627 0.0
C3245 C 0.03497 0.13132 0.36746 0.0
C3246 C 0.09546 0.08447 0.36398 0.0
C3247 C 0.0961 0.07231 0.3782 0.0
C3248 C 0.07942 0.09312 0.35975 0.0
C3249 C 0.06386 0.08978 0.36979 0.0
C3250 C 0.06438 0.07661 0.38321 0.0
C3251 C 0.08039 0.06801 0.38741 0.0
H3252 H 0.88716 0.11658 0.38198 0.0
H3253 H 0.93546 0.08507 0.38273 0.0
H3254 H 0.86988 0.09006 0.37394 0.0
H3255 H 0.91818 0.05847 0.37441 0.0
H3256 H 0.87984 0.0149 0.35286 0.0
H3257 H 0.89625 0.0434 0.35125 0.0
H3258 H 0.86495 0.06361 0.39536 0.0
H3259 H 0.84897 0.03523 0.3971 0.0
C3260 C 0.8941 0.10403 0.37999 0.0
C3261 C 0.91252 0.1027 0.3833 0.0
C3262 C 0.88424 0.0889 0.37539 0.0
C3263 C 0.89268 0.07221 0.37381 0.0
C3264 C 0.91138 0.07121 0.37548 0.0
C3265 C 0.92125 0.08638 0.38023 0.0
C3266 C 0.87634 0.02563 0.36193 0.0
C3267 C 0.86325 0.02303 0.37511 0.0
C3268 C 0.88574 0.04182 0.36108 0.0
C3269 C 0.88179 0.05569 0.37313 0.0
C3270 C 0.8681 0.05324 0.38576 0.0
C3271 C 0.85903 0.03702 0.38683 0.0
H3272 H 0.92149 0.9361 0.40763 0.0
H3273 H 0.89077 0.90719 0.36842 0.0
H3274 H 0.94864 0.92083 0.39782 0.0
H3275 H 0.91797 0.89192 0.35826 0.0
H3276 H 0.96273 0.8497 0.37176 0.0
H3277 H 0.93634 0.86889 0.37264 0.0
H3278 H 0.97037 0.91556 0.37382 0.0
H3279 H 0.99672 0.89625 0.3728 0.0
C3280 C 0.92076 0.92686 0.3965 0.0
C3281 C 0.90429 0.92281 0.38863 0.0
C3282 C 0.93625 0.91814 0.39083 0.0
C3283 C 0.93544 0.9051 0.37729 0.0
C3284 C 0.91898 0.90177 0.36882 0.0
C3285 C 0.90349 0.91057 0.37448 0.0
C3286 C 0.96451 0.86407 0.37183 0.0
C3287 C 0.98167 0.87153 0.37283 0.0
C3288 C 0.94943 0.87508 0.37227 0.0
C3289 C 0.95128 0.89375 0.37358 0.0
C3290 C 0.96852 0.90121 0.37323 0.0
C3291 C 0.98358 0.89019 0.37279 0.0
H3292 H 0.12729 0.9746 0.34676 0.0
H3293 H 0.14894 0.96598 0.39951 0.0
H3294 H 0.10918 0.94724 0.34982 0.0
H3295 H 0.13108 0.93897 0.4026 0.0
H3296 H 0.08003 0.91015 0.41366 0.0
H3297 H 0.09744 0.93655 0.4057 0.0
H3298 H 0.11124 0.91234 0.35512 0.0
H3299 H 0.09356 0.88574 0.36323 0.0
C3300 C 0.12844 0.96663 0.35879 0.0
C3301 C 0.13917 0.97244 0.37305 0.0
C3302 C 0.11808 0.95108 0.36057 0.0
C3303 C 0.11843 0.94129 0.37662 0.0
C3304 C 0.1302 0.94653 0.39027 0.0
C3305 C 0.14046 0.96192 0.38849 0.0
C3306 C 0.08652 0.91066 0.40071 0.0
C3307 C 0.08562 0.89605 0.38906 0.0
C3308 C 0.09656 0.92565 0.3962 0.0
C3309 C 0.10594 0.9263 0.37994 0.0
C3310 C 0.10414 0.91212 0.36774 0.0
C3311 C 0.09405 0.897 0.37233 0.0
H3312 H 0.1064 0.88475 0.61225 0.0
H3313 H 0.08581 0.93841 0.61677 0.0
H3314 H 0.07805 0.87286 0.62241 0.0
H3315 H 0.05777 0.9267 0.62856 0.0
H3316 H 0.00402 0.8989 0.61627 0.0
H3317 H 0.03309 0.91325 0.61608 0.0
H3318 H 0.05579 0.86729 0.64296 0.0
H3319 H 0.02678 0.85239 0.64155 0.0
C3320 C 0.09587 0.89402 0.61584 0.0
C3321 C 0.09811 0.91245 0.61327 0.0
C3322 C 0.07963 0.88722 0.62198 0.0
C3323 C 0.06533 0.89876 0.62608 0.0
C3324 C 0.06824 0.91735 0.62506 0.0
C3325 C 0.08442 0.92412 0.61856 0.0
C3326 C 0.01531 0.89184 0.62196 0.0
C3327 C 0.01345 0.8742 0.628 0.0
C3328 C 0.03197 0.90021 0.62224 0.0
C3329 C 0.04707 0.89131 0.62912 0.0
C3330 C 0.04466 0.87434 0.63696 0.0
C3331 C 0.02802 0.86584 0.63633 0.0
H3332 H 0.10795 0.10766 0.62671 0.0
H3333 H 0.0609 0.08228 0.6052 0.0
H3334 H 0.12164 0.07827 0.63166 0.0
H3335 H 0.07469 0.05288 0.60977 0.0
H3336 H 0.1229 0.01754 0.58762 0.0
H3337 H 0.10457 0.04394 0.59121 0.0
H3338 H 0.11703 0.04528 0.64747 0.0
H3339 H 0.13464 0.01773 0.64418 0.0
C3340 C 0.10034 0.09572 0.62369 0.0
C3341 C 0.08344 0.09705 0.61566 0.0
C3342 C 0.10813 0.07897 0.6265 0.0
C3343 C 0.09921 0.06341 0.62099 0.0
C3344 C 0.08178 0.06473 0.61411 0.0
C3345 C 0.07388 0.08147 0.61159 0.0
C3346 C 0.12116 0.02279 0.60094 0.0
C3347 C 0.12964 0.01494 0.61575 0.0
C3348 C 0.11078 0.03812 0.60293 0.0
C3349 C 0.10909 0.04635 0.61968 0.0
C3350 C 0.11795 0.03896 0.63447 0.0
C3351 C 0.12805 0.0233 0.63254 0.0
H3352 H 0.91824 0.06555 0.60446 0.0
H3353 H 0.88926 0.10446 0.63545 0.0
H3354 H 0.94634 0.08032 0.6119 0.0
H3355 H 0.91739 0.11906 0.64363 0.0
H3356 H 0.96488 0.15502 0.62589 0.0
H3357 H 0.93742 0.13751 0.62732 0.0
H3358 H 0.96865 0.08915 0.63274 0.0
H3359 H 0.99607 0.10682 0.63087 0.0
C3360 C 0.91806 0.07687 0.6135 0.0
C3361 C 0.9018 0.08387 0.61955 0.0
C3362 C 0.93412 0.08537 0.6178 0.0
C3363 C 0.93416 0.10104 0.62824 0.0
C3364 C 0.91784 0.10723 0.63531 0.0
C3365 C 0.90177 0.09878 0.63086 0.0
C3366 C 0.96579 0.14068 0.62764 0.0
C3367 C 0.98247 0.13216 0.62779 0.0
C3368 C 0.95008 0.13061 0.62858 0.0
C3369 C 0.95078 0.11184 0.62996 0.0
C3370 C 0.9676 0.10351 0.63126 0.0
C3371 C 0.98329 0.11358 0.63014 0.0
H3372 H 0.83798 0.96764 0.62197 0.0
H3373 H 0.88679 0.99513 0.63539 0.0
H3374 H 0.85421 0.93942 0.62034 0.0
H3375 H 0.90312 0.96686 0.63454 0.0
H3376 H 0.92884 0.91962 0.60409 0.0
H3377 H 0.91353 0.9472 0.6124 0.0
H3378 H 0.86991 0.9162 0.63437 0.0
H3379 H 0.88505 0.88873 0.62517 0.0
C3380 C 0.85214 0.96749 0.62502 0.0
C3381 C 0.86124 0.98346 0.62855 0.0
C3382 C 0.86148 0.95133 0.62417 0.0
C3383 C 0.88009 0.95081 0.62712 0.0
C3384 C 0.88892 0.96677 0.63174 0.0
C3385 C 0.87959 0.98295 0.63233 0.0
C3386 C 0.91613 0.91882 0.61099 0.0
C3387 C 0.90803 0.90222 0.614 0.0
C3388 C 0.90735 0.93458 0.61584 0.0
C3389 C 0.89036 0.93401 0.62399 0.0
C3390 C 0.88277 0.91722 0.62781 0.0
C3391 C 0.89147 0.90148 0.62272 0.0
H3392 H 0.37087 0.00211 0.10262 0.0
H3393 H 0.3703 0.03349 0.15098 0.0
H3394 H 0.3648 0.02894 0.08503 0.0
H3395 H 0.36475 0.06038 0.13358 0.0
H3396 H 0.35293 0.1076 0.102 0.0
H3397 H 0.34664 0.0783 0.11509 0.0
H3398 H 0.38213 0.05385 0.0765 0.0
H3399 H 0.38756 0.08299 0.06314 0.0
C3400 C 0.3695 0.01479 0.10945 0.0
C3401 C 0.37153 0.0159 0.12806 0.0
C3402 C 0.36593 0.03015 0.09941 0.0
C3403 C 0.36449 0.04692 0.10781 0.0
C3404 C 0.36551 0.04773 0.1266 0.0
C3405 C 0.36885 0.03234 0.13661 0.0
C3406 C 0.35868 0.09577 0.09593 0.0
C3407 C 0.37065 0.09735 0.08164 0.0
C3408 C 0.35532 0.07904 0.10354 0.0
C3409 C 0.36419 0.06371 0.09714 0.0
C3410 C 0.37493 0.06525 0.08175 0.0
C3411 C 0.37808 0.08194 0.07404 0.0
H3412 H 0.38189 0.88765 0.8903 0.0
H3413 H 0.38451 0.91841 0.93897 0.0
H3414 H 0.37178 0.91407 0.874 0.0
H3415 H 0.3743 0.94502 0.92266 0.0
H3416 H 0.34939 0.98846 0.88571 0.0
H3417 H 0.3496 0.95994 0.90222 0.0
H3418 H 0.39222 0.94091 0.86822 0.0
H3419 H 0.39214 0.96926 0.85214 0.0
C3420 C 0.37978 0.9 0.89757 0.0
C3421 C 0.38415 0.90118 0.91576 0.0
C3422 C 0.37405 0.91508 0.88827 0.0
C3423 C 0.37252 0.93161 0.89703 0.0
C3424 C 0.3753 0.93241 0.91562 0.0
C3425 C 0.38114 0.91724 0.92494 0.0
C3426 C 0.35854 0.97798 0.88169 0.0
C3427 C 0.37075 0.98087 0.86775 0.0
C3428 C 0.35872 0.96178 0.89113 0.0
C3429 C 0.37084 0.94822 0.8864 0.0
C3430 C 0.38255 0.95101 0.87198 0.0
C3431 C 0.38259 0.96723 0.86284 0.0
H3432 H 0.01717 0.35098 0.87712 0.0
H3433 H 0.03579 0.39516 0.84515 0.0
H3434 H 0.04577 0.35077 0.89345 0.0
H3435 H 0.06417 0.39496 0.86111 0.0
H3436 H 0.11676 0.38773 0.8849 0.0
H3437 H 0.0916 0.37683 0.86717 0.0
H3438 H 0.05934 0.37377 0.91497 0.0
H3439 H 0.0847 0.38461 0.9327 0.0
C3440 C 0.02759 0.3603 0.87333 0.0
C3441 C 0.02447 0.37309 0.85997 0.0
C3442 C 0.04383 0.36026 0.88268 0.0
C3443 C 0.0572 0.3728 0.87849 0.0
C3444 C 0.05426 0.38494 0.86446 0.0
C3445 C 0.03802 0.38515 0.85538 0.0
C3446 C 0.10441 0.38428 0.89163 0.0
C3447 C 0.10243 0.38729 0.91002 0.0
C3448 C 0.09004 0.37806 0.88152 0.0
C3449 C 0.07345 0.37475 0.88966 0.0
C3450 C 0.072 0.37615 0.90836 0.0
C3451 C 0.08645 0.38238 0.9185 0.0
H3452 H 0.62877 0.00272 0.89369 0.0
H3453 H 0.62348 0.03732 0.84792 0.0
H3454 H 0.63035 0.02875 0.91335 0.0
H3455 H 0.62459 0.06344 0.86745 0.0
H3456 H 0.63032 0.10913 0.90433 0.0
H3457 H 0.64003 0.08252 0.88785 0.0
H3458 H 0.60841 0.04952 0.92328 0.0
H3459 H 0.59938 0.07605 0.93985 0.0
C3460 C 0.62799 0.01596 0.88789 0.0
C3461 C 0.62557 0.01813 0.86943 0.0
C3462 C 0.62893 0.03086 0.8991 0.0
C3463 C 0.62733 0.04822 0.89205 0.0
C3464 C 0.62606 0.05031 0.87338 0.0
C3465 C 0.6253 0.03539 0.86216 0.0
C3466 C 0.62611 0.09605 0.9089 0.0
C3467 C 0.61435 0.09443 0.92337 0.0
C3468 C 0.63144 0.08086 0.89938 0.0
C3469 C 0.62485 0.06386 0.90409 0.0
C3470 C 0.61398 0.06229 0.91938 0.0
C3471 C 0.60877 0.07746 0.92891 0.0
H3472 H 0.88255 0.62902 0.8942 0.0
H3473 H 0.91286 0.60413 0.93635 0.0
H3474 H 0.91028 0.63833 0.87959 0.0
H3475 H 0.94065 0.6124 0.92147 0.0
H3476 H 0.98954 0.63277 0.89438 0.0
H3477 H 0.96169 0.63331 0.91148 0.0
H3478 H 0.93199 0.62349 0.8628 0.0
H3479 H 0.95979 0.62375 0.84586 0.0
C3480 C 0.89524 0.62593 0.90047 0.0
C3481 C 0.89577 0.61604 0.91635 0.0
C3482 C 0.91111 0.63101 0.89204 0.0
C3483 C 0.92778 0.62589 0.89915 0.0
C3484 C 0.92815 0.61682 0.91566 0.0
C3485 C 0.91226 0.61201 0.92421 0.0
C3486 C 0.97697 0.63088 0.88743 0.0
C3487 C 0.97669 0.62792 0.86893 0.0
C3488 C 0.96103 0.63116 0.89718 0.0
C3489 C 0.94452 0.62825 0.88861 0.0
C3490 C 0.94434 0.62606 0.8699 0.0
C3491 C 0.96026 0.62607 0.86016 0.0
H3492 H 0.65431 0.97643 0.1331 0.0
H3493 H 0.59874 0.98168 0.11814 0.0
H3494 H 0.65605 0.94863 0.11571 0.0
H3495 H 0.60093 0.95504 0.10009 0.0
H3496 H 0.61203 0.91365 0.05913 0.0
H3497 H 0.61912 0.94305 0.07179 0.0
H3498 H 0.63769 0.91773 0.12021 0.0
H3499 H 0.63028 0.8884 0.10762 0.0
C3500 C 0.64262 0.97197 0.1258 0.0
C3501 C 0.62657 0.98177 0.12652 0.0
C3502 C 0.64368 0.95615 0.11582 0.0
C3503 C 0.62876 0.95003 0.10622 0.0
C3504 C 0.61281 0.95983 0.10687 0.0
C3505 C 0.61164 0.97533 0.11711 0.0
C3506 C 0.61824 0.91441 0.0722 0.0
C3507 C 0.62061 0.89895 0.0825 0.0
C3508 C 0.62221 0.93116 0.07945 0.0
C3509 C 0.62885 0.93258 0.09697 0.0
C3510 C 0.63273 0.91696 0.10662 0.0
C3511 C 0.62849 0.90024 0.09947 0.0
H3512 H 0.08241 0.60749 0.06589 0.0
H3513 H 0.10918 0.63398 0.10944 0.0
H3514 H 0.05364 0.61236 0.08042 0.0
H3515 H 0.08038 0.63988 0.12373 0.0
H3516 H 0.03189 0.62005 0.15601 0.0
H3517 H 0.05991 0.62256 0.13964 0.0
H3518 H 0.03038 0.63069 0.09056 0.0
H3519 H 0.00239 0.62744 0.10706 0.0
C3520 C 0.08197 0.61498 0.07828 0.0
C3521 C 0.09782 0.6204 0.08662 0.0
C3522 C 0.06551 0.61783 0.08664 0.0
C3523 C 0.06462 0.62633 0.10344 0.0
C3524 C 0.08054 0.6329 0.11105 0.0
C3525 C 0.09701 0.62978 0.1028 0.0
C3526 C 0.03147 0.62256 0.14175 0.0
C3527 C 0.0151 0.62317 0.13269 0.0
C3528 C 0.04752 0.62414 0.13233 0.0
C3529 C 0.04751 0.62672 0.11367 0.0
C3530 C 0.03096 0.62827 0.10481 0.0
C3531 C 0.01492 0.62641 0.11423 0.0
H3532 H 0.96762 0.38921 0.15146 0.0
H3533 H 0.98722 0.34659 0.11797 0.0
H3534 H 0.93882 0.38815 0.13617 0.0
H3535 H 0.95828 0.34568 0.10225 0.0
H3536 H 0.88536 0.37607 0.11466 0.0
H3537 H 0.91225 0.36697 0.13084 0.0
H3538 H 0.94268 0.36994 0.08189 0.0
H3539 H 0.91571 0.37929 0.06574 0.0
C3540 C 0.96555 0.37938 0.14102 0.0
C3541 C 0.97944 0.36792 0.13589 0.0
C3542 C 0.9491 0.37872 0.13232 0.0
C3543 C 0.94632 0.36677 0.11809 0.0
C3544 C 0.96011 0.35497 0.11321 0.0
C3545 C 0.97654 0.35541 0.12221 0.0
C3546 C 0.89773 0.37436 0.10731 0.0
C3547 C 0.89863 0.37865 0.08908 0.0
C3548 C 0.91307 0.36916 0.11654 0.0
C3549 C 0.92955 0.36799 0.10764 0.0
C3550 C 0.93011 0.37066 0.08904 0.0
C3551 C 0.91472 0.376 0.0798 0.0
H3552 H 0.55893 0.89592 0.57986 0.0
H3553 H 0.60573 0.87351 0.60491 0.0
H3554 H 0.57223 0.89072 0.55034 0.0
H3555 H 0.61897 0.86798 0.57543 0.0
H3556 H 0.63219 0.85473 0.51572 0.0
H3557 H 0.6145 0.85212 0.54326 0.0
H3558 H 0.60155 0.9082 0.54016 0.0
H3559 H 0.61989 0.91113 0.51373 0.0
C3560 C 0.57174 0.88922 0.57896 0.0
C3561 C 0.58136 0.88502 0.59447 0.0
C3562 C 0.57937 0.88634 0.56216 0.0
C3563 C 0.59663 0.87903 0.56069 0.0
C3564 C 0.60559 0.87347 0.57622 0.0
C3565 C 0.59806 0.87661 0.59303 0.0
C3566 C 0.62544 0.86646 0.52087 0.0
C3567 C 0.62695 0.883 0.51203 0.0
C3568 C 0.6153 0.86492 0.53654 0.0
C3569 C 0.60631 0.87986 0.54349 0.0
C3570 C 0.60784 0.89634 0.53471 0.0
C3571 C 0.61824 0.89796 0.51935 0.0
H3572 H 0.09547 0.61704 0.51814 0.0
H3573 H 0.15168 0.62903 0.52401 0.0
H3574 H 0.09641 0.59891 0.54483 0.0
H3575 H 0.15215 0.6117 0.55193 0.0
H3576 H 0.12303 0.60352 0.61183 0.0
H3577 H 0.13129 0.61713 0.58314 0.0
H3578 H 0.11542 0.56888 0.55581 0.0
H3579 H 0.10759 0.55516 0.58455 0.0
C3580 C 0.10821 0.61536 0.52465 0.0
C3581 C 0.12372 0.62387 0.5183 0.0
C3582 C 0.10866 0.60512 0.54019 0.0
C3583 C 0.12444 0.60362 0.55015 0.0
C3584 C 0.13989 0.61247 0.54425 0.0
C3585 C 0.13957 0.62241 0.52836 0.0
C3586 C 0.122 0.59565 0.59972 0.0
C3587 C 0.11473 0.57837 0.60023 0.0
C3588 C 0.12673 0.60338 0.58338 0.0
C3589 C 0.12392 0.59401 0.56737 0.0
C3590 C 0.11774 0.57629 0.56803 0.0
C3591 C 0.11333 0.56845 0.5844 0.0
H3592 H 0.4274 0.11569 0.58212 0.0
H3593 H 0.3795 0.11679 0.6142 0.0
H3594 H 0.41009 0.12527 0.55599 0.0
H3595 H 0.36217 0.12622 0.58816 0.0
H3596 H 0.33968 0.10571 0.53299 0.0
H3597 H 0.3556 0.10653 0.56145 0.0
H3598 H 0.38939 0.14884 0.54139 0.0
H3599 H 0.37307 0.1481 0.51281 0.0
C3600 C 0.41329 0.11854 0.58368 0.0
C3601 C 0.40466 0.11524 0.6 0.0
C3602 C 0.40338 0.12403 0.56876 0.0
C3603 C 0.38475 0.12623 0.57002 0.0
C3604 C 0.37646 0.12437 0.58677 0.0
C3605 C 0.38635 0.11898 0.60163 0.0
C3606 C 0.35019 0.1155 0.5349 0.0
C3607 C 0.35514 0.12693 0.52093 0.0
C3608 C 0.35928 0.11602 0.55115 0.0
C3609 C 0.37371 0.1278 0.55364 0.0
C3610 C 0.37831 0.13966 0.5398 0.0
C3611 C 0.36895 0.13934 0.52357 0.0
H3612 H 0.86554 0.39434 0.50246 0.0
H3613 H 0.87061 0.34591 0.5333 0.0
H3614 H 0.86421 0.41184 0.53 0.0
H3615 H 0.86982 0.36323 0.56082 0.0
H3616 H 0.86049 0.39532 0.6093 0.0
H3617 H 0.85348 0.38074 0.58091 0.0
H3618 H 0.8836 0.42142 0.55292 0.0
H3619 H 0.88966 0.4363 0.58132 0.0
C3620 C 0.86653 0.38748 0.51516 0.0
C3621 C 0.86856 0.36884 0.5158 0.0
C3622 C 0.86572 0.39748 0.53095 0.0
C3623 C 0.86704 0.38903 0.54773 0.0
C3624 C 0.86845 0.37026 0.54824 0.0
C3625 C 0.86904 0.36029 0.53246 0.0
C3626 C 0.86502 0.40138 0.59695 0.0
C3627 C 0.87544 0.41692 0.59732 0.0
C3628 C 0.86126 0.39293 0.58071 0.0
C3629 C 0.86823 0.39967 0.56456 0.0
C3630 C 0.87782 0.41588 0.56498 0.0
C3631 C 0.88133 0.42445 0.58123 0.0
H3632 H 0.60678 0.12077 0.38373 0.0
H3633 H 0.56328 0.104 0.41751 0.0
H3634 H 0.62304 0.13176 0.40985 0.0
H3635 H 0.57976 0.11383 0.44384 0.0
H3636 H 0.60958 0.13662 0.48962 0.0
H3637 H 0.59202 0.13573 0.46209 0.0
H3638 H 0.63918 0.119 0.43301 0.0
H3639 H 0.65667 0.12096 0.46039 0.0
C3640 C 0.60067 0.1197 0.39682 0.0
C3641 C 0.58389 0.11162 0.39879 0.0
C3642 C 0.61001 0.12577 0.4118 0.0
C3643 C 0.60292 0.12347 0.42909 0.0
C3644 C 0.58564 0.11612 0.43082 0.0
C3645 C 0.57617 0.11038 0.41577 0.0
C3646 C 0.61614 0.13314 0.47719 0.0
C3647 C 0.63436 0.12878 0.47698 0.0
C3648 C 0.6061 0.13247 0.46144 0.0
C3649 C 0.61404 0.12704 0.44526 0.0
C3650 C 0.63256 0.1235 0.44506 0.0
C3651 C 0.64263 0.12452 0.46075 0.0
H3652 H 0.86812 0.59334 0.3899 0.0
H3653 H 0.89903 0.55244 0.41617 0.0
H3654 H 0.86282 0.60798 0.41875 0.0
H3655 H 0.89393 0.56708 0.44503 0.0
H3656 H 0.91117 0.61917 0.47596 0.0
H3657 H 0.90814 0.59858 0.45123 0.0
H3658 H 0.85086 0.6052 0.45238 0.0
H3659 H 0.85379 0.6253 0.47823 0.0
C3660 C 0.87308 0.58712 0.402 0.0
C3661 C 0.88387 0.57182 0.40103 0.0
C3662 C 0.87009 0.59546 0.41845 0.0
C3663 C 0.87811 0.58871 0.43402 0.0
C3664 C 0.88766 0.57255 0.43317 0.0
C3665 C 0.89049 0.56412 0.41676 0.0
C3666 C 0.89785 0.61571 0.47161 0.0
C3667 C 0.88267 0.62331 0.47964 0.0
C3668 C 0.89614 0.604 0.45726 0.0
C3669 C 0.87924 0.59997 0.45021 0.0
C3670 C 0.86401 0.60791 0.4578 0.0
C3671 C 0.86571 0.61944 0.47248 0.0
H3672 H 0.39477 0.86302 0.38863 0.0
H3673 H 0.43515 0.89499 0.41437 0.0
H3674 H 0.38097 0.85688 0.41762 0.0
H3675 H 0.42104 0.88973 0.44333 0.0
H3676 H 0.39653 0.87181 0.49511 0.0
H3677 H 0.41315 0.87045 0.46705 0.0
H3678 H 0.36337 0.87325 0.43774 0.0
H3679 H 0.34693 0.8741 0.4658 0.0
C3680 C 0.40083 0.86843 0.40063 0.0
C3681 C 0.416 0.87934 0.39947 0.0
C3682 C 0.39285 0.86514 0.41719 0.0
C3683 C 0.3997 0.87301 0.43286 0.0
C3684 C 0.41547 0.88325 0.43166 0.0
C3685 C 0.42357 0.88632 0.4151 0.0
C3686 C 0.38922 0.87218 0.48264 0.0
C3687 C 0.3705 0.87344 0.48256 0.0
C3688 C 0.39871 0.87135 0.46655 0.0
C3689 C 0.38967 0.87189 0.45005 0.0
C3690 C 0.37085 0.87251 0.45011 0.0
C3691 C 0.36138 0.87312 0.46619 0.0
H3692 H 0.14885 0.36641 0.47788 0.0
H3693 H 0.09158 0.36844 0.47078 0.0
H3694 H 0.1526 0.38506 0.45096 0.0
H3695 H 0.09532 0.38771 0.445 0.0
H3696 H 0.10566 0.43622 0.4127 0.0
H3697 H 0.11111 0.42163 0.44151 0.0
H3698 H 0.13977 0.37933 0.41476 0.0
H3699 H 0.13403 0.39384 0.38587 0.0
C3700 C 0.13711 0.37098 0.47074 0.0
C3701 C 0.11988 0.36658 0.4769 0.0
C3702 C 0.13927 0.38168 0.45548 0.0
C3703 C 0.12421 0.38821 0.44638 0.0
C3704 C 0.1071 0.38332 0.45221 0.0
C3705 C 0.10497 0.37243 0.46711 0.0
C3706 C 0.11382 0.42425 0.41312 0.0
C3707 C 0.11949 0.41608 0.39726 0.0
C3708 C 0.11687 0.41589 0.42952 0.0
C3709 C 0.12579 0.39938 0.43022 0.0
C3710 C 0.13304 0.39215 0.41451 0.0
C3711 C 0.12979 0.40042 0.39806 0.0
H3712 H 0.61009 0.60679 0.87386 0.0
H3713 H 0.57822 0.56327 0.89399 0.0
H3714 H 0.58299 0.62271 0.86496 0.0
H3715 H 0.55099 0.57942 0.88618 0.0
H3716 H 0.50346 0.6083 0.86465 0.0
H3717 H 0.53113 0.59095 0.86516 0.0
H3718 H 0.56051 0.63882 0.87905 0.0
H3719 H 0.53292 0.65607 0.8776 0.0
C3720 C 0.59719 0.6006 0.87616 0.0
C3721 C 0.59607 0.5839 0.88454 0.0
C3722 C 0.58166 0.60976 0.87128 0.0
C3723 C 0.56468 0.60254 0.87506 0.0
C3724 C 0.56373 0.58538 0.88279 0.0
C3725 C 0.5793 0.5761 0.88736 0.0
C3726 C 0.51594 0.61503 0.86759 0.0
C3727 C 0.51617 0.6334 0.87126 0.0
C3728 C 0.53179 0.60512 0.86799 0.0
C3729 C 0.54814 0.61337 0.87235 0.0
C3730 C 0.54831 0.63197 0.87536 0.0
C3731 C 0.5325 0.6419 0.87464 0.0
H3732 H 0.3945 0.50352 0.86731 0.0
H3733 H 0.34495 0.53205 0.87459 0.0
H3734 H 0.41066 0.53185 0.86555 0.0
H3735 H 0.36093 0.56032 0.87359 0.0
H3736 H 0.39059 0.61046 0.86581 0.0
H3737 H 0.377 0.58182 0.85787 0.0
H3738 H 0.41985 0.55428 0.88534 0.0
H3739 H 0.43374 0.58295 0.8922 0.0
C3740 C 0.38712 0.5159 0.86858 0.0
C3741 C 0.36858 0.5157 0.87139 0.0
C3742 C 0.39633 0.53213 0.86758 0.0
C3743 C 0.38719 0.54846 0.86962 0.0
C3744 C 0.36847 0.54812 0.87167 0.0
C3745 C 0.35926 0.53191 0.87237 0.0
C3746 C 0.39727 0.59818 0.86958 0.0
C3747 C 0.41314 0.5987 0.87949 0.0
C3748 C 0.38943 0.58179 0.86527 0.0
C3749 C 0.39712 0.56566 0.87121 0.0
C3750 C 0.4136 0.56632 0.88032 0.0
C3751 C 0.42158 0.58272 0.88433 0.0
H3752 H 0.46134 0.33992 0.88876 0.0
H3753 H 0.48338 0.37328 0.84726 0.0
H3754 H 0.43358 0.35699 0.88793 0.0
H3755 H 0.45548 0.39072 0.84648 0.0
H3756 H 0.41663 0.42988 0.8805 0.0
H3757 H 0.44175 0.41159 0.87005 0.0
H3758 H 0.40732 0.36526 0.86873 0.0
H3759 H 0.38237 0.38355 0.87919 0.0
C3760 C 0.45997 0.35066 0.87913 0.0
C3761 C 0.47428 0.3553 0.868 0.0
C3762 C 0.44411 0.36041 0.87859 0.0
C3763 C 0.44235 0.37516 0.86708 0.0
C3764 C 0.45649 0.37941 0.85545 0.0
C3765 C 0.47234 0.36941 0.8558 0.0
C3766 C 0.41438 0.41593 0.87737 0.0
C3767 C 0.39778 0.40797 0.88089 0.0
C3768 C 0.4287 0.40546 0.87137 0.0
C3769 C 0.42652 0.38695 0.86886 0.0
C3770 C 0.40943 0.37943 0.87082 0.0
C3771 C 0.39518 0.38987 0.87677 0.0
H3772 H 0.55685 0.41299 0.89654 0.0
H3773 H 0.59277 0.38572 0.86075 0.0
H3774 H 0.5711 0.44144 0.8894 0.0
H3775 H 0.6068 0.41423 0.85292 0.0
H3776 H 0.64456 0.46025 0.87057 0.0
H3777 H 0.62669 0.43306 0.86913 0.0
H3778 H 0.5784 0.46487 0.86892 0.0
H3779 H 0.59647 0.49204 0.87063 0.0
C3780 C 0.56735 0.41329 0.88657 0.0
C3781 C 0.57372 0.39739 0.87906 0.0
C3782 C 0.57554 0.42955 0.88244 0.0
C3783 C 0.59026 0.43012 0.87071 0.0
C3784 C 0.59572 0.41423 0.86224 0.0
C3785 C 0.58759 0.39796 0.8665 0.0
C3786 C 0.63013 0.46137 0.86997 0.0
C3787 C 0.62183 0.47811 0.87124 0.0
C3788 C 0.61985 0.44582 0.86902 0.0
C3789 C 0.60105 0.44674 0.86907 0.0
C3790 C 0.59282 0.46365 0.86926 0.0
C3791 C 0.60313 0.47919 0.87035 0.0
H3792 H 0.61076 0.39013 0.12906 0.0
H3793 H 0.58232 0.43343 0.10392 0.0
H3794 H 0.58243 0.37562 0.13642 0.0
H3795 H 0.55395 0.41864 0.11023 0.0
H3796 H 0.50376 0.39171 0.12829 0.0
H3797 H 0.53175 0.40844 0.12978 0.0
H3798 H 0.56115 0.3595 0.12043 0.0
H3799 H 0.53319 0.34291 0.11967 0.0
C3800 C 0.59834 0.39665 0.12544 0.0
C3801 C 0.59854 0.41283 0.11604 0.0
C3802 C 0.58212 0.38827 0.1294 0.0
C3803 C 0.56582 0.39575 0.12366 0.0
C3804 C 0.56613 0.41252 0.11508 0.0
C3805 C 0.58236 0.42102 0.1114 0.0
C3806 C 0.51626 0.38462 0.12662 0.0
C3807 C 0.51638 0.36612 0.12355 0.0
C3808 C 0.53231 0.39417 0.12747 0.0
C3809 C 0.54881 0.38542 0.12506 0.0
C3810 C 0.54882 0.36674 0.12265 0.0
C3811 C 0.53278 0.35719 0.12209 0.0
H3812 H 0.59987 0.60961 0.12575 0.0
H3813 H 0.56119 0.57712 0.09812 0.0
H3814 H 0.61533 0.58266 0.13607 0.0
H3815 H 0.57685 0.55015 0.10763 0.0
H3816 H 0.60446 0.50289 0.13043 0.0
H3817 H 0.58629 0.53006 0.13027 0.0
H3818 H 0.63402 0.56156 0.12165 0.0
H3819 H 0.65202 0.53441 0.12236 0.0
C3820 C 0.59451 0.59661 0.12229 0.0
C3821 C 0.57938 0.59522 0.11135 0.0
C3822 C 0.60342 0.58121 0.12798 0.0
C3823 C 0.59748 0.56419 0.12253 0.0
C3824 C 0.5817 0.56295 0.11233 0.0
C3825 C 0.57272 0.57835 0.10682 0.0
C3826 C 0.61098 0.5157 0.12866 0.0
C3827 C 0.62951 0.51666 0.12603 0.0
C3828 C 0.60062 0.53124 0.12857 0.0
C3829 C 0.60862 0.54802 0.12569 0.0
C3830 C 0.62737 0.54895 0.1241 0.0
C3831 C 0.63772 0.53341 0.1244 0.0
H3832 H 0.38755 0.60108 0.13574 0.0
H3833 H 0.41621 0.5627 0.10377 0.0
H3834 H 0.41568 0.61613 0.14308 0.0
H3835 H 0.44426 0.57789 0.11043 0.0
H3836 H 0.49404 0.60532 0.12752 0.0
H3837 H 0.46705 0.58719 0.13059 0.0
H3838 H 0.43476 0.63493 0.12592 0.0
H3839 H 0.46183 0.65292 0.12326 0.0
C3840 C 0.4 0.59563 0.13072 0.0
C3841 C 0.39991 0.58081 0.11928 0.0
C3842 C 0.41605 0.60432 0.13471 0.0
C3843 C 0.43223 0.59841 0.12713 0.0
C3844 C 0.43214 0.58275 0.11668 0.0
C3845 C 0.4161 0.57401 0.11282 0.0
C3846 C 0.48113 0.61186 0.12721 0.0
C3847 C 0.47988 0.63039 0.12469 0.0
C3848 C 0.46569 0.60152 0.12903 0.0
C3849 C 0.44869 0.60954 0.12827 0.0
C3850 C 0.44759 0.62828 0.12678 0.0
C3851 C 0.46306 0.63861 0.12513 0.0
H3852 H 0.38558 0.38411 0.1213 0.0
H3853 H 0.4336 0.41581 0.11806 0.0
H3854 H 0.36882 0.4103 0.13132 0.0
H3855 H 0.41684 0.44218 0.12805 0.0
H3856 H 0.38039 0.48641 0.14985 0.0
H3857 H 0.39665 0.45782 0.15149 0.0
H3858 H 0.36201 0.43615 0.11066 0.0
H3859 H 0.34616 0.46458 0.10894 0.0
C3860 C 0.39262 0.39661 0.12329 0.0
C3861 C 0.41073 0.39815 0.1187 0.0
C3862 C 0.38305 0.41157 0.12896 0.0
C3863 C 0.39147 0.4283 0.13015 0.0
C3864 C 0.41003 0.42942 0.1273 0.0
C3865 C 0.41962 0.41439 0.12159 0.0
C3866 C 0.3761 0.47531 0.14159 0.0
C3867 C 0.3621 0.47749 0.1293 0.0
C3868 C 0.38541 0.45907 0.14245 0.0
C3869 C 0.38052 0.44477 0.13128 0.0
C3870 C 0.3659 0.44682 0.11965 0.0
C3871 C 0.35687 0.46307 0.11858 0.0
H3872 H 0.89674 0.58395 0.56337 0.0
H3873 H 0.8797 0.61594 0.60812 0.0
H3874 H 0.88724 0.55692 0.57889 0.0
H3875 H 0.86905 0.58912 0.62342 0.0
H3876 H 0.87887 0.53743 0.65515 0.0
H3877 H 0.88174 0.56533 0.63865 0.0
H3878 H 0.86518 0.53825 0.59025 0.0
H3879 H 0.86335 0.51017 0.60684 0.0
C3880 C 0.89042 0.58514 0.57635 0.0
C3881 C 0.88898 0.60183 0.58468 0.0
C3882 C 0.88487 0.5697 0.58526 0.0
C3883 C 0.87749 0.57072 0.60257 0.0
C3884 C 0.87507 0.58771 0.61034 0.0
C3885 C 0.88096 0.60309 0.60155 0.0
C3886 C 0.87562 0.53761 0.64103 0.0
C3887 C 0.8711 0.52177 0.63214 0.0
C3888 C 0.87714 0.5536 0.63153 0.0
C3889 C 0.87382 0.55413 0.61299 0.0
C3890 C 0.86828 0.53833 0.60438 0.0
C3891 C 0.8671 0.52227 0.61385 0.0
H3892 H 0.88832 0.46048 0.34231 0.0
H3893 H 0.84769 0.48454 0.37536 0.0
H3894 H 0.88543 0.43253 0.3589 0.0
H3895 H 0.84495 0.45649 0.39239 0.0
H3896 H 0.87663 0.41376 0.43049 0.0
H3897 H 0.86836 0.44036 0.41318 0.0
H3898 H 0.86268 0.40774 0.3659 0.0
H3899 H 0.87078 0.38126 0.38324 0.0
C3900 C 0.87852 0.45959 0.35294 0.0
C3901 C 0.86817 0.47447 0.35759 0.0
C3902 C 0.8768 0.44363 0.36239 0.0
C3903 C 0.8649 0.44235 0.37688 0.0
C3904 C 0.85417 0.45715 0.38125 0.0
C3905 C 0.85566 0.47308 0.3715 0.0
C3906 C 0.87293 0.41225 0.41657 0.0
C3907 C 0.87458 0.39564 0.40805 0.0
C3908 C 0.86821 0.42743 0.40667 0.0
C3909 C 0.86517 0.42609 0.38816 0.0
C3910 C 0.86518 0.40915 0.3801 0.0
C3911 C 0.86977 0.39403 0.39 0.0
H3912 H 0.51403 0.84693 0.38046 0.0
H3913 H 0.53188 0.88722 0.34332 0.0
H3914 H 0.54335 0.84775 0.3954 0.0
H3915 H 0.56098 0.88803 0.35794 0.0
H3916 H 0.61463 0.88173 0.38036 0.0
H3917 H 0.58838 0.87021 0.3647 0.0
H3918 H 0.55819 0.87234 0.41387 0.0
H3919 H 0.58457 0.88385 0.42952 0.0
C3920 C 0.52442 0.85558 0.37526 0.0
C3921 C 0.5209 0.86702 0.36083 0.0
C3922 C 0.54107 0.85614 0.38382 0.0
C3923 C 0.55444 0.86792 0.3778 0.0
C3924 C 0.55107 0.87862 0.36273 0.0
C3925 C 0.53442 0.87824 0.3544 0.0
C3926 C 0.60246 0.87934 0.38785 0.0
C3927 C 0.60141 0.88393 0.406 0.0
C3928 C 0.58748 0.87277 0.37892 0.0
C3929 C 0.57119 0.87064 0.38801 0.0
C3930 C 0.5706 0.87376 0.40655 0.0
C3931 C 0.58564 0.88037 0.4155 0.0
H3932 H 0.15138 0.51812 0.35994 0.0
H3933 H 0.09396 0.5211 0.36546 0.0
H3934 H 0.1543 0.54536 0.37816 0.0
H3935 H 0.09703 0.54721 0.38443 0.0
H3936 H 0.11038 0.58086 0.43294 0.0
H3937 H 0.11501 0.55237 0.41738 0.0
H3938 H 0.13861 0.58043 0.37287 0.0
H3939 H 0.13355 0.60898 0.3883 0.0
C3940 C 0.13943 0.52439 0.3652 0.0
C3941 C 0.12247 0.51697 0.36185 0.0
C3942 C 0.14114 0.53986 0.37566 0.0
C3943 C 0.12591 0.54795 0.38306 0.0
C3944 C 0.109 0.54082 0.37933 0.0
C3945 C 0.10728 0.5257 0.36862 0.0
C3946 C 0.11716 0.58082 0.42014 0.0
C3947 C 0.12169 0.59694 0.41176 0.0
C3948 C 0.11972 0.56461 0.41124 0.0
C3949 C 0.12713 0.56433 0.39398 0.0
C3950 C 0.13305 0.58036 0.38625 0.0
C3951 C 0.13019 0.59661 0.39503 0.0
H3952 H 0.46145 0.12512 0.351 0.0
H3953 H 0.49532 0.12414 0.39766 0.0
H3954 H 0.43512 0.12735 0.37009 0.0
H3955 H 0.46903 0.12649 0.4169 0.0
H3956 H 0.41781 0.09758 0.4391 0.0
H3957 H 0.44576 0.10543 0.42428 0.0
H3958 H 0.41748 0.14375 0.3915 0.0
H3959 H 0.38944 0.13539 0.40623 0.0
C3960 C 0.46324 0.12571 0.36536 0.0
C3961 C 0.48028 0.12384 0.37292 0.0
C3962 C 0.44819 0.12711 0.37633 0.0
C3963 C 0.44995 0.12688 0.39507 0.0
C3964 C 0.46719 0.12629 0.40254 0.0
C3965 C 0.48222 0.12479 0.39155 0.0
C3966 C 0.41779 0.10817 0.42922 0.0
C3967 C 0.4017 0.11605 0.42384 0.0
C3968 C 0.43376 0.11269 0.42069 0.0
C3969 C 0.43384 0.12511 0.40656 0.0
C3970 C 0.41782 0.13396 0.40216 0.0
C3971 C 0.40184 0.12939 0.4107 0.0
H3972 H 0.12843 0.49205 0.60742 0.0
H3973 H 0.11908 0.45819 0.6531 0.0
H3974 H 0.12972 0.46577 0.58805 0.0
H3975 H 0.11997 0.43188 0.63386 0.0
H3976 H 0.12565 0.38567 0.59779 0.0
H3977 H 0.13571 0.41202 0.61442 0.0
H3978 H 0.10711 0.44591 0.57729 0.0
H3979 H 0.09772 0.41956 0.56055 0.0
C3980 C 0.12673 0.47892 0.61327 0.0
C3981 C 0.12322 0.47704 0.63159 0.0
C3982 C 0.1275 0.46389 0.60223 0.0
C3983 C 0.12469 0.44671 0.60933 0.0
C3984 C 0.12238 0.44485 0.62793 0.0
C3985 C 0.12176 0.4599 0.63897 0.0
C3986 C 0.12215 0.39886 0.59293 0.0
C3987 C 0.11112 0.4008 0.57793 0.0
C3988 C 0.12769 0.4139 0.60251 0.0
C3989 C 0.12205 0.43109 0.59733 0.0
C3990 C 0.11192 0.43295 0.58156 0.0
C3991 C 0.1065 0.4179 0.57195 0.0
H3992 H 0.51804 0.14751 0.62794 0.0
H3993 H 0.51462 0.09156 0.6139 0.0
H3994 H 0.54596 0.14978 0.61084 0.0
H3995 H 0.54136 0.09429 0.59603 0.0
H3996 H 0.58229 0.10812 0.55414 0.0
H3997 H 0.55269 0.11364 0.56719 0.0
H3998 H 0.57759 0.1313 0.61615 0.0
H3999 H 0.60713 0.12533 0.60321 0.0
C4000 C 0.52291 0.13584 0.6209 0.0
C4001 C 0.51357 0.11951 0.62182 0.0
C4002 C 0.53881 0.13719 0.61109 0.0
C4003 C 0.54548 0.12232 0.60181 0.0
C4004 C 0.53614 0.1061 0.6026 0.0
C4005 C 0.52057 0.10463 0.61272 0.0
C4006 C 0.58136 0.11374 0.56746 0.0
C4007 C 0.5968 0.11636 0.57774 0.0
C4008 C 0.56451 0.11682 0.57492 0.0
C4009 C 0.56296 0.12286 0.59264 0.0
C4010 C 0.57849 0.12682 0.60241 0.0
C4011 C 0.59532 0.12342 0.59505 0.0
H4012 H 0.46876 0.89252 0.65215 0.0
H4013 H 0.48886 0.85002 0.61881 0.0
H4014 H 0.44003 0.89119 0.63677 0.0
H4015 H 0.45998 0.84879 0.60301 0.0
H4016 H 0.41755 0.88152 0.56597 0.0
H4017 H 0.44435 0.87226 0.58245 0.0
H4018 H 0.41361 0.8705 0.63127 0.0
H4019 H 0.38693 0.87963 0.61478 0.0
C4020 C 0.46681 0.88264 0.64173 0.0
C4021 C 0.48082 0.87132 0.63664 0.0
C4022 C 0.4504 0.88181 0.63297 0.0
C4023 C 0.44777 0.86982 0.61875 0.0
C4024 C 0.46168 0.85812 0.61395 0.0
C4025 C 0.47808 0.85874 0.623 0.0
C4026 C 0.41647 0.87854 0.5801 0.0
C4027 C 0.40037 0.88156 0.58923 0.0
C4028 C 0.43175 0.87324 0.58952 0.0
C4029 C 0.43107 0.87094 0.60818 0.0
C4030 C 0.41454 0.87242 0.61695 0.0
C4031 C 0.39932 0.87763 0.60754 0.0
loop_
_geom_bond_atom_site_label_1
_geom_bond_atom_site_label_2
_geom_bond_distance
_geom_bond_site_symmetry_2
_ccdc_geom_bond_type
Co0 O3 1.970 . S
Co0 N17 1.989 . S
Co0 O25 1.967 . S
Co0 O32 1.920 . S
Co1 O4 1.966 . S
Co1 N10 2.022 . S
Co1 N18 1.993 . S
Co1 O26 1.941 . S
C2 O3 1.258 . S
C2 O4 1.263 . S
O3 Co0 1.970 . S
O3 C2 1.258 . S
O4 Co1 1.966 . S
O4 C2 1.263 . S
C5 O6 1.235 . S
C5 O32 1.289 . S
O6 C5 1.235 . S
C7 C9 1.400 1_455 S
C7 N10 1.351 . S
C7 C12 1.501 1_455 S
C8 C9 1.387 1_455 S
C8 N11 1.341 . S
C9 C7 1.400 1_655 S
C9 C8 1.387 1_655 S
N10 Co1 2.022 . S
N10 C7 1.351 . S
N10 N11 1.365 . S
N11 C8 1.341 . S
N11 N10 1.365 . S
N11 H31 0.862 . S
C12 C7 1.501 1_655 S
C12 H13 0.961 1_655 S
C12 H14 0.961 . S
C12 H15 0.960 . S
H13 C12 0.961 1_455 S
H14 C12 0.961 . S
H15 C12 0.960 . S
C16 N17 1.342 . S
C16 C20 1.401 . S
C16 C21 1.499 . S
N17 Co0 1.989 . S
N17 C16 1.342 . S
N17 N18 1.388 . S
N18 Co1 1.993 . S
N18 N17 1.388 . S
N18 C19 1.346 . S
C19 N18 1.346 . S
C19 C20 1.396 . S
C19 C29 1.510 . S
C20 C16 1.401 . S
C20 C19 1.396 . S
C21 C16 1.499 . S
C21 H22 0.959 . S
C21 H23 0.960 . S
C21 H24 0.961 . S
H22 C21 0.959 . S
H23 C21 0.960 . S
H24 C21 0.961 . S
O25 Co0 1.967 . S
O25 C33 1.258 . S
O26 Co1 1.941 . S
O26 C33 1.266 . S
H27 C29 0.959 . S
H28 C29 0.961 . S
C29 C19 1.510 . S
C29 H27 0.959 . S
C29 H28 0.961 . S
C29 H30 0.960 . S
H30 C29 0.960 . S
H31 N11 0.862 . S
O32 Co0 1.920 . S
O32 C5 1.289 . S
C33 O25 1.258 . S
C33 O26 1.266 . S
Co34 O37 1.970 . S
Co34 N51 1.989 . S
Co34 O59 1.967 . S
Co34 O66 1.920 . S
Co35 O38 1.966 . S
Co35 N44 2.022 . S
Co35 N52 1.993 . S
Co35 O60 1.941 . S
C36 O37 1.258 . S
C36 O38 1.263 . S
O37 Co34 1.970 . S
O37 C36 1.258 . S
O38 Co35 1.966 . S
O38 C36 1.263 . S
C39 O40 1.235 . S
C39 O66 1.289 . S
O40 C39 1.235 . S
C41 C43 1.400 1_545 S
C41 N44 1.351 . S
C41 C46 1.501 1_545 S
C42 C43 1.387 1_545 S
C42 N45 1.341 . S
C43 C41 1.400 1_565 S
C43 C42 1.387 1_565 S
N44 Co35 2.022 . S
N44 C41 1.351 . S
N44 N45 1.365 . S
N45 C42 1.341 . S
N45 N44 1.365 . S
N45 H65 0.862 . S
C46 C41 1.501 1_565 S
C46 H47 0.961 1_565 S
C46 H48 0.961 . S
C46 H49 0.960 . S
H47 C46 0.961 1_545 S
H48 C46 0.961 . S
H49 C46 0.960 . S
C50 N51 1.342 . S
C50 C54 1.401 . S
C50 C55 1.499 . S
N51 Co34 1.989 . S
N51 C50 1.342 . S
N51 N52 1.388 . S
N52 Co35 1.993 . S
N52 N51 1.388 . S
N52 C53 1.346 . S
C53 N52 1.346 . S
C53 C54 1.396 . S
C53 C63 1.510 . S
C54 C50 1.401 . S
C54 C53 1.396 . S
C55 C50 1.499 . S
C55 H56 0.959 . S
C55 H57 0.960 . S
C55 H58 0.961 . S
H56 C55 0.959 . S
H57 C55 0.960 . S
H58 C55 0.961 . S
O59 Co34 1.967 . S
O59 C67 1.258 . S
O60 Co35 1.941 . S
O60 C67 1.266 . S
H61 C63 0.959 . S
H62 C63 0.961 . S
C63 C53 1.510 . S
C63 H61 0.959 . S
C63 H62 0.961 . S
C63 H64 0.960 . S
H64 C63 0.960 . S
H65 N45 0.862 . S
O66 Co34 1.920 . S
O66 C39 1.289 . S
C67 O59 1.258 . S
C67 O60 1.266 . S
Co68 O71 1.970 . S
Co68 N85 1.989 . S
Co68 O93 1.967 . S
Co68 O100 1.920 . S
Co69 O72 1.966 . S
Co69 N78 2.022 . S
Co69 N86 1.993 . S
Co69 O94 1.941 . S
C70 O71 1.258 . S
C70 O72 1.263 . S
O71 Co68 1.970 . S
O71 C70 1.258 . S
O72 Co69 1.966 . S
O72 C70 1.263 . S
C73 O74 1.235 . S
C73 O100 1.289 . S
O74 C73 1.235 . S
C75 C77 1.400 1_655 S
C75 N78 1.351 . S
C75 C80 1.501 1_655 S
C76 C77 1.387 1_655 S
C76 N79 1.341 . S
C77 C75 1.400 1_455 S
C77 C76 1.387 1_455 S
N78 Co69 2.022 . S
N78 C75 1.351 . S
N78 N79 1.365 . S
N79 C76 1.341 . S
N79 N78 1.365 . S
N79 H99 0.862 . S
C80 C75 1.501 1_455 S
C80 H81 0.961 1_455 S
C80 H82 0.961 . S
C80 H83 0.960 . S
H81 C80 0.961 1_655 S
H82 C80 0.961 . S
H83 C80 0.960 . S
C84 N85 1.342 . S
C84 C88 1.401 . S
C84 C89 1.499 . S
N85 Co68 1.989 . S
N85 C84 1.342 . S
N85 N86 1.388 . S
N86 Co69 1.993 . S
N86 N85 1.388 . S
N86 C87 1.346 . S
C87 N86 1.346 . S
C87 C88 1.396 . S
C87 C97 1.510 . S
C88 C84 1.401 . S
C88 C87 1.396 . S
C89 C84 1.499 . S
C89 H90 0.959 . S
C89 H91 0.960 . S
C89 H92 0.961 . S
H90 C89 0.959 . S
H91 C89 0.960 . S
H92 C89 0.961 . S
O93 Co68 1.967 . S
O93 C101 1.258 . S
O94 Co69 1.941 . S
O94 C101 1.266 . S
H95 C97 0.959 . S
H96 C97 0.961 . S
C97 C87 1.510 . S
C97 H95 0.959 . S
C97 H96 0.961 . S
C97 H98 0.960 . S
H98 C97 0.960 . S
H99 N79 0.862 . S
O100 Co68 1.920 . S
O100 C73 1.289 . S
C101 O93 1.258 . S
C101 O94 1.266 . S
Co102 O105 1.970 . S
Co102 N119 1.989 . S
Co102 O127 1.967 . S
Co102 O134 1.920 . S
Co103 O106 1.966 . S
Co103 N112 2.022 . S
Co103 N120 1.993 . S
Co103 O128 1.941 . S
C104 O105 1.258 . S
C104 O106 1.263 . S
O105 Co102 1.970 . S
O105 C104 1.258 . S
O106 Co103 1.966 . S
O106 C104 1.263 . S
C107 O108 1.235 . S
C107 O134 1.289 . S
O108 C107 1.235 . S
C109 C111 1.400 1_565 S
C109 N112 1.351 . S
C109 C114 1.501 1_565 S
C110 C111 1.387 1_565 S
C110 N113 1.341 . S
C111 C109 1.400 1_545 S
C111 C110 1.387 1_545 S
N112 Co103 2.022 . S
N112 C109 1.351 . S
N112 N113 1.365 . S
N113 C110 1.341 . S
N113 N112 1.365 . S
N113 H133 0.862 . S
C114 C109 1.501 1_545 S
C114 H115 0.961 1_545 S
C114 H116 0.961 . S
C114 H117 0.960 . S
H115 C114 0.961 1_565 S
H116 C114 0.961 . S
H117 C114 0.960 . S
C118 N119 1.342 . S
C118 C122 1.401 . S
C118 C123 1.499 . S
N119 Co102 1.989 . S
N119 C118 1.342 . S
N119 N120 1.388 . S
N120 Co103 1.993 . S
N120 N119 1.388 . S
N120 C121 1.346 . S
C121 N120 1.346 . S
C121 C122 1.396 . S
C121 C131 1.510 . S
C122 C118 1.401 . S
C122 C121 1.396 . S
C123 C118 1.499 . S
C123 H124 0.959 . S
C123 H125 0.960 . S
C123 H126 0.961 . S
H124 C123 0.959 . S
H125 C123 0.960 . S
H126 C123 0.961 . S
O127 Co102 1.967 . S
O127 C135 1.258 . S
O128 Co103 1.941 . S
O128 C135 1.266 . S
H129 C131 0.959 . S
H130 C131 0.961 . S
C131 C121 1.510 . S
C131 H129 0.959 . S
C131 H130 0.961 . S
C131 H132 0.960 . S
H132 C131 0.960 . S
H133 N113 0.862 . S
O134 Co102 1.920 . S
O134 C107 1.289 . S
C135 O127 1.258 . S
C135 O128 1.266 . S
Co136 O139 1.970 . S
Co136 N153 1.989 . S
Co136 O161 1.967 . S
Co136 O168 1.920 . S
Co137 O140 1.966 . S
Co137 N146 2.022 . S
Co137 N154 1.993 . S
Co137 O162 1.941 . S
C138 O139 1.258 . S
C138 O140 1.263 . S
O139 Co136 1.970 . S
O139 C138 1.258 . S
O140 Co137 1.966 . S
O140 C138 1.263 . S
C141 O142 1.235 . S
C141 O168 1.289 . S
O142 C141 1.235 . S
C143 C145 1.400 1_455 S
C143 N146 1.351 . S
C143 C148 1.501 1_455 S
C144 C145 1.387 1_455 S
C144 N147 1.341 . S
C145 C143 1.400 1_655 S
C145 C144 1.387 1_655 S
N146 Co137 2.022 . S
N146 C143 1.351 . S
N146 N147 1.365 . S
N147 C144 1.341 . S
N147 N146 1.365 . S
N147 H167 0.862 . S
C148 C143 1.501 1_655 S
C148 H149 0.961 1_655 S
C148 H150 0.961 . S
C148 H151 0.960 . S
H149 C148 0.961 1_455 S
H150 C148 0.961 . S
H151 C148 0.960 . S
C152 N153 1.342 . S
C152 C156 1.401 . S
C152 C157 1.499 . S
N153 Co136 1.989 . S
N153 C152 1.342 . S
N153 N154 1.388 . S
N154 Co137 1.993 . S
N154 N153 1.388 . S
N154 C155 1.346 . S
C155 N154 1.346 . S
C155 C156 1.396 . S
C155 C165 1.510 . S
C156 C152 1.401 . S
C156 C155 1.396 . S
C157 C152 1.499 . S
C157 H158 0.959 . S
C157 H159 0.960 . S
C157 H160 0.961 . S
H158 C157 0.959 . S
H159 C157 0.960 . S
H160 C157 0.961 . S
O161 Co136 1.967 . S
O161 C169 1.258 . S
O162 Co137 1.941 . S
O162 C169 1.266 . S
H163 C165 0.959 . S
H164 C165 0.961 . S
C165 C155 1.510 . S
C165 H163 0.959 . S
C165 H164 0.961 . S
C165 H166 0.960 . S
H166 C165 0.960 . S
H167 N147 0.862 . S
O168 Co136 1.920 . S
O168 C141 1.289 . S
C169 O161 1.258 . S
C169 O162 1.266 . S
Co170 O173 1.970 . S
Co170 N187 1.989 . S
Co170 O195 1.967 . S
Co170 O202 1.920 . S
Co171 O174 1.966 . S
Co171 N180 2.022 . S
Co171 N188 1.993 . S
Co171 O196 1.941 . S
C172 O173 1.258 . S
C172 O174 1.263 . S
O173 Co170 1.970 . S
O173 C172 1.258 . S
O174 Co171 1.966 . S
O174 C172 1.263 . S
C175 O176 1.235 . S
C175 O202 1.289 . S
O176 C175 1.235 . S
C177 C179 1.400 1_545 S
C177 N180 1.351 . S
C177 C182 1.501 1_545 S
C178 C179 1.387 1_545 S
C178 N181 1.341 . S
C179 C177 1.400 1_565 S
C179 C178 1.387 1_565 S
N180 Co171 2.022 . S
N180 C177 1.351 . S
N180 N181 1.365 . S
N181 C178 1.341 . S
N181 N180 1.365 . S
N181 H201 0.862 . S
C182 C177 1.501 1_565 S
C182 H183 0.961 1_565 S
C182 H184 0.961 . S
C182 H185 0.960 . S
H183 C182 0.961 1_545 S
H184 C182 0.961 . S
H185 C182 0.960 . S
C186 N187 1.342 . S
C186 C190 1.401 . S
C186 C191 1.499 . S
N187 Co170 1.989 . S
N187 C186 1.342 . S
N187 N188 1.388 . S
N188 Co171 1.993 . S
N188 N187 1.388 . S
N188 C189 1.346 . S
C189 N188 1.346 . S
C189 C190 1.396 . S
C189 C199 1.510 . S
C190 C186 1.401 . S
C190 C189 1.396 . S
C191 C186 1.499 . S
C191 H192 0.959 . S
C191 H193 0.960 . S
C191 H194 0.961 . S
H192 C191 0.959 . S
H193 C191 0.960 . S
H194 C191 0.961 . S
O195 Co170 1.967 . S
O195 C203 1.258 . S
O196 Co171 1.941 . S
O196 C203 1.266 . S
H197 C199 0.959 . S
H198 C199 0.961 . S
C199 C189 1.510 . S
C199 H197 0.959 . S
C199 H198 0.961 . S
C199 H200 0.960 . S
H200 C199 0.960 . S
H201 N181 0.862 . S
O202 Co170 1.920 . S
O202 C175 1.289 . S
C203 O195 1.258 . S
C203 O196 1.266 . S
Co204 O207 1.970 . S
Co204 N221 1.989 . S
Co204 O229 1.967 . S
Co204 O236 1.920 . S
Co205 O208 1.966 . S
Co205 N214 2.022 . S
Co205 N222 1.993 . S
Co205 O230 1.941 . S
C206 O207 1.258 . S
C206 O208 1.263 . S
O207 Co204 1.970 . S
O207 C206 1.258 . S
O208 Co205 1.966 . S
O208 C206 1.263 . S
C209 O210 1.235 . S
C209 O236 1.289 . S
O210 C209 1.235 . S
C211 C213 1.400 1_655 S
C211 N214 1.351 . S
C211 C216 1.501 1_655 S
C212 C213 1.387 1_655 S
C212 N215 1.341 . S
C213 C211 1.400 1_455 S
C213 C212 1.387 1_455 S
N214 Co205 2.022 . S
N214 C211 1.351 . S
N214 N215 1.365 . S
N215 C212 1.341 . S
N215 N214 1.365 . S
N215 H235 0.862 . S
C216 C211 1.501 1_455 S
C216 H217 0.961 1_455 S
C216 H218 0.961 . S
C216 H219 0.960 . S
H217 C216 0.961 1_655 S
H218 C216 0.961 . S
H219 C216 0.960 . S
C220 N221 1.342 . S
C220 C224 1.401 . S
C220 C225 1.499 . S
N221 Co204 1.989 . S
N221 C220 1.342 . S
N221 N222 1.388 . S
N222 Co205 1.993 . S
N222 N221 1.388 . S
N222 C223 1.346 . S
C223 N222 1.346 . S
C223 C224 1.396 . S
C223 C233 1.510 . S
C224 C220 1.401 . S
C224 C223 1.396 . S
C225 C220 1.499 . S
C225 H226 0.959 . S
C225 H227 0.960 . S
C225 H228 0.961 . S
H226 C225 0.959 . S
H227 C225 0.960 . S
H228 C225 0.961 . S
O229 Co204 1.967 . S
O229 C237 1.258 . S
O230 Co205 1.941 . S
O230 C237 1.266 . S
H231 C233 0.959 . S
H232 C233 0.961 . S
C233 C223 1.510 . S
C233 H231 0.959 . S
C233 H232 0.961 . S
C233 H234 0.960 . S
H234 C233 0.960 . S
H235 N215 0.862 . S
O236 Co204 1.920 . S
O236 C209 1.289 . S
C237 O229 1.258 . S
C237 O230 1.266 . S
Co238 O241 1.970 . S
Co238 N255 1.989 . S
Co238 O263 1.967 . S
Co238 O270 1.920 . S
Co239 O242 1.966 . S
Co239 N248 2.022 . S
Co239 N256 1.993 . S
Co239 O264 1.941 . S
C240 O241 1.258 . S
C240 O242 1.263 . S
O241 Co238 1.970 . S
O241 C240 1.258 . S
O242 Co239 1.966 . S
O242 C240 1.263 . S
C243 O244 1.235 . S
C243 O270 1.289 . S
O244 C243 1.235 . S
C245 C247 1.400 1_565 S
C245 N248 1.351 . S
C245 C250 1.501 1_565 S
C246 C247 1.387 1_565 S
C246 N249 1.341 . S
C247 C245 1.400 1_545 S
C247 C246 1.387 1_545 S
N248 Co239 2.022 . S
N248 C245 1.351 . S
N248 N249 1.365 . S
N249 C246 1.341 . S
N249 N248 1.365 . S
N249 H269 0.862 . S
C250 C245 1.501 1_545 S
C250 H251 0.961 1_545 S
C250 H252 0.961 . S
C250 H253 0.960 . S
H251 C250 0.961 1_565 S
H252 C250 0.961 . S
H253 C250 0.960 . S
C254 N255 1.342 . S
C254 C258 1.401 . S
C254 C259 1.499 . S
N255 Co238 1.989 . S
N255 C254 1.342 . S
N255 N256 1.388 . S
N256 Co239 1.993 . S
N256 N255 1.388 . S
N256 C257 1.346 . S
C257 N256 1.346 . S
C257 C258 1.396 . S
C257 C267 1.510 . S
C258 C254 1.401 . S
C258 C257 1.396 . S
C259 C254 1.499 . S
C259 H260 0.959 . S
C259 H261 0.960 . S
C259 H262 0.961 . S
H260 C259 0.959 . S
H261 C259 0.960 . S
H262 C259 0.961 . S
O263 Co238 1.967 . S
O263 C271 1.258 . S
O264 Co239 1.941 . S
O264 C271 1.266 . S
H265 C267 0.959 . S
H266 C267 0.961 . S
C267 C257 1.510 . S
C267 H265 0.959 . S
C267 H266 0.961 . S
C267 H268 0.960 . S
H268 C267 0.960 . S
H269 N249 0.862 . S
O270 Co238 1.920 . S
O270 C243 1.289 . S
C271 O263 1.258 . S
C271 O264 1.266 . S
Co272 O275 1.970 . S
Co272 N289 1.989 . S
Co272 O297 1.967 . S
Co272 O304 1.920 . S
Co273 O276 1.966 . S
Co273 N282 2.022 . S
Co273 N290 1.993 . S
Co273 O298 1.941 . S
C274 O275 1.258 . S
C274 O276 1.263 . S
O275 Co272 1.970 . S
O275 C274 1.258 . S
O276 Co273 1.966 . S
O276 C274 1.263 . S
C277 O278 1.235 . S
C277 O304 1.289 . S
O278 C277 1.235 . S
C279 C281 1.400 1_545 S
C279 N282 1.351 . S
C279 C284 1.501 1_545 S
C280 C281 1.387 1_545 S
C280 N283 1.341 . S
C281 C279 1.400 1_565 S
C281 C280 1.387 1_565 S
N282 Co273 2.022 . S
N282 C279 1.351 . S
N282 N283 1.365 . S
N283 C280 1.341 . S
N283 N282 1.365 . S
N283 H303 0.862 . S
C284 C279 1.501 1_565 S
C284 H285 0.961 1_565 S
C284 H286 0.961 . S
C284 H287 0.960 . S
H285 C284 0.961 1_545 S
H286 C284 0.961 . S
H287 C284 0.960 . S
C288 N289 1.342 . S
C288 C292 1.401 . S
C288 C293 1.499 . S
N289 Co272 1.989 . S
N289 C288 1.342 . S
N289 N290 1.388 . S
N290 Co273 1.993 . S
N290 N289 1.388 . S
N290 C291 1.346 . S
C291 N290 1.346 . S
C291 C292 1.396 . S
C291 C301 1.510 . S
C292 C288 1.401 . S
C292 C291 1.396 . S
C293 C288 1.499 . S
C293 H294 0.959 . S
C293 H295 0.960 . S
C293 H296 0.961 . S
H294 C293 0.959 . S
H295 C293 0.960 . S
H296 C293 0.961 . S
O297 Co272 1.967 . S
O297 C305 1.258 . S
O298 Co273 1.941 . S
O298 C305 1.266 . S
H299 C301 0.959 . S
H300 C301 0.961 . S
C301 C291 1.510 . S
C301 H299 0.959 . S
C301 H300 0.961 . S
C301 H302 0.960 . S
H302 C301 0.960 . S
H303 N283 0.862 . S
O304 Co272 1.920 . S
O304 C277 1.289 . S
C305 O297 1.258 . S
C305 O298 1.266 . S
Co306 O309 1.970 . S
Co306 N323 1.989 . S
Co306 O331 1.967 . S
Co306 O338 1.920 . S
Co307 O310 1.966 . S
Co307 N316 2.022 . S
Co307 N324 1.993 . S
Co307 O332 1.941 . S
C308 O309 1.258 . S
C308 O310 1.263 . S
O309 Co306 1.970 . S
O309 C308 1.258 . S
O310 Co307 1.966 . S
O310 C308 1.263 . S
C311 O312 1.235 . S
C311 O338 1.289 . S
O312 C311 1.235 . S
C313 C315 1.400 1_655 S
C313 N316 1.351 . S
C313 C318 1.501 1_655 S
C314 C315 1.387 1_655 S
C314 N317 1.341 . S
C315 C313 1.400 1_455 S
C315 C314 1.387 1_455 S
N316 Co307 2.022 . S
N316 C313 1.351 . S
N316 N317 1.365 . S
N317 C314 1.341 . S
N317 N316 1.365 . S
N317 H337 0.862 . S
C318 C313 1.501 1_455 S
C318 H319 0.961 1_455 S
C318 H320 0.961 . S
C318 H321 0.960 . S
H319 C318 0.961 1_655 S
H320 C318 0.961 . S
H321 C318 0.960 . S
C322 N323 1.342 . S
C322 C326 1.401 . S
C322 C327 1.499 . S
N323 Co306 1.989 . S
N323 C322 1.342 . S
N323 N324 1.388 . S
N324 Co307 1.993 . S
N324 N323 1.388 . S
N324 C325 1.346 . S
C325 N324 1.346 . S
C325 C326 1.396 . S
C325 C335 1.510 . S
C326 C322 1.401 . S
C326 C325 1.396 . S
C327 C322 1.499 . S
C327 H328 0.959 . S
C327 H329 0.960 . S
C327 H330 0.961 . S
H328 C327 0.959 . S
H329 C327 0.960 . S
H330 C327 0.961 . S
O331 Co306 1.967 . S
O331 C339 1.258 . S
O332 Co307 1.941 . S
O332 C339 1.266 . S
H333 C335 0.959 . S
H334 C335 0.961 . S
C335 C325 1.510 . S
C335 H333 0.959 . S
C335 H334 0.961 . S
C335 H336 0.960 . S
H336 C335 0.960 . S
H337 N317 0.862 . S
O338 Co306 1.920 . S
O338 C311 1.289 . S
C339 O331 1.258 . S
C339 O332 1.266 . S
Co340 O343 1.970 . S
Co340 N357 1.989 . S
Co340 O365 1.967 . S
Co340 O372 1.920 . S
Co341 O344 1.966 . S
Co341 N350 2.022 . S
Co341 N358 1.993 . S
Co341 O366 1.941 . S
C342 O343 1.258 . S
C342 O344 1.263 . S
O343 Co340 1.970 . S
O343 C342 1.258 . S
O344 Co341 1.966 . S
O344 C342 1.263 . S
C345 O346 1.235 . S
C345 O372 1.289 . S
O346 C345 1.235 . S
C347 C349 1.400 1_565 S
C347 N350 1.351 . S
C347 C352 1.501 1_565 S
C348 C349 1.387 1_565 S
C348 N351 1.341 . S
C349 C347 1.400 1_545 S
C349 C348 1.387 1_545 S
N350 Co341 2.022 . S
N350 C347 1.351 . S
N350 N351 1.365 . S
N351 C348 1.341 . S
N351 N350 1.365 . S
N351 H371 0.862 . S
C352 C347 1.501 1_545 S
C352 H353 0.961 1_545 S
C352 H354 0.961 . S
C352 H355 0.960 . S
H353 C352 0.961 1_565 S
H354 C352 0.961 . S
H355 C352 0.960 . S
C356 N357 1.342 . S
C356 C360 1.401 . S
C356 C361 1.499 . S
N357 Co340 1.989 . S
N357 C356 1.342 . S
N357 N358 1.388 . S
N358 Co341 1.993 . S
N358 N357 1.388 . S
N358 C359 1.346 . S
C359 N358 1.346 . S
C359 C360 1.396 . S
C359 C369 1.510 . S
C360 C356 1.401 . S
C360 C359 1.396 . S
C361 C356 1.499 . S
C361 H362 0.959 . S
C361 H363 0.960 . S
C361 H364 0.961 . S
H362 C361 0.959 . S
H363 C361 0.960 . S
H364 C361 0.961 . S
O365 Co340 1.967 . S
O365 C373 1.258 . S
O366 Co341 1.941 . S
O366 C373 1.266 . S
H367 C369 0.959 . S
H368 C369 0.961 . S
C369 C359 1.510 . S
C369 H367 0.959 . S
C369 H368 0.961 . S
C369 H370 0.960 . S
H370 C369 0.960 . S
H371 N351 0.862 . S
O372 Co340 1.920 . S
O372 C345 1.289 . S
C373 O365 1.258 . S
C373 O366 1.266 . S
Co374 O377 1.970 . S
Co374 N391 1.989 . S
Co374 O399 1.967 . S
Co374 O406 1.920 . S
Co375 O378 1.966 . S
Co375 N384 2.022 . S
Co375 N392 1.993 . S
Co375 O400 1.941 . S
C376 O377 1.258 . S
C376 O378 1.263 . S
O377 Co374 1.970 . S
O377 C376 1.258 . S
O378 Co375 1.966 . S
O378 C376 1.263 . S
C379 O380 1.235 . S
C379 O406 1.289 . S
O380 C379 1.235 . S
C381 C383 1.400 1_455 S
C381 N384 1.351 . S
C381 C386 1.501 1_455 S
C382 C383 1.387 1_455 S
C382 N385 1.341 . S
C383 C381 1.400 1_655 S
C383 C382 1.387 1_655 S
N384 Co375 2.022 . S
N384 C381 1.351 . S
N384 N385 1.365 . S
N385 C382 1.341 . S
N385 N384 1.365 . S
N385 H405 0.862 . S
C386 C381 1.501 1_655 S
C386 H387 0.961 1_655 S
C386 H388 0.961 . S
C386 H389 0.960 . S
H387 C386 0.961 1_455 S
H388 C386 0.961 . S
H389 C386 0.960 . S
C390 N391 1.342 . S
C390 C394 1.401 . S
C390 C395 1.499 . S
N391 Co374 1.989 . S
N391 C390 1.342 . S
N391 N392 1.388 . S
N392 Co375 1.993 . S
N392 N391 1.388 . S
N392 C393 1.346 . S
C393 N392 1.346 . S
C393 C394 1.396 . S
C393 C403 1.510 . S
C394 C390 1.401 . S
C394 C393 1.396 . S
C395 C390 1.499 . S
C395 H396 0.959 . S
C395 H397 0.960 . S
C395 H398 0.961 . S
H396 C395 0.959 . S
H397 C395 0.960 . S
H398 C395 0.961 . S
O399 Co374 1.967 . S
O399 C407 1.258 . S
O400 Co375 1.941 . S
O400 C407 1.266 . S
H401 C403 0.959 . S
H402 C403 0.961 . S
C403 C393 1.510 . S
C403 H401 0.959 . S
C403 H402 0.961 . S
C403 H404 0.960 . S
H404 C403 0.960 . S
H405 N385 0.862 . S
O406 Co374 1.920 . S
O406 C379 1.289 . S
C407 O399 1.258 . S
C407 O400 1.266 . S
Co408 O411 1.970 . S
Co408 N425 1.989 . S
Co408 O433 1.967 . S
Co408 O440 1.920 . S
Co409 O412 1.966 . S
Co409 N418 2.022 . S
Co409 N426 1.993 . S
Co409 O434 1.941 . S
C410 O411 1.258 . S
C410 O412 1.263 . S
O411 Co408 1.970 . S
O411 C410 1.258 . S
O412 Co409 1.966 . S
O412 C410 1.263 . S
C413 O414 1.235 . S
C413 O440 1.289 . S
O414 C413 1.235 . S
C415 C417 1.400 1_565 S
C415 N418 1.351 . S
C415 C420 1.501 1_565 S
C416 C417 1.387 1_565 S
C416 N419 1.341 . S
C417 C415 1.400 1_545 S
C417 C416 1.387 1_545 S
N418 Co409 2.022 . S
N418 C415 1.351 . S
N418 N419 1.365 . S
N419 C416 1.341 . S
N419 N418 1.365 . S
N419 H439 0.862 . S
C420 C415 1.501 1_545 S
C420 H421 0.961 1_545 S
C420 H422 0.961 . S
C420 H423 0.960 . S
H421 C420 0.961 1_565 S
H422 C420 0.961 . S
H423 C420 0.960 . S
C424 N425 1.342 . S
C424 C428 1.401 . S
C424 C429 1.499 . S
N425 Co408 1.989 . S
N425 C424 1.342 . S
N425 N426 1.388 . S
N426 Co409 1.993 . S
N426 N425 1.388 . S
N426 C427 1.346 . S
C427 N426 1.346 . S
C427 C428 1.396 . S
C427 C437 1.510 . S
C428 C424 1.401 . S
C428 C427 1.396 . S
C429 C424 1.499 . S
C429 H430 0.959 . S
C429 H431 0.960 . S
C429 H432 0.961 . S
H430 C429 0.959 . S
H431 C429 0.960 . S
H432 C429 0.961 . S
O433 Co408 1.967 . S
O433 C441 1.258 . S
O434 Co409 1.941 . S
O434 C441 1.266 . S
H435 C437 0.959 . S
H436 C437 0.961 . S
C437 C427 1.510 . S
C437 H435 0.959 . S
C437 H436 0.961 . S
C437 H438 0.960 . S
H438 C437 0.960 . S
H439 N419 0.862 . S
O440 Co408 1.920 . S
O440 C413 1.289 . S
C441 O433 1.258 . S
C441 O434 1.266 . S
Co442 O445 1.970 . S
Co442 N459 1.989 . S
Co442 O467 1.967 . S
Co442 O474 1.920 . S
Co443 O446 1.966 . S
Co443 N452 2.022 . S
Co443 N460 1.993 . S
Co443 O468 1.941 . S
C444 O445 1.258 . S
C444 O446 1.263 . S
O445 Co442 1.970 . S
O445 C444 1.258 . S
O446 Co443 1.966 . S
O446 C444 1.263 . S
C447 O448 1.235 . S
C447 O474 1.289 . S
O448 C447 1.235 . S
C449 C451 1.400 1_455 S
C449 N452 1.351 . S
C449 C454 1.501 1_455 S
C450 C451 1.387 1_455 S
C450 N453 1.341 . S
C451 C449 1.400 1_655 S
C451 C450 1.387 1_655 S
N452 Co443 2.022 . S
N452 C449 1.351 . S
N452 N453 1.365 . S
N453 C450 1.341 . S
N453 N452 1.365 . S
N453 H473 0.862 . S
C454 C449 1.501 1_655 S
C454 H455 0.961 1_655 S
C454 H456 0.961 . S
C454 H457 0.960 . S
H455 C454 0.961 1_455 S
H456 C454 0.961 . S
H457 C454 0.960 . S
C458 N459 1.342 . S
C458 C462 1.401 . S
C458 C463 1.499 . S
N459 Co442 1.989 . S
N459 C458 1.342 . S
N459 N460 1.388 . S
N460 Co443 1.993 . S
N460 N459 1.388 . S
N460 C461 1.346 . S
C461 N460 1.346 . S
C461 C462 1.396 . S
C461 C471 1.510 . S
C462 C458 1.401 . S
C462 C461 1.396 . S
C463 C458 1.499 . S
C463 H464 0.959 . S
C463 H465 0.960 . S
C463 H466 0.961 . S
H464 C463 0.959 . S
H465 C463 0.960 . S
H466 C463 0.961 . S
O467 Co442 1.967 . S
O467 C475 1.258 . S
O468 Co443 1.941 . S
O468 C475 1.266 . S
H469 C471 0.959 . S
H470 C471 0.961 . S
C471 C461 1.510 . S
C471 H469 0.959 . S
C471 H470 0.961 . S
C471 H472 0.960 . S
H472 C471 0.960 . S
H473 N453 0.862 . S
O474 Co442 1.920 . S
O474 C447 1.289 . S
C475 O467 1.258 . S
C475 O468 1.266 . S
Co476 O479 1.970 . S
Co476 N493 1.989 . S
Co476 O501 1.967 . S
Co476 O508 1.920 . S
Co477 O480 1.966 . S
Co477 N486 2.022 . S
Co477 N494 1.993 . S
Co477 O502 1.941 . S
C478 O479 1.258 . S
C478 O480 1.263 . S
O479 Co476 1.970 . S
O479 C478 1.258 . S
O480 Co477 1.966 . S
O480 C478 1.263 . S
C481 O482 1.235 . S
C481 O508 1.289 . S
O482 C481 1.235 . S
C483 C485 1.400 1_545 S
C483 N486 1.351 . S
C483 C488 1.501 1_545 S
C484 C485 1.387 1_545 S
C484 N487 1.341 . S
C485 C483 1.400 1_565 S
C485 C484 1.387 1_565 S
N486 Co477 2.022 . S
N486 C483 1.351 . S
N486 N487 1.365 . S
N487 C484 1.341 . S
N487 N486 1.365 . S
N487 H507 0.862 . S
C488 C483 1.501 1_565 S
C488 H489 0.961 1_565 S
C488 H490 0.961 . S
C488 H491 0.960 . S
H489 C488 0.961 1_545 S
H490 C488 0.961 . S
H491 C488 0.960 . S
C492 N493 1.342 . S
C492 C496 1.401 . S
C492 C497 1.499 . S
N493 Co476 1.989 . S
N493 C492 1.342 . S
N493 N494 1.388 . S
N494 Co477 1.993 . S
N494 N493 1.388 . S
N494 C495 1.346 . S
C495 N494 1.346 . S
C495 C496 1.396 . S
C495 C505 1.510 . S
C496 C492 1.401 . S
C496 C495 1.396 . S
C497 C492 1.499 . S
C497 H498 0.959 . S
C497 H499 0.960 . S
C497 H500 0.961 . S
H498 C497 0.959 . S
H499 C497 0.960 . S
H500 C497 0.961 . S
O501 Co476 1.967 . S
O501 C509 1.258 . S
O502 Co477 1.941 . S
O502 C509 1.266 . S
H503 C505 0.959 . S
H504 C505 0.961 . S
C505 C495 1.510 . S
C505 H503 0.959 . S
C505 H504 0.961 . S
C505 H506 0.960 . S
H506 C505 0.960 . S
H507 N487 0.862 . S
O508 Co476 1.920 . S
O508 C481 1.289 . S
C509 O501 1.258 . S
C509 O502 1.266 . S
Co510 O513 1.970 . S
Co510 N527 1.989 . S
Co510 O535 1.967 . S
Co510 O542 1.920 . S
Co511 O514 1.966 . S
Co511 N520 2.022 . S
Co511 N528 1.993 . S
Co511 O536 1.941 . S
C512 O513 1.258 . S
C512 O514 1.263 . S
O513 Co510 1.970 . S
O513 C512 1.258 . S
O514 Co511 1.966 . S
O514 C512 1.263 . S
C515 O516 1.235 . S
C515 O542 1.289 . S
O516 C515 1.235 . S
C517 C519 1.400 1_655 S
C517 N520 1.351 . S
C517 C522 1.501 1_655 S
C518 C519 1.387 1_655 S
C518 N521 1.341 . S
C519 C517 1.400 1_455 S
C519 C518 1.387 1_455 S
N520 Co511 2.022 . S
N520 C517 1.351 . S
N520 N521 1.365 . S
N521 C518 1.341 . S
N521 N520 1.365 . S
N521 H541 0.862 . S
C522 C517 1.501 1_455 S
C522 H523 0.961 1_455 S
C522 H524 0.961 . S
C522 H525 0.960 . S
H523 C522 0.961 1_655 S
H524 C522 0.961 . S
H525 C522 0.960 . S
C526 N527 1.342 . S
C526 C530 1.401 . S
C526 C531 1.499 . S
N527 Co510 1.989 . S
N527 C526 1.342 . S
N527 N528 1.388 . S
N528 Co511 1.993 . S
N528 N527 1.388 . S
N528 C529 1.346 . S
C529 N528 1.346 . S
C529 C530 1.396 . S
C529 C539 1.510 . S
C530 C526 1.401 . S
C530 C529 1.396 . S
C531 C526 1.499 . S
C531 H532 0.959 . S
C531 H533 0.960 . S
C531 H534 0.961 . S
H532 C531 0.959 . S
H533 C531 0.960 . S
H534 C531 0.961 . S
O535 Co510 1.967 . S
O535 C543 1.258 . S
O536 Co511 1.941 . S
O536 C543 1.266 . S
H537 C539 0.959 . S
H538 C539 0.961 . S
C539 C529 1.510 . S
C539 H537 0.959 . S
C539 H538 0.961 . S
C539 H540 0.960 . S
H540 C539 0.960 . S
H541 N521 0.862 . S
O542 Co510 1.920 . S
O542 C515 1.289 . S
C543 O535 1.258 . S
C543 O536 1.266 . S
Co544 O547 1.970 . S
Co544 N561 1.989 . S
Co544 O569 1.967 . S
Co544 O576 1.920 . S
Co545 O548 1.966 . S
Co545 N554 2.022 . S
Co545 N562 1.993 . S
Co545 O570 1.941 . S
C546 O547 1.258 . S
C546 O548 1.263 . S
O547 Co544 1.970 . S
O547 C546 1.258 . S
O548 Co545 1.966 . S
O548 C546 1.263 . S
C549 O550 1.235 . S
C549 O576 1.289 . S
O550 C549 1.235 . S
C551 C553 1.400 1_554 S
C551 N554 1.351 . S
C551 C556 1.501 1_554 S
C552 C553 1.387 1_554 S
C552 N555 1.341 . S
C553 C551 1.400 1_556 S
C553 C552 1.387 1_556 S
N554 Co545 2.022 . S
N554 C551 1.351 . S
N554 N555 1.365 . S
N555 C552 1.341 . S
N555 N554 1.365 . S
N555 H575 0.862 . S
C556 C551 1.501 1_556 S
C556 H557 0.961 1_556 S
C556 H558 0.961 . S
C556 H559 0.960 . S
H557 C556 0.961 1_554 S
H558 C556 0.961 . S
H559 C556 0.960 . S
C560 N561 1.342 . S
C560 C564 1.401 . S
C560 C565 1.499 . S
N561 Co544 1.989 . S
N561 C560 1.342 . S
N561 N562 1.388 . S
N562 Co545 1.993 . S
N562 N561 1.388 . S
N562 C563 1.346 . S
C563 N562 1.346 . S
C563 C564 1.396 . S
C563 C573 1.510 . S
C564 C560 1.401 . S
C564 C563 1.396 . S
C565 C560 1.499 . S
C565 H566 0.959 . S
C565 H567 0.960 . S
C565 H568 0.961 . S
H566 C565 0.959 . S
H567 C565 0.960 . S
H568 C565 0.961 . S
O569 Co544 1.967 . S
O569 C577 1.258 . S
O570 Co545 1.941 . S
O570 C577 1.266 . S
H571 C573 0.959 . S
H572 C573 0.961 . S
C573 C563 1.510 . S
C573 H571 0.959 . S
C573 H572 0.961 . S
C573 H574 0.960 . S
H574 C573 0.960 . S
H575 N555 0.862 . S
O576 Co544 1.920 . S
O576 C549 1.289 . S
C577 O569 1.258 . S
C577 O570 1.266 . S
Co578 O581 1.970 . S
Co578 N595 1.989 . S
Co578 O603 1.967 . S
Co578 O610 1.920 . S
Co579 O582 1.966 . S
Co579 N588 2.022 . S
Co579 N596 1.993 . S
Co579 O604 1.941 . S
C580 O581 1.258 . S
C580 O582 1.263 . S
O581 Co578 1.970 . S
O581 C580 1.258 . S
O582 Co579 1.966 . S
O582 C580 1.263 . S
C583 O584 1.235 . S
C583 O610 1.289 . S
O584 C583 1.235 . S
C585 C587 1.400 1_556 S
C585 N588 1.351 . S
C585 C590 1.501 1_556 S
C586 C587 1.387 1_556 S
C586 N589 1.341 . S
C587 C585 1.400 1_554 S
C587 C586 1.387 1_554 S
N588 Co579 2.022 . S
N588 C585 1.351 . S
N588 N589 1.365 . S
N589 C586 1.341 . S
N589 N588 1.365 . S
N589 H609 0.862 . S
C590 C585 1.501 1_554 S
C590 H591 0.961 1_554 S
C590 H592 0.961 . S
C590 H593 0.960 . S
H591 C590 0.961 1_556 S
H592 C590 0.961 . S
H593 C590 0.960 . S
C594 N595 1.342 . S
C594 C598 1.401 . S
C594 C599 1.499 . S
N595 Co578 1.989 . S
N595 C594 1.342 . S
N595 N596 1.388 . S
N596 Co579 1.993 . S
N596 N595 1.388 . S
N596 C597 1.346 . S
C597 N596 1.346 . S
C597 C598 1.396 . S
C597 C607 1.510 . S
C598 C594 1.401 . S
C598 C597 1.396 . S
C599 C594 1.499 . S
C599 H600 0.959 . S
C599 H601 0.960 . S
C599 H602 0.961 . S
H600 C599 0.959 . S
H601 C599 0.960 . S
H602 C599 0.961 . S
O603 Co578 1.967 . S
O603 C611 1.258 . S
O604 Co579 1.941 . S
O604 C611 1.266 . S
H605 C607 0.959 . S
H606 C607 0.961 . S
C607 C597 1.510 . S
C607 H605 0.959 . S
C607 H606 0.961 . S
C607 H608 0.960 . S
H608 C607 0.960 . S
H609 N589 0.862 . S
O610 Co578 1.920 . S
O610 C583 1.289 . S
C611 O603 1.258 . S
C611 O604 1.266 . S
Co612 O615 1.970 . S
Co612 N629 1.989 . S
Co612 O637 1.967 . S
Co612 O644 1.920 . S
Co613 O616 1.966 . S
Co613 N622 2.022 . S
Co613 N630 1.993 . S
Co613 O638 1.941 . S
C614 O615 1.258 . S
C614 O616 1.263 . S
O615 Co612 1.970 . S
O615 C614 1.258 . S
O616 Co613 1.966 . S
O616 C614 1.263 . S
C617 O618 1.235 . S
C617 O644 1.289 . S
O618 C617 1.235 . S
C619 C621 1.400 1_556 S
C619 N622 1.351 . S
C619 C624 1.501 1_556 S
C620 C621 1.387 1_556 S
C620 N623 1.341 . S
C621 C619 1.400 1_554 S
C621 C620 1.387 1_554 S
N622 Co613 2.022 . S
N622 C619 1.351 . S
N622 N623 1.365 . S
N623 C620 1.341 . S
N623 N622 1.365 . S
N623 H643 0.862 . S
C624 C619 1.501 1_554 S
C624 H625 0.961 1_554 S
C624 H626 0.961 . S
C624 H627 0.960 . S
H625 C624 0.961 1_556 S
H626 C624 0.961 . S
H627 C624 0.960 . S
C628 N629 1.342 . S
C628 C632 1.401 . S
C628 C633 1.499 . S
N629 Co612 1.989 . S
N629 C628 1.342 . S
N629 N630 1.388 . S
N630 Co613 1.993 . S
N630 N629 1.388 . S
N630 C631 1.346 . S
C631 N630 1.346 . S
C631 C632 1.396 . S
C631 C641 1.510 . S
C632 C628 1.401 . S
C632 C631 1.396 . S
C633 C628 1.499 . S
C633 H634 0.959 . S
C633 H635 0.960 . S
C633 H636 0.961 . S
H634 C633 0.959 . S
H635 C633 0.960 . S
H636 C633 0.961 . S
O637 Co612 1.967 . S
O637 C645 1.258 . S
O638 Co613 1.941 . S
O638 C645 1.266 . S
H639 C641 0.959 . S
H640 C641 0.961 . S
C641 C631 1.510 . S
C641 H639 0.959 . S
C641 H640 0.961 . S
C641 H642 0.960 . S
H642 C641 0.960 . S
H643 N623 0.862 . S
O644 Co612 1.920 . S
O644 C617 1.289 . S
C645 O637 1.258 . S
C645 O638 1.266 . S
Co646 O649 1.970 . S
Co646 N663 1.989 . S
Co646 O671 1.967 . S
Co646 O678 1.920 . S
Co647 O650 1.966 . S
Co647 N656 2.022 . S
Co647 N664 1.993 . S
Co647 O672 1.941 . S
C648 O649 1.258 . S
C648 O650 1.263 . S
O649 Co646 1.970 . S
O649 C648 1.258 . S
O650 Co647 1.966 . S
O650 C648 1.263 . S
C651 O652 1.235 . S
C651 O678 1.289 . S
O652 C651 1.235 . S
C653 C655 1.400 1_556 S
C653 N656 1.351 . S
C653 C658 1.501 1_556 S
C654 C655 1.387 1_556 S
C654 N657 1.341 . S
C655 C653 1.400 1_554 S
C655 C654 1.387 1_554 S
N656 Co647 2.022 . S
N656 C653 1.351 . S
N656 N657 1.365 . S
N657 C654 1.341 . S
N657 N656 1.365 . S
N657 H677 0.862 . S
C658 C653 1.501 1_554 S
C658 H659 0.961 1_554 S
C658 H660 0.961 . S
C658 H661 0.960 . S
H659 C658 0.961 1_556 S
H660 C658 0.961 . S
H661 C658 0.960 . S
C662 N663 1.342 . S
C662 C666 1.401 . S
C662 C667 1.499 . S
N663 Co646 1.989 . S
N663 C662 1.342 . S
N663 N664 1.388 . S
N664 Co647 1.993 . S
N664 N663 1.388 . S
N664 C665 1.346 . S
C665 N664 1.346 . S
C665 C666 1.396 . S
C665 C675 1.510 . S
C666 C662 1.401 . S
C666 C665 1.396 . S
C667 C662 1.499 . S
C667 H668 0.959 . S
C667 H669 0.960 . S
C667 H670 0.961 . S
H668 C667 0.959 . S
H669 C667 0.960 . S
H670 C667 0.961 . S
O671 Co646 1.967 . S
O671 C679 1.258 . S
O672 Co647 1.941 . S
O672 C679 1.266 . S
H673 C675 0.959 . S
H674 C675 0.961 . S
C675 C665 1.510 . S
C675 H673 0.959 . S
C675 H674 0.961 . S
C675 H676 0.960 . S
H676 C675 0.960 . S
H677 N657 0.862 . S
O678 Co646 1.920 . S
O678 C651 1.289 . S
C679 O671 1.258 . S
C679 O672 1.266 . S
Co680 O683 1.970 . S
Co680 N697 1.989 . S
Co680 O705 1.967 . S
Co680 O712 1.920 . S
Co681 O684 1.966 . S
Co681 N690 2.022 . S
Co681 N698 1.993 . S
Co681 O706 1.941 . S
C682 O683 1.258 . S
C682 O684 1.263 . S
O683 Co680 1.970 . S
O683 C682 1.258 . S
O684 Co681 1.966 . S
O684 C682 1.263 . S
C685 O686 1.235 . S
C685 O712 1.289 . S
O686 C685 1.235 . S
C687 C689 1.400 1_556 S
C687 N690 1.351 . S
C687 C692 1.501 1_556 S
C688 C689 1.387 1_556 S
C688 N691 1.341 . S
C689 C687 1.400 1_554 S
C689 C688 1.387 1_554 S
N690 Co681 2.022 . S
N690 C687 1.351 . S
N690 N691 1.365 . S
N691 C688 1.341 . S
N691 N690 1.365 . S
N691 H711 0.862 . S
C692 C687 1.501 1_554 S
C692 H693 0.961 1_554 S
C692 H694 0.961 . S
C692 H695 0.960 . S
H693 C692 0.961 1_556 S
H694 C692 0.961 . S
H695 C692 0.960 . S
C696 N697 1.342 . S
C696 C700 1.401 . S
C696 C701 1.499 . S
N697 Co680 1.989 . S
N697 C696 1.342 . S
N697 N698 1.388 . S
N698 Co681 1.993 . S
N698 N697 1.388 . S
N698 C699 1.346 . S
C699 N698 1.346 . S
C699 C700 1.396 . S
C699 C709 1.510 . S
C700 C696 1.401 . S
C700 C699 1.396 . S
C701 C696 1.499 . S
C701 H702 0.959 . S
C701 H703 0.960 . S
C701 H704 0.961 . S
H702 C701 0.959 . S
H703 C701 0.960 . S
H704 C701 0.961 . S
O705 Co680 1.967 . S
O705 C713 1.258 . S
O706 Co681 1.941 . S
O706 C713 1.266 . S
H707 C709 0.959 . S
H708 C709 0.961 . S
C709 C699 1.510 . S
C709 H707 0.959 . S
C709 H708 0.961 . S
C709 H710 0.960 . S
H710 C709 0.960 . S
H711 N691 0.862 . S
O712 Co680 1.920 . S
O712 C685 1.289 . S
C713 O705 1.258 . S
C713 O706 1.266 . S
Co714 O717 1.970 . S
Co714 N731 1.989 . S
Co714 O739 1.967 . S
Co714 O746 1.920 . S
Co715 O718 1.966 . S
Co715 N724 2.022 . S
Co715 N732 1.993 . S
Co715 O740 1.941 . S
C716 O717 1.258 . S
C716 O718 1.263 . S
O717 Co714 1.970 . S
O717 C716 1.258 . S
O718 Co715 1.966 . S
O718 C716 1.263 . S
C719 O720 1.235 . S
C719 O746 1.289 . S
O720 C719 1.235 . S
C721 C723 1.400 1_554 S
C721 N724 1.351 . S
C721 C726 1.501 1_554 S
C722 C723 1.387 1_554 S
C722 N725 1.341 . S
C723 C721 1.400 1_556 S
C723 C722 1.387 1_556 S
N724 Co715 2.022 . S
N724 C721 1.351 . S
N724 N725 1.365 . S
N725 C722 1.341 . S
N725 N724 1.365 . S
N725 H745 0.862 . S
C726 C721 1.501 1_556 S
C726 H727 0.961 1_556 S
C726 H728 0.961 . S
C726 H729 0.960 . S
H727 C726 0.961 1_554 S
H728 C726 0.961 . S
H729 C726 0.960 . S
C730 N731 1.342 . S
C730 C734 1.401 . S
C730 C735 1.499 . S
N731 Co714 1.989 . S
N731 C730 1.342 . S
N731 N732 1.388 . S
N732 Co715 1.993 . S
N732 N731 1.388 . S
N732 C733 1.346 . S
C733 N732 1.346 . S
C733 C734 1.396 . S
C733 C743 1.510 . S
C734 C730 1.401 . S
C734 C733 1.396 . S
C735 C730 1.499 . S
C735 H736 0.959 . S
C735 H737 0.960 . S
C735 H738 0.961 . S
H736 C735 0.959 . S
H737 C735 0.960 . S
H738 C735 0.961 . S
O739 Co714 1.967 . S
O739 C747 1.258 . S
O740 Co715 1.941 . S
O740 C747 1.266 . S
H741 C743 0.959 . S
H742 C743 0.961 . S
C743 C733 1.510 . S
C743 H741 0.959 . S
C743 H742 0.961 . S
C743 H744 0.960 . S
H744 C743 0.960 . S
H745 N725 0.862 . S
O746 Co714 1.920 . S
O746 C719 1.289 . S
C747 O739 1.258 . S
C747 O740 1.266 . S
Co748 O751 1.970 . S
Co748 N765 1.989 . S
Co748 O773 1.967 . S
Co748 O780 1.920 . S
Co749 O752 1.966 . S
Co749 N758 2.022 . S
Co749 N766 1.993 . S
Co749 O774 1.941 . S
C750 O751 1.258 . S
C750 O752 1.263 . S
O751 Co748 1.970 . S
O751 C750 1.258 . S
O752 Co749 1.966 . S
O752 C750 1.263 . S
C753 O754 1.235 . S
C753 O780 1.289 . S
O754 C753 1.235 . S
C755 C757 1.400 1_554 S
C755 N758 1.351 . S
C755 C760 1.501 1_554 S
C756 C757 1.387 1_554 S
C756 N759 1.341 . S
C757 C755 1.400 1_556 S
C757 C756 1.387 1_556 S
N758 Co749 2.022 . S
N758 C755 1.351 . S
N758 N759 1.365 . S
N759 C756 1.341 . S
N759 N758 1.365 . S
N759 H779 0.862 . S
C760 C755 1.501 1_556 S
C760 H761 0.961 1_556 S
C760 H762 0.961 . S
C760 H763 0.960 . S
H761 C760 0.961 1_554 S
H762 C760 0.961 . S
H763 C760 0.960 . S
C764 N765 1.342 . S
C764 C768 1.401 . S
C764 C769 1.499 . S
N765 Co748 1.989 . S
N765 C764 1.342 . S
N765 N766 1.388 . S
N766 Co749 1.993 . S
N766 N765 1.388 . S
N766 C767 1.346 . S
C767 N766 1.346 . S
C767 C768 1.396 . S
C767 C777 1.510 . S
C768 C764 1.401 . S
C768 C767 1.396 . S
C769 C764 1.499 . S
C769 H770 0.959 . S
C769 H771 0.960 . S
C769 H772 0.961 . S
H770 C769 0.959 . S
H771 C769 0.960 . S
H772 C769 0.961 . S
O773 Co748 1.967 . S
O773 C781 1.258 . S
O774 Co749 1.941 . S
O774 C781 1.266 . S
H775 C777 0.959 . S
H776 C777 0.961 . S
C777 C767 1.510 . S
C777 H775 0.959 . S
C777 H776 0.961 . S
C777 H778 0.960 . S
H778 C777 0.960 . S
H779 N759 0.862 . S
O780 Co748 1.920 . S
O780 C753 1.289 . S
C781 O773 1.258 . S
C781 O774 1.266 . S
Co782 O785 1.970 . S
Co782 N799 1.989 . S
Co782 O807 1.967 . S
Co782 O814 1.920 . S
Co783 O786 1.966 . S
Co783 N792 2.022 . S
Co783 N800 1.993 . S
Co783 O808 1.941 . S
C784 O785 1.258 . S
C784 O786 1.263 . S
O785 Co782 1.970 . S
O785 C784 1.258 . S
O786 Co783 1.966 . S
O786 C784 1.263 . S
C787 O788 1.235 . S
C787 O814 1.289 . S
O788 C787 1.235 . S
C789 C791 1.400 1_554 S
C789 N792 1.351 . S
C789 C794 1.501 1_554 S
C790 C791 1.387 1_554 S
C790 N793 1.341 . S
C791 C789 1.400 1_556 S
C791 C790 1.387 1_556 S
N792 Co783 2.022 . S
N792 C789 1.351 . S
N792 N793 1.365 . S
N793 C790 1.341 . S
N793 N792 1.365 . S
N793 H813 0.862 . S
C794 C789 1.501 1_556 S
C794 H795 0.961 1_556 S
C794 H796 0.961 . S
C794 H797 0.960 . S
H795 C794 0.961 1_554 S
H796 C794 0.961 . S
H797 C794 0.960 . S
C798 N799 1.342 . S
C798 C802 1.401 . S
C798 C803 1.499 . S
N799 Co782 1.989 . S
N799 C798 1.342 . S
N799 N800 1.388 . S
N800 Co783 1.993 . S
N800 N799 1.388 . S
N800 C801 1.346 . S
C801 N800 1.346 . S
C801 C802 1.396 . S
C801 C811 1.510 . S
C802 C798 1.401 . S
C802 C801 1.396 . S
C803 C798 1.499 . S
C803 H804 0.959 . S
C803 H805 0.960 . S
C803 H806 0.961 . S
H804 C803 0.959 . S
H805 C803 0.960 . S
H806 C803 0.961 . S
O807 Co782 1.967 . S
O807 C815 1.258 . S
O808 Co783 1.941 . S
O808 C815 1.266 . S
H809 C811 0.959 . S
H810 C811 0.961 . S
C811 C801 1.510 . S
C811 H809 0.959 . S
C811 H810 0.961 . S
C811 H812 0.960 . S
H812 C811 0.960 . S
H813 N793 0.862 . S
O814 Co782 1.920 . S
O814 C787 1.289 . S
C815 O807 1.258 . S
C815 O808 1.266 . S
Co816 O819 1.970 . S
Co816 N833 1.989 . S
Co816 O841 1.967 . S
Co816 O848 1.920 . S
Co817 O820 1.966 . S
Co817 N826 2.022 . S
Co817 N834 1.993 . S
Co817 O842 1.941 . S
C818 O819 1.258 . S
C818 O820 1.263 . S
O819 Co816 1.970 . S
O819 C818 1.258 . S
O820 Co817 1.966 . S
O820 C818 1.263 . S
C821 O822 1.235 . S
C821 O848 1.289 . S
O822 C821 1.235 . S
C823 C825 1.400 . S
C823 N826 1.351 . S
C823 C828 1.501 . S
C824 C825 1.387 . S
C824 N827 1.341 . S
C825 C823 1.400 . S
C825 C824 1.387 . S
N826 Co817 2.022 . S
N826 C823 1.351 . S
N826 N827 1.365 . S
N827 C824 1.341 . S
N827 N826 1.365 . S
N827 H847 0.862 . S
C828 C823 1.501 . S
C828 H829 0.961 . S
C828 H830 0.961 . S
C828 H831 0.960 . S
H829 C828 0.961 . S
H830 C828 0.961 . S
H831 C828 0.960 . S
C832 N833 1.342 . S
C832 C836 1.401 . S
C832 C837 1.499 . S
N833 Co816 1.989 . S
N833 C832 1.342 . S
N833 N834 1.388 . S
N834 Co817 1.993 . S
N834 N833 1.388 . S
N834 C835 1.346 . S
C835 N834 1.346 . S
C835 C836 1.396 . S
C835 C845 1.510 . S
C836 C832 1.401 . S
C836 C835 1.396 . S
C837 C832 1.499 . S
C837 H838 0.959 . S
C837 H839 0.960 . S
C837 H840 0.961 . S
H838 C837 0.959 . S
H839 C837 0.960 . S
H840 C837 0.961 . S
O841 Co816 1.967 . S
O841 C849 1.258 . S
O842 Co817 1.941 . S
O842 C849 1.266 . S
H843 C845 0.959 . S
H844 C845 0.961 . S
C845 C835 1.510 . S
C845 H843 0.959 . S
C845 H844 0.961 . S
C845 H846 0.960 . S
H846 C845 0.960 . S
H847 N827 0.862 . S
O848 Co816 1.920 . S
O848 C821 1.289 . S
C849 O841 1.258 . S
C849 O842 1.266 . S
Co850 O853 1.970 . S
Co850 N867 1.989 . S
Co850 O875 1.967 . S
Co850 O882 1.920 . S
Co851 O854 1.966 . S
Co851 N860 2.022 . S
Co851 N868 1.993 . S
Co851 O876 1.941 . S
C852 O853 1.258 . S
C852 O854 1.263 . S
O853 Co850 1.970 . S
O853 C852 1.258 . S
O854 Co851 1.966 . S
O854 C852 1.263 . S
C855 O856 1.235 . S
C855 O882 1.289 . S
O856 C855 1.235 . S
C857 C859 1.400 . S
C857 N860 1.351 . S
C857 C862 1.501 . S
C858 C859 1.387 . S
C858 N861 1.341 . S
C859 C857 1.400 . S
C859 C858 1.387 . S
N860 Co851 2.022 . S
N860 C857 1.351 . S
N860 N861 1.365 . S
N861 C858 1.341 . S
N861 N860 1.365 . S
N861 H881 0.862 . S
C862 C857 1.501 . S
C862 H863 0.961 . S
C862 H864 0.961 . S
C862 H865 0.960 . S
H863 C862 0.961 . S
H864 C862 0.961 . S
H865 C862 0.960 . S
C866 N867 1.342 . S
C866 C870 1.401 . S
C866 C871 1.499 . S
N867 Co850 1.989 . S
N867 C866 1.342 . S
N867 N868 1.388 . S
N868 Co851 1.993 . S
N868 N867 1.388 . S
N868 C869 1.346 . S
C869 N868 1.346 . S
C869 C870 1.396 . S
C869 C879 1.510 . S
C870 C866 1.401 . S
C870 C869 1.396 . S
C871 C866 1.499 . S
C871 H872 0.959 . S
C871 H873 0.960 . S
C871 H874 0.961 . S
H872 C871 0.959 . S
H873 C871 0.960 . S
H874 C871 0.961 . S
O875 Co850 1.967 . S
O875 C883 1.258 . S
O876 Co851 1.941 . S
O876 C883 1.266 . S
H877 C879 0.959 . S
H878 C879 0.961 . S
C879 C869 1.510 . S
C879 H877 0.959 . S
C879 H878 0.961 . S
C879 H880 0.960 . S
H880 C879 0.960 . S
H881 N861 0.862 . S
O882 Co850 1.920 . S
O882 C855 1.289 . S
C883 O875 1.258 . S
C883 O876 1.266 . S
Co884 O887 1.970 . S
Co884 N901 1.989 . S
Co884 O909 1.967 . S
Co884 O916 1.920 . S
Co885 O888 1.966 . S
Co885 N894 2.022 . S
Co885 N902 1.993 . S
Co885 O910 1.941 . S
C886 O887 1.258 . S
C886 O888 1.263 . S
O887 Co884 1.970 . S
O887 C886 1.258 . S
O888 Co885 1.966 . S
O888 C886 1.263 . S
C889 O890 1.235 . S
C889 O916 1.289 . S
O890 C889 1.235 . S
C891 C893 1.400 . S
C891 N894 1.351 . S
C891 C896 1.501 . S
C892 C893 1.387 . S
C892 N895 1.341 . S
C893 C891 1.400 . S
C893 C892 1.387 . S
N894 Co885 2.022 . S
N894 C891 1.351 . S
N894 N895 1.365 . S
N895 C892 1.341 . S
N895 N894 1.365 . S
N895 H915 0.862 . S
C896 C891 1.501 . S
C896 H897 0.961 . S
C896 H898 0.961 . S
C896 H899 0.960 . S
H897 C896 0.961 . S
H898 C896 0.961 . S
H899 C896 0.960 . S
C900 N901 1.342 . S
C900 C904 1.401 . S
C900 C905 1.499 . S
N901 Co884 1.989 . S
N901 C900 1.342 . S
N901 N902 1.388 . S
N902 Co885 1.993 . S
N902 N901 1.388 . S
N902 C903 1.346 . S
C903 N902 1.346 . S
C903 C904 1.396 . S
C903 C913 1.510 . S
C904 C900 1.401 . S
C904 C903 1.396 . S
C905 C900 1.499 . S
C905 H906 0.959 . S
C905 H907 0.960 . S
C905 H908 0.961 . S
H906 C905 0.959 . S
H907 C905 0.960 . S
H908 C905 0.961 . S
O909 Co884 1.967 . S
O909 C917 1.258 . S
O910 Co885 1.941 . S
O910 C917 1.266 . S
H911 C913 0.959 . S
H912 C913 0.961 . S
C913 C903 1.510 . S
C913 H911 0.959 . S
C913 H912 0.961 . S
C913 H914 0.960 . S
H914 C913 0.960 . S
H915 N895 0.862 . S
O916 Co884 1.920 . S
O916 C889 1.289 . S
C917 O909 1.258 . S
C917 O910 1.266 . S
Co918 O921 1.970 . S
Co918 N935 1.989 . S
Co918 O943 1.967 . S
Co918 O950 1.920 . S
Co919 O922 1.966 . S
Co919 N928 2.022 . S
Co919 N936 1.993 . S
Co919 O944 1.941 . S
C920 O921 1.258 . S
C920 O922 1.263 . S
O921 Co918 1.970 . S
O921 C920 1.258 . S
O922 Co919 1.966 . S
O922 C920 1.263 . S
C923 O924 1.235 . S
C923 O950 1.289 . S
O924 C923 1.235 . S
C925 C927 1.400 . S
C925 N928 1.351 . S
C925 C930 1.501 . S
C926 C927 1.387 . S
C926 N929 1.341 . S
C927 C925 1.400 . S
C927 C926 1.387 . S
N928 Co919 2.022 . S
N928 C925 1.351 . S
N928 N929 1.365 . S
N929 C926 1.341 . S
N929 N928 1.365 . S
N929 H949 0.862 . S
C930 C925 1.501 . S
C930 H931 0.961 . S
C930 H932 0.961 . S
C930 H933 0.960 . S
H931 C930 0.961 . S
H932 C930 0.961 . S
H933 C930 0.960 . S
C934 N935 1.342 . S
C934 C938 1.401 . S
C934 C939 1.499 . S
N935 Co918 1.989 . S
N935 C934 1.342 . S
N935 N936 1.388 . S
N936 Co919 1.993 . S
N936 N935 1.388 . S
N936 C937 1.346 . S
C937 N936 1.346 . S
C937 C938 1.396 . S
C937 C947 1.510 . S
C938 C934 1.401 . S
C938 C937 1.396 . S
C939 C934 1.499 . S
C939 H940 0.959 . S
C939 H941 0.960 . S
C939 H942 0.961 . S
H940 C939 0.959 . S
H941 C939 0.960 . S
H942 C939 0.961 . S
O943 Co918 1.967 . S
O943 C951 1.258 . S
O944 Co919 1.941 . S
O944 C951 1.266 . S
H945 C947 0.959 . S
H946 C947 0.961 . S
C947 C937 1.510 . S
C947 H945 0.959 . S
C947 H946 0.961 . S
C947 H948 0.960 . S
H948 C947 0.960 . S
H949 N929 0.862 . S
O950 Co918 1.920 . S
O950 C923 1.289 . S
C951 O943 1.258 . S
C951 O944 1.266 . S
Co952 O955 1.970 . S
Co952 N969 1.989 . S
Co952 O977 1.967 . S
Co952 O984 1.920 . S
Co953 O956 1.966 . S
Co953 N962 2.022 . S
Co953 N970 1.993 . S
Co953 O978 1.941 . S
C954 O955 1.258 . S
C954 O956 1.263 . S
O955 Co952 1.970 . S
O955 C954 1.258 . S
O956 Co953 1.966 . S
O956 C954 1.263 . S
C957 O958 1.235 . S
C957 O984 1.289 . S
O958 C957 1.235 . S
C959 C961 1.400 . S
C959 N962 1.351 . S
C959 C964 1.501 . S
C960 C961 1.387 . S
C960 N963 1.341 . S
C961 C959 1.400 . S
C961 C960 1.387 . S
N962 Co953 2.022 . S
N962 C959 1.351 . S
N962 N963 1.365 . S
N963 C960 1.341 . S
N963 N962 1.365 . S
N963 H983 0.862 . S
C964 C959 1.501 . S
C964 H965 0.961 . S
C964 H966 0.961 . S
C964 H967 0.960 . S
H965 C964 0.961 . S
H966 C964 0.961 . S
H967 C964 0.960 . S
C968 N969 1.342 . S
C968 C972 1.401 . S
C968 C973 1.499 . S
N969 Co952 1.989 . S
N969 C968 1.342 . S
N969 N970 1.388 . S
N970 Co953 1.993 . S
N970 N969 1.388 . S
N970 C971 1.346 . S
C971 N970 1.346 . S
C971 C972 1.396 . S
C971 C981 1.510 . S
C972 C968 1.401 . S
C972 C971 1.396 . S
C973 C968 1.499 . S
C973 H974 0.959 . S
C973 H975 0.960 . S
C973 H976 0.961 . S
H974 C973 0.959 . S
H975 C973 0.960 . S
H976 C973 0.961 . S
O977 Co952 1.967 . S
O977 C985 1.258 . S
O978 Co953 1.941 . S
O978 C985 1.266 . S
H979 C981 0.959 . S
H980 C981 0.961 . S
C981 C971 1.510 . S
C981 H979 0.959 . S
C981 H980 0.961 . S
C981 H982 0.960 . S
H982 C981 0.960 . S
H983 N963 0.862 . S
O984 Co952 1.920 . S
O984 C957 1.289 . S
C985 O977 1.258 . S
C985 O978 1.266 . S
Co986 O989 1.970 . S
Co986 N1003 1.989 . S
Co986 O1011 1.967 . S
Co986 O1018 1.920 . S
Co987 O990 1.966 . S
Co987 N996 2.022 . S
Co987 N1004 1.993 . S
Co987 O1012 1.941 . S
C988 O989 1.258 . S
C988 O990 1.263 . S
O989 Co986 1.970 . S
O989 C988 1.258 . S
O990 Co987 1.966 . S
O990 C988 1.263 . S
C991 O992 1.235 . S
C991 O1018 1.289 . S
O992 C991 1.235 . S
C993 C995 1.400 . S
C993 N996 1.351 . S
C993 C998 1.501 . S
C994 C995 1.387 . S
C994 N997 1.341 . S
C995 C993 1.400 . S
C995 C994 1.387 . S
N996 Co987 2.022 . S
N996 C993 1.351 . S
N996 N997 1.365 . S
N997 C994 1.341 . S
N997 N996 1.365 . S
N997 H1017 0.862 . S
C998 C993 1.501 . S
C998 H999 0.961 . S
C998 H1000 0.961 . S
C998 H1001 0.960 . S
H999 C998 0.961 . S
H1000 C998 0.961 . S
H1001 C998 0.960 . S
C1002 N1003 1.342 . S
C1002 C1006 1.401 . S
C1002 C1007 1.499 . S
N1003 Co986 1.989 . S
N1003 C1002 1.342 . S
N1003 N1004 1.388 . S
N1004 Co987 1.993 . S
N1004 N1003 1.388 . S
N1004 C1005 1.346 . S
C1005 N1004 1.346 . S
C1005 C1006 1.396 . S
C1005 C1015 1.510 . S
C1006 C1002 1.401 . S
C1006 C1005 1.396 . S
C1007 C1002 1.499 . S
C1007 H1008 0.959 . S
C1007 H1009 0.960 . S
C1007 H1010 0.961 . S
H1008 C1007 0.959 . S
H1009 C1007 0.960 . S
H1010 C1007 0.961 . S
O1011 Co986 1.967 . S
O1011 C1019 1.258 . S
O1012 Co987 1.941 . S
O1012 C1019 1.266 . S
H1013 C1015 0.959 . S
H1014 C1015 0.961 . S
C1015 C1005 1.510 . S
C1015 H1013 0.959 . S
C1015 H1014 0.961 . S
C1015 H1016 0.960 . S
H1016 C1015 0.960 . S
H1017 N997 0.862 . S
O1018 Co986 1.920 . S
O1018 C991 1.289 . S
C1019 O1011 1.258 . S
C1019 O1012 1.266 . S
Co1020 O1023 1.970 . S
Co1020 N1037 1.989 . S
Co1020 O1045 1.967 . S
Co1020 O1052 1.920 . S
Co1021 O1024 1.966 . S
Co1021 N1030 2.022 . S
Co1021 N1038 1.993 . S
Co1021 O1046 1.941 . S
C1022 O1023 1.258 . S
C1022 O1024 1.263 . S
O1023 Co1020 1.970 . S
O1023 C1022 1.258 . S
O1024 Co1021 1.966 . S
O1024 C1022 1.263 . S
C1025 O1026 1.235 . S
C1025 O1052 1.289 . S
O1026 C1025 1.235 . S
C1027 C1029 1.400 . S
C1027 N1030 1.351 . S
C1027 C1032 1.501 . S
C1028 C1029 1.387 . S
C1028 N1031 1.341 . S
C1029 C1027 1.400 . S
C1029 C1028 1.387 . S
N1030 Co1021 2.022 . S
N1030 C1027 1.351 . S
N1030 N1031 1.365 . S
N1031 C1028 1.341 . S
N1031 N1030 1.365 . S
N1031 H1051 0.862 . S
C1032 C1027 1.501 . S
C1032 H1033 0.961 . S
C1032 H1034 0.961 . S
C1032 H1035 0.960 . S
H1033 C1032 0.961 . S
H1034 C1032 0.961 . S
H1035 C1032 0.960 . S
C1036 N1037 1.342 . S
C1036 C1040 1.401 . S
C1036 C1041 1.499 . S
N1037 Co1020 1.989 . S
N1037 C1036 1.342 . S
N1037 N1038 1.388 . S
N1038 Co1021 1.993 . S
N1038 N1037 1.388 . S
N1038 C1039 1.346 . S
C1039 N1038 1.346 . S
C1039 C1040 1.396 . S
C1039 C1049 1.510 . S
C1040 C1036 1.401 . S
C1040 C1039 1.396 . S
C1041 C1036 1.499 . S
C1041 H1042 0.959 . S
C1041 H1043 0.960 . S
C1041 H1044 0.961 . S
H1042 C1041 0.959 . S
H1043 C1041 0.960 . S
H1044 C1041 0.961 . S
O1045 Co1020 1.967 . S
O1045 C1053 1.258 . S
O1046 Co1021 1.941 . S
O1046 C1053 1.266 . S
H1047 C1049 0.959 . S
H1048 C1049 0.961 . S
C1049 C1039 1.510 . S
C1049 H1047 0.959 . S
C1049 H1048 0.961 . S
C1049 H1050 0.960 . S
H1050 C1049 0.960 . S
H1051 N1031 0.862 . S
O1052 Co1020 1.920 . S
O1052 C1025 1.289 . S
C1053 O1045 1.258 . S
C1053 O1046 1.266 . S
Co1054 O1057 1.970 . S
Co1054 N1071 1.989 . S
Co1054 O1079 1.967 . S
Co1054 O1086 1.920 . S
Co1055 O1058 1.966 . S
Co1055 N1064 2.022 . S
Co1055 N1072 1.993 . S
Co1055 O1080 1.941 . S
C1056 O1057 1.258 . S
C1056 O1058 1.263 . S
O1057 Co1054 1.970 . S
O1057 C1056 1.258 . S
O1058 Co1055 1.966 . S
O1058 C1056 1.263 . S
C1059 O1060 1.235 . S
C1059 O1086 1.289 . S
O1060 C1059 1.235 . S
C1061 C1063 1.400 . S
C1061 N1064 1.351 . S
C1061 C1066 1.501 . S
C1062 C1063 1.387 . S
C1062 N1065 1.341 . S
C1063 C1061 1.400 . S
C1063 C1062 1.387 . S
N1064 Co1055 2.022 . S
N1064 C1061 1.351 . S
N1064 N1065 1.365 . S
N1065 C1062 1.341 . S
N1065 N1064 1.365 . S
N1065 H1085 0.862 . S
C1066 C1061 1.501 . S
C1066 H1067 0.961 . S
C1066 H1068 0.961 . S
C1066 H1069 0.960 . S
H1067 C1066 0.961 . S
H1068 C1066 0.961 . S
H1069 C1066 0.960 . S
C1070 N1071 1.342 . S
C1070 C1074 1.401 . S
C1070 C1075 1.499 . S
N1071 Co1054 1.989 . S
N1071 C1070 1.342 . S
N1071 N1072 1.388 . S
N1072 Co1055 1.993 . S
N1072 N1071 1.388 . S
N1072 C1073 1.346 . S
C1073 N1072 1.346 . S
C1073 C1074 1.396 . S
C1073 C1083 1.510 . S
C1074 C1070 1.401 . S
C1074 C1073 1.396 . S
C1075 C1070 1.499 . S
C1075 H1076 0.959 . S
C1075 H1077 0.960 . S
C1075 H1078 0.961 . S
H1076 C1075 0.959 . S
H1077 C1075 0.960 . S
H1078 C1075 0.961 . S
O1079 Co1054 1.967 . S
O1079 C1087 1.258 . S
O1080 Co1055 1.941 . S
O1080 C1087 1.266 . S
H1081 C1083 0.959 . S
H1082 C1083 0.961 . S
C1083 C1073 1.510 . S
C1083 H1081 0.959 . S
C1083 H1082 0.961 . S
C1083 H1084 0.960 . S
H1084 C1083 0.960 . S
H1085 N1065 0.862 . S
O1086 Co1054 1.920 . S
O1086 C1059 1.289 . S
C1087 O1079 1.258 . S
C1087 O1080 1.266 . S
Co1088 O1091 1.970 . S
Co1088 N1105 1.989 . S
Co1088 O1113 1.967 . S
Co1088 O1120 1.920 . S
Co1089 O1092 1.966 . S
Co1089 N1098 2.022 . S
Co1089 N1106 1.993 . S
Co1089 O1114 1.941 . S
C1090 O1091 1.258 . S
C1090 O1092 1.263 . S
O1091 Co1088 1.970 . S
O1091 C1090 1.258 . S
O1092 Co1089 1.966 . S
O1092 C1090 1.263 . S
C1093 O1094 1.235 . S
C1093 O1120 1.289 . S
O1094 C1093 1.235 . S
C1095 C1097 1.400 . S
C1095 N1098 1.351 . S
C1095 C1100 1.501 . S
C1096 C1097 1.387 . S
C1096 N1099 1.341 . S
C1097 C1095 1.400 . S
C1097 C1096 1.387 . S
N1098 Co1089 2.022 . S
N1098 C1095 1.351 . S
N1098 N1099 1.365 . S
N1099 C1096 1.341 . S
N1099 N1098 1.365 . S
N1099 H1119 0.862 . S
C1100 C1095 1.501 . S
C1100 H1101 0.961 . S
C1100 H1102 0.961 . S
C1100 H1103 0.960 . S
H1101 C1100 0.961 . S
H1102 C1100 0.961 . S
H1103 C1100 0.960 . S
C1104 N1105 1.342 . S
C1104 C1108 1.401 . S
C1104 C1109 1.499 . S
N1105 Co1088 1.989 . S
N1105 C1104 1.342 . S
N1105 N1106 1.388 . S
N1106 Co1089 1.993 . S
N1106 N1105 1.388 . S
N1106 C1107 1.346 . S
C1107 N1106 1.346 . S
C1107 C1108 1.396 . S
C1107 C1117 1.510 . S
C1108 C1104 1.401 . S
C1108 C1107 1.396 . S
C1109 C1104 1.499 . S
C1109 H1110 0.959 . S
C1109 H1111 0.960 . S
C1109 H1112 0.961 . S
H1110 C1109 0.959 . S
H1111 C1109 0.960 . S
H1112 C1109 0.961 . S
O1113 Co1088 1.967 . S
O1113 C1121 1.258 . S
O1114 Co1089 1.941 . S
O1114 C1121 1.266 . S
H1115 C1117 0.959 . S
H1116 C1117 0.961 . S
C1117 C1107 1.510 . S
C1117 H1115 0.959 . S
C1117 H1116 0.961 . S
C1117 H1118 0.960 . S
H1118 C1117 0.960 . S
H1119 N1099 0.862 . S
O1120 Co1088 1.920 . S
O1120 C1093 1.289 . S
C1121 O1113 1.258 . S
C1121 O1114 1.266 . S
Co1122 O1125 1.970 . S
Co1122 N1139 1.989 . S
Co1122 O1147 1.967 . S
Co1122 O1154 1.920 . S
Co1123 O1126 1.966 . S
Co1123 N1132 2.022 . S
Co1123 N1140 1.993 . S
Co1123 O1148 1.941 . S
C1124 O1125 1.258 . S
C1124 O1126 1.263 . S
O1125 Co1122 1.970 . S
O1125 C1124 1.258 . S
O1126 Co1123 1.966 . S
O1126 C1124 1.263 . S
C1127 O1128 1.235 . S
C1127 O1154 1.289 . S
O1128 C1127 1.235 . S
C1129 C1131 1.400 . S
C1129 N1132 1.351 . S
C1129 C1134 1.501 . S
C1130 C1131 1.387 . S
C1130 N1133 1.341 . S
C1131 C1129 1.400 . S
C1131 C1130 1.387 . S
N1132 Co1123 2.022 . S
N1132 C1129 1.351 . S
N1132 N1133 1.365 . S
N1133 C1130 1.341 . S
N1133 N1132 1.365 . S
N1133 H1153 0.862 . S
C1134 C1129 1.501 . S
C1134 H1135 0.961 . S
C1134 H1136 0.961 . S
C1134 H1137 0.960 . S
H1135 C1134 0.961 . S
H1136 C1134 0.961 . S
H1137 C1134 0.960 . S
C1138 N1139 1.342 . S
C1138 C1142 1.401 . S
C1138 C1143 1.499 . S
N1139 Co1122 1.989 . S
N1139 C1138 1.342 . S
N1139 N1140 1.388 . S
N1140 Co1123 1.993 . S
N1140 N1139 1.388 . S
N1140 C1141 1.346 . S
C1141 N1140 1.346 . S
C1141 C1142 1.396 . S
C1141 C1151 1.510 . S
C1142 C1138 1.401 . S
C1142 C1141 1.396 . S
C1143 C1138 1.499 . S
C1143 H1144 0.959 . S
C1143 H1145 0.960 . S
C1143 H1146 0.961 . S
H1144 C1143 0.959 . S
H1145 C1143 0.960 . S
H1146 C1143 0.961 . S
O1147 Co1122 1.967 . S
O1147 C1155 1.258 . S
O1148 Co1123 1.941 . S
O1148 C1155 1.266 . S
H1149 C1151 0.959 . S
H1150 C1151 0.961 . S
C1151 C1141 1.510 . S
C1151 H1149 0.959 . S
C1151 H1150 0.961 . S
C1151 H1152 0.960 . S
H1152 C1151 0.960 . S
H1153 N1133 0.862 . S
O1154 Co1122 1.920 . S
O1154 C1127 1.289 . S
C1155 O1147 1.258 . S
C1155 O1148 1.266 . S
Co1156 O1159 1.970 . S
Co1156 N1173 1.989 . S
Co1156 O1181 1.967 . S
Co1156 O1188 1.920 . S
Co1157 O1160 1.966 . S
Co1157 N1166 2.022 . S
Co1157 N1174 1.993 . S
Co1157 O1182 1.941 . S
C1158 O1159 1.258 . S
C1158 O1160 1.263 . S
O1159 Co1156 1.970 . S
O1159 C1158 1.258 . S
O1160 Co1157 1.966 . S
O1160 C1158 1.263 . S
C1161 O1162 1.235 . S
C1161 O1188 1.289 . S
O1162 C1161 1.235 . S
C1163 C1165 1.400 . S
C1163 N1166 1.351 . S
C1163 C1168 1.501 . S
C1164 C1165 1.387 . S
C1164 N1167 1.341 . S
C1165 C1163 1.400 . S
C1165 C1164 1.387 . S
N1166 Co1157 2.022 . S
N1166 C1163 1.351 . S
N1166 N1167 1.365 . S
N1167 C1164 1.341 . S
N1167 N1166 1.365 . S
N1167 H1187 0.862 . S
C1168 C1163 1.501 . S
C1168 H1169 0.961 . S
C1168 H1170 0.961 . S
C1168 H1171 0.960 . S
H1169 C1168 0.961 . S
H1170 C1168 0.961 . S
H1171 C1168 0.960 . S
C1172 N1173 1.342 . S
C1172 C1176 1.401 . S
C1172 C1177 1.499 . S
N1173 Co1156 1.989 . S
N1173 C1172 1.342 . S
N1173 N1174 1.388 . S
N1174 Co1157 1.993 . S
N1174 N1173 1.388 . S
N1174 C1175 1.346 . S
C1175 N1174 1.346 . S
C1175 C1176 1.396 . S
C1175 C1185 1.510 . S
C1176 C1172 1.401 . S
C1176 C1175 1.396 . S
C1177 C1172 1.499 . S
C1177 H1178 0.959 . S
C1177 H1179 0.960 . S
C1177 H1180 0.961 . S
H1178 C1177 0.959 . S
H1179 C1177 0.960 . S
H1180 C1177 0.961 . S
O1181 Co1156 1.967 . S
O1181 C1189 1.258 . S
O1182 Co1157 1.941 . S
O1182 C1189 1.266 . S
H1183 C1185 0.959 . S
H1184 C1185 0.961 . S
C1185 C1175 1.510 . S
C1185 H1183 0.959 . S
C1185 H1184 0.961 . S
C1185 H1186 0.960 . S
H1186 C1185 0.960 . S
H1187 N1167 0.862 . S
O1188 Co1156 1.920 . S
O1188 C1161 1.289 . S
C1189 O1181 1.258 . S
C1189 O1182 1.266 . S
Co1190 O1193 1.970 . S
Co1190 N1207 1.989 . S
Co1190 O1215 1.967 . S
Co1190 O1222 1.920 . S
Co1191 O1194 1.966 . S
Co1191 N1200 2.022 . S
Co1191 N1208 1.993 . S
Co1191 O1216 1.941 . S
C1192 O1193 1.258 . S
C1192 O1194 1.263 . S
O1193 Co1190 1.970 . S
O1193 C1192 1.258 . S
O1194 Co1191 1.966 . S
O1194 C1192 1.263 . S
C1195 O1196 1.235 . S
C1195 O1222 1.289 . S
O1196 C1195 1.235 . S
C1197 C1199 1.400 . S
C1197 N1200 1.351 . S
C1197 C1202 1.501 . S
C1198 C1199 1.387 . S
C1198 N1201 1.341 . S
C1199 C1197 1.400 . S
C1199 C1198 1.387 . S
N1200 Co1191 2.022 . S
N1200 C1197 1.351 . S
N1200 N1201 1.365 . S
N1201 C1198 1.341 . S
N1201 N1200 1.365 . S
N1201 H1221 0.862 . S
C1202 C1197 1.501 . S
C1202 H1203 0.961 . S
C1202 H1204 0.961 . S
C1202 H1205 0.960 . S
H1203 C1202 0.961 . S
H1204 C1202 0.961 . S
H1205 C1202 0.960 . S
C1206 N1207 1.342 . S
C1206 C1210 1.401 . S
C1206 C1211 1.499 . S
N1207 Co1190 1.989 . S
N1207 C1206 1.342 . S
N1207 N1208 1.388 . S
N1208 Co1191 1.993 . S
N1208 N1207 1.388 . S
N1208 C1209 1.346 . S
C1209 N1208 1.346 . S
C1209 C1210 1.396 . S
C1209 C1219 1.510 . S
C1210 C1206 1.401 . S
C1210 C1209 1.396 . S
C1211 C1206 1.499 . S
C1211 H1212 0.959 . S
C1211 H1213 0.960 . S
C1211 H1214 0.961 . S
H1212 C1211 0.959 . S
H1213 C1211 0.960 . S
H1214 C1211 0.961 . S
O1215 Co1190 1.967 . S
O1215 C1223 1.258 . S
O1216 Co1191 1.941 . S
O1216 C1223 1.266 . S
H1217 C1219 0.959 . S
H1218 C1219 0.961 . S
C1219 C1209 1.510 . S
C1219 H1217 0.959 . S
C1219 H1218 0.961 . S
C1219 H1220 0.960 . S
H1220 C1219 0.960 . S
H1221 N1201 0.862 . S
O1222 Co1190 1.920 . S
O1222 C1195 1.289 . S
C1223 O1215 1.258 . S
C1223 O1216 1.266 . S
Co1224 O1227 1.970 . S
Co1224 N1241 1.989 . S
Co1224 O1249 1.967 . S
Co1224 O1256 1.920 . S
Co1225 O1228 1.966 . S
Co1225 N1234 2.022 . S
Co1225 N1242 1.993 . S
Co1225 O1250 1.941 . S
C1226 O1227 1.258 . S
C1226 O1228 1.263 . S
O1227 Co1224 1.970 . S
O1227 C1226 1.258 . S
O1228 Co1225 1.966 . S
O1228 C1226 1.263 . S
C1229 O1230 1.235 . S
C1229 O1256 1.289 . S
O1230 C1229 1.235 . S
C1231 C1233 1.400 . S
C1231 N1234 1.351 . S
C1231 C1236 1.501 . S
C1232 C1233 1.387 . S
C1232 N1235 1.341 . S
C1233 C1231 1.400 . S
C1233 C1232 1.387 . S
N1234 Co1225 2.022 . S
N1234 C1231 1.351 . S
N1234 N1235 1.365 . S
N1235 C1232 1.341 . S
N1235 N1234 1.365 . S
N1235 H1255 0.862 . S
C1236 C1231 1.501 . S
C1236 H1237 0.961 . S
C1236 H1238 0.961 . S
C1236 H1239 0.960 . S
H1237 C1236 0.961 . S
H1238 C1236 0.961 . S
H1239 C1236 0.960 . S
C1240 N1241 1.342 . S
C1240 C1244 1.401 . S
C1240 C1245 1.499 . S
N1241 Co1224 1.989 . S
N1241 C1240 1.342 . S
N1241 N1242 1.388 . S
N1242 Co1225 1.993 . S
N1242 N1241 1.388 . S
N1242 C1243 1.346 . S
C1243 N1242 1.346 . S
C1243 C1244 1.396 . S
C1243 C1253 1.510 . S
C1244 C1240 1.401 . S
C1244 C1243 1.396 . S
C1245 C1240 1.499 . S
C1245 H1246 0.959 . S
C1245 H1247 0.960 . S
C1245 H1248 0.961 . S
H1246 C1245 0.959 . S
H1247 C1245 0.960 . S
H1248 C1245 0.961 . S
O1249 Co1224 1.967 . S
O1249 C1257 1.258 . S
O1250 Co1225 1.941 . S
O1250 C1257 1.266 . S
H1251 C1253 0.959 . S
H1252 C1253 0.961 . S
C1253 C1243 1.510 . S
C1253 H1251 0.959 . S
C1253 H1252 0.961 . S
C1253 H1254 0.960 . S
H1254 C1253 0.960 . S
H1255 N1235 0.862 . S
O1256 Co1224 1.920 . S
O1256 C1229 1.289 . S
C1257 O1249 1.258 . S
C1257 O1250 1.266 . S
Co1258 O1261 1.970 . S
Co1258 N1275 1.989 . S
Co1258 O1283 1.967 . S
Co1258 O1290 1.920 . S
Co1259 O1262 1.966 . S
Co1259 N1268 2.022 . S
Co1259 N1276 1.993 . S
Co1259 O1284 1.941 . S
C1260 O1261 1.258 . S
C1260 O1262 1.263 . S
O1261 Co1258 1.970 . S
O1261 C1260 1.258 . S
O1262 Co1259 1.966 . S
O1262 C1260 1.263 . S
C1263 O1264 1.235 . S
C1263 O1290 1.289 . S
O1264 C1263 1.235 . S
C1265 C1267 1.400 . S
C1265 N1268 1.351 . S
C1265 C1270 1.501 . S
C1266 C1267 1.387 . S
C1266 N1269 1.341 . S
C1267 C1265 1.400 . S
C1267 C1266 1.387 . S
N1268 Co1259 2.022 . S
N1268 C1265 1.351 . S
N1268 N1269 1.365 . S
N1269 C1266 1.341 . S
N1269 N1268 1.365 . S
N1269 H1289 0.862 . S
C1270 C1265 1.501 . S
C1270 H1271 0.961 . S
C1270 H1272 0.961 . S
C1270 H1273 0.960 . S
H1271 C1270 0.961 . S
H1272 C1270 0.961 . S
H1273 C1270 0.960 . S
C1274 N1275 1.342 . S
C1274 C1278 1.401 . S
C1274 C1279 1.499 . S
N1275 Co1258 1.989 . S
N1275 C1274 1.342 . S
N1275 N1276 1.388 . S
N1276 Co1259 1.993 . S
N1276 N1275 1.388 . S
N1276 C1277 1.346 . S
C1277 N1276 1.346 . S
C1277 C1278 1.396 . S
C1277 C1287 1.510 . S
C1278 C1274 1.401 . S
C1278 C1277 1.396 . S
C1279 C1274 1.499 . S
C1279 H1280 0.959 . S
C1279 H1281 0.960 . S
C1279 H1282 0.961 . S
H1280 C1279 0.959 . S
H1281 C1279 0.960 . S
H1282 C1279 0.961 . S
O1283 Co1258 1.967 . S
O1283 C1291 1.258 . S
O1284 Co1259 1.941 . S
O1284 C1291 1.266 . S
H1285 C1287 0.959 . S
H1286 C1287 0.961 . S
C1287 C1277 1.510 . S
C1287 H1285 0.959 . S
C1287 H1286 0.961 . S
C1287 H1288 0.960 . S
H1288 C1287 0.960 . S
H1289 N1269 0.862 . S
O1290 Co1258 1.920 . S
O1290 C1263 1.289 . S
C1291 O1283 1.258 . S
C1291 O1284 1.266 . S
Co1292 O1295 1.970 . S
Co1292 N1309 1.989 . S
Co1292 O1317 1.967 . S
Co1292 O1324 1.920 . S
Co1293 O1296 1.966 . S
Co1293 N1302 2.022 . S
Co1293 N1310 1.993 . S
Co1293 O1318 1.941 . S
C1294 O1295 1.258 . S
C1294 O1296 1.263 . S
O1295 Co1292 1.970 . S
O1295 C1294 1.258 . S
O1296 Co1293 1.966 . S
O1296 C1294 1.263 . S
C1297 O1298 1.235 . S
C1297 O1324 1.289 . S
O1298 C1297 1.235 . S
C1299 C1301 1.400 . S
C1299 N1302 1.351 . S
C1299 C1304 1.501 . S
C1300 C1301 1.387 . S
C1300 N1303 1.341 . S
C1301 C1299 1.400 . S
C1301 C1300 1.387 . S
N1302 Co1293 2.022 . S
N1302 C1299 1.351 . S
N1302 N1303 1.365 . S
N1303 C1300 1.341 . S
N1303 N1302 1.365 . S
N1303 H1323 0.862 . S
C1304 C1299 1.501 . S
C1304 H1305 0.961 . S
C1304 H1306 0.961 . S
C1304 H1307 0.960 . S
H1305 C1304 0.961 . S
H1306 C1304 0.961 . S
H1307 C1304 0.960 . S
C1308 N1309 1.342 . S
C1308 C1312 1.401 . S
C1308 C1313 1.499 . S
N1309 Co1292 1.989 . S
N1309 C1308 1.342 . S
N1309 N1310 1.388 . S
N1310 Co1293 1.993 . S
N1310 N1309 1.388 . S
N1310 C1311 1.346 . S
C1311 N1310 1.346 . S
C1311 C1312 1.396 . S
C1311 C1321 1.510 . S
C1312 C1308 1.401 . S
C1312 C1311 1.396 . S
C1313 C1308 1.499 . S
C1313 H1314 0.959 . S
C1313 H1315 0.960 . S
C1313 H1316 0.961 . S
H1314 C1313 0.959 . S
H1315 C1313 0.960 . S
H1316 C1313 0.961 . S
O1317 Co1292 1.967 . S
O1317 C1325 1.258 . S
O1318 Co1293 1.941 . S
O1318 C1325 1.266 . S
H1319 C1321 0.959 . S
H1320 C1321 0.961 . S
C1321 C1311 1.510 . S
C1321 H1319 0.959 . S
C1321 H1320 0.961 . S
C1321 H1322 0.960 . S
H1322 C1321 0.960 . S
H1323 N1303 0.862 . S
O1324 Co1292 1.920 . S
O1324 C1297 1.289 . S
C1325 O1317 1.258 . S
C1325 O1318 1.266 . S
Co1326 O1329 1.970 . S
Co1326 N1343 1.989 . S
Co1326 O1351 1.967 . S
Co1326 O1358 1.920 . S
Co1327 O1330 1.966 . S
Co1327 N1336 2.022 . S
Co1327 N1344 1.993 . S
Co1327 O1352 1.941 . S
C1328 O1329 1.258 . S
C1328 O1330 1.263 . S
O1329 Co1326 1.970 . S
O1329 C1328 1.258 . S
O1330 Co1327 1.966 . S
O1330 C1328 1.263 . S
C1331 O1332 1.235 . S
C1331 O1358 1.289 . S
O1332 C1331 1.235 . S
C1333 C1335 1.400 . S
C1333 N1336 1.351 . S
C1333 C1338 1.501 . S
C1334 C1335 1.387 . S
C1334 N1337 1.341 . S
C1335 C1333 1.400 . S
C1335 C1334 1.387 . S
N1336 Co1327 2.022 . S
N1336 C1333 1.351 . S
N1336 N1337 1.365 . S
N1337 C1334 1.341 . S
N1337 N1336 1.365 . S
N1337 H1357 0.862 . S
C1338 C1333 1.501 . S
C1338 H1339 0.961 . S
C1338 H1340 0.961 . S
C1338 H1341 0.960 . S
H1339 C1338 0.961 . S
H1340 C1338 0.961 . S
H1341 C1338 0.960 . S
C1342 N1343 1.342 . S
C1342 C1346 1.401 . S
C1342 C1347 1.499 . S
N1343 Co1326 1.989 . S
N1343 C1342 1.342 . S
N1343 N1344 1.388 . S
N1344 Co1327 1.993 . S
N1344 N1343 1.388 . S
N1344 C1345 1.346 . S
C1345 N1344 1.346 . S
C1345 C1346 1.396 . S
C1345 C1355 1.510 . S
C1346 C1342 1.401 . S
C1346 C1345 1.396 . S
C1347 C1342 1.499 . S
C1347 H1348 0.959 . S
C1347 H1349 0.960 . S
C1347 H1350 0.961 . S
H1348 C1347 0.959 . S
H1349 C1347 0.960 . S
H1350 C1347 0.961 . S
O1351 Co1326 1.967 . S
O1351 C1359 1.258 . S
O1352 Co1327 1.941 . S
O1352 C1359 1.266 . S
H1353 C1355 0.959 . S
H1354 C1355 0.961 . S
C1355 C1345 1.510 . S
C1355 H1353 0.959 . S
C1355 H1354 0.961 . S
C1355 H1356 0.960 . S
H1356 C1355 0.960 . S
H1357 N1337 0.862 . S
O1358 Co1326 1.920 . S
O1358 C1331 1.289 . S
C1359 O1351 1.258 . S
C1359 O1352 1.266 . S
Co1360 O1363 1.970 . S
Co1360 N1377 1.989 . S
Co1360 O1385 1.967 . S
Co1360 O1392 1.920 . S
Co1361 O1364 1.966 . S
Co1361 N1370 2.022 . S
Co1361 N1378 1.993 . S
Co1361 O1386 1.941 . S
C1362 O1363 1.258 . S
C1362 O1364 1.263 . S
O1363 Co1360 1.970 . S
O1363 C1362 1.258 . S
O1364 Co1361 1.966 . S
O1364 C1362 1.263 . S
C1365 O1366 1.235 . S
C1365 O1392 1.289 . S
O1366 C1365 1.235 . S
C1367 C1369 1.400 . S
C1367 N1370 1.351 . S
C1367 C1372 1.501 . S
C1368 C1369 1.387 . S
C1368 N1371 1.341 . S
C1369 C1367 1.400 . S
C1369 C1368 1.387 . S
N1370 Co1361 2.022 . S
N1370 C1367 1.351 . S
N1370 N1371 1.365 . S
N1371 C1368 1.341 . S
N1371 N1370 1.365 . S
N1371 H1391 0.862 . S
C1372 C1367 1.501 . S
C1372 H1373 0.961 . S
C1372 H1374 0.961 . S
C1372 H1375 0.960 . S
H1373 C1372 0.961 . S
H1374 C1372 0.961 . S
H1375 C1372 0.960 . S
C1376 N1377 1.342 . S
C1376 C1380 1.401 . S
C1376 C1381 1.499 . S
N1377 Co1360 1.989 . S
N1377 C1376 1.342 . S
N1377 N1378 1.388 . S
N1378 Co1361 1.993 . S
N1378 N1377 1.388 . S
N1378 C1379 1.346 . S
C1379 N1378 1.346 . S
C1379 C1380 1.396 . S
C1379 C1389 1.510 . S
C1380 C1376 1.401 . S
C1380 C1379 1.396 . S
C1381 C1376 1.499 . S
C1381 H1382 0.959 . S
C1381 H1383 0.960 . S
C1381 H1384 0.961 . S
H1382 C1381 0.959 . S
H1383 C1381 0.960 . S
H1384 C1381 0.961 . S
O1385 Co1360 1.967 . S
O1385 C1393 1.258 . S
O1386 Co1361 1.941 . S
O1386 C1393 1.266 . S
H1387 C1389 0.959 . S
H1388 C1389 0.961 . S
C1389 C1379 1.510 . S
C1389 H1387 0.959 . S
C1389 H1388 0.961 . S
C1389 H1390 0.960 . S
H1390 C1389 0.960 . S
H1391 N1371 0.862 . S
O1392 Co1360 1.920 . S
O1392 C1365 1.289 . S
C1393 O1385 1.258 . S
C1393 O1386 1.266 . S
Co1394 O1397 1.970 . S
Co1394 N1411 1.989 . S
Co1394 O1419 1.967 . S
Co1394 O1426 1.920 . S
Co1395 O1398 1.966 . S
Co1395 N1404 2.022 . S
Co1395 N1412 1.993 . S
Co1395 O1420 1.941 . S
C1396 O1397 1.258 . S
C1396 O1398 1.263 . S
O1397 Co1394 1.970 . S
O1397 C1396 1.258 . S
O1398 Co1395 1.966 . S
O1398 C1396 1.263 . S
C1399 O1400 1.235 . S
C1399 O1426 1.289 . S
O1400 C1399 1.235 . S
C1401 C1403 1.400 . S
C1401 N1404 1.351 . S
C1401 C1406 1.501 . S
C1402 C1403 1.387 . S
C1402 N1405 1.341 . S
C1403 C1401 1.400 . S
C1403 C1402 1.387 . S
N1404 Co1395 2.022 . S
N1404 C1401 1.351 . S
N1404 N1405 1.365 . S
N1405 C1402 1.341 . S
N1405 N1404 1.365 . S
N1405 H1425 0.862 . S
C1406 C1401 1.501 . S
C1406 H1407 0.961 . S
C1406 H1408 0.961 . S
C1406 H1409 0.960 . S
H1407 C1406 0.961 . S
H1408 C1406 0.961 . S
H1409 C1406 0.960 . S
C1410 N1411 1.342 . S
C1410 C1414 1.401 . S
C1410 C1415 1.499 . S
N1411 Co1394 1.989 . S
N1411 C1410 1.342 . S
N1411 N1412 1.388 . S
N1412 Co1395 1.993 . S
N1412 N1411 1.388 . S
N1412 C1413 1.346 . S
C1413 N1412 1.346 . S
C1413 C1414 1.396 . S
C1413 C1423 1.510 . S
C1414 C1410 1.401 . S
C1414 C1413 1.396 . S
C1415 C1410 1.499 . S
C1415 H1416 0.959 . S
C1415 H1417 0.960 . S
C1415 H1418 0.961 . S
H1416 C1415 0.959 . S
H1417 C1415 0.960 . S
H1418 C1415 0.961 . S
O1419 Co1394 1.967 . S
O1419 C1427 1.258 . S
O1420 Co1395 1.941 . S
O1420 C1427 1.266 . S
H1421 C1423 0.959 . S
H1422 C1423 0.961 . S
C1423 C1413 1.510 . S
C1423 H1421 0.959 . S
C1423 H1422 0.961 . S
C1423 H1424 0.960 . S
H1424 C1423 0.960 . S
H1425 N1405 0.862 . S
O1426 Co1394 1.920 . S
O1426 C1399 1.289 . S
C1427 O1419 1.258 . S
C1427 O1420 1.266 . S
Co1428 O1431 1.970 . S
Co1428 N1445 1.989 . S
Co1428 O1453 1.967 . S
Co1428 O1460 1.920 . S
Co1429 O1432 1.966 . S
Co1429 N1438 2.022 . S
Co1429 N1446 1.993 . S
Co1429 O1454 1.941 . S
C1430 O1431 1.258 . S
C1430 O1432 1.263 . S
O1431 Co1428 1.970 . S
O1431 C1430 1.258 . S
O1432 Co1429 1.966 . S
O1432 C1430 1.263 . S
C1433 O1434 1.235 . S
C1433 O1460 1.289 . S
O1434 C1433 1.235 . S
C1435 C1437 1.400 . S
C1435 N1438 1.351 . S
C1435 C1440 1.501 . S
C1436 C1437 1.387 . S
C1436 N1439 1.341 . S
C1437 C1435 1.400 . S
C1437 C1436 1.387 . S
N1438 Co1429 2.022 . S
N1438 C1435 1.351 . S
N1438 N1439 1.365 . S
N1439 C1436 1.341 . S
N1439 N1438 1.365 . S
N1439 H1459 0.862 . S
C1440 C1435 1.501 . S
C1440 H1441 0.961 . S
C1440 H1442 0.961 . S
C1440 H1443 0.960 . S
H1441 C1440 0.961 . S
H1442 C1440 0.961 . S
H1443 C1440 0.960 . S
C1444 N1445 1.342 . S
C1444 C1448 1.401 . S
C1444 C1449 1.499 . S
N1445 Co1428 1.989 . S
N1445 C1444 1.342 . S
N1445 N1446 1.388 . S
N1446 Co1429 1.993 . S
N1446 N1445 1.388 . S
N1446 C1447 1.346 . S
C1447 N1446 1.346 . S
C1447 C1448 1.396 . S
C1447 C1457 1.510 . S
C1448 C1444 1.401 . S
C1448 C1447 1.396 . S
C1449 C1444 1.499 . S
C1449 H1450 0.959 . S
C1449 H1451 0.960 . S
C1449 H1452 0.961 . S
H1450 C1449 0.959 . S
H1451 C1449 0.960 . S
H1452 C1449 0.961 . S
O1453 Co1428 1.967 . S
O1453 C1461 1.258 . S
O1454 Co1429 1.941 . S
O1454 C1461 1.266 . S
H1455 C1457 0.959 . S
H1456 C1457 0.961 . S
C1457 C1447 1.510 . S
C1457 H1455 0.959 . S
C1457 H1456 0.961 . S
C1457 H1458 0.960 . S
H1458 C1457 0.960 . S
H1459 N1439 0.862 . S
O1460 Co1428 1.920 . S
O1460 C1433 1.289 . S
C1461 O1453 1.258 . S
C1461 O1454 1.266 . S
Co1462 O1465 1.970 . S
Co1462 N1479 1.989 . S
Co1462 O1487 1.967 . S
Co1462 O1494 1.920 . S
Co1463 O1466 1.966 . S
Co1463 N1472 2.022 . S
Co1463 N1480 1.993 . S
Co1463 O1488 1.941 . S
C1464 O1465 1.258 . S
C1464 O1466 1.263 . S
O1465 Co1462 1.970 . S
O1465 C1464 1.258 . S
O1466 Co1463 1.966 . S
O1466 C1464 1.263 . S
C1467 O1468 1.235 . S
C1467 O1494 1.289 . S
O1468 C1467 1.235 . S
C1469 C1471 1.400 . S
C1469 N1472 1.351 . S
C1469 C1474 1.501 . S
C1470 C1471 1.387 . S
C1470 N1473 1.341 . S
C1471 C1469 1.400 . S
C1471 C1470 1.387 . S
N1472 Co1463 2.022 . S
N1472 C1469 1.351 . S
N1472 N1473 1.365 . S
N1473 C1470 1.341 . S
N1473 N1472 1.365 . S
N1473 H1493 0.862 . S
C1474 C1469 1.501 . S
C1474 H1475 0.961 . S
C1474 H1476 0.961 . S
C1474 H1477 0.960 . S
H1475 C1474 0.961 . S
H1476 C1474 0.961 . S
H1477 C1474 0.960 . S
C1478 N1479 1.342 . S
C1478 C1482 1.401 . S
C1478 C1483 1.499 . S
N1479 Co1462 1.989 . S
N1479 C1478 1.342 . S
N1479 N1480 1.388 . S
N1480 Co1463 1.993 . S
N1480 N1479 1.388 . S
N1480 C1481 1.346 . S
C1481 N1480 1.346 . S
C1481 C1482 1.396 . S
C1481 C1491 1.510 . S
C1482 C1478 1.401 . S
C1482 C1481 1.396 . S
C1483 C1478 1.499 . S
C1483 H1484 0.959 . S
C1483 H1485 0.960 . S
C1483 H1486 0.961 . S
H1484 C1483 0.959 . S
H1485 C1483 0.960 . S
H1486 C1483 0.961 . S
O1487 Co1462 1.967 . S
O1487 C1495 1.258 . S
O1488 Co1463 1.941 . S
O1488 C1495 1.266 . S
H1489 C1491 0.959 . S
H1490 C1491 0.961 . S
C1491 C1481 1.510 . S
C1491 H1489 0.959 . S
C1491 H1490 0.961 . S
C1491 H1492 0.960 . S
H1492 C1491 0.960 . S
H1493 N1473 0.862 . S
O1494 Co1462 1.920 . S
O1494 C1467 1.289 . S
C1495 O1487 1.258 . S
C1495 O1488 1.266 . S
Co1496 O1499 1.970 . S
Co1496 N1513 1.989 . S
Co1496 O1521 1.967 . S
Co1496 O1528 1.920 . S
Co1497 O1500 1.966 . S
Co1497 N1506 2.022 . S
Co1497 N1514 1.993 . S
Co1497 O1522 1.941 . S
C1498 O1499 1.258 . S
C1498 O1500 1.263 . S
O1499 Co1496 1.970 . S
O1499 C1498 1.258 . S
O1500 Co1497 1.966 . S
O1500 C1498 1.263 . S
C1501 O1502 1.235 . S
C1501 O1528 1.289 . S
O1502 C1501 1.235 . S
C1503 C1505 1.400 . S
C1503 N1506 1.351 . S
C1503 C1508 1.501 . S
C1504 C1505 1.387 . S
C1504 N1507 1.341 . S
C1505 C1503 1.400 . S
C1505 C1504 1.387 . S
N1506 Co1497 2.022 . S
N1506 C1503 1.351 . S
N1506 N1507 1.365 . S
N1507 C1504 1.341 . S
N1507 N1506 1.365 . S
N1507 H1527 0.862 . S
C1508 C1503 1.501 . S
C1508 H1509 0.961 . S
C1508 H1510 0.961 . S
C1508 H1511 0.960 . S
H1509 C1508 0.961 . S
H1510 C1508 0.961 . S
H1511 C1508 0.960 . S
C1512 N1513 1.342 . S
C1512 C1516 1.401 . S
C1512 C1517 1.499 . S
N1513 Co1496 1.989 . S
N1513 C1512 1.342 . S
N1513 N1514 1.388 . S
N1514 Co1497 1.993 . S
N1514 N1513 1.388 . S
N1514 C1515 1.346 . S
C1515 N1514 1.346 . S
C1515 C1516 1.396 . S
C1515 C1525 1.510 . S
C1516 C1512 1.401 . S
C1516 C1515 1.396 . S
C1517 C1512 1.499 . S
C1517 H1518 0.959 . S
C1517 H1519 0.960 . S
C1517 H1520 0.961 . S
H1518 C1517 0.959 . S
H1519 C1517 0.960 . S
H1520 C1517 0.961 . S
O1521 Co1496 1.967 . S
O1521 C1529 1.258 . S
O1522 Co1497 1.941 . S
O1522 C1529 1.266 . S
H1523 C1525 0.959 . S
H1524 C1525 0.961 . S
C1525 C1515 1.510 . S
C1525 H1523 0.959 . S
C1525 H1524 0.961 . S
C1525 H1526 0.960 . S
H1526 C1525 0.960 . S
H1527 N1507 0.862 . S
O1528 Co1496 1.920 . S
O1528 C1501 1.289 . S
C1529 O1521 1.258 . S
C1529 O1522 1.266 . S
Co1530 O1533 1.970 . S
Co1530 N1547 1.989 . S
Co1530 O1555 1.967 . S
Co1530 O1562 1.920 . S
Co1531 O1534 1.966 . S
Co1531 N1540 2.022 . S
Co1531 N1548 1.993 . S
Co1531 O1556 1.941 . S
C1532 O1533 1.258 . S
C1532 O1534 1.263 . S
O1533 Co1530 1.970 . S
O1533 C1532 1.258 . S
O1534 Co1531 1.966 . S
O1534 C1532 1.263 . S
C1535 O1536 1.235 . S
C1535 O1562 1.289 . S
O1536 C1535 1.235 . S
C1537 C1539 1.400 . S
C1537 N1540 1.351 . S
C1537 C1542 1.501 . S
C1538 C1539 1.387 . S
C1538 N1541 1.341 . S
C1539 C1537 1.400 . S
C1539 C1538 1.387 . S
N1540 Co1531 2.022 . S
N1540 C1537 1.351 . S
N1540 N1541 1.365 . S
N1541 C1538 1.341 . S
N1541 N1540 1.365 . S
N1541 H1561 0.862 . S
C1542 C1537 1.501 . S
C1542 H1543 0.961 . S
C1542 H1544 0.961 . S
C1542 H1545 0.960 . S
H1543 C1542 0.961 . S
H1544 C1542 0.961 . S
H1545 C1542 0.960 . S
C1546 N1547 1.342 . S
C1546 C1550 1.401 . S
C1546 C1551 1.499 . S
N1547 Co1530 1.989 . S
N1547 C1546 1.342 . S
N1547 N1548 1.388 . S
N1548 Co1531 1.993 . S
N1548 N1547 1.388 . S
N1548 C1549 1.346 . S
C1549 N1548 1.346 . S
C1549 C1550 1.396 . S
C1549 C1559 1.510 . S
C1550 C1546 1.401 . S
C1550 C1549 1.396 . S
C1551 C1546 1.499 . S
C1551 H1552 0.959 . S
C1551 H1553 0.960 . S
C1551 H1554 0.961 . S
H1552 C1551 0.959 . S
H1553 C1551 0.960 . S
H1554 C1551 0.961 . S
O1555 Co1530 1.967 . S
O1555 C1563 1.258 . S
O1556 Co1531 1.941 . S
O1556 C1563 1.266 . S
H1557 C1559 0.959 . S
H1558 C1559 0.961 . S
C1559 C1549 1.510 . S
C1559 H1557 0.959 . S
C1559 H1558 0.961 . S
C1559 H1560 0.960 . S
H1560 C1559 0.960 . S
H1561 N1541 0.862 . S
O1562 Co1530 1.920 . S
O1562 C1535 1.289 . S
C1563 O1555 1.258 . S
C1563 O1556 1.266 . S
Co1564 O1567 1.970 . S
Co1564 N1581 1.989 . S
Co1564 O1589 1.967 . S
Co1564 O1596 1.920 . S
Co1565 O1568 1.966 . S
Co1565 N1574 2.022 . S
Co1565 N1582 1.993 . S
Co1565 O1590 1.941 . S
C1566 O1567 1.258 . S
C1566 O1568 1.263 . S
O1567 Co1564 1.970 . S
O1567 C1566 1.258 . S
O1568 Co1565 1.966 . S
O1568 C1566 1.263 . S
C1569 O1570 1.235 . S
C1569 O1596 1.289 . S
O1570 C1569 1.235 . S
C1571 C1573 1.400 . S
C1571 N1574 1.351 . S
C1571 C1576 1.501 . S
C1572 C1573 1.387 . S
C1572 N1575 1.341 . S
C1573 C1571 1.400 . S
C1573 C1572 1.387 . S
N1574 Co1565 2.022 . S
N1574 C1571 1.351 . S
N1574 N1575 1.365 . S
N1575 C1572 1.341 . S
N1575 N1574 1.365 . S
N1575 H1595 0.862 . S
C1576 C1571 1.501 . S
C1576 H1577 0.961 . S
C1576 H1578 0.961 . S
C1576 H1579 0.960 . S
H1577 C1576 0.961 . S
H1578 C1576 0.961 . S
H1579 C1576 0.960 . S
C1580 N1581 1.342 . S
C1580 C1584 1.401 . S
C1580 C1585 1.499 . S
N1581 Co1564 1.989 . S
N1581 C1580 1.342 . S
N1581 N1582 1.388 . S
N1582 Co1565 1.993 . S
N1582 N1581 1.388 . S
N1582 C1583 1.346 . S
C1583 N1582 1.346 . S
C1583 C1584 1.396 . S
C1583 C1593 1.510 . S
C1584 C1580 1.401 . S
C1584 C1583 1.396 . S
C1585 C1580 1.499 . S
C1585 H1586 0.959 . S
C1585 H1587 0.960 . S
C1585 H1588 0.961 . S
H1586 C1585 0.959 . S
H1587 C1585 0.960 . S
H1588 C1585 0.961 . S
O1589 Co1564 1.967 . S
O1589 C1597 1.258 . S
O1590 Co1565 1.941 . S
O1590 C1597 1.266 . S
H1591 C1593 0.959 . S
H1592 C1593 0.961 . S
C1593 C1583 1.510 . S
C1593 H1591 0.959 . S
C1593 H1592 0.961 . S
C1593 H1594 0.960 . S
H1594 C1593 0.960 . S
H1595 N1575 0.862 . S
O1596 Co1564 1.920 . S
O1596 C1569 1.289 . S
C1597 O1589 1.258 . S
C1597 O1590 1.266 . S
Co1598 O1601 1.970 . S
Co1598 N1615 1.989 . S
Co1598 O1623 1.967 . S
Co1598 O1630 1.920 . S
Co1599 O1602 1.966 . S
Co1599 N1608 2.022 . S
Co1599 N1616 1.993 . S
Co1599 O1624 1.941 . S
C1600 O1601 1.258 . S
C1600 O1602 1.263 . S
O1601 Co1598 1.970 . S
O1601 C1600 1.258 . S
O1602 Co1599 1.966 . S
O1602 C1600 1.263 . S
C1603 O1604 1.235 . S
C1603 O1630 1.289 . S
O1604 C1603 1.235 . S
C1605 C1607 1.400 . S
C1605 N1608 1.351 . S
C1605 C1610 1.501 . S
C1606 C1607 1.387 . S
C1606 N1609 1.341 . S
C1607 C1605 1.400 . S
C1607 C1606 1.387 . S
N1608 Co1599 2.022 . S
N1608 C1605 1.351 . S
N1608 N1609 1.365 . S
N1609 C1606 1.341 . S
N1609 N1608 1.365 . S
N1609 H1629 0.862 . S
C1610 C1605 1.501 . S
C1610 H1611 0.961 . S
C1610 H1612 0.961 . S
C1610 H1613 0.960 . S
H1611 C1610 0.961 . S
H1612 C1610 0.961 . S
H1613 C1610 0.960 . S
C1614 N1615 1.342 . S
C1614 C1618 1.401 . S
C1614 C1619 1.499 . S
N1615 Co1598 1.989 . S
N1615 C1614 1.342 . S
N1615 N1616 1.388 . S
N1616 Co1599 1.993 . S
N1616 N1615 1.388 . S
N1616 C1617 1.346 . S
C1617 N1616 1.346 . S
C1617 C1618 1.396 . S
C1617 C1627 1.510 . S
C1618 C1614 1.401 . S
C1618 C1617 1.396 . S
C1619 C1614 1.499 . S
C1619 H1620 0.959 . S
C1619 H1621 0.960 . S
C1619 H1622 0.961 . S
H1620 C1619 0.959 . S
H1621 C1619 0.960 . S
H1622 C1619 0.961 . S
O1623 Co1598 1.967 . S
O1623 C1631 1.258 . S
O1624 Co1599 1.941 . S
O1624 C1631 1.266 . S
H1625 C1627 0.959 . S
H1626 C1627 0.961 . S
C1627 C1617 1.510 . S
C1627 H1625 0.959 . S
C1627 H1626 0.961 . S
C1627 H1628 0.960 . S
H1628 C1627 0.960 . S
H1629 N1609 0.862 . S
O1630 Co1598 1.920 . S
O1630 C1603 1.289 . S
C1631 O1623 1.258 . S
C1631 O1624 1.266 . S
H1632 C1640 0.950 . S
H1633 C1645 0.950 . S
H1634 C1642 0.950 . S
H1635 C1644 0.950 . S
H1636 C1646 0.950 . S
H1637 C1648 0.950 . S
H1638 C1650 0.950 . S
H1639 C1651 0.950 . S
C1640 H1632 0.950 . S
C1640 C1641 1.386 . S
C1640 C1642 1.391 . S
C1641 C1640 1.386 . S
C1641 C1645 1.393 . S
C1642 H1634 0.950 . S
C1642 C1640 1.391 . S
C1642 C1643 1.400 . S
C1643 C1642 1.400 . S
C1643 C1644 1.398 . S
C1643 C1649 1.491 . S
C1644 H1635 0.950 . S
C1644 C1643 1.398 . S
C1644 C1645 1.391 . S
C1645 H1633 0.950 . S
C1645 C1641 1.393 . S
C1645 C1644 1.391 . S
C1646 H1636 0.950 . S
C1646 C1647 1.386 . S
C1646 C1648 1.391 . S
C1647 C1646 1.386 . S
C1647 C1651 1.393 . S
C1648 H1637 0.950 . S
C1648 C1646 1.391 . S
C1648 C1649 1.400 . S
C1649 C1643 1.491 . S
C1649 C1648 1.400 . S
C1649 C1650 1.398 . S
C1650 H1638 0.950 . S
C1650 C1649 1.398 . S
C1650 C1651 1.391 . S
C1651 H1639 0.950 . S
C1651 C1647 1.393 . S
C1651 C1650 1.391 . S
H1652 C1660 0.950 . S
H1653 C1665 0.950 . S
H1654 C1662 0.950 . S
H1655 C1664 0.950 . S
H1656 C1666 0.950 . S
H1657 C1668 0.950 . S
H1658 C1670 0.950 . S
H1659 C1671 0.950 . S
C1660 H1652 0.950 . S
C1660 C1661 1.386 . S
C1660 C1662 1.391 . S
C1661 C1660 1.386 . S
C1661 C1665 1.393 . S
C1662 H1654 0.950 . S
C1662 C1660 1.391 . S
C1662 C1663 1.400 . S
C1663 C1662 1.400 . S
C1663 C1664 1.398 . S
C1663 C1669 1.491 . S
C1664 H1655 0.950 . S
C1664 C1663 1.398 . S
C1664 C1665 1.391 . S
C1665 H1653 0.950 . S
C1665 C1661 1.393 . S
C1665 C1664 1.391 . S
C1666 H1656 0.950 . S
C1666 C1667 1.386 . S
C1666 C1668 1.391 . S
C1667 C1666 1.386 . S
C1667 C1671 1.393 . S
C1668 H1657 0.950 . S
C1668 C1666 1.391 . S
C1668 C1669 1.400 . S
C1669 C1663 1.491 . S
C1669 C1668 1.400 . S
C1669 C1670 1.398 . S
C1670 H1658 0.950 . S
C1670 C1669 1.398 . S
C1670 C1671 1.391 . S
C1671 H1659 0.950 . S
C1671 C1667 1.393 . S
C1671 C1670 1.391 . S
H1672 C1680 0.950 . S
H1673 C1685 0.950 . S
H1674 C1682 0.950 . S
H1675 C1684 0.950 . S
H1676 C1686 0.950 . S
H1677 C1688 0.950 . S
H1678 C1690 0.950 . S
H1679 C1691 0.950 . S
C1680 H1672 0.950 . S
C1680 C1681 1.386 . S
C1680 C1682 1.391 . S
C1681 C1680 1.386 . S
C1681 C1685 1.393 . S
C1682 H1674 0.950 . S
C1682 C1680 1.391 . S
C1682 C1683 1.400 . S
C1683 C1682 1.400 . S
C1683 C1684 1.398 . S
C1683 C1689 1.491 . S
C1684 H1675 0.950 . S
C1684 C1683 1.398 . S
C1684 C1685 1.391 . S
C1685 H1673 0.950 . S
C1685 C1681 1.393 . S
C1685 C1684 1.391 . S
C1686 H1676 0.950 . S
C1686 C1687 1.386 . S
C1686 C1688 1.391 . S
C1687 C1686 1.386 . S
C1687 C1691 1.393 . S
C1688 H1677 0.950 . S
C1688 C1686 1.391 . S
C1688 C1689 1.400 . S
C1689 C1683 1.491 . S
C1689 C1688 1.400 . S
C1689 C1690 1.398 . S
C1690 H1678 0.950 . S
C1690 C1689 1.398 . S
C1690 C1691 1.391 . S
C1691 H1679 0.950 . S
C1691 C1687 1.393 . S
C1691 C1690 1.391 . S
H1692 C1700 0.950 . S
H1693 C1705 0.950 . S
H1694 C1702 0.950 . S
H1695 C1704 0.950 . S
H1696 C1706 0.950 . S
H1697 C1708 0.950 . S
H1698 C1710 0.950 . S
H1699 C1711 0.950 . S
C1700 H1692 0.950 . S
C1700 C1701 1.386 . S
C1700 C1702 1.391 . S
C1701 C1700 1.386 . S
C1701 C1705 1.393 . S
C1702 H1694 0.950 . S
C1702 C1700 1.391 . S
C1702 C1703 1.400 . S
C1703 C1702 1.400 . S
C1703 C1704 1.398 . S
C1703 C1709 1.491 . S
C1704 H1695 0.950 . S
C1704 C1703 1.398 . S
C1704 C1705 1.391 . S
C1705 H1693 0.950 . S
C1705 C1701 1.393 . S
C1705 C1704 1.391 . S
C1706 H1696 0.950 . S
C1706 C1707 1.386 . S
C1706 C1708 1.391 . S
C1707 C1706 1.386 . S
C1707 C1711 1.393 . S
C1708 H1697 0.950 . S
C1708 C1706 1.391 . S
C1708 C1709 1.400 . S
C1709 C1703 1.491 . S
C1709 C1708 1.400 . S
C1709 C1710 1.398 . S
C1710 H1698 0.950 . S
C1710 C1709 1.398 . S
C1710 C1711 1.391 . S
C1711 H1699 0.950 . S
C1711 C1707 1.393 . S
C1711 C1710 1.391 . S
H1712 C1720 0.950 . S
H1713 C1725 0.950 . S
H1714 C1722 0.950 . S
H1715 C1724 0.950 . S
H1716 C1726 0.950 . S
H1717 C1728 0.950 . S
H1718 C1730 0.950 . S
H1719 C1731 0.950 . S
C1720 H1712 0.950 . S
C1720 C1721 1.386 . S
C1720 C1722 1.391 . S
C1721 C1720 1.386 . S
C1721 C1725 1.393 . S
C1722 H1714 0.950 . S
C1722 C1720 1.391 . S
C1722 C1723 1.400 . S
C1723 C1722 1.400 . S
C1723 C1724 1.398 . S
C1723 C1729 1.491 . S
C1724 H1715 0.950 . S
C1724 C1723 1.398 . S
C1724 C1725 1.391 . S
C1725 H1713 0.950 . S
C1725 C1721 1.393 . S
C1725 C1724 1.391 . S
C1726 H1716 0.950 . S
C1726 C1727 1.386 . S
C1726 C1728 1.391 . S
C1727 C1726 1.386 . S
C1727 C1731 1.393 . S
C1728 H1717 0.950 . S
C1728 C1726 1.391 . S
C1728 C1729 1.400 . S
C1729 C1723 1.491 . S
C1729 C1728 1.400 . S
C1729 C1730 1.398 . S
C1730 H1718 0.950 . S
C1730 C1729 1.398 . S
C1730 C1731 1.391 . S
C1731 H1719 0.950 . S
C1731 C1727 1.393 . S
C1731 C1730 1.391 . S
H1732 C1740 0.950 . S
H1733 C1745 0.950 . S
H1734 C1742 0.950 . S
H1735 C1744 0.950 . S
H1736 C1746 0.950 . S
H1737 C1748 0.950 . S
H1738 C1750 0.950 . S
H1739 C1751 0.950 . S
C1740 H1732 0.950 . S
C1740 C1741 1.386 . S
C1740 C1742 1.391 . S
C1741 C1740 1.386 . S
C1741 C1745 1.393 . S
C1742 H1734 0.950 . S
C1742 C1740 1.391 . S
C1742 C1743 1.400 . S
C1743 C1742 1.400 . S
C1743 C1744 1.398 . S
C1743 C1749 1.491 . S
C1744 H1735 0.950 . S
C1744 C1743 1.398 . S
C1744 C1745 1.391 . S
C1745 H1733 0.950 . S
C1745 C1741 1.393 . S
C1745 C1744 1.391 . S
C1746 H1736 0.950 . S
C1746 C1747 1.386 . S
C1746 C1748 1.391 . S
C1747 C1746 1.386 . S
C1747 C1751 1.393 . S
C1748 H1737 0.950 . S
C1748 C1746 1.391 . S
C1748 C1749 1.400 . S
C1749 C1743 1.491 . S
C1749 C1748 1.400 . S
C1749 C1750 1.398 . S
C1750 H1738 0.950 . S
C1750 C1749 1.398 . S
C1750 C1751 1.391 . S
C1751 H1739 0.950 . S
C1751 C1747 1.393 . S
C1751 C1750 1.391 . S
H1752 C1760 0.950 . S
H1753 C1765 0.950 . S
H1754 C1762 0.950 . S
H1755 C1764 0.950 . S
H1756 C1766 0.950 . S
H1757 C1768 0.950 . S
H1758 C1770 0.950 . S
H1759 C1771 0.950 . S
C1760 H1752 0.950 . S
C1760 C1761 1.386 . S
C1760 C1762 1.391 . S
C1761 C1760 1.386 . S
C1761 C1765 1.393 . S
C1762 H1754 0.950 . S
C1762 C1760 1.391 . S
C1762 C1763 1.400 . S
C1763 C1762 1.400 . S
C1763 C1764 1.398 . S
C1763 C1769 1.491 . S
C1764 H1755 0.950 . S
C1764 C1763 1.398 . S
C1764 C1765 1.391 . S
C1765 H1753 0.950 . S
C1765 C1761 1.393 . S
C1765 C1764 1.391 . S
C1766 H1756 0.950 . S
C1766 C1767 1.386 . S
C1766 C1768 1.391 . S
C1767 C1766 1.386 . S
C1767 C1771 1.393 . S
C1768 H1757 0.950 . S
C1768 C1766 1.391 . S
C1768 C1769 1.400 . S
C1769 C1763 1.491 . S
C1769 C1768 1.400 . S
C1769 C1770 1.398 . S
C1770 H1758 0.950 . S
C1770 C1769 1.398 . S
C1770 C1771 1.391 . S
C1771 H1759 0.950 . S
C1771 C1767 1.393 . S
C1771 C1770 1.391 . S
H1772 C1780 0.950 . S
H1773 C1785 0.950 . S
H1774 C1782 0.950 . S
H1775 C1784 0.950 . S
H1776 C1786 0.950 . S
H1777 C1788 0.950 . S
H1778 C1790 0.950 . S
H1779 C1791 0.950 . S
C1780 H1772 0.950 . S
C1780 C1781 1.386 . S
C1780 C1782 1.391 . S
C1781 C1780 1.386 . S
C1781 C1785 1.393 . S
C1782 H1774 0.950 . S
C1782 C1780 1.391 . S
C1782 C1783 1.400 . S
C1783 C1782 1.400 . S
C1783 C1784 1.398 . S
C1783 C1789 1.491 . S
C1784 H1775 0.950 . S
C1784 C1783 1.398 . S
C1784 C1785 1.391 . S
C1785 H1773 0.950 . S
C1785 C1781 1.393 . S
C1785 C1784 1.391 . S
C1786 H1776 0.950 . S
C1786 C1787 1.386 . S
C1786 C1788 1.391 . S
C1787 C1786 1.386 . S
C1787 C1791 1.393 . S
C1788 H1777 0.950 . S
C1788 C1786 1.391 . S
C1788 C1789 1.400 . S
C1789 C1783 1.491 . S
C1789 C1788 1.400 . S
C1789 C1790 1.398 . S
C1790 H1778 0.950 . S
C1790 C1789 1.398 . S
C1790 C1791 1.391 . S
C1791 H1779 0.950 . S
C1791 C1787 1.393 . S
C1791 C1790 1.391 . S
H1792 C1800 0.950 . S
H1793 C1805 0.950 . S
H1794 C1802 0.950 . S
H1795 C1804 0.950 . S
H1796 C1806 0.950 . S
H1797 C1808 0.950 . S
H1798 C1810 0.950 . S
H1799 C1811 0.950 . S
C1800 H1792 0.950 . S
C1800 C1801 1.386 . S
C1800 C1802 1.391 . S
C1801 C1800 1.386 . S
C1801 C1805 1.393 . S
C1802 H1794 0.950 . S
C1802 C1800 1.391 . S
C1802 C1803 1.400 . S
C1803 C1802 1.400 . S
C1803 C1804 1.398 . S
C1803 C1809 1.491 . S
C1804 H1795 0.950 . S
C1804 C1803 1.398 . S
C1804 C1805 1.391 . S
C1805 H1793 0.950 . S
C1805 C1801 1.393 . S
C1805 C1804 1.391 . S
C1806 H1796 0.950 . S
C1806 C1807 1.386 . S
C1806 C1808 1.391 . S
C1807 C1806 1.386 . S
C1807 C1811 1.393 . S
C1808 H1797 0.950 . S
C1808 C1806 1.391 . S
C1808 C1809 1.400 . S
C1809 C1803 1.491 . S
C1809 C1808 1.400 . S
C1809 C1810 1.398 . S
C1810 H1798 0.950 . S
C1810 C1809 1.398 . S
C1810 C1811 1.391 . S
C1811 H1799 0.950 . S
C1811 C1807 1.393 . S
C1811 C1810 1.391 . S
H1812 C1820 0.950 . S
H1813 C1825 0.950 . S
H1814 C1822 0.950 . S
H1815 C1824 0.950 . S
H1816 C1826 0.950 . S
H1817 C1828 0.950 . S
H1818 C1830 0.950 . S
H1819 C1831 0.950 . S
C1820 H1812 0.950 . S
C1820 C1821 1.386 . S
C1820 C1822 1.391 . S
C1821 C1820 1.386 . S
C1821 C1825 1.393 . S
C1822 H1814 0.950 . S
C1822 C1820 1.391 . S
C1822 C1823 1.400 . S
C1823 C1822 1.400 . S
C1823 C1824 1.398 . S
C1823 C1829 1.491 . S
C1824 H1815 0.950 . S
C1824 C1823 1.398 . S
C1824 C1825 1.391 . S
C1825 H1813 0.950 . S
C1825 C1821 1.393 . S
C1825 C1824 1.391 . S
C1826 H1816 0.950 . S
C1826 C1827 1.386 . S
C1826 C1828 1.391 . S
C1827 C1826 1.386 . S
C1827 C1831 1.393 . S
C1828 H1817 0.950 . S
C1828 C1826 1.391 . S
C1828 C1829 1.400 . S
C1829 C1823 1.491 . S
C1829 C1828 1.400 . S
C1829 C1830 1.398 . S
C1830 H1818 0.950 . S
C1830 C1829 1.398 . S
C1830 C1831 1.391 . S
C1831 H1819 0.950 . S
C1831 C1827 1.393 . S
C1831 C1830 1.391 . S
H1832 C1840 0.950 . S
H1833 C1845 0.950 . S
H1834 C1842 0.950 . S
H1835 C1844 0.950 . S
H1836 C1846 0.950 . S
H1837 C1848 0.950 . S
H1838 C1850 0.950 . S
H1839 C1851 0.950 . S
C1840 H1832 0.950 . S
C1840 C1841 1.386 . S
C1840 C1842 1.391 . S
C1841 C1840 1.386 . S
C1841 C1845 1.393 . S
C1842 H1834 0.950 . S
C1842 C1840 1.391 . S
C1842 C1843 1.400 . S
C1843 C1842 1.400 . S
C1843 C1844 1.398 . S
C1843 C1849 1.491 . S
C1844 H1835 0.950 . S
C1844 C1843 1.398 . S
C1844 C1845 1.391 . S
C1845 H1833 0.950 . S
C1845 C1841 1.393 . S
C1845 C1844 1.391 . S
C1846 H1836 0.950 . S
C1846 C1847 1.386 . S
C1846 C1848 1.391 . S
C1847 C1846 1.386 . S
C1847 C1851 1.393 . S
C1848 H1837 0.950 . S
C1848 C1846 1.391 . S
C1848 C1849 1.400 . S
C1849 C1843 1.491 . S
C1849 C1848 1.400 . S
C1849 C1850 1.398 . S
C1850 H1838 0.950 . S
C1850 C1849 1.398 . S
C1850 C1851 1.391 . S
C1851 H1839 0.950 . S
C1851 C1847 1.393 . S
C1851 C1850 1.391 . S
H1852 C1860 0.950 . S
H1853 C1865 0.950 . S
H1854 C1862 0.950 . S
H1855 C1864 0.950 . S
H1856 C1866 0.950 . S
H1857 C1868 0.950 . S
H1858 C1870 0.950 . S
H1859 C1871 0.950 . S
C1860 H1852 0.950 . S
C1860 C1861 1.386 . S
C1860 C1862 1.391 . S
C1861 C1860 1.386 . S
C1861 C1865 1.393 . S
C1862 H1854 0.950 . S
C1862 C1860 1.391 . S
C1862 C1863 1.400 . S
C1863 C1862 1.400 . S
C1863 C1864 1.398 . S
C1863 C1869 1.491 . S
C1864 H1855 0.950 . S
C1864 C1863 1.398 . S
C1864 C1865 1.391 . S
C1865 H1853 0.950 . S
C1865 C1861 1.393 . S
C1865 C1864 1.391 . S
C1866 H1856 0.950 . S
C1866 C1867 1.386 . S
C1866 C1868 1.391 . S
C1867 C1866 1.386 . S
C1867 C1871 1.393 . S
C1868 H1857 0.950 . S
C1868 C1866 1.391 . S
C1868 C1869 1.400 . S
C1869 C1863 1.491 . S
C1869 C1868 1.400 . S
C1869 C1870 1.398 . S
C1870 H1858 0.950 . S
C1870 C1869 1.398 . S
C1870 C1871 1.391 . S
C1871 H1859 0.950 . S
C1871 C1867 1.393 . S
C1871 C1870 1.391 . S
H1872 C1880 0.950 . S
H1873 C1885 0.950 . S
H1874 C1882 0.950 . S
H1875 C1884 0.950 . S
H1876 C1886 0.950 . S
H1877 C1888 0.950 . S
H1878 C1890 0.950 . S
H1879 C1891 0.950 . S
C1880 H1872 0.950 . S
C1880 C1881 1.386 . S
C1880 C1882 1.391 . S
C1881 C1880 1.386 . S
C1881 C1885 1.393 . S
C1882 H1874 0.950 . S
C1882 C1880 1.391 . S
C1882 C1883 1.400 . S
C1883 C1882 1.400 . S
C1883 C1884 1.398 . S
C1883 C1889 1.491 . S
C1884 H1875 0.950 . S
C1884 C1883 1.398 . S
C1884 C1885 1.391 . S
C1885 H1873 0.950 . S
C1885 C1881 1.393 . S
C1885 C1884 1.391 . S
C1886 H1876 0.950 . S
C1886 C1887 1.386 . S
C1886 C1888 1.391 . S
C1887 C1886 1.386 . S
C1887 C1891 1.393 . S
C1888 H1877 0.950 . S
C1888 C1886 1.391 . S
C1888 C1889 1.400 . S
C1889 C1883 1.491 . S
C1889 C1888 1.400 . S
C1889 C1890 1.398 . S
C1890 H1878 0.950 . S
C1890 C1889 1.398 . S
C1890 C1891 1.391 . S
C1891 H1879 0.950 . S
C1891 C1887 1.393 . S
C1891 C1890 1.391 . S
H1892 C1900 0.950 . S
H1893 C1905 0.950 . S
H1894 C1902 0.950 . S
H1895 C1904 0.950 . S
H1896 C1906 0.950 . S
H1897 C1908 0.950 . S
H1898 C1910 0.950 . S
H1899 C1911 0.950 . S
C1900 H1892 0.950 . S
C1900 C1901 1.386 . S
C1900 C1902 1.391 . S
C1901 C1900 1.386 . S
C1901 C1905 1.393 . S
C1902 H1894 0.950 . S
C1902 C1900 1.391 . S
C1902 C1903 1.400 . S
C1903 C1902 1.400 . S
C1903 C1904 1.398 . S
C1903 C1909 1.491 . S
C1904 H1895 0.950 . S
C1904 C1903 1.398 . S
C1904 C1905 1.391 . S
C1905 H1893 0.950 . S
C1905 C1901 1.393 . S
C1905 C1904 1.391 . S
C1906 H1896 0.950 . S
C1906 C1907 1.386 . S
C1906 C1908 1.391 . S
C1907 C1906 1.386 . S
C1907 C1911 1.393 . S
C1908 H1897 0.950 . S
C1908 C1906 1.391 . S
C1908 C1909 1.400 . S
C1909 C1903 1.491 . S
C1909 C1908 1.400 . S
C1909 C1910 1.398 . S
C1910 H1898 0.950 . S
C1910 C1909 1.398 . S
C1910 C1911 1.391 . S
C1911 H1899 0.950 . S
C1911 C1907 1.393 . S
C1911 C1910 1.391 . S
H1912 C1920 0.950 . S
H1913 C1925 0.950 . S
H1914 C1922 0.950 . S
H1915 C1924 0.950 . S
H1916 C1926 0.950 . S
H1917 C1928 0.950 . S
H1918 C1930 0.950 . S
H1919 C1931 0.950 . S
C1920 H1912 0.950 . S
C1920 C1921 1.386 . S
C1920 C1922 1.391 . S
C1921 C1920 1.386 . S
C1921 C1925 1.393 . S
C1922 H1914 0.950 . S
C1922 C1920 1.391 . S
C1922 C1923 1.400 . S
C1923 C1922 1.400 . S
C1923 C1924 1.398 . S
C1923 C1929 1.491 . S
C1924 H1915 0.950 . S
C1924 C1923 1.398 . S
C1924 C1925 1.391 . S
C1925 H1913 0.950 . S
C1925 C1921 1.393 . S
C1925 C1924 1.391 . S
C1926 H1916 0.950 . S
C1926 C1927 1.386 . S
C1926 C1928 1.391 . S
C1927 C1926 1.386 . S
C1927 C1931 1.393 . S
C1928 H1917 0.950 . S
C1928 C1926 1.391 . S
C1928 C1929 1.400 . S
C1929 C1923 1.491 . S
C1929 C1928 1.400 . S
C1929 C1930 1.398 . S
C1930 H1918 0.950 . S
C1930 C1929 1.398 . S
C1930 C1931 1.391 . S
C1931 H1919 0.950 . S
C1931 C1927 1.393 . S
C1931 C1930 1.391 . S
H1932 C1940 0.950 . S
H1933 C1945 0.950 . S
H1934 C1942 0.950 . S
H1935 C1944 0.950 . S
H1936 C1946 0.950 . S
H1937 C1948 0.950 . S
H1938 C1950 0.950 . S
H1939 C1951 0.950 . S
C1940 H1932 0.950 . S
C1940 C1941 1.386 . S
C1940 C1942 1.391 . S
C1941 C1940 1.386 . S
C1941 C1945 1.393 . S
C1942 H1934 0.950 . S
C1942 C1940 1.391 . S
C1942 C1943 1.400 . S
C1943 C1942 1.400 . S
C1943 C1944 1.398 . S
C1943 C1949 1.491 . S
C1944 H1935 0.950 . S
C1944 C1943 1.398 . S
C1944 C1945 1.391 . S
C1945 H1933 0.950 . S
C1945 C1941 1.393 . S
C1945 C1944 1.391 . S
C1946 H1936 0.950 . S
C1946 C1947 1.386 . S
C1946 C1948 1.391 . S
C1947 C1946 1.386 . S
C1947 C1951 1.393 . S
C1948 H1937 0.950 . S
C1948 C1946 1.391 . S
C1948 C1949 1.400 . S
C1949 C1943 1.491 . S
C1949 C1948 1.400 . S
C1949 C1950 1.398 . S
C1950 H1938 0.950 . S
C1950 C1949 1.398 . S
C1950 C1951 1.391 . S
C1951 H1939 0.950 . S
C1951 C1947 1.393 . S
C1951 C1950 1.391 . S
H1952 C1960 0.950 . S
H1953 C1965 0.950 . S
H1954 C1962 0.950 . S
H1955 C1964 0.950 . S
H1956 C1966 0.950 . S
H1957 C1968 0.950 . S
H1958 C1970 0.950 . S
H1959 C1971 0.950 . S
C1960 H1952 0.950 . S
C1960 C1961 1.386 . S
C1960 C1962 1.391 . S
C1961 C1960 1.386 . S
C1961 C1965 1.393 . S
C1962 H1954 0.950 . S
C1962 C1960 1.391 . S
C1962 C1963 1.400 . S
C1963 C1962 1.400 . S
C1963 C1964 1.398 . S
C1963 C1969 1.491 . S
C1964 H1955 0.950 . S
C1964 C1963 1.398 . S
C1964 C1965 1.391 . S
C1965 H1953 0.950 . S
C1965 C1961 1.393 . S
C1965 C1964 1.391 . S
C1966 H1956 0.950 . S
C1966 C1967 1.386 . S
C1966 C1968 1.391 . S
C1967 C1966 1.386 . S
C1967 C1971 1.393 . S
C1968 H1957 0.950 . S
C1968 C1966 1.391 . S
C1968 C1969 1.400 . S
C1969 C1963 1.491 . S
C1969 C1968 1.400 . S
C1969 C1970 1.398 . S
C1970 H1958 0.950 . S
C1970 C1969 1.398 . S
C1970 C1971 1.391 . S
C1971 H1959 0.950 . S
C1971 C1967 1.393 . S
C1971 C1970 1.391 . S
H1972 C1980 0.950 . S
H1973 C1985 0.950 . S
H1974 C1982 0.950 . S
H1975 C1984 0.950 . S
H1976 C1986 0.950 . S
H1977 C1988 0.950 . S
H1978 C1990 0.950 . S
H1979 C1991 0.950 . S
C1980 H1972 0.950 . S
C1980 C1981 1.386 . S
C1980 C1982 1.391 . S
C1981 C1980 1.386 . S
C1981 C1985 1.393 . S
C1982 H1974 0.950 . S
C1982 C1980 1.391 . S
C1982 C1983 1.400 . S
C1983 C1982 1.400 . S
C1983 C1984 1.398 . S
C1983 C1989 1.491 . S
C1984 H1975 0.950 . S
C1984 C1983 1.398 . S
C1984 C1985 1.391 . S
C1985 H1973 0.950 . S
C1985 C1981 1.393 . S
C1985 C1984 1.391 . S
C1986 H1976 0.950 . S
C1986 C1987 1.386 . S
C1986 C1988 1.391 . S
C1987 C1986 1.386 . S
C1987 C1991 1.393 . S
C1988 H1977 0.950 . S
C1988 C1986 1.391 . S
C1988 C1989 1.400 . S
C1989 C1983 1.491 . S
C1989 C1988 1.400 . S
C1989 C1990 1.398 . S
C1990 H1978 0.950 . S
C1990 C1989 1.398 . S
C1990 C1991 1.391 . S
C1991 H1979 0.950 . S
C1991 C1987 1.393 . S
C1991 C1990 1.391 . S
H1992 C2000 0.950 . S
H1993 C2005 0.950 . S
H1994 C2002 0.950 . S
H1995 C2004 0.950 . S
H1996 C2006 0.950 . S
H1997 C2008 0.950 . S
H1998 C2010 0.950 . S
H1999 C2011 0.950 . S
C2000 H1992 0.950 . S
C2000 C2001 1.386 . S
C2000 C2002 1.391 . S
C2001 C2000 1.386 . S
C2001 C2005 1.393 . S
C2002 H1994 0.950 . S
C2002 C2000 1.391 . S
C2002 C2003 1.400 . S
C2003 C2002 1.400 . S
C2003 C2004 1.398 . S
C2003 C2009 1.491 . S
C2004 H1995 0.950 . S
C2004 C2003 1.398 . S
C2004 C2005 1.391 . S
C2005 H1993 0.950 . S
C2005 C2001 1.393 . S
C2005 C2004 1.391 . S
C2006 H1996 0.950 . S
C2006 C2007 1.386 . S
C2006 C2008 1.391 . S
C2007 C2006 1.386 . S
C2007 C2011 1.393 . S
C2008 H1997 0.950 . S
C2008 C2006 1.391 . S
C2008 C2009 1.400 . S
C2009 C2003 1.491 . S
C2009 C2008 1.400 . S
C2009 C2010 1.398 . S
C2010 H1998 0.950 . S
C2010 C2009 1.398 . S
C2010 C2011 1.391 . S
C2011 H1999 0.950 . S
C2011 C2007 1.393 . S
C2011 C2010 1.391 . S
H2012 C2020 0.950 . S
H2013 C2025 0.950 . S
H2014 C2022 0.950 . S
H2015 C2024 0.950 . S
H2016 C2026 0.950 . S
H2017 C2028 0.950 . S
H2018 C2030 0.950 . S
H2019 C2031 0.950 . S
C2020 H2012 0.950 . S
C2020 C2021 1.386 . S
C2020 C2022 1.391 . S
C2021 C2020 1.386 . S
C2021 C2025 1.393 . S
C2022 H2014 0.950 . S
C2022 C2020 1.391 . S
C2022 C2023 1.400 . S
C2023 C2022 1.400 . S
C2023 C2024 1.398 . S
C2023 C2029 1.491 . S
C2024 H2015 0.950 . S
C2024 C2023 1.398 . S
C2024 C2025 1.391 . S
C2025 H2013 0.950 . S
C2025 C2021 1.393 . S
C2025 C2024 1.391 . S
C2026 H2016 0.950 . S
C2026 C2027 1.386 . S
C2026 C2028 1.391 . S
C2027 C2026 1.386 . S
C2027 C2031 1.393 . S
C2028 H2017 0.950 . S
C2028 C2026 1.391 . S
C2028 C2029 1.400 . S
C2029 C2023 1.491 . S
C2029 C2028 1.400 . S
C2029 C2030 1.398 . S
C2030 H2018 0.950 . S
C2030 C2029 1.398 . S
C2030 C2031 1.391 . S
C2031 H2019 0.950 . S
C2031 C2027 1.393 . S
C2031 C2030 1.391 . S
H2032 C2040 0.950 . S
H2033 C2045 0.950 . S
H2034 C2042 0.950 . S
H2035 C2044 0.950 . S
H2036 C2046 0.950 . S
H2037 C2048 0.950 . S
H2038 C2050 0.950 . S
H2039 C2051 0.950 . S
C2040 H2032 0.950 . S
C2040 C2041 1.386 . S
C2040 C2042 1.391 . S
C2041 C2040 1.386 . S
C2041 C2045 1.393 . S
C2042 H2034 0.950 . S
C2042 C2040 1.391 . S
C2042 C2043 1.400 . S
C2043 C2042 1.400 . S
C2043 C2044 1.398 . S
C2043 C2049 1.491 . S
C2044 H2035 0.950 . S
C2044 C2043 1.398 . S
C2044 C2045 1.391 . S
C2045 H2033 0.950 . S
C2045 C2041 1.393 . S
C2045 C2044 1.391 . S
C2046 H2036 0.950 . S
C2046 C2047 1.386 . S
C2046 C2048 1.391 . S
C2047 C2046 1.386 . S
C2047 C2051 1.393 . S
C2048 H2037 0.950 . S
C2048 C2046 1.391 . S
C2048 C2049 1.400 . S
C2049 C2043 1.491 . S
C2049 C2048 1.400 . S
C2049 C2050 1.398 . S
C2050 H2038 0.950 . S
C2050 C2049 1.398 . S
C2050 C2051 1.391 . S
C2051 H2039 0.950 . S
C2051 C2047 1.393 . S
C2051 C2050 1.391 . S
H2052 C2060 0.950 . S
H2053 C2065 0.950 . S
H2054 C2062 0.950 . S
H2055 C2064 0.950 . S
H2056 C2066 0.950 . S
H2057 C2068 0.950 . S
H2058 C2070 0.950 . S
H2059 C2071 0.950 . S
C2060 H2052 0.950 . S
C2060 C2061 1.386 . S
C2060 C2062 1.391 . S
C2061 C2060 1.386 . S
C2061 C2065 1.393 . S
C2062 H2054 0.950 . S
C2062 C2060 1.391 . S
C2062 C2063 1.400 . S
C2063 C2062 1.400 . S
C2063 C2064 1.398 . S
C2063 C2069 1.491 . S
C2064 H2055 0.950 . S
C2064 C2063 1.398 . S
C2064 C2065 1.391 . S
C2065 H2053 0.950 . S
C2065 C2061 1.393 . S
C2065 C2064 1.391 . S
C2066 H2056 0.950 . S
C2066 C2067 1.386 . S
C2066 C2068 1.391 . S
C2067 C2066 1.386 . S
C2067 C2071 1.393 . S
C2068 H2057 0.950 . S
C2068 C2066 1.391 . S
C2068 C2069 1.400 . S
C2069 C2063 1.491 . S
C2069 C2068 1.400 . S
C2069 C2070 1.398 . S
C2070 H2058 0.950 . S
C2070 C2069 1.398 . S
C2070 C2071 1.391 . S
C2071 H2059 0.950 . S
C2071 C2067 1.393 . S
C2071 C2070 1.391 . S
H2072 C2080 0.950 . S
H2073 C2085 0.950 . S
H2074 C2082 0.950 . S
H2075 C2084 0.950 . S
H2076 C2086 0.950 . S
H2077 C2088 0.950 . S
H2078 C2090 0.950 . S
H2079 C2091 0.950 . S
C2080 H2072 0.950 . S
C2080 C2081 1.386 . S
C2080 C2082 1.391 . S
C2081 C2080 1.386 . S
C2081 C2085 1.393 . S
C2082 H2074 0.950 . S
C2082 C2080 1.391 . S
C2082 C2083 1.400 . S
C2083 C2082 1.400 . S
C2083 C2084 1.398 . S
C2083 C2089 1.491 . S
C2084 H2075 0.950 . S
C2084 C2083 1.398 . S
C2084 C2085 1.391 . S
C2085 H2073 0.950 . S
C2085 C2081 1.393 . S
C2085 C2084 1.391 . S
C2086 H2076 0.950 . S
C2086 C2087 1.386 . S
C2086 C2088 1.391 . S
C2087 C2086 1.386 . S
C2087 C2091 1.393 . S
C2088 H2077 0.950 . S
C2088 C2086 1.391 . S
C2088 C2089 1.400 . S
C2089 C2083 1.491 . S
C2089 C2088 1.400 . S
C2089 C2090 1.398 . S
C2090 H2078 0.950 . S
C2090 C2089 1.398 . S
C2090 C2091 1.391 . S
C2091 H2079 0.950 . S
C2091 C2087 1.393 . S
C2091 C2090 1.391 . S
H2092 C2100 0.950 . S
H2093 C2105 0.950 . S
H2094 C2102 0.950 . S
H2095 C2104 0.950 . S
H2096 C2106 0.950 . S
H2097 C2108 0.950 . S
H2098 C2110 0.950 . S
H2099 C2111 0.950 . S
C2100 H2092 0.950 . S
C2100 C2101 1.386 . S
C2100 C2102 1.391 . S
C2101 C2100 1.386 . S
C2101 C2105 1.393 . S
C2102 H2094 0.950 . S
C2102 C2100 1.391 . S
C2102 C2103 1.400 . S
C2103 C2102 1.400 . S
C2103 C2104 1.398 . S
C2103 C2109 1.491 . S
C2104 H2095 0.950 . S
C2104 C2103 1.398 . S
C2104 C2105 1.391 . S
C2105 H2093 0.950 . S
C2105 C2101 1.393 . S
C2105 C2104 1.391 . S
C2106 H2096 0.950 . S
C2106 C2107 1.386 . S
C2106 C2108 1.391 . S
C2107 C2106 1.386 . S
C2107 C2111 1.393 . S
C2108 H2097 0.950 . S
C2108 C2106 1.391 . S
C2108 C2109 1.400 . S
C2109 C2103 1.491 . S
C2109 C2108 1.400 . S
C2109 C2110 1.398 . S
C2110 H2098 0.950 . S
C2110 C2109 1.398 . S
C2110 C2111 1.391 . S
C2111 H2099 0.950 . S
C2111 C2107 1.393 . S
C2111 C2110 1.391 . S
H2112 C2120 0.950 . S
H2113 C2125 0.950 . S
H2114 C2122 0.950 1_455 S
H2115 C2124 0.950 . S
H2116 C2126 0.950 . S
H2117 C2128 0.950 1_655 S
H2118 C2130 0.950 . S
H2119 C2131 0.950 . S
C2120 H2112 0.950 . S
C2120 C2121 1.386 . S
C2120 C2122 1.391 . S
C2121 C2120 1.386 . S
C2121 C2125 1.393 . S
C2122 H2114 0.950 1_655 S
C2122 C2120 1.391 . S
C2122 C2123 1.400 . S
C2123 C2122 1.400 . S
C2123 C2124 1.398 . S
C2123 C2129 1.491 1_655 S
C2124 H2115 0.950 . S
C2124 C2123 1.398 . S
C2124 C2125 1.391 . S
C2125 H2113 0.950 . S
C2125 C2121 1.393 . S
C2125 C2124 1.391 . S
C2126 H2116 0.950 . S
C2126 C2127 1.386 . S
C2126 C2128 1.391 . S
C2127 C2126 1.386 . S
C2127 C2131 1.393 . S
C2128 H2117 0.950 1_455 S
C2128 C2126 1.391 . S
C2128 C2129 1.400 . S
C2129 C2123 1.491 1_455 S
C2129 C2128 1.400 . S
C2129 C2130 1.398 . S
C2130 H2118 0.950 . S
C2130 C2129 1.398 . S
C2130 C2131 1.391 . S
C2131 H2119 0.950 . S
C2131 C2127 1.393 . S
C2131 C2130 1.391 . S
H2132 C2140 0.972 . S
H2133 C2145 0.950 . S
H2134 C2142 0.950 . S
H2135 C2144 0.950 . S
H2136 C2146 0.972 . S
H2137 C2148 0.950 . S
H2138 C2150 0.950 . S
H2139 C2151 0.950 . S
C2140 H2132 0.972 . S
C2140 C2141 1.386 . S
C2140 C2142 1.391 1_545 S
C2141 C2140 1.386 . S
C2141 C2145 1.393 . S
C2142 H2134 0.950 . S
C2142 C2140 1.391 1_565 S
C2142 C2143 1.400 1_565 S
C2143 C2142 1.400 1_545 S
C2143 C2144 1.398 . S
C2143 C2149 1.491 1_545 S
C2144 H2135 0.950 . S
C2144 C2143 1.398 . S
C2144 C2145 1.391 . S
C2145 H2133 0.950 . S
C2145 C2141 1.393 . S
C2145 C2144 1.391 . S
C2146 H2136 0.972 . S
C2146 C2147 1.386 . S
C2146 C2148 1.391 1_565 S
C2147 C2146 1.386 . S
C2147 C2151 1.393 . S
C2148 H2137 0.950 . S
C2148 C2146 1.391 1_545 S
C2148 C2149 1.400 1_545 S
C2149 C2143 1.491 1_565 S
C2149 C2148 1.400 1_565 S
C2149 C2150 1.398 . S
C2150 H2138 0.950 . S
C2150 C2149 1.398 . S
C2150 C2151 1.391 . S
C2151 H2139 0.950 . S
C2151 C2147 1.393 . S
C2151 C2150 1.391 . S
H2152 C2160 0.945 1_455 S
H2153 C2165 0.950 . S
H2154 C2162 0.950 . S
H2155 C2164 0.950 . S
H2156 C2166 0.945 1_655 S
H2157 C2168 0.950 . S
H2158 C2170 0.950 . S
H2159 C2171 0.950 . S
C2160 H2152 0.945 1_655 S
C2160 C2161 1.386 . S
C2160 C2162 1.391 1_655 S
C2161 C2160 1.386 . S
C2161 C2165 1.393 . S
C2162 H2154 0.950 . S
C2162 C2160 1.391 1_455 S
C2162 C2163 1.400 1_455 S
C2163 C2162 1.400 1_655 S
C2163 C2164 1.398 . S
C2163 C2169 1.491 1_655 S
C2164 H2155 0.950 . S
C2164 C2163 1.398 . S
C2164 C2165 1.391 . S
C2165 H2153 0.950 . S
C2165 C2161 1.393 . S
C2165 C2164 1.391 . S
C2166 H2156 0.945 1_455 S
C2166 C2167 1.386 . S
C2166 C2168 1.391 1_455 S
C2167 C2166 1.386 . S
C2167 C2171 1.393 . S
C2168 H2157 0.950 . S
C2168 C2166 1.391 1_655 S
C2168 C2169 1.400 1_655 S
C2169 C2163 1.491 1_455 S
C2169 C2168 1.400 1_455 S
C2169 C2170 1.398 . S
C2170 H2158 0.950 . S
C2170 C2169 1.398 . S
C2170 C2171 1.391 . S
C2171 H2159 0.950 . S
C2171 C2167 1.393 . S
C2171 C2170 1.391 . S
H2172 C2180 0.950 . S
H2173 C2185 0.948 1_545 S
H2174 C2182 0.950 . S
H2175 C2184 0.950 . S
H2176 C2186 0.950 . S
H2177 C2188 0.950 . S
H2178 C2190 0.950 . S
H2179 C2191 0.948 1_565 S
C2180 H2172 0.950 . S
C2180 C2181 1.386 . S
C2180 C2182 1.391 . S
C2181 C2180 1.386 . S
C2181 C2185 1.393 . S
C2182 H2174 0.950 . S
C2182 C2180 1.391 . S
C2182 C2183 1.400 . S
C2183 C2182 1.400 . S
C2183 C2184 1.398 1_565 S
C2183 C2189 1.491 1_565 S
C2184 H2175 0.950 . S
C2184 C2183 1.398 1_545 S
C2184 C2185 1.391 1_545 S
C2185 H2173 0.948 1_565 S
C2185 C2181 1.393 . S
C2185 C2184 1.391 1_565 S
C2186 H2176 0.950 . S
C2186 C2187 1.386 . S
C2186 C2188 1.391 . S
C2187 C2186 1.386 . S
C2187 C2191 1.393 . S
C2188 H2177 0.950 . S
C2188 C2186 1.391 . S
C2188 C2189 1.400 . S
C2189 C2183 1.491 1_545 S
C2189 C2188 1.400 . S
C2189 C2190 1.398 1_545 S
C2190 H2178 0.950 . S
C2190 C2189 1.398 1_565 S
C2190 C2191 1.391 1_565 S
C2191 H2179 0.948 1_545 S
C2191 C2187 1.393 . S
C2191 C2190 1.391 1_545 S
H2192 C2200 0.950 . S
H2193 C2205 0.950 . S
H2194 C2202 0.950 . S
H2195 C2204 0.950 1_565 S
H2196 C2206 0.950 . S
H2197 C2208 0.950 . S
H2198 C2210 0.950 1_545 S
H2199 C2211 0.950 . S
C2200 H2192 0.950 . S
C2200 C2201 1.386 . S
C2200 C2202 1.391 . S
C2201 C2200 1.386 . S
C2201 C2205 1.393 . S
C2202 H2194 0.950 . S
C2202 C2200 1.391 . S
C2202 C2203 1.400 . S
C2203 C2202 1.400 . S
C2203 C2204 1.398 . S
C2203 C2209 1.491 1_545 S
C2204 H2195 0.950 1_545 S
C2204 C2203 1.398 . S
C2204 C2205 1.391 . S
C2205 H2193 0.950 . S
C2205 C2201 1.393 . S
C2205 C2204 1.391 . S
C2206 H2196 0.950 . S
C2206 C2207 1.386 . S
C2206 C2208 1.391 . S
C2207 C2206 1.386 . S
C2207 C2211 1.393 . S
C2208 H2197 0.950 . S
C2208 C2206 1.391 . S
C2208 C2209 1.400 . S
C2209 C2203 1.491 1_565 S
C2209 C2208 1.400 . S
C2209 C2210 1.398 . S
C2210 H2198 0.950 1_565 S
C2210 C2209 1.398 . S
C2210 C2211 1.391 . S
C2211 H2199 0.950 . S
C2211 C2207 1.393 . S
C2211 C2210 1.391 . S
H2212 C2220 0.950 . S
H2213 C2225 0.949 1_655 S
H2214 C2222 0.950 . S
H2215 C2224 0.950 . S
H2216 C2226 0.950 . S
H2217 C2228 0.950 . S
H2218 C2230 0.950 . S
H2219 C2231 0.949 1_455 S
C2220 H2212 0.950 . S
C2220 C2221 1.386 . S
C2220 C2222 1.391 . S
C2221 C2220 1.386 . S
C2221 C2225 1.393 . S
C2222 H2214 0.950 . S
C2222 C2220 1.391 . S
C2222 C2223 1.400 . S
C2223 C2222 1.400 . S
C2223 C2224 1.398 1_455 S
C2223 C2229 1.491 1_455 S
C2224 H2215 0.950 . S
C2224 C2223 1.398 1_655 S
C2224 C2225 1.391 1_655 S
C2225 H2213 0.949 1_455 S
C2225 C2221 1.393 . S
C2225 C2224 1.391 1_455 S
C2226 H2216 0.950 . S
C2226 C2227 1.386 . S
C2226 C2228 1.391 . S
C2227 C2226 1.386 . S
C2227 C2231 1.393 . S
C2228 H2217 0.950 . S
C2228 C2226 1.391 . S
C2228 C2229 1.400 . S
C2229 C2223 1.491 1_655 S
C2229 C2228 1.400 . S
C2229 C2230 1.398 1_655 S
C2230 H2218 0.950 . S
C2230 C2229 1.398 1_455 S
C2230 C2231 1.391 1_455 S
C2231 H2219 0.949 1_655 S
C2231 C2227 1.393 . S
C2231 C2230 1.391 1_655 S
H2232 C2240 0.950 . S
H2233 C2245 0.950 . S
H2234 C2242 0.950 . S
H2235 C2244 0.950 . S
H2236 C2246 0.950 . S
H2237 C2248 0.950 . S
H2238 C2250 0.950 . S
H2239 C2251 0.950 . S
C2240 H2232 0.950 . S
C2240 C2241 1.386 . S
C2240 C2242 1.391 . S
C2241 C2240 1.386 . S
C2241 C2245 1.393 . S
C2242 H2234 0.950 . S
C2242 C2240 1.391 . S
C2242 C2243 1.400 . S
C2243 C2242 1.400 . S
C2243 C2244 1.398 . S
C2243 C2249 1.491 1_545 S
C2244 H2235 0.950 . S
C2244 C2243 1.398 . S
C2244 C2245 1.391 . S
C2245 H2233 0.950 . S
C2245 C2241 1.393 . S
C2245 C2244 1.391 . S
C2246 H2236 0.950 . S
C2246 C2247 1.386 . S
C2246 C2248 1.391 . S
C2247 C2246 1.386 . S
C2247 C2251 1.393 . S
C2248 H2237 0.950 . S
C2248 C2246 1.391 . S
C2248 C2249 1.400 . S
C2249 C2243 1.491 1_565 S
C2249 C2248 1.400 . S
C2249 C2250 1.398 . S
C2250 H2238 0.950 . S
C2250 C2249 1.398 . S
C2250 C2251 1.391 . S
C2251 H2239 0.950 . S
C2251 C2247 1.393 . S
C2251 C2250 1.391 . S
H2252 C2260 0.950 . S
H2253 C2265 0.950 . S
H2254 C2262 0.992 . S
H2255 C2264 0.950 . S
H2256 C2266 0.950 . S
H2257 C2268 0.992 . S
H2258 C2270 0.950 . S
H2259 C2271 0.950 . S
C2260 H2252 0.950 . S
C2260 C2261 1.386 . S
C2260 C2262 1.366 1_655 S
C2261 C2260 1.386 . S
C2261 C2265 1.393 . S
C2262 H2254 0.992 . S
C2262 C2260 1.366 1_455 S
C2262 C2263 1.385 1_455 S
C2263 C2262 1.385 1_655 S
C2263 C2264 1.398 . S
C2263 C2269 1.491 1_655 S
C2264 H2255 0.950 . S
C2264 C2263 1.398 . S
C2264 C2265 1.391 . S
C2265 H2253 0.950 . S
C2265 C2261 1.393 . S
C2265 C2264 1.391 . S
C2266 H2256 0.950 . S
C2266 C2267 1.386 . S
C2266 C2268 1.366 1_455 S
C2267 C2266 1.386 . S
C2267 C2271 1.393 . S
C2268 H2257 0.992 . S
C2268 C2266 1.366 1_655 S
C2268 C2269 1.385 1_655 S
C2269 C2263 1.491 1_455 S
C2269 C2268 1.385 1_455 S
C2269 C2270 1.398 . S
C2270 H2258 0.950 . S
C2270 C2269 1.398 . S
C2270 C2271 1.391 . S
C2271 H2259 0.950 . S
C2271 C2267 1.393 . S
C2271 C2270 1.391 . S
H2272 C2280 0.950 . S
H2273 C2285 0.950 . S
H2274 C2282 0.950 . S
H2275 C2284 0.950 . S
H2276 C2286 0.950 . S
H2277 C2288 0.950 . S
H2278 C2290 0.950 . S
H2279 C2291 0.950 . S
C2280 H2272 0.950 . S
C2280 C2281 1.386 . S
C2280 C2282 1.391 . S
C2281 C2280 1.386 . S
C2281 C2285 1.393 . S
C2282 H2274 0.950 . S
C2282 C2280 1.391 . S
C2282 C2283 1.400 . S
C2283 C2282 1.400 . S
C2283 C2284 1.398 1_556 S
C2283 C2289 1.491 1_556 S
C2284 H2275 0.950 . S
C2284 C2283 1.398 1_554 S
C2284 C2285 1.391 1_554 S
C2285 H2273 0.950 . S
C2285 C2281 1.393 . S
C2285 C2284 1.391 1_556 S
C2286 H2276 0.950 . S
C2286 C2287 1.386 . S
C2286 C2288 1.391 . S
C2287 C2286 1.386 . S
C2287 C2291 1.393 . S
C2288 H2277 0.950 . S
C2288 C2286 1.391 . S
C2288 C2289 1.400 . S
C2289 C2283 1.491 1_554 S
C2289 C2288 1.400 . S
C2289 C2290 1.398 1_554 S
C2290 H2278 0.950 . S
C2290 C2289 1.398 1_556 S
C2290 C2291 1.391 1_556 S
C2291 H2279 0.950 . S
C2291 C2287 1.393 . S
C2291 C2290 1.391 1_554 S
H2292 C2300 0.950 . S
H2293 C2305 0.950 . S
H2294 C2302 0.950 1_554 S
H2295 C2304 0.950 . S
H2296 C2306 0.950 . S
H2297 C2308 0.950 1_556 S
H2298 C2310 0.950 . S
H2299 C2311 0.950 . S
C2300 H2292 0.950 . S
C2300 C2301 1.386 . S
C2300 C2302 1.391 . S
C2301 C2300 1.386 . S
C2301 C2305 1.393 . S
C2302 H2294 0.950 1_556 S
C2302 C2300 1.391 . S
C2302 C2303 1.400 . S
C2303 C2302 1.400 . S
C2303 C2304 1.398 . S
C2303 C2309 1.491 1_556 S
C2304 H2295 0.950 . S
C2304 C2303 1.398 . S
C2304 C2305 1.391 . S
C2305 H2293 0.950 . S
C2305 C2301 1.393 . S
C2305 C2304 1.391 . S
C2306 H2296 0.950 . S
C2306 C2307 1.386 . S
C2306 C2308 1.391 . S
C2307 C2306 1.386 . S
C2307 C2311 1.393 . S
C2308 H2297 0.950 1_554 S
C2308 C2306 1.391 . S
C2308 C2309 1.400 . S
C2309 C2303 1.491 1_554 S
C2309 C2308 1.400 . S
C2309 C2310 1.398 . S
C2310 H2298 0.950 . S
C2310 C2309 1.398 . S
C2310 C2311 1.391 . S
C2311 H2299 0.950 . S
C2311 C2307 1.393 . S
C2311 C2310 1.391 . S
H2312 C2320 0.950 . S
H2313 C2325 0.943 1_554 S
H2314 C2322 0.950 . S
H2315 C2324 0.950 . S
H2316 C2326 0.950 . S
H2317 C2328 0.950 . S
H2318 C2330 0.950 . S
H2319 C2331 0.943 1_556 S
C2320 H2312 0.950 . S
C2320 C2321 1.386 . S
C2320 C2322 1.391 . S
C2321 C2320 1.386 . S
C2321 C2325 1.393 . S
C2322 H2314 0.950 . S
C2322 C2320 1.391 . S
C2322 C2323 1.400 . S
C2323 C2322 1.400 . S
C2323 C2324 1.398 1_556 S
C2323 C2329 1.491 1_556 S
C2324 H2315 0.950 . S
C2324 C2323 1.398 1_554 S
C2324 C2325 1.391 1_554 S
C2325 H2313 0.943 1_556 S
C2325 C2321 1.393 . S
C2325 C2324 1.391 1_556 S
C2326 H2316 0.950 . S
C2326 C2327 1.386 . S
C2326 C2328 1.391 . S
C2327 C2326 1.386 . S
C2327 C2331 1.393 . S
C2328 H2317 0.950 . S
C2328 C2326 1.391 . S
C2328 C2329 1.400 . S
C2329 C2323 1.491 1_554 S
C2329 C2328 1.400 . S
C2329 C2330 1.398 1_554 S
C2330 H2318 0.950 . S
C2330 C2329 1.398 1_556 S
C2330 C2331 1.391 1_556 S
C2331 H2319 0.943 1_554 S
C2331 C2327 1.393 . S
C2331 C2330 1.391 1_554 S
H2332 C2340 0.950 . S
H2333 C2345 0.950 . S
H2334 C2342 0.950 . S
H2335 C2344 0.950 . S
H2336 C2346 0.950 . S
H2337 C2348 0.950 . S
H2338 C2350 0.950 . S
H2339 C2351 0.950 . S
C2340 H2332 0.950 . S
C2340 C2341 1.386 . S
C2340 C2342 1.391 . S
C2341 C2340 1.386 . S
C2341 C2345 1.393 . S
C2342 H2334 0.950 . S
C2342 C2340 1.391 . S
C2342 C2343 1.400 . S
C2343 C2342 1.400 . S
C2343 C2344 1.398 . S
C2343 C2349 1.491 1_556 S
C2344 H2335 0.950 . S
C2344 C2343 1.398 . S
C2344 C2345 1.391 . S
C2345 H2333 0.950 . S
C2345 C2341 1.393 . S
C2345 C2344 1.391 . S
C2346 H2336 0.950 . S
C2346 C2347 1.386 . S
C2346 C2348 1.391 . S
C2347 C2346 1.386 . S
C2347 C2351 1.393 . S
C2348 H2337 0.950 . S
C2348 C2346 1.391 . S
C2348 C2349 1.400 . S
C2349 C2343 1.491 1_554 S
C2349 C2348 1.400 . S
C2349 C2350 1.398 . S
C2350 H2338 0.950 . S
C2350 C2349 1.398 . S
C2350 C2351 1.391 . S
C2351 H2339 0.950 . S
C2351 C2347 1.393 . S
C2351 C2350 1.391 . S
H2352 C2360 0.950 . S
H2353 C2365 0.950 . S
H2354 C2362 0.950 . S
H2355 C2364 0.950 . S
H2356 C2366 0.950 . S
H2357 C2368 0.950 . S
H2358 C2370 0.950 . S
H2359 C2371 0.950 . S
C2360 H2352 0.950 . S
C2360 C2361 1.386 . S
C2360 C2362 1.391 . S
C2361 C2360 1.386 . S
C2361 C2365 1.393 . S
C2362 H2354 0.950 . S
C2362 C2360 1.391 . S
C2362 C2363 1.400 . S
C2363 C2362 1.400 . S
C2363 C2364 1.398 . S
C2363 C2369 1.491 1_545 S
C2364 H2355 0.950 . S
C2364 C2363 1.398 . S
C2364 C2365 1.391 . S
C2365 H2353 0.950 . S
C2365 C2361 1.393 . S
C2365 C2364 1.391 . S
C2366 H2356 0.950 . S
C2366 C2367 1.386 . S
C2366 C2368 1.391 . S
C2367 C2366 1.386 . S
C2367 C2371 1.393 . S
C2368 H2357 0.950 . S
C2368 C2366 1.391 . S
C2368 C2369 1.400 . S
C2369 C2363 1.491 1_565 S
C2369 C2368 1.400 . S
C2369 C2370 1.398 . S
C2370 H2358 0.950 . S
C2370 C2369 1.398 . S
C2370 C2371 1.391 . S
C2371 H2359 0.950 . S
C2371 C2367 1.393 . S
C2371 C2370 1.391 . S
H2372 C2380 0.950 . S
H2373 C2385 0.950 . S
H2374 C2382 0.950 . S
H2375 C2384 0.950 . S
H2376 C2386 0.950 . S
H2377 C2388 0.950 . S
H2378 C2390 0.950 . S
H2379 C2391 0.950 . S
C2380 H2372 0.950 . S
C2380 C2381 1.386 . S
C2380 C2382 1.391 . S
C2381 C2380 1.386 . S
C2381 C2385 1.393 . S
C2382 H2374 0.950 . S
C2382 C2380 1.391 . S
C2382 C2383 1.400 . S
C2383 C2382 1.400 . S
C2383 C2384 1.398 . S
C2383 C2389 1.491 1_655 S
C2384 H2375 0.950 . S
C2384 C2383 1.398 . S
C2384 C2385 1.391 . S
C2385 H2373 0.950 . S
C2385 C2381 1.393 . S
C2385 C2384 1.391 . S
C2386 H2376 0.950 . S
C2386 C2387 1.386 . S
C2386 C2388 1.391 . S
C2387 C2386 1.386 . S
C2387 C2391 1.393 . S
C2388 H2377 0.950 . S
C2388 C2386 1.391 . S
C2388 C2389 1.400 . S
C2389 C2383 1.491 1_455 S
C2389 C2388 1.400 . S
C2389 C2390 1.398 . S
C2390 H2378 0.950 . S
C2390 C2389 1.398 . S
C2390 C2391 1.391 . S
C2391 H2379 0.950 . S
C2391 C2387 1.393 . S
C2391 C2390 1.391 . S
H2392 C2400 0.950 . S
H2393 C2405 0.950 . S
H2394 C2402 0.950 . S
H2395 C2404 0.950 1_545 S
H2396 C2406 0.950 . S
H2397 C2408 0.950 . S
H2398 C2410 0.950 1_565 S
H2399 C2411 0.950 . S
C2400 H2392 0.950 . S
C2400 C2401 1.386 . S
C2400 C2402 1.391 . S
C2401 C2400 1.386 . S
C2401 C2405 1.393 . S
C2402 H2394 0.950 . S
C2402 C2400 1.391 . S
C2402 C2403 1.400 . S
C2403 C2402 1.400 . S
C2403 C2404 1.398 . S
C2403 C2409 1.491 1_565 S
C2404 H2395 0.950 1_565 S
C2404 C2403 1.398 . S
C2404 C2405 1.391 . S
C2405 H2393 0.950 . S
C2405 C2401 1.393 . S
C2405 C2404 1.391 . S
C2406 H2396 0.950 . S
C2406 C2407 1.386 . S
C2406 C2408 1.391 . S
C2407 C2406 1.386 . S
C2407 C2411 1.393 . S
C2408 H2397 0.950 . S
C2408 C2406 1.391 . S
C2408 C2409 1.400 . S
C2409 C2403 1.491 1_545 S
C2409 C2408 1.400 . S
C2409 C2410 1.398 . S
C2410 H2398 0.950 1_545 S
C2410 C2409 1.398 . S
C2410 C2411 1.391 . S
C2411 H2399 0.950 . S
C2411 C2407 1.393 . S
C2411 C2410 1.391 . S
H2412 C2420 0.950 . S
H2413 C2425 0.950 . S
H2414 C2422 0.950 . S
H2415 C2424 0.950 1_655 S
H2416 C2426 0.950 . S
H2417 C2428 0.950 . S
H2418 C2430 0.950 1_455 S
H2419 C2431 0.950 . S
C2420 H2412 0.950 . S
C2420 C2421 1.386 . S
C2420 C2422 1.391 . S
C2421 C2420 1.386 . S
C2421 C2425 1.393 . S
C2422 H2414 0.950 . S
C2422 C2420 1.391 . S
C2422 C2423 1.400 . S
C2423 C2422 1.400 . S
C2423 C2424 1.398 . S
C2423 C2429 1.491 1_455 S
C2424 H2415 0.950 1_455 S
C2424 C2423 1.398 . S
C2424 C2425 1.391 . S
C2425 H2413 0.950 . S
C2425 C2421 1.393 . S
C2425 C2424 1.391 . S
C2426 H2416 0.950 . S
C2426 C2427 1.386 . S
C2426 C2428 1.391 . S
C2427 C2426 1.386 . S
C2427 C2431 1.393 . S
C2428 H2417 0.950 . S
C2428 C2426 1.391 . S
C2428 C2429 1.400 . S
C2429 C2423 1.491 1_655 S
C2429 C2428 1.400 . S
C2429 C2430 1.398 . S
C2430 H2418 0.950 1_655 S
C2430 C2429 1.398 . S
C2430 C2431 1.391 . S
C2431 H2419 0.950 . S
C2431 C2427 1.393 . S
C2431 C2430 1.391 . S
H2432 C2440 0.950 . S
H2433 C2445 0.950 . S
H2434 C2442 0.911 1_554 S
H2435 C2444 0.950 . S
H2436 C2446 0.950 . S
H2437 C2448 0.911 1_556 S
H2438 C2450 0.950 . S
H2439 C2451 0.950 . S
C2440 H2432 0.950 . S
C2440 C2441 1.386 . S
C2440 C2442 1.391 . S
C2441 C2440 1.386 . S
C2441 C2445 1.393 . S
C2442 H2434 0.911 1_556 S
C2442 C2440 1.391 . S
C2442 C2443 1.400 . S
C2443 C2442 1.400 . S
C2443 C2444 1.398 . S
C2443 C2449 1.491 1_556 S
C2444 H2435 0.950 . S
C2444 C2443 1.398 . S
C2444 C2445 1.391 . S
C2445 H2433 0.950 . S
C2445 C2441 1.393 . S
C2445 C2444 1.391 . S
C2446 H2436 0.950 . S
C2446 C2447 1.386 . S
C2446 C2448 1.391 . S
C2447 C2446 1.386 . S
C2447 C2451 1.393 . S
C2448 H2437 0.911 1_554 S
C2448 C2446 1.391 . S
C2448 C2449 1.400 . S
C2449 C2443 1.491 1_554 S
C2449 C2448 1.400 . S
C2449 C2450 1.398 . S
C2450 H2438 0.950 . S
C2450 C2449 1.398 . S
C2450 C2451 1.391 . S
C2451 H2439 0.950 . S
C2451 C2447 1.393 . S
C2451 C2450 1.391 . S
H2452 C2460 0.950 . S
H2453 C2465 0.950 . S
H2454 C2462 0.950 1_554 S
H2455 C2464 0.950 . S
H2456 C2466 0.950 . S
H2457 C2468 0.950 1_556 S
H2458 C2470 0.950 . S
H2459 C2471 0.950 . S
C2460 H2452 0.950 . S
C2460 C2461 1.386 . S
C2460 C2462 1.391 . S
C2461 C2460 1.386 . S
C2461 C2465 1.393 . S
C2462 H2454 0.950 1_556 S
C2462 C2460 1.391 . S
C2462 C2463 1.400 . S
C2463 C2462 1.400 . S
C2463 C2464 1.398 . S
C2463 C2469 1.491 1_556 S
C2464 H2455 0.950 . S
C2464 C2463 1.398 . S
C2464 C2465 1.391 . S
C2465 H2453 0.950 . S
C2465 C2461 1.393 . S
C2465 C2464 1.391 . S
C2466 H2456 0.950 . S
C2466 C2467 1.386 . S
C2466 C2468 1.391 . S
C2467 C2466 1.386 . S
C2467 C2471 1.393 . S
C2468 H2457 0.950 1_554 S
C2468 C2466 1.391 . S
C2468 C2469 1.400 . S
C2469 C2463 1.491 1_554 S
C2469 C2468 1.400 . S
C2469 C2470 1.398 . S
C2470 H2458 0.950 . S
C2470 C2469 1.398 . S
C2470 C2471 1.391 . S
C2471 H2459 0.950 . S
C2471 C2467 1.393 . S
C2471 C2470 1.391 . S
H2472 C2480 0.950 . S
H2473 C2485 0.950 . S
H2474 C2482 0.950 . S
H2475 C2484 0.950 1_556 S
H2476 C2486 0.950 . S
H2477 C2488 0.950 . S
H2478 C2490 0.950 1_554 S
H2479 C2491 0.950 . S
C2480 H2472 0.950 . S
C2480 C2481 1.386 . S
C2480 C2482 1.391 . S
C2481 C2480 1.386 . S
C2481 C2485 1.393 . S
C2482 H2474 0.950 . S
C2482 C2480 1.391 . S
C2482 C2483 1.400 . S
C2483 C2482 1.400 . S
C2483 C2484 1.398 . S
C2483 C2489 1.491 1_554 S
C2484 H2475 0.950 1_554 S
C2484 C2483 1.398 . S
C2484 C2485 1.391 . S
C2485 H2473 0.950 . S
C2485 C2481 1.393 . S
C2485 C2484 1.391 . S
C2486 H2476 0.950 . S
C2486 C2487 1.386 . S
C2486 C2488 1.391 . S
C2487 C2486 1.386 . S
C2487 C2491 1.393 . S
C2488 H2477 0.950 . S
C2488 C2486 1.391 . S
C2488 C2489 1.400 . S
C2489 C2483 1.491 1_556 S
C2489 C2488 1.400 . S
C2489 C2490 1.398 . S
C2490 H2478 0.950 1_556 S
C2490 C2489 1.398 . S
C2490 C2491 1.391 . S
C2491 H2479 0.950 . S
C2491 C2487 1.393 . S
C2491 C2490 1.391 . S
H2492 C2500 0.950 . S
H2493 C2505 0.950 . S
H2494 C2502 0.950 . S
H2495 C2504 0.950 . S
H2496 C2506 0.950 . S
H2497 C2508 0.950 . S
H2498 C2510 0.950 . S
H2499 C2511 0.950 . S
C2500 H2492 0.950 . S
C2500 C2501 1.386 . S
C2500 C2502 1.391 . S
C2501 C2500 1.386 . S
C2501 C2505 1.393 . S
C2502 H2494 0.950 . S
C2502 C2500 1.391 . S
C2502 C2503 1.400 . S
C2503 C2502 1.400 . S
C2503 C2504 1.398 . S
C2503 C2509 1.491 1_554 S
C2504 H2495 0.950 . S
C2504 C2503 1.398 . S
C2504 C2505 1.391 . S
C2505 H2493 0.950 . S
C2505 C2501 1.393 . S
C2505 C2504 1.391 . S
C2506 H2496 0.950 . S
C2506 C2507 1.386 . S
C2506 C2508 1.391 . S
C2507 C2506 1.386 . S
C2507 C2511 1.393 . S
C2508 H2497 0.950 . S
C2508 C2506 1.391 . S
C2508 C2509 1.400 . S
C2509 C2503 1.491 1_556 S
C2509 C2508 1.400 . S
C2509 C2510 1.398 . S
C2510 H2498 0.950 . S
C2510 C2509 1.398 . S
C2510 C2511 1.391 . S
C2511 H2499 0.950 . S
C2511 C2507 1.393 . S
C2511 C2510 1.391 . S
H2512 C2520 0.950 . S
H2513 C2525 0.950 . S
H2514 C2522 0.950 . S
H2515 C2524 0.950 1_455 S
H2516 C2526 0.950 . S
H2517 C2528 0.950 . S
H2518 C2530 0.950 1_655 S
H2519 C2531 0.950 . S
C2520 H2512 0.950 . S
C2520 C2521 1.386 . S
C2520 C2522 1.391 . S
C2521 C2520 1.386 . S
C2521 C2525 1.393 . S
C2522 H2514 0.950 . S
C2522 C2520 1.391 . S
C2522 C2523 1.400 . S
C2523 C2522 1.400 . S
C2523 C2524 1.398 . S
C2523 C2529 1.491 1_655 S
C2524 H2515 0.950 1_655 S
C2524 C2523 1.398 . S
C2524 C2525 1.391 . S
C2525 H2513 0.950 . S
C2525 C2521 1.393 . S
C2525 C2524 1.391 . S
C2526 H2516 0.950 . S
C2526 C2527 1.386 . S
C2526 C2528 1.391 . S
C2527 C2526 1.386 . S
C2527 C2531 1.393 . S
C2528 H2517 0.950 . S
C2528 C2526 1.391 . S
C2528 C2529 1.400 . S
C2529 C2523 1.491 1_455 S
C2529 C2528 1.400 . S
C2529 C2530 1.398 . S
C2530 H2518 0.950 1_455 S
C2530 C2529 1.398 . S
C2530 C2531 1.391 . S
C2531 H2519 0.950 . S
C2531 C2527 1.393 . S
C2531 C2530 1.391 . S
H2532 C2540 0.950 . S
H2533 C2545 0.950 . S
H2534 C2542 0.950 . S
H2535 C2544 0.950 . S
H2536 C2546 0.950 . S
H2537 C2548 0.950 . S
H2538 C2550 0.950 . S
H2539 C2551 0.950 . S
C2540 H2532 0.950 . S
C2540 C2541 1.386 . S
C2540 C2542 1.391 . S
C2541 C2540 1.386 . S
C2541 C2545 1.393 . S
C2542 H2534 0.950 . S
C2542 C2540 1.391 . S
C2542 C2543 1.400 . S
C2543 C2542 1.400 . S
C2543 C2544 1.398 . S
C2543 C2549 1.491 1_455 S
C2544 H2535 0.950 . S
C2544 C2543 1.398 . S
C2544 C2545 1.391 . S
C2545 H2533 0.950 . S
C2545 C2541 1.393 . S
C2545 C2544 1.391 . S
C2546 H2536 0.950 . S
C2546 C2547 1.386 . S
C2546 C2548 1.391 . S
C2547 C2546 1.386 . S
C2547 C2551 1.393 . S
C2548 H2537 0.950 . S
C2548 C2546 1.391 . S
C2548 C2549 1.400 . S
C2549 C2543 1.491 1_655 S
C2549 C2548 1.400 . S
C2549 C2550 1.398 . S
C2550 H2538 0.950 . S
C2550 C2549 1.398 . S
C2550 C2551 1.391 . S
C2551 H2539 0.950 . S
C2551 C2547 1.393 . S
C2551 C2550 1.391 . S
H2552 C2560 0.950 . S
H2553 C2565 0.950 . S
H2554 C2562 0.950 1_565 S
H2555 C2564 0.950 . S
H2556 C2566 0.950 . S
H2557 C2568 0.950 1_545 S
H2558 C2570 0.950 . S
H2559 C2571 0.950 . S
C2560 H2552 0.950 . S
C2560 C2561 1.386 . S
C2560 C2562 1.391 . S
C2561 C2560 1.386 . S
C2561 C2565 1.393 . S
C2562 H2554 0.950 1_545 S
C2562 C2560 1.391 . S
C2562 C2563 1.400 . S
C2563 C2562 1.400 . S
C2563 C2564 1.398 . S
C2563 C2569 1.491 1_545 S
C2564 H2555 0.950 . S
C2564 C2563 1.398 . S
C2564 C2565 1.391 . S
C2565 H2553 0.950 . S
C2565 C2561 1.393 . S
C2565 C2564 1.391 . S
C2566 H2556 0.950 . S
C2566 C2567 1.386 . S
C2566 C2568 1.391 . S
C2567 C2566 1.386 . S
C2567 C2571 1.393 . S
C2568 H2557 0.950 1_565 S
C2568 C2566 1.391 . S
C2568 C2569 1.400 . S
C2569 C2563 1.491 1_565 S
C2569 C2568 1.400 . S
C2569 C2570 1.398 . S
C2570 H2558 0.950 . S
C2570 C2569 1.398 . S
C2570 C2571 1.391 . S
C2571 H2559 0.950 . S
C2571 C2567 1.393 . S
C2571 C2570 1.391 . S
H2572 C2580 0.950 . S
H2573 C2585 0.950 . S
H2574 C2582 0.950 . S
H2575 C2584 0.950 . S
H2576 C2586 0.950 . S
H2577 C2588 0.950 . S
H2578 C2590 0.950 . S
H2579 C2591 0.950 . S
C2580 H2572 0.950 . S
C2580 C2581 1.386 . S
C2580 C2582 1.391 . S
C2581 C2580 1.386 . S
C2581 C2585 1.393 . S
C2582 H2574 0.950 . S
C2582 C2580 1.391 . S
C2582 C2583 1.400 . S
C2583 C2582 1.400 . S
C2583 C2584 1.398 . S
C2583 C2589 1.491 1_565 S
C2584 H2575 0.950 . S
C2584 C2583 1.398 . S
C2584 C2585 1.391 . S
C2585 H2573 0.950 . S
C2585 C2581 1.393 . S
C2585 C2584 1.391 . S
C2586 H2576 0.950 . S
C2586 C2587 1.386 . S
C2586 C2588 1.391 . S
C2587 C2586 1.386 . S
C2587 C2591 1.393 . S
C2588 H2577 0.950 . S
C2588 C2586 1.391 . S
C2588 C2589 1.400 . S
C2589 C2583 1.491 1_545 S
C2589 C2588 1.400 . S
C2589 C2590 1.398 . S
C2590 H2578 0.950 . S
C2590 C2589 1.398 . S
C2590 C2591 1.391 . S
C2591 H2579 0.950 . S
C2591 C2587 1.393 . S
C2591 C2590 1.391 . S
H2592 C2600 0.950 . S
H2593 C2605 0.950 . S
H2594 C2602 0.950 . S
H2595 C2604 0.950 . S
H2596 C2606 0.950 . S
H2597 C2608 0.950 . S
H2598 C2610 0.950 . S
H2599 C2611 0.950 . S
C2600 H2592 0.950 . S
C2600 C2601 1.386 . S
C2600 C2602 1.391 . S
C2601 C2600 1.386 . S
C2601 C2605 1.393 . S
C2602 H2594 0.950 . S
C2602 C2600 1.391 . S
C2602 C2603 1.400 . S
C2603 C2602 1.400 . S
C2603 C2604 1.398 . S
C2603 C2609 1.491 . S
C2604 H2595 0.950 . S
C2604 C2603 1.398 . S
C2604 C2605 1.391 . S
C2605 H2593 0.950 . S
C2605 C2601 1.393 . S
C2605 C2604 1.391 . S
C2606 H2596 0.950 . S
C2606 C2607 1.386 . S
C2606 C2608 1.391 . S
C2607 C2606 1.386 . S
C2607 C2611 1.393 . S
C2608 H2597 0.950 . S
C2608 C2606 1.391 . S
C2608 C2609 1.400 . S
C2609 C2603 1.491 . S
C2609 C2608 1.400 . S
C2609 C2610 1.398 . S
C2610 H2598 0.950 . S
C2610 C2609 1.398 . S
C2610 C2611 1.391 . S
C2611 H2599 0.950 . S
C2611 C2607 1.393 . S
C2611 C2610 1.391 . S
H2612 C2620 0.950 . S
H2613 C2625 0.950 . S
H2614 C2622 0.950 . S
H2615 C2624 0.950 . S
H2616 C2626 0.950 . S
H2617 C2628 0.950 . S
H2618 C2630 0.950 . S
H2619 C2631 0.950 . S
C2620 H2612 0.950 . S
C2620 C2621 1.386 . S
C2620 C2622 1.391 . S
C2621 C2620 1.386 . S
C2621 C2625 1.393 . S
C2622 H2614 0.950 . S
C2622 C2620 1.391 . S
C2622 C2623 1.400 . S
C2623 C2622 1.400 . S
C2623 C2624 1.398 . S
C2623 C2629 1.491 . S
C2624 H2615 0.950 . S
C2624 C2623 1.398 . S
C2624 C2625 1.391 . S
C2625 H2613 0.950 . S
C2625 C2621 1.393 . S
C2625 C2624 1.391 . S
C2626 H2616 0.950 . S
C2626 C2627 1.386 . S
C2626 C2628 1.391 . S
C2627 C2626 1.386 . S
C2627 C2631 1.393 . S
C2628 H2617 0.950 . S
C2628 C2626 1.391 . S
C2628 C2629 1.400 . S
C2629 C2623 1.491 . S
C2629 C2628 1.400 . S
C2629 C2630 1.398 . S
C2630 H2618 0.950 . S
C2630 C2629 1.398 . S
C2630 C2631 1.391 . S
C2631 H2619 0.950 . S
C2631 C2627 1.393 . S
C2631 C2630 1.391 . S
H2632 C2640 0.950 . S
H2633 C2645 0.950 . S
H2634 C2642 0.950 . S
H2635 C2644 0.950 . S
H2636 C2646 0.950 . S
H2637 C2648 0.950 . S
H2638 C2650 0.950 . S
H2639 C2651 0.950 . S
C2640 H2632 0.950 . S
C2640 C2641 1.386 . S
C2640 C2642 1.391 . S
C2641 C2640 1.386 . S
C2641 C2645 1.393 . S
C2642 H2634 0.950 . S
C2642 C2640 1.391 . S
C2642 C2643 1.400 . S
C2643 C2642 1.400 . S
C2643 C2644 1.398 . S
C2643 C2649 1.491 . S
C2644 H2635 0.950 . S
C2644 C2643 1.398 . S
C2644 C2645 1.391 . S
C2645 H2633 0.950 . S
C2645 C2641 1.393 . S
C2645 C2644 1.391 . S
C2646 H2636 0.950 . S
C2646 C2647 1.386 . S
C2646 C2648 1.391 . S
C2647 C2646 1.386 . S
C2647 C2651 1.393 . S
C2648 H2637 0.950 . S
C2648 C2646 1.391 . S
C2648 C2649 1.400 . S
C2649 C2643 1.491 . S
C2649 C2648 1.400 . S
C2649 C2650 1.398 . S
C2650 H2638 0.950 . S
C2650 C2649 1.398 . S
C2650 C2651 1.391 . S
C2651 H2639 0.950 . S
C2651 C2647 1.393 . S
C2651 C2650 1.391 . S
H2652 C2660 0.950 . S
H2653 C2665 0.950 . S
H2654 C2662 0.950 . S
H2655 C2664 0.950 . S
H2656 C2666 0.950 . S
H2657 C2668 0.950 . S
H2658 C2670 0.950 . S
H2659 C2671 0.950 . S
C2660 H2652 0.950 . S
C2660 C2661 1.386 . S
C2660 C2662 1.391 . S
C2661 C2660 1.386 . S
C2661 C2665 1.393 . S
C2662 H2654 0.950 . S
C2662 C2660 1.391 . S
C2662 C2663 1.400 . S
C2663 C2662 1.400 . S
C2663 C2664 1.398 . S
C2663 C2669 1.491 . S
C2664 H2655 0.950 . S
C2664 C2663 1.398 . S
C2664 C2665 1.391 . S
C2665 H2653 0.950 . S
C2665 C2661 1.393 . S
C2665 C2664 1.391 . S
C2666 H2656 0.950 . S
C2666 C2667 1.386 . S
C2666 C2668 1.391 . S
C2667 C2666 1.386 . S
C2667 C2671 1.393 . S
C2668 H2657 0.950 . S
C2668 C2666 1.391 . S
C2668 C2669 1.400 . S
C2669 C2663 1.491 . S
C2669 C2668 1.400 . S
C2669 C2670 1.398 . S
C2670 H2658 0.950 . S
C2670 C2669 1.398 . S
C2670 C2671 1.391 . S
C2671 H2659 0.950 . S
C2671 C2667 1.393 . S
C2671 C2670 1.391 . S
H2672 C2680 0.950 . S
H2673 C2685 0.950 . S
H2674 C2682 0.950 . S
H2675 C2684 0.950 . S
H2676 C2686 0.950 . S
H2677 C2688 0.950 . S
H2678 C2690 0.950 . S
H2679 C2691 0.950 . S
C2680 H2672 0.950 . S
C2680 C2681 1.386 . S
C2680 C2682 1.391 . S
C2681 C2680 1.386 . S
C2681 C2685 1.393 . S
C2682 H2674 0.950 . S
C2682 C2680 1.391 . S
C2682 C2683 1.400 . S
C2683 C2682 1.400 . S
C2683 C2684 1.398 . S
C2683 C2689 1.491 . S
C2684 H2675 0.950 . S
C2684 C2683 1.398 . S
C2684 C2685 1.391 . S
C2685 H2673 0.950 . S
C2685 C2681 1.393 . S
C2685 C2684 1.391 . S
C2686 H2676 0.950 . S
C2686 C2687 1.386 . S
C2686 C2688 1.391 . S
C2687 C2686 1.386 . S
C2687 C2691 1.393 . S
C2688 H2677 0.950 . S
C2688 C2686 1.391 . S
C2688 C2689 1.400 . S
C2689 C2683 1.491 . S
C2689 C2688 1.400 . S
C2689 C2690 1.398 . S
C2690 H2678 0.950 . S
C2690 C2689 1.398 . S
C2690 C2691 1.391 . S
C2691 H2679 0.950 . S
C2691 C2687 1.393 . S
C2691 C2690 1.391 . S
H2692 C2700 0.950 . S
H2693 C2705 0.950 . S
H2694 C2702 0.950 . S
H2695 C2704 0.950 . S
H2696 C2706 0.950 . S
H2697 C2708 0.950 . S
H2698 C2710 0.950 . S
H2699 C2711 0.950 . S
C2700 H2692 0.950 . S
C2700 C2701 1.386 . S
C2700 C2702 1.391 . S
C2701 C2700 1.386 . S
C2701 C2705 1.393 . S
C2702 H2694 0.950 . S
C2702 C2700 1.391 . S
C2702 C2703 1.400 . S
C2703 C2702 1.400 . S
C2703 C2704 1.398 . S
C2703 C2709 1.491 . S
C2704 H2695 0.950 . S
C2704 C2703 1.398 . S
C2704 C2705 1.391 . S
C2705 H2693 0.950 . S
C2705 C2701 1.393 . S
C2705 C2704 1.391 . S
C2706 H2696 0.950 . S
C2706 C2707 1.386 . S
C2706 C2708 1.391 . S
C2707 C2706 1.386 . S
C2707 C2711 1.393 . S
C2708 H2697 0.950 . S
C2708 C2706 1.391 . S
C2708 C2709 1.400 . S
C2709 C2703 1.491 . S
C2709 C2708 1.400 . S
C2709 C2710 1.398 . S
C2710 H2698 0.950 . S
C2710 C2709 1.398 . S
C2710 C2711 1.391 . S
C2711 H2699 0.950 . S
C2711 C2707 1.393 . S
C2711 C2710 1.391 . S
H2712 C2720 0.950 . S
H2713 C2725 0.950 . S
H2714 C2722 0.950 . S
H2715 C2724 0.950 . S
H2716 C2726 0.950 . S
H2717 C2728 0.950 . S
H2718 C2730 0.950 . S
H2719 C2731 0.950 . S
C2720 H2712 0.950 . S
C2720 C2721 1.386 . S
C2720 C2722 1.391 . S
C2721 C2720 1.386 . S
C2721 C2725 1.393 . S
C2722 H2714 0.950 . S
C2722 C2720 1.391 . S
C2722 C2723 1.400 . S
C2723 C2722 1.400 . S
C2723 C2724 1.398 . S
C2723 C2729 1.491 . S
C2724 H2715 0.950 . S
C2724 C2723 1.398 . S
C2724 C2725 1.391 . S
C2725 H2713 0.950 . S
C2725 C2721 1.393 . S
C2725 C2724 1.391 . S
C2726 H2716 0.950 . S
C2726 C2727 1.386 . S
C2726 C2728 1.391 . S
C2727 C2726 1.386 . S
C2727 C2731 1.393 . S
C2728 H2717 0.950 . S
C2728 C2726 1.391 . S
C2728 C2729 1.400 . S
C2729 C2723 1.491 . S
C2729 C2728 1.400 . S
C2729 C2730 1.398 . S
C2730 H2718 0.950 . S
C2730 C2729 1.398 . S
C2730 C2731 1.391 . S
C2731 H2719 0.950 . S
C2731 C2727 1.393 . S
C2731 C2730 1.391 . S
H2732 C2740 0.950 . S
H2733 C2745 0.950 . S
H2734 C2742 0.950 . S
H2735 C2744 0.950 . S
H2736 C2746 0.950 . S
H2737 C2748 0.950 . S
H2738 C2750 0.950 . S
H2739 C2751 0.950 . S
C2740 H2732 0.950 . S
C2740 C2741 1.386 . S
C2740 C2742 1.391 . S
C2741 C2740 1.386 . S
C2741 C2745 1.393 . S
C2742 H2734 0.950 . S
C2742 C2740 1.391 . S
C2742 C2743 1.400 . S
C2743 C2742 1.400 . S
C2743 C2744 1.398 . S
C2743 C2749 1.491 . S
C2744 H2735 0.950 . S
C2744 C2743 1.398 . S
C2744 C2745 1.391 . S
C2745 H2733 0.950 . S
C2745 C2741 1.393 . S
C2745 C2744 1.391 . S
C2746 H2736 0.950 . S
C2746 C2747 1.386 . S
C2746 C2748 1.391 . S
C2747 C2746 1.386 . S
C2747 C2751 1.393 . S
C2748 H2737 0.950 . S
C2748 C2746 1.391 . S
C2748 C2749 1.400 . S
C2749 C2743 1.491 . S
C2749 C2748 1.400 . S
C2749 C2750 1.398 . S
C2750 H2738 0.950 . S
C2750 C2749 1.398 . S
C2750 C2751 1.391 . S
C2751 H2739 0.950 . S
C2751 C2747 1.393 . S
C2751 C2750 1.391 . S
H2752 C2760 0.950 . S
H2753 C2765 0.950 . S
H2754 C2762 0.950 . S
H2755 C2764 0.950 . S
H2756 C2766 0.950 . S
H2757 C2768 0.950 . S
H2758 C2770 0.950 . S
H2759 C2771 0.950 . S
C2760 H2752 0.950 . S
C2760 C2761 1.386 . S
C2760 C2762 1.391 . S
C2761 C2760 1.386 . S
C2761 C2765 1.393 . S
C2762 H2754 0.950 . S
C2762 C2760 1.391 . S
C2762 C2763 1.400 . S
C2763 C2762 1.400 . S
C2763 C2764 1.398 . S
C2763 C2769 1.491 . S
C2764 H2755 0.950 . S
C2764 C2763 1.398 . S
C2764 C2765 1.391 . S
C2765 H2753 0.950 . S
C2765 C2761 1.393 . S
C2765 C2764 1.391 . S
C2766 H2756 0.950 . S
C2766 C2767 1.386 . S
C2766 C2768 1.391 . S
C2767 C2766 1.386 . S
C2767 C2771 1.393 . S
C2768 H2757 0.950 . S
C2768 C2766 1.391 . S
C2768 C2769 1.400 . S
C2769 C2763 1.491 . S
C2769 C2768 1.400 . S
C2769 C2770 1.398 . S
C2770 H2758 0.950 . S
C2770 C2769 1.398 . S
C2770 C2771 1.391 . S
C2771 H2759 0.950 . S
C2771 C2767 1.393 . S
C2771 C2770 1.391 . S
H2772 C2780 0.950 . S
H2773 C2785 0.950 . S
H2774 C2782 0.950 . S
H2775 C2784 0.950 . S
H2776 C2786 0.950 . S
H2777 C2788 0.950 . S
H2778 C2790 0.950 . S
H2779 C2791 0.950 . S
C2780 H2772 0.950 . S
C2780 C2781 1.386 . S
C2780 C2782 1.391 . S
C2781 C2780 1.386 . S
C2781 C2785 1.393 . S
C2782 H2774 0.950 . S
C2782 C2780 1.391 . S
C2782 C2783 1.400 . S
C2783 C2782 1.400 . S
C2783 C2784 1.398 . S
C2783 C2789 1.491 . S
C2784 H2775 0.950 . S
C2784 C2783 1.398 . S
C2784 C2785 1.391 . S
C2785 H2773 0.950 . S
C2785 C2781 1.393 . S
C2785 C2784 1.391 . S
C2786 H2776 0.950 . S
C2786 C2787 1.386 . S
C2786 C2788 1.391 . S
C2787 C2786 1.386 . S
C2787 C2791 1.393 . S
C2788 H2777 0.950 . S
C2788 C2786 1.391 . S
C2788 C2789 1.400 . S
C2789 C2783 1.491 . S
C2789 C2788 1.400 . S
C2789 C2790 1.398 . S
C2790 H2778 0.950 . S
C2790 C2789 1.398 . S
C2790 C2791 1.391 . S
C2791 H2779 0.950 . S
C2791 C2787 1.393 . S
C2791 C2790 1.391 . S
H2792 C2800 0.950 . S
H2793 C2805 0.950 . S
H2794 C2802 0.950 . S
H2795 C2804 0.950 . S
H2796 C2806 0.950 . S
H2797 C2808 0.950 . S
H2798 C2810 0.950 . S
H2799 C2811 0.950 . S
C2800 H2792 0.950 . S
C2800 C2801 1.386 . S
C2800 C2802 1.391 . S
C2801 C2800 1.386 . S
C2801 C2805 1.393 . S
C2802 H2794 0.950 . S
C2802 C2800 1.391 . S
C2802 C2803 1.400 . S
C2803 C2802 1.400 . S
C2803 C2804 1.398 . S
C2803 C2809 1.491 . S
C2804 H2795 0.950 . S
C2804 C2803 1.398 . S
C2804 C2805 1.391 . S
C2805 H2793 0.950 . S
C2805 C2801 1.393 . S
C2805 C2804 1.391 . S
C2806 H2796 0.950 . S
C2806 C2807 1.386 . S
C2806 C2808 1.391 . S
C2807 C2806 1.386 . S
C2807 C2811 1.393 . S
C2808 H2797 0.950 . S
C2808 C2806 1.391 . S
C2808 C2809 1.400 . S
C2809 C2803 1.491 . S
C2809 C2808 1.400 . S
C2809 C2810 1.398 . S
C2810 H2798 0.950 . S
C2810 C2809 1.398 . S
C2810 C2811 1.391 . S
C2811 H2799 0.950 . S
C2811 C2807 1.393 . S
C2811 C2810 1.391 . S
H2812 C2820 0.950 . S
H2813 C2825 0.950 . S
H2814 C2822 0.950 . S
H2815 C2824 0.950 . S
H2816 C2826 0.950 . S
H2817 C2828 0.950 . S
H2818 C2830 0.950 . S
H2819 C2831 0.950 . S
C2820 H2812 0.950 . S
C2820 C2821 1.386 . S
C2820 C2822 1.391 . S
C2821 C2820 1.386 . S
C2821 C2825 1.393 . S
C2822 H2814 0.950 . S
C2822 C2820 1.391 . S
C2822 C2823 1.400 . S
C2823 C2822 1.400 . S
C2823 C2824 1.398 . S
C2823 C2829 1.491 . S
C2824 H2815 0.950 . S
C2824 C2823 1.398 . S
C2824 C2825 1.391 . S
C2825 H2813 0.950 . S
C2825 C2821 1.393 . S
C2825 C2824 1.391 . S
C2826 H2816 0.950 . S
C2826 C2827 1.386 . S
C2826 C2828 1.391 . S
C2827 C2826 1.386 . S
C2827 C2831 1.393 . S
C2828 H2817 0.950 . S
C2828 C2826 1.391 . S
C2828 C2829 1.400 . S
C2829 C2823 1.491 . S
C2829 C2828 1.400 . S
C2829 C2830 1.398 . S
C2830 H2818 0.950 . S
C2830 C2829 1.398 . S
C2830 C2831 1.391 . S
C2831 H2819 0.950 . S
C2831 C2827 1.393 . S
C2831 C2830 1.391 . S
H2832 C2840 0.950 . S
H2833 C2845 0.950 . S
H2834 C2842 0.950 1_545 S
H2835 C2844 0.950 . S
H2836 C2846 0.950 . S
H2837 C2848 0.950 1_565 S
H2838 C2850 0.950 . S
H2839 C2851 0.950 . S
C2840 H2832 0.950 . S
C2840 C2841 1.386 . S
C2840 C2842 1.391 . S
C2841 C2840 1.386 . S
C2841 C2845 1.393 . S
C2842 H2834 0.950 1_565 S
C2842 C2840 1.391 . S
C2842 C2843 1.400 . S
C2843 C2842 1.400 . S
C2843 C2844 1.398 . S
C2843 C2849 1.491 1_565 S
C2844 H2835 0.950 . S
C2844 C2843 1.398 . S
C2844 C2845 1.391 . S
C2845 H2833 0.950 . S
C2845 C2841 1.393 . S
C2845 C2844 1.391 . S
C2846 H2836 0.950 . S
C2846 C2847 1.386 . S
C2846 C2848 1.391 . S
C2847 C2846 1.386 . S
C2847 C2851 1.393 . S
C2848 H2837 0.950 1_545 S
C2848 C2846 1.391 . S
C2848 C2849 1.400 . S
C2849 C2843 1.491 1_545 S
C2849 C2848 1.400 . S
C2849 C2850 1.398 . S
C2850 H2838 0.950 . S
C2850 C2849 1.398 . S
C2850 C2851 1.391 . S
C2851 H2839 0.950 . S
C2851 C2847 1.393 . S
C2851 C2850 1.391 . S
H2852 C2860 0.950 . S
H2853 C2865 0.950 . S
H2854 C2862 0.950 . S
H2855 C2864 0.950 1_455 S
H2856 C2866 0.950 . S
H2857 C2868 0.950 . S
H2858 C2870 0.950 1_655 S
H2859 C2871 0.950 . S
C2860 H2852 0.950 . S
C2860 C2861 1.386 . S
C2860 C2862 1.391 . S
C2861 C2860 1.386 . S
C2861 C2865 1.393 . S
C2862 H2854 0.950 . S
C2862 C2860 1.391 . S
C2862 C2863 1.400 . S
C2863 C2862 1.400 . S
C2863 C2864 1.398 . S
C2863 C2869 1.491 1_655 S
C2864 H2855 0.950 1_655 S
C2864 C2863 1.398 . S
C2864 C2865 1.391 . S
C2865 H2853 0.950 . S
C2865 C2861 1.393 . S
C2865 C2864 1.391 . S
C2866 H2856 0.950 . S
C2866 C2867 1.386 . S
C2866 C2868 1.391 . S
C2867 C2866 1.386 . S
C2867 C2871 1.393 . S
C2868 H2857 0.950 . S
C2868 C2866 1.391 . S
C2868 C2869 1.400 . S
C2869 C2863 1.491 1_455 S
C2869 C2868 1.400 . S
C2869 C2870 1.398 . S
C2870 H2858 0.950 1_455 S
C2870 C2869 1.398 . S
C2870 C2871 1.391 . S
C2871 H2859 0.950 . S
C2871 C2867 1.393 . S
C2871 C2870 1.391 . S
H2872 C2880 0.950 . S
H2873 C2885 0.950 . S
H2874 C2882 0.950 . S
H2875 C2884 0.950 1_545 S
H2876 C2886 0.950 . S
H2877 C2888 0.950 . S
H2878 C2890 0.950 1_565 S
H2879 C2891 0.950 . S
C2880 H2872 0.950 . S
C2880 C2881 1.386 . S
C2880 C2882 1.391 . S
C2881 C2880 1.386 . S
C2881 C2885 1.393 . S
C2882 H2874 0.950 . S
C2882 C2880 1.391 . S
C2882 C2883 1.400 . S
C2883 C2882 1.400 . S
C2883 C2884 1.398 . S
C2883 C2889 1.491 1_565 S
C2884 H2875 0.950 1_565 S
C2884 C2883 1.398 . S
C2884 C2885 1.391 . S
C2885 H2873 0.950 . S
C2885 C2881 1.393 . S
C2885 C2884 1.391 . S
C2886 H2876 0.950 . S
C2886 C2887 1.386 . S
C2886 C2888 1.391 . S
C2887 C2886 1.386 . S
C2887 C2891 1.393 . S
C2888 H2877 0.950 . S
C2888 C2886 1.391 . S
C2888 C2889 1.400 . S
C2889 C2883 1.491 1_545 S
C2889 C2888 1.400 . S
C2889 C2890 1.398 . S
C2890 H2878 0.950 1_545 S
C2890 C2889 1.398 . S
C2890 C2891 1.391 . S
C2891 H2879 0.950 . S
C2891 C2887 1.393 . S
C2891 C2890 1.391 . S
H2892 C2900 0.950 . S
H2893 C2905 0.950 . S
H2894 C2902 0.950 . S
H2895 C2904 0.950 . S
H2896 C2906 0.950 . S
H2897 C2908 0.950 . S
H2898 C2910 0.950 . S
H2899 C2911 0.950 . S
C2900 H2892 0.950 . S
C2900 C2901 1.386 . S
C2900 C2902 1.391 . S
C2901 C2900 1.386 . S
C2901 C2905 1.393 . S
C2902 H2894 0.950 . S
C2902 C2900 1.391 . S
C2902 C2903 1.400 . S
C2903 C2902 1.400 . S
C2903 C2904 1.398 . S
C2903 C2909 1.491 1_655 S
C2904 H2895 0.950 . S
C2904 C2903 1.398 . S
C2904 C2905 1.391 . S
C2905 H2893 0.950 . S
C2905 C2901 1.393 . S
C2905 C2904 1.391 . S
C2906 H2896 0.950 . S
C2906 C2907 1.386 . S
C2906 C2908 1.391 . S
C2907 C2906 1.386 . S
C2907 C2911 1.393 . S
C2908 H2897 0.950 . S
C2908 C2906 1.391 . S
C2908 C2909 1.400 . S
C2909 C2903 1.491 1_455 S
C2909 C2908 1.400 . S
C2909 C2910 1.398 . S
C2910 H2898 0.950 . S
C2910 C2909 1.398 . S
C2910 C2911 1.391 . S
C2911 H2899 0.950 . S
C2911 C2907 1.393 . S
C2911 C2910 1.391 . S
H2912 C2920 0.950 . S
H2913 C2925 0.950 . S
H2914 C2922 0.950 . S
H2915 C2924 0.950 . S
H2916 C2926 0.950 . S
H2917 C2928 0.950 . S
H2918 C2930 0.950 . S
H2919 C2931 0.950 . S
C2920 H2912 0.950 . S
C2920 C2921 1.386 . S
C2920 C2922 1.391 . S
C2921 C2920 1.386 . S
C2921 C2925 1.393 . S
C2922 H2914 0.950 . S
C2922 C2920 1.391 . S
C2922 C2923 1.400 . S
C2923 C2922 1.400 . S
C2923 C2924 1.398 . S
C2923 C2929 1.491 1_565 S
C2924 H2915 0.950 . S
C2924 C2923 1.398 . S
C2924 C2925 1.391 . S
C2925 H2913 0.950 . S
C2925 C2921 1.393 . S
C2925 C2924 1.391 . S
C2926 H2916 0.950 . S
C2926 C2927 1.386 . S
C2926 C2928 1.391 . S
C2927 C2926 1.386 . S
C2927 C2931 1.393 . S
C2928 H2917 0.950 . S
C2928 C2926 1.391 . S
C2928 C2929 1.400 . S
C2929 C2923 1.491 1_545 S
C2929 C2928 1.400 . S
C2929 C2930 1.398 . S
C2930 H2918 0.950 . S
C2930 C2929 1.398 . S
C2930 C2931 1.391 . S
C2931 H2919 0.950 . S
C2931 C2927 1.393 . S
C2931 C2930 1.391 . S
H2932 C2940 0.950 . S
H2933 C2945 0.950 . S
H2934 C2942 0.995 . S
H2935 C2944 0.950 . S
H2936 C2946 0.950 . S
H2937 C2948 0.995 . S
H2938 C2950 0.950 . S
H2939 C2951 0.950 . S
C2940 H2932 0.950 . S
C2940 C2941 1.386 . S
C2940 C2942 1.391 . S
C2941 C2940 1.386 . S
C2941 C2945 1.393 . S
C2942 H2934 0.995 . S
C2942 C2940 1.391 . S
C2942 C2943 1.400 . S
C2943 C2942 1.400 . S
C2943 C2944 1.398 . S
C2943 C2949 1.491 1_455 S
C2944 H2935 0.950 . S
C2944 C2943 1.398 . S
C2944 C2945 1.391 . S
C2945 H2933 0.950 . S
C2945 C2941 1.393 . S
C2945 C2944 1.391 . S
C2946 H2936 0.950 . S
C2946 C2947 1.386 . S
C2946 C2948 1.391 . S
C2947 C2946 1.386 . S
C2947 C2951 1.393 . S
C2948 H2937 0.995 . S
C2948 C2946 1.391 . S
C2948 C2949 1.400 . S
C2949 C2943 1.491 1_655 S
C2949 C2948 1.400 . S
C2949 C2950 1.398 . S
C2950 H2938 0.950 . S
C2950 C2949 1.398 . S
C2950 C2951 1.391 . S
C2951 H2939 0.950 . S
C2951 C2947 1.393 . S
C2951 C2950 1.391 . S
H2952 C2960 0.950 . S
H2953 C2965 0.950 . S
H2954 C2962 0.950 . S
H2955 C2964 0.987 . S
H2956 C2966 0.950 . S
H2957 C2968 0.950 . S
H2958 C2970 0.987 . S
H2959 C2971 0.950 . S
C2960 H2952 0.950 . S
C2960 C2961 1.386 . S
C2960 C2962 1.391 . S
C2961 C2960 1.386 . S
C2961 C2965 1.393 . S
C2962 H2954 0.950 . S
C2962 C2960 1.391 . S
C2962 C2963 1.400 . S
C2963 C2962 1.400 . S
C2963 C2964 1.398 . S
C2963 C2969 1.491 1_545 S
C2964 H2955 0.987 . S
C2964 C2963 1.398 . S
C2964 C2965 1.391 . S
C2965 H2953 0.950 . S
C2965 C2961 1.393 . S
C2965 C2964 1.391 . S
C2966 H2956 0.950 . S
C2966 C2967 1.386 . S
C2966 C2968 1.391 . S
C2967 C2966 1.386 . S
C2967 C2971 1.393 . S
C2968 H2957 0.950 . S
C2968 C2966 1.391 . S
C2968 C2969 1.400 . S
C2969 C2963 1.491 1_565 S
C2969 C2968 1.400 . S
C2969 C2970 1.398 . S
C2970 H2958 0.987 . S
C2970 C2969 1.398 . S
C2970 C2971 1.391 . S
C2971 H2959 0.950 . S
C2971 C2967 1.393 . S
C2971 C2970 1.391 . S
H2972 C2980 0.950 . S
H2973 C2985 0.950 . S
H2974 C2982 0.950 . S
H2975 C2984 0.950 . S
H2976 C2986 0.950 . S
H2977 C2988 0.950 . S
H2978 C2990 0.950 . S
H2979 C2991 0.950 . S
C2980 H2972 0.950 . S
C2980 C2981 1.386 . S
C2980 C2982 1.391 . S
C2981 C2980 1.386 . S
C2981 C2985 1.393 . S
C2982 H2974 0.950 . S
C2982 C2980 1.391 . S
C2982 C2983 1.400 . S
C2983 C2982 1.400 . S
C2983 C2984 1.398 . S
C2983 C2989 1.491 1_455 S
C2984 H2975 0.950 . S
C2984 C2983 1.398 . S
C2984 C2985 1.391 . S
C2985 H2973 0.950 . S
C2985 C2981 1.393 . S
C2985 C2984 1.391 . S
C2986 H2976 0.950 . S
C2986 C2987 1.386 . S
C2986 C2988 1.391 . S
C2987 C2986 1.386 . S
C2987 C2991 1.393 . S
C2988 H2977 0.950 . S
C2988 C2986 1.391 . S
C2988 C2989 1.400 . S
C2989 C2983 1.491 1_655 S
C2989 C2988 1.400 . S
C2989 C2990 1.398 . S
C2990 H2978 0.950 . S
C2990 C2989 1.398 . S
C2990 C2991 1.391 . S
C2991 H2979 0.950 . S
C2991 C2987 1.393 . S
C2991 C2990 1.391 . S
H2992 C3000 0.950 . S
H2993 C3005 0.950 . S
H2994 C3002 0.941 1_554 S
H2995 C3004 0.950 . S
H2996 C3006 0.950 . S
H2997 C3008 0.941 1_556 S
H2998 C3010 0.950 . S
H2999 C3011 0.950 . S
C3000 H2992 0.950 . S
C3000 C3001 1.386 . S
C3000 C3002 1.391 . S
C3001 C3000 1.386 . S
C3001 C3005 1.393 . S
C3002 H2994 0.941 1_556 S
C3002 C3000 1.391 . S
C3002 C3003 1.400 . S
C3003 C3002 1.400 . S
C3003 C3004 1.398 . S
C3003 C3009 1.491 1_556 S
C3004 H2995 0.950 . S
C3004 C3003 1.398 . S
C3004 C3005 1.391 . S
C3005 H2993 0.950 . S
C3005 C3001 1.393 . S
C3005 C3004 1.391 . S
C3006 H2996 0.950 . S
C3006 C3007 1.386 . S
C3006 C3008 1.391 . S
C3007 C3006 1.386 . S
C3007 C3011 1.393 . S
C3008 H2997 0.941 1_554 S
C3008 C3006 1.391 . S
C3008 C3009 1.400 . S
C3009 C3003 1.491 1_554 S
C3009 C3008 1.400 . S
C3009 C3010 1.398 . S
C3010 H2998 0.950 . S
C3010 C3009 1.398 . S
C3010 C3011 1.391 . S
C3011 H2999 0.950 . S
C3011 C3007 1.393 . S
C3011 C3010 1.391 . S
H3012 C3020 0.950 . S
H3013 C3025 0.950 . S
H3014 C3022 0.950 1_554 S
H3015 C3024 0.950 . S
H3016 C3026 0.950 . S
H3017 C3028 0.950 1_556 S
H3018 C3030 0.950 . S
H3019 C3031 0.950 . S
C3020 H3012 0.950 . S
C3020 C3021 1.386 . S
C3020 C3022 1.391 . S
C3021 C3020 1.386 . S
C3021 C3025 1.393 . S
C3022 H3014 0.950 1_556 S
C3022 C3020 1.391 . S
C3022 C3023 1.400 . S
C3023 C3022 1.400 . S
C3023 C3024 1.398 . S
C3023 C3029 1.491 1_556 S
C3024 H3015 0.950 . S
C3024 C3023 1.398 . S
C3024 C3025 1.391 . S
C3025 H3013 0.950 . S
C3025 C3021 1.393 . S
C3025 C3024 1.391 . S
C3026 H3016 0.950 . S
C3026 C3027 1.386 . S
C3026 C3028 1.391 . S
C3027 C3026 1.386 . S
C3027 C3031 1.393 . S
C3028 H3017 0.950 1_554 S
C3028 C3026 1.391 . S
C3028 C3029 1.400 . S
C3029 C3023 1.491 1_554 S
C3029 C3028 1.400 . S
C3029 C3030 1.398 . S
C3030 H3018 0.950 . S
C3030 C3029 1.398 . S
C3030 C3031 1.391 . S
C3031 H3019 0.950 . S
C3031 C3027 1.393 . S
C3031 C3030 1.391 . S
H3032 C3040 0.950 . S
H3033 C3045 0.950 . S
H3034 C3042 0.950 1_556 S
H3035 C3044 0.950 . S
H3036 C3046 0.950 . S
H3037 C3048 0.950 1_554 S
H3038 C3050 0.950 . S
H3039 C3051 0.950 . S
C3040 H3032 0.950 . S
C3040 C3041 1.386 . S
C3040 C3042 1.391 . S
C3041 C3040 1.386 . S
C3041 C3045 1.393 . S
C3042 H3034 0.950 1_554 S
C3042 C3040 1.391 . S
C3042 C3043 1.400 . S
C3043 C3042 1.400 . S
C3043 C3044 1.398 . S
C3043 C3049 1.491 1_554 S
C3044 H3035 0.950 . S
C3044 C3043 1.398 . S
C3044 C3045 1.391 . S
C3045 H3033 0.950 . S
C3045 C3041 1.393 . S
C3045 C3044 1.391 . S
C3046 H3036 0.950 . S
C3046 C3047 1.386 . S
C3046 C3048 1.391 . S
C3047 C3046 1.386 . S
C3047 C3051 1.393 . S
C3048 H3037 0.950 1_556 S
C3048 C3046 1.391 . S
C3048 C3049 1.400 . S
C3049 C3043 1.491 1_556 S
C3049 C3048 1.400 . S
C3049 C3050 1.398 . S
C3050 H3038 0.950 . S
C3050 C3049 1.398 . S
C3050 C3051 1.391 . S
C3051 H3039 0.950 . S
C3051 C3047 1.393 . S
C3051 C3050 1.391 . S
H3052 C3060 0.950 . S
H3053 C3065 0.950 . S
H3054 C3062 0.950 1_556 S
H3055 C3064 0.950 . S
H3056 C3066 0.950 . S
H3057 C3068 0.950 1_554 S
H3058 C3070 0.950 . S
H3059 C3071 0.950 . S
C3060 H3052 0.950 . S
C3060 C3061 1.386 . S
C3060 C3062 1.391 . S
C3061 C3060 1.386 . S
C3061 C3065 1.393 . S
C3062 H3054 0.950 1_554 S
C3062 C3060 1.391 . S
C3062 C3063 1.400 . S
C3063 C3062 1.400 . S
C3063 C3064 1.398 . S
C3063 C3069 1.491 1_554 S
C3064 H3055 0.950 . S
C3064 C3063 1.398 . S
C3064 C3065 1.391 . S
C3065 H3053 0.950 . S
C3065 C3061 1.393 . S
C3065 C3064 1.391 . S
C3066 H3056 0.950 . S
C3066 C3067 1.386 . S
C3066 C3068 1.391 . S
C3067 C3066 1.386 . S
C3067 C3071 1.393 . S
C3068 H3057 0.950 1_556 S
C3068 C3066 1.391 . S
C3068 C3069 1.400 . S
C3069 C3063 1.491 1_556 S
C3069 C3068 1.400 . S
C3069 C3070 1.398 . S
C3070 H3058 0.950 . S
C3070 C3069 1.398 . S
C3070 C3071 1.391 . S
C3071 H3059 0.950 . S
C3071 C3067 1.393 . S
C3071 C3070 1.391 . S
H3072 C3080 0.950 . S
H3073 C3085 0.950 . S
H3074 C3082 0.950 . S
H3075 C3084 0.950 . S
H3076 C3086 0.950 . S
H3077 C3088 0.950 . S
H3078 C3090 0.950 . S
H3079 C3091 0.950 . S
C3080 H3072 0.950 . S
C3080 C3081 1.386 . S
C3080 C3082 1.391 . S
C3081 C3080 1.386 . S
C3081 C3085 1.393 . S
C3082 H3074 0.950 . S
C3082 C3080 1.391 . S
C3082 C3083 1.400 . S
C3083 C3082 1.400 . S
C3083 C3084 1.398 . S
C3083 C3089 1.491 . S
C3084 H3075 0.950 . S
C3084 C3083 1.398 . S
C3084 C3085 1.391 . S
C3085 H3073 0.950 . S
C3085 C3081 1.393 . S
C3085 C3084 1.391 . S
C3086 H3076 0.950 . S
C3086 C3087 1.386 . S
C3086 C3088 1.391 . S
C3087 C3086 1.386 . S
C3087 C3091 1.393 . S
C3088 H3077 0.950 . S
C3088 C3086 1.391 . S
C3088 C3089 1.400 . S
C3089 C3083 1.491 . S
C3089 C3088 1.400 . S
C3089 C3090 1.398 . S
C3090 H3078 0.950 . S
C3090 C3089 1.398 . S
C3090 C3091 1.391 . S
C3091 H3079 0.950 . S
C3091 C3087 1.393 . S
C3091 C3090 1.391 . S
H3092 C3100 0.950 . S
H3093 C3105 0.950 . S
H3094 C3102 0.950 . S
H3095 C3104 0.950 . S
H3096 C3106 0.950 . S
H3097 C3108 0.950 . S
H3098 C3110 0.950 . S
H3099 C3111 0.950 . S
C3100 H3092 0.950 . S
C3100 C3101 1.386 . S
C3100 C3102 1.391 . S
C3101 C3100 1.386 . S
C3101 C3105 1.393 . S
C3102 H3094 0.950 . S
C3102 C3100 1.391 . S
C3102 C3103 1.400 . S
C3103 C3102 1.400 . S
C3103 C3104 1.398 . S
C3103 C3109 1.491 . S
C3104 H3095 0.950 . S
C3104 C3103 1.398 . S
C3104 C3105 1.391 . S
C3105 H3093 0.950 . S
C3105 C3101 1.393 . S
C3105 C3104 1.391 . S
C3106 H3096 0.950 . S
C3106 C3107 1.386 . S
C3106 C3108 1.391 . S
C3107 C3106 1.386 . S
C3107 C3111 1.393 . S
C3108 H3097 0.950 . S
C3108 C3106 1.391 . S
C3108 C3109 1.400 . S
C3109 C3103 1.491 . S
C3109 C3108 1.400 . S
C3109 C3110 1.398 . S
C3110 H3098 0.950 . S
C3110 C3109 1.398 . S
C3110 C3111 1.391 . S
C3111 H3099 0.950 . S
C3111 C3107 1.393 . S
C3111 C3110 1.391 . S
H3112 C3120 0.950 . S
H3113 C3125 0.950 . S
H3114 C3122 0.950 . S
H3115 C3124 0.950 . S
H3116 C3126 0.950 . S
H3117 C3128 0.950 . S
H3118 C3130 0.950 . S
H3119 C3131 0.950 . S
C3120 H3112 0.950 . S
C3120 C3121 1.386 . S
C3120 C3122 1.391 . S
C3121 C3120 1.386 . S
C3121 C3125 1.393 . S
C3122 H3114 0.950 . S
C3122 C3120 1.391 . S
C3122 C3123 1.400 . S
C3123 C3122 1.400 . S
C3123 C3124 1.398 . S
C3123 C3129 1.491 . S
C3124 H3115 0.950 . S
C3124 C3123 1.398 . S
C3124 C3125 1.391 . S
C3125 H3113 0.950 . S
C3125 C3121 1.393 . S
C3125 C3124 1.391 . S
C3126 H3116 0.950 . S
C3126 C3127 1.386 . S
C3126 C3128 1.391 . S
C3127 C3126 1.386 . S
C3127 C3131 1.393 . S
C3128 H3117 0.950 . S
C3128 C3126 1.391 . S
C3128 C3129 1.400 . S
C3129 C3123 1.491 . S
C3129 C3128 1.400 . S
C3129 C3130 1.398 . S
C3130 H3118 0.950 . S
C3130 C3129 1.398 . S
C3130 C3131 1.391 . S
C3131 H3119 0.950 . S
C3131 C3127 1.393 . S
C3131 C3130 1.391 . S
H3132 C3140 0.950 . S
H3133 C3145 0.950 . S
H3134 C3142 0.950 . S
H3135 C3144 0.950 . S
H3136 C3146 0.950 . S
H3137 C3148 0.950 . S
H3138 C3150 0.950 . S
H3139 C3151 0.950 . S
C3140 H3132 0.950 . S
C3140 C3141 1.386 . S
C3140 C3142 1.391 . S
C3141 C3140 1.386 . S
C3141 C3145 1.393 . S
C3142 H3134 0.950 . S
C3142 C3140 1.391 . S
C3142 C3143 1.400 . S
C3143 C3142 1.400 . S
C3143 C3144 1.398 . S
C3143 C3149 1.491 . S
C3144 H3135 0.950 . S
C3144 C3143 1.398 . S
C3144 C3145 1.391 . S
C3145 H3133 0.950 . S
C3145 C3141 1.393 . S
C3145 C3144 1.391 . S
C3146 H3136 0.950 . S
C3146 C3147 1.386 . S
C3146 C3148 1.391 . S
C3147 C3146 1.386 . S
C3147 C3151 1.393 . S
C3148 H3137 0.950 . S
C3148 C3146 1.391 . S
C3148 C3149 1.400 . S
C3149 C3143 1.491 . S
C3149 C3148 1.400 . S
C3149 C3150 1.398 . S
C3150 H3138 0.950 . S
C3150 C3149 1.398 . S
C3150 C3151 1.391 . S
C3151 H3139 0.950 . S
C3151 C3147 1.393 . S
C3151 C3150 1.391 . S
H3152 C3160 0.950 . S
H3153 C3165 0.950 . S
H3154 C3162 0.950 . S
H3155 C3164 0.950 . S
H3156 C3166 0.950 . S
H3157 C3168 0.950 . S
H3158 C3170 0.950 . S
H3159 C3171 0.950 . S
C3160 H3152 0.950 . S
C3160 C3161 1.386 . S
C3160 C3162 1.391 . S
C3161 C3160 1.386 . S
C3161 C3165 1.393 . S
C3162 H3154 0.950 . S
C3162 C3160 1.391 . S
C3162 C3163 1.400 . S
C3163 C3162 1.400 . S
C3163 C3164 1.398 . S
C3163 C3169 1.491 . S
C3164 H3155 0.950 . S
C3164 C3163 1.398 . S
C3164 C3165 1.391 . S
C3165 H3153 0.950 . S
C3165 C3161 1.393 . S
C3165 C3164 1.391 . S
C3166 H3156 0.950 . S
C3166 C3167 1.386 . S
C3166 C3168 1.391 . S
C3167 C3166 1.386 . S
C3167 C3171 1.393 . S
C3168 H3157 0.950 . S
C3168 C3166 1.391 . S
C3168 C3169 1.400 . S
C3169 C3163 1.491 . S
C3169 C3168 1.400 . S
C3169 C3170 1.398 . S
C3170 H3158 0.950 . S
C3170 C3169 1.398 . S
C3170 C3171 1.391 . S
C3171 H3159 0.950 . S
C3171 C3167 1.393 . S
C3171 C3170 1.391 . S
H3172 C3180 0.950 . S
H3173 C3185 0.950 . S
H3174 C3182 0.950 . S
H3175 C3184 0.950 . S
H3176 C3186 0.950 . S
H3177 C3188 0.950 . S
H3178 C3190 0.950 . S
H3179 C3191 0.950 . S
C3180 H3172 0.950 . S
C3180 C3181 1.386 . S
C3180 C3182 1.391 . S
C3181 C3180 1.386 . S
C3181 C3185 1.393 . S
C3182 H3174 0.950 . S
C3182 C3180 1.391 . S
C3182 C3183 1.400 . S
C3183 C3182 1.400 . S
C3183 C3184 1.398 . S
C3183 C3189 1.491 . S
C3184 H3175 0.950 . S
C3184 C3183 1.398 . S
C3184 C3185 1.391 . S
C3185 H3173 0.950 . S
C3185 C3181 1.393 . S
C3185 C3184 1.391 . S
C3186 H3176 0.950 . S
C3186 C3187 1.386 . S
C3186 C3188 1.391 . S
C3187 C3186 1.386 . S
C3187 C3191 1.393 . S
C3188 H3177 0.950 . S
C3188 C3186 1.391 . S
C3188 C3189 1.400 . S
C3189 C3183 1.491 . S
C3189 C3188 1.400 . S
C3189 C3190 1.398 . S
C3190 H3178 0.950 . S
C3190 C3189 1.398 . S
C3190 C3191 1.391 . S
C3191 H3179 0.950 . S
C3191 C3187 1.393 . S
C3191 C3190 1.391 . S
H3192 C3200 0.950 . S
H3193 C3205 0.950 . S
H3194 C3202 0.950 . S
H3195 C3204 0.950 . S
H3196 C3206 0.950 . S
H3197 C3208 0.950 . S
H3198 C3210 0.950 . S
H3199 C3211 0.950 . S
C3200 H3192 0.950 . S
C3200 C3201 1.386 . S
C3200 C3202 1.391 . S
C3201 C3200 1.386 . S
C3201 C3205 1.393 . S
C3202 H3194 0.950 . S
C3202 C3200 1.391 . S
C3202 C3203 1.400 . S
C3203 C3202 1.400 . S
C3203 C3204 1.398 . S
C3203 C3209 1.491 . S
C3204 H3195 0.950 . S
C3204 C3203 1.398 . S
C3204 C3205 1.391 . S
C3205 H3193 0.950 . S
C3205 C3201 1.393 . S
C3205 C3204 1.391 . S
C3206 H3196 0.950 . S
C3206 C3207 1.386 . S
C3206 C3208 1.391 . S
C3207 C3206 1.386 . S
C3207 C3211 1.393 . S
C3208 H3197 0.950 . S
C3208 C3206 1.391 . S
C3208 C3209 1.400 . S
C3209 C3203 1.491 . S
C3209 C3208 1.400 . S
C3209 C3210 1.398 . S
C3210 H3198 0.950 . S
C3210 C3209 1.398 . S
C3210 C3211 1.391 . S
C3211 H3199 0.950 . S
C3211 C3207 1.393 . S
C3211 C3210 1.391 . S
H3212 C3220 0.950 . S
H3213 C3225 0.950 . S
H3214 C3222 0.950 . S
H3215 C3224 0.950 . S
H3216 C3226 0.950 . S
H3217 C3228 0.950 . S
H3218 C3230 0.950 . S
H3219 C3231 0.950 . S
C3220 H3212 0.950 . S
C3220 C3221 1.386 . S
C3220 C3222 1.391 . S
C3221 C3220 1.386 . S
C3221 C3225 1.393 . S
C3222 H3214 0.950 . S
C3222 C3220 1.391 . S
C3222 C3223 1.400 . S
C3223 C3222 1.400 . S
C3223 C3224 1.398 . S
C3223 C3229 1.491 . S
C3224 H3215 0.950 . S
C3224 C3223 1.398 . S
C3224 C3225 1.391 . S
C3225 H3213 0.950 . S
C3225 C3221 1.393 . S
C3225 C3224 1.391 . S
C3226 H3216 0.950 . S
C3226 C3227 1.386 . S
C3226 C3228 1.391 . S
C3227 C3226 1.386 . S
C3227 C3231 1.393 . S
C3228 H3217 0.950 . S
C3228 C3226 1.391 . S
C3228 C3229 1.400 . S
C3229 C3223 1.491 . S
C3229 C3228 1.400 . S
C3229 C3230 1.398 . S
C3230 H3218 0.950 . S
C3230 C3229 1.398 . S
C3230 C3231 1.391 . S
C3231 H3219 0.950 . S
C3231 C3227 1.393 . S
C3231 C3230 1.391 . S
H3232 C3240 0.950 . S
H3233 C3245 0.950 . S
H3234 C3242 0.950 . S
H3235 C3244 0.950 . S
H3236 C3246 0.950 . S
H3237 C3248 0.950 . S
H3238 C3250 0.950 . S
H3239 C3251 0.950 . S
C3240 H3232 0.950 . S
C3240 C3241 1.386 . S
C3240 C3242 1.391 . S
C3241 C3240 1.386 . S
C3241 C3245 1.393 . S
C3242 H3234 0.950 . S
C3242 C3240 1.391 . S
C3242 C3243 1.400 . S
C3243 C3242 1.400 . S
C3243 C3244 1.398 . S
C3243 C3249 1.491 . S
C3244 H3235 0.950 . S
C3244 C3243 1.398 . S
C3244 C3245 1.391 . S
C3245 H3233 0.950 . S
C3245 C3241 1.393 . S
C3245 C3244 1.391 . S
C3246 H3236 0.950 . S
C3246 C3247 1.386 . S
C3246 C3248 1.391 . S
C3247 C3246 1.386 . S
C3247 C3251 1.393 . S
C3248 H3237 0.950 . S
C3248 C3246 1.391 . S
C3248 C3249 1.400 . S
C3249 C3243 1.491 . S
C3249 C3248 1.400 . S
C3249 C3250 1.398 . S
C3250 H3238 0.950 . S
C3250 C3249 1.398 . S
C3250 C3251 1.391 . S
C3251 H3239 0.950 . S
C3251 C3247 1.393 . S
C3251 C3250 1.391 . S
H3252 C3260 0.950 . S
H3253 C3265 0.950 . S
H3254 C3262 0.950 . S
H3255 C3264 0.950 . S
H3256 C3266 0.950 . S
H3257 C3268 0.950 . S
H3258 C3270 0.950 . S
H3259 C3271 0.950 . S
C3260 H3252 0.950 . S
C3260 C3261 1.386 . S
C3260 C3262 1.391 . S
C3261 C3260 1.386 . S
C3261 C3265 1.393 . S
C3262 H3254 0.950 . S
C3262 C3260 1.391 . S
C3262 C3263 1.400 . S
C3263 C3262 1.400 . S
C3263 C3264 1.398 . S
C3263 C3269 1.491 . S
C3264 H3255 0.950 . S
C3264 C3263 1.398 . S
C3264 C3265 1.391 . S
C3265 H3253 0.950 . S
C3265 C3261 1.393 . S
C3265 C3264 1.391 . S
C3266 H3256 0.950 . S
C3266 C3267 1.386 . S
C3266 C3268 1.391 . S
C3267 C3266 1.386 . S
C3267 C3271 1.393 . S
C3268 H3257 0.950 . S
C3268 C3266 1.391 . S
C3268 C3269 1.400 . S
C3269 C3263 1.491 . S
C3269 C3268 1.400 . S
C3269 C3270 1.398 . S
C3270 H3258 0.950 . S
C3270 C3269 1.398 . S
C3270 C3271 1.391 . S
C3271 H3259 0.950 . S
C3271 C3267 1.393 . S
C3271 C3270 1.391 . S
H3272 C3280 0.950 . S
H3273 C3285 0.950 . S
H3274 C3282 0.950 . S
H3275 C3284 0.950 . S
H3276 C3286 0.950 . S
H3277 C3288 0.950 . S
H3278 C3290 0.950 . S
H3279 C3291 0.950 . S
C3280 H3272 0.950 . S
C3280 C3281 1.386 . S
C3280 C3282 1.391 . S
C3281 C3280 1.386 . S
C3281 C3285 1.393 . S
C3282 H3274 0.950 . S
C3282 C3280 1.391 . S
C3282 C3283 1.400 . S
C3283 C3282 1.400 . S
C3283 C3284 1.398 . S
C3283 C3289 1.491 . S
C3284 H3275 0.950 . S
C3284 C3283 1.398 . S
C3284 C3285 1.391 . S
C3285 H3273 0.950 . S
C3285 C3281 1.393 . S
C3285 C3284 1.391 . S
C3286 H3276 0.950 . S
C3286 C3287 1.386 . S
C3286 C3288 1.391 . S
C3287 C3286 1.386 . S
C3287 C3291 1.393 . S
C3288 H3277 0.950 . S
C3288 C3286 1.391 . S
C3288 C3289 1.400 . S
C3289 C3283 1.491 . S
C3289 C3288 1.400 . S
C3289 C3290 1.398 . S
C3290 H3278 0.950 . S
C3290 C3289 1.398 . S
C3290 C3291 1.391 . S
C3291 H3279 0.950 . S
C3291 C3287 1.393 . S
C3291 C3290 1.391 . S
H3292 C3300 0.950 . S
H3293 C3305 0.950 . S
H3294 C3302 0.950 . S
H3295 C3304 0.950 . S
H3296 C3306 0.950 . S
H3297 C3308 0.950 . S
H3298 C3310 0.950 . S
H3299 C3311 0.950 . S
C3300 H3292 0.950 . S
C3300 C3301 1.386 . S
C3300 C3302 1.391 . S
C3301 C3300 1.386 . S
C3301 C3305 1.393 . S
C3302 H3294 0.950 . S
C3302 C3300 1.391 . S
C3302 C3303 1.400 . S
C3303 C3302 1.400 . S
C3303 C3304 1.398 . S
C3303 C3309 1.491 . S
C3304 H3295 0.950 . S
C3304 C3303 1.398 . S
C3304 C3305 1.391 . S
C3305 H3293 0.950 . S
C3305 C3301 1.393 . S
C3305 C3304 1.391 . S
C3306 H3296 0.950 . S
C3306 C3307 1.386 . S
C3306 C3308 1.391 . S
C3307 C3306 1.386 . S
C3307 C3311 1.393 . S
C3308 H3297 0.950 . S
C3308 C3306 1.391 . S
C3308 C3309 1.400 . S
C3309 C3303 1.491 . S
C3309 C3308 1.400 . S
C3309 C3310 1.398 . S
C3310 H3298 0.950 . S
C3310 C3309 1.398 . S
C3310 C3311 1.391 . S
C3311 H3299 0.950 . S
C3311 C3307 1.393 . S
C3311 C3310 1.391 . S
H3312 C3320 0.950 . S
H3313 C3325 0.950 . S
H3314 C3322 0.950 . S
H3315 C3324 0.950 . S
H3316 C3326 0.950 . S
H3317 C3328 0.950 . S
H3318 C3330 0.950 . S
H3319 C3331 0.950 . S
C3320 H3312 0.950 . S
C3320 C3321 1.386 . S
C3320 C3322 1.391 . S
C3321 C3320 1.386 . S
C3321 C3325 1.393 . S
C3322 H3314 0.950 . S
C3322 C3320 1.391 . S
C3322 C3323 1.400 . S
C3323 C3322 1.400 . S
C3323 C3324 1.398 . S
C3323 C3329 1.491 . S
C3324 H3315 0.950 . S
C3324 C3323 1.398 . S
C3324 C3325 1.391 . S
C3325 H3313 0.950 . S
C3325 C3321 1.393 . S
C3325 C3324 1.391 . S
C3326 H3316 0.950 . S
C3326 C3327 1.386 . S
C3326 C3328 1.391 . S
C3327 C3326 1.386 . S
C3327 C3331 1.393 . S
C3328 H3317 0.950 . S
C3328 C3326 1.391 . S
C3328 C3329 1.400 . S
C3329 C3323 1.491 . S
C3329 C3328 1.400 . S
C3329 C3330 1.398 . S
C3330 H3318 0.950 . S
C3330 C3329 1.398 . S
C3330 C3331 1.391 . S
C3331 H3319 0.950 . S
C3331 C3327 1.393 . S
C3331 C3330 1.391 . S
H3332 C3340 0.950 . S
H3333 C3345 0.950 . S
H3334 C3342 0.950 . S
H3335 C3344 0.950 . S
H3336 C3346 0.950 . S
H3337 C3348 0.950 . S
H3338 C3350 0.950 . S
H3339 C3351 0.950 . S
C3340 H3332 0.950 . S
C3340 C3341 1.386 . S
C3340 C3342 1.391 . S
C3341 C3340 1.386 . S
C3341 C3345 1.393 . S
C3342 H3334 0.950 . S
C3342 C3340 1.391 . S
C3342 C3343 1.400 . S
C3343 C3342 1.400 . S
C3343 C3344 1.398 . S
C3343 C3349 1.491 . S
C3344 H3335 0.950 . S
C3344 C3343 1.398 . S
C3344 C3345 1.391 . S
C3345 H3333 0.950 . S
C3345 C3341 1.393 . S
C3345 C3344 1.391 . S
C3346 H3336 0.950 . S
C3346 C3347 1.386 . S
C3346 C3348 1.391 . S
C3347 C3346 1.386 . S
C3347 C3351 1.393 . S
C3348 H3337 0.950 . S
C3348 C3346 1.391 . S
C3348 C3349 1.400 . S
C3349 C3343 1.491 . S
C3349 C3348 1.400 . S
C3349 C3350 1.398 . S
C3350 H3338 0.950 . S
C3350 C3349 1.398 . S
C3350 C3351 1.391 . S
C3351 H3339 0.950 . S
C3351 C3347 1.393 . S
C3351 C3350 1.391 . S
H3352 C3360 0.950 . S
H3353 C3365 0.950 . S
H3354 C3362 0.950 . S
H3355 C3364 0.950 . S
H3356 C3366 0.950 . S
H3357 C3368 0.950 . S
H3358 C3370 0.950 . S
H3359 C3371 0.950 . S
C3360 H3352 0.950 . S
C3360 C3361 1.386 . S
C3360 C3362 1.391 . S
C3361 C3360 1.386 . S
C3361 C3365 1.393 . S
C3362 H3354 0.950 . S
C3362 C3360 1.391 . S
C3362 C3363 1.400 . S
C3363 C3362 1.400 . S
C3363 C3364 1.398 . S
C3363 C3369 1.491 . S
C3364 H3355 0.950 . S
C3364 C3363 1.398 . S
C3364 C3365 1.391 . S
C3365 H3353 0.950 . S
C3365 C3361 1.393 . S
C3365 C3364 1.391 . S
C3366 H3356 0.950 . S
C3366 C3367 1.386 . S
C3366 C3368 1.391 . S
C3367 C3366 1.386 . S
C3367 C3371 1.393 . S
C3368 H3357 0.950 . S
C3368 C3366 1.391 . S
C3368 C3369 1.400 . S
C3369 C3363 1.491 . S
C3369 C3368 1.400 . S
C3369 C3370 1.398 . S
C3370 H3358 0.950 . S
C3370 C3369 1.398 . S
C3370 C3371 1.391 . S
C3371 H3359 0.950 . S
C3371 C3367 1.393 . S
C3371 C3370 1.391 . S
H3372 C3380 0.950 . S
H3373 C3385 0.950 . S
H3374 C3382 0.950 . S
H3375 C3384 0.950 . S
H3376 C3386 0.950 . S
H3377 C3388 0.950 . S
H3378 C3390 0.950 . S
H3379 C3391 0.950 . S
C3380 H3372 0.950 . S
C3380 C3381 1.386 . S
C3380 C3382 1.391 . S
C3381 C3380 1.386 . S
C3381 C3385 1.393 . S
C3382 H3374 0.950 . S
C3382 C3380 1.391 . S
C3382 C3383 1.400 . S
C3383 C3382 1.400 . S
C3383 C3384 1.398 . S
C3383 C3389 1.491 . S
C3384 H3375 0.950 . S
C3384 C3383 1.398 . S
C3384 C3385 1.391 . S
C3385 H3373 0.950 . S
C3385 C3381 1.393 . S
C3385 C3384 1.391 . S
C3386 H3376 0.950 . S
C3386 C3387 1.386 . S
C3386 C3388 1.391 . S
C3387 C3386 1.386 . S
C3387 C3391 1.393 . S
C3388 H3377 0.950 . S
C3388 C3386 1.391 . S
C3388 C3389 1.400 . S
C3389 C3383 1.491 . S
C3389 C3388 1.400 . S
C3389 C3390 1.398 . S
C3390 H3378 0.950 . S
C3390 C3389 1.398 . S
C3390 C3391 1.391 . S
C3391 H3379 0.950 . S
C3391 C3387 1.393 . S
C3391 C3390 1.391 . S
H3392 C3400 0.950 . S
H3393 C3405 0.950 . S
H3394 C3402 0.950 . S
H3395 C3404 0.950 . S
H3396 C3406 0.950 . S
H3397 C3408 0.950 . S
H3398 C3410 0.950 . S
H3399 C3411 0.950 . S
C3400 H3392 0.950 . S
C3400 C3401 1.386 . S
C3400 C3402 1.391 . S
C3401 C3400 1.386 . S
C3401 C3405 1.393 . S
C3402 H3394 0.950 . S
C3402 C3400 1.391 . S
C3402 C3403 1.400 . S
C3403 C3402 1.400 . S
C3403 C3404 1.398 . S
C3403 C3409 1.491 . S
C3404 H3395 0.950 . S
C3404 C3403 1.398 . S
C3404 C3405 1.391 . S
C3405 H3393 0.950 . S
C3405 C3401 1.393 . S
C3405 C3404 1.391 . S
C3406 H3396 0.950 . S
C3406 C3407 1.386 . S
C3406 C3408 1.391 . S
C3407 C3406 1.386 . S
C3407 C3411 1.393 . S
C3408 H3397 0.950 . S
C3408 C3406 1.391 . S
C3408 C3409 1.400 . S
C3409 C3403 1.491 . S
C3409 C3408 1.400 . S
C3409 C3410 1.398 . S
C3410 H3398 0.950 . S
C3410 C3409 1.398 . S
C3410 C3411 1.391 . S
C3411 H3399 0.950 . S
C3411 C3407 1.393 . S
C3411 C3410 1.391 . S
H3412 C3420 0.950 . S
H3413 C3425 0.950 . S
H3414 C3422 0.950 . S
H3415 C3424 0.950 . S
H3416 C3426 0.950 . S
H3417 C3428 0.950 . S
H3418 C3430 0.950 . S
H3419 C3431 0.950 . S
C3420 H3412 0.950 . S
C3420 C3421 1.386 . S
C3420 C3422 1.391 . S
C3421 C3420 1.386 . S
C3421 C3425 1.393 . S
C3422 H3414 0.950 . S
C3422 C3420 1.391 . S
C3422 C3423 1.400 . S
C3423 C3422 1.400 . S
C3423 C3424 1.398 . S
C3423 C3429 1.491 . S
C3424 H3415 0.950 . S
C3424 C3423 1.398 . S
C3424 C3425 1.391 . S
C3425 H3413 0.950 . S
C3425 C3421 1.393 . S
C3425 C3424 1.391 . S
C3426 H3416 0.950 . S
C3426 C3427 1.386 . S
C3426 C3428 1.391 . S
C3427 C3426 1.386 . S
C3427 C3431 1.393 . S
C3428 H3417 0.950 . S
C3428 C3426 1.391 . S
C3428 C3429 1.400 . S
C3429 C3423 1.491 . S
C3429 C3428 1.400 . S
C3429 C3430 1.398 . S
C3430 H3418 0.950 . S
C3430 C3429 1.398 . S
C3430 C3431 1.391 . S
C3431 H3419 0.950 . S
C3431 C3427 1.393 . S
C3431 C3430 1.391 . S
H3432 C3440 0.950 . S
H3433 C3445 0.950 . S
H3434 C3442 0.950 . S
H3435 C3444 0.950 . S
H3436 C3446 0.950 . S
H3437 C3448 0.950 . S
H3438 C3450 0.950 . S
H3439 C3451 0.950 . S
C3440 H3432 0.950 . S
C3440 C3441 1.386 . S
C3440 C3442 1.391 . S
C3441 C3440 1.386 . S
C3441 C3445 1.393 . S
C3442 H3434 0.950 . S
C3442 C3440 1.391 . S
C3442 C3443 1.400 . S
C3443 C3442 1.400 . S
C3443 C3444 1.398 . S
C3443 C3449 1.491 . S
C3444 H3435 0.950 . S
C3444 C3443 1.398 . S
C3444 C3445 1.391 . S
C3445 H3433 0.950 . S
C3445 C3441 1.393 . S
C3445 C3444 1.391 . S
C3446 H3436 0.950 . S
C3446 C3447 1.386 . S
C3446 C3448 1.391 . S
C3447 C3446 1.386 . S
C3447 C3451 1.393 . S
C3448 H3437 0.950 . S
C3448 C3446 1.391 . S
C3448 C3449 1.400 . S
C3449 C3443 1.491 . S
C3449 C3448 1.400 . S
C3449 C3450 1.398 . S
C3450 H3438 0.950 . S
C3450 C3449 1.398 . S
C3450 C3451 1.391 . S
C3451 H3439 0.950 . S
C3451 C3447 1.393 . S
C3451 C3450 1.391 . S
H3452 C3460 0.950 . S
H3453 C3465 0.950 . S
H3454 C3462 0.950 . S
H3455 C3464 0.950 . S
H3456 C3466 0.950 . S
H3457 C3468 0.950 . S
H3458 C3470 0.950 . S
H3459 C3471 0.950 . S
C3460 H3452 0.950 . S
C3460 C3461 1.386 . S
C3460 C3462 1.391 . S
C3461 C3460 1.386 . S
C3461 C3465 1.393 . S
C3462 H3454 0.950 . S
C3462 C3460 1.391 . S
C3462 C3463 1.400 . S
C3463 C3462 1.400 . S
C3463 C3464 1.398 . S
C3463 C3469 1.491 . S
C3464 H3455 0.950 . S
C3464 C3463 1.398 . S
C3464 C3465 1.391 . S
C3465 H3453 0.950 . S
C3465 C3461 1.393 . S
C3465 C3464 1.391 . S
C3466 H3456 0.950 . S
C3466 C3467 1.386 . S
C3466 C3468 1.391 . S
C3467 C3466 1.386 . S
C3467 C3471 1.393 . S
C3468 H3457 0.950 . S
C3468 C3466 1.391 . S
C3468 C3469 1.400 . S
C3469 C3463 1.491 . S
C3469 C3468 1.400 . S
C3469 C3470 1.398 . S
C3470 H3458 0.950 . S
C3470 C3469 1.398 . S
C3470 C3471 1.391 . S
C3471 H3459 0.950 . S
C3471 C3467 1.393 . S
C3471 C3470 1.391 . S
H3472 C3480 0.950 . S
H3473 C3485 0.950 . S
H3474 C3482 0.950 . S
H3475 C3484 0.950 . S
H3476 C3486 0.950 . S
H3477 C3488 0.950 . S
H3478 C3490 0.950 . S
H3479 C3491 0.950 . S
C3480 H3472 0.950 . S
C3480 C3481 1.386 . S
C3480 C3482 1.391 . S
C3481 C3480 1.386 . S
C3481 C3485 1.393 . S
C3482 H3474 0.950 . S
C3482 C3480 1.391 . S
C3482 C3483 1.400 . S
C3483 C3482 1.400 . S
C3483 C3484 1.398 . S
C3483 C3489 1.491 . S
C3484 H3475 0.950 . S
C3484 C3483 1.398 . S
C3484 C3485 1.391 . S
C3485 H3473 0.950 . S
C3485 C3481 1.393 . S
C3485 C3484 1.391 . S
C3486 H3476 0.950 . S
C3486 C3487 1.386 . S
C3486 C3488 1.391 . S
C3487 C3486 1.386 . S
C3487 C3491 1.393 . S
C3488 H3477 0.950 . S
C3488 C3486 1.391 . S
C3488 C3489 1.400 . S
C3489 C3483 1.491 . S
C3489 C3488 1.400 . S
C3489 C3490 1.398 . S
C3490 H3478 0.950 . S
C3490 C3489 1.398 . S
C3490 C3491 1.391 . S
C3491 H3479 0.950 . S
C3491 C3487 1.393 . S
C3491 C3490 1.391 . S
H3492 C3500 0.950 . S
H3493 C3505 0.950 . S
H3494 C3502 0.950 . S
H3495 C3504 0.950 . S
H3496 C3506 0.950 . S
H3497 C3508 0.950 . S
H3498 C3510 0.950 . S
H3499 C3511 0.950 . S
C3500 H3492 0.950 . S
C3500 C3501 1.386 . S
C3500 C3502 1.391 . S
C3501 C3500 1.386 . S
C3501 C3505 1.393 . S
C3502 H3494 0.950 . S
C3502 C3500 1.391 . S
C3502 C3503 1.400 . S
C3503 C3502 1.400 . S
C3503 C3504 1.398 . S
C3503 C3509 1.491 . S
C3504 H3495 0.950 . S
C3504 C3503 1.398 . S
C3504 C3505 1.391 . S
C3505 H3493 0.950 . S
C3505 C3501 1.393 . S
C3505 C3504 1.391 . S
C3506 H3496 0.950 . S
C3506 C3507 1.386 . S
C3506 C3508 1.391 . S
C3507 C3506 1.386 . S
C3507 C3511 1.393 . S
C3508 H3497 0.950 . S
C3508 C3506 1.391 . S
C3508 C3509 1.400 . S
C3509 C3503 1.491 . S
C3509 C3508 1.400 . S
C3509 C3510 1.398 . S
C3510 H3498 0.950 . S
C3510 C3509 1.398 . S
C3510 C3511 1.391 . S
C3511 H3499 0.950 . S
C3511 C3507 1.393 . S
C3511 C3510 1.391 . S
H3512 C3520 0.950 . S
H3513 C3525 0.950 . S
H3514 C3522 0.950 . S
H3515 C3524 0.950 . S
H3516 C3526 0.950 . S
H3517 C3528 0.950 . S
H3518 C3530 0.950 . S
H3519 C3531 0.950 . S
C3520 H3512 0.950 . S
C3520 C3521 1.386 . S
C3520 C3522 1.391 . S
C3521 C3520 1.386 . S
C3521 C3525 1.393 . S
C3522 H3514 0.950 . S
C3522 C3520 1.391 . S
C3522 C3523 1.400 . S
C3523 C3522 1.400 . S
C3523 C3524 1.398 . S
C3523 C3529 1.491 . S
C3524 H3515 0.950 . S
C3524 C3523 1.398 . S
C3524 C3525 1.391 . S
C3525 H3513 0.950 . S
C3525 C3521 1.393 . S
C3525 C3524 1.391 . S
C3526 H3516 0.950 . S
C3526 C3527 1.386 . S
C3526 C3528 1.391 . S
C3527 C3526 1.386 . S
C3527 C3531 1.393 . S
C3528 H3517 0.950 . S
C3528 C3526 1.391 . S
C3528 C3529 1.400 . S
C3529 C3523 1.491 . S
C3529 C3528 1.400 . S
C3529 C3530 1.398 . S
C3530 H3518 0.950 . S
C3530 C3529 1.398 . S
C3530 C3531 1.391 . S
C3531 H3519 0.950 . S
C3531 C3527 1.393 . S
C3531 C3530 1.391 . S
H3532 C3540 0.950 . S
H3533 C3545 0.950 . S
H3534 C3542 0.950 . S
H3535 C3544 0.950 . S
H3536 C3546 0.950 . S
H3537 C3548 0.950 . S
H3538 C3550 0.950 . S
H3539 C3551 0.950 . S
C3540 H3532 0.950 . S
C3540 C3541 1.386 . S
C3540 C3542 1.391 . S
C3541 C3540 1.386 . S
C3541 C3545 1.393 . S
C3542 H3534 0.950 . S
C3542 C3540 1.391 . S
C3542 C3543 1.400 . S
C3543 C3542 1.400 . S
C3543 C3544 1.398 . S
C3543 C3549 1.491 . S
C3544 H3535 0.950 . S
C3544 C3543 1.398 . S
C3544 C3545 1.391 . S
C3545 H3533 0.950 . S
C3545 C3541 1.393 . S
C3545 C3544 1.391 . S
C3546 H3536 0.950 . S
C3546 C3547 1.386 . S
C3546 C3548 1.391 . S
C3547 C3546 1.386 . S
C3547 C3551 1.393 . S
C3548 H3537 0.950 . S
C3548 C3546 1.391 . S
C3548 C3549 1.400 . S
C3549 C3543 1.491 . S
C3549 C3548 1.400 . S
C3549 C3550 1.398 . S
C3550 H3538 0.950 . S
C3550 C3549 1.398 . S
C3550 C3551 1.391 . S
C3551 H3539 0.950 . S
C3551 C3547 1.393 . S
C3551 C3550 1.391 . S
H3552 C3560 0.950 . S
H3553 C3565 0.950 . S
H3554 C3562 0.950 . S
H3555 C3564 0.950 . S
H3556 C3566 0.950 . S
H3557 C3568 0.950 . S
H3558 C3570 0.950 . S
H3559 C3571 0.950 . S
C3560 H3552 0.950 . S
C3560 C3561 1.386 . S
C3560 C3562 1.391 . S
C3561 C3560 1.386 . S
C3561 C3565 1.393 . S
C3562 H3554 0.950 . S
C3562 C3560 1.391 . S
C3562 C3563 1.400 . S
C3563 C3562 1.400 . S
C3563 C3564 1.398 . S
C3563 C3569 1.491 . S
C3564 H3555 0.950 . S
C3564 C3563 1.398 . S
C3564 C3565 1.391 . S
C3565 H3553 0.950 . S
C3565 C3561 1.393 . S
C3565 C3564 1.391 . S
C3566 H3556 0.950 . S
C3566 C3567 1.386 . S
C3566 C3568 1.391 . S
C3567 C3566 1.386 . S
C3567 C3571 1.393 . S
C3568 H3557 0.950 . S
C3568 C3566 1.391 . S
C3568 C3569 1.400 . S
C3569 C3563 1.491 . S
C3569 C3568 1.400 . S
C3569 C3570 1.398 . S
C3570 H3558 0.950 . S
C3570 C3569 1.398 . S
C3570 C3571 1.391 . S
C3571 H3559 0.950 . S
C3571 C3567 1.393 . S
C3571 C3570 1.391 . S
H3572 C3580 0.950 . S
H3573 C3585 0.950 . S
H3574 C3582 0.950 . S
H3575 C3584 0.950 . S
H3576 C3586 0.950 . S
H3577 C3588 0.950 . S
H3578 C3590 0.950 . S
H3579 C3591 0.950 . S
C3580 H3572 0.950 . S
C3580 C3581 1.386 . S
C3580 C3582 1.391 . S
C3581 C3580 1.386 . S
C3581 C3585 1.393 . S
C3582 H3574 0.950 . S
C3582 C3580 1.391 . S
C3582 C3583 1.400 . S
C3583 C3582 1.400 . S
C3583 C3584 1.398 . S
C3583 C3589 1.491 . S
C3584 H3575 0.950 . S
C3584 C3583 1.398 . S
C3584 C3585 1.391 . S
C3585 H3573 0.950 . S
C3585 C3581 1.393 . S
C3585 C3584 1.391 . S
C3586 H3576 0.950 . S
C3586 C3587 1.386 . S
C3586 C3588 1.391 . S
C3587 C3586 1.386 . S
C3587 C3591 1.393 . S
C3588 H3577 0.950 . S
C3588 C3586 1.391 . S
C3588 C3589 1.400 . S
C3589 C3583 1.491 . S
C3589 C3588 1.400 . S
C3589 C3590 1.398 . S
C3590 H3578 0.950 . S
C3590 C3589 1.398 . S
C3590 C3591 1.391 . S
C3591 H3579 0.950 . S
C3591 C3587 1.393 . S
C3591 C3590 1.391 . S
H3592 C3600 0.950 . S
H3593 C3605 0.950 . S
H3594 C3602 0.950 . S
H3595 C3604 0.950 . S
H3596 C3606 0.950 . S
H3597 C3608 0.950 . S
H3598 C3610 0.950 . S
H3599 C3611 0.950 . S
C3600 H3592 0.950 . S
C3600 C3601 1.386 . S
C3600 C3602 1.391 . S
C3601 C3600 1.386 . S
C3601 C3605 1.393 . S
C3602 H3594 0.950 . S
C3602 C3600 1.391 . S
C3602 C3603 1.400 . S
C3603 C3602 1.400 . S
C3603 C3604 1.398 . S
C3603 C3609 1.491 . S
C3604 H3595 0.950 . S
C3604 C3603 1.398 . S
C3604 C3605 1.391 . S
C3605 H3593 0.950 . S
C3605 C3601 1.393 . S
C3605 C3604 1.391 . S
C3606 H3596 0.950 . S
C3606 C3607 1.386 . S
C3606 C3608 1.391 . S
C3607 C3606 1.386 . S
C3607 C3611 1.393 . S
C3608 H3597 0.950 . S
C3608 C3606 1.391 . S
C3608 C3609 1.400 . S
C3609 C3603 1.491 . S
C3609 C3608 1.400 . S
C3609 C3610 1.398 . S
C3610 H3598 0.950 . S
C3610 C3609 1.398 . S
C3610 C3611 1.391 . S
C3611 H3599 0.950 . S
C3611 C3607 1.393 . S
C3611 C3610 1.391 . S
H3612 C3620 0.950 . S
H3613 C3625 0.950 . S
H3614 C3622 0.950 . S
H3615 C3624 0.950 . S
H3616 C3626 0.950 . S
H3617 C3628 0.950 . S
H3618 C3630 0.950 . S
H3619 C3631 0.950 . S
C3620 H3612 0.950 . S
C3620 C3621 1.386 . S
C3620 C3622 1.391 . S
C3621 C3620 1.386 . S
C3621 C3625 1.393 . S
C3622 H3614 0.950 . S
C3622 C3620 1.391 . S
C3622 C3623 1.400 . S
C3623 C3622 1.400 . S
C3623 C3624 1.398 . S
C3623 C3629 1.491 . S
C3624 H3615 0.950 . S
C3624 C3623 1.398 . S
C3624 C3625 1.391 . S
C3625 H3613 0.950 . S
C3625 C3621 1.393 . S
C3625 C3624 1.391 . S
C3626 H3616 0.950 . S
C3626 C3627 1.386 . S
C3626 C3628 1.391 . S
C3627 C3626 1.386 . S
C3627 C3631 1.393 . S
C3628 H3617 0.950 . S
C3628 C3626 1.391 . S
C3628 C3629 1.400 . S
C3629 C3623 1.491 . S
C3629 C3628 1.400 . S
C3629 C3630 1.398 . S
C3630 H3618 0.950 . S
C3630 C3629 1.398 . S
C3630 C3631 1.391 . S
C3631 H3619 0.950 . S
C3631 C3627 1.393 . S
C3631 C3630 1.391 . S
H3632 C3640 0.950 . S
H3633 C3645 0.950 . S
H3634 C3642 0.950 . S
H3635 C3644 0.950 . S
H3636 C3646 0.950 . S
H3637 C3648 0.950 . S
H3638 C3650 0.950 . S
H3639 C3651 0.950 . S
C3640 H3632 0.950 . S
C3640 C3641 1.386 . S
C3640 C3642 1.391 . S
C3641 C3640 1.386 . S
C3641 C3645 1.393 . S
C3642 H3634 0.950 . S
C3642 C3640 1.391 . S
C3642 C3643 1.400 . S
C3643 C3642 1.400 . S
C3643 C3644 1.398 . S
C3643 C3649 1.491 . S
C3644 H3635 0.950 . S
C3644 C3643 1.398 . S
C3644 C3645 1.391 . S
C3645 H3633 0.950 . S
C3645 C3641 1.393 . S
C3645 C3644 1.391 . S
C3646 H3636 0.950 . S
C3646 C3647 1.386 . S
C3646 C3648 1.391 . S
C3647 C3646 1.386 . S
C3647 C3651 1.393 . S
C3648 H3637 0.950 . S
C3648 C3646 1.391 . S
C3648 C3649 1.400 . S
C3649 C3643 1.491 . S
C3649 C3648 1.400 . S
C3649 C3650 1.398 . S
C3650 H3638 0.950 . S
C3650 C3649 1.398 . S
C3650 C3651 1.391 . S
C3651 H3639 0.950 . S
C3651 C3647 1.393 . S
C3651 C3650 1.391 . S
H3652 C3660 0.950 . S
H3653 C3665 0.950 . S
H3654 C3662 0.950 . S
H3655 C3664 0.950 . S
H3656 C3666 0.950 . S
H3657 C3668 0.950 . S
H3658 C3670 0.950 . S
H3659 C3671 0.950 . S
C3660 H3652 0.950 . S
C3660 C3661 1.386 . S
C3660 C3662 1.391 . S
C3661 C3660 1.386 . S
C3661 C3665 1.393 . S
C3662 H3654 0.950 . S
C3662 C3660 1.391 . S
C3662 C3663 1.400 . S
C3663 C3662 1.400 . S
C3663 C3664 1.398 . S
C3663 C3669 1.491 . S
C3664 H3655 0.950 . S
C3664 C3663 1.398 . S
C3664 C3665 1.391 . S
C3665 H3653 0.950 . S
C3665 C3661 1.393 . S
C3665 C3664 1.391 . S
C3666 H3656 0.950 . S
C3666 C3667 1.386 . S
C3666 C3668 1.391 . S
C3667 C3666 1.386 . S
C3667 C3671 1.393 . S
C3668 H3657 0.950 . S
C3668 C3666 1.391 . S
C3668 C3669 1.400 . S
C3669 C3663 1.491 . S
C3669 C3668 1.400 . S
C3669 C3670 1.398 . S
C3670 H3658 0.950 . S
C3670 C3669 1.398 . S
C3670 C3671 1.391 . S
C3671 H3659 0.950 . S
C3671 C3667 1.393 . S
C3671 C3670 1.391 . S
H3672 C3680 0.950 . S
H3673 C3685 0.950 . S
H3674 C3682 0.950 . S
H3675 C3684 0.950 . S
H3676 C3686 0.950 . S
H3677 C3688 0.950 . S
H3678 C3690 0.950 . S
H3679 C3691 0.950 . S
C3680 H3672 0.950 . S
C3680 C3681 1.386 . S
C3680 C3682 1.391 . S
C3681 C3680 1.386 . S
C3681 C3685 1.393 . S
C3682 H3674 0.950 . S
C3682 C3680 1.391 . S
C3682 C3683 1.400 . S
C3683 C3682 1.400 . S
C3683 C3684 1.398 . S
C3683 C3689 1.491 . S
C3684 H3675 0.950 . S
C3684 C3683 1.398 . S
C3684 C3685 1.391 . S
C3685 H3673 0.950 . S
C3685 C3681 1.393 . S
C3685 C3684 1.391 . S
C3686 H3676 0.950 . S
C3686 C3687 1.386 . S
C3686 C3688 1.391 . S
C3687 C3686 1.386 . S
C3687 C3691 1.393 . S
C3688 H3677 0.950 . S
C3688 C3686 1.391 . S
C3688 C3689 1.400 . S
C3689 C3683 1.491 . S
C3689 C3688 1.400 . S
C3689 C3690 1.398 . S
C3690 H3678 0.950 . S
C3690 C3689 1.398 . S
C3690 C3691 1.391 . S
C3691 H3679 0.950 . S
C3691 C3687 1.393 . S
C3691 C3690 1.391 . S
H3692 C3700 0.950 . S
H3693 C3705 0.950 . S
H3694 C3702 0.950 . S
H3695 C3704 0.950 . S
H3696 C3706 0.950 . S
H3697 C3708 0.950 . S
H3698 C3710 0.950 . S
H3699 C3711 0.950 . S
C3700 H3692 0.950 . S
C3700 C3701 1.386 . S
C3700 C3702 1.391 . S
C3701 C3700 1.386 . S
C3701 C3705 1.393 . S
C3702 H3694 0.950 . S
C3702 C3700 1.391 . S
C3702 C3703 1.400 . S
C3703 C3702 1.400 . S
C3703 C3704 1.398 . S
C3703 C3709 1.491 . S
C3704 H3695 0.950 . S
C3704 C3703 1.398 . S
C3704 C3705 1.391 . S
C3705 H3693 0.950 . S
C3705 C3701 1.393 . S
C3705 C3704 1.391 . S
C3706 H3696 0.950 . S
C3706 C3707 1.386 . S
C3706 C3708 1.391 . S
C3707 C3706 1.386 . S
C3707 C3711 1.393 . S
C3708 H3697 0.950 . S
C3708 C3706 1.391 . S
C3708 C3709 1.400 . S
C3709 C3703 1.491 . S
C3709 C3708 1.400 . S
C3709 C3710 1.398 . S
C3710 H3698 0.950 . S
C3710 C3709 1.398 . S
C3710 C3711 1.391 . S
C3711 H3699 0.950 . S
C3711 C3707 1.393 . S
C3711 C3710 1.391 . S
H3712 C3720 0.950 . S
H3713 C3725 0.950 . S
H3714 C3722 0.950 . S
H3715 C3724 0.950 . S
H3716 C3726 0.950 . S
H3717 C3728 0.950 . S
H3718 C3730 0.950 . S
H3719 C3731 0.950 . S
C3720 H3712 0.950 . S
C3720 C3721 1.386 . S
C3720 C3722 1.391 . S
C3721 C3720 1.386 . S
C3721 C3725 1.393 . S
C3722 H3714 0.950 . S
C3722 C3720 1.391 . S
C3722 C3723 1.400 . S
C3723 C3722 1.400 . S
C3723 C3724 1.398 . S
C3723 C3729 1.491 . S
C3724 H3715 0.950 . S
C3724 C3723 1.398 . S
C3724 C3725 1.391 . S
C3725 H3713 0.950 . S
C3725 C3721 1.393 . S
C3725 C3724 1.391 . S
C3726 H3716 0.950 . S
C3726 C3727 1.386 . S
C3726 C3728 1.391 . S
C3727 C3726 1.386 . S
C3727 C3731 1.393 . S
C3728 H3717 0.950 . S
C3728 C3726 1.391 . S
C3728 C3729 1.400 . S
C3729 C3723 1.491 . S
C3729 C3728 1.400 . S
C3729 C3730 1.398 . S
C3730 H3718 0.950 . S
C3730 C3729 1.398 . S
C3730 C3731 1.391 . S
C3731 H3719 0.950 . S
C3731 C3727 1.393 . S
C3731 C3730 1.391 . S
H3732 C3740 0.950 . S
H3733 C3745 0.950 . S
H3734 C3742 0.950 . S
H3735 C3744 0.950 . S
H3736 C3746 0.950 . S
H3737 C3748 0.950 . S
H3738 C3750 0.950 . S
H3739 C3751 0.950 . S
C3740 H3732 0.950 . S
C3740 C3741 1.386 . S
C3740 C3742 1.391 . S
C3741 C3740 1.386 . S
C3741 C3745 1.393 . S
C3742 H3734 0.950 . S
C3742 C3740 1.391 . S
C3742 C3743 1.400 . S
C3743 C3742 1.400 . S
C3743 C3744 1.398 . S
C3743 C3749 1.491 . S
C3744 H3735 0.950 . S
C3744 C3743 1.398 . S
C3744 C3745 1.391 . S
C3745 H3733 0.950 . S
C3745 C3741 1.393 . S
C3745 C3744 1.391 . S
C3746 H3736 0.950 . S
C3746 C3747 1.386 . S
C3746 C3748 1.391 . S
C3747 C3746 1.386 . S
C3747 C3751 1.393 . S
C3748 H3737 0.950 . S
C3748 C3746 1.391 . S
C3748 C3749 1.400 . S
C3749 C3743 1.491 . S
C3749 C3748 1.400 . S
C3749 C3750 1.398 . S
C3750 H3738 0.950 . S
C3750 C3749 1.398 . S
C3750 C3751 1.391 . S
C3751 H3739 0.950 . S
C3751 C3747 1.393 . S
C3751 C3750 1.391 . S
H3752 C3760 0.950 . S
H3753 C3765 0.950 . S
H3754 C3762 0.950 . S
H3755 C3764 0.950 . S
H3756 C3766 0.950 . S
H3757 C3768 0.950 . S
H3758 C3770 0.950 . S
H3759 C3771 0.950 . S
C3760 H3752 0.950 . S
C3760 C3761 1.386 . S
C3760 C3762 1.391 . S
C3761 C3760 1.386 . S
C3761 C3765 1.393 . S
C3762 H3754 0.950 . S
C3762 C3760 1.391 . S
C3762 C3763 1.400 . S
C3763 C3762 1.400 . S
C3763 C3764 1.398 . S
C3763 C3769 1.491 . S
C3764 H3755 0.950 . S
C3764 C3763 1.398 . S
C3764 C3765 1.391 . S
C3765 H3753 0.950 . S
C3765 C3761 1.393 . S
C3765 C3764 1.391 . S
C3766 H3756 0.950 . S
C3766 C3767 1.386 . S
C3766 C3768 1.391 . S
C3767 C3766 1.386 . S
C3767 C3771 1.393 . S
C3768 H3757 0.950 . S
C3768 C3766 1.391 . S
C3768 C3769 1.400 . S
C3769 C3763 1.491 . S
C3769 C3768 1.400 . S
C3769 C3770 1.398 . S
C3770 H3758 0.950 . S
C3770 C3769 1.398 . S
C3770 C3771 1.391 . S
C3771 H3759 0.950 . S
C3771 C3767 1.393 . S
C3771 C3770 1.391 . S
H3772 C3780 0.950 . S
H3773 C3785 0.950 . S
H3774 C3782 0.950 . S
H3775 C3784 0.950 . S
H3776 C3786 0.950 . S
H3777 C3788 0.950 . S
H3778 C3790 0.950 . S
H3779 C3791 0.950 . S
C3780 H3772 0.950 . S
C3780 C3781 1.386 . S
C3780 C3782 1.391 . S
C3781 C3780 1.386 . S
C3781 C3785 1.393 . S
C3782 H3774 0.950 . S
C3782 C3780 1.391 . S
C3782 C3783 1.400 . S
C3783 C3782 1.400 . S
C3783 C3784 1.398 . S
C3783 C3789 1.491 . S
C3784 H3775 0.950 . S
C3784 C3783 1.398 . S
C3784 C3785 1.391 . S
C3785 H3773 0.950 . S
C3785 C3781 1.393 . S
C3785 C3784 1.391 . S
C3786 H3776 0.950 . S
C3786 C3787 1.386 . S
C3786 C3788 1.391 . S
C3787 C3786 1.386 . S
C3787 C3791 1.393 . S
C3788 H3777 0.950 . S
C3788 C3786 1.391 . S
C3788 C3789 1.400 . S
C3789 C3783 1.491 . S
C3789 C3788 1.400 . S
C3789 C3790 1.398 . S
C3790 H3778 0.950 . S
C3790 C3789 1.398 . S
C3790 C3791 1.391 . S
C3791 H3779 0.950 . S
C3791 C3787 1.393 . S
C3791 C3790 1.391 . S
H3792 C3800 0.950 . S
H3793 C3805 0.950 . S
H3794 C3802 0.950 . S
H3795 C3804 0.950 . S
H3796 C3806 0.950 . S
H3797 C3808 0.950 . S
H3798 C3810 0.950 . S
H3799 C3811 0.950 . S
C3800 H3792 0.950 . S
C3800 C3801 1.386 . S
C3800 C3802 1.391 . S
C3801 C3800 1.386 . S
C3801 C3805 1.393 . S
C3802 H3794 0.950 . S
C3802 C3800 1.391 . S
C3802 C3803 1.400 . S
C3803 C3802 1.400 . S
C3803 C3804 1.398 . S
C3803 C3809 1.491 . S
C3804 H3795 0.950 . S
C3804 C3803 1.398 . S
C3804 C3805 1.391 . S
C3805 H3793 0.950 . S
C3805 C3801 1.393 . S
C3805 C3804 1.391 . S
C3806 H3796 0.950 . S
C3806 C3807 1.386 . S
C3806 C3808 1.391 . S
C3807 C3806 1.386 . S
C3807 C3811 1.393 . S
C3808 H3797 0.950 . S
C3808 C3806 1.391 . S
C3808 C3809 1.400 . S
C3809 C3803 1.491 . S
C3809 C3808 1.400 . S
C3809 C3810 1.398 . S
C3810 H3798 0.950 . S
C3810 C3809 1.398 . S
C3810 C3811 1.391 . S
C3811 H3799 0.950 . S
C3811 C3807 1.393 . S
C3811 C3810 1.391 . S
H3812 C3820 0.950 . S
H3813 C3825 0.950 . S
H3814 C3822 0.950 . S
H3815 C3824 0.950 . S
H3816 C3826 0.950 . S
H3817 C3828 0.950 . S
H3818 C3830 0.950 . S
H3819 C3831 0.950 . S
C3820 H3812 0.950 . S
C3820 C3821 1.386 . S
C3820 C3822 1.391 . S
C3821 C3820 1.386 . S
C3821 C3825 1.393 . S
C3822 H3814 0.950 . S
C3822 C3820 1.391 . S
C3822 C3823 1.400 . S
C3823 C3822 1.400 . S
C3823 C3824 1.398 . S
C3823 C3829 1.491 . S
C3824 H3815 0.950 . S
C3824 C3823 1.398 . S
C3824 C3825 1.391 . S
C3825 H3813 0.950 . S
C3825 C3821 1.393 . S
C3825 C3824 1.391 . S
C3826 H3816 0.950 . S
C3826 C3827 1.386 . S
C3826 C3828 1.391 . S
C3827 C3826 1.386 . S
C3827 C3831 1.393 . S
C3828 H3817 0.950 . S
C3828 C3826 1.391 . S
C3828 C3829 1.400 . S
C3829 C3823 1.491 . S
C3829 C3828 1.400 . S
C3829 C3830 1.398 . S
C3830 H3818 0.950 . S
C3830 C3829 1.398 . S
C3830 C3831 1.391 . S
C3831 H3819 0.950 . S
C3831 C3827 1.393 . S
C3831 C3830 1.391 . S
H3832 C3840 0.950 . S
H3833 C3845 0.950 . S
H3834 C3842 0.950 . S
H3835 C3844 0.950 . S
H3836 C3846 0.950 . S
H3837 C3848 0.950 . S
H3838 C3850 0.950 . S
H3839 C3851 0.950 . S
C3840 H3832 0.950 . S
C3840 C3841 1.386 . S
C3840 C3842 1.391 . S
C3841 C3840 1.386 . S
C3841 C3845 1.393 . S
C3842 H3834 0.950 . S
C3842 C3840 1.391 . S
C3842 C3843 1.400 . S
C3843 C3842 1.400 . S
C3843 C3844 1.398 . S
C3843 C3849 1.491 . S
C3844 H3835 0.950 . S
C3844 C3843 1.398 . S
C3844 C3845 1.391 . S
C3845 H3833 0.950 . S
C3845 C3841 1.393 . S
C3845 C3844 1.391 . S
C3846 H3836 0.950 . S
C3846 C3847 1.386 . S
C3846 C3848 1.391 . S
C3847 C3846 1.386 . S
C3847 C3851 1.393 . S
C3848 H3837 0.950 . S
C3848 C3846 1.391 . S
C3848 C3849 1.400 . S
C3849 C3843 1.491 . S
C3849 C3848 1.400 . S
C3849 C3850 1.398 . S
C3850 H3838 0.950 . S
C3850 C3849 1.398 . S
C3850 C3851 1.391 . S
C3851 H3839 0.950 . S
C3851 C3847 1.393 . S
C3851 C3850 1.391 . S
H3852 C3860 0.950 . S
H3853 C3865 0.950 . S
H3854 C3862 0.950 . S
H3855 C3864 0.950 . S
H3856 C3866 0.950 . S
H3857 C3868 0.950 . S
H3858 C3870 0.950 . S
H3859 C3871 0.950 . S
C3860 H3852 0.950 . S
C3860 C3861 1.386 . S
C3860 C3862 1.391 . S
C3861 C3860 1.386 . S
C3861 C3865 1.393 . S
C3862 H3854 0.950 . S
C3862 C3860 1.391 . S
C3862 C3863 1.400 . S
C3863 C3862 1.400 . S
C3863 C3864 1.398 . S
C3863 C3869 1.491 . S
C3864 H3855 0.950 . S
C3864 C3863 1.398 . S
C3864 C3865 1.391 . S
C3865 H3853 0.950 . S
C3865 C3861 1.393 . S
C3865 C3864 1.391 . S
C3866 H3856 0.950 . S
C3866 C3867 1.386 . S
C3866 C3868 1.391 . S
C3867 C3866 1.386 . S
C3867 C3871 1.393 . S
C3868 H3857 0.950 . S
C3868 C3866 1.391 . S
C3868 C3869 1.400 . S
C3869 C3863 1.491 . S
C3869 C3868 1.400 . S
C3869 C3870 1.398 . S
C3870 H3858 0.950 . S
C3870 C3869 1.398 . S
C3870 C3871 1.391 . S
C3871 H3859 0.950 . S
C3871 C3867 1.393 . S
C3871 C3870 1.391 . S
H3872 C3880 0.950 . S
H3873 C3885 0.950 . S
H3874 C3882 0.950 . S
H3875 C3884 0.950 . S
H3876 C3886 0.950 . S
H3877 C3888 0.950 . S
H3878 C3890 0.950 . S
H3879 C3891 0.950 . S
C3880 H3872 0.950 . S
C3880 C3881 1.386 . S
C3880 C3882 1.391 . S
C3881 C3880 1.386 . S
C3881 C3885 1.393 . S
C3882 H3874 0.950 . S
C3882 C3880 1.391 . S
C3882 C3883 1.400 . S
C3883 C3882 1.400 . S
C3883 C3884 1.398 . S
C3883 C3889 1.491 . S
C3884 H3875 0.950 . S
C3884 C3883 1.398 . S
C3884 C3885 1.391 . S
C3885 H3873 0.950 . S
C3885 C3881 1.393 . S
C3885 C3884 1.391 . S
C3886 H3876 0.950 . S
C3886 C3887 1.386 . S
C3886 C3888 1.391 . S
C3887 C3886 1.386 . S
C3887 C3891 1.393 . S
C3888 H3877 0.950 . S
C3888 C3886 1.391 . S
C3888 C3889 1.400 . S
C3889 C3883 1.491 . S
C3889 C3888 1.400 . S
C3889 C3890 1.398 . S
C3890 H3878 0.950 . S
C3890 C3889 1.398 . S
C3890 C3891 1.391 . S
C3891 H3879 0.950 . S
C3891 C3887 1.393 . S
C3891 C3890 1.391 . S
H3892 C3900 0.950 . S
H3893 C3905 0.950 . S
H3894 C3902 0.950 . S
H3895 C3904 0.950 . S
H3896 C3906 0.950 . S
H3897 C3908 0.950 . S
H3898 C3910 0.950 . S
H3899 C3911 0.950 . S
C3900 H3892 0.950 . S
C3900 C3901 1.386 . S
C3900 C3902 1.391 . S
C3901 C3900 1.386 . S
C3901 C3905 1.393 . S
C3902 H3894 0.950 . S
C3902 C3900 1.391 . S
C3902 C3903 1.400 . S
C3903 C3902 1.400 . S
C3903 C3904 1.398 . S
C3903 C3909 1.491 . S
C3904 H3895 0.950 . S
C3904 C3903 1.398 . S
C3904 C3905 1.391 . S
C3905 H3893 0.950 . S
C3905 C3901 1.393 . S
C3905 C3904 1.391 . S
C3906 H3896 0.950 . S
C3906 C3907 1.386 . S
C3906 C3908 1.391 . S
C3907 C3906 1.386 . S
C3907 C3911 1.393 . S
C3908 H3897 0.950 . S
C3908 C3906 1.391 . S
C3908 C3909 1.400 . S
C3909 C3903 1.491 . S
C3909 C3908 1.400 . S
C3909 C3910 1.398 . S
C3910 H3898 0.950 . S
C3910 C3909 1.398 . S
C3910 C3911 1.391 . S
C3911 H3899 0.950 . S
C3911 C3907 1.393 . S
C3911 C3910 1.391 . S
H3912 C3920 0.950 . S
H3913 C3925 0.950 . S
H3914 C3922 0.950 . S
H3915 C3924 0.950 . S
H3916 C3926 0.950 . S
H3917 C3928 0.950 . S
H3918 C3930 0.950 . S
H3919 C3931 0.950 . S
C3920 H3912 0.950 . S
C3920 C3921 1.386 . S
C3920 C3922 1.391 . S
C3921 C3920 1.386 . S
C3921 C3925 1.393 . S
C3922 H3914 0.950 . S
C3922 C3920 1.391 . S
C3922 C3923 1.400 . S
C3923 C3922 1.400 . S
C3923 C3924 1.398 . S
C3923 C3929 1.491 . S
C3924 H3915 0.950 . S
C3924 C3923 1.398 . S
C3924 C3925 1.391 . S
C3925 H3913 0.950 . S
C3925 C3921 1.393 . S
C3925 C3924 1.391 . S
C3926 H3916 0.950 . S
C3926 C3927 1.386 . S
C3926 C3928 1.391 . S
C3927 C3926 1.386 . S
C3927 C3931 1.393 . S
C3928 H3917 0.950 . S
C3928 C3926 1.391 . S
C3928 C3929 1.400 . S
C3929 C3923 1.491 . S
C3929 C3928 1.400 . S
C3929 C3930 1.398 . S
C3930 H3918 0.950 . S
C3930 C3929 1.398 . S
C3930 C3931 1.391 . S
C3931 H3919 0.950 . S
C3931 C3927 1.393 . S
C3931 C3930 1.391 . S
H3932 C3940 0.950 . S
H3933 C3945 0.950 . S
H3934 C3942 0.950 . S
H3935 C3944 0.950 . S
H3936 C3946 0.950 . S
H3937 C3948 0.950 . S
H3938 C3950 0.950 . S
H3939 C3951 0.950 . S
C3940 H3932 0.950 . S
C3940 C3941 1.386 . S
C3940 C3942 1.391 . S
C3941 C3940 1.386 . S
C3941 C3945 1.393 . S
C3942 H3934 0.950 . S
C3942 C3940 1.391 . S
C3942 C3943 1.400 . S
C3943 C3942 1.400 . S
C3943 C3944 1.398 . S
C3943 C3949 1.491 . S
C3944 H3935 0.950 . S
C3944 C3943 1.398 . S
C3944 C3945 1.391 . S
C3945 H3933 0.950 . S
C3945 C3941 1.393 . S
C3945 C3944 1.391 . S
C3946 H3936 0.950 . S
C3946 C3947 1.386 . S
C3946 C3948 1.391 . S
C3947 C3946 1.386 . S
C3947 C3951 1.393 . S
C3948 H3937 0.950 . S
C3948 C3946 1.391 . S
C3948 C3949 1.400 . S
C3949 C3943 1.491 . S
C3949 C3948 1.400 . S
C3949 C3950 1.398 . S
C3950 H3938 0.950 . S
C3950 C3949 1.398 . S
C3950 C3951 1.391 . S
C3951 H3939 0.950 . S
C3951 C3947 1.393 . S
C3951 C3950 1.391 . S
H3952 C3960 0.950 . S
H3953 C3965 0.950 . S
H3954 C3962 0.950 . S
H3955 C3964 0.950 . S
H3956 C3966 0.950 . S
H3957 C3968 0.950 . S
H3958 C3970 0.950 . S
H3959 C3971 0.950 . S
C3960 H3952 0.950 . S
C3960 C3961 1.386 . S
C3960 C3962 1.391 . S
C3961 C3960 1.386 . S
C3961 C3965 1.393 . S
C3962 H3954 0.950 . S
C3962 C3960 1.391 . S
C3962 C3963 1.400 . S
C3963 C3962 1.400 . S
C3963 C3964 1.398 . S
C3963 C3969 1.491 . S
C3964 H3955 0.950 . S
C3964 C3963 1.398 . S
C3964 C3965 1.391 . S
C3965 H3953 0.950 . S
C3965 C3961 1.393 . S
C3965 C3964 1.391 . S
C3966 H3956 0.950 . S
C3966 C3967 1.386 . S
C3966 C3968 1.391 . S
C3967 C3966 1.386 . S
C3967 C3971 1.393 . S
C3968 H3957 0.950 . S
C3968 C3966 1.391 . S
C3968 C3969 1.400 . S
C3969 C3963 1.491 . S
C3969 C3968 1.400 . S
C3969 C3970 1.398 . S
C3970 H3958 0.950 . S
C3970 C3969 1.398 . S
C3970 C3971 1.391 . S
C3971 H3959 0.950 . S
C3971 C3967 1.393 . S
C3971 C3970 1.391 . S
H3972 C3980 0.950 . S
H3973 C3985 0.950 . S
H3974 C3982 0.950 . S
H3975 C3984 0.950 . S
H3976 C3986 0.950 . S
H3977 C3988 0.950 . S
H3978 C3990 0.950 . S
H3979 C3991 0.950 . S
C3980 H3972 0.950 . S
C3980 C3981 1.386 . S
C3980 C3982 1.391 . S
C3981 C3980 1.386 . S
C3981 C3985 1.393 . S
C3982 H3974 0.950 . S
C3982 C3980 1.391 . S
C3982 C3983 1.400 . S
C3983 C3982 1.400 . S
C3983 C3984 1.398 . S
C3983 C3989 1.491 . S
C3984 H3975 0.950 . S
C3984 C3983 1.398 . S
C3984 C3985 1.391 . S
C3985 H3973 0.950 . S
C3985 C3981 1.393 . S
C3985 C3984 1.391 . S
C3986 H3976 0.950 . S
C3986 C3987 1.386 . S
C3986 C3988 1.391 . S
C3987 C3986 1.386 . S
C3987 C3991 1.393 . S
C3988 H3977 0.950 . S
C3988 C3986 1.391 . S
C3988 C3989 1.400 . S
C3989 C3983 1.491 . S
C3989 C3988 1.400 . S
C3989 C3990 1.398 . S
C3990 H3978 0.950 . S
C3990 C3989 1.398 . S
C3990 C3991 1.391 . S
C3991 H3979 0.950 . S
C3991 C3987 1.393 . S
C3991 C3990 1.391 . S
H3992 C4000 0.950 . S
H3993 C4005 0.950 . S
H3994 C4002 0.950 . S
H3995 C4004 0.950 . S
H3996 C4006 0.950 . S
H3997 C4008 0.950 . S
H3998 C4010 0.950 . S
H3999 C4011 0.950 . S
C4000 H3992 0.950 . S
C4000 C4001 1.386 . S
C4000 C4002 1.391 . S
C4001 C4000 1.386 . S
C4001 C4005 1.393 . S
C4002 H3994 0.950 . S
C4002 C4000 1.391 . S
C4002 C4003 1.400 . S
C4003 C4002 1.400 . S
C4003 C4004 1.398 . S
C4003 C4009 1.491 . S
C4004 H3995 0.950 . S
C4004 C4003 1.398 . S
C4004 C4005 1.391 . S
C4005 H3993 0.950 . S
C4005 C4001 1.393 . S
C4005 C4004 1.391 . S
C4006 H3996 0.950 . S
C4006 C4007 1.386 . S
C4006 C4008 1.391 . S
C4007 C4006 1.386 . S
C4007 C4011 1.393 . S
C4008 H3997 0.950 . S
C4008 C4006 1.391 . S
C4008 C4009 1.400 . S
C4009 C4003 1.491 . S
C4009 C4008 1.400 . S
C4009 C4010 1.398 . S
C4010 H3998 0.950 . S
C4010 C4009 1.398 . S
C4010 C4011 1.391 . S
C4011 H3999 0.950 . S
C4011 C4007 1.393 . S
C4011 C4010 1.391 . S
H4012 C4020 0.950 . S
H4013 C4025 0.950 . S
H4014 C4022 0.950 . S
H4015 C4024 0.950 . S
H4016 C4026 0.950 . S
H4017 C4028 0.950 . S
H4018 C4030 0.950 . S
H4019 C4031 0.950 . S
C4020 H4012 0.950 . S
C4020 C4021 1.386 . S
C4020 C4022 1.391 . S
C4021 C4020 1.386 . S
C4021 C4025 1.393 . S
C4022 H4014 0.950 . S
C4022 C4020 1.391 . S
C4022 C4023 1.400 . S
C4023 C4022 1.400 . S
C4023 C4024 1.398 . S
C4023 C4029 1.491 . S
C4024 H4015 0.950 . S
C4024 C4023 1.398 . S
C4024 C4025 1.391 . S
C4025 H4013 0.950 . S
C4025 C4021 1.393 . S
C4025 C4024 1.391 . S
C4026 H4016 0.950 . S
C4026 C4027 1.386 . S
C4026 C4028 1.391 . S
C4027 C4026 1.386 . S
C4027 C4031 1.393 . S
C4028 H4017 0.950 . S
C4028 C4026 1.391 . S
C4028 C4029 1.400 . S
C4029 C4023 1.491 . S
C4029 C4028 1.400 . S
C4029 C4030 1.398 . S
C4030 H4018 0.950 . S
C4030 C4029 1.398 . S
C4030 C4031 1.391 . S
C4031 H4019 0.950 . S
C4031 C4027 1.393 . S
C4031 C4030 1.391 . S
C1641 C1087 0.779 . S
C1647 C33 0.742 . S
C1661 C67 0.768 . S
C1667 C985 0.741 . S
C1681 C101 0.777 . S
C1687 C1019 0.741 . S
C1701 C1053 0.768 . S
C1707 C135 0.741 . S
C1721 C883 0.755 . S
C1727 C169 0.746 . S
C1741 C917 0.791 . S
C1747 C203 0.767 . S
C1761 C237 0.780 . S
C1767 C951 0.785 . S
C1781 C271 0.760 . S
C1787 C849 0.792 . S
C1801 C305 0.744 . S
C1807 C1529 0.759 . S
C1821 C339 0.791 . S
C1827 C1427 0.755 . S
C1841 C373 0.765 . S
C1847 C1461 0.792 . S
C1861 C407 0.767 . S
C1867 C1495 0.791 . S
C1881 C1631 0.753 . S
C1887 C441 0.791 . S
C1901 C475 0.740 . S
C1907 C1563 0.770 . S
C1921 C509 0.741 . S
C1927 C1597 0.774 . S
C1941 C1393 0.745 . S
C1947 C543 0.756 . S
C1961 C577 0.744 . S
C1967 C1359 0.784 . S
C1981 C1155 0.742 . S
C1987 C611 0.780 . S
C2001 C1189 0.785 . S
C2007 C645 0.780 . S
C2021 C1223 0.755 . S
C2027 C679 0.746 . S
C2041 C713 0.785 . S
C2047 C1121 0.780 . S
C2061 C747 0.749 . S
C2067 C1291 0.751 . S
C2081 C1325 0.792 . S
C2087 C781 0.760 . S
C2101 C815 0.768 . S
C2107 C1257 0.791 . S
C2121 C70 1.858 . S
C2127 C2 1.854 . S
C2141 C36 1.865 . S
C2147 C104 1.855 . S
C2161 C206 1.864 . S
C2167 C138 1.854 . S
C2181 C240 1.855 . S
C2187 C172 1.864 . S
C2201 C274 1.860 . S
C2207 C410 1.865 . S
C2221 C444 1.856 . S
C2227 C308 1.865 . S
C2241 C478 1.864 . S
C2247 C342 1.863 . S
C2261 C512 1.861 . S
C2267 C376 1.853 . S
C2281 C648 1.859 . S
C2287 C546 1.866 . S
C2301 C580 1.858 . S
C2307 C716 1.854 . S
C2321 C614 1.856 . S
C2327 C750 1.865 . S
C2341 C682 1.854 . S
C2347 C784 1.858 . S
C2361 C886 1.866 . S
C2367 C818 1.859 . S
C2381 C920 1.864 . S
C2387 C852 1.862 . S
C2401 C1022 1.863 . S
C2407 C954 1.854 . S
C2421 C1056 1.864 . S
C2427 C988 1.854 . S
C2441 C1090 1.854 . S
C2447 C1226 1.863 . S
C2461 C1124 1.856 . S
C2467 C1260 1.865 . S
C2481 C1294 1.861 . S
C2487 C1158 1.853 . S
C2501 C1328 1.866 . S
C2507 C1192 1.858 . S
C2521 C1362 1.863 . S
C2527 C1464 1.854 . S
C2541 C1532 1.860 . S
C2547 C1396 1.854 . S
C2561 C1566 1.855 . S
C2567 C1430 1.864 . S
C2581 C1600 1.860 . S
C2587 C1498 1.854 . S
C2601 C753 1.150 . S
C2607 C5 1.128 . S
C2621 C39 1.134 . S
C2627 C549 1.144 . S
C2641 C73 1.145 . S
C2647 C787 1.125 . S
C2661 C107 1.126 . S
C2667 C719 1.144 . S
C2681 C141 1.151 . S
C2687 C617 1.127 . S
C2701 C651 1.114 . S
C2707 C175 1.160 . S
C2721 C209 1.117 . S
C2727 C685 1.159 . S
C2741 C243 1.160 . S
C2747 C583 1.115 . S
C2761 C277 1.128 . S
C2767 C447 1.150 . S
C2781 C481 1.135 . S
C2787 C311 1.144 . S
C2801 C515 1.157 . S
C2807 C345 1.120 . S
C2821 C413 1.114 . S
C2827 C379 1.159 . S
C2841 C821 1.160 . S
C2847 C1569 1.114 . S
C2861 C1365 1.114 . S
C2867 C855 1.159 . S
C2881 C1603 1.114 . S
C2887 C889 1.160 . S
C2901 C923 1.148 . S
C2907 C1535 1.130 . S
C2921 C1433 1.128 . S
C2927 C957 1.142 . S
C2941 C1467 1.150 . S
C2947 C991 1.128 . S
C2961 C1501 1.123 . S
C2967 C1025 1.155 . S
C2981 C1059 1.127 . S
C2987 C1399 1.150 . S
C3001 C1093 1.151 . S
C3007 C1263 1.126 . S
C3021 C1127 1.155 . S
C3027 C1297 1.116 . S
C3041 C1331 1.160 . S
C3047 C1161 1.114 . S
C3061 C1229 1.153 . S
C3067 C1195 1.125 . S
C3081 C20 1.854 . S
C3087 C621 1.903 . S
C3101 C655 1.903 . S
C3107 C54 1.854 . S
C3121 C88 1.867 . S
C3127 C689 1.898 . S
C3141 C587 1.895 . S
C3147 C122 1.869 . S
C3161 C156 1.857 . S
C3167 C757 1.900 . S
C3181 C553 1.901 . S
C3187 C190 1.855 . S
C3201 C791 1.902 . S
C3207 C224 1.858 . S
C3221 C258 1.869 . S
C3227 C723 1.895 . S
C3241 C315 1.902 . S
C3247 C292 1.854 . S
C3261 C326 1.871 . S
C3267 C349 1.894 . S
C3281 C360 1.859 . S
C3287 C383 1.899 . S
C3301 C281 1.901 . S
C3307 C394 1.861 . S
C3321 C428 1.870 . S
C3327 C519 1.896 . S
C3341 C462 1.860 . S
C3347 C417 1.901 . S
C3361 C496 1.854 . S
C3367 C451 1.902 . S
C3381 C485 1.895 . S
C3387 C530 1.871 . S
C3401 C111 1.899 . S
C3407 C564 1.860 . S
C3421 C598 1.871 . S
C3427 C179 1.894 . S
C3441 C213 1.903 . S
C3447 C632 1.855 . S
C3461 C247 1.899 . S
C3467 C666 1.859 . S
C3481 C700 1.866 . S
C3487 C145 1.898 . S
C3501 C43 1.901 . S
C3507 C734 1.861 . S
C3521 C768 1.858 . S
C3527 C77 1.900 . S
C3541 C9 1.896 . S
C3547 C802 1.867 . S
C3561 C836 1.869 . S
C3567 C1437 1.895 . S
C3581 C1471 1.897 . S
C3587 C870 1.864 . S
C3601 C904 1.854 . S
C3607 C1505 1.903 . S
C3621 C1403 1.901 . S
C3627 C938 1.855 . S
C3641 C972 1.864 . S
C3647 C1573 1.899 . S
C3661 C1006 1.860 . S
C3667 C1369 1.901 . S
C3681 C1040 1.866 . S
C3687 C1607 1.898 . S
C3701 C1539 1.902 . S
C3707 C1074 1.858 . S
C3721 C1108 1.871 . S
C3727 C1131 1.895 . S
C3741 C1165 1.903 . S
C3747 C1142 1.854 . S
C3761 C1199 1.894 . S
C3767 C1176 1.871 . S
C3781 C1210 1.855 . S
C3787 C1097 1.901 . S
C3801 C1244 1.871 . S
C3807 C1335 1.895 . S
C3821 C1278 1.867 . S
C3827 C1233 1.898 . S
C3841 C1312 1.867 . S
C3847 C1267 1.898 . S
C3861 C1346 1.870 . S
C3867 C1301 1.895 . S
C3881 C1380 1.861 . S
C3887 C927 1.898 . S
C3901 C995 1.894 . S
C3907 C1414 1.871 . S
C3921 C1029 1.903 . S
C3927 C1448 1.855 . S
C3941 C1063 1.899 . S
C3947 C1482 1.864 . S
C3961 C961 1.898 . S
C3967 C1516 1.867 . S
C3981 C859 1.901 . S
C3987 C1550 1.856 . S
C4001 C893 1.901 . S
C4007 C1584 1.861 . S
C4021 C825 1.894 . S
C4027 C1618 1.871 . S
