# Generated by pormake.
# Topology zfd, (5)-cn, num edge types: 1
# Building blocks:
#     Node 0, Type 0, BuildingBlock: XOMCOT_clean_sbu_0, # of connection points: 5
#     Node 1, Type 0, BuildingBlock: XOMCOT_clean_sbu_0, # of connection points: 5
#     Node 2, Type 0, BuildingBlock: XOMCOT_clean_sbu_0, # of connection points: 5
#     Node 3, Type 0, BuildingBlock: XOMCOT_clean_sbu_0, # of connection points: 5
#     Node 4, Type 0, BuildingBlock: XOMCOT_clean_sbu_0, # of connection points: 5
#     Node 5, Type 0, BuildingBlock: XOMCOT_clean_sbu_0, # of connection points: 5
#     Node 6, Type 0, BuildingBlock: XOMCOT_clean_sbu_0, # of connection points: 5
#     Node 7, Type 0, BuildingBlock: XOMCOT_clean_sbu_0, # of connection points: 5
#     Node 8, Type 0, BuildingBlock: XOMCOT_clean_sbu_0, # of connection points: 5
#     Node 9, Type 0, BuildingBlock: XOMCOT_clean_sbu_0, # of connection points: 5
#     Node 10, Type 0, BuildingBlock: XOMCOT_clean_sbu_0, # of connection points: 5
#     Node 11, Type 0, BuildingBlock: XOMCOT_clean_sbu_0, # of connection points: 5
#     Node 12, Type 0, BuildingBlock: XOMCOT_clean_sbu_0, # of connection points: 5
#     Node 13, Type 0, BuildingBlock: XOMCOT_clean_sbu_0, # of connection points: 5
#     Node 14, Type 0, BuildingBlock: XOMCOT_clean_sbu_0, # of connection points: 5
#     Node 15, Type 0, BuildingBlock: XOMCOT_clean_sbu_0, # of connection points: 5
#     Edge 16, Type (0, 0), None
#     Edge 17, Type (0, 0), None
#     Edge 18, Type (0, 0), None
#     Edge 19, Type (0, 0), None
#     Edge 20, Type (0, 0), None
#     Edge 21, Type (0, 0), None
#     Edge 22, Type (0, 0), None
#     Edge 23, Type (0, 0), None
#     Edge 24, Type (0, 0), None
#     Edge 25, Type (0, 0), None
#     Edge 26, Type (0, 0), None
#     Edge 27, Type (0, 0), None
#     Edge 28, Type (0, 0), None
#     Edge 29, Type (0, 0), None
#     Edge 30, Type (0, 0), None
#     Edge 31, Type (0, 0), None
#     Edge 32, Type (0, 0), None
#     Edge 33, Type (0, 0), None
#     Edge 34, Type (0, 0), None
#     Edge 35, Type (0, 0), None
#     Edge 36, Type (0, 0), None
#     Edge 37, Type (0, 0), None
#     Edge 38, Type (0, 0), None
#     Edge 39, Type (0, 0), None
#     Edge 40, Type (0, 0), None
#     Edge 41, Type (0, 0), None
#     Edge 42, Type (0, 0), None
#     Edge 43, Type (0, 0), None
#     Edge 44, Type (0, 0), None
#     Edge 45, Type (0, 0), None
#     Edge 46, Type (0, 0), None
#     Edge 47, Type (0, 0), None
#     Edge 48, Type (0, 0), None
#     Edge 49, Type (0, 0), None
#     Edge 50, Type (0, 0), None
#     Edge 51, Type (0, 0), None
#     Edge 52, Type (0, 0), None
#     Edge 53, Type (0, 0), None
#     Edge 54, Type (0, 0), None
#     Edge 55, Type (0, 0), None
# Relax obj value: 0.398
# Max RMSD: 0.227
# Mean RMSD: 0.227
data_MOF--net-zfd--node1-XOMCOT_clean_sbu_0--edge1-none
_symmetry_space_group_name_H-M    P1
_symmetry_Int_Tables_number       1
_symmetry_cell_setting            triclinic
loop_
_symmetry_equiv_pos_as_xyz
'x, y, z'
_cell_length_a     34.37557
_cell_length_b     34.375569
_cell_length_c     9.1162152
_cell_angle_alpha  90.001871
_cell_angle_beta   89.998551
_cell_angle_gamma 89.999997
loop_
_atom_site_label
_atom_site_type_symbol
_atom_site_fract_x
_atom_site_fract_y
_atom_site_fract_z
_atom_type_partial_charge
Co0 Co 0.12525 0.23566 1.04055 0.0
C1 C 0.19364 0.24371 0.199 0.0
C2 C 0.1491 0.22038 0.33429 0.0
C3 C 0.1788 0.23423 0.41824 0.0
N4 N 0.15886 0.22605 0.19481 0.0
N5 N 0.21053 0.23954 0.33016 0.0
H6 H 0.20979 0.25118 0.10105 0.0
H7 H 0.1241 0.20436 0.37178 0.0
C8 C 0.05731 0.24023 0.3178 0.0
O9 O 0.07916 0.25425 0.4226 0.0
N10 N 0.09218 0.25246 0.89097 0.0
C11 C 0.09969 0.26252 0.75162 0.0
C12 C 0.07819 0.29558 0.72104 0.0
C13 C 0.0688 0.28069 0.94027 0.0
N14 N 0.05524 0.30438 0.83844 0.0
C15 C 0.15837 0.30663 0.94489 0.0
C16 C 0.15198 0.35082 0.19401 0.0
C17 C 0.17442 0.36507 1.07499 0.0
C18 C 0.17527 0.34308 0.94725 0.0
C19 C 0.13416 0.31384 0.1855 0.0
N20 N 0.13879 0.29148 1.06291 0.0
H21 H 0.16349 0.28979 0.84771 0.0
H22 H 0.11908 0.30241 0.27968 0.0
H23 H 0.12153 0.24932 0.68241 0.0
H24 H 0.06213 0.28624 1.05335 0.0
O25 O 0.16903 0.22378 0.89828 0.0
O26 O 0.1295 0.17907 0.95897 0.0
O27 O 0.07295 0.23363 0.18615 0.0
C28 C 0.16028 0.18771 0.88066 0.0
H29 H 0.18017 0.22918 0.53543 0.0
H30 H 0.0756 0.30913 0.61437 0.0
H31 H 0.15034 0.36691 0.29592 0.0
H32 H 0.19261 0.35174 0.85357 0.0
Co33 Co 0.83428 0.12525 1.04057 0.0
C34 C 0.82623 0.19365 0.19902 0.0
C35 C 0.84956 0.1491 0.33432 0.0
C36 C 0.83571 0.17881 0.41826 0.0
N37 N 0.84389 0.15886 0.19484 0.0
N38 N 0.83041 0.21054 0.33018 0.0
H39 H 0.81877 0.2098 0.10107 0.0
H40 H 0.86558 0.1241 0.37181 0.0
C41 C 0.82972 0.05731 0.3178 0.0
O42 O 0.81569 0.07916 0.4226 0.0
N43 N 0.81749 0.09218 0.89097 0.0
C44 C 0.80743 0.09969 0.75162 0.0
C45 C 0.77437 0.07819 0.72104 0.0
C46 C 0.78926 0.0688 0.94027 0.0
N47 N 0.76557 0.05525 0.83844 0.0
C48 C 0.76332 0.15837 0.94489 0.0
C49 C 0.71912 0.15198 0.19399 0.0
C50 C 0.70488 0.17442 1.07497 0.0
C51 C 0.72687 0.17527 0.94724 0.0
C52 C 0.75611 0.13417 0.1855 0.0
N53 N 0.77846 0.13879 1.06291 0.0
H54 H 0.78016 0.16349 0.84772 0.0
H55 H 0.76753 0.11908 0.27968 0.0
H56 H 0.82063 0.12153 0.68242 0.0
H57 H 0.78371 0.06213 1.05334 0.0
O58 O 0.84617 0.16903 0.89831 0.0
O59 O 0.89088 0.12951 0.959 0.0
O60 O 0.83632 0.07296 0.18615 0.0
C61 C 0.88223 0.16028 0.88069 0.0
H62 H 0.84076 0.18018 0.53546 0.0
H63 H 0.76082 0.0756 0.61437 0.0
H64 H 0.70303 0.15035 0.2959 0.0
H65 H 0.71821 0.19261 0.85356 0.0
Co66 Co 0.9447 0.83428 1.04051 0.0
C67 C 0.87631 0.82624 0.19899 0.0
C68 C 0.92085 0.84958 0.33425 0.0
C69 C 0.89115 0.83573 0.41821 0.0
N70 N 0.91109 0.8439 0.19478 0.0
N71 N 0.85942 0.83041 0.33016 0.0
H72 H 0.86016 0.81877 0.10105 0.0
H73 H 0.94586 0.86561 0.37172 0.0
C74 C 1.01264 0.82972 0.31774 0.0
O75 O 0.99079 0.81571 0.42255 0.0
N76 N 0.97776 0.81748 0.89091 0.0
C77 C 0.97025 0.80742 0.75156 0.0
C78 C 0.99175 0.77436 0.72096 0.0
C79 C 1.00114 0.78925 0.9402 0.0
N80 N 1.0147 0.76556 0.83835 0.0
C81 C 0.91157 0.76332 0.94486 0.0
C82 C 0.91796 0.71913 0.19396 0.0
C83 C 0.89552 0.70488 1.07495 0.0
C84 C 0.89467 0.72687 0.94721 0.0
C85 C 0.93578 0.75611 0.18546 0.0
N86 N 0.93115 0.77846 1.06287 0.0
H87 H 0.90646 0.78015 0.84767 0.0
H88 H 0.95087 0.76754 0.27963 0.0
H89 H 0.94841 0.82062 0.68235 0.0
H90 H 1.00781 0.7837 1.05327 0.0
O91 O 0.90091 0.84616 0.89826 0.0
O92 O 0.94045 0.89087 0.95893 0.0
O93 O 0.997 0.83631 0.18608 0.0
C94 C 0.90966 0.88223 0.88064 0.0
H95 H 0.88978 0.84079 0.53541 0.0
H96 H 0.99435 0.76081 0.61428 0.0
H97 H 0.9196 0.70304 0.29588 0.0
H98 H 0.87733 0.7182 0.85354 0.0
Co99 Co 0.23566 0.9447 1.04049 0.0
C100 C 0.24371 0.87631 0.19897 0.0
C101 C 0.22036 0.92086 0.33422 0.0
C102 C 0.23421 0.89116 0.41819 0.0
N103 N 0.22604 0.91109 0.19475 0.0
N104 N 0.23953 0.85943 0.33014 0.0
H105 H 0.25118 0.86016 0.10103 0.0
H106 H 0.20433 0.94586 0.37168 0.0
C107 C 0.24022 1.01264 0.31774 0.0
O108 O 0.25423 0.99079 0.42255 0.0
N109 N 0.25247 0.97776 0.8909 0.0
C110 C 0.26253 0.97025 0.75155 0.0
C111 C 0.29559 0.99175 0.72096 0.0
C112 C 0.2807 1.00114 0.9402 0.0
N113 N 0.30439 1.0147 0.83836 0.0
C114 C 0.30663 0.91157 0.94485 0.0
C115 C 0.35081 0.91796 0.19398 0.0
C116 C 0.36506 0.89552 1.07497 0.0
C117 C 0.34308 0.89467 0.94722 0.0
C118 C 0.31383 0.93578 0.18546 0.0
N119 N 0.29148 0.93115 1.06287 0.0
H120 H 0.28979 0.90646 0.84767 0.0
H121 H 0.30241 0.95087 0.27963 0.0
H122 H 0.24933 0.94842 0.68234 0.0
H123 H 0.28625 1.00782 1.05327 0.0
O124 O 0.22378 0.90091 0.89823 0.0
O125 O 0.17907 0.94045 0.9589 0.0
O126 O 0.23363 0.997 0.18607 0.0
C127 C 0.18772 0.90967 0.8806 0.0
H128 H 0.22915 0.88979 0.53539 0.0
H129 H 0.30913 0.99435 0.61428 0.0
H130 H 0.3669 0.9196 0.29589 0.0
H131 H 0.35175 0.87733 0.85355 0.0
Co132 Co 0.12529 0.83446 0.62669 0.0
C133 C 0.19366 0.82626 0.46808 0.0
C134 C 0.14912 0.84964 0.33278 0.0
C135 C 0.1788 0.83579 0.24869 0.0
N136 N 0.15889 0.84394 0.47227 0.0
N137 N 0.21049 0.83043 0.33685 0.0
H138 H 0.20983 0.81881 0.56599 0.0
H139 H 0.12412 0.86569 0.29539 0.0
C140 C 0.05735 0.82976 0.34951 0.0
O141 O 0.07922 0.81571 0.24482 0.0
N142 N 0.09222 0.81781 0.7765 0.0
C143 C 0.09977 0.80773 0.91586 0.0
C144 C 0.07832 0.77465 0.94661 0.0
C145 C 0.06878 0.78961 0.7273 0.0
N146 N 0.05543 0.76582 0.82913 0.0
C147 C 0.15835 0.76348 0.72273 0.0
C148 C 0.15187 0.7192 0.47388 0.0
C149 C 0.17433 0.70498 0.59288 0.0
C150 C 0.17522 0.72702 0.72051 0.0
C151 C 0.13408 0.7562 0.48224 0.0
N152 N 0.13876 0.7786 0.60469 0.0
H153 H 0.16351 0.78035 0.8198 0.0
H154 H 0.11899 0.7676 0.38805 0.0
H155 H 0.12163 0.82094 0.98495 0.0
H156 H 0.06207 0.78403 0.6143 0.0
O157 O 0.16912 0.84632 0.76878 0.0
O158 O 0.12965 0.89108 0.70793 0.0
O159 O 0.07299 0.83647 0.48111 0.0
C160 C 0.16043 0.88241 0.78621 0.0
H161 H 0.18018 0.84087 0.13152 0.0
H162 H 0.07577 0.76104 1.0532 0.0
H163 H 0.1502 0.70308 0.37205 0.0
H164 H 0.19258 0.71837 0.81416 0.0
Co165 Co 0.23549 0.12529 0.62672 0.0
C166 C 0.24369 0.19366 0.46811 0.0
C167 C 0.2203 0.14911 0.33282 0.0
C168 C 0.23415 0.17879 0.24873 0.0
N169 N 0.226 0.15889 0.47231 0.0
N170 N 0.23952 0.21049 0.33687 0.0
H171 H 0.25114 0.20983 0.56602 0.0
H172 H 0.20424 0.12411 0.29544 0.0
C173 C 0.24018 0.05735 0.34952 0.0
O174 O 0.25423 0.07922 0.24483 0.0
N175 N 0.25215 0.09222 0.77652 0.0
C176 C 0.26222 0.09978 0.91588 0.0
C177 C 0.2953 0.07832 0.94663 0.0
C178 C 0.28034 0.06879 0.72731 0.0
N179 N 0.30413 0.05543 0.82915 0.0
C180 C 0.30647 0.15835 0.72274 0.0
C181 C 0.35074 0.15187 0.47387 0.0
C182 C 0.36496 0.17433 0.59287 0.0
C183 C 0.34293 0.17522 0.72051 0.0
C184 C 0.31374 0.13408 0.48225 0.0
N185 N 0.29134 0.13876 0.6047 0.0
H186 H 0.2896 0.16351 0.81982 0.0
H187 H 0.30234 0.11899 0.38806 0.0
H188 H 0.24901 0.12163 0.98498 0.0
H189 H 0.28592 0.06207 0.61432 0.0
O190 O 0.22362 0.16912 0.76881 0.0
O191 O 0.17887 0.12965 0.70797 0.0
O192 O 0.23348 0.07299 0.48113 0.0
C193 C 0.18754 0.16043 0.78626 0.0
H194 H 0.22906 0.18018 0.13156 0.0
H195 H 0.30891 0.07577 1.05322 0.0
H196 H 0.36686 0.1502 0.37204 0.0
H197 H 0.35158 0.19258 0.81416 0.0
Co198 Co 0.94466 0.23549 0.62677 0.0
C199 C 0.87629 0.24369 0.46813 0.0
C200 C 0.92084 0.22028 0.33288 0.0
C201 C 0.89117 0.23413 0.24876 0.0
N202 N 0.91106 0.226 0.47235 0.0
N203 N 0.85947 0.23952 0.33689 0.0
H204 H 0.86012 0.25115 0.56603 0.0
H205 H 0.94584 0.20422 0.29552 0.0
C206 C 1.0126 0.24018 0.34959 0.0
O207 O 0.99072 0.25421 0.24488 0.0
N208 N 0.97772 0.25216 0.77658 0.0
C209 C 0.97017 0.26223 0.91595 0.0
C210 C 0.99163 0.29531 0.94671 0.0
C211 C 1.00115 0.28036 0.72739 0.0
N212 N 1.01451 0.30414 0.82924 0.0
C213 C 0.91159 0.30647 0.72278 0.0
C214 C 0.91808 0.35074 0.4739 0.0
C215 C 0.89561 0.36496 0.5929 0.0
C216 C 0.89472 0.34293 0.72053 0.0
C217 C 0.93586 0.31374 0.48229 0.0
N218 N 0.93119 0.29134 0.60475 0.0
H219 H 0.90643 0.2896 0.81985 0.0
H220 H 0.95096 0.30233 0.3881 0.0
H221 H 0.94831 0.24902 0.98504 0.0
H222 H 1.00787 0.28593 0.61439 0.0
O223 O 0.90083 0.22363 0.76886 0.0
O224 O 0.9403 0.17888 0.70803 0.0
O225 O 0.99696 0.23349 0.4812 0.0
C226 C 0.90952 0.18754 0.7863 0.0
H227 H 0.88979 0.22903 0.1316 0.0
H228 H 0.99418 0.30891 1.05331 0.0
H229 H 0.91975 0.36685 0.37207 0.0
H230 H 0.87736 0.35158 0.81418 0.0
Co231 Co 0.83445 0.94466 0.62674 0.0
C232 C 0.82626 0.87629 0.4681 0.0
C233 C 0.84965 0.92084 0.33284 0.0
C234 C 0.83581 0.89116 0.24873 0.0
N235 N 0.84394 0.91106 0.47232 0.0
N236 N 0.83043 0.85946 0.33687 0.0
H237 H 0.8188 0.86012 0.56601 0.0
H238 H 0.86571 0.94584 0.29547 0.0
C239 C 0.82977 1.0126 0.34957 0.0
O240 O 0.81573 0.99073 0.24487 0.0
N241 N 0.8178 0.97772 0.77656 0.0
C242 C 0.80772 0.97017 0.91592 0.0
C243 C 0.77464 0.99163 0.94669 0.0
C244 C 0.7896 1.00116 0.72737 0.0
N245 N 0.76581 1.01452 0.82922 0.0
C246 C 0.76348 0.9116 0.72277 0.0
C247 C 0.7192 0.91808 0.47391 0.0
C248 C 0.70498 0.89562 0.59291 0.0
C249 C 0.72701 0.89472 0.72054 0.0
C250 C 0.7562 0.93586 0.48228 0.0
N251 N 0.7786 0.93119 0.60473 0.0
H252 H 0.78035 0.90644 0.81984 0.0
H253 H 0.76761 0.95095 0.38809 0.0
H254 H 0.82093 0.94831 0.98501 0.0
H255 H 0.78402 1.00787 0.61437 0.0
O256 O 0.84632 0.90083 0.76882 0.0
O257 O 0.89107 0.9403 0.70798 0.0
O258 O 0.83646 0.99696 0.48118 0.0
C259 C 0.88241 0.90952 0.78626 0.0
H260 H 0.8409 0.88978 0.13156 0.0
H261 H 0.76104 0.99418 1.05329 0.0
H262 H 0.70308 0.91975 0.37208 0.0
H263 H 0.71837 0.87736 0.81419 0.0
Co264 Co 0.62525 0.73566 0.54056 0.0
C265 C 0.69364 0.74371 0.699 0.0
C266 C 0.6491 0.72038 0.83429 0.0
C267 C 0.6788 0.73423 0.91824 0.0
N268 N 0.65886 0.72605 0.69482 0.0
N269 N 0.71053 0.73954 0.83016 0.0
H270 H 0.70979 0.75118 0.60105 0.0
H271 H 0.6241 0.70436 0.87178 0.0
C272 C 0.55731 0.74023 0.81781 0.0
O273 O 0.57916 0.75425 0.92261 0.0
N274 N 0.59218 0.75246 0.39097 0.0
C275 C 0.59969 0.76252 0.25162 0.0
C276 C 0.57819 0.79558 0.22104 0.0
C277 C 0.5688 0.78069 0.44028 0.0
N278 N 0.55524 0.80438 0.33845 0.0
C279 C 0.65837 0.80663 0.44489 0.0
C280 C 0.65198 0.85082 0.69402 0.0
C281 C 0.67442 0.86506 0.575 0.0
C282 C 0.67527 0.84308 0.44725 0.0
C283 C 0.63416 0.81384 0.68551 0.0
N284 N 0.63879 0.79148 0.56291 0.0
H285 H 0.66349 0.78979 0.34771 0.0
H286 H 0.61908 0.80241 0.77968 0.0
H287 H 0.62153 0.74932 0.18241 0.0
H288 H 0.56213 0.78624 0.55335 0.0
O289 O 0.66903 0.72378 0.39828 0.0
O290 O 0.6295 0.67907 0.45898 0.0
O291 O 0.57295 0.73363 0.68615 0.0
C292 C 0.66028 0.68771 0.38066 0.0
H293 H 0.68017 0.72918 1.03544 0.0
H294 H 0.5756 0.80913 0.11438 0.0
H295 H 0.65034 0.86691 0.79593 0.0
H296 H 0.69262 0.85174 0.35357 0.0
Co297 Co 0.33428 0.62525 0.54057 0.0
C298 C 0.32623 0.69365 0.69903 0.0
C299 C 0.34956 0.6491 0.83432 0.0
C300 C 0.33571 0.67881 0.91826 0.0
N301 N 0.34389 0.65886 0.69484 0.0
N302 N 0.33041 0.71054 0.83018 0.0
H303 H 0.31877 0.7098 0.60107 0.0
H304 H 0.36558 0.6241 0.87181 0.0
C305 C 0.32972 0.55731 0.81781 0.0
O306 O 0.31569 0.57916 0.9226 0.0
N307 N 0.31749 0.59218 0.39098 0.0
C308 C 0.30743 0.59969 0.25163 0.0
C309 C 0.27437 0.57819 0.22104 0.0
C310 C 0.28926 0.5688 0.44028 0.0
N311 N 0.26557 0.55525 0.33844 0.0
C312 C 0.26332 0.65837 0.44489 0.0
C313 C 0.21912 0.65198 0.694 0.0
C314 C 0.20489 0.67442 0.57498 0.0
C315 C 0.22687 0.67527 0.44724 0.0
C316 C 0.25611 0.63417 0.6855 0.0
N317 N 0.27846 0.63879 0.56292 0.0
H318 H 0.28016 0.66349 0.34771 0.0
H319 H 0.26753 0.61908 0.77968 0.0
H320 H 0.32063 0.62153 0.18242 0.0
H321 H 0.28371 0.56213 0.55335 0.0
O322 O 0.34617 0.66903 0.39831 0.0
O323 O 0.39088 0.62951 0.45901 0.0
O324 O 0.33632 0.57296 0.68616 0.0
C325 C 0.38223 0.66028 0.3807 0.0
H326 H 0.34075 0.68018 1.03546 0.0
H327 H 0.26082 0.5756 0.11438 0.0
H328 H 0.20303 0.65035 0.79591 0.0
H329 H 0.21821 0.69261 0.35356 0.0
Co330 Co 0.4447 0.33428 0.54051 0.0
C331 C 0.37631 0.32624 0.69899 0.0
C332 C 0.42085 0.34958 0.83425 0.0
C333 C 0.39115 0.33573 0.91822 0.0
N334 N 0.41109 0.3439 0.69478 0.0
N335 N 0.35942 0.33041 0.83016 0.0
H336 H 0.36016 0.31877 0.60105 0.0
H337 H 0.44586 0.3656 0.87172 0.0
C338 C 0.51264 0.32972 0.81774 0.0
O339 O 0.49079 0.31571 0.92255 0.0
N340 N 0.47776 0.31748 0.39091 0.0
C341 C 0.47025 0.30742 0.25156 0.0
C342 C 0.49175 0.27436 0.22096 0.0
C343 C 0.50114 0.28925 0.4402 0.0
N344 N 0.5147 0.26556 0.33835 0.0
C345 C 0.41157 0.26332 0.44485 0.0
C346 C 0.41796 0.21913 0.69397 0.0
C347 C 0.39552 0.20489 0.57496 0.0
C348 C 0.39467 0.22687 0.44721 0.0
C349 C 0.43578 0.25611 0.68546 0.0
N350 N 0.43115 0.27846 0.56287 0.0
H351 H 0.40646 0.28016 0.34767 0.0
H352 H 0.45087 0.26754 0.77963 0.0
H353 H 0.44841 0.32062 0.18236 0.0
H354 H 0.50781 0.2837 0.55327 0.0
O355 O 0.40091 0.34617 0.39826 0.0
O356 O 0.44045 0.39087 0.45894 0.0
O357 O 0.49699 0.33631 0.68608 0.0
C358 C 0.40966 0.38223 0.38064 0.0
H359 H 0.38978 0.34078 1.03541 0.0
H360 H 0.49435 0.26081 0.11428 0.0
H361 H 0.4196 0.20304 0.79588 0.0
H362 H 0.37733 0.2182 0.35354 0.0
Co363 Co 0.73566 0.4447 0.54049 0.0
C364 C 0.74371 0.37631 0.69897 0.0
C365 C 0.72036 0.42086 0.83423 0.0
C366 C 0.73421 0.39116 0.91819 0.0
N367 N 0.72604 0.41109 0.69476 0.0
N368 N 0.73953 0.35943 0.83014 0.0
H369 H 0.75118 0.36016 0.60103 0.0
H370 H 0.70433 0.44586 0.87169 0.0
C371 C 0.74022 0.51264 0.81774 0.0
O372 O 0.75423 0.49079 0.92256 0.0
N373 N 0.75247 0.47776 0.39091 0.0
C374 C 0.76253 0.47025 0.25155 0.0
C375 C 0.79559 0.49175 0.22096 0.0
C376 C 0.7807 0.50114 0.4402 0.0
N377 N 0.80439 0.5147 0.33836 0.0
C378 C 0.80663 0.41157 0.44485 0.0
C379 C 0.85081 0.41796 0.69399 0.0
C380 C 0.86505 0.39552 0.57498 0.0
C381 C 0.84308 0.39467 0.44722 0.0
C382 C 0.81383 0.43578 0.68547 0.0
N383 N 0.79148 0.43115 0.56287 0.0
H384 H 0.78979 0.40646 0.34767 0.0
H385 H 0.80241 0.45087 0.77963 0.0
H386 H 0.74933 0.44842 0.18235 0.0
H387 H 0.78625 0.50782 0.55328 0.0
O388 O 0.72378 0.40091 0.39823 0.0
O389 O 0.67907 0.44045 0.45891 0.0
O390 O 0.73363 0.497 0.68608 0.0
C391 C 0.68772 0.40967 0.3806 0.0
H392 H 0.72915 0.38979 1.03539 0.0
H393 H 0.80913 0.49435 0.11428 0.0
H394 H 0.8669 0.4196 0.7959 0.0
H395 H 0.85175 0.37732 0.35355 0.0
Co396 Co 0.62529 0.33446 0.12669 0.0
C397 C 0.69366 0.32626 0.96808 0.0
C398 C 0.64911 0.34964 0.83279 0.0
C399 C 0.6788 0.33579 0.7487 0.0
N400 N 0.65889 0.34394 0.97227 0.0
N401 N 0.71049 0.33043 0.83685 0.0
H402 H 0.70983 0.31881 1.066 0.0
H403 H 0.62412 0.36569 0.79539 0.0
C404 C 0.55735 0.32976 0.84951 0.0
O405 O 0.57922 0.31571 0.74482 0.0
N406 N 0.59222 0.3178 0.2765 0.0
C407 C 0.59977 0.30773 0.41586 0.0
C408 C 0.57832 0.27465 0.44661 0.0
C409 C 0.56878 0.28961 0.2273 0.0
N410 N 0.55543 0.26582 0.32914 0.0
C411 C 0.65835 0.26348 0.22273 0.0
C412 C 0.65187 0.2192 0.97387 0.0
C413 C 0.67433 0.20499 0.09287 0.0
C414 C 0.67522 0.22702 0.22051 0.0
C415 C 0.63408 0.2562 0.98224 0.0
N416 N 0.63876 0.2786 0.10469 0.0
H417 H 0.66351 0.28035 0.31981 0.0
H418 H 0.61899 0.2676 0.88805 0.0
H419 H 0.62163 0.32094 0.48496 0.0
H420 H 0.56207 0.28403 0.11431 0.0
O421 O 0.66912 0.34632 0.26878 0.0
O422 O 0.62965 0.39107 0.20793 0.0
O423 O 0.57299 0.33646 0.98111 0.0
C424 C 0.66043 0.38241 0.28621 0.0
H425 H 0.68018 0.34088 0.63153 0.0
H426 H 0.57577 0.26104 0.5532 0.0
H427 H 0.65019 0.20308 0.87205 0.0
H428 H 0.69258 0.21837 0.31417 0.0
Co429 Co 0.73549 0.62529 0.12672 0.0
C430 C 0.74369 0.69366 0.96811 0.0
C431 C 0.72029 0.64911 0.83283 0.0
C432 C 0.73414 0.67879 0.74873 0.0
N433 N 0.726 0.65889 0.97231 0.0
N434 N 0.73952 0.71049 0.83687 0.0
H435 H 0.75114 0.70983 1.06602 0.0
H436 H 0.70424 0.62411 0.79545 0.0
C437 C 0.74018 0.55735 0.84953 0.0
O438 O 0.75422 0.57922 0.74484 0.0
N439 N 0.75215 0.59222 0.27653 0.0
C440 C 0.76222 0.59978 0.41589 0.0
C441 C 0.7953 0.57832 0.44663 0.0
C442 C 0.78034 0.56879 0.22732 0.0
N443 N 0.80413 0.55543 0.32915 0.0
C444 C 0.80647 0.65835 0.22275 0.0
C445 C 0.85074 0.65187 0.97386 0.0
C446 C 0.86495 0.67433 0.09286 0.0
C447 C 0.84293 0.67523 0.22051 0.0
C448 C 0.81374 0.63408 0.98225 0.0
N449 N 0.79134 0.63876 0.10471 0.0
H450 H 0.7896 0.66351 0.31982 0.0
H451 H 0.80234 0.61899 0.88806 0.0
H452 H 0.74901 0.62163 0.48499 0.0
H453 H 0.78592 0.56207 0.11432 0.0
O454 O 0.72362 0.66912 0.26882 0.0
O455 O 0.67887 0.62965 0.20798 0.0
O456 O 0.73348 0.57299 0.98113 0.0
C457 C 0.68754 0.66043 0.28626 0.0
H458 H 0.72905 0.68017 0.63156 0.0
H459 H 0.80891 0.57577 0.55323 0.0
H460 H 0.86686 0.65019 0.87204 0.0
H461 H 0.85158 0.69259 0.31416 0.0
Co462 Co 0.44466 0.73549 0.12678 0.0
C463 C 0.37629 0.74369 0.96814 0.0
C464 C 0.42084 0.72028 0.83289 0.0
C465 C 0.39117 0.73413 0.74877 0.0
N466 N 0.41106 0.726 0.97236 0.0
N467 N 0.35947 0.73952 0.83689 0.0
H468 H 0.36012 0.75115 1.06604 0.0
H469 H 0.44584 0.70422 0.79553 0.0
C470 C 0.5126 0.74018 0.84959 0.0
O471 O 0.49072 0.75421 0.74488 0.0
N472 N 0.47772 0.75216 0.27659 0.0
C473 C 0.47017 0.76223 0.41595 0.0
C474 C 0.49163 0.79531 0.44672 0.0
C475 C 0.50115 0.78036 0.22739 0.0
N476 N 0.51451 0.80414 0.32924 0.0
C477 C 0.41159 0.80647 0.22278 0.0
C478 C 0.41808 0.85074 0.9739 0.0
C479 C 0.39561 0.86495 0.09289 0.0
C480 C 0.39472 0.84293 0.22054 0.0
C481 C 0.43586 0.81374 0.98229 0.0
N482 N 0.43119 0.79134 0.10475 0.0
H483 H 0.40643 0.7896 0.31986 0.0
H484 H 0.45096 0.80233 0.88811 0.0
H485 H 0.44831 0.74902 0.48505 0.0
H486 H 0.50787 0.78593 0.11439 0.0
O487 O 0.40083 0.72363 0.26886 0.0
O488 O 0.4403 0.67888 0.20804 0.0
O489 O 0.49696 0.73349 0.9812 0.0
C490 C 0.40952 0.68754 0.28631 0.0
H491 H 0.38979 0.72903 0.6316 0.0
H492 H 0.49418 0.80891 0.55332 0.0
H493 H 0.41975 0.86686 0.87207 0.0
H494 H 0.37735 0.85158 0.31418 0.0
Co495 Co 0.33445 0.44466 0.12675 0.0
C496 C 0.32626 0.37629 0.96811 0.0
C497 C 0.34965 0.42084 0.83284 0.0
C498 C 0.33581 0.39116 0.74873 0.0
N499 N 0.34394 0.41106 0.97232 0.0
N500 N 0.33043 0.35946 0.83687 0.0
H501 H 0.3188 0.36012 1.06601 0.0
H502 H 0.36571 0.44584 0.79548 0.0
C503 C 0.32977 0.5126 0.84958 0.0
O504 O 0.31573 0.49073 0.74487 0.0
N505 N 0.31779 0.47772 0.27657 0.0
C506 C 0.30772 0.47017 0.41593 0.0
C507 C 0.27464 0.49163 0.4467 0.0
C508 C 0.28959 0.50116 0.22738 0.0
N509 N 0.26581 0.51452 0.32923 0.0
C510 C 0.26348 0.41159 0.22277 0.0
C511 C 0.2192 0.41808 0.9739 0.0
C512 C 0.20499 0.39562 0.0929 0.0
C513 C 0.22701 0.39472 0.22054 0.0
C514 C 0.2562 0.43586 0.98228 0.0
N515 N 0.2786 0.43119 0.10474 0.0
H516 H 0.28035 0.40644 0.31984 0.0
H517 H 0.26761 0.45096 0.8881 0.0
H518 H 0.32093 0.44831 0.48502 0.0
H519 H 0.28402 0.50787 0.11438 0.0
O520 O 0.34632 0.40083 0.26882 0.0
O521 O 0.39107 0.4403 0.20799 0.0
O522 O 0.33646 0.49696 0.98118 0.0
C523 C 0.38241 0.40952 0.28626 0.0
H524 H 0.3409 0.38978 0.63157 0.0
H525 H 0.26104 0.49418 0.55329 0.0
H526 H 0.20308 0.41975 0.87208 0.0
H527 H 0.21837 0.37736 0.31419 0.0
loop_
_geom_bond_atom_site_label_1
_geom_bond_atom_site_label_2
_geom_bond_distance
_geom_bond_site_symmetry_2
_ccdc_geom_bond_type
Co0 N4 2.148 1_556 S
Co0 N10 2.128 . S
Co0 N20 2.194 1_556 S
Co0 O25 2.351 . S
Co0 O26 2.155 . S
Co0 O27 2.096 1_556 S
C1 N4 1.301 . S
C1 N5 1.328 . S
C1 H6 0.930 . S
C2 C3 1.333 . S
C2 N4 1.317 . S
C2 H7 0.930 . S
C3 C2 1.333 . S
C3 N5 1.350 . S
C3 H29 0.931 . S
N4 Co0 2.148 1_554 S
N4 C1 1.301 . S
N4 C2 1.317 . S
N5 C1 1.328 . S
N5 C3 1.350 . S
H6 C1 0.930 . S
H7 C2 0.930 . S
C8 O9 1.224 . S
C8 O27 1.247 . S
O9 C8 1.224 . S
N10 Co0 2.128 . S
N10 C11 1.355 . S
N10 C13 1.311 . S
C11 N10 1.355 . S
C11 C12 1.363 . S
C11 H23 0.929 . S
C12 C11 1.363 . S
C12 N14 1.375 . S
C12 H30 0.931 . S
C13 N10 1.311 . S
C13 N14 1.347 . S
C13 H24 0.949 . S
N14 C12 1.375 . S
N14 C13 1.347 . S
C15 C18 1.365 . S
C15 N20 1.328 1_556 S
C15 H21 0.929 . S
C16 C17 1.362 . S
C16 C19 1.378 . S
C16 H31 0.929 . S
C17 C16 1.362 . S
C17 C18 1.366 1_554 S
C18 C15 1.365 . S
C18 C17 1.366 1_556 S
C18 H32 0.930 . S
C19 C16 1.378 . S
C19 N20 1.315 . S
C19 H22 0.930 . S
N20 Co0 2.194 1_554 S
N20 C15 1.328 1_554 S
N20 C19 1.315 . S
H21 C15 0.929 . S
H22 C19 0.930 . S
H23 C11 0.929 . S
H24 C13 0.949 . S
O25 Co0 2.351 . S
O25 C28 1.244 . S
O26 Co0 2.155 . S
O26 C28 1.240 . S
O27 Co0 2.096 1_554 S
O27 C8 1.247 . S
C28 O25 1.244 . S
C28 O26 1.240 . S
H29 C3 0.931 . S
H30 C12 0.931 . S
H31 C16 0.929 . S
H32 C18 0.930 . S
Co33 N37 2.148 1_556 S
Co33 N43 2.128 . S
Co33 N53 2.194 1_556 S
Co33 O58 2.351 . S
Co33 O59 2.155 . S
Co33 O60 2.096 1_556 S
C34 N37 1.301 . S
C34 N38 1.328 . S
C34 H39 0.930 . S
C35 C36 1.333 . S
C35 N37 1.317 . S
C35 H40 0.930 . S
C36 C35 1.333 . S
C36 N38 1.350 . S
C36 H62 0.931 . S
N37 Co33 2.148 1_554 S
N37 C34 1.301 . S
N37 C35 1.317 . S
N38 C34 1.328 . S
N38 C36 1.350 . S
H39 C34 0.930 . S
H40 C35 0.930 . S
C41 O42 1.224 . S
C41 O60 1.247 . S
O42 C41 1.224 . S
N43 Co33 2.128 . S
N43 C44 1.355 . S
N43 C46 1.311 . S
C44 N43 1.355 . S
C44 C45 1.363 . S
C44 H56 0.929 . S
C45 C44 1.363 . S
C45 N47 1.375 . S
C45 H63 0.931 . S
C46 N43 1.311 . S
C46 N47 1.347 . S
C46 H57 0.949 . S
N47 C45 1.375 . S
N47 C46 1.347 . S
C48 C51 1.365 . S
C48 N53 1.328 1_556 S
C48 H54 0.929 . S
C49 C50 1.362 . S
C49 C52 1.378 . S
C49 H64 0.929 . S
C50 C49 1.362 . S
C50 C51 1.366 1_554 S
C51 C48 1.365 . S
C51 C50 1.366 1_556 S
C51 H65 0.930 . S
C52 C49 1.378 . S
C52 N53 1.315 . S
C52 H55 0.930 . S
N53 Co33 2.194 1_554 S
N53 C48 1.328 1_554 S
N53 C52 1.315 . S
H54 C48 0.929 . S
H55 C52 0.930 . S
H56 C44 0.929 . S
H57 C46 0.949 . S
O58 Co33 2.351 . S
O58 C61 1.244 . S
O59 Co33 2.155 . S
O59 C61 1.240 . S
O60 Co33 2.096 1_554 S
O60 C41 1.247 . S
C61 O58 1.244 . S
C61 O59 1.240 . S
H62 C36 0.931 . S
H63 C45 0.931 . S
H64 C49 0.929 . S
H65 C51 0.930 . S
Co66 N70 2.148 1_556 S
Co66 N76 2.128 . S
Co66 N86 2.194 1_556 S
Co66 O91 2.351 . S
Co66 O92 2.155 . S
Co66 O93 2.096 1_556 S
C67 N70 1.301 . S
C67 N71 1.328 . S
C67 H72 0.930 . S
C68 C69 1.333 . S
C68 N70 1.317 . S
C68 H73 0.930 . S
C69 C68 1.333 . S
C69 N71 1.350 . S
C69 H95 0.931 . S
N70 Co66 2.148 1_554 S
N70 C67 1.301 . S
N70 C68 1.317 . S
N71 C67 1.328 . S
N71 C69 1.350 . S
H72 C67 0.930 . S
H73 C68 0.930 . S
C74 O75 1.224 . S
C74 O93 1.247 . S
O75 C74 1.224 . S
N76 Co66 2.128 . S
N76 C77 1.355 . S
N76 C79 1.311 . S
C77 N76 1.355 . S
C77 C78 1.363 . S
C77 H89 0.929 . S
C78 C77 1.363 . S
C78 N80 1.375 . S
C78 H96 0.931 . S
C79 N76 1.311 . S
C79 N80 1.347 . S
C79 H90 0.949 . S
N80 C78 1.375 . S
N80 C79 1.347 . S
C81 C84 1.365 . S
C81 N86 1.328 1_556 S
C81 H87 0.929 . S
C82 C83 1.362 . S
C82 C85 1.378 . S
C82 H97 0.929 . S
C83 C82 1.362 . S
C83 C84 1.366 1_554 S
C84 C81 1.365 . S
C84 C83 1.366 1_556 S
C84 H98 0.930 . S
C85 C82 1.378 . S
C85 N86 1.315 . S
C85 H88 0.930 . S
N86 Co66 2.194 1_554 S
N86 C81 1.328 1_554 S
N86 C85 1.315 . S
H87 C81 0.929 . S
H88 C85 0.930 . S
H89 C77 0.929 . S
H90 C79 0.949 . S
O91 Co66 2.351 . S
O91 C94 1.244 . S
O92 Co66 2.155 . S
O92 C94 1.240 . S
O93 Co66 2.096 1_554 S
O93 C74 1.247 . S
C94 O91 1.244 . S
C94 O92 1.240 . S
H95 C69 0.931 . S
H96 C78 0.931 . S
H97 C82 0.929 . S
H98 C84 0.930 . S
Co99 N103 2.148 1_556 S
Co99 N109 2.128 . S
Co99 N119 2.194 1_556 S
Co99 O124 2.351 . S
Co99 O125 2.155 . S
Co99 O126 2.096 1_556 S
C100 N103 1.301 . S
C100 N104 1.328 . S
C100 H105 0.930 . S
C101 C102 1.333 . S
C101 N103 1.317 . S
C101 H106 0.930 . S
C102 C101 1.333 . S
C102 N104 1.350 . S
C102 H128 0.931 . S
N103 Co99 2.148 1_554 S
N103 C100 1.301 . S
N103 C101 1.317 . S
N104 C100 1.328 . S
N104 C102 1.350 . S
H105 C100 0.930 . S
H106 C101 0.930 . S
C107 O108 1.224 . S
C107 O126 1.247 . S
O108 C107 1.224 . S
N109 Co99 2.128 . S
N109 C110 1.355 . S
N109 C112 1.311 . S
C110 N109 1.355 . S
C110 C111 1.363 . S
C110 H122 0.929 . S
C111 C110 1.363 . S
C111 N113 1.375 . S
C111 H129 0.931 . S
C112 N109 1.311 . S
C112 N113 1.347 . S
C112 H123 0.949 . S
N113 C111 1.375 . S
N113 C112 1.347 . S
C114 C117 1.365 . S
C114 N119 1.328 1_556 S
C114 H120 0.929 . S
C115 C116 1.362 . S
C115 C118 1.378 . S
C115 H130 0.929 . S
C116 C115 1.362 . S
C116 C117 1.366 1_554 S
C117 C114 1.365 . S
C117 C116 1.366 1_556 S
C117 H131 0.930 . S
C118 C115 1.378 . S
C118 N119 1.315 . S
C118 H121 0.930 . S
N119 Co99 2.194 1_554 S
N119 C114 1.328 1_554 S
N119 C118 1.315 . S
H120 C114 0.929 . S
H121 C118 0.930 . S
H122 C110 0.929 . S
H123 C112 0.949 . S
O124 Co99 2.351 . S
O124 C127 1.244 . S
O125 Co99 2.155 . S
O125 C127 1.240 . S
O126 Co99 2.096 1_554 S
O126 C107 1.247 . S
C127 O124 1.244 . S
C127 O125 1.240 . S
H128 C102 0.931 . S
H129 C111 0.931 . S
H130 C115 0.929 . S
H131 C117 0.930 . S
Co132 N136 2.148 . S
Co132 N142 2.128 . S
Co132 N152 2.194 . S
Co132 O157 2.351 . S
Co132 O158 2.155 . S
Co132 O159 2.096 . S
C133 N136 1.301 . S
C133 N137 1.328 . S
C133 H138 0.930 . S
C134 C135 1.333 . S
C134 N136 1.317 . S
C134 H139 0.930 . S
C135 C134 1.333 . S
C135 N137 1.350 . S
C135 H161 0.931 . S
N136 Co132 2.148 . S
N136 C133 1.301 . S
N136 C134 1.317 . S
N137 C133 1.328 . S
N137 C135 1.350 . S
H138 C133 0.930 . S
H139 C134 0.930 . S
C140 O141 1.224 . S
C140 O159 1.247 . S
O141 C140 1.224 . S
N142 Co132 2.128 . S
N142 C143 1.355 . S
N142 C145 1.311 . S
C143 N142 1.355 . S
C143 C144 1.363 . S
C143 H155 0.929 . S
C144 C143 1.363 . S
C144 N146 1.375 . S
C144 H162 0.931 . S
C145 N142 1.311 . S
C145 N146 1.347 . S
C145 H156 0.949 . S
N146 C144 1.375 . S
N146 C145 1.347 . S
C147 C150 1.365 . S
C147 N152 1.328 . S
C147 H153 0.929 . S
C148 C149 1.362 . S
C148 C151 1.378 . S
C148 H163 0.929 . S
C149 C148 1.362 . S
C149 C150 1.366 . S
C150 C147 1.365 . S
C150 C149 1.366 . S
C150 H164 0.930 . S
C151 C148 1.378 . S
C151 N152 1.315 . S
C151 H154 0.930 . S
N152 Co132 2.194 . S
N152 C147 1.328 . S
N152 C151 1.315 . S
H153 C147 0.929 . S
H154 C151 0.930 . S
H155 C143 0.929 . S
H156 C145 0.949 . S
O157 Co132 2.351 . S
O157 C160 1.244 . S
O158 Co132 2.155 . S
O158 C160 1.240 . S
O159 Co132 2.096 . S
O159 C140 1.247 . S
C160 O157 1.244 . S
C160 O158 1.240 . S
H161 C135 0.931 . S
H162 C144 0.931 . S
H163 C148 0.929 . S
H164 C150 0.930 . S
Co165 N169 2.148 . S
Co165 N175 2.128 . S
Co165 N185 2.194 . S
Co165 O190 2.351 . S
Co165 O191 2.155 . S
Co165 O192 2.096 . S
C166 N169 1.301 . S
C166 N170 1.328 . S
C166 H171 0.930 . S
C167 C168 1.333 . S
C167 N169 1.317 . S
C167 H172 0.930 . S
C168 C167 1.333 . S
C168 N170 1.350 . S
C168 H194 0.931 . S
N169 Co165 2.148 . S
N169 C166 1.301 . S
N169 C167 1.317 . S
N170 C166 1.328 . S
N170 C168 1.350 . S
H171 C166 0.930 . S
H172 C167 0.930 . S
C173 O174 1.224 . S
C173 O192 1.247 . S
O174 C173 1.224 . S
N175 Co165 2.128 . S
N175 C176 1.355 . S
N175 C178 1.311 . S
C176 N175 1.355 . S
C176 C177 1.363 . S
C176 H188 0.929 . S
C177 C176 1.363 . S
C177 N179 1.375 . S
C177 H195 0.931 . S
C178 N175 1.311 . S
C178 N179 1.347 . S
C178 H189 0.949 . S
N179 C177 1.375 . S
N179 C178 1.347 . S
C180 C183 1.365 . S
C180 N185 1.328 . S
C180 H186 0.929 . S
C181 C182 1.362 . S
C181 C184 1.378 . S
C181 H196 0.929 . S
C182 C181 1.362 . S
C182 C183 1.366 . S
C183 C180 1.365 . S
C183 C182 1.366 . S
C183 H197 0.930 . S
C184 C181 1.378 . S
C184 N185 1.315 . S
C184 H187 0.930 . S
N185 Co165 2.194 . S
N185 C180 1.328 . S
N185 C184 1.315 . S
H186 C180 0.929 . S
H187 C184 0.930 . S
H188 C176 0.929 . S
H189 C178 0.949 . S
O190 Co165 2.351 . S
O190 C193 1.244 . S
O191 Co165 2.155 . S
O191 C193 1.240 . S
O192 Co165 2.096 . S
O192 C173 1.247 . S
C193 O190 1.244 . S
C193 O191 1.240 . S
H194 C168 0.931 . S
H195 C177 0.931 . S
H196 C181 0.929 . S
H197 C183 0.930 . S
Co198 N202 2.148 . S
Co198 N208 2.128 . S
Co198 N218 2.194 . S
Co198 O223 2.351 . S
Co198 O224 2.155 . S
Co198 O225 2.096 . S
C199 N202 1.301 . S
C199 N203 1.328 . S
C199 H204 0.930 . S
C200 C201 1.333 . S
C200 N202 1.317 . S
C200 H205 0.930 . S
C201 C200 1.333 . S
C201 N203 1.350 . S
C201 H227 0.931 . S
N202 Co198 2.148 . S
N202 C199 1.301 . S
N202 C200 1.317 . S
N203 C199 1.328 . S
N203 C201 1.350 . S
H204 C199 0.930 . S
H205 C200 0.930 . S
C206 O207 1.224 . S
C206 O225 1.247 . S
O207 C206 1.224 . S
N208 Co198 2.128 . S
N208 C209 1.355 . S
N208 C211 1.311 . S
C209 N208 1.355 . S
C209 C210 1.363 . S
C209 H221 0.929 . S
C210 C209 1.363 . S
C210 N212 1.375 . S
C210 H228 0.931 . S
C211 N208 1.311 . S
C211 N212 1.347 . S
C211 H222 0.949 . S
N212 C210 1.375 . S
N212 C211 1.347 . S
C213 C216 1.365 . S
C213 N218 1.328 . S
C213 H219 0.929 . S
C214 C215 1.362 . S
C214 C217 1.378 . S
C214 H229 0.929 . S
C215 C214 1.362 . S
C215 C216 1.366 . S
C216 C213 1.365 . S
C216 C215 1.366 . S
C216 H230 0.930 . S
C217 C214 1.378 . S
C217 N218 1.315 . S
C217 H220 0.930 . S
N218 Co198 2.194 . S
N218 C213 1.328 . S
N218 C217 1.315 . S
H219 C213 0.929 . S
H220 C217 0.930 . S
H221 C209 0.929 . S
H222 C211 0.949 . S
O223 Co198 2.351 . S
O223 C226 1.244 . S
O224 Co198 2.155 . S
O224 C226 1.240 . S
O225 Co198 2.096 . S
O225 C206 1.247 . S
C226 O223 1.244 . S
C226 O224 1.240 . S
H227 C201 0.931 . S
H228 C210 0.931 . S
H229 C214 0.929 . S
H230 C216 0.930 . S
Co231 N235 2.148 . S
Co231 N241 2.128 . S
Co231 N251 2.194 . S
Co231 O256 2.351 . S
Co231 O257 2.155 . S
Co231 O258 2.096 . S
C232 N235 1.301 . S
C232 N236 1.328 . S
C232 H237 0.930 . S
C233 C234 1.333 . S
C233 N235 1.317 . S
C233 H238 0.930 . S
C234 C233 1.333 . S
C234 N236 1.350 . S
C234 H260 0.931 . S
N235 Co231 2.148 . S
N235 C232 1.301 . S
N235 C233 1.317 . S
N236 C232 1.328 . S
N236 C234 1.350 . S
H237 C232 0.930 . S
H238 C233 0.930 . S
C239 O240 1.224 . S
C239 O258 1.247 . S
O240 C239 1.224 . S
N241 Co231 2.128 . S
N241 C242 1.355 . S
N241 C244 1.311 . S
C242 N241 1.355 . S
C242 C243 1.363 . S
C242 H254 0.929 . S
C243 C242 1.363 . S
C243 N245 1.375 . S
C243 H261 0.931 . S
C244 N241 1.311 . S
C244 N245 1.347 . S
C244 H255 0.949 . S
N245 C243 1.375 . S
N245 C244 1.347 . S
C246 C249 1.365 . S
C246 N251 1.328 . S
C246 H252 0.929 . S
C247 C248 1.362 . S
C247 C250 1.378 . S
C247 H262 0.929 . S
C248 C247 1.362 . S
C248 C249 1.366 . S
C249 C246 1.365 . S
C249 C248 1.366 . S
C249 H263 0.930 . S
C250 C247 1.378 . S
C250 N251 1.315 . S
C250 H253 0.930 . S
N251 Co231 2.194 . S
N251 C246 1.328 . S
N251 C250 1.315 . S
H252 C246 0.929 . S
H253 C250 0.930 . S
H254 C242 0.929 . S
H255 C244 0.949 . S
O256 Co231 2.351 . S
O256 C259 1.244 . S
O257 Co231 2.155 . S
O257 C259 1.240 . S
O258 Co231 2.096 . S
O258 C239 1.247 . S
C259 O256 1.244 . S
C259 O257 1.240 . S
H260 C234 0.931 . S
H261 C243 0.931 . S
H262 C247 0.929 . S
H263 C249 0.930 . S
Co264 N268 2.148 . S
Co264 N274 2.128 . S
Co264 N284 2.194 . S
Co264 O289 2.351 . S
Co264 O290 2.155 . S
Co264 O291 2.096 . S
C265 N268 1.301 . S
C265 N269 1.328 . S
C265 H270 0.930 . S
C266 C267 1.333 . S
C266 N268 1.317 . S
C266 H271 0.930 . S
C267 C266 1.333 . S
C267 N269 1.350 . S
C267 H293 0.931 . S
N268 Co264 2.148 . S
N268 C265 1.301 . S
N268 C266 1.317 . S
N269 C265 1.328 . S
N269 C267 1.350 . S
H270 C265 0.930 . S
H271 C266 0.930 . S
C272 O273 1.224 . S
C272 O291 1.247 . S
O273 C272 1.224 . S
N274 Co264 2.128 . S
N274 C275 1.355 . S
N274 C277 1.311 . S
C275 N274 1.355 . S
C275 C276 1.363 . S
C275 H287 0.929 . S
C276 C275 1.363 . S
C276 N278 1.375 . S
C276 H294 0.931 . S
C277 N274 1.311 . S
C277 N278 1.347 . S
C277 H288 0.929 . S
N278 C276 1.375 . S
N278 C277 1.347 . S
C279 C282 1.365 . S
C279 N284 1.328 . S
C279 H285 0.929 . S
C280 C281 1.362 . S
C280 C283 1.378 . S
C280 H295 0.929 . S
C281 C280 1.362 . S
C281 C282 1.366 . S
C282 C279 1.365 . S
C282 C281 1.366 . S
C282 H296 0.930 . S
C283 C280 1.378 . S
C283 N284 1.315 . S
C283 H286 0.930 . S
N284 Co264 2.194 . S
N284 C279 1.328 . S
N284 C283 1.315 . S
H285 C279 0.929 . S
H286 C283 0.930 . S
H287 C275 0.929 . S
H288 C277 0.929 . S
O289 Co264 2.351 . S
O289 C292 1.244 . S
O290 Co264 2.155 . S
O290 C292 1.240 . S
O291 Co264 2.096 . S
O291 C272 1.247 . S
C292 O289 1.244 . S
C292 O290 1.240 . S
H293 C267 0.931 . S
H294 C276 0.931 . S
H295 C280 0.929 . S
H296 C282 0.930 . S
Co297 N301 2.148 . S
Co297 N307 2.128 . S
Co297 N317 2.194 . S
Co297 O322 2.351 . S
Co297 O323 2.155 . S
Co297 O324 2.096 . S
C298 N301 1.301 . S
C298 N302 1.328 . S
C298 H303 0.930 . S
C299 C300 1.333 . S
C299 N301 1.317 . S
C299 H304 0.930 . S
C300 C299 1.333 . S
C300 N302 1.350 . S
C300 H326 0.931 . S
N301 Co297 2.148 . S
N301 C298 1.301 . S
N301 C299 1.317 . S
N302 C298 1.328 . S
N302 C300 1.350 . S
H303 C298 0.930 . S
H304 C299 0.930 . S
C305 O306 1.224 . S
C305 O324 1.247 . S
O306 C305 1.224 . S
N307 Co297 2.128 . S
N307 C308 1.355 . S
N307 C310 1.311 . S
C308 N307 1.355 . S
C308 C309 1.363 . S
C308 H320 0.929 . S
C309 C308 1.363 . S
C309 N311 1.375 . S
C309 H327 0.931 . S
C310 N307 1.311 . S
C310 N311 1.347 . S
C310 H321 0.929 . S
N311 C309 1.375 . S
N311 C310 1.347 . S
C312 C315 1.365 . S
C312 N317 1.328 . S
C312 H318 0.929 . S
C313 C314 1.362 . S
C313 C316 1.378 . S
C313 H328 0.929 . S
C314 C313 1.362 . S
C314 C315 1.366 . S
C315 C312 1.365 . S
C315 C314 1.366 . S
C315 H329 0.930 . S
C316 C313 1.378 . S
C316 N317 1.315 . S
C316 H319 0.930 . S
N317 Co297 2.194 . S
N317 C312 1.328 . S
N317 C316 1.315 . S
H318 C312 0.929 . S
H319 C316 0.930 . S
H320 C308 0.929 . S
H321 C310 0.929 . S
O322 Co297 2.351 . S
O322 C325 1.244 . S
O323 Co297 2.155 . S
O323 C325 1.240 . S
O324 Co297 2.096 . S
O324 C305 1.247 . S
C325 O322 1.244 . S
C325 O323 1.240 . S
H326 C300 0.931 . S
H327 C309 0.931 . S
H328 C313 0.929 . S
H329 C315 0.930 . S
Co330 N334 2.148 . S
Co330 N340 2.128 . S
Co330 N350 2.194 . S
Co330 O355 2.351 . S
Co330 O356 2.155 . S
Co330 O357 2.096 . S
C331 N334 1.301 . S
C331 N335 1.328 . S
C331 H336 0.930 . S
C332 C333 1.333 . S
C332 N334 1.317 . S
C332 H337 0.930 . S
C333 C332 1.333 . S
C333 N335 1.350 . S
C333 H359 0.931 . S
N334 Co330 2.148 . S
N334 C331 1.301 . S
N334 C332 1.317 . S
N335 C331 1.328 . S
N335 C333 1.350 . S
H336 C331 0.930 . S
H337 C332 0.930 . S
C338 O339 1.224 . S
C338 O357 1.247 . S
O339 C338 1.224 . S
N340 Co330 2.128 . S
N340 C341 1.355 . S
N340 C343 1.311 . S
C341 N340 1.355 . S
C341 C342 1.363 . S
C341 H353 0.929 . S
C342 C341 1.363 . S
C342 N344 1.375 . S
C342 H360 0.931 . S
C343 N340 1.311 . S
C343 N344 1.347 . S
C343 H354 0.929 . S
N344 C342 1.375 . S
N344 C343 1.347 . S
C345 C348 1.365 . S
C345 N350 1.328 . S
C345 H351 0.929 . S
C346 C347 1.362 . S
C346 C349 1.378 . S
C346 H361 0.929 . S
C347 C346 1.362 . S
C347 C348 1.366 . S
C348 C345 1.365 . S
C348 C347 1.366 . S
C348 H362 0.930 . S
C349 C346 1.378 . S
C349 N350 1.315 . S
C349 H352 0.930 . S
N350 Co330 2.194 . S
N350 C345 1.328 . S
N350 C349 1.315 . S
H351 C345 0.929 . S
H352 C349 0.930 . S
H353 C341 0.929 . S
H354 C343 0.929 . S
O355 Co330 2.351 . S
O355 C358 1.244 . S
O356 Co330 2.155 . S
O356 C358 1.240 . S
O357 Co330 2.096 . S
O357 C338 1.247 . S
C358 O355 1.244 . S
C358 O356 1.240 . S
H359 C333 0.931 . S
H360 C342 0.931 . S
H361 C346 0.929 . S
H362 C348 0.930 . S
Co363 N367 2.148 . S
Co363 N373 2.128 . S
Co363 N383 2.194 . S
Co363 O388 2.351 . S
Co363 O389 2.155 . S
Co363 O390 2.096 . S
C364 N367 1.301 . S
C364 N368 1.328 . S
C364 H369 0.930 . S
C365 C366 1.333 . S
C365 N367 1.317 . S
C365 H370 0.930 . S
C366 C365 1.333 . S
C366 N368 1.350 . S
C366 H392 0.931 . S
N367 Co363 2.148 . S
N367 C364 1.301 . S
N367 C365 1.317 . S
N368 C364 1.328 . S
N368 C366 1.350 . S
H369 C364 0.930 . S
H370 C365 0.930 . S
C371 O372 1.224 . S
C371 O390 1.247 . S
O372 C371 1.224 . S
N373 Co363 2.128 . S
N373 C374 1.355 . S
N373 C376 1.311 . S
C374 N373 1.355 . S
C374 C375 1.363 . S
C374 H386 0.929 . S
C375 C374 1.363 . S
C375 N377 1.375 . S
C375 H393 0.931 . S
C376 N373 1.311 . S
C376 N377 1.347 . S
C376 H387 0.929 . S
N377 C375 1.375 . S
N377 C376 1.347 . S
C378 C381 1.365 . S
C378 N383 1.328 . S
C378 H384 0.929 . S
C379 C380 1.362 . S
C379 C382 1.378 . S
C379 H394 0.929 . S
C380 C379 1.362 . S
C380 C381 1.366 . S
C381 C378 1.365 . S
C381 C380 1.366 . S
C381 H395 0.930 . S
C382 C379 1.378 . S
C382 N383 1.315 . S
C382 H385 0.930 . S
N383 Co363 2.194 . S
N383 C378 1.328 . S
N383 C382 1.315 . S
H384 C378 0.929 . S
H385 C382 0.930 . S
H386 C374 0.929 . S
H387 C376 0.929 . S
O388 Co363 2.351 . S
O388 C391 1.244 . S
O389 Co363 2.155 . S
O389 C391 1.240 . S
O390 Co363 2.096 . S
O390 C371 1.247 . S
C391 O388 1.244 . S
C391 O389 1.240 . S
H392 C366 0.931 . S
H393 C375 0.931 . S
H394 C379 0.929 . S
H395 C381 0.930 . S
Co396 N400 2.148 1_554 S
Co396 N406 2.128 . S
Co396 N416 2.194 1_554 S
Co396 O421 2.351 . S
Co396 O422 2.155 . S
Co396 O423 2.096 1_554 S
C397 N400 1.301 . S
C397 N401 1.328 . S
C397 H402 0.930 . S
C398 C399 1.333 . S
C398 N400 1.317 . S
C398 H403 0.930 . S
C399 C398 1.333 . S
C399 N401 1.350 . S
C399 H425 0.931 . S
N400 Co396 2.148 1_556 S
N400 C397 1.301 . S
N400 C398 1.317 . S
N401 C397 1.328 . S
N401 C399 1.350 . S
H402 C397 0.930 . S
H403 C398 0.930 . S
C404 O405 1.224 . S
C404 O423 1.247 . S
O405 C404 1.224 . S
N406 Co396 2.128 . S
N406 C407 1.355 . S
N406 C409 1.311 . S
C407 N406 1.355 . S
C407 C408 1.363 . S
C407 H419 0.929 . S
C408 C407 1.363 . S
C408 N410 1.375 . S
C408 H426 0.931 . S
C409 N406 1.311 . S
C409 N410 1.347 . S
C409 H420 0.929 . S
N410 C408 1.375 . S
N410 C409 1.347 . S
C411 C414 1.365 . S
C411 N416 1.328 1_554 S
C411 H417 0.929 . S
C412 C413 1.362 . S
C412 C415 1.378 . S
C412 H427 0.929 . S
C413 C412 1.362 . S
C413 C414 1.366 1_556 S
C414 C411 1.365 . S
C414 C413 1.366 1_554 S
C414 H428 0.930 . S
C415 C412 1.378 . S
C415 N416 1.315 . S
C415 H418 0.930 . S
N416 Co396 2.194 1_556 S
N416 C411 1.328 1_556 S
N416 C415 1.315 . S
H417 C411 0.929 . S
H418 C415 0.930 . S
H419 C407 0.929 . S
H420 C409 0.929 . S
O421 Co396 2.351 . S
O421 C424 1.244 . S
O422 Co396 2.155 . S
O422 C424 1.240 . S
O423 Co396 2.096 1_556 S
O423 C404 1.247 . S
C424 O421 1.244 . S
C424 O422 1.240 . S
H425 C399 0.931 . S
H426 C408 0.931 . S
H427 C412 0.929 . S
H428 C414 0.930 . S
Co429 N433 2.148 1_554 S
Co429 N439 2.128 . S
Co429 N449 2.194 1_554 S
Co429 O454 2.351 . S
Co429 O455 2.155 . S
Co429 O456 2.096 1_554 S
C430 N433 1.301 . S
C430 N434 1.328 . S
C430 H435 0.930 . S
C431 C432 1.333 . S
C431 N433 1.317 . S
C431 H436 0.930 . S
C432 C431 1.333 . S
C432 N434 1.350 . S
C432 H458 0.931 . S
N433 Co429 2.148 1_556 S
N433 C430 1.301 . S
N433 C431 1.317 . S
N434 C430 1.328 . S
N434 C432 1.350 . S
H435 C430 0.930 . S
H436 C431 0.930 . S
C437 O438 1.224 . S
C437 O456 1.247 . S
O438 C437 1.224 . S
N439 Co429 2.128 . S
N439 C440 1.355 . S
N439 C442 1.311 . S
C440 N439 1.355 . S
C440 C441 1.363 . S
C440 H452 0.929 . S
C441 C440 1.363 . S
C441 N443 1.375 . S
C441 H459 0.931 . S
C442 N439 1.311 . S
C442 N443 1.347 . S
C442 H453 0.929 . S
N443 C441 1.375 . S
N443 C442 1.347 . S
C444 C447 1.365 . S
C444 N449 1.328 1_554 S
C444 H450 0.929 . S
C445 C446 1.362 . S
C445 C448 1.378 . S
C445 H460 0.929 . S
C446 C445 1.362 . S
C446 C447 1.366 1_556 S
C447 C444 1.365 . S
C447 C446 1.366 1_554 S
C447 H461 0.930 . S
C448 C445 1.378 . S
C448 N449 1.315 . S
C448 H451 0.930 . S
N449 Co429 2.194 1_556 S
N449 C444 1.328 1_556 S
N449 C448 1.315 . S
H450 C444 0.929 . S
H451 C448 0.930 . S
H452 C440 0.929 . S
H453 C442 0.929 . S
O454 Co429 2.351 . S
O454 C457 1.244 . S
O455 Co429 2.155 . S
O455 C457 1.240 . S
O456 Co429 2.096 1_556 S
O456 C437 1.247 . S
C457 O454 1.244 . S
C457 O455 1.240 . S
H458 C432 0.931 . S
H459 C441 0.931 . S
H460 C445 0.929 . S
H461 C447 0.930 . S
Co462 N466 2.148 1_554 S
Co462 N472 2.128 . S
Co462 N482 2.194 1_554 S
Co462 O487 2.351 . S
Co462 O488 2.155 . S
Co462 O489 2.096 1_554 S
C463 N466 1.301 . S
C463 N467 1.328 . S
C463 H468 0.930 . S
C464 C465 1.333 . S
C464 N466 1.317 . S
C464 H469 0.930 . S
C465 C464 1.333 . S
C465 N467 1.350 . S
C465 H491 0.931 . S
N466 Co462 2.148 1_556 S
N466 C463 1.301 . S
N466 C464 1.317 . S
N467 C463 1.328 . S
N467 C465 1.350 . S
H468 C463 0.930 . S
H469 C464 0.930 . S
C470 O471 1.224 . S
C470 O489 1.247 . S
O471 C470 1.224 . S
N472 Co462 2.128 . S
N472 C473 1.355 . S
N472 C475 1.311 . S
C473 N472 1.355 . S
C473 C474 1.363 . S
C473 H485 0.929 . S
C474 C473 1.363 . S
C474 N476 1.375 . S
C474 H492 0.931 . S
C475 N472 1.311 . S
C475 N476 1.347 . S
C475 H486 0.929 . S
N476 C474 1.375 . S
N476 C475 1.347 . S
C477 C480 1.365 . S
C477 N482 1.328 1_554 S
C477 H483 0.929 . S
C478 C479 1.362 . S
C478 C481 1.378 . S
C478 H493 0.929 . S
C479 C478 1.362 . S
C479 C480 1.366 1_556 S
C480 C477 1.365 . S
C480 C479 1.366 1_554 S
C480 H494 0.930 . S
C481 C478 1.378 . S
C481 N482 1.315 . S
C481 H484 0.930 . S
N482 Co462 2.194 1_556 S
N482 C477 1.328 1_556 S
N482 C481 1.315 . S
H483 C477 0.929 . S
H484 C481 0.930 . S
H485 C473 0.929 . S
H486 C475 0.929 . S
O487 Co462 2.351 . S
O487 C490 1.244 . S
O488 Co462 2.155 . S
O488 C490 1.240 . S
O489 Co462 2.096 1_556 S
O489 C470 1.247 . S
C490 O487 1.244 . S
C490 O488 1.240 . S
H491 C465 0.931 . S
H492 C474 0.931 . S
H493 C478 0.929 . S
H494 C480 0.930 . S
Co495 N499 2.148 1_554 S
Co495 N505 2.128 . S
Co495 N515 2.194 1_554 S
Co495 O520 2.351 . S
Co495 O521 2.155 . S
Co495 O522 2.096 1_554 S
C496 N499 1.301 . S
C496 N500 1.328 . S
C496 H501 0.930 . S
C497 C498 1.333 . S
C497 N499 1.317 . S
C497 H502 0.930 . S
C498 C497 1.333 . S
C498 N500 1.350 . S
C498 H524 0.931 . S
N499 Co495 2.148 1_556 S
N499 C496 1.301 . S
N499 C497 1.317 . S
N500 C496 1.328 . S
N500 C498 1.350 . S
H501 C496 0.930 . S
H502 C497 0.930 . S
C503 O504 1.224 . S
C503 O522 1.247 . S
O504 C503 1.224 . S
N505 Co495 2.128 . S
N505 C506 1.355 . S
N505 C508 1.311 . S
C506 N505 1.355 . S
C506 C507 1.363 . S
C506 H518 0.929 . S
C507 C506 1.363 . S
C507 N509 1.375 . S
C507 H525 0.931 . S
C508 N505 1.311 . S
C508 N509 1.347 . S
C508 H519 0.929 . S
N509 C507 1.375 . S
N509 C508 1.347 . S
C510 C513 1.365 . S
C510 N515 1.328 1_554 S
C510 H516 0.929 . S
C511 C512 1.362 . S
C511 C514 1.378 . S
C511 H526 0.929 . S
C512 C511 1.362 . S
C512 C513 1.366 1_556 S
C513 C510 1.365 . S
C513 C512 1.366 1_554 S
C513 H527 0.930 . S
C514 C511 1.378 . S
C514 N515 1.315 . S
C514 H517 0.930 . S
N515 Co495 2.194 1_556 S
N515 C510 1.328 1_556 S
N515 C514 1.315 . S
H516 C510 0.929 . S
H517 C514 0.930 . S
H518 C506 0.929 . S
H519 C508 0.929 . S
O520 Co495 2.351 . S
O520 C523 1.244 . S
O521 Co495 2.155 . S
O521 C523 1.240 . S
O522 Co495 2.096 1_556 S
O522 C503 1.247 . S
C523 O520 1.244 . S
C523 O521 1.240 . S
H524 C498 0.931 . S
H525 C507 0.931 . S
H526 C511 0.929 . S
H527 C513 0.930 . S
C17 C512 1.345 1_554 S
C413 C50 1.345 1_556 S
C446 C83 1.345 1_556 S
C479 C116 1.345 1_556 S
C149 C314 1.345 . S
C347 C182 1.345 . S
C380 C215 1.345 . S
C248 C281 1.345 . S
C206 C8 2.798 1_655 S
C239 C41 2.798 1_565 S
C140 C74 2.798 1_455 S
C173 C107 2.798 1_545 S
N146 N80 0.753 1_455 S
N113 N179 0.753 1_565 S
N212 N14 0.753 1_655 S
N47 N245 0.753 1_545 S
C272 C470 2.798 . S
C503 C305 2.798 . S
C404 C338 2.798 . S
C437 C371 2.798 . S
N410 N344 0.754 . S
N443 N377 0.754 . S
N278 N476 0.754 . S
N311 N509 0.754 . S
N170 N5 0.699 . S
N38 N203 0.699 . S
N236 N71 0.699 . S
N104 N137 0.699 . S
C94 C259 3.197 . S
C160 C127 3.197 . S
C193 C28 3.197 . S
C61 C226 3.197 . S
N434 N269 0.699 . S
N302 N467 0.699 . S
N500 N335 0.699 . S
N368 N401 0.699 . S
C523 C358 3.197 . S
C391 C424 3.197 . S
C457 C292 3.197 . S
C325 C490 3.197 . S
