# Generated by pormake.
# Topology uke, (4)-cn, num edge types: 1
# Building blocks:
#     Node 0, Type 0, BuildingBlock: UXUYUI_clean_sbu_0, # of connection points: 4
#     Node 1, Type 0, BuildingBlock: UXUYUI_clean_sbu_0, # of connection points: 4
#     Node 2, Type 0, BuildingBlock: UXUYUI_clean_sbu_0, # of connection points: 4
#     Node 3, Type 0, BuildingBlock: UXUYUI_clean_sbu_0, # of connection points: 4
#     Node 4, Type 0, BuildingBlock: UXUYUI_clean_sbu_0, # of connection points: 4
#     Node 5, Type 0, BuildingBlock: UXUYUI_clean_sbu_0, # of connection points: 4
#     Node 6, Type 0, BuildingBlock: UXUYUI_clean_sbu_0, # of connection points: 4
#     Node 7, Type 0, BuildingBlock: UXUYUI_clean_sbu_0, # of connection points: 4
#     Node 8, Type 0, BuildingBlock: UXUYUI_clean_sbu_0, # of connection points: 4
#     Node 9, Type 0, BuildingBlock: UXUYUI_clean_sbu_0, # of connection points: 4
#     Node 10, Type 0, BuildingBlock: UXUYUI_clean_sbu_0, # of connection points: 4
#     Node 11, Type 0, BuildingBlock: UXUYUI_clean_sbu_0, # of connection points: 4
#     Node 12, Type 0, BuildingBlock: UXUYUI_clean_sbu_0, # of connection points: 4
#     Node 13, Type 0, BuildingBlock: UXUYUI_clean_sbu_0, # of connection points: 4
#     Node 14, Type 0, BuildingBlock: UXUYUI_clean_sbu_0, # of connection points: 4
#     Node 15, Type 0, BuildingBlock: UXUYUI_clean_sbu_0, # of connection points: 4
#     Node 16, Type 0, BuildingBlock: UXUYUI_clean_sbu_0, # of connection points: 4
#     Node 17, Type 0, BuildingBlock: UXUYUI_clean_sbu_0, # of connection points: 4
#     Node 18, Type 0, BuildingBlock: UXUYUI_clean_sbu_0, # of connection points: 4
#     Node 19, Type 0, BuildingBlock: UXUYUI_clean_sbu_0, # of connection points: 4
#     Node 20, Type 0, BuildingBlock: UXUYUI_clean_sbu_0, # of connection points: 4
#     Node 21, Type 0, BuildingBlock: UXUYUI_clean_sbu_0, # of connection points: 4
#     Node 22, Type 0, BuildingBlock: UXUYUI_clean_sbu_0, # of connection points: 4
#     Node 23, Type 0, BuildingBlock: UXUYUI_clean_sbu_0, # of connection points: 4
#     Node 24, Type 0, BuildingBlock: UXUYUI_clean_sbu_0, # of connection points: 4
#     Node 25, Type 0, BuildingBlock: UXUYUI_clean_sbu_0, # of connection points: 4
#     Node 26, Type 0, BuildingBlock: UXUYUI_clean_sbu_0, # of connection points: 4
#     Node 27, Type 0, BuildingBlock: UXUYUI_clean_sbu_0, # of connection points: 4
#     Node 28, Type 0, BuildingBlock: UXUYUI_clean_sbu_0, # of connection points: 4
#     Node 29, Type 0, BuildingBlock: UXUYUI_clean_sbu_0, # of connection points: 4
#     Node 30, Type 0, BuildingBlock: UXUYUI_clean_sbu_0, # of connection points: 4
#     Node 31, Type 0, BuildingBlock: UXUYUI_clean_sbu_0, # of connection points: 4
#     Edge 32, Type (0, 0), BuildingBlock: XIVTED_clean_linker_0, # of connection points: 2
#     Edge 33, Type (0, 0), BuildingBlock: XIVTED_clean_linker_0, # of connection points: 2
#     Edge 34, Type (0, 0), BuildingBlock: XIVTED_clean_linker_0, # of connection points: 2
#     Edge 35, Type (0, 0), BuildingBlock: XIVTED_clean_linker_0, # of connection points: 2
#     Edge 36, Type (0, 0), BuildingBlock: XIVTED_clean_linker_0, # of connection points: 2
#     Edge 37, Type (0, 0), BuildingBlock: XIVTED_clean_linker_0, # of connection points: 2
#     Edge 38, Type (0, 0), BuildingBlock: XIVTED_clean_linker_0, # of connection points: 2
#     Edge 39, Type (0, 0), BuildingBlock: XIVTED_clean_linker_0, # of connection points: 2
#     Edge 40, Type (0, 0), BuildingBlock: XIVTED_clean_linker_0, # of connection points: 2
#     Edge 41, Type (0, 0), BuildingBlock: XIVTED_clean_linker_0, # of connection points: 2
#     Edge 42, Type (0, 0), BuildingBlock: XIVTED_clean_linker_0, # of connection points: 2
#     Edge 43, Type (0, 0), BuildingBlock: XIVTED_clean_linker_0, # of connection points: 2
#     Edge 44, Type (0, 0), BuildingBlock: XIVTED_clean_linker_0, # of connection points: 2
#     Edge 45, Type (0, 0), BuildingBlock: XIVTED_clean_linker_0, # of connection points: 2
#     Edge 46, Type (0, 0), BuildingBlock: XIVTED_clean_linker_0, # of connection points: 2
#     Edge 47, Type (0, 0), BuildingBlock: XIVTED_clean_linker_0, # of connection points: 2
#     Edge 48, Type (0, 0), BuildingBlock: XIVTED_clean_linker_0, # of connection points: 2
#     Edge 49, Type (0, 0), BuildingBlock: XIVTED_clean_linker_0, # of connection points: 2
#     Edge 50, Type (0, 0), BuildingBlock: XIVTED_clean_linker_0, # of connection points: 2
#     Edge 51, Type (0, 0), BuildingBlock: XIVTED_clean_linker_0, # of connection points: 2
#     Edge 52, Type (0, 0), BuildingBlock: XIVTED_clean_linker_0, # of connection points: 2
#     Edge 53, Type (0, 0), BuildingBlock: XIVTED_clean_linker_0, # of connection points: 2
#     Edge 54, Type (0, 0), BuildingBlock: XIVTED_clean_linker_0, # of connection points: 2
#     Edge 55, Type (0, 0), BuildingBlock: XIVTED_clean_linker_0, # of connection points: 2
#     Edge 56, Type (0, 0), BuildingBlock: XIVTED_clean_linker_0, # of connection points: 2
#     Edge 57, Type (0, 0), BuildingBlock: XIVTED_clean_linker_0, # of connection points: 2
#     Edge 58, Type (0, 0), BuildingBlock: XIVTED_clean_linker_0, # of connection points: 2
#     Edge 59, Type (0, 0), BuildingBlock: XIVTED_clean_linker_0, # of connection points: 2
#     Edge 60, Type (0, 0), BuildingBlock: XIVTED_clean_linker_0, # of connection points: 2
#     Edge 61, Type (0, 0), BuildingBlock: XIVTED_clean_linker_0, # of connection points: 2
#     Edge 62, Type (0, 0), BuildingBlock: XIVTED_clean_linker_0, # of connection points: 2
#     Edge 63, Type (0, 0), BuildingBlock: XIVTED_clean_linker_0, # of connection points: 2
#     Edge 64, Type (0, 0), BuildingBlock: XIVTED_clean_linker_0, # of connection points: 2
#     Edge 65, Type (0, 0), BuildingBlock: XIVTED_clean_linker_0, # of connection points: 2
#     Edge 66, Type (0, 0), BuildingBlock: XIVTED_clean_linker_0, # of connection points: 2
#     Edge 67, Type (0, 0), BuildingBlock: XIVTED_clean_linker_0, # of connection points: 2
#     Edge 68, Type (0, 0), BuildingBlock: XIVTED_clean_linker_0, # of connection points: 2
#     Edge 69, Type (0, 0), BuildingBlock: XIVTED_clean_linker_0, # of connection points: 2
#     Edge 70, Type (0, 0), BuildingBlock: XIVTED_clean_linker_0, # of connection points: 2
#     Edge 71, Type (0, 0), BuildingBlock: XIVTED_clean_linker_0, # of connection points: 2
#     Edge 72, Type (0, 0), BuildingBlock: XIVTED_clean_linker_0, # of connection points: 2
#     Edge 73, Type (0, 0), BuildingBlock: XIVTED_clean_linker_0, # of connection points: 2
#     Edge 74, Type (0, 0), BuildingBlock: XIVTED_clean_linker_0, # of connection points: 2
#     Edge 75, Type (0, 0), BuildingBlock: XIVTED_clean_linker_0, # of connection points: 2
#     Edge 76, Type (0, 0), BuildingBlock: XIVTED_clean_linker_0, # of connection points: 2
#     Edge 77, Type (0, 0), BuildingBlock: XIVTED_clean_linker_0, # of connection points: 2
#     Edge 78, Type (0, 0), BuildingBlock: XIVTED_clean_linker_0, # of connection points: 2
#     Edge 79, Type (0, 0), BuildingBlock: XIVTED_clean_linker_0, # of connection points: 2
#     Edge 80, Type (0, 0), BuildingBlock: XIVTED_clean_linker_0, # of connection points: 2
#     Edge 81, Type (0, 0), BuildingBlock: XIVTED_clean_linker_0, # of connection points: 2
#     Edge 82, Type (0, 0), BuildingBlock: XIVTED_clean_linker_0, # of connection points: 2
#     Edge 83, Type (0, 0), BuildingBlock: XIVTED_clean_linker_0, # of connection points: 2
#     Edge 84, Type (0, 0), BuildingBlock: XIVTED_clean_linker_0, # of connection points: 2
#     Edge 85, Type (0, 0), BuildingBlock: XIVTED_clean_linker_0, # of connection points: 2
#     Edge 86, Type (0, 0), BuildingBlock: XIVTED_clean_linker_0, # of connection points: 2
#     Edge 87, Type (0, 0), BuildingBlock: XIVTED_clean_linker_0, # of connection points: 2
#     Edge 88, Type (0, 0), BuildingBlock: XIVTED_clean_linker_0, # of connection points: 2
#     Edge 89, Type (0, 0), BuildingBlock: XIVTED_clean_linker_0, # of connection points: 2
#     Edge 90, Type (0, 0), BuildingBlock: XIVTED_clean_linker_0, # of connection points: 2
#     Edge 91, Type (0, 0), BuildingBlock: XIVTED_clean_linker_0, # of connection points: 2
#     Edge 92, Type (0, 0), BuildingBlock: XIVTED_clean_linker_0, # of connection points: 2
#     Edge 93, Type (0, 0), BuildingBlock: XIVTED_clean_linker_0, # of connection points: 2
#     Edge 94, Type (0, 0), BuildingBlock: XIVTED_clean_linker_0, # of connection points: 2
#     Edge 95, Type (0, 0), BuildingBlock: XIVTED_clean_linker_0, # of connection points: 2
# Relax obj value: 0.349
# Max RMSD: 0.294
# Mean RMSD: 0.293
data_MOF--net-uke--node1-UXUYUI_clean_sbu_0--edge1-XIVTED_clean_linker_0
_symmetry_space_group_name_H-M    P1
_symmetry_Int_Tables_number       1
_symmetry_cell_setting            triclinic
loop_
_symmetry_equiv_pos_as_xyz
'x, y, z'
_cell_length_a     38.95479
_cell_length_b     152.3705
_cell_length_c     68.326406
_cell_angle_alpha  89.995677
_cell_angle_beta   89.981422
_cell_angle_gamma 90.001112
loop_
_atom_site_label
_atom_site_type_symbol
_atom_site_fract_x
_atom_site_fract_y
_atom_site_fract_z
_atom_type_partial_charge
Li0 Li 0.06692 0.04751 0.28762 0.0
Li1 Li 0.10804 0.05999 0.28792 0.0
Li2 Li 0.09853 0.05154 0.25867 0.0
Li3 Li 0.12965 0.04508 0.2856 0.0
C4 C 0.04901 0.0632 0.25823 0.0
N5 N 0.01947 0.07199 0.22712 0.0
C6 C 0.05463 0.07219 0.25576 0.0
C7 C 0.02807 0.0587 0.24498 0.0
C8 C 0.03952 0.07651 0.23992 0.0
C9 C 0.01349 0.06325 0.22931 0.0
C10 C 0.12496 0.05189 0.3231 0.0
C11 C 0.17978 0.05656 0.33575 0.0
N12 N 0.16808 0.05528 0.35429 0.0
C13 C 0.11347 0.05061 0.34227 0.0
C14 C 0.15838 0.05489 0.31979 0.0
C15 C 0.13567 0.05236 0.35784 0.0
C16 C 0.02811 0.03879 0.31588 0.0
N17 N 0.02595 0.0433 0.29879 0.0
C18 C 0.96486 0.04356 0.30072 0.0
C19 C 0.99521 0.04556 0.29089 0.0
C20 C 0.96628 0.03941 0.31909 0.0
C21 C -0.00159 0.03677 0.32637 0.0
H22 H 0.05304 0.03715 0.32183 0.0
H23 H 0.99431 0.0492 0.27735 0.0
C24 C 0.13581 0.07664 0.28591 0.0
N25 N 0.11702 0.07132 0.29768 0.0
C26 C 0.14263 0.08525 0.29152 0.0
C27 C 0.11087 0.08272 0.32142 0.0
C28 C 0.10461 0.07412 0.31519 0.0
C29 C 0.13001 0.08841 0.30946 0.0
H30 H 0.14474 0.07425 0.27191 0.0
H31 H 0.08957 0.06972 0.32418 0.0
C32 C 0.08109 0.03281 0.25934 0.0
N33 N 0.05816 0.01867 0.23763 0.0
C34 C 0.10423 0.02641 0.25291 0.0
C35 C 0.04628 0.032 0.25475 0.0
C36 C 0.09214 0.01931 0.24195 0.0
C37 C 0.0352 0.02481 0.24374 0.0
C38 C 0.16983 0.05375 0.25737 0.0
C39 C 0.1701 0.04609 0.24611 0.0
C40 C 0.19708 0.05968 0.25585 0.0
C41 C 0.19765 0.04447 0.23354 0.0
C42 C 0.2242 0.05782 0.24311 0.0
N43 N 0.22392 0.05033 0.23231 0.0
C44 C 0.11042 0.06062 0.22403 0.0
C45 C 0.09292 0.04595 0.21824 0.0
C46 C 0.11649 0.0619 0.20412 0.0
N47 N 0.09918 0.05271 0.23072 0.0
C48 C 0.0992 0.0469 0.19826 0.0
C49 C 0.11162 0.05492 0.19107 0.0
H50 H 0.11589 0.06583 0.23431 0.0
H51 H 0.08429 0.03971 0.22372 0.0
C52 C 0.15069 0.0286 0.29588 0.0
N53 N 0.16357 0.03665 0.29164 0.0
C54 C 0.17023 0.02113 0.29217 0.0
C55 C 0.21735 0.03049 0.28237 0.0
C56 C 0.19704 0.03778 0.28663 0.0
C57 C 0.20293 0.02205 0.28372 0.0
H58 H 0.12395 0.02793 0.2999 0.0
H59 H 0.20688 0.04429 0.28381 0.0
O60 O 0.06398 0.05884 0.27351 0.0
O61 O 0.10331 0.05029 0.30775 0.0
O62 O 0.09243 0.03976 0.27029 0.0
O63 O 0.14298 0.05552 0.26968 0.0
H64 H 0.07054 0.07579 0.26593 0.0
H65 H 0.02369 0.05173 0.24654 0.0
H66 H 0.04376 0.08346 0.23779 0.0
H67 H 0.99751 0.05983 0.21885 0.0
H68 H 0.20568 0.0589 0.33341 0.0
H69 H 0.08763 0.04832 0.34507 0.0
H70 H 0.16772 0.05595 0.30508 0.0
H71 H 0.12712 0.05141 0.37276 0.0
H72 H 0.94064 0.04558 0.29438 0.0
H73 H 0.00085 0.03366 0.34056 0.0
H74 H 0.15675 0.08945 0.28159 0.0
H75 H 0.10079 0.08488 0.33539 0.0
H76 H 0.13129 0.02691 0.25622 0.0
H77 H 0.02801 0.03687 0.25953 0.0
H78 H 0.10978 0.01432 0.23688 0.0
H79 H 0.00833 0.02412 0.24005 0.0
H80 H 0.1493 0.04144 0.24709 0.0
H81 H 0.19736 0.06563 0.26448 0.0
H82 H 0.19816 0.03856 0.22478 0.0
H83 H 0.24547 0.06235 0.24182 0.0
H84 H 0.12638 0.06816 0.19911 0.0
H85 H 0.09496 0.04138 0.18855 0.0
H86 H 0.15857 0.01473 0.29401 0.0
H87 H 0.24257 0.03151 0.2761 0.0
Li88 Li 0.18512 0.19548 0.29161 0.0
Li89 Li 0.14781 0.18225 0.29038 0.0
Li90 Li 0.15868 0.19076 0.26139 0.0
Li91 Li 0.12227 0.19671 0.28681 0.0
C92 C 0.21292 0.18103 0.2628 0.0
N93 N 0.25142 0.17466 0.23194 0.0
C94 C 0.21028 0.17222 0.25729 0.0
C95 C 0.23541 0.18658 0.25274 0.0
C96 C 0.2299 0.16913 0.24162 0.0
C97 C 0.25457 0.18324 0.23714 0.0
C98 C 0.12371 0.1902 0.32457 0.0
C99 C 0.06875 0.18456 0.33487 0.0
N100 N 0.07705 0.18634 0.35379 0.0
C101 C 0.13168 0.19199 0.3441 0.0
C102 C 0.09197 0.18647 0.31988 0.0
C103 C 0.10775 0.18999 0.35867 0.0
C104 C 0.21763 0.20815 0.31485 0.0
N105 N 0.22296 0.20084 0.30386 0.0
C106 C 0.28243 0.20075 0.31206 0.0
C107 C 0.25453 0.19714 0.30214 0.0
C108 C 0.27764 0.20817 0.32398 0.0
C109 C 0.24481 0.21194 0.32514 0.0
H110 H 0.19212 0.21091 0.31588 0.0
H111 H 0.25785 0.19128 0.29345 0.0
C112 C 0.13199 0.16473 0.28598 0.0
N113 N 0.14176 0.17069 0.29964 0.0
C114 C 0.1307 0.15584 0.2907 0.0
C115 C 0.14751 0.15946 0.32383 0.0
C116 C 0.14914 0.16829 0.31835 0.0
C117 C 0.13895 0.15315 0.30973 0.0
H118 H 0.12652 0.16685 0.2712 0.0
H119 H 0.15725 0.17319 0.32884 0.0
C120 C 0.16959 0.20999 0.26312 0.0
N121 N 0.18931 0.2251 0.24373 0.0
C122 C 0.14484 0.21562 0.2552 0.0
C123 C 0.20438 0.21209 0.26125 0.0
C124 C 0.15533 0.22321 0.24544 0.0
C125 C 0.21382 0.21975 0.25137 0.0
C126 C 0.08841 0.18693 0.25726 0.0
C127 C 0.0867 0.19441 0.24545 0.0
C128 C 0.06395 0.1803 0.25505 0.0
C129 C 0.0604 0.19516 0.23168 0.0
C130 C 0.038 0.18129 0.24111 0.0
N131 N 0.03677 0.18864 0.22981 0.0
C132 C 0.15157 0.18195 0.22582 0.0
C133 C 0.17017 0.19663 0.22172 0.0
C134 C 0.14708 0.18101 0.20567 0.0
N135 N 0.16216 0.18973 0.23347 0.0
C136 C 0.16574 0.19601 0.2015 0.0
C137 C 0.15319 0.18819 0.19324 0.0
H138 H 0.14514 0.17657 0.2355 0.0
H139 H 0.17854 0.20275 0.22798 0.0
C140 C 0.09669 0.21276 0.29656 0.0
N141 N 0.08587 0.20466 0.29112 0.0
C142 C 0.07676 0.22009 0.2922 0.0
C143 C 0.03309 0.21044 0.27917 0.0
C144 C 0.05372 0.20328 0.28407 0.0
C145 C 0.04581 0.21899 0.28195 0.0
H146 H 0.12245 0.21362 0.30215 0.0
H147 H 0.04547 0.19673 0.28027 0.0
O148 O 0.19333 0.18423 0.27781 0.0
O149 O 0.14702 0.19209 0.31021 0.0
O150 O 0.1598 0.20257 0.27296 0.0
O151 O 0.1142 0.18598 0.27069 0.0
H152 H 0.19319 0.16782 0.26497 0.0
H153 H 0.23775 0.1934 0.25679 0.0
H154 H 0.22799 0.16234 0.23715 0.0
H155 H 0.27188 0.18748 0.22914 0.0
H156 H 0.04412 0.18166 0.33146 0.0
H157 H 0.15615 0.19489 0.34795 0.0
H158 H 0.08529 0.18503 0.30487 0.0
H159 H 0.1136 0.19133 0.37386 0.0
H160 H 0.30717 0.19754 0.31105 0.0
H161 H 0.24012 0.21768 0.33411 0.0
H162 H 0.12402 0.1511 0.27951 0.0
H163 H 0.15426 0.15754 0.3386 0.0
H164 H 0.11778 0.21415 0.25651 0.0
H165 H 0.22393 0.20788 0.26735 0.0
H166 H 0.13643 0.22761 0.23923 0.0
H167 H 0.24065 0.22144 0.24979 0.0
H168 H 0.1055 0.19957 0.2469 0.0
H169 H 0.065 0.17445 0.26403 0.0
H170 H 0.05878 0.20092 0.22247 0.0
H171 H 0.01885 0.17622 0.23925 0.0
H172 H 0.13805 0.1748 0.19999 0.0
H173 H 0.1705 0.20177 0.19261 0.0
H174 H 0.08703 0.22657 0.2951 0.0
H175 H 0.00923 0.20928 0.27147 0.0
Li176 Li 0.08484 0.19206 0.98438 0.0
Li177 Li 0.12383 0.19836 0.96171 0.0
Li178 Li 0.06376 0.19619 0.95199 0.0
Li179 Li 0.10384 0.18303 0.95754 0.0
C180 C 0.07368 0.2112 0.98244 0.0
N181 N 0.0561 0.22615 0.00311 0.0
C182 C 0.09901 0.21615 0.99187 0.0
C183 C 0.0394 0.21388 0.98354 0.0
C184 C 0.08961 0.22368 0.00222 0.0
C185 C 0.03103 0.22144 0.99407 0.0
C186 C 0.14917 0.18712 0.99572 0.0
C187 C 0.17709 0.17807 0.01991 0.0
N188 N 0.18099 0.18522 0.03162 0.0
C189 C 0.15376 0.19439 0.00792 0.0
C190 C 0.1611 0.1789 0.00169 0.0
C191 C 0.16976 0.1933 0.02604 0.0
C192 C 0.08075 0.18294 0.01999 0.0
N193 N 0.07514 0.19099 0.01197 0.0
C194 C 0.07228 0.19748 0.04376 0.0
C195 C 0.06937 0.19812 0.02348 0.0
C196 C 0.08086 0.1894 0.05229 0.0
C197 C 0.08364 0.18198 0.04025 0.0
H198 H 0.08573 0.17738 0.01058 0.0
H199 H 0.06456 0.20444 0.01708 0.0
C200 C 0.15066 0.21459 0.95253 0.0
N201 N 0.1597 0.20657 0.95946 0.0
C202 C 0.17011 0.22193 0.95744 0.0
C203 C 0.20975 0.21243 0.9746 0.0
C204 C 0.18962 0.20525 0.96922 0.0
C205 C 0.19874 0.22093 0.96974 0.0
H206 H 0.12638 0.21542 0.94509 0.0
H207 H 0.19605 0.19878 0.97454 0.0
C208 C 0.02781 0.18289 0.97782 0.0
N209 N 0.97234 0.17885 0.00137 0.0
C210 C 0.02534 0.17461 0.98653 0.0
C211 C 0.00184 0.18906 0.98086 0.0
C212 C 0.99717 0.17271 -0.00154 0.0
C213 C 0.97406 0.1869 0.99287 0.0
C214 C 0.12906 0.19574 0.92413 0.0
C215 C 0.1203 0.20276 0.91197 0.0
C216 C 0.16197 0.19212 0.92313 0.0
C217 C 0.14479 0.20608 0.89899 0.0
C218 C 0.18572 0.19562 0.90996 0.0
N219 N 0.17672 0.20248 0.89827 0.0
C220 C 0.02301 0.20915 0.93307 0.0
C221 C 0.01099 0.19427 0.92543 0.0
C222 C -0.00171 0.212 0.91969 0.0
N223 N 0.02861 0.20041 0.93569 0.0
C224 C 0.98659 0.19682 0.91168 0.0
C225 C 0.98018 0.20578 0.90865 0.0
H226 H 0.03819 0.21388 0.94106 0.0
H227 H 0.01645 0.18738 0.92769 0.0
C228 C 0.10898 0.16508 0.96277 0.0
N229 N 0.11252 0.17148 0.94913 0.0
C230 C 0.10963 0.15629 0.9572 0.0
C231 C 0.11949 0.16085 0.92374 0.0
C232 C 0.11814 0.16959 0.92994 0.0
C233 C 0.11429 0.15411 0.93742 0.0
H234 H 0.10444 0.16682 0.97789 0.0
H235 H 0.12033 0.17485 0.91938 0.0
O236 O 0.08235 0.20383 0.97205 0.0
O237 O 0.1328 0.18802 0.9781 0.0
O238 O 0.05546 0.18495 0.96637 0.0
O239 O 0.10571 0.1925 0.93718 0.0
H240 H 0.12566 0.21422 0.99131 0.0
H241 H 0.01941 0.21017 0.97634 0.0
H242 H 0.10897 0.22756 0.00957 0.0
H243 H 0.0046 0.22357 0.99504 0.0
H244 H 0.18634 0.17174 0.02476 0.0
H245 H 0.14455 0.20078 0.00357 0.0
H246 H 0.15798 0.17321 0.99239 0.0
H247 H 0.17313 0.19885 0.0357 0.0
H248 H 0.0694 0.20332 0.05263 0.0
H249 H 0.09046 0.17564 0.04628 0.0
H250 H 0.16117 0.22837 0.95311 0.0
H251 H 0.23166 0.21137 0.98407 0.0
H252 H 0.04501 0.16972 0.98421 0.0
H253 H 0.00314 0.19544 0.97401 0.0
H254 H 0.99506 0.16635 0.0054 0.0
H255 H 0.95385 0.19164 0.99541 0.0
H256 H 0.09493 0.20564 0.91265 0.0
H257 H 0.16912 0.1867 0.93255 0.0
H258 H 0.13844 0.21153 0.88952 0.0
H259 H 0.21134 0.19291 0.90906 0.0
H260 H 0.99408 0.21897 0.91757 0.0
H261 H 0.97285 0.19185 0.90347 0.0
H262 H 0.10589 0.15124 0.96817 0.0
H263 H 0.12299 0.15938 0.90835 0.0
Li264 Li 0.1612 0.05458 0.98074 0.0
Li265 Li 0.12261 0.04709 0.95809 0.0
Li266 Li 0.18292 0.04944 0.95005 0.0
Li267 Li 0.14241 0.06175 0.95131 0.0
C268 C 0.18256 0.03554 0.97795 0.0
N269 N 0.22095 0.02149 0.99123 0.0
C270 C 0.16648 0.02765 0.98297 0.0
C271 C 0.21813 0.03632 0.98001 0.0
C272 C 0.18633 0.02062 0.98958 0.0
C273 C 0.2371 0.02913 0.98665 0.0
C274 C 0.09183 0.05605 0.98899 0.0
C275 C 0.04404 0.05982 0.00986 0.0
N276 N 0.04926 0.05235 0.02034 0.0
C277 C 0.09666 0.0484 -1e-05 0.0
C278 C 0.06528 0.0618 0.99399 0.0
C279 C 0.0749 0.04665 0.01576 0.0
C280 C 0.16012 0.06422 0.01569 0.0
N281 N 0.16949 0.05635 0.00801 0.0
C282 C 0.17882 0.05049 0.03998 0.0
C283 C 0.17942 0.04959 0.01968 0.0
C284 C 0.16802 0.05844 0.04841 0.0
C285 C 0.15958 0.06545 0.03592 0.0
H286 H 0.15149 0.06942 0.00611 0.0
H287 H 0.18588 0.04332 0.01338 0.0
C288 C 0.10002 0.03056 0.94921 0.0
N289 N 0.08827 0.03838 0.95596 0.0
C290 C 0.08156 0.02291 0.95284 0.0
C291 C 0.03734 0.03167 0.96819 0.0
C292 C 0.05655 0.03917 0.96405 0.0
C293 C 0.0509 0.02337 0.96362 0.0
H294 H 0.12526 0.03018 0.94264 0.0
H295 H 0.04736 0.04551 0.9688 0.0
C296 C 0.20752 0.06672 0.97393 0.0
N297 N 0.24209 0.07776 -0.00071 0.0
C298 C 0.19737 0.07548 0.97593 0.0
C299 C 0.23553 0.06361 0.98469 0.0
C300 C 0.21511 0.08094 0.98885 0.0
C301 C 0.25257 0.06928 0.99748 0.0
C302 C 0.11564 0.05259 0.91991 0.0
C303 C 0.12081 0.05063 0.90016 0.0
C304 C 0.08372 0.05574 0.92613 0.0
C305 C 0.09393 0.05185 0.88691 0.0
C306 C 0.0575 0.05687 0.91243 0.0
N307 N 0.06309 0.05492 0.89326 0.0
C308 C 0.2155 0.03672 0.92702 0.0
C309 C 0.25148 0.04828 0.93802 0.0
C310 C 0.24298 0.03277 0.91731 0.0
N311 N 0.22031 0.04434 0.93699 0.0
C312 C 0.27967 0.04453 0.9287 0.0
C313 C 0.27556 0.03669 0.91811 0.0
H314 H 0.19029 0.03375 0.92661 0.0
H315 H 0.25438 0.05435 0.94604 0.0
C316 C 0.10837 0.07781 0.95002 0.0
N317 N 0.13077 0.07265 0.94008 0.0
C318 C 0.10195 0.08635 0.94375 0.0
C319 C 0.1409 0.084 0.91667 0.0
C320 C 0.14659 0.07548 0.92351 0.0
C321 C 0.11881 0.08961 0.92707 0.0
H322 H 0.09669 0.07542 0.96332 0.0
H323 H 0.16443 0.0712 0.91599 0.0
O324 O 0.16345 0.04246 0.97124 0.0
O325 O 0.11322 0.05805 0.97368 0.0
O326 O 0.19022 0.06124 0.9615 0.0
O327 O 0.14189 0.05146 0.93297 0.0
H328 H 0.13891 0.02699 0.982 0.0
H329 H 0.23096 0.04239 0.97653 0.0
H330 H 0.17419 0.01447 0.99345 0.0
H331 H 0.26467 0.02964 0.98819 0.0
H332 H 0.02342 0.06422 0.01387 0.0
H333 H 0.11683 0.04382 0.99644 0.0
H334 H 0.06104 0.06775 0.9857 0.0
H335 H 0.07839 0.04076 0.02436 0.0
H336 H 0.1849 0.04483 0.0489 0.0
H337 H 0.15154 0.07174 0.04168 0.0
H338 H 0.09244 0.01665 0.94856 0.0
H339 H 0.0137 0.03235 0.97639 0.0
H340 H 0.17592 0.07803 0.9677 0.0
H341 H 0.24392 0.05689 0.98329 0.0
H342 H 0.2074 0.08772 0.9906 0.0
H343 H 0.27414 0.06694 0.00598 0.0
H344 H 0.14539 0.04819 0.89513 0.0
H345 H 0.07917 0.0573 0.94133 0.0
H346 H 0.09758 0.05036 0.87157 0.0
H347 H 0.03269 0.05931 0.91703 0.0
H348 H 0.23886 0.02672 0.90931 0.0
H349 H 0.30424 0.04784 0.92936 0.0
H350 H 0.0853 0.09047 0.95249 0.0
H351 H 0.15424 0.08624 0.90369 0.0
Li352 Li 0.8935 0.94404 0.7342 0.0
Li353 Li 0.88675 0.93464 0.70541 0.0
Li354 Li 0.92628 0.94746 0.70401 0.0
Li355 Li 0.86415 0.94921 0.70372 0.0
C356 C 0.95627 0.93497 0.73314 0.0
N357 N 0.01139 0.93126 0.75726 0.0
C358 C 0.96181 0.92641 0.73977 0.0
C359 C 0.97913 0.94161 0.73855 0.0
C360 C 0.9897 0.92467 0.75203 0.0
C361 C 0.00674 0.93962 0.7508 0.0
C362 C 0.82806 0.93305 0.72513 0.0
C363 C 0.78229 0.92366 0.71391 0.0
N364 N 0.78346 0.91921 0.73115 0.0
C365 C 0.82858 0.92845 0.74282 0.0
C366 C 0.80452 0.93071 0.71062 0.0
C367 C 0.80592 0.92145 0.74555 0.0
C368 C 0.87234 0.95181 0.76866 0.0
N369 N 0.8904 0.94482 0.76183 0.0
C370 C 0.89641 0.93911 0.7942 0.0
C371 C 0.90257 0.93853 0.77409 0.0
C372 C 0.87755 0.94623 0.80165 0.0
C373 C 0.8658 0.95269 0.78862 0.0
H374 H 0.86237 0.95662 0.75848 0.0
H375 H 0.91608 0.93292 0.76826 0.0
C376 C 0.88089 0.92005 0.67926 0.0
N377 N 0.88233 0.9227 0.69825 0.0
C378 C 0.88209 0.9111 0.67468 0.0
C379 C 0.88541 0.90788 0.7093 0.0
C380 C 0.88403 0.91683 0.71317 0.0
C381 C 0.88523 0.90492 0.68984 0.0
H382 H 0.87999 0.92488 0.66768 0.0
H383 H 0.88537 0.91914 0.7281 0.0
C384 C 0.91425 0.9629 0.72659 0.0
N385 N 0.94523 0.97815 0.73968 0.0
C386 C 0.90878 0.97084 0.7168 0.0
C387 C 0.93505 0.96278 0.74326 0.0
C388 C 0.92478 0.97846 0.72358 0.0
C389 C 0.95061 0.97053 0.74959 0.0
C390 C 0.87919 0.9463 0.66681 0.0
C391 C 0.8964 0.95266 0.65582 0.0
C392 C 0.84758 0.94309 0.66034 0.0
C393 C 0.88135 0.95582 0.63865 0.0
C394 C 0.83336 0.94642 0.6431 0.0
N395 N 0.85039 0.95267 0.63271 0.0
C396 C 0.99311 0.94514 0.69109 0.0
C397 C 0.97422 0.95987 0.68798 0.0
C398 C 0.02473 0.94728 0.68288 0.0
N399 N 0.96877 0.95142 0.69363 0.0
C400 C 0.00549 0.96229 0.6795 0.0
C401 C 0.0312 0.95593 0.67688 0.0
H402 H 0.98772 0.93843 0.69519 0.0
H403 H 0.95408 0.96467 0.68955 0.0
C404 C 0.79992 0.95636 0.70851 0.0
N405 N 0.82825 0.95697 0.69701 0.0
C406 C 0.77923 0.96369 0.71153 0.0
C407 C 0.81508 0.97183 0.68904 0.0
C408 C 0.83507 0.96432 0.68643 0.0
C409 C 0.7882 0.97171 0.70277 0.0
H410 H 0.79563 0.95052 0.71714 0.0
H411 H 0.85826 0.96472 0.67781 0.0
O412 O 0.92907 0.93677 0.72108 0.0
O413 O 0.85024 0.93988 0.72212 0.0
O414 O 0.89819 0.9554 0.72035 0.0
O415 O 0.89343 0.94315 0.68369 0.0
H416 H 0.94478 0.92114 0.73556 0.0
H417 H 0.97597 0.94821 0.73311 0.0
H418 H 0.99415 0.91808 0.75735 0.0
H419 H 0.02458 0.94471 0.75509 0.0
H420 H 0.76406 0.92175 0.70276 0.0
H421 H 0.84649 0.9302 0.75425 0.0
H422 H 0.80342 0.93429 0.69698 0.0
H423 H 0.80621 0.91779 0.75912 0.0
H424 H 0.90604 0.93401 0.80378 0.0
H425 H 0.8507 0.95821 0.7937 0.0
H426 H 0.88199 0.90906 0.6595 0.0
H427 H 0.88722 0.90332 0.72142 0.0
H428 H 0.89269 0.97113 0.70397 0.0
H429 H 0.93891 0.95679 0.75142 0.0
H430 H 0.92093 0.98462 0.71603 0.0
H431 H 0.96684 0.9705 0.76243 0.0
H432 H 0.921 0.95517 0.66055 0.0
H433 H 0.83418 0.93808 0.66853 0.0
H434 H 0.89428 0.96078 0.63005 0.0
H435 H 0.80882 0.94403 0.63797 0.0
H436 H 0.04349 0.94213 0.68065 0.0
H437 H 0.00941 0.96902 0.67493 0.0
H438 H 0.75896 0.9633 0.72234 0.0
H439 H 0.82256 0.97786 0.68183 0.0
Li440 Li 0.85867 0.8111 0.70615 0.0
Li441 Li 0.83765 0.80261 0.73407 0.0
Li442 Li 0.87826 0.79621 0.70969 0.0
Li443 Li 0.81849 0.79852 0.70081 0.0
C444 C 0.90939 0.81213 0.73296 0.0
N445 N 0.95712 0.82482 0.74266 0.0
C446 C 0.90691 0.81659 0.75079 0.0
C447 C 0.93641 0.81404 0.7202 0.0
C448 C 0.93124 0.823 0.7554 0.0
C449 C 0.96019 0.82051 0.72532 0.0
C450 C 0.78002 0.81286 0.72231 0.0
C451 C 0.72007 0.81081 0.72993 0.0
N452 N 0.71818 0.8193 0.73603 0.0
C453 C 0.77734 0.82159 0.72836 0.0
C454 C 0.75103 0.80745 0.72285 0.0
C455 C 0.74592 0.82471 0.73537 0.0
C456 C 0.87661 0.82492 0.67976 0.0
N457 N 0.86961 0.82272 0.69864 0.0
C458 C 0.87678 0.83755 0.70897 0.0
C459 C 0.86915 0.82883 0.7131 0.0
C460 C 0.88416 0.84004 0.68967 0.0
C461 C 0.88377 0.83366 0.67487 0.0
H462 H 0.87637 0.81992 0.66853 0.0
H463 H 0.86265 0.82693 0.72787 0.0
C464 C 0.84292 0.79612 0.77156 0.0
N465 N 0.82971 0.803 0.76142 0.0
C466 C 0.84511 0.79644 0.7919 0.0
C467 C 0.81911 0.81085 0.79108 0.0
C468 C 0.81735 0.81023 0.77069 0.0
C469 C 0.83396 0.80398 0.80191 0.0
H470 H 0.85351 0.79057 0.76375 0.0
H471 H 0.80804 0.81573 0.76229 0.0
C472 C 0.879 0.79791 0.67123 0.0
N473 N 0.91719 0.78971 0.64248 0.0
C474 C 0.86531 0.79079 0.66097 0.0
C475 C 0.91193 0.80093 0.66672 0.0
C476 C 0.88507 0.78672 0.64652 0.0
C477 C 0.93089 0.79668 0.65218 0.0
C478 C 0.81543 0.78429 0.72804 0.0
C479 C 0.82306 0.7755 0.72403 0.0
C480 C 0.78631 0.78634 0.73908 0.0
C481 C 0.801 0.76894 0.73077 0.0
C482 C 0.76489 0.77959 0.74556 0.0
N483 N 0.77259 0.7711 0.74129 0.0
C484 C 0.94168 0.78926 0.72081 0.0
C485 C 0.90874 0.78016 0.69985 0.0
C486 C 0.9628 0.78222 0.72581 0.0
N487 N 0.91454 0.78802 0.70864 0.0
C488 C 0.92915 0.77294 0.70446 0.0
C489 C 0.95544 0.77384 0.71839 0.0
H490 H 0.9451 0.7955 0.72806 0.0
H491 H 0.8864 0.7793 0.69069 0.0
C492 C 0.76912 0.80101 0.67278 0.0
N493 N 0.78212 0.79467 0.68458 0.0
C494 C 0.74391 0.79898 0.65907 0.0
C495 C 0.74548 0.7839 0.67008 0.0
C496 C 0.77093 0.78622 0.68352 0.0
C497 C 0.73197 0.79031 0.6575 0.0
H498 H 0.77876 0.80765 0.67389 0.0
H499 H 0.78217 0.78125 0.69274 0.0
O500 O 0.8855 0.80593 0.72807 0.0
O501 O 0.81052 0.80975 0.71516 0.0
O502 O 0.86011 0.80196 0.68547 0.0
O503 O 0.83695 0.79079 0.72165 0.0
H504 H 0.88634 0.81515 0.76092 0.0
H505 H 0.93885 0.8106 0.70644 0.0
H506 H 0.92952 0.82653 0.7691 0.0
H507 H 0.98109 0.82209 0.71551 0.0
H508 H 0.69749 0.80669 0.73051 0.0
H509 H 0.79932 0.82591 0.72778 0.0
H510 H 0.75225 0.80075 0.71772 0.0
H511 H 0.74358 0.83143 0.74026 0.0
H512 H 0.87623 0.84234 0.72069 0.0
H513 H 0.8892 0.83539 0.65981 0.0
H514 H 0.85733 0.79106 0.79956 0.0
H515 H 0.81006 0.81676 0.79822 0.0
H516 H 0.83982 0.78838 0.66423 0.0
H517 H 0.9227 0.80651 0.67432 0.0
H518 H 0.87488 0.78117 0.63854 0.0
H519 H 0.95647 0.79892 0.64858 0.0
H520 H 0.84565 0.77376 0.71571 0.0
H521 H 0.78052 0.79306 0.74284 0.0
H522 H 0.8065 0.76212 0.72766 0.0
H523 H 0.74224 0.7811 0.75408 0.0
H524 H 0.98254 0.78318 0.73676 0.0
H525 H 0.92287 0.76659 0.69829 0.0
H526 H 0.73379 0.80414 0.64983 0.0
H527 H 0.73709 0.77713 0.66919 0.0
Li528 Li 0.93149 0.80026 0.04121 0.0
Li529 Li 0.87602 0.79564 0.03156 0.0
Li530 Li 0.90872 0.80476 0.0101 0.0
Li531 Li 0.88286 0.811 0.04049 0.0
C532 C 0.94302 0.78624 0.02047 0.0
N533 N 0.99053 0.77291 0.02479 0.0
C534 C 0.93425 0.77857 0.03055 0.0
C535 C 0.97595 0.78712 0.01257 0.0
C536 C 0.95862 0.7719 0.03255 0.0
C537 C -0.00039 0.78031 0.01494 0.0
C538 C 0.86508 0.79712 0.07037 0.0
C539 C 0.81337 0.79871 0.0895 0.0
N540 N 0.81775 0.79045 0.09662 0.0
C541 C 0.86906 0.78864 0.07789 0.0
C542 C 0.83705 0.8022 0.07626 0.0
C543 C 0.84487 0.78539 0.09115 0.0
C544 C 0.00083 0.80188 0.05305 0.0
N545 N 0.9718 0.79703 0.05502 0.0
C546 C 0.00036 0.78698 0.07633 0.0
C547 C 0.97099 0.78974 0.06647 0.0
C548 C 0.03079 0.79184 0.07458 0.0
C549 C 0.0308 0.79939 0.06275 0.0
H550 H 0.00067 0.80771 0.04407 0.0
H551 H 0.94762 0.786 0.06778 0.0
C552 C 0.85432 0.78161 0.01137 0.0
N553 N 0.84612 0.78581 0.02829 0.0
C554 C 0.83688 0.77412 0.00569 0.0
C555 C 0.80072 0.77557 0.03427 0.0
C556 C 0.81928 0.78309 0.03955 0.0
C557 C 0.8101 0.77093 0.01731 0.0
H558 H 0.87447 0.78413 0.00209 0.0
H559 H 0.81194 0.78676 0.05238 0.0
C560 C 0.94677 0.81802 0.01753 0.0
N561 N 0.97715 0.82926 0.99093 0.0
C562 C 0.93297 0.82636 0.01431 0.0
C563 C 0.97601 0.81539 0.00721 0.0
C564 C 0.94873 0.83195 0.00082 0.0
C565 C 0.99098 0.82117 0.99382 0.0
C566 C 0.8289 0.80346 0.01061 0.0
C567 C 0.8257 0.8002 0.99158 0.0
C568 C 0.80038 0.80348 0.02303 0.0
C569 C 0.79399 0.79697 0.98531 0.0
C570 C 0.76911 0.80019 0.01621 0.0
N571 N 0.7666 0.79703 0.99765 0.0
C572 C 0.92794 0.80023 0.97182 0.0
C573 C 0.899 0.81386 0.97481 0.0
C574 C 0.92401 0.80041 0.95154 0.0
N575 N 0.91475 0.80679 0.98298 0.0
C576 C 0.89451 0.81431 0.95457 0.0
C577 C 0.90596 0.80735 0.94274 0.0
H578 H 0.93937 0.79457 0.97873 0.0
H579 H 0.88763 0.81881 0.98412 0.0
C580 C 0.8883 0.82643 0.06212 0.0
N581 N 0.86625 0.82167 0.05097 0.0
C582 C 0.8812 0.83521 0.06635 0.0
C583 C 0.82749 0.83375 0.04893 0.0
C584 C 0.83591 0.82505 0.04476 0.0
C585 C 0.85099 0.83908 0.0591 0.0
H586 H 0.91258 0.82359 0.06649 0.0
H587 H 0.81916 0.82118 0.03561 0.0
O588 O 0.91967 0.79291 0.01855 0.0
O589 O 0.88899 0.80052 0.05781 0.0
O590 O 0.93136 0.81238 0.0304 0.0
O591 O 0.85999 0.80641 0.01721 0.0
H592 H 0.90914 0.77782 0.03709 0.0
H593 H 0.98327 0.79302 0.00484 0.0
H594 H 0.95223 0.76596 0.04039 0.0
H595 H 0.02523 0.78092 0.00897 0.0
H596 H 0.79155 0.80258 0.09414 0.0
H597 H 0.89028 0.78456 0.07339 0.0
H598 H 0.83362 0.80879 0.07072 0.0
H599 H 0.84757 0.77884 0.09702 0.0
H600 H -0.00075 0.78107 0.08514 0.0
H601 H 0.05349 0.80344 0.0613 0.0
H602 H 0.84404 0.77092 0.99214 0.0
H603 H 0.77965 0.77337 0.04337 0.0
H604 H 0.91014 0.82848 0.02197 0.0
H605 H 0.9868 0.80892 0.00934 0.0
H606 H 0.93827 0.83842 -0.00186 0.0
H607 H 0.01353 0.8192 0.98568 0.0
H608 H 0.84755 0.80004 0.98182 0.0
H609 H 0.80248 0.80585 0.0379 0.0
H610 H 0.7912 0.79438 0.97065 0.0
H611 H 0.7469 0.80011 0.02571 0.0
H612 H 0.93354 0.79496 0.94293 0.0
H613 H 0.88004 0.81972 0.94843 0.0
H614 H 0.90036 0.83904 0.074 0.0
H615 H 0.8036 0.83639 0.04336 0.0
Li616 Li 0.87979 0.94899 0.03915 0.0
Li617 Li 0.81993 0.94676 0.04739 0.0
Li618 Li 0.85693 0.93464 0.03761 0.0
Li619 Li 0.83992 0.9449 0.01256 0.0
C620 C 0.88117 0.94476 0.07597 0.0
N621 N 0.92365 0.95046 0.10571 0.0
C622 C 0.87116 0.95176 0.08788 0.0
C623 C 0.91258 0.9406 0.07929 0.0
C624 C 0.89306 0.95457 0.10281 0.0
C625 C 0.93375 0.94359 0.09437 0.0
C626 C 0.81685 0.96159 0.02205 0.0
C627 C 0.76097 0.96511 0.00908 0.0
N628 N 0.77102 0.9736 0.00677 0.0
C629 C 0.8267 0.97033 0.01946 0.0
C630 C 0.78378 0.95894 0.01675 0.0
C631 C 0.80312 0.97631 0.01175 0.0
C632 C 0.94555 0.95589 0.03263 0.0
N633 N 0.91613 0.95691 0.04306 0.0
C634 C 0.92766 0.9721 0.04798 0.0
C635 C 0.90758 0.96469 0.0514 0.0
C636 C 0.95631 0.97146 0.03558 0.0
C637 C 0.96636 0.96314 0.0288 0.0
H638 H 0.95102 0.94971 0.02559 0.0
H639 H 0.88335 0.96536 0.05898 0.0
C640 C 0.77421 0.94394 0.07749 0.0
N641 N 0.78512 0.95031 0.06504 0.0
C642 C 0.75054 0.94589 0.09214 0.0
C643 C 0.74997 0.96097 0.08109 0.0
C644 C 0.77391 0.95873 0.0667 0.0
C645 C 0.73816 0.9545 0.09409 0.0
H646 H 0.78452 0.93738 0.07625 0.0
H647 H 0.78402 0.96377 0.05722 0.0
C648 C 0.90878 0.93446 0.01054 0.0
N649 N 0.95409 0.92223 0.9956 0.0
C650 C 0.9051 0.93146 0.99132 0.0
C651 C 0.93568 0.93131 0.0221 0.0
C652 C 0.92824 0.92526 0.98405 0.0
C653 C 0.95825 0.92511 0.0143 0.0
C654 C 0.7966 0.92917 0.02347 0.0
C655 C 0.80494 0.92527 0.00557 0.0
C656 C 0.77624 0.9246 0.03688 0.0
C657 C 0.79283 0.91684 0.0014 0.0
C658 C 0.76472 0.91617 0.0322 0.0
N659 N 0.77317 0.9125 0.01471 0.0
C660 C 0.85789 0.91959 0.06141 0.0
C661 C 0.86927 0.91664 0.02799 0.0
C662 C 0.85656 0.91061 0.06555 0.0
N663 N 0.8636 0.92242 0.0428 0.0
C664 C 0.86821 0.90765 0.03145 0.0
C665 C 0.86091 0.90452 0.05033 0.0
H666 H 0.8528 0.92432 0.07286 0.0
H667 H 0.87278 0.91896 0.01323 0.0
C668 C 0.85776 0.95154 0.97678 0.0
N669 N 0.83181 0.94715 0.98576 0.0
C670 C 0.85736 0.95276 0.95659 0.0
C671 C 0.80264 0.94527 0.95532 0.0
C672 C 0.80397 0.94426 0.97565 0.0
C673 C 0.82998 0.9494 0.94553 0.0
H674 H 0.87948 0.95377 0.9853 0.0
H675 H 0.78342 0.94092 0.98326 0.0
O676 O 0.86029 0.94198 0.06115 0.0
O677 O 0.8398 0.95565 0.02938 0.0
O678 O 0.8865 0.94057 0.01786 0.0
O679 O 0.8087 0.93736 0.02792 0.0
H680 H 0.84689 0.95505 0.0855 0.0
H681 H 0.92045 0.93509 0.07034 0.0
H682 H 0.88576 0.96001 0.11207 0.0
H683 H 0.95819 0.94045 0.09708 0.0
H684 H 0.73527 0.96316 0.00495 0.0
H685 H 0.8523 0.97247 0.02337 0.0
H686 H 0.77578 0.95219 0.01858 0.0
H687 H 0.81035 0.9831 0.0097 0.0
H688 H 0.91924 0.97839 0.05361 0.0
H689 H 0.98801 0.96238 0.019 0.0
H690 H 0.74192 0.9407 0.10178 0.0
H691 H 0.74142 0.96771 0.08233 0.0
H692 H 0.88444 0.93383 0.98216 0.0
H693 H 0.93902 0.93362 0.03694 0.0
H694 H 0.92561 0.92285 0.96924 0.0
H695 H 0.9791 0.92258 0.0231 0.0
H696 H 0.82134 0.92861 0.9952 0.0
H697 H 0.7695 0.92751 0.05079 0.0
H698 H 0.79933 0.91373 0.98767 0.0
H699 H 0.74906 0.91255 0.04248 0.0
H700 H 0.8506 0.90848 0.08028 0.0
H701 H 0.87213 0.90318 0.01933 0.0
H702 H 0.87911 0.9559 0.94963 0.0
H703 H 0.78088 0.94269 0.94731 0.0
Li704 Li 0.06013 0.54884 0.78944 0.0
Li705 Li 0.09823 0.56143 0.79054 0.0
Li706 Li 0.08097 0.55474 0.75925 0.0
Li707 Li 0.12091 0.54712 0.78152 0.0
C708 C 0.03281 0.56616 0.76728 0.0
N709 N 0.99636 0.57714 0.74272 0.0
C710 C 0.03971 0.57516 0.76705 0.0
C711 C 0.00727 0.56275 0.75508 0.0
C712 C 0.02099 0.5806 0.75453 0.0
C713 C 0.98918 0.56841 0.74274 0.0
C714 C 0.11337 0.55315 0.82423 0.0
C715 C 0.16127 0.55676 0.84506 0.0
N716 N 0.13904 0.55885 0.85969 0.0
C717 C 0.09099 0.55525 0.8395 0.0
C718 C 0.14879 0.55383 0.82704 0.0
C719 C 0.10447 0.55815 0.85731 0.0
C720 C 0.02918 0.53687 0.81537 0.0
N721 N 0.02288 0.54334 0.80216 0.0
C722 C 0.96271 0.54245 0.80814 0.0
C723 C 0.9905 0.54612 0.79827 0.0
C724 C 0.96836 0.53588 0.82223 0.0
C725 C 0.00211 0.533 0.82561 0.0
H726 H 0.05532 0.53481 0.81814 0.0
H727 H 0.98634 0.55133 0.78783 0.0
C728 C 0.13311 0.57739 0.79641 0.0
N729 N 0.10705 0.57229 0.80312 0.0
C730 C 0.1373 0.58591 0.80344 0.0
C731 C 0.08796 0.58376 0.82437 0.0
C732 C 0.08481 0.57525 0.81697 0.0
C733 C 0.11415 0.58926 0.81733 0.0
H734 H 0.14965 0.57502 0.78491 0.0
H735 H 0.06376 0.57113 0.82165 0.0
C736 C 0.06184 0.53487 0.76776 0.0
N737 N 0.02228 0.51986 0.7704 0.0
C738 C 0.07457 0.52744 0.77731 0.0
C739 C 0.02908 0.53465 0.75943 0.0
C740 C 0.05416 0.51992 0.7785 0.0
C741 C 0.00944 0.52701 0.76097 0.0
C742 C 0.15977 0.55921 0.76078 0.0
C743 C 0.16587 0.55867 0.74064 0.0
C744 C 0.18736 0.56035 0.77359 0.0
C745 C 0.19954 0.5592 0.73369 0.0
C746 C 0.22065 0.56087 0.76607 0.0
N747 N 0.226 0.56028 0.74644 0.0
C748 C 0.07744 0.5647 0.72406 0.0
C749 C 0.07013 0.54932 0.72084 0.0
C750 C 0.07834 0.56567 0.70374 0.0
N751 N 0.07382 0.55659 0.73212 0.0
C752 C 0.07109 0.54998 0.70052 0.0
C753 C 0.07605 0.55821 0.69168 0.0
H754 H 0.08134 0.57034 0.73339 0.0
H755 H 0.06836 0.54293 0.72761 0.0
C756 C 0.1648 0.53385 0.79683 0.0
N757 N 0.15749 0.53903 0.78116 0.0
C758 C 0.18644 0.52659 0.7946 0.0
C759 C 0.19405 0.53055 0.76058 0.0
C760 C 0.17164 0.53753 0.76332 0.0
C761 C 0.20084 0.52484 0.77617 0.0
H762 H 0.15205 0.535 0.81066 0.0
H763 H 0.16375 0.54139 0.75087 0.0
O764 O 0.05094 0.5607 0.77938 0.0
O765 O 0.10065 0.55033 0.80668 0.0
O766 O 0.08107 0.54238 0.76689 0.0
O767 O 0.12692 0.55871 0.76785 0.0
H768 H 0.05939 0.57792 0.77634 0.0
H769 H 0.00177 0.55579 0.75495 0.0
H770 H 0.02611 0.58758 0.75416 0.0
H771 H 0.9695 0.56585 0.73314 0.0
H772 H 0.18863 0.55734 0.84743 0.0
H773 H 0.06349 0.55468 0.83756 0.0
H774 H 0.16645 0.55207 0.81549 0.0
H775 H 0.08746 0.55985 0.86924 0.0
H776 H 0.93725 0.54501 0.80536 0.0
H777 H 0.00757 0.52793 0.83626 0.0
H778 H 0.15733 0.58999 0.79724 0.0
H779 H 0.06957 0.58609 0.83506 0.0
H780 H 0.09979 0.5275 0.7839 0.0
H781 H 0.0188 0.54035 0.75204 0.0
H782 H 0.06363 0.51414 0.78593 0.0
H783 H 0.98397 0.52676 0.7547 0.0
H784 H 0.14494 0.55775 0.73047 0.0
H785 H 0.18312 0.56089 0.78917 0.0
H786 H 0.20462 0.55875 0.71816 0.0
H787 H 0.24223 0.56175 0.77584 0.0
H788 H 0.08193 0.57215 0.69757 0.0
H789 H 0.06996 0.54402 0.69192 0.0
H790 H 0.19077 0.52222 0.80684 0.0
H791 H 0.20389 0.52924 0.74603 0.0
Li792 Li 0.18406 0.69396 0.78997 0.0
Li793 Li 0.1425 0.6827 0.78838 0.0
Li794 Li 0.15252 0.69059 0.75932 0.0
Li795 Li 0.11987 0.69725 0.7876 0.0
C796 C 0.2172 0.68323 0.7636 0.0
N797 N 0.27931 0.68357 0.74395 0.0
C798 C 0.23954 0.67606 0.76464 0.0
C799 C 0.2266 0.69057 0.75258 0.0
C800 C 0.27079 0.67635 0.75461 0.0
C801 C 0.25803 0.69062 0.74273 0.0
C802 C 0.14121 0.68773 0.82621 0.0
C803 C 0.10576 0.68449 0.85421 0.0
N804 N 0.13076 0.67911 0.86126 0.0
C805 C 0.1667 0.68225 0.83379 0.0
C806 C 0.11059 0.68892 0.83653 0.0
C807 C 0.16085 0.67792 0.8515 0.0
C808 C 0.22651 0.70612 0.80967 0.0
N809 N 0.22422 0.69777 0.80271 0.0
C810 C 0.27372 0.69346 0.82077 0.0
C811 C 0.24747 0.69152 0.80766 0.0
C812 C 0.27577 0.70188 0.829 0.0
C813 C 0.25257 0.70836 0.82281 0.0
H814 H 0.20696 0.71087 0.80592 0.0
H815 H 0.24435 0.68488 0.80242 0.0
C816 C 0.15583 0.66484 0.79145 0.0
N817 N 0.13375 0.67108 0.79798 0.0
C818 C 0.15288 0.65619 0.79781 0.0
C819 C 0.10381 0.66043 0.81728 0.0
C820 C 0.10778 0.66903 0.81052 0.0
C821 C 0.12679 0.6539 0.81102 0.0
H822 H 0.1757 0.66656 0.78115 0.0
H823 H 0.09016 0.67407 0.81531 0.0
C824 C 0.16437 0.71005 0.76351 0.0
N825 N 0.17368 0.72631 0.74627 0.0
C826 C 0.1362 0.71477 0.75643 0.0
C827 C 0.19728 0.71365 0.76192 0.0
C828 C 0.14141 0.72296 0.74776 0.0
C829 C 0.20146 0.72186 0.7531 0.0
C830 C 0.08651 0.68032 0.76833 0.0
C831 C 0.09562 0.67356 0.75552 0.0
C832 C 0.05656 0.67962 0.77948 0.0
C833 C 0.07465 0.66615 0.75419 0.0
C834 C 0.03625 0.6721 0.7777 0.0
N835 N 0.04565 0.66558 0.76522 0.0
C836 C 0.16761 0.68426 0.7206 0.0
C837 C 0.13137 0.6967 0.72303 0.0
C838 C 0.16364 0.68413 0.70026 0.0
N839 N 0.15172 0.69054 0.73147 0.0
C840 C 0.12685 0.69685 0.70281 0.0
C841 C 0.14296 0.69049 0.69115 0.0
H842 H 0.18271 0.67923 0.72771 0.0
H843 H 0.11768 0.70132 0.73206 0.0
C844 C 0.09804 0.71342 0.80155 0.0
N845 N 0.08715 0.70596 0.79261 0.0
C846 C 0.07969 0.72121 0.79913 0.0
C847 C 0.03787 0.71324 0.77989 0.0
C848 C 0.05708 0.70562 0.7826 0.0
C849 C 0.05014 0.72124 0.78734 0.0
H850 H 0.12262 0.7135 0.80891 0.0
H851 H 0.04986 0.69967 0.77503 0.0
O852 O 0.18673 0.68305 0.77367 0.0
O853 O 0.14635 0.69203 0.80892 0.0
O854 O 0.15972 0.70211 0.7726 0.0
O855 O 0.10707 0.68755 0.77009 0.0
H856 H 0.23303 0.67034 0.77326 0.0
H857 H 0.20969 0.69613 0.75134 0.0
H858 H 0.28829 0.67085 0.75535 0.0
H859 H 0.26546 0.69626 0.73409 0.0
H860 H 0.08212 0.68531 0.86232 0.0
H861 H 0.19054 0.68127 0.82596 0.0
H862 H 0.09071 0.69319 0.83085 0.0
H863 H 0.18022 0.67359 0.85749 0.0
H864 H 0.29128 0.68831 0.82513 0.0
H865 H 0.25317 0.7149 0.82903 0.0
H866 H 0.17059 0.65133 0.79217 0.0
H867 H 0.08326 0.65893 0.82742 0.0
H868 H 0.11052 0.71214 0.75752 0.0
H869 H 0.21942 0.71016 0.76747 0.0
H870 H 0.1198 0.72667 0.74224 0.0
H871 H 0.2268 0.7247 0.75174 0.0
H872 H 0.11884 0.674 0.74687 0.0
H873 H 0.04934 0.68476 0.7896 0.0
H874 H 0.08146 0.66084 0.74442 0.0
H875 H 0.0131 0.67144 0.78633 0.0
H876 H 0.17645 0.67909 0.69179 0.0
H877 H 0.10995 0.70172 0.69646 0.0
H878 H 0.08982 0.72724 0.80522 0.0
H879 H 0.01554 0.71299 0.77047 0.0
Li880 Li 0.13026 0.69809 0.45397 0.0
Li881 Li 0.09402 0.69171 0.47894 0.0
Li882 Li 0.10755 0.68332 0.45016 0.0
Li883 Li 0.06797 0.69612 0.44834 0.0
C884 C 0.16553 0.68868 0.48352 0.0
N885 N 0.21778 0.69098 0.51037 0.0
C886 C 0.16517 0.69588 0.49617 0.0
C887 C 0.19236 0.68261 0.4846 0.0
C888 C 0.19183 0.69694 0.50962 0.0
C889 C 0.21858 0.6839 0.49825 0.0
C890 C 0.08061 0.71068 0.47779 0.0
C891 C 0.03551 0.72019 0.48954 0.0
N892 N 0.05944 0.7254 0.49819 0.0
C893 C 0.10475 0.71617 0.48673 0.0
C894 C 0.04569 0.71274 0.47913 0.0
C895 C 0.09354 0.72356 0.497 0.0
C896 C 0.15319 0.7146 0.44564 0.0
N897 N 0.16532 0.70653 0.45042 0.0
C898 C 0.21672 0.71271 0.46334 0.0
C899 C 0.19752 0.70541 0.45764 0.0
C900 C 0.20258 0.72115 0.46121 0.0
C901 C 0.17166 0.72207 0.45083 0.0
H902 H 0.12742 0.71526 0.43992 0.0
H903 H 0.20688 0.6989 0.46092 0.0
C904 C 0.10358 0.68354 0.51511 0.0
N905 N 0.08831 0.69063 0.5067 0.0
C906 C 0.10557 0.68285 0.53542 0.0
C907 C 0.07391 0.69643 0.53811 0.0
C908 C 0.07262 0.69687 0.51773 0.0
C909 C 0.09146 0.68948 0.5472 0.0
H910 H 0.11557 0.67862 0.50599 0.0
H911 H 0.05985 0.70232 0.51083 0.0
C912 C 0.13176 0.6914 0.41626 0.0
N913 N 0.18069 0.68784 0.38808 0.0
C914 C 0.12456 0.6929 0.39651 0.0
C915 C 0.16386 0.6881 0.42169 0.0
C916 C 0.14964 0.69106 0.38248 0.0
C917 C 0.18824 0.68634 0.40722 0.0
C918 C 0.04089 0.68173 0.47688 0.0
C919 C 0.04574 0.67326 0.48421 0.0
C920 C 0.01543 0.68709 0.48493 0.0
C921 C 0.02517 0.67031 0.49962 0.0
C922 C 0.9954 0.6839 0.50033 0.0
N923 N 0.00066 0.67565 0.50731 0.0
C924 C 0.12519 0.66601 0.45571 0.0
C925 C 0.10814 0.66897 0.42302 0.0
C926 C 0.12646 0.65705 0.45185 0.0
N927 N 0.11534 0.67172 0.44152 0.0
C928 C 0.10973 0.66003 0.4184 0.0
C929 C 0.11805 0.65397 0.43312 0.0
H930 H 0.13047 0.66841 0.47031 0.0
H931 H 0.09993 0.67366 0.4121 0.0
C932 C 0.0294 0.70924 0.42901 0.0
N933 N 0.02877 0.70097 0.43649 0.0
C934 C -0.00038 0.7129 0.42101 0.0
C935 C 0.96954 0.69942 0.42862 0.0
C936 C -0.00019 0.69603 0.43631 0.0
C937 C 0.96914 0.70797 0.42092 0.0
H938 H 0.05293 0.71301 0.42946 0.0
H939 H 0.00025 0.68944 0.44219 0.0
O940 O 0.13966 0.68746 0.47025 0.0
O941 O 0.09111 0.70349 0.46733 0.0
O942 O 0.10729 0.69314 0.4301 0.0
O943 O 0.06139 0.68483 0.46216 0.0
H944 H 0.14447 0.70057 0.49566 0.0
H945 H 0.19295 0.67698 0.47493 0.0
H946 H 0.19186 0.7025 0.51948 0.0
H947 H 0.23957 0.67927 0.49921 0.0
H948 H 0.00857 0.72182 0.49074 0.0
H949 H 0.13191 0.7148 0.48574 0.0
H950 H 0.02657 0.70861 0.47233 0.0
H951 H 0.11196 0.72785 0.50398 0.0
H952 H 0.2406 0.71168 0.47111 0.0
H953 H 0.16032 0.72847 0.44842 0.0
H954 H 0.11948 0.67739 0.54177 0.0
H955 H 0.06194 0.70158 0.54665 0.0
H956 H 0.09981 0.69545 0.39208 0.0
H957 H 0.16997 0.68688 0.43687 0.0
H958 H 0.14441 0.69218 0.36713 0.0
H959 H 0.21317 0.68377 0.41121 0.0
H960 H 0.06528 0.66902 0.47815 0.0
H961 H 0.01142 0.69367 0.47951 0.0
H962 H 0.02875 0.66378 0.50549 0.0
H963 H 0.97574 0.688 0.50678 0.0
H964 H 0.13302 0.65253 0.46351 0.0
H965 H 0.10289 0.65783 0.40384 0.0
H966 H 0.00031 0.7195 0.41517 0.0
H967 H 0.94681 0.69533 0.4284 0.0
Li968 Li 0.15855 0.55186 0.48341 0.0
Li969 Li 0.12611 0.54525 0.45724 0.0
Li970 Li 0.18879 0.54775 0.45401 0.0
Li971 Li 0.14748 0.56024 0.45424 0.0
C972 C 0.17615 0.53327 0.48341 0.0
N973 N 0.20024 0.51953 0.50603 0.0
C974 C 0.15343 0.52693 0.49064 0.0
C975 C 0.21112 0.53258 0.48768 0.0
C976 C 0.16611 0.52005 0.50205 0.0
C977 C 0.2228 0.5256 0.49915 0.0
C978 C 0.08709 0.554 0.48565 0.0
C979 C 0.03297 0.55803 0.50026 0.0
N980 N 0.03359 0.55054 0.51108 0.0
C981 C 0.0872 0.54635 0.49695 0.0
C982 C 0.05978 0.5599 0.48733 0.0
C983 C 0.05993 0.54471 0.5097 0.0
C984 C 0.14668 0.56109 0.51774 0.0
N985 N 0.15883 0.55322 0.51133 0.0
C986 C 0.15956 0.54766 0.54401 0.0
C987 C 0.16608 0.54662 0.52407 0.0
C988 C 0.14577 0.55559 0.55088 0.0
C989 C 0.14019 0.56245 0.53758 0.0
H990 H 0.14053 0.56617 0.50727 0.0
H991 H 0.17556 0.54042 0.51884 0.0
C992 C 0.10313 0.52859 0.44912 0.0
N993 N 0.09137 0.53686 0.45213 0.0
C994 C 0.08179 0.52142 0.45267 0.0
C995 C 0.03551 0.5315 0.45988 0.0
C996 C 0.05774 0.53847 0.45604 0.0
C997 C 0.04817 0.52286 0.45938 0.0
H998 H 0.13007 0.52753 0.44607 0.0
H999 H 0.04888 0.54513 0.45799 0.0
C1000 C 0.2078 0.56357 0.48295 0.0
N1001 N 0.23816 0.57249 0.51362 0.0
C1002 C 0.20195 0.57255 0.48541 0.0
C1003 C 0.22942 0.55914 0.49597 0.0
C1004 C 0.21747 0.57694 0.50103 0.0
C1005 C 0.24441 0.56376 0.51142 0.0
C1006 C 0.12844 0.552 0.41957 0.0
C1007 C 0.13834 0.55046 0.40021 0.0
C1008 C 0.09549 0.55518 0.42354 0.0
C1009 C 0.11505 0.55212 0.38511 0.0
C1010 C 0.07297 0.55676 0.40803 0.0
N1011 N 0.08312 0.55521 0.3893 0.0
C1012 C 0.22584 0.53901 0.42504 0.0
C1013 C 0.26049 0.5448 0.45042 0.0
C1014 C 0.25486 0.53612 0.41495 0.0
N1015 N 0.22921 0.54335 0.44228 0.0
C1016 C 0.29015 0.54182 0.44112 0.0
C1017 C 0.28774 0.53757 0.42286 0.0
H1018 H 0.20057 0.538 0.41888 0.0
H1019 H 0.26246 0.54834 0.46407 0.0
C1020 C 0.12026 0.57697 0.45696 0.0
N1021 N 0.1379 0.57162 0.44468 0.0
C1022 C 0.1139 0.58566 0.45176 0.0
C1023 C 0.14336 0.58313 0.42111 0.0
C1024 C 0.14929 0.57446 0.42697 0.0
C1025 C 0.12569 0.58888 0.43368 0.0
H1026 H 0.1121 0.57455 0.47109 0.0
H1027 H 0.16341 0.57004 0.41756 0.0
O1028 O 0.16424 0.54001 0.472 0.0
O1029 O 0.11353 0.55576 0.47303 0.0
O1030 O 0.19237 0.55914 0.46791 0.0
O1031 O 0.15115 0.55047 0.43446 0.0
H1032 H 0.12625 0.52731 0.4876 0.0
H1033 H 0.22906 0.5374 0.48236 0.0
H1034 H 0.14878 0.51512 0.50775 0.0
H1035 H 0.24981 0.52502 0.50259 0.0
H1036 H 0.01164 0.56253 0.50168 0.0
H1037 H 0.10808 0.54174 0.49587 0.0
H1038 H 0.05921 0.56584 0.47865 0.0
H1039 H 0.05971 0.53881 0.51849 0.0
H1040 H 0.16447 0.54225 0.5539 0.0
H1041 H 0.12925 0.56863 0.5423 0.0
H1042 H 0.09265 0.51488 0.45214 0.0
H1043 H 0.00952 0.53286 0.46461 0.0
H1044 H 0.18558 0.5761 0.47539 0.0
H1045 H 0.23403 0.55219 0.49442 0.0
H1046 H 0.21304 0.58388 0.50314 0.0
H1047 H 0.26091 0.5604 0.52171 0.0
H1048 H 0.1638 0.54804 0.39688 0.0
H1049 H 0.08737 0.55646 0.43838 0.0
H1050 H 0.12238 0.55097 0.37006 0.0
H1051 H 0.04741 0.55923 0.41089 0.0
H1052 H 0.25141 0.53307 0.40078 0.0
H1053 H 0.31467 0.54295 0.44811 0.0
H1054 H 0.10091 0.58988 0.46215 0.0
H1055 H 0.15271 0.5853 0.407 0.0
Li1056 Li 0.91058 0.43959 0.23452 0.0
Li1057 Li 0.89116 0.43227 0.20379 0.0
Li1058 Li 0.93358 0.44467 0.20382 0.0
Li1059 Li 0.87464 0.44726 0.21137 0.0
C1060 C 0.95649 0.42761 0.22826 0.0
N1061 N 0.99136 0.41737 0.25506 0.0
C1062 C 0.94607 0.41898 0.23177 0.0
C1063 C 0.98465 0.43104 0.23838 0.0
C1064 C 0.96406 0.4139 0.24536 0.0
C1065 C 0.00192 0.42575 0.25188 0.0
C1066 C 0.83127 0.43793 0.23303 0.0
C1067 C 0.77059 0.4398 0.22729 0.0
N1068 N 0.76609 0.44182 0.24651 0.0
C1069 C 0.82599 0.43999 0.25275 0.0
C1070 C 0.80331 0.4378 0.22021 0.0
C1071 C 0.79287 0.44194 0.25927 0.0
C1072 C 0.92568 0.44556 0.2721 0.0
N1073 N 0.91739 0.43823 0.26183 0.0
C1074 C 0.90737 0.43028 0.29142 0.0
C1075 C 0.9088 0.43063 0.271 0.0
C1076 C 0.91449 0.43787 0.30239 0.0
C1077 C 0.92456 0.44552 0.29246 0.0
H1078 H 0.9312 0.45161 0.2645 0.0
H1079 H 0.90123 0.42498 0.26246 0.0
C1080 C 0.90566 0.4166 0.18386 0.0
N1081 N 0.8804 0.42115 0.19309 0.0
C1082 C 0.90087 0.40777 0.17912 0.0
C1083 C 0.84323 0.40872 0.19209 0.0
C1084 C 0.84937 0.41747 0.19689 0.0
C1085 C 0.86964 0.40363 0.18381 0.0
H1086 H 0.93027 0.41968 0.1813 0.0
H1087 H 0.82987 0.42122 0.2044 0.0
C1088 C 0.93467 0.45908 0.22494 0.0
N1089 N 0.97511 0.47397 0.22339 0.0
C1090 C 0.922 0.46677 0.21644 0.0
C1091 C 0.96787 0.45898 0.23272 0.0
C1092 C 0.94284 0.47423 0.2158 0.0
C1093 C 0.98793 0.46656 0.23175 0.0
C1094 C 0.8713 0.44469 0.17124 0.0
C1095 C 0.87704 0.45207 0.15951 0.0
C1096 C 0.84338 0.43922 0.16727 0.0
C1097 C 0.85445 0.4539 0.14416 0.0
C1098 C 0.82134 0.44128 0.15182 0.0
N1099 N 0.82727 0.44852 0.14068 0.0
C1100 C 0.00302 0.44486 0.19221 0.0
C1101 C 0.97002 0.45691 0.18091 0.0
C1102 C 0.03206 0.44809 0.18271 0.0
N1103 N 0.97282 0.44928 0.19109 0.0
C1104 C -0.00164 0.46037 0.17114 0.0
C1105 C 0.02982 0.45591 0.17185 0.0
H1106 H 0.00442 0.43875 0.20021 0.0
H1107 H 0.94576 0.46031 0.18038 0.0
C1108 C 0.83939 0.45942 0.231 0.0
N1109 N 0.84013 0.45605 0.21261 0.0
C1110 C 0.81863 0.46653 0.23542 0.0
C1111 C 0.79902 0.46664 0.20184 0.0
C1112 C 0.82003 0.45937 0.19811 0.0
C1113 C 0.79857 0.47034 0.22069 0.0
H1114 H 0.85593 0.45671 0.24218 0.0
H1115 H 0.82075 0.45657 0.18362 0.0
O1116 O 0.93895 0.43274 0.2152 0.0
O1117 O 0.86366 0.43615 0.22629 0.0
O1118 O 0.91479 0.45167 0.22558 0.0
O1119 O 0.89349 0.44271 0.18613 0.0
H1120 H 0.92409 0.41624 0.22429 0.0
H1121 H 0.99294 0.43772 0.23595 0.0
H1122 H 0.95621 0.40721 0.24826 0.0
H1123 H 0.02369 0.42833 0.25986 0.0
H1124 H 0.74879 0.43978 0.21749 0.0
H1125 H 0.84723 0.44019 0.2629 0.0
H1126 H 0.80684 0.43629 0.2049 0.0
H1127 H 0.78848 0.44359 0.27446 0.0
H1128 H 0.89966 0.42424 0.29849 0.0
H1129 H 0.92956 0.45158 0.30025 0.0
H1130 H 0.92214 0.40411 0.173 0.0
H1131 H 0.81849 0.40589 0.19559 0.0
H1132 H 0.89656 0.46697 0.21015 0.0
H1133 H 0.97813 0.45308 0.2393 0.0
H1134 H 0.93342 0.48021 0.20919 0.0
H1135 H 0.01371 0.46656 0.23762 0.0
H1136 H 0.89858 0.45635 0.16221 0.0
H1137 H 0.83877 0.43342 0.17596 0.0
H1138 H 0.85852 0.45961 0.13502 0.0
H1139 H 0.79956 0.43711 0.14864 0.0
H1140 H 0.0557 0.44436 0.18332 0.0
H1141 H 0.99564 0.46644 0.16303 0.0
H1142 H 0.81953 0.46927 0.25004 0.0
H1143 H 0.78373 0.4694 0.19013 0.0
Li1144 Li 0.86491 0.30864 0.2058 0.0
Li1145 Li 0.85302 0.30033 0.23588 0.0
Li1146 Li 0.88047 0.29332 0.20662 0.0
Li1147 Li 0.82015 0.29679 0.20588 0.0
C1148 C 0.92556 0.30828 0.22571 0.0
N1149 N 0.98097 0.31945 0.22988 0.0
C1150 C 0.93126 0.31259 0.24348 0.0
C1151 C 0.94835 0.30955 0.21017 0.0
C1152 C 0.95933 0.31824 0.24527 0.0
C1153 C 0.97612 0.31526 0.21253 0.0
C1154 C 0.79547 0.31165 0.23177 0.0
C1155 C 0.74192 0.31034 0.24931 0.0
N1156 N 0.74292 0.31907 0.25338 0.0
C1157 C 0.79567 0.32064 0.2359 0.0
C1158 C 0.76815 0.30648 0.23834 0.0
C1159 C 0.769 0.32425 0.24694 0.0
C1160 C 0.87128 0.32302 0.17897 0.0
N1161 N 0.87449 0.32027 0.19783 0.0
C1162 C 0.88178 0.33498 0.20895 0.0
C1163 C 0.88025 0.32602 0.21264 0.0
C1164 C 0.8768 0.33809 0.18983 0.0
C1165 C 0.87258 0.33199 0.17458 0.0
H1166 H 0.86601 0.31831 0.16753 0.0
H1167 H 0.88168 0.32367 0.22754 0.0
C1168 C 0.86701 0.2941 0.27363 0.0
N1169 N 0.85495 0.30114 0.26355 0.0
C1170 C 0.87348 0.29476 0.29367 0.0
C1171 C 0.85459 0.30987 0.29257 0.0
C1172 C 0.84852 0.30892 0.27257 0.0
C1173 C 0.86778 0.30277 0.30333 0.0
H1174 H 0.87257 0.28806 0.26597 0.0
H1175 H 0.84037 0.31452 0.2641 0.0
C1176 C 0.86935 0.29625 0.16883 0.0
N1177 N 0.8982 0.28933 0.13526 0.0
C1178 C 0.85345 0.28927 0.15917 0.0
C1179 C 0.89959 0.29982 0.16123 0.0
C1180 C 0.86853 0.28583 0.14227 0.0
C1181 C 0.91387 0.2962 0.1443 0.0
C1182 C 0.82244 0.28234 0.23161 0.0
C1183 C 0.82291 0.27381 0.22404 0.0
C1184 C 0.80092 0.28428 0.2474 0.0
C1185 C 0.80115 0.26746 0.232 0.0
C1186 C 0.77955 0.27775 0.25498 0.0
N1187 N 0.78006 0.26954 0.24717 0.0
C1188 C 0.94352 0.28483 0.20961 0.0
C1189 C 0.90089 0.27688 0.19232 0.0
C1190 C 0.96303 0.27724 0.21201 0.0
N1191 N 0.91246 0.28442 0.20065 0.0
C1192 C 0.91946 0.26912 0.19449 0.0
C1193 C 0.95001 0.26918 0.20538 0.0
H1194 H 0.95163 0.29083 0.21662 0.0
H1195 H 0.87572 0.2767 0.18571 0.0
C1196 C 0.75412 0.30015 0.19213 0.0
N1197 N 0.77699 0.29357 0.19531 0.0
C1198 C 0.72269 0.29838 0.18328 0.0
C1199 C 0.7392 0.28314 0.18055 0.0
C1200 C 0.77026 0.28518 0.18969 0.0
C1201 C 0.71503 0.2898 0.17723 0.0
H1202 H 0.76064 0.30681 0.19606 0.0
H1203 H 0.78939 0.28014 0.19171 0.0
O1204 O 0.89809 0.30276 0.22365 0.0
O1205 O 0.82138 0.30801 0.22089 0.0
O1206 O 0.85504 0.29968 0.18543 0.0
O1207 O 0.8439 0.28862 0.22409 0.0
H1208 H 0.91415 0.31162 0.25573 0.0
H1209 H 0.94473 0.30614 0.19647 0.0
H1210 H 0.96392 0.32165 0.2589 0.0
H1211 H 0.99388 0.31633 0.20059 0.0
H1212 H 0.72067 0.3064 0.25448 0.0
H1213 H 0.81625 0.32478 0.23072 0.0
H1214 H 0.76679 0.2996 0.23471 0.0
H1215 H 0.76901 0.33119 0.25035 0.0
H1216 H 0.88547 0.33945 0.22108 0.0
H1217 H 0.86841 0.33415 0.15967 0.0
H1218 H 0.88338 0.2891 0.30144 0.0
H1219 H 0.85049 0.31621 0.29933 0.0
H1220 H 0.82987 0.28648 0.16474 0.0
H1221 H 0.91176 0.30536 0.16825 0.0
H1222 H 0.85664 0.28038 0.13474 0.0
H1223 H 0.93735 0.29888 0.13831 0.0
H1224 H 0.83966 0.27211 0.21204 0.0
H1225 H 0.8009 0.29074 0.25392 0.0
H1226 H 0.80108 0.26086 0.22615 0.0
H1227 H 0.76268 0.2792 0.26714 0.0
H1228 H 0.98624 0.27757 0.2207 0.0
H1229 H 0.90872 0.26303 0.18905 0.0
H1230 H 0.70511 0.30375 0.18052 0.0
H1231 H 0.73432 0.27645 0.17593 0.0
Li1232 Li 0.93682 0.30041 0.54336 0.0
Li1233 Li 0.87851 0.29814 0.53139 0.0
Li1234 Li 0.92044 0.30607 0.51193 0.0
Li1235 Li 0.89665 0.31247 0.54181 0.0
C1236 C 0.93978 0.28618 0.52261 0.0
N1237 N 0.97696 0.27105 0.52951 0.0
C1238 C 0.92466 0.27913 0.53245 0.0
C1239 C 0.9738 0.28554 0.51626 0.0
C1240 C 0.94388 0.27153 0.53578 0.0
C1241 C 0.99218 0.27784 0.51991 0.0
C1242 C 0.88399 0.30524 0.57525 0.0
C1243 C 0.84119 0.31039 0.59799 0.0
N1244 N 0.86652 0.31349 0.60982 0.0
C1245 C 0.90962 0.30843 0.58765 0.0
C1246 C 0.8495 0.30619 0.58044 0.0
C1247 C 0.90025 0.31259 0.60507 0.0
C1248 C 0.005 0.2973 0.55656 0.0
N1249 N 0.97145 0.29509 0.55879 0.0
C1250 C 0.9852 0.28532 0.58498 0.0
C1251 C 0.96121 0.28918 0.5725 0.0
C1252 C 0.02 0.28756 0.58319 0.0
C1253 C 0.02989 0.29354 0.56859 0.0
H1254 H 0.01236 0.30209 0.54573 0.0
H1255 H 0.93428 0.28757 0.57392 0.0
C1256 C 0.84111 0.28707 0.50868 0.0
N1257 N 0.84391 0.28963 0.52764 0.0
C1258 C 0.81951 0.2802 0.50356 0.0
C1259 C 0.80447 0.27853 0.53773 0.0
C1260 C 0.826 0.28561 0.54217 0.0
C1261 C 0.80134 0.27574 0.5182 0.0
H1262 H 0.85667 0.29021 0.49758 0.0
H1263 H 0.82946 0.28767 0.55719 0.0
C1264 C 0.96628 0.31726 0.52136 0.0
N1265 N 0.00656 0.32709 0.49626 0.0
C1266 C 0.95871 0.3261 0.51802 0.0
C1267 C 0.99424 0.31341 0.51182 0.0
C1268 C 0.97944 0.33096 0.50533 0.0
C1269 C 0.0143 0.31848 0.4992 0.0
C1270 C 0.84064 0.3086 0.50942 0.0
C1271 C 0.83686 0.30801 0.4891 0.0
C1272 C 0.81168 0.30795 0.52142 0.0
C1273 C 0.80418 0.30677 0.48116 0.0
C1274 C 0.77945 0.30669 0.51292 0.0
N1275 N 0.77639 0.30613 0.49313 0.0
C1276 C 0.94125 0.30083 0.47451 0.0
C1277 C 0.92415 0.31574 0.47661 0.0
C1278 C 0.94178 0.30128 0.45414 0.0
N1279 N 0.93171 0.30793 0.48523 0.0
C1280 C 0.92429 0.31648 0.45625 0.0
C1281 C 0.93201 0.30909 0.44474 0.0
H1282 H 0.94614 0.29465 0.48169 0.0
H1283 H 0.91563 0.3212 0.48547 0.0
C1284 C 0.90944 0.32814 0.56216 0.0
N1285 N 0.88397 0.32321 0.55418 0.0
C1286 C 0.90269 0.33664 0.56874 0.0
C1287 C 0.84294 0.33449 0.56057 0.0
C1288 C 0.85101 0.32611 0.55378 0.0
C1289 C 0.86921 0.34005 0.56741 0.0
H1290 H 0.93541 0.32564 0.56245 0.0
H1291 H 0.83113 0.32204 0.5476 0.0
O1292 O 0.92171 0.29378 0.5197 0.0
O1293 O 0.89262 0.30138 0.55788 0.0
O1294 O 0.94608 0.31235 0.53357 0.0
O1295 O 0.87252 0.3097 0.5175 0.0
H1296 H 0.89853 0.27953 0.53769 0.0
H1297 H 0.98603 0.29096 0.50879 0.0
H1298 H 0.93254 0.26603 0.54343 0.0
H1299 H 0.01858 0.27726 0.51516 0.0
H1300 H 0.8146 0.31122 0.60217 0.0
H1301 H 0.93643 0.30781 0.58374 0.0
H1302 H 0.82937 0.30376 0.57098 0.0
H1303 H 0.9198 0.31515 0.61477 0.0
H1304 H 0.97661 0.28072 0.59602 0.0
H1305 H 0.0564 0.29555 0.56699 0.0
H1306 H 0.81839 0.2781 0.48842 0.0
H1307 H 0.79097 0.27517 0.5494 0.0
H1308 H 0.93679 0.32917 0.52489 0.0
H1309 H 6e-05 0.30653 0.51384 0.0
H1310 H 0.97382 0.33781 0.50259 0.0
H1311 H 0.03591 0.31557 0.49167 0.0
H1312 H 0.8589 0.30841 0.47955 0.0
H1313 H 0.81414 0.30818 0.53717 0.0
H1314 H 0.80094 0.30627 0.46547 0.0
H1315 H 0.75688 0.30611 0.52206 0.0
H1316 H 0.94736 0.29539 0.44587 0.0
H1317 H 0.91682 0.32264 0.44958 0.0
H1318 H 0.92394 0.34064 0.57371 0.0
H1319 H 0.81658 0.33671 0.55976 0.0
Li1320 Li 0.88281 0.44926 0.54209 0.0
Li1321 Li 0.8199 0.44652 0.54337 0.0
Li1322 Li 0.86343 0.43439 0.5423 0.0
Li1323 Li 0.85406 0.44332 0.5141 0.0
C1324 C 0.87008 0.44752 0.57889 0.0
N1325 N 0.89962 0.45641 0.60983 0.0
C1326 C 0.854 0.45493 0.58671 0.0
C1327 C 0.90102 0.44459 0.5869 0.0
C1328 C 0.86938 0.45935 0.60233 0.0
C1329 C 0.91559 0.44918 0.60252 0.0
C1330 C 0.8393 0.46016 0.51161 0.0
C1331 C 0.80074 0.46684 0.4884 0.0
N1332 N 0.82796 0.47072 0.47942 0.0
C1333 C 0.86691 0.46423 0.5022 0.0
C1334 C 0.80594 0.46148 0.50472 0.0
C1335 C 0.86064 0.46954 0.48593 0.0
C1336 C 0.9481 0.45688 0.54035 0.0
N1337 N 0.91572 0.45803 0.54724 0.0
C1338 C 0.92194 0.4736 0.54616 0.0
C1339 C 0.90298 0.46615 0.55109 0.0
C1340 C 0.95404 0.47261 0.53704 0.0
C1341 C 0.96801 0.46414 0.53531 0.0
H1342 H 0.95709 0.45037 0.53673 0.0
H1343 H 0.87658 0.46687 0.55571 0.0
C1344 C 0.75737 0.44336 0.56088 0.0
N1345 N 0.77764 0.44998 0.55431 0.0
C1346 C 0.72556 0.44521 0.56918 0.0
C1347 C 0.73662 0.4607 0.5645 0.0
C1348 C 0.76813 0.45854 0.55595 0.0
C1349 C 0.71487 0.45397 0.57105 0.0
H1350 H 0.76593 0.43664 0.55953 0.0
H1351 H 0.78509 0.46365 0.55075 0.0
C1352 C 0.92203 0.43307 0.52405 0.0
N1353 N 0.96894 0.41949 0.52219 0.0
C1354 C 0.92282 0.42753 0.50775 0.0
C1355 C 0.94521 0.43172 0.53937 0.0
C1356 C 0.9467 0.4207 0.50709 0.0
C1357 C 0.96868 0.42481 0.53817 0.0
C1358 C 0.79766 0.43324 0.51247 0.0
C1359 C 0.80702 0.4267 0.49913 0.0
C1360 C 0.76551 0.43726 0.51075 0.0
C1361 C 0.78402 0.42426 0.48442 0.0
C1362 C 0.7432 0.43461 0.49588 0.0
N1363 N 0.75284 0.42822 0.48313 0.0
C1364 C 0.87091 0.42049 0.57042 0.0
C1365 C 0.8693 0.41634 0.53702 0.0
C1366 C 0.87037 0.41166 0.5762 0.0
N1367 N 0.86986 0.42262 0.55108 0.0
C1368 C 0.86864 0.40751 0.54207 0.0
C1369 C 0.86823 0.40507 0.56186 0.0
H1370 H 0.87078 0.42562 0.58135 0.0
H1371 H 0.86831 0.41817 0.52183 0.0
C1372 C 0.88858 0.44455 0.47886 0.0
N1373 N 0.85613 0.44406 0.48609 0.0
C1374 C 0.8943 0.4447 0.45876 0.0
C1375 C 0.83293 0.44448 0.4537 0.0
C1376 C 0.82842 0.44436 0.474 0.0
C1377 C 0.86629 0.4445 0.44587 0.0
H1378 H 0.91021 0.44471 0.48874 0.0
H1379 H 0.80282 0.4445 0.47999 0.0
O1380 O 0.85578 0.44321 0.56336 0.0
O1381 O 0.84495 0.45482 0.52733 0.0
O1382 O 0.89872 0.43979 0.52502 0.0
O1383 O 0.81961 0.43562 0.52722 0.0
H1384 H 0.83007 0.45729 0.58066 0.0
H1385 H 0.91362 0.43882 0.58113 0.0
H1386 H 0.85732 0.46512 0.60846 0.0
H1387 H 0.93959 0.447 0.60882 0.0
H1388 H 0.77507 0.46789 0.48284 0.0
H1389 H 0.89293 0.46322 0.50728 0.0
H1390 H 0.78434 0.45833 0.51179 0.0
H1391 H 0.88176 0.47271 0.47845 0.0
H1392 H 0.90997 0.47998 0.54754 0.0
H1393 H 0.99286 0.4631 0.52857 0.0
H1394 H 0.70972 0.43986 0.57438 0.0
H1395 H 0.72918 0.46753 0.56582 0.0
H1396 H 0.90476 0.42837 0.49588 0.0
H1397 H 0.94504 0.43595 0.55206 0.0
H1398 H 0.94744 0.41633 0.49462 0.0
H1399 H 0.9867 0.42368 0.54995 0.0
H1400 H 0.83198 0.42366 0.4998 0.0
H1401 H 0.75788 0.44244 0.5206 0.0
H1402 H 0.79105 0.41923 0.47397 0.0
H1403 H 0.71829 0.43768 0.49441 0.0
H1404 H 0.87001 0.41002 0.59162 0.0
H1405 H 0.86762 0.40262 0.53057 0.0
H1406 H 0.92047 0.44473 0.45341 0.0
H1407 H 0.8106 0.44457 0.44427 0.0
Li1408 Li 0.60607 0.0589 0.79394 0.0
Li1409 Li 0.56916 0.0462 0.79808 0.0
Li1410 Li 0.62998 0.04445 0.79173 0.0
Li1411 Li 0.59115 0.04957 0.76614 0.0
C1412 C 0.62774 0.0465 0.82939 0.0
N1413 N 0.66825 0.03894 0.85797 0.0
C1414 C 0.61483 0.03967 0.84089 0.0
C1415 C 0.66119 0.04951 0.83247 0.0
C1416 C 0.63573 0.03593 0.85527 0.0
C1417 C 0.68129 0.04559 0.84697 0.0
C1418 C 0.52764 0.05876 0.78754 0.0
C1419 C 0.46654 0.05652 0.78488 0.0
N1420 N 0.46156 0.06204 0.80026 0.0
C1421 C 0.52194 0.06444 0.80326 0.0
C1422 C 0.49976 0.05479 0.7782 0.0
C1423 C 0.48833 0.06601 0.80949 0.0
C1424 C 0.59947 0.07652 0.78696 0.0
N1425 N 0.61332 0.07088 0.80015 0.0
C1426 C 0.63723 0.0828 0.81835 0.0
C1427 C 0.63162 0.0738 0.8158 0.0
C1428 C 0.62406 0.08875 0.80454 0.0
C1429 C 0.60463 0.08551 0.78884 0.0
H1430 H 0.58489 0.074 0.77473 0.0
H1431 H 0.64225 0.06915 0.8261 0.0
C1432 C 0.51379 0.03456 0.80667 0.0
N1433 N 0.53197 0.04168 0.81271 0.0
C1434 C 0.48708 0.03128 0.81819 0.0
C1435 C 0.49899 0.04263 0.84201 0.0
C1436 C 0.52517 0.04572 0.82999 0.0
C1437 C 0.47961 0.03532 0.83616 0.0
H1438 H 0.52014 0.03138 0.79304 0.0
H1439 H 0.54031 0.05132 0.83444 0.0
C1440 C 0.6555 0.06129 0.76834 0.0
N1441 N 0.69147 0.07636 0.75906 0.0
C1442 C 0.64533 0.06646 0.75246 0.0
C1443 C 0.68412 0.06374 0.7794 0.0
C1444 C 0.66384 0.07406 0.74803 0.0
C1445 C 0.70191 0.07139 0.7745 0.0
C1446 C 0.5848 0.03244 0.76465 0.0
C1447 C 0.61104 0.02703 0.75761 0.0
C1448 C 0.55261 0.03226 0.75561 0.0
C1449 C 0.60463 0.02152 0.74169 0.0
C1450 C 0.54723 0.02667 0.73969 0.0
N1451 N 0.57313 0.02146 0.73313 0.0
C1452 C 0.66124 0.0288 0.80278 0.0
C1453 C 0.69436 0.03799 0.78205 0.0
C1454 C 0.68073 0.02151 0.79739 0.0
N1455 N 0.66737 0.03671 0.79431 0.0
C1456 C 0.71438 0.03088 0.77618 0.0
C1457 C 0.70609 0.02242 0.7829 0.0
H1458 H 0.63871 0.02789 0.81179 0.0
H1459 H 0.6978 0.04428 0.77501 0.0
C1460 C 0.56011 0.05334 0.72881 0.0
N1461 N 0.58623 0.04939 0.73864 0.0
C1462 C 0.56044 0.05357 0.70833 0.0
C1463 C 0.61398 0.04552 0.70877 0.0
C1464 C 0.61287 0.04556 0.7291 0.0
C1465 C 0.58776 0.04964 0.69812 0.0
H1466 H 0.5396 0.05648 0.73684 0.0
H1467 H 0.63372 0.0427 0.73738 0.0
O1468 O 0.60777 0.05022 0.81519 0.0
O1469 O 0.56038 0.05697 0.78154 0.0
O1470 O 0.63714 0.05397 0.77329 0.0
O1471 O 0.59067 0.03797 0.7801 0.0
H1472 H 0.5891 0.03721 0.83863 0.0
H1473 H 0.6716 0.05477 0.82366 0.0
H1474 H 0.62613 0.03062 0.86423 0.0
H1475 H 0.70727 0.04784 0.84946 0.0
H1476 H 0.44473 0.05346 0.77786 0.0
H1477 H 0.54325 0.06752 0.81074 0.0
H1478 H 0.50374 0.05039 0.76599 0.0
H1479 H 0.48353 0.07036 0.8217 0.0
H1480 H 0.65236 0.08507 0.83065 0.0
H1481 H 0.59351 0.08988 0.77807 0.0
H1482 H 0.47276 0.02561 0.81325 0.0
H1483 H 0.49365 0.04601 0.85562 0.0
H1484 H 0.62311 0.06471 0.74383 0.0
H1485 H 0.69231 0.05981 0.79172 0.0
H1486 H 0.65612 0.07816 0.73587 0.0
H1487 H 0.72397 0.0734 0.78301 0.0
H1488 H 0.63623 0.02714 0.76417 0.0
H1489 H 0.53213 0.03648 0.76064 0.0
H1490 H 0.62476 0.01732 0.73611 0.0
H1491 H 0.52249 0.0265 0.73251 0.0
H1492 H 0.67379 0.01511 0.80303 0.0
H1493 H 0.73347 0.03186 0.76487 0.0
H1494 H 0.53982 0.05683 0.70057 0.0
H1495 H 0.63584 0.04258 0.70147 0.0
Li1496 Li 0.67942 0.1964 0.7935 0.0
Li1497 Li 0.63874 0.18389 0.7923 0.0
Li1498 Li 0.64962 0.19255 0.7638 0.0
Li1499 Li 0.61712 0.19875 0.79038 0.0
C1500 C 0.6996 0.18115 0.76363 0.0
N1501 N 0.73154 0.17293 0.73253 0.0
C1502 C 0.68884 0.17283 0.75762 0.0
C1503 C 0.72684 0.18525 0.75396 0.0
C1504 C 0.70525 0.16879 0.74183 0.0
C1505 C 0.74259 0.181 0.73822 0.0
C1506 C 0.61917 0.19158 0.82755 0.0
C1507 C 0.56414 0.18623 0.83852 0.0
N1508 N 0.57317 0.18804 0.85732 0.0
C1509 C 0.6279 0.19339 0.84697 0.0
C1510 C 0.58703 0.18797 0.82326 0.0
C1511 C 0.60429 0.19155 0.86181 0.0
C1512 C 0.72013 0.20881 0.81338 0.0
N1513 N 0.71993 0.20074 0.80492 0.0
C1514 C 0.7787 0.1985 0.81312 0.0
C1515 C 0.74834 0.19559 0.80453 0.0
C1516 C 0.77977 0.20677 0.82222 0.0
C1517 C 0.75001 0.21198 0.82221 0.0
H1518 H 0.69701 0.21275 0.81335 0.0
H1519 H 0.74724 0.18918 0.79777 0.0
C1520 C 0.60958 0.1673 0.78991 0.0
N1521 N 0.63141 0.17226 0.80074 0.0
C1522 C 0.60785 0.15827 0.79282 0.0
C1523 C 0.64976 0.15966 0.81875 0.0
C1524 C 0.6508 0.1687 0.81526 0.0
C1525 C 0.6289 0.15431 0.80698 0.0
H1526 H 0.59499 0.1703 0.77824 0.0
H1527 H 0.66832 0.17282 0.82342 0.0
C1528 C 0.66986 0.21084 0.76504 0.0
N1529 N 0.69978 0.22426 0.74377 0.0
C1530 C 0.6496 0.21756 0.75721 0.0
C1531 C 0.70539 0.211 0.76214 0.0
C1532 C 0.66519 0.22427 0.74647 0.0
C1533 C 0.72001 0.21782 0.75132 0.0
C1534 C 0.57838 0.19092 0.7613 0.0
C1535 C 0.58035 0.19877 0.75077 0.0
C1536 C 0.54958 0.18553 0.75912 0.0
C1537 C 0.5535 0.20112 0.73829 0.0
C1538 C 0.52325 0.1881 0.74648 0.0
N1539 N 0.52573 0.19578 0.73642 0.0
C1540 C 0.63469 0.1843 0.72868 0.0
C1541 C 0.66363 0.19779 0.72361 0.0
C1542 C 0.62859 0.18344 0.70868 0.0
N1543 N 0.65109 0.19151 0.73581 0.0
C1544 C 0.65806 0.19719 0.70346 0.0
C1545 C 0.63949 0.19006 0.69584 0.0
H1546 H 0.62483 0.17942 0.7387 0.0
H1547 H 0.67684 0.20342 0.7294 0.0
C1548 C 0.59402 0.21538 0.79794 0.0
N1549 N 0.5823 0.20705 0.79579 0.0
C1550 C 0.57242 0.22245 0.79407 0.0
C1551 C 0.52611 0.21221 0.78819 0.0
C1552 C 0.54858 0.20533 0.79242 0.0
C1553 C 0.53864 0.22086 0.78784 0.0
H1554 H 0.62104 0.21652 0.80055 0.0
H1555 H 0.53987 0.19863 0.79102 0.0
O1556 O 0.68338 0.18529 0.77881 0.0
O1557 O 0.64214 0.19333 0.81292 0.0
O1558 O 0.65502 0.2043 0.77587 0.0
O1559 O 0.60424 0.18849 0.77378 0.0
H1560 H 0.66784 0.16955 0.76494 0.0
H1561 H 0.7357 0.19165 0.75849 0.0
H1562 H 0.69705 0.16237 0.73695 0.0
H1563 H 0.76359 0.18412 0.73054 0.0
H1564 H 0.53921 0.18343 0.83542 0.0
H1565 H 0.65269 0.19618 0.85051 0.0
H1566 H 0.57976 0.1865 0.80836 0.0
H1567 H 0.61071 0.19292 0.87691 0.0
H1568 H 0.8008 0.19418 0.81314 0.0
H1569 H 0.7498 0.21841 0.82897 0.0
H1570 H 0.59119 0.15437 0.78357 0.0
H1571 H 0.66654 0.15684 0.82971 0.0
H1572 H 0.62209 0.21762 0.75936 0.0
H1573 H 0.72155 0.2059 0.76806 0.0
H1574 H 0.64979 0.22949 0.74031 0.0
H1575 H 0.74745 0.218 0.74893 0.0
H1576 H 0.60232 0.20302 0.75222 0.0
H1577 H 0.54746 0.17945 0.76722 0.0
H1578 H 0.55473 0.20719 0.73012 0.0
H1579 H 0.5008 0.184 0.74469 0.0
H1580 H 0.61393 0.17787 0.70349 0.0
H1581 H 0.66747 0.20237 0.69402 0.0
H1582 H 0.58319 0.22901 0.79391 0.0
H1583 H 0.50004 0.21075 0.78376 0.0
Li1584 Li 0.61823 0.19733 0.46273 0.0
Li1585 Li 0.57661 0.19091 0.48635 0.0
Li1586 Li 0.59161 0.18339 0.4571 0.0
Li1587 Li 0.55706 0.19606 0.45425 0.0
C1588 C 0.63985 0.17906 0.48167 0.0
N1589 N 0.67375 0.16326 0.486 0.0
C1590 C 0.62413 0.17212 0.4916 0.0
C1591 C 0.67294 0.17801 0.47414 0.0
C1592 C 0.64165 0.16417 0.49357 0.0
C1593 C 0.68963 0.16996 0.47644 0.0
C1594 C 0.57741 0.21186 0.4727 0.0
C1595 C 0.57225 0.22658 0.4853 0.0
N1596 N 0.57732 0.22981 0.46696 0.0
C1597 C 0.58235 0.21531 0.45396 0.0
C1598 C 0.57216 0.21753 0.4885 0.0
C1599 C 0.58232 0.22441 0.45137 0.0
C1600 C 0.66382 0.2109 0.44941 0.0
N1601 N 0.65571 0.20515 0.4639 0.0
C1602 C 0.69069 0.21286 0.48675 0.0
C1603 C 0.66936 0.20584 0.4821 0.0
C1604 C 0.69785 0.21926 0.47252 0.0
C1605 C 0.68514 0.21805 0.45343 0.0
H1606 H 0.65197 0.21027 0.43517 0.0
H1607 H 0.66165 0.20127 0.49339 0.0
C1608 C 0.55425 0.18392 0.52357 0.0
N1609 N 0.57024 0.19051 0.5137 0.0
C1610 C 0.55523 0.18373 0.54405 0.0
C1611 C 0.58815 0.19719 0.54354 0.0
C1612 C 0.5868 0.19708 0.52321 0.0
C1613 C 0.57268 0.1904 0.55424 0.0
H1614 H 0.54177 0.1787 0.51556 0.0
H1615 H 0.60015 0.20206 0.5149 0.0
C1616 C 0.61919 0.19045 0.4231 0.0
N1617 N 0.66207 0.18519 0.39302 0.0
C1618 C 0.60543 0.18765 0.40525 0.0
C1619 C 0.65482 0.19056 0.4256 0.0
C1620 C 0.62751 0.18501 0.39025 0.0
C1621 C 0.67605 0.18788 0.41023 0.0
C1622 C 0.51186 0.18592 0.47533 0.0
C1623 C 0.48707 0.17949 0.47163 0.0
C1624 C 0.50288 0.19335 0.48624 0.0
C1625 C 0.45389 0.18056 0.47901 0.0
C1626 C 0.46941 0.19417 0.49336 0.0
N1627 N 0.44582 0.18781 0.48963 0.0
C1628 C 0.572 0.16599 0.45251 0.0
C1629 C 0.62497 0.1689 0.43681 0.0
C1630 C 0.57365 0.1572 0.44706 0.0
N1631 N 0.59733 0.17166 0.44733 0.0
C1632 C 0.62759 0.16015 0.43092 0.0
C1633 C 0.60172 0.15415 0.43611 0.0
H1634 H 0.55084 0.16825 0.46137 0.0
H1635 H 0.64539 0.1734 0.43333 0.0
C1636 C 0.50239 0.20835 0.44574 0.0
N1637 N 0.52065 0.2012 0.43992 0.0
C1638 C 0.47686 0.21182 0.43359 0.0
C1639 C 0.48906 0.20035 0.41012 0.0
C1640 C 0.51404 0.1971 0.42271 0.0
C1641 C 0.47033 0.20786 0.4154 0.0
H1642 H 0.50767 0.21138 0.45973 0.0
H1643 H 0.52816 0.19126 0.41886 0.0
O1644 O 0.62266 0.18679 0.47906 0.0
O1645 O 0.57766 0.20298 0.47566 0.0
O1646 O 0.59791 0.19321 0.43783 0.0
O1647 O 0.54438 0.18493 0.46796 0.0
H1648 H 0.59844 0.17282 0.49742 0.0
H1649 H 0.68553 0.18334 0.46651 0.0
H1650 H 0.62968 0.15871 0.50106 0.0
H1651 H 0.71517 0.16903 0.47058 0.0
H1652 H 0.56826 0.23105 0.4974 0.0
H1653 H 0.5862 0.21102 0.44155 0.0
H1654 H 0.56798 0.21497 0.50308 0.0
H1655 H 0.58625 0.22717 0.43696 0.0
H1656 H 0.69939 0.21358 0.50171 0.0
H1657 H 0.69032 0.22279 0.44199 0.0
H1658 H 0.543 0.17838 0.55181 0.0
H1659 H 0.60252 0.20235 0.55076 0.0
H1660 H 0.57802 0.18751 0.40294 0.0
H1661 H 0.66606 0.19252 0.43933 0.0
H1662 H 0.61716 0.18283 0.37638 0.0
H1663 H 0.70363 0.18791 0.41203 0.0
H1664 H 0.49331 0.17374 0.46305 0.0
H1665 H 0.52133 0.19844 0.48927 0.0
H1666 H 0.43452 0.17562 0.47625 0.0
H1667 H 0.4622 0.19988 0.50183 0.0
H1668 H 0.55358 0.15279 0.45192 0.0
H1669 H 0.64973 0.1581 0.42249 0.0
H1670 H 0.46271 0.21757 0.43825 0.0
H1671 H 0.48408 0.19693 0.39652 0.0
Li1672 Li 0.62714 0.04564 0.46136 0.0
Li1673 Li 0.65606 0.05301 0.48754 0.0
Li1674 Li 0.64199 0.06102 0.45876 0.0
Li1675 Li 0.68804 0.04979 0.45828 0.0
C1676 C 0.58412 0.05258 0.48951 0.0
N1677 N 0.53334 0.04648 0.51429 0.0
C1678 C 0.58897 0.04482 0.50008 0.0
C1679 C 0.55343 0.05724 0.49156 0.0
C1680 C 0.56302 0.04185 0.51252 0.0
C1681 C 0.52807 0.05405 0.50416 0.0
C1682 C 0.685 0.03537 0.48687 0.0
C1683 C 0.73836 0.02988 0.49998 0.0
N1684 N 0.72129 0.02296 0.50792 0.0
C1685 C 0.66804 0.02815 0.49504 0.0
C1686 C 0.72051 0.03621 0.48924 0.0
C1687 C 0.68681 0.02197 0.50569 0.0
C1688 C 0.61288 0.02846 0.45304 0.0
N1689 N 0.59707 0.03631 0.45557 0.0
C1690 C 0.54273 0.02934 0.45936 0.0
C1691 C 0.56246 0.03694 0.45763 0.0
C1692 C 0.55895 0.0211 0.45881 0.0
C1693 C 0.59418 0.0207 0.45458 0.0
H1694 H 0.64049 0.0282 0.45146 0.0
H1695 H 0.55054 0.0433 0.45943 0.0
C1696 C 0.63487 0.06007 0.52331 0.0
N1697 N 0.65693 0.05408 0.51558 0.0
C1698 C 0.62853 0.06025 0.54339 0.0
C1699 C 0.66997 0.0486 0.54748 0.0
C1700 C 0.67536 0.04862 0.5273 0.0
C1701 C 0.64538 0.05426 0.55569 0.0
H1702 H 0.62086 0.06444 0.51373 0.0
H1703 H 0.69344 0.04408 0.52107 0.0
C1704 C 0.62728 0.05234 0.42375 0.0
N1705 N 0.58205 0.05399 0.39284 0.0
C1706 C 0.63812 0.05052 0.40469 0.0
C1707 C 0.59344 0.055 0.42711 0.0
C1708 C 0.61486 0.05139 0.38925 0.0
C1709 C 0.57097 0.0558 0.41128 0.0
C1710 C 0.70036 0.06561 0.48788 0.0
C1711 C 0.68419 0.0732 0.49469 0.0
C1712 C 0.73004 0.06257 0.49715 0.0
C1713 C 0.69782 0.07759 0.51087 0.0
C1714 C 0.74286 0.06714 0.51329 0.0
N1715 N 0.7266 0.07449 0.51977 0.0
C1716 C 0.60559 0.077 0.45709 0.0
C1717 C 0.64926 0.07519 0.43323 0.0
C1718 C 0.59989 0.08561 0.45092 0.0
N1719 N 0.6303 0.07207 0.4484 0.0
C1720 C 0.64448 0.08376 0.42661 0.0
C1721 C 0.62002 0.08915 0.43577 0.0
H1722 H 0.5913 0.07436 0.46931 0.0
H1723 H 0.66886 0.07109 0.42672 0.0
C1724 C 0.73026 0.03864 0.43668 0.0
N1725 N 0.72885 0.04657 0.44572 0.0
C1726 C 0.75759 0.03665 0.42424 0.0
C1727 C 0.78194 0.05091 0.43143 0.0
C1728 C 0.75422 0.05261 0.44375 0.0
C1729 C 0.78324 0.04296 0.42102 0.0
H1730 H 0.70929 0.03405 0.43841 0.0
H1731 H 0.75206 0.05889 0.45101 0.0
O1732 O 0.60909 0.05565 0.47715 0.0
O1733 O 0.66708 0.04139 0.47608 0.0
O1734 O 0.64987 0.05153 0.43896 0.0
O1735 O 0.68691 0.0611 0.47238 0.0
H1736 H 0.6125 0.04115 0.49874 0.0
H1737 H 0.5492 0.06324 0.48346 0.0
H1738 H 0.56647 0.03585 0.52077 0.0
H1739 H 0.50418 0.05758 0.50587 0.0
H1740 H 0.7658 0.03048 0.502 0.0
H1741 H 0.64066 0.02731 0.49317 0.0
H1742 H 0.73413 0.04171 0.483 0.0
H1743 H 0.67398 0.01638 0.51214 0.0
H1744 H 0.51549 0.0299 0.46229 0.0
H1745 H 0.60775 0.0145 0.45417 0.0
H1746 H 0.60932 0.06472 0.54902 0.0
H1747 H 0.68427 0.04404 0.5565 0.0
H1748 H 0.66426 0.04845 0.40187 0.0
H1749 H 0.58457 0.05646 0.44174 0.0
H1750 H 0.6229 0.05 0.37441 0.0
H1751 H 0.54472 0.05786 0.41366 0.0
H1752 H 0.66114 0.07562 0.48769 0.0
H1753 H 0.74295 0.05673 0.49199 0.0
H1754 H 0.68545 0.08344 0.51639 0.0
H1755 H 0.76572 0.06484 0.52067 0.0
H1756 H 0.58114 0.08957 0.45858 0.0
H1757 H 0.66031 0.08621 0.41477 0.0
H1758 H 0.75753 0.03049 0.41634 0.0
H1759 H 0.80147 0.05589 0.42947 0.0
Li1760 Li 0.39615 0.93994 0.23296 0.0
Li1761 Li 0.3917 0.93357 0.20066 0.0
Li1762 Li 0.43378 0.94507 0.20682 0.0
Li1763 Li 0.373 0.94855 0.20556 0.0
C1764 C 0.45517 0.9295 0.23099 0.0
N1765 N 0.50241 0.92207 0.2562 0.0
C1766 C 0.45572 0.92042 0.23385 0.0
C1767 C 0.47896 0.93478 0.24075 0.0
C1768 C 0.47972 0.91679 0.24671 0.0
C1769 C 0.50255 0.93091 0.25349 0.0
C1770 C 0.33614 0.93069 0.22526 0.0
C1771 C 0.28314 0.92339 0.23358 0.0
N1772 N 0.30131 0.91644 0.24057 0.0
C1773 C 0.35424 0.92346 0.23246 0.0
C1774 C 0.30027 0.93064 0.22575 0.0
C1775 C 0.33621 0.91633 0.24016 0.0
C1776 C 0.36877 0.94501 0.26791 0.0
N1777 N 0.38875 0.93856 0.2603 0.0
C1778 C 0.39094 0.93129 0.29128 0.0
C1779 C 0.39991 0.93175 0.27148 0.0
C1780 C 0.37034 0.93791 0.29954 0.0
C1781 C 0.35932 0.94484 0.28756 0.0
H1782 H 0.35983 0.95027 0.25856 0.0
H1783 H 0.41523 0.9266 0.26507 0.0
C1784 C 0.41225 0.91761 0.18494 0.0
N1785 N 0.38438 0.92285 0.18738 0.0
C1786 C 0.40825 0.90897 0.17863 0.0
C1787 C 0.34712 0.91149 0.17609 0.0
C1788 C 0.35231 0.92008 0.18256 0.0
C1789 C 0.37519 0.90572 0.17473 0.0
H1790 H 0.43743 0.92001 0.18891 0.0
H1791 H 0.33057 0.92439 0.18466 0.0
C1792 C 0.42479 0.95846 0.235 0.0
N1793 N 0.46063 0.97145 0.25451 0.0
C1794 C 0.42452 0.96708 0.22801 0.0
C1795 C 0.44274 0.9565 0.25216 0.0
C1796 C 0.44296 0.97354 0.238 0.0
C1797 C 0.46085 0.96314 0.26175 0.0
C1798 C 0.38298 0.94348 0.1671 0.0
C1799 C 0.39896 0.94431 0.14888 0.0
C1800 C 0.34757 0.94203 0.16803 0.0
C1801 C 0.37923 0.94367 0.13187 0.0
C1802 C 0.32875 0.94142 0.15069 0.0
N1803 N 0.34483 0.94224 0.13312 0.0
C1804 C 0.50353 0.94333 0.19732 0.0
C1805 C 0.48164 0.95776 0.19382 0.0
C1806 C 0.53513 0.94593 0.18973 0.0
N1807 N 0.47765 0.94924 0.19928 0.0
C1808 C 0.51284 0.96065 0.18607 0.0
C1809 C 0.53997 0.95466 0.18374 0.0
H1810 H 0.49923 0.93651 0.2009 0.0
H1811 H 0.46019 0.96223 0.19472 0.0
C1812 C 0.31152 0.95714 0.21086 0.0
N1813 N 0.34163 0.95765 0.20095 0.0
C1814 C 0.29173 0.96463 0.21367 0.0
C1815 C 0.33343 0.97292 0.19499 0.0
C1816 C 0.35217 0.9652 0.19226 0.0
C1817 C 0.30362 0.97273 0.20656 0.0
H1818 H 0.30444 0.9511 0.21807 0.0
H1819 H 0.37662 0.9654 0.18476 0.0
O1820 O 0.43179 0.93315 0.21842 0.0
O1821 O 0.35326 0.93772 0.21748 0.0
O1822 O 0.40641 0.95207 0.22552 0.0
O1823 O 0.40214 0.94407 0.18383 0.0
H1824 H 0.43771 0.9162 0.22631 0.0
H1825 H 0.47958 0.94178 0.2383 0.0
H1826 H 0.4803 0.90978 0.24915 0.0
H1827 H 0.52108 0.93493 0.26114 0.0
H1828 H 0.25538 0.92328 0.23406 0.0
H1829 H 0.38189 0.92333 0.23205 0.0
H1830 H 0.28575 0.93613 0.22006 0.0
H1831 H 0.34997 0.9107 0.24579 0.0
H1832 H 0.40013 0.92585 0.30002 0.0
H1833 H 0.34291 0.94999 0.2932 0.0
H1834 H 0.43061 0.90476 0.17806 0.0
H1835 H 0.32125 0.90931 0.17295 0.0
H1836 H 0.41045 0.96877 0.21493 0.0
H1837 H 0.4425 0.94994 0.25818 0.0
H1838 H 0.44316 0.98022 0.23264 0.0
H1839 H 0.47496 0.96169 0.275 0.0
H1840 H 0.42635 0.94544 0.14792 0.0
H1841 H 0.33466 0.94136 0.18195 0.0
H1842 H 0.39127 0.9443 0.11767 0.0
H1843 H 0.30135 0.94029 0.15121 0.0
H1844 H 0.55496 0.94103 0.18766 0.0
H1845 H 0.51543 0.96742 0.18152 0.0
H1846 H 0.26919 0.96423 0.22291 0.0
H1847 H 0.3433 0.97905 0.18927 0.0
Li1848 Li 0.34816 0.80217 0.23255 0.0
Li1849 Li 0.36526 0.81155 0.20627 0.0
Li1850 Li 0.32406 0.79923 0.20018 0.0
Li1851 Li 0.38555 0.7968 0.20713 0.0
C1852 C 0.28959 0.81202 0.22761 0.0
N1853 N 0.23229 0.8165 0.24931 0.0
C1854 C 0.29051 0.81925 0.24018 0.0
C1855 C 0.25943 0.80708 0.22603 0.0
C1856 C 0.26131 0.8214 0.25105 0.0
C1857 C 0.23077 0.80945 0.23713 0.0
C1858 C 0.41631 0.81281 0.23114 0.0
C1859 C 0.46508 0.82204 0.22414 0.0
N1860 N 0.4588 0.82667 0.24078 0.0
C1861 C 0.41041 0.81764 0.24822 0.0
C1862 C 0.44394 0.815 0.21904 0.0
C1863 C 0.43216 0.82463 0.25282 0.0
C1864 C 0.37201 0.79866 0.26949 0.0
N1865 N 0.34242 0.80099 0.26031 0.0
C1866 C 0.31238 0.80111 0.29084 0.0
C1867 C 0.31264 0.80201 0.27048 0.0
C1868 C 0.34281 0.79888 0.30064 0.0
C1869 C 0.37277 0.79752 0.2897 0.0
H1870 H 0.39517 0.79768 0.26105 0.0
H1871 H 0.28905 0.80347 0.26295 0.0
C1872 C 0.37985 0.82549 0.1799 0.0
N1873 N 0.37355 0.82336 0.1989 0.0
C1874 C 0.38077 0.83429 0.17413 0.0
C1875 C 0.3696 0.83848 0.20767 0.0
C1876 C 0.36898 0.82964 0.21276 0.0
C1877 C 0.3747 0.84089 0.18806 0.0
H1878 H 0.38279 0.82035 0.16911 0.0
H1879 H 0.36379 0.82778 0.22769 0.0
C1880 C 0.33729 0.78515 0.23294 0.0
N1881 N 0.32249 0.77414 0.26394 0.0
C1882 C 0.36365 0.78057 0.24236 0.0
C1883 C 0.30341 0.78411 0.23926 0.0
C1884 C 0.35564 0.77504 0.258 0.0
C1885 C 0.29646 0.77852 0.25497 0.0
C1886 C 0.38321 0.79927 0.16957 0.0
C1887 C 0.36901 0.79242 0.15862 0.0
C1888 C 0.41647 0.80217 0.16547 0.0
C1889 C 0.38852 0.78853 0.14383 0.0
C1890 C 0.43516 0.7981 0.15056 0.0
N1891 N 0.42092 0.79142 0.14014 0.0
C1892 C 0.27738 0.80131 0.17047 0.0
C1893 C 0.27346 0.78738 0.18587 0.0
C1894 C 0.2519 0.799 0.15717 0.0
N1895 N 0.28753 0.79552 0.18439 0.0
C1896 C 0.24751 0.78483 0.17297 0.0
C1897 C 0.23671 0.79067 0.15832 0.0
H1898 H 0.28942 0.8077 0.16963 0.0
H1899 H 0.28264 0.78287 0.19688 0.0
C1900 C 0.45047 0.78944 0.21321 0.0
N1901 N 0.42037 0.78847 0.20345 0.0
C1902 C 0.47013 0.78207 0.21775 0.0
C1903 C 0.42881 0.77304 0.20061 0.0
C1904 C 0.41005 0.78058 0.19633 0.0
C1905 C 0.45812 0.77369 0.21248 0.0
H1906 H 0.4574 0.79575 0.21921 0.0
H1907 H 0.38525 0.77999 0.18935 0.0
O1908 O 0.31773 0.8099 0.21658 0.0
O1909 O 0.39524 0.80596 0.22633 0.0
O1910 O 0.34469 0.79076 0.21789 0.0
O1911 O 0.36471 0.80309 0.18428 0.0
H1912 H 0.31356 0.82312 0.24172 0.0
H1913 H 0.25811 0.80147 0.21643 0.0
H1914 H 0.26174 0.82696 0.2609 0.0
H1915 H 0.20732 0.80568 0.23608 0.0
H1916 H 0.48648 0.82383 0.21486 0.0
H1917 H 0.38897 0.81609 0.25768 0.0
H1918 H 0.44893 0.81132 0.20581 0.0
H1919 H 0.42779 0.82845 0.26593 0.0
H1920 H 0.28865 0.80207 0.29883 0.0
H1921 H 0.39677 0.79582 0.29676 0.0
H1922 H 0.3846 0.8359 0.15884 0.0
H1923 H 0.3654 0.84337 0.21891 0.0
H1924 H 0.39007 0.78137 0.23785 0.0
H1925 H 0.28276 0.78767 0.23227 0.0
H1926 H 0.37579 0.77148 0.26547 0.0
H1927 H 0.27038 0.77769 0.26009 0.0
H1928 H 0.34332 0.79009 0.16163 0.0
H1929 H 0.42775 0.80748 0.17374 0.0
H1930 H 0.37792 0.7832 0.1353 0.0
H1931 H 0.46099 0.80025 0.14726 0.0
H1932 H 0.24388 0.80373 0.14624 0.0
H1933 H 0.23643 0.77833 0.17421 0.0
H1934 H 0.49285 0.78285 0.22671 0.0
H1935 H 0.41839 0.76672 0.19646 0.0
Li1936 Li 0.42326 0.79653 0.54414 0.0
Li1937 Li 0.36136 0.79378 0.5436 0.0
Li1938 Li 0.38958 0.79912 0.51367 0.0
Li1939 Li 0.38052 0.80842 0.54196 0.0
C1940 C 0.40069 0.78041 0.51786 0.0
N1941 N 0.40529 0.76489 0.49704 0.0
C1942 C 0.37095 0.77608 0.5117 0.0
C1943 C 0.43278 0.77677 0.5136 0.0
C1944 C 0.3738 0.76827 0.50113 0.0
C1945 C 0.43457 0.76894 0.50302 0.0
C1946 C 0.37406 0.7965 0.58018 0.0
C1947 C 0.3261 0.79471 0.60214 0.0
N1948 N 0.34439 0.78869 0.61251 0.0
C1949 C 0.39246 0.79034 0.59111 0.0
C1950 C 0.3407 0.79875 0.58579 0.0
C1951 C 0.37698 0.78645 0.60739 0.0
C1952 C 0.48926 0.79953 0.55831 0.0
N1953 N 0.46605 0.79309 0.55459 0.0
C1954 C 0.5038 0.78221 0.56766 0.0
C1955 C 0.47257 0.78456 0.55906 0.0
C1956 C 0.52838 0.78873 0.57154 0.0
C1957 C 0.52084 0.79747 0.56666 0.0
H1958 H 0.48297 0.80628 0.55513 0.0
H1959 H 0.45327 0.77961 0.55628 0.0
C1960 C 0.29685 0.78596 0.54256 0.0
N1961 N 0.32848 0.78529 0.55075 0.0
C1962 C 0.27733 0.77842 0.53939 0.0
C1963 C 0.32167 0.76989 0.55528 0.0
C1964 C 0.3404 0.77758 0.55806 0.0
C1965 C 0.29086 0.77019 0.5446 0.0
H1966 H 0.2886 0.79213 0.53633 0.0
H1967 H 0.36617 0.77722 0.56388 0.0
C1968 C 0.4542 0.80783 0.51699 0.0
N1969 N 0.5173 0.80941 0.49887 0.0
C1970 C 0.47188 0.81581 0.51754 0.0
C1971 C 0.46859 0.80067 0.50723 0.0
C1972 C 0.50376 0.81648 0.50829 0.0
C1973 C 0.50052 0.80159 0.49816 0.0
C1974 C 0.32463 0.80985 0.52179 0.0
C1975 C 0.3291 0.81492 0.50493 0.0
C1976 C 0.29953 0.8122 0.53544 0.0
C1977 C 0.30852 0.82232 0.50209 0.0
C1978 C 0.27949 0.81965 0.53207 0.0
N1979 N 0.28438 0.82452 0.51561 0.0
C1980 C 0.3649 0.79276 0.47808 0.0
C1981 C 0.40601 0.80408 0.47415 0.0
C1982 C 0.36032 0.79219 0.45789 0.0
N1983 N 0.38789 0.7985 0.48579 0.0
C1984 C 0.40183 0.80384 0.45385 0.0
C1985 C 0.37877 0.79782 0.44554 0.0
H1986 H 0.3492 0.78881 0.48763 0.0
H1987 H 0.42292 0.8089 0.48058 0.0
C1988 C 0.36283 0.82317 0.5663 0.0
N1989 N 0.37424 0.82037 0.54855 0.0
C1990 C 0.3625 0.83214 0.57069 0.0
C1991 C 0.38512 0.83507 0.53837 0.0
C1992 C 0.38483 0.82611 0.5346 0.0
C1993 C 0.37448 0.83818 0.55673 0.0
H1994 H 0.35491 0.81843 0.57719 0.0
H1995 H 0.39379 0.82367 0.52063 0.0
O1996 O 0.39847 0.78803 0.52847 0.0
O1997 O 0.38862 0.80031 0.56407 0.0
O1998 O 0.4233 0.80703 0.52634 0.0
O1999 O 0.34501 0.80269 0.52505 0.0
H2000 H 0.34587 0.77876 0.51481 0.0
H2001 H 0.45614 0.77993 0.51844 0.0
H2002 H 0.35096 0.7649 0.49616 0.0
H2003 H 0.45926 0.76607 0.4996 0.0
H2004 H 0.30023 0.79635 0.60658 0.0
H2005 H 0.41836 0.78856 0.58702 0.0
H2006 H 0.32615 0.80351 0.5775 0.0
H2007 H 0.39086 0.78164 0.61594 0.0
H2008 H 0.50864 0.7754 0.5713 0.0
H2009 H 0.53874 0.80272 0.56985 0.0
H2010 H 0.25388 0.77896 0.53097 0.0
H2011 H 0.33277 0.76368 0.55972 0.0
H2012 H 0.46118 0.82141 0.52515 0.0
H2013 H 0.4551 0.79449 0.50654 0.0
H2014 H 0.51777 0.8226 0.50862 0.0
H2015 H 0.51192 0.7961 0.49052 0.0
H2016 H 0.34848 0.81322 0.49426 0.0
H2017 H 0.29568 0.80834 0.54854 0.0
H2018 H 0.31183 0.82633 0.48916 0.0
H2019 H 0.26007 0.82158 0.54255 0.0
H2020 H 0.3416 0.78764 0.45205 0.0
H2021 H 0.41627 0.80835 0.44476 0.0
H2022 H 0.35418 0.8343 0.58503 0.0
H2023 H 0.39394 0.83953 0.52708 0.0
Li2024 Li 0.36679 0.94651 0.52786 0.0
Li2025 Li 0.30978 0.94485 0.54122 0.0
Li2026 Li 0.34605 0.93171 0.53592 0.0
Li2027 Li 0.3214 0.93955 0.50873 0.0
C2028 C 0.36335 0.94695 0.56955 0.0
N2029 N 0.38079 0.95744 0.60098 0.0
C2030 C 0.35753 0.95598 0.56881 0.0
C2031 C 0.37807 0.94324 0.58626 0.0
C2032 C 0.36648 0.96118 0.58485 0.0
C2033 C 0.38673 0.94865 0.602 0.0
C2034 C 0.30792 0.95968 0.51754 0.0
C2035 C 0.2568 0.96842 0.51351 0.0
N2036 N 0.27556 0.97581 0.51672 0.0
C2037 C 0.32674 0.96737 0.52067 0.0
C2038 C 0.2727 0.96021 0.51382 0.0
C2039 C 0.30989 0.97546 0.52024 0.0
C2040 C 0.40789 0.95567 0.50417 0.0
N2041 N 0.40474 0.9539 0.52355 0.0
C2042 C 0.44897 0.96416 0.53128 0.0
C2043 C 0.4253 0.95776 0.53711 0.0
C2044 C 0.45156 0.9664 0.51137 0.0
C2045 C 0.43133 0.96189 0.4977 0.0
H2046 H 0.39099 0.95249 0.49381 0.0
H2047 H 0.42266 0.95613 0.55242 0.0
C2048 C 0.25945 0.94307 0.56898 0.0
N2049 N 0.27668 0.94941 0.55906 0.0
C2050 C 0.23564 0.94531 0.58334 0.0
C2051 C 0.24729 0.96063 0.57696 0.0
C2052 C 0.27127 0.95808 0.56284 0.0
C2053 C 0.22941 0.95419 0.58751 0.0
H2054 H 0.26455 0.93623 0.56585 0.0
H2055 H 0.28586 0.96304 0.55524 0.0
C2056 C 0.40278 0.93279 0.51138 0.0
N2057 N 0.47016 0.92716 0.51015 0.0
C2058 C 0.41758 0.93031 0.49359 0.0
C2059 C 0.42227 0.93244 0.52854 0.0
C2060 C 0.45168 0.92747 0.49327 0.0
C2061 C 0.45628 0.92957 0.52761 0.0
C2062 C 0.27063 0.92988 0.51912 0.0
C2063 C 0.27479 0.9218 0.50976 0.0
C2064 C 0.23995 0.93453 0.51694 0.0
C2065 C 0.24824 0.91855 0.49809 0.0
C2066 C 0.214 0.93105 0.50515 0.0
N2067 N 0.21867 0.92321 0.49602 0.0
C2068 C 0.35239 0.91802 0.56387 0.0
C2069 C 0.36736 0.91439 0.5312 0.0
C2070 C 0.35809 0.90937 0.56985 0.0
N2071 N 0.357 0.92032 0.54482 0.0
C2072 C 0.37378 0.90574 0.53655 0.0
C2073 C 0.36888 0.90311 0.55605 0.0
H2074 H 0.34362 0.92288 0.57429 0.0
H2075 H 0.36989 0.91635 0.51606 0.0
C2076 C 0.2916 0.94444 0.47214 0.0
N2077 N 0.30804 0.93802 0.48226 0.0
C2078 C 0.28994 0.94407 0.45173 0.0
C2079 C 0.32064 0.93029 0.45272 0.0
C2080 C 0.32161 0.93091 0.47308 0.0
C2081 C 0.30575 0.93709 0.44173 0.0
H2082 H 0.28163 0.9501 0.47973 0.0
H2083 H 0.33519 0.92601 0.4815 0.0
O2084 O 0.35473 0.9417 0.55407 0.0
O2085 O 0.32406 0.9517 0.51785 0.0
O2086 O 0.36945 0.93562 0.51182 0.0
O2087 O 0.29662 0.93328 0.53019 0.0
H2088 H 0.34661 0.95895 0.5559 0.0
H2089 H 0.38281 0.93624 0.58703 0.0
H2090 H 0.36217 0.96819 0.58444 0.0
H2091 H 0.39818 0.94587 0.61502 0.0
H2092 H 0.22952 0.96893 0.51076 0.0
H2093 H 0.35405 0.9671 0.52346 0.0
H2094 H 0.25774 0.95434 0.51137 0.0
H2095 H 0.32412 0.98145 0.52272 0.0
H2096 H 0.46439 0.96746 0.54221 0.0
H2097 H 0.43216 0.96351 0.48227 0.0
H2098 H 0.22208 0.94015 0.59103 0.0
H2099 H 0.24336 0.96754 0.57992 0.0
H2100 H 0.40286 0.93058 0.48017 0.0
H2101 H 0.41135 0.93436 0.54244 0.0
H2102 H 0.46346 0.92552 0.47961 0.0
H2103 H 0.47165 0.92926 0.54077 0.0
H2104 H 0.29841 0.91813 0.51133 0.0
H2105 H 0.23623 0.94074 0.52429 0.0
H2106 H 0.25117 0.91233 0.49063 0.0
H2107 H 0.19016 0.93459 0.50326 0.0
H2108 H 0.35397 0.90757 0.58501 0.0
H2109 H 0.38135 0.90107 0.5254 0.0
H2110 H 0.27783 0.9494 0.44385 0.0
H2111 H 0.33358 0.92485 0.44569 0.0
Li2112 Li 0.58823 0.56235 0.28382 0.0
Li2113 Li 0.55334 0.54925 0.28486 0.0
Li2114 Li 0.61229 0.54868 0.27311 0.0
Li2115 Li 0.56765 0.55554 0.25373 0.0
C2116 C 0.60548 0.55506 0.31709 0.0
N2117 N 0.62315 0.56281 0.35222 0.0
C2118 C 0.58024 0.55686 0.33107 0.0
C2119 C 0.63972 0.55715 0.32102 0.0
C2120 C 0.58969 0.56079 0.34874 0.0
C2121 C 0.64813 0.56108 0.33885 0.0
C2122 C 0.51838 0.56574 0.2635 0.0
C2123 C 0.47126 0.56661 0.2407 0.0
N2124 N 0.47647 0.57541 0.23903 0.0
C2125 C 0.52331 0.57478 0.26155 0.0
C2126 C 0.49215 0.56161 0.25301 0.0
C2127 C 0.50182 0.57956 0.24911 0.0
C2128 C 0.62303 0.57834 0.29196 0.0
N2129 N 0.59542 0.57328 0.29644 0.0
C2130 C 0.5718 0.58466 0.31637 0.0
C2131 C 0.57027 0.57621 0.30859 0.0
C2132 C 0.59944 0.59016 0.31149 0.0
C2133 C 0.62568 0.58683 0.29947 0.0
H2134 H 0.64224 0.57595 0.28191 0.0
H2135 H 0.54831 0.57208 0.31161 0.0
C2136 C 0.53298 0.53789 0.31473 0.0
N2137 N 0.52076 0.54309 0.30014 0.0
C2138 C 0.51044 0.53409 0.32813 0.0
C2139 C 0.46306 0.54058 0.31039 0.0
C2140 C 0.48657 0.54435 0.29748 0.0
C2141 C 0.47507 0.5356 0.32628 0.0
H2142 H 0.56037 0.53701 0.31642 0.0
H2143 H 0.47763 0.54856 0.28583 0.0
C2144 C 0.64614 0.56006 0.25176 0.0
N2145 N 0.71145 0.55914 0.23605 0.0
C2146 C 0.65065 0.55862 0.23171 0.0
C2147 C 0.67489 0.56105 0.26379 0.0
C2148 C 0.68386 0.55817 0.22405 0.0
C2149 C 0.70768 0.56056 0.25558 0.0
C2150 C 0.55615 0.53522 0.26388 0.0
C2151 C 0.57362 0.52859 0.27395 0.0
C2152 C 0.52276 0.5337 0.2572 0.0
C2153 C 0.55737 0.52055 0.27713 0.0
C2154 C 0.50738 0.52557 0.26071 0.0
N2155 N 0.52486 0.51921 0.27051 0.0
C2156 C 0.66998 0.53776 0.28372 0.0
C2157 C 0.65193 0.53819 0.25057 0.0
C2158 C 0.69269 0.5309 0.27951 0.0
N2159 N 0.6499 0.54112 0.26929 0.0
C2160 C 0.67436 0.53146 0.24569 0.0
C2161 C 0.69445 0.52756 0.26032 0.0
H2162 H 0.66708 0.54007 0.29859 0.0
H2163 H 0.63465 0.54078 0.23961 0.0
C2164 C 0.5637 0.56531 0.2188 0.0
N2165 N 0.55703 0.55736 0.227 0.0
C2166 C 0.56811 0.56602 0.19856 0.0
C2167 C 0.55586 0.55051 0.19566 0.0
C2168 C 0.55175 0.5501 0.21589 0.0
C2169 C 0.56598 0.55844 0.1869 0.0
H2170 H 0.56899 0.5709 0.22807 0.0
H2171 H 0.54738 0.54383 0.22282 0.0
O2172 O 0.59668 0.55134 0.29959 0.0
O2173 O 0.53939 0.56093 0.27541 0.0
O2174 O 0.61381 0.56039 0.25961 0.0
O2175 O 0.57124 0.54323 0.26108 0.0
H2176 H 0.55358 0.55534 0.32821 0.0
H2177 H 0.65959 0.55575 0.31041 0.0
H2178 H 0.57041 0.56226 0.35965 0.0
H2179 H 0.67451 0.56276 0.34206 0.0
H2180 H 0.45097 0.5635 0.23241 0.0
H2181 H 0.54367 0.57808 0.26939 0.0
H2182 H 0.48831 0.5546 0.2541 0.0
H2183 H 0.50538 0.58656 0.24742 0.0
H2184 H 0.55113 0.58695 0.32566 0.0
H2185 H 0.64711 0.5909 0.29504 0.0
H2186 H 0.52059 0.53028 0.34019 0.0
H2187 H 0.43598 0.54199 0.30866 0.0
H2188 H 0.62885 0.55772 0.22216 0.0
H2189 H 0.67194 0.56211 0.27934 0.0
H2190 H 0.68769 0.55701 0.20859 0.0
H2191 H 0.73013 0.56128 0.26475 0.0
H2192 H 0.59927 0.52967 0.27947 0.0
H2193 H 0.50871 0.53879 0.2496 0.0
H2194 H 0.57055 0.51537 0.28495 0.0
H2195 H 0.4815 0.52432 0.2557 0.0
H2196 H 0.70775 0.52803 0.29119 0.0
H2197 H 0.67425 0.52896 0.23085 0.0
H2198 H 0.57623 0.57223 0.19241 0.0
H2199 H 0.55358 0.54455 0.18712 0.0
Li2200 Li 0.68295 0.69631 0.29824 0.0
Li2201 Li 0.64343 0.68317 0.2928 0.0
Li2202 Li 0.66658 0.69153 0.26576 0.0
Li2203 Li 0.62469 0.69798 0.28633 0.0
C2204 C 0.7148 0.67992 0.2742 0.0
N2205 N 0.75822 0.67035 0.25036 0.0
C2206 C 0.70703 0.67121 0.26952 0.0
C2207 C 0.74494 0.68371 0.267 0.0
C2208 C 0.72924 0.66649 0.25739 0.0
C2209 C 0.76647 0.67878 0.25489 0.0
C2210 C 0.61402 0.69618 0.32345 0.0
C2211 C 0.55607 0.69551 0.33571 0.0
N2212 N 0.56152 0.70307 0.34582 0.0
C2213 C 0.61914 0.70393 0.33399 0.0
C2214 C 0.58233 0.69191 0.32433 0.0
C2215 C 0.59223 0.70732 0.3452 0.0
C2216 C 0.71979 0.70991 0.31724 0.0
N2217 N 0.71602 0.70108 0.31522 0.0
C2218 C 0.75816 0.69841 0.33975 0.0
C2219 C 0.73449 0.69533 0.32612 0.0
C2220 C 0.76299 0.70748 0.34196 0.0
C2221 C 0.74377 0.71329 0.33043 0.0
H2222 H 0.70405 0.71433 0.30869 0.0
H2223 H 0.73051 0.68835 0.32431 0.0
C2224 C 0.61417 0.66655 0.28941 0.0
N2225 N 0.63127 0.67193 0.30188 0.0
C2226 C 0.6066 0.65796 0.29487 0.0
C2227 C 0.63413 0.66063 0.32605 0.0
C2228 C 0.64102 0.66921 0.31999 0.0
C2229 C 0.61695 0.65487 0.31332 0.0
H2230 H 0.60739 0.66887 0.27498 0.0
H2231 H 0.65474 0.67366 0.32953 0.0
C2232 C 0.68564 0.70989 0.26752 0.0
N2233 N 0.72394 0.72274 0.24912 0.0
C2234 C 0.66928 0.71672 0.25753 0.0
C2235 C 0.72148 0.70964 0.26827 0.0
C2236 C 0.68909 0.72314 0.24828 0.0
C2237 C 0.74039 0.71619 0.25885 0.0
C2238 C 0.5989 0.68944 0.25358 0.0
C2239 C 0.6036 0.69738 0.24366 0.0
C2240 C 0.57464 0.68344 0.24667 0.0
C2241 C 0.58404 0.69917 0.22701 0.0
C2242 C 0.55556 0.68547 0.22995 0.0
N2243 N 0.56063 0.69323 0.22055 0.0
C2244 C 0.66821 0.68207 0.23137 0.0
C2245 C 0.68926 0.6965 0.22673 0.0
C2246 C 0.66634 0.68076 0.21121 0.0
N2247 N 0.67847 0.68993 0.23873 0.0
C2248 C 0.68752 0.6955 0.20643 0.0
C2249 C 0.67457 0.68767 0.19845 0.0
H2250 H 0.65897 0.67702 0.24115 0.0
H2251 H 0.69691 0.70273 0.23268 0.0
C2252 C 0.59764 0.71441 0.29126 0.0
N2253 N 0.58807 0.70608 0.28696 0.0
C2254 C 0.57548 0.72136 0.28747 0.0
C2255 C 0.533 0.71092 0.27624 0.0
C2256 C 0.55594 0.70414 0.28051 0.0
C2257 C 0.54335 0.71967 0.27898 0.0
H2258 H 0.62344 0.71571 0.29635 0.0
H2259 H 0.54894 0.69742 0.27742 0.0
O2260 O 0.6931 0.68468 0.28584 0.0
O2261 O 0.6397 0.69288 0.31202 0.0
O2262 O 0.66654 0.7036 0.2768 0.0
O2263 O 0.61833 0.68744 0.2697 0.0
H2264 H 0.68396 0.66815 0.27504 0.0
H2265 H 0.75167 0.69038 0.27068 0.0
H2266 H 0.7234 0.65977 0.25354 0.0
H2267 H 0.78976 0.68165 0.24912 0.0
H2268 H 0.53133 0.6923 0.33648 0.0
H2269 H 0.64354 0.70732 0.33336 0.0
H2270 H 0.57801 0.68592 0.31615 0.0
H2271 H 0.59573 0.71333 0.35338 0.0
H2272 H 0.77282 0.69376 0.34835 0.0
H2273 H 0.74685 0.72032 0.33189 0.0
H2274 H 0.59395 0.65369 0.28446 0.0
H2275 H 0.6424 0.6585 0.34041 0.0
H2276 H 0.64156 0.71706 0.25687 0.0
H2277 H 0.73456 0.7045 0.27615 0.0
H2278 H 0.67676 0.72844 0.24044 0.0
H2279 H 0.76814 0.71607 0.25932 0.0
H2280 H 0.62222 0.70211 0.24869 0.0
H2281 H 0.57055 0.67726 0.25411 0.0
H2282 H 0.58752 0.70529 0.21921 0.0
H2283 H 0.53674 0.68087 0.22445 0.0
H2284 H 0.6568 0.67456 0.20573 0.0
H2285 H 0.69392 0.70104 0.1972 0.0
H2286 H 0.5846 0.728 0.28964 0.0
H2287 H 0.50826 0.70937 0.26989 0.0
Li2288 Li 0.61725 0.69642 0.96231 0.0
Li2289 Li 0.58637 0.68968 0.98939 0.0
Li2290 Li 0.59345 0.68138 0.95953 0.0
Li2291 Li 0.55627 0.69431 0.96127 0.0
C2292 C 0.64791 0.68277 0.99298 0.0
N2293 N 0.6815 0.67717 0.02637 0.0
C2294 C 0.66513 0.68881 0.0049 0.0
C2295 C 0.64764 0.6739 -0.00185 0.0
C2296 C 0.68194 0.68585 0.0217 0.0
C2297 C 0.66488 0.67119 0.01504 0.0
C2298 C 0.55791 0.708 0.98321 0.0
C2299 C 0.50775 0.71297 0.00074 0.0
N2300 N 0.5071 0.72035 0.98957 0.0
C2301 C 0.5568 0.71567 0.97196 0.0
C2302 C 0.53322 0.70666 0.99775 0.0
C2303 C 0.5309 0.72182 0.97538 0.0
C2304 C 0.64351 0.71181 0.9466 0.0
N2305 N 0.65265 0.70427 0.95581 0.0
C2306 C 0.70629 0.71039 0.96537 0.0
C2307 C 0.6842 0.70323 0.9639 0.0
C2308 C 0.69558 0.71861 0.95831 0.0
C2309 C 0.66478 0.71914 0.94769 0.0
H2310 H 0.61855 0.71232 0.9398 0.0
H2311 H 0.69108 0.69707 0.97062 0.0
C2312 C 0.58651 0.68141 0.02753 0.0
N2313 N 0.58808 0.68913 0.01755 0.0
C2314 C 0.59403 0.68114 0.04749 0.0
C2315 C 0.60431 0.69677 0.0467 0.0
C2316 C 0.59641 0.69675 0.02679 0.0
C2317 C 0.60377 0.68886 0.05722 0.0
H2318 H 0.58155 0.67537 0.01987 0.0
H2319 H 0.59862 0.70276 0.01849 0.0
C2320 C 0.61066 0.68962 0.92477 0.0
N2321 N 0.65159 0.68571 0.89289 0.0
C2322 C 0.59741 0.69023 0.90581 0.0
C2323 C 0.64473 0.687 0.92751 0.0
C2324 C 0.61852 0.68823 0.88988 0.0
C2325 C 0.665 0.68506 0.9112 0.0
C2326 C 0.53619 0.67743 0.98834 0.0
C2327 C 0.54583 0.66859 0.9891 0.0
C2328 C 0.51132 0.68057 0.00133 0.0
C2329 C 0.53058 0.66307 0.00292 0.0
C2330 C 0.49676 0.67485 0.01498 0.0
N2331 N 0.50659 0.66629 0.01548 0.0
C2332 C 0.62881 0.66587 0.9481 0.0
C2333 C 0.57105 0.66713 0.93755 0.0
C2334 C 0.63087 0.65739 0.94047 0.0
N2335 N 0.59885 0.6704 0.94706 0.0
C2336 C 0.57205 0.65872 0.92956 0.0
C2337 C 0.60192 0.65361 0.93148 0.0
H2338 H 0.65076 0.66873 0.95537 0.0
H2339 H 0.54776 0.67098 0.93673 0.0
C2340 C 0.51868 0.70306 0.93267 0.0
N2341 N 0.51582 0.6992 0.95051 0.0
C2342 C 0.48941 0.70575 0.9226 0.0
C2343 C 0.45502 0.70105 0.95015 0.0
C2344 C 0.48497 0.69835 0.95957 0.0
C2345 C 0.45688 0.70451 0.93108 0.0
H2346 H 0.54366 0.70371 0.92592 0.0
H2347 H 0.4835 0.69531 0.97382 0.0
O2348 O 0.63066 0.68558 0.97667 0.0
O2349 O 0.58257 0.70178 0.97977 0.0
O2350 O 0.59002 0.69144 0.94047 0.0
O2351 O 0.55047 0.68292 0.97472 0.0
H2352 H 0.66471 0.69574 0.00153 0.0
H2353 H 0.63373 0.66916 0.98946 0.0
H2354 H 0.69507 0.69046 0.03113 0.0
H2355 H 0.66477 0.66435 0.01924 0.0
H2356 H 0.48843 0.71198 0.0119 0.0
H2357 H 0.57552 0.71684 0.96062 0.0
H2358 H 0.53353 0.70077 0.00656 0.0
H2359 H 0.52969 0.72775 0.96672 0.0
H2360 H 0.72991 0.70967 0.97356 0.0
H2361 H 0.65608 0.72531 0.94156 0.0
H2362 H 0.59396 0.67488 0.05498 0.0
H2363 H 0.61152 0.70288 0.05367 0.0
H2364 H 0.57103 0.69219 0.90343 0.0
H2365 H 0.65549 0.68642 0.94202 0.0
H2366 H 0.60859 0.68868 0.87513 0.0
H2367 H 0.69138 0.68301 0.91312 0.0
H2368 H 0.56515 0.66602 0.97934 0.0
H2369 H 0.50346 0.68737 0.001 0.0
H2370 H 0.53792 0.65623 0.00372 0.0
H2371 H 0.47762 0.67722 0.02517 0.0
H2372 H 0.65439 0.6537 0.94243 0.0
H2373 H 0.54937 0.65616 0.92239 0.0
H2374 H 0.49222 0.70829 0.90789 0.0
H2375 H 0.4306 0.70014 0.95743 0.0
Li2376 Li 0.66069 0.55234 0.98262 0.0
Li2377 Li 0.6232 0.54593 0.95762 0.0
Li2378 Li 0.68362 0.54835 0.95083 0.0
Li2379 Li 0.64513 0.56064 0.95262 0.0
C2380 C 0.6791 0.53446 0.98225 0.0
N2381 N 0.71035 0.52242 0.00673 0.0
C2382 C 0.66154 0.52689 0.98808 0.0
C2383 C 0.71245 0.53593 0.98905 0.0
C2384 C 0.6778 0.52087 0.00042 0.0
C2385 C 0.72785 0.52975 0.00134 0.0
C2386 C 0.59112 0.5548 0.98875 0.0
C2387 C 0.54499 0.55951 0.00985 0.0
N2388 N 0.54559 0.55158 0.01897 0.0
C2389 C 0.59123 0.54669 -0.00166 0.0
C2390 C 0.56778 0.56126 0.99454 0.0
C2391 C 0.56803 0.54518 0.01356 0.0
C2392 C 0.66644 0.56211 0.01704 0.0
N2393 N 0.66591 0.55372 0.01027 0.0
C2394 C 0.65876 0.54819 0.04271 0.0
C2395 C 0.66275 0.5468 0.02271 0.0
C2396 C 0.65753 0.55679 0.05005 0.0
C2397 C 0.66226 0.56381 0.03701 0.0
H2398 H 0.66818 0.5675 0.00677 0.0
H2399 H 0.66069 0.54022 0.01716 0.0
C2400 C 0.59873 0.52956 0.9493 0.0
N2401 N 0.5875 0.53769 0.95418 0.0
C2402 C 0.57872 0.52225 0.95365 0.0
C2403 C 0.53427 0.53195 0.96561 0.0
C2404 C 0.555 0.53909 0.96071 0.0
C2405 C 0.54724 0.5234 0.96334 0.0
H2406 H 0.62468 0.52869 0.94401 0.0
H2407 H 0.54652 0.54567 0.96413 0.0
C2408 C 0.72403 0.56172 0.96352 0.0
N2409 N 0.79261 0.56588 0.95971 0.0
C2410 C 0.73479 0.56621 0.94684 0.0
C2411 C 0.74742 0.55963 0.97836 0.0
C2412 C 0.76928 0.56828 0.94471 0.0
C2413 C 0.78247 0.5616 0.97684 0.0
C2414 C 0.61837 0.55248 0.9201 0.0
C2415 C 0.6241 0.55084 0.90025 0.0
C2416 C 0.58668 0.55583 0.92618 0.0
C2417 C 0.59797 0.55256 0.88678 0.0
C2418 C 0.56122 0.55746 0.91226 0.0
N2419 N 0.56734 0.55581 0.89301 0.0
C2420 C 0.73708 0.53617 0.94021 0.0
C2421 C 0.72835 0.54837 0.91932 0.0
C2422 C 0.76296 0.53298 0.928 0.0
N2423 N 0.72086 0.54383 0.93589 0.0
C2424 C 0.75385 0.5454 0.90664 0.0
C2425 C 0.77156 0.53761 0.91097 0.0
H2426 H 0.72956 0.53238 0.95278 0.0
H2427 H 0.71414 0.55427 0.91583 0.0
C2428 C 0.61884 0.57752 0.95532 0.0
N2429 N 0.6355 0.57197 0.94305 0.0
C2430 C 0.61185 0.5861 0.94953 0.0
C2431 C 0.63966 0.58312 0.91857 0.0
C2432 C 0.64583 0.57454 0.92492 0.0
C2433 C 0.62247 0.58901 0.93098 0.0
H2434 H 0.61155 0.57532 0.96977 0.0
H2435 H 0.65922 0.56996 0.91553 0.0
O2436 O 0.66323 0.5405 0.97051 0.0
O2437 O 0.6141 0.55649 0.97405 0.0
O2438 O 0.69012 0.55962 0.96572 0.0
O2439 O 0.64399 0.55092 0.93334 0.0
H2440 H 0.63548 0.5257 0.98335 0.0
H2441 H 0.72638 0.54173 0.98469 0.0
H2442 H 0.66448 0.515 0.00504 0.0
H2443 H 0.75371 0.5308 0.00661 0.0
H2444 H 0.52682 0.56446 0.01448 0.0
H2445 H 0.60889 0.54158 0.99403 0.0
H2446 H 0.56723 0.56757 0.98731 0.0
H2447 H 0.56787 0.53893 0.02107 0.0
H2448 H 0.65436 0.54258 0.05213 0.0
H2449 H 0.66159 0.57054 0.04208 0.0
H2450 H 0.58918 0.51576 0.95113 0.0
H2451 H 0.51003 0.53314 0.9729 0.0
H2452 H 0.71661 0.56801 0.93558 0.0
H2453 H 0.73832 0.55648 0.99156 0.0
H2454 H 0.77836 0.57165 0.93177 0.0
H2455 H 0.80247 0.56437 0.96802 0.0
H2456 H 0.64855 0.54828 0.8953 0.0
H2457 H 0.58175 0.55719 0.94144 0.0
H2458 H 0.60206 0.55132 0.87136 0.0
H2459 H 0.5366 0.56005 0.91676 0.0
H2460 H 0.7756 0.52686 0.93163 0.0
H2461 H 0.75982 0.5492 0.89368 0.0
H2462 H 0.59916 0.59048 0.9597 0.0
H2463 H 0.64822 0.58512 0.90416 0.0
Li2464 Li 0.40803 0.44153 0.73586 0.0
Li2465 Li 0.38888 0.43202 0.70941 0.0
Li2466 Li 0.42767 0.44438 0.70196 0.0
Li2467 Li 0.36815 0.44683 0.71064 0.0
C2468 C 0.45014 0.42637 0.72656 0.0
N2469 N 0.47589 0.41087 0.74156 0.0
C2470 C 0.43313 0.4221 0.74183 0.0
C2471 C 0.48023 0.42275 0.71888 0.0
C2472 C 0.44654 0.41427 0.74923 0.0
C2473 C 0.49286 0.41491 0.72668 0.0
C2474 C 0.33539 0.43229 0.73663 0.0
C2475 C 0.28223 0.42458 0.73103 0.0
N2476 N 0.28356 0.42136 0.74958 0.0
C2477 C 0.3361 0.42896 0.7557 0.0
C2478 C 0.30813 0.43015 0.72423 0.0
C2479 C 0.3097 0.42343 0.76195 0.0
C2480 C 0.39147 0.44807 0.77146 0.0
N2481 N 0.41563 0.44287 0.76302 0.0
C2482 C 0.43942 0.43938 0.79427 0.0
C2483 C 0.4401 0.43876 0.77384 0.0
C2484 C 0.41378 0.44443 0.80339 0.0
C2485 C 0.39016 0.44898 0.79171 0.0
H2486 H 0.37237 0.45124 0.7624 0.0
H2487 H 0.45945 0.4348 0.76674 0.0
C2488 C 0.38584 0.41774 0.68349 0.0
N2489 N 0.37932 0.42018 0.70229 0.0
C2490 C 0.3812 0.40903 0.67765 0.0
C2491 C 0.36277 0.40555 0.71053 0.0
C2492 C 0.36821 0.41427 0.71578 0.0
C2493 C 0.36941 0.40283 0.69129 0.0
H2494 H 0.3951 0.42255 0.67312 0.0
H2495 H 0.36423 0.41623 0.73076 0.0
C2496 C 0.43407 0.45823 0.72858 0.0
N2497 N 0.48402 0.46916 0.74366 0.0
C2498 C 0.42702 0.46712 0.73161 0.0
C2499 C 0.46645 0.45489 0.73326 0.0
C2500 C 0.45264 0.47254 0.73923 0.0
C2501 C 0.49137 0.46053 0.74086 0.0
C2502 C 0.36622 0.44335 0.67254 0.0
C2503 C 0.37665 0.45048 0.66114 0.0
C2504 C 0.3352 0.43914 0.66841 0.0
C2505 C 0.35544 0.4534 0.646 0.0
C2506 C 0.31472 0.44225 0.65314 0.0
N2507 N 0.32516 0.44927 0.64236 0.0
C2508 C 0.47999 0.44161 0.67548 0.0
C2509 C 0.47079 0.4567 0.6822 0.0
C2510 C 0.50498 0.44369 0.66166 0.0
N2511 N 0.46352 0.44809 0.68536 0.0
C2512 C 0.49587 0.45908 0.66856 0.0
C2513 C 0.51298 0.45252 0.65794 0.0
H2514 H 0.47316 0.43483 0.6781 0.0
H2515 H 0.45661 0.46173 0.6899 0.0
C2516 C 0.30601 0.45449 0.72153 0.0
N2517 N 0.33247 0.45511 0.70866 0.0
C2518 C 0.28694 0.46192 0.72638 0.0
C2519 C 0.3208 0.47028 0.70331 0.0
C2520 C 0.33948 0.46271 0.69908 0.0
C2521 C 0.29548 0.47004 0.71797 0.0
H2522 H 0.30192 0.44849 0.72958 0.0
H2523 H 0.36167 0.46313 0.68964 0.0
O2524 O 0.43726 0.43398 0.71894 0.0
O2525 O 0.36115 0.43767 0.73024 0.0
O2526 O 0.40918 0.45286 0.72114 0.0
O2527 O 0.38659 0.4404 0.68743 0.0
H2528 H 0.40982 0.42481 0.74792 0.0
H2529 H 0.49373 0.42597 0.70704 0.0
H2530 H 0.4336 0.4109 0.76106 0.0
H2531 H 0.51615 0.41204 0.72089 0.0
H2532 H 0.26106 0.42283 0.72156 0.0
H2533 H 0.35691 0.4306 0.76553 0.0
H2534 H 0.30702 0.43275 0.70953 0.0
H2535 H 0.31 0.42077 0.77663 0.0
H2536 H 0.45827 0.43585 0.80285 0.0
H2537 H 0.36983 0.45287 0.79819 0.0
H2538 H 0.38666 0.40715 0.66268 0.0
H2539 H 0.35436 0.40093 0.72158 0.0
H2540 H 0.40202 0.46979 0.72807 0.0
H2541 H 0.47232 0.44802 0.73105 0.0
H2542 H 0.44758 0.47944 0.74164 0.0
H2543 H 0.51657 0.45804 0.74454 0.0
H2544 H 0.40073 0.45377 0.66406 0.0
H2545 H 0.32715 0.43349 0.67683 0.0
H2546 H 0.36305 0.45896 0.63714 0.0
H2547 H 0.29058 0.43908 0.64982 0.0
H2548 H 0.51789 0.43843 0.65394 0.0
H2549 H 0.50112 0.46597 0.66596 0.0
H2550 H 0.26802 0.46142 0.73794 0.0
H2551 H 0.3279 0.47638 0.69625 0.0
Li2552 Li 0.35759 0.30809 0.70278 0.0
Li2553 Li 0.34846 0.29921 0.73164 0.0
Li2554 Li 0.37874 0.29363 0.70264 0.0
Li2555 Li 0.31667 0.29574 0.70096 0.0
C2556 C 0.41218 0.31034 0.72399 0.0
N2557 N 0.45002 0.32541 0.73037 0.0
C2558 C 0.40618 0.31545 0.74063 0.0
C2559 C 0.43758 0.31285 0.71067 0.0
C2560 C 0.42556 0.32305 0.74358 0.0
C2561 C 0.45638 0.3205 0.71413 0.0
C2562 C 0.28308 0.3071 0.7272 0.0
C2563 C 0.23641 0.3003 0.74476 0.0
N2564 N 0.2199 0.30816 0.74543 0.0
C2565 C 0.26563 0.3151 0.72801 0.0
C2566 C 0.26836 0.29963 0.7356 0.0
C2567 C 0.23373 0.31551 0.73732 0.0
C2568 C 0.37552 0.32278 0.67803 0.0
N2569 N 0.36307 0.32001 0.69558 0.0
C2570 C 0.35191 0.33474 0.7055 0.0
C2571 C 0.35169 0.32577 0.70928 0.0
C2572 C 0.36386 0.33783 0.68739 0.0
C2573 C 0.37637 0.33176 0.67364 0.0
H2574 H 0.38417 0.31804 0.66736 0.0
H2575 H 0.34207 0.32336 0.72312 0.0
C2576 C 0.37591 0.29423 0.76726 0.0
N2577 N 0.34931 0.29886 0.75958 0.0
C2578 C 0.38012 0.29359 0.78744 0.0
C2579 C 0.33074 0.303 0.79164 0.0
C2580 C 0.32714 0.30334 0.7713 0.0
C2581 C 0.35737 0.29802 0.79988 0.0
H2582 H 0.3945 0.29123 0.75767 0.0
H2583 H 0.30716 0.30734 0.765 0.0
C2584 C 0.36853 0.2956 0.66595 0.0
N2585 N 0.40293 0.28748 0.63558 0.0
C2586 C 0.35275 0.28884 0.65545 0.0
C2587 C 0.40167 0.29828 0.6609 0.0
C2588 C 0.3706 0.28481 0.64017 0.0
C2589 C 0.41868 0.29408 0.64553 0.0
C2590 C 0.3416 0.28039 0.72916 0.0
C2591 C 0.3722 0.27701 0.73674 0.0
C2592 C 0.31076 0.27598 0.73276 0.0
C2593 C 0.37144 0.26934 0.74793 0.0
C2594 C 0.31102 0.26834 0.74407 0.0
N2595 N 0.3411 0.26521 0.75136 0.0
C2596 C 0.44478 0.28668 0.70452 0.0
C2597 C 0.40213 0.27716 0.69174 0.0
C2598 C 0.46515 0.27954 0.70975 0.0
N2599 N 0.41311 0.28531 0.69682 0.0
C2600 C 0.42154 0.26982 0.69689 0.0
C2601 C 0.45227 0.27098 0.70735 0.0
H2602 H 0.45242 0.29322 0.70882 0.0
H2603 H 0.3763 0.27628 0.68627 0.0
C2604 C 0.24952 0.29732 0.6867 0.0
N2605 N 0.27517 0.29151 0.69028 0.0
C2606 C 0.21908 0.29452 0.67805 0.0
C2607 C 0.24227 0.2798 0.67649 0.0
C2608 C 0.27212 0.28288 0.68552 0.0
C2609 C 0.21537 0.28568 0.67264 0.0
H2610 H 0.25298 0.30418 0.69021 0.0
H2611 H 0.29322 0.27843 0.68832 0.0
O2612 O 0.39298 0.30297 0.72064 0.0
O2613 O 0.31401 0.30657 0.71778 0.0
O2614 O 0.3517 0.29954 0.68116 0.0
O2615 O 0.34185 0.28781 0.71778 0.0
H2616 H 0.38651 0.31364 0.75104 0.0
H2617 H 0.44258 0.30897 0.69773 0.0
H2618 H 0.42107 0.3271 0.75633 0.0
H2619 H 0.47599 0.32255 0.70389 0.0
H2620 H 0.22476 0.29457 0.75135 0.0
H2621 H 0.27653 0.32093 0.72143 0.0
H2622 H 0.28155 0.29342 0.73514 0.0
H2623 H 0.21993 0.32166 0.73805 0.0
H2624 H 0.3427 0.33921 0.71665 0.0
H2625 H 0.38573 0.3339 0.6595 0.0
H2626 H 0.40159 0.2899 0.79325 0.0
H2627 H 0.31297 0.3066 0.80083 0.0
H2628 H 0.32707 0.28672 0.6591 0.0
H2629 H 0.41423 0.3035 0.66887 0.0
H2630 H 0.35876 0.27954 0.63197 0.0
H2631 H 0.44442 0.29606 0.64153 0.0
H2632 H 0.39639 0.28026 0.73405 0.0
H2633 H 0.28682 0.27839 0.72681 0.0
H2634 H 0.39498 0.26668 0.75387 0.0
H2635 H 0.28731 0.26489 0.74699 0.0
H2636 H 0.48907 0.28071 0.71739 0.0
H2637 H 0.4105 0.26336 0.69484 0.0
H2638 H 0.19918 0.29928 0.67492 0.0
H2639 H 0.24032 0.27295 0.67242 0.0
Li2640 Li 0.36638 0.29602 0.0398 0.0
Li2641 Li 0.42777 0.29925 0.04455 0.0
Li2642 Li 0.38417 0.31096 0.03802 0.0
Li2643 Li 0.40089 0.30103 0.01242 0.0
C2644 C 0.37142 0.29981 0.07698 0.0
N2645 N 0.3375 0.29284 0.10891 0.0
C2646 C 0.38769 0.29362 0.08888 0.0
C2647 C 0.33805 0.30252 0.08141 0.0
C2648 C 0.37007 0.29016 0.10494 0.0
C2649 C 0.32129 0.2989 0.09759 0.0
C2650 C 0.41237 0.28382 0.01445 0.0
C2651 C 0.45013 0.27594 0.99267 0.0
N2652 N 0.42284 0.27132 0.98574 0.0
C2653 C 0.38471 0.27897 0.00717 0.0
C2654 C 0.44537 0.28227 0.00722 0.0
C2655 C 0.39053 0.27268 0.99265 0.0
C2656 C 0.30218 0.28795 0.03658 0.0
N2657 N 0.33288 0.28759 0.04594 0.0
C2658 C 0.32515 0.27243 0.05324 0.0
C2659 C 0.34398 0.28016 0.05493 0.0
C2660 C 0.2951 0.27237 0.04189 0.0
C2661 C 0.28258 0.28036 0.03448 0.0
H2662 H 0.29467 0.29387 0.029 0.0
H2663 H 0.36911 0.28002 0.06163 0.0
C2664 C 0.48002 0.30278 0.07074 0.0
N2665 N 0.4663 0.29629 0.05964 0.0
C2666 C 0.50614 0.30089 0.084 0.0
C2667 C 0.50404 0.2857 0.07374 0.0
C2668 C 0.47777 0.28788 0.06071 0.0
C2669 C 0.51809 0.29223 0.08583 0.0
H2670 H 0.47002 0.30939 0.0696 0.0
H2671 H 0.46584 0.28285 0.05187 0.0
C2672 C 0.33084 0.31083 0.01418 0.0
N2673 N 0.28459 0.32369 0.00334 0.0
C2674 C 0.33413 0.31504 0.99609 0.0
C2675 C 0.30391 0.31312 0.02669 0.0
C2676 C 0.31051 0.32154 0.99089 0.0
C2677 C 0.28084 0.31966 0.02097 0.0
C2678 C 0.45985 0.31162 0.01636 0.0
C2679 C 0.46189 0.31962 0.0064 0.0
C2680 C 0.48791 0.3059 0.01609 0.0
C2681 C 0.49181 0.32172 0.99614 0.0
C2682 C 0.5174 0.30824 0.00568 0.0
N2683 N 0.51871 0.31603 0.99599 0.0
C2684 C 0.36977 0.32572 0.06212 0.0
C2685 C 0.3772 0.3286 0.02828 0.0
C2686 C 0.36851 0.33471 0.06617 0.0
N2687 N 0.37462 0.32289 0.04345 0.0
C2688 C 0.37609 0.33761 0.03163 0.0
C2689 C 0.37267 0.34076 0.05083 0.0
H2690 H 0.36844 0.32101 0.07394 0.0
H2691 H 0.3815 0.32617 0.01364 0.0
C2692 C 0.37605 0.29584 0.97661 0.0
N2693 N 0.40453 0.2995 0.9847 0.0
C2694 C 0.37339 0.29485 0.9564 0.0
C2695 C 0.42964 0.30137 0.95304 0.0
C2696 C 0.43144 0.3021 0.9734 0.0
C2697 C 0.40013 0.29779 0.94435 0.0
H2698 H 0.35491 0.29388 0.98591 0.0
H2699 H 0.45403 0.3049 0.97996 0.0
O2700 O 0.38808 0.3032 0.06108 0.0
O2701 O 0.40715 0.29008 0.0285 0.0
O2702 O 0.35375 0.30447 0.01956 0.0
O2703 O 0.43082 0.30951 0.0266 0.0
H2704 H 0.41353 0.29145 0.08568 0.0
H2705 H 0.32522 0.30736 0.07243 0.0
H2706 H 0.38227 0.28533 0.11423 0.0
H2707 H 0.2954 0.30091 0.10114 0.0
H2708 H 0.47552 0.27471 0.98688 0.0
H2709 H 0.35894 0.2801 0.01243 0.0
H2710 H 0.4671 0.28592 0.01273 0.0
H2711 H 0.36933 0.26892 0.98683 0.0
H2712 H 0.33549 0.26642 0.05931 0.0
H2713 H 0.25979 0.28059 0.02541 0.0
H2714 H 0.51668 0.30614 0.09283 0.0
H2715 H 0.51242 0.27894 0.07483 0.0
H2716 H 0.35493 0.3134 0.98626 0.0
H2717 H 0.30089 0.3099 0.04068 0.0
H2718 H 0.31285 0.32488 0.97699 0.0
H2719 H 0.25994 0.32151 0.03053 0.0
H2720 H 0.44059 0.32416 0.00651 0.0
H2721 H 0.48695 0.29971 0.02372 0.0
H2722 H 0.49365 0.32787 0.98829 0.0
H2723 H 0.53923 0.30386 0.0053 0.0
H2724 H 0.36607 0.33688 0.08119 0.0
H2725 H 0.37884 0.34205 0.01936 0.0
H2726 H 0.35007 0.29214 0.95023 0.0
H2727 H 0.45091 0.30364 0.94418 0.0
Li2728 Li 0.37833 0.45005 0.04117 0.0
Li2729 Li 0.31614 0.4469 0.04399 0.0
Li2730 Li 0.35885 0.43501 0.04337 0.0
Li2731 Li 0.34795 0.44345 0.01476 0.0
C2732 C 0.37501 0.44275 0.07879 0.0
N2733 N 0.41771 0.43921 0.11008 0.0
C2734 C 0.36181 0.44255 0.0978 0.0
C2735 C 0.40991 0.44114 0.07567 0.0
C2736 C 0.38382 0.44076 0.11343 0.0
C2737 C 0.43108 0.43936 0.09169 0.0
C2738 C 0.33662 0.46066 0.01076 0.0
C2739 C 0.30313 0.46696 0.98457 0.0
N2740 N 0.3312 0.4715 0.97843 0.0
C2741 C 0.36507 0.46544 0.00423 0.0
C2742 C 0.30532 0.46148 0.00092 0.0
C2743 C 0.36183 0.47087 0.98786 0.0
C2744 C 0.44239 0.45808 0.0382 0.0
N2745 N 0.41098 0.4587 0.04667 0.0
C2746 C 0.41756 0.47409 0.05131 0.0
C2747 C 0.39896 0.46638 0.05407 0.0
C2748 C 0.44851 0.47381 0.04078 0.0
C2749 C 0.46192 0.46562 0.03521 0.0
H2750 H 0.45064 0.45192 0.03197 0.0
H2751 H 0.37341 0.46665 0.06025 0.0
C2752 C 0.2656 0.44521 0.07136 0.0
N2753 N 0.27642 0.45064 0.0569 0.0
C2754 C 0.23942 0.44783 0.08389 0.0
C2755 C 0.23514 0.46149 0.06594 0.0
C2756 C 0.26179 0.45862 0.05381 0.0
C2757 C 0.22429 0.45612 0.08146 0.0
H2758 H 0.27819 0.43895 0.0735 0.0
H2759 H 0.27152 0.46285 0.04238 0.0
C2760 C 0.40752 0.43325 0.01453 0.0
N2761 N 0.43547 0.41961 0.99312 0.0
C2762 C 0.38622 0.42695 0.00597 0.0
C2763 C 0.44307 0.43261 0.0122 0.0
C2764 C 0.40081 0.42011 0.9952 0.0
C2765 C 0.45671 0.42567 0.00132 0.0
C2766 C 0.28713 0.43315 0.01843 0.0
C2767 C 0.28525 0.4245 0.01166 0.0
C2768 C 0.26007 0.43893 0.01468 0.0
C2769 C 0.25664 0.42184 0.00085 0.0
C2770 C 0.2319 0.43602 0.00382 0.0
N2771 N 0.2308 0.42761 0.99717 0.0
C2772 C 0.33876 0.41868 0.05682 0.0
C2773 C 0.39923 0.42027 0.05492 0.0
C2774 C 0.34212 0.40982 0.06151 0.0
N2775 N 0.36704 0.42362 0.05317 0.0
C2776 C 0.40381 0.41144 0.05963 0.0
C2777 C 0.37496 0.40603 0.06248 0.0
H2778 H 0.31351 0.42154 0.05528 0.0
H2779 H 0.42128 0.42438 0.05199 0.0
C2780 C 0.37847 0.44724 0.9798 0.0
N2781 N 0.34919 0.44353 0.98676 0.0
C2782 C 0.38438 0.44782 0.95977 0.0
C2783 C 0.33027 0.44047 0.95417 0.0
C2784 C 0.32509 0.44018 0.97443 0.0
C2785 C 0.36022 0.44437 0.94669 0.0
H2786 H 0.39744 0.44974 0.98993 0.0
H2787 H 0.30206 0.43722 0.98017 0.0
O2788 O 0.35364 0.44442 0.06336 0.0
O2789 O 0.33937 0.45524 0.02668 0.0
O2790 O 0.39389 0.43999 0.02529 0.0
O2791 O 0.31482 0.43582 0.02921 0.0
H2792 H 0.33481 0.44377 0.10043 0.0
H2793 H 0.42057 0.44122 0.06106 0.0
H2794 H 0.37397 0.44058 0.12823 0.0
H2795 H 0.45813 0.43809 0.08949 0.0
H2796 H 0.2791 0.46761 0.97678 0.0
H2797 H 0.38957 0.46489 0.01151 0.0
H2798 H 0.28294 0.45792 0.00579 0.0
H2799 H 0.38372 0.47455 0.98261 0.0
H2800 H 0.40656 0.48029 0.05593 0.0
H2801 H 0.48545 0.46514 0.02684 0.0
H2802 H 0.23133 0.44345 0.09551 0.0
H2803 H 0.22406 0.46793 0.0637 0.0
H2804 H 0.35875 0.42733 0.00757 0.0
H2805 H 0.46001 0.43739 0.01879 0.0
H2806 H 0.38457 0.4152 0.9885 0.0
H2807 H 0.48419 0.42509 -0.00058 0.0
H2808 H 0.30563 0.41988 0.01475 0.0
H2809 H 0.26068 0.44557 0.02015 0.0
H2810 H 0.25495 0.41519 0.99544 0.0
H2811 H 0.21085 0.44044 0.00074 0.0
H2812 H 0.31916 0.4059 0.06333 0.0
H2813 H 0.42959 0.40881 0.06048 0.0
H2814 H 0.40801 0.45076 0.95457 0.0
H2815 H 0.31106 0.43775 0.94446 0.0
H2816 H 0.11732 0.06737 0.06809 0.0
H2817 H 0.15193 0.04396 0.16957 0.0
H2818 H 0.20591 0.05089 0.07799 0.0
H2819 H 0.09382 0.06798 0.16552 0.0
H2820 H 0.16839 0.04556 0.13517 0.0
H2821 H 0.10559 0.06718 0.10312 0.0
C2822 C 0.13472 0.06384 0.07759 0.0
C2823 C 0.16266 0.05911 0.06993 0.0
C2824 C 0.15215 0.0505 0.14183 0.0
C2825 C 0.14852 0.05865 0.11007 0.0
C2826 C 0.14252 0.04955 0.16136 0.0
C2827 C 0.12134 0.05582 0.17027 0.0
C2828 C 0.14006 0.05771 0.13106 0.0
C2829 C 0.11023 0.06302 0.15913 0.0
C2830 C 0.12777 0.06368 0.09761 0.0
C2831 C 0.18369 0.05448 0.08308 0.0
N2832 N 0.11948 0.06373 0.14001 0.0
N2833 N 0.17596 0.05429 0.10247 0.0
H2834 H 0.0606 0.17733 0.07986 0.0
H2835 H 0.18684 0.19587 0.1622 0.0
H2836 H 0.12402 0.20027 0.07204 0.0
H2837 H 0.09922 0.17958 0.1758 0.0
H2838 H 0.16913 0.196 0.12794 0.0
H2839 H 0.07933 0.17654 0.11416 0.0
C2840 C 0.07836 0.1822 0.08541 0.0
C2841 C 0.09049 0.18893 0.07323 0.0
C2842 C 0.15388 0.19238 0.13845 0.0
C2843 C 0.11235 0.188 0.11213 0.0
C2844 C 0.1639 0.19232 0.15804 0.0
C2845 C 0.14445 0.18774 0.17204 0.0
C2846 C 0.12437 0.18776 0.13269 0.0
C2847 C 0.11537 0.1831 0.16558 0.0
C2848 C 0.08898 0.18176 0.10492 0.0
C2849 C 0.11357 0.19507 0.08106 0.0
N2850 N 0.1062 0.18323 0.14638 0.0
N2851 N 0.12386 0.19444 0.09998 0.0
H2852 H 0.84981 0.96299 0.92173 0.0
H2853 H 0.85582 0.93301 0.82576 0.0
H2854 H 0.81506 0.93611 0.92007 0.0
H2855 H 0.87913 0.9607 0.82551 0.0
H2856 H 0.84073 0.93406 0.86037 0.0
H2857 H 0.85959 0.96243 0.88638 0.0
C2858 C 0.84398 0.95699 0.91388 0.0
C2859 C 0.83173 0.94957 0.92386 0.0
C2860 C 0.84906 0.93992 0.85275 0.0
C2861 C 0.84309 0.94886 0.88347 0.0
C2862 C 0.85799 0.9393 0.83303 0.0
C2863 C 0.86893 0.94677 0.82276 0.0
C2864 C 0.85127 0.94805 0.86235 0.0
C2865 C 0.87061 0.95479 0.83284 0.0
C2866 C 0.84952 0.95668 0.89371 0.0
C2867 C 0.82424 0.94201 0.91295 0.0
N2868 N 0.86202 0.95521 0.8521 0.0
N2869 N 0.83034 0.94182 0.89338 0.0
H2870 H 0.88272 0.79303 0.92269 0.0
H2871 H 0.85655 0.81857 0.82153 0.0
H2872 H 0.90502 0.82059 0.91533 0.0
H2873 H 0.82798 0.7915 0.83071 0.0
H2874 H 0.87332 0.81959 0.85589 0.0
H2875 H 0.86321 0.79238 0.88886 0.0
C2876 C 0.88395 0.79893 0.91387 0.0
C2877 C 0.89586 0.80686 0.92183 0.0
C2878 C 0.86318 0.81344 0.85042 0.0
C2879 C 0.87277 0.8062 0.88307 0.0
C2880 C 0.85327 0.81288 0.83083 0.0
C2881 C 0.84085 0.80493 0.82318 0.0
C2882 C 0.86078 0.806 0.86247 0.0
C2883 C 0.83784 0.79773 0.83589 0.0
C2884 C 0.87243 0.79857 0.89459 0.0
C2885 C 0.89595 0.81434 0.90982 0.0
N2886 N 0.84788 0.79843 0.85486 0.0
N2887 N 0.88464 0.81383 0.89102 0.0
H2888 H 0.04466 0.54887 0.66229 0.0
H2889 H 0.15824 0.56923 0.57605 0.0
H2890 H 0.12156 0.56881 0.6721 0.0
H2891 H 0.10788 0.54407 0.57238 0.0
H2892 H 0.13829 0.57063 0.60999 0.0
H2893 H 0.06042 0.54859 0.6277 0.0
C2894 C 0.06473 0.55322 0.65719 0.0
C2895 C 0.08201 0.55881 0.67023 0.0
C2896 C 0.13168 0.56481 0.60173 0.0
C2897 C 0.09988 0.55859 0.63058 0.0
C2898 C 0.14299 0.56401 0.58242 0.0
C2899 C 0.13492 0.55649 0.57153 0.0
C2900 C 0.11174 0.55809 0.61005 0.0
C2901 C 0.11511 0.54991 0.58041 0.0
C2902 C 0.07366 0.55307 0.63744 0.0
C2903 C 0.10726 0.56445 0.66262 0.0
N2904 N 0.10409 0.55088 0.59913 0.0
N2905 N 0.11555 0.56417 0.64332 0.0
H2906 H 0.14139 0.70441 0.6659 0.0
H2907 H 0.08974 0.67548 0.57259 0.0
H2908 H 0.13028 0.67624 0.6677 0.0
H2909 H 0.10693 0.70346 0.57071 0.0
H2910 H 0.10316 0.6756 0.60756 0.0
H2911 H 0.12777 0.70417 0.63104 0.0
C2912 C 0.13608 0.69817 0.65894 0.0
C2913 C 0.1369 0.69034 0.66973 0.0
C2914 C 0.10388 0.68171 0.59949 0.0
C2915 C 0.12132 0.69 0.62978 0.0
C2916 C 0.09629 0.68165 0.57953 0.0
C2917 C 0.09715 0.68947 0.56868 0.0
C2918 C 0.11246 0.68966 0.60869 0.0
C2919 C 0.1054 0.69729 0.57851 0.0
C2920 C 0.12839 0.69803 0.63902 0.0
C2921 C 0.13028 0.68243 0.6599 0.0
N2922 N 0.1128 0.69718 0.59791 0.0
N2923 N 0.12262 0.68246 0.64049 0.0
H2924 H 0.91425 0.45331 0.42402 0.0
H2925 H 0.86193 0.43034 0.32313 0.0
H2926 H 0.83203 0.43445 0.41897 0.0
H2927 H 0.95287 0.4462 0.33051 0.0
H2928 H 0.84953 0.43201 0.35795 0.0
H2929 H 0.92684 0.45136 0.3893 0.0
C2930 C 0.89883 0.44875 0.4156 0.0
C2931 C 0.87218 0.44399 0.42446 0.0
C2932 C 0.8723 0.43509 0.35197 0.0
C2933 C 0.88639 0.44175 0.38465 0.0
C2934 C 0.87961 0.43406 0.33211 0.0
C2935 C 0.90853 0.43813 0.32385 0.0
C2936 C 0.89396 0.44025 0.36366 0.0
C2937 C 0.93006 0.44304 0.33618 0.0
C2938 C 0.90602 0.44765 0.39577 0.0
C2939 C 0.85262 0.43831 0.41273 0.0
N2940 N 0.92226 0.44399 0.35543 0.0
N2941 N 0.86019 0.43732 0.39344 0.0
H2942 H 0.83258 0.31164 0.33193 0.0
H2943 H 0.97082 0.3015 0.4157 0.0
H2944 H 0.92488 0.29657 0.32225 0.0
H2945 H 0.87835 0.31654 0.42504 0.0
H2946 H 0.95584 0.30015 0.38107 0.0
H2947 H 0.85001 0.31391 0.36589 0.0
C2948 C 0.85655 0.30882 0.33694 0.0
C2949 C 0.87725 0.30389 0.32422 0.0
C2950 C 0.93898 0.3038 0.39067 0.0
C2951 C 0.89737 0.30645 0.36312 0.0
C2952 C 0.94752 0.30458 0.41044 0.0
C2953 C 0.92582 0.30914 0.4233 0.0
C2954 C 0.90842 0.30759 0.38373 0.0
C2955 C 0.89612 0.31307 0.41563 0.0
C2956 C 0.86647 0.31011 0.35634 0.0
C2957 C 0.90785 0.30031 0.33159 0.0
N2958 N 0.8882 0.31215 0.39639 0.0
N2959 N 0.91699 0.30166 0.35054 0.0
H2960 H 0.57835 0.06407 0.67486 0.0
H2961 H 0.63823 0.03928 0.57738 0.0
H2962 H 0.60416 0.03656 0.67246 0.0
H2963 H 0.62945 0.06747 0.58167 0.0
H2964 H 0.62064 0.03803 0.61148 0.0
H2965 H 0.59021 0.06523 0.63973 0.0
C2966 C 0.58597 0.05825 0.66686 0.0
C2967 C 0.59048 0.05021 0.67655 0.0
C2968 C 0.6226 0.04449 0.60498 0.0
C2969 C 0.60452 0.05152 0.63655 0.0
C2970 C 0.63298 0.04522 0.58554 0.0
C2971 C 0.63569 0.0535 0.57665 0.0
C2972 C 0.61467 0.05209 0.61569 0.0
C2973 C 0.62754 0.06095 0.58786 0.0
C2974 C 0.59305 0.05893 0.64688 0.0
C2975 C 0.60078 0.0429 0.66557 0.0
N2976 N 0.61744 0.06006 0.60681 0.0
N2977 N 0.60758 0.04373 0.64617 0.0
H2978 H 0.6382 0.17591 0.6709 0.0
H2979 H 0.56711 0.20391 0.5804 0.0
H2980 H 0.61679 0.20369 0.67325 0.0
H2981 H 0.58923 0.1762 0.57701 0.0
H2982 H 0.58222 0.2037 0.61504 0.0
H2983 H 0.61824 0.17567 0.63694 0.0
C2984 C 0.62931 0.18195 0.66427 0.0
C2985 C 0.62934 0.18984 0.67491 0.0
C2986 C 0.58356 0.19764 0.60679 0.0
C2987 C 0.60644 0.18961 0.63609 0.0
C2988 C 0.57493 0.19776 0.58701 0.0
C2989 C 0.57715 0.19007 0.57578 0.0
C2990 C 0.59467 0.18978 0.61546 0.0
C2991 C 0.58694 0.18227 0.58516 0.0
C2992 C 0.61796 0.18181 0.64489 0.0
C2993 C 0.61782 0.19749 0.66553 0.0
N2994 N 0.59563 0.18233 0.60443 0.0
N2995 N 0.60682 0.19717 0.64669 0.0
H2996 H 0.32087 0.95137 0.41903 0.0
H2997 H 0.34957 0.9236 0.32095 0.0
H2998 H 0.30256 0.92347 0.41526 0.0
H2999 H 0.36703 0.95149 0.32569 0.0
H3000 H 0.33095 0.92337 0.35517 0.0
H3001 H 0.33476 0.95157 0.38432 0.0
C3002 C 0.31914 0.9453 0.41085 0.0
C3003 C 0.31045 0.93738 0.42014 0.0
C3004 C 0.33881 0.92954 0.3487 0.0
C3005 C 0.3273 0.93754 0.38031 0.0
C3006 C 0.34971 0.92966 0.32922 0.0
C3007 C 0.35987 0.93758 0.32042 0.0
C3008 C 0.33815 0.93739 0.35949 0.0
C3009 C 0.35901 0.94526 0.33176 0.0
C3010 C 0.32747 0.94541 0.39102 0.0
C3011 C 0.30949 0.9297 0.40877 0.0
N3012 N 0.34839 0.94497 0.35068 0.0
N3013 N 0.31798 0.92997 0.38947 0.0
H3014 H 0.37713 0.78355 0.42132 0.0
H3015 H 0.31905 0.81079 0.32717 0.0
H3016 H 0.36595 0.81171 0.42139 0.0
H3017 H 0.3698 0.7857 0.32301 0.0
H3018 H 0.32623 0.81036 0.36281 0.0
H3019 H 0.3655 0.78343 0.38603 0.0
C3020 C 0.3722 0.7897 0.41388 0.0
C3021 C 0.37269 0.79766 0.42418 0.0
C3022 C 0.33562 0.80494 0.35408 0.0
C3023 C 0.35899 0.79756 0.38407 0.0
C3024 C 0.33127 0.80514 0.33382 0.0
C3025 C 0.34398 0.79829 0.32222 0.0
C3026 C 0.35235 0.79776 0.36277 0.0
C3027 C 0.35993 0.79115 0.33149 0.0
C3028 C 0.36566 0.78963 0.3938 0.0
C3029 C 0.36622 0.80545 0.4139 0.0
N3030 N 0.36365 0.79107 0.35126 0.0
N3031 N 0.35945 0.80521 0.39441 0.0
H3032 H 0.61307 0.56907 0.06493 0.0
H3033 H 0.60884 0.54651 0.17023 0.0
H3034 H 0.6795 0.54779 0.08241 0.0
H3035 H 0.55497 0.57061 0.15768 0.0
H3036 H 0.63358 0.54683 0.13758 0.0
H3037 H 0.59168 0.57003 0.09854 0.0
C3038 C 0.62365 0.56471 0.0759 0.0
C3039 C 0.64799 0.5583 0.07081 0.0
C3040 C 0.61632 0.55206 0.14188 0.0
C3041 C 0.62301 0.55924 0.10914 0.0
C3042 C 0.60181 0.55182 0.16047 0.0
C3043 C 0.57936 0.55848 0.16659 0.0
C3044 C 0.60835 0.55899 0.12916 0.0
C3045 C 0.57207 0.56534 0.1535 0.0
C3046 C 0.61119 0.56522 0.09504 0.0
C3047 C 0.66034 0.55274 0.08559 0.0
N3048 N 0.58641 0.5654 0.13533 0.0
N3049 N 0.64752 0.55329 0.10401 0.0
H3050 H 0.6182 0.68003 0.18177 0.0
H3051 H 0.65911 0.69709 0.07371 0.0
H3052 H 0.71058 0.69422 0.16689 0.0
H3053 H 0.5746 0.6799 0.08775 0.0
H3054 H 0.67784 0.69642 0.10783 0.0
H3055 H 0.60201 0.67995 0.1474 0.0
C3056 C 0.63545 0.683 0.17125 0.0
C3057 C 0.66601 0.68708 0.17729 0.0
C3058 C 0.65523 0.69279 0.10345 0.0
C3059 C 0.64695 0.68722 0.13779 0.0
C3060 C 0.64434 0.69323 0.08402 0.0
C3061 C 0.6151 0.68859 0.07792 0.0
C3062 C 0.63666 0.6877 0.11692 0.0
C3063 C 0.59738 0.68354 0.0918 0.0
C3064 C 0.62596 0.68302 0.1516 0.0
C3065 C 0.68667 0.69105 0.16296 0.0
N3066 N 0.60836 0.68326 0.11066 0.0
N3067 N 0.67671 0.69106 0.14388 0.0
H3068 H 0.41378 0.43035 0.82808 0.0
H3069 H 0.38053 0.45844 0.92487 0.0
H3070 H 0.40349 0.45854 0.82747 0.0
H3071 H 0.35621 0.4309 0.92038 0.0
H3072 H 0.39575 0.45855 0.89007 0.0
H3073 H 0.40071 0.43036 0.86315 0.0
C3074 C 0.40929 0.43655 0.83542 0.0
C3075 C 0.40972 0.44446 0.82492 0.0
C3076 C 0.38694 0.4525 0.89669 0.0
C3077 C 0.39441 0.44451 0.86487 0.0
C3078 C 0.37832 0.45243 0.9165 0.0
C3079 C 0.36708 0.44465 0.92542 0.0
C3080 C 0.38481 0.4447 0.88582 0.0
C3081 C 0.36448 0.43705 0.91397 0.0
C3082 C 0.40147 0.43654 0.85535 0.0
C3083 C 0.4032 0.4523 0.83505 0.0
N3084 N 0.37354 0.43724 0.89476 0.0
N3085 N 0.39584 0.45213 0.85448 0.0
H3086 H 0.36747 0.28358 0.82286 0.0
H3087 H 0.41189 0.31114 0.91864 0.0
H3088 H 0.35979 0.31179 0.82537 0.0
H3089 H 0.37871 0.28415 0.92131 0.0
H3090 H 0.40131 0.31112 0.88332 0.0
H3091 H 0.37906 0.28331 0.85815 0.0
C3092 C 0.36817 0.2897 0.83089 0.0
C3093 C 0.36259 0.29772 0.8213 0.0
C3094 C 0.39643 0.3052 0.89164 0.0
C3095 C 0.37624 0.29747 0.86139 0.0
C3096 C 0.40276 0.30518 0.91172 0.0
C3097 C 0.39617 0.29763 0.92283 0.0
C3098 C 0.38387 0.29758 0.88258 0.0
C3099 C 0.38391 0.29012 0.91322 0.0
C3100 C 0.37468 0.28955 0.85097 0.0
C3101 C 0.36363 0.30548 0.8323 0.0
N3102 N 0.37825 0.29027 0.8936 0.0
N3103 N 0.3706 0.30517 0.85177 0.0
H3104 H 0.23554 0.977 0.20946 0.0
H3105 H 0.27142 0.01762 0.2807 0.0
H3106 H 0.33706 0.98681 0.22201 0.0
H3107 H 0.17035 0.00977 0.26146 0.0
H3108 H 0.29626 0.00627 0.25962 0.0
H3109 H 0.21113 0.98919 0.22809 0.0
C3110 C 0.25262 0.98182 0.21587 0.0
C3111 C 0.2883 0.98091 0.2142 0.0
C3112 C 0.26864 0.00703 0.26012 0.0
C3113 C 0.26075 0.99475 0.23587 0.0
C3114 C 0.25446 0.01347 0.27221 0.0
C3115 C 0.21873 0.01459 0.27308 0.0
C3116 C 0.24691 0.00168 0.24883 0.0
C3117 C 0.19798 0.00902 0.26172 0.0
C3118 C 0.23874 0.98875 0.22657 0.0
C3119 C 0.30937 0.98733 0.22276 0.0
N3120 N 0.21237 0.00283 0.25009 0.0
N3121 N 0.29528 0.99393 0.23342 0.0
H3122 H 0.0179 0.26457 0.20864 0.0
H3123 H 0.97743 0.2229 0.27629 0.0
H3124 H 0.91547 0.25514 0.22041 0.0
H3125 H 0.07965 0.23185 0.2621 0.0
H3126 H 0.95395 0.23448 0.25531 0.0
H3127 H 0.04108 0.25214 0.22697 0.0
C3128 C 0.00034 0.25981 0.21483 0.0
C3129 C 0.96475 0.2609 0.21301 0.0
C3130 C 0.98152 0.23392 0.25689 0.0
C3131 C 0.99094 0.24674 0.23426 0.0
C3132 C 0.99489 0.22734 0.26891 0.0
C3133 C 0.03052 0.22647 0.27118 0.0
C3134 C 0.00397 0.23964 0.24703 0.0
C3135 C 0.05199 0.23239 0.26123 0.0
C3136 C 0.01353 0.25273 0.22535 0.0
C3137 C 0.9431 0.25451 0.22124 0.0
N3138 N 0.03838 0.2387 0.2496 0.0
N3139 N 0.95653 0.24775 0.23167 0.0
H3140 H 0.1635 0.23453 0.98604 0.0
H3141 H 0.33023 0.25793 0.02939 0.0
H3142 H 0.26638 0.22462 0.97798 0.0
H3143 H 0.22728 0.26785 0.03707 0.0
H3144 H 0.30702 0.24515 0.01261 0.0
H3145 H 0.18635 0.24653 0.00558 0.0
C3146 C 0.19102 0.23497 0.98808 0.0
C3147 C 0.21316 0.22863 0.98009 0.0
C3148 C 0.28945 0.25007 0.01815 0.0
C3149 C 0.23941 0.24225 0.00301 0.0
C3150 C 0.30264 0.25733 0.02798 0.0
C3151 C 0.28062 0.26398 0.03472 0.0
C3152 C 0.25398 0.24946 0.01489 0.0
C3153 C 0.24518 0.26292 0.03198 0.0
C3154 C 0.204 0.24176 -0.00053 0.0
C3155 C 0.24844 0.22938 0.98382 0.0
N3156 N 0.23297 0.25583 0.02216 0.0
N3157 N 0.2605 0.23608 0.995 0.0
H3158 H 0.98287 0.01903 0.96871 0.0
H3159 H 0.02438 0.97501 0.02833 0.0
H3160 H 0.08559 0.00959 0.97976 0.0
H3161 H 0.92273 0.98595 0.02218 0.0
H3162 H 0.04747 0.98748 0.00996 0.0
H3163 H 0.96013 0.00657 0.98719 0.0
C3164 C 0.00061 0.01431 0.97487 0.0
C3165 C 0.03616 0.01534 0.97258 0.0
C3166 C 0.02014 0.98718 0.01279 0.0
C3167 C 0.01041 0.00111 0.99383 0.0
C3168 C 0.00701 0.98008 0.0233 0.0
C3169 C 0.97165 0.97947 0.02692 0.0
C3170 C -0.00231 0.99367 0.0057 0.0
C3171 C 0.95025 0.98623 0.02008 0.0
C3172 C 0.98765 0.00721 0.98545 0.0
C3173 C 0.05797 0.00898 0.98079 0.0
N3174 N 0.96358 0.99301 0.00971 0.0
N3175 N 0.04474 0.00216 0.99109 0.0
H3176 H 0.66892 0.00827 0.77083 0.0
H3177 H 0.82405 0.98657 0.71168 0.0
H3178 H 0.77133 0.01908 0.76935 0.0
H3179 H 0.72193 0.97558 0.71379 0.0
H3180 H 0.80423 -0.00099 0.73095 0.0
H3181 H 0.6877 0.99638 0.74959 0.0
C3182 C 0.6956 0.00804 0.76638 0.0
C3183 C 0.71874 0.01463 0.77211 0.0
C3184 C 0.78603 0.99394 0.72703 0.0
C3185 C 0.74012 0.00115 0.74716 0.0
C3186 C 0.79719 0.98688 0.71575 0.0
C3187 C 0.77457 0.98001 0.71104 0.0
C3188 C 0.75203 0.99414 0.73377 0.0
C3189 C 0.74031 0.98069 0.71721 0.0
C3190 C 0.70617 0.00131 0.75399 0.0
C3191 C 0.75267 0.01414 0.7653 0.0
N3192 N 0.73014 0.98759 0.72838 0.0
N3193 N 0.76234 0.00752 0.75317 0.0
H3194 H 0.98229 0.72554 0.78236 0.0
H3195 H 0.02288 0.77113 0.7287 0.0
H3196 H 0.08476 0.73583 0.77506 0.0
H3197 H 0.92304 0.75885 0.72979 0.0
H3198 H 0.04597 0.75872 0.74734 0.0
H3199 H 0.9596 0.73843 0.76547 0.0
C3200 C -4e-05 0.73056 0.7774 0.0
C3201 C 0.03544 0.72961 0.78013 0.0
C3202 C 0.01906 0.75873 0.74337 0.0
C3203 C 0.00976 0.74432 0.76062 0.0
C3204 C 0.00593 0.76579 0.73271 0.0
C3205 C 0.97108 0.76599 0.72754 0.0
C3206 C 0.99708 0.75187 0.74905 0.0
C3207 C 0.95022 0.7589 0.73311 0.0
C3208 C 0.98704 0.7379 0.76771 0.0
C3209 C 0.05718 0.73635 0.77354 0.0
N3210 N 0.9635 0.75216 0.74362 0.0
N3211 N 0.04401 0.7434 0.76397 0.0
H3212 H 0.76493 0.72167 0.96122 0.0
H3213 H 0.74081 0.76815 0.01439 0.0
H3214 H 0.66629 0.73378 0.9713 0.0
H3215 H 0.83878 0.75556 0.00557 0.0
H3216 H 0.71256 0.75546 -0.00073 0.0
H3217 H 0.79256 0.73422 0.97696 0.0
C3218 C 0.74914 0.72701 0.96655 0.0
C3219 C 0.71329 0.72668 0.96489 0.0
C3220 C 0.74023 0.75546 0.00076 0.0
C3221 C 0.74459 0.741 0.9831 0.0
C3222 C 0.75625 0.76264 0.00956 0.0
C3223 C 0.79209 0.76289 0.01105 0.0
C3224 C 0.76031 0.74851 0.99348 0.0
C3225 C 0.81106 0.75565 0.00442 0.0
C3226 C 0.76487 0.73415 0.9756 0.0
C3227 C 0.69405 0.73381 0.97196 0.0
N3228 N 0.79496 0.74878 0.99581 0.0
N3229 N 0.70993 0.74065 0.98085 0.0
H3230 H 0.17825 0.50828 0.7836 0.0
H3231 H 0.33031 0.48537 0.72432 0.0
H3232 H 0.26297 0.5226 0.7585 0.0
H3233 H 0.23059 0.47346 0.73222 0.0
H3234 H 0.30981 0.49845 0.74104 0.0
H3235 H 0.20223 0.49464 0.77032 0.0
C3236 C 0.2024 0.5085 0.77574 0.0
C3237 C 0.21878 0.51653 0.77209 0.0
C3238 C 0.29238 0.49299 0.73903 0.0
C3239 C 0.24582 0.50108 0.75662 0.0
C3240 C 0.30389 0.48554 0.72923 0.0
C3241 C 0.28201 0.4783 0.72658 0.0
C3242 C 0.25887 0.4932 0.74647 0.0
C3243 C 0.24843 0.47884 0.73398 0.0
C3244 C 0.21578 0.50076 0.76796 0.0
C3245 C 0.24963 0.51652 0.76155 0.0
N3246 N 0.23789 0.48616 0.74364 0.0
N3247 N 0.26211 0.50891 0.75409 0.0
H3248 H 0.22326 0.76551 0.53927 0.0
H3249 H 0.2702 0.72561 0.46769 0.0
H3250 H 0.32679 0.7567 0.52813 0.0
H3251 H 0.1665 0.73345 0.48164 0.0
H3252 H 0.29159 0.737 0.48983 0.0
H3253 H 0.2018 0.75352 0.51883 0.0
C3254 C 0.24143 0.76099 0.53275 0.0
C3255 C 0.27686 0.76212 0.53544 0.0
C3256 C 0.26415 0.73625 0.48794 0.0
C3257 C 0.25259 0.74848 0.51182 0.0
C3258 C 0.25196 0.72977 0.47527 0.0
C3259 C 0.21653 0.72862 0.47263 0.0
C3260 C 0.24073 0.74159 0.49811 0.0
C3261 C 0.19405 0.73421 0.48282 0.0
C3262 C 0.2292 0.75417 0.52104 0.0
C3263 C 0.29925 0.75603 0.52671 0.0
N3264 N 0.20652 0.74043 0.49511 0.0
N3265 N 0.28676 0.74953 0.51516 0.0
H3266 H 0.95915 0.48987 0.54868 0.0
H3267 H 0.0412 0.50578 0.44713 0.0
H3268 H 0.98293 0.47249 0.50064 0.0
H3269 H 0.01338 0.52339 0.494 0.0
H3270 H 0.01836 0.49351 0.46621 0.0
H3271 H 0.97878 0.50228 0.52888 0.0
C3272 C 0.96877 0.48865 0.53405 0.0
C3273 C 0.96967 0.48011 0.52641 0.0
C3274 C 0.01693 0.50008 0.47224 0.0
C3275 C 0.99183 0.49428 0.5036 0.0
C3276 C 0.02986 0.50707 0.46131 0.0
C3277 C 0.02914 0.51561 0.46895 0.0
C3278 C 0.00345 0.50162 0.49101 0.0
C3279 C 0.01402 0.51693 0.48739 0.0
C3280 C 0.97987 0.49574 0.52273 0.0
C3281 C 0.98245 0.47892 0.50735 0.0
N3282 N 0.00205 0.51 0.49786 0.0
N3283 N 0.99292 0.48592 0.49661 0.0
H3284 H 0.69734 0.51248 0.28185 0.0
H3285 H 0.79636 0.48537 0.19885 0.0
H3286 H 0.73398 0.52403 0.22808 0.0
H3287 H 0.75896 0.47401 0.25263 0.0
H3288 H 0.77254 0.49955 0.20882 0.0
H3289 H 0.72137 0.49841 0.27173 0.0
C3290 C 0.71105 0.5121 0.26809 0.0
C3291 C 0.71363 0.51943 0.25577 0.0
C3292 C 0.76936 0.49394 0.21838 0.0
C3293 C 0.74036 0.50329 0.24382 0.0
C3294 C 0.78257 0.48583 0.21259 0.0
C3295 C 0.77971 0.47854 0.22499 0.0
C3296 C 0.75319 0.49473 0.23669 0.0
C3297 C 0.76206 0.47951 0.24276 0.0
C3298 C 0.72437 0.50403 0.26218 0.0
C3299 C 0.73111 0.51851 0.23792 0.0
N3300 N 0.74963 0.48747 0.24813 0.0
N3301 N 0.74366 0.51057 0.23242 0.0
H3302 H 0.75484 0.2737 0.48868 0.0
H3303 H 0.75206 0.22149 0.49777 0.0
H3304 H 0.80501 0.25959 0.53532 0.0
H3305 H 0.68207 0.23598 0.46092 0.0
H3306 H 0.77501 0.23536 0.51003 0.0
H3307 H 0.72984 0.25991 0.47712 0.0
C3308 C 0.7602 0.26769 0.49661 0.0
C3309 C 0.78194 0.26775 0.51296 0.0
C3310 C 0.75468 0.23549 0.49922 0.0
C3311 C 0.75405 0.25197 0.49966 0.0
C3312 C 0.74162 0.22758 0.49218 0.0
C3313 C 0.71505 0.22755 0.4783 0.0
C3314 C 0.74124 0.24345 0.49226 0.0
C3315 C 0.70289 0.23566 0.47138 0.0
C3316 C 0.74603 0.25984 0.48999 0.0
C3317 C 0.78809 0.25982 0.52276 0.0
N3318 N 0.71604 0.24328 0.47847 0.0
N3319 N 0.77448 0.25222 0.51583 0.0
H3320 H 0.4755 0.27151 0.74497 0.0
H3321 H 0.50407 0.21973 0.75325 0.0
H3322 H 0.4597 0.25361 0.69681 0.0
H3323 H 0.5312 0.2381 0.79878 0.0
H3324 H 0.48209 0.23187 0.73359 0.0
H3325 H 0.49285 0.25925 0.76544 0.0
C3326 C 0.4764 0.26502 0.73853 0.0
C3327 C 0.46664 0.26362 0.71898 0.0
C3328 C 0.4925 0.23324 0.74797 0.0
C3329 C 0.48539 0.24946 0.74272 0.0
C3330 C 0.50461 0.2263 0.75933 0.0
C3331 C 0.51944 0.22791 0.77772 0.0
C3332 C 0.49525 0.24186 0.75502 0.0
C3333 C 0.52017 0.23657 0.78464 0.0
C3334 C 0.48585 0.25799 0.75036 0.0
C3335 C 0.46706 0.255 0.71177 0.0
N3336 N 0.50845 0.24323 0.77323 0.0
N3337 N 0.47626 0.24823 0.72365 0.0
H3338 H 0.51574 0.0195 0.48995 0.0
H3339 H 0.49357 0.96757 0.47931 0.0
H3340 H 0.56215 0.00446 0.44341 0.0
H3341 H 0.45527 0.98261 0.52817 0.0
H3342 H 0.51942 0.98091 0.46592 0.0
H3343 H 0.49184 0.00603 0.50346 0.0
C3344 C 0.52035 0.01338 0.48235 0.0
C3345 C 0.54079 0.0131 0.46544 0.0
C3346 C 0.50563 0.98128 0.47966 0.0
C3347 C 0.51428 -0.0024 0.48118 0.0
C3348 C 0.49097 0.97367 0.48732 0.0
C3349 C 0.47218 0.97401 0.50483 0.0
C3350 C 0.50123 0.98928 0.48952 0.0
C3351 C 0.46981 0.98204 0.51472 0.0
C3352 C 0.50709 0.00566 0.49024 0.0
C3353 C 0.54665 0.00495 0.45652 0.0
N3354 N 0.48389 0.98938 0.50683 0.0
N3355 N 0.53349 -0.00249 0.46451 0.0
H3356 H 0.51392 0.72046 0.24282 0.0
H3357 H 0.47677 0.77189 0.2507 0.0
H3358 H 0.52936 0.73568 0.29536 0.0
H3359 H 0.46896 0.75729 0.19672 0.0
H3360 H 0.49311 0.7585 0.26763 0.0
H3361 H 0.49167 0.73354 0.2265 0.0
C3362 C 0.51183 0.72651 0.25107 0.0
C3363 C 0.52361 0.72701 0.27045 0.0
C3364 C 0.48804 0.75822 0.25206 0.0
C3365 C 0.49912 0.74203 0.25172 0.0
C3366 C 0.47918 0.7659 0.2423 0.0
C3367 C 0.47194 0.76575 0.22217 0.0
C3368 C 0.48958 0.75028 0.2417 0.0
C3369 C 0.47433 0.75771 0.21224 0.0
C3370 C 0.49957 0.734 0.24166 0.0
C3371 C 0.52088 0.73504 0.28033 0.0
N3372 N 0.48295 0.75028 0.22212 0.0
N3373 N 0.50917 0.74226 0.2708 0.0
H3374 H 0.51637 0.47847 0.03817 0.0
H3375 H 0.47862 0.51944 0.9679 0.0
H3376 H 0.41436 0.48739 0.02361 0.0
H3377 H 0.58017 0.51072 0.98416 0.0
H3378 H 0.4542 0.50793 0.98872 0.0
H3379 H 0.54017 0.49071 0.01944 0.0
C3380 C 0.49903 0.48308 0.03126 0.0
C3381 C 0.4634 0.48193 0.03249 0.0
C3382 C 0.48183 0.50852 0.98761 0.0
C3383 C 0.49029 0.49585 0.01079 0.0
C3384 C 0.49574 0.51507 0.9757 0.0
C3385 C 0.53147 0.51597 0.97406 0.0
C3386 C 0.50384 0.50288 -0.00199 0.0
C3387 C 0.55248 0.51013 0.98454 0.0
C3388 C 0.51256 0.49004 0.02051 0.0
C3389 C 0.44201 0.4881 0.0233 0.0
N3390 N 0.53836 0.50386 0.99606 0.0
N3391 N 0.45579 0.49476 0.01269 0.0
H3392 H 0.10048 0.14367 0.3358 0.0
H3393 H 0.18804 0.0983 0.30454 0.0
H3394 H 0.18211 0.14132 0.29355 0.0
H3395 H 0.08438 0.09981 0.3267 0.0
H3396 H 0.1935 0.11416 0.30855 0.0
H3397 H 0.10141 0.12761 0.34022 0.0
C3398 C 0.11886 0.13976 0.32771 0.0
C3399 C 0.14106 0.14371 0.31419 0.0
C3400 C 0.16969 0.11099 0.31273 0.0
C3401 C 0.14259 0.12557 0.31926 0.0
C3402 C 0.16649 0.10196 0.31038 0.0
C3403 C 0.13544 0.09774 0.31488 0.0
C3404 C 0.14173 0.11587 0.31972 0.0
C3405 C 0.10877 0.10278 0.32299 0.0
C3406 C 0.11934 0.13065 0.33017 0.0
C3407 C 0.16443 0.13845 0.30398 0.0
N3408 N 0.11237 0.11162 0.32494 0.0
N3409 N 0.16455 0.12964 0.30669 0.0
H3410 H 0.06318 0.14258 0.94556 0.0
H3411 H 0.16945 0.10085 0.91466 0.0
H3412 H 0.15981 0.14468 0.91515 0.0
H3413 H 0.0612 0.09997 0.92812 0.0
H3414 H 0.1659 0.11681 0.91233 0.0
H3415 H 0.06131 0.12696 0.93775 0.0
C3416 C 0.08393 0.13972 0.93713 0.0
C3417 C 0.11191 0.14485 0.9312 0.0
C3418 C 0.14281 0.11311 0.91546 0.0
C3419 C 0.11011 0.12699 0.92225 0.0
C3420 C 0.14475 0.10398 0.91668 0.0
C3421 C 0.11569 0.09905 0.92195 0.0
C3422 C 0.11171 0.11734 0.91976 0.0
C3423 C 0.08447 0.10351 0.92455 0.0
C3424 C 0.08277 0.13083 0.93255 0.0
C3425 C 0.1379 0.1409 0.92005 0.0
N3426 N 0.08343 0.1124 0.92375 0.0
N3427 N 0.13666 0.13215 0.91618 0.0
H3428 H 0.84979 0.89456 0.66376 0.0
H3429 H 0.93057 0.85066 0.70748 0.0
H3430 H 0.93146 0.89377 0.70635 0.0
H3431 H 0.85331 0.85056 0.66233 0.0
H3432 H 0.93593 0.86653 0.70398 0.0
H3433 H 0.85486 0.87859 0.65979 0.0
C3434 C 0.86903 0.89104 0.67208 0.0
C3435 C 0.88978 0.89545 0.68568 0.0
C3436 C 0.91804 0.86306 0.69463 0.0
C3437 C 0.8957 0.87727 0.68128 0.0
C3438 C 0.91503 0.85401 0.69664 0.0
C3439 C 0.89125 0.84936 0.68531 0.0
C3440 C 0.89669 0.86754 0.6814 0.0
C3441 C 0.87194 0.85395 0.67133 0.0
C3442 C 0.87188 0.88194 0.66985 0.0
C3443 C 0.91434 0.8906 0.69607 0.0
N3444 N 0.87468 0.86284 0.66996 0.0
N3445 N 0.9164 0.88178 0.69377 0.0
H3446 H 0.88338 0.89444 0.08124 0.0
H3447 H 0.82323 0.84977 0.03106 0.0
H3448 H 0.82643 0.89292 0.02718 0.0
H3449 H 0.86891 0.85062 0.08864 0.0
H3450 H 0.82138 0.86566 0.03069 0.0
H3451 H 0.8763 0.87855 0.08538 0.0
C3452 C 0.86922 0.89078 0.07032 0.0
C3453 C 0.85596 0.89498 0.05368 0.0
C3454 C 0.83153 0.86239 0.04352 0.0
C3455 C 0.84783 0.87685 0.05828 0.0
C3456 C 0.83226 0.85326 0.04385 0.0
C3457 C 0.84625 0.84877 0.05993 0.0
C3458 C 0.84524 0.86715 0.05927 0.0
C3459 C 0.85838 0.85377 0.07579 0.0
C3460 C 0.86524 0.88171 0.07267 0.0
C3461 C 0.83786 0.88992 0.03998 0.0
N3462 N 0.85788 0.8627 0.07499 0.0
N3463 N 0.83452 0.88114 0.04253 0.0
H3464 H 0.1708 0.59924 0.82573 0.0
H3465 H 0.06786 0.6442 0.81529 0.0
H3466 H 0.06053 0.60077 0.82079 0.0
H3467 H 0.17789 0.64254 0.82168 0.0
H3468 H 0.06371 0.62849 0.82223 0.0
H3469 H 0.17307 0.61519 0.82909 0.0
C3470 C 0.14703 0.60293 0.82559 0.0
C3471 C 0.11548 0.59868 0.82273 0.0
C3472 C 0.08873 0.63158 0.82233 0.0
C3473 C 0.11784 0.61695 0.82646 0.0
C3474 C 0.09109 0.64056 0.81847 0.0
C3475 C 0.12332 0.64466 0.81759 0.0
C3476 C 0.11883 0.62666 0.82528 0.0
C3477 C 0.15258 0.63961 0.82173 0.0
C3478 C 0.14831 0.61203 0.82755 0.0
C3479 C 0.08542 0.60377 0.823 0.0
N3480 N 0.14967 0.63087 0.82518 0.0
N3481 N 0.08738 0.61264 0.82454 0.0
H3482 H 0.0762 0.64257 0.45179 0.0
H3483 H 0.17114 0.59995 0.41516 0.0
H3484 H 0.15372 0.64385 0.40688 0.0
H3485 H 0.06998 0.59939 0.441 0.0
H3486 H 0.16598 0.61586 0.41137 0.0
H3487 H 0.07435 0.62662 0.44818 0.0
C3488 C 0.09268 0.63945 0.44107 0.0
C3489 C 0.11529 0.64445 0.42969 0.0
C3490 C 0.14476 0.61222 0.41761 0.0
C3491 C 0.11368 0.62624 0.42559 0.0
C3492 C 0.14759 0.60313 0.41971 0.0
C3493 C 0.12116 0.59831 0.42872 0.0
C3494 C 0.11551 0.61654 0.42479 0.0
C3495 C 0.09141 0.60284 0.43448 0.0
C3496 C 0.09153 0.63037 0.43893 0.0
C3497 C 0.136 0.64016 0.41591 0.0
N3498 N 0.08961 0.61169 0.43267 0.0
N3499 N 0.13509 0.63125 0.41442 0.0
H3500 H 0.90469 0.34824 0.16039 0.0
H3501 H 0.83636 0.3926 0.209 0.0
H3502 H 0.8395 0.34963 0.21136 0.0
H3503 H 0.89553 0.39243 0.15551 0.0
H3504 H 0.83451 0.37674 0.20827 0.0
H3505 H 0.8995 0.36425 0.15666 0.0
C3506 C 0.88916 0.35191 0.17069 0.0
C3507 C 0.87302 0.34764 0.18641 0.0
C3508 C 0.8477 0.38014 0.19655 0.0
C3509 C 0.86692 0.36584 0.18225 0.0
C3510 C 0.84846 0.38925 0.19684 0.0
C3511 C 0.86603 0.39393 0.18224 0.0
C3512 C 0.86497 0.37556 0.18169 0.0
C3513 C 0.88204 0.38912 0.16722 0.0
C3514 C 0.88626 0.36102 0.16859 0.0
C3515 C 0.85311 0.35268 0.19932 0.0
N3516 N 0.88135 0.38018 0.1674 0.0
N3517 N 0.8508 0.36148 0.197 0.0
H3518 H 0.82421 0.35078 0.54798 0.0
H3519 H 0.90404 0.39522 0.58882 0.0
H3520 H 0.89962 0.35119 0.59436 0.0
H3521 H 0.82161 0.39368 0.54683 0.0
H3522 H 0.89936 0.37929 0.59401 0.0
H3523 H 0.81877 0.36654 0.55056 0.0
C3524 C 0.83919 0.35412 0.55904 0.0
C3525 C 0.86262 0.34956 0.57089 0.0
C3526 C 0.88208 0.38247 0.58383 0.0
C3527 C 0.85734 0.36786 0.57339 0.0
C3528 C 0.8847 0.39154 0.58092 0.0
C3529 C 0.86364 0.39571 0.5671 0.0
C3530 C 0.85816 0.3776 0.57287 0.0
C3531 C 0.83893 0.39068 0.55727 0.0
C3532 C 0.83629 0.3632 0.56035 0.0
C3533 C 0.88177 0.35442 0.58459 0.0
N3534 N 0.8371 0.3819 0.56022 0.0
N3535 N 0.87905 0.36332 0.58529 0.0
H3536 H 0.64366 0.09984 0.77541 0.0
H3537 H 0.62886 0.14367 0.8396 0.0
H3538 H 0.61945 0.09938 0.83702 0.0
H3539 H 0.63538 0.14295 0.77659 0.0
H3540 H 0.63228 0.12754 0.84016 0.0
H3541 H 0.64843 0.11575 0.77687 0.0
C3542 C 0.63939 0.10311 0.78928 0.0
C3543 C 0.63058 0.09831 0.80605 0.0
C3544 C 0.63298 0.13094 0.82625 0.0
C3545 C 0.63603 0.11657 0.80787 0.0
C3546 C 0.6311 0.14012 0.82593 0.0
C3547 C 0.63131 0.14462 0.808 0.0
C3548 C 0.63554 0.1263 0.80853 0.0
C3549 C 0.63435 0.13973 0.7907 0.0
C3550 C 0.64217 0.1122 0.79013 0.0
C3551 C 0.62621 0.10286 0.82375 0.0
N3552 N 0.6363 0.13086 0.79141 0.0
N3553 N 0.62865 0.11177 0.82418 0.0
H3554 H 0.55046 0.14276 0.42523 0.0
H3555 H 0.67257 0.10064 0.42887 0.0
H3556 H 0.65965 0.14388 0.4359 0.0
H3557 H 0.56201 0.09924 0.43176 0.0
H3558 H 0.66859 0.1165 0.42457 0.0
H3559 H 0.55487 0.12687 0.42119 0.0
C3560 C 0.5754 0.13968 0.42664 0.0
C3561 C 0.60466 0.14467 0.43121 0.0
C3562 C 0.64518 0.11272 0.42596 0.0
C3563 C 0.60989 0.12649 0.42631 0.0
C3564 C 0.64741 0.10365 0.42825 0.0
C3565 C 0.61756 0.09861 0.43083 0.0
C3566 C 0.61289 0.1168 0.42621 0.0
C3567 C 0.58568 0.1029 0.43015 0.0
C3568 C 0.57789 0.13061 0.42423 0.0
C3569 C 0.63641 0.14033 0.43232 0.0
N3570 N 0.58419 0.11176 0.42803 0.0
N3571 N 0.63812 0.13149 0.43005 0.0
H3572 H 0.32328 0.89551 0.18917 0.0
H3573 H 0.41635 0.85031 0.16323 0.0
H3574 H 0.41528 0.89404 0.15402 0.0
H3575 H 0.3261 0.85267 0.19948 0.0
H3576 H 0.41254 0.86604 0.15582 0.0
H3577 H 0.31944 0.87961 0.18865 0.0
C3578 C 0.34232 0.89187 0.18096 0.0
C3579 C 0.36984 0.89615 0.17175 0.0
C3580 C 0.39346 0.86309 0.16528 0.0
C3581 C 0.36614 0.87782 0.17165 0.0
C3582 C 0.39559 0.85412 0.16947 0.0
C3583 C 0.37186 0.85023 0.18225 0.0
C3584 C 0.36731 0.86815 0.17388 0.0
C3585 C 0.34544 0.85545 0.18993 0.0
C3586 C 0.3403 0.88275 0.18085 0.0
C3587 C 0.39401 0.89101 0.16166 0.0
N3588 N 0.34402 0.86414 0.18572 0.0
N3589 N 0.39183 0.8821 0.16206 0.0
H3590 H 0.32578 0.89271 0.57768 0.0
H3591 H 0.42815 0.84911 0.54911 0.0
H3592 H 0.42193 0.89227 0.54637 0.0
H3593 H 0.32684 0.84882 0.57462 0.0
H3594 H 0.43019 0.86498 0.55326 0.0
H3595 H 0.32986 0.87677 0.5821 0.0
C3596 C 0.34805 0.88927 0.57207 0.0
C3597 C 0.37337 0.89377 0.56143 0.0
C3598 C 0.40755 0.86146 0.55809 0.0
C3599 C 0.37804 0.8756 0.56625 0.0
C3600 C 0.40632 0.8524 0.55564 0.0
C3601 C 0.377 0.84768 0.56119 0.0
C3602 C 0.37917 0.86587 0.56606 0.0
C3603 C 0.34985 0.85224 0.57006 0.0
C3604 C 0.35026 0.88018 0.57448 0.0
C3605 C 0.40157 0.88902 0.55436 0.0
N3606 N 0.3514 0.86112 0.57201 0.0
N3607 N 0.403 0.88019 0.55676 0.0
H3608 H 0.66261 0.64365 0.33069 0.0
H3609 H 0.54527 0.60156 0.31114 0.0
H3610 H 0.55966 0.64478 0.30753 0.0
H3611 H 0.65344 0.60018 0.32447 0.0
H3612 H 0.54694 0.61739 0.31642 0.0
H3613 H 0.65622 0.6278 0.33508 0.0
C3614 C 0.63844 0.64059 0.32686 0.0
C3615 C 0.61175 0.64552 0.31852 0.0
C3616 C 0.57024 0.61361 0.31841 0.0
C3617 C 0.60445 0.62739 0.32327 0.0
C3618 C 0.56926 0.60456 0.31556 0.0
C3619 C 0.59935 0.59954 0.31721 0.0
C3620 C 0.60153 0.6177 0.32295 0.0
C3621 C 0.62977 0.60382 0.32272 0.0
C3622 C 0.6349 0.63153 0.32924 0.0
C3623 C 0.5811 0.6412 0.31368 0.0
N3624 N 0.63015 0.61267 0.32524 0.0
N3625 N 0.57838 0.63237 0.31597 0.0
H3626 H 0.54951 0.64177 0.9353 0.0
H3627 H 0.66818 0.6003 0.91375 0.0
H3628 H 0.65434 0.64386 0.91521 0.0
H3629 H 0.56432 0.59881 0.93545 0.0
H3630 H 0.66088 0.61612 0.90889 0.0
H3631 H 0.55173 0.62603 0.92994 0.0
C3632 C 0.57284 0.63896 0.92939 0.0
C3633 C 0.6019 0.64419 0.92588 0.0
C3634 C 0.63956 0.61231 0.91448 0.0
C3635 C 0.60488 0.62602 0.92021 0.0
C3636 C 0.64364 0.60328 0.91715 0.0
C3637 C 0.61695 0.59828 0.92528 0.0
C3638 C 0.60857 0.61633 0.91998 0.0
C3639 C 0.58578 0.60247 0.92952 0.0
C3640 C 0.57418 0.62993 0.92649 0.0
C3641 C 0.63154 0.64009 0.91853 0.0
N3642 N 0.58256 0.61126 0.927 0.0
N3643 N 0.6324 0.63123 0.91615 0.0
H3644 H 0.31475 0.39225 0.69907 0.0
H3645 H 0.41355 0.34822 0.67058 0.0
H3646 H 0.41444 0.39219 0.67161 0.0
H3647 H 0.31102 0.34911 0.69438 0.0
H3648 H 0.41249 0.36425 0.66725 0.0
H3649 H 0.31084 0.37644 0.69402 0.0
C3650 C 0.3357 0.38889 0.69182 0.0
C3651 C 0.3651 0.39349 0.68594 0.0
C3652 C 0.39011 0.36092 0.67301 0.0
C3653 C 0.36106 0.37537 0.68024 0.0
C3654 C 0.39067 0.35178 0.67484 0.0
C3655 C 0.36257 0.34736 0.68309 0.0
C3656 C 0.36121 0.36564 0.67947 0.0
C3657 C 0.33357 0.35228 0.68839 0.0
C3658 C 0.33348 0.37987 0.68889 0.0
C3659 C 0.39133 0.38886 0.67635 0.0
N3660 N 0.33378 0.36114 0.68666 0.0
N3661 N 0.38891 0.38001 0.67403 0.0
H3662 H 0.33816 0.39471 0.08588 0.0
H3663 H 0.41897 0.35218 0.03521 0.0
H3664 H 0.41978 0.3953 0.04313 0.0
H3665 H 0.33408 0.35099 0.07572 0.0
H3666 H 0.42295 0.36793 0.04063 0.0
H3667 H 0.33987 0.37865 0.08522 0.0
C3668 C 0.35662 0.39147 0.07649 0.0
C3669 C 0.3787 0.39638 0.06444 0.0
C3670 C 0.40347 0.36425 0.0484 0.0
C3671 C 0.38081 0.37803 0.06365 0.0
C3672 C 0.40102 0.35525 0.0452 0.0
C3673 C 0.37577 0.35029 0.05479 0.0
C3674 C 0.38045 0.36836 0.06127 0.0
C3675 C 0.35386 0.35458 0.068 0.0
C3676 C 0.35763 0.38231 0.07615 0.0
C3677 C 0.40248 0.39183 0.05281 0.0
N3678 N 0.35651 0.3634 0.07074 0.0
N3679 N 0.40269 0.38293 0.05259 0.0
H3680 H 0.91529 0.05159 0.3226 0.0
H3681 H 0.82154 0.02822 0.41271 0.0
H3682 H 0.94684 0.02627 0.34468 0.0
H3683 H 0.80263 0.05475 0.39336 0.0
H3684 H 0.86321 0.02646 0.38596 0.0
H3685 H 0.86842 0.05171 0.34587 0.0
C3686 C 0.91204 0.04595 0.33207 0.0
C3687 C 0.93524 0.03891 0.33165 0.0
C3688 C 0.84989 0.03266 0.38763 0.0
C3689 C 0.88189 0.03917 0.35899 0.0
C3690 C 0.82618 0.03366 0.40284 0.0
C3691 C 0.80905 0.04169 0.4054 0.0
C3692 C 0.85608 0.03971 0.37484 0.0
C3693 C 0.81584 0.04852 0.39221 0.0
C3694 C 0.8854 0.04609 0.34559 0.0
C3695 C 0.92991 0.0319 0.34469 0.0
N3696 N 0.83879 0.04737 0.37755 0.0
N3697 N 0.9039 0.03224 0.35797 0.0
H3698 H 0.34499 0.21051 0.31369 0.0
H3699 H 0.40514 0.21323 0.42475 0.0
H3700 H 0.27538 0.21306 0.36249 0.0
H3701 H 0.47392 0.21001 0.37577 0.0
H3702 H 0.35831 0.21628 0.40188 0.0
H3703 H 0.3931 0.21332 0.33572 0.0
C3704 C 0.33983 0.21177 0.32901 0.0
C3705 C 0.30622 0.2114 0.33634 0.0
C3706 C 0.38376 0.21503 0.39614 0.0
C3707 C 0.3611 0.21458 0.36168 0.0
C3708 C 0.41053 0.21334 0.4092 0.0
C3709 C 0.44325 0.21119 0.40211 0.0
C3710 C 0.38984 0.21455 0.37589 0.0
C3711 C 0.44882 0.21142 0.38182 0.0
C3712 C 0.36727 0.2134 0.34158 0.0
C3713 C 0.30089 0.21327 0.35623 0.0
N3714 N 0.42229 0.21294 0.36942 0.0
N3715 N 0.32811 0.21463 0.36828 0.0
H3716 H 0.78465 0.21505 0.85778 0.0
H3717 H 0.97821 0.20105 0.87037 0.0
H3718 H 0.84665 0.20487 0.81059 0.0
H3719 H 0.92468 0.21657 0.91338 0.0
H3720 H 0.93204 0.20384 0.84704 0.0
H3721 H 0.8367 0.21733 0.87705 0.0
C3722 C 0.80925 0.21347 0.8513 0.0
C3723 C 0.81124 0.20959 0.83269 0.0
C3724 C 0.9305 0.20676 0.86147 0.0
C3725 C 0.87079 0.21203 0.8548 0.0
C3726 C 0.95679 0.20513 0.87477 0.0
C3727 C 0.95483 0.20849 0.89381 0.0
C3728 C 0.90169 0.21163 0.86739 0.0
C3729 C 0.9269 0.21384 0.89881 0.0
C3730 C 0.83897 0.21474 0.86235 0.0
C3731 C 0.84383 0.20764 0.82509 0.0
N3732 N 0.90101 0.21512 0.88577 0.0
N3733 N 0.87225 0.20875 0.83628 0.0
H3734 H 0.27607 0.03055 0.88048 0.0
H3735 H 0.47973 0.03274 0.8757 0.0
H3736 H 0.34171 0.03458 0.93052 0.0
H3737 H 0.41455 0.03083 0.82485 0.0
H3738 H 0.43003 0.02994 0.89655 0.0
H3739 H 0.32666 0.02707 0.86075 0.0
C3740 C 0.30107 0.03051 0.88741 0.0
C3741 C 0.30487 0.03303 0.90704 0.0
C3742 C 0.42662 0.03001 0.88082 0.0
C3743 C 0.36274 0.02918 0.88456 0.0
C3744 C 0.45495 0.03164 0.86894 0.0
C3745 C 0.45102 0.0322 0.84858 0.0
C3746 C 0.39405 0.02903 0.87229 0.0
C3747 C 0.41859 0.0305 0.84051 0.0
C3748 C 0.32994 0.02857 0.87612 0.0
C3749 C 0.33781 0.03289 0.9153 0.0
N3750 N 0.39117 0.02914 0.85242 0.0
N3751 N 0.36553 0.03112 0.90395 0.0
H3752 H 0.17779 0.96638 0.58542 0.0
H3753 H 0.09602 0.95077 0.68691 0.0
H3754 H 0.22388 0.94745 0.62431 0.0
H3755 H 0.04062 0.96586 0.64382 0.0
H3756 H 0.14803 0.95224 0.66726 0.0
H3757 H 0.13241 0.96892 0.60969 0.0
C3758 C 0.17861 0.96287 0.5992 0.0
C3759 C 0.20422 0.9566 0.60279 0.0
C3760 C 0.12461 0.95532 0.66219 0.0
C3761 C 0.15264 0.95944 0.63048 0.0
C3762 C 0.09492 0.95447 0.67339 0.0
C3763 C 0.06385 0.95806 0.6668 0.0
C3764 C 0.12323 0.95977 0.6442 0.0
C3765 C 0.06403 0.96297 0.64941 0.0
C3766 C 0.15269 0.96429 0.61299 0.0
C3767 C 0.20416 0.95221 0.62083 0.0
N3768 N 0.09318 0.96357 0.63855 0.0
N3769 N 0.17863 0.95367 0.63393 0.0
H3770 H 0.72957 0.79538 0.61923 0.0
H3771 H 0.53811 0.77817 0.60354 0.0
H3772 H 0.67441 0.78015 0.66218 0.0
H3773 H 0.59273 0.7946 0.56259 0.0
H3774 H 0.59084 0.77663 0.62273 0.0
H3775 H 0.68284 0.79306 0.59606 0.0
C3776 C 0.70761 0.79151 0.62374 0.0
C3777 C 0.70553 0.78808 0.64275 0.0
C3778 C 0.59139 0.78047 0.60941 0.0
C3779 C 0.65189 0.78539 0.61631 0.0
C3780 C 0.56137 0.78131 0.59839 0.0
C3781 C 0.56099 0.78663 0.58162 0.0
C3782 C 0.62115 0.78498 0.60357 0.0
C3783 C 0.59177 0.79059 0.57566 0.0
C3784 C 0.681 0.79016 0.61049 0.0
C3785 C 0.67694 0.78293 0.64768 0.0
N3786 N 0.62049 0.78976 0.58672 0.0
N3787 N 0.65097 0.78184 0.63461 0.0
H3788 H 0.23591 0.79283 0.1187 0.0
H3789 H 0.03466 0.78548 0.11205 0.0
H3790 H 0.17466 0.78317 0.16669 0.0
H3791 H 0.09791 0.79241 0.06249 0.0
H3792 H 0.08637 0.78276 0.13117 0.0
H3793 H 0.18689 0.79093 0.09685 0.0
C3794 C 0.21215 0.79022 0.12456 0.0
C3795 C 0.20904 0.78829 0.14454 0.0
C3796 C 0.08897 0.78477 0.11605 0.0
C3797 C 0.15282 0.78615 0.11973 0.0
C3798 C 0.05941 0.7863 0.10507 0.0
C3799 C 0.06193 0.78931 0.0857 0.0
C3800 C 0.12129 0.78634 0.10766 0.0
C3801 C 0.09475 0.79032 0.07752 0.0
C3802 C 0.18423 0.78911 0.1121 0.0
C3803 C 0.17801 0.78477 0.15137 0.0
N3804 N 0.12314 0.78894 0.08861 0.0
N3805 N 0.15087 0.78394 0.13903 0.0
H3806 H 0.73869 0.9493 0.13238 0.0
H3807 H 0.54655 0.96493 0.15102 0.0
H3808 H 0.68006 0.96454 0.09097 0.0
H3809 H 0.60615 0.95003 0.19262 0.0
H3810 H 0.59805 0.96697 0.13119 0.0
H3811 H 0.6934 0.95142 0.15661 0.0
C3812 C 0.71631 0.95313 0.12843 0.0
C3813 C 0.71281 0.95662 0.10954 0.0
C3814 C 0.59999 0.96336 0.1448 0.0
C3815 C 0.66087 0.95909 0.13721 0.0
C3816 C 0.57062 0.96225 0.15622 0.0
C3817 C 0.57194 0.95719 0.17338 0.0
C3818 C 0.63085 0.95934 0.15052 0.0
C3819 C 0.60381 0.9538 0.17927 0.0
C3820 C 0.69054 0.95438 0.1423 0.0
C3821 C 0.68372 0.96171 0.10535 0.0
N3822 N 0.63189 0.95485 0.16774 0.0
N3823 N 0.65862 0.9627 0.119 0.0
H3824 H 0.90235 0.53213 0.81093 0.0
H3825 H 0.83489 0.53134 0.92118 0.0
H3826 H 0.9684 0.53263 0.86165 0.0
H3827 H 0.77108 0.53674 0.871 0.0
H3828 H 0.88257 0.5279 0.89916 0.0
H3829 H 0.85299 0.52988 0.83245 0.0
C3830 C 0.90653 0.53165 0.82657 0.0
C3831 C 0.93947 0.53276 0.83453 0.0
C3832 C 0.858 0.52973 0.89298 0.0
C3833 C 0.88319 0.53016 0.85918 0.0
C3834 C 0.83077 0.53166 0.90552 0.0
C3835 C 0.79923 0.53448 0.89788 0.0
C3836 C 0.85356 0.53061 0.87267 0.0
C3837 C 0.79526 0.53479 0.87748 0.0
C3838 C 0.87838 0.53035 0.83883 0.0
C3839 C 0.94351 0.53184 0.85485 0.0
N3840 N 0.82222 0.53297 0.86558 0.0
N3841 N 0.91561 0.53073 0.86651 0.0
H3842 H 0.31942 0.71588 0.83463 0.0
H3843 H 0.39898 0.69438 0.93115 0.0
H3844 H 0.28533 0.69169 0.86104 0.0
H3845 H 0.44292 0.71725 0.90341 0.0
H3846 H 0.35136 0.69498 0.90842 0.0
H3847 H 0.35988 0.7179 0.86192 0.0
C3848 C 0.32037 0.71104 0.84621 0.0
C3849 C 0.29958 0.70353 0.84545 0.0
C3850 C 0.37122 0.69993 0.90736 0.0
C3851 C 0.34515 0.70581 0.87659 0.0
C3852 C 0.39835 0.69966 0.92056 0.0
C3853 C 0.42532 0.70573 0.91917 0.0
C3854 C 0.37102 0.70626 0.89244 0.0
C3855 C 0.42309 0.71232 0.90478 0.0
C3856 C 0.34339 0.71218 0.86173 0.0
C3857 C 0.30153 0.69746 0.86083 0.0
N3858 N 0.3966 0.71235 0.89181 0.0
N3859 N 0.32398 0.69872 0.87569 0.0
H3860 H 0.96171 0.71685 0.38627 0.0
H3861 H 0.7665 0.70389 0.38081 0.0
H3862 H 0.90393 0.70691 0.43537 0.0
H3863 H 0.81755 0.71829 0.33498 0.0
H3864 H 0.81418 0.70715 0.40281 0.0
H3865 H 0.90781 0.7198 0.36911 0.0
C3866 C 0.93766 0.71548 0.39361 0.0
C3867 C 0.93723 0.71143 0.41205 0.0
C3868 C 0.81483 0.70974 0.38806 0.0
C3869 C 0.87565 0.71465 0.39246 0.0
C3870 C 0.78765 0.70786 0.37553 0.0
C3871 C 0.78855 0.71073 0.35608 0.0
C3872 C 0.8435 0.71434 0.38091 0.0
C3873 C 0.81618 0.71593 0.3499 0.0
C3874 C 0.90689 0.71713 0.38379 0.0
C3875 C 0.90539 0.7098 0.42092 0.0
N3876 N 0.843 0.71743 0.36219 0.0
N3877 N 0.8759 0.71127 0.41091 0.0
H3878 H 0.41232 0.52754 0.32314 0.0
H3879 H 0.3501 0.54608 0.42271 0.0
H3880 H 0.48327 0.53822 0.36535 0.0
H3881 H 0.29765 0.52395 0.39663 0.0
H3882 H 0.39899 0.54325 0.40172 0.0
H3883 H 0.36934 0.52599 0.34921 0.0
C3884 C 0.41899 0.5294 0.33796 0.0
C3885 C 0.4512 0.53307 0.34213 0.0
C3886 C 0.37694 0.53894 0.4008 0.0
C3887 C 0.40231 0.53147 0.37174 0.0
C3888 C 0.34889 0.54051 0.41292 0.0
C3889 C 0.31919 0.5353 0.41148 0.0
C3890 C 0.37518 0.53226 0.38673 0.0
C3891 C 0.31941 0.52832 0.39796 0.0
C3892 C 0.3946 0.52849 0.3528 0.0
C3893 C 0.45876 0.53534 0.36155 0.0
N3894 N 0.3467 0.52711 0.38585 0.0
N3895 N 0.43424 0.53467 0.37558 0.0
H3896 H 0.09727 0.45663 0.18293 0.0
H3897 H 0.16198 0.46365 0.07336 0.0
H3898 H 0.02996 0.46212 0.13429 0.0
H3899 H 0.22642 0.45532 0.12122 0.0
H3900 H 0.11544 0.46646 0.09671 0.0
H3901 H 0.14665 0.45944 0.16182 0.0
C3902 C 0.09292 0.45851 0.16785 0.0
C3903 C 0.05955 0.45898 0.16024 0.0
C3904 C 0.13993 0.46413 0.10212 0.0
C3905 C 0.11581 0.46218 0.13599 0.0
C3906 C 0.16646 0.46256 0.08882 0.0
C3907 C 0.1977 0.45907 0.09539 0.0
C3908 C 0.14486 0.4622 0.12205 0.0
C3909 C 0.20235 0.4578 0.11554 0.0
C3910 C 0.12107 0.46015 0.15581 0.0
C3911 C 0.05528 0.46166 0.14073 0.0
N3912 N 0.17608 0.45927 0.12813 0.0
N3913 N 0.08313 0.46303 0.12917 0.0
H3914 H 0.65034 0.2955 0.18588 0.0
H3915 H 0.57478 0.28169 0.0817 0.0
H3916 H 0.70699 0.28026 0.14358 0.0
H3917 H 0.52124 0.29781 0.1237 0.0
H3918 H 0.62022 0.27921 0.10587 0.0
H3919 H 0.59953 0.29447 0.16513 0.0
C3920 C 0.65193 0.29186 0.17229 0.0
C3921 C 0.68297 0.28806 0.1663 0.0
C3922 C 0.59838 0.28323 0.10983 0.0
C3923 C 0.62505 0.2869 0.14238 0.0
C3924 C 0.57243 0.28462 0.09607 0.0
C3925 C 0.54453 0.29008 0.10062 0.0
C3926 C 0.59629 0.28731 0.12824 0.0
C3927 C 0.54273 0.29373 0.11944 0.0
C3928 C 0.62294 0.29127 0.16045 0.0
C3929 C 0.68352 0.28329 0.14873 0.0
N3930 N 0.56836 0.29233 0.13249 0.0
N3931 N 0.65509 0.28294 0.13724 0.0
H3932 H 0.0137 0.28657 0.62294 0.0
H3933 H 0.21265 0.27618 0.63878 0.0
H3934 H 0.08462 0.28125 0.57589 0.0
H3935 H 0.14822 0.289 0.68144 0.0
H3936 H 0.16222 0.27393 0.61794 0.0
H3937 H 0.05914 0.28336 0.64654 0.0
C3938 C 0.03864 0.28454 0.61758 0.0
C3939 C 0.04561 0.28429 0.59744 0.0
C3940 C 0.15907 0.2771 0.63201 0.0
C3941 C 0.09767 0.28069 0.62433 0.0
C3942 C 0.18774 0.27833 0.64395 0.0
C3943 C 0.18454 0.28288 0.6617 0.0
C3944 C 0.12707 0.2804 0.63798 0.0
C3945 C 0.15177 0.28559 0.66769 0.0
C3946 C 0.06459 0.28276 0.63105 0.0
C3947 C 0.07843 0.28168 0.59131 0.0
N3948 N 0.12432 0.28438 0.65576 0.0
N3949 N 0.10339 0.28006 0.60471 0.0
H3950 H 0.56521 0.46459 0.66021 0.0
H3951 H 0.65288 0.44669 0.56262 0.0
H3952 H 0.51943 0.44559 0.62135 0.0
H3953 H 0.70125 0.46554 0.60075 0.0
H3954 H 0.59989 0.44813 0.58136 0.0
H3955 H 0.61126 0.4669 0.63628 0.0
C3956 C 0.56462 0.461 0.64653 0.0
C3957 C 0.53888 0.45476 0.64288 0.0
C3958 C 0.6219 0.45204 0.58555 0.0
C3959 C 0.59134 0.45734 0.61557 0.0
C3960 C 0.65212 0.45121 0.57486 0.0
C3961 C 0.68148 0.45591 0.58036 0.0
C3962 C 0.62113 0.45752 0.60208 0.0
C3963 C 0.6791 0.46178 0.59611 0.0
C3964 C 0.59092 0.4623 0.63291 0.0
C3965 C 0.53927 0.4503 0.62495 0.0
N3966 N 0.64955 0.46233 0.60665 0.0
N3967 N 0.56523 0.45161 0.61206 0.0
loop_
_geom_bond_atom_site_label_1
_geom_bond_atom_site_label_2
_geom_bond_distance
_geom_bond_site_symmetry_2
_ccdc_geom_bond_type
Li0 N17 1.990 . S
Li0 O60 1.956 . S
Li0 O61 1.970 . S
Li0 O62 1.961 . S
Li1 N25 1.990 . S
Li1 O60 1.970 . S
Li1 O61 1.956 . S
Li1 O63 1.961 . S
Li2 N47 1.990 . S
Li2 O60 1.961 . S
Li2 O62 1.956 . S
Li2 O63 1.970 . S
Li3 N53 1.990 . S
Li3 O61 1.961 . S
Li3 O62 1.970 . S
Li3 O63 1.956 . S
C4 C6 1.348 . S
C4 C7 1.356 . S
C4 O60 1.325 . S
N5 C8 1.314 1_655 S
N5 C9 1.279 . S
C6 C4 1.348 . S
C6 C8 1.353 . S
C6 H64 0.929 . S
C7 C4 1.356 . S
C7 C9 1.358 1_455 S
C7 H65 0.930 . S
C8 N5 1.314 1_455 S
C8 C6 1.353 . S
C8 H66 0.930 . S
C9 N5 1.279 . S
C9 C7 1.358 1_655 S
C9 H67 0.930 . S
C10 C13 1.348 . S
C10 C14 1.356 . S
C10 O61 1.325 . S
C11 N12 1.279 . S
C11 C14 1.358 . S
C11 H68 0.930 . S
N12 C11 1.279 . S
N12 C15 1.314 . S
C13 C10 1.348 . S
C13 C15 1.353 . S
C13 H69 0.929 . S
C14 C10 1.356 . S
C14 C11 1.358 . S
C14 H70 0.930 . S
C15 N12 1.314 . S
C15 C13 1.353 . S
C15 H71 0.930 . S
C16 N17 1.314 . S
C16 C21 1.353 1_455 S
C16 H22 0.930 . S
N17 Li0 1.990 . S
N17 C16 1.314 . S
N17 C19 1.279 1_455 S
C18 C19 1.358 . S
C18 C20 1.356 . S
C18 H72 0.930 . S
C19 N17 1.279 1_655 S
C19 C18 1.358 . S
C19 H23 0.930 . S
C20 C18 1.356 . S
C20 C21 1.348 . S
C21 C16 1.353 1_655 S
C21 C20 1.348 . S
C21 H73 0.929 . S
H22 C16 0.930 . S
H23 C19 0.930 . S
C24 N25 1.314 . S
C24 C26 1.353 . S
C24 H30 0.930 . S
N25 Li1 1.990 . S
N25 C24 1.314 . S
N25 C28 1.279 . S
C26 C24 1.353 . S
C26 C29 1.348 . S
C26 H74 0.929 . S
C27 C28 1.358 . S
C27 C29 1.356 . S
C27 H75 0.930 . S
C28 N25 1.279 . S
C28 C27 1.358 . S
C28 H31 0.930 . S
C29 C26 1.348 . S
C29 C27 1.356 . S
H30 C24 0.930 . S
H31 C28 0.930 . S
C32 C34 1.348 . S
C32 C35 1.356 . S
C32 O62 1.325 . S
N33 C36 1.314 . S
N33 C37 1.279 . S
C34 C32 1.348 . S
C34 C36 1.353 . S
C34 H76 0.929 . S
C35 C32 1.356 . S
C35 C37 1.358 . S
C35 H77 0.930 . S
C36 N33 1.314 . S
C36 C34 1.353 . S
C36 H78 0.930 . S
C37 N33 1.279 . S
C37 C35 1.358 . S
C37 H79 0.930 1_455 S
C38 C39 1.348 . S
C38 C40 1.356 . S
C38 O63 1.325 . S
C39 C38 1.348 . S
C39 C41 1.353 . S
C39 H80 0.929 . S
C40 C38 1.356 . S
C40 C42 1.358 . S
C40 H81 0.930 . S
C41 C39 1.353 . S
C41 N43 1.314 . S
C41 H82 0.930 . S
C42 C40 1.358 . S
C42 N43 1.279 . S
C42 H83 0.930 . S
N43 C41 1.314 . S
N43 C42 1.279 . S
C44 C46 1.353 . S
C44 N47 1.314 . S
C44 H50 0.930 . S
C45 N47 1.279 . S
C45 C48 1.358 . S
C45 H51 0.930 . S
C46 C44 1.353 . S
C46 C49 1.348 . S
C46 H84 0.929 . S
N47 Li2 1.990 . S
N47 C44 1.314 . S
N47 C45 1.279 . S
C48 C45 1.358 . S
C48 C49 1.356 . S
C48 H85 0.930 . S
C49 C46 1.348 . S
C49 C48 1.356 . S
H50 C44 0.930 . S
H51 C45 0.930 . S
C52 N53 1.314 . S
C52 C54 1.353 . S
C52 H58 0.930 . S
N53 Li3 1.990 . S
N53 C52 1.314 . S
N53 C56 1.279 . S
C54 C52 1.353 . S
C54 C57 1.348 . S
C54 H86 0.929 . S
C55 C56 1.358 . S
C55 C57 1.356 . S
C55 H87 0.930 . S
C56 N53 1.279 . S
C56 C55 1.358 . S
C56 H59 0.930 . S
C57 C54 1.348 . S
C57 C55 1.356 . S
H58 C52 0.930 . S
H59 C56 0.930 . S
O60 Li0 1.956 . S
O60 Li1 1.970 . S
O60 Li2 1.961 . S
O60 C4 1.325 . S
O61 Li0 1.970 . S
O61 Li1 1.956 . S
O61 Li3 1.961 . S
O61 C10 1.325 . S
O62 Li0 1.961 . S
O62 Li2 1.956 . S
O62 Li3 1.970 . S
O62 C32 1.325 . S
O63 Li1 1.961 . S
O63 Li2 1.970 . S
O63 Li3 1.956 . S
O63 C38 1.325 . S
H64 C6 0.929 . S
H65 C7 0.930 . S
H66 C8 0.930 . S
H67 C9 0.930 . S
H68 C11 0.930 . S
H69 C13 0.929 . S
H70 C14 0.930 . S
H71 C15 0.930 . S
H72 C18 0.930 . S
H73 C21 0.929 . S
H74 C26 0.929 . S
H75 C27 0.930 . S
H76 C34 0.929 . S
H77 C35 0.930 . S
H78 C36 0.930 . S
H79 C37 0.930 1_655 S
H80 C39 0.929 . S
H81 C40 0.930 . S
H82 C41 0.930 . S
H83 C42 0.930 . S
H84 C46 0.929 . S
H85 C48 0.930 . S
H86 C54 0.929 . S
H87 C55 0.930 . S
Li88 N105 1.990 . S
Li88 O148 1.956 . S
Li88 O149 1.970 . S
Li88 O150 1.961 . S
Li89 N113 1.990 . S
Li89 O148 1.970 . S
Li89 O149 1.956 . S
Li89 O151 1.961 . S
Li90 N135 1.990 . S
Li90 O148 1.961 . S
Li90 O150 1.956 . S
Li90 O151 1.970 . S
Li91 N141 1.990 . S
Li91 O149 1.961 . S
Li91 O150 1.970 . S
Li91 O151 1.956 . S
C92 C94 1.348 . S
C92 C95 1.356 . S
C92 O148 1.325 . S
N93 C96 1.314 . S
N93 C97 1.279 . S
C94 C92 1.348 . S
C94 C96 1.353 . S
C94 H152 0.929 . S
C95 C92 1.356 . S
C95 C97 1.358 . S
C95 H153 0.930 . S
C96 N93 1.314 . S
C96 C94 1.353 . S
C96 H154 0.930 . S
C97 N93 1.279 . S
C97 C95 1.358 . S
C97 H155 0.930 . S
C98 C101 1.348 . S
C98 C102 1.356 . S
C98 O149 1.325 . S
C99 N100 1.279 . S
C99 C102 1.358 . S
C99 H156 0.930 . S
N100 C99 1.279 . S
N100 C103 1.314 . S
C101 C98 1.348 . S
C101 C103 1.353 . S
C101 H157 0.929 . S
C102 C98 1.356 . S
C102 C99 1.358 . S
C102 H158 0.930 . S
C103 N100 1.314 . S
C103 C101 1.353 . S
C103 H159 0.930 . S
C104 N105 1.314 . S
C104 C109 1.353 . S
C104 H110 0.930 . S
N105 Li88 1.990 . S
N105 C104 1.314 . S
N105 C107 1.279 . S
C106 C107 1.358 . S
C106 C108 1.356 . S
C106 H160 0.930 . S
C107 N105 1.279 . S
C107 C106 1.358 . S
C107 H111 0.930 . S
C108 C106 1.356 . S
C108 C109 1.348 . S
C109 C104 1.353 . S
C109 C108 1.348 . S
C109 H161 0.929 . S
H110 C104 0.930 . S
H111 C107 0.930 . S
C112 N113 1.314 . S
C112 C114 1.353 . S
C112 H118 0.930 . S
N113 Li89 1.990 . S
N113 C112 1.314 . S
N113 C116 1.279 . S
C114 C112 1.353 . S
C114 C117 1.348 . S
C114 H162 0.929 . S
C115 C116 1.358 . S
C115 C117 1.356 . S
C115 H163 0.930 . S
C116 N113 1.279 . S
C116 C115 1.358 . S
C116 H119 0.930 . S
C117 C114 1.348 . S
C117 C115 1.356 . S
H118 C112 0.930 . S
H119 C116 0.930 . S
C120 C122 1.348 . S
C120 C123 1.356 . S
C120 O150 1.325 . S
N121 C124 1.314 . S
N121 C125 1.279 . S
C122 C120 1.348 . S
C122 C124 1.353 . S
C122 H164 0.929 . S
C123 C120 1.356 . S
C123 C125 1.358 . S
C123 H165 0.930 . S
C124 N121 1.314 . S
C124 C122 1.353 . S
C124 H166 0.930 . S
C125 N121 1.279 . S
C125 C123 1.358 . S
C125 H167 0.930 . S
C126 C127 1.348 . S
C126 C128 1.356 . S
C126 O151 1.325 . S
C127 C126 1.348 . S
C127 C129 1.353 . S
C127 H168 0.929 . S
C128 C126 1.356 . S
C128 C130 1.358 . S
C128 H169 0.930 . S
C129 C127 1.353 . S
C129 N131 1.314 . S
C129 H170 0.930 . S
C130 C128 1.358 . S
C130 N131 1.279 . S
C130 H171 0.930 . S
N131 C129 1.314 . S
N131 C130 1.279 . S
C132 C134 1.353 . S
C132 N135 1.314 . S
C132 H138 0.930 . S
C133 N135 1.279 . S
C133 C136 1.358 . S
C133 H139 0.930 . S
C134 C132 1.353 . S
C134 C137 1.348 . S
C134 H172 0.929 . S
N135 Li90 1.990 . S
N135 C132 1.314 . S
N135 C133 1.279 . S
C136 C133 1.358 . S
C136 C137 1.356 . S
C136 H173 0.930 . S
C137 C134 1.348 . S
C137 C136 1.356 . S
H138 C132 0.930 . S
H139 C133 0.930 . S
C140 N141 1.314 . S
C140 C142 1.353 . S
C140 H146 0.930 . S
N141 Li91 1.990 . S
N141 C140 1.314 . S
N141 C144 1.279 . S
C142 C140 1.353 . S
C142 C145 1.348 . S
C142 H174 0.929 . S
C143 C144 1.358 . S
C143 C145 1.356 . S
C143 H175 0.930 . S
C144 N141 1.279 . S
C144 C143 1.358 . S
C144 H147 0.930 . S
C145 C142 1.348 . S
C145 C143 1.356 . S
H146 C140 0.930 . S
H147 C144 0.930 . S
O148 Li88 1.956 . S
O148 Li89 1.970 . S
O148 Li90 1.961 . S
O148 C92 1.325 . S
O149 Li88 1.970 . S
O149 Li89 1.956 . S
O149 Li91 1.961 . S
O149 C98 1.325 . S
O150 Li88 1.961 . S
O150 Li90 1.956 . S
O150 Li91 1.970 . S
O150 C120 1.325 . S
O151 Li89 1.961 . S
O151 Li90 1.970 . S
O151 Li91 1.956 . S
O151 C126 1.325 . S
H152 C94 0.929 . S
H153 C95 0.930 . S
H154 C96 0.930 . S
H155 C97 0.930 . S
H156 C99 0.930 . S
H157 C101 0.929 . S
H158 C102 0.930 . S
H159 C103 0.930 . S
H160 C106 0.930 . S
H161 C109 0.929 . S
H162 C114 0.929 . S
H163 C115 0.930 . S
H164 C122 0.929 . S
H165 C123 0.930 . S
H166 C124 0.930 . S
H167 C125 0.930 . S
H168 C127 0.929 . S
H169 C128 0.930 . S
H170 C129 0.930 . S
H171 C130 0.930 . S
H172 C134 0.929 . S
H173 C136 0.930 . S
H174 C142 0.929 . S
H175 C143 0.930 . S
Li176 N193 1.990 . S
Li176 O236 1.956 1_554 S
Li176 O237 1.970 1_554 S
Li176 O238 1.961 1_554 S
Li177 N201 1.990 . S
Li177 O236 1.970 . S
Li177 O237 1.956 . S
Li177 O239 1.961 . S
Li178 N223 1.990 . S
Li178 O236 1.961 . S
Li178 O238 1.956 . S
Li178 O239 1.970 . S
Li179 N229 1.990 . S
Li179 O237 1.961 . S
Li179 O238 1.970 . S
Li179 O239 1.956 . S
C180 C182 1.348 . S
C180 C183 1.356 . S
C180 O236 1.325 . S
N181 C184 1.309 1_554 S
N181 C185 1.279 . S
C182 C180 1.348 . S
C182 C184 1.361 . S
C182 H240 0.929 . S
C183 C180 1.356 . S
C183 C185 1.358 1_556 S
C183 H241 0.930 . S
C184 N181 1.309 1_556 S
C184 C182 1.361 . S
C184 H242 0.928 1_556 S
C185 N181 1.279 . S
C185 C183 1.358 1_554 S
C185 H243 0.930 1_455 S
C186 C189 1.348 . S
C186 C190 1.356 1_554 S
C186 O237 1.325 1_554 S
C187 N188 1.279 . S
C187 C190 1.358 1_554 S
C187 H244 0.930 . S
N188 C187 1.279 . S
N188 C191 1.314 . S
C189 C186 1.348 . S
C189 C191 1.353 . S
C189 H245 0.929 . S
C190 C186 1.356 1_556 S
C190 C187 1.358 1_556 S
C190 H246 0.930 . S
C191 N188 1.314 . S
C191 C189 1.353 . S
C191 H247 0.930 . S
C192 N193 1.314 . S
C192 C197 1.353 . S
C192 H198 0.930 . S
N193 Li176 1.990 . S
N193 C192 1.314 . S
N193 C195 1.279 . S
C194 C195 1.358 . S
C194 C196 1.356 . S
C194 H248 0.930 . S
C195 N193 1.279 . S
C195 C194 1.358 . S
C195 H199 0.930 . S
C196 C194 1.356 . S
C196 C197 1.348 . S
C197 C192 1.353 . S
C197 C196 1.348 . S
C197 H249 0.929 . S
H198 C192 0.930 . S
H199 C195 0.930 . S
C200 N201 1.314 . S
C200 C202 1.353 . S
C200 H206 0.930 . S
N201 Li177 1.990 . S
N201 C200 1.314 . S
N201 C204 1.279 . S
C202 C200 1.353 . S
C202 C205 1.348 . S
C202 H250 0.929 . S
C203 C204 1.358 . S
C203 C205 1.356 . S
C203 H251 0.930 . S
C204 N201 1.279 . S
C204 C203 1.358 . S
C204 H207 0.930 . S
C205 C202 1.348 . S
C205 C203 1.356 . S
H206 C200 0.930 . S
H207 C204 0.930 . S
C208 C210 1.348 . S
C208 C211 1.356 1_556 S
C208 O238 1.325 . S
N209 C212 1.314 1_654 S
N209 C213 1.279 . S
C210 C208 1.348 . S
C210 C212 1.353 . S
C210 H252 0.929 . S
C211 C208 1.356 1_554 S
C211 C213 1.358 1_455 S
C211 H253 0.930 . S
C212 N209 1.314 1_456 S
C212 C210 1.353 . S
C212 H254 0.930 . S
C213 N209 1.279 . S
C213 C211 1.358 1_655 S
C213 H255 0.930 . S
C214 C215 1.348 . S
C214 C216 1.356 . S
C214 O239 1.325 . S
C215 C214 1.348 . S
C215 C217 1.353 . S
C215 H256 0.929 . S
C216 C214 1.356 . S
C216 C218 1.358 . S
C216 H257 0.930 . S
C217 C215 1.353 . S
C217 N219 1.314 . S
C217 H258 0.930 . S
C218 C216 1.358 . S
C218 N219 1.279 . S
C218 H259 0.930 . S
N219 C217 1.314 . S
N219 C218 1.279 . S
C220 C222 1.353 1_455 S
C220 N223 1.314 . S
C220 H226 0.930 . S
C221 N223 1.279 1_655 S
C221 C224 1.358 . S
C221 H227 0.930 . S
C222 C220 1.353 1_655 S
C222 C225 1.348 . S
C222 H260 0.929 . S
N223 Li178 1.990 . S
N223 C220 1.314 . S
N223 C221 1.279 1_455 S
C224 C221 1.358 . S
C224 C225 1.356 . S
C224 H261 0.930 . S
C225 C222 1.348 . S
C225 C224 1.356 . S
H226 C220 0.930 . S
H227 C221 0.930 . S
C228 N229 1.314 . S
C228 C230 1.353 . S
C228 H234 0.930 . S
N229 Li179 1.990 . S
N229 C228 1.314 . S
N229 C232 1.279 . S
C230 C228 1.353 . S
C230 C233 1.348 . S
C230 H262 0.929 . S
C231 C232 1.358 . S
C231 C233 1.356 . S
C231 H263 0.930 . S
C232 N229 1.279 . S
C232 C231 1.358 . S
C232 H235 0.930 . S
C233 C230 1.348 . S
C233 C231 1.356 . S
H234 C228 0.930 . S
H235 C232 0.930 . S
O236 Li176 1.956 1_556 S
O236 Li177 1.970 . S
O236 Li178 1.961 . S
O236 C180 1.325 . S
O237 Li176 1.970 1_556 S
O237 Li177 1.956 . S
O237 Li179 1.961 . S
O237 C186 1.325 1_556 S
O238 Li176 1.961 1_556 S
O238 Li178 1.956 . S
O238 Li179 1.970 . S
O238 C208 1.325 . S
O239 Li177 1.961 . S
O239 Li178 1.970 . S
O239 Li179 1.956 . S
O239 C214 1.325 . S
H240 C182 0.929 . S
H241 C183 0.930 . S
H242 C184 0.928 1_554 S
H243 C185 0.930 1_655 S
H244 C187 0.930 . S
H245 C189 0.929 . S
H246 C190 0.930 . S
H247 C191 0.930 . S
H248 C194 0.930 . S
H249 C197 0.929 . S
H250 C202 0.929 . S
H251 C203 0.930 . S
H252 C210 0.929 . S
H253 C211 0.930 . S
H254 C212 0.930 . S
H255 C213 0.930 . S
H256 C215 0.929 . S
H257 C216 0.930 . S
H258 C217 0.930 . S
H259 C218 0.930 . S
H260 C222 0.929 . S
H261 C224 0.930 . S
H262 C230 0.929 . S
H263 C231 0.930 . S
Li264 N281 1.990 . S
Li264 O324 1.956 1_554 S
Li264 O325 1.970 1_554 S
Li264 O326 1.961 1_554 S
Li265 N289 1.990 . S
Li265 O324 1.970 . S
Li265 O325 1.956 . S
Li265 O327 1.961 . S
Li266 N311 1.990 . S
Li266 O324 1.961 . S
Li266 O326 1.956 . S
Li266 O327 1.970 . S
Li267 N317 1.990 . S
Li267 O325 1.961 . S
Li267 O326 1.970 . S
Li267 O327 1.956 . S
C268 C270 1.348 . S
C268 C271 1.356 . S
C268 O324 1.325 . S
N269 C272 1.309 1_554 S
N269 C273 1.279 . S
C270 C268 1.348 . S
C270 C272 1.361 . S
C270 H328 0.929 . S
C271 C268 1.356 . S
C271 C273 1.358 1_556 S
C271 H329 0.930 . S
C272 N269 1.309 1_556 S
C272 C270 1.361 . S
C272 H330 0.928 1_556 S
C273 N269 1.279 . S
C273 C271 1.358 1_554 S
C273 H331 0.930 . S
C274 C277 1.348 . S
C274 C278 1.356 1_554 S
C274 O325 1.325 1_554 S
C275 N276 1.279 . S
C275 C278 1.358 1_554 S
C275 H332 0.930 . S
N276 C275 1.279 . S
N276 C279 1.314 . S
C277 C274 1.348 . S
C277 C279 1.353 . S
C277 H333 0.929 . S
C278 C274 1.356 1_556 S
C278 C275 1.358 1_556 S
C278 H334 0.930 . S
C279 N276 1.314 . S
C279 C277 1.353 . S
C279 H335 0.930 . S
C280 N281 1.314 . S
C280 C285 1.353 . S
C280 H286 0.930 . S
N281 Li264 1.990 . S
N281 C280 1.314 . S
N281 C283 1.279 . S
C282 C283 1.358 . S
C282 C284 1.356 . S
C282 H336 0.930 . S
C283 N281 1.279 . S
C283 C282 1.358 . S
C283 H287 0.930 . S
C284 C282 1.356 . S
C284 C285 1.348 . S
C285 C280 1.353 . S
C285 C284 1.348 . S
C285 H337 0.929 . S
H286 C280 0.930 . S
H287 C283 0.930 . S
C288 N289 1.314 . S
C288 C290 1.353 . S
C288 H294 0.930 . S
N289 Li265 1.990 . S
N289 C288 1.314 . S
N289 C292 1.279 . S
C290 C288 1.353 . S
C290 C293 1.348 . S
C290 H338 0.929 . S
C291 C292 1.358 . S
C291 C293 1.356 . S
C291 H339 0.930 . S
C292 N289 1.279 . S
C292 C291 1.358 . S
C292 H295 0.930 . S
C293 C290 1.348 . S
C293 C291 1.356 . S
H294 C288 0.930 . S
H295 C292 0.930 . S
C296 C298 1.348 . S
C296 C299 1.356 1_556 S
C296 O326 1.325 . S
N297 C300 1.314 1_554 S
N297 C301 1.279 . S
C298 C296 1.348 . S
C298 C300 1.353 . S
C298 H340 0.929 . S
C299 C296 1.356 1_554 S
C299 C301 1.358 . S
C299 H341 0.930 . S
C300 N297 1.314 1_556 S
C300 C298 1.353 . S
C300 H342 0.930 . S
C301 N297 1.279 . S
C301 C299 1.358 . S
C301 H343 0.930 . S
C302 C303 1.348 . S
C302 C304 1.356 . S
C302 O327 1.325 . S
C303 C302 1.348 . S
C303 C305 1.353 . S
C303 H344 0.929 . S
C304 C302 1.356 . S
C304 C306 1.358 . S
C304 H345 0.930 . S
C305 C303 1.353 . S
C305 N307 1.314 . S
C305 H346 0.930 . S
C306 C304 1.358 . S
C306 N307 1.279 . S
C306 H347 0.930 . S
N307 C305 1.314 . S
N307 C306 1.279 . S
C308 C310 1.353 . S
C308 N311 1.314 . S
C308 H314 0.930 . S
C309 N311 1.279 . S
C309 C312 1.358 . S
C309 H315 0.930 . S
C310 C308 1.353 . S
C310 C313 1.348 . S
C310 H348 0.929 . S
N311 Li266 1.990 . S
N311 C308 1.314 . S
N311 C309 1.279 . S
C312 C309 1.358 . S
C312 C313 1.356 . S
C312 H349 0.930 . S
C313 C310 1.348 . S
C313 C312 1.356 . S
H314 C308 0.930 . S
H315 C309 0.930 . S
C316 N317 1.314 . S
C316 C318 1.353 . S
C316 H322 0.930 . S
N317 Li267 1.990 . S
N317 C316 1.314 . S
N317 C320 1.279 . S
C318 C316 1.353 . S
C318 C321 1.348 . S
C318 H350 0.929 . S
C319 C320 1.358 . S
C319 C321 1.356 . S
C319 H351 0.930 . S
C320 N317 1.279 . S
C320 C319 1.358 . S
C320 H323 0.930 . S
C321 C318 1.348 . S
C321 C319 1.356 . S
H322 C316 0.930 . S
H323 C320 0.930 . S
O324 Li264 1.956 1_556 S
O324 Li265 1.970 . S
O324 Li266 1.961 . S
O324 C268 1.325 . S
O325 Li264 1.970 1_556 S
O325 Li265 1.956 . S
O325 Li267 1.961 . S
O325 C274 1.325 1_556 S
O326 Li264 1.961 1_556 S
O326 Li266 1.956 . S
O326 Li267 1.970 . S
O326 C296 1.325 . S
O327 Li265 1.961 . S
O327 Li266 1.970 . S
O327 Li267 1.956 . S
O327 C302 1.325 . S
H328 C270 0.929 . S
H329 C271 0.930 . S
H330 C272 0.928 1_554 S
H331 C273 0.930 . S
H332 C275 0.930 . S
H333 C277 0.929 . S
H334 C278 0.930 . S
H335 C279 0.930 . S
H336 C282 0.930 . S
H337 C285 0.929 . S
H338 C290 0.929 . S
H339 C291 0.930 . S
H340 C298 0.929 . S
H341 C299 0.930 . S
H342 C300 0.930 . S
H343 C301 0.930 . S
H344 C303 0.929 . S
H345 C304 0.930 . S
H346 C305 0.930 . S
H347 C306 0.930 . S
H348 C310 0.929 . S
H349 C312 0.930 . S
H350 C318 0.929 . S
H351 C319 0.930 . S
Li352 N369 1.990 . S
Li352 O412 1.956 . S
Li352 O413 1.970 . S
Li352 O414 1.961 . S
Li353 N377 1.990 . S
Li353 O412 1.970 . S
Li353 O413 1.956 . S
Li353 O415 1.961 . S
Li354 N399 1.990 . S
Li354 O412 1.961 . S
Li354 O414 1.956 . S
Li354 O415 1.970 . S
Li355 N405 1.990 . S
Li355 O413 1.961 . S
Li355 O414 1.970 . S
Li355 O415 1.956 . S
C356 C358 1.348 . S
C356 C359 1.356 . S
C356 O412 1.325 . S
N357 C360 1.314 1_455 S
N357 C361 1.279 . S
C358 C356 1.348 . S
C358 C360 1.353 . S
C358 H416 0.929 . S
C359 C356 1.356 . S
C359 C361 1.358 1_655 S
C359 H417 0.934 . S
C360 N357 1.314 1_655 S
C360 C358 1.353 . S
C360 H418 0.930 . S
C361 N357 1.279 . S
C361 C359 1.358 1_455 S
C361 H419 0.930 . S
C362 C365 1.348 . S
C362 C366 1.356 . S
C362 O413 1.325 . S
C363 N364 1.279 . S
C363 C366 1.358 . S
C363 H420 0.930 . S
N364 C363 1.279 . S
N364 C367 1.314 . S
C365 C362 1.348 . S
C365 C367 1.353 . S
C365 H421 0.929 . S
C366 C362 1.356 . S
C366 C363 1.358 . S
C366 H422 0.930 . S
C367 N364 1.314 . S
C367 C365 1.353 . S
C367 H423 0.930 . S
C368 N369 1.314 . S
C368 C373 1.353 . S
C368 H374 0.930 . S
N369 Li352 1.990 . S
N369 C368 1.314 . S
N369 C371 1.279 . S
C370 C371 1.358 . S
C370 C372 1.356 . S
C370 H424 0.930 . S
C371 N369 1.279 . S
C371 C370 1.358 . S
C371 H375 0.930 . S
C372 C370 1.356 . S
C372 C373 1.348 . S
C373 C368 1.353 . S
C373 C372 1.348 . S
C373 H425 0.929 . S
H374 C368 0.930 . S
H375 C371 0.930 . S
C376 N377 1.314 . S
C376 C378 1.353 . S
C376 H382 0.930 . S
N377 Li353 1.990 . S
N377 C376 1.314 . S
N377 C380 1.279 . S
C378 C376 1.353 . S
C378 C381 1.348 . S
C378 H426 0.929 . S
C379 C380 1.358 . S
C379 C381 1.356 . S
C379 H427 0.930 . S
C380 N377 1.279 . S
C380 C379 1.358 . S
C380 H383 0.930 . S
C381 C378 1.348 . S
C381 C379 1.356 . S
H382 C376 0.930 . S
H383 C380 0.930 . S
C384 C386 1.348 . S
C384 C387 1.356 . S
C384 O414 1.325 . S
N385 C388 1.314 . S
N385 C389 1.279 . S
C386 C384 1.348 . S
C386 C388 1.353 . S
C386 H428 0.929 . S
C387 C384 1.356 . S
C387 C389 1.358 . S
C387 H429 0.930 . S
C388 N385 1.314 . S
C388 C386 1.353 . S
C388 H430 0.930 . S
C389 N385 1.279 . S
C389 C387 1.358 . S
C389 H431 0.930 . S
C390 C391 1.348 . S
C390 C392 1.356 . S
C390 O415 1.325 . S
C391 C390 1.348 . S
C391 C393 1.353 . S
C391 H432 0.929 . S
C392 C390 1.356 . S
C392 C394 1.358 . S
C392 H433 0.930 . S
C393 C391 1.353 . S
C393 N395 1.314 . S
C393 H434 0.930 . S
C394 C392 1.358 . S
C394 N395 1.279 . S
C394 H435 0.930 . S
N395 C393 1.314 . S
N395 C394 1.279 . S
C396 C398 1.353 . S
C396 N399 1.314 1_455 S
C396 H402 0.930 1_455 S
C397 N399 1.279 . S
C397 C400 1.358 1_655 S
C397 H403 0.930 . S
C398 C396 1.353 . S
C398 C401 1.348 . S
C398 H436 0.929 . S
N399 Li354 1.990 . S
N399 C396 1.314 1_655 S
N399 C397 1.279 . S
C400 C397 1.358 1_455 S
C400 C401 1.356 . S
C400 H437 0.930 . S
C401 C398 1.348 . S
C401 C400 1.356 . S
H402 C396 0.930 1_655 S
H403 C397 0.930 . S
C404 N405 1.314 . S
C404 C406 1.353 . S
C404 H410 0.930 . S
N405 Li355 1.990 . S
N405 C404 1.314 . S
N405 C408 1.279 . S
C406 C404 1.353 . S
C406 C409 1.348 . S
C406 H438 0.929 . S
C407 C408 1.358 . S
C407 C409 1.356 . S
C407 H439 0.930 . S
C408 N405 1.279 . S
C408 C407 1.358 . S
C408 H411 0.930 . S
C409 C406 1.348 . S
C409 C407 1.356 . S
H410 C404 0.930 . S
H411 C408 0.930 . S
O412 Li352 1.956 . S
O412 Li353 1.970 . S
O412 Li354 1.961 . S
O412 C356 1.325 . S
O413 Li352 1.970 . S
O413 Li353 1.956 . S
O413 Li355 1.961 . S
O413 C362 1.325 . S
O414 Li352 1.961 . S
O414 Li354 1.956 . S
O414 Li355 1.970 . S
O414 C384 1.325 . S
O415 Li353 1.961 . S
O415 Li354 1.970 . S
O415 Li355 1.956 . S
O415 C390 1.325 . S
H416 C358 0.929 . S
H417 C359 0.934 . S
H418 C360 0.930 . S
H419 C361 0.930 . S
H420 C363 0.930 . S
H421 C365 0.929 . S
H422 C366 0.930 . S
H423 C367 0.930 . S
H424 C370 0.930 . S
H425 C373 0.929 . S
H426 C378 0.929 . S
H427 C379 0.930 . S
H428 C386 0.929 . S
H429 C387 0.930 . S
H430 C388 0.930 . S
H431 C389 0.930 . S
H432 C391 0.929 . S
H433 C392 0.930 . S
H434 C393 0.930 . S
H435 C394 0.930 . S
H436 C398 0.929 . S
H437 C400 0.930 . S
H438 C406 0.929 . S
H439 C407 0.930 . S
Li440 N457 1.990 . S
Li440 O500 1.956 . S
Li440 O501 1.970 . S
Li440 O502 1.961 . S
Li441 N465 1.990 . S
Li441 O500 1.970 . S
Li441 O501 1.956 . S
Li441 O503 1.961 . S
Li442 N487 1.990 . S
Li442 O500 1.961 . S
Li442 O502 1.956 . S
Li442 O503 1.970 . S
Li443 N493 1.990 . S
Li443 O501 1.961 . S
Li443 O502 1.970 . S
Li443 O503 1.956 . S
C444 C446 1.348 . S
C444 C447 1.356 . S
C444 O500 1.325 . S
N445 C448 1.314 . S
N445 C449 1.279 . S
C446 C444 1.348 . S
C446 C448 1.353 . S
C446 H504 0.929 . S
C447 C444 1.356 . S
C447 C449 1.358 . S
C447 H505 0.930 . S
C448 N445 1.314 . S
C448 C446 1.353 . S
C448 H506 0.930 . S
C449 N445 1.279 . S
C449 C447 1.358 . S
C449 H507 0.930 . S
C450 C453 1.348 . S
C450 C454 1.356 . S
C450 O501 1.325 . S
C451 N452 1.279 . S
C451 C454 1.358 . S
C451 H508 0.930 . S
N452 C451 1.279 . S
N452 C455 1.314 . S
C453 C450 1.348 . S
C453 C455 1.353 . S
C453 H509 0.929 . S
C454 C450 1.356 . S
C454 C451 1.358 . S
C454 H510 0.930 . S
C455 N452 1.314 . S
C455 C453 1.353 . S
C455 H511 0.930 . S
C456 N457 1.314 . S
C456 C461 1.353 . S
C456 H462 0.930 . S
N457 Li440 1.990 . S
N457 C456 1.314 . S
N457 C459 1.279 . S
C458 C459 1.358 . S
C458 C460 1.356 . S
C458 H512 0.930 . S
C459 N457 1.279 . S
C459 C458 1.358 . S
C459 H463 0.930 . S
C460 C458 1.356 . S
C460 C461 1.348 . S
C461 C456 1.353 . S
C461 C460 1.348 . S
C461 H513 0.929 . S
H462 C456 0.930 . S
H463 C459 0.930 . S
C464 N465 1.314 . S
C464 C466 1.353 . S
C464 H470 0.930 . S
N465 Li441 1.990 . S
N465 C464 1.314 . S
N465 C468 1.279 . S
C466 C464 1.353 . S
C466 C469 1.348 . S
C466 H514 0.929 . S
C467 C468 1.358 . S
C467 C469 1.356 . S
C467 H515 0.930 . S
C468 N465 1.279 . S
C468 C467 1.358 . S
C468 H471 0.930 . S
C469 C466 1.348 . S
C469 C467 1.356 . S
H470 C464 0.930 . S
H471 C468 0.930 . S
C472 C474 1.348 . S
C472 C475 1.356 . S
C472 O502 1.325 . S
N473 C476 1.314 . S
N473 C477 1.279 . S
C474 C472 1.348 . S
C474 C476 1.353 . S
C474 H516 0.929 . S
C475 C472 1.356 . S
C475 C477 1.358 . S
C475 H517 0.930 . S
C476 N473 1.314 . S
C476 C474 1.353 . S
C476 H518 0.930 . S
C477 N473 1.279 . S
C477 C475 1.358 . S
C477 H519 0.930 . S
C478 C479 1.348 . S
C478 C480 1.356 . S
C478 O503 1.325 . S
C479 C478 1.348 . S
C479 C481 1.353 . S
C479 H520 0.929 . S
C480 C478 1.356 . S
C480 C482 1.358 . S
C480 H521 0.930 . S
C481 C479 1.353 . S
C481 N483 1.314 . S
C481 H522 0.930 . S
C482 C480 1.358 . S
C482 N483 1.279 . S
C482 H523 0.930 . S
N483 C481 1.314 . S
N483 C482 1.279 . S
C484 C486 1.353 . S
C484 N487 1.314 . S
C484 H490 0.930 . S
C485 N487 1.279 . S
C485 C488 1.358 . S
C485 H491 0.930 . S
C486 C484 1.353 . S
C486 C489 1.348 . S
C486 H524 0.929 . S
N487 Li442 1.990 . S
N487 C484 1.314 . S
N487 C485 1.279 . S
C488 C485 1.358 . S
C488 C489 1.356 . S
C488 H525 0.930 . S
C489 C486 1.348 . S
C489 C488 1.356 . S
H490 C484 0.930 . S
H491 C485 0.930 . S
C492 N493 1.314 . S
C492 C494 1.353 . S
C492 H498 0.930 . S
N493 Li443 1.990 . S
N493 C492 1.314 . S
N493 C496 1.279 . S
C494 C492 1.353 . S
C494 C497 1.348 . S
C494 H526 0.929 . S
C495 C496 1.358 . S
C495 C497 1.356 . S
C495 H527 0.930 . S
C496 N493 1.279 . S
C496 C495 1.358 . S
C496 H499 0.930 . S
C497 C494 1.348 . S
C497 C495 1.356 . S
H498 C492 0.930 . S
H499 C496 0.930 . S
O500 Li440 1.956 . S
O500 Li441 1.970 . S
O500 Li442 1.961 . S
O500 C444 1.325 . S
O501 Li440 1.970 . S
O501 Li441 1.956 . S
O501 Li443 1.961 . S
O501 C450 1.325 . S
O502 Li440 1.961 . S
O502 Li442 1.956 . S
O502 Li443 1.970 . S
O502 C472 1.325 . S
O503 Li441 1.961 . S
O503 Li442 1.970 . S
O503 Li443 1.956 . S
O503 C478 1.325 . S
H504 C446 0.929 . S
H505 C447 0.930 . S
H506 C448 0.930 . S
H507 C449 0.930 . S
H508 C451 0.930 . S
H509 C453 0.929 . S
H510 C454 0.930 . S
H511 C455 0.930 . S
H512 C458 0.930 . S
H513 C461 0.929 . S
H514 C466 0.929 . S
H515 C467 0.930 . S
H516 C474 0.929 . S
H517 C475 0.930 . S
H518 C476 0.930 . S
H519 C477 0.930 . S
H520 C479 0.929 . S
H521 C480 0.930 . S
H522 C481 0.930 . S
H523 C482 0.930 . S
H524 C486 0.929 . S
H525 C488 0.930 . S
H526 C494 0.929 . S
H527 C495 0.930 . S
Li528 N545 1.990 . S
Li528 O588 1.956 . S
Li528 O589 1.970 . S
Li528 O590 1.961 . S
Li529 N553 1.990 . S
Li529 O588 1.970 . S
Li529 O589 1.956 . S
Li529 O591 1.961 . S
Li530 N575 1.990 . S
Li530 O588 1.961 1_556 S
Li530 O590 1.956 1_556 S
Li530 O591 1.970 1_556 S
Li531 N581 1.990 . S
Li531 O589 1.961 . S
Li531 O590 1.970 . S
Li531 O591 1.956 . S
C532 C534 1.348 . S
C532 C535 1.356 1_554 S
C532 O588 1.325 . S
N533 C536 1.320 . S
N533 C537 1.276 1_554 S
C534 C532 1.348 . S
C534 C536 1.353 . S
C534 H592 0.929 . S
C535 C532 1.356 1_556 S
C535 C537 1.358 . S
C535 H593 0.930 . S
C536 N533 1.320 . S
C536 C534 1.353 . S
C536 H594 0.930 . S
C537 N533 1.276 1_556 S
C537 C535 1.358 . S
C537 H595 0.930 . S
C538 C541 1.348 . S
C538 C542 1.356 . S
C538 O589 1.325 . S
C539 N540 1.279 . S
C539 C542 1.358 . S
C539 H596 0.930 . S
N540 C539 1.279 . S
N540 C543 1.314 . S
C541 C538 1.348 . S
C541 C543 1.353 . S
C541 H597 0.929 . S
C542 C538 1.356 . S
C542 C539 1.358 . S
C542 H598 0.930 . S
C543 N540 1.314 . S
C543 C541 1.353 . S
C543 H599 0.930 . S
C544 N545 1.314 1_455 S
C544 C549 1.353 . S
C544 H550 0.930 1_455 S
N545 Li528 1.990 . S
N545 C544 1.314 1_655 S
N545 C547 1.279 . S
C546 C547 1.358 1_455 S
C546 C548 1.356 . S
C546 H600 0.930 . S
C547 N545 1.279 . S
C547 C546 1.358 1_655 S
C547 H551 0.930 . S
C548 C546 1.356 . S
C548 C549 1.348 . S
C549 C544 1.353 . S
C549 C548 1.348 . S
C549 H601 0.929 . S
H550 C544 0.930 1_655 S
H551 C547 0.930 . S
C552 N553 1.314 . S
C552 C554 1.353 . S
C552 H558 0.930 . S
N553 Li529 1.990 . S
N553 C552 1.314 . S
N553 C556 1.279 . S
C554 C552 1.353 . S
C554 C557 1.348 . S
C554 H602 0.929 . S
C555 C556 1.358 . S
C555 C557 1.356 . S
C555 H603 0.930 . S
C556 N553 1.279 . S
C556 C555 1.358 . S
C556 H559 0.930 . S
C557 C554 1.348 . S
C557 C555 1.356 . S
H558 C552 0.930 . S
H559 C556 0.930 . S
C560 C562 1.348 . S
C560 C563 1.356 . S
C560 O590 1.325 . S
N561 C564 1.314 1_455 S
N561 C565 1.279 . S
C562 C560 1.348 . S
C562 C564 1.353 1_554 S
C562 H604 0.929 . S
C563 C560 1.356 . S
C563 C565 1.358 1_654 S
C563 H605 0.935 . S
C564 N561 1.314 1_655 S
C564 C562 1.353 1_556 S
C564 H606 0.930 . S
C565 N561 1.279 . S
C565 C563 1.358 1_456 S
C565 H607 0.930 . S
C566 C567 1.348 . S
C566 C568 1.356 1_556 S
C566 O591 1.325 1_556 S
C567 C566 1.348 . S
C567 C569 1.353 . S
C567 H608 0.929 . S
C568 C566 1.356 1_554 S
C568 C570 1.358 1_554 S
C568 H609 0.930 . S
C569 C567 1.353 . S
C569 N571 1.314 . S
C569 H610 0.930 . S
C570 C568 1.358 1_556 S
C570 N571 1.279 . S
C570 H611 0.930 . S
N571 C569 1.314 . S
N571 C570 1.279 . S
C572 C574 1.353 . S
C572 N575 1.314 . S
C572 H578 0.930 . S
C573 N575 1.279 . S
C573 C576 1.358 . S
C573 H579 0.930 . S
C574 C572 1.353 . S
C574 C577 1.348 . S
C574 H612 0.929 . S
N575 Li530 1.990 . S
N575 C572 1.314 . S
N575 C573 1.279 . S
C576 C573 1.358 . S
C576 C577 1.356 . S
C576 H613 0.930 . S
C577 C574 1.348 . S
C577 C576 1.356 . S
H578 C572 0.930 . S
H579 C573 0.930 . S
C580 N581 1.314 . S
C580 C582 1.353 . S
C580 H586 0.930 . S
N581 Li531 1.990 . S
N581 C580 1.314 . S
N581 C584 1.279 . S
C582 C580 1.353 . S
C582 C585 1.348 . S
C582 H614 0.929 . S
C583 C584 1.358 . S
C583 C585 1.356 . S
C583 H615 0.930 . S
C584 N581 1.279 . S
C584 C583 1.358 . S
C584 H587 0.930 . S
C585 C582 1.348 . S
C585 C583 1.356 . S
H586 C580 0.930 . S
H587 C584 0.930 . S
O588 Li528 1.956 . S
O588 Li529 1.970 . S
O588 Li530 1.961 1_554 S
O588 C532 1.325 . S
O589 Li528 1.970 . S
O589 Li529 1.956 . S
O589 Li531 1.961 . S
O589 C538 1.325 . S
O590 Li528 1.961 . S
O590 Li530 1.956 1_554 S
O590 Li531 1.970 . S
O590 C560 1.325 . S
O591 Li529 1.961 . S
O591 Li530 1.970 1_554 S
O591 Li531 1.956 . S
O591 C566 1.325 1_554 S
H592 C534 0.929 . S
H593 C535 0.930 . S
H594 C536 0.930 . S
H595 C537 0.930 . S
H596 C539 0.930 . S
H597 C541 0.929 . S
H598 C542 0.930 . S
H599 C543 0.930 . S
H600 C546 0.930 . S
H601 C549 0.929 . S
H602 C554 0.929 . S
H603 C555 0.930 . S
H604 C562 0.929 . S
H605 C563 0.935 . S
H606 C564 0.930 . S
H607 C565 0.930 . S
H608 C567 0.929 . S
H609 C568 0.930 . S
H610 C569 0.930 . S
H611 C570 0.930 . S
H612 C574 0.929 . S
H613 C576 0.930 . S
H614 C582 0.929 . S
H615 C583 0.930 . S
Li616 N633 1.990 . S
Li616 O676 1.956 . S
Li616 O677 1.970 . S
Li616 O678 1.961 . S
Li617 N641 1.990 . S
Li617 O676 1.970 . S
Li617 O677 1.956 . S
Li617 O679 1.961 . S
Li618 N663 1.990 . S
Li618 O676 1.961 . S
Li618 O678 1.956 . S
Li618 O679 1.970 . S
Li619 N669 1.990 . S
Li619 O677 1.961 1_556 S
Li619 O678 1.970 1_556 S
Li619 O679 1.956 1_556 S
C620 C622 1.348 . S
C620 C623 1.356 . S
C620 O676 1.325 . S
N621 C624 1.314 . S
N621 C625 1.279 . S
C622 C620 1.348 . S
C622 C624 1.353 . S
C622 H680 0.929 . S
C623 C620 1.356 . S
C623 C625 1.358 . S
C623 H681 0.930 . S
C624 N621 1.314 . S
C624 C622 1.353 . S
C624 H682 0.930 . S
C625 N621 1.279 . S
C625 C623 1.358 . S
C625 H683 0.930 . S
C626 C629 1.348 . S
C626 C630 1.356 1_554 S
C626 O677 1.325 . S
C627 N628 1.276 1_556 S
C627 C630 1.358 . S
C627 H684 0.930 . S
N628 C627 1.276 1_554 S
N628 C631 1.320 . S
C629 C626 1.348 . S
C629 C631 1.353 . S
C629 H685 0.929 . S
C630 C626 1.356 1_556 S
C630 C627 1.358 . S
C630 H686 0.930 . S
C631 N628 1.320 . S
C631 C629 1.353 . S
C631 H687 0.930 . S
C632 N633 1.314 . S
C632 C637 1.353 . S
C632 H638 0.930 . S
N633 Li616 1.990 . S
N633 C632 1.314 . S
N633 C635 1.279 . S
C634 C635 1.358 . S
C634 C636 1.356 . S
C634 H688 0.930 . S
C635 N633 1.279 . S
C635 C634 1.358 . S
C635 H639 0.930 . S
C636 C634 1.356 . S
C636 C637 1.348 . S
C637 C632 1.353 . S
C637 C636 1.348 . S
C637 H689 0.929 . S
H638 C632 0.930 . S
H639 C635 0.930 . S
C640 N641 1.314 . S
C640 C642 1.353 . S
C640 H646 0.930 . S
N641 Li617 1.990 . S
N641 C640 1.314 . S
N641 C644 1.279 . S
C642 C640 1.353 . S
C642 C645 1.348 . S
C642 H690 0.929 . S
C643 C644 1.358 . S
C643 C645 1.356 . S
C643 H691 0.930 . S
C644 N641 1.279 . S
C644 C643 1.358 . S
C644 H647 0.930 . S
C645 C642 1.348 . S
C645 C643 1.356 . S
H646 C640 0.930 . S
H647 C644 0.930 . S
C648 C650 1.348 . S
C648 C651 1.356 1_556 S
C648 O678 1.325 1_556 S
N649 C652 1.314 . S
N649 C653 1.279 . S
C650 C648 1.348 . S
C650 C652 1.353 . S
C650 H692 0.929 . S
C651 C648 1.356 1_554 S
C651 C653 1.358 1_554 S
C651 H693 0.930 . S
C652 N649 1.314 . S
C652 C650 1.353 . S
C652 H694 0.930 . S
C653 N649 1.279 . S
C653 C651 1.358 1_556 S
C653 H695 0.930 . S
C654 C655 1.348 . S
C654 C656 1.356 . S
C654 O679 1.325 . S
C655 C654 1.348 . S
C655 C657 1.353 1_554 S
C655 H696 0.929 . S
C656 C654 1.356 . S
C656 C658 1.358 1_554 S
C656 H697 0.930 . S
C657 C655 1.353 1_556 S
C657 N659 1.314 . S
C657 H698 0.930 . S
C658 C656 1.358 1_556 S
C658 N659 1.279 . S
C658 H699 0.930 . S
N659 C657 1.314 . S
N659 C658 1.279 . S
C660 C662 1.353 . S
C660 N663 1.314 . S
C660 H666 0.930 . S
C661 N663 1.279 . S
C661 C664 1.358 . S
C661 H667 0.930 . S
C662 C660 1.353 . S
C662 C665 1.348 . S
C662 H700 0.929 . S
N663 Li618 1.990 . S
N663 C660 1.314 . S
N663 C661 1.279 . S
C664 C661 1.358 . S
C664 C665 1.356 . S
C664 H701 0.930 . S
C665 C662 1.348 . S
C665 C664 1.356 . S
H666 C660 0.930 . S
H667 C661 0.930 . S
C668 N669 1.314 . S
C668 C670 1.353 . S
C668 H674 0.930 . S
N669 Li619 1.990 . S
N669 C668 1.314 . S
N669 C672 1.279 . S
C670 C668 1.353 . S
C670 C673 1.348 . S
C670 H702 0.929 . S
C671 C672 1.358 . S
C671 C673 1.356 . S
C671 H703 0.930 . S
C672 N669 1.279 . S
C672 C671 1.358 . S
C672 H675 0.930 . S
C673 C670 1.348 . S
C673 C671 1.356 . S
H674 C668 0.930 . S
H675 C672 0.930 . S
O676 Li616 1.956 . S
O676 Li617 1.970 . S
O676 Li618 1.961 . S
O676 C620 1.325 . S
O677 Li616 1.970 . S
O677 Li617 1.956 . S
O677 Li619 1.961 1_554 S
O677 C626 1.325 . S
O678 Li616 1.961 . S
O678 Li618 1.956 . S
O678 Li619 1.970 1_554 S
O678 C648 1.325 1_554 S
O679 Li617 1.961 . S
O679 Li618 1.970 . S
O679 Li619 1.956 1_554 S
O679 C654 1.325 . S
H680 C622 0.929 . S
H681 C623 0.930 . S
H682 C624 0.930 . S
H683 C625 0.930 . S
H684 C627 0.930 . S
H685 C629 0.929 . S
H686 C630 0.930 . S
H687 C631 0.930 . S
H688 C634 0.930 . S
H689 C637 0.929 . S
H690 C642 0.929 . S
H691 C643 0.930 . S
H692 C650 0.929 . S
H693 C651 0.930 . S
H694 C652 0.930 . S
H695 C653 0.930 . S
H696 C655 0.929 . S
H697 C656 0.930 . S
H698 C657 0.930 . S
H699 C658 0.930 . S
H700 C662 0.929 . S
H701 C664 0.930 . S
H702 C670 0.929 . S
H703 C671 0.930 . S
Li704 N721 1.990 . S
Li704 O764 1.956 . S
Li704 O765 1.970 . S
Li704 O766 1.961 . S
Li705 N729 1.990 . S
Li705 O764 1.970 . S
Li705 O765 1.956 . S
Li705 O767 1.961 . S
Li706 N751 1.990 . S
Li706 O764 1.961 . S
Li706 O766 1.956 . S
Li706 O767 1.970 . S
Li707 N757 1.990 . S
Li707 O765 1.961 . S
Li707 O766 1.970 . S
Li707 O767 1.956 . S
C708 C710 1.348 . S
C708 C711 1.356 . S
C708 O764 1.325 . S
N709 C712 1.314 1_655 S
N709 C713 1.279 . S
C710 C708 1.348 . S
C710 C712 1.353 . S
C710 H768 0.929 . S
C711 C708 1.356 . S
C711 C713 1.358 1_455 S
C711 H769 0.930 . S
C712 N709 1.314 1_455 S
C712 C710 1.353 . S
C712 H770 0.930 . S
C713 N709 1.279 . S
C713 C711 1.358 1_655 S
C713 H771 0.930 . S
C714 C717 1.348 . S
C714 C718 1.356 . S
C714 O765 1.325 . S
C715 N716 1.279 . S
C715 C718 1.358 . S
C715 H772 0.930 . S
N716 C715 1.279 . S
N716 C719 1.314 . S
C717 C714 1.348 . S
C717 C719 1.353 . S
C717 H773 0.929 . S
C718 C714 1.356 . S
C718 C715 1.358 . S
C718 H774 0.930 . S
C719 N716 1.314 . S
C719 C717 1.353 . S
C719 H775 0.930 . S
C720 N721 1.314 . S
C720 C725 1.353 1_455 S
C720 H726 0.930 . S
N721 Li704 1.990 . S
N721 C720 1.314 . S
N721 C723 1.279 1_455 S
C722 C723 1.358 . S
C722 C724 1.356 . S
C722 H776 0.930 . S
C723 N721 1.279 1_655 S
C723 C722 1.358 . S
C723 H727 0.930 . S
C724 C722 1.356 . S
C724 C725 1.348 . S
C725 C720 1.353 1_655 S
C725 C724 1.348 . S
C725 H777 0.929 . S
H726 C720 0.930 . S
H727 C723 0.930 . S
C728 N729 1.314 . S
C728 C730 1.353 . S
C728 H734 0.930 . S
N729 Li705 1.990 . S
N729 C728 1.314 . S
N729 C732 1.279 . S
C730 C728 1.353 . S
C730 C733 1.348 . S
C730 H778 0.929 . S
C731 C732 1.358 . S
C731 C733 1.356 . S
C731 H779 0.930 . S
C732 N729 1.279 . S
C732 C731 1.358 . S
C732 H735 0.930 . S
C733 C730 1.348 . S
C733 C731 1.356 . S
H734 C728 0.930 . S
H735 C732 0.930 . S
C736 C738 1.348 . S
C736 C739 1.356 . S
C736 O766 1.325 . S
N737 C740 1.314 . S
N737 C741 1.279 . S
C738 C736 1.348 . S
C738 C740 1.353 . S
C738 H780 0.929 . S
C739 C736 1.356 . S
C739 C741 1.358 . S
C739 H781 0.930 . S
C740 N737 1.314 . S
C740 C738 1.353 . S
C740 H782 0.930 . S
C741 N737 1.279 . S
C741 C739 1.358 . S
C741 H783 0.930 1_455 S
C742 C743 1.348 . S
C742 C744 1.356 . S
C742 O767 1.325 . S
C743 C742 1.348 . S
C743 C745 1.353 . S
C743 H784 0.929 . S
C744 C742 1.356 . S
C744 C746 1.358 . S
C744 H785 0.930 . S
C745 C743 1.353 . S
C745 N747 1.314 . S
C745 H786 0.930 . S
C746 C744 1.358 . S
C746 N747 1.279 . S
C746 H787 0.930 . S
N747 C745 1.314 . S
N747 C746 1.279 . S
C748 C750 1.353 . S
C748 N751 1.314 . S
C748 H754 0.930 . S
C749 N751 1.279 . S
C749 C752 1.358 . S
C749 H755 0.930 . S
C750 C748 1.353 . S
C750 C753 1.348 . S
C750 H788 0.929 . S
N751 Li706 1.990 . S
N751 C748 1.314 . S
N751 C749 1.279 . S
C752 C749 1.358 . S
C752 C753 1.356 . S
C752 H789 0.930 . S
C753 C750 1.348 . S
C753 C752 1.356 . S
H754 C748 0.930 . S
H755 C749 0.930 . S
C756 N757 1.314 . S
C756 C758 1.353 . S
C756 H762 0.930 . S
N757 Li707 1.990 . S
N757 C756 1.314 . S
N757 C760 1.279 . S
C758 C756 1.353 . S
C758 C761 1.348 . S
C758 H790 0.929 . S
C759 C760 1.358 . S
C759 C761 1.356 . S
C759 H791 0.930 . S
C760 N757 1.279 . S
C760 C759 1.358 . S
C760 H763 0.930 . S
C761 C758 1.348 . S
C761 C759 1.356 . S
H762 C756 0.930 . S
H763 C760 0.930 . S
O764 Li704 1.956 . S
O764 Li705 1.970 . S
O764 Li706 1.961 . S
O764 C708 1.325 . S
O765 Li704 1.970 . S
O765 Li705 1.956 . S
O765 Li707 1.961 . S
O765 C714 1.325 . S
O766 Li704 1.961 . S
O766 Li706 1.956 . S
O766 Li707 1.970 . S
O766 C736 1.325 . S
O767 Li705 1.961 . S
O767 Li706 1.970 . S
O767 Li707 1.956 . S
O767 C742 1.325 . S
H768 C710 0.929 . S
H769 C711 0.930 . S
H770 C712 0.930 . S
H771 C713 0.930 . S
H772 C715 0.930 . S
H773 C717 0.929 . S
H774 C718 0.930 . S
H775 C719 0.930 . S
H776 C722 0.930 . S
H777 C725 0.929 . S
H778 C730 0.929 . S
H779 C731 0.930 . S
H780 C738 0.929 . S
H781 C739 0.930 . S
H782 C740 0.930 . S
H783 C741 0.930 1_655 S
H784 C743 0.929 . S
H785 C744 0.930 . S
H786 C745 0.930 . S
H787 C746 0.930 . S
H788 C750 0.929 . S
H789 C752 0.930 . S
H790 C758 0.929 . S
H791 C759 0.930 . S
Li792 N809 1.990 . S
Li792 O852 1.956 . S
Li792 O853 1.970 . S
Li792 O854 1.961 . S
Li793 N817 1.990 . S
Li793 O852 1.970 . S
Li793 O853 1.956 . S
Li793 O855 1.961 . S
Li794 N839 1.990 . S
Li794 O852 1.961 . S
Li794 O854 1.956 . S
Li794 O855 1.970 . S
Li795 N845 1.990 . S
Li795 O853 1.961 . S
Li795 O854 1.970 . S
Li795 O855 1.956 . S
C796 C798 1.348 . S
C796 C799 1.356 . S
C796 O852 1.325 . S
N797 C800 1.314 . S
N797 C801 1.279 . S
C798 C796 1.348 . S
C798 C800 1.353 . S
C798 H856 0.929 . S
C799 C796 1.356 . S
C799 C801 1.358 . S
C799 H857 0.930 . S
C800 N797 1.314 . S
C800 C798 1.353 . S
C800 H858 0.930 . S
C801 N797 1.279 . S
C801 C799 1.358 . S
C801 H859 0.930 . S
C802 C805 1.348 . S
C802 C806 1.356 . S
C802 O853 1.325 . S
C803 N804 1.279 . S
C803 C806 1.358 . S
C803 H860 0.930 . S
N804 C803 1.279 . S
N804 C807 1.314 . S
C805 C802 1.348 . S
C805 C807 1.353 . S
C805 H861 0.929 . S
C806 C802 1.356 . S
C806 C803 1.358 . S
C806 H862 0.930 . S
C807 N804 1.314 . S
C807 C805 1.353 . S
C807 H863 0.930 . S
C808 N809 1.314 . S
C808 C813 1.353 . S
C808 H814 0.930 . S
N809 Li792 1.990 . S
N809 C808 1.314 . S
N809 C811 1.279 . S
C810 C811 1.358 . S
C810 C812 1.356 . S
C810 H864 0.930 . S
C811 N809 1.279 . S
C811 C810 1.358 . S
C811 H815 0.930 . S
C812 C810 1.356 . S
C812 C813 1.348 . S
C813 C808 1.353 . S
C813 C812 1.348 . S
C813 H865 0.929 . S
H814 C808 0.930 . S
H815 C811 0.930 . S
C816 N817 1.314 . S
C816 C818 1.353 . S
C816 H822 0.930 . S
N817 Li793 1.990 . S
N817 C816 1.314 . S
N817 C820 1.279 . S
C818 C816 1.353 . S
C818 C821 1.348 . S
C818 H866 0.929 . S
C819 C820 1.358 . S
C819 C821 1.356 . S
C819 H867 0.930 . S
C820 N817 1.279 . S
C820 C819 1.358 . S
C820 H823 0.930 . S
C821 C818 1.348 . S
C821 C819 1.356 . S
H822 C816 0.930 . S
H823 C820 0.930 . S
C824 C826 1.348 . S
C824 C827 1.356 . S
C824 O854 1.325 . S
N825 C828 1.314 . S
N825 C829 1.279 . S
C826 C824 1.348 . S
C826 C828 1.353 . S
C826 H868 0.929 . S
C827 C824 1.356 . S
C827 C829 1.358 . S
C827 H869 0.930 . S
C828 N825 1.314 . S
C828 C826 1.353 . S
C828 H870 0.930 . S
C829 N825 1.279 . S
C829 C827 1.358 . S
C829 H871 0.930 . S
C830 C831 1.348 . S
C830 C832 1.356 . S
C830 O855 1.325 . S
C831 C830 1.348 . S
C831 C833 1.353 . S
C831 H872 0.929 . S
C832 C830 1.356 . S
C832 C834 1.358 . S
C832 H873 0.930 . S
C833 C831 1.353 . S
C833 N835 1.314 . S
C833 H874 0.930 . S
C834 C832 1.358 . S
C834 N835 1.279 . S
C834 H875 0.930 . S
N835 C833 1.314 . S
N835 C834 1.279 . S
C836 C838 1.353 . S
C836 N839 1.314 . S
C836 H842 0.930 . S
C837 N839 1.279 . S
C837 C840 1.358 . S
C837 H843 0.930 . S
C838 C836 1.353 . S
C838 C841 1.348 . S
C838 H876 0.929 . S
N839 Li794 1.990 . S
N839 C836 1.314 . S
N839 C837 1.279 . S
C840 C837 1.358 . S
C840 C841 1.356 . S
C840 H877 0.930 . S
C841 C838 1.348 . S
C841 C840 1.356 . S
H842 C836 0.930 . S
H843 C837 0.930 . S
C844 N845 1.314 . S
C844 C846 1.353 . S
C844 H850 0.930 . S
N845 Li795 1.990 . S
N845 C844 1.314 . S
N845 C848 1.279 . S
C846 C844 1.353 . S
C846 C849 1.348 . S
C846 H878 0.929 . S
C847 C848 1.358 . S
C847 C849 1.356 . S
C847 H879 0.930 . S
C848 N845 1.279 . S
C848 C847 1.358 . S
C848 H851 0.930 . S
C849 C846 1.348 . S
C849 C847 1.356 . S
H850 C844 0.930 . S
H851 C848 0.930 . S
O852 Li792 1.956 . S
O852 Li793 1.970 . S
O852 Li794 1.961 . S
O852 C796 1.325 . S
O853 Li792 1.970 . S
O853 Li793 1.956 . S
O853 Li795 1.961 . S
O853 C802 1.325 . S
O854 Li792 1.961 . S
O854 Li794 1.956 . S
O854 Li795 1.970 . S
O854 C824 1.325 . S
O855 Li793 1.961 . S
O855 Li794 1.970 . S
O855 Li795 1.956 . S
O855 C830 1.325 . S
H856 C798 0.929 . S
H857 C799 0.930 . S
H858 C800 0.930 . S
H859 C801 0.930 . S
H860 C803 0.930 . S
H861 C805 0.929 . S
H862 C806 0.930 . S
H863 C807 0.930 . S
H864 C810 0.930 . S
H865 C813 0.929 . S
H866 C818 0.929 . S
H867 C819 0.930 . S
H868 C826 0.929 . S
H869 C827 0.930 . S
H870 C828 0.930 . S
H871 C829 0.930 . S
H872 C831 0.929 . S
H873 C832 0.930 . S
H874 C833 0.930 . S
H875 C834 0.930 . S
H876 C838 0.929 . S
H877 C840 0.930 . S
H878 C846 0.929 . S
H879 C847 0.930 . S
Li880 N897 1.990 . S
Li880 O940 1.956 . S
Li880 O941 1.970 . S
Li880 O942 1.961 . S
Li881 N905 1.990 . S
Li881 O940 1.970 . S
Li881 O941 1.956 . S
Li881 O943 1.961 . S
Li882 N927 1.990 . S
Li882 O940 1.961 . S
Li882 O942 1.956 . S
Li882 O943 1.970 . S
Li883 N933 1.990 . S
Li883 O941 1.961 . S
Li883 O942 1.970 . S
Li883 O943 1.956 . S
C884 C886 1.348 . S
C884 C887 1.356 . S
C884 O940 1.325 . S
N885 C888 1.314 . S
N885 C889 1.279 . S
C886 C884 1.348 . S
C886 C888 1.353 . S
C886 H944 0.929 . S
C887 C884 1.356 . S
C887 C889 1.358 . S
C887 H945 0.930 . S
C888 N885 1.314 . S
C888 C886 1.353 . S
C888 H946 0.930 . S
C889 N885 1.279 . S
C889 C887 1.358 . S
C889 H947 0.930 . S
C890 C893 1.348 . S
C890 C894 1.356 . S
C890 O941 1.325 . S
C891 N892 1.279 . S
C891 C894 1.358 . S
C891 H948 0.930 1_455 S
N892 C891 1.279 . S
N892 C895 1.314 . S
C893 C890 1.348 . S
C893 C895 1.353 . S
C893 H949 0.929 . S
C894 C890 1.356 . S
C894 C891 1.358 . S
C894 H950 0.930 . S
C895 N892 1.314 . S
C895 C893 1.353 . S
C895 H951 0.930 . S
C896 N897 1.314 . S
C896 C901 1.353 . S
C896 H902 0.930 . S
N897 Li880 1.990 . S
N897 C896 1.314 . S
N897 C899 1.279 . S
C898 C899 1.358 . S
C898 C900 1.356 . S
C898 H952 0.930 . S
C899 N897 1.279 . S
C899 C898 1.358 . S
C899 H903 0.930 . S
C900 C898 1.356 . S
C900 C901 1.348 . S
C901 C896 1.353 . S
C901 C900 1.348 . S
C901 H953 0.929 . S
H902 C896 0.930 . S
H903 C899 0.930 . S
C904 N905 1.314 . S
C904 C906 1.353 . S
C904 H910 0.930 . S
N905 Li881 1.990 . S
N905 C904 1.314 . S
N905 C908 1.279 . S
C906 C904 1.353 . S
C906 C909 1.348 . S
C906 H954 0.929 . S
C907 C908 1.358 . S
C907 C909 1.356 . S
C907 H955 0.930 . S
C908 N905 1.279 . S
C908 C907 1.358 . S
C908 H911 0.930 . S
C909 C906 1.348 . S
C909 C907 1.356 . S
H910 C904 0.930 . S
H911 C908 0.930 . S
C912 C914 1.348 . S
C912 C915 1.356 . S
C912 O942 1.325 . S
N913 C916 1.314 . S
N913 C917 1.279 . S
C914 C912 1.348 . S
C914 C916 1.353 . S
C914 H956 0.929 . S
C915 C912 1.356 . S
C915 C917 1.358 . S
C915 H957 0.930 . S
C916 N913 1.314 . S
C916 C914 1.353 . S
C916 H958 0.930 . S
C917 N913 1.279 . S
C917 C915 1.358 . S
C917 H959 0.930 . S
C918 C919 1.348 . S
C918 C920 1.356 . S
C918 O943 1.325 . S
C919 C918 1.348 . S
C919 C921 1.353 . S
C919 H960 0.929 . S
C920 C918 1.356 . S
C920 C922 1.358 1_455 S
C920 H961 0.930 . S
C921 C919 1.353 . S
C921 N923 1.314 1_455 S
C921 H962 0.930 . S
C922 C920 1.358 1_655 S
C922 N923 1.279 . S
C922 H963 0.930 . S
N923 C921 1.314 1_655 S
N923 C922 1.279 . S
C924 C926 1.353 . S
C924 N927 1.314 . S
C924 H930 0.930 . S
C925 N927 1.279 . S
C925 C928 1.358 . S
C925 H931 0.930 . S
C926 C924 1.353 . S
C926 C929 1.348 . S
C926 H964 0.929 . S
N927 Li882 1.990 . S
N927 C924 1.314 . S
N927 C925 1.279 . S
C928 C925 1.358 . S
C928 C929 1.356 . S
C928 H965 0.930 . S
C929 C926 1.348 . S
C929 C928 1.356 . S
H930 C924 0.930 . S
H931 C925 0.930 . S
C932 N933 1.314 . S
C932 C934 1.353 1_455 S
C932 H938 0.930 . S
N933 Li883 1.990 . S
N933 C932 1.314 . S
N933 C936 1.279 1_455 S
C934 C932 1.353 1_655 S
C934 C937 1.348 . S
C934 H966 0.929 . S
C935 C936 1.358 . S
C935 C937 1.356 . S
C935 H967 0.930 . S
C936 N933 1.279 1_655 S
C936 C935 1.358 . S
C936 H939 0.930 . S
C937 C934 1.348 . S
C937 C935 1.356 . S
H938 C932 0.930 . S
H939 C936 0.930 . S
O940 Li880 1.956 . S
O940 Li881 1.970 . S
O940 Li882 1.961 . S
O940 C884 1.325 . S
O941 Li880 1.970 . S
O941 Li881 1.956 . S
O941 Li883 1.961 . S
O941 C890 1.325 . S
O942 Li880 1.961 . S
O942 Li882 1.956 . S
O942 Li883 1.970 . S
O942 C912 1.325 . S
O943 Li881 1.961 . S
O943 Li882 1.970 . S
O943 Li883 1.956 . S
O943 C918 1.325 . S
H944 C886 0.929 . S
H945 C887 0.930 . S
H946 C888 0.930 . S
H947 C889 0.930 . S
H948 C891 0.930 1_655 S
H949 C893 0.929 . S
H950 C894 0.930 . S
H951 C895 0.930 . S
H952 C898 0.930 . S
H953 C901 0.929 . S
H954 C906 0.929 . S
H955 C907 0.930 . S
H956 C914 0.929 . S
H957 C915 0.930 . S
H958 C916 0.930 . S
H959 C917 0.930 . S
H960 C919 0.929 . S
H961 C920 0.930 . S
H962 C921 0.930 . S
H963 C922 0.930 . S
H964 C926 0.929 . S
H965 C928 0.930 . S
H966 C934 0.929 . S
H967 C935 0.930 . S
Li968 N985 1.990 . S
Li968 O1028 1.956 . S
Li968 O1029 1.970 . S
Li968 O1030 1.961 . S
Li969 N993 1.990 . S
Li969 O1028 1.970 . S
Li969 O1029 1.956 . S
Li969 O1031 1.961 . S
Li970 N1015 1.990 . S
Li970 O1028 1.961 . S
Li970 O1030 1.956 . S
Li970 O1031 1.970 . S
Li971 N1021 1.990 . S
Li971 O1029 1.961 . S
Li971 O1030 1.970 . S
Li971 O1031 1.956 . S
C972 C974 1.348 . S
C972 C975 1.356 . S
C972 O1028 1.325 . S
N973 C976 1.314 . S
N973 C977 1.279 . S
C974 C972 1.348 . S
C974 C976 1.353 . S
C974 H1032 0.929 . S
C975 C972 1.356 . S
C975 C977 1.358 . S
C975 H1033 0.930 . S
C976 N973 1.314 . S
C976 C974 1.353 . S
C976 H1034 0.930 . S
C977 N973 1.279 . S
C977 C975 1.358 . S
C977 H1035 0.930 . S
C978 C981 1.348 . S
C978 C982 1.356 . S
C978 O1029 1.325 . S
C979 N980 1.279 . S
C979 C982 1.358 . S
C979 H1036 0.930 . S
N980 C979 1.279 . S
N980 C983 1.314 . S
C981 C978 1.348 . S
C981 C983 1.353 . S
C981 H1037 0.929 . S
C982 C978 1.356 . S
C982 C979 1.358 . S
C982 H1038 0.930 . S
C983 N980 1.314 . S
C983 C981 1.353 . S
C983 H1039 0.930 . S
C984 N985 1.314 . S
C984 C989 1.353 . S
C984 H990 0.930 . S
N985 Li968 1.990 . S
N985 C984 1.314 . S
N985 C987 1.279 . S
C986 C987 1.358 . S
C986 C988 1.356 . S
C986 H1040 0.930 . S
C987 N985 1.279 . S
C987 C986 1.358 . S
C987 H991 0.930 . S
C988 C986 1.356 . S
C988 C989 1.348 . S
C989 C984 1.353 . S
C989 C988 1.348 . S
C989 H1041 0.929 . S
H990 C984 0.930 . S
H991 C987 0.930 . S
C992 N993 1.314 . S
C992 C994 1.353 . S
C992 H998 0.930 . S
N993 Li969 1.990 . S
N993 C992 1.314 . S
N993 C996 1.279 . S
C994 C992 1.353 . S
C994 C997 1.348 . S
C994 H1042 0.929 . S
C995 C996 1.358 . S
C995 C997 1.356 . S
C995 H1043 0.930 . S
C996 N993 1.279 . S
C996 C995 1.358 . S
C996 H999 0.930 . S
C997 C994 1.348 . S
C997 C995 1.356 . S
H998 C992 0.930 . S
H999 C996 0.930 . S
C1000 C1002 1.348 . S
C1000 C1003 1.356 . S
C1000 O1030 1.325 . S
N1001 C1004 1.314 . S
N1001 C1005 1.279 . S
C1002 C1000 1.348 . S
C1002 C1004 1.353 . S
C1002 H1044 0.929 . S
C1003 C1000 1.356 . S
C1003 C1005 1.358 . S
C1003 H1045 0.930 . S
C1004 N1001 1.314 . S
C1004 C1002 1.353 . S
C1004 H1046 0.930 . S
C1005 N1001 1.279 . S
C1005 C1003 1.358 . S
C1005 H1047 0.930 . S
C1006 C1007 1.348 . S
C1006 C1008 1.356 . S
C1006 O1031 1.325 . S
C1007 C1006 1.348 . S
C1007 C1009 1.353 . S
C1007 H1048 0.929 . S
C1008 C1006 1.356 . S
C1008 C1010 1.358 . S
C1008 H1049 0.930 . S
C1009 C1007 1.353 . S
C1009 N1011 1.314 . S
C1009 H1050 0.930 . S
C1010 C1008 1.358 . S
C1010 N1011 1.279 . S
C1010 H1051 0.930 . S
N1011 C1009 1.314 . S
N1011 C1010 1.279 . S
C1012 C1014 1.353 . S
C1012 N1015 1.314 . S
C1012 H1018 0.930 . S
C1013 N1015 1.279 . S
C1013 C1016 1.358 . S
C1013 H1019 0.930 . S
C1014 C1012 1.353 . S
C1014 C1017 1.348 . S
C1014 H1052 0.929 . S
N1015 Li970 1.990 . S
N1015 C1012 1.314 . S
N1015 C1013 1.279 . S
C1016 C1013 1.358 . S
C1016 C1017 1.356 . S
C1016 H1053 0.930 . S
C1017 C1014 1.348 . S
C1017 C1016 1.356 . S
H1018 C1012 0.930 . S
H1019 C1013 0.930 . S
C1020 N1021 1.314 . S
C1020 C1022 1.353 . S
C1020 H1026 0.930 . S
N1021 Li971 1.990 . S
N1021 C1020 1.314 . S
N1021 C1024 1.279 . S
C1022 C1020 1.353 . S
C1022 C1025 1.348 . S
C1022 H1054 0.929 . S
C1023 C1024 1.358 . S
C1023 C1025 1.356 . S
C1023 H1055 0.930 . S
C1024 N1021 1.279 . S
C1024 C1023 1.358 . S
C1024 H1027 0.930 . S
C1025 C1022 1.348 . S
C1025 C1023 1.356 . S
H1026 C1020 0.930 . S
H1027 C1024 0.930 . S
O1028 Li968 1.956 . S
O1028 Li969 1.970 . S
O1028 Li970 1.961 . S
O1028 C972 1.325 . S
O1029 Li968 1.970 . S
O1029 Li969 1.956 . S
O1029 Li971 1.961 . S
O1029 C978 1.325 . S
O1030 Li968 1.961 . S
O1030 Li970 1.956 . S
O1030 Li971 1.970 . S
O1030 C1000 1.325 . S
O1031 Li969 1.961 . S
O1031 Li970 1.970 . S
O1031 Li971 1.956 . S
O1031 C1006 1.325 . S
H1032 C974 0.929 . S
H1033 C975 0.930 . S
H1034 C976 0.930 . S
H1035 C977 0.930 . S
H1036 C979 0.930 . S
H1037 C981 0.929 . S
H1038 C982 0.930 . S
H1039 C983 0.930 . S
H1040 C986 0.930 . S
H1041 C989 0.929 . S
H1042 C994 0.929 . S
H1043 C995 0.930 . S
H1044 C1002 0.929 . S
H1045 C1003 0.930 . S
H1046 C1004 0.930 . S
H1047 C1005 0.930 . S
H1048 C1007 0.929 . S
H1049 C1008 0.930 . S
H1050 C1009 0.930 . S
H1051 C1010 0.930 . S
H1052 C1014 0.929 . S
H1053 C1016 0.930 . S
H1054 C1022 0.929 . S
H1055 C1023 0.930 . S
Li1056 N1073 1.990 . S
Li1056 O1116 1.956 . S
Li1056 O1117 1.970 . S
Li1056 O1118 1.961 . S
Li1057 N1081 1.990 . S
Li1057 O1116 1.970 . S
Li1057 O1117 1.956 . S
Li1057 O1119 1.961 . S
Li1058 N1103 1.990 . S
Li1058 O1116 1.961 . S
Li1058 O1118 1.956 . S
Li1058 O1119 1.970 . S
Li1059 N1109 1.990 . S
Li1059 O1117 1.961 . S
Li1059 O1118 1.970 . S
Li1059 O1119 1.956 . S
C1060 C1062 1.348 . S
C1060 C1063 1.356 . S
C1060 O1116 1.325 . S
N1061 C1064 1.314 1_455 S
N1061 C1065 1.279 . S
C1062 C1060 1.348 . S
C1062 C1064 1.353 . S
C1062 H1120 0.929 . S
C1063 C1060 1.356 . S
C1063 C1065 1.358 1_655 S
C1063 H1121 0.934 . S
C1064 N1061 1.314 1_655 S
C1064 C1062 1.353 . S
C1064 H1122 0.930 . S
C1065 N1061 1.279 . S
C1065 C1063 1.358 1_455 S
C1065 H1123 0.930 . S
C1066 C1069 1.348 . S
C1066 C1070 1.356 . S
C1066 O1117 1.325 . S
C1067 N1068 1.279 . S
C1067 C1070 1.358 . S
C1067 H1124 0.930 . S
N1068 C1067 1.279 . S
N1068 C1071 1.314 . S
C1069 C1066 1.348 . S
C1069 C1071 1.353 . S
C1069 H1125 0.929 . S
C1070 C1066 1.356 . S
C1070 C1067 1.358 . S
C1070 H1126 0.930 . S
C1071 N1068 1.314 . S
C1071 C1069 1.353 . S
C1071 H1127 0.930 . S
C1072 N1073 1.314 . S
C1072 C1077 1.353 . S
C1072 H1078 0.930 . S
N1073 Li1056 1.990 . S
N1073 C1072 1.314 . S
N1073 C1075 1.279 . S
C1074 C1075 1.358 . S
C1074 C1076 1.356 . S
C1074 H1128 0.930 . S
C1075 N1073 1.279 . S
C1075 C1074 1.358 . S
C1075 H1079 0.930 . S
C1076 C1074 1.356 . S
C1076 C1077 1.348 . S
C1077 C1072 1.353 . S
C1077 C1076 1.348 . S
C1077 H1129 0.929 . S
H1078 C1072 0.930 . S
H1079 C1075 0.930 . S
C1080 N1081 1.314 . S
C1080 C1082 1.353 . S
C1080 H1086 0.930 . S
N1081 Li1057 1.990 . S
N1081 C1080 1.314 . S
N1081 C1084 1.279 . S
C1082 C1080 1.353 . S
C1082 C1085 1.348 . S
C1082 H1130 0.929 . S
C1083 C1084 1.358 . S
C1083 C1085 1.356 . S
C1083 H1131 0.930 . S
C1084 N1081 1.279 . S
C1084 C1083 1.358 . S
C1084 H1087 0.930 . S
C1085 C1082 1.348 . S
C1085 C1083 1.356 . S
H1086 C1080 0.930 . S
H1087 C1084 0.930 . S
C1088 C1090 1.348 . S
C1088 C1091 1.356 . S
C1088 O1118 1.325 . S
N1089 C1092 1.314 . S
N1089 C1093 1.279 . S
C1090 C1088 1.348 . S
C1090 C1092 1.353 . S
C1090 H1132 0.929 . S
C1091 C1088 1.356 . S
C1091 C1093 1.358 . S
C1091 H1133 0.930 . S
C1092 N1089 1.314 . S
C1092 C1090 1.353 . S
C1092 H1134 0.930 . S
C1093 N1089 1.279 . S
C1093 C1091 1.358 . S
C1093 H1135 0.930 . S
C1094 C1095 1.348 . S
C1094 C1096 1.356 . S
C1094 O1119 1.325 . S
C1095 C1094 1.348 . S
C1095 C1097 1.353 . S
C1095 H1136 0.929 . S
C1096 C1094 1.356 . S
C1096 C1098 1.358 . S
C1096 H1137 0.930 . S
C1097 C1095 1.353 . S
C1097 N1099 1.314 . S
C1097 H1138 0.930 . S
C1098 C1096 1.358 . S
C1098 N1099 1.279 . S
C1098 H1139 0.930 . S
N1099 C1097 1.314 . S
N1099 C1098 1.279 . S
C1100 C1102 1.353 . S
C1100 N1103 1.314 1_455 S
C1100 H1106 0.930 1_455 S
C1101 N1103 1.279 . S
C1101 C1104 1.358 1_655 S
C1101 H1107 0.930 . S
C1102 C1100 1.353 . S
C1102 C1105 1.348 . S
C1102 H1140 0.929 . S
N1103 Li1058 1.990 . S
N1103 C1100 1.314 1_655 S
N1103 C1101 1.279 . S
C1104 C1101 1.358 1_455 S
C1104 C1105 1.356 . S
C1104 H1141 0.930 . S
C1105 C1102 1.348 . S
C1105 C1104 1.356 . S
H1106 C1100 0.930 1_655 S
H1107 C1101 0.930 . S
C1108 N1109 1.314 . S
C1108 C1110 1.353 . S
C1108 H1114 0.930 . S
N1109 Li1059 1.990 . S
N1109 C1108 1.314 . S
N1109 C1112 1.279 . S
C1110 C1108 1.353 . S
C1110 C1113 1.348 . S
C1110 H1142 0.929 . S
C1111 C1112 1.358 . S
C1111 C1113 1.356 . S
C1111 H1143 0.930 . S
C1112 N1109 1.279 . S
C1112 C1111 1.358 . S
C1112 H1115 0.930 . S
C1113 C1110 1.348 . S
C1113 C1111 1.356 . S
H1114 C1108 0.930 . S
H1115 C1112 0.930 . S
O1116 Li1056 1.956 . S
O1116 Li1057 1.970 . S
O1116 Li1058 1.961 . S
O1116 C1060 1.325 . S
O1117 Li1056 1.970 . S
O1117 Li1057 1.956 . S
O1117 Li1059 1.961 . S
O1117 C1066 1.325 . S
O1118 Li1056 1.961 . S
O1118 Li1058 1.956 . S
O1118 Li1059 1.970 . S
O1118 C1088 1.325 . S
O1119 Li1057 1.961 . S
O1119 Li1058 1.970 . S
O1119 Li1059 1.956 . S
O1119 C1094 1.325 . S
H1120 C1062 0.929 . S
H1121 C1063 0.934 . S
H1122 C1064 0.930 . S
H1123 C1065 0.930 . S
H1124 C1067 0.930 . S
H1125 C1069 0.929 . S
H1126 C1070 0.930 . S
H1127 C1071 0.930 . S
H1128 C1074 0.930 . S
H1129 C1077 0.929 . S
H1130 C1082 0.929 . S
H1131 C1083 0.930 . S
H1132 C1090 0.929 . S
H1133 C1091 0.930 . S
H1134 C1092 0.930 . S
H1135 C1093 0.930 . S
H1136 C1095 0.929 . S
H1137 C1096 0.930 . S
H1138 C1097 0.930 . S
H1139 C1098 0.930 . S
H1140 C1102 0.929 . S
H1141 C1104 0.930 . S
H1142 C1110 0.929 . S
H1143 C1111 0.930 . S
Li1144 N1161 1.990 . S
Li1144 O1204 1.956 . S
Li1144 O1205 1.970 . S
Li1144 O1206 1.961 . S
Li1145 N1169 1.990 . S
Li1145 O1204 1.970 . S
Li1145 O1205 1.956 . S
Li1145 O1207 1.961 . S
Li1146 N1191 1.990 . S
Li1146 O1204 1.961 . S
Li1146 O1206 1.956 . S
Li1146 O1207 1.970 . S
Li1147 N1197 1.990 . S
Li1147 O1205 1.961 . S
Li1147 O1206 1.970 . S
Li1147 O1207 1.956 . S
C1148 C1150 1.348 . S
C1148 C1151 1.356 . S
C1148 O1204 1.325 . S
N1149 C1152 1.314 . S
N1149 C1153 1.279 . S
C1150 C1148 1.348 . S
C1150 C1152 1.353 . S
C1150 H1208 0.929 . S
C1151 C1148 1.356 . S
C1151 C1153 1.358 . S
C1151 H1209 0.930 . S
C1152 N1149 1.314 . S
C1152 C1150 1.353 . S
C1152 H1210 0.930 . S
C1153 N1149 1.279 . S
C1153 C1151 1.358 . S
C1153 H1211 0.930 . S
C1154 C1157 1.348 . S
C1154 C1158 1.356 . S
C1154 O1205 1.325 . S
C1155 N1156 1.279 . S
C1155 C1158 1.358 . S
C1155 H1212 0.930 . S
N1156 C1155 1.279 . S
N1156 C1159 1.314 . S
C1157 C1154 1.348 . S
C1157 C1159 1.353 . S
C1157 H1213 0.929 . S
C1158 C1154 1.356 . S
C1158 C1155 1.358 . S
C1158 H1214 0.930 . S
C1159 N1156 1.314 . S
C1159 C1157 1.353 . S
C1159 H1215 0.930 . S
C1160 N1161 1.314 . S
C1160 C1165 1.353 . S
C1160 H1166 0.930 . S
N1161 Li1144 1.990 . S
N1161 C1160 1.314 . S
N1161 C1163 1.279 . S
C1162 C1163 1.358 . S
C1162 C1164 1.356 . S
C1162 H1216 0.930 . S
C1163 N1161 1.279 . S
C1163 C1162 1.358 . S
C1163 H1167 0.930 . S
C1164 C1162 1.356 . S
C1164 C1165 1.348 . S
C1165 C1160 1.353 . S
C1165 C1164 1.348 . S
C1165 H1217 0.929 . S
H1166 C1160 0.930 . S
H1167 C1163 0.930 . S
C1168 N1169 1.314 . S
C1168 C1170 1.353 . S
C1168 H1174 0.930 . S
N1169 Li1145 1.990 . S
N1169 C1168 1.314 . S
N1169 C1172 1.279 . S
C1170 C1168 1.353 . S
C1170 C1173 1.348 . S
C1170 H1218 0.929 . S
C1171 C1172 1.358 . S
C1171 C1173 1.356 . S
C1171 H1219 0.930 . S
C1172 N1169 1.279 . S
C1172 C1171 1.358 . S
C1172 H1175 0.930 . S
C1173 C1170 1.348 . S
C1173 C1171 1.356 . S
H1174 C1168 0.930 . S
H1175 C1172 0.930 . S
C1176 C1178 1.348 . S
C1176 C1179 1.356 . S
C1176 O1206 1.325 . S
N1177 C1180 1.314 . S
N1177 C1181 1.279 . S
C1178 C1176 1.348 . S
C1178 C1180 1.353 . S
C1178 H1220 0.929 . S
C1179 C1176 1.356 . S
C1179 C1181 1.358 . S
C1179 H1221 0.930 . S
C1180 N1177 1.314 . S
C1180 C1178 1.353 . S
C1180 H1222 0.930 . S
C1181 N1177 1.279 . S
C1181 C1179 1.358 . S
C1181 H1223 0.930 . S
C1182 C1183 1.348 . S
C1182 C1184 1.356 . S
C1182 O1207 1.325 . S
C1183 C1182 1.348 . S
C1183 C1185 1.353 . S
C1183 H1224 0.929 . S
C1184 C1182 1.356 . S
C1184 C1186 1.358 . S
C1184 H1225 0.930 . S
C1185 C1183 1.353 . S
C1185 N1187 1.314 . S
C1185 H1226 0.930 . S
C1186 C1184 1.358 . S
C1186 N1187 1.279 . S
C1186 H1227 0.930 . S
N1187 C1185 1.314 . S
N1187 C1186 1.279 . S
C1188 C1190 1.353 . S
C1188 N1191 1.314 . S
C1188 H1194 0.930 . S
C1189 N1191 1.279 . S
C1189 C1192 1.358 . S
C1189 H1195 0.930 . S
C1190 C1188 1.353 . S
C1190 C1193 1.348 . S
C1190 H1228 0.929 . S
N1191 Li1146 1.990 . S
N1191 C1188 1.314 . S
N1191 C1189 1.279 . S
C1192 C1189 1.358 . S
C1192 C1193 1.356 . S
C1192 H1229 0.930 . S
C1193 C1190 1.348 . S
C1193 C1192 1.356 . S
H1194 C1188 0.930 . S
H1195 C1189 0.930 . S
C1196 N1197 1.314 . S
C1196 C1198 1.353 . S
C1196 H1202 0.930 . S
N1197 Li1147 1.990 . S
N1197 C1196 1.314 . S
N1197 C1200 1.279 . S
C1198 C1196 1.353 . S
C1198 C1201 1.348 . S
C1198 H1230 0.929 . S
C1199 C1200 1.358 . S
C1199 C1201 1.356 . S
C1199 H1231 0.930 . S
C1200 N1197 1.279 . S
C1200 C1199 1.358 . S
C1200 H1203 0.930 . S
C1201 C1198 1.348 . S
C1201 C1199 1.356 . S
H1202 C1196 0.930 . S
H1203 C1200 0.930 . S
O1204 Li1144 1.956 . S
O1204 Li1145 1.970 . S
O1204 Li1146 1.961 . S
O1204 C1148 1.325 . S
O1205 Li1144 1.970 . S
O1205 Li1145 1.956 . S
O1205 Li1147 1.961 . S
O1205 C1154 1.325 . S
O1206 Li1144 1.961 . S
O1206 Li1146 1.956 . S
O1206 Li1147 1.970 . S
O1206 C1176 1.325 . S
O1207 Li1145 1.961 . S
O1207 Li1146 1.970 . S
O1207 Li1147 1.956 . S
O1207 C1182 1.325 . S
H1208 C1150 0.929 . S
H1209 C1151 0.930 . S
H1210 C1152 0.930 . S
H1211 C1153 0.930 . S
H1212 C1155 0.930 . S
H1213 C1157 0.929 . S
H1214 C1158 0.930 . S
H1215 C1159 0.930 . S
H1216 C1162 0.930 . S
H1217 C1165 0.929 . S
H1218 C1170 0.929 . S
H1219 C1171 0.930 . S
H1220 C1178 0.929 . S
H1221 C1179 0.930 . S
H1222 C1180 0.930 . S
H1223 C1181 0.930 . S
H1224 C1183 0.929 . S
H1225 C1184 0.930 . S
H1226 C1185 0.930 . S
H1227 C1186 0.930 . S
H1228 C1190 0.929 . S
H1229 C1192 0.930 . S
H1230 C1198 0.929 . S
H1231 C1199 0.930 . S
Li1232 N1249 1.990 . S
Li1232 O1292 1.956 . S
Li1232 O1293 1.970 . S
Li1232 O1294 1.961 . S
Li1233 N1257 1.990 . S
Li1233 O1292 1.970 . S
Li1233 O1293 1.956 . S
Li1233 O1295 1.961 . S
Li1234 N1279 1.990 . S
Li1234 O1292 1.961 . S
Li1234 O1294 1.956 . S
Li1234 O1295 1.970 . S
Li1235 N1285 1.990 . S
Li1235 O1293 1.961 . S
Li1235 O1294 1.970 . S
Li1235 O1295 1.956 . S
C1236 C1238 1.348 . S
C1236 C1239 1.356 . S
C1236 O1292 1.325 . S
N1237 C1240 1.314 . S
N1237 C1241 1.279 . S
C1238 C1236 1.348 . S
C1238 C1240 1.353 . S
C1238 H1296 0.929 . S
C1239 C1236 1.356 . S
C1239 C1241 1.358 . S
C1239 H1297 0.930 . S
C1240 N1237 1.314 . S
C1240 C1238 1.353 . S
C1240 H1298 0.930 . S
C1241 N1237 1.279 . S
C1241 C1239 1.358 . S
C1241 H1299 0.930 . S
C1242 C1245 1.348 . S
C1242 C1246 1.356 . S
C1242 O1293 1.325 . S
C1243 N1244 1.279 . S
C1243 C1246 1.358 . S
C1243 H1300 0.930 . S
N1244 C1243 1.279 . S
N1244 C1247 1.314 . S
C1245 C1242 1.348 . S
C1245 C1247 1.353 . S
C1245 H1301 0.929 . S
C1246 C1242 1.356 . S
C1246 C1243 1.358 . S
C1246 H1302 0.930 . S
C1247 N1244 1.314 . S
C1247 C1245 1.353 . S
C1247 H1303 0.930 . S
C1248 N1249 1.314 1_455 S
C1248 C1253 1.353 . S
C1248 H1254 0.930 1_455 S
N1249 Li1232 1.990 . S
N1249 C1248 1.314 1_655 S
N1249 C1251 1.279 . S
C1250 C1251 1.358 1_455 S
C1250 C1252 1.356 . S
C1250 H1304 0.930 . S
C1251 N1249 1.279 . S
C1251 C1250 1.358 1_655 S
C1251 H1255 0.930 . S
C1252 C1250 1.356 . S
C1252 C1253 1.348 . S
C1253 C1248 1.353 . S
C1253 C1252 1.348 . S
C1253 H1305 0.929 . S
H1254 C1248 0.930 1_655 S
H1255 C1251 0.930 . S
C1256 N1257 1.314 . S
C1256 C1258 1.353 . S
C1256 H1262 0.930 . S
N1257 Li1233 1.990 . S
N1257 C1256 1.314 . S
N1257 C1260 1.279 . S
C1258 C1256 1.353 . S
C1258 C1261 1.348 . S
C1258 H1306 0.929 . S
C1259 C1260 1.358 . S
C1259 C1261 1.356 . S
C1259 H1307 0.930 . S
C1260 N1257 1.279 . S
C1260 C1259 1.358 . S
C1260 H1263 0.930 . S
C1261 C1258 1.348 . S
C1261 C1259 1.356 . S
H1262 C1256 0.930 . S
H1263 C1260 0.930 . S
C1264 C1266 1.348 . S
C1264 C1267 1.356 . S
C1264 O1294 1.325 . S
N1265 C1268 1.314 1_455 S
N1265 C1269 1.279 . S
C1266 C1264 1.348 . S
C1266 C1268 1.353 . S
C1266 H1308 0.929 . S
C1267 C1264 1.356 . S
C1267 C1269 1.358 1_655 S
C1267 H1309 0.935 . S
C1268 N1265 1.314 1_655 S
C1268 C1266 1.353 . S
C1268 H1310 0.930 . S
C1269 N1265 1.279 . S
C1269 C1267 1.358 1_455 S
C1269 H1311 0.930 . S
C1270 C1271 1.348 . S
C1270 C1272 1.356 . S
C1270 O1295 1.325 . S
C1271 C1270 1.348 . S
C1271 C1273 1.353 . S
C1271 H1312 0.929 . S
C1272 C1270 1.356 . S
C1272 C1274 1.358 . S
C1272 H1313 0.930 . S
C1273 C1271 1.353 . S
C1273 N1275 1.314 . S
C1273 H1314 0.930 . S
C1274 C1272 1.358 . S
C1274 N1275 1.279 . S
C1274 H1315 0.930 . S
N1275 C1273 1.314 . S
N1275 C1274 1.279 . S
C1276 C1278 1.353 . S
C1276 N1279 1.314 . S
C1276 H1282 0.930 . S
C1277 N1279 1.279 . S
C1277 C1280 1.358 . S
C1277 H1283 0.930 . S
C1278 C1276 1.353 . S
C1278 C1281 1.348 . S
C1278 H1316 0.929 . S
N1279 Li1234 1.990 . S
N1279 C1276 1.314 . S
N1279 C1277 1.279 . S
C1280 C1277 1.358 . S
C1280 C1281 1.356 . S
C1280 H1317 0.930 . S
C1281 C1278 1.348 . S
C1281 C1280 1.356 . S
H1282 C1276 0.930 . S
H1283 C1277 0.930 . S
C1284 N1285 1.314 . S
C1284 C1286 1.353 . S
C1284 H1290 0.930 . S
N1285 Li1235 1.990 . S
N1285 C1284 1.314 . S
N1285 C1288 1.279 . S
C1286 C1284 1.353 . S
C1286 C1289 1.348 . S
C1286 H1318 0.929 . S
C1287 C1288 1.358 . S
C1287 C1289 1.356 . S
C1287 H1319 0.930 . S
C1288 N1285 1.279 . S
C1288 C1287 1.358 . S
C1288 H1291 0.930 . S
C1289 C1286 1.348 . S
C1289 C1287 1.356 . S
H1290 C1284 0.930 . S
H1291 C1288 0.930 . S
O1292 Li1232 1.956 . S
O1292 Li1233 1.970 . S
O1292 Li1234 1.961 . S
O1292 C1236 1.325 . S
O1293 Li1232 1.970 . S
O1293 Li1233 1.956 . S
O1293 Li1235 1.961 . S
O1293 C1242 1.325 . S
O1294 Li1232 1.961 . S
O1294 Li1234 1.956 . S
O1294 Li1235 1.970 . S
O1294 C1264 1.325 . S
O1295 Li1233 1.961 . S
O1295 Li1234 1.970 . S
O1295 Li1235 1.956 . S
O1295 C1270 1.325 . S
H1296 C1238 0.929 . S
H1297 C1239 0.930 . S
H1298 C1240 0.930 . S
H1299 C1241 0.930 . S
H1300 C1243 0.930 . S
H1301 C1245 0.929 . S
H1302 C1246 0.930 . S
H1303 C1247 0.930 . S
H1304 C1250 0.930 . S
H1305 C1253 0.929 . S
H1306 C1258 0.929 . S
H1307 C1259 0.930 . S
H1308 C1266 0.929 . S
H1309 C1267 0.935 . S
H1310 C1268 0.930 . S
H1311 C1269 0.930 . S
H1312 C1271 0.929 . S
H1313 C1272 0.930 . S
H1314 C1273 0.930 . S
H1315 C1274 0.930 . S
H1316 C1278 0.929 . S
H1317 C1280 0.930 . S
H1318 C1286 0.929 . S
H1319 C1287 0.930 . S
Li1320 N1337 1.990 . S
Li1320 O1380 1.956 . S
Li1320 O1381 1.970 . S
Li1320 O1382 1.961 . S
Li1321 N1345 1.990 . S
Li1321 O1380 1.970 . S
Li1321 O1381 1.956 . S
Li1321 O1383 1.961 . S
Li1322 N1367 1.990 . S
Li1322 O1380 1.961 . S
Li1322 O1382 1.956 . S
Li1322 O1383 1.970 . S
Li1323 N1373 1.990 . S
Li1323 O1381 1.961 . S
Li1323 O1382 1.970 . S
Li1323 O1383 1.956 . S
C1324 C1326 1.348 . S
C1324 C1327 1.356 . S
C1324 O1380 1.325 . S
N1325 C1328 1.314 . S
N1325 C1329 1.279 . S
C1326 C1324 1.348 . S
C1326 C1328 1.353 . S
C1326 H1384 0.929 . S
C1327 C1324 1.356 . S
C1327 C1329 1.358 . S
C1327 H1385 0.930 . S
C1328 N1325 1.314 . S
C1328 C1326 1.353 . S
C1328 H1386 0.930 . S
C1329 N1325 1.279 . S
C1329 C1327 1.358 . S
C1329 H1387 0.930 . S
C1330 C1333 1.348 . S
C1330 C1334 1.356 . S
C1330 O1381 1.325 . S
C1331 N1332 1.279 . S
C1331 C1334 1.358 . S
C1331 H1388 0.930 . S
N1332 C1331 1.279 . S
N1332 C1335 1.314 . S
C1333 C1330 1.348 . S
C1333 C1335 1.353 . S
C1333 H1389 0.929 . S
C1334 C1330 1.356 . S
C1334 C1331 1.358 . S
C1334 H1390 0.930 . S
C1335 N1332 1.314 . S
C1335 C1333 1.353 . S
C1335 H1391 0.930 . S
C1336 N1337 1.314 . S
C1336 C1341 1.353 . S
C1336 H1342 0.930 . S
N1337 Li1320 1.990 . S
N1337 C1336 1.314 . S
N1337 C1339 1.279 . S
C1338 C1339 1.358 . S
C1338 C1340 1.356 . S
C1338 H1392 0.930 . S
C1339 N1337 1.279 . S
C1339 C1338 1.358 . S
C1339 H1343 0.930 . S
C1340 C1338 1.356 . S
C1340 C1341 1.348 . S
C1341 C1336 1.353 . S
C1341 C1340 1.348 . S
C1341 H1393 0.929 . S
H1342 C1336 0.930 . S
H1343 C1339 0.930 . S
C1344 N1345 1.314 . S
C1344 C1346 1.353 . S
C1344 H1350 0.930 . S
N1345 Li1321 1.990 . S
N1345 C1344 1.314 . S
N1345 C1348 1.279 . S
C1346 C1344 1.353 . S
C1346 C1349 1.348 . S
C1346 H1394 0.929 . S
C1347 C1348 1.358 . S
C1347 C1349 1.356 . S
C1347 H1395 0.930 . S
C1348 N1345 1.279 . S
C1348 C1347 1.358 . S
C1348 H1351 0.930 . S
C1349 C1346 1.348 . S
C1349 C1347 1.356 . S
H1350 C1344 0.930 . S
H1351 C1348 0.930 . S
C1352 C1354 1.348 . S
C1352 C1355 1.356 . S
C1352 O1382 1.325 . S
N1353 C1356 1.314 . S
N1353 C1357 1.279 . S
C1354 C1352 1.348 . S
C1354 C1356 1.353 . S
C1354 H1396 0.929 . S
C1355 C1352 1.356 . S
C1355 C1357 1.358 . S
C1355 H1397 0.930 . S
C1356 N1353 1.314 . S
C1356 C1354 1.353 . S
C1356 H1398 0.930 . S
C1357 N1353 1.279 . S
C1357 C1355 1.358 . S
C1357 H1399 0.930 . S
C1358 C1359 1.348 . S
C1358 C1360 1.356 . S
C1358 O1383 1.325 . S
C1359 C1358 1.348 . S
C1359 C1361 1.353 . S
C1359 H1400 0.929 . S
C1360 C1358 1.356 . S
C1360 C1362 1.358 . S
C1360 H1401 0.930 . S
C1361 C1359 1.353 . S
C1361 N1363 1.314 . S
C1361 H1402 0.930 . S
C1362 C1360 1.358 . S
C1362 N1363 1.279 . S
C1362 H1403 0.930 . S
N1363 C1361 1.314 . S
N1363 C1362 1.279 . S
C1364 C1366 1.353 . S
C1364 N1367 1.314 . S
C1364 H1370 0.930 . S
C1365 N1367 1.279 . S
C1365 C1368 1.358 . S
C1365 H1371 0.930 . S
C1366 C1364 1.353 . S
C1366 C1369 1.348 . S
C1366 H1404 0.929 . S
N1367 Li1322 1.990 . S
N1367 C1364 1.314 . S
N1367 C1365 1.279 . S
C1368 C1365 1.358 . S
C1368 C1369 1.356 . S
C1368 H1405 0.930 . S
C1369 C1366 1.348 . S
C1369 C1368 1.356 . S
H1370 C1364 0.930 . S
H1371 C1365 0.930 . S
C1372 N1373 1.314 . S
C1372 C1374 1.353 . S
C1372 H1378 0.930 . S
N1373 Li1323 1.990 . S
N1373 C1372 1.314 . S
N1373 C1376 1.279 . S
C1374 C1372 1.353 . S
C1374 C1377 1.348 . S
C1374 H1406 0.929 . S
C1375 C1376 1.358 . S
C1375 C1377 1.356 . S
C1375 H1407 0.930 . S
C1376 N1373 1.279 . S
C1376 C1375 1.358 . S
C1376 H1379 0.930 . S
C1377 C1374 1.348 . S
C1377 C1375 1.356 . S
H1378 C1372 0.930 . S
H1379 C1376 0.930 . S
O1380 Li1320 1.956 . S
O1380 Li1321 1.970 . S
O1380 Li1322 1.961 . S
O1380 C1324 1.325 . S
O1381 Li1320 1.970 . S
O1381 Li1321 1.956 . S
O1381 Li1323 1.961 . S
O1381 C1330 1.325 . S
O1382 Li1320 1.961 . S
O1382 Li1322 1.956 . S
O1382 Li1323 1.970 . S
O1382 C1352 1.325 . S
O1383 Li1321 1.961 . S
O1383 Li1322 1.970 . S
O1383 Li1323 1.956 . S
O1383 C1358 1.325 . S
H1384 C1326 0.929 . S
H1385 C1327 0.930 . S
H1386 C1328 0.930 . S
H1387 C1329 0.930 . S
H1388 C1331 0.930 . S
H1389 C1333 0.929 . S
H1390 C1334 0.930 . S
H1391 C1335 0.930 . S
H1392 C1338 0.930 . S
H1393 C1341 0.929 . S
H1394 C1346 0.929 . S
H1395 C1347 0.930 . S
H1396 C1354 0.929 . S
H1397 C1355 0.930 . S
H1398 C1356 0.930 . S
H1399 C1357 0.930 . S
H1400 C1359 0.929 . S
H1401 C1360 0.930 . S
H1402 C1361 0.930 . S
H1403 C1362 0.930 . S
H1404 C1366 0.929 . S
H1405 C1368 0.930 . S
H1406 C1374 0.929 . S
H1407 C1375 0.930 . S
Li1408 N1425 1.990 . S
Li1408 O1468 1.956 . S
Li1408 O1469 1.970 . S
Li1408 O1470 1.961 . S
Li1409 N1433 1.990 . S
Li1409 O1468 1.970 . S
Li1409 O1469 1.956 . S
Li1409 O1471 1.961 . S
Li1410 N1455 1.990 . S
Li1410 O1468 1.961 . S
Li1410 O1470 1.956 . S
Li1410 O1471 1.970 . S
Li1411 N1461 1.990 . S
Li1411 O1469 1.961 . S
Li1411 O1470 1.970 . S
Li1411 O1471 1.956 . S
C1412 C1414 1.348 . S
C1412 C1415 1.356 . S
C1412 O1468 1.325 . S
N1413 C1416 1.314 . S
N1413 C1417 1.279 . S
C1414 C1412 1.348 . S
C1414 C1416 1.353 . S
C1414 H1472 0.929 . S
C1415 C1412 1.356 . S
C1415 C1417 1.358 . S
C1415 H1473 0.930 . S
C1416 N1413 1.314 . S
C1416 C1414 1.353 . S
C1416 H1474 0.930 . S
C1417 N1413 1.279 . S
C1417 C1415 1.358 . S
C1417 H1475 0.930 . S
C1418 C1421 1.348 . S
C1418 C1422 1.356 . S
C1418 O1469 1.325 . S
C1419 N1420 1.279 . S
C1419 C1422 1.358 . S
C1419 H1476 0.930 . S
N1420 C1419 1.279 . S
N1420 C1423 1.314 . S
C1421 C1418 1.348 . S
C1421 C1423 1.353 . S
C1421 H1477 0.929 . S
C1422 C1418 1.356 . S
C1422 C1419 1.358 . S
C1422 H1478 0.930 . S
C1423 N1420 1.314 . S
C1423 C1421 1.353 . S
C1423 H1479 0.930 . S
C1424 N1425 1.314 . S
C1424 C1429 1.353 . S
C1424 H1430 0.930 . S
N1425 Li1408 1.990 . S
N1425 C1424 1.314 . S
N1425 C1427 1.279 . S
C1426 C1427 1.358 . S
C1426 C1428 1.356 . S
C1426 H1480 0.930 . S
C1427 N1425 1.279 . S
C1427 C1426 1.358 . S
C1427 H1431 0.930 . S
C1428 C1426 1.356 . S
C1428 C1429 1.348 . S
C1429 C1424 1.353 . S
C1429 C1428 1.348 . S
C1429 H1481 0.929 . S
H1430 C1424 0.930 . S
H1431 C1427 0.930 . S
C1432 N1433 1.314 . S
C1432 C1434 1.353 . S
C1432 H1438 0.930 . S
N1433 Li1409 1.990 . S
N1433 C1432 1.314 . S
N1433 C1436 1.279 . S
C1434 C1432 1.353 . S
C1434 C1437 1.348 . S
C1434 H1482 0.929 . S
C1435 C1436 1.358 . S
C1435 C1437 1.356 . S
C1435 H1483 0.930 . S
C1436 N1433 1.279 . S
C1436 C1435 1.358 . S
C1436 H1439 0.930 . S
C1437 C1434 1.348 . S
C1437 C1435 1.356 . S
H1438 C1432 0.930 . S
H1439 C1436 0.930 . S
C1440 C1442 1.348 . S
C1440 C1443 1.356 . S
C1440 O1470 1.325 . S
N1441 C1444 1.314 . S
N1441 C1445 1.279 . S
C1442 C1440 1.348 . S
C1442 C1444 1.353 . S
C1442 H1484 0.929 . S
C1443 C1440 1.356 . S
C1443 C1445 1.358 . S
C1443 H1485 0.930 . S
C1444 N1441 1.314 . S
C1444 C1442 1.353 . S
C1444 H1486 0.930 . S
C1445 N1441 1.279 . S
C1445 C1443 1.358 . S
C1445 H1487 0.930 . S
C1446 C1447 1.348 . S
C1446 C1448 1.356 . S
C1446 O1471 1.325 . S
C1447 C1446 1.348 . S
C1447 C1449 1.353 . S
C1447 H1488 0.929 . S
C1448 C1446 1.356 . S
C1448 C1450 1.358 . S
C1448 H1489 0.930 . S
C1449 C1447 1.353 . S
C1449 N1451 1.314 . S
C1449 H1490 0.930 . S
C1450 C1448 1.358 . S
C1450 N1451 1.279 . S
C1450 H1491 0.930 . S
N1451 C1449 1.314 . S
N1451 C1450 1.279 . S
C1452 C1454 1.353 . S
C1452 N1455 1.314 . S
C1452 H1458 0.930 . S
C1453 N1455 1.279 . S
C1453 C1456 1.358 . S
C1453 H1459 0.930 . S
C1454 C1452 1.353 . S
C1454 C1457 1.348 . S
C1454 H1492 0.929 . S
N1455 Li1410 1.990 . S
N1455 C1452 1.314 . S
N1455 C1453 1.279 . S
C1456 C1453 1.358 . S
C1456 C1457 1.356 . S
C1456 H1493 0.930 . S
C1457 C1454 1.348 . S
C1457 C1456 1.356 . S
H1458 C1452 0.930 . S
H1459 C1453 0.930 . S
C1460 N1461 1.314 . S
C1460 C1462 1.353 . S
C1460 H1466 0.930 . S
N1461 Li1411 1.990 . S
N1461 C1460 1.314 . S
N1461 C1464 1.279 . S
C1462 C1460 1.353 . S
C1462 C1465 1.348 . S
C1462 H1494 0.929 . S
C1463 C1464 1.358 . S
C1463 C1465 1.356 . S
C1463 H1495 0.930 . S
C1464 N1461 1.279 . S
C1464 C1463 1.358 . S
C1464 H1467 0.930 . S
C1465 C1462 1.348 . S
C1465 C1463 1.356 . S
H1466 C1460 0.930 . S
H1467 C1464 0.930 . S
O1468 Li1408 1.956 . S
O1468 Li1409 1.970 . S
O1468 Li1410 1.961 . S
O1468 C1412 1.325 . S
O1469 Li1408 1.970 . S
O1469 Li1409 1.956 . S
O1469 Li1411 1.961 . S
O1469 C1418 1.325 . S
O1470 Li1408 1.961 . S
O1470 Li1410 1.956 . S
O1470 Li1411 1.970 . S
O1470 C1440 1.325 . S
O1471 Li1409 1.961 . S
O1471 Li1410 1.970 . S
O1471 Li1411 1.956 . S
O1471 C1446 1.325 . S
H1472 C1414 0.929 . S
H1473 C1415 0.930 . S
H1474 C1416 0.930 . S
H1475 C1417 0.930 . S
H1476 C1419 0.930 . S
H1477 C1421 0.929 . S
H1478 C1422 0.930 . S
H1479 C1423 0.930 . S
H1480 C1426 0.930 . S
H1481 C1429 0.929 . S
H1482 C1434 0.929 . S
H1483 C1435 0.930 . S
H1484 C1442 0.929 . S
H1485 C1443 0.930 . S
H1486 C1444 0.930 . S
H1487 C1445 0.930 . S
H1488 C1447 0.929 . S
H1489 C1448 0.930 . S
H1490 C1449 0.930 . S
H1491 C1450 0.930 . S
H1492 C1454 0.929 . S
H1493 C1456 0.930 . S
H1494 C1462 0.929 . S
H1495 C1463 0.930 . S
Li1496 N1513 1.990 . S
Li1496 O1556 1.956 . S
Li1496 O1557 1.970 . S
Li1496 O1558 1.961 . S
Li1497 N1521 1.990 . S
Li1497 O1556 1.970 . S
Li1497 O1557 1.956 . S
Li1497 O1559 1.961 . S
Li1498 N1543 1.990 . S
Li1498 O1556 1.961 . S
Li1498 O1558 1.956 . S
Li1498 O1559 1.970 . S
Li1499 N1549 1.990 . S
Li1499 O1557 1.961 . S
Li1499 O1558 1.970 . S
Li1499 O1559 1.956 . S
C1500 C1502 1.348 . S
C1500 C1503 1.356 . S
C1500 O1556 1.325 . S
N1501 C1504 1.314 . S
N1501 C1505 1.279 . S
C1502 C1500 1.348 . S
C1502 C1504 1.353 . S
C1502 H1560 0.929 . S
C1503 C1500 1.356 . S
C1503 C1505 1.358 . S
C1503 H1561 0.930 . S
C1504 N1501 1.314 . S
C1504 C1502 1.353 . S
C1504 H1562 0.930 . S
C1505 N1501 1.279 . S
C1505 C1503 1.358 . S
C1505 H1563 0.930 . S
C1506 C1509 1.348 . S
C1506 C1510 1.356 . S
C1506 O1557 1.325 . S
C1507 N1508 1.279 . S
C1507 C1510 1.358 . S
C1507 H1564 0.930 . S
N1508 C1507 1.279 . S
N1508 C1511 1.314 . S
C1509 C1506 1.348 . S
C1509 C1511 1.353 . S
C1509 H1565 0.929 . S
C1510 C1506 1.356 . S
C1510 C1507 1.358 . S
C1510 H1566 0.930 . S
C1511 N1508 1.314 . S
C1511 C1509 1.353 . S
C1511 H1567 0.930 . S
C1512 N1513 1.314 . S
C1512 C1517 1.353 . S
C1512 H1518 0.930 . S
N1513 Li1496 1.990 . S
N1513 C1512 1.314 . S
N1513 C1515 1.279 . S
C1514 C1515 1.358 . S
C1514 C1516 1.356 . S
C1514 H1568 0.930 . S
C1515 N1513 1.279 . S
C1515 C1514 1.358 . S
C1515 H1519 0.930 . S
C1516 C1514 1.356 . S
C1516 C1517 1.348 . S
C1517 C1512 1.353 . S
C1517 C1516 1.348 . S
C1517 H1569 0.929 . S
H1518 C1512 0.930 . S
H1519 C1515 0.930 . S
C1520 N1521 1.314 . S
C1520 C1522 1.353 . S
C1520 H1526 0.930 . S
N1521 Li1497 1.990 . S
N1521 C1520 1.314 . S
N1521 C1524 1.279 . S
C1522 C1520 1.353 . S
C1522 C1525 1.348 . S
C1522 H1570 0.929 . S
C1523 C1524 1.358 . S
C1523 C1525 1.356 . S
C1523 H1571 0.930 . S
C1524 N1521 1.279 . S
C1524 C1523 1.358 . S
C1524 H1527 0.930 . S
C1525 C1522 1.348 . S
C1525 C1523 1.356 . S
H1526 C1520 0.930 . S
H1527 C1524 0.930 . S
C1528 C1530 1.348 . S
C1528 C1531 1.356 . S
C1528 O1558 1.325 . S
N1529 C1532 1.314 . S
N1529 C1533 1.279 . S
C1530 C1528 1.348 . S
C1530 C1532 1.353 . S
C1530 H1572 0.929 . S
C1531 C1528 1.356 . S
C1531 C1533 1.358 . S
C1531 H1573 0.930 . S
C1532 N1529 1.314 . S
C1532 C1530 1.353 . S
C1532 H1574 0.930 . S
C1533 N1529 1.279 . S
C1533 C1531 1.358 . S
C1533 H1575 0.930 . S
C1534 C1535 1.348 . S
C1534 C1536 1.356 . S
C1534 O1559 1.325 . S
C1535 C1534 1.348 . S
C1535 C1537 1.353 . S
C1535 H1576 0.929 . S
C1536 C1534 1.356 . S
C1536 C1538 1.358 . S
C1536 H1577 0.930 . S
C1537 C1535 1.353 . S
C1537 N1539 1.314 . S
C1537 H1578 0.930 . S
C1538 C1536 1.358 . S
C1538 N1539 1.279 . S
C1538 H1579 0.930 . S
N1539 C1537 1.314 . S
N1539 C1538 1.279 . S
C1540 C1542 1.353 . S
C1540 N1543 1.314 . S
C1540 H1546 0.930 . S
C1541 N1543 1.279 . S
C1541 C1544 1.358 . S
C1541 H1547 0.930 . S
C1542 C1540 1.353 . S
C1542 C1545 1.348 . S
C1542 H1580 0.929 . S
N1543 Li1498 1.990 . S
N1543 C1540 1.314 . S
N1543 C1541 1.279 . S
C1544 C1541 1.358 . S
C1544 C1545 1.356 . S
C1544 H1581 0.930 . S
C1545 C1542 1.348 . S
C1545 C1544 1.356 . S
H1546 C1540 0.930 . S
H1547 C1541 0.930 . S
C1548 N1549 1.314 . S
C1548 C1550 1.353 . S
C1548 H1554 0.930 . S
N1549 Li1499 1.990 . S
N1549 C1548 1.314 . S
N1549 C1552 1.279 . S
C1550 C1548 1.353 . S
C1550 C1553 1.348 . S
C1550 H1582 0.929 . S
C1551 C1552 1.358 . S
C1551 C1553 1.356 . S
C1551 H1583 0.930 . S
C1552 N1549 1.279 . S
C1552 C1551 1.358 . S
C1552 H1555 0.930 . S
C1553 C1550 1.348 . S
C1553 C1551 1.356 . S
H1554 C1548 0.930 . S
H1555 C1552 0.930 . S
O1556 Li1496 1.956 . S
O1556 Li1497 1.970 . S
O1556 Li1498 1.961 . S
O1556 C1500 1.325 . S
O1557 Li1496 1.970 . S
O1557 Li1497 1.956 . S
O1557 Li1499 1.961 . S
O1557 C1506 1.325 . S
O1558 Li1496 1.961 . S
O1558 Li1498 1.956 . S
O1558 Li1499 1.970 . S
O1558 C1528 1.325 . S
O1559 Li1497 1.961 . S
O1559 Li1498 1.970 . S
O1559 Li1499 1.956 . S
O1559 C1534 1.325 . S
H1560 C1502 0.929 . S
H1561 C1503 0.930 . S
H1562 C1504 0.930 . S
H1563 C1505 0.930 . S
H1564 C1507 0.930 . S
H1565 C1509 0.929 . S
H1566 C1510 0.930 . S
H1567 C1511 0.930 . S
H1568 C1514 0.930 . S
H1569 C1517 0.929 . S
H1570 C1522 0.929 . S
H1571 C1523 0.930 . S
H1572 C1530 0.929 . S
H1573 C1531 0.930 . S
H1574 C1532 0.930 . S
H1575 C1533 0.930 . S
H1576 C1535 0.929 . S
H1577 C1536 0.930 . S
H1578 C1537 0.930 . S
H1579 C1538 0.930 . S
H1580 C1542 0.929 . S
H1581 C1544 0.930 . S
H1582 C1550 0.929 . S
H1583 C1551 0.930 . S
Li1584 N1601 1.990 . S
Li1584 O1644 1.956 . S
Li1584 O1645 1.970 . S
Li1584 O1646 1.961 . S
Li1585 N1609 1.990 . S
Li1585 O1644 1.970 . S
Li1585 O1645 1.956 . S
Li1585 O1647 1.961 . S
Li1586 N1631 1.990 . S
Li1586 O1644 1.961 . S
Li1586 O1646 1.956 . S
Li1586 O1647 1.970 . S
Li1587 N1637 1.990 . S
Li1587 O1645 1.961 . S
Li1587 O1646 1.970 . S
Li1587 O1647 1.956 . S
C1588 C1590 1.348 . S
C1588 C1591 1.356 . S
C1588 O1644 1.325 . S
N1589 C1592 1.314 . S
N1589 C1593 1.279 . S
C1590 C1588 1.348 . S
C1590 C1592 1.353 . S
C1590 H1648 0.929 . S
C1591 C1588 1.356 . S
C1591 C1593 1.358 . S
C1591 H1649 0.930 . S
C1592 N1589 1.314 . S
C1592 C1590 1.353 . S
C1592 H1650 0.930 . S
C1593 N1589 1.279 . S
C1593 C1591 1.358 . S
C1593 H1651 0.930 . S
C1594 C1597 1.348 . S
C1594 C1598 1.356 . S
C1594 O1645 1.325 . S
C1595 N1596 1.279 . S
C1595 C1598 1.358 . S
C1595 H1652 0.930 . S
N1596 C1595 1.279 . S
N1596 C1599 1.314 . S
C1597 C1594 1.348 . S
C1597 C1599 1.353 . S
C1597 H1653 0.929 . S
C1598 C1594 1.356 . S
C1598 C1595 1.358 . S
C1598 H1654 0.930 . S
C1599 N1596 1.314 . S
C1599 C1597 1.353 . S
C1599 H1655 0.930 . S
C1600 N1601 1.314 . S
C1600 C1605 1.353 . S
C1600 H1606 0.930 . S
N1601 Li1584 1.990 . S
N1601 C1600 1.314 . S
N1601 C1603 1.279 . S
C1602 C1603 1.358 . S
C1602 C1604 1.356 . S
C1602 H1656 0.930 . S
C1603 N1601 1.279 . S
C1603 C1602 1.358 . S
C1603 H1607 0.930 . S
C1604 C1602 1.356 . S
C1604 C1605 1.348 . S
C1605 C1600 1.353 . S
C1605 C1604 1.348 . S
C1605 H1657 0.929 . S
H1606 C1600 0.930 . S
H1607 C1603 0.930 . S
C1608 N1609 1.314 . S
C1608 C1610 1.353 . S
C1608 H1614 0.930 . S
N1609 Li1585 1.990 . S
N1609 C1608 1.314 . S
N1609 C1612 1.279 . S
C1610 C1608 1.353 . S
C1610 C1613 1.348 . S
C1610 H1658 0.929 . S
C1611 C1612 1.358 . S
C1611 C1613 1.356 . S
C1611 H1659 0.930 . S
C1612 N1609 1.279 . S
C1612 C1611 1.358 . S
C1612 H1615 0.930 . S
C1613 C1610 1.348 . S
C1613 C1611 1.356 . S
H1614 C1608 0.930 . S
H1615 C1612 0.930 . S
C1616 C1618 1.348 . S
C1616 C1619 1.356 . S
C1616 O1646 1.325 . S
N1617 C1620 1.314 . S
N1617 C1621 1.279 . S
C1618 C1616 1.348 . S
C1618 C1620 1.353 . S
C1618 H1660 0.929 . S
C1619 C1616 1.356 . S
C1619 C1621 1.358 . S
C1619 H1661 0.930 . S
C1620 N1617 1.314 . S
C1620 C1618 1.353 . S
C1620 H1662 0.930 . S
C1621 N1617 1.279 . S
C1621 C1619 1.358 . S
C1621 H1663 0.930 . S
C1622 C1623 1.348 . S
C1622 C1624 1.356 . S
C1622 O1647 1.325 . S
C1623 C1622 1.348 . S
C1623 C1625 1.353 . S
C1623 H1664 0.929 . S
C1624 C1622 1.356 . S
C1624 C1626 1.358 . S
C1624 H1665 0.930 . S
C1625 C1623 1.353 . S
C1625 N1627 1.314 . S
C1625 H1666 0.930 . S
C1626 C1624 1.358 . S
C1626 N1627 1.279 . S
C1626 H1667 0.930 . S
N1627 C1625 1.314 . S
N1627 C1626 1.279 . S
C1628 C1630 1.353 . S
C1628 N1631 1.314 . S
C1628 H1634 0.930 . S
C1629 N1631 1.279 . S
C1629 C1632 1.358 . S
C1629 H1635 0.930 . S
C1630 C1628 1.353 . S
C1630 C1633 1.348 . S
C1630 H1668 0.929 . S
N1631 Li1586 1.990 . S
N1631 C1628 1.314 . S
N1631 C1629 1.279 . S
C1632 C1629 1.358 . S
C1632 C1633 1.356 . S
C1632 H1669 0.930 . S
C1633 C1630 1.348 . S
C1633 C1632 1.356 . S
H1634 C1628 0.930 . S
H1635 C1629 0.930 . S
C1636 N1637 1.314 . S
C1636 C1638 1.353 . S
C1636 H1642 0.930 . S
N1637 Li1587 1.990 . S
N1637 C1636 1.314 . S
N1637 C1640 1.279 . S
C1638 C1636 1.353 . S
C1638 C1641 1.348 . S
C1638 H1670 0.929 . S
C1639 C1640 1.358 . S
C1639 C1641 1.356 . S
C1639 H1671 0.930 . S
C1640 N1637 1.279 . S
C1640 C1639 1.358 . S
C1640 H1643 0.930 . S
C1641 C1638 1.348 . S
C1641 C1639 1.356 . S
H1642 C1636 0.930 . S
H1643 C1640 0.930 . S
O1644 Li1584 1.956 . S
O1644 Li1585 1.970 . S
O1644 Li1586 1.961 . S
O1644 C1588 1.325 . S
O1645 Li1584 1.970 . S
O1645 Li1585 1.956 . S
O1645 Li1587 1.961 . S
O1645 C1594 1.325 . S
O1646 Li1584 1.961 . S
O1646 Li1586 1.956 . S
O1646 Li1587 1.970 . S
O1646 C1616 1.325 . S
O1647 Li1585 1.961 . S
O1647 Li1586 1.970 . S
O1647 Li1587 1.956 . S
O1647 C1622 1.325 . S
H1648 C1590 0.929 . S
H1649 C1591 0.930 . S
H1650 C1592 0.930 . S
H1651 C1593 0.930 . S
H1652 C1595 0.930 . S
H1653 C1597 0.929 . S
H1654 C1598 0.930 . S
H1655 C1599 0.930 . S
H1656 C1602 0.930 . S
H1657 C1605 0.929 . S
H1658 C1610 0.929 . S
H1659 C1611 0.930 . S
H1660 C1618 0.929 . S
H1661 C1619 0.930 . S
H1662 C1620 0.930 . S
H1663 C1621 0.930 . S
H1664 C1623 0.929 . S
H1665 C1624 0.930 . S
H1666 C1625 0.930 . S
H1667 C1626 0.930 . S
H1668 C1630 0.929 . S
H1669 C1632 0.930 . S
H1670 C1638 0.929 . S
H1671 C1639 0.930 . S
Li1672 N1689 1.990 . S
Li1672 O1732 1.956 . S
Li1672 O1733 1.970 . S
Li1672 O1734 1.961 . S
Li1673 N1697 1.990 . S
Li1673 O1732 1.970 . S
Li1673 O1733 1.956 . S
Li1673 O1735 1.961 . S
Li1674 N1719 1.990 . S
Li1674 O1732 1.961 . S
Li1674 O1734 1.956 . S
Li1674 O1735 1.970 . S
Li1675 N1725 1.990 . S
Li1675 O1733 1.961 . S
Li1675 O1734 1.970 . S
Li1675 O1735 1.956 . S
C1676 C1678 1.348 . S
C1676 C1679 1.356 . S
C1676 O1732 1.325 . S
N1677 C1680 1.314 . S
N1677 C1681 1.279 . S
C1678 C1676 1.348 . S
C1678 C1680 1.353 . S
C1678 H1736 0.929 . S
C1679 C1676 1.356 . S
C1679 C1681 1.358 . S
C1679 H1737 0.930 . S
C1680 N1677 1.314 . S
C1680 C1678 1.353 . S
C1680 H1738 0.930 . S
C1681 N1677 1.279 . S
C1681 C1679 1.358 . S
C1681 H1739 0.930 . S
C1682 C1685 1.348 . S
C1682 C1686 1.356 . S
C1682 O1733 1.325 . S
C1683 N1684 1.279 . S
C1683 C1686 1.358 . S
C1683 H1740 0.930 . S
N1684 C1683 1.279 . S
N1684 C1687 1.314 . S
C1685 C1682 1.348 . S
C1685 C1687 1.353 . S
C1685 H1741 0.929 . S
C1686 C1682 1.356 . S
C1686 C1683 1.358 . S
C1686 H1742 0.930 . S
C1687 N1684 1.314 . S
C1687 C1685 1.353 . S
C1687 H1743 0.930 . S
C1688 N1689 1.314 . S
C1688 C1693 1.353 . S
C1688 H1694 0.930 . S
N1689 Li1672 1.990 . S
N1689 C1688 1.314 . S
N1689 C1691 1.279 . S
C1690 C1691 1.358 . S
C1690 C1692 1.356 . S
C1690 H1744 0.930 . S
C1691 N1689 1.279 . S
C1691 C1690 1.358 . S
C1691 H1695 0.930 . S
C1692 C1690 1.356 . S
C1692 C1693 1.348 . S
C1693 C1688 1.353 . S
C1693 C1692 1.348 . S
C1693 H1745 0.929 . S
H1694 C1688 0.930 . S
H1695 C1691 0.930 . S
C1696 N1697 1.314 . S
C1696 C1698 1.353 . S
C1696 H1702 0.930 . S
N1697 Li1673 1.990 . S
N1697 C1696 1.314 . S
N1697 C1700 1.279 . S
C1698 C1696 1.353 . S
C1698 C1701 1.348 . S
C1698 H1746 0.929 . S
C1699 C1700 1.358 . S
C1699 C1701 1.356 . S
C1699 H1747 0.930 . S
C1700 N1697 1.279 . S
C1700 C1699 1.358 . S
C1700 H1703 0.930 . S
C1701 C1698 1.348 . S
C1701 C1699 1.356 . S
H1702 C1696 0.930 . S
H1703 C1700 0.930 . S
C1704 C1706 1.348 . S
C1704 C1707 1.356 . S
C1704 O1734 1.325 . S
N1705 C1708 1.314 . S
N1705 C1709 1.279 . S
C1706 C1704 1.348 . S
C1706 C1708 1.353 . S
C1706 H1748 0.929 . S
C1707 C1704 1.356 . S
C1707 C1709 1.358 . S
C1707 H1749 0.930 . S
C1708 N1705 1.314 . S
C1708 C1706 1.353 . S
C1708 H1750 0.930 . S
C1709 N1705 1.279 . S
C1709 C1707 1.358 . S
C1709 H1751 0.930 . S
C1710 C1711 1.348 . S
C1710 C1712 1.356 . S
C1710 O1735 1.325 . S
C1711 C1710 1.348 . S
C1711 C1713 1.353 . S
C1711 H1752 0.929 . S
C1712 C1710 1.356 . S
C1712 C1714 1.358 . S
C1712 H1753 0.930 . S
C1713 C1711 1.353 . S
C1713 N1715 1.314 . S
C1713 H1754 0.930 . S
C1714 C1712 1.358 . S
C1714 N1715 1.279 . S
C1714 H1755 0.930 . S
N1715 C1713 1.314 . S
N1715 C1714 1.279 . S
C1716 C1718 1.353 . S
C1716 N1719 1.314 . S
C1716 H1722 0.930 . S
C1717 N1719 1.279 . S
C1717 C1720 1.358 . S
C1717 H1723 0.930 . S
C1718 C1716 1.353 . S
C1718 C1721 1.348 . S
C1718 H1756 0.929 . S
N1719 Li1674 1.990 . S
N1719 C1716 1.314 . S
N1719 C1717 1.279 . S
C1720 C1717 1.358 . S
C1720 C1721 1.356 . S
C1720 H1757 0.930 . S
C1721 C1718 1.348 . S
C1721 C1720 1.356 . S
H1722 C1716 0.930 . S
H1723 C1717 0.930 . S
C1724 N1725 1.314 . S
C1724 C1726 1.353 . S
C1724 H1730 0.930 . S
N1725 Li1675 1.990 . S
N1725 C1724 1.314 . S
N1725 C1728 1.279 . S
C1726 C1724 1.353 . S
C1726 C1729 1.348 . S
C1726 H1758 0.929 . S
C1727 C1728 1.358 . S
C1727 C1729 1.356 . S
C1727 H1759 0.930 . S
C1728 N1725 1.279 . S
C1728 C1727 1.358 . S
C1728 H1731 0.930 . S
C1729 C1726 1.348 . S
C1729 C1727 1.356 . S
H1730 C1724 0.930 . S
H1731 C1728 0.930 . S
O1732 Li1672 1.956 . S
O1732 Li1673 1.970 . S
O1732 Li1674 1.961 . S
O1732 C1676 1.325 . S
O1733 Li1672 1.970 . S
O1733 Li1673 1.956 . S
O1733 Li1675 1.961 . S
O1733 C1682 1.325 . S
O1734 Li1672 1.961 . S
O1734 Li1674 1.956 . S
O1734 Li1675 1.970 . S
O1734 C1704 1.325 . S
O1735 Li1673 1.961 . S
O1735 Li1674 1.970 . S
O1735 Li1675 1.956 . S
O1735 C1710 1.325 . S
H1736 C1678 0.929 . S
H1737 C1679 0.930 . S
H1738 C1680 0.930 . S
H1739 C1681 0.930 . S
H1740 C1683 0.930 . S
H1741 C1685 0.929 . S
H1742 C1686 0.930 . S
H1743 C1687 0.930 . S
H1744 C1690 0.930 . S
H1745 C1693 0.929 . S
H1746 C1698 0.929 . S
H1747 C1699 0.930 . S
H1748 C1706 0.929 . S
H1749 C1707 0.930 . S
H1750 C1708 0.930 . S
H1751 C1709 0.930 . S
H1752 C1711 0.929 . S
H1753 C1712 0.930 . S
H1754 C1713 0.930 . S
H1755 C1714 0.930 . S
H1756 C1718 0.929 . S
H1757 C1720 0.930 . S
H1758 C1726 0.929 . S
H1759 C1727 0.930 . S
Li1760 N1777 1.990 . S
Li1760 O1820 1.956 . S
Li1760 O1821 1.970 . S
Li1760 O1822 1.961 . S
Li1761 N1785 1.990 . S
Li1761 O1820 1.970 . S
Li1761 O1821 1.956 . S
Li1761 O1823 1.961 . S
Li1762 N1807 1.990 . S
Li1762 O1820 1.961 . S
Li1762 O1822 1.956 . S
Li1762 O1823 1.970 . S
Li1763 N1813 1.990 . S
Li1763 O1821 1.961 . S
Li1763 O1822 1.970 . S
Li1763 O1823 1.956 . S
C1764 C1766 1.348 . S
C1764 C1767 1.356 . S
C1764 O1820 1.325 . S
N1765 C1768 1.314 . S
N1765 C1769 1.279 . S
C1766 C1764 1.348 . S
C1766 C1768 1.353 . S
C1766 H1824 0.929 . S
C1767 C1764 1.356 . S
C1767 C1769 1.358 . S
C1767 H1825 0.930 . S
C1768 N1765 1.314 . S
C1768 C1766 1.353 . S
C1768 H1826 0.930 . S
C1769 N1765 1.279 . S
C1769 C1767 1.358 . S
C1769 H1827 0.930 . S
C1770 C1773 1.348 . S
C1770 C1774 1.356 . S
C1770 O1821 1.325 . S
C1771 N1772 1.279 . S
C1771 C1774 1.358 . S
C1771 H1828 0.930 . S
N1772 C1771 1.279 . S
N1772 C1775 1.314 . S
C1773 C1770 1.348 . S
C1773 C1775 1.353 . S
C1773 H1829 0.929 . S
C1774 C1770 1.356 . S
C1774 C1771 1.358 . S
C1774 H1830 0.930 . S
C1775 N1772 1.314 . S
C1775 C1773 1.353 . S
C1775 H1831 0.930 . S
C1776 N1777 1.314 . S
C1776 C1781 1.353 . S
C1776 H1782 0.930 . S
N1777 Li1760 1.990 . S
N1777 C1776 1.314 . S
N1777 C1779 1.279 . S
C1778 C1779 1.358 . S
C1778 C1780 1.356 . S
C1778 H1832 0.930 . S
C1779 N1777 1.279 . S
C1779 C1778 1.358 . S
C1779 H1783 0.930 . S
C1780 C1778 1.356 . S
C1780 C1781 1.348 . S
C1781 C1776 1.353 . S
C1781 C1780 1.348 . S
C1781 H1833 0.929 . S
H1782 C1776 0.930 . S
H1783 C1779 0.930 . S
C1784 N1785 1.314 . S
C1784 C1786 1.353 . S
C1784 H1790 0.930 . S
N1785 Li1761 1.990 . S
N1785 C1784 1.314 . S
N1785 C1788 1.279 . S
C1786 C1784 1.353 . S
C1786 C1789 1.348 . S
C1786 H1834 0.929 . S
C1787 C1788 1.358 . S
C1787 C1789 1.356 . S
C1787 H1835 0.930 . S
C1788 N1785 1.279 . S
C1788 C1787 1.358 . S
C1788 H1791 0.930 . S
C1789 C1786 1.348 . S
C1789 C1787 1.356 . S
H1790 C1784 0.930 . S
H1791 C1788 0.930 . S
C1792 C1794 1.348 . S
C1792 C1795 1.356 . S
C1792 O1822 1.325 . S
N1793 C1796 1.314 . S
N1793 C1797 1.279 . S
C1794 C1792 1.348 . S
C1794 C1796 1.353 . S
C1794 H1836 0.929 . S
C1795 C1792 1.356 . S
C1795 C1797 1.358 . S
C1795 H1837 0.930 . S
C1796 N1793 1.314 . S
C1796 C1794 1.353 . S
C1796 H1838 0.930 . S
C1797 N1793 1.279 . S
C1797 C1795 1.358 . S
C1797 H1839 0.930 . S
C1798 C1799 1.348 . S
C1798 C1800 1.356 . S
C1798 O1823 1.325 . S
C1799 C1798 1.348 . S
C1799 C1801 1.353 . S
C1799 H1840 0.929 . S
C1800 C1798 1.356 . S
C1800 C1802 1.358 . S
C1800 H1841 0.930 . S
C1801 C1799 1.353 . S
C1801 N1803 1.314 . S
C1801 H1842 0.930 . S
C1802 C1800 1.358 . S
C1802 N1803 1.279 . S
C1802 H1843 0.930 . S
N1803 C1801 1.314 . S
N1803 C1802 1.279 . S
C1804 C1806 1.353 . S
C1804 N1807 1.314 . S
C1804 H1810 0.930 . S
C1805 N1807 1.279 . S
C1805 C1808 1.358 . S
C1805 H1811 0.930 . S
C1806 C1804 1.353 . S
C1806 C1809 1.348 . S
C1806 H1844 0.929 . S
N1807 Li1762 1.990 . S
N1807 C1804 1.314 . S
N1807 C1805 1.279 . S
C1808 C1805 1.358 . S
C1808 C1809 1.356 . S
C1808 H1845 0.930 . S
C1809 C1806 1.348 . S
C1809 C1808 1.356 . S
H1810 C1804 0.930 . S
H1811 C1805 0.930 . S
C1812 N1813 1.314 . S
C1812 C1814 1.353 . S
C1812 H1818 0.930 . S
N1813 Li1763 1.990 . S
N1813 C1812 1.314 . S
N1813 C1816 1.279 . S
C1814 C1812 1.353 . S
C1814 C1817 1.348 . S
C1814 H1846 0.929 . S
C1815 C1816 1.358 . S
C1815 C1817 1.356 . S
C1815 H1847 0.930 . S
C1816 N1813 1.279 . S
C1816 C1815 1.358 . S
C1816 H1819 0.930 . S
C1817 C1814 1.348 . S
C1817 C1815 1.356 . S
H1818 C1812 0.930 . S
H1819 C1816 0.930 . S
O1820 Li1760 1.956 . S
O1820 Li1761 1.970 . S
O1820 Li1762 1.961 . S
O1820 C1764 1.325 . S
O1821 Li1760 1.970 . S
O1821 Li1761 1.956 . S
O1821 Li1763 1.961 . S
O1821 C1770 1.325 . S
O1822 Li1760 1.961 . S
O1822 Li1762 1.956 . S
O1822 Li1763 1.970 . S
O1822 C1792 1.325 . S
O1823 Li1761 1.961 . S
O1823 Li1762 1.970 . S
O1823 Li1763 1.956 . S
O1823 C1798 1.325 . S
H1824 C1766 0.929 . S
H1825 C1767 0.930 . S
H1826 C1768 0.930 . S
H1827 C1769 0.930 . S
H1828 C1771 0.930 . S
H1829 C1773 0.929 . S
H1830 C1774 0.930 . S
H1831 C1775 0.930 . S
H1832 C1778 0.930 . S
H1833 C1781 0.929 . S
H1834 C1786 0.929 . S
H1835 C1787 0.930 . S
H1836 C1794 0.929 . S
H1837 C1795 0.930 . S
H1838 C1796 0.930 . S
H1839 C1797 0.930 . S
H1840 C1799 0.929 . S
H1841 C1800 0.930 . S
H1842 C1801 0.930 . S
H1843 C1802 0.930 . S
H1844 C1806 0.929 . S
H1845 C1808 0.930 . S
H1846 C1814 0.929 . S
H1847 C1815 0.930 . S
Li1848 N1865 1.990 . S
Li1848 O1908 1.956 . S
Li1848 O1909 1.970 . S
Li1848 O1910 1.961 . S
Li1849 N1873 1.990 . S
Li1849 O1908 1.970 . S
Li1849 O1909 1.956 . S
Li1849 O1911 1.961 . S
Li1850 N1895 1.990 . S
Li1850 O1908 1.961 . S
Li1850 O1910 1.956 . S
Li1850 O1911 1.970 . S
Li1851 N1901 1.990 . S
Li1851 O1909 1.961 . S
Li1851 O1910 1.970 . S
Li1851 O1911 1.956 . S
C1852 C1854 1.348 . S
C1852 C1855 1.356 . S
C1852 O1908 1.325 . S
N1853 C1856 1.314 . S
N1853 C1857 1.279 . S
C1854 C1852 1.348 . S
C1854 C1856 1.353 . S
C1854 H1912 0.929 . S
C1855 C1852 1.356 . S
C1855 C1857 1.358 . S
C1855 H1913 0.930 . S
C1856 N1853 1.314 . S
C1856 C1854 1.353 . S
C1856 H1914 0.930 . S
C1857 N1853 1.279 . S
C1857 C1855 1.358 . S
C1857 H1915 0.930 . S
C1858 C1861 1.348 . S
C1858 C1862 1.356 . S
C1858 O1909 1.325 . S
C1859 N1860 1.279 . S
C1859 C1862 1.358 . S
C1859 H1916 0.930 . S
N1860 C1859 1.279 . S
N1860 C1863 1.314 . S
C1861 C1858 1.348 . S
C1861 C1863 1.353 . S
C1861 H1917 0.929 . S
C1862 C1858 1.356 . S
C1862 C1859 1.358 . S
C1862 H1918 0.930 . S
C1863 N1860 1.314 . S
C1863 C1861 1.353 . S
C1863 H1919 0.930 . S
C1864 N1865 1.314 . S
C1864 C1869 1.353 . S
C1864 H1870 0.930 . S
N1865 Li1848 1.990 . S
N1865 C1864 1.314 . S
N1865 C1867 1.279 . S
C1866 C1867 1.358 . S
C1866 C1868 1.356 . S
C1866 H1920 0.930 . S
C1867 N1865 1.279 . S
C1867 C1866 1.358 . S
C1867 H1871 0.930 . S
C1868 C1866 1.356 . S
C1868 C1869 1.348 . S
C1869 C1864 1.353 . S
C1869 C1868 1.348 . S
C1869 H1921 0.929 . S
H1870 C1864 0.930 . S
H1871 C1867 0.930 . S
C1872 N1873 1.314 . S
C1872 C1874 1.353 . S
C1872 H1878 0.930 . S
N1873 Li1849 1.990 . S
N1873 C1872 1.314 . S
N1873 C1876 1.279 . S
C1874 C1872 1.353 . S
C1874 C1877 1.348 . S
C1874 H1922 0.929 . S
C1875 C1876 1.358 . S
C1875 C1877 1.356 . S
C1875 H1923 0.930 . S
C1876 N1873 1.279 . S
C1876 C1875 1.358 . S
C1876 H1879 0.930 . S
C1877 C1874 1.348 . S
C1877 C1875 1.356 . S
H1878 C1872 0.930 . S
H1879 C1876 0.930 . S
C1880 C1882 1.348 . S
C1880 C1883 1.356 . S
C1880 O1910 1.325 . S
N1881 C1884 1.314 . S
N1881 C1885 1.279 . S
C1882 C1880 1.348 . S
C1882 C1884 1.353 . S
C1882 H1924 0.929 . S
C1883 C1880 1.356 . S
C1883 C1885 1.358 . S
C1883 H1925 0.930 . S
C1884 N1881 1.314 . S
C1884 C1882 1.353 . S
C1884 H1926 0.930 . S
C1885 N1881 1.279 . S
C1885 C1883 1.358 . S
C1885 H1927 0.930 . S
C1886 C1887 1.348 . S
C1886 C1888 1.356 . S
C1886 O1911 1.325 . S
C1887 C1886 1.348 . S
C1887 C1889 1.353 . S
C1887 H1928 0.929 . S
C1888 C1886 1.356 . S
C1888 C1890 1.358 . S
C1888 H1929 0.930 . S
C1889 C1887 1.353 . S
C1889 N1891 1.314 . S
C1889 H1930 0.930 . S
C1890 C1888 1.358 . S
C1890 N1891 1.279 . S
C1890 H1931 0.930 . S
N1891 C1889 1.314 . S
N1891 C1890 1.279 . S
C1892 C1894 1.353 . S
C1892 N1895 1.314 . S
C1892 H1898 0.930 . S
C1893 N1895 1.279 . S
C1893 C1896 1.358 . S
C1893 H1899 0.930 . S
C1894 C1892 1.353 . S
C1894 C1897 1.348 . S
C1894 H1932 0.929 . S
N1895 Li1850 1.990 . S
N1895 C1892 1.314 . S
N1895 C1893 1.279 . S
C1896 C1893 1.358 . S
C1896 C1897 1.356 . S
C1896 H1933 0.930 . S
C1897 C1894 1.348 . S
C1897 C1896 1.356 . S
H1898 C1892 0.930 . S
H1899 C1893 0.930 . S
C1900 N1901 1.314 . S
C1900 C1902 1.353 . S
C1900 H1906 0.930 . S
N1901 Li1851 1.990 . S
N1901 C1900 1.314 . S
N1901 C1904 1.279 . S
C1902 C1900 1.353 . S
C1902 C1905 1.348 . S
C1902 H1934 0.929 . S
C1903 C1904 1.358 . S
C1903 C1905 1.356 . S
C1903 H1935 0.930 . S
C1904 N1901 1.279 . S
C1904 C1903 1.358 . S
C1904 H1907 0.930 . S
C1905 C1902 1.348 . S
C1905 C1903 1.356 . S
H1906 C1900 0.930 . S
H1907 C1904 0.930 . S
O1908 Li1848 1.956 . S
O1908 Li1849 1.970 . S
O1908 Li1850 1.961 . S
O1908 C1852 1.325 . S
O1909 Li1848 1.970 . S
O1909 Li1849 1.956 . S
O1909 Li1851 1.961 . S
O1909 C1858 1.325 . S
O1910 Li1848 1.961 . S
O1910 Li1850 1.956 . S
O1910 Li1851 1.970 . S
O1910 C1880 1.325 . S
O1911 Li1849 1.961 . S
O1911 Li1850 1.970 . S
O1911 Li1851 1.956 . S
O1911 C1886 1.325 . S
H1912 C1854 0.929 . S
H1913 C1855 0.930 . S
H1914 C1856 0.930 . S
H1915 C1857 0.930 . S
H1916 C1859 0.930 . S
H1917 C1861 0.929 . S
H1918 C1862 0.930 . S
H1919 C1863 0.930 . S
H1920 C1866 0.930 . S
H1921 C1869 0.929 . S
H1922 C1874 0.929 . S
H1923 C1875 0.930 . S
H1924 C1882 0.929 . S
H1925 C1883 0.930 . S
H1926 C1884 0.930 . S
H1927 C1885 0.930 . S
H1928 C1887 0.929 . S
H1929 C1888 0.930 . S
H1930 C1889 0.930 . S
H1931 C1890 0.930 . S
H1932 C1894 0.929 . S
H1933 C1896 0.930 . S
H1934 C1902 0.929 . S
H1935 C1903 0.930 . S
Li1936 N1953 1.990 . S
Li1936 O1996 1.956 . S
Li1936 O1997 1.970 . S
Li1936 O1998 1.961 . S
Li1937 N1961 1.990 . S
Li1937 O1996 1.970 . S
Li1937 O1997 1.956 . S
Li1937 O1999 1.961 . S
Li1938 N1983 1.990 . S
Li1938 O1996 1.961 . S
Li1938 O1998 1.956 . S
Li1938 O1999 1.970 . S
Li1939 N1989 1.990 . S
Li1939 O1997 1.961 . S
Li1939 O1998 1.970 . S
Li1939 O1999 1.956 . S
C1940 C1942 1.348 . S
C1940 C1943 1.356 . S
C1940 O1996 1.325 . S
N1941 C1944 1.314 . S
N1941 C1945 1.279 . S
C1942 C1940 1.348 . S
C1942 C1944 1.353 . S
C1942 H2000 0.929 . S
C1943 C1940 1.356 . S
C1943 C1945 1.358 . S
C1943 H2001 0.930 . S
C1944 N1941 1.314 . S
C1944 C1942 1.353 . S
C1944 H2002 0.930 . S
C1945 N1941 1.279 . S
C1945 C1943 1.358 . S
C1945 H2003 0.930 . S
C1946 C1949 1.348 . S
C1946 C1950 1.356 . S
C1946 O1997 1.325 . S
C1947 N1948 1.279 . S
C1947 C1950 1.358 . S
C1947 H2004 0.930 . S
N1948 C1947 1.279 . S
N1948 C1951 1.314 . S
C1949 C1946 1.348 . S
C1949 C1951 1.353 . S
C1949 H2005 0.929 . S
C1950 C1946 1.356 . S
C1950 C1947 1.358 . S
C1950 H2006 0.930 . S
C1951 N1948 1.314 . S
C1951 C1949 1.353 . S
C1951 H2007 0.930 . S
C1952 N1953 1.314 . S
C1952 C1957 1.353 . S
C1952 H1958 0.930 . S
N1953 Li1936 1.990 . S
N1953 C1952 1.314 . S
N1953 C1955 1.279 . S
C1954 C1955 1.358 . S
C1954 C1956 1.356 . S
C1954 H2008 0.930 . S
C1955 N1953 1.279 . S
C1955 C1954 1.358 . S
C1955 H1959 0.930 . S
C1956 C1954 1.356 . S
C1956 C1957 1.348 . S
C1957 C1952 1.353 . S
C1957 C1956 1.348 . S
C1957 H2009 0.929 . S
H1958 C1952 0.930 . S
H1959 C1955 0.930 . S
C1960 N1961 1.314 . S
C1960 C1962 1.353 . S
C1960 H1966 0.930 . S
N1961 Li1937 1.990 . S
N1961 C1960 1.314 . S
N1961 C1964 1.279 . S
C1962 C1960 1.353 . S
C1962 C1965 1.348 . S
C1962 H2010 0.929 . S
C1963 C1964 1.358 . S
C1963 C1965 1.356 . S
C1963 H2011 0.930 . S
C1964 N1961 1.279 . S
C1964 C1963 1.358 . S
C1964 H1967 0.930 . S
C1965 C1962 1.348 . S
C1965 C1963 1.356 . S
H1966 C1960 0.930 . S
H1967 C1964 0.930 . S
C1968 C1970 1.348 . S
C1968 C1971 1.356 . S
C1968 O1998 1.325 . S
N1969 C1972 1.314 . S
N1969 C1973 1.279 . S
C1970 C1968 1.348 . S
C1970 C1972 1.353 . S
C1970 H2012 0.929 . S
C1971 C1968 1.356 . S
C1971 C1973 1.358 . S
C1971 H2013 0.930 . S
C1972 N1969 1.314 . S
C1972 C1970 1.353 . S
C1972 H2014 0.930 . S
C1973 N1969 1.279 . S
C1973 C1971 1.358 . S
C1973 H2015 0.930 . S
C1974 C1975 1.348 . S
C1974 C1976 1.356 . S
C1974 O1999 1.325 . S
C1975 C1974 1.348 . S
C1975 C1977 1.353 . S
C1975 H2016 0.929 . S
C1976 C1974 1.356 . S
C1976 C1978 1.358 . S
C1976 H2017 0.930 . S
C1977 C1975 1.353 . S
C1977 N1979 1.314 . S
C1977 H2018 0.930 . S
C1978 C1976 1.358 . S
C1978 N1979 1.279 . S
C1978 H2019 0.930 . S
N1979 C1977 1.314 . S
N1979 C1978 1.279 . S
C1980 C1982 1.353 . S
C1980 N1983 1.314 . S
C1980 H1986 0.930 . S
C1981 N1983 1.279 . S
C1981 C1984 1.358 . S
C1981 H1987 0.930 . S
C1982 C1980 1.353 . S
C1982 C1985 1.348 . S
C1982 H2020 0.929 . S
N1983 Li1938 1.990 . S
N1983 C1980 1.314 . S
N1983 C1981 1.279 . S
C1984 C1981 1.358 . S
C1984 C1985 1.356 . S
C1984 H2021 0.930 . S
C1985 C1982 1.348 . S
C1985 C1984 1.356 . S
H1986 C1980 0.930 . S
H1987 C1981 0.930 . S
C1988 N1989 1.314 . S
C1988 C1990 1.353 . S
C1988 H1994 0.930 . S
N1989 Li1939 1.990 . S
N1989 C1988 1.314 . S
N1989 C1992 1.279 . S
C1990 C1988 1.353 . S
C1990 C1993 1.348 . S
C1990 H2022 0.929 . S
C1991 C1992 1.358 . S
C1991 C1993 1.356 . S
C1991 H2023 0.930 . S
C1992 N1989 1.279 . S
C1992 C1991 1.358 . S
C1992 H1995 0.930 . S
C1993 C1990 1.348 . S
C1993 C1991 1.356 . S
H1994 C1988 0.930 . S
H1995 C1992 0.930 . S
O1996 Li1936 1.956 . S
O1996 Li1937 1.970 . S
O1996 Li1938 1.961 . S
O1996 C1940 1.325 . S
O1997 Li1936 1.970 . S
O1997 Li1937 1.956 . S
O1997 Li1939 1.961 . S
O1997 C1946 1.325 . S
O1998 Li1936 1.961 . S
O1998 Li1938 1.956 . S
O1998 Li1939 1.970 . S
O1998 C1968 1.325 . S
O1999 Li1937 1.961 . S
O1999 Li1938 1.970 . S
O1999 Li1939 1.956 . S
O1999 C1974 1.325 . S
H2000 C1942 0.929 . S
H2001 C1943 0.930 . S
H2002 C1944 0.930 . S
H2003 C1945 0.930 . S
H2004 C1947 0.930 . S
H2005 C1949 0.929 . S
H2006 C1950 0.930 . S
H2007 C1951 0.930 . S
H2008 C1954 0.930 . S
H2009 C1957 0.929 . S
H2010 C1962 0.929 . S
H2011 C1963 0.930 . S
H2012 C1970 0.929 . S
H2013 C1971 0.930 . S
H2014 C1972 0.930 . S
H2015 C1973 0.930 . S
H2016 C1975 0.929 . S
H2017 C1976 0.930 . S
H2018 C1977 0.930 . S
H2019 C1978 0.930 . S
H2020 C1982 0.929 . S
H2021 C1984 0.930 . S
H2022 C1990 0.929 . S
H2023 C1991 0.930 . S
Li2024 N2041 1.990 . S
Li2024 O2084 1.956 . S
Li2024 O2085 1.970 . S
Li2024 O2086 1.961 . S
Li2025 N2049 1.990 . S
Li2025 O2084 1.970 . S
Li2025 O2085 1.956 . S
Li2025 O2087 1.961 . S
Li2026 N2071 1.990 . S
Li2026 O2084 1.961 . S
Li2026 O2086 1.956 . S
Li2026 O2087 1.970 . S
Li2027 N2077 1.990 . S
Li2027 O2085 1.961 . S
Li2027 O2086 1.970 . S
Li2027 O2087 1.956 . S
C2028 C2030 1.348 . S
C2028 C2031 1.356 . S
C2028 O2084 1.325 . S
N2029 C2032 1.314 . S
N2029 C2033 1.279 . S
C2030 C2028 1.348 . S
C2030 C2032 1.353 . S
C2030 H2088 0.929 . S
C2031 C2028 1.356 . S
C2031 C2033 1.358 . S
C2031 H2089 0.930 . S
C2032 N2029 1.314 . S
C2032 C2030 1.353 . S
C2032 H2090 0.930 . S
C2033 N2029 1.279 . S
C2033 C2031 1.358 . S
C2033 H2091 0.930 . S
C2034 C2037 1.348 . S
C2034 C2038 1.356 . S
C2034 O2085 1.325 . S
C2035 N2036 1.279 . S
C2035 C2038 1.358 . S
C2035 H2092 0.930 . S
N2036 C2035 1.279 . S
N2036 C2039 1.314 . S
C2037 C2034 1.348 . S
C2037 C2039 1.353 . S
C2037 H2093 0.929 . S
C2038 C2034 1.356 . S
C2038 C2035 1.358 . S
C2038 H2094 0.930 . S
C2039 N2036 1.314 . S
C2039 C2037 1.353 . S
C2039 H2095 0.930 . S
C2040 N2041 1.314 . S
C2040 C2045 1.353 . S
C2040 H2046 0.930 . S
N2041 Li2024 1.990 . S
N2041 C2040 1.314 . S
N2041 C2043 1.279 . S
C2042 C2043 1.358 . S
C2042 C2044 1.356 . S
C2042 H2096 0.930 . S
C2043 N2041 1.279 . S
C2043 C2042 1.358 . S
C2043 H2047 0.930 . S
C2044 C2042 1.356 . S
C2044 C2045 1.348 . S
C2045 C2040 1.353 . S
C2045 C2044 1.348 . S
C2045 H2097 0.929 . S
H2046 C2040 0.930 . S
H2047 C2043 0.930 . S
C2048 N2049 1.314 . S
C2048 C2050 1.353 . S
C2048 H2054 0.930 . S
N2049 Li2025 1.990 . S
N2049 C2048 1.314 . S
N2049 C2052 1.279 . S
C2050 C2048 1.353 . S
C2050 C2053 1.348 . S
C2050 H2098 0.929 . S
C2051 C2052 1.358 . S
C2051 C2053 1.356 . S
C2051 H2099 0.930 . S
C2052 N2049 1.279 . S
C2052 C2051 1.358 . S
C2052 H2055 0.930 . S
C2053 C2050 1.348 . S
C2053 C2051 1.356 . S
H2054 C2048 0.930 . S
H2055 C2052 0.930 . S
C2056 C2058 1.348 . S
C2056 C2059 1.356 . S
C2056 O2086 1.325 . S
N2057 C2060 1.314 . S
N2057 C2061 1.279 . S
C2058 C2056 1.348 . S
C2058 C2060 1.353 . S
C2058 H2100 0.929 . S
C2059 C2056 1.356 . S
C2059 C2061 1.358 . S
C2059 H2101 0.930 . S
C2060 N2057 1.314 . S
C2060 C2058 1.353 . S
C2060 H2102 0.930 . S
C2061 N2057 1.279 . S
C2061 C2059 1.358 . S
C2061 H2103 0.930 . S
C2062 C2063 1.348 . S
C2062 C2064 1.356 . S
C2062 O2087 1.325 . S
C2063 C2062 1.348 . S
C2063 C2065 1.353 . S
C2063 H2104 0.929 . S
C2064 C2062 1.356 . S
C2064 C2066 1.358 . S
C2064 H2105 0.930 . S
C2065 C2063 1.353 . S
C2065 N2067 1.314 . S
C2065 H2106 0.930 . S
C2066 C2064 1.358 . S
C2066 N2067 1.279 . S
C2066 H2107 0.930 . S
N2067 C2065 1.314 . S
N2067 C2066 1.279 . S
C2068 C2070 1.353 . S
C2068 N2071 1.314 . S
C2068 H2074 0.930 . S
C2069 N2071 1.279 . S
C2069 C2072 1.358 . S
C2069 H2075 0.930 . S
C2070 C2068 1.353 . S
C2070 C2073 1.348 . S
C2070 H2108 0.929 . S
N2071 Li2026 1.990 . S
N2071 C2068 1.314 . S
N2071 C2069 1.279 . S
C2072 C2069 1.358 . S
C2072 C2073 1.356 . S
C2072 H2109 0.930 . S
C2073 C2070 1.348 . S
C2073 C2072 1.356 . S
H2074 C2068 0.930 . S
H2075 C2069 0.930 . S
C2076 N2077 1.314 . S
C2076 C2078 1.353 . S
C2076 H2082 0.930 . S
N2077 Li2027 1.990 . S
N2077 C2076 1.314 . S
N2077 C2080 1.279 . S
C2078 C2076 1.353 . S
C2078 C2081 1.348 . S
C2078 H2110 0.929 . S
C2079 C2080 1.358 . S
C2079 C2081 1.356 . S
C2079 H2111 0.930 . S
C2080 N2077 1.279 . S
C2080 C2079 1.358 . S
C2080 H2083 0.930 . S
C2081 C2078 1.348 . S
C2081 C2079 1.356 . S
H2082 C2076 0.930 . S
H2083 C2080 0.930 . S
O2084 Li2024 1.956 . S
O2084 Li2025 1.970 . S
O2084 Li2026 1.961 . S
O2084 C2028 1.325 . S
O2085 Li2024 1.970 . S
O2085 Li2025 1.956 . S
O2085 Li2027 1.961 . S
O2085 C2034 1.325 . S
O2086 Li2024 1.961 . S
O2086 Li2026 1.956 . S
O2086 Li2027 1.970 . S
O2086 C2056 1.325 . S
O2087 Li2025 1.961 . S
O2087 Li2026 1.970 . S
O2087 Li2027 1.956 . S
O2087 C2062 1.325 . S
H2088 C2030 0.929 . S
H2089 C2031 0.930 . S
H2090 C2032 0.930 . S
H2091 C2033 0.930 . S
H2092 C2035 0.930 . S
H2093 C2037 0.929 . S
H2094 C2038 0.930 . S
H2095 C2039 0.930 . S
H2096 C2042 0.930 . S
H2097 C2045 0.929 . S
H2098 C2050 0.929 . S
H2099 C2051 0.930 . S
H2100 C2058 0.929 . S
H2101 C2059 0.930 . S
H2102 C2060 0.930 . S
H2103 C2061 0.930 . S
H2104 C2063 0.929 . S
H2105 C2064 0.930 . S
H2106 C2065 0.930 . S
H2107 C2066 0.930 . S
H2108 C2070 0.929 . S
H2109 C2072 0.930 . S
H2110 C2078 0.929 . S
H2111 C2079 0.930 . S
Li2112 N2129 1.990 . S
Li2112 O2172 1.956 . S
Li2112 O2173 1.970 . S
Li2112 O2174 1.961 . S
Li2113 N2137 1.990 . S
Li2113 O2172 1.970 . S
Li2113 O2173 1.956 . S
Li2113 O2175 1.961 . S
Li2114 N2159 1.990 . S
Li2114 O2172 1.961 . S
Li2114 O2174 1.956 . S
Li2114 O2175 1.970 . S
Li2115 N2165 1.990 . S
Li2115 O2173 1.961 . S
Li2115 O2174 1.970 . S
Li2115 O2175 1.956 . S
C2116 C2118 1.348 . S
C2116 C2119 1.356 . S
C2116 O2172 1.325 . S
N2117 C2120 1.314 . S
N2117 C2121 1.279 . S
C2118 C2116 1.348 . S
C2118 C2120 1.353 . S
C2118 H2176 0.929 . S
C2119 C2116 1.356 . S
C2119 C2121 1.358 . S
C2119 H2177 0.930 . S
C2120 N2117 1.314 . S
C2120 C2118 1.353 . S
C2120 H2178 0.930 . S
C2121 N2117 1.279 . S
C2121 C2119 1.358 . S
C2121 H2179 0.930 . S
C2122 C2125 1.348 . S
C2122 C2126 1.356 . S
C2122 O2173 1.325 . S
C2123 N2124 1.279 . S
C2123 C2126 1.358 . S
C2123 H2180 0.930 . S
N2124 C2123 1.279 . S
N2124 C2127 1.314 . S
C2125 C2122 1.348 . S
C2125 C2127 1.353 . S
C2125 H2181 0.929 . S
C2126 C2122 1.356 . S
C2126 C2123 1.358 . S
C2126 H2182 0.930 . S
C2127 N2124 1.314 . S
C2127 C2125 1.353 . S
C2127 H2183 0.930 . S
C2128 N2129 1.314 . S
C2128 C2133 1.353 . S
C2128 H2134 0.930 . S
N2129 Li2112 1.990 . S
N2129 C2128 1.314 . S
N2129 C2131 1.279 . S
C2130 C2131 1.358 . S
C2130 C2132 1.356 . S
C2130 H2184 0.930 . S
C2131 N2129 1.279 . S
C2131 C2130 1.358 . S
C2131 H2135 0.930 . S
C2132 C2130 1.356 . S
C2132 C2133 1.348 . S
C2133 C2128 1.353 . S
C2133 C2132 1.348 . S
C2133 H2185 0.929 . S
H2134 C2128 0.930 . S
H2135 C2131 0.930 . S
C2136 N2137 1.314 . S
C2136 C2138 1.353 . S
C2136 H2142 0.930 . S
N2137 Li2113 1.990 . S
N2137 C2136 1.314 . S
N2137 C2140 1.279 . S
C2138 C2136 1.353 . S
C2138 C2141 1.348 . S
C2138 H2186 0.929 . S
C2139 C2140 1.358 . S
C2139 C2141 1.356 . S
C2139 H2187 0.930 . S
C2140 N2137 1.279 . S
C2140 C2139 1.358 . S
C2140 H2143 0.930 . S
C2141 C2138 1.348 . S
C2141 C2139 1.356 . S
H2142 C2136 0.930 . S
H2143 C2140 0.930 . S
C2144 C2146 1.348 . S
C2144 C2147 1.356 . S
C2144 O2174 1.325 . S
N2145 C2148 1.314 . S
N2145 C2149 1.279 . S
C2146 C2144 1.348 . S
C2146 C2148 1.353 . S
C2146 H2188 0.929 . S
C2147 C2144 1.356 . S
C2147 C2149 1.358 . S
C2147 H2189 0.930 . S
C2148 N2145 1.314 . S
C2148 C2146 1.353 . S
C2148 H2190 0.930 . S
C2149 N2145 1.279 . S
C2149 C2147 1.358 . S
C2149 H2191 0.930 . S
C2150 C2151 1.348 . S
C2150 C2152 1.356 . S
C2150 O2175 1.325 . S
C2151 C2150 1.348 . S
C2151 C2153 1.353 . S
C2151 H2192 0.929 . S
C2152 C2150 1.356 . S
C2152 C2154 1.358 . S
C2152 H2193 0.930 . S
C2153 C2151 1.353 . S
C2153 N2155 1.314 . S
C2153 H2194 0.930 . S
C2154 C2152 1.358 . S
C2154 N2155 1.279 . S
C2154 H2195 0.930 . S
N2155 C2153 1.314 . S
N2155 C2154 1.279 . S
C2156 C2158 1.353 . S
C2156 N2159 1.314 . S
C2156 H2162 0.930 . S
C2157 N2159 1.279 . S
C2157 C2160 1.358 . S
C2157 H2163 0.930 . S
C2158 C2156 1.353 . S
C2158 C2161 1.348 . S
C2158 H2196 0.929 . S
N2159 Li2114 1.990 . S
N2159 C2156 1.314 . S
N2159 C2157 1.279 . S
C2160 C2157 1.358 . S
C2160 C2161 1.356 . S
C2160 H2197 0.930 . S
C2161 C2158 1.348 . S
C2161 C2160 1.356 . S
H2162 C2156 0.930 . S
H2163 C2157 0.930 . S
C2164 N2165 1.314 . S
C2164 C2166 1.353 . S
C2164 H2170 0.930 . S
N2165 Li2115 1.990 . S
N2165 C2164 1.314 . S
N2165 C2168 1.279 . S
C2166 C2164 1.353 . S
C2166 C2169 1.348 . S
C2166 H2198 0.929 . S
C2167 C2168 1.358 . S
C2167 C2169 1.356 . S
C2167 H2199 0.930 . S
C2168 N2165 1.279 . S
C2168 C2167 1.358 . S
C2168 H2171 0.930 . S
C2169 C2166 1.348 . S
C2169 C2167 1.356 . S
H2170 C2164 0.930 . S
H2171 C2168 0.930 . S
O2172 Li2112 1.956 . S
O2172 Li2113 1.970 . S
O2172 Li2114 1.961 . S
O2172 C2116 1.325 . S
O2173 Li2112 1.970 . S
O2173 Li2113 1.956 . S
O2173 Li2115 1.961 . S
O2173 C2122 1.325 . S
O2174 Li2112 1.961 . S
O2174 Li2114 1.956 . S
O2174 Li2115 1.970 . S
O2174 C2144 1.325 . S
O2175 Li2113 1.961 . S
O2175 Li2114 1.970 . S
O2175 Li2115 1.956 . S
O2175 C2150 1.325 . S
H2176 C2118 0.929 . S
H2177 C2119 0.930 . S
H2178 C2120 0.930 . S
H2179 C2121 0.930 . S
H2180 C2123 0.930 . S
H2181 C2125 0.929 . S
H2182 C2126 0.930 . S
H2183 C2127 0.930 . S
H2184 C2130 0.930 . S
H2185 C2133 0.929 . S
H2186 C2138 0.929 . S
H2187 C2139 0.930 . S
H2188 C2146 0.929 . S
H2189 C2147 0.930 . S
H2190 C2148 0.930 . S
H2191 C2149 0.930 . S
H2192 C2151 0.929 . S
H2193 C2152 0.930 . S
H2194 C2153 0.930 . S
H2195 C2154 0.930 . S
H2196 C2158 0.929 . S
H2197 C2160 0.930 . S
H2198 C2166 0.929 . S
H2199 C2167 0.930 . S
Li2200 N2217 1.990 . S
Li2200 O2260 1.956 . S
Li2200 O2261 1.970 . S
Li2200 O2262 1.961 . S
Li2201 N2225 1.990 . S
Li2201 O2260 1.970 . S
Li2201 O2261 1.956 . S
Li2201 O2263 1.961 . S
Li2202 N2247 1.990 . S
Li2202 O2260 1.961 . S
Li2202 O2262 1.956 . S
Li2202 O2263 1.970 . S
Li2203 N2253 1.990 . S
Li2203 O2261 1.961 . S
Li2203 O2262 1.970 . S
Li2203 O2263 1.956 . S
C2204 C2206 1.348 . S
C2204 C2207 1.356 . S
C2204 O2260 1.325 . S
N2205 C2208 1.314 . S
N2205 C2209 1.279 . S
C2206 C2204 1.348 . S
C2206 C2208 1.353 . S
C2206 H2264 0.929 . S
C2207 C2204 1.356 . S
C2207 C2209 1.358 . S
C2207 H2265 0.930 . S
C2208 N2205 1.314 . S
C2208 C2206 1.353 . S
C2208 H2266 0.930 . S
C2209 N2205 1.279 . S
C2209 C2207 1.358 . S
C2209 H2267 0.930 . S
C2210 C2213 1.348 . S
C2210 C2214 1.356 . S
C2210 O2261 1.325 . S
C2211 N2212 1.279 . S
C2211 C2214 1.358 . S
C2211 H2268 0.930 . S
N2212 C2211 1.279 . S
N2212 C2215 1.314 . S
C2213 C2210 1.348 . S
C2213 C2215 1.353 . S
C2213 H2269 0.929 . S
C2214 C2210 1.356 . S
C2214 C2211 1.358 . S
C2214 H2270 0.930 . S
C2215 N2212 1.314 . S
C2215 C2213 1.353 . S
C2215 H2271 0.930 . S
C2216 N2217 1.314 . S
C2216 C2221 1.353 . S
C2216 H2222 0.930 . S
N2217 Li2200 1.990 . S
N2217 C2216 1.314 . S
N2217 C2219 1.279 . S
C2218 C2219 1.358 . S
C2218 C2220 1.356 . S
C2218 H2272 0.930 . S
C2219 N2217 1.279 . S
C2219 C2218 1.358 . S
C2219 H2223 0.930 . S
C2220 C2218 1.356 . S
C2220 C2221 1.348 . S
C2221 C2216 1.353 . S
C2221 C2220 1.348 . S
C2221 H2273 0.929 . S
H2222 C2216 0.930 . S
H2223 C2219 0.930 . S
C2224 N2225 1.314 . S
C2224 C2226 1.353 . S
C2224 H2230 0.930 . S
N2225 Li2201 1.990 . S
N2225 C2224 1.314 . S
N2225 C2228 1.279 . S
C2226 C2224 1.353 . S
C2226 C2229 1.348 . S
C2226 H2274 0.929 . S
C2227 C2228 1.358 . S
C2227 C2229 1.356 . S
C2227 H2275 0.930 . S
C2228 N2225 1.279 . S
C2228 C2227 1.358 . S
C2228 H2231 0.930 . S
C2229 C2226 1.348 . S
C2229 C2227 1.356 . S
H2230 C2224 0.930 . S
H2231 C2228 0.930 . S
C2232 C2234 1.348 . S
C2232 C2235 1.356 . S
C2232 O2262 1.325 . S
N2233 C2236 1.314 . S
N2233 C2237 1.279 . S
C2234 C2232 1.348 . S
C2234 C2236 1.353 . S
C2234 H2276 0.929 . S
C2235 C2232 1.356 . S
C2235 C2237 1.358 . S
C2235 H2277 0.930 . S
C2236 N2233 1.314 . S
C2236 C2234 1.353 . S
C2236 H2278 0.930 . S
C2237 N2233 1.279 . S
C2237 C2235 1.358 . S
C2237 H2279 0.930 . S
C2238 C2239 1.348 . S
C2238 C2240 1.356 . S
C2238 O2263 1.325 . S
C2239 C2238 1.348 . S
C2239 C2241 1.353 . S
C2239 H2280 0.929 . S
C2240 C2238 1.356 . S
C2240 C2242 1.358 . S
C2240 H2281 0.930 . S
C2241 C2239 1.353 . S
C2241 N2243 1.314 . S
C2241 H2282 0.930 . S
C2242 C2240 1.358 . S
C2242 N2243 1.279 . S
C2242 H2283 0.930 . S
N2243 C2241 1.314 . S
N2243 C2242 1.279 . S
C2244 C2246 1.353 . S
C2244 N2247 1.314 . S
C2244 H2250 0.930 . S
C2245 N2247 1.279 . S
C2245 C2248 1.358 . S
C2245 H2251 0.930 . S
C2246 C2244 1.353 . S
C2246 C2249 1.348 . S
C2246 H2284 0.929 . S
N2247 Li2202 1.990 . S
N2247 C2244 1.314 . S
N2247 C2245 1.279 . S
C2248 C2245 1.358 . S
C2248 C2249 1.356 . S
C2248 H2285 0.930 . S
C2249 C2246 1.348 . S
C2249 C2248 1.356 . S
H2250 C2244 0.930 . S
H2251 C2245 0.930 . S
C2252 N2253 1.314 . S
C2252 C2254 1.353 . S
C2252 H2258 0.930 . S
N2253 Li2203 1.990 . S
N2253 C2252 1.314 . S
N2253 C2256 1.279 . S
C2254 C2252 1.353 . S
C2254 C2257 1.348 . S
C2254 H2286 0.929 . S
C2255 C2256 1.358 . S
C2255 C2257 1.356 . S
C2255 H2287 0.930 . S
C2256 N2253 1.279 . S
C2256 C2255 1.358 . S
C2256 H2259 0.930 . S
C2257 C2254 1.348 . S
C2257 C2255 1.356 . S
H2258 C2252 0.930 . S
H2259 C2256 0.930 . S
O2260 Li2200 1.956 . S
O2260 Li2201 1.970 . S
O2260 Li2202 1.961 . S
O2260 C2204 1.325 . S
O2261 Li2200 1.970 . S
O2261 Li2201 1.956 . S
O2261 Li2203 1.961 . S
O2261 C2210 1.325 . S
O2262 Li2200 1.961 . S
O2262 Li2202 1.956 . S
O2262 Li2203 1.970 . S
O2262 C2232 1.325 . S
O2263 Li2201 1.961 . S
O2263 Li2202 1.970 . S
O2263 Li2203 1.956 . S
O2263 C2238 1.325 . S
H2264 C2206 0.929 . S
H2265 C2207 0.930 . S
H2266 C2208 0.930 . S
H2267 C2209 0.930 . S
H2268 C2211 0.930 . S
H2269 C2213 0.929 . S
H2270 C2214 0.930 . S
H2271 C2215 0.930 . S
H2272 C2218 0.930 . S
H2273 C2221 0.929 . S
H2274 C2226 0.929 . S
H2275 C2227 0.930 . S
H2276 C2234 0.929 . S
H2277 C2235 0.930 . S
H2278 C2236 0.930 . S
H2279 C2237 0.930 . S
H2280 C2239 0.929 . S
H2281 C2240 0.930 . S
H2282 C2241 0.930 . S
H2283 C2242 0.930 . S
H2284 C2246 0.929 . S
H2285 C2248 0.930 . S
H2286 C2254 0.929 . S
H2287 C2255 0.930 . S
Li2288 N2305 1.990 . S
Li2288 O2348 1.956 . S
Li2288 O2349 1.970 . S
Li2288 O2350 1.961 . S
Li2289 N2313 1.990 . S
Li2289 O2348 1.970 1_554 S
Li2289 O2349 1.956 1_554 S
Li2289 O2351 1.961 1_554 S
Li2290 N2335 1.990 . S
Li2290 O2348 1.961 . S
Li2290 O2350 1.956 . S
Li2290 O2351 1.970 . S
Li2291 N2341 1.990 . S
Li2291 O2349 1.961 . S
Li2291 O2350 1.970 . S
Li2291 O2351 1.956 . S
C2292 C2294 1.348 . S
C2292 C2295 1.356 1_554 S
C2292 O2348 1.325 1_554 S
N2293 C2296 1.314 . S
N2293 C2297 1.279 . S
C2294 C2292 1.348 . S
C2294 C2296 1.353 . S
C2294 H2352 0.929 . S
C2295 C2292 1.356 1_556 S
C2295 C2297 1.358 1_556 S
C2295 H2353 0.930 . S
C2296 N2293 1.314 . S
C2296 C2294 1.353 . S
C2296 H2354 0.930 . S
C2297 N2293 1.279 . S
C2297 C2295 1.358 1_554 S
C2297 H2355 0.930 . S
C2298 C2301 1.348 . S
C2298 C2302 1.356 . S
C2298 O2349 1.325 . S
C2299 N2300 1.279 . S
C2299 C2302 1.358 1_554 S
C2299 H2356 0.930 . S
N2300 C2299 1.279 . S
N2300 C2303 1.309 1_554 S
C2301 C2298 1.348 . S
C2301 C2303 1.361 . S
C2301 H2357 0.929 . S
C2302 C2298 1.356 . S
C2302 C2299 1.358 1_556 S
C2302 H2358 0.930 . S
C2303 N2300 1.309 1_556 S
C2303 C2301 1.361 . S
C2303 H2359 0.928 1_556 S
C2304 N2305 1.314 . S
C2304 C2309 1.353 . S
C2304 H2310 0.930 . S
N2305 Li2288 1.990 . S
N2305 C2304 1.314 . S
N2305 C2307 1.279 . S
C2306 C2307 1.358 . S
C2306 C2308 1.356 . S
C2306 H2360 0.930 . S
C2307 N2305 1.279 . S
C2307 C2306 1.358 . S
C2307 H2311 0.930 . S
C2308 C2306 1.356 . S
C2308 C2309 1.348 . S
C2309 C2304 1.353 . S
C2309 C2308 1.348 . S
C2309 H2361 0.929 . S
H2310 C2304 0.930 . S
H2311 C2307 0.930 . S
C2312 N2313 1.314 . S
C2312 C2314 1.353 . S
C2312 H2318 0.930 . S
N2313 Li2289 1.990 . S
N2313 C2312 1.314 . S
N2313 C2316 1.279 . S
C2314 C2312 1.353 . S
C2314 C2317 1.348 . S
C2314 H2362 0.929 . S
C2315 C2316 1.358 . S
C2315 C2317 1.356 . S
C2315 H2363 0.930 . S
C2316 N2313 1.279 . S
C2316 C2315 1.358 . S
C2316 H2319 0.930 . S
C2317 C2314 1.348 . S
C2317 C2315 1.356 . S
H2318 C2312 0.930 . S
H2319 C2316 0.930 . S
C2320 C2322 1.348 . S
C2320 C2323 1.356 . S
C2320 O2350 1.325 . S
N2321 C2324 1.314 . S
N2321 C2325 1.279 . S
C2322 C2320 1.348 . S
C2322 C2324 1.353 . S
C2322 H2364 0.929 . S
C2323 C2320 1.356 . S
C2323 C2325 1.358 . S
C2323 H2365 0.930 . S
C2324 N2321 1.314 . S
C2324 C2322 1.353 . S
C2324 H2366 0.930 . S
C2325 N2321 1.279 . S
C2325 C2323 1.358 . S
C2325 H2367 0.930 . S
C2326 C2327 1.348 . S
C2326 C2328 1.356 1_556 S
C2326 O2351 1.325 . S
C2327 C2326 1.348 . S
C2327 C2329 1.353 . S
C2327 H2368 0.929 . S
C2328 C2326 1.356 1_554 S
C2328 C2330 1.358 . S
C2328 H2369 0.930 . S
C2329 C2327 1.353 . S
C2329 N2331 1.314 1_556 S
C2329 H2370 0.930 . S
C2330 C2328 1.358 . S
C2330 N2331 1.279 . S
C2330 H2371 0.930 . S
N2331 C2329 1.314 1_554 S
N2331 C2330 1.279 . S
C2332 C2334 1.353 . S
C2332 N2335 1.314 . S
C2332 H2338 0.930 . S
C2333 N2335 1.279 . S
C2333 C2336 1.358 . S
C2333 H2339 0.930 . S
C2334 C2332 1.353 . S
C2334 C2337 1.348 . S
C2334 H2372 0.929 . S
N2335 Li2290 1.990 . S
N2335 C2332 1.314 . S
N2335 C2333 1.279 . S
C2336 C2333 1.358 . S
C2336 C2337 1.356 . S
C2336 H2373 0.930 . S
C2337 C2334 1.348 . S
C2337 C2336 1.356 . S
H2338 C2332 0.930 . S
H2339 C2333 0.930 . S
C2340 N2341 1.314 . S
C2340 C2342 1.353 . S
C2340 H2346 0.930 . S
N2341 Li2291 1.990 . S
N2341 C2340 1.314 . S
N2341 C2344 1.279 . S
C2342 C2340 1.353 . S
C2342 C2345 1.348 . S
C2342 H2374 0.929 . S
C2343 C2344 1.358 . S
C2343 C2345 1.356 . S
C2343 H2375 0.930 . S
C2344 N2341 1.279 . S
C2344 C2343 1.358 . S
C2344 H2347 0.930 . S
C2345 C2342 1.348 . S
C2345 C2343 1.356 . S
H2346 C2340 0.930 . S
H2347 C2344 0.930 . S
O2348 Li2288 1.956 . S
O2348 Li2289 1.970 1_556 S
O2348 Li2290 1.961 . S
O2348 C2292 1.325 1_556 S
O2349 Li2288 1.970 . S
O2349 Li2289 1.956 1_556 S
O2349 Li2291 1.961 . S
O2349 C2298 1.325 . S
O2350 Li2288 1.961 . S
O2350 Li2290 1.956 . S
O2350 Li2291 1.970 . S
O2350 C2320 1.325 . S
O2351 Li2289 1.961 1_556 S
O2351 Li2290 1.970 . S
O2351 Li2291 1.956 . S
O2351 C2326 1.325 . S
H2352 C2294 0.929 . S
H2353 C2295 0.930 . S
H2354 C2296 0.930 . S
H2355 C2297 0.930 . S
H2356 C2299 0.930 . S
H2357 C2301 0.929 . S
H2358 C2302 0.930 . S
H2359 C2303 0.928 1_554 S
H2360 C2306 0.930 . S
H2361 C2309 0.929 . S
H2362 C2314 0.929 . S
H2363 C2315 0.930 . S
H2364 C2322 0.929 . S
H2365 C2323 0.930 . S
H2366 C2324 0.930 . S
H2367 C2325 0.930 . S
H2368 C2327 0.929 . S
H2369 C2328 0.930 . S
H2370 C2329 0.930 . S
H2371 C2330 0.930 . S
H2372 C2334 0.929 . S
H2373 C2336 0.930 . S
H2374 C2342 0.929 . S
H2375 C2343 0.930 . S
Li2376 N2393 1.990 . S
Li2376 O2436 1.956 1_554 S
Li2376 O2437 1.970 1_554 S
Li2376 O2438 1.961 1_554 S
Li2377 N2401 1.990 . S
Li2377 O2436 1.970 . S
Li2377 O2437 1.956 . S
Li2377 O2439 1.961 . S
Li2378 N2423 1.990 . S
Li2378 O2436 1.961 . S
Li2378 O2438 1.956 . S
Li2378 O2439 1.970 . S
Li2379 N2429 1.990 . S
Li2379 O2437 1.961 . S
Li2379 O2438 1.970 . S
Li2379 O2439 1.956 . S
C2380 C2382 1.348 . S
C2380 C2383 1.356 . S
C2380 O2436 1.325 . S
N2381 C2384 1.309 1_554 S
N2381 C2385 1.279 . S
C2382 C2380 1.348 . S
C2382 C2384 1.361 . S
C2382 H2440 0.929 . S
C2383 C2380 1.356 . S
C2383 C2385 1.358 1_556 S
C2383 H2441 0.930 . S
C2384 N2381 1.309 1_556 S
C2384 C2382 1.361 . S
C2384 H2442 0.928 1_556 S
C2385 N2381 1.279 . S
C2385 C2383 1.358 1_554 S
C2385 H2443 0.930 . S
C2386 C2389 1.348 . S
C2386 C2390 1.356 1_554 S
C2386 O2437 1.325 1_554 S
C2387 N2388 1.279 . S
C2387 C2390 1.358 1_554 S
C2387 H2444 0.930 . S
N2388 C2387 1.279 . S
N2388 C2391 1.314 . S
C2389 C2386 1.348 . S
C2389 C2391 1.353 . S
C2389 H2445 0.929 . S
C2390 C2386 1.356 1_556 S
C2390 C2387 1.358 1_556 S
C2390 H2446 0.930 . S
C2391 N2388 1.314 . S
C2391 C2389 1.353 . S
C2391 H2447 0.930 . S
C2392 N2393 1.314 . S
C2392 C2397 1.353 . S
C2392 H2398 0.930 . S
N2393 Li2376 1.990 . S
N2393 C2392 1.314 . S
N2393 C2395 1.279 . S
C2394 C2395 1.358 . S
C2394 C2396 1.356 . S
C2394 H2448 0.930 . S
C2395 N2393 1.279 . S
C2395 C2394 1.358 . S
C2395 H2399 0.930 . S
C2396 C2394 1.356 . S
C2396 C2397 1.348 . S
C2397 C2392 1.353 . S
C2397 C2396 1.348 . S
C2397 H2449 0.929 . S
H2398 C2392 0.930 . S
H2399 C2395 0.930 . S
C2400 N2401 1.314 . S
C2400 C2402 1.353 . S
C2400 H2406 0.930 . S
N2401 Li2377 1.990 . S
N2401 C2400 1.314 . S
N2401 C2404 1.279 . S
C2402 C2400 1.353 . S
C2402 C2405 1.348 . S
C2402 H2450 0.929 . S
C2403 C2404 1.358 . S
C2403 C2405 1.356 . S
C2403 H2451 0.930 . S
C2404 N2401 1.279 . S
C2404 C2403 1.358 . S
C2404 H2407 0.930 . S
C2405 C2402 1.348 . S
C2405 C2403 1.356 . S
H2406 C2400 0.930 . S
H2407 C2404 0.930 . S
C2408 C2410 1.348 . S
C2408 C2411 1.356 1_556 S
C2408 O2438 1.325 . S
N2409 C2412 1.314 1_554 S
N2409 C2413 1.279 . S
C2410 C2408 1.348 . S
C2410 C2412 1.353 . S
C2410 H2452 0.929 . S
C2411 C2408 1.356 1_554 S
C2411 C2413 1.358 . S
C2411 H2453 0.930 . S
C2412 N2409 1.314 1_556 S
C2412 C2410 1.353 . S
C2412 H2454 0.930 . S
C2413 N2409 1.279 . S
C2413 C2411 1.358 . S
C2413 H2455 0.930 . S
C2414 C2415 1.348 . S
C2414 C2416 1.356 . S
C2414 O2439 1.325 . S
C2415 C2414 1.348 . S
C2415 C2417 1.353 . S
C2415 H2456 0.929 . S
C2416 C2414 1.356 . S
C2416 C2418 1.358 . S
C2416 H2457 0.930 . S
C2417 C2415 1.353 . S
C2417 N2419 1.314 . S
C2417 H2458 0.930 . S
C2418 C2416 1.358 . S
C2418 N2419 1.279 . S
C2418 H2459 0.930 . S
N2419 C2417 1.314 . S
N2419 C2418 1.279 . S
C2420 C2422 1.353 . S
C2420 N2423 1.314 . S
C2420 H2426 0.930 . S
C2421 N2423 1.279 . S
C2421 C2424 1.358 . S
C2421 H2427 0.930 . S
C2422 C2420 1.353 . S
C2422 C2425 1.348 . S
C2422 H2460 0.929 . S
N2423 Li2378 1.990 . S
N2423 C2420 1.314 . S
N2423 C2421 1.279 . S
C2424 C2421 1.358 . S
C2424 C2425 1.356 . S
C2424 H2461 0.930 . S
C2425 C2422 1.348 . S
C2425 C2424 1.356 . S
H2426 C2420 0.930 . S
H2427 C2421 0.930 . S
C2428 N2429 1.314 . S
C2428 C2430 1.353 . S
C2428 H2434 0.930 . S
N2429 Li2379 1.990 . S
N2429 C2428 1.314 . S
N2429 C2432 1.279 . S
C2430 C2428 1.353 . S
C2430 C2433 1.348 . S
C2430 H2462 0.929 . S
C2431 C2432 1.358 . S
C2431 C2433 1.356 . S
C2431 H2463 0.930 . S
C2432 N2429 1.279 . S
C2432 C2431 1.358 . S
C2432 H2435 0.930 . S
C2433 C2430 1.348 . S
C2433 C2431 1.356 . S
H2434 C2428 0.930 . S
H2435 C2432 0.930 . S
O2436 Li2376 1.956 1_556 S
O2436 Li2377 1.970 . S
O2436 Li2378 1.961 . S
O2436 C2380 1.325 . S
O2437 Li2376 1.970 1_556 S
O2437 Li2377 1.956 . S
O2437 Li2379 1.961 . S
O2437 C2386 1.325 1_556 S
O2438 Li2376 1.961 1_556 S
O2438 Li2378 1.956 . S
O2438 Li2379 1.970 . S
O2438 C2408 1.325 . S
O2439 Li2377 1.961 . S
O2439 Li2378 1.970 . S
O2439 Li2379 1.956 . S
O2439 C2414 1.325 . S
H2440 C2382 0.929 . S
H2441 C2383 0.930 . S
H2442 C2384 0.928 1_554 S
H2443 C2385 0.930 . S
H2444 C2387 0.930 . S
H2445 C2389 0.929 . S
H2446 C2390 0.930 . S
H2447 C2391 0.930 . S
H2448 C2394 0.930 . S
H2449 C2397 0.929 . S
H2450 C2402 0.929 . S
H2451 C2403 0.930 . S
H2452 C2410 0.929 . S
H2453 C2411 0.930 . S
H2454 C2412 0.930 . S
H2455 C2413 0.930 . S
H2456 C2415 0.929 . S
H2457 C2416 0.930 . S
H2458 C2417 0.930 . S
H2459 C2418 0.930 . S
H2460 C2422 0.929 . S
H2461 C2424 0.930 . S
H2462 C2430 0.929 . S
H2463 C2431 0.930 . S
Li2464 N2481 1.990 . S
Li2464 O2524 1.956 . S
Li2464 O2525 1.970 . S
Li2464 O2526 1.961 . S
Li2465 N2489 1.990 . S
Li2465 O2524 1.970 . S
Li2465 O2525 1.956 . S
Li2465 O2527 1.961 . S
Li2466 N2511 1.990 . S
Li2466 O2524 1.961 . S
Li2466 O2526 1.956 . S
Li2466 O2527 1.970 . S
Li2467 N2517 1.990 . S
Li2467 O2525 1.961 . S
Li2467 O2526 1.970 . S
Li2467 O2527 1.956 . S
C2468 C2470 1.348 . S
C2468 C2471 1.356 . S
C2468 O2524 1.325 . S
N2469 C2472 1.314 . S
N2469 C2473 1.279 . S
C2470 C2468 1.348 . S
C2470 C2472 1.353 . S
C2470 H2528 0.929 . S
C2471 C2468 1.356 . S
C2471 C2473 1.358 . S
C2471 H2529 0.930 . S
C2472 N2469 1.314 . S
C2472 C2470 1.353 . S
C2472 H2530 0.930 . S
C2473 N2469 1.279 . S
C2473 C2471 1.358 . S
C2473 H2531 0.930 . S
C2474 C2477 1.348 . S
C2474 C2478 1.356 . S
C2474 O2525 1.325 . S
C2475 N2476 1.279 . S
C2475 C2478 1.358 . S
C2475 H2532 0.930 . S
N2476 C2475 1.279 . S
N2476 C2479 1.314 . S
C2477 C2474 1.348 . S
C2477 C2479 1.353 . S
C2477 H2533 0.929 . S
C2478 C2474 1.356 . S
C2478 C2475 1.358 . S
C2478 H2534 0.930 . S
C2479 N2476 1.314 . S
C2479 C2477 1.353 . S
C2479 H2535 0.930 . S
C2480 N2481 1.314 . S
C2480 C2485 1.353 . S
C2480 H2486 0.930 . S
N2481 Li2464 1.990 . S
N2481 C2480 1.314 . S
N2481 C2483 1.279 . S
C2482 C2483 1.358 . S
C2482 C2484 1.356 . S
C2482 H2536 0.930 . S
C2483 N2481 1.279 . S
C2483 C2482 1.358 . S
C2483 H2487 0.930 . S
C2484 C2482 1.356 . S
C2484 C2485 1.348 . S
C2485 C2480 1.353 . S
C2485 C2484 1.348 . S
C2485 H2537 0.929 . S
H2486 C2480 0.930 . S
H2487 C2483 0.930 . S
C2488 N2489 1.314 . S
C2488 C2490 1.353 . S
C2488 H2494 0.930 . S
N2489 Li2465 1.990 . S
N2489 C2488 1.314 . S
N2489 C2492 1.279 . S
C2490 C2488 1.353 . S
C2490 C2493 1.348 . S
C2490 H2538 0.929 . S
C2491 C2492 1.358 . S
C2491 C2493 1.356 . S
C2491 H2539 0.930 . S
C2492 N2489 1.279 . S
C2492 C2491 1.358 . S
C2492 H2495 0.930 . S
C2493 C2490 1.348 . S
C2493 C2491 1.356 . S
H2494 C2488 0.930 . S
H2495 C2492 0.930 . S
C2496 C2498 1.348 . S
C2496 C2499 1.356 . S
C2496 O2526 1.325 . S
N2497 C2500 1.314 . S
N2497 C2501 1.279 . S
C2498 C2496 1.348 . S
C2498 C2500 1.353 . S
C2498 H2540 0.929 . S
C2499 C2496 1.356 . S
C2499 C2501 1.358 . S
C2499 H2541 0.930 . S
C2500 N2497 1.314 . S
C2500 C2498 1.353 . S
C2500 H2542 0.930 . S
C2501 N2497 1.279 . S
C2501 C2499 1.358 . S
C2501 H2543 0.930 . S
C2502 C2503 1.348 . S
C2502 C2504 1.356 . S
C2502 O2527 1.325 . S
C2503 C2502 1.348 . S
C2503 C2505 1.353 . S
C2503 H2544 0.929 . S
C2504 C2502 1.356 . S
C2504 C2506 1.358 . S
C2504 H2545 0.930 . S
C2505 C2503 1.353 . S
C2505 N2507 1.314 . S
C2505 H2546 0.930 . S
C2506 C2504 1.358 . S
C2506 N2507 1.279 . S
C2506 H2547 0.930 . S
N2507 C2505 1.314 . S
N2507 C2506 1.279 . S
C2508 C2510 1.353 . S
C2508 N2511 1.314 . S
C2508 H2514 0.930 . S
C2509 N2511 1.279 . S
C2509 C2512 1.358 . S
C2509 H2515 0.930 . S
C2510 C2508 1.353 . S
C2510 C2513 1.348 . S
C2510 H2548 0.929 . S
N2511 Li2466 1.990 . S
N2511 C2508 1.314 . S
N2511 C2509 1.279 . S
C2512 C2509 1.358 . S
C2512 C2513 1.356 . S
C2512 H2549 0.930 . S
C2513 C2510 1.348 . S
C2513 C2512 1.356 . S
H2514 C2508 0.930 . S
H2515 C2509 0.930 . S
C2516 N2517 1.314 . S
C2516 C2518 1.353 . S
C2516 H2522 0.930 . S
N2517 Li2467 1.990 . S
N2517 C2516 1.314 . S
N2517 C2520 1.279 . S
C2518 C2516 1.353 . S
C2518 C2521 1.348 . S
C2518 H2550 0.929 . S
C2519 C2520 1.358 . S
C2519 C2521 1.356 . S
C2519 H2551 0.930 . S
C2520 N2517 1.279 . S
C2520 C2519 1.358 . S
C2520 H2523 0.930 . S
C2521 C2518 1.348 . S
C2521 C2519 1.356 . S
H2522 C2516 0.930 . S
H2523 C2520 0.930 . S
O2524 Li2464 1.956 . S
O2524 Li2465 1.970 . S
O2524 Li2466 1.961 . S
O2524 C2468 1.325 . S
O2525 Li2464 1.970 . S
O2525 Li2465 1.956 . S
O2525 Li2467 1.961 . S
O2525 C2474 1.325 . S
O2526 Li2464 1.961 . S
O2526 Li2466 1.956 . S
O2526 Li2467 1.970 . S
O2526 C2496 1.325 . S
O2527 Li2465 1.961 . S
O2527 Li2466 1.970 . S
O2527 Li2467 1.956 . S
O2527 C2502 1.325 . S
H2528 C2470 0.929 . S
H2529 C2471 0.930 . S
H2530 C2472 0.930 . S
H2531 C2473 0.930 . S
H2532 C2475 0.930 . S
H2533 C2477 0.929 . S
H2534 C2478 0.930 . S
H2535 C2479 0.930 . S
H2536 C2482 0.930 . S
H2537 C2485 0.929 . S
H2538 C2490 0.929 . S
H2539 C2491 0.930 . S
H2540 C2498 0.929 . S
H2541 C2499 0.930 . S
H2542 C2500 0.930 . S
H2543 C2501 0.930 . S
H2544 C2503 0.929 . S
H2545 C2504 0.930 . S
H2546 C2505 0.930 . S
H2547 C2506 0.930 . S
H2548 C2510 0.929 . S
H2549 C2512 0.930 . S
H2550 C2518 0.929 . S
H2551 C2519 0.930 . S
Li2552 N2569 1.990 . S
Li2552 O2612 1.956 . S
Li2552 O2613 1.970 . S
Li2552 O2614 1.961 . S
Li2553 N2577 1.990 . S
Li2553 O2612 1.970 . S
Li2553 O2613 1.956 . S
Li2553 O2615 1.961 . S
Li2554 N2599 1.990 . S
Li2554 O2612 1.961 . S
Li2554 O2614 1.956 . S
Li2554 O2615 1.970 . S
Li2555 N2605 1.990 . S
Li2555 O2613 1.961 . S
Li2555 O2614 1.970 . S
Li2555 O2615 1.956 . S
C2556 C2558 1.348 . S
C2556 C2559 1.356 . S
C2556 O2612 1.325 . S
N2557 C2560 1.314 . S
N2557 C2561 1.279 . S
C2558 C2556 1.348 . S
C2558 C2560 1.353 . S
C2558 H2616 0.929 . S
C2559 C2556 1.356 . S
C2559 C2561 1.358 . S
C2559 H2617 0.930 . S
C2560 N2557 1.314 . S
C2560 C2558 1.353 . S
C2560 H2618 0.930 . S
C2561 N2557 1.279 . S
C2561 C2559 1.358 . S
C2561 H2619 0.930 . S
C2562 C2565 1.348 . S
C2562 C2566 1.356 . S
C2562 O2613 1.325 . S
C2563 N2564 1.279 . S
C2563 C2566 1.358 . S
C2563 H2620 0.930 . S
N2564 C2563 1.279 . S
N2564 C2567 1.314 . S
C2565 C2562 1.348 . S
C2565 C2567 1.353 . S
C2565 H2621 0.929 . S
C2566 C2562 1.356 . S
C2566 C2563 1.358 . S
C2566 H2622 0.930 . S
C2567 N2564 1.314 . S
C2567 C2565 1.353 . S
C2567 H2623 0.930 . S
C2568 N2569 1.314 . S
C2568 C2573 1.353 . S
C2568 H2574 0.930 . S
N2569 Li2552 1.990 . S
N2569 C2568 1.314 . S
N2569 C2571 1.279 . S
C2570 C2571 1.358 . S
C2570 C2572 1.356 . S
C2570 H2624 0.930 . S
C2571 N2569 1.279 . S
C2571 C2570 1.358 . S
C2571 H2575 0.930 . S
C2572 C2570 1.356 . S
C2572 C2573 1.348 . S
C2573 C2568 1.353 . S
C2573 C2572 1.348 . S
C2573 H2625 0.929 . S
H2574 C2568 0.930 . S
H2575 C2571 0.930 . S
C2576 N2577 1.314 . S
C2576 C2578 1.353 . S
C2576 H2582 0.930 . S
N2577 Li2553 1.990 . S
N2577 C2576 1.314 . S
N2577 C2580 1.279 . S
C2578 C2576 1.353 . S
C2578 C2581 1.348 . S
C2578 H2626 0.929 . S
C2579 C2580 1.358 . S
C2579 C2581 1.356 . S
C2579 H2627 0.930 . S
C2580 N2577 1.279 . S
C2580 C2579 1.358 . S
C2580 H2583 0.930 . S
C2581 C2578 1.348 . S
C2581 C2579 1.356 . S
H2582 C2576 0.930 . S
H2583 C2580 0.930 . S
C2584 C2586 1.348 . S
C2584 C2587 1.356 . S
C2584 O2614 1.325 . S
N2585 C2588 1.314 . S
N2585 C2589 1.279 . S
C2586 C2584 1.348 . S
C2586 C2588 1.353 . S
C2586 H2628 0.929 . S
C2587 C2584 1.356 . S
C2587 C2589 1.358 . S
C2587 H2629 0.930 . S
C2588 N2585 1.314 . S
C2588 C2586 1.353 . S
C2588 H2630 0.930 . S
C2589 N2585 1.279 . S
C2589 C2587 1.358 . S
C2589 H2631 0.930 . S
C2590 C2591 1.348 . S
C2590 C2592 1.356 . S
C2590 O2615 1.325 . S
C2591 C2590 1.348 . S
C2591 C2593 1.353 . S
C2591 H2632 0.929 . S
C2592 C2590 1.356 . S
C2592 C2594 1.358 . S
C2592 H2633 0.930 . S
C2593 C2591 1.353 . S
C2593 N2595 1.314 . S
C2593 H2634 0.930 . S
C2594 C2592 1.358 . S
C2594 N2595 1.279 . S
C2594 H2635 0.930 . S
N2595 C2593 1.314 . S
N2595 C2594 1.279 . S
C2596 C2598 1.353 . S
C2596 N2599 1.314 . S
C2596 H2602 0.930 . S
C2597 N2599 1.279 . S
C2597 C2600 1.358 . S
C2597 H2603 0.930 . S
C2598 C2596 1.353 . S
C2598 C2601 1.348 . S
C2598 H2636 0.929 . S
N2599 Li2554 1.990 . S
N2599 C2596 1.314 . S
N2599 C2597 1.279 . S
C2600 C2597 1.358 . S
C2600 C2601 1.356 . S
C2600 H2637 0.930 . S
C2601 C2598 1.348 . S
C2601 C2600 1.356 . S
H2602 C2596 0.930 . S
H2603 C2597 0.930 . S
C2604 N2605 1.314 . S
C2604 C2606 1.353 . S
C2604 H2610 0.930 . S
N2605 Li2555 1.990 . S
N2605 C2604 1.314 . S
N2605 C2608 1.279 . S
C2606 C2604 1.353 . S
C2606 C2609 1.348 . S
C2606 H2638 0.929 . S
C2607 C2608 1.358 . S
C2607 C2609 1.356 . S
C2607 H2639 0.930 . S
C2608 N2605 1.279 . S
C2608 C2607 1.358 . S
C2608 H2611 0.930 . S
C2609 C2606 1.348 . S
C2609 C2607 1.356 . S
H2610 C2604 0.930 . S
H2611 C2608 0.930 . S
O2612 Li2552 1.956 . S
O2612 Li2553 1.970 . S
O2612 Li2554 1.961 . S
O2612 C2556 1.325 . S
O2613 Li2552 1.970 . S
O2613 Li2553 1.956 . S
O2613 Li2555 1.961 . S
O2613 C2562 1.325 . S
O2614 Li2552 1.961 . S
O2614 Li2554 1.956 . S
O2614 Li2555 1.970 . S
O2614 C2584 1.325 . S
O2615 Li2553 1.961 . S
O2615 Li2554 1.970 . S
O2615 Li2555 1.956 . S
O2615 C2590 1.325 . S
H2616 C2558 0.929 . S
H2617 C2559 0.930 . S
H2618 C2560 0.930 . S
H2619 C2561 0.930 . S
H2620 C2563 0.930 . S
H2621 C2565 0.929 . S
H2622 C2566 0.930 . S
H2623 C2567 0.930 . S
H2624 C2570 0.930 . S
H2625 C2573 0.929 . S
H2626 C2578 0.929 . S
H2627 C2579 0.930 . S
H2628 C2586 0.929 . S
H2629 C2587 0.930 . S
H2630 C2588 0.930 . S
H2631 C2589 0.930 . S
H2632 C2591 0.929 . S
H2633 C2592 0.930 . S
H2634 C2593 0.930 . S
H2635 C2594 0.930 . S
H2636 C2598 0.929 . S
H2637 C2600 0.930 . S
H2638 C2606 0.929 . S
H2639 C2607 0.930 . S
Li2640 N2657 1.990 . S
Li2640 O2700 1.956 . S
Li2640 O2701 1.970 . S
Li2640 O2702 1.961 . S
Li2641 N2665 1.990 . S
Li2641 O2700 1.970 . S
Li2641 O2701 1.956 . S
Li2641 O2703 1.961 . S
Li2642 N2687 1.990 . S
Li2642 O2700 1.961 . S
Li2642 O2702 1.956 . S
Li2642 O2703 1.970 . S
Li2643 N2693 1.990 . S
Li2643 O2701 1.961 1_556 S
Li2643 O2702 1.970 1_556 S
Li2643 O2703 1.956 1_556 S
C2644 C2646 1.348 . S
C2644 C2647 1.356 . S
C2644 O2700 1.325 . S
N2645 C2648 1.314 . S
N2645 C2649 1.279 . S
C2646 C2644 1.348 . S
C2646 C2648 1.353 . S
C2646 H2704 0.929 . S
C2647 C2644 1.356 . S
C2647 C2649 1.358 . S
C2647 H2705 0.930 . S
C2648 N2645 1.314 . S
C2648 C2646 1.353 . S
C2648 H2706 0.930 . S
C2649 N2645 1.279 . S
C2649 C2647 1.358 . S
C2649 H2707 0.930 . S
C2650 C2653 1.348 . S
C2650 C2654 1.356 1_554 S
C2650 O2701 1.325 . S
C2651 N2652 1.276 1_556 S
C2651 C2654 1.358 . S
C2651 H2708 0.930 . S
N2652 C2651 1.276 1_554 S
N2652 C2655 1.320 . S
C2653 C2650 1.348 . S
C2653 C2655 1.353 . S
C2653 H2709 0.929 . S
C2654 C2650 1.356 1_556 S
C2654 C2651 1.358 . S
C2654 H2710 0.930 . S
C2655 N2652 1.320 . S
C2655 C2653 1.353 . S
C2655 H2711 0.930 . S
C2656 N2657 1.314 . S
C2656 C2661 1.353 . S
C2656 H2662 0.930 . S
N2657 Li2640 1.990 . S
N2657 C2656 1.314 . S
N2657 C2659 1.279 . S
C2658 C2659 1.358 . S
C2658 C2660 1.356 . S
C2658 H2712 0.930 . S
C2659 N2657 1.279 . S
C2659 C2658 1.358 . S
C2659 H2663 0.930 . S
C2660 C2658 1.356 . S
C2660 C2661 1.348 . S
C2661 C2656 1.353 . S
C2661 C2660 1.348 . S
C2661 H2713 0.929 . S
H2662 C2656 0.930 . S
H2663 C2659 0.930 . S
C2664 N2665 1.314 . S
C2664 C2666 1.353 . S
C2664 H2670 0.930 . S
N2665 Li2641 1.990 . S
N2665 C2664 1.314 . S
N2665 C2668 1.279 . S
C2666 C2664 1.353 . S
C2666 C2669 1.348 . S
C2666 H2714 0.929 . S
C2667 C2668 1.358 . S
C2667 C2669 1.356 . S
C2667 H2715 0.930 . S
C2668 N2665 1.279 . S
C2668 C2667 1.358 . S
C2668 H2671 0.930 . S
C2669 C2666 1.348 . S
C2669 C2667 1.356 . S
H2670 C2664 0.930 . S
H2671 C2668 0.930 . S
C2672 C2674 1.348 . S
C2672 C2675 1.356 1_556 S
C2672 O2702 1.325 1_556 S
N2673 C2676 1.314 . S
N2673 C2677 1.279 . S
C2674 C2672 1.348 . S
C2674 C2676 1.353 . S
C2674 H2716 0.929 . S
C2675 C2672 1.356 1_554 S
C2675 C2677 1.358 1_554 S
C2675 H2717 0.930 . S
C2676 N2673 1.314 . S
C2676 C2674 1.353 . S
C2676 H2718 0.930 . S
C2677 N2673 1.279 . S
C2677 C2675 1.358 1_556 S
C2677 H2719 0.930 . S
C2678 C2679 1.348 . S
C2678 C2680 1.356 . S
C2678 O2703 1.325 . S
C2679 C2678 1.348 . S
C2679 C2681 1.353 1_554 S
C2679 H2720 0.929 . S
C2680 C2678 1.356 . S
C2680 C2682 1.358 1_554 S
C2680 H2721 0.930 . S
C2681 C2679 1.353 1_556 S
C2681 N2683 1.314 . S
C2681 H2722 0.930 . S
C2682 C2680 1.358 1_556 S
C2682 N2683 1.279 . S
C2682 H2723 0.930 . S
N2683 C2681 1.314 . S
N2683 C2682 1.279 . S
C2684 C2686 1.353 . S
C2684 N2687 1.314 . S
C2684 H2690 0.930 . S
C2685 N2687 1.279 . S
C2685 C2688 1.358 . S
C2685 H2691 0.930 . S
C2686 C2684 1.353 . S
C2686 C2689 1.348 . S
C2686 H2724 0.929 . S
N2687 Li2642 1.990 . S
N2687 C2684 1.314 . S
N2687 C2685 1.279 . S
C2688 C2685 1.358 . S
C2688 C2689 1.356 . S
C2688 H2725 0.930 . S
C2689 C2686 1.348 . S
C2689 C2688 1.356 . S
H2690 C2684 0.930 . S
H2691 C2685 0.930 . S
C2692 N2693 1.314 . S
C2692 C2694 1.353 . S
C2692 H2698 0.930 . S
N2693 Li2643 1.990 . S
N2693 C2692 1.314 . S
N2693 C2696 1.279 . S
C2694 C2692 1.353 . S
C2694 C2697 1.348 . S
C2694 H2726 0.929 . S
C2695 C2696 1.358 . S
C2695 C2697 1.356 . S
C2695 H2727 0.930 . S
C2696 N2693 1.279 . S
C2696 C2695 1.358 . S
C2696 H2699 0.930 . S
C2697 C2694 1.348 . S
C2697 C2695 1.356 . S
H2698 C2692 0.930 . S
H2699 C2696 0.930 . S
O2700 Li2640 1.956 . S
O2700 Li2641 1.970 . S
O2700 Li2642 1.961 . S
O2700 C2644 1.325 . S
O2701 Li2640 1.970 . S
O2701 Li2641 1.956 . S
O2701 Li2643 1.961 1_554 S
O2701 C2650 1.325 . S
O2702 Li2640 1.961 . S
O2702 Li2642 1.956 . S
O2702 Li2643 1.970 1_554 S
O2702 C2672 1.325 1_554 S
O2703 Li2641 1.961 . S
O2703 Li2642 1.970 . S
O2703 Li2643 1.956 1_554 S
O2703 C2678 1.325 . S
H2704 C2646 0.929 . S
H2705 C2647 0.930 . S
H2706 C2648 0.930 . S
H2707 C2649 0.930 . S
H2708 C2651 0.930 . S
H2709 C2653 0.929 . S
H2710 C2654 0.930 . S
H2711 C2655 0.930 . S
H2712 C2658 0.930 . S
H2713 C2661 0.929 . S
H2714 C2666 0.929 . S
H2715 C2667 0.930 . S
H2716 C2674 0.929 . S
H2717 C2675 0.930 . S
H2718 C2676 0.930 . S
H2719 C2677 0.930 . S
H2720 C2679 0.929 . S
H2721 C2680 0.930 . S
H2722 C2681 0.930 . S
H2723 C2682 0.930 . S
H2724 C2686 0.929 . S
H2725 C2688 0.930 . S
H2726 C2694 0.929 . S
H2727 C2695 0.930 . S
Li2728 N2745 1.990 . S
Li2728 O2788 1.956 . S
Li2728 O2789 1.970 . S
Li2728 O2790 1.961 . S
Li2729 N2753 1.990 . S
Li2729 O2788 1.970 . S
Li2729 O2789 1.956 . S
Li2729 O2791 1.961 . S
Li2730 N2775 1.990 . S
Li2730 O2788 1.961 . S
Li2730 O2790 1.956 . S
Li2730 O2791 1.970 . S
Li2731 N2781 1.990 . S
Li2731 O2789 1.961 1_556 S
Li2731 O2790 1.970 1_556 S
Li2731 O2791 1.956 1_556 S
C2732 C2734 1.348 . S
C2732 C2735 1.356 . S
C2732 O2788 1.325 . S
N2733 C2736 1.314 . S
N2733 C2737 1.279 . S
C2734 C2732 1.348 . S
C2734 C2736 1.353 . S
C2734 H2792 0.929 . S
C2735 C2732 1.356 . S
C2735 C2737 1.358 . S
C2735 H2793 0.930 . S
C2736 N2733 1.314 . S
C2736 C2734 1.353 . S
C2736 H2794 0.930 . S
C2737 N2733 1.279 . S
C2737 C2735 1.358 . S
C2737 H2795 0.930 . S
C2738 C2741 1.348 . S
C2738 C2742 1.356 1_554 S
C2738 O2789 1.325 . S
C2739 N2740 1.276 1_556 S
C2739 C2742 1.358 . S
C2739 H2796 0.930 . S
N2740 C2739 1.276 1_554 S
N2740 C2743 1.320 . S
C2741 C2738 1.348 . S
C2741 C2743 1.353 . S
C2741 H2797 0.929 . S
C2742 C2738 1.356 1_556 S
C2742 C2739 1.358 . S
C2742 H2798 0.930 . S
C2743 N2740 1.320 . S
C2743 C2741 1.353 . S
C2743 H2799 0.930 . S
C2744 N2745 1.314 . S
C2744 C2749 1.353 . S
C2744 H2750 0.930 . S
N2745 Li2728 1.990 . S
N2745 C2744 1.314 . S
N2745 C2747 1.279 . S
C2746 C2747 1.358 . S
C2746 C2748 1.356 . S
C2746 H2800 0.930 . S
C2747 N2745 1.279 . S
C2747 C2746 1.358 . S
C2747 H2751 0.930 . S
C2748 C2746 1.356 . S
C2748 C2749 1.348 . S
C2749 C2744 1.353 . S
C2749 C2748 1.348 . S
C2749 H2801 0.929 . S
H2750 C2744 0.930 . S
H2751 C2747 0.930 . S
C2752 N2753 1.314 . S
C2752 C2754 1.353 . S
C2752 H2758 0.930 . S
N2753 Li2729 1.990 . S
N2753 C2752 1.314 . S
N2753 C2756 1.279 . S
C2754 C2752 1.353 . S
C2754 C2757 1.348 . S
C2754 H2802 0.929 . S
C2755 C2756 1.358 . S
C2755 C2757 1.356 . S
C2755 H2803 0.930 . S
C2756 N2753 1.279 . S
C2756 C2755 1.358 . S
C2756 H2759 0.930 . S
C2757 C2754 1.348 . S
C2757 C2755 1.356 . S
H2758 C2752 0.930 . S
H2759 C2756 0.930 . S
C2760 C2762 1.348 . S
C2760 C2763 1.356 1_556 S
C2760 O2790 1.325 1_556 S
N2761 C2764 1.314 . S
N2761 C2765 1.279 . S
C2762 C2760 1.348 . S
C2762 C2764 1.353 . S
C2762 H2804 0.929 . S
C2763 C2760 1.356 1_554 S
C2763 C2765 1.358 1_554 S
C2763 H2805 0.930 . S
C2764 N2761 1.314 . S
C2764 C2762 1.353 . S
C2764 H2806 0.930 . S
C2765 N2761 1.279 . S
C2765 C2763 1.358 1_556 S
C2765 H2807 0.930 . S
C2766 C2767 1.348 . S
C2766 C2768 1.356 . S
C2766 O2791 1.325 . S
C2767 C2766 1.348 . S
C2767 C2769 1.353 1_554 S
C2767 H2808 0.929 . S
C2768 C2766 1.356 . S
C2768 C2770 1.358 1_554 S
C2768 H2809 0.930 . S
C2769 C2767 1.353 1_556 S
C2769 N2771 1.314 . S
C2769 H2810 0.930 . S
C2770 C2768 1.358 1_556 S
C2770 N2771 1.279 . S
C2770 H2811 0.930 . S
N2771 C2769 1.314 . S
N2771 C2770 1.279 . S
C2772 C2774 1.353 . S
C2772 N2775 1.314 . S
C2772 H2778 0.930 . S
C2773 N2775 1.279 . S
C2773 C2776 1.358 . S
C2773 H2779 0.930 . S
C2774 C2772 1.353 . S
C2774 C2777 1.348 . S
C2774 H2812 0.929 . S
N2775 Li2730 1.990 . S
N2775 C2772 1.314 . S
N2775 C2773 1.279 . S
C2776 C2773 1.358 . S
C2776 C2777 1.356 . S
C2776 H2813 0.930 . S
C2777 C2774 1.348 . S
C2777 C2776 1.356 . S
H2778 C2772 0.930 . S
H2779 C2773 0.930 . S
C2780 N2781 1.314 . S
C2780 C2782 1.353 . S
C2780 H2786 0.930 . S
N2781 Li2731 1.990 . S
N2781 C2780 1.314 . S
N2781 C2784 1.279 . S
C2782 C2780 1.353 . S
C2782 C2785 1.348 . S
C2782 H2814 0.929 . S
C2783 C2784 1.358 . S
C2783 C2785 1.356 . S
C2783 H2815 0.930 . S
C2784 N2781 1.279 . S
C2784 C2783 1.358 . S
C2784 H2787 0.930 . S
C2785 C2782 1.348 . S
C2785 C2783 1.356 . S
H2786 C2780 0.930 . S
H2787 C2784 0.930 . S
O2788 Li2728 1.956 . S
O2788 Li2729 1.970 . S
O2788 Li2730 1.961 . S
O2788 C2732 1.325 . S
O2789 Li2728 1.970 . S
O2789 Li2729 1.956 . S
O2789 Li2731 1.961 1_554 S
O2789 C2738 1.325 . S
O2790 Li2728 1.961 . S
O2790 Li2730 1.956 . S
O2790 Li2731 1.970 1_554 S
O2790 C2760 1.325 1_554 S
O2791 Li2729 1.961 . S
O2791 Li2730 1.970 . S
O2791 Li2731 1.956 1_554 S
O2791 C2766 1.325 . S
H2792 C2734 0.929 . S
H2793 C2735 0.930 . S
H2794 C2736 0.930 . S
H2795 C2737 0.930 . S
H2796 C2739 0.930 . S
H2797 C2741 0.929 . S
H2798 C2742 0.930 . S
H2799 C2743 0.930 . S
H2800 C2746 0.930 . S
H2801 C2749 0.929 . S
H2802 C2754 0.929 . S
H2803 C2755 0.930 . S
H2804 C2762 0.929 . S
H2805 C2763 0.930 . S
H2806 C2764 0.930 . S
H2807 C2765 0.930 . S
H2808 C2767 0.929 . S
H2809 C2768 0.930 . S
H2810 C2769 0.930 . S
H2811 C2770 0.930 . S
H2812 C2774 0.929 . S
H2813 C2776 0.930 . S
H2814 C2782 0.929 . S
H2815 C2783 0.930 . S
H2816 C2822 0.930 . S
H2817 C2826 0.930 . S
H2818 C2831 0.929 . S
H2819 C2829 0.929 . S
H2820 C2824 0.929 . S
H2821 C2830 0.929 . S
C2822 H2816 0.930 . S
C2822 C2823 1.367 . S
C2822 C2830 1.378 . S
C2823 C2822 1.367 . S
C2823 C2831 1.433 . S
C2824 H2820 0.929 . S
C2824 C2826 1.378 . S
C2824 C2828 1.350 . S
C2825 C2828 1.463 . S
C2825 C2830 1.350 . S
C2825 N2833 1.427 . S
C2826 H2817 0.930 . S
C2826 C2824 1.378 . S
C2826 C2827 1.367 . S
C2827 C2826 1.367 . S
C2827 C2829 1.433 . S
C2828 C2824 1.350 . S
C2828 C2825 1.463 . S
C2828 N2832 1.427 . S
C2829 H2819 0.929 . S
C2829 C2827 1.433 . S
C2829 N2832 1.384 . S
C2830 H2821 0.929 . S
C2830 C2822 1.378 . S
C2830 C2825 1.350 . S
C2831 H2818 0.929 . S
C2831 C2823 1.433 . S
C2831 N2833 1.384 . S
N2832 C2828 1.427 . S
N2832 C2829 1.384 . S
N2833 C2825 1.427 . S
N2833 C2831 1.384 . S
H2834 C2840 0.930 . S
H2835 C2844 0.930 . S
H2836 C2849 0.929 . S
H2837 C2847 0.929 . S
H2838 C2842 0.929 . S
H2839 C2848 0.929 . S
C2840 H2834 0.930 . S
C2840 C2841 1.367 . S
C2840 C2848 1.378 . S
C2841 C2840 1.367 . S
C2841 C2849 1.433 . S
C2842 H2838 0.929 . S
C2842 C2844 1.378 . S
C2842 C2846 1.350 . S
C2843 C2846 1.463 . S
C2843 C2848 1.350 . S
C2843 N2851 1.427 . S
C2844 H2835 0.930 . S
C2844 C2842 1.378 . S
C2844 C2845 1.367 . S
C2845 C2844 1.367 . S
C2845 C2847 1.433 . S
C2846 C2842 1.350 . S
C2846 C2843 1.463 . S
C2846 N2850 1.427 . S
C2847 H2837 0.929 . S
C2847 C2845 1.433 . S
C2847 N2850 1.384 . S
C2848 H2839 0.929 . S
C2848 C2840 1.378 . S
C2848 C2843 1.350 . S
C2849 H2836 0.929 . S
C2849 C2841 1.433 . S
C2849 N2851 1.384 . S
N2850 C2846 1.427 . S
N2850 C2847 1.384 . S
N2851 C2843 1.427 . S
N2851 C2849 1.384 . S
H2852 C2858 0.930 . S
H2853 C2862 0.930 . S
H2854 C2867 0.929 . S
H2855 C2865 0.929 . S
H2856 C2860 0.929 . S
H2857 C2866 0.929 . S
C2858 H2852 0.930 . S
C2858 C2859 1.367 . S
C2858 C2866 1.378 . S
C2859 C2858 1.367 . S
C2859 C2867 1.433 . S
C2860 H2856 0.929 . S
C2860 C2862 1.378 . S
C2860 C2864 1.350 . S
C2861 C2864 1.463 . S
C2861 C2866 1.350 . S
C2861 N2869 1.427 . S
C2862 H2853 0.930 . S
C2862 C2860 1.378 . S
C2862 C2863 1.367 . S
C2863 C2862 1.367 . S
C2863 C2865 1.433 . S
C2864 C2860 1.350 . S
C2864 C2861 1.463 . S
C2864 N2868 1.427 . S
C2865 H2855 0.929 . S
C2865 C2863 1.433 . S
C2865 N2868 1.384 . S
C2866 H2857 0.929 . S
C2866 C2858 1.378 . S
C2866 C2861 1.350 . S
C2867 H2854 0.929 . S
C2867 C2859 1.433 . S
C2867 N2869 1.384 . S
N2868 C2864 1.427 . S
N2868 C2865 1.384 . S
N2869 C2861 1.427 . S
N2869 C2867 1.384 . S
H2870 C2876 0.930 . S
H2871 C2880 0.930 . S
H2872 C2885 0.929 . S
H2873 C2883 0.929 . S
H2874 C2878 0.929 . S
H2875 C2884 0.929 . S
C2876 H2870 0.930 . S
C2876 C2877 1.367 . S
C2876 C2884 1.378 . S
C2877 C2876 1.367 . S
C2877 C2885 1.433 . S
C2878 H2874 0.929 . S
C2878 C2880 1.378 . S
C2878 C2882 1.350 . S
C2879 C2882 1.463 . S
C2879 C2884 1.350 . S
C2879 N2887 1.427 . S
C2880 H2871 0.930 . S
C2880 C2878 1.378 . S
C2880 C2881 1.367 . S
C2881 C2880 1.367 . S
C2881 C2883 1.433 . S
C2882 C2878 1.350 . S
C2882 C2879 1.463 . S
C2882 N2886 1.427 . S
C2883 H2873 0.929 . S
C2883 C2881 1.433 . S
C2883 N2886 1.384 . S
C2884 H2875 0.929 . S
C2884 C2876 1.378 . S
C2884 C2879 1.350 . S
C2885 H2872 0.929 . S
C2885 C2877 1.433 . S
C2885 N2887 1.384 . S
N2886 C2882 1.427 . S
N2886 C2883 1.384 . S
N2887 C2879 1.427 . S
N2887 C2885 1.384 . S
H2888 C2894 0.930 . S
H2889 C2898 0.930 . S
H2890 C2903 0.929 . S
H2891 C2901 0.929 . S
H2892 C2896 0.929 . S
H2893 C2902 0.929 . S
C2894 H2888 0.930 . S
C2894 C2895 1.367 . S
C2894 C2902 1.378 . S
C2895 C2894 1.367 . S
C2895 C2903 1.433 . S
C2896 H2892 0.929 . S
C2896 C2898 1.378 . S
C2896 C2900 1.350 . S
C2897 C2900 1.463 . S
C2897 C2902 1.350 . S
C2897 N2905 1.427 . S
C2898 H2889 0.930 . S
C2898 C2896 1.378 . S
C2898 C2899 1.367 . S
C2899 C2898 1.367 . S
C2899 C2901 1.433 . S
C2900 C2896 1.350 . S
C2900 C2897 1.463 . S
C2900 N2904 1.427 . S
C2901 H2891 0.929 . S
C2901 C2899 1.433 . S
C2901 N2904 1.384 . S
C2902 H2893 0.929 . S
C2902 C2894 1.378 . S
C2902 C2897 1.350 . S
C2903 H2890 0.929 . S
C2903 C2895 1.433 . S
C2903 N2905 1.384 . S
N2904 C2900 1.427 . S
N2904 C2901 1.384 . S
N2905 C2897 1.427 . S
N2905 C2903 1.384 . S
H2906 C2912 0.930 . S
H2907 C2916 0.930 . S
H2908 C2921 0.929 . S
H2909 C2919 0.929 . S
H2910 C2914 0.929 . S
H2911 C2920 0.929 . S
C2912 H2906 0.930 . S
C2912 C2913 1.367 . S
C2912 C2920 1.378 . S
C2913 C2912 1.367 . S
C2913 C2921 1.433 . S
C2914 H2910 0.929 . S
C2914 C2916 1.378 . S
C2914 C2918 1.350 . S
C2915 C2918 1.463 . S
C2915 C2920 1.350 . S
C2915 N2923 1.427 . S
C2916 H2907 0.930 . S
C2916 C2914 1.378 . S
C2916 C2917 1.367 . S
C2917 C2916 1.367 . S
C2917 C2919 1.433 . S
C2918 C2914 1.350 . S
C2918 C2915 1.463 . S
C2918 N2922 1.427 . S
C2919 H2909 0.929 . S
C2919 C2917 1.433 . S
C2919 N2922 1.384 . S
C2920 H2911 0.929 . S
C2920 C2912 1.378 . S
C2920 C2915 1.350 . S
C2921 H2908 0.929 . S
C2921 C2913 1.433 . S
C2921 N2923 1.384 . S
N2922 C2918 1.427 . S
N2922 C2919 1.384 . S
N2923 C2915 1.427 . S
N2923 C2921 1.384 . S
H2924 C2930 0.930 . S
H2925 C2934 0.930 . S
H2926 C2939 0.929 . S
H2927 C2937 0.929 . S
H2928 C2932 0.929 . S
H2929 C2938 0.929 . S
C2930 H2924 0.930 . S
C2930 C2931 1.367 . S
C2930 C2938 1.378 . S
C2931 C2930 1.367 . S
C2931 C2939 1.433 . S
C2932 H2928 0.929 . S
C2932 C2934 1.378 . S
C2932 C2936 1.350 . S
C2933 C2936 1.463 . S
C2933 C2938 1.350 . S
C2933 N2941 1.427 . S
C2934 H2925 0.930 . S
C2934 C2932 1.378 . S
C2934 C2935 1.367 . S
C2935 C2934 1.367 . S
C2935 C2937 1.433 . S
C2936 C2932 1.350 . S
C2936 C2933 1.463 . S
C2936 N2940 1.427 . S
C2937 H2927 0.929 . S
C2937 C2935 1.433 . S
C2937 N2940 1.384 . S
C2938 H2929 0.929 . S
C2938 C2930 1.378 . S
C2938 C2933 1.350 . S
C2939 H2926 0.929 . S
C2939 C2931 1.433 . S
C2939 N2941 1.384 . S
N2940 C2936 1.427 . S
N2940 C2937 1.384 . S
N2941 C2933 1.427 . S
N2941 C2939 1.384 . S
H2942 C2948 0.930 . S
H2943 C2952 0.930 . S
H2944 C2957 0.929 . S
H2945 C2955 0.929 . S
H2946 C2950 0.929 . S
H2947 C2956 0.929 . S
C2948 H2942 0.930 . S
C2948 C2949 1.367 . S
C2948 C2956 1.378 . S
C2949 C2948 1.367 . S
C2949 C2957 1.433 . S
C2950 H2946 0.929 . S
C2950 C2952 1.378 . S
C2950 C2954 1.350 . S
C2951 C2954 1.463 . S
C2951 C2956 1.350 . S
C2951 N2959 1.427 . S
C2952 H2943 0.930 . S
C2952 C2950 1.378 . S
C2952 C2953 1.367 . S
C2953 C2952 1.367 . S
C2953 C2955 1.433 . S
C2954 C2950 1.350 . S
C2954 C2951 1.463 . S
C2954 N2958 1.427 . S
C2955 H2945 0.929 . S
C2955 C2953 1.433 . S
C2955 N2958 1.384 . S
C2956 H2947 0.929 . S
C2956 C2948 1.378 . S
C2956 C2951 1.350 . S
C2957 H2944 0.929 . S
C2957 C2949 1.433 . S
C2957 N2959 1.384 . S
N2958 C2954 1.427 . S
N2958 C2955 1.384 . S
N2959 C2951 1.427 . S
N2959 C2957 1.384 . S
H2960 C2966 0.930 . S
H2961 C2970 0.930 . S
H2962 C2975 0.929 . S
H2963 C2973 0.929 . S
H2964 C2968 0.929 . S
H2965 C2974 0.929 . S
C2966 H2960 0.930 . S
C2966 C2967 1.367 . S
C2966 C2974 1.378 . S
C2967 C2966 1.367 . S
C2967 C2975 1.433 . S
C2968 H2964 0.929 . S
C2968 C2970 1.378 . S
C2968 C2972 1.350 . S
C2969 C2972 1.463 . S
C2969 C2974 1.350 . S
C2969 N2977 1.427 . S
C2970 H2961 0.930 . S
C2970 C2968 1.378 . S
C2970 C2971 1.367 . S
C2971 C2970 1.367 . S
C2971 C2973 1.433 . S
C2972 C2968 1.350 . S
C2972 C2969 1.463 . S
C2972 N2976 1.427 . S
C2973 H2963 0.929 . S
C2973 C2971 1.433 . S
C2973 N2976 1.384 . S
C2974 H2965 0.929 . S
C2974 C2966 1.378 . S
C2974 C2969 1.350 . S
C2975 H2962 0.929 . S
C2975 C2967 1.433 . S
C2975 N2977 1.384 . S
N2976 C2972 1.427 . S
N2976 C2973 1.384 . S
N2977 C2969 1.427 . S
N2977 C2975 1.384 . S
H2978 C2984 0.930 . S
H2979 C2988 0.930 . S
H2980 C2993 0.929 . S
H2981 C2991 0.929 . S
H2982 C2986 0.929 . S
H2983 C2992 0.929 . S
C2984 H2978 0.930 . S
C2984 C2985 1.367 . S
C2984 C2992 1.378 . S
C2985 C2984 1.367 . S
C2985 C2993 1.433 . S
C2986 H2982 0.929 . S
C2986 C2988 1.378 . S
C2986 C2990 1.350 . S
C2987 C2990 1.463 . S
C2987 C2992 1.350 . S
C2987 N2995 1.427 . S
C2988 H2979 0.930 . S
C2988 C2986 1.378 . S
C2988 C2989 1.367 . S
C2989 C2988 1.367 . S
C2989 C2991 1.433 . S
C2990 C2986 1.350 . S
C2990 C2987 1.463 . S
C2990 N2994 1.427 . S
C2991 H2981 0.929 . S
C2991 C2989 1.433 . S
C2991 N2994 1.384 . S
C2992 H2983 0.929 . S
C2992 C2984 1.378 . S
C2992 C2987 1.350 . S
C2993 H2980 0.929 . S
C2993 C2985 1.433 . S
C2993 N2995 1.384 . S
N2994 C2990 1.427 . S
N2994 C2991 1.384 . S
N2995 C2987 1.427 . S
N2995 C2993 1.384 . S
H2996 C3002 0.930 . S
H2997 C3006 0.930 . S
H2998 C3011 0.929 . S
H2999 C3009 0.929 . S
H3000 C3004 0.929 . S
H3001 C3010 0.929 . S
C3002 H2996 0.930 . S
C3002 C3003 1.367 . S
C3002 C3010 1.378 . S
C3003 C3002 1.367 . S
C3003 C3011 1.433 . S
C3004 H3000 0.929 . S
C3004 C3006 1.378 . S
C3004 C3008 1.350 . S
C3005 C3008 1.463 . S
C3005 C3010 1.350 . S
C3005 N3013 1.427 . S
C3006 H2997 0.930 . S
C3006 C3004 1.378 . S
C3006 C3007 1.367 . S
C3007 C3006 1.367 . S
C3007 C3009 1.433 . S
C3008 C3004 1.350 . S
C3008 C3005 1.463 . S
C3008 N3012 1.427 . S
C3009 H2999 0.929 . S
C3009 C3007 1.433 . S
C3009 N3012 1.384 . S
C3010 H3001 0.929 . S
C3010 C3002 1.378 . S
C3010 C3005 1.350 . S
C3011 H2998 0.929 . S
C3011 C3003 1.433 . S
C3011 N3013 1.384 . S
N3012 C3008 1.427 . S
N3012 C3009 1.384 . S
N3013 C3005 1.427 . S
N3013 C3011 1.384 . S
H3014 C3020 0.930 . S
H3015 C3024 0.930 . S
H3016 C3029 0.929 . S
H3017 C3027 0.929 . S
H3018 C3022 0.929 . S
H3019 C3028 0.929 . S
C3020 H3014 0.930 . S
C3020 C3021 1.367 . S
C3020 C3028 1.378 . S
C3021 C3020 1.367 . S
C3021 C3029 1.433 . S
C3022 H3018 0.929 . S
C3022 C3024 1.378 . S
C3022 C3026 1.350 . S
C3023 C3026 1.463 . S
C3023 C3028 1.350 . S
C3023 N3031 1.427 . S
C3024 H3015 0.930 . S
C3024 C3022 1.378 . S
C3024 C3025 1.367 . S
C3025 C3024 1.367 . S
C3025 C3027 1.433 . S
C3026 C3022 1.350 . S
C3026 C3023 1.463 . S
C3026 N3030 1.427 . S
C3027 H3017 0.929 . S
C3027 C3025 1.433 . S
C3027 N3030 1.384 . S
C3028 H3019 0.929 . S
C3028 C3020 1.378 . S
C3028 C3023 1.350 . S
C3029 H3016 0.929 . S
C3029 C3021 1.433 . S
C3029 N3031 1.384 . S
N3030 C3026 1.427 . S
N3030 C3027 1.384 . S
N3031 C3023 1.427 . S
N3031 C3029 1.384 . S
H3032 C3038 0.930 . S
H3033 C3042 0.930 . S
H3034 C3047 0.929 . S
H3035 C3045 0.929 . S
H3036 C3040 0.929 . S
H3037 C3046 0.929 . S
C3038 H3032 0.930 . S
C3038 C3039 1.367 . S
C3038 C3046 1.378 . S
C3039 C3038 1.367 . S
C3039 C3047 1.433 . S
C3040 H3036 0.929 . S
C3040 C3042 1.378 . S
C3040 C3044 1.350 . S
C3041 C3044 1.463 . S
C3041 C3046 1.350 . S
C3041 N3049 1.427 . S
C3042 H3033 0.930 . S
C3042 C3040 1.378 . S
C3042 C3043 1.367 . S
C3043 C3042 1.367 . S
C3043 C3045 1.433 . S
C3044 C3040 1.350 . S
C3044 C3041 1.463 . S
C3044 N3048 1.427 . S
C3045 H3035 0.929 . S
C3045 C3043 1.433 . S
C3045 N3048 1.384 . S
C3046 H3037 0.929 . S
C3046 C3038 1.378 . S
C3046 C3041 1.350 . S
C3047 H3034 0.929 . S
C3047 C3039 1.433 . S
C3047 N3049 1.384 . S
N3048 C3044 1.427 . S
N3048 C3045 1.384 . S
N3049 C3041 1.427 . S
N3049 C3047 1.384 . S
H3050 C3056 0.930 . S
H3051 C3060 0.930 . S
H3052 C3065 0.929 . S
H3053 C3063 0.929 . S
H3054 C3058 0.929 . S
H3055 C3064 0.929 . S
C3056 H3050 0.930 . S
C3056 C3057 1.367 . S
C3056 C3064 1.378 . S
C3057 C3056 1.367 . S
C3057 C3065 1.433 . S
C3058 H3054 0.929 . S
C3058 C3060 1.378 . S
C3058 C3062 1.350 . S
C3059 C3062 1.463 . S
C3059 C3064 1.350 . S
C3059 N3067 1.427 . S
C3060 H3051 0.930 . S
C3060 C3058 1.378 . S
C3060 C3061 1.367 . S
C3061 C3060 1.367 . S
C3061 C3063 1.433 . S
C3062 C3058 1.350 . S
C3062 C3059 1.463 . S
C3062 N3066 1.427 . S
C3063 H3053 0.929 . S
C3063 C3061 1.433 . S
C3063 N3066 1.384 . S
C3064 H3055 0.929 . S
C3064 C3056 1.378 . S
C3064 C3059 1.350 . S
C3065 H3052 0.929 . S
C3065 C3057 1.433 . S
C3065 N3067 1.384 . S
N3066 C3062 1.427 . S
N3066 C3063 1.384 . S
N3067 C3059 1.427 . S
N3067 C3065 1.384 . S
H3068 C3074 0.930 . S
H3069 C3078 0.930 . S
H3070 C3083 0.929 . S
H3071 C3081 0.929 . S
H3072 C3076 0.929 . S
H3073 C3082 0.929 . S
C3074 H3068 0.930 . S
C3074 C3075 1.367 . S
C3074 C3082 1.378 . S
C3075 C3074 1.367 . S
C3075 C3083 1.433 . S
C3076 H3072 0.929 . S
C3076 C3078 1.378 . S
C3076 C3080 1.350 . S
C3077 C3080 1.463 . S
C3077 C3082 1.350 . S
C3077 N3085 1.427 . S
C3078 H3069 0.930 . S
C3078 C3076 1.378 . S
C3078 C3079 1.367 . S
C3079 C3078 1.367 . S
C3079 C3081 1.433 . S
C3080 C3076 1.350 . S
C3080 C3077 1.463 . S
C3080 N3084 1.427 . S
C3081 H3071 0.929 . S
C3081 C3079 1.433 . S
C3081 N3084 1.384 . S
C3082 H3073 0.929 . S
C3082 C3074 1.378 . S
C3082 C3077 1.350 . S
C3083 H3070 0.929 . S
C3083 C3075 1.433 . S
C3083 N3085 1.384 . S
N3084 C3080 1.427 . S
N3084 C3081 1.384 . S
N3085 C3077 1.427 . S
N3085 C3083 1.384 . S
H3086 C3092 0.930 . S
H3087 C3096 0.930 . S
H3088 C3101 0.929 . S
H3089 C3099 0.929 . S
H3090 C3094 0.929 . S
H3091 C3100 0.929 . S
C3092 H3086 0.930 . S
C3092 C3093 1.367 . S
C3092 C3100 1.378 . S
C3093 C3092 1.367 . S
C3093 C3101 1.433 . S
C3094 H3090 0.929 . S
C3094 C3096 1.378 . S
C3094 C3098 1.350 . S
C3095 C3098 1.463 . S
C3095 C3100 1.350 . S
C3095 N3103 1.427 . S
C3096 H3087 0.930 . S
C3096 C3094 1.378 . S
C3096 C3097 1.367 . S
C3097 C3096 1.367 . S
C3097 C3099 1.433 . S
C3098 C3094 1.350 . S
C3098 C3095 1.463 . S
C3098 N3102 1.427 . S
C3099 H3089 0.929 . S
C3099 C3097 1.433 . S
C3099 N3102 1.384 . S
C3100 H3091 0.929 . S
C3100 C3092 1.378 . S
C3100 C3095 1.350 . S
C3101 H3088 0.929 . S
C3101 C3093 1.433 . S
C3101 N3103 1.384 . S
N3102 C3098 1.427 . S
N3102 C3099 1.384 . S
N3103 C3095 1.427 . S
N3103 C3101 1.384 . S
H3104 C3110 0.930 . S
H3105 C3114 0.930 . S
H3106 C3119 0.929 . S
H3107 C3117 0.929 . S
H3108 C3112 0.929 1_565 S
H3109 C3118 0.929 1_545 S
C3110 H3104 0.930 . S
C3110 C3111 1.367 . S
C3110 C3118 1.378 . S
C3111 C3110 1.367 . S
C3111 C3119 1.433 . S
C3112 H3108 0.929 1_545 S
C3112 C3114 1.378 . S
C3112 C3116 1.350 . S
C3113 C3116 1.463 1_565 S
C3113 C3118 1.350 . S
C3113 N3121 1.427 . S
C3114 H3105 0.930 . S
C3114 C3112 1.378 . S
C3114 C3115 1.367 . S
C3115 C3114 1.367 . S
C3115 C3117 1.433 . S
C3116 C3112 1.350 . S
C3116 C3113 1.463 1_545 S
C3116 N3120 1.427 . S
C3117 H3107 0.929 . S
C3117 C3115 1.433 . S
C3117 N3120 1.384 . S
C3118 H3109 0.929 1_565 S
C3118 C3110 1.378 . S
C3118 C3113 1.350 . S
C3119 H3106 0.929 . S
C3119 C3111 1.433 . S
C3119 N3121 1.384 . S
N3120 C3116 1.427 . S
N3120 C3117 1.384 . S
N3121 C3113 1.427 . S
N3121 C3119 1.384 . S
H3122 C3128 0.937 . S
H3123 C3132 0.931 1_655 S
H3124 C3137 0.929 . S
H3125 C3135 0.929 . S
H3126 C3130 0.929 . S
H3127 C3136 0.929 . S
C3128 H3122 0.937 . S
C3128 C3129 1.356 1_455 S
C3128 C3136 1.382 . S
C3129 C3128 1.356 1_655 S
C3129 C3137 1.433 . S
C3130 H3126 0.929 . S
C3130 C3132 1.378 1_655 S
C3130 C3134 1.350 1_655 S
C3131 C3134 1.463 1_655 S
C3131 C3136 1.350 1_655 S
C3131 N3139 1.427 . S
C3132 H3123 0.931 1_455 S
C3132 C3130 1.378 1_455 S
C3132 C3133 1.365 . S
C3133 C3132 1.365 . S
C3133 C3135 1.433 . S
C3134 C3130 1.350 1_455 S
C3134 C3131 1.463 1_455 S
C3134 N3138 1.427 . S
C3135 H3125 0.929 . S
C3135 C3133 1.433 . S
C3135 N3138 1.384 . S
C3136 H3127 0.929 . S
C3136 C3128 1.382 . S
C3136 C3131 1.350 1_455 S
C3137 H3124 0.929 . S
C3137 C3129 1.433 . S
C3137 N3139 1.384 . S
N3138 C3134 1.427 . S
N3138 C3135 1.384 . S
N3139 C3131 1.427 . S
N3139 C3137 1.384 . S
H3140 C3146 0.930 . S
H3141 C3150 0.930 . S
H3142 C3155 0.929 . S
H3143 C3153 0.929 . S
H3144 C3148 0.959 . S
H3145 C3154 0.970 . S
C3146 H3140 0.930 . S
C3146 C3147 1.367 . S
C3146 C3154 1.351 1_556 S
C3147 C3146 1.367 . S
C3147 C3155 1.433 . S
C3148 H3144 0.959 . S
C3148 C3150 1.358 1_556 S
C3148 C3152 1.339 1_556 S
C3149 C3152 1.463 1_556 S
C3149 C3154 1.336 1_556 S
C3149 N3157 1.427 . S
C3150 H3141 0.930 . S
C3150 C3148 1.358 1_554 S
C3150 C3151 1.367 . S
C3151 C3150 1.367 . S
C3151 C3153 1.433 . S
C3152 C3148 1.339 1_554 S
C3152 C3149 1.463 1_554 S
C3152 N3156 1.427 . S
C3153 H3143 0.929 . S
C3153 C3151 1.433 . S
C3153 N3156 1.384 . S
C3154 H3145 0.970 . S
C3154 C3146 1.351 1_554 S
C3154 C3149 1.336 1_554 S
C3155 H3142 0.929 . S
C3155 C3147 1.433 . S
C3155 N3157 1.384 . S
N3156 C3152 1.427 . S
N3156 C3153 1.384 . S
N3157 C3149 1.427 . S
N3157 C3155 1.384 . S
H3158 C3164 0.930 . S
H3159 C3168 0.930 . S
H3160 C3173 0.929 . S
H3161 C3171 0.929 . S
H3162 C3166 0.929 1_556 S
H3163 C3172 0.929 1_554 S
C3164 H3158 0.930 . S
C3164 C3165 1.367 1_655 S
C3164 C3172 1.378 . S
C3165 C3164 1.367 1_455 S
C3165 C3173 1.433 . S
C3166 H3162 0.929 1_554 S
C3166 C3168 1.378 . S
C3166 C3170 1.350 1_455 S
C3167 C3170 1.463 1_446 S
C3167 C3172 1.350 1_455 S
C3167 N3175 1.427 . S
C3168 H3159 0.930 . S
C3168 C3166 1.378 . S
C3168 C3169 1.367 1_455 S
C3169 C3168 1.367 1_655 S
C3169 C3171 1.433 . S
C3170 C3166 1.350 1_655 S
C3170 C3167 1.463 1_664 S
C3170 N3174 1.427 . S
C3171 H3161 0.929 . S
C3171 C3169 1.433 . S
C3171 N3174 1.384 . S
C3172 H3163 0.929 1_556 S
C3172 C3164 1.378 . S
C3172 C3167 1.350 1_655 S
C3173 H3160 0.929 . S
C3173 C3165 1.433 . S
C3173 N3175 1.384 . S
N3174 C3170 1.427 . S
N3174 C3171 1.384 . S
N3175 C3167 1.427 . S
N3175 C3173 1.384 . S
H3176 C3182 0.930 . S
H3177 C3186 0.930 . S
H3178 C3191 0.929 . S
H3179 C3189 0.929 . S
H3180 C3184 0.929 . S
H3181 C3190 0.929 . S
C3182 H3176 0.930 . S
C3182 C3183 1.367 . S
C3182 C3190 1.378 . S
C3183 C3182 1.367 . S
C3183 C3191 1.433 . S
C3184 H3180 0.929 . S
C3184 C3186 1.378 . S
C3184 C3188 1.350 . S
C3185 C3188 1.463 1_545 S
C3185 C3190 1.350 . S
C3185 N3193 1.427 . S
C3186 H3177 0.930 . S
C3186 C3184 1.378 . S
C3186 C3187 1.367 . S
C3187 C3186 1.367 . S
C3187 C3189 1.433 . S
C3188 C3184 1.350 . S
C3188 C3185 1.463 1_565 S
C3188 N3192 1.427 . S
C3189 H3179 0.929 . S
C3189 C3187 1.433 . S
C3189 N3192 1.384 . S
C3190 H3181 0.929 . S
C3190 C3182 1.378 . S
C3190 C3185 1.350 . S
C3191 H3178 0.929 . S
C3191 C3183 1.433 . S
C3191 N3193 1.384 . S
N3192 C3188 1.427 . S
N3192 C3189 1.384 . S
N3193 C3185 1.427 . S
N3193 C3191 1.384 . S
H3194 C3200 0.930 . S
H3195 C3204 0.930 . S
H3196 C3209 0.929 . S
H3197 C3207 0.929 . S
H3198 C3202 0.929 . S
H3199 C3208 0.929 . S
C3200 H3194 0.930 . S
C3200 C3201 1.367 1_655 S
C3200 C3208 1.378 . S
C3201 C3200 1.367 1_455 S
C3201 C3209 1.433 . S
C3202 H3198 0.929 . S
C3202 C3204 1.378 . S
C3202 C3206 1.350 1_455 S
C3203 C3206 1.463 1_455 S
C3203 C3208 1.350 1_455 S
C3203 N3211 1.427 . S
C3204 H3195 0.930 . S
C3204 C3202 1.378 . S
C3204 C3205 1.367 1_455 S
C3205 C3204 1.367 1_655 S
C3205 C3207 1.433 . S
C3206 C3202 1.350 1_655 S
C3206 C3203 1.463 1_655 S
C3206 N3210 1.427 . S
C3207 H3197 0.929 . S
C3207 C3205 1.433 . S
C3207 N3210 1.384 . S
C3208 H3199 0.929 . S
C3208 C3200 1.378 . S
C3208 C3203 1.350 1_655 S
C3209 H3196 0.929 . S
C3209 C3201 1.433 . S
C3209 N3211 1.384 . S
N3210 C3206 1.427 . S
N3210 C3207 1.384 . S
N3211 C3203 1.427 . S
N3211 C3209 1.384 . S
H3212 C3218 0.930 . S
H3213 C3222 0.930 . S
H3214 C3227 0.929 . S
H3215 C3225 0.929 . S
H3216 C3220 0.929 . S
H3217 C3226 0.929 . S
C3218 H3212 0.930 . S
C3218 C3219 1.367 . S
C3218 C3226 1.378 . S
C3219 C3218 1.367 . S
C3219 C3227 1.433 . S
C3220 H3216 0.929 . S
C3220 C3222 1.378 . S
C3220 C3224 1.350 . S
C3221 C3224 1.463 1_556 S
C3221 C3226 1.350 . S
C3221 N3229 1.427 . S
C3222 H3213 0.930 . S
C3222 C3220 1.378 . S
C3222 C3223 1.367 . S
C3223 C3222 1.367 . S
C3223 C3225 1.433 . S
C3224 C3220 1.350 . S
C3224 C3221 1.463 1_554 S
C3224 N3228 1.427 . S
C3225 H3215 0.929 . S
C3225 C3223 1.433 . S
C3225 N3228 1.384 . S
C3226 H3217 0.929 . S
C3226 C3218 1.378 . S
C3226 C3221 1.350 . S
C3227 H3214 0.929 . S
C3227 C3219 1.433 . S
C3227 N3229 1.384 . S
N3228 C3224 1.427 . S
N3228 C3225 1.384 . S
N3229 C3221 1.427 . S
N3229 C3227 1.384 . S
H3230 C3236 0.930 . S
H3231 C3240 0.930 . S
H3232 C3245 0.929 . S
H3233 C3243 0.929 . S
H3234 C3238 0.929 . S
H3235 C3244 0.929 . S
C3236 H3230 0.930 . S
C3236 C3237 1.367 . S
C3236 C3244 1.378 . S
C3237 C3236 1.367 . S
C3237 C3245 1.433 . S
C3238 H3234 0.929 . S
C3238 C3240 1.378 . S
C3238 C3242 1.350 . S
C3239 C3242 1.463 . S
C3239 C3244 1.350 . S
C3239 N3247 1.427 . S
C3240 H3231 0.930 . S
C3240 C3238 1.378 . S
C3240 C3241 1.367 . S
C3241 C3240 1.367 . S
C3241 C3243 1.433 . S
C3242 C3238 1.350 . S
C3242 C3239 1.463 . S
C3242 N3246 1.427 . S
C3243 H3233 0.929 . S
C3243 C3241 1.433 . S
C3243 N3246 1.384 . S
C3244 H3235 0.929 . S
C3244 C3236 1.378 . S
C3244 C3239 1.350 . S
C3245 H3232 0.929 . S
C3245 C3237 1.433 . S
C3245 N3247 1.384 . S
N3246 C3242 1.427 . S
N3246 C3243 1.384 . S
N3247 C3239 1.427 . S
N3247 C3245 1.384 . S
H3248 C3254 0.930 . S
H3249 C3258 0.930 . S
H3250 C3263 0.929 . S
H3251 C3261 0.929 . S
H3252 C3256 0.929 . S
H3253 C3262 0.929 . S
C3254 H3248 0.930 . S
C3254 C3255 1.367 . S
C3254 C3262 1.378 . S
C3255 C3254 1.367 . S
C3255 C3263 1.433 . S
C3256 H3252 0.929 . S
C3256 C3258 1.378 . S
C3256 C3260 1.350 . S
C3257 C3260 1.463 . S
C3257 C3262 1.350 . S
C3257 N3265 1.427 . S
C3258 H3249 0.930 . S
C3258 C3256 1.378 . S
C3258 C3259 1.367 . S
C3259 C3258 1.367 . S
C3259 C3261 1.433 . S
C3260 C3256 1.350 . S
C3260 C3257 1.463 . S
C3260 N3264 1.427 . S
C3261 H3251 0.929 . S
C3261 C3259 1.433 . S
C3261 N3264 1.384 . S
C3262 H3253 0.929 . S
C3262 C3254 1.378 . S
C3262 C3257 1.350 . S
C3263 H3250 0.929 . S
C3263 C3255 1.433 . S
C3263 N3265 1.384 . S
N3264 C3260 1.427 . S
N3264 C3261 1.384 . S
N3265 C3257 1.427 . S
N3265 C3263 1.384 . S
H3266 C3272 0.930 . S
H3267 C3276 0.930 . S
H3268 C3281 0.929 . S
H3269 C3279 0.929 . S
H3270 C3274 0.926 1_655 S
H3271 C3280 0.931 . S
C3272 H3266 0.930 . S
C3272 C3273 1.367 . S
C3272 C3280 1.376 1_655 S
C3273 C3272 1.367 . S
C3273 C3281 1.433 . S
C3274 H3270 0.926 1_455 S
C3274 C3276 1.379 . S
C3274 C3278 1.351 . S
C3275 C3278 1.463 1_655 S
C3275 C3280 1.349 1_655 S
C3275 N3283 1.427 . S
C3276 H3267 0.930 . S
C3276 C3274 1.379 . S
C3276 C3277 1.367 . S
C3277 C3276 1.367 . S
C3277 C3279 1.433 . S
C3278 C3274 1.351 . S
C3278 C3275 1.463 1_455 S
C3278 N3282 1.427 . S
C3279 H3269 0.929 . S
C3279 C3277 1.433 . S
C3279 N3282 1.384 . S
C3280 H3271 0.931 . S
C3280 C3272 1.376 1_455 S
C3280 C3275 1.349 1_455 S
C3281 H3268 0.929 . S
C3281 C3273 1.433 . S
C3281 N3283 1.384 . S
N3282 C3278 1.427 . S
N3282 C3279 1.384 . S
N3283 C3275 1.427 . S
N3283 C3281 1.384 . S
H3284 C3290 0.930 . S
H3285 C3294 0.930 . S
H3286 C3299 0.929 . S
H3287 C3297 0.929 . S
H3288 C3292 0.929 . S
H3289 C3298 0.929 . S
C3290 H3284 0.930 . S
C3290 C3291 1.367 . S
C3290 C3298 1.378 . S
C3291 C3290 1.367 . S
C3291 C3299 1.433 . S
C3292 H3288 0.929 . S
C3292 C3294 1.378 . S
C3292 C3296 1.350 . S
C3293 C3296 1.463 . S
C3293 C3298 1.350 . S
C3293 N3301 1.427 . S
C3294 H3285 0.930 . S
C3294 C3292 1.378 . S
C3294 C3295 1.367 . S
C3295 C3294 1.367 . S
C3295 C3297 1.433 . S
C3296 C3292 1.350 . S
C3296 C3293 1.463 . S
C3296 N3300 1.427 . S
C3297 H3287 0.929 . S
C3297 C3295 1.433 . S
C3297 N3300 1.384 . S
C3298 H3289 0.929 . S
C3298 C3290 1.378 . S
C3298 C3293 1.350 . S
C3299 H3286 0.929 . S
C3299 C3291 1.433 . S
C3299 N3301 1.384 . S
N3300 C3296 1.427 . S
N3300 C3297 1.384 . S
N3301 C3293 1.427 . S
N3301 C3299 1.384 . S
H3302 C3308 0.930 . S
H3303 C3312 0.930 . S
H3304 C3317 0.929 . S
H3305 C3315 0.929 . S
H3306 C3310 0.929 . S
H3307 C3316 0.929 . S
C3308 H3302 0.930 . S
C3308 C3309 1.367 . S
C3308 C3316 1.378 . S
C3309 C3308 1.367 . S
C3309 C3317 1.433 . S
C3310 H3306 0.929 . S
C3310 C3312 1.378 . S
C3310 C3314 1.350 . S
C3311 C3314 1.463 . S
C3311 C3316 1.350 . S
C3311 N3319 1.427 . S
C3312 H3303 0.930 . S
C3312 C3310 1.378 . S
C3312 C3313 1.367 . S
C3313 C3312 1.367 . S
C3313 C3315 1.433 . S
C3314 C3310 1.350 . S
C3314 C3311 1.463 . S
C3314 N3318 1.427 . S
C3315 H3305 0.929 . S
C3315 C3313 1.433 . S
C3315 N3318 1.384 . S
C3316 H3307 0.929 . S
C3316 C3308 1.378 . S
C3316 C3311 1.350 . S
C3317 H3304 0.929 . S
C3317 C3309 1.433 . S
C3317 N3319 1.384 . S
N3318 C3314 1.427 . S
N3318 C3315 1.384 . S
N3319 C3311 1.427 . S
N3319 C3317 1.384 . S
H3320 C3326 0.930 . S
H3321 C3330 0.930 . S
H3322 C3335 0.929 . S
H3323 C3333 0.929 . S
H3324 C3328 0.929 . S
H3325 C3334 0.929 . S
C3326 H3320 0.930 . S
C3326 C3327 1.367 . S
C3326 C3334 1.378 . S
C3327 C3326 1.367 . S
C3327 C3335 1.433 . S
C3328 H3324 0.929 . S
C3328 C3330 1.378 . S
C3328 C3332 1.350 . S
C3329 C3332 1.463 . S
C3329 C3334 1.350 . S
C3329 N3337 1.427 . S
C3330 H3321 0.930 . S
C3330 C3328 1.378 . S
C3330 C3331 1.367 . S
C3331 C3330 1.367 . S
C3331 C3333 1.433 . S
C3332 C3328 1.350 . S
C3332 C3329 1.463 . S
C3332 N3336 1.427 . S
C3333 H3323 0.929 . S
C3333 C3331 1.433 . S
C3333 N3336 1.384 . S
C3334 H3325 0.929 . S
C3334 C3326 1.378 . S
C3334 C3329 1.350 . S
C3335 H3322 0.929 . S
C3335 C3327 1.433 . S
C3335 N3337 1.384 . S
N3336 C3332 1.427 . S
N3336 C3333 1.384 . S
N3337 C3329 1.427 . S
N3337 C3335 1.384 . S
H3338 C3344 0.930 . S
H3339 C3348 0.930 . S
H3340 C3353 0.929 . S
H3341 C3351 0.929 . S
H3342 C3346 0.929 . S
H3343 C3352 0.929 . S
C3344 H3338 0.930 . S
C3344 C3345 1.367 . S
C3344 C3352 1.378 . S
C3345 C3344 1.367 . S
C3345 C3353 1.433 . S
C3346 H3342 0.929 . S
C3346 C3348 1.378 . S
C3346 C3350 1.350 . S
C3347 C3350 1.463 1_545 S
C3347 C3352 1.350 . S
C3347 N3355 1.427 . S
C3348 H3339 0.930 . S
C3348 C3346 1.378 . S
C3348 C3349 1.367 . S
C3349 C3348 1.367 . S
C3349 C3351 1.433 . S
C3350 C3346 1.350 . S
C3350 C3347 1.463 1_565 S
C3350 N3354 1.427 . S
C3351 H3341 0.929 . S
C3351 C3349 1.433 . S
C3351 N3354 1.384 . S
C3352 H3343 0.929 . S
C3352 C3344 1.378 . S
C3352 C3347 1.350 . S
C3353 H3340 0.929 . S
C3353 C3345 1.433 . S
C3353 N3355 1.384 . S
N3354 C3350 1.427 . S
N3354 C3351 1.384 . S
N3355 C3347 1.427 . S
N3355 C3353 1.384 . S
H3356 C3362 0.930 . S
H3357 C3366 0.930 . S
H3358 C3371 0.929 . S
H3359 C3369 0.929 . S
H3360 C3364 0.929 . S
H3361 C3370 0.929 . S
C3362 H3356 0.930 . S
C3362 C3363 1.367 . S
C3362 C3370 1.378 . S
C3363 C3362 1.367 . S
C3363 C3371 1.433 . S
C3364 H3360 0.929 . S
C3364 C3366 1.378 . S
C3364 C3368 1.350 . S
C3365 C3368 1.463 . S
C3365 C3370 1.350 . S
C3365 N3373 1.427 . S
C3366 H3357 0.930 . S
C3366 C3364 1.378 . S
C3366 C3367 1.367 . S
C3367 C3366 1.367 . S
C3367 C3369 1.433 . S
C3368 C3364 1.350 . S
C3368 C3365 1.463 . S
C3368 N3372 1.427 . S
C3369 H3359 0.929 . S
C3369 C3367 1.433 . S
C3369 N3372 1.384 . S
C3370 H3361 0.929 . S
C3370 C3362 1.378 . S
C3370 C3365 1.350 . S
C3371 H3358 0.929 . S
C3371 C3363 1.433 . S
C3371 N3373 1.384 . S
N3372 C3368 1.427 . S
N3372 C3369 1.384 . S
N3373 C3365 1.427 . S
N3373 C3371 1.384 . S
H3374 C3380 0.930 . S
H3375 C3384 0.930 . S
H3376 C3389 0.929 . S
H3377 C3387 0.929 . S
H3378 C3382 0.929 . S
H3379 C3388 0.929 . S
C3380 H3374 0.930 . S
C3380 C3381 1.367 . S
C3380 C3388 1.378 . S
C3381 C3380 1.367 . S
C3381 C3389 1.433 . S
C3382 H3378 0.929 . S
C3382 C3384 1.378 . S
C3382 C3386 1.350 . S
C3383 C3386 1.463 1_554 S
C3383 C3388 1.350 . S
C3383 N3391 1.427 . S
C3384 H3375 0.930 . S
C3384 C3382 1.378 . S
C3384 C3385 1.367 . S
C3385 C3384 1.367 . S
C3385 C3387 1.433 . S
C3386 C3382 1.350 . S
C3386 C3383 1.463 1_556 S
C3386 N3390 1.427 . S
C3387 H3377 0.929 . S
C3387 C3385 1.433 . S
C3387 N3390 1.384 . S
C3388 H3379 0.929 . S
C3388 C3380 1.378 . S
C3388 C3383 1.350 . S
C3389 H3376 0.929 . S
C3389 C3381 1.433 . S
C3389 N3391 1.384 . S
N3390 C3386 1.427 . S
N3390 C3387 1.384 . S
N3391 C3383 1.427 . S
N3391 C3389 1.384 . S
H3392 C3398 0.930 . S
H3393 C3402 0.930 . S
H3394 C3407 0.929 . S
H3395 C3405 0.929 . S
H3396 C3400 0.929 . S
H3397 C3406 0.929 . S
C3398 H3392 0.930 . S
C3398 C3399 1.367 . S
C3398 C3406 1.378 . S
C3399 C3398 1.367 . S
C3399 C3407 1.433 . S
C3400 H3396 0.929 . S
C3400 C3402 1.378 . S
C3400 C3404 1.350 . S
C3401 C3404 1.463 . S
C3401 C3406 1.350 . S
C3401 N3409 1.427 . S
C3402 H3393 0.930 . S
C3402 C3400 1.378 . S
C3402 C3403 1.367 . S
C3403 C3402 1.367 . S
C3403 C3405 1.433 . S
C3404 C3400 1.350 . S
C3404 C3401 1.463 . S
C3404 N3408 1.427 . S
C3405 H3395 0.929 . S
C3405 C3403 1.433 . S
C3405 N3408 1.384 . S
C3406 H3397 0.929 . S
C3406 C3398 1.378 . S
C3406 C3401 1.350 . S
C3407 H3394 0.929 . S
C3407 C3399 1.433 . S
C3407 N3409 1.384 . S
N3408 C3404 1.427 . S
N3408 C3405 1.384 . S
N3409 C3401 1.427 . S
N3409 C3407 1.384 . S
H3410 C3416 0.930 . S
H3411 C3420 0.930 . S
H3412 C3425 0.929 . S
H3413 C3423 0.929 . S
H3414 C3418 0.929 . S
H3415 C3424 0.929 . S
C3416 H3410 0.930 . S
C3416 C3417 1.367 . S
C3416 C3424 1.378 . S
C3417 C3416 1.367 . S
C3417 C3425 1.433 . S
C3418 H3414 0.929 . S
C3418 C3420 1.378 . S
C3418 C3422 1.350 . S
C3419 C3422 1.463 . S
C3419 C3424 1.350 . S
C3419 N3427 1.427 . S
C3420 H3411 0.930 . S
C3420 C3418 1.378 . S
C3420 C3421 1.367 . S
C3421 C3420 1.367 . S
C3421 C3423 1.433 . S
C3422 C3418 1.350 . S
C3422 C3419 1.463 . S
C3422 N3426 1.427 . S
C3423 H3413 0.929 . S
C3423 C3421 1.433 . S
C3423 N3426 1.384 . S
C3424 H3415 0.929 . S
C3424 C3416 1.378 . S
C3424 C3419 1.350 . S
C3425 H3412 0.929 . S
C3425 C3417 1.433 . S
C3425 N3427 1.384 . S
N3426 C3422 1.427 . S
N3426 C3423 1.384 . S
N3427 C3419 1.427 . S
N3427 C3425 1.384 . S
H3428 C3434 0.930 . S
H3429 C3438 0.930 . S
H3430 C3443 0.929 . S
H3431 C3441 0.929 . S
H3432 C3436 0.929 . S
H3433 C3442 0.929 . S
C3434 H3428 0.930 . S
C3434 C3435 1.367 . S
C3434 C3442 1.378 . S
C3435 C3434 1.367 . S
C3435 C3443 1.433 . S
C3436 H3432 0.929 . S
C3436 C3438 1.378 . S
C3436 C3440 1.350 . S
C3437 C3440 1.463 . S
C3437 C3442 1.350 . S
C3437 N3445 1.427 . S
C3438 H3429 0.930 . S
C3438 C3436 1.378 . S
C3438 C3439 1.367 . S
C3439 C3438 1.367 . S
C3439 C3441 1.433 . S
C3440 C3436 1.350 . S
C3440 C3437 1.463 . S
C3440 N3444 1.427 . S
C3441 H3431 0.929 . S
C3441 C3439 1.433 . S
C3441 N3444 1.384 . S
C3442 H3433 0.929 . S
C3442 C3434 1.378 . S
C3442 C3437 1.350 . S
C3443 H3430 0.929 . S
C3443 C3435 1.433 . S
C3443 N3445 1.384 . S
N3444 C3440 1.427 . S
N3444 C3441 1.384 . S
N3445 C3437 1.427 . S
N3445 C3443 1.384 . S
H3446 C3452 0.930 . S
H3447 C3456 0.930 . S
H3448 C3461 0.929 . S
H3449 C3459 0.929 . S
H3450 C3454 0.929 . S
H3451 C3460 0.929 . S
C3452 H3446 0.930 . S
C3452 C3453 1.367 . S
C3452 C3460 1.378 . S
C3453 C3452 1.367 . S
C3453 C3461 1.433 . S
C3454 H3450 0.929 . S
C3454 C3456 1.378 . S
C3454 C3458 1.350 . S
C3455 C3458 1.463 . S
C3455 C3460 1.350 . S
C3455 N3463 1.427 . S
C3456 H3447 0.930 . S
C3456 C3454 1.378 . S
C3456 C3457 1.367 . S
C3457 C3456 1.367 . S
C3457 C3459 1.433 . S
C3458 C3454 1.350 . S
C3458 C3455 1.463 . S
C3458 N3462 1.427 . S
C3459 H3449 0.929 . S
C3459 C3457 1.433 . S
C3459 N3462 1.384 . S
C3460 H3451 0.929 . S
C3460 C3452 1.378 . S
C3460 C3455 1.350 . S
C3461 H3448 0.929 . S
C3461 C3453 1.433 . S
C3461 N3463 1.384 . S
N3462 C3458 1.427 . S
N3462 C3459 1.384 . S
N3463 C3455 1.427 . S
N3463 C3461 1.384 . S
H3464 C3470 0.930 . S
H3465 C3474 0.930 . S
H3466 C3479 0.929 . S
H3467 C3477 0.929 . S
H3468 C3472 0.929 . S
H3469 C3478 0.929 . S
C3470 H3464 0.930 . S
C3470 C3471 1.367 . S
C3470 C3478 1.378 . S
C3471 C3470 1.367 . S
C3471 C3479 1.433 . S
C3472 H3468 0.929 . S
C3472 C3474 1.378 . S
C3472 C3476 1.350 . S
C3473 C3476 1.463 . S
C3473 C3478 1.350 . S
C3473 N3481 1.427 . S
C3474 H3465 0.930 . S
C3474 C3472 1.378 . S
C3474 C3475 1.367 . S
C3475 C3474 1.367 . S
C3475 C3477 1.433 . S
C3476 C3472 1.350 . S
C3476 C3473 1.463 . S
C3476 N3480 1.427 . S
C3477 H3467 0.929 . S
C3477 C3475 1.433 . S
C3477 N3480 1.384 . S
C3478 H3469 0.929 . S
C3478 C3470 1.378 . S
C3478 C3473 1.350 . S
C3479 H3466 0.929 . S
C3479 C3471 1.433 . S
C3479 N3481 1.384 . S
N3480 C3476 1.427 . S
N3480 C3477 1.384 . S
N3481 C3473 1.427 . S
N3481 C3479 1.384 . S
H3482 C3488 0.930 . S
H3483 C3492 0.930 . S
H3484 C3497 0.929 . S
H3485 C3495 0.929 . S
H3486 C3490 0.929 . S
H3487 C3496 0.929 . S
C3488 H3482 0.930 . S
C3488 C3489 1.367 . S
C3488 C3496 1.378 . S
C3489 C3488 1.367 . S
C3489 C3497 1.433 . S
C3490 H3486 0.929 . S
C3490 C3492 1.378 . S
C3490 C3494 1.350 . S
C3491 C3494 1.463 . S
C3491 C3496 1.350 . S
C3491 N3499 1.427 . S
C3492 H3483 0.930 . S
C3492 C3490 1.378 . S
C3492 C3493 1.367 . S
C3493 C3492 1.367 . S
C3493 C3495 1.433 . S
C3494 C3490 1.350 . S
C3494 C3491 1.463 . S
C3494 N3498 1.427 . S
C3495 H3485 0.929 . S
C3495 C3493 1.433 . S
C3495 N3498 1.384 . S
C3496 H3487 0.929 . S
C3496 C3488 1.378 . S
C3496 C3491 1.350 . S
C3497 H3484 0.929 . S
C3497 C3489 1.433 . S
C3497 N3499 1.384 . S
N3498 C3494 1.427 . S
N3498 C3495 1.384 . S
N3499 C3491 1.427 . S
N3499 C3497 1.384 . S
H3500 C3506 0.930 . S
H3501 C3510 0.930 . S
H3502 C3515 0.929 . S
H3503 C3513 0.929 . S
H3504 C3508 0.929 . S
H3505 C3514 0.929 . S
C3506 H3500 0.930 . S
C3506 C3507 1.367 . S
C3506 C3514 1.378 . S
C3507 C3506 1.367 . S
C3507 C3515 1.433 . S
C3508 H3504 0.929 . S
C3508 C3510 1.378 . S
C3508 C3512 1.350 . S
C3509 C3512 1.463 . S
C3509 C3514 1.350 . S
C3509 N3517 1.427 . S
C3510 H3501 0.930 . S
C3510 C3508 1.378 . S
C3510 C3511 1.367 . S
C3511 C3510 1.367 . S
C3511 C3513 1.433 . S
C3512 C3508 1.350 . S
C3512 C3509 1.463 . S
C3512 N3516 1.427 . S
C3513 H3503 0.929 . S
C3513 C3511 1.433 . S
C3513 N3516 1.384 . S
C3514 H3505 0.929 . S
C3514 C3506 1.378 . S
C3514 C3509 1.350 . S
C3515 H3502 0.929 . S
C3515 C3507 1.433 . S
C3515 N3517 1.384 . S
N3516 C3512 1.427 . S
N3516 C3513 1.384 . S
N3517 C3509 1.427 . S
N3517 C3515 1.384 . S
H3518 C3524 0.930 . S
H3519 C3528 0.930 . S
H3520 C3533 0.929 . S
H3521 C3531 0.929 . S
H3522 C3526 0.929 . S
H3523 C3532 0.929 . S
C3524 H3518 0.930 . S
C3524 C3525 1.367 . S
C3524 C3532 1.378 . S
C3525 C3524 1.367 . S
C3525 C3533 1.433 . S
C3526 H3522 0.929 . S
C3526 C3528 1.378 . S
C3526 C3530 1.350 . S
C3527 C3530 1.463 . S
C3527 C3532 1.350 . S
C3527 N3535 1.427 . S
C3528 H3519 0.930 . S
C3528 C3526 1.378 . S
C3528 C3529 1.367 . S
C3529 C3528 1.367 . S
C3529 C3531 1.433 . S
C3530 C3526 1.350 . S
C3530 C3527 1.463 . S
C3530 N3534 1.427 . S
C3531 H3521 0.929 . S
C3531 C3529 1.433 . S
C3531 N3534 1.384 . S
C3532 H3523 0.929 . S
C3532 C3524 1.378 . S
C3532 C3527 1.350 . S
C3533 H3520 0.929 . S
C3533 C3525 1.433 . S
C3533 N3535 1.384 . S
N3534 C3530 1.427 . S
N3534 C3531 1.384 . S
N3535 C3527 1.427 . S
N3535 C3533 1.384 . S
H3536 C3542 0.930 . S
H3537 C3546 0.930 . S
H3538 C3551 0.929 . S
H3539 C3549 0.929 . S
H3540 C3544 0.929 . S
H3541 C3550 0.929 . S
C3542 H3536 0.930 . S
C3542 C3543 1.367 . S
C3542 C3550 1.378 . S
C3543 C3542 1.367 . S
C3543 C3551 1.433 . S
C3544 H3540 0.929 . S
C3544 C3546 1.378 . S
C3544 C3548 1.350 . S
C3545 C3548 1.463 . S
C3545 C3550 1.350 . S
C3545 N3553 1.427 . S
C3546 H3537 0.930 . S
C3546 C3544 1.378 . S
C3546 C3547 1.367 . S
C3547 C3546 1.367 . S
C3547 C3549 1.433 . S
C3548 C3544 1.350 . S
C3548 C3545 1.463 . S
C3548 N3552 1.427 . S
C3549 H3539 0.929 . S
C3549 C3547 1.433 . S
C3549 N3552 1.384 . S
C3550 H3541 0.929 . S
C3550 C3542 1.378 . S
C3550 C3545 1.350 . S
C3551 H3538 0.929 . S
C3551 C3543 1.433 . S
C3551 N3553 1.384 . S
N3552 C3548 1.427 . S
N3552 C3549 1.384 . S
N3553 C3545 1.427 . S
N3553 C3551 1.384 . S
H3554 C3560 0.930 . S
H3555 C3564 0.930 . S
H3556 C3569 0.929 . S
H3557 C3567 0.929 . S
H3558 C3562 0.929 . S
H3559 C3568 0.929 . S
C3560 H3554 0.930 . S
C3560 C3561 1.367 . S
C3560 C3568 1.378 . S
C3561 C3560 1.367 . S
C3561 C3569 1.433 . S
C3562 H3558 0.929 . S
C3562 C3564 1.378 . S
C3562 C3566 1.350 . S
C3563 C3566 1.463 . S
C3563 C3568 1.350 . S
C3563 N3571 1.427 . S
C3564 H3555 0.930 . S
C3564 C3562 1.378 . S
C3564 C3565 1.367 . S
C3565 C3564 1.367 . S
C3565 C3567 1.433 . S
C3566 C3562 1.350 . S
C3566 C3563 1.463 . S
C3566 N3570 1.427 . S
C3567 H3557 0.929 . S
C3567 C3565 1.433 . S
C3567 N3570 1.384 . S
C3568 H3559 0.929 . S
C3568 C3560 1.378 . S
C3568 C3563 1.350 . S
C3569 H3556 0.929 . S
C3569 C3561 1.433 . S
C3569 N3571 1.384 . S
N3570 C3566 1.427 . S
N3570 C3567 1.384 . S
N3571 C3563 1.427 . S
N3571 C3569 1.384 . S
H3572 C3578 0.930 . S
H3573 C3582 0.930 . S
H3574 C3587 0.929 . S
H3575 C3585 0.929 . S
H3576 C3580 0.929 . S
H3577 C3586 0.929 . S
C3578 H3572 0.930 . S
C3578 C3579 1.367 . S
C3578 C3586 1.378 . S
C3579 C3578 1.367 . S
C3579 C3587 1.433 . S
C3580 H3576 0.929 . S
C3580 C3582 1.378 . S
C3580 C3584 1.350 . S
C3581 C3584 1.463 . S
C3581 C3586 1.350 . S
C3581 N3589 1.427 . S
C3582 H3573 0.930 . S
C3582 C3580 1.378 . S
C3582 C3583 1.367 . S
C3583 C3582 1.367 . S
C3583 C3585 1.433 . S
C3584 C3580 1.350 . S
C3584 C3581 1.463 . S
C3584 N3588 1.427 . S
C3585 H3575 0.929 . S
C3585 C3583 1.433 . S
C3585 N3588 1.384 . S
C3586 H3577 0.929 . S
C3586 C3578 1.378 . S
C3586 C3581 1.350 . S
C3587 H3574 0.929 . S
C3587 C3579 1.433 . S
C3587 N3589 1.384 . S
N3588 C3584 1.427 . S
N3588 C3585 1.384 . S
N3589 C3581 1.427 . S
N3589 C3587 1.384 . S
H3590 C3596 0.930 . S
H3591 C3600 0.930 . S
H3592 C3605 0.929 . S
H3593 C3603 0.929 . S
H3594 C3598 0.929 . S
H3595 C3604 0.929 . S
C3596 H3590 0.930 . S
C3596 C3597 1.367 . S
C3596 C3604 1.378 . S
C3597 C3596 1.367 . S
C3597 C3605 1.433 . S
C3598 H3594 0.929 . S
C3598 C3600 1.378 . S
C3598 C3602 1.350 . S
C3599 C3602 1.463 . S
C3599 C3604 1.350 . S
C3599 N3607 1.427 . S
C3600 H3591 0.930 . S
C3600 C3598 1.378 . S
C3600 C3601 1.367 . S
C3601 C3600 1.367 . S
C3601 C3603 1.433 . S
C3602 C3598 1.350 . S
C3602 C3599 1.463 . S
C3602 N3606 1.427 . S
C3603 H3593 0.929 . S
C3603 C3601 1.433 . S
C3603 N3606 1.384 . S
C3604 H3595 0.929 . S
C3604 C3596 1.378 . S
C3604 C3599 1.350 . S
C3605 H3592 0.929 . S
C3605 C3597 1.433 . S
C3605 N3607 1.384 . S
N3606 C3602 1.427 . S
N3606 C3603 1.384 . S
N3607 C3599 1.427 . S
N3607 C3605 1.384 . S
H3608 C3614 0.930 . S
H3609 C3618 0.930 . S
H3610 C3623 0.929 . S
H3611 C3621 0.929 . S
H3612 C3616 0.929 . S
H3613 C3622 0.929 . S
C3614 H3608 0.930 . S
C3614 C3615 1.367 . S
C3614 C3622 1.378 . S
C3615 C3614 1.367 . S
C3615 C3623 1.433 . S
C3616 H3612 0.929 . S
C3616 C3618 1.378 . S
C3616 C3620 1.350 . S
C3617 C3620 1.463 . S
C3617 C3622 1.350 . S
C3617 N3625 1.427 . S
C3618 H3609 0.930 . S
C3618 C3616 1.378 . S
C3618 C3619 1.367 . S
C3619 C3618 1.367 . S
C3619 C3621 1.433 . S
C3620 C3616 1.350 . S
C3620 C3617 1.463 . S
C3620 N3624 1.427 . S
C3621 H3611 0.929 . S
C3621 C3619 1.433 . S
C3621 N3624 1.384 . S
C3622 H3613 0.929 . S
C3622 C3614 1.378 . S
C3622 C3617 1.350 . S
C3623 H3610 0.929 . S
C3623 C3615 1.433 . S
C3623 N3625 1.384 . S
N3624 C3620 1.427 . S
N3624 C3621 1.384 . S
N3625 C3617 1.427 . S
N3625 C3623 1.384 . S
H3626 C3632 0.930 . S
H3627 C3636 0.930 . S
H3628 C3641 0.929 . S
H3629 C3639 0.929 . S
H3630 C3634 0.929 . S
H3631 C3640 0.929 . S
C3632 H3626 0.930 . S
C3632 C3633 1.367 . S
C3632 C3640 1.378 . S
C3633 C3632 1.367 . S
C3633 C3641 1.433 . S
C3634 H3630 0.929 . S
C3634 C3636 1.378 . S
C3634 C3638 1.350 . S
C3635 C3638 1.463 . S
C3635 C3640 1.350 . S
C3635 N3643 1.427 . S
C3636 H3627 0.930 . S
C3636 C3634 1.378 . S
C3636 C3637 1.367 . S
C3637 C3636 1.367 . S
C3637 C3639 1.433 . S
C3638 C3634 1.350 . S
C3638 C3635 1.463 . S
C3638 N3642 1.427 . S
C3639 H3629 0.929 . S
C3639 C3637 1.433 . S
C3639 N3642 1.384 . S
C3640 H3631 0.929 . S
C3640 C3632 1.378 . S
C3640 C3635 1.350 . S
C3641 H3628 0.929 . S
C3641 C3633 1.433 . S
C3641 N3643 1.384 . S
N3642 C3638 1.427 . S
N3642 C3639 1.384 . S
N3643 C3635 1.427 . S
N3643 C3641 1.384 . S
H3644 C3650 0.930 . S
H3645 C3654 0.930 . S
H3646 C3659 0.929 . S
H3647 C3657 0.929 . S
H3648 C3652 0.929 . S
H3649 C3658 0.929 . S
C3650 H3644 0.930 . S
C3650 C3651 1.367 . S
C3650 C3658 1.378 . S
C3651 C3650 1.367 . S
C3651 C3659 1.433 . S
C3652 H3648 0.929 . S
C3652 C3654 1.378 . S
C3652 C3656 1.350 . S
C3653 C3656 1.463 . S
C3653 C3658 1.350 . S
C3653 N3661 1.427 . S
C3654 H3645 0.930 . S
C3654 C3652 1.378 . S
C3654 C3655 1.367 . S
C3655 C3654 1.367 . S
C3655 C3657 1.433 . S
C3656 C3652 1.350 . S
C3656 C3653 1.463 . S
C3656 N3660 1.427 . S
C3657 H3647 0.929 . S
C3657 C3655 1.433 . S
C3657 N3660 1.384 . S
C3658 H3649 0.929 . S
C3658 C3650 1.378 . S
C3658 C3653 1.350 . S
C3659 H3646 0.929 . S
C3659 C3651 1.433 . S
C3659 N3661 1.384 . S
N3660 C3656 1.427 . S
N3660 C3657 1.384 . S
N3661 C3653 1.427 . S
N3661 C3659 1.384 . S
H3662 C3668 0.930 . S
H3663 C3672 0.930 . S
H3664 C3677 0.929 . S
H3665 C3675 0.929 . S
H3666 C3670 0.929 . S
H3667 C3676 0.929 . S
C3668 H3662 0.930 . S
C3668 C3669 1.367 . S
C3668 C3676 1.378 . S
C3669 C3668 1.367 . S
C3669 C3677 1.433 . S
C3670 H3666 0.929 . S
C3670 C3672 1.378 . S
C3670 C3674 1.350 . S
C3671 C3674 1.463 . S
C3671 C3676 1.350 . S
C3671 N3679 1.427 . S
C3672 H3663 0.930 . S
C3672 C3670 1.378 . S
C3672 C3673 1.367 . S
C3673 C3672 1.367 . S
C3673 C3675 1.433 . S
C3674 C3670 1.350 . S
C3674 C3671 1.463 . S
C3674 N3678 1.427 . S
C3675 H3665 0.929 . S
C3675 C3673 1.433 . S
C3675 N3678 1.384 . S
C3676 H3667 0.929 . S
C3676 C3668 1.378 . S
C3676 C3671 1.350 . S
C3677 H3664 0.929 . S
C3677 C3669 1.433 . S
C3677 N3679 1.384 . S
N3678 C3674 1.427 . S
N3678 C3675 1.384 . S
N3679 C3671 1.427 . S
N3679 C3677 1.384 . S
H3680 C3686 0.930 . S
H3681 C3690 0.930 . S
H3682 C3695 0.929 . S
H3683 C3693 0.929 . S
H3684 C3688 0.929 . S
H3685 C3694 0.929 . S
C3686 H3680 0.930 . S
C3686 C3687 1.367 . S
C3686 C3694 1.378 . S
C3687 C3686 1.367 . S
C3687 C3695 1.433 . S
C3688 H3684 0.929 . S
C3688 C3690 1.378 . S
C3688 C3692 1.350 . S
C3689 C3692 1.463 . S
C3689 C3694 1.350 . S
C3689 N3697 1.427 . S
C3690 H3681 0.930 . S
C3690 C3688 1.378 . S
C3690 C3691 1.367 . S
C3691 C3690 1.367 . S
C3691 C3693 1.433 . S
C3692 C3688 1.350 . S
C3692 C3689 1.463 . S
C3692 N3696 1.427 . S
C3693 H3683 0.929 . S
C3693 C3691 1.433 . S
C3693 N3696 1.384 . S
C3694 H3685 0.929 . S
C3694 C3686 1.378 . S
C3694 C3689 1.350 . S
C3695 H3682 0.929 . S
C3695 C3687 1.433 . S
C3695 N3697 1.384 . S
N3696 C3692 1.427 . S
N3696 C3693 1.384 . S
N3697 C3689 1.427 . S
N3697 C3695 1.384 . S
H3698 C3704 0.930 . S
H3699 C3708 0.930 . S
H3700 C3713 0.929 . S
H3701 C3711 0.929 . S
H3702 C3706 0.929 . S
H3703 C3712 0.929 . S
C3704 H3698 0.930 . S
C3704 C3705 1.367 . S
C3704 C3712 1.378 . S
C3705 C3704 1.367 . S
C3705 C3713 1.433 . S
C3706 H3702 0.929 . S
C3706 C3708 1.378 . S
C3706 C3710 1.350 . S
C3707 C3710 1.463 . S
C3707 C3712 1.350 . S
C3707 N3715 1.427 . S
C3708 H3699 0.930 . S
C3708 C3706 1.378 . S
C3708 C3709 1.367 . S
C3709 C3708 1.367 . S
C3709 C3711 1.433 . S
C3710 C3706 1.350 . S
C3710 C3707 1.463 . S
C3710 N3714 1.427 . S
C3711 H3701 0.929 . S
C3711 C3709 1.433 . S
C3711 N3714 1.384 . S
C3712 H3703 0.929 . S
C3712 C3704 1.378 . S
C3712 C3707 1.350 . S
C3713 H3700 0.929 . S
C3713 C3705 1.433 . S
C3713 N3715 1.384 . S
N3714 C3710 1.427 . S
N3714 C3711 1.384 . S
N3715 C3707 1.427 . S
N3715 C3713 1.384 . S
H3716 C3722 0.930 . S
H3717 C3726 0.930 . S
H3718 C3731 0.929 . S
H3719 C3729 0.929 . S
H3720 C3724 0.929 . S
H3721 C3730 0.929 . S
C3722 H3716 0.930 . S
C3722 C3723 1.367 . S
C3722 C3730 1.378 . S
C3723 C3722 1.367 . S
C3723 C3731 1.433 . S
C3724 H3720 0.929 . S
C3724 C3726 1.378 . S
C3724 C3728 1.350 . S
C3725 C3728 1.463 . S
C3725 C3730 1.350 . S
C3725 N3733 1.427 . S
C3726 H3717 0.930 . S
C3726 C3724 1.378 . S
C3726 C3727 1.367 . S
C3727 C3726 1.367 . S
C3727 C3729 1.433 . S
C3728 C3724 1.350 . S
C3728 C3725 1.463 . S
C3728 N3732 1.427 . S
C3729 H3719 0.929 . S
C3729 C3727 1.433 . S
C3729 N3732 1.384 . S
C3730 H3721 0.929 . S
C3730 C3722 1.378 . S
C3730 C3725 1.350 . S
C3731 H3718 0.929 . S
C3731 C3723 1.433 . S
C3731 N3733 1.384 . S
N3732 C3728 1.427 . S
N3732 C3729 1.384 . S
N3733 C3725 1.427 . S
N3733 C3731 1.384 . S
H3734 C3740 0.930 . S
H3735 C3744 0.930 . S
H3736 C3749 0.929 . S
H3737 C3747 0.929 . S
H3738 C3742 0.929 . S
H3739 C3748 0.929 . S
C3740 H3734 0.930 . S
C3740 C3741 1.367 . S
C3740 C3748 1.378 . S
C3741 C3740 1.367 . S
C3741 C3749 1.433 . S
C3742 H3738 0.929 . S
C3742 C3744 1.378 . S
C3742 C3746 1.350 . S
C3743 C3746 1.463 . S
C3743 C3748 1.350 . S
C3743 N3751 1.427 . S
C3744 H3735 0.930 . S
C3744 C3742 1.378 . S
C3744 C3745 1.367 . S
C3745 C3744 1.367 . S
C3745 C3747 1.433 . S
C3746 C3742 1.350 . S
C3746 C3743 1.463 . S
C3746 N3750 1.427 . S
C3747 H3737 0.929 . S
C3747 C3745 1.433 . S
C3747 N3750 1.384 . S
C3748 H3739 0.929 . S
C3748 C3740 1.378 . S
C3748 C3743 1.350 . S
C3749 H3736 0.929 . S
C3749 C3741 1.433 . S
C3749 N3751 1.384 . S
N3750 C3746 1.427 . S
N3750 C3747 1.384 . S
N3751 C3743 1.427 . S
N3751 C3749 1.384 . S
H3752 C3758 0.930 . S
H3753 C3762 0.930 . S
H3754 C3767 0.929 . S
H3755 C3765 0.929 . S
H3756 C3760 0.929 . S
H3757 C3766 0.929 . S
C3758 H3752 0.930 . S
C3758 C3759 1.367 . S
C3758 C3766 1.378 . S
C3759 C3758 1.367 . S
C3759 C3767 1.433 . S
C3760 H3756 0.929 . S
C3760 C3762 1.378 . S
C3760 C3764 1.350 . S
C3761 C3764 1.463 . S
C3761 C3766 1.350 . S
C3761 N3769 1.427 . S
C3762 H3753 0.930 . S
C3762 C3760 1.378 . S
C3762 C3763 1.367 . S
C3763 C3762 1.367 . S
C3763 C3765 1.433 . S
C3764 C3760 1.350 . S
C3764 C3761 1.463 . S
C3764 N3768 1.427 . S
C3765 H3755 0.929 . S
C3765 C3763 1.433 . S
C3765 N3768 1.384 . S
C3766 H3757 0.929 . S
C3766 C3758 1.378 . S
C3766 C3761 1.350 . S
C3767 H3754 0.929 . S
C3767 C3759 1.433 . S
C3767 N3769 1.384 . S
N3768 C3764 1.427 . S
N3768 C3765 1.384 . S
N3769 C3761 1.427 . S
N3769 C3767 1.384 . S
H3770 C3776 0.930 . S
H3771 C3780 0.930 . S
H3772 C3785 0.929 . S
H3773 C3783 0.929 . S
H3774 C3778 0.929 . S
H3775 C3784 0.929 . S
C3776 H3770 0.930 . S
C3776 C3777 1.367 . S
C3776 C3784 1.378 . S
C3777 C3776 1.367 . S
C3777 C3785 1.433 . S
C3778 H3774 0.929 . S
C3778 C3780 1.378 . S
C3778 C3782 1.350 . S
C3779 C3782 1.463 . S
C3779 C3784 1.350 . S
C3779 N3787 1.427 . S
C3780 H3771 0.930 . S
C3780 C3778 1.378 . S
C3780 C3781 1.367 . S
C3781 C3780 1.367 . S
C3781 C3783 1.433 . S
C3782 C3778 1.350 . S
C3782 C3779 1.463 . S
C3782 N3786 1.427 . S
C3783 H3773 0.929 . S
C3783 C3781 1.433 . S
C3783 N3786 1.384 . S
C3784 H3775 0.929 . S
C3784 C3776 1.378 . S
C3784 C3779 1.350 . S
C3785 H3772 0.929 . S
C3785 C3777 1.433 . S
C3785 N3787 1.384 . S
N3786 C3782 1.427 . S
N3786 C3783 1.384 . S
N3787 C3779 1.427 . S
N3787 C3785 1.384 . S
H3788 C3794 0.930 . S
H3789 C3798 0.930 . S
H3790 C3803 0.929 . S
H3791 C3801 0.929 . S
H3792 C3796 0.929 . S
H3793 C3802 0.929 . S
C3794 H3788 0.930 . S
C3794 C3795 1.367 . S
C3794 C3802 1.378 . S
C3795 C3794 1.367 . S
C3795 C3803 1.433 . S
C3796 H3792 0.929 . S
C3796 C3798 1.378 . S
C3796 C3800 1.350 . S
C3797 C3800 1.463 . S
C3797 C3802 1.350 . S
C3797 N3805 1.427 . S
C3798 H3789 0.930 . S
C3798 C3796 1.378 . S
C3798 C3799 1.367 . S
C3799 C3798 1.367 . S
C3799 C3801 1.433 . S
C3800 C3796 1.350 . S
C3800 C3797 1.463 . S
C3800 N3804 1.427 . S
C3801 H3791 0.929 . S
C3801 C3799 1.433 . S
C3801 N3804 1.384 . S
C3802 H3793 0.929 . S
C3802 C3794 1.378 . S
C3802 C3797 1.350 . S
C3803 H3790 0.929 . S
C3803 C3795 1.433 . S
C3803 N3805 1.384 . S
N3804 C3800 1.427 . S
N3804 C3801 1.384 . S
N3805 C3797 1.427 . S
N3805 C3803 1.384 . S
H3806 C3812 0.930 . S
H3807 C3816 0.930 . S
H3808 C3821 0.929 . S
H3809 C3819 0.929 . S
H3810 C3814 0.929 . S
H3811 C3820 0.929 . S
C3812 H3806 0.930 . S
C3812 C3813 1.367 . S
C3812 C3820 1.378 . S
C3813 C3812 1.367 . S
C3813 C3821 1.433 . S
C3814 H3810 0.929 . S
C3814 C3816 1.378 . S
C3814 C3818 1.350 . S
C3815 C3818 1.463 . S
C3815 C3820 1.350 . S
C3815 N3823 1.427 . S
C3816 H3807 0.930 . S
C3816 C3814 1.378 . S
C3816 C3817 1.367 . S
C3817 C3816 1.367 . S
C3817 C3819 1.433 . S
C3818 C3814 1.350 . S
C3818 C3815 1.463 . S
C3818 N3822 1.427 . S
C3819 H3809 0.929 . S
C3819 C3817 1.433 . S
C3819 N3822 1.384 . S
C3820 H3811 0.929 . S
C3820 C3812 1.378 . S
C3820 C3815 1.350 . S
C3821 H3808 0.929 . S
C3821 C3813 1.433 . S
C3821 N3823 1.384 . S
N3822 C3818 1.427 . S
N3822 C3819 1.384 . S
N3823 C3815 1.427 . S
N3823 C3821 1.384 . S
H3824 C3830 0.930 . S
H3825 C3834 0.930 . S
H3826 C3839 0.929 . S
H3827 C3837 0.929 . S
H3828 C3832 0.929 . S
H3829 C3838 0.929 . S
C3830 H3824 0.930 . S
C3830 C3831 1.367 . S
C3830 C3838 1.378 . S
C3831 C3830 1.367 . S
C3831 C3839 1.433 . S
C3832 H3828 0.929 . S
C3832 C3834 1.378 . S
C3832 C3836 1.350 . S
C3833 C3836 1.463 . S
C3833 C3838 1.350 . S
C3833 N3841 1.427 . S
C3834 H3825 0.930 . S
C3834 C3832 1.378 . S
C3834 C3835 1.367 . S
C3835 C3834 1.367 . S
C3835 C3837 1.433 . S
C3836 C3832 1.350 . S
C3836 C3833 1.463 . S
C3836 N3840 1.427 . S
C3837 H3827 0.929 . S
C3837 C3835 1.433 . S
C3837 N3840 1.384 . S
C3838 H3829 0.929 . S
C3838 C3830 1.378 . S
C3838 C3833 1.350 . S
C3839 H3826 0.929 . S
C3839 C3831 1.433 . S
C3839 N3841 1.384 . S
N3840 C3836 1.427 . S
N3840 C3837 1.384 . S
N3841 C3833 1.427 . S
N3841 C3839 1.384 . S
H3842 C3848 0.930 . S
H3843 C3852 0.930 . S
H3844 C3857 0.929 . S
H3845 C3855 0.929 . S
H3846 C3850 0.929 . S
H3847 C3856 0.929 . S
C3848 H3842 0.930 . S
C3848 C3849 1.367 . S
C3848 C3856 1.378 . S
C3849 C3848 1.367 . S
C3849 C3857 1.433 . S
C3850 H3846 0.929 . S
C3850 C3852 1.378 . S
C3850 C3854 1.350 . S
C3851 C3854 1.463 . S
C3851 C3856 1.350 . S
C3851 N3859 1.427 . S
C3852 H3843 0.930 . S
C3852 C3850 1.378 . S
C3852 C3853 1.367 . S
C3853 C3852 1.367 . S
C3853 C3855 1.433 . S
C3854 C3850 1.350 . S
C3854 C3851 1.463 . S
C3854 N3858 1.427 . S
C3855 H3845 0.929 . S
C3855 C3853 1.433 . S
C3855 N3858 1.384 . S
C3856 H3847 0.929 . S
C3856 C3848 1.378 . S
C3856 C3851 1.350 . S
C3857 H3844 0.929 . S
C3857 C3849 1.433 . S
C3857 N3859 1.384 . S
N3858 C3854 1.427 . S
N3858 C3855 1.384 . S
N3859 C3851 1.427 . S
N3859 C3857 1.384 . S
H3860 C3866 0.930 . S
H3861 C3870 0.930 . S
H3862 C3875 0.929 . S
H3863 C3873 0.929 . S
H3864 C3868 0.929 . S
H3865 C3874 0.929 . S
C3866 H3860 0.930 . S
C3866 C3867 1.367 . S
C3866 C3874 1.378 . S
C3867 C3866 1.367 . S
C3867 C3875 1.433 . S
C3868 H3864 0.929 . S
C3868 C3870 1.378 . S
C3868 C3872 1.350 . S
C3869 C3872 1.463 . S
C3869 C3874 1.350 . S
C3869 N3877 1.427 . S
C3870 H3861 0.930 . S
C3870 C3868 1.378 . S
C3870 C3871 1.367 . S
C3871 C3870 1.367 . S
C3871 C3873 1.433 . S
C3872 C3868 1.350 . S
C3872 C3869 1.463 . S
C3872 N3876 1.427 . S
C3873 H3863 0.929 . S
C3873 C3871 1.433 . S
C3873 N3876 1.384 . S
C3874 H3865 0.929 . S
C3874 C3866 1.378 . S
C3874 C3869 1.350 . S
C3875 H3862 0.929 . S
C3875 C3867 1.433 . S
C3875 N3877 1.384 . S
N3876 C3872 1.427 . S
N3876 C3873 1.384 . S
N3877 C3869 1.427 . S
N3877 C3875 1.384 . S
H3878 C3884 0.930 . S
H3879 C3888 0.930 . S
H3880 C3893 0.929 . S
H3881 C3891 0.929 . S
H3882 C3886 0.929 . S
H3883 C3892 0.929 . S
C3884 H3878 0.930 . S
C3884 C3885 1.367 . S
C3884 C3892 1.378 . S
C3885 C3884 1.367 . S
C3885 C3893 1.433 . S
C3886 H3882 0.929 . S
C3886 C3888 1.378 . S
C3886 C3890 1.350 . S
C3887 C3890 1.463 . S
C3887 C3892 1.350 . S
C3887 N3895 1.427 . S
C3888 H3879 0.930 . S
C3888 C3886 1.378 . S
C3888 C3889 1.367 . S
C3889 C3888 1.367 . S
C3889 C3891 1.433 . S
C3890 C3886 1.350 . S
C3890 C3887 1.463 . S
C3890 N3894 1.427 . S
C3891 H3881 0.929 . S
C3891 C3889 1.433 . S
C3891 N3894 1.384 . S
C3892 H3883 0.929 . S
C3892 C3884 1.378 . S
C3892 C3887 1.350 . S
C3893 H3880 0.929 . S
C3893 C3885 1.433 . S
C3893 N3895 1.384 . S
N3894 C3890 1.427 . S
N3894 C3891 1.384 . S
N3895 C3887 1.427 . S
N3895 C3893 1.384 . S
H3896 C3902 0.930 . S
H3897 C3906 0.930 . S
H3898 C3911 0.929 . S
H3899 C3909 0.929 . S
H3900 C3904 0.929 . S
H3901 C3910 0.929 . S
C3902 H3896 0.930 . S
C3902 C3903 1.367 . S
C3902 C3910 1.378 . S
C3903 C3902 1.367 . S
C3903 C3911 1.433 . S
C3904 H3900 0.929 . S
C3904 C3906 1.378 . S
C3904 C3908 1.350 . S
C3905 C3908 1.463 . S
C3905 C3910 1.350 . S
C3905 N3913 1.427 . S
C3906 H3897 0.930 . S
C3906 C3904 1.378 . S
C3906 C3907 1.367 . S
C3907 C3906 1.367 . S
C3907 C3909 1.433 . S
C3908 C3904 1.350 . S
C3908 C3905 1.463 . S
C3908 N3912 1.427 . S
C3909 H3899 0.929 . S
C3909 C3907 1.433 . S
C3909 N3912 1.384 . S
C3910 H3901 0.929 . S
C3910 C3902 1.378 . S
C3910 C3905 1.350 . S
C3911 H3898 0.929 . S
C3911 C3903 1.433 . S
C3911 N3913 1.384 . S
N3912 C3908 1.427 . S
N3912 C3909 1.384 . S
N3913 C3905 1.427 . S
N3913 C3911 1.384 . S
H3914 C3920 0.930 . S
H3915 C3924 0.930 . S
H3916 C3929 0.929 . S
H3917 C3927 0.929 . S
H3918 C3922 0.929 . S
H3919 C3928 0.929 . S
C3920 H3914 0.930 . S
C3920 C3921 1.367 . S
C3920 C3928 1.378 . S
C3921 C3920 1.367 . S
C3921 C3929 1.433 . S
C3922 H3918 0.929 . S
C3922 C3924 1.378 . S
C3922 C3926 1.350 . S
C3923 C3926 1.463 . S
C3923 C3928 1.350 . S
C3923 N3931 1.427 . S
C3924 H3915 0.930 . S
C3924 C3922 1.378 . S
C3924 C3925 1.367 . S
C3925 C3924 1.367 . S
C3925 C3927 1.433 . S
C3926 C3922 1.350 . S
C3926 C3923 1.463 . S
C3926 N3930 1.427 . S
C3927 H3917 0.929 . S
C3927 C3925 1.433 . S
C3927 N3930 1.384 . S
C3928 H3919 0.929 . S
C3928 C3920 1.378 . S
C3928 C3923 1.350 . S
C3929 H3916 0.929 . S
C3929 C3921 1.433 . S
C3929 N3931 1.384 . S
N3930 C3926 1.427 . S
N3930 C3927 1.384 . S
N3931 C3923 1.427 . S
N3931 C3929 1.384 . S
H3932 C3938 0.930 . S
H3933 C3942 0.930 . S
H3934 C3947 0.929 . S
H3935 C3945 0.929 . S
H3936 C3940 0.929 . S
H3937 C3946 0.929 . S
C3938 H3932 0.930 . S
C3938 C3939 1.367 . S
C3938 C3946 1.378 . S
C3939 C3938 1.367 . S
C3939 C3947 1.433 . S
C3940 H3936 0.929 . S
C3940 C3942 1.378 . S
C3940 C3944 1.350 . S
C3941 C3944 1.463 . S
C3941 C3946 1.350 . S
C3941 N3949 1.427 . S
C3942 H3933 0.930 . S
C3942 C3940 1.378 . S
C3942 C3943 1.367 . S
C3943 C3942 1.367 . S
C3943 C3945 1.433 . S
C3944 C3940 1.350 . S
C3944 C3941 1.463 . S
C3944 N3948 1.427 . S
C3945 H3935 0.929 . S
C3945 C3943 1.433 . S
C3945 N3948 1.384 . S
C3946 H3937 0.929 . S
C3946 C3938 1.378 . S
C3946 C3941 1.350 . S
C3947 H3934 0.929 . S
C3947 C3939 1.433 . S
C3947 N3949 1.384 . S
N3948 C3944 1.427 . S
N3948 C3945 1.384 . S
N3949 C3941 1.427 . S
N3949 C3947 1.384 . S
H3950 C3956 0.930 . S
H3951 C3960 0.930 . S
H3952 C3965 0.929 . S
H3953 C3963 0.929 . S
H3954 C3958 0.929 . S
H3955 C3964 0.929 . S
C3956 H3950 0.930 . S
C3956 C3957 1.367 . S
C3956 C3964 1.378 . S
C3957 C3956 1.367 . S
C3957 C3965 1.433 . S
C3958 H3954 0.929 . S
C3958 C3960 1.378 . S
C3958 C3962 1.350 . S
C3959 C3962 1.463 . S
C3959 C3964 1.350 . S
C3959 N3967 1.427 . S
C3960 H3951 0.930 . S
C3960 C3958 1.378 . S
C3960 C3961 1.367 . S
C3961 C3960 1.367 . S
C3961 C3963 1.433 . S
C3962 C3958 1.350 . S
C3962 C3959 1.463 . S
C3962 N3966 1.427 . S
C3963 H3953 0.929 . S
C3963 C3961 1.433 . S
C3963 N3966 1.384 . S
C3964 H3955 0.929 . S
C3964 C3956 1.378 . S
C3964 C3959 1.350 . S
C3965 H3952 0.929 . S
C3965 C3957 1.433 . S
C3965 N3967 1.384 . S
N3966 C3962 1.427 . S
N3966 C3963 1.384 . S
N3967 C3959 1.427 . S
N3967 C3965 1.384 . S
C2823 C284 0.944 . S
C2827 C49 0.944 . S
C2841 C196 0.977 . S
C2845 C137 0.978 . S
C2859 C673 0.950 . S
C2863 C372 0.948 . S
C2877 C577 0.945 . S
C2881 C469 0.943 . S
C2895 C753 0.965 . S
C2899 C988 0.963 . S
C2913 C841 0.975 . S
C2917 C909 0.973 . S
C2931 C1377 0.955 . S
C2935 C1076 0.952 . S
C2949 C1173 0.970 . S
C2953 C1281 0.972 . S
C2967 C1465 0.956 . S
C2971 C1701 0.957 . S
C2985 C1545 0.970 . S
C2989 C1613 0.971 . S
C3003 C2081 0.947 . S
C3007 C1780 0.945 . S
C3021 C1985 0.954 . S
C3025 C1868 0.951 . S
C3039 C2396 0.960 . S
C3043 C2169 0.962 . S
C3057 C2249 0.950 . S
C3061 C2317 0.951 . S
C3075 C2484 0.966 . S
C3079 C2785 0.968 . S
C3093 C2581 0.960 . S
C3097 C2697 0.957 . S
C3111 C1817 1.621 . S
C3115 C57 1.613 . S
C3129 C1193 1.621 . S
C3133 C145 1.613 . S
C3147 C205 1.591 . S
C3151 C2660 1.600 . S
C3165 C293 1.601 . S
C3169 C636 1.610 . S
C3183 C1457 1.595 . S
C3187 C409 1.604 . S
C3201 C849 1.608 . S
C3205 C489 1.617 . S
C3219 C2308 1.606 . S
C3223 C557 1.615 . S
C3237 C761 1.604 . S
C3241 C2521 1.613 . S
C3255 C1965 1.621 . S
C3259 C900 1.613 . S
C3273 C1340 1.621 . S
C3277 C997 1.612 . S
C3291 C2161 1.606 . S
C3295 C1113 1.614 . S
C3309 C1261 1.609 . S
C3313 C1604 1.600 . S
C3327 C2601 1.600 . S
C3331 C1553 1.591 . S
C3345 C1692 1.594 . S
C3349 C2044 1.603 . S
C3363 C2257 1.592 . S
C3367 C1905 1.601 . S
C3381 C2748 1.621 . S
C3385 C2405 1.612 . S
C3399 C117 1.526 . S
C3403 C29 1.523 . S
C3417 C233 1.511 . S
C3421 C321 1.514 . S
C3435 C381 1.527 . S
C3439 C460 1.523 . S
C3453 C665 1.524 . S
C3457 C585 1.518 . S
C3471 C733 1.524 . S
C3475 C821 1.527 . S
C3489 C929 1.510 . S
C3493 C1025 1.511 . S
C3507 C1164 1.522 . S
C3511 C1085 1.516 . S
C3525 C1289 1.523 . S
C3529 C1369 1.527 . S
C3543 C1428 1.518 . S
C3547 C1525 1.523 . S
C3561 C1633 1.511 . S
C3565 C1721 1.514 . S
C3579 C1789 1.521 . S
C3583 C1877 1.526 . S
C3597 C2073 1.517 . S
C3601 C1993 1.513 . S
C3615 C2229 1.513 . S
C3619 C2132 1.510 . S
C3633 C2337 1.510 . S
C3637 C2433 1.510 . S
C3651 C2493 1.525 . S
C3655 C2572 1.528 . S
C3669 C2777 1.520 . S
C3673 C2689 1.515 . S
C3687 C20 1.610 . S
C3691 C1729 1.614 . S
C3705 C108 1.613 . S
C3709 C1641 1.615 . S
C3723 C1516 1.610 . S
C3727 C225 1.606 . S
C3741 C313 1.610 . S
C3745 C1437 1.606 . S
C3759 C2053 1.617 . S
C3763 C401 1.614 . S
C3777 C497 1.608 . S
C3781 C1956 1.609 . S
C3795 C1897 1.608 . S
C3799 C548 1.611 . S
C3813 C645 1.608 . S
C3817 C1809 1.610 . S
C3831 C724 1.610 . S
C3835 C2425 1.614 . S
C3849 C812 1.613 . S
C3853 C2345 1.609 . S
C3867 C937 1.609 . S
C3871 C2220 1.606 . S
C3885 C2141 1.612 . S
C3889 C1017 1.607 . S
C3903 C1105 1.616 . S
C3907 C2757 1.616 . S
C3921 C1201 1.613 . S
C3925 C2669 1.616 . S
C3939 C1252 1.608 . S
C3943 C2609 1.611 . S
C3957 C2513 1.616 . S
C3961 C1349 1.612 . S
