# Generated by pormake.
# Topology smw, (6)-cn, num edge types: 1
# Building blocks:
#     Node 0, Type 0, BuildingBlock: OJICUG_clean_sbu_0, # of connection points: 6
#     Node 1, Type 0, BuildingBlock: OJICUG_clean_sbu_0, # of connection points: 6
#     Node 2, Type 0, BuildingBlock: OJICUG_clean_sbu_0, # of connection points: 6
#     Node 3, Type 0, BuildingBlock: OJICUG_clean_sbu_0, # of connection points: 6
#     Node 4, Type 0, BuildingBlock: OJICUG_clean_sbu_0, # of connection points: 6
#     Node 5, Type 0, BuildingBlock: OJICUG_clean_sbu_0, # of connection points: 6
#     Node 6, Type 0, BuildingBlock: OJICUG_clean_sbu_0, # of connection points: 6
#     Node 7, Type 0, BuildingBlock: OJICUG_clean_sbu_0, # of connection points: 6
#     Node 8, Type 0, BuildingBlock: OJICUG_clean_sbu_0, # of connection points: 6
#     Node 9, Type 0, BuildingBlock: OJICUG_clean_sbu_0, # of connection points: 6
#     Node 10, Type 0, BuildingBlock: OJICUG_clean_sbu_0, # of connection points: 6
#     Node 11, Type 0, BuildingBlock: OJICUG_clean_sbu_0, # of connection points: 6
#     Edge 12, Type (0, 0), BuildingBlock: XUDNAN_clean_linker_2, # of connection points: 2
#     Edge 13, Type (0, 0), BuildingBlock: XUDNAN_clean_linker_2, # of connection points: 2
#     Edge 14, Type (0, 0), BuildingBlock: XUDNAN_clean_linker_2, # of connection points: 2
#     Edge 15, Type (0, 0), BuildingBlock: XUDNAN_clean_linker_2, # of connection points: 2
#     Edge 16, Type (0, 0), BuildingBlock: XUDNAN_clean_linker_2, # of connection points: 2
#     Edge 17, Type (0, 0), BuildingBlock: XUDNAN_clean_linker_2, # of connection points: 2
#     Edge 18, Type (0, 0), BuildingBlock: XUDNAN_clean_linker_2, # of connection points: 2
#     Edge 19, Type (0, 0), BuildingBlock: XUDNAN_clean_linker_2, # of connection points: 2
#     Edge 20, Type (0, 0), BuildingBlock: XUDNAN_clean_linker_2, # of connection points: 2
#     Edge 21, Type (0, 0), BuildingBlock: XUDNAN_clean_linker_2, # of connection points: 2
#     Edge 22, Type (0, 0), BuildingBlock: XUDNAN_clean_linker_2, # of connection points: 2
#     Edge 23, Type (0, 0), BuildingBlock: XUDNAN_clean_linker_2, # of connection points: 2
#     Edge 24, Type (0, 0), BuildingBlock: XUDNAN_clean_linker_2, # of connection points: 2
#     Edge 25, Type (0, 0), BuildingBlock: XUDNAN_clean_linker_2, # of connection points: 2
#     Edge 26, Type (0, 0), BuildingBlock: XUDNAN_clean_linker_2, # of connection points: 2
#     Edge 27, Type (0, 0), BuildingBlock: XUDNAN_clean_linker_2, # of connection points: 2
#     Edge 28, Type (0, 0), BuildingBlock: XUDNAN_clean_linker_2, # of connection points: 2
#     Edge 29, Type (0, 0), BuildingBlock: XUDNAN_clean_linker_2, # of connection points: 2
#     Edge 30, Type (0, 0), BuildingBlock: XUDNAN_clean_linker_2, # of connection points: 2
#     Edge 31, Type (0, 0), BuildingBlock: XUDNAN_clean_linker_2, # of connection points: 2
#     Edge 32, Type (0, 0), BuildingBlock: XUDNAN_clean_linker_2, # of connection points: 2
#     Edge 33, Type (0, 0), BuildingBlock: XUDNAN_clean_linker_2, # of connection points: 2
#     Edge 34, Type (0, 0), BuildingBlock: XUDNAN_clean_linker_2, # of connection points: 2
#     Edge 35, Type (0, 0), BuildingBlock: XUDNAN_clean_linker_2, # of connection points: 2
#     Edge 36, Type (0, 0), BuildingBlock: XUDNAN_clean_linker_2, # of connection points: 2
#     Edge 37, Type (0, 0), BuildingBlock: XUDNAN_clean_linker_2, # of connection points: 2
#     Edge 38, Type (0, 0), BuildingBlock: XUDNAN_clean_linker_2, # of connection points: 2
#     Edge 39, Type (0, 0), BuildingBlock: XUDNAN_clean_linker_2, # of connection points: 2
#     Edge 40, Type (0, 0), BuildingBlock: XUDNAN_clean_linker_2, # of connection points: 2
#     Edge 41, Type (0, 0), BuildingBlock: XUDNAN_clean_linker_2, # of connection points: 2
#     Edge 42, Type (0, 0), BuildingBlock: XUDNAN_clean_linker_2, # of connection points: 2
#     Edge 43, Type (0, 0), BuildingBlock: XUDNAN_clean_linker_2, # of connection points: 2
#     Edge 44, Type (0, 0), BuildingBlock: XUDNAN_clean_linker_2, # of connection points: 2
#     Edge 45, Type (0, 0), BuildingBlock: XUDNAN_clean_linker_2, # of connection points: 2
#     Edge 46, Type (0, 0), BuildingBlock: XUDNAN_clean_linker_2, # of connection points: 2
#     Edge 47, Type (0, 0), BuildingBlock: XUDNAN_clean_linker_2, # of connection points: 2
# Relax obj value: 0.103
# Max RMSD: 0.108
# Mean RMSD: 0.108
data_MOF--net-smw--node1-OJICUG_clean_sbu_0--edge1-XUDNAN_clean_linker_2
_symmetry_space_group_name_H-M    P1
_symmetry_Int_Tables_number       1
_symmetry_cell_setting            triclinic
loop_
_symmetry_equiv_pos_as_xyz
'x, y, z'
_cell_length_a     54.895969
_cell_length_b     55.037257
_cell_length_c     22.224032
_cell_angle_alpha  89.766362
_cell_angle_beta   90.226601
_cell_angle_gamma 119.97321
loop_
_atom_site_label
_atom_site_type_symbol
_atom_site_fract_x
_atom_site_fract_y
_atom_site_fract_z
_atom_type_partial_charge
Sc0 Sc 0.51167 0.16171 -0.00577 0.0
Sc1 Sc 0.4377 0.13363 0.98936 0.0
Sc2 Sc 0.46594 0.08962 0.01426 0.0
O3 O 0.47179 0.12844 -0.00071 0.0
C4 C 0.52049 0.11506 0.93129 0.0
C5 C 0.47969 0.17321 0.88703 0.0
C6 C 0.41912 0.07666 0.91666 0.0
C7 C 0.47978 0.1887 0.0621 0.0
C8 C 0.51457 0.12707 0.10728 0.0
C9 C 0.41561 0.08754 0.09064 0.0
O10 O 0.52716 0.14045 0.93889 0.0
O11 O 0.45524 0.15863 0.90951 0.0
O12 O 0.43794 0.07237 0.93933 0.0
O13 O 0.50174 0.18797 0.04759 0.0
O14 O 0.49319 0.10418 0.09101 0.0
O15 O 0.41664 0.10931 0.06838 0.0
O16 O 0.52476 0.1496 0.07629 0.0
O17 O 0.45524 0.17045 0.04514 0.0
O18 O 0.43131 0.07818 0.07323 0.0
O19 O 0.50191 0.17631 0.91241 0.0
O20 O 0.49944 0.09491 0.95674 0.0
O21 O 0.41571 0.09701 0.93232 0.0
Sc22 Sc 0.31645 0.45404 0.97088 0.0
Sc23 Sc 0.2883 0.38084 0.99188 0.0
Sc24 Sc 0.36128 0.42727 0.00082 0.0
O25 O 0.32188 0.42069 0.98802 0.0
C26 C 0.36979 0.46684 0.88978 0.0
C27 C 0.27173 0.4072 0.88207 0.0
C28 C 0.33317 0.36948 0.92806 0.0
C29 C 0.26507 0.4166 0.05816 0.0
C30 C 0.36682 0.48198 0.06374 0.0
C31 C 0.32706 0.38308 0.10251 0.0
O32 O 0.34998 0.47131 0.90482 0.0
O33 O 0.26945 0.38615 0.91085 0.0
O34 O 0.35367 0.39099 0.95132 0.0
O35 O 0.28259 0.44001 0.03467 0.0
O36 O 0.37549 0.46516 0.05112 0.0
O37 O 0.30375 0.37149 0.07407 0.0
O38 O 0.34457 0.47997 0.04148 0.0
O39 O 0.26466 0.39377 0.04683 0.0
O40 O 0.34937 0.40415 0.08316 0.0
O41 O 0.28778 0.43245 0.89813 0.0
O42 O 0.37573 0.45057 0.91893 0.0
O43 O 0.3078 0.36325 0.93599 0.0
Sc44 Sc 0.8295 0.31436 0.99309 0.0
Sc45 Sc 0.89063 0.30857 0.00696 0.0
Sc46 Sc 0.89656 0.37452 0.98108 0.0
O47 O 0.87221 0.33246 -0.00631 0.0
C48 C 0.84734 0.35905 0.88646 0.0
C49 C 0.83915 0.26973 0.92052 0.0
C50 C 0.93118 0.35195 0.90817 0.0
C51 C 0.83888 0.28037 0.09827 0.0
C52 C 0.8472 0.37126 0.0629 0.0
C53 C 0.92952 0.36285 0.08605 0.0
O54 O 0.82959 0.33633 0.912 0.0
O55 O 0.86373 0.2777 0.94095 0.0
O56 O 0.92418 0.37035 0.91833 0.0
O57 O 0.82456 0.29005 0.07347 0.0
O58 O 0.87207 0.3839 0.04208 0.0
O59 O 0.91956 0.33691 0.07456 0.0
O60 O 0.82941 0.34607 0.04947 0.0
O61 O 0.86251 0.28516 0.0783 0.0
O62 O 0.92319 0.37849 0.05551 0.0
O63 O 0.8247 0.28077 0.93667 0.0
O64 O 0.87207 0.37493 0.90613 0.0
O65 O 0.92091 0.32898 0.93697 0.0
Sc66 Sc 0.49062 0.83451 0.98875 0.0
Sc67 Sc 0.56448 0.86455 -0.00141 0.0
Sc68 Sc 0.53464 0.90644 0.96041 0.0
O69 O 0.52994 0.86849 0.98256 0.0
C70 C 0.48345 0.86569 0.87513 0.0
C71 C 0.52431 0.80777 0.92817 0.0
C72 C 0.58322 0.90511 0.88455 0.0
C73 C 0.52204 0.82589 0.10089 0.0
C74 C 0.48258 0.88269 0.04991 0.0
C75 C 0.58384 0.92401 0.05739 0.0
O76 O 0.47673 0.84382 0.9061 0.0
O77 O 0.54802 0.82658 0.94789 0.0
O78 O 0.56567 0.9133 0.89428 0.0
O79 O 0.50019 0.82151 0.07211 0.0
O80 O 0.50384 0.90275 0.02441 0.0
O81 O 0.58539 0.90192 0.05145 0.0
O82 O 0.47505 0.85703 0.04099 0.0
O83 O 0.54685 0.84112 0.08065 0.0
O84 O 0.56637 0.92835 0.02835 0.0
O85 O 0.50159 0.808 0.9375 0.0
O86 O 0.50355 0.88976 0.88956 0.0
O87 O 0.58588 0.88783 0.9183 0.0
Sc88 Sc 0.68857 0.54222 0.01818 0.0
Sc89 Sc 0.71056 0.61391 -0.00381 0.0
Sc90 Sc 0.63816 0.56264 -0.00356 0.0
O91 O 0.67916 0.57301 0.00351 0.0
C92 C 0.6365 0.51079 0.92933 0.0
C93 C 0.73586 0.58105 0.92458 0.0
C94 C 0.66738 0.60794 0.89221 0.0
C95 C 0.73339 0.59165 0.10204 0.0
C96 C 0.63687 0.5253 0.10717 0.0
C97 C 0.6643 0.62084 0.06742 0.0
O98 O 0.65889 0.51394 0.95331 0.0
O99 O 0.73531 0.6032 0.93841 0.0
O100 O 0.64642 0.58664 0.91542 0.0
O101 O 0.71918 0.56633 0.08501 0.0
O102 O 0.62635 0.53775 0.07775 0.0
O103 O 0.68978 0.62963 0.05331 0.0
O104 O 0.65874 0.52481 0.0904 0.0
O105 O 0.73268 0.61173 0.07513 0.0
O106 O 0.64423 0.59745 0.0497 0.0
O107 O 0.71967 0.55726 0.9482 0.0
O108 O 0.62655 0.52664 0.94115 0.0
O109 O 0.69168 0.62048 0.91652 0.0
Sc110 Sc 0.17428 0.68439 0.99118 0.0
Sc111 Sc 0.11243 0.68904 0.9754 0.0
Sc112 Sc 0.10755 0.62426 0.00768 0.0
O113 O 0.13148 0.66596 0.9914 0.0
C114 C 0.15694 0.62647 0.92707 0.0
C115 C 0.16326 0.71559 0.88184 0.0
C116 C 0.07381 0.63294 0.90126 0.0
C117 C 0.16446 0.7302 0.05788 0.0
C118 C 0.15685 0.64208 0.10289 0.0
C119 C 0.07285 0.64775 0.07756 0.0
O120 O 0.17439 0.65218 0.93681 0.0
O121 O 0.13935 0.71031 0.90102 0.0
O122 O 0.08113 0.61816 0.93196 0.0
O123 O 0.17891 0.71868 0.04514 0.0
O124 O 0.13178 0.62664 0.08474 0.0
O125 O 0.0833 0.67061 0.04833 0.0
O126 O 0.17512 0.6633 0.07351 0.0
O127 O 0.13996 0.72177 0.03672 0.0
O128 O 0.07942 0.62905 0.06741 0.0
O129 O 0.17846 0.70756 0.9091 0.0
O130 O 0.1325 0.61391 0.95012 0.0
O131 O 0.08282 0.65878 0.91194 0.0
Sc132 Sc 0.89783 0.5213 0.47162 0.0
Sc133 Sc 0.8943 0.58183 0.50488 0.0
Sc134 Sc 0.83214 0.51564 0.49632 0.0
O135 O 0.87473 0.53965 0.49112 0.0
C136 C 0.84676 0.48937 0.38275 0.0
C137 C 0.9321 0.57922 0.40023 0.0
C138 C 0.84067 0.57001 0.42572 0.0
C139 C 0.93372 0.56363 0.57551 0.0
C140 C 0.8502 0.47527 0.55733 0.0
C141 C 0.84531 0.55994 0.60202 0.0
O142 O 0.87276 0.50086 0.39495 0.0
O143 O 0.92155 0.59173 0.42849 0.0
O144 O 0.82669 0.54401 0.43876 0.0
O145 O 0.9249 0.54081 0.54681 0.0
O146 O 0.83392 0.48542 0.55526 0.0
O147 O 0.86948 0.57771 0.58248 0.0
O148 O 0.87279 0.48506 0.52722 0.0
O149 O 0.92535 0.58105 0.56449 0.0
O150 O 0.82944 0.53684 0.57553 0.0
O151 O 0.92603 0.55428 0.41238 0.0
O152 O 0.82909 0.49105 0.417 0.0
O153 O 0.86514 0.58644 0.44671 0.0
Sc154 Sc 0.36391 0.93019 0.48708 0.0
Sc155 Sc 0.29042 0.90328 0.48741 0.0
Sc156 Sc 0.31853 0.85866 0.46025 0.0
O157 O 0.32421 0.89736 0.47835 0.0
C158 C 0.37068 0.89774 0.37579 0.0
C159 C 0.3332 0.95805 0.41627 0.0
C160 C 0.27134 0.86013 0.37823 0.0
C161 C 0.33173 0.94224 0.59123 0.0
C162 C 0.36978 0.8816 0.55239 0.0
C163 C 0.26941 0.84473 0.55422 0.0
O164 O 0.37811 0.91969 0.40681 0.0
O165 O 0.30837 0.94008 0.43156 0.0
O166 O 0.28788 0.85116 0.39241 0.0
O167 O 0.35357 0.94405 0.56749 0.0
O168 O 0.34867 0.86187 0.52593 0.0
O169 O 0.26845 0.86694 0.54362 0.0
O170 O 0.37785 0.90732 0.54306 0.0
O171 O 0.30737 0.92867 0.56761 0.0
O172 O 0.28659 0.83897 0.5286 0.0
O173 O 0.35485 0.95693 0.43225 0.0
O174 O 0.34983 0.87398 0.38966 0.0
O175 O 0.26956 0.87884 0.40815 0.0
Sc176 Sc 0.47175 0.37849 0.52188 0.0
Sc177 Sc 0.43822 0.30662 0.48623 0.0
Sc178 Sc 0.51175 0.347 0.49196 0.0
O179 O 0.47375 0.34397 0.4998 0.0
C180 C 0.52348 0.4056 0.43589 0.0
C181 C 0.42055 0.34792 0.42847 0.0
C182 C 0.47944 0.30908 0.38126 0.0
C183 C 0.42291 0.33158 0.60052 0.0
C184 C 0.52243 0.38445 0.60498 0.0
C185 C 0.476 0.28658 0.55263 0.0
O186 O 0.50008 0.40341 0.45043 0.0
O187 O 0.42061 0.32486 0.42664 0.0
O188 O 0.50155 0.32932 0.40387 0.0
O189 O 0.44365 0.35632 0.59445 0.0
O190 O 0.52452 0.36494 0.57966 0.0
O191 O 0.45211 0.28465 0.54533 0.0
O192 O 0.50628 0.39313 0.58532 0.0
O193 O 0.41691 0.31206 0.56264 0.0
O194 O 0.49848 0.30667 0.53121 0.0
O195 O 0.43662 0.36808 0.46286 0.0
O196 O 0.53078 0.38803 0.4523 0.0
O197 O 0.45573 0.29734 0.40802 0.0
Sc198 Sc 0.10686 0.47705 0.51342 0.0
Sc199 Sc 0.1114 0.41668 0.48539 0.0
Sc200 Sc 0.17333 0.48341 0.49261 0.0
O201 O 0.13058 0.45902 0.49714 0.0
C202 C 0.15433 0.52312 0.42826 0.0
C203 C 0.0703 0.43207 0.41297 0.0
C204 C 0.16008 0.43991 0.38612 0.0
C205 C 0.07414 0.42068 0.59011 0.0
C206 C 0.15822 0.50972 0.60417 0.0
C207 C 0.1658 0.42883 0.561 0.0
O208 O 0.12978 0.51076 0.45068 0.0
O209 O 0.0803 0.41591 0.42285 0.0
O210 O 0.1752 0.46397 0.40978 0.0
O211 O 0.08085 0.44585 0.57835 0.0
O212 O 0.17575 0.50538 0.57551 0.0
O213 O 0.14025 0.41263 0.54619 0.0
O214 O 0.13321 0.50096 0.58631 0.0
O215 O 0.08348 0.40742 0.56039 0.0
O216 O 0.18005 0.45418 0.54387 0.0
O217 O 0.07813 0.45454 0.44231 0.0
O218 O 0.17236 0.51571 0.43968 0.0
O219 O 0.13723 0.42108 0.40934 0.0
Sc220 Sc 0.63585 0.06529 0.49648 0.0
Sc221 Sc 0.70878 0.09264 0.49569 0.0
Sc222 Sc 0.68021 0.13748 0.51346 0.0
O223 O 0.67512 0.09861 0.50184 0.0
C224 C 0.62643 0.11178 0.43062 0.0
C225 C 0.66678 0.05346 0.39159 0.0
C226 C 0.72903 0.14914 0.42062 0.0
C227 C 0.66723 0.03775 0.56659 0.0
C228 C 0.63072 0.09874 0.60547 0.0
C229 C 0.72854 0.13932 0.5981 0.0
O230 O 0.61855 0.0871 0.44876 0.0
O231 O 0.69051 0.06482 0.41867 0.0
O232 O 0.71221 0.15577 0.44491 0.0
O233 O 0.64591 0.03756 0.54399 0.0
O234 O 0.64863 0.12269 0.58418 0.0
O235 O 0.73035 0.11991 0.57114 0.0
O236 O 0.62488 0.07572 0.58048 0.0
O237 O 0.69208 0.0577 0.55765 0.0
O238 O 0.71131 0.14726 0.58232 0.0
O239 O 0.64525 0.05347 0.41236 0.0
O240 O 0.64987 0.1327 0.44535 0.0
O241 O 0.72979 0.12706 0.43418 0.0
Sc242 Sc 0.53039 0.61968 0.46616 0.0
Sc243 Sc 0.56047 0.6916 0.49508 0.0
Sc244 Sc 0.48619 0.64737 0.49739 0.0
O245 O 0.52565 0.65293 0.48623 0.0
C246 C 0.47847 0.60908 0.3832 0.0
C247 C 0.5775 0.66793 0.3836 0.0
C248 C 0.51752 0.70611 0.42883 0.0
C249 C 0.58074 0.65247 0.55828 0.0
C250 C 0.47958 0.59207 0.55938 0.0
C251 C 0.52131 0.68958 0.60323 0.0
O252 O 0.49967 0.60659 0.39602 0.0
O253 O 0.57976 0.68863 0.41326 0.0
O254 O 0.4955 0.68373 0.4446 0.0
O255 O 0.56204 0.62992 0.53397 0.0
O256 O 0.47224 0.61044 0.55229 0.0
O257 O 0.54503 0.69827 0.57817 0.0
O258 O 0.4999 0.59272 0.53097 0.0
O259 O 0.58315 0.67625 0.54733 0.0
O260 O 0.49804 0.67179 0.57939 0.0
O261 O 0.56118 0.64257 0.39859 0.0
O262 O 0.47015 0.62247 0.41588 0.0
O263 O 0.54217 0.71169 0.44364 0.0
H264 H 0.44122 0.18938 0.13903 0.0
H265 H 0.52624 0.24055 0.07157 0.0
H266 H 0.53299 0.27919 0.13801 0.0
H267 H 0.42562 0.24697 0.16131 0.0
H268 H 0.40662 0.23188 0.23006 0.0
H269 H 0.40696 0.20945 0.17157 0.0
H270 H 0.42596 0.18699 0.2475 0.0
H271 H 0.42561 0.20926 0.30609 0.0
H272 H 0.45768 0.20923 0.28911 0.0
H273 H 0.53205 0.31061 0.21594 0.0
H274 H 0.52477 0.33204 0.30586 0.0
H275 H 0.44071 0.26018 0.3257 0.0
C276 C 0.46103 0.20894 0.13743 0.0
C277 C 0.48316 0.21209 0.1 0.0
C278 C 0.50904 0.23771 0.10005 0.0
C279 C 0.513 0.25985 0.13722 0.0
C280 C 0.49091 0.25597 0.17413 0.0
C281 C 0.46547 0.23116 0.17483 0.0
C282 C 0.44619 0.23153 0.22295 0.0
C283 C 0.41978 0.22986 0.19477 0.0
C284 C 0.43842 0.20786 0.26914 0.0
C285 C 0.46513 0.26011 0.25028 0.0
C286 C 0.49059 0.27402 0.2206 0.0
C287 C 0.51211 0.30008 0.23929 0.0
C288 C 0.50777 0.31202 0.2906 0.0
C289 C 0.48218 0.29776 0.32307 0.0
C290 C 0.46039 0.27174 0.30165 0.0
H291 H 0.20858 0.47302 0.32178 0.0
H292 H 0.13393 0.39021 0.325 0.0
H293 H 0.15165 0.37643 0.23788 0.0
H294 H 0.21563 0.47846 0.15662 0.0
H295 H 0.25349 0.49629 0.15968 0.0
H296 H 0.23405 0.50056 0.21985 0.0
H297 H 0.25863 0.48432 0.29679 0.0
H298 H 0.27801 0.47987 0.23689 0.0
H299 H 0.25674 0.45095 0.28647 0.0
H300 H 0.179 0.36982 0.15754 0.0
H301 H 0.21352 0.37191 0.08391 0.0
H302 H 0.26975 0.45926 0.12952 0.0
C303 C 0.19575 0.45212 0.30368 0.0
C304 C 0.16987 0.43272 0.33055 0.0
C305 C 0.15384 0.40552 0.30547 0.0
C306 C 0.16368 0.39744 0.25585 0.0
C307 C 0.18947 0.41684 0.23131 0.0
C308 C 0.20519 0.44371 0.25383 0.0
C309 C 0.23268 0.46011 0.22013 0.0
C310 C 0.23403 0.48535 0.1871 0.0
C311 C 0.258 0.46934 0.26261 0.0
C312 C 0.23017 0.43799 0.17624 0.0
C313 C 0.20505 0.41321 0.18349 0.0
C314 C 0.19858 0.38921 0.15072 0.0
C315 C 0.21836 0.39056 0.10931 0.0
C316 C 0.24417 0.41578 0.10081 0.0
C317 C 0.24998 0.43983 0.13441 0.0
H318 H 0.78936 0.2647 0.15931 0.0
H319 H 0.86226 0.25329 0.15695 0.0
H320 H 0.84239 0.21979 0.24047 0.0
H321 H 0.7806 0.25999 0.32313 0.0
H322 H 0.74274 0.24121 0.31892 0.0
H323 H 0.76311 0.26546 0.26009 0.0
H324 H 0.73801 0.22609 0.18096 0.0
H325 H 0.71769 0.2017 0.23955 0.0
H326 H 0.73858 0.19379 0.18962 0.0
H327 H 0.81395 0.18538 0.31826 0.0
H328 H 0.77925 0.15365 0.39215 0.0
H329 H 0.72507 0.18781 0.34836 0.0
C330 C 0.80127 0.25537 0.17672 0.0
C331 C 0.82737 0.26166 0.15124 0.0
C332 C 0.84224 0.24891 0.17544 0.0
C333 C 0.83115 0.22979 0.22298 0.0
C334 C 0.80528 0.22376 0.24632 0.0
C335 C 0.79059 0.23629 0.22464 0.0
C336 C 0.76296 0.22561 0.25773 0.0
C337 C 0.76233 0.24949 0.29201 0.0
C338 C 0.73783 0.21092 0.21437 0.0
C339 C 0.76437 0.20484 0.30059 0.0
C340 C 0.78896 0.20414 0.29294 0.0
C341 C 0.79471 0.18588 0.32524 0.0
C342 C 0.77479 0.16784 0.36683 0.0
C343 C 0.74952 0.16833 0.37609 0.0
C344 C 0.74434 0.1872 0.34266 0.0
H345 H 0.55732 0.74697 0.35649 0.0
H346 H 0.47017 0.70991 0.41225 0.0
H347 H 0.46373 0.74103 0.34192 0.0
H348 H 0.57038 0.81923 0.33081 0.0
H349 H 0.59174 0.82416 0.26547 0.0
H350 H 0.59068 0.80175 0.32601 0.0
H351 H 0.5757 0.76081 0.25076 0.0
H352 H 0.57668 0.78302 0.19014 0.0
H353 H 0.54501 0.75018 0.20436 0.0
H354 H 0.46532 0.77244 0.25993 0.0
H355 H 0.47421 0.80108 0.16865 0.0
H356 H 0.56025 0.81743 0.16451 0.0
C357 C 0.53706 0.74586 0.35494 0.0
C358 C 0.51428 0.72615 0.39008 0.0
C359 C 0.48791 0.72486 0.38574 0.0
C360 C 0.4841 0.74256 0.34623 0.0
C361 C 0.50685 0.76141 0.31149 0.0
C362 C 0.53283 0.76321 0.31539 0.0
C363 C 0.55304 0.78341 0.26908 0.0
C364 C 0.57793 0.80864 0.29969 0.0
C365 C 0.56318 0.76845 0.22605 0.0
C366 C 0.53407 0.792 0.23732 0.0
C367 C 0.50767 0.7794 0.26318 0.0
C368 C 0.48599 0.7827 0.23966 0.0
C369 C 0.49125 0.79892 0.1876 0.0
C370 C 0.51794 0.81149 0.15935 0.0
C371 C 0.53975 0.8084 0.18543 0.0
H372 H 0.7253 0.55523 0.19224 0.0
H373 H 0.78228 0.64021 0.13201 0.0
H374 H 0.81486 0.64604 0.2157 0.0
H375 H 0.73852 0.56852 0.35533 0.0
H376 H 0.73569 0.53481 0.36757 0.0
H377 H 0.71575 0.53921 0.3082 0.0
H378 H 0.73752 0.52031 0.23108 0.0
H379 H 0.75769 0.5161 0.28985 0.0
H380 H 0.77524 0.53709 0.22463 0.0
H381 H 0.84355 0.63981 0.29914 0.0
H382 H 0.86466 0.62297 0.37549 0.0
H383 H 0.78766 0.54219 0.37855 0.0
C384 C 0.74442 0.57528 0.1971 0.0
C385 C 0.7514 0.59724 0.15558 0.0
C386 C 0.77651 0.62318 0.16365 0.0
C387 C 0.7951 0.62663 0.21093 0.0
C388 C 0.78792 0.60409 0.24996 0.0
C389 C 0.76293 0.57907 0.24381 0.0
C390 C 0.76061 0.55733 0.2886 0.0
C391 C 0.7362 0.54952 0.33253 0.0
C392 C 0.75761 0.53119 0.25661 0.0
C393 C 0.78871 0.5736 0.31972 0.0
C394 C 0.80413 0.60062 0.29755 0.0
C395 C 0.83146 0.61883 0.31741 0.0
C396 C 0.84329 0.60905 0.36069 0.0
C397 C 0.82785 0.58123 0.38315 0.0
C398 C 0.80009 0.56359 0.36268 0.0
H399 H 0.28018 0.83312 0.28648 0.0
H400 H 0.22095 0.85742 0.3512 0.0
H401 H 0.18811 0.83011 0.26883 0.0
H402 H 0.26477 0.83287 0.1242 0.0
H403 H 0.26905 0.80293 0.1109 0.0
H404 H 0.28896 0.82746 0.16958 0.0
H405 H 0.26961 0.78673 0.24704 0.0
H406 H 0.24949 0.76213 0.18895 0.0
H407 H 0.23211 0.76457 0.2554 0.0
H408 H 0.15962 0.7951 0.18618 0.0
H409 H 0.13901 0.75726 0.11018 0.0
H410 H 0.21797 0.75711 0.1022 0.0
C411 C 0.26052 0.83316 0.28287 0.0
C412 C 0.25303 0.84727 0.32531 0.0
C413 C 0.22715 0.84685 0.31887 0.0
C414 C 0.20838 0.83139 0.27231 0.0
C415 C 0.21612 0.81692 0.23235 0.0
C416 C 0.24178 0.81806 0.2369 0.0
C417 C 0.2446 0.79932 0.19144 0.0
C418 C 0.26824 0.81669 0.14635 0.0
C419 C 0.2492 0.77687 0.22259 0.0
C420 C 0.21607 0.78655 0.16186 0.0
C421 C 0.19996 0.7971 0.1853 0.0
C422 C 0.17223 0.78702 0.16692 0.0
C423 C 0.16069 0.76549 0.12383 0.0
C424 C 0.17684 0.75416 0.10016 0.0
C425 C 0.20499 0.76526 0.11911 0.0
H426 H 0.4847 0.7054 0.64752 0.0
H427 H 0.55896 0.70027 0.69238 0.0
H428 H 0.56334 0.72439 0.78835 0.0
H429 H 0.51091 0.77325 0.69667 0.0
H430 H 0.4785 0.76887 0.72672 0.0
H431 H 0.47763 0.74651 0.66698 0.0
H432 H 0.44621 0.7026 0.73172 0.0
H433 H 0.44685 0.72488 0.79171 0.0
H434 H 0.45777 0.69945 0.8059 0.0
H435 H 0.56391 0.75403 0.87077 0.0
H436 H 0.56108 0.78851 0.936 0.0
H437 H 0.48684 0.77602 0.8392 0.0
C438 C 0.50128 0.70861 0.67863 0.0
C439 C 0.52136 0.70082 0.66317 0.0
C440 C 0.54337 0.70607 0.70374 0.0
C441 C 0.54591 0.71958 0.75843 0.0
C442 C 0.52633 0.72779 0.77176 0.0
C443 C 0.50437 0.72251 0.73328 0.0
C444 C 0.4883 0.73653 0.75546 0.0
C445 C 0.48889 0.75753 0.70868 0.0
C446 C 0.45798 0.71455 0.7722 0.0
C447 C 0.50538 0.75138 0.81093 0.0
C448 C 0.52689 0.74556 0.81986 0.0
C449 C 0.5469 0.75841 0.86499 0.0
C450 C 0.54521 0.7781 0.90154 0.0
C451 C 0.5237 0.78486 0.89272 0.0
C452 C 0.50319 0.77086 0.84759 0.0
H453 H 0.73351 0.5389 0.85499 0.0
H454 H 0.78493 0.62792 0.89246 0.0
H455 H 0.81991 0.63132 0.81839 0.0
H456 H 0.7905 0.52449 0.83199 0.0
H457 H 0.77297 0.50037 0.77108 0.0
H458 H 0.75262 0.50448 0.82944 0.0
H459 H 0.72584 0.51653 0.7493 0.0
H460 H 0.74598 0.51232 0.69072 0.0
H461 H 0.74544 0.5447 0.69681 0.0
H462 H 0.84904 0.6252 0.74057 0.0
H463 H 0.86871 0.61106 0.65743 0.0
H464 H 0.79742 0.52627 0.66743 0.0
C465 C 0.75224 0.55907 0.84797 0.0
C466 C 0.7566 0.58313 0.87971 0.0
C467 C 0.78114 0.60923 0.86854 0.0
C468 C 0.8012 0.61134 0.82686 0.0
C469 C 0.79627 0.58722 0.79644 0.0
C470 C 0.7723 0.56163 0.80599 0.0
C471 C 0.77138 0.53927 0.76496 0.0
C472 C 0.7719 0.51577 0.80157 0.0
C473 C 0.74564 0.52753 0.72296 0.0
C474 C 0.7985 0.55637 0.73052 0.0
C475 C 0.8127 0.58386 0.75002 0.0
C476 C 0.83814 0.60373 0.72486 0.0
C477 C 0.84917 0.59542 0.67769 0.0
C478 C 0.8346 0.56753 0.65562 0.0
C479 C 0.80908 0.54773 0.6831 0.0
H480 H 0.27588 0.80875 0.63018 0.0
H481 H 0.21676 0.83531 0.57532 0.0
H482 H 0.18222 0.80246 0.64826 0.0
H483 H 0.22422 0.73485 0.65924 0.0
H484 H 0.24246 0.73273 0.7249 0.0
H485 H 0.2619 0.75653 0.66465 0.0
H486 H 0.28341 0.79791 0.73998 0.0
H487 H 0.26407 0.77427 0.80041 0.0
H488 H 0.26041 0.80455 0.78606 0.0
H489 H 0.15488 0.76853 0.72764 0.0
H490 H 0.13671 0.73722 0.81502 0.0
H491 H 0.2139 0.73338 0.82346 0.0
C492 C 0.2555 0.80729 0.63308 0.0
C493 C 0.24885 0.8244 0.59702 0.0
C494 C 0.22224 0.82242 0.60272 0.0
C495 C 0.20244 0.80372 0.6437 0.0
C496 C 0.20968 0.78733 0.67897 0.0
C497 C 0.23557 0.789 0.6746 0.0
C498 C 0.23855 0.77039 0.7211 0.0
C499 C 0.24198 0.74725 0.69064 0.0
C500 C 0.26306 0.78783 0.76445 0.0
C501 C 0.21039 0.75832 0.75259 0.0
C502 C 0.19402 0.76815 0.7268 0.0
C503 C 0.16742 0.76059 0.74825 0.0
C504 C 0.15732 0.74276 0.79809 0.0
C505 C 0.17388 0.73282 0.82652 0.0
C506 C 0.20068 0.74052 0.80283 0.0
H507 H 0.43857 0.25035 0.63653 0.0
H508 H 0.51996 0.27672 0.55564 0.0
H509 H 0.52782 0.24717 0.62739 0.0
H510 H 0.45964 0.25261 0.78424 0.0
H511 H 0.42795 0.22211 0.80979 0.0
H512 H 0.42662 0.24214 0.747 0.0
H513 H 0.40415 0.19753 0.68061 0.0
H514 H 0.40515 0.17724 0.74348 0.0
H515 H 0.42149 0.17721 0.67332 0.0
H516 H 0.52968 0.21981 0.71447 0.0
H517 H 0.52426 0.19425 0.80942 0.0
H518 H 0.44153 0.18492 0.83376 0.0
C519 C 0.45768 0.24929 0.63286 0.0
C520 C 0.47861 0.26583 0.59042 0.0
C521 C 0.50362 0.2643 0.58786 0.0
C522 C 0.50828 0.24749 0.62829 0.0
C523 C 0.48766 0.23217 0.6708 0.0
C524 C 0.46272 0.23262 0.67308 0.0
C525 C 0.44498 0.21575 0.72607 0.0
C526 C 0.43949 0.23426 0.76931 0.0
C527 C 0.4173 0.19042 0.70457 0.0
C528 C 0.46427 0.20655 0.75413 0.0
C529 C 0.48867 0.21607 0.72123 0.0
C530 C 0.51048 0.21182 0.74019 0.0
C531 C 0.50727 0.19744 0.79436 0.0
C532 C 0.48244 0.18749 0.8289 0.0
C533 C 0.4606 0.19191 0.80797 0.0
H534 H 0.15375 0.40698 0.67528 0.0
H535 H 0.21264 0.42823 0.52833 0.0
H536 H 0.24284 0.41731 0.59217 0.0
H537 H 0.20372 0.44014 0.78453 0.0
H538 H 0.186 0.41514 0.84409 0.0
H539 H 0.16593 0.41864 0.78403 0.0
H540 H 0.14314 0.36561 0.7608 0.0
H541 H 0.16309 0.36189 0.82119 0.0
H542 H 0.16527 0.35072 0.74625 0.0
H543 H 0.26989 0.41139 0.67412 0.0
H544 H 0.2926 0.41148 0.77056 0.0
H545 H 0.2174 0.39497 0.86679 0.0
C546 C 0.17246 0.4082 0.65622 0.0
C547 C 0.18074 0.41781 0.59678 0.0
C548 C 0.20589 0.42045 0.57362 0.0
C549 C 0.22309 0.41422 0.60945 0.0
C550 C 0.21489 0.40555 0.66853 0.0
C551 C 0.19015 0.40244 0.69192 0.0
C552 C 0.18815 0.39633 0.75893 0.0
C553 C 0.18583 0.41891 0.79498 0.0
C554 C 0.16344 0.36688 0.77259 0.0
C555 C 0.21613 0.39772 0.76987 0.0
C556 C 0.23093 0.40249 0.71678 0.0
C557 C 0.25827 0.40697 0.71578 0.0
C558 C 0.27101 0.40701 0.77054 0.0
C559 C 0.2564 0.40261 0.82525 0.0
C560 C 0.22854 0.39753 0.82501 0.0
H561 H 0.78969 0.25157 0.86016 0.0
H562 H 0.86001 0.23667 0.87684 0.0
H563 H 0.83839 0.1996 0.79911 0.0
H564 H 0.73541 0.17977 0.83743 0.0
H565 H 0.71666 0.18914 0.78404 0.0
H566 H 0.73723 0.21332 0.84264 0.0
H567 H 0.76526 0.25161 0.76252 0.0
H568 H 0.74476 0.22758 0.70374 0.0
H569 H 0.78257 0.24417 0.70254 0.0
H570 H 0.8087 0.16455 0.71648 0.0
H571 H 0.77523 0.13669 0.63561 0.0
H572 H 0.72565 0.17615 0.6756 0.0
C573 C 0.8006 0.24045 0.84815 0.0
C574 C 0.82655 0.24702 0.875 0.0
C575 C 0.84008 0.23201 0.85708 0.0
C576 C 0.82792 0.21088 0.81306 0.0
C577 C 0.8023 0.20508 0.78751 0.0
C578 C 0.7889 0.21956 0.80453 0.0
C579 C 0.76216 0.21037 0.76921 0.0
C580 C 0.73634 0.19737 0.81082 0.0
C581 C 0.76381 0.23489 0.73232 0.0
C582 C 0.76255 0.18852 0.72908 0.0
C583 C 0.78568 0.1855 0.7403 0.0
C584 C 0.79049 0.16673 0.70755 0.0
C585 C 0.77133 0.15095 0.66178 0.0
C586 C 0.74779 0.15423 0.64901 0.0
C587 C 0.74339 0.17309 0.68386 0.0
H588 H 0.34285 0.95596 0.29943 0.0
H589 H 0.3337 0.00747 0.43379 0.0
H590 H 0.34713 0.04547 0.35806 0.0
H591 H 0.40268 0.00705 0.23674 0.0
H592 H 0.39423 0.99476 0.16029 0.0
H593 H 0.37888 0.97045 0.22152 0.0
H594 H 0.32895 0.95504 0.18035 0.0
H595 H 0.34421 0.97936 0.1186 0.0
H596 H 0.31874 0.98104 0.16671 0.0
H597 H 0.36851 0.07993 0.27066 0.0
H598 H 0.39632 0.10731 0.18207 0.0
H599 H 0.3901 0.03178 0.1073 0.0
C600 C 0.34284 0.97496 0.31208 0.0
C601 C 0.33706 0.97904 0.37138 0.0
C602 C 0.33777 0.00415 0.38777 0.0
C603 C 0.34529 0.02567 0.34515 0.0
C604 C 0.35155 0.0213 0.28672 0.0
C605 C 0.35007 0.99634 0.27024 0.0
C606 C 0.36059 0.99759 0.20717 0.0
C607 C 0.38557 0.99216 0.20646 0.0
C608 C 0.33669 0.97704 0.16577 0.0
C609 C 0.36962 0.02759 0.19156 0.0
C610 C 0.36382 0.04094 0.23718 0.0
C611 C 0.37263 0.06954 0.23416 0.0
C612 C 0.38834 0.08491 0.18384 0.0
C613 C 0.39531 0.07156 0.13831 0.0
C614 C 0.38503 0.04248 0.14161 0.0
H615 H 0.40048 0.32548 0.31697 0.0
H616 H 0.39554 0.3786 0.45437 0.0
H617 H 0.36298 0.38603 0.39046 0.0
H618 H 0.40489 0.36783 0.19699 0.0
H619 H 0.3847 0.33964 0.14513 0.0
H620 H 0.40351 0.33457 0.20566 0.0
H621 H 0.35724 0.29131 0.24176 0.0
H622 H 0.3382 0.2965 0.18149 0.0
H623 H 0.32714 0.29502 0.25833 0.0
H624 H 0.33545 0.39195 0.30884 0.0
H625 H 0.31909 0.39998 0.21079 0.0
H626 H 0.34286 0.34454 0.12465 0.0
C627 C 0.39199 0.33813 0.334 0.0
C628 C 0.4003 0.3513 0.39066 0.0
C629 C 0.38943 0.36835 0.41097 0.0
C630 C 0.3707 0.37245 0.3753 0.0
C631 C 0.36313 0.35944 0.31931 0.0
C632 C 0.37362 0.34283 0.29846 0.0
C633 C 0.36508 0.33429 0.23367 0.0
C634 C 0.39109 0.34472 0.19299 0.0
C635 C 0.34576 0.30238 0.22853 0.0
C636 C 0.3491 0.34959 0.2207 0.0
C637 C 0.34755 0.36333 0.27127 0.0
C638 C 0.33593 0.38079 0.26928 0.0
C639 C 0.32655 0.38513 0.21369 0.0
C640 C 0.32903 0.37215 0.16126 0.0
C641 C 0.33982 0.35373 0.16492 0.0
H642 H 0.04493 0.38536 0.33782 0.0
H643 H 0.04602 0.46295 0.38091 0.0
H644 H 0.00988 0.45247 0.3047 0.0
H645 H 0.03549 0.38857 0.17753 0.0
H646 H 0.01213 0.35137 0.16912 0.0
H647 H 0.03813 0.36432 0.22821 0.0
H648 H 0.99901 0.33766 0.30723 0.0
H649 H 0.97288 0.32468 0.24837 0.0
H650 H 0.96968 0.34374 0.31073 0.0
H651 H 0.9746 0.43506 0.22477 0.0
H652 H 0.94153 0.41136 0.14204 0.0
H653 H 0.96146 0.3442 0.14722 0.0
C654 C 0.03753 0.4001 0.33124 0.0
C655 C 0.04846 0.42498 0.36585 0.0
C656 C 0.03815 0.44371 0.35549 0.0
C657 C 0.0175 0.43797 0.31217 0.0
C658 C 0.00718 0.41339 0.27918 0.0
C659 C 0.01672 0.39469 0.2878 0.0
C660 C 0.00197 0.36998 0.24499 0.0
C661 C 0.0232 0.36848 0.20244 0.0
C662 C 0.98487 0.34238 0.27993 0.0
C663 C 0.98282 0.37794 0.21116 0.0
C664 C 0.98633 0.4031 0.23201 0.0
C665 C 0.97161 0.41533 0.20792 0.0
C666 C 0.9529 0.40167 0.16068 0.0
C667 C 0.9489 0.37591 0.13776 0.0
C668 C 0.96393 0.36376 0.16389 0.0
H669 H 0.57732 0.9648 0.11242 0.0
H670 H 0.63361 0.93096 0.10089 0.0
H671 H 0.66455 0.96488 0.17733 0.0
H672 H 0.63152 0.03866 0.14049 0.0
H673 H 0.60949 0.04362 0.19312 0.0
H674 H 0.59383 0.01929 0.13173 0.0
H675 H 0.56354 0.97961 0.20739 0.0
H676 H 0.57904 0.00378 0.26881 0.0
H677 H 0.5806 0.97184 0.26784 0.0
H678 H 0.68743 0.0 0.2607 0.0
H679 H 0.69834 0.0311 0.34895 0.0
H680 H 0.62634 0.04075 0.30666 0.0
C681 C 0.59647 0.96493 0.125 0.0
C682 C 0.60315 0.94539 0.10048 0.0
C683 C 0.62807 0.94577 0.11916 0.0
C684 C 0.64589 0.96508 0.16222 0.0
C685 C 0.63848 0.98382 0.18617 0.0
C686 C 0.61431 0.98383 0.16833 0.0
C687 C 0.60964 0.00419 0.20504 0.0
C688 C 0.61122 0.02785 0.16521 0.0
C689 C 0.58155 0.98894 0.2393 0.0
C690 C 0.63451 0.01504 0.24736 0.0
C691 C 0.65124 0.0035 0.23514 0.0
C692 C 0.67466 0.00942 0.27035 0.0
C693 C 0.68074 0.02714 0.32025 0.0
C694 C 0.66315 0.03824 0.33472 0.0
C695 C 0.64018 0.03254 0.29683 0.0
H696 H 0.61192 0.61045 0.09662 0.0
H697 H 0.70031 0.66917 0.12957 0.0
H698 H 0.68699 0.69387 0.20392 0.0
H699 H 0.58513 0.66009 0.12051 0.0
H700 H 0.55395 0.63313 0.15691 0.0
H701 H 0.5705 0.62397 0.09829 0.0
H702 H 0.57423 0.58881 0.1706 0.0
H703 H 0.55772 0.59785 0.22899 0.0
H704 H 0.59164 0.60106 0.24218 0.0
H705 H 0.66365 0.7078 0.28476 0.0
H706 H 0.63305 0.70731 0.36724 0.0
H707 H 0.56091 0.63841 0.28068 0.0
C708 C 0.62861 0.62888 0.11831 0.0
C709 C 0.65718 0.63785 0.10726 0.0
C710 C 0.67825 0.66197 0.13712 0.0
C711 C 0.67088 0.67621 0.17917 0.0
C712 C 0.6424 0.66622 0.19014 0.0
C713 C 0.62164 0.64312 0.16017 0.0
C714 C 0.59276 0.63417 0.18463 0.0
C715 C 0.57452 0.63809 0.13725 0.0
C716 C 0.57827 0.6037 0.20801 0.0
C717 C 0.60051 0.65491 0.23526 0.0
C718 C 0.6291 0.6738 0.23697 0.0
C719 C 0.6412 0.69346 0.28314 0.0
C720 C 0.62373 0.69312 0.32963 0.0
C721 C 0.59477 0.67284 0.32978 0.0
C722 C 0.58301 0.65422 0.28112 0.0
H723 H 0.96105 0.56038 0.33273 0.0
H724 H 0.94959 0.63233 0.35756 0.0
H725 H 0.98427 0.65761 0.27747 0.0
H726 H 0.03524 0.59917 0.3068 0.0
H727 H 0.03459 0.57524 0.25085 0.0
H728 H 0.00855 0.56262 0.30955 0.0
H729 H 0.9688 0.54275 0.22945 0.0
H730 H 0.99472 0.55525 0.17049 0.0
H731 H 0.96841 0.5657 0.17184 0.0
H732 H 0.02038 0.67515 0.19538 0.0
H733 H 0.05531 0.68373 0.11666 0.0
H734 H 0.04313 0.60025 0.14628 0.0
C735 C 0.96572 0.58143 0.32139 0.0
C736 C 0.95255 0.59434 0.35158 0.0
C737 C 0.95939 0.62196 0.3352 0.0
C738 C 0.97905 0.6365 0.28975 0.0
C739 C 0.99169 0.62316 0.26119 0.0
C740 C 0.9853 0.59625 0.27633 0.0
C741 C 0.00194 0.58669 0.23897 0.0
C742 C 0.02122 0.58058 0.27893 0.0
C743 C 0.98229 0.56109 0.2004 0.0
C744 C 0.01877 0.61251 0.20052 0.0
C745 C 0.01253 0.63328 0.21397 0.0
C746 C 0.02544 0.65904 0.18438 0.0
C747 C 0.04527 0.66369 0.13971 0.0
C748 C 0.05202 0.64267 0.12512 0.0
C749 C 0.03852 0.61679 0.15623 0.0
H750 H 0.61718 0.99055 0.58765 0.0
H751 H 0.7052 0.03224 0.63941 0.0
H752 H 0.69403 0.99564 0.71677 0.0
H753 H 0.59115 0.97814 0.72811 0.0
H754 H 0.56043 0.94473 0.71238 0.0
H755 H 0.57644 0.9701 0.65329 0.0
H756 H 0.58176 0.93371 0.58928 0.0
H757 H 0.56573 0.90813 0.6486 0.0
H758 H 0.59986 0.91675 0.62032 0.0
H759 H 0.67166 0.95854 0.79868 0.0
H760 H 0.64035 0.92746 0.87942 0.0
H761 H 0.56759 0.91219 0.77399 0.0
C762 C 0.63436 0.99172 0.61402 0.0
C763 C 0.66209 0.0143 0.60736 0.0
C764 C 0.6838 0.01505 0.6434 0.0
C765 C 0.67766 0.99427 0.68728 0.0
C766 C 0.6498 0.97281 0.69396 0.0
C767 C 0.62857 0.97143 0.65789 0.0
C768 C 0.59989 0.94886 0.67858 0.0
C769 C 0.5809 0.96121 0.69404 0.0
C770 C 0.586 0.92548 0.63138 0.0
C771 C 0.60806 0.93867 0.73402 0.0
C772 C 0.63694 0.95202 0.74144 0.0
C773 C 0.64908 0.94756 0.79261 0.0
C774 C 0.63121 0.92984 0.83809 0.0
C775 C 0.60172 0.91746 0.83226 0.0
C776 C 0.59013 0.92122 0.77886 0.0
H777 H 0.62478 0.58 0.81171 0.0
H778 H 0.69847 0.66118 0.84592 0.0
H779 H 0.68632 0.68088 0.75813 0.0
H780 H 0.62728 0.58528 0.64551 0.0
H781 H 0.58949 0.56742 0.6396 0.0
H782 H 0.6059 0.55926 0.7007 0.0
H783 H 0.57719 0.5702 0.77706 0.0
H784 H 0.5609 0.57867 0.71646 0.0
H785 H 0.57933 0.60398 0.77495 0.0
H786 H 0.66264 0.69284 0.67509 0.0
H787 H 0.63122 0.69545 0.59866 0.0
H788 H 0.57395 0.60594 0.61801 0.0
C789 C 0.63867 0.60183 0.80022 0.0
C790 C 0.66252 0.61911 0.83571 0.0
C791 C 0.68018 0.64753 0.8191 0.0
C792 C 0.67342 0.6589 0.76942 0.0
C793 C 0.64924 0.64141 0.73648 0.0
C794 C 0.6324 0.61337 0.7507 0.0
C795 C 0.60684 0.59932 0.71024 0.0
C796 C 0.60743 0.57648 0.67172 0.0
C797 C 0.57946 0.58736 0.74688 0.0
C798 C 0.61139 0.62408 0.67227 0.0
C799 C 0.636 0.64815 0.68783 0.0
C800 C 0.64358 0.67404 0.66177 0.0
C801 C 0.62552 0.67533 0.61869 0.0
C802 C 0.60023 0.65087 0.60206 0.0
C803 C 0.59334 0.62493 0.62897 0.0
H804 H 0.96097 0.61108 0.64653 0.0
H805 H 0.95448 0.53022 0.61291 0.0
H806 H 0.98996 0.54004 0.69074 0.0
H807 H 0.03593 0.64931 0.67311 0.0
H808 H 0.03411 0.67055 0.73248 0.0
H809 H 0.00802 0.65756 0.67356 0.0
H810 H 0.96848 0.6344 0.75319 0.0
H811 H 0.99443 0.64739 0.81235 0.0
H812 H 0.96943 0.6104 0.80732 0.0
H813 H 0.02541 0.55763 0.77101 0.0
H814 H 0.05915 0.58214 0.85235 0.0
H815 H 0.04368 0.65208 0.83609 0.0
C816 C 0.967 0.59544 0.65555 0.0
C817 C 0.95488 0.56989 0.62331 0.0
C818 C 0.96339 0.54999 0.63666 0.0
C819 C 0.98359 0.55534 0.68085 0.0
C820 C 0.99515 0.58067 0.71144 0.0
C821 C 0.98724 0.60043 0.6997 0.0
C822 C 0.00303 0.62586 0.73994 0.0
C823 C 0.02136 0.65238 0.70252 0.0
C824 C 0.98262 0.62973 0.78061 0.0
C825 C 0.0209 0.61713 0.77604 0.0
C826 C 0.01594 0.59099 0.75857 0.0
C827 C 0.02952 0.57812 0.78527 0.0
C828 C 0.04862 0.59225 0.8316 0.0
C829 C 0.05403 0.61904 0.8509 0.0
C830 C 0.04008 0.63169 0.82228 0.0
H831 H 0.37305 0.95646 0.674 0.0
H832 H 0.30055 0.96525 0.63255 0.0
H833 H 0.31334 -0.00086 0.71633 0.0
H834 H 0.37129 0.96354 0.83923 0.0
H835 H 0.40913 0.98275 0.84402 0.0
H836 H 0.39194 0.95675 0.78618 0.0
H837 H 0.42093 0.99399 0.70522 0.0
H838 H 0.4379 0.02024 0.76242 0.0
H839 H 0.4195 0.026 0.70165 0.0
H840 H 0.33809 0.03675 0.79622 0.0
H841 H 0.36988 0.07129 0.87122 0.0
H842 H 0.4254 0.03654 0.85862 0.0
C843 C 0.35948 0.96503 0.68332 0.0
C844 C 0.33585 0.95833 0.64691 0.0
C845 C 0.3186 0.96995 0.6604 0.0
C846 C 0.32579 0.98929 0.70763 0.0
C847 C 0.34997 0.9963 0.74115 0.0
C848 C 0.36622 0.98408 0.73016 0.0
C849 C 0.39195 0.99606 0.77005 0.0
C850 C 0.391 0.97342 0.81239 0.0
C851 C 0.41916 0.00989 0.73257 0.0
C852 C 0.38817 0.0176 0.80415 0.0
C853 C 0.36386 0.01746 0.7872 0.0
C854 C 0.35694 0.03672 0.81052 0.0
C855 C 0.37522 0.05638 0.85274 0.0
C856 C 0.40008 0.05656 0.87107 0.0
C857 C 0.40645 0.03683 0.8462 0.0
H858 H 0.38515 0.37765 0.9025 0.0
H859 H 0.29701 0.32474 0.85645 0.0
H860 H 0.31048 0.30298 0.77545 0.0
H861 H 0.40835 0.39462 0.75982 0.0
H862 H 0.44135 0.39559 0.77138 0.0
H863 H 0.42454 0.40215 0.83325 0.0
H864 H 0.42501 0.36217 0.89453 0.0
H865 H 0.44207 0.35558 0.83271 0.0
H866 H 0.40967 0.32751 0.86268 0.0
H867 H 0.33443 0.29205 0.69044 0.0
H868 H 0.36611 0.29484 0.60823 0.0
H869 H 0.43785 0.35687 0.70956 0.0
C870 C 0.36847 0.36093 0.87671 0.0
C871 C 0.33998 0.35287 0.88606 0.0
C872 C 0.31898 0.33114 0.85048 0.0
C873 C 0.32644 0.31862 0.80446 0.0
C874 C 0.35492 0.32797 0.79503 0.0
C875 C 0.37555 0.34858 0.83057 0.0
C876 C 0.40469 0.3578 0.80712 0.0
C877 C 0.42063 0.38939 0.79197 0.0
C878 C 0.42133 0.3503 0.85193 0.0
C879 C 0.39733 0.34007 0.75115 0.0
C880 C 0.36861 0.32242 0.7455 0.0
C881 C 0.35695 0.30546 0.69498 0.0
C882 C 0.37507 0.30714 0.64858 0.0
C883 C 0.40435 0.32611 0.65272 0.0
C884 C 0.41553 0.34215 0.70533 0.0
H885 H 0.96355 0.40081 0.84475 0.0
H886 H 0.94716 0.31537 0.86589 0.0
H887 H 0.98294 0.32425 0.78933 0.0
H888 H 0.97366 0.40516 0.68554 0.0
H889 H 0.00154 0.44124 0.68634 0.0
H890 H 0.97499 0.42844 0.74394 0.0
H891 H 0.01374 0.44498 0.82594 0.0
H892 H 0.04042 0.45773 0.76853 0.0
H893 H 0.03879 0.43289 0.82375 0.0
H894 H 0.01976 0.34182 0.70967 0.0
H895 H 0.05487 0.36695 0.63042 0.0
H896 H 0.04757 0.441 0.66142 0.0
C897 C 0.96744 0.38394 0.83332 0.0
C898 C 0.95248 0.35739 0.86147 0.0
C899 C 0.95834 0.33593 0.84518 0.0
C900 C 0.97866 0.34074 0.80175 0.0
C901 C 0.99306 0.36713 0.77513 0.0
C902 C 0.98777 0.38839 0.7902 0.0
C903 C 0.00604 0.41474 0.75419 0.0
C904 C 0.98797 0.42286 0.71518 0.0
C905 C 0.02592 0.43901 0.79558 0.0
C906 C 0.0221 0.40478 0.71603 0.0
C907 C 0.0144 0.37731 0.72906 0.0
C908 C 0.02605 0.36338 0.69909 0.0
C909 C 0.04598 0.37785 0.65412 0.0
C910 C 0.05401 0.40597 0.63949 0.0
C911 C 0.04198 0.41956 0.67143 0.0
H912 H 0.57075 0.15522 0.13966 0.0
H913 H 0.48692 0.0977 0.20615 0.0
H914 H 0.50706 0.09231 0.30086 0.0
H915 H 0.60183 0.11782 0.19496 0.0
H916 H 0.63504 0.14775 0.21577 0.0
H917 H 0.61437 0.15082 0.15636 0.0
H918 H 0.61465 0.19222 0.21202 0.0
H919 H 0.63547 0.18933 0.27157 0.0
H920 H 0.60261 0.18767 0.28879 0.0
H921 H 0.53508 0.08803 0.38125 0.0
H922 H 0.57029 0.08565 0.44598 0.0
H923 H 0.63713 0.14611 0.33135 0.0
C924 C 0.55673 0.14216 0.17498 0.0
C925 C 0.52729 0.12696 0.16585 0.0
C926 C 0.50953 0.10947 0.21227 0.0
C927 C 0.52075 0.10638 0.26635 0.0
C928 C 0.54981 0.12094 0.27348 0.0
C929 C 0.56767 0.13859 0.22945 0.0
C930 C 0.59821 0.14964 0.24707 0.0
C931 C 0.61323 0.14098 0.20079 0.0
C932 C 0.61365 0.18162 0.25536 0.0
C933 C 0.59454 0.13469 0.30681 0.0
C934 C 0.56637 0.1185 0.32114 0.0
C935 C 0.55723 0.10098 0.37124 0.0
C936 C 0.57737 0.09966 0.4075 0.0
C937 C 0.60634 0.11583 0.39379 0.0
C938 C 0.61512 0.13398 0.34338 0.0
H939 H 0.35518 0.5006 0.16911 0.0
H940 H 0.42109 0.51802 0.04033 0.0
H941 H 0.45525 0.55713 0.10314 0.0
H942 H 0.38204 0.57498 0.21868 0.0
H943 H 0.37301 0.56493 0.29626 0.0
H944 H 0.35237 0.54117 0.23696 0.0
H945 H 0.36081 0.50274 0.28318 0.0
H946 H 0.38146 0.52632 0.34246 0.0
H947 H 0.39633 0.51019 0.29618 0.0
H948 H 0.48318 0.5896 0.18269 0.0
H949 H 0.50434 0.61385 0.27778 0.0
H950 H 0.42162 0.57653 0.3591 0.0
C951 C 0.37665 0.51328 0.15371 0.0
C952 C 0.38563 0.50672 0.09978 0.0
C953 C 0.41396 0.52298 0.08147 0.0
C954 C 0.43343 0.54527 0.11663 0.0
C955 C 0.42425 0.55095 0.17023 0.0
C956 C 0.39661 0.53552 0.18903 0.0
C957 C 0.39328 0.54427 0.25186 0.0
C958 C 0.37403 0.55711 0.25085 0.0
C959 C 0.38233 0.5194 0.29601 0.0
C960 C 0.4235 0.56632 0.26587 0.0
C961 C 0.44081 0.57001 0.21752 0.0
C962 C 0.46984 0.58734 0.22051 0.0
C963 C 0.48167 0.60093 0.27472 0.0
C964 C 0.46455 0.59722 0.32527 0.0
C965 C 0.43502 0.58018 0.32052 0.0
H966 H 0.87763 0.49541 0.28331 0.0
H967 H 0.79497 0.44301 0.36059 0.0
H968 H 0.7835 0.40867 0.27825 0.0
H969 H 0.85669 0.4782 0.12139 0.0
H970 H 0.88914 0.47891 0.10454 0.0
H971 H 0.88831 0.5014 0.16226 0.0
H972 H 0.90905 0.48078 0.23834 0.0
H973 H 0.90951 0.45789 0.18155 0.0
H974 H 0.89106 0.44342 0.25115 0.0
H975 H 0.78454 0.37678 0.19723 0.0
H976 H 0.79675 0.35157 0.12222 0.0
H977 H 0.8791 0.42558 0.10043 0.0
C978 C 0.85678 0.47711 0.282 0.0
C979 C 0.83716 0.4718 0.32819 0.0
C980 C 0.81017 0.44759 0.32517 0.0
C981 C 0.80355 0.42796 0.27872 0.0
C982 C 0.82401 0.43322 0.23545 0.0
C983 C 0.84992 0.45751 0.23625 0.0
C984 C 0.86933 0.45726 0.18856 0.0
C985 C 0.87626 0.48031 0.14138 0.0
C986 C 0.89631 0.45998 0.21661 0.0
C987 C 0.85082 0.42845 0.16241 0.0
C988 C 0.82462 0.41498 0.18924 0.0
C989 C 0.80479 0.38735 0.17512 0.0
C990 C 0.81198 0.37316 0.13265 0.0
C991 C 0.8389 0.38657 0.10523 0.0
C992 C 0.85828 0.4147 0.12007 0.0
H993 H 0.37319 0.85571 0.31402 0.0
H994 H 0.4061 0.94575 0.31502 0.0
H995 H 0.43607 0.95101 0.22822 0.0
H996 H 0.43743 0.85871 0.28053 0.0
H997 H 0.42233 0.82843 0.23213 0.0
H998 H 0.40157 0.83115 0.2914 0.0
H999 H 0.36353 0.82497 0.21381 0.0
H1000 H 0.38414 0.82211 0.15425 0.0
H1001 H 0.3734 0.84812 0.14969 0.0
H1002 H 0.4645 0.94724 0.14621 0.0
H1003 H 0.48974 0.93467 0.07282 0.0
H1004 H 0.43891 0.84698 0.12413 0.0
C1005 C 0.38641 0.87647 0.29544 0.0
C1006 C 0.38733 0.90032 0.32148 0.0
C1007 C 0.40517 0.92718 0.29621 0.0
C1008 C 0.4222 0.93039 0.24669 0.0
C1009 C 0.42117 0.90657 0.22282 0.0
C1010 C 0.40373 0.88011 0.24608 0.0
C1011 C 0.40773 0.85819 0.2135 0.0
C1012 C 0.41787 0.84325 0.25699 0.0
C1013 C 0.38058 0.83711 0.18087 0.0
C1014 C 0.43052 0.8766 0.16916 0.0
C1015 C 0.43776 0.90438 0.17511 0.0
C1016 C 0.45889 0.92552 0.14071 0.0
C1017 C 0.47316 0.91813 0.0992 0.0
C1018 C 0.46634 0.88979 0.09243 0.0
C1019 C 0.44453 0.86879 0.12776 0.0
H1020 H 0.58122 0.50016 0.14123 0.0
H1021 H 0.66425 0.52037 0.20404 0.0
H1022 H 0.64407 0.49727 0.30074 0.0
H1023 H 0.55329 0.50654 0.28921 0.0
H1024 H 0.51889 0.47687 0.27511 0.0
H1025 H 0.54001 0.49825 0.21331 0.0
H1026 H 0.5357 0.4542 0.16136 0.0
H1027 H 0.51452 0.43274 0.22276 0.0
H1028 H 0.54601 0.43232 0.20192 0.0
H1029 H 0.61559 0.46898 0.3853 0.0
H1030 H 0.57955 0.43393 0.45242 0.0
H1031 H 0.51385 0.43041 0.33728 0.0
C1032 C 0.59512 0.5001 0.17587 0.0
C1033 C 0.62428 0.51206 0.16532 0.0
C1034 C 0.64182 0.51116 0.2111 0.0
C1035 C 0.63061 0.49834 0.26638 0.0
C1036 C 0.60178 0.48641 0.27519 0.0
C1037 C 0.58416 0.48697 0.23133 0.0
C1038 C 0.5536 0.47007 0.25069 0.0
C1039 C 0.54069 0.48907 0.25749 0.0
C1040 C 0.53646 0.4459 0.20657 0.0
C1041 C 0.55686 0.45922 0.31135 0.0
C1042 C 0.58494 0.46945 0.32477 0.0
C1043 C 0.59355 0.46109 0.37584 0.0
C1044 C 0.57293 0.44113 0.41353 0.0
C1045 C 0.54403 0.42966 0.40003 0.0
C1046 C 0.53583 0.43934 0.34914 0.0
H1047 H 0.11965 0.54058 0.38029 0.0
H1048 H 0.20633 0.55896 0.38 0.0
H1049 H 0.21823 0.59669 0.3056 0.0
H1050 H 0.11444 0.54738 0.22692 0.0
H1051 H 0.09225 0.5628 0.23199 0.0
H1052 H 0.09172 0.5401 0.29095 0.0
H1053 H 0.10358 0.57935 0.3692 0.0
H1054 H 0.10425 0.6022 0.3101 0.0
H1055 H 0.13433 0.61336 0.35872 0.0
H1056 H 0.21957 0.6296 0.22388 0.0
H1057 H 0.20921 0.65205 0.13822 0.0
H1058 H 0.12183 0.61146 0.19344 0.0
C1059 C 0.14128 0.55285 0.36561 0.0
C1060 C 0.16205 0.54683 0.38628 0.0
C1061 C 0.19001 0.56316 0.36494 0.0
C1062 C 0.19704 0.58478 0.32294 0.0
C1063 C 0.17592 0.5899 0.30298 0.0
C1064 C 0.1486 0.57435 0.3237 0.0
C1065 C 0.12918 0.58209 0.29135 0.0
C1066 C 0.10553 0.55659 0.25834 0.0
C1067 C 0.11714 0.59503 0.33496 0.0
C1068 C 0.14962 0.60376 0.24774 0.0
C1069 C 0.17661 0.60846 0.25569 0.0
C1070 C 0.19858 0.62637 0.21776 0.0
C1071 C 0.19257 0.63911 0.1694 0.0
C1072 C 0.16475 0.63343 0.15922 0.0
C1073 C 0.14334 0.61622 0.20011 0.0
H1074 H 0.48131 0.90771 0.81203 0.0
H1075 H 0.44649 0.81738 0.81708 0.0
H1076 H 0.41533 0.81214 0.7321 0.0
H1077 H 0.41737 0.90614 0.78237 0.0
H1078 H 0.43229 0.93602 0.73254 0.0
H1079 H 0.45363 0.93318 0.79075 0.0
H1080 H 0.4901 0.93777 0.71114 0.0
H1081 H 0.46893 0.94081 0.65266 0.0
H1082 H 0.47872 0.91411 0.64801 0.0
H1083 H 0.38607 0.81611 0.65154 0.0
H1084 H 0.36079 0.8291 0.57834 0.0
H1085 H 0.41421 0.91693 0.62521 0.0
C1086 C 0.46745 0.88687 0.79468 0.0
C1087 C 0.46637 0.86296 0.82126 0.0
C1088 C 0.44766 0.83601 0.79765 0.0
C1089 C 0.42991 0.8328 0.74927 0.0
C1090 C 0.43112 0.85672 0.72493 0.0
C1091 C 0.44945 0.88324 0.74655 0.0
C1092 C 0.44561 0.90532 0.71381 0.0
C1093 C 0.43669 0.92108 0.75748 0.0
C1094 C 0.47244 0.9257 0.67935 0.0
C1095 C 0.42195 0.88694 0.67114 0.0
C1096 C 0.41407 0.85902 0.67816 0.0
C1097 C 0.39217 0.83793 0.6452 0.0
C1098 C 0.37788 0.84556 0.60382 0.0
C1099 C 0.38549 0.87407 0.59578 0.0
C1100 C 0.40794 0.89498 0.62992 0.0
H1101 H 0.5919 0.50161 0.85794 0.0
H1102 H 0.64721 0.46857 0.90017 0.0
H1103 H 0.62246 0.43117 0.82493 0.0
H1104 H 0.52856 0.43472 0.83353 0.0
H1105 H 0.51673 0.44777 0.77218 0.0
H1106 H 0.53794 0.47113 0.83139 0.0
H1107 H 0.57404 0.50434 0.75254 0.0
H1108 H 0.55298 0.48115 0.69309 0.0
H1109 H 0.58937 0.49064 0.70078 0.0
H1110 H 0.59252 0.39821 0.74335 0.0
H1111 H 0.56056 0.3729 0.65909 0.0
H1112 H 0.52533 0.42806 0.67028 0.0
C1113 C 0.59872 0.4864 0.85191 0.0
C1114 C 0.62145 0.48798 0.88522 0.0
C1115 C 0.62984 0.46779 0.87527 0.0
C1116 C 0.61587 0.44642 0.83277 0.0
C1117 C 0.59361 0.44557 0.80067 0.0
C1118 C 0.58512 0.46505 0.80967 0.0
C1119 C 0.56131 0.46016 0.76779 0.0
C1120 C 0.53455 0.45301 0.80336 0.0
C1121 C 0.56995 0.48558 0.72608 0.0
C1122 C 0.5579 0.43501 0.73335 0.0
C1123 C 0.57658 0.42679 0.75326 0.0
C1124 C 0.57772 0.40437 0.72749 0.0
C1125 C 0.55946 0.39013 0.67963 0.0
C1126 C 0.5404 0.39846 0.6579 0.0
C1127 C 0.53955 0.42106 0.68576 0.0
H1128 H 0.12456 0.50482 0.69749 0.0
H1129 H 0.21065 0.55311 0.63499 0.0
H1130 H 0.22161 0.5863 0.71961 0.0
H1131 H 0.11545 0.55984 0.73043 0.0
H1132 H 0.09412 0.54473 0.79649 0.0
H1133 H 0.09449 0.52227 0.73852 0.0
H1134 H 0.10942 0.49687 0.8159 0.0
H1135 H 0.10874 0.51898 0.87469 0.0
H1136 H 0.14012 0.51699 0.86209 0.0
H1137 H 0.22053 0.61801 0.80107 0.0
H1138 H 0.20862 0.64368 0.87549 0.0
H1139 H 0.12312 0.57355 0.88342 0.0
C1140 C 0.14595 0.52197 0.70248 0.0
C1141 C 0.1668 0.5265 0.65985 0.0
C1142 C 0.19449 0.54917 0.66765 0.0
C1143 C 0.20083 0.56812 0.71541 0.0
C1144 C 0.17934 0.56368 0.75522 0.0
C1145 C 0.15257 0.54081 0.74973 0.0
C1146 C 0.13251 0.54175 0.79479 0.0
C1147 C 0.10771 0.54219 0.76314 0.0
C1148 C 0.1221 0.51719 0.83953 0.0
C1149 C 0.15182 0.56939 0.82499 0.0
C1150 C 0.17881 0.58165 0.80218 0.0
C1151 C 0.19962 0.60832 0.82009 0.0
C1152 C 0.1926 0.6228 0.86217 0.0
C1153 C 0.16494 0.6106 0.88564 0.0
C1154 C 0.14454 0.58338 0.86713 0.0
H1155 H 0.62566 0.14084 0.66026 0.0
H1156 H 0.60107 0.05279 0.67681 0.0
H1157 H 0.57299 0.04862 0.76614 0.0
H1158 H 0.6294 0.15527 0.82316 0.0
H1159 H 0.61508 0.17828 0.81462 0.0
H1160 H 0.63548 0.17523 0.75482 0.0
H1161 H 0.5942 0.16194 0.68052 0.0
H1162 H 0.57367 0.16483 0.74005 0.0
H1163 H 0.55995 0.1327 0.69788 0.0
H1164 H 0.54484 0.05256 0.84784 0.0
H1165 H 0.51833 0.06465 0.91891 0.0
H1166 H 0.56087 0.15019 0.85077 0.0
C1167 C 0.61475 0.12082 0.68328 0.0
C1168 C 0.61556 0.09716 0.66142 0.0
C1169 C 0.60068 0.07121 0.69241 0.0
C1170 C 0.58475 0.06862 0.74343 0.0
C1171 C 0.58397 0.09216 0.76311 0.0
C1172 C 0.59861 0.1178 0.73433 0.0
C1173 C 0.59283 0.13933 0.76306 0.0
C1174 C 0.6198 0.16345 0.79055 0.0
C1175 C 0.57936 0.15033 0.71767 0.0
C1176 C 0.57216 0.12152 0.81146 0.0
C1177 C 0.56758 0.09446 0.81089 0.0
C1178 C 0.54843 0.07375 0.8493 0.0
C1179 C 0.53339 0.08083 0.88933 0.0
C1180 C 0.53754 0.10839 0.89057 0.0
C1181 C 0.55743 0.12903 0.8514 0.0
H1182 H 0.43605 0.5839 0.63347 0.0
H1183 H 0.48873 0.54863 0.5859 0.0
H1184 H 0.46472 0.51164 0.66206 0.0
H1185 H 0.43583 0.57295 0.79041 0.0
H1186 H 0.39976 0.56402 0.80118 0.0
H1187 H 0.41987 0.58689 0.74035 0.0
H1188 H 0.38206 0.5538 0.66406 0.0
H1189 H 0.36178 0.53082 0.72472 0.0
H1190 H 0.37208 0.51724 0.66216 0.0
H1191 H 0.43693 0.47997 0.74583 0.0
H1192 H 0.40681 0.45528 0.8325 0.0
H1193 H 0.37189 0.51085 0.82601 0.0
C1194 C 0.44239 0.56827 0.63856 0.0
C1195 C 0.46428 0.56921 0.60348 0.0
C1196 C 0.47201 0.5484 0.61204 0.0
C1197 C 0.45848 0.52724 0.65515 0.0
C1198 C 0.43719 0.5271 0.68919 0.0
C1199 C 0.4291 0.54697 0.68138 0.0
C1200 C 0.40622 0.54254 0.72537 0.0
C1201 C 0.41602 0.56812 0.76678 0.0
C1202 C 0.37892 0.53569 0.69207 0.0
C1203 C 0.40306 0.51732 0.75971 0.0
C1204 C 0.42104 0.5087 0.73783 0.0
C1205 C 0.42263 0.4864 0.76322 0.0
C1206 C 0.40548 0.47259 0.81262 0.0
C1207 C 0.38697 0.48114 0.83622 0.0
C1208 C 0.38565 0.50368 0.80887 0.0
H1209 H 0.84043 0.47199 0.67771 0.0
H1210 H 0.8457 0.42556 0.52632 0.0
H1211 H 0.83787 0.3866 0.5945 0.0
H1212 H 0.88098 0.45656 0.77254 0.0
H1213 H 0.86223 0.45441 0.84059 0.0
H1214 H 0.86251 0.47584 0.77905 0.0
H1215 H 0.808 0.44887 0.77766 0.0
H1216 H 0.80756 0.42727 0.83933 0.0
H1217 H 0.7892 0.41121 0.77045 0.0
H1218 H 0.83327 0.35456 0.67979 0.0
H1219 H 0.83811 0.33463 0.77645 0.0
H1220 H 0.84042 0.40408 0.87234 0.0
C1221 C 0.83905 0.45319 0.65901 0.0
C1222 C 0.843 0.45125 0.59703 0.0
C1223 C 0.8423 0.42703 0.57384 0.0
C1224 C 0.83772 0.40483 0.6121 0.0
C1225 C 0.83432 0.40747 0.67342 0.0
C1226 C 0.83526 0.4312 0.69684 0.0
C1227 C 0.83508 0.43062 0.76493 0.0
C1228 C 0.86179 0.45584 0.79076 0.0
C1229 C 0.80837 0.42942 0.78953 0.0
C1230 C 0.83476 0.40333 0.77616 0.0
C1231 C 0.83344 0.38984 0.72286 0.0
C1232 C 0.83399 0.36476 0.72183 0.0
C1233 C 0.83665 0.35355 0.77668 0.0
C1234 C 0.83931 0.36782 0.83112 0.0
C1235 C 0.83798 0.39272 0.83098 0.0
loop_
_geom_bond_atom_site_label_1
_geom_bond_atom_site_label_2
_geom_bond_distance
_geom_bond_site_symmetry_2
_ccdc_geom_bond_type
Sc0 O3 2.025 . S
Sc0 O10 2.105 1_554 S
Sc0 O13 2.105 . S
Sc0 O16 2.105 . S
Sc0 O19 2.105 1_554 S
Sc1 O3 2.025 . S
Sc1 O11 2.105 1_554 S
Sc1 O15 2.105 . S
Sc1 O17 2.105 . S
Sc1 O21 2.105 1_554 S
Sc2 O3 2.025 . S
Sc2 O12 2.105 1_554 S
Sc2 O14 2.105 . S
Sc2 O18 2.105 . S
Sc2 O20 2.105 1_554 S
O3 Sc0 2.025 . S
O3 Sc1 2.025 . S
O3 Sc2 2.025 . S
C4 O10 1.268 . S
C4 O20 1.268 . S
C5 O11 1.268 . S
C5 O19 1.268 . S
C6 O12 1.268 . S
C6 O21 1.268 . S
C7 O13 1.268 . S
C7 O17 1.268 . S
C8 O14 1.268 . S
C8 O16 1.268 . S
C9 O15 1.268 . S
C9 O18 1.268 . S
O10 Sc0 2.105 1_556 S
O10 C4 1.268 . S
O11 Sc1 2.105 1_556 S
O11 C5 1.268 . S
O12 Sc2 2.105 1_556 S
O12 C6 1.268 . S
O13 Sc0 2.105 . S
O13 C7 1.268 . S
O14 Sc2 2.105 . S
O14 C8 1.268 . S
O15 Sc1 2.105 . S
O15 C9 1.268 . S
O16 Sc0 2.105 . S
O16 C8 1.268 . S
O17 Sc1 2.105 . S
O17 C7 1.268 . S
O18 Sc2 2.105 . S
O18 C9 1.268 . S
O19 Sc0 2.105 1_556 S
O19 C5 1.268 . S
O20 Sc2 2.105 1_556 S
O20 C4 1.268 . S
O21 Sc1 2.105 1_556 S
O21 C6 1.268 . S
Sc22 O25 2.025 . S
Sc22 O32 2.105 1_554 S
Sc22 O35 2.105 . S
Sc22 O38 2.105 . S
Sc22 O41 2.105 1_554 S
Sc23 O25 2.025 . S
Sc23 O33 2.105 1_554 S
Sc23 O37 2.105 . S
Sc23 O39 2.105 . S
Sc23 O43 2.105 1_554 S
Sc24 O25 2.025 . S
Sc24 O34 2.105 1_554 S
Sc24 O36 2.105 . S
Sc24 O40 2.105 . S
Sc24 O42 2.105 1_554 S
O25 Sc22 2.025 . S
O25 Sc23 2.025 . S
O25 Sc24 2.025 . S
C26 O32 1.268 . S
C26 O42 1.268 . S
C27 O33 1.268 . S
C27 O41 1.268 . S
C28 O34 1.268 . S
C28 O43 1.268 . S
C29 O35 1.268 . S
C29 O39 1.268 . S
C30 O36 1.268 . S
C30 O38 1.268 . S
C31 O37 1.268 . S
C31 O40 1.268 . S
O32 Sc22 2.105 1_556 S
O32 C26 1.268 . S
O33 Sc23 2.105 1_556 S
O33 C27 1.268 . S
O34 Sc24 2.105 1_556 S
O34 C28 1.268 . S
O35 Sc22 2.105 . S
O35 C29 1.268 . S
O36 Sc24 2.105 . S
O36 C30 1.268 . S
O37 Sc23 2.105 . S
O37 C31 1.268 . S
O38 Sc22 2.105 . S
O38 C30 1.268 . S
O39 Sc23 2.105 . S
O39 C29 1.268 . S
O40 Sc24 2.105 . S
O40 C31 1.268 . S
O41 Sc22 2.105 1_556 S
O41 C27 1.268 . S
O42 Sc24 2.105 1_556 S
O42 C26 1.268 . S
O43 Sc23 2.105 1_556 S
O43 C28 1.268 . S
Sc44 O47 2.025 . S
Sc44 O54 2.105 1_554 S
Sc44 O57 2.105 . S
Sc44 O60 2.105 . S
Sc44 O63 2.105 1_554 S
Sc45 O47 2.025 . S
Sc45 O55 2.105 1_554 S
Sc45 O59 2.105 . S
Sc45 O61 2.105 . S
Sc45 O65 2.105 1_554 S
Sc46 O47 2.025 . S
Sc46 O56 2.105 1_554 S
Sc46 O58 2.105 . S
Sc46 O62 2.105 . S
Sc46 O64 2.105 1_554 S
O47 Sc44 2.025 . S
O47 Sc45 2.025 . S
O47 Sc46 2.025 . S
C48 O54 1.268 . S
C48 O64 1.268 . S
C49 O55 1.268 . S
C49 O63 1.268 . S
C50 O56 1.268 . S
C50 O65 1.268 . S
C51 O57 1.268 . S
C51 O61 1.268 . S
C52 O58 1.268 . S
C52 O60 1.268 . S
C53 O59 1.268 . S
C53 O62 1.268 . S
O54 Sc44 2.105 1_556 S
O54 C48 1.268 . S
O55 Sc45 2.105 1_556 S
O55 C49 1.268 . S
O56 Sc46 2.105 1_556 S
O56 C50 1.268 . S
O57 Sc44 2.105 . S
O57 C51 1.268 . S
O58 Sc46 2.105 . S
O58 C52 1.268 . S
O59 Sc45 2.105 . S
O59 C53 1.268 . S
O60 Sc44 2.105 . S
O60 C52 1.268 . S
O61 Sc45 2.105 . S
O61 C51 1.268 . S
O62 Sc46 2.105 . S
O62 C53 1.268 . S
O63 Sc44 2.105 1_556 S
O63 C49 1.268 . S
O64 Sc46 2.105 1_556 S
O64 C48 1.268 . S
O65 Sc45 2.105 1_556 S
O65 C50 1.268 . S
Sc66 O69 2.025 . S
Sc66 O76 2.105 1_554 S
Sc66 O79 2.105 . S
Sc66 O82 2.105 . S
Sc66 O85 2.105 1_554 S
Sc67 O69 2.025 . S
Sc67 O77 2.105 1_554 S
Sc67 O81 2.105 . S
Sc67 O83 2.105 . S
Sc67 O87 2.105 1_554 S
Sc68 O69 2.025 . S
Sc68 O78 2.105 1_554 S
Sc68 O80 2.105 . S
Sc68 O84 2.105 . S
Sc68 O86 2.105 1_554 S
O69 Sc66 2.025 . S
O69 Sc67 2.025 . S
O69 Sc68 2.025 . S
C70 O76 1.268 . S
C70 O86 1.268 . S
C71 O77 1.268 . S
C71 O85 1.268 . S
C72 O78 1.268 . S
C72 O87 1.268 . S
C73 O79 1.268 . S
C73 O83 1.268 . S
C74 O80 1.268 . S
C74 O82 1.268 . S
C75 O81 1.268 . S
C75 O84 1.268 . S
O76 Sc66 2.105 1_556 S
O76 C70 1.268 . S
O77 Sc67 2.105 1_556 S
O77 C71 1.268 . S
O78 Sc68 2.105 1_556 S
O78 C72 1.268 . S
O79 Sc66 2.105 . S
O79 C73 1.268 . S
O80 Sc68 2.105 . S
O80 C74 1.268 . S
O81 Sc67 2.105 . S
O81 C75 1.268 . S
O82 Sc66 2.105 . S
O82 C74 1.268 . S
O83 Sc67 2.105 . S
O83 C73 1.268 . S
O84 Sc68 2.105 . S
O84 C75 1.268 . S
O85 Sc66 2.105 1_556 S
O85 C71 1.268 . S
O86 Sc68 2.105 1_556 S
O86 C70 1.268 . S
O87 Sc67 2.105 1_556 S
O87 C72 1.268 . S
Sc88 O91 2.025 . S
Sc88 O98 2.105 1_554 S
Sc88 O101 2.105 . S
Sc88 O104 2.105 . S
Sc88 O107 2.105 1_554 S
Sc89 O91 2.025 . S
Sc89 O99 2.105 1_554 S
Sc89 O103 2.105 . S
Sc89 O105 2.105 . S
Sc89 O109 2.105 1_554 S
Sc90 O91 2.025 . S
Sc90 O100 2.105 1_554 S
Sc90 O102 2.105 . S
Sc90 O106 2.105 . S
Sc90 O108 2.105 1_554 S
O91 Sc88 2.025 . S
O91 Sc89 2.025 . S
O91 Sc90 2.025 . S
C92 O98 1.268 . S
C92 O108 1.268 . S
C93 O99 1.268 . S
C93 O107 1.268 . S
C94 O100 1.268 . S
C94 O109 1.268 . S
C95 O101 1.268 . S
C95 O105 1.268 . S
C96 O102 1.268 . S
C96 O104 1.268 . S
C97 O103 1.268 . S
C97 O106 1.268 . S
O98 Sc88 2.105 1_556 S
O98 C92 1.268 . S
O99 Sc89 2.105 1_556 S
O99 C93 1.268 . S
O100 Sc90 2.105 1_556 S
O100 C94 1.268 . S
O101 Sc88 2.105 . S
O101 C95 1.268 . S
O102 Sc90 2.105 . S
O102 C96 1.268 . S
O103 Sc89 2.105 . S
O103 C97 1.268 . S
O104 Sc88 2.105 . S
O104 C96 1.268 . S
O105 Sc89 2.105 . S
O105 C95 1.268 . S
O106 Sc90 2.105 . S
O106 C97 1.268 . S
O107 Sc88 2.105 1_556 S
O107 C93 1.268 . S
O108 Sc90 2.105 1_556 S
O108 C92 1.268 . S
O109 Sc89 2.105 1_556 S
O109 C94 1.268 . S
Sc110 O113 2.025 . S
Sc110 O120 2.105 1_554 S
Sc110 O123 2.105 . S
Sc110 O126 2.105 . S
Sc110 O129 2.105 1_554 S
Sc111 O113 2.025 . S
Sc111 O121 2.105 1_554 S
Sc111 O125 2.105 . S
Sc111 O127 2.105 . S
Sc111 O131 2.105 1_554 S
Sc112 O113 2.025 . S
Sc112 O122 2.105 1_554 S
Sc112 O124 2.105 . S
Sc112 O128 2.105 . S
Sc112 O130 2.105 1_554 S
O113 Sc110 2.025 . S
O113 Sc111 2.025 . S
O113 Sc112 2.025 . S
C114 O120 1.268 . S
C114 O130 1.268 . S
C115 O121 1.268 . S
C115 O129 1.268 . S
C116 O122 1.268 . S
C116 O131 1.268 . S
C117 O123 1.268 . S
C117 O127 1.268 . S
C118 O124 1.268 . S
C118 O126 1.268 . S
C119 O125 1.268 . S
C119 O128 1.268 . S
O120 Sc110 2.105 1_556 S
O120 C114 1.268 . S
O121 Sc111 2.105 1_556 S
O121 C115 1.268 . S
O122 Sc112 2.105 1_556 S
O122 C116 1.268 . S
O123 Sc110 2.105 . S
O123 C117 1.268 . S
O124 Sc112 2.105 . S
O124 C118 1.268 . S
O125 Sc111 2.105 . S
O125 C119 1.268 . S
O126 Sc110 2.105 . S
O126 C118 1.268 . S
O127 Sc111 2.105 . S
O127 C117 1.268 . S
O128 Sc112 2.105 . S
O128 C119 1.268 . S
O129 Sc110 2.105 1_556 S
O129 C115 1.268 . S
O130 Sc112 2.105 1_556 S
O130 C114 1.268 . S
O131 Sc111 2.105 1_556 S
O131 C116 1.268 . S
Sc132 O135 2.025 . S
Sc132 O142 2.105 . S
Sc132 O145 2.105 . S
Sc132 O148 2.105 . S
Sc132 O151 2.105 . S
Sc133 O135 2.025 . S
Sc133 O143 2.105 . S
Sc133 O147 2.105 . S
Sc133 O149 2.105 . S
Sc133 O153 2.105 . S
Sc134 O135 2.025 . S
Sc134 O144 2.105 . S
Sc134 O146 2.105 . S
Sc134 O150 2.105 . S
Sc134 O152 2.105 . S
O135 Sc132 2.025 . S
O135 Sc133 2.025 . S
O135 Sc134 2.025 . S
C136 O142 1.268 . S
C136 O152 1.268 . S
C137 O143 1.268 . S
C137 O151 1.268 . S
C138 O144 1.268 . S
C138 O153 1.268 . S
C139 O145 1.268 . S
C139 O149 1.268 . S
C140 O146 1.268 . S
C140 O148 1.268 . S
C141 O147 1.268 . S
C141 O150 1.268 . S
O142 Sc132 2.105 . S
O142 C136 1.268 . S
O143 Sc133 2.105 . S
O143 C137 1.268 . S
O144 Sc134 2.105 . S
O144 C138 1.268 . S
O145 Sc132 2.105 . S
O145 C139 1.268 . S
O146 Sc134 2.105 . S
O146 C140 1.268 . S
O147 Sc133 2.105 . S
O147 C141 1.268 . S
O148 Sc132 2.105 . S
O148 C140 1.268 . S
O149 Sc133 2.105 . S
O149 C139 1.268 . S
O150 Sc134 2.105 . S
O150 C141 1.268 . S
O151 Sc132 2.105 . S
O151 C137 1.268 . S
O152 Sc134 2.105 . S
O152 C136 1.268 . S
O153 Sc133 2.105 . S
O153 C138 1.268 . S
Sc154 O157 2.025 . S
Sc154 O164 2.105 . S
Sc154 O167 2.105 . S
Sc154 O170 2.105 . S
Sc154 O173 2.105 . S
Sc155 O157 2.025 . S
Sc155 O165 2.105 . S
Sc155 O169 2.105 . S
Sc155 O171 2.105 . S
Sc155 O175 2.105 . S
Sc156 O157 2.025 . S
Sc156 O166 2.105 . S
Sc156 O168 2.105 . S
Sc156 O172 2.105 . S
Sc156 O174 2.105 . S
O157 Sc154 2.025 . S
O157 Sc155 2.025 . S
O157 Sc156 2.025 . S
C158 O164 1.268 . S
C158 O174 1.268 . S
C159 O165 1.268 . S
C159 O173 1.268 . S
C160 O166 1.268 . S
C160 O175 1.268 . S
C161 O167 1.268 . S
C161 O171 1.268 . S
C162 O168 1.268 . S
C162 O170 1.268 . S
C163 O169 1.268 . S
C163 O172 1.268 . S
O164 Sc154 2.105 . S
O164 C158 1.268 . S
O165 Sc155 2.105 . S
O165 C159 1.268 . S
O166 Sc156 2.105 . S
O166 C160 1.268 . S
O167 Sc154 2.105 . S
O167 C161 1.268 . S
O168 Sc156 2.105 . S
O168 C162 1.268 . S
O169 Sc155 2.105 . S
O169 C163 1.268 . S
O170 Sc154 2.105 . S
O170 C162 1.268 . S
O171 Sc155 2.105 . S
O171 C161 1.268 . S
O172 Sc156 2.105 . S
O172 C163 1.268 . S
O173 Sc154 2.105 . S
O173 C159 1.268 . S
O174 Sc156 2.105 . S
O174 C158 1.268 . S
O175 Sc155 2.105 . S
O175 C160 1.268 . S
Sc176 O179 2.025 . S
Sc176 O186 2.105 . S
Sc176 O189 2.105 . S
Sc176 O192 2.105 . S
Sc176 O195 2.105 . S
Sc177 O179 2.025 . S
Sc177 O187 2.105 . S
Sc177 O191 2.105 . S
Sc177 O193 2.105 . S
Sc177 O197 2.105 . S
Sc178 O179 2.025 . S
Sc178 O188 2.105 . S
Sc178 O190 2.105 . S
Sc178 O194 2.105 . S
Sc178 O196 2.105 . S
O179 Sc176 2.025 . S
O179 Sc177 2.025 . S
O179 Sc178 2.025 . S
C180 O186 1.268 . S
C180 O196 1.268 . S
C181 O187 1.268 . S
C181 O195 1.268 . S
C182 O188 1.268 . S
C182 O197 1.268 . S
C183 O189 1.268 . S
C183 O193 1.268 . S
C184 O190 1.268 . S
C184 O192 1.268 . S
C185 O191 1.268 . S
C185 O194 1.268 . S
O186 Sc176 2.105 . S
O186 C180 1.268 . S
O187 Sc177 2.105 . S
O187 C181 1.268 . S
O188 Sc178 2.105 . S
O188 C182 1.268 . S
O189 Sc176 2.105 . S
O189 C183 1.268 . S
O190 Sc178 2.105 . S
O190 C184 1.268 . S
O191 Sc177 2.105 . S
O191 C185 1.268 . S
O192 Sc176 2.105 . S
O192 C184 1.268 . S
O193 Sc177 2.105 . S
O193 C183 1.268 . S
O194 Sc178 2.105 . S
O194 C185 1.268 . S
O195 Sc176 2.105 . S
O195 C181 1.268 . S
O196 Sc178 2.105 . S
O196 C180 1.268 . S
O197 Sc177 2.105 . S
O197 C182 1.268 . S
Sc198 O201 2.025 . S
Sc198 O208 2.105 . S
Sc198 O211 2.105 . S
Sc198 O214 2.105 . S
Sc198 O217 2.105 . S
Sc199 O201 2.025 . S
Sc199 O209 2.105 . S
Sc199 O213 2.105 . S
Sc199 O215 2.105 . S
Sc199 O219 2.105 . S
Sc200 O201 2.025 . S
Sc200 O210 2.105 . S
Sc200 O212 2.105 . S
Sc200 O216 2.105 . S
Sc200 O218 2.105 . S
O201 Sc198 2.025 . S
O201 Sc199 2.025 . S
O201 Sc200 2.025 . S
C202 O208 1.268 . S
C202 O218 1.268 . S
C203 O209 1.268 . S
C203 O217 1.268 . S
C204 O210 1.268 . S
C204 O219 1.268 . S
C205 O211 1.268 . S
C205 O215 1.268 . S
C206 O212 1.268 . S
C206 O214 1.268 . S
C207 O213 1.268 . S
C207 O216 1.268 . S
O208 Sc198 2.105 . S
O208 C202 1.268 . S
O209 Sc199 2.105 . S
O209 C203 1.268 . S
O210 Sc200 2.105 . S
O210 C204 1.268 . S
O211 Sc198 2.105 . S
O211 C205 1.268 . S
O212 Sc200 2.105 . S
O212 C206 1.268 . S
O213 Sc199 2.105 . S
O213 C207 1.268 . S
O214 Sc198 2.105 . S
O214 C206 1.268 . S
O215 Sc199 2.105 . S
O215 C205 1.268 . S
O216 Sc200 2.105 . S
O216 C207 1.268 . S
O217 Sc198 2.105 . S
O217 C203 1.268 . S
O218 Sc200 2.105 . S
O218 C202 1.268 . S
O219 Sc199 2.105 . S
O219 C204 1.268 . S
Sc220 O223 2.025 . S
Sc220 O230 2.105 . S
Sc220 O233 2.105 . S
Sc220 O236 2.105 . S
Sc220 O239 2.105 . S
Sc221 O223 2.025 . S
Sc221 O231 2.105 . S
Sc221 O235 2.105 . S
Sc221 O237 2.105 . S
Sc221 O241 2.105 . S
Sc222 O223 2.025 . S
Sc222 O232 2.105 . S
Sc222 O234 2.105 . S
Sc222 O238 2.105 . S
Sc222 O240 2.105 . S
O223 Sc220 2.025 . S
O223 Sc221 2.025 . S
O223 Sc222 2.025 . S
C224 O230 1.268 . S
C224 O240 1.268 . S
C225 O231 1.268 . S
C225 O239 1.268 . S
C226 O232 1.268 . S
C226 O241 1.268 . S
C227 O233 1.268 . S
C227 O237 1.268 . S
C228 O234 1.268 . S
C228 O236 1.268 . S
C229 O235 1.268 . S
C229 O238 1.268 . S
O230 Sc220 2.105 . S
O230 C224 1.268 . S
O231 Sc221 2.105 . S
O231 C225 1.268 . S
O232 Sc222 2.105 . S
O232 C226 1.268 . S
O233 Sc220 2.105 . S
O233 C227 1.268 . S
O234 Sc222 2.105 . S
O234 C228 1.268 . S
O235 Sc221 2.105 . S
O235 C229 1.268 . S
O236 Sc220 2.105 . S
O236 C228 1.268 . S
O237 Sc221 2.105 . S
O237 C227 1.268 . S
O238 Sc222 2.105 . S
O238 C229 1.268 . S
O239 Sc220 2.105 . S
O239 C225 1.268 . S
O240 Sc222 2.105 . S
O240 C224 1.268 . S
O241 Sc221 2.105 . S
O241 C226 1.268 . S
Sc242 O245 2.025 . S
Sc242 O252 2.105 . S
Sc242 O255 2.105 . S
Sc242 O258 2.105 . S
Sc242 O261 2.105 . S
Sc243 O245 2.025 . S
Sc243 O253 2.105 . S
Sc243 O257 2.105 . S
Sc243 O259 2.105 . S
Sc243 O263 2.105 . S
Sc244 O245 2.025 . S
Sc244 O254 2.105 . S
Sc244 O256 2.105 . S
Sc244 O260 2.105 . S
Sc244 O262 2.105 . S
O245 Sc242 2.025 . S
O245 Sc243 2.025 . S
O245 Sc244 2.025 . S
C246 O252 1.268 . S
C246 O262 1.268 . S
C247 O253 1.268 . S
C247 O261 1.268 . S
C248 O254 1.268 . S
C248 O263 1.268 . S
C249 O255 1.268 . S
C249 O259 1.268 . S
C250 O256 1.268 . S
C250 O258 1.268 . S
C251 O257 1.268 . S
C251 O260 1.268 . S
O252 Sc242 2.105 . S
O252 C246 1.268 . S
O253 Sc243 2.105 . S
O253 C247 1.268 . S
O254 Sc244 2.105 . S
O254 C248 1.268 . S
O255 Sc242 2.105 . S
O255 C249 1.268 . S
O256 Sc244 2.105 . S
O256 C250 1.268 . S
O257 Sc243 2.105 . S
O257 C251 1.268 . S
O258 Sc242 2.105 . S
O258 C250 1.268 . S
O259 Sc243 2.105 . S
O259 C249 1.268 . S
O260 Sc244 2.105 . S
O260 C251 1.268 . S
O261 Sc242 2.105 . S
O261 C247 1.268 . S
O262 Sc244 2.105 . S
O262 C246 1.268 . S
O263 Sc243 2.105 . S
O263 C248 1.268 . S
H264 C276 0.930 . S
H265 C278 0.930 . S
H266 C279 0.930 . S
H267 C283 0.959 . S
H268 C283 0.959 . S
H269 C283 0.961 . S
H270 C284 0.960 . S
H271 C284 0.961 . S
H272 C284 0.959 . S
H273 C287 0.929 . S
H274 C288 0.931 . S
H275 C290 0.930 . S
C276 H264 0.930 . S
C276 C277 1.399 . S
C276 C281 1.399 . S
C277 C276 1.399 . S
C277 C278 1.376 . S
C278 H265 0.930 . S
C278 C277 1.376 . S
C278 C279 1.388 . S
C279 H266 0.930 . S
C279 C278 1.388 . S
C279 C280 1.390 . S
C280 C279 1.390 . S
C280 C281 1.394 . S
C280 C286 1.465 . S
C281 C276 1.399 . S
C281 C280 1.394 . S
C281 C282 1.516 . S
C282 C281 1.516 . S
C282 C283 1.502 . S
C282 C284 1.561 . S
C282 C285 1.526 . S
C283 H267 0.959 . S
C283 H268 0.959 . S
C283 H269 0.961 . S
C283 C282 1.502 . S
C284 H270 0.960 . S
C284 H271 0.961 . S
C284 H272 0.959 . S
C284 C282 1.561 . S
C285 C282 1.526 . S
C285 C286 1.396 . S
C285 C290 1.390 . S
C286 C280 1.465 . S
C286 C285 1.396 . S
C286 C287 1.399 . S
C287 H273 0.929 . S
C287 C286 1.399 . S
C287 C288 1.385 . S
C288 H274 0.931 . S
C288 C287 1.385 . S
C288 C289 1.389 . S
C289 C288 1.389 . S
C289 C290 1.387 . S
C290 H275 0.930 . S
C290 C285 1.390 . S
C290 C289 1.387 . S
H291 C303 0.930 . S
H292 C305 0.930 . S
H293 C306 0.930 . S
H294 C310 0.959 . S
H295 C310 0.959 . S
H296 C310 0.961 . S
H297 C311 0.960 . S
H298 C311 0.961 . S
H299 C311 0.959 . S
H300 C314 0.929 . S
H301 C315 0.931 . S
H302 C317 0.930 . S
C303 H291 0.930 . S
C303 C304 1.399 . S
C303 C308 1.399 . S
C304 C303 1.399 . S
C304 C305 1.376 . S
C305 H292 0.930 . S
C305 C304 1.376 . S
C305 C306 1.388 . S
C306 H293 0.930 . S
C306 C305 1.388 . S
C306 C307 1.390 . S
C307 C306 1.390 . S
C307 C308 1.394 . S
C307 C313 1.465 . S
C308 C303 1.399 . S
C308 C307 1.394 . S
C308 C309 1.516 . S
C309 C308 1.516 . S
C309 C310 1.502 . S
C309 C311 1.561 . S
C309 C312 1.526 . S
C310 H294 0.959 . S
C310 H295 0.959 . S
C310 H296 0.961 . S
C310 C309 1.502 . S
C311 H297 0.960 . S
C311 H298 0.961 . S
C311 H299 0.959 . S
C311 C309 1.561 . S
C312 C309 1.526 . S
C312 C313 1.396 . S
C312 C317 1.390 . S
C313 C307 1.465 . S
C313 C312 1.396 . S
C313 C314 1.399 . S
C314 H300 0.929 . S
C314 C313 1.399 . S
C314 C315 1.385 . S
C315 H301 0.931 . S
C315 C314 1.385 . S
C315 C316 1.389 . S
C316 C315 1.389 . S
C316 C317 1.387 . S
C317 H302 0.930 . S
C317 C312 1.390 . S
C317 C316 1.387 . S
H318 C330 0.930 . S
H319 C332 0.930 . S
H320 C333 0.930 . S
H321 C337 0.959 . S
H322 C337 0.959 . S
H323 C337 0.961 . S
H324 C338 0.960 . S
H325 C338 0.961 . S
H326 C338 0.959 . S
H327 C341 0.929 . S
H328 C342 0.931 . S
H329 C344 0.930 . S
C330 H318 0.930 . S
C330 C331 1.399 . S
C330 C335 1.399 . S
C331 C330 1.399 . S
C331 C332 1.376 . S
C332 H319 0.930 . S
C332 C331 1.376 . S
C332 C333 1.388 . S
C333 H320 0.930 . S
C333 C332 1.388 . S
C333 C334 1.390 . S
C334 C333 1.390 . S
C334 C335 1.394 . S
C334 C340 1.465 . S
C335 C330 1.399 . S
C335 C334 1.394 . S
C335 C336 1.516 . S
C336 C335 1.516 . S
C336 C337 1.502 . S
C336 C338 1.561 . S
C336 C339 1.526 . S
C337 H321 0.959 . S
C337 H322 0.959 . S
C337 H323 0.961 . S
C337 C336 1.502 . S
C338 H324 0.960 . S
C338 H325 0.961 . S
C338 H326 0.959 . S
C338 C336 1.561 . S
C339 C336 1.526 . S
C339 C340 1.396 . S
C339 C344 1.390 . S
C340 C334 1.465 . S
C340 C339 1.396 . S
C340 C341 1.399 . S
C341 H327 0.929 . S
C341 C340 1.399 . S
C341 C342 1.385 . S
C342 H328 0.931 . S
C342 C341 1.385 . S
C342 C343 1.389 . S
C343 C342 1.389 . S
C343 C344 1.387 . S
C344 H329 0.930 . S
C344 C339 1.390 . S
C344 C343 1.387 . S
H345 C357 0.930 . S
H346 C359 0.930 . S
H347 C360 0.930 . S
H348 C364 0.959 . S
H349 C364 0.959 . S
H350 C364 0.961 . S
H351 C365 0.960 . S
H352 C365 0.961 . S
H353 C365 0.959 . S
H354 C368 0.929 . S
H355 C369 0.931 . S
H356 C371 0.930 . S
C357 H345 0.930 . S
C357 C358 1.399 . S
C357 C362 1.399 . S
C358 C357 1.399 . S
C358 C359 1.376 . S
C359 H346 0.930 . S
C359 C358 1.376 . S
C359 C360 1.388 . S
C360 H347 0.930 . S
C360 C359 1.388 . S
C360 C361 1.390 . S
C361 C360 1.390 . S
C361 C362 1.394 . S
C361 C367 1.465 . S
C362 C357 1.399 . S
C362 C361 1.394 . S
C362 C363 1.516 . S
C363 C362 1.516 . S
C363 C364 1.502 . S
C363 C365 1.561 . S
C363 C366 1.526 . S
C364 H348 0.959 . S
C364 H349 0.959 . S
C364 H350 0.961 . S
C364 C363 1.502 . S
C365 H351 0.960 . S
C365 H352 0.961 . S
C365 H353 0.959 . S
C365 C363 1.561 . S
C366 C363 1.526 . S
C366 C367 1.396 . S
C366 C371 1.390 . S
C367 C361 1.465 . S
C367 C366 1.396 . S
C367 C368 1.399 . S
C368 H354 0.929 . S
C368 C367 1.399 . S
C368 C369 1.385 . S
C369 H355 0.931 . S
C369 C368 1.385 . S
C369 C370 1.389 . S
C370 C369 1.389 . S
C370 C371 1.387 . S
C371 H356 0.930 . S
C371 C366 1.390 . S
C371 C370 1.387 . S
H372 C384 0.930 . S
H373 C386 0.930 . S
H374 C387 0.930 . S
H375 C391 0.959 . S
H376 C391 0.959 . S
H377 C391 0.961 . S
H378 C392 0.960 . S
H379 C392 0.961 . S
H380 C392 0.959 . S
H381 C395 0.929 . S
H382 C396 0.931 . S
H383 C398 0.930 . S
C384 H372 0.930 . S
C384 C385 1.399 . S
C384 C389 1.399 . S
C385 C384 1.399 . S
C385 C386 1.376 . S
C386 H373 0.930 . S
C386 C385 1.376 . S
C386 C387 1.388 . S
C387 H374 0.930 . S
C387 C386 1.388 . S
C387 C388 1.390 . S
C388 C387 1.390 . S
C388 C389 1.394 . S
C388 C394 1.465 . S
C389 C384 1.399 . S
C389 C388 1.394 . S
C389 C390 1.516 . S
C390 C389 1.516 . S
C390 C391 1.502 . S
C390 C392 1.561 . S
C390 C393 1.526 . S
C391 H375 0.959 . S
C391 H376 0.959 . S
C391 H377 0.961 . S
C391 C390 1.502 . S
C392 H378 0.960 . S
C392 H379 0.961 . S
C392 H380 0.959 . S
C392 C390 1.561 . S
C393 C390 1.526 . S
C393 C394 1.396 . S
C393 C398 1.390 . S
C394 C388 1.465 . S
C394 C393 1.396 . S
C394 C395 1.399 . S
C395 H381 0.929 . S
C395 C394 1.399 . S
C395 C396 1.385 . S
C396 H382 0.931 . S
C396 C395 1.385 . S
C396 C397 1.389 . S
C397 C396 1.389 . S
C397 C398 1.387 . S
C398 H383 0.930 . S
C398 C393 1.390 . S
C398 C397 1.387 . S
H399 C411 0.930 . S
H400 C413 0.930 . S
H401 C414 0.930 . S
H402 C418 0.959 . S
H403 C418 0.959 . S
H404 C418 0.961 . S
H405 C419 0.960 . S
H406 C419 0.961 . S
H407 C419 0.959 . S
H408 C422 0.929 . S
H409 C423 0.931 . S
H410 C425 0.930 . S
C411 H399 0.930 . S
C411 C412 1.399 . S
C411 C416 1.399 . S
C412 C411 1.399 . S
C412 C413 1.376 . S
C413 H400 0.930 . S
C413 C412 1.376 . S
C413 C414 1.388 . S
C414 H401 0.930 . S
C414 C413 1.388 . S
C414 C415 1.390 . S
C415 C414 1.390 . S
C415 C416 1.394 . S
C415 C421 1.465 . S
C416 C411 1.399 . S
C416 C415 1.394 . S
C416 C417 1.516 . S
C417 C416 1.516 . S
C417 C418 1.502 . S
C417 C419 1.561 . S
C417 C420 1.526 . S
C418 H402 0.959 . S
C418 H403 0.959 . S
C418 H404 0.961 . S
C418 C417 1.502 . S
C419 H405 0.960 . S
C419 H406 0.961 . S
C419 H407 0.959 . S
C419 C417 1.561 . S
C420 C417 1.526 . S
C420 C421 1.396 . S
C420 C425 1.390 . S
C421 C415 1.465 . S
C421 C420 1.396 . S
C421 C422 1.399 . S
C422 H408 0.929 . S
C422 C421 1.399 . S
C422 C423 1.385 . S
C423 H409 0.931 . S
C423 C422 1.385 . S
C423 C424 1.389 . S
C424 C423 1.389 . S
C424 C425 1.387 . S
C425 H410 0.930 . S
C425 C420 1.390 . S
C425 C424 1.387 . S
H426 C438 0.930 . S
H427 C440 0.930 . S
H428 C441 0.930 . S
H429 C445 0.959 . S
H430 C445 0.959 . S
H431 C445 0.961 . S
H432 C446 0.960 . S
H433 C446 0.961 . S
H434 C446 0.959 . S
H435 C449 0.929 . S
H436 C450 0.931 . S
H437 C452 0.930 . S
C438 H426 0.930 . S
C438 C439 1.399 . S
C438 C443 1.399 . S
C439 C438 1.399 . S
C439 C440 1.376 . S
C440 H427 0.930 . S
C440 C439 1.376 . S
C440 C441 1.388 . S
C441 H428 0.930 . S
C441 C440 1.388 . S
C441 C442 1.390 . S
C442 C441 1.390 . S
C442 C443 1.394 . S
C442 C448 1.465 . S
C443 C438 1.399 . S
C443 C442 1.394 . S
C443 C444 1.516 . S
C444 C443 1.516 . S
C444 C445 1.502 . S
C444 C446 1.561 . S
C444 C447 1.526 . S
C445 H429 0.959 . S
C445 H430 0.959 . S
C445 H431 0.961 . S
C445 C444 1.502 . S
C446 H432 0.960 . S
C446 H433 0.961 . S
C446 H434 0.959 . S
C446 C444 1.561 . S
C447 C444 1.526 . S
C447 C448 1.396 . S
C447 C452 1.390 . S
C448 C442 1.465 . S
C448 C447 1.396 . S
C448 C449 1.399 . S
C449 H435 0.929 . S
C449 C448 1.399 . S
C449 C450 1.385 . S
C450 H436 0.931 . S
C450 C449 1.385 . S
C450 C451 1.389 . S
C451 C450 1.389 . S
C451 C452 1.387 . S
C452 H437 0.930 . S
C452 C447 1.390 . S
C452 C451 1.387 . S
H453 C465 0.930 . S
H454 C467 0.930 . S
H455 C468 0.930 . S
H456 C472 0.959 . S
H457 C472 0.959 . S
H458 C472 0.961 . S
H459 C473 0.960 . S
H460 C473 0.961 . S
H461 C473 0.959 . S
H462 C476 0.929 . S
H463 C477 0.931 . S
H464 C479 0.930 . S
C465 H453 0.930 . S
C465 C466 1.399 . S
C465 C470 1.399 . S
C466 C465 1.399 . S
C466 C467 1.376 . S
C467 H454 0.930 . S
C467 C466 1.376 . S
C467 C468 1.388 . S
C468 H455 0.930 . S
C468 C467 1.388 . S
C468 C469 1.390 . S
C469 C468 1.390 . S
C469 C470 1.394 . S
C469 C475 1.465 . S
C470 C465 1.399 . S
C470 C469 1.394 . S
C470 C471 1.516 . S
C471 C470 1.516 . S
C471 C472 1.502 . S
C471 C473 1.561 . S
C471 C474 1.526 . S
C472 H456 0.959 . S
C472 H457 0.959 . S
C472 H458 0.961 . S
C472 C471 1.502 . S
C473 H459 0.960 . S
C473 H460 0.961 . S
C473 H461 0.959 . S
C473 C471 1.561 . S
C474 C471 1.526 . S
C474 C475 1.396 . S
C474 C479 1.390 . S
C475 C469 1.465 . S
C475 C474 1.396 . S
C475 C476 1.399 . S
C476 H462 0.929 . S
C476 C475 1.399 . S
C476 C477 1.385 . S
C477 H463 0.931 . S
C477 C476 1.385 . S
C477 C478 1.389 . S
C478 C477 1.389 . S
C478 C479 1.387 . S
C479 H464 0.930 . S
C479 C474 1.390 . S
C479 C478 1.387 . S
H480 C492 0.930 . S
H481 C494 0.930 . S
H482 C495 0.930 . S
H483 C499 0.959 . S
H484 C499 0.959 . S
H485 C499 0.961 . S
H486 C500 0.960 . S
H487 C500 0.961 . S
H488 C500 0.959 . S
H489 C503 0.929 . S
H490 C504 0.931 . S
H491 C506 0.930 . S
C492 H480 0.930 . S
C492 C493 1.399 . S
C492 C497 1.399 . S
C493 C492 1.399 . S
C493 C494 1.376 . S
C494 H481 0.930 . S
C494 C493 1.376 . S
C494 C495 1.388 . S
C495 H482 0.930 . S
C495 C494 1.388 . S
C495 C496 1.390 . S
C496 C495 1.390 . S
C496 C497 1.394 . S
C496 C502 1.465 . S
C497 C492 1.399 . S
C497 C496 1.394 . S
C497 C498 1.516 . S
C498 C497 1.516 . S
C498 C499 1.502 . S
C498 C500 1.561 . S
C498 C501 1.526 . S
C499 H483 0.959 . S
C499 H484 0.959 . S
C499 H485 0.961 . S
C499 C498 1.502 . S
C500 H486 0.960 . S
C500 H487 0.961 . S
C500 H488 0.959 . S
C500 C498 1.561 . S
C501 C498 1.526 . S
C501 C502 1.396 . S
C501 C506 1.390 . S
C502 C496 1.465 . S
C502 C501 1.396 . S
C502 C503 1.399 . S
C503 H489 0.929 . S
C503 C502 1.399 . S
C503 C504 1.385 . S
C504 H490 0.931 . S
C504 C503 1.385 . S
C504 C505 1.389 . S
C505 C504 1.389 . S
C505 C506 1.387 . S
C506 H491 0.930 . S
C506 C501 1.390 . S
C506 C505 1.387 . S
H507 C519 0.930 . S
H508 C521 0.930 . S
H509 C522 0.930 . S
H510 C526 0.959 . S
H511 C526 0.959 . S
H512 C526 0.961 . S
H513 C527 0.960 . S
H514 C527 0.961 . S
H515 C527 0.959 . S
H516 C530 0.929 . S
H517 C531 0.931 . S
H518 C533 0.930 . S
C519 H507 0.930 . S
C519 C520 1.399 . S
C519 C524 1.399 . S
C520 C519 1.399 . S
C520 C521 1.376 . S
C521 H508 0.930 . S
C521 C520 1.376 . S
C521 C522 1.388 . S
C522 H509 0.930 . S
C522 C521 1.388 . S
C522 C523 1.390 . S
C523 C522 1.390 . S
C523 C524 1.394 . S
C523 C529 1.465 . S
C524 C519 1.399 . S
C524 C523 1.394 . S
C524 C525 1.516 . S
C525 C524 1.516 . S
C525 C526 1.502 . S
C525 C527 1.561 . S
C525 C528 1.526 . S
C526 H510 0.959 . S
C526 H511 0.959 . S
C526 H512 0.961 . S
C526 C525 1.502 . S
C527 H513 0.960 . S
C527 H514 0.961 . S
C527 H515 0.959 . S
C527 C525 1.561 . S
C528 C525 1.526 . S
C528 C529 1.396 . S
C528 C533 1.390 . S
C529 C523 1.465 . S
C529 C528 1.396 . S
C529 C530 1.399 . S
C530 H516 0.929 . S
C530 C529 1.399 . S
C530 C531 1.385 . S
C531 H517 0.931 . S
C531 C530 1.385 . S
C531 C532 1.389 . S
C532 C531 1.389 . S
C532 C533 1.387 . S
C533 H518 0.930 . S
C533 C528 1.390 . S
C533 C532 1.387 . S
H534 C546 0.930 . S
H535 C548 0.930 . S
H536 C549 0.930 . S
H537 C553 0.959 . S
H538 C553 0.959 . S
H539 C553 0.961 . S
H540 C554 0.960 . S
H541 C554 0.961 . S
H542 C554 0.959 . S
H543 C557 0.929 . S
H544 C558 0.931 . S
H545 C560 0.930 . S
C546 H534 0.930 . S
C546 C547 1.399 . S
C546 C551 1.399 . S
C547 C546 1.399 . S
C547 C548 1.376 . S
C548 H535 0.930 . S
C548 C547 1.376 . S
C548 C549 1.388 . S
C549 H536 0.930 . S
C549 C548 1.388 . S
C549 C550 1.390 . S
C550 C549 1.390 . S
C550 C551 1.394 . S
C550 C556 1.465 . S
C551 C546 1.399 . S
C551 C550 1.394 . S
C551 C552 1.516 . S
C552 C551 1.516 . S
C552 C553 1.502 . S
C552 C554 1.561 . S
C552 C555 1.526 . S
C553 H537 0.959 . S
C553 H538 0.959 . S
C553 H539 0.961 . S
C553 C552 1.502 . S
C554 H540 0.960 . S
C554 H541 0.961 . S
C554 H542 0.959 . S
C554 C552 1.561 . S
C555 C552 1.526 . S
C555 C556 1.396 . S
C555 C560 1.390 . S
C556 C550 1.465 . S
C556 C555 1.396 . S
C556 C557 1.399 . S
C557 H543 0.929 . S
C557 C556 1.399 . S
C557 C558 1.385 . S
C558 H544 0.931 . S
C558 C557 1.385 . S
C558 C559 1.389 . S
C559 C558 1.389 . S
C559 C560 1.387 . S
C560 H545 0.930 . S
C560 C555 1.390 . S
C560 C559 1.387 . S
H561 C573 0.930 . S
H562 C575 0.930 . S
H563 C576 0.930 . S
H564 C580 0.959 . S
H565 C580 0.959 . S
H566 C580 0.961 . S
H567 C581 0.960 . S
H568 C581 0.961 . S
H569 C581 0.959 . S
H570 C584 0.929 . S
H571 C585 0.931 . S
H572 C587 0.930 . S
C573 H561 0.930 . S
C573 C574 1.399 . S
C573 C578 1.399 . S
C574 C573 1.399 . S
C574 C575 1.376 . S
C575 H562 0.930 . S
C575 C574 1.376 . S
C575 C576 1.388 . S
C576 H563 0.930 . S
C576 C575 1.388 . S
C576 C577 1.390 . S
C577 C576 1.390 . S
C577 C578 1.394 . S
C577 C583 1.465 . S
C578 C573 1.399 . S
C578 C577 1.394 . S
C578 C579 1.516 . S
C579 C578 1.516 . S
C579 C580 1.502 . S
C579 C581 1.561 . S
C579 C582 1.526 . S
C580 H564 0.959 . S
C580 H565 0.959 . S
C580 H566 0.961 . S
C580 C579 1.502 . S
C581 H567 0.960 . S
C581 H568 0.961 . S
C581 H569 0.959 . S
C581 C579 1.561 . S
C582 C579 1.526 . S
C582 C583 1.396 . S
C582 C587 1.390 . S
C583 C577 1.465 . S
C583 C582 1.396 . S
C583 C584 1.399 . S
C584 H570 0.929 . S
C584 C583 1.399 . S
C584 C585 1.385 . S
C585 H571 0.931 . S
C585 C584 1.385 . S
C585 C586 1.389 . S
C586 C585 1.389 . S
C586 C587 1.387 . S
C587 H572 0.930 . S
C587 C582 1.390 . S
C587 C586 1.387 . S
H588 C600 0.930 . S
H589 C602 0.930 . S
H590 C603 0.930 1_545 S
H591 C607 0.959 . S
H592 C607 0.959 . S
H593 C607 0.961 . S
H594 C608 0.960 . S
H595 C608 0.961 . S
H596 C608 0.959 . S
H597 C611 0.929 . S
H598 C612 0.931 . S
H599 C614 0.930 . S
C600 H588 0.930 . S
C600 C601 1.399 . S
C600 C605 1.399 . S
C601 C600 1.399 . S
C601 C602 1.376 . S
C602 H589 0.930 . S
C602 C601 1.376 . S
C602 C603 1.388 . S
C603 H590 0.930 1_565 S
C603 C602 1.388 . S
C603 C604 1.390 . S
C604 C603 1.390 . S
C604 C605 1.394 . S
C604 C610 1.465 1_565 S
C605 C600 1.399 . S
C605 C604 1.394 . S
C605 C606 1.516 . S
C606 C605 1.516 . S
C606 C607 1.502 . S
C606 C608 1.561 . S
C606 C609 1.526 1_565 S
C607 H591 0.959 . S
C607 H592 0.959 . S
C607 H593 0.961 . S
C607 C606 1.502 . S
C608 H594 0.960 . S
C608 H595 0.961 . S
C608 H596 0.959 . S
C608 C606 1.561 . S
C609 C606 1.526 1_545 S
C609 C610 1.396 . S
C609 C614 1.390 . S
C610 C604 1.465 1_545 S
C610 C609 1.396 . S
C610 C611 1.399 . S
C611 H597 0.929 . S
C611 C610 1.399 . S
C611 C612 1.385 . S
C612 H598 0.931 . S
C612 C611 1.385 . S
C612 C613 1.389 . S
C613 C612 1.389 . S
C613 C614 1.387 . S
C614 H599 0.930 . S
C614 C609 1.390 . S
C614 C613 1.387 . S
H615 C627 0.930 . S
H616 C629 0.930 . S
H617 C630 0.930 . S
H618 C634 0.959 . S
H619 C634 0.959 . S
H620 C634 0.961 . S
H621 C635 0.960 . S
H622 C635 0.961 . S
H623 C635 0.959 . S
H624 C638 0.929 . S
H625 C639 0.931 . S
H626 C641 0.930 . S
C627 H615 0.930 . S
C627 C628 1.399 . S
C627 C632 1.399 . S
C628 C627 1.399 . S
C628 C629 1.376 . S
C629 H616 0.930 . S
C629 C628 1.376 . S
C629 C630 1.388 . S
C630 H617 0.930 . S
C630 C629 1.388 . S
C630 C631 1.390 . S
C631 C630 1.390 . S
C631 C632 1.394 . S
C631 C637 1.465 . S
C632 C627 1.399 . S
C632 C631 1.394 . S
C632 C633 1.516 . S
C633 C632 1.516 . S
C633 C634 1.502 . S
C633 C635 1.561 . S
C633 C636 1.526 . S
C634 H618 0.959 . S
C634 H619 0.959 . S
C634 H620 0.961 . S
C634 C633 1.502 . S
C635 H621 0.960 . S
C635 H622 0.961 . S
C635 H623 0.959 . S
C635 C633 1.561 . S
C636 C633 1.526 . S
C636 C637 1.396 . S
C636 C641 1.390 . S
C637 C631 1.465 . S
C637 C636 1.396 . S
C637 C638 1.399 . S
C638 H624 0.929 . S
C638 C637 1.399 . S
C638 C639 1.385 . S
C639 H625 0.931 . S
C639 C638 1.385 . S
C639 C640 1.389 . S
C640 C639 1.389 . S
C640 C641 1.387 . S
C641 H626 0.930 . S
C641 C636 1.390 . S
C641 C640 1.387 . S
H642 C654 0.930 . S
H643 C656 0.930 . S
H644 C657 0.949 . S
H645 C661 0.959 . S
H646 C661 0.959 . S
H647 C661 0.961 . S
H648 C662 0.960 . S
H649 C662 0.961 . S
H650 C662 0.959 . S
H651 C665 0.929 . S
H652 C666 0.931 . S
H653 C668 0.930 . S
C654 H642 0.930 . S
C654 C655 1.399 . S
C654 C659 1.399 . S
C655 C654 1.399 . S
C655 C656 1.376 . S
C656 H643 0.930 . S
C656 C655 1.376 . S
C656 C657 1.372 1_455 S
C657 H644 0.949 . S
C657 C656 1.372 1_655 S
C657 C658 1.383 1_655 S
C658 C657 1.383 1_455 S
C658 C659 1.424 . S
C658 C664 1.444 1_455 S
C659 C654 1.399 . S
C659 C658 1.424 . S
C659 C660 1.516 . S
C660 C659 1.516 . S
C660 C661 1.502 . S
C660 C662 1.561 . S
C660 C663 1.526 1_455 S
C661 H645 0.959 . S
C661 H646 0.959 . S
C661 H647 0.961 . S
C661 C660 1.502 . S
C662 H648 0.960 . S
C662 H649 0.961 . S
C662 H650 0.959 . S
C662 C660 1.561 . S
C663 C660 1.526 1_655 S
C663 C664 1.396 . S
C663 C668 1.390 . S
C664 C658 1.444 1_655 S
C664 C663 1.396 . S
C664 C665 1.399 . S
C665 H651 0.929 . S
C665 C664 1.399 . S
C665 C666 1.385 . S
C666 H652 0.931 . S
C666 C665 1.385 . S
C666 C667 1.389 . S
C667 C666 1.389 . S
C667 C668 1.387 . S
C668 H653 0.930 . S
C668 C663 1.390 . S
C668 C667 1.387 . S
H669 C681 0.930 . S
H670 C683 0.930 . S
H671 C684 0.930 . S
H672 C688 0.959 . S
H673 C688 0.959 . S
H674 C688 0.961 . S
H675 C689 0.960 . S
H676 C689 0.961 . S
H677 C689 0.959 1_565 S
H678 C692 0.929 1_565 S
H679 C693 0.931 . S
H680 C695 0.930 . S
C681 H669 0.930 . S
C681 C682 1.399 . S
C681 C686 1.399 . S
C682 C681 1.399 . S
C682 C683 1.376 . S
C683 H670 0.930 . S
C683 C682 1.376 . S
C683 C684 1.388 . S
C684 H671 0.930 . S
C684 C683 1.388 . S
C684 C685 1.390 . S
C685 C684 1.390 . S
C685 C686 1.394 . S
C685 C691 1.465 1_565 S
C686 C681 1.399 . S
C686 C685 1.394 . S
C686 C687 1.516 1_565 S
C687 C686 1.516 1_545 S
C687 C688 1.502 . S
C687 C689 1.561 . S
C687 C690 1.526 . S
C688 H672 0.959 . S
C688 H673 0.959 . S
C688 H674 0.961 . S
C688 C687 1.502 . S
C689 H675 0.960 . S
C689 H676 0.961 . S
C689 H677 0.959 1_545 S
C689 C687 1.561 . S
C690 C687 1.526 . S
C690 C691 1.396 . S
C690 C695 1.390 . S
C691 C685 1.465 1_545 S
C691 C690 1.396 . S
C691 C692 1.399 . S
C692 H678 0.929 1_545 S
C692 C691 1.399 . S
C692 C693 1.385 . S
C693 H679 0.931 . S
C693 C692 1.385 . S
C693 C694 1.389 . S
C694 C693 1.389 . S
C694 C695 1.387 . S
C695 H680 0.930 . S
C695 C690 1.390 . S
C695 C694 1.387 . S
H696 C708 0.930 . S
H697 C710 0.930 . S
H698 C711 0.930 . S
H699 C715 0.959 . S
H700 C715 0.959 . S
H701 C715 0.961 . S
H702 C716 0.960 . S
H703 C716 0.961 . S
H704 C716 0.959 . S
H705 C719 0.929 . S
H706 C720 0.931 . S
H707 C722 0.930 . S
C708 H696 0.930 . S
C708 C709 1.399 . S
C708 C713 1.399 . S
C709 C708 1.399 . S
C709 C710 1.376 . S
C710 H697 0.930 . S
C710 C709 1.376 . S
C710 C711 1.388 . S
C711 H698 0.930 . S
C711 C710 1.388 . S
C711 C712 1.390 . S
C712 C711 1.390 . S
C712 C713 1.394 . S
C712 C718 1.465 . S
C713 C708 1.399 . S
C713 C712 1.394 . S
C713 C714 1.516 . S
C714 C713 1.516 . S
C714 C715 1.502 . S
C714 C716 1.561 . S
C714 C717 1.526 . S
C715 H699 0.959 . S
C715 H700 0.959 . S
C715 H701 0.961 . S
C715 C714 1.502 . S
C716 H702 0.960 . S
C716 H703 0.961 . S
C716 H704 0.959 . S
C716 C714 1.561 . S
C717 C714 1.526 . S
C717 C718 1.396 . S
C717 C722 1.390 . S
C718 C712 1.465 . S
C718 C717 1.396 . S
C718 C719 1.399 . S
C719 H705 0.929 . S
C719 C718 1.399 . S
C719 C720 1.385 . S
C720 H706 0.931 . S
C720 C719 1.385 . S
C720 C721 1.389 . S
C721 C720 1.389 . S
C721 C722 1.387 . S
C722 H707 0.930 . S
C722 C717 1.390 . S
C722 C721 1.387 . S
H723 C735 0.930 . S
H724 C737 0.930 . S
H725 C738 0.930 . S
H726 C742 0.959 . S
H727 C742 0.959 . S
H728 C742 0.961 . S
H729 C743 0.960 . S
H730 C743 0.961 1_455 S
H731 C743 0.959 . S
H732 C746 0.929 1_655 S
H733 C747 0.931 . S
H734 C749 0.930 . S
C735 H723 0.930 . S
C735 C736 1.399 . S
C735 C740 1.399 . S
C736 C735 1.399 . S
C736 C737 1.376 . S
C737 H724 0.930 . S
C737 C736 1.376 . S
C737 C738 1.388 . S
C738 H725 0.930 . S
C738 C737 1.388 . S
C738 C739 1.390 . S
C739 C738 1.390 . S
C739 C740 1.394 . S
C739 C745 1.465 1_655 S
C740 C735 1.399 . S
C740 C739 1.394 . S
C740 C741 1.516 1_655 S
C741 C740 1.516 1_455 S
C741 C742 1.502 . S
C741 C743 1.561 1_455 S
C741 C744 1.526 . S
C742 H726 0.959 . S
C742 H727 0.959 . S
C742 H728 0.961 . S
C742 C741 1.502 . S
C743 H729 0.960 . S
C743 H730 0.961 1_655 S
C743 H731 0.959 . S
C743 C741 1.561 1_655 S
C744 C741 1.526 . S
C744 C745 1.396 . S
C744 C749 1.390 . S
C745 C739 1.465 1_455 S
C745 C744 1.396 . S
C745 C746 1.399 . S
C746 H732 0.929 1_455 S
C746 C745 1.399 . S
C746 C747 1.385 . S
C747 H733 0.931 . S
C747 C746 1.385 . S
C747 C748 1.389 . S
C748 C747 1.389 . S
C748 C749 1.387 . S
C749 H734 0.930 . S
C749 C744 1.390 . S
C749 C748 1.387 . S
H750 C762 0.930 . S
H751 C764 0.930 . S
H752 C765 0.930 . S
H753 C769 0.959 . S
H754 C769 0.959 . S
H755 C769 0.961 . S
H756 C770 0.960 . S
H757 C770 0.961 . S
H758 C770 0.959 . S
H759 C773 0.932 1_545 S
H760 C774 0.931 . S
H761 C776 0.930 . S
C762 H750 0.930 . S
C762 C763 1.399 . S
C762 C767 1.399 . S
C763 C762 1.399 . S
C763 C764 1.376 . S
C764 H751 0.930 . S
C764 C763 1.376 . S
C764 C765 1.388 . S
C765 H752 0.930 . S
C765 C764 1.388 . S
C765 C766 1.390 . S
C766 C765 1.390 . S
C766 C767 1.394 . S
C766 C772 1.465 1_545 S
C767 C762 1.399 . S
C767 C766 1.394 . S
C767 C768 1.516 1_545 S
C768 C767 1.516 1_565 S
C768 C769 1.502 . S
C768 C770 1.561 . S
C768 C771 1.526 . S
C769 H753 0.959 . S
C769 H754 0.959 . S
C769 H755 0.961 . S
C769 C768 1.502 . S
C770 H756 0.960 . S
C770 H757 0.961 . S
C770 H758 0.959 . S
C770 C768 1.561 . S
C771 C768 1.526 . S
C771 C772 1.396 . S
C771 C776 1.390 . S
C772 C766 1.465 1_565 S
C772 C771 1.396 . S
C772 C773 1.399 . S
C773 H759 0.932 1_565 S
C773 C772 1.399 . S
C773 C774 1.382 . S
C774 H760 0.931 . S
C774 C773 1.382 . S
C774 C775 1.389 . S
C775 C774 1.389 . S
C775 C776 1.387 . S
C776 H761 0.930 . S
C776 C771 1.390 . S
C776 C775 1.387 . S
H777 C789 0.930 . S
H778 C791 0.930 . S
H779 C792 0.930 . S
H780 C796 0.959 . S
H781 C796 0.959 . S
H782 C796 0.961 . S
H783 C797 0.960 . S
H784 C797 0.961 . S
H785 C797 0.959 . S
H786 C800 0.929 . S
H787 C801 0.931 . S
H788 C803 0.930 . S
C789 H777 0.930 . S
C789 C790 1.399 . S
C789 C794 1.399 . S
C790 C789 1.399 . S
C790 C791 1.376 . S
C791 H778 0.930 . S
C791 C790 1.376 . S
C791 C792 1.388 . S
C792 H779 0.930 . S
C792 C791 1.388 . S
C792 C793 1.390 . S
C793 C792 1.390 . S
C793 C794 1.394 . S
C793 C799 1.465 . S
C794 C789 1.399 . S
C794 C793 1.394 . S
C794 C795 1.516 . S
C795 C794 1.516 . S
C795 C796 1.502 . S
C795 C797 1.561 . S
C795 C798 1.526 . S
C796 H780 0.959 . S
C796 H781 0.959 . S
C796 H782 0.961 . S
C796 C795 1.502 . S
C797 H783 0.960 . S
C797 H784 0.961 . S
C797 H785 0.959 . S
C797 C795 1.561 . S
C798 C795 1.526 . S
C798 C799 1.396 . S
C798 C803 1.390 . S
C799 C793 1.465 . S
C799 C798 1.396 . S
C799 C800 1.399 . S
C800 H786 0.929 . S
C800 C799 1.399 . S
C800 C801 1.385 . S
C801 H787 0.931 . S
C801 C800 1.385 . S
C801 C802 1.389 . S
C802 C801 1.389 . S
C802 C803 1.387 . S
C803 H788 0.930 . S
C803 C798 1.390 . S
C803 C802 1.387 . S
H804 C816 0.930 . S
H805 C818 0.930 . S
H806 C819 0.930 . S
H807 C823 0.959 . S
H808 C823 0.959 . S
H809 C823 0.961 1_655 S
H810 C824 0.960 . S
H811 C824 0.961 . S
H812 C824 0.959 . S
H813 C827 0.929 . S
H814 C828 0.931 . S
H815 C830 0.930 . S
C816 H804 0.930 . S
C816 C817 1.399 . S
C816 C821 1.399 . S
C817 C816 1.399 . S
C817 C818 1.376 . S
C818 H805 0.930 . S
C818 C817 1.376 . S
C818 C819 1.388 . S
C819 H806 0.930 . S
C819 C818 1.388 . S
C819 C820 1.390 . S
C820 C819 1.390 . S
C820 C821 1.394 . S
C820 C826 1.465 1_655 S
C821 C816 1.399 . S
C821 C820 1.394 . S
C821 C822 1.516 . S
C822 C821 1.516 . S
C822 C823 1.502 1_655 S
C822 C824 1.561 . S
C822 C825 1.526 1_655 S
C823 H807 0.959 . S
C823 H808 0.959 . S
C823 H809 0.961 1_455 S
C823 C822 1.502 1_455 S
C824 H810 0.960 . S
C824 H811 0.961 . S
C824 H812 0.959 . S
C824 C822 1.561 . S
C825 C822 1.526 1_455 S
C825 C826 1.396 . S
C825 C830 1.390 . S
C826 C820 1.465 1_455 S
C826 C825 1.396 . S
C826 C827 1.399 . S
C827 H813 0.929 . S
C827 C826 1.399 . S
C827 C828 1.385 . S
C828 H814 0.931 . S
C828 C827 1.385 . S
C828 C829 1.389 . S
C829 C828 1.389 . S
C829 C830 1.387 . S
C830 H815 0.930 . S
C830 C825 1.390 . S
C830 C829 1.387 . S
H831 C843 0.930 . S
H832 C845 0.930 . S
H833 C846 0.930 . S
H834 C850 0.959 . S
H835 C850 0.959 . S
H836 C850 0.961 . S
H837 C851 0.960 . S
H838 C851 0.961 . S
H839 C851 0.959 . S
H840 C854 0.929 1_565 S
H841 C855 0.931 . S
H842 C857 0.930 . S
C843 H831 0.930 . S
C843 C844 1.399 . S
C843 C848 1.399 . S
C844 C843 1.399 . S
C844 C845 1.376 . S
C845 H832 0.930 . S
C845 C844 1.376 . S
C845 C846 1.388 . S
C846 H833 0.930 . S
C846 C845 1.388 . S
C846 C847 1.390 . S
C847 C846 1.390 . S
C847 C848 1.394 . S
C847 C853 1.465 1_565 S
C848 C843 1.399 . S
C848 C847 1.394 . S
C848 C849 1.516 1_565 S
C849 C848 1.516 1_545 S
C849 C850 1.502 . S
C849 C851 1.561 . S
C849 C852 1.526 . S
C850 H834 0.959 . S
C850 H835 0.959 . S
C850 H836 0.961 . S
C850 C849 1.502 . S
C851 H837 0.960 . S
C851 H838 0.961 . S
C851 H839 0.959 . S
C851 C849 1.561 . S
C852 C849 1.526 . S
C852 C853 1.396 . S
C852 C857 1.390 . S
C853 C847 1.465 1_545 S
C853 C852 1.396 . S
C853 C854 1.399 . S
C854 H840 0.929 1_545 S
C854 C853 1.399 . S
C854 C855 1.385 . S
C855 H841 0.931 . S
C855 C854 1.385 . S
C855 C856 1.389 . S
C856 C855 1.389 . S
C856 C857 1.387 . S
C857 H842 0.930 . S
C857 C852 1.390 . S
C857 C856 1.387 . S
H858 C870 0.930 . S
H859 C872 0.930 . S
H860 C873 0.930 . S
H861 C877 0.959 . S
H862 C877 0.959 . S
H863 C877 0.961 . S
H864 C878 0.960 . S
H865 C878 0.961 . S
H866 C878 0.959 . S
H867 C881 0.929 . S
H868 C882 0.931 . S
H869 C884 0.930 . S
C870 H858 0.930 . S
C870 C871 1.399 . S
C870 C875 1.399 . S
C871 C870 1.399 . S
C871 C872 1.376 . S
C872 H859 0.930 . S
C872 C871 1.376 . S
C872 C873 1.388 . S
C873 H860 0.930 . S
C873 C872 1.388 . S
C873 C874 1.390 . S
C874 C873 1.390 . S
C874 C875 1.394 . S
C874 C880 1.465 . S
C875 C870 1.399 . S
C875 C874 1.394 . S
C875 C876 1.516 . S
C876 C875 1.516 . S
C876 C877 1.502 . S
C876 C878 1.561 . S
C876 C879 1.526 . S
C877 H861 0.959 . S
C877 H862 0.959 . S
C877 H863 0.961 . S
C877 C876 1.502 . S
C878 H864 0.960 . S
C878 H865 0.961 . S
C878 H866 0.959 . S
C878 C876 1.561 . S
C879 C876 1.526 . S
C879 C880 1.396 . S
C879 C884 1.390 . S
C880 C874 1.465 . S
C880 C879 1.396 . S
C880 C881 1.399 . S
C881 H867 0.929 . S
C881 C880 1.399 . S
C881 C882 1.385 . S
C882 H868 0.931 . S
C882 C881 1.385 . S
C882 C883 1.389 . S
C883 C882 1.389 . S
C883 C884 1.387 . S
C884 H869 0.930 . S
C884 C879 1.390 . S
C884 C883 1.387 . S
H885 C897 0.930 . S
H886 C899 0.930 . S
H887 C900 0.930 . S
H888 C904 0.959 . S
H889 C904 0.959 . S
H890 C904 0.961 . S
H891 C905 0.960 . S
H892 C905 0.961 . S
H893 C905 0.959 . S
H894 C908 0.929 1_655 S
H895 C909 0.931 . S
H896 C911 0.930 . S
C897 H885 0.930 . S
C897 C898 1.399 . S
C897 C902 1.399 . S
C898 C897 1.399 . S
C898 C899 1.376 . S
C899 H886 0.930 . S
C899 C898 1.376 . S
C899 C900 1.388 . S
C900 H887 0.930 . S
C900 C899 1.388 . S
C900 C901 1.390 . S
C901 C900 1.390 . S
C901 C902 1.394 . S
C901 C907 1.465 1_655 S
C902 C897 1.399 . S
C902 C901 1.394 . S
C902 C903 1.516 1_655 S
C903 C902 1.516 1_455 S
C903 C904 1.502 . S
C903 C905 1.561 . S
C903 C906 1.526 . S
C904 H888 0.959 . S
C904 H889 0.959 . S
C904 H890 0.961 . S
C904 C903 1.502 . S
C905 H891 0.960 . S
C905 H892 0.961 . S
C905 H893 0.959 . S
C905 C903 1.561 . S
C906 C903 1.526 . S
C906 C907 1.396 . S
C906 C911 1.390 . S
C907 C901 1.465 1_455 S
C907 C906 1.396 . S
C907 C908 1.399 . S
C908 H894 0.929 1_455 S
C908 C907 1.399 . S
C908 C909 1.385 . S
C909 H895 0.931 . S
C909 C908 1.385 . S
C909 C910 1.389 . S
C910 C909 1.389 . S
C910 C911 1.387 . S
C911 H896 0.930 . S
C911 C906 1.390 . S
C911 C910 1.387 . S
H912 C924 0.930 . S
H913 C926 0.930 . S
H914 C927 0.930 . S
H915 C931 0.959 . S
H916 C931 0.959 . S
H917 C931 0.961 . S
H918 C932 0.960 . S
H919 C932 0.961 . S
H920 C932 0.959 . S
H921 C935 0.929 . S
H922 C936 0.931 . S
H923 C938 0.930 . S
C924 H912 0.930 . S
C924 C925 1.399 . S
C924 C929 1.399 . S
C925 C924 1.399 . S
C925 C926 1.376 . S
C926 H913 0.930 . S
C926 C925 1.376 . S
C926 C927 1.388 . S
C927 H914 0.930 . S
C927 C926 1.388 . S
C927 C928 1.390 . S
C928 C927 1.390 . S
C928 C929 1.394 . S
C928 C934 1.465 . S
C929 C924 1.399 . S
C929 C928 1.394 . S
C929 C930 1.516 . S
C930 C929 1.516 . S
C930 C931 1.502 . S
C930 C932 1.561 . S
C930 C933 1.526 . S
C931 H915 0.959 . S
C931 H916 0.959 . S
C931 H917 0.961 . S
C931 C930 1.502 . S
C932 H918 0.960 . S
C932 H919 0.961 . S
C932 H920 0.959 . S
C932 C930 1.561 . S
C933 C930 1.526 . S
C933 C934 1.396 . S
C933 C938 1.390 . S
C934 C928 1.465 . S
C934 C933 1.396 . S
C934 C935 1.399 . S
C935 H921 0.929 . S
C935 C934 1.399 . S
C935 C936 1.385 . S
C936 H922 0.931 . S
C936 C935 1.385 . S
C936 C937 1.389 . S
C937 C936 1.389 . S
C937 C938 1.387 . S
C938 H923 0.930 . S
C938 C933 1.390 . S
C938 C937 1.387 . S
H939 C951 0.930 . S
H940 C953 0.930 . S
H941 C954 0.930 . S
H942 C958 0.959 . S
H943 C958 0.959 . S
H944 C958 0.961 . S
H945 C959 0.960 . S
H946 C959 0.961 . S
H947 C959 0.959 . S
H948 C962 0.929 . S
H949 C963 0.931 . S
H950 C965 0.930 . S
C951 H939 0.930 . S
C951 C952 1.399 . S
C951 C956 1.399 . S
C952 C951 1.399 . S
C952 C953 1.376 . S
C953 H940 0.930 . S
C953 C952 1.376 . S
C953 C954 1.388 . S
C954 H941 0.930 . S
C954 C953 1.388 . S
C954 C955 1.390 . S
C955 C954 1.390 . S
C955 C956 1.394 . S
C955 C961 1.465 . S
C956 C951 1.399 . S
C956 C955 1.394 . S
C956 C957 1.516 . S
C957 C956 1.516 . S
C957 C958 1.502 . S
C957 C959 1.561 . S
C957 C960 1.526 . S
C958 H942 0.959 . S
C958 H943 0.959 . S
C958 H944 0.961 . S
C958 C957 1.502 . S
C959 H945 0.960 . S
C959 H946 0.961 . S
C959 H947 0.959 . S
C959 C957 1.561 . S
C960 C957 1.526 . S
C960 C961 1.396 . S
C960 C965 1.390 . S
C961 C955 1.465 . S
C961 C960 1.396 . S
C961 C962 1.399 . S
C962 H948 0.929 . S
C962 C961 1.399 . S
C962 C963 1.385 . S
C963 H949 0.931 . S
C963 C962 1.385 . S
C963 C964 1.389 . S
C964 C963 1.389 . S
C964 C965 1.387 . S
C965 H950 0.930 . S
C965 C960 1.390 . S
C965 C964 1.387 . S
H966 C978 0.930 . S
H967 C980 0.930 . S
H968 C981 0.930 . S
H969 C985 0.959 . S
H970 C985 0.959 . S
H971 C985 0.961 . S
H972 C986 0.960 . S
H973 C986 0.961 . S
H974 C986 0.959 . S
H975 C989 0.929 . S
H976 C990 0.931 . S
H977 C992 0.930 . S
C978 H966 0.930 . S
C978 C979 1.399 . S
C978 C983 1.399 . S
C979 C978 1.399 . S
C979 C980 1.376 . S
C980 H967 0.930 . S
C980 C979 1.376 . S
C980 C981 1.388 . S
C981 H968 0.930 . S
C981 C980 1.388 . S
C981 C982 1.390 . S
C982 C981 1.390 . S
C982 C983 1.394 . S
C982 C988 1.465 . S
C983 C978 1.399 . S
C983 C982 1.394 . S
C983 C984 1.516 . S
C984 C983 1.516 . S
C984 C985 1.502 . S
C984 C986 1.561 . S
C984 C987 1.526 . S
C985 H969 0.959 . S
C985 H970 0.959 . S
C985 H971 0.961 . S
C985 C984 1.502 . S
C986 H972 0.960 . S
C986 H973 0.961 . S
C986 H974 0.959 . S
C986 C984 1.561 . S
C987 C984 1.526 . S
C987 C988 1.396 . S
C987 C992 1.390 . S
C988 C982 1.465 . S
C988 C987 1.396 . S
C988 C989 1.399 . S
C989 H975 0.929 . S
C989 C988 1.399 . S
C989 C990 1.385 . S
C990 H976 0.931 . S
C990 C989 1.385 . S
C990 C991 1.389 . S
C991 C990 1.389 . S
C991 C992 1.387 . S
C992 H977 0.930 . S
C992 C987 1.390 . S
C992 C991 1.387 . S
H993 C1005 0.930 . S
H994 C1007 0.930 . S
H995 C1008 0.930 . S
H996 C1012 0.959 . S
H997 C1012 0.959 . S
H998 C1012 0.961 . S
H999 C1013 0.960 . S
H1000 C1013 0.961 . S
H1001 C1013 0.959 . S
H1002 C1016 0.929 . S
H1003 C1017 0.931 . S
H1004 C1019 0.930 . S
C1005 H993 0.930 . S
C1005 C1006 1.399 . S
C1005 C1010 1.399 . S
C1006 C1005 1.399 . S
C1006 C1007 1.376 . S
C1007 H994 0.930 . S
C1007 C1006 1.376 . S
C1007 C1008 1.388 . S
C1008 H995 0.930 . S
C1008 C1007 1.388 . S
C1008 C1009 1.390 . S
C1009 C1008 1.390 . S
C1009 C1010 1.394 . S
C1009 C1015 1.465 . S
C1010 C1005 1.399 . S
C1010 C1009 1.394 . S
C1010 C1011 1.516 . S
C1011 C1010 1.516 . S
C1011 C1012 1.502 . S
C1011 C1013 1.561 . S
C1011 C1014 1.526 . S
C1012 H996 0.959 . S
C1012 H997 0.959 . S
C1012 H998 0.961 . S
C1012 C1011 1.502 . S
C1013 H999 0.960 . S
C1013 H1000 0.961 . S
C1013 H1001 0.959 . S
C1013 C1011 1.561 . S
C1014 C1011 1.526 . S
C1014 C1015 1.396 . S
C1014 C1019 1.390 . S
C1015 C1009 1.465 . S
C1015 C1014 1.396 . S
C1015 C1016 1.399 . S
C1016 H1002 0.929 . S
C1016 C1015 1.399 . S
C1016 C1017 1.385 . S
C1017 H1003 0.931 . S
C1017 C1016 1.385 . S
C1017 C1018 1.389 . S
C1018 C1017 1.389 . S
C1018 C1019 1.387 . S
C1019 H1004 0.930 . S
C1019 C1014 1.390 . S
C1019 C1018 1.387 . S
H1020 C1032 0.930 . S
H1021 C1034 0.930 . S
H1022 C1035 0.930 . S
H1023 C1039 0.959 . S
H1024 C1039 0.959 . S
H1025 C1039 0.961 . S
H1026 C1040 0.960 . S
H1027 C1040 0.961 . S
H1028 C1040 0.959 . S
H1029 C1043 0.929 . S
H1030 C1044 0.931 . S
H1031 C1046 0.930 . S
C1032 H1020 0.930 . S
C1032 C1033 1.399 . S
C1032 C1037 1.399 . S
C1033 C1032 1.399 . S
C1033 C1034 1.376 . S
C1034 H1021 0.930 . S
C1034 C1033 1.376 . S
C1034 C1035 1.388 . S
C1035 H1022 0.930 . S
C1035 C1034 1.388 . S
C1035 C1036 1.390 . S
C1036 C1035 1.390 . S
C1036 C1037 1.394 . S
C1036 C1042 1.465 . S
C1037 C1032 1.399 . S
C1037 C1036 1.394 . S
C1037 C1038 1.516 . S
C1038 C1037 1.516 . S
C1038 C1039 1.502 . S
C1038 C1040 1.561 . S
C1038 C1041 1.526 . S
C1039 H1023 0.959 . S
C1039 H1024 0.959 . S
C1039 H1025 0.961 . S
C1039 C1038 1.502 . S
C1040 H1026 0.960 . S
C1040 H1027 0.961 . S
C1040 H1028 0.959 . S
C1040 C1038 1.561 . S
C1041 C1038 1.526 . S
C1041 C1042 1.396 . S
C1041 C1046 1.390 . S
C1042 C1036 1.465 . S
C1042 C1041 1.396 . S
C1042 C1043 1.399 . S
C1043 H1029 0.929 . S
C1043 C1042 1.399 . S
C1043 C1044 1.385 . S
C1044 H1030 0.931 . S
C1044 C1043 1.385 . S
C1044 C1045 1.389 . S
C1045 C1044 1.389 . S
C1045 C1046 1.387 . S
C1046 H1031 0.930 . S
C1046 C1041 1.390 . S
C1046 C1045 1.387 . S
H1047 C1059 0.930 . S
H1048 C1061 0.930 . S
H1049 C1062 0.930 . S
H1050 C1066 0.959 . S
H1051 C1066 0.959 . S
H1052 C1066 0.961 . S
H1053 C1067 0.960 . S
H1054 C1067 0.961 . S
H1055 C1067 0.959 . S
H1056 C1070 0.929 . S
H1057 C1071 0.931 . S
H1058 C1073 0.930 . S
C1059 H1047 0.930 . S
C1059 C1060 1.399 . S
C1059 C1064 1.399 . S
C1060 C1059 1.399 . S
C1060 C1061 1.376 . S
C1061 H1048 0.930 . S
C1061 C1060 1.376 . S
C1061 C1062 1.388 . S
C1062 H1049 0.930 . S
C1062 C1061 1.388 . S
C1062 C1063 1.390 . S
C1063 C1062 1.390 . S
C1063 C1064 1.394 . S
C1063 C1069 1.465 . S
C1064 C1059 1.399 . S
C1064 C1063 1.394 . S
C1064 C1065 1.516 . S
C1065 C1064 1.516 . S
C1065 C1066 1.502 . S
C1065 C1067 1.561 . S
C1065 C1068 1.526 . S
C1066 H1050 0.959 . S
C1066 H1051 0.959 . S
C1066 H1052 0.961 . S
C1066 C1065 1.502 . S
C1067 H1053 0.960 . S
C1067 H1054 0.961 . S
C1067 H1055 0.959 . S
C1067 C1065 1.561 . S
C1068 C1065 1.526 . S
C1068 C1069 1.396 . S
C1068 C1073 1.390 . S
C1069 C1063 1.465 . S
C1069 C1068 1.396 . S
C1069 C1070 1.399 . S
C1070 H1056 0.929 . S
C1070 C1069 1.399 . S
C1070 C1071 1.385 . S
C1071 H1057 0.931 . S
C1071 C1070 1.385 . S
C1071 C1072 1.389 . S
C1072 C1071 1.389 . S
C1072 C1073 1.387 . S
C1073 H1058 0.930 . S
C1073 C1068 1.390 . S
C1073 C1072 1.387 . S
H1074 C1086 0.930 . S
H1075 C1088 0.930 . S
H1076 C1089 0.930 . S
H1077 C1093 0.959 . S
H1078 C1093 0.959 . S
H1079 C1093 0.961 . S
H1080 C1094 0.960 . S
H1081 C1094 0.961 . S
H1082 C1094 0.959 . S
H1083 C1097 0.929 . S
H1084 C1098 0.931 . S
H1085 C1100 0.930 . S
C1086 H1074 0.930 . S
C1086 C1087 1.399 . S
C1086 C1091 1.399 . S
C1087 C1086 1.399 . S
C1087 C1088 1.376 . S
C1088 H1075 0.930 . S
C1088 C1087 1.376 . S
C1088 C1089 1.388 . S
C1089 H1076 0.930 . S
C1089 C1088 1.388 . S
C1089 C1090 1.390 . S
C1090 C1089 1.390 . S
C1090 C1091 1.394 . S
C1090 C1096 1.465 . S
C1091 C1086 1.399 . S
C1091 C1090 1.394 . S
C1091 C1092 1.516 . S
C1092 C1091 1.516 . S
C1092 C1093 1.502 . S
C1092 C1094 1.561 . S
C1092 C1095 1.526 . S
C1093 H1077 0.959 . S
C1093 H1078 0.959 . S
C1093 H1079 0.961 . S
C1093 C1092 1.502 . S
C1094 H1080 0.960 . S
C1094 H1081 0.961 . S
C1094 H1082 0.959 . S
C1094 C1092 1.561 . S
C1095 C1092 1.526 . S
C1095 C1096 1.396 . S
C1095 C1100 1.390 . S
C1096 C1090 1.465 . S
C1096 C1095 1.396 . S
C1096 C1097 1.399 . S
C1097 H1083 0.929 . S
C1097 C1096 1.399 . S
C1097 C1098 1.385 . S
C1098 H1084 0.931 . S
C1098 C1097 1.385 . S
C1098 C1099 1.389 . S
C1099 C1098 1.389 . S
C1099 C1100 1.387 . S
C1100 H1085 0.930 . S
C1100 C1095 1.390 . S
C1100 C1099 1.387 . S
H1101 C1113 0.930 . S
H1102 C1115 0.930 . S
H1103 C1116 0.930 . S
H1104 C1120 0.959 . S
H1105 C1120 0.959 . S
H1106 C1120 0.961 . S
H1107 C1121 0.960 . S
H1108 C1121 0.961 . S
H1109 C1121 0.959 . S
H1110 C1124 0.929 . S
H1111 C1125 0.931 . S
H1112 C1127 0.930 . S
C1113 H1101 0.930 . S
C1113 C1114 1.399 . S
C1113 C1118 1.399 . S
C1114 C1113 1.399 . S
C1114 C1115 1.376 . S
C1115 H1102 0.930 . S
C1115 C1114 1.376 . S
C1115 C1116 1.388 . S
C1116 H1103 0.930 . S
C1116 C1115 1.388 . S
C1116 C1117 1.390 . S
C1117 C1116 1.390 . S
C1117 C1118 1.394 . S
C1117 C1123 1.465 . S
C1118 C1113 1.399 . S
C1118 C1117 1.394 . S
C1118 C1119 1.516 . S
C1119 C1118 1.516 . S
C1119 C1120 1.502 . S
C1119 C1121 1.561 . S
C1119 C1122 1.526 . S
C1120 H1104 0.959 . S
C1120 H1105 0.959 . S
C1120 H1106 0.961 . S
C1120 C1119 1.502 . S
C1121 H1107 0.960 . S
C1121 H1108 0.961 . S
C1121 H1109 0.959 . S
C1121 C1119 1.561 . S
C1122 C1119 1.526 . S
C1122 C1123 1.396 . S
C1122 C1127 1.390 . S
C1123 C1117 1.465 . S
C1123 C1122 1.396 . S
C1123 C1124 1.399 . S
C1124 H1110 0.929 . S
C1124 C1123 1.399 . S
C1124 C1125 1.385 . S
C1125 H1111 0.931 . S
C1125 C1124 1.385 . S
C1125 C1126 1.389 . S
C1126 C1125 1.389 . S
C1126 C1127 1.387 . S
C1127 H1112 0.930 . S
C1127 C1122 1.390 . S
C1127 C1126 1.387 . S
H1128 C1140 0.930 . S
H1129 C1142 0.930 . S
H1130 C1143 0.930 . S
H1131 C1147 0.959 . S
H1132 C1147 0.959 . S
H1133 C1147 0.961 . S
H1134 C1148 0.960 . S
H1135 C1148 0.961 . S
H1136 C1148 0.959 . S
H1137 C1151 0.929 . S
H1138 C1152 0.931 . S
H1139 C1154 0.930 . S
C1140 H1128 0.930 . S
C1140 C1141 1.399 . S
C1140 C1145 1.399 . S
C1141 C1140 1.399 . S
C1141 C1142 1.376 . S
C1142 H1129 0.930 . S
C1142 C1141 1.376 . S
C1142 C1143 1.388 . S
C1143 H1130 0.930 . S
C1143 C1142 1.388 . S
C1143 C1144 1.390 . S
C1144 C1143 1.390 . S
C1144 C1145 1.394 . S
C1144 C1150 1.465 . S
C1145 C1140 1.399 . S
C1145 C1144 1.394 . S
C1145 C1146 1.516 . S
C1146 C1145 1.516 . S
C1146 C1147 1.502 . S
C1146 C1148 1.561 . S
C1146 C1149 1.526 . S
C1147 H1131 0.959 . S
C1147 H1132 0.959 . S
C1147 H1133 0.961 . S
C1147 C1146 1.502 . S
C1148 H1134 0.960 . S
C1148 H1135 0.961 . S
C1148 H1136 0.959 . S
C1148 C1146 1.561 . S
C1149 C1146 1.526 . S
C1149 C1150 1.396 . S
C1149 C1154 1.390 . S
C1150 C1144 1.465 . S
C1150 C1149 1.396 . S
C1150 C1151 1.399 . S
C1151 H1137 0.929 . S
C1151 C1150 1.399 . S
C1151 C1152 1.385 . S
C1152 H1138 0.931 . S
C1152 C1151 1.385 . S
C1152 C1153 1.389 . S
C1153 C1152 1.389 . S
C1153 C1154 1.387 . S
C1154 H1139 0.930 . S
C1154 C1149 1.390 . S
C1154 C1153 1.387 . S
H1155 C1167 0.930 . S
H1156 C1169 0.930 . S
H1157 C1170 0.930 . S
H1158 C1174 0.959 . S
H1159 C1174 0.959 . S
H1160 C1174 0.961 . S
H1161 C1175 0.960 . S
H1162 C1175 0.961 . S
H1163 C1175 0.959 . S
H1164 C1178 0.929 . S
H1165 C1179 0.931 . S
H1166 C1181 0.930 . S
C1167 H1155 0.930 . S
C1167 C1168 1.399 . S
C1167 C1172 1.399 . S
C1168 C1167 1.399 . S
C1168 C1169 1.376 . S
C1169 H1156 0.930 . S
C1169 C1168 1.376 . S
C1169 C1170 1.388 . S
C1170 H1157 0.930 . S
C1170 C1169 1.388 . S
C1170 C1171 1.390 . S
C1171 C1170 1.390 . S
C1171 C1172 1.394 . S
C1171 C1177 1.465 . S
C1172 C1167 1.399 . S
C1172 C1171 1.394 . S
C1172 C1173 1.516 . S
C1173 C1172 1.516 . S
C1173 C1174 1.502 . S
C1173 C1175 1.561 . S
C1173 C1176 1.526 . S
C1174 H1158 0.959 . S
C1174 H1159 0.959 . S
C1174 H1160 0.961 . S
C1174 C1173 1.502 . S
C1175 H1161 0.960 . S
C1175 H1162 0.961 . S
C1175 H1163 0.959 . S
C1175 C1173 1.561 . S
C1176 C1173 1.526 . S
C1176 C1177 1.396 . S
C1176 C1181 1.390 . S
C1177 C1171 1.465 . S
C1177 C1176 1.396 . S
C1177 C1178 1.399 . S
C1178 H1164 0.929 . S
C1178 C1177 1.399 . S
C1178 C1179 1.385 . S
C1179 H1165 0.931 . S
C1179 C1178 1.385 . S
C1179 C1180 1.389 . S
C1180 C1179 1.389 . S
C1180 C1181 1.387 . S
C1181 H1166 0.930 . S
C1181 C1176 1.390 . S
C1181 C1180 1.387 . S
H1182 C1194 0.930 . S
H1183 C1196 0.930 . S
H1184 C1197 0.930 . S
H1185 C1201 0.959 . S
H1186 C1201 0.959 . S
H1187 C1201 0.961 . S
H1188 C1202 0.960 . S
H1189 C1202 0.961 . S
H1190 C1202 0.959 . S
H1191 C1205 0.929 . S
H1192 C1206 0.931 . S
H1193 C1208 0.930 . S
C1194 H1182 0.930 . S
C1194 C1195 1.399 . S
C1194 C1199 1.399 . S
C1195 C1194 1.399 . S
C1195 C1196 1.376 . S
C1196 H1183 0.930 . S
C1196 C1195 1.376 . S
C1196 C1197 1.388 . S
C1197 H1184 0.930 . S
C1197 C1196 1.388 . S
C1197 C1198 1.390 . S
C1198 C1197 1.390 . S
C1198 C1199 1.394 . S
C1198 C1204 1.465 . S
C1199 C1194 1.399 . S
C1199 C1198 1.394 . S
C1199 C1200 1.516 . S
C1200 C1199 1.516 . S
C1200 C1201 1.502 . S
C1200 C1202 1.561 . S
C1200 C1203 1.526 . S
C1201 H1185 0.959 . S
C1201 H1186 0.959 . S
C1201 H1187 0.961 . S
C1201 C1200 1.502 . S
C1202 H1188 0.960 . S
C1202 H1189 0.961 . S
C1202 H1190 0.959 . S
C1202 C1200 1.561 . S
C1203 C1200 1.526 . S
C1203 C1204 1.396 . S
C1203 C1208 1.390 . S
C1204 C1198 1.465 . S
C1204 C1203 1.396 . S
C1204 C1205 1.399 . S
C1205 H1191 0.929 . S
C1205 C1204 1.399 . S
C1205 C1206 1.385 . S
C1206 H1192 0.931 . S
C1206 C1205 1.385 . S
C1206 C1207 1.389 . S
C1207 C1206 1.389 . S
C1207 C1208 1.387 . S
C1208 H1193 0.930 . S
C1208 C1203 1.390 . S
C1208 C1207 1.387 . S
H1209 C1221 0.930 . S
H1210 C1223 0.930 . S
H1211 C1224 0.930 . S
H1212 C1228 0.959 . S
H1213 C1228 0.959 . S
H1214 C1228 0.961 . S
H1215 C1229 0.960 . S
H1216 C1229 0.961 . S
H1217 C1229 0.959 . S
H1218 C1232 0.929 . S
H1219 C1233 0.931 . S
H1220 C1235 0.930 . S
C1221 H1209 0.930 . S
C1221 C1222 1.399 . S
C1221 C1226 1.399 . S
C1222 C1221 1.399 . S
C1222 C1223 1.376 . S
C1223 H1210 0.930 . S
C1223 C1222 1.376 . S
C1223 C1224 1.388 . S
C1224 H1211 0.930 . S
C1224 C1223 1.388 . S
C1224 C1225 1.390 . S
C1225 C1224 1.390 . S
C1225 C1226 1.394 . S
C1225 C1231 1.465 . S
C1226 C1221 1.399 . S
C1226 C1225 1.394 . S
C1226 C1227 1.516 . S
C1227 C1226 1.516 . S
C1227 C1228 1.502 . S
C1227 C1229 1.561 . S
C1227 C1230 1.526 . S
C1228 H1212 0.959 . S
C1228 H1213 0.959 . S
C1228 H1214 0.961 . S
C1228 C1227 1.502 . S
C1229 H1215 0.960 . S
C1229 H1216 0.961 . S
C1229 H1217 0.959 . S
C1229 C1227 1.561 . S
C1230 C1227 1.526 . S
C1230 C1231 1.396 . S
C1230 C1235 1.390 . S
C1231 C1225 1.465 . S
C1231 C1230 1.396 . S
C1231 C1232 1.399 . S
C1232 H1218 0.929 . S
C1232 C1231 1.399 . S
C1232 C1233 1.385 . S
C1233 H1219 0.931 . S
C1233 C1232 1.385 . S
C1233 C1234 1.389 . S
C1234 C1233 1.389 . S
C1234 C1235 1.387 . S
C1235 H1220 0.930 . S
C1235 C1230 1.390 . S
C1235 C1234 1.387 . S
C277 C7 1.240 . S
C289 C182 1.228 . S
C304 C204 1.232 . S
C316 C29 1.249 . S
C331 C51 1.220 . S
C343 C226 1.258 . S
C358 C248 1.258 . S
C370 C73 1.214 . S
C385 C95 1.224 . S
C397 C138 1.256 . S
C412 C160 1.217 . S
C424 C117 1.252 . S
C439 C251 1.238 . S
C451 C71 1.259 . S
C466 C93 1.260 . S
C478 C141 1.234 . S
C493 C163 1.257 . S
C505 C115 1.240 . S
C520 C185 1.240 . S
C532 C5 1.220 . S
C547 C207 1.218 . S
C559 C27 1.242 . S
C574 C49 1.260 . S
C586 C229 1.220 . S
C601 C159 1.295 . S
C613 C9 1.327 . S
C628 C181 1.274 . S
C640 C31 1.314 . S
C655 C203 1.278 . S
C667 C53 1.320 . S
C682 C75 1.328 . S
C694 C225 1.287 . S
C709 C97 1.314 . S
C721 C247 1.321 . S
C736 C137 1.329 . S
C748 C119 1.295 . S
C763 C227 1.329 . S
C775 C72 1.285 . S
C790 C94 1.279 . S
C802 C249 1.331 . S
C817 C139 1.295 . S
C829 C116 1.288 . S
C844 C161 1.328 . S
C856 C6 1.288 . S
C871 C28 1.306 . S
C883 C183 1.318 . S
C898 C50 1.322 . S
C910 C205 1.300 . S
C925 C8 1.556 . S
C937 C224 1.528 . S
C952 C30 1.522 . S
C964 C246 1.563 . S
C979 C136 1.522 . S
C991 C52 1.563 . S
C1006 C158 1.554 . S
C1018 C74 1.529 . S
C1033 C96 1.566 . S
C1045 C180 1.523 . S
C1060 C202 1.520 . S
C1072 C118 1.566 . S
C1087 C70 1.565 . S
C1099 C162 1.540 . S
C1114 C92 1.544 . S
C1126 C184 1.564 . S
C1141 C206 1.549 . S
C1153 C114 1.560 . S
C1168 C228 1.524 . S
C1180 C4 1.550 . S
C1195 C250 1.520 . S
C1207 C26 1.566 . S
C1222 C140 1.546 . S
C1234 C48 1.528 . S
