# Generated by pormake.
# Topology uov, (4)-cn, num edge types: 1
# Building blocks:
#     Node 0, Type 0, BuildingBlock: NAHDIM_clean_sbu_0, # of connection points: 4
#     Node 1, Type 0, BuildingBlock: NAHDIM_clean_sbu_0, # of connection points: 4
#     Node 2, Type 0, BuildingBlock: NAHDIM_clean_sbu_0, # of connection points: 4
#     Node 3, Type 0, BuildingBlock: NAHDIM_clean_sbu_0, # of connection points: 4
#     Node 4, Type 0, BuildingBlock: NAHDIM_clean_sbu_0, # of connection points: 4
#     Node 5, Type 0, BuildingBlock: NAHDIM_clean_sbu_0, # of connection points: 4
#     Node 6, Type 0, BuildingBlock: NAHDIM_clean_sbu_0, # of connection points: 4
#     Node 7, Type 0, BuildingBlock: NAHDIM_clean_sbu_0, # of connection points: 4
#     Edge 8, Type (0, 0), BuildingBlock: ZUJKAS_clean_linker_0, # of connection points: 2
#     Edge 9, Type (0, 0), BuildingBlock: ZUJKAS_clean_linker_0, # of connection points: 2
#     Edge 10, Type (0, 0), BuildingBlock: ZUJKAS_clean_linker_0, # of connection points: 2
#     Edge 11, Type (0, 0), BuildingBlock: ZUJKAS_clean_linker_0, # of connection points: 2
#     Edge 12, Type (0, 0), BuildingBlock: ZUJKAS_clean_linker_0, # of connection points: 2
#     Edge 13, Type (0, 0), BuildingBlock: ZUJKAS_clean_linker_0, # of connection points: 2
#     Edge 14, Type (0, 0), BuildingBlock: ZUJKAS_clean_linker_0, # of connection points: 2
#     Edge 15, Type (0, 0), BuildingBlock: ZUJKAS_clean_linker_0, # of connection points: 2
#     Edge 16, Type (0, 0), BuildingBlock: ZUJKAS_clean_linker_0, # of connection points: 2
#     Edge 17, Type (0, 0), BuildingBlock: ZUJKAS_clean_linker_0, # of connection points: 2
#     Edge 18, Type (0, 0), BuildingBlock: ZUJKAS_clean_linker_0, # of connection points: 2
#     Edge 19, Type (0, 0), BuildingBlock: ZUJKAS_clean_linker_0, # of connection points: 2
#     Edge 20, Type (0, 0), BuildingBlock: ZUJKAS_clean_linker_0, # of connection points: 2
#     Edge 21, Type (0, 0), BuildingBlock: ZUJKAS_clean_linker_0, # of connection points: 2
#     Edge 22, Type (0, 0), BuildingBlock: ZUJKAS_clean_linker_0, # of connection points: 2
#     Edge 23, Type (0, 0), BuildingBlock: ZUJKAS_clean_linker_0, # of connection points: 2
# Relax obj value: 0.256
# Max RMSD: 0.232
# Mean RMSD: 0.232
data_MOF--net-uov--node1-NAHDIM_clean_sbu_0--edge1-ZUJKAS_clean_linker_0
_symmetry_space_group_name_H-M    P1
_symmetry_Int_Tables_number       1
_symmetry_cell_setting            triclinic
loop_
_symmetry_equiv_pos_as_xyz
'x, y, z'
_cell_length_a     39.036896
_cell_length_b     39.061371
_cell_length_c     53.708837
_cell_angle_alpha  89.992837
_cell_angle_beta   89.933427
_cell_angle_gamma 89.964152
loop_
_atom_site_label
_atom_site_type_symbol
_atom_site_fract_x
_atom_site_fract_y
_atom_site_fract_z
_atom_type_partial_charge
C0 C 0.04237 0.33346 0.62848 0.0
O1 O 0.03258 0.31139 0.64551 0.0
O2 O 0.00783 0.25823 0.58885 0.0
Zn3 Zn 0.05406 0.27212 0.60143 0.0
O4 O 0.06554 0.24632 0.63251 0.0
C5 C 0.08148 0.26405 0.55228 0.0
O6 O 0.05318 0.28021 0.54617 0.0
O7 O 0.0537 0.32245 0.60779 0.0
C8 C 0.0682 0.21394 0.63162 0.0
O9 O 0.06286 0.19816 0.61036 0.0
C10 C 0.98373 0.24573 0.60188 0.0
O11 O 0.98809 0.24143 0.62593 0.0
O12 O 0.08821 0.25934 0.57516 0.0
C13 C 0.31545 0.96039 0.37237 0.0
O14 O 0.29164 0.9728 0.35764 0.0
O15 O 0.23857 0.98056 0.41197 0.0
Zn16 Zn 0.25658 0.93683 0.39752 0.0
O17 O 0.23294 0.92581 0.36553 0.0
C18 C 0.25939 0.90186 0.44431 0.0
O19 O 0.27917 0.92787 0.45009 0.0
O20 O 0.3066 0.94277 0.39119 0.0
C21 C 0.20144 0.91784 0.36486 0.0
O22 O 0.18379 0.91697 0.3857 0.0
C23 C 0.22554 0.00486 0.39943 0.0
O24 O 0.22279 0.00189 0.37515 0.0
O25 O 0.24777 0.89956 0.42228 0.0
C26 C 0.94115 0.6827 0.6225 0.0
O27 O 0.93778 0.70356 0.64152 0.0
O28 O 0.98065 0.76243 0.58212 0.0
Zn29 Zn 0.9353 0.74493 0.59405 0.0
O30 O 0.92178 0.76984 0.62513 0.0
C31 C 0.90236 0.74134 0.54603 0.0
O32 O 0.9272 0.71969 0.54101 0.0
O33 O 0.93978 0.69464 0.60052 0.0
C34 C 0.93007 0.8009 0.62864 0.0
O35 O 0.94774 0.81711 0.61147 0.0
C36 C 0.00872 0.75341 0.59213 0.0
O37 O 0.00823 0.73205 0.61102 0.0
O38 O 0.9004 0.75434 0.56767 0.0
C39 C 0.66938 0.04753 0.37043 0.0
O40 O 0.69121 0.03858 0.35298 0.0
O41 O 0.7426 0.00705 0.40942 0.0
Zn42 Zn 0.73096 0.05452 0.39808 0.0
O43 O 0.75689 0.06587 0.36704 0.0
C44 C 0.73997 0.08123 0.44763 0.0
O45 O 0.72406 0.05293 0.45403 0.0
O46 O 0.68065 0.05653 0.39162 0.0
C47 C 0.78934 0.06392 0.36636 0.0
O48 O 0.80602 0.05412 0.38637 0.0
C49 C 0.74911 0.98247 0.39466 0.0
O50 O 0.74876 0.98785 0.37051 0.0
O51 O 0.7447 0.08766 0.4247 0.0
C52 C 0.96694 0.30781 0.12833 0.0
O53 O 0.99037 0.28717 0.13746 0.0
O54 O 0.98953 0.23488 0.08977 0.0
Zn55 Zn 0.94521 0.24563 0.10697 0.0
O56 O 0.94069 0.21955 0.13888 0.0
C57 C 0.90058 0.25012 0.06443 0.0
O58 O 0.91822 0.27808 0.05995 0.0
O59 O 0.94373 0.29558 0.1144 0.0
C60 C 0.92971 0.18896 0.13924 0.0
O61 O 0.92181 0.17385 0.11816 0.0
C62 C 0.01412 0.21827 0.09946 0.0
O63 O 0.01138 0.20718 0.12247 0.0
O64 O 0.90709 0.23279 0.08388 0.0
C65 C 0.31219 0.00218 0.86704 0.0
O66 O 0.29081 0.97837 0.85954 0.0
O67 O 0.23378 0.98722 0.89861 0.0
Zn68 Zn 0.25001 0.03144 0.8837 0.0
O69 O 0.22637 0.0412 0.85145 0.0
C70 C 0.24656 0.06532 0.93081 0.0
O71 O 0.26339 0.03787 0.93793 0.0
O72 O 0.30049 0.02851 0.87801 0.0
C73 C 0.19555 0.05161 0.8514 0.0
O74 O 0.17922 0.05485 0.87268 0.0
C75 C 0.21862 0.96341 0.88689 0.0
O76 O 0.21235 0.96701 0.863 0.0
O77 O 0.23905 0.06885 0.90794 0.0
C78 C 0.02383 0.66823 0.12571 0.0
O79 O 0.00459 0.69124 0.13682 0.0
O80 O 0.00602 0.74484 0.09039 0.0
Zn81 Zn 0.05065 0.72819 0.10422 0.0
O82 O 0.06237 0.75216 0.13594 0.0
C83 C 0.0814 0.72699 0.05635 0.0
O84 O 0.0546 0.7076 0.0519 0.0
O85 O 0.04676 0.67808 0.11053 0.0
C86 C 0.06963 0.78383 0.13624 0.0
O87 O 0.06896 0.80124 0.11531 0.0
C88 C 0.98314 0.76182 0.10182 0.0
O89 O 0.98763 0.76985 0.12534 0.0
O90 O 0.0863 0.73794 0.07834 0.0
C91 C 0.6764 0.96099 0.86404 0.0
O92 O 0.69606 0.97403 0.84658 0.0
O93 O 0.75593 -0.00244 0.9002 0.0
Zn94 Zn 0.74075 0.95131 0.88818 0.0
O95 O 0.76378 0.94005 0.85596 0.0
C96 C 0.74914 0.92293 0.9367 0.0
O97 O 0.73148 0.95031 0.94286 0.0
O98 O 0.68997 0.94953 0.88383 0.0
C99 C 0.79582 0.94422 0.85324 0.0
O100 O 0.81388 0.9565 0.87183 0.0
C101 C 0.73899 0.02531 0.89903 0.0
O102 O 0.70868 0.0255 0.88846 0.0
O103 O 0.75541 0.91722 0.91386 0.0
H104 H 0.95745 0.63502 0.58731 0.0
H105 H 0.97634 0.57615 0.59417 0.0
H106 H 0.96413 0.58916 0.67338 0.0
H107 H 0.94526 0.64835 0.66681 0.0
H108 H 0.03632 0.55862 0.62956 0.0
H109 H 0.91051 0.49763 0.65096 0.0
H110 H 0.91346 0.53611 0.63241 0.0
H111 H 0.9211 0.53801 0.66526 0.0
C112 C 0.95845 0.62535 0.6062 0.0
C113 C 0.94991 0.64636 0.62654 0.0
C114 C 0.96933 0.59177 0.61005 0.0
C115 C 0.97153 0.57856 0.63424 0.0
C116 C 0.96238 0.59906 0.65458 0.0
H117 H 0.01955 0.36574 0.67053 0.0
H118 H 0.00613 0.42658 0.67542 0.0
C119 C 0.95164 0.63279 0.65077 0.0
C120 C 0.98456 0.54357 0.638 0.0
H121 H 0.95866 0.46164 0.64878 0.0
C122 C 0.0195 0.53738 0.634 0.0
C123 C 0.96247 0.51625 0.64406 0.0
C124 C 0.92472 0.52201 0.64839 0.0
C125 C 0.0329 0.50414 0.6353 0.0
C126 C 0.01049 0.47647 0.6401 0.0
C127 C 0.97575 0.48292 0.64507 0.0
C128 C 0.02187 0.44048 0.63813 0.0
C129 C 0.07083 0.49901 0.63139 0.0
C130 C 0.03532 0.42825 0.61559 0.0
C131 C 0.04316 0.39365 0.61276 0.0
C132 C 0.03723 0.37052 0.63235 0.0
C133 C 0.02439 0.38292 0.65509 0.0
C134 C 0.0167 0.41764 0.65793 0.0
H135 H 0.08549 0.52237 0.63646 0.0
H136 H 0.08063 0.47717 0.64254 0.0
H137 H 0.07576 0.49364 0.61142 0.0
H138 H 0.03869 0.44528 0.59985 0.0
H139 H 0.05284 0.38489 0.59496 0.0
H140 H 0.61785 0.05969 0.40369 0.0
H141 H 0.55702 0.04714 0.39849 0.0
H142 H 0.5757 0.01453 0.32297 0.0
H143 H 0.63681 0.02655 0.32806 0.0
H144 H 0.50771 0.07034 0.36379 0.0
H145 H 0.53206 0.93025 0.35675 0.0
H146 H 0.5642 0.96003 0.36737 0.0
H147 H 0.55463 0.95663 0.33477 0.0
C148 C 0.60904 0.05014 0.38588 0.0
C149 C 0.6322 0.04369 0.36638 0.0
C150 C 0.57427 0.04306 0.38294 0.0
C151 C 0.56211 0.02941 0.3605 0.0
C152 C 0.58481 0.02449 0.34057 0.0
H153 H 0.34273 -0.00166 0.33448 0.0
H154 H 0.40266 0.015 0.32892 0.0
C155 C 0.61965 0.03151 0.3435 0.0
C156 C 0.52594 0.01883 0.35858 0.0
H157 H 0.47465 0.94839 0.35427 0.0
C158 C 0.50037 0.04375 0.36148 0.0
C159 C 0.51669 0.98402 0.35586 0.0
C160 C 0.54325 0.95606 0.35371 0.0
C161 C 0.46564 0.0347 0.36213 0.0
C162 C 0.45642 -0.0001 0.35944 0.0
C163 C 0.48195 0.97506 0.35613 0.0
C164 C 0.42055 0.98844 0.36178 0.0
C165 C 0.4392 0.06222 0.36667 0.0
C166 C 0.41113 0.96713 0.38164 0.0
C167 C 0.37705 0.95739 0.3848 0.0
C168 C 0.35182 0.96878 0.36808 0.0
C169 C 0.36154 0.98933 0.34777 0.0
C170 C 0.39569 -0.00098 0.34461 0.0
H171 H 0.45097 0.08644 0.37331 0.0
H172 H 0.42547 0.06769 0.34903 0.0
H173 H 0.42002 0.05362 0.38062 0.0
H174 H 0.43008 0.95862 0.39501 0.0
H175 H 0.37041 0.94145 0.40059 0.0
H176 H 0.01841 0.34329 0.15103 0.0
H177 H 0.02396 0.40534 0.15475 0.0
H178 H 0.92548 0.41848 0.11964 0.0
H179 H 0.92004 0.35646 0.11531 0.0
H180 H 0.97465 0.45637 0.09777 0.0
H181 H 0.97913 0.47543 0.19991 0.0
H182 H 0.00978 0.44451 0.18919 0.0
H183 H 0.96472 0.43598 0.18589 0.0
C184 C -0.0023 0.35935 0.14442 0.0
C185 C 0.96886 0.34502 0.13277 0.0
C186 C 0.0008 0.3948 0.14675 0.0
C187 C 0.97492 0.41645 0.13778 0.0
C188 C 0.94566 0.40216 0.12678 0.0
H189 H 0.97246 0.63862 0.15277 0.0
H190 H 0.95962 0.57752 0.15647 0.0
C191 C 0.94263 0.36674 0.1243 0.0
C192 C 0.97985 0.45395 0.13767 0.0
H193 H -0.00166 0.52242 0.17475 0.0
C194 C 0.97949 0.47087 0.11464 0.0
C195 C 0.9858 0.47281 0.15972 0.0
C196 C 0.98455 0.45632 0.1851 0.0
C197 C 0.98587 0.50604 0.11294 0.0
C198 C 0.99359 0.52457 0.13483 0.0
C199 C 0.9929 0.50794 0.15798 0.0
C200 C 0.00258 0.56123 0.13391 0.0
C201 C 0.98412 0.52306 0.08773 0.0
C202 C 0.03147 0.57207 0.12053 0.0
C203 C 0.03878 0.60687 0.11826 0.0
C204 C 0.01746 0.63139 0.12955 0.0
C205 C 0.98928 0.62035 0.14377 0.0
C206 C 0.98192 0.5855 0.14594 0.0
H207 H 0.9689 0.5077 0.0743 0.0
H208 H 0.97263 0.549 0.08911 0.0
H209 H 0.01043 0.52571 0.08012 0.0
H210 H 0.04812 0.5536 0.11157 0.0
H211 H 0.06087 0.61454 0.10739 0.0
H212 H 0.346 0.94426 0.85271 0.0
H213 H 0.40794 0.93555 0.85033 0.0
H214 H 0.42439 0.0409 0.87121 0.0
H215 H 0.36253 0.04961 0.87432 0.0
H216 H 0.45789 0.96562 0.82246 0.0
H217 H 0.47984 0.9898 0.92292 0.0
H218 H 0.43759 0.98399 0.91004 0.0
H219 H 0.45885 0.02471 0.90748 0.0
C220 C 0.3628 0.96561 0.85674 0.0
C221 C 0.34945 -0.00248 0.86398 0.0
C222 C 0.39815 0.96058 0.85534 0.0
C223 C 0.42068 0.98739 0.86108 0.0
C224 C 0.4074 0.01965 0.86734 0.0
H225 H 0.63839 -0.00284 0.83044 0.0
H226 H 0.57599 0.00158 0.82855 0.0
C227 C 0.37208 0.02462 0.86898 0.0
C228 C 0.45806 0.98144 0.86088 0.0
H229 H 0.52935 0.98602 0.89731 0.0
C230 C 0.47357 0.96991 0.83883 0.0
C231 C 0.47826 0.98646 0.88242 0.0
C232 C 0.46277 -0.00342 0.90712 0.0
C233 C 0.50895 0.96385 0.83761 0.0
C234 C 0.52933 0.97033 0.85885 0.0
C235 C 0.5137 0.98133 0.88098 0.0
C236 C 0.56696 0.96593 0.85873 0.0
C237 C 0.524 0.95003 0.81375 0.0
C238 C 0.58258 0.94488 0.87658 0.0
C239 C 0.61818 0.9428 0.87801 0.0
C240 C 0.63881 0.96164 0.86151 0.0
C241 C 0.62314 0.98214 0.84327 0.0
C242 C 0.58748 0.98451 0.84205 0.0
H243 H 0.50432 0.93686 0.8023 0.0
H244 H 0.53437 0.97158 0.80259 0.0
H245 H 0.54518 0.93178 0.81755 0.0
H246 H 0.56719 0.93041 0.88967 0.0
H247 H 0.62953 0.92669 0.8922 0.0
H248 H 0.1919 0.06009 0.37945 0.0
H249 H 0.16986 0.11028 0.40172 0.0
H250 H 0.2099 0.07018 0.47062 0.0
H251 H 0.2315 0.01993 0.44875 0.0
H252 H 0.14123 0.08917 0.47293 0.0
H253 H 0.22123 0.19269 0.43185 0.0
H254 H 0.19931 0.16551 0.41005 0.0
H255 H 0.23248 0.14796 0.42936 0.0
C256 C 0.19623 0.06212 0.39931 0.0
C257 C 0.21335 0.03598 0.41235 0.0
C258 C 0.18383 0.0909 0.41195 0.0
C259 C 0.18862 0.09406 0.43774 0.0
C260 C 0.20607 0.06824 0.45069 0.0
H261 H 0.13949 0.22609 0.55909 0.0
H262 H 0.16691 0.18822 0.52885 0.0
C263 C 0.21834 0.03951 0.43814 0.0
C264 C 0.17364 0.123 0.45176 0.0
H265 H 0.17824 0.20954 0.46055 0.0
C266 C 0.14926 0.11548 0.47016 0.0
C267 C 0.18414 0.15728 0.44801 0.0
C268 C 0.21091 0.1665 0.42889 0.0
C269 C 0.13536 0.14128 0.48516 0.0
C270 C 0.14631 0.1754 0.48176 0.0
C271 C 0.17007 0.18322 0.46302 0.0
C272 C 0.13386 0.20275 0.49836 0.0
C273 C 0.10926 0.13194 0.50478 0.0
C274 C 0.10705 0.22422 0.49083 0.0
C275 C 0.0912 0.24589 0.50807 0.0
C276 C 0.10198 0.24624 0.53307 0.0
C277 C 0.1304 0.22629 0.54004 0.0
C278 C 0.14617 0.20468 0.52281 0.0
H279 H 0.09977 0.1053 0.50256 0.0
H280 H 0.12107 0.13433 0.52348 0.0
H281 H 0.0871 0.14974 0.50403 0.0
H282 H 0.09726 0.22291 0.47198 0.0
H283 H 0.06946 0.26103 0.50209 0.0
H284 H 0.27284 0.90388 0.49433 0.0
H285 H 0.24344 0.87181 0.52714 0.0
H286 H 0.18608 0.81669 0.47148 0.0
H287 H 0.21565 0.84796 0.43871 0.0
H288 H 0.17609 0.87751 0.53443 0.0
H289 H 0.20628 0.74102 0.52016 0.0
H290 H 0.23173 0.77484 0.50656 0.0
H291 H 0.19321 0.76028 0.49141 0.0
C292 C 0.25463 0.88427 0.48907 0.0
C293 C 0.24633 0.87869 0.46391 0.0
C294 C 0.23789 0.86596 0.50785 0.0
C295 C 0.21282 0.8416 0.50178 0.0
C296 C 0.20591 0.83472 0.47664 0.0
H297 H 0.01771 0.80045 0.55525 0.0
H298 H 0.07154 0.82136 0.53806 0.0
C299 C 0.22263 0.85292 0.45789 0.0
C300 C 0.19013 0.82725 0.52128 0.0
H301 H 0.15049 0.75329 0.53896 0.0
C302 C 0.17114 0.85026 0.53588 0.0
C303 C 0.18394 0.7917 0.5235 0.0
C304 C 0.2052 0.76557 0.50974 0.0
C305 C 0.14428 0.83889 0.55108 0.0
C306 C 0.13588 0.80371 0.55132 0.0
C307 C 0.15663 0.78036 0.53838 0.0
C308 C 0.10364 0.79134 0.56259 0.0
C309 C 0.12428 0.86481 0.56602 0.0
C310 C 0.1039 0.76694 0.58175 0.0
C311 C 0.07302 0.75478 0.59163 0.0
C312 C 0.04151 0.76659 0.58226 0.0
C313 C 0.04149 0.79091 0.56297 0.0
C314 C 0.07225 0.80307 0.55322 0.0
H315 H 0.14007 0.88774 0.57026 0.0
H316 H 0.10179 0.87338 0.55504 0.0
H317 H 0.11492 0.85365 0.58378 0.0
H318 H 0.12793 0.75738 0.58904 0.0
H319 H 0.07387 0.73594 0.60641 0.0
H320 H 0.77559 0.9272 0.36972 0.0
H321 H 0.79424 0.87253 0.38771 0.0
H322 H 0.76187 0.90676 0.46037 0.0
H323 H 0.74323 0.96109 0.44271 0.0
H324 H 0.84457 0.86786 0.42489 0.0
H325 H 0.72361 0.80898 0.45691 0.0
H326 H 0.72492 0.84234 0.43359 0.0
H327 H 0.72707 0.85298 0.46616 0.0
C328 C 0.77198 0.92283 0.38946 0.0
C329 C 0.75808 0.94849 0.40482 0.0
C330 C 0.78257 0.8916 0.39967 0.0
C331 C 0.77885 0.88543 0.42527 0.0
C332 C 0.7642 0.91069 0.44047 0.0
H333 H 0.85063 0.78787 0.5503 0.0
H334 H 0.81862 0.81497 0.51678 0.0
C335 C 0.75389 0.94189 0.43037 0.0
C336 C 0.79371 0.85453 0.43691 0.0
H337 H 0.77505 0.79173 0.4789 0.0
C338 C 0.82939 0.85052 0.43618 0.0
C339 C 0.77373 0.83201 0.45151 0.0
C340 C 0.73516 0.83405 0.45191 0.0
C341 C 0.84595 0.82652 0.45143 0.0
C342 C 0.82608 0.80559 0.4674 0.0
C343 C 0.79021 0.8079 0.46671 0.0
C344 C 0.84216 0.78515 0.48742 0.0
C345 C 0.88462 0.8257 0.45176 0.0
C346 C 0.86518 0.75853 0.48209 0.0
C347 C 0.88384 0.74308 0.50129 0.0
C348 C 0.87953 0.75394 0.52607 0.0
C349 C 0.85482 0.77909 0.53141 0.0
C350 C 0.83636 0.79454 0.51227 0.0
H351 H 0.89603 0.84727 0.44111 0.0
H352 H 0.89429 0.82679 0.47118 0.0
H353 H 0.89369 0.80142 0.44329 0.0
H354 H 0.86953 0.7505 0.46305 0.0
H355 H 0.90244 0.72353 0.4966 0.0
H356 H 0.77434 0.1412 0.44034 0.0
H357 H 0.80882 0.17246 0.47065 0.0
H358 H 0.77793 0.10203 0.52822 0.0
H359 H 0.74311 0.07043 0.49801 0.0
H360 H 0.78292 0.17972 0.54073 0.0
H361 H 0.89738 0.11916 0.49731 0.0
H362 H 0.86755 0.13892 0.47623 0.0
H363 H 0.85473 0.10197 0.49378 0.0
C364 C 0.77435 0.13262 0.45952 0.0
C365 C 0.75637 0.10303 0.4667 0.0
C366 C 0.79401 0.15057 0.4768 0.0
C367 C 0.79606 0.13926 0.50151 0.0
C368 C 0.77656 0.11105 0.50917 0.0
H369 H 0.93178 0.20684 0.62151 0.0
H370 H 0.88309 0.18211 0.59902 0.0
C371 C 0.7568 0.09302 0.49187 0.0
C372 C 0.82138 0.15477 0.51845 0.0
H373 H 0.9075 0.16237 0.5271 0.0
C374 C 0.81018 0.17586 0.53797 0.0
C375 C 0.85679 0.14934 0.51473 0.0
C376 C 0.87 0.12592 0.49452 0.0
C377 C 0.8338 0.19279 0.5534 0.0
C378 C 0.86926 0.18797 0.54925 0.0
C379 C 0.88027 0.16616 0.5301 0.0
C380 C 0.8958 0.20598 0.56384 0.0
C381 C 0.82079 0.2165 0.57346 0.0
C382 C 0.9189 0.22759 0.5515 0.0
C383 C 0.94679 0.2414 0.56415 0.0
C384 C 0.95217 0.23382 0.58944 0.0
C385 C 0.92826 0.21321 0.60205 0.0
C386 C 0.90033 0.19922 0.58929 0.0
H387 H 0.79325 0.22279 0.57094 0.0
H388 H 0.82389 0.20398 0.59186 0.0
H389 H 0.83576 0.24066 0.57367 0.0
H390 H 0.91585 0.23303 0.53184 0.0
H391 H 0.9646 0.25736 0.55391 0.0
H392 H 0.7985 0.03145 0.92504 0.0
H393 H 0.819 0.08101 0.94805 0.0
H394 H 0.73146 0.13944 0.92363 0.0
H395 H 0.71017 0.08942 0.90079 0.0
H396 H 0.83571 0.14665 0.9328 0.0
H397 H 0.72643 0.14692 -0.00037 0.0
H398 H 0.73452 0.11151 0.97887 0.0
H399 H 0.71604 0.15039 0.96713 0.0
C400 C 0.78359 0.05483 0.9244 0.0
C401 C 0.75251 0.05638 0.91126 0.0
C402 C 0.79543 0.08319 0.93753 0.0
C403 C 0.77653 0.11372 0.9378 0.0
C404 C 0.74609 0.11588 0.924 0.0
H405 H 0.88229 0.27873 0.01973 0.0
H406 H 0.84718 0.25262 0.98704 0.0
C407 C 0.73408 0.08735 0.91089 0.0
C408 C 0.78863 0.14246 0.95342 0.0
H409 H 0.77182 0.18447 0.0078 0.0
C410 C 0.82156 0.15547 0.94897 0.0
C411 C 0.77003 0.15367 0.97452 0.0
C412 C 0.73488 0.13985 0.98055 0.0
C413 C 0.83728 0.17788 0.96584 0.0
C414 C 0.81918 0.18812 0.98744 0.0
C415 C 0.78549 0.17665 0.99114 0.0
C416 C 0.83642 0.20652 0.00798 0.0
C417 C 0.87395 0.18848 0.96126 0.0
C418 C 0.84059 0.18996 0.03095 0.0
C419 C 0.86027 0.20485 0.04967 0.0
C420 C 0.87627 0.23664 0.04576 0.0
C421 C 0.87058 0.25406 0.02321 0.0
C422 C 0.85067 0.23914 0.00448 0.0
H423 H 0.88602 0.17356 0.94597 0.0
H424 H 0.87468 0.21595 0.95605 0.0
H425 H 0.88953 0.1851 0.97837 0.0
H426 H 0.82972 0.16479 0.03404 0.0
H427 H 0.86392 0.19083 0.06686 0.0
H428 H 0.21083 0.12426 0.92217 0.0
H429 H 0.17915 0.15837 0.95256 0.0
H430 H 0.21661 0.09388 0.01177 0.0
H431 H 0.24881 0.05988 0.98156 0.0
H432 H 0.12814 0.12821 0.98061 0.0
H433 H 0.22409 0.18978 0.04221 0.0
H434 H 0.23484 0.17307 0.01181 0.0
H435 H 0.23029 0.14459 0.0379 0.0
C436 C 0.21299 0.11778 0.94172 0.0
C437 C 0.23208 0.08915 0.94944 0.0
C438 C 0.19491 0.13734 0.95905 0.0
C439 C 0.19571 0.12878 0.98441 0.0
C440 C 0.21616 0.10133 0.99235 0.0
H441 H 0.06607 0.17374 0.11076 0.0
H442 H 0.11234 0.1547 0.08316 0.0
C443 C 0.23436 0.08177 0.97501 0.0
C444 C 0.17158 0.14542 0.00187 0.0
H445 H 0.16604 0.19004 0.05641 0.0
C446 C 0.13644 0.14207 -0.00296 0.0
C447 C 0.18253 0.16306 0.02342 0.0
C448 C 0.22001 0.16816 0.02911 0.0
C449 C 0.11185 0.15536 0.01337 0.0
C450 C 0.12274 0.17308 0.03491 0.0
C451 C 0.15788 0.17653 0.03981 0.0
C452 C 0.09765 0.18764 0.0526 0.0
C453 C 0.07441 0.14946 0.00778 0.0
C454 C 0.07487 0.2132 0.04476 0.0
C455 C 0.04833 0.2239 0.06033 0.0
C456 C 0.04432 0.20943 0.08414 0.0
C457 C 0.06838 0.18522 0.09248 0.0
C458 C 0.09486 0.17438 0.07679 0.0
H459 H 0.07066 0.12854 0.99404 0.0
H460 H 0.06003 0.14299 0.025 0.0
H461 H 0.06323 0.1732 -0.00014 0.0
H462 H 0.07702 0.22415 0.02629 0.0
H463 H 0.0305 0.24294 0.05347 0.0
H464 H 0.07355 0.71428 0.0066 0.0
H465 H 0.10252 0.7432 0.97211 0.0
H466 H 0.16459 0.7993 0.02446 0.0
H467 H 0.13619 0.7703 0.05896 0.0
H468 H 0.09865 0.81248 0.96584 0.0
H469 H 0.23453 0.7734 0.9717 0.0
H470 H 0.20059 0.74985 0.98688 0.0
H471 H 0.21823 0.78761 0.00118 0.0
C472 C 0.09393 0.73217 0.01076 0.0
C473 C 0.10241 0.74018 0.03554 0.0
C474 C 0.11045 0.74865 0.99102 0.0
C475 C 0.13592 0.77313 0.99571 0.0
C476 C 0.14554 0.77995 0.02038 0.0
H477 H 0.22884 0.94847 0.93589 0.0
H478 H 0.20948 0.89812 0.95872 0.0
C479 C 0.12906 0.76353 0.04011 0.0
C480 C 0.14926 0.79482 0.97529 0.0
H481 H 0.22316 0.82699 0.9507 0.0
C482 C 0.12582 0.81513 0.96208 0.0
C483 C 0.18471 0.79822 0.9705 0.0
C484 C 0.21093 0.77583 0.98315 0.0
C485 C 0.13699 0.84033 0.94535 0.0
C486 C 0.17253 0.84488 0.9415 0.0
C487 C 0.19592 0.82345 0.95378 0.0
C488 C 0.1859 0.87396 0.92681 0.0
C489 C 0.11081 0.86324 0.93309 0.0
C490 C 0.17941 0.87678 0.9012 0.0
C491 C 0.19033 0.90571 0.88804 0.0
C492 C 0.20799 0.93214 0.90033 0.0
C493 C 0.21515 0.92869 0.92586 0.0
C494 C 0.20425 0.89986 0.93894 0.0
H495 H 0.08486 0.86003 0.94128 0.0
H496 H 0.1184 0.89053 0.93482 0.0
H497 H 0.10931 0.85698 0.91297 0.0
H498 H 0.16564 0.85679 0.89148 0.0
H499 H 0.18463 0.9075 0.86836 0.0
H500 H 0.74901 0.93326 0.98712 0.0
H501 H 0.78293 0.90248 0.01827 0.0
H502 H 0.81966 0.83367 0.96144 0.0
H503 H 0.78622 0.86433 0.93014 0.0
H504 H 0.78817 0.82969 0.03263 0.0
H505 H 0.90621 0.88296 0.98962 0.0
H506 H 0.86409 0.89986 0.98319 0.0
H507 H 0.87825 0.8611 0.96836 0.0
C508 C 0.7639 0.91126 0.9813 0.0
C509 C 0.76536 0.90155 0.9561 0.0
C510 C 0.78317 0.8937 -0.00086 0.0
C511 C 0.80412 0.86624 0.992 0.0
C512 C 0.80396 0.85515 0.96717 0.0
H513 H 0.9649 0.74552 0.05438 0.0
H514 H 0.91832 0.76969 0.02986 0.0
C515 C 0.78482 0.87269 0.94934 0.0
C516 C 0.82835 0.85094 0.00992 0.0
H517 H 0.91377 0.84094 0.02086 0.0
C518 C 0.81564 0.83222 0.03022 0.0
C519 C 0.8641 0.85471 0.00675 0.0
C520 C 0.87909 0.87599 0.98595 0.0
C521 C 0.838 0.816 0.04701 0.0
C522 C 0.87373 0.81908 0.0434 0.0
C523 C 0.88631 0.83846 0.02342 0.0
C524 C 0.89893 0.80172 0.05956 0.0
C525 C 0.82337 0.79492 0.068 0.0
C526 C 0.90314 0.81147 0.08451 0.0
C527 C 0.92987 0.79766 0.09868 0.0
C528 C 0.95287 0.77416 0.08796 0.0
C529 C 0.94779 0.76372 0.06318 0.0
C530 C 0.92113 0.77743 0.04913 0.0
H531 H 0.79561 0.78978 0.06542 0.0
H532 H 0.83713 0.77012 0.0696 0.0
H533 H 0.82674 0.80894 0.08579 0.0
H534 H 0.88656 0.83063 0.09274 0.0
H535 H 0.93316 0.80624 0.1177 0.0
H536 H 0.08048 0.23897 0.67822 0.0
H537 H 0.09992 0.2072 0.71475 0.0
H538 H 0.09868 0.11345 0.67238 0.0
H539 H 0.07886 0.14494 0.6357 0.0
H540 H 0.06965 0.10807 0.721 0.0
H541 H 0.19809 0.16907 0.72167 0.0
H542 H 0.163 0.19883 0.72149 0.0
H543 H 0.16977 0.17123 0.69516 0.0
C544 C 0.08424 0.21158 0.67665 0.0
C545 C 0.07842 0.1945 0.654 0.0
C546 C 0.09545 0.19352 0.69752 0.0
C547 C 0.10122 0.15814 0.69608 0.0
C548 C 0.09451 0.14081 0.67376 0.0
H549 H 0.22133 0.04551 0.80434 0.0
H550 H 0.19673 0.0678 0.76581 0.0
C551 C 0.08326 0.15886 0.65284 0.0
C552 C 0.11481 0.1394 0.71782 0.0
H553 H 0.1834 0.1355 0.75694 0.0
C554 C 0.09458 0.11386 0.72883 0.0
C555 C 0.14754 0.14676 0.72767 0.0
C556 C 0.17105 0.17273 0.71579 0.0
C557 C 0.10594 0.09602 0.74996 0.0
C558 C 0.13812 0.10436 0.76039 0.0
C559 C 0.15863 0.12933 0.74898 0.0
C560 C 0.15105 0.08794 0.78334 0.0
C561 C 0.08359 0.06825 0.76078 0.0
C562 C 0.13333 0.09167 0.80592 0.0
C563 C 0.14726 0.07886 0.82799 0.0
C564 C 0.17933 0.06245 0.82785 0.0
C565 C 0.19662 0.05811 0.80509 0.0
C566 C 0.18262 0.0708 0.78305 0.0
H567 H 0.06482 0.05859 0.74693 0.0
H568 H 0.09925 0.04642 0.76755 0.0
H569 H 0.06902 0.07877 0.7768 0.0
H570 H 0.10927 0.10545 0.80662 0.0
H571 H 0.13338 0.08275 0.84523 0.0
H572 H 0.0902 0.85012 0.14335 0.0
H573 H 0.11063 0.87608 0.18211 0.0
H574 H 0.09262 0.78116 0.22097 0.0
H575 H 0.07249 0.7549 0.18243 0.0
H576 H 0.07764 0.88293 0.22984 0.0
H577 H 0.19503 0.80262 0.23336 0.0
H578 H 0.16935 0.80689 0.2056 0.0
H579 H 0.15581 0.77896 0.23031 0.0
C580 C 0.09046 0.83481 0.16017 0.0
C581 C 0.08006 0.80036 0.15978 0.0
C582 C 0.10207 0.8497 0.18227 0.0
C583 C 0.10356 0.83033 0.20422 0.0
C584 C 0.09217 0.79631 0.20407 0.0
H585 H 0.13654 0.89365 0.35696 0.0
H586 H 0.1117 0.87478 0.31744 0.0
C587 C 0.0806 0.78141 0.18204 0.0
C588 C 0.11781 0.84532 0.22721 0.0
H589 H 0.18291 0.83637 0.26898 0.0
C590 C 0.10071 0.87292 0.23841 0.0
C591 C 0.14814 0.83236 0.23806 0.0
C592 C 0.16839 0.80378 0.22614 0.0
C593 C 0.11286 0.88753 0.26058 0.0
C594 C 0.14258 0.87383 0.27184 0.0
C595 C 0.15997 0.84663 0.26036 0.0
C596 C 0.15647 0.88735 0.29546 0.0
C597 C 0.0941 0.91773 0.27159 0.0
C598 C 0.18993 0.9003 0.29617 0.0
C599 C 0.20427 0.91079 0.31868 0.0
C600 C 0.18541 0.9084 0.34093 0.0
C601 C 0.15166 0.89593 0.34012 0.0
C602 C 0.13735 0.88534 0.31755 0.0
H603 H 0.07737 0.93044 0.25764 0.0
H604 H 0.07767 0.90877 0.28715 0.0
H605 H 0.11238 0.9369 0.27909 0.0
H606 H 0.20512 0.90191 0.27931 0.0
H607 H 0.23031 0.92036 0.31864 0.0
H608 H 0.89189 0.77498 0.6668 0.0
H609 H 0.87362 0.80429 0.70467 0.0
H610 H 0.92668 0.89556 0.68114 0.0
H611 H 0.94474 0.86659 0.64287 0.0
H612 H 0.91364 0.83413 0.74198 0.0
H613 H 0.82895 0.92943 0.69575 0.0
H614 H 0.84484 0.89189 0.67991 0.0
H615 H 0.87241 0.92807 0.68472 0.0
C616 C 0.89966 0.80132 0.66961 0.0
C617 C 0.91958 0.81855 0.65175 0.0
C618 C 0.88925 0.81798 0.69129 0.0
C619 C 0.89849 0.85216 0.69552 0.0
C620 C 0.91882 0.86934 0.67797 0.0
H621 H 0.86393 0.94817 0.84127 0.0
H622 H 0.89156 0.92874 0.8028 0.0
C623 C 0.92921 0.8527 0.65619 0.0
C624 C 0.88662 0.86955 0.71839 0.0
H625 H 0.83403 0.93312 0.7394 0.0
C626 C 0.89645 0.85594 0.74148 0.0
C627 C 0.86399 0.89779 0.71754 0.0
C628 C 0.85162 0.91259 0.69319 0.0
C629 C 0.8837 0.86945 0.76384 0.0
C630 C 0.86101 0.89765 0.76299 0.0
C631 C 0.85167 0.91166 0.73991 0.0
C632 C 0.84455 0.91123 0.78572 0.0
C633 C 0.89351 0.85257 0.78809 0.0
C634 C 0.80894 0.90868 0.78847 0.0
C635 C 0.79309 0.91988 0.81027 0.0
C636 C 0.8126 0.93393 0.82973 0.0
C637 C 0.84823 0.93726 0.82668 0.0
C638 C 0.86408 0.92606 0.80479 0.0
H639 H 0.90551 0.82709 0.78514 0.0
H640 H 0.91219 0.86902 0.79803 0.0
H641 H 0.87072 0.84936 0.80027 0.0
H642 H 0.79345 0.89737 0.7739 0.0
H643 H 0.76558 0.91707 0.81197 0.0
H644 H 0.85876 0.06558 0.35885 0.0
H645 H 0.88915 0.08455 0.32134 0.0
H646 H 0.79257 0.10268 0.28475 0.0
H647 H 0.762 0.08413 0.32203 0.0
H648 H 0.88516 0.06 0.27087 0.0
H649 H 0.84367 0.19525 0.28041 0.0
H650 H 0.84062 0.16479 0.30561 0.0
H651 H 0.80903 0.16503 0.28127 0.0
C652 C 0.844 0.07353 0.34279 0.0
C653 C 0.80798 0.07368 0.34349 0.0
C654 C 0.8614 0.08428 0.32141 0.0
C655 C 0.84303 0.09546 0.30052 0.0
C656 C 0.80714 0.09468 0.3009 0.0
H657 H 0.89519 0.12913 0.14748 0.0
H658 H 0.87898 0.10463 0.18766 0.0
C659 C 0.78975 0.08398 0.3222 0.0
C660 C 0.86114 0.10857 0.27834 0.0
H661 H 0.86839 0.1793 0.24158 0.0
C662 C 0.88185 0.08616 0.26453 0.0
C663 C 0.85713 0.14284 0.27043 0.0
C664 C 0.83668 0.16851 0.28531 0.0
C665 C 0.89766 0.09685 0.24236 0.0
C666 C 0.89212 0.13063 0.23376 0.0
C667 C 0.87242 0.15333 0.24811 0.0
C668 C 0.90536 0.14295 0.20955 0.0
C669 C 0.92012 0.07195 0.2284 0.0
C670 C 0.92542 0.17269 0.20853 0.0
C671 C 0.93431 0.18701 0.18562 0.0
C672 C 0.92325 0.17183 0.1633 0.0
C673 C 0.90422 0.14134 0.16434 0.0
C674 C 0.89514 0.12715 0.1873 0.0
H675 H 0.93012 0.05159 0.24089 0.0
H676 H 0.90481 0.0594 0.2136 0.0
H677 H 0.9421 0.0852 0.21949 0.0
H678 H 0.93345 0.18534 0.2255 0.0
H679 H 0.94916 0.21043 0.18544 0.0
loop_
_geom_bond_atom_site_label_1
_geom_bond_atom_site_label_2
_geom_bond_distance
_geom_bond_site_symmetry_2
_ccdc_geom_bond_type
C0 O1 1.160 . S
C0 O7 1.185 . S
O1 C0 1.160 . S
O2 Zn3 1.899 . S
O2 C10 1.284 1_455 S
Zn3 O2 1.899 . S
Zn3 O4 2.032 . S
Zn3 O7 2.086 . S
Zn3 O12 1.977 . S
O4 Zn3 2.032 . S
O4 C8 1.278 . S
C5 O6 1.203 . S
C5 O12 1.267 . S
O6 C5 1.203 . S
O7 C0 1.185 . S
O7 Zn3 2.086 . S
C8 O4 1.278 . S
C8 O9 1.211 . S
O9 C8 1.211 . S
C10 O2 1.284 1_655 S
C10 O11 1.273 1_655 S
O11 C10 1.273 1_455 S
O12 Zn3 1.977 . S
O12 C5 1.267 . S
C13 O14 1.160 . S
C13 O20 1.185 . S
O14 C13 1.160 . S
O15 Zn16 1.899 . S
O15 C23 1.284 1_565 S
Zn16 O15 1.899 . S
Zn16 O17 2.032 . S
Zn16 O20 2.086 . S
Zn16 O25 1.977 . S
O17 Zn16 2.032 . S
O17 C21 1.278 . S
C18 O19 1.203 . S
C18 O25 1.267 . S
O19 C18 1.203 . S
O20 C13 1.185 . S
O20 Zn16 2.086 . S
C21 O17 1.278 . S
C21 O22 1.211 . S
O22 C21 1.211 . S
C23 O15 1.284 1_545 S
C23 O24 1.273 1_545 S
O24 C23 1.273 1_565 S
O25 Zn16 1.977 . S
O25 C18 1.267 . S
C26 O27 1.160 . S
C26 O33 1.185 . S
O27 C26 1.160 . S
O28 Zn29 1.899 . S
O28 C36 1.284 1_655 S
Zn29 O28 1.899 . S
Zn29 O30 2.032 . S
Zn29 O33 2.086 . S
Zn29 O38 1.977 . S
O30 Zn29 2.032 . S
O30 C34 1.278 . S
C31 O32 1.203 . S
C31 O38 1.267 . S
O32 C31 1.203 . S
O33 C26 1.185 . S
O33 Zn29 2.086 . S
C34 O30 1.278 . S
C34 O35 1.211 . S
O35 C34 1.211 . S
C36 O28 1.284 1_455 S
C36 O37 1.273 1_455 S
O37 C36 1.273 1_655 S
O38 Zn29 1.977 . S
O38 C31 1.267 . S
C39 O40 1.160 . S
C39 O46 1.185 . S
O40 C39 1.160 . S
O41 Zn42 1.899 . S
O41 C49 1.284 1_545 S
Zn42 O41 1.899 . S
Zn42 O43 2.032 . S
Zn42 O46 2.086 . S
Zn42 O51 1.977 . S
O43 Zn42 2.032 . S
O43 C47 1.278 . S
C44 O45 1.203 . S
C44 O51 1.267 . S
O45 C44 1.203 . S
O46 C39 1.185 . S
O46 Zn42 2.086 . S
C47 O43 1.278 . S
C47 O48 1.211 . S
O48 C47 1.211 . S
C49 O41 1.284 1_565 S
C49 O50 1.273 1_565 S
O50 C49 1.273 1_545 S
O51 Zn42 1.977 . S
O51 C44 1.267 . S
C52 O53 1.160 . S
C52 O59 1.185 . S
O53 C52 1.160 . S
O54 Zn55 1.899 . S
O54 C62 1.284 1_655 S
Zn55 O54 1.899 . S
Zn55 O56 2.032 . S
Zn55 O59 2.086 . S
Zn55 O64 1.977 . S
O56 Zn55 2.032 . S
O56 C60 1.278 . S
C57 O58 1.203 . S
C57 O64 1.267 . S
O58 C57 1.203 . S
O59 C52 1.185 . S
O59 Zn55 2.086 . S
C60 O56 1.278 . S
C60 O61 1.211 . S
O61 C60 1.211 . S
C62 O54 1.284 1_455 S
C62 O63 1.273 1_455 S
O63 C62 1.273 1_655 S
O64 Zn55 1.977 . S
O64 C57 1.267 . S
C65 O66 1.160 . S
C65 O72 1.185 . S
O66 C65 1.160 . S
O67 Zn68 1.899 . S
O67 C75 1.284 1_545 S
Zn68 O67 1.899 . S
Zn68 O69 2.032 . S
Zn68 O72 2.086 . S
Zn68 O77 1.977 . S
O69 Zn68 2.032 . S
O69 C73 1.278 . S
C70 O71 1.203 . S
C70 O77 1.267 . S
O71 C70 1.203 . S
O72 C65 1.185 . S
O72 Zn68 2.086 . S
C73 O69 1.278 . S
C73 O74 1.211 . S
O74 C73 1.211 . S
C75 O67 1.284 1_565 S
C75 O76 1.273 1_565 S
O76 C75 1.273 1_545 S
O77 Zn68 1.977 . S
O77 C70 1.267 . S
C78 O79 1.160 . S
C78 O85 1.185 . S
O79 C78 1.160 . S
O80 Zn81 1.899 . S
O80 C88 1.284 1_455 S
Zn81 O80 1.899 . S
Zn81 O82 2.032 . S
Zn81 O85 2.086 . S
Zn81 O90 1.977 . S
O82 Zn81 2.032 . S
O82 C86 1.278 . S
C83 O84 1.203 . S
C83 O90 1.267 . S
O84 C83 1.203 . S
O85 C78 1.185 . S
O85 Zn81 2.086 . S
C86 O82 1.278 . S
C86 O87 1.211 . S
O87 C86 1.211 . S
C88 O80 1.284 1_655 S
C88 O89 1.273 1_655 S
O89 C88 1.273 1_455 S
O90 Zn81 1.977 . S
O90 C83 1.267 . S
C91 O92 1.160 . S
C91 O98 1.185 . S
O92 C91 1.160 . S
O93 Zn94 1.899 . S
O93 C101 1.284 1_565 S
Zn94 O93 1.899 . S
Zn94 O95 2.032 . S
Zn94 O98 2.086 . S
Zn94 O103 1.977 . S
O95 Zn94 2.032 . S
O95 C99 1.278 . S
C96 O97 1.203 . S
C96 O103 1.267 . S
O97 C96 1.203 . S
O98 C91 1.185 . S
O98 Zn94 2.086 . S
C99 O95 1.278 . S
C99 O100 1.211 . S
O100 C99 1.211 . S
C101 O93 1.284 1_545 S
C101 O102 1.273 1_545 S
O102 C101 1.273 1_565 S
O103 Zn94 1.977 . S
O103 C96 1.267 . S
H104 C112 0.929 . S
H105 C114 0.930 . S
H106 C116 0.930 . S
H107 C119 0.929 . S
H108 C122 0.930 . S
H109 C124 0.960 . S
H110 C124 0.960 . S
H111 C124 0.960 . S
C112 H104 0.929 . S
C112 C113 1.377 . S
C112 C114 1.384 . S
C113 C112 1.377 . S
C113 C119 1.390 . S
C114 H105 0.930 . S
C114 C112 1.384 . S
C114 C115 1.372 . S
C115 C114 1.372 . S
C115 C116 1.400 . S
C115 C120 1.490 . S
C116 H106 0.930 . S
C116 C115 1.400 . S
C116 C119 1.386 . S
H117 C133 0.930 . S
H118 C134 0.931 . S
C119 H107 0.929 . S
C119 C113 1.390 . S
C119 C116 1.386 . S
C120 C115 1.490 . S
C120 C122 1.395 1_655 S
C120 C123 1.403 . S
H121 C127 0.930 . S
C122 H108 0.930 . S
C122 C120 1.395 1_455 S
C122 C125 1.403 . S
C123 C120 1.403 . S
C123 C124 1.524 . S
C123 C127 1.400 . S
C124 H109 0.960 . S
C124 H110 0.960 . S
C124 H111 0.960 . S
C124 C123 1.524 . S
C125 C122 1.403 . S
C125 C126 1.392 . S
C125 C129 1.495 . S
C126 C125 1.392 . S
C126 C127 1.385 1_455 S
C126 C128 1.478 . S
C127 H121 0.930 . S
C127 C123 1.400 . S
C127 C126 1.385 1_655 S
C128 C126 1.478 . S
C128 C130 1.381 . S
C128 C134 1.383 . S
C129 C125 1.495 . S
C129 H135 0.959 . S
C129 H136 0.961 . S
C129 H137 0.960 . S
C130 C128 1.381 . S
C130 C131 1.394 . S
C130 H138 0.942 . S
C131 C130 1.394 . S
C131 C132 1.383 . S
C131 H139 0.929 . S
C132 C131 1.383 . S
C132 C133 1.377 . S
C133 H117 0.930 . S
C133 C132 1.377 . S
C133 C134 1.379 . S
C134 H118 0.931 . S
C134 C128 1.383 . S
C134 C133 1.379 . S
H135 C129 0.959 . S
H136 C129 0.961 . S
H137 C129 0.960 . S
H138 C130 0.942 . S
H139 C131 0.929 . S
H140 C148 0.929 . S
H141 C150 0.930 . S
H142 C152 0.940 . S
H143 C155 0.929 . S
H144 C158 0.930 . S
H145 C160 0.960 . S
H146 C160 0.960 . S
H147 C160 0.960 . S
C148 H140 0.929 . S
C148 C149 1.377 . S
C148 C150 1.384 . S
C149 C148 1.377 . S
C149 C155 1.390 . S
C150 H141 0.930 . S
C150 C148 1.384 . S
C150 C151 1.372 . S
C151 C150 1.372 . S
C151 C152 1.400 . S
C151 C156 1.490 . S
C152 H142 0.940 . S
C152 C151 1.400 . S
C152 C155 1.386 . S
H153 C169 0.930 . S
H154 C170 0.931 . S
C155 H143 0.929 . S
C155 C149 1.390 . S
C155 C152 1.386 . S
C156 C151 1.490 . S
C156 C158 1.395 . S
C156 C159 1.403 1_545 S
H157 C163 0.930 . S
C158 H144 0.930 . S
C158 C156 1.395 . S
C158 C161 1.403 . S
C159 C156 1.403 1_565 S
C159 C160 1.524 . S
C159 C163 1.400 . S
C160 H145 0.960 . S
C160 H146 0.960 . S
C160 H147 0.960 . S
C160 C159 1.524 . S
C161 C158 1.403 . S
C161 C162 1.392 1_545 S
C161 C165 1.495 . S
C162 C161 1.392 1_565 S
C162 C163 1.385 . S
C162 C164 1.478 . S
C163 H157 0.930 . S
C163 C159 1.400 . S
C163 C162 1.385 . S
C164 C162 1.478 . S
C164 C166 1.381 . S
C164 C170 1.383 . S
C165 C161 1.495 . S
C165 H171 0.959 . S
C165 H172 0.961 . S
C165 H173 0.960 . S
C166 C164 1.381 . S
C166 C167 1.394 . S
C166 H174 0.930 . S
C167 C166 1.394 . S
C167 C168 1.383 . S
C167 H175 0.929 . S
C168 C167 1.383 . S
C168 C169 1.377 . S
C169 H153 0.930 . S
C169 C168 1.377 . S
C169 C170 1.379 . S
C170 H154 0.931 . S
C170 C164 1.383 . S
C170 C169 1.379 . S
H171 C165 0.959 . S
H172 C165 0.961 . S
H173 C165 0.960 . S
H174 C166 0.930 . S
H175 C167 0.929 . S
H176 C184 0.929 1_455 S
H177 C186 0.930 . S
H178 C188 0.930 . S
H179 C191 0.929 . S
H180 C194 0.930 . S
H181 C196 0.960 . S
H182 C196 0.960 . S
H183 C196 0.960 . S
C184 H176 0.929 1_655 S
C184 C185 1.377 . S
C184 C186 1.384 1_655 S
C185 C184 1.377 . S
C185 C191 1.390 . S
C186 H177 0.930 . S
C186 C184 1.384 1_455 S
C186 C187 1.372 1_455 S
C187 C186 1.372 1_655 S
C187 C188 1.400 . S
C187 C192 1.490 . S
C188 H178 0.930 . S
C188 C187 1.400 . S
C188 C191 1.386 . S
H189 C205 0.930 1_655 S
H190 C206 0.931 1_655 S
C191 H179 0.929 . S
C191 C185 1.390 . S
C191 C188 1.386 . S
C192 C187 1.490 . S
C192 C194 1.395 1_655 S
C192 C195 1.403 . S
H193 C199 0.930 . S
C194 H180 0.930 . S
C194 C192 1.395 1_455 S
C194 C197 1.403 . S
C195 C192 1.403 . S
C195 C196 1.524 . S
C195 C199 1.400 . S
C196 H181 0.960 . S
C196 H182 0.960 . S
C196 H183 0.960 . S
C196 C195 1.524 . S
C197 C194 1.403 . S
C197 C198 1.392 . S
C197 C201 1.495 . S
C198 C197 1.392 . S
C198 C199 1.385 1_455 S
C198 C200 1.478 . S
C199 H193 0.930 . S
C199 C195 1.400 . S
C199 C198 1.385 1_655 S
C200 C198 1.478 . S
C200 C202 1.381 . S
C200 C206 1.383 . S
C201 C197 1.495 . S
C201 H207 0.959 . S
C201 H208 0.961 . S
C201 H209 0.960 . S
C202 C200 1.381 . S
C202 C203 1.394 . S
C202 H210 0.930 . S
C203 C202 1.394 . S
C203 C204 1.383 . S
C203 H211 0.929 . S
C204 C203 1.383 . S
C204 C205 1.377 . S
C205 H189 0.930 1_455 S
C205 C204 1.377 . S
C205 C206 1.379 . S
C206 H190 0.931 1_455 S
C206 C200 1.383 . S
C206 C205 1.379 . S
H207 C201 0.959 . S
H208 C201 0.961 . S
H209 C201 0.960 . S
H210 C202 0.930 . S
H211 C203 0.929 . S
H212 C220 0.929 1_565 S
H213 C222 0.930 . S
H214 C224 0.930 . S
H215 C227 0.929 . S
H216 C230 0.930 . S
H217 C232 0.960 . S
H218 C232 0.960 . S
H219 C232 0.960 . S
C220 H212 0.929 1_545 S
C220 C221 1.377 . S
C220 C222 1.384 1_545 S
C221 C220 1.377 . S
C221 C227 1.390 . S
C222 H213 0.930 . S
C222 C220 1.384 1_565 S
C222 C223 1.372 1_565 S
C223 C222 1.372 1_545 S
C223 C224 1.400 . S
C223 C228 1.490 . S
C224 H214 0.930 . S
C224 C223 1.400 . S
C224 C227 1.386 . S
H225 C241 0.930 1_545 S
H226 C242 0.924 1_545 S
C227 H215 0.929 . S
C227 C221 1.390 . S
C227 C224 1.386 . S
C228 C223 1.490 . S
C228 C230 1.395 1_545 S
C228 C231 1.403 . S
H229 C235 0.930 . S
C230 H216 0.930 . S
C230 C228 1.395 1_565 S
C230 C233 1.403 . S
C231 C228 1.403 . S
C231 C232 1.524 . S
C231 C235 1.400 . S
C232 H217 0.960 . S
C232 H218 0.960 . S
C232 H219 0.960 . S
C232 C231 1.524 . S
C233 C230 1.403 . S
C233 C234 1.392 . S
C233 C237 1.495 . S
C234 C233 1.392 . S
C234 C235 1.385 1_565 S
C234 C236 1.478 . S
C235 H229 0.930 . S
C235 C231 1.400 . S
C235 C234 1.385 1_545 S
C236 C234 1.478 . S
C236 C238 1.381 . S
C236 C242 1.387 . S
C237 C233 1.495 . S
C237 H243 0.959 . S
C237 H244 0.961 . S
C237 H245 0.960 . S
C238 C236 1.381 . S
C238 C239 1.394 . S
C238 H246 0.930 . S
C239 C238 1.394 . S
C239 C240 1.383 . S
C239 H247 0.929 . S
C240 C239 1.383 . S
C240 C241 1.377 . S
C241 H225 0.930 1_565 S
C241 C240 1.377 . S
C241 C242 1.381 . S
C242 H226 0.924 1_565 S
C242 C236 1.387 . S
C242 C241 1.381 . S
H243 C237 0.959 . S
H244 C237 0.961 . S
H245 C237 0.960 . S
H246 C238 0.930 . S
H247 C239 0.929 . S
H248 C256 0.914 1_565 S
H249 C258 0.930 . S
H250 C260 0.930 . S
H251 C263 0.929 . S
H252 C266 0.930 . S
H253 C268 0.960 . S
H254 C268 0.960 . S
H255 C268 0.960 . S
C256 H248 0.914 1_545 S
C256 C257 1.377 . S
C256 C258 1.384 . S
C257 C256 1.377 . S
C257 C263 1.390 . S
C258 H249 0.930 . S
C258 C256 1.384 . S
C258 C259 1.372 . S
C259 C258 1.372 . S
C259 C260 1.400 . S
C259 C264 1.490 . S
C260 H250 0.930 . S
C260 C259 1.400 . S
C260 C263 1.386 . S
H261 C277 0.930 . S
H262 C278 0.931 . S
C263 H251 0.929 . S
C263 C257 1.390 . S
C263 C260 1.386 . S
C264 C259 1.490 . S
C264 C266 1.395 . S
C264 C267 1.403 . S
H265 C271 0.930 . S
C266 H252 0.930 . S
C266 C264 1.395 . S
C266 C269 1.403 . S
C267 C264 1.403 . S
C267 C268 1.524 . S
C267 C271 1.400 . S
C268 H253 0.960 . S
C268 H254 0.960 . S
C268 H255 0.960 . S
C268 C267 1.524 . S
C269 C266 1.403 . S
C269 C270 1.392 . S
C269 C273 1.495 . S
C270 C269 1.392 . S
C270 C271 1.385 . S
C270 C272 1.478 . S
C271 H265 0.930 . S
C271 C267 1.400 . S
C271 C270 1.385 . S
C272 C270 1.478 . S
C272 C274 1.381 . S
C272 C278 1.383 . S
C273 C269 1.495 . S
C273 H279 0.959 . S
C273 H280 0.961 . S
C273 H281 0.960 . S
C274 C272 1.381 . S
C274 C275 1.394 . S
C274 H282 0.930 . S
C275 C274 1.394 . S
C275 C276 1.383 . S
C275 H283 0.929 . S
C276 C275 1.383 . S
C276 C277 1.377 . S
C277 H261 0.930 . S
C277 C276 1.377 . S
C277 C278 1.379 . S
C278 H262 0.931 . S
C278 C272 1.383 . S
C278 C277 1.379 . S
H279 C273 0.959 . S
H280 C273 0.961 . S
H281 C273 0.960 . S
H282 C274 0.930 . S
H283 C275 0.929 . S
H284 C292 0.929 . S
H285 C294 0.930 . S
H286 C296 0.930 . S
H287 C299 0.929 . S
H288 C302 0.930 . S
H289 C304 0.960 . S
H290 C304 0.960 . S
H291 C304 0.960 . S
C292 H284 0.929 . S
C292 C293 1.377 . S
C292 C294 1.384 . S
C293 C292 1.377 . S
C293 C299 1.390 . S
C294 H285 0.930 . S
C294 C292 1.384 . S
C294 C295 1.372 . S
C295 C294 1.372 . S
C295 C296 1.400 . S
C295 C300 1.490 . S
C296 H286 0.930 . S
C296 C295 1.400 . S
C296 C299 1.386 . S
H297 C313 0.930 . S
H298 C314 0.931 . S
C299 H287 0.929 . S
C299 C293 1.390 . S
C299 C296 1.386 . S
C300 C295 1.490 . S
C300 C302 1.395 . S
C300 C303 1.403 . S
H301 C307 0.930 . S
C302 H288 0.930 . S
C302 C300 1.395 . S
C302 C305 1.403 . S
C303 C300 1.403 . S
C303 C304 1.524 . S
C303 C307 1.400 . S
C304 H289 0.960 . S
C304 H290 0.960 . S
C304 H291 0.960 . S
C304 C303 1.524 . S
C305 C302 1.403 . S
C305 C306 1.392 . S
C305 C309 1.495 . S
C306 C305 1.392 . S
C306 C307 1.385 . S
C306 C308 1.478 . S
C307 H301 0.930 . S
C307 C303 1.400 . S
C307 C306 1.385 . S
C308 C306 1.478 . S
C308 C310 1.381 . S
C308 C314 1.383 . S
C309 C305 1.495 . S
C309 H315 0.959 . S
C309 H316 0.961 . S
C309 H317 0.960 . S
C310 C308 1.381 . S
C310 C311 1.394 . S
C310 H318 0.930 . S
C311 C310 1.394 . S
C311 C312 1.383 . S
C311 H319 0.929 . S
C312 C311 1.383 . S
C312 C313 1.377 . S
C313 H297 0.930 . S
C313 C312 1.377 . S
C313 C314 1.379 . S
C314 H298 0.931 . S
C314 C308 1.383 . S
C314 C313 1.379 . S
H315 C309 0.959 . S
H316 C309 0.961 . S
H317 C309 0.960 . S
H318 C310 0.930 . S
H319 C311 0.929 . S
H320 C328 0.929 . S
H321 C330 0.930 . S
H322 C332 0.930 . S
H323 C335 0.929 1_545 S
H324 C338 0.930 . S
H325 C340 0.960 . S
H326 C340 0.960 . S
H327 C340 0.960 . S
C328 H320 0.929 . S
C328 C329 1.377 . S
C328 C330 1.384 . S
C329 C328 1.377 . S
C329 C335 1.390 . S
C330 H321 0.930 . S
C330 C328 1.384 . S
C330 C331 1.372 . S
C331 C330 1.372 . S
C331 C332 1.400 . S
C331 C336 1.490 . S
C332 H322 0.930 . S
C332 C331 1.400 . S
C332 C335 1.386 . S
H333 C349 0.930 . S
H334 C350 0.931 . S
C335 H323 0.929 1_565 S
C335 C329 1.390 . S
C335 C332 1.386 . S
C336 C331 1.490 . S
C336 C338 1.395 . S
C336 C339 1.403 . S
H337 C343 0.930 . S
C338 H324 0.930 . S
C338 C336 1.395 . S
C338 C341 1.403 . S
C339 C336 1.403 . S
C339 C340 1.524 . S
C339 C343 1.400 . S
C340 H325 0.960 . S
C340 H326 0.960 . S
C340 H327 0.960 . S
C340 C339 1.524 . S
C341 C338 1.403 . S
C341 C342 1.392 . S
C341 C345 1.495 . S
C342 C341 1.392 . S
C342 C343 1.385 . S
C342 C344 1.478 . S
C343 H337 0.930 . S
C343 C339 1.400 . S
C343 C342 1.385 . S
C344 C342 1.478 . S
C344 C346 1.381 . S
C344 C350 1.383 . S
C345 C341 1.495 . S
C345 H351 0.959 . S
C345 H352 0.961 . S
C345 H353 0.960 . S
C346 C344 1.381 . S
C346 C347 1.394 . S
C346 H354 0.930 . S
C347 C346 1.394 . S
C347 C348 1.383 . S
C347 H355 0.929 . S
C348 C347 1.383 . S
C348 C349 1.377 . S
C349 H333 0.930 . S
C349 C348 1.377 . S
C349 C350 1.379 . S
C350 H334 0.931 . S
C350 C344 1.383 . S
C350 C349 1.379 . S
H351 C345 0.959 . S
H352 C345 0.961 . S
H353 C345 0.960 . S
H354 C346 0.930 . S
H355 C347 0.929 . S
H356 C364 0.929 . S
H357 C366 0.930 . S
H358 C368 0.930 . S
H359 C371 0.929 . S
H360 C374 0.930 . S
H361 C376 0.960 . S
H362 C376 0.960 . S
H363 C376 0.960 . S
C364 H356 0.929 . S
C364 C365 1.377 . S
C364 C366 1.384 . S
C365 C364 1.377 . S
C365 C371 1.390 . S
C366 H357 0.930 . S
C366 C364 1.384 . S
C366 C367 1.372 . S
C367 C366 1.372 . S
C367 C368 1.400 . S
C367 C372 1.490 . S
C368 H358 0.930 . S
C368 C367 1.400 . S
C368 C371 1.386 . S
H369 C385 0.930 . S
H370 C386 0.931 . S
C371 H359 0.929 . S
C371 C365 1.390 . S
C371 C368 1.386 . S
C372 C367 1.490 . S
C372 C374 1.395 . S
C372 C375 1.403 . S
H373 C379 0.930 . S
C374 H360 0.930 . S
C374 C372 1.395 . S
C374 C377 1.403 . S
C375 C372 1.403 . S
C375 C376 1.524 . S
C375 C379 1.400 . S
C376 H361 0.960 . S
C376 H362 0.960 . S
C376 H363 0.960 . S
C376 C375 1.524 . S
C377 C374 1.403 . S
C377 C378 1.392 . S
C377 C381 1.495 . S
C378 C377 1.392 . S
C378 C379 1.385 . S
C378 C380 1.478 . S
C379 H373 0.930 . S
C379 C375 1.400 . S
C379 C378 1.385 . S
C380 C378 1.478 . S
C380 C382 1.381 . S
C380 C386 1.383 . S
C381 C377 1.495 . S
C381 H387 0.959 . S
C381 H388 0.961 . S
C381 H389 0.960 . S
C382 C380 1.381 . S
C382 C383 1.394 . S
C382 H390 0.930 . S
C383 C382 1.394 . S
C383 C384 1.383 . S
C383 H391 0.929 . S
C384 C383 1.383 . S
C384 C385 1.377 . S
C385 H369 0.930 . S
C385 C384 1.377 . S
C385 C386 1.379 . S
C386 H370 0.931 . S
C386 C380 1.383 . S
C386 C385 1.379 . S
H387 C381 0.959 . S
H388 C381 0.961 . S
H389 C381 0.960 . S
H390 C382 0.930 . S
H391 C383 0.929 . S
H392 C400 0.929 1_565 S
H393 C402 0.930 . S
H394 C404 0.930 . S
H395 C407 0.929 . S
H396 C410 0.930 . S
H397 C412 0.960 1_554 S
H398 C412 0.960 1_554 S
H399 C412 0.960 . S
C400 H392 0.929 1_545 S
C400 C401 1.377 . S
C400 C402 1.384 . S
C401 C400 1.377 . S
C401 C407 1.390 . S
C402 H393 0.930 . S
C402 C400 1.384 . S
C402 C403 1.372 . S
C403 C402 1.372 . S
C403 C404 1.400 . S
C403 C408 1.490 . S
C404 H394 0.930 . S
C404 C403 1.400 . S
C404 C407 1.386 . S
H405 C421 0.930 . S
H406 C422 0.931 . S
C407 H395 0.929 . S
C407 C401 1.390 . S
C407 C404 1.386 . S
C408 C403 1.490 . S
C408 C410 1.395 . S
C408 C411 1.403 . S
H409 C415 0.930 . S
C410 H396 0.930 . S
C410 C408 1.395 . S
C410 C413 1.403 . S
C411 C408 1.403 . S
C411 C412 1.524 . S
C411 C415 1.400 1_556 S
C412 H397 0.960 1_556 S
C412 H398 0.960 1_556 S
C412 H399 0.960 . S
C412 C411 1.524 . S
C413 C410 1.403 . S
C413 C414 1.392 1_556 S
C413 C417 1.495 . S
C414 C413 1.392 1_554 S
C414 C415 1.385 . S
C414 C416 1.478 . S
C415 H409 0.930 . S
C415 C411 1.400 1_554 S
C415 C414 1.385 . S
C416 C414 1.478 . S
C416 C418 1.381 . S
C416 C422 1.383 . S
C417 C413 1.495 . S
C417 H423 0.959 . S
C417 H424 0.961 . S
C417 H425 0.960 . S
C418 C416 1.381 . S
C418 C419 1.394 . S
C418 H426 0.930 . S
C419 C418 1.394 . S
C419 C420 1.383 . S
C419 H427 0.929 . S
C420 C419 1.383 . S
C420 C421 1.377 . S
C421 H405 0.930 . S
C421 C420 1.377 . S
C421 C422 1.379 . S
C422 H406 0.931 . S
C422 C416 1.383 . S
C422 C421 1.379 . S
H423 C417 0.959 . S
H424 C417 0.961 . S
H425 C417 0.960 . S
H426 C418 0.930 . S
H427 C419 0.929 . S
H428 C436 0.929 . S
H429 C438 0.930 . S
H430 C440 0.930 . S
H431 C443 0.929 . S
H432 C446 0.930 . S
H433 C448 0.960 . S
H434 C448 0.960 . S
H435 C448 0.960 . S
C436 H428 0.929 . S
C436 C437 1.377 . S
C436 C438 1.384 . S
C437 C436 1.377 . S
C437 C443 1.390 . S
C438 H429 0.930 . S
C438 C436 1.384 . S
C438 C439 1.372 . S
C439 C438 1.372 . S
C439 C440 1.400 . S
C439 C444 1.490 . S
C440 H430 0.930 . S
C440 C439 1.400 . S
C440 C443 1.386 . S
H441 C457 0.930 . S
H442 C458 0.931 . S
C443 H431 0.929 . S
C443 C437 1.390 . S
C443 C440 1.386 . S
C444 C439 1.490 . S
C444 C446 1.395 . S
C444 C447 1.403 1_556 S
H445 C451 0.930 . S
C446 H432 0.930 . S
C446 C444 1.395 . S
C446 C449 1.419 . S
C447 C444 1.403 1_554 S
C447 C448 1.524 . S
C447 C451 1.400 . S
C448 H433 0.960 . S
C448 H434 0.960 . S
C448 H435 0.960 . S
C448 C447 1.524 . S
C449 C446 1.419 . S
C449 C450 1.368 1_556 S
C449 C453 1.504 . S
C450 C449 1.368 1_554 S
C450 C451 1.385 . S
C450 C452 1.478 . S
C451 H445 0.930 . S
C451 C447 1.400 . S
C451 C450 1.385 . S
C452 C450 1.478 . S
C452 C454 1.381 . S
C452 C458 1.383 . S
C453 C449 1.504 . S
C453 H459 0.959 . S
C453 H460 0.986 . S
C453 H461 0.960 . S
C454 C452 1.381 . S
C454 C455 1.394 . S
C454 H462 0.930 . S
C455 C454 1.394 . S
C455 C456 1.383 . S
C455 H463 0.929 . S
C456 C455 1.383 . S
C456 C457 1.377 . S
C457 H441 0.930 . S
C457 C456 1.377 . S
C457 C458 1.379 . S
C458 H442 0.931 . S
C458 C452 1.383 . S
C458 C457 1.379 . S
H459 C453 0.959 . S
H460 C453 0.986 . S
H461 C453 0.960 . S
H462 C454 0.930 . S
H463 C455 0.929 . S
H464 C472 0.929 . S
H465 C474 0.930 . S
H466 C476 0.930 . S
H467 C479 0.929 . S
H468 C482 0.926 1_554 S
H469 C484 0.960 . S
H470 C484 0.960 . S
H471 C484 0.960 1_554 S
C472 H464 0.929 . S
C472 C473 1.377 . S
C472 C474 1.384 . S
C473 C472 1.377 . S
C473 C479 1.390 . S
C474 H465 0.930 . S
C474 C472 1.384 . S
C474 C475 1.372 . S
C475 C474 1.372 . S
C475 C476 1.400 . S
C475 C480 1.490 . S
C476 H466 0.930 . S
C476 C475 1.400 . S
C476 C479 1.386 . S
H477 C493 0.930 . S
H478 C494 0.931 . S
C479 H467 0.929 . S
C479 C473 1.390 . S
C479 C476 1.386 . S
C480 C475 1.490 . S
C480 C482 1.392 1_554 S
C480 C483 1.403 1_554 S
H481 C487 0.930 . S
C482 H468 0.926 1_556 S
C482 C480 1.392 1_556 S
C482 C485 1.409 . S
C483 C480 1.403 1_556 S
C483 C484 1.524 . S
C483 C487 1.400 . S
C484 H469 0.960 . S
C484 H470 0.960 . S
C484 H471 0.960 1_556 S
C484 C483 1.524 . S
C485 C482 1.409 . S
C485 C486 1.392 . S
C485 C489 1.495 . S
C486 C485 1.392 . S
C486 C487 1.385 . S
C486 C488 1.478 . S
C487 H481 0.930 . S
C487 C483 1.400 . S
C487 C486 1.385 . S
C488 C486 1.478 . S
C488 C490 1.381 . S
C488 C494 1.383 . S
C489 C485 1.495 . S
C489 H495 0.959 . S
C489 H496 0.961 . S
C489 H497 0.960 . S
C490 C488 1.381 . S
C490 C491 1.394 . S
C490 H498 0.930 . S
C491 C490 1.394 . S
C491 C492 1.383 . S
C491 H499 0.929 . S
C492 C491 1.383 . S
C492 C493 1.377 . S
C493 H477 0.930 . S
C493 C492 1.377 . S
C493 C494 1.379 . S
C494 H478 0.931 . S
C494 C488 1.383 . S
C494 C493 1.379 . S
H495 C489 0.959 . S
H496 C489 0.961 . S
H497 C489 0.960 . S
H498 C490 0.930 . S
H499 C491 0.929 . S
H500 C508 0.929 . S
H501 C510 0.930 . S
H502 C512 0.930 . S
H503 C515 0.929 . S
H504 C518 0.930 . S
H505 C520 0.960 . S
H506 C520 0.960 . S
H507 C520 0.960 . S
C508 H500 0.929 . S
C508 C509 1.377 . S
C508 C510 1.384 . S
C509 C508 1.377 . S
C509 C515 1.390 . S
C510 H501 0.930 . S
C510 C508 1.384 . S
C510 C511 1.372 . S
C511 C510 1.372 . S
C511 C512 1.400 . S
C511 C516 1.490 . S
C512 H502 0.930 . S
C512 C511 1.400 . S
C512 C515 1.386 . S
H513 C529 0.930 . S
H514 C530 0.931 . S
C515 H503 0.929 . S
C515 C509 1.390 . S
C515 C512 1.386 . S
C516 C511 1.490 . S
C516 C518 1.395 1_556 S
C516 C519 1.403 . S
H517 C523 0.930 . S
C518 H504 0.930 . S
C518 C516 1.395 1_554 S
C518 C521 1.403 . S
C519 C516 1.403 . S
C519 C520 1.524 . S
C519 C523 1.400 1_556 S
C520 H505 0.960 . S
C520 H506 0.960 . S
C520 H507 0.960 . S
C520 C519 1.524 . S
C521 C518 1.403 . S
C521 C522 1.392 . S
C521 C525 1.495 . S
C522 C521 1.392 . S
C522 C523 1.385 . S
C522 C524 1.478 . S
C523 H517 0.930 . S
C523 C519 1.400 1_554 S
C523 C522 1.385 . S
C524 C522 1.478 . S
C524 C526 1.381 . S
C524 C530 1.383 . S
C525 C521 1.495 . S
C525 H531 0.959 . S
C525 H532 0.961 . S
C525 H533 0.960 . S
C526 C524 1.381 . S
C526 C527 1.394 . S
C526 H534 0.930 . S
C527 C526 1.394 . S
C527 C528 1.383 . S
C527 H535 0.929 . S
C528 C527 1.383 . S
C528 C529 1.377 . S
C529 H513 0.930 . S
C529 C528 1.377 . S
C529 C530 1.379 . S
C530 H514 0.931 . S
C530 C524 1.383 . S
C530 C529 1.379 . S
H531 C525 0.959 . S
H532 C525 0.961 . S
H533 C525 0.960 . S
H534 C526 0.930 . S
H535 C527 0.929 . S
H536 C544 0.929 . S
H537 C546 0.930 . S
H538 C548 0.930 . S
H539 C551 0.929 . S
H540 C554 0.930 . S
H541 C556 0.960 . S
H542 C556 0.960 . S
H543 C556 0.960 . S
C544 H536 0.929 . S
C544 C545 1.377 . S
C544 C546 1.384 . S
C545 C544 1.377 . S
C545 C551 1.390 . S
C546 H537 0.930 . S
C546 C544 1.384 . S
C546 C547 1.372 . S
C547 C546 1.372 . S
C547 C548 1.400 . S
C547 C552 1.490 . S
C548 H538 0.930 . S
C548 C547 1.400 . S
C548 C551 1.386 . S
H549 C565 0.930 . S
H550 C566 0.931 . S
C551 H539 0.929 . S
C551 C545 1.390 . S
C551 C548 1.386 . S
C552 C547 1.490 . S
C552 C554 1.395 . S
C552 C555 1.403 . S
H553 C559 0.930 . S
C554 H540 0.930 . S
C554 C552 1.395 . S
C554 C557 1.403 . S
C555 C552 1.403 . S
C555 C556 1.524 . S
C555 C559 1.400 . S
C556 H541 0.960 . S
C556 H542 0.960 . S
C556 H543 0.960 . S
C556 C555 1.524 . S
C557 C554 1.403 . S
C557 C558 1.392 . S
C557 C561 1.495 . S
C558 C557 1.392 . S
C558 C559 1.385 . S
C558 C560 1.478 . S
C559 H553 0.930 . S
C559 C555 1.400 . S
C559 C558 1.385 . S
C560 C558 1.478 . S
C560 C562 1.381 . S
C560 C566 1.383 . S
C561 C557 1.495 . S
C561 H567 0.959 . S
C561 H568 0.961 . S
C561 H569 0.960 . S
C562 C560 1.381 . S
C562 C563 1.394 . S
C562 H570 0.930 . S
C563 C562 1.394 . S
C563 C564 1.383 . S
C563 H571 0.929 . S
C564 C563 1.383 . S
C564 C565 1.377 . S
C565 H549 0.930 . S
C565 C564 1.377 . S
C565 C566 1.379 . S
C566 H550 0.931 . S
C566 C560 1.383 . S
C566 C565 1.379 . S
H567 C561 0.959 . S
H568 C561 0.961 . S
H569 C561 0.960 . S
H570 C562 0.930 . S
H571 C563 0.929 . S
H572 C580 0.929 . S
H573 C582 0.930 . S
H574 C584 0.930 . S
H575 C587 0.929 . S
H576 C590 0.930 . S
H577 C592 0.960 . S
H578 C592 0.960 . S
H579 C592 0.960 . S
C580 H572 0.929 . S
C580 C581 1.377 . S
C580 C582 1.384 . S
C581 C580 1.377 . S
C581 C587 1.390 . S
C582 H573 0.930 . S
C582 C580 1.384 . S
C582 C583 1.372 . S
C583 C582 1.372 . S
C583 C584 1.400 . S
C583 C588 1.490 . S
C584 H574 0.930 . S
C584 C583 1.400 . S
C584 C587 1.386 . S
H585 C601 0.930 . S
H586 C602 0.931 . S
C587 H575 0.929 . S
C587 C581 1.390 . S
C587 C584 1.386 . S
C588 C583 1.490 . S
C588 C590 1.395 . S
C588 C591 1.403 . S
H589 C595 0.930 . S
C590 H576 0.930 . S
C590 C588 1.395 . S
C590 C593 1.403 . S
C591 C588 1.403 . S
C591 C592 1.524 . S
C591 C595 1.400 . S
C592 H577 0.960 . S
C592 H578 0.960 . S
C592 H579 0.960 . S
C592 C591 1.524 . S
C593 C590 1.403 . S
C593 C594 1.392 . S
C593 C597 1.495 . S
C594 C593 1.392 . S
C594 C595 1.385 . S
C594 C596 1.478 . S
C595 H589 0.930 . S
C595 C591 1.400 . S
C595 C594 1.385 . S
C596 C594 1.478 . S
C596 C598 1.381 . S
C596 C602 1.383 . S
C597 C593 1.495 . S
C597 H603 0.959 . S
C597 H604 0.961 . S
C597 H605 0.960 . S
C598 C596 1.381 . S
C598 C599 1.394 . S
C598 H606 0.930 . S
C599 C598 1.394 . S
C599 C600 1.383 . S
C599 H607 0.929 . S
C600 C599 1.383 . S
C600 C601 1.377 . S
C601 H585 0.930 . S
C601 C600 1.377 . S
C601 C602 1.379 . S
C602 H586 0.931 . S
C602 C596 1.383 . S
C602 C601 1.379 . S
H603 C597 0.959 . S
H604 C597 0.961 . S
H605 C597 0.960 . S
H606 C598 0.930 . S
H607 C599 0.929 . S
H608 C616 0.929 . S
H609 C618 0.930 . S
H610 C620 0.930 . S
H611 C623 0.929 . S
H612 C626 0.930 . S
H613 C628 0.960 . S
H614 C628 0.960 . S
H615 C628 0.960 . S
C616 H608 0.929 . S
C616 C617 1.377 . S
C616 C618 1.384 . S
C617 C616 1.377 . S
C617 C623 1.390 . S
C618 H609 0.930 . S
C618 C616 1.384 . S
C618 C619 1.372 . S
C619 C618 1.372 . S
C619 C620 1.400 . S
C619 C624 1.490 . S
C620 H610 0.930 . S
C620 C619 1.400 . S
C620 C623 1.386 . S
H621 C637 0.930 . S
H622 C638 0.931 . S
C623 H611 0.929 . S
C623 C617 1.390 . S
C623 C620 1.386 . S
C624 C619 1.490 . S
C624 C626 1.395 . S
C624 C627 1.403 . S
H625 C631 0.930 . S
C626 H612 0.930 . S
C626 C624 1.395 . S
C626 C629 1.403 . S
C627 C624 1.403 . S
C627 C628 1.524 . S
C627 C631 1.400 . S
C628 H613 0.960 . S
C628 H614 0.960 . S
C628 H615 0.960 . S
C628 C627 1.524 . S
C629 C626 1.403 . S
C629 C630 1.392 . S
C629 C633 1.495 . S
C630 C629 1.392 . S
C630 C631 1.385 . S
C630 C632 1.478 . S
C631 H625 0.930 . S
C631 C627 1.400 . S
C631 C630 1.385 . S
C632 C630 1.478 . S
C632 C634 1.381 . S
C632 C638 1.383 . S
C633 C629 1.495 . S
C633 H639 0.959 . S
C633 H640 0.961 . S
C633 H641 0.960 . S
C634 C632 1.381 . S
C634 C635 1.394 . S
C634 H642 0.930 . S
C635 C634 1.394 . S
C635 C636 1.383 . S
C635 H643 0.929 . S
C636 C635 1.383 . S
C636 C637 1.377 . S
C637 H621 0.930 . S
C637 C636 1.377 . S
C637 C638 1.379 . S
C638 H622 0.931 . S
C638 C632 1.383 . S
C638 C637 1.379 . S
H639 C633 0.959 . S
H640 C633 0.961 . S
H641 C633 0.960 . S
H642 C634 0.930 . S
H643 C635 0.929 . S
H644 C652 0.929 . S
H645 C654 0.930 . S
H646 C656 0.930 . S
H647 C659 0.929 . S
H648 C662 0.930 . S
H649 C664 0.960 . S
H650 C664 0.960 . S
H651 C664 0.960 . S
C652 H644 0.929 . S
C652 C653 1.377 . S
C652 C654 1.384 . S
C653 C652 1.377 . S
C653 C659 1.390 . S
C654 H645 0.930 . S
C654 C652 1.384 . S
C654 C655 1.372 . S
C655 C654 1.372 . S
C655 C656 1.400 . S
C655 C660 1.490 . S
C656 H646 0.930 . S
C656 C655 1.400 . S
C656 C659 1.386 . S
H657 C673 0.930 . S
H658 C674 0.931 . S
C659 H647 0.929 . S
C659 C653 1.390 . S
C659 C656 1.386 . S
C660 C655 1.490 . S
C660 C662 1.395 . S
C660 C663 1.403 . S
H661 C667 0.930 . S
C662 H648 0.930 . S
C662 C660 1.395 . S
C662 C665 1.403 . S
C663 C660 1.403 . S
C663 C664 1.524 . S
C663 C667 1.400 . S
C664 H649 0.960 . S
C664 H650 0.960 . S
C664 H651 0.960 . S
C664 C663 1.524 . S
C665 C662 1.403 . S
C665 C666 1.392 . S
C665 C669 1.495 . S
C666 C665 1.392 . S
C666 C667 1.385 . S
C666 C668 1.478 . S
C667 H661 0.930 . S
C667 C663 1.400 . S
C667 C666 1.385 . S
C668 C666 1.478 . S
C668 C670 1.381 . S
C668 C674 1.383 . S
C669 C665 1.495 . S
C669 H675 0.959 . S
C669 H676 0.961 . S
C669 H677 0.960 . S
C670 C668 1.381 . S
C670 C671 1.394 . S
C670 H678 0.930 . S
C671 C670 1.394 . S
C671 C672 1.383 . S
C671 H679 0.929 . S
C672 C671 1.383 . S
C672 C673 1.377 . S
C673 H657 0.930 . S
C673 C672 1.377 . S
C673 C674 1.379 . S
C674 H658 0.931 . S
C674 C668 1.383 . S
C674 C673 1.379 . S
H675 C669 0.959 . S
H676 C669 0.961 . S
H677 C669 0.960 . S
H678 C670 0.930 . S
H679 C671 0.929 . S
C113 C26 1.195 . S
C132 C0 1.200 . S
C149 C39 1.183 . S
C168 C13 1.150 . S
C185 C52 1.188 . S
C204 C78 1.203 . S
C221 C65 1.182 . S
C240 C91 1.211 . S
C257 C23 0.594 . S
C276 C5 0.604 . S
C293 C18 0.648 . S
C312 C36 0.567 . S
C329 C49 0.599 . S
C348 C31 0.604 . S
C365 C44 0.645 . S
C384 C10 0.625 . S
C401 C101 0.589 . S
C420 C57 0.595 . S
C437 C70 0.660 . S
C456 C62 0.568 . S
C473 C83 0.650 . S
C492 C75 0.568 . S
C509 C96 0.627 . S
C528 C88 0.615 . S
C545 C8 1.661 . S
C564 C73 1.655 . S
C581 C86 1.649 . S
C600 C21 1.646 . S
C617 C34 1.649 . S
C636 C99 1.630 . S
C653 C47 1.649 . S
C672 C60 1.652 . S
