# Generated by pormake.
# Topology uns, (4)-cn, num edge types: 1
# Building blocks:
#     Node 0, Type 0, BuildingBlock: NAWXER_clean_sbu_0, # of connection points: 4
#     Node 1, Type 0, BuildingBlock: NAWXER_clean_sbu_0, # of connection points: 4
#     Node 2, Type 0, BuildingBlock: NAWXER_clean_sbu_0, # of connection points: 4
#     Node 3, Type 0, BuildingBlock: NAWXER_clean_sbu_0, # of connection points: 4
#     Node 4, Type 0, BuildingBlock: NAWXER_clean_sbu_0, # of connection points: 4
#     Node 5, Type 0, BuildingBlock: NAWXER_clean_sbu_0, # of connection points: 4
#     Node 6, Type 0, BuildingBlock: NAWXER_clean_sbu_0, # of connection points: 4
#     Node 7, Type 0, BuildingBlock: NAWXER_clean_sbu_0, # of connection points: 4
#     Node 8, Type 0, BuildingBlock: NAWXER_clean_sbu_0, # of connection points: 4
#     Node 9, Type 0, BuildingBlock: NAWXER_clean_sbu_0, # of connection points: 4
#     Node 10, Type 0, BuildingBlock: NAWXER_clean_sbu_0, # of connection points: 4
#     Node 11, Type 0, BuildingBlock: NAWXER_clean_sbu_0, # of connection points: 4
#     Node 12, Type 0, BuildingBlock: NAWXER_clean_sbu_0, # of connection points: 4
#     Node 13, Type 0, BuildingBlock: NAWXER_clean_sbu_0, # of connection points: 4
#     Node 14, Type 0, BuildingBlock: NAWXER_clean_sbu_0, # of connection points: 4
#     Node 15, Type 0, BuildingBlock: NAWXER_clean_sbu_0, # of connection points: 4
#     Node 16, Type 0, BuildingBlock: NAWXER_clean_sbu_0, # of connection points: 4
#     Node 17, Type 0, BuildingBlock: NAWXER_clean_sbu_0, # of connection points: 4
#     Node 18, Type 0, BuildingBlock: NAWXER_clean_sbu_0, # of connection points: 4
#     Node 19, Type 0, BuildingBlock: NAWXER_clean_sbu_0, # of connection points: 4
#     Node 20, Type 0, BuildingBlock: NAWXER_clean_sbu_0, # of connection points: 4
#     Node 21, Type 0, BuildingBlock: NAWXER_clean_sbu_0, # of connection points: 4
#     Node 22, Type 0, BuildingBlock: NAWXER_clean_sbu_0, # of connection points: 4
#     Node 23, Type 0, BuildingBlock: NAWXER_clean_sbu_0, # of connection points: 4
#     Node 24, Type 0, BuildingBlock: NAWXER_clean_sbu_0, # of connection points: 4
#     Node 25, Type 0, BuildingBlock: NAWXER_clean_sbu_0, # of connection points: 4
#     Node 26, Type 0, BuildingBlock: NAWXER_clean_sbu_0, # of connection points: 4
#     Node 27, Type 0, BuildingBlock: NAWXER_clean_sbu_0, # of connection points: 4
#     Node 28, Type 0, BuildingBlock: NAWXER_clean_sbu_0, # of connection points: 4
#     Node 29, Type 0, BuildingBlock: NAWXER_clean_sbu_0, # of connection points: 4
#     Node 30, Type 0, BuildingBlock: NAWXER_clean_sbu_0, # of connection points: 4
#     Node 31, Type 0, BuildingBlock: NAWXER_clean_sbu_0, # of connection points: 4
#     Node 32, Type 0, BuildingBlock: NAWXER_clean_sbu_0, # of connection points: 4
#     Node 33, Type 0, BuildingBlock: NAWXER_clean_sbu_0, # of connection points: 4
#     Node 34, Type 0, BuildingBlock: NAWXER_clean_sbu_0, # of connection points: 4
#     Node 35, Type 0, BuildingBlock: NAWXER_clean_sbu_0, # of connection points: 4
#     Edge 36, Type (0, 0), BuildingBlock: XUDNAN_clean_linker_2, # of connection points: 2
#     Edge 37, Type (0, 0), BuildingBlock: XUDNAN_clean_linker_2, # of connection points: 2
#     Edge 38, Type (0, 0), BuildingBlock: XUDNAN_clean_linker_2, # of connection points: 2
#     Edge 39, Type (0, 0), BuildingBlock: XUDNAN_clean_linker_2, # of connection points: 2
#     Edge 40, Type (0, 0), BuildingBlock: XUDNAN_clean_linker_2, # of connection points: 2
#     Edge 41, Type (0, 0), BuildingBlock: XUDNAN_clean_linker_2, # of connection points: 2
#     Edge 42, Type (0, 0), BuildingBlock: XUDNAN_clean_linker_2, # of connection points: 2
#     Edge 43, Type (0, 0), BuildingBlock: XUDNAN_clean_linker_2, # of connection points: 2
#     Edge 44, Type (0, 0), BuildingBlock: XUDNAN_clean_linker_2, # of connection points: 2
#     Edge 45, Type (0, 0), BuildingBlock: XUDNAN_clean_linker_2, # of connection points: 2
#     Edge 46, Type (0, 0), BuildingBlock: XUDNAN_clean_linker_2, # of connection points: 2
#     Edge 47, Type (0, 0), BuildingBlock: XUDNAN_clean_linker_2, # of connection points: 2
#     Edge 48, Type (0, 0), BuildingBlock: XUDNAN_clean_linker_2, # of connection points: 2
#     Edge 49, Type (0, 0), BuildingBlock: XUDNAN_clean_linker_2, # of connection points: 2
#     Edge 50, Type (0, 0), BuildingBlock: XUDNAN_clean_linker_2, # of connection points: 2
#     Edge 51, Type (0, 0), BuildingBlock: XUDNAN_clean_linker_2, # of connection points: 2
#     Edge 52, Type (0, 0), BuildingBlock: XUDNAN_clean_linker_2, # of connection points: 2
#     Edge 53, Type (0, 0), BuildingBlock: XUDNAN_clean_linker_2, # of connection points: 2
#     Edge 54, Type (0, 0), BuildingBlock: XUDNAN_clean_linker_2, # of connection points: 2
#     Edge 55, Type (0, 0), BuildingBlock: XUDNAN_clean_linker_2, # of connection points: 2
#     Edge 56, Type (0, 0), BuildingBlock: XUDNAN_clean_linker_2, # of connection points: 2
#     Edge 57, Type (0, 0), BuildingBlock: XUDNAN_clean_linker_2, # of connection points: 2
#     Edge 58, Type (0, 0), BuildingBlock: XUDNAN_clean_linker_2, # of connection points: 2
#     Edge 59, Type (0, 0), BuildingBlock: XUDNAN_clean_linker_2, # of connection points: 2
#     Edge 60, Type (0, 0), BuildingBlock: XUDNAN_clean_linker_2, # of connection points: 2
#     Edge 61, Type (0, 0), BuildingBlock: XUDNAN_clean_linker_2, # of connection points: 2
#     Edge 62, Type (0, 0), BuildingBlock: XUDNAN_clean_linker_2, # of connection points: 2
#     Edge 63, Type (0, 0), BuildingBlock: XUDNAN_clean_linker_2, # of connection points: 2
#     Edge 64, Type (0, 0), BuildingBlock: XUDNAN_clean_linker_2, # of connection points: 2
#     Edge 65, Type (0, 0), BuildingBlock: XUDNAN_clean_linker_2, # of connection points: 2
#     Edge 66, Type (0, 0), BuildingBlock: XUDNAN_clean_linker_2, # of connection points: 2
#     Edge 67, Type (0, 0), BuildingBlock: XUDNAN_clean_linker_2, # of connection points: 2
#     Edge 68, Type (0, 0), BuildingBlock: XUDNAN_clean_linker_2, # of connection points: 2
#     Edge 69, Type (0, 0), BuildingBlock: XUDNAN_clean_linker_2, # of connection points: 2
#     Edge 70, Type (0, 0), BuildingBlock: XUDNAN_clean_linker_2, # of connection points: 2
#     Edge 71, Type (0, 0), BuildingBlock: XUDNAN_clean_linker_2, # of connection points: 2
#     Edge 72, Type (0, 0), BuildingBlock: XUDNAN_clean_linker_2, # of connection points: 2
#     Edge 73, Type (0, 0), BuildingBlock: XUDNAN_clean_linker_2, # of connection points: 2
#     Edge 74, Type (0, 0), BuildingBlock: XUDNAN_clean_linker_2, # of connection points: 2
#     Edge 75, Type (0, 0), BuildingBlock: XUDNAN_clean_linker_2, # of connection points: 2
#     Edge 76, Type (0, 0), BuildingBlock: XUDNAN_clean_linker_2, # of connection points: 2
#     Edge 77, Type (0, 0), BuildingBlock: XUDNAN_clean_linker_2, # of connection points: 2
#     Edge 78, Type (0, 0), BuildingBlock: XUDNAN_clean_linker_2, # of connection points: 2
#     Edge 79, Type (0, 0), BuildingBlock: XUDNAN_clean_linker_2, # of connection points: 2
#     Edge 80, Type (0, 0), BuildingBlock: XUDNAN_clean_linker_2, # of connection points: 2
#     Edge 81, Type (0, 0), BuildingBlock: XUDNAN_clean_linker_2, # of connection points: 2
#     Edge 82, Type (0, 0), BuildingBlock: XUDNAN_clean_linker_2, # of connection points: 2
#     Edge 83, Type (0, 0), BuildingBlock: XUDNAN_clean_linker_2, # of connection points: 2
#     Edge 84, Type (0, 0), BuildingBlock: XUDNAN_clean_linker_2, # of connection points: 2
#     Edge 85, Type (0, 0), BuildingBlock: XUDNAN_clean_linker_2, # of connection points: 2
#     Edge 86, Type (0, 0), BuildingBlock: XUDNAN_clean_linker_2, # of connection points: 2
#     Edge 87, Type (0, 0), BuildingBlock: XUDNAN_clean_linker_2, # of connection points: 2
#     Edge 88, Type (0, 0), BuildingBlock: XUDNAN_clean_linker_2, # of connection points: 2
#     Edge 89, Type (0, 0), BuildingBlock: XUDNAN_clean_linker_2, # of connection points: 2
#     Edge 90, Type (0, 0), BuildingBlock: XUDNAN_clean_linker_2, # of connection points: 2
#     Edge 91, Type (0, 0), BuildingBlock: XUDNAN_clean_linker_2, # of connection points: 2
#     Edge 92, Type (0, 0), BuildingBlock: XUDNAN_clean_linker_2, # of connection points: 2
#     Edge 93, Type (0, 0), BuildingBlock: XUDNAN_clean_linker_2, # of connection points: 2
#     Edge 94, Type (0, 0), BuildingBlock: XUDNAN_clean_linker_2, # of connection points: 2
#     Edge 95, Type (0, 0), BuildingBlock: XUDNAN_clean_linker_2, # of connection points: 2
#     Edge 96, Type (0, 0), BuildingBlock: XUDNAN_clean_linker_2, # of connection points: 2
#     Edge 97, Type (0, 0), BuildingBlock: XUDNAN_clean_linker_2, # of connection points: 2
#     Edge 98, Type (0, 0), BuildingBlock: XUDNAN_clean_linker_2, # of connection points: 2
#     Edge 99, Type (0, 0), BuildingBlock: XUDNAN_clean_linker_2, # of connection points: 2
#     Edge 100, Type (0, 0), BuildingBlock: XUDNAN_clean_linker_2, # of connection points: 2
#     Edge 101, Type (0, 0), BuildingBlock: XUDNAN_clean_linker_2, # of connection points: 2
#     Edge 102, Type (0, 0), BuildingBlock: XUDNAN_clean_linker_2, # of connection points: 2
#     Edge 103, Type (0, 0), BuildingBlock: XUDNAN_clean_linker_2, # of connection points: 2
#     Edge 104, Type (0, 0), BuildingBlock: XUDNAN_clean_linker_2, # of connection points: 2
#     Edge 105, Type (0, 0), BuildingBlock: XUDNAN_clean_linker_2, # of connection points: 2
#     Edge 106, Type (0, 0), BuildingBlock: XUDNAN_clean_linker_2, # of connection points: 2
#     Edge 107, Type (0, 0), BuildingBlock: XUDNAN_clean_linker_2, # of connection points: 2
# Relax obj value: 0.008
# Max RMSD: 0.156
# Mean RMSD: 0.156
data_MOF--net-uns--node1-NAWXER_clean_sbu_0--edge1-XUDNAN_clean_linker_2
_symmetry_space_group_name_H-M    P1
_symmetry_Int_Tables_number       1
_symmetry_cell_setting            triclinic
loop_
_symmetry_equiv_pos_as_xyz
'x, y, z'
_cell_length_a     59.843489
_cell_length_b     59.869855
_cell_length_c     45.541326
_cell_angle_alpha  90.028889
_cell_angle_beta   90.01381
_cell_angle_gamma 119.99233
loop_
_atom_site_label
_atom_site_type_symbol
_atom_site_fract_x
_atom_site_fract_y
_atom_site_fract_z
_atom_type_partial_charge
C0 C 0.26585 0.17681 0.1338 0.0
C1 C 0.21168 0.19945 0.07557 0.0
O2 O 0.24481 0.17592 0.14051 0.0
Zn3 Zn 0.23876 0.18681 0.10368 0.0
O4 O 0.27486 0.18345 0.10758 0.0
Zn5 Zn 0.26276 0.19517 0.06718 0.0
O6 O 0.2919 0.22949 0.06065 0.0
O7 O 0.27114 0.22552 0.10215 0.0
O8 O 0.23048 0.20156 0.05992 0.0
O9 O 0.20922 0.19127 0.10168 0.0
O10 O 0.23023 0.15396 0.07679 0.0
O11 O 0.25711 0.16819 0.03937 0.0
C12 C 0.28975 0.2392 0.08456 0.0
C13 C 0.23878 0.14951 0.05297 0.0
C14 C 0.82569 0.02517 0.07394 0.0
C15 C 0.83964 0.10819 0.10957 0.0
O16 O 0.83285 0.03487 0.09939 0.0
Zn17 Zn 0.83246 0.06656 0.09294 0.0
O18 O 0.82071 0.03747 0.05441 0.0
Zn19 Zn 0.82045 0.07294 0.0508 0.0
O20 O 0.84654 0.09144 0.0203 0.0
O21 O 0.86266 0.08713 0.06209 0.0
O22 O 0.83151 0.10321 0.08295 0.0
O23 O 0.84288 0.09184 0.12405 0.0
O24 O 0.79269 0.05472 0.08989 0.0
O25 O 0.78363 0.06136 0.0449 0.0
C26 C 0.86606 0.09572 0.03574 0.0
C27 C 0.77633 0.05366 0.07105 0.0
C28 C 0.92525 0.75805 0.02399 0.0
C29 C 0.97041 0.71625 0.0644 0.0
O30 O 0.93213 0.74365 0.01109 0.0
Zn31 Zn 0.9495 0.73837 0.04346 0.0
O32 O 0.93164 0.76442 0.0509 0.0
Zn33 Zn 0.95278 0.75695 0.08414 0.0
O34 O 0.98355 0.78992 0.09189 0.0
O35 O 0.98397 0.7747 0.04796 0.0
O36 O 0.96758 0.73067 0.08311 0.0
O37 O 0.96322 0.71543 0.03797 0.0
O38 O 0.91892 0.71714 0.0749 0.0
O39 O 0.92714 0.74119 0.11467 0.0
C40 C 0.99484 0.79228 0.06752 0.0
C41 C 0.91285 0.72021 0.10105 0.0
C42 C 0.16279 0.2502 0.50114 0.0
C43 C 0.25297 0.29259 0.4734 0.0
O44 O 0.18258 0.26513 0.51615 0.0
Zn45 Zn 0.20762 0.27095 0.48694 0.0
O46 O 0.16539 0.24452 0.47459 0.0
Zn47 Zn 0.19758 0.25367 0.44502 0.0
O48 O 0.19538 0.2204 0.43835 0.0
O49 O 0.20421 0.23383 0.48426 0.0
O50 O 0.23847 0.27897 0.45214 0.0
O51 O 0.24285 0.29299 0.49771 0.0
O52 O 0.20104 0.29273 0.45399 0.0
O53 O 0.1908 0.27052 0.41266 0.0
C54 C 0.19967 0.21671 0.46472 0.0
C55 C 0.19485 0.29056 0.42672 0.0
C56 C 0.81021 0.99739 0.41799 0.0
C57 C 0.75394 0.91613 0.3686 0.0
O58 O 0.81339 0.9882 0.39432 0.0
Zn59 Zn 0.78179 0.95565 0.3947 0.0
O60 O 0.78979 0.98374 0.43326 0.0
Zn61 Zn 0.75559 0.94595 0.4288 0.0
O62 O 0.75705 0.92767 0.46263 0.0
O63 O 0.78622 0.93331 0.42944 0.0
O64 O 0.74373 0.91757 0.3929 0.0
O65 O 0.77615 0.93434 0.36154 0.0
O66 O 0.7524 0.96648 0.38838 0.0
O67 O 0.72871 0.95462 0.42862 0.0
C68 C 0.77525 0.92414 0.45423 0.0
C69 C 0.7335 0.96495 0.40336 0.0
C70 C 0.0331 0.81092 0.45335 0.0
C71 C 0.11443 0.81931 0.42008 0.0
O72 O 0.04426 0.8184 0.42868 0.0
Zn73 Zn 0.07431 0.81575 0.43739 0.0
O74 O 0.04394 0.80491 0.47372 0.0
Zn75 Zn 0.07915 0.80354 0.47845 0.0
O76 O 0.09629 0.82687 0.50983 0.0
O77 O 0.09551 0.84646 0.46918 0.0
O78 O 0.10951 0.81168 0.44688 0.0
O79 O 0.09896 0.82423 0.40626 0.0
O80 O 0.05838 0.77421 0.44186 0.0
O81 O 0.06687 0.76838 0.4874 0.0
C82 C 0.10216 0.84753 0.4962 0.0
C83 C 0.05718 0.75904 0.46252 0.0
C84 C 0.77708 0.85629 0.99086 0.0
C85 C 0.72752 0.76893 0.955 0.0
O86 O 0.78469 0.85513 0.96483 0.0
Zn87 Zn 0.77409 0.82398 0.93315 0.0
O88 O 0.75912 0.83614 0.00255 0.0
Zn89 Zn 0.75285 0.81305 0.97092 0.0
O90 O 0.787 0.80828 0.97115 0.0
O91 O 0.80475 0.82253 0.92784 0.0
O92 O 0.72597 0.77912 0.97873 0.0
O93 O 0.74431 0.78305 0.93563 0.0
O94 O 0.76485 0.83564 0.89954 0.0
O95 O 0.73656 0.82554 0.93514 0.0
C96 C 0.80488 0.81279 0.95246 0.0
C97 C 0.74399 0.83364 0.90879 0.0
C98 C 0.20056 0.98474 0.96314 0.0
C99 C 0.18144 0.91072 0.90091 0.0
O100 O 0.207 0.96945 0.97521 0.0
Zn101 Zn 0.20777 0.935 0.96373 0.0
O102 O 0.19145 0.98015 0.93726 0.0
Zn103 Zn 0.1916 0.948 0.93167 0.0
O104 O 0.1649 0.9223 0.96455 0.0
O105 O 0.18744 0.91257 0.99513 0.0
O106 O 0.17693 0.92904 0.8963 0.0
O107 O 0.1927 0.91046 0.92486 0.0
O108 O 0.24433 0.94659 0.96318 0.0
O109 O 0.23174 0.96064 0.92541 0.0
C110 C 0.16605 0.91049 0.98753 0.0
C111 C 0.24953 0.95899 0.9392 0.0
C112 C 0.10621 0.25826 0.97052 0.0
C113 C 0.0581 0.29254 0.9193 0.0
O114 O 0.09464 0.24458 0.94779 0.0
Zn115 Zn 0.06921 0.24524 0.91373 0.0
O116 O 0.10393 0.27771 0.97671 0.0
Zn117 Zn 0.08164 0.27488 0.94499 0.0
O118 O 0.04695 0.23998 0.95633 0.0
O119 O 0.0369 0.21307 0.91907 0.0
O120 O 0.07036 0.3 0.94337 0.0
O121 O 0.05639 0.27278 0.90616 0.0
O122 O 0.08835 0.24915 0.87848 0.0
O123 O 0.106 0.28392 0.90647 0.0
C124 C 0.03182 0.21809 0.94445 0.0
C125 C 0.10611 0.27229 0.88279 0.0
C126 C 0.86077 0.76934 0.52031 0.0
C127 C 0.77115 0.7271 0.55016 0.0
O128 O 0.85888 0.77844 0.54514 0.0
Zn129 Zn 0.82672 0.7717 0.57351 0.0
O130 O 0.84061 0.75205 0.50781 0.0
Zn131 Zn 0.81616 0.74889 0.53667 0.0
O132 O 0.81497 0.78468 0.53181 0.0
O133 O 0.82766 0.804 0.57464 0.0
O134 O 0.78152 0.72376 0.52758 0.0
O135 O 0.78538 0.74402 0.56936 0.0
O136 O 0.83501 0.76224 0.60961 0.0
O137 O 0.82441 0.73233 0.57575 0.0
C138 C 0.81982 0.80376 0.54875 0.0
C139 C 0.83129 0.74023 0.6023 0.0
C140 C 0.29758 0.10463 0.59454 0.0
C141 C 0.22587 0.02164 0.56434 0.0
O142 O 0.29776 0.10064 0.56685 0.0
Zn143 Zn 0.27441 0.07103 0.53538 0.0
O144 O 0.27956 0.08781 0.61039 0.0
Zn145 Zn 0.26157 0.06341 0.57941 0.0
O146 O 0.28875 0.05135 0.56727 0.0
O147 O 0.29816 0.0608 0.52043 0.0
O148 O 0.23143 0.0315 0.58986 0.0
O149 O 0.24011 0.03433 0.5425 0.0
O150 O 0.26288 0.08874 0.50921 0.0
O151 O 0.24625 0.08281 0.55366 0.0
C152 C 0.30107 0.05141 0.54419 0.0
C153 C 0.2483 0.09142 0.52741 0.0
C154 C 0.90274 0.18542 0.58915 0.0
C155 C 0.98545 0.19648 0.55883 0.0
O156 O 0.90988 0.19691 0.56421 0.0
Zn157 Zn 0.94257 0.20911 0.53474 0.0
O158 O 0.91671 0.17798 0.60202 0.0
Zn159 Zn 0.94338 0.19011 0.57324 0.0
O160 O 0.95965 0.2313 0.5773 0.0
O161 O 0.9573 0.24634 0.53391 0.0
O162 O 0.97229 0.18548 0.58158 0.0
O163 O 0.97652 0.20579 0.53981 0.0
O164 O 0.92718 0.18962 0.49933 0.0
O165 O 0.92412 0.16477 0.53662 0.0
C166 C 0.96383 0.25037 0.5608 0.0
C167 C 0.91948 0.16723 0.50967 0.0
C168 C 0.93946 0.5132 0.44824 0.0
C169 C 0.87296 0.53101 0.41065 0.0
O170 O 0.92025 0.51091 0.46284 0.0
Zn171 Zn 0.906 0.52203 0.43108 0.0
O172 O 0.94269 0.52113 0.42157 0.0
Zn173 Zn 0.92492 0.53327 0.38905 0.0
O174 O 0.95137 0.56926 0.38269 0.0
O175 O 0.93561 0.56118 0.42775 0.0
O176 O 0.89023 0.53473 0.39161 0.0
O177 O 0.87471 0.52401 0.4365 0.0
O178 O 0.89551 0.4914 0.40013 0.0
O179 O 0.91716 0.50745 0.35893 0.0
C180 C 0.95145 0.57687 0.40879 0.0
C181 C 0.90112 0.48806 0.3739 0.0
C182 C 0.48758 0.36179 0.40696 0.0
C183 C 0.49957 0.44518 0.43946 0.0
O184 O 0.49917 0.37446 0.42984 0.0
Zn185 Zn 0.49509 0.4043 0.4232 0.0
O186 O 0.47819 0.37134 0.3889 0.0
Zn187 Zn 0.47508 0.40525 0.38507 0.0
O188 O 0.49385 0.42079 0.34946 0.0
O189 O 0.5193 0.42356 0.38609 0.0
O190 O 0.48771 0.43758 0.41478 0.0
O191 O 0.50763 0.43161 0.4522 0.0
O192 O 0.45426 0.3883 0.42812 0.0
O193 O 0.43796 0.39076 0.38553 0.0
C194 C 0.51637 0.42839 0.35937 0.0
C195 C 0.43479 0.38427 0.41246 0.0
C196 C 0.58407 0.09553 0.35624 0.0
C197 C 0.63098 0.04824 0.36431 0.0
O198 O 0.58406 0.07943 0.33801 0.0
Zn199 Zn 0.60739 0.0717 0.35953 0.0
O200 O 0.59751 0.10066 0.37984 0.0
Zn201 Zn 0.62267 0.08952 0.40095 0.0
O202 O 0.6558 0.12152 0.40252 0.0
O203 O 0.64296 0.10754 0.35738 0.0
O204 O 0.63413 0.06254 0.38667 0.0
O205 O 0.61715 0.04793 0.34295 0.0
O206 O 0.5849 0.05101 0.39726 0.0
O207 O 0.60399 0.07372 0.43701 0.0
C208 C 0.65952 0.12441 0.37496 0.0
C209 C 0.5855 0.05372 0.42526 0.0
C210 C 0.83581 0.59048 0.81168 0.0
C211 C 0.91918 0.62846 0.7616 0.0
O212 O 0.85779 0.60703 0.82172 0.0
Zn213 Zn 0.87784 0.60892 0.78771 0.0
O214 O 0.83405 0.58124 0.78575 0.0
Zn215 Zn 0.85994 0.58542 0.75004 0.0
O216 O 0.85772 0.55165 0.74774 0.0
O217 O 0.87507 0.57221 0.78915 0.0
O218 O 0.90056 0.61168 0.74588 0.0
O219 O 0.91482 0.63258 0.78779 0.0
O220 O 0.86408 0.62508 0.75502 0.0
O221 O 0.84692 0.59761 0.71819 0.0
C222 C 0.8674 0.55234 0.77279 0.0
C223 C 0.85295 0.61924 0.72984 0.0
C224 C 0.40139 0.3005 0.7616 0.0
C225 C 0.45143 0.26172 0.79212 0.0
O226 O 0.3999 0.28748 0.78416 0.0
Zn227 Zn 0.42715 0.28138 0.77491 0.0
O228 O 0.41843 0.3046 0.7419 0.0
Zn229 Zn 0.44865 0.29416 0.7373 0.0
O230 O 0.43986 0.2751 0.70208 0.0
O231 O 0.41191 0.25474 0.73747 0.0
O232 O 0.45947 0.2722 0.76683 0.0
O233 O 0.43315 0.26287 0.80454 0.0
O234 O 0.46107 0.32005 0.77778 0.0
O235 O 0.47913 0.32677 0.73414 0.0
C236 C 0.41934 0.25552 0.7108 0.0
C237 C 0.47905 0.33476 0.75986 0.0
C238 C 0.7713 0.19656 0.80003 0.0
C239 C 0.72926 0.1045 0.77975 0.0
O240 O 0.77424 0.17942 0.81295 0.0
Zn241 Zn 0.75 0.15061 0.78977 0.0
O242 O 0.75533 0.19007 0.77852 0.0
Zn243 Zn 0.72906 0.15483 0.75539 0.0
O244 O 0.69576 0.15134 0.76192 0.0
O245 O 0.71365 0.14713 0.80235 0.0
O246 O 0.72163 0.11595 0.76197 0.0
O247 O 0.74552 0.11748 0.7996 0.0
O248 O 0.76815 0.15816 0.747 0.0
O249 O 0.74196 0.16208 0.71601 0.0
C250 C 0.69487 0.14767 0.78944 0.0
C251 C 0.76287 0.16211 0.72084 0.0
C252 C 0.42476 0.18453 0.33995 0.0
C253 C 0.38178 0.09438 0.31073 0.0
O254 O 0.43085 0.18221 0.31348 0.0
Zn255 Zn 0.42113 0.15016 0.28321 0.0
O256 O 0.40884 0.16462 0.35409 0.0
Zn257 Zn 0.40286 0.13973 0.32444 0.0
O258 O 0.4397 0.14206 0.32247 0.0
O259 O 0.45416 0.15165 0.27701 0.0
O260 O 0.38049 0.10436 0.33479 0.0
O261 O 0.39577 0.10905 0.28978 0.0
O262 O 0.40499 0.15749 0.25043 0.0
O263 O 0.38174 0.14682 0.29092 0.0
C264 C 0.45709 0.14648 0.30331 0.0
C265 C 0.38461 0.15335 0.26373 0.0
C266 C 0.87666 0.3266 0.29085 0.0
C267 C 0.87126 0.25793 0.22926 0.0
O268 O 0.87784 0.30916 0.30603 0.0
Zn269 Zn 0.87907 0.27433 0.29758 0.0
O270 O 0.87569 0.32503 0.26306 0.0
Zn271 Zn 0.8753 0.29273 0.26024 0.0
O272 O 0.83945 0.26541 0.28187 0.0
O273 O 0.84972 0.24952 0.31994 0.0
O274 O 0.87087 0.27819 0.22197 0.0
O275 O 0.87424 0.25411 0.25639 0.0
O276 O 0.91299 0.28261 0.31098 0.0
O277 O 0.91446 0.30335 0.27046 0.0
C278 C 0.83257 0.25041 0.30433 0.0
C279 C 0.9261 0.29815 0.29063 0.0
C280 C 0.7566 0.57677 0.30992 0.0
C281 C 0.71694 0.61572 0.25134 0.0
O282 O 0.74844 0.56506 0.28525 0.0
Zn283 Zn 0.72783 0.56815 0.24782 0.0
O284 O 0.75297 0.59534 0.31621 0.0
Zn285 Zn 0.73572 0.59537 0.28056 0.0
O286 O 0.69836 0.56069 0.28418 0.0
O287 O 0.69575 0.53629 0.24664 0.0
O288 O 0.7261 0.62147 0.27717 0.0
O289 O 0.71647 0.59659 0.23801 0.0
O290 O 0.75064 0.57341 0.21637 0.0
O291 O 0.76513 0.60692 0.24612 0.0
C292 C 0.68563 0.53983 0.26929 0.0
C293 C 0.76782 0.59626 0.22286 0.0
C294 C 0.49087 0.07169 0.9481 0.0
C295 C 0.48343 0.1362 0.8915 0.0
O296 O 0.4869 0.0651 0.92086 0.0
Zn297 Zn 0.48022 0.08153 0.88085 0.0
O298 O 0.49115 0.09207 0.95632 0.0
Zn299 Zn 0.48566 0.10253 0.91916 0.0
O300 O 0.44601 0.07422 0.91032 0.0
O301 O 0.44617 0.05589 0.86843 0.0
O302 O 0.48659 0.13477 0.9188 0.0
O303 O 0.48057 0.11774 0.87466 0.0
O304 O 0.50844 0.08635 0.85632 0.0
O305 O 0.52054 0.11054 0.89622 0.0
C306 C 0.43376 0.05775 0.88997 0.0
C307 C 0.52632 0.10296 0.87252 0.0
C308 C 0.96885 0.44158 0.92362 0.0
C309 C 0.89723 0.36628 0.87653 0.0
O310 O 0.97166 0.44052 0.8958 0.0
Zn311 Zn 0.95107 0.41623 0.85925 0.0
O312 O 0.94856 0.42409 0.93597 0.0
Zn313 Zn 0.93275 0.40353 0.9009 0.0
O314 O 0.95899 0.39021 0.88968 0.0
O315 O 0.97412 0.40454 0.8453 0.0
O316 O 0.90019 0.37112 0.90389 0.0
O317 O 0.91448 0.3815 0.85839 0.0
O318 O 0.9443 0.43861 0.83464 0.0
O319 O 0.92209 0.42754 0.87598 0.0
C320 C 0.97328 0.39172 0.86792 0.0
C321 C 0.92769 0.43949 0.85128 0.0
C322 C 0.57968 0.51921 0.92861 0.0
C323 C 0.66445 0.53675 0.89376 0.0
O324 O 0.58578 0.53059 0.90355 0.0
Zn325 Zn 0.61795 0.54506 0.87301 0.0
O326 O 0.59521 0.51364 0.94132 0.0
Zn327 Zn 0.62159 0.52727 0.91136 0.0
O328 O 0.63477 0.56779 0.91511 0.0
O329 O 0.63008 0.58164 0.87189 0.0
O330 O 0.65304 0.52582 0.91746 0.0
O331 O 0.6533 0.54438 0.87563 0.0
O332 O 0.60234 0.52539 0.83824 0.0
O333 O 0.60211 0.50133 0.87513 0.0
C334 C 0.63706 0.58616 0.89859 0.0
C335 C 0.59617 0.50334 0.84855 0.0
C336 C 0.57937 0.82775 0.71588 0.0
C337 C 0.63072 0.91859 0.74339 0.0
O338 O 0.59485 0.84633 0.69961 0.0
Zn339 Zn 0.60378 0.87384 0.72784 0.0
O340 O 0.57466 0.83245 0.74195 0.0
Zn341 Zn 0.58618 0.86502 0.77037 0.0
O342 O 0.55536 0.86776 0.77602 0.0
O343 O 0.56973 0.87652 0.73055 0.0
O344 O 0.61574 0.90427 0.76386 0.0
O345 O 0.62972 0.90915 0.71808 0.0
O346 O 0.62332 0.86487 0.7617 0.0
O347 O 0.60123 0.85605 0.80311 0.0
C348 C 0.55321 0.87409 0.74999 0.0
C349 C 0.6208 0.85871 0.78901 0.0
C350 C 0.10337 0.72201 0.71057 0.0
C351 C 0.19687 0.77221 0.69731 0.0
O352 O 0.11562 0.7352 0.68825 0.0
Zn353 Zn 0.15009 0.74631 0.70255 0.0
O354 O 0.11587 0.71982 0.73219 0.0
Zn355 Zn 0.15518 0.73264 0.74399 0.0
O356 O 0.15855 0.75192 0.78001 0.0
O357 O 0.15272 0.76933 0.74009 0.0
O358 O 0.19021 0.75948 0.72149 0.0
O359 O 0.1796 0.76995 0.67933 0.0
O360 O 0.15219 0.71196 0.70001 0.0
O361 O 0.15587 0.70013 0.74475 0.0
C362 C 0.15589 0.76967 0.768 0.0
C363 C 0.15411 0.69611 0.71721 0.0
C364 C 0.30574 0.39069 0.71895 0.0
C365 C 0.26031 0.43194 0.67759 0.0
O366 O 0.2985 0.38959 0.69249 0.0
Zn367 Zn 0.28443 0.4123 0.6977 0.0
O368 O 0.30253 0.40498 0.73749 0.0
Zn369 Zn 0.28714 0.43075 0.73818 0.0
O370 O 0.26139 0.41483 0.76835 0.0
O371 O 0.25334 0.39071 0.72869 0.0
O372 O 0.26629 0.43821 0.70459 0.0
O373 O 0.26748 0.41769 0.66492 0.0
O374 O 0.31894 0.44878 0.70281 0.0
O375 O 0.3175 0.46374 0.74655 0.0
C376 C 0.24711 0.39385 0.75475 0.0
C377 C 0.32936 0.46626 0.72258 0.0
C378 C 0.49812 0.91774 0.13677 0.0
C379 C 0.59092 0.96558 0.11667 0.0
O380 O 0.51604 0.93267 0.15419 0.0
Zn381 Zn 0.54442 0.94092 0.12775 0.0
O382 O 0.5039 0.9132 0.11111 0.0
Zn383 Zn 0.53828 0.9244 0.08494 0.0
O384 O 0.53869 0.89219 0.07966 0.0
O385 O 0.5437 0.90511 0.12582 0.0
O386 O 0.57795 0.95148 0.09489 0.0
O387 O 0.57917 0.9651 0.14011 0.0
O388 O 0.53734 0.96128 0.09377 0.0
O389 O 0.53173 0.94084 0.05166 0.0
C390 C 0.54157 0.88858 0.10657 0.0
C391 C 0.53267 0.9595 0.06613 0.0
C392 C 0.13968 0.66115 0.10938 0.0
C393 C 0.0853 0.58162 0.05675 0.0
O394 O 0.14139 0.65432 0.08352 0.0
Zn395 Zn 0.11239 0.62038 0.08501 0.0
O396 O 0.12169 0.64502 0.12639 0.0
Zn397 Zn 0.08955 0.60528 0.12154 0.0
O398 O 0.09626 0.58685 0.15092 0.0
O399 O 0.12452 0.59984 0.11475 0.0
O400 O 0.07665 0.57977 0.08302 0.0
O401 O 0.10569 0.60197 0.04928 0.0
O402 O 0.08048 0.62828 0.08874 0.0
O403 O 0.06066 0.60925 0.12981 0.0
C404 C 0.11605 0.58808 0.13932 0.0
C405 C 0.06243 0.62275 0.10755 0.0
C406 C 0.3966 0.42523 0.11652 0.0
C407 C 0.43931 0.51814 0.13282 0.0
O408 O 0.41316 0.43864 0.13594 0.0
Zn409 Zn 0.41832 0.47187 0.12443 0.0
O410 O 0.38926 0.43635 0.09796 0.0
Zn411 Zn 0.39698 0.47489 0.0893 0.0
O412 O 0.41048 0.48105 0.04991 0.0
O413 O 0.43679 0.47863 0.08197 0.0
O414 O 0.42322 0.51076 0.11135 0.0
O415 O 0.44258 0.50159 0.14671 0.0
O416 O 0.38231 0.46937 0.13641 0.0
O417 O 0.36341 0.4717 0.09585 0.0
C418 C 0.43167 0.48182 0.05544 0.0
C419 C 0.36325 0.46943 0.1236 0.0
C420 C 0.06909 0.49185 0.55871 0.0
C421 C 0.13656 0.48109 0.60305 0.0
O422 O 0.06436 0.48714 0.58628 0.0
Zn423 Zn 0.08457 0.48091 0.62308 0.0
O424 O 0.08977 0.49421 0.54822 0.0
Zn425 Zn 0.10291 0.48781 0.58282 0.0
O426 O 0.07492 0.44766 0.5915 0.0
O427 O 0.05939 0.44664 0.63567 0.0
O428 O 0.13395 0.48717 0.57717 0.0
O429 O 0.11993 0.47831 0.62273 0.0
O430 O 0.0922 0.50904 0.64999 0.0
O431 O 0.11428 0.52199 0.60885 0.0
C432 C 0.0598 0.4348 0.61269 0.0
C433 C 0.10862 0.5273 0.63413 0.0
C434 C 0.53715 0.66201 0.62668 0.0
C435 C 0.52161 0.58931 0.56429 0.0
O436 O 0.54379 0.647 0.63907 0.0
Zn437 Zn 0.5455 0.61305 0.62816 0.0
O438 O 0.52846 0.65737 0.60062 0.0
Zn439 Zn 0.52945 0.62568 0.59526 0.0
O440 O 0.50221 0.59921 0.62703 0.0
O441 O 0.52434 0.58995 0.65876 0.0
O442 O 0.51634 0.60706 0.55927 0.0
O443 O 0.53221 0.58916 0.58881 0.0
O444 O 0.58231 0.62527 0.62865 0.0
O445 O 0.56983 0.63903 0.59051 0.0
C446 C 0.50295 0.5873 0.65013 0.0
C447 C 0.58764 0.63769 0.60466 0.0
C448 C 0.44487 0.93139 0.65158 0.0
C449 C 0.39996 0.96691 0.59633 0.0
O450 O 0.43326 0.91755 0.629 0.0
Zn451 Zn 0.4092 0.91841 0.59385 0.0
O452 O 0.44372 0.95163 0.65675 0.0
Zn453 Zn 0.42252 0.94915 0.62376 0.0
O454 O 0.38644 0.91552 0.63528 0.0
O455 O 0.37634 0.88717 0.59956 0.0
O456 O 0.41264 0.97521 0.62006 0.0
O457 O 0.39752 0.94639 0.58441 0.0
O458 O 0.42843 0.92046 0.55944 0.0
O459 O 0.44736 0.95614 0.58579 0.0
C460 C 0.37091 0.89343 0.62405 0.0
C461 C 0.44701 0.94333 0.56296 0.0
C462 C 0.17552 0.41399 0.30144 0.0
C463 C 0.16349 0.47464 0.24222 0.0
O464 O 0.16737 0.40481 0.27557 0.0
Zn465 Zn 0.15717 0.41827 0.23541 0.0
O466 O 0.17943 0.4363 0.30791 0.0
Zn467 Zn 0.16938 0.44361 0.27134 0.0
O468 O 0.12901 0.41549 0.27119 0.0
O469 O 0.12078 0.39264 0.23052 0.0
O470 O 0.17102 0.47619 0.26852 0.0
O471 O 0.15765 0.45422 0.2273 0.0
O472 O 0.18222 0.41939 0.20708 0.0
O473 O 0.19978 0.44706 0.2435 0.0
C474 C 0.11298 0.39726 0.2545 0.0
C475 C 0.20226 0.43681 0.21991 0.0
C476 C 0.63422 0.76883 0.24603 0.0
C477 C 0.5616 0.69198 0.20239 0.0
O478 O 0.63636 0.76682 0.21826 0.0
Zn479 Zn 0.61489 0.74158 0.18277 0.0
O480 O 0.61414 0.75192 0.25929 0.0
Zn481 Zn 0.59739 0.73022 0.22518 0.0
O482 O 0.62336 0.71671 0.21403 0.0
O483 O 0.63776 0.72957 0.16904 0.0
O484 O 0.56499 0.69781 0.22951 0.0
O485 O 0.57842 0.70671 0.18356 0.0
O486 O 0.60773 0.76349 0.15779 0.0
O487 O 0.58656 0.75364 0.19982 0.0
C488 C 0.63729 0.71752 0.19223 0.0
C489 C 0.59171 0.76504 0.17481 0.0
C490 C 0.25593 0.8442 0.28913 0.0
C491 C 0.32849 0.86534 0.22358 0.0
O492 O 0.25507 0.85566 0.26566 0.0
Zn493 Zn 0.2781 0.87124 0.22614 0.0
O494 O 0.27416 0.83934 0.29253 0.0
Zn495 Zn 0.29191 0.85444 0.25641 0.0
O496 O 0.30422 0.89452 0.26418 0.0
O497 O 0.28877 0.90749 0.22817 0.0
O498 O 0.32422 0.85504 0.24883 0.0
O499 O 0.31277 0.87183 0.21283 0.0
O500 O 0.25472 0.85132 0.19543 0.0
O501 O 0.26508 0.82801 0.22385 0.0
C502 C 0.30176 0.91238 0.25172 0.0
C503 C 0.25255 0.82969 0.20186 0.0
H504 H 0.31392 0.18076 0.12981 0.0
H505 H 0.24986 0.15981 0.18958 0.0
H506 H 0.27328 0.15154 0.2285 0.0
H507 H 0.3301 0.13309 0.15587 0.0
H508 H 0.36441 0.15425 0.15217 0.0
H509 H 0.3425 0.15814 0.12843 0.0
H510 H 0.36285 0.20586 0.14463 0.0
H511 H 0.38476 0.2021 0.16849 0.0
H512 H 0.36423 0.21345 0.18314 0.0
H513 H 0.30341 0.14642 0.2614 0.0
H514 H 0.33844 0.14374 0.28636 0.0
H515 H 0.38366 0.1677 0.20605 0.0
C516 C 0.30476 0.17426 0.15102 0.0
C517 C 0.27997 0.17093 0.15653 0.0
C518 C 0.26878 0.16254 0.1847 0.0
C519 C 0.28193 0.15777 0.20703 0.0
C520 C 0.30633 0.16144 0.20099 0.0
C521 C 0.31768 0.1694 0.17372 0.0
C522 C 0.34429 0.17203 0.17336 0.0
C523 C 0.34538 0.15326 0.15114 0.0
C524 C 0.36527 0.20003 0.16703 0.0
C525 C 0.34606 0.16439 0.20472 0.0
C526 C 0.3239 0.15839 0.22018 0.0
C527 C 0.32085 0.15099 0.24953 0.0
C528 C 0.34094 0.14957 0.26353 0.0
C529 C 0.36389 0.15548 0.24825 0.0
C530 C 0.3664 0.16302 0.21838 0.0
H531 H 0.8506 0.12366 0.16749 0.0
H532 H 0.84111 0.149 0.08135 0.0
H533 H 0.84947 0.19027 0.1025 0.0
H534 H 0.81922 0.1516 0.20766 0.0
H535 H 0.84074 0.16096 0.23871 0.0
H536 H 0.83499 0.13355 0.21678 0.0
H537 H 0.88414 0.15401 0.20783 0.0
H538 H 0.89003 0.18149 0.22975 0.0
H539 H 0.90197 0.18604 0.19263 0.0
H540 H 0.85786 0.22829 0.13252 0.0
H541 H 0.86521 0.26083 0.17016 0.0
H542 H 0.86904 0.21126 0.23726 0.0
C543 C 0.85046 0.13796 0.15307 0.0
C544 C 0.84522 0.13306 0.12274 0.0
C545 C 0.84501 0.15222 0.10465 0.0
C546 C 0.8498 0.1758 0.11642 0.0
C547 C 0.85475 0.17998 0.14635 0.0
C548 C 0.8551 0.16166 0.1645 0.0
C549 C 0.86028 0.17093 0.19608 0.0
C550 C 0.83744 0.15321 0.21597 0.0
C551 C 0.88561 0.17326 0.20722 0.0
C552 C 0.86262 0.19722 0.19276 0.0
C553 C 0.85947 0.20204 0.16385 0.0
C554 C 0.86044 0.22481 0.15525 0.0
C555 C 0.86462 0.24318 0.17682 0.0
C556 C 0.86773 0.23865 0.20668 0.0
C557 C 0.86683 0.21536 0.21463 0.0
H558 H 0.80667 0.64721 0.22649 0.0
H559 H 0.77823 0.57828 0.17272 0.0
H560 H 0.81214 0.60268 0.13632 0.0
H561 H 0.82208 0.69163 0.16757 0.0
H562 H 0.85112 0.71695 0.1841 0.0
H563 H 0.82524 0.69404 0.20698 0.0
H564 H 0.85659 0.68232 0.2328 0.0
H565 H 0.88263 0.70536 0.21017 0.0
H566 H 0.87514 0.67223 0.21103 0.0
H567 H 0.84715 0.63435 0.10454 0.0
H568 H 0.88364 0.67122 0.08035 0.0
H569 H 0.89079 0.72013 0.15447 0.0
C570 C 0.80777 0.63719 0.20723 0.0
C571 C 0.78972 0.61079 0.20251 0.0
C572 C 0.79177 0.59846 0.17691 0.0
C573 C 0.81097 0.61215 0.15602 0.0
C574 C 0.82811 0.63818 0.16105 0.0
C575 C 0.82695 0.65059 0.18609 0.0
C576 C 0.84776 0.67883 0.18578 0.0
C577 C 0.83583 0.69639 0.18612 0.0
C578 C 0.86665 0.68504 0.21147 0.0
C579 C 0.86058 0.68029 0.15654 0.0
C580 C 0.8488 0.65659 0.14268 0.0
C581 C 0.85668 0.653 0.11522 0.0
C582 C 0.87739 0.67415 0.1016 0.0
C583 C 0.89015 0.69862 0.11548 0.0
C584 C 0.8815 0.70168 0.14332 0.0
H585 H 0.18104 0.29308 0.36928 0.0
H586 H 0.20451 0.33606 0.45121 0.0
H587 H 0.20225 0.37184 0.42778 0.0
H588 H 0.2164 0.34765 0.32134 0.0
H589 H 0.19169 0.33616 0.29349 0.0
H590 H 0.19498 0.3135 0.3165 0.0
H591 H 0.14711 0.29319 0.33217 0.0
H592 H 0.14367 0.31576 0.30916 0.0
H593 H 0.13579 0.31346 0.34765 0.0
H594 H 0.19801 0.40308 0.39619 0.0
H595 H 0.19112 0.42805 0.35804 0.0
H596 H 0.16994 0.36544 0.29595 0.0
C597 C 0.18568 0.31 0.38228 0.0
C598 C 0.19297 0.31169 0.41213 0.0
C599 C 0.19886 0.33421 0.42835 0.0
C600 C 0.19766 0.35471 0.41524 0.0
C601 C 0.1905 0.35248 0.38586 0.0
C602 C 0.18453 0.33075 0.36952 0.0
C603 C 0.17729 0.33347 0.3383 0.0
C604 C 0.19622 0.33265 0.3161 0.0
C605 C 0.1493 0.31273 0.33143 0.0
C606 C 0.18019 0.36013 0.33977 0.0
C607 C 0.18788 0.37067 0.36745 0.0
C608 C 0.19196 0.39505 0.37441 0.0
C609 C 0.188 0.4091 0.35252 0.0
C610 C 0.17997 0.39876 0.32393 0.0
C611 C 0.17607 0.3739 0.31755 0.0
H612 H 0.63358 0.78841 0.3011 0.0
H613 H 0.68337 0.7987 0.22681 0.0
H614 H 0.71932 0.83578 0.25143 0.0
H615 H 0.65815 0.85562 0.31419 0.0
H616 H 0.65623 0.85298 0.35364 0.0
H617 H 0.63441 0.826 0.33125 0.0
H618 H 0.64916 0.79712 0.35736 0.0
H619 H 0.67105 0.82404 0.37985 0.0
H620 H 0.68298 0.80701 0.3582 0.0
H621 H 0.74948 0.87214 0.28241 0.0
H622 H 0.7724 0.90719 0.31799 0.0
H623 H 0.70386 0.87508 0.37287 0.0
C624 C 0.65213 0.79834 0.29021 0.0
C625 C 0.65563 0.79059 0.262 0.0
C626 C 0.68013 0.80428 0.24833 0.0
C627 C 0.70076 0.82534 0.26218 0.0
C628 C 0.69667 0.83264 0.28974 0.0
C629 C 0.67304 0.81971 0.30369 0.0
C630 C 0.67383 0.83252 0.3328 0.0
C631 C 0.65451 0.84236 0.33297 0.0
C632 C 0.66897 0.81407 0.35858 0.0
C633 C 0.70151 0.85474 0.33276 0.0
C634 C 0.71427 0.85419 0.30774 0.0
C635 C 0.73977 0.87277 0.30216 0.0
C636 C 0.75261 0.89266 0.32257 0.0
C637 C 0.74 0.89398 0.3483 0.0
C638 C 0.7141 0.87457 0.35352 0.0
H639 H 0.13191 0.83708 0.36433 0.0
H640 H 0.14914 0.80645 0.44207 0.0
H641 H 0.18678 0.80883 0.41685 0.0
H642 H 0.14906 0.8039 0.31134 0.0
H643 H 0.1631 0.83052 0.28593 0.0
H644 H 0.13756 0.82655 0.31012 0.0
H645 H 0.16653 0.87288 0.33014 0.0
H646 H 0.19211 0.87703 0.30591 0.0
H647 H 0.19791 0.88194 0.34485 0.0
H648 H 0.2223 0.81399 0.38283 0.0
H649 H 0.25393 0.82312 0.34324 0.0
H650 H 0.21367 0.85075 0.28798 0.0
C651 C 0.14361 0.83092 0.37611 0.0
C652 C 0.13751 0.82155 0.40522 0.0
C653 C 0.1534 0.81373 0.41981 0.0
C654 C 0.17481 0.81495 0.40564 0.0
C655 C 0.18015 0.82412 0.3769 0.0
C656 C 0.16509 0.83209 0.36235 0.0
C657 C 0.17513 0.84135 0.33161 0.0
C658 C 0.15501 0.82457 0.30839 0.0
C659 C 0.18342 0.87 0.32793 0.0
C660 C 0.19817 0.83731 0.33114 0.0
C661 C 0.2007 0.82728 0.35743 0.0
C662 C 0.22053 0.82188 0.36216 0.0
C663 C 0.23838 0.82709 0.3395 0.0
C664 C 0.23634 0.83766 0.31246 0.0
C665 C 0.21582 0.84267 0.30834 0.0
H666 H 0.62211 0.84159 0.84558 0.0
H667 H 0.66703 0.87057 0.76542 0.0
H668 H 0.70279 0.86826 0.78838 0.0
H669 H 0.6757 0.8749 0.89625 0.0
H670 H 0.6643 0.84852 0.9219 0.0
H671 H 0.64161 0.85253 0.89972 0.0
H672 H 0.62273 0.80598 0.87992 0.0
H673 H 0.6453 0.8018 0.90213 0.0
H674 H 0.64395 0.79646 0.86305 0.0
H675 H 0.73374 0.86362 0.81859 0.0
H676 H 0.75851 0.85459 0.85456 0.0
H677 H 0.69489 0.82741 0.9165 0.0
C678 C 0.63948 0.84742 0.83293 0.0
C679 C 0.64165 0.85627 0.80361 0.0
C680 C 0.66471 0.86364 0.78779 0.0
C681 C 0.68527 0.8625 0.80067 0.0
C682 C 0.68261 0.85384 0.82945 0.0
C683 C 0.66037 0.84623 0.84547 0.0
C684 C 0.66283 0.83719 0.87592 0.0
C685 C 0.661 0.85431 0.89986 0.0
C686 C 0.64249 0.80866 0.88052 0.0
C687 C 0.68989 0.84093 0.87426 0.0
C688 C 0.7008 0.85072 0.8472 0.0
C689 C 0.72545 0.85589 0.83988 0.0
C690 C 0.73937 0.85065 0.86059 0.0
C691 C 0.7287 0.84018 0.88847 0.0
C692 C 0.70362 0.83545 0.89547 0.0
H693 H 0.18947 0.86901 0.90205 0.0
H694 H 0.15706 0.90602 0.84867 0.0
H695 H 0.14591 0.8731 0.81038 0.0
H696 H 0.21757 0.85223 0.84288 0.0
H697 H 0.21031 0.82151 0.858 0.0
H698 H 0.21502 0.84739 0.88208 0.0
H699 H 0.17016 0.81805 0.90537 0.0
H700 H 0.1653 0.79206 0.88136 0.0
H701 H 0.14202 0.80279 0.88212 0.0
H702 H 0.13974 0.83781 0.77707 0.0
H703 H 0.13836 0.80147 0.75038 0.0
H704 H 0.17403 0.78589 0.8247 0.0
C705 C 0.17987 0.87009 0.8824 0.0
C706 C 0.17414 0.89019 0.87846 0.0
C707 C 0.16167 0.8909 0.85231 0.0
C708 C 0.15521 0.87224 0.83039 0.0
C709 C 0.16124 0.85285 0.83486 0.0
C710 C 0.17321 0.85151 0.86018 0.0
C711 C 0.17791 0.82881 0.85897 0.0
C712 C 0.20693 0.83804 0.86057 0.0
C713 C 0.16295 0.80927 0.88341 0.0
C714 C 0.16694 0.81782 0.82888 0.0
C715 C 0.15743 0.83207 0.81549 0.0
C716 C 0.147 0.8264 0.78736 0.0
C717 C 0.14638 0.80571 0.77235 0.0
C718 C 0.15605 0.79074 0.78539 0.0
C719 C 0.16627 0.79679 0.81422 0.0
H720 H 0.14668 0.32208 0.88491 0.0
H721 H 0.11047 0.25421 0.82904 0.0
H722 H 0.14228 0.27813 0.79015 0.0
H723 H 0.16068 0.36855 0.8283 0.0
H724 H 0.19133 0.39213 0.84356 0.0
H725 H 0.16606 0.36958 0.86735 0.0
H726 H 0.19668 0.35447 0.88799 0.0
H727 H 0.2221 0.37709 0.86441 0.0
H728 H 0.21244 0.34336 0.86302 0.0
H729 H 0.17731 0.30964 0.75692 0.0
H730 H 0.21433 0.34596 0.73235 0.0
H731 H 0.22799 0.39334 0.80994 0.0
C732 C 0.1455 0.31216 0.86458 0.0
C733 C 0.12604 0.28622 0.86007 0.0
C734 C 0.1252 0.27403 0.83307 0.0
C735 C 0.14315 0.28747 0.81081 0.0
C736 C 0.16188 0.31308 0.81587 0.0
C737 C 0.16329 0.32527 0.84214 0.0
C738 C 0.18531 0.35293 0.84196 0.0
C739 C 0.17523 0.37191 0.8455 0.0
C740 C 0.20532 0.3572 0.86575 0.0
C741 C 0.19603 0.35441 0.81144 0.0
C742 C 0.18218 0.33123 0.79675 0.0
C743 C 0.18834 0.32787 0.76822 0.0
C744 C 0.20939 0.34867 0.75443 0.0
C745 C 0.22412 0.37256 0.76917 0.0
C746 C 0.21715 0.37539 0.79803 0.0
H747 H 0.8293 0.69294 0.59581 0.0
H748 H 0.83967 0.7508 0.66051 0.0
H749 H 0.84419 0.72501 0.69927 0.0
H750 H 0.79276 0.63701 0.64315 0.0
H751 H 0.80794 0.61961 0.62938 0.0
H752 H 0.80466 0.64207 0.60597 0.0
H753 H 0.85395 0.66665 0.59666 0.0
H754 H 0.85735 0.64421 0.61994 0.0
H755 H 0.87577 0.67831 0.62749 0.0
H756 H 0.84841 0.69451 0.7311 0.0
H757 H 0.85366 0.66067 0.75487 0.0
H758 H 0.84105 0.62124 0.67115 0.0
C759 C 0.83244 0.70008 0.61815 0.0
C760 C 0.83411 0.72398 0.62498 0.0
C761 C 0.83836 0.73267 0.65452 0.0
C762 C 0.84088 0.7181 0.67684 0.0
C763 C 0.83917 0.69478 0.66947 0.0
C764 C 0.83515 0.68572 0.64095 0.0
C765 C 0.83486 0.66018 0.63939 0.0
C766 C 0.80848 0.63843 0.62885 0.0
C767 C 0.85679 0.66249 0.6197 0.0
C768 C 0.83952 0.65658 0.67145 0.0
C769 C 0.84178 0.67682 0.68825 0.0
C770 C 0.84664 0.67849 0.71825 0.0
C771 C 0.84964 0.65913 0.73154 0.0
C772 C 0.8478 0.63825 0.71494 0.0
C773 C 0.84236 0.63683 0.68447 0.0
H774 H 0.37334 0.21002 0.72006 0.0
H775 H 0.4313 0.25316 0.65367 0.0
H776 H 0.40656 0.2192 0.61755 0.0
H777 H 0.35993 0.14651 0.69618 0.0
H778 H 0.3258 0.13133 0.70339 0.0
H779 H 0.34818 0.15891 0.72467 0.0
H780 H 0.32349 0.18261 0.7104 0.0
H781 H 0.30108 0.15513 0.68903 0.0
H782 H 0.31845 0.1865 0.67215 0.0
H783 H 0.37579 0.18178 0.58812 0.0
H784 H 0.34057 0.14182 0.56698 0.0
H785 H 0.30206 0.12179 0.65172 0.0
C786 C 0.38085 0.21223 0.69797 0.0
C787 C 0.40429 0.23432 0.68978 0.0
C788 C 0.41342 0.23649 0.66059 0.0
C789 C 0.39951 0.21728 0.63982 0.0
C790 C 0.37649 0.19591 0.64848 0.0
C791 C 0.36717 0.19312 0.6768 0.0
C792 C 0.34171 0.16812 0.68003 0.0
C793 C 0.34406 0.15016 0.70239 0.0
C794 C 0.3199 0.17342 0.68839 0.0
C795 C 0.33824 0.1575 0.64905 0.0
C796 C 0.35858 0.17392 0.63131 0.0
C797 C 0.35976 0.16866 0.60177 0.0
C798 C 0.33961 0.14591 0.58996 0.0
C799 C 0.31853 0.12862 0.60765 0.0
C800 C 0.31793 0.13456 0.63763 0.0
H801 H 0.88678 0.16996 0.6456 0.0
H802 H 0.86521 0.19326 0.56509 0.0
H803 H 0.82648 0.18903 0.58972 0.0
H804 H 0.82218 0.12322 0.66914 0.0
H805 H 0.82912 0.13155 0.7074 0.0
H806 H 0.85445 0.13533 0.68297 0.0
H807 H 0.88173 0.18343 0.69797 0.0
H808 H 0.85646 0.17982 0.72235 0.0
H809 H 0.86817 0.20423 0.69419 0.0
H810 H 0.79049 0.18296 0.62354 0.0
H811 H 0.76026 0.17598 0.66409 0.0
H812 H 0.80625 0.15769 0.7225 0.0
C813 C 0.8738 0.17393 0.63301 0.0
C814 C 0.87895 0.18182 0.60337 0.0
C815 C 0.86163 0.18714 0.58782 0.0
C816 C 0.83958 0.18478 0.6016 0.0
C817 C 0.83522 0.17718 0.63093 0.0
C818 C 0.85186 0.17186 0.64645 0.0
C819 C 0.84325 0.16482 0.67799 0.0
C820 C 0.83686 0.13708 0.68476 0.0
C821 C 0.86361 0.18424 0.69938 0.0
C822 C 0.81919 0.1671 0.67784 0.0
C823 C 0.8148 0.17412 0.65048 0.0
C824 C 0.79372 0.17743 0.64505 0.0
C825 C 0.77667 0.17343 0.66823 0.0
C826 C 0.78091 0.16635 0.69649 0.0
C827 C 0.8025 0.16318 0.70121 0.0
H828 H 0.94932 0.50847 0.50704 0.0
H829 H 0.97296 0.50408 0.41798 0.0
H830 H 1.00707 0.49685 0.43716 0.0
H831 H 1.01272 0.54268 0.53719 0.0
H832 H 1.00462 0.52589 0.57184 0.0
H833 H 0.98049 0.52913 0.55168 0.0
H834 H 0.95054 0.47955 0.55217 0.0
H835 H 0.97453 0.47616 0.57249 0.0
H836 H 0.96235 0.45916 0.53829 0.0
H837 H 0.03991 0.49287 0.46441 0.0
H838 H 0.06982 0.49048 0.49926 0.0
H839 H 0.02624 0.49661 0.57211 0.0
C840 C 0.96146 0.5056 0.49167 0.0
C841 C 0.95844 0.50691 0.46097 0.0
C842 C 0.97492 0.50334 0.44156 0.0
C843 C 0.99437 0.49914 0.45222 0.0
C844 C 0.9972 0.49847 0.48241 0.0
C845 C 0.98124 0.50141 0.50201 0.0
C846 C 0.9894 0.50059 0.53346 0.0
C847 C 0.99728 0.52609 0.54948 0.0
C848 C 0.96792 0.47749 0.55008 0.0
C849 C 1.01257 0.49707 0.52824 0.0
C850 C 0.01652 0.49589 0.49854 0.0
C851 C 0.03697 0.49356 0.48777 0.0
C852 C 0.05395 0.49234 0.50783 0.0
C853 C 0.05045 0.49335 0.5385 0.0
C854 C 0.02934 0.49563 0.54883 0.0
H855 H 0.51887 0.46503 0.49446 0.0
H856 H 0.48661 0.47907 0.41585 0.0
H857 H 0.48892 0.51726 0.43919 0.0
H858 H 0.48548 0.48288 0.54592 0.0
H859 H 0.5121 0.49823 0.57127 0.0
H860 H 0.50887 0.47235 0.54817 0.0
H861 H 0.55497 0.50175 0.52784 0.0
H862 H 0.55839 0.52768 0.55101 0.0
H863 H 0.56317 0.53249 0.51194 0.0
H864 H 0.49334 0.55311 0.47123 0.0
H865 H 0.50099 0.58527 0.50956 0.0
H866 H 0.5305 0.54843 0.56763 0.0
C867 C 0.51252 0.47627 0.48205 0.0
C868 C 0.50258 0.46899 0.45326 0.0
C869 C 0.49431 0.48417 0.4379 0.0
C870 C 0.49552 0.50594 0.45097 0.0
C871 C 0.50508 0.51238 0.47945 0.0
C872 C 0.51357 0.49812 0.4948 0.0
C873 C 0.52268 0.50915 0.52531 0.0
C874 C 0.5063 0.48947 0.54906 0.0
C875 C 0.55152 0.51831 0.52924 0.0
C876 C 0.51785 0.53172 0.52468 0.0
C877 C 0.50768 0.53319 0.498 0.0
C878 C 0.50138 0.55223 0.49219 0.0
C879 C 0.50576 0.57039 0.51416 0.0
C880 C 0.51635 0.56944 0.54165 0.0
C881 C 0.52238 0.54973 0.54688 0.0
H882 H 0.57093 0.05703 0.48206 0.0
H883 H 0.55276 1.00412 0.40892 0.0
H884 H 0.51704 0.96989 0.43726 0.0
H885 H 0.55531 0.00972 0.54076 0.0
H886 H 0.54104 0.02359 0.56402 0.0
H887 H 0.56639 0.04376 0.53882 0.0
H888 H 0.53685 0.05916 0.51572 0.0
H889 H 0.51143 0.03905 0.54083 0.0
H890 H 0.50558 0.03564 0.50181 0.0
H891 H 0.48267 0.9417 0.47237 0.0
H892 H 0.45049 0.9215 0.51172 0.0
H893 H 0.48953 0.99245 0.56232 0.0
C894 C 0.55961 0.03815 0.47219 0.0
C895 C 0.56473 0.03325 0.44328 0.0
C896 C 0.54921 1.00838 0.43098 0.0
C897 C 0.5289 0.98875 0.44694 0.0
C898 C 0.52419 0.99423 0.4752 0.0
C899 C 0.53897 0.01829 0.48777 0.0
C900 C 0.52885 0.01926 0.51805 0.0
C901 C 0.54911 0.02438 0.54182 0.0
C902 C 0.52016 0.03947 0.51915 0.0
C903 C 0.506 0.99206 0.52033 0.0
C904 C 0.50387 0.97795 0.49544 0.0
C905 C 0.48416 0.95251 0.49204 0.0
C906 C 0.46595 0.9412 0.51457 0.0
C907 C 0.46741 0.95532 0.5402 0.0
C908 C 0.48789 0.98107 0.5431 0.0
H909 H 0.49521 0.02822 0.93891 0.0
H910 H 0.49905 0.08121 0.00667 0.0
H911 H 0.51033 0.0583 0.04312 0.0
H912 H 0.46726 0.97098 0.98538 0.0
H913 H 0.48551 0.95778 0.96879 0.0
H914 H 0.47724 0.978 0.94756 0.0
H915 H 0.52553 1.00828 0.93541 0.0
H916 H 0.53397 0.98824 0.95675 0.0
H917 H 0.54856 0.02214 0.96493 0.0
H918 H 0.52233 0.03138 0.07199 0.0
H919 H 0.53257 0.99993 0.09309 0.0
H920 H 0.52075 0.96288 0.00785 0.0
C921 C 0.49824 0.03486 0.96146 0.0
C922 C 0.49624 0.05658 0.96986 0.0
C923 C 0.50046 0.06468 0.99959 0.0
C924 C 0.50692 0.05181 0.02053 0.0
C925 C 0.50905 0.03076 0.01152 0.0
C926 C 0.5047 0.02212 0.98283 0.0
C927 C 0.50836 0.9989 0.97935 0.0
C928 C 0.48308 0.975 0.9697 0.0
C929 C 0.53042 1.00475 0.95783 0.0
C930 C 0.51554 0.99604 0.01056 0.0
C931 C 0.51585 0.01476 0.02858 0.0
C932 C 0.52207 0.01653 0.05819 0.0
C933 C 0.52792 0.99852 0.06994 0.0
C934 C 0.52746 0.97881 0.05219 0.0
C935 C 0.52128 0.97768 0.022 0.0
H936 H 0.9677 0.45644 0.98114 0.0
H937 H 0.01733 0.47522 0.90466 0.0
H938 H 0.05239 0.51123 0.93155 0.0
H939 H 0.98951 0.52185 0.00237 0.0
H940 H 0.98821 0.51589 0.0413 0.0
H941 H 0.96693 0.49046 0.01679 0.0
H942 H 0.98388 0.46123 0.03691 0.0
H943 H 1.00524 0.4866 0.06147 0.0
H944 H 0.01803 0.47259 0.03625 0.0
H945 H 0.08167 0.54559 0.96507 0.0
H946 H 0.10384 0.57789 0.00366 0.0
H947 H 0.03624 0.53847 0.0596 0.0
C948 C 0.98601 0.46803 0.97018 0.0
C949 C 0.9897 0.46292 0.94073 0.0
C950 C 0.01391 0.47871 0.9271 0.0
C951 C 0.03405 0.49921 0.94223 0.0
C952 C 0.02979 0.50383 0.97105 0.0
C953 C 1.00645 0.48884 0.98499 0.0
C954 C 1.00701 0.49886 0.01584 0.0
C955 C 0.98671 0.50727 0.01926 0.0
C956 C 1.00332 0.47861 0.03899 0.0
C957 C 0.03424 0.52189 0.0168 0.0
C958 C 0.04695 0.52415 0.99069 0.0
C959 C 0.07199 0.54402 0.98568 0.0
C960 C 0.08441 0.56233 0.0078 0.0
C961 C 0.07183 0.5608 0.03474 0.0
C962 C 0.04644 0.54008 0.03936 0.0
H963 H 0.5639 0.5037 0.98556 0.0
H964 H 0.5393 0.52116 0.90324 0.0
H965 H 0.49838 0.51227 0.92629 0.0
H966 H 0.50098 0.45187 0.00834 0.0
H967 H 0.5062 0.46096 0.04654 0.0
H968 H 0.5332 0.46768 0.02328 0.0
H969 H 0.55516 0.51604 0.03737 0.0
H970 H 0.52823 0.50948 0.06063 0.0
H971 H 0.53798 0.53331 0.03198 0.0
H972 H 0.46038 0.50225 0.95839 0.0
H973 H 0.4284 0.49268 0.99764 0.0
H974 H 0.47789 0.4825 0.05942 0.0
C975 C 0.54982 0.50544 0.97231 0.0
C976 C 0.55483 0.51306 0.94253 0.0
C977 C 0.53597 0.51538 0.92608 0.0
C978 C 0.51261 0.51032 0.93896 0.0
C979 C 0.50836 0.50303 0.96838 0.0
C980 C 0.52644 0.50064 0.98489 0.0
C981 C 0.51738 0.49329 0.01633 0.0
C982 C 0.51425 0.46688 0.02407 0.0
C983 C 0.53578 0.51428 0.03784 0.0
C984 C 0.49146 0.49205 0.0149 0.0
C985 C 0.48658 0.49759 0.987 0.0
C986 C 0.46397 0.49783 0.98032 0.0
C987 C 0.4459 0.49236 0.00279 0.0
C988 C 0.45057 0.48683 0.03166 0.0
C989 C 0.47368 0.48662 0.03762 0.0
H990 H 0.21836 0.03469 0.94477 0.0
H991 H 0.18788 0.98407 0.02021 0.0
H992 H 0.19174 0.02025 0.05015 0.0
H993 H 0.26616 0.08861 0.98561 0.0
H994 H 0.26378 0.1126 0.9641 0.0
H995 H 0.25638 0.0823 0.94765 0.0
H996 H 0.21125 0.07444 0.93263 0.0
H997 H 0.21851 0.10472 0.94908 0.0
H998 H 0.19017 0.07535 0.96029 0.0
H999 H 0.19871 0.06135 0.07188 0.0
H1000 H 0.21275 0.10615 0.08603 0.0
H1001 H 0.24245 0.13181 0.99803 0.0
C1002 C 0.2122 0.03127 0.96749 0.0
C1003 C 0.20251 1.0066 0.98021 0.0
C1004 C 0.19525 1.00285 0.01014 0.0
C1005 C 0.19727 0.02323 0.02725 0.0
C1006 C 0.20703 0.04738 0.01422 0.0
C1007 C 0.21475 0.05166 0.98517 0.0
C1008 C 0.22652 0.08001 0.9774 0.0
C1009 C 0.25489 0.09155 0.96815 0.0
C1010 C 0.21066 0.08385 0.95343 0.0
C1011 C 0.22421 0.09092 0.00663 0.0
C1012 C 0.21249 0.07161 0.02735 0.0
C1013 C 0.20796 0.07667 0.05589 0.0
C1014 C 0.21594 0.10221 0.06367 0.0
C1015 C 0.22873 0.12253 0.04317 0.0
C1016 C 0.23278 0.11671 0.0142 0.0
H1017 H 0.98189 0.18582 0.92548 0.0
H1018 H 0.03181 0.20712 1.00181 0.0
H1019 H 0.99519 0.17593 0.0319 0.0
H1020 H 0.9279 0.18139 0.96444 0.0
H1021 H 0.90375 0.15453 0.94361 0.0
H1022 H 0.93426 0.17658 0.92695 0.0
H1023 H 0.94154 0.13851 0.91441 0.0
H1024 H 0.91103 0.11631 0.93103 0.0
H1025 H 0.94013 0.11724 0.94327 0.0
H1026 H 0.95421 0.14369 0.05384 0.0
H1027 H 0.90957 0.11425 0.06852 0.0
H1028 H 0.88369 0.11493 0.97946 0.0
C1029 C 0.98503 0.18352 0.94843 0.0
C1030 C 1.00965 0.19856 0.96139 0.0
C1031 C 0.01308 0.19566 0.99158 0.0
C1032 C 0.99245 0.17795 0.00877 0.0
C1033 C 0.96838 0.16356 0.99555 0.0
C1034 C 0.96436 0.16627 0.96621 0.0
C1035 C 0.93595 0.14974 0.95836 0.0
C1036 C 0.92481 0.16657 0.94772 0.0
C1037 C 0.93193 0.12923 0.9354 0.0
C1038 C 0.92473 0.1375 0.98794 0.0
C1039 C 0.94401 0.14556 0.00881 0.0
C1040 C 0.9389 0.13721 0.03774 0.0
C1041 C 0.91335 0.12038 0.04581 0.0
C1042 C 0.89294 0.11217 0.02518 0.0
C1043 C 0.8988 0.1208 0.99573 0.0
H1044 H 0.89167 0.77192 0.0475 0.0
H1045 H 0.92316 0.76395 0.96488 0.0
H1046 H 0.89661 0.77825 0.93815 0.0
H1047 H 0.82707 0.74721 0.02074 0.0
H1048 H 0.82088 0.76874 0.04242 0.0
H1049 H 0.84336 0.75925 0.05535 0.0
H1050 H 0.87884 0.80727 0.05982 0.0
H1051 H 0.85646 0.81691 0.04691 0.0
H1052 H 0.88679 0.82808 0.02829 0.0
H1053 H 0.86742 0.79375 0.92048 0.0
H1054 H 0.83493 0.80676 0.91215 0.0
H1055 H 0.81985 0.80236 0.00587 0.0
C1056 C 0.89313 0.77344 0.0238 0.0
C1057 C 0.90963 0.76706 0.00821 0.0
C1058 C 0.91067 0.76878 0.97721 0.0
C1059 C 0.89573 0.77695 0.96186 0.0
C1060 C 0.87959 0.78299 0.97784 0.0
C1061 C 0.87796 0.78111 0.00807 0.0
C1062 C 0.85811 0.78761 0.0197 0.0
C1063 C 0.83605 0.76431 0.03548 0.0
C1064 C 0.87082 0.81139 0.03987 0.0
C1065 C 0.84891 0.79351 0.99125 0.0
C1066 C 0.86181 0.79096 0.96746 0.0
C1067 C 0.85712 0.79573 0.9389 0.0
C1068 C 0.83864 0.8032 0.93444 0.0
C1069 C 0.82479 0.80556 0.95835 0.0
C1070 C 0.83002 0.8006 0.98715 0.0
H1071 H 0.01387 0.20835 0.50819 0.0
H1072 H 0.0162 0.19324 0.60104 0.0
H1073 H 0.06139 0.2034 0.59575 0.0
H1074 H 0.05409 0.18116 0.4839 0.0
H1075 H 0.06961 0.20511 0.45562 0.0
H1076 H 0.03698 0.1952 0.46641 0.0
H1077 H 0.05045 0.2428 0.47721 0.0
H1078 H 0.08311 0.25284 0.46666 0.0
H1079 H 0.07658 0.26122 0.5024 0.0
H1080 H 0.10744 0.21982 0.5816 0.0
H1081 H 0.15031 0.23731 0.55844 0.0
H1082 H 0.11742 0.23889 0.47412 0.0
C1083 C 0.02379 0.20686 0.52733 0.0
C1084 C 1.01156 0.20006 0.55505 0.0
C1085 C 0.02515 0.19828 0.57957 0.0
C1086 C 0.05083 0.20407 0.5768 0.0
C1087 C 0.06247 0.21117 0.54928 0.0
C1088 C 0.04929 0.21216 0.52486 0.0
C1089 C 0.06641 0.22072 0.49789 0.0
C1090 C 0.05616 0.19926 0.47458 0.0
C1091 C 0.06931 0.24589 0.48532 0.0
C1092 C 0.09147 0.22501 0.51112 0.0
C1093 C 0.08879 0.21951 0.54083 0.0
C1094 C 0.10967 0.22374 0.55827 0.0
C1095 C 0.13393 0.23379 0.54498 0.0
C1096 C 0.137 0.23915 0.51451 0.0
C1097 C 0.11544 0.23447 0.49736 0.0
H1098 H 0.81481 0.81775 0.49223 0.0
H1099 H 0.8133 0.83674 0.58398 0.0
H1100 H 0.80299 0.87016 0.56952 0.0
H1101 H 0.8448 0.8843 0.46567 0.0
H1102 H 0.82644 0.87557 0.43204 0.0
H1103 H 0.83399 0.85309 0.44937 0.0
H1104 H 0.7854 0.81875 0.45062 0.0
H1105 H 0.7777 0.84113 0.43334 0.0
H1106 H 0.76297 0.82646 0.46787 0.0
H1107 H 0.78955 0.89905 0.54587 0.0
H1108 H 0.7774 0.92454 0.51379 0.0
H1109 H 0.7908 0.89001 0.43696 0.0
C1110 C 0.81243 0.82905 0.50921 0.0
C1111 C 0.81483 0.82457 0.53926 0.0
C1112 C 0.8117 0.83986 0.56083 0.0
C1113 C 0.80576 0.85888 0.55286 0.0
C1114 C 0.80339 0.86274 0.52316 0.0
C1115 C 0.80694 0.84856 0.5016 0.0
C1116 C 0.8035 0.85694 0.47126 0.0
C1117 C 0.82869 0.86814 0.45354 0.0
C1118 C 0.78105 0.83448 0.45481 0.0
C1119 C 0.79707 0.87771 0.47926 0.0
C1120 C 0.7969 0.88053 0.50936 0.0
C1121 C 0.79 0.89733 0.52224 0.0
C1122 C 0.78306 0.91166 0.50389 0.0
C1123 C 0.78351 0.90946 0.473 0.0
C1124 C 0.79082 0.89241 0.46053 0.0
H1125 H 0.2062 0.99676 0.51202 0.0
H1126 H 0.19601 0.98677 0.60645 0.0
H1127 H 0.16132 0.94176 0.59895 0.0
H1128 H 0.13772 0.95668 0.49272 0.0
H1129 H 0.1446 0.94389 0.46031 0.0
H1130 H 0.16748 0.97583 0.47303 0.0
H1131 H 0.20305 0.96322 0.47494 0.0
H1132 H 0.1803 0.93126 0.46233 0.0
H1133 H 0.19768 0.93554 0.49613 0.0
H1134 H 0.13069 0.89704 0.58151 0.0
H1135 H 0.10453 0.85594 0.55519 0.0
H1136 H 0.13333 0.89527 0.47196 0.0
C1137 C 0.19648 0.98523 0.53114 0.0
C1138 C 0.20384 0.9953 0.55985 0.0
C1139 C 0.19066 0.97952 0.58425 0.0
C1140 C 0.17093 0.95393 0.58022 0.0
C1141 C 0.16443 0.94452 0.55165 0.0
C1142 C 0.17662 0.95973 0.52751 0.0
C1143 C 0.1665 0.94466 0.49918 0.0
C1144 C 0.15329 0.95594 0.48019 0.0
C1145 C 0.18817 0.94361 0.48216 0.0
C1146 C 0.1471 0.91843 0.51121 0.0
C1147 C 0.14622 0.9188 0.54153 0.0
C1148 C 0.13093 0.89658 0.55777 0.0
C1149 C 0.11623 0.87333 0.54262 0.0
C1150 C 0.11678 0.8725 0.51155 0.0
C1151 C 0.13221 0.89543 0.49569 0.0
H1152 H 0.79293 0.90503 0.97019 0.0
H1153 H 0.78628 0.86201 0.04942 0.0
H1154 H 0.80188 0.90168 0.07893 0.0
H1155 H 0.84991 0.96691 0.9923 0.0
H1156 H 0.83738 0.98585 0.976 0.0
H1157 H 0.82915 0.95493 0.96059 0.0
H1158 H 0.78057 0.94005 0.96597 0.0
H1159 H 0.78864 0.97083 0.98148 0.0
H1160 H 0.76808 0.94163 1.00145 0.0
H1161 H 0.81557 0.94516 0.10023 0.0
H1162 H 0.8241 0.98902 0.11213 0.0
H1163 H 0.81943 1.00329 0.01948 0.0
C1164 C 0.79544 0.90421 0.99365 0.0
C1165 C 0.7888 0.88065 0.00757 0.0
C1166 C 0.79145 0.87999 0.0384 0.0
C1167 C 0.80037 0.9024 0.05531 0.0
C1168 C 0.80628 0.92528 0.04108 0.0
C1169 C 0.80382 0.92637 0.01097 0.0
C1170 C 0.80904 0.95283 1.00157 0.0
C1171 C 0.83279 0.9659 0.98142 0.0
C1172 C 0.78516 0.95122 0.98675 0.0
C1173 C 0.81439 0.96624 0.0311 0.0
C1174 C 0.81312 0.95015 0.05355 0.0
C1175 C 0.81677 0.95802 0.08283 0.0
C1176 C 0.82161 0.98296 0.08938 0.0
C1177 C 0.82238 0.99956 0.06679 0.0
C1178 C 0.81894 0.99106 0.03728 0.0
H1179 H 0.11647 0.8821 0.96788 0.0
H1180 H 0.16296 0.90376 0.04702 0.0
H1181 H 0.12347 0.8787 0.07685 0.0
H1182 H 0.06031 0.8819 0.99776 0.0
H1183 H 0.03774 0.85365 0.97751 0.0
H1184 H 0.06937 0.87482 0.96271 0.0
H1185 H 0.07767 0.83641 0.95818 0.0
H1186 H 0.04601 0.81511 0.9727 0.0
H1187 H 0.07399 0.81705 0.9901 0.0
H1188 H 0.0785 0.85153 0.09795 0.0
H1189 H 0.03272 0.81959 0.10802 0.0
H1190 H 0.01654 0.81317 0.0146 0.0
C1191 C 0.11827 0.88171 0.99152 0.0
C1192 C 0.14264 0.89501 0.00527 0.0
C1193 C 0.14439 0.89366 0.03615 0.0
C1194 C 0.12208 0.87964 0.05324 0.0
C1195 C 0.09827 0.86678 0.03902 0.0
C1196 C 0.0963 0.86732 0.0088 0.0
C1197 C 0.06875 0.85022 0.99867 0.0
C1198 C 0.05844 0.86611 0.98326 0.0
C1199 C 0.06648 0.8284 0.97875 0.0
C1200 C 0.0555 0.83992 0.02788 0.0
C1201 C 0.07273 0.85007 0.05096 0.0
C1202 C 0.06486 0.84341 0.08003 0.0
C1203 C 0.03882 0.8254 0.08557 0.0
C1204 C 0.02117 0.81393 0.06209 0.0
C1205 C 0.02964 0.82161 0.03297 0.0
H1206 H 0.13494 0.23518 0.95661 0.0
H1207 H 0.11048 0.26442 0.02963 0.0
H1208 H 0.13367 0.2513 0.06404 0.0
H1209 H 0.13227 0.18048 0.9936 0.0
H1210 H 0.16123 0.18424 0.97681 0.0
H1211 H 0.14184 0.19487 0.9577 0.0
H1212 H 0.18162 0.24063 0.95262 0.0
H1213 H 0.20115 0.23012 0.97162 0.0
H1214 H 0.19934 0.2575 0.98503 0.0
H1215 H 0.15772 0.23366 0.09073 0.0
H1216 H 0.1855 0.21688 0.10808 0.0
H1217 H 0.19826 0.20226 0.01799 0.0
C1218 C 0.13444 0.23869 0.97987 0.0
C1219 C 0.12078 0.25067 0.99053 0.0
C1220 C 0.12087 0.25534 0.02102 0.0
C1221 C 0.13388 0.24785 0.04074 0.0
C1222 C 0.14716 0.23611 0.02961 0.0
C1223 C 0.14795 0.23191 0.99989 0.0
C1224 C 0.16486 0.22013 0.9938 0.0
C1225 C 0.1491 0.19334 0.97964 0.0
C1226 C 0.18812 0.23818 0.97464 0.0
C1227 C 0.17322 0.21821 0.02476 0.0
C1228 C 0.16242 0.22722 0.04503 0.0
C1229 C 0.16647 0.22674 0.07507 0.0
C1230 C 0.18221 0.21706 0.08471 0.0
C1231 C 0.19414 0.20834 0.06442 0.0
C1232 C 0.18956 0.20897 0.034 0.0
H1233 H 0.90747 0.78216 0.5455 0.0
H1234 H 0.8704 0.77717 0.46201 0.0
H1235 H 0.91148 0.79054 0.43623 0.0
H1236 H 0.97163 0.8368 0.52746 0.0
H1237 H 0.98849 0.8232 0.54644 0.0
H1238 H 0.95699 0.81611 0.55876 0.0
H1239 H 0.94062 0.76719 0.55414 0.0
H1240 H 0.97201 0.77412 0.54176 0.0
H1241 H 0.94395 0.7544 0.5196 0.0
H1242 H 0.95583 0.80293 0.41929 0.0
H1243 H 0.9999 0.81048 0.4118 0.0
H1244 H 1.00784 0.80463 0.50584 0.0
C1245 C 0.90825 0.78443 0.52186 0.0
C1246 C 0.88595 0.779 0.50569 0.0
C1247 C 0.88736 0.78139 0.47473 0.0
C1248 C 0.9106 0.78905 0.45993 0.0
C1249 C 0.93219 0.79391 0.47638 0.0
C1250 C 0.93123 0.79151 0.50663 0.0
C1251 C 0.95668 0.79571 0.5187 0.0
C1252 C 0.96918 0.81937 0.53904 0.0
C1253 C 0.95309 0.77141 0.53447 0.0
C1254 C 0.97194 0.80061 0.4905 0.0
C1255 C 0.95756 0.79989 0.46642 0.0
C1256 C 0.96733 0.8036 0.43797 0.0
C1257 C 0.99241 0.80791 0.43394 0.0
C1258 C 1.00732 0.8081 0.4582 0.0
C1259 C 0.99692 0.80456 0.48685 0.0
H1260 H 0.22449 0.19331 0.43957 0.0
H1261 H 0.17462 0.18758 0.51164 0.0
H1262 H 0.17776 0.15111 0.53218 0.0
H1263 H 0.20315 0.12279 0.43383 0.0
H1264 H 0.2355 0.12925 0.42694 0.0
H1265 H 0.22582 0.15185 0.41493 0.0
H1266 H 0.26403 0.18827 0.44367 0.0
H1267 H 0.27371 0.16581 0.45592 0.0
H1268 H 0.26727 0.18428 0.48239 0.0
H1269 H 0.18985 0.11921 0.54795 0.0
H1270 H 0.21084 0.09381 0.55886 0.0
H1271 H 0.25454 0.12049 0.47775 0.0
C1272 C 0.21357 0.18368 0.45907 0.0
C1273 C 0.1989 0.19276 0.47382 0.0
C1274 C 0.18567 0.18057 0.49995 0.0
C1275 C 0.1873 0.15985 0.5117 0.0
C1276 C 0.20245 0.15171 0.49719 0.0
C1277 C 0.21538 0.16316 0.47145 0.0
C1278 C 0.23263 0.1525 0.46223 0.0
C1279 C 0.22373 0.13824 0.43273 0.0
C1280 C 0.26109 0.174 0.461 0.0
C1281 C 0.22786 0.13387 0.48723 0.0
C1282 C 0.21008 0.1335 0.50685 0.0
C1283 C 0.20355 0.11904 0.53257 0.0
C1284 C 0.21569 0.10475 0.53863 0.0
C1285 C 0.23431 0.10507 0.51915 0.0
C1286 C 0.24016 0.11958 0.49289 0.0
H1287 H 0.81914 0.01909 0.47325 0.0
H1288 H 0.84407 0.03629 0.38251 0.0
H1289 H 0.87437 0.08153 0.39601 0.0
H1290 H 0.82244 0.07902 0.49069 0.0
H1291 H 0.83501 0.08114 0.52719 0.0
H1292 H 0.81501 0.05006 0.5105 0.0
H1293 H 0.85086 0.03848 0.51878 0.0
H1294 H 0.87092 0.06949 0.53561 0.0
H1295 H 0.88285 0.05961 0.5048 0.0
H1296 H 0.90015 0.1255 0.41872 0.0
H1297 H 0.92295 0.16423 0.45013 0.0
H1298 H 0.88396 0.11809 0.52675 0.0
C1299 C 0.83102 0.03239 0.45627 0.0
C1300 C 0.82917 0.02417 0.42679 0.0
C1301 C 0.84522 0.0421 0.40525 0.0
C1302 C 0.86242 0.06788 0.41267 0.0
C1303 C 0.86369 0.07541 0.44184 0.0
C1304 C 0.84873 0.05814 0.46341 0.0
C1305 C 0.85445 0.07113 0.49326 0.0
C1306 C 0.83029 0.07029 0.50616 0.0
C1307 C 0.86543 0.05895 0.51435 0.0
C1308 C 0.87474 0.09842 0.48502 0.0
C1309 C 0.87956 0.10052 0.45519 0.0
C1310 C 0.89675 0.12403 0.44216 0.0
C1311 C 0.90953 0.14594 0.46014 0.0
C1312 C 0.90539 0.14411 0.49086 0.0
C1313 C 0.88777 0.11998 0.50337 0.0
H1314 H 0.91136 0.4719 0.32119 0.0
H1315 H 0.86798 0.44367 0.40237 0.0
H1316 H 0.85523 0.3993 0.38831 0.0
H1317 H 0.8655 0.41606 0.27522 0.0
H1318 H 0.8911 0.41637 0.25405 0.0
H1319 H 0.89505 0.446 0.26908 0.0
H1320 H 0.93696 0.45417 0.29514 0.0
H1321 H 0.93302 0.42448 0.28049 0.0
H1322 H 0.93596 0.42999 0.31957 0.0
H1323 H 0.85186 0.35904 0.36934 0.0
H1324 H 0.85401 0.32401 0.34326 0.0
H1325 H 0.89693 0.37679 0.27265 0.0
C1326 C 0.8987 0.45633 0.33567 0.0
C1327 C 0.89075 0.46137 0.36293 0.0
C1328 C 0.87438 0.44043 0.38138 0.0
C1329 C 0.867 0.41507 0.37362 0.0
C1330 C 0.87578 0.41082 0.34712 0.0
C1331 C 0.89087 0.43072 0.3281 0.0
C1332 C 0.89833 0.42072 0.30141 0.0
C1333 C 0.8868 0.42504 0.27327 0.0
C1334 C 0.92782 0.43308 0.29903 0.0
C1335 C 0.88568 0.39228 0.3089 0.0
C1336 C 0.87287 0.38708 0.33545 0.0
C1337 C 0.86137 0.3627 0.34823 0.0
C1338 C 0.86283 0.343 0.33339 0.0
C1339 C 0.8754 0.34772 0.30591 0.0
C1340 C 0.8868 0.37262 0.29341 0.0
H1341 H 0.56493 0.46458 0.3765 0.0
H1342 H 0.51925 0.42501 0.29975 0.0
H1343 H 0.558 0.44851 0.26843 0.0
H1344 H 0.60279 0.52611 0.34081 0.0
H1345 H 0.6318 0.53412 0.36093 0.0
H1346 H 0.60071 0.51349 0.37726 0.0
H1347 H 0.61322 0.47833 0.38578 0.0
H1348 H 0.6443 0.49882 0.36937 0.0
H1349 H 0.6237 0.46681 0.35513 0.0
H1350 H 0.60215 0.47491 0.24603 0.0
H1351 H 0.64745 0.50578 0.2331 0.0
H1352 H 0.6635 0.53064 0.32398 0.0
C1353 C 0.56314 0.4608 0.3531 0.0
C1354 C 0.53922 0.44284 0.34048 0.0
C1355 C 0.53745 0.43871 0.30977 0.0
C1356 C 0.55934 0.45187 0.29188 0.0
C1357 C 0.58269 0.46939 0.30503 0.0
C1358 C 0.58464 0.47418 0.33488 0.0
C1359 C 0.6117 0.49479 0.34336 0.0
C1360 C 0.61174 0.51853 0.35635 0.0
C1361 C 0.62395 0.48403 0.36467 0.0
C1362 C 0.62476 0.50072 0.31365 0.0
C1363 C 0.60777 0.48561 0.2919 0.0
C1364 C 0.61557 0.487 0.26282 0.0
C1365 C 0.64135 0.50449 0.25573 0.0
C1366 C 0.6589 0.52066 0.27752 0.0
C1367 C 0.65043 0.51868 0.30684 0.0
H1368 H 0.5536 0.09072 0.30813 0.0
H1369 H 0.57892 0.12875 0.39278 0.0
H1370 H 0.55196 0.14863 0.38599 0.0
H1371 H 0.55062 0.14395 0.27109 0.0
H1372 H 0.52211 0.12259 0.25042 0.0
H1373 H 0.54468 0.11236 0.26079 0.0
H1374 H 0.50791 0.07201 0.28623 0.0
H1375 H 0.48525 0.08207 0.27588 0.0
H1376 H 0.48867 0.07602 0.31392 0.0
H1377 H 0.51972 0.16125 0.37279 0.0
H1378 H 0.48437 0.16674 0.353 0.0
H1379 H 0.48067 0.12279 0.27562 0.0
C1380 C 0.55367 0.10345 0.32508 0.0
C1381 C 0.56846 0.10814 0.35101 0.0
C1382 C 0.56787 0.12483 0.37271 0.0
C1383 C 0.55263 0.1363 0.36904 0.0
C1384 C 0.53819 0.13116 0.34343 0.0
C1385 C 0.53862 0.11528 0.32169 0.0
C1386 C 0.52041 0.11231 0.2968 0.0
C1387 C 0.53535 0.12347 0.26807 0.0
C1388 C 0.49931 0.08392 0.293 0.0
C1389 C 0.50929 0.12853 0.30834 0.0
C1390 C 0.51994 0.13924 0.33527 0.0
C1391 C 0.51156 0.15338 0.35148 0.0
C1392 C 0.49149 0.15638 0.34011 0.0
C1393 C 0.48022 0.14559 0.31264 0.0
C1394 C 0.48952 0.13184 0.2963 0.0
H1395 H 0.68724 0.54363 0.83997 0.0
H1396 H 0.70158 0.54225 0.93313 0.0
H1397 H 0.74708 0.5553 0.92242 0.0
H1398 H 0.72817 0.51771 0.81601 0.0
H1399 H 0.73864 0.53738 0.78341 0.0
H1400 H 0.70722 0.5273 0.79861 0.0
H1401 H 0.71839 0.57502 0.80147 0.0
H1402 H 0.7499 0.58526 0.78652 0.0
H1403 H 0.74681 0.59799 0.82119 0.0
H1404 H 0.79213 0.57255 0.90142 0.0
H1405 H 0.83171 0.58753 0.8716 0.0
H1406 H 0.78686 0.57436 0.79213 0.0
C1407 C 0.69989 0.54583 0.85811 0.0
C1408 C 0.69093 0.54202 0.88741 0.0
C1409 C 0.70802 0.54494 0.91052 0.0
C1410 C 0.73391 0.55247 0.90465 0.0
C1411 C 0.74224 0.55651 0.87551 0.0
C1412 C 0.72559 0.55282 0.8526 0.0
C1413 C 0.73921 0.55818 0.82323 0.0
C1414 C 0.72762 0.53368 0.8042 0.0
C1415 C 0.73854 0.58044 0.80717 0.0
C1416 C 0.76628 0.56593 0.83317 0.0
C1417 C 0.76773 0.5651 0.86342 0.0
C1418 C 0.79111 0.57287 0.87772 0.0
C1419 C 0.8135 0.58147 0.86064 0.0
C1420 C 0.81227 0.58184 0.8296 0.0
C1421 C 0.78829 0.57388 0.81581 0.0
H1422 H 0.45475 0.21939 0.77549 0.0
H1423 H 0.47363 0.27518 0.84535 0.0
H1424 H 0.48769 0.25083 0.87668 0.0
H1425 H 0.42682 0.16555 0.82073 0.0
H1426 H 0.43824 0.14704 0.80113 0.0
H1427 H 0.43381 0.17084 0.78202 0.0
H1428 H 0.48133 0.19361 0.76455 0.0
H1429 H 0.48586 0.16966 0.78335 0.0
H1430 H 0.50684 0.2034 0.79121 0.0
H1431 H 0.49479 0.21866 0.90221 0.0
H1432 H 0.49558 0.18053 0.92081 0.0
H1433 H 0.47113 0.14398 0.83531 0.0
C1434 C 0.46278 0.22685 0.79698 0.0
C1435 C 0.46377 0.24938 0.80796 0.0
C1436 C 0.47324 0.25816 0.83657 0.0
C1437 C 0.48122 0.24447 0.85446 0.0
C1438 C 0.47937 0.2219 0.84346 0.0
C1439 C 0.47051 0.21312 0.81537 0.0
C1440 C 0.46812 0.18694 0.8102 0.0
C1441 C 0.44008 0.16639 0.80311 0.0
C1442 C 0.48665 0.1885 0.78588 0.0
C1443 C 0.47638 0.18219 0.83998 0.0
C1444 C 0.48302 0.20278 0.85864 0.0
C1445 C 0.48999 0.20254 0.88773 0.0
C1446 C 0.49024 0.18068 0.89812 0.0
C1447 C 0.48347 0.15923 0.87954 0.0
C1448 C 0.47663 0.16014 0.84998 0.0
H1449 H 0.87433 0.31613 0.89576 0.0
H1450 H 0.86921 0.36548 0.82971 0.0
H1451 H 0.83369 0.32739 0.80536 0.0
H1452 H 0.86677 0.26798 0.84649 0.0
H1453 H 0.84817 0.24114 0.87068 0.0
H1454 H 0.8704 0.27231 0.88573 0.0
H1455 H 0.83357 0.27162 0.91633 0.0
H1456 H 0.81123 0.2403 0.90153 0.0
H1457 H 0.8046 0.26643 0.89811 0.0
H1458 H 0.80126 0.2843 0.78613 0.0
H1459 H 0.77476 0.23857 0.77209 0.0
H1460 H 0.80226 0.21647 0.84887 0.0
C1461 C 0.86511 0.31884 0.8767 0.0
C1462 C 0.87404 0.34364 0.8648 0.0
C1463 C 0.86234 0.34656 0.83922 0.0
C1464 C 0.84216 0.32508 0.82531 0.0
C1465 C 0.83413 0.30077 0.83707 0.0
C1466 C 0.84523 0.29745 0.86214 0.0
C1467 C 0.83467 0.26904 0.86844 0.0
C1468 C 0.85629 0.26223 0.86778 0.0
C1469 C 0.82015 0.2614 0.89785 0.0
C1470 C 0.81631 0.25702 0.84275 0.0
C1471 C 0.81604 0.27569 0.82522 0.0
C1472 C 0.80114 0.26945 0.7998 0.0
C1473 C 0.78617 0.24341 0.79198 0.0
C1474 C 0.78642 0.2239 0.80932 0.0
C1475 C 0.80163 0.2309 0.83514 0.0
H1476 H 0.43929 0.23179 0.31532 0.0
H1477 H 0.43705 0.1945 0.39775 0.0
H1478 H 0.45665 0.2366 0.4231 0.0
H1479 H 0.49926 0.29259 0.32811 0.0
H1480 H 0.48726 0.31191 0.31161 0.0
H1481 H 0.47545 0.27928 0.29929 0.0
H1482 H 0.42852 0.26838 0.30995 0.0
H1483 H 0.44018 0.30097 0.32215 0.0
H1484 H 0.42028 0.27434 0.34606 0.0
H1485 H 0.47584 0.28268 0.43974 0.0
H1486 H 0.48864 0.32845 0.44742 0.0
H1487 H 0.47555 0.33527 0.35495 0.0
C1488 C 0.44329 0.23262 0.33862 0.0
C1489 C 0.43691 0.20999 0.35458 0.0
C1490 C 0.44182 0.21166 0.38515 0.0
C1491 C 0.45309 0.23549 0.3997 0.0
C1492 C 0.45902 0.25747 0.38344 0.0
C1493 C 0.45399 0.25623 0.35364 0.0
C1494 C 0.46016 0.28237 0.34185 0.0
C1495 C 0.48182 0.29211 0.31886 0.0
C1496 C 0.43584 0.28145 0.32927 0.0
C1497 C 0.46921 0.29839 0.36968 0.0
C1498 C 0.46887 0.28379 0.39332 0.0
C1499 C 0.47621 0.29433 0.42138 0.0
C1500 C 0.48355 0.32037 0.42553 0.0
C1501 C 0.48306 0.33541 0.40183 0.0
C1502 C 0.4761 0.32426 0.37352 0.0
H1503 H 0.70912 0.14889 0.39688 0.0
H1504 H 0.66247 0.14914 0.32412 0.0
H1505 H 0.70147 0.18328 0.29979 0.0
H1506 H 0.75736 0.21855 0.39607 0.0
H1507 H 0.78386 0.21322 0.40394 0.0
H1508 H 0.752 0.19092 0.41738 0.0
H1509 H 0.75406 0.15331 0.39188 0.0
H1510 H 0.78581 0.17549 0.3782 0.0
H1511 H 0.76051 0.15506 0.35303 0.0
H1512 H 0.74522 0.21543 0.28202 0.0
H1513 H 0.79146 0.24304 0.27106 0.0
H1514 H 0.81073 0.22091 0.35396 0.0
C1515 C 0.70714 0.15664 0.37618 0.0
C1516 C 0.68279 0.14667 0.3625 0.0
C1517 C 0.68096 0.15666 0.335 0.0
C1518 C 0.70298 0.17607 0.32105 0.0
C1519 C 0.72678 0.18513 0.33473 0.0
C1520 C 0.72909 0.17578 0.36163 0.0
C1521 C 0.75725 0.18753 0.37032 0.0
C1522 C 0.76295 0.20351 0.39861 0.0
C1523 C 0.76485 0.1666 0.37354 0.0
C1524 C 0.77031 0.20466 0.34396 0.0
C1525 C 0.7523 0.20318 0.3239 0.0
C1526 C 0.75953 0.21687 0.29761 0.0
C1527 C 0.78588 0.23251 0.29158 0.0
C1528 C 0.80479 0.23418 0.3116 0.0
C1529 C 0.79679 0.22006 0.33818 0.0
H1530 H 0.85445 0.52921 0.3555 0.0
H1531 H 0.84393 0.54368 0.44637 0.0
H1532 H 0.81146 0.55547 0.43078 0.0
H1533 H 0.85005 0.58032 0.32394 0.0
H1534 H 0.83249 0.56258 0.29186 0.0
H1535 H 0.85373 0.55404 0.31039 0.0
H1536 H 0.81614 0.5071 0.31651 0.0
H1537 H 0.79479 0.51545 0.29781 0.0
H1538 H 0.78666 0.50129 0.33392 0.0
H1539 H 0.78352 0.56998 0.40424 0.0
H1540 H 0.75921 0.58186 0.3697 0.0
H1541 H 0.78607 0.55494 0.29675 0.0
C1542 C 0.84512 0.5346 0.37219 0.0
C1543 C 0.85175 0.53564 0.40215 0.0
C1544 C 0.83902 0.54264 0.42332 0.0
C1545 C 0.82065 0.54945 0.41464 0.0
C1546 C 0.81493 0.54866 0.3848 0.0
C1547 C 0.8265 0.54098 0.36398 0.0
C1548 C 0.8172 0.54191 0.33331 0.0
C1549 C 0.83971 0.56084 0.31374 0.0
C1550 C 0.80284 0.51482 0.31959 0.0
C1551 C 0.79895 0.55186 0.33998 0.0
C1552 C 0.79801 0.55581 0.36977 0.0
C1553 C 0.78378 0.56654 0.38095 0.0
C1554 C 0.77014 0.57332 0.36117 0.0
C1555 C 0.77054 0.56902 0.33064 0.0
C1556 C 0.78501 0.55797 0.32004 0.0
H1557 H 0.54658 0.10167 0.81883 0.0
H1558 H 0.56781 0.12637 0.9092 0.0
H1559 H 0.61338 0.14123 0.89749 0.0
H1560 H 0.59036 0.0786 0.80706 0.0
H1561 H 0.59799 0.09016 0.76983 0.0
H1562 H 0.56703 0.0818 0.78512 0.0
H1563 H 0.57488 0.12741 0.77271 0.0
H1564 H 0.60585 0.1359 0.75731 0.0
H1565 H 0.60361 0.15539 0.78606 0.0
H1566 H 0.65601 0.15078 0.87689 0.0
H1567 H 0.69367 0.15748 0.84769 0.0
H1568 H 0.64532 0.12904 0.77006 0.0
C1569 C 0.56085 0.11029 0.83611 0.0
C1570 C 0.55367 0.11282 0.86494 0.0
C1571 C 0.5729 0.12435 0.88692 0.0
C1572 C 0.59881 0.13279 0.88052 0.0
C1573 C 0.60522 0.12987 0.85194 0.0
C1574 C 0.58688 0.11919 0.82999 0.0
C1575 C 0.59898 0.11849 0.80104 0.0
C1576 C 0.58793 0.0906 0.79013 0.0
C1577 C 0.59563 0.13531 0.77792 0.0
C1578 C 0.62692 0.13012 0.81027 0.0
C1579 C 0.63006 0.13638 0.83977 0.0
C1580 C 0.65388 0.14625 0.85369 0.0
C1581 C 0.6751 0.14989 0.83698 0.0
C1582 C 0.67239 0.14397 0.80663 0.0
C1583 C 0.648 0.13409 0.79314 0.0
H1584 H 0.93424 0.46766 0.80055 0.0
H1585 H 0.89037 0.44308 0.88174 0.0
H1586 H 0.86742 0.46592 0.86765 0.0
H1587 H 0.94237 0.53075 0.79948 0.0
H1588 H 0.93907 0.53178 0.76024 0.0
H1589 H 0.95114 0.51223 0.77579 0.0
H1590 H 0.91526 0.47218 0.74887 0.0
H1591 H 0.90293 0.49161 0.73342 0.0
H1592 H 0.88195 0.46317 0.75436 0.0
H1593 H 0.85127 0.49346 0.84705 0.0
H1594 H 0.8436 0.52531 0.82125 0.0
H1595 H 0.89635 0.5316 0.75237 0.0
C1596 C 0.9197 0.46695 0.81527 0.0
C1597 C 0.91415 0.4535 0.84229 0.0
C1598 C 0.89504 0.4532 0.86096 0.0
C1599 C 0.88177 0.46604 0.85309 0.0
C1600 C 0.88765 0.47905 0.82639 0.0
C1601 C 0.90616 0.47969 0.80772 0.0
C1602 C 0.90944 0.49612 0.78087 0.0
C1603 C 0.93715 0.51908 0.779 0.0
C1604 C 0.90194 0.47979 0.75271 0.0
C1605 C 0.89023 0.50496 0.7877 0.0
C1606 C 0.87779 0.49469 0.81403 0.0
C1607 C 0.8605 0.50127 0.82617 0.0
C1608 C 0.85619 0.51926 0.81136 0.0
C1609 C 0.86885 0.53023 0.78457 0.0
C1610 C 0.88579 0.52273 0.77232 0.0
H1611 H 0.56277 0.45412 0.8671 0.0
H1612 H 0.59625 0.50024 0.78882 0.0
H1613 H 0.57101 0.46162 0.75798 0.0
H1614 H 0.55917 0.39505 0.84097 0.0
H1615 H 0.52838 0.37436 0.85797 0.0
H1616 H 0.55026 0.40524 0.87404 0.0
H1617 H 0.51469 0.41783 0.87188 0.0
H1618 H 0.49272 0.38702 0.85577 0.0
H1619 H 0.49933 0.41632 0.83729 0.0
H1620 H 0.5425 0.41844 0.73579 0.0
H1621 H 0.51017 0.37379 0.72298 0.0
H1622 H 0.49282 0.35574 0.81545 0.0
C1623 C 0.565 0.45597 0.84347 0.0
C1624 C 0.58163 0.48007 0.83027 0.0
C1625 C 0.58365 0.48193 0.79931 0.0
C1626 C 0.56946 0.46011 0.78165 0.0
C1627 C 0.55311 0.43667 0.79532 0.0
C1628 C 0.55059 0.43446 0.82548 0.0
C1629 C 0.53056 0.40729 0.83445 0.0
C1630 C 0.54284 0.39475 0.85295 0.0
C1631 C 0.50799 0.40712 0.85081 0.0
C1632 C 0.52224 0.39458 0.80458 0.0
C1633 C 0.53575 0.41186 0.78238 0.0
C1634 C 0.53176 0.40473 0.75295 0.0
C1635 C 0.51337 0.37928 0.74593 0.0
C1636 C 0.49892 0.36126 0.76821 0.0
C1637 C 0.50347 0.36909 0.79794 0.0
H1638 H 0.55376 0.71148 0.60754 0.0
H1639 H 0.52516 0.66177 0.68391 0.0
H1640 H 0.52958 0.69824 0.71368 0.0
H1641 H 0.60234 0.76545 0.64629 0.0
H1642 H 0.59951 0.78936 0.62513 0.0
H1643 H 0.59133 0.75883 0.60876 0.0
H1644 H 0.54587 0.75116 0.5958 0.0
H1645 H 0.55393 0.78171 0.61214 0.0
H1646 H 0.52582 0.75261 0.62441 0.0
H1647 H 0.53808 0.73965 0.73547 0.0
H1648 H 0.55374 0.78469 0.74964 0.0
H1649 H 0.58004 0.80924 0.66031 0.0
C1650 C 0.54801 0.7083 0.63039 0.0
C1651 C 0.5388 0.68383 0.64346 0.0
C1652 C 0.53214 0.6804 0.67357 0.0
C1653 C 0.53448 0.70093 0.69058 0.0
C1654 C 0.54388 0.7249 0.67724 0.0
C1655 C 0.55083 0.72884 0.64794 0.0
C1656 C 0.56256 0.75712 0.63987 0.0
C1657 C 0.5906 0.76835 0.6294 0.0
C1658 C 0.54605 0.76086 0.61668 0.0
C1659 C 0.56131 0.76841 0.66927 0.0
C1660 C 0.55003 0.74933 0.69031 0.0
C1661 C 0.5469 0.75479 0.7192 0.0
C1662 C 0.55585 0.78049 0.727 0.0
C1663 C 0.56816 0.80059 0.70612 0.0
C1664 C 0.57069 0.79435 0.67678 0.0
H1665 H 0.22107 0.78928 0.64376 0.0
H1666 H 0.23509 0.79593 0.73773 0.0
H1667 H 0.28108 0.82707 0.72899 0.0
H1668 H 0.28151 0.79218 0.62418 0.0
H1669 H 0.28579 0.81036 0.59105 0.0
H1670 H 0.25378 0.7887 0.60454 0.0
H1671 H 0.24383 0.82613 0.60508 0.0
H1672 H 0.27581 0.8479 0.59161 0.0
H1673 H 0.26475 0.85521 0.62513 0.0
H1674 H 0.3247 0.85941 0.71053 0.0
H1675 H 0.36444 0.88838 0.68314 0.0
H1676 H 0.3236 0.85859 0.60088 0.0
C1677 C 0.23386 0.79731 0.66244 0.0
C1678 C 0.22451 0.79028 0.69144 0.0
C1679 C 0.24186 0.80097 0.71534 0.0
C1680 C 0.268 0.81873 0.71061 0.0
C1681 C 0.27663 0.82531 0.68182 0.0
C1682 C 0.26022 0.81471 0.65809 0.0
C1683 C 0.27473 0.82474 0.62937 0.0
C1684 C 0.2739 0.80267 0.61122 0.0
C1685 C 0.26415 0.83936 0.61177 0.0
C1686 C 0.30173 0.84288 0.64074 0.0
C1687 C 0.30227 0.84305 0.67108 0.0
C1688 C 0.32462 0.85921 0.68677 0.0
C1689 C 0.34705 0.87564 0.67105 0.0
C1690 C 0.3471 0.87548 0.63997 0.0
C1691 C 0.32417 0.85874 0.62465 0.0
H1692 H 0.2262 0.44544 0.70037 0.0
H1693 H 0.25886 0.43794 0.6184 0.0
H1694 H 0.2322 0.45175 0.59106 0.0
H1695 H 0.16199 0.41971 0.67295 0.0
H1696 H 0.15497 0.44087 0.69419 0.0
H1697 H 0.17792 0.4322 0.70764 0.0
H1698 H 0.21253 0.48054 0.71195 0.0
H1699 H 0.18968 0.48937 0.6985 0.0
H1700 H 0.22025 0.50112 0.68023 0.0
H1701 H 0.20219 0.46596 0.57263 0.0
H1702 H 0.16832 0.47689 0.56342 0.0
H1703 H 0.1528 0.47308 0.65703 0.0
C1704 C 0.22794 0.44703 0.67669 0.0
C1705 C 0.24477 0.44087 0.66146 0.0
C1706 C 0.24613 0.44262 0.63046 0.0
C1707 C 0.23114 0.45052 0.61477 0.0
C1708 C 0.21465 0.45631 0.63039 0.0
C1709 C 0.21274 0.45446 0.66061 0.0
C1710 C 0.19236 0.46038 0.67179 0.0
C1711 C 0.17052 0.43689 0.68757 0.0
C1712 C 0.20443 0.48428 0.6918 0.0
C1713 C 0.18308 0.46581 0.64309 0.0
C1714 C 0.19648 0.46362 0.61958 0.0
C1715 C 0.19155 0.46772 0.59084 0.0
C1716 C 0.17226 0.47398 0.58588 0.0
C1717 C 0.15782 0.47585 0.60949 0.0
C1718 C 0.16345 0.47179 0.63852 0.0
H1719 H 0.37746 0.88004 0.24326 0.0
H1720 H 0.33068 0.86128 0.1645 0.0
H1721 H 0.36853 0.87024 0.13428 0.0
H1722 H 0.43293 0.93365 0.21182 0.0
H1723 H 0.45602 0.92818 0.23124 0.0
H1724 H 0.42481 0.91793 0.24712 0.0
H1725 H 0.41674 0.87134 0.25169 0.0
H1726 H 0.44797 0.88147 0.23585 0.0
H1727 H 0.41944 0.85523 0.21957 0.0
H1728 H 0.4111 0.88156 0.11255 0.0
H1729 H 0.45672 0.89798 0.09995 0.0
H1730 H 0.47731 0.91273 0.19221 0.0
C1731 C 0.37519 0.87744 0.21969 0.0
C1732 C 0.35113 0.86967 0.20615 0.0
C1733 C 0.34895 0.86712 0.17523 0.0
C1734 C 0.3703 0.87208 0.15793 0.0
C1735 C 0.39382 0.87997 0.17183 0.0
C1736 C 0.39653 0.88292 0.20196 0.0
C1737 C 0.42446 0.89352 0.21102 0.0
C1738 C 0.43518 0.91989 0.22619 0.0
C1739 C 0.42731 0.87423 0.2307 0.0
C1740 C 0.43697 0.89611 0.18128 0.0
C1741 C 0.41882 0.8878 0.15907 0.0
C1742 C 0.42552 0.88815 0.12973 0.0
C1743 C 0.4515 0.89746 0.12281 0.0
C1744 C 0.47063 0.90669 0.14506 0.0
C1745 C 0.46316 0.90589 0.17471 0.0
H1746 H 0.14498 0.4772 0.18746 0.0
H1747 H 0.17679 0.52085 0.26786 0.0
H1748 H 0.1718 0.55626 0.24782 0.0
H1749 H 0.17378 0.53291 0.13716 0.0
H1750 H 0.14568 0.51985 0.11385 0.0
H1751 H 0.1535 0.49848 0.13341 0.0
H1752 H 0.10806 0.47569 0.15707 0.0
H1753 H 0.10008 0.4969 0.13754 0.0
H1754 H 0.09724 0.49459 0.17696 0.0
H1755 H 0.16005 0.58519 0.22157 0.0
H1756 H 0.14205 0.60602 0.19006 0.0
H1757 H 0.11899 0.54505 0.12573 0.0
C1758 C 0.1512 0.49434 0.20068 0.0
C1759 C 0.16133 0.4962 0.22925 0.0
C1760 C 0.16899 0.5189 0.24594 0.0
C1761 C 0.16633 0.53921 0.23471 0.0
C1762 C 0.15611 0.53669 0.20666 0.0
C1763 C 0.14871 0.51491 0.18977 0.0
C1764 C 0.13705 0.5167 0.16087 0.0
C1765 C 0.15349 0.51701 0.13478 0.0
C1766 C 0.10894 0.49466 0.15796 0.0
C1767 C 0.13853 0.5426 0.16451 0.0
C1768 C 0.14977 0.55383 0.19106 0.0
C1769 C 0.15168 0.57687 0.20048 0.0
C1770 C 0.14148 0.58857 0.18251 0.0
C1771 C 0.12981 0.57737 0.15538 0.0
C1772 C 0.12859 0.5543 0.14603 0.0
H1773 H 0.54079 0.64263 0.22372 0.0
H1774 H 0.53207 0.68844 0.15585 0.0
H1775 H 0.49726 0.64884 0.13303 0.0
H1776 H 0.53474 0.5939 0.17637 0.0
H1777 H 0.51737 0.56753 0.20155 0.0
H1778 H 0.53876 0.59942 0.21543 0.0
H1779 H 0.50151 0.59782 0.24603 0.0
H1780 H 0.48001 0.56578 0.23245 0.0
H1781 H 0.47185 0.59077 0.22802 0.0
H1782 H 0.46608 0.60476 0.11543 0.0
H1783 H 0.4409 0.55855 0.10319 0.0
H1784 H 0.47108 0.54047 0.18077 0.0
C1785 C 0.5309 0.64424 0.20461 0.0
C1786 C 0.53862 0.66849 0.19177 0.0
C1787 C 0.5261 0.66997 0.16611 0.0
C1788 C 0.50634 0.64762 0.15304 0.0
C1789 C 0.49954 0.6239 0.16571 0.0
C1790 C 0.51141 0.62197 0.19089 0.0
C1791 C 0.50211 0.59395 0.19826 0.0
C1792 C 0.52459 0.58839 0.19787 0.0
C1793 C 0.48803 0.58665 0.22795 0.0
C1794 C 0.48355 0.58055 0.17305 0.0
C1795 C 0.48214 0.59823 0.15481 0.0
C1796 C 0.46686 0.59069 0.12965 0.0
C1797 C 0.45265 0.56436 0.12286 0.0
C1798 C 0.45398 0.54582 0.14097 0.0
C1799 C 0.46961 0.55413 0.16648 0.0
H1800 H 0.12881 0.64551 0.7363 0.0
H1801 H 0.17849 0.69583 0.66747 0.0
H1802 H 0.17483 0.65824 0.64091 0.0
H1803 H 0.1504 0.59694 0.73278 0.0
H1804 H 0.11825 0.57021 0.73836 0.0
H1805 H 0.12747 0.60126 0.75413 0.0
H1806 H 0.08886 0.60097 0.72807 0.0
H1807 H 0.07965 0.57005 0.71206 0.0
H1808 H 0.08558 0.59681 0.68879 0.0
H1809 H 0.16334 0.61563 0.61976 0.0
H1810 H 0.14427 0.5702 0.6048 0.0
H1811 H 0.10038 0.54628 0.686 0.0
C1812 C 0.13949 0.64856 0.71609 0.0
C1813 C 0.15429 0.67358 0.70411 0.0
C1814 C 0.16726 0.67683 0.6771 0.0
C1815 C 0.16532 0.65561 0.66187 0.0
C1816 C 0.15011 0.63113 0.67378 0.0
C1817 C 0.13739 0.6274 0.70026 0.0
C1818 C 0.12055 0.59879 0.70671 0.0
C1819 C 0.12972 0.59136 0.73466 0.0
C1820 C 0.09197 0.59122 0.70903 0.0
C1821 C 0.1255 0.58715 0.67953 0.0
C1822 C 0.14285 0.60623 0.66104 0.0
C1823 C 0.1499 0.60049 0.63416 0.0
C1824 C 0.13888 0.57456 0.62582 0.0
C1825 C 0.12082 0.55455 0.64417 0.0
C1826 C 0.11422 0.56106 0.67151 0.0
H1827 H 0.35295 0.48739 0.67037 0.0
H1828 H 0.36577 0.49342 0.76449 0.0
H1829 H 0.41177 0.52569 0.75639 0.0
H1830 H 0.41154 0.49218 0.64912 0.0
H1831 H 0.41612 0.51164 0.61706 0.0
H1832 H 0.38404 0.49002 0.63026 0.0
H1833 H 0.37491 0.52792 0.63395 0.0
H1834 H 0.40689 0.54965 0.62041 0.0
H1835 H 0.39645 0.55621 0.65485 0.0
H1836 H 0.45737 0.55359 0.73743 0.0
H1837 H 0.49779 0.57972 0.70948 0.0
H1838 H 0.45427 0.55806 0.62815 0.0
C1839 C 0.36537 0.49579 0.68929 0.0
C1840 C 0.35587 0.48793 0.71807 0.0
C1841 C 0.37265 0.49936 0.74228 0.0
C1842 C 0.39881 0.51756 0.73788 0.0
C1843 C 0.40771 0.52447 0.70916 0.0
C1844 C 0.39135 0.51436 0.68531 0.0
C1845 C 0.40565 0.52507 0.6567 0.0
C1846 C 0.40425 0.50343 0.63715 0.0
C1847 C 0.39536 0.54064 0.64053 0.0
C1848 C 0.43273 0.5424 0.6681 0.0
C1849 C 0.4336 0.54158 0.6984 0.0
C1850 C 0.45683 0.55473 0.71375 0.0
C1851 C 0.47968 0.56936 0.69772 0.0
C1852 C 0.47903 0.57105 0.66677 0.0
C1853 C 0.45522 0.55741 0.65186 0.0
H1854 H 0.53272 0.87125 0.69567 0.0
H1855 H 0.52889 0.89202 0.78602 0.0
H1856 H 0.49964 0.90807 0.77095 0.0
H1857 H 0.53393 0.92432 0.66192 0.0
H1858 H 0.51376 0.90655 0.63129 0.0
H1859 H 0.533 0.89529 0.64942 0.0
H1860 H 0.49214 0.85103 0.65902 0.0
H1861 H 0.47278 0.86205 0.6406 0.0
H1862 H 0.46494 0.84981 0.67757 0.0
H1863 H 0.47492 0.92639 0.74471 0.0
H1864 H 0.45208 0.94039 0.7106 0.0
H1865 H 0.46963 0.90469 0.63812 0.0
C1866 C 0.5254 0.87882 0.71237 0.0
C1867 C 0.53307 0.88045 0.74202 0.0
C1868 C 0.52308 0.89042 0.76323 0.0
C1869 C 0.50659 0.8997 0.75484 0.0
C1870 C 0.49991 0.89838 0.72526 0.0
C1871 C 0.50859 0.88768 0.70446 0.0
C1872 C 0.49873 0.8886 0.6741 0.0
C1873 C 0.52119 0.90465 0.65295 0.0
C1874 C 0.48109 0.86125 0.66213 0.0
C1875 C 0.4836 0.90204 0.68089 0.0
C1876 C 0.48469 0.90773 0.71047 0.0
C1877 C 0.47357 0.92162 0.72161 0.0
C1878 C 0.46079 0.92963 0.70207 0.0
C1879 C 0.45892 0.92341 0.67183 0.0
C1880 C 0.47042 0.90935 0.66122 0.0
H1881 H 0.2172 0.4287 0.16505 0.0
H1882 H 0.24693 0.46249 0.25074 0.0
H1883 H 0.29084 0.47487 0.23479 0.0
H1884 H 0.25961 0.40337 0.15298 0.0
H1885 H 0.26419 0.41106 0.1144 0.0
H1886 H 0.23471 0.40478 0.13216 0.0
H1887 H 0.24193 0.44906 0.11464 0.0
H1888 H 0.27144 0.45547 0.0968 0.0
H1889 H 0.27178 0.47794 0.12342 0.0
H1890 H 0.33094 0.48165 0.21132 0.0
H1891 H 0.36607 0.48501 0.18003 0.0
H1892 H 0.31207 0.44944 0.10799 0.0
C1893 C 0.23299 0.43876 0.18037 0.0
C1894 C 0.22856 0.44459 0.20918 0.0
C1895 C 0.24976 0.45789 0.22853 0.0
C1896 C 0.27483 0.46498 0.21973 0.0
C1897 C 0.27856 0.45894 0.19133 0.0
C1898 C 0.25837 0.44638 0.17177 0.0
C1899 C 0.26806 0.44257 0.14239 0.0
C1900 C 0.25592 0.41373 0.13506 0.0
C1901 C 0.263 0.45713 0.11786 0.0
C1902 C 0.29673 0.45468 0.14875 0.0
C1903 C 0.30221 0.46381 0.17723 0.0
C1904 C 0.32699 0.47481 0.18887 0.0
C1905 C 0.34679 0.47655 0.17096 0.0
C1906 C 0.34183 0.46764 0.14157 0.0
C1907 C 0.31646 0.45672 0.13027 0.0
H1908 H 0.56906 0.86686 0.08393 0.0
H1909 H 0.516 0.8593 0.15315 0.0
H1910 H 0.52038 0.82415 0.17541 0.0
H1911 H 0.55034 0.79721 0.07954 0.0
H1912 H 0.58319 0.80461 0.07423 0.0
H1913 H 0.57301 0.8265 0.06104 0.0
H1914 H 0.60973 0.86356 0.09079 0.0
H1915 H 0.61986 0.84177 0.10428 0.0
H1916 H 0.6119 0.85977 0.12978 0.0
H1917 H 0.53323 0.7933 0.19284 0.0
H1918 H 0.55397 0.76795 0.20498 0.0
H1919 H 0.60038 0.79569 0.12576 0.0
C1920 C 0.55779 0.85715 0.10321 0.0
C1921 C 0.54185 0.86536 0.11666 0.0
C1922 C 0.52809 0.85301 0.14247 0.0
C1923 C 0.53043 0.83303 0.15522 0.0
C1924 C 0.54681 0.82578 0.14202 0.0
C1925 C 0.56027 0.83734 0.11659 0.0
C1926 C 0.5784 0.82739 0.10866 0.0
C1927 C 0.57077 0.81307 0.07911 0.0
C1928 C 0.60664 0.84944 0.10837 0.0
C1929 C 0.57338 0.80893 0.13394 0.0
C1930 C 0.55484 0.80816 0.15266 0.0
C1931 C 0.54758 0.79349 0.17822 0.0
C1932 C 0.55959 0.77922 0.18497 0.0
C1933 C 0.57883 0.77976 0.16634 0.0
C1934 C 0.58563 0.79471 0.14034 0.0
H1935 H 0.22542 0.77874 0.21879 0.0
H1936 H 0.24285 0.82919 0.14351 0.0
H1937 H 0.21642 0.79143 0.11199 0.0
H1938 H 0.22486 0.72538 0.18141 0.0
H1939 H 0.19776 0.70093 0.20163 0.0
H1940 H 0.21872 0.73178 0.21834 0.0
H1941 H 0.17947 0.73782 0.22848 0.0
H1942 H 0.15838 0.70697 0.21185 0.0
H1943 H 0.15872 0.73547 0.1985 0.0
H1944 H 0.19007 0.74861 0.08828 0.0
H1945 H 0.16149 0.70323 0.07419 0.0
H1946 H 0.15749 0.67997 0.16517 0.0
C1947 C 0.22371 0.78174 0.19564 0.0
C1948 C 0.23631 0.80685 0.18347 0.0
C1949 C 0.23332 0.81013 0.15323 0.0
C1950 C 0.21844 0.7888 0.13515 0.0
C1951 C 0.20627 0.76434 0.14776 0.0
C1952 C 0.20837 0.76065 0.17735 0.0
C1953 C 0.19229 0.7323 0.1854 0.0
C1954 C 0.20944 0.722 0.1974 0.0
C1955 C 0.17095 0.72789 0.20736 0.0
C1956 C 0.18109 0.72066 0.15563 0.0
C1957 C 0.18973 0.73954 0.13424 0.0
C1958 C 0.18297 0.73367 0.10485 0.0
C1959 C 0.16682 0.70782 0.09706 0.0
C1960 C 0.15719 0.68812 0.11859 0.0
C1961 C 0.16436 0.69468 0.14831 0.0
H1962 H 0.31017 0.2832 0.0511 0.0
H1963 H 0.31194 0.2546 0.13799 0.0
H1964 H 0.34265 0.29899 0.1544 0.0
H1965 H 0.37749 0.33637 0.04851 0.0
H1966 H 0.36918 0.35806 0.03054 0.0
H1967 H 0.34985 0.32379 0.02451 0.0
H1968 H 0.30905 0.32502 0.04109 0.0
H1969 H 0.32824 0.35923 0.04717 0.0
H1970 H 0.30878 0.33836 0.0765 0.0
H1971 H 0.37203 0.34635 0.16184 0.0
H1972 H 0.39487 0.39397 0.16128 0.0
H1973 H 0.37137 0.39233 0.07075 0.0
C1974 C 0.31749 0.28635 0.07337 0.0
C1975 C 0.30911 0.26562 0.09325 0.0
C1976 C 0.31835 0.27036 0.12248 0.0
C1977 C 0.33585 0.29543 0.13193 0.0
C1978 C 0.34357 0.31559 0.11198 0.0
C1979 C 0.3345 0.31141 0.0834 0.0
C1980 C 0.34392 0.33672 0.0673 0.0
C1981 C 0.36114 0.33885 0.04117 0.0
C1982 C 0.32114 0.34002 0.05745 0.0
C1983 C 0.35946 0.3557 0.09137 0.0
C1984 C 0.35941 0.34308 0.11677 0.0
C1985 C 0.37226 0.35647 0.14206 0.0
C1986 C 0.38523 0.38351 0.14152 0.0
C1987 C 0.38484 0.39684 0.11603 0.0
C1988 C 0.37195 0.38267 0.0906 0.0
H1989 H 0.62173 0.97347 0.06834 0.0
H1990 H 0.62458 0.99502 0.15995 0.0
H1991 H 0.67195 0.02165 0.15681 0.0
H1992 H 0.67829 0.9681 0.06912 0.0
H1993 H 0.68888 0.98141 0.03294 0.0
H1994 H 0.65503 0.96488 0.04182 0.0
H1995 H 0.65241 1.00513 0.02636 0.0
H1996 H 0.68629 0.02182 0.01746 0.0
H1997 H 0.67384 0.03588 0.04307 0.0
H1998 H 0.71862 0.04362 0.14501 0.0
H1999 H 0.76238 0.0605 0.12514 0.0
H2000 H 0.73026 0.02638 0.04036 0.0
C2001 C 0.63229 0.98391 0.08771 0.0
C2002 C 0.61936 0.98212 0.11445 0.0
C2003 C 0.63396 0.99608 0.13925 0.0
C2004 C 0.6609 0.01129 0.13766 0.0
C2005 C 0.67299 0.01254 0.11108 0.0
C2006 C 0.65923 0.99935 0.08648 0.0
C2007 C 0.67716 1.00361 0.06081 0.0
C2008 C 0.67469 0.97797 0.05058 0.0
C2009 C 0.67212 0.01744 0.03542 0.0
C2010 C 0.7032 0.02094 0.07499 0.0
C2011 C 0.7002 0.0258 0.10401 0.0
C2012 C 0.72122 0.04017 0.12227 0.0
C2013 C 0.746 0.0496 0.11077 0.0
C2014 C 0.74971 0.04486 0.08118 0.0
C2015 C 0.72799 0.03064 0.06291 0.0
H2016 H 1.00106 0.70174 0.03417 0.0
H2017 H 0.96293 0.69381 0.11771 0.0
H2018 H 0.98016 0.66673 0.13625 0.0
H2019 H 0.99384 0.6373 0.03178 0.0
H2020 H 0.02553 0.64851 0.01668 0.0
H2021 H 1.00852 0.66557 0.00877 0.0
H2022 H 0.04716 0.70782 0.02864 0.0
H2023 H 0.06428 0.6909 0.03657 0.0
H2024 H 0.05889 0.70842 0.06527 0.0
H2025 H 1.00154 0.64136 0.1462 0.0
H2026 H 0.029 0.62168 0.1488 0.0
H2027 H 0.05604 0.64776 0.06003 0.0
C2028 C 0.99614 0.69398 0.0562 0.0
C2029 C 0.98055 0.69964 0.07451 0.0
C2030 C 0.97489 0.68968 0.10341 0.0
C2031 C 0.98445 0.67419 0.11407 0.0
C2032 C 0.99994 0.6691 0.09567 0.0
C2033 C 1.00603 0.67885 0.06747 0.0
C2034 C 0.02463 0.67185 0.05318 0.0
C2035 C 1.01239 0.65479 0.02599 0.0
C2036 C 0.05026 0.6962 0.04547 0.0
C2037 C 0.02809 0.6568 0.07785 0.0
C2038 C 0.01332 0.65519 0.10193 0.0
C2039 C 0.01321 0.64245 0.1275 0.0
C2040 C 0.02887 0.63129 0.12872 0.0
C2041 C 0.04473 0.63318 0.10464 0.0
C2042 C 0.04415 0.64598 0.07879 0.0
H2043 H 0.28065 0.30409 0.42199 0.0
H2044 H 0.28926 0.31544 0.51642 0.0
H2045 H 0.33651 0.3406 0.51062 0.0
H2046 H 0.33608 0.29706 0.41013 0.0
H2047 H 0.34486 0.31448 0.37589 0.0
H2048 H 0.3116 0.29734 0.38729 0.0
H2049 H 0.30937 0.33932 0.38275 0.0
H2050 H 0.34265 0.35661 0.37135 0.0
H2051 H 0.33231 0.36775 0.40248 0.0
H2052 H 0.38241 0.36306 0.49516 0.0
H2053 H 0.42474 0.38312 0.47075 0.0
H2054 H 0.38693 0.35895 0.3859 0.0
C2055 C 0.29248 0.31184 0.44144 0.0
C2056 C 0.28127 0.30773 0.46969 0.0
C2057 C 0.2974 0.31836 0.49458 0.0
C2058 C 0.32426 0.33266 0.49152 0.0
C2059 C 0.33467 0.33634 0.46342 0.0
C2060 C 0.31936 0.32641 0.43877 0.0
C2061 C 0.33558 0.33345 0.41109 0.0
C2062 C 0.3318 0.30913 0.39517 0.0
C2063 C 0.32962 0.35029 0.39072 0.0
C2064 C 0.36241 0.3487 0.42411 0.0
C2065 C 0.36135 0.35 0.45435 0.0
C2066 C 0.38352 0.36232 0.47149 0.0
C2067 C 0.40747 0.37359 0.4574 0.0
C2068 C 0.40911 0.37265 0.42642 0.0
C2069 C 0.38624 0.36018 0.40957 0.0
H2070 H 0.64726 0.03182 0.41119 0.0
H2071 H 0.64459 0.03022 0.31598 0.0
H2072 H 0.6698 1.00764 0.31539 0.0
H2073 H 0.71077 0.04351 0.41946 0.0
H2074 H 0.70376 0.02291 0.45104 0.0
H2075 H 0.68477 0.03799 0.44385 0.0
H2076 H 0.64303 0.9933 0.44415 0.0
H2077 H 0.66188 0.97807 0.45154 0.0
H2078 H 0.6406 0.96817 0.42024 0.0
H2079 H 0.69869 0.98866 0.32556 0.0
H2080 H 0.72517 0.97102 0.34558 0.0
H2081 H 0.70627 0.98274 0.4341 0.0
C2082 C 0.6518 0.02655 0.39019 0.0
C2083 C 0.6441 0.03286 0.3636 0.0
C2084 C 0.65024 0.02547 0.3366 0.0
C2085 C 0.66461 0.01274 0.33607 0.0
C2086 C 0.67227 1.00718 0.36274 0.0
C2087 C 0.6657 0.01349 0.3893 0.0
C2088 C 0.67617 1.00538 0.41489 0.0
C2089 C 0.69499 0.02885 0.43339 0.0
C2090 C 0.6541 0.98501 0.43381 0.0
C2091 C 0.6901 0.9939 0.39863 0.0
C2092 C 0.6878 0.99526 0.36856 0.0
C2093 C 0.70029 0.98715 0.34906 0.0
C2094 C 0.71536 0.97728 0.36061 0.0
C2095 C 0.71754 0.9753 0.39135 0.0
C2096 C 0.70461 0.98363 0.4105 0.0
H2097 H 0.0316 0.73113 0.41304 0.0
H2098 H 0.05412 0.72311 0.50142 0.0
H2099 H 0.03227 0.67613 0.49503 0.0
H2100 H 0.96911 0.67606 0.41516 0.0
H2101 H 0.96917 0.66653 0.37762 0.0
H2102 H 0.98818 0.69994 0.38797 0.0
H2103 H 0.02914 0.70133 0.36719 0.0
H2104 H 1.01025 0.66787 0.35679 0.0
H2105 H 0.03808 0.67841 0.38011 0.0
H2106 H 1.00583 0.63066 0.48144 0.0
H2107 H 0.97582 0.58797 0.46081 0.0
H2108 H 0.97052 0.62379 0.38028 0.0
C2109 C 0.03215 0.71949 0.4309 0.0
C2110 C 0.04462 0.73087 0.45775 0.0
C2111 C 0.04473 0.71493 0.48067 0.0
C2112 C 0.03244 0.68819 0.47724 0.0
C2113 C 0.0202 0.67759 0.4507 0.0
C2114 C 0.01995 0.6926 0.42784 0.0
C2115 C 1.00432 0.67592 0.40212 0.0
C2116 C 0.98133 0.67985 0.39533 0.0
C2117 C 0.02148 0.6812 0.37494 0.0
C2118 C 0.99541 0.64921 0.41447 0.0
C2119 C 1.005 0.65083 0.4425 0.0
C2120 C 0.99843 0.62908 0.45939 0.0
C2121 C 0.98131 0.60496 0.44752 0.0
C2122 C 0.97104 0.60269 0.41897 0.0
C2123 C 0.9785 0.62506 0.40197 0.0
H2124 H 0.66494 0.63307 0.87087 0.0
H2125 H 0.63243 0.59766 0.95498 0.0
H2126 H 0.65023 0.6407 0.97746 0.0
H2127 H 0.72417 0.68332 0.90026 0.0
H2128 H 0.72719 0.70754 0.87453 0.0
H2129 H 0.71016 0.67403 0.86414 0.0
H2130 H 0.66979 0.67742 0.85123 0.0
H2131 H 0.68673 0.71098 0.86156 0.0
H2132 H 0.65625 0.6891 0.87848 0.0
H2133 H 0.67161 0.68673 0.99113 0.0
H2134 H 0.69805 0.73376 0.99644 0.0
H2135 H 0.71935 0.74037 0.90431 0.0
C2136 C 0.66133 0.63448 0.89391 0.0
C2137 C 0.64718 0.61212 0.91121 0.0
C2138 C 0.64325 0.6146 0.9414 0.0
C2139 C 0.65317 0.63893 0.95433 0.0
C2140 C 0.66724 0.6606 0.93683 0.0
C2141 C 0.67156 0.65872 0.90736 0.0
C2142 C 0.68879 0.6852 0.89415 0.0
C2143 C 0.71408 0.68766 0.88259 0.0
C2144 C 0.67453 0.69101 0.86992 0.0
C2145 C 0.69352 0.70214 0.92087 0.0
C2146 C 0.68058 0.68747 0.94509 0.0
C2147 C 0.68184 0.69848 0.97236 0.0
C2148 C 0.69692 0.72526 0.9751 0.0
C2149 C 0.71082 0.74079 0.9508 0.0
C2150 C 0.70898 0.72901 0.92328 0.0
H2151 H 0.29565 0.98573 0.96826 0.0
H2152 H 0.26212 0.96019 0.88179 0.0
H2153 H 0.30578 0.98138 0.85989 0.0
H2154 H 0.34478 0.0484 0.94438 0.0
H2155 H 0.36881 0.05033 0.96974 0.0
H2156 H 0.3351 0.0315 0.97893 0.0
H2157 H 0.33999 0.9913 0.98696 0.0
H2158 H 0.37374 0.01003 0.97784 0.0
H2159 H 0.35309 0.98077 0.95795 0.0
H2160 H 0.35297 1.00488 0.84754 0.0
H2161 H 0.40041 0.03218 0.84493 0.0
H2162 H 0.40314 0.0455 0.93889 0.0
C2163 C 0.29762 0.98438 0.94478 0.0
C2164 C 0.27569 0.97113 0.92665 0.0
C2165 C 0.2788 0.97023 0.89596 0.0
C2166 C 0.30347 0.98212 0.88337 0.0
C2167 C 0.32477 0.99524 0.90176 0.0
C2168 C 0.32212 0.99675 0.93175 0.0
C2169 C 0.34807 0.01353 0.94626 0.0
C2170 C 0.34925 0.03735 0.96067 0.0
C2171 C 0.35407 0.99797 0.96857 0.0
C2172 C 0.36571 0.02099 0.9198 0.0
C2173 C 0.3519 0.01 0.8944 0.0
C2174 C 0.36399 0.01371 0.86725 0.0
C2175 C 0.39093 0.0292 0.86599 0.0
C2176 C 0.40542 0.04108 0.89165 0.0
C2177 C 0.39255 0.03687 0.91886 0.0
H2178 H 0.03981 0.32081 0.94728 0.0
H2179 H 0.05006 0.29645 0.86105 0.0
H2180 H 0.03134 0.32088 0.83819 0.0
H2181 H 0.97811 0.31449 0.93151 0.0
H2182 H 0.98377 0.34189 0.95348 0.0
H2183 H 0.99934 0.32374 0.96283 0.0
H2184 H 0.04391 0.36555 0.96051 0.0
H2185 H 0.02848 0.38381 0.95103 0.0
H2186 H 0.05321 0.3848 0.92756 0.0
H2187 H 1.01231 0.3489 0.82471 0.0
H2188 H 0.99021 0.37447 0.82197 0.0
H2189 H 0.98956 0.37779 0.91711 0.0
C2190 C 0.03825 0.32078 0.92358 0.0
C2191 C 0.04654 0.30692 0.90589 0.0
C2192 C 0.04378 0.30693 0.875 0.0
C2193 C 0.0333 0.32085 0.86182 0.0
C2194 C 0.0253 0.33433 0.87986 0.0
C2195 C 0.02731 0.33411 0.9101 0.0
C2196 C 0.01593 0.34897 0.92458 0.0
C2197 C 0.99292 0.33121 0.94425 0.0
C2198 C 0.03662 0.37216 0.94194 0.0
C2199 C 1.00727 0.35763 0.89779 0.0
C2200 C 0.01319 0.34933 0.87217 0.0
C2201 C 1.00746 0.35538 0.84463 0.0
C2202 C 0.99501 0.36999 0.84327 0.0
C2203 C 0.98805 0.37797 0.86929 0.0
C2204 C 0.99445 0.37177 0.89683 0.0
H2205 H 0.74238 0.71488 0.60105 0.0
H2206 H 0.73591 0.70593 0.50629 0.0
H2207 H 0.68853 0.68197 0.5104 0.0
H2208 H 0.68879 0.65083 0.61725 0.0
H2209 H 0.67806 0.66126 0.64866 0.0
H2210 H 0.71165 0.6782 0.63851 0.0
H2211 H 0.71083 0.721 0.63574 0.0
H2212 H 0.67724 0.70419 0.64586 0.0
H2213 H 0.68743 0.72291 0.61254 0.0
H2214 H 0.64237 0.66132 0.52401 0.0
H2215 H 0.59931 0.64161 0.54686 0.0
H2216 H 0.6346 0.66044 0.63328 0.0
C2217 C 0.73092 0.70787 0.58123 0.0
C2218 C 0.74278 0.71234 0.55333 0.0
C2219 C 0.72723 0.70265 0.52788 0.0
C2220 C 0.7003 0.68908 0.52997 0.0
C2221 C 0.68919 0.685 0.55771 0.0
C2222 C 0.7039 0.69377 0.58295 0.0
C2223 C 0.68686 0.68604 0.61004 0.0
C2224 C 0.69163 0.66801 0.62978 0.0
C2225 C 0.69083 0.70996 0.62704 0.0
C2226 C 0.66033 0.67187 0.59597 0.0
C2227 C 0.66224 0.67178 0.56573 0.0
C2228 C 0.64057 0.661 0.54767 0.0
C2229 C 0.61623 0.64995 0.56084 0.0
C2230 C 0.6137 0.64939 0.59177 0.0
C2231 C 0.63604 0.66033 0.60958 0.0
H2232 H 0.32271 0.04339 0.59302 0.0
H2233 H 0.31777 0.03383 0.49835 0.0
H2234 H 0.3441 0.01257 0.50114 0.0
H2235 H 0.3893 0.05723 0.59961 0.0
H2236 H 0.38339 0.04025 0.63397 0.0
H2237 H 0.36486 0.05536 0.62427 0.0
H2238 H 0.32256 0.01176 0.63116 0.0
H2239 H 0.34093 0.99651 0.64079 0.0
H2240 H 0.31801 0.98384 0.61105 0.0
H2241 H 0.36771 0.98904 0.51494 0.0
H2242 H 0.38982 0.96803 0.53816 0.0
H2243 H 0.38175 0.99554 0.62343 0.0
C2244 C 0.3273 0.03696 0.57284 0.0
C2245 C 0.31811 0.04013 0.54545 0.0
C2246 C 0.32468 0.03165 0.51953 0.0
C2247 C 0.33957 0.01952 0.52092 0.0
C2248 C 0.34808 0.01644 0.54834 0.0
C2249 C 0.34247 0.02524 0.57378 0.0
C2250 C 0.35386 0.0195 0.60049 0.0
C2251 C 0.37406 0.04458 0.61546 0.0
C2252 C 0.33257 1.00185 0.62214 0.0
C2253 C 0.36634 1.00563 0.58619 0.0
C2254 C 0.36266 1.00394 0.55611 0.0
C2255 C 0.37105 0.99059 0.53839 0.0
C2256 C 0.38348 0.97865 0.55178 0.0
C2257 C 0.38771 0.98042 0.5825 0.0
C2258 C 0.37921 0.9943 0.59982 0.0
H2259 H 0.04783 0.4047 0.5631 0.0
H2260 H 0.0344 0.40059 0.65713 0.0
H2261 H 1.0079 0.35317 0.65373 0.0
H2262 H 0.98357 0.35349 0.5435 0.0
H2263 H 0.99483 0.34139 0.51418 0.0
H2264 H 1.01269 0.37505 0.52393 0.0
H2265 H 0.05378 0.37166 0.53172 0.0
H2266 H 0.03605 0.338 0.52203 0.0
H2267 H 0.05278 0.34782 0.55669 0.0
H2268 H 0.98477 0.30622 0.64063 0.0
H2269 H 0.96433 0.26288 0.61836 0.0
H2270 H 0.99075 0.29718 0.53231 0.0
C2271 C 0.03929 0.39383 0.58298 0.0
C2272 C 0.04328 0.40638 0.61043 0.0
C2273 C 0.03159 0.39145 0.63587 0.0
C2274 C 0.01654 0.36449 0.63416 0.0
C2275 C 0.0131 0.35273 0.60681 0.0
C2276 C 0.02392 0.3669 0.58162 0.0
C2277 C 0.017 0.34948 0.55492 0.0
C2278 C 1.00107 0.35519 0.53283 0.0
C2279 C 0.04135 0.35189 0.5405 0.0
C2280 C 1.00083 0.32326 0.56911 0.0
C2281 C 0.99897 0.32562 0.59908 0.0
C2282 C 0.9859 0.30414 0.61715 0.0
C2283 C 0.97442 0.27959 0.60429 0.0
C2284 C 0.97581 0.27663 0.57358 0.0
C2285 C 0.98908 0.29884 0.55579 0.0
H2286 H 0.96602 0.65176 0.79013 0.0
H2287 H 0.93116 0.638 0.70361 0.0
H2288 H 0.9744 0.66186 0.68114 0.0
H2289 H 0.01997 0.7159 0.77617 0.0
H2290 H 0.04247 0.71072 0.79727 0.0
H2291 H 1.00873 0.69382 0.80674 0.0
H2292 H 1.00773 0.65017 0.80231 0.0
H2293 H 0.04145 0.66693 0.79284 0.0
H2294 H 0.01828 0.64241 0.7687 0.0
H2295 H 0.02152 0.68742 0.66798 0.0
H2296 H 0.0692 0.71019 0.66504 0.0
H2297 H 0.07326 0.70509 0.75977 0.0
C2298 C 0.96753 0.654 0.7665 0.0
C2299 C 0.94526 0.64317 0.74862 0.0
C2300 C 0.94799 0.64611 0.71772 0.0
C2301 C 0.97246 0.65972 0.70475 0.0
C2302 C 0.99405 0.67004 0.72293 0.0
C2303 C 0.99185 0.66716 0.75311 0.0
C2304 C 0.01816 0.67898 0.76751 0.0
C2305 C 0.02259 0.70118 0.78814 0.0
C2306 C 0.0216 0.65839 0.78379 0.0
C2307 C 0.03543 0.68891 0.74072 0.0
C2308 C 0.02117 0.68384 0.71524 0.0
C2309 C 0.03291 0.69144 0.68778 0.0
C2310 C 0.05997 0.70439 0.68631 0.0
C2311 C 0.07491 0.70926 0.71211 0.0
C2312 C 0.06236 0.70145 0.73961 0.0
H2313 H 0.33546 0.37538 0.68794 0.0
H2314 H 0.30138 0.37097 0.77341 0.0
H2315 H 0.32061 0.34584 0.79233 0.0
H2316 H 0.32947 0.31147 0.68891 0.0
H2317 H 0.36035 0.32227 0.67178 0.0
H2318 H 0.34245 0.33843 0.66393 0.0
H2319 H 0.38167 0.38195 0.67992 0.0
H2320 H 0.39967 0.36593 0.68784 0.0
H2321 H 0.39546 0.38478 0.71587 0.0
H2322 H 0.3434 0.32205 0.80248 0.0
H2323 H 0.371 0.30257 0.80458 0.0
H2324 H 0.39301 0.32373 0.71348 0.0
C2325 C 0.33185 0.3688 0.7105 0.0
C2326 C 0.31683 0.37494 0.72922 0.0
C2327 C 0.31287 0.36649 0.75876 0.0
C2328 C 0.32361 0.35212 0.76967 0.0
C2329 C 0.33852 0.34659 0.75086 0.0
C2330 C 0.34288 0.35476 0.72199 0.0
C2331 C 0.36099 0.34735 0.70716 0.0
C2332 C 0.3475 0.32877 0.68142 0.0
C2333 C 0.38592 0.37144 0.69711 0.0
C2334 C 0.36612 0.33387 0.73231 0.0
C2335 C 0.35265 0.33346 0.75712 0.0
C2336 C 0.35406 0.3222 0.78321 0.0
C2337 C 0.36981 0.31115 0.78413 0.0
C2338 C 0.38423 0.31161 0.7592 0.0
C2339 C 0.38227 0.32311 0.7329 0.0
H2340 H 0.64328 0.96285 0.71241 0.0
H2341 H 0.66079 0.93436 0.79157 0.0
H2342 H 0.69063 0.97902 0.80751 0.0
H2343 H 0.70784 0.02063 0.70193 0.0
H2344 H 0.69463 0.04046 0.6904 0.0
H2345 H 0.67721 1.00628 0.68319 0.0
H2346 H 0.63726 1.00244 0.71003 0.0
H2347 H 0.65459 0.03653 0.71746 0.0
H2348 H 0.64053 0.01391 0.74727 0.0
H2349 H 0.71637 0.02616 0.81644 0.0
H2350 H 0.73524 0.07333 0.81896 0.0
H2351 H 0.69948 0.07192 0.73544 0.0
C2352 C 0.65395 0.96616 0.73269 0.0
C2353 C 0.65013 0.94534 0.75066 0.0
C2354 C 0.66368 0.95019 0.77752 0.0
C2355 C 0.68069 0.97544 0.78669 0.0
C2356 C 0.68371 0.99564 0.76888 0.0
C2357 C 0.67069 0.99139 0.74251 0.0
C2358 C 0.67573 0.01664 0.72898 0.0
C2359 C 0.68969 0.02127 0.69937 0.0
C2360 C 0.65053 0.01741 0.72576 0.0
C2361 C 0.69325 0.03558 0.75208 0.0
C2362 C 0.69788 0.02304 0.77466 0.0
C2363 C 0.71303 0.03626 0.79882 0.0
C2364 C 0.72365 0.06306 0.80006 0.0
C2365 C 0.71882 0.07634 0.77745 0.0
C2366 C 0.70352 0.06234 0.75309 0.0
H2367 H 0.31918 0.95947 0.22505 0.0
H2368 H 0.30978 0.92304 0.31001 0.0
H2369 H 0.32777 0.96547 0.33427 0.0
H2370 H 0.38048 0.01556 0.24206 0.0
H2371 H 0.37415 0.03745 0.22133 0.0
H2372 H 0.35934 1.00407 0.21063 0.0
H2373 H 0.31422 1.00002 0.21378 0.0
H2374 H 0.3289 0.03337 0.22459 0.0
H2375 H 0.30447 0.00862 0.2474 0.0
H2376 H 0.34548 0.01136 0.34945 0.0
H2377 H 0.36603 0.05862 0.35447 0.0
H2378 H 0.36716 0.06609 0.25959 0.0
C2379 C 0.32082 0.96049 0.24876 0.0
C2380 C 0.31297 0.93801 0.26572 0.0
C2381 C 0.31575 0.94006 0.29664 0.0
C2382 C 0.32582 0.96404 0.31061 0.0
C2383 C 0.3334 0.98584 0.29332 0.0
C2384 C 0.33139 0.9844 0.26306 0.0
C2385 C 0.34222 0.01101 0.24963 0.0
C2386 C 0.36543 0.01739 0.22974 0.0
C2387 C 0.32119 0.01339 0.23286 0.0
C2388 C 0.35048 0.02756 0.2771 0.0
C2389 C 0.34487 0.01258 0.30205 0.0
C2390 C 0.35012 0.02334 0.33008 0.0
C2391 C 0.3617 0.05018 0.3327 0.0
C2392 C 0.36828 0.06601 0.30744 0.0
C2393 C 0.36251 0.05448 0.27929 0.0
H2394 H 0.95878 0.31929 0.2436 0.0
H2395 H 0.95778 0.3055 0.33727 0.0
H2396 H 1.00544 0.32845 0.33767 0.0
H2397 H 0.0135 0.31015 0.22725 0.0
H2398 H 0.02627 0.33482 0.1994 0.0
H2399 H 0.99206 0.31704 0.20636 0.0
H2400 H 0.99227 0.35987 0.21531 0.0
H2401 H 0.02647 0.37778 0.20847 0.0
H2402 H 0.01376 0.38222 0.24247 0.0
H2403 H 0.05283 0.35574 0.32874 0.0
H2404 H 0.09733 0.38233 0.31035 0.0
H2405 H 0.0682 0.37575 0.22167 0.0
C2406 C 0.96861 0.32102 0.26416 0.0
C2407 C 0.95459 0.31073 0.29047 0.0
C2408 C 0.96812 0.31317 0.31687 0.0
C2409 C 0.99518 0.32623 0.31732 0.0
C2410 C 1.00841 0.33633 0.29108 0.0
C2411 C 0.99563 0.33356 0.26489 0.0
C2412 C 0.01454 0.34604 0.23976 0.0
C2413 C 1.0114 0.3258 0.21684 0.0
C2414 C 1.01158 0.36777 0.22568 0.0
C2415 C 0.03997 0.35667 0.25602 0.0
C2416 C 0.03591 0.351 0.28565 0.0
C2417 C 0.05626 0.35999 0.30555 0.0
C2418 C 0.08144 0.37515 0.29492 0.0
C2419 C 0.08613 0.38086 0.26461 0.0
C2420 C 0.06512 0.37129 0.24487 0.0
H2421 H 0.6991 0.64517 0.27699 0.0
H2422 H 0.71215 0.62049 0.1923 0.0
H2423 H 0.69551 0.64598 0.16748 0.0
H2424 H 0.63929 0.64063 0.25764 0.0
H2425 H 0.64478 0.66821 0.27914 0.0
H2426 H 0.65936 0.64948 0.28995 0.0
H2427 H 0.70448 0.69071 0.2891 0.0
H2428 H 0.69003 0.70956 0.27818 0.0
H2429 H 0.71528 0.70997 0.2562 0.0
H2430 H 0.67729 0.67443 0.15198 0.0
H2431 H 0.65546 0.7002 0.14736 0.0
H2432 H 0.65241 0.70395 0.24232 0.0
C2433 C 0.69868 0.64533 0.25322 0.0
C2434 C 0.70707 0.63103 0.23654 0.0
C2435 C 0.70579 0.63133 0.20549 0.0
C2436 C 0.69649 0.64584 0.1912 0.0
C2437 C 0.68831 0.65971 0.2083 0.0
C2438 C 0.68907 0.65934 0.23865 0.0
C2439 C 0.67772 0.67461 0.25201 0.0
C2440 C 0.65387 0.65719 0.27078 0.0
C2441 C 0.6981 0.69758 0.26993 0.0
C2442 C 0.67036 0.68356 0.22448 0.0
C2443 C 0.67693 0.67511 0.19945 0.0
C2444 C 0.67202 0.68112 0.17144 0.0
C2445 C 0.65972 0.69581 0.16901 0.0
C2446 C 0.65215 0.70394 0.19445 0.0
C2447 C 0.65781 0.69787 0.22245 0.0
loop_
_geom_bond_atom_site_label_1
_geom_bond_atom_site_label_2
_geom_bond_distance
_geom_bond_site_symmetry_2
_ccdc_geom_bond_type
C0 O2 1.247 . S
C0 O4 1.258 . S
C1 O8 1.247 . S
C1 O9 1.258 . S
O2 C0 1.247 . S
O2 Zn3 2.028 . S
Zn3 O2 2.028 . S
Zn3 O7 2.035 . S
Zn3 O9 2.035 . S
Zn3 O10 2.028 . S
O4 C0 1.258 . S
O4 Zn5 2.035 . S
Zn5 O4 2.035 . S
Zn5 O6 2.028 . S
Zn5 O8 2.028 . S
Zn5 O11 2.035 . S
O6 Zn5 2.028 . S
O6 C12 1.247 . S
O7 Zn3 2.035 . S
O7 C12 1.258 . S
O8 C1 1.247 . S
O8 Zn5 2.028 . S
O9 C1 1.258 . S
O9 Zn3 2.035 . S
O10 Zn3 2.028 . S
O10 C13 1.247 . S
O11 Zn5 2.035 . S
O11 C13 1.258 . S
C12 O6 1.247 . S
C12 O7 1.258 . S
C13 O10 1.247 . S
C13 O11 1.258 . S
C14 O16 1.247 . S
C14 O18 1.258 . S
C15 O22 1.247 . S
C15 O23 1.258 . S
O16 C14 1.247 . S
O16 Zn17 2.028 . S
Zn17 O16 2.028 . S
Zn17 O21 2.035 . S
Zn17 O23 2.035 . S
Zn17 O24 2.028 . S
O18 C14 1.258 . S
O18 Zn19 2.035 . S
Zn19 O18 2.035 . S
Zn19 O20 2.028 . S
Zn19 O22 2.028 . S
Zn19 O25 2.035 . S
O20 Zn19 2.028 . S
O20 C26 1.247 . S
O21 Zn17 2.035 . S
O21 C26 1.258 . S
O22 C15 1.247 . S
O22 Zn19 2.028 . S
O23 C15 1.258 . S
O23 Zn17 2.035 . S
O24 Zn17 2.028 . S
O24 C27 1.247 . S
O25 Zn19 2.035 . S
O25 C27 1.258 . S
C26 O20 1.247 . S
C26 O21 1.258 . S
C27 O24 1.247 . S
C27 O25 1.258 . S
C28 O30 1.247 . S
C28 O32 1.258 . S
C29 O36 1.247 . S
C29 O37 1.258 . S
O30 C28 1.247 . S
O30 Zn31 2.028 . S
Zn31 O30 2.028 . S
Zn31 O35 2.035 . S
Zn31 O37 2.035 . S
Zn31 O38 2.028 . S
O32 C28 1.258 . S
O32 Zn33 2.035 . S
Zn33 O32 2.035 . S
Zn33 O34 2.028 . S
Zn33 O36 2.028 . S
Zn33 O39 2.035 . S
O34 Zn33 2.028 . S
O34 C40 1.247 . S
O35 Zn31 2.035 . S
O35 C40 1.258 . S
O36 C29 1.247 . S
O36 Zn33 2.028 . S
O37 C29 1.258 . S
O37 Zn31 2.035 . S
O38 Zn31 2.028 . S
O38 C41 1.247 . S
O39 Zn33 2.035 . S
O39 C41 1.258 . S
C40 O34 1.247 . S
C40 O35 1.258 . S
C41 O38 1.247 . S
C41 O39 1.258 . S
C42 O44 1.247 . S
C42 O46 1.258 . S
C43 O50 1.247 . S
C43 O51 1.258 . S
O44 C42 1.247 . S
O44 Zn45 2.028 . S
Zn45 O44 2.028 . S
Zn45 O49 2.035 . S
Zn45 O51 2.035 . S
Zn45 O52 2.028 . S
O46 C42 1.258 . S
O46 Zn47 2.035 . S
Zn47 O46 2.035 . S
Zn47 O48 2.028 . S
Zn47 O50 2.028 . S
Zn47 O53 2.035 . S
O48 Zn47 2.028 . S
O48 C54 1.247 . S
O49 Zn45 2.035 . S
O49 C54 1.258 . S
O50 C43 1.247 . S
O50 Zn47 2.028 . S
O51 C43 1.258 . S
O51 Zn45 2.035 . S
O52 Zn45 2.028 . S
O52 C55 1.247 . S
O53 Zn47 2.035 . S
O53 C55 1.258 . S
C54 O48 1.247 . S
C54 O49 1.258 . S
C55 O52 1.247 . S
C55 O53 1.258 . S
C56 O58 1.247 . S
C56 O60 1.258 . S
C57 O64 1.247 . S
C57 O65 1.258 . S
O58 C56 1.247 . S
O58 Zn59 2.028 . S
Zn59 O58 2.028 . S
Zn59 O63 2.035 . S
Zn59 O65 2.035 . S
Zn59 O66 2.028 . S
O60 C56 1.258 . S
O60 Zn61 2.035 . S
Zn61 O60 2.035 . S
Zn61 O62 2.028 . S
Zn61 O64 2.028 . S
Zn61 O67 2.035 . S
O62 Zn61 2.028 . S
O62 C68 1.247 . S
O63 Zn59 2.035 . S
O63 C68 1.258 . S
O64 C57 1.247 . S
O64 Zn61 2.028 . S
O65 C57 1.258 . S
O65 Zn59 2.035 . S
O66 Zn59 2.028 . S
O66 C69 1.247 . S
O67 Zn61 2.035 . S
O67 C69 1.258 . S
C68 O62 1.247 . S
C68 O63 1.258 . S
C69 O66 1.247 . S
C69 O67 1.258 . S
C70 O72 1.247 . S
C70 O74 1.258 . S
C71 O78 1.247 . S
C71 O79 1.258 . S
O72 C70 1.247 . S
O72 Zn73 2.028 . S
Zn73 O72 2.028 . S
Zn73 O77 2.035 . S
Zn73 O79 2.035 . S
Zn73 O80 2.028 . S
O74 C70 1.258 . S
O74 Zn75 2.035 . S
Zn75 O74 2.035 . S
Zn75 O76 2.028 . S
Zn75 O78 2.028 . S
Zn75 O81 2.035 . S
O76 Zn75 2.028 . S
O76 C82 1.247 . S
O77 Zn73 2.035 . S
O77 C82 1.258 . S
O78 C71 1.247 . S
O78 Zn75 2.028 . S
O79 C71 1.258 . S
O79 Zn73 2.035 . S
O80 Zn73 2.028 . S
O80 C83 1.247 . S
O81 Zn75 2.035 . S
O81 C83 1.258 . S
C82 O76 1.247 . S
C82 O77 1.258 . S
C83 O80 1.247 . S
C83 O81 1.258 . S
C84 O86 1.247 . S
C84 O88 1.258 . S
C85 O92 1.247 . S
C85 O93 1.258 . S
O86 C84 1.247 . S
O86 Zn87 2.028 . S
Zn87 O86 2.028 . S
Zn87 O91 2.035 . S
Zn87 O93 2.035 . S
Zn87 O94 2.028 . S
O88 C84 1.258 . S
O88 Zn89 2.035 . S
Zn89 O88 2.035 . S
Zn89 O90 2.028 . S
Zn89 O92 2.028 . S
Zn89 O95 2.035 . S
O90 Zn89 2.028 . S
O90 C96 1.247 . S
O91 Zn87 2.035 . S
O91 C96 1.258 . S
O92 C85 1.247 . S
O92 Zn89 2.028 . S
O93 C85 1.258 . S
O93 Zn87 2.035 . S
O94 Zn87 2.028 . S
O94 C97 1.247 . S
O95 Zn89 2.035 . S
O95 C97 1.258 . S
C96 O90 1.247 . S
C96 O91 1.258 . S
C97 O94 1.247 . S
C97 O95 1.258 . S
C98 O100 1.247 . S
C98 O102 1.258 . S
C99 O106 1.247 . S
C99 O107 1.258 . S
O100 C98 1.247 . S
O100 Zn101 2.028 . S
Zn101 O100 2.028 . S
Zn101 O105 2.035 . S
Zn101 O107 2.035 . S
Zn101 O108 2.028 . S
O102 C98 1.258 . S
O102 Zn103 2.035 . S
Zn103 O102 2.035 . S
Zn103 O104 2.028 . S
Zn103 O106 2.028 . S
Zn103 O109 2.035 . S
O104 Zn103 2.028 . S
O104 C110 1.247 . S
O105 Zn101 2.035 . S
O105 C110 1.258 . S
O106 C99 1.247 . S
O106 Zn103 2.028 . S
O107 C99 1.258 . S
O107 Zn101 2.035 . S
O108 Zn101 2.028 . S
O108 C111 1.247 . S
O109 Zn103 2.035 . S
O109 C111 1.258 . S
C110 O104 1.247 . S
C110 O105 1.258 . S
C111 O108 1.247 . S
C111 O109 1.258 . S
C112 O114 1.247 . S
C112 O116 1.258 . S
C113 O120 1.247 . S
C113 O121 1.258 . S
O114 C112 1.247 . S
O114 Zn115 2.028 . S
Zn115 O114 2.028 . S
Zn115 O119 2.035 . S
Zn115 O121 2.035 . S
Zn115 O122 2.028 . S
O116 C112 1.258 . S
O116 Zn117 2.035 . S
Zn117 O116 2.035 . S
Zn117 O118 2.028 . S
Zn117 O120 2.028 . S
Zn117 O123 2.035 . S
O118 Zn117 2.028 . S
O118 C124 1.247 . S
O119 Zn115 2.035 . S
O119 C124 1.258 . S
O120 C113 1.247 . S
O120 Zn117 2.028 . S
O121 C113 1.258 . S
O121 Zn115 2.035 . S
O122 Zn115 2.028 . S
O122 C125 1.247 . S
O123 Zn117 2.035 . S
O123 C125 1.258 . S
C124 O118 1.247 . S
C124 O119 1.258 . S
C125 O122 1.247 . S
C125 O123 1.258 . S
C126 O128 1.247 . S
C126 O130 1.258 . S
C127 O134 1.247 . S
C127 O135 1.258 . S
O128 C126 1.247 . S
O128 Zn129 2.028 . S
Zn129 O128 2.028 . S
Zn129 O133 2.035 . S
Zn129 O135 2.035 . S
Zn129 O136 2.028 . S
O130 C126 1.258 . S
O130 Zn131 2.035 . S
Zn131 O130 2.035 . S
Zn131 O132 2.028 . S
Zn131 O134 2.028 . S
Zn131 O137 2.035 . S
O132 Zn131 2.028 . S
O132 C138 1.247 . S
O133 Zn129 2.035 . S
O133 C138 1.258 . S
O134 C127 1.247 . S
O134 Zn131 2.028 . S
O135 C127 1.258 . S
O135 Zn129 2.035 . S
O136 Zn129 2.028 . S
O136 C139 1.247 . S
O137 Zn131 2.035 . S
O137 C139 1.258 . S
C138 O132 1.247 . S
C138 O133 1.258 . S
C139 O136 1.247 . S
C139 O137 1.258 . S
C140 O142 1.247 . S
C140 O144 1.258 . S
C141 O148 1.247 . S
C141 O149 1.258 . S
O142 C140 1.247 . S
O142 Zn143 2.028 . S
Zn143 O142 2.028 . S
Zn143 O147 2.035 . S
Zn143 O149 2.035 . S
Zn143 O150 2.028 . S
O144 C140 1.258 . S
O144 Zn145 2.035 . S
Zn145 O144 2.035 . S
Zn145 O146 2.028 . S
Zn145 O148 2.028 . S
Zn145 O151 2.035 . S
O146 Zn145 2.028 . S
O146 C152 1.247 . S
O147 Zn143 2.035 . S
O147 C152 1.258 . S
O148 C141 1.247 . S
O148 Zn145 2.028 . S
O149 C141 1.258 . S
O149 Zn143 2.035 . S
O150 Zn143 2.028 . S
O150 C153 1.247 . S
O151 Zn145 2.035 . S
O151 C153 1.258 . S
C152 O146 1.247 . S
C152 O147 1.258 . S
C153 O150 1.247 . S
C153 O151 1.258 . S
C154 O156 1.247 . S
C154 O158 1.258 . S
C155 O162 1.247 . S
C155 O163 1.258 . S
O156 C154 1.247 . S
O156 Zn157 2.028 . S
Zn157 O156 2.028 . S
Zn157 O161 2.035 . S
Zn157 O163 2.035 . S
Zn157 O164 2.028 . S
O158 C154 1.258 . S
O158 Zn159 2.035 . S
Zn159 O158 2.035 . S
Zn159 O160 2.028 . S
Zn159 O162 2.028 . S
Zn159 O165 2.035 . S
O160 Zn159 2.028 . S
O160 C166 1.247 . S
O161 Zn157 2.035 . S
O161 C166 1.258 . S
O162 C155 1.247 . S
O162 Zn159 2.028 . S
O163 C155 1.258 . S
O163 Zn157 2.035 . S
O164 Zn157 2.028 . S
O164 C167 1.247 . S
O165 Zn159 2.035 . S
O165 C167 1.258 . S
C166 O160 1.247 . S
C166 O161 1.258 . S
C167 O164 1.247 . S
C167 O165 1.258 . S
C168 O170 1.247 . S
C168 O172 1.258 . S
C169 O176 1.247 . S
C169 O177 1.258 . S
O170 C168 1.247 . S
O170 Zn171 2.028 . S
Zn171 O170 2.028 . S
Zn171 O175 2.035 . S
Zn171 O177 2.035 . S
Zn171 O178 2.028 . S
O172 C168 1.258 . S
O172 Zn173 2.035 . S
Zn173 O172 2.035 . S
Zn173 O174 2.028 . S
Zn173 O176 2.028 . S
Zn173 O179 2.035 . S
O174 Zn173 2.028 . S
O174 C180 1.247 . S
O175 Zn171 2.035 . S
O175 C180 1.258 . S
O176 C169 1.247 . S
O176 Zn173 2.028 . S
O177 C169 1.258 . S
O177 Zn171 2.035 . S
O178 Zn171 2.028 . S
O178 C181 1.247 . S
O179 Zn173 2.035 . S
O179 C181 1.258 . S
C180 O174 1.247 . S
C180 O175 1.258 . S
C181 O178 1.247 . S
C181 O179 1.258 . S
C182 O184 1.247 . S
C182 O186 1.258 . S
C183 O190 1.247 . S
C183 O191 1.258 . S
O184 C182 1.247 . S
O184 Zn185 2.028 . S
Zn185 O184 2.028 . S
Zn185 O189 2.035 . S
Zn185 O191 2.035 . S
Zn185 O192 2.028 . S
O186 C182 1.258 . S
O186 Zn187 2.035 . S
Zn187 O186 2.035 . S
Zn187 O188 2.028 . S
Zn187 O190 2.028 . S
Zn187 O193 2.035 . S
O188 Zn187 2.028 . S
O188 C194 1.247 . S
O189 Zn185 2.035 . S
O189 C194 1.258 . S
O190 C183 1.247 . S
O190 Zn187 2.028 . S
O191 C183 1.258 . S
O191 Zn185 2.035 . S
O192 Zn185 2.028 . S
O192 C195 1.247 . S
O193 Zn187 2.035 . S
O193 C195 1.258 . S
C194 O188 1.247 . S
C194 O189 1.258 . S
C195 O192 1.247 . S
C195 O193 1.258 . S
C196 O198 1.247 . S
C196 O200 1.258 . S
C197 O204 1.247 . S
C197 O205 1.258 . S
O198 C196 1.247 . S
O198 Zn199 2.028 . S
Zn199 O198 2.028 . S
Zn199 O203 2.035 . S
Zn199 O205 2.035 . S
Zn199 O206 2.028 . S
O200 C196 1.258 . S
O200 Zn201 2.035 . S
Zn201 O200 2.035 . S
Zn201 O202 2.028 . S
Zn201 O204 2.028 . S
Zn201 O207 2.035 . S
O202 Zn201 2.028 . S
O202 C208 1.247 . S
O203 Zn199 2.035 . S
O203 C208 1.258 . S
O204 C197 1.247 . S
O204 Zn201 2.028 . S
O205 C197 1.258 . S
O205 Zn199 2.035 . S
O206 Zn199 2.028 . S
O206 C209 1.247 . S
O207 Zn201 2.035 . S
O207 C209 1.258 . S
C208 O202 1.247 . S
C208 O203 1.258 . S
C209 O206 1.247 . S
C209 O207 1.258 . S
C210 O212 1.247 . S
C210 O214 1.258 . S
C211 O218 1.247 . S
C211 O219 1.258 . S
O212 C210 1.247 . S
O212 Zn213 2.028 . S
Zn213 O212 2.028 . S
Zn213 O217 2.035 . S
Zn213 O219 2.035 . S
Zn213 O220 2.028 . S
O214 C210 1.258 . S
O214 Zn215 2.035 . S
Zn215 O214 2.035 . S
Zn215 O216 2.028 . S
Zn215 O218 2.028 . S
Zn215 O221 2.035 . S
O216 Zn215 2.028 . S
O216 C222 1.247 . S
O217 Zn213 2.035 . S
O217 C222 1.258 . S
O218 C211 1.247 . S
O218 Zn215 2.028 . S
O219 C211 1.258 . S
O219 Zn213 2.035 . S
O220 Zn213 2.028 . S
O220 C223 1.247 . S
O221 Zn215 2.035 . S
O221 C223 1.258 . S
C222 O216 1.247 . S
C222 O217 1.258 . S
C223 O220 1.247 . S
C223 O221 1.258 . S
C224 O226 1.247 . S
C224 O228 1.258 . S
C225 O232 1.247 . S
C225 O233 1.258 . S
O226 C224 1.247 . S
O226 Zn227 2.028 . S
Zn227 O226 2.028 . S
Zn227 O231 2.035 . S
Zn227 O233 2.035 . S
Zn227 O234 2.028 . S
O228 C224 1.258 . S
O228 Zn229 2.035 . S
Zn229 O228 2.035 . S
Zn229 O230 2.028 . S
Zn229 O232 2.028 . S
Zn229 O235 2.035 . S
O230 Zn229 2.028 . S
O230 C236 1.247 . S
O231 Zn227 2.035 . S
O231 C236 1.258 . S
O232 C225 1.247 . S
O232 Zn229 2.028 . S
O233 C225 1.258 . S
O233 Zn227 2.035 . S
O234 Zn227 2.028 . S
O234 C237 1.247 . S
O235 Zn229 2.035 . S
O235 C237 1.258 . S
C236 O230 1.247 . S
C236 O231 1.258 . S
C237 O234 1.247 . S
C237 O235 1.258 . S
C238 O240 1.247 . S
C238 O242 1.258 . S
C239 O246 1.247 . S
C239 O247 1.258 . S
O240 C238 1.247 . S
O240 Zn241 2.028 . S
Zn241 O240 2.028 . S
Zn241 O245 2.035 . S
Zn241 O247 2.035 . S
Zn241 O248 2.028 . S
O242 C238 1.258 . S
O242 Zn243 2.035 . S
Zn243 O242 2.035 . S
Zn243 O244 2.028 . S
Zn243 O246 2.028 . S
Zn243 O249 2.035 . S
O244 Zn243 2.028 . S
O244 C250 1.247 . S
O245 Zn241 2.035 . S
O245 C250 1.258 . S
O246 C239 1.247 . S
O246 Zn243 2.028 . S
O247 C239 1.258 . S
O247 Zn241 2.035 . S
O248 Zn241 2.028 . S
O248 C251 1.247 . S
O249 Zn243 2.035 . S
O249 C251 1.258 . S
C250 O244 1.247 . S
C250 O245 1.258 . S
C251 O248 1.247 . S
C251 O249 1.258 . S
C252 O254 1.247 . S
C252 O256 1.258 . S
C253 O260 1.247 . S
C253 O261 1.258 . S
O254 C252 1.247 . S
O254 Zn255 2.028 . S
Zn255 O254 2.028 . S
Zn255 O259 2.035 . S
Zn255 O261 2.035 . S
Zn255 O262 2.028 . S
O256 C252 1.258 . S
O256 Zn257 2.035 . S
Zn257 O256 2.035 . S
Zn257 O258 2.028 . S
Zn257 O260 2.028 . S
Zn257 O263 2.035 . S
O258 Zn257 2.028 . S
O258 C264 1.247 . S
O259 Zn255 2.035 . S
O259 C264 1.258 . S
O260 C253 1.247 . S
O260 Zn257 2.028 . S
O261 C253 1.258 . S
O261 Zn255 2.035 . S
O262 Zn255 2.028 . S
O262 C265 1.247 . S
O263 Zn257 2.035 . S
O263 C265 1.258 . S
C264 O258 1.247 . S
C264 O259 1.258 . S
C265 O262 1.247 . S
C265 O263 1.258 . S
C266 O268 1.247 . S
C266 O270 1.258 . S
C267 O274 1.247 . S
C267 O275 1.258 . S
O268 C266 1.247 . S
O268 Zn269 2.028 . S
Zn269 O268 2.028 . S
Zn269 O273 2.035 . S
Zn269 O275 2.035 . S
Zn269 O276 2.028 . S
O270 C266 1.258 . S
O270 Zn271 2.035 . S
Zn271 O270 2.035 . S
Zn271 O272 2.028 . S
Zn271 O274 2.028 . S
Zn271 O277 2.035 . S
O272 Zn271 2.028 . S
O272 C278 1.247 . S
O273 Zn269 2.035 . S
O273 C278 1.258 . S
O274 C267 1.247 . S
O274 Zn271 2.028 . S
O275 C267 1.258 . S
O275 Zn269 2.035 . S
O276 Zn269 2.028 . S
O276 C279 1.247 . S
O277 Zn271 2.035 . S
O277 C279 1.258 . S
C278 O272 1.247 . S
C278 O273 1.258 . S
C279 O276 1.247 . S
C279 O277 1.258 . S
C280 O282 1.247 . S
C280 O284 1.258 . S
C281 O288 1.247 . S
C281 O289 1.258 . S
O282 C280 1.247 . S
O282 Zn283 2.028 . S
Zn283 O282 2.028 . S
Zn283 O287 2.035 . S
Zn283 O289 2.035 . S
Zn283 O290 2.028 . S
O284 C280 1.258 . S
O284 Zn285 2.035 . S
Zn285 O284 2.035 . S
Zn285 O286 2.028 . S
Zn285 O288 2.028 . S
Zn285 O291 2.035 . S
O286 Zn285 2.028 . S
O286 C292 1.247 . S
O287 Zn283 2.035 . S
O287 C292 1.258 . S
O288 C281 1.247 . S
O288 Zn285 2.028 . S
O289 C281 1.258 . S
O289 Zn283 2.035 . S
O290 Zn283 2.028 . S
O290 C293 1.247 . S
O291 Zn285 2.035 . S
O291 C293 1.258 . S
C292 O286 1.247 . S
C292 O287 1.258 . S
C293 O290 1.247 . S
C293 O291 1.258 . S
C294 O296 1.247 . S
C294 O298 1.258 . S
C295 O302 1.247 . S
C295 O303 1.258 . S
O296 C294 1.247 . S
O296 Zn297 2.028 . S
Zn297 O296 2.028 . S
Zn297 O301 2.035 . S
Zn297 O303 2.035 . S
Zn297 O304 2.028 . S
O298 C294 1.258 . S
O298 Zn299 2.035 . S
Zn299 O298 2.035 . S
Zn299 O300 2.028 . S
Zn299 O302 2.028 . S
Zn299 O305 2.035 . S
O300 Zn299 2.028 . S
O300 C306 1.247 . S
O301 Zn297 2.035 . S
O301 C306 1.258 . S
O302 C295 1.247 . S
O302 Zn299 2.028 . S
O303 C295 1.258 . S
O303 Zn297 2.035 . S
O304 Zn297 2.028 . S
O304 C307 1.247 . S
O305 Zn299 2.035 . S
O305 C307 1.258 . S
C306 O300 1.247 . S
C306 O301 1.258 . S
C307 O304 1.247 . S
C307 O305 1.258 . S
C308 O310 1.247 . S
C308 O312 1.258 . S
C309 O316 1.247 . S
C309 O317 1.258 . S
O310 C308 1.247 . S
O310 Zn311 2.028 . S
Zn311 O310 2.028 . S
Zn311 O315 2.035 . S
Zn311 O317 2.035 . S
Zn311 O318 2.028 . S
O312 C308 1.258 . S
O312 Zn313 2.035 . S
Zn313 O312 2.035 . S
Zn313 O314 2.028 . S
Zn313 O316 2.028 . S
Zn313 O319 2.035 . S
O314 Zn313 2.028 . S
O314 C320 1.247 . S
O315 Zn311 2.035 . S
O315 C320 1.258 . S
O316 C309 1.247 . S
O316 Zn313 2.028 . S
O317 C309 1.258 . S
O317 Zn311 2.035 . S
O318 Zn311 2.028 . S
O318 C321 1.247 . S
O319 Zn313 2.035 . S
O319 C321 1.258 . S
C320 O314 1.247 . S
C320 O315 1.258 . S
C321 O318 1.247 . S
C321 O319 1.258 . S
C322 O324 1.247 . S
C322 O326 1.258 . S
C323 O330 1.247 . S
C323 O331 1.258 . S
O324 C322 1.247 . S
O324 Zn325 2.028 . S
Zn325 O324 2.028 . S
Zn325 O329 2.035 . S
Zn325 O331 2.035 . S
Zn325 O332 2.028 . S
O326 C322 1.258 . S
O326 Zn327 2.035 . S
Zn327 O326 2.035 . S
Zn327 O328 2.028 . S
Zn327 O330 2.028 . S
Zn327 O333 2.035 . S
O328 Zn327 2.028 . S
O328 C334 1.247 . S
O329 Zn325 2.035 . S
O329 C334 1.258 . S
O330 C323 1.247 . S
O330 Zn327 2.028 . S
O331 C323 1.258 . S
O331 Zn325 2.035 . S
O332 Zn325 2.028 . S
O332 C335 1.247 . S
O333 Zn327 2.035 . S
O333 C335 1.258 . S
C334 O328 1.247 . S
C334 O329 1.258 . S
C335 O332 1.247 . S
C335 O333 1.258 . S
C336 O338 1.247 . S
C336 O340 1.258 . S
C337 O344 1.247 . S
C337 O345 1.258 . S
O338 C336 1.247 . S
O338 Zn339 2.028 . S
Zn339 O338 2.028 . S
Zn339 O343 2.035 . S
Zn339 O345 2.035 . S
Zn339 O346 2.028 . S
O340 C336 1.258 . S
O340 Zn341 2.035 . S
Zn341 O340 2.035 . S
Zn341 O342 2.028 . S
Zn341 O344 2.028 . S
Zn341 O347 2.035 . S
O342 Zn341 2.028 . S
O342 C348 1.247 . S
O343 Zn339 2.035 . S
O343 C348 1.258 . S
O344 C337 1.247 . S
O344 Zn341 2.028 . S
O345 C337 1.258 . S
O345 Zn339 2.035 . S
O346 Zn339 2.028 . S
O346 C349 1.247 . S
O347 Zn341 2.035 . S
O347 C349 1.258 . S
C348 O342 1.247 . S
C348 O343 1.258 . S
C349 O346 1.247 . S
C349 O347 1.258 . S
C350 O352 1.247 . S
C350 O354 1.258 . S
C351 O358 1.247 . S
C351 O359 1.258 . S
O352 C350 1.247 . S
O352 Zn353 2.028 . S
Zn353 O352 2.028 . S
Zn353 O357 2.035 . S
Zn353 O359 2.035 . S
Zn353 O360 2.028 . S
O354 C350 1.258 . S
O354 Zn355 2.035 . S
Zn355 O354 2.035 . S
Zn355 O356 2.028 . S
Zn355 O358 2.028 . S
Zn355 O361 2.035 . S
O356 Zn355 2.028 . S
O356 C362 1.247 . S
O357 Zn353 2.035 . S
O357 C362 1.258 . S
O358 C351 1.247 . S
O358 Zn355 2.028 . S
O359 C351 1.258 . S
O359 Zn353 2.035 . S
O360 Zn353 2.028 . S
O360 C363 1.247 . S
O361 Zn355 2.035 . S
O361 C363 1.258 . S
C362 O356 1.247 . S
C362 O357 1.258 . S
C363 O360 1.247 . S
C363 O361 1.258 . S
C364 O366 1.247 . S
C364 O368 1.258 . S
C365 O372 1.247 . S
C365 O373 1.258 . S
O366 C364 1.247 . S
O366 Zn367 2.028 . S
Zn367 O366 2.028 . S
Zn367 O371 2.035 . S
Zn367 O373 2.035 . S
Zn367 O374 2.028 . S
O368 C364 1.258 . S
O368 Zn369 2.035 . S
Zn369 O368 2.035 . S
Zn369 O370 2.028 . S
Zn369 O372 2.028 . S
Zn369 O375 2.035 . S
O370 Zn369 2.028 . S
O370 C376 1.247 . S
O371 Zn367 2.035 . S
O371 C376 1.258 . S
O372 C365 1.247 . S
O372 Zn369 2.028 . S
O373 C365 1.258 . S
O373 Zn367 2.035 . S
O374 Zn367 2.028 . S
O374 C377 1.247 . S
O375 Zn369 2.035 . S
O375 C377 1.258 . S
C376 O370 1.247 . S
C376 O371 1.258 . S
C377 O374 1.247 . S
C377 O375 1.258 . S
C378 O380 1.247 . S
C378 O382 1.258 . S
C379 O386 1.247 . S
C379 O387 1.258 . S
O380 C378 1.247 . S
O380 Zn381 2.028 . S
Zn381 O380 2.028 . S
Zn381 O385 2.035 . S
Zn381 O387 2.035 . S
Zn381 O388 2.028 . S
O382 C378 1.258 . S
O382 Zn383 2.035 . S
Zn383 O382 2.035 . S
Zn383 O384 2.028 . S
Zn383 O386 2.028 . S
Zn383 O389 2.035 . S
O384 Zn383 2.028 . S
O384 C390 1.247 . S
O385 Zn381 2.035 . S
O385 C390 1.258 . S
O386 C379 1.247 . S
O386 Zn383 2.028 . S
O387 C379 1.258 . S
O387 Zn381 2.035 . S
O388 Zn381 2.028 . S
O388 C391 1.247 . S
O389 Zn383 2.035 . S
O389 C391 1.258 . S
C390 O384 1.247 . S
C390 O385 1.258 . S
C391 O388 1.247 . S
C391 O389 1.258 . S
C392 O394 1.247 . S
C392 O396 1.258 . S
C393 O400 1.247 . S
C393 O401 1.258 . S
O394 C392 1.247 . S
O394 Zn395 2.028 . S
Zn395 O394 2.028 . S
Zn395 O399 2.035 . S
Zn395 O401 2.035 . S
Zn395 O402 2.028 . S
O396 C392 1.258 . S
O396 Zn397 2.035 . S
Zn397 O396 2.035 . S
Zn397 O398 2.028 . S
Zn397 O400 2.028 . S
Zn397 O403 2.035 . S
O398 Zn397 2.028 . S
O398 C404 1.247 . S
O399 Zn395 2.035 . S
O399 C404 1.258 . S
O400 C393 1.247 . S
O400 Zn397 2.028 . S
O401 C393 1.258 . S
O401 Zn395 2.035 . S
O402 Zn395 2.028 . S
O402 C405 1.247 . S
O403 Zn397 2.035 . S
O403 C405 1.258 . S
C404 O398 1.247 . S
C404 O399 1.258 . S
C405 O402 1.247 . S
C405 O403 1.258 . S
C406 O408 1.247 . S
C406 O410 1.258 . S
C407 O414 1.247 . S
C407 O415 1.258 . S
O408 C406 1.247 . S
O408 Zn409 2.028 . S
Zn409 O408 2.028 . S
Zn409 O413 2.035 . S
Zn409 O415 2.035 . S
Zn409 O416 2.028 . S
O410 C406 1.258 . S
O410 Zn411 2.035 . S
Zn411 O410 2.035 . S
Zn411 O412 2.028 . S
Zn411 O414 2.028 . S
Zn411 O417 2.035 . S
O412 Zn411 2.028 . S
O412 C418 1.247 . S
O413 Zn409 2.035 . S
O413 C418 1.258 . S
O414 C407 1.247 . S
O414 Zn411 2.028 . S
O415 C407 1.258 . S
O415 Zn409 2.035 . S
O416 Zn409 2.028 . S
O416 C419 1.247 . S
O417 Zn411 2.035 . S
O417 C419 1.258 . S
C418 O412 1.247 . S
C418 O413 1.258 . S
C419 O416 1.247 . S
C419 O417 1.258 . S
C420 O422 1.247 . S
C420 O424 1.258 . S
C421 O428 1.247 . S
C421 O429 1.258 . S
O422 C420 1.247 . S
O422 Zn423 2.028 . S
Zn423 O422 2.028 . S
Zn423 O427 2.035 . S
Zn423 O429 2.035 . S
Zn423 O430 2.028 . S
O424 C420 1.258 . S
O424 Zn425 2.035 . S
Zn425 O424 2.035 . S
Zn425 O426 2.028 . S
Zn425 O428 2.028 . S
Zn425 O431 2.035 . S
O426 Zn425 2.028 . S
O426 C432 1.247 . S
O427 Zn423 2.035 . S
O427 C432 1.258 . S
O428 C421 1.247 . S
O428 Zn425 2.028 . S
O429 C421 1.258 . S
O429 Zn423 2.035 . S
O430 Zn423 2.028 . S
O430 C433 1.247 . S
O431 Zn425 2.035 . S
O431 C433 1.258 . S
C432 O426 1.247 . S
C432 O427 1.258 . S
C433 O430 1.247 . S
C433 O431 1.258 . S
C434 O436 1.247 . S
C434 O438 1.258 . S
C435 O442 1.247 . S
C435 O443 1.258 . S
O436 C434 1.247 . S
O436 Zn437 2.028 . S
Zn437 O436 2.028 . S
Zn437 O441 2.035 . S
Zn437 O443 2.035 . S
Zn437 O444 2.028 . S
O438 C434 1.258 . S
O438 Zn439 2.035 . S
Zn439 O438 2.035 . S
Zn439 O440 2.028 . S
Zn439 O442 2.028 . S
Zn439 O445 2.035 . S
O440 Zn439 2.028 . S
O440 C446 1.247 . S
O441 Zn437 2.035 . S
O441 C446 1.258 . S
O442 C435 1.247 . S
O442 Zn439 2.028 . S
O443 C435 1.258 . S
O443 Zn437 2.035 . S
O444 Zn437 2.028 . S
O444 C447 1.247 . S
O445 Zn439 2.035 . S
O445 C447 1.258 . S
C446 O440 1.247 . S
C446 O441 1.258 . S
C447 O444 1.247 . S
C447 O445 1.258 . S
C448 O450 1.247 . S
C448 O452 1.258 . S
C449 O456 1.247 . S
C449 O457 1.258 . S
O450 C448 1.247 . S
O450 Zn451 2.028 . S
Zn451 O450 2.028 . S
Zn451 O455 2.035 . S
Zn451 O457 2.035 . S
Zn451 O458 2.028 . S
O452 C448 1.258 . S
O452 Zn453 2.035 . S
Zn453 O452 2.035 . S
Zn453 O454 2.028 . S
Zn453 O456 2.028 . S
Zn453 O459 2.035 . S
O454 Zn453 2.028 . S
O454 C460 1.247 . S
O455 Zn451 2.035 . S
O455 C460 1.258 . S
O456 C449 1.247 . S
O456 Zn453 2.028 . S
O457 C449 1.258 . S
O457 Zn451 2.035 . S
O458 Zn451 2.028 . S
O458 C461 1.247 . S
O459 Zn453 2.035 . S
O459 C461 1.258 . S
C460 O454 1.247 . S
C460 O455 1.258 . S
C461 O458 1.247 . S
C461 O459 1.258 . S
C462 O464 1.247 . S
C462 O466 1.258 . S
C463 O470 1.247 . S
C463 O471 1.258 . S
O464 C462 1.247 . S
O464 Zn465 2.028 . S
Zn465 O464 2.028 . S
Zn465 O469 2.035 . S
Zn465 O471 2.035 . S
Zn465 O472 2.028 . S
O466 C462 1.258 . S
O466 Zn467 2.035 . S
Zn467 O466 2.035 . S
Zn467 O468 2.028 . S
Zn467 O470 2.028 . S
Zn467 O473 2.035 . S
O468 Zn467 2.028 . S
O468 C474 1.247 . S
O469 Zn465 2.035 . S
O469 C474 1.258 . S
O470 C463 1.247 . S
O470 Zn467 2.028 . S
O471 C463 1.258 . S
O471 Zn465 2.035 . S
O472 Zn465 2.028 . S
O472 C475 1.247 . S
O473 Zn467 2.035 . S
O473 C475 1.258 . S
C474 O468 1.247 . S
C474 O469 1.258 . S
C475 O472 1.247 . S
C475 O473 1.258 . S
C476 O478 1.247 . S
C476 O480 1.258 . S
C477 O484 1.247 . S
C477 O485 1.258 . S
O478 C476 1.247 . S
O478 Zn479 2.028 . S
Zn479 O478 2.028 . S
Zn479 O483 2.035 . S
Zn479 O485 2.035 . S
Zn479 O486 2.028 . S
O480 C476 1.258 . S
O480 Zn481 2.035 . S
Zn481 O480 2.035 . S
Zn481 O482 2.028 . S
Zn481 O484 2.028 . S
Zn481 O487 2.035 . S
O482 Zn481 2.028 . S
O482 C488 1.247 . S
O483 Zn479 2.035 . S
O483 C488 1.258 . S
O484 C477 1.247 . S
O484 Zn481 2.028 . S
O485 C477 1.258 . S
O485 Zn479 2.035 . S
O486 Zn479 2.028 . S
O486 C489 1.247 . S
O487 Zn481 2.035 . S
O487 C489 1.258 . S
C488 O482 1.247 . S
C488 O483 1.258 . S
C489 O486 1.247 . S
C489 O487 1.258 . S
C490 O492 1.247 . S
C490 O494 1.258 . S
C491 O498 1.247 . S
C491 O499 1.258 . S
O492 C490 1.247 . S
O492 Zn493 2.028 . S
Zn493 O492 2.028 . S
Zn493 O497 2.035 . S
Zn493 O499 2.035 . S
Zn493 O500 2.028 . S
O494 C490 1.258 . S
O494 Zn495 2.035 . S
Zn495 O494 2.035 . S
Zn495 O496 2.028 . S
Zn495 O498 2.028 . S
Zn495 O501 2.035 . S
O496 Zn495 2.028 . S
O496 C502 1.247 . S
O497 Zn493 2.035 . S
O497 C502 1.258 . S
O498 C491 1.247 . S
O498 Zn495 2.028 . S
O499 C491 1.258 . S
O499 Zn493 2.035 . S
O500 Zn493 2.028 . S
O500 C503 1.247 . S
O501 Zn495 2.035 . S
O501 C503 1.258 . S
C502 O496 1.247 . S
C502 O497 1.258 . S
C503 O500 1.247 . S
C503 O501 1.258 . S
H504 C516 0.930 . S
H505 C518 0.930 . S
H506 C519 0.930 . S
H507 C523 0.959 . S
H508 C523 0.959 . S
H509 C523 0.961 . S
H510 C524 0.960 . S
H511 C524 0.961 . S
H512 C524 0.959 . S
H513 C527 0.929 . S
H514 C528 0.931 . S
H515 C530 0.930 . S
C516 H504 0.930 . S
C516 C517 1.399 . S
C516 C521 1.399 . S
C517 C516 1.399 . S
C517 C518 1.376 . S
C518 H505 0.930 . S
C518 C517 1.376 . S
C518 C519 1.388 . S
C519 H506 0.930 . S
C519 C518 1.388 . S
C519 C520 1.390 . S
C520 C519 1.390 . S
C520 C521 1.394 . S
C520 C526 1.465 . S
C521 C516 1.399 . S
C521 C520 1.394 . S
C521 C522 1.516 . S
C522 C521 1.516 . S
C522 C523 1.502 . S
C522 C524 1.561 . S
C522 C525 1.526 . S
C523 H507 0.959 . S
C523 H508 0.959 . S
C523 H509 0.961 . S
C523 C522 1.502 . S
C524 H510 0.960 . S
C524 H511 0.961 . S
C524 H512 0.959 . S
C524 C522 1.561 . S
C525 C522 1.526 . S
C525 C526 1.396 . S
C525 C530 1.390 . S
C526 C520 1.465 . S
C526 C525 1.396 . S
C526 C527 1.399 . S
C527 H513 0.929 . S
C527 C526 1.399 . S
C527 C528 1.385 . S
C528 H514 0.931 . S
C528 C527 1.385 . S
C528 C529 1.389 . S
C529 C528 1.389 . S
C529 C530 1.387 . S
C530 H515 0.930 . S
C530 C525 1.390 . S
C530 C529 1.387 . S
H531 C543 0.930 . S
H532 C545 0.930 . S
H533 C546 0.930 . S
H534 C550 0.959 . S
H535 C550 0.959 . S
H536 C550 0.961 . S
H537 C551 0.960 . S
H538 C551 0.961 . S
H539 C551 0.959 . S
H540 C554 0.929 . S
H541 C555 0.931 . S
H542 C557 0.930 . S
C543 H531 0.930 . S
C543 C544 1.399 . S
C543 C548 1.399 . S
C544 C543 1.399 . S
C544 C545 1.376 . S
C545 H532 0.930 . S
C545 C544 1.376 . S
C545 C546 1.388 . S
C546 H533 0.930 . S
C546 C545 1.388 . S
C546 C547 1.390 . S
C547 C546 1.390 . S
C547 C548 1.394 . S
C547 C553 1.465 . S
C548 C543 1.399 . S
C548 C547 1.394 . S
C548 C549 1.516 . S
C549 C548 1.516 . S
C549 C550 1.502 . S
C549 C551 1.561 . S
C549 C552 1.526 . S
C550 H534 0.959 . S
C550 H535 0.959 . S
C550 H536 0.961 . S
C550 C549 1.502 . S
C551 H537 0.960 . S
C551 H538 0.961 . S
C551 H539 0.959 . S
C551 C549 1.561 . S
C552 C549 1.526 . S
C552 C553 1.396 . S
C552 C557 1.390 . S
C553 C547 1.465 . S
C553 C552 1.396 . S
C553 C554 1.399 . S
C554 H540 0.929 . S
C554 C553 1.399 . S
C554 C555 1.385 . S
C555 H541 0.931 . S
C555 C554 1.385 . S
C555 C556 1.389 . S
C556 C555 1.389 . S
C556 C557 1.387 . S
C557 H542 0.930 . S
C557 C552 1.390 . S
C557 C556 1.387 . S
H558 C570 0.930 . S
H559 C572 0.930 . S
H560 C573 0.930 . S
H561 C577 0.959 . S
H562 C577 0.959 . S
H563 C577 0.961 . S
H564 C578 0.960 . S
H565 C578 0.961 . S
H566 C578 0.959 . S
H567 C581 0.929 . S
H568 C582 0.931 . S
H569 C584 0.930 . S
C570 H558 0.930 . S
C570 C571 1.399 . S
C570 C575 1.399 . S
C571 C570 1.399 . S
C571 C572 1.376 . S
C572 H559 0.930 . S
C572 C571 1.376 . S
C572 C573 1.388 . S
C573 H560 0.930 . S
C573 C572 1.388 . S
C573 C574 1.390 . S
C574 C573 1.390 . S
C574 C575 1.394 . S
C574 C580 1.465 . S
C575 C570 1.399 . S
C575 C574 1.394 . S
C575 C576 1.516 . S
C576 C575 1.516 . S
C576 C577 1.502 . S
C576 C578 1.561 . S
C576 C579 1.526 . S
C577 H561 0.959 . S
C577 H562 0.959 . S
C577 H563 0.961 . S
C577 C576 1.502 . S
C578 H564 0.960 . S
C578 H565 0.961 . S
C578 H566 0.959 . S
C578 C576 1.561 . S
C579 C576 1.526 . S
C579 C580 1.396 . S
C579 C584 1.390 . S
C580 C574 1.465 . S
C580 C579 1.396 . S
C580 C581 1.399 . S
C581 H567 0.929 . S
C581 C580 1.399 . S
C581 C582 1.385 . S
C582 H568 0.931 . S
C582 C581 1.385 . S
C582 C583 1.389 . S
C583 C582 1.389 . S
C583 C584 1.387 . S
C584 H569 0.930 . S
C584 C579 1.390 . S
C584 C583 1.387 . S
H585 C597 0.930 . S
H586 C599 0.930 . S
H587 C600 0.930 . S
H588 C604 0.959 . S
H589 C604 0.959 . S
H590 C604 0.961 . S
H591 C605 0.960 . S
H592 C605 0.961 . S
H593 C605 0.959 . S
H594 C608 0.929 . S
H595 C609 0.931 . S
H596 C611 0.930 . S
C597 H585 0.930 . S
C597 C598 1.399 . S
C597 C602 1.399 . S
C598 C597 1.399 . S
C598 C599 1.376 . S
C599 H586 0.930 . S
C599 C598 1.376 . S
C599 C600 1.388 . S
C600 H587 0.930 . S
C600 C599 1.388 . S
C600 C601 1.390 . S
C601 C600 1.390 . S
C601 C602 1.394 . S
C601 C607 1.465 . S
C602 C597 1.399 . S
C602 C601 1.394 . S
C602 C603 1.516 . S
C603 C602 1.516 . S
C603 C604 1.502 . S
C603 C605 1.561 . S
C603 C606 1.526 . S
C604 H588 0.959 . S
C604 H589 0.959 . S
C604 H590 0.961 . S
C604 C603 1.502 . S
C605 H591 0.960 . S
C605 H592 0.961 . S
C605 H593 0.959 . S
C605 C603 1.561 . S
C606 C603 1.526 . S
C606 C607 1.396 . S
C606 C611 1.390 . S
C607 C601 1.465 . S
C607 C606 1.396 . S
C607 C608 1.399 . S
C608 H594 0.929 . S
C608 C607 1.399 . S
C608 C609 1.385 . S
C609 H595 0.931 . S
C609 C608 1.385 . S
C609 C610 1.389 . S
C610 C609 1.389 . S
C610 C611 1.387 . S
C611 H596 0.930 . S
C611 C606 1.390 . S
C611 C610 1.387 . S
H612 C624 0.930 . S
H613 C626 0.930 . S
H614 C627 0.930 . S
H615 C631 0.959 . S
H616 C631 0.959 . S
H617 C631 0.961 . S
H618 C632 0.960 . S
H619 C632 0.961 . S
H620 C632 0.959 . S
H621 C635 0.929 . S
H622 C636 0.931 . S
H623 C638 0.930 . S
C624 H612 0.930 . S
C624 C625 1.399 . S
C624 C629 1.399 . S
C625 C624 1.399 . S
C625 C626 1.376 . S
C626 H613 0.930 . S
C626 C625 1.376 . S
C626 C627 1.388 . S
C627 H614 0.930 . S
C627 C626 1.388 . S
C627 C628 1.390 . S
C628 C627 1.390 . S
C628 C629 1.394 . S
C628 C634 1.465 . S
C629 C624 1.399 . S
C629 C628 1.394 . S
C629 C630 1.516 . S
C630 C629 1.516 . S
C630 C631 1.502 . S
C630 C632 1.561 . S
C630 C633 1.526 . S
C631 H615 0.959 . S
C631 H616 0.959 . S
C631 H617 0.961 . S
C631 C630 1.502 . S
C632 H618 0.960 . S
C632 H619 0.961 . S
C632 H620 0.959 . S
C632 C630 1.561 . S
C633 C630 1.526 . S
C633 C634 1.396 . S
C633 C638 1.390 . S
C634 C628 1.465 . S
C634 C633 1.396 . S
C634 C635 1.399 . S
C635 H621 0.929 . S
C635 C634 1.399 . S
C635 C636 1.385 . S
C636 H622 0.931 . S
C636 C635 1.385 . S
C636 C637 1.389 . S
C637 C636 1.389 . S
C637 C638 1.387 . S
C638 H623 0.930 . S
C638 C633 1.390 . S
C638 C637 1.387 . S
H639 C651 0.930 . S
H640 C653 0.930 . S
H641 C654 0.930 . S
H642 C658 0.959 . S
H643 C658 0.959 . S
H644 C658 0.961 . S
H645 C659 0.960 . S
H646 C659 0.961 . S
H647 C659 0.959 . S
H648 C662 0.929 . S
H649 C663 0.931 . S
H650 C665 0.930 . S
C651 H639 0.930 . S
C651 C652 1.399 . S
C651 C656 1.399 . S
C652 C651 1.399 . S
C652 C653 1.376 . S
C653 H640 0.930 . S
C653 C652 1.376 . S
C653 C654 1.388 . S
C654 H641 0.930 . S
C654 C653 1.388 . S
C654 C655 1.390 . S
C655 C654 1.390 . S
C655 C656 1.394 . S
C655 C661 1.465 . S
C656 C651 1.399 . S
C656 C655 1.394 . S
C656 C657 1.516 . S
C657 C656 1.516 . S
C657 C658 1.502 . S
C657 C659 1.561 . S
C657 C660 1.526 . S
C658 H642 0.959 . S
C658 H643 0.959 . S
C658 H644 0.961 . S
C658 C657 1.502 . S
C659 H645 0.960 . S
C659 H646 0.961 . S
C659 H647 0.959 . S
C659 C657 1.561 . S
C660 C657 1.526 . S
C660 C661 1.396 . S
C660 C665 1.390 . S
C661 C655 1.465 . S
C661 C660 1.396 . S
C661 C662 1.399 . S
C662 H648 0.929 . S
C662 C661 1.399 . S
C662 C663 1.385 . S
C663 H649 0.931 . S
C663 C662 1.385 . S
C663 C664 1.389 . S
C664 C663 1.389 . S
C664 C665 1.387 . S
C665 H650 0.930 . S
C665 C660 1.390 . S
C665 C664 1.387 . S
H666 C678 0.930 . S
H667 C680 0.930 . S
H668 C681 0.930 . S
H669 C685 0.959 . S
H670 C685 0.959 . S
H671 C685 0.961 . S
H672 C686 0.960 . S
H673 C686 0.961 . S
H674 C686 0.959 . S
H675 C689 0.929 . S
H676 C690 0.931 . S
H677 C692 0.930 . S
C678 H666 0.930 . S
C678 C679 1.399 . S
C678 C683 1.399 . S
C679 C678 1.399 . S
C679 C680 1.376 . S
C680 H667 0.930 . S
C680 C679 1.376 . S
C680 C681 1.388 . S
C681 H668 0.930 . S
C681 C680 1.388 . S
C681 C682 1.390 . S
C682 C681 1.390 . S
C682 C683 1.394 . S
C682 C688 1.465 . S
C683 C678 1.399 . S
C683 C682 1.394 . S
C683 C684 1.516 . S
C684 C683 1.516 . S
C684 C685 1.502 . S
C684 C686 1.561 . S
C684 C687 1.526 . S
C685 H669 0.959 . S
C685 H670 0.959 . S
C685 H671 0.961 . S
C685 C684 1.502 . S
C686 H672 0.960 . S
C686 H673 0.961 . S
C686 H674 0.959 . S
C686 C684 1.561 . S
C687 C684 1.526 . S
C687 C688 1.396 . S
C687 C692 1.390 . S
C688 C682 1.465 . S
C688 C687 1.396 . S
C688 C689 1.399 . S
C689 H675 0.929 . S
C689 C688 1.399 . S
C689 C690 1.385 . S
C690 H676 0.931 . S
C690 C689 1.385 . S
C690 C691 1.389 . S
C691 C690 1.389 . S
C691 C692 1.387 . S
C692 H677 0.930 . S
C692 C687 1.390 . S
C692 C691 1.387 . S
H693 C705 0.930 . S
H694 C707 0.930 . S
H695 C708 0.930 . S
H696 C712 0.959 . S
H697 C712 0.959 . S
H698 C712 0.961 . S
H699 C713 0.960 . S
H700 C713 0.961 . S
H701 C713 0.959 . S
H702 C716 0.929 . S
H703 C717 0.931 . S
H704 C719 0.930 . S
C705 H693 0.930 . S
C705 C706 1.399 . S
C705 C710 1.399 . S
C706 C705 1.399 . S
C706 C707 1.376 . S
C707 H694 0.930 . S
C707 C706 1.376 . S
C707 C708 1.388 . S
C708 H695 0.930 . S
C708 C707 1.388 . S
C708 C709 1.390 . S
C709 C708 1.390 . S
C709 C710 1.394 . S
C709 C715 1.465 . S
C710 C705 1.399 . S
C710 C709 1.394 . S
C710 C711 1.516 . S
C711 C710 1.516 . S
C711 C712 1.502 . S
C711 C713 1.561 . S
C711 C714 1.526 . S
C712 H696 0.959 . S
C712 H697 0.959 . S
C712 H698 0.961 . S
C712 C711 1.502 . S
C713 H699 0.960 . S
C713 H700 0.961 . S
C713 H701 0.959 . S
C713 C711 1.561 . S
C714 C711 1.526 . S
C714 C715 1.396 . S
C714 C719 1.390 . S
C715 C709 1.465 . S
C715 C714 1.396 . S
C715 C716 1.399 . S
C716 H702 0.929 . S
C716 C715 1.399 . S
C716 C717 1.385 . S
C717 H703 0.931 . S
C717 C716 1.385 . S
C717 C718 1.389 . S
C718 C717 1.389 . S
C718 C719 1.387 . S
C719 H704 0.930 . S
C719 C714 1.390 . S
C719 C718 1.387 . S
H720 C732 0.930 . S
H721 C734 0.930 . S
H722 C735 0.930 . S
H723 C739 0.959 . S
H724 C739 0.959 . S
H725 C739 0.961 . S
H726 C740 0.960 . S
H727 C740 0.961 . S
H728 C740 0.959 . S
H729 C743 0.929 . S
H730 C744 0.931 . S
H731 C746 0.930 . S
C732 H720 0.930 . S
C732 C733 1.399 . S
C732 C737 1.399 . S
C733 C732 1.399 . S
C733 C734 1.376 . S
C734 H721 0.930 . S
C734 C733 1.376 . S
C734 C735 1.388 . S
C735 H722 0.930 . S
C735 C734 1.388 . S
C735 C736 1.390 . S
C736 C735 1.390 . S
C736 C737 1.394 . S
C736 C742 1.465 . S
C737 C732 1.399 . S
C737 C736 1.394 . S
C737 C738 1.516 . S
C738 C737 1.516 . S
C738 C739 1.502 . S
C738 C740 1.561 . S
C738 C741 1.526 . S
C739 H723 0.959 . S
C739 H724 0.959 . S
C739 H725 0.961 . S
C739 C738 1.502 . S
C740 H726 0.960 . S
C740 H727 0.961 . S
C740 H728 0.959 . S
C740 C738 1.561 . S
C741 C738 1.526 . S
C741 C742 1.396 . S
C741 C746 1.390 . S
C742 C736 1.465 . S
C742 C741 1.396 . S
C742 C743 1.399 . S
C743 H729 0.929 . S
C743 C742 1.399 . S
C743 C744 1.385 . S
C744 H730 0.931 . S
C744 C743 1.385 . S
C744 C745 1.389 . S
C745 C744 1.389 . S
C745 C746 1.387 . S
C746 H731 0.930 . S
C746 C741 1.390 . S
C746 C745 1.387 . S
H747 C759 0.930 . S
H748 C761 0.930 . S
H749 C762 0.930 . S
H750 C766 0.959 . S
H751 C766 0.959 . S
H752 C766 0.961 . S
H753 C767 0.960 . S
H754 C767 0.961 . S
H755 C767 0.959 . S
H756 C770 0.929 . S
H757 C771 0.931 . S
H758 C773 0.930 . S
C759 H747 0.930 . S
C759 C760 1.399 . S
C759 C764 1.399 . S
C760 C759 1.399 . S
C760 C761 1.376 . S
C761 H748 0.930 . S
C761 C760 1.376 . S
C761 C762 1.388 . S
C762 H749 0.930 . S
C762 C761 1.388 . S
C762 C763 1.390 . S
C763 C762 1.390 . S
C763 C764 1.394 . S
C763 C769 1.465 . S
C764 C759 1.399 . S
C764 C763 1.394 . S
C764 C765 1.516 . S
C765 C764 1.516 . S
C765 C766 1.502 . S
C765 C767 1.561 . S
C765 C768 1.526 . S
C766 H750 0.959 . S
C766 H751 0.959 . S
C766 H752 0.961 . S
C766 C765 1.502 . S
C767 H753 0.960 . S
C767 H754 0.961 . S
C767 H755 0.959 . S
C767 C765 1.561 . S
C768 C765 1.526 . S
C768 C769 1.396 . S
C768 C773 1.390 . S
C769 C763 1.465 . S
C769 C768 1.396 . S
C769 C770 1.399 . S
C770 H756 0.929 . S
C770 C769 1.399 . S
C770 C771 1.385 . S
C771 H757 0.931 . S
C771 C770 1.385 . S
C771 C772 1.389 . S
C772 C771 1.389 . S
C772 C773 1.387 . S
C773 H758 0.930 . S
C773 C768 1.390 . S
C773 C772 1.387 . S
H774 C786 0.930 . S
H775 C788 0.930 . S
H776 C789 0.930 . S
H777 C793 0.959 . S
H778 C793 0.959 . S
H779 C793 0.961 . S
H780 C794 0.960 . S
H781 C794 0.961 . S
H782 C794 0.959 . S
H783 C797 0.929 . S
H784 C798 0.931 . S
H785 C800 0.930 . S
C786 H774 0.930 . S
C786 C787 1.399 . S
C786 C791 1.399 . S
C787 C786 1.399 . S
C787 C788 1.376 . S
C788 H775 0.930 . S
C788 C787 1.376 . S
C788 C789 1.388 . S
C789 H776 0.930 . S
C789 C788 1.388 . S
C789 C790 1.390 . S
C790 C789 1.390 . S
C790 C791 1.394 . S
C790 C796 1.465 . S
C791 C786 1.399 . S
C791 C790 1.394 . S
C791 C792 1.516 . S
C792 C791 1.516 . S
C792 C793 1.502 . S
C792 C794 1.561 . S
C792 C795 1.526 . S
C793 H777 0.959 . S
C793 H778 0.959 . S
C793 H779 0.961 . S
C793 C792 1.502 . S
C794 H780 0.960 . S
C794 H781 0.961 . S
C794 H782 0.959 . S
C794 C792 1.561 . S
C795 C792 1.526 . S
C795 C796 1.396 . S
C795 C800 1.390 . S
C796 C790 1.465 . S
C796 C795 1.396 . S
C796 C797 1.399 . S
C797 H783 0.929 . S
C797 C796 1.399 . S
C797 C798 1.385 . S
C798 H784 0.931 . S
C798 C797 1.385 . S
C798 C799 1.389 . S
C799 C798 1.389 . S
C799 C800 1.387 . S
C800 H785 0.930 . S
C800 C795 1.390 . S
C800 C799 1.387 . S
H801 C813 0.930 . S
H802 C815 0.930 . S
H803 C816 0.930 . S
H804 C820 0.959 . S
H805 C820 0.959 . S
H806 C820 0.961 . S
H807 C821 0.960 . S
H808 C821 0.961 . S
H809 C821 0.959 . S
H810 C824 0.929 . S
H811 C825 0.931 . S
H812 C827 0.930 . S
C813 H801 0.930 . S
C813 C814 1.399 . S
C813 C818 1.399 . S
C814 C813 1.399 . S
C814 C815 1.376 . S
C815 H802 0.930 . S
C815 C814 1.376 . S
C815 C816 1.388 . S
C816 H803 0.930 . S
C816 C815 1.388 . S
C816 C817 1.390 . S
C817 C816 1.390 . S
C817 C818 1.394 . S
C817 C823 1.465 . S
C818 C813 1.399 . S
C818 C817 1.394 . S
C818 C819 1.516 . S
C819 C818 1.516 . S
C819 C820 1.502 . S
C819 C821 1.561 . S
C819 C822 1.526 . S
C820 H804 0.959 . S
C820 H805 0.959 . S
C820 H806 0.961 . S
C820 C819 1.502 . S
C821 H807 0.960 . S
C821 H808 0.961 . S
C821 H809 0.959 . S
C821 C819 1.561 . S
C822 C819 1.526 . S
C822 C823 1.396 . S
C822 C827 1.390 . S
C823 C817 1.465 . S
C823 C822 1.396 . S
C823 C824 1.399 . S
C824 H810 0.929 . S
C824 C823 1.399 . S
C824 C825 1.385 . S
C825 H811 0.931 . S
C825 C824 1.385 . S
C825 C826 1.389 . S
C826 C825 1.389 . S
C826 C827 1.387 . S
C827 H812 0.930 . S
C827 C822 1.390 . S
C827 C826 1.387 . S
H828 C840 0.930 . S
H829 C842 0.930 . S
H830 C843 0.930 . S
H831 C847 0.959 . S
H832 C847 0.959 . S
H833 C847 0.961 . S
H834 C848 0.960 . S
H835 C848 0.961 . S
H836 C848 0.959 . S
H837 C851 0.929 . S
H838 C852 0.931 . S
H839 C854 0.930 . S
C840 H828 0.930 . S
C840 C841 1.399 . S
C840 C845 1.399 . S
C841 C840 1.399 . S
C841 C842 1.376 . S
C842 H829 0.930 . S
C842 C841 1.376 . S
C842 C843 1.388 1_655 S
C843 H830 0.930 . S
C843 C842 1.388 1_455 S
C843 C844 1.390 . S
C844 C843 1.390 . S
C844 C845 1.394 1_455 S
C844 C850 1.465 . S
C845 C840 1.399 . S
C845 C844 1.394 1_655 S
C845 C846 1.516 . S
C846 C845 1.516 . S
C846 C847 1.502 . S
C846 C848 1.561 . S
C846 C849 1.526 1_655 S
C847 H831 0.959 . S
C847 H832 0.959 . S
C847 H833 0.961 . S
C847 C846 1.502 . S
C848 H834 0.960 . S
C848 H835 0.961 . S
C848 H836 0.959 . S
C848 C846 1.561 . S
C849 C846 1.526 1_455 S
C849 C850 1.396 . S
C849 C854 1.390 . S
C850 C844 1.465 . S
C850 C849 1.396 . S
C850 C851 1.399 . S
C851 H837 0.929 . S
C851 C850 1.399 . S
C851 C852 1.385 . S
C852 H838 0.931 . S
C852 C851 1.385 . S
C852 C853 1.389 . S
C853 C852 1.389 . S
C853 C854 1.387 . S
C854 H839 0.930 . S
C854 C849 1.390 . S
C854 C853 1.387 . S
H855 C867 0.930 . S
H856 C869 0.930 . S
H857 C870 0.930 . S
H858 C874 0.959 . S
H859 C874 0.959 . S
H860 C874 0.961 . S
H861 C875 0.960 . S
H862 C875 0.961 . S
H863 C875 0.959 . S
H864 C878 0.929 . S
H865 C879 0.931 . S
H866 C881 0.930 . S
C867 H855 0.930 . S
C867 C868 1.399 . S
C867 C872 1.399 . S
C868 C867 1.399 . S
C868 C869 1.376 . S
C869 H856 0.930 . S
C869 C868 1.376 . S
C869 C870 1.388 . S
C870 H857 0.930 . S
C870 C869 1.388 . S
C870 C871 1.390 . S
C871 C870 1.390 . S
C871 C872 1.394 . S
C871 C877 1.465 . S
C872 C867 1.399 . S
C872 C871 1.394 . S
C872 C873 1.516 . S
C873 C872 1.516 . S
C873 C874 1.502 . S
C873 C875 1.561 . S
C873 C876 1.526 . S
C874 H858 0.959 . S
C874 H859 0.959 . S
C874 H860 0.961 . S
C874 C873 1.502 . S
C875 H861 0.960 . S
C875 H862 0.961 . S
C875 H863 0.959 . S
C875 C873 1.561 . S
C876 C873 1.526 . S
C876 C877 1.396 . S
C876 C881 1.390 . S
C877 C871 1.465 . S
C877 C876 1.396 . S
C877 C878 1.399 . S
C878 H864 0.929 . S
C878 C877 1.399 . S
C878 C879 1.385 . S
C879 H865 0.931 . S
C879 C878 1.385 . S
C879 C880 1.389 . S
C880 C879 1.389 . S
C880 C881 1.387 . S
C881 H866 0.930 . S
C881 C876 1.390 . S
C881 C880 1.387 . S
H882 C894 0.930 . S
H883 C896 0.930 . S
H884 C897 0.930 . S
H885 C901 0.959 . S
H886 C901 0.959 . S
H887 C901 0.961 1_545 S
H888 C902 0.960 . S
H889 C902 0.961 . S
H890 C902 0.959 . S
H891 C905 0.929 . S
H892 C906 0.931 . S
H893 C908 0.930 . S
C894 H882 0.930 . S
C894 C895 1.399 . S
C894 C899 1.399 . S
C895 C894 1.399 . S
C895 C896 1.376 . S
C896 H883 0.930 . S
C896 C895 1.376 . S
C896 C897 1.388 . S
C897 H884 0.930 . S
C897 C896 1.388 . S
C897 C898 1.390 . S
C898 C897 1.390 . S
C898 C899 1.394 . S
C898 C904 1.465 1_545 S
C899 C894 1.399 . S
C899 C898 1.394 . S
C899 C900 1.516 . S
C900 C899 1.516 . S
C900 C901 1.502 1_545 S
C900 C902 1.561 . S
C900 C903 1.526 1_545 S
C901 H885 0.959 . S
C901 H886 0.959 . S
C901 H887 0.961 1_565 S
C901 C900 1.502 1_565 S
C902 H888 0.960 . S
C902 H889 0.961 . S
C902 H890 0.959 . S
C902 C900 1.561 . S
C903 C900 1.526 1_565 S
C903 C904 1.396 . S
C903 C908 1.390 . S
C904 C898 1.465 1_565 S
C904 C903 1.396 . S
C904 C905 1.399 . S
C905 H891 0.929 . S
C905 C904 1.399 . S
C905 C906 1.385 . S
C906 H892 0.931 . S
C906 C905 1.385 . S
C906 C907 1.389 . S
C907 C906 1.389 . S
C907 C908 1.387 . S
C908 H893 0.930 . S
C908 C903 1.390 . S
C908 C907 1.387 . S
H909 C921 0.930 . S
H910 C923 0.930 . S
H911 C924 0.930 . S
H912 C928 0.959 . S
H913 C928 0.959 . S
H914 C928 0.961 . S
H915 C929 0.960 . S
H916 C929 0.961 . S
H917 C929 0.959 . S
H918 C932 0.929 . S
H919 C933 0.931 . S
H920 C935 0.930 . S
C921 H909 0.930 . S
C921 C922 1.399 . S
C921 C926 1.399 . S
C922 C921 1.399 . S
C922 C923 1.376 . S
C923 H910 0.930 . S
C923 C922 1.376 . S
C923 C924 1.388 . S
C924 H911 0.930 . S
C924 C923 1.388 . S
C924 C925 1.390 . S
C925 C924 1.390 . S
C925 C926 1.394 . S
C925 C931 1.428 1_546 S
C926 C921 1.399 . S
C926 C925 1.394 . S
C926 C927 1.516 1_545 S
C927 C926 1.516 1_565 S
C927 C928 1.502 1_556 S
C927 C929 1.561 . S
C927 C930 1.526 1_556 S
C928 H912 0.959 . S
C928 H913 0.959 . S
C928 H914 0.961 . S
C928 C927 1.502 1_554 S
C929 H915 0.960 . S
C929 H916 0.961 . S
C929 H917 0.959 . S
C929 C927 1.561 . S
C930 C927 1.526 1_554 S
C930 C931 1.418 . S
C930 C935 1.390 . S
C931 C925 1.428 1_564 S
C931 C930 1.418 . S
C931 C932 1.417 1_565 S
C932 H918 0.929 . S
C932 C931 1.417 1_545 S
C932 C933 1.385 1_545 S
C933 H919 0.931 . S
C933 C932 1.385 1_565 S
C933 C934 1.389 . S
C934 C933 1.389 . S
C934 C935 1.387 . S
C935 H920 0.930 . S
C935 C930 1.390 . S
C935 C934 1.387 . S
H936 C948 0.930 . S
H937 C950 0.930 . S
H938 C951 0.930 . S
H939 C955 0.959 . S
H940 C955 0.959 . S
H941 C955 0.961 . S
H942 C956 0.960 . S
H943 C956 0.961 . S
H944 C956 0.959 1_455 S
H945 C959 0.929 . S
H946 C960 0.931 . S
H947 C962 0.930 . S
C948 H936 0.930 . S
C948 C949 1.399 . S
C948 C953 1.399 . S
C949 C948 1.399 . S
C949 C950 1.376 . S
C950 H937 0.930 . S
C950 C949 1.376 . S
C950 C951 1.388 1_655 S
C951 H938 0.930 . S
C951 C950 1.388 1_455 S
C951 C952 1.392 . S
C952 C951 1.392 . S
C952 C953 1.384 1_455 S
C952 C958 1.471 . S
C953 C948 1.399 . S
C953 C952 1.384 1_655 S
C953 C954 1.516 1_556 S
C954 C953 1.516 1_554 S
C954 C955 1.502 . S
C954 C956 1.561 . S
C954 C957 1.526 1_655 S
C955 H939 0.959 . S
C955 H940 0.959 . S
C955 H941 0.961 . S
C955 C954 1.502 . S
C956 H942 0.960 . S
C956 H943 0.961 . S
C956 H944 0.959 1_655 S
C956 C954 1.561 . S
C957 C954 1.526 1_455 S
C957 C958 1.396 1_554 S
C957 C962 1.390 . S
C958 C952 1.471 . S
C958 C957 1.396 1_556 S
C958 C959 1.399 . S
C959 H945 0.929 . S
C959 C958 1.399 . S
C959 C960 1.385 1_556 S
C960 H946 0.931 . S
C960 C959 1.385 1_554 S
C960 C961 1.389 . S
C961 C960 1.389 . S
C961 C962 1.387 . S
C962 H947 0.930 . S
C962 C957 1.390 . S
C962 C961 1.387 . S
H963 C975 0.930 . S
H964 C977 0.930 . S
H965 C978 0.930 . S
H966 C982 0.959 . S
H967 C982 0.959 . S
H968 C982 0.961 . S
H969 C983 0.960 . S
H970 C983 0.961 . S
H971 C983 0.959 . S
H972 C986 0.949 . S
H973 C987 0.931 . S
H974 C989 0.930 . S
C975 H963 0.930 . S
C975 C976 1.399 . S
C975 C980 1.399 . S
C976 C975 1.399 . S
C976 C977 1.376 . S
C977 H964 0.930 . S
C977 C976 1.376 . S
C977 C978 1.388 . S
C978 H965 0.930 . S
C978 C977 1.388 . S
C978 C979 1.390 . S
C979 C978 1.390 . S
C979 C980 1.394 . S
C979 C985 1.465 1_556 S
C980 C975 1.399 . S
C980 C979 1.394 . S
C980 C981 1.516 1_556 S
C981 C980 1.516 1_554 S
C981 C982 1.502 . S
C981 C983 1.561 . S
C981 C984 1.526 . S
C982 H966 0.959 . S
C982 H967 0.959 . S
C982 H968 0.961 . S
C982 C981 1.502 . S
C983 H969 0.960 . S
C983 H970 0.961 . S
C983 H971 0.959 . S
C983 C981 1.561 . S
C984 C981 1.526 . S
C984 C985 1.396 . S
C984 C989 1.390 . S
C985 C979 1.465 1_554 S
C985 C984 1.396 . S
C985 C986 1.397 1_554 S
C986 H972 0.949 . S
C986 C985 1.397 1_556 S
C986 C987 1.367 1_556 S
C987 H973 0.931 . S
C987 C986 1.367 1_554 S
C987 C988 1.389 . S
C988 C987 1.389 . S
C988 C989 1.387 . S
C989 H974 0.930 . S
C989 C984 1.390 . S
C989 C988 1.387 . S
H990 C1002 0.930 . S
H991 C1004 0.898 1_565 S
H992 C1005 0.930 . S
H993 C1009 0.959 . S
H994 C1009 0.959 . S
H995 C1009 0.961 . S
H996 C1010 0.960 . S
H997 C1010 0.961 . S
H998 C1010 0.959 . S
H999 C1013 0.929 . S
H1000 C1014 0.931 . S
H1001 C1016 0.930 . S
C1002 H990 0.930 . S
C1002 C1003 1.399 . S
C1002 C1007 1.399 . S
C1003 C1002 1.399 . S
C1003 C1004 1.379 1_556 S
C1004 H991 0.898 1_545 S
C1004 C1003 1.379 1_554 S
C1004 C1005 1.419 . S
C1005 H992 0.930 . S
C1005 C1004 1.419 . S
C1005 C1006 1.390 . S
C1006 C1005 1.390 . S
C1006 C1007 1.394 1_554 S
C1006 C1012 1.465 . S
C1007 C1002 1.399 . S
C1007 C1006 1.394 1_556 S
C1007 C1008 1.516 . S
C1008 C1007 1.516 . S
C1008 C1009 1.502 . S
C1008 C1010 1.561 . S
C1008 C1011 1.526 1_556 S
C1009 H993 0.959 . S
C1009 H994 0.959 . S
C1009 H995 0.961 . S
C1009 C1008 1.502 . S
C1010 H996 0.960 . S
C1010 H997 0.961 . S
C1010 H998 0.959 . S
C1010 C1008 1.561 . S
C1011 C1008 1.526 1_554 S
C1011 C1012 1.396 . S
C1011 C1016 1.390 . S
C1012 C1006 1.465 . S
C1012 C1011 1.396 . S
C1012 C1013 1.399 . S
C1013 H999 0.929 . S
C1013 C1012 1.399 . S
C1013 C1014 1.385 . S
C1014 H1000 0.931 . S
C1014 C1013 1.385 . S
C1014 C1015 1.389 . S
C1015 C1014 1.389 . S
C1015 C1016 1.387 . S
C1016 H1001 0.930 . S
C1016 C1011 1.390 . S
C1016 C1015 1.387 . S
H1017 C1029 0.930 . S
H1018 C1031 0.930 1_455 S
H1019 C1032 0.930 . S
H1020 C1036 0.959 . S
H1021 C1036 0.959 . S
H1022 C1036 0.961 . S
H1023 C1037 0.960 . S
H1024 C1037 0.961 . S
H1025 C1037 0.959 . S
H1026 C1040 0.929 . S
H1027 C1041 0.931 . S
H1028 C1043 0.930 . S
C1029 H1017 0.930 . S
C1029 C1030 1.399 . S
C1029 C1034 1.399 . S
C1030 C1029 1.399 . S
C1030 C1031 1.376 1_556 S
C1031 H1018 0.930 1_655 S
C1031 C1030 1.376 1_554 S
C1031 C1032 1.388 . S
C1032 H1019 0.930 . S
C1032 C1031 1.388 . S
C1032 C1033 1.390 . S
C1033 C1032 1.390 . S
C1033 C1034 1.394 1_554 S
C1033 C1039 1.465 . S
C1034 C1029 1.399 . S
C1034 C1033 1.394 1_556 S
C1034 C1035 1.516 . S
C1035 C1034 1.516 . S
C1035 C1036 1.502 . S
C1035 C1037 1.561 . S
C1035 C1038 1.526 1_556 S
C1036 H1020 0.959 . S
C1036 H1021 0.959 . S
C1036 H1022 0.961 . S
C1036 C1035 1.502 . S
C1037 H1023 0.960 . S
C1037 H1024 0.961 . S
C1037 H1025 0.959 . S
C1037 C1035 1.561 . S
C1038 C1035 1.526 1_554 S
C1038 C1039 1.396 . S
C1038 C1043 1.390 . S
C1039 C1033 1.465 . S
C1039 C1038 1.396 . S
C1039 C1040 1.399 . S
C1040 H1026 0.929 . S
C1040 C1039 1.399 . S
C1040 C1041 1.385 . S
C1041 H1027 0.931 . S
C1041 C1040 1.385 . S
C1041 C1042 1.389 . S
C1042 C1041 1.389 . S
C1042 C1043 1.387 . S
C1043 H1028 0.930 . S
C1043 C1038 1.390 . S
C1043 C1042 1.387 . S
H1044 C1056 0.930 . S
H1045 C1058 0.930 . S
H1046 C1059 0.930 1_556 S
H1047 C1063 0.959 . S
H1048 C1063 0.959 . S
H1049 C1063 0.961 . S
H1050 C1064 0.960 . S
H1051 C1064 0.961 . S
H1052 C1064 0.959 1_556 S
H1053 C1067 0.929 . S
H1054 C1068 0.931 . S
H1055 C1070 0.930 . S
C1056 H1044 0.930 . S
C1056 C1057 1.399 . S
C1056 C1061 1.399 . S
C1057 C1056 1.399 . S
C1057 C1058 1.376 . S
C1058 H1045 0.930 . S
C1058 C1057 1.376 . S
C1058 C1059 1.388 . S
C1059 H1046 0.930 1_554 S
C1059 C1058 1.388 . S
C1059 C1060 1.390 . S
C1060 C1059 1.390 . S
C1060 C1061 1.394 . S
C1060 C1066 1.465 1_554 S
C1061 C1056 1.399 . S
C1061 C1060 1.394 . S
C1061 C1062 1.516 . S
C1062 C1061 1.516 . S
C1062 C1063 1.502 . S
C1062 C1064 1.561 . S
C1062 C1065 1.548 . S
C1063 H1047 0.959 . S
C1063 H1048 0.959 . S
C1063 H1049 0.961 . S
C1063 C1062 1.502 . S
C1064 H1050 0.960 . S
C1064 H1051 0.961 . S
C1064 H1052 0.959 1_554 S
C1064 C1062 1.561 . S
C1065 C1062 1.548 . S
C1065 C1066 1.387 1_554 S
C1065 C1070 1.377 1_554 S
C1066 C1060 1.465 1_556 S
C1066 C1065 1.387 1_556 S
C1066 C1067 1.399 . S
C1067 H1053 0.929 . S
C1067 C1066 1.399 . S
C1067 C1068 1.385 . S
C1068 H1054 0.931 . S
C1068 C1067 1.385 . S
C1068 C1069 1.389 . S
C1069 C1068 1.389 . S
C1069 C1070 1.387 . S
C1070 H1055 0.930 . S
C1070 C1065 1.377 1_556 S
C1070 C1069 1.387 . S
H1071 C1083 0.930 . S
H1072 C1085 0.930 . S
H1073 C1086 0.930 . S
H1074 C1090 0.959 . S
H1075 C1090 0.959 . S
H1076 C1090 0.961 . S
H1077 C1091 0.960 . S
H1078 C1091 0.961 . S
H1079 C1091 0.959 . S
H1080 C1094 0.929 . S
H1081 C1095 0.931 . S
H1082 C1097 0.930 . S
C1083 H1071 0.930 . S
C1083 C1084 1.399 . S
C1083 C1088 1.399 . S
C1084 C1083 1.399 . S
C1084 C1085 1.376 . S
C1085 H1072 0.930 . S
C1085 C1084 1.376 . S
C1085 C1086 1.388 . S
C1086 H1073 0.930 . S
C1086 C1085 1.388 . S
C1086 C1087 1.390 . S
C1087 C1086 1.390 . S
C1087 C1088 1.394 . S
C1087 C1093 1.465 . S
C1088 C1083 1.399 . S
C1088 C1087 1.394 . S
C1088 C1089 1.516 . S
C1089 C1088 1.516 . S
C1089 C1090 1.502 . S
C1089 C1091 1.561 . S
C1089 C1092 1.526 . S
C1090 H1074 0.959 . S
C1090 H1075 0.959 . S
C1090 H1076 0.961 . S
C1090 C1089 1.502 . S
C1091 H1077 0.960 . S
C1091 H1078 0.961 . S
C1091 H1079 0.959 . S
C1091 C1089 1.561 . S
C1092 C1089 1.526 . S
C1092 C1093 1.396 . S
C1092 C1097 1.390 . S
C1093 C1087 1.465 . S
C1093 C1092 1.396 . S
C1093 C1094 1.399 . S
C1094 H1080 0.929 . S
C1094 C1093 1.399 . S
C1094 C1095 1.385 . S
C1095 H1081 0.931 . S
C1095 C1094 1.385 . S
C1095 C1096 1.389 . S
C1096 C1095 1.389 . S
C1096 C1097 1.387 . S
C1097 H1082 0.930 . S
C1097 C1092 1.390 . S
C1097 C1096 1.387 . S
H1098 C1110 0.930 . S
H1099 C1112 0.930 . S
H1100 C1113 0.930 . S
H1101 C1117 0.959 . S
H1102 C1117 0.959 . S
H1103 C1117 0.961 . S
H1104 C1118 0.960 . S
H1105 C1118 0.961 . S
H1106 C1118 0.959 . S
H1107 C1121 0.929 . S
H1108 C1122 0.931 . S
H1109 C1124 0.930 . S
C1110 H1098 0.930 . S
C1110 C1111 1.399 . S
C1110 C1115 1.399 . S
C1111 C1110 1.399 . S
C1111 C1112 1.376 . S
C1112 H1099 0.930 . S
C1112 C1111 1.376 . S
C1112 C1113 1.388 . S
C1113 H1100 0.930 . S
C1113 C1112 1.388 . S
C1113 C1114 1.390 . S
C1114 C1113 1.390 . S
C1114 C1115 1.394 . S
C1114 C1120 1.465 . S
C1115 C1110 1.399 . S
C1115 C1114 1.394 . S
C1115 C1116 1.516 . S
C1116 C1115 1.516 . S
C1116 C1117 1.502 . S
C1116 C1118 1.561 . S
C1116 C1119 1.526 . S
C1117 H1101 0.959 . S
C1117 H1102 0.959 . S
C1117 H1103 0.961 . S
C1117 C1116 1.502 . S
C1118 H1104 0.960 . S
C1118 H1105 0.961 . S
C1118 H1106 0.959 . S
C1118 C1116 1.561 . S
C1119 C1116 1.526 . S
C1119 C1120 1.396 . S
C1119 C1124 1.390 . S
C1120 C1114 1.465 . S
C1120 C1119 1.396 . S
C1120 C1121 1.399 . S
C1121 H1107 0.929 . S
C1121 C1120 1.399 . S
C1121 C1122 1.385 . S
C1122 H1108 0.931 . S
C1122 C1121 1.385 . S
C1122 C1123 1.389 . S
C1123 C1122 1.389 . S
C1123 C1124 1.387 . S
C1124 H1109 0.930 . S
C1124 C1119 1.390 . S
C1124 C1123 1.387 . S
H1125 C1137 0.897 1_545 S
H1126 C1139 0.930 . S
H1127 C1140 0.930 . S
H1128 C1144 0.959 . S
H1129 C1144 0.959 . S
H1130 C1144 0.961 . S
H1131 C1145 0.960 . S
H1132 C1145 0.961 . S
H1133 C1145 0.959 . S
H1134 C1148 0.929 . S
H1135 C1149 0.931 . S
H1136 C1151 0.930 . S
C1137 H1125 0.897 1_565 S
C1137 C1138 1.399 . S
C1137 C1142 1.399 . S
C1138 C1137 1.399 . S
C1138 C1139 1.376 . S
C1139 H1126 0.930 . S
C1139 C1138 1.376 . S
C1139 C1140 1.388 . S
C1140 H1127 0.930 . S
C1140 C1139 1.388 . S
C1140 C1141 1.390 . S
C1141 C1140 1.390 . S
C1141 C1142 1.394 . S
C1141 C1147 1.465 . S
C1142 C1137 1.399 . S
C1142 C1141 1.394 . S
C1142 C1143 1.516 . S
C1143 C1142 1.516 . S
C1143 C1144 1.502 . S
C1143 C1145 1.561 . S
C1143 C1146 1.526 . S
C1144 H1128 0.959 . S
C1144 H1129 0.959 . S
C1144 H1130 0.961 . S
C1144 C1143 1.502 . S
C1145 H1131 0.960 . S
C1145 H1132 0.961 . S
C1145 H1133 0.959 . S
C1145 C1143 1.561 . S
C1146 C1143 1.526 . S
C1146 C1147 1.396 . S
C1146 C1151 1.390 . S
C1147 C1141 1.465 . S
C1147 C1146 1.396 . S
C1147 C1148 1.399 . S
C1148 H1134 0.929 . S
C1148 C1147 1.399 . S
C1148 C1149 1.385 . S
C1149 H1135 0.931 . S
C1149 C1148 1.385 . S
C1149 C1150 1.389 . S
C1150 C1149 1.389 . S
C1150 C1151 1.387 . S
C1151 H1136 0.930 . S
C1151 C1146 1.390 . S
C1151 C1150 1.387 . S
H1152 C1164 0.930 . S
H1153 C1166 0.930 . S
H1154 C1167 0.930 1_554 S
H1155 C1171 0.959 . S
H1156 C1171 0.959 . S
H1157 C1171 0.961 . S
H1158 C1172 0.960 . S
H1159 C1172 0.961 . S
H1160 C1172 0.959 . S
H1161 C1175 0.929 . S
H1162 C1176 0.931 . S
H1163 C1178 0.908 1_546 S
C1164 H1152 0.930 . S
C1164 C1165 1.399 . S
C1164 C1169 1.399 . S
C1165 C1164 1.399 . S
C1165 C1166 1.376 . S
C1166 H1153 0.930 . S
C1166 C1165 1.376 . S
C1166 C1167 1.388 . S
C1167 H1154 0.930 1_556 S
C1167 C1166 1.388 . S
C1167 C1168 1.390 . S
C1168 C1167 1.390 . S
C1168 C1169 1.394 . S
C1168 C1174 1.465 1_556 S
C1169 C1164 1.399 . S
C1169 C1168 1.394 . S
C1169 C1170 1.516 . S
C1170 C1169 1.516 . S
C1170 C1171 1.502 . S
C1170 C1172 1.561 . S
C1170 C1173 1.526 . S
C1171 H1155 0.959 . S
C1171 H1156 0.959 . S
C1171 H1157 0.961 . S
C1171 C1170 1.502 . S
C1172 H1158 0.960 . S
C1172 H1159 0.961 . S
C1172 H1160 0.959 . S
C1172 C1170 1.561 . S
C1173 C1170 1.526 . S
C1173 C1174 1.396 1_556 S
C1173 C1178 1.390 1_556 S
C1174 C1168 1.465 1_554 S
C1174 C1173 1.396 1_554 S
C1174 C1175 1.399 . S
C1175 H1161 0.929 . S
C1175 C1174 1.399 . S
C1175 C1176 1.385 . S
C1176 H1162 0.931 . S
C1176 C1175 1.385 . S
C1176 C1177 1.389 . S
C1177 C1176 1.389 . S
C1177 C1178 1.387 . S
C1178 H1163 0.908 1_564 S
C1178 C1173 1.390 1_554 S
C1178 C1177 1.387 . S
H1179 C1191 0.930 . S
H1180 C1193 0.930 . S
H1181 C1194 0.930 . S
H1182 C1198 0.959 . S
H1183 C1198 0.959 . S
H1184 C1198 0.961 . S
H1185 C1199 0.960 . S
H1186 C1199 0.961 . S
H1187 C1199 0.959 . S
H1188 C1202 0.929 . S
H1189 C1203 0.931 . S
H1190 C1205 0.930 1_556 S
C1191 H1179 0.930 . S
C1191 C1192 1.399 . S
C1191 C1196 1.399 . S
C1192 C1191 1.399 . S
C1192 C1193 1.376 . S
C1193 H1180 0.930 . S
C1193 C1192 1.376 . S
C1193 C1194 1.388 1_556 S
C1194 H1181 0.930 . S
C1194 C1193 1.388 1_554 S
C1194 C1195 1.390 1_554 S
C1195 C1194 1.390 1_556 S
C1195 C1196 1.394 . S
C1195 C1201 1.465 1_556 S
C1196 C1191 1.399 . S
C1196 C1195 1.394 . S
C1196 C1197 1.516 . S
C1197 C1196 1.516 . S
C1197 C1198 1.502 . S
C1197 C1199 1.561 . S
C1197 C1200 1.526 . S
C1198 H1182 0.959 . S
C1198 H1183 0.959 . S
C1198 H1184 0.961 . S
C1198 C1197 1.502 . S
C1199 H1185 0.960 . S
C1199 H1186 0.961 . S
C1199 H1187 0.959 . S
C1199 C1197 1.561 . S
C1200 C1197 1.526 . S
C1200 C1201 1.396 1_556 S
C1200 C1205 1.390 1_556 S
C1201 C1195 1.465 1_554 S
C1201 C1200 1.396 1_554 S
C1201 C1202 1.399 . S
C1202 H1188 0.929 . S
C1202 C1201 1.399 . S
C1202 C1203 1.385 . S
C1203 H1189 0.931 . S
C1203 C1202 1.385 . S
C1203 C1204 1.389 . S
C1204 C1203 1.389 . S
C1204 C1205 1.387 . S
C1205 H1190 0.930 1_554 S
C1205 C1200 1.390 1_554 S
C1205 C1204 1.387 . S
H1206 C1218 0.930 . S
H1207 C1220 0.930 . S
H1208 C1221 0.930 . S
H1209 C1225 0.959 . S
H1210 C1225 0.959 . S
H1211 C1225 0.961 . S
H1212 C1226 0.960 . S
H1213 C1226 0.961 . S
H1214 C1226 0.959 . S
H1215 C1229 0.940 . S
H1216 C1230 0.931 . S
H1217 C1232 0.930 . S
C1218 H1206 0.930 . S
C1218 C1219 1.399 . S
C1218 C1223 1.399 . S
C1219 C1218 1.399 . S
C1219 C1220 1.376 . S
C1220 H1207 0.930 . S
C1220 C1219 1.376 . S
C1220 C1221 1.388 . S
C1221 H1208 0.930 . S
C1221 C1220 1.388 . S
C1221 C1222 1.390 . S
C1222 C1221 1.390 . S
C1222 C1223 1.394 . S
C1222 C1228 1.465 . S
C1223 C1218 1.399 . S
C1223 C1222 1.394 . S
C1223 C1224 1.516 . S
C1224 C1223 1.516 . S
C1224 C1225 1.502 1_556 S
C1224 C1226 1.561 . S
C1224 C1227 1.526 1_556 S
C1225 H1209 0.959 . S
C1225 H1210 0.959 . S
C1225 H1211 0.961 . S
C1225 C1224 1.502 1_554 S
C1226 H1212 0.960 . S
C1226 H1213 0.961 . S
C1226 H1214 0.959 . S
C1226 C1224 1.561 . S
C1227 C1224 1.526 1_554 S
C1227 C1228 1.396 1_554 S
C1227 C1232 1.390 . S
C1228 C1222 1.465 . S
C1228 C1227 1.396 1_556 S
C1228 C1229 1.404 . S
C1229 H1215 0.940 . S
C1229 C1228 1.404 . S
C1229 C1230 1.369 1_556 S
C1230 H1216 0.931 . S
C1230 C1229 1.369 1_554 S
C1230 C1231 1.389 . S
C1231 C1230 1.389 . S
C1231 C1232 1.387 . S
C1232 H1217 0.930 . S
C1232 C1227 1.390 . S
C1232 C1231 1.387 . S
H1233 C1245 0.930 . S
H1234 C1247 0.930 . S
H1235 C1248 0.930 . S
H1236 C1252 0.959 . S
H1237 C1252 0.959 . S
H1238 C1252 0.961 . S
H1239 C1253 0.960 . S
H1240 C1253 0.961 . S
H1241 C1253 0.959 . S
H1242 C1256 0.929 . S
H1243 C1257 0.931 . S
H1244 C1259 0.930 . S
C1245 H1233 0.930 . S
C1245 C1246 1.399 . S
C1245 C1250 1.399 . S
C1246 C1245 1.399 . S
C1246 C1247 1.376 . S
C1247 H1234 0.930 . S
C1247 C1246 1.376 . S
C1247 C1248 1.388 . S
C1248 H1235 0.930 . S
C1248 C1247 1.388 . S
C1248 C1249 1.390 . S
C1249 C1248 1.390 . S
C1249 C1250 1.394 . S
C1249 C1255 1.465 . S
C1250 C1245 1.399 . S
C1250 C1249 1.394 . S
C1250 C1251 1.516 . S
C1251 C1250 1.516 . S
C1251 C1252 1.502 . S
C1251 C1253 1.561 . S
C1251 C1254 1.526 . S
C1252 H1236 0.959 . S
C1252 H1237 0.959 . S
C1252 H1238 0.961 . S
C1252 C1251 1.502 . S
C1253 H1239 0.960 . S
C1253 H1240 0.961 . S
C1253 H1241 0.959 . S
C1253 C1251 1.561 . S
C1254 C1251 1.526 . S
C1254 C1255 1.396 . S
C1254 C1259 1.390 . S
C1255 C1249 1.465 . S
C1255 C1254 1.396 . S
C1255 C1256 1.399 . S
C1256 H1242 0.929 . S
C1256 C1255 1.399 . S
C1256 C1257 1.385 . S
C1257 H1243 0.931 . S
C1257 C1256 1.385 . S
C1257 C1258 1.389 . S
C1258 C1257 1.389 . S
C1258 C1259 1.387 . S
C1259 H1244 0.930 . S
C1259 C1254 1.390 . S
C1259 C1258 1.387 . S
H1260 C1272 0.930 . S
H1261 C1274 0.930 . S
H1262 C1275 0.930 . S
H1263 C1279 0.959 . S
H1264 C1279 0.959 . S
H1265 C1279 0.961 . S
H1266 C1280 0.960 . S
H1267 C1280 0.961 . S
H1268 C1280 0.959 . S
H1269 C1283 0.929 . S
H1270 C1284 0.931 . S
H1271 C1286 0.930 . S
C1272 H1260 0.930 . S
C1272 C1273 1.399 . S
C1272 C1277 1.399 . S
C1273 C1272 1.399 . S
C1273 C1274 1.376 . S
C1274 H1261 0.930 . S
C1274 C1273 1.376 . S
C1274 C1275 1.388 . S
C1275 H1262 0.930 . S
C1275 C1274 1.388 . S
C1275 C1276 1.390 . S
C1276 C1275 1.390 . S
C1276 C1277 1.394 . S
C1276 C1282 1.465 . S
C1277 C1272 1.399 . S
C1277 C1276 1.394 . S
C1277 C1278 1.516 . S
C1278 C1277 1.516 . S
C1278 C1279 1.502 . S
C1278 C1280 1.561 . S
C1278 C1281 1.526 . S
C1279 H1263 0.959 . S
C1279 H1264 0.959 . S
C1279 H1265 0.961 . S
C1279 C1278 1.502 . S
C1280 H1266 0.960 . S
C1280 H1267 0.961 . S
C1280 H1268 0.959 . S
C1280 C1278 1.561 . S
C1281 C1278 1.526 . S
C1281 C1282 1.396 . S
C1281 C1286 1.390 . S
C1282 C1276 1.465 . S
C1282 C1281 1.396 . S
C1282 C1283 1.399 . S
C1283 H1269 0.929 . S
C1283 C1282 1.399 . S
C1283 C1284 1.385 . S
C1284 H1270 0.931 . S
C1284 C1283 1.385 . S
C1284 C1285 1.389 . S
C1285 C1284 1.389 . S
C1285 C1286 1.387 . S
C1286 H1271 0.930 . S
C1286 C1281 1.390 . S
C1286 C1285 1.387 . S
H1287 C1299 0.930 . S
H1288 C1301 0.930 . S
H1289 C1302 0.930 . S
H1290 C1306 0.959 . S
H1291 C1306 0.959 . S
H1292 C1306 0.961 . S
H1293 C1307 0.960 . S
H1294 C1307 0.961 . S
H1295 C1307 0.959 . S
H1296 C1310 0.929 . S
H1297 C1311 0.931 . S
H1298 C1313 0.930 . S
C1299 H1287 0.930 . S
C1299 C1300 1.399 . S
C1299 C1304 1.399 . S
C1300 C1299 1.399 . S
C1300 C1301 1.376 . S
C1301 H1288 0.930 . S
C1301 C1300 1.376 . S
C1301 C1302 1.388 . S
C1302 H1289 0.930 . S
C1302 C1301 1.388 . S
C1302 C1303 1.390 . S
C1303 C1302 1.390 . S
C1303 C1304 1.394 . S
C1303 C1309 1.465 . S
C1304 C1299 1.399 . S
C1304 C1303 1.394 . S
C1304 C1305 1.516 . S
C1305 C1304 1.516 . S
C1305 C1306 1.502 . S
C1305 C1307 1.561 . S
C1305 C1308 1.526 . S
C1306 H1290 0.959 . S
C1306 H1291 0.959 . S
C1306 H1292 0.961 . S
C1306 C1305 1.502 . S
C1307 H1293 0.960 . S
C1307 H1294 0.961 . S
C1307 H1295 0.959 . S
C1307 C1305 1.561 . S
C1308 C1305 1.526 . S
C1308 C1309 1.396 . S
C1308 C1313 1.390 . S
C1309 C1303 1.465 . S
C1309 C1308 1.396 . S
C1309 C1310 1.399 . S
C1310 H1296 0.929 . S
C1310 C1309 1.399 . S
C1310 C1311 1.385 . S
C1311 H1297 0.931 . S
C1311 C1310 1.385 . S
C1311 C1312 1.389 . S
C1312 C1311 1.389 . S
C1312 C1313 1.387 . S
C1313 H1298 0.930 . S
C1313 C1308 1.390 . S
C1313 C1312 1.387 . S
H1314 C1326 0.930 . S
H1315 C1328 0.930 . S
H1316 C1329 0.930 . S
H1317 C1333 0.959 . S
H1318 C1333 0.959 . S
H1319 C1333 0.961 . S
H1320 C1334 0.960 . S
H1321 C1334 0.961 . S
H1322 C1334 0.959 . S
H1323 C1337 0.929 . S
H1324 C1338 0.931 . S
H1325 C1340 0.930 . S
C1326 H1314 0.930 . S
C1326 C1327 1.399 . S
C1326 C1331 1.399 . S
C1327 C1326 1.399 . S
C1327 C1328 1.376 . S
C1328 H1315 0.930 . S
C1328 C1327 1.376 . S
C1328 C1329 1.388 . S
C1329 H1316 0.930 . S
C1329 C1328 1.388 . S
C1329 C1330 1.390 . S
C1330 C1329 1.390 . S
C1330 C1331 1.394 . S
C1330 C1336 1.465 . S
C1331 C1326 1.399 . S
C1331 C1330 1.394 . S
C1331 C1332 1.516 . S
C1332 C1331 1.516 . S
C1332 C1333 1.502 . S
C1332 C1334 1.561 . S
C1332 C1335 1.526 . S
C1333 H1317 0.959 . S
C1333 H1318 0.959 . S
C1333 H1319 0.961 . S
C1333 C1332 1.502 . S
C1334 H1320 0.960 . S
C1334 H1321 0.961 . S
C1334 H1322 0.959 . S
C1334 C1332 1.561 . S
C1335 C1332 1.526 . S
C1335 C1336 1.396 . S
C1335 C1340 1.390 . S
C1336 C1330 1.465 . S
C1336 C1335 1.396 . S
C1336 C1337 1.399 . S
C1337 H1323 0.929 . S
C1337 C1336 1.399 . S
C1337 C1338 1.385 . S
C1338 H1324 0.931 . S
C1338 C1337 1.385 . S
C1338 C1339 1.389 . S
C1339 C1338 1.389 . S
C1339 C1340 1.387 . S
C1340 H1325 0.930 . S
C1340 C1335 1.390 . S
C1340 C1339 1.387 . S
H1341 C1353 0.930 . S
H1342 C1355 0.930 . S
H1343 C1356 0.930 . S
H1344 C1360 0.959 . S
H1345 C1360 0.959 . S
H1346 C1360 0.961 . S
H1347 C1361 0.960 . S
H1348 C1361 0.961 . S
H1349 C1361 0.959 . S
H1350 C1364 0.929 . S
H1351 C1365 0.931 . S
H1352 C1367 0.930 . S
C1353 H1341 0.930 . S
C1353 C1354 1.399 . S
C1353 C1358 1.399 . S
C1354 C1353 1.399 . S
C1354 C1355 1.376 . S
C1355 H1342 0.930 . S
C1355 C1354 1.376 . S
C1355 C1356 1.388 . S
C1356 H1343 0.930 . S
C1356 C1355 1.388 . S
C1356 C1357 1.390 . S
C1357 C1356 1.390 . S
C1357 C1358 1.394 . S
C1357 C1363 1.465 . S
C1358 C1353 1.399 . S
C1358 C1357 1.394 . S
C1358 C1359 1.516 . S
C1359 C1358 1.516 . S
C1359 C1360 1.502 . S
C1359 C1361 1.561 . S
C1359 C1362 1.526 . S
C1360 H1344 0.959 . S
C1360 H1345 0.959 . S
C1360 H1346 0.961 . S
C1360 C1359 1.502 . S
C1361 H1347 0.960 . S
C1361 H1348 0.961 . S
C1361 H1349 0.959 . S
C1361 C1359 1.561 . S
C1362 C1359 1.526 . S
C1362 C1363 1.396 . S
C1362 C1367 1.390 . S
C1363 C1357 1.465 . S
C1363 C1362 1.396 . S
C1363 C1364 1.399 . S
C1364 H1350 0.929 . S
C1364 C1363 1.399 . S
C1364 C1365 1.385 . S
C1365 H1351 0.931 . S
C1365 C1364 1.385 . S
C1365 C1366 1.389 . S
C1366 C1365 1.389 . S
C1366 C1367 1.387 . S
C1367 H1352 0.930 . S
C1367 C1362 1.390 . S
C1367 C1366 1.387 . S
H1368 C1380 0.930 . S
H1369 C1382 0.930 . S
H1370 C1383 0.930 . S
H1371 C1387 0.959 . S
H1372 C1387 0.959 . S
H1373 C1387 0.961 . S
H1374 C1388 0.960 . S
H1375 C1388 0.961 . S
H1376 C1388 0.959 . S
H1377 C1391 0.929 . S
H1378 C1392 0.931 . S
H1379 C1394 0.930 . S
C1380 H1368 0.930 . S
C1380 C1381 1.399 . S
C1380 C1385 1.399 . S
C1381 C1380 1.399 . S
C1381 C1382 1.376 . S
C1382 H1369 0.930 . S
C1382 C1381 1.376 . S
C1382 C1383 1.388 . S
C1383 H1370 0.930 . S
C1383 C1382 1.388 . S
C1383 C1384 1.390 . S
C1384 C1383 1.390 . S
C1384 C1385 1.394 . S
C1384 C1390 1.465 . S
C1385 C1380 1.399 . S
C1385 C1384 1.394 . S
C1385 C1386 1.516 . S
C1386 C1385 1.516 . S
C1386 C1387 1.502 . S
C1386 C1388 1.561 . S
C1386 C1389 1.526 . S
C1387 H1371 0.959 . S
C1387 H1372 0.959 . S
C1387 H1373 0.961 . S
C1387 C1386 1.502 . S
C1388 H1374 0.960 . S
C1388 H1375 0.961 . S
C1388 H1376 0.959 . S
C1388 C1386 1.561 . S
C1389 C1386 1.526 . S
C1389 C1390 1.396 . S
C1389 C1394 1.390 . S
C1390 C1384 1.465 . S
C1390 C1389 1.396 . S
C1390 C1391 1.399 . S
C1391 H1377 0.929 . S
C1391 C1390 1.399 . S
C1391 C1392 1.385 . S
C1392 H1378 0.931 . S
C1392 C1391 1.385 . S
C1392 C1393 1.389 . S
C1393 C1392 1.389 . S
C1393 C1394 1.387 . S
C1394 H1379 0.930 . S
C1394 C1389 1.390 . S
C1394 C1393 1.387 . S
H1395 C1407 0.930 . S
H1396 C1409 0.930 . S
H1397 C1410 0.930 . S
H1398 C1414 0.959 . S
H1399 C1414 0.959 . S
H1400 C1414 0.961 . S
H1401 C1415 0.960 . S
H1402 C1415 0.961 . S
H1403 C1415 0.959 . S
H1404 C1418 0.929 . S
H1405 C1419 0.931 . S
H1406 C1421 0.930 . S
C1407 H1395 0.930 . S
C1407 C1408 1.399 . S
C1407 C1412 1.399 . S
C1408 C1407 1.399 . S
C1408 C1409 1.376 . S
C1409 H1396 0.930 . S
C1409 C1408 1.376 . S
C1409 C1410 1.388 . S
C1410 H1397 0.930 . S
C1410 C1409 1.388 . S
C1410 C1411 1.390 . S
C1411 C1410 1.390 . S
C1411 C1412 1.394 . S
C1411 C1417 1.465 . S
C1412 C1407 1.399 . S
C1412 C1411 1.394 . S
C1412 C1413 1.516 . S
C1413 C1412 1.516 . S
C1413 C1414 1.502 . S
C1413 C1415 1.561 . S
C1413 C1416 1.526 . S
C1414 H1398 0.959 . S
C1414 H1399 0.959 . S
C1414 H1400 0.961 . S
C1414 C1413 1.502 . S
C1415 H1401 0.960 . S
C1415 H1402 0.961 . S
C1415 H1403 0.959 . S
C1415 C1413 1.561 . S
C1416 C1413 1.526 . S
C1416 C1417 1.396 . S
C1416 C1421 1.390 . S
C1417 C1411 1.465 . S
C1417 C1416 1.396 . S
C1417 C1418 1.399 . S
C1418 H1404 0.929 . S
C1418 C1417 1.399 . S
C1418 C1419 1.385 . S
C1419 H1405 0.931 . S
C1419 C1418 1.385 . S
C1419 C1420 1.389 . S
C1420 C1419 1.389 . S
C1420 C1421 1.387 . S
C1421 H1406 0.930 . S
C1421 C1416 1.390 . S
C1421 C1420 1.387 . S
H1422 C1434 0.930 . S
H1423 C1436 0.930 . S
H1424 C1437 0.930 . S
H1425 C1441 0.959 . S
H1426 C1441 0.959 . S
H1427 C1441 0.961 . S
H1428 C1442 0.960 . S
H1429 C1442 0.961 . S
H1430 C1442 0.959 . S
H1431 C1445 0.929 . S
H1432 C1446 0.931 . S
H1433 C1448 0.930 . S
C1434 H1422 0.930 . S
C1434 C1435 1.399 . S
C1434 C1439 1.399 . S
C1435 C1434 1.399 . S
C1435 C1436 1.376 . S
C1436 H1423 0.930 . S
C1436 C1435 1.376 . S
C1436 C1437 1.388 . S
C1437 H1424 0.930 . S
C1437 C1436 1.388 . S
C1437 C1438 1.390 . S
C1438 C1437 1.390 . S
C1438 C1439 1.394 . S
C1438 C1444 1.465 . S
C1439 C1434 1.399 . S
C1439 C1438 1.394 . S
C1439 C1440 1.516 . S
C1440 C1439 1.516 . S
C1440 C1441 1.502 . S
C1440 C1442 1.561 . S
C1440 C1443 1.526 . S
C1441 H1425 0.959 . S
C1441 H1426 0.959 . S
C1441 H1427 0.961 . S
C1441 C1440 1.502 . S
C1442 H1428 0.960 . S
C1442 H1429 0.961 . S
C1442 H1430 0.959 . S
C1442 C1440 1.561 . S
C1443 C1440 1.526 . S
C1443 C1444 1.396 . S
C1443 C1448 1.390 . S
C1444 C1438 1.465 . S
C1444 C1443 1.396 . S
C1444 C1445 1.399 . S
C1445 H1431 0.929 . S
C1445 C1444 1.399 . S
C1445 C1446 1.385 . S
C1446 H1432 0.931 . S
C1446 C1445 1.385 . S
C1446 C1447 1.389 . S
C1447 C1446 1.389 . S
C1447 C1448 1.387 . S
C1448 H1433 0.930 . S
C1448 C1443 1.390 . S
C1448 C1447 1.387 . S
H1449 C1461 0.930 . S
H1450 C1463 0.930 . S
H1451 C1464 0.930 . S
H1452 C1468 0.959 . S
H1453 C1468 0.959 . S
H1454 C1468 0.961 . S
H1455 C1469 0.960 . S
H1456 C1469 0.961 . S
H1457 C1469 0.959 . S
H1458 C1472 0.929 . S
H1459 C1473 0.931 . S
H1460 C1475 0.930 . S
C1461 H1449 0.930 . S
C1461 C1462 1.399 . S
C1461 C1466 1.399 . S
C1462 C1461 1.399 . S
C1462 C1463 1.376 . S
C1463 H1450 0.930 . S
C1463 C1462 1.376 . S
C1463 C1464 1.388 . S
C1464 H1451 0.930 . S
C1464 C1463 1.388 . S
C1464 C1465 1.390 . S
C1465 C1464 1.390 . S
C1465 C1466 1.394 . S
C1465 C1471 1.465 . S
C1466 C1461 1.399 . S
C1466 C1465 1.394 . S
C1466 C1467 1.516 . S
C1467 C1466 1.516 . S
C1467 C1468 1.502 . S
C1467 C1469 1.561 . S
C1467 C1470 1.526 . S
C1468 H1452 0.959 . S
C1468 H1453 0.959 . S
C1468 H1454 0.961 . S
C1468 C1467 1.502 . S
C1469 H1455 0.960 . S
C1469 H1456 0.961 . S
C1469 H1457 0.959 . S
C1469 C1467 1.561 . S
C1470 C1467 1.526 . S
C1470 C1471 1.396 . S
C1470 C1475 1.390 . S
C1471 C1465 1.465 . S
C1471 C1470 1.396 . S
C1471 C1472 1.399 . S
C1472 H1458 0.929 . S
C1472 C1471 1.399 . S
C1472 C1473 1.385 . S
C1473 H1459 0.931 . S
C1473 C1472 1.385 . S
C1473 C1474 1.389 . S
C1474 C1473 1.389 . S
C1474 C1475 1.387 . S
C1475 H1460 0.930 . S
C1475 C1470 1.390 . S
C1475 C1474 1.387 . S
H1476 C1488 0.930 . S
H1477 C1490 0.930 . S
H1478 C1491 0.930 . S
H1479 C1495 0.959 . S
H1480 C1495 0.959 . S
H1481 C1495 0.961 . S
H1482 C1496 0.960 . S
H1483 C1496 0.961 . S
H1484 C1496 0.959 . S
H1485 C1499 0.929 . S
H1486 C1500 0.931 . S
H1487 C1502 0.930 . S
C1488 H1476 0.930 . S
C1488 C1489 1.399 . S
C1488 C1493 1.399 . S
C1489 C1488 1.399 . S
C1489 C1490 1.376 . S
C1490 H1477 0.930 . S
C1490 C1489 1.376 . S
C1490 C1491 1.388 . S
C1491 H1478 0.930 . S
C1491 C1490 1.388 . S
C1491 C1492 1.390 . S
C1492 C1491 1.390 . S
C1492 C1493 1.394 . S
C1492 C1498 1.465 . S
C1493 C1488 1.399 . S
C1493 C1492 1.394 . S
C1493 C1494 1.516 . S
C1494 C1493 1.516 . S
C1494 C1495 1.502 . S
C1494 C1496 1.561 . S
C1494 C1497 1.526 . S
C1495 H1479 0.959 . S
C1495 H1480 0.959 . S
C1495 H1481 0.961 . S
C1495 C1494 1.502 . S
C1496 H1482 0.960 . S
C1496 H1483 0.961 . S
C1496 H1484 0.959 . S
C1496 C1494 1.561 . S
C1497 C1494 1.526 . S
C1497 C1498 1.396 . S
C1497 C1502 1.390 . S
C1498 C1492 1.465 . S
C1498 C1497 1.396 . S
C1498 C1499 1.399 . S
C1499 H1485 0.929 . S
C1499 C1498 1.399 . S
C1499 C1500 1.385 . S
C1500 H1486 0.931 . S
C1500 C1499 1.385 . S
C1500 C1501 1.389 . S
C1501 C1500 1.389 . S
C1501 C1502 1.387 . S
C1502 H1487 0.930 . S
C1502 C1497 1.390 . S
C1502 C1501 1.387 . S
H1503 C1515 0.930 . S
H1504 C1517 0.930 . S
H1505 C1518 0.930 . S
H1506 C1522 0.959 . S
H1507 C1522 0.959 . S
H1508 C1522 0.961 . S
H1509 C1523 0.960 . S
H1510 C1523 0.961 . S
H1511 C1523 0.959 . S
H1512 C1526 0.929 . S
H1513 C1527 0.931 . S
H1514 C1529 0.930 . S
C1515 H1503 0.930 . S
C1515 C1516 1.399 . S
C1515 C1520 1.399 . S
C1516 C1515 1.399 . S
C1516 C1517 1.376 . S
C1517 H1504 0.930 . S
C1517 C1516 1.376 . S
C1517 C1518 1.388 . S
C1518 H1505 0.930 . S
C1518 C1517 1.388 . S
C1518 C1519 1.390 . S
C1519 C1518 1.390 . S
C1519 C1520 1.394 . S
C1519 C1525 1.465 . S
C1520 C1515 1.399 . S
C1520 C1519 1.394 . S
C1520 C1521 1.516 . S
C1521 C1520 1.516 . S
C1521 C1522 1.502 . S
C1521 C1523 1.561 . S
C1521 C1524 1.526 . S
C1522 H1506 0.959 . S
C1522 H1507 0.959 . S
C1522 H1508 0.961 . S
C1522 C1521 1.502 . S
C1523 H1509 0.960 . S
C1523 H1510 0.961 . S
C1523 H1511 0.959 . S
C1523 C1521 1.561 . S
C1524 C1521 1.526 . S
C1524 C1525 1.396 . S
C1524 C1529 1.390 . S
C1525 C1519 1.465 . S
C1525 C1524 1.396 . S
C1525 C1526 1.399 . S
C1526 H1512 0.929 . S
C1526 C1525 1.399 . S
C1526 C1527 1.385 . S
C1527 H1513 0.931 . S
C1527 C1526 1.385 . S
C1527 C1528 1.389 . S
C1528 C1527 1.389 . S
C1528 C1529 1.387 . S
C1529 H1514 0.930 . S
C1529 C1524 1.390 . S
C1529 C1528 1.387 . S
H1530 C1542 0.930 . S
H1531 C1544 0.930 . S
H1532 C1545 0.930 . S
H1533 C1549 0.959 . S
H1534 C1549 0.959 . S
H1535 C1549 0.961 . S
H1536 C1550 0.960 . S
H1537 C1550 0.961 . S
H1538 C1550 0.959 . S
H1539 C1553 0.929 . S
H1540 C1554 0.931 . S
H1541 C1556 0.930 . S
C1542 H1530 0.930 . S
C1542 C1543 1.399 . S
C1542 C1547 1.399 . S
C1543 C1542 1.399 . S
C1543 C1544 1.376 . S
C1544 H1531 0.930 . S
C1544 C1543 1.376 . S
C1544 C1545 1.388 . S
C1545 H1532 0.930 . S
C1545 C1544 1.388 . S
C1545 C1546 1.390 . S
C1546 C1545 1.390 . S
C1546 C1547 1.394 . S
C1546 C1552 1.465 . S
C1547 C1542 1.399 . S
C1547 C1546 1.394 . S
C1547 C1548 1.516 . S
C1548 C1547 1.516 . S
C1548 C1549 1.502 . S
C1548 C1550 1.561 . S
C1548 C1551 1.526 . S
C1549 H1533 0.959 . S
C1549 H1534 0.959 . S
C1549 H1535 0.961 . S
C1549 C1548 1.502 . S
C1550 H1536 0.960 . S
C1550 H1537 0.961 . S
C1550 H1538 0.959 . S
C1550 C1548 1.561 . S
C1551 C1548 1.526 . S
C1551 C1552 1.396 . S
C1551 C1556 1.390 . S
C1552 C1546 1.465 . S
C1552 C1551 1.396 . S
C1552 C1553 1.399 . S
C1553 H1539 0.929 . S
C1553 C1552 1.399 . S
C1553 C1554 1.385 . S
C1554 H1540 0.931 . S
C1554 C1553 1.385 . S
C1554 C1555 1.389 . S
C1555 C1554 1.389 . S
C1555 C1556 1.387 . S
C1556 H1541 0.930 . S
C1556 C1551 1.390 . S
C1556 C1555 1.387 . S
H1557 C1569 0.930 . S
H1558 C1571 0.930 . S
H1559 C1572 0.930 . S
H1560 C1576 0.959 . S
H1561 C1576 0.959 . S
H1562 C1576 0.961 . S
H1563 C1577 0.960 . S
H1564 C1577 0.961 . S
H1565 C1577 0.959 . S
H1566 C1580 0.929 . S
H1567 C1581 0.931 . S
H1568 C1583 0.930 . S
C1569 H1557 0.930 . S
C1569 C1570 1.399 . S
C1569 C1574 1.399 . S
C1570 C1569 1.399 . S
C1570 C1571 1.376 . S
C1571 H1558 0.930 . S
C1571 C1570 1.376 . S
C1571 C1572 1.388 . S
C1572 H1559 0.930 . S
C1572 C1571 1.388 . S
C1572 C1573 1.390 . S
C1573 C1572 1.390 . S
C1573 C1574 1.394 . S
C1573 C1579 1.465 . S
C1574 C1569 1.399 . S
C1574 C1573 1.394 . S
C1574 C1575 1.516 . S
C1575 C1574 1.516 . S
C1575 C1576 1.502 . S
C1575 C1577 1.561 . S
C1575 C1578 1.526 . S
C1576 H1560 0.959 . S
C1576 H1561 0.959 . S
C1576 H1562 0.961 . S
C1576 C1575 1.502 . S
C1577 H1563 0.960 . S
C1577 H1564 0.961 . S
C1577 H1565 0.959 . S
C1577 C1575 1.561 . S
C1578 C1575 1.526 . S
C1578 C1579 1.396 . S
C1578 C1583 1.390 . S
C1579 C1573 1.465 . S
C1579 C1578 1.396 . S
C1579 C1580 1.399 . S
C1580 H1566 0.929 . S
C1580 C1579 1.399 . S
C1580 C1581 1.385 . S
C1581 H1567 0.931 . S
C1581 C1580 1.385 . S
C1581 C1582 1.389 . S
C1582 C1581 1.389 . S
C1582 C1583 1.387 . S
C1583 H1568 0.930 . S
C1583 C1578 1.390 . S
C1583 C1582 1.387 . S
H1584 C1596 0.930 . S
H1585 C1598 0.930 . S
H1586 C1599 0.930 . S
H1587 C1603 0.959 . S
H1588 C1603 0.959 . S
H1589 C1603 0.961 . S
H1590 C1604 0.960 . S
H1591 C1604 0.961 . S
H1592 C1604 0.959 . S
H1593 C1607 0.929 . S
H1594 C1608 0.931 . S
H1595 C1610 0.930 . S
C1596 H1584 0.930 . S
C1596 C1597 1.399 . S
C1596 C1601 1.399 . S
C1597 C1596 1.399 . S
C1597 C1598 1.376 . S
C1598 H1585 0.930 . S
C1598 C1597 1.376 . S
C1598 C1599 1.388 . S
C1599 H1586 0.930 . S
C1599 C1598 1.388 . S
C1599 C1600 1.390 . S
C1600 C1599 1.390 . S
C1600 C1601 1.394 . S
C1600 C1606 1.465 . S
C1601 C1596 1.399 . S
C1601 C1600 1.394 . S
C1601 C1602 1.516 . S
C1602 C1601 1.516 . S
C1602 C1603 1.502 . S
C1602 C1604 1.561 . S
C1602 C1605 1.526 . S
C1603 H1587 0.959 . S
C1603 H1588 0.959 . S
C1603 H1589 0.961 . S
C1603 C1602 1.502 . S
C1604 H1590 0.960 . S
C1604 H1591 0.961 . S
C1604 H1592 0.959 . S
C1604 C1602 1.561 . S
C1605 C1602 1.526 . S
C1605 C1606 1.396 . S
C1605 C1610 1.390 . S
C1606 C1600 1.465 . S
C1606 C1605 1.396 . S
C1606 C1607 1.399 . S
C1607 H1593 0.929 . S
C1607 C1606 1.399 . S
C1607 C1608 1.385 . S
C1608 H1594 0.931 . S
C1608 C1607 1.385 . S
C1608 C1609 1.389 . S
C1609 C1608 1.389 . S
C1609 C1610 1.387 . S
C1610 H1595 0.930 . S
C1610 C1605 1.390 . S
C1610 C1609 1.387 . S
H1611 C1623 0.930 . S
H1612 C1625 0.930 . S
H1613 C1626 0.930 . S
H1614 C1630 0.959 . S
H1615 C1630 0.959 . S
H1616 C1630 0.961 . S
H1617 C1631 0.960 . S
H1618 C1631 0.961 . S
H1619 C1631 0.959 . S
H1620 C1634 0.929 . S
H1621 C1635 0.931 . S
H1622 C1637 0.930 . S
C1623 H1611 0.930 . S
C1623 C1624 1.399 . S
C1623 C1628 1.399 . S
C1624 C1623 1.399 . S
C1624 C1625 1.376 . S
C1625 H1612 0.930 . S
C1625 C1624 1.376 . S
C1625 C1626 1.388 . S
C1626 H1613 0.930 . S
C1626 C1625 1.388 . S
C1626 C1627 1.390 . S
C1627 C1626 1.390 . S
C1627 C1628 1.394 . S
C1627 C1633 1.465 . S
C1628 C1623 1.399 . S
C1628 C1627 1.394 . S
C1628 C1629 1.516 . S
C1629 C1628 1.516 . S
C1629 C1630 1.502 . S
C1629 C1631 1.561 . S
C1629 C1632 1.526 . S
C1630 H1614 0.959 . S
C1630 H1615 0.959 . S
C1630 H1616 0.961 . S
C1630 C1629 1.502 . S
C1631 H1617 0.960 . S
C1631 H1618 0.961 . S
C1631 H1619 0.959 . S
C1631 C1629 1.561 . S
C1632 C1629 1.526 . S
C1632 C1633 1.396 . S
C1632 C1637 1.390 . S
C1633 C1627 1.465 . S
C1633 C1632 1.396 . S
C1633 C1634 1.399 . S
C1634 H1620 0.929 . S
C1634 C1633 1.399 . S
C1634 C1635 1.385 . S
C1635 H1621 0.931 . S
C1635 C1634 1.385 . S
C1635 C1636 1.389 . S
C1636 C1635 1.389 . S
C1636 C1637 1.387 . S
C1637 H1622 0.930 . S
C1637 C1632 1.390 . S
C1637 C1636 1.387 . S
H1638 C1650 0.930 . S
H1639 C1652 0.930 . S
H1640 C1653 0.930 . S
H1641 C1657 0.959 . S
H1642 C1657 0.959 . S
H1643 C1657 0.961 . S
H1644 C1658 0.960 . S
H1645 C1658 0.961 . S
H1646 C1658 0.959 . S
H1647 C1661 0.929 . S
H1648 C1662 0.931 . S
H1649 C1664 0.930 . S
C1650 H1638 0.930 . S
C1650 C1651 1.399 . S
C1650 C1655 1.399 . S
C1651 C1650 1.399 . S
C1651 C1652 1.376 . S
C1652 H1639 0.930 . S
C1652 C1651 1.376 . S
C1652 C1653 1.388 . S
C1653 H1640 0.930 . S
C1653 C1652 1.388 . S
C1653 C1654 1.390 . S
C1654 C1653 1.390 . S
C1654 C1655 1.394 . S
C1654 C1660 1.465 . S
C1655 C1650 1.399 . S
C1655 C1654 1.394 . S
C1655 C1656 1.516 . S
C1656 C1655 1.516 . S
C1656 C1657 1.502 . S
C1656 C1658 1.561 . S
C1656 C1659 1.526 . S
C1657 H1641 0.959 . S
C1657 H1642 0.959 . S
C1657 H1643 0.961 . S
C1657 C1656 1.502 . S
C1658 H1644 0.960 . S
C1658 H1645 0.961 . S
C1658 H1646 0.959 . S
C1658 C1656 1.561 . S
C1659 C1656 1.526 . S
C1659 C1660 1.396 . S
C1659 C1664 1.390 . S
C1660 C1654 1.465 . S
C1660 C1659 1.396 . S
C1660 C1661 1.399 . S
C1661 H1647 0.929 . S
C1661 C1660 1.399 . S
C1661 C1662 1.385 . S
C1662 H1648 0.931 . S
C1662 C1661 1.385 . S
C1662 C1663 1.389 . S
C1663 C1662 1.389 . S
C1663 C1664 1.387 . S
C1664 H1649 0.930 . S
C1664 C1659 1.390 . S
C1664 C1663 1.387 . S
H1665 C1677 0.930 . S
H1666 C1679 0.930 . S
H1667 C1680 0.930 . S
H1668 C1684 0.959 . S
H1669 C1684 0.959 . S
H1670 C1684 0.961 . S
H1671 C1685 0.960 . S
H1672 C1685 0.961 . S
H1673 C1685 0.959 . S
H1674 C1688 0.929 . S
H1675 C1689 0.931 . S
H1676 C1691 0.930 . S
C1677 H1665 0.930 . S
C1677 C1678 1.399 . S
C1677 C1682 1.399 . S
C1678 C1677 1.399 . S
C1678 C1679 1.376 . S
C1679 H1666 0.930 . S
C1679 C1678 1.376 . S
C1679 C1680 1.388 . S
C1680 H1667 0.930 . S
C1680 C1679 1.388 . S
C1680 C1681 1.390 . S
C1681 C1680 1.390 . S
C1681 C1682 1.394 . S
C1681 C1687 1.465 . S
C1682 C1677 1.399 . S
C1682 C1681 1.394 . S
C1682 C1683 1.516 . S
C1683 C1682 1.516 . S
C1683 C1684 1.502 . S
C1683 C1685 1.561 . S
C1683 C1686 1.526 . S
C1684 H1668 0.959 . S
C1684 H1669 0.959 . S
C1684 H1670 0.961 . S
C1684 C1683 1.502 . S
C1685 H1671 0.960 . S
C1685 H1672 0.961 . S
C1685 H1673 0.959 . S
C1685 C1683 1.561 . S
C1686 C1683 1.526 . S
C1686 C1687 1.396 . S
C1686 C1691 1.390 . S
C1687 C1681 1.465 . S
C1687 C1686 1.396 . S
C1687 C1688 1.399 . S
C1688 H1674 0.929 . S
C1688 C1687 1.399 . S
C1688 C1689 1.385 . S
C1689 H1675 0.931 . S
C1689 C1688 1.385 . S
C1689 C1690 1.389 . S
C1690 C1689 1.389 . S
C1690 C1691 1.387 . S
C1691 H1676 0.930 . S
C1691 C1686 1.390 . S
C1691 C1690 1.387 . S
H1692 C1704 0.930 . S
H1693 C1706 0.930 . S
H1694 C1707 0.930 . S
H1695 C1711 0.959 . S
H1696 C1711 0.959 . S
H1697 C1711 0.961 . S
H1698 C1712 0.960 . S
H1699 C1712 0.961 . S
H1700 C1712 0.959 . S
H1701 C1715 0.929 . S
H1702 C1716 0.931 . S
H1703 C1718 0.930 . S
C1704 H1692 0.930 . S
C1704 C1705 1.399 . S
C1704 C1709 1.399 . S
C1705 C1704 1.399 . S
C1705 C1706 1.376 . S
C1706 H1693 0.930 . S
C1706 C1705 1.376 . S
C1706 C1707 1.388 . S
C1707 H1694 0.930 . S
C1707 C1706 1.388 . S
C1707 C1708 1.390 . S
C1708 C1707 1.390 . S
C1708 C1709 1.394 . S
C1708 C1714 1.465 . S
C1709 C1704 1.399 . S
C1709 C1708 1.394 . S
C1709 C1710 1.516 . S
C1710 C1709 1.516 . S
C1710 C1711 1.502 . S
C1710 C1712 1.561 . S
C1710 C1713 1.526 . S
C1711 H1695 0.959 . S
C1711 H1696 0.959 . S
C1711 H1697 0.961 . S
C1711 C1710 1.502 . S
C1712 H1698 0.960 . S
C1712 H1699 0.961 . S
C1712 H1700 0.959 . S
C1712 C1710 1.561 . S
C1713 C1710 1.526 . S
C1713 C1714 1.396 . S
C1713 C1718 1.390 . S
C1714 C1708 1.465 . S
C1714 C1713 1.396 . S
C1714 C1715 1.399 . S
C1715 H1701 0.929 . S
C1715 C1714 1.399 . S
C1715 C1716 1.385 . S
C1716 H1702 0.931 . S
C1716 C1715 1.385 . S
C1716 C1717 1.389 . S
C1717 C1716 1.389 . S
C1717 C1718 1.387 . S
C1718 H1703 0.930 . S
C1718 C1713 1.390 . S
C1718 C1717 1.387 . S
H1719 C1731 0.930 . S
H1720 C1733 0.930 . S
H1721 C1734 0.930 . S
H1722 C1738 0.959 . S
H1723 C1738 0.959 . S
H1724 C1738 0.961 . S
H1725 C1739 0.960 . S
H1726 C1739 0.961 . S
H1727 C1739 0.959 . S
H1728 C1742 0.929 . S
H1729 C1743 0.931 . S
H1730 C1745 0.930 . S
C1731 H1719 0.930 . S
C1731 C1732 1.399 . S
C1731 C1736 1.399 . S
C1732 C1731 1.399 . S
C1732 C1733 1.376 . S
C1733 H1720 0.930 . S
C1733 C1732 1.376 . S
C1733 C1734 1.388 . S
C1734 H1721 0.930 . S
C1734 C1733 1.388 . S
C1734 C1735 1.390 . S
C1735 C1734 1.390 . S
C1735 C1736 1.394 . S
C1735 C1741 1.465 . S
C1736 C1731 1.399 . S
C1736 C1735 1.394 . S
C1736 C1737 1.516 . S
C1737 C1736 1.516 . S
C1737 C1738 1.502 . S
C1737 C1739 1.561 . S
C1737 C1740 1.526 . S
C1738 H1722 0.959 . S
C1738 H1723 0.959 . S
C1738 H1724 0.961 . S
C1738 C1737 1.502 . S
C1739 H1725 0.960 . S
C1739 H1726 0.961 . S
C1739 H1727 0.959 . S
C1739 C1737 1.561 . S
C1740 C1737 1.526 . S
C1740 C1741 1.396 . S
C1740 C1745 1.390 . S
C1741 C1735 1.465 . S
C1741 C1740 1.396 . S
C1741 C1742 1.399 . S
C1742 H1728 0.929 . S
C1742 C1741 1.399 . S
C1742 C1743 1.385 . S
C1743 H1729 0.931 . S
C1743 C1742 1.385 . S
C1743 C1744 1.389 . S
C1744 C1743 1.389 . S
C1744 C1745 1.387 . S
C1745 H1730 0.930 . S
C1745 C1740 1.390 . S
C1745 C1744 1.387 . S
H1746 C1758 0.930 . S
H1747 C1760 0.930 . S
H1748 C1761 0.930 . S
H1749 C1765 0.959 . S
H1750 C1765 0.959 . S
H1751 C1765 0.961 . S
H1752 C1766 0.960 . S
H1753 C1766 0.961 . S
H1754 C1766 0.959 . S
H1755 C1769 0.929 . S
H1756 C1770 0.931 . S
H1757 C1772 0.930 . S
C1758 H1746 0.930 . S
C1758 C1759 1.399 . S
C1758 C1763 1.399 . S
C1759 C1758 1.399 . S
C1759 C1760 1.376 . S
C1760 H1747 0.930 . S
C1760 C1759 1.376 . S
C1760 C1761 1.388 . S
C1761 H1748 0.930 . S
C1761 C1760 1.388 . S
C1761 C1762 1.390 . S
C1762 C1761 1.390 . S
C1762 C1763 1.394 . S
C1762 C1768 1.465 . S
C1763 C1758 1.399 . S
C1763 C1762 1.394 . S
C1763 C1764 1.516 . S
C1764 C1763 1.516 . S
C1764 C1765 1.502 . S
C1764 C1766 1.561 . S
C1764 C1767 1.526 . S
C1765 H1749 0.959 . S
C1765 H1750 0.959 . S
C1765 H1751 0.961 . S
C1765 C1764 1.502 . S
C1766 H1752 0.960 . S
C1766 H1753 0.961 . S
C1766 H1754 0.959 . S
C1766 C1764 1.561 . S
C1767 C1764 1.526 . S
C1767 C1768 1.396 . S
C1767 C1772 1.390 . S
C1768 C1762 1.465 . S
C1768 C1767 1.396 . S
C1768 C1769 1.399 . S
C1769 H1755 0.929 . S
C1769 C1768 1.399 . S
C1769 C1770 1.385 . S
C1770 H1756 0.931 . S
C1770 C1769 1.385 . S
C1770 C1771 1.389 . S
C1771 C1770 1.389 . S
C1771 C1772 1.387 . S
C1772 H1757 0.930 . S
C1772 C1767 1.390 . S
C1772 C1771 1.387 . S
H1773 C1785 0.930 . S
H1774 C1787 0.930 . S
H1775 C1788 0.930 . S
H1776 C1792 0.959 . S
H1777 C1792 0.959 . S
H1778 C1792 0.961 . S
H1779 C1793 0.960 . S
H1780 C1793 0.961 . S
H1781 C1793 0.959 . S
H1782 C1796 0.929 . S
H1783 C1797 0.931 . S
H1784 C1799 0.930 . S
C1785 H1773 0.930 . S
C1785 C1786 1.399 . S
C1785 C1790 1.399 . S
C1786 C1785 1.399 . S
C1786 C1787 1.376 . S
C1787 H1774 0.930 . S
C1787 C1786 1.376 . S
C1787 C1788 1.388 . S
C1788 H1775 0.930 . S
C1788 C1787 1.388 . S
C1788 C1789 1.390 . S
C1789 C1788 1.390 . S
C1789 C1790 1.394 . S
C1789 C1795 1.465 . S
C1790 C1785 1.399 . S
C1790 C1789 1.394 . S
C1790 C1791 1.516 . S
C1791 C1790 1.516 . S
C1791 C1792 1.502 . S
C1791 C1793 1.561 . S
C1791 C1794 1.526 . S
C1792 H1776 0.959 . S
C1792 H1777 0.959 . S
C1792 H1778 0.961 . S
C1792 C1791 1.502 . S
C1793 H1779 0.960 . S
C1793 H1780 0.961 . S
C1793 H1781 0.959 . S
C1793 C1791 1.561 . S
C1794 C1791 1.526 . S
C1794 C1795 1.396 . S
C1794 C1799 1.390 . S
C1795 C1789 1.465 . S
C1795 C1794 1.396 . S
C1795 C1796 1.399 . S
C1796 H1782 0.929 . S
C1796 C1795 1.399 . S
C1796 C1797 1.385 . S
C1797 H1783 0.931 . S
C1797 C1796 1.385 . S
C1797 C1798 1.389 . S
C1798 C1797 1.389 . S
C1798 C1799 1.387 . S
C1799 H1784 0.930 . S
C1799 C1794 1.390 . S
C1799 C1798 1.387 . S
H1800 C1812 0.930 . S
H1801 C1814 0.930 . S
H1802 C1815 0.930 . S
H1803 C1819 0.959 . S
H1804 C1819 0.959 . S
H1805 C1819 0.961 . S
H1806 C1820 0.960 . S
H1807 C1820 0.961 . S
H1808 C1820 0.959 . S
H1809 C1823 0.929 . S
H1810 C1824 0.931 . S
H1811 C1826 0.930 . S
C1812 H1800 0.930 . S
C1812 C1813 1.399 . S
C1812 C1817 1.399 . S
C1813 C1812 1.399 . S
C1813 C1814 1.376 . S
C1814 H1801 0.930 . S
C1814 C1813 1.376 . S
C1814 C1815 1.388 . S
C1815 H1802 0.930 . S
C1815 C1814 1.388 . S
C1815 C1816 1.390 . S
C1816 C1815 1.390 . S
C1816 C1817 1.394 . S
C1816 C1822 1.465 . S
C1817 C1812 1.399 . S
C1817 C1816 1.394 . S
C1817 C1818 1.516 . S
C1818 C1817 1.516 . S
C1818 C1819 1.502 . S
C1818 C1820 1.561 . S
C1818 C1821 1.526 . S
C1819 H1803 0.959 . S
C1819 H1804 0.959 . S
C1819 H1805 0.961 . S
C1819 C1818 1.502 . S
C1820 H1806 0.960 . S
C1820 H1807 0.961 . S
C1820 H1808 0.959 . S
C1820 C1818 1.561 . S
C1821 C1818 1.526 . S
C1821 C1822 1.396 . S
C1821 C1826 1.390 . S
C1822 C1816 1.465 . S
C1822 C1821 1.396 . S
C1822 C1823 1.399 . S
C1823 H1809 0.929 . S
C1823 C1822 1.399 . S
C1823 C1824 1.385 . S
C1824 H1810 0.931 . S
C1824 C1823 1.385 . S
C1824 C1825 1.389 . S
C1825 C1824 1.389 . S
C1825 C1826 1.387 . S
C1826 H1811 0.930 . S
C1826 C1821 1.390 . S
C1826 C1825 1.387 . S
H1827 C1839 0.930 . S
H1828 C1841 0.930 . S
H1829 C1842 0.930 . S
H1830 C1846 0.959 . S
H1831 C1846 0.959 . S
H1832 C1846 0.961 . S
H1833 C1847 0.960 . S
H1834 C1847 0.961 . S
H1835 C1847 0.959 . S
H1836 C1850 0.929 . S
H1837 C1851 0.931 . S
H1838 C1853 0.930 . S
C1839 H1827 0.930 . S
C1839 C1840 1.399 . S
C1839 C1844 1.399 . S
C1840 C1839 1.399 . S
C1840 C1841 1.376 . S
C1841 H1828 0.930 . S
C1841 C1840 1.376 . S
C1841 C1842 1.388 . S
C1842 H1829 0.930 . S
C1842 C1841 1.388 . S
C1842 C1843 1.390 . S
C1843 C1842 1.390 . S
C1843 C1844 1.394 . S
C1843 C1849 1.465 . S
C1844 C1839 1.399 . S
C1844 C1843 1.394 . S
C1844 C1845 1.516 . S
C1845 C1844 1.516 . S
C1845 C1846 1.502 . S
C1845 C1847 1.561 . S
C1845 C1848 1.526 . S
C1846 H1830 0.959 . S
C1846 H1831 0.959 . S
C1846 H1832 0.961 . S
C1846 C1845 1.502 . S
C1847 H1833 0.960 . S
C1847 H1834 0.961 . S
C1847 H1835 0.959 . S
C1847 C1845 1.561 . S
C1848 C1845 1.526 . S
C1848 C1849 1.396 . S
C1848 C1853 1.390 . S
C1849 C1843 1.465 . S
C1849 C1848 1.396 . S
C1849 C1850 1.399 . S
C1850 H1836 0.929 . S
C1850 C1849 1.399 . S
C1850 C1851 1.385 . S
C1851 H1837 0.931 . S
C1851 C1850 1.385 . S
C1851 C1852 1.389 . S
C1852 C1851 1.389 . S
C1852 C1853 1.387 . S
C1853 H1838 0.930 . S
C1853 C1848 1.390 . S
C1853 C1852 1.387 . S
H1854 C1866 0.930 . S
H1855 C1868 0.930 . S
H1856 C1869 0.930 . S
H1857 C1873 0.959 . S
H1858 C1873 0.959 . S
H1859 C1873 0.961 . S
H1860 C1874 0.960 . S
H1861 C1874 0.961 . S
H1862 C1874 0.959 . S
H1863 C1877 0.929 . S
H1864 C1878 0.931 . S
H1865 C1880 0.930 . S
C1866 H1854 0.930 . S
C1866 C1867 1.399 . S
C1866 C1871 1.399 . S
C1867 C1866 1.399 . S
C1867 C1868 1.376 . S
C1868 H1855 0.930 . S
C1868 C1867 1.376 . S
C1868 C1869 1.388 . S
C1869 H1856 0.930 . S
C1869 C1868 1.388 . S
C1869 C1870 1.390 . S
C1870 C1869 1.390 . S
C1870 C1871 1.394 . S
C1870 C1876 1.465 . S
C1871 C1866 1.399 . S
C1871 C1870 1.394 . S
C1871 C1872 1.516 . S
C1872 C1871 1.516 . S
C1872 C1873 1.502 . S
C1872 C1874 1.561 . S
C1872 C1875 1.526 . S
C1873 H1857 0.959 . S
C1873 H1858 0.959 . S
C1873 H1859 0.961 . S
C1873 C1872 1.502 . S
C1874 H1860 0.960 . S
C1874 H1861 0.961 . S
C1874 H1862 0.959 . S
C1874 C1872 1.561 . S
C1875 C1872 1.526 . S
C1875 C1876 1.396 . S
C1875 C1880 1.390 . S
C1876 C1870 1.465 . S
C1876 C1875 1.396 . S
C1876 C1877 1.399 . S
C1877 H1863 0.929 . S
C1877 C1876 1.399 . S
C1877 C1878 1.385 . S
C1878 H1864 0.931 . S
C1878 C1877 1.385 . S
C1878 C1879 1.389 . S
C1879 C1878 1.389 . S
C1879 C1880 1.387 . S
C1880 H1865 0.930 . S
C1880 C1875 1.390 . S
C1880 C1879 1.387 . S
H1881 C1893 0.930 . S
H1882 C1895 0.930 . S
H1883 C1896 0.930 . S
H1884 C1900 0.959 . S
H1885 C1900 0.959 . S
H1886 C1900 0.961 . S
H1887 C1901 0.960 . S
H1888 C1901 0.961 . S
H1889 C1901 0.959 . S
H1890 C1904 0.929 . S
H1891 C1905 0.931 . S
H1892 C1907 0.930 . S
C1893 H1881 0.930 . S
C1893 C1894 1.399 . S
C1893 C1898 1.399 . S
C1894 C1893 1.399 . S
C1894 C1895 1.376 . S
C1895 H1882 0.930 . S
C1895 C1894 1.376 . S
C1895 C1896 1.388 . S
C1896 H1883 0.930 . S
C1896 C1895 1.388 . S
C1896 C1897 1.390 . S
C1897 C1896 1.390 . S
C1897 C1898 1.394 . S
C1897 C1903 1.465 . S
C1898 C1893 1.399 . S
C1898 C1897 1.394 . S
C1898 C1899 1.516 . S
C1899 C1898 1.516 . S
C1899 C1900 1.502 . S
C1899 C1901 1.561 . S
C1899 C1902 1.526 . S
C1900 H1884 0.959 . S
C1900 H1885 0.959 . S
C1900 H1886 0.961 . S
C1900 C1899 1.502 . S
C1901 H1887 0.960 . S
C1901 H1888 0.961 . S
C1901 H1889 0.959 . S
C1901 C1899 1.561 . S
C1902 C1899 1.526 . S
C1902 C1903 1.396 . S
C1902 C1907 1.390 . S
C1903 C1897 1.465 . S
C1903 C1902 1.396 . S
C1903 C1904 1.399 . S
C1904 H1890 0.929 . S
C1904 C1903 1.399 . S
C1904 C1905 1.385 . S
C1905 H1891 0.931 . S
C1905 C1904 1.385 . S
C1905 C1906 1.389 . S
C1906 C1905 1.389 . S
C1906 C1907 1.387 . S
C1907 H1892 0.930 . S
C1907 C1902 1.390 . S
C1907 C1906 1.387 . S
H1908 C1920 0.930 . S
H1909 C1922 0.930 . S
H1910 C1923 0.930 . S
H1911 C1927 0.959 . S
H1912 C1927 0.959 . S
H1913 C1927 0.961 . S
H1914 C1928 0.960 . S
H1915 C1928 0.961 . S
H1916 C1928 0.959 . S
H1917 C1931 0.929 . S
H1918 C1932 0.931 . S
H1919 C1934 0.930 . S
C1920 H1908 0.930 . S
C1920 C1921 1.399 . S
C1920 C1925 1.399 . S
C1921 C1920 1.399 . S
C1921 C1922 1.376 . S
C1922 H1909 0.930 . S
C1922 C1921 1.376 . S
C1922 C1923 1.388 . S
C1923 H1910 0.930 . S
C1923 C1922 1.388 . S
C1923 C1924 1.390 . S
C1924 C1923 1.390 . S
C1924 C1925 1.394 . S
C1924 C1930 1.465 . S
C1925 C1920 1.399 . S
C1925 C1924 1.394 . S
C1925 C1926 1.516 . S
C1926 C1925 1.516 . S
C1926 C1927 1.502 . S
C1926 C1928 1.561 . S
C1926 C1929 1.526 . S
C1927 H1911 0.959 . S
C1927 H1912 0.959 . S
C1927 H1913 0.961 . S
C1927 C1926 1.502 . S
C1928 H1914 0.960 . S
C1928 H1915 0.961 . S
C1928 H1916 0.959 . S
C1928 C1926 1.561 . S
C1929 C1926 1.526 . S
C1929 C1930 1.396 . S
C1929 C1934 1.390 . S
C1930 C1924 1.465 . S
C1930 C1929 1.396 . S
C1930 C1931 1.399 . S
C1931 H1917 0.929 . S
C1931 C1930 1.399 . S
C1931 C1932 1.385 . S
C1932 H1918 0.931 . S
C1932 C1931 1.385 . S
C1932 C1933 1.389 . S
C1933 C1932 1.389 . S
C1933 C1934 1.387 . S
C1934 H1919 0.930 . S
C1934 C1929 1.390 . S
C1934 C1933 1.387 . S
H1935 C1947 0.930 . S
H1936 C1949 0.930 . S
H1937 C1950 0.930 . S
H1938 C1954 0.959 . S
H1939 C1954 0.959 . S
H1940 C1954 0.961 . S
H1941 C1955 0.960 . S
H1942 C1955 0.961 . S
H1943 C1955 0.959 . S
H1944 C1958 0.929 . S
H1945 C1959 0.931 . S
H1946 C1961 0.930 . S
C1947 H1935 0.930 . S
C1947 C1948 1.399 . S
C1947 C1952 1.399 . S
C1948 C1947 1.399 . S
C1948 C1949 1.376 . S
C1949 H1936 0.930 . S
C1949 C1948 1.376 . S
C1949 C1950 1.388 . S
C1950 H1937 0.930 . S
C1950 C1949 1.388 . S
C1950 C1951 1.390 . S
C1951 C1950 1.390 . S
C1951 C1952 1.394 . S
C1951 C1957 1.465 . S
C1952 C1947 1.399 . S
C1952 C1951 1.394 . S
C1952 C1953 1.516 . S
C1953 C1952 1.516 . S
C1953 C1954 1.502 . S
C1953 C1955 1.561 . S
C1953 C1956 1.526 . S
C1954 H1938 0.959 . S
C1954 H1939 0.959 . S
C1954 H1940 0.961 . S
C1954 C1953 1.502 . S
C1955 H1941 0.960 . S
C1955 H1942 0.961 . S
C1955 H1943 0.959 . S
C1955 C1953 1.561 . S
C1956 C1953 1.526 . S
C1956 C1957 1.396 . S
C1956 C1961 1.390 . S
C1957 C1951 1.465 . S
C1957 C1956 1.396 . S
C1957 C1958 1.399 . S
C1958 H1944 0.929 . S
C1958 C1957 1.399 . S
C1958 C1959 1.385 . S
C1959 H1945 0.931 . S
C1959 C1958 1.385 . S
C1959 C1960 1.389 . S
C1960 C1959 1.389 . S
C1960 C1961 1.387 . S
C1961 H1946 0.930 . S
C1961 C1956 1.390 . S
C1961 C1960 1.387 . S
H1962 C1974 0.930 . S
H1963 C1976 0.930 . S
H1964 C1977 0.930 . S
H1965 C1981 0.959 . S
H1966 C1981 0.959 . S
H1967 C1981 0.961 . S
H1968 C1982 0.960 . S
H1969 C1982 0.961 . S
H1970 C1982 0.959 . S
H1971 C1985 0.929 . S
H1972 C1986 0.931 . S
H1973 C1988 0.930 . S
C1974 H1962 0.930 . S
C1974 C1975 1.399 . S
C1974 C1979 1.399 . S
C1975 C1974 1.399 . S
C1975 C1976 1.376 . S
C1976 H1963 0.930 . S
C1976 C1975 1.376 . S
C1976 C1977 1.388 . S
C1977 H1964 0.930 . S
C1977 C1976 1.388 . S
C1977 C1978 1.390 . S
C1978 C1977 1.390 . S
C1978 C1979 1.394 . S
C1978 C1984 1.465 . S
C1979 C1974 1.399 . S
C1979 C1978 1.394 . S
C1979 C1980 1.516 . S
C1980 C1979 1.516 . S
C1980 C1981 1.502 . S
C1980 C1982 1.561 . S
C1980 C1983 1.526 . S
C1981 H1965 0.959 . S
C1981 H1966 0.959 . S
C1981 H1967 0.961 . S
C1981 C1980 1.502 . S
C1982 H1968 0.960 . S
C1982 H1969 0.961 . S
C1982 H1970 0.959 . S
C1982 C1980 1.561 . S
C1983 C1980 1.526 . S
C1983 C1984 1.396 . S
C1983 C1988 1.390 . S
C1984 C1978 1.465 . S
C1984 C1983 1.396 . S
C1984 C1985 1.399 . S
C1985 H1971 0.929 . S
C1985 C1984 1.399 . S
C1985 C1986 1.385 . S
C1986 H1972 0.931 . S
C1986 C1985 1.385 . S
C1986 C1987 1.389 . S
C1987 C1986 1.389 . S
C1987 C1988 1.387 . S
C1988 H1973 0.930 . S
C1988 C1983 1.390 . S
C1988 C1987 1.387 . S
H1989 C2001 0.930 . S
H1990 C2003 0.930 . S
H1991 C2004 0.930 . S
H1992 C2008 0.959 . S
H1993 C2008 0.959 . S
H1994 C2008 0.961 . S
H1995 C2009 0.960 . S
H1996 C2009 0.961 . S
H1997 C2009 0.959 . S
H1998 C2012 0.929 . S
H1999 C2013 0.931 . S
H2000 C2015 0.930 . S
C2001 H1989 0.930 . S
C2001 C2002 1.399 . S
C2001 C2006 1.399 . S
C2002 C2001 1.399 . S
C2002 C2003 1.376 . S
C2003 H1990 0.930 . S
C2003 C2002 1.376 . S
C2003 C2004 1.388 . S
C2004 H1991 0.930 . S
C2004 C2003 1.388 . S
C2004 C2005 1.390 . S
C2005 C2004 1.390 . S
C2005 C2006 1.394 . S
C2005 C2011 1.465 . S
C2006 C2001 1.399 . S
C2006 C2005 1.394 . S
C2006 C2007 1.516 . S
C2007 C2006 1.516 . S
C2007 C2008 1.502 . S
C2007 C2009 1.561 1_565 S
C2007 C2010 1.526 . S
C2008 H1992 0.959 . S
C2008 H1993 0.959 . S
C2008 H1994 0.961 . S
C2008 C2007 1.502 . S
C2009 H1995 0.960 . S
C2009 H1996 0.961 . S
C2009 H1997 0.959 . S
C2009 C2007 1.561 1_545 S
C2010 C2007 1.526 . S
C2010 C2011 1.396 . S
C2010 C2015 1.390 1_565 S
C2011 C2005 1.465 . S
C2011 C2010 1.396 . S
C2011 C2012 1.399 . S
C2012 H1998 0.929 . S
C2012 C2011 1.399 . S
C2012 C2013 1.385 . S
C2013 H1999 0.931 . S
C2013 C2012 1.385 . S
C2013 C2014 1.389 1_565 S
C2014 C2013 1.389 1_545 S
C2014 C2015 1.387 . S
C2015 H2000 0.930 . S
C2015 C2010 1.390 1_545 S
C2015 C2014 1.387 . S
H2016 C2028 0.930 . S
H2017 C2030 0.930 . S
H2018 C2031 0.930 . S
H2019 C2035 0.959 . S
H2020 C2035 0.959 . S
H2021 C2035 0.961 . S
H2022 C2036 0.960 . S
H2023 C2036 0.961 . S
H2024 C2036 0.959 . S
H2025 C2039 0.929 1_655 S
H2026 C2040 0.931 . S
H2027 C2042 0.930 . S
C2028 H2016 0.930 . S
C2028 C2029 1.399 1_455 S
C2028 C2033 1.399 . S
C2029 C2028 1.399 1_655 S
C2029 C2030 1.376 . S
C2030 H2017 0.930 . S
C2030 C2029 1.376 . S
C2030 C2031 1.388 . S
C2031 H2018 0.930 . S
C2031 C2030 1.388 . S
C2031 C2032 1.390 1_655 S
C2032 C2031 1.390 1_455 S
C2032 C2033 1.394 . S
C2032 C2038 1.465 . S
C2033 C2028 1.399 . S
C2033 C2032 1.394 . S
C2033 C2034 1.516 . S
C2034 C2033 1.516 . S
C2034 C2035 1.502 . S
C2034 C2036 1.561 . S
C2034 C2037 1.526 . S
C2035 H2019 0.959 . S
C2035 H2020 0.959 . S
C2035 H2021 0.961 . S
C2035 C2034 1.502 . S
C2036 H2022 0.960 . S
C2036 H2023 0.961 . S
C2036 H2024 0.959 . S
C2036 C2034 1.561 . S
C2037 C2034 1.526 . S
C2037 C2038 1.396 . S
C2037 C2042 1.390 . S
C2038 C2032 1.465 . S
C2038 C2037 1.396 . S
C2038 C2039 1.399 . S
C2039 H2025 0.929 1_455 S
C2039 C2038 1.399 . S
C2039 C2040 1.385 . S
C2040 H2026 0.931 . S
C2040 C2039 1.385 . S
C2040 C2041 1.389 . S
C2041 C2040 1.389 . S
C2041 C2042 1.387 . S
C2042 H2027 0.930 . S
C2042 C2037 1.390 . S
C2042 C2041 1.387 . S
H2043 C2055 0.930 . S
H2044 C2057 0.930 . S
H2045 C2058 0.930 . S
H2046 C2062 0.959 . S
H2047 C2062 0.959 . S
H2048 C2062 0.961 . S
H2049 C2063 0.960 . S
H2050 C2063 0.961 . S
H2051 C2063 0.959 . S
H2052 C2066 0.929 . S
H2053 C2067 0.931 . S
H2054 C2069 0.930 . S
C2055 H2043 0.930 . S
C2055 C2056 1.399 . S
C2055 C2060 1.399 . S
C2056 C2055 1.399 . S
C2056 C2057 1.376 . S
C2057 H2044 0.930 . S
C2057 C2056 1.376 . S
C2057 C2058 1.388 . S
C2058 H2045 0.930 . S
C2058 C2057 1.388 . S
C2058 C2059 1.390 . S
C2059 C2058 1.390 . S
C2059 C2060 1.394 . S
C2059 C2065 1.465 . S
C2060 C2055 1.399 . S
C2060 C2059 1.394 . S
C2060 C2061 1.516 . S
C2061 C2060 1.516 . S
C2061 C2062 1.502 . S
C2061 C2063 1.561 . S
C2061 C2064 1.526 . S
C2062 H2046 0.959 . S
C2062 H2047 0.959 . S
C2062 H2048 0.961 . S
C2062 C2061 1.502 . S
C2063 H2049 0.960 . S
C2063 H2050 0.961 . S
C2063 H2051 0.959 . S
C2063 C2061 1.561 . S
C2064 C2061 1.526 . S
C2064 C2065 1.396 . S
C2064 C2069 1.390 . S
C2065 C2059 1.465 . S
C2065 C2064 1.396 . S
C2065 C2066 1.399 . S
C2066 H2052 0.929 . S
C2066 C2065 1.399 . S
C2066 C2067 1.385 . S
C2067 H2053 0.931 . S
C2067 C2066 1.385 . S
C2067 C2068 1.389 . S
C2068 C2067 1.389 . S
C2068 C2069 1.387 . S
C2069 H2054 0.930 . S
C2069 C2064 1.390 . S
C2069 C2068 1.387 . S
H2070 C2082 0.930 . S
H2071 C2084 0.930 . S
H2072 C2085 0.930 . S
H2073 C2089 0.959 . S
H2074 C2089 0.959 . S
H2075 C2089 0.961 . S
H2076 C2090 0.954 1_545 S
H2077 C2090 0.967 . S
H2078 C2090 0.963 . S
H2079 C2093 0.929 . S
H2080 C2094 0.931 . S
H2081 C2096 0.935 . S
C2082 H2070 0.930 . S
C2082 C2083 1.399 . S
C2082 C2087 1.399 . S
C2083 C2082 1.399 . S
C2083 C2084 1.376 . S
C2084 H2071 0.930 . S
C2084 C2083 1.376 . S
C2084 C2085 1.388 . S
C2085 H2072 0.930 . S
C2085 C2084 1.388 . S
C2085 C2086 1.390 . S
C2086 C2085 1.390 . S
C2086 C2087 1.394 . S
C2086 C2092 1.465 . S
C2087 C2082 1.399 . S
C2087 C2086 1.394 . S
C2087 C2088 1.516 . S
C2088 C2087 1.516 . S
C2088 C2089 1.502 . S
C2088 C2090 1.557 1_545 S
C2088 C2091 1.526 . S
C2089 H2073 0.959 . S
C2089 H2074 0.959 . S
C2089 H2075 0.961 . S
C2089 C2088 1.502 . S
C2090 H2076 0.954 1_565 S
C2090 H2077 0.967 . S
C2090 H2078 0.963 . S
C2090 C2088 1.557 1_565 S
C2091 C2088 1.526 . S
C2091 C2092 1.396 . S
C2091 C2096 1.376 1_545 S
C2092 C2086 1.465 . S
C2092 C2091 1.396 . S
C2092 C2093 1.399 . S
C2093 H2079 0.929 . S
C2093 C2092 1.399 . S
C2093 C2094 1.385 1_545 S
C2094 H2080 0.931 . S
C2094 C2093 1.385 1_565 S
C2094 C2095 1.389 . S
C2095 C2094 1.389 . S
C2095 C2096 1.395 . S
C2096 H2081 0.935 . S
C2096 C2091 1.376 1_565 S
C2096 C2095 1.395 . S
H2097 C2109 0.930 . S
H2098 C2111 0.930 . S
H2099 C2112 0.930 . S
H2100 C2116 0.959 . S
H2101 C2116 0.959 . S
H2102 C2116 0.961 . S
H2103 C2117 0.960 . S
H2104 C2117 0.961 1_655 S
H2105 C2117 0.959 . S
H2106 C2120 0.929 . S
H2107 C2121 0.931 . S
H2108 C2123 0.930 . S
C2109 H2097 0.930 . S
C2109 C2110 1.399 . S
C2109 C2114 1.399 1_455 S
C2110 C2109 1.399 . S
C2110 C2111 1.376 . S
C2111 H2098 0.930 . S
C2111 C2110 1.376 . S
C2111 C2112 1.388 1_455 S
C2112 H2099 0.930 . S
C2112 C2111 1.388 1_655 S
C2112 C2113 1.390 . S
C2113 C2112 1.390 . S
C2113 C2114 1.394 . S
C2113 C2119 1.465 . S
C2114 C2109 1.399 1_655 S
C2114 C2113 1.394 . S
C2114 C2115 1.516 . S
C2115 C2114 1.516 . S
C2115 C2116 1.502 . S
C2115 C2117 1.561 1_655 S
C2115 C2118 1.526 . S
C2116 H2100 0.959 . S
C2116 H2101 0.959 . S
C2116 H2102 0.961 . S
C2116 C2115 1.502 . S
C2117 H2103 0.960 . S
C2117 H2104 0.961 1_455 S
C2117 H2105 0.959 . S
C2117 C2115 1.561 1_455 S
C2118 C2115 1.526 . S
C2118 C2119 1.396 . S
C2118 C2123 1.390 . S
C2119 C2113 1.465 . S
C2119 C2118 1.396 . S
C2119 C2120 1.399 . S
C2120 H2106 0.929 . S
C2120 C2119 1.399 . S
C2120 C2121 1.385 . S
C2121 H2107 0.931 . S
C2121 C2120 1.385 . S
C2121 C2122 1.389 . S
C2122 C2121 1.389 . S
C2122 C2123 1.387 . S
C2123 H2108 0.930 . S
C2123 C2118 1.390 . S
C2123 C2122 1.387 . S
H2124 C2136 0.930 . S
H2125 C2138 0.930 . S
H2126 C2139 0.930 . S
H2127 C2143 0.959 . S
H2128 C2143 0.959 . S
H2129 C2143 0.961 . S
H2130 C2144 0.960 . S
H2131 C2144 0.961 . S
H2132 C2144 0.959 . S
H2133 C2147 0.929 . S
H2134 C2148 0.931 . S
H2135 C2150 0.930 . S
C2136 H2124 0.930 . S
C2136 C2137 1.399 . S
C2136 C2141 1.399 . S
C2137 C2136 1.399 . S
C2137 C2138 1.376 . S
C2138 H2125 0.930 . S
C2138 C2137 1.376 . S
C2138 C2139 1.388 . S
C2139 H2126 0.930 . S
C2139 C2138 1.388 . S
C2139 C2140 1.390 . S
C2140 C2139 1.390 . S
C2140 C2141 1.394 . S
C2140 C2146 1.465 . S
C2141 C2136 1.399 . S
C2141 C2140 1.394 . S
C2141 C2142 1.516 . S
C2142 C2141 1.516 . S
C2142 C2143 1.502 . S
C2142 C2144 1.561 . S
C2142 C2145 1.526 . S
C2143 H2127 0.959 . S
C2143 H2128 0.959 . S
C2143 H2129 0.961 . S
C2143 C2142 1.502 . S
C2144 H2130 0.960 . S
C2144 H2131 0.961 . S
C2144 H2132 0.959 . S
C2144 C2142 1.561 . S
C2145 C2142 1.526 . S
C2145 C2146 1.396 . S
C2145 C2150 1.390 . S
C2146 C2140 1.465 . S
C2146 C2145 1.396 . S
C2146 C2147 1.399 . S
C2147 H2133 0.929 . S
C2147 C2146 1.399 . S
C2147 C2148 1.385 . S
C2148 H2134 0.931 . S
C2148 C2147 1.385 . S
C2148 C2149 1.389 . S
C2149 C2148 1.389 . S
C2149 C2150 1.387 . S
C2150 H2135 0.930 . S
C2150 C2145 1.390 . S
C2150 C2149 1.387 . S
H2151 C2163 0.930 . S
H2152 C2165 0.930 . S
H2153 C2166 0.930 . S
H2154 C2170 0.959 . S
H2155 C2170 0.959 . S
H2156 C2170 0.961 . S
H2157 C2171 0.960 . S
H2158 C2171 0.961 . S
H2159 C2171 0.959 . S
H2160 C2174 0.929 1_565 S
H2161 C2175 0.931 . S
H2162 C2177 0.930 . S
C2163 H2151 0.930 . S
C2163 C2164 1.399 1_545 S
C2163 C2168 1.399 . S
C2164 C2163 1.399 1_565 S
C2164 C2165 1.376 . S
C2165 H2152 0.930 . S
C2165 C2164 1.376 . S
C2165 C2166 1.388 . S
C2166 H2153 0.930 . S
C2166 C2165 1.388 . S
C2166 C2167 1.390 1_565 S
C2167 C2166 1.390 1_545 S
C2167 C2168 1.394 . S
C2167 C2173 1.465 . S
C2168 C2163 1.399 . S
C2168 C2167 1.394 . S
C2168 C2169 1.516 . S
C2169 C2168 1.516 . S
C2169 C2170 1.502 . S
C2169 C2171 1.561 . S
C2169 C2172 1.526 . S
C2170 H2154 0.959 . S
C2170 H2155 0.959 . S
C2170 H2156 0.961 . S
C2170 C2169 1.502 . S
C2171 H2157 0.960 . S
C2171 H2158 0.961 . S
C2171 H2159 0.959 . S
C2171 C2169 1.561 . S
C2172 C2169 1.526 . S
C2172 C2173 1.396 . S
C2172 C2177 1.390 . S
C2173 C2167 1.465 . S
C2173 C2172 1.396 . S
C2173 C2174 1.399 . S
C2174 H2160 0.929 1_545 S
C2174 C2173 1.399 . S
C2174 C2175 1.385 . S
C2175 H2161 0.931 . S
C2175 C2174 1.385 . S
C2175 C2176 1.389 . S
C2176 C2175 1.389 . S
C2176 C2177 1.387 . S
C2177 H2162 0.930 . S
C2177 C2172 1.390 . S
C2177 C2176 1.387 . S
H2178 C2190 0.930 . S
H2179 C2192 0.930 . S
H2180 C2193 0.930 . S
H2181 C2197 0.959 . S
H2182 C2197 0.959 . S
H2183 C2197 0.961 . S
H2184 C2198 0.960 . S
H2185 C2198 0.961 . S
H2186 C2198 0.959 1_455 S
H2187 C2201 0.929 . S
H2188 C2202 0.931 . S
H2189 C2204 0.930 . S
C2190 H2178 0.930 . S
C2190 C2191 1.399 1_655 S
C2190 C2195 1.399 . S
C2191 C2190 1.399 1_455 S
C2191 C2192 1.376 . S
C2192 H2179 0.930 . S
C2192 C2191 1.376 . S
C2192 C2193 1.388 . S
C2193 H2180 0.930 . S
C2193 C2192 1.388 . S
C2193 C2194 1.390 1_455 S
C2194 C2193 1.390 1_655 S
C2194 C2195 1.394 . S
C2194 C2200 1.465 . S
C2195 C2190 1.399 . S
C2195 C2194 1.394 . S
C2195 C2196 1.516 . S
C2196 C2195 1.516 . S
C2196 C2197 1.502 . S
C2196 C2198 1.561 . S
C2196 C2199 1.526 . S
C2197 H2181 0.959 . S
C2197 H2182 0.959 . S
C2197 H2183 0.961 . S
C2197 C2196 1.502 . S
C2198 H2184 0.960 . S
C2198 H2185 0.961 . S
C2198 H2186 0.959 1_655 S
C2198 C2196 1.561 . S
C2199 C2196 1.526 . S
C2199 C2200 1.396 . S
C2199 C2204 1.390 . S
C2200 C2194 1.465 . S
C2200 C2199 1.396 . S
C2200 C2201 1.399 . S
C2201 H2187 0.929 . S
C2201 C2200 1.399 . S
C2201 C2202 1.385 . S
C2202 H2188 0.931 . S
C2202 C2201 1.385 . S
C2202 C2203 1.389 . S
C2203 C2202 1.389 . S
C2203 C2204 1.387 . S
C2204 H2189 0.930 . S
C2204 C2199 1.390 . S
C2204 C2203 1.387 . S
H2205 C2217 0.930 . S
H2206 C2219 0.930 . S
H2207 C2220 0.930 . S
H2208 C2224 0.959 . S
H2209 C2224 0.959 . S
H2210 C2224 0.961 . S
H2211 C2225 0.960 . S
H2212 C2225 0.961 . S
H2213 C2225 0.959 . S
H2214 C2228 0.929 . S
H2215 C2229 0.931 . S
H2216 C2231 0.930 . S
C2217 H2205 0.930 . S
C2217 C2218 1.399 . S
C2217 C2222 1.399 . S
C2218 C2217 1.399 . S
C2218 C2219 1.376 . S
C2219 H2206 0.930 . S
C2219 C2218 1.376 . S
C2219 C2220 1.388 . S
C2220 H2207 0.930 . S
C2220 C2219 1.388 . S
C2220 C2221 1.390 . S
C2221 C2220 1.390 . S
C2221 C2222 1.394 . S
C2221 C2227 1.465 . S
C2222 C2217 1.399 . S
C2222 C2221 1.394 . S
C2222 C2223 1.516 . S
C2223 C2222 1.516 . S
C2223 C2224 1.502 . S
C2223 C2225 1.561 . S
C2223 C2226 1.526 . S
C2224 H2208 0.959 . S
C2224 H2209 0.959 . S
C2224 H2210 0.961 . S
C2224 C2223 1.502 . S
C2225 H2211 0.960 . S
C2225 H2212 0.961 . S
C2225 H2213 0.959 . S
C2225 C2223 1.561 . S
C2226 C2223 1.526 . S
C2226 C2227 1.396 . S
C2226 C2231 1.390 . S
C2227 C2221 1.465 . S
C2227 C2226 1.396 . S
C2227 C2228 1.399 . S
C2228 H2214 0.929 . S
C2228 C2227 1.399 . S
C2228 C2229 1.385 . S
C2229 H2215 0.931 . S
C2229 C2228 1.385 . S
C2229 C2230 1.389 . S
C2230 C2229 1.389 . S
C2230 C2231 1.387 . S
C2231 H2216 0.930 . S
C2231 C2226 1.390 . S
C2231 C2230 1.387 . S
H2232 C2244 0.930 . S
H2233 C2246 0.930 . S
H2234 C2247 0.929 . S
H2235 C2251 0.959 . S
H2236 C2251 0.959 . S
H2237 C2251 0.961 . S
H2238 C2252 0.960 . S
H2239 C2252 0.961 . S
H2240 C2252 0.959 . S
H2241 C2255 0.929 . S
H2242 C2256 0.931 . S
H2243 C2258 0.930 . S
C2244 H2232 0.930 . S
C2244 C2245 1.399 1_565 S
C2244 C2249 1.399 . S
C2245 C2244 1.399 1_545 S
C2245 C2246 1.376 . S
C2246 H2233 0.930 . S
C2246 C2245 1.376 . S
C2246 C2247 1.388 1_545 S
C2247 H2234 0.929 . S
C2247 C2246 1.388 1_565 S
C2247 C2248 1.390 . S
C2248 C2247 1.390 . S
C2248 C2249 1.394 . S
C2248 C2254 1.465 . S
C2249 C2244 1.399 . S
C2249 C2248 1.394 . S
C2249 C2250 1.516 . S
C2250 C2249 1.516 . S
C2250 C2251 1.502 . S
C2250 C2252 1.561 . S
C2250 C2253 1.526 . S
C2251 H2235 0.959 . S
C2251 H2236 0.959 . S
C2251 H2237 0.961 . S
C2251 C2250 1.502 . S
C2252 H2238 0.960 . S
C2252 H2239 0.961 . S
C2252 H2240 0.959 . S
C2252 C2250 1.561 . S
C2253 C2250 1.526 . S
C2253 C2254 1.396 . S
C2253 C2258 1.390 . S
C2254 C2248 1.465 . S
C2254 C2253 1.396 . S
C2254 C2255 1.399 . S
C2255 H2241 0.929 . S
C2255 C2254 1.399 . S
C2255 C2256 1.385 . S
C2256 H2242 0.931 . S
C2256 C2255 1.385 . S
C2256 C2257 1.389 . S
C2257 C2256 1.389 . S
C2257 C2258 1.387 . S
C2258 H2243 0.930 . S
C2258 C2253 1.390 . S
C2258 C2257 1.387 . S
H2259 C2271 0.930 . S
H2260 C2273 0.930 . S
H2261 C2274 0.930 . S
H2262 C2278 0.959 . S
H2263 C2278 0.959 . S
H2264 C2278 0.961 . S
H2265 C2279 0.960 . S
H2266 C2279 0.961 . S
H2267 C2279 0.959 . S
H2268 C2282 0.929 . S
H2269 C2283 0.931 . S
H2270 C2285 0.930 . S
C2271 H2259 0.930 . S
C2271 C2272 1.399 . S
C2271 C2276 1.399 . S
C2272 C2271 1.399 . S
C2272 C2273 1.376 . S
C2273 H2260 0.930 . S
C2273 C2272 1.376 . S
C2273 C2274 1.388 . S
C2274 H2261 0.930 . S
C2274 C2273 1.388 . S
C2274 C2275 1.390 . S
C2275 C2274 1.390 . S
C2275 C2276 1.394 . S
C2275 C2281 1.465 . S
C2276 C2271 1.399 . S
C2276 C2275 1.394 . S
C2276 C2277 1.516 . S
C2277 C2276 1.516 . S
C2277 C2278 1.502 1_455 S
C2277 C2279 1.561 . S
C2277 C2280 1.526 . S
C2278 H2262 0.959 . S
C2278 H2263 0.959 . S
C2278 H2264 0.961 . S
C2278 C2277 1.502 1_655 S
C2279 H2265 0.960 . S
C2279 H2266 0.961 . S
C2279 H2267 0.959 . S
C2279 C2277 1.561 . S
C2280 C2277 1.526 . S
C2280 C2281 1.396 . S
C2280 C2285 1.390 1_455 S
C2281 C2275 1.465 . S
C2281 C2280 1.396 . S
C2281 C2282 1.399 . S
C2282 H2268 0.929 . S
C2282 C2281 1.399 . S
C2282 C2283 1.385 . S
C2283 H2269 0.931 . S
C2283 C2282 1.385 . S
C2283 C2284 1.389 1_455 S
C2284 C2283 1.389 1_655 S
C2284 C2285 1.387 . S
C2285 H2270 0.930 . S
C2285 C2280 1.390 1_655 S
C2285 C2284 1.387 . S
H2286 C2298 0.930 . S
H2287 C2300 0.930 . S
H2288 C2301 0.930 . S
H2289 C2305 0.950 . S
H2290 C2305 0.959 1_455 S
H2291 C2305 0.961 . S
H2292 C2306 0.960 . S
H2293 C2306 0.961 1_455 S
H2294 C2306 0.959 . S
H2295 C2309 0.929 . S
H2296 C2310 0.931 . S
H2297 C2312 0.930 . S
C2298 H2286 0.930 . S
C2298 C2299 1.399 . S
C2298 C2303 1.399 . S
C2299 C2298 1.399 . S
C2299 C2300 1.376 . S
C2300 H2287 0.930 . S
C2300 C2299 1.376 . S
C2300 C2301 1.388 . S
C2301 H2288 0.930 . S
C2301 C2300 1.388 . S
C2301 C2302 1.390 . S
C2302 C2301 1.390 . S
C2302 C2303 1.394 . S
C2302 C2308 1.465 1_655 S
C2303 C2298 1.399 . S
C2303 C2302 1.394 . S
C2303 C2304 1.516 . S
C2304 C2303 1.516 . S
C2304 C2305 1.502 . S
C2304 C2306 1.561 . S
C2304 C2307 1.526 1_655 S
C2305 H2289 0.950 . S
C2305 H2290 0.959 1_655 S
C2305 H2291 0.961 . S
C2305 C2304 1.502 . S
C2306 H2292 0.960 . S
C2306 H2293 0.961 1_655 S
C2306 H2294 0.959 . S
C2306 C2304 1.561 . S
C2307 C2304 1.526 1_455 S
C2307 C2308 1.396 . S
C2307 C2312 1.390 . S
C2308 C2302 1.465 1_455 S
C2308 C2307 1.396 . S
C2308 C2309 1.399 . S
C2309 H2295 0.929 . S
C2309 C2308 1.399 . S
C2309 C2310 1.385 . S
C2310 H2296 0.931 . S
C2310 C2309 1.385 . S
C2310 C2311 1.389 . S
C2311 C2310 1.389 . S
C2311 C2312 1.387 . S
C2312 H2297 0.930 . S
C2312 C2307 1.390 . S
C2312 C2311 1.387 . S
H2313 C2325 0.930 . S
H2314 C2327 0.930 . S
H2315 C2328 0.930 . S
H2316 C2332 0.959 . S
H2317 C2332 0.959 . S
H2318 C2332 0.961 . S
H2319 C2333 0.960 . S
H2320 C2333 0.961 . S
H2321 C2333 0.959 . S
H2322 C2336 0.929 . S
H2323 C2337 0.931 . S
H2324 C2339 0.930 . S
C2325 H2313 0.930 . S
C2325 C2326 1.399 . S
C2325 C2330 1.399 . S
C2326 C2325 1.399 . S
C2326 C2327 1.376 . S
C2327 H2314 0.930 . S
C2327 C2326 1.376 . S
C2327 C2328 1.388 . S
C2328 H2315 0.930 . S
C2328 C2327 1.388 . S
C2328 C2329 1.390 . S
C2329 C2328 1.390 . S
C2329 C2330 1.394 . S
C2329 C2335 1.465 . S
C2330 C2325 1.399 . S
C2330 C2329 1.394 . S
C2330 C2331 1.516 . S
C2331 C2330 1.516 . S
C2331 C2332 1.502 . S
C2331 C2333 1.561 . S
C2331 C2334 1.526 . S
C2332 H2316 0.959 . S
C2332 H2317 0.959 . S
C2332 H2318 0.961 . S
C2332 C2331 1.502 . S
C2333 H2319 0.960 . S
C2333 H2320 0.961 . S
C2333 H2321 0.959 . S
C2333 C2331 1.561 . S
C2334 C2331 1.526 . S
C2334 C2335 1.396 . S
C2334 C2339 1.390 . S
C2335 C2329 1.465 . S
C2335 C2334 1.396 . S
C2335 C2336 1.399 . S
C2336 H2322 0.929 . S
C2336 C2335 1.399 . S
C2336 C2337 1.385 . S
C2337 H2323 0.931 . S
C2337 C2336 1.385 . S
C2337 C2338 1.389 . S
C2338 C2337 1.389 . S
C2338 C2339 1.387 . S
C2339 H2324 0.930 . S
C2339 C2334 1.390 . S
C2339 C2338 1.387 . S
H2340 C2352 0.930 . S
H2341 C2354 0.930 . S
H2342 C2355 0.930 . S
H2343 C2359 0.959 . S
H2344 C2359 0.959 1_545 S
H2345 C2359 0.961 . S
H2346 C2360 0.960 . S
H2347 C2360 0.961 1_545 S
H2348 C2360 0.959 . S
H2349 C2363 0.929 . S
H2350 C2364 0.931 . S
H2351 C2366 0.930 . S
C2352 H2340 0.930 . S
C2352 C2353 1.399 . S
C2352 C2357 1.399 . S
C2353 C2352 1.399 . S
C2353 C2354 1.376 . S
C2354 H2341 0.930 . S
C2354 C2353 1.376 . S
C2354 C2355 1.388 . S
C2355 H2342 0.930 . S
C2355 C2354 1.388 . S
C2355 C2356 1.390 . S
C2356 C2355 1.390 . S
C2356 C2357 1.394 . S
C2356 C2362 1.465 1_565 S
C2357 C2352 1.399 . S
C2357 C2356 1.394 . S
C2357 C2358 1.516 . S
C2358 C2357 1.516 . S
C2358 C2359 1.502 . S
C2358 C2360 1.561 . S
C2358 C2361 1.526 1_565 S
C2359 H2343 0.959 . S
C2359 H2344 0.959 1_565 S
C2359 H2345 0.961 . S
C2359 C2358 1.502 . S
C2360 H2346 0.960 . S
C2360 H2347 0.961 1_565 S
C2360 H2348 0.959 . S
C2360 C2358 1.561 . S
C2361 C2358 1.526 1_545 S
C2361 C2362 1.396 . S
C2361 C2366 1.390 . S
C2362 C2356 1.465 1_545 S
C2362 C2361 1.396 . S
C2362 C2363 1.399 . S
C2363 H2349 0.929 . S
C2363 C2362 1.399 . S
C2363 C2364 1.385 . S
C2364 H2350 0.931 . S
C2364 C2363 1.385 . S
C2364 C2365 1.389 . S
C2365 C2364 1.389 . S
C2365 C2366 1.387 . S
C2366 H2351 0.930 . S
C2366 C2361 1.390 . S
C2366 C2365 1.387 . S
H2367 C2379 0.930 . S
H2368 C2381 0.930 . S
H2369 C2382 0.930 . S
H2370 C2386 0.950 . S
H2371 C2386 0.959 1_545 S
H2372 C2386 0.961 . S
H2373 C2387 0.960 . S
H2374 C2387 0.961 1_545 S
H2375 C2387 0.959 . S
H2376 C2390 0.929 . S
H2377 C2391 0.931 . S
H2378 C2393 0.930 . S
C2379 H2367 0.930 . S
C2379 C2380 1.399 . S
C2379 C2384 1.399 . S
C2380 C2379 1.399 . S
C2380 C2381 1.376 . S
C2381 H2368 0.930 . S
C2381 C2380 1.376 . S
C2381 C2382 1.388 . S
C2382 H2369 0.930 . S
C2382 C2381 1.388 . S
C2382 C2383 1.390 . S
C2383 C2382 1.390 . S
C2383 C2384 1.394 . S
C2383 C2389 1.465 1_565 S
C2384 C2379 1.399 . S
C2384 C2383 1.394 . S
C2384 C2385 1.516 . S
C2385 C2384 1.516 . S
C2385 C2386 1.502 . S
C2385 C2387 1.561 . S
C2385 C2388 1.526 1_565 S
C2386 H2370 0.950 . S
C2386 H2371 0.959 1_565 S
C2386 H2372 0.961 . S
C2386 C2385 1.502 . S
C2387 H2373 0.960 . S
C2387 H2374 0.961 1_565 S
C2387 H2375 0.959 . S
C2387 C2385 1.561 . S
C2388 C2385 1.526 1_545 S
C2388 C2389 1.396 . S
C2388 C2393 1.390 . S
C2389 C2383 1.465 1_545 S
C2389 C2388 1.396 . S
C2389 C2390 1.399 . S
C2390 H2376 0.929 . S
C2390 C2389 1.399 . S
C2390 C2391 1.385 . S
C2391 H2377 0.931 . S
C2391 C2390 1.385 . S
C2391 C2392 1.389 . S
C2392 C2391 1.389 . S
C2392 C2393 1.387 . S
C2393 H2378 0.930 . S
C2393 C2388 1.390 . S
C2393 C2392 1.387 . S
H2394 C2406 0.930 . S
H2395 C2408 0.930 . S
H2396 C2409 0.930 . S
H2397 C2413 0.959 . S
H2398 C2413 0.959 . S
H2399 C2413 0.961 1_655 S
H2400 C2414 0.960 1_655 S
H2401 C2414 0.961 . S
H2402 C2414 0.959 . S
H2403 C2417 0.929 . S
H2404 C2418 0.931 . S
H2405 C2420 0.930 . S
C2406 H2394 0.930 . S
C2406 C2407 1.399 . S
C2406 C2411 1.399 . S
C2407 C2406 1.399 . S
C2407 C2408 1.376 . S
C2408 H2395 0.930 . S
C2408 C2407 1.376 . S
C2408 C2409 1.388 . S
C2409 H2396 0.930 . S
C2409 C2408 1.388 . S
C2409 C2410 1.390 . S
C2410 C2409 1.390 . S
C2410 C2411 1.394 . S
C2410 C2416 1.465 1_655 S
C2411 C2406 1.399 . S
C2411 C2410 1.394 . S
C2411 C2412 1.516 1_655 S
C2412 C2411 1.516 1_455 S
C2412 C2413 1.502 . S
C2412 C2414 1.561 . S
C2412 C2415 1.526 . S
C2413 H2397 0.959 . S
C2413 H2398 0.959 . S
C2413 H2399 0.961 1_455 S
C2413 C2412 1.502 . S
C2414 H2400 0.960 1_455 S
C2414 H2401 0.961 . S
C2414 H2402 0.959 . S
C2414 C2412 1.561 . S
C2415 C2412 1.526 . S
C2415 C2416 1.396 . S
C2415 C2420 1.390 . S
C2416 C2410 1.465 1_455 S
C2416 C2415 1.396 . S
C2416 C2417 1.399 . S
C2417 H2403 0.929 . S
C2417 C2416 1.399 . S
C2417 C2418 1.385 . S
C2418 H2404 0.931 . S
C2418 C2417 1.385 . S
C2418 C2419 1.389 . S
C2419 C2418 1.389 . S
C2419 C2420 1.387 . S
C2420 H2405 0.930 . S
C2420 C2415 1.390 . S
C2420 C2419 1.387 . S
H2421 C2433 0.930 . S
H2422 C2435 0.930 . S
H2423 C2436 0.930 . S
H2424 C2440 0.959 . S
H2425 C2440 0.959 . S
H2426 C2440 0.961 . S
H2427 C2441 0.960 . S
H2428 C2441 0.961 . S
H2429 C2441 0.959 . S
H2430 C2444 0.929 . S
H2431 C2445 0.931 . S
H2432 C2447 0.930 . S
C2433 H2421 0.930 . S
C2433 C2434 1.399 . S
C2433 C2438 1.399 . S
C2434 C2433 1.399 . S
C2434 C2435 1.376 . S
C2435 H2422 0.930 . S
C2435 C2434 1.376 . S
C2435 C2436 1.388 . S
C2436 H2423 0.930 . S
C2436 C2435 1.388 . S
C2436 C2437 1.390 . S
C2437 C2436 1.390 . S
C2437 C2438 1.394 . S
C2437 C2443 1.465 . S
C2438 C2433 1.399 . S
C2438 C2437 1.394 . S
C2438 C2439 1.516 . S
C2439 C2438 1.516 . S
C2439 C2440 1.502 . S
C2439 C2441 1.561 . S
C2439 C2442 1.526 . S
C2440 H2424 0.959 . S
C2440 H2425 0.959 . S
C2440 H2426 0.961 . S
C2440 C2439 1.502 . S
C2441 H2427 0.960 . S
C2441 H2428 0.961 . S
C2441 H2429 0.959 . S
C2441 C2439 1.561 . S
C2442 C2439 1.526 . S
C2442 C2443 1.396 . S
C2442 C2447 1.390 . S
C2443 C2437 1.465 . S
C2443 C2442 1.396 . S
C2443 C2444 1.399 . S
C2444 H2430 0.929 . S
C2444 C2443 1.399 . S
C2444 C2445 1.385 . S
C2445 H2431 0.931 . S
C2445 C2444 1.385 . S
C2445 C2446 1.389 . S
C2446 C2445 1.389 . S
C2446 C2447 1.387 . S
C2447 H2432 0.930 . S
C2447 C2442 1.390 . S
C2447 C2446 1.387 . S
C517 C0 1.540 . S
C529 C265 1.545 . S
C544 C15 1.556 . S
C556 C267 1.532 . S
C571 C293 1.548 . S
C583 C41 1.544 . S
C598 C55 1.556 . S
C610 C462 1.534 . S
C625 C476 1.550 . S
C637 C57 1.537 . S
C652 C71 1.546 . S
C664 C490 1.546 . S
C679 C349 1.549 . S
C691 C97 1.542 . S
C706 C99 1.536 . S
C718 C362 1.554 . S
C733 C125 1.548 . S
C745 C376 1.544 . S
C760 C139 1.550 . S
C772 C223 1.542 . S
C787 C236 1.533 . S
C799 C140 1.556 . S
C814 C154 1.532 . S
C826 C251 1.555 . S
C841 C168 1.546 . S
C853 C420 1.547 . S
C868 C183 1.555 . S
C880 C435 1.532 . S
C895 C209 1.556 . S
C907 C461 1.532 . S
C922 C294 1.554 . S
C934 C391 1.537 . S
C949 C308 1.550 . S
C961 C393 1.537 . S
C976 C322 1.543 . S
C988 C418 1.541 . S
C1003 C98 1.607 1_545 S
C1015 C13 1.618 . S
C1030 C124 1.609 1_655 S
C1042 C26 1.616 . S
C1057 C28 1.572 . S
C1069 C96 1.621 . S
C1084 C155 1.617 1_455 S
C1096 C42 1.574 . S
C1111 C138 1.614 . S
C1123 C68 1.581 . S
C1138 C141 1.621 1_565 S
C1150 C82 1.573 . S
C1165 C84 1.578 . S
C1177 C14 1.620 1_565 S
C1192 C110 1.575 . S
C1204 C40 1.613 1_455 S
C1219 C112 1.600 . S
C1231 C1 1.622 . S
C1246 C126 1.587 . S
C1258 C70 1.607 1_655 S
C1273 C54 1.618 . S
C1285 C153 1.613 . S
C1300 C56 1.607 1_545 S
C1312 C167 1.585 . S
C1327 C181 1.603 . S
C1339 C266 1.617 . S
C1354 C194 1.598 . S
C1366 C292 1.608 . S
C1381 C196 1.615 . S
C1393 C264 1.611 . S
C1408 C323 1.605 . S
C1420 C210 1.609 . S
C1435 C225 1.600 . S
C1447 C295 1.608 . S
C1462 C309 1.607 . S
C1474 C238 1.617 . S
C1489 C252 1.574 . S
C1501 C182 1.617 . S
C1516 C208 1.619 . S
C1528 C278 1.610 . S
C1543 C169 1.609 . S
C1555 C280 1.616 . S
C1570 C307 1.600 . S
C1582 C250 1.621 . S
C1597 C321 1.616 . S
C1609 C222 1.615 . S
C1624 C335 1.597 . S
C1636 C237 1.621 . S
C1651 C434 1.606 . S
C1663 C336 1.612 . S
C1678 C351 1.577 . S
C1690 C460 1.622 . S
C1705 C365 1.579 . S
C1717 C421 1.622 . S
C1732 C491 1.605 . S
C1744 C378 1.610 . S
C1759 C463 1.613 . S
C1771 C404 1.581 . S
C1786 C477 1.607 . S
C1798 C407 1.617 . S
C1813 C363 1.617 . S
C1825 C433 1.611 . S
C1840 C377 1.618 . S
C1852 C446 1.576 . S
C1867 C348 1.617 . S
C1879 C448 1.576 . S
C1894 C475 1.595 . S
C1906 C419 1.606 . S
C1921 C390 1.622 . S
C1933 C489 1.599 . S
C1948 C503 1.574 . S
C1960 C392 1.619 . S
C1975 C12 1.741 . S
C1987 C406 1.698 . S
C2002 C379 1.700 . S
C2014 C27 1.742 . S
C2029 C29 1.717 . S
C2041 C405 1.707 . S
C2056 C43 1.698 . S
C2068 C195 1.737 . S
C2083 C197 1.698 . S
C2095 C69 1.737 . S
C2110 C83 1.698 . S
C2122 C180 1.738 . S
C2137 C334 1.727 . S
C2149 C85 1.696 . S
C2164 C111 1.700 . S
C2176 C306 1.709 . S
C2191 C113 1.723 . S
C2203 C320 1.699 . S
C2218 C127 1.717 . S
C2230 C447 1.742 . S
C2245 C152 1.704 . S
C2257 C449 1.737 . S
C2272 C432 1.717 . S
C2284 C166 1.744 . S
C2299 C211 1.744 . S
C2311 C350 1.707 . S
C2326 C364 1.740 . S
C2338 C224 1.714 . S
C2353 C337 1.744 . S
C2365 C239 1.705 . S
C2380 C502 1.727 . S
C2392 C253 1.696 . S
C2407 C279 1.714 . S
C2419 C474 1.744 . S
C2434 C281 1.717 . S
C2446 C488 1.699 . S
