# Generated by pormake.
# Topology snl, (6)-cn, num edge types: 1
# Building blocks:
#     Node 0, Type 0, BuildingBlock: NUHQIS_clean_sbu_0, # of connection points: 6
#     Node 1, Type 0, BuildingBlock: NUHQIS_clean_sbu_0, # of connection points: 6
#     Node 2, Type 0, BuildingBlock: NUHQIS_clean_sbu_0, # of connection points: 6
#     Node 3, Type 0, BuildingBlock: NUHQIS_clean_sbu_0, # of connection points: 6
#     Node 4, Type 0, BuildingBlock: NUHQIS_clean_sbu_0, # of connection points: 6
#     Node 5, Type 0, BuildingBlock: NUHQIS_clean_sbu_0, # of connection points: 6
#     Node 6, Type 0, BuildingBlock: NUHQIS_clean_sbu_0, # of connection points: 6
#     Node 7, Type 0, BuildingBlock: NUHQIS_clean_sbu_0, # of connection points: 6
#     Node 8, Type 0, BuildingBlock: NUHQIS_clean_sbu_0, # of connection points: 6
#     Node 9, Type 0, BuildingBlock: NUHQIS_clean_sbu_0, # of connection points: 6
#     Node 10, Type 0, BuildingBlock: NUHQIS_clean_sbu_0, # of connection points: 6
#     Node 11, Type 0, BuildingBlock: NUHQIS_clean_sbu_0, # of connection points: 6
#     Node 12, Type 0, BuildingBlock: NUHQIS_clean_sbu_0, # of connection points: 6
#     Node 13, Type 0, BuildingBlock: NUHQIS_clean_sbu_0, # of connection points: 6
#     Node 14, Type 0, BuildingBlock: NUHQIS_clean_sbu_0, # of connection points: 6
#     Node 15, Type 0, BuildingBlock: NUHQIS_clean_sbu_0, # of connection points: 6
#     Edge 16, Type (0, 0), None
#     Edge 17, Type (0, 0), None
#     Edge 18, Type (0, 0), None
#     Edge 19, Type (0, 0), None
#     Edge 20, Type (0, 0), None
#     Edge 21, Type (0, 0), None
#     Edge 22, Type (0, 0), None
#     Edge 23, Type (0, 0), None
#     Edge 24, Type (0, 0), None
#     Edge 25, Type (0, 0), None
#     Edge 26, Type (0, 0), None
#     Edge 27, Type (0, 0), None
#     Edge 28, Type (0, 0), None
#     Edge 29, Type (0, 0), None
#     Edge 30, Type (0, 0), None
#     Edge 31, Type (0, 0), None
#     Edge 32, Type (0, 0), None
#     Edge 33, Type (0, 0), None
#     Edge 34, Type (0, 0), None
#     Edge 35, Type (0, 0), None
#     Edge 36, Type (0, 0), None
#     Edge 37, Type (0, 0), None
#     Edge 38, Type (0, 0), None
#     Edge 39, Type (0, 0), None
#     Edge 40, Type (0, 0), None
#     Edge 41, Type (0, 0), None
#     Edge 42, Type (0, 0), None
#     Edge 43, Type (0, 0), None
#     Edge 44, Type (0, 0), None
#     Edge 45, Type (0, 0), None
#     Edge 46, Type (0, 0), None
#     Edge 47, Type (0, 0), None
#     Edge 48, Type (0, 0), None
#     Edge 49, Type (0, 0), None
#     Edge 50, Type (0, 0), None
#     Edge 51, Type (0, 0), None
#     Edge 52, Type (0, 0), None
#     Edge 53, Type (0, 0), None
#     Edge 54, Type (0, 0), None
#     Edge 55, Type (0, 0), None
#     Edge 56, Type (0, 0), None
#     Edge 57, Type (0, 0), None
#     Edge 58, Type (0, 0), None
#     Edge 59, Type (0, 0), None
#     Edge 60, Type (0, 0), None
#     Edge 61, Type (0, 0), None
#     Edge 62, Type (0, 0), None
#     Edge 63, Type (0, 0), None
# Relax obj value: 0.216
# Max RMSD: 0.308
# Mean RMSD: 0.297
data_MOF--net-snl--node1-NUHQIS_clean_sbu_0--edge1-none
_symmetry_space_group_name_H-M    P1
_symmetry_Int_Tables_number       1
_symmetry_cell_setting            triclinic
loop_
_symmetry_equiv_pos_as_xyz
'x, y, z'
_cell_length_a     24.866792
_cell_length_b     24.71539
_cell_length_c     15.88908
_cell_angle_alpha  86.124545
_cell_angle_beta   93.218738
_cell_angle_gamma 90.751365
loop_
_atom_site_label
_atom_site_type_symbol
_atom_site_fract_x
_atom_site_fract_y
_atom_site_fract_z
_atom_type_partial_charge
Tb0 Tb 0.11092 0.56721 0.25055 0.0
Eu1 Eu 0.14734 0.63247 0.08928 0.0
C2 C 0.02479 0.60803 0.12598 0.0
C3 C 0.13419 0.50884 0.07922 0.0
C4 C 0.09404 0.53368 0.4705 0.0
C5 C 0.06344 0.56972 0.59764 0.0
C6 C 0.05219 0.5482 0.51961 0.0
C7 C 0.14761 0.53833 0.50302 0.0
C8 C 0.1588 0.55891 0.58184 0.0
C9 C 0.11679 0.57606 0.62905 0.0
C10 C 0.0816 0.51852 0.38325 0.0
O11 O 0.18672 0.59579 0.30235 0.0
O12 O 0.2251 0.61395 0.17612 0.0
O13 O 0.16087 0.69279 0.184 0.0
O14 O 0.09981 0.65603 0.27391 0.0
C15 C 0.22908 0.60732 0.26035 0.0
O16 O 0.20262 0.64333 0.98788 0.0
O17 O 0.13051 0.69267 0.98512 0.0
O18 O 0.05815 0.6483 0.10838 0.0
O19 O 0.04595 0.5627 0.15631 0.0
O20 O 0.14229 0.50785 0.16317 0.0
O21 O 0.12195 0.55408 1.03816 0.0
C22 C 0.12975 0.69794 0.24609 0.0
O23 O 0.05064 0.55236 0.33681 0.0
O24 O 0.12225 0.50288 0.34248 0.0
C25 C 0.15155 0.65364 0.86007 0.0
C26 C 0.12842 0.60268 0.70895 0.0
C27 C 0.17173 0.63943 0.71602 0.0
C28 C 0.18319 0.66408 0.79127 0.0
C29 C 0.10705 0.61839 0.85278 0.0
C30 C 0.09574 0.5928 0.77797 0.0
C31 C 0.1687 0.67433 0.94179 0.0
H32 H 0.03063 0.5834 0.63225 0.0
H33 H 0.01088 0.54378 0.49663 0.0
H34 H 0.18102 0.52717 0.46708 0.0
H35 H 0.20041 0.56219 0.60516 0.0
H36 H 0.1967 0.64929 0.66343 0.0
H37 H 0.21707 0.69086 0.79674 0.0
H38 H 0.08178 0.60967 0.9054 0.0
H39 H 0.06211 0.56456 0.77486 0.0
Tb40 Tb 0.63366 0.88775 0.36154 0.0
Eu41 Eu 0.67214 0.84123 0.51216 0.0
C42 C 0.54653 0.86732 0.49373 0.0
C43 C 0.64115 0.95987 0.52967 0.0
C44 C 0.62881 0.89155 0.12808 0.0
C45 C 0.61036 0.8847 0.97677 0.0
C46 C 0.60084 0.90844 1.05223 0.0
C47 C 0.66243 0.84637 0.1287 0.0
C48 C 0.67196 0.82214 1.05365 0.0
C49 C 0.64746 0.84214 0.97564 0.0
C50 C 0.61888 0.91825 0.20679 0.0
O51 O 0.7197 0.86819 0.38996 0.0
O52 O 0.72226 0.87019 0.39237 0.0
O53 O 0.61436 0.77724 0.47214 0.0
O54 O 0.63572 0.79927 0.34192 0.0
C55 C 0.73831 0.84138 0.32951 0.0
O56 O 0.73583 0.84639 0.61212 0.0
O57 O 0.6947 0.76994 0.59461 0.0
O58 O 0.58662 0.85639 0.5491 0.0
O59 O 0.55559 0.87733 0.41395 0.0
O60 O 0.63233 0.95928 0.44538 0.0
O61 O 0.65632 0.91617 0.57295 0.0
C62 C 0.61859 0.76198 0.39671 0.0
O63 O 0.58271 0.89438 0.25255 0.0
O64 O 0.66065 0.93318 0.25374 0.0
C65 C 0.70133 0.8015 0.73277 0.0
C66 C 0.66367 0.82221 0.89334 0.0
C67 C 0.71704 0.80646 0.88422 0.0
C68 C 0.73631 0.79931 0.80452 0.0
C69 C 0.64657 0.81211 0.74223 0.0
C70 C 0.62809 0.82328 0.8211 0.0
C71 C 0.72231 0.79931 0.64746 0.0
H72 H 0.58957 0.90091 0.91914 0.0
H73 H 0.57126 0.93994 1.0516 0.0
H74 H 0.68094 0.8293 0.18722 0.0
H75 H 0.69868 0.78775 1.05717 0.0
H76 H 0.7444 0.80121 0.93864 0.0
H77 H 0.77863 0.79201 0.79877 0.0
H78 H 0.61826 0.81349 0.68817 0.0
H79 H 0.58606 0.83316 0.82502 0.0
Tb80 Tb 0.35743 0.36131 0.61258 0.0
Eu81 Eu 0.39716 0.41044 0.74046 0.0
C82 C 0.38189 0.2792 0.75065 0.0
C83 C 0.28197 0.36231 0.77303 0.0
C84 C 0.35421 0.36387 0.37721 0.0
C85 C 0.3999 0.34577 0.25041 0.0
C86 C 0.38403 0.32924 0.33124 0.0
C87 C 0.34131 0.41591 0.34087 0.0
C88 C 0.35818 0.43287 0.2605 0.0
C89 C 0.38719 0.39773 0.21433 0.0
C90 C 0.33503 0.34368 0.46051 0.0
O91 O 0.36272 0.45084 0.61197 0.0
O92 O 0.35996 0.45494 0.61425 0.0
O93 O 0.46271 0.4262 0.65206 0.0
O94 O 0.4465 0.34257 0.62109 0.0
C95 C 0.38347 0.46751 0.54089 0.0
O96 O 0.39131 0.47779 0.82188 0.0
O97 O 0.46221 0.42689 0.83258 0.0
O98 O 0.4152 0.31856 0.77276 0.0
O99 O 0.34387 0.29155 0.69388 0.0
O100 O 0.28791 0.3437 0.69706 0.0
O101 O 0.31869 0.39489 0.80212 0.0
C102 C 0.4821 0.38214 0.62683 0.0
O103 O 0.36911 0.31501 0.50967 0.0
O104 O 0.30707 0.37623 0.50248 0.0
C105 C 0.4235 0.44564 0.95815 0.0
C106 C 0.40104 0.41377 0.12654 0.0
C107 C 0.43213 0.46048 0.10777 0.0
C108 C 0.44285 0.47671 1.02398 0.0
C109 C 0.39454 0.39755 0.97743 0.0
C110 C 0.38293 0.38205 1.0606 0.0
C111 C 0.43363 0.46153 0.86927 0.0
H112 H 0.42187 0.3178 0.21578 0.0
H113 H 0.39409 0.28877 0.35713 0.0
H114 H 0.3176 0.44326 0.37384 0.0
H115 H 0.34701 0.47277 0.2332 0.0
H116 H 0.44906 0.48353 0.1581 0.0
H117 H 0.46647 0.51302 1.01063 0.0
H118 H 0.38101 0.37167 0.92814 0.0
H119 H 0.35958 0.34538 1.07338 0.0
Tb120 Tb 0.90539 0.10945 0.83578 0.0
Eu121 Eu 0.84837 0.14502 0.9873 0.0
C122 C 0.97592 0.11288 0.99321 0.0
C123 C 0.87523 0.02198 0.99534 0.0
C124 C 0.93765 0.10477 0.61839 0.0
C125 C 0.95817 0.14097 0.47839 0.0
C126 C 0.97517 0.1253 0.56161 0.0
C127 C 0.88311 0.10008 0.59143 0.0
C128 C 0.86611 0.11656 0.50942 0.0
C129 C 0.90337 0.13739 0.4528 0.0
C130 C 0.95401 0.09147 0.70692 0.0
O131 O 0.82573 0.11986 0.77397 0.0
O132 O 0.7806 0.11517 0.89534 0.0
O133 O 0.83665 0.20693 0.87962 0.0
O134 O 0.92182 0.19745 0.85875 0.0
C135 C 0.78071 0.11419 0.81177 0.0
O136 O 0.79056 0.14147 0.08592 0.0
O137 O 0.84351 0.21102 1.06898 0.0
O138 O 0.94252 0.15015 1.01522 0.0
O139 O 0.95958 0.08152 0.93523 0.0
O140 O 0.88985 0.03191 0.91578 0.0
O141 O 0.85948 0.06068 1.03878 0.0
C142 C 0.88147 0.23114 0.86217 0.0
O143 O 0.96529 0.1329 0.75167 0.0
O144 O 0.92316 0.05612 0.74586 0.0
C145 C 0.83602 0.17371 0.2049 0.0
C146 C 0.88409 0.15366 0.36657 0.0
C147 C 0.84303 0.19214 0.35223 0.0
C148 C 0.81963 0.20251 0.27124 0.0
C149 C 0.87837 0.13656 0.21881 0.0
C150 C 0.90246 0.12666 0.29935 0.0
C151 C 0.81211 0.18393 0.11965 0.0
H152 H 0.98733 0.15677 0.43466 0.0
H153 H 0.01714 0.12979 0.58189 0.0
H154 H 0.8533 0.08402 0.6337 0.0
H155 H 0.82382 0.1127 0.48993 0.0
H156 H 0.82884 0.21366 0.40378 0.0
H157 H 0.78915 0.23328 0.26007 0.0
H158 H 0.89264 0.11504 0.16749 0.0
H159 H 0.93394 0.09664 0.30972 0.0
Tb160 Tb 0.13367 0.38791 0.86145 0.0
Eu161 Eu 0.17221 0.34096 1.01283 0.0
C162 C 0.04656 0.3674 0.99379 0.0
C163 C 0.14132 0.45981 1.02988 0.0
C164 C 0.12888 0.39169 0.62825 0.0
C165 C 0.11026 0.38453 0.47708 0.0
C166 C 0.10083 0.40843 0.55241 0.0
C167 C 0.16244 0.34646 0.62907 0.0
C168 C 0.17184 0.32202 0.55417 0.0
C169 C 0.1473 0.3419 0.47612 0.0
C170 C 0.1191 0.41858 0.7068 0.0
O171 O 0.21939 0.36791 0.8902 0.0
O172 O 0.2226 0.3696 0.89343 0.0
O173 O 0.11425 0.27728 0.97222 0.0
O174 O 0.13557 0.2994 0.84188 0.0
C175 C 0.23865 0.34077 0.8306 0.0
O176 O 0.23576 0.34589 0.11302 0.0
O177 O 0.19445 0.26957 0.09524 0.0
O178 O 0.08659 0.3563 1.04926 0.0
O179 O 0.05565 0.37748 0.91401 0.0
O180 O 0.13249 0.45928 0.94558 0.0
O181 O 0.15648 0.41609 1.0732 0.0
C182 C 0.11847 0.26209 0.89673 0.0
O183 O 0.08272 0.39502 0.75251 0.0
O184 O 0.16097 0.4332 0.7538 0.0
C185 C 0.2011 0.30097 0.23345 0.0
C186 C 0.16346 0.3218 0.39392 0.0
C187 C 0.2168 0.30592 0.38488 0.0
C188 C 0.23606 0.2987 0.30522 0.0
C189 C 0.14637 0.31172 0.24282 0.0
C190 C 0.12789 0.32292 0.32166 0.0
C191 C 0.22212 0.29881 0.1482 0.0
H192 H 0.08946 0.40066 0.41941 0.0
H193 H 0.07127 0.43996 0.55168 0.0
H194 H 0.18101 0.32954 0.68765 0.0
H195 H 0.19851 0.28758 0.55784 0.0
H196 H 0.24416 0.30066 0.4393 0.0
H197 H 0.27837 0.29134 0.2995 0.0
H198 H 0.11809 0.31322 0.1887 0.0
H199 H 0.08588 0.3329 0.32553 0.0
Tb200 Tb 0.85767 0.86139 0.11233 0.0
Eu201 Eu 0.89743 0.91046 0.24025 0.0
C202 C 0.88205 0.77924 0.25045 0.0
C203 C 0.78219 0.86239 0.27269 0.0
C204 C 0.85457 0.864 0.87695 0.0
C205 C 0.90031 0.84591 0.7502 0.0
C206 C 0.88446 0.8294 0.83104 0.0
C207 C 0.84158 0.91599 0.84054 0.0
C208 C 0.85843 0.93295 0.76016 0.0
C209 C 0.8875 0.89784 0.71405 0.0
C210 C 0.83537 0.8438 0.96022 0.0
O211 O 0.86293 0.95091 0.1118 0.0
O212 O 0.86018 0.95502 0.11411 0.0
O213 O 0.96292 0.9262 0.15171 0.0
O214 O 0.9467 0.84256 0.12094 0.0
C215 C 0.88366 0.96764 1.04073 0.0
O216 O 0.89156 0.97782 0.32164 0.0
O217 O 0.96251 0.92698 0.33228 0.0
O218 O 0.9154 0.81856 0.27257 0.0
O219 O 0.84406 0.79163 0.19363 0.0
O220 O 0.788 0.84403 0.19652 0.0
O221 O 0.81905 0.8947 0.3021 0.0
C222 C 0.98231 0.88212 0.12658 0.0
O223 O 0.86942 0.81512 1.00942 0.0
O224 O 0.80739 0.87635 1.00216 0.0
C225 C 0.92381 0.94571 0.45787 0.0
C226 C 0.90135 0.91387 0.62625 0.0
C227 C 0.93227 0.96068 0.60743 0.0
C228 C 0.94299 0.9769 0.52365 0.0
C229 C 0.89501 0.89752 0.47719 0.0
C230 C 0.88339 0.88204 0.56036 0.0
C231 C 0.93391 0.9616 0.36899 0.0
H232 H 0.92233 0.81796 0.71561 0.0
H233 H 0.89459 0.78896 0.85698 0.0
H234 H 0.81781 0.94332 0.87347 0.0
H235 H 0.84719 0.97281 0.73281 0.0
H236 H 0.94908 0.98382 0.65774 0.0
H237 H 0.96647 0.0133 0.51025 0.0
H238 H 0.8816 0.87157 0.42794 0.0
H239 H 0.86016 0.8453 0.57318 0.0
Tb240 Tb 0.40548 0.60932 0.33603 0.0
Eu241 Eu 0.34855 0.64495 0.48751 0.0
C242 C 0.47608 0.61275 0.49335 0.0
C243 C 0.37519 0.52189 0.49555 0.0
C244 C 0.43777 0.60457 0.11865 0.0
C245 C 0.45835 0.64076 0.97866 0.0
C246 C 0.47532 0.62507 1.0619 0.0
C247 C 0.38324 0.59992 0.09166 0.0
C248 C 0.36627 0.61641 1.00964 0.0
C249 C 0.40355 0.63721 0.95304 0.0
C250 C 0.4541 0.59127 0.2072 0.0
O251 O 0.32582 0.61975 0.27418 0.0
O252 O 0.28071 0.61515 0.39557 0.0
O253 O 0.33675 0.70684 0.3798 0.0
O254 O 0.4219 0.69734 0.35891 0.0
C255 C 0.2808 0.61413 0.312 0.0
O256 O 0.29076 0.64146 0.58616 0.0
O257 O 0.34377 0.71095 0.56919 0.0
O258 O 0.44273 0.65008 0.51529 0.0
O259 O 0.45965 0.58134 0.43552 0.0
O260 O 0.38978 0.53179 0.41597 0.0
O261 O 0.35958 0.56062 0.53903 0.0
C262 C 0.38156 0.73104 0.36232 0.0
O263 O 0.46541 0.63269 0.25194 0.0
O264 O 0.42322 0.55596 0.24612 0.0
C265 C 0.33628 0.67367 0.70513 0.0
C266 C 0.38429 0.65353 0.86681 0.0
C267 C 0.34324 0.69201 0.85248 0.0
C268 C 0.31986 0.70242 0.77149 0.0
C269 C 0.37863 0.63652 0.71901 0.0
C270 C 0.40269 0.62658 0.79956 0.0
C271 C 0.31236 0.6839 0.61987 0.0
H272 H 0.48753 0.65653 0.93495 0.0
H273 H 0.51729 0.62953 0.0822 0.0
H274 H 0.35341 0.58388 0.13391 0.0
H275 H 0.32398 0.61258 0.99012 0.0
H276 H 0.32903 0.7135 0.90405 0.0
H277 H 0.28936 0.73318 0.76036 0.0
H278 H 0.39291 0.61502 0.66767 0.0
H279 H 0.43418 0.59655 0.80992 0.0
Tb280 Tb 0.61086 0.06723 0.75044 0.0
Eu281 Eu 0.64724 0.13254 0.58914 0.0
C282 C 0.52474 0.10804 0.62596 0.0
C283 C 0.63405 0.0089 0.57901 0.0
C284 C 0.59402 0.0337 0.9704 0.0
C285 C 0.5634 0.06977 0.0975 0.0
C286 C 0.55216 0.04822 1.01949 0.0
C287 C 0.64758 0.03839 1.00292 0.0
C288 C 0.65876 0.05901 0.08173 0.0
C289 C 0.61673 0.07615 0.12891 0.0
C290 C 0.58159 0.01852 0.88316 0.0
O291 O 0.68666 0.09583 0.80216 0.0
O292 O 0.72502 0.11401 0.67591 0.0
O293 O 0.66076 0.19283 0.68391 0.0
O294 O 0.59972 0.15604 0.77384 0.0
C295 C 0.72901 0.10736 0.76013 0.0
O296 O 0.7025 0.1435 0.48771 0.0
O297 O 0.63033 0.19274 0.48501 0.0
O298 O 0.55807 0.14832 0.60835 0.0
O299 O 0.54592 0.0627 0.65619 0.0
O300 O 0.64216 0.00789 0.66297 0.0
O301 O 0.62186 0.05415 0.53797 0.0
C302 C 0.62965 0.19797 0.74602 0.0
O303 O 0.5506 0.05234 0.83671 0.0
O304 O 0.62225 0.00292 0.84238 0.0
C305 C 0.6514 0.15377 0.35992 0.0
C306 C 0.62833 0.10278 0.20881 0.0
C307 C 0.67159 0.13959 0.21587 0.0
C308 C 0.68302 0.16426 0.29112 0.0
C309 C 0.60695 0.11845 0.35264 0.0
C310 C 0.59566 0.09286 0.27783 0.0
C311 C 0.66853 0.17446 0.44165 0.0
H312 H 0.53058 0.08346 0.13209 0.0
H313 H 0.51085 0.04378 0.99651 0.0
H314 H 0.681 0.02724 0.967 0.0
H315 H 0.70036 0.06231 0.10505 0.0
H316 H 0.69655 0.14949 0.16327 0.0
H317 H 0.71685 0.19109 0.29657 0.0
H318 H 0.58168 0.1097 0.40526 0.0
H319 H 0.56207 0.06458 0.27473 0.0
Tb320 Tb 0.8704 0.35409 1.04777 0.0
Eu321 Eu 0.9071 0.41888 0.88932 0.0
C322 C 0.78817 0.3773 0.88172 0.0
C323 C 0.88783 0.28583 0.89719 0.0
C324 C 0.86433 0.33343 0.27196 0.0
C325 C 0.83662 0.36521 0.40348 0.0
C326 C 0.82417 0.34281 0.32674 0.0
C327 C 0.91762 0.34898 0.29309 0.0
C328 C 0.93014 0.3732 0.36864 0.0
C329 C 0.88977 0.38132 0.42521 0.0
C330 C 0.84872 0.31349 0.18913 0.0
O331 O 0.95694 0.33906 1.03112 0.0
O332 O 0.9732 0.42468 0.9877 0.0
O333 O 0.87482 0.47995 0.98024 0.0
O334 O 0.8941 0.42942 0.10146 0.0
C335 C 0.99206 0.37862 1.01862 0.0
O336 O 0.96979 0.43535 0.8006 0.0
O337 O 0.89642 0.48309 0.78944 0.0
O338 O 0.82908 0.3888 0.83677 0.0
O339 O 0.79448 0.37207 0.96598 0.0
O340 O 0.85788 0.29278 0.96025 0.0
O341 O 0.91761 0.32673 0.86613 0.0
C342 C 0.88203 0.47607 1.06416 0.0
O343 O 0.81508 0.34435 0.14237 0.0
O344 O 0.88742 0.29553 0.14662 0.0
C345 C 0.92661 0.44888 0.66484 0.0
C346 C 0.9029 0.4062 0.50646 0.0
C347 C 0.95335 0.39763 0.54923 0.0
C348 C 0.96514 0.41936 0.62673 0.0
C349 C 0.87608 0.45771 0.62219 0.0
C350 C 0.86473 0.43745 0.54328 0.0
C351 C 0.9379 0.46671 0.75107 0.0
H352 H 0.80433 0.37002 0.44516 0.0
H353 H 0.78293 0.33415 0.30828 0.0
H354 H 0.94933 0.34402 0.25027 0.0
H355 H 0.97126 0.38645 0.38155 0.0
H356 H 0.98346 0.3728 0.52439 0.0
H357 H 1.00392 0.41147 0.65807 0.0
H358 H 0.8453 0.48055 0.64941 0.0
H359 H 0.82592 0.44641 0.51152 0.0
Tb360 Tb 0.34609 0.14132 0.6382 0.0
Eu361 Eu 0.38434 0.09512 0.78971 0.0
C362 C 0.2784 0.14414 0.8137 0.0
C363 C 0.39755 0.22214 0.75162 0.0
C364 C 0.31757 0.18332 0.42304 0.0
C365 C 0.30097 0.17876 0.27162 0.0
C366 C 0.28202 0.18465 0.35194 0.0
C367 C 0.37265 0.17541 0.41211 0.0
C368 C 0.39094 0.16548 0.3326 0.0
C369 C 0.35477 0.16522 0.26117 0.0
C370 C 0.29702 0.18364 0.50897 0.0
O371 O 0.42888 0.12693 0.60131 0.0
O372 O 0.46419 0.10845 0.73488 0.0
O373 O 0.38521 0.02184 0.70153 0.0
O374 O 0.36132 0.06887 0.57728 0.0
C375 C 0.4708 0.11798 0.65437 0.0
O376 O 0.43594 0.0858 0.90464 0.0
O377 O 0.35529 0.05178 0.90392 0.0
O378 O 0.29643 0.1158 0.75505 0.0
O379 O 0.29604 0.1142 0.75291 0.0
O380 O 0.39996 0.20514 0.67671 0.0
O381 O 0.38252 0.1864 0.81005 0.0
C382 C 0.37594 0.02365 0.61736 0.0
O383 O 0.28435 0.13591 0.54269 0.0
O384 O 0.32483 0.21194 0.5629 0.0
C385 C 0.38897 0.09428 1.02767 0.0
C386 C 0.3709 0.14541 0.17876 0.0
C387 C 0.40884 0.10365 0.17798 0.0
C388 C 0.41792 0.07904 0.10324 0.0
C389 C 0.35447 0.13884 1.0262 0.0
C390 C 0.34517 0.16392 0.10077 0.0
C391 C 0.39778 0.06558 0.95039 0.0
H392 H 0.27319 0.18325 0.21769 0.0
H393 H 0.23957 0.19058 0.35867 0.0
H394 H 0.4015 0.17523 0.46541 0.0
H395 H 0.43329 0.15745 0.32758 0.0
H396 H 0.43025 0.08827 0.23562 0.0
H397 H 0.44708 0.04717 0.1046 0.0
H398 H 0.33482 0.15436 0.96744 0.0
H399 H 0.31748 0.19753 0.09704 0.0
Tb400 Tb 0.62148 0.57611 0.40861 0.0
Eu401 Eu 0.66072 0.62401 0.53643 0.0
C402 C 0.63111 0.51674 0.60256 0.0
C403 C 0.53451 0.60596 0.51684 0.0
C404 C 0.59421 0.54216 0.19597 0.0
C405 C 0.58623 0.52534 1.04732 0.0
C406 C 0.57605 0.50964 0.13137 0.0
C407 C 0.62109 0.59126 0.17527 0.0
C408 C 0.63232 0.60618 0.09188 0.0
C409 C 0.61559 0.57295 1.02714 0.0
C410 C 0.58504 0.52658 0.28503 0.0
O411 O 0.60368 0.665 0.37835 0.0
O412 O 0.67594 0.69518 0.45167 0.0
O413 O 0.73229 0.64166 0.44911 0.0
O414 O 0.69662 0.59266 0.34504 0.0
C415 C 0.63664 0.70569 0.39651 0.0
O416 O 0.65144 0.6707 0.64542 0.0
O417 O 0.71092 0.60634 0.65233 0.0
O418 O 0.65314 0.53213 0.53241 0.0
O419 O 0.65555 0.52952 0.52963 0.0
O420 O 0.55474 0.5631 0.48863 0.0
O421 O 0.56923 0.64534 0.52925 0.0
C422 C 0.73561 0.62356 0.37259 0.0
O423 O 0.62783 0.51073 0.33153 0.0
O424 O 0.55729 0.56167 0.32196 0.0
C425 C 0.66388 0.62049 0.77701 0.0
C426 C 0.62951 0.5881 0.93924 0.0
C427 C 0.61841 0.64037 0.90295 0.0
C428 C 0.63505 0.65623 0.82245 0.0
C429 C 0.67471 0.56798 0.81313 0.0
C430 C 0.6572 0.55177 0.8933 0.0
C431 C 0.68392 0.63985 0.69419 0.0
H432 H 0.57033 0.50108 0.99787 0.0
H433 H 0.55383 0.47257 0.14589 0.0
H434 H 0.63333 0.61837 0.22352 0.0
H435 H 0.6544 0.64353 0.07807 0.0
H436 H 0.59725 0.66915 0.93725 0.0
H437 H 0.62649 0.69704 0.79652 0.0
H438 H 0.69734 0.53969 0.78019 0.0
H439 H 0.66696 0.51151 0.92066 0.0
Tb440 Tb 0.16568 0.84158 0.16229 0.0
Eu441 Eu 0.10904 0.8744 0.31462 0.0
C442 C 0.23517 0.87032 0.33414 0.0
C443 C 0.13334 0.75269 0.28163 0.0
C444 C 0.17891 0.81439 0.94972 0.0
C445 C 0.17811 0.80193 0.80081 0.0
C446 C 0.20097 0.79133 0.88219 0.0
C447 C 0.13304 0.84707 0.93628 0.0
C448 C 0.10992 0.85735 0.85536 0.0
C449 C 0.13283 0.83533 0.78718 0.0
C450 C 0.20123 0.80319 1.03532 0.0
O451 O 0.07453 0.83744 0.13409 0.0
O452 O 0.05479 0.90575 0.21283 0.0
O453 O 0.12412 0.95434 0.22976 0.0
O454 O 0.15575 0.92318 0.10967 0.0
C455 C 0.04022 0.87479 0.15374 0.0
O456 O 0.04843 0.84995 0.40461 0.0
O457 O 0.08758 0.92888 0.40717 0.0
O458 O 0.19176 0.86484 0.37584 0.0
O459 O 0.23241 0.86988 0.25009 0.0
O460 O 0.17671 0.77992 0.26447 0.0
O461 O 0.09157 0.7837 0.28889 0.0
C462 C 0.13956 0.96299 0.15056 0.0
O463 O 0.22332 0.8449 1.07022 0.0
O464 O 0.1678 0.77753 0.0841 0.0
C465 C 0.07591 0.8809 0.53591 0.0
C466 C 0.11252 0.85093 0.70119 0.0
C467 C 0.05764 0.84548 0.67699 0.0
C468 C 0.03947 0.85997 0.594 0.0
C469 C 0.13055 0.88721 0.56109 0.0
C470 C 0.14868 0.87231 0.64312 0.0
C471 C 0.05859 0.89245 0.44762 0.0
H472 H 0.19626 0.78493 0.74821 0.0
H473 H 0.23602 0.76567 0.89241 0.0
H474 H 0.11521 0.86484 0.98829 0.0
H475 H 0.07534 0.88374 0.84573 0.0
H476 H 0.02933 0.82901 0.7216 0.0
H477 H 0.99749 0.85402 0.57484 0.0
H478 H 0.15954 0.90319 0.5173 0.0
H479 H 0.191 0.87761 0.6613 0.0
Tb480 Tb 0.84603 0.64152 0.13768 0.0
Eu481 Eu 0.88438 0.59513 0.28969 0.0
C482 C 0.77832 0.64453 0.31321 0.0
C483 C 0.89765 0.72216 0.25143 0.0
C484 C 0.81781 0.68378 0.92248 0.0
C485 C 0.80126 0.67934 0.77105 0.0
C486 C 0.7823 0.68527 0.85134 0.0
C487 C 0.87288 0.67572 0.91165 0.0
C488 C 0.89117 0.6658 0.83216 0.0
C489 C 0.85502 0.66565 0.76068 0.0
C490 C 0.79721 0.68404 1.00835 0.0
O491 O 0.9289 0.62695 0.10115 0.0
O492 O 0.9642 0.60853 0.23482 0.0
O493 O 0.8851 0.52192 0.20136 0.0
O494 O 0.86116 0.56893 0.07705 0.0
C495 C 0.97081 0.618 0.15429 0.0
O496 O 0.93596 0.58553 0.40458 0.0
O497 O 0.85512 0.55191 0.40382 0.0
O498 O 0.79687 0.61641 0.25475 0.0
O499 O 0.79552 0.61467 0.25196 0.0
O500 O 0.90002 0.70516 0.1765 0.0
O501 O 0.88268 0.68643 0.30995 0.0
C502 C 0.8758 0.52373 0.11719 0.0
O503 O 0.78445 0.63629 1.04189 0.0
O504 O 0.82504 0.71222 1.06241 0.0
C505 C 0.889 0.59434 0.52748 0.0
C506 C 0.87111 0.64572 0.67836 0.0
C507 C 0.90892 0.60383 0.67772 0.0
C508 C 0.91792 0.57911 0.60306 0.0
C509 C 0.85464 0.63903 0.52587 0.0
C510 C 0.84544 0.66424 0.60033 0.0
C511 C 0.89768 0.56553 0.4503 0.0
H512 H 0.77348 0.68388 0.71709 0.0
H513 H 0.73986 0.69129 0.85802 0.0
H514 H 0.90168 0.67538 0.96501 0.0
H515 H 0.9335 0.65764 0.82718 0.0
H516 H 0.93028 0.58844 0.73539 0.0
H517 H 0.94702 0.54717 0.60449 0.0
H518 H 0.83504 0.65454 0.46707 0.0
H519 H 0.81787 0.69795 0.59651 0.0
Tb520 Tb 0.12121 0.07617 0.90865 0.0
Eu521 Eu 0.16044 0.12403 1.03644 0.0
C522 C 0.1309 0.01669 0.10253 0.0
C523 C 0.03429 0.10606 1.01691 0.0
C524 C 0.09392 0.04216 0.69607 0.0
C525 C 0.08605 0.02521 0.54747 0.0
C526 C 0.07587 0.00954 0.63153 0.0
C527 C 0.12073 0.09129 0.67532 0.0
C528 C 0.13197 0.10617 0.59192 0.0
C529 C 0.11532 0.07287 0.52724 0.0
C530 C 0.08474 0.02661 0.78513 0.0
O531 O 0.1035 0.16509 0.87832 0.0
O532 O 0.17575 0.19522 0.95173 0.0
O533 O 0.23207 0.14158 0.94926 0.0
O534 O 0.19634 0.09272 0.84506 0.0
C535 C 0.13649 0.20576 0.8965 0.0
O536 O 0.15098 0.17062 0.14546 0.0
O537 O 0.21058 0.10637 0.1524 0.0
O538 O 0.15292 0.03214 1.0324 0.0
O539 O 0.15533 0.02953 1.0296 0.0
O540 O 0.05454 0.06317 0.98883 0.0
O541 O 0.069 0.14546 1.02914 0.0
C542 C 0.23535 0.12355 0.87269 0.0
O543 O 0.12753 0.01076 0.83163 0.0
O544 O 0.057 0.06173 0.82203 0.0
C545 C 0.16346 0.12043 0.27704 0.0
C546 C 0.1292 0.08802 0.43933 0.0
C547 C 0.11795 0.14024 0.40297 0.0
C548 C 0.13454 0.1561 0.32245 0.0
C549 C 0.17445 0.06795 0.31322 0.0
C550 C 0.15699 0.05174 0.39342 0.0
C551 C 0.1835 0.13983 0.19424 0.0
H552 H 0.07023 0.00089 0.49805 0.0
H553 H 0.05374 0.97243 0.64609 0.0
H554 H 0.13292 0.11844 0.72354 0.0
H555 H 0.15399 0.14356 0.57807 0.0
H556 H 0.09672 0.16898 0.43724 0.0
H557 H 0.12586 0.19688 0.29647 0.0
H558 H 0.19716 0.03972 0.28032 0.0
H559 H 0.16686 0.01152 0.42084 0.0
Tb560 Tb 0.66551 0.34157 0.66225 0.0
Eu561 Eu 0.60895 0.37446 0.81453 0.0
C562 C 0.73508 0.37032 0.83407 0.0
C563 C 0.63324 0.25271 0.7816 0.0
C564 C 0.6787 0.31444 0.44964 0.0
C565 C 0.67797 0.30212 0.30069 0.0
C566 C 0.7008 0.29147 0.38208 0.0
C567 C 0.63282 0.34711 0.43623 0.0
C568 C 0.60972 0.35744 0.3553 0.0
C569 C 0.63267 0.33551 0.28709 0.0
C570 C 0.701 0.30318 0.53524 0.0
O571 O 0.57433 0.33743 0.63418 0.0
O572 O 0.55474 0.40588 0.7127 0.0
O573 O 0.62421 0.45439 0.72976 0.0
O574 O 0.65564 0.42316 0.60958 0.0
C575 C 0.54007 0.37486 0.65375 0.0
O576 O 0.54833 0.35004 0.90452 0.0
O577 O 0.58747 0.42897 0.90702 0.0
O578 O 0.69167 0.36488 0.87578 0.0
O579 O 0.73229 0.36986 0.75002 0.0
O580 O 0.6766 0.27993 0.76442 0.0
O581 O 0.59148 0.28373 0.78884 0.0
C582 C 0.63961 0.46301 0.65053 0.0
O583 O 0.72315 0.34484 0.57017 0.0
O584 O 0.66753 0.27755 0.58399 0.0
C585 C 0.57578 0.38105 1.0358 0.0
C586 C 0.61237 0.35113 0.2011 0.0
C587 C 0.55749 0.34569 0.17689 0.0
C588 C 0.53933 0.36015 0.09389 0.0
C589 C 0.63042 0.38735 1.06099 0.0
C590 C 0.64853 0.37248 0.14303 0.0
C591 C 0.55848 0.39256 0.94748 0.0
H592 H 0.69615 0.28518 0.24808 0.0
H593 H 0.73586 0.26582 0.39228 0.0
H594 H 0.61495 0.36482 0.48827 0.0
H595 H 0.57512 0.38382 0.3457 0.0
H596 H 0.52916 0.32924 0.2215 0.0
H597 H 0.49735 0.35421 0.07472 0.0
H598 H 0.65942 0.40331 1.01719 0.0
H599 H 0.69085 0.37778 0.16122 0.0
Tb600 Tb 0.37044 0.85404 0.54786 0.0
Eu601 Eu 0.40717 0.91882 0.38941 0.0
C602 C 0.28824 0.87728 0.38181 0.0
C603 C 0.3879 0.78575 0.3973 0.0
C604 C 0.36436 0.83341 0.77204 0.0
C605 C 0.33665 0.86522 0.90353 0.0
C606 C 0.3242 0.84282 0.8268 0.0
C607 C 0.41765 0.84895 0.79318 0.0
C608 C 0.43017 0.87318 0.86872 0.0
C609 C 0.38981 0.88132 0.92528 0.0
C610 C 0.34876 0.81345 0.68922 0.0
O611 O 0.45696 0.839 0.53115 0.0
O612 O 0.47323 0.92463 0.48782 0.0
O613 O 0.37494 0.97989 0.48037 0.0
O614 O 0.39418 0.92934 0.60158 0.0
C615 C 0.49208 0.87856 0.51867 0.0
O616 O 0.46985 0.93529 0.30067 0.0
O617 O 0.39649 0.98304 0.28956 0.0
O618 O 0.32917 0.88874 0.33687 0.0
O619 O 0.29453 0.87206 0.46607 0.0
O620 O 0.35793 0.79272 0.46035 0.0
O621 O 0.41768 0.82666 0.36623 0.0
C622 C 0.38215 0.976 0.5643 0.0
O623 O 0.31511 0.84427 0.64245 0.0
O624 O 0.38748 0.7955 0.64673 0.0
C625 C 0.42666 0.94886 0.16493 0.0
C626 C 0.40295 0.90619 1.00654 0.0
C627 C 0.45341 0.89766 1.04928 0.0
C628 C 0.46521 0.91938 0.12677 0.0
C629 C 0.37612 0.95766 0.12232 0.0
C630 C 0.36476 0.93742 1.0434 0.0
C631 C 0.43796 0.96667 0.25117 0.0
H632 H 0.30436 0.87005 0.9452 0.0
H633 H 0.28296 0.83419 0.80832 0.0
H634 H 0.44937 0.84397 0.75038 0.0
H635 H 0.4713 0.88642 0.88163 0.0
H636 H 0.48353 0.87285 1.02441 0.0
H637 H 0.504 0.91153 0.15808 0.0
H638 H 0.34532 0.98047 0.14957 0.0
H639 H 0.32594 0.94635 1.01167 0.0
loop_
_geom_bond_atom_site_label_1
_geom_bond_atom_site_label_2
_geom_bond_distance
_geom_bond_site_symmetry_2
_ccdc_geom_bond_type
Tb0 C10 2.825 . S
Tb0 O11 2.347 . S
Tb0 O14 2.366 . S
Tb0 O19 2.418 . S
Tb0 O20 2.384 . S
Tb0 O23 2.479 . S
Tb0 O24 2.471 . S
Eu1 O12 2.418 . S
Eu1 O13 2.384 . S
Eu1 O16 2.479 1_554 S
Eu1 O17 2.471 1_554 S
Eu1 O18 2.347 . S
Eu1 O21 2.366 . S
Eu1 C31 2.825 1_554 S
C2 O18 1.259 . S
C2 O19 1.265 . S
C3 O20 1.255 . S
C3 O21 1.265 . S
C4 C6 1.380 . S
C4 C7 1.374 . S
C4 C10 1.507 . S
C5 C6 1.384 . S
C5 C9 1.387 . S
C5 H32 0.930 . S
C6 C4 1.380 . S
C6 C5 1.384 . S
C6 H33 0.931 . S
C7 C4 1.374 . S
C7 C8 1.390 . S
C7 H34 0.930 . S
C8 C7 1.390 . S
C8 C9 1.391 . S
C8 H35 0.930 . S
C9 C5 1.387 . S
C9 C8 1.391 . S
C10 Tb0 2.825 . S
C10 C4 1.507 . S
C10 O23 1.238 . S
C10 O24 1.247 . S
O11 Tb0 2.347 . S
O11 C15 1.259 . S
O12 Eu1 2.418 . S
O12 C15 1.265 . S
O13 Eu1 2.384 . S
O13 C22 1.255 . S
O14 Tb0 2.366 . S
O14 C22 1.265 . S
C15 O11 1.259 . S
C15 O12 1.265 . S
O16 Eu1 2.479 1_556 S
O16 C31 1.238 . S
O17 Eu1 2.471 1_556 S
O17 C31 1.247 . S
O18 Eu1 2.347 . S
O18 C2 1.259 . S
O19 Tb0 2.418 . S
O19 C2 1.265 . S
O20 Tb0 2.384 . S
O20 C3 1.255 . S
O21 Eu1 2.366 . S
O21 C3 1.265 . S
C22 O13 1.255 . S
C22 O14 1.265 . S
O23 Tb0 2.479 . S
O23 C10 1.238 . S
O24 Tb0 2.471 . S
O24 C10 1.247 . S
C25 C28 1.380 . S
C25 C29 1.374 . S
C25 C31 1.507 . S
C26 C27 1.387 . S
C26 C30 1.391 . S
C27 C26 1.387 . S
C27 C28 1.384 . S
C27 H36 0.930 . S
C28 C25 1.380 . S
C28 C27 1.384 . S
C28 H37 0.931 . S
C29 C25 1.374 . S
C29 C30 1.390 . S
C29 H38 0.930 . S
C30 C26 1.391 . S
C30 C29 1.390 . S
C30 H39 0.930 . S
C31 Eu1 2.825 1_556 S
C31 O16 1.238 . S
C31 O17 1.247 . S
C31 C25 1.507 . S
H32 C5 0.930 . S
H33 C6 0.931 . S
H34 C7 0.930 . S
H35 C8 0.930 . S
H36 C27 0.930 . S
H37 C28 0.931 . S
H38 C29 0.930 . S
H39 C30 0.930 . S
Tb40 C50 2.825 . S
Tb40 O51 2.347 . S
Tb40 O54 2.366 . S
Tb40 O59 2.418 . S
Tb40 O60 2.384 . S
Tb40 O63 2.479 . S
Tb40 O64 2.471 . S
Eu41 O52 2.418 . S
Eu41 O53 2.384 . S
Eu41 O56 2.479 . S
Eu41 O57 2.471 . S
Eu41 O58 2.347 . S
Eu41 O61 2.366 . S
Eu41 C71 2.825 . S
C42 O58 1.259 . S
C42 O59 1.265 . S
C43 O60 1.255 . S
C43 O61 1.265 . S
C44 C46 1.380 1_554 S
C44 C47 1.374 . S
C44 C50 1.507 . S
C45 C46 1.384 . S
C45 C49 1.387 . S
C45 H72 0.930 . S
C46 C44 1.380 1_556 S
C46 C45 1.384 . S
C46 H73 0.931 1_556 S
C47 C44 1.374 . S
C47 C48 1.390 1_554 S
C47 H74 0.930 . S
C48 C47 1.390 1_556 S
C48 C49 1.391 . S
C48 H75 0.930 . S
C49 C45 1.387 . S
C49 C48 1.391 . S
C50 Tb40 2.825 . S
C50 C44 1.507 . S
C50 O63 1.238 . S
C50 O64 1.247 . S
O51 Tb40 2.347 . S
O51 C55 1.259 . S
O52 Eu41 2.418 . S
O52 C55 1.265 . S
O53 Eu41 2.384 . S
O53 C62 1.255 . S
O54 Tb40 2.366 . S
O54 C62 1.265 . S
C55 O51 1.259 . S
C55 O52 1.265 . S
O56 Eu41 2.479 . S
O56 C71 1.238 . S
O57 Eu41 2.471 . S
O57 C71 1.247 . S
O58 Eu41 2.347 . S
O58 C42 1.259 . S
O59 Tb40 2.418 . S
O59 C42 1.265 . S
O60 Tb40 2.384 . S
O60 C43 1.255 . S
O61 Eu41 2.366 . S
O61 C43 1.265 . S
C62 O53 1.255 . S
C62 O54 1.265 . S
O63 Tb40 2.479 . S
O63 C50 1.238 . S
O64 Tb40 2.471 . S
O64 C50 1.247 . S
C65 C68 1.380 . S
C65 C69 1.374 . S
C65 C71 1.507 . S
C66 C67 1.387 . S
C66 C70 1.391 . S
C67 C66 1.387 . S
C67 C68 1.384 . S
C67 H76 0.930 . S
C68 C65 1.380 . S
C68 C67 1.384 . S
C68 H77 0.931 . S
C69 C65 1.374 . S
C69 C70 1.390 . S
C69 H78 0.930 . S
C70 C66 1.391 . S
C70 C69 1.390 . S
C70 H79 0.930 . S
C71 Eu41 2.825 . S
C71 O56 1.238 . S
C71 O57 1.247 . S
C71 C65 1.507 . S
H72 C45 0.930 . S
H73 C46 0.931 1_554 S
H74 C47 0.930 . S
H75 C48 0.930 . S
H76 C67 0.930 . S
H77 C68 0.931 . S
H78 C69 0.930 . S
H79 C70 0.930 . S
Tb80 C90 2.825 . S
Tb80 O91 2.347 . S
Tb80 O94 2.366 . S
Tb80 O99 2.418 . S
Tb80 O100 2.384 . S
Tb80 O103 2.479 . S
Tb80 O104 2.471 . S
Eu81 O92 2.418 . S
Eu81 O93 2.384 . S
Eu81 O96 2.479 . S
Eu81 O97 2.471 . S
Eu81 O98 2.347 . S
Eu81 O101 2.366 . S
Eu81 C111 2.825 . S
C82 O98 1.259 . S
C82 O99 1.265 . S
C83 O100 1.255 . S
C83 O101 1.265 . S
C84 C86 1.380 . S
C84 C87 1.374 . S
C84 C90 1.507 . S
C85 C86 1.384 . S
C85 C89 1.387 . S
C85 H112 0.930 . S
C86 C84 1.380 . S
C86 C85 1.384 . S
C86 H113 0.931 . S
C87 C84 1.374 . S
C87 C88 1.390 . S
C87 H114 0.930 . S
C88 C87 1.390 . S
C88 C89 1.391 . S
C88 H115 0.930 . S
C89 C85 1.387 . S
C89 C88 1.391 . S
C90 Tb80 2.825 . S
C90 C84 1.507 . S
C90 O103 1.238 . S
C90 O104 1.247 . S
O91 Tb80 2.347 . S
O91 C95 1.259 . S
O92 Eu81 2.418 . S
O92 C95 1.265 . S
O93 Eu81 2.384 . S
O93 C102 1.255 . S
O94 Tb80 2.366 . S
O94 C102 1.265 . S
C95 O91 1.259 . S
C95 O92 1.265 . S
O96 Eu81 2.479 . S
O96 C111 1.238 . S
O97 Eu81 2.471 . S
O97 C111 1.247 . S
O98 Eu81 2.347 . S
O98 C82 1.259 . S
O99 Tb80 2.418 . S
O99 C82 1.265 . S
O100 Tb80 2.384 . S
O100 C83 1.255 . S
O101 Eu81 2.366 . S
O101 C83 1.265 . S
C102 O93 1.255 . S
C102 O94 1.265 . S
O103 Tb80 2.479 . S
O103 C90 1.238 . S
O104 Tb80 2.471 . S
O104 C90 1.247 . S
C105 C108 1.380 1_556 S
C105 C109 1.374 1_556 S
C105 C111 1.507 . S
C106 C107 1.387 . S
C106 C110 1.391 . S
C107 C106 1.387 . S
C107 C108 1.384 . S
C107 H116 0.930 . S
C108 C105 1.380 1_554 S
C108 C107 1.384 . S
C108 H117 0.931 1_554 S
C109 C105 1.374 1_554 S
C109 C110 1.390 . S
C109 H118 0.930 1_554 S
C110 C106 1.391 . S
C110 C109 1.390 . S
C110 H119 0.930 . S
C111 Eu81 2.825 . S
C111 O96 1.238 . S
C111 O97 1.247 . S
C111 C105 1.507 . S
H112 C85 0.930 . S
H113 C86 0.931 . S
H114 C87 0.930 . S
H115 C88 0.930 . S
H116 C107 0.930 . S
H117 C108 0.931 1_556 S
H118 C109 0.930 1_556 S
H119 C110 0.930 . S
Tb120 C130 2.825 . S
Tb120 O131 2.347 . S
Tb120 O134 2.366 . S
Tb120 O139 2.418 . S
Tb120 O140 2.384 . S
Tb120 O143 2.479 . S
Tb120 O144 2.471 . S
Eu121 O132 2.418 . S
Eu121 O133 2.384 . S
Eu121 O136 2.479 1_556 S
Eu121 O137 2.471 1_556 S
Eu121 O138 2.347 . S
Eu121 O141 2.366 . S
Eu121 C151 2.825 1_556 S
C122 O138 1.259 . S
C122 O139 1.265 . S
C123 O140 1.255 . S
C123 O141 1.265 . S
C124 C126 1.380 . S
C124 C127 1.374 . S
C124 C130 1.507 . S
C125 C126 1.384 . S
C125 C129 1.387 . S
C125 H152 0.930 . S
C126 C124 1.380 . S
C126 C125 1.384 . S
C126 H153 0.931 . S
C127 C124 1.374 . S
C127 C128 1.390 . S
C127 H154 0.930 . S
C128 C127 1.390 . S
C128 C129 1.391 . S
C128 H155 0.930 . S
C129 C125 1.387 . S
C129 C128 1.391 . S
C130 Tb120 2.825 . S
C130 C124 1.507 . S
C130 O143 1.238 . S
C130 O144 1.247 . S
O131 Tb120 2.347 . S
O131 C135 1.259 . S
O132 Eu121 2.418 . S
O132 C135 1.265 . S
O133 Eu121 2.384 . S
O133 C142 1.255 . S
O134 Tb120 2.366 . S
O134 C142 1.265 . S
C135 O131 1.259 . S
C135 O132 1.265 . S
O136 Eu121 2.479 1_554 S
O136 C151 1.238 . S
O137 Eu121 2.471 1_554 S
O137 C151 1.247 . S
O138 Eu121 2.347 . S
O138 C122 1.259 . S
O139 Tb120 2.418 . S
O139 C122 1.265 . S
O140 Tb120 2.384 . S
O140 C123 1.255 . S
O141 Eu121 2.366 . S
O141 C123 1.265 . S
C142 O133 1.255 . S
C142 O134 1.265 . S
O143 Tb120 2.479 . S
O143 C130 1.238 . S
O144 Tb120 2.471 . S
O144 C130 1.247 . S
C145 C148 1.380 . S
C145 C149 1.374 . S
C145 C151 1.507 . S
C146 C147 1.387 . S
C146 C150 1.391 . S
C147 C146 1.387 . S
C147 C148 1.384 . S
C147 H156 0.930 . S
C148 C145 1.380 . S
C148 C147 1.384 . S
C148 H157 0.931 . S
C149 C145 1.374 . S
C149 C150 1.390 . S
C149 H158 0.930 . S
C150 C146 1.391 . S
C150 C149 1.390 . S
C150 H159 0.930 . S
C151 Eu121 2.825 1_554 S
C151 O136 1.238 . S
C151 O137 1.247 . S
C151 C145 1.507 . S
H152 C125 0.930 . S
H153 C126 0.931 . S
H154 C127 0.930 . S
H155 C128 0.930 . S
H156 C147 0.930 . S
H157 C148 0.931 . S
H158 C149 0.930 . S
H159 C150 0.930 . S
Tb160 C170 2.825 . S
Tb160 O171 2.347 . S
Tb160 O174 2.366 . S
Tb160 O179 2.418 . S
Tb160 O180 2.384 . S
Tb160 O183 2.479 . S
Tb160 O184 2.471 . S
Eu161 O172 2.418 . S
Eu161 O173 2.384 . S
Eu161 O176 2.479 1_556 S
Eu161 O177 2.471 1_556 S
Eu161 O178 2.347 . S
Eu161 O181 2.366 . S
Eu161 C191 2.825 1_556 S
C162 O178 1.259 . S
C162 O179 1.265 . S
C163 O180 1.255 . S
C163 O181 1.265 . S
C164 C166 1.380 . S
C164 C167 1.374 . S
C164 C170 1.507 . S
C165 C166 1.384 . S
C165 C169 1.387 . S
C165 H192 0.930 . S
C166 C164 1.380 . S
C166 C165 1.384 . S
C166 H193 0.931 . S
C167 C164 1.374 . S
C167 C168 1.390 . S
C167 H194 0.930 . S
C168 C167 1.390 . S
C168 C169 1.391 . S
C168 H195 0.930 . S
C169 C165 1.387 . S
C169 C168 1.391 . S
C170 Tb160 2.825 . S
C170 C164 1.507 . S
C170 O183 1.238 . S
C170 O184 1.247 . S
O171 Tb160 2.347 . S
O171 C175 1.259 . S
O172 Eu161 2.418 . S
O172 C175 1.265 . S
O173 Eu161 2.384 . S
O173 C182 1.255 . S
O174 Tb160 2.366 . S
O174 C182 1.265 . S
C175 O171 1.259 . S
C175 O172 1.265 . S
O176 Eu161 2.479 1_554 S
O176 C191 1.238 . S
O177 Eu161 2.471 1_554 S
O177 C191 1.247 . S
O178 Eu161 2.347 . S
O178 C162 1.259 . S
O179 Tb160 2.418 . S
O179 C162 1.265 . S
O180 Tb160 2.384 . S
O180 C163 1.255 . S
O181 Eu161 2.366 . S
O181 C163 1.265 . S
C182 O173 1.255 . S
C182 O174 1.265 . S
O183 Tb160 2.479 . S
O183 C170 1.238 . S
O184 Tb160 2.471 . S
O184 C170 1.247 . S
C185 C188 1.380 . S
C185 C189 1.374 . S
C185 C191 1.507 . S
C186 C187 1.387 . S
C186 C190 1.391 . S
C187 C186 1.387 . S
C187 C188 1.384 . S
C187 H196 0.930 . S
C188 C185 1.380 . S
C188 C187 1.384 . S
C188 H197 0.931 . S
C189 C185 1.374 . S
C189 C190 1.390 . S
C189 H198 0.930 . S
C190 C186 1.391 . S
C190 C189 1.390 . S
C190 H199 0.930 . S
C191 Eu161 2.825 1_554 S
C191 O176 1.238 . S
C191 O177 1.247 . S
C191 C185 1.507 . S
H192 C165 0.930 . S
H193 C166 0.931 . S
H194 C167 0.930 . S
H195 C168 0.930 . S
H196 C187 0.930 . S
H197 C188 0.931 . S
H198 C189 0.930 . S
H199 C190 0.930 . S
Tb200 C210 2.825 1_554 S
Tb200 O211 2.347 . S
Tb200 O214 2.366 . S
Tb200 O219 2.418 . S
Tb200 O220 2.384 . S
Tb200 O223 2.479 1_554 S
Tb200 O224 2.471 1_554 S
Eu201 O212 2.418 1_565 S
Eu201 O213 2.384 . S
Eu201 O216 2.479 . S
Eu201 O217 2.471 . S
Eu201 O218 2.347 . S
Eu201 O221 2.366 . S
Eu201 C231 2.825 . S
C202 O218 1.259 . S
C202 O219 1.265 . S
C203 O220 1.255 . S
C203 O221 1.265 . S
C204 C206 1.380 . S
C204 C207 1.374 . S
C204 C210 1.507 . S
C205 C206 1.384 . S
C205 C209 1.387 . S
C205 H232 0.930 . S
C206 C204 1.380 . S
C206 C205 1.384 . S
C206 H233 0.931 . S
C207 C204 1.374 . S
C207 C208 1.390 . S
C207 H234 0.930 . S
C208 C207 1.390 . S
C208 C209 1.391 . S
C208 H235 0.930 . S
C209 C205 1.387 . S
C209 C208 1.391 . S
C210 Tb200 2.825 1_556 S
C210 C204 1.507 . S
C210 O223 1.238 . S
C210 O224 1.247 . S
O211 Tb200 2.347 . S
O211 C215 1.243 1_565 S
O212 Eu201 2.418 1_545 S
O212 C215 1.268 . S
O213 Eu201 2.384 . S
O213 C222 1.255 . S
O214 Tb200 2.366 . S
O214 C222 1.265 . S
C215 O211 1.243 1_545 S
C215 O212 1.268 . S
O216 Eu201 2.479 . S
O216 C231 1.238 . S
O217 Eu201 2.471 . S
O217 C231 1.247 . S
O218 Eu201 2.347 . S
O218 C202 1.259 . S
O219 Tb200 2.418 . S
O219 C202 1.265 . S
O220 Tb200 2.384 . S
O220 C203 1.255 . S
O221 Eu201 2.366 . S
O221 C203 1.265 . S
C222 O213 1.255 . S
C222 O214 1.265 . S
O223 Tb200 2.479 1_556 S
O223 C210 1.238 . S
O224 Tb200 2.471 1_556 S
O224 C210 1.247 . S
C225 C228 1.380 . S
C225 C229 1.374 . S
C225 C231 1.507 . S
C226 C227 1.387 . S
C226 C230 1.391 . S
C227 C226 1.387 . S
C227 C228 1.384 . S
C227 H236 0.930 . S
C228 C225 1.380 . S
C228 C227 1.384 . S
C228 H237 0.931 . S
C229 C225 1.374 . S
C229 C230 1.390 . S
C229 H238 0.930 . S
C230 C226 1.391 . S
C230 C229 1.390 . S
C230 H239 0.930 . S
C231 Eu201 2.825 . S
C231 O216 1.238 . S
C231 O217 1.247 . S
C231 C225 1.507 . S
H232 C205 0.930 . S
H233 C206 0.931 . S
H234 C207 0.930 . S
H235 C208 0.930 . S
H236 C227 0.930 . S
H237 C228 0.931 . S
H238 C229 0.930 . S
H239 C230 0.930 . S
Tb240 C250 2.825 . S
Tb240 O251 2.347 . S
Tb240 O254 2.366 . S
Tb240 O259 2.418 . S
Tb240 O260 2.384 . S
Tb240 O263 2.479 . S
Tb240 O264 2.471 . S
Eu241 O252 2.418 . S
Eu241 O253 2.384 . S
Eu241 O256 2.479 . S
Eu241 O257 2.471 . S
Eu241 O258 2.347 . S
Eu241 O261 2.366 . S
Eu241 C271 2.825 . S
C242 O258 1.259 . S
C242 O259 1.265 . S
C243 O260 1.255 . S
C243 O261 1.265 . S
C244 C246 1.380 . S
C244 C247 1.374 . S
C244 C250 1.507 . S
C245 C246 1.384 1_556 S
C245 C249 1.387 . S
C245 H272 0.930 . S
C246 C244 1.380 . S
C246 C245 1.384 1_554 S
C246 H273 0.931 . S
C247 C244 1.374 . S
C247 C248 1.390 1_554 S
C247 H274 0.930 . S
C248 C247 1.390 1_556 S
C248 C249 1.391 . S
C248 H275 0.930 . S
C249 C245 1.387 . S
C249 C248 1.391 . S
C250 Tb240 2.825 . S
C250 C244 1.507 . S
C250 O263 1.238 . S
C250 O264 1.247 . S
O251 Tb240 2.347 . S
O251 C255 1.259 . S
O252 Eu241 2.418 . S
O252 C255 1.265 . S
O253 Eu241 2.384 . S
O253 C262 1.255 . S
O254 Tb240 2.366 . S
O254 C262 1.265 . S
C255 O251 1.259 . S
C255 O252 1.265 . S
O256 Eu241 2.479 . S
O256 C271 1.238 . S
O257 Eu241 2.471 . S
O257 C271 1.247 . S
O258 Eu241 2.347 . S
O258 C242 1.259 . S
O259 Tb240 2.418 . S
O259 C242 1.265 . S
O260 Tb240 2.384 . S
O260 C243 1.255 . S
O261 Eu241 2.366 . S
O261 C243 1.265 . S
C262 O253 1.255 . S
C262 O254 1.265 . S
O263 Tb240 2.479 . S
O263 C250 1.238 . S
O264 Tb240 2.471 . S
O264 C250 1.247 . S
C265 C268 1.380 . S
C265 C269 1.374 . S
C265 C271 1.507 . S
C266 C267 1.387 . S
C266 C270 1.391 . S
C267 C266 1.387 . S
C267 C268 1.384 . S
C267 H276 0.930 . S
C268 C265 1.380 . S
C268 C267 1.384 . S
C268 H277 0.931 . S
C269 C265 1.374 . S
C269 C270 1.390 . S
C269 H278 0.930 . S
C270 C266 1.391 . S
C270 C269 1.390 . S
C270 H279 0.930 . S
C271 Eu241 2.825 . S
C271 O256 1.238 . S
C271 O257 1.247 . S
C271 C265 1.507 . S
H272 C245 0.930 . S
H273 C246 0.931 . S
H274 C247 0.930 . S
H275 C248 0.930 . S
H276 C267 0.930 . S
H277 C268 0.931 . S
H278 C269 0.930 . S
H279 C270 0.930 . S
Tb280 C290 2.825 . S
Tb280 O291 2.347 . S
Tb280 O294 2.366 . S
Tb280 O299 2.418 . S
Tb280 O300 2.384 1_545 S
Tb280 O303 2.479 . S
Tb280 O304 2.471 . S
Eu281 O292 2.418 . S
Eu281 O293 2.384 . S
Eu281 O296 2.479 . S
Eu281 O297 2.471 . S
Eu281 O298 2.347 . S
Eu281 O301 2.366 . S
Eu281 C311 2.825 . S
C282 O298 1.259 . S
C282 O299 1.265 . S
C283 O300 1.255 . S
C283 O301 1.265 1_565 S
C284 C286 1.380 1_556 S
C284 C287 1.374 1_556 S
C284 C290 1.507 . S
C285 C286 1.384 . S
C285 C289 1.387 . S
C285 H312 0.930 . S
C286 C284 1.380 1_554 S
C286 C285 1.384 . S
C286 H313 0.931 . S
C287 C284 1.374 1_554 S
C287 C288 1.390 . S
C287 H314 0.930 1_554 S
C288 C287 1.390 . S
C288 C289 1.391 . S
C288 H315 0.930 . S
C289 C285 1.387 . S
C289 C288 1.391 . S
C290 Tb280 2.825 . S
C290 C284 1.507 . S
C290 O303 1.238 . S
C290 O304 1.247 . S
O291 Tb280 2.347 . S
O291 C295 1.259 . S
O292 Eu281 2.418 . S
O292 C295 1.265 . S
O293 Eu281 2.384 . S
O293 C302 1.255 . S
O294 Tb280 2.366 . S
O294 C302 1.265 . S
C295 O291 1.259 . S
C295 O292 1.265 . S
O296 Eu281 2.479 . S
O296 C311 1.238 . S
O297 Eu281 2.471 . S
O297 C311 1.247 . S
O298 Eu281 2.347 . S
O298 C282 1.259 . S
O299 Tb280 2.418 . S
O299 C282 1.265 . S
O300 Tb280 2.384 1_565 S
O300 C283 1.255 . S
O301 Eu281 2.366 . S
O301 C283 1.265 1_545 S
C302 O293 1.255 . S
C302 O294 1.265 . S
O303 Tb280 2.479 . S
O303 C290 1.238 . S
O304 Tb280 2.471 . S
O304 C290 1.247 . S
C305 C308 1.380 . S
C305 C309 1.374 . S
C305 C311 1.507 . S
C306 C307 1.387 . S
C306 C310 1.391 . S
C307 C306 1.387 . S
C307 C308 1.384 . S
C307 H316 0.930 . S
C308 C305 1.380 . S
C308 C307 1.384 . S
C308 H317 0.931 . S
C309 C305 1.374 . S
C309 C310 1.390 . S
C309 H318 0.930 . S
C310 C306 1.391 . S
C310 C309 1.390 . S
C310 H319 0.930 . S
C311 Eu281 2.825 . S
C311 O296 1.238 . S
C311 O297 1.247 . S
C311 C305 1.507 . S
H312 C285 0.930 . S
H313 C286 0.931 . S
H314 C287 0.930 1_556 S
H315 C288 0.930 . S
H316 C307 0.930 . S
H317 C308 0.931 . S
H318 C309 0.930 . S
H319 C310 0.930 . S
Tb320 C330 2.825 1_556 S
Tb320 O331 2.347 . S
Tb320 O334 2.366 . S
Tb320 O339 2.418 . S
Tb320 O340 2.384 . S
Tb320 O343 2.479 1_556 S
Tb320 O344 2.471 1_556 S
Eu321 O332 2.418 . S
Eu321 O333 2.384 . S
Eu321 O336 2.479 . S
Eu321 O337 2.471 . S
Eu321 O338 2.347 . S
Eu321 O341 2.366 . S
Eu321 C351 2.825 . S
C322 O338 1.259 . S
C322 O339 1.265 . S
C323 O340 1.255 . S
C323 O341 1.265 . S
C324 C326 1.380 . S
C324 C327 1.374 . S
C324 C330 1.507 . S
C325 C326 1.384 . S
C325 C329 1.387 . S
C325 H352 0.930 . S
C326 C324 1.380 . S
C326 C325 1.384 . S
C326 H353 0.931 . S
C327 C324 1.374 . S
C327 C328 1.390 . S
C327 H354 0.930 . S
C328 C327 1.390 . S
C328 C329 1.391 . S
C328 H355 0.930 . S
C329 C325 1.387 . S
C329 C328 1.391 . S
C330 Tb320 2.825 1_554 S
C330 C324 1.507 . S
C330 O343 1.238 . S
C330 O344 1.247 . S
O331 Tb320 2.347 . S
O331 C335 1.259 . S
O332 Eu321 2.418 . S
O332 C335 1.265 . S
O333 Eu321 2.384 . S
O333 C342 1.255 . S
O334 Tb320 2.366 . S
O334 C342 1.265 . S
C335 O331 1.259 . S
C335 O332 1.265 . S
O336 Eu321 2.479 . S
O336 C351 1.238 . S
O337 Eu321 2.471 . S
O337 C351 1.247 . S
O338 Eu321 2.347 . S
O338 C322 1.259 . S
O339 Tb320 2.418 . S
O339 C322 1.265 . S
O340 Tb320 2.384 . S
O340 C323 1.255 . S
O341 Eu321 2.366 . S
O341 C323 1.265 . S
C342 O333 1.255 . S
C342 O334 1.265 . S
O343 Tb320 2.479 1_554 S
O343 C330 1.238 . S
O344 Tb320 2.471 1_554 S
O344 C330 1.247 . S
C345 C348 1.380 . S
C345 C349 1.374 . S
C345 C351 1.507 . S
C346 C347 1.387 . S
C346 C350 1.391 . S
C347 C346 1.387 . S
C347 C348 1.384 . S
C347 H356 0.930 . S
C348 C345 1.380 . S
C348 C347 1.384 . S
C348 H357 0.931 . S
C349 C345 1.374 . S
C349 C350 1.390 . S
C349 H358 0.930 . S
C350 C346 1.391 . S
C350 C349 1.390 . S
C350 H359 0.930 . S
C351 Eu321 2.825 . S
C351 O336 1.238 . S
C351 O337 1.247 . S
C351 C345 1.507 . S
H352 C325 0.930 . S
H353 C326 0.931 . S
H354 C327 0.930 . S
H355 C328 0.930 . S
H356 C347 0.930 . S
H357 C348 0.931 . S
H358 C349 0.930 . S
H359 C350 0.930 . S
Tb360 C370 2.825 . S
Tb360 O371 2.347 . S
Tb360 O374 2.366 . S
Tb360 O379 2.418 . S
Tb360 O380 2.384 . S
Tb360 O383 2.479 . S
Tb360 O384 2.471 . S
Eu361 O372 2.418 . S
Eu361 O373 2.384 . S
Eu361 O376 2.479 . S
Eu361 O377 2.471 . S
Eu361 O378 2.347 . S
Eu361 O381 2.366 . S
Eu361 C391 2.825 . S
C362 O378 1.259 . S
C362 O379 1.265 . S
C363 O380 1.255 . S
C363 O381 1.265 . S
C364 C366 1.380 . S
C364 C367 1.374 . S
C364 C370 1.507 . S
C365 C366 1.384 . S
C365 C369 1.387 . S
C365 H392 0.930 . S
C366 C364 1.380 . S
C366 C365 1.384 . S
C366 H393 0.931 . S
C367 C364 1.374 . S
C367 C368 1.390 . S
C367 H394 0.930 . S
C368 C367 1.390 . S
C368 C369 1.391 . S
C368 H395 0.930 . S
C369 C365 1.387 . S
C369 C368 1.391 . S
C370 Tb360 2.825 . S
C370 C364 1.507 . S
C370 O383 1.238 . S
C370 O384 1.247 . S
O371 Tb360 2.347 . S
O371 C375 1.259 . S
O372 Eu361 2.418 . S
O372 C375 1.265 . S
O373 Eu361 2.384 . S
O373 C382 1.255 . S
O374 Tb360 2.366 . S
O374 C382 1.265 . S
C375 O371 1.259 . S
C375 O372 1.265 . S
O376 Eu361 2.479 . S
O376 C391 1.238 . S
O377 Eu361 2.471 . S
O377 C391 1.247 . S
O378 Eu361 2.347 . S
O378 C362 1.259 . S
O379 Tb360 2.418 . S
O379 C362 1.265 . S
O380 Tb360 2.384 . S
O380 C363 1.255 . S
O381 Eu361 2.366 . S
O381 C363 1.265 . S
C382 O373 1.255 . S
C382 O374 1.265 . S
O383 Tb360 2.479 . S
O383 C370 1.238 . S
O384 Tb360 2.471 . S
O384 C370 1.247 . S
C385 C388 1.380 1_556 S
C385 C389 1.374 . S
C385 C391 1.507 . S
C386 C387 1.387 . S
C386 C390 1.391 . S
C387 C386 1.387 . S
C387 C388 1.384 . S
C387 H396 0.930 . S
C388 C385 1.380 1_554 S
C388 C387 1.384 . S
C388 H397 0.931 1_554 S
C389 C385 1.374 . S
C389 C390 1.390 1_556 S
C389 H398 0.930 . S
C390 C386 1.391 . S
C390 C389 1.390 1_554 S
C390 H399 0.930 . S
C391 Eu361 2.825 . S
C391 O376 1.238 . S
C391 O377 1.247 . S
C391 C385 1.507 . S
H392 C365 0.930 . S
H393 C366 0.931 . S
H394 C367 0.930 . S
H395 C368 0.930 . S
H396 C387 0.930 . S
H397 C388 0.931 1_556 S
H398 C389 0.930 . S
H399 C390 0.930 . S
Tb400 C410 2.825 . S
Tb400 O411 2.347 . S
Tb400 O414 2.366 . S
Tb400 O419 2.418 . S
Tb400 O420 2.384 . S
Tb400 O423 2.479 . S
Tb400 O424 2.471 . S
Eu401 O412 2.418 . S
Eu401 O413 2.384 . S
Eu401 O416 2.479 . S
Eu401 O417 2.471 . S
Eu401 O418 2.347 . S
Eu401 O421 2.366 . S
Eu401 C431 2.825 . S
C402 O418 1.259 . S
C402 O419 1.265 . S
C403 O420 1.255 . S
C403 O421 1.265 . S
C404 C406 1.380 1_554 S
C404 C407 1.374 1_554 S
C404 C410 1.507 . S
C405 C406 1.384 . S
C405 C409 1.387 . S
C405 H432 0.930 . S
C406 C404 1.380 1_556 S
C406 C405 1.384 . S
C406 H433 0.931 1_556 S
C407 C404 1.374 1_556 S
C407 C408 1.390 . S
C407 H434 0.930 1_556 S
C408 C407 1.390 . S
C408 C409 1.391 . S
C408 H435 0.930 . S
C409 C405 1.387 . S
C409 C408 1.391 . S
C410 Tb400 2.825 . S
C410 C404 1.507 . S
C410 O423 1.238 . S
C410 O424 1.247 . S
O411 Tb400 2.347 . S
O411 C415 1.259 . S
O412 Eu401 2.418 . S
O412 C415 1.265 . S
O413 Eu401 2.384 . S
O413 C422 1.255 . S
O414 Tb400 2.366 . S
O414 C422 1.265 . S
C415 O411 1.259 . S
C415 O412 1.265 . S
O416 Eu401 2.479 . S
O416 C431 1.238 . S
O417 Eu401 2.471 . S
O417 C431 1.247 . S
O418 Eu401 2.347 . S
O418 C402 1.259 . S
O419 Tb400 2.418 . S
O419 C402 1.265 . S
O420 Tb400 2.384 . S
O420 C403 1.255 . S
O421 Eu401 2.366 . S
O421 C403 1.265 . S
C422 O413 1.255 . S
C422 O414 1.265 . S
O423 Tb400 2.479 . S
O423 C410 1.238 . S
O424 Tb400 2.471 . S
O424 C410 1.247 . S
C425 C428 1.380 . S
C425 C429 1.374 . S
C425 C431 1.507 . S
C426 C427 1.387 . S
C426 C430 1.391 . S
C427 C426 1.387 . S
C427 C428 1.384 . S
C427 H436 0.930 . S
C428 C425 1.380 . S
C428 C427 1.384 . S
C428 H437 0.931 . S
C429 C425 1.374 . S
C429 C430 1.390 . S
C429 H438 0.930 . S
C430 C426 1.391 . S
C430 C429 1.390 . S
C430 H439 0.930 . S
C431 Eu401 2.825 . S
C431 O416 1.238 . S
C431 O417 1.247 . S
C431 C425 1.507 . S
H432 C405 0.930 . S
H433 C406 0.931 1_554 S
H434 C407 0.930 1_554 S
H435 C408 0.930 . S
H436 C427 0.930 . S
H437 C428 0.931 . S
H438 C429 0.930 . S
H439 C430 0.930 . S
Tb440 C450 2.825 1_554 S
Tb440 O451 2.347 . S
Tb440 O454 2.366 . S
Tb440 O459 2.418 . S
Tb440 O460 2.384 . S
Tb440 O463 2.479 1_554 S
Tb440 O464 2.471 1_554 S
Eu441 O452 2.418 . S
Eu441 O453 2.384 . S
Eu441 O456 2.479 . S
Eu441 O457 2.471 . S
Eu441 O458 2.347 . S
Eu441 O461 2.366 . S
Eu441 C471 2.825 . S
C442 O458 1.259 . S
C442 O459 1.265 . S
C443 O460 1.255 . S
C443 O461 1.265 . S
C444 C446 1.380 . S
C444 C447 1.374 . S
C444 C450 1.507 . S
C445 C446 1.384 . S
C445 C449 1.387 . S
C445 H472 0.930 . S
C446 C444 1.380 . S
C446 C445 1.384 . S
C446 H473 0.931 . S
C447 C444 1.374 . S
C447 C448 1.390 . S
C447 H474 0.930 . S
C448 C447 1.390 . S
C448 C449 1.391 . S
C448 H475 0.930 . S
C449 C445 1.387 . S
C449 C448 1.391 . S
C450 Tb440 2.825 1_556 S
C450 C444 1.507 . S
C450 O463 1.238 . S
C450 O464 1.247 . S
O451 Tb440 2.347 . S
O451 C455 1.259 . S
O452 Eu441 2.418 . S
O452 C455 1.265 . S
O453 Eu441 2.384 . S
O453 C462 1.255 . S
O454 Tb440 2.366 . S
O454 C462 1.265 . S
C455 O451 1.259 . S
C455 O452 1.265 . S
O456 Eu441 2.479 . S
O456 C471 1.238 . S
O457 Eu441 2.471 . S
O457 C471 1.247 . S
O458 Eu441 2.347 . S
O458 C442 1.259 . S
O459 Tb440 2.418 . S
O459 C442 1.265 . S
O460 Tb440 2.384 . S
O460 C443 1.255 . S
O461 Eu441 2.366 . S
O461 C443 1.265 . S
C462 O453 1.255 . S
C462 O454 1.265 . S
O463 Tb440 2.479 1_556 S
O463 C450 1.238 . S
O464 Tb440 2.471 1_556 S
O464 C450 1.247 . S
C465 C468 1.380 . S
C465 C469 1.374 . S
C465 C471 1.507 . S
C466 C467 1.387 . S
C466 C470 1.391 . S
C467 C466 1.387 . S
C467 C468 1.384 . S
C467 H476 0.930 . S
C468 C465 1.380 . S
C468 C467 1.384 . S
C468 H477 0.931 . S
C469 C465 1.374 . S
C469 C470 1.390 . S
C469 H478 0.930 . S
C470 C466 1.391 . S
C470 C469 1.390 . S
C470 H479 0.930 . S
C471 Eu441 2.825 . S
C471 O456 1.238 . S
C471 O457 1.247 . S
C471 C465 1.507 . S
H472 C445 0.930 . S
H473 C446 0.931 . S
H474 C447 0.930 . S
H475 C448 0.930 . S
H476 C467 0.930 . S
H477 C468 0.931 . S
H478 C469 0.930 . S
H479 C470 0.930 . S
Tb480 C490 2.825 1_554 S
Tb480 O491 2.347 . S
Tb480 O494 2.366 . S
Tb480 O499 2.418 . S
Tb480 O500 2.384 . S
Tb480 O503 2.479 1_554 S
Tb480 O504 2.471 1_554 S
Eu481 O492 2.418 . S
Eu481 O493 2.384 . S
Eu481 O496 2.479 . S
Eu481 O497 2.471 . S
Eu481 O498 2.347 . S
Eu481 O501 2.366 . S
Eu481 C511 2.825 . S
C482 O498 1.259 . S
C482 O499 1.265 . S
C483 O500 1.255 . S
C483 O501 1.265 . S
C484 C486 1.380 . S
C484 C487 1.374 . S
C484 C490 1.507 . S
C485 C486 1.384 . S
C485 C489 1.387 . S
C485 H512 0.930 . S
C486 C484 1.380 . S
C486 C485 1.384 . S
C486 H513 0.931 . S
C487 C484 1.374 . S
C487 C488 1.390 . S
C487 H514 0.930 . S
C488 C487 1.390 . S
C488 C489 1.391 . S
C488 H515 0.930 . S
C489 C485 1.387 . S
C489 C488 1.391 . S
C490 Tb480 2.825 1_556 S
C490 C484 1.507 . S
C490 O503 1.238 . S
C490 O504 1.247 . S
O491 Tb480 2.347 . S
O491 C495 1.259 . S
O492 Eu481 2.418 . S
O492 C495 1.265 . S
O493 Eu481 2.384 . S
O493 C502 1.255 . S
O494 Tb480 2.366 . S
O494 C502 1.265 . S
C495 O491 1.259 . S
C495 O492 1.265 . S
O496 Eu481 2.479 . S
O496 C511 1.238 . S
O497 Eu481 2.471 . S
O497 C511 1.247 . S
O498 Eu481 2.347 . S
O498 C482 1.259 . S
O499 Tb480 2.418 . S
O499 C482 1.265 . S
O500 Tb480 2.384 . S
O500 C483 1.255 . S
O501 Eu481 2.366 . S
O501 C483 1.265 . S
C502 O493 1.255 . S
C502 O494 1.265 . S
O503 Tb480 2.479 1_556 S
O503 C490 1.238 . S
O504 Tb480 2.471 1_556 S
O504 C490 1.247 . S
C505 C508 1.380 . S
C505 C509 1.374 . S
C505 C511 1.507 . S
C506 C507 1.387 . S
C506 C510 1.391 . S
C507 C506 1.387 . S
C507 C508 1.384 . S
C507 H516 0.930 . S
C508 C505 1.380 . S
C508 C507 1.384 . S
C508 H517 0.931 . S
C509 C505 1.374 . S
C509 C510 1.390 . S
C509 H518 0.930 . S
C510 C506 1.391 . S
C510 C509 1.390 . S
C510 H519 0.930 . S
C511 Eu481 2.825 . S
C511 O496 1.238 . S
C511 O497 1.247 . S
C511 C505 1.507 . S
H512 C485 0.930 . S
H513 C486 0.931 . S
H514 C487 0.930 . S
H515 C488 0.930 . S
H516 C507 0.930 . S
H517 C508 0.931 . S
H518 C509 0.930 . S
H519 C510 0.930 . S
Tb520 C530 2.825 . S
Tb520 O531 2.347 . S
Tb520 O534 2.366 . S
Tb520 O539 2.418 1_545 S
Tb520 O540 2.384 . S
Tb520 O543 2.479 . S
Tb520 O544 2.471 . S
Eu521 O532 2.418 . S
Eu521 O533 2.384 . S
Eu521 O536 2.479 1_556 S
Eu521 O537 2.471 1_556 S
Eu521 O538 2.347 . S
Eu521 O541 2.366 . S
Eu521 C551 2.825 1_556 S
C522 O538 1.243 1_565 S
C522 O539 1.268 . S
C523 O540 1.255 . S
C523 O541 1.265 . S
C524 C526 1.380 . S
C524 C527 1.374 . S
C524 C530 1.507 . S
C525 C526 1.384 . S
C525 C529 1.387 . S
C525 H552 0.930 . S
C526 C524 1.380 . S
C526 C525 1.384 . S
C526 H553 0.931 . S
C527 C524 1.374 . S
C527 C528 1.390 . S
C527 H554 0.930 . S
C528 C527 1.390 . S
C528 C529 1.391 . S
C528 H555 0.930 . S
C529 C525 1.387 . S
C529 C528 1.391 . S
C530 Tb520 2.825 . S
C530 C524 1.507 . S
C530 O543 1.238 . S
C530 O544 1.247 . S
O531 Tb520 2.347 . S
O531 C535 1.259 . S
O532 Eu521 2.418 . S
O532 C535 1.265 . S
O533 Eu521 2.384 . S
O533 C542 1.255 . S
O534 Tb520 2.366 . S
O534 C542 1.265 . S
C535 O531 1.259 . S
C535 O532 1.265 . S
O536 Eu521 2.479 1_554 S
O536 C551 1.238 . S
O537 Eu521 2.471 1_554 S
O537 C551 1.247 . S
O538 Eu521 2.347 . S
O538 C522 1.243 1_545 S
O539 Tb520 2.418 1_565 S
O539 C522 1.268 . S
O540 Tb520 2.384 . S
O540 C523 1.255 . S
O541 Eu521 2.366 . S
O541 C523 1.265 . S
C542 O533 1.255 . S
C542 O534 1.265 . S
O543 Tb520 2.479 . S
O543 C530 1.238 . S
O544 Tb520 2.471 . S
O544 C530 1.247 . S
C545 C548 1.380 . S
C545 C549 1.374 . S
C545 C551 1.507 . S
C546 C547 1.387 . S
C546 C550 1.391 . S
C547 C546 1.387 . S
C547 C548 1.384 . S
C547 H556 0.930 . S
C548 C545 1.380 . S
C548 C547 1.384 . S
C548 H557 0.931 . S
C549 C545 1.374 . S
C549 C550 1.390 . S
C549 H558 0.930 . S
C550 C546 1.391 . S
C550 C549 1.390 . S
C550 H559 0.930 . S
C551 Eu521 2.825 1_554 S
C551 O536 1.238 . S
C551 O537 1.247 . S
C551 C545 1.507 . S
H552 C525 0.930 . S
H553 C526 0.931 . S
H554 C527 0.930 . S
H555 C528 0.930 . S
H556 C547 0.930 . S
H557 C548 0.931 . S
H558 C549 0.930 . S
H559 C550 0.930 . S
Tb560 C570 2.825 . S
Tb560 O571 2.347 . S
Tb560 O574 2.366 . S
Tb560 O579 2.418 . S
Tb560 O580 2.384 . S
Tb560 O583 2.479 . S
Tb560 O584 2.471 . S
Eu561 O572 2.418 . S
Eu561 O573 2.384 . S
Eu561 O576 2.479 . S
Eu561 O577 2.471 . S
Eu561 O578 2.347 . S
Eu561 O581 2.366 . S
Eu561 C591 2.825 . S
C562 O578 1.259 . S
C562 O579 1.265 . S
C563 O580 1.255 . S
C563 O581 1.265 . S
C564 C566 1.380 . S
C564 C567 1.374 . S
C564 C570 1.507 . S
C565 C566 1.384 . S
C565 C569 1.387 . S
C565 H592 0.930 . S
C566 C564 1.380 . S
C566 C565 1.384 . S
C566 H593 0.931 . S
C567 C564 1.374 . S
C567 C568 1.390 . S
C567 H594 0.930 . S
C568 C567 1.390 . S
C568 C569 1.391 . S
C568 H595 0.930 . S
C569 C565 1.387 . S
C569 C568 1.391 . S
C570 Tb560 2.825 . S
C570 C564 1.507 . S
C570 O583 1.238 . S
C570 O584 1.247 . S
O571 Tb560 2.347 . S
O571 C575 1.259 . S
O572 Eu561 2.418 . S
O572 C575 1.265 . S
O573 Eu561 2.384 . S
O573 C582 1.255 . S
O574 Tb560 2.366 . S
O574 C582 1.265 . S
C575 O571 1.259 . S
C575 O572 1.265 . S
O576 Eu561 2.479 . S
O576 C591 1.238 . S
O577 Eu561 2.471 . S
O577 C591 1.247 . S
O578 Eu561 2.347 . S
O578 C562 1.259 . S
O579 Tb560 2.418 . S
O579 C562 1.265 . S
O580 Tb560 2.384 . S
O580 C563 1.255 . S
O581 Eu561 2.366 . S
O581 C563 1.265 . S
C582 O573 1.255 . S
C582 O574 1.265 . S
O583 Tb560 2.479 . S
O583 C570 1.238 . S
O584 Tb560 2.471 . S
O584 C570 1.247 . S
C585 C588 1.380 . S
C585 C589 1.374 . S
C585 C591 1.507 . S
C586 C587 1.387 . S
C586 C590 1.391 . S
C587 C586 1.387 . S
C587 C588 1.384 1_554 S
C587 H596 0.930 . S
C588 C585 1.380 . S
C588 C587 1.384 1_556 S
C588 H597 0.931 . S
C589 C585 1.374 . S
C589 C590 1.390 1_556 S
C589 H598 0.930 . S
C590 C586 1.391 . S
C590 C589 1.390 1_554 S
C590 H599 0.930 . S
C591 Eu561 2.825 . S
C591 O576 1.238 . S
C591 O577 1.247 . S
C591 C585 1.507 . S
H592 C565 0.930 . S
H593 C566 0.931 . S
H594 C567 0.930 . S
H595 C568 0.930 . S
H596 C587 0.930 . S
H597 C588 0.931 . S
H598 C589 0.930 . S
H599 C590 0.930 . S
Tb600 C610 2.825 . S
Tb600 O611 2.347 . S
Tb600 O614 2.366 . S
Tb600 O619 2.418 . S
Tb600 O620 2.384 . S
Tb600 O623 2.479 . S
Tb600 O624 2.471 . S
Eu601 O612 2.418 . S
Eu601 O613 2.384 1_565 S
Eu601 O616 2.479 . S
Eu601 O617 2.471 . S
Eu601 O618 2.347 . S
Eu601 O621 2.366 . S
Eu601 C631 2.825 . S
C602 O618 1.259 . S
C602 O619 1.265 . S
C603 O620 1.255 . S
C603 O621 1.265 . S
C604 C606 1.380 . S
C604 C607 1.374 . S
C604 C610 1.507 . S
C605 C606 1.384 . S
C605 C609 1.387 . S
C605 H632 0.930 . S
C606 C604 1.380 . S
C606 C605 1.384 . S
C606 H633 0.931 . S
C607 C604 1.374 . S
C607 C608 1.390 . S
C607 H634 0.930 . S
C608 C607 1.390 . S
C608 C609 1.391 . S
C608 H635 0.930 . S
C609 C605 1.387 . S
C609 C608 1.391 . S
C610 Tb600 2.825 . S
C610 C604 1.507 . S
C610 O623 1.238 . S
C610 O624 1.247 . S
O611 Tb600 2.347 . S
O611 C615 1.259 . S
O612 Eu601 2.418 . S
O612 C615 1.265 . S
O613 Eu601 2.384 1_545 S
O613 C622 1.255 . S
O614 Tb600 2.366 . S
O614 C622 1.265 1_565 S
C615 O611 1.259 . S
C615 O612 1.265 . S
O616 Eu601 2.479 . S
O616 C631 1.238 . S
O617 Eu601 2.471 . S
O617 C631 1.247 . S
O618 Eu601 2.347 . S
O618 C602 1.259 . S
O619 Tb600 2.418 . S
O619 C602 1.265 . S
O620 Tb600 2.384 . S
O620 C603 1.255 . S
O621 Eu601 2.366 . S
O621 C603 1.265 . S
C622 O613 1.255 . S
C622 O614 1.265 1_545 S
O623 Tb600 2.479 . S
O623 C610 1.238 . S
O624 Tb600 2.471 . S
O624 C610 1.247 . S
C625 C628 1.380 1_554 S
C625 C629 1.374 1_554 S
C625 C631 1.507 . S
C626 C627 1.387 . S
C626 C630 1.391 . S
C627 C626 1.387 . S
C627 C628 1.384 . S
C627 H636 0.930 . S
C628 C625 1.380 1_556 S
C628 C627 1.384 . S
C628 H637 0.931 . S
C629 C625 1.374 1_556 S
C629 C630 1.390 . S
C629 H638 0.930 1_556 S
C630 C626 1.391 . S
C630 C629 1.390 . S
C630 H639 0.930 . S
C631 Eu601 2.825 . S
C631 O616 1.238 . S
C631 O617 1.247 . S
C631 C625 1.507 . S
H632 C605 0.930 . S
H633 C606 0.931 . S
H634 C607 0.930 . S
H635 C608 0.930 . S
H636 C627 0.930 . S
H637 C628 0.931 . S
H638 C629 0.930 1_554 S
H639 C630 0.930 . S
C26 C9 1.875 . S
C49 C66 1.780 . S
C89 C106 1.992 . S
C129 C146 2.364 . S
C186 C169 1.780 . S
C209 C226 1.992 . S
C266 C249 2.364 . S
C289 C306 1.875 . S
C329 C346 1.875 . S
C369 C386 1.780 . S
C409 C426 1.992 . S
C466 C449 2.364 . S
C489 C506 1.780 . S
C529 C546 1.992 . S
C569 C586 2.364 . S
C626 C609 1.875 . S
C22 C443 2.358 . S
C42 C615 1.675 . S
C82 C363 2.091 . S
C122 C523 1.690 1_655 S
C182 C535 2.091 . S
C455 C222 1.690 1_455 S
C262 C603 2.358 . S
C282 C375 1.675 . S
C142 C323 2.358 . S
C62 C415 2.091 . S
C483 C202 2.091 . S
C302 C563 2.358 . S
C335 C162 1.675 1_655 S
C242 C403 1.690 . S
C102 C575 1.690 . S
C2 C495 1.675 1_455 S
C3 C163 3.330 1_554 S
C55 C203 2.992 . S
C95 C243 3.204 . S
C135 C295 2.938 . S
C502 C342 3.330 1_554 S
C542 C362 2.992 . S
C402 C582 3.204 . S
C602 C442 2.938 . S
C43 C283 3.330 . S
C175 C83 2.992 . S
C215 C123 3.203 1_554 S
C15 C255 2.938 . S
C622 C382 3.330 . S
C482 C422 2.992 . S
C522 C462 3.203 1_556 S
C562 C322 2.938 . S
