# Generated by pormake.
# Topology mon, (4)-cn, num edge types: 1
# Building blocks:
#     Node 0, Type 0, BuildingBlock: CEKHIL_clean_sbu_0, # of connection points: 4
#     Node 1, Type 0, BuildingBlock: CEKHIL_clean_sbu_0, # of connection points: 4
#     Node 2, Type 0, BuildingBlock: CEKHIL_clean_sbu_0, # of connection points: 4
#     Node 3, Type 0, BuildingBlock: CEKHIL_clean_sbu_0, # of connection points: 4
#     Node 4, Type 0, BuildingBlock: CEKHIL_clean_sbu_0, # of connection points: 4
#     Node 5, Type 0, BuildingBlock: CEKHIL_clean_sbu_0, # of connection points: 4
#     Node 6, Type 0, BuildingBlock: CEKHIL_clean_sbu_0, # of connection points: 4
#     Node 7, Type 0, BuildingBlock: CEKHIL_clean_sbu_0, # of connection points: 4
#     Node 8, Type 0, BuildingBlock: CEKHIL_clean_sbu_0, # of connection points: 4
#     Node 9, Type 0, BuildingBlock: CEKHIL_clean_sbu_0, # of connection points: 4
#     Node 10, Type 0, BuildingBlock: CEKHIL_clean_sbu_0, # of connection points: 4
#     Node 11, Type 0, BuildingBlock: CEKHIL_clean_sbu_0, # of connection points: 4
#     Node 12, Type 0, BuildingBlock: CEKHIL_clean_sbu_0, # of connection points: 4
#     Node 13, Type 0, BuildingBlock: CEKHIL_clean_sbu_0, # of connection points: 4
#     Node 14, Type 0, BuildingBlock: CEKHIL_clean_sbu_0, # of connection points: 4
#     Node 15, Type 0, BuildingBlock: CEKHIL_clean_sbu_0, # of connection points: 4
#     Edge 16, Type (0, 0), BuildingBlock: CIFDUS_clean_linker_0, # of connection points: 2
#     Edge 17, Type (0, 0), BuildingBlock: CIFDUS_clean_linker_0, # of connection points: 2
#     Edge 18, Type (0, 0), BuildingBlock: CIFDUS_clean_linker_0, # of connection points: 2
#     Edge 19, Type (0, 0), BuildingBlock: CIFDUS_clean_linker_0, # of connection points: 2
#     Edge 20, Type (0, 0), BuildingBlock: CIFDUS_clean_linker_0, # of connection points: 2
#     Edge 21, Type (0, 0), BuildingBlock: CIFDUS_clean_linker_0, # of connection points: 2
#     Edge 22, Type (0, 0), BuildingBlock: CIFDUS_clean_linker_0, # of connection points: 2
#     Edge 23, Type (0, 0), BuildingBlock: CIFDUS_clean_linker_0, # of connection points: 2
#     Edge 24, Type (0, 0), BuildingBlock: CIFDUS_clean_linker_0, # of connection points: 2
#     Edge 25, Type (0, 0), BuildingBlock: CIFDUS_clean_linker_0, # of connection points: 2
#     Edge 26, Type (0, 0), BuildingBlock: CIFDUS_clean_linker_0, # of connection points: 2
#     Edge 27, Type (0, 0), BuildingBlock: CIFDUS_clean_linker_0, # of connection points: 2
#     Edge 28, Type (0, 0), BuildingBlock: CIFDUS_clean_linker_0, # of connection points: 2
#     Edge 29, Type (0, 0), BuildingBlock: CIFDUS_clean_linker_0, # of connection points: 2
#     Edge 30, Type (0, 0), BuildingBlock: CIFDUS_clean_linker_0, # of connection points: 2
#     Edge 31, Type (0, 0), BuildingBlock: CIFDUS_clean_linker_0, # of connection points: 2
#     Edge 32, Type (0, 0), BuildingBlock: CIFDUS_clean_linker_0, # of connection points: 2
#     Edge 33, Type (0, 0), BuildingBlock: CIFDUS_clean_linker_0, # of connection points: 2
#     Edge 34, Type (0, 0), BuildingBlock: CIFDUS_clean_linker_0, # of connection points: 2
#     Edge 35, Type (0, 0), BuildingBlock: CIFDUS_clean_linker_0, # of connection points: 2
#     Edge 36, Type (0, 0), BuildingBlock: CIFDUS_clean_linker_0, # of connection points: 2
#     Edge 37, Type (0, 0), BuildingBlock: CIFDUS_clean_linker_0, # of connection points: 2
#     Edge 38, Type (0, 0), BuildingBlock: CIFDUS_clean_linker_0, # of connection points: 2
#     Edge 39, Type (0, 0), BuildingBlock: CIFDUS_clean_linker_0, # of connection points: 2
#     Edge 40, Type (0, 0), BuildingBlock: CIFDUS_clean_linker_0, # of connection points: 2
#     Edge 41, Type (0, 0), BuildingBlock: CIFDUS_clean_linker_0, # of connection points: 2
#     Edge 42, Type (0, 0), BuildingBlock: CIFDUS_clean_linker_0, # of connection points: 2
#     Edge 43, Type (0, 0), BuildingBlock: CIFDUS_clean_linker_0, # of connection points: 2
#     Edge 44, Type (0, 0), BuildingBlock: CIFDUS_clean_linker_0, # of connection points: 2
#     Edge 45, Type (0, 0), BuildingBlock: CIFDUS_clean_linker_0, # of connection points: 2
#     Edge 46, Type (0, 0), BuildingBlock: CIFDUS_clean_linker_0, # of connection points: 2
#     Edge 47, Type (0, 0), BuildingBlock: CIFDUS_clean_linker_0, # of connection points: 2
# Relax obj value: 0.188
# Max RMSD: 0.179
# Mean RMSD: 0.178
data_MOF--net-mon--node1-CEKHIL_clean_sbu_0--edge1-CIFDUS_clean_linker_0
_symmetry_space_group_name_H-M    P1
_symmetry_Int_Tables_number       1
_symmetry_cell_setting            triclinic
loop_
_symmetry_equiv_pos_as_xyz
'x, y, z'
_cell_length_a     29.032083
_cell_length_b     29.008876
_cell_length_c     74.147175
_cell_angle_alpha  90.056815
_cell_angle_beta   89.98031
_cell_angle_gamma 90.083906
loop_
_atom_site_label
_atom_site_type_symbol
_atom_site_fract_x
_atom_site_fract_y
_atom_site_fract_z
_atom_type_partial_charge
Co0 Co 0.0331 0.04633 0.58844 0.0
O1 O 0.06615 0.10184 0.58193 0.0
O2 O 0.99495 0.10043 0.5924 0.0
C3 C 0.09166 0.01385 0.60404 0.0
O4 O 0.98834 0.9965 0.59751 0.0
Co5 Co 0.06735 0.9491 0.57615 0.0
O6 O 0.02069 0.92681 0.59343 0.0
C7 C 0.016 0.00841 0.55064 0.0
C8 C 0.0299 0.12473 0.58685 0.0
C9 C 0.9885 0.95229 0.59952 0.0
O10 O 0.00928 0.03937 0.56288 0.0
O11 O 0.04018 0.97213 0.55316 0.0
O12 O 0.06538 0.04447 0.61168 0.0
O13 O 0.08402 1.00692 0.58716 0.0
Co14 Co 0.24752 0.7766 0.83718 0.0
O15 O 0.18806 0.8021 0.8306 0.0
O16 O 0.19916 0.73122 0.84052 0.0
C17 C 0.27161 0.83861 0.85333 0.0
O18 O 0.30169 0.7378 0.84632 0.0
Co19 Co 0.34124 0.82265 0.82676 0.0
O20 O 0.36839 0.77641 0.84312 0.0
C21 C 0.29082 0.76538 0.80002 0.0
C22 C 0.17037 0.76265 0.83518 0.0
C23 C 0.34557 0.74159 0.84859 0.0
O24 O 0.25895 0.75504 0.8115 0.0
O25 O 0.32396 0.79319 0.80342 0.0
O26 O 0.24437 0.80823 0.86063 0.0
O27 O 0.28049 0.83221 0.83653 0.0
Co28 Co 0.51688 0.97531 0.08552 0.0
O29 O 0.49157 0.91603 0.07817 0.0
O30 O 0.56211 0.92641 0.08842 0.0
C31 C 0.45425 0.99813 0.10166 0.0
O32 O 0.55533 0.02944 0.09536 0.0
Co33 Co 0.47011 0.06958 0.07614 0.0
O34 O 0.51514 0.09545 0.09333 0.0
C35 C 0.52925 0.02228 0.04912 0.0
C36 C 0.53082 0.8979 0.08262 0.0
C37 C 0.55056 0.07304 0.09838 0.0
O38 O 0.53893 0.98887 0.06001 0.0
O39 O 0.5014 0.055 0.05294 0.0
O40 O 0.48446 0.97062 0.10886 0.0
O41 O 0.46126 1.00794 0.085 0.0
Co42 Co 0.289 0.24052 0.32975 0.0
O43 O 0.34792 0.21657 0.32165 0.0
O44 O 0.33851 0.28306 0.33568 0.0
C45 C 0.26407 0.17324 0.34188 0.0
O46 O 0.23529 0.2761 0.34132 0.0
Co47 Co 0.19408 0.20105 0.31733 0.0
O48 O 0.17204 0.23153 0.33954 0.0
C49 C 0.24559 0.26608 0.29379 0.0
C50 C 0.36658 0.25331 0.32851 0.0
C51 C 0.19369 0.26596 0.346 0.0
O52 O 0.27805 0.27138 0.30555 0.0
O53 O 0.21134 0.2388 0.29592 0.0
O54 O 0.29147 0.20001 0.35104 0.0
O55 O 0.25517 0.18658 0.32573 0.0
Co56 Co 0.03802 0.9705 0.40939 0.0
O57 O 0.0674 0.9137 0.41674 0.0
O58 O 1.00009 0.91751 0.403 0.0
C59 C 0.10237 1.00246 0.39736 0.0
O60 O 0.9977 0.0219 0.39862 0.0
Co61 Co 0.06939 0.06724 0.42339 0.0
O62 O 0.03656 0.08863 0.40164 0.0
C63 C 0.0119 1.0066 0.44652 0.0
C64 C 0.03249 0.89199 0.40983 0.0
C65 C 1.0043 0.06475 0.3947 0.0
O66 O 1.0072 0.97634 0.43385 0.0
O67 O 0.03666 0.04293 0.44501 0.0
O68 O 0.07805 0.97334 0.38796 0.0
O69 O 0.08872 0.00873 0.41367 0.0
Co70 Co 0.2888 0.76563 0.66045 0.0
O71 O 0.34632 0.79407 0.66784 0.0
O72 O 0.33938 0.72265 0.65782 0.0
C73 C 0.26379 0.82649 0.64406 0.0
O74 O 0.23718 0.72437 0.6505 0.0
Co75 Co 0.1922 0.80689 0.6693 0.0
O76 O 0.17195 0.76584 0.64955 0.0
C77 C 0.24284 0.75338 0.69705 0.0
C78 C 0.36618 0.75552 0.66353 0.0
C79 C 0.19525 0.73029 0.64529 0.0
O80 O 0.27606 0.74414 0.68602 0.0
O81 O 0.20848 0.77898 0.69302 0.0
O82 O 0.29269 0.7973 0.63703 0.0
O83 O 0.25358 0.81948 0.66071 0.0
Co84 Co 0.50648 0.04614 0.91011 0.0
O85 O 0.48397 0.10566 0.91836 0.0
O86 O 0.55312 0.09377 0.90697 0.0
C87 C 0.44221 0.02616 0.8945 0.0
O88 O 0.54144 0.99122 0.89906 0.0
Co89 Co 0.45705 0.95312 0.91939 0.0
O90 O 0.49305 0.93055 0.89857 0.0
C91 C 0.52106 0.99602 0.9458 0.0
C92 C 0.52325 0.1229 0.91338 0.0
C93 C 0.53022 0.95034 0.89371 0.0
O94 O 0.53039 0.03006 0.93513 0.0
O95 O 0.49195 0.96426 0.94208 0.0
O96 O 0.4726 0.05353 0.88728 0.0
O97 O 0.44978 0.01544 0.91104 0.0
Co98 Co 0.24771 0.23886 0.15586 0.0
O99 O 0.18719 0.21727 0.1633 0.0
O100 O 0.20103 0.28579 0.15161 0.0
C101 C 0.2688 0.1736 0.14105 0.0
O102 O 0.30419 0.27273 0.14545 0.0
Co103 Co 0.33875 0.18938 0.16745 0.0
O104 O 0.36433 0.22399 0.14682 0.0
C105 C 0.29317 0.25501 0.19245 0.0
C106 C 0.17098 0.25652 0.15783 0.0
C107 C 0.34559 0.26086 0.1411 0.0
O108 O 0.26106 0.26416 0.18092 0.0
O109 O 0.32494 0.22529 0.1897 0.0
O110 O 0.24241 0.20377 0.13322 0.0
O111 O 0.27773 0.18187 0.15773 0.0
Co112 Co 0.81636 0.28368 0.15722 0.0
O113 O 0.87695 0.30634 0.16422 0.0
O114 O 0.86434 0.24076 0.14997 0.0
C115 C 0.78959 0.35171 0.14618 0.0
O116 O 0.76031 0.24918 0.14676 0.0
Co117 Co 0.72434 0.32356 0.17264 0.0
O118 O 0.69733 0.29271 0.15136 0.0
C119 C 0.77864 0.25617 0.19396 0.0
C120 C 0.89394 0.26926 0.15701 0.0
C121 C 0.71754 0.25882 0.14386 0.0
O122 O 0.80882 0.25134 0.18129 0.0
O123 O 0.74474 0.28424 0.19313 0.0
O124 O 0.81576 0.32555 0.13623 0.0
O125 O 0.78372 0.33767 0.16244 0.0
Co126 Co 0.71941 0.74993 0.66109 0.0
O127 O 0.66058 0.72465 0.66826 0.0
O128 O 0.67064 0.79489 0.65747 0.0
C129 C 0.743 0.68749 0.64539 0.0
O130 O 0.77445 0.78688 0.65115 0.0
Co131 Co 0.81182 0.7035 0.67272 0.0
O132 O 0.83579 0.73953 0.65218 0.0
C133 C 0.76124 0.76254 0.69852 0.0
C134 C 0.64235 0.76345 0.66336 0.0
C135 C 0.81595 0.77593 0.64657 0.0
O136 O 0.73082 0.77299 0.68652 0.0
O137 O 0.79426 0.73423 0.69577 0.0
O138 O 0.71543 0.71725 0.63797 0.0
O139 O 0.75171 0.69435 0.66221 0.0
Co140 Co 0.72089 0.25828 0.33412 0.0
O141 O 0.66255 0.28596 0.32739 0.0
O142 O 0.67045 0.21525 0.33791 0.0
C143 C 0.74822 0.31998 0.34959 0.0
O144 O 0.77414 0.21816 0.34346 0.0
Co145 Co 0.81549 0.3005 0.32233 0.0
O146 O 0.84126 0.25579 0.33962 0.0
C147 C 0.76151 0.24364 0.29666 0.0
C148 C 0.64311 0.24752 0.33213 0.0
C149 C 0.81815 0.22175 0.34563 0.0
O150 O 0.73042 0.23478 0.30862 0.0
O151 O 0.79571 0.27063 0.29939 0.0
O152 O 0.71979 0.29139 0.3573 0.0
O153 O 0.75593 0.31236 0.33278 0.0
Co154 Co 0.81653 0.7463 0.84049 0.0
O155 O 0.87581 0.71991 0.83421 0.0
O156 O 0.86554 0.79067 0.84445 0.0
C157 C 0.79 0.6843 0.85598 0.0
O158 O 0.76225 0.78577 0.84928 0.0
Co159 Co 0.72321 0.70255 0.82831 0.0
O160 O 0.69541 0.74824 0.84476 0.0
C161 C 0.77773 0.75891 0.80268 0.0
C162 C 0.89396 0.75909 0.83889 0.0
C163 C 0.7181 0.78244 0.8509 0.0
O164 O 0.80785 0.76884 0.81487 0.0
O165 O 0.74375 0.73155 0.80527 0.0
O166 O 0.81737 0.71383 0.86375 0.0
O167 O 0.78258 0.69137 0.83911 0.0
Co168 Co 0.54698 0.5424 0.08206 0.0
O169 O 0.57114 0.60205 0.0745 0.0
O170 O 0.50461 0.59175 0.08828 0.0
C171 C 0.61435 0.51611 0.09398 0.0
O172 O 0.51032 0.48833 0.09285 0.0
Co173 Co 0.58657 0.44765 0.069 0.0
O174 O 0.54663 0.42115 0.08786 0.0
C175 C 0.52054 0.49979 0.04606 0.0
C176 C 0.53414 0.62032 0.08127 0.0
C177 C 0.51401 0.4443 0.09491 0.0
O178 O 0.51594 0.53256 0.05776 0.0
O179 O 0.548 0.4657 0.048 0.0
O180 O 0.58787 0.54313 0.10343 0.0
O181 O 0.60067 0.5084 0.07781 0.0
Co182 Co 0.97567 0.47594 0.58644 0.0
O183 O 0.94593 0.41761 0.58236 0.0
O184 O 0.01891 0.42506 0.59016 0.0
C185 C 0.91832 0.50575 0.60348 0.0
O186 O 0.01663 0.53203 0.59257 0.0
Co187 Co 0.92672 0.56524 0.57234 0.0
O188 O 0.97236 0.59485 0.58828 0.0
C189 C 0.98119 0.5079 0.54722 0.0
C190 C 0.98443 0.3978 0.58643 0.0
C191 C 0.00952 0.57599 0.59369 0.0
O192 O 0.99314 0.48029 0.56002 0.0
O193 O 0.95343 0.54168 0.54935 0.0
O194 O 0.94896 0.47897 0.61077 0.0
O195 O 0.92104 0.50971 0.58624 0.0
Co196 Co 0.55107 0.47669 0.90939 0.0
O197 O 0.57216 0.41736 0.91828 0.0
O198 O 0.50433 0.42931 0.90578 0.0
C199 C 0.61705 0.49551 0.89463 0.0
O200 O 0.51788 0.53154 0.89758 0.0
Co201 Co 0.60083 0.56951 0.9189 0.0
O202 O 0.567 0.59165 0.89749 0.0
C203 C 0.53315 0.52871 0.94445 0.0
C204 C 0.53331 0.40021 0.91279 0.0
C205 C 0.53004 0.57212 0.89223 0.0
O206 O 0.5247 0.49412 0.93392 0.0
O207 O 0.56312 0.55986 0.94098 0.0
O208 O 0.58713 0.46814 0.88711 0.0
O209 O 0.60798 0.50681 0.911 0.0
Co210 Co 0.98237 0.54049 0.40366 0.0
O211 O 0.94929 0.59673 0.409 0.0
O212 O 0.02168 0.59412 0.39993 0.0
C213 C 0.92501 0.50705 0.38755 0.0
O214 O 0.02755 0.48964 0.39582 0.0
Co215 Co 0.94609 0.44418 0.41632 0.0
O216 O 0.99427 0.42035 0.40005 0.0
C217 C 0.99301 0.50611 0.44223 0.0
C218 C 0.98648 0.61902 0.40471 0.0
C219 C 0.02716 0.44529 0.39417 0.0
O220 O 1.00274 0.53549 0.42973 0.0
O221 O 0.96879 0.46983 0.43963 0.0
O222 O 0.95234 0.53681 0.3799 0.0
O223 O 0.93114 0.50146 0.40457 0.0
H224 H 0.95577 0.18176 0.59022 0.0
H225 H 0.1031 0.18311 0.58287 0.0
H226 H 0.10307 0.26739 0.5828 0.0
H227 H 0.06077 0.34159 0.58454 0.0
H228 H 0.91292 0.33885 0.59035 0.0
H229 H 0.9137 0.25503 0.59138 0.0
C230 C 0.98787 0.20048 0.58861 0.0
C231 C 0.02932 0.17602 0.58657 0.0
C232 C 0.98757 0.24905 0.58832 0.0
C233 C 0.07059 0.20097 0.5844 0.0
C234 C 0.07065 0.24927 0.5844 0.0
C235 C 0.02884 0.32257 0.58609 0.0
C236 C 0.9869 0.34665 0.58737 0.0
C237 C 0.02932 0.27382 0.58633 0.0
C238 C 0.94574 0.32136 0.58924 0.0
C239 C 0.94607 0.27327 0.58985 0.0
H240 H 0.96256 0.69515 0.83635 0.0
H241 H 0.93907 0.84172 0.83943 0.0
H242 H 0.02202 0.85588 0.83774 0.0
H243 H 0.10165 0.82665 0.83573 0.0
H244 H 0.12538 0.67997 0.83464 0.0
H245 H 0.04229 0.66586 0.83515 0.0
C246 C 0.9756 0.7302 0.83659 0.0
C247 C 0.94451 0.76733 0.83792 0.0
C248 C 0.02353 0.73808 0.83595 0.0
C249 C 0.96211 0.8125 0.83843 0.0
C250 C 0.00961 0.82063 0.83743 0.0
C251 C 0.08861 0.79161 0.83548 0.0
C252 C 0.11977 0.75442 0.835 0.0
C253 C 0.04069 0.78372 0.83621 0.0
C254 C 0.10225 0.70922 0.83497 0.0
C255 C 0.05467 0.70112 0.83527 0.0
H256 H 0.59801 0.6896 0.07884 0.0
H257 H 0.452 0.66544 0.08385 0.0
H258 H 0.43787 0.74855 0.08393 0.0
H259 H 0.46695 0.82863 0.08293 0.0
H260 H 0.61332 0.85297 0.08036 0.0
H261 H 0.62732 0.76982 0.07897 0.0
C262 C 0.56309 0.70255 0.07986 0.0
C263 C 0.52609 0.67114 0.0812 0.0
C264 C 0.55527 0.75064 0.08036 0.0
C265 C 0.48113 0.68866 0.0828 0.0
C266 C 0.47301 0.73629 0.08282 0.0
C267 C 0.50191 0.81574 0.08197 0.0
C268 C 0.53902 0.84717 0.08159 0.0
C269 C 0.50978 0.76768 0.08164 0.0
C270 C 0.58411 0.82971 0.08064 0.0
C271 C 0.59214 0.78207 0.07983 0.0
H272 H 0.57655 0.31382 0.3317 0.0
H273 H 0.59541 0.16645 0.33038 0.0
H274 H 0.51199 0.15529 0.32833 0.0
H275 H 0.43329 0.18737 0.32713 0.0
H276 H 0.41411 0.33441 0.33089 0.0
H277 H 0.49768 0.34578 0.33172 0.0
C278 C 0.56238 0.27927 0.3309 0.0
C279 C 0.5923 0.24101 0.33106 0.0
C280 C 0.51419 0.27307 0.33015 0.0
C281 C 0.57327 0.19647 0.33029 0.0
C282 C 0.52552 0.19008 0.32908 0.0
C283 C 0.44743 0.22192 0.32803 0.0
C284 C 0.41742 0.26005 0.32876 0.0
C285 C 0.4956 0.2281 0.329 0.0
C286 C 0.43635 0.30451 0.33025 0.0
C287 C 0.48419 0.31101 0.33073 0.0
H288 H 0.95747 0.83576 0.40533 0.0
H289 H 0.1047 0.83284 0.41291 0.0
H290 H 0.10412 0.74874 0.41131 0.0
H291 H 0.06176 0.67532 0.4079 0.0
H292 H 0.91394 0.67799 0.40248 0.0
H293 H 0.91476 0.76222 0.40306 0.0
C294 C 0.98939 0.81668 0.40663 0.0
C295 C 0.03107 0.84071 0.4092 0.0
C296 C 0.98873 0.76802 0.40607 0.0
C297 C 0.07208 0.81534 0.411 0.0
C298 C 0.07183 0.76714 0.41004 0.0
C299 C 0.02979 0.69439 0.4068 0.0
C300 C 0.98789 0.6703 0.40507 0.0
C301 C 0.03037 0.74302 0.40759 0.0
C302 C 0.94669 0.69558 0.40387 0.0
C303 C 0.94711 0.74384 0.40417 0.0
H304 H 0.43208 0.82279 0.66358 0.0
H305 H 0.41445 0.67518 0.66514 0.0
H306 H 0.49799 0.66487 0.66589 0.0
H307 H 0.57613 0.69753 0.66559 0.0
H308 H 0.59452 0.84477 0.66195 0.0
H309 H 0.51081 0.85554 0.6625 0.0
C310 C 0.44656 0.78839 0.66421 0.0
C311 C 0.41699 0.74978 0.66445 0.0
C312 C 0.49481 0.78268 0.66421 0.0
C313 C 0.43635 0.70545 0.66497 0.0
C314 C 0.48416 0.69953 0.6654 0.0
C315 C 0.56186 0.73203 0.66502 0.0
C316 C 0.59162 0.77034 0.66387 0.0
C317 C 0.51373 0.73785 0.66496 0.0
C318 C 0.57246 0.81472 0.66287 0.0
C319 C 0.52456 0.82087 0.6632 0.0
H320 H 0.59529 0.32975 0.91496 0.0
H321 H 0.4495 0.35694 0.91226 0.0
H322 H 0.43344 0.27405 0.91311 0.0
H323 H 0.46088 0.19336 0.91402 0.0
H324 H 0.60686 0.16626 0.91423 0.0
H325 H 0.62276 0.24915 0.91497 0.0
C326 C 0.55997 0.31755 0.91468 0.0
C327 C 0.52362 0.34971 0.91371 0.0
C328 C 0.55104 0.26966 0.91469 0.0
C329 C 0.47813 0.33312 0.91305 0.0
C330 C 0.46893 0.28563 0.91354 0.0
C331 C 0.49618 0.2056 0.91436 0.0
C332 C 0.53264 0.17346 0.91424 0.0
C333 C 0.50509 0.25351 0.91429 0.0
C334 C 0.57815 0.19007 0.91436 0.0
C335 C 0.58726 0.23755 0.91478 0.0
H336 H 0.09971 0.19518 0.15684 0.0
H337 H 0.12894 0.34078 0.15923 0.0
H338 H 0.04628 0.35767 0.15977 0.0
H339 H 0.96513 0.33099 0.15944 0.0
H340 H 0.93637 0.18568 0.15445 0.0
H341 H 0.0189 0.1688 0.15501 0.0
C342 C 0.08798 0.23061 0.15756 0.0
C343 C 0.12061 0.26666 0.15818 0.0
C344 C 0.04027 0.24012 0.15735 0.0
C345 C 0.1047 0.31238 0.15878 0.0
C346 C 0.05735 0.32205 0.1591 0.0
C347 C 0.97696 0.29563 0.1585 0.0
C348 C 0.94443 0.25962 0.15703 0.0
C349 C 0.02474 0.28622 0.15838 0.0
C350 C 0.96049 0.21406 0.15558 0.0
C351 C 0.00777 0.20437 0.15594 0.0
H352 H 0.98654 0.0703 0.47112 0.0
H353 H 0.99596 0.92339 0.46277 0.0
H354 H 0.98939 0.91078 0.4953 0.0
H355 H 0.99743 0.94249 0.52583 0.0
H356 H 0.99367 0.08977 0.53409 0.0
H357 H 0.981 0.10135 0.5018 0.0
C358 C 0.98596 0.03542 0.4764 0.0
C359 C 0.99282 0.99783 0.46465 0.0
C360 C 0.98411 0.02866 0.49508 0.0
C361 C 0.99097 0.95284 0.47155 0.0
C362 C 0.98778 0.9457 0.49016 0.0
C363 C 0.99306 0.97714 0.52061 0.0
C364 C 0.99777 0.01535 0.53223 0.0
C365 C 0.987 0.98349 0.50204 0.0
C366 C 0.99072 0.05988 0.5254 0.0
C367 C 0.98372 0.06649 0.50693 0.0
H368 H 0.21536 0.74144 0.78015 0.0
H369 H 0.36373 0.74786 0.77828 0.0
H370 H 0.36261 0.73544 0.74581 0.0
H371 H 0.31909 0.73758 0.71745 0.0
H372 H 0.17063 0.7348 0.71915 0.0
H373 H 0.17219 0.72986 0.75195 0.0
C374 C 0.24739 0.73878 0.77268 0.0
C375 C 0.28941 0.74663 0.7815 0.0
C376 C 0.24653 0.73285 0.75386 0.0
C377 C 0.33078 0.74293 0.77169 0.0
C378 C 0.33025 0.73584 0.7531 0.0
C379 C 0.2872 0.73439 0.72498 0.0
C380 C 0.2449 0.73752 0.71595 0.0
C381 C 0.28826 0.73303 0.74392 0.0
C382 C 0.20373 0.73333 0.72587 0.0
C383 C 0.20453 0.73065 0.74464 0.0
H384 H 0.54736 0.94976 0.02677 0.0
H385 H 0.55263 0.09807 0.02997 0.0
H386 H 0.56012 0.10342 -0.00268 0.0
H387 H 0.54789 0.0667 0.96779 0.0
H388 H 0.54027 0.91843 0.96462 0.0
H389 H 0.55204 0.91233 -0.00297 0.0
C390 C 0.55185 0.98305 0.02035 0.0
C391 C 0.54828 0.0234 0.03065 0.0
C392 C 0.55485 0.98602 0.00144 0.0
C393 C 0.55429 0.06645 0.0222 0.0
C394 C 0.55842 0.06962 0.00351 0.0
C395 C 0.55041 0.0331 0.97412 0.0
C396 C 0.54194 0.99325 0.96394 0.0
C397 C 0.55604 0.02977 0.99292 0.0
C398 C 0.54558 0.9498 0.9723 0.0
C399 C 0.55222 0.94619 0.99086 0.0
H400 H 0.21961 0.28677 0.2118 0.0
H401 H 0.36733 0.2717 0.21369 0.0
H402 H 0.36702 0.28534 0.24607 0.0
H403 H 0.32315 0.28324 0.27437 0.0
H404 H 0.17526 0.29535 0.27266 0.0
H405 H 0.17739 0.30272 0.23993 0.0
C406 C 0.2518 0.28805 0.21922 0.0
C407 C 0.29316 0.2768 0.21049 0.0
C408 C 0.25135 0.29482 0.23801 0.0
C409 C 0.33476 0.27901 0.22023 0.0
C410 C 0.3347 0.28679 0.23878 0.0
C411 C 0.29165 0.28944 0.26688 0.0
C412 C 0.24912 0.2876 0.27581 0.0
C413 C 0.29295 0.29198 0.24796 0.0
C414 C 0.20846 0.29577 0.26597 0.0
C415 C 0.20957 0.29967 0.24723 0.0
H416 H 0.71103 0.22621 0.2159 0.0
H417 H 0.85891 0.23402 0.21118 0.0
H418 H 0.86658 0.22006 0.24359 0.0
H419 H 0.8305 0.22411 0.27349 0.0
H420 H 0.68238 0.22276 0.2783 0.0
H421 H 0.67535 0.21478 0.24556 0.0
C422 C 0.745 0.2235 0.22191 0.0
C423 C 0.78437 0.23224 0.21134 0.0
C424 C 0.74891 0.21746 0.24058 0.0
C425 C 0.82818 0.22767 0.21909 0.0
C426 C 0.83248 0.22024 0.23765 0.0
C427 C 0.79667 0.22095 0.26739 0.0
C428 C 0.75693 0.22529 0.27817 0.0
C429 C 0.793 0.21798 0.2486 0.0
C430 C 0.71339 0.21994 0.27025 0.0
C431 C 0.70941 0.21577 0.25152 0.0
H432 H 0.83006 0.78108 0.7219 0.0
H433 H 0.68205 0.78249 0.71682 0.0
H434 H 0.67448 0.79005 0.74956 0.0
H435 H 0.70981 0.78085 0.77944 0.0
H436 H 0.85775 0.77655 0.78453 0.0
H437 H 0.86569 0.78643 0.75188 0.0
C438 C 0.79617 0.78418 0.72796 0.0
C439 C 0.7566 0.78024 0.71708 0.0
C440 C 0.79218 0.7874 0.74674 0.0
C441 C 0.71294 0.78523 0.72495 0.0
C442 C 0.70864 0.78911 0.74367 0.0
C443 C 0.74382 0.78312 0.77341 0.0
C444 C 0.78318 0.77694 0.78422 0.0
C445 C 0.74797 0.78784 0.75469 0.0
C446 C 0.82702 0.78095 0.77643 0.0
C447 C 0.83151 0.78622 0.75777 0.0
H448 H 0.49676 0.46025 0.96554 0.0
H449 H 0.51807 0.60736 0.96331 0.0
H450 H 0.50406 0.61374 0.99553 0.0
H451 H 0.50539 0.57499 0.025 0.0
H452 H 0.48506 0.42796 0.02737 0.0
H453 H 0.47736 0.42437 0.99468 0.0
C454 C 0.49672 0.49382 0.972 0.0
C455 C 0.51025 0.53289 0.96221 0.0
C456 C 0.48936 0.4973 0.99072 0.0
C457 C 0.50929 0.57638 0.97071 0.0
C458 C 0.50125 0.58018 0.98917 0.0
C459 C 0.49714 0.5426 0.01841 0.0
C460 C 0.49711 0.50171 0.02844 0.0
C461 C 0.49422 0.54051 -0.00051 0.0
C462 C 0.48617 0.45986 0.01979 0.0
C463 C 0.48214 0.45766 0.00107 0.0
H464 H 0.99785 0.57274 0.52199 0.0
H465 H 1.00312 0.42596 0.53109 0.0
H466 H 0.01566 0.41305 0.49881 0.0
H467 H 0.01189 0.44301 0.46789 0.0
H468 H 1.00418 0.58967 0.45877 0.0
H469 H 1.00693 0.60337 0.49134 0.0
C470 C 1.00248 0.53795 0.51693 0.0
C471 C 0.99846 0.50021 0.52876 0.0
C472 C 0.00897 0.53089 0.49842 0.0
C473 C 1.0057 0.45545 0.52219 0.0
C474 C 0.0126 0.4481 0.50375 0.0
C475 C 0.01176 0.47804 0.47304 0.0
C476 C 1.00683 0.5153 0.46104 0.0
C477 C 0.01229 0.48546 0.4917 0.0
C478 C 0.00773 0.5605 0.46777 0.0
C479 C 0.00888 0.56826 0.48638 0.0
H480 H 0.21112 0.89489 0.65739 0.0
H481 H 0.25912 0.83653 0.60726 0.0
H482 H 0.21095 0.89097 0.59043 0.0
H483 H 0.1524 0.95235 0.59019 0.0
H484 H 0.10466 0.01009 0.6405 0.0
H485 H 0.15583 0.95846 0.65714 0.0
C486 C 0.21129 0.89417 0.64276 0.0
C487 C 0.23841 0.86153 0.63356 0.0
C488 C 0.18346 0.92525 0.63328 0.0
C489 C 0.23858 0.86134 0.61463 0.0
C490 C 0.21091 0.89232 0.60504 0.0
C491 C 0.15333 0.95379 0.6048 0.0
C492 C 0.12454 0.9848 0.61413 0.0
C493 C 0.18276 0.92398 0.61425 0.0
C494 C 0.12639 0.98651 0.63303 0.0
C495 C 0.15558 0.95696 0.64253 0.0
H496 H 0.32691 0.90568 0.84 0.0
H497 H 0.27154 0.85272 0.88989 0.0
H498 H 0.3169 0.90927 0.90685 0.0
H499 H 0.37559 0.97018 0.9075 0.0
H500 H 0.43264 0.02177 0.85769 0.0
H501 H 0.3826 0.96956 0.84059 0.0
C502 C 0.32452 0.90662 0.85459 0.0
C503 C 0.29612 0.87475 0.8637 0.0
C504 C 0.35091 0.93895 0.86421 0.0
C505 C 0.29317 0.87673 0.88257 0.0
C506 C 0.31915 0.90901 0.89226 0.0
C507 C 0.37682 0.97038 0.89288 0.0
C508 C 0.408 0.99969 0.88387 0.0
C509 C 0.3486 0.93979 0.88321 0.0
C510 C 0.40891 0.99969 0.86494 0.0
C511 C 0.3805 0.96964 0.85518 0.0
H512 H 0.38646 0.05136 0.08803 0.0
H513 H 0.44152 1.00144 0.1384 0.0
H514 H 0.38616 0.0492 0.15498 0.0
H515 H 0.32576 0.10874 0.15503 0.0
H516 H 0.27248 0.15982 0.10453 0.0
H517 H 0.32346 0.10749 0.08806 0.0
C518 C 0.38625 0.05063 0.10266 0.0
C519 C 0.41835 0.02309 0.11199 0.0
C520 C 0.35475 0.07843 0.11203 0.0
C521 C 0.41725 0.02229 0.13091 0.0
C522 C 0.3857 0.04972 0.14037 0.0
C523 C 0.32498 0.10818 0.14041 0.0
C524 C 0.29547 0.13839 0.131 0.0
C525 C 0.35482 0.07845 0.13106 0.0
C526 C 0.29474 0.13697 0.11209 0.0
C527 C 0.32404 0.10719 0.10268 0.0
H528 H 0.12651 0.01293 0.36195 0.0
H529 H 0.15996 0.05928 0.41568 0.0
H530 H 0.21563 0.11396 0.40356 0.0
H531 H 0.25149 0.15262 0.37754 0.0
H532 H 0.21675 0.10741 0.3238 0.0
H533 H 0.16572 0.04847 0.33601 0.0
C534 C 0.1464 0.03461 0.37098 0.0
C535 C 0.13886 0.03216 0.38965 0.0
C536 C 0.17821 0.06651 0.36392 0.0
C537 C 0.16484 0.06064 0.4012 0.0
C538 C 0.19677 0.09201 0.39431 0.0
C539 C 0.23328 0.12938 0.36855 0.0
C540 C 0.23781 0.13452 0.34982 0.0
C541 C 0.20328 0.09582 0.37566 0.0
C542 C 0.21369 0.10435 0.33831 0.0
C543 C 0.18439 0.0706 0.34526 0.0
H544 H 0.90959 0.06455 0.39335 0.0
H545 H 0.03096 0.12055 0.36786 0.0
H546 H 0.98355 0.17194 0.34977 0.0
H547 H 0.90933 0.20564 0.34306 0.0
H548 H 0.78626 0.15355 0.36855 0.0
H549 H 0.83243 0.09589 0.38472 0.0
C550 C 0.92532 0.08735 0.38353 0.0
C551 C 0.97368 0.08887 0.38191 0.0
C552 C 0.8977 0.11798 0.37342 0.0
C553 C 0.99384 0.11894 0.36935 0.0
C554 C 0.96679 0.14845 0.35906 0.0
C555 C 0.89232 0.18175 0.35214 0.0
C556 C 0.84441 0.18451 0.35479 0.0
C557 C 0.91893 0.14915 0.36134 0.0
C558 C 0.82312 0.15245 0.36633 0.0
C559 C 0.84955 0.1195 0.37559 0.0
H560 H 0.56098 0.1656 0.09849 0.0
H561 H 0.62604 0.04108 0.11741 0.0
H562 H 0.68673 0.08725 0.13186 0.0
H563 H 0.71877 0.16424 0.14049 0.0
H564 H 0.65067 0.28692 0.12131 0.0
H565 H 0.59419 0.24013 0.10537 0.0
C566 C 0.58828 0.14824 0.10579 0.0
C567 C 0.58842 0.09981 0.10704 0.0
C568 C 0.62283 0.17484 0.11393 0.0
C569 C 0.62478 0.07828 0.11631 0.0
C570 C 0.65955 0.10471 0.12456 0.0
C571 C 0.69205 0.18052 0.13252 0.0
C572 C 0.68883 0.22903 0.13212 0.0
C573 C 0.65872 0.15317 0.1236 0.0
C574 C 0.65373 0.24971 0.12192 0.0
C575 C 0.6213 0.22299 0.11284 0.0
H576 H 0.62744 0.79965 0.84674 0.0
H577 H 0.74857 0.85154 0.87369 0.0
H578 H 0.70202 0.91185 0.88813 0.0
H579 H 0.62497 0.9465 0.89457 0.0
H580 H 0.5055 0.8917 0.8673 0.0
H581 H 0.55348 0.83638 0.85134 0.0
C582 C 0.64391 0.82403 0.85579 0.0
C583 C 0.69138 0.82052 0.85933 0.0
C584 C 0.61712 0.85838 0.86393 0.0
C585 C 0.71204 0.85319 0.8708 0.0
C586 C 0.6854 0.8877 0.87906 0.0
C587 C 0.60978 0.92302 0.88486 0.0
C588 C 0.56169 0.92304 0.88218 0.0
C589 C 0.63768 0.89031 0.8759 0.0
C590 C 0.54233 0.89213 0.86969 0.0
C591 C 0.56971 0.86037 0.86059 0.0
H592 H 0.82331 0.8708 0.64609 0.0
H593 H 0.87092 0.74671 0.61992 0.0
H594 H 0.92665 0.7909 0.60261 0.0
H595 H 0.96594 0.86259 0.59655 0.0
H596 H 0.92212 0.98845 0.62235 0.0
H597 H 0.86069 0.94597 0.63805 0.0
C598 C 0.8453 0.85383 0.63631 0.0
C599 C 0.84319 0.80552 0.63433 0.0
C600 C 0.87833 0.87957 0.62654 0.0
C601 C 0.87214 0.78378 0.62176 0.0
C602 C 0.90412 0.80898 0.61188 0.0
C603 C 0.94308 0.88103 0.6056 0.0
C604 C 0.94923 0.92857 0.60848 0.0
C605 C 0.9083 0.85656 0.6145 0.0
C606 C 0.91843 0.95179 0.61998 0.0
C607 C 0.88333 0.92747 0.62896 0.0
H608 H 0.77493 0.37624 0.11096 0.0
H609 H 0.7381 0.41195 0.16556 0.0
H610 H 0.68269 0.46829 0.1546 0.0
H611 H 0.64005 0.50388 0.12938 0.0
H612 H 0.6769 0.46749 0.07482 0.0
H613 H 0.73649 0.41589 0.08582 0.0
C614 C 0.75528 0.39685 0.12043 0.0
C615 C 0.76055 0.38957 0.13902 0.0
C616 C 0.72294 0.42914 0.11404 0.0
C617 C 0.7346 0.41654 0.15113 0.0
C618 C 0.70274 0.44886 0.14489 0.0
C619 C 0.66157 0.48515 0.11994 0.0
C620 C 0.65363 0.48937 0.10133 0.0
C621 C 0.69591 0.45492 0.12636 0.0
C622 C 0.68187 0.46468 0.08926 0.0
C623 C 0.7161 0.43502 0.09551 0.0
H624 H 0.80474 0.38449 0.33526 0.0
H625 H 0.75284 0.33404 0.38611 0.0
H626 H 0.8022 0.38888 0.40222 0.0
H627 H 0.86208 0.44869 0.40178 0.0
H628 H 0.91422 0.49898 0.35094 0.0
H629 H 0.86243 0.44648 0.3348 0.0
C630 C 0.80403 0.38557 0.34988 0.0
C631 C 0.77531 0.35503 0.35951 0.0
C632 C 0.83258 0.41697 0.35899 0.0
C633 C 0.77459 0.35714 0.37841 0.0
C634 C 0.8029 0.38839 0.3876 0.0
C635 C 0.86207 0.44832 0.38715 0.0
C636 C 0.89217 0.47752 0.37754 0.0
C637 C 0.83235 0.41807 0.37802 0.0
C638 C 0.89144 0.47686 0.35863 0.0
C639 C 0.86191 0.44679 0.34942 0.0
H640 H 0.85262 0.56295 0.59058 0.0
H641 H 0.91175 0.51255 0.64018 0.0
H642 H 0.86077 0.56305 0.65751 0.0
H643 H 0.80175 0.6234 0.65843 0.0
H644 H 0.7436 0.6748 0.60882 0.0
H645 H 0.79187 0.62158 0.59155 0.0
C646 C 0.85427 0.56285 0.60519 0.0
C647 C 0.88604 0.5342 0.6141 0.0
C648 C 0.82512 0.59209 0.61501 0.0
C649 C 0.88761 0.53431 0.63302 0.0
C650 C 0.85853 0.5632 0.64292 0.0
C651 C 0.79941 0.62282 0.64384 0.0
C652 C 0.76923 0.65309 0.6349 0.0
C653 C 0.8275 0.59251 0.63404 0.0
C654 C 0.76648 0.65178 0.616 0.0
C655 C 0.79417 0.62149 0.60614 0.0
H656 H 0.73453 0.61839 0.84172 0.0
H657 H 0.78836 0.66835 0.89237 0.0
H658 H 0.74234 0.61101 0.90857 0.0
H659 H 0.68365 0.55017 0.9084 0.0
H660 H 0.62809 0.50135 0.85789 0.0
H661 H 0.67875 0.55441 0.84148 0.0
C662 C 0.73642 0.61662 0.85631 0.0
C663 C 0.76462 0.64787 0.86586 0.0
C664 C 0.70972 0.58374 0.86551 0.0
C665 C 0.7669 0.64484 0.88472 0.0
C666 C 0.74056 0.61208 0.89398 0.0
C667 C 0.68292 0.55073 0.89377 0.0
C668 C 0.65198 0.52196 0.88436 0.0
C669 C 0.71144 0.58183 0.88451 0.0
C670 C 0.65169 0.52294 0.86544 0.0
C671 C 0.68041 0.55352 0.85608 0.0
H672 H 0.43542 0.57578 0.89197 0.0
H673 H 0.55688 0.63143 0.86636 0.0
H674 H 0.51012 0.68747 0.85027 0.0
H675 H 0.43651 0.72467 0.84523 0.0
H676 H 0.31354 0.67162 0.87048 0.0
H677 H 0.35898 0.61063 0.88494 0.0
C678 C 0.45134 0.59959 0.88257 0.0
C679 C 0.49959 0.59964 0.88043 0.0
C680 C 0.42416 0.63266 0.87355 0.0
C681 C 0.51988 0.63095 0.86834 0.0
C682 C 0.49321 0.66313 0.85917 0.0
C683 C 0.41944 0.69988 0.85391 0.0
C684 C 0.37177 0.70326 0.857 0.0
C685 C 0.4456 0.66509 0.86204 0.0
C686 C 0.35027 0.67007 0.86798 0.0
C687 C 0.37625 0.63517 0.87624 0.0
H688 H 0.08879 0.55709 0.61356 0.0
H689 H 0.0117 0.66835 0.58918 0.0
H690 H 0.06419 0.72417 0.6017 0.0
H691 H 0.12817 0.74335 0.62108 0.0
H692 H 0.20805 0.63593 0.64605 0.0
H693 H 0.15922 0.57715 0.63158 0.0
C694 C 0.0838 0.59348 0.6109 0.0
C695 C 0.04547 0.60809 0.60068 0.0
C696 C 0.11465 0.6264 0.61825 0.0
C697 C 0.04001 0.6556 0.59726 0.0
C698 C 0.07024 0.68793 0.60437 0.0
C699 C 0.13519 0.70704 0.62328 0.0
C700 C 0.17121 0.69403 0.63478 0.0
C701 C 0.10699 0.67388 0.61513 0.0
C702 C 0.18042 0.64684 0.63722 0.0
C703 C 0.15228 0.61326 0.62905 0.0
H704 H 0.04888 0.3554 0.39764 0.0
H705 H 0.09407 0.48005 0.3713 0.0
H706 H 0.15411 0.43634 0.35538 0.0
H707 H 0.18911 0.36056 0.34702 0.0
H708 H 0.13953 0.23722 0.37312 0.0
H709 H 0.08626 0.28267 0.39122 0.0
C710 C 0.07184 0.3733 0.38846 0.0
C711 C 0.06641 0.4209 0.38548 0.0
C712 C 0.10566 0.34804 0.37932 0.0
C713 C 0.09726 0.44341 0.37379 0.0
C714 C 0.13153 0.41837 0.36466 0.0
C715 C 0.16727 0.34399 0.35697 0.0
C716 C 0.1681 0.2956 0.35875 0.0
C717 C 0.13552 0.37041 0.36706 0.0
C718 C 0.1393 0.27435 0.37149 0.0
C719 C 0.10874 0.30029 0.38179 0.0
H720 H 0.50007 0.35224 0.09412 0.0
H721 H 0.44443 0.4772 0.11695 0.0
H722 H 0.38426 0.43216 0.13221 0.0
H723 H 0.34944 0.35582 0.14001 0.0
H724 H 0.40771 0.23273 0.11656 0.0
H725 H 0.46432 0.27867 0.1004 0.0
C726 C 0.47503 0.36993 0.10248 0.0
C727 C 0.47734 0.41811 0.10454 0.0
C728 C 0.44059 0.34403 0.11101 0.0
C729 C 0.44381 0.44013 0.11521 0.0
C730 C 0.40929 0.41437 0.1239 0.0
C731 C 0.37407 0.33933 0.1311 0.0
C732 C 0.37448 0.29087 0.12955 0.0
C733 C 0.40745 0.36613 0.12198 0.0
C734 C 0.40686 0.26988 0.1181 0.0
C735 C 0.43937 0.29611 0.10888 0.0
loop_
_geom_bond_atom_site_label_1
_geom_bond_atom_site_label_2
_geom_bond_distance
_geom_bond_site_symmetry_2
_ccdc_geom_bond_type
Co0 O1 2.216 . S
Co0 O2 2.091 1_455 S
Co0 O4 2.004 1_455 S
Co0 O10 2.021 1_455 S
Co0 O12 2.137 . S
Co0 O13 2.244 1_545 S
O1 Co0 2.216 . S
O1 C8 1.247 . S
O2 Co0 2.091 1_655 S
O2 C8 1.261 1_655 S
C3 O12 1.247 1_565 S
C3 O13 1.272 . S
O4 Co0 2.004 1_655 S
O4 C9 1.259 1_545 S
Co5 O6 2.061 1_455 S
Co5 O11 2.052 . S
Co5 O13 2.135 . S
O6 Co5 2.061 1_655 S
O6 C9 1.235 . S
C7 O10 1.238 1_455 S
C7 O11 1.241 1_545 S
C8 O1 1.247 . S
C8 O2 1.261 1_455 S
C9 O4 1.259 1_565 S
C9 O6 1.235 . S
O10 Co0 2.021 1_655 S
O10 C7 1.238 1_655 S
O11 Co5 2.052 . S
O11 C7 1.241 1_565 S
O12 Co0 2.137 . S
O12 C3 1.247 1_545 S
O13 Co0 2.244 1_565 S
O13 C3 1.272 . S
O13 Co5 2.135 . S
Co14 O15 2.216 . S
Co14 O16 2.091 . S
Co14 O18 2.004 . S
Co14 O24 2.021 . S
Co14 O26 2.137 . S
Co14 O27 2.244 . S
O15 Co14 2.216 . S
O15 C22 1.247 . S
O16 Co14 2.091 . S
O16 C22 1.261 . S
C17 O26 1.247 . S
C17 O27 1.272 . S
O18 Co14 2.004 . S
O18 C23 1.259 . S
Co19 O20 2.061 . S
Co19 O25 2.052 . S
Co19 O27 2.135 . S
O20 Co19 2.061 . S
O20 C23 1.235 . S
C21 O24 1.238 . S
C21 O25 1.241 . S
C22 O15 1.247 . S
C22 O16 1.261 . S
C23 O18 1.259 . S
C23 O20 1.235 . S
O24 Co14 2.021 . S
O24 C21 1.238 . S
O25 Co19 2.052 . S
O25 C21 1.241 . S
O26 Co14 2.137 . S
O26 C17 1.247 . S
O27 Co14 2.244 . S
O27 C17 1.272 . S
O27 Co19 2.135 . S
Co28 O29 2.216 . S
Co28 O30 2.091 . S
Co28 O32 2.004 . S
Co28 O38 2.021 . S
Co28 O40 2.137 . S
Co28 O41 2.244 1_565 S
O29 Co28 2.216 . S
O29 C36 1.247 . S
O30 Co28 2.091 . S
O30 C36 1.261 . S
C31 O40 1.247 1_545 S
C31 O41 1.272 . S
O32 Co28 2.004 . S
O32 C37 1.259 1_565 S
Co33 O34 2.061 . S
Co33 O39 2.052 . S
Co33 O41 2.135 . S
O34 Co33 2.061 . S
O34 C37 1.235 . S
C35 O38 1.238 . S
C35 O39 1.241 1_565 S
C36 O29 1.247 . S
C36 O30 1.261 . S
C37 O32 1.259 1_545 S
C37 O34 1.235 . S
O38 Co28 2.021 . S
O38 C35 1.238 . S
O39 Co33 2.052 . S
O39 C35 1.241 1_545 S
O40 Co28 2.137 . S
O40 C31 1.247 1_565 S
O41 Co28 2.244 1_545 S
O41 C31 1.272 . S
O41 Co33 2.135 . S
Co42 O43 2.216 . S
Co42 O44 2.091 . S
Co42 O46 2.004 . S
Co42 O52 2.021 . S
Co42 O54 2.137 . S
Co42 O55 2.244 . S
O43 Co42 2.216 . S
O43 C50 1.247 . S
O44 Co42 2.091 . S
O44 C50 1.261 . S
C45 O54 1.247 . S
C45 O55 1.272 . S
O46 Co42 2.004 . S
O46 C51 1.259 . S
Co47 O48 2.061 . S
Co47 O53 2.052 . S
Co47 O55 2.135 . S
O48 Co47 2.061 . S
O48 C51 1.235 . S
C49 O52 1.238 . S
C49 O53 1.241 . S
C50 O43 1.247 . S
C50 O44 1.261 . S
C51 O46 1.259 . S
C51 O48 1.235 . S
O52 Co42 2.021 . S
O52 C49 1.238 . S
O53 Co47 2.052 . S
O53 C49 1.241 . S
O54 Co42 2.137 . S
O54 C45 1.247 . S
O55 Co42 2.244 . S
O55 C45 1.272 . S
O55 Co47 2.135 . S
Co56 O57 2.216 . S
Co56 O58 2.091 1_455 S
Co56 O60 2.004 1_455 S
Co56 O66 2.021 1_455 S
Co56 O68 2.137 . S
Co56 O69 2.244 1_565 S
O57 Co56 2.216 . S
O57 C64 1.247 . S
O58 Co56 2.091 1_655 S
O58 C64 1.261 1_655 S
C59 O68 1.247 1_545 S
C59 O69 1.272 . S
O60 Co56 2.004 1_655 S
O60 C65 1.259 1_565 S
Co61 O62 2.061 1_455 S
Co61 O67 2.052 . S
Co61 O69 2.135 . S
O62 Co61 2.061 1_655 S
O62 C65 1.235 . S
C63 O66 1.238 1_455 S
C63 O67 1.241 1_565 S
C64 O57 1.247 . S
C64 O58 1.261 1_455 S
C65 O60 1.259 1_545 S
C65 O62 1.235 . S
O66 Co56 2.021 1_655 S
O66 C63 1.238 1_655 S
O67 Co61 2.052 . S
O67 C63 1.241 1_545 S
O68 Co56 2.137 . S
O68 C59 1.247 1_565 S
O69 Co56 2.244 1_545 S
O69 C59 1.272 . S
O69 Co61 2.135 . S
Co70 O71 2.216 . S
Co70 O72 2.091 . S
Co70 O74 2.004 . S
Co70 O80 2.021 . S
Co70 O82 2.137 . S
Co70 O83 2.244 . S
O71 Co70 2.216 . S
O71 C78 1.247 . S
O72 Co70 2.091 . S
O72 C78 1.261 . S
C73 O82 1.247 . S
C73 O83 1.272 . S
O74 Co70 2.004 . S
O74 C79 1.259 . S
Co75 O76 2.061 . S
Co75 O81 2.052 . S
Co75 O83 2.135 . S
O76 Co75 2.061 . S
O76 C79 1.235 . S
C77 O80 1.238 . S
C77 O81 1.241 . S
C78 O71 1.247 . S
C78 O72 1.261 . S
C79 O74 1.259 . S
C79 O76 1.235 . S
O80 Co70 2.021 . S
O80 C77 1.238 . S
O81 Co75 2.052 . S
O81 C77 1.241 . S
O82 Co70 2.137 . S
O82 C73 1.247 . S
O83 Co70 2.244 . S
O83 C73 1.272 . S
O83 Co75 2.135 . S
Co84 O85 2.216 . S
Co84 O86 2.091 . S
Co84 O88 2.004 . S
Co84 O94 2.021 . S
Co84 O96 2.137 . S
Co84 O97 2.244 1_545 S
O85 Co84 2.216 . S
O85 C92 1.247 . S
O86 Co84 2.091 . S
O86 C92 1.261 . S
C87 O96 1.247 1_565 S
C87 O97 1.272 . S
O88 Co84 2.004 . S
O88 C93 1.259 1_545 S
Co89 O90 2.061 . S
Co89 O95 2.052 . S
Co89 O97 2.135 . S
O90 Co89 2.061 . S
O90 C93 1.235 . S
C91 O94 1.238 . S
C91 O95 1.241 1_545 S
C92 O85 1.247 . S
C92 O86 1.261 . S
C93 O88 1.259 1_565 S
C93 O90 1.235 . S
O94 Co84 2.021 . S
O94 C91 1.238 . S
O95 Co89 2.052 . S
O95 C91 1.241 1_565 S
O96 Co84 2.137 . S
O96 C87 1.247 1_545 S
O97 Co84 2.244 1_565 S
O97 C87 1.272 . S
O97 Co89 2.135 . S
Co98 O99 2.216 . S
Co98 O100 2.091 . S
Co98 O102 2.004 . S
Co98 O108 2.021 . S
Co98 O110 2.137 . S
Co98 O111 2.244 . S
O99 Co98 2.216 . S
O99 C106 1.247 . S
O100 Co98 2.091 . S
O100 C106 1.261 . S
C101 O110 1.247 . S
C101 O111 1.272 . S
O102 Co98 2.004 . S
O102 C107 1.259 . S
Co103 O104 2.061 . S
Co103 O109 2.052 . S
Co103 O111 2.135 . S
O104 Co103 2.061 . S
O104 C107 1.235 . S
C105 O108 1.238 . S
C105 O109 1.241 . S
C106 O99 1.247 . S
C106 O100 1.261 . S
C107 O102 1.259 . S
C107 O104 1.235 . S
O108 Co98 2.021 . S
O108 C105 1.238 . S
O109 Co103 2.052 . S
O109 C105 1.241 . S
O110 Co98 2.137 . S
O110 C101 1.247 . S
O111 Co98 2.244 . S
O111 C101 1.272 . S
O111 Co103 2.135 . S
Co112 O113 2.216 . S
Co112 O114 2.091 . S
Co112 O116 2.004 . S
Co112 O122 2.021 . S
Co112 O124 2.137 . S
Co112 O125 2.244 . S
O113 Co112 2.216 . S
O113 C120 1.247 . S
O114 Co112 2.091 . S
O114 C120 1.261 . S
C115 O124 1.247 . S
C115 O125 1.272 . S
O116 Co112 2.004 . S
O116 C121 1.259 . S
Co117 O118 2.061 . S
Co117 O123 2.052 . S
Co117 O125 2.135 . S
O118 Co117 2.061 . S
O118 C121 1.235 . S
C119 O122 1.238 . S
C119 O123 1.241 . S
C120 O113 1.247 . S
C120 O114 1.261 . S
C121 O116 1.259 . S
C121 O118 1.235 . S
O122 Co112 2.021 . S
O122 C119 1.238 . S
O123 Co117 2.052 . S
O123 C119 1.241 . S
O124 Co112 2.137 . S
O124 C115 1.247 . S
O125 Co112 2.244 . S
O125 C115 1.272 . S
O125 Co117 2.135 . S
Co126 O127 2.216 . S
Co126 O128 2.091 . S
Co126 O130 2.004 . S
Co126 O136 2.021 . S
Co126 O138 2.137 . S
Co126 O139 2.244 . S
O127 Co126 2.216 . S
O127 C134 1.247 . S
O128 Co126 2.091 . S
O128 C134 1.261 . S
C129 O138 1.247 . S
C129 O139 1.272 . S
O130 Co126 2.004 . S
O130 C135 1.259 . S
Co131 O132 2.061 . S
Co131 O137 2.052 . S
Co131 O139 2.135 . S
O132 Co131 2.061 . S
O132 C135 1.235 . S
C133 O136 1.238 . S
C133 O137 1.241 . S
C134 O127 1.247 . S
C134 O128 1.261 . S
C135 O130 1.259 . S
C135 O132 1.235 . S
O136 Co126 2.021 . S
O136 C133 1.238 . S
O137 Co131 2.052 . S
O137 C133 1.241 . S
O138 Co126 2.137 . S
O138 C129 1.247 . S
O139 Co126 2.244 . S
O139 C129 1.272 . S
O139 Co131 2.135 . S
Co140 O141 2.216 . S
Co140 O142 2.091 . S
Co140 O144 2.004 . S
Co140 O150 2.021 . S
Co140 O152 2.137 . S
Co140 O153 2.244 . S
O141 Co140 2.216 . S
O141 C148 1.247 . S
O142 Co140 2.091 . S
O142 C148 1.261 . S
C143 O152 1.247 . S
C143 O153 1.272 . S
O144 Co140 2.004 . S
O144 C149 1.259 . S
Co145 O146 2.061 . S
Co145 O151 2.052 . S
Co145 O153 2.135 . S
O146 Co145 2.061 . S
O146 C149 1.235 . S
C147 O150 1.238 . S
C147 O151 1.241 . S
C148 O141 1.247 . S
C148 O142 1.261 . S
C149 O144 1.259 . S
C149 O146 1.235 . S
O150 Co140 2.021 . S
O150 C147 1.238 . S
O151 Co145 2.052 . S
O151 C147 1.241 . S
O152 Co140 2.137 . S
O152 C143 1.247 . S
O153 Co140 2.244 . S
O153 C143 1.272 . S
O153 Co145 2.135 . S
Co154 O155 2.216 . S
Co154 O156 2.091 . S
Co154 O158 2.004 . S
Co154 O164 2.021 . S
Co154 O166 2.137 . S
Co154 O167 2.244 . S
O155 Co154 2.216 . S
O155 C162 1.247 . S
O156 Co154 2.091 . S
O156 C162 1.261 . S
C157 O166 1.247 . S
C157 O167 1.272 . S
O158 Co154 2.004 . S
O158 C163 1.259 . S
Co159 O160 2.061 . S
Co159 O165 2.052 . S
Co159 O167 2.135 . S
O160 Co159 2.061 . S
O160 C163 1.235 . S
C161 O164 1.238 . S
C161 O165 1.241 . S
C162 O155 1.247 . S
C162 O156 1.261 . S
C163 O158 1.259 . S
C163 O160 1.235 . S
O164 Co154 2.021 . S
O164 C161 1.238 . S
O165 Co159 2.052 . S
O165 C161 1.241 . S
O166 Co154 2.137 . S
O166 C157 1.247 . S
O167 Co154 2.244 . S
O167 C157 1.272 . S
O167 Co159 2.135 . S
Co168 O169 2.216 . S
Co168 O170 2.091 . S
Co168 O172 2.004 . S
Co168 O178 2.021 . S
Co168 O180 2.137 . S
Co168 O181 2.244 . S
O169 Co168 2.216 . S
O169 C176 1.247 . S
O170 Co168 2.091 . S
O170 C176 1.261 . S
C171 O180 1.247 . S
C171 O181 1.272 . S
O172 Co168 2.004 . S
O172 C177 1.259 . S
Co173 O174 2.061 . S
Co173 O179 2.052 . S
Co173 O181 2.135 . S
O174 Co173 2.061 . S
O174 C177 1.235 . S
C175 O178 1.238 . S
C175 O179 1.241 . S
C176 O169 1.247 . S
C176 O170 1.261 . S
C177 O172 1.259 . S
C177 O174 1.235 . S
O178 Co168 2.021 . S
O178 C175 1.238 . S
O179 Co173 2.052 . S
O179 C175 1.241 . S
O180 Co168 2.137 . S
O180 C171 1.247 . S
O181 Co168 2.244 . S
O181 C171 1.272 . S
O181 Co173 2.135 . S
Co182 O183 2.216 1_455 S
Co182 O184 2.091 . S
Co182 O186 2.004 . S
Co182 O192 2.021 . S
Co182 O194 2.137 1_455 S
Co182 O195 2.244 1_455 S
O183 Co182 2.216 1_655 S
O183 C190 1.247 . S
O184 Co182 2.091 . S
O184 C190 1.261 1_455 S
C185 O194 1.247 . S
C185 O195 1.272 . S
O186 Co182 2.004 . S
O186 C191 1.259 . S
Co187 O188 2.061 1_655 S
Co187 O193 2.052 . S
Co187 O195 2.135 . S
O188 Co187 2.061 1_455 S
O188 C191 1.235 . S
C189 O192 1.238 . S
C189 O193 1.241 1_455 S
C190 O183 1.247 . S
C190 O184 1.261 1_655 S
C191 O186 1.259 . S
C191 O188 1.235 . S
O192 Co182 2.021 . S
O192 C189 1.238 . S
O193 Co187 2.052 . S
O193 C189 1.241 1_655 S
O194 Co182 2.137 1_655 S
O194 C185 1.247 . S
O195 Co182 2.244 1_655 S
O195 C185 1.272 . S
O195 Co187 2.135 . S
Co196 O197 2.216 . S
Co196 O198 2.091 . S
Co196 O200 2.004 . S
Co196 O206 2.021 . S
Co196 O208 2.137 . S
Co196 O209 2.244 . S
O197 Co196 2.216 . S
O197 C204 1.247 . S
O198 Co196 2.091 . S
O198 C204 1.261 . S
C199 O208 1.247 . S
C199 O209 1.272 . S
O200 Co196 2.004 . S
O200 C205 1.259 . S
Co201 O202 2.061 . S
Co201 O207 2.052 . S
Co201 O209 2.135 . S
O202 Co201 2.061 . S
O202 C205 1.235 . S
C203 O206 1.238 . S
C203 O207 1.241 . S
C204 O197 1.247 . S
C204 O198 1.261 . S
C205 O200 1.259 . S
C205 O202 1.235 . S
O206 Co196 2.021 . S
O206 C203 1.238 . S
O207 Co201 2.052 . S
O207 C203 1.241 . S
O208 Co196 2.137 . S
O208 C199 1.247 . S
O209 Co196 2.244 . S
O209 C199 1.272 . S
O209 Co201 2.135 . S
Co210 O211 2.216 1_455 S
Co210 O212 2.091 . S
Co210 O214 2.004 . S
Co210 O220 2.021 . S
Co210 O222 2.137 1_455 S
Co210 O223 2.244 1_455 S
O211 Co210 2.216 1_655 S
O211 C218 1.247 . S
O212 Co210 2.091 . S
O212 C218 1.261 1_455 S
C213 O222 1.247 . S
C213 O223 1.272 . S
O214 Co210 2.004 . S
O214 C219 1.259 . S
Co215 O216 2.061 1_655 S
Co215 O221 2.052 . S
Co215 O223 2.135 . S
O216 Co215 2.061 1_455 S
O216 C219 1.235 . S
C217 O220 1.238 . S
C217 O221 1.241 1_455 S
C218 O211 1.247 . S
C218 O212 1.261 1_655 S
C219 O214 1.259 . S
C219 O216 1.235 . S
O220 Co210 2.021 . S
O220 C217 1.238 . S
O221 Co215 2.052 . S
O221 C217 1.241 1_655 S
O222 Co210 2.137 1_655 S
O222 C213 1.247 . S
O223 Co210 2.244 1_655 S
O223 C213 1.272 . S
O223 Co215 2.135 . S
H224 C230 0.930 . S
H225 C233 0.930 . S
H226 C234 0.930 . S
H227 C235 0.930 . S
H228 C238 0.930 . S
H229 C239 0.930 1_655 S
C230 H224 0.930 . S
C230 C231 1.355 . S
C230 C232 1.415 . S
C231 C230 1.355 . S
C231 C233 1.419 . S
C232 C230 1.415 . S
C232 C237 1.425 . S
C232 C239 1.410 . S
C233 H225 0.930 . S
C233 C231 1.419 . S
C233 C234 1.362 . S
C234 H226 0.930 . S
C234 C233 1.362 . S
C234 C237 1.409 . S
C235 H227 0.930 . S
C235 C236 1.355 1_455 S
C235 C237 1.415 . S
C236 C235 1.355 1_655 S
C236 C238 1.419 . S
C237 C232 1.425 . S
C237 C234 1.409 . S
C237 C235 1.415 . S
C238 H228 0.930 . S
C238 C236 1.419 . S
C238 C239 1.361 1_655 S
C239 H229 0.930 1_455 S
C239 C232 1.410 . S
C239 C238 1.361 1_455 S
H240 C246 0.930 . S
H241 C249 0.930 . S
H242 C250 0.930 . S
H243 C251 0.930 . S
H244 C254 0.930 . S
H245 C255 0.930 . S
C246 H240 0.930 . S
C246 C247 1.355 . S
C246 C248 1.415 1_655 S
C247 C246 1.355 . S
C247 C249 1.419 . S
C248 C246 1.415 1_455 S
C248 C253 1.425 . S
C248 C255 1.409 . S
C249 H241 0.930 . S
C249 C247 1.419 . S
C249 C250 1.362 . S
C250 H242 0.930 . S
C250 C249 1.362 . S
C250 C253 1.409 1_655 S
C251 H243 0.930 . S
C251 C252 1.355 . S
C251 C253 1.415 . S
C252 C251 1.355 . S
C252 C254 1.419 . S
C253 C248 1.425 . S
C253 C250 1.409 1_455 S
C253 C251 1.415 . S
C254 H244 0.930 . S
C254 C252 1.419 . S
C254 C255 1.362 . S
C255 H245 0.930 . S
C255 C248 1.409 . S
C255 C254 1.362 . S
H256 C262 0.930 . S
H257 C265 0.930 . S
H258 C266 0.930 . S
H259 C267 0.930 . S
H260 C270 0.930 . S
H261 C271 0.930 . S
C262 H256 0.930 . S
C262 C263 1.355 . S
C262 C264 1.415 . S
C263 C262 1.355 . S
C263 C265 1.419 . S
C264 C262 1.415 . S
C264 C269 1.425 . S
C264 C271 1.409 . S
C265 H257 0.930 . S
C265 C263 1.419 . S
C265 C266 1.362 . S
C266 H258 0.930 . S
C266 C265 1.362 . S
C266 C269 1.409 . S
C267 H259 0.930 . S
C267 C268 1.355 . S
C267 C269 1.415 . S
C268 C267 1.355 . S
C268 C270 1.419 . S
C269 C264 1.425 . S
C269 C266 1.409 . S
C269 C267 1.415 . S
C270 H260 0.930 . S
C270 C268 1.419 . S
C270 C271 1.362 . S
C271 H261 0.930 . S
C271 C264 1.409 . S
C271 C270 1.362 . S
H272 C278 0.930 . S
H273 C281 0.930 . S
H274 C282 0.930 . S
H275 C283 0.930 . S
H276 C286 0.930 . S
H277 C287 0.930 . S
C278 H272 0.930 . S
C278 C279 1.355 . S
C278 C280 1.415 . S
C279 C278 1.355 . S
C279 C281 1.419 . S
C280 C278 1.415 . S
C280 C285 1.425 . S
C280 C287 1.409 . S
C281 H273 0.930 . S
C281 C279 1.419 . S
C281 C282 1.362 . S
C282 H274 0.930 . S
C282 C281 1.362 . S
C282 C285 1.409 . S
C283 H275 0.930 . S
C283 C284 1.355 . S
C283 C285 1.415 . S
C284 C283 1.355 . S
C284 C286 1.419 . S
C285 C280 1.425 . S
C285 C282 1.409 . S
C285 C283 1.415 . S
C286 H276 0.930 . S
C286 C284 1.419 . S
C286 C287 1.362 . S
C287 H277 0.930 . S
C287 C280 1.409 . S
C287 C286 1.362 . S
H288 C294 0.930 . S
H289 C297 0.930 . S
H290 C298 0.930 . S
H291 C299 0.930 . S
H292 C302 0.930 . S
H293 C303 0.930 . S
C294 H288 0.930 . S
C294 C295 1.355 1_655 S
C294 C296 1.415 . S
C295 C294 1.355 1_455 S
C295 C297 1.419 . S
C296 C294 1.415 . S
C296 C301 1.425 1_655 S
C296 C303 1.409 . S
C297 H289 0.930 . S
C297 C295 1.419 . S
C297 C298 1.362 . S
C298 H290 0.930 . S
C298 C297 1.362 . S
C298 C301 1.409 . S
C299 H291 0.930 . S
C299 C300 1.355 1_455 S
C299 C301 1.415 . S
C300 C299 1.355 1_655 S
C300 C302 1.419 . S
C301 C296 1.425 1_455 S
C301 C298 1.409 . S
C301 C299 1.415 . S
C302 H292 0.930 . S
C302 C300 1.419 . S
C302 C303 1.362 . S
C303 H293 0.930 . S
C303 C296 1.409 . S
C303 C302 1.362 . S
H304 C310 0.930 . S
H305 C313 0.930 . S
H306 C314 0.930 . S
H307 C315 0.930 . S
H308 C318 0.930 . S
H309 C319 0.930 . S
C310 H304 0.930 . S
C310 C311 1.355 . S
C310 C312 1.415 . S
C311 C310 1.355 . S
C311 C313 1.419 . S
C312 C310 1.415 . S
C312 C317 1.425 . S
C312 C319 1.409 . S
C313 H305 0.930 . S
C313 C311 1.419 . S
C313 C314 1.362 . S
C314 H306 0.930 . S
C314 C313 1.362 . S
C314 C317 1.409 . S
C315 H307 0.930 . S
C315 C316 1.355 . S
C315 C317 1.415 . S
C316 C315 1.355 . S
C316 C318 1.419 . S
C317 C312 1.425 . S
C317 C314 1.409 . S
C317 C315 1.415 . S
C318 H308 0.930 . S
C318 C316 1.419 . S
C318 C319 1.362 . S
C319 H309 0.930 . S
C319 C312 1.409 . S
C319 C318 1.362 . S
H320 C326 0.930 . S
H321 C329 0.930 . S
H322 C330 0.930 . S
H323 C331 0.930 . S
H324 C334 0.930 . S
H325 C335 0.930 . S
C326 H320 0.930 . S
C326 C327 1.355 . S
C326 C328 1.415 . S
C327 C326 1.355 . S
C327 C329 1.419 . S
C328 C326 1.415 . S
C328 C333 1.425 . S
C328 C335 1.409 . S
C329 H321 0.930 . S
C329 C327 1.419 . S
C329 C330 1.362 . S
C330 H322 0.930 . S
C330 C329 1.362 . S
C330 C333 1.409 . S
C331 H323 0.930 . S
C331 C332 1.355 . S
C331 C333 1.415 . S
C332 C331 1.355 . S
C332 C334 1.419 . S
C333 C328 1.425 . S
C333 C330 1.409 . S
C333 C331 1.415 . S
C334 H324 0.930 . S
C334 C332 1.419 . S
C334 C335 1.362 . S
C335 H325 0.930 . S
C335 C328 1.409 . S
C335 C334 1.362 . S
H336 C342 0.930 . S
H337 C345 0.930 . S
H338 C346 0.930 . S
H339 C347 0.930 . S
H340 C350 0.930 . S
H341 C351 0.930 . S
C342 H336 0.930 . S
C342 C343 1.355 . S
C342 C344 1.415 . S
C343 C342 1.355 . S
C343 C345 1.419 . S
C344 C342 1.415 . S
C344 C349 1.425 . S
C344 C351 1.409 1_455 S
C345 H337 0.930 . S
C345 C343 1.419 . S
C345 C346 1.362 . S
C346 H338 0.930 . S
C346 C345 1.362 . S
C346 C349 1.409 . S
C347 H339 0.930 . S
C347 C348 1.355 . S
C347 C349 1.415 1_655 S
C348 C347 1.355 . S
C348 C350 1.419 . S
C349 C344 1.425 . S
C349 C346 1.409 . S
C349 C347 1.415 1_455 S
C350 H340 0.930 . S
C350 C348 1.419 . S
C350 C351 1.362 . S
C351 H341 0.930 . S
C351 C344 1.409 1_655 S
C351 C350 1.362 . S
H352 C358 0.930 . S
H353 C361 0.930 . S
H354 C362 0.930 . S
H355 C363 0.930 . S
H356 C366 0.930 . S
H357 C367 0.930 . S
C358 H352 0.930 . S
C358 C359 1.355 1_455 S
C358 C360 1.415 . S
C359 C358 1.355 1_655 S
C359 C361 1.419 . S
C360 C358 1.415 . S
C360 C365 1.425 1_465 S
C360 C367 1.409 . S
C361 H353 0.930 . S
C361 C359 1.419 . S
C361 C362 1.362 1_565 S
C362 H354 0.930 . S
C362 C361 1.362 1_545 S
C362 C365 1.409 . S
C363 H355 0.930 . S
C363 C364 1.355 1_655 S
C363 C365 1.415 . S
C364 C363 1.355 1_455 S
C364 C366 1.419 . S
C365 C360 1.425 1_645 S
C365 C362 1.409 . S
C365 C363 1.415 . S
C366 H356 0.930 . S
C366 C364 1.419 . S
C366 C367 1.362 1_545 S
C367 H357 0.930 . S
C367 C360 1.409 . S
C367 C366 1.362 1_565 S
H368 C374 0.930 . S
H369 C377 0.930 . S
H370 C378 0.930 . S
H371 C379 0.930 . S
H372 C382 0.930 . S
H373 C383 0.930 . S
C374 H368 0.930 . S
C374 C375 1.355 . S
C374 C376 1.415 . S
C375 C374 1.355 . S
C375 C377 1.419 . S
C376 C374 1.415 . S
C376 C381 1.425 . S
C376 C383 1.409 . S
C377 H369 0.930 . S
C377 C375 1.419 . S
C377 C378 1.362 . S
C378 H370 0.930 . S
C378 C377 1.362 . S
C378 C381 1.409 . S
C379 H371 0.930 . S
C379 C380 1.355 . S
C379 C381 1.415 . S
C380 C379 1.355 . S
C380 C382 1.419 . S
C381 C376 1.425 . S
C381 C378 1.409 . S
C381 C379 1.415 . S
C382 H372 0.930 . S
C382 C380 1.419 . S
C382 C383 1.362 . S
C383 H373 0.930 . S
C383 C376 1.409 . S
C383 C382 1.362 . S
H384 C390 0.930 . S
H385 C393 0.930 . S
H386 C394 0.930 . S
H387 C395 0.930 . S
H388 C398 0.930 . S
H389 C399 0.930 . S
C390 H384 0.930 . S
C390 C391 1.355 . S
C390 C392 1.415 . S
C391 C390 1.355 . S
C391 C393 1.419 1_565 S
C392 C390 1.415 . S
C392 C397 1.425 1_564 S
C392 C399 1.409 1_554 S
C393 H385 0.930 . S
C393 C391 1.419 1_545 S
C393 C394 1.362 . S
C394 H386 0.930 . S
C394 C393 1.362 . S
C394 C397 1.409 1_554 S
C395 H387 0.930 . S
C395 C396 1.355 . S
C395 C397 1.415 . S
C396 C395 1.355 . S
C396 C398 1.419 1_545 S
C397 C392 1.425 1_546 S
C397 C394 1.409 1_556 S
C397 C395 1.415 . S
C398 H388 0.930 . S
C398 C396 1.419 1_565 S
C398 C399 1.362 . S
C399 H389 0.930 . S
C399 C392 1.409 1_556 S
C399 C398 1.362 . S
H400 C406 0.930 . S
H401 C409 0.930 . S
H402 C410 0.930 . S
H403 C411 0.930 . S
H404 C414 0.930 . S
H405 C415 0.930 . S
C406 H400 0.930 . S
C406 C407 1.355 . S
C406 C408 1.415 . S
C407 C406 1.355 . S
C407 C409 1.419 . S
C408 C406 1.415 . S
C408 C413 1.425 . S
C408 C415 1.409 . S
C409 H401 0.930 . S
C409 C407 1.419 . S
C409 C410 1.362 . S
C410 H402 0.930 . S
C410 C409 1.362 . S
C410 C413 1.409 . S
C411 H403 0.930 . S
C411 C412 1.355 . S
C411 C413 1.415 . S
C412 C411 1.355 . S
C412 C414 1.419 . S
C413 C408 1.425 . S
C413 C410 1.409 . S
C413 C411 1.415 . S
C414 H404 0.930 . S
C414 C412 1.419 . S
C414 C415 1.362 . S
C415 H405 0.930 . S
C415 C408 1.409 . S
C415 C414 1.362 . S
H416 C422 0.930 . S
H417 C425 0.930 . S
H418 C426 0.930 . S
H419 C427 0.930 . S
H420 C430 0.930 . S
H421 C431 0.930 . S
C422 H416 0.930 . S
C422 C423 1.355 . S
C422 C424 1.415 . S
C423 C422 1.355 . S
C423 C425 1.419 . S
C424 C422 1.415 . S
C424 C429 1.425 . S
C424 C431 1.409 . S
C425 H417 0.930 . S
C425 C423 1.419 . S
C425 C426 1.362 . S
C426 H418 0.930 . S
C426 C425 1.362 . S
C426 C429 1.409 . S
C427 H419 0.930 . S
C427 C428 1.355 . S
C427 C429 1.415 . S
C428 C427 1.355 . S
C428 C430 1.419 . S
C429 C424 1.425 . S
C429 C426 1.409 . S
C429 C427 1.415 . S
C430 H420 0.930 . S
C430 C428 1.419 . S
C430 C431 1.362 . S
C431 H421 0.930 . S
C431 C424 1.409 . S
C431 C430 1.362 . S
H432 C438 0.930 . S
H433 C441 0.930 . S
H434 C442 0.930 . S
H435 C443 0.930 . S
H436 C446 0.930 . S
H437 C447 0.930 . S
C438 H432 0.930 . S
C438 C439 1.355 . S
C438 C440 1.415 . S
C439 C438 1.355 . S
C439 C441 1.419 . S
C440 C438 1.415 . S
C440 C445 1.425 . S
C440 C447 1.409 . S
C441 H433 0.930 . S
C441 C439 1.419 . S
C441 C442 1.362 . S
C442 H434 0.930 . S
C442 C441 1.362 . S
C442 C445 1.409 . S
C443 H435 0.930 . S
C443 C444 1.355 . S
C443 C445 1.415 . S
C444 C443 1.355 . S
C444 C446 1.419 . S
C445 C440 1.425 . S
C445 C442 1.409 . S
C445 C443 1.415 . S
C446 H436 0.930 . S
C446 C444 1.419 . S
C446 C447 1.362 . S
C447 H437 0.930 . S
C447 C440 1.409 . S
C447 C446 1.362 . S
H448 C454 0.930 . S
H449 C457 0.930 . S
H450 C458 0.930 . S
H451 C459 0.930 . S
H452 C462 0.930 . S
H453 C463 0.930 . S
C454 H448 0.930 . S
C454 C455 1.355 . S
C454 C456 1.415 . S
C455 C454 1.355 . S
C455 C457 1.419 . S
C456 C454 1.415 . S
C456 C461 1.425 1_556 S
C456 C463 1.409 1_556 S
C457 H449 0.930 . S
C457 C455 1.419 . S
C457 C458 1.362 . S
C458 H450 0.930 . S
C458 C457 1.362 . S
C458 C461 1.409 1_556 S
C459 H451 0.930 . S
C459 C460 1.355 . S
C459 C461 1.415 . S
C460 C459 1.355 . S
C460 C462 1.419 . S
C461 C456 1.425 1_554 S
C461 C458 1.409 1_554 S
C461 C459 1.415 . S
C462 H452 0.930 . S
C462 C460 1.419 . S
C462 C463 1.362 . S
C463 H453 0.930 . S
C463 C456 1.409 1_554 S
C463 C462 1.362 . S
H464 C470 0.930 1_655 S
H465 C473 0.930 . S
H466 C474 0.930 . S
H467 C475 0.930 . S
H468 C478 0.930 . S
H469 C479 0.930 . S
C470 H464 0.930 1_455 S
C470 C471 1.355 . S
C470 C472 1.415 . S
C471 C470 1.355 . S
C471 C473 1.419 . S
C472 C470 1.415 . S
C472 C477 1.425 . S
C472 C479 1.409 1_455 S
C473 H465 0.930 . S
C473 C471 1.419 . S
C473 C474 1.362 . S
C474 H466 0.930 . S
C474 C473 1.362 . S
C474 C477 1.409 . S
C475 H467 0.930 . S
C475 C476 1.355 . S
C475 C477 1.415 . S
C476 C475 1.355 . S
C476 C478 1.419 1_455 S
C477 C472 1.425 . S
C477 C474 1.409 . S
C477 C475 1.415 . S
C478 H468 0.930 . S
C478 C476 1.419 1_655 S
C478 C479 1.362 . S
C479 H469 0.930 . S
C479 C472 1.409 1_655 S
C479 C478 1.362 . S
H480 C486 0.930 . S
H481 C489 0.930 . S
H482 C490 0.930 . S
H483 C491 0.930 . S
H484 C494 0.930 . S
H485 C495 0.930 . S
C486 H480 0.930 . S
C486 C487 1.355 . S
C486 C488 1.415 . S
C487 C486 1.355 . S
C487 C489 1.419 . S
C488 C486 1.415 . S
C488 C493 1.425 . S
C488 C495 1.409 . S
C489 H481 0.930 . S
C489 C487 1.419 . S
C489 C490 1.362 . S
C490 H482 0.930 . S
C490 C489 1.362 . S
C490 C493 1.409 . S
C491 H483 0.930 . S
C491 C492 1.355 . S
C491 C493 1.415 . S
C492 C491 1.355 . S
C492 C494 1.419 . S
C493 C488 1.425 . S
C493 C490 1.409 . S
C493 C491 1.415 . S
C494 H484 0.930 . S
C494 C492 1.419 . S
C494 C495 1.362 . S
C495 H485 0.930 . S
C495 C488 1.409 . S
C495 C494 1.362 . S
H496 C502 0.930 . S
H497 C505 0.930 . S
H498 C506 0.930 . S
H499 C507 0.939 . S
H500 C510 0.930 . S
H501 C511 0.930 . S
C502 H496 0.930 . S
C502 C503 1.355 . S
C502 C504 1.415 . S
C503 C502 1.355 . S
C503 C505 1.419 . S
C504 C502 1.415 . S
C504 C509 1.425 . S
C504 C511 1.409 . S
C505 H497 0.930 . S
C505 C503 1.419 . S
C505 C506 1.362 . S
C506 H498 0.930 . S
C506 C505 1.362 . S
C506 C509 1.409 . S
C507 H499 0.939 . S
C507 C508 1.355 . S
C507 C509 1.415 . S
C508 C507 1.355 . S
C508 C510 1.419 . S
C509 C504 1.425 . S
C509 C506 1.409 . S
C509 C507 1.415 . S
C510 H500 0.930 . S
C510 C508 1.419 . S
C510 C511 1.362 . S
C511 H501 0.930 . S
C511 C504 1.409 . S
C511 C510 1.362 . S
H512 C518 0.930 . S
H513 C521 0.930 . S
H514 C522 0.930 . S
H515 C523 0.930 . S
H516 C526 0.930 . S
H517 C527 0.930 . S
C518 H512 0.930 . S
C518 C519 1.355 . S
C518 C520 1.415 . S
C519 C518 1.355 . S
C519 C521 1.419 . S
C520 C518 1.415 . S
C520 C525 1.425 . S
C520 C527 1.409 . S
C521 H513 0.930 . S
C521 C519 1.419 . S
C521 C522 1.362 . S
C522 H514 0.930 . S
C522 C521 1.362 . S
C522 C525 1.409 . S
C523 H515 0.930 . S
C523 C524 1.355 . S
C523 C525 1.415 . S
C524 C523 1.355 . S
C524 C526 1.419 . S
C525 C520 1.425 . S
C525 C522 1.409 . S
C525 C523 1.415 . S
C526 H516 0.930 . S
C526 C524 1.419 . S
C526 C527 1.362 . S
C527 H517 0.930 . S
C527 C520 1.409 . S
C527 C526 1.362 . S
H528 C534 0.930 . S
H529 C537 0.930 . S
H530 C538 0.930 . S
H531 C539 0.930 . S
H532 C542 0.930 . S
H533 C543 0.930 . S
C534 H528 0.930 . S
C534 C535 1.355 . S
C534 C536 1.415 . S
C535 C534 1.355 . S
C535 C537 1.419 . S
C536 C534 1.415 . S
C536 C541 1.425 . S
C536 C543 1.409 . S
C537 H529 0.930 . S
C537 C535 1.419 . S
C537 C538 1.362 . S
C538 H530 0.930 . S
C538 C537 1.362 . S
C538 C541 1.409 . S
C539 H531 0.930 . S
C539 C540 1.355 . S
C539 C541 1.415 . S
C540 C539 1.355 . S
C540 C542 1.419 . S
C541 C536 1.425 . S
C541 C538 1.409 . S
C541 C539 1.415 . S
C542 H532 0.930 . S
C542 C540 1.419 . S
C542 C543 1.362 . S
C543 H533 0.930 . S
C543 C536 1.409 . S
C543 C542 1.362 . S
H544 C550 0.930 . S
H545 C553 0.930 . S
H546 C554 0.930 . S
H547 C555 0.930 . S
H548 C558 0.930 . S
H549 C559 0.930 . S
C550 H544 0.930 . S
C550 C551 1.355 . S
C550 C552 1.415 . S
C551 C550 1.355 . S
C551 C553 1.419 . S
C552 C550 1.415 . S
C552 C557 1.425 . S
C552 C559 1.409 . S
C553 H545 0.930 . S
C553 C551 1.419 . S
C553 C554 1.362 . S
C554 H546 0.930 . S
C554 C553 1.362 . S
C554 C557 1.409 . S
C555 H547 0.930 . S
C555 C556 1.355 . S
C555 C557 1.415 . S
C556 C555 1.355 . S
C556 C558 1.419 . S
C557 C552 1.425 . S
C557 C554 1.409 . S
C557 C555 1.415 . S
C558 H548 0.930 . S
C558 C556 1.419 . S
C558 C559 1.362 . S
C559 H549 0.930 . S
C559 C552 1.409 . S
C559 C558 1.362 . S
H560 C566 0.930 . S
H561 C569 0.930 . S
H562 C570 0.930 . S
H563 C571 0.930 . S
H564 C574 0.930 . S
H565 C575 0.930 . S
C566 H560 0.930 . S
C566 C567 1.355 . S
C566 C568 1.415 . S
C567 C566 1.355 . S
C567 C569 1.419 . S
C568 C566 1.415 . S
C568 C573 1.425 . S
C568 C575 1.409 . S
C569 H561 0.930 . S
C569 C567 1.419 . S
C569 C570 1.362 . S
C570 H562 0.930 . S
C570 C569 1.362 . S
C570 C573 1.409 . S
C571 H563 0.930 . S
C571 C572 1.355 . S
C571 C573 1.415 . S
C572 C571 1.355 . S
C572 C574 1.419 . S
C573 C568 1.425 . S
C573 C570 1.409 . S
C573 C571 1.415 . S
C574 H564 0.930 . S
C574 C572 1.419 . S
C574 C575 1.362 . S
C575 H565 0.930 . S
C575 C568 1.409 . S
C575 C574 1.362 . S
H576 C582 0.930 . S
H577 C585 0.930 . S
H578 C586 0.930 . S
H579 C587 0.930 . S
H580 C590 0.930 . S
H581 C591 0.930 . S
C582 H576 0.930 . S
C582 C583 1.355 . S
C582 C584 1.415 . S
C583 C582 1.355 . S
C583 C585 1.419 . S
C584 C582 1.415 . S
C584 C589 1.425 . S
C584 C591 1.409 . S
C585 H577 0.930 . S
C585 C583 1.419 . S
C585 C586 1.362 . S
C586 H578 0.930 . S
C586 C585 1.362 . S
C586 C589 1.409 . S
C587 H579 0.930 . S
C587 C588 1.355 . S
C587 C589 1.415 . S
C588 C587 1.355 . S
C588 C590 1.419 . S
C589 C584 1.425 . S
C589 C586 1.409 . S
C589 C587 1.415 . S
C590 H580 0.930 . S
C590 C588 1.419 . S
C590 C591 1.362 . S
C591 H581 0.930 . S
C591 C584 1.409 . S
C591 C590 1.362 . S
H592 C598 0.930 . S
H593 C601 0.930 . S
H594 C602 0.930 . S
H595 C603 0.930 . S
H596 C606 0.930 . S
H597 C607 0.930 . S
C598 H592 0.930 . S
C598 C599 1.355 . S
C598 C600 1.415 . S
C599 C598 1.355 . S
C599 C601 1.419 . S
C600 C598 1.415 . S
C600 C605 1.425 . S
C600 C607 1.409 . S
C601 H593 0.930 . S
C601 C599 1.419 . S
C601 C602 1.362 . S
C602 H594 0.930 . S
C602 C601 1.362 . S
C602 C605 1.409 . S
C603 H595 0.930 . S
C603 C604 1.355 . S
C603 C605 1.415 . S
C604 C603 1.355 . S
C604 C606 1.419 . S
C605 C600 1.425 . S
C605 C602 1.409 . S
C605 C603 1.415 . S
C606 H596 0.930 . S
C606 C604 1.419 . S
C606 C607 1.362 . S
C607 H597 0.930 . S
C607 C600 1.409 . S
C607 C606 1.362 . S
H608 C614 0.930 . S
H609 C617 0.930 . S
H610 C618 0.930 . S
H611 C619 0.930 . S
H612 C622 0.930 . S
H613 C623 0.930 . S
C614 H608 0.930 . S
C614 C615 1.355 . S
C614 C616 1.415 . S
C615 C614 1.355 . S
C615 C617 1.419 . S
C616 C614 1.415 . S
C616 C621 1.425 . S
C616 C623 1.409 . S
C617 H609 0.930 . S
C617 C615 1.419 . S
C617 C618 1.362 . S
C618 H610 0.930 . S
C618 C617 1.362 . S
C618 C621 1.409 . S
C619 H611 0.930 . S
C619 C620 1.355 . S
C619 C621 1.415 . S
C620 C619 1.355 . S
C620 C622 1.419 . S
C621 C616 1.425 . S
C621 C618 1.409 . S
C621 C619 1.415 . S
C622 H612 0.930 . S
C622 C620 1.419 . S
C622 C623 1.362 . S
C623 H613 0.930 . S
C623 C616 1.409 . S
C623 C622 1.362 . S
H624 C630 0.930 . S
H625 C633 0.930 . S
H626 C634 0.930 . S
H627 C635 0.930 . S
H628 C638 0.930 . S
H629 C639 0.930 . S
C630 H624 0.930 . S
C630 C631 1.355 . S
C630 C632 1.415 . S
C631 C630 1.355 . S
C631 C633 1.419 . S
C632 C630 1.415 . S
C632 C637 1.425 . S
C632 C639 1.409 . S
C633 H625 0.930 . S
C633 C631 1.419 . S
C633 C634 1.362 . S
C634 H626 0.930 . S
C634 C633 1.362 . S
C634 C637 1.409 . S
C635 H627 0.930 . S
C635 C636 1.355 . S
C635 C637 1.415 . S
C636 C635 1.355 . S
C636 C638 1.419 . S
C637 C632 1.425 . S
C637 C634 1.409 . S
C637 C635 1.415 . S
C638 H628 0.930 . S
C638 C636 1.419 . S
C638 C639 1.362 . S
C639 H629 0.930 . S
C639 C632 1.409 . S
C639 C638 1.362 . S
H640 C646 0.930 . S
H641 C649 0.930 . S
H642 C650 0.930 . S
H643 C651 0.930 . S
H644 C654 0.930 . S
H645 C655 0.930 . S
C646 H640 0.930 . S
C646 C647 1.355 . S
C646 C648 1.415 . S
C647 C646 1.355 . S
C647 C649 1.419 . S
C648 C646 1.415 . S
C648 C653 1.425 . S
C648 C655 1.409 . S
C649 H641 0.930 . S
C649 C647 1.419 . S
C649 C650 1.362 . S
C650 H642 0.930 . S
C650 C649 1.362 . S
C650 C653 1.409 . S
C651 H643 0.930 . S
C651 C652 1.355 . S
C651 C653 1.415 . S
C652 C651 1.355 . S
C652 C654 1.419 . S
C653 C648 1.425 . S
C653 C650 1.409 . S
C653 C651 1.415 . S
C654 H644 0.930 . S
C654 C652 1.419 . S
C654 C655 1.362 . S
C655 H645 0.930 . S
C655 C648 1.409 . S
C655 C654 1.362 . S
H656 C662 0.930 . S
H657 C665 0.930 . S
H658 C666 0.930 . S
H659 C667 0.930 . S
H660 C670 0.930 . S
H661 C671 0.930 . S
C662 H656 0.930 . S
C662 C663 1.355 . S
C662 C664 1.415 . S
C663 C662 1.355 . S
C663 C665 1.419 . S
C664 C662 1.415 . S
C664 C669 1.425 . S
C664 C671 1.409 . S
C665 H657 0.930 . S
C665 C663 1.419 . S
C665 C666 1.362 . S
C666 H658 0.930 . S
C666 C665 1.362 . S
C666 C669 1.409 . S
C667 H659 0.930 . S
C667 C668 1.355 . S
C667 C669 1.415 . S
C668 C667 1.355 . S
C668 C670 1.419 . S
C669 C664 1.425 . S
C669 C666 1.409 . S
C669 C667 1.415 . S
C670 H660 0.930 . S
C670 C668 1.419 . S
C670 C671 1.362 . S
C671 H661 0.930 . S
C671 C664 1.409 . S
C671 C670 1.362 . S
H672 C678 0.930 . S
H673 C681 0.930 . S
H674 C682 0.930 . S
H675 C683 0.930 . S
H676 C686 0.930 . S
H677 C687 0.930 . S
C678 H672 0.930 . S
C678 C679 1.355 . S
C678 C680 1.415 . S
C679 C678 1.355 . S
C679 C681 1.419 . S
C680 C678 1.415 . S
C680 C685 1.425 . S
C680 C687 1.409 . S
C681 H673 0.930 . S
C681 C679 1.419 . S
C681 C682 1.362 . S
C682 H674 0.930 . S
C682 C681 1.362 . S
C682 C685 1.409 . S
C683 H675 0.930 . S
C683 C684 1.355 . S
C683 C685 1.415 . S
C684 C683 1.355 . S
C684 C686 1.419 . S
C685 C680 1.425 . S
C685 C682 1.409 . S
C685 C683 1.415 . S
C686 H676 0.930 . S
C686 C684 1.419 . S
C686 C687 1.362 . S
C687 H677 0.930 . S
C687 C680 1.409 . S
C687 C686 1.362 . S
H688 C694 0.930 . S
H689 C697 0.930 . S
H690 C698 0.930 . S
H691 C699 0.930 . S
H692 C702 0.930 . S
H693 C703 0.930 . S
C694 H688 0.930 . S
C694 C695 1.355 . S
C694 C696 1.415 . S
C695 C694 1.355 . S
C695 C697 1.419 . S
C696 C694 1.415 . S
C696 C701 1.425 . S
C696 C703 1.409 . S
C697 H689 0.930 . S
C697 C695 1.419 . S
C697 C698 1.362 . S
C698 H690 0.930 . S
C698 C697 1.362 . S
C698 C701 1.409 . S
C699 H691 0.930 . S
C699 C700 1.355 . S
C699 C701 1.415 . S
C700 C699 1.355 . S
C700 C702 1.419 . S
C701 C696 1.425 . S
C701 C698 1.409 . S
C701 C699 1.415 . S
C702 H692 0.930 . S
C702 C700 1.419 . S
C702 C703 1.362 . S
C703 H693 0.930 . S
C703 C696 1.409 . S
C703 C702 1.362 . S
H704 C710 0.930 . S
H705 C713 0.930 . S
H706 C714 0.930 . S
H707 C715 0.930 . S
H708 C718 0.930 . S
H709 C719 0.930 . S
C710 H704 0.930 . S
C710 C711 1.355 . S
C710 C712 1.415 . S
C711 C710 1.355 . S
C711 C713 1.419 . S
C712 C710 1.415 . S
C712 C717 1.425 . S
C712 C719 1.409 . S
C713 H705 0.930 . S
C713 C711 1.419 . S
C713 C714 1.362 . S
C714 H706 0.930 . S
C714 C713 1.362 . S
C714 C717 1.409 . S
C715 H707 0.930 . S
C715 C716 1.355 . S
C715 C717 1.415 . S
C716 C715 1.355 . S
C716 C718 1.419 . S
C717 C712 1.425 . S
C717 C714 1.409 . S
C717 C715 1.415 . S
C718 H708 0.930 . S
C718 C716 1.419 . S
C718 C719 1.362 . S
C719 H709 0.930 . S
C719 C712 1.409 . S
C719 C718 1.362 . S
H720 C726 0.930 . S
H721 C729 0.930 . S
H722 C730 0.930 . S
H723 C731 0.930 . S
H724 C734 0.930 . S
H725 C735 0.930 . S
C726 H720 0.930 . S
C726 C727 1.355 . S
C726 C728 1.415 . S
C727 C726 1.355 . S
C727 C729 1.419 . S
C728 C726 1.415 . S
C728 C733 1.425 . S
C728 C735 1.409 . S
C729 H721 0.930 . S
C729 C727 1.419 . S
C729 C730 1.362 . S
C730 H722 0.930 . S
C730 C729 1.362 . S
C730 C733 1.409 . S
C731 H723 0.930 . S
C731 C732 1.355 . S
C731 C733 1.415 . S
C732 C731 1.355 . S
C732 C734 1.419 . S
C733 C728 1.425 . S
C733 C730 1.409 . S
C733 C731 1.415 . S
C734 H724 0.930 . S
C734 C732 1.419 . S
C734 C735 1.362 . S
C735 H725 0.930 . S
C735 C728 1.409 . S
C735 C734 1.362 . S
C231 C8 1.334 . S
C236 C190 1.334 . S
C247 C162 1.318 . S
C252 C22 1.317 . S
C263 C176 1.313 . S
C268 C36 1.314 . S
C279 C148 1.313 . S
C284 C50 1.313 . S
C295 C64 1.364 . S
C300 C218 1.364 . S
C311 C78 1.345 . S
C316 C134 1.344 . S
C327 C204 1.321 . S
C332 C92 1.321 . S
C343 C106 1.315 . S
C348 C120 1.315 . S
C359 C63 1.581 1_655 S
C364 C7 1.559 . S
C375 C21 1.534 . S
C380 C77 1.536 . S
C391 C35 1.553 . S
C396 C91 1.536 . S
C407 C105 1.534 . S
C412 C49 1.537 . S
C423 C119 1.549 . S
C428 C147 1.572 . S
C439 C133 1.599 . S
C444 C161 1.592 . S
C455 C203 1.555 . S
C460 C175 1.537 . S
C471 C189 1.561 . S
C476 C217 1.541 . S
C487 C73 1.485 . S
C492 C3 1.480 . S
C503 C17 1.483 . S
C508 C87 1.450 . S
C519 C31 1.454 . S
C524 C101 1.487 . S
C535 C59 1.461 . S
C540 C45 1.447 . S
C551 C65 1.229 . S
C556 C149 1.283 . S
C567 C37 1.283 . S
C572 C121 1.235 . S
C583 C163 1.284 . S
C588 C93 1.232 . S
C599 C135 1.227 . S
C604 C9 1.283 . S
C615 C115 1.473 . S
C620 C171 1.446 . S
C631 C143 1.446 . S
C636 C213 1.476 . S
C647 C185 1.467 . S
C652 C129 1.490 . S
C663 C157 1.469 . S
C668 C199 1.489 . S
C679 C205 1.226 . S
C684 C23 1.269 . S
C695 C191 1.240 . S
C700 C79 1.282 . S
C711 C219 1.254 . S
C716 C51 1.234 . S
C727 C177 1.279 . S
C732 C107 1.248 . S
