# Generated by pormake.
# Topology uoo, (4)-cn, num edge types: 1
# Building blocks:
#     Node 0, Type 0, BuildingBlock: GALJAG_clean_sbu_0, # of connection points: 4
#     Node 1, Type 0, BuildingBlock: GALJAG_clean_sbu_0, # of connection points: 4
#     Node 2, Type 0, BuildingBlock: GALJAG_clean_sbu_0, # of connection points: 4
#     Node 3, Type 0, BuildingBlock: GALJAG_clean_sbu_0, # of connection points: 4
#     Node 4, Type 0, BuildingBlock: GALJAG_clean_sbu_0, # of connection points: 4
#     Node 5, Type 0, BuildingBlock: GALJAG_clean_sbu_0, # of connection points: 4
#     Edge 6, Type (0, 0), BuildingBlock: UVAHIK_clean_linker_0, # of connection points: 2
#     Edge 7, Type (0, 0), BuildingBlock: UVAHIK_clean_linker_0, # of connection points: 2
#     Edge 8, Type (0, 0), BuildingBlock: UVAHIK_clean_linker_0, # of connection points: 2
#     Edge 9, Type (0, 0), BuildingBlock: UVAHIK_clean_linker_0, # of connection points: 2
#     Edge 10, Type (0, 0), BuildingBlock: UVAHIK_clean_linker_0, # of connection points: 2
#     Edge 11, Type (0, 0), BuildingBlock: UVAHIK_clean_linker_0, # of connection points: 2
#     Edge 12, Type (0, 0), BuildingBlock: UVAHIK_clean_linker_0, # of connection points: 2
#     Edge 13, Type (0, 0), BuildingBlock: UVAHIK_clean_linker_0, # of connection points: 2
#     Edge 14, Type (0, 0), BuildingBlock: UVAHIK_clean_linker_0, # of connection points: 2
#     Edge 15, Type (0, 0), BuildingBlock: UVAHIK_clean_linker_0, # of connection points: 2
#     Edge 16, Type (0, 0), BuildingBlock: UVAHIK_clean_linker_0, # of connection points: 2
#     Edge 17, Type (0, 0), BuildingBlock: UVAHIK_clean_linker_0, # of connection points: 2
# Relax obj value: 0.098
# Max RMSD: 0.113
# Mean RMSD: 0.113
data_MOF--net-uoo--node1-GALJAG_clean_sbu_0--edge1-UVAHIK_clean_linker_0
_symmetry_space_group_name_H-M    P1
_symmetry_Int_Tables_number       1
_symmetry_cell_setting            triclinic
loop_
_symmetry_equiv_pos_as_xyz
'x, y, z'
_cell_length_a     32.76982
_cell_length_b     32.782184
_cell_length_c     50.462434
_cell_angle_alpha  89.989863
_cell_angle_beta   90.052712
_cell_angle_gamma 120.10425
loop_
_atom_site_label
_atom_site_type_symbol
_atom_site_fract_x
_atom_site_fract_y
_atom_site_fract_z
_atom_type_partial_charge
In0 In 0.15125 0.30434 0.01158 0.0
O1 O 0.09506 0.24394 0.03607 0.0
O2 O 0.1613 0.28893 0.05437 0.0
C3 C 0.13231 0.25326 0.96649 0.0
C4 C 0.10668 0.35493 0.0096 0.0
C5 C 0.24593 0.35764 0.01643 0.0
O6 O 0.1343 0.23724 0.98883 0.0
O7 O 0.13934 0.2947 0.96693 0.0
O8 O 0.21836 0.37234 0.02283 0.0
O9 O 0.22577 0.31594 0.00774 0.0
C10 C 0.12029 0.25381 0.05662 0.0
O11 O 0.14371 0.36614 -0.00336 0.0
O12 O 0.09199 0.31813 0.02337 0.0
In13 In 0.84833 0.15304 0.3444 0.0
O14 O 0.84302 0.08953 0.36634 0.0
O15 O 0.86986 0.15406 0.38737 0.0
C16 C 0.8935 0.14341 0.30216 0.0
C17 C 0.75322 0.11099 0.34438 0.0
C18 C 0.88679 0.2478 0.34464 0.0
O19 O 0.91081 0.15174 0.32516 0.0
O20 O 0.85342 0.13971 0.30049 0.0
O21 O 0.85114 0.22108 0.33079 0.0
O22 O 0.90287 0.22674 0.35822 0.0
C23 C 0.85926 0.11143 0.38783 0.0
O24 O 0.77904 0.14665 0.35844 0.0
O25 O 0.77537 0.09662 0.33039 0.0
In26 In 0.69202 0.84312 0.67492 0.0
O27 O 0.62706 0.77462 0.66167 0.0
O28 O 0.68263 0.76971 0.68014 0.0
C29 C 0.6394 0.8855 0.67588 0.0
C30 C 0.73659 0.86023 0.72215 0.0
C31 C 0.74751 0.87873 0.63186 0.0
O32 O 0.62642 0.84625 0.68679 0.0
O33 O 0.67899 0.9035 0.66458 0.0
O34 O 0.75809 0.8992 0.65407 0.0
O35 O 0.70915 0.83997 0.63146 0.0
C36 C 0.64214 0.74823 0.66982 0.0
O37 O 0.75372 0.85426 0.70114 0.0
O38 O 0.69748 0.85833 0.71923 0.0
In39 In 0.84611 0.69442 0.01569 0.0
O40 O 0.91186 0.75136 0.03672 0.0
O41 O 0.84598 0.72578 0.05602 0.0
C42 C 0.84985 0.73516 0.96856 0.0
C43 C 0.88819 0.64169 0.01513 0.0
C44 C 0.75181 0.64182 0.02211 0.0
O45 O 0.86559 0.75885 0.98956 0.0
O46 O 0.83313 0.69145 0.97135 0.0
O47 O 0.77756 0.62396 0.01811 0.0
O48 O 0.77369 0.68628 0.0232 0.0
C49 C 0.88997 0.75322 0.05678 0.0
O50 O 0.85783 0.63635 0.03224 0.0
O51 O 0.89751 0.6738 -0.0016 0.0
In52 In 0.15133 0.84933 0.34508 0.0
O53 O 0.21944 0.85292 0.33075 0.0
O54 O 0.22562 0.908 0.3555 0.0
C55 C 0.10615 0.75404 0.34792 0.0
C56 C 0.1319 0.88295 0.38918 0.0
C57 C 0.11986 0.87069 0.30074 0.0
O58 O 0.14475 0.78005 0.35959 0.0
O59 O 0.09023 0.77604 0.3351 0.0
O60 O 0.09816 0.86137 0.32251 0.0
O61 O 0.15786 0.86972 0.30134 0.0
C62 C 0.2465 0.89092 0.34267 0.0
O63 O 0.14302 0.90494 0.36747 0.0
O64 O 0.13006 0.84357 0.38863 0.0
In65 In 0.30094 0.14745 0.67877 0.0
O66 O 0.37083 0.21616 0.6833 0.0
O67 O 0.31142 0.22067 0.6706 0.0
C68 C 0.35358 0.10526 0.67745 0.0
C69 C 0.25344 0.13655 0.72441 0.0
C70 C 0.24632 0.10727 0.63574 0.0
O71 O 0.36088 0.13873 0.66218 0.0
O72 O 0.31967 0.09299 0.69332 0.0
O73 O 0.24485 0.08391 0.65592 0.0
O74 O 0.27504 0.15093 0.63733 0.0
C75 C 0.35475 0.24233 0.67633 0.0
O76 O 0.23387 0.12903 0.70203 0.0
O77 O 0.29663 0.14932 0.72372 0.0
C78 C 0.18045 0.11904 0.74948 0.0
C79 C 0.22855 0.13284 0.74943 0.0
C80 C 0.15803 0.11883 0.77311 0.0
C81 C 0.17333 0.1263 0.8465 0.0
H82 H 0.09737 0.18643 0.84336 0.0
C83 C 0.11829 0.18099 0.94197 0.0
C84 C 0.12622 0.22725 0.94158 0.0
C85 C 0.11801 0.15852 0.91837 0.0
C86 C 0.11842 0.16948 0.84459 0.0
H87 H 0.29055 0.1558 0.77406 0.0
H88 H 0.252 0.15644 0.81499 0.0
H89 H 0.1229 0.16681 0.80243 0.0
H90 H 0.13774 0.28544 0.9162 0.0
H91 H 0.13855 0.24701 0.87523 0.0
H92 H 0.17178 0.132 0.88858 0.0
C93 C 0.23114 0.14492 0.79701 0.0
C94 C 0.13257 0.15765 0.8211 0.0
C95 C 0.25342 0.14498 0.77348 0.0
C96 C 0.13159 0.24977 0.91712 0.0
C97 C 0.13164 0.2275 0.89357 0.0
C98 C 0.15951 0.13845 0.86997 0.0
C99 C 0.18334 0.13246 0.79709 0.0
C100 C 0.16156 0.1374 0.82179 0.0
C101 C 0.12597 0.18202 0.89394 0.0
C102 C 0.13322 0.16163 0.86929 0.0
H103 H 0.16035 0.10923 0.73122 0.0
H104 H 0.12106 0.10855 0.77253 0.0
H105 H 0.19481 0.10982 0.84774 0.0
H106 H 0.11362 0.16263 0.96056 0.0
H107 H 0.11274 0.12319 0.91933 0.0
C108 C 0.89654 0.12753 0.25405 0.0
C109 C 0.91912 0.14087 0.27879 0.0
C110 C 0.9218 0.1292 0.23142 0.0
C111 C 0.04002 0.19583 0.20485 0.0
H112 H 0.98935 0.10495 0.14751 0.0
C113 C 0.13209 0.239 0.10382 0.0
C114 C 0.10195 0.22884 0.08196 0.0
C115 C 0.1138 0.21947 0.12862 0.0
C116 C 0.00394 0.13073 0.1633 0.0
H117 H 0.98524 0.16452 0.29953 0.0
H118 H 0.02961 0.16804 0.25981 0.0
H119 H 0.94882 0.08617 0.1902 0.0
H120 H 0.02945 0.18863 0.06852 0.0
H121 H 0.99731 0.15573 0.11182 0.0
H122 H 0.09353 0.24154 0.17781 0.0
C123 C 0.99239 0.15632 0.25798 0.0
C124 C 0.98082 0.11987 0.18775 0.0
C125 C 0.96699 0.15421 0.28068 0.0
C126 C 0.05352 0.19709 0.08505 0.0
C127 C 0.03516 0.17794 0.10988 0.0
C128 C 0.06287 0.20688 0.18038 0.0
C129 C 0.97021 0.14464 0.23307 0.0
C130 C -0.00195 0.1528 0.20854 0.0
C131 C 0.06493 0.18979 0.13212 0.0
C132 C 0.04447 0.17496 0.15908 0.0
H133 H 0.85961 0.11693 0.25205 0.0
H134 H 0.90389 0.12049 0.21245 0.0
H135 H 0.0538 0.22214 0.22041 0.0
H136 H 0.16968 0.26301 0.10193 0.0
H137 H 0.13785 0.22861 0.1452 0.0
C138 C 0.88841 0.11607 0.43402 0.0
C139 C 0.86343 0.08863 0.41204 0.0
C140 C 0.88898 0.09458 0.45779 0.0
C141 C 0.85664 0.97866 0.48872 0.0
H142 H 0.83493 0.03552 0.55049 0.0
C143 C 0.76086 0.87734 0.58322 0.0
C144 C 0.77531 0.90064 0.60772 0.0
C145 C 0.7831 0.90064 0.55983 0.0
C146 C 0.84195 0.01962 0.53358 0.0
H147 H 0.82108 0.01732 0.39722 0.0
H148 H 0.82057 0.97966 0.43896 0.0
H149 H 0.85265 0.07624 0.50832 0.0
H150 H 0.82633 0.96536 0.62721 0.0
H151 H 0.86513 0.00609 0.58631 0.0
H152 H 0.84336 0.92077 0.51409 0.0
C153 C 0.84065 0.01777 0.43778 0.0
C154 C 0.8522 0.04303 0.50932 0.0
C155 C 0.84059 0.03931 0.4139 0.0
C156 C 0.8142 0.94665 0.60858 0.0
C157 C 0.83631 0.97001 0.58518 0.0
C158 C 0.84599 0.95501 0.51303 0.0
C159 C 0.86401 0.04517 0.4602 0.0
C160 C 0.85877 0.02248 0.48646 0.0
C161 C 0.82007 0.94771 0.56052 0.0
C162 C 0.83766 0.97491 0.53558 0.0
H163 H 0.90686 0.15422 0.43302 0.0
H164 H 0.9082 0.11677 0.47446 0.0
H165 H 0.86232 0.9622 0.47161 0.0
H166 H 0.73109 0.84178 0.58199 0.0
H167 H 0.76956 0.88265 0.54112 0.0
C168 C 0.86748 0.80505 0.94029 0.0
C169 C 0.84774 0.75605 0.94308 0.0
C170 C 0.86149 0.82396 0.91671 0.0
C171 C 0.77744 0.79183 0.86295 0.0
H172 H 0.87735 0.89377 0.82268 0.0
C173 C 0.73409 0.8648 0.77139 0.0
C174 C 0.75789 0.86401 0.74845 0.0
C175 C 0.75016 0.86098 0.79637 0.0
C176 C 0.84917 0.86547 0.83386 0.0
H177 H 0.80789 0.6886 0.92315 0.0
H178 H 0.79705 0.72155 0.88226 0.0
H179 H 0.89638 0.86696 0.86394 0.0
H180 H 0.81899 0.86208 0.73363 0.0
H181 H 0.84707 0.8553 0.7774 0.0
H182 H 0.73027 0.7895 0.83301 0.0
C183 C 0.81694 0.74527 0.89828 0.0
C184 C 0.86001 0.85033 0.85742 0.0
C185 C 0.82332 0.72648 0.92164 0.0
C186 C 0.79983 0.86254 0.751 0.0
C187 C 0.81605 0.85894 0.77604 0.0
C188 C 0.76658 0.80728 0.83972 0.0
C189 C 0.8352 0.79403 0.89578 0.0
C190 C 0.82425 0.81277 0.87186 0.0
C191 C 0.79043 0.8565 0.79887 0.0
C192 C 0.80234 0.84381 0.82474 0.0
H193 H 0.8866 0.82864 0.95651 0.0
H194 H 0.87583 0.86169 0.91521 0.0
H195 H 0.7492 0.76312 0.87389 0.0
H196 H 0.70187 0.86629 0.77004 0.0
H197 H 0.73011 0.8598 0.8137 0.0
C198 C 0.12309 0.88344 0.25176 0.0
C199 C 0.10005 0.87783 0.27607 0.0
C200 C 0.10125 0.88384 0.22805 0.0
C201 C 0.98259 0.83383 0.2013 0.0
H202 H 0.04695 0.90494 0.13841 0.0
C203 C 0.88801 0.78601 0.10113 0.0
C204 C 0.91416 0.78245 0.08016 0.0
C205 C 0.91045 0.80913 0.12454 0.0
C206 C 0.0285 0.88476 0.1558 0.0
H207 H 0.03762 0.87152 0.29485 0.0
H208 H -0.00042 0.87238 0.25344 0.0
H209 H 0.088 0.92579 0.18104 0.0
H210 H 0.98446 0.80224 0.06661 0.0
H211 H 0.0235 0.84132 0.10768 0.0
H212 H 0.92404 0.79131 0.17618 0.0
C213 C 0.03419 0.87579 0.25268 0.0
C214 C 0.05198 0.89678 0.18019 0.0
C215 C 0.05603 0.87543 0.27637 0.0
C216 C 0.9634 0.80441 0.08249 0.0
C217 C 0.98581 0.82714 0.106 0.0
C218 C 0.95928 0.82167 0.17697 0.0
C219 C 0.05596 0.87859 0.22823 0.0
C220 C 0.02957 0.87074 0.20308 0.0
C221 C 0.95945 0.82871 0.12756 0.0
C222 C 0.98227 0.84625 0.1538 0.0
H223 H 0.15712 0.88553 0.25096 0.0
H224 H 0.11877 0.88565 0.20953 0.0
H225 H 0.96457 0.81257 0.21847 0.0
H226 H 0.85002 0.76985 0.09973 0.0
H227 H 0.8892 0.81053 0.14055 0.0
C228 C 0.21949 0.11271 0.59019 0.0
C229 C 0.21904 0.08493 0.61148 0.0
C230 C 0.19778 0.09171 0.56622 0.0
C231 C 0.11843 0.97592 0.53372 0.0
H232 H 0.1969 0.03763 0.47255 0.0
C233 C 0.11739 0.87969 0.43797 0.0
C234 C 0.12579 0.90369 0.41374 0.0
C235 C 0.11775 0.90191 0.46166 0.0
C236 C 0.17397 0.02032 0.48929 0.0
H237 H 0.19375 0.01338 0.62491 0.0
H238 H 0.15706 0.97677 0.58292 0.0
H239 H 0.21777 0.07708 0.51517 0.0
H240 H 0.13808 0.96849 0.39507 0.0
H241 H 0.13861 0.00722 0.43645 0.0
H242 H 0.07594 0.9181 0.50776 0.0
C243 C 0.17333 0.01467 0.58476 0.0
C244 C 0.18591 0.04301 0.51379 0.0
C245 C 0.19468 0.03567 0.60879 0.0
C246 C 0.13191 0.94927 0.41348 0.0
C247 C 0.13236 0.9715 0.43716 0.0
C248 C 0.10663 0.95306 0.50916 0.0
C249 C 0.17558 0.04252 0.56298 0.0
C250 C 0.15891 0.0207 0.53645 0.0
C251 C 0.12661 0.94855 0.46155 0.0
C252 C 0.13487 0.97467 0.48682 0.0
H253 H 0.23759 0.15078 0.59182 0.0
H254 H 0.19939 0.11414 0.55001 0.0
H255 H 0.09642 0.95809 0.55069 0.0
H256 H 0.11241 0.84446 0.43874 0.0
H257 H 0.1136 0.88344 0.48015 0.0
C258 C 0.31863 0.43473 0.02601 0.0
C259 C 0.29769 0.38699 0.01884 0.0
C260 C 0.36765 0.46272 0.02787 0.0
C261 C 0.47584 0.45638 0.03674 0.0
H262 H 0.53772 0.5805 0.00452 0.0
C263 C 0.67718 0.56387 0.02096 0.0
C264 C 0.69998 0.61297 0.02434 0.0
C265 C 0.62802 0.5367 0.02185 0.0
C266 C 0.521 0.54624 0.01399 0.0
H267 H 0.31151 0.33097 0.0082 0.0
H268 H 0.39718 0.37985 0.01152 0.0
H269 H 0.45197 0.53234 0.0032 0.0
H270 H 0.68936 0.6721 0.03184 0.0
H271 H 0.60351 0.6246 0.03385 0.0
H272 H 0.54475 0.47021 0.04761 0.0
C273 C 0.37568 0.39556 0.01583 0.0
C274 C 0.47186 0.51862 0.01317 0.0
C275 C 0.32667 0.36766 0.01378 0.0
C276 C 0.67272 0.63432 0.02907 0.0
C277 C 0.62353 0.60713 0.03004 0.0
C278 C 0.52497 0.48409 0.03769 0.0
C279 C 0.3967 0.44344 0.02279 0.0
C280 C 0.44878 0.47328 0.02437 0.0
C281 C 0.60056 0.55802 0.02623 0.0
C282 C 0.54818 0.52923 0.02616 0.0
H283 H 0.29715 0.45057 0.03004 0.0
H284 H 0.38283 0.49939 0.03351 0.0
H285 H 0.45897 0.42183 0.04588 0.0
H286 H 0.69727 0.54644 0.01719 0.0
H287 H 0.61152 0.49909 0.01846 0.0
C288 C 0.9483 0.32741 0.36061 0.0
C289 C 0.90805 0.29961 0.34512 0.0
C290 C 0.96852 0.37638 0.36123 0.0
C291 C 0.97479 0.47619 0.32378 0.0
H292 H 0.02191 0.54309 0.39026 0.0
C293 C 0.04019 0.67498 0.33414 0.0
C294 C 0.08195 0.702 0.34863 0.0
C295 C 0.01791 0.62579 0.33413 0.0
C296 C 0.00932 0.52496 0.3715 0.0
H297 H 0.85729 0.3012 0.31821 0.0
H298 H 0.89231 0.38682 0.3195 0.0
H299 H 0.98473 0.45738 0.38935 0.0
H300 H 0.13291 0.69878 0.37466 0.0
H301 H 0.0941 0.6128 0.37456 0.0
H302 H -0.00059 0.54381 0.30595 0.0
C303 C 0.90862 0.37081 0.33091 0.0
C304 C 0.98803 0.47584 0.37096 0.0
C305 C 0.8884 0.32176 0.33026 0.0
C306 C 0.10072 0.67886 0.36334 0.0
C307 C 0.07835 0.62962 0.36339 0.0
C308 C 0.996 0.5253 0.32433 0.0
C309 C 0.94892 0.3987 0.34642 0.0
C310 C 0.97067 0.45087 0.34708 0.0
C311 C 0.03683 0.60254 0.34866 0.0
C312 C 0.01365 0.55027 0.34818 0.0
H313 H 0.96434 0.31135 0.37221 0.0
H314 H -6e-05 0.39682 0.37307 0.0
H315 H 0.96246 0.45814 0.30498 0.0
H316 H 0.02482 0.69183 0.32266 0.0
H317 H 0.98566 0.60593 0.32286 0.0
C318 C 0.37104 0.0432 0.69305 0.0
C319 C 0.38271 0.08253 0.67698 0.0
C320 C 0.39881 0.02193 0.6928 0.0
C321 C 0.48834 0.01222 0.65278 0.0
H322 H 0.51273 0.96764 0.71881 0.0
C323 C 0.62451 0.95001 0.66172 0.0
C324 C 0.61045 0.90842 0.67617 0.0
C325 C 0.59685 0.97142 0.66176 0.0
C326 C 0.50587 0.97954 0.70018 0.0
H327 H 0.43263 0.13058 0.6481 0.0
H328 H 0.48166 0.09404 0.648 0.0
H329 H 0.46436 0.00488 0.71894 0.0
H330 H 0.5566 0.8567 0.70209 0.0
H331 H 0.50832 0.89419 0.70222 0.0
H332 H 0.53035 0.98725 0.63411 0.0
C333 C 0.45059 0.07904 0.66046 0.0
C334 C 0.47808 0.0008 0.70023 0.0
C335 C 0.42266 0.10016 0.66062 0.0
C336 C 0.56835 0.88878 0.69079 0.0
C337 C 0.54084 0.91036 0.69097 0.0
C338 C 0.51636 0.9912 0.65276 0.0
C339 C 0.43904 0.03967 0.67657 0.0
C340 C 0.46886 0.0173 0.67652 0.0
C341 C 0.55474 0.95184 0.67641 0.0
C342 C 0.52532 0.97453 0.67645 0.0
H343 H 0.34031 0.02871 0.70577 0.0
H344 H 0.38844 0.99123 0.70513 0.0
H345 H 0.48136 0.02383 0.6341 0.0
H346 H 0.65683 0.96596 0.65028 0.0
H347 H 0.6087 0.00363 0.65057 0.0
C348 C 0.36564 0.3218 0.66576 0.0
C349 C 0.38444 0.29417 0.67493 0.0
C350 C 0.39389 0.37086 0.6644 0.0
C351 C 0.50226 0.47028 0.69207 0.0
H352 H 0.4959 0.53809 0.6307 0.0
C353 C 0.63255 0.66859 0.67771 0.0
C354 C 0.61393 0.69628 0.66839 0.0
C355 C 0.60511 0.61944 0.67757 0.0
C356 C 0.49774 0.51974 0.6481 0.0
H357 H 0.44748 0.29611 0.68981 0.0
H358 H 0.4968 0.3817 0.6874 0.0
H359 H 0.44643 0.45243 0.63255 0.0
H360 H 0.55225 0.69431 0.65129 0.0
H361 H 0.50409 0.60849 0.65134 0.0
H362 H 0.55317 0.53744 0.70777 0.0
C363 C 0.46016 0.36553 0.68147 0.0
C364 C 0.4694 0.47067 0.64915 0.0
C365 C 0.43198 0.3165 0.68272 0.0
C366 C 0.56759 0.67386 0.65853 0.0
C367 C 0.54009 0.62468 0.65845 0.0
C368 C 0.53047 0.51931 0.69106 0.0
C369 C 0.44143 0.39327 0.6723 0.0
C370 C 0.47139 0.4454 0.67114 0.0
C371 C 0.5584 0.59689 0.66818 0.0
C372 C 0.5286 0.54465 0.66905 0.0
H373 H 0.32908 0.30554 0.65964 0.0
H374 H 0.37831 0.39131 0.65751 0.0
H375 H 0.50406 0.4519 0.70948 0.0
H376 H 0.66824 0.6849 0.68533 0.0
H377 H 0.62056 0.59909 0.6848 0.0
C378 C 0.89587 0.57415 0.03205 0.0
C379 C 0.91058 0.61227 0.01453 0.0
C380 C 0.91658 0.54587 0.03122 0.0
C381 C 0.98655 0.513 0.9877 0.0
H382 H 0.01221 0.46839 0.05332 0.0
C383 C 0.09947 0.42283 0.99272 0.0
C384 C 0.08298 0.38314 0.00922 0.0
C385 C 0.07767 0.45015 0.99291 0.0
C386 C 0.00482 0.48018 0.03482 0.0
H387 H 0.95875 0.65101 0.98256 0.0
H388 H 0.99559 0.60229 0.98145 0.0
H389 H 0.97621 0.5178 0.05474 0.0
H390 H 0.03053 0.3406 0.03864 0.0
H391 H 0.99248 0.3883 0.03896 0.0
H392 H 0.01574 0.47572 0.96785 0.0
C393 C 0.96744 0.59361 -0.0045 0.0
C394 C 0.98413 0.50845 0.03562 0.0
C395 C 0.94656 0.62174 -0.00375 0.0
C396 C 0.04408 0.37107 0.02575 0.0
C397 C 0.02247 0.39852 0.02605 0.0
C398 C 0.00748 0.48491 0.98692 0.0
C399 C 0.95263 0.55526 0.01294 0.0
C400 C 0.9747 0.52519 0.01207 0.0
C401 C 0.03914 0.43846 0.00971 0.0
C402 C 0.01678 0.46816 0.01047 0.0
H403 H 0.86803 0.56587 0.04627 0.0
H404 H 0.90382 0.51624 0.04468 0.0
H405 H 0.97907 0.52461 0.96917 0.0
H406 H 0.12942 0.43299 0.97979 0.0
H407 H 0.09158 0.48097 0.98028 0.0
C408 C 0.67417 0.04755 0.32865 0.0
C409 C 0.70121 0.08789 0.3442 0.0
C410 C 0.62498 0.02573 0.32837 0.0
C411 C 0.5243 0.01595 0.36674 0.0
H412 H 0.45656 0.96965 0.30041 0.0
C413 C 0.32647 0.95451 0.35687 0.0
C414 C 0.29845 0.91333 0.34214 0.0
C415 C 0.37554 0.97533 0.35693 0.0
C416 C 0.47493 0.98194 0.31914 0.0
H417 H 0.69803 0.13714 0.37159 0.0
H418 H 0.61219 0.09945 0.37088 0.0
H419 H 0.54236 0.007 0.30097 0.0
H420 H 0.29977 0.86176 0.31582 0.0
H421 H 0.38565 0.8981 0.31598 0.0
H422 H 0.45689 0.99111 0.38488 0.0
C423 C 0.6289 0.08421 0.35918 0.0
C424 C 0.5241 0.00332 0.31947 0.0
C425 C 0.6781 0.10599 0.35948 0.0
C426 C 0.32049 0.89356 0.32731 0.0
C427 C 0.36966 0.91449 0.32731 0.0
C428 C 0.47517 0.99467 0.3664 0.0
C429 C 0.60173 0.04382 0.34362 0.0
C430 C 0.54939 0.02069 0.34327 0.0
C431 C 0.39772 0.9555 0.34223 0.0
C432 C 0.44992 0.97753 0.34259 0.0
H433 H 0.69099 0.03269 0.31673 0.0
H434 H 0.60513 0.99432 0.31645 0.0
H435 H 0.54258 0.02818 0.38549 0.0
H436 H 0.3105 0.97063 0.36845 0.0
H437 H 0.39617 0.00726 0.36833 0.0
loop_
_geom_bond_atom_site_label_1
_geom_bond_atom_site_label_2
_geom_bond_distance
_geom_bond_site_symmetry_2
_ccdc_geom_bond_type
In0 O1 2.294 . S
In0 O2 2.326 . S
In0 O6 2.266 1_554 S
In0 O7 2.326 1_554 S
In0 O8 2.266 . S
In0 O9 2.326 . S
In0 O11 2.294 . S
In0 O12 2.326 . S
O1 In0 2.294 . S
O1 C10 1.240 . S
O2 In0 2.326 . S
O2 C10 1.252 . S
C3 O6 1.252 . S
C3 O7 1.260 . S
C4 O11 1.240 . S
C4 O12 1.252 . S
C5 O8 1.252 . S
C5 O9 1.260 . S
O6 In0 2.266 1_556 S
O6 C3 1.252 . S
O7 In0 2.326 1_556 S
O7 C3 1.260 . S
O8 In0 2.266 . S
O8 C5 1.252 . S
O9 In0 2.326 . S
O9 C5 1.260 . S
C10 O1 1.240 . S
C10 O2 1.252 . S
O11 In0 2.294 . S
O11 C4 1.240 . S
O12 In0 2.326 . S
O12 C4 1.252 . S
In13 O14 2.294 . S
In13 O15 2.326 . S
In13 O19 2.266 . S
In13 O20 2.326 . S
In13 O21 2.266 . S
In13 O22 2.326 . S
In13 O24 2.294 . S
In13 O25 2.326 . S
O14 In13 2.294 . S
O14 C23 1.240 . S
O15 In13 2.326 . S
O15 C23 1.252 . S
C16 O19 1.252 . S
C16 O20 1.260 . S
C17 O24 1.240 . S
C17 O25 1.252 . S
C18 O21 1.252 . S
C18 O22 1.260 . S
O19 In13 2.266 . S
O19 C16 1.252 . S
O20 In13 2.326 . S
O20 C16 1.260 . S
O21 In13 2.266 . S
O21 C18 1.252 . S
O22 In13 2.326 . S
O22 C18 1.260 . S
C23 O14 1.240 . S
C23 O15 1.252 . S
O24 In13 2.294 . S
O24 C17 1.240 . S
O25 In13 2.326 . S
O25 C17 1.252 . S
In26 O27 2.294 . S
In26 O28 2.326 . S
In26 O32 2.266 . S
In26 O33 2.326 . S
In26 O34 2.266 . S
In26 O35 2.326 . S
In26 O37 2.294 . S
In26 O38 2.326 . S
O27 In26 2.294 . S
O27 C36 1.240 . S
O28 In26 2.326 . S
O28 C36 1.252 . S
C29 O32 1.252 . S
C29 O33 1.260 . S
C30 O37 1.240 . S
C30 O38 1.252 . S
C31 O34 1.252 . S
C31 O35 1.260 . S
O32 In26 2.266 . S
O32 C29 1.252 . S
O33 In26 2.326 . S
O33 C29 1.260 . S
O34 In26 2.266 . S
O34 C31 1.252 . S
O35 In26 2.326 . S
O35 C31 1.260 . S
C36 O27 1.240 . S
C36 O28 1.252 . S
O37 In26 2.294 . S
O37 C30 1.240 . S
O38 In26 2.326 . S
O38 C30 1.252 . S
In39 O40 2.294 . S
In39 O41 2.326 . S
In39 O45 2.266 1_554 S
In39 O46 2.326 1_554 S
In39 O47 2.266 . S
In39 O48 2.326 . S
In39 O50 2.294 . S
In39 O51 2.326 . S
O40 In39 2.294 . S
O40 C49 1.240 . S
O41 In39 2.326 . S
O41 C49 1.252 . S
C42 O45 1.252 . S
C42 O46 1.260 . S
C43 O50 1.240 . S
C43 O51 1.252 . S
C44 O47 1.252 . S
C44 O48 1.260 . S
O45 In39 2.266 1_556 S
O45 C42 1.252 . S
O46 In39 2.326 1_556 S
O46 C42 1.260 . S
O47 In39 2.266 . S
O47 C44 1.252 . S
O48 In39 2.326 . S
O48 C44 1.260 . S
C49 O40 1.240 . S
C49 O41 1.252 . S
O50 In39 2.294 . S
O50 C43 1.240 . S
O51 In39 2.326 . S
O51 C43 1.252 . S
In52 O53 2.294 . S
In52 O54 2.326 . S
In52 O58 2.266 . S
In52 O59 2.326 . S
In52 O60 2.266 . S
In52 O61 2.326 . S
In52 O63 2.294 . S
In52 O64 2.326 . S
O53 In52 2.294 . S
O53 C62 1.240 . S
O54 In52 2.326 . S
O54 C62 1.252 . S
C55 O58 1.252 . S
C55 O59 1.260 . S
C56 O63 1.240 . S
C56 O64 1.252 . S
C57 O60 1.252 . S
C57 O61 1.260 . S
O58 In52 2.266 . S
O58 C55 1.252 . S
O59 In52 2.326 . S
O59 C55 1.260 . S
O60 In52 2.266 . S
O60 C57 1.252 . S
O61 In52 2.326 . S
O61 C57 1.260 . S
C62 O53 1.240 . S
C62 O54 1.252 . S
O63 In52 2.294 . S
O63 C56 1.240 . S
O64 In52 2.326 . S
O64 C56 1.252 . S
In65 O66 2.294 . S
In65 O67 2.326 . S
In65 O71 2.266 . S
In65 O72 2.326 . S
In65 O73 2.266 . S
In65 O74 2.326 . S
In65 O76 2.294 . S
In65 O77 2.326 . S
O66 In65 2.294 . S
O66 C75 1.240 . S
O67 In65 2.326 . S
O67 C75 1.252 . S
C68 O71 1.252 . S
C68 O72 1.260 . S
C69 O76 1.240 . S
C69 O77 1.252 . S
C70 O73 1.252 . S
C70 O74 1.260 . S
O71 In65 2.266 . S
O71 C68 1.252 . S
O72 In65 2.326 . S
O72 C68 1.260 . S
O73 In65 2.266 . S
O73 C70 1.252 . S
O74 In65 2.326 . S
O74 C70 1.260 . S
C75 O66 1.240 . S
C75 O67 1.252 . S
O76 In65 2.294 . S
O76 C69 1.240 . S
O77 In65 2.326 . S
O77 C69 1.252 . S
C78 C79 1.349 . S
C78 C80 1.327 . S
C78 H103 0.950 . S
C79 C78 1.349 . S
C79 C95 1.349 . S
C80 C78 1.327 . S
C80 C99 1.429 . S
C80 H104 0.950 . S
C81 C98 1.574 . S
C81 C100 1.368 . S
C81 H105 0.949 . S
H82 C86 0.949 . S
C83 C84 1.349 . S
C83 C85 1.327 . S
C83 H106 0.950 . S
C84 C83 1.349 . S
C84 C96 1.349 . S
C85 C83 1.327 . S
C85 C101 1.429 . S
C85 H107 0.950 . S
C86 H82 0.949 . S
C86 C94 1.574 . S
C86 C102 1.368 . S
H87 C95 0.950 . S
H88 C93 0.950 . S
H89 C94 0.949 . S
H90 C96 0.950 . S
H91 C97 0.950 . S
H92 C98 0.949 . S
C93 H88 0.950 . S
C93 C95 1.327 . S
C93 C99 1.429 . S
C94 C86 1.574 . S
C94 H89 0.949 . S
C94 C100 1.368 . S
C95 C79 1.349 . S
C95 H87 0.950 . S
C95 C93 1.327 . S
C96 C84 1.349 . S
C96 H90 0.950 . S
C96 C97 1.327 . S
C97 H91 0.950 . S
C97 C96 1.327 . S
C97 C101 1.429 . S
C98 C81 1.574 . S
C98 H92 0.949 . S
C98 C102 1.368 . S
C99 C80 1.429 . S
C99 C93 1.429 . S
C99 C100 1.523 . S
C100 C81 1.368 . S
C100 C94 1.368 . S
C100 C99 1.523 . S
C101 C85 1.429 . S
C101 C97 1.429 . S
C101 C102 1.523 . S
C102 C86 1.368 . S
C102 C98 1.368 . S
C102 C101 1.523 . S
H103 C78 0.950 . S
H104 C80 0.950 . S
H105 C81 0.949 . S
H106 C83 0.950 . S
H107 C85 0.950 . S
C108 C109 1.349 . S
C108 C110 1.327 . S
C108 H133 0.950 . S
C109 C108 1.349 . S
C109 C125 1.349 . S
C110 C108 1.327 . S
C110 C129 1.429 . S
C110 H134 0.950 . S
C111 C128 1.574 . S
C111 C130 1.368 1_455 S
C111 H135 0.949 . S
H112 C116 0.949 . S
C113 C114 1.349 . S
C113 C115 1.327 . S
C113 H136 0.950 . S
C114 C113 1.349 . S
C114 C126 1.349 . S
C115 C113 1.327 . S
C115 C131 1.429 . S
C115 H137 0.950 . S
C116 H112 0.949 . S
C116 C124 1.574 . S
C116 C132 1.368 1_655 S
H117 C125 0.950 . S
H118 C123 0.955 . S
H119 C124 0.949 . S
H120 C126 0.950 . S
H121 C127 0.952 . S
H122 C128 0.949 . S
C123 H118 0.955 . S
C123 C125 1.327 . S
C123 C129 1.429 . S
C124 C116 1.574 . S
C124 H119 0.949 . S
C124 C130 1.368 . S
C125 C109 1.349 . S
C125 H117 0.950 . S
C125 C123 1.327 . S
C126 C114 1.349 . S
C126 H120 0.950 . S
C126 C127 1.327 . S
C127 H121 0.952 . S
C127 C126 1.327 . S
C127 C131 1.429 . S
C128 C111 1.574 . S
C128 H122 0.949 . S
C128 C132 1.368 . S
C129 C110 1.429 . S
C129 C123 1.429 . S
C129 C130 1.523 . S
C130 C111 1.368 1_655 S
C130 C124 1.368 . S
C130 C129 1.523 . S
C131 C115 1.429 . S
C131 C127 1.429 . S
C131 C132 1.523 . S
C132 C116 1.368 1_455 S
C132 C128 1.368 . S
C132 C131 1.523 . S
H133 C108 0.950 . S
H134 C110 0.950 . S
H135 C111 0.949 . S
H136 C113 0.950 . S
H137 C115 0.950 . S
C138 C139 1.349 . S
C138 C140 1.327 . S
C138 H163 0.950 . S
C139 C138 1.349 . S
C139 C155 1.349 . S
C140 C138 1.327 . S
C140 C159 1.429 . S
C140 H164 0.950 . S
C141 C158 1.574 . S
C141 C160 1.368 1_565 S
C141 H165 0.949 . S
H142 C146 0.949 . S
C143 C144 1.349 . S
C143 C145 1.327 . S
C143 H166 0.950 . S
C144 C143 1.349 . S
C144 C156 1.349 . S
C145 C143 1.327 . S
C145 C161 1.429 . S
C145 H167 0.950 . S
C146 H142 0.949 . S
C146 C154 1.574 . S
C146 C162 1.368 1_545 S
H147 C155 0.950 . S
H148 C153 0.950 . S
H149 C154 0.949 . S
H150 C156 0.950 . S
H151 C157 0.950 . S
H152 C158 0.949 . S
C153 H148 0.950 . S
C153 C155 1.327 . S
C153 C159 1.429 . S
C154 C146 1.574 . S
C154 H149 0.949 . S
C154 C160 1.368 . S
C155 C139 1.349 . S
C155 H147 0.950 . S
C155 C153 1.327 . S
C156 C144 1.349 . S
C156 H150 0.950 . S
C156 C157 1.327 . S
C157 H151 0.950 . S
C157 C156 1.327 . S
C157 C161 1.429 . S
C158 C141 1.574 . S
C158 H152 0.949 . S
C158 C162 1.368 . S
C159 C140 1.429 . S
C159 C153 1.429 . S
C159 C160 1.523 . S
C160 C141 1.368 1_545 S
C160 C154 1.368 . S
C160 C159 1.523 . S
C161 C145 1.429 . S
C161 C157 1.429 . S
C161 C162 1.523 . S
C162 C146 1.368 1_565 S
C162 C158 1.368 . S
C162 C161 1.523 . S
H163 C138 0.950 . S
H164 C140 0.950 . S
H165 C141 0.949 . S
H166 C143 0.950 . S
H167 C145 0.950 . S
C168 C169 1.349 . S
C168 C170 1.327 . S
C168 H193 0.950 . S
C169 C168 1.349 . S
C169 C185 1.349 . S
C170 C168 1.327 . S
C170 C189 1.429 . S
C170 H194 0.950 . S
C171 C188 1.574 . S
C171 C190 1.368 . S
C171 H195 0.949 . S
H172 C176 0.949 . S
C173 C174 1.349 . S
C173 C175 1.327 . S
C173 H196 0.950 . S
C174 C173 1.349 . S
C174 C186 1.349 . S
C175 C173 1.327 . S
C175 C191 1.429 . S
C175 H197 0.950 . S
C176 H172 0.949 . S
C176 C184 1.574 . S
C176 C192 1.368 . S
H177 C185 0.950 . S
H178 C183 0.950 . S
H179 C184 0.949 . S
H180 C186 0.950 . S
H181 C187 0.950 . S
H182 C188 0.949 . S
C183 H178 0.950 . S
C183 C185 1.327 . S
C183 C189 1.429 . S
C184 C176 1.574 . S
C184 H179 0.949 . S
C184 C190 1.368 . S
C185 C169 1.349 . S
C185 H177 0.950 . S
C185 C183 1.327 . S
C186 C174 1.349 . S
C186 H180 0.950 . S
C186 C187 1.327 . S
C187 H181 0.950 . S
C187 C186 1.327 . S
C187 C191 1.429 . S
C188 C171 1.574 . S
C188 H182 0.949 . S
C188 C192 1.368 . S
C189 C170 1.429 . S
C189 C183 1.429 . S
C189 C190 1.523 . S
C190 C171 1.368 . S
C190 C184 1.368 . S
C190 C189 1.523 . S
C191 C175 1.429 . S
C191 C187 1.429 . S
C191 C192 1.523 . S
C192 C176 1.368 . S
C192 C188 1.368 . S
C192 C191 1.523 . S
H193 C168 0.950 . S
H194 C170 0.950 . S
H195 C171 0.949 . S
H196 C173 0.950 . S
H197 C175 0.950 . S
C198 C199 1.349 . S
C198 C200 1.327 . S
C198 H223 0.950 . S
C199 C198 1.349 . S
C199 C215 1.349 . S
C200 C198 1.327 . S
C200 C219 1.429 . S
C200 H224 0.950 . S
C201 C218 1.574 . S
C201 C220 1.368 1_655 S
C201 H225 0.949 . S
H202 C206 0.949 . S
C203 C204 1.349 . S
C203 C205 1.327 . S
C203 H226 0.950 . S
C204 C203 1.349 . S
C204 C216 1.349 . S
C205 C203 1.327 . S
C205 C221 1.429 . S
C205 H227 0.950 . S
C206 H202 0.949 . S
C206 C214 1.574 . S
C206 C222 1.368 1_455 S
H207 C215 0.950 . S
H208 C213 0.950 1_655 S
H209 C214 0.949 . S
H210 C216 0.950 . S
H211 C217 0.950 1_455 S
H212 C218 0.949 . S
C213 H208 0.950 1_455 S
C213 C215 1.327 . S
C213 C219 1.429 . S
C214 C206 1.574 . S
C214 H209 0.949 . S
C214 C220 1.368 . S
C215 C199 1.349 . S
C215 H207 0.950 . S
C215 C213 1.327 . S
C216 C204 1.349 . S
C216 H210 0.950 . S
C216 C217 1.327 . S
C217 H211 0.950 1_655 S
C217 C216 1.327 . S
C217 C221 1.429 . S
C218 C201 1.574 . S
C218 H212 0.949 . S
C218 C222 1.368 . S
C219 C200 1.429 . S
C219 C213 1.429 . S
C219 C220 1.523 . S
C220 C201 1.368 1_455 S
C220 C214 1.368 . S
C220 C219 1.523 . S
C221 C205 1.429 . S
C221 C217 1.429 . S
C221 C222 1.523 . S
C222 C206 1.368 1_655 S
C222 C218 1.368 . S
C222 C221 1.523 . S
H223 C198 0.950 . S
H224 C200 0.950 . S
H225 C201 0.949 . S
H226 C203 0.950 . S
H227 C205 0.950 . S
C228 C229 1.349 . S
C228 C230 1.327 . S
C228 H253 0.950 . S
C229 C228 1.349 . S
C229 C245 1.349 . S
C230 C228 1.327 . S
C230 C249 1.429 . S
C230 H254 0.950 . S
C231 C248 1.574 . S
C231 C250 1.368 1_565 S
C231 H255 0.949 . S
H232 C236 0.949 . S
C233 C234 1.349 . S
C233 C235 1.327 . S
C233 H256 0.950 . S
C234 C233 1.349 . S
C234 C246 1.349 . S
C235 C233 1.327 . S
C235 C251 1.429 . S
C235 H257 0.950 . S
C236 H232 0.949 . S
C236 C244 1.574 . S
C236 C252 1.368 1_545 S
H237 C245 0.950 . S
H238 C243 0.950 . S
H239 C244 0.949 . S
H240 C246 0.950 . S
H241 C247 0.950 . S
H242 C248 0.949 . S
C243 H238 0.950 . S
C243 C245 1.327 . S
C243 C249 1.429 . S
C244 C236 1.574 . S
C244 H239 0.949 . S
C244 C250 1.368 . S
C245 C229 1.349 . S
C245 H237 0.950 . S
C245 C243 1.327 . S
C246 C234 1.349 . S
C246 H240 0.950 . S
C246 C247 1.327 . S
C247 H241 0.950 . S
C247 C246 1.327 . S
C247 C251 1.429 . S
C248 C231 1.574 . S
C248 H242 0.949 . S
C248 C252 1.368 . S
C249 C230 1.429 . S
C249 C243 1.429 . S
C249 C250 1.523 . S
C250 C231 1.368 1_545 S
C250 C244 1.368 . S
C250 C249 1.523 . S
C251 C235 1.429 . S
C251 C247 1.429 . S
C251 C252 1.523 . S
C252 C236 1.368 1_565 S
C252 C248 1.368 . S
C252 C251 1.523 . S
H253 C228 0.950 . S
H254 C230 0.950 . S
H255 C231 0.949 . S
H256 C233 0.950 . S
H257 C235 0.950 . S
C258 C259 1.349 . S
C258 C260 1.327 . S
C258 H283 0.950 1_554 S
C259 C258 1.349 . S
C259 C275 1.349 . S
C260 C258 1.327 . S
C260 C279 1.429 . S
C260 H284 0.950 1_554 S
C261 C278 1.574 . S
C261 C280 1.368 . S
C261 H285 0.949 . S
H262 C266 0.949 1_556 S
C263 C264 1.349 . S
C263 C265 1.327 . S
C263 H286 0.950 . S
C264 C263 1.349 . S
C264 C276 1.349 . S
C265 C263 1.327 . S
C265 C281 1.429 . S
C265 H287 0.950 . S
C266 H262 0.949 1_554 S
C266 C274 1.574 . S
C266 C282 1.368 . S
H267 C275 0.950 . S
H268 C273 0.950 . S
H269 C274 0.949 1_556 S
H270 C276 0.950 1_556 S
H271 C277 0.950 1_556 S
H272 C278 0.949 . S
C273 H268 0.950 . S
C273 C275 1.327 . S
C273 C279 1.429 . S
C274 C266 1.574 . S
C274 H269 0.949 1_554 S
C274 C280 1.368 . S
C275 C259 1.349 . S
C275 H267 0.950 . S
C275 C273 1.327 . S
C276 C264 1.349 . S
C276 H270 0.950 1_554 S
C276 C277 1.327 . S
C277 H271 0.950 1_554 S
C277 C276 1.327 . S
C277 C281 1.429 . S
C278 C261 1.574 . S
C278 H272 0.949 . S
C278 C282 1.368 . S
C279 C260 1.429 . S
C279 C273 1.429 . S
C279 C280 1.523 . S
C280 C261 1.368 . S
C280 C274 1.368 . S
C280 C279 1.523 . S
C281 C265 1.429 . S
C281 C277 1.429 . S
C281 C282 1.523 . S
C282 C266 1.368 . S
C282 C278 1.368 . S
C282 C281 1.523 . S
H283 C258 0.950 1_556 S
H284 C260 0.950 1_556 S
H285 C261 0.949 . S
H286 C263 0.950 . S
H287 C265 0.950 . S
C288 C289 1.349 . S
C288 C290 1.327 . S
C288 H313 0.950 . S
C289 C288 1.349 . S
C289 C305 1.349 . S
C290 C288 1.327 . S
C290 C309 1.429 . S
C290 H314 0.950 . S
C291 C308 1.574 . S
C291 C310 1.368 . S
C291 H315 0.949 . S
H292 C296 0.949 . S
C293 C294 1.349 . S
C293 C295 1.327 . S
C293 H316 0.950 . S
C294 C293 1.349 . S
C294 C306 1.349 . S
C295 C293 1.327 . S
C295 C311 1.429 . S
C295 H317 0.950 . S
C296 H292 0.949 . S
C296 C304 1.574 . S
C296 C312 1.368 . S
H297 C305 0.950 . S
H298 C303 0.950 . S
H299 C304 0.949 . S
H300 C306 0.950 . S
H301 C307 0.950 . S
H302 C308 0.949 . S
C303 H298 0.950 . S
C303 C305 1.327 . S
C303 C309 1.429 . S
C304 C296 1.574 . S
C304 H299 0.949 . S
C304 C310 1.368 1_455 S
C305 C289 1.349 . S
C305 H297 0.950 . S
C305 C303 1.327 . S
C306 C294 1.349 . S
C306 H300 0.950 . S
C306 C307 1.327 . S
C307 H301 0.950 . S
C307 C306 1.327 . S
C307 C311 1.429 . S
C308 C291 1.574 . S
C308 H302 0.949 . S
C308 C312 1.368 1_655 S
C309 C290 1.429 . S
C309 C303 1.429 . S
C309 C310 1.523 . S
C310 C291 1.368 . S
C310 C304 1.368 1_655 S
C310 C309 1.523 . S
C311 C295 1.429 . S
C311 C307 1.429 . S
C311 C312 1.523 . S
C312 C296 1.368 . S
C312 C308 1.368 1_455 S
C312 C311 1.523 . S
H313 C288 0.950 . S
H314 C290 0.950 . S
H315 C291 0.949 . S
H316 C293 0.950 . S
H317 C295 0.950 . S
C318 C319 1.349 . S
C318 C320 1.327 . S
C318 H343 0.950 . S
C319 C318 1.349 . S
C319 C335 1.349 . S
C320 C318 1.327 . S
C320 C339 1.429 . S
C320 H344 0.950 . S
C321 C338 1.574 . S
C321 C340 1.368 . S
C321 H345 0.949 . S
H322 C326 0.949 . S
C323 C324 1.349 . S
C323 C325 1.327 . S
C323 H346 0.950 . S
C324 C323 1.349 . S
C324 C336 1.349 . S
C325 C323 1.327 . S
C325 C341 1.429 . S
C325 H347 0.950 . S
C326 H322 0.949 . S
C326 C334 1.574 . S
C326 C342 1.368 . S
H327 C335 0.950 . S
H328 C333 0.950 . S
H329 C334 0.949 . S
H330 C336 0.950 . S
H331 C337 0.950 . S
H332 C338 0.949 . S
C333 H328 0.950 . S
C333 C335 1.327 . S
C333 C339 1.429 . S
C334 C326 1.574 . S
C334 H329 0.949 . S
C334 C340 1.368 1_565 S
C335 C319 1.349 . S
C335 H327 0.950 . S
C335 C333 1.327 . S
C336 C324 1.349 . S
C336 H330 0.950 . S
C336 C337 1.327 . S
C337 H331 0.950 . S
C337 C336 1.327 . S
C337 C341 1.429 . S
C338 C321 1.574 . S
C338 H332 0.949 . S
C338 C342 1.368 1_545 S
C339 C320 1.429 . S
C339 C333 1.429 . S
C339 C340 1.523 . S
C340 C321 1.368 . S
C340 C334 1.368 1_545 S
C340 C339 1.523 . S
C341 C325 1.429 . S
C341 C337 1.429 . S
C341 C342 1.523 . S
C342 C326 1.368 . S
C342 C338 1.368 1_565 S
C342 C341 1.523 . S
H343 C318 0.950 . S
H344 C320 0.950 . S
H345 C321 0.949 . S
H346 C323 0.950 . S
H347 C325 0.950 . S
C348 C349 1.349 . S
C348 C350 1.327 . S
C348 H373 0.950 . S
C349 C348 1.349 . S
C349 C365 1.349 . S
C350 C348 1.327 . S
C350 C369 1.429 . S
C350 H374 0.950 . S
C351 C368 1.574 . S
C351 C370 1.368 . S
C351 H375 0.949 . S
H352 C356 0.949 . S
C353 C354 1.349 . S
C353 C355 1.327 . S
C353 H376 0.950 . S
C354 C353 1.349 . S
C354 C366 1.349 . S
C355 C353 1.327 . S
C355 C371 1.429 . S
C355 H377 0.950 . S
C356 H352 0.949 . S
C356 C364 1.574 . S
C356 C372 1.368 . S
H357 C365 0.950 . S
H358 C363 0.950 . S
H359 C364 0.949 . S
H360 C366 0.950 . S
H361 C367 0.950 . S
H362 C368 0.949 . S
C363 H358 0.950 . S
C363 C365 1.327 . S
C363 C369 1.429 . S
C364 C356 1.574 . S
C364 H359 0.949 . S
C364 C370 1.368 . S
C365 C349 1.349 . S
C365 H357 0.950 . S
C365 C363 1.327 . S
C366 C354 1.349 . S
C366 H360 0.950 . S
C366 C367 1.327 . S
C367 H361 0.950 . S
C367 C366 1.327 . S
C367 C371 1.429 . S
C368 C351 1.574 . S
C368 H362 0.949 . S
C368 C372 1.368 . S
C369 C350 1.429 . S
C369 C363 1.429 . S
C369 C370 1.523 . S
C370 C351 1.368 . S
C370 C364 1.368 . S
C370 C369 1.523 . S
C371 C355 1.429 . S
C371 C367 1.429 . S
C371 C372 1.523 . S
C372 C356 1.368 . S
C372 C368 1.368 . S
C372 C371 1.523 . S
H373 C348 0.950 . S
H374 C350 0.950 . S
H375 C351 0.949 . S
H376 C353 0.950 . S
H377 C355 0.950 . S
C378 C379 1.349 . S
C378 C380 1.327 . S
C378 H403 0.950 . S
C379 C378 1.349 . S
C379 C395 1.349 1_554 S
C380 C378 1.327 . S
C380 C399 1.429 . S
C380 H404 0.950 . S
C381 C398 1.574 . S
C381 C400 1.368 1_456 S
C381 H405 0.949 . S
H382 C386 0.949 . S
C383 C384 1.349 1_556 S
C383 C385 1.327 . S
C383 H406 0.950 . S
C384 C383 1.349 1_554 S
C384 C396 1.349 . S
C385 C383 1.327 . S
C385 C401 1.429 1_556 S
C385 H407 0.950 . S
C386 H382 0.949 . S
C386 C394 1.574 . S
C386 C402 1.368 1_655 S
H387 C395 0.950 . S
H388 C393 0.950 . S
H389 C394 0.949 . S
H390 C396 0.950 . S
H391 C397 0.950 . S
H392 C398 0.949 . S
C393 H388 0.950 . S
C393 C395 1.327 . S
C393 C399 1.429 1_556 S
C394 C386 1.574 . S
C394 H389 0.949 . S
C394 C400 1.368 . S
C395 C379 1.349 1_556 S
C395 H387 0.950 . S
C395 C393 1.327 . S
C396 C384 1.349 . S
C396 H390 0.950 . S
C396 C397 1.327 . S
C397 H391 0.950 . S
C397 C396 1.327 . S
C397 C401 1.429 . S
C398 C381 1.574 . S
C398 H392 0.949 . S
C398 C402 1.368 1_556 S
C399 C380 1.429 . S
C399 C393 1.429 1_554 S
C399 C400 1.523 . S
C400 C381 1.368 1_654 S
C400 C394 1.368 . S
C400 C399 1.523 . S
C401 C385 1.429 1_554 S
C401 C397 1.429 . S
C401 C402 1.523 . S
C402 C386 1.368 1_455 S
C402 C398 1.368 1_554 S
C402 C401 1.523 . S
H403 C378 0.950 . S
H404 C380 0.950 . S
H405 C381 0.949 . S
H406 C383 0.950 . S
H407 C385 0.950 . S
C408 C409 1.349 . S
C408 C410 1.327 . S
C408 H433 0.950 . S
C409 C408 1.349 . S
C409 C425 1.349 . S
C410 C408 1.327 . S
C410 C429 1.429 . S
C410 H434 0.950 . S
C411 C428 1.574 . S
C411 C430 1.368 . S
C411 H435 0.949 . S
H412 C416 0.949 . S
C413 C414 1.349 . S
C413 C415 1.327 . S
C413 H436 0.950 . S
C414 C413 1.349 . S
C414 C426 1.349 . S
C415 C413 1.327 . S
C415 C431 1.429 . S
C415 H437 0.950 . S
C416 H412 0.949 . S
C416 C424 1.574 . S
C416 C432 1.368 . S
H417 C425 0.950 . S
H418 C423 0.950 . S
H419 C424 0.949 . S
H420 C426 0.950 . S
H421 C427 0.950 . S
H422 C428 0.949 . S
C423 H418 0.950 . S
C423 C425 1.327 . S
C423 C429 1.429 . S
C424 C416 1.574 . S
C424 H419 0.949 . S
C424 C430 1.368 1_565 S
C425 C409 1.349 . S
C425 H417 0.950 . S
C425 C423 1.327 . S
C426 C414 1.349 . S
C426 H420 0.950 . S
C426 C427 1.327 . S
C427 H421 0.950 . S
C427 C426 1.327 . S
C427 C431 1.429 . S
C428 C411 1.574 . S
C428 H422 0.949 . S
C428 C432 1.368 1_545 S
C429 C410 1.429 . S
C429 C423 1.429 . S
C429 C430 1.523 . S
C430 C411 1.368 . S
C430 C424 1.368 1_545 S
C430 C429 1.523 . S
C431 C415 1.429 . S
C431 C427 1.429 . S
C431 C432 1.523 . S
C432 C416 1.368 . S
C432 C428 1.368 1_565 S
C432 C431 1.523 . S
H433 C408 0.950 . S
H434 C410 0.950 . S
H435 C411 0.949 . S
H436 C413 0.950 . S
H437 C415 0.950 . S
C79 C69 1.265 . S
C84 C3 1.267 . S
C109 C16 1.267 . S
C114 C10 1.265 . S
C139 C23 1.265 . S
C144 C31 1.267 . S
C169 C42 1.267 . S
C174 C30 1.265 . S
C199 C57 1.267 . S
C204 C49 1.265 . S
C229 C70 1.267 . S
C234 C56 1.265 . S
C259 C5 1.408 . S
C264 C44 1.408 . S
C289 C18 1.408 . S
C294 C55 1.408 . S
C319 C68 1.408 . S
C324 C29 1.408 . S
C349 C75 1.379 . S
C354 C36 1.379 . S
C379 C43 1.379 . S
C384 C4 1.379 . S
C409 C17 1.379 . S
C414 C62 1.379 . S
