# Generated by pormake.
# Topology uoj, (4)-cn, num edge types: 1
# Building blocks:
#     Node 0, Type 0, BuildingBlock: CEKHIL_clean_sbu_0, # of connection points: 4
#     Node 1, Type 0, BuildingBlock: CEKHIL_clean_sbu_0, # of connection points: 4
#     Node 2, Type 0, BuildingBlock: CEKHIL_clean_sbu_0, # of connection points: 4
#     Node 3, Type 0, BuildingBlock: CEKHIL_clean_sbu_0, # of connection points: 4
#     Node 4, Type 0, BuildingBlock: CEKHIL_clean_sbu_0, # of connection points: 4
#     Node 5, Type 0, BuildingBlock: CEKHIL_clean_sbu_0, # of connection points: 4
#     Node 6, Type 0, BuildingBlock: CEKHIL_clean_sbu_0, # of connection points: 4
#     Node 7, Type 0, BuildingBlock: CEKHIL_clean_sbu_0, # of connection points: 4
#     Edge 8, Type (0, 0), BuildingBlock: EZIPEK_clean_linker_0, # of connection points: 2
#     Edge 9, Type (0, 0), BuildingBlock: EZIPEK_clean_linker_0, # of connection points: 2
#     Edge 10, Type (0, 0), BuildingBlock: EZIPEK_clean_linker_0, # of connection points: 2
#     Edge 11, Type (0, 0), BuildingBlock: EZIPEK_clean_linker_0, # of connection points: 2
#     Edge 12, Type (0, 0), BuildingBlock: EZIPEK_clean_linker_0, # of connection points: 2
#     Edge 13, Type (0, 0), BuildingBlock: EZIPEK_clean_linker_0, # of connection points: 2
#     Edge 14, Type (0, 0), BuildingBlock: EZIPEK_clean_linker_0, # of connection points: 2
#     Edge 15, Type (0, 0), BuildingBlock: EZIPEK_clean_linker_0, # of connection points: 2
#     Edge 16, Type (0, 0), BuildingBlock: EZIPEK_clean_linker_0, # of connection points: 2
#     Edge 17, Type (0, 0), BuildingBlock: EZIPEK_clean_linker_0, # of connection points: 2
#     Edge 18, Type (0, 0), BuildingBlock: EZIPEK_clean_linker_0, # of connection points: 2
#     Edge 19, Type (0, 0), BuildingBlock: EZIPEK_clean_linker_0, # of connection points: 2
#     Edge 20, Type (0, 0), BuildingBlock: EZIPEK_clean_linker_0, # of connection points: 2
#     Edge 21, Type (0, 0), BuildingBlock: EZIPEK_clean_linker_0, # of connection points: 2
#     Edge 22, Type (0, 0), BuildingBlock: EZIPEK_clean_linker_0, # of connection points: 2
#     Edge 23, Type (0, 0), BuildingBlock: EZIPEK_clean_linker_0, # of connection points: 2
# Relax obj value: 0.110
# Max RMSD: 0.136
# Mean RMSD: 0.133
data_MOF--net-uoj--node1-CEKHIL_clean_sbu_0--edge1-EZIPEK_clean_linker_0
_symmetry_space_group_name_H-M    P1
_symmetry_Int_Tables_number       1
_symmetry_cell_setting            triclinic
loop_
_symmetry_equiv_pos_as_xyz
'x, y, z'
_cell_length_a     24.19669
_cell_length_b     23.815432
_cell_length_c     25.908282
_cell_angle_alpha  90.149712
_cell_angle_beta   90.112699
_cell_angle_gamma 88.05992
loop_
_atom_site_label
_atom_site_type_symbol
_atom_site_fract_x
_atom_site_fract_y
_atom_site_fract_z
_atom_type_partial_charge
Co0 Co 0.05478 0.2776 0.39132 0.0
O1 O 0.11102 0.30684 0.34797 0.0
O2 O 0.024 0.29588 0.32426 0.0
C3 C 0.1074 0.206 0.42298 0.0
O4 O 0.98579 0.24735 0.42472 0.0
Co5 Co 0.07036 0.27373 0.5106 0.0
O6 O 0.00426 0.22689 0.50787 0.0
C7 C 0.039 0.38066 0.45973 0.0
C8 C 0.0732 0.31226 0.31259 0.0
C9 C 0.97275 0.22612 0.46843 0.0
O10 O 0.0341 0.35542 0.41619 0.0
O11 O 0.05654 0.35661 0.50104 0.0
O12 O 0.0832 0.20076 0.37843 0.0
O13 O 0.10271 0.2548 0.44439 0.0
Co14 Co 0.28441 0.94232 0.58205 0.0
O15 O 0.2151 0.907 0.57404 0.0
O16 O 0.28557 0.89778 0.51938 0.0
C17 C 0.29663 0.92035 0.6665 0.0
O18 O 0.3632 0.96984 0.58014 0.0
Co19 Co 0.28981 0.04512 0.65234 0.0
O20 O 0.37045 0.03433 0.64319 0.0
C21 C 0.23331 0.05685 0.55423 0.0
C22 C 0.23522 0.88576 0.53175 0.0
C23 C 0.39187 0.00218 0.60877 0.0
O24 O 0.25432 0.00869 0.54147 0.0
O25 O 0.23843 0.07817 0.59916 0.0
O26 O 0.31 0.88509 0.62991 0.0
O27 O 0.27097 0.96604 0.651 0.0
Co28 Co 0.95429 0.72084 0.40707 0.0
O29 O 0.89104 0.69295 0.37084 0.0
O30 O 0.9733 0.7042 0.33606 0.0
C31 C 0.90812 0.79232 0.44744 0.0
O32 O 0.02871 0.75054 0.42939 0.0
Co33 Co 0.96124 0.72299 0.52673 0.0
O34 O 0.02951 0.7651 0.51515 0.0
C35 C 0.97658 0.61587 0.47158 0.0
C36 C 0.92259 0.68889 0.33037 0.0
C37 C 0.05165 0.76854 0.47073 0.0
O38 O 0.97769 0.64201 0.42817 0.0
O39 O 0.96547 0.63973 0.51478 0.0
O40 O 0.92459 0.79823 0.40004 0.0
O41 O 0.91633 0.74315 0.46717 0.0
Co42 Co 0.73618 0.06483 0.599 0.0
O43 O 0.80586 0.09997 0.59312 0.0
O44 O 0.73967 0.1029 0.53336 0.0
C45 C 0.71348 0.09261 0.67982 0.0
O46 O 0.65831 0.03554 0.59452 0.0
Co47 Co 0.7299 0.96701 0.67765 0.0
O48 O 0.65165 0.96812 0.65505 0.0
C49 C 0.78951 0.94779 0.5818 0.0
C50 C 0.78882 0.11674 0.54807 0.0
C51 C 0.63043 -7e-05 0.62021 0.0
O52 O 0.76885 0.99474 0.5653 0.0
O53 O 0.78367 0.93063 0.62809 0.0
O54 O 0.70733 0.12682 0.64113 0.0
O55 O 0.74189 0.04682 0.66931 0.0
Co56 Co 0.41061 0.79811 0.93361 0.0
O57 O 0.35208 0.83933 0.899 0.0
O58 O 0.43608 0.82325 0.86684 0.0
C59 C 0.35996 0.72488 0.95683 0.0
O60 O 0.47998 0.75517 0.95938 0.0
Co61 Co 0.39916 0.78157 0.05236 0.0
O62 O 0.46894 0.73677 0.04426 0.0
C63 C 0.43638 0.889 0.01285 0.0
C64 C 0.38604 0.84417 0.86088 0.0
C65 C 0.49661 0.73322 0.00251 0.0
O66 O 0.43661 0.86866 0.96695 0.0
O67 O 0.41846 0.86304 0.05229 0.0
O68 O 0.37984 0.72832 0.9106 0.0
O69 O 0.36552 0.76911 0.98542 0.0
Co70 Co 0.78729 0.57523 0.06644 0.0
O71 O 0.82002 0.63859 0.10002 0.0
O72 O 0.81785 0.55278 0.1323 0.0
C73 C 0.70846 0.62193 0.04238 0.0
O74 O 0.75609 0.49986 0.04587 0.0
Co75 Co 0.7599 0.57375 0.9494 0.0
O76 O 0.71828 0.5061 0.96678 0.0
C77 C 0.87382 0.54637 0.98454 0.0
C78 C 0.83152 0.60473 0.13809 0.0
C79 C 0.72782 0.47947 0.0086 0.0
O80 O 0.85897 0.55324 0.03179 0.0
O81 O 0.84145 0.55447 0.94592 0.0
O82 O 0.71446 0.60255 0.08898 0.0
O83 O 0.75147 0.61613 0.01303 0.0
Co84 Co 0.57338 0.19992 0.94659 0.0
O85 O 0.63767 0.1655 0.91386 0.0
O86 O 0.55595 0.17762 0.87676 0.0
C87 C 0.61807 0.27398 0.97975 0.0
O88 O 0.49834 0.23593 0.96571 0.0
Co89 Co 0.56501 0.21144 0.06375 0.0
O90 O 0.49359 0.25201 0.05107 0.0
C91 C 0.53862 0.10407 0.0163 0.0
C92 C 0.6074 0.16046 0.87285 0.0
C93 C 0.47295 0.25513 0.006 0.0
O94 O 0.54876 0.125 0.97187 0.0
O95 O 0.54522 0.13048 0.05874 0.0
O96 O 0.60086 0.27366 0.93231 0.0
O97 O 0.61226 0.22762 0.00512 0.0
Co98 Co 0.19027 0.42628 0.04454 0.0
O99 O 0.15611 0.36572 0.08019 0.0
O100 O 0.16561 0.4514 0.11162 0.0
C101 C 0.26515 0.37554 0.01698 0.0
O102 O 0.2257 0.49847 0.02271 0.0
Co103 Co 0.20478 0.42587 0.92771 0.0
O104 O 0.24715 0.49456 0.93851 0.0
C105 C 0.09617 0.45567 0.96933 0.0
C106 C 0.14908 0.40059 0.11842 0.0
C107 C 0.24757 0.51897 0.98216 0.0
O108 O 0.11695 0.45188 0.01479 0.0
O109 O 0.12323 0.44371 0.92826 0.0
O110 O 0.26271 0.39637 0.0633 0.0
O111 O 0.22027 0.38124 0.98964 0.0
C112 C 0.08069 0.34477 0.16827 0.0
C113 C 0.12518 0.38222 0.16814 0.0
C114 C 0.12163 0.38517 0.26231 0.0
C115 C 0.08615 0.33894 0.26248 0.0
N116 N 0.03902 0.26829 0.2132 0.0
N117 N 0.19655 0.42748 0.21758 0.0
C118 C 0.06717 0.31701 0.21483 0.0
C119 C 0.14796 0.39991 0.21582 0.0
N120 N 0.05016 0.33689 0.1246 0.0
N121 N 0.12929 0.41605 0.30611 0.0
H122 H 0.22057 0.43493 0.18518 0.0
H123 H 0.21644 0.4366 0.2522 0.0
H124 H 0.10774 0.40914 0.34023 0.0
H125 H 0.15157 0.45278 0.30641 0.0
H126 H 0.01449 0.31353 0.12419 0.0
H127 H 0.05645 0.35914 0.09063 0.0
H128 H 0.02921 0.24833 0.17867 0.0
H129 H 0.03062 0.2446 0.2458 0.0
C130 C 0.32591 0.9442 0.7592 0.0
C131 C 0.30816 0.90477 0.72171 0.0
C132 C 0.34495 0.82697 0.77466 0.0
C133 C 0.36501 0.86591 0.81093 0.0
N134 N 0.37076 0.96068 0.84202 0.0
N135 N 0.27873 0.81057 0.7068 0.0
C136 C 0.35437 0.92441 0.8044 0.0
C137 C 0.31119 0.84663 0.7334 0.0
N138 N 0.31551 0.00018 0.75186 0.0
N139 N 0.35853 0.77102 0.77926 0.0
H140 H 0.24976 0.82464 0.67942 0.0
H141 H 0.27525 0.7684 0.71641 0.0
H142 H 0.38306 0.75468 0.80913 0.0
H143 H 0.3498 0.74155 0.75085 0.0
H144 H 0.33514 0.03177 0.77186 0.0
H145 H 0.28415 0.01495 0.72761 0.0
H146 H 0.36019 0.00334 0.84303 0.0
H147 H 0.39466 0.94749 0.87358 0.0
C148 C 0.86618 0.61992 0.28087 0.0
C149 C 0.9017 0.66616 0.28054 0.0
C150 C 0.89943 0.66449 0.18585 0.0
C151 C 0.85659 0.62512 0.18697 0.0
N152 N 0.78919 0.57755 0.23868 0.0
N153 N 0.9419 0.74069 0.23116 0.0
C154 C 0.83706 0.60614 0.23534 0.0
C155 C 0.91567 0.69082 0.23258 0.0
N156 N 0.86188 0.58735 0.32383 0.0
N157 N 0.92625 0.67535 0.14081 0.0
H158 H 0.95144 0.76353 0.26415 0.0
H159 H 0.9483 0.76247 0.19695 0.0
H160 H 0.91815 0.65449 0.10633 0.0
H161 H 0.96094 0.70009 0.13922 0.0
H162 H 0.83984 0.55048 0.32426 0.0
H163 H 0.88614 0.59307 0.35651 0.0
H164 H 0.77149 0.56725 0.27394 0.0
H165 H 0.76355 0.57043 0.20715 0.0
C166 C 0.61459 0.16255 0.77547 0.0
C167 C 0.63166 0.1389 0.82336 0.0
C168 C 0.70558 0.08548 0.77803 0.0
C169 C 0.68388 0.10401 0.72968 0.0
N170 N 0.60267 0.14268 0.68529 0.0
N171 N 0.68302 0.06364 0.86647 0.0
C172 C 0.63376 0.13715 0.72916 0.0
C173 C 0.67397 0.09591 0.8236 0.0
N174 N 0.58281 0.21101 0.77331 0.0
N175 N 0.75715 0.0607 0.78157 0.0
H176 H 0.65826 0.067 0.8993 0.0
H177 H 0.71051 0.02896 0.86678 0.0
H178 H 0.78367 0.05543 0.75025 0.0
H179 H 0.77595 0.05129 0.81689 0.0
H180 H 0.57347 0.23125 0.73856 0.0
H181 H 0.57212 0.23495 0.80568 0.0
H182 H 0.56392 0.16326 0.68496 0.0
H183 H 0.61133 0.12006 0.65166 0.0
C184 C 0.14952 0.07502 0.49905 0.0
C185 C 0.20339 0.09016 0.51445 0.0
C186 C 0.19846 0.17124 0.45654 0.0
C187 C 0.14195 0.16094 0.44723 0.0
N188 N 0.06271 0.10372 0.45847 0.0
N189 N 0.28036 0.15151 0.50841 0.0
C190 C 0.11743 0.11238 0.46734 0.0
C191 C 0.22838 0.13779 0.49306 0.0
N192 N 0.12895 0.02524 0.51517 0.0
N193 N 0.22369 0.21216 0.42915 0.0
H194 H 0.30491 0.12607 0.53259 0.0
H195 H 0.29834 0.18931 0.49934 0.0
H196 H 0.20299 0.23637 0.40118 0.0
H197 H 0.26596 0.21877 0.43037 0.0
H198 H 0.0928 0.0086 0.50076 0.0
H199 H 0.14998 0.99827 0.54065 0.0
H200 H 0.0401 0.07355 0.47729 0.0
H201 H 0.03896 0.12875 0.43353 0.0
C202 C 0.19553 0.79257 0.51571 0.0
C203 C 0.20099 0.84898 0.50018 0.0
C204 C 0.11735 0.84447 0.44706 0.0
C205 C 0.10814 0.79084 0.46845 0.0
N206 N 0.14748 0.7057 0.50394 0.0
N207 N 0.1775 0.92447 0.44203 0.0
C208 C 0.15048 0.7622 0.4966 0.0
C209 C 0.16543 0.87339 0.46227 0.0
N210 N 0.23187 0.76924 0.55066 0.0
N211 N 0.07944 0.86795 0.41375 0.0
H212 H 0.21288 0.9456 0.45265 0.0
H213 H 0.15485 0.94467 0.41299 0.0
H214 H 0.04682 0.84547 0.3988 0.0
H215 H 0.08008 0.90905 0.40043 0.0
H216 H 0.22641 0.73069 0.56845 0.0
H217 H 0.26685 0.78981 0.56331 0.0
H218 H 0.17846 0.68091 0.52131 0.0
H219 H 0.11616 0.683 0.4869 0.0
C220 C 0.79294 0.86143 0.52641 0.0
C221 C 0.81882 0.91041 0.54437 0.0
C222 C 0.9022 0.88514 0.4945 0.0
C223 C 0.87609 0.83649 0.4761 0.0
N224 N 0.79329 0.78445 0.46481 0.0
N225 N 0.89384 0.97438 0.53981 0.0
C226 C 0.82043 0.8264 0.48932 0.0
C227 C 0.87205 0.92415 0.52633 0.0
N228 N 0.7422 0.84817 0.54516 0.0
N229 N 0.95668 0.89249 0.48372 0.0
H230 H 0.87446 0.0026 0.56536 0.0
H231 H 0.92932 0.98998 0.52323 0.0
H232 H 0.97923 0.86541 0.45961 0.0
H233 H 0.98043 0.9231 0.5008 0.0
H234 H 0.72417 0.80969 0.53881 0.0
H235 H 0.71902 0.87455 0.56967 0.0
H236 H 0.75115 0.77817 0.46863 0.0
H237 H 0.81187 0.75877 0.43666 0.0
C238 C 0.85606 0.12536 0.47548 0.0
C239 C 0.82474 0.15093 0.51587 0.0
C240 C 0.88198 0.23341 0.51377 0.0
C241 C 0.91624 0.20586 0.47639 0.0
N242 N 0.92596 0.13578 0.40943 0.0
N243 N 0.7967 0.23385 0.56328 0.0
C244 C 0.89983 0.1552 0.45294 0.0
C245 C 0.83403 0.20674 0.53153 0.0
N246 N 0.84589 0.07152 0.46078 0.0
N247 N 0.89643 0.28436 0.53315 0.0
H248 H 0.76099 0.21496 0.57623 0.0
H249 H 0.79828 0.27609 0.57332 0.0
H250 H 0.929 0.30685 0.51821 0.0
H251 H 0.87746 0.30381 0.56479 0.0
H252 H 0.87165 0.04772 0.43643 0.0
H253 H 0.81282 0.0494 0.4752 0.0
H254 H 0.91313 0.10139 0.38821 0.0
H255 H 0.95724 0.15743 0.39147 0.0
C256 C 0.24933 0.6235 0.99599 0.0
C257 C 0.2778 0.57153 0.98649 0.0
C258 C 0.36153 0.61989 0.9638 0.0
C259 C 0.33388 0.67258 0.97397 0.0
N260 N 0.25398 0.72406 0.00844 0.0
N261 N 0.36423 0.51952 0.97813 0.0
C262 C 0.27885 0.67423 0.99361 0.0
C263 C 0.33494 0.56958 0.97562 0.0
N264 N 0.19345 0.62466 0.00399 0.0
N265 N 0.41266 0.61735 0.94136 0.0
H266 H 0.34608 0.48208 0.98853 0.0
H267 H 0.40719 0.51617 0.97566 0.0
H268 H 0.43727 0.65198 0.93679 0.0
H269 H 0.43031 0.58049 0.92594 0.0
H270 H 0.16884 0.66136 0.00436 0.0
H271 H 0.17073 0.5884 0.007 0.0
H272 H 0.21688 0.72674 0.02872 0.0
H273 H 0.27161 0.7629 0.00368 0.0
C274 C 0.60529 0.61874 0.03253 0.0
C275 C 0.65487 0.64791 0.02446 0.0
C276 C 0.60044 0.73191 0.99703 0.0
C277 C 0.55104 0.70268 0.00536 0.0
N278 N 0.50536 0.61738 0.02707 0.0
N279 N 0.7005 0.72959 0.99226 0.0
C280 C 0.55327 0.6458 0.02194 0.0
C281 C 0.65269 0.70339 0.00398 0.0
N282 N 0.60805 0.56511 0.05122 0.0
N283 N 0.59747 0.78832 0.98679 0.0
H284 H 0.73975 0.71363 0.00174 0.0
H285 H 0.70165 0.76619 0.97048 0.0
H286 H 0.56032 0.81114 0.98192 0.0
H287 H 0.63144 0.81396 0.98703 0.0
H288 H 0.57457 0.54387 0.06562 0.0
H289 H 0.64484 0.54158 0.05341 0.0
H290 H 0.50358 0.57414 0.03179 0.0
H291 H 0.46625 0.63662 0.02436 0.0
C292 C 0.72788 0.38217 0.97197 0.0
C293 C 0.70995 0.42046 0.01113 0.0
C294 C 0.64005 0.355 0.03907 0.0
C295 C 0.65503 0.31887 0.99739 0.0
N296 N 0.72438 0.28806 0.93621 0.0
N297 N 0.66325 0.4344 0.09272 0.0
C298 C 0.70262 0.32939 0.9676 0.0
C299 C 0.67079 0.40395 0.04838 0.0
N300 N 0.76867 0.39669 0.93856 0.0
N301 N 0.5949 0.34404 0.06824 0.0
H302 H 0.6857 0.46965 0.10156 0.0
H303 H 0.63892 0.42156 0.12331 0.0
H304 H 0.57428 0.30676 0.06479 0.0
H305 H 0.57671 0.37257 0.09414 0.0
H306 H 0.77847 0.37441 0.905 0.0
H307 H 0.79183 0.43247 0.94352 0.0
H308 H 0.76171 0.29086 0.91666 0.0
H309 H 0.70776 0.24829 0.93383 0.0
C310 C 0.37298 0.25758 0.03114 0.0
C311 C 0.41608 0.27974 0.00091 0.0
C312 C 0.35056 0.35049 0.96567 0.0
C313 C 0.31136 0.33564 0.00326 0.0
N314 N 0.28234 0.27243 0.06956 0.0
N315 N 0.44734 0.35093 0.94246 0.0
C316 C 0.32159 0.28796 0.03499 0.0
C317 C 0.40514 0.32666 0.96828 0.0
N318 N 0.38083 0.20693 0.05532 0.0
N319 N 0.33549 0.38688 0.92726 0.0
H320 H 0.48826 0.33593 0.94425 0.0
H321 H 0.44263 0.38899 0.92294 0.0
H322 H 0.29503 0.40229 0.9233 0.0
H323 H 0.36098 0.39612 0.89627 0.0
H324 H 0.34932 0.18557 0.07318 0.0
H325 H 0.41803 0.18363 0.05403 0.0
H326 H 0.28976 0.2434 0.09895 0.0
H327 H 0.24233 0.29016 0.06977 0.0
C328 C 0.0451 0.53672 0.48589 0.0
C329 C 0.99083 0.55512 0.47191 0.0
C330 C 0.96617 0.45785 0.45487 0.0
C331 C 0.0224 0.44072 0.4627 0.0
N332 N 0.11729 0.46457 0.47722 0.0
N333 N 0.89873 0.53481 0.44387 0.0
C334 C 0.06243 0.48034 0.476 0.0
C335 C 0.95105 0.51609 0.45643 0.0
N336 N 0.07947 0.57263 0.51027 0.0
N337 N 0.92702 0.41831 0.44822 0.0
H338 H 0.8852 0.57655 0.44873 0.0
H339 H 0.86948 0.50987 0.42645 0.0
H340 H 0.93648 0.37531 0.44676 0.0
H341 H 0.88467 0.42742 0.44776 0.0
H342 H 0.11772 0.56015 0.52567 0.0
H343 H 0.06707 0.61348 0.52032 0.0
H344 H 0.14878 0.49303 0.48119 0.0
H345 H 0.13178 0.42369 0.46934 0.0
C346 C 0.53668 -0.00119 0.66003 0.0
C347 C 0.56938 7e-05 0.6146 0.0
C348 C 0.48432 0.00468 0.56258 0.0
C349 C 0.45299 0.99658 0.60805 0.0
N350 N 0.45288 0.96553 0.69666 0.0
N351 N 0.57398 0.9924 0.52158 0.0
C352 C 0.48032 0.98726 0.6557 0.0
C353 C 0.5432 -0.0003 0.56535 0.0
N354 N 0.55828 0.01126 0.70735 0.0
N355 N 0.45832 0.01887 0.51742 0.0
H356 H 0.61685 0.98631 0.52219 0.0
H357 H 0.55647 0.98675 0.48525 0.0
H358 H 0.41542 0.0232 0.51419 0.0
H359 H 0.47952 0.03079 0.48446 0.0
H360 H 0.53392 0.01555 0.74039 0.0
H361 H 0.59855 0.02411 0.71279 0.0
H362 H 0.47252 0.95398 0.73109 0.0
H363 H 0.41247 0.95228 0.69351 0.0
C364 C 0.54022 0.00164 0.0391 0.0
C365 C 0.51175 0.04921 0.01786 0.0
C366 C 0.43159 0.99243 0.99764 0.0
C367 C 0.45968 0.94509 0.01967 0.0
N368 N 0.53724 0.9044 0.06677 0.0
N369 N 0.42842 0.09288 0.98256 0.0
C370 C 0.51284 0.94976 0.04242 0.0
C371 C 0.45688 0.0454 0.9986 0.0
N372 N 0.59439 0.00553 0.05354 0.0
N373 N 0.38093 0.98629 0.97508 0.0
H374 H 0.44594 0.13214 0.98054 0.0
H375 H 0.38637 0.09464 0.97406 0.0
H376 H 0.35935 0.94916 0.97704 0.0
H377 H 0.361 0.01679 0.95244 0.0
H378 H 0.61976 0.97138 0.0642 0.0
H379 H 0.61561 0.04286 0.05145 0.0
H380 H 0.57309 0.90624 0.08884 0.0
H381 H 0.51986 0.86496 0.06774 0.0
C382 C 0.02664 0.53331 0.95092 0.0
C383 C 0.03827 0.47658 0.96514 0.0
C384 C 0.94158 0.46502 0.98916 0.0
C385 C 0.92976 0.52181 0.9749 0.0
N386 N 0.95747 0.6075 0.93464 0.0
N387 N 0.00679 0.38518 0.98775 0.0
C388 C 0.97118 0.55507 0.95304 0.0
C389 C 0.99561 0.44144 0.98126 0.0
N390 N 0.06909 0.56704 0.93795 0.0
N391 N 0.90127 0.43394 0.01104 0.0
H392 H 0.04606 0.36677 0.98202 0.0
H393 H 0.97677 0.35587 0.99465 0.0
H394 H 0.86022 0.44817 0.01442 0.0
H395 H 0.9087 0.39499 0.02827 0.0
H396 H 0.06471 0.61036 0.93343 0.0
H397 H 0.10994 0.55215 0.93438 0.0
H398 H 0.98417 0.63158 0.91321 0.0
H399 H 0.91788 0.62583 0.93794 0.0
loop_
_geom_bond_atom_site_label_1
_geom_bond_atom_site_label_2
_geom_bond_distance
_geom_bond_site_symmetry_2
_ccdc_geom_bond_type
Co0 O1 2.216 . S
Co0 O2 2.091 . S
Co0 O4 2.004 . S
Co0 O10 2.021 . S
Co0 O12 2.137 . S
Co0 O13 2.244 . S
O1 Co0 2.216 . S
O1 C8 1.247 . S
O2 Co0 2.091 . S
O2 C8 1.261 . S
C3 O12 1.247 . S
C3 O13 1.272 . S
O4 Co0 2.004 . S
O4 C9 1.259 1_455 S
Co5 O6 2.061 . S
Co5 O11 2.052 . S
Co5 O13 2.135 . S
O6 Co5 2.061 . S
O6 C9 1.235 1_455 S
C7 O10 1.238 . S
C7 O11 1.241 . S
C8 O1 1.247 . S
C8 O2 1.261 . S
C9 O4 1.259 1_655 S
C9 O6 1.235 1_655 S
O10 Co0 2.021 . S
O10 C7 1.238 . S
O11 Co5 2.052 . S
O11 C7 1.241 . S
O12 Co0 2.137 . S
O12 C3 1.247 . S
O13 Co0 2.244 . S
O13 C3 1.272 . S
O13 Co5 2.135 . S
Co14 O15 2.216 . S
Co14 O16 2.091 . S
Co14 O18 2.004 . S
Co14 O24 2.021 . S
Co14 O26 2.137 . S
Co14 O27 2.244 . S
O15 Co14 2.216 . S
O15 C22 1.247 . S
O16 Co14 2.091 . S
O16 C22 1.261 . S
C17 O26 1.247 . S
C17 O27 1.272 . S
O18 Co14 2.004 . S
O18 C23 1.259 . S
Co19 O20 2.061 1_545 S
Co19 O25 2.052 . S
Co19 O27 2.135 1_545 S
O20 Co19 2.061 1_565 S
O20 C23 1.235 . S
C21 O24 1.238 1_545 S
C21 O25 1.241 . S
C22 O15 1.247 . S
C22 O16 1.261 . S
C23 O18 1.259 . S
C23 O20 1.235 . S
O24 Co14 2.021 . S
O24 C21 1.238 1_565 S
O25 Co19 2.052 . S
O25 C21 1.241 . S
O26 Co14 2.137 . S
O26 C17 1.247 . S
O27 Co14 2.244 . S
O27 C17 1.272 . S
O27 Co19 2.135 1_565 S
Co28 O29 2.216 . S
Co28 O30 2.091 . S
Co28 O32 2.004 . S
Co28 O38 2.021 . S
Co28 O40 2.137 . S
Co28 O41 2.244 . S
O29 Co28 2.216 . S
O29 C36 1.247 . S
O30 Co28 2.091 . S
O30 C36 1.261 . S
C31 O40 1.247 . S
C31 O41 1.272 . S
O32 Co28 2.004 . S
O32 C37 1.259 1_655 S
Co33 O34 2.061 . S
Co33 O39 2.052 . S
Co33 O41 2.135 . S
O34 Co33 2.061 . S
O34 C37 1.235 1_655 S
C35 O38 1.238 . S
C35 O39 1.241 . S
C36 O29 1.247 . S
C36 O30 1.261 . S
C37 O32 1.259 1_455 S
C37 O34 1.235 1_455 S
O38 Co28 2.021 . S
O38 C35 1.238 . S
O39 Co33 2.052 . S
O39 C35 1.241 . S
O40 Co28 2.137 . S
O40 C31 1.247 . S
O41 Co28 2.244 . S
O41 C31 1.272 . S
O41 Co33 2.135 . S
Co42 O43 2.216 . S
Co42 O44 2.091 . S
Co42 O46 2.004 . S
Co42 O52 2.021 . S
Co42 O54 2.137 . S
Co42 O55 2.244 . S
O43 Co42 2.216 . S
O43 C50 1.247 . S
O44 Co42 2.091 . S
O44 C50 1.261 . S
C45 O54 1.247 . S
C45 O55 1.272 . S
O46 Co42 2.004 . S
O46 C51 1.259 . S
Co47 O48 2.061 1_565 S
Co47 O53 2.052 . S
Co47 O55 2.135 1_565 S
O48 Co47 2.061 1_545 S
O48 C51 1.235 . S
C49 O52 1.238 1_565 S
C49 O53 1.241 . S
C50 O43 1.247 . S
C50 O44 1.261 . S
C51 O46 1.259 . S
C51 O48 1.235 . S
O52 Co42 2.021 . S
O52 C49 1.238 1_545 S
O53 Co47 2.052 . S
O53 C49 1.241 . S
O54 Co42 2.137 . S
O54 C45 1.247 . S
O55 Co42 2.244 . S
O55 C45 1.272 . S
O55 Co47 2.135 1_545 S
Co56 O57 2.216 . S
Co56 O58 2.091 . S
Co56 O60 2.004 . S
Co56 O66 2.021 . S
Co56 O68 2.137 . S
Co56 O69 2.244 1_556 S
O57 Co56 2.216 . S
O57 C64 1.247 . S
O58 Co56 2.091 . S
O58 C64 1.261 . S
C59 O68 1.247 . S
C59 O69 1.272 1_556 S
O60 Co56 2.004 . S
O60 C65 1.259 . S
Co61 O62 2.061 . S
Co61 O67 2.052 . S
Co61 O69 2.135 . S
O62 Co61 2.061 . S
O62 C65 1.235 1_554 S
C63 O66 1.238 . S
C63 O67 1.241 1_556 S
C64 O57 1.247 . S
C64 O58 1.261 . S
C65 O60 1.259 . S
C65 O62 1.235 1_556 S
O66 Co56 2.021 . S
O66 C63 1.238 . S
O67 Co61 2.052 . S
O67 C63 1.241 1_554 S
O68 Co56 2.137 . S
O68 C59 1.247 . S
O69 Co56 2.244 1_554 S
O69 C59 1.272 1_554 S
O69 Co61 2.135 . S
Co70 O71 2.216 . S
Co70 O72 2.091 . S
Co70 O74 2.004 . S
Co70 O80 2.021 . S
Co70 O82 2.137 . S
Co70 O83 2.244 1_554 S
O71 Co70 2.216 . S
O71 C78 1.247 . S
O72 Co70 2.091 . S
O72 C78 1.261 . S
C73 O82 1.247 . S
C73 O83 1.272 1_554 S
O74 Co70 2.004 . S
O74 C79 1.259 . S
Co75 O76 2.061 . S
Co75 O81 2.052 . S
Co75 O83 2.135 . S
O76 Co75 2.061 . S
O76 C79 1.235 1_556 S
C77 O80 1.238 . S
C77 O81 1.241 1_554 S
C78 O71 1.247 . S
C78 O72 1.261 . S
C79 O74 1.259 . S
C79 O76 1.235 1_554 S
O80 Co70 2.021 . S
O80 C77 1.238 . S
O81 Co75 2.052 . S
O81 C77 1.241 1_556 S
O82 Co70 2.137 . S
O82 C73 1.247 . S
O83 Co70 2.244 1_556 S
O83 C73 1.272 1_556 S
O83 Co75 2.135 . S
Co84 O85 2.216 . S
Co84 O86 2.091 . S
Co84 O88 2.004 . S
Co84 O94 2.021 . S
Co84 O96 2.137 . S
Co84 O97 2.244 1_556 S
O85 Co84 2.216 . S
O85 C92 1.247 . S
O86 Co84 2.091 . S
O86 C92 1.261 . S
C87 O96 1.247 . S
C87 O97 1.272 1_556 S
O88 Co84 2.004 . S
O88 C93 1.259 . S
Co89 O90 2.061 . S
Co89 O95 2.052 . S
Co89 O97 2.135 . S
O90 Co89 2.061 . S
O90 C93 1.235 1_554 S
C91 O94 1.238 . S
C91 O95 1.241 1_556 S
C92 O85 1.247 . S
C92 O86 1.261 . S
C93 O88 1.259 . S
C93 O90 1.235 1_556 S
O94 Co84 2.021 . S
O94 C91 1.238 . S
O95 Co89 2.052 . S
O95 C91 1.241 1_554 S
O96 Co84 2.137 . S
O96 C87 1.247 . S
O97 Co84 2.244 1_554 S
O97 C87 1.272 1_554 S
O97 Co89 2.135 . S
Co98 O99 2.216 . S
Co98 O100 2.091 . S
Co98 O102 2.004 . S
Co98 O108 2.021 . S
Co98 O110 2.137 . S
Co98 O111 2.244 1_554 S
O99 Co98 2.216 . S
O99 C106 1.247 . S
O100 Co98 2.091 . S
O100 C106 1.261 . S
C101 O110 1.247 . S
C101 O111 1.272 1_554 S
O102 Co98 2.004 . S
O102 C107 1.259 . S
Co103 O104 2.061 . S
Co103 O109 2.052 . S
Co103 O111 2.135 . S
O104 Co103 2.061 . S
O104 C107 1.235 1_556 S
C105 O108 1.238 . S
C105 O109 1.241 1_554 S
C106 O99 1.247 . S
C106 O100 1.261 . S
C107 O102 1.259 . S
C107 O104 1.235 1_554 S
O108 Co98 2.021 . S
O108 C105 1.238 . S
O109 Co103 2.052 . S
O109 C105 1.241 1_556 S
O110 Co98 2.137 . S
O110 C101 1.247 . S
O111 Co98 2.244 1_556 S
O111 C101 1.272 1_556 S
O111 Co103 2.135 . S
C112 C113 1.363 . S
C112 C118 1.379 . S
C112 N120 1.356 . S
C113 C112 1.363 . S
C113 C119 1.363 . S
C114 C115 1.363 . S
C114 C119 1.379 . S
C114 N121 1.356 . S
C115 C114 1.363 . S
C115 C118 1.363 . S
N116 C118 1.356 . S
N116 H128 0.984 . S
N116 H129 0.985 . S
N117 C119 1.356 . S
N117 H122 0.984 . S
N117 H123 0.985 . S
C118 C112 1.379 . S
C118 C115 1.363 . S
C118 N116 1.356 . S
C119 C113 1.363 . S
C119 C114 1.379 . S
C119 N117 1.356 . S
N120 C112 1.356 . S
N120 H126 0.984 . S
N120 H127 0.984 . S
N121 C114 1.356 . S
N121 H124 0.984 . S
N121 H125 0.985 . S
H122 N117 0.984 . S
H123 N117 0.985 . S
H124 N121 0.984 . S
H125 N121 0.985 . S
H126 N120 0.984 . S
H127 N120 0.984 . S
H128 N116 0.984 . S
H129 N116 0.985 . S
C130 C131 1.363 . S
C130 C136 1.379 . S
C130 N138 1.356 . S
C131 C130 1.363 . S
C131 C137 1.363 . S
C132 C133 1.363 . S
C132 C137 1.379 . S
C132 N139 1.356 . S
C133 C132 1.363 . S
C133 C136 1.363 . S
N134 C136 1.356 . S
N134 H146 0.984 . S
N134 H147 0.985 . S
N135 C137 1.356 . S
N135 H140 0.984 . S
N135 H141 0.985 . S
C136 C130 1.379 . S
C136 C133 1.363 . S
C136 N134 1.356 . S
C137 C131 1.363 . S
C137 C132 1.379 . S
C137 N135 1.356 . S
N138 C130 1.356 . S
N138 H144 0.984 . S
N138 H145 0.984 . S
N139 C132 1.356 . S
N139 H142 0.984 . S
N139 H143 0.985 . S
H140 N135 0.984 . S
H141 N135 0.985 . S
H142 N139 0.984 . S
H143 N139 0.985 . S
H144 N138 0.984 . S
H145 N138 0.984 . S
H146 N134 0.984 . S
H147 N134 0.985 . S
C148 C149 1.363 . S
C148 C154 1.379 . S
C148 N156 1.356 . S
C149 C148 1.363 . S
C149 C155 1.363 . S
C150 C151 1.363 . S
C150 C155 1.379 . S
C150 N157 1.356 . S
C151 C150 1.363 . S
C151 C154 1.363 . S
N152 C154 1.356 . S
N152 H164 0.984 . S
N152 H165 0.985 . S
N153 C155 1.356 . S
N153 H158 0.984 . S
N153 H159 0.985 . S
C154 C148 1.379 . S
C154 C151 1.363 . S
C154 N152 1.356 . S
C155 C149 1.363 . S
C155 C150 1.379 . S
C155 N153 1.356 . S
N156 C148 1.356 . S
N156 H162 0.984 . S
N156 H163 0.984 . S
N157 C150 1.356 . S
N157 H160 0.984 . S
N157 H161 0.985 . S
H158 N153 0.984 . S
H159 N153 0.985 . S
H160 N157 0.984 . S
H161 N157 0.985 . S
H162 N156 0.984 . S
H163 N156 0.984 . S
H164 N152 0.984 . S
H165 N152 0.985 . S
C166 C167 1.363 . S
C166 C172 1.379 . S
C166 N174 1.356 . S
C167 C166 1.363 . S
C167 C173 1.363 . S
C168 C169 1.363 . S
C168 C173 1.379 . S
C168 N175 1.356 . S
C169 C168 1.363 . S
C169 C172 1.363 . S
N170 C172 1.356 . S
N170 H182 0.984 . S
N170 H183 0.985 . S
N171 C173 1.356 . S
N171 H176 0.984 . S
N171 H177 0.985 . S
C172 C166 1.379 . S
C172 C169 1.363 . S
C172 N170 1.356 . S
C173 C167 1.363 . S
C173 C168 1.379 . S
C173 N171 1.356 . S
N174 C166 1.356 . S
N174 H180 0.984 . S
N174 H181 0.984 . S
N175 C168 1.356 . S
N175 H178 0.984 . S
N175 H179 0.985 . S
H176 N171 0.984 . S
H177 N171 0.985 . S
H178 N175 0.984 . S
H179 N175 0.985 . S
H180 N174 0.984 . S
H181 N174 0.984 . S
H182 N170 0.984 . S
H183 N170 0.985 . S
C184 C185 1.363 . S
C184 C190 1.379 . S
C184 N192 1.356 . S
C185 C184 1.363 . S
C185 C191 1.363 . S
C186 C187 1.363 . S
C186 C191 1.379 . S
C186 N193 1.356 . S
C187 C186 1.363 . S
C187 C190 1.363 . S
N188 C190 1.356 . S
N188 H200 0.984 . S
N188 H201 0.985 . S
N189 C191 1.356 . S
N189 H194 0.984 . S
N189 H195 0.985 . S
C190 C184 1.379 . S
C190 C187 1.363 . S
C190 N188 1.356 . S
C191 C185 1.363 . S
C191 C186 1.379 . S
C191 N189 1.356 . S
N192 C184 1.356 . S
N192 H198 0.984 . S
N192 H199 0.984 . S
N193 C186 1.356 . S
N193 H196 0.984 . S
N193 H197 0.985 . S
H194 N189 0.984 . S
H195 N189 0.985 . S
H196 N193 0.984 . S
H197 N193 0.985 . S
H198 N192 0.984 . S
H199 N192 0.984 . S
H200 N188 0.984 . S
H201 N188 0.985 . S
C202 C203 1.363 . S
C202 C208 1.379 . S
C202 N210 1.356 . S
C203 C202 1.363 . S
C203 C209 1.363 . S
C204 C205 1.363 . S
C204 C209 1.379 . S
C204 N211 1.356 . S
C205 C204 1.363 . S
C205 C208 1.363 . S
N206 C208 1.356 . S
N206 H218 0.984 . S
N206 H219 0.985 . S
N207 C209 1.356 . S
N207 H212 0.984 . S
N207 H213 0.985 . S
C208 C202 1.379 . S
C208 C205 1.363 . S
C208 N206 1.356 . S
C209 C203 1.363 . S
C209 C204 1.379 . S
C209 N207 1.356 . S
N210 C202 1.356 . S
N210 H216 0.984 . S
N210 H217 0.984 . S
N211 C204 1.356 . S
N211 H214 0.984 . S
N211 H215 0.985 . S
H212 N207 0.984 . S
H213 N207 0.985 . S
H214 N211 0.984 . S
H215 N211 0.985 . S
H216 N210 0.984 . S
H217 N210 0.984 . S
H218 N206 0.984 . S
H219 N206 0.985 . S
C220 C221 1.363 . S
C220 C226 1.379 . S
C220 N228 1.356 . S
C221 C220 1.363 . S
C221 C227 1.363 . S
C222 C223 1.363 . S
C222 C227 1.379 . S
C222 N229 1.356 . S
C223 C222 1.363 . S
C223 C226 1.363 . S
N224 C226 1.356 . S
N224 H236 0.984 . S
N224 H237 0.985 . S
N225 C227 1.356 . S
N225 H230 0.984 . S
N225 H231 0.985 . S
C226 C220 1.379 . S
C226 C223 1.363 . S
C226 N224 1.356 . S
C227 C221 1.363 . S
C227 C222 1.379 . S
C227 N225 1.356 . S
N228 C220 1.356 . S
N228 H234 0.984 . S
N228 H235 0.984 . S
N229 C222 1.356 . S
N229 H232 0.984 . S
N229 H233 0.985 . S
H230 N225 0.984 . S
H231 N225 0.985 . S
H232 N229 0.984 . S
H233 N229 0.985 . S
H234 N228 0.984 . S
H235 N228 0.984 . S
H236 N224 0.984 . S
H237 N224 0.985 . S
C238 C239 1.363 . S
C238 C244 1.379 . S
C238 N246 1.356 . S
C239 C238 1.363 . S
C239 C245 1.363 . S
C240 C241 1.363 . S
C240 C245 1.379 . S
C240 N247 1.356 . S
C241 C240 1.363 . S
C241 C244 1.363 . S
N242 C244 1.356 . S
N242 H254 0.984 . S
N242 H255 0.985 . S
N243 C245 1.356 . S
N243 H248 0.984 . S
N243 H249 0.985 . S
C244 C238 1.379 . S
C244 C241 1.363 . S
C244 N242 1.356 . S
C245 C239 1.363 . S
C245 C240 1.379 . S
C245 N243 1.356 . S
N246 C238 1.356 . S
N246 H252 0.984 . S
N246 H253 0.984 . S
N247 C240 1.356 . S
N247 H250 0.984 . S
N247 H251 0.985 . S
H248 N243 0.984 . S
H249 N243 0.985 . S
H250 N247 0.984 . S
H251 N247 0.985 . S
H252 N246 0.984 . S
H253 N246 0.984 . S
H254 N242 0.984 . S
H255 N242 0.985 . S
C256 C257 1.363 . S
C256 C262 1.379 . S
C256 N264 1.356 . S
C257 C256 1.363 . S
C257 C263 1.363 1_554 S
C258 C259 1.369 . S
C258 C263 1.379 . S
C258 N265 1.356 . S
C259 C258 1.369 . S
C259 C262 1.357 1_556 S
N260 C262 1.356 . S
N260 H272 0.984 . S
N260 H273 0.985 . S
N261 C263 1.356 . S
N261 H266 0.984 . S
N261 H267 0.985 . S
C262 C256 1.379 . S
C262 C259 1.357 1_554 S
C262 N260 1.356 . S
C263 C257 1.363 1_556 S
C263 C258 1.379 . S
C263 N261 1.356 . S
N264 C256 1.356 . S
N264 H270 0.984 . S
N264 H271 0.984 . S
N265 C258 1.356 . S
N265 H268 0.984 . S
N265 H269 0.985 . S
H266 N261 0.984 . S
H267 N261 0.985 . S
H268 N265 0.984 . S
H269 N265 0.985 . S
H270 N264 0.984 . S
H271 N264 0.984 . S
H272 N260 0.984 . S
H273 N260 0.985 . S
C274 C275 1.351 1_554 S
C274 C280 1.379 . S
C274 N282 1.356 . S
C275 C274 1.351 1_556 S
C275 C281 1.376 . S
C276 C277 1.363 . S
C276 C281 1.379 . S
C276 N283 1.356 . S
C277 C276 1.363 . S
C277 C280 1.363 1_556 S
N278 C280 1.356 . S
N278 H290 0.984 . S
N278 H291 0.985 . S
N279 C281 1.356 . S
N279 H284 0.984 . S
N279 H285 0.985 . S
C280 C274 1.379 . S
C280 C277 1.363 1_554 S
C280 N278 1.356 . S
C281 C275 1.376 . S
C281 C276 1.379 . S
C281 N279 1.356 . S
N282 C274 1.356 . S
N282 H288 0.984 . S
N282 H289 0.984 . S
N283 C276 1.356 . S
N283 H286 0.984 . S
N283 H287 0.985 . S
H284 N279 0.984 . S
H285 N279 0.985 . S
H286 N283 0.984 . S
H287 N283 0.985 . S
H288 N282 0.984 . S
H289 N282 0.984 . S
H290 N278 0.984 . S
H291 N278 0.985 . S
C292 C293 1.363 . S
C292 C298 1.379 . S
C292 N300 1.356 . S
C293 C292 1.363 . S
C293 C299 1.363 1_554 S
C294 C295 1.369 . S
C294 C299 1.379 . S
C294 N301 1.356 . S
C295 C294 1.369 . S
C295 C298 1.356 1_556 S
N296 C298 1.356 . S
N296 H308 0.984 . S
N296 H309 0.985 . S
N297 C299 1.356 . S
N297 H302 0.984 . S
N297 H303 0.985 . S
C298 C292 1.379 . S
C298 C295 1.356 1_554 S
C298 N296 1.356 . S
C299 C293 1.363 1_556 S
C299 C294 1.379 . S
C299 N297 1.356 . S
N300 C292 1.356 . S
N300 H306 0.984 . S
N300 H307 0.984 . S
N301 C294 1.356 . S
N301 H304 0.984 . S
N301 H305 0.985 . S
H302 N297 0.984 . S
H303 N297 0.985 . S
H304 N301 0.984 . S
H305 N301 0.985 . S
H306 N300 0.984 . S
H307 N300 0.984 . S
H308 N296 0.984 . S
H309 N296 0.985 . S
C310 C311 1.363 1_554 S
C310 C316 1.379 . S
C310 N318 1.356 . S
C311 C310 1.363 1_556 S
C311 C317 1.363 . S
C312 C313 1.372 . S
C312 C317 1.379 . S
C312 N319 1.356 . S
C313 C312 1.372 . S
C313 C316 1.355 1_556 S
N314 C316 1.356 . S
N314 H326 0.984 . S
N314 H327 0.985 . S
N315 C317 1.356 . S
N315 H320 0.984 . S
N315 H321 0.985 . S
C316 C310 1.379 . S
C316 C313 1.355 1_554 S
C316 N314 1.356 . S
C317 C311 1.363 . S
C317 C312 1.379 . S
C317 N315 1.356 . S
N318 C310 1.356 . S
N318 H324 0.984 . S
N318 H325 0.984 . S
N319 C312 1.356 . S
N319 H322 0.984 . S
N319 H323 0.985 . S
H320 N315 0.984 . S
H321 N315 0.985 . S
H322 N319 0.984 . S
H323 N319 0.985 . S
H324 N318 0.984 . S
H325 N318 0.984 . S
H326 N314 0.984 . S
H327 N314 0.985 . S
C328 C329 1.363 1_455 S
C328 C334 1.379 . S
C328 N336 1.356 1_455 S
C329 C328 1.363 1_655 S
C329 C335 1.363 . S
C330 C331 1.363 1_655 S
C330 C335 1.379 . S
C330 N337 1.356 1_655 S
C331 C330 1.363 1_455 S
C331 C334 1.363 . S
N332 C334 1.356 . S
N332 H344 0.984 . S
N332 H345 0.985 . S
N333 C335 1.356 . S
N333 H338 0.984 . S
N333 H339 0.985 . S
C334 C328 1.379 . S
C334 C331 1.363 . S
C334 N332 1.356 . S
C335 C329 1.363 . S
C335 C330 1.379 . S
C335 N333 1.356 . S
N336 C328 1.356 1_655 S
N336 H342 0.984 1_655 S
N336 H343 0.984 . S
N337 C330 1.356 1_455 S
N337 H340 0.984 . S
N337 H341 0.985 1_455 S
H338 N333 0.984 . S
H339 N333 0.985 . S
H340 N337 0.984 . S
H341 N337 0.985 1_655 S
H342 N336 0.984 1_455 S
H343 N336 0.984 . S
H344 N332 0.984 . S
H345 N332 0.985 . S
C346 C347 1.363 1_565 S
C346 C352 1.379 . S
C346 N354 1.356 . S
C347 C346 1.363 1_545 S
C347 C353 1.363 . S
C348 C349 1.363 1_545 S
C348 C353 1.379 . S
C348 N355 1.356 . S
C349 C348 1.363 1_565 S
C349 C352 1.363 . S
N350 C352 1.356 . S
N350 H362 0.984 . S
N350 H363 0.985 . S
N351 C353 1.356 . S
N351 H356 0.984 . S
N351 H357 0.985 . S
C352 C346 1.379 . S
C352 C349 1.363 . S
C352 N350 1.356 . S
C353 C347 1.363 . S
C353 C348 1.379 . S
C353 N351 1.356 . S
N354 C346 1.356 . S
N354 H360 0.984 . S
N354 H361 0.984 1_565 S
N355 C348 1.356 . S
N355 H358 0.984 1_545 S
N355 H359 0.985 . S
H356 N351 0.984 . S
H357 N351 0.985 . S
H358 N355 0.984 1_565 S
H359 N355 0.985 . S
H360 N354 0.984 . S
H361 N354 0.984 1_545 S
H362 N350 0.984 . S
H363 N350 0.985 . S
C364 C365 1.363 1_554 S
C364 C370 1.379 1_545 S
C364 N372 1.356 . S
C365 C364 1.363 1_556 S
C365 C371 1.363 . S
C366 C367 1.363 . S
C366 C371 1.379 1_565 S
C366 N373 1.356 . S
C367 C366 1.363 . S
C367 C370 1.363 1_556 S
N368 C370 1.356 . S
N368 H380 0.984 . S
N368 H381 0.985 . S
N369 C371 1.356 . S
N369 H374 0.984 . S
N369 H375 0.985 . S
C370 C364 1.379 1_565 S
C370 C367 1.363 1_554 S
C370 N368 1.356 . S
C371 C365 1.363 . S
C371 C366 1.379 1_545 S
C371 N369 1.356 . S
N372 C364 1.356 . S
N372 H378 0.984 . S
N372 H379 0.984 . S
N373 C366 1.356 . S
N373 H376 0.984 . S
N373 H377 0.985 . S
H374 N369 0.984 . S
H375 N369 0.985 . S
H376 N373 0.984 . S
H377 N373 0.985 . S
H378 N372 0.984 . S
H379 N372 0.984 . S
H380 N368 0.984 . S
H381 N368 0.985 . S
C382 C383 1.363 1_556 S
C382 C388 1.379 1_455 S
C382 N390 1.356 . S
C383 C382 1.363 1_554 S
C383 C389 1.363 . S
C384 C385 1.363 . S
C384 C389 1.379 1_655 S
C384 N391 1.356 . S
C385 C384 1.363 . S
C385 C388 1.363 1_554 S
N386 C388 1.356 . S
N386 H398 0.984 . S
N386 H399 0.985 . S
N387 C389 1.356 . S
N387 H392 0.984 . S
N387 H393 0.985 . S
C388 C382 1.379 1_655 S
C388 C385 1.363 1_556 S
C388 N386 1.356 . S
C389 C383 1.363 . S
C389 C384 1.379 1_455 S
C389 N387 1.356 . S
N390 C382 1.356 . S
N390 H396 0.984 . S
N390 H397 0.984 . S
N391 C384 1.356 . S
N391 H394 0.984 . S
N391 H395 0.985 . S
H392 N387 0.984 . S
H393 N387 0.985 . S
H394 N391 0.984 . S
H395 N391 0.985 . S
H396 N390 0.984 . S
H397 N390 0.984 . S
H398 N386 0.984 . S
H399 N386 0.985 . S
C113 C106 1.554 . S
C115 C8 1.551 . S
C131 C17 1.542 . S
C133 C64 1.535 . S
C149 C36 1.551 . S
C151 C78 1.554 . S
C167 C92 1.535 . S
C169 C45 1.542 . S
C185 C21 1.437 . S
C187 C3 1.435 . S
C203 C22 1.478 . S
C205 C37 1.509 . S
C221 C49 1.437 . S
C223 C31 1.435 . S
C239 C50 1.478 . S
C241 C9 1.509 . S
C257 C107 1.570 . S
C259 C59 1.496 . S
C275 C73 1.472 1_556 S
C277 C65 1.541 . S
C293 C79 1.570 . S
C295 C87 1.496 . S
C311 C93 1.541 . S
C313 C101 1.472 1_556 S
C329 C35 1.257 . S
C331 C7 1.257 . S
C347 C51 1.155 . S
C349 C23 1.155 . S
C365 C91 1.271 . S
C367 C63 1.271 . S
C383 C105 1.287 . S
C385 C77 1.287 . S
