# Generated by pormake.
# Topology gis, (4)-cn, num edge types: 1
# Building blocks:
#     Node 0, Type 0, BuildingBlock: GALJAG_clean_sbu_0, # of connection points: 4
#     Node 1, Type 0, BuildingBlock: GALJAG_clean_sbu_0, # of connection points: 4
#     Node 2, Type 0, BuildingBlock: GALJAG_clean_sbu_0, # of connection points: 4
#     Node 3, Type 0, BuildingBlock: GALJAG_clean_sbu_0, # of connection points: 4
#     Node 4, Type 0, BuildingBlock: GALJAG_clean_sbu_0, # of connection points: 4
#     Node 5, Type 0, BuildingBlock: GALJAG_clean_sbu_0, # of connection points: 4
#     Node 6, Type 0, BuildingBlock: GALJAG_clean_sbu_0, # of connection points: 4
#     Node 7, Type 0, BuildingBlock: GALJAG_clean_sbu_0, # of connection points: 4
#     Node 8, Type 0, BuildingBlock: GALJAG_clean_sbu_0, # of connection points: 4
#     Node 9, Type 0, BuildingBlock: GALJAG_clean_sbu_0, # of connection points: 4
#     Node 10, Type 0, BuildingBlock: GALJAG_clean_sbu_0, # of connection points: 4
#     Node 11, Type 0, BuildingBlock: GALJAG_clean_sbu_0, # of connection points: 4
#     Node 12, Type 0, BuildingBlock: GALJAG_clean_sbu_0, # of connection points: 4
#     Node 13, Type 0, BuildingBlock: GALJAG_clean_sbu_0, # of connection points: 4
#     Node 14, Type 0, BuildingBlock: GALJAG_clean_sbu_0, # of connection points: 4
#     Node 15, Type 0, BuildingBlock: GALJAG_clean_sbu_0, # of connection points: 4
#     Edge 16, Type (0, 0), BuildingBlock: AJUNOK_clean_linker_0, # of connection points: 2
#     Edge 17, Type (0, 0), BuildingBlock: AJUNOK_clean_linker_0, # of connection points: 2
#     Edge 18, Type (0, 0), BuildingBlock: AJUNOK_clean_linker_0, # of connection points: 2
#     Edge 19, Type (0, 0), BuildingBlock: AJUNOK_clean_linker_0, # of connection points: 2
#     Edge 20, Type (0, 0), BuildingBlock: AJUNOK_clean_linker_0, # of connection points: 2
#     Edge 21, Type (0, 0), BuildingBlock: AJUNOK_clean_linker_0, # of connection points: 2
#     Edge 22, Type (0, 0), BuildingBlock: AJUNOK_clean_linker_0, # of connection points: 2
#     Edge 23, Type (0, 0), BuildingBlock: AJUNOK_clean_linker_0, # of connection points: 2
#     Edge 24, Type (0, 0), BuildingBlock: AJUNOK_clean_linker_0, # of connection points: 2
#     Edge 25, Type (0, 0), BuildingBlock: AJUNOK_clean_linker_0, # of connection points: 2
#     Edge 26, Type (0, 0), BuildingBlock: AJUNOK_clean_linker_0, # of connection points: 2
#     Edge 27, Type (0, 0), BuildingBlock: AJUNOK_clean_linker_0, # of connection points: 2
#     Edge 28, Type (0, 0), BuildingBlock: AJUNOK_clean_linker_0, # of connection points: 2
#     Edge 29, Type (0, 0), BuildingBlock: AJUNOK_clean_linker_0, # of connection points: 2
#     Edge 30, Type (0, 0), BuildingBlock: AJUNOK_clean_linker_0, # of connection points: 2
#     Edge 31, Type (0, 0), BuildingBlock: AJUNOK_clean_linker_0, # of connection points: 2
#     Edge 32, Type (0, 0), BuildingBlock: AJUNOK_clean_linker_0, # of connection points: 2
#     Edge 33, Type (0, 0), BuildingBlock: AJUNOK_clean_linker_0, # of connection points: 2
#     Edge 34, Type (0, 0), BuildingBlock: AJUNOK_clean_linker_0, # of connection points: 2
#     Edge 35, Type (0, 0), BuildingBlock: AJUNOK_clean_linker_0, # of connection points: 2
#     Edge 36, Type (0, 0), BuildingBlock: AJUNOK_clean_linker_0, # of connection points: 2
#     Edge 37, Type (0, 0), BuildingBlock: AJUNOK_clean_linker_0, # of connection points: 2
#     Edge 38, Type (0, 0), BuildingBlock: AJUNOK_clean_linker_0, # of connection points: 2
#     Edge 39, Type (0, 0), BuildingBlock: AJUNOK_clean_linker_0, # of connection points: 2
#     Edge 40, Type (0, 0), BuildingBlock: AJUNOK_clean_linker_0, # of connection points: 2
#     Edge 41, Type (0, 0), BuildingBlock: AJUNOK_clean_linker_0, # of connection points: 2
#     Edge 42, Type (0, 0), BuildingBlock: AJUNOK_clean_linker_0, # of connection points: 2
#     Edge 43, Type (0, 0), BuildingBlock: AJUNOK_clean_linker_0, # of connection points: 2
#     Edge 44, Type (0, 0), BuildingBlock: AJUNOK_clean_linker_0, # of connection points: 2
#     Edge 45, Type (0, 0), BuildingBlock: AJUNOK_clean_linker_0, # of connection points: 2
#     Edge 46, Type (0, 0), BuildingBlock: AJUNOK_clean_linker_0, # of connection points: 2
#     Edge 47, Type (0, 0), BuildingBlock: AJUNOK_clean_linker_0, # of connection points: 2
# Relax obj value: 0.052
# Max RMSD: 0.088
# Mean RMSD: 0.088
data_MOF--net-gis--node1-GALJAG_clean_sbu_0--edge1-AJUNOK_clean_linker_0
_symmetry_space_group_name_H-M    P1
_symmetry_Int_Tables_number       1
_symmetry_cell_setting            triclinic
loop_
_symmetry_equiv_pos_as_xyz
'x, y, z'
_cell_length_a     39.687185
_cell_length_b     39.662596
_cell_length_c     27.680742
_cell_angle_alpha  90.194174
_cell_angle_beta   90.105596
_cell_angle_gamma 90.001236
loop_
_atom_site_label
_atom_site_type_symbol
_atom_site_fract_x
_atom_site_fract_y
_atom_site_fract_z
_atom_type_partial_charge
In0 In 0.13994 0.60946 0.12357 0.0
O1 O 0.16209 0.59631 0.19714 0.0
O2 O 0.19557 0.60372 0.13786 0.0
C3 C 0.07243 0.60872 0.1326 0.0
C4 C 0.14972 0.67641 0.1175 0.0
C5 C 0.14729 0.55624 0.06445 0.0
O6 O 0.09156 0.59932 0.16665 0.0
O7 O 0.08756 0.61819 0.09498 0.0
O8 O 0.15144 0.58619 0.04982 0.0
O9 O 0.13935 0.55358 0.10838 0.0
C10 C 0.19224 0.59703 0.18215 0.0
O11 O 0.15232 0.6575 0.0807 0.0
O12 O 0.14205 0.6614 0.15603 0.0
In13 In 0.63893 0.88887 0.36658 0.0
O14 O 0.65156 0.84104 0.40976 0.0
O15 O 0.63587 0.83615 0.33652 0.0
C16 C 0.64891 0.94156 0.42606 0.0
C17 C 0.69016 0.89943 0.30524 0.0
C18 C 0.57133 0.89287 0.35912 0.0
O19 O 0.65183 0.91141 0.44039 0.0
O20 O 0.64112 0.94473 0.3821 0.0
O21 O 0.59039 0.89966 0.32385 0.0
O22 O 0.58656 0.88436 0.39721 0.0
C23 C 0.64509 0.82149 0.37469 0.0
O24 O 0.65966 0.90228 0.29237 0.0
O25 O 0.69449 0.89148 0.34895 0.0
In26 In 0.35972 0.3925 0.62383 0.0
O27 O 0.34555 0.415 0.55085 0.0
O28 O 0.35603 0.44838 0.60956 0.0
C29 C 0.35504 0.32497 0.61524 0.0
C30 C 0.4272 0.39872 0.62735 0.0
C31 C 0.30885 0.40219 0.68601 0.0
O32 O 0.34685 0.3444 0.58096 0.0
O33 O 0.36534 0.3398 0.65285 0.0
O34 O 0.33937 0.40568 0.69855 0.0
O35 O 0.3044 0.39406 0.64232 0.0
C36 C 0.34801 0.44517 0.56564 0.0
O37 O 0.40924 0.40301 0.66465 0.0
O38 O 0.411 0.39114 0.58963 0.0
In39 In 0.85777 0.10752 0.86868 0.0
O40 O 0.90736 0.09784 0.82786 0.0
O41 O 0.9091 0.11692 0.89984 0.0
C42 C 0.80551 0.09579 0.80961 0.0
C43 C 0.85048 0.05416 0.92684 0.0
C44 C 0.84953 0.17458 0.87551 0.0
O45 O 0.83569 0.09463 0.79474 0.0
O46 O 0.80217 0.1026 0.85393 0.0
O47 O 0.8445 0.15545 0.91137 0.0
O48 O 0.85812 0.1596 0.83716 0.0
C49 C 0.92537 0.10799 0.86287 0.0
O50 O 0.84575 0.08403 0.94174 0.0
O51 O 0.85891 0.05161 0.88303 0.0
In52 In 0.14158 0.38902 0.87309 0.0
O53 O 0.1534 0.34022 0.91464 0.0
O54 O 0.14314 0.33747 0.83919 0.0
C55 C 0.14854 0.44058 0.93535 0.0
C56 C 0.19416 0.40204 0.81542 0.0
C57 C 0.07408 0.39079 0.86322 0.0
O58 O 0.15311 0.41025 0.94797 0.0
O59 O 0.1408 0.44454 0.89148 0.0
O60 O 0.09344 0.40043 0.82968 0.0
O61 O 0.08899 0.38049 0.90065 0.0
C62 C 0.15065 0.32185 0.87733 0.0
O63 O 0.16405 0.40313 0.8002 0.0
O64 O 0.19734 0.39485 0.85958 0.0
In65 In 0.85662 0.88707 0.11668 0.0
O66 O 0.84383 0.83864 0.07463 0.0
O67 O 0.85338 0.83571 0.15032 0.0
C68 C 0.85003 0.93862 0.0549 0.0
C69 C 0.80469 0.90054 0.17547 0.0
C70 C 0.92426 0.88604 0.12463 0.0
O71 O 0.84449 0.9084 0.04231 0.0
O72 O 0.85864 0.94251 0.09849 0.0
O73 O 0.90597 0.89822 0.15783 0.0
O74 O 0.90827 0.8751 0.08846 0.0
C75 C 0.84586 0.82027 0.11187 0.0
O76 O 0.8349 0.90087 0.19042 0.0
O77 O 0.80117 0.894 0.13108 0.0
In78 In 0.35811 0.60997 0.37275 0.0
O79 O 0.34472 0.59 0.44756 0.0
O80 O 0.35645 0.55471 0.39187 0.0
C81 C 0.35061 0.67743 0.37591 0.0
C82 C 0.42563 0.60597 0.36481 0.0
C83 C 0.30688 0.59738 0.31201 0.0
O84 O 0.34641 0.65947 0.41315 0.0
O85 O 0.35883 0.66128 0.33845 0.0
O86 O 0.33736 0.59459 0.29919 0.0
O87 O 0.30257 0.60599 0.35553 0.0
C88 C 0.34826 0.5594 0.43541 0.0
O89 O 0.40629 0.59744 0.3305 0.0
O90 O 0.41073 0.61632 0.40224 0.0
In91 In 0.63894 0.10717 0.61928 0.0
O92 O 0.59057 0.09561 0.66175 0.0
O93 O 0.58657 0.1115 0.58862 0.0
C94 C 0.69046 0.09627 0.68026 0.0
C95 C 0.64884 0.05604 0.55707 0.0
C96 C 0.644 0.17474 0.61274 0.0
O97 O 0.66006 0.09275 0.69301 0.0
O98 O 0.69455 0.10494 0.63683 0.0
O99 O 0.65117 0.15562 0.57753 0.0
O100 O 0.63469 0.15958 0.65042 0.0
C101 C 0.57144 0.10263 0.62654 0.0
O102 O 0.65219 0.08655 0.54474 0.0
O103 O 0.6409 0.05162 0.60073 0.0
In104 In 0.85979 0.38826 0.86943 0.0
O105 O 0.84968 0.40871 0.94497 0.0
O106 O 0.8578 0.44386 0.88808 0.0
C107 C 0.85158 0.32107 0.87589 0.0
C108 C 0.92742 0.39077 0.86141 0.0
C109 C 0.8085 0.40007 0.80845 0.0
O110 O 0.84543 0.34044 0.91122 0.0
O111 O 0.86157 0.33579 0.83822 0.0
O112 O 0.83898 0.40216 0.79538 0.0
O113 O 0.80422 0.39264 0.85234 0.0
C114 C 0.85218 0.43924 0.93242 0.0
O115 O 0.90835 0.40001 0.82722 0.0
O116 O 0.9122 0.38061 0.89853 0.0
In117 In 0.3575 0.11053 0.61875 0.0
O118 O 0.3462 0.15938 0.57729 0.0
O119 O 0.36191 0.16268 0.6507 0.0
C120 C 0.34819 0.05926 0.55667 0.0
C121 C 0.30475 0.09943 0.67709 0.0
C122 C 0.42486 0.10497 0.62667 0.0
O123 O 0.34498 0.08974 0.54399 0.0
O124 O 0.35567 0.05499 0.60058 0.0
O125 O 0.40557 0.09809 0.66169 0.0
O126 O 0.40995 0.1144 0.58877 0.0
C127 C 0.35318 0.17819 0.61297 0.0
O128 O 0.33486 0.09662 0.69178 0.0
O129 O 0.30166 0.10777 0.63336 0.0
In130 In 0.63983 0.60734 0.36968 0.0
O131 O 0.59095 0.59664 0.32778 0.0
O132 O 0.58782 0.61238 0.40123 0.0
C133 C 0.69115 0.59634 0.30876 0.0
C134 C 0.64996 0.5547 0.42856 0.0
C135 C 0.64575 0.67479 0.37636 0.0
O136 O 0.6607 0.59312 0.29574 0.0
O137 O 0.69533 0.60489 0.35235 0.0
O138 O 0.65217 0.65584 0.41196 0.0
O139 O 0.63676 0.6595 0.33843 0.0
C140 C 0.57224 0.60382 0.36335 0.0
O141 O 0.65338 0.58484 0.44306 0.0
O142 O 0.64151 0.55156 0.38482 0.0
In143 In 0.13862 0.88944 0.11894 0.0
O144 O 0.08881 0.90013 0.15887 0.0
O145 O 0.08728 0.87735 0.08922 0.0
C146 C 0.18929 0.90315 0.18015 0.0
C147 C 0.14624 0.9407 0.05676 0.0
C148 C 0.14944 0.82255 0.11529 0.0
O149 O 0.15872 0.90448 0.19313 0.0
O150 O 0.19387 0.89565 0.13628 0.0
O151 O 0.15233 0.84078 0.07802 0.0
O152 O 0.14111 0.8382 0.15317 0.0
C153 C 0.07091 0.88789 0.1252 0.0
O154 O 0.15181 0.9104 0.0447 0.0
O155 O 0.13704 0.94483 0.1 0.0
In156 In 0.85839 0.60776 0.1218 0.0
O157 O 0.83625 0.59522 0.19548 0.0
O158 O 0.80288 0.60018 0.13542 0.0
C159 C 0.92583 0.6085 0.13202 0.0
C160 C 0.8472 0.67437 0.11429 0.0
C161 C 0.85312 0.55416 0.06289 0.0
O162 O 0.90672 0.59847 0.16559 0.0
O163 O 0.91072 0.61806 0.09433 0.0
O164 O 0.84649 0.58376 0.04862 0.0
O165 O 0.86221 0.55208 0.10647 0.0
C166 C 0.80618 0.59465 0.18007 0.0
O167 O 0.84596 0.65521 0.07761 0.0
O168 O 0.85432 0.6598 0.15342 0.0
In169 In 0.13973 0.10881 0.86885 0.0
O170 O 0.09001 0.09858 0.82838 0.0
O171 O 0.08835 0.11922 0.89936 0.0
C172 C 0.19031 0.09707 0.80701 0.0
C173 C 0.14769 0.05566 0.92757 0.0
C174 C 0.15001 0.17567 0.8752 0.0
O175 O 0.15971 0.09584 0.79402 0.0
O176 O 0.19501 0.10348 0.85125 0.0
O177 O 0.15357 0.15673 0.91164 0.0
O178 O 0.1412 0.16074 0.83691 0.0
C179 C 0.07202 0.1094 0.86284 0.0
O180 O 0.15243 0.08562 0.9421 0.0
O181 O 0.13911 0.05292 0.88383 0.0
In182 In 0.6408 0.38918 0.61985 0.0
O183 O 0.59232 0.40152 0.662 0.0
O184 O 0.58883 0.38778 0.58773 0.0
C185 C 0.69348 0.39973 0.67892 0.0
C186 C 0.65123 0.44018 0.55831 0.0
C187 C 0.64444 0.3215 0.6129 0.0
O188 O 0.66336 0.4027 0.69343 0.0
O189 O 0.69657 0.39154 0.63507 0.0
O190 O 0.65218 0.34043 0.57791 0.0
O191 O 0.63512 0.33689 0.65053 0.0
C192 C 0.57355 0.39666 0.62557 0.0
O193 O 0.65377 0.40961 0.54543 0.0
O194 O 0.64399 0.44469 0.60228 0.0
In195 In 0.3571 0.89116 0.3676 0.0
O196 O 0.34499 0.91402 0.44137 0.0
O197 O 0.35645 0.947 0.38292 0.0
C198 C 0.34954 0.82387 0.37312 0.0
C199 C 0.42464 0.89391 0.35943 0.0
C200 C 0.30427 0.90294 0.30957 0.0
O201 O 0.34576 0.8426 0.4099 0.0
O202 O 0.35719 0.83925 0.33488 0.0
O203 O 0.33436 0.90482 0.29452 0.0
O204 O 0.30126 0.8953 0.3536 0.0
C205 C 0.34856 0.94408 0.42685 0.0
O206 O 0.40547 0.90157 0.32452 0.0
O207 O 0.40953 0.88515 0.39743 0.0
C208 C 0.15064 0.7668 0.07194 0.0
C209 C 0.15371 0.78548 0.11505 0.0
C210 C 0.15067 0.73133 0.07248 0.0
C211 C 0.15377 0.7135 0.11615 0.0
H212 H 0.14689 0.7796 0.03784 0.0
H213 H 0.14696 0.71787 0.03878 0.0
S214 S 0.16768 0.75073 0.23783 0.0
N215 N 0.16361 0.7835 0.20174 0.0
N216 N 0.16369 0.71724 0.20277 0.0
C217 C 0.15877 0.73198 0.15902 0.0
C218 C 0.15874 0.76788 0.15847 0.0
C219 C 0.48044 0.88643 0.39888 0.0
C220 C 0.46195 0.89467 0.35716 0.0
C221 C 0.51561 0.8862 0.39882 0.0
C222 C 0.53403 0.89417 0.35704 0.0
H223 H 0.46769 0.87995 0.43214 0.0
H224 H 0.52843 0.87953 0.43204 0.0
S225 S 0.49789 0.91787 0.23814 0.0
N226 N 0.46467 0.91133 0.27275 0.0
N227 N 0.53116 0.91086 0.27263 0.0
C228 C 0.516 0.90269 0.31496 0.0
C229 C 0.47991 0.90295 0.31503 0.0
C230 C 0.36136 0.26889 0.65406 0.0
C231 C 0.35321 0.28767 0.61265 0.0
C232 C 0.36085 0.23369 0.65355 0.0
C233 C 0.35221 0.21555 0.61158 0.0
H234 H 0.36841 0.28143 0.68741 0.0
H235 H 0.36757 0.22064 0.68651 0.0
S236 S 0.32816 0.25252 0.49345 0.0
N237 N 0.3357 0.28552 0.52842 0.0
N238 N 0.33479 0.219 0.52743 0.0
C239 C 0.34363 0.23388 0.56987 0.0
C240 C 0.34412 0.26999 0.57041 0.0
C241 C 0.01652 0.09325 0.82528 0.0
C242 C 0.0347 0.11043 0.8615 0.0
C243 C 0.98107 0.09289 0.82528 0.0
C244 C 0.96266 0.10966 0.86154 0.0
H245 H 0.02972 0.07952 0.79722 0.0
H246 H 0.96805 0.0789 0.79723 0.0
S247 S 0.99831 0.161 0.96188 0.0
N248 N 0.03149 0.14647 0.93269 0.0
N249 N 0.96535 0.14578 0.93272 0.0
C250 C 0.98061 0.12773 0.89708 0.0
C251 C 0.01649 0.12811 0.89705 0.0
C252 C 0.15125 0.26627 0.92076 0.0
C253 C 0.1545 0.28472 0.87764 0.0
C254 C 0.15116 0.23079 0.92027 0.0
C255 C 0.15431 0.21273 0.87666 0.0
H256 H 0.1475 0.27927 0.9548 0.0
H257 H 0.14731 0.21751 0.95394 0.0
S258 S 0.16871 0.24919 0.75508 0.0
N259 N 0.16465 0.28219 0.79105 0.0
N260 N 0.16447 0.21592 0.79017 0.0
C261 C 0.15947 0.23094 0.83381 0.0
C262 C 0.15957 0.26684 0.8343 0.0
C263 C 0.97962 0.90387 0.16116 0.0
C264 C 0.96158 0.88487 0.12671 0.0
C265 C 0.01507 0.90436 0.16123 0.0
C266 C 0.03362 0.88589 0.12685 0.0
H267 H 0.9663 0.919 0.18758 0.0
H268 H 0.02798 0.91984 0.18775 0.0
S269 S 0.99836 0.82937 0.03213 0.0
N270 N 0.96507 0.84522 0.05959 0.0
N271 N 0.03121 0.84617 0.05971 0.0
C272 C 0.01581 0.86594 0.09331 0.0
C273 C 0.97993 0.86543 0.09325 0.0
C274 C 0.34851 0.73341 0.41874 0.0
C275 C 0.34714 0.71462 0.37555 0.0
C276 C 0.34822 0.76889 0.41807 0.0
C277 C 0.34651 0.78665 0.37418 0.0
H278 H 0.35087 0.7207 0.45316 0.0
H279 H 0.35038 0.78242 0.45198 0.0
S280 S 0.33784 0.74911 0.25168 0.0
N281 N 0.34076 0.71644 0.28816 0.0
N282 N 0.34017 0.78267 0.28689 0.0
C283 C 0.3435 0.76805 0.33102 0.0
C284 C 0.34383 0.73214 0.33171 0.0
C285 C 0.51576 0.10905 0.58654 0.0
C286 C 0.53415 0.10154 0.62861 0.0
C287 C 0.4806 0.10967 0.5866 0.0
C288 C 0.46211 0.1028 0.62872 0.0
H289 H 0.52856 0.11481 0.55305 0.0
H290 H 0.46786 0.11586 0.55312 0.0
S291 S 0.498 0.08089 0.74846 0.0
N292 N 0.53128 0.08643 0.71361 0.0
N293 N 0.46479 0.08758 0.71371 0.0
C294 C 0.48004 0.09475 0.67107 0.0
C295 C 0.51612 0.09413 0.67101 0.0
C296 C 0.85211 0.23017 0.83465 0.0
C297 C 0.84724 0.21184 0.87748 0.0
C298 C 0.85271 0.26535 0.83475 0.0
C299 C 0.84841 0.28389 0.87766 0.0
H300 H 0.85607 0.21728 0.80056 0.0
H301 H 0.85706 0.27806 0.80074 0.0
S302 S 0.83322 0.24823 -0.00053 0.0
N303 N 0.83681 0.21486 0.96397 0.0
N304 N 0.83785 0.28139 0.96413 0.0
C305 C 0.84254 0.26605 0.92071 0.0
C306 C 0.84198 0.22995 0.92062 0.0
C307 C 0.6414 0.73021 0.33524 0.0
C308 C 0.64759 0.71211 0.37794 0.0
C309 C 0.64121 0.7654 0.33484 0.0
C310 C 0.64723 0.78422 0.37712 0.0
H311 H 0.63627 0.71713 0.30159 0.0
H312 H 0.63597 0.7779 0.3009 0.0
S313 S 0.66581 0.74921 0.49844 0.0
N314 N 0.66071 0.71564 0.46369 0.0
N315 N 0.66039 0.78217 0.46294 0.0
C316 C 0.6541 0.76659 0.42008 0.0
C317 C 0.65428 0.73048 0.42049 0.0
C318 C 0.84724 0.72914 0.06898 0.0
C319 C 0.84234 0.71131 0.11228 0.0
C320 C 0.84687 0.7646 0.06838 0.0
C321 C 0.84161 0.78323 0.11108 0.0
H322 H 0.85278 0.71571 0.0358 0.0
H323 H 0.85216 0.77745 0.03477 0.0
S324 S 0.822 0.74836 0.23208 0.0
N325 N 0.8281 0.71491 0.19759 0.0
N326 N 0.82746 0.78118 0.19647 0.0
C327 C 0.83462 0.7656 0.15387 0.0
C328 C 0.83498 0.72972 0.15447 0.0
C329 C 0.63702 0.26582 0.65251 0.0
C330 C 0.6456 0.28417 0.61092 0.0
C331 C 0.63697 0.23061 0.65248 0.0
C332 C 0.64548 0.21206 0.61088 0.0
H333 H 0.63006 0.27871 0.68557 0.0
H334 H 0.62994 0.21788 0.68555 0.0
S335 S 0.67047 0.24782 0.49251 0.0
N336 N 0.66333 0.28116 0.52692 0.0
N337 N 0.66321 0.21465 0.52688 0.0
C338 C 0.65446 0.22996 0.569 0.0
C339 C 0.65452 0.26606 0.56903 0.0
C340 C 0.01815 0.38037 0.9004 0.0
C341 C 0.03679 0.39135 0.86028 0.0
C342 C 0.98299 0.3804 0.89998 0.0
C343 C 0.96473 0.3914 0.8594 0.0
H344 H 0.03077 0.37161 0.93277 0.0
H345 H 0.97008 0.37166 0.93202 0.0
S346 S 0.00131 0.42263 0.74467 0.0
N347 N 0.0344 0.41354 0.7785 0.0
N348 N 0.9679 0.41358 0.7777 0.0
C349 C 0.98291 0.40246 0.81882 0.0
C350 C 0.019 0.40244 0.81925 0.0
C351 C 0.51687 0.61237 0.40339 0.0
C352 C 0.53492 0.60317 0.36172 0.0
C353 C 0.4817 0.61296 0.40373 0.0
C354 C 0.46289 0.60432 0.36241 0.0
H355 H 0.52998 0.61943 0.43629 0.0
H356 H 0.46921 0.62039 0.43685 0.0
S357 S 0.4978 0.57788 0.24389 0.0
N358 N 0.53135 0.58484 0.2779 0.0
N359 N 0.46489 0.58588 0.27854 0.0
C360 C 0.48048 0.59476 0.32043 0.0
C361 C 0.51655 0.59421 0.32006 0.0
C362 C 0.51845 0.39944 0.67016 0.0
C363 C 0.53642 0.40028 0.62638 0.0
C364 C 0.483 0.39993 0.67057 0.0
C365 C 0.46444 0.40129 0.62722 0.0
H366 H 0.53179 0.39738 0.70419 0.0
H367 H 0.47009 0.39823 0.70492 0.0
S368 S 0.49969 0.40847 0.50347 0.0
N369 N 0.53299 0.40575 0.53899 0.0
N370 N 0.46682 0.40669 0.53975 0.0
C371 C 0.48223 0.40373 0.58346 0.0
C372 C 0.5181 0.40321 0.58305 0.0
C373 C 0.01672 0.62135 0.0958 0.0
C374 C 0.03515 0.60878 0.13527 0.0
C375 C 0.98155 0.62136 0.0957 0.0
C376 C 0.96311 0.60879 0.13504 0.0
H377 H 0.02951 0.63121 0.06434 0.0
H378 H 0.96877 0.63121 0.06412 0.0
S379 S -0.0009 0.57346 0.24788 0.0
N380 N 0.03235 0.58377 0.21529 0.0
N381 N 0.96587 0.58377 0.21508 0.0
C382 C 0.98108 0.59642 0.17514 0.0
C383 C 0.01716 0.59643 0.17524 0.0
C384 C 0.1493 0.53056 0.98202 0.0
C385 C 0.15013 0.52648 0.03239 0.0
C386 C 0.14941 0.50258 0.951 0.0
C387 C 0.15074 0.46948 0.96916 0.0
H388 H 0.14765 0.55551 0.96637 0.0
H389 H 0.14802 0.507 0.91245 0.0
S390 S 0.15576 0.44526 0.09831 0.0
N391 N 0.15402 0.48684 0.09913 0.0
N392 N 0.15455 0.43431 0.04075 0.0
C393 C 0.15275 0.46507 0.01943 0.0
C394 C 0.15233 0.49356 0.05106 0.0
C395 C 0.75205 0.90095 0.28941 0.0
C396 C 0.71887 0.9033 0.27163 0.0
C397 C 0.77979 0.90157 0.25822 0.0
C398 C 0.7754 0.90434 0.20801 0.0
H399 H 0.75671 0.89783 0.32771 0.0
H400 H 0.80477 0.89866 0.2735 0.0
S401 S 0.69394 0.91429 0.14338 0.0
N402 N 0.68334 0.91086 0.20079 0.0
N403 N 0.73545 0.91185 0.1421 0.0
C404 C 0.74245 0.90809 0.18987 0.0
C405 C 0.71419 0.90763 0.22169 0.0
C406 C 0.34557 0.46998 0.48301 0.0
C407 C 0.34442 0.47457 0.53332 0.0
C408 C 0.34591 0.49763 0.4517 0.0
C409 C 0.34479 0.53093 0.46945 0.0
H410 H 0.34736 0.44489 0.46765 0.0
H411 H 0.34772 0.4928 0.41325 0.0
S412 S 0.33848 0.55646 0.59818 0.0
N413 N 0.33997 0.51488 0.59951 0.0
N414 N 0.34034 0.56684 0.54054 0.0
C415 C 0.34215 0.53585 0.5196 0.0
C416 C 0.34206 0.50767 0.55156 0.0
C417 C 0.75241 0.0951 0.69585 0.0
C418 C 0.71932 0.09253 0.71376 0.0
C419 C 0.78028 0.09472 0.72695 0.0
C420 C 0.7761 0.09205 0.77717 0.0
H421 H 0.75688 0.09818 0.65753 0.0
H422 H 0.80518 0.09773 0.71159 0.0
S423 S 0.69498 0.08162 0.84212 0.0
N424 N 0.68413 0.08486 0.78472 0.0
N425 N 0.73648 0.08437 0.84326 0.0
C426 C 0.74325 0.08811 0.79545 0.0
C427 C 0.71486 0.08827 0.76372 0.0
C428 C 0.84383 0.50039 0.95006 0.0
C429 C 0.85041 0.46763 0.96697 0.0
C430 C 0.84406 0.52816 0.98149 0.0
C431 C 0.85128 0.52423 0.0309 0.0
H432 H 0.83866 0.50468 0.91213 0.0
H433 H 0.83909 0.55293 0.96672 0.0
S434 S 0.87048 0.44358 0.09313 0.0
N435 N 0.86418 0.43271 0.03621 0.0
N436 N 0.865 0.4848 0.09533 0.0
C437 C 0.8576 0.49149 0.04835 0.0
C438 C 0.85703 0.4632 0.01639 0.0
C439 C 0.25207 0.09396 0.79077 0.0
C440 C 0.21882 0.09391 0.77291 0.0
C441 C 0.27976 0.0945 0.75949 0.0
C442 C 0.27526 0.09529 0.70915 0.0
H443 H 0.25683 0.09436 0.82932 0.0
H444 H 0.30483 0.0954 0.77499 0.0
S445 S 0.19347 0.09265 0.64381 0.0
N446 N 0.18303 0.09249 0.70151 0.0
N447 N 0.23504 0.0937 0.64267 0.0
C448 C 0.24219 0.09394 0.69072 0.0
C449 C 0.21398 0.09317 0.7226 0.0
C450 C 0.65381 0.52973 0.5111 0.0
C451 C 0.65361 0.52522 0.46074 0.0
C452 C 0.65399 0.50201 0.54233 0.0
C453 C 0.65429 0.46875 0.52438 0.0
H454 H 0.65277 0.55483 0.5266 0.0
H455 H 0.65322 0.50676 0.58087 0.0
S456 S 0.65681 0.44338 0.39529 0.0
N457 N 0.6558 0.48497 0.39421 0.0
N458 N 0.65637 0.43293 0.45295 0.0
C459 C 0.65551 0.4639 0.4741 0.0
C460 C 0.65508 0.49213 0.44227 0.0
C461 C 0.27894 0.90659 0.22715 0.0
C462 C 0.27469 0.90697 0.27752 0.0
C463 C 0.25111 0.9066 0.19599 0.0
C464 C 0.21794 0.90723 0.21398 0.0
H465 H 0.30392 0.90509 0.21158 0.0
H466 H 0.25569 0.90521 0.15747 0.0
S467 S 0.19324 0.91187 0.34305 0.0
N468 N 0.23481 0.91052 0.34407 0.0
N469 N 0.18251 0.91069 0.28542 0.0
C470 C 0.21335 0.90928 0.26424 0.0
C471 C 0.24172 0.90908 0.29602 0.0
C472 C 0.65088 0.99417 0.54048 0.0
C473 C 0.65208 0.02744 0.52292 0.0
C474 C 0.65111 0.96647 0.50896 0.0
C475 C 0.65222 0.97099 0.45867 0.0
H476 H 0.64912 0.98942 0.5789 0.0
H477 H 0.64934 0.94139 0.52414 0.0
S478 S 0.6582 0.05277 0.39432 0.0
N479 N 0.65646 0.06323 0.45203 0.0
N480 N 0.65662 0.01119 0.39274 0.0
C481 C 0.65458 0.00405 0.44065 0.0
C482 C 0.65461 0.03227 0.47278 0.0
C483 C 0.24704 0.40385 0.70184 0.0
C484 C 0.28021 0.40565 0.7198 0.0
C485 C 0.21927 0.40412 0.73295 0.0
C486 C 0.22361 0.40594 0.78326 0.0
H487 H 0.2424 0.40148 0.66339 0.0
H488 H 0.1943 0.40172 0.71744 0.0
S489 S 0.30504 0.41403 0.84857 0.0
N490 N 0.3157 0.4116 0.79104 0.0
N491 N 0.26351 0.41189 0.84964 0.0
C492 C 0.25656 0.40908 0.80169 0.0
C493 C 0.28486 0.40902 0.76993 0.0
C494 C 0.84867 0.02852 0.00901 0.0
C495 C 0.84786 0.0244 0.9586 0.0
C496 C 0.84882 0.00058 0.03979 0.0
C497 C 0.84773 0.96746 0.02135 0.0
H498 H 0.8501 0.0535 0.02486 0.0
H499 H 0.85015 0.00502 0.07839 0.0
S500 S 0.84303 0.9431 0.89199 0.0
N501 N 0.8444 0.9847 0.89152 0.0
N502 N 0.84429 0.9322 0.94947 0.0
C503 C 0.84578 0.963 0.97104 0.0
C504 C 0.84597 0.99146 0.93965 0.0
C505 C 0.21725 0.59509 0.26485 0.0
C506 C 0.2216 0.59306 0.21457 0.0
C507 C 0.24502 0.59535 0.29612 0.0
C508 C 0.27817 0.59333 0.27833 0.0
H509 H 0.19229 0.59772 0.28018 0.0
H510 H 0.24041 0.598 0.33451 0.0
S511 S 0.30298 0.58415 0.14977 0.0
N512 N 0.26147 0.5865 0.14847 0.0
N513 N 0.31364 0.58681 0.20733 0.0
C514 C 0.28281 0.58965 0.22826 0.0
C515 C 0.25452 0.58958 0.19636 0.0
C516 C 0.34624 0.99732 0.54067 0.0
C517 C 0.34524 0.0305 0.52274 0.0
C518 C 0.34618 0.96945 0.50945 0.0
C519 C 0.34544 0.97371 0.45911 0.0
H520 H 0.34767 0.99276 0.57918 0.0
H521 H 0.34771 0.94445 0.52493 0.0
S522 S 0.34021 0.05519 0.39376 0.0
N523 N 0.34155 0.06593 0.45139 0.0
N524 N 0.34169 0.0136 0.39266 0.0
C525 C 0.34336 0.0067 0.44068 0.0
C526 C 0.34316 0.03508 0.4725 0.0
C527 C 0.78092 0.59468 0.26251 0.0
C528 C 0.77678 0.59097 0.21236 0.0
C529 C 0.75306 0.59541 0.29343 0.0
C530 C 0.72 0.59224 0.27545 0.0
H531 H 0.80578 0.59825 0.27793 0.0
H532 H 0.75752 0.59929 0.33167 0.0
S533 S 0.69578 0.57845 0.14735 0.0
N534 N 0.73725 0.58157 0.14633 0.0
N535 N 0.68488 0.58277 0.20457 0.0
C536 C 0.71558 0.58691 0.2256 0.0
C537 C 0.74398 0.58634 0.19404 0.0
C538 C 0.14826 0.0026 0.04111 0.0
C539 C 0.14919 0.96939 0.02301 0.0
C540 C 0.14895 0.03042 0.01006 0.0
C541 C 0.15014 0.02605 0.95971 0.0
H542 H 0.1466 0.00723 0.07962 0.0
H543 H 0.14755 0.05547 0.02564 0.0
S544 S 0.15485 0.94441 0.894 0.0
N545 N 0.15299 0.93378 0.95154 0.0
N546 N 0.15386 0.98601 0.8931 0.0
C547 C 0.15193 0.99301 0.94113 0.0
C548 C 0.15159 0.96469 0.97279 0.0
C549 C 0.71873 0.40271 0.76154 0.0
C550 C 0.723 0.40345 0.71119 0.0
C551 C 0.74658 0.40266 0.79272 0.0
C552 C 0.77974 0.40366 0.77473 0.0
H553 H 0.69374 0.401 0.77703 0.0
H554 H 0.74202 0.40107 0.83122 0.0
S555 S 0.8044 0.40918 0.64576 0.0
N556 N 0.76284 0.40758 0.64472 0.0
N557 N 0.81514 0.40772 0.70335 0.0
C558 C 0.78431 0.40597 0.72451 0.0
C559 C 0.75595 0.40578 0.69274 0.0
loop_
_geom_bond_atom_site_label_1
_geom_bond_atom_site_label_2
_geom_bond_distance
_geom_bond_site_symmetry_2
_ccdc_geom_bond_type
In0 O1 2.294 . S
In0 O2 2.326 . S
In0 O6 2.266 . S
In0 O7 2.326 . S
In0 O8 2.266 . S
In0 O9 2.326 . S
In0 O11 2.294 . S
In0 O12 2.326 . S
O1 In0 2.294 . S
O1 C10 1.240 . S
O2 In0 2.326 . S
O2 C10 1.252 . S
C3 O6 1.252 . S
C3 O7 1.260 . S
C4 O11 1.240 . S
C4 O12 1.252 . S
C5 O8 1.252 . S
C5 O9 1.260 . S
O6 In0 2.266 . S
O6 C3 1.252 . S
O7 In0 2.326 . S
O7 C3 1.260 . S
O8 In0 2.266 . S
O8 C5 1.252 . S
O9 In0 2.326 . S
O9 C5 1.260 . S
C10 O1 1.240 . S
C10 O2 1.252 . S
O11 In0 2.294 . S
O11 C4 1.240 . S
O12 In0 2.326 . S
O12 C4 1.252 . S
In13 O14 2.294 . S
In13 O15 2.326 . S
In13 O19 2.266 . S
In13 O20 2.326 . S
In13 O21 2.266 . S
In13 O22 2.326 . S
In13 O24 2.294 . S
In13 O25 2.326 . S
O14 In13 2.294 . S
O14 C23 1.240 . S
O15 In13 2.326 . S
O15 C23 1.252 . S
C16 O19 1.252 . S
C16 O20 1.260 . S
C17 O24 1.240 . S
C17 O25 1.252 . S
C18 O21 1.252 . S
C18 O22 1.260 . S
O19 In13 2.266 . S
O19 C16 1.252 . S
O20 In13 2.326 . S
O20 C16 1.260 . S
O21 In13 2.266 . S
O21 C18 1.252 . S
O22 In13 2.326 . S
O22 C18 1.260 . S
C23 O14 1.240 . S
C23 O15 1.252 . S
O24 In13 2.294 . S
O24 C17 1.240 . S
O25 In13 2.326 . S
O25 C17 1.252 . S
In26 O27 2.294 . S
In26 O28 2.326 . S
In26 O32 2.266 . S
In26 O33 2.326 . S
In26 O34 2.266 . S
In26 O35 2.326 . S
In26 O37 2.294 . S
In26 O38 2.326 . S
O27 In26 2.294 . S
O27 C36 1.240 . S
O28 In26 2.326 . S
O28 C36 1.252 . S
C29 O32 1.252 . S
C29 O33 1.260 . S
C30 O37 1.240 . S
C30 O38 1.252 . S
C31 O34 1.252 . S
C31 O35 1.260 . S
O32 In26 2.266 . S
O32 C29 1.252 . S
O33 In26 2.326 . S
O33 C29 1.260 . S
O34 In26 2.266 . S
O34 C31 1.252 . S
O35 In26 2.326 . S
O35 C31 1.260 . S
C36 O27 1.240 . S
C36 O28 1.252 . S
O37 In26 2.294 . S
O37 C30 1.240 . S
O38 In26 2.326 . S
O38 C30 1.252 . S
In39 O40 2.294 . S
In39 O41 2.326 . S
In39 O45 2.266 . S
In39 O46 2.326 . S
In39 O47 2.266 . S
In39 O48 2.326 . S
In39 O50 2.294 . S
In39 O51 2.326 . S
O40 In39 2.294 . S
O40 C49 1.240 . S
O41 In39 2.326 . S
O41 C49 1.252 . S
C42 O45 1.252 . S
C42 O46 1.260 . S
C43 O50 1.240 . S
C43 O51 1.252 . S
C44 O47 1.252 . S
C44 O48 1.260 . S
O45 In39 2.266 . S
O45 C42 1.252 . S
O46 In39 2.326 . S
O46 C42 1.260 . S
O47 In39 2.266 . S
O47 C44 1.252 . S
O48 In39 2.326 . S
O48 C44 1.260 . S
C49 O40 1.240 . S
C49 O41 1.252 . S
O50 In39 2.294 . S
O50 C43 1.240 . S
O51 In39 2.326 . S
O51 C43 1.252 . S
In52 O53 2.294 . S
In52 O54 2.326 . S
In52 O58 2.266 . S
In52 O59 2.326 . S
In52 O60 2.266 . S
In52 O61 2.326 . S
In52 O63 2.294 . S
In52 O64 2.326 . S
O53 In52 2.294 . S
O53 C62 1.240 . S
O54 In52 2.326 . S
O54 C62 1.252 . S
C55 O58 1.252 . S
C55 O59 1.260 . S
C56 O63 1.240 . S
C56 O64 1.252 . S
C57 O60 1.252 . S
C57 O61 1.260 . S
O58 In52 2.266 . S
O58 C55 1.252 . S
O59 In52 2.326 . S
O59 C55 1.260 . S
O60 In52 2.266 . S
O60 C57 1.252 . S
O61 In52 2.326 . S
O61 C57 1.260 . S
C62 O53 1.240 . S
C62 O54 1.252 . S
O63 In52 2.294 . S
O63 C56 1.240 . S
O64 In52 2.326 . S
O64 C56 1.252 . S
In65 O66 2.294 . S
In65 O67 2.326 . S
In65 O71 2.266 . S
In65 O72 2.326 . S
In65 O73 2.266 . S
In65 O74 2.326 . S
In65 O76 2.294 . S
In65 O77 2.326 . S
O66 In65 2.294 . S
O66 C75 1.240 . S
O67 In65 2.326 . S
O67 C75 1.252 . S
C68 O71 1.252 . S
C68 O72 1.260 . S
C69 O76 1.240 . S
C69 O77 1.252 . S
C70 O73 1.252 . S
C70 O74 1.260 . S
O71 In65 2.266 . S
O71 C68 1.252 . S
O72 In65 2.326 . S
O72 C68 1.260 . S
O73 In65 2.266 . S
O73 C70 1.252 . S
O74 In65 2.326 . S
O74 C70 1.260 . S
C75 O66 1.240 . S
C75 O67 1.252 . S
O76 In65 2.294 . S
O76 C69 1.240 . S
O77 In65 2.326 . S
O77 C69 1.252 . S
In78 O79 2.294 . S
In78 O80 2.326 . S
In78 O84 2.266 . S
In78 O85 2.326 . S
In78 O86 2.266 . S
In78 O87 2.326 . S
In78 O89 2.294 . S
In78 O90 2.326 . S
O79 In78 2.294 . S
O79 C88 1.240 . S
O80 In78 2.326 . S
O80 C88 1.252 . S
C81 O84 1.252 . S
C81 O85 1.260 . S
C82 O89 1.240 . S
C82 O90 1.252 . S
C83 O86 1.252 . S
C83 O87 1.260 . S
O84 In78 2.266 . S
O84 C81 1.252 . S
O85 In78 2.326 . S
O85 C81 1.260 . S
O86 In78 2.266 . S
O86 C83 1.252 . S
O87 In78 2.326 . S
O87 C83 1.260 . S
C88 O79 1.240 . S
C88 O80 1.252 . S
O89 In78 2.294 . S
O89 C82 1.240 . S
O90 In78 2.326 . S
O90 C82 1.252 . S
In91 O92 2.294 . S
In91 O93 2.326 . S
In91 O97 2.266 . S
In91 O98 2.326 . S
In91 O99 2.266 . S
In91 O100 2.326 . S
In91 O102 2.294 . S
In91 O103 2.326 . S
O92 In91 2.294 . S
O92 C101 1.240 . S
O93 In91 2.326 . S
O93 C101 1.252 . S
C94 O97 1.252 . S
C94 O98 1.260 . S
C95 O102 1.240 . S
C95 O103 1.252 . S
C96 O99 1.252 . S
C96 O100 1.260 . S
O97 In91 2.266 . S
O97 C94 1.252 . S
O98 In91 2.326 . S
O98 C94 1.260 . S
O99 In91 2.266 . S
O99 C96 1.252 . S
O100 In91 2.326 . S
O100 C96 1.260 . S
C101 O92 1.240 . S
C101 O93 1.252 . S
O102 In91 2.294 . S
O102 C95 1.240 . S
O103 In91 2.326 . S
O103 C95 1.252 . S
In104 O105 2.294 . S
In104 O106 2.326 . S
In104 O110 2.266 . S
In104 O111 2.326 . S
In104 O112 2.266 . S
In104 O113 2.326 . S
In104 O115 2.294 . S
In104 O116 2.326 . S
O105 In104 2.294 . S
O105 C114 1.240 . S
O106 In104 2.326 . S
O106 C114 1.252 . S
C107 O110 1.252 . S
C107 O111 1.260 . S
C108 O115 1.240 . S
C108 O116 1.252 . S
C109 O112 1.252 . S
C109 O113 1.260 . S
O110 In104 2.266 . S
O110 C107 1.252 . S
O111 In104 2.326 . S
O111 C107 1.260 . S
O112 In104 2.266 . S
O112 C109 1.252 . S
O113 In104 2.326 . S
O113 C109 1.260 . S
C114 O105 1.240 . S
C114 O106 1.252 . S
O115 In104 2.294 . S
O115 C108 1.240 . S
O116 In104 2.326 . S
O116 C108 1.252 . S
In117 O118 2.294 . S
In117 O119 2.326 . S
In117 O123 2.266 . S
In117 O124 2.326 . S
In117 O125 2.266 . S
In117 O126 2.326 . S
In117 O128 2.294 . S
In117 O129 2.326 . S
O118 In117 2.294 . S
O118 C127 1.240 . S
O119 In117 2.326 . S
O119 C127 1.252 . S
C120 O123 1.252 . S
C120 O124 1.260 . S
C121 O128 1.240 . S
C121 O129 1.252 . S
C122 O125 1.252 . S
C122 O126 1.260 . S
O123 In117 2.266 . S
O123 C120 1.252 . S
O124 In117 2.326 . S
O124 C120 1.260 . S
O125 In117 2.266 . S
O125 C122 1.252 . S
O126 In117 2.326 . S
O126 C122 1.260 . S
C127 O118 1.240 . S
C127 O119 1.252 . S
O128 In117 2.294 . S
O128 C121 1.240 . S
O129 In117 2.326 . S
O129 C121 1.252 . S
In130 O131 2.294 . S
In130 O132 2.326 . S
In130 O136 2.266 . S
In130 O137 2.326 . S
In130 O138 2.266 . S
In130 O139 2.326 . S
In130 O141 2.294 . S
In130 O142 2.326 . S
O131 In130 2.294 . S
O131 C140 1.240 . S
O132 In130 2.326 . S
O132 C140 1.252 . S
C133 O136 1.252 . S
C133 O137 1.260 . S
C134 O141 1.240 . S
C134 O142 1.252 . S
C135 O138 1.252 . S
C135 O139 1.260 . S
O136 In130 2.266 . S
O136 C133 1.252 . S
O137 In130 2.326 . S
O137 C133 1.260 . S
O138 In130 2.266 . S
O138 C135 1.252 . S
O139 In130 2.326 . S
O139 C135 1.260 . S
C140 O131 1.240 . S
C140 O132 1.252 . S
O141 In130 2.294 . S
O141 C134 1.240 . S
O142 In130 2.326 . S
O142 C134 1.252 . S
In143 O144 2.294 . S
In143 O145 2.326 . S
In143 O149 2.266 . S
In143 O150 2.326 . S
In143 O151 2.266 . S
In143 O152 2.326 . S
In143 O154 2.294 . S
In143 O155 2.326 . S
O144 In143 2.294 . S
O144 C153 1.240 . S
O145 In143 2.326 . S
O145 C153 1.252 . S
C146 O149 1.252 . S
C146 O150 1.260 . S
C147 O154 1.240 . S
C147 O155 1.252 . S
C148 O151 1.252 . S
C148 O152 1.260 . S
O149 In143 2.266 . S
O149 C146 1.252 . S
O150 In143 2.326 . S
O150 C146 1.260 . S
O151 In143 2.266 . S
O151 C148 1.252 . S
O152 In143 2.326 . S
O152 C148 1.260 . S
C153 O144 1.240 . S
C153 O145 1.252 . S
O154 In143 2.294 . S
O154 C147 1.240 . S
O155 In143 2.326 . S
O155 C147 1.252 . S
In156 O157 2.294 . S
In156 O158 2.326 . S
In156 O162 2.266 . S
In156 O163 2.326 . S
In156 O164 2.266 . S
In156 O165 2.326 . S
In156 O167 2.294 . S
In156 O168 2.326 . S
O157 In156 2.294 . S
O157 C166 1.240 . S
O158 In156 2.326 . S
O158 C166 1.252 . S
C159 O162 1.252 . S
C159 O163 1.260 . S
C160 O167 1.240 . S
C160 O168 1.252 . S
C161 O164 1.252 . S
C161 O165 1.260 . S
O162 In156 2.266 . S
O162 C159 1.252 . S
O163 In156 2.326 . S
O163 C159 1.260 . S
O164 In156 2.266 . S
O164 C161 1.252 . S
O165 In156 2.326 . S
O165 C161 1.260 . S
C166 O157 1.240 . S
C166 O158 1.252 . S
O167 In156 2.294 . S
O167 C160 1.240 . S
O168 In156 2.326 . S
O168 C160 1.252 . S
In169 O170 2.294 . S
In169 O171 2.326 . S
In169 O175 2.266 . S
In169 O176 2.326 . S
In169 O177 2.266 . S
In169 O178 2.326 . S
In169 O180 2.294 . S
In169 O181 2.326 . S
O170 In169 2.294 . S
O170 C179 1.240 . S
O171 In169 2.326 . S
O171 C179 1.252 . S
C172 O175 1.252 . S
C172 O176 1.260 . S
C173 O180 1.240 . S
C173 O181 1.252 . S
C174 O177 1.252 . S
C174 O178 1.260 . S
O175 In169 2.266 . S
O175 C172 1.252 . S
O176 In169 2.326 . S
O176 C172 1.260 . S
O177 In169 2.266 . S
O177 C174 1.252 . S
O178 In169 2.326 . S
O178 C174 1.260 . S
C179 O170 1.240 . S
C179 O171 1.252 . S
O180 In169 2.294 . S
O180 C173 1.240 . S
O181 In169 2.326 . S
O181 C173 1.252 . S
In182 O183 2.294 . S
In182 O184 2.326 . S
In182 O188 2.266 . S
In182 O189 2.326 . S
In182 O190 2.266 . S
In182 O191 2.326 . S
In182 O193 2.294 . S
In182 O194 2.326 . S
O183 In182 2.294 . S
O183 C192 1.240 . S
O184 In182 2.326 . S
O184 C192 1.252 . S
C185 O188 1.252 . S
C185 O189 1.260 . S
C186 O193 1.240 . S
C186 O194 1.252 . S
C187 O190 1.252 . S
C187 O191 1.260 . S
O188 In182 2.266 . S
O188 C185 1.252 . S
O189 In182 2.326 . S
O189 C185 1.260 . S
O190 In182 2.266 . S
O190 C187 1.252 . S
O191 In182 2.326 . S
O191 C187 1.260 . S
C192 O183 1.240 . S
C192 O184 1.252 . S
O193 In182 2.294 . S
O193 C186 1.240 . S
O194 In182 2.326 . S
O194 C186 1.252 . S
In195 O196 2.294 . S
In195 O197 2.326 . S
In195 O201 2.266 . S
In195 O202 2.326 . S
In195 O203 2.266 . S
In195 O204 2.326 . S
In195 O206 2.294 . S
In195 O207 2.326 . S
O196 In195 2.294 . S
O196 C205 1.240 . S
O197 In195 2.326 . S
O197 C205 1.252 . S
C198 O201 1.252 . S
C198 O202 1.260 . S
C199 O206 1.240 . S
C199 O207 1.252 . S
C200 O203 1.252 . S
C200 O204 1.260 . S
O201 In195 2.266 . S
O201 C198 1.252 . S
O202 In195 2.326 . S
O202 C198 1.260 . S
O203 In195 2.266 . S
O203 C200 1.252 . S
O204 In195 2.326 . S
O204 C200 1.260 . S
C205 O196 1.240 . S
C205 O197 1.252 . S
O206 In195 2.294 . S
O206 C199 1.240 . S
O207 In195 2.326 . S
O207 C199 1.252 . S
C208 C209 1.369 . S
C208 C210 1.419 . S
C208 H212 0.930 . S
C209 C208 1.369 . S
C209 C218 1.429 . S
C210 C208 1.419 . S
C210 C211 1.363 . S
C210 H213 0.929 . S
C211 C210 1.363 . S
C211 C217 1.428 . S
H212 C208 0.930 . S
H213 C210 0.929 . S
S214 N215 1.613 . S
S214 N216 1.610 . S
N215 S214 1.613 . S
N215 C218 1.350 . S
N216 S214 1.610 . S
N216 C217 1.351 . S
C217 C211 1.428 . S
C217 N216 1.351 . S
C217 C218 1.434 . S
C218 C209 1.429 . S
C218 N215 1.350 . S
C218 C217 1.434 . S
C219 C220 1.369 . S
C219 C221 1.419 . S
C219 H223 0.930 . S
C220 C219 1.369 . S
C220 C229 1.429 . S
C221 C219 1.419 . S
C221 C222 1.363 . S
C221 H224 0.929 . S
C222 C221 1.363 . S
C222 C228 1.428 . S
H223 C219 0.930 . S
H224 C221 0.929 . S
S225 N226 1.613 . S
S225 N227 1.610 . S
N226 S225 1.613 . S
N226 C229 1.350 . S
N227 S225 1.610 . S
N227 C228 1.351 . S
C228 C222 1.428 . S
C228 N227 1.351 . S
C228 C229 1.434 . S
C229 C220 1.429 . S
C229 N226 1.350 . S
C229 C228 1.434 . S
C230 C231 1.369 . S
C230 C232 1.419 . S
C230 H234 0.930 . S
C231 C230 1.369 . S
C231 C240 1.429 . S
C232 C230 1.419 . S
C232 C233 1.363 . S
C232 H235 0.929 . S
C233 C232 1.363 . S
C233 C239 1.428 . S
H234 C230 0.930 . S
H235 C232 0.929 . S
S236 N237 1.613 . S
S236 N238 1.610 . S
N237 S236 1.613 . S
N237 C240 1.350 . S
N238 S236 1.610 . S
N238 C239 1.351 . S
C239 C233 1.428 . S
C239 N238 1.351 . S
C239 C240 1.434 . S
C240 C231 1.429 . S
C240 N237 1.350 . S
C240 C239 1.434 . S
C241 C242 1.369 . S
C241 C243 1.419 1_455 S
C241 H245 0.930 . S
C242 C241 1.369 . S
C242 C251 1.429 . S
C243 C241 1.419 1_655 S
C243 C244 1.363 . S
C243 H246 0.929 . S
C244 C243 1.363 . S
C244 C250 1.428 . S
H245 C241 0.930 . S
H246 C243 0.929 . S
S247 N248 1.609 1_655 S
S247 N249 1.614 . S
N248 S247 1.609 1_455 S
N248 C251 1.350 . S
N249 S247 1.614 . S
N249 C250 1.351 . S
C250 C244 1.428 . S
C250 N249 1.351 . S
C250 C251 1.434 1_655 S
C251 C242 1.429 . S
C251 N248 1.350 . S
C251 C250 1.434 1_455 S
C252 C253 1.369 . S
C252 C254 1.419 . S
C252 H256 0.930 . S
C253 C252 1.369 . S
C253 C262 1.429 . S
C254 C252 1.419 . S
C254 C255 1.363 . S
C254 H257 0.929 . S
C255 C254 1.363 . S
C255 C261 1.428 . S
H256 C252 0.930 . S
H257 C254 0.929 . S
S258 N259 1.613 . S
S258 N260 1.610 . S
N259 S258 1.613 . S
N259 C262 1.350 . S
N260 S258 1.610 . S
N260 C261 1.351 . S
C261 C255 1.428 . S
C261 N260 1.351 . S
C261 C262 1.434 . S
C262 C253 1.429 . S
C262 N259 1.350 . S
C262 C261 1.434 . S
C263 C264 1.369 . S
C263 C265 1.419 1_655 S
C263 H267 0.930 . S
C264 C263 1.369 . S
C264 C273 1.429 . S
C265 C263 1.419 1_455 S
C265 C266 1.363 . S
C265 H268 0.929 . S
C266 C265 1.363 . S
C266 C272 1.428 . S
H267 C263 0.930 . S
H268 C265 0.929 . S
S269 N270 1.633 . S
S269 N271 1.590 1_655 S
N270 S269 1.633 . S
N270 C273 1.350 . S
N271 S269 1.590 1_455 S
N271 C272 1.351 . S
C272 C266 1.428 . S
C272 N271 1.351 . S
C272 C273 1.434 1_455 S
C273 C264 1.429 . S
C273 N270 1.350 . S
C273 C272 1.434 1_655 S
C274 C275 1.369 . S
C274 C276 1.419 . S
C274 H278 0.930 . S
C275 C274 1.369 . S
C275 C284 1.429 . S
C276 C274 1.419 . S
C276 C277 1.363 . S
C276 H279 0.929 . S
C277 C276 1.363 . S
C277 C283 1.428 . S
H278 C274 0.930 . S
H279 C276 0.929 . S
S280 N281 1.613 . S
S280 N282 1.610 . S
N281 S280 1.613 . S
N281 C284 1.350 . S
N282 S280 1.610 . S
N282 C283 1.351 . S
C283 C277 1.428 . S
C283 N282 1.351 . S
C283 C284 1.434 . S
C284 C275 1.429 . S
C284 N281 1.350 . S
C284 C283 1.434 . S
C285 C286 1.369 . S
C285 C287 1.419 . S
C285 H289 0.930 . S
C286 C285 1.369 . S
C286 C295 1.429 . S
C287 C285 1.419 . S
C287 C288 1.363 . S
C287 H290 0.929 . S
C288 C287 1.363 . S
C288 C294 1.428 . S
H289 C285 0.930 . S
H290 C287 0.929 . S
S291 N292 1.613 . S
S291 N293 1.610 . S
N292 S291 1.613 . S
N292 C295 1.350 . S
N293 S291 1.610 . S
N293 C294 1.351 . S
C294 C288 1.428 . S
C294 N293 1.351 . S
C294 C295 1.434 . S
C295 C286 1.429 . S
C295 N292 1.350 . S
C295 C294 1.434 . S
C296 C297 1.369 . S
C296 C298 1.419 . S
C296 H300 0.930 . S
C297 C296 1.369 . S
C297 C306 1.429 . S
C298 C296 1.419 . S
C298 C299 1.363 . S
C298 H301 0.929 . S
C299 C298 1.363 . S
C299 C305 1.428 . S
H300 C296 0.930 . S
H301 C298 0.929 . S
S302 N303 1.613 . S
S302 N304 1.610 . S
N303 S302 1.613 . S
N303 C306 1.350 . S
N304 S302 1.610 . S
N304 C305 1.351 . S
C305 C299 1.428 . S
C305 N304 1.351 . S
C305 C306 1.434 . S
C306 C297 1.429 . S
C306 N303 1.350 . S
C306 C305 1.434 . S
C307 C308 1.369 . S
C307 C309 1.419 . S
C307 H311 0.930 . S
C308 C307 1.369 . S
C308 C317 1.429 . S
C309 C307 1.419 . S
C309 C310 1.363 . S
C309 H312 0.929 . S
C310 C309 1.363 . S
C310 C316 1.428 . S
H311 C307 0.930 . S
H312 C309 0.929 . S
S313 N314 1.613 . S
S313 N315 1.610 . S
N314 S313 1.613 . S
N314 C317 1.350 . S
N315 S313 1.610 . S
N315 C316 1.351 . S
C316 C310 1.428 . S
C316 N315 1.351 . S
C316 C317 1.434 . S
C317 C308 1.429 . S
C317 N314 1.350 . S
C317 C316 1.434 . S
C318 C319 1.369 . S
C318 C320 1.419 . S
C318 H322 0.930 . S
C319 C318 1.369 . S
C319 C328 1.429 . S
C320 C318 1.419 . S
C320 C321 1.363 . S
C320 H323 0.929 . S
C321 C320 1.363 . S
C321 C327 1.428 . S
H322 C318 0.930 . S
H323 C320 0.929 . S
S324 N325 1.613 . S
S324 N326 1.610 . S
N325 S324 1.613 . S
N325 C328 1.350 . S
N326 S324 1.610 . S
N326 C327 1.351 . S
C327 C321 1.428 . S
C327 N326 1.351 . S
C327 C328 1.434 . S
C328 C319 1.429 . S
C328 N325 1.350 . S
C328 C327 1.434 . S
C329 C330 1.369 . S
C329 C331 1.419 . S
C329 H333 0.930 . S
C330 C329 1.369 . S
C330 C339 1.429 . S
C331 C329 1.419 . S
C331 C332 1.363 . S
C331 H334 0.929 . S
C332 C331 1.363 . S
C332 C338 1.428 . S
H333 C329 0.930 . S
H334 C331 0.929 . S
S335 N336 1.613 . S
S335 N337 1.610 . S
N336 S335 1.613 . S
N336 C339 1.350 . S
N337 S335 1.610 . S
N337 C338 1.351 . S
C338 C332 1.428 . S
C338 N337 1.351 . S
C338 C339 1.434 . S
C339 C330 1.429 . S
C339 N336 1.350 . S
C339 C338 1.434 . S
C340 C341 1.369 . S
C340 C342 1.419 1_455 S
C340 H344 0.930 . S
C341 C340 1.369 . S
C341 C350 1.429 . S
C342 C340 1.419 1_655 S
C342 C343 1.363 . S
C342 H345 0.929 . S
C343 C342 1.363 . S
C343 C349 1.428 . S
H344 C340 0.930 . S
H345 C342 0.929 . S
S346 N347 1.620 . S
S346 N348 1.603 1_455 S
N347 S346 1.620 . S
N347 C350 1.350 . S
N348 S346 1.603 1_655 S
N348 C349 1.351 . S
C349 C343 1.428 . S
C349 N348 1.351 . S
C349 C350 1.434 1_655 S
C350 C341 1.429 . S
C350 N347 1.350 . S
C350 C349 1.434 1_455 S
C351 C352 1.369 . S
C351 C353 1.419 . S
C351 H355 0.930 . S
C352 C351 1.369 . S
C352 C361 1.429 . S
C353 C351 1.419 . S
C353 C354 1.363 . S
C353 H356 0.929 . S
C354 C353 1.363 . S
C354 C360 1.428 . S
H355 C351 0.930 . S
H356 C353 0.929 . S
S357 N358 1.613 . S
S357 N359 1.610 . S
N358 S357 1.613 . S
N358 C361 1.350 . S
N359 S357 1.610 . S
N359 C360 1.351 . S
C360 C354 1.428 . S
C360 N359 1.351 . S
C360 C361 1.434 . S
C361 C352 1.429 . S
C361 N358 1.350 . S
C361 C360 1.434 . S
C362 C363 1.369 . S
C362 C364 1.419 . S
C362 H366 0.930 . S
C363 C362 1.369 . S
C363 C372 1.429 . S
C364 C362 1.419 . S
C364 C365 1.363 . S
C364 H367 0.929 . S
C365 C364 1.363 . S
C365 C371 1.428 . S
H366 C362 0.930 . S
H367 C364 0.929 . S
S368 N369 1.613 . S
S368 N370 1.610 . S
N369 S368 1.613 . S
N369 C372 1.350 . S
N370 S368 1.610 . S
N370 C371 1.351 . S
C371 C365 1.428 . S
C371 N370 1.351 . S
C371 C372 1.434 . S
C372 C363 1.429 . S
C372 N369 1.350 . S
C372 C371 1.434 . S
C373 C374 1.369 . S
C373 C375 1.419 1_455 S
C373 H377 0.930 . S
C374 C373 1.369 . S
C374 C383 1.429 . S
C375 C373 1.419 1_655 S
C375 C376 1.363 . S
C375 H378 0.929 . S
C376 C375 1.363 . S
C376 C382 1.428 . S
H377 C373 0.930 . S
H378 C375 0.929 . S
S379 N380 1.620 . S
S379 N381 1.604 1_455 S
N380 S379 1.620 . S
N380 C383 1.350 . S
N381 S379 1.604 1_655 S
N381 C382 1.351 . S
C382 C376 1.428 . S
C382 N381 1.351 . S
C382 C383 1.434 1_655 S
C383 C374 1.429 . S
C383 N380 1.350 . S
C383 C382 1.434 1_455 S
C384 C385 1.369 . S
C384 C386 1.419 1_554 S
C384 H388 0.930 . S
C385 C384 1.369 . S
C385 C394 1.429 . S
C386 C384 1.419 1_556 S
C386 C387 1.363 . S
C386 H389 0.929 . S
C387 C386 1.363 . S
C387 C393 1.428 . S
H388 C384 0.930 . S
H389 C386 0.929 . S
S390 N391 1.613 . S
S390 N392 1.610 1_554 S
N391 S390 1.613 . S
N391 C394 1.350 . S
N392 S390 1.610 1_556 S
N392 C393 1.351 . S
C393 C387 1.428 . S
C393 N392 1.351 . S
C393 C394 1.434 1_556 S
C394 C385 1.429 . S
C394 N391 1.350 . S
C394 C393 1.434 1_554 S
C395 C396 1.369 . S
C395 C397 1.419 . S
C395 H399 0.930 . S
C396 C395 1.369 . S
C396 C405 1.429 . S
C397 C395 1.419 . S
C397 C398 1.363 . S
C397 H400 0.929 . S
C398 C397 1.363 . S
C398 C404 1.428 . S
H399 C395 0.930 . S
H400 C397 0.929 . S
S401 N402 1.613 . S
S401 N403 1.610 . S
N402 S401 1.613 . S
N402 C405 1.350 . S
N403 S401 1.610 . S
N403 C404 1.351 . S
C404 C398 1.428 . S
C404 N403 1.351 . S
C404 C405 1.434 . S
C405 C396 1.429 . S
C405 N402 1.350 . S
C405 C404 1.434 . S
C406 C407 1.369 . S
C406 C408 1.419 . S
C406 H410 0.930 . S
C407 C406 1.369 . S
C407 C416 1.429 . S
C408 C406 1.419 . S
C408 C409 1.363 . S
C408 H411 0.929 . S
C409 C408 1.363 . S
C409 C415 1.428 . S
H410 C406 0.930 . S
H411 C408 0.929 . S
S412 N413 1.613 . S
S412 N414 1.610 . S
N413 S412 1.613 . S
N413 C416 1.350 . S
N414 S412 1.610 . S
N414 C415 1.351 . S
C415 C409 1.428 . S
C415 N414 1.351 . S
C415 C416 1.434 . S
C416 C407 1.429 . S
C416 N413 1.350 . S
C416 C415 1.434 . S
C417 C418 1.369 . S
C417 C419 1.419 . S
C417 H421 0.930 . S
C418 C417 1.369 . S
C418 C427 1.429 . S
C419 C417 1.419 . S
C419 C420 1.363 . S
C419 H422 0.929 . S
C420 C419 1.363 . S
C420 C426 1.428 . S
H421 C417 0.930 . S
H422 C419 0.929 . S
S423 N424 1.613 . S
S423 N425 1.610 . S
N424 S423 1.613 . S
N424 C427 1.350 . S
N425 S423 1.610 . S
N425 C426 1.351 . S
C426 C420 1.428 . S
C426 N425 1.351 . S
C426 C427 1.434 . S
C427 C418 1.429 . S
C427 N424 1.350 . S
C427 C426 1.434 . S
C428 C429 1.369 . S
C428 C430 1.419 1_556 S
C428 H432 0.930 . S
C429 C428 1.369 . S
C429 C438 1.429 . S
C430 C428 1.419 1_554 S
C430 C431 1.363 . S
C430 H433 0.929 . S
C431 C430 1.363 . S
C431 C437 1.428 . S
H432 C428 0.930 . S
H433 C430 0.929 . S
S434 N435 1.613 . S
S434 N436 1.610 1_556 S
N435 S434 1.613 . S
N435 C438 1.350 . S
N436 S434 1.610 1_554 S
N436 C437 1.351 . S
C437 C431 1.428 . S
C437 N436 1.351 . S
C437 C438 1.434 1_554 S
C438 C429 1.429 . S
C438 N435 1.350 . S
C438 C437 1.434 1_556 S
C439 C440 1.369 . S
C439 C441 1.419 . S
C439 H443 0.930 . S
C440 C439 1.369 . S
C440 C449 1.429 . S
C441 C439 1.419 . S
C441 C442 1.363 . S
C441 H444 0.929 . S
C442 C441 1.363 . S
C442 C448 1.428 . S
H443 C439 0.930 . S
H444 C441 0.929 . S
S445 N446 1.613 . S
S445 N447 1.610 . S
N446 S445 1.613 . S
N446 C449 1.350 . S
N447 S445 1.610 . S
N447 C448 1.351 . S
C448 C442 1.428 . S
C448 N447 1.351 . S
C448 C449 1.434 . S
C449 C440 1.429 . S
C449 N446 1.350 . S
C449 C448 1.434 . S
C450 C451 1.369 . S
C450 C452 1.419 . S
C450 H454 0.930 . S
C451 C450 1.369 . S
C451 C460 1.429 . S
C452 C450 1.419 . S
C452 C453 1.363 . S
C452 H455 0.929 . S
C453 C452 1.363 . S
C453 C459 1.428 . S
H454 C450 0.930 . S
H455 C452 0.929 . S
S456 N457 1.613 . S
S456 N458 1.610 . S
N457 S456 1.613 . S
N457 C460 1.350 . S
N458 S456 1.610 . S
N458 C459 1.351 . S
C459 C453 1.428 . S
C459 N458 1.351 . S
C459 C460 1.434 . S
C460 C451 1.429 . S
C460 N457 1.350 . S
C460 C459 1.434 . S
C461 C462 1.369 . S
C461 C463 1.419 . S
C461 H465 0.930 . S
C462 C461 1.369 . S
C462 C471 1.429 . S
C463 C461 1.419 . S
C463 C464 1.363 . S
C463 H466 0.929 . S
C464 C463 1.363 . S
C464 C470 1.428 . S
H465 C461 0.930 . S
H466 C463 0.929 . S
S467 N468 1.613 . S
S467 N469 1.610 . S
N468 S467 1.613 . S
N468 C471 1.350 . S
N469 S467 1.610 . S
N469 C470 1.351 . S
C470 C464 1.428 . S
C470 N469 1.351 . S
C470 C471 1.434 . S
C471 C462 1.429 . S
C471 N468 1.350 . S
C471 C470 1.434 . S
C472 C473 1.369 1_565 S
C472 C474 1.419 . S
C472 H476 0.930 . S
C473 C472 1.369 1_545 S
C473 C482 1.429 . S
C474 C472 1.419 . S
C474 C475 1.363 . S
C474 H477 0.929 . S
C475 C474 1.363 . S
C475 C481 1.428 1_565 S
H476 C472 0.930 . S
H477 C474 0.929 . S
S478 N479 1.613 . S
S478 N480 1.610 . S
N479 S478 1.613 . S
N479 C482 1.350 . S
N480 S478 1.610 . S
N480 C481 1.351 . S
C481 C475 1.428 1_545 S
C481 N480 1.351 . S
C481 C482 1.434 . S
C482 C473 1.429 . S
C482 N479 1.350 . S
C482 C481 1.434 . S
C483 C484 1.369 . S
C483 C485 1.419 . S
C483 H487 0.930 . S
C484 C483 1.369 . S
C484 C493 1.429 . S
C485 C483 1.419 . S
C485 C486 1.363 . S
C485 H488 0.929 . S
C486 C485 1.363 . S
C486 C492 1.428 . S
H487 C483 0.930 . S
H488 C485 0.929 . S
S489 N490 1.613 . S
S489 N491 1.610 . S
N490 S489 1.613 . S
N490 C493 1.350 . S
N491 S489 1.610 . S
N491 C492 1.351 . S
C492 C486 1.428 . S
C492 N491 1.351 . S
C492 C493 1.434 . S
C493 C484 1.429 . S
C493 N490 1.350 . S
C493 C492 1.434 . S
C494 C495 1.369 1_554 S
C494 C496 1.419 . S
C494 H498 0.930 . S
C495 C494 1.369 1_556 S
C495 C504 1.429 1_545 S
C496 C494 1.419 . S
C496 C497 1.363 1_545 S
C496 H499 0.929 . S
C497 C496 1.363 1_565 S
C497 C503 1.428 1_554 S
H498 C494 0.930 . S
H499 C496 0.929 . S
S500 N501 1.613 . S
S500 N502 1.610 . S
N501 S500 1.613 . S
N501 C504 1.350 . S
N502 S500 1.610 . S
N502 C503 1.351 . S
C503 C497 1.428 1_556 S
C503 N502 1.351 . S
C503 C504 1.434 . S
C504 C495 1.429 1_565 S
C504 N501 1.350 . S
C504 C503 1.434 . S
C505 C506 1.369 . S
C505 C507 1.419 . S
C505 H509 0.930 . S
C506 C505 1.369 . S
C506 C515 1.429 . S
C507 C505 1.419 . S
C507 C508 1.363 . S
C507 H510 0.929 . S
C508 C507 1.363 . S
C508 C514 1.428 . S
H509 C505 0.930 . S
H510 C507 0.929 . S
S511 N512 1.613 . S
S511 N513 1.610 . S
N512 S511 1.613 . S
N512 C515 1.350 . S
N513 S511 1.610 . S
N513 C514 1.351 . S
C514 C508 1.428 . S
C514 N513 1.351 . S
C514 C515 1.434 . S
C515 C506 1.429 . S
C515 N512 1.350 . S
C515 C514 1.434 . S
C516 C517 1.350 1_565 S
C516 C518 1.436 . S
C516 H520 0.932 . S
C517 C516 1.350 1_545 S
C517 C526 1.429 . S
C518 C516 1.436 . S
C518 C519 1.363 . S
C518 H521 0.929 . S
C519 C518 1.363 . S
C519 C525 1.428 1_565 S
H520 C516 0.932 . S
H521 C518 0.929 . S
S522 N523 1.613 . S
S522 N524 1.610 . S
N523 S522 1.613 . S
N523 C526 1.350 . S
N524 S522 1.610 . S
N524 C525 1.351 . S
C525 C519 1.428 1_545 S
C525 N524 1.351 . S
C525 C526 1.434 . S
C526 C517 1.429 . S
C526 N523 1.350 . S
C526 C525 1.434 . S
C527 C528 1.369 . S
C527 C529 1.419 . S
C527 H531 0.930 . S
C528 C527 1.369 . S
C528 C537 1.429 . S
C529 C527 1.419 . S
C529 C530 1.363 . S
C529 H532 0.929 . S
C530 C529 1.363 . S
C530 C536 1.428 . S
H531 C527 0.930 . S
H532 C529 0.929 . S
S533 N534 1.613 . S
S533 N535 1.610 . S
N534 S533 1.613 . S
N534 C537 1.350 . S
N535 S533 1.610 . S
N535 C536 1.351 . S
C536 C530 1.428 . S
C536 N535 1.351 . S
C536 C537 1.434 . S
C537 C528 1.429 . S
C537 N534 1.350 . S
C537 C536 1.434 . S
C538 C539 1.369 1_545 S
C538 C540 1.419 . S
C538 H542 0.930 . S
C539 C538 1.369 1_565 S
C539 C548 1.429 1_554 S
C540 C538 1.419 . S
C540 C541 1.363 1_554 S
C540 H543 0.929 . S
C541 C540 1.363 1_556 S
C541 C547 1.428 1_545 S
H542 C538 0.930 . S
H543 C540 0.929 . S
S544 N545 1.613 . S
S544 N546 1.610 . S
N545 S544 1.613 . S
N545 C548 1.350 . S
N546 S544 1.610 . S
N546 C547 1.351 . S
C547 C541 1.428 1_565 S
C547 N546 1.351 . S
C547 C548 1.434 . S
C548 C539 1.429 1_556 S
C548 N545 1.350 . S
C548 C547 1.434 . S
C549 C550 1.369 . S
C549 C551 1.419 . S
C549 H553 0.930 . S
C550 C549 1.369 . S
C550 C559 1.429 . S
C551 C549 1.419 . S
C551 C552 1.363 . S
C551 H554 0.929 . S
C552 C551 1.363 . S
C552 C558 1.428 . S
H553 C549 0.930 . S
H554 C551 0.929 . S
S555 N556 1.613 . S
S555 N557 1.610 . S
N556 S555 1.613 . S
N556 C559 1.350 . S
N557 S555 1.610 . S
N557 C558 1.351 . S
C558 C552 1.428 . S
C558 N557 1.351 . S
C558 C559 1.434 . S
C559 C550 1.429 . S
C559 N556 1.350 . S
C559 C558 1.434 . S
C209 C148 1.488 . S
C211 C4 1.492 . S
C220 C199 1.495 . S
C222 C18 1.493 . S
C231 C29 1.490 . S
C233 C127 1.493 . S
C242 C179 1.486 . S
C244 C49 1.487 . S
C253 C62 1.492 . S
C255 C174 1.490 . S
C264 C70 1.492 . S
C266 C153 1.496 . S
C275 C81 1.497 . S
C277 C198 1.498 . S
C286 C101 1.497 . S
C288 C122 1.495 . S
C297 C44 1.495 . S
C299 C107 1.495 . S
C308 C135 1.493 . S
C310 C23 1.496 . S
C319 C160 1.488 . S
C321 C75 1.488 . S
C330 C187 1.495 . S
C332 C96 1.496 . S
C341 C57 1.490 . S
C343 C108 1.493 . S
C352 C140 1.491 . S
C354 C82 1.492 . S
C363 C192 1.491 . S
C365 C30 1.491 . S
C374 C3 1.499 . S
C376 C159 1.499 . S
C385 C5 1.430 . S
C387 C55 1.430 . S
C396 C17 1.415 . S
C398 C69 1.414 . S
C407 C36 1.419 . S
C409 C88 1.420 . S
C418 C94 1.426 . S
C420 C42 1.425 . S
C429 C114 1.417 . S
C431 C161 1.418 . S
C440 C172 1.420 . S
C442 C121 1.419 . S
C451 C134 1.421 . S
C453 C186 1.422 . S
C462 C200 1.428 . S
C464 C146 1.429 . S
C473 C95 1.422 . S
C475 C16 1.422 . S
C484 C31 1.423 . S
C486 C56 1.422 . S
C495 C43 1.426 . S
C497 C68 1.428 . S
C506 C10 1.418 . S
C508 C83 1.419 . S
C517 C120 1.426 . S
C519 C205 1.425 . S
C528 C166 1.426 . S
C530 C133 1.427 . S
C539 C147 1.417 . S
C541 C173 1.416 . S
C550 C185 1.421 . S
C552 C109 1.422 . S
