# Generated by pormake.
# Topology unh, (4)-cn, num edge types: 1
# Building blocks:
#     Node 0, Type 0, BuildingBlock: CEKHIL_clean_sbu_0, # of connection points: 4
#     Node 1, Type 0, BuildingBlock: CEKHIL_clean_sbu_0, # of connection points: 4
#     Node 2, Type 0, BuildingBlock: CEKHIL_clean_sbu_0, # of connection points: 4
#     Node 3, Type 0, BuildingBlock: CEKHIL_clean_sbu_0, # of connection points: 4
#     Node 4, Type 0, BuildingBlock: CEKHIL_clean_sbu_0, # of connection points: 4
#     Node 5, Type 0, BuildingBlock: CEKHIL_clean_sbu_0, # of connection points: 4
#     Edge 6, Type (0, 0), BuildingBlock: KIFKEQ_clean_linker_1, # of connection points: 2
#     Edge 7, Type (0, 0), BuildingBlock: KIFKEQ_clean_linker_1, # of connection points: 2
#     Edge 8, Type (0, 0), BuildingBlock: KIFKEQ_clean_linker_1, # of connection points: 2
#     Edge 9, Type (0, 0), BuildingBlock: KIFKEQ_clean_linker_1, # of connection points: 2
#     Edge 10, Type (0, 0), BuildingBlock: KIFKEQ_clean_linker_1, # of connection points: 2
#     Edge 11, Type (0, 0), BuildingBlock: KIFKEQ_clean_linker_1, # of connection points: 2
#     Edge 12, Type (0, 0), BuildingBlock: KIFKEQ_clean_linker_1, # of connection points: 2
#     Edge 13, Type (0, 0), BuildingBlock: KIFKEQ_clean_linker_1, # of connection points: 2
#     Edge 14, Type (0, 0), BuildingBlock: KIFKEQ_clean_linker_1, # of connection points: 2
#     Edge 15, Type (0, 0), BuildingBlock: KIFKEQ_clean_linker_1, # of connection points: 2
#     Edge 16, Type (0, 0), BuildingBlock: KIFKEQ_clean_linker_1, # of connection points: 2
#     Edge 17, Type (0, 0), BuildingBlock: KIFKEQ_clean_linker_1, # of connection points: 2
# Relax obj value: 0.073
# Max RMSD: 0.185
# Mean RMSD: 0.185
data_MOF--net-unh--node1-CEKHIL_clean_sbu_0--edge1-KIFKEQ_clean_linker_1
_symmetry_space_group_name_H-M    P1
_symmetry_Int_Tables_number       1
_symmetry_cell_setting            triclinic
loop_
_symmetry_equiv_pos_as_xyz
'x, y, z'
_cell_length_a     42.74755
_cell_length_b     42.675862
_cell_length_c     22.41
_cell_angle_alpha  89.942192
_cell_angle_beta   89.958686
_cell_angle_gamma 119.92908
loop_
_atom_site_label
_atom_site_type_symbol
_atom_site_fract_x
_atom_site_fract_y
_atom_site_fract_z
_atom_type_partial_charge
Co0 Co 0.12338 0.54322 0.10537 0.0
O1 O 0.0873 0.51061 0.1604 0.0
O2 O 0.09201 0.5619 0.12872 0.0
C3 C 0.17085 0.54433 0.15158 0.0
O4 O 0.15825 0.58443 0.05091 0.0
Co5 Co 0.1648 0.51593 0.0287 0.0
O6 O 0.19292 0.56685 0.00192 0.0
C7 C 0.09186 0.49794 0.99164 0.0
C8 C 0.07577 0.5335 0.16291 0.0
C9 C 0.18412 0.59052 0.01465 0.0
O10 O 0.0911 0.51707 0.0354 0.0
O11 O 0.11806 0.492 0.98314 0.0
O12 O 0.15779 0.56434 0.16964 0.0
O13 O 0.15246 0.5212 0.11013 0.0
Co14 Co 0.57485 0.1247 0.2777 0.0
O15 O 0.57007 0.08605 0.32783 0.0
O16 O 0.52473 0.09401 0.30096 0.0
C17 C 0.62265 0.16898 0.32647 0.0
O18 O 0.57006 0.16241 0.2282 0.0
Co19 Co 0.64377 0.16812 0.2014 0.0
O20 O 0.62561 0.20263 0.19498 0.0
C21 C 0.58719 0.09664 0.15915 0.0
C22 C 0.536 0.07567 0.33173 0.0
C23 C 0.59245 0.19267 0.20323 0.0
O24 O 0.56751 0.09469 0.20408 0.0
O25 O 0.61946 0.12285 0.15158 0.0
O26 O 0.59005 0.15696 0.34602 0.0
O27 O 0.62571 0.15172 0.28139 0.0
Co28 Co 0.44573 0.57715 0.43886 0.0
O29 O 0.47377 0.57192 0.50057 0.0
O30 O 0.42466 0.52636 0.46132 0.0
C31 C 0.44325 0.62339 0.48288 0.0
O32 O 0.40886 0.57349 0.3768 0.0
Co33 Co 0.47966 0.64787 0.36624 0.0
O34 O 0.42908 0.62968 0.34141 0.0
C35 C 0.49663 0.59148 0.33234 0.0
C36 C 0.4503 0.53775 0.50097 0.0
C37 C 0.4045 0.59664 0.3461 0.0
O38 O 0.4757 0.57136 0.37449 0.0
O39 O 0.50348 0.62394 0.3235 0.0
O40 O 0.421 0.59016 0.49773 0.0
O41 O 0.46882 0.62817 0.44643 0.0
Co42 Co 0.86582 0.44741 0.60747 0.0
O43 O 0.903 0.47994 0.66093 0.0
O44 O 0.89562 0.42713 0.63216 0.0
C45 C 0.82014 0.45008 0.65325 0.0
O46 O 0.82952 0.40609 0.55483 0.0
Co47 Co 0.82572 0.47603 0.52911 0.0
O48 O 0.79647 0.42496 0.50396 0.0
C49 C 0.89803 0.49112 0.49252 0.0
C50 C 0.91312 0.45598 0.66483 0.0
C51 C 0.8041 0.4006 0.51804 0.0
O52 O 0.89805 0.47147 0.53619 0.0
O53 O 0.87277 0.49851 0.48444 0.0
O54 O 0.83158 0.42904 0.67316 0.0
O55 O 0.83885 0.47149 0.61011 0.0
Co56 Co 0.41369 0.86814 0.77838 0.0
O57 O 0.41837 0.90675 0.82842 0.0
O58 O 0.46374 0.89878 0.80173 0.0
C59 C 0.3657 0.82375 0.82692 0.0
O60 O 0.41863 0.8305 0.72907 0.0
Co61 Co 0.34492 0.82467 0.70187 0.0
O62 O 0.36319 0.79024 0.69575 0.0
C63 C 0.40155 0.89631 0.65974 0.0
C64 C 0.45243 0.9171 0.83239 0.0
C65 C 0.39634 0.80025 0.70416 0.0
O66 O 0.4212 0.89823 0.70465 0.0
O67 O 0.36929 0.8701 0.65224 0.0
O68 O 0.39821 0.83574 0.84677 0.0
O69 O 0.36284 0.84111 0.78175 0.0
Co70 Co 0.54561 0.41805 0.94061 0.0
O71 O 0.51479 0.42196 0.99893 0.0
O72 O 0.56567 0.4681 0.96569 0.0
C73 C 0.54672 0.3708 0.98334 0.0
O74 O 0.58505 0.42368 0.88276 0.0
Co75 Co 0.51506 0.34968 0.86255 0.0
O76 O 0.56526 0.37147 0.83254 0.0
C77 C 0.49774 0.40589 0.8307 0.0
C78 C 0.53812 0.45619 0.00168 0.0
C79 C 0.58974 0.40363 0.84498 0.0
O80 O 0.51847 0.42548 0.87331 0.0
O81 O 0.49032 0.3733 0.82159 0.0
O82 O 0.56785 0.40356 0.00162 0.0
O83 O 0.52257 0.36684 0.94444 0.0
H84 H 0.08618 0.46278 0.88576 0.0
H85 H 0.0317 0.50508 0.99344 0.0
H86 H 0.04311 0.45051 0.80512 0.0
H87 H 0.98877 0.49248 0.91329 0.0
H88 H 0.95294 0.51413 0.7357 0.0
H89 H 0.9944 0.52027 0.81478 0.0
H90 H 0.97799 0.41424 0.77399 0.0
H91 H 0.93626 0.40808 0.69372 0.0
C92 C 0.06474 0.46892 0.89275 0.0
C93 C 0.06276 0.48534 0.94606 0.0
C94 C 0.04002 0.46181 0.84647 0.0
C95 C 0.01291 0.47109 0.8524 0.0
C96 C 0.00984 0.48575 0.90679 0.0
C97 C 0.03438 0.49275 0.95298 0.0
C98 C 0.95826 0.49214 0.74311 0.0
C99 C 0.9411 0.46052 0.70853 0.0
C100 C 0.98185 0.49556 0.78889 0.0
C101 C 0.98902 0.46749 0.80142 0.0
C102 C 0.97297 0.43632 0.76546 0.0
C103 C 0.94911 0.43281 0.71952 0.0
H104 H 0.523 0.94022 0.86317 0.0
H105 H 0.43449 0.95939 0.89767 0.0
H106 H 0.55811 0.98319 0.94231 0.0
H107 H 0.46936 0.00206 0.97569 0.0
H108 H 0.51908 0.03792 0.15736 0.0
H109 H 0.48944 0.9957 0.07611 0.0
H110 H 0.58729 0.04924 0.97166 0.0
H111 H 0.6174 0.0917 0.05344 0.0
C112 C 0.51125 0.95394 0.88697 0.0
C113 C 0.47586 0.94618 0.87445 0.0
C114 C 0.53133 0.9785 0.93225 0.0
C115 C 0.51624 0.99551 0.96592 0.0
C116 C 0.48145 0.98878 0.95152 0.0
C117 C 0.46155 0.96448 0.90641 0.0
C118 C 0.53454 0.04066 0.11743 0.0
C119 C 0.57062 0.06856 0.11195 0.0
C120 C 0.51741 0.01652 0.07062 0.0
C121 C 0.53585 0.0195 0.01708 0.0
C122 C 0.57238 0.04627 0.01238 0.0
C123 C 0.58958 0.07064 0.05926 0.0
H124 H 0.48867 0.52364 0.33441 0.0
H125 H 0.53439 0.62148 0.22874 0.0
H126 H 0.50188 0.49336 0.2546 0.0
H127 H 0.54695 0.5908 0.14844 0.0
H128 H 0.58645 0.52679 0.03198 0.0
H129 H 0.58122 0.56158 0.11465 0.0
H130 H 0.47572 0.47179 0.15683 0.0
H131 H 0.4811 0.43723 0.07563 0.0
C132 C 0.50192 0.53889 0.29454 0.0
C133 C 0.51007 0.57497 0.28802 0.0
C134 C 0.50924 0.52139 0.24848 0.0
C135 C 0.52484 0.53943 0.19457 0.0
C136 C 0.53496 0.57611 0.18932 0.0
C137 C 0.52766 0.59368 0.23548 0.0
C138 C 0.56207 0.5147 0.0587 0.0
C139 C 0.53428 0.47919 0.04735 0.0
C140 C 0.55908 0.53459 0.10607 0.0
C141 C 0.5283 0.51925 0.14307 0.0
C142 C 0.5002 0.48414 0.13034 0.0
C143 C 0.50316 0.46441 0.08326 0.0
H144 H 0.90483 0.5277 0.38789 0.0
H145 H 0.95642 0.4809 0.49212 0.0
H146 H 0.94739 0.53957 0.3067 0.0
H147 H -0.00086 0.49333 0.41141 0.0
H148 H 0.03592 0.47464 0.23265 0.0
H149 H 0.99458 0.46784 0.31253 0.0
H150 H 0.01129 0.5744 0.27474 0.0
H151 H 0.05266 0.58108 0.19351 0.0
C152 C 0.92555 0.52044 0.394 0.0
C153 C 0.92685 0.50294 0.44651 0.0
C154 C 0.95001 0.52735 0.34738 0.0
C155 C 0.97629 0.51688 0.35216 0.0
C156 C 0.97868 0.50099 0.40573 0.0
C157 C 0.9543 0.4941 0.45227 0.0
C158 C 0.03064 0.49659 0.24091 0.0
C159 C 0.04773 0.52849 0.20685 0.0
C160 C 0.00715 0.4928 0.28717 0.0
C161 C 0.00012 0.52083 0.3008 0.0
C162 C 0.01615 0.5523 0.26537 0.0
C163 C 0.0398 0.55612 0.21884 0.0
H164 H 0.55378 0.03309 0.39658 0.0
H165 H 0.46556 0.05286 0.36325 0.0
H166 H 0.51899 0.99052 0.47501 0.0
H167 H 0.43053 0.00997 0.44281 0.0
H168 H 0.37116 0.90146 0.55449 0.0
H169 H 0.40118 0.9439 0.47242 0.0
H170 H 0.49932 -0.00291 0.57573 0.0
H171 H 0.46977 0.95487 0.65728 0.0
C172 C 0.52679 0.02814 0.40565 0.0
C173 C 0.51254 0.04659 0.37391 0.0
C174 C 0.50695 0.00391 0.45101 0.0
C175 C 0.47228 -0.00262 0.46587 0.0
C176 C 0.45722 0.01451 0.43239 0.0
C177 C 0.47724 0.03902 0.38687 0.0
C178 C 0.39904 0.92244 0.56 0.0
C179 C 0.4181 0.92442 0.61246 0.0
C180 C 0.41617 0.94679 0.51296 0.0
C181 C 0.45275 0.97346 0.51726 0.0
C182 C 0.4713 0.97635 0.57057 0.0
C183 C 0.45423 0.95222 0.61754 0.0
H184 H 0.44286 0.37325 0.74846 0.0
H185 H 0.52546 0.47787 0.81097 0.0
H186 H 0.42667 0.40255 0.67022 0.0
H187 H 0.51101 0.50684 0.73168 0.0
H188 H 0.46528 0.55693 0.6157 0.0
H189 H 0.47078 0.52303 0.69767 0.0
H190 H 0.44476 0.43362 0.57844 0.0
H191 H 0.43667 0.46733 0.4967 0.0
C192 C 0.45745 0.40249 0.74569 0.0
C193 C 0.48523 0.42319 0.78645 0.0
C194 C 0.44842 0.41932 0.70039 0.0
C195 C 0.46733 0.45723 0.69425 0.0
C196 C 0.49497 0.47772 0.73547 0.0
C197 C 0.50348 0.46102 0.78117 0.0
C198 C 0.46047 0.52988 0.60711 0.0
C199 C 0.45102 0.51488 0.5498 0.0
C200 C 0.46393 0.51046 0.65411 0.0
C201 C 0.45921 0.47576 0.64488 0.0
C202 C 0.44849 0.46016 0.58762 0.0
C203 C 0.44403 0.47945 0.54059 0.0
H204 H 0.21113 0.59158 0.23755 0.0
H205 H 0.20555 0.50553 0.12832 0.0
H206 H 0.26623 0.60018 0.28297 0.0
H207 H 0.26178 0.51451 0.17459 0.0
H208 H 0.34539 0.52792 0.33278 0.0
H209 H 0.28793 0.51163 0.28305 0.0
H210 H 0.32863 0.62378 0.23841 0.0
H211 H 0.38512 0.64011 0.28729 0.0
C212 C 0.22166 0.57441 0.22314 0.0
C213 C 0.2041 0.54808 0.17882 0.0
C214 C 0.25333 0.57941 0.24927 0.0
C215 C 0.26845 0.55825 0.23196 0.0
C216 C 0.25056 0.53111 0.18881 0.0
C217 C 0.21862 0.52616 0.16215 0.0
C218 C 0.34204 0.54901 0.31211 0.0
C219 C 0.36988 0.58537 0.31463 0.0
C220 C 0.30929 0.53963 0.28334 0.0
C221 C 0.30381 0.56651 0.25733 0.0
C222 C 0.33194 0.60254 0.25867 0.0
C223 C 0.36443 0.61184 0.28676 0.0
H224 H 0.68883 0.21549 0.27772 0.0
H225 H 0.62617 0.19301 0.43945 0.0
H226 H 0.73781 0.2702 0.32398 0.0
H227 H 0.67519 0.24689 0.48578 0.0
H228 H 0.7839 0.33346 0.56398 0.0
H229 H 0.7438 0.27467 0.5172 0.0
H230 H 0.73749 0.32917 0.35925 0.0
H231 H 0.77659 0.38752 0.40606 0.0
C232 C 0.6858 0.22193 0.32333 0.0
C233 C 0.65366 0.20024 0.35487 0.0
C234 C 0.71373 0.25314 0.34972 0.0
C235 C 0.71026 0.26258 0.40851 0.0
C236 C 0.67872 0.24001 0.44069 0.0
C237 C 0.65058 0.20938 0.41396 0.0
C238 C 0.77425 0.33275 0.51904 0.0
C239 C 0.78301 0.36498 0.48887 0.0
C240 C 0.75134 0.29923 0.49238 0.0
C241 C 0.73769 0.2975 0.4346 0.0
C242 C 0.74789 0.32974 0.40356 0.0
C243 C 0.77001 0.36309 0.4306 0.0
H244 H 0.36477 0.72778 0.71566 0.0
H245 H 0.45636 0.81982 0.63586 0.0
H246 H 0.37957 0.68726 0.66247 0.0
H247 H 0.47021 0.77922 0.57895 0.0
H248 H 0.49681 0.69137 0.51478 0.0
H249 H 0.48943 0.73586 0.57324 0.0
H250 H 0.3735 0.66636 0.56571 0.0
H251 H 0.38126 0.6217 0.51106 0.0
C252 C 0.3883 0.73926 0.68687 0.0
C253 C 0.40939 0.77679 0.67969 0.0
C254 C 0.39656 0.71608 0.65558 0.0
C255 C 0.42548 0.72979 0.61472 0.0
C256 C 0.44776 0.76758 0.60991 0.0
C257 C 0.43992 0.79089 0.64253 0.0
C258 C 0.46986 0.68604 0.52531 0.0
C259 C 0.4396 0.65307 0.50908 0.0
C260 C 0.46555 0.71144 0.55883 0.0
C261 C 0.43086 0.70444 0.57578 0.0
C262 C 0.4007 0.67225 0.55587 0.0
C263 C 0.40506 0.64676 0.52375 0.0
H264 H 0.65704 0.45113 0.88798 0.0
H265 H 0.60163 0.38787 0.73275 0.0
H266 H 0.71525 0.46874 0.84017 0.0
H267 H 0.65957 0.40611 0.68477 0.0
H268 H 0.77431 0.47015 0.60265 0.0
H269 H 0.71954 0.46524 0.64777 0.0
H270 H 0.74123 0.42565 0.81083 0.0
H271 H 0.79503 0.42961 0.76566 0.0
C272 C 0.65732 0.44162 0.84329 0.0
C273 C 0.62488 0.4179 0.81427 0.0
C274 C 0.69053 0.45162 0.81606 0.0
C275 C 0.69178 0.43879 0.75881 0.0
C276 C 0.65934 0.41661 0.72867 0.0
C277 C 0.62624 0.40598 0.75635 0.0
C278 C 0.76746 0.46076 0.64827 0.0
C279 C 0.78868 0.45003 0.68057 0.0
C280 C 0.73623 0.45793 0.67398 0.0
C281 C 0.7264 0.44528 0.73285 0.0
C282 C 0.74843 0.43587 0.76567 0.0
C283 C 0.77903 0.43787 0.73961 0.0
H284 H 0.30006 0.7774 0.77674 0.0
H285 H 0.36136 0.79876 0.93956 0.0
H286 H 0.25087 0.72216 0.82164 0.0
H287 H 0.31206 0.74435 0.98458 0.0
H288 H 0.2027 0.65718 0.06026 0.0
H289 H 0.24281 0.7163 0.01423 0.0
H290 H 0.25146 0.66294 0.8568 0.0
H291 H 0.21233 0.60422 0.90296 0.0
C292 C 0.30275 0.7706 0.82231 0.0
C293 C 0.33457 0.79214 0.85455 0.0
C294 C 0.2747 0.73909 0.84791 0.0
C295 C 0.27769 0.7292 0.90663 0.0
C296 C 0.30891 0.75158 0.93952 0.0
C297 C 0.3372 0.78252 0.91355 0.0
C298 C 0.2128 0.6582 0.01553 0.0
C299 C 0.20471 0.62621 0.98535 0.0
C300 C 0.23574 0.69191 0.98933 0.0
C301 C 0.2501 0.69406 0.93197 0.0
C302 C 0.2405 0.66203 0.90079 0.0
C303 C 0.21835 0.62848 0.92743 0.0
H304 H 0.49292 0.30256 0.01378 0.0
H305 H 0.60851 0.37196 0.01028 0.0
H306 H 0.50003 0.2576 0.07158 0.0
H307 H 0.61602 0.32684 0.06415 0.0
H308 H 0.62417 0.26513 0.21443 0.0
H309 H 0.60968 0.3058 0.16093 0.0
H310 H 0.51907 0.21407 0.07749 0.0
H311 H 0.53261 0.17331 0.13472 0.0
C312 C 0.51983 0.30769 0.0241 0.0
C313 C 0.55018 0.34071 0.00822 0.0
C314 C 0.52398 0.28204 0.05727 0.0
C315 C 0.55861 0.28887 0.07416 0.0
C316 C 0.58886 0.32108 0.05438 0.0
C317 C 0.58465 0.34682 0.02267 0.0
C318 C 0.60072 0.25373 0.18558 0.0
C319 C 0.57954 0.21622 0.17854 0.0
C320 C 0.59264 0.277 0.1541 0.0
C321 C 0.56382 0.2634 0.11317 0.0
C322 C 0.54145 0.22562 0.10848 0.0
C323 C 0.54912 0.20222 0.14129 0.0
loop_
_geom_bond_atom_site_label_1
_geom_bond_atom_site_label_2
_geom_bond_distance
_geom_bond_site_symmetry_2
_ccdc_geom_bond_type
Co0 O1 2.216 . S
Co0 O2 2.091 . S
Co0 O4 2.004 . S
Co0 O10 2.021 . S
Co0 O12 2.137 . S
Co0 O13 2.244 . S
O1 Co0 2.216 . S
O1 C8 1.247 . S
O2 Co0 2.091 . S
O2 C8 1.261 . S
C3 O12 1.247 . S
C3 O13 1.272 . S
O4 Co0 2.004 . S
O4 C9 1.259 . S
Co5 O6 2.061 . S
Co5 O11 2.052 . S
Co5 O13 2.135 1_556 S
O6 Co5 2.061 . S
O6 C9 1.235 1_556 S
C7 O10 1.238 1_556 S
C7 O11 1.241 . S
C8 O1 1.247 . S
C8 O2 1.261 . S
C9 O4 1.259 . S
C9 O6 1.235 1_554 S
O10 Co0 2.021 . S
O10 C7 1.238 1_554 S
O11 Co5 2.052 . S
O11 C7 1.241 . S
O12 Co0 2.137 . S
O12 C3 1.247 . S
O13 Co0 2.244 . S
O13 C3 1.272 . S
O13 Co5 2.135 1_554 S
Co14 O15 2.216 . S
Co14 O16 2.091 . S
Co14 O18 2.004 . S
Co14 O24 2.021 . S
Co14 O26 2.137 . S
Co14 O27 2.244 . S
O15 Co14 2.216 . S
O15 C22 1.247 . S
O16 Co14 2.091 . S
O16 C22 1.261 . S
C17 O26 1.247 . S
C17 O27 1.272 . S
O18 Co14 2.004 . S
O18 C23 1.259 . S
Co19 O20 2.061 . S
Co19 O25 2.052 . S
Co19 O27 2.135 . S
O20 Co19 2.061 . S
O20 C23 1.235 . S
C21 O24 1.238 . S
C21 O25 1.241 . S
C22 O15 1.247 . S
C22 O16 1.261 . S
C23 O18 1.259 . S
C23 O20 1.235 . S
O24 Co14 2.021 . S
O24 C21 1.238 . S
O25 Co19 2.052 . S
O25 C21 1.241 . S
O26 Co14 2.137 . S
O26 C17 1.247 . S
O27 Co14 2.244 . S
O27 C17 1.272 . S
O27 Co19 2.135 . S
Co28 O29 2.216 . S
Co28 O30 2.091 . S
Co28 O32 2.004 . S
Co28 O38 2.021 . S
Co28 O40 2.137 . S
Co28 O41 2.244 . S
O29 Co28 2.216 . S
O29 C36 1.247 . S
O30 Co28 2.091 . S
O30 C36 1.261 . S
C31 O40 1.247 . S
C31 O41 1.272 . S
O32 Co28 2.004 . S
O32 C37 1.259 . S
Co33 O34 2.061 . S
Co33 O39 2.052 . S
Co33 O41 2.135 . S
O34 Co33 2.061 . S
O34 C37 1.235 . S
C35 O38 1.238 . S
C35 O39 1.241 . S
C36 O29 1.247 . S
C36 O30 1.261 . S
C37 O32 1.259 . S
C37 O34 1.235 . S
O38 Co28 2.021 . S
O38 C35 1.238 . S
O39 Co33 2.052 . S
O39 C35 1.241 . S
O40 Co28 2.137 . S
O40 C31 1.247 . S
O41 Co28 2.244 . S
O41 C31 1.272 . S
O41 Co33 2.135 . S
Co42 O43 2.216 . S
Co42 O44 2.091 . S
Co42 O46 2.004 . S
Co42 O52 2.021 . S
Co42 O54 2.137 . S
Co42 O55 2.244 . S
O43 Co42 2.216 . S
O43 C50 1.247 . S
O44 Co42 2.091 . S
O44 C50 1.261 . S
C45 O54 1.247 . S
C45 O55 1.272 . S
O46 Co42 2.004 . S
O46 C51 1.259 . S
Co47 O48 2.061 . S
Co47 O53 2.052 . S
Co47 O55 2.135 . S
O48 Co47 2.061 . S
O48 C51 1.235 . S
C49 O52 1.238 . S
C49 O53 1.241 . S
C50 O43 1.247 . S
C50 O44 1.261 . S
C51 O46 1.259 . S
C51 O48 1.235 . S
O52 Co42 2.021 . S
O52 C49 1.238 . S
O53 Co47 2.052 . S
O53 C49 1.241 . S
O54 Co42 2.137 . S
O54 C45 1.247 . S
O55 Co42 2.244 . S
O55 C45 1.272 . S
O55 Co47 2.135 . S
Co56 O57 2.216 . S
Co56 O58 2.091 . S
Co56 O60 2.004 . S
Co56 O66 2.021 . S
Co56 O68 2.137 . S
Co56 O69 2.244 . S
O57 Co56 2.216 . S
O57 C64 1.247 . S
O58 Co56 2.091 . S
O58 C64 1.261 . S
C59 O68 1.247 . S
C59 O69 1.272 . S
O60 Co56 2.004 . S
O60 C65 1.259 . S
Co61 O62 2.061 . S
Co61 O67 2.052 . S
Co61 O69 2.135 . S
O62 Co61 2.061 . S
O62 C65 1.235 . S
C63 O66 1.238 . S
C63 O67 1.241 . S
C64 O57 1.247 . S
C64 O58 1.261 . S
C65 O60 1.259 . S
C65 O62 1.235 . S
O66 Co56 2.021 . S
O66 C63 1.238 . S
O67 Co61 2.052 . S
O67 C63 1.241 . S
O68 Co56 2.137 . S
O68 C59 1.247 . S
O69 Co56 2.244 . S
O69 C59 1.272 . S
O69 Co61 2.135 . S
Co70 O71 2.216 . S
Co70 O72 2.091 . S
Co70 O74 2.004 . S
Co70 O80 2.021 . S
Co70 O82 2.139 . S
Co70 O83 2.244 . S
O71 Co70 2.216 . S
O71 C78 1.247 1_556 S
O72 Co70 2.091 . S
O72 C78 1.261 1_556 S
C73 O82 1.249 . S
C73 O83 1.272 . S
O74 Co70 2.004 . S
O74 C79 1.259 . S
Co75 O76 2.061 . S
Co75 O81 2.052 . S
Co75 O83 2.135 . S
O76 Co75 2.061 . S
O76 C79 1.235 . S
C77 O80 1.238 . S
C77 O81 1.241 . S
C78 O71 1.247 1_554 S
C78 O72 1.261 1_554 S
C79 O74 1.259 . S
C79 O76 1.235 . S
O80 Co70 2.021 . S
O80 C77 1.238 . S
O81 Co75 2.052 . S
O81 C77 1.241 . S
O82 Co70 2.139 . S
O82 C73 1.249 . S
O83 Co70 2.244 . S
O83 C73 1.272 . S
O83 Co75 2.135 . S
H84 C92 0.950 . S
H85 C97 0.950 . S
H86 C94 0.950 . S
H87 C96 0.950 . S
H88 C98 0.950 . S
H89 C100 0.950 . S
H90 C102 0.950 . S
H91 C103 0.950 . S
C92 H84 0.950 . S
C92 C93 1.386 . S
C92 C94 1.391 . S
C93 C92 1.386 . S
C93 C97 1.393 . S
C94 H86 0.950 . S
C94 C92 1.391 . S
C94 C95 1.400 . S
C95 C94 1.400 . S
C95 C96 1.398 . S
C95 C101 1.491 1_455 S
C96 H87 0.950 . S
C96 C95 1.398 . S
C96 C97 1.391 . S
C97 H85 0.950 . S
C97 C93 1.393 . S
C97 C96 1.391 . S
C98 H88 0.950 . S
C98 C99 1.386 . S
C98 C100 1.391 . S
C99 C98 1.386 . S
C99 C103 1.393 . S
C100 H89 0.950 . S
C100 C98 1.391 . S
C100 C101 1.400 . S
C101 C95 1.491 1_655 S
C101 C100 1.400 . S
C101 C102 1.398 . S
C102 H90 0.950 . S
C102 C101 1.398 . S
C102 C103 1.391 . S
C103 H91 0.950 . S
C103 C99 1.393 . S
C103 C102 1.391 . S
H104 C112 0.950 . S
H105 C117 0.950 . S
H106 C114 0.950 . S
H107 C116 0.950 . S
H108 C118 0.950 . S
H109 C120 0.950 . S
H110 C122 0.950 . S
H111 C123 0.950 . S
C112 H104 0.950 . S
C112 C113 1.386 . S
C112 C114 1.391 . S
C113 C112 1.386 . S
C113 C117 1.393 . S
C114 H106 0.950 . S
C114 C112 1.391 . S
C114 C115 1.400 . S
C115 C114 1.400 . S
C115 C116 1.398 . S
C115 C121 1.491 1_566 S
C116 H107 0.950 . S
C116 C115 1.398 . S
C116 C117 1.391 . S
C117 H105 0.950 . S
C117 C113 1.393 . S
C117 C116 1.391 . S
C118 H108 0.950 . S
C118 C119 1.386 . S
C118 C120 1.391 . S
C119 C118 1.386 . S
C119 C123 1.393 . S
C120 H109 0.950 . S
C120 C118 1.391 . S
C120 C121 1.400 . S
C121 C115 1.491 1_544 S
C121 C120 1.400 . S
C121 C122 1.398 . S
C122 H110 0.950 . S
C122 C121 1.398 . S
C122 C123 1.391 . S
C123 H111 0.950 . S
C123 C119 1.393 . S
C123 C122 1.391 . S
H124 C132 0.950 . S
H125 C137 0.950 . S
H126 C134 0.950 . S
H127 C136 0.950 . S
H128 C138 0.950 . S
H129 C140 0.950 . S
H130 C142 0.950 . S
H131 C143 0.950 . S
C132 H124 0.950 . S
C132 C133 1.386 . S
C132 C134 1.391 . S
C133 C132 1.386 . S
C133 C137 1.393 . S
C134 H126 0.950 . S
C134 C132 1.391 . S
C134 C135 1.400 . S
C135 C134 1.400 . S
C135 C136 1.398 . S
C135 C141 1.491 . S
C136 H127 0.950 . S
C136 C135 1.398 . S
C136 C137 1.391 . S
C137 H125 0.950 . S
C137 C133 1.393 . S
C137 C136 1.391 . S
C138 H128 0.950 . S
C138 C139 1.386 . S
C138 C140 1.391 . S
C139 C138 1.386 . S
C139 C143 1.393 . S
C140 H129 0.950 . S
C140 C138 1.391 . S
C140 C141 1.400 . S
C141 C135 1.491 . S
C141 C140 1.400 . S
C141 C142 1.398 . S
C142 H130 0.950 . S
C142 C141 1.398 . S
C142 C143 1.391 . S
C143 H131 0.950 . S
C143 C139 1.393 . S
C143 C142 1.391 . S
H144 C152 0.950 . S
H145 C157 0.950 . S
H146 C154 0.950 . S
H147 C156 0.950 . S
H148 C158 0.950 . S
H149 C160 0.950 1_655 S
H150 C162 0.950 . S
H151 C163 0.950 . S
C152 H144 0.950 . S
C152 C153 1.386 . S
C152 C154 1.391 . S
C153 C152 1.386 . S
C153 C157 1.393 . S
C154 H146 0.950 . S
C154 C152 1.391 . S
C154 C155 1.400 . S
C155 C154 1.400 . S
C155 C156 1.398 . S
C155 C161 1.491 1_655 S
C156 H147 0.950 . S
C156 C155 1.398 . S
C156 C157 1.391 . S
C157 H145 0.950 . S
C157 C153 1.393 . S
C157 C156 1.391 . S
C158 H148 0.950 . S
C158 C159 1.386 . S
C158 C160 1.391 . S
C159 C158 1.386 . S
C159 C163 1.393 . S
C160 H149 0.950 1_455 S
C160 C158 1.391 . S
C160 C161 1.400 . S
C161 C155 1.491 1_455 S
C161 C160 1.400 . S
C161 C162 1.398 . S
C162 H150 0.950 . S
C162 C161 1.398 . S
C162 C163 1.391 . S
C163 H151 0.950 . S
C163 C159 1.393 . S
C163 C162 1.391 . S
H164 C172 0.950 . S
H165 C177 0.950 . S
H166 C174 0.950 . S
H167 C176 0.950 . S
H168 C178 0.950 . S
H169 C180 0.950 . S
H170 C182 0.950 . S
H171 C183 0.950 . S
C172 H164 0.950 . S
C172 C173 1.386 . S
C172 C174 1.391 . S
C173 C172 1.386 . S
C173 C177 1.393 . S
C174 H166 0.950 . S
C174 C172 1.391 . S
C174 C175 1.400 . S
C175 C174 1.400 . S
C175 C176 1.398 . S
C175 C181 1.491 1_545 S
C176 H167 0.950 . S
C176 C175 1.398 . S
C176 C177 1.391 . S
C177 H165 0.950 . S
C177 C173 1.393 . S
C177 C176 1.391 . S
C178 H168 0.950 . S
C178 C179 1.386 . S
C178 C180 1.391 . S
C179 C178 1.386 . S
C179 C183 1.393 . S
C180 H169 0.950 . S
C180 C178 1.391 . S
C180 C181 1.400 . S
C181 C175 1.491 1_565 S
C181 C180 1.400 . S
C181 C182 1.398 . S
C182 H170 0.950 . S
C182 C181 1.398 . S
C182 C183 1.391 . S
C183 H171 0.950 . S
C183 C179 1.393 . S
C183 C182 1.391 . S
H184 C192 0.950 . S
H185 C197 0.950 . S
H186 C194 0.950 . S
H187 C196 0.950 . S
H188 C198 0.950 . S
H189 C200 0.950 . S
H190 C202 0.950 . S
H191 C203 0.950 . S
C192 H184 0.950 . S
C192 C193 1.386 . S
C192 C194 1.391 . S
C193 C192 1.386 . S
C193 C197 1.393 . S
C194 H186 0.950 . S
C194 C192 1.391 . S
C194 C195 1.400 . S
C195 C194 1.400 . S
C195 C196 1.398 . S
C195 C201 1.491 . S
C196 H187 0.950 . S
C196 C195 1.398 . S
C196 C197 1.391 . S
C197 H185 0.950 . S
C197 C193 1.393 . S
C197 C196 1.391 . S
C198 H188 0.950 . S
C198 C199 1.386 . S
C198 C200 1.391 . S
C199 C198 1.386 . S
C199 C203 1.393 . S
C200 H189 0.950 . S
C200 C198 1.391 . S
C200 C201 1.400 . S
C201 C195 1.491 . S
C201 C200 1.400 . S
C201 C202 1.398 . S
C202 H190 0.950 . S
C202 C201 1.398 . S
C202 C203 1.391 . S
C203 H191 0.950 . S
C203 C199 1.393 . S
C203 C202 1.391 . S
H204 C212 0.950 . S
H205 C217 0.950 . S
H206 C214 0.950 . S
H207 C216 0.950 . S
H208 C218 0.950 . S
H209 C220 0.950 . S
H210 C222 0.950 . S
H211 C223 0.950 . S
C212 H204 0.950 . S
C212 C213 1.386 . S
C212 C214 1.391 . S
C213 C212 1.386 . S
C213 C217 1.393 . S
C214 H206 0.950 . S
C214 C212 1.391 . S
C214 C215 1.400 . S
C215 C214 1.400 . S
C215 C216 1.398 . S
C215 C221 1.491 . S
C216 H207 0.950 . S
C216 C215 1.398 . S
C216 C217 1.391 . S
C217 H205 0.950 . S
C217 C213 1.393 . S
C217 C216 1.391 . S
C218 H208 0.950 . S
C218 C219 1.386 . S
C218 C220 1.391 . S
C219 C218 1.386 . S
C219 C223 1.393 . S
C220 H209 0.950 . S
C220 C218 1.391 . S
C220 C221 1.400 . S
C221 C215 1.491 . S
C221 C220 1.400 . S
C221 C222 1.398 . S
C222 H210 0.950 . S
C222 C221 1.398 . S
C222 C223 1.391 . S
C223 H211 0.950 . S
C223 C219 1.393 . S
C223 C222 1.391 . S
H224 C232 0.950 . S
H225 C237 0.950 . S
H226 C234 0.950 . S
H227 C236 0.950 . S
H228 C238 0.950 . S
H229 C240 0.950 . S
H230 C242 0.950 . S
H231 C243 0.950 . S
C232 H224 0.950 . S
C232 C233 1.386 . S
C232 C234 1.391 . S
C233 C232 1.386 . S
C233 C237 1.393 . S
C234 H226 0.950 . S
C234 C232 1.391 . S
C234 C235 1.400 . S
C235 C234 1.400 . S
C235 C236 1.398 . S
C235 C241 1.491 . S
C236 H227 0.950 . S
C236 C235 1.398 . S
C236 C237 1.391 . S
C237 H225 0.950 . S
C237 C233 1.393 . S
C237 C236 1.391 . S
C238 H228 0.950 . S
C238 C239 1.386 . S
C238 C240 1.391 . S
C239 C238 1.386 . S
C239 C243 1.393 . S
C240 H229 0.950 . S
C240 C238 1.391 . S
C240 C241 1.400 . S
C241 C235 1.491 . S
C241 C240 1.400 . S
C241 C242 1.398 . S
C242 H230 0.950 . S
C242 C241 1.398 . S
C242 C243 1.391 . S
C243 H231 0.950 . S
C243 C239 1.393 . S
C243 C242 1.391 . S
H244 C252 0.950 . S
H245 C257 0.950 . S
H246 C254 0.950 . S
H247 C256 0.950 . S
H248 C258 0.950 . S
H249 C260 0.950 . S
H250 C262 0.950 . S
H251 C263 0.950 . S
C252 H244 0.950 . S
C252 C253 1.386 . S
C252 C254 1.391 . S
C253 C252 1.386 . S
C253 C257 1.393 . S
C254 H246 0.950 . S
C254 C252 1.391 . S
C254 C255 1.400 . S
C255 C254 1.400 . S
C255 C256 1.398 . S
C255 C261 1.491 . S
C256 H247 0.950 . S
C256 C255 1.398 . S
C256 C257 1.391 . S
C257 H245 0.950 . S
C257 C253 1.393 . S
C257 C256 1.391 . S
C258 H248 0.950 . S
C258 C259 1.386 . S
C258 C260 1.391 . S
C259 C258 1.386 . S
C259 C263 1.393 . S
C260 H249 0.950 . S
C260 C258 1.391 . S
C260 C261 1.400 . S
C261 C255 1.491 . S
C261 C260 1.400 . S
C261 C262 1.398 . S
C262 H250 0.950 . S
C262 C261 1.398 . S
C262 C263 1.391 . S
C263 H251 0.950 . S
C263 C259 1.393 . S
C263 C262 1.391 . S
H264 C272 0.950 . S
H265 C277 0.950 . S
H266 C274 0.950 . S
H267 C276 0.950 . S
H268 C278 0.950 . S
H269 C280 0.950 . S
H270 C282 0.950 . S
H271 C283 0.950 . S
C272 H264 0.950 . S
C272 C273 1.386 . S
C272 C274 1.391 . S
C273 C272 1.386 . S
C273 C277 1.393 . S
C274 H266 0.950 . S
C274 C272 1.391 . S
C274 C275 1.400 . S
C275 C274 1.400 . S
C275 C276 1.398 . S
C275 C281 1.491 . S
C276 H267 0.950 . S
C276 C275 1.398 . S
C276 C277 1.391 . S
C277 H265 0.950 . S
C277 C273 1.393 . S
C277 C276 1.391 . S
C278 H268 0.950 . S
C278 C279 1.386 . S
C278 C280 1.391 . S
C279 C278 1.386 . S
C279 C283 1.393 . S
C280 H269 0.950 . S
C280 C278 1.391 . S
C280 C281 1.400 . S
C281 C275 1.491 . S
C281 C280 1.400 . S
C281 C282 1.398 . S
C282 H270 0.950 . S
C282 C281 1.398 . S
C282 C283 1.391 . S
C283 H271 0.950 . S
C283 C279 1.393 . S
C283 C282 1.391 . S
H284 C292 0.950 . S
H285 C297 0.950 . S
H286 C294 0.950 . S
H287 C296 0.950 . S
H288 C298 0.950 . S
H289 C300 0.950 . S
H290 C302 0.950 . S
H291 C303 0.950 . S
C292 H284 0.950 . S
C292 C293 1.386 . S
C292 C294 1.391 . S
C293 C292 1.386 . S
C293 C297 1.393 . S
C294 H286 0.950 . S
C294 C292 1.391 . S
C294 C295 1.400 . S
C295 C294 1.400 . S
C295 C296 1.398 . S
C295 C301 1.491 . S
C296 H287 0.950 . S
C296 C295 1.398 . S
C296 C297 1.391 . S
C297 H285 0.950 . S
C297 C293 1.393 . S
C297 C296 1.391 . S
C298 H288 0.950 . S
C298 C299 1.389 . S
C298 C300 1.391 1_554 S
C299 C298 1.389 . S
C299 C303 1.383 1_554 S
C300 H289 0.950 . S
C300 C298 1.391 1_556 S
C300 C301 1.400 . S
C301 C295 1.491 . S
C301 C300 1.400 . S
C301 C302 1.398 . S
C302 H290 0.950 . S
C302 C301 1.398 . S
C302 C303 1.391 . S
C303 H291 0.950 . S
C303 C299 1.383 1_556 S
C303 C302 1.391 . S
H304 C312 0.950 . S
H305 C317 0.950 . S
H306 C314 0.950 . S
H307 C316 0.950 . S
H308 C318 0.950 . S
H309 C320 0.950 . S
H310 C322 0.950 . S
H311 C323 0.950 . S
C312 H304 0.950 . S
C312 C313 1.386 1_554 S
C312 C314 1.391 . S
C313 C312 1.386 1_556 S
C313 C317 1.393 . S
C314 H306 0.950 . S
C314 C312 1.391 . S
C314 C315 1.400 . S
C315 C314 1.400 . S
C315 C316 1.398 . S
C315 C321 1.491 . S
C316 H307 0.950 . S
C316 C315 1.398 . S
C316 C317 1.391 1_554 S
C317 H305 0.950 . S
C317 C313 1.393 . S
C317 C316 1.391 1_556 S
C318 H308 0.950 . S
C318 C319 1.386 . S
C318 C320 1.391 . S
C319 C318 1.386 . S
C319 C323 1.393 . S
C320 H309 0.950 . S
C320 C318 1.391 . S
C320 C321 1.400 . S
C321 C315 1.491 . S
C321 C320 1.400 . S
C321 C322 1.398 . S
C322 H310 0.950 . S
C322 C321 1.398 . S
C322 C323 1.391 . S
C323 H311 0.950 . S
C323 C319 1.393 . S
C323 C322 1.391 . S
C93 C7 1.315 . S
C99 C50 1.323 . S
C113 C64 1.322 . S
C119 C21 1.315 . S
C133 C35 1.304 . S
C139 C78 1.323 . S
C153 C49 1.313 . S
C159 C8 1.324 . S
C173 C22 1.317 . S
C179 C63 1.297 . S
C193 C77 1.314 . S
C199 C36 1.320 . S
C213 C3 1.249 . S
C219 C37 1.212 . S
C233 C17 1.235 . S
C239 C51 1.233 . S
C253 C65 1.211 . S
C259 C31 1.233 . S
C273 C79 1.205 . S
C279 C45 1.240 . S
C293 C59 1.237 . S
C299 C9 1.238 . S
C313 C73 1.247 . S
C319 C23 1.221 . S
