# Generated by pormake.
# Topology umu, (4)-cn, num edge types: 1
# Building blocks:
#     Node 0, Type 0, BuildingBlock: QUQFOY_clean_sbu_3, # of connection points: 4
#     Node 1, Type 0, BuildingBlock: QUQFOY_clean_sbu_3, # of connection points: 4
#     Node 2, Type 0, BuildingBlock: QUQFOY_clean_sbu_3, # of connection points: 4
#     Node 3, Type 0, BuildingBlock: QUQFOY_clean_sbu_3, # of connection points: 4
#     Node 4, Type 0, BuildingBlock: QUQFOY_clean_sbu_3, # of connection points: 4
#     Node 5, Type 0, BuildingBlock: QUQFOY_clean_sbu_3, # of connection points: 4
#     Node 6, Type 0, BuildingBlock: QUQFOY_clean_sbu_3, # of connection points: 4
#     Node 7, Type 0, BuildingBlock: QUQFOY_clean_sbu_3, # of connection points: 4
#     Node 8, Type 0, BuildingBlock: QUQFOY_clean_sbu_3, # of connection points: 4
#     Node 9, Type 0, BuildingBlock: QUQFOY_clean_sbu_3, # of connection points: 4
#     Node 10, Type 0, BuildingBlock: QUQFOY_clean_sbu_3, # of connection points: 4
#     Node 11, Type 0, BuildingBlock: QUQFOY_clean_sbu_3, # of connection points: 4
#     Node 12, Type 0, BuildingBlock: QUQFOY_clean_sbu_3, # of connection points: 4
#     Node 13, Type 0, BuildingBlock: QUQFOY_clean_sbu_3, # of connection points: 4
#     Node 14, Type 0, BuildingBlock: QUQFOY_clean_sbu_3, # of connection points: 4
#     Node 15, Type 0, BuildingBlock: QUQFOY_clean_sbu_3, # of connection points: 4
#     Node 16, Type 0, BuildingBlock: QUQFOY_clean_sbu_3, # of connection points: 4
#     Node 17, Type 0, BuildingBlock: QUQFOY_clean_sbu_3, # of connection points: 4
#     Node 18, Type 0, BuildingBlock: QUQFOY_clean_sbu_3, # of connection points: 4
#     Node 19, Type 0, BuildingBlock: QUQFOY_clean_sbu_3, # of connection points: 4
#     Node 20, Type 0, BuildingBlock: QUQFOY_clean_sbu_3, # of connection points: 4
#     Node 21, Type 0, BuildingBlock: QUQFOY_clean_sbu_3, # of connection points: 4
#     Node 22, Type 0, BuildingBlock: QUQFOY_clean_sbu_3, # of connection points: 4
#     Node 23, Type 0, BuildingBlock: QUQFOY_clean_sbu_3, # of connection points: 4
#     Node 24, Type 0, BuildingBlock: QUQFOY_clean_sbu_3, # of connection points: 4
#     Node 25, Type 0, BuildingBlock: QUQFOY_clean_sbu_3, # of connection points: 4
#     Node 26, Type 0, BuildingBlock: QUQFOY_clean_sbu_3, # of connection points: 4
#     Node 27, Type 0, BuildingBlock: QUQFOY_clean_sbu_3, # of connection points: 4
#     Node 28, Type 0, BuildingBlock: QUQFOY_clean_sbu_3, # of connection points: 4
#     Node 29, Type 0, BuildingBlock: QUQFOY_clean_sbu_3, # of connection points: 4
#     Node 30, Type 0, BuildingBlock: QUQFOY_clean_sbu_3, # of connection points: 4
#     Node 31, Type 0, BuildingBlock: QUQFOY_clean_sbu_3, # of connection points: 4
#     Edge 32, Type (0, 0), BuildingBlock: XUDNAN_clean_linker_2, # of connection points: 2
#     Edge 33, Type (0, 0), BuildingBlock: XUDNAN_clean_linker_2, # of connection points: 2
#     Edge 34, Type (0, 0), BuildingBlock: XUDNAN_clean_linker_2, # of connection points: 2
#     Edge 35, Type (0, 0), BuildingBlock: XUDNAN_clean_linker_2, # of connection points: 2
#     Edge 36, Type (0, 0), BuildingBlock: XUDNAN_clean_linker_2, # of connection points: 2
#     Edge 37, Type (0, 0), BuildingBlock: XUDNAN_clean_linker_2, # of connection points: 2
#     Edge 38, Type (0, 0), BuildingBlock: XUDNAN_clean_linker_2, # of connection points: 2
#     Edge 39, Type (0, 0), BuildingBlock: XUDNAN_clean_linker_2, # of connection points: 2
#     Edge 40, Type (0, 0), BuildingBlock: XUDNAN_clean_linker_2, # of connection points: 2
#     Edge 41, Type (0, 0), BuildingBlock: XUDNAN_clean_linker_2, # of connection points: 2
#     Edge 42, Type (0, 0), BuildingBlock: XUDNAN_clean_linker_2, # of connection points: 2
#     Edge 43, Type (0, 0), BuildingBlock: XUDNAN_clean_linker_2, # of connection points: 2
#     Edge 44, Type (0, 0), BuildingBlock: XUDNAN_clean_linker_2, # of connection points: 2
#     Edge 45, Type (0, 0), BuildingBlock: XUDNAN_clean_linker_2, # of connection points: 2
#     Edge 46, Type (0, 0), BuildingBlock: XUDNAN_clean_linker_2, # of connection points: 2
#     Edge 47, Type (0, 0), BuildingBlock: XUDNAN_clean_linker_2, # of connection points: 2
#     Edge 48, Type (0, 0), BuildingBlock: XUDNAN_clean_linker_2, # of connection points: 2
#     Edge 49, Type (0, 0), BuildingBlock: XUDNAN_clean_linker_2, # of connection points: 2
#     Edge 50, Type (0, 0), BuildingBlock: XUDNAN_clean_linker_2, # of connection points: 2
#     Edge 51, Type (0, 0), BuildingBlock: XUDNAN_clean_linker_2, # of connection points: 2
#     Edge 52, Type (0, 0), BuildingBlock: XUDNAN_clean_linker_2, # of connection points: 2
#     Edge 53, Type (0, 0), BuildingBlock: XUDNAN_clean_linker_2, # of connection points: 2
#     Edge 54, Type (0, 0), BuildingBlock: XUDNAN_clean_linker_2, # of connection points: 2
#     Edge 55, Type (0, 0), BuildingBlock: XUDNAN_clean_linker_2, # of connection points: 2
#     Edge 56, Type (0, 0), BuildingBlock: XUDNAN_clean_linker_2, # of connection points: 2
#     Edge 57, Type (0, 0), BuildingBlock: XUDNAN_clean_linker_2, # of connection points: 2
#     Edge 58, Type (0, 0), BuildingBlock: XUDNAN_clean_linker_2, # of connection points: 2
#     Edge 59, Type (0, 0), BuildingBlock: XUDNAN_clean_linker_2, # of connection points: 2
#     Edge 60, Type (0, 0), BuildingBlock: XUDNAN_clean_linker_2, # of connection points: 2
#     Edge 61, Type (0, 0), BuildingBlock: XUDNAN_clean_linker_2, # of connection points: 2
#     Edge 62, Type (0, 0), BuildingBlock: XUDNAN_clean_linker_2, # of connection points: 2
#     Edge 63, Type (0, 0), BuildingBlock: XUDNAN_clean_linker_2, # of connection points: 2
#     Edge 64, Type (0, 0), BuildingBlock: XUDNAN_clean_linker_2, # of connection points: 2
#     Edge 65, Type (0, 0), BuildingBlock: XUDNAN_clean_linker_2, # of connection points: 2
#     Edge 66, Type (0, 0), BuildingBlock: XUDNAN_clean_linker_2, # of connection points: 2
#     Edge 67, Type (0, 0), BuildingBlock: XUDNAN_clean_linker_2, # of connection points: 2
#     Edge 68, Type (0, 0), BuildingBlock: XUDNAN_clean_linker_2, # of connection points: 2
#     Edge 69, Type (0, 0), BuildingBlock: XUDNAN_clean_linker_2, # of connection points: 2
#     Edge 70, Type (0, 0), BuildingBlock: XUDNAN_clean_linker_2, # of connection points: 2
#     Edge 71, Type (0, 0), BuildingBlock: XUDNAN_clean_linker_2, # of connection points: 2
#     Edge 72, Type (0, 0), BuildingBlock: XUDNAN_clean_linker_2, # of connection points: 2
#     Edge 73, Type (0, 0), BuildingBlock: XUDNAN_clean_linker_2, # of connection points: 2
#     Edge 74, Type (0, 0), BuildingBlock: XUDNAN_clean_linker_2, # of connection points: 2
#     Edge 75, Type (0, 0), BuildingBlock: XUDNAN_clean_linker_2, # of connection points: 2
#     Edge 76, Type (0, 0), BuildingBlock: XUDNAN_clean_linker_2, # of connection points: 2
#     Edge 77, Type (0, 0), BuildingBlock: XUDNAN_clean_linker_2, # of connection points: 2
#     Edge 78, Type (0, 0), BuildingBlock: XUDNAN_clean_linker_2, # of connection points: 2
#     Edge 79, Type (0, 0), BuildingBlock: XUDNAN_clean_linker_2, # of connection points: 2
#     Edge 80, Type (0, 0), BuildingBlock: XUDNAN_clean_linker_2, # of connection points: 2
#     Edge 81, Type (0, 0), BuildingBlock: XUDNAN_clean_linker_2, # of connection points: 2
#     Edge 82, Type (0, 0), BuildingBlock: XUDNAN_clean_linker_2, # of connection points: 2
#     Edge 83, Type (0, 0), BuildingBlock: XUDNAN_clean_linker_2, # of connection points: 2
#     Edge 84, Type (0, 0), BuildingBlock: XUDNAN_clean_linker_2, # of connection points: 2
#     Edge 85, Type (0, 0), BuildingBlock: XUDNAN_clean_linker_2, # of connection points: 2
#     Edge 86, Type (0, 0), BuildingBlock: XUDNAN_clean_linker_2, # of connection points: 2
#     Edge 87, Type (0, 0), BuildingBlock: XUDNAN_clean_linker_2, # of connection points: 2
#     Edge 88, Type (0, 0), BuildingBlock: XUDNAN_clean_linker_2, # of connection points: 2
#     Edge 89, Type (0, 0), BuildingBlock: XUDNAN_clean_linker_2, # of connection points: 2
#     Edge 90, Type (0, 0), BuildingBlock: XUDNAN_clean_linker_2, # of connection points: 2
#     Edge 91, Type (0, 0), BuildingBlock: XUDNAN_clean_linker_2, # of connection points: 2
#     Edge 92, Type (0, 0), BuildingBlock: XUDNAN_clean_linker_2, # of connection points: 2
#     Edge 93, Type (0, 0), BuildingBlock: XUDNAN_clean_linker_2, # of connection points: 2
#     Edge 94, Type (0, 0), BuildingBlock: XUDNAN_clean_linker_2, # of connection points: 2
#     Edge 95, Type (0, 0), BuildingBlock: XUDNAN_clean_linker_2, # of connection points: 2
# Relax obj value: 0.122
# Max RMSD: 0.093
# Mean RMSD: 0.093
data_MOF--net-umu--node1-QUQFOY_clean_sbu_3--edge1-XUDNAN_clean_linker_2
_symmetry_space_group_name_H-M    P1
_symmetry_Int_Tables_number       1
_symmetry_cell_setting            triclinic
loop_
_symmetry_equiv_pos_as_xyz
'x, y, z'
_cell_length_a     85.471013
_cell_length_b     85.07104
_cell_length_c     26.515494
_cell_angle_alpha  90.074813
_cell_angle_beta   90.011061
_cell_angle_gamma 90.006405
loop_
_atom_site_label
_atom_site_type_symbol
_atom_site_fract_x
_atom_site_fract_y
_atom_site_fract_z
_atom_type_partial_charge
C0 C 0.22469 0.14518 0.1219 0.0
O1 O 0.23457 0.15104 0.09162 0.0
Cd2 Cd 0.22852 0.16849 0.02534 0.0
O3 O 0.21004 0.14753 0.11572 0.0
Cd4 Cd 0.19321 0.16025 0.04896 0.0
C5 C 0.20448 0.19602 0.0852 0.0
O6 O 0.20948 0.15566 0.97591 0.0
O7 O 0.19369 0.17527 0.96982 0.0
O8 O 0.17826 0.13641 0.03505 0.0
C9 C 0.2033 0.16609 0.94847 0.0
O10 O 0.21718 0.19212 0.0633 0.0
C11 C 0.16489 0.14287 0.03546 0.0
O12 O 0.19325 0.18622 0.08931 0.0
O13 O 0.16447 0.15739 0.0467 0.0
C14 C 0.09985 0.98653 0.39878 0.0
O15 O 0.0936 0.99723 0.37241 0.0
Cd16 Cd 0.07322 0.99153 0.31578 0.0
O17 O 0.09703 0.97204 0.38958 0.0
Cd18 Cd 0.08337 0.95694 0.31994 0.0
C19 C 0.05071 0.9642 0.38182 0.0
O20 O 0.08465 0.97572 0.25214 0.0
O21 O 0.06513 0.95975 0.24806 0.0
O22 O 0.10724 0.94377 0.294 0.0
C23 C 0.07355 0.97 0.22655 0.0
O24 O 0.05295 0.97813 0.36574 0.0
C25 C 0.10137 0.9301 0.29114 0.0
O26 O 0.06024 0.95318 0.37158 0.0
O27 O 0.08725 0.92861 0.30542 0.0
C28 C 0.2672 0.85385 0.66701 0.0
O29 O 0.25729 0.84492 0.64587 0.0
Cd30 Cd 0.26272 0.8291 0.57527 0.0
O31 O 0.28095 0.8554 0.64866 0.0
Cd32 Cd 0.29521 0.84634 0.57044 0.0
C33 C 0.29668 0.80962 0.61316 0.0
O34 O 0.27292 0.8467 0.51455 0.0
O35 O 0.29211 0.83225 0.48954 0.0
O36 O 0.3016 0.87364 0.55633 0.0
C37 C 0.27916 0.83878 0.47965 0.0
O38 O 0.2821 0.80998 0.60321 0.0
C39 C 0.3156 0.87154 0.54223 0.0
O40 O 0.30522 0.82175 0.60686 0.0
O41 O 0.32078 0.85755 0.54436 0.0
C42 C 0.38734 0.02008 0.86448 0.0
O43 O 0.39365 0.00986 0.83611 0.0
Cd44 Cd 0.41215 0.01541 0.77205 0.0
O45 O 0.38934 0.03476 0.85652 0.0
Cd46 Cd 0.40148 0.05183 0.78989 0.0
C47 C 0.4368 0.04181 0.83502 0.0
O48 O 0.39974 0.03382 0.71991 0.0
O49 O 0.41546 0.05333 0.70904 0.0
O50 O 0.37678 0.06491 0.7743 0.0
C51 C 0.40897 0.04117 0.69108 0.0
O52 O 0.43382 0.02851 0.81494 0.0
C53 C 0.38222 0.0788 0.77483 0.0
O54 O 0.42679 0.05294 0.83382 0.0
O55 O 0.39653 0.08033 0.78702 0.0
C56 C 0.23039 0.8637 0.00113 0.0
O57 O 0.2413 0.85971 0.03082 0.0
Cd58 Cd 0.23753 0.84036 0.09301 0.0
O59 O 0.2163 0.85938 0.00942 0.0
Cd60 Cd 0.20186 0.84625 0.08106 0.0
C61 C 0.2138 0.81282 0.03125 0.0
O62 O 0.21934 0.8507 0.15117 0.0
O63 O 0.20544 0.82964 0.15601 0.0
O64 O 0.18644 0.8694 0.10006 0.0
C65 C 0.21463 0.83924 0.1774 0.0
O66 O 0.227 0.81725 0.04867 0.0
C67 C 0.17337 0.86238 0.10289 0.0
O68 O 0.20164 0.82132 0.0362 0.0
O69 O 0.17325 0.84786 0.0915 0.0
C70 C 0.39745 0.98583 0.19631 0.0
O71 O 0.40794 0.99565 0.20887 0.0
Cd72 Cd 0.4263 0.99345 0.27491 0.0
O73 O 0.39543 0.97313 0.2212 0.0
Cd74 Cd 0.40625 0.96136 0.30105 0.0
C75 C 0.44226 0.95672 0.2503 0.0
O76 O 0.40972 0.98645 0.34184 0.0
O77 O 0.41848 0.96668 0.38385 0.0
O78 O 0.37962 0.95603 0.32722 0.0
C79 C 0.41603 0.98133 0.38156 0.0
O80 O 0.44315 0.97164 0.25168 0.0
C81 C 0.38192 0.94194 0.34096 0.0
O82 O 0.43008 0.94945 0.26524 0.0
O83 O 0.39547 0.93631 0.33297 0.0
C84 C 0.25674 0.14391 0.45972 0.0
O85 O 0.24487 0.14945 0.48221 0.0
Cd86 Cd 0.24605 0.16813 0.54742 0.0
O87 O 0.27054 0.14692 0.47576 0.0
Cd88 Cd 0.28208 0.16099 0.55106 0.0
C89 C 0.27255 0.19467 0.49541 0.0
O90 O 0.2615 0.15679 0.61178 0.0
O91 O 0.27571 0.1773 0.625 0.0
O92 O 0.29714 0.13831 0.57855 0.0
C93 C 0.2654 0.16786 0.64103 0.0
O94 O 0.25867 0.19084 0.50799 0.0
C95 C 0.30993 0.14563 0.58489 0.0
O96 O 0.28412 0.18573 0.50511 0.0
O97 O 0.31016 0.15999 0.57184 0.0
C98 C 0.09087 0.01958 0.73224 0.0
O99 O 0.08379 0.00827 0.75336 0.0
Cd100 Cd 0.06606 0.01064 0.82089 0.0
O101 O 0.08931 0.03361 0.74883 0.0
Cd102 Cd 0.07555 0.04611 0.8229 0.0
C103 C 0.04024 0.0387 0.77474 0.0
O104 O 0.07921 0.02531 0.88387 0.0
O105 O 0.05993 0.04088 0.89929 0.0
O106 O 0.09905 0.06005 0.84896 0.0
C107 C 0.06891 0.03004 0.91449 0.0
O108 O 0.04328 0.02468 0.78852 0.0
C109 C 0.0926 0.07336 0.8548 0.0
O110 O 0.05044 0.04954 0.77959 0.0
O111 O 0.07829 0.07438 0.84231 0.0
C112 C 0.77742 0.85916 0.96386 0.0
O113 O 0.76626 0.85177 0.98474 0.0
Cd114 Cd 0.76693 0.83614 0.05754 0.0
O115 O 0.79124 0.85929 0.9825 0.0
Cd116 Cd 0.80427 0.84998 0.06308 0.0
C117 C 0.79901 0.81177 0.03051 0.0
O118 O 0.78047 0.85415 0.10718 0.0
O119 O 0.79841 0.84442 0.15398 0.0
O120 O 0.81663 0.87563 0.06088 0.0
C121 C 0.78446 0.84925 0.15 0.0
O122 O 0.7845 0.81452 0.03728 0.0
C123 C 0.82934 0.87147 0.08169 0.0
O124 O 0.80921 0.8226 0.03598 0.0
O125 O 0.83094 0.85692 0.09113 0.0
C126 C 0.88613 0.00229 0.79703 0.0
O127 O 0.8944 0.99369 0.82545 0.0
Cd128 Cd 0.91324 0.0053 0.87931 0.0
O129 O 0.88631 0.01721 0.80223 0.0
Cd130 Cd 0.89688 0.03699 0.86351 0.0
C131 C 0.93045 0.03432 0.80377 0.0
O132 O 0.90016 0.02139 0.93875 0.0
O133 O 0.91547 0.04155 0.93253 0.0
O134 O 0.87023 0.04228 0.88557 0.0
C135 C 0.90973 0.03073 0.95953 0.0
O136 O 0.93058 0.02107 0.82616 0.0
C137 C 0.87129 0.05712 0.88748 0.0
O138 O 0.91879 0.04357 0.80807 0.0
O139 O 0.88427 0.06312 0.87388 0.0
C140 C 0.70955 0.14976 0.44466 0.0
O141 O 0.72197 0.15655 0.45937 0.0
Cd142 Cd 0.7257 0.17307 0.52974 0.0
O143 O 0.69685 0.15086 0.46984 0.0
Cd144 Cd 0.68936 0.16266 0.55332 0.0
C145 C 0.69533 0.19975 0.5118 0.0
O146 O 0.71426 0.15808 0.59375 0.0
O147 O 0.69843 0.17294 0.63509 0.0
O148 O 0.67641 0.13853 0.57952 0.0
C149 C 0.71143 0.16583 0.63327 0.0
O150 O 0.70981 0.19627 0.514 0.0
C151 C 0.66388 0.14509 0.59425 0.0
O152 O 0.68487 0.18952 0.52189 0.0
O153 O 0.66267 0.15977 0.58632 0.0
C154 C 0.59732 0.97662 0.22024 0.0
O155 O 0.58795 0.98722 0.23534 0.0
Cd156 Cd 0.56966 0.98663 0.3019 0.0
O157 O 0.59817 0.96332 0.24262 0.0
Cd158 Cd 0.58594 0.95137 0.32043 0.0
C159 C 0.5495 0.95279 0.26893 0.0
O160 O 0.58561 0.9759 0.36495 0.0
O161 O 0.57454 0.95695 0.40483 0.0
O162 O 0.61075 0.93967 0.34764 0.0
C163 C 0.5787 0.97122 0.4041 0.0
O164 O 0.55013 0.96765 0.2742 0.0
C165 C 0.60502 0.92616 0.35634 0.0
O166 O 0.56087 0.94395 0.28144 0.0
O167 O 0.59073 0.92415 0.34496 0.0
C168 C 0.74149 0.15035 0.11007 0.0
O169 O 0.73355 0.1589 0.0803 0.0
Cd170 Cd 0.7443 0.17506 0.01652 0.0
O171 O 0.75633 0.14914 0.1054 0.0
Cd172 Cd 0.77797 0.15732 0.04688 0.0
C173 C 0.77344 0.19471 0.08571 0.0
O174 O 0.76102 0.1573 0.97589 0.0
O175 O 0.78396 0.16647 0.96015 0.0
O176 O 0.78485 0.12988 0.05111 0.0
C177 C 0.77046 0.16293 0.94414 0.0
O178 O 0.76042 0.19393 0.06235 0.0
C179 C 0.79952 0.13181 0.04724 0.0
O180 O 0.78258 0.18287 0.088 0.0
O181 O 0.80448 0.1459 0.04755 0.0
C182 C 0.59836 0.01141 0.88912 0.0
O183 O 0.59052 0.00164 0.86322 0.0
Cd184 Cd 0.57259 0.00739 0.7978 0.0
O185 O 0.5977 0.02616 0.87996 0.0
Cd186 Cd 0.58515 0.04302 0.81309 0.0
C187 C 0.54846 0.03535 0.85318 0.0
O188 O 0.58706 0.02418 0.74509 0.0
O189 O 0.57236 0.04415 0.72979 0.0
O190 O 0.60909 0.05739 0.79391 0.0
C191 C 0.57873 0.03166 0.71395 0.0
O192 O 0.55065 0.0217 0.83465 0.0
C193 C 0.60299 0.07096 0.7974 0.0
O194 O 0.55939 0.04554 0.85314 0.0
O195 O 0.58894 0.07159 0.81288 0.0
C196 C 0.73858 0.85257 0.63437 0.0
O197 O 0.74831 0.84455 0.60891 0.0
Cd198 Cd 0.74344 0.82946 0.5357 0.0
O199 O 0.72416 0.85321 0.62163 0.0
Cd200 Cd 0.70772 0.8422 0.55138 0.0
C201 C 0.71516 0.80414 0.58147 0.0
O202 O 0.72743 0.84639 0.48804 0.0
O203 O 0.70746 0.83312 0.46292 0.0
O204 O 0.6931 0.86665 0.54029 0.0
C205 C 0.72027 0.83977 0.45222 0.0
O206 O 0.72884 0.80667 0.5643 0.0
C207 C 0.67971 0.86019 0.54022 0.0
O208 O 0.7051 0.81518 0.58378 0.0
O209 O 0.67929 0.84558 0.54995 0.0
C210 C 0.8898 0.97836 0.46301 0.0
O211 O 0.89594 0.99155 0.45306 0.0
Cd212 Cd 0.9168 0.99504 0.39641 0.0
O213 O 0.89352 0.96615 0.43766 0.0
Cd214 Cd 0.90921 0.96145 0.35887 0.0
C215 C 0.94216 0.96425 0.42438 0.0
O216 O 0.9078 0.9867 0.31687 0.0
O217 O 0.92768 0.97223 0.29708 0.0
O218 O 0.88683 0.95425 0.30946 0.0
C219 C 0.91924 0.98412 0.28768 0.0
O220 O 0.93847 0.97876 0.42528 0.0
C221 C 0.89147 0.94076 0.29592 0.0
O222 O 0.93334 0.95415 0.40298 0.0
O223 O 0.90425 0.93589 0.31494 0.0
C224 C 0.7358 0.64515 0.61924 0.0
O225 O 0.745 0.64992 0.58501 0.0
Cd226 Cd 0.73601 0.66509 0.51641 0.0
O227 O 0.72099 0.64648 0.61418 0.0
Cd228 Cd 0.70187 0.65407 0.54626 0.0
C229 C 0.70978 0.69079 0.5771 0.0
O230 O 0.71774 0.64947 0.47262 0.0
O231 O 0.69975 0.66688 0.46335 0.0
O232 O 0.69183 0.6277 0.55152 0.0
C233 C 0.71039 0.65858 0.4434 0.0
O234 O 0.72259 0.6876 0.55463 0.0
C235 C 0.67752 0.63117 0.54567 0.0
O236 O 0.69924 0.68032 0.58274 0.0
O237 O 0.67413 0.64571 0.54357 0.0
C238 C 0.59772 0.48228 0.95506 0.0
O239 O 0.58921 0.49385 0.94245 0.0
Cd240 Cd 0.56958 0.49322 0.87995 0.0
O241 O 0.59752 0.46954 0.9296 0.0
Cd242 Cd 0.58594 0.46058 0.84746 0.0
C243 C 0.55129 0.45748 0.90529 0.0
O244 O 0.58243 0.48573 0.80554 0.0
O245 O 0.56978 0.46612 0.77365 0.0
O246 O 0.61157 0.45614 0.81228 0.0
C247 C 0.57355 0.4805 0.77122 0.0
O248 O 0.55173 0.47244 0.90562 0.0
C249 C 0.60933 0.44201 0.79875 0.0
O250 O 0.56241 0.44937 0.88658 0.0
O251 O 0.5963 0.43586 0.81085 0.0
C252 C 0.76388 0.35798 0.14668 0.0
O253 O 0.7529 0.35272 0.1193 0.0
Cd254 Cd 0.75648 0.33465 0.05302 0.0
O255 O 0.77815 0.35483 0.13657 0.0
Cd256 Cd 0.79202 0.34171 0.06385 0.0
C257 C 0.78149 0.30668 0.10603 0.0
O258 O 0.77378 0.34709 -0.00349 0.0
O259 O 0.78776 0.32631 0.9861 0.0
O260 O 0.80745 0.3649 0.04533 0.0
C261 C 0.77839 0.33626 0.96746 0.0
O262 O 0.76822 0.31074 0.08834 0.0
C263 C 0.8204 0.35779 0.04046 0.0
O264 O 0.79298 0.31621 0.10555 0.0
O265 O 0.82049 0.3432 0.05073 0.0
C266 C 0.90257 0.51866 0.4187 0.0
O267 O 0.91321 0.5092 0.40467 0.0
Cd268 Cd 0.93137 0.51241 0.33855 0.0
O269 O 0.90023 0.53161 0.39539 0.0
Cd270 Cd 0.91059 0.54467 0.31669 0.0
C271 C 0.94665 0.54932 0.3676 0.0
O272 O 0.91442 0.5201 0.2736 0.0
O273 O 0.92258 0.54029 0.23253 0.0
O274 O 0.88386 0.55001 0.2916 0.0
C275 C 0.92053 0.52556 0.23404 0.0
O276 O 0.94765 0.53441 0.36426 0.0
C277 C 0.88597 0.56432 0.27991 0.0
O278 O 0.93432 0.55656 0.35368 0.0
O279 O 0.89945 0.57 0.28856 0.0
C280 C 0.72819 0.35685 0.48264 0.0
O281 O 0.73824 0.34886 0.5067 0.0
Cd282 Cd 0.73225 0.33319 0.57721 0.0
O283 O 0.71406 0.35772 0.4982 0.0
Cd284 Cd 0.69859 0.34883 0.57376 0.0
C285 C 0.70007 0.31212 0.53133 0.0
O286 O 0.71951 0.35016 0.63466 0.0
O287 O 0.70046 0.33483 0.65479 0.0
O288 O 0.69065 0.3759 0.58325 0.0
C289 C 0.71296 0.34174 0.6677 0.0
O290 O 0.71431 0.31318 0.54527 0.0
C291 C 0.67659 0.3732 0.59571 0.0
O292 O 0.69086 0.32385 0.53485 0.0
O293 O 0.67219 0.35893 0.59489 0.0
C294 C 0.89656 0.48277 0.74834 0.0
O295 O 0.90408 0.49314 0.77273 0.0
Cd296 Cd 0.92336 0.48779 0.83413 0.0
O297 O 0.89791 0.46819 0.75915 0.0
Cd298 Cd 0.91073 0.45253 0.8285 0.0
C299 C 0.94584 0.45874 0.77635 0.0
O300 O 0.91016 0.47237 0.89427 0.0
O301 O 0.92546 0.45275 0.90833 0.0
O302 O 0.88628 0.43973 0.85117 0.0
C303 C 0.91925 0.46531 0.92426 0.0
O304 O 0.94397 0.47277 0.7922 0.0
C305 C 0.89178 0.42587 0.85162 0.0
O306 O 0.93525 0.44841 0.78278 0.0
O307 O 0.90586 0.42423 0.83722 0.0
C308 C 0.77147 0.65393 0.96031 0.0
O309 O 0.76035 0.66113 0.98197 0.0
Cd310 Cd 0.76302 0.67558 0.05716 0.0
O311 O 0.785 0.65323 0.98072 0.0
Cd312 Cd 0.79702 0.6611 0.06373 0.0
C313 C 0.7958 0.69866 0.02952 0.0
O314 O 0.77399 0.65768 0.11522 0.0
O315 O 0.79139 0.67325 0.14631 0.0
O316 O 0.80487 0.63404 0.07214 0.0
C317 C 0.77889 0.66549 0.15253 0.0
O318 O 0.78121 0.69679 0.03743 0.0
C319 C 0.81846 0.63655 0.08946 0.0
O320 O 0.80528 0.68717 0.03391 0.0
O321 O 0.82282 0.65083 0.09196 0.0
C322 C 0.58693 0.50849 0.28764 0.0
O323 O 0.57746 0.49921 0.30925 0.0
Cd324 Cd 0.557 0.50836 0.36201 0.0
O325 O 0.58693 0.52315 0.29797 0.0
Cd326 Cd 0.57491 0.54146 0.3611 0.0
C327 C 0.54185 0.54026 0.29449 0.0
O328 O 0.56964 0.52243 0.42667 0.0
O329 O 0.55864 0.54514 0.4362 0.0
O330 O 0.60134 0.54554 0.3877 0.0
C331 C 0.56154 0.5316 0.45377 0.0
O332 O 0.54142 0.52622 0.3111 0.0
C333 C 0.60081 0.56038 0.39121 0.0
O334 O 0.55317 0.54941 0.30559 0.0
O335 O 0.58824 0.56702 0.37668 0.0
C336 C 0.27244 0.35749 0.43647 0.0
O337 O 0.25954 0.3545 0.45801 0.0
Cd338 Cd 0.25699 0.33643 0.5247 0.0
O339 O 0.28529 0.35243 0.45497 0.0
Cd340 Cd 0.29377 0.33855 0.53393 0.0
C341 C 0.28065 0.30583 0.48045 0.0
O342 O 0.2729 0.34541 0.59139 0.0
O343 O 0.28478 0.32358 0.60723 0.0
O344 O 0.30974 0.36046 0.56059 0.0
C345 C 0.27509 0.334 0.62111 0.0
O346 O 0.26731 0.31184 0.49012 0.0
C347 C 0.32203 0.3526 0.56971 0.0
O348 O 0.29326 0.31311 0.49112 0.0
O349 O 0.32164 0.33803 0.55896 0.0
C350 C 0.38825 0.50766 0.22517 0.0
O351 O 0.39639 0.4976 0.24859 0.0
Cd352 Cd 0.41474 0.50428 0.31093 0.0
O353 O 0.3884 0.52213 0.23832 0.0
Cd354 Cd 0.3993 0.537 0.31352 0.0
C355 C 0.43437 0.5369 0.26148 0.0
O356 O 0.39995 0.51617 0.3756 0.0
O357 O 0.41668 0.5347 0.38796 0.0
O358 O 0.37331 0.54472 0.33924 0.0
C359 C 0.40968 0.52267 0.40477 0.0
O360 O 0.43385 0.52246 0.27425 0.0
C361 C 0.37639 0.55903 0.34817 0.0
O362 O 0.42269 0.5459 0.26906 0.0
O363 O 0.39008 0.5637 0.33703 0.0
C364 C 0.24228 0.65516 0.02763 0.0
O365 O 0.25154 0.66237 0.0571 0.0
Cd366 Cd 0.24312 0.68048 0.11894 0.0
O367 O 0.22744 0.65617 0.03303 0.0
Cd368 Cd 0.20713 0.66695 0.09242 0.0
C369 C 0.21645 0.70249 0.0466 0.0
O370 O 0.22458 0.66517 0.16152 0.0
O371 O 0.20311 0.67712 0.17949 0.0
O372 O 0.19744 0.64039 0.08627 0.0
C373 C 0.21628 0.67205 0.19409 0.0
O374 O 0.22955 0.70024 0.06841 0.0
C375 C 0.18312 0.6437 0.09271 0.0
O376 O 0.20548 0.69235 0.04863 0.0
O377 O 0.17959 0.6582 0.09536 0.0
C378 C 0.0995 0.49744 0.74946 0.0
O379 O 0.08979 0.50683 0.76955 0.0
Cd380 Cd 0.07104 0.49959 0.83105 0.0
O381 O 0.10054 0.48324 0.76463 0.0
Cd382 Cd 0.08936 0.46649 0.83349 0.0
C383 C 0.05461 0.46624 0.77544 0.0
O384 O 0.08506 0.48695 0.89587 0.0
O385 O 0.07368 0.46469 0.91015 0.0
O386 O 0.1157 0.46111 0.86056 0.0
C387 C 0.07703 0.47842 0.92523 0.0
O388 O 0.05421 0.48054 0.78972 0.0
C389 C 0.11423 0.44634 0.86478 0.0
O390 O 0.06651 0.45764 0.78438 0.0
O391 O 0.10128 0.44045 0.85048 0.0
C392 C 0.2744 0.65375 0.69092 0.0
O393 O 0.26317 0.66202 0.67418 0.0
Cd394 Cd 0.26317 0.6782 0.60218 0.0
O395 O 0.28731 0.65265 0.66688 0.0
Cd396 Cd 0.29807 0.66094 0.58278 0.0
C397 C 0.29839 0.69864 0.62222 0.0
O398 O 0.273 0.6607 0.54251 0.0
O399 O 0.29146 0.67049 0.49734 0.0
O400 O 0.30407 0.6335 0.57258 0.0
C401 C 0.27717 0.66674 0.50127 0.0
O402 O 0.28355 0.69733 0.61963 0.0
C403 C 0.31741 0.63523 0.55241 0.0
O404 O 0.30733 0.68704 0.61187 0.0
O405 O 0.32261 0.64921 0.54937 0.0
C406 C 0.10216 0.53015 0.42042 0.0
O407 O 0.09306 0.51906 0.40773 0.0
Cd408 Cd 0.07285 0.52036 0.34728 0.0
O409 O 0.10199 0.54335 0.3976 0.0
Cd410 Cd 0.08936 0.55375 0.31855 0.0
C411 C 0.05436 0.55596 0.37549 0.0
O412 O 0.08615 0.52889 0.27534 0.0
O413 O 0.07403 0.5485 0.24176 0.0
O414 O 0.11471 0.55864 0.28237 0.0
C415 C 0.07774 0.5341 0.23994 0.0
O416 O 0.055 0.541 0.3738 0.0
C417 C 0.11242 0.57293 0.27097 0.0
O418 O 0.06559 0.56435 0.3588 0.0
O419 O 0.09954 0.57899 0.28514 0.0
C420 C 0.24193 0.35381 0.09698 0.0
O421 O 0.25026 0.34648 0.06513 0.0
Cd422 Cd 0.2392 0.33086 0.00068 0.0
O423 O 0.22704 0.35409 0.09269 0.0
Cd424 Cd 0.20645 0.34565 0.03053 0.0
C425 C 0.21151 0.3088 0.0681 0.0
O426 O 0.22236 0.34796 0.95615 0.0
O427 O 0.20248 0.33259 0.94849 0.0
O428 O 0.19876 0.37286 0.0339 0.0
C429 C 0.21366 0.33986 0.92765 0.0
O430 O 0.22431 0.3103 0.04385 0.0
C431 C 0.18421 0.37068 0.02794 0.0
O432 O 0.2021 0.32036 0.07262 0.0
O433 O 0.17953 0.35649 0.02695 0.0
C434 C 0.39488 0.47263 0.89321 0.0
O435 O 0.40253 0.48366 0.87264 0.0
Cd436 Cd 0.42122 0.47982 0.80887 0.0
O437 O 0.39616 0.45851 0.87702 0.0
Cd438 Cd 0.41006 0.44526 0.80416 0.0
C439 C 0.44408 0.4506 0.86236 0.0
O440 O 0.4076 0.46624 0.74392 0.0
O441 O 0.42658 0.45027 0.72878 0.0
O442 O 0.38632 0.43203 0.77649 0.0
C443 C 0.41776 0.46122 0.71335 0.0
O444 O 0.44224 0.46489 0.84948 0.0
C445 C 0.39243 0.41854 0.77115 0.0
O446 O 0.43383 0.44025 0.85221 0.0
O447 O 0.40664 0.41714 0.78445 0.0
H448 H 0.12259 0.07319 0.8903 0.0
H449 H 0.08152 0.10291 0.87716 0.0
H450 H 0.09495 0.12362 0.92659 0.0
H451 H 0.13214 0.08344 0.01699 0.0
H452 H 0.15298 0.08299 0.0067 0.0
H453 H 0.14029 0.07074 0.96928 0.0
H454 H 0.15147 0.08291 0.88723 0.0
H455 H 0.16438 0.09498 0.92437 0.0
H456 H 0.15132 0.10396 0.87948 0.0
H457 H 0.11311 0.141 0.97874 0.0
H458 H 0.13498 0.15417 0.02313 0.0
H459 H 0.16354 0.11246 0.00286 0.0
C460 C 0.11644 0.08411 0.8973 0.0
C461 C 0.10102 0.08646 0.87968 0.0
C462 C 0.09338 0.10089 0.89004 0.0
C463 C 0.10088 0.11267 0.91834 0.0
C464 C 0.11598 0.10981 0.93607 0.0
C465 C 0.12369 0.09591 0.92554 0.0
C466 C 0.13987 0.09567 0.9486 0.0
C467 C 0.1414 0.08242 -0.01229 0.0
C468 C 0.15251 0.09431 0.90747 0.0
C469 C 0.14014 0.11166 0.97357 0.0
C470 C 0.12625 0.11964 0.96624 0.0
C471 C 0.12401 0.13483 0.98483 0.0
C472 C 0.13647 0.14218 0.01025 0.0
C473 C 0.15095 0.13433 0.01676 0.0
C474 C 0.15259 0.11875 -0.00098 0.0
H475 H 0.13085 0.93113 0.25185 0.0
H476 H 0.09134 0.89985 0.27415 0.0
H477 H 0.10491 0.87924 0.22473 0.0
H478 H 0.13873 0.92027 0.12516 0.0
H479 H 0.15968 0.92167 0.13159 0.0
H480 H 0.14715 0.93365 0.17041 0.0
H481 H 0.16024 0.92258 0.25114 0.0
H482 H 0.17299 0.91078 0.21255 0.0
H483 H 0.16113 0.9016 0.26036 0.0
H484 H 0.12285 0.86227 0.17058 0.0
H485 H 0.14435 0.84982 0.12237 0.0
H486 H 0.17145 0.8928 0.13496 0.0
C487 C 0.1251 0.91988 0.24699 0.0
C488 C 0.11006 0.91707 0.26706 0.0
C489 C 0.10291 0.90222 0.25938 0.0
C490 C 0.11049 0.89049 0.23112 0.0
C491 C 0.12516 0.89382 0.21078 0.0
C492 C 0.13243 0.90812 0.21881 0.0
C493 C 0.14816 0.90888 0.19286 0.0
C494 C 0.14843 0.92189 0.15262 0.0
C495 C 0.16141 0.91108 0.23153 0.0
C496 C 0.14868 0.89275 0.16901 0.0
C497 C 0.13531 0.88422 0.17949 0.0
C498 C 0.13336 0.86886 0.16211 0.0
C499 C 0.14558 0.86192 0.13451 0.0
C500 C 0.15955 0.87035 0.12468 0.0
C501 C 0.16089 0.88606 0.14142 0.0
H502 H 0.38276 0.91119 0.37431 0.0
H503 H 0.35384 0.95318 0.37325 0.0
H504 H 0.33472 0.94006 0.42834 0.0
H505 H 0.35037 0.88341 0.37128 0.0
H506 H 0.35994 0.86946 0.41205 0.0
H507 H 0.37142 0.88215 0.37226 0.0
H508 H 0.38657 0.89206 0.45075 0.0
H509 H 0.37497 0.87958 0.49088 0.0
H510 H 0.3759 0.90041 0.50296 0.0
H511 H 0.31927 0.92313 0.48562 0.0
H512 H 0.30653 0.90208 0.53403 0.0
H513 H 0.34471 0.87041 0.49697 0.0
C514 C 0.37233 0.91756 0.38529 0.0
C515 C 0.36982 0.93323 0.36946 0.0
C516 C 0.35602 0.94116 0.3847 0.0
C517 C 0.34512 0.93385 0.41628 0.0
C518 C 0.3481 0.91855 0.43208 0.0
C519 C 0.36121 0.91036 0.41658 0.0
C520 C 0.36129 0.89386 0.43827 0.0
C521 C 0.36072 0.88149 0.39594 0.0
C522 C 0.37553 0.89133 0.47276 0.0
C523 C 0.34619 0.8941 0.46835 0.0
C524 C 0.3389 0.90855 0.46458 0.0
C525 C 0.32481 0.91174 0.48873 0.0
C526 C 0.3177 0.8997 0.51634 0.0
C527 C 0.3246 0.88458 0.51934 0.0
C528 C 0.3392 0.88186 0.49569 0.0
H529 H 0.35217 0.07789 0.74006 0.0
H530 H 0.39145 0.1095 0.76222 0.0
H531 H 0.37727 0.13029 0.71567 0.0
H532 H 0.34402 0.08877 0.61594 0.0
H533 H 0.32307 0.08724 0.62176 0.0
H534 H 0.33555 0.07541 0.66107 0.0
H535 H 0.32224 0.08657 0.74134 0.0
H536 H 0.30948 0.09819 0.70226 0.0
H537 H 0.32116 0.10755 0.75028 0.0
H538 H 0.35934 0.14698 0.6609 0.0
H539 H 0.33836 0.15877 0.60885 0.0
H540 H 0.31142 0.11571 0.62192 0.0
C541 C 0.35769 0.08929 0.7362 0.0
C542 C 0.3729 0.0921 0.75505 0.0
C543 C 0.37975 0.10712 0.7485 0.0
C544 C 0.37182 0.11897 0.72186 0.0
C545 C 0.35706 0.1156 0.70217 0.0
C546 C 0.35 0.10117 0.70963 0.0
C547 C 0.33434 0.10023 0.68323 0.0
C548 C 0.33425 0.08714 0.64313 0.0
C549 C 0.32102 0.09801 0.72157 0.0
C550 C 0.33373 0.11632 0.65918 0.0
C551 C 0.34691 0.12505 0.67049 0.0
C552 C 0.34894 0.14026 0.65205 0.0
C553 C 0.33701 0.14682 0.62225 0.0
C554 C 0.32328 0.13815 0.61113 0.0
C555 C 0.32179 0.12264 0.62945 0.0
H556 H 0.85312 0.86775 0.15079 0.0
H557 H 0.83061 0.90227 0.05463 0.0
H558 H 0.84596 0.92328 0.09499 0.0
H559 H 0.85251 0.8898 0.25976 0.0
H560 H 0.87136 0.88388 0.2836 0.0
H561 H 0.86062 0.871 0.24233 0.0
H562 H 0.88409 0.86991 0.18071 0.0
H563 H 0.89504 0.88262 0.2222 0.0
H564 H 0.89233 0.88796 0.15702 0.0
H565 H 0.86011 0.94073 0.15307 0.0
H566 H 0.87459 0.95389 0.22119 0.0
H567 H 0.8892 0.90858 0.27981 0.0
C568 C 0.85184 0.87966 0.13709 0.0
C569 C 0.84072 0.88337 0.09933 0.0
C570 C 0.83908 0.89915 0.08329 0.0
C571 C 0.84775 0.91117 0.106 0.0
C572 C 0.85812 0.90724 0.14446 0.0
C573 C 0.86044 0.89187 0.15947 0.0
C574 C 0.87151 0.8911 0.20429 0.0
C575 C 0.86352 0.8835 0.25019 0.0
C576 C 0.88664 0.88238 0.1902 0.0
C577 C 0.87456 0.90846 0.21314 0.0
C578 C 0.86672 0.91749 0.17792 0.0
C579 C 0.86657 0.93381 0.18024 0.0
C580 C 0.87472 0.94116 0.21939 0.0
C581 C 0.88304 0.93225 0.25564 0.0
C582 C 0.8831 0.91566 0.25217 0.0
H583 H 0.87055 0.08906 0.90752 0.0
H584 H 0.8433 0.04613 0.92076 0.0
H585 H 0.82335 0.06033 0.96946 0.0
H586 H 0.86228 0.10426 0.03099 0.0
H587 H 0.86052 0.12444 0.01109 0.0
H588 H 0.87297 0.11111 0.97668 0.0
H589 H 0.85802 0.11726 0.89398 0.0
H590 H 0.84576 0.13084 0.92796 0.0
H591 H 0.83705 0.11506 0.89226 0.0
H592 H 0.80673 0.07849 0.01843 0.0
H593 H 0.79225 0.10078 0.05485 0.0
H594 H 0.82953 0.13245 0.00951 0.0
C595 C 0.86029 0.08272 0.92014 0.0
C596 C 0.85853 0.06646 0.91037 0.0
C597 C 0.84495 0.05857 0.92769 0.0
C598 C 0.83357 0.0665 0.95576 0.0
C599 C 0.83586 0.08236 0.96604 0.0
C600 C 0.84869 0.0905 0.9481 0.0
C601 C 0.8479 0.10768 0.96338 0.0
C602 C 0.86174 0.11213 -0.00243 0.0
C603 C 0.84713 0.11834 0.91661 0.0
C604 C 0.8326 0.10785 -0.00758 0.0
C605 C 0.826 0.09304 -0.00604 0.0
C606 C 0.81174 0.09017 0.01749 0.0
C607 C 0.80364 0.1029 0.03828 0.0
C608 C 0.80977 0.11834 0.03516 0.0
C609 C 0.82465 0.12075 0.01313 0.0
H610 H 0.66508 0.11428 0.62337 0.0
H611 H 0.63642 0.15627 0.63424 0.0
H612 H 0.61845 0.14236 0.69211 0.0
H613 H 0.63341 0.08624 0.6253 0.0
H614 H 0.64425 0.07217 0.66219 0.0
H615 H 0.65445 0.08549 0.62102 0.0
H616 H 0.67119 0.09502 0.69667 0.0
H617 H 0.66082 0.08194 0.73827 0.0
H618 H 0.66161 0.10268 0.75206 0.0
H619 H 0.60379 0.12378 0.74989 0.0
H620 H 0.5925 0.10144 0.79703 0.0
H621 H 0.63125 0.07202 0.74918 0.0
C622 C 0.65493 0.12053 0.6374 0.0
C623 C 0.65212 0.13636 0.6241 0.0
C624 C 0.63876 0.14412 0.64367 0.0
C625 C 0.62854 0.13634 0.67681 0.0
C626 C 0.63189 0.12085 0.69008 0.0
C627 C 0.64468 0.11299 0.67058 0.0
C628 C 0.64566 0.09636 0.69045 0.0
C629 C 0.64436 0.08436 0.64717 0.0
C630 C 0.66072 0.09386 0.72119 0.0
C631 C 0.63134 0.09601 0.72399 0.0
C632 C 0.62359 0.11027 0.72356 0.0
C633 C 0.6098 0.11259 0.75062 0.0
C634 C 0.60352 0.09985 0.77751 0.0
C635 C 0.61103 0.085 0.77708 0.0
C636 C 0.62531 0.08325 0.75084 0.0
H637 H 0.63541 0.92774 0.38955 0.0
H638 H 0.59492 0.89696 0.38466 0.0
H639 H 0.60903 0.87748 0.4365 0.0
H640 H 0.66451 0.89711 0.38105 0.0
H641 H 0.67792 0.90688 0.4232 0.0
H642 H 0.66453 0.91826 0.38563 0.0
H643 H 0.65402 0.93157 0.46684 0.0
H644 H 0.6672 0.92002 0.50474 0.0
H645 H 0.64648 0.91955 0.51722 0.0
H646 H 0.62746 0.86147 0.48969 0.0
H647 H 0.64974 0.849 0.5334 0.0
H648 H 0.67813 0.8903 0.50388 0.0
C649 C 0.62955 0.91684 0.39898 0.0
C650 C 0.61406 0.91386 0.38295 0.0
C651 C 0.6068 0.89948 0.39632 0.0
C652 C 0.61468 0.88838 0.42603 0.0
C653 C 0.62982 0.89184 0.44209 0.0
C654 C 0.63725 0.90564 0.4286 0.0
C655 C 0.65367 0.90635 0.44998 0.0
C656 C 0.66588 0.90719 0.40743 0.0
C657 C 0.65544 0.9202 0.48689 0.0
C658 C 0.65435 0.89075 0.47734 0.0
C659 C 0.64043 0.88261 0.4727 0.0
C660 C 0.6384 0.86774 0.49368 0.0
C661 C 0.65111 0.86079 0.51867 0.0
C662 C 0.66566 0.86869 0.52232 0.0
C663 C 0.66712 0.88402 0.5023 0.0
H664 H 0.64829 0.63407 0.50254 0.0
H665 H 0.68107 0.59993 0.56292 0.0
H666 H 0.66457 0.57842 0.53095 0.0
H667 H 0.61223 0.61032 0.52681 0.0
H668 H 0.60309 0.61673 0.46913 0.0
H669 H 0.61653 0.62953 0.50171 0.0
H670 H 0.63298 0.63194 0.42008 0.0
H671 H 0.61979 0.61891 0.38753 0.0
H672 H 0.64038 0.6144 0.39023 0.0
H673 H 0.64684 0.56089 0.48444 0.0
H674 H 0.62652 0.54758 0.43492 0.0
H675 H 0.60419 0.59253 0.40522 0.0
C676 C 0.65171 0.62206 0.51037 0.0
C677 C 0.66595 0.61866 0.53536 0.0
C678 C 0.67021 0.60281 0.54397 0.0
C679 C 0.66094 0.5905 0.52584 0.0
C680 C 0.64737 0.59422 0.49946 0.0
C681 C 0.64254 0.60956 0.49248 0.0
C682 C 0.62772 0.61017 0.46088 0.0
C683 C 0.61408 0.6171 0.49147 0.0
C684 C 0.63039 0.6194 0.41178 0.0
C685 C 0.62525 0.5928 0.45035 0.0
C686 C 0.6368 0.5839 0.47296 0.0
C687 C 0.63758 0.56768 0.46718 0.0
C688 C 0.62601 0.56025 0.43857 0.0
C689 C 0.6137 0.56899 0.41623 0.0
C690 C 0.61342 0.58553 0.4219 0.0
H691 H 0.6097 0.41081 0.76901 0.0
H692 H 0.63506 0.45485 0.75492 0.0
H693 H 0.65345 0.44235 0.69597 0.0
H694 H 0.64397 0.38603 0.76764 0.0
H695 H 0.63475 0.37049 0.73218 0.0
H696 H 0.62313 0.38302 0.77213 0.0
H697 H 0.6055 0.38995 0.69583 0.0
H698 H 0.61721 0.3776 0.6555 0.0
H699 H 0.61423 0.39797 0.63957 0.0
H700 H 0.66898 0.42561 0.63871 0.0
H701 H 0.68283 0.40453 0.59349 0.0
H702 H 0.64829 0.37075 0.64523 0.0
C703 C 0.61915 0.41778 0.7536 0.0
C704 C 0.6209 0.43383 0.76655 0.0
C705 C 0.63347 0.44254 0.74576 0.0
C706 C 0.64394 0.43559 0.7119 0.0
C707 C 0.64177 0.41986 0.69934 0.0
C708 C 0.62987 0.41096 0.71996 0.0
C709 C 0.63073 0.39407 0.70164 0.0
C710 C 0.6333 0.38274 0.74604 0.0
C711 C 0.61604 0.38964 0.67133 0.0
C712 C 0.64505 0.39491 0.66788 0.0
C713 C 0.65106 0.40998 0.66669 0.0
C714 C 0.66441 0.41374 0.63926 0.0
C715 C 0.67217 0.40168 0.61357 0.0
C716 C 0.66664 0.38599 0.61572 0.0
C717 C 0.65269 0.38265 0.64237 0.0
H718 H 0.86237 0.42694 0.89179 0.0
H719 H 0.90124 0.39527 0.86395 0.0
H720 H 0.88766 0.37446 0.91217 0.0
H721 H 0.85527 0.41537 0.01744 0.0
H722 H 0.83428 0.41701 0.01308 0.0
H723 H 0.84657 0.42908 0.97385 0.0
H724 H 0.83269 0.41856 0.89366 0.0
H725 H 0.82014 0.4067 0.93271 0.0
H726 H 0.83148 0.39764 0.88327 0.0
H727 H 0.87011 0.35747 0.96695 0.0
H728 H 0.84904 0.34505 0.01706 0.0
H729 H 0.82225 0.38833 0.0096 0.0
C730 C 0.86794 0.41555 0.89503 0.0
C731 C 0.88284 0.41271 0.87391 0.0
C732 C 0.88978 0.39768 0.87953 0.0
C733 C 0.8822 0.38582 0.90711 0.0
C734 C 0.86772 0.3892 0.92876 0.0
C735 C 0.8606 0.40365 0.92249 0.0
C736 C 0.84511 0.40444 0.94996 0.0
C737 C 0.84533 0.41723 -0.00899 0.0
C738 C 0.83155 0.40698 0.91267 0.0
C739 C 0.84462 0.38818 0.97285 0.0
C740 C 0.85777 0.37955 0.9604 0.0
C741 C 0.85976 0.36412 0.97688 0.0
C742 C 0.84779 0.3572 0.00559 0.0
C743 C 0.83403 0.36573 0.01746 0.0
C744 C 0.83266 0.38151 0.00156 0.0
H745 H 0.84713 0.63787 0.1379 0.0
H746 H 0.81057 0.6056 0.09026 0.0
H747 H 0.82373 0.58407 0.1351 0.0
H748 H 0.8794 0.60927 0.12736 0.0
H749 H 0.88945 0.61686 0.18197 0.0
H750 H 0.87755 0.62974 0.14408 0.0
H751 H 0.86173 0.63751 0.2236 0.0
H752 H 0.87341 0.62447 0.26158 0.0
H753 H 0.85243 0.62239 0.26057 0.0
H754 H 0.83927 0.56656 0.18994 0.0
H755 H 0.85848 0.55291 0.2433 0.0
H756 H 0.88594 0.59577 0.2538 0.0
C757 C 0.84206 0.62621 0.13618 0.0
C758 C 0.82779 0.62345 0.11057 0.0
C759 C 0.82148 0.60804 0.10953 0.0
C760 C 0.82883 0.59571 0.13508 0.0
C761 C 0.84258 0.5989 0.16117 0.0
C762 C 0.84934 0.61366 0.16126 0.0
C763 C 0.86423 0.61376 0.19252 0.0
C764 C 0.8785 0.61763 0.1595 0.0
C765 C 0.86286 0.62521 0.23721 0.0
C766 C 0.86461 0.59681 0.21035 0.0
C767 C 0.85191 0.58854 0.19205 0.0
C768 C 0.84937 0.57284 0.20414 0.0
C769 C 0.86031 0.56522 0.23478 0.0
C770 C 0.87374 0.57325 0.25271 0.0
C771 C 0.8758 0.58932 0.24066 0.0
H772 H 0.32398 0.38269 0.60442 0.0
H773 H 0.35001 0.33896 0.59686 0.0
H774 H 0.37092 0.35079 0.64941 0.0
H775 H 0.3572 0.40905 0.60014 0.0
H776 H 0.34845 0.42277 0.64362 0.0
H777 H 0.33622 0.41094 0.60338 0.0
H778 H 0.32148 0.40055 0.68206 0.0
H779 H 0.33383 0.41216 0.7226 0.0
H780 H 0.33236 0.39124 0.73203 0.0
H781 H 0.38869 0.3676 0.70514 0.0
H782 H 0.40213 0.38809 0.75556 0.0
H783 H 0.36355 0.42009 0.7277 0.0
C784 C 0.33416 0.37562 0.61311 0.0
C785 C 0.33541 0.35992 0.59627 0.0
C786 C 0.34887 0.35105 0.60908 0.0
C787 C 0.36075 0.35766 0.63907 0.0
C788 C 0.35895 0.37309 0.656 0.0
C789 C 0.346 0.38196 0.64315 0.0
C790 C 0.34658 0.39813 0.6668 0.0
C791 C 0.34715 0.41098 0.62606 0.0
C792 C 0.33274 0.40066 0.70302 0.0
C793 C 0.36187 0.39703 0.69513 0.0
C794 C 0.36889 0.38253 0.68851 0.0
C795 C 0.38327 0.37898 0.71059 0.0
C796 C 0.39078 0.39065 0.73933 0.0
C797 C 0.38384 0.40565 0.74586 0.0
C798 C 0.36911 0.40871 0.72391 0.0
H799 H 0.34531 0.63476 0.49914 0.0
H800 H 0.3072 0.60499 0.55051 0.0
H801 H 0.31783 0.58295 0.50144 0.0
H802 H 0.34752 0.61987 0.37424 0.0
H803 H 0.36857 0.62028 0.37006 0.0
H804 H 0.35854 0.63392 0.41081 0.0
H805 H 0.37484 0.62431 0.48715 0.0
H806 H 0.38511 0.61084 0.44646 0.0
H807 H 0.3753 0.60364 0.50199 0.0
H808 H 0.33093 0.56481 0.44257 0.0
H809 H 0.34831 0.54994 0.38625 0.0
H810 H 0.37907 0.59044 0.3746 0.0
C811 C 0.33937 0.62352 0.50071 0.0
C812 C 0.32538 0.62165 0.52864 0.0
C813 C 0.31792 0.60677 0.52949 0.0
C814 C 0.32382 0.59416 0.50151 0.0
C815 C 0.3373 0.59651 0.4732 0.0
C816 C 0.34521 0.61067 0.47325 0.0
C817 C 0.35959 0.60982 0.43967 0.0
C818 C 0.35848 0.62168 0.39612 0.0
C819 C 0.3746 0.61229 0.47068 0.0
C820 C 0.35836 0.59303 0.42051 0.0
C821 C 0.34528 0.5857 0.44004 0.0
C822 C 0.34131 0.57034 0.42738 0.0
C823 C 0.35123 0.56202 0.39503 0.0
C824 C 0.36509 0.56899 0.37601 0.0
C825 C 0.36856 0.5848 0.38843 0.0
H826 H 0.1142 0.60482 0.25135 0.0
H827 H 0.13611 0.56001 0.21685 0.0
H828 H 0.15427 0.57322 0.15888 0.0
H829 H 0.11809 0.62224 0.12568 0.0
H830 H 0.12279 0.64153 0.14945 0.0
H831 H 0.1105 0.62857 0.1858 0.0
H832 H 0.12928 0.63109 0.26215 0.0
H833 H 0.14146 0.64422 0.22629 0.0
H834 H 0.14977 0.62676 0.2539 0.0
H835 H 0.17059 0.59086 0.1073 0.0
H836 H 0.18637 0.61253 0.07273 0.0
H837 H 0.15474 0.64637 0.14082 0.0
C838 C 0.12279 0.59782 0.2314 0.0
C839 C 0.12371 0.58138 0.23857 0.0
C840 C 0.1352 0.57263 0.21219 0.0
C841 C 0.14549 0.57999 0.17874 0.0
C842 C 0.14423 0.59615 0.17215 0.0
C843 C 0.13334 0.60504 0.19813 0.0
C844 C 0.13538 0.6224 0.18679 0.0
C845 C 0.12082 0.62908 0.16035 0.0
C846 C 0.13921 0.63166 0.23515 0.0
C847 C 0.14928 0.62184 0.1512 0.0
C848 C 0.15397 0.60652 0.14266 0.0
C849 C 0.16699 0.60291 0.11333 0.0
C850 C 0.17585 0.61531 0.09376 0.0
C851 C 0.17173 0.63112 0.10382 0.0
C852 C 0.15799 0.6344 0.13166 0.0
H853 H 0.115 0.41423 0.88144 0.0
H854 H 0.14102 0.45738 0.90716 0.0
H855 H 0.16018 0.44284 0.95804 0.0
H856 H 0.1212 0.39718 0.00426 0.0
H857 H 0.12375 0.37741 0.98114 0.0
H858 H 0.11166 0.39107 0.94684 0.0
H859 H 0.12821 0.38658 0.86622 0.0
H860 H 0.14015 0.37271 0.90003 0.0
H861 H 0.14912 0.38924 0.86891 0.0
H862 H 0.17627 0.42422 0.00687 0.0
H863 H 0.1906 0.40165 0.04192 0.0
H864 H 0.15495 0.37002 0.98412 0.0
C865 C 0.1248 0.42057 0.89747 0.0
C866 C 0.12647 0.43697 0.89035 0.0
C867 C 0.13947 0.44484 0.91194 0.0
C868 C 0.15038 0.43671 0.94128 0.0
C869 C 0.14822 0.42067 0.94855 0.0
C870 C 0.13594 0.41259 0.92669 0.0
C871 C 0.13684 0.39519 0.93902 0.0
C872 C 0.1225 0.38991 0.96964 0.0
C873 C 0.13869 0.38535 0.89067 0.0
C874 C 0.15159 0.39482 0.9709 0.0
C875 C 0.15779 0.40972 0.97637 0.0
C876 C 0.17156 0.41247 0.00292 0.0
C877 C 0.17958 0.39957 0.02286 0.0
C878 C 0.17388 0.38409 0.01592 0.0
C879 C 0.15947 0.38174 -0.00929 0.0
H880 H 0.21488 0.14535 0.88072 0.0
H881 H 0.20758 0.19514 0.90681 0.0
H882 H 0.22271 0.20127 0.82962 0.0
H883 H 0.25327 0.14738 0.83721 0.0
H884 H 0.25112 0.13248 0.78932 0.0
H885 H 0.23895 0.132 0.84467 0.0
H886 H 0.21402 0.13215 0.78889 0.0
H887 H 0.22612 0.13236 0.73327 0.0
H888 H 0.21152 0.14739 0.74238 0.0
H889 H 0.24127 0.20178 0.75538 0.0
H890 H 0.25844 0.19657 0.68188 0.0
H891 H 0.25164 0.14645 0.7019 0.0
C892 C 0.21625 0.15752 0.86957 0.0
C893 C 0.21015 0.16979 0.89928 0.0
C894 C 0.2121 0.1856 0.88397 0.0
C895 C 0.22073 0.18918 0.84051 0.0
C896 C 0.22698 0.17678 0.81263 0.0
C897 C 0.2245 0.16126 0.82591 0.0
C898 C 0.23241 0.15009 0.78971 0.0
C899 C 0.24466 0.13989 0.81687 0.0
C900 C 0.22029 0.1399 0.7619 0.0
C901 C 0.24006 0.16174 0.75461 0.0
C902 C 0.23695 0.17708 0.76864 0.0
C903 C 0.24357 0.18983 0.74347 0.0
C904 C 0.25337 0.18678 0.70218 0.0
C905 C 0.25618 0.17114 0.68641 0.0
C906 C 0.24948 0.15852 0.71303 0.0
H907 H 0.09329 0.98088 0.15535 0.0
H908 H 0.04405 0.97548 0.19038 0.0
H909 H 0.03716 0.99055 0.11343 0.0
H910 H 0.09196 0.01935 0.10864 0.0
H911 H 0.10589 0.01607 0.05871 0.0
H912 H 0.10681 0.00445 0.11529 0.0
H913 H 0.10482 0.97885 0.06242 0.0
H914 H 0.10412 0.99039 0.00557 0.0
H915 H 0.08881 0.97642 0.01882 0.0
H916 H 0.03612 0.0086 0.03717 0.0
H917 H 0.04076 0.02471 0.96069 0.0
H918 H 0.09059 0.01607 0.97349 0.0
C919 C 0.08106 0.98273 0.14638 0.0
C920 C 0.06917 0.97717 0.1784 0.0
C921 C 0.05328 0.97964 0.16578 0.0
C922 C 0.04929 0.98823 0.12248 0.0
C923 C 0.06136 0.99389 0.09211 0.0
C924 C 0.07691 0.99091 0.10295 0.0
C925 C 0.08769 -0.00199 0.0641 0.0
C926 C 0.09873 0.01019 0.08814 0.0
C927 C 0.0969 0.98515 0.03606 0.0
C928 C 0.07583 0.00575 0.03012 0.0
C929 C 0.06071 0.00344 0.04708 0.0
C930 C 0.04788 0.01028 0.02309 0.0
C931 C 0.05062 0.01947 0.98006 0.0
C932 C 0.066 0.02144 0.96141 0.0
C933 C 0.0787 0.01454 0.98683 0.0
H934 H 0.22311 0.85944 0.25126 0.0
H935 H 0.22463 0.81033 0.2079 0.0
H936 H 0.24161 0.80457 0.2814 0.0
H937 H 0.26168 0.86328 0.29253 0.0
H938 H 0.25727 0.87574 0.34567 0.0
H939 H 0.24468 0.87582 0.29125 0.0
H940 H 0.22079 0.86899 0.34734 0.0
H941 H 0.23325 0.86916 0.40213 0.0
H942 H 0.22162 0.85203 0.38798 0.0
H943 H 0.26095 0.8051 0.3538 0.0
H944 H 0.27755 0.81092 0.42833 0.0
H945 H 0.26113 0.85913 0.42763 0.0
C946 C 0.22683 0.84744 0.2579 0.0
C947 C 0.22268 0.8353 0.22442 0.0
C948 C 0.22765 0.81972 0.23377 0.0
C949 C 0.23735 0.81638 0.27506 0.0
C950 C 0.24158 0.82873 0.30686 0.0
C951 C 0.23613 0.84387 0.29948 0.0
C952 C 0.24218 0.85501 0.33933 0.0
C953 C 0.25204 0.86824 0.31576 0.0
C954 C 0.22865 0.86168 0.37109 0.0
C955 C 0.25219 0.84388 0.36965 0.0
C956 C 0.25189 0.82882 0.35005 0.0
C957 C 0.26106 0.81678 0.37005 0.0
C958 C 0.27052 0.82019 0.41192 0.0
C959 C 0.27042 0.83541 0.43344 0.0
C960 C 0.2612 0.84735 0.41198 0.0
H961 H 0.40748 0.01059 0.66189 0.0
H962 H 0.42072 0.05707 0.61014 0.0
H963 H 0.42699 0.04608 0.526 0.0
H964 H 0.43785 0.98905 0.58987 0.0
H965 H 0.42495 0.97269 0.5779 0.0
H966 H 0.42287 0.98405 0.63495 0.0
H967 H 0.39376 0.98935 0.61324 0.0
H968 H 0.39574 0.97801 0.55634 0.0
H969 H 0.38886 -0.00198 0.55327 0.0
H970 H 0.42804 0.03073 0.44553 0.0
H971 H 0.42541 0.01177 0.37524 0.0
H972 H 0.41365 0.97497 0.48157 0.0
C973 C 0.41186 0.01841 0.63296 0.0
C974 C 0.41354 0.03466 0.642 0.0
C975 C 0.41939 0.04457 0.60363 0.0
C976 C 0.42301 0.03843 0.55595 0.0
C977 C 0.42104 0.02235 0.54803 0.0
C978 C 0.41582 0.01244 0.5857 0.0
C979 C 0.41409 0.99574 0.56706 0.0
C980 C 0.42563 0.98473 0.59405 0.0
C981 C 0.39711 0.98995 0.5728 0.0
C982 C 0.41848 0.9979 0.51233 0.0
C983 C 0.42251 0.01333 0.50213 0.0
C984 C 0.42533 0.01854 0.4532 0.0
C985 C 0.42375 0.00775 0.41362 0.0
C986 C 0.4196 0.99195 0.4235 0.0
C987 C 0.4173 0.9869 0.47345 0.0
H988 H 0.78902 0.84658 0.25181 0.0
H989 H 0.75311 0.84594 0.13604 0.0
H990 H 0.733 0.84119 0.20063 0.0
H991 H 0.77173 0.81725 0.33544 0.0
H992 H 0.77702 0.82778 0.39195 0.0
H993 H 0.78892 0.82952 0.33615 0.0
H994 H 0.78579 0.85983 0.33874 0.0
H995 H 0.77393 0.85818 0.39455 0.0
H996 H 0.76643 0.86825 0.33987 0.0
H997 H 0.71672 0.83683 0.27728 0.0
H998 H 0.705 0.83609 0.36264 0.0
H999 H 0.75114 0.8417 0.42858 0.0
C1000 C 0.77695 0.84523 0.24017 0.0
C1001 C 0.77262 0.84639 0.18906 0.0
C1002 C 0.75668 0.84496 0.17508 0.0
C1003 C 0.74517 0.84219 0.2114 0.0
C1004 C 0.74978 0.84113 0.26154 0.0
C1005 C 0.76524 0.84282 0.27611 0.0
C1006 C 0.76684 0.84255 0.33287 0.0
C1007 C 0.77671 0.82843 0.3501 0.0
C1008 C 0.77364 0.85813 0.35265 0.0
C1009 C 0.74987 0.84062 0.34774 0.0
C1010 C 0.74025 0.83951 0.30605 0.0
C1011 C 0.7241 0.83769 0.31032 0.0
C1012 C 0.71756 0.83725 0.35875 0.0
C1013 C 0.72719 0.83895 0.40174 0.0
C1014 C 0.74353 0.8405 0.39613 0.0
H1015 H 0.8915 0.02629 0.04074 0.0
H1016 H 0.93985 0.02817 -0.0076 0.0
H1017 H 0.94835 0.01904 0.07698 0.0
H1018 H 0.89921 0.03925 0.17427 0.0
H1019 H 0.88402 0.02654 0.1979 0.0
H1020 H 0.88222 0.03517 0.13612 0.0
H1021 H 0.87854 0.0074 0.09745 0.0
H1022 H 0.88047 -0.00132 0.15879 0.0
H1023 H 0.89323 0.99257 0.10833 0.0
H1024 H 0.9507 0.00481 0.16021 0.0
H1025 H 0.94703 0.98978 0.23942 0.0
H1026 H 0.89737 1e-05 0.23523 0.0
C1027 C 0.90389 0.02518 0.04866 0.0
C1028 C 0.91509 0.02785 0.0109 0.0
C1029 C 0.9312 0.02626 0.02162 0.0
C1030 C 0.93609 0.02109 0.06932 0.0
C1031 C 0.92468 0.0181 0.1057 0.0
C1032 C 0.90894 0.0205 0.09624 0.0
C1033 C 0.89891 0.0157 0.14043 0.0
C1034 C 0.8906 0.03002 0.16355 0.0
C1035 C 0.88711 0.00282 0.12532 0.0
C1036 C 0.91137 0.00941 0.17527 0.0
C1037 C 0.92618 0.01088 0.15479 0.0
C1038 C 0.93924 0.00405 0.17744 0.0
C1039 C 0.93706 0.99548 0.22208 0.0
C1040 C 0.92198 0.99406 0.2435 0.0
C1041 C 0.90909 0.00135 0.22028 0.0
H1042 H 0.74102 0.16978 0.91436 0.0
H1043 H 0.78829 0.16351 0.85848 0.0
H1044 H 0.77856 0.16612 0.77074 0.0
H1045 H 0.72203 0.1478 0.82523 0.0
H1046 H 0.70513 0.16037 0.81976 0.0
H1047 H 0.71609 0.15996 0.87759 0.0
H1048 H 0.7202 0.19012 0.87268 0.0
H1049 H 0.70909 0.19066 0.81492 0.0
H1050 H 0.72863 0.19862 0.81668 0.0
H1051 H 0.76295 0.16516 0.69037 0.0
H1052 H 0.74307 0.16335 0.62283 0.0
H1053 H 0.7064 0.17209 0.73235 0.0
C1054 C 0.74936 0.16926 0.88365 0.0
C1055 C 0.76534 0.16637 0.89264 0.0
C1056 C 0.77599 0.16579 0.85191 0.0
C1057 C 0.77057 0.16725 0.80219 0.0
C1058 C 0.7546 0.16968 0.7945 0.0
C1059 C 0.74422 0.171 0.83422 0.0
C1060 C 0.72756 0.17285 0.81618 0.0
C1061 C 0.7171 0.15945 0.83585 0.0
C1062 C 0.72099 0.18903 0.83099 0.0
C1063 C 0.73006 0.17164 0.76 0.0
C1064 C 0.74573 0.16986 0.74815 0.0
C1065 C 0.75071 0.16695 0.69902 0.0
C1066 C 0.73936 0.16583 0.66108 0.0
C1067 C 0.7233 0.16775 0.67267 0.0
C1068 C 0.71865 0.17092 0.72253 0.0
H1069 H 0.5799 0.00096 0.68598 0.0
H1070 H 0.56998 0.04775 0.62951 0.0
H1071 H 0.56622 0.0368 0.54376 0.0
H1072 H 0.60163 0.9876 0.58466 0.0
H1073 H 0.59404 0.96783 0.58529 0.0
H1074 H 0.59446 0.97916 0.64256 0.0
H1075 H 0.56464 0.97487 0.65398 0.0
H1076 H 0.56413 0.96347 0.59665 0.0
H1077 H 0.55144 0.98025 0.60384 0.0
H1078 H 0.5674 0.02135 0.46357 0.0
H1079 H 0.57134 0.00213 0.39475 0.0
H1080 H 0.57831 0.96512 0.50473 0.0
C1081 C 0.57674 0.00886 0.65563 0.0
C1082 C 0.57531 0.02517 0.66387 0.0
C1083 C 0.57108 0.03519 0.62363 0.0
C1084 C 0.56891 0.02908 0.575 0.0
C1085 C 0.57066 0.01294 0.56793 0.0
C1086 C 0.57422 0.00293 0.6073 0.0
C1087 C 0.57603 0.98614 0.58949 0.0
C1088 C 0.59252 0.97982 0.60118 0.0
C1089 C 0.5633 0.97556 0.61235 0.0
C1090 C 0.57359 0.98834 0.53353 0.0
C1091 C 0.57048 0.00388 0.52187 0.0
C1092 C 0.56942 0.00909 0.47223 0.0
C1093 C 0.57174 -0.00186 0.43352 0.0
C1094 C 0.57487 0.9822 0.44486 0.0
C1095 C 0.5755 0.97719 0.49536 0.0
H1096 H 0.722 0.63896 0.37228 0.0
H1097 H 0.71553 0.68821 0.4087 0.0
H1098 H 0.7323 0.69563 0.33644 0.0
H1099 H 0.76087 0.64054 0.33814 0.0
H1100 H 0.75956 0.62701 0.28594 0.0
H1101 H 0.74595 0.62556 0.33747 0.0
H1102 H 0.72258 0.62813 0.27572 0.0
H1103 H 0.7361 0.62923 0.22374 0.0
H1104 H 0.72181 0.64455 0.23287 0.0
H1105 H 0.75296 0.69723 0.26873 0.0
H1106 H 0.77209 0.6932 0.19953 0.0
H1107 H 0.76289 0.64312 0.20297 0.0
C1108 C 0.72379 0.6513 0.36399 0.0
C1109 C 0.7175 0.66305 0.39536 0.0
C1110 C 0.72012 0.67909 0.38427 0.0
C1111 C 0.72971 0.68339 0.3437 0.0
C1112 C 0.73619 0.67147 0.31427 0.0
C1113 C 0.73296 0.65578 0.32297 0.0
C1114 C 0.74145 0.64525 0.28613 0.0
C1115 C 0.75262 0.63393 0.31358 0.0
C1116 C 0.72979 0.63626 0.25262 0.0
C1117 C 0.75036 0.65743 0.25636 0.0
C1118 C 0.74734 0.67248 0.27349 0.0
C1119 C 0.75517 0.68555 0.25422 0.0
C1120 C 0.76609 0.68316 0.21548 0.0
C1121 C 0.76876 0.66789 0.19626 0.0
C1122 C 0.76084 0.65491 0.21695 0.0
H1123 H 0.55729 0.50211 0.48919 0.0
H1124 H 0.55721 0.55107 0.5346 0.0
H1125 H 0.55601 0.54301 0.62408 0.0
H1126 H 0.53155 0.48734 0.5971 0.0
H1127 H 0.54268 0.46937 0.60051 0.0
H1128 H 0.53998 0.47906 0.54069 0.0
H1129 H 0.57004 0.47966 0.52819 0.0
H1130 H 0.57287 0.47026 0.58805 0.0
H1131 H 0.58217 0.48886 0.57542 0.0
H1132 H 0.56131 0.52979 0.70614 0.0
H1133 H 0.56953 0.51228 0.77564 0.0
H1134 H 0.56446 0.47189 0.67716 0.0
C1135 C 0.55643 0.51111 0.51801 0.0
C1136 C 0.55736 0.52716 0.50546 0.0
C1137 C 0.55637 0.53869 0.54375 0.0
C1138 C 0.55569 0.53422 0.59456 0.0
C1139 C 0.55558 0.51822 0.60593 0.0
C1140 C 0.5555 0.50683 0.56864 0.0
C1141 C 0.55695 0.49049 0.5905 0.0
C1142 C 0.54189 0.48101 0.58169 0.0
C1143 C 0.57136 0.48183 0.56929 0.0
C1144 C 0.55899 0.49451 0.64559 0.0
C1145 C 0.55799 0.51054 0.65388 0.0
C1146 C 0.56158 0.51719 0.70053 0.0
C1147 C 0.56638 0.5072 0.73955 0.0
C1148 C 0.56742 0.49079 0.73156 0.0
C1149 C 0.56336 0.48438 0.6844 0.0
H1150 H 0.73048 0.36123 0.725 0.0
H1151 H 0.71451 0.313 0.71331 0.0
H1152 H 0.73111 0.30577 0.78644 0.0
H1153 H 0.76984 0.35367 0.76137 0.0
H1154 H 0.77079 0.36971 0.80574 0.0
H1155 H 0.75797 0.37094 0.75196 0.0
H1156 H 0.73426 0.37603 0.81081 0.0
H1157 H 0.74704 0.37508 0.86468 0.0
H1158 H 0.73016 0.36242 0.86118 0.0
H1159 H 0.75074 0.30379 0.85776 0.0
H1160 H 0.76827 0.308 0.93108 0.0
H1161 H 0.76929 0.35795 0.89925 0.0
C1162 C 0.73044 0.34917 0.73813 0.0
C1163 C 0.72138 0.33762 0.71388 0.0
C1164 C 0.72139 0.32199 0.73196 0.0
C1165 C 0.73085 0.31778 0.77301 0.0
C1166 C 0.73992 0.32944 0.79569 0.0
C1167 C 0.73948 0.34489 0.77959 0.0
C1168 C 0.74959 0.35538 0.81198 0.0
C1169 C 0.76283 0.36286 0.78089 0.0
C1170 C 0.73967 0.36797 0.83876 0.0
C1171 C 0.75589 0.34342 0.84874 0.0
C1172 C 0.75044 0.32846 0.83821 0.0
C1173 C 0.75499 0.31546 0.8666 0.0
C1174 C 0.76501 0.31792 0.90776 0.0
C1175 C 0.77001 0.33328 0.92031 0.0
C1176 C 0.76555 0.34611 0.89016 0.0
H1177 H 0.91871 0.53181 0.13366 0.0
H1178 H 0.93126 0.49561 0.24118 0.0
H1179 H 0.93558 0.47685 0.17129 0.0
H1180 H 0.89597 0.50765 0.05969 0.0
H1181 H 0.90098 0.51652 0.00014 0.0
H1182 H 0.90195 0.52796 0.05709 0.0
H1183 H 0.93099 0.53468 0.03888 0.0
H1184 H 0.93008 0.52334 0.98149 0.0
H1185 H 0.9448 0.51902 0.02815 0.0
H1186 H 0.93614 0.46148 0.09094 0.0
H1187 H 0.93121 0.45013 0.00641 0.0
H1188 H 0.91632 0.4959 0.9527 0.0
C1189 C 0.92287 0.52008 0.14215 0.0
C1190 C 0.92492 0.51513 0.19235 0.0
C1191 C 0.92978 0.49957 0.20265 0.0
C1192 C 0.93233 0.48889 0.16329 0.0
C1193 C 0.92978 0.49397 0.11407 0.0
C1194 C 0.9251 0.50918 0.10336 0.0
C1195 C 0.92117 0.51109 0.04811 0.0
C1196 C 0.904 0.51609 0.04087 0.0
C1197 C 0.93244 0.52272 0.02266 0.0
C1198 C 0.92393 0.49448 0.02979 0.0
C1199 C 0.92926 0.48487 0.06807 0.0
C1200 C 0.93211 0.46891 0.0605 0.0
C1201 C 0.92926 0.46257 0.01254 0.0
C1202 C 0.92333 0.47215 0.97343 0.0
C1203 C 0.92081 0.48832 0.98211 0.0
H1204 H 0.26291 0.35644 0.68182 0.0
H1205 H 0.26396 0.30607 0.65707 0.0
H1206 H 0.24539 0.30232 0.7278 0.0
H1207 H 0.26372 0.35399 0.81488 0.0
H1208 H 0.25138 0.37092 0.82439 0.0
H1209 H 0.26332 0.36953 0.76872 0.0
H1210 H 0.23861 0.37318 0.71309 0.0
H1211 H 0.22656 0.37437 0.76873 0.0
H1212 H 0.22226 0.36 0.72067 0.0
H1213 H 0.22683 0.30426 0.80158 0.0
H1214 H 0.21333 0.3112 0.88127 0.0
H1215 H 0.22645 0.35998 0.86078 0.0
C1216 C 0.25909 0.34465 0.69113 0.0
C1217 C 0.26465 0.33155 0.66415 0.0
C1218 C 0.25976 0.31623 0.67767 0.0
C1219 C 0.24913 0.31402 0.7173 0.0
C1220 C 0.24376 0.32724 0.74313 0.0
C1221 C 0.24882 0.34223 0.73116 0.0
C1222 C 0.2426 0.35431 0.76775 0.0
C1223 C 0.25606 0.36267 0.79559 0.0
C1224 C 0.23187 0.36616 0.74094 0.0
C1225 C 0.23341 0.34378 0.80264 0.0
C1226 C 0.23385 0.32826 0.78713 0.0
C1227 C 0.22637 0.31637 0.81405 0.0
C1228 C 0.21867 0.3204 0.85894 0.0
C1229 C 0.21891 0.33609 0.87656 0.0
C1230 C 0.22609 0.34792 0.84765 0.0
H1231 H 0.39072 0.50769 0.47025 0.0
H1232 H 0.43924 0.51993 0.44362 0.0
H1233 H 0.44709 0.50434 0.51859 0.0
H1234 H 0.39289 0.51085 0.60612 0.0
H1235 H 0.37929 0.49495 0.61609 0.0
H1236 H 0.37791 0.50678 0.56003 0.0
H1237 H 0.3799 0.4816 0.50516 0.0
H1238 H 0.38152 0.46971 0.56104 0.0
H1239 H 0.39641 0.46863 0.51303 0.0
H1240 H 0.44944 0.4857 0.59356 0.0
H1241 H 0.44574 0.46926 0.67007 0.0
H1242 H 0.39549 0.4717 0.65 0.0
C1243 C 0.40299 0.50714 0.48047 0.0
C1244 C 0.41443 0.51484 0.4515 0.0
C1245 C 0.43034 0.51409 0.46587 0.0
C1246 C 0.43489 0.5052 0.50799 0.0
C1247 C 0.42329 0.49748 0.53547 0.0
C1248 C 0.40763 0.49869 0.52286 0.0
C1249 C 0.39734 0.48997 0.55959 0.0
C1250 C 0.38621 0.50132 0.58709 0.0
C1251 C 0.38826 0.47669 0.5331 0.0
C1252 C 0.40962 0.48349 0.59472 0.0
C1253 C 0.42456 0.48767 0.57985 0.0
C1254 C 0.43779 0.4825 0.60585 0.0
C1255 C 0.43562 0.47312 0.64886 0.0
C1256 C 0.42035 0.4694 0.66554 0.0
C1257 C 0.40727 0.47454 0.63795 0.0
H1258 H 0.28259 0.6707 0.40103 0.0
H1259 H 0.24579 0.67087 0.5136 0.0
H1260 H 0.22614 0.67571 0.44704 0.0
H1261 H 0.26528 0.70013 0.31456 0.0
H1262 H 0.27155 0.68945 0.25939 0.0
H1263 H 0.28291 0.68851 0.31658 0.0
H1264 H 0.28095 0.65808 0.31547 0.0
H1265 H 0.26962 0.65894 0.25843 0.0
H1266 H 0.26194 0.64892 0.31295 0.0
H1267 H 0.21037 0.67858 0.36763 0.0
H1268 H 0.1996 0.67692 0.28092 0.0
H1269 H 0.24674 0.67331 0.22143 0.0
C1270 C 0.27044 0.67213 0.41167 0.0
C1271 C 0.26566 0.67058 0.46217 0.0
C1272 C 0.24963 0.67207 0.47487 0.0
C1273 C 0.23843 0.67493 0.43747 0.0
C1274 C 0.24348 0.67616 0.38773 0.0
C1275 C 0.2591 0.67471 0.37477 0.0
C1276 C 0.26131 0.67467 0.31829 0.0
C1277 C 0.27082 0.68905 0.30122 0.0
C1278 C 0.26889 0.65924 0.30026 0.0
C1279 C 0.24447 0.67588 0.30154 0.0
C1280 C 0.23436 0.67711 0.342 0.0
C1281 C 0.21817 0.67776 0.33558 0.0
C1282 C 0.21216 0.67683 0.28642 0.0
C1283 C 0.22238 0.67492 0.24494 0.0
C1284 C 0.23869 0.67473 0.25266 0.0
H1285 H 0.07422 0.54191 0.14144 0.0
H1286 H 0.07074 0.50301 0.24616 0.0
H1287 H 0.06539 0.48488 0.17531 0.0
H1288 H 0.04555 0.52709 0.04404 0.0
H1289 H 0.05776 0.53392 -0.00683 0.0
H1290 H 0.05749 0.54437 0.05237 0.0
H1291 H 0.08763 0.54151 0.05888 0.0
H1292 H 0.08798 0.53102 8e-05 0.0
H1293 H 0.09626 0.52219 0.05579 0.0
H1294 H 0.06384 0.47062 0.09357 0.0
H1295 H 0.0685 0.46092 0.00695 0.0
H1296 H 0.075 0.50888 0.95568 0.0
C1297 C 0.07174 0.52967 0.14938 0.0
C1298 C 0.07261 0.52379 0.19887 0.0
C1299 C 0.06996 0.50765 0.20821 0.0
C1300 C 0.06681 0.49733 0.16835 0.0
C1301 C 0.06651 0.50337 0.11955 0.0
C1302 C 0.06897 0.51916 0.10988 0.0
C1303 C 0.07057 0.52225 0.05398 0.0
C1304 C 0.05703 0.53252 0.03476 0.0
C1305 C 0.08656 0.52967 0.04149 0.0
C1306 C 0.06933 0.50566 0.03396 0.0
C1307 C 0.06649 0.495 0.07216 0.0
C1308 C 0.06584 0.47886 0.06319 0.0
C1309 C 0.06851 0.47346 0.01401 0.0
C1310 C 0.07214 0.48419 0.975 0.0
C1311 C 0.07222 0.50046 0.98496 0.0
H1312 H 0.22722 0.21826 0.09325 0.0
H1313 H 0.17723 0.21146 0.1109 0.0
H1314 H 0.17386 0.24017 0.12203 0.0
H1315 H 0.23121 0.25275 0.18082 0.0
H1316 H 0.24553 0.26172 0.14007 0.0
H1317 H 0.24419 0.24061 0.14396 0.0
H1318 H 0.24067 0.23912 0.04694 0.0
H1319 H 0.24188 0.26014 0.04276 0.0
H1320 H 0.22506 0.25003 0.01758 0.0
H1321 H 0.17569 0.27007 0.11727 0.0
H1322 H 0.18255 0.29767 0.0972 0.0
H1323 H 0.23126 0.28415 0.08216 0.0
C1324 C 0.21559 0.22271 0.10094 0.0
C1325 C 0.2025 0.2126 0.10128 0.0
C1326 C 0.18747 0.21896 0.11095 0.0
C1327 C 0.18545 0.23526 0.1173 0.0
C1328 C 0.19859 0.24497 0.11459 0.0
C1329 C 0.2134 0.23884 0.10727 0.0
C1330 C 0.22545 0.25166 0.10025 0.0
C1331 C 0.23729 0.25169 0.14389 0.0
C1332 C 0.23373 0.25014 0.04884 0.0
C1333 C 0.21503 0.26598 0.10221 0.0
C1334 C 0.19962 0.26201 0.11152 0.0
C1335 C 0.18777 0.27332 0.11094 0.0
C1336 C 0.19177 0.28897 0.09952 0.0
C1337 C 0.20744 0.29307 0.0881 0.0
C1338 C 0.21918 0.28144 0.0909 0.0
H1339 H 0.028 0.94328 0.35712 0.0
H1340 H 0.04067 0.9788 0.46667 0.0
H1341 H 0.01436 0.97696 0.50479 0.0
H1342 H 0.99334 0.95881 0.32944 0.0
H1343 H 0.98263 0.9408 0.31973 0.0
H1344 H 0.00345 0.94106 0.31143 0.0
H1345 H 0.00633 0.91855 0.3765 0.0
H1346 H 0.9854 0.91824 0.38504 0.0
H1347 H -0.00189 0.92078 0.4387 0.0
H1348 H 0.98611 0.97579 0.51874 0.0
H1349 H 0.95773 0.97705 0.50354 0.0
H1350 H 0.96228 0.94288 0.3832 0.0
C1351 C 0.02538 0.95004 0.39071 0.0
C1352 C 0.03632 0.96087 0.41007 0.0
C1353 C 0.03242 0.97023 0.45221 0.0
C1354 C 0.01756 0.96917 0.47418 0.0
C1355 C 0.00672 0.9588 0.45315 0.0
C1356 C 0.01042 0.94937 0.41226 0.0
C1357 C -0.0041 0.94162 0.39063 0.0
C1358 C 0.99371 0.94584 0.33454 0.0
C1359 C -0.00353 0.92373 0.39819 0.0
C1360 C 0.98336 0.94903 0.42341 0.0
C1361 C 0.98993 0.95845 0.46039 0.0
C1362 C 0.98082 0.96813 0.49094 0.0
C1363 C 0.9647 0.9688 0.48201 0.0
C1364 C 0.95785 0.9599 0.44269 0.0
C1365 C 0.96719 0.94937 0.41459 0.0
H1366 H 0.2826 0.78723 0.66906 0.0
H1367 H 0.32559 0.79751 0.58933 0.0
H1368 H 0.33371 0.76966 0.59823 0.0
H1369 H 0.29912 0.75523 0.75474 0.0
H1370 H 0.28109 0.74433 0.7498 0.0
H1371 H 0.2808 0.76552 0.74822 0.0
H1372 H 0.26591 0.76457 0.66309 0.0
H1373 H 0.26627 0.74351 0.66412 0.0
H1374 H 0.27429 0.7539 0.61086 0.0
H1375 H 0.33406 0.73968 0.59942 0.0
H1376 H 0.3268 0.71148 0.59442 0.0
H1377 H 0.28387 0.72152 0.67518 0.0
C1378 C 0.29401 0.78374 0.65527 0.0
C1379 C 0.30351 0.79445 0.62875 0.0
C1380 C 0.31826 0.78949 0.61048 0.0
C1381 C 0.32293 0.77369 0.61532 0.0
C1382 C 0.31287 0.76318 0.63954 0.0
C1383 C 0.29883 0.76815 0.66017 0.0
C1384 C 0.28911 0.75449 0.67857 0.0
C1385 C 0.28744 0.75492 0.73627 0.0
C1386 C 0.27296 0.7541 0.65257 0.0
C1387 C 0.2993 0.74094 0.66198 0.0
C1388 C 0.31314 0.74606 0.64057 0.0
C1389 C 0.32346 0.73555 0.61737 0.0
C1390 C 0.31928 0.71954 0.61473 0.0
C1391 C 0.30479 0.71435 0.63449 0.0
C1392 C 0.29508 0.72514 0.66003 0.0
H1393 H 0.45834 0.01947 0.85825 0.0
H1394 H 0.45127 0.06995 0.85739 0.0
H1395 H 0.47927 0.07384 0.87784 0.0
H1396 H 0.48965 0.01847 0.9585 0.0
H1397 H 0.4998 0.00294 0.92575 0.0
H1398 H 0.47877 0.00424 0.92231 0.0
H1399 H 0.48037 0.00464 0.82467 0.0
H1400 H 0.5013 0.00345 0.82777 0.0
H1401 H 0.49218 0.01939 0.79408 0.0
H1402 H 0.50886 0.07209 0.88306 0.0
H1403 H 0.5367 0.06494 0.87195 0.0
H1404 H 0.52388 0.01561 0.86922 0.0
C1405 C 0.46254 0.03136 0.86384 0.0
C1406 C 0.45262 0.04441 0.85624 0.0
C1407 C 0.45862 0.05976 0.86347 0.0
C1408 C 0.47452 0.06207 0.87513 0.0
C1409 C 0.48414 0.0489 0.88023 0.0
C1410 C 0.47827 0.03383 0.87543 0.0
C1411 C 0.49115 0.02166 0.87655 0.0
C1412 C 0.48976 0.01121 0.92359 0.0
C1413 C 0.49125 0.01172 0.82788 0.0
C1414 C 0.5053 0.03224 0.87978 0.0
C1415 C 0.50109 0.0479 0.88306 0.0
C1416 C 0.51228 0.05985 0.88163 0.0
C1417 C 0.52808 0.05567 0.87531 0.0
C1418 C 0.53248 0.03971 0.86975 0.0
C1419 C 0.52093 0.02791 0.87373 0.0
H1420 H 0.1916 0.79065 0.05016 0.0
H1421 H 0.23426 0.79917 0.96657 0.0
H1422 H 0.23566 0.77107 0.94399 0.0
H1423 H 0.20435 0.75852 0.10831 0.0
H1424 H 0.18634 0.74749 0.10865 0.0
H1425 H 0.18578 0.76854 0.10536 0.0
H1426 H 0.1694 0.76703 0.02333 0.0
H1427 H 0.16982 0.74585 0.02651 0.0
H1428 H 0.17655 0.75576 0.97051 0.0
H1429 H 0.23612 0.74241 0.94725 0.0
H1430 H 0.23589 0.71501 0.97735 0.0
H1431 H 0.19307 0.72398 0.0597 0.0
C1432 C 0.20074 0.78664 0.02496 0.0
C1433 C 0.21265 0.79701 0.00908 0.0
C1434 C 0.22493 0.79137 0.97834 0.0
C1435 C 0.22576 0.77546 0.96517 0.0
C1436 C 0.21425 0.76532 0.98331 0.0
C1437 C 0.20188 0.77067 0.01236 0.0
C1438 C 0.19273 0.75705 0.03458 0.0
C1439 C 0.1923 0.75796 0.09263 0.0
C1440 C 0.17614 0.75639 0.01239 0.0
C1441 C 0.20251 0.74329 0.0164 0.0
C1442 C 0.21459 0.74834 0.98565 0.0
C1443 C 0.22644 0.73822 0.96985 0.0
C1444 C 0.22625 0.7227 0.98718 0.0
C1445 C 0.21428 0.71743 0.01976 0.0
C1446 C 0.20198 0.72766 0.03319 0.0
H1447 H 0.46124 0.93992 0.31102 0.0
H1448 H 0.45565 0.95636 0.15795 0.0
H1449 H 0.48318 0.94972 0.13979 0.0
H1450 H 0.49389 0.95805 0.33243 0.0
H1451 H 0.50362 0.94363 0.37109 0.0
H1452 H 0.4827 0.94378 0.36744 0.0
H1453 H 0.48265 0.91474 0.33816 0.0
H1454 H 0.50371 0.9144 0.34236 0.0
H1455 H 0.49416 0.90896 0.28429 0.0
H1456 H 0.51171 0.94908 0.14507 0.0
H1457 H 0.53884 0.95403 0.17304 0.0
H1458 H 0.52699 0.9382 0.32311 0.0
C1459 C 0.46565 0.94108 0.2729 0.0
C1460 C 0.45635 0.94809 0.23527 0.0
C1461 C 0.46256 0.95051 0.18659 0.0
C1462 C 0.47818 0.94677 0.17607 0.0
C1463 C 0.48744 0.94073 0.21482 0.0
C1464 C 0.48135 0.93768 0.26226 0.0
C1465 C 0.49428 0.93429 0.2999 0.0
C1466 C 0.49358 0.94562 0.34531 0.0
C1467 C 0.49366 0.91707 0.31718 0.0
C1468 C 0.50856 0.93728 0.26745 0.0
C1469 C 0.50436 0.94046 0.21806 0.0
C1470 C 0.51522 0.94599 0.18298 0.0
C1471 C 0.53058 0.94879 0.19909 0.0
C1472 C 0.53493 0.94599 0.24962 0.0
C1473 C 0.52397 0.93972 0.28374 0.0
H1474 H 0.29608 0.21562 0.5141 0.0
H1475 H 0.25389 0.20873 0.42625 0.0
H1476 H 0.25511 0.23626 0.39762 0.0
H1477 H 0.28551 0.25056 0.56234 0.0
H1478 H 0.30451 0.25976 0.56236 0.0
H1479 H 0.303 0.23873 0.56506 0.0
H1480 H 0.32045 0.23627 0.48557 0.0
H1481 H 0.32208 0.25739 0.48272 0.0
H1482 H 0.31507 0.24657 0.42876 0.0
H1483 H 0.25745 0.26488 0.39273 0.0
H1484 H 0.26043 0.29297 0.41335 0.0
H1485 H 0.30106 0.28227 0.50487 0.0
C1486 C 0.28755 0.21979 0.48704 0.0
C1487 C 0.27504 0.21009 0.4716 0.0
C1488 C 0.26364 0.21601 0.438 0.0
C1489 C 0.2643 0.23159 0.42133 0.0
C1490 C 0.27642 0.24111 0.43876 0.0
C1491 C 0.28791 0.23546 0.47073 0.0
C1492 C 0.2981 0.24873 0.49039 0.0
C1493 C 0.29774 0.24949 0.54845 0.0
C1494 C 0.31492 0.24715 0.47067 0.0
C1495 C 0.28994 0.26277 0.46696 0.0
C1496 C 0.27772 0.25804 0.43626 0.0
C1497 C 0.26724 0.26876 0.41546 0.0
C1498 C 0.26898 0.28468 0.42751 0.0
C1499 C 0.2811 0.28973 0.46002 0.0
C1500 C 0.29202 0.27872 0.4786 0.0
H1501 H 0.9525 0.01536 0.76283 0.0
H1502 H 0.94131 0.06438 0.78858 0.0
H1503 H 0.96834 0.07173 0.76485 0.0
H1504 H 0.98644 0.01524 0.82087 0.0
H1505 H -0.0033 0.002 0.7793 0.0
H1506 H 0.9758 0.00108 0.78355 0.0
H1507 H 0.97343 0.00525 0.68704 0.0
H1508 H 0.99447 0.00601 0.6823 0.0
H1509 H 0.98279 0.02194 0.65804 0.0
H1510 H -0.0022 0.07288 0.75838 0.0
H1511 H 0.02611 0.06774 0.76829 0.0
H1512 H 0.01773 0.01794 0.7463 0.0
C1513 C 0.95556 0.0277 0.76144 0.0
C1514 C 0.94486 0.0393 0.7774 0.0
C1515 C 0.94929 0.05532 0.77581 0.0
C1516 C 0.96464 0.05959 0.76241 0.0
C1517 C 0.97523 0.04772 0.74972 0.0
C1518 C 0.97074 0.0321 0.74812 0.0
C1519 C 0.98461 0.02132 0.74056 0.0
C1520 C 0.98596 0.00923 0.78364 0.0
C1521 C 0.98377 0.01315 0.6889 0.0
C1522 C -0.00223 0.03317 0.74212 0.0
C1523 C 0.99219 0.04838 0.74598 0.0
C1524 C 0.00228 0.06106 0.75394 0.0
C1525 C 0.01837 0.05804 0.75958 0.0
C1526 C 0.02413 0.04243 0.75805 0.0
C1527 C 0.01371 0.03 0.74726 0.0
H1528 H 0.77863 0.72273 -0.008 0.0
H1529 H 0.82543 0.71099 0.04251 0.0
H1530 H 0.83296 0.73908 0.03604 0.0
H1531 H 0.78979 0.75556 0.90535 0.0
H1532 H 0.77259 0.76656 0.92271 0.0
H1533 H 0.77206 0.74538 0.92235 0.0
H1534 H 0.76276 0.74553 0.01543 0.0
H1535 H 0.76334 0.76662 0.01622 0.0
H1536 H 0.77431 0.75562 0.06227 0.0
H1537 H 0.83381 0.76924 0.0365 0.0
H1538 H 0.82787 0.79771 0.04364 0.0
H1539 H 0.78049 0.78871 -0.00732 0.0
C1540 C 0.7906 0.72596 0.00047 0.0
C1541 C 0.80145 0.71469 0.01775 0.0
C1542 C 0.81697 0.71942 0.02871 0.0
C1543 C 0.82133 0.73536 0.02517 0.0
C1544 C 0.8101 0.74628 0.0098 0.0
C1545 C 0.7951 0.74167 -0.00302 0.0
C1546 C 0.78465 0.75559 0.98643 0.0
C1547 C 0.77947 0.75578 0.9309 0.0
C1548 C 0.77044 0.75585 0.02223 0.0
C1549 C 0.79585 0.76886 -0.00238 0.0
C1550 C 0.81057 0.76339 0.01016 0.0
C1551 C 0.8224 0.77364 0.02579 0.0
C1552 C 0.81894 0.78979 0.0297 0.0
C1553 C 0.80372 0.79542 0.01875 0.0
C1554 C 0.79226 0.7848 0.00121 0.0
H1555 H 0.71451 0.22293 0.47795 0.0
H1556 H 0.66657 0.2141 0.52358 0.0
H1557 H 0.66107 0.24265 0.51896 0.0
H1558 H 0.7204 0.25437 0.55268 0.0
H1559 H 0.7326 0.26518 0.50943 0.0
H1560 H 0.73168 0.24415 0.50545 0.0
H1561 H 0.72333 0.24602 0.41162 0.0
H1562 H 0.7243 0.26717 0.41524 0.0
H1563 H 0.70655 0.2577 0.39455 0.0
H1564 H 0.66222 0.27257 0.5226 0.0
H1565 H 0.67011 0.3003 0.53632 0.0
H1566 H 0.71735 0.28877 0.48972 0.0
C1567 C 0.7027 0.2269 0.48561 0.0
C1568 C 0.69097 0.21627 0.50108 0.0
C1569 C 0.67573 0.22201 0.51123 0.0
C1570 C 0.6725 0.23821 0.50862 0.0
C1571 C 0.68457 0.24844 0.49516 0.0
C1572 C 0.69934 0.24292 0.48333 0.0
C1573 C 0.71086 0.25619 0.47598 0.0
C1574 C 0.72468 0.25489 0.51311 0.0
C1575 C 0.71659 0.2568 0.42107 0.0
C1576 C 0.70052 0.27006 0.48813 0.0
C1577 C 0.68529 0.26549 0.49791 0.0
C1578 C 0.67403 0.27629 0.51404 0.0
C1579 C 0.67859 0.29201 0.52166 0.0
C1580 C 0.69433 0.29664 0.51405 0.0
C1581 C 0.70521 0.28558 0.49562 0.0
H1582 H 0.75885 0.28472 0.12164 0.0
H1583 H 0.80918 0.29113 0.12446 0.0
H1584 H 0.81264 0.26246 0.13517 0.0
H1585 H 0.75717 0.25001 0.21023 0.0
H1586 H 0.74171 0.24121 0.1736 0.0
H1587 H 0.74325 0.26231 0.17786 0.0
H1588 H 0.74394 0.26407 0.08027 0.0
H1589 H 0.74252 0.24308 0.0757 0.0
H1590 H 0.75859 0.25318 0.04596 0.0
H1591 H 0.81056 0.23272 0.12987 0.0
H1592 H 0.80308 0.20533 0.10881 0.0
H1593 H 0.75421 0.219 0.10922 0.0
C1594 C 0.7706 0.2802 0.12614 0.0
C1595 C 0.78373 0.29018 0.12226 0.0
C1596 C 0.79893 0.28373 0.12775 0.0
C1597 C 0.801 0.26744 0.1339 0.0
C1598 C 0.78777 0.25784 0.13527 0.0
C1599 C 0.77285 0.26406 0.13222 0.0
C1600 C 0.76059 0.25132 0.12834 0.0
C1601 C 0.75006 0.25121 0.17532 0.0
C1602 C 0.75086 0.25302 0.07968 0.0
C1603 C 0.77096 0.23696 0.12668 0.0
C1604 C 0.78658 0.24083 0.13191 0.0
C1605 C 0.79834 0.22952 0.12686 0.0
C1606 C 0.794 0.214 0.11492 0.0
C1607 C 0.77807 0.21006 0.10736 0.0
C1608 C 0.76648 0.22163 0.11496 0.0
H1609 H 0.73182 0.71334 0.59111 0.0
H1610 H 0.68175 0.7054 0.59862 0.0
H1611 H 0.6776 0.73391 0.61274 0.0
H1612 H 0.73353 0.74623 0.68453 0.0
H1613 H 0.74843 0.75613 0.64845 0.0
H1614 H 0.74737 0.73496 0.64811 0.0
H1615 H 0.74569 0.73521 0.55046 0.0
H1616 H 0.74662 0.75629 0.55047 0.0
H1617 H 0.73048 0.74644 0.52017 0.0
H1618 H 0.679 0.76392 0.61304 0.0
H1619 H 0.6858 0.79197 0.60058 0.0
H1620 H 0.73494 0.77937 0.5932 0.0
C1621 C 0.71998 0.7175 0.59697 0.0
C1622 C 0.7071 0.70717 0.59375 0.0
C1623 C 0.6918 0.71311 0.60137 0.0
C1624 C 0.68934 0.72928 0.60939 0.0
C1625 C 0.70233 0.73924 0.61047 0.0
C1626 C 0.71737 0.73347 0.60512 0.0
C1627 C 0.7293 0.74654 0.60292 0.0
C1628 C 0.7403 0.74593 0.64874 0.0
C1629 C 0.73855 0.74609 0.55305 0.0
C1630 C 0.71862 0.76065 0.60547 0.0
C1631 C 0.70312 0.75631 0.61067 0.0
C1632 C 0.69113 0.76744 0.60992 0.0
C1633 C 0.69509 0.78334 0.6028 0.0
C1634 C 0.71091 0.78788 0.59591 0.0
C1635 C 0.72275 0.77635 0.59855 0.0
H1636 H 0.53361 0.43694 0.85172 0.0
H1637 H 0.53545 0.46295 -0.00816 0.0
H1638 H 0.50748 0.45761 0.00623 0.0
H1639 H 0.50178 0.45312 0.80999 0.0
H1640 H 0.49285 0.43644 0.77943 0.0
H1641 H 0.51363 0.43693 0.78828 0.0
H1642 H 0.51265 0.41047 0.83628 0.0
H1643 H 0.49176 0.40972 0.82684 0.0
H1644 H 0.49975 0.40829 0.88959 0.0
H1645 H 0.47923 0.45674 -0.0065 0.0
H1646 H 0.45283 0.45919 0.95637 0.0
H1647 H 0.46819 0.43366 0.8242 0.0
C1648 C 0.52827 0.44057 0.8869 0.0
C1649 C 0.53664 0.44998 0.92139 0.0
C1650 C 0.52922 0.45541 0.9657 0.0
C1651 C 0.51334 0.45241 0.97411 0.0
C1652 C 0.50504 0.444 0.93772 0.0
C1653 C 0.51229 0.4379 0.89524 0.0
C1654 C 0.5003 0.43202 0.85742 0.0
C1655 C 0.50226 0.44012 0.8058 0.0
C1656 C 0.50117 0.41405 0.85225 0.0
C1657 C 0.48528 0.43699 0.88328 0.0
C1658 C 0.48827 0.44347 0.93023 0.0
C1659 C 0.47664 0.45113 0.95782 0.0
C1660 C 0.46171 0.45253 0.93649 0.0
C1661 C 0.45856 0.44621 0.88834 0.0
C1662 C 0.4703 0.43798 0.86203 0.0
H1663 H 0.96839 0.53935 0.43407 0.0
H1664 H 0.95699 0.57818 0.3354 0.0
H1665 H 0.98383 0.58863 0.34585 0.0
H1666 H -0.00116 0.5615 0.51607 0.0
H1667 H 0.01052 0.54389 0.51951 0.0
H1668 H 0.98947 0.54252 0.51741 0.0
H1669 H 0.99147 0.52407 0.43984 0.0
H1670 H 0.01235 0.52544 0.44148 0.0
H1671 H 0.00196 0.53063 0.38471 0.0
H1672 H 0.01318 0.59052 0.34828 0.0
H1673 H 0.04122 0.58355 0.34225 0.0
H1674 H 0.03334 0.54375 0.44061 0.0
C1675 C 0.97136 0.55045 0.41655 0.0
C1676 C 0.9607 0.558 0.38411 0.0
C1677 C 0.96496 0.57236 0.36105 0.0
C1678 C 0.9802 0.57836 0.36683 0.0
C1679 C 0.99082 0.57005 0.39673 0.0
C1680 C 0.98643 0.55655 0.42216 0.0
C1681 C 0.00037 0.54829 0.4451 0.0
C1682 C -0.00024 0.54911 0.50296 0.0
C1683 C 0.0016 0.53112 0.42661 0.0
C1684 C 0.01347 0.55837 0.42468 0.0
C1685 C 0.0078 0.5712 0.39833 0.0
C1686 C 0.01776 0.58083 0.37017 0.0
C1687 C 0.0337 0.57682 0.36701 0.0
C1688 C 0.03939 0.56314 0.39114 0.0
C1689 C 0.02929 0.55438 0.42233 0.0
H1690 H 0.96656 0.47806 0.73023 0.0
H1691 H 0.96006 0.4298 0.7776 0.0
H1692 H 0.98806 0.4245 0.76148 0.0
H1693 H -0.00049 0.46996 0.63411 0.0
H1694 H 0.00894 0.48809 0.65193 0.0
H1695 H 0.98789 0.48668 0.65264 0.0
H1696 H 0.98768 0.49566 0.74609 0.0
H1697 H 0.00858 0.497 0.74579 0.0
H1698 H -0.00106 0.4848 0.79183 0.0
H1699 H 0.01744 0.42647 0.76154 0.0
H1700 H 0.04455 0.43549 0.77706 0.0
H1701 H 0.0317 0.48224 0.72747 0.0
C1702 C 0.97091 0.46621 0.73517 0.0
C1703 C 0.96121 0.45435 0.75509 0.0
C1704 C 0.96728 0.43902 0.76175 0.0
C1705 C 0.98319 0.43591 0.75263 0.0
C1706 C 0.99271 0.44816 0.73571 0.0
C1707 C 0.98666 0.46295 0.72598 0.0
C1708 C -0.00053 0.47474 0.71545 0.0
C1709 C -0.00108 0.48018 0.66024 0.0
C1710 C -0.00139 0.48885 0.75199 0.0
C1711 C 0.01372 0.46467 0.72518 0.0
C1712 C 0.00968 0.44924 0.73528 0.0
C1713 C 0.02078 0.43838 0.75214 0.0
C1714 C 0.03617 0.44359 0.76081 0.0
C1715 C 0.04018 0.45956 0.75338 0.0
C1716 C 0.02897 0.46993 0.73301 0.0
H1717 H 0.45789 0.52079 0.21654 0.0
H1718 H 0.44521 0.5672 0.26985 0.0
H1719 H 0.47277 0.57563 0.26197 0.0
H1720 H 0.48869 0.51623 0.28615 0.0
H1721 H 0.50089 0.50587 0.2417 0.0
H1722 H 0.48007 0.50515 0.2352 0.0
H1723 H 0.48221 0.51577 0.1439 0.0
H1724 H 0.50322 0.51644 0.15004 0.0
H1725 H 0.49258 0.53384 0.13203 0.0
H1726 H 0.502 0.57663 0.27076 0.0
H1727 H 0.52915 0.56995 0.29516 0.0
H1728 H 0.52275 0.52304 0.2352 0.0
C1729 C 0.46081 0.53293 0.22434 0.0
C1730 C 0.44947 0.54333 0.24372 0.0
C1731 C 0.4537 0.55908 0.2543 0.0
C1732 C 0.46935 0.56397 0.24989 0.0
C1733 C 0.48052 0.55308 0.23376 0.0
C1734 C 0.47632 0.53793 0.22007 0.0
C1735 C 0.49054 0.52765 0.21206 0.0
C1736 C 0.49001 0.51289 0.24582 0.0
C1737 C 0.49223 0.52317 0.15618 0.0
C1738 C 0.50332 0.53887 0.22806 0.0
C1739 C 0.49746 0.55367 0.23873 0.0
C1740 C 0.5068 0.56526 0.26096 0.0
C1741 C 0.52224 0.5614 0.27462 0.0
C1742 C 0.52799 0.546 0.26682 0.0
C1743 C 0.51865 0.53495 0.24097 0.0
H1744 H 0.20944 0.14002 0.21117 0.0
H1745 H 0.25383 0.13282 0.1355 0.0
H1746 H 0.26588 0.12513 0.21598 0.0
H1747 H 0.22329 0.15908 0.30899 0.0
H1748 H 0.21066 0.15107 0.35697 0.0
H1749 H 0.20433 0.15129 0.29257 0.0
H1750 H 0.19987 0.12118 0.29521 0.0
H1751 H 0.20614 0.12087 0.36016 0.0
H1752 H 0.21558 0.10838 0.31442 0.0
H1753 H 0.27465 0.1252 0.30486 0.0
H1754 H 0.27895 0.13237 0.39405 0.0
H1755 H 0.22889 0.13848 0.41308 0.0
C1756 C 0.22148 0.13609 0.21122 0.0
C1757 C 0.23067 0.13702 0.16717 0.0
C1758 C 0.24654 0.13222 0.16886 0.0
C1759 C 0.25349 0.12771 0.21441 0.0
C1760 C 0.24438 0.12784 0.25791 0.0
C1761 C 0.22861 0.13161 0.25658 0.0
C1762 C 0.22204 0.13329 0.30929 0.0
C1763 C 0.21467 0.14965 0.31739 0.0
C1764 C 0.21021 0.12014 0.32042 0.0
C1765 C 0.23681 0.13121 0.34011 0.0
C1766 C 0.24951 0.12763 0.31 0.0
C1767 C 0.26473 0.12748 0.32915 0.0
C1768 C 0.26709 0.13161 0.37987 0.0
C1769 C 0.25427 0.13596 0.41064 0.0
C1770 C 0.23894 0.135 0.39084 0.0
H1771 H 0.10136 0.9706 0.48759 0.0
H1772 H 0.11534 0.01403 0.41547 0.0
H1773 H 0.1208 0.02577 0.4985 0.0
H1774 H 0.07952 0.98634 0.57296 0.0
H1775 H 0.08385 0.9736 0.62542 0.0
H1776 H 0.08646 0.96659 0.56227 0.0
H1777 H 0.11544 0.95991 0.58084 0.0
H1778 H 0.11288 0.96665 0.64484 0.0
H1779 H 0.12822 0.97481 0.60626 0.0
H1780 H 0.11715 0.03514 0.58608 0.0
H1781 H 0.10635 0.04057 0.67076 0.0
H1782 H 0.09499 0.99112 0.6871 0.0
C1783 C 0.10649 0.98223 0.48929 0.0
C1784 C 0.10802 0.99138 0.4453 0.0
C1785 C 0.11418 0.00679 0.44885 0.0
C1786 C 0.11735 0.01356 0.49592 0.0
C1787 C 0.11448 0.00469 0.53906 0.0
C1788 C 0.10953 0.9892 0.53618 0.0
C1789 C 0.10464 0.98314 0.58746 0.0
C1790 C 0.08762 0.97708 0.58694 0.0
C1791 C 0.11598 0.97037 0.60594 0.0
C1792 C 0.10626 -0.002 0.61847 0.0
C1793 C 0.11238 0.0102 0.59039 0.0
C1794 C 0.11285 0.02556 0.60903 0.0
C1795 C 0.1066 0.02857 0.65708 0.0
C1796 C 0.09984 0.01628 0.68564 0.0
C1797 C 0.10024 0.00076 0.66656 0.0
H1798 H 0.21586 0.86022 0.91048 0.0
H1799 H 0.25586 0.88207 0.98239 0.0
H1800 H 0.26774 0.88683 0.89916 0.0
H1801 H 0.23583 0.83858 0.83158 0.0
H1802 H 0.2231 0.83977 0.77752 0.0
H1803 H 0.21526 0.84261 0.83957 0.0
H1804 H 0.20439 0.86989 0.8141 0.0
H1805 H 0.21192 0.86702 0.75122 0.0
H1806 H 0.2173 0.88429 0.78665 0.0
H1807 H 0.27817 0.88308 0.81238 0.0
H1808 H 0.28539 0.87251 0.72865 0.0
H1809 H 0.23874 0.85291 0.7132 0.0
C1810 C 0.22667 0.86682 0.90844 0.0
C1811 C 0.23488 0.87091 0.95266 0.0
C1812 C 0.24933 0.87896 0.9488 0.0
C1813 C 0.25617 0.88174 0.90164 0.0
C1814 C 0.24834 0.87651 0.85871 0.0
C1815 C 0.23373 0.8695 0.86159 0.0
C1816 C 0.22894 0.86263 0.81122 0.0
C1817 C 0.22561 0.84486 0.81527 0.0
C1818 C 0.2148 0.87149 0.78951 0.0
C1819 C 0.24356 0.86585 0.78079 0.0
C1820 C 0.25448 0.87421 0.80829 0.0
C1821 C 0.26954 0.87693 0.7899 0.0
C1822 C 0.27359 0.8708 0.74244 0.0
C1823 C 0.26265 0.8619 0.71431 0.0
C1824 C 0.24736 0.8598 0.73346 0.0
H1825 H 0.38593 0.03538 0.95436 0.0
H1826 H 0.37309 0.99182 0.88048 0.0
H1827 H 0.36776 0.97975 0.96311 0.0
H1828 H 0.4082 0.01963 0.03913 0.0
H1829 H 0.40369 0.03225 0.09183 0.0
H1830 H 0.40101 0.0393 0.02883 0.0
H1831 H 0.37194 0.04558 0.04766 0.0
H1832 H 0.37457 0.03873 0.11145 0.0
H1833 H 0.35935 0.03046 0.07255 0.0
H1834 H 0.37067 0.97041 0.05117 0.0
H1835 H 0.38149 0.96495 0.13587 0.0
H1836 H 0.39305 0.0143 0.15275 0.0
C1837 C 0.38112 0.02361 0.95558 0.0
C1838 C 0.37978 0.01458 0.91124 0.0
C1839 C 0.37408 -0.00102 0.91416 0.0
C1840 C 0.37096 0.99204 0.96097 0.0
C1841 C 0.3735 0.00088 0.00447 0.0
C1842 C 0.37823 0.01646 0.00215 0.0
C1843 C 0.38304 0.02248 0.05358 0.0
C1844 C 0.39998 0.02876 0.05327 0.0
C1845 C 0.37153 0.03505 0.07242 0.0
C1846 C 0.3816 0.00754 0.0841 0.0
C1847 C 0.37554 0.99534 0.05574 0.0
C1848 C 0.37499 0.97998 0.07424 0.0
C1849 C 0.3812 0.97695 0.12232 0.0
C1850 C 0.38814 0.98919 0.15065 0.0
C1851 C 0.38775 0.00472 0.13193 0.0
H1852 H 0.79185 0.85506 0.87359 0.0
H1853 H 0.75381 0.87949 0.94731 0.0
H1854 H 0.74219 0.88576 0.86473 0.0
H1855 H 0.79168 0.87982 0.74947 0.0
H1856 H 0.7956 0.86228 0.71341 0.0
H1857 H 0.80371 0.86449 0.77583 0.0
H1858 H 0.79111 0.838 0.80154 0.0
H1859 H 0.78272 0.83585 0.73999 0.0
H1860 H 0.77027 0.83545 0.79484 0.0
H1861 H 0.73104 0.88282 0.77959 0.0
H1862 H 0.72229 0.87251 0.69716 0.0
H1863 H 0.7674 0.8499 0.67741 0.0
C1864 C 0.78165 0.86259 0.87182 0.0
C1865 C 0.77385 0.86711 0.91623 0.0
C1866 C 0.76005 0.87622 0.9133 0.0
C1867 C 0.75338 0.87983 0.86658 0.0
C1868 C 0.76069 0.87426 0.8232 0.0
C1869 C 0.77473 0.86609 0.82525 0.0
C1870 C 0.7787 0.85899 0.77445 0.0
C1871 C 0.79329 0.86687 0.75196 0.0
C1872 C 0.7808 0.84102 0.77797 0.0
C1873 C 0.76415 0.86332 0.74501 0.0
C1874 C 0.75408 0.87246 0.77326 0.0
C1875 C 0.73904 0.8761 0.75639 0.0
C1876 C 0.7341 0.87009 0.70972 0.0
C1877 C 0.74416 0.86045 0.68073 0.0
C1878 C 0.7595 0.85744 0.69824 0.0
H1879 H 0.87369 0.01712 0.71527 0.0
H1880 H 0.88115 0.97095 0.77975 0.0
H1881 H 0.87429 0.95877 0.69859 0.0
H1882 H 0.8425 0.00405 0.61467 0.0
H1883 H 0.85091 0.0177 0.57034 0.0
H1884 H 0.85037 0.0225 0.63661 0.0
H1885 H 0.88031 0.02714 0.63549 0.0
H1886 H 0.88096 0.02233 0.56991 0.0
H1887 H 0.89304 0.01163 0.6138 0.0
H1888 H 0.875 0.95214 0.60843 0.0
H1889 H 0.88358 0.95208 0.51964 0.0
H1890 H 0.87522 0.00224 0.51153 0.0
C1891 C 0.87309 0.00444 0.71294 0.0
C1892 C 0.878 0.99501 0.75366 0.0
C1893 C 0.87743 0.97844 0.74899 0.0
C1894 C 0.87342 0.97138 0.70302 0.0
C1895 C 0.86978 0.98104 0.66223 0.0
C1896 C 0.86926 0.99726 0.66706 0.0
C1897 C 0.86815 0.00514 0.61606 0.0
C1898 C 0.85202 0.01279 0.60902 0.0
C1899 C 0.88141 0.01723 0.60841 0.0
C1900 C 0.86998 0.991 0.58188 0.0
C1901 C 0.87018 0.97712 0.609 0.0
C1902 C 0.87432 0.96284 0.58651 0.0
C1903 C 0.8792 0.96289 0.53597 0.0
C1904 C 0.88012 0.97718 0.50897 0.0
C1905 C 0.87451 0.99114 0.53136 0.0
H1906 H 0.7546 0.13906 0.19655 0.0
H1907 H 0.71003 0.14575 0.12159 0.0
H1908 H 0.69626 0.13881 0.19995 0.0
H1909 H 0.74054 0.10732 0.29137 0.0
H1910 H 0.75275 0.11585 0.33962 0.0
H1911 H 0.759 0.11613 0.27466 0.0
H1912 H 0.76231 0.14638 0.27965 0.0
H1913 H 0.75607 0.14619 0.34407 0.0
H1914 H 0.74593 0.15832 0.29893 0.0
H1915 H 0.68757 0.13812 0.28881 0.0
H1916 H 0.68513 0.14453 0.37938 0.0
H1917 H 0.73511 0.13813 0.3975 0.0
C1918 C 0.74196 0.13834 0.19606 0.0
C1919 C 0.7334 0.14292 0.15311 0.0
C1920 C 0.71684 0.14228 0.15416 0.0
C1921 C 0.7089 0.1382 0.19844 0.0
C1922 C 0.71766 0.13464 0.24121 0.0
C1923 C 0.73387 0.13445 0.24018 0.0
C1924 C 0.7406 0.13311 0.29274 0.0
C1925 C 0.74869 0.11715 0.30002 0.0
C1926 C 0.75186 0.14682 0.30449 0.0
C1927 C 0.72574 0.1341 0.32359 0.0
C1928 C 0.71257 0.13434 0.29332 0.0
C1929 C 0.69773 0.13745 0.31307 0.0
C1930 C 0.69643 0.14108 0.36456 0.0
C1931 C 0.70994 0.14185 0.39518 0.0
C1932 C 0.72458 0.13751 0.37486 0.0
H1933 H 0.60304 0.00504 0.17804 0.0
H1934 H 0.61053 0.95514 0.15524 0.0
H1935 H 0.61893 0.9604 0.06773 0.0
H1936 H 0.58416 0.0115 0.07394 0.0
H1937 H 0.59176 0.03073 0.05939 0.0
H1938 H 0.59169 0.02399 0.12331 0.0
H1939 H 0.62157 0.02864 0.12967 0.0
H1940 H 0.62174 0.03559 0.06542 0.0
H1941 H 0.63448 0.01974 0.0841 0.0
H1942 H 0.61911 0.96985 0.97974 0.0
H1943 H 0.61127 0.98239 0.90001 0.0
H1944 H 0.60357 0.02637 0.97859 0.0
C1945 C 0.60707 0.99528 0.15527 0.0
C1946 C 0.6061 0.97968 0.17327 0.0
C1947 C 0.61132 0.96719 0.14235 0.0
C1948 C 0.61614 0.9701 0.09259 0.0
C1949 C 0.61594 0.98557 0.07487 0.0
C1950 C 0.6118 -0.00199 0.1057 0.0
C1951 C 0.60982 0.01307 0.07594 0.0
C1952 C 0.59339 0.02021 0.08358 0.0
C1953 C 0.62268 0.02496 0.08959 0.0
C1954 C 0.61201 0.0069 0.02292 0.0
C1955 C 0.61609 0.99113 0.02321 0.0
C1956 C 0.61643 0.98228 0.97901 0.0
C1957 C 0.61188 0.98948 0.93391 0.0
C1958 C 0.60694 0.00537 0.93332 0.0
C1959 C 0.60773 0.01435 0.97791 0.0
H1960 H 0.74341 0.65118 0.91239 0.0
H1961 H 0.79294 0.64145 0.89394 0.0
H1962 H 0.78801 0.63312 0.80596 0.0
H1963 H 0.72849 0.61923 0.82672 0.0
H1964 H 0.71303 0.63175 0.80384 0.0
H1965 H 0.71997 0.63382 0.86773 0.0
H1966 H 0.72553 0.66336 0.85179 0.0
H1967 H 0.71865 0.66139 0.78814 0.0
H1968 H 0.73802 0.66894 0.79999 0.0
H1969 H 0.77848 0.63048 0.71723 0.0
H1970 H 0.76537 0.63403 0.6352 0.0
H1971 H 0.72197 0.64519 0.71207 0.0
C1972 C 0.7532 0.64691 0.89038 0.0
C1973 C 0.76857 0.64697 0.91003 0.0
C1974 C 0.78105 0.64143 0.87976 0.0
C1975 C 0.77834 0.63662 0.82983 0.0
C1976 C 0.76308 0.6372 0.81118 0.0
C1977 C 0.7507 0.64208 0.84078 0.0
C1978 C 0.73574 0.64344 0.81052 0.0
C1979 C 0.72359 0.63133 0.82826 0.0
C1980 C 0.72912 0.66027 0.81274 0.0
C1981 C 0.74181 0.63943 0.75853 0.0
C1982 C 0.75753 0.63555 0.75984 0.0
C1983 C 0.7661 0.63313 0.71587 0.0
C1984 C 0.75856 0.63523 0.66945 0.0
C1985 C 0.74262 0.63978 0.66738 0.0
C1986 C 0.73405 0.64134 0.71252 0.0
H1987 H 0.59882 0.52467 0.20797 0.0
H1988 H 0.59649 0.47816 0.27377 0.0
H1989 H 0.60767 0.46686 0.19623 0.0
H1990 H 0.58365 0.51531 0.10075 0.0
H1991 H 0.59509 0.52779 0.06004 0.0
H1992 H 0.59277 0.53288 0.12505 0.0
H1993 H 0.62288 0.53355 0.13622 0.0
H1994 H 0.6253 0.52843 0.07064 0.0
H1995 H 0.63442 0.51665 0.11886 0.0
H1996 H 0.61173 0.45985 0.10737 0.0
H1997 H 0.60657 0.45788 0.01613 0.0
H1998 H 0.60606 0.50869 0.00564 0.0
C1999 C 0.60144 0.51222 0.20685 0.0
C2000 C 0.5969 0.5023 0.24675 0.0
C2001 C 0.59995 0.48598 0.24355 0.0
C2002 C 0.60645 0.47947 0.19977 0.0
C2003 C 0.60989 0.48943 0.15958 0.0
C2004 C 0.60765 0.50554 0.16295 0.0
C2005 C 0.60906 0.51327 0.11179 0.0
C2006 C 0.59427 0.52284 0.09867 0.0
C2007 C 0.6238 0.52358 0.10924 0.0
C2008 C 0.61076 0.49887 0.07863 0.0
C2009 C 0.61198 0.48529 0.10697 0.0
C2010 C 0.61128 0.47041 0.0847 0.0
C2011 C 0.60835 0.46938 0.03274 0.0
C2012 C 0.60586 0.48315 0.00407 0.0
C2013 C 0.60805 0.498 0.0268 0.0
H2014 H 0.75676 0.35514 0.4373 0.0
H2015 H 0.71013 0.37441 0.4178 0.0
H2016 H 0.7172 0.38281 0.33167 0.0
H2017 H 0.77828 0.38432 0.35316 0.0
H2018 H 0.79088 0.36893 0.33001 0.0
H2019 H 0.78366 0.36825 0.39389 0.0
H2020 H 0.77228 0.34047 0.37741 0.0
H2021 H 0.77943 0.34106 0.3139 0.0
H2022 H 0.75893 0.3376 0.32552 0.0
H2023 H 0.72708 0.38384 0.24413 0.0
H2024 H 0.73841 0.37648 0.16199 0.0
H2025 H 0.77876 0.35662 0.23748 0.0
C2026 C 0.74817 0.36162 0.41564 0.0
C2027 C 0.73289 0.36415 0.43435 0.0
C2028 C 0.72193 0.3724 0.40438 0.0
C2029 C 0.72589 0.37731 0.35552 0.0
C2030 C 0.74089 0.37404 0.3375 0.0
C2031 C 0.75191 0.36648 0.36688 0.0
C2032 C 0.76628 0.36211 0.33652 0.0
C2033 C 0.78063 0.37147 0.35447 0.0
C2034 C 0.76939 0.34426 0.33844 0.0
C2035 C 0.76118 0.36735 0.28457 0.0
C2036 C 0.74669 0.37464 0.28624 0.0
C2037 C 0.7386 0.37856 0.24246 0.0
C2038 C 0.7451 0.37431 0.19598 0.0
C2039 C 0.75952 0.36615 0.19364 0.0
C2040 C 0.76797 0.36328 0.23831 0.0
H2041 H 0.89483 0.46752 0.65856 0.0
H2042 H 0.88077 0.5102 0.73508 0.0
H2043 H 0.87404 0.52227 0.6535 0.0
H2044 H 0.91558 0.48452 0.57275 0.0
H2045 H 0.91123 0.47196 0.51975 0.0
H2046 H 0.90932 0.4645 0.58255 0.0
H2047 H 0.88042 0.45705 0.56554 0.0
H2048 H 0.88229 0.46429 0.50192 0.0
H2049 H 0.86701 0.47171 0.54232 0.0
H2050 H 0.87587 0.53208 0.56595 0.0
H2051 H 0.886 0.53848 0.48108 0.0
H2052 H 0.89949 0.48976 0.46066 0.0
C2053 C 0.88942 0.47903 0.65811 0.0
C2054 C 0.88809 0.48787 0.70283 0.0
C2055 C 0.88168 0.50319 0.70105 0.0
C2056 C 0.87778 0.51012 0.65486 0.0
C2057 C 0.88032 0.50155 0.6108 0.0
C2058 C 0.88577 0.4862 0.61207 0.0
C2059 C 0.89047 0.48064 0.55999 0.0
C2060 C 0.90766 0.4751 0.55875 0.0
C2061 C 0.87938 0.46765 0.54134 0.0
C2062 C 0.88816 0.49564 0.5303 0.0
C2063 C 0.88175 0.50741 0.55968 0.0
C2064 C 0.88045 0.52284 0.54209 0.0
C2065 C 0.88628 0.5264 0.49389 0.0
C2066 C 0.89357 0.51463 0.46447 0.0
C2067 C 0.89391 0.49899 0.48229 0.0
H2068 H 0.22818 0.3645 0.18366 0.0
H2069 H 0.27327 0.3586 0.11105 0.0
H2070 H 0.2865 0.3658 0.19018 0.0
H2071 H 0.24097 0.39694 0.27658 0.0
H2072 H 0.22878 0.38857 0.32507 0.0
H2073 H 0.22284 0.38744 0.25988 0.0
H2074 H 0.22038 0.35717 0.26753 0.0
H2075 H 0.22628 0.35821 0.33228 0.0
H2076 H 0.23699 0.34592 0.28891 0.0
H2077 H 0.29471 0.36714 0.27951 0.0
H2078 H 0.29694 0.3621 0.37082 0.0
H2079 H 0.24673 0.36795 0.38611 0.0
C2080 C 0.24081 0.36537 0.18389 0.0
C2081 C 0.24967 0.36099 0.14125 0.0
C2082 C 0.26621 0.3619 0.1433 0.0
C2083 C 0.27386 0.36611 0.18803 0.0
C2084 C 0.26481 0.3696 0.23025 0.0
C2085 C 0.24862 0.36949 0.22838 0.0
C2086 C 0.24162 0.37119 0.28049 0.0
C2087 C 0.23305 0.38698 0.28581 0.0
C2088 C 0.2307 0.35729 0.293 0.0
C2089 C 0.25635 0.37093 0.31217 0.0
C2090 C 0.26964 0.37051 0.28253 0.0
C2091 C 0.28444 0.36795 0.30324 0.0
C2092 C 0.28561 0.36507 0.35521 0.0
C2093 C 0.27201 0.36461 0.38563 0.0
C2094 C 0.25737 0.3684 0.36402 0.0
H2095 H 0.39057 0.50142 0.936 0.0
H2096 H 0.37958 0.45205 0.95637 0.0
H2097 H 0.36958 0.45791 0.04168 0.0
H2098 H 0.40722 0.50672 0.04615 0.0
H2099 H 0.40047 0.52645 0.05819 0.0
H2100 H 0.40198 0.5195 -0.0054 0.0
H2101 H 0.37277 0.5261 0.97935 0.0
H2102 H 0.37117 0.53318 0.04331 0.0
H2103 H 0.35805 0.51814 0.02075 0.0
H2104 H 0.36729 0.46755 0.12913 0.0
H2105 H 0.37358 0.47975 0.21094 0.0
H2106 H 0.38612 0.52303 0.13537 0.0
C2107 C 0.3855 0.4919 0.95757 0.0
C2108 C 0.38585 0.47626 0.93946 0.0
C2109 C 0.37934 0.46413 0.96925 0.0
C2110 C 0.37356 0.46739 0.01772 0.0
C2111 C 0.3742 0.48284 0.0355 0.0
C2112 C 0.37985 0.49495 0.006 0.0
C2113 C 0.3819 0.50993 0.03632 0.0
C2114 C 0.39889 0.51598 0.03367 0.0
C2115 C 0.37027 0.52258 0.01889 0.0
C2116 C 0.37779 0.50403 0.08847 0.0
C2117 C 0.37285 0.48852 0.08689 0.0
C2118 C 0.37064 0.4798 0.13073 0.0
C2119 C 0.37428 0.48682 0.17705 0.0
C2120 C 0.38011 0.50238 0.17921 0.0
C2121 C 0.38116 0.51132 0.13467 0.0
H2122 H 0.22753 0.64797 0.93954 0.0
H2123 H 0.27236 0.64495 0.0153 0.0
H2124 H 0.2849 0.63737 0.9353 0.0
H2125 H 0.23586 0.61648 0.8372 0.0
H2126 H 0.22553 0.62817 0.79134 0.0
H2127 H 0.21927 0.62815 0.8563 0.0
H2128 H 0.22153 0.65851 0.85843 0.0
H2129 H 0.2279 0.65864 0.79411 0.0
H2130 H 0.23989 0.66763 0.84209 0.0
H2131 H 0.29354 0.63689 0.84616 0.0
H2132 H 0.29729 0.64388 0.75651 0.0
H2133 H 0.247 0.64745 0.73822 0.0
C2134 C 0.23983 0.64494 0.93971 0.0
C2135 C 0.24895 0.64699 0.98347 0.0
C2136 C 0.26513 0.64342 0.98209 0.0
C2137 C 0.27235 0.63899 0.93685 0.0
C2138 C 0.26321 0.63804 0.89345 0.0
C2139 C 0.24722 0.6407 0.89467 0.0
C2140 C 0.24051 0.64181 0.84203 0.0
C2141 C 0.22965 0.62781 0.83108 0.0
C2142 C 0.23198 0.65758 0.83373 0.0
C2143 C 0.25537 0.64074 0.81129 0.0
C2144 C 0.26829 0.63799 0.84134 0.0
C2145 C 0.28348 0.63858 0.82199 0.0
C2146 C 0.28552 0.64259 0.77107 0.0
C2147 C 0.27243 0.64625 0.74065 0.0
C2148 C 0.25721 0.64464 0.76063 0.0
H2149 H 0.10152 0.54717 0.50635 0.0
H2150 H 0.12259 0.50644 0.43646 0.0
H2151 H 0.13113 0.49687 0.51968 0.0
H2152 H 0.12912 0.54892 0.62555 0.0
H2153 H 0.11251 0.55419 0.6639 0.0
H2154 H 0.11381 0.56107 0.59971 0.0
H2155 H 0.08659 0.54902 0.58131 0.0
H2156 H 0.08529 0.54189 0.64462 0.0
H2157 H 0.08343 0.52835 0.5926 0.0
H2158 H 0.12998 0.48777 0.60713 0.0
H2159 H 0.11974 0.48028 0.6906 0.0
H2160 H 0.09877 0.52647 0.70603 0.0
C2161 C 0.10888 0.53684 0.5087 0.0
C2162 C 0.1118 0.52771 0.46545 0.0
C2163 C 0.12063 0.51373 0.4694 0.0
C2164 C 0.12552 0.50823 0.51655 0.0
C2165 C 0.12141 0.51683 0.55933 0.0
C2166 C 0.1135 0.53104 0.55584 0.0
C2167 C 0.10751 0.53625 0.60696 0.0
C2168 C 0.11627 0.55098 0.6251 0.0
C2169 C 0.08966 0.53901 0.60627 0.0
C2170 C 0.11186 0.52207 0.63846 0.0
C2171 C 0.12041 0.51128 0.61087 0.0
C2172 C 0.12375 0.49633 0.62968 0.0
C2173 C 0.1178 0.49213 0.67708 0.0
C2174 C 0.10843 0.50278 0.70482 0.0
C2175 C 0.10605 0.51813 0.686 0.0
loop_
_geom_bond_atom_site_label_1
_geom_bond_atom_site_label_2
_geom_bond_distance
_geom_bond_site_symmetry_2
_ccdc_geom_bond_type
C0 O1 1.306 . S
C0 O3 1.160 . S
O1 C0 1.306 . S
O1 Cd2 2.228 . S
Cd2 O1 2.228 . S
Cd2 O6 2.273 . S
Cd2 O10 2.277 . S
O3 C0 1.160 . S
O3 Cd4 2.203 . S
Cd4 O3 2.203 . S
Cd4 O6 2.411 . S
Cd4 O7 2.333 1_554 S
Cd4 O8 2.352 . S
Cd4 O12 2.277 . S
Cd4 O13 2.356 . S
C5 O10 1.209 . S
C5 O12 1.226 . S
O6 Cd2 2.273 . S
O6 Cd4 2.411 . S
O6 C9 1.320 1_554 S
O7 Cd4 2.333 1_556 S
O7 C9 1.214 . S
O8 Cd4 2.352 . S
O8 C11 1.258 . S
C9 O6 1.320 1_556 S
C9 O7 1.214 . S
O10 Cd2 2.277 . S
O10 C5 1.209 . S
C11 O8 1.258 . S
C11 O13 1.282 . S
O12 Cd4 2.277 . S
O12 C5 1.226 . S
O13 Cd4 2.356 . S
O13 C11 1.282 . S
C14 O15 1.306 . S
C14 O17 1.160 . S
O15 C14 1.306 . S
O15 Cd16 2.228 1_565 S
Cd16 O15 2.228 1_545 S
Cd16 O20 2.273 1_545 S
Cd16 O24 2.277 1_545 S
O17 C14 1.160 . S
O17 Cd18 2.203 . S
Cd18 O17 2.203 . S
Cd18 O20 2.411 . S
Cd18 O21 2.333 . S
Cd18 O22 2.352 . S
Cd18 O26 2.277 . S
Cd18 O27 2.356 . S
C19 O24 1.209 . S
C19 O26 1.226 . S
O20 Cd16 2.273 1_565 S
O20 Cd18 2.411 . S
O20 C23 1.320 . S
O21 Cd18 2.333 . S
O21 C23 1.214 . S
O22 Cd18 2.352 . S
O22 C25 1.258 . S
C23 O20 1.320 . S
C23 O21 1.214 . S
O24 Cd16 2.277 1_565 S
O24 C19 1.209 . S
C25 O22 1.258 . S
C25 O27 1.282 . S
O26 Cd18 2.277 . S
O26 C19 1.226 . S
O27 Cd18 2.356 . S
O27 C25 1.282 . S
C28 O29 1.306 . S
C28 O31 1.160 . S
O29 C28 1.306 . S
O29 Cd30 2.228 . S
Cd30 O29 2.228 . S
Cd30 O34 2.273 . S
Cd30 O38 2.277 . S
O31 C28 1.160 . S
O31 Cd32 2.203 . S
Cd32 O31 2.203 . S
Cd32 O34 2.411 . S
Cd32 O35 2.333 . S
Cd32 O36 2.352 . S
Cd32 O40 2.277 . S
Cd32 O41 2.356 . S
C33 O38 1.209 . S
C33 O40 1.226 . S
O34 Cd30 2.273 . S
O34 Cd32 2.411 . S
O34 C37 1.320 . S
O35 Cd32 2.333 . S
O35 C37 1.214 . S
O36 Cd32 2.352 . S
O36 C39 1.258 . S
C37 O34 1.320 . S
C37 O35 1.214 . S
O38 Cd30 2.277 . S
O38 C33 1.209 . S
C39 O36 1.258 . S
C39 O41 1.282 . S
O40 Cd32 2.277 . S
O40 C33 1.226 . S
O41 Cd32 2.356 . S
O41 C39 1.282 . S
C42 O43 1.306 . S
C42 O45 1.160 . S
O43 C42 1.306 . S
O43 Cd44 2.228 . S
Cd44 O43 2.228 . S
Cd44 O48 2.273 . S
Cd44 O52 2.277 . S
O45 C42 1.160 . S
O45 Cd46 2.203 . S
Cd46 O45 2.203 . S
Cd46 O48 2.411 . S
Cd46 O49 2.333 . S
Cd46 O50 2.352 . S
Cd46 O54 2.277 . S
Cd46 O55 2.356 . S
C47 O52 1.209 . S
C47 O54 1.226 . S
O48 Cd44 2.273 . S
O48 Cd46 2.411 . S
O48 C51 1.320 . S
O49 Cd46 2.333 . S
O49 C51 1.214 . S
O50 Cd46 2.352 . S
O50 C53 1.258 . S
C51 O48 1.320 . S
C51 O49 1.214 . S
O52 Cd44 2.277 . S
O52 C47 1.209 . S
C53 O50 1.258 . S
C53 O55 1.282 . S
O54 Cd46 2.277 . S
O54 C47 1.226 . S
O55 Cd46 2.356 . S
O55 C53 1.282 . S
C56 O57 1.306 . S
C56 O59 1.160 . S
O57 C56 1.306 . S
O57 Cd58 2.228 . S
Cd58 O57 2.228 . S
Cd58 O62 2.273 . S
Cd58 O66 2.277 . S
O59 C56 1.160 . S
O59 Cd60 2.203 . S
Cd60 O59 2.203 . S
Cd60 O62 2.411 . S
Cd60 O63 2.333 . S
Cd60 O64 2.352 . S
Cd60 O68 2.277 . S
Cd60 O69 2.356 . S
C61 O66 1.209 . S
C61 O68 1.226 . S
O62 Cd58 2.273 . S
O62 Cd60 2.411 . S
O62 C65 1.320 . S
O63 Cd60 2.333 . S
O63 C65 1.214 . S
O64 Cd60 2.352 . S
O64 C67 1.258 . S
C65 O62 1.320 . S
C65 O63 1.214 . S
O66 Cd58 2.277 . S
O66 C61 1.209 . S
C67 O64 1.258 . S
C67 O69 1.282 . S
O68 Cd60 2.277 . S
O68 C61 1.226 . S
O69 Cd60 2.356 . S
O69 C67 1.282 . S
C70 O71 1.306 . S
C70 O73 1.160 . S
O71 C70 1.306 . S
O71 Cd72 2.228 1_565 S
Cd72 O71 2.228 1_545 S
Cd72 O76 2.273 1_545 S
Cd72 O80 2.277 1_545 S
O73 C70 1.160 . S
O73 Cd74 2.203 . S
Cd74 O73 2.203 . S
Cd74 O76 2.411 . S
Cd74 O77 2.333 . S
Cd74 O78 2.352 . S
Cd74 O82 2.277 . S
Cd74 O83 2.356 . S
C75 O80 1.209 . S
C75 O82 1.226 . S
O76 Cd72 2.273 1_565 S
O76 Cd74 2.411 . S
O76 C79 1.320 . S
O77 Cd74 2.333 . S
O77 C79 1.214 . S
O78 Cd74 2.352 . S
O78 C81 1.258 . S
C79 O76 1.320 . S
C79 O77 1.214 . S
O80 Cd72 2.277 1_565 S
O80 C75 1.209 . S
C81 O78 1.258 . S
C81 O83 1.282 . S
O82 Cd74 2.277 . S
O82 C75 1.226 . S
O83 Cd74 2.356 . S
O83 C81 1.282 . S
C84 O85 1.306 . S
C84 O87 1.160 . S
O85 C84 1.306 . S
O85 Cd86 2.228 . S
Cd86 O85 2.228 . S
Cd86 O90 2.273 . S
Cd86 O94 2.277 . S
O87 C84 1.160 . S
O87 Cd88 2.203 . S
Cd88 O87 2.203 . S
Cd88 O90 2.411 . S
Cd88 O91 2.333 . S
Cd88 O92 2.352 . S
Cd88 O96 2.277 . S
Cd88 O97 2.356 . S
C89 O94 1.209 . S
C89 O96 1.226 . S
O90 Cd86 2.273 . S
O90 Cd88 2.411 . S
O90 C93 1.320 . S
O91 Cd88 2.333 . S
O91 C93 1.214 . S
O92 Cd88 2.352 . S
O92 C95 1.258 . S
C93 O90 1.320 . S
C93 O91 1.214 . S
O94 Cd86 2.277 . S
O94 C89 1.209 . S
C95 O92 1.258 . S
C95 O97 1.282 . S
O96 Cd88 2.277 . S
O96 C89 1.226 . S
O97 Cd88 2.356 . S
O97 C95 1.282 . S
C98 O99 1.306 . S
C98 O101 1.160 . S
O99 C98 1.306 . S
O99 Cd100 2.228 . S
Cd100 O99 2.228 . S
Cd100 O104 2.273 . S
Cd100 O108 2.277 . S
O101 C98 1.160 . S
O101 Cd102 2.203 . S
Cd102 O101 2.203 . S
Cd102 O104 2.411 . S
Cd102 O105 2.333 . S
Cd102 O106 2.352 . S
Cd102 O110 2.277 . S
Cd102 O111 2.356 . S
C103 O108 1.209 . S
C103 O110 1.226 . S
O104 Cd100 2.273 . S
O104 Cd102 2.411 . S
O104 C107 1.320 . S
O105 Cd102 2.333 . S
O105 C107 1.214 . S
O106 Cd102 2.352 . S
O106 C109 1.258 . S
C107 O104 1.320 . S
C107 O105 1.214 . S
O108 Cd100 2.277 . S
O108 C103 1.209 . S
C109 O106 1.258 . S
C109 O111 1.282 . S
O110 Cd102 2.277 . S
O110 C103 1.226 . S
O111 Cd102 2.356 . S
O111 C109 1.282 . S
C112 O113 1.306 . S
C112 O115 1.160 . S
O113 C112 1.306 . S
O113 Cd114 2.228 . S
Cd114 O113 2.228 . S
Cd114 O118 2.273 . S
Cd114 O122 2.277 . S
O115 C112 1.160 . S
O115 Cd116 2.203 . S
Cd116 O115 2.203 . S
Cd116 O118 2.411 . S
Cd116 O119 2.333 . S
Cd116 O120 2.352 . S
Cd116 O124 2.277 . S
Cd116 O125 2.356 . S
C117 O122 1.209 . S
C117 O124 1.226 . S
O118 Cd114 2.273 . S
O118 Cd116 2.411 . S
O118 C121 1.320 . S
O119 Cd116 2.333 . S
O119 C121 1.214 . S
O120 Cd116 2.352 . S
O120 C123 1.258 . S
C121 O118 1.320 . S
C121 O119 1.214 . S
O122 Cd114 2.277 . S
O122 C117 1.209 . S
C123 O120 1.258 . S
C123 O125 1.282 . S
O124 Cd116 2.277 . S
O124 C117 1.226 . S
O125 Cd116 2.356 . S
O125 C123 1.282 . S
C126 O127 1.306 . S
C126 O129 1.160 . S
O127 C126 1.306 . S
O127 Cd128 2.228 . S
Cd128 O127 2.228 . S
Cd128 O132 2.273 . S
Cd128 O136 2.277 . S
O129 C126 1.160 . S
O129 Cd130 2.203 . S
Cd130 O129 2.203 . S
Cd130 O132 2.411 . S
Cd130 O133 2.333 . S
Cd130 O134 2.352 . S
Cd130 O138 2.277 . S
Cd130 O139 2.356 . S
C131 O136 1.209 . S
C131 O138 1.226 . S
O132 Cd128 2.273 . S
O132 Cd130 2.411 . S
O132 C135 1.320 . S
O133 Cd130 2.333 . S
O133 C135 1.214 . S
O134 Cd130 2.352 . S
O134 C137 1.258 . S
C135 O132 1.320 . S
C135 O133 1.214 . S
O136 Cd128 2.277 . S
O136 C131 1.209 . S
C137 O134 1.258 . S
C137 O139 1.282 . S
O138 Cd130 2.277 . S
O138 C131 1.226 . S
O139 Cd130 2.356 . S
O139 C137 1.282 . S
C140 O141 1.306 . S
C140 O143 1.160 . S
O141 C140 1.306 . S
O141 Cd142 2.228 . S
Cd142 O141 2.228 . S
Cd142 O146 2.273 . S
Cd142 O150 2.277 . S
O143 C140 1.160 . S
O143 Cd144 2.203 . S
Cd144 O143 2.203 . S
Cd144 O146 2.411 . S
Cd144 O147 2.333 . S
Cd144 O148 2.352 . S
Cd144 O152 2.277 . S
Cd144 O153 2.356 . S
C145 O150 1.209 . S
C145 O152 1.226 . S
O146 Cd142 2.273 . S
O146 Cd144 2.411 . S
O146 C149 1.320 . S
O147 Cd144 2.333 . S
O147 C149 1.214 . S
O148 Cd144 2.352 . S
O148 C151 1.258 . S
C149 O146 1.320 . S
C149 O147 1.214 . S
O150 Cd142 2.277 . S
O150 C145 1.209 . S
C151 O148 1.258 . S
C151 O153 1.282 . S
O152 Cd144 2.277 . S
O152 C145 1.226 . S
O153 Cd144 2.356 . S
O153 C151 1.282 . S
C154 O155 1.306 . S
C154 O157 1.160 . S
O155 C154 1.306 . S
O155 Cd156 2.228 1_565 S
Cd156 O155 2.228 1_545 S
Cd156 O160 2.273 1_545 S
Cd156 O164 2.277 1_545 S
O157 C154 1.160 . S
O157 Cd158 2.203 . S
Cd158 O157 2.203 . S
Cd158 O160 2.411 . S
Cd158 O161 2.333 . S
Cd158 O162 2.352 . S
Cd158 O166 2.277 . S
Cd158 O167 2.356 . S
C159 O164 1.209 . S
C159 O166 1.226 . S
O160 Cd156 2.273 1_565 S
O160 Cd158 2.411 . S
O160 C163 1.320 . S
O161 Cd158 2.333 . S
O161 C163 1.214 . S
O162 Cd158 2.352 . S
O162 C165 1.258 . S
C163 O160 1.320 . S
C163 O161 1.214 . S
O164 Cd156 2.277 1_565 S
O164 C159 1.209 . S
C165 O162 1.258 . S
C165 O167 1.282 . S
O166 Cd158 2.277 . S
O166 C159 1.226 . S
O167 Cd158 2.356 . S
O167 C165 1.282 . S
C168 O169 1.306 . S
C168 O171 1.160 . S
O169 C168 1.306 . S
O169 Cd170 2.228 . S
Cd170 O169 2.228 . S
Cd170 O174 2.273 . S
Cd170 O178 2.277 . S
O171 C168 1.160 . S
O171 Cd172 2.203 . S
Cd172 O171 2.203 . S
Cd172 O174 2.411 . S
Cd172 O175 2.333 1_554 S
Cd172 O176 2.352 . S
Cd172 O180 2.277 . S
Cd172 O181 2.356 . S
C173 O178 1.209 . S
C173 O180 1.226 . S
O174 Cd170 2.273 . S
O174 Cd172 2.411 . S
O174 C177 1.320 1_554 S
O175 Cd172 2.333 1_556 S
O175 C177 1.214 . S
O176 Cd172 2.352 . S
O176 C179 1.258 . S
C177 O174 1.320 1_556 S
C177 O175 1.214 . S
O178 Cd170 2.277 . S
O178 C173 1.209 . S
C179 O176 1.258 . S
C179 O181 1.282 . S
O180 Cd172 2.277 . S
O180 C173 1.226 . S
O181 Cd172 2.356 . S
O181 C179 1.282 . S
C182 O183 1.306 . S
C182 O185 1.160 . S
O183 C182 1.306 . S
O183 Cd184 2.228 . S
Cd184 O183 2.228 . S
Cd184 O188 2.273 . S
Cd184 O192 2.277 . S
O185 C182 1.160 . S
O185 Cd186 2.203 . S
Cd186 O185 2.203 . S
Cd186 O188 2.411 . S
Cd186 O189 2.333 . S
Cd186 O190 2.352 . S
Cd186 O194 2.277 . S
Cd186 O195 2.356 . S
C187 O192 1.209 . S
C187 O194 1.226 . S
O188 Cd184 2.273 . S
O188 Cd186 2.411 . S
O188 C191 1.320 . S
O189 Cd186 2.333 . S
O189 C191 1.214 . S
O190 Cd186 2.352 . S
O190 C193 1.258 . S
C191 O188 1.320 . S
C191 O189 1.214 . S
O192 Cd184 2.277 . S
O192 C187 1.209 . S
C193 O190 1.258 . S
C193 O195 1.282 . S
O194 Cd186 2.277 . S
O194 C187 1.226 . S
O195 Cd186 2.356 . S
O195 C193 1.282 . S
C196 O197 1.306 . S
C196 O199 1.160 . S
O197 C196 1.306 . S
O197 Cd198 2.228 . S
Cd198 O197 2.228 . S
Cd198 O202 2.273 . S
Cd198 O206 2.277 . S
O199 C196 1.160 . S
O199 Cd200 2.203 . S
Cd200 O199 2.203 . S
Cd200 O202 2.411 . S
Cd200 O203 2.333 . S
Cd200 O204 2.352 . S
Cd200 O208 2.277 . S
Cd200 O209 2.356 . S
C201 O206 1.209 . S
C201 O208 1.226 . S
O202 Cd198 2.273 . S
O202 Cd200 2.411 . S
O202 C205 1.320 . S
O203 Cd200 2.333 . S
O203 C205 1.214 . S
O204 Cd200 2.352 . S
O204 C207 1.258 . S
C205 O202 1.320 . S
C205 O203 1.214 . S
O206 Cd198 2.277 . S
O206 C201 1.209 . S
C207 O204 1.258 . S
C207 O209 1.282 . S
O208 Cd200 2.277 . S
O208 C201 1.226 . S
O209 Cd200 2.356 . S
O209 C207 1.282 . S
C210 O211 1.306 . S
C210 O213 1.160 . S
O211 C210 1.306 . S
O211 Cd212 2.228 1_565 S
Cd212 O211 2.228 1_545 S
Cd212 O216 2.273 1_545 S
Cd212 O220 2.277 1_545 S
O213 C210 1.160 . S
O213 Cd214 2.203 . S
Cd214 O213 2.203 . S
Cd214 O216 2.411 . S
Cd214 O217 2.333 . S
Cd214 O218 2.352 . S
Cd214 O222 2.277 . S
Cd214 O223 2.356 . S
C215 O220 1.209 . S
C215 O222 1.226 . S
O216 Cd212 2.273 1_565 S
O216 Cd214 2.411 . S
O216 C219 1.320 . S
O217 Cd214 2.333 . S
O217 C219 1.214 . S
O218 Cd214 2.352 . S
O218 C221 1.258 . S
C219 O216 1.320 . S
C219 O217 1.214 . S
O220 Cd212 2.277 1_565 S
O220 C215 1.209 . S
C221 O218 1.258 . S
C221 O223 1.282 . S
O222 Cd214 2.277 . S
O222 C215 1.226 . S
O223 Cd214 2.356 . S
O223 C221 1.282 . S
C224 O225 1.306 . S
C224 O227 1.160 . S
O225 C224 1.306 . S
O225 Cd226 2.228 . S
Cd226 O225 2.228 . S
Cd226 O230 2.273 . S
Cd226 O234 2.277 . S
O227 C224 1.160 . S
O227 Cd228 2.203 . S
Cd228 O227 2.203 . S
Cd228 O230 2.411 . S
Cd228 O231 2.333 . S
Cd228 O232 2.352 . S
Cd228 O236 2.277 . S
Cd228 O237 2.356 . S
C229 O234 1.209 . S
C229 O236 1.226 . S
O230 Cd226 2.273 . S
O230 Cd228 2.411 . S
O230 C233 1.320 . S
O231 Cd228 2.333 . S
O231 C233 1.214 . S
O232 Cd228 2.352 . S
O232 C235 1.258 . S
C233 O230 1.320 . S
C233 O231 1.214 . S
O234 Cd226 2.277 . S
O234 C229 1.209 . S
C235 O232 1.258 . S
C235 O237 1.282 . S
O236 Cd228 2.277 . S
O236 C229 1.226 . S
O237 Cd228 2.356 . S
O237 C235 1.282 . S
C238 O239 1.306 . S
C238 O241 1.160 . S
O239 C238 1.306 . S
O239 Cd240 2.228 . S
Cd240 O239 2.228 . S
Cd240 O244 2.273 . S
Cd240 O248 2.277 . S
O241 C238 1.160 . S
O241 Cd242 2.203 . S
Cd242 O241 2.203 . S
Cd242 O244 2.411 . S
Cd242 O245 2.333 . S
Cd242 O246 2.352 . S
Cd242 O250 2.277 . S
Cd242 O251 2.356 . S
C243 O248 1.209 . S
C243 O250 1.226 . S
O244 Cd240 2.273 . S
O244 Cd242 2.411 . S
O244 C247 1.320 . S
O245 Cd242 2.333 . S
O245 C247 1.214 . S
O246 Cd242 2.352 . S
O246 C249 1.258 . S
C247 O244 1.320 . S
C247 O245 1.214 . S
O248 Cd240 2.277 . S
O248 C243 1.209 . S
C249 O246 1.258 . S
C249 O251 1.282 . S
O250 Cd242 2.277 . S
O250 C243 1.226 . S
O251 Cd242 2.356 . S
O251 C249 1.282 . S
C252 O253 1.306 . S
C252 O255 1.160 . S
O253 C252 1.306 . S
O253 Cd254 2.228 . S
Cd254 O253 2.228 . S
Cd254 O258 2.273 . S
Cd254 O262 2.277 . S
O255 C252 1.160 . S
O255 Cd256 2.203 . S
Cd256 O255 2.203 . S
Cd256 O258 2.411 . S
Cd256 O259 2.333 1_554 S
Cd256 O260 2.352 . S
Cd256 O264 2.277 . S
Cd256 O265 2.356 . S
C257 O262 1.209 . S
C257 O264 1.226 . S
O258 Cd254 2.273 . S
O258 Cd256 2.411 . S
O258 C261 1.320 1_554 S
O259 Cd256 2.333 1_556 S
O259 C261 1.214 . S
O260 Cd256 2.352 . S
O260 C263 1.258 . S
C261 O258 1.320 1_556 S
C261 O259 1.214 . S
O262 Cd254 2.277 . S
O262 C257 1.209 . S
C263 O260 1.258 . S
C263 O265 1.282 . S
O264 Cd256 2.277 . S
O264 C257 1.226 . S
O265 Cd256 2.356 . S
O265 C263 1.282 . S
C266 O267 1.306 . S
C266 O269 1.160 . S
O267 C266 1.306 . S
O267 Cd268 2.228 . S
Cd268 O267 2.228 . S
Cd268 O272 2.273 . S
Cd268 O276 2.277 . S
O269 C266 1.160 . S
O269 Cd270 2.203 . S
Cd270 O269 2.203 . S
Cd270 O272 2.411 . S
Cd270 O273 2.333 . S
Cd270 O274 2.352 . S
Cd270 O278 2.277 . S
Cd270 O279 2.356 . S
C271 O276 1.209 . S
C271 O278 1.226 . S
O272 Cd268 2.273 . S
O272 Cd270 2.411 . S
O272 C275 1.320 . S
O273 Cd270 2.333 . S
O273 C275 1.214 . S
O274 Cd270 2.352 . S
O274 C277 1.258 . S
C275 O272 1.320 . S
C275 O273 1.214 . S
O276 Cd268 2.277 . S
O276 C271 1.209 . S
C277 O274 1.258 . S
C277 O279 1.282 . S
O278 Cd270 2.277 . S
O278 C271 1.226 . S
O279 Cd270 2.356 . S
O279 C277 1.282 . S
C280 O281 1.306 . S
C280 O283 1.160 . S
O281 C280 1.306 . S
O281 Cd282 2.228 . S
Cd282 O281 2.228 . S
Cd282 O286 2.273 . S
Cd282 O290 2.277 . S
O283 C280 1.160 . S
O283 Cd284 2.203 . S
Cd284 O283 2.203 . S
Cd284 O286 2.411 . S
Cd284 O287 2.333 . S
Cd284 O288 2.352 . S
Cd284 O292 2.277 . S
Cd284 O293 2.356 . S
C285 O290 1.209 . S
C285 O292 1.226 . S
O286 Cd282 2.273 . S
O286 Cd284 2.411 . S
O286 C289 1.320 . S
O287 Cd284 2.333 . S
O287 C289 1.214 . S
O288 Cd284 2.352 . S
O288 C291 1.258 . S
C289 O286 1.320 . S
C289 O287 1.214 . S
O290 Cd282 2.277 . S
O290 C285 1.209 . S
C291 O288 1.258 . S
C291 O293 1.282 . S
O292 Cd284 2.277 . S
O292 C285 1.226 . S
O293 Cd284 2.356 . S
O293 C291 1.282 . S
C294 O295 1.306 . S
C294 O297 1.160 . S
O295 C294 1.306 . S
O295 Cd296 2.228 . S
Cd296 O295 2.228 . S
Cd296 O300 2.273 . S
Cd296 O304 2.277 . S
O297 C294 1.160 . S
O297 Cd298 2.203 . S
Cd298 O297 2.203 . S
Cd298 O300 2.411 . S
Cd298 O301 2.333 . S
Cd298 O302 2.352 . S
Cd298 O306 2.277 . S
Cd298 O307 2.356 . S
C299 O304 1.209 . S
C299 O306 1.226 . S
O300 Cd296 2.273 . S
O300 Cd298 2.411 . S
O300 C303 1.320 . S
O301 Cd298 2.333 . S
O301 C303 1.214 . S
O302 Cd298 2.352 . S
O302 C305 1.258 . S
C303 O300 1.320 . S
C303 O301 1.214 . S
O304 Cd296 2.277 . S
O304 C299 1.209 . S
C305 O302 1.258 . S
C305 O307 1.282 . S
O306 Cd298 2.277 . S
O306 C299 1.226 . S
O307 Cd298 2.356 . S
O307 C305 1.282 . S
C308 O309 1.306 . S
C308 O311 1.160 . S
O309 C308 1.306 . S
O309 Cd310 2.228 . S
Cd310 O309 2.228 . S
Cd310 O314 2.273 . S
Cd310 O318 2.277 . S
O311 C308 1.160 . S
O311 Cd312 2.203 . S
Cd312 O311 2.203 . S
Cd312 O314 2.411 . S
Cd312 O315 2.333 . S
Cd312 O316 2.352 . S
Cd312 O320 2.277 . S
Cd312 O321 2.356 . S
C313 O318 1.209 . S
C313 O320 1.226 . S
O314 Cd310 2.273 . S
O314 Cd312 2.411 . S
O314 C317 1.320 . S
O315 Cd312 2.333 . S
O315 C317 1.214 . S
O316 Cd312 2.352 . S
O316 C319 1.258 . S
C317 O314 1.320 . S
C317 O315 1.214 . S
O318 Cd310 2.277 . S
O318 C313 1.209 . S
C319 O316 1.258 . S
C319 O321 1.282 . S
O320 Cd312 2.277 . S
O320 C313 1.226 . S
O321 Cd312 2.356 . S
O321 C319 1.282 . S
C322 O323 1.306 . S
C322 O325 1.160 . S
O323 C322 1.306 . S
O323 Cd324 2.228 . S
Cd324 O323 2.228 . S
Cd324 O328 2.273 . S
Cd324 O332 2.277 . S
O325 C322 1.160 . S
O325 Cd326 2.203 . S
Cd326 O325 2.203 . S
Cd326 O328 2.411 . S
Cd326 O329 2.333 . S
Cd326 O330 2.352 . S
Cd326 O334 2.277 . S
Cd326 O335 2.356 . S
C327 O332 1.209 . S
C327 O334 1.226 . S
O328 Cd324 2.273 . S
O328 Cd326 2.411 . S
O328 C331 1.320 . S
O329 Cd326 2.333 . S
O329 C331 1.214 . S
O330 Cd326 2.352 . S
O330 C333 1.258 . S
C331 O328 1.320 . S
C331 O329 1.214 . S
O332 Cd324 2.277 . S
O332 C327 1.209 . S
C333 O330 1.258 . S
C333 O335 1.282 . S
O334 Cd326 2.277 . S
O334 C327 1.226 . S
O335 Cd326 2.356 . S
O335 C333 1.282 . S
C336 O337 1.306 . S
C336 O339 1.160 . S
O337 C336 1.306 . S
O337 Cd338 2.228 . S
Cd338 O337 2.228 . S
Cd338 O342 2.273 . S
Cd338 O346 2.277 . S
O339 C336 1.160 . S
O339 Cd340 2.203 . S
Cd340 O339 2.203 . S
Cd340 O342 2.411 . S
Cd340 O343 2.333 . S
Cd340 O344 2.352 . S
Cd340 O348 2.277 . S
Cd340 O349 2.356 . S
C341 O346 1.209 . S
C341 O348 1.226 . S
O342 Cd338 2.273 . S
O342 Cd340 2.411 . S
O342 C345 1.320 . S
O343 Cd340 2.333 . S
O343 C345 1.214 . S
O344 Cd340 2.352 . S
O344 C347 1.258 . S
C345 O342 1.320 . S
C345 O343 1.214 . S
O346 Cd338 2.277 . S
O346 C341 1.209 . S
C347 O344 1.258 . S
C347 O349 1.282 . S
O348 Cd340 2.277 . S
O348 C341 1.226 . S
O349 Cd340 2.356 . S
O349 C347 1.282 . S
C350 O351 1.306 . S
C350 O353 1.160 . S
O351 C350 1.306 . S
O351 Cd352 2.228 . S
Cd352 O351 2.228 . S
Cd352 O356 2.273 . S
Cd352 O360 2.277 . S
O353 C350 1.160 . S
O353 Cd354 2.203 . S
Cd354 O353 2.203 . S
Cd354 O356 2.411 . S
Cd354 O357 2.333 . S
Cd354 O358 2.352 . S
Cd354 O362 2.277 . S
Cd354 O363 2.356 . S
C355 O360 1.209 . S
C355 O362 1.226 . S
O356 Cd352 2.273 . S
O356 Cd354 2.411 . S
O356 C359 1.320 . S
O357 Cd354 2.333 . S
O357 C359 1.214 . S
O358 Cd354 2.352 . S
O358 C361 1.258 . S
C359 O356 1.320 . S
C359 O357 1.214 . S
O360 Cd352 2.277 . S
O360 C355 1.209 . S
C361 O358 1.258 . S
C361 O363 1.282 . S
O362 Cd354 2.277 . S
O362 C355 1.226 . S
O363 Cd354 2.356 . S
O363 C361 1.282 . S
C364 O365 1.306 . S
C364 O367 1.160 . S
O365 C364 1.306 . S
O365 Cd366 2.228 . S
Cd366 O365 2.228 . S
Cd366 O370 2.273 . S
Cd366 O374 2.277 . S
O367 C364 1.160 . S
O367 Cd368 2.203 . S
Cd368 O367 2.203 . S
Cd368 O370 2.411 . S
Cd368 O371 2.333 . S
Cd368 O372 2.352 . S
Cd368 O376 2.277 . S
Cd368 O377 2.356 . S
C369 O374 1.209 . S
C369 O376 1.226 . S
O370 Cd366 2.273 . S
O370 Cd368 2.411 . S
O370 C373 1.320 . S
O371 Cd368 2.333 . S
O371 C373 1.214 . S
O372 Cd368 2.352 . S
O372 C375 1.258 . S
C373 O370 1.320 . S
C373 O371 1.214 . S
O374 Cd366 2.277 . S
O374 C369 1.209 . S
C375 O372 1.258 . S
C375 O377 1.282 . S
O376 Cd368 2.277 . S
O376 C369 1.226 . S
O377 Cd368 2.356 . S
O377 C375 1.282 . S
C378 O379 1.306 . S
C378 O381 1.160 . S
O379 C378 1.306 . S
O379 Cd380 2.228 . S
Cd380 O379 2.228 . S
Cd380 O384 2.273 . S
Cd380 O388 2.277 . S
O381 C378 1.160 . S
O381 Cd382 2.203 . S
Cd382 O381 2.203 . S
Cd382 O384 2.411 . S
Cd382 O385 2.333 . S
Cd382 O386 2.352 . S
Cd382 O390 2.277 . S
Cd382 O391 2.356 . S
C383 O388 1.209 . S
C383 O390 1.226 . S
O384 Cd380 2.273 . S
O384 Cd382 2.411 . S
O384 C387 1.320 . S
O385 Cd382 2.333 . S
O385 C387 1.214 . S
O386 Cd382 2.352 . S
O386 C389 1.258 . S
C387 O384 1.320 . S
C387 O385 1.214 . S
O388 Cd380 2.277 . S
O388 C383 1.209 . S
C389 O386 1.258 . S
C389 O391 1.282 . S
O390 Cd382 2.277 . S
O390 C383 1.226 . S
O391 Cd382 2.356 . S
O391 C389 1.282 . S
C392 O393 1.306 . S
C392 O395 1.160 . S
O393 C392 1.306 . S
O393 Cd394 2.228 . S
Cd394 O393 2.228 . S
Cd394 O398 2.273 . S
Cd394 O402 2.277 . S
O395 C392 1.160 . S
O395 Cd396 2.203 . S
Cd396 O395 2.203 . S
Cd396 O398 2.411 . S
Cd396 O399 2.333 . S
Cd396 O400 2.352 . S
Cd396 O404 2.277 . S
Cd396 O405 2.356 . S
C397 O402 1.209 . S
C397 O404 1.226 . S
O398 Cd394 2.273 . S
O398 Cd396 2.411 . S
O398 C401 1.320 . S
O399 Cd396 2.333 . S
O399 C401 1.214 . S
O400 Cd396 2.352 . S
O400 C403 1.258 . S
C401 O398 1.320 . S
C401 O399 1.214 . S
O402 Cd394 2.277 . S
O402 C397 1.209 . S
C403 O400 1.258 . S
C403 O405 1.282 . S
O404 Cd396 2.277 . S
O404 C397 1.226 . S
O405 Cd396 2.356 . S
O405 C403 1.282 . S
C406 O407 1.306 . S
C406 O409 1.160 . S
O407 C406 1.306 . S
O407 Cd408 2.228 . S
Cd408 O407 2.228 . S
Cd408 O412 2.273 . S
Cd408 O416 2.277 . S
O409 C406 1.160 . S
O409 Cd410 2.203 . S
Cd410 O409 2.203 . S
Cd410 O412 2.411 . S
Cd410 O413 2.333 . S
Cd410 O414 2.352 . S
Cd410 O418 2.277 . S
Cd410 O419 2.356 . S
C411 O416 1.209 . S
C411 O418 1.226 . S
O412 Cd408 2.273 . S
O412 Cd410 2.411 . S
O412 C415 1.320 . S
O413 Cd410 2.333 . S
O413 C415 1.214 . S
O414 Cd410 2.352 . S
O414 C417 1.258 . S
C415 O412 1.320 . S
C415 O413 1.214 . S
O416 Cd408 2.277 . S
O416 C411 1.209 . S
C417 O414 1.258 . S
C417 O419 1.282 . S
O418 Cd410 2.277 . S
O418 C411 1.226 . S
O419 Cd410 2.356 . S
O419 C417 1.282 . S
C420 O421 1.306 . S
C420 O423 1.160 . S
O421 C420 1.306 . S
O421 Cd422 2.228 . S
Cd422 O421 2.228 . S
Cd422 O426 2.273 . S
Cd422 O430 2.277 . S
O423 C420 1.160 . S
O423 Cd424 2.203 . S
Cd424 O423 2.203 . S
Cd424 O426 2.411 . S
Cd424 O427 2.333 1_554 S
Cd424 O428 2.352 . S
Cd424 O432 2.277 . S
Cd424 O433 2.356 . S
C425 O430 1.209 . S
C425 O432 1.226 . S
O426 Cd422 2.273 . S
O426 Cd424 2.411 . S
O426 C429 1.320 1_554 S
O427 Cd424 2.333 1_556 S
O427 C429 1.214 . S
O428 Cd424 2.352 . S
O428 C431 1.258 . S
C429 O426 1.320 1_556 S
C429 O427 1.214 . S
O430 Cd422 2.277 . S
O430 C425 1.209 . S
C431 O428 1.258 . S
C431 O433 1.282 . S
O432 Cd424 2.277 . S
O432 C425 1.226 . S
O433 Cd424 2.356 . S
O433 C431 1.282 . S
C434 O435 1.306 . S
C434 O437 1.160 . S
O435 C434 1.306 . S
O435 Cd436 2.228 . S
Cd436 O435 2.228 . S
Cd436 O440 2.273 . S
Cd436 O444 2.277 . S
O437 C434 1.160 . S
O437 Cd438 2.203 . S
Cd438 O437 2.203 . S
Cd438 O440 2.411 . S
Cd438 O441 2.333 . S
Cd438 O442 2.352 . S
Cd438 O446 2.277 . S
Cd438 O447 2.356 . S
C439 O444 1.209 . S
C439 O446 1.226 . S
O440 Cd436 2.273 . S
O440 Cd438 2.411 . S
O440 C443 1.320 . S
O441 Cd438 2.333 . S
O441 C443 1.214 . S
O442 Cd438 2.352 . S
O442 C445 1.258 . S
C443 O440 1.320 . S
C443 O441 1.214 . S
O444 Cd436 2.277 . S
O444 C439 1.209 . S
C445 O442 1.258 . S
C445 O447 1.282 . S
O446 Cd438 2.277 . S
O446 C439 1.226 . S
O447 Cd438 2.356 . S
O447 C445 1.282 . S
H448 C460 0.930 . S
H449 C462 0.930 . S
H450 C463 0.930 . S
H451 C467 0.959 . S
H452 C467 0.959 . S
H453 C467 0.961 . S
H454 C468 0.960 . S
H455 C468 0.961 . S
H456 C468 0.959 . S
H457 C471 0.929 . S
H458 C472 0.931 . S
H459 C474 0.930 . S
C460 H448 0.930 . S
C460 C461 1.399 . S
C460 C465 1.399 . S
C461 C460 1.399 . S
C461 C462 1.376 . S
C462 H449 0.930 . S
C462 C461 1.376 . S
C462 C463 1.388 . S
C463 H450 0.930 . S
C463 C462 1.388 . S
C463 C464 1.390 . S
C464 C463 1.390 . S
C464 C465 1.394 . S
C464 C470 1.465 . S
C465 C460 1.399 . S
C465 C464 1.394 . S
C465 C466 1.516 1_556 S
C466 C465 1.516 1_554 S
C466 C467 1.502 . S
C466 C468 1.561 . S
C466 C469 1.526 1_554 S
C467 H451 0.959 . S
C467 H452 0.959 . S
C467 H453 0.961 . S
C467 C466 1.502 . S
C468 H454 0.960 . S
C468 H455 0.961 . S
C468 H456 0.959 . S
C468 C466 1.561 . S
C469 C466 1.526 1_556 S
C469 C470 1.398 . S
C469 C474 1.389 1_556 S
C470 C464 1.465 . S
C470 C469 1.398 . S
C470 C471 1.399 . S
C471 H457 0.929 . S
C471 C470 1.399 . S
C471 C472 1.385 . S
C472 H458 0.931 . S
C472 C471 1.385 . S
C472 C473 1.389 1_556 S
C473 C472 1.389 1_554 S
C473 C474 1.387 . S
C474 H459 0.930 . S
C474 C469 1.389 1_554 S
C474 C473 1.387 . S
H475 C487 0.930 . S
H476 C489 0.930 . S
H477 C490 0.930 . S
H478 C494 0.959 . S
H479 C494 0.959 . S
H480 C494 0.961 . S
H481 C495 0.960 . S
H482 C495 0.961 . S
H483 C495 0.959 . S
H484 C498 0.929 . S
H485 C499 0.931 . S
H486 C501 0.930 . S
C487 H475 0.930 . S
C487 C488 1.399 . S
C487 C492 1.399 . S
C488 C487 1.399 . S
C488 C489 1.376 . S
C489 H476 0.930 . S
C489 C488 1.376 . S
C489 C490 1.388 . S
C490 H477 0.930 . S
C490 C489 1.388 . S
C490 C491 1.390 . S
C491 C490 1.390 . S
C491 C492 1.394 . S
C491 C497 1.465 . S
C492 C487 1.399 . S
C492 C491 1.394 . S
C492 C493 1.516 . S
C493 C492 1.516 . S
C493 C494 1.502 . S
C493 C495 1.561 . S
C493 C496 1.526 . S
C494 H478 0.959 . S
C494 H479 0.959 . S
C494 H480 0.961 . S
C494 C493 1.502 . S
C495 H481 0.960 . S
C495 H482 0.961 . S
C495 H483 0.959 . S
C495 C493 1.561 . S
C496 C493 1.526 . S
C496 C497 1.396 . S
C496 C501 1.390 . S
C497 C491 1.465 . S
C497 C496 1.396 . S
C497 C498 1.399 . S
C498 H484 0.929 . S
C498 C497 1.399 . S
C498 C499 1.385 . S
C499 H485 0.931 . S
C499 C498 1.385 . S
C499 C500 1.389 . S
C500 C499 1.389 . S
C500 C501 1.387 . S
C501 H486 0.930 . S
C501 C496 1.390 . S
C501 C500 1.387 . S
H502 C514 0.930 . S
H503 C516 0.930 . S
H504 C517 0.930 . S
H505 C521 0.959 . S
H506 C521 0.959 . S
H507 C521 0.961 . S
H508 C522 0.960 . S
H509 C522 0.961 . S
H510 C522 0.959 . S
H511 C525 0.929 . S
H512 C526 0.931 . S
H513 C528 0.930 . S
C514 H502 0.930 . S
C514 C515 1.399 . S
C514 C519 1.399 . S
C515 C514 1.399 . S
C515 C516 1.376 . S
C516 H503 0.930 . S
C516 C515 1.376 . S
C516 C517 1.388 . S
C517 H504 0.930 . S
C517 C516 1.388 . S
C517 C518 1.390 . S
C518 C517 1.390 . S
C518 C519 1.394 . S
C518 C524 1.465 . S
C519 C514 1.399 . S
C519 C518 1.394 . S
C519 C520 1.516 . S
C520 C519 1.516 . S
C520 C521 1.502 . S
C520 C522 1.561 . S
C520 C523 1.526 . S
C521 H505 0.959 . S
C521 H506 0.959 . S
C521 H507 0.961 . S
C521 C520 1.502 . S
C522 H508 0.960 . S
C522 H509 0.961 . S
C522 H510 0.959 . S
C522 C520 1.561 . S
C523 C520 1.526 . S
C523 C524 1.396 . S
C523 C528 1.390 . S
C524 C518 1.465 . S
C524 C523 1.396 . S
C524 C525 1.399 . S
C525 H511 0.929 . S
C525 C524 1.399 . S
C525 C526 1.385 . S
C526 H512 0.931 . S
C526 C525 1.385 . S
C526 C527 1.389 . S
C527 C526 1.389 . S
C527 C528 1.387 . S
C528 H513 0.930 . S
C528 C523 1.390 . S
C528 C527 1.387 . S
H529 C541 0.930 . S
H530 C543 0.930 . S
H531 C544 0.930 . S
H532 C548 0.959 . S
H533 C548 0.959 . S
H534 C548 0.961 . S
H535 C549 0.960 . S
H536 C549 0.961 . S
H537 C549 0.959 . S
H538 C552 0.929 . S
H539 C553 0.931 . S
H540 C555 0.930 . S
C541 H529 0.930 . S
C541 C542 1.399 . S
C541 C546 1.399 . S
C542 C541 1.399 . S
C542 C543 1.376 . S
C543 H530 0.930 . S
C543 C542 1.376 . S
C543 C544 1.388 . S
C544 H531 0.930 . S
C544 C543 1.388 . S
C544 C545 1.390 . S
C545 C544 1.390 . S
C545 C546 1.394 . S
C545 C551 1.465 . S
C546 C541 1.399 . S
C546 C545 1.394 . S
C546 C547 1.516 . S
C547 C546 1.516 . S
C547 C548 1.502 . S
C547 C549 1.561 . S
C547 C550 1.526 . S
C548 H532 0.959 . S
C548 H533 0.959 . S
C548 H534 0.961 . S
C548 C547 1.502 . S
C549 H535 0.960 . S
C549 H536 0.961 . S
C549 H537 0.959 . S
C549 C547 1.561 . S
C550 C547 1.526 . S
C550 C551 1.396 . S
C550 C555 1.390 . S
C551 C545 1.465 . S
C551 C550 1.396 . S
C551 C552 1.399 . S
C552 H538 0.929 . S
C552 C551 1.399 . S
C552 C553 1.385 . S
C553 H539 0.931 . S
C553 C552 1.385 . S
C553 C554 1.389 . S
C554 C553 1.389 . S
C554 C555 1.387 . S
C555 H540 0.930 . S
C555 C550 1.390 . S
C555 C554 1.387 . S
H556 C568 0.930 . S
H557 C570 0.930 . S
H558 C571 0.930 . S
H559 C575 0.959 . S
H560 C575 0.959 . S
H561 C575 0.961 . S
H562 C576 0.960 . S
H563 C576 0.961 . S
H564 C576 0.959 . S
H565 C579 0.929 . S
H566 C580 0.931 . S
H567 C582 0.930 . S
C568 H556 0.930 . S
C568 C569 1.399 . S
C568 C573 1.399 . S
C569 C568 1.399 . S
C569 C570 1.376 . S
C570 H557 0.930 . S
C570 C569 1.376 . S
C570 C571 1.388 . S
C571 H558 0.930 . S
C571 C570 1.388 . S
C571 C572 1.390 . S
C572 C571 1.390 . S
C572 C573 1.394 . S
C572 C578 1.465 . S
C573 C568 1.399 . S
C573 C572 1.394 . S
C573 C574 1.516 . S
C574 C573 1.516 . S
C574 C575 1.502 . S
C574 C576 1.561 . S
C574 C577 1.526 . S
C575 H559 0.959 . S
C575 H560 0.959 . S
C575 H561 0.961 . S
C575 C574 1.502 . S
C576 H562 0.960 . S
C576 H563 0.961 . S
C576 H564 0.959 . S
C576 C574 1.561 . S
C577 C574 1.526 . S
C577 C578 1.396 . S
C577 C582 1.390 . S
C578 C572 1.465 . S
C578 C577 1.396 . S
C578 C579 1.399 . S
C579 H565 0.929 . S
C579 C578 1.399 . S
C579 C580 1.385 . S
C580 H566 0.931 . S
C580 C579 1.385 . S
C580 C581 1.389 . S
C581 C580 1.389 . S
C581 C582 1.387 . S
C582 H567 0.930 . S
C582 C577 1.390 . S
C582 C581 1.387 . S
H583 C595 0.930 . S
H584 C597 0.930 . S
H585 C598 0.930 . S
H586 C602 0.959 . S
H587 C602 0.959 . S
H588 C602 0.961 . S
H589 C603 0.960 . S
H590 C603 0.961 . S
H591 C603 0.959 . S
H592 C606 0.929 . S
H593 C607 0.931 . S
H594 C609 0.930 . S
C595 H583 0.930 . S
C595 C596 1.399 . S
C595 C600 1.399 . S
C596 C595 1.399 . S
C596 C597 1.376 . S
C597 H584 0.930 . S
C597 C596 1.376 . S
C597 C598 1.388 . S
C598 H585 0.930 . S
C598 C597 1.388 . S
C598 C599 1.390 . S
C599 C598 1.390 . S
C599 C600 1.394 . S
C599 C605 1.465 . S
C600 C595 1.399 . S
C600 C599 1.394 . S
C600 C601 1.516 . S
C601 C600 1.516 . S
C601 C602 1.502 . S
C601 C603 1.561 . S
C601 C604 1.526 . S
C602 H586 0.959 . S
C602 H587 0.959 . S
C602 H588 0.961 . S
C602 C601 1.502 . S
C603 H589 0.960 . S
C603 H590 0.961 . S
C603 H591 0.959 . S
C603 C601 1.561 . S
C604 C601 1.526 . S
C604 C605 1.396 . S
C604 C609 1.390 . S
C605 C599 1.465 . S
C605 C604 1.396 . S
C605 C606 1.399 1_556 S
C606 H592 0.929 . S
C606 C605 1.399 1_554 S
C606 C607 1.385 . S
C607 H593 0.931 . S
C607 C606 1.385 . S
C607 C608 1.389 . S
C608 C607 1.389 . S
C608 C609 1.387 1_554 S
C609 H594 0.930 . S
C609 C604 1.390 . S
C609 C608 1.387 1_556 S
H610 C622 0.930 . S
H611 C624 0.930 . S
H612 C625 0.930 . S
H613 C629 0.959 . S
H614 C629 0.959 . S
H615 C629 0.961 . S
H616 C630 0.960 . S
H617 C630 0.961 . S
H618 C630 0.959 . S
H619 C633 0.929 . S
H620 C634 0.931 . S
H621 C636 0.930 . S
C622 H610 0.930 . S
C622 C623 1.399 . S
C622 C627 1.399 . S
C623 C622 1.399 . S
C623 C624 1.376 . S
C624 H611 0.930 . S
C624 C623 1.376 . S
C624 C625 1.388 . S
C625 H612 0.930 . S
C625 C624 1.388 . S
C625 C626 1.390 . S
C626 C625 1.390 . S
C626 C627 1.394 . S
C626 C632 1.465 . S
C627 C622 1.399 . S
C627 C626 1.394 . S
C627 C628 1.516 . S
C628 C627 1.516 . S
C628 C629 1.502 . S
C628 C630 1.561 . S
C628 C631 1.526 . S
C629 H613 0.959 . S
C629 H614 0.959 . S
C629 H615 0.961 . S
C629 C628 1.502 . S
C630 H616 0.960 . S
C630 H617 0.961 . S
C630 H618 0.959 . S
C630 C628 1.561 . S
C631 C628 1.526 . S
C631 C632 1.396 . S
C631 C636 1.390 . S
C632 C626 1.465 . S
C632 C631 1.396 . S
C632 C633 1.399 . S
C633 H619 0.929 . S
C633 C632 1.399 . S
C633 C634 1.385 . S
C634 H620 0.931 . S
C634 C633 1.385 . S
C634 C635 1.389 . S
C635 C634 1.389 . S
C635 C636 1.387 . S
C636 H621 0.930 . S
C636 C631 1.390 . S
C636 C635 1.387 . S
H637 C649 0.930 . S
H638 C651 0.930 . S
H639 C652 0.930 . S
H640 C656 0.959 . S
H641 C656 0.959 . S
H642 C656 0.961 . S
H643 C657 0.960 . S
H644 C657 0.961 . S
H645 C657 0.959 . S
H646 C660 0.929 . S
H647 C661 0.931 . S
H648 C663 0.930 . S
C649 H637 0.930 . S
C649 C650 1.399 . S
C649 C654 1.399 . S
C650 C649 1.399 . S
C650 C651 1.376 . S
C651 H638 0.930 . S
C651 C650 1.376 . S
C651 C652 1.388 . S
C652 H639 0.930 . S
C652 C651 1.388 . S
C652 C653 1.390 . S
C653 C652 1.390 . S
C653 C654 1.394 . S
C653 C659 1.465 . S
C654 C649 1.399 . S
C654 C653 1.394 . S
C654 C655 1.516 . S
C655 C654 1.516 . S
C655 C656 1.502 . S
C655 C657 1.561 . S
C655 C658 1.526 . S
C656 H640 0.959 . S
C656 H641 0.959 . S
C656 H642 0.961 . S
C656 C655 1.502 . S
C657 H643 0.960 . S
C657 H644 0.961 . S
C657 H645 0.959 . S
C657 C655 1.561 . S
C658 C655 1.526 . S
C658 C659 1.396 . S
C658 C663 1.390 . S
C659 C653 1.465 . S
C659 C658 1.396 . S
C659 C660 1.399 . S
C660 H646 0.929 . S
C660 C659 1.399 . S
C660 C661 1.385 . S
C661 H647 0.931 . S
C661 C660 1.385 . S
C661 C662 1.389 . S
C662 C661 1.389 . S
C662 C663 1.387 . S
C663 H648 0.930 . S
C663 C658 1.390 . S
C663 C662 1.387 . S
H664 C676 0.930 . S
H665 C678 0.930 . S
H666 C679 0.930 . S
H667 C683 0.959 . S
H668 C683 0.959 . S
H669 C683 0.961 . S
H670 C684 0.960 . S
H671 C684 0.961 . S
H672 C684 0.959 . S
H673 C687 0.929 . S
H674 C688 0.931 . S
H675 C690 0.930 . S
C676 H664 0.930 . S
C676 C677 1.399 . S
C676 C681 1.399 . S
C677 C676 1.399 . S
C677 C678 1.376 . S
C678 H665 0.930 . S
C678 C677 1.376 . S
C678 C679 1.388 . S
C679 H666 0.930 . S
C679 C678 1.388 . S
C679 C680 1.390 . S
C680 C679 1.390 . S
C680 C681 1.394 . S
C680 C686 1.465 . S
C681 C676 1.399 . S
C681 C680 1.394 . S
C681 C682 1.516 . S
C682 C681 1.516 . S
C682 C683 1.502 . S
C682 C684 1.561 . S
C682 C685 1.526 . S
C683 H667 0.959 . S
C683 H668 0.959 . S
C683 H669 0.961 . S
C683 C682 1.502 . S
C684 H670 0.960 . S
C684 H671 0.961 . S
C684 H672 0.959 . S
C684 C682 1.561 . S
C685 C682 1.526 . S
C685 C686 1.396 . S
C685 C690 1.390 . S
C686 C680 1.465 . S
C686 C685 1.396 . S
C686 C687 1.399 . S
C687 H673 0.929 . S
C687 C686 1.399 . S
C687 C688 1.385 . S
C688 H674 0.931 . S
C688 C687 1.385 . S
C688 C689 1.389 . S
C689 C688 1.389 . S
C689 C690 1.387 . S
C690 H675 0.930 . S
C690 C685 1.390 . S
C690 C689 1.387 . S
H691 C703 0.930 . S
H692 C705 0.930 . S
H693 C706 0.930 . S
H694 C710 0.959 . S
H695 C710 0.959 . S
H696 C710 0.961 . S
H697 C711 0.960 . S
H698 C711 0.961 . S
H699 C711 0.959 . S
H700 C714 0.929 . S
H701 C715 0.931 . S
H702 C717 0.930 . S
C703 H691 0.930 . S
C703 C704 1.399 . S
C703 C708 1.399 . S
C704 C703 1.399 . S
C704 C705 1.376 . S
C705 H692 0.930 . S
C705 C704 1.376 . S
C705 C706 1.388 . S
C706 H693 0.930 . S
C706 C705 1.388 . S
C706 C707 1.390 . S
C707 C706 1.390 . S
C707 C708 1.394 . S
C707 C713 1.465 . S
C708 C703 1.399 . S
C708 C707 1.394 . S
C708 C709 1.516 . S
C709 C708 1.516 . S
C709 C710 1.502 . S
C709 C711 1.561 . S
C709 C712 1.526 . S
C710 H694 0.959 . S
C710 H695 0.959 . S
C710 H696 0.961 . S
C710 C709 1.502 . S
C711 H697 0.960 . S
C711 H698 0.961 . S
C711 H699 0.959 . S
C711 C709 1.561 . S
C712 C709 1.526 . S
C712 C713 1.396 . S
C712 C717 1.390 . S
C713 C707 1.465 . S
C713 C712 1.396 . S
C713 C714 1.399 . S
C714 H700 0.929 . S
C714 C713 1.399 . S
C714 C715 1.385 . S
C715 H701 0.931 . S
C715 C714 1.385 . S
C715 C716 1.389 . S
C716 C715 1.389 . S
C716 C717 1.387 . S
C717 H702 0.930 . S
C717 C712 1.390 . S
C717 C716 1.387 . S
H718 C730 0.930 . S
H719 C732 0.930 . S
H720 C733 0.930 1_554 S
H721 C737 0.959 . S
H722 C737 0.959 . S
H723 C737 0.961 . S
H724 C738 0.960 . S
H725 C738 0.961 . S
H726 C738 0.959 . S
H727 C741 0.929 . S
H728 C742 0.931 . S
H729 C744 0.930 . S
C730 H718 0.930 . S
C730 C731 1.399 . S
C730 C735 1.399 . S
C731 C730 1.399 . S
C731 C732 1.376 . S
C732 H719 0.930 . S
C732 C731 1.376 . S
C732 C733 1.388 . S
C733 H720 0.930 1_556 S
C733 C732 1.388 . S
C733 C734 1.390 . S
C734 C733 1.390 . S
C734 C735 1.394 . S
C734 C740 1.465 . S
C735 C730 1.399 . S
C735 C734 1.394 . S
C735 C736 1.516 . S
C736 C735 1.516 . S
C736 C737 1.502 . S
C736 C738 1.561 . S
C736 C739 1.526 . S
C737 H721 0.959 . S
C737 H722 0.959 . S
C737 H723 0.961 . S
C737 C736 1.502 . S
C738 H724 0.960 . S
C738 H725 0.961 . S
C738 H726 0.959 . S
C738 C736 1.561 . S
C739 C736 1.526 . S
C739 C740 1.396 . S
C739 C744 1.390 . S
C740 C734 1.465 . S
C740 C739 1.396 . S
C740 C741 1.399 1_556 S
C741 H727 0.929 . S
C741 C740 1.399 1_554 S
C741 C742 1.385 . S
C742 H728 0.931 . S
C742 C741 1.385 . S
C742 C743 1.389 . S
C743 C742 1.389 . S
C743 C744 1.387 1_554 S
C744 H729 0.930 . S
C744 C739 1.390 . S
C744 C743 1.387 1_556 S
H745 C757 0.930 . S
H746 C759 0.930 . S
H747 C760 0.930 . S
H748 C764 0.959 . S
H749 C764 0.959 . S
H750 C764 0.961 . S
H751 C765 0.960 . S
H752 C765 0.961 . S
H753 C765 0.959 . S
H754 C768 0.929 . S
H755 C769 0.931 . S
H756 C771 0.930 . S
C757 H745 0.930 . S
C757 C758 1.399 . S
C757 C762 1.399 . S
C758 C757 1.399 . S
C758 C759 1.376 . S
C759 H746 0.930 . S
C759 C758 1.376 . S
C759 C760 1.388 . S
C760 H747 0.930 . S
C760 C759 1.388 . S
C760 C761 1.390 . S
C761 C760 1.390 . S
C761 C762 1.394 . S
C761 C767 1.465 . S
C762 C757 1.399 . S
C762 C761 1.394 . S
C762 C763 1.516 . S
C763 C762 1.516 . S
C763 C764 1.502 . S
C763 C765 1.561 . S
C763 C766 1.526 . S
C764 H748 0.959 . S
C764 H749 0.959 . S
C764 H750 0.961 . S
C764 C763 1.502 . S
C765 H751 0.960 . S
C765 H752 0.961 . S
C765 H753 0.959 . S
C765 C763 1.561 . S
C766 C763 1.526 . S
C766 C767 1.396 . S
C766 C771 1.390 . S
C767 C761 1.465 . S
C767 C766 1.396 . S
C767 C768 1.399 . S
C768 H754 0.929 . S
C768 C767 1.399 . S
C768 C769 1.385 . S
C769 H755 0.931 . S
C769 C768 1.385 . S
C769 C770 1.389 . S
C770 C769 1.389 . S
C770 C771 1.387 . S
C771 H756 0.930 . S
C771 C766 1.390 . S
C771 C770 1.387 . S
H772 C784 0.930 . S
H773 C786 0.930 . S
H774 C787 0.930 . S
H775 C791 0.959 . S
H776 C791 0.959 . S
H777 C791 0.961 . S
H778 C792 0.960 . S
H779 C792 0.961 . S
H780 C792 0.959 . S
H781 C795 0.929 . S
H782 C796 0.931 . S
H783 C798 0.930 . S
C784 H772 0.930 . S
C784 C785 1.399 . S
C784 C789 1.399 . S
C785 C784 1.399 . S
C785 C786 1.376 . S
C786 H773 0.930 . S
C786 C785 1.376 . S
C786 C787 1.388 . S
C787 H774 0.930 . S
C787 C786 1.388 . S
C787 C788 1.390 . S
C788 C787 1.390 . S
C788 C789 1.394 . S
C788 C794 1.465 . S
C789 C784 1.399 . S
C789 C788 1.394 . S
C789 C790 1.516 . S
C790 C789 1.516 . S
C790 C791 1.502 . S
C790 C792 1.561 . S
C790 C793 1.526 . S
C791 H775 0.959 . S
C791 H776 0.959 . S
C791 H777 0.961 . S
C791 C790 1.502 . S
C792 H778 0.960 . S
C792 H779 0.961 . S
C792 H780 0.959 . S
C792 C790 1.561 . S
C793 C790 1.526 . S
C793 C794 1.396 . S
C793 C798 1.390 . S
C794 C788 1.465 . S
C794 C793 1.396 . S
C794 C795 1.399 . S
C795 H781 0.929 . S
C795 C794 1.399 . S
C795 C796 1.385 . S
C796 H782 0.931 . S
C796 C795 1.385 . S
C796 C797 1.389 . S
C797 C796 1.389 . S
C797 C798 1.387 . S
C798 H783 0.930 . S
C798 C793 1.390 . S
C798 C797 1.387 . S
H799 C811 0.930 . S
H800 C813 0.930 . S
H801 C814 0.930 . S
H802 C818 0.959 . S
H803 C818 0.959 . S
H804 C818 0.961 . S
H805 C819 0.960 . S
H806 C819 0.961 . S
H807 C819 0.959 . S
H808 C822 0.929 . S
H809 C823 0.931 . S
H810 C825 0.930 . S
C811 H799 0.930 . S
C811 C812 1.399 . S
C811 C816 1.399 . S
C812 C811 1.399 . S
C812 C813 1.376 . S
C813 H800 0.930 . S
C813 C812 1.376 . S
C813 C814 1.388 . S
C814 H801 0.930 . S
C814 C813 1.388 . S
C814 C815 1.390 . S
C815 C814 1.390 . S
C815 C816 1.394 . S
C815 C821 1.465 . S
C816 C811 1.399 . S
C816 C815 1.394 . S
C816 C817 1.516 . S
C817 C816 1.516 . S
C817 C818 1.502 . S
C817 C819 1.561 . S
C817 C820 1.526 . S
C818 H802 0.959 . S
C818 H803 0.959 . S
C818 H804 0.961 . S
C818 C817 1.502 . S
C819 H805 0.960 . S
C819 H806 0.961 . S
C819 H807 0.959 . S
C819 C817 1.561 . S
C820 C817 1.526 . S
C820 C821 1.396 . S
C820 C825 1.390 . S
C821 C815 1.465 . S
C821 C820 1.396 . S
C821 C822 1.399 . S
C822 H808 0.929 . S
C822 C821 1.399 . S
C822 C823 1.385 . S
C823 H809 0.931 . S
C823 C822 1.385 . S
C823 C824 1.389 . S
C824 C823 1.389 . S
C824 C825 1.387 . S
C825 H810 0.930 . S
C825 C820 1.390 . S
C825 C824 1.387 . S
H826 C838 0.930 . S
H827 C840 0.930 . S
H828 C841 0.930 . S
H829 C845 0.959 . S
H830 C845 0.959 . S
H831 C845 0.961 . S
H832 C846 0.960 . S
H833 C846 0.961 . S
H834 C846 0.959 . S
H835 C849 0.929 . S
H836 C850 0.931 . S
H837 C852 0.930 . S
C838 H826 0.930 . S
C838 C839 1.399 . S
C838 C843 1.399 . S
C839 C838 1.399 . S
C839 C840 1.376 . S
C840 H827 0.930 . S
C840 C839 1.376 . S
C840 C841 1.388 . S
C841 H828 0.930 . S
C841 C840 1.388 . S
C841 C842 1.390 . S
C842 C841 1.390 . S
C842 C843 1.394 . S
C842 C848 1.465 . S
C843 C838 1.399 . S
C843 C842 1.394 . S
C843 C844 1.516 . S
C844 C843 1.516 . S
C844 C845 1.502 . S
C844 C846 1.561 . S
C844 C847 1.526 . S
C845 H829 0.959 . S
C845 H830 0.959 . S
C845 H831 0.961 . S
C845 C844 1.502 . S
C846 H832 0.960 . S
C846 H833 0.961 . S
C846 H834 0.959 . S
C846 C844 1.561 . S
C847 C844 1.526 . S
C847 C848 1.396 . S
C847 C852 1.390 . S
C848 C842 1.465 . S
C848 C847 1.396 . S
C848 C849 1.399 . S
C849 H835 0.929 . S
C849 C848 1.399 . S
C849 C850 1.385 . S
C850 H836 0.931 . S
C850 C849 1.385 . S
C850 C851 1.389 . S
C851 C850 1.389 . S
C851 C852 1.387 . S
C852 H837 0.930 . S
C852 C847 1.390 . S
C852 C851 1.387 . S
H853 C865 0.930 . S
H854 C867 0.930 . S
H855 C868 0.930 1_554 S
H856 C872 0.959 . S
H857 C872 0.959 . S
H858 C872 0.961 . S
H859 C873 0.960 . S
H860 C873 0.961 . S
H861 C873 0.959 . S
H862 C876 0.929 . S
H863 C877 0.931 . S
H864 C879 0.930 . S
C865 H853 0.930 . S
C865 C866 1.399 . S
C865 C870 1.399 . S
C866 C865 1.399 . S
C866 C867 1.376 . S
C867 H854 0.930 . S
C867 C866 1.376 . S
C867 C868 1.388 . S
C868 H855 0.930 1_556 S
C868 C867 1.388 . S
C868 C869 1.390 . S
C869 C868 1.390 . S
C869 C870 1.394 . S
C869 C875 1.465 . S
C870 C865 1.399 . S
C870 C869 1.394 . S
C870 C871 1.516 . S
C871 C870 1.516 . S
C871 C872 1.502 . S
C871 C873 1.561 . S
C871 C874 1.526 . S
C872 H856 0.959 . S
C872 H857 0.959 . S
C872 H858 0.961 . S
C872 C871 1.502 . S
C873 H859 0.960 . S
C873 H860 0.961 . S
C873 H861 0.959 . S
C873 C871 1.561 . S
C874 C871 1.526 . S
C874 C875 1.396 . S
C874 C879 1.390 . S
C875 C869 1.465 . S
C875 C874 1.396 . S
C875 C876 1.399 1_556 S
C876 H862 0.929 . S
C876 C875 1.399 1_554 S
C876 C877 1.385 . S
C877 H863 0.931 . S
C877 C876 1.385 . S
C877 C878 1.389 . S
C878 C877 1.389 . S
C878 C879 1.387 1_554 S
C879 H864 0.930 . S
C879 C874 1.390 . S
C879 C878 1.387 1_556 S
H880 C892 0.930 . S
H881 C894 0.930 . S
H882 C895 0.930 . S
H883 C899 0.959 . S
H884 C899 0.959 . S
H885 C899 0.961 . S
H886 C900 0.960 . S
H887 C900 0.961 . S
H888 C900 0.959 . S
H889 C903 0.929 . S
H890 C904 0.931 . S
H891 C906 0.930 . S
C892 H880 0.930 . S
C892 C893 1.399 . S
C892 C897 1.399 . S
C893 C892 1.399 . S
C893 C894 1.376 . S
C894 H881 0.930 . S
C894 C893 1.376 . S
C894 C895 1.388 . S
C895 H882 0.930 . S
C895 C894 1.388 . S
C895 C896 1.390 . S
C896 C895 1.390 . S
C896 C897 1.394 . S
C896 C902 1.465 . S
C897 C892 1.399 . S
C897 C896 1.394 . S
C897 C898 1.516 . S
C898 C897 1.516 . S
C898 C899 1.502 . S
C898 C900 1.561 . S
C898 C901 1.526 . S
C899 H883 0.959 . S
C899 H884 0.959 . S
C899 H885 0.961 . S
C899 C898 1.502 . S
C900 H886 0.960 . S
C900 H887 0.961 . S
C900 H888 0.959 . S
C900 C898 1.561 . S
C901 C898 1.526 . S
C901 C902 1.396 . S
C901 C906 1.390 . S
C902 C896 1.465 . S
C902 C901 1.396 . S
C902 C903 1.399 . S
C903 H889 0.929 . S
C903 C902 1.399 . S
C903 C904 1.385 . S
C904 H890 0.931 . S
C904 C903 1.385 . S
C904 C905 1.389 . S
C905 C904 1.389 . S
C905 C906 1.387 . S
C906 H891 0.930 . S
C906 C901 1.390 . S
C906 C905 1.387 . S
H907 C919 0.930 . S
H908 C921 0.930 . S
H909 C922 0.930 . S
H910 C926 0.959 . S
H911 C926 0.959 . S
H912 C926 0.961 . S
H913 C927 0.960 . S
H914 C927 0.961 . S
H915 C927 0.959 . S
H916 C930 0.929 . S
H917 C931 0.931 . S
H918 C933 0.971 . S
C919 H907 0.930 . S
C919 C920 1.399 . S
C919 C924 1.399 . S
C920 C919 1.399 . S
C920 C921 1.376 1_565 S
C921 H908 0.930 . S
C921 C920 1.376 1_545 S
C921 C922 1.388 . S
C922 H909 0.930 . S
C922 C921 1.388 . S
C922 C923 1.390 . S
C923 C922 1.390 . S
C923 C924 1.394 1_545 S
C923 C929 1.465 . S
C924 C919 1.399 . S
C924 C923 1.394 1_565 S
C924 C925 1.516 . S
C925 C924 1.516 . S
C925 C926 1.502 . S
C925 C927 1.561 . S
C925 C928 1.526 1_565 S
C926 H910 0.959 . S
C926 H911 0.959 . S
C926 H912 0.961 . S
C926 C925 1.502 . S
C927 H913 0.960 . S
C927 H914 0.961 . S
C927 H915 0.959 . S
C927 C925 1.561 . S
C928 C925 1.526 1_545 S
C928 C929 1.396 . S
C928 C933 1.390 1_554 S
C929 C923 1.465 . S
C929 C928 1.396 . S
C929 C930 1.399 . S
C930 H916 0.929 . S
C930 C929 1.399 . S
C930 C931 1.385 1_554 S
C931 H917 0.931 . S
C931 C930 1.385 1_556 S
C931 C932 1.389 . S
C932 C931 1.389 . S
C932 C933 1.387 . S
C933 H918 0.971 . S
C933 C928 1.390 1_556 S
C933 C932 1.387 . S
H934 C946 0.930 . S
H935 C948 0.930 . S
H936 C949 0.930 . S
H937 C953 0.959 . S
H938 C953 0.959 . S
H939 C953 0.961 . S
H940 C954 0.960 . S
H941 C954 0.961 . S
H942 C954 0.959 . S
H943 C957 0.929 . S
H944 C958 0.931 . S
H945 C960 0.930 . S
C946 H934 0.930 . S
C946 C947 1.399 . S
C946 C951 1.399 . S
C947 C946 1.399 . S
C947 C948 1.376 . S
C948 H935 0.930 . S
C948 C947 1.376 . S
C948 C949 1.388 . S
C949 H936 0.930 . S
C949 C948 1.388 . S
C949 C950 1.390 . S
C950 C949 1.390 . S
C950 C951 1.394 . S
C950 C956 1.465 . S
C951 C946 1.399 . S
C951 C950 1.394 . S
C951 C952 1.516 . S
C952 C951 1.516 . S
C952 C953 1.502 . S
C952 C954 1.561 . S
C952 C955 1.526 . S
C953 H937 0.959 . S
C953 H938 0.959 . S
C953 H939 0.961 . S
C953 C952 1.502 . S
C954 H940 0.960 . S
C954 H941 0.961 . S
C954 H942 0.959 . S
C954 C952 1.561 . S
C955 C952 1.526 . S
C955 C956 1.396 . S
C955 C960 1.390 . S
C956 C950 1.465 . S
C956 C955 1.396 . S
C956 C957 1.399 . S
C957 H943 0.929 . S
C957 C956 1.399 . S
C957 C958 1.385 . S
C958 H944 0.931 . S
C958 C957 1.385 . S
C958 C959 1.389 . S
C959 C958 1.389 . S
C959 C960 1.387 . S
C960 H945 0.930 . S
C960 C955 1.390 . S
C960 C959 1.387 . S
H961 C973 0.930 . S
H962 C975 0.930 . S
H963 C976 0.930 . S
H964 C980 0.959 1_545 S
H965 C980 0.959 . S
H966 C980 0.971 . S
H967 C981 0.960 . S
H968 C981 0.961 . S
H969 C981 0.959 . S
H970 C984 0.929 . S
H971 C985 0.931 . S
H972 C987 0.930 . S
C973 H961 0.930 . S
C973 C974 1.399 . S
C973 C978 1.399 . S
C974 C973 1.399 . S
C974 C975 1.376 . S
C975 H962 0.930 . S
C975 C974 1.376 . S
C975 C976 1.388 . S
C976 H963 0.930 . S
C976 C975 1.388 . S
C976 C977 1.390 . S
C977 C976 1.390 . S
C977 C978 1.394 . S
C977 C983 1.465 . S
C978 C973 1.399 . S
C978 C977 1.394 . S
C978 C979 1.516 1_545 S
C979 C978 1.516 1_565 S
C979 C980 1.502 . S
C979 C981 1.561 . S
C979 C982 1.526 . S
C980 H964 0.959 1_565 S
C980 H965 0.959 . S
C980 H966 0.971 . S
C980 C979 1.502 . S
C981 H967 0.960 . S
C981 H968 0.961 . S
C981 H969 0.959 . S
C981 C979 1.561 . S
C982 C979 1.526 . S
C982 C983 1.396 1_565 S
C982 C987 1.390 . S
C983 C977 1.465 . S
C983 C982 1.396 1_545 S
C983 C984 1.399 . S
C984 H970 0.929 . S
C984 C983 1.399 . S
C984 C985 1.385 1_545 S
C985 H971 0.931 . S
C985 C984 1.385 1_565 S
C985 C986 1.389 . S
C986 C985 1.389 . S
C986 C987 1.387 . S
C987 H972 0.930 . S
C987 C982 1.390 . S
C987 C986 1.387 . S
H988 C1000 0.930 . S
H989 C1002 0.930 . S
H990 C1003 0.930 . S
H991 C1007 0.959 . S
H992 C1007 0.959 . S
H993 C1007 0.961 . S
H994 C1008 0.960 . S
H995 C1008 0.961 . S
H996 C1008 0.959 . S
H997 C1011 0.929 . S
H998 C1012 0.931 . S
H999 C1014 0.930 . S
C1000 H988 0.930 . S
C1000 C1001 1.399 . S
C1000 C1005 1.399 . S
C1001 C1000 1.399 . S
C1001 C1002 1.376 . S
C1002 H989 0.930 . S
C1002 C1001 1.376 . S
C1002 C1003 1.388 . S
C1003 H990 0.930 . S
C1003 C1002 1.388 . S
C1003 C1004 1.390 . S
C1004 C1003 1.390 . S
C1004 C1005 1.394 . S
C1004 C1010 1.465 . S
C1005 C1000 1.399 . S
C1005 C1004 1.394 . S
C1005 C1006 1.516 . S
C1006 C1005 1.516 . S
C1006 C1007 1.502 . S
C1006 C1008 1.561 . S
C1006 C1009 1.526 . S
C1007 H991 0.959 . S
C1007 H992 0.959 . S
C1007 H993 0.961 . S
C1007 C1006 1.502 . S
C1008 H994 0.960 . S
C1008 H995 0.961 . S
C1008 H996 0.959 . S
C1008 C1006 1.561 . S
C1009 C1006 1.526 . S
C1009 C1010 1.396 . S
C1009 C1014 1.390 . S
C1010 C1004 1.465 . S
C1010 C1009 1.396 . S
C1010 C1011 1.399 . S
C1011 H997 0.929 . S
C1011 C1010 1.399 . S
C1011 C1012 1.385 . S
C1012 H998 0.931 . S
C1012 C1011 1.385 . S
C1012 C1013 1.389 . S
C1013 C1012 1.389 . S
C1013 C1014 1.387 . S
C1014 H999 0.930 . S
C1014 C1009 1.390 . S
C1014 C1013 1.387 . S
H1015 C1027 0.930 . S
H1016 C1029 0.930 . S
H1017 C1030 0.931 . S
H1018 C1034 0.959 . S
H1019 C1034 0.959 . S
H1020 C1034 0.961 . S
H1021 C1035 0.960 . S
H1022 C1035 0.961 . S
H1023 C1035 0.959 . S
H1024 C1038 0.929 . S
H1025 C1039 0.931 . S
H1026 C1041 0.891 1_545 S
C1027 H1015 0.930 . S
C1027 C1028 1.399 1_554 S
C1027 C1032 1.399 . S
C1028 C1027 1.399 1_556 S
C1028 C1029 1.376 . S
C1029 H1016 0.930 . S
C1029 C1028 1.376 . S
C1029 C1030 1.405 1_545 S
C1030 H1017 0.931 . S
C1030 C1029 1.405 1_565 S
C1030 C1031 1.371 1_566 S
C1031 C1030 1.371 1_544 S
C1031 C1032 1.397 . S
C1031 C1037 1.463 1_545 S
C1032 C1027 1.399 . S
C1032 C1031 1.397 . S
C1032 C1033 1.516 . S
C1033 C1032 1.516 . S
C1033 C1034 1.502 . S
C1033 C1035 1.561 . S
C1033 C1036 1.526 . S
C1034 H1018 0.959 . S
C1034 H1019 0.959 . S
C1034 H1020 0.961 . S
C1034 C1033 1.502 . S
C1035 H1021 0.960 . S
C1035 H1022 0.961 . S
C1035 H1023 0.959 . S
C1035 C1033 1.561 . S
C1036 C1033 1.526 . S
C1036 C1037 1.396 1_545 S
C1036 C1041 1.375 1_545 S
C1037 C1031 1.463 1_565 S
C1037 C1036 1.396 1_565 S
C1037 C1038 1.399 . S
C1038 H1024 0.929 . S
C1038 C1037 1.399 . S
C1038 C1039 1.385 . S
C1039 H1025 0.931 . S
C1039 C1038 1.385 . S
C1039 C1040 1.389 . S
C1040 C1039 1.389 . S
C1040 C1041 1.444 . S
C1041 H1026 0.891 1_565 S
C1041 C1036 1.375 1_565 S
C1041 C1040 1.444 . S
H1042 C1054 0.930 . S
H1043 C1056 0.930 . S
H1044 C1057 0.930 . S
H1045 C1061 0.959 . S
H1046 C1061 0.959 . S
H1047 C1061 0.961 . S
H1048 C1062 0.960 . S
H1049 C1062 0.961 . S
H1050 C1062 0.959 . S
H1051 C1065 0.929 . S
H1052 C1066 0.931 . S
H1053 C1068 0.930 . S
C1054 H1042 0.930 . S
C1054 C1055 1.399 . S
C1054 C1059 1.399 . S
C1055 C1054 1.399 . S
C1055 C1056 1.376 . S
C1056 H1043 0.930 . S
C1056 C1055 1.376 . S
C1056 C1057 1.388 . S
C1057 H1044 0.930 . S
C1057 C1056 1.388 . S
C1057 C1058 1.390 . S
C1058 C1057 1.390 . S
C1058 C1059 1.394 . S
C1058 C1064 1.465 . S
C1059 C1054 1.399 . S
C1059 C1058 1.394 . S
C1059 C1060 1.516 . S
C1060 C1059 1.516 . S
C1060 C1061 1.502 . S
C1060 C1062 1.561 . S
C1060 C1063 1.526 . S
C1061 H1045 0.959 . S
C1061 H1046 0.959 . S
C1061 H1047 0.961 . S
C1061 C1060 1.502 . S
C1062 H1048 0.960 . S
C1062 H1049 0.961 . S
C1062 H1050 0.959 . S
C1062 C1060 1.561 . S
C1063 C1060 1.526 . S
C1063 C1064 1.396 . S
C1063 C1068 1.390 . S
C1064 C1058 1.465 . S
C1064 C1063 1.396 . S
C1064 C1065 1.399 . S
C1065 H1051 0.929 . S
C1065 C1064 1.399 . S
C1065 C1066 1.385 . S
C1066 H1052 0.931 . S
C1066 C1065 1.385 . S
C1066 C1067 1.389 . S
C1067 C1066 1.389 . S
C1067 C1068 1.387 . S
C1068 H1053 0.930 . S
C1068 C1063 1.390 . S
C1068 C1067 1.387 . S
H1069 C1081 0.930 1_565 S
H1070 C1083 0.930 . S
H1071 C1084 0.930 . S
H1072 C1088 0.959 . S
H1073 C1088 0.959 . S
H1074 C1088 0.961 . S
H1075 C1089 0.960 . S
H1076 C1089 0.961 . S
H1077 C1089 0.959 . S
H1078 C1092 0.929 . S
H1079 C1093 0.931 . S
H1080 C1095 0.930 . S
C1081 H1069 0.930 1_545 S
C1081 C1082 1.399 . S
C1081 C1086 1.399 . S
C1082 C1081 1.399 . S
C1082 C1083 1.376 . S
C1083 H1070 0.930 . S
C1083 C1082 1.376 . S
C1083 C1084 1.388 . S
C1084 H1071 0.930 . S
C1084 C1083 1.388 . S
C1084 C1085 1.390 . S
C1085 C1084 1.390 . S
C1085 C1086 1.394 . S
C1085 C1091 1.465 . S
C1086 C1081 1.399 . S
C1086 C1085 1.394 . S
C1086 C1087 1.516 1_545 S
C1087 C1086 1.516 1_565 S
C1087 C1088 1.502 . S
C1087 C1089 1.561 . S
C1087 C1090 1.526 . S
C1088 H1072 0.959 . S
C1088 H1073 0.959 . S
C1088 H1074 0.961 . S
C1088 C1087 1.502 . S
C1089 H1075 0.960 . S
C1089 H1076 0.961 . S
C1089 H1077 0.959 . S
C1089 C1087 1.561 . S
C1090 C1087 1.526 . S
C1090 C1091 1.396 1_565 S
C1090 C1095 1.390 . S
C1091 C1085 1.465 . S
C1091 C1090 1.396 1_545 S
C1091 C1092 1.399 . S
C1092 H1078 0.929 . S
C1092 C1091 1.399 . S
C1092 C1093 1.385 . S
C1093 H1079 0.931 . S
C1093 C1092 1.385 . S
C1093 C1094 1.389 1_545 S
C1094 C1093 1.389 1_565 S
C1094 C1095 1.387 . S
C1095 H1080 0.930 . S
C1095 C1090 1.390 . S
C1095 C1094 1.387 . S
H1096 C1108 0.930 . S
H1097 C1110 0.930 . S
H1098 C1111 0.930 . S
H1099 C1115 0.959 . S
H1100 C1115 0.959 . S
H1101 C1115 0.961 . S
H1102 C1116 0.960 . S
H1103 C1116 0.961 . S
H1104 C1116 0.959 . S
H1105 C1119 0.929 . S
H1106 C1120 0.931 . S
H1107 C1122 0.930 . S
C1108 H1096 0.930 . S
C1108 C1109 1.399 . S
C1108 C1113 1.399 . S
C1109 C1108 1.399 . S
C1109 C1110 1.376 . S
C1110 H1097 0.930 . S
C1110 C1109 1.376 . S
C1110 C1111 1.388 . S
C1111 H1098 0.930 . S
C1111 C1110 1.388 . S
C1111 C1112 1.390 . S
C1112 C1111 1.390 . S
C1112 C1113 1.394 . S
C1112 C1118 1.465 . S
C1113 C1108 1.399 . S
C1113 C1112 1.394 . S
C1113 C1114 1.516 . S
C1114 C1113 1.516 . S
C1114 C1115 1.502 . S
C1114 C1116 1.561 . S
C1114 C1117 1.526 . S
C1115 H1099 0.959 . S
C1115 H1100 0.959 . S
C1115 H1101 0.961 . S
C1115 C1114 1.502 . S
C1116 H1102 0.960 . S
C1116 H1103 0.961 . S
C1116 H1104 0.959 . S
C1116 C1114 1.561 . S
C1117 C1114 1.526 . S
C1117 C1118 1.396 . S
C1117 C1122 1.390 . S
C1118 C1112 1.465 . S
C1118 C1117 1.396 . S
C1118 C1119 1.399 . S
C1119 H1105 0.929 . S
C1119 C1118 1.399 . S
C1119 C1120 1.385 . S
C1120 H1106 0.931 . S
C1120 C1119 1.385 . S
C1120 C1121 1.389 . S
C1121 C1120 1.389 . S
C1121 C1122 1.387 . S
C1122 H1107 0.930 . S
C1122 C1117 1.390 . S
C1122 C1121 1.387 . S
H1123 C1135 0.930 . S
H1124 C1137 0.930 . S
H1125 C1138 0.930 . S
H1126 C1142 0.959 . S
H1127 C1142 0.959 . S
H1128 C1142 0.961 . S
H1129 C1143 0.960 . S
H1130 C1143 0.961 . S
H1131 C1143 0.959 . S
H1132 C1146 0.929 . S
H1133 C1147 0.931 . S
H1134 C1149 0.930 . S
C1135 H1123 0.930 . S
C1135 C1136 1.399 . S
C1135 C1140 1.399 . S
C1136 C1135 1.399 . S
C1136 C1137 1.376 . S
C1137 H1124 0.930 . S
C1137 C1136 1.376 . S
C1137 C1138 1.388 . S
C1138 H1125 0.930 . S
C1138 C1137 1.388 . S
C1138 C1139 1.390 . S
C1139 C1138 1.390 . S
C1139 C1140 1.394 . S
C1139 C1145 1.465 . S
C1140 C1135 1.399 . S
C1140 C1139 1.394 . S
C1140 C1141 1.516 . S
C1141 C1140 1.516 . S
C1141 C1142 1.502 . S
C1141 C1143 1.561 . S
C1141 C1144 1.526 . S
C1142 H1126 0.959 . S
C1142 H1127 0.959 . S
C1142 H1128 0.961 . S
C1142 C1141 1.502 . S
C1143 H1129 0.960 . S
C1143 H1130 0.961 . S
C1143 H1131 0.959 . S
C1143 C1141 1.561 . S
C1144 C1141 1.526 . S
C1144 C1145 1.396 . S
C1144 C1149 1.390 . S
C1145 C1139 1.465 . S
C1145 C1144 1.396 . S
C1145 C1146 1.399 . S
C1146 H1132 0.929 . S
C1146 C1145 1.399 . S
C1146 C1147 1.385 . S
C1147 H1133 0.931 . S
C1147 C1146 1.385 . S
C1147 C1148 1.389 . S
C1148 C1147 1.389 . S
C1148 C1149 1.387 . S
C1149 H1134 0.930 . S
C1149 C1144 1.390 . S
C1149 C1148 1.387 . S
H1150 C1162 0.930 . S
H1151 C1164 0.930 . S
H1152 C1165 0.930 . S
H1153 C1169 0.959 . S
H1154 C1169 0.959 . S
H1155 C1169 0.961 . S
H1156 C1170 0.960 . S
H1157 C1170 0.961 . S
H1158 C1170 0.959 . S
H1159 C1173 0.929 . S
H1160 C1174 0.931 . S
H1161 C1176 0.930 . S
C1162 H1150 0.930 . S
C1162 C1163 1.399 . S
C1162 C1167 1.399 . S
C1163 C1162 1.399 . S
C1163 C1164 1.376 . S
C1164 H1151 0.930 . S
C1164 C1163 1.376 . S
C1164 C1165 1.388 . S
C1165 H1152 0.930 . S
C1165 C1164 1.388 . S
C1165 C1166 1.390 . S
C1166 C1165 1.390 . S
C1166 C1167 1.394 . S
C1166 C1172 1.465 . S
C1167 C1162 1.399 . S
C1167 C1166 1.394 . S
C1167 C1168 1.516 . S
C1168 C1167 1.516 . S
C1168 C1169 1.502 . S
C1168 C1170 1.561 . S
C1168 C1171 1.526 . S
C1169 H1153 0.959 . S
C1169 H1154 0.959 . S
C1169 H1155 0.961 . S
C1169 C1168 1.502 . S
C1170 H1156 0.960 . S
C1170 H1157 0.961 . S
C1170 H1158 0.959 . S
C1170 C1168 1.561 . S
C1171 C1168 1.526 . S
C1171 C1172 1.396 . S
C1171 C1176 1.390 . S
C1172 C1166 1.465 . S
C1172 C1171 1.396 . S
C1172 C1173 1.399 . S
C1173 H1159 0.929 . S
C1173 C1172 1.399 . S
C1173 C1174 1.385 . S
C1174 H1160 0.931 . S
C1174 C1173 1.385 . S
C1174 C1175 1.389 . S
C1175 C1174 1.389 . S
C1175 C1176 1.387 . S
C1176 H1161 0.930 . S
C1176 C1171 1.390 . S
C1176 C1175 1.387 . S
H1177 C1189 0.930 . S
H1178 C1191 0.930 . S
H1179 C1192 0.930 . S
H1180 C1196 0.959 . S
H1181 C1196 0.959 . S
H1182 C1196 0.961 . S
H1183 C1197 0.960 . S
H1184 C1197 0.961 . S
H1185 C1197 0.959 . S
H1186 C1200 0.929 . S
H1187 C1201 0.931 . S
H1188 C1203 0.930 . S
C1189 H1177 0.930 . S
C1189 C1190 1.399 . S
C1189 C1194 1.399 . S
C1190 C1189 1.399 . S
C1190 C1191 1.376 . S
C1191 H1178 0.930 . S
C1191 C1190 1.376 . S
C1191 C1192 1.388 . S
C1192 H1179 0.930 . S
C1192 C1191 1.388 . S
C1192 C1193 1.390 . S
C1193 C1192 1.390 . S
C1193 C1194 1.394 . S
C1193 C1199 1.465 . S
C1194 C1189 1.399 . S
C1194 C1193 1.394 . S
C1194 C1195 1.516 . S
C1195 C1194 1.516 . S
C1195 C1196 1.502 . S
C1195 C1197 1.561 . S
C1195 C1198 1.526 . S
C1196 H1180 0.959 . S
C1196 H1181 0.959 . S
C1196 H1182 0.961 . S
C1196 C1195 1.502 . S
C1197 H1183 0.960 . S
C1197 H1184 0.961 . S
C1197 H1185 0.959 . S
C1197 C1195 1.561 . S
C1198 C1195 1.526 . S
C1198 C1199 1.396 . S
C1198 C1203 1.390 1_554 S
C1199 C1193 1.465 . S
C1199 C1198 1.396 . S
C1199 C1200 1.399 . S
C1200 H1186 0.929 . S
C1200 C1199 1.399 . S
C1200 C1201 1.385 1_554 S
C1201 H1187 0.931 . S
C1201 C1200 1.385 1_556 S
C1201 C1202 1.389 . S
C1202 C1201 1.389 . S
C1202 C1203 1.387 . S
C1203 H1188 0.930 . S
C1203 C1198 1.390 1_556 S
C1203 C1202 1.387 . S
H1204 C1216 0.930 . S
H1205 C1218 0.930 . S
H1206 C1219 0.930 . S
H1207 C1223 0.959 . S
H1208 C1223 0.959 . S
H1209 C1223 0.961 . S
H1210 C1224 0.960 . S
H1211 C1224 0.961 . S
H1212 C1224 0.959 . S
H1213 C1227 0.929 . S
H1214 C1228 0.931 . S
H1215 C1230 0.930 . S
C1216 H1204 0.930 . S
C1216 C1217 1.399 . S
C1216 C1221 1.399 . S
C1217 C1216 1.399 . S
C1217 C1218 1.376 . S
C1218 H1205 0.930 . S
C1218 C1217 1.376 . S
C1218 C1219 1.388 . S
C1219 H1206 0.930 . S
C1219 C1218 1.388 . S
C1219 C1220 1.390 . S
C1220 C1219 1.390 . S
C1220 C1221 1.394 . S
C1220 C1226 1.465 . S
C1221 C1216 1.399 . S
C1221 C1220 1.394 . S
C1221 C1222 1.516 . S
C1222 C1221 1.516 . S
C1222 C1223 1.502 . S
C1222 C1224 1.561 . S
C1222 C1225 1.526 . S
C1223 H1207 0.959 . S
C1223 H1208 0.959 . S
C1223 H1209 0.961 . S
C1223 C1222 1.502 . S
C1224 H1210 0.960 . S
C1224 H1211 0.961 . S
C1224 H1212 0.959 . S
C1224 C1222 1.561 . S
C1225 C1222 1.526 . S
C1225 C1226 1.396 . S
C1225 C1230 1.390 . S
C1226 C1220 1.465 . S
C1226 C1225 1.396 . S
C1226 C1227 1.399 . S
C1227 H1213 0.929 . S
C1227 C1226 1.399 . S
C1227 C1228 1.385 . S
C1228 H1214 0.931 . S
C1228 C1227 1.385 . S
C1228 C1229 1.389 . S
C1229 C1228 1.389 . S
C1229 C1230 1.387 . S
C1230 H1215 0.930 . S
C1230 C1225 1.390 . S
C1230 C1229 1.387 . S
H1231 C1243 0.930 . S
H1232 C1245 0.930 . S
H1233 C1246 0.930 . S
H1234 C1250 0.959 . S
H1235 C1250 0.959 . S
H1236 C1250 0.961 . S
H1237 C1251 0.960 . S
H1238 C1251 0.961 . S
H1239 C1251 0.959 . S
H1240 C1254 0.929 . S
H1241 C1255 0.931 . S
H1242 C1257 0.930 . S
C1243 H1231 0.930 . S
C1243 C1244 1.399 . S
C1243 C1248 1.399 . S
C1244 C1243 1.399 . S
C1244 C1245 1.376 . S
C1245 H1232 0.930 . S
C1245 C1244 1.376 . S
C1245 C1246 1.388 . S
C1246 H1233 0.930 . S
C1246 C1245 1.388 . S
C1246 C1247 1.390 . S
C1247 C1246 1.390 . S
C1247 C1248 1.394 . S
C1247 C1253 1.465 . S
C1248 C1243 1.399 . S
C1248 C1247 1.394 . S
C1248 C1249 1.516 . S
C1249 C1248 1.516 . S
C1249 C1250 1.502 . S
C1249 C1251 1.561 . S
C1249 C1252 1.526 . S
C1250 H1234 0.959 . S
C1250 H1235 0.959 . S
C1250 H1236 0.961 . S
C1250 C1249 1.502 . S
C1251 H1237 0.960 . S
C1251 H1238 0.961 . S
C1251 H1239 0.959 . S
C1251 C1249 1.561 . S
C1252 C1249 1.526 . S
C1252 C1253 1.396 . S
C1252 C1257 1.390 . S
C1253 C1247 1.465 . S
C1253 C1252 1.396 . S
C1253 C1254 1.399 . S
C1254 H1240 0.929 . S
C1254 C1253 1.399 . S
C1254 C1255 1.385 . S
C1255 H1241 0.931 . S
C1255 C1254 1.385 . S
C1255 C1256 1.389 . S
C1256 C1255 1.389 . S
C1256 C1257 1.387 . S
C1257 H1242 0.930 . S
C1257 C1252 1.390 . S
C1257 C1256 1.387 . S
H1258 C1270 0.930 . S
H1259 C1272 0.930 . S
H1260 C1273 0.930 . S
H1261 C1277 0.959 . S
H1262 C1277 0.959 . S
H1263 C1277 0.961 . S
H1264 C1278 0.960 . S
H1265 C1278 0.961 . S
H1266 C1278 0.959 . S
H1267 C1281 0.929 . S
H1268 C1282 0.931 . S
H1269 C1284 0.930 . S
C1270 H1258 0.930 . S
C1270 C1271 1.399 . S
C1270 C1275 1.399 . S
C1271 C1270 1.399 . S
C1271 C1272 1.376 . S
C1272 H1259 0.930 . S
C1272 C1271 1.376 . S
C1272 C1273 1.388 . S
C1273 H1260 0.930 . S
C1273 C1272 1.388 . S
C1273 C1274 1.390 . S
C1274 C1273 1.390 . S
C1274 C1275 1.394 . S
C1274 C1280 1.465 . S
C1275 C1270 1.399 . S
C1275 C1274 1.394 . S
C1275 C1276 1.516 . S
C1276 C1275 1.516 . S
C1276 C1277 1.502 . S
C1276 C1278 1.561 . S
C1276 C1279 1.526 . S
C1277 H1261 0.959 . S
C1277 H1262 0.959 . S
C1277 H1263 0.961 . S
C1277 C1276 1.502 . S
C1278 H1264 0.960 . S
C1278 H1265 0.961 . S
C1278 H1266 0.959 . S
C1278 C1276 1.561 . S
C1279 C1276 1.526 . S
C1279 C1280 1.396 . S
C1279 C1284 1.390 . S
C1280 C1274 1.465 . S
C1280 C1279 1.396 . S
C1280 C1281 1.399 . S
C1281 H1267 0.929 . S
C1281 C1280 1.399 . S
C1281 C1282 1.385 . S
C1282 H1268 0.931 . S
C1282 C1281 1.385 . S
C1282 C1283 1.389 . S
C1283 C1282 1.389 . S
C1283 C1284 1.387 . S
C1284 H1269 0.930 . S
C1284 C1279 1.390 . S
C1284 C1283 1.387 . S
H1285 C1297 0.930 . S
H1286 C1299 0.930 . S
H1287 C1300 0.930 . S
H1288 C1304 0.959 . S
H1289 C1304 0.959 . S
H1290 C1304 0.961 . S
H1291 C1305 0.960 . S
H1292 C1305 0.961 . S
H1293 C1305 0.959 . S
H1294 C1308 0.929 . S
H1295 C1309 0.931 . S
H1296 C1311 0.930 . S
C1297 H1285 0.930 . S
C1297 C1298 1.399 . S
C1297 C1302 1.399 . S
C1298 C1297 1.399 . S
C1298 C1299 1.376 . S
C1299 H1286 0.930 . S
C1299 C1298 1.376 . S
C1299 C1300 1.388 . S
C1300 H1287 0.930 . S
C1300 C1299 1.388 . S
C1300 C1301 1.390 . S
C1301 C1300 1.390 . S
C1301 C1302 1.394 . S
C1301 C1307 1.465 . S
C1302 C1297 1.399 . S
C1302 C1301 1.394 . S
C1302 C1303 1.516 . S
C1303 C1302 1.516 . S
C1303 C1304 1.502 . S
C1303 C1305 1.561 . S
C1303 C1306 1.526 . S
C1304 H1288 0.959 . S
C1304 H1289 0.959 . S
C1304 H1290 0.961 . S
C1304 C1303 1.502 . S
C1305 H1291 0.960 . S
C1305 H1292 0.961 . S
C1305 H1293 0.959 . S
C1305 C1303 1.561 . S
C1306 C1303 1.526 . S
C1306 C1307 1.396 . S
C1306 C1311 1.390 1_554 S
C1307 C1301 1.465 . S
C1307 C1306 1.396 . S
C1307 C1308 1.399 . S
C1308 H1294 0.929 . S
C1308 C1307 1.399 . S
C1308 C1309 1.385 1_554 S
C1309 H1295 0.931 . S
C1309 C1308 1.385 1_556 S
C1309 C1310 1.389 . S
C1310 C1309 1.389 . S
C1310 C1311 1.387 . S
C1311 H1296 0.930 . S
C1311 C1306 1.390 1_556 S
C1311 C1310 1.387 . S
H1312 C1324 0.930 . S
H1313 C1326 0.930 . S
H1314 C1327 0.930 . S
H1315 C1331 0.959 1_554 S
H1316 C1331 0.959 . S
H1317 C1331 0.961 . S
H1318 C1332 0.960 . S
H1319 C1332 0.961 . S
H1320 C1332 0.959 . S
H1321 C1335 0.929 . S
H1322 C1336 0.931 . S
H1323 C1338 0.930 . S
C1324 H1312 0.930 . S
C1324 C1325 1.399 . S
C1324 C1329 1.399 . S
C1325 C1324 1.399 . S
C1325 C1326 1.376 . S
C1326 H1313 0.930 . S
C1326 C1325 1.376 . S
C1326 C1327 1.388 . S
C1327 H1314 0.930 . S
C1327 C1326 1.388 . S
C1327 C1328 1.390 . S
C1328 C1327 1.390 . S
C1328 C1329 1.394 . S
C1328 C1334 1.465 . S
C1329 C1324 1.399 . S
C1329 C1328 1.394 . S
C1329 C1330 1.516 . S
C1330 C1329 1.516 . S
C1330 C1331 1.502 1_554 S
C1330 C1332 1.561 1_554 S
C1330 C1333 1.526 . S
C1331 H1315 0.959 1_556 S
C1331 H1316 0.959 . S
C1331 H1317 0.961 . S
C1331 C1330 1.502 1_556 S
C1332 H1318 0.960 . S
C1332 H1319 0.961 . S
C1332 H1320 0.959 . S
C1332 C1330 1.561 1_556 S
C1333 C1330 1.526 . S
C1333 C1334 1.396 . S
C1333 C1338 1.390 . S
C1334 C1328 1.465 . S
C1334 C1333 1.396 . S
C1334 C1335 1.399 . S
C1335 H1321 0.929 . S
C1335 C1334 1.399 . S
C1335 C1336 1.385 . S
C1336 H1322 0.931 . S
C1336 C1335 1.385 . S
C1336 C1337 1.389 . S
C1337 C1336 1.389 . S
C1337 C1338 1.387 . S
C1338 H1323 0.930 . S
C1338 C1333 1.390 . S
C1338 C1337 1.387 . S
H1339 C1351 0.930 . S
H1340 C1353 0.930 . S
H1341 C1354 0.930 . S
H1342 C1358 0.962 . S
H1343 C1358 0.977 . S
H1344 C1358 0.942 1_455 S
H1345 C1359 0.960 1_455 S
H1346 C1359 0.961 . S
H1347 C1359 0.959 . S
H1348 C1362 0.929 . S
H1349 C1363 0.931 . S
H1350 C1365 0.930 . S
C1351 H1339 0.930 . S
C1351 C1352 1.399 . S
C1351 C1356 1.399 . S
C1352 C1351 1.399 . S
C1352 C1353 1.376 . S
C1353 H1340 0.930 . S
C1353 C1352 1.376 . S
C1353 C1354 1.388 . S
C1354 H1341 0.930 . S
C1354 C1353 1.388 . S
C1354 C1355 1.390 . S
C1355 C1354 1.390 . S
C1355 C1356 1.394 . S
C1355 C1361 1.465 1_455 S
C1356 C1351 1.399 . S
C1356 C1355 1.394 . S
C1356 C1357 1.519 1_455 S
C1357 C1356 1.519 1_655 S
C1357 C1358 1.502 . S
C1357 C1359 1.561 . S
C1357 C1360 1.523 . S
C1358 H1342 0.962 . S
C1358 H1343 0.977 . S
C1358 H1344 0.942 1_655 S
C1358 C1357 1.502 . S
C1359 H1345 0.960 1_655 S
C1359 H1346 0.961 . S
C1359 H1347 0.959 . S
C1359 C1357 1.561 . S
C1360 C1357 1.523 . S
C1360 C1361 1.396 . S
C1360 C1365 1.390 . S
C1361 C1355 1.465 1_655 S
C1361 C1360 1.396 . S
C1361 C1362 1.399 . S
C1362 H1348 0.929 . S
C1362 C1361 1.399 . S
C1362 C1363 1.385 . S
C1363 H1349 0.931 . S
C1363 C1362 1.385 . S
C1363 C1364 1.389 . S
C1364 C1363 1.389 . S
C1364 C1365 1.387 . S
C1365 H1350 0.930 . S
C1365 C1360 1.390 . S
C1365 C1364 1.387 . S
H1366 C1378 0.930 . S
H1367 C1380 0.930 . S
H1368 C1381 0.930 . S
H1369 C1385 0.959 . S
H1370 C1385 0.959 . S
H1371 C1385 0.961 . S
H1372 C1386 0.960 . S
H1373 C1386 0.961 . S
H1374 C1386 0.959 . S
H1375 C1389 0.929 . S
H1376 C1390 0.931 . S
H1377 C1392 0.930 . S
C1378 H1366 0.930 . S
C1378 C1379 1.399 . S
C1378 C1383 1.399 . S
C1379 C1378 1.399 . S
C1379 C1380 1.376 . S
C1380 H1367 0.930 . S
C1380 C1379 1.376 . S
C1380 C1381 1.388 . S
C1381 H1368 0.930 . S
C1381 C1380 1.388 . S
C1381 C1382 1.390 . S
C1382 C1381 1.390 . S
C1382 C1383 1.394 . S
C1382 C1388 1.465 . S
C1383 C1378 1.399 . S
C1383 C1382 1.394 . S
C1383 C1384 1.516 . S
C1384 C1383 1.516 . S
C1384 C1385 1.502 . S
C1384 C1386 1.561 . S
C1384 C1387 1.526 . S
C1385 H1369 0.959 . S
C1385 H1370 0.959 . S
C1385 H1371 0.961 . S
C1385 C1384 1.502 . S
C1386 H1372 0.960 . S
C1386 H1373 0.961 . S
C1386 H1374 0.959 . S
C1386 C1384 1.561 . S
C1387 C1384 1.526 . S
C1387 C1388 1.396 . S
C1387 C1392 1.390 . S
C1388 C1382 1.465 . S
C1388 C1387 1.396 . S
C1388 C1389 1.399 . S
C1389 H1375 0.929 . S
C1389 C1388 1.399 . S
C1389 C1390 1.385 . S
C1390 H1376 0.931 . S
C1390 C1389 1.385 . S
C1390 C1391 1.389 . S
C1391 C1390 1.389 . S
C1391 C1392 1.387 . S
C1392 H1377 0.930 . S
C1392 C1387 1.390 . S
C1392 C1391 1.387 . S
H1393 C1405 0.930 . S
H1394 C1407 0.930 . S
H1395 C1408 0.930 . S
H1396 C1412 0.959 . S
H1397 C1412 0.959 . S
H1398 C1412 0.961 . S
H1399 C1413 0.960 . S
H1400 C1413 0.961 . S
H1401 C1413 0.959 . S
H1402 C1416 0.929 . S
H1403 C1417 0.931 . S
H1404 C1419 0.930 . S
C1405 H1393 0.930 . S
C1405 C1406 1.399 . S
C1405 C1410 1.399 . S
C1406 C1405 1.399 . S
C1406 C1407 1.376 . S
C1407 H1394 0.930 . S
C1407 C1406 1.376 . S
C1407 C1408 1.388 . S
C1408 H1395 0.930 . S
C1408 C1407 1.388 . S
C1408 C1409 1.390 . S
C1409 C1408 1.390 . S
C1409 C1410 1.394 . S
C1409 C1415 1.465 . S
C1410 C1405 1.399 . S
C1410 C1409 1.394 . S
C1410 C1411 1.516 . S
C1411 C1410 1.516 . S
C1411 C1412 1.502 . S
C1411 C1413 1.561 . S
C1411 C1414 1.526 . S
C1412 H1396 0.959 . S
C1412 H1397 0.959 . S
C1412 H1398 0.961 . S
C1412 C1411 1.502 . S
C1413 H1399 0.960 . S
C1413 H1400 0.961 . S
C1413 H1401 0.959 . S
C1413 C1411 1.561 . S
C1414 C1411 1.526 . S
C1414 C1415 1.396 . S
C1414 C1419 1.390 . S
C1415 C1409 1.465 . S
C1415 C1414 1.396 . S
C1415 C1416 1.399 . S
C1416 H1402 0.929 . S
C1416 C1415 1.399 . S
C1416 C1417 1.385 . S
C1417 H1403 0.931 . S
C1417 C1416 1.385 . S
C1417 C1418 1.389 . S
C1418 C1417 1.389 . S
C1418 C1419 1.387 . S
C1419 H1404 0.930 . S
C1419 C1414 1.390 . S
C1419 C1418 1.387 . S
H1420 C1432 0.930 . S
H1421 C1434 0.930 . S
H1422 C1435 0.930 . S
H1423 C1439 0.959 . S
H1424 C1439 0.959 1_556 S
H1425 C1439 0.961 1_556 S
H1426 C1440 0.960 . S
H1427 C1440 0.961 . S
H1428 C1440 0.959 1_554 S
H1429 C1443 0.929 . S
H1430 C1444 0.931 . S
H1431 C1446 0.930 . S
C1432 H1420 0.930 . S
C1432 C1433 1.399 . S
C1432 C1437 1.399 . S
C1433 C1432 1.399 . S
C1433 C1434 1.376 . S
C1434 H1421 0.930 . S
C1434 C1433 1.376 . S
C1434 C1435 1.388 . S
C1435 H1422 0.930 . S
C1435 C1434 1.388 . S
C1435 C1436 1.390 . S
C1436 C1435 1.390 . S
C1436 C1437 1.394 . S
C1436 C1442 1.465 . S
C1437 C1432 1.399 . S
C1437 C1436 1.394 . S
C1437 C1438 1.516 . S
C1438 C1437 1.516 . S
C1438 C1439 1.502 . S
C1438 C1440 1.561 1_554 S
C1438 C1441 1.526 . S
C1439 H1423 0.959 . S
C1439 H1424 0.959 1_554 S
C1439 H1425 0.961 1_554 S
C1439 C1438 1.502 . S
C1440 H1426 0.960 . S
C1440 H1427 0.961 . S
C1440 H1428 0.959 1_556 S
C1440 C1438 1.561 1_556 S
C1441 C1438 1.526 . S
C1441 C1442 1.396 . S
C1441 C1446 1.390 . S
C1442 C1436 1.465 . S
C1442 C1441 1.396 . S
C1442 C1443 1.399 . S
C1443 H1429 0.929 . S
C1443 C1442 1.399 . S
C1443 C1444 1.385 . S
C1444 H1430 0.931 . S
C1444 C1443 1.385 . S
C1444 C1445 1.389 . S
C1445 C1444 1.389 . S
C1445 C1446 1.387 . S
C1446 H1431 0.930 . S
C1446 C1441 1.390 . S
C1446 C1445 1.387 . S
H1447 C1459 0.930 . S
H1448 C1461 0.930 . S
H1449 C1462 0.930 . S
H1450 C1466 0.959 . S
H1451 C1466 0.959 . S
H1452 C1466 0.961 . S
H1453 C1467 0.960 . S
H1454 C1467 0.961 . S
H1455 C1467 0.959 . S
H1456 C1470 0.929 . S
H1457 C1471 0.931 . S
H1458 C1473 0.930 . S
C1459 H1447 0.930 . S
C1459 C1460 1.399 . S
C1459 C1464 1.399 . S
C1460 C1459 1.399 . S
C1460 C1461 1.376 . S
C1461 H1448 0.930 . S
C1461 C1460 1.376 . S
C1461 C1462 1.388 . S
C1462 H1449 0.930 . S
C1462 C1461 1.388 . S
C1462 C1463 1.390 . S
C1463 C1462 1.390 . S
C1463 C1464 1.394 . S
C1463 C1469 1.465 . S
C1464 C1459 1.399 . S
C1464 C1463 1.394 . S
C1464 C1465 1.516 . S
C1465 C1464 1.516 . S
C1465 C1466 1.502 . S
C1465 C1467 1.561 . S
C1465 C1468 1.526 . S
C1466 H1450 0.959 . S
C1466 H1451 0.959 . S
C1466 H1452 0.961 . S
C1466 C1465 1.502 . S
C1467 H1453 0.960 . S
C1467 H1454 0.961 . S
C1467 H1455 0.959 . S
C1467 C1465 1.561 . S
C1468 C1465 1.526 . S
C1468 C1469 1.396 . S
C1468 C1473 1.390 . S
C1469 C1463 1.465 . S
C1469 C1468 1.396 . S
C1469 C1470 1.399 . S
C1470 H1456 0.929 . S
C1470 C1469 1.399 . S
C1470 C1471 1.385 . S
C1471 H1457 0.931 . S
C1471 C1470 1.385 . S
C1471 C1472 1.389 . S
C1472 C1471 1.389 . S
C1472 C1473 1.387 . S
C1473 H1458 0.930 . S
C1473 C1468 1.390 . S
C1473 C1472 1.387 . S
H1474 C1486 0.930 . S
H1475 C1488 0.930 . S
H1476 C1489 0.930 . S
H1477 C1493 0.959 . S
H1478 C1493 0.959 . S
H1479 C1493 0.961 . S
H1480 C1494 0.960 . S
H1481 C1494 0.961 . S
H1482 C1494 0.959 . S
H1483 C1497 0.929 . S
H1484 C1498 0.931 . S
H1485 C1500 0.930 . S
C1486 H1474 0.930 . S
C1486 C1487 1.399 . S
C1486 C1491 1.399 . S
C1487 C1486 1.399 . S
C1487 C1488 1.376 . S
C1488 H1475 0.930 . S
C1488 C1487 1.376 . S
C1488 C1489 1.388 . S
C1489 H1476 0.930 . S
C1489 C1488 1.388 . S
C1489 C1490 1.390 . S
C1490 C1489 1.390 . S
C1490 C1491 1.394 . S
C1490 C1496 1.465 . S
C1491 C1486 1.399 . S
C1491 C1490 1.394 . S
C1491 C1492 1.516 . S
C1492 C1491 1.516 . S
C1492 C1493 1.502 . S
C1492 C1494 1.561 . S
C1492 C1495 1.526 . S
C1493 H1477 0.959 . S
C1493 H1478 0.959 . S
C1493 H1479 0.961 . S
C1493 C1492 1.502 . S
C1494 H1480 0.960 . S
C1494 H1481 0.961 . S
C1494 H1482 0.959 . S
C1494 C1492 1.561 . S
C1495 C1492 1.526 . S
C1495 C1496 1.396 . S
C1495 C1500 1.390 . S
C1496 C1490 1.465 . S
C1496 C1495 1.396 . S
C1496 C1497 1.399 . S
C1497 H1483 0.929 . S
C1497 C1496 1.399 . S
C1497 C1498 1.385 . S
C1498 H1484 0.931 . S
C1498 C1497 1.385 . S
C1498 C1499 1.389 . S
C1499 C1498 1.389 . S
C1499 C1500 1.387 . S
C1500 H1485 0.930 . S
C1500 C1495 1.390 . S
C1500 C1499 1.387 . S
H1501 C1513 0.930 . S
H1502 C1515 0.930 . S
H1503 C1516 0.930 . S
H1504 C1520 0.962 . S
H1505 C1520 0.977 . S
H1506 C1520 0.942 1_655 S
H1507 C1521 0.960 1_655 S
H1508 C1521 0.961 . S
H1509 C1521 0.959 . S
H1510 C1524 0.929 . S
H1511 C1525 0.931 . S
H1512 C1527 0.930 . S
C1513 H1501 0.930 . S
C1513 C1514 1.399 . S
C1513 C1518 1.399 . S
C1514 C1513 1.399 . S
C1514 C1515 1.376 . S
C1515 H1502 0.930 . S
C1515 C1514 1.376 . S
C1515 C1516 1.388 . S
C1516 H1503 0.930 . S
C1516 C1515 1.388 . S
C1516 C1517 1.390 . S
C1517 C1516 1.390 . S
C1517 C1518 1.394 . S
C1517 C1523 1.465 1_655 S
C1518 C1513 1.399 . S
C1518 C1517 1.394 . S
C1518 C1519 1.519 1_655 S
C1519 C1518 1.519 1_455 S
C1519 C1520 1.502 . S
C1519 C1521 1.561 . S
C1519 C1522 1.523 . S
C1520 H1504 0.962 . S
C1520 H1505 0.977 . S
C1520 H1506 0.942 1_455 S
C1520 C1519 1.502 . S
C1521 H1507 0.960 1_455 S
C1521 H1508 0.961 . S
C1521 H1509 0.959 . S
C1521 C1519 1.561 . S
C1522 C1519 1.523 . S
C1522 C1523 1.396 . S
C1522 C1527 1.390 . S
C1523 C1517 1.465 1_455 S
C1523 C1522 1.396 . S
C1523 C1524 1.399 . S
C1524 H1510 0.929 . S
C1524 C1523 1.399 . S
C1524 C1525 1.385 . S
C1525 H1511 0.931 . S
C1525 C1524 1.385 . S
C1525 C1526 1.389 . S
C1526 C1525 1.389 . S
C1526 C1527 1.387 . S
C1527 H1512 0.930 . S
C1527 C1522 1.390 . S
C1527 C1526 1.387 . S
H1528 C1540 0.930 . S
H1529 C1542 0.930 . S
H1530 C1543 0.930 1_556 S
H1531 C1547 0.959 . S
H1532 C1547 0.959 . S
H1533 C1547 0.961 . S
H1534 C1548 0.960 . S
H1535 C1548 0.961 . S
H1536 C1548 0.959 . S
H1537 C1551 0.929 1_556 S
H1538 C1552 0.931 . S
H1539 C1554 0.930 . S
C1540 H1528 0.930 . S
C1540 C1541 1.399 . S
C1540 C1545 1.399 . S
C1541 C1540 1.399 . S
C1541 C1542 1.376 . S
C1542 H1529 0.930 . S
C1542 C1541 1.376 . S
C1542 C1543 1.388 . S
C1543 H1530 0.930 1_554 S
C1543 C1542 1.388 . S
C1543 C1544 1.390 . S
C1544 C1543 1.390 . S
C1544 C1545 1.394 . S
C1544 C1550 1.465 . S
C1545 C1540 1.399 . S
C1545 C1544 1.394 . S
C1545 C1546 1.516 . S
C1546 C1545 1.516 . S
C1546 C1547 1.502 . S
C1546 C1548 1.561 . S
C1546 C1549 1.526 . S
C1547 H1531 0.959 . S
C1547 H1532 0.959 . S
C1547 H1533 0.961 . S
C1547 C1546 1.502 . S
C1548 H1534 0.960 . S
C1548 H1535 0.961 . S
C1548 H1536 0.959 . S
C1548 C1546 1.561 . S
C1549 C1546 1.526 . S
C1549 C1550 1.396 . S
C1549 C1554 1.390 . S
C1550 C1544 1.465 . S
C1550 C1549 1.396 . S
C1550 C1551 1.399 . S
C1551 H1537 0.929 1_554 S
C1551 C1550 1.399 . S
C1551 C1552 1.385 . S
C1552 H1538 0.931 . S
C1552 C1551 1.385 . S
C1552 C1553 1.389 . S
C1553 C1552 1.389 . S
C1553 C1554 1.387 . S
C1554 H1539 0.930 . S
C1554 C1549 1.390 . S
C1554 C1553 1.387 . S
H1555 C1567 0.930 . S
H1556 C1569 0.930 . S
H1557 C1570 0.930 . S
H1558 C1574 0.959 . S
H1559 C1574 0.959 . S
H1560 C1574 0.961 . S
H1561 C1575 0.960 . S
H1562 C1575 0.961 . S
H1563 C1575 0.959 . S
H1564 C1578 0.929 . S
H1565 C1579 0.931 . S
H1566 C1581 0.930 . S
C1567 H1555 0.930 . S
C1567 C1568 1.399 . S
C1567 C1572 1.399 . S
C1568 C1567 1.399 . S
C1568 C1569 1.376 . S
C1569 H1556 0.930 . S
C1569 C1568 1.376 . S
C1569 C1570 1.388 . S
C1570 H1557 0.930 . S
C1570 C1569 1.388 . S
C1570 C1571 1.390 . S
C1571 C1570 1.390 . S
C1571 C1572 1.394 . S
C1571 C1577 1.465 . S
C1572 C1567 1.399 . S
C1572 C1571 1.394 . S
C1572 C1573 1.516 . S
C1573 C1572 1.516 . S
C1573 C1574 1.502 . S
C1573 C1575 1.561 . S
C1573 C1576 1.526 . S
C1574 H1558 0.959 . S
C1574 H1559 0.959 . S
C1574 H1560 0.961 . S
C1574 C1573 1.502 . S
C1575 H1561 0.960 . S
C1575 H1562 0.961 . S
C1575 H1563 0.959 . S
C1575 C1573 1.561 . S
C1576 C1573 1.526 . S
C1576 C1577 1.396 . S
C1576 C1581 1.390 . S
C1577 C1571 1.465 . S
C1577 C1576 1.396 . S
C1577 C1578 1.399 . S
C1578 H1564 0.929 . S
C1578 C1577 1.399 . S
C1578 C1579 1.385 . S
C1579 H1565 0.931 . S
C1579 C1578 1.385 . S
C1579 C1580 1.389 . S
C1580 C1579 1.389 . S
C1580 C1581 1.387 . S
C1581 H1566 0.930 . S
C1581 C1576 1.390 . S
C1581 C1580 1.387 . S
H1582 C1594 0.921 1_556 S
H1583 C1596 0.930 . S
H1584 C1597 0.930 . S
H1585 C1601 0.959 1_554 S
H1586 C1601 0.959 . S
H1587 C1601 0.961 . S
H1588 C1602 0.960 . S
H1589 C1602 0.961 . S
H1590 C1602 0.959 . S
H1591 C1605 0.929 . S
H1592 C1606 0.931 . S
H1593 C1608 0.923 1_556 S
C1594 H1582 0.921 1_554 S
C1594 C1595 1.399 . S
C1594 C1599 1.399 . S
C1595 C1594 1.399 . S
C1595 C1596 1.376 . S
C1596 H1583 0.930 . S
C1596 C1595 1.376 . S
C1596 C1597 1.388 . S
C1597 H1584 0.930 . S
C1597 C1596 1.388 . S
C1597 C1598 1.390 . S
C1598 C1597 1.390 . S
C1598 C1599 1.394 . S
C1598 C1604 1.465 . S
C1599 C1594 1.399 . S
C1599 C1598 1.394 . S
C1599 C1600 1.516 . S
C1600 C1599 1.516 . S
C1600 C1601 1.502 1_554 S
C1600 C1602 1.561 1_554 S
C1600 C1603 1.526 . S
C1601 H1585 0.959 1_556 S
C1601 H1586 0.959 . S
C1601 H1587 0.961 . S
C1601 C1600 1.502 1_556 S
C1602 H1588 0.960 . S
C1602 H1589 0.961 . S
C1602 H1590 0.959 . S
C1602 C1600 1.561 1_556 S
C1603 C1600 1.526 . S
C1603 C1604 1.396 . S
C1603 C1608 1.390 . S
C1604 C1598 1.465 . S
C1604 C1603 1.396 . S
C1604 C1605 1.399 . S
C1605 H1591 0.929 . S
C1605 C1604 1.399 . S
C1605 C1606 1.385 . S
C1606 H1592 0.931 . S
C1606 C1605 1.385 . S
C1606 C1607 1.389 . S
C1607 C1606 1.389 . S
C1607 C1608 1.387 . S
C1608 H1593 0.923 1_554 S
C1608 C1603 1.390 . S
C1608 C1607 1.387 . S
H1609 C1621 0.930 . S
H1610 C1623 0.930 . S
H1611 C1624 0.930 . S
H1612 C1628 0.959 . S
H1613 C1628 0.959 . S
H1614 C1628 0.961 . S
H1615 C1629 0.960 . S
H1616 C1629 0.961 . S
H1617 C1629 0.959 . S
H1618 C1632 0.929 . S
H1619 C1633 0.931 . S
H1620 C1635 0.930 . S
C1621 H1609 0.930 . S
C1621 C1622 1.399 . S
C1621 C1626 1.399 . S
C1622 C1621 1.399 . S
C1622 C1623 1.376 . S
C1623 H1610 0.930 . S
C1623 C1622 1.376 . S
C1623 C1624 1.388 . S
C1624 H1611 0.930 . S
C1624 C1623 1.388 . S
C1624 C1625 1.390 . S
C1625 C1624 1.390 . S
C1625 C1626 1.394 . S
C1625 C1631 1.465 . S
C1626 C1621 1.399 . S
C1626 C1625 1.394 . S
C1626 C1627 1.516 . S
C1627 C1626 1.516 . S
C1627 C1628 1.502 . S
C1627 C1629 1.561 . S
C1627 C1630 1.526 . S
C1628 H1612 0.959 . S
C1628 H1613 0.959 . S
C1628 H1614 0.961 . S
C1628 C1627 1.502 . S
C1629 H1615 0.960 . S
C1629 H1616 0.961 . S
C1629 H1617 0.959 . S
C1629 C1627 1.561 . S
C1630 C1627 1.526 . S
C1630 C1631 1.396 . S
C1630 C1635 1.390 . S
C1631 C1625 1.465 . S
C1631 C1630 1.396 . S
C1631 C1632 1.399 . S
C1632 H1618 0.929 . S
C1632 C1631 1.399 . S
C1632 C1633 1.385 . S
C1633 H1619 0.931 . S
C1633 C1632 1.385 . S
C1633 C1634 1.389 . S
C1634 C1633 1.389 . S
C1634 C1635 1.387 . S
C1635 H1620 0.930 . S
C1635 C1630 1.390 . S
C1635 C1634 1.387 . S
H1636 C1648 0.930 . S
H1637 C1650 0.930 . S
H1638 C1651 0.930 . S
H1639 C1655 0.959 . S
H1640 C1655 0.959 . S
H1641 C1655 0.961 . S
H1642 C1656 0.960 . S
H1643 C1656 0.961 . S
H1644 C1656 0.959 . S
H1645 C1659 0.929 . S
H1646 C1660 0.931 . S
H1647 C1662 0.930 . S
C1648 H1636 0.930 . S
C1648 C1649 1.399 . S
C1648 C1653 1.399 . S
C1649 C1648 1.399 . S
C1649 C1650 1.376 . S
C1650 H1637 0.930 . S
C1650 C1649 1.376 . S
C1650 C1651 1.388 . S
C1651 H1638 0.930 . S
C1651 C1650 1.388 . S
C1651 C1652 1.390 . S
C1652 C1651 1.390 . S
C1652 C1653 1.394 . S
C1652 C1658 1.465 . S
C1653 C1648 1.399 . S
C1653 C1652 1.394 . S
C1653 C1654 1.516 . S
C1654 C1653 1.516 . S
C1654 C1655 1.502 . S
C1654 C1656 1.561 . S
C1654 C1657 1.526 . S
C1655 H1639 0.959 . S
C1655 H1640 0.959 . S
C1655 H1641 0.961 . S
C1655 C1654 1.502 . S
C1656 H1642 0.960 . S
C1656 H1643 0.961 . S
C1656 H1644 0.959 . S
C1656 C1654 1.561 . S
C1657 C1654 1.526 . S
C1657 C1658 1.396 . S
C1657 C1662 1.390 . S
C1658 C1652 1.465 . S
C1658 C1657 1.396 . S
C1658 C1659 1.399 . S
C1659 H1645 0.929 . S
C1659 C1658 1.399 . S
C1659 C1660 1.385 . S
C1660 H1646 0.931 . S
C1660 C1659 1.385 . S
C1660 C1661 1.389 . S
C1661 C1660 1.389 . S
C1661 C1662 1.387 . S
C1662 H1647 0.930 . S
C1662 C1657 1.390 . S
C1662 C1661 1.387 . S
H1663 C1675 0.930 . S
H1664 C1677 0.930 . S
H1665 C1678 0.930 . S
H1666 C1682 0.962 . S
H1667 C1682 0.977 . S
H1668 C1682 0.942 1_655 S
H1669 C1683 0.960 1_655 S
H1670 C1683 0.961 . S
H1671 C1683 0.959 . S
H1672 C1686 0.929 . S
H1673 C1687 0.931 . S
H1674 C1689 0.930 . S
C1675 H1663 0.930 . S
C1675 C1676 1.399 . S
C1675 C1680 1.399 . S
C1676 C1675 1.399 . S
C1676 C1677 1.376 . S
C1677 H1664 0.930 . S
C1677 C1676 1.376 . S
C1677 C1678 1.388 . S
C1678 H1665 0.930 . S
C1678 C1677 1.388 . S
C1678 C1679 1.390 . S
C1679 C1678 1.390 . S
C1679 C1680 1.394 . S
C1679 C1685 1.465 1_655 S
C1680 C1675 1.399 . S
C1680 C1679 1.394 . S
C1680 C1681 1.519 1_655 S
C1681 C1680 1.519 1_455 S
C1681 C1682 1.502 . S
C1681 C1683 1.561 . S
C1681 C1684 1.523 . S
C1682 H1666 0.962 . S
C1682 H1667 0.977 . S
C1682 H1668 0.942 1_455 S
C1682 C1681 1.502 . S
C1683 H1669 0.960 1_455 S
C1683 H1670 0.961 . S
C1683 H1671 0.959 . S
C1683 C1681 1.561 . S
C1684 C1681 1.523 . S
C1684 C1685 1.396 . S
C1684 C1689 1.390 . S
C1685 C1679 1.465 1_455 S
C1685 C1684 1.396 . S
C1685 C1686 1.399 . S
C1686 H1672 0.929 . S
C1686 C1685 1.399 . S
C1686 C1687 1.385 . S
C1687 H1673 0.931 . S
C1687 C1686 1.385 . S
C1687 C1688 1.389 . S
C1688 C1687 1.389 . S
C1688 C1689 1.387 . S
C1689 H1674 0.930 . S
C1689 C1684 1.390 . S
C1689 C1688 1.387 . S
H1690 C1702 0.930 . S
H1691 C1704 0.930 . S
H1692 C1705 0.930 . S
H1693 C1709 0.962 . S
H1694 C1709 0.977 . S
H1695 C1709 0.942 1_655 S
H1696 C1710 0.960 1_655 S
H1697 C1710 0.961 . S
H1698 C1710 0.959 . S
H1699 C1713 0.929 . S
H1700 C1714 0.931 . S
H1701 C1716 0.930 . S
C1702 H1690 0.930 . S
C1702 C1703 1.399 . S
C1702 C1707 1.399 . S
C1703 C1702 1.399 . S
C1703 C1704 1.376 . S
C1704 H1691 0.930 . S
C1704 C1703 1.376 . S
C1704 C1705 1.388 . S
C1705 H1692 0.930 . S
C1705 C1704 1.388 . S
C1705 C1706 1.390 . S
C1706 C1705 1.390 . S
C1706 C1707 1.394 . S
C1706 C1712 1.465 1_655 S
C1707 C1702 1.399 . S
C1707 C1706 1.394 . S
C1707 C1708 1.519 1_655 S
C1708 C1707 1.519 1_455 S
C1708 C1709 1.502 . S
C1708 C1710 1.561 . S
C1708 C1711 1.523 . S
C1709 H1693 0.962 . S
C1709 H1694 0.977 . S
C1709 H1695 0.942 1_455 S
C1709 C1708 1.502 . S
C1710 H1696 0.960 1_455 S
C1710 H1697 0.961 . S
C1710 H1698 0.959 . S
C1710 C1708 1.561 . S
C1711 C1708 1.523 . S
C1711 C1712 1.396 . S
C1711 C1716 1.390 . S
C1712 C1706 1.465 1_455 S
C1712 C1711 1.396 . S
C1712 C1713 1.399 . S
C1713 H1699 0.929 . S
C1713 C1712 1.399 . S
C1713 C1714 1.385 . S
C1714 H1700 0.931 . S
C1714 C1713 1.385 . S
C1714 C1715 1.389 . S
C1715 C1714 1.389 . S
C1715 C1716 1.387 . S
C1716 H1701 0.930 . S
C1716 C1711 1.390 . S
C1716 C1715 1.387 . S
H1717 C1729 0.930 . S
H1718 C1731 0.930 . S
H1719 C1732 0.930 . S
H1720 C1736 0.959 . S
H1721 C1736 0.959 . S
H1722 C1736 0.961 . S
H1723 C1737 0.960 . S
H1724 C1737 0.961 . S
H1725 C1737 0.959 . S
H1726 C1740 0.929 . S
H1727 C1741 0.931 . S
H1728 C1743 0.930 . S
C1729 H1717 0.930 . S
C1729 C1730 1.399 . S
C1729 C1734 1.399 . S
C1730 C1729 1.399 . S
C1730 C1731 1.376 . S
C1731 H1718 0.930 . S
C1731 C1730 1.376 . S
C1731 C1732 1.388 . S
C1732 H1719 0.930 . S
C1732 C1731 1.388 . S
C1732 C1733 1.390 . S
C1733 C1732 1.390 . S
C1733 C1734 1.394 . S
C1733 C1739 1.465 . S
C1734 C1729 1.399 . S
C1734 C1733 1.394 . S
C1734 C1735 1.516 . S
C1735 C1734 1.516 . S
C1735 C1736 1.502 . S
C1735 C1737 1.561 . S
C1735 C1738 1.526 . S
C1736 H1720 0.959 . S
C1736 H1721 0.959 . S
C1736 H1722 0.961 . S
C1736 C1735 1.502 . S
C1737 H1723 0.960 . S
C1737 H1724 0.961 . S
C1737 H1725 0.959 . S
C1737 C1735 1.561 . S
C1738 C1735 1.526 . S
C1738 C1739 1.396 . S
C1738 C1743 1.390 . S
C1739 C1733 1.465 . S
C1739 C1738 1.396 . S
C1739 C1740 1.399 . S
C1740 H1726 0.929 . S
C1740 C1739 1.399 . S
C1740 C1741 1.385 . S
C1741 H1727 0.931 . S
C1741 C1740 1.385 . S
C1741 C1742 1.389 . S
C1742 C1741 1.389 . S
C1742 C1743 1.387 . S
C1743 H1728 0.930 . S
C1743 C1738 1.390 . S
C1743 C1742 1.387 . S
H1744 C1756 0.930 . S
H1745 C1758 0.930 . S
H1746 C1759 0.930 . S
H1747 C1763 0.959 . S
H1748 C1763 0.959 . S
H1749 C1763 0.961 . S
H1750 C1764 0.960 . S
H1751 C1764 0.961 . S
H1752 C1764 0.959 . S
H1753 C1767 0.929 . S
H1754 C1768 0.931 . S
H1755 C1770 0.930 . S
C1756 H1744 0.930 . S
C1756 C1757 1.399 . S
C1756 C1761 1.399 . S
C1757 C1756 1.399 . S
C1757 C1758 1.376 . S
C1758 H1745 0.930 . S
C1758 C1757 1.376 . S
C1758 C1759 1.388 . S
C1759 H1746 0.930 . S
C1759 C1758 1.388 . S
C1759 C1760 1.390 . S
C1760 C1759 1.390 . S
C1760 C1761 1.394 . S
C1760 C1766 1.465 . S
C1761 C1756 1.399 . S
C1761 C1760 1.394 . S
C1761 C1762 1.516 . S
C1762 C1761 1.516 . S
C1762 C1763 1.502 . S
C1762 C1764 1.561 . S
C1762 C1765 1.526 . S
C1763 H1747 0.959 . S
C1763 H1748 0.959 . S
C1763 H1749 0.961 . S
C1763 C1762 1.502 . S
C1764 H1750 0.960 . S
C1764 H1751 0.961 . S
C1764 H1752 0.959 . S
C1764 C1762 1.561 . S
C1765 C1762 1.526 . S
C1765 C1766 1.396 . S
C1765 C1770 1.390 . S
C1766 C1760 1.465 . S
C1766 C1765 1.396 . S
C1766 C1767 1.399 . S
C1767 H1753 0.929 . S
C1767 C1766 1.399 . S
C1767 C1768 1.385 . S
C1768 H1754 0.931 . S
C1768 C1767 1.385 . S
C1768 C1769 1.389 . S
C1769 C1768 1.389 . S
C1769 C1770 1.387 . S
C1770 H1755 0.930 . S
C1770 C1765 1.390 . S
C1770 C1769 1.387 . S
H1771 C1783 0.930 . S
H1772 C1785 0.955 . S
H1773 C1786 0.930 . S
H1774 C1790 0.959 . S
H1775 C1790 0.959 . S
H1776 C1790 0.961 . S
H1777 C1791 0.960 . S
H1778 C1791 0.961 . S
H1779 C1791 0.959 . S
H1780 C1794 0.929 . S
H1781 C1795 0.931 . S
H1782 C1797 0.930 . S
C1783 H1771 0.930 . S
C1783 C1784 1.399 . S
C1783 C1788 1.399 . S
C1784 C1783 1.399 . S
C1784 C1785 1.310 1_565 S
C1785 H1772 0.955 . S
C1785 C1784 1.310 1_545 S
C1785 C1786 1.435 . S
C1786 H1773 0.930 . S
C1786 C1785 1.435 . S
C1786 C1787 1.390 . S
C1787 C1786 1.390 . S
C1787 C1788 1.394 1_545 S
C1787 C1793 1.465 . S
C1788 C1783 1.399 . S
C1788 C1787 1.394 1_565 S
C1788 C1789 1.516 . S
C1789 C1788 1.516 . S
C1789 C1790 1.502 . S
C1789 C1791 1.561 . S
C1789 C1792 1.526 1_565 S
C1790 H1774 0.959 . S
C1790 H1775 0.959 . S
C1790 H1776 0.961 . S
C1790 C1789 1.502 . S
C1791 H1777 0.960 . S
C1791 H1778 0.961 . S
C1791 H1779 0.959 . S
C1791 C1789 1.561 . S
C1792 C1789 1.526 1_545 S
C1792 C1793 1.396 . S
C1792 C1797 1.390 . S
C1793 C1787 1.465 . S
C1793 C1792 1.396 . S
C1793 C1794 1.399 . S
C1794 H1780 0.929 . S
C1794 C1793 1.399 . S
C1794 C1795 1.385 . S
C1795 H1781 0.931 . S
C1795 C1794 1.385 . S
C1795 C1796 1.389 . S
C1796 C1795 1.389 . S
C1796 C1797 1.387 . S
C1797 H1782 0.930 . S
C1797 C1792 1.390 . S
C1797 C1796 1.387 . S
H1798 C1810 0.930 . S
H1799 C1812 0.930 . S
H1800 C1813 0.930 . S
H1801 C1817 0.959 . S
H1802 C1817 0.959 . S
H1803 C1817 0.961 . S
H1804 C1818 0.960 . S
H1805 C1818 0.961 . S
H1806 C1818 0.959 . S
H1807 C1821 0.929 . S
H1808 C1822 0.931 . S
H1809 C1824 0.930 . S
C1810 H1798 0.930 . S
C1810 C1811 1.399 . S
C1810 C1815 1.399 . S
C1811 C1810 1.399 . S
C1811 C1812 1.376 . S
C1812 H1799 0.930 . S
C1812 C1811 1.376 . S
C1812 C1813 1.388 . S
C1813 H1800 0.930 . S
C1813 C1812 1.388 . S
C1813 C1814 1.390 . S
C1814 C1813 1.390 . S
C1814 C1815 1.394 . S
C1814 C1820 1.465 . S
C1815 C1810 1.399 . S
C1815 C1814 1.394 . S
C1815 C1816 1.516 . S
C1816 C1815 1.516 . S
C1816 C1817 1.502 . S
C1816 C1818 1.561 . S
C1816 C1819 1.526 . S
C1817 H1801 0.959 . S
C1817 H1802 0.959 . S
C1817 H1803 0.961 . S
C1817 C1816 1.502 . S
C1818 H1804 0.960 . S
C1818 H1805 0.961 . S
C1818 H1806 0.959 . S
C1818 C1816 1.561 . S
C1819 C1816 1.526 . S
C1819 C1820 1.396 . S
C1819 C1824 1.390 . S
C1820 C1814 1.465 . S
C1820 C1819 1.396 . S
C1820 C1821 1.399 . S
C1821 H1807 0.929 . S
C1821 C1820 1.399 . S
C1821 C1822 1.385 . S
C1822 H1808 0.931 . S
C1822 C1821 1.385 . S
C1822 C1823 1.389 . S
C1823 C1822 1.389 . S
C1823 C1824 1.387 . S
C1824 H1809 0.930 . S
C1824 C1819 1.390 . S
C1824 C1823 1.387 . S
H1825 C1837 0.930 . S
H1826 C1839 0.930 . S
H1827 C1840 0.930 . S
H1828 C1844 0.959 . S
H1829 C1844 0.959 . S
H1830 C1844 0.961 . S
H1831 C1845 0.960 . S
H1832 C1845 0.961 . S
H1833 C1845 0.959 . S
H1834 C1848 0.929 . S
H1835 C1849 0.931 . S
H1836 C1851 0.898 1_545 S
C1837 H1825 0.930 . S
C1837 C1838 1.399 1_554 S
C1837 C1842 1.399 . S
C1838 C1837 1.399 1_556 S
C1838 C1839 1.376 . S
C1839 H1826 0.930 . S
C1839 C1838 1.376 . S
C1839 C1840 1.388 1_545 S
C1840 H1827 0.930 . S
C1840 C1839 1.388 1_565 S
C1840 C1841 1.390 1_566 S
C1841 C1840 1.390 1_544 S
C1841 C1842 1.394 . S
C1841 C1847 1.465 1_545 S
C1842 C1837 1.399 . S
C1842 C1841 1.394 . S
C1842 C1843 1.516 . S
C1843 C1842 1.516 . S
C1843 C1844 1.502 . S
C1843 C1845 1.561 . S
C1843 C1846 1.526 . S
C1844 H1828 0.959 . S
C1844 H1829 0.959 . S
C1844 H1830 0.961 . S
C1844 C1843 1.502 . S
C1845 H1831 0.960 . S
C1845 H1832 0.961 . S
C1845 H1833 0.959 . S
C1845 C1843 1.561 . S
C1846 C1843 1.526 . S
C1846 C1847 1.396 1_545 S
C1846 C1851 1.376 1_545 S
C1847 C1841 1.465 1_565 S
C1847 C1846 1.396 1_565 S
C1847 C1848 1.399 . S
C1848 H1834 0.929 . S
C1848 C1847 1.399 . S
C1848 C1849 1.385 . S
C1849 H1835 0.931 . S
C1849 C1848 1.385 . S
C1849 C1850 1.389 . S
C1850 C1849 1.389 . S
C1850 C1851 1.435 . S
C1851 H1836 0.898 1_565 S
C1851 C1846 1.376 1_565 S
C1851 C1850 1.435 . S
H1852 C1864 0.930 . S
H1853 C1866 0.930 . S
H1854 C1867 0.930 . S
H1855 C1871 0.959 . S
H1856 C1871 0.959 . S
H1857 C1871 0.961 . S
H1858 C1872 0.960 . S
H1859 C1872 0.961 . S
H1860 C1872 0.959 . S
H1861 C1875 0.929 . S
H1862 C1876 0.931 . S
H1863 C1878 0.930 . S
C1864 H1852 0.930 . S
C1864 C1865 1.399 . S
C1864 C1869 1.399 . S
C1865 C1864 1.399 . S
C1865 C1866 1.376 . S
C1866 H1853 0.930 . S
C1866 C1865 1.376 . S
C1866 C1867 1.388 . S
C1867 H1854 0.930 . S
C1867 C1866 1.388 . S
C1867 C1868 1.390 . S
C1868 C1867 1.390 . S
C1868 C1869 1.394 . S
C1868 C1874 1.465 . S
C1869 C1864 1.399 . S
C1869 C1868 1.394 . S
C1869 C1870 1.516 . S
C1870 C1869 1.516 . S
C1870 C1871 1.502 . S
C1870 C1872 1.561 . S
C1870 C1873 1.526 . S
C1871 H1855 0.959 . S
C1871 H1856 0.959 . S
C1871 H1857 0.961 . S
C1871 C1870 1.502 . S
C1872 H1858 0.960 . S
C1872 H1859 0.961 . S
C1872 H1860 0.959 . S
C1872 C1870 1.561 . S
C1873 C1870 1.526 . S
C1873 C1874 1.396 . S
C1873 C1878 1.390 . S
C1874 C1868 1.465 . S
C1874 C1873 1.396 . S
C1874 C1875 1.399 . S
C1875 H1861 0.929 . S
C1875 C1874 1.399 . S
C1875 C1876 1.385 . S
C1876 H1862 0.931 . S
C1876 C1875 1.385 . S
C1876 C1877 1.389 . S
C1877 C1876 1.389 . S
C1877 C1878 1.387 . S
C1878 H1863 0.930 . S
C1878 C1873 1.390 . S
C1878 C1877 1.387 . S
H1879 C1891 0.930 . S
H1880 C1893 0.930 . S
H1881 C1894 0.930 . S
H1882 C1898 0.959 . S
H1883 C1898 0.959 . S
H1884 C1898 0.961 . S
H1885 C1899 0.960 . S
H1886 C1899 0.961 . S
H1887 C1899 0.959 . S
H1888 C1902 0.929 . S
H1889 C1903 0.931 . S
H1890 C1905 0.900 1_545 S
C1891 H1879 0.930 . S
C1891 C1892 1.399 . S
C1891 C1896 1.399 . S
C1892 C1891 1.399 . S
C1892 C1893 1.376 . S
C1893 H1880 0.930 . S
C1893 C1892 1.376 . S
C1893 C1894 1.388 1_545 S
C1894 H1881 0.930 . S
C1894 C1893 1.388 1_565 S
C1894 C1895 1.390 1_565 S
C1895 C1894 1.390 1_545 S
C1895 C1896 1.394 . S
C1895 C1901 1.465 1_545 S
C1896 C1891 1.399 . S
C1896 C1895 1.394 . S
C1896 C1897 1.516 . S
C1897 C1896 1.516 . S
C1897 C1898 1.502 . S
C1897 C1899 1.561 . S
C1897 C1900 1.526 . S
C1898 H1882 0.959 . S
C1898 H1883 0.959 . S
C1898 H1884 0.961 . S
C1898 C1897 1.502 . S
C1899 H1885 0.960 . S
C1899 H1886 0.961 . S
C1899 H1887 0.959 . S
C1899 C1897 1.561 . S
C1900 C1897 1.526 . S
C1900 C1901 1.396 1_545 S
C1900 C1905 1.377 1_545 S
C1901 C1895 1.465 1_565 S
C1901 C1900 1.396 1_565 S
C1901 C1902 1.399 . S
C1902 H1888 0.929 . S
C1902 C1901 1.399 . S
C1902 C1903 1.385 . S
C1903 H1889 0.931 . S
C1903 C1902 1.385 . S
C1903 C1904 1.389 . S
C1904 C1903 1.389 . S
C1904 C1905 1.431 . S
C1905 H1890 0.900 1_565 S
C1905 C1900 1.377 1_565 S
C1905 C1904 1.431 . S
H1906 C1918 0.930 . S
H1907 C1920 0.930 . S
H1908 C1921 0.930 . S
H1909 C1925 0.959 . S
H1910 C1925 0.959 . S
H1911 C1925 0.961 . S
H1912 C1926 0.960 . S
H1913 C1926 0.961 . S
H1914 C1926 0.959 . S
H1915 C1929 0.929 . S
H1916 C1930 0.931 . S
H1917 C1932 0.930 . S
C1918 H1906 0.930 . S
C1918 C1919 1.399 . S
C1918 C1923 1.399 . S
C1919 C1918 1.399 . S
C1919 C1920 1.376 . S
C1920 H1907 0.930 . S
C1920 C1919 1.376 . S
C1920 C1921 1.388 . S
C1921 H1908 0.930 . S
C1921 C1920 1.388 . S
C1921 C1922 1.390 . S
C1922 C1921 1.390 . S
C1922 C1923 1.394 . S
C1922 C1928 1.465 . S
C1923 C1918 1.399 . S
C1923 C1922 1.394 . S
C1923 C1924 1.516 . S
C1924 C1923 1.516 . S
C1924 C1925 1.502 . S
C1924 C1926 1.561 . S
C1924 C1927 1.526 . S
C1925 H1909 0.959 . S
C1925 H1910 0.959 . S
C1925 H1911 0.961 . S
C1925 C1924 1.502 . S
C1926 H1912 0.960 . S
C1926 H1913 0.961 . S
C1926 H1914 0.959 . S
C1926 C1924 1.561 . S
C1927 C1924 1.526 . S
C1927 C1928 1.396 . S
C1927 C1932 1.390 . S
C1928 C1922 1.465 . S
C1928 C1927 1.396 . S
C1928 C1929 1.399 . S
C1929 H1915 0.929 . S
C1929 C1928 1.399 . S
C1929 C1930 1.385 . S
C1930 H1916 0.931 . S
C1930 C1929 1.385 . S
C1930 C1931 1.389 . S
C1931 C1930 1.389 . S
C1931 C1932 1.387 . S
C1932 H1917 0.930 . S
C1932 C1927 1.390 . S
C1932 C1931 1.387 . S
H1933 C1945 0.898 1_545 S
H1934 C1947 0.930 . S
H1935 C1948 0.930 . S
H1936 C1952 0.959 . S
H1937 C1952 0.959 . S
H1938 C1952 0.961 . S
H1939 C1953 0.960 . S
H1940 C1953 0.961 . S
H1941 C1953 0.959 . S
H1942 C1956 0.929 . S
H1943 C1957 0.931 . S
H1944 C1959 0.930 . S
C1945 H1933 0.898 1_565 S
C1945 C1946 1.449 . S
C1945 C1950 1.384 1_565 S
C1946 C1945 1.449 . S
C1946 C1947 1.376 . S
C1947 H1934 0.930 . S
C1947 C1946 1.376 . S
C1947 C1948 1.388 . S
C1948 H1935 0.930 . S
C1948 C1947 1.388 . S
C1948 C1949 1.390 . S
C1949 C1948 1.390 . S
C1949 C1950 1.394 1_565 S
C1949 C1955 1.465 1_565 S
C1950 C1945 1.384 1_545 S
C1950 C1949 1.394 1_545 S
C1950 C1951 1.516 . S
C1951 C1950 1.516 . S
C1951 C1952 1.502 . S
C1951 C1953 1.561 . S
C1951 C1954 1.526 . S
C1952 H1936 0.959 . S
C1952 H1937 0.959 . S
C1952 H1938 0.961 . S
C1952 C1951 1.502 . S
C1953 H1939 0.960 . S
C1953 H1940 0.961 . S
C1953 H1941 0.959 . S
C1953 C1951 1.561 . S
C1954 C1951 1.526 . S
C1954 C1955 1.396 . S
C1954 C1959 1.390 . S
C1955 C1949 1.465 1_545 S
C1955 C1954 1.396 . S
C1955 C1956 1.399 1_544 S
C1956 H1942 0.929 . S
C1956 C1955 1.399 1_566 S
C1956 C1957 1.385 1_565 S
C1957 H1943 0.931 . S
C1957 C1956 1.385 1_545 S
C1957 C1958 1.389 . S
C1958 C1957 1.389 . S
C1958 C1959 1.387 1_556 S
C1959 H1944 0.930 . S
C1959 C1954 1.390 . S
C1959 C1958 1.387 1_554 S
H1960 C1972 0.930 . S
H1961 C1974 0.930 . S
H1962 C1975 0.930 . S
H1963 C1979 0.959 . S
H1964 C1979 0.959 . S
H1965 C1979 0.961 . S
H1966 C1980 0.960 . S
H1967 C1980 0.961 . S
H1968 C1980 0.959 . S
H1969 C1983 0.929 . S
H1970 C1984 0.931 . S
H1971 C1986 0.930 . S
C1972 H1960 0.930 . S
C1972 C1973 1.399 . S
C1972 C1977 1.399 . S
C1973 C1972 1.399 . S
C1973 C1974 1.376 . S
C1974 H1961 0.930 . S
C1974 C1973 1.376 . S
C1974 C1975 1.388 . S
C1975 H1962 0.930 . S
C1975 C1974 1.388 . S
C1975 C1976 1.390 . S
C1976 C1975 1.390 . S
C1976 C1977 1.394 . S
C1976 C1982 1.465 . S
C1977 C1972 1.399 . S
C1977 C1976 1.394 . S
C1977 C1978 1.516 . S
C1978 C1977 1.516 . S
C1978 C1979 1.502 . S
C1978 C1980 1.561 . S
C1978 C1981 1.526 . S
C1979 H1963 0.959 . S
C1979 H1964 0.959 . S
C1979 H1965 0.961 . S
C1979 C1978 1.502 . S
C1980 H1966 0.960 . S
C1980 H1967 0.961 . S
C1980 H1968 0.959 . S
C1980 C1978 1.561 . S
C1981 C1978 1.526 . S
C1981 C1982 1.396 . S
C1981 C1986 1.390 . S
C1982 C1976 1.465 . S
C1982 C1981 1.396 . S
C1982 C1983 1.399 . S
C1983 H1969 0.929 . S
C1983 C1982 1.399 . S
C1983 C1984 1.385 . S
C1984 H1970 0.931 . S
C1984 C1983 1.385 . S
C1984 C1985 1.389 . S
C1985 C1984 1.389 . S
C1985 C1986 1.387 . S
C1986 H1971 0.930 . S
C1986 C1981 1.390 . S
C1986 C1985 1.387 . S
H1987 C1999 0.930 . S
H1988 C2001 0.930 . S
H1989 C2002 0.930 . S
H1990 C2006 0.959 . S
H1991 C2006 0.959 . S
H1992 C2006 0.961 . S
H1993 C2007 0.960 . S
H1994 C2007 0.961 1_556 S
H1995 C2007 0.959 . S
H1996 C2010 0.929 . S
H1997 C2011 0.931 . S
H1998 C2013 0.930 . S
C1999 H1987 0.930 . S
C1999 C2000 1.399 . S
C1999 C2004 1.399 . S
C2000 C1999 1.399 . S
C2000 C2001 1.376 . S
C2001 H1988 0.930 . S
C2001 C2000 1.376 . S
C2001 C2002 1.388 . S
C2002 H1989 0.930 . S
C2002 C2001 1.388 . S
C2002 C2003 1.390 . S
C2003 C2002 1.390 . S
C2003 C2004 1.394 . S
C2003 C2009 1.465 . S
C2004 C1999 1.399 . S
C2004 C2003 1.394 . S
C2004 C2005 1.516 . S
C2005 C2004 1.516 . S
C2005 C2006 1.502 . S
C2005 C2007 1.561 . S
C2005 C2008 1.526 . S
C2006 H1990 0.959 . S
C2006 H1991 0.959 . S
C2006 H1992 0.961 . S
C2006 C2005 1.502 . S
C2007 H1993 0.960 . S
C2007 H1994 0.961 1_554 S
C2007 H1995 0.959 . S
C2007 C2005 1.561 . S
C2008 C2005 1.526 . S
C2008 C2009 1.396 . S
C2008 C2013 1.390 1_554 S
C2009 C2003 1.465 . S
C2009 C2008 1.396 . S
C2009 C2010 1.399 . S
C2010 H1996 0.929 . S
C2010 C2009 1.399 . S
C2010 C2011 1.385 1_554 S
C2011 H1997 0.931 . S
C2011 C2010 1.385 1_556 S
C2011 C2012 1.389 . S
C2012 C2011 1.389 . S
C2012 C2013 1.387 . S
C2013 H1998 0.930 . S
C2013 C2008 1.390 1_556 S
C2013 C2012 1.387 . S
H2014 C2026 0.930 . S
H2015 C2028 0.930 . S
H2016 C2029 0.930 . S
H2017 C2033 0.959 . S
H2018 C2033 0.959 . S
H2019 C2033 0.961 . S
H2020 C2034 0.960 . S
H2021 C2034 0.961 . S
H2022 C2034 0.959 . S
H2023 C2037 0.929 . S
H2024 C2038 0.931 . S
H2025 C2040 0.930 . S
C2026 H2014 0.930 . S
C2026 C2027 1.399 . S
C2026 C2031 1.399 . S
C2027 C2026 1.399 . S
C2027 C2028 1.376 . S
C2028 H2015 0.930 . S
C2028 C2027 1.376 . S
C2028 C2029 1.388 . S
C2029 H2016 0.930 . S
C2029 C2028 1.388 . S
C2029 C2030 1.390 . S
C2030 C2029 1.390 . S
C2030 C2031 1.394 . S
C2030 C2036 1.465 . S
C2031 C2026 1.399 . S
C2031 C2030 1.394 . S
C2031 C2032 1.516 . S
C2032 C2031 1.516 . S
C2032 C2033 1.502 . S
C2032 C2034 1.561 . S
C2032 C2035 1.526 . S
C2033 H2017 0.959 . S
C2033 H2018 0.959 . S
C2033 H2019 0.961 . S
C2033 C2032 1.502 . S
C2034 H2020 0.960 . S
C2034 H2021 0.961 . S
C2034 H2022 0.959 . S
C2034 C2032 1.561 . S
C2035 C2032 1.526 . S
C2035 C2036 1.396 . S
C2035 C2040 1.390 . S
C2036 C2030 1.465 . S
C2036 C2035 1.396 . S
C2036 C2037 1.399 . S
C2037 H2023 0.929 . S
C2037 C2036 1.399 . S
C2037 C2038 1.385 . S
C2038 H2024 0.931 . S
C2038 C2037 1.385 . S
C2038 C2039 1.389 . S
C2039 C2038 1.389 . S
C2039 C2040 1.387 . S
C2040 H2025 0.930 . S
C2040 C2035 1.390 . S
C2040 C2039 1.387 . S
H2041 C2053 0.930 . S
H2042 C2055 0.930 . S
H2043 C2056 0.930 . S
H2044 C2060 0.959 . S
H2045 C2060 0.959 . S
H2046 C2060 0.961 . S
H2047 C2061 0.960 . S
H2048 C2061 0.961 . S
H2049 C2061 0.959 . S
H2050 C2064 0.929 . S
H2051 C2065 0.931 . S
H2052 C2067 0.930 . S
C2053 H2041 0.930 . S
C2053 C2054 1.399 . S
C2053 C2058 1.399 . S
C2054 C2053 1.399 . S
C2054 C2055 1.376 . S
C2055 H2042 0.930 . S
C2055 C2054 1.376 . S
C2055 C2056 1.388 . S
C2056 H2043 0.930 . S
C2056 C2055 1.388 . S
C2056 C2057 1.390 . S
C2057 C2056 1.390 . S
C2057 C2058 1.394 . S
C2057 C2063 1.465 . S
C2058 C2053 1.399 . S
C2058 C2057 1.394 . S
C2058 C2059 1.516 . S
C2059 C2058 1.516 . S
C2059 C2060 1.502 . S
C2059 C2061 1.561 . S
C2059 C2062 1.526 . S
C2060 H2044 0.959 . S
C2060 H2045 0.959 . S
C2060 H2046 0.961 . S
C2060 C2059 1.502 . S
C2061 H2047 0.960 . S
C2061 H2048 0.961 . S
C2061 H2049 0.959 . S
C2061 C2059 1.561 . S
C2062 C2059 1.526 . S
C2062 C2063 1.396 . S
C2062 C2067 1.390 . S
C2063 C2057 1.465 . S
C2063 C2062 1.396 . S
C2063 C2064 1.399 . S
C2064 H2050 0.929 . S
C2064 C2063 1.399 . S
C2064 C2065 1.385 . S
C2065 H2051 0.931 . S
C2065 C2064 1.385 . S
C2065 C2066 1.389 . S
C2066 C2065 1.389 . S
C2066 C2067 1.387 . S
C2067 H2052 0.930 . S
C2067 C2062 1.390 . S
C2067 C2066 1.387 . S
H2068 C2080 0.930 . S
H2069 C2082 0.930 . S
H2070 C2083 0.930 . S
H2071 C2087 0.959 . S
H2072 C2087 0.959 . S
H2073 C2087 0.961 . S
H2074 C2088 0.960 . S
H2075 C2088 0.961 . S
H2076 C2088 0.959 . S
H2077 C2091 0.929 . S
H2078 C2092 0.931 . S
H2079 C2094 0.930 . S
C2080 H2068 0.930 . S
C2080 C2081 1.399 . S
C2080 C2085 1.399 . S
C2081 C2080 1.399 . S
C2081 C2082 1.376 . S
C2082 H2069 0.930 . S
C2082 C2081 1.376 . S
C2082 C2083 1.388 . S
C2083 H2070 0.930 . S
C2083 C2082 1.388 . S
C2083 C2084 1.390 . S
C2084 C2083 1.390 . S
C2084 C2085 1.394 . S
C2084 C2090 1.465 . S
C2085 C2080 1.399 . S
C2085 C2084 1.394 . S
C2085 C2086 1.516 . S
C2086 C2085 1.516 . S
C2086 C2087 1.502 . S
C2086 C2088 1.561 . S
C2086 C2089 1.526 . S
C2087 H2071 0.959 . S
C2087 H2072 0.959 . S
C2087 H2073 0.961 . S
C2087 C2086 1.502 . S
C2088 H2074 0.960 . S
C2088 H2075 0.961 . S
C2088 H2076 0.959 . S
C2088 C2086 1.561 . S
C2089 C2086 1.526 . S
C2089 C2090 1.396 . S
C2089 C2094 1.390 . S
C2090 C2084 1.465 . S
C2090 C2089 1.396 . S
C2090 C2091 1.399 . S
C2091 H2077 0.929 . S
C2091 C2090 1.399 . S
C2091 C2092 1.385 . S
C2092 H2078 0.931 . S
C2092 C2091 1.385 . S
C2092 C2093 1.389 . S
C2093 C2092 1.389 . S
C2093 C2094 1.387 . S
C2094 H2079 0.930 . S
C2094 C2089 1.390 . S
C2094 C2093 1.387 . S
H2095 C2107 0.930 . S
H2096 C2109 0.930 1_556 S
H2097 C2110 0.930 . S
H2098 C2114 0.959 . S
H2099 C2114 0.959 . S
H2100 C2114 0.961 1_556 S
H2101 C2115 0.960 . S
H2102 C2115 0.961 . S
H2103 C2115 0.959 . S
H2104 C2118 0.929 . S
H2105 C2119 0.931 . S
H2106 C2121 0.930 . S
C2107 H2095 0.930 . S
C2107 C2108 1.399 . S
C2107 C2112 1.399 1_556 S
C2108 C2107 1.399 . S
C2108 C2109 1.376 1_556 S
C2109 H2096 0.930 1_554 S
C2109 C2108 1.376 1_554 S
C2109 C2110 1.388 . S
C2110 H2097 0.930 . S
C2110 C2109 1.388 . S
C2110 C2111 1.390 . S
C2111 C2110 1.390 . S
C2111 C2112 1.394 . S
C2111 C2117 1.465 . S
C2112 C2107 1.399 1_554 S
C2112 C2111 1.394 . S
C2112 C2113 1.516 . S
C2113 C2112 1.516 . S
C2113 C2114 1.502 . S
C2113 C2115 1.561 . S
C2113 C2116 1.526 . S
C2114 H2098 0.959 . S
C2114 H2099 0.959 . S
C2114 H2100 0.961 1_554 S
C2114 C2113 1.502 . S
C2115 H2101 0.960 . S
C2115 H2102 0.961 . S
C2115 H2103 0.959 . S
C2115 C2113 1.561 . S
C2116 C2113 1.526 . S
C2116 C2117 1.396 . S
C2116 C2121 1.390 . S
C2117 C2111 1.465 . S
C2117 C2116 1.396 . S
C2117 C2118 1.399 . S
C2118 H2104 0.929 . S
C2118 C2117 1.399 . S
C2118 C2119 1.385 . S
C2119 H2105 0.931 . S
C2119 C2118 1.385 . S
C2119 C2120 1.389 . S
C2120 C2119 1.389 . S
C2120 C2121 1.387 . S
C2121 H2106 0.930 . S
C2121 C2116 1.390 . S
C2121 C2120 1.387 . S
H2122 C2134 0.930 . S
H2123 C2136 0.930 . S
H2124 C2137 0.930 . S
H2125 C2141 0.959 . S
H2126 C2141 0.959 . S
H2127 C2141 0.961 . S
H2128 C2142 0.960 . S
H2129 C2142 0.961 . S
H2130 C2142 0.959 . S
H2131 C2145 0.929 . S
H2132 C2146 0.931 . S
H2133 C2148 0.930 . S
C2134 H2122 0.930 . S
C2134 C2135 1.399 . S
C2134 C2139 1.399 . S
C2135 C2134 1.399 . S
C2135 C2136 1.376 . S
C2136 H2123 0.930 . S
C2136 C2135 1.376 . S
C2136 C2137 1.388 . S
C2137 H2124 0.930 . S
C2137 C2136 1.388 . S
C2137 C2138 1.390 . S
C2138 C2137 1.390 . S
C2138 C2139 1.394 . S
C2138 C2144 1.465 . S
C2139 C2134 1.399 . S
C2139 C2138 1.394 . S
C2139 C2140 1.516 . S
C2140 C2139 1.516 . S
C2140 C2141 1.502 . S
C2140 C2142 1.561 . S
C2140 C2143 1.526 . S
C2141 H2125 0.959 . S
C2141 H2126 0.959 . S
C2141 H2127 0.961 . S
C2141 C2140 1.502 . S
C2142 H2128 0.960 . S
C2142 H2129 0.961 . S
C2142 H2130 0.959 . S
C2142 C2140 1.561 . S
C2143 C2140 1.526 . S
C2143 C2144 1.396 . S
C2143 C2148 1.390 . S
C2144 C2138 1.465 . S
C2144 C2143 1.396 . S
C2144 C2145 1.399 . S
C2145 H2131 0.929 . S
C2145 C2144 1.399 . S
C2145 C2146 1.385 . S
C2146 H2132 0.931 . S
C2146 C2145 1.385 . S
C2146 C2147 1.389 . S
C2147 C2146 1.389 . S
C2147 C2148 1.387 . S
C2148 H2133 0.930 . S
C2148 C2143 1.390 . S
C2148 C2147 1.387 . S
H2149 C2161 0.930 . S
H2150 C2163 0.930 . S
H2151 C2164 0.930 . S
H2152 C2168 0.959 . S
H2153 C2168 0.959 . S
H2154 C2168 0.961 . S
H2155 C2169 0.960 . S
H2156 C2169 0.961 . S
H2157 C2169 0.959 . S
H2158 C2172 0.929 . S
H2159 C2173 0.931 . S
H2160 C2175 0.930 . S
C2161 H2149 0.930 . S
C2161 C2162 1.399 . S
C2161 C2166 1.399 . S
C2162 C2161 1.399 . S
C2162 C2163 1.376 . S
C2163 H2150 0.930 . S
C2163 C2162 1.376 . S
C2163 C2164 1.388 . S
C2164 H2151 0.930 . S
C2164 C2163 1.388 . S
C2164 C2165 1.390 . S
C2165 C2164 1.390 . S
C2165 C2166 1.394 . S
C2165 C2171 1.465 . S
C2166 C2161 1.399 . S
C2166 C2165 1.394 . S
C2166 C2167 1.516 . S
C2167 C2166 1.516 . S
C2167 C2168 1.502 . S
C2167 C2169 1.561 . S
C2167 C2170 1.526 . S
C2168 H2152 0.959 . S
C2168 H2153 0.959 . S
C2168 H2154 0.961 . S
C2168 C2167 1.502 . S
C2169 H2155 0.960 . S
C2169 H2156 0.961 . S
C2169 H2157 0.959 . S
C2169 C2167 1.561 . S
C2170 C2167 1.526 . S
C2170 C2171 1.396 . S
C2170 C2175 1.390 . S
C2171 C2165 1.465 . S
C2171 C2170 1.396 . S
C2171 C2172 1.399 . S
C2172 H2158 0.929 . S
C2172 C2171 1.399 . S
C2172 C2173 1.385 . S
C2173 H2159 0.931 . S
C2173 C2172 1.385 . S
C2173 C2174 1.389 . S
C2174 C2173 1.389 . S
C2174 C2175 1.387 . S
C2175 H2160 0.930 . S
C2175 C2170 1.390 . S
C2175 C2174 1.387 . S
C461 C109 1.551 . S
C473 C11 1.490 . S
C488 C25 1.521 . S
C500 C67 1.515 . S
C515 C81 1.546 . S
C527 C39 1.498 . S
C542 C53 1.491 . S
C554 C95 1.546 . S
C569 C123 1.546 . S
C581 C221 1.489 . S
C596 C137 1.527 . S
C608 C179 1.537 . S
C623 C151 1.545 . S
C635 C193 1.489 . S
C650 C165 1.525 . S
C662 C207 1.495 . S
C677 C235 1.500 . S
C689 C333 1.543 . S
C704 C249 1.543 . S
C716 C291 1.502 . S
C731 C305 1.488 . S
C743 C263 1.549 . S
C758 C319 1.543 . S
C770 C277 1.502 . S
C785 C347 1.494 . S
C797 C445 1.551 . S
C812 C403 1.552 . S
C824 C361 1.495 . S
C839 C417 1.520 . S
C851 C375 1.542 . S
C866 C389 1.498 . S
C878 C431 1.552 . S
C893 C9 0.574 . S
C905 C93 0.625 . S
C920 C23 0.631 . S
C932 C107 0.571 . S
C947 C65 0.571 . S
C959 C37 0.629 . S
C974 C51 0.615 . S
C986 C79 0.635 . S
C1001 C121 0.659 . S
C1013 C205 0.562 . S
C1028 C135 0.657 . S
C1040 C219 0.565 . S
C1055 C177 0.575 . S
C1067 C149 0.645 . S
C1082 C191 0.566 . S
C1094 C163 0.654 . S
C1109 C233 0.575 . S
C1121 C317 0.624 . S
C1136 C331 0.584 . S
C1148 C247 0.654 . S
C1163 C289 0.564 . S
C1175 C261 0.642 . S
C1190 C275 0.645 . S
C1202 C303 0.563 . S
C1217 C345 0.644 . S
C1229 C429 0.581 . S
C1244 C359 0.587 . S
C1256 C443 0.637 . S
C1271 C401 0.579 . S
C1283 C373 0.641 . S
C1298 C415 0.646 . S
C1310 C387 0.576 . S
C1325 C5 1.523 . S
C1337 C425 1.522 . S
C1352 C19 1.517 . S
C1364 C215 1.514 . S
C1379 C33 1.523 . S
C1391 C397 1.522 . S
C1406 C47 1.522 . S
C1418 C187 1.523 . S
C1433 C61 1.506 . S
C1445 C369 1.508 . S
C1460 C75 1.517 . S
C1472 C159 1.514 . S
C1487 C89 1.506 . S
C1499 C341 1.508 . S
C1514 C131 1.523 . S
C1526 C103 1.523 . S
C1541 C313 1.522 . S
C1553 C117 1.521 . S
C1568 C145 1.510 . S
C1580 C285 1.513 . S
C1595 C257 1.523 . S
C1607 C173 1.522 . S
C1622 C229 1.523 . S
C1634 C201 1.522 . S
C1649 C243 1.514 . S
C1661 C439 1.512 . S
C1676 C271 1.524 . S
C1688 C411 1.523 . S
C1703 C299 1.507 . S
C1715 C383 1.509 . S
C1730 C355 1.523 . S
C1742 C327 1.523 . S
C1757 C0 1.570 . S
C1769 C84 1.588 . S
C1784 C14 1.599 . S
C1796 C98 1.621 . S
C1811 C56 1.621 1_556 S
C1823 C28 1.615 . S
C1838 C42 1.598 . S
C1850 C70 1.621 . S
C1865 C112 1.599 1_556 S
C1877 C196 1.621 . S
C1892 C126 1.570 . S
C1904 C210 1.603 . S
C1919 C168 1.585 . S
C1931 C140 1.622 . S
C1946 C154 1.623 . S
C1958 C182 1.593 . S
C1973 C308 1.623 1_556 S
C1985 C224 1.607 . S
C2000 C322 1.602 . S
C2012 C238 1.622 . S
C2027 C280 1.623 . S
C2039 C252 1.607 . S
C2054 C294 1.585 . S
C2066 C266 1.613 . S
C2081 C420 1.591 . S
C2093 C336 1.622 . S
C2108 C434 1.621 . S
C2120 C350 1.582 . S
C2135 C364 1.572 1_556 S
C2147 C392 1.612 . S
C2162 C406 1.571 . S
C2174 C378 1.610 . S
