# Generated by pormake.
# Topology uou, (4)-cn, num edge types: 1
# Building blocks:
#     Node 0, Type 0, BuildingBlock: TATPOV_clean_sbu_0, # of connection points: 4
#     Node 1, Type 0, BuildingBlock: TATPOV_clean_sbu_0, # of connection points: 4
#     Node 2, Type 0, BuildingBlock: TATPOV_clean_sbu_0, # of connection points: 4
#     Node 3, Type 0, BuildingBlock: TATPOV_clean_sbu_0, # of connection points: 4
#     Node 4, Type 0, BuildingBlock: TATPOV_clean_sbu_0, # of connection points: 4
#     Node 5, Type 0, BuildingBlock: TATPOV_clean_sbu_0, # of connection points: 4
#     Node 6, Type 0, BuildingBlock: TATPOV_clean_sbu_0, # of connection points: 4
#     Node 7, Type 0, BuildingBlock: TATPOV_clean_sbu_0, # of connection points: 4
#     Node 8, Type 0, BuildingBlock: TATPOV_clean_sbu_0, # of connection points: 4
#     Node 9, Type 0, BuildingBlock: TATPOV_clean_sbu_0, # of connection points: 4
#     Node 10, Type 0, BuildingBlock: TATPOV_clean_sbu_0, # of connection points: 4
#     Node 11, Type 0, BuildingBlock: TATPOV_clean_sbu_0, # of connection points: 4
#     Node 12, Type 0, BuildingBlock: TATPOV_clean_sbu_0, # of connection points: 4
#     Node 13, Type 0, BuildingBlock: TATPOV_clean_sbu_0, # of connection points: 4
#     Node 14, Type 0, BuildingBlock: TATPOV_clean_sbu_0, # of connection points: 4
#     Node 15, Type 0, BuildingBlock: TATPOV_clean_sbu_0, # of connection points: 4
#     Edge 16, Type (0, 0), BuildingBlock: ZUJKAS_clean_linker_0, # of connection points: 2
#     Edge 17, Type (0, 0), BuildingBlock: ZUJKAS_clean_linker_0, # of connection points: 2
#     Edge 18, Type (0, 0), BuildingBlock: ZUJKAS_clean_linker_0, # of connection points: 2
#     Edge 19, Type (0, 0), BuildingBlock: ZUJKAS_clean_linker_0, # of connection points: 2
#     Edge 20, Type (0, 0), BuildingBlock: ZUJKAS_clean_linker_0, # of connection points: 2
#     Edge 21, Type (0, 0), BuildingBlock: ZUJKAS_clean_linker_0, # of connection points: 2
#     Edge 22, Type (0, 0), BuildingBlock: ZUJKAS_clean_linker_0, # of connection points: 2
#     Edge 23, Type (0, 0), BuildingBlock: ZUJKAS_clean_linker_0, # of connection points: 2
#     Edge 24, Type (0, 0), BuildingBlock: ZUJKAS_clean_linker_0, # of connection points: 2
#     Edge 25, Type (0, 0), BuildingBlock: ZUJKAS_clean_linker_0, # of connection points: 2
#     Edge 26, Type (0, 0), BuildingBlock: ZUJKAS_clean_linker_0, # of connection points: 2
#     Edge 27, Type (0, 0), BuildingBlock: ZUJKAS_clean_linker_0, # of connection points: 2
#     Edge 28, Type (0, 0), BuildingBlock: ZUJKAS_clean_linker_0, # of connection points: 2
#     Edge 29, Type (0, 0), BuildingBlock: ZUJKAS_clean_linker_0, # of connection points: 2
#     Edge 30, Type (0, 0), BuildingBlock: ZUJKAS_clean_linker_0, # of connection points: 2
#     Edge 31, Type (0, 0), BuildingBlock: ZUJKAS_clean_linker_0, # of connection points: 2
#     Edge 32, Type (0, 0), BuildingBlock: ZUJKAS_clean_linker_0, # of connection points: 2
#     Edge 33, Type (0, 0), BuildingBlock: ZUJKAS_clean_linker_0, # of connection points: 2
#     Edge 34, Type (0, 0), BuildingBlock: ZUJKAS_clean_linker_0, # of connection points: 2
#     Edge 35, Type (0, 0), BuildingBlock: ZUJKAS_clean_linker_0, # of connection points: 2
#     Edge 36, Type (0, 0), BuildingBlock: ZUJKAS_clean_linker_0, # of connection points: 2
#     Edge 37, Type (0, 0), BuildingBlock: ZUJKAS_clean_linker_0, # of connection points: 2
#     Edge 38, Type (0, 0), BuildingBlock: ZUJKAS_clean_linker_0, # of connection points: 2
#     Edge 39, Type (0, 0), BuildingBlock: ZUJKAS_clean_linker_0, # of connection points: 2
#     Edge 40, Type (0, 0), BuildingBlock: ZUJKAS_clean_linker_0, # of connection points: 2
#     Edge 41, Type (0, 0), BuildingBlock: ZUJKAS_clean_linker_0, # of connection points: 2
#     Edge 42, Type (0, 0), BuildingBlock: ZUJKAS_clean_linker_0, # of connection points: 2
#     Edge 43, Type (0, 0), BuildingBlock: ZUJKAS_clean_linker_0, # of connection points: 2
#     Edge 44, Type (0, 0), BuildingBlock: ZUJKAS_clean_linker_0, # of connection points: 2
#     Edge 45, Type (0, 0), BuildingBlock: ZUJKAS_clean_linker_0, # of connection points: 2
#     Edge 46, Type (0, 0), BuildingBlock: ZUJKAS_clean_linker_0, # of connection points: 2
#     Edge 47, Type (0, 0), BuildingBlock: ZUJKAS_clean_linker_0, # of connection points: 2
# Relax obj value: 0.085
# Max RMSD: 0.140
# Mean RMSD: 0.140
data_MOF--net-uou--node1-TATPOV_clean_sbu_0--edge1-ZUJKAS_clean_linker_0
_symmetry_space_group_name_H-M    P1
_symmetry_Int_Tables_number       1
_symmetry_cell_setting            triclinic
loop_
_symmetry_equiv_pos_as_xyz
'x, y, z'
_cell_length_a     51.669005
_cell_length_b     46.669773
_cell_length_c     70.156272
_cell_angle_alpha  89.916427
_cell_angle_beta   90.059458
_cell_angle_gamma 90.14093
loop_
_atom_site_label
_atom_site_type_symbol
_atom_site_fract_x
_atom_site_fract_y
_atom_site_fract_z
_atom_type_partial_charge
Zn0 Zn 0.01439 0.05793 0.11113 0.0
Zn1 Zn 0.06454 0.05901 0.11103 0.0
O2 O 0.05411 0.02937 0.13208 0.0
O3 O 0.01173 0.02638 0.12977 0.0
O4 O 0.10411 0.05552 0.11048 0.0
O5 O 0.01153 0.04836 0.08395 0.0
O6 O 0.0541 0.04743 0.08326 0.0
C7 C 0.03267 0.01813 0.13723 0.0
C8 C 0.03349 0.11349 0.12061 0.0
O9 O 0.05552 0.10178 0.11768 0.0
O10 O 0.01305 0.09867 0.11925 0.0
C11 C 0.11733 0.05081 0.12551 0.0
O12 O 0.1054 0.05024 0.14203 0.0
C13 C 0.0323 0.04433 0.07489 0.0
Zn14 Zn 0.4891 0.9679 0.12047 0.0
Zn15 Zn 0.43965 0.96081 0.1172 0.0
O16 O 0.44636 0.99086 0.13878 0.0
O17 O 0.48767 0.00197 0.13709 0.0
O18 O 0.40011 0.96217 0.11476 0.0
O19 O 0.49452 0.97381 0.09298 0.0
O20 O 0.45229 0.97009 0.08963 0.0
C21 C 0.46557 0.00606 0.14418 0.0
C22 C 0.47276 0.91069 0.13045 0.0
O23 O 0.45064 0.91943 0.12468 0.0
O24 O 0.49169 0.92796 0.13122 0.0
C25 C 0.38571 0.96453 0.12941 0.0
O26 O 0.39646 0.96347 0.14638 0.0
C27 C 0.47472 0.97404 0.08242 0.0
Zn28 Zn 0.51412 0.96114 0.34573 0.0
Zn29 Zn 0.56404 0.95313 0.34933 0.0
O30 O 0.55883 0.98198 0.32683 0.0
O31 O 0.51737 0.99277 0.32713 0.0
O32 O 0.60362 0.95241 0.3524 0.0
O33 O 0.50933 0.97128 0.37271 0.0
O34 O 0.55147 0.96657 0.37613 0.0
C35 C 0.53981 0.99661 0.32053 0.0
C36 C 0.52899 0.90269 0.33839 0.0
O37 O 0.55152 0.9115 0.34325 0.0
O38 O 0.51034 0.9202 0.33748 0.0
C39 C 0.61881 0.95709 0.33842 0.0
O40 O 0.60889 0.96012 0.32129 0.0
C41 C 0.52928 0.97255 0.38308 0.0
Zn42 Zn 0.99488 0.01747 0.35902 0.0
Zn43 Zn 0.94549 0.02137 0.35499 0.0
O44 O 0.95897 0.00044 0.33063 0.0
O45 O 1.00134 0.00156 0.33349 0.0
O46 O 0.90621 0.0188 0.35143 0.0
O47 O 0.99288 0.99099 0.38093 0.0
O48 O 0.95128 0.00083 0.38108 0.0
C49 C 0.98144 0.99501 0.32398 0.0
C50 C 0.97782 0.07581 0.36015 0.0
O51 O 0.95591 0.06477 0.35578 0.0
O52 O 0.9971 0.05978 0.36324 0.0
C53 C 0.88966 0.02546 0.36412 0.0
O54 O 0.89781 0.03641 0.38029 0.0
C55 C 0.97096 0.98898 0.38874 0.0
Zn56 Zn 0.99847 0.9324 0.84943 0.0
Zn57 Zn 0.94907 0.93631 0.85121 0.0
O58 O 0.95975 0.96033 0.82719 0.0
O59 O 1.00128 0.95107 0.82435 0.0
O60 O 0.90974 0.94225 0.85298 0.0
O61 O 0.00451 0.95556 0.87254 0.0
O62 O 0.96232 0.9542 0.87665 0.0
C63 C 0.98109 0.96317 0.8182 0.0
C64 C 0.97626 0.87726 0.85053 0.0
O65 O 0.9552 0.89159 0.84942 0.0
O66 O 0.99771 0.89025 0.85144 0.0
C67 C 0.89545 0.94627 0.8384 0.0
O68 O 0.906 0.94507 0.82139 0.0
C69 C 0.98486 0.96136 0.88248 0.0
Zn70 Zn 0.52608 0.04223 0.86088 0.0
Zn71 Zn 0.57422 0.04044 0.85971 0.0
O72 O 0.56172 0.02122 0.83433 0.0
O73 O 0.52064 0.03329 0.83378 0.0
O74 O 0.61371 0.03519 0.85948 0.0
O75 O 0.52197 0.01113 0.87975 0.0
O76 O 0.56353 0.01828 0.88439 0.0
C77 C 0.5399 0.02192 0.82577 0.0
C78 C 0.54613 0.09715 0.86696 0.0
O79 O 0.56691 0.08479 0.86145 0.0
O80 O 0.52579 0.08262 0.86959 0.0
C81 C 0.627 0.03304 0.84425 0.0
O82 O 0.61528 0.03596 0.82773 0.0
C83 C 0.54218 0.00666 0.8894 0.0
Zn84 Zn 0.49717 0.02419 0.61764 0.0
Zn85 Zn 0.44743 0.03212 0.61623 0.0
O86 O 0.4543 0.00417 0.63904 0.0
O87 O 0.49579 0.99403 0.63729 0.0
O88 O 0.40778 0.03318 0.61502 0.0
O89 O 0.49974 0.01217 0.59086 0.0
O90 O 0.45748 0.01752 0.58911 0.0
C91 C 0.47398 0.99023 0.64497 0.0
C92 C 0.48352 0.08296 0.62431 0.0
O93 O 0.46056 0.07396 0.62092 0.0
O94 O 0.5022 0.06546 0.62452 0.0
C95 C 0.39384 0.03234 0.63 0.0
O96 O 0.40529 0.0329 0.64672 0.0
C97 C 0.47899 0.01078 0.58137 0.0
Zn98 Zn 0.0153 0.98655 0.62047 0.0
Zn99 Zn 0.06477 0.97653 0.61909 0.0
O100 O 0.05831 0.0076 0.64011 0.0
O101 O 0.01741 0.0199 0.63762 0.0
O102 O 0.10439 0.97508 0.61771 0.0
O103 O 0.01217 0.99339 0.59282 0.0
O104 O 0.05404 0.98517 0.59104 0.0
C105 C 0.03933 0.02331 0.64524 0.0
C106 C 0.02848 0.92856 0.63142 0.0
O107 O 0.05144 0.93612 0.62682 0.0
O108 O 0.01021 0.9466 0.63085 0.0
C109 C 0.11849 0.97774 0.63252 0.0
O110 O 0.10723 0.97948 0.64926 0.0
C111 C 0.03252 0.99116 0.583 0.0
Zn112 Zn 0.52351 0.55898 0.12045 0.0
Zn113 Zn 0.57227 0.55787 0.1239 0.0
O114 O 0.55744 0.53388 0.14683 0.0
O115 O 0.5154 0.54024 0.14476 0.0
O116 O 0.61135 0.55208 0.12717 0.0
O117 O 0.52267 0.53581 0.09706 0.0
O118 O 0.56496 0.54133 0.09665 0.0
C119 C 0.53464 0.52977 0.15337 0.0
C120 C 0.54374 0.61543 0.12222 0.0
O121 O 0.56491 0.60218 0.12567 0.0
O122 O 0.52338 0.60137 0.11861 0.0
C123 C 0.62836 0.55933 0.11494 0.0
O124 O 0.62097 0.57284 0.09942 0.0
C125 C 0.54411 0.53259 0.08874 0.0
Zn126 Zn 1.00056 0.47308 0.12231 0.0
Zn127 Zn 0.95032 0.4681 0.12255 0.0
O128 O 0.96037 0.49593 0.14486 0.0
O129 O 1.00229 0.50299 0.1421 0.0
O130 O 0.91055 0.47026 0.12173 0.0
O131 O 1.00271 0.48449 0.09531 0.0
O132 O 0.96033 0.47987 0.09474 0.0
C133 C 0.98118 0.50823 0.15042 0.0
C134 C 0.98343 0.41526 0.13044 0.0
O135 O 0.96077 0.42567 0.12801 0.0
O136 O 1.00308 0.43145 0.12927 0.0
C137 C 0.89679 0.47739 0.13603 0.0
O138 O 0.90819 0.48158 0.15254 0.0
C139 C 0.98161 0.48546 0.08624 0.0
Zn140 Zn 0.01479 0.42687 0.36098 0.0
Zn141 Zn 0.06426 0.4332 0.36299 0.0
O142 O 0.05271 0.45921 0.34021 0.0
O143 O 0.01024 0.45673 0.3413 0.0
O144 O 0.10315 0.44163 0.36487 0.0
O145 O 0.00909 0.43641 0.38818 0.0
O146 O 0.0506 0.44681 0.38942 0.0
C147 C 0.03057 0.46688 0.33391 0.0
C148 C 0.03977 0.37427 0.35387 0.0
O149 O 0.05996 0.38871 0.35841 0.0
O150 O 0.01798 0.38642 0.35298 0.0
C151 C 0.11894 0.43826 0.35112 0.0
O152 O 0.11037 0.42735 0.33505 0.0
C153 C 0.02837 0.44582 0.39734 0.0
Zn154 Zn 0.48452 0.55337 0.35296 0.0
Zn155 Zn 0.43602 0.55127 0.35731 0.0
O156 O 0.44496 0.52109 0.3362 0.0
O157 O 0.48731 0.51782 0.3379 0.0
O158 O 0.39704 0.5448 0.36083 0.0
O159 O 0.49274 0.55147 0.3803 0.0
O160 O 0.45119 0.54349 0.38455 0.0
C161 C 0.46606 0.50907 0.33118 0.0
C162 C 0.46173 0.60574 0.34166 0.0
O163 O 0.44157 0.59401 0.34887 0.0
O164 O 0.48246 0.59155 0.34026 0.0
C165 C 0.38123 0.54531 0.34688 0.0
O166 O 0.38997 0.55204 0.32986 0.0
C167 C 0.47413 0.54556 0.39127 0.0
Zn168 Zn 0.48532 0.44451 0.86853 0.0
Zn169 Zn 0.43724 0.44593 0.86826 0.0
O170 O 0.44809 0.46549 0.84257 0.0
O171 O 0.48942 0.45453 0.84146 0.0
O172 O 0.39788 0.45139 0.86877 0.0
O173 O 0.49057 0.47443 0.88798 0.0
O174 O 0.44928 0.46651 0.89333 0.0
C175 C 0.46963 0.46518 0.83366 0.0
C176 C 0.46548 0.38904 0.87365 0.0
O177 O 0.44446 0.40158 0.86882 0.0
O178 O 0.48583 0.40356 0.87631 0.0
C179 C 0.38313 0.44487 0.85487 0.0
O180 O 0.39328 0.43272 0.83975 0.0
C181 C 0.47081 0.47783 0.89828 0.0
Zn182 Zn 0.00775 0.51591 0.84908 0.0
Zn183 Zn 0.05769 0.5222 0.85192 0.0
O184 O 0.05111 0.49769 0.82739 0.0
O185 O 0.00946 0.48794 0.828 0.0
O186 O 0.09711 0.52043 0.8551 0.0
O187 O 1.00269 0.5018 0.87533 0.0
O188 O 0.04485 0.50677 0.87825 0.0
C189 C 0.03136 0.48507 0.82029 0.0
C190 C 0.02454 0.57489 0.84456 0.0
O191 O 0.04705 0.56482 0.8481 0.0
O192 O 0.00522 0.55818 0.84364 0.0
C193 C 0.11315 0.5228 0.84141 0.0
O194 O 0.10436 0.52853 0.82424 0.0
C195 C 0.02291 0.50001 0.88537 0.0
Zn196 Zn 0.98134 0.59 0.61425 0.0
Zn197 Zn 0.93183 0.57798 0.61313 0.0
O198 O 0.94644 0.55095 0.63428 0.0
O199 O 0.98842 0.55855 0.63255 0.0
O200 O 0.89343 0.56702 0.61146 0.0
O201 O 0.98586 0.58297 0.58652 0.0
O202 O 0.94542 0.56809 0.58602 0.0
C203 C 0.96947 0.54518 0.6397 0.0
C204 C 0.95165 0.63836 0.62419 0.0
O205 O 0.93279 0.6219 0.6197 0.0
O206 O 0.97465 0.62926 0.62387 0.0
C207 C 0.8796 0.56117 0.62599 0.0
O208 O 0.89003 0.5632 0.64303 0.0
C209 C 0.96702 0.57204 0.57758 0.0
Zn210 Zn 0.51534 0.43221 0.61276 0.0
Zn211 Zn 0.56394 0.44218 0.61576 0.0
O212 O 0.54788 0.46111 0.63993 0.0
O213 O 0.50761 0.44566 0.63886 0.0
O214 O 0.60253 0.4521 0.61835 0.0
O215 O 0.51041 0.4586 0.59111 0.0
O216 O 0.55285 0.46193 0.59024 0.0
C217 C 0.52538 0.45925 0.64733 0.0
C218 C 0.5427 0.38052 0.6113 0.0
O219 O 0.56156 0.39706 0.61573 0.0
O220 O 0.52064 0.39089 0.60782 0.0
C221 C 0.61747 0.45566 0.60409 0.0
O222 O 0.60817 0.45166 0.58686 0.0
C223 C 0.5307 0.46769 0.5831 0.0
H224 H 0.35747 0.97394 0.09666 0.0
H225 H 0.31219 0.98932 0.09421 0.0
H226 H 0.30517 0.98589 0.15538 0.0
H227 H 0.35026 0.97089 0.15799 0.0
H228 H 0.26562 0.96391 0.10673 0.0
H229 H 0.2824 0.06771 0.14303 0.0
H230 H 0.30854 0.04579 0.13427 0.0
H231 H 0.2932 0.03736 0.1566 0.0
C232 C 0.34625 0.9763 0.10959 0.0
C233 C 0.35766 0.97137 0.12754 0.0
C234 C 0.32036 0.98513 0.10816 0.0
C235 C 0.30539 0.98937 0.12463 0.0
C236 C 0.31646 0.98346 0.14249 0.0
H237 H 0.15047 0.0398 0.15503 0.0
H238 H 0.19584 0.02546 0.15343 0.0
C239 C 0.34227 0.97467 0.14394 0.0
C240 C 0.27828 0.00012 0.12328 0.0
H241 H 0.23846 0.0539 0.13842 0.0
C242 C 0.25971 0.98372 0.1135 0.0
C243 C 0.27054 0.02603 0.13206 0.0
C244 C 0.28974 0.04541 0.14193 0.0
C245 C 0.2335 0.99196 0.11288 0.0
C246 C 0.22568 0.01758 0.12202 0.0
C247 C 0.24437 0.03424 0.13147 0.0
C248 C 0.19809 0.02692 0.12266 0.0
C249 C 0.21423 0.97263 0.10306 0.0
C250 C 0.18424 0.03312 0.1059 0.0
C251 C 0.15816 0.0414 0.10676 0.0
C252 C 0.14542 0.04378 0.12442 0.0
C253 C 0.15956 0.03817 0.14117 0.0
C254 C 0.18557 0.02994 0.14029 0.0
H255 H 0.22217 0.95082 0.10067 0.0
H256 H 0.19616 0.97073 0.11152 0.0
H257 H 0.2092 0.9819 0.08896 0.0
H258 H 0.1936 0.03155 0.09214 0.0
H259 H 0.14794 0.04563 0.09357 0.0
H260 H 0.64684 0.95204 0.37171 0.0
H261 H 0.69286 0.96313 0.37665 0.0
H262 H 0.70063 0.98427 0.31712 0.0
H263 H 0.65492 0.97317 0.312 0.0
H264 H 0.73898 0.93958 0.35661 0.0
H265 H 0.72642 0.05699 0.34708 0.0
H266 H 0.69975 0.03328 0.35261 0.0
H267 H 0.71242 0.03482 0.32881 0.0
C268 C 0.65837 0.95886 0.35964 0.0
C269 C 0.64706 0.9618 0.34147 0.0
C270 C 0.68467 0.9652 0.36249 0.0
C271 C 0.7001 0.97489 0.3473 0.0
C272 C 0.68903 0.9772 0.3291 0.0
H273 H 0.86696 0.9941 0.33549 0.0
H274 H 0.82112 0.98164 0.33187 0.0
C275 C 0.66286 0.9707 0.3262 0.0
C276 C 0.72769 0.98295 0.3504 0.0
H277 H 0.76948 0.0399 0.34917 0.0
C278 C 0.74565 0.96151 0.35504 0.0
C279 C 0.73635 0.01161 0.3485 0.0
C280 C 0.71777 0.03563 0.34412 0.0
C281 C 0.77212 0.9679 0.35741 0.0
C282 C 0.78086 0.99646 0.35505 0.0
C283 C 0.7628 0.01798 0.35082 0.0
C284 C 0.80866 0.00442 0.35705 0.0
C285 C 0.79056 0.94413 0.3626 0.0
C286 C 0.81686 0.02187 0.37219 0.0
C287 C 0.84308 0.02896 0.37435 0.0
C288 C 0.86165 0.01907 0.36126 0.0
C289 C 0.85325 0.00212 0.34584 0.0
C290 C 0.82705 0.99482 0.3438 0.0
H291 H 0.7802 0.9246 0.36753 0.0
H292 H 0.80222 0.93841 0.34989 0.0
H293 H 0.80411 0.95122 0.37396 0.0
H294 H 0.80299 0.02965 0.38252 0.0
H295 H 0.84879 0.0421 0.38636 0.0
H296 H 0.86041 0.95678 0.80999 0.0
H297 H 0.81521 0.97123 0.81305 0.0
H298 H 0.82165 0.96719 0.87426 0.0
H299 H 0.86716 0.95307 0.87135 0.0
H300 H 0.77389 0.9433 0.82966 0.0
H301 H 0.7918 0.04709 0.86605 0.0
H302 H 0.81729 0.02707 0.85465 0.0
H303 H 0.80559 0.01643 0.87772 0.0
C304 C 0.8523 0.95894 0.82414 0.0
C305 C 0.86757 0.95385 0.84043 0.0
C306 C 0.82637 0.96722 0.82586 0.0
C307 C 0.81504 0.97079 0.84388 0.0
C308 C 0.83006 0.96521 0.8602 0.0
H309 H 0.65743 0.02268 0.87577 0.0
H310 H 0.70278 0.00718 0.8764 0.0
C311 C 0.85606 0.95691 0.8585 0.0
C312 C 0.78744 0.97993 0.84541 0.0
H313 H 0.74807 0.03328 0.86195 0.0
C314 C 0.76828 0.96298 0.83673 0.0
C315 C 0.78001 0.00557 0.8547 0.0
C316 C 0.79972 0.02528 0.86368 0.0
C317 C 0.74202 0.97088 0.83707 0.0
C318 C 0.73464 0.99676 0.84605 0.0
C319 C 0.75371 0.01348 0.85504 0.0
C320 C 0.70735 0.00714 0.84575 0.0
C321 C 0.72236 0.95122 0.82798 0.0
C322 C 0.69495 0.01297 0.82836 0.0
C323 C 0.66909 0.02186 0.82794 0.0
C324 C 0.65497 0.02529 0.84494 0.0
C325 C 0.66764 0.0202 0.8624 0.0
C326 C 0.69359 0.01132 0.86279 0.0
H327 H 0.72985 0.92903 0.82657 0.0
H328 H 0.70415 0.9506 0.83637 0.0
H329 H 0.71773 0.95922 0.81347 0.0
H330 H 0.70528 0.01055 0.81503 0.0
H331 H 0.6601 0.02573 0.81423 0.0
H332 H 0.14843 0.97964 0.60008 0.0
H333 H 0.19531 0.98753 0.59791 0.0
H334 H 0.20004 0.99213 0.65918 0.0
H335 H 0.15349 0.98395 0.6615 0.0
H336 H 0.22425 0.03426 0.61072 0.0
H337 H 0.2568 0.9349 0.64662 0.0
H338 H 0.22412 0.93953 0.63807 0.0
H339 H 0.23394 0.95492 0.66045 0.0
C340 C 0.15949 0.98201 0.6131 0.0
C341 C 0.14712 0.98098 0.63097 0.0
C342 C 0.18629 0.98662 0.61183 0.0
C343 C 0.20133 0.99003 0.62839 0.0
C344 C 0.18902 0.98895 0.64621 0.0
H345 H 0.35921 0.02903 0.65938 0.0
H346 H 0.31276 0.01953 0.65772 0.0
C347 C 0.16229 0.98439 0.6475 0.0
C348 C 0.22971 0.99574 0.62713 0.0
H349 H 0.28855 0.97158 0.64257 0.0
C350 C 0.23834 0.02041 0.61751 0.0
C351 C 0.24815 0.97768 0.63598 0.0
C352 C 0.24035 0.95013 0.6457 0.0
C353 C 0.26475 0.02802 0.61709 0.0
C354 C 0.28311 0.01026 0.6263 0.0
C355 C 0.2745 0.98531 0.6356 0.0
C356 C 0.31126 0.01741 0.62694 0.0
C357 C 0.27264 0.05555 0.60739 0.0
C358 C 0.32604 0.01949 0.61018 0.0
C359 C 0.35273 0.02501 0.61107 0.0
C360 C 0.36525 0.02842 0.62877 0.0
C361 C 0.35031 0.0266 0.64549 0.0
C362 C 0.32369 0.02109 0.64458 0.0
H363 H 0.25587 0.07001 0.60509 0.0
H364 H 0.28749 0.0671 0.61588 0.0
H365 H 0.2811 0.05052 0.59326 0.0
H366 H 0.31704 0.01622 0.5964 0.0
H367 H 0.36363 0.02607 0.5979 0.0
H368 H 0.86638 0.47211 0.10393 0.0
H369 H 0.8207 0.48535 0.10027 0.0
H370 H 0.81772 0.50969 0.15945 0.0
H371 H 0.86319 0.49662 0.16327 0.0
H372 H 0.77527 0.46562 0.12062 0.0
H373 H 0.79288 0.58212 0.13041 0.0
H374 H 0.81853 0.55718 0.12508 0.0
H375 H 0.80587 0.55959 0.14886 0.0
C376 C 0.85599 0.48013 0.1162 0.0
C377 C 0.8686 0.48342 0.13387 0.0
C378 C 0.82985 0.48769 0.11408 0.0
C379 C 0.81587 0.49895 0.12951 0.0
C380 C 0.8282 0.50153 0.14726 0.0
H381 H 0.6494 0.52428 0.14236 0.0
H382 H 0.69463 0.50937 0.14568 0.0
C383 C 0.85423 0.49388 0.14942 0.0
C384 C 0.78848 0.50828 0.12708 0.0
H385 H 0.74906 0.56698 0.12932 0.0
C386 C 0.76953 0.48778 0.12249 0.0
C387 C 0.78102 0.53726 0.12933 0.0
C388 C 0.80062 0.56042 0.13353 0.0
C389 C 0.74331 0.4954 0.12045 0.0
C390 C 0.73577 0.52426 0.12317 0.0
C391 C 0.75479 0.54483 0.12741 0.0
C392 C 0.7083 0.5336 0.12137 0.0
C393 C 0.72387 0.47259 0.11515 0.0
C394 C 0.70098 0.5527 0.10687 0.0
C395 C 0.67512 0.56125 0.10491 0.0
C396 C 0.65601 0.55115 0.11756 0.0
C397 C 0.66353 0.53248 0.13234 0.0
C398 C 0.68938 0.52377 0.1342 0.0
H399 H 0.73339 0.45298 0.10959 0.0
H400 H 0.71253 0.46656 0.12797 0.0
H401 H 0.71015 0.48071 0.10422 0.0
H402 H 0.71524 0.5607 0.09687 0.0
H403 H 0.6701 0.57569 0.09339 0.0
H404 H 0.34178 0.54923 0.32095 0.0
H405 H 0.29727 0.53193 0.32415 0.0
H406 H 0.31368 0.50317 0.38128 0.0
H407 H 0.35836 0.52054 0.37825 0.0
H408 H 0.28848 0.46136 0.35692 0.0
H409 H 0.2376 0.566 0.35684 0.0
H410 H 0.26053 0.56126 0.33785 0.0
H411 H 0.27171 0.5627 0.36208 0.0
C412 C 0.33592 0.53948 0.33429 0.0
C413 C 0.35372 0.53638 0.34936 0.0
C414 C 0.31039 0.52968 0.33611 0.0
C415 C 0.30202 0.51647 0.35301 0.0
C416 C 0.31966 0.51342 0.36813 0.0
H417 H 0.14135 0.47002 0.37973 0.0
H418 H 0.18589 0.48817 0.38132 0.0
C419 C 0.34518 0.52345 0.36639 0.0
C420 C 0.27518 0.50489 0.35455 0.0
H421 H 0.21141 0.52436 0.35334 0.0
C422 C 0.27163 0.47514 0.35627 0.0
C423 C 0.25318 0.52287 0.35385 0.0
C424 C 0.25581 0.55502 0.35272 0.0
C425 C 0.24671 0.46288 0.35674 0.0
C426 C 0.22471 0.48079 0.35539 0.0
C427 C 0.22826 0.5106 0.35424 0.0
C428 C 0.19789 0.46897 0.35474 0.0
C429 C 0.24407 0.43082 0.35872 0.0
C430 C 0.18975 0.45221 0.33923 0.0
C431 C 0.16427 0.44194 0.33822 0.0
C432 C 0.14633 0.44811 0.35273 0.0
C433 C 0.15463 0.46469 0.36835 0.0
C434 C 0.18009 0.47517 0.36926 0.0
H435 H 0.2622 0.42085 0.36403 0.0
H436 H 0.22803 0.42523 0.36858 0.0
H437 H 0.23954 0.42145 0.34457 0.0
H438 H 0.203 0.44746 0.32772 0.0
H439 H 0.1586 0.42933 0.32595 0.0
H440 H 0.15281 0.52961 0.81589 0.0
H441 H 0.19843 0.51702 0.82005 0.0
H442 H 0.18292 0.48986 0.87766 0.0
H443 H 0.13719 0.50242 0.87366 0.0
H444 H 0.23563 0.53654 0.84818 0.0
H445 H 0.21755 0.41916 0.85186 0.0
H446 H 0.19389 0.44404 0.84267 0.0
H447 H 0.19891 0.44089 0.86791 0.0
C448 C 0.15907 0.5211 0.8295 0.0
C449 C 0.14121 0.51693 0.84441 0.0
C450 C 0.1852 0.51393 0.83185 0.0
C451 C 0.19407 0.50214 0.84908 0.0
C452 C 0.17647 0.49854 0.86415 0.0
H453 H 0.35668 0.47644 0.88156 0.0
H454 H 0.31097 0.49045 0.88098 0.0
C455 C 0.15033 0.50589 0.86186 0.0
C456 C 0.22164 0.4933 0.8511 0.0
H457 H 0.26067 0.43468 0.85633 0.0
C458 C 0.24112 0.51429 0.85005 0.0
C459 C 0.22881 0.46422 0.85333 0.0
C460 C 0.20878 0.44065 0.85388 0.0
C461 C 0.26751 0.50701 0.85126 0.0
C462 C 0.27466 0.47796 0.85368 0.0
C463 C 0.25518 0.45696 0.85464 0.0
C464 C 0.30228 0.46884 0.85447 0.0
C465 C 0.28759 0.53037 0.84948 0.0
C466 C 0.31251 0.45146 0.84001 0.0
C467 C 0.33862 0.44343 0.84029 0.0
C468 C 0.35509 0.45234 0.85516 0.0
C469 C 0.34463 0.46921 0.86988 0.0
C470 C 0.31851 0.47739 0.86951 0.0
H471 H 0.27921 0.55061 0.84388 0.0
H472 H 0.29602 0.53481 0.86373 0.0
H473 H 0.30355 0.52357 0.83992 0.0
H474 H 0.30036 0.44449 0.8283 0.0
H475 H 0.34593 0.43038 0.82874 0.0
H476 H 0.64335 0.46698 0.63757 0.0
H477 H 0.68763 0.48516 0.64141 0.0
H478 H 0.69759 0.48481 0.58042 0.0
H479 H 0.65343 0.46694 0.57643 0.0
H480 H 0.73516 0.46155 0.62946 0.0
H481 H 0.71806 0.56681 0.59488 0.0
H482 H 0.69196 0.54374 0.60254 0.0
H483 H 0.70874 0.53656 0.58063 0.0
C484 C 0.65495 0.47076 0.62497 0.0
C485 C 0.64469 0.46562 0.60668 0.0
C486 C 0.68028 0.48116 0.62719 0.0
C487 C 0.69583 0.48686 0.61119 0.0
C488 C 0.68582 0.4812 0.59296 0.0
H489 H 0.85248 0.55129 0.59288 0.0
H490 H 0.80823 0.53294 0.58958 0.0
C491 C 0.66056 0.47077 0.59073 0.0
C492 C 0.7226 0.4984 0.61352 0.0
H493 H 0.7617 0.55505 0.60189 0.0
C494 C 0.74093 0.48207 0.62353 0.0
C495 C 0.7302 0.52514 0.60572 0.0
C496 C 0.71119 0.54425 0.59548 0.0
C497 C 0.76671 0.49142 0.62562 0.0
C498 C 0.77432 0.51818 0.61782 0.0
C499 C 0.75595 0.53454 0.60784 0.0
C500 C 0.80118 0.52963 0.6199 0.0
C501 C 0.78573 0.47216 0.63572 0.0
C502 C 0.81189 0.53444 0.63803 0.0
C503 C 0.83721 0.54488 0.63997 0.0
C504 C 0.85239 0.55102 0.62381 0.0
C505 C 0.84142 0.54676 0.60564 0.0
C506 C 0.81609 0.53625 0.60373 0.0
H507 H 0.77893 0.44956 0.63604 0.0
H508 H 0.80501 0.47291 0.62876 0.0
H509 H 0.788 0.47946 0.65067 0.0
H510 H 0.80062 0.5302 0.65074 0.0
H511 H 0.84488 0.54806 0.65418 0.0
H512 H 0.02617 0.99197 0.3039 0.0
H513 H 0.03179 0.97812 0.27091 0.0
H514 H 0.95092 0.95538 0.26729 0.0
H515 H 0.94477 0.97072 0.30045 0.0
H516 H 0.02582 0.93178 0.24929 0.0
H517 H 0.95561 0.01614 0.22724 0.0
H518 H 0.96646 0.01258 0.25151 0.0
H519 H 0.94274 0.98816 0.24202 0.0
C520 C 0.00951 0.98381 0.29622 0.0
C521 C 0.98486 0.983 0.30469 0.0
C522 C 0.01284 0.97569 0.27733 0.0
C523 C 0.9917 0.96624 0.2665 0.0
C524 C 0.96737 0.96335 0.27527 0.0
H525 H 0.99509 0.97866 0.14355 0.0
H526 H 0.98558 0.95493 0.17374 0.0
C527 C 0.96389 0.97202 0.2942 0.0
C528 C 0.99517 0.96263 0.24569 0.0
H529 H 0.97952 0.9942 0.2034 0.0
C530 C 0.01537 0.94501 0.23917 0.0
C531 C 0.98159 0.98002 0.23251 0.0
C532 C 0.96054 0.00047 0.2386 0.0
C533 C 0.02327 0.94555 0.22003 0.0
C534 C 0.0105 0.96397 0.20717 0.0
C535 C 0.98921 0.98002 0.21338 0.0
C536 C 0.02031 0.96989 0.1878 0.0
C537 C 0.04572 0.92725 0.21383 0.0
C538 C 0.04368 0.98495 0.18546 0.0
C539 C 0.04921 0.99862 0.16816 0.0
C540 C 0.0312 0.99761 0.15318 0.0
C541 C 0.00914 0.98011 0.15499 0.0
C542 C 1.00373 0.96639 0.17217 0.0
H543 H 0.04863 0.90879 0.22361 0.0
H544 H 0.04275 0.9191 0.19912 0.0
H545 H 0.06365 0.94039 0.21394 0.0
H546 H 0.05653 0.98829 0.19747 0.0
H547 H 0.06632 0.01198 0.16714 0.0
H548 H 0.48569 0.05945 0.1491 0.0
H549 H 0.49707 0.08064 0.17994 0.0
H550 H 0.45679 0.01179 0.20854 0.0
H551 H 0.44368 0.99213 0.17786 0.0
H552 H 0.45688 0.05638 0.23022 0.0
H553 H 0.55727 0.04192 0.20301 0.0
H554 H 0.53845 0.0687 0.19107 0.0
H555 H 0.52942 0.03149 0.18928 0.0
C556 C 0.47826 0.04976 0.16204 0.0
C557 C 0.46408 0.02407 0.16125 0.0
C558 C 0.48512 0.06157 0.17963 0.0
C559 C 0.47894 0.04701 0.19654 0.0
C560 C 0.46213 0.02326 0.1957 0.0
H561 H 0.55847 0.98104 0.28621 0.0
H562 H 0.54696 0.00364 0.25601 0.0
C563 C 0.45451 0.01205 0.17814 0.0
C564 C 0.4926 0.05326 0.21472 0.0
H565 H 0.55235 0.04916 0.23546 0.0
C566 C 0.4778 0.05527 0.2314 0.0
C567 C 0.51998 0.05181 0.21618 0.0
C568 C 0.53725 0.04815 0.19899 0.0
C569 C 0.48921 0.05294 0.24948 0.0
C570 C 0.51651 0.05023 0.25093 0.0
C571 C 0.5315 0.0512 0.23429 0.0
C572 C 0.52925 0.041 0.2689 0.0
C573 C 0.47159 0.0507 0.2666 0.0
C574 C 0.52498 0.05542 0.28615 0.0
C575 C 0.53088 0.04201 0.30343 0.0
C576 C 0.54229 0.01474 0.30358 0.0
C577 C 0.54989 0.0022 0.28638 0.0
C578 C 0.54318 0.01511 0.26912 0.0
H579 H 0.45101 0.04756 0.26246 0.0
H580 H 0.47735 0.03251 0.27589 0.0
H581 H 0.47281 0.07075 0.27501 0.0
H582 H 0.51528 0.07594 0.28633 0.0
H583 H 0.52492 0.05202 0.31664 0.0
H584 H 0.0095 0.06934 0.6541 0.0
H585 H 0.99927 0.08466 0.68646 0.0
H586 H 0.06053 0.03102 0.70815 0.0
H587 H 0.07115 0.01622 0.67588 0.0
H588 H 0.9807 0.0419 0.70677 0.0
H589 H 0.0586 0.09123 0.74885 0.0
H590 H 0.05827 0.09255 0.72308 0.0
H591 H 0.07167 0.06204 0.73543 0.0
C592 C 0.02165 0.062 0.66571 0.0
C593 C 0.04072 0.04107 0.66258 0.0
C594 C 0.01579 0.07082 0.6842 0.0
C595 C 0.02889 0.05879 0.69978 0.0
C596 C 0.05033 0.04097 0.6964 0.0
H597 H 0.01939 0.96201 0.79203 0.0
H598 H 0.02629 0.99432 0.7654 0.0
C599 C 0.05637 0.03235 0.67787 0.0
C600 C 0.01633 0.058 0.71876 0.0
H601 H 0.03176 0.05513 0.76591 0.0
C602 C 0.99143 0.04585 0.7198 0.0
C603 C 0.03017 0.06337 0.73574 0.0
C604 C 0.05605 0.07832 0.73568 0.0
C605 C 0.98149 0.03551 0.73708 0.0
C606 C 0.99675 0.03782 0.75371 0.0
C607 C 0.02023 0.05307 0.75305 0.0
C608 C 0.99176 0.01932 0.77043 0.0
C609 C 0.95606 0.01951 0.73702 0.0
C610 C 0.96966 0.0223 0.78191 0.0
C611 C 0.96541 0.00339 0.79718 0.0
C612 C 0.98338 0.98158 0.80116 0.0
C613 C 0.00523 0.97865 0.78943 0.0
C614 C 0.00933 0.99725 0.77426 0.0
H615 H 0.94748 0.01798 0.72253 0.0
H616 H 0.95878 0.9975 0.7427 0.0
H617 H 0.94206 0.03067 0.7464 0.0
H618 H 0.95591 0.03929 0.77919 0.0
H619 H 0.94854 0.0063 0.80611 0.0
H620 H 0.50339 0.94399 0.65365 0.0
H621 H 0.51341 0.92731 0.6858 0.0
H622 H 0.45411 0.98263 0.70835 0.0
H623 H 0.44362 -0.0012 0.67619 0.0
H624 H 0.53311 0.96841 0.70754 0.0
H625 H 0.45256 0.9183 0.74678 0.0
H626 H 0.45361 0.91931 0.72103 0.0
H627 H 0.44143 0.94946 0.7343 0.0
C628 C 0.49166 0.95153 0.66541 0.0
C629 C 0.47304 0.97303 0.66256 0.0
C630 C 0.4974 0.94194 0.68376 0.0
C631 C 0.48467 0.95383 0.6995 0.0
C632 C 0.46392 0.97276 0.69643 0.0
H633 H 0.50092 0.03239 0.80104 0.0
H634 H 0.49121 0.00774 0.77144 0.0
C635 C 0.45797 0.98213 0.67801 0.0
C636 C 0.49688 0.95245 0.71857 0.0
H637 H 0.48184 0.94866 0.76575 0.0
C638 C 0.52224 0.96315 0.7203 0.0
C639 C 0.48277 0.94547 0.73515 0.0
C640 C 0.45618 0.9322 0.73419 0.0
C641 C 0.53277 0.97001 0.73813 0.0
C642 C 0.51764 0.96559 0.75462 0.0
C643 C 0.49331 0.95225 0.75302 0.0
C644 C 0.52434 0.97955 0.77286 0.0
C645 C 0.55896 0.98438 0.73903 0.0
C646 C 0.54658 0.97222 0.78331 0.0
C647 C 0.55246 0.9867 0.80028 0.0
C648 C 0.53597 0.00835 0.80701 0.0
C649 C 0.51396 0.01571 0.79631 0.0
C650 C 0.50826 0.0015 0.77944 0.0
H651 H 0.56698 0.98892 0.72465 0.0
H652 H 0.55766 0.00486 0.74701 0.0
H653 H 0.57275 0.97028 0.7467 0.0
H654 H 0.55915 0.95519 0.77848 0.0
H655 H 0.5694 0.98043 0.80836 0.0
H656 H 0.49002 0.52748 0.17351 0.0
H657 H 0.48164 0.50283 0.20325 0.0
H658 H 0.55931 0.46902 0.20312 0.0
H659 H 0.5683 0.49485 0.17325 0.0
H660 H 0.48213 0.44735 0.21477 0.0
H661 H 0.55749 0.51081 0.25324 0.0
H662 H 0.548 0.5194 0.2292 0.0
H663 H 0.56813 0.48881 0.23381 0.0
C664 C 0.50542 0.51476 0.17968 0.0
C665 C 0.52998 0.51343 0.17112 0.0
C666 C 0.50049 0.50045 0.19667 0.0
C667 C 0.51987 0.48425 0.20552 0.0
C668 C 0.5442 0.48183 0.19669 0.0
H669 H 0.5004 0.46585 0.32652 0.0
H670 H 0.51286 0.44513 0.29597 0.0
C671 C 0.54931 0.49657 0.17966 0.0
C672 C 0.51455 0.47242 0.22473 0.0
H673 H 0.52735 0.48622 0.27145 0.0
C674 C 0.49239 0.45522 0.22721 0.0
C675 C 0.52804 0.48252 0.24094 0.0
C676 C 0.55165 0.50153 0.2393 0.0
C677 C 0.48213 0.44997 0.24541 0.0
C678 C 0.49439 0.46218 0.26144 0.0
C679 C 0.51793 0.4769 0.25909 0.0
C680 C 0.48149 0.46461 0.28021 0.0
C681 C 0.45761 0.43263 0.24722 0.0
C682 C 0.45861 0.48072 0.28172 0.0
C683 C 0.4513 0.49242 0.29925 0.0
C684 C 0.46708 0.48847 0.31532 0.0
C685 C 0.48805 0.4694 0.31425 0.0
C686 C 0.49518 0.4575 0.29681 0.0
H687 H 0.45613 0.41651 0.23563 0.0
H688 H 0.45658 0.42147 0.26119 0.0
H689 H 0.4407 0.44713 0.24598 0.0
H690 H 0.44795 0.48688 0.26907 0.0
H691 H 0.43514 0.50714 0.29969 0.0
H692 H 0.98648 0.47896 0.31451 0.0
H693 H 0.98199 0.50477 0.28476 0.0
H694 H 0.06345 0.52541 0.28563 0.0
H695 H 0.06845 0.49799 0.31534 0.0
H696 H 0.98923 0.55728 0.27147 0.0
H697 H 0.05857 0.48243 0.23665 0.0
H698 H 0.04742 0.47691 0.26067 0.0
H699 H 0.07149 0.5038 0.25566 0.0
C700 C 1.00353 0.4891 0.30854 0.0
C701 C 0.02797 0.4859 0.31712 0.0
C702 C 1.00085 0.5041 0.29153 0.0
C703 C 0.02244 0.51658 0.28272 0.0
C704 C 0.04662 0.51527 0.29191 0.0
H705 H 0.01795 0.54674 0.16107 0.0
H706 H 0.02801 0.56083 0.19371 0.0
C707 C 0.04945 0.49972 0.30891 0.0
C708 C 0.01943 0.52803 0.26311 0.0
H709 H 0.03468 0.51242 0.21702 0.0
C710 C 0.99954 0.54791 0.25955 0.0
C711 C 0.03285 0.51578 0.24755 0.0
C712 C 0.05364 0.49341 0.25021 0.0
C713 C 0.9916 0.55436 0.24088 0.0
C714 C 1.00405 0.54083 0.22548 0.0
C715 C 0.02523 0.52279 0.22895 0.0
C716 C 0.99369 0.54154 0.20583 0.0
C717 C 0.96933 0.57464 0.23778 0.0
C718 C 0.97027 0.52746 0.20173 0.0
C719 C 0.96445 0.51926 0.18303 0.0
C720 C 0.98218 0.52481 0.16831 0.0
C721 C 1.00408 0.54183 0.17219 0.0
C722 C 0.00984 0.55003 0.19082 0.0
H723 H 0.96683 0.58929 0.25011 0.0
H724 H 0.97222 0.58758 0.22465 0.0
H725 H 0.95122 0.56207 0.23608 0.0
H726 H 0.95772 0.52034 0.21316 0.0
H727 H 0.94746 0.50616 0.18048 0.0
H728 H 0.49061 0.44044 0.67306 0.0
H729 H 0.47885 0.46199 0.7032 0.0
H730 H 0.53347 0.53062 0.69339 0.0
H731 H 0.54642 0.50788 0.66324 0.0
H732 H 0.53766 0.51529 0.72763 0.0
H733 H 0.43351 0.52571 0.71736 0.0
H734 H 0.4408 0.48943 0.71132 0.0
H735 H 0.45478 0.51838 0.69755 0.0
C736 C 0.50004 0.46023 0.67723 0.0
C737 C 0.51935 0.47257 0.66581 0.0
C738 C 0.49296 0.47286 0.69436 0.0
C739 C 0.50439 0.49869 0.70026 0.0
C740 C 0.52399 0.511 0.68896 0.0
H741 H 0.44207 0.50867 0.81639 0.0
H742 H 0.45038 0.52942 0.78461 0.0
C743 C 0.53152 0.49793 0.67186 0.0
C744 C 0.49767 0.51028 0.71931 0.0
H745 H 0.44687 0.50902 0.75024 0.0
C746 C 0.51772 0.51499 0.73244 0.0
C747 C 0.47168 0.51155 0.72569 0.0
C748 C 0.44906 0.51137 0.71208 0.0
C749 C 0.51259 0.51636 0.75201 0.0
C750 C 0.48702 0.51152 0.75854 0.0
C751 C 0.46665 0.51145 0.74533 0.0
C752 C 0.482 0.50066 0.77805 0.0
C753 C 0.5349 0.52105 0.76554 0.0
C754 C 0.49622 0.47701 0.78452 0.0
C755 C 0.49168 0.46546 0.80244 0.0
C756 C 0.47231 0.47675 0.81422 0.0
C757 C 0.45714 0.49963 0.80755 0.0
C758 C 0.46201 0.51159 0.78952 0.0
H759 H 0.54879 0.53682 0.75948 0.0
H760 H 0.52827 0.52889 0.77965 0.0
H761 H 0.54552 0.50062 0.76752 0.0
H762 H 0.5108 0.46717 0.77561 0.0
H763 H 0.50336 0.44748 0.80705 0.0
H764 H 0.06383 0.49786 0.79076 0.0
H765 H 0.05377 0.48965 0.75708 0.0
H766 H 0.98995 0.43511 0.77307 0.0
H767 H 0.99974 0.44328 0.80669 0.0
H768 H 0.03538 0.43621 0.73017 0.0
H769 H 0.96328 0.51841 0.75258 0.0
H770 H 0.99257 0.51229 0.76598 0.0
H771 H 0.96681 0.48651 0.76679 0.0
C772 C 0.0485 0.48296 0.78711 0.0
C773 C 0.03222 0.47166 0.80128 0.0
C774 C 0.04275 0.47831 0.76786 0.0
C775 C 0.02091 0.46212 0.76271 0.0
C776 C 0.00684 0.44771 0.77683 0.0
H777 H 0.9344 0.51549 0.6618 0.0
H778 H 0.9441 0.48623 0.69001 0.0
C779 C 0.01244 0.45247 0.79602 0.0
C780 C 0.00947 0.46598 0.74361 0.0
H781 H 0.96577 0.50783 0.72023 0.0
C782 C 0.01992 0.45154 0.72793 0.0
C783 C 0.98906 0.4857 0.74088 0.0
C784 C 0.97721 0.50179 0.75737 0.0
C785 C 0.01102 0.45717 0.70936 0.0
C786 C 0.99176 0.47834 0.7065 0.0
C787 C 0.98044 0.49155 0.72237 0.0
C788 C 0.98573 0.4904 0.68744 0.0
C789 C 0.0226 0.44065 0.69301 0.0
C790 C 0.00582 0.502 0.67645 0.0
C791 C 1.00036 0.51849 0.66041 0.0
C792 C 0.97462 0.52425 0.65511 0.0
C793 C 0.95442 0.51153 0.66555 0.0
C794 C 0.95995 0.49476 0.68162 0.0
H795 H 0.02791 0.41861 0.69755 0.0
H796 H 0.00907 0.43922 0.68074 0.0
H797 H 0.04062 0.4515 0.68826 0.0
H798 H 0.0258 0.4998 0.68089 0.0
H799 H 0.01645 0.52782 0.65268 0.0
H800 H 0.98867 0.14292 0.12536 0.0
H801 H 0.9827 0.19394 0.12973 0.0
H802 H 0.06545 0.20638 0.13005 0.0
H803 H 0.07173 0.1547 0.125 0.0
H804 H 0.99646 0.23009 0.15738 0.0
H805 H 0.04324 0.26247 0.08934 0.0
H806 H 0.03571 0.22562 0.09483 0.0
H807 H 0.06369 0.24251 0.1052 0.0
C808 C 0.00576 0.15632 0.12636 0.0
C809 C 0.03076 0.1446 0.12464 0.0
C810 C 1.00224 0.18562 0.12893 0.0
C811 C 0.02355 0.20414 0.12994 0.0
C812 C 0.04866 0.19257 0.12888 0.0
H813 H 0.02895 0.38904 0.13904 0.0
H814 H 0.03803 0.33798 0.14044 0.0
C815 C 0.05225 0.16302 0.12613 0.0
C816 C 0.01892 0.23547 0.13174 0.0
H817 H 0.02768 0.29955 0.109 0.0
C818 C 1.00336 0.24528 0.14682 0.0
C819 C 0.02771 0.25529 0.11787 0.0
C820 C 0.04331 0.246 0.10079 0.0
C821 C 0.99637 0.27427 0.14839 0.0
C822 C 0.00509 0.29395 0.13449 0.0
C823 C 0.02097 0.28431 0.11961 0.0
C824 C 0.99853 0.32484 0.13528 0.0
C825 C 0.9799 0.28374 0.16494 0.0
C826 C 0.9731 0.33446 0.13216 0.0
C827 C 0.96772 0.36391 0.13127 0.0
C828 C 0.98776 0.38412 0.13343 0.0
C829 C 0.013 0.3742 0.13718 0.0
C830 C 0.01831 0.34495 0.138 0.0
H831 H 0.97872 0.26708 0.17625 0.0
H832 H 0.98771 0.30378 0.17126 0.0
H833 H 0.96 0.28822 0.1598 0.0
H834 H 0.95759 0.31921 0.12982 0.0
H835 H 0.94813 0.3708 0.1283 0.0
H836 H 0.51242 0.88789 0.15098 0.0
H837 H 0.52651 0.83797 0.1515 0.0
H838 H 0.45977 0.81386 0.11823 0.0
H839 H 0.44546 0.86399 0.11759 0.0
H840 H 0.50148 0.78409 0.16263 0.0
H841 H 0.5248 0.79183 0.08547 0.0
H842 H 0.51928 0.82299 0.10013 0.0
H843 H 0.4924 0.80191 0.09189 0.0
C844 C 0.50042 0.87191 0.14407 0.0
C845 C 0.47792 0.87994 0.13408 0.0
C846 C 0.50854 0.84338 0.1444 0.0
C847 C 0.49445 0.82237 0.13462 0.0
C848 C 0.47108 0.82991 0.12566 0.0
H849 H 0.50758 0.64771 0.10459 0.0
H850 H 0.49932 0.69857 0.10825 0.0
C851 C 0.46281 0.85849 0.12544 0.0
C852 C 0.50522 0.79309 0.13268 0.0
H853 H 0.52912 0.74621 0.09984 0.0
C854 C 0.50767 0.77578 0.14895 0.0
C855 C 0.51366 0.78258 0.11485 0.0
C856 C 0.51267 0.8008 0.09707 0.0
C857 C 0.51722 0.74763 0.14769 0.0
C858 C 0.52499 0.73683 0.12974 0.0
C859 C 0.52326 0.75455 0.1136 0.0
C860 C 0.53192 0.70627 0.12692 0.0
C861 C 0.51786 0.72926 0.16539 0.0
C862 C 0.55356 0.69369 0.13578 0.0
C863 C 0.55846 0.66423 0.13367 0.0
C864 C 0.54167 0.64709 0.12274 0.0
C865 C 0.52076 0.66018 0.1133 0.0
C866 C 0.51599 0.68934 0.11533 0.0
H867 H 0.50714 0.73918 0.1774 0.0
H868 H 0.50941 0.70781 0.16248 0.0
H869 H 0.53825 0.72618 0.16991 0.0
H870 H 0.56639 0.70652 0.14453 0.0
H871 H 0.5747 0.65475 0.14111 0.0
H872 H 0.43139 0.64954 0.35531 0.0
H873 H 0.43976 0.70117 0.35176 0.0
H874 H 0.50369 0.68288 0.31426 0.0
H875 H 0.49529 0.63179 0.31749 0.0
H876 H 0.48564 0.72715 0.36292 0.0
H877 H 0.4681 0.74788 0.28631 0.0
H878 H 0.45628 0.71613 0.29822 0.0
H879 H 0.48933 0.71809 0.29024 0.0
C880 C 0.44667 0.65662 0.34584 0.0
C881 C 0.46268 0.6366 0.3367 0.0
C882 C 0.45158 0.68608 0.34394 0.0
C883 C 0.47227 0.69591 0.33264 0.0
C884 C 0.48735 0.67593 0.32277 0.0
H885 H 0.55921 0.85571 0.34701 0.0
H886 H 0.54643 0.80502 0.34497 0.0
C887 C 0.48258 0.64665 0.32472 0.0
C888 C 0.4799 0.72663 0.33253 0.0
H889 H 0.49336 0.78294 0.30296 0.0
C890 C 0.48709 0.73946 0.34984 0.0
C891 C 0.48179 0.74268 0.31545 0.0
C892 C 0.47322 0.73059 0.29653 0.0
C893 C 0.49656 0.76769 0.35051 0.0
C894 C 0.49937 0.78337 0.33334 0.0
C895 C 0.49168 0.77074 0.31607 0.0
C896 C 0.50848 0.8136 0.33317 0.0
C897 C 0.50304 0.78064 0.36963 0.0
C898 C 0.49193 0.83508 0.32641 0.0
C899 C 0.49924 0.86382 0.3274 0.0
C900 C 0.52335 0.87187 0.33512 0.0
C901 C 0.54051 0.85025 0.34104 0.0
C902 C 0.53311 0.82132 0.34006 0.0
H903 H 0.49419 0.76837 0.38155 0.0
H904 H 0.52434 0.78051 0.37164 0.0
H905 H 0.49632 0.80319 0.37044 0.0
H906 H 0.47294 0.82966 0.32091 0.0
H907 H 0.48558 0.87983 0.32254 0.0
H908 H 0.06953 0.33368 0.37205 0.0
H909 H 0.06128 0.2817 0.37231 0.0
H910 H 1.00184 0.29267 0.32974 0.0
H911 H 0.00977 0.34417 0.32956 0.0
H912 H 0.98485 0.26553 0.36341 0.0
H913 H 0.0738 0.21478 0.33452 0.0
H914 H 0.07859 0.24091 0.35302 0.0
H915 H 0.06601 0.25198 0.33033 0.0
C916 C 0.05538 0.3248 0.36229 0.0
C917 C 0.04024 0.34293 0.35084 0.0
C918 C 0.05059 0.29515 0.36249 0.0
C919 C 0.03084 0.28336 0.35108 0.0
C920 C 0.01705 0.3013 0.33872 0.0
H921 H 0.95051 0.11848 0.34191 0.0
H922 H 0.96232 0.16946 0.33999 0.0
C923 C 0.02169 0.33072 0.33859 0.0
C924 C 0.0225 0.25307 0.35327 0.0
H925 H 0.04162 0.18383 0.34687 0.0
C926 C 0.99724 0.24763 0.35977 0.0
C927 C 0.03871 0.22982 0.34857 0.0
C928 C 0.06574 0.23449 0.34108 0.0
C929 C 0.98781 0.21955 0.3619 0.0
C930 C 1.00391 0.19624 0.35701 0.0
C931 C 0.02924 0.20171 0.35056 0.0
C932 C 0.99528 0.16595 0.35897 0.0
C933 C 0.96094 0.21516 0.36981 0.0
C934 C 0.00979 0.14705 0.37024 0.0
C935 C 1.00325 0.11808 0.37117 0.0
C936 C 0.98198 0.10722 0.36089 0.0
C937 C 0.96682 0.12628 0.35013 0.0
C938 C 0.97356 0.1554 0.34905 0.0
H939 H 0.95402 0.23438 0.3776 0.0
H940 H 0.94732 0.21104 0.35788 0.0
H941 H 0.96031 0.19648 0.37962 0.0
H942 H 0.02651 0.15465 0.37809 0.0
H943 H 0.01528 0.10401 0.37968 0.0
H944 H 0.9811 0.60079 0.83104 0.0
H945 H 0.97121 0.65175 0.83011 0.0
H946 H 0.04688 0.67104 0.85277 0.0
H947 H 0.05719 0.61972 0.85349 0.0
H948 H 0.96885 0.68813 0.86048 0.0
H949 H 0.04143 0.72658 0.80813 0.0
H950 H 0.03372 0.68909 0.81111 0.0
H951 H 0.05523 0.70669 0.82754 0.0
C952 C 0.99584 0.61581 0.83564 0.0
C953 C 0.01999 0.60612 0.84238 0.0
C954 C 0.99008 0.64499 0.83512 0.0
C955 C 0.0083 0.66525 0.84125 0.0
C956 C 0.03266 0.6558 0.84764 0.0
H957 H 0.01499 0.84374 0.86362 0.0
H958 H 0.01963 0.79219 0.86086 0.0
C959 C 0.03852 0.62647 0.84809 0.0
C960 C 1.00117 0.69606 0.8418 0.0
H961 H 0.0192 0.76231 0.82592 0.0
C962 C 0.9797 0.70435 0.85279 0.0
C963 C 0.01519 0.71715 0.83162 0.0
C964 C 0.03752 0.70947 0.81878 0.0
C965 C 0.97254 0.73329 0.85447 0.0
C966 C 0.98705 0.75441 0.84474 0.0
C967 C 0.00809 0.74604 0.83337 0.0
C968 C 0.98242 0.7855 0.84747 0.0
C969 C 0.95018 0.74118 0.86722 0.0
C970 C 0.95957 0.79894 0.8412 0.0
C971 C 0.95672 0.8288 0.84284 0.0
C972 C 0.97683 0.84549 0.85058 0.0
C973 C 0.9992 0.83164 0.85737 0.0
C974 C 1.00195 0.8021 0.85581 0.0
H975 H 0.94362 0.72283 0.8761 0.0
H976 H 0.95564 0.75919 0.87675 0.0
H977 H 0.93365 0.74833 0.8583 0.0
H978 H 0.94433 0.7865 0.83455 0.0
H979 H 0.93935 0.83887 0.83741 0.0
H980 H 0.44541 0.3483 0.84963 0.0
H981 H 0.45901 0.29791 0.84786 0.0
H982 H 0.50504 0.30916 0.89867 0.0
H983 H 0.49223 0.35938 0.90006 0.0
H984 H 0.53322 0.28683 0.87032 0.0
H985 H 0.44113 0.22617 0.8774 0.0
H986 H 0.44119 0.25237 0.85863 0.0
H987 H 0.44362 0.26378 0.88304 0.0
C988 C 0.45773 0.33965 0.86072 0.0
C989 C 0.46769 0.3576 0.87502 0.0
C990 C 0.46559 0.31091 0.85969 0.0
C991 C 0.4831 0.2997 0.87314 0.0
C992 C 0.49169 0.31731 0.88806 0.0
H993 H 0.52191 0.12469 0.89548 0.0
H994 H 0.50916 0.17496 0.89635 0.0
C995 C 0.48419 0.34594 0.88893 0.0
C996 C 0.49419 0.27047 0.87114 0.0
H997 H 0.47863 0.1994 0.87009 0.0
C998 C 0.52127 0.26769 0.87027 0.0
C999 C 0.47863 0.24552 0.8711 0.0
C1000 C 0.44955 0.24697 0.87276 0.0
C1001 C 0.53324 0.24069 0.86977 0.0
C1002 C 0.51768 0.21574 0.86968 0.0
C1003 C 0.49058 0.21855 0.87014 0.0
C1004 C 0.52887 0.18641 0.87021 0.0
C1005 C 0.5624 0.23916 0.87004 0.0
C1006 C 0.54514 0.17627 0.85562 0.0
C1007 C 0.55298 0.14748 0.85535 0.0
C1008 C 0.54423 0.12844 0.86947 0.0
C1009 C 0.52902 0.13899 0.88447 0.0
C1010 C 0.52154 0.16766 0.88489 0.0
H1011 H 0.57124 0.25959 0.87495 0.0
H1012 H 0.56918 0.22158 0.87947 0.0
H1013 H 0.56951 0.23487 0.85541 0.0
H1014 H 0.55071 0.19019 0.84396 0.0
H1015 H 0.56427 0.1397 0.84343 0.0
H1016 H 0.45211 0.12951 0.61709 0.0
H1017 H 0.46524 0.18024 0.61659 0.0
H1018 H 0.54162 0.15682 0.63567 0.0
H1019 H 0.52887 0.10656 0.63634 0.0
H1020 H 0.49264 0.21675 0.64808 0.0
H1021 H 0.54852 0.19858 0.58137 0.0
H1022 H 0.52241 0.17527 0.58874 0.0
H1023 H 0.5532 0.17337 0.6005 0.0
C1024 C 0.47153 0.13524 0.62151 0.0
C1025 C 0.48949 0.11391 0.62655 0.0
C1026 C 0.47902 0.16418 0.62118 0.0
C1027 C 0.5045 0.1721 0.62585 0.0
C1028 C 0.52197 0.15106 0.63182 0.0
H1029 H 0.56881 0.34638 0.63674 0.0
H1030 H 0.56276 0.29432 0.64088 0.0
C1031 C 0.51457 0.12231 0.63218 0.0
C1032 C 0.51351 0.20204 0.62348 0.0
H1033 H 0.55132 0.24453 0.59515 0.0
C1034 C 0.50553 0.22288 0.63657 0.0
C1035 C 0.53033 0.20983 0.60843 0.0
C1036 C 0.53909 0.18823 0.59383 0.0
C1037 C 0.51389 0.25148 0.63494 0.0
C1038 C 0.53074 0.25927 0.61989 0.0
C1039 C 0.53874 0.23837 0.60683 0.0
C1040 C 0.53783 0.28958 0.61626 0.0
C1041 C 0.50408 0.27339 0.64895 0.0
C1042 C 0.52683 0.30369 0.60061 0.0
C1043 C 0.53022 0.33313 0.59827 0.0
C1044 C 0.54498 0.349 0.6114 0.0
C1045 C 0.55761 0.33456 0.62631 0.0
C1046 C 0.55392 0.30497 0.6288 0.0
H1047 H 0.4886 0.26461 0.65828 0.0
H1048 H 0.52032 0.2807 0.65811 0.0
H1049 H 0.49642 0.2924 0.64128 0.0
H1050 H 0.51447 0.29218 0.59073 0.0
H1051 H 0.52024 0.34377 0.58667 0.0
H1052 H 0.9884 0.90904 0.65286 0.0
H1053 H 0.9728 0.85983 0.65572 0.0
H1054 H 0.03667 0.83069 0.6213 0.0
H1055 H 0.05291 0.87996 0.61899 0.0
H1056 H 0.95552 0.82755 0.62794 0.0
H1057 H 0.0373 0.7713 0.66237 0.0
H1058 H 0.03545 0.80986 0.6613 0.0
H1059 H 0.04717 0.7898 0.64117 0.0
C1060 C 0.99948 0.89205 0.64628 0.0
C1061 C 0.02194 0.89834 0.63574 0.0
C1062 C 0.99046 0.86392 0.64785 0.0
C1063 C 1.00356 0.84142 0.63881 0.0
C1064 C 0.0265 0.84752 0.62878 0.0
H1065 H 0.93938 0.68104 0.59964 0.0
H1066 H 0.94865 0.73197 0.60452 0.0
C1067 C 0.03578 0.87571 0.62743 0.0
C1068 C 0.99204 0.81215 0.63872 0.0
H1069 H 0.00542 0.74175 0.6473 0.0
C1070 C 0.96636 0.80882 0.63238 0.0
C1071 C 0.00595 0.78769 0.64475 0.0
C1072 C 0.03289 0.78984 0.65297 0.0
C1073 C 0.95447 0.78174 0.63149 0.0
C1074 C 0.96886 0.75712 0.63655 0.0
C1075 C 0.99434 0.76054 0.6433 0.0
C1076 C 0.95847 0.7275 0.63442 0.0
C1077 C 0.92652 0.77992 0.62535 0.0
C1078 C 0.9604 0.70796 0.64962 0.0
C1079 C 0.95543 0.67884 0.64672 0.0
C1080 C 0.94798 0.6688 0.62869 0.0
C1081 C 0.94425 0.68848 0.61382 0.0
C1082 C 0.94965 0.7176 0.61662 0.0
H1083 H 0.91606 0.80014 0.6285 0.0
H1084 H 0.92564 0.77645 0.60972 0.0
H1085 H 0.9163 0.76195 0.63253 0.0
H1086 H 0.96719 0.71498 0.66346 0.0
H1087 H 0.95906 0.66388 0.65824 0.0
H1088 H 0.95098 0.96438 0.91253 0.0
H1089 H 0.9606 0.98169 0.94481 0.0
H1090 H 0.03755 0.00551 0.92696 0.0
H1091 H 0.02816 0.98866 0.89486 0.0
H1092 H 1.00189 0.95836 0.96703 0.0
H1093 H 0.01291 0.07593 0.95709 0.0
H1094 H 0.99607 0.05348 0.94016 0.0
H1095 H 0.03083 0.05431 0.94058 0.0
C1096 C 0.96973 0.97387 0.91541 0.0
C1097 C 0.98885 0.975 0.90122 0.0
C1098 C 0.97522 0.98365 0.93382 0.0
C1099 C 0.99971 0.99504 0.93815 0.0
C1100 C 0.01842 0.99721 0.92381 0.0
H1101 H 0.07055 0.04415 0.04749 0.0
H1102 H 0.06553 0.03103 0.01367 0.0
C1103 C 0.01303 0.98736 0.90551 0.0
C1104 C 0.00668 0.00217 0.95798 0.0
H1105 H 0.02611 0.05686 -0.01305 0.0
C1106 C 0.00711 0.9799 0.97141 0.0
C1107 C 0.01391 0.0302 0.96349 0.0
C1108 C 0.01325 0.05495 0.94963 0.0
C1109 C 0.01438 0.98498 -0.00966 0.0
C1110 C 0.02106 0.01309 -0.00405 0.0
C1111 C 0.02118 0.03529 0.98246 0.0
C1112 C 0.02489 0.02037 0.01618 0.0
C1113 C 0.01472 0.9603 0.00425 0.0
C1114 C 1.00369 0.01882 0.02851 0.0
C1115 C 0.00642 0.02633 0.04755 0.0
C1116 C 0.03046 0.03562 0.05471 0.0
C1117 C 0.05185 0.03697 0.04237 0.0
C1118 C 0.04901 0.02959 0.02312 0.0
H1119 H 0.01585 0.93932 -0.00317 0.0
H1120 H 0.03133 0.96218 0.01423 0.0
H1121 H 0.99664 0.96057 0.01278 0.0
H1122 H 0.98488 0.01206 0.02331 0.0
H1123 H 0.98954 0.02492 0.05665 0.0
H1124 H 0.50517 0.968 0.89915 0.0
H1125 H 0.493 0.95395 0.93147 0.0
H1126 H 0.5597 0.99846 0.95372 0.0
H1127 H 0.57221 0.01247 0.92131 0.0
H1128 H 0.54448 0.94403 0.97319 0.0
H1129 H 0.46447 0.02264 0.96367 0.0
H1130 H 0.46695 0.99484 0.94606 0.0
H1131 H 0.49202 0.0214 0.9479 0.0
C1132 C 0.51768 0.97411 0.91088 0.0
C1133 C 0.5394 0.99174 0.9078 0.0
C1134 C 0.51064 0.96612 0.9293 0.0
C1135 C 0.52513 0.97579 0.94489 0.0
C1136 C 0.54822 0.991 0.94178 0.0
H1137 H 0.51692 0.99537 0.06442 0.0
H1138 H 0.52685 0.99328 0.03057 0.0
C1139 C 0.5554 -0.00112 0.92328 0.0
C1140 C 0.51459 0.97318 0.96433 0.0
H1141 H 0.46766 -4e-05 -0.00652 0.0
C1142 C 0.52758 0.95603 0.97762 0.0
C1143 C 0.49244 0.98884 0.96995 0.0
C1144 C 0.47818 0.00815 0.95624 0.0
C1145 C 0.5192 0.95448 -0.0034 0.0
C1146 C 0.49766 0.97101 0.00238 0.0
C1147 C 0.48413 0.98735 -0.01107 0.0
C1148 C 0.49044 0.97365 0.02264 0.0
C1149 C 0.53361 0.9354 0.01034 0.0
C1150 C 0.46603 0.9648 0.0292 0.0
C1151 C 0.4601 0.96624 0.04865 0.0
C1152 C 0.47857 0.97661 0.06167 0.0
C1153 C 0.50241 0.98689 0.05479 0.0
C1154 C 0.50822 0.98552 0.03547 0.0
H1155 H 0.54406 0.91803 0.00277 0.0
H1156 H 0.54816 0.94838 0.01818 0.0
H1157 H 0.52025 0.9256 0.0209 0.0
H1158 H 0.45192 0.95599 0.01937 0.0
H1159 H 0.4416 0.95816 0.05357 0.0
H1160 H 0.44417 0.02185 0.55266 0.0
H1161 H 0.45132 0.01493 0.51834 0.0
H1162 H 0.52496 0.97538 0.53024 0.0
H1163 H 0.51817 0.98235 0.56423 0.0
H1164 H 0.52712 0.02207 0.50449 0.0
H1165 H 0.45193 0.94189 0.48462 0.0
H1166 H 0.44089 0.9725 0.49784 0.0
H1167 H 0.46231 0.94727 0.50896 0.0
C1168 C 0.46159 0.01113 0.54793 0.0
C1169 C 0.4807 0.00286 0.56108 0.0
C1170 C 0.46565 0.0072 0.52838 0.0
C1171 C 0.48869 0.99467 0.52186 0.0
C1172 C 0.50713 0.9852 0.53503 0.0
H1173 H 0.56286 0.96285 0.41279 0.0
H1174 H 0.55395 0.96983 0.44684 0.0
C1175 C 0.50318 0.9892 0.55444 0.0
C1176 C 0.49476 0.99325 0.50134 0.0
H1177 H 0.47691 0.96158 0.45962 0.0
C1178 C 0.51618 0.00885 0.49464 0.0
C1179 C 0.48039 0.976 0.48865 0.0
C1180 C 0.45769 0.95824 0.49532 0.0
C1181 C 0.52355 0.00781 0.47544 0.0
C1182 C 0.50933 0.99034 0.46276 0.0
C1183 C 0.4878 0.97488 0.46945 0.0
C1184 C 0.51597 0.98822 0.44236 0.0
C1185 C 0.54614 0.02578 0.46882 0.0
C1186 C 0.49765 0.99637 0.4287 0.0
C1187 C 0.50259 0.99226 0.40942 0.0
C1188 C 0.52597 0.97984 0.40338 0.0
C1189 C 0.54477 0.97262 0.41703 0.0
C1190 C 0.53971 0.97663 0.43644 0.0
H1191 H 0.55092 0.04302 0.47915 0.0
H1192 H 0.56342 0.01191 0.46728 0.0
H1193 H 0.54204 0.03569 0.45474 0.0
H1194 H 0.47928 0.00544 0.433 0.0
H1195 H 0.48777 0.99827 0.39924 0.0
H1196 H 0.0624 0.96412 0.55636 0.0
H1197 H 0.05166 0.95764 0.52256 0.0
H1198 H 0.98581 0.01343 0.52901 0.0
H1199 H 0.99608 0.01952 0.5627 0.0
H1200 H 0.97328 0.96063 0.51329 0.0
H1201 H 0.05723 0.01061 0.47628 0.0
H1202 H 0.06524 0.98415 0.49394 0.0
H1203 H 0.05026 0.0171 0.50111 0.0
C1204 C 0.0461 0.97563 0.5504 0.0
C1205 C 0.03002 0.99225 0.56211 0.0
C1206 C 0.03993 0.97184 0.53113 0.0
C1207 C 0.01789 0.98501 0.52336 0.0
C1208 C 1.00277 0.00293 0.53481 0.0
H1209 H 0.93918 0.00488 0.4179 0.0
H1210 H 0.94813 0.99719 0.45178 0.0
C1211 C 0.00876 0.00651 0.554 0.0
C1212 C 0.00938 0.97885 0.50368 0.0
H1213 H 0.0261 0.98757 0.45709 0.0
C1214 C 0.98485 0.96639 0.50097 0.0
C1215 C 0.02459 0.98627 0.48771 0.0
C1216 C 0.05071 0.00048 0.4898 0.0
C1217 C 0.97495 0.96152 0.48264 0.0
C1218 C 0.98993 0.96954 0.46669 0.0
C1219 C 0.01472 0.98129 0.4694 0.0
C1220 C 0.97991 0.9679 0.44699 0.0
C1221 C 0.94861 0.94792 0.48047 0.0
C1222 C 0.99404 0.953 0.43318 0.0
C1223 C 0.98908 0.95752 0.4139 0.0
C1224 C 0.96993 0.97705 0.40815 0.0
C1225 C 0.95392 0.98957 0.42197 0.0
C1226 C 0.95904 0.98519 0.44133 0.0
H1227 H 0.94301 0.9357 0.49344 0.0
H1228 H 0.93399 0.96496 0.47818 0.0
H1229 H 0.94806 0.93329 0.468 0.0
H1230 H 0.01016 0.93951 0.43729 0.0
H1231 H 1.00159 0.94746 0.40349 0.0
H1232 H 0.57605 0.54692 0.059 0.0
H1233 H 0.56714 0.53797 0.02507 0.0
H1234 H 0.50132 0.48587 0.0405 0.0
H1235 H 0.51021 0.49441 0.07412 0.0
H1236 H 0.52911 0.4647 0.00924 0.0
H1237 H 0.50443 0.58025 0.00154 0.0
H1238 H 0.53656 0.5723 0.00986 0.0
H1239 H 0.50916 0.56353 0.02449 0.0
C1240 C 0.56023 0.53282 0.0551 0.0
C1241 C 0.54362 0.5216 0.06909 0.0
C1242 C 0.55498 0.52801 0.03577 0.0
C1243 C 0.53319 0.51186 0.03035 0.0
C1244 C 0.51807 0.4986 0.04439 0.0
H1245 H 0.44286 0.46791 0.93076 0.0
H1246 H 0.4569 0.47898 0.96336 0.0
C1247 C 0.52319 0.50349 0.06358 0.0
C1248 C 0.52447 0.51047 0.01031 0.0
H1249 H 0.4977 0.55083 0.97476 0.0
C1250 C 0.52241 0.48352 0.00163 0.0
C1251 C 0.51548 0.53511 0.00056 0.0
C1252 C 0.51627 0.56446 0.00957 0.0
C1253 C 0.51155 0.48051 0.98343 0.0
C1254 C 0.50213 0.50505 0.97384 0.0
C1255 C 0.50467 0.53208 0.98232 0.0
C1256 C 0.49075 0.50301 0.95458 0.0
C1257 C 0.51043 0.45111 0.97451 0.0
C1258 C 0.50423 0.51447 0.93904 0.0
C1259 C 0.49622 0.50832 0.92051 0.0
C1260 C 0.47451 0.49074 0.91726 0.0
C1261 C 0.45962 0.48154 0.93285 0.0
C1262 C 0.46776 0.48758 0.95144 0.0
H1263 H 0.5232 0.43562 0.98199 0.0
H1264 H 0.49028 0.44288 0.97523 0.0
H1265 H 0.51617 0.45207 0.95927 0.0
H1266 H 0.52187 0.52665 0.94121 0.0
H1267 H 0.50796 0.51588 0.90873 0.0
H1268 H 0.94441 0.47341 0.05935 0.0
H1269 H 0.95006 0.47434 0.02456 0.0
H1270 H 0.0268 0.50923 0.03166 0.0
H1271 H 0.02147 0.50835 0.06614 0.0
H1272 H 0.96517 0.52095 -0.00155 0.0
H1273 H 0.03698 0.43272 0.00194 0.0
H1274 H 0.01516 0.44073 0.0213 0.0
H1275 H 0.04358 0.4623 0.01759 0.0
C1276 C 0.96227 0.48176 0.05345 0.0
C1277 C 0.98262 0.49045 0.06546 0.0
C1278 C 0.96551 0.48214 0.03363 0.0
C1279 C 0.98908 0.49118 0.02568 0.0
C1280 C 0.0087 0.50156 0.0376 0.0
H1281 H 0.05798 0.50862 0.91423 0.0
H1282 H 0.04963 0.50444 0.94856 0.0
C1283 C 0.00554 0.50115 0.05729 0.0
C1284 C 0.9938 0.48904 0.005 0.0
H1285 H 0.03299 0.45694 0.97224 0.0
C1286 C 0.97979 0.50679 -0.00735 0.0
C1287 C 0.01299 0.47056 -0.0024 0.0
C1288 C 0.02792 0.45028 0.01025 0.0
C1289 C 0.98501 0.50717 0.97304 0.0
C1290 C 0.00442 0.48893 0.96566 0.0
C1291 C 0.01821 0.47093 0.978 0.0
C1292 C 0.01058 0.48834 0.94512 0.0
C1293 C 0.97024 0.52767 0.96043 0.0
C1294 C 0.99182 0.47944 0.93199 0.0
C1295 C 0.9965 0.48177 0.91251 0.0
C1296 C 0.02014 0.49289 0.90579 0.0
C1297 C 0.0396 0.50001 0.91898 0.0
C1298 C 0.03482 0.49774 0.93855 0.0
H1299 H 0.96054 0.54471 0.96883 0.0
H1300 H 0.9833 0.53793 0.94986 0.0
H1301 H 0.95512 0.51566 0.95251 0.0
H1302 H 0.97322 0.4715 0.93684 0.0
H1303 H 0.98122 0.47575 0.90271 0.0
H1304 H 0.00844 0.58347 0.55487 0.0
H1305 H 0.01827 0.56296 0.52382 0.0
H1306 H 0.94572 0.51709 0.5245 0.0
H1307 H 0.9355 0.5378 0.55571 0.0
H1308 H 0.0229 0.50388 0.51704 0.0
H1309 H 0.94786 0.55382 0.471 0.0
H1310 H 0.95628 0.56784 0.49418 0.0
H1311 H 0.93588 0.53677 0.49222 0.0
C1312 C 0.99435 0.56932 0.54836 0.0
C1313 C 0.9712 0.56216 0.55781 0.0
C1314 C 1.00005 0.55761 0.53061 0.0
C1315 C 0.98271 0.53862 0.52188 0.0
C1316 C 0.95919 0.53204 0.53093 0.0
H1317 H 0.98623 0.43726 0.41978 0.0
H1318 H 0.97682 0.45901 0.45051 0.0
C1319 C 0.95341 0.54384 0.54875 0.0
C1320 C 0.99014 0.52445 0.50388 0.0
H1321 H 0.97335 0.51725 0.45713 0.0
C1322 C 0.01215 0.50685 0.5039 0.0
C1323 C 0.97605 0.52845 0.48683 0.0
C1324 C 0.95282 0.54792 0.48591 0.0
C1325 C 0.0202 0.49265 0.48734 0.0
C1326 C 0.00608 0.49661 0.47029 0.0
C1327 C 0.98413 0.51431 0.47026 0.0
C1328 C 0.01316 0.48193 0.45237 0.0
C1329 C 0.04332 0.47301 0.48834 0.0
C1330 C 0.03695 0.4873 0.44336 0.0
C1331 C 0.04254 0.47469 0.42574 0.0
C1332 C 0.02423 0.45685 0.41683 0.0
C1333 C 1.00071 0.45104 0.42619 0.0
C1334 C 0.99525 0.46347 0.44375 0.0
H1335 H 0.04811 0.46703 0.50326 0.0
H1336 H 0.03982 0.45312 0.48004 0.0
H1337 H 0.06038 0.48407 0.48213 0.0
H1338 H 0.05087 0.50186 0.44967 0.0
H1339 H 0.06072 0.47971 0.41882 0.0
H1340 H 0.48668 0.48996 0.56818 0.0
H1341 H 0.47995 0.50811 0.5361 0.0
H1342 H 0.56146 0.49919 0.52434 0.0
H1343 H 0.56839 0.48012 0.55661 0.0
H1344 H 0.49894 0.55298 0.51506 0.0
H1345 H 0.52758 0.44793 0.48426 0.0
H1346 H 0.52226 0.45287 0.50944 0.0
H1347 H 0.55183 0.46509 0.49865 0.0
C1348 C 0.50331 0.49206 0.55888 0.0
C1349 C 0.52803 0.48307 0.5648 0.0
C1350 C 0.4994 0.50259 0.54056 0.0
C1351 C 0.52008 0.5044 0.52775 0.0
C1352 C 0.54515 0.49734 0.53395 0.0
H1353 H 0.52154 0.54361 0.40795 0.0
H1354 H 0.53192 0.53518 0.44126 0.0
C1355 C 0.54912 0.48666 0.55239 0.0
C1356 C 0.51466 0.51176 0.50764 0.0
H1357 H 0.51488 0.48396 0.46268 0.0
C1358 C 0.50252 0.53798 0.50358 0.0
C1359 C 0.51902 0.4919 0.49277 0.0
C1360 C 0.53067 0.46276 0.49643 0.0
C1361 C 0.49475 0.54491 0.48497 0.0
C1362 C 0.49913 0.52504 0.47019 0.0
C1363 C 0.51149 0.49901 0.47418 0.0
C1364 C 0.49209 0.53128 0.45025 0.0
C1365 C 0.48214 0.57346 0.48114 0.0
C1366 C 0.46612 0.53173 0.44433 0.0
C1367 C 0.45998 0.53642 0.42512 0.0
C1368 C 0.47979 0.54076 0.41169 0.0
C1369 C 0.50573 0.54042 0.41787 0.0
C1370 C 0.51179 0.53561 0.43692 0.0
H1371 H 0.48349 0.58806 0.4936 0.0
H1372 H 0.49128 0.58402 0.46864 0.0
H1373 H 0.46138 0.57004 0.47774 0.0
H1374 H 0.4507 0.52808 0.4545 0.0
H1375 H 0.43985 0.53655 0.42079 0.0
loop_
_geom_bond_atom_site_label_1
_geom_bond_atom_site_label_2
_geom_bond_distance
_geom_bond_site_symmetry_2
_ccdc_geom_bond_type
Zn0 O3 2.031 . S
Zn0 O5 2.049 . S
Zn0 O10 2.067 . S
Zn1 O2 1.962 . S
Zn1 O4 1.986 . S
Zn1 O6 1.996 . S
Zn1 O9 1.943 . S
O2 Zn1 1.962 . S
O2 C7 1.254 . S
O3 Zn0 2.031 . S
O3 C7 1.269 . S
O4 Zn1 1.986 . S
O4 C11 1.262 . S
O5 Zn0 2.049 . S
O5 C13 1.260 . S
O6 Zn1 1.996 . S
O6 C13 1.257 . S
C7 O2 1.254 . S
C7 O3 1.269 . S
C8 O9 1.249 . S
C8 O10 1.270 . S
O9 Zn1 1.943 . S
O9 C8 1.249 . S
O10 Zn0 2.067 . S
O10 C8 1.270 . S
C11 O4 1.262 . S
C11 O12 1.232 . S
O12 C11 1.232 . S
C13 O5 1.260 . S
C13 O6 1.257 . S
Zn14 O17 2.031 . S
Zn14 O19 2.049 . S
Zn14 O24 2.067 . S
Zn15 O16 1.962 . S
Zn15 O18 1.986 . S
Zn15 O20 1.996 . S
Zn15 O23 1.943 . S
O16 Zn15 1.962 . S
O16 C21 1.254 . S
O17 Zn14 2.031 . S
O17 C21 1.269 . S
O18 Zn15 1.986 . S
O18 C25 1.262 . S
O19 Zn14 2.049 . S
O19 C27 1.260 . S
O20 Zn15 1.996 . S
O20 C27 1.257 . S
C21 O16 1.254 . S
C21 O17 1.269 . S
C22 O23 1.249 . S
C22 O24 1.270 . S
O23 Zn15 1.943 . S
O23 C22 1.249 . S
O24 Zn14 2.067 . S
O24 C22 1.270 . S
C25 O18 1.262 . S
C25 O26 1.232 . S
O26 C25 1.232 . S
C27 O19 1.260 . S
C27 O20 1.257 . S
Zn28 O31 2.031 . S
Zn28 O33 2.049 . S
Zn28 O38 2.067 . S
Zn29 O30 1.962 . S
Zn29 O32 1.986 . S
Zn29 O34 1.996 . S
Zn29 O37 1.943 . S
O30 Zn29 1.962 . S
O30 C35 1.254 . S
O31 Zn28 2.031 . S
O31 C35 1.269 . S
O32 Zn29 1.986 . S
O32 C39 1.262 . S
O33 Zn28 2.049 . S
O33 C41 1.260 . S
O34 Zn29 1.996 . S
O34 C41 1.257 . S
C35 O30 1.254 . S
C35 O31 1.269 . S
C36 O37 1.249 . S
C36 O38 1.270 . S
O37 Zn29 1.943 . S
O37 C36 1.249 . S
O38 Zn28 2.067 . S
O38 C36 1.270 . S
C39 O32 1.262 . S
C39 O40 1.232 . S
O40 C39 1.232 . S
C41 O33 1.260 . S
C41 O34 1.257 . S
Zn42 O45 2.031 . S
Zn42 O47 2.049 . S
Zn42 O52 2.067 . S
Zn43 O44 1.962 . S
Zn43 O46 1.986 . S
Zn43 O48 1.996 . S
Zn43 O51 1.943 . S
O44 Zn43 1.962 . S
O44 C49 1.254 . S
O45 Zn42 2.031 . S
O45 C49 1.269 . S
O46 Zn43 1.986 . S
O46 C53 1.262 . S
O47 Zn42 2.049 . S
O47 C55 1.260 . S
O48 Zn43 1.996 . S
O48 C55 1.257 . S
C49 O44 1.254 . S
C49 O45 1.269 . S
C50 O51 1.249 . S
C50 O52 1.270 . S
O51 Zn43 1.943 . S
O51 C50 1.249 . S
O52 Zn42 2.067 . S
O52 C50 1.270 . S
C53 O46 1.262 . S
C53 O54 1.232 . S
O54 C53 1.232 . S
C55 O47 1.260 . S
C55 O48 1.257 . S
Zn56 O59 2.031 . S
Zn56 O61 2.049 . S
Zn56 O66 2.067 . S
Zn57 O58 1.962 . S
Zn57 O60 1.986 . S
Zn57 O62 1.996 . S
Zn57 O65 1.943 . S
O58 Zn57 1.962 . S
O58 C63 1.254 . S
O59 Zn56 2.031 . S
O59 C63 1.269 . S
O60 Zn57 1.986 . S
O60 C67 1.262 . S
O61 Zn56 2.049 . S
O61 C69 1.260 . S
O62 Zn57 1.996 . S
O62 C69 1.257 . S
C63 O58 1.254 . S
C63 O59 1.269 . S
C64 O65 1.249 . S
C64 O66 1.270 . S
O65 Zn57 1.943 . S
O65 C64 1.249 . S
O66 Zn56 2.067 . S
O66 C64 1.270 . S
C67 O60 1.262 . S
C67 O68 1.232 . S
O68 C67 1.232 . S
C69 O61 1.260 . S
C69 O62 1.257 . S
Zn70 O73 2.031 . S
Zn70 O75 2.049 . S
Zn70 O80 2.067 . S
Zn71 O72 1.962 . S
Zn71 O74 1.986 . S
Zn71 O76 1.996 . S
Zn71 O79 1.943 . S
O72 Zn71 1.962 . S
O72 C77 1.254 . S
O73 Zn70 2.031 . S
O73 C77 1.269 . S
O74 Zn71 1.986 . S
O74 C81 1.262 . S
O75 Zn70 2.049 . S
O75 C83 1.260 . S
O76 Zn71 1.996 . S
O76 C83 1.257 . S
C77 O72 1.254 . S
C77 O73 1.269 . S
C78 O79 1.249 . S
C78 O80 1.270 . S
O79 Zn71 1.943 . S
O79 C78 1.249 . S
O80 Zn70 2.067 . S
O80 C78 1.270 . S
C81 O74 1.262 . S
C81 O82 1.232 . S
O82 C81 1.232 . S
C83 O75 1.260 . S
C83 O76 1.257 . S
Zn84 O87 2.031 . S
Zn84 O89 2.049 . S
Zn84 O94 2.067 . S
Zn85 O86 1.962 . S
Zn85 O88 1.986 . S
Zn85 O90 1.996 . S
Zn85 O93 1.943 . S
O86 Zn85 1.962 . S
O86 C91 1.254 . S
O87 Zn84 2.031 . S
O87 C91 1.269 . S
O88 Zn85 1.986 . S
O88 C95 1.262 . S
O89 Zn84 2.049 . S
O89 C97 1.260 . S
O90 Zn85 1.996 . S
O90 C97 1.257 . S
C91 O86 1.254 . S
C91 O87 1.269 . S
C92 O93 1.249 . S
C92 O94 1.270 . S
O93 Zn85 1.943 . S
O93 C92 1.249 . S
O94 Zn84 2.067 . S
O94 C92 1.270 . S
C95 O88 1.262 . S
C95 O96 1.232 . S
O96 C95 1.232 . S
C97 O89 1.260 . S
C97 O90 1.257 . S
Zn98 O101 2.031 . S
Zn98 O103 2.049 . S
Zn98 O108 2.067 . S
Zn99 O100 1.962 . S
Zn99 O102 1.986 . S
Zn99 O104 1.996 . S
Zn99 O107 1.943 . S
O100 Zn99 1.962 . S
O100 C105 1.254 . S
O101 Zn98 2.031 . S
O101 C105 1.269 . S
O102 Zn99 1.986 . S
O102 C109 1.262 . S
O103 Zn98 2.049 . S
O103 C111 1.260 . S
O104 Zn99 1.996 . S
O104 C111 1.257 . S
C105 O100 1.254 . S
C105 O101 1.269 . S
C106 O107 1.249 . S
C106 O108 1.270 . S
O107 Zn99 1.943 . S
O107 C106 1.249 . S
O108 Zn98 2.067 . S
O108 C106 1.270 . S
C109 O102 1.262 . S
C109 O110 1.232 . S
O110 C109 1.232 . S
C111 O103 1.260 . S
C111 O104 1.257 . S
Zn112 O115 2.031 . S
Zn112 O117 2.049 . S
Zn112 O122 2.067 . S
Zn113 O114 1.962 . S
Zn113 O116 1.986 . S
Zn113 O118 1.996 . S
Zn113 O121 1.943 . S
O114 Zn113 1.962 . S
O114 C119 1.254 . S
O115 Zn112 2.031 . S
O115 C119 1.269 . S
O116 Zn113 1.986 . S
O116 C123 1.262 . S
O117 Zn112 2.049 . S
O117 C125 1.260 . S
O118 Zn113 1.996 . S
O118 C125 1.257 . S
C119 O114 1.254 . S
C119 O115 1.269 . S
C120 O121 1.249 . S
C120 O122 1.270 . S
O121 Zn113 1.943 . S
O121 C120 1.249 . S
O122 Zn112 2.067 . S
O122 C120 1.270 . S
C123 O116 1.262 . S
C123 O124 1.232 . S
O124 C123 1.232 . S
C125 O117 1.260 . S
C125 O118 1.257 . S
Zn126 O129 2.031 . S
Zn126 O131 2.049 . S
Zn126 O136 2.067 . S
Zn127 O128 1.962 . S
Zn127 O130 1.986 . S
Zn127 O132 1.996 . S
Zn127 O135 1.943 . S
O128 Zn127 1.962 . S
O128 C133 1.254 . S
O129 Zn126 2.031 . S
O129 C133 1.269 . S
O130 Zn127 1.986 . S
O130 C137 1.262 . S
O131 Zn126 2.049 . S
O131 C139 1.260 . S
O132 Zn127 1.996 . S
O132 C139 1.257 . S
C133 O128 1.254 . S
C133 O129 1.269 . S
C134 O135 1.249 . S
C134 O136 1.270 . S
O135 Zn127 1.943 . S
O135 C134 1.249 . S
O136 Zn126 2.067 . S
O136 C134 1.270 . S
C137 O130 1.262 . S
C137 O138 1.232 . S
O138 C137 1.232 . S
C139 O131 1.260 . S
C139 O132 1.257 . S
Zn140 O143 2.031 . S
Zn140 O145 2.049 . S
Zn140 O150 2.067 . S
Zn141 O142 1.962 . S
Zn141 O144 1.986 . S
Zn141 O146 1.996 . S
Zn141 O149 1.943 . S
O142 Zn141 1.962 . S
O142 C147 1.254 . S
O143 Zn140 2.031 . S
O143 C147 1.269 . S
O144 Zn141 1.986 . S
O144 C151 1.262 . S
O145 Zn140 2.049 . S
O145 C153 1.260 . S
O146 Zn141 1.996 . S
O146 C153 1.257 . S
C147 O142 1.254 . S
C147 O143 1.269 . S
C148 O149 1.249 . S
C148 O150 1.270 . S
O149 Zn141 1.943 . S
O149 C148 1.249 . S
O150 Zn140 2.067 . S
O150 C148 1.270 . S
C151 O144 1.262 . S
C151 O152 1.232 . S
O152 C151 1.232 . S
C153 O145 1.260 . S
C153 O146 1.257 . S
Zn154 O157 2.031 . S
Zn154 O159 2.049 . S
Zn154 O164 2.067 . S
Zn155 O156 1.962 . S
Zn155 O158 1.986 . S
Zn155 O160 1.996 . S
Zn155 O163 1.943 . S
O156 Zn155 1.962 . S
O156 C161 1.254 . S
O157 Zn154 2.031 . S
O157 C161 1.269 . S
O158 Zn155 1.986 . S
O158 C165 1.262 . S
O159 Zn154 2.049 . S
O159 C167 1.260 . S
O160 Zn155 1.996 . S
O160 C167 1.257 . S
C161 O156 1.254 . S
C161 O157 1.269 . S
C162 O163 1.249 . S
C162 O164 1.270 . S
O163 Zn155 1.943 . S
O163 C162 1.249 . S
O164 Zn154 2.067 . S
O164 C162 1.270 . S
C165 O158 1.262 . S
C165 O166 1.232 . S
O166 C165 1.232 . S
C167 O159 1.260 . S
C167 O160 1.257 . S
Zn168 O171 2.031 . S
Zn168 O173 2.049 . S
Zn168 O178 2.067 . S
Zn169 O170 1.962 . S
Zn169 O172 1.986 . S
Zn169 O174 1.996 . S
Zn169 O177 1.943 . S
O170 Zn169 1.962 . S
O170 C175 1.254 . S
O171 Zn168 2.031 . S
O171 C175 1.269 . S
O172 Zn169 1.986 . S
O172 C179 1.262 . S
O173 Zn168 2.049 . S
O173 C181 1.260 . S
O174 Zn169 1.996 . S
O174 C181 1.257 . S
C175 O170 1.254 . S
C175 O171 1.269 . S
C176 O177 1.249 . S
C176 O178 1.270 . S
O177 Zn169 1.943 . S
O177 C176 1.249 . S
O178 Zn168 2.067 . S
O178 C176 1.270 . S
C179 O172 1.262 . S
C179 O180 1.232 . S
O180 C179 1.232 . S
C181 O173 1.260 . S
C181 O174 1.257 . S
Zn182 O185 2.031 . S
Zn182 O187 2.049 . S
Zn182 O192 2.067 . S
Zn183 O184 1.962 . S
Zn183 O186 1.986 . S
Zn183 O188 1.996 . S
Zn183 O191 1.943 . S
O184 Zn183 1.962 . S
O184 C189 1.254 . S
O185 Zn182 2.031 . S
O185 C189 1.269 . S
O186 Zn183 1.986 . S
O186 C193 1.262 . S
O187 Zn182 2.049 . S
O187 C195 1.260 . S
O188 Zn183 1.996 . S
O188 C195 1.257 . S
C189 O184 1.254 . S
C189 O185 1.269 . S
C190 O191 1.249 . S
C190 O192 1.270 . S
O191 Zn183 1.943 . S
O191 C190 1.249 . S
O192 Zn182 2.067 . S
O192 C190 1.270 . S
C193 O186 1.262 . S
C193 O194 1.232 . S
O194 C193 1.232 . S
C195 O187 1.260 . S
C195 O188 1.257 . S
Zn196 O199 2.031 . S
Zn196 O201 2.049 . S
Zn196 O206 2.067 . S
Zn197 O198 1.962 . S
Zn197 O200 1.986 . S
Zn197 O202 1.996 . S
Zn197 O205 1.943 . S
O198 Zn197 1.962 . S
O198 C203 1.254 . S
O199 Zn196 2.031 . S
O199 C203 1.269 . S
O200 Zn197 1.986 . S
O200 C207 1.262 . S
O201 Zn196 2.049 . S
O201 C209 1.260 . S
O202 Zn197 1.996 . S
O202 C209 1.257 . S
C203 O198 1.254 . S
C203 O199 1.269 . S
C204 O205 1.249 . S
C204 O206 1.270 . S
O205 Zn197 1.943 . S
O205 C204 1.249 . S
O206 Zn196 2.067 . S
O206 C204 1.270 . S
C207 O200 1.262 . S
C207 O208 1.232 . S
O208 C207 1.232 . S
C209 O201 1.260 . S
C209 O202 1.257 . S
Zn210 O213 2.031 . S
Zn210 O215 2.049 . S
Zn210 O220 2.067 . S
Zn211 O212 1.962 . S
Zn211 O214 1.986 . S
Zn211 O216 1.996 . S
Zn211 O219 1.943 . S
O212 Zn211 1.962 . S
O212 C217 1.254 . S
O213 Zn210 2.031 . S
O213 C217 1.269 . S
O214 Zn211 1.986 . S
O214 C221 1.262 . S
O215 Zn210 2.049 . S
O215 C223 1.260 . S
O216 Zn211 1.996 . S
O216 C223 1.257 . S
C217 O212 1.254 . S
C217 O213 1.269 . S
C218 O219 1.249 . S
C218 O220 1.270 . S
O219 Zn211 1.943 . S
O219 C218 1.249 . S
O220 Zn210 2.067 . S
O220 C218 1.270 . S
C221 O214 1.262 . S
C221 O222 1.232 . S
O222 C221 1.232 . S
C223 O215 1.260 . S
C223 O216 1.257 . S
H224 C232 0.929 . S
H225 C234 0.930 1_545 S
H226 C236 0.930 . S
H227 C239 0.929 . S
H228 C242 0.930 . S
H229 C244 0.960 . S
H230 C244 0.960 . S
H231 C244 0.960 1_565 S
C232 H224 0.929 . S
C232 C233 1.377 . S
C232 C234 1.384 . S
C233 C232 1.377 . S
C233 C239 1.390 . S
C234 H225 0.930 1_565 S
C234 C232 1.384 . S
C234 C235 1.372 . S
C235 C234 1.372 . S
C235 C236 1.400 . S
C235 C240 1.490 . S
C236 H226 0.930 . S
C236 C235 1.400 . S
C236 C239 1.386 . S
H237 C253 0.923 1_565 S
H238 C254 0.931 1_565 S
C239 H227 0.929 . S
C239 C233 1.390 . S
C239 C236 1.386 . S
C240 C235 1.490 . S
C240 C242 1.395 . S
C240 C243 1.398 1_565 S
H241 C247 0.930 . S
C242 H228 0.930 . S
C242 C240 1.395 . S
C242 C245 1.403 1_565 S
C243 C240 1.398 1_545 S
C243 C244 1.524 . S
C243 C247 1.405 . S
C244 H229 0.960 . S
C244 H230 0.960 . S
C244 H231 0.960 1_545 S
C244 C243 1.524 . S
C245 C242 1.403 1_545 S
C245 C246 1.392 . S
C245 C249 1.495 . S
C246 C245 1.392 . S
C246 C247 1.385 . S
C246 C248 1.478 . S
C247 H241 0.930 . S
C247 C243 1.405 . S
C247 C246 1.385 . S
C248 C246 1.478 . S
C248 C250 1.381 . S
C248 C254 1.383 . S
C249 C245 1.495 . S
C249 H255 0.959 1_545 S
C249 H256 0.961 1_545 S
C249 H257 0.960 . S
C250 C248 1.381 . S
C250 C251 1.394 . S
C250 H258 0.930 . S
C251 C250 1.394 . S
C251 C252 1.383 . S
C251 H259 0.929 . S
C252 C251 1.383 . S
C252 C253 1.377 . S
C253 H237 0.923 1_545 S
C253 C252 1.377 . S
C253 C254 1.379 . S
C254 H238 0.931 1_545 S
C254 C248 1.383 . S
C254 C253 1.379 . S
H255 C249 0.959 1_565 S
H256 C249 0.961 1_565 S
H257 C249 0.960 . S
H258 C250 0.930 . S
H259 C251 0.929 . S
H260 C268 0.929 1_545 S
H261 C270 0.963 . S
H262 C272 0.930 . S
H263 C275 0.929 . S
H264 C278 0.930 . S
H265 C280 0.960 . S
H266 C280 0.960 . S
H267 C280 0.960 . S
C268 H260 0.929 1_565 S
C268 C269 1.377 . S
C268 C270 1.373 1_565 S
C269 C268 1.377 . S
C269 C275 1.390 . S
C270 H261 0.963 . S
C270 C268 1.373 1_545 S
C270 C271 1.351 1_545 S
C271 C270 1.351 1_565 S
C271 C272 1.400 . S
C271 C276 1.490 . S
C272 H262 0.930 . S
C272 C271 1.400 . S
C272 C275 1.386 . S
H273 C289 0.930 1_565 S
H274 C290 0.912 1_565 S
C275 H263 0.929 . S
C275 C269 1.390 . S
C275 C272 1.386 . S
C276 C271 1.490 . S
C276 C278 1.395 1_565 S
C276 C279 1.403 . S
H277 C283 0.932 . S
C278 H264 0.930 . S
C278 C276 1.395 1_545 S
C278 C281 1.403 . S
C279 C276 1.403 . S
C279 C280 1.524 . S
C279 C283 1.400 1_565 S
C280 H265 0.960 . S
C280 H266 0.960 . S
C280 H267 0.960 . S
C280 C279 1.524 . S
C281 C278 1.403 . S
C281 C282 1.392 . S
C281 C285 1.495 . S
C282 C281 1.392 . S
C282 C283 1.385 . S
C282 C284 1.478 . S
C283 H277 0.932 . S
C283 C279 1.400 1_545 S
C283 C282 1.385 . S
C284 C282 1.478 . S
C284 C286 1.381 . S
C284 C290 1.396 . S
C285 C281 1.495 . S
C285 H291 0.959 . S
C285 H292 0.961 . S
C285 H293 0.960 . S
C286 C284 1.381 . S
C286 C287 1.394 . S
C286 H294 0.930 . S
C287 C286 1.394 . S
C287 C288 1.383 . S
C287 H295 0.929 . S
C288 C287 1.383 . S
C288 C289 1.377 . S
C289 H273 0.930 1_545 S
C289 C288 1.377 . S
C289 C290 1.385 . S
C290 H274 0.912 1_545 S
C290 C284 1.396 . S
C290 C289 1.385 . S
H291 C285 0.959 . S
H292 C285 0.961 . S
H293 C285 0.960 . S
H294 C286 0.930 . S
H295 C287 0.929 . S
H296 C304 0.929 . S
H297 C306 0.930 . S
H298 C308 0.930 . S
H299 C311 0.929 . S
H300 C314 0.930 . S
H301 C316 0.960 . S
H302 C316 0.960 . S
H303 C316 0.960 . S
C304 H296 0.929 . S
C304 C305 1.377 . S
C304 C306 1.384 . S
C305 C304 1.377 . S
C305 C311 1.390 . S
C306 H297 0.930 . S
C306 C304 1.384 . S
C306 C307 1.372 . S
C307 C306 1.372 . S
C307 C308 1.400 . S
C307 C312 1.490 . S
C308 H298 0.930 . S
C308 C307 1.400 . S
C308 C311 1.386 . S
H309 C325 0.930 . S
H310 C326 0.931 . S
C311 H299 0.929 . S
C311 C305 1.390 . S
C311 C308 1.386 . S
C312 C307 1.490 . S
C312 C314 1.395 . S
C312 C315 1.403 1_565 S
H313 C319 0.930 . S
C314 H300 0.930 . S
C314 C312 1.395 . S
C314 C317 1.403 . S
C315 C312 1.403 1_545 S
C315 C316 1.524 . S
C315 C319 1.400 . S
C316 H301 0.960 . S
C316 H302 0.960 . S
C316 H303 0.960 . S
C316 C315 1.524 . S
C317 C314 1.403 . S
C317 C318 1.392 1_565 S
C317 C321 1.495 . S
C318 C317 1.392 1_545 S
C318 C319 1.385 . S
C318 C320 1.478 . S
C319 H313 0.930 . S
C319 C315 1.400 . S
C319 C318 1.385 . S
C320 C318 1.478 . S
C320 C322 1.381 . S
C320 C326 1.383 . S
C321 C317 1.495 . S
C321 H327 0.959 . S
C321 H328 0.961 . S
C321 H329 0.960 . S
C322 C320 1.381 . S
C322 C323 1.394 . S
C322 H330 0.930 . S
C323 C322 1.394 . S
C323 C324 1.383 . S
C323 H331 0.929 . S
C324 C323 1.383 . S
C324 C325 1.377 . S
C325 H309 0.930 . S
C325 C324 1.377 . S
C325 C326 1.379 . S
C326 H310 0.931 . S
C326 C320 1.383 . S
C326 C325 1.379 . S
H327 C321 0.959 . S
H328 C321 0.961 . S
H329 C321 0.960 . S
H330 C322 0.930 . S
H331 C323 0.929 . S
H332 C340 0.929 . S
H333 C342 0.930 . S
H334 C344 0.930 . S
H335 C347 0.929 . S
H336 C350 0.930 . S
H337 C352 0.960 . S
H338 C352 0.960 . S
H339 C352 0.960 . S
C340 H332 0.929 . S
C340 C341 1.377 . S
C340 C342 1.384 . S
C341 C340 1.377 . S
C341 C347 1.390 . S
C342 H333 0.930 . S
C342 C340 1.384 . S
C342 C343 1.372 . S
C343 C342 1.372 . S
C343 C344 1.400 . S
C343 C348 1.490 . S
C344 H334 0.930 . S
C344 C343 1.400 . S
C344 C347 1.386 . S
H345 C361 0.930 . S
H346 C362 0.931 . S
C347 H335 0.929 . S
C347 C341 1.390 . S
C347 C344 1.386 . S
C348 C343 1.490 . S
C348 C350 1.395 1_565 S
C348 C351 1.403 . S
H349 C355 0.930 . S
C350 H336 0.930 . S
C350 C348 1.395 1_545 S
C350 C353 1.403 . S
C351 C348 1.403 . S
C351 C352 1.524 . S
C351 C355 1.400 . S
C352 H337 0.960 . S
C352 H338 0.960 . S
C352 H339 0.960 . S
C352 C351 1.524 . S
C353 C350 1.403 . S
C353 C354 1.392 . S
C353 C357 1.495 . S
C354 C353 1.392 . S
C354 C355 1.385 1_545 S
C354 C356 1.478 . S
C355 H349 0.930 . S
C355 C351 1.400 . S
C355 C354 1.385 1_565 S
C356 C354 1.478 . S
C356 C358 1.381 . S
C356 C362 1.383 . S
C357 C353 1.495 . S
C357 H363 0.959 . S
C357 H364 0.961 . S
C357 H365 0.960 . S
C358 C356 1.381 . S
C358 C359 1.394 . S
C358 H366 0.930 . S
C359 C358 1.394 . S
C359 C360 1.383 . S
C359 H367 0.929 . S
C360 C359 1.383 . S
C360 C361 1.377 . S
C361 H345 0.930 . S
C361 C360 1.377 . S
C361 C362 1.379 . S
C362 H346 0.931 . S
C362 C356 1.383 . S
C362 C361 1.379 . S
H363 C357 0.959 . S
H364 C357 0.961 . S
H365 C357 0.960 . S
H366 C358 0.930 . S
H367 C359 0.929 . S
H368 C376 0.929 . S
H369 C378 0.930 . S
H370 C380 0.930 . S
H371 C383 0.929 . S
H372 C386 0.930 . S
H373 C388 0.960 . S
H374 C388 0.960 . S
H375 C388 0.960 . S
C376 H368 0.929 . S
C376 C377 1.377 . S
C376 C378 1.384 . S
C377 C376 1.377 . S
C377 C383 1.390 . S
C378 H369 0.930 . S
C378 C376 1.384 . S
C378 C379 1.372 . S
C379 C378 1.372 . S
C379 C380 1.400 . S
C379 C384 1.490 . S
C380 H370 0.930 . S
C380 C379 1.400 . S
C380 C383 1.386 . S
H381 C397 0.930 . S
H382 C398 0.931 . S
C383 H371 0.929 . S
C383 C377 1.390 . S
C383 C380 1.386 . S
C384 C379 1.490 . S
C384 C386 1.395 . S
C384 C387 1.403 . S
H385 C391 0.930 . S
C386 H372 0.930 . S
C386 C384 1.395 . S
C386 C389 1.403 . S
C387 C384 1.403 . S
C387 C388 1.524 . S
C387 C391 1.400 . S
C388 H373 0.960 . S
C388 H374 0.960 . S
C388 H375 0.960 . S
C388 C387 1.524 . S
C389 C386 1.403 . S
C389 C390 1.392 . S
C389 C393 1.495 . S
C390 C389 1.392 . S
C390 C391 1.385 . S
C390 C392 1.478 . S
C391 H385 0.930 . S
C391 C387 1.400 . S
C391 C390 1.385 . S
C392 C390 1.478 . S
C392 C394 1.381 . S
C392 C398 1.383 . S
C393 C389 1.495 . S
C393 H399 0.959 . S
C393 H400 0.961 . S
C393 H401 0.960 . S
C394 C392 1.381 . S
C394 C395 1.394 . S
C394 H402 0.930 . S
C395 C394 1.394 . S
C395 C396 1.383 . S
C395 H403 0.929 . S
C396 C395 1.383 . S
C396 C397 1.377 . S
C397 H381 0.930 . S
C397 C396 1.377 . S
C397 C398 1.379 . S
C398 H382 0.931 . S
C398 C392 1.383 . S
C398 C397 1.379 . S
H399 C393 0.959 . S
H400 C393 0.961 . S
H401 C393 0.960 . S
H402 C394 0.930 . S
H403 C395 0.929 . S
H404 C412 0.929 . S
H405 C414 0.930 . S
H406 C416 0.930 . S
H407 C419 0.929 . S
H408 C422 0.930 . S
H409 C424 0.960 . S
H410 C424 0.960 . S
H411 C424 0.960 . S
C412 H404 0.929 . S
C412 C413 1.377 . S
C412 C414 1.384 . S
C413 C412 1.377 . S
C413 C419 1.390 . S
C414 H405 0.930 . S
C414 C412 1.384 . S
C414 C415 1.372 . S
C415 C414 1.372 . S
C415 C416 1.400 . S
C415 C420 1.490 . S
C416 H406 0.930 . S
C416 C415 1.400 . S
C416 C419 1.386 . S
H417 C433 0.930 . S
H418 C434 0.931 . S
C419 H407 0.929 . S
C419 C413 1.390 . S
C419 C416 1.386 . S
C420 C415 1.490 . S
C420 C422 1.395 . S
C420 C423 1.403 . S
H421 C427 0.930 . S
C422 H408 0.930 . S
C422 C420 1.395 . S
C422 C425 1.403 . S
C423 C420 1.403 . S
C423 C424 1.524 . S
C423 C427 1.400 . S
C424 H409 0.960 . S
C424 H410 0.960 . S
C424 H411 0.960 . S
C424 C423 1.524 . S
C425 C422 1.403 . S
C425 C426 1.392 . S
C425 C429 1.495 . S
C426 C425 1.392 . S
C426 C427 1.385 . S
C426 C428 1.478 . S
C427 H421 0.930 . S
C427 C423 1.400 . S
C427 C426 1.385 . S
C428 C426 1.478 . S
C428 C430 1.381 . S
C428 C434 1.383 . S
C429 C425 1.495 . S
C429 H435 0.959 . S
C429 H436 0.961 . S
C429 H437 0.960 . S
C430 C428 1.381 . S
C430 C431 1.394 . S
C430 H438 0.930 . S
C431 C430 1.394 . S
C431 C432 1.383 . S
C431 H439 0.929 . S
C432 C431 1.383 . S
C432 C433 1.377 . S
C433 H417 0.930 . S
C433 C432 1.377 . S
C433 C434 1.379 . S
C434 H418 0.931 . S
C434 C428 1.383 . S
C434 C433 1.379 . S
H435 C429 0.959 . S
H436 C429 0.961 . S
H437 C429 0.960 . S
H438 C430 0.930 . S
H439 C431 0.929 . S
H440 C448 0.929 . S
H441 C450 0.930 . S
H442 C452 0.930 . S
H443 C455 0.929 . S
H444 C458 0.930 . S
H445 C460 0.960 . S
H446 C460 0.960 . S
H447 C460 0.960 . S
C448 H440 0.929 . S
C448 C449 1.377 . S
C448 C450 1.384 . S
C449 C448 1.377 . S
C449 C455 1.390 . S
C450 H441 0.930 . S
C450 C448 1.384 . S
C450 C451 1.372 . S
C451 C450 1.372 . S
C451 C452 1.400 . S
C451 C456 1.490 . S
C452 H442 0.930 . S
C452 C451 1.400 . S
C452 C455 1.386 . S
H453 C469 0.930 . S
H454 C470 0.931 . S
C455 H443 0.929 . S
C455 C449 1.390 . S
C455 C452 1.386 . S
C456 C451 1.490 . S
C456 C458 1.395 . S
C456 C459 1.403 . S
H457 C463 0.930 . S
C458 H444 0.930 . S
C458 C456 1.395 . S
C458 C461 1.403 . S
C459 C456 1.403 . S
C459 C460 1.524 . S
C459 C463 1.400 . S
C460 H445 0.960 . S
C460 H446 0.960 . S
C460 H447 0.960 . S
C460 C459 1.524 . S
C461 C458 1.403 . S
C461 C462 1.392 . S
C461 C465 1.495 . S
C462 C461 1.392 . S
C462 C463 1.385 . S
C462 C464 1.478 . S
C463 H457 0.930 . S
C463 C459 1.400 . S
C463 C462 1.385 . S
C464 C462 1.478 . S
C464 C466 1.381 . S
C464 C470 1.383 . S
C465 C461 1.495 . S
C465 H471 0.959 . S
C465 H472 0.961 . S
C465 H473 0.960 . S
C466 C464 1.381 . S
C466 C467 1.394 . S
C466 H474 0.930 . S
C467 C466 1.394 . S
C467 C468 1.383 . S
C467 H475 0.929 . S
C468 C467 1.383 . S
C468 C469 1.377 . S
C469 H453 0.930 . S
C469 C468 1.377 . S
C469 C470 1.379 . S
C470 H454 0.931 . S
C470 C464 1.383 . S
C470 C469 1.379 . S
H471 C465 0.959 . S
H472 C465 0.961 . S
H473 C465 0.960 . S
H474 C466 0.930 . S
H475 C467 0.929 . S
H476 C484 0.929 . S
H477 C486 0.930 . S
H478 C488 0.930 . S
H479 C491 0.929 . S
H480 C494 0.930 . S
H481 C496 0.960 . S
H482 C496 0.960 . S
H483 C496 0.960 . S
C484 H476 0.929 . S
C484 C485 1.377 . S
C484 C486 1.384 . S
C485 C484 1.377 . S
C485 C491 1.390 . S
C486 H477 0.930 . S
C486 C484 1.384 . S
C486 C487 1.372 . S
C487 C486 1.372 . S
C487 C488 1.400 . S
C487 C492 1.490 . S
C488 H478 0.930 . S
C488 C487 1.400 . S
C488 C491 1.386 . S
H489 C505 0.930 . S
H490 C506 0.931 . S
C491 H479 0.929 . S
C491 C485 1.390 . S
C491 C488 1.386 . S
C492 C487 1.490 . S
C492 C494 1.395 . S
C492 C495 1.403 . S
H493 C499 0.930 . S
C494 H480 0.930 . S
C494 C492 1.395 . S
C494 C497 1.403 . S
C495 C492 1.403 . S
C495 C496 1.524 . S
C495 C499 1.400 . S
C496 H481 0.960 . S
C496 H482 0.960 . S
C496 H483 0.960 . S
C496 C495 1.524 . S
C497 C494 1.403 . S
C497 C498 1.392 . S
C497 C501 1.495 . S
C498 C497 1.392 . S
C498 C499 1.385 . S
C498 C500 1.478 . S
C499 H493 0.930 . S
C499 C495 1.400 . S
C499 C498 1.385 . S
C500 C498 1.478 . S
C500 C502 1.381 . S
C500 C506 1.383 . S
C501 C497 1.495 . S
C501 H507 0.959 . S
C501 H508 0.961 . S
C501 H509 0.960 . S
C502 C500 1.381 . S
C502 C503 1.394 . S
C502 H510 0.930 . S
C503 C502 1.394 . S
C503 C504 1.383 . S
C503 H511 0.929 . S
C504 C503 1.383 . S
C504 C505 1.377 . S
C505 H489 0.930 . S
C505 C504 1.377 . S
C505 C506 1.379 . S
C506 H490 0.931 . S
C506 C500 1.383 . S
C506 C505 1.379 . S
H507 C501 0.959 . S
H508 C501 0.961 . S
H509 C501 0.960 . S
H510 C502 0.930 . S
H511 C503 0.929 . S
H512 C520 0.929 . S
H513 C522 0.930 . S
H514 C524 0.930 . S
H515 C527 0.929 . S
H516 C530 0.930 . S
H517 C532 0.960 . S
H518 C532 0.960 . S
H519 C532 0.960 . S
C520 H512 0.929 . S
C520 C521 1.377 . S
C520 C522 1.384 . S
C521 C520 1.377 . S
C521 C527 1.390 . S
C522 H513 0.930 . S
C522 C520 1.384 . S
C522 C523 1.372 . S
C523 C522 1.372 . S
C523 C524 1.400 . S
C523 C528 1.490 . S
C524 H514 0.930 . S
C524 C523 1.400 . S
C524 C527 1.386 . S
H525 C541 0.930 . S
H526 C542 0.931 . S
C527 H515 0.929 . S
C527 C521 1.390 . S
C527 C524 1.386 . S
C528 C523 1.490 . S
C528 C530 1.395 1_655 S
C528 C531 1.403 . S
H529 C535 0.930 . S
C530 H516 0.930 . S
C530 C528 1.395 1_455 S
C530 C533 1.403 . S
C531 C528 1.403 . S
C531 C532 1.524 . S
C531 C535 1.400 . S
C532 H517 0.960 . S
C532 H518 0.960 . S
C532 H519 0.960 . S
C532 C531 1.524 . S
C533 C530 1.403 . S
C533 C534 1.392 . S
C533 C537 1.495 . S
C534 C533 1.392 . S
C534 C535 1.385 1_455 S
C534 C536 1.478 . S
C535 H529 0.930 . S
C535 C531 1.400 . S
C535 C534 1.385 1_655 S
C536 C534 1.478 . S
C536 C538 1.381 . S
C536 C542 1.383 . S
C537 C533 1.495 . S
C537 H543 0.959 . S
C537 H544 0.961 . S
C537 H545 0.960 . S
C538 C536 1.381 . S
C538 C539 1.394 . S
C538 H546 0.930 . S
C539 C538 1.394 . S
C539 C540 1.383 . S
C539 H547 0.929 . S
C540 C539 1.383 . S
C540 C541 1.377 . S
C541 H525 0.930 . S
C541 C540 1.377 . S
C541 C542 1.379 . S
C542 H526 0.931 . S
C542 C536 1.383 . S
C542 C541 1.379 . S
H543 C537 0.959 . S
H544 C537 0.961 . S
H545 C537 0.960 . S
H546 C538 0.930 . S
H547 C539 0.929 . S
H548 C556 0.929 . S
H549 C558 0.930 . S
H550 C560 0.930 . S
H551 C563 0.929 . S
H552 C566 0.930 . S
H553 C568 0.960 . S
H554 C568 0.960 . S
H555 C568 0.960 . S
C556 H548 0.929 . S
C556 C557 1.377 . S
C556 C558 1.384 . S
C557 C556 1.377 . S
C557 C563 1.390 . S
C558 H549 0.930 . S
C558 C556 1.384 . S
C558 C559 1.372 . S
C559 C558 1.372 . S
C559 C560 1.400 . S
C559 C564 1.490 . S
C560 H550 0.930 . S
C560 C559 1.400 . S
C560 C563 1.386 . S
H561 C577 0.930 . S
H562 C578 0.931 . S
C563 H551 0.929 . S
C563 C557 1.390 . S
C563 C560 1.386 . S
C564 C559 1.490 . S
C564 C566 1.395 . S
C564 C567 1.403 . S
H565 C571 0.930 . S
C566 H552 0.930 . S
C566 C564 1.395 . S
C566 C569 1.403 . S
C567 C564 1.403 . S
C567 C568 1.524 . S
C567 C571 1.400 . S
C568 H553 0.960 . S
C568 H554 0.960 . S
C568 H555 0.960 . S
C568 C567 1.524 . S
C569 C566 1.403 . S
C569 C570 1.392 . S
C569 C573 1.495 . S
C570 C569 1.392 . S
C570 C571 1.385 . S
C570 C572 1.478 . S
C571 H565 0.930 . S
C571 C567 1.400 . S
C571 C570 1.385 . S
C572 C570 1.478 . S
C572 C574 1.381 . S
C572 C578 1.383 . S
C573 C569 1.495 . S
C573 H579 0.959 . S
C573 H580 0.961 . S
C573 H581 0.960 . S
C574 C572 1.381 . S
C574 C575 1.394 . S
C574 H582 0.930 . S
C575 C574 1.394 . S
C575 C576 1.383 . S
C575 H583 0.929 . S
C576 C575 1.383 . S
C576 C577 1.377 . S
C577 H561 0.930 . S
C577 C576 1.377 . S
C577 C578 1.379 . S
C578 H562 0.931 . S
C578 C572 1.383 . S
C578 C577 1.379 . S
H579 C573 0.959 . S
H580 C573 0.961 . S
H581 C573 0.960 . S
H582 C574 0.930 . S
H583 C575 0.929 . S
H584 C592 0.929 . S
H585 C594 0.930 1_655 S
H586 C596 0.930 . S
H587 C599 0.929 . S
H588 C602 0.930 . S
H589 C604 0.960 . S
H590 C604 0.960 . S
H591 C604 0.960 . S
C592 H584 0.929 . S
C592 C593 1.377 . S
C592 C594 1.384 . S
C593 C592 1.377 . S
C593 C599 1.390 . S
C594 H585 0.930 1_455 S
C594 C592 1.384 . S
C594 C595 1.372 . S
C595 C594 1.372 . S
C595 C596 1.400 . S
C595 C600 1.490 . S
C596 H586 0.930 . S
C596 C595 1.400 . S
C596 C599 1.386 . S
H597 C613 0.930 . S
H598 C614 0.931 1_455 S
C599 H587 0.929 . S
C599 C593 1.390 . S
C599 C596 1.386 . S
C600 C595 1.490 . S
C600 C602 1.395 1_455 S
C600 C603 1.403 . S
H601 C607 0.930 . S
C602 H588 0.930 . S
C602 C600 1.395 1_655 S
C602 C605 1.403 . S
C603 C600 1.403 . S
C603 C604 1.524 . S
C603 C607 1.400 . S
C604 H589 0.960 . S
C604 H590 0.960 . S
C604 H591 0.960 . S
C604 C603 1.524 . S
C605 C602 1.403 . S
C605 C606 1.392 . S
C605 C609 1.495 . S
C606 C605 1.392 . S
C606 C607 1.385 1_655 S
C606 C608 1.478 . S
C607 H601 0.930 . S
C607 C603 1.400 . S
C607 C606 1.385 1_455 S
C608 C606 1.478 . S
C608 C610 1.381 . S
C608 C614 1.383 . S
C609 C605 1.495 . S
C609 H615 0.959 . S
C609 H616 0.961 . S
C609 H617 0.960 . S
C610 C608 1.381 . S
C610 C611 1.394 . S
C610 H618 0.930 . S
C611 C610 1.394 . S
C611 C612 1.383 . S
C611 H619 0.929 . S
C612 C611 1.383 . S
C612 C613 1.377 . S
C613 H597 0.930 . S
C613 C612 1.377 . S
C613 C614 1.379 . S
C614 H598 0.931 1_655 S
C614 C608 1.383 . S
C614 C613 1.379 . S
H615 C609 0.959 . S
H616 C609 0.961 . S
H617 C609 0.960 . S
H618 C610 0.930 . S
H619 C611 0.929 . S
H620 C628 0.929 . S
H621 C630 0.930 . S
H622 C632 0.930 . S
H623 C635 0.929 . S
H624 C638 0.930 . S
H625 C640 0.960 . S
H626 C640 0.960 . S
H627 C640 0.960 . S
C628 H620 0.929 . S
C628 C629 1.377 . S
C628 C630 1.384 . S
C629 C628 1.377 . S
C629 C635 1.390 . S
C630 H621 0.930 . S
C630 C628 1.384 . S
C630 C631 1.372 . S
C631 C630 1.372 . S
C631 C632 1.400 . S
C631 C636 1.490 . S
C632 H622 0.930 . S
C632 C631 1.400 . S
C632 C635 1.386 . S
H633 C649 0.930 . S
H634 C650 0.931 . S
C635 H623 0.929 . S
C635 C629 1.390 . S
C635 C632 1.386 . S
C636 C631 1.490 . S
C636 C638 1.395 . S
C636 C639 1.403 . S
H637 C643 0.930 . S
C638 H624 0.930 . S
C638 C636 1.395 . S
C638 C641 1.403 . S
C639 C636 1.403 . S
C639 C640 1.524 . S
C639 C643 1.400 . S
C640 H625 0.960 . S
C640 H626 0.960 . S
C640 H627 0.960 . S
C640 C639 1.524 . S
C641 C638 1.403 . S
C641 C642 1.392 . S
C641 C645 1.495 . S
C642 C641 1.392 . S
C642 C643 1.385 . S
C642 C644 1.478 . S
C643 H637 0.930 . S
C643 C639 1.400 . S
C643 C642 1.385 . S
C644 C642 1.478 . S
C644 C646 1.381 . S
C644 C650 1.383 . S
C645 C641 1.495 . S
C645 H651 0.959 . S
C645 H652 0.961 . S
C645 H653 0.960 . S
C646 C644 1.381 . S
C646 C647 1.394 . S
C646 H654 0.930 . S
C647 C646 1.394 . S
C647 C648 1.383 . S
C647 H655 0.929 . S
C648 C647 1.383 . S
C648 C649 1.377 . S
C649 H633 0.930 . S
C649 C648 1.377 . S
C649 C650 1.379 . S
C650 H634 0.931 . S
C650 C644 1.383 . S
C650 C649 1.379 . S
H651 C645 0.959 . S
H652 C645 0.961 . S
H653 C645 0.960 . S
H654 C646 0.930 . S
H655 C647 0.929 . S
H656 C664 0.929 . S
H657 C666 0.930 . S
H658 C668 0.930 . S
H659 C671 0.929 . S
H660 C674 0.930 . S
H661 C676 0.960 . S
H662 C676 0.960 . S
H663 C676 0.960 . S
C664 H656 0.929 . S
C664 C665 1.377 . S
C664 C666 1.384 . S
C665 C664 1.377 . S
C665 C671 1.390 . S
C666 H657 0.930 . S
C666 C664 1.384 . S
C666 C667 1.372 . S
C667 C666 1.372 . S
C667 C668 1.400 . S
C667 C672 1.490 . S
C668 H658 0.930 . S
C668 C667 1.400 . S
C668 C671 1.386 . S
H669 C685 0.930 . S
H670 C686 0.931 . S
C671 H659 0.929 . S
C671 C665 1.390 . S
C671 C668 1.386 . S
C672 C667 1.490 . S
C672 C674 1.395 . S
C672 C675 1.403 . S
H673 C679 0.930 . S
C674 H660 0.930 . S
C674 C672 1.395 . S
C674 C677 1.403 . S
C675 C672 1.403 . S
C675 C676 1.524 . S
C675 C679 1.400 . S
C676 H661 0.960 . S
C676 H662 0.960 . S
C676 H663 0.960 . S
C676 C675 1.524 . S
C677 C674 1.403 . S
C677 C678 1.392 . S
C677 C681 1.495 . S
C678 C677 1.392 . S
C678 C679 1.385 . S
C678 C680 1.478 . S
C679 H673 0.930 . S
C679 C675 1.400 . S
C679 C678 1.385 . S
C680 C678 1.478 . S
C680 C682 1.381 . S
C680 C686 1.383 . S
C681 C677 1.495 . S
C681 H687 0.959 . S
C681 H688 0.961 . S
C681 H689 0.960 . S
C682 C680 1.381 . S
C682 C683 1.394 . S
C682 H690 0.930 . S
C683 C682 1.394 . S
C683 C684 1.383 . S
C683 H691 0.929 . S
C684 C683 1.383 . S
C684 C685 1.377 . S
C685 H669 0.930 . S
C685 C684 1.377 . S
C685 C686 1.379 . S
C686 H670 0.931 . S
C686 C680 1.383 . S
C686 C685 1.379 . S
H687 C681 0.959 . S
H688 C681 0.961 . S
H689 C681 0.960 . S
H690 C682 0.930 . S
H691 C683 0.929 . S
H692 C700 0.929 . S
H693 C702 0.930 1_655 S
H694 C704 0.930 . S
H695 C707 0.929 . S
H696 C710 0.930 . S
H697 C712 0.960 . S
H698 C712 0.960 . S
H699 C712 0.960 . S
C700 H692 0.929 . S
C700 C701 1.377 . S
C700 C702 1.384 . S
C701 C700 1.377 . S
C701 C707 1.390 . S
C702 H693 0.930 1_455 S
C702 C700 1.384 . S
C702 C703 1.372 . S
C703 C702 1.372 . S
C703 C704 1.400 . S
C703 C708 1.490 . S
C704 H694 0.930 . S
C704 C703 1.400 . S
C704 C707 1.386 . S
H705 C721 0.930 . S
H706 C722 0.931 1_455 S
C707 H695 0.929 . S
C707 C701 1.390 . S
C707 C704 1.386 . S
C708 C703 1.490 . S
C708 C710 1.395 1_455 S
C708 C711 1.403 . S
H709 C715 0.930 . S
C710 H696 0.930 . S
C710 C708 1.395 1_655 S
C710 C713 1.403 . S
C711 C708 1.403 . S
C711 C712 1.524 . S
C711 C715 1.400 . S
C712 H697 0.960 . S
C712 H698 0.960 . S
C712 H699 0.960 . S
C712 C711 1.524 . S
C713 C710 1.403 . S
C713 C714 1.392 . S
C713 C717 1.495 . S
C714 C713 1.392 . S
C714 C715 1.385 1_655 S
C714 C716 1.478 . S
C715 H709 0.930 . S
C715 C711 1.400 . S
C715 C714 1.385 1_455 S
C716 C714 1.478 . S
C716 C718 1.381 . S
C716 C722 1.383 . S
C717 C713 1.495 . S
C717 H723 0.959 . S
C717 H724 0.961 . S
C717 H725 0.960 . S
C718 C716 1.381 . S
C718 C719 1.394 . S
C718 H726 0.930 . S
C719 C718 1.394 . S
C719 C720 1.383 . S
C719 H727 0.929 . S
C720 C719 1.383 . S
C720 C721 1.377 . S
C721 H705 0.930 . S
C721 C720 1.377 . S
C721 C722 1.379 . S
C722 H706 0.931 1_655 S
C722 C716 1.383 . S
C722 C721 1.379 . S
H723 C717 0.959 . S
H724 C717 0.961 . S
H725 C717 0.960 . S
H726 C718 0.930 . S
H727 C719 0.929 . S
H728 C736 0.929 . S
H729 C738 0.930 . S
H730 C740 0.930 . S
H731 C743 0.929 . S
H732 C746 0.930 . S
H733 C748 0.960 . S
H734 C748 0.960 . S
H735 C748 0.960 . S
C736 H728 0.929 . S
C736 C737 1.377 . S
C736 C738 1.384 . S
C737 C736 1.377 . S
C737 C743 1.390 . S
C738 H729 0.930 . S
C738 C736 1.384 . S
C738 C739 1.372 . S
C739 C738 1.372 . S
C739 C740 1.400 . S
C739 C744 1.490 . S
C740 H730 0.930 . S
C740 C739 1.400 . S
C740 C743 1.386 . S
H741 C757 0.930 . S
H742 C758 0.931 . S
C743 H731 0.929 . S
C743 C737 1.390 . S
C743 C740 1.386 . S
C744 C739 1.490 . S
C744 C746 1.395 . S
C744 C747 1.403 . S
H745 C751 0.930 . S
C746 H732 0.930 . S
C746 C744 1.395 . S
C746 C749 1.403 . S
C747 C744 1.403 . S
C747 C748 1.524 . S
C747 C751 1.400 . S
C748 H733 0.960 . S
C748 H734 0.960 . S
C748 H735 0.960 . S
C748 C747 1.524 . S
C749 C746 1.403 . S
C749 C750 1.392 . S
C749 C753 1.495 . S
C750 C749 1.392 . S
C750 C751 1.385 . S
C750 C752 1.478 . S
C751 H745 0.930 . S
C751 C747 1.400 . S
C751 C750 1.385 . S
C752 C750 1.478 . S
C752 C754 1.381 . S
C752 C758 1.383 . S
C753 C749 1.495 . S
C753 H759 0.959 . S
C753 H760 0.961 . S
C753 H761 0.960 . S
C754 C752 1.381 . S
C754 C755 1.394 . S
C754 H762 0.930 . S
C755 C754 1.394 . S
C755 C756 1.383 . S
C755 H763 0.929 . S
C756 C755 1.383 . S
C756 C757 1.377 . S
C757 H741 0.930 . S
C757 C756 1.377 . S
C757 C758 1.379 . S
C758 H742 0.931 . S
C758 C752 1.383 . S
C758 C757 1.379 . S
H759 C753 0.959 . S
H760 C753 0.961 . S
H761 C753 0.960 . S
H762 C754 0.930 . S
H763 C755 0.929 . S
H764 C772 0.929 . S
H765 C774 0.930 . S
H766 C776 0.930 . S
H767 C779 0.929 . S
H768 C782 0.930 . S
H769 C784 0.960 . S
H770 C784 0.960 . S
H771 C784 0.960 . S
C772 H764 0.929 . S
C772 C773 1.377 . S
C772 C774 1.384 . S
C773 C772 1.377 . S
C773 C779 1.390 . S
C774 H765 0.930 . S
C774 C772 1.384 . S
C774 C775 1.372 . S
C775 C774 1.372 . S
C775 C776 1.400 . S
C775 C780 1.490 . S
C776 H766 0.930 . S
C776 C775 1.400 . S
C776 C779 1.386 . S
H777 C793 0.930 . S
H778 C794 0.931 . S
C779 H767 0.929 . S
C779 C773 1.390 . S
C779 C776 1.386 . S
C780 C775 1.490 . S
C780 C782 1.395 . S
C780 C783 1.403 1_455 S
H781 C787 0.930 . S
C782 H768 0.930 . S
C782 C780 1.395 . S
C782 C785 1.403 . S
C783 C780 1.403 1_655 S
C783 C784 1.524 . S
C783 C787 1.400 . S
C784 H769 0.960 . S
C784 H770 0.960 . S
C784 H771 0.960 . S
C784 C783 1.524 . S
C785 C782 1.403 . S
C785 C786 1.392 1_455 S
C785 C789 1.495 . S
C786 C785 1.392 1_655 S
C786 C787 1.385 . S
C786 C788 1.478 . S
C787 H781 0.930 . S
C787 C783 1.400 . S
C787 C786 1.385 . S
C788 C786 1.478 . S
C788 C790 1.381 . S
C788 C794 1.383 . S
C789 C785 1.495 . S
C789 H795 0.959 . S
C789 H796 0.961 . S
C789 H797 0.960 . S
C790 C788 1.381 . S
C790 C791 1.394 . S
C790 H798 0.930 . S
C791 C790 1.394 . S
C791 C792 1.383 . S
C791 H799 0.929 . S
C792 C791 1.383 . S
C792 C793 1.377 . S
C793 H777 0.930 . S
C793 C792 1.377 . S
C793 C794 1.379 . S
C794 H778 0.931 . S
C794 C788 1.383 . S
C794 C793 1.379 . S
H795 C789 0.959 . S
H796 C789 0.961 . S
H797 C789 0.960 . S
H798 C790 0.930 . S
H799 C791 0.929 . S
H800 C808 0.929 . S
H801 C810 0.930 1_655 S
H802 C812 0.930 . S
H803 C815 0.929 . S
H804 C818 0.930 . S
H805 C820 0.960 . S
H806 C820 0.960 . S
H807 C820 0.960 . S
C808 H800 0.929 . S
C808 C809 1.377 . S
C808 C810 1.384 . S
C809 C808 1.377 . S
C809 C815 1.390 . S
C810 H801 0.930 1_455 S
C810 C808 1.384 . S
C810 C811 1.372 . S
C811 C810 1.372 . S
C811 C812 1.400 . S
C811 C816 1.490 . S
C812 H802 0.930 . S
C812 C811 1.400 . S
C812 C815 1.386 . S
H813 C829 0.930 . S
H814 C830 0.931 1_455 S
C815 H803 0.929 . S
C815 C809 1.390 . S
C815 C812 1.386 . S
C816 C811 1.490 . S
C816 C818 1.395 1_455 S
C816 C819 1.403 . S
H817 C823 0.930 . S
C818 H804 0.930 . S
C818 C816 1.395 1_655 S
C818 C821 1.403 . S
C819 C816 1.403 . S
C819 C820 1.524 . S
C819 C823 1.400 . S
C820 H805 0.960 . S
C820 H806 0.960 . S
C820 H807 0.960 . S
C820 C819 1.524 . S
C821 C818 1.403 . S
C821 C822 1.392 . S
C821 C825 1.495 . S
C822 C821 1.392 . S
C822 C823 1.385 1_655 S
C822 C824 1.478 . S
C823 H817 0.930 . S
C823 C819 1.400 . S
C823 C822 1.385 1_455 S
C824 C822 1.478 . S
C824 C826 1.381 . S
C824 C830 1.383 . S
C825 C821 1.495 . S
C825 H831 0.959 . S
C825 H832 0.961 . S
C825 H833 0.960 . S
C826 C824 1.381 . S
C826 C827 1.394 . S
C826 H834 0.930 . S
C827 C826 1.394 . S
C827 C828 1.383 . S
C827 H835 0.929 . S
C828 C827 1.383 . S
C828 C829 1.377 . S
C829 H813 0.930 . S
C829 C828 1.377 . S
C829 C830 1.379 . S
C830 H814 0.931 1_655 S
C830 C824 1.383 . S
C830 C829 1.379 . S
H831 C825 0.959 . S
H832 C825 0.961 . S
H833 C825 0.960 . S
H834 C826 0.930 . S
H835 C827 0.929 . S
H836 C844 0.929 . S
H837 C846 0.930 . S
H838 C848 0.930 . S
H839 C851 0.929 . S
H840 C854 0.930 . S
H841 C856 0.960 . S
H842 C856 0.960 . S
H843 C856 0.960 . S
C844 H836 0.929 . S
C844 C845 1.377 . S
C844 C846 1.384 . S
C845 C844 1.377 . S
C845 C851 1.390 . S
C846 H837 0.930 . S
C846 C844 1.384 . S
C846 C847 1.372 . S
C847 C846 1.372 . S
C847 C848 1.400 . S
C847 C852 1.490 . S
C848 H838 0.930 . S
C848 C847 1.400 . S
C848 C851 1.386 . S
H849 C865 0.930 . S
H850 C866 0.931 . S
C851 H839 0.929 . S
C851 C845 1.390 . S
C851 C848 1.386 . S
C852 C847 1.490 . S
C852 C854 1.395 . S
C852 C855 1.403 . S
H853 C859 0.930 . S
C854 H840 0.930 . S
C854 C852 1.395 . S
C854 C857 1.403 . S
C855 C852 1.403 . S
C855 C856 1.524 . S
C855 C859 1.400 . S
C856 H841 0.960 . S
C856 H842 0.960 . S
C856 H843 0.960 . S
C856 C855 1.524 . S
C857 C854 1.403 . S
C857 C858 1.392 . S
C857 C861 1.495 . S
C858 C857 1.392 . S
C858 C859 1.385 . S
C858 C860 1.478 . S
C859 H853 0.930 . S
C859 C855 1.400 . S
C859 C858 1.385 . S
C860 C858 1.478 . S
C860 C862 1.381 . S
C860 C866 1.383 . S
C861 C857 1.495 . S
C861 H867 0.959 . S
C861 H868 0.961 . S
C861 H869 0.960 . S
C862 C860 1.381 . S
C862 C863 1.394 . S
C862 H870 0.930 . S
C863 C862 1.394 . S
C863 C864 1.383 . S
C863 H871 0.929 . S
C864 C863 1.383 . S
C864 C865 1.377 . S
C865 H849 0.930 . S
C865 C864 1.377 . S
C865 C866 1.379 . S
C866 H850 0.931 . S
C866 C860 1.383 . S
C866 C865 1.379 . S
H867 C861 0.959 . S
H868 C861 0.961 . S
H869 C861 0.960 . S
H870 C862 0.930 . S
H871 C863 0.929 . S
H872 C880 0.929 . S
H873 C882 0.930 . S
H874 C884 0.930 . S
H875 C887 0.929 . S
H876 C890 0.930 . S
H877 C892 0.960 . S
H878 C892 0.960 . S
H879 C892 0.960 . S
C880 H872 0.929 . S
C880 C881 1.377 . S
C880 C882 1.384 . S
C881 C880 1.377 . S
C881 C887 1.390 . S
C882 H873 0.930 . S
C882 C880 1.384 . S
C882 C883 1.372 . S
C883 C882 1.372 . S
C883 C884 1.400 . S
C883 C888 1.490 . S
C884 H874 0.930 . S
C884 C883 1.400 . S
C884 C887 1.386 . S
H885 C901 0.930 . S
H886 C902 0.931 . S
C887 H875 0.929 . S
C887 C881 1.390 . S
C887 C884 1.386 . S
C888 C883 1.490 . S
C888 C890 1.395 . S
C888 C891 1.403 . S
H889 C895 0.930 . S
C890 H876 0.930 . S
C890 C888 1.395 . S
C890 C893 1.403 . S
C891 C888 1.403 . S
C891 C892 1.524 . S
C891 C895 1.400 . S
C892 H877 0.960 . S
C892 H878 0.960 . S
C892 H879 0.960 . S
C892 C891 1.524 . S
C893 C890 1.403 . S
C893 C894 1.392 . S
C893 C897 1.495 . S
C894 C893 1.392 . S
C894 C895 1.385 . S
C894 C896 1.478 . S
C895 H889 0.930 . S
C895 C891 1.400 . S
C895 C894 1.385 . S
C896 C894 1.478 . S
C896 C898 1.381 . S
C896 C902 1.383 . S
C897 C893 1.495 . S
C897 H903 0.959 . S
C897 H904 0.961 . S
C897 H905 0.960 . S
C898 C896 1.381 . S
C898 C899 1.394 . S
C898 H906 0.930 . S
C899 C898 1.394 . S
C899 C900 1.383 . S
C899 H907 0.929 . S
C900 C899 1.383 . S
C900 C901 1.377 . S
C901 H885 0.930 . S
C901 C900 1.377 . S
C901 C902 1.379 . S
C902 H886 0.931 . S
C902 C896 1.383 . S
C902 C901 1.379 . S
H903 C897 0.959 . S
H904 C897 0.961 . S
H905 C897 0.960 . S
H906 C898 0.930 . S
H907 C899 0.929 . S
H908 C916 0.929 . S
H909 C918 0.930 . S
H910 C920 0.930 . S
H911 C923 0.929 . S
H912 C926 0.930 . S
H913 C928 0.960 . S
H914 C928 0.960 . S
H915 C928 0.960 . S
C916 H908 0.929 . S
C916 C917 1.377 . S
C916 C918 1.384 . S
C917 C916 1.377 . S
C917 C923 1.390 . S
C918 H909 0.930 . S
C918 C916 1.384 . S
C918 C919 1.372 . S
C919 C918 1.372 . S
C919 C920 1.400 . S
C919 C924 1.490 . S
C920 H910 0.930 . S
C920 C919 1.400 . S
C920 C923 1.386 . S
H921 C937 0.930 . S
H922 C938 0.931 . S
C923 H911 0.929 . S
C923 C917 1.390 . S
C923 C920 1.386 . S
C924 C919 1.490 . S
C924 C926 1.395 1_455 S
C924 C927 1.403 . S
H925 C931 0.930 . S
C926 H912 0.930 . S
C926 C924 1.395 1_655 S
C926 C929 1.403 . S
C927 C924 1.403 . S
C927 C928 1.524 . S
C927 C931 1.400 . S
C928 H913 0.960 . S
C928 H914 0.960 . S
C928 H915 0.960 . S
C928 C927 1.524 . S
C929 C926 1.403 . S
C929 C930 1.392 . S
C929 C933 1.495 . S
C930 C929 1.392 . S
C930 C931 1.385 1_655 S
C930 C932 1.478 . S
C931 H925 0.930 . S
C931 C927 1.400 . S
C931 C930 1.385 1_455 S
C932 C930 1.478 . S
C932 C934 1.381 . S
C932 C938 1.383 . S
C933 C929 1.495 . S
C933 H939 0.959 . S
C933 H940 0.961 . S
C933 H941 0.960 . S
C934 C932 1.381 . S
C934 C935 1.394 . S
C934 H942 0.930 . S
C935 C934 1.394 . S
C935 C936 1.383 . S
C935 H943 0.929 . S
C936 C935 1.383 . S
C936 C937 1.377 . S
C937 H921 0.930 . S
C937 C936 1.377 . S
C937 C938 1.379 . S
C938 H922 0.931 . S
C938 C932 1.383 . S
C938 C937 1.379 . S
H939 C933 0.959 . S
H940 C933 0.961 . S
H941 C933 0.960 . S
H942 C934 0.930 . S
H943 C935 0.929 . S
H944 C952 0.929 . S
H945 C954 0.930 . S
H946 C956 0.930 . S
H947 C959 0.929 . S
H948 C962 0.930 . S
H949 C964 0.960 . S
H950 C964 0.960 . S
H951 C964 0.960 . S
C952 H944 0.929 . S
C952 C953 1.377 . S
C952 C954 1.384 . S
C953 C952 1.377 . S
C953 C959 1.390 . S
C954 H945 0.930 . S
C954 C952 1.384 . S
C954 C955 1.372 . S
C955 C954 1.372 . S
C955 C956 1.400 . S
C955 C960 1.490 . S
C956 H946 0.930 . S
C956 C955 1.400 . S
C956 C959 1.386 . S
H957 C973 0.930 . S
H958 C974 0.931 . S
C959 H947 0.929 . S
C959 C953 1.390 . S
C959 C956 1.386 . S
C960 C955 1.490 . S
C960 C962 1.395 1_455 S
C960 C963 1.403 . S
H961 C967 0.930 . S
C962 H948 0.930 . S
C962 C960 1.395 1_655 S
C962 C965 1.403 . S
C963 C960 1.403 . S
C963 C964 1.524 . S
C963 C967 1.400 . S
C964 H949 0.960 . S
C964 H950 0.960 . S
C964 H951 0.960 . S
C964 C963 1.524 . S
C965 C962 1.403 . S
C965 C966 1.392 . S
C965 C969 1.495 . S
C966 C965 1.392 . S
C966 C967 1.385 1_655 S
C966 C968 1.478 . S
C967 H961 0.930 . S
C967 C963 1.400 . S
C967 C966 1.385 1_455 S
C968 C966 1.478 . S
C968 C970 1.381 . S
C968 C974 1.383 . S
C969 C965 1.495 . S
C969 H975 0.959 . S
C969 H976 0.961 . S
C969 H977 0.960 . S
C970 C968 1.381 . S
C970 C971 1.394 . S
C970 H978 0.930 . S
C971 C970 1.394 . S
C971 C972 1.383 . S
C971 H979 0.929 . S
C972 C971 1.383 . S
C972 C973 1.377 . S
C973 H957 0.930 . S
C973 C972 1.377 . S
C973 C974 1.379 . S
C974 H958 0.931 . S
C974 C968 1.383 . S
C974 C973 1.379 . S
H975 C969 0.959 . S
H976 C969 0.961 . S
H977 C969 0.960 . S
H978 C970 0.930 . S
H979 C971 0.929 . S
H980 C988 0.929 . S
H981 C990 0.930 . S
H982 C992 0.930 . S
H983 C995 0.929 . S
H984 C998 0.930 . S
H985 C1000 0.960 . S
H986 C1000 0.960 . S
H987 C1000 0.960 . S
C988 H980 0.929 . S
C988 C989 1.377 . S
C988 C990 1.384 . S
C989 C988 1.377 . S
C989 C995 1.390 . S
C990 H981 0.930 . S
C990 C988 1.384 . S
C990 C991 1.372 . S
C991 C990 1.372 . S
C991 C992 1.400 . S
C991 C996 1.490 . S
C992 H982 0.930 . S
C992 C991 1.400 . S
C992 C995 1.386 . S
H993 C1009 0.930 . S
H994 C1010 0.931 . S
C995 H983 0.929 . S
C995 C989 1.390 . S
C995 C992 1.386 . S
C996 C991 1.490 . S
C996 C998 1.395 . S
C996 C999 1.403 . S
H997 C1003 0.930 . S
C998 H984 0.930 . S
C998 C996 1.395 . S
C998 C1001 1.403 . S
C999 C996 1.403 . S
C999 C1000 1.524 . S
C999 C1003 1.400 . S
C1000 H985 0.960 . S
C1000 H986 0.960 . S
C1000 H987 0.960 . S
C1000 C999 1.524 . S
C1001 C998 1.403 . S
C1001 C1002 1.392 . S
C1001 C1005 1.495 . S
C1002 C1001 1.392 . S
C1002 C1003 1.385 . S
C1002 C1004 1.478 . S
C1003 H997 0.930 . S
C1003 C999 1.400 . S
C1003 C1002 1.385 . S
C1004 C1002 1.478 . S
C1004 C1006 1.381 . S
C1004 C1010 1.383 . S
C1005 C1001 1.495 . S
C1005 H1011 0.959 . S
C1005 H1012 0.961 . S
C1005 H1013 0.960 . S
C1006 C1004 1.381 . S
C1006 C1007 1.394 . S
C1006 H1014 0.930 . S
C1007 C1006 1.394 . S
C1007 C1008 1.383 . S
C1007 H1015 0.929 . S
C1008 C1007 1.383 . S
C1008 C1009 1.377 . S
C1009 H993 0.930 . S
C1009 C1008 1.377 . S
C1009 C1010 1.379 . S
C1010 H994 0.931 . S
C1010 C1004 1.383 . S
C1010 C1009 1.379 . S
H1011 C1005 0.959 . S
H1012 C1005 0.961 . S
H1013 C1005 0.960 . S
H1014 C1006 0.930 . S
H1015 C1007 0.929 . S
H1016 C1024 0.929 . S
H1017 C1026 0.930 . S
H1018 C1028 0.930 . S
H1019 C1031 0.929 . S
H1020 C1034 0.930 . S
H1021 C1036 0.960 . S
H1022 C1036 0.960 . S
H1023 C1036 0.960 . S
C1024 H1016 0.929 . S
C1024 C1025 1.377 . S
C1024 C1026 1.384 . S
C1025 C1024 1.377 . S
C1025 C1031 1.390 . S
C1026 H1017 0.930 . S
C1026 C1024 1.384 . S
C1026 C1027 1.372 . S
C1027 C1026 1.372 . S
C1027 C1028 1.400 . S
C1027 C1032 1.490 . S
C1028 H1018 0.930 . S
C1028 C1027 1.400 . S
C1028 C1031 1.386 . S
H1029 C1045 0.930 . S
H1030 C1046 0.931 . S
C1031 H1019 0.929 . S
C1031 C1025 1.390 . S
C1031 C1028 1.386 . S
C1032 C1027 1.490 . S
C1032 C1034 1.395 . S
C1032 C1035 1.403 . S
H1033 C1039 0.930 . S
C1034 H1020 0.930 . S
C1034 C1032 1.395 . S
C1034 C1037 1.403 . S
C1035 C1032 1.403 . S
C1035 C1036 1.524 . S
C1035 C1039 1.400 . S
C1036 H1021 0.960 . S
C1036 H1022 0.960 . S
C1036 H1023 0.960 . S
C1036 C1035 1.524 . S
C1037 C1034 1.403 . S
C1037 C1038 1.392 . S
C1037 C1041 1.495 . S
C1038 C1037 1.392 . S
C1038 C1039 1.385 . S
C1038 C1040 1.478 . S
C1039 H1033 0.930 . S
C1039 C1035 1.400 . S
C1039 C1038 1.385 . S
C1040 C1038 1.478 . S
C1040 C1042 1.381 . S
C1040 C1046 1.383 . S
C1041 C1037 1.495 . S
C1041 H1047 0.959 . S
C1041 H1048 0.961 . S
C1041 H1049 0.960 . S
C1042 C1040 1.381 . S
C1042 C1043 1.394 . S
C1042 H1050 0.930 . S
C1043 C1042 1.394 . S
C1043 C1044 1.383 . S
C1043 H1051 0.929 . S
C1044 C1043 1.383 . S
C1044 C1045 1.377 . S
C1045 H1029 0.930 . S
C1045 C1044 1.377 . S
C1045 C1046 1.379 . S
C1046 H1030 0.931 . S
C1046 C1040 1.383 . S
C1046 C1045 1.379 . S
H1047 C1041 0.959 . S
H1048 C1041 0.961 . S
H1049 C1041 0.960 . S
H1050 C1042 0.930 . S
H1051 C1043 0.929 . S
H1052 C1060 0.929 . S
H1053 C1062 0.930 . S
H1054 C1064 0.930 . S
H1055 C1067 0.929 . S
H1056 C1070 0.930 . S
H1057 C1072 0.960 . S
H1058 C1072 0.960 . S
H1059 C1072 0.960 . S
C1060 H1052 0.929 . S
C1060 C1061 1.377 . S
C1060 C1062 1.384 . S
C1061 C1060 1.377 . S
C1061 C1067 1.390 . S
C1062 H1053 0.930 . S
C1062 C1060 1.384 . S
C1062 C1063 1.372 . S
C1063 C1062 1.372 . S
C1063 C1064 1.400 . S
C1063 C1068 1.490 . S
C1064 H1054 0.930 . S
C1064 C1063 1.400 . S
C1064 C1067 1.386 . S
H1065 C1081 0.930 . S
H1066 C1082 0.931 . S
C1067 H1055 0.929 . S
C1067 C1061 1.390 . S
C1067 C1064 1.386 . S
C1068 C1063 1.490 . S
C1068 C1070 1.395 1_455 S
C1068 C1071 1.403 . S
H1069 C1075 0.930 . S
C1070 H1056 0.930 . S
C1070 C1068 1.395 1_655 S
C1070 C1073 1.403 . S
C1071 C1068 1.403 . S
C1071 C1072 1.524 . S
C1071 C1075 1.400 . S
C1072 H1057 0.960 . S
C1072 H1058 0.960 . S
C1072 H1059 0.960 . S
C1072 C1071 1.524 . S
C1073 C1070 1.403 . S
C1073 C1074 1.392 . S
C1073 C1077 1.495 . S
C1074 C1073 1.392 . S
C1074 C1075 1.385 1_655 S
C1074 C1076 1.478 . S
C1075 H1069 0.930 . S
C1075 C1071 1.400 . S
C1075 C1074 1.385 1_455 S
C1076 C1074 1.478 . S
C1076 C1078 1.381 . S
C1076 C1082 1.383 . S
C1077 C1073 1.495 . S
C1077 H1083 0.959 . S
C1077 H1084 0.961 . S
C1077 H1085 0.960 . S
C1078 C1076 1.381 . S
C1078 C1079 1.394 . S
C1078 H1086 0.930 . S
C1079 C1078 1.394 . S
C1079 C1080 1.383 . S
C1079 H1087 0.929 . S
C1080 C1079 1.383 . S
C1080 C1081 1.377 . S
C1081 H1065 0.930 . S
C1081 C1080 1.377 . S
C1081 C1082 1.379 . S
C1082 H1066 0.931 . S
C1082 C1076 1.383 . S
C1082 C1081 1.379 . S
H1083 C1077 0.959 . S
H1084 C1077 0.961 . S
H1085 C1077 0.960 . S
H1086 C1078 0.930 . S
H1087 C1079 0.929 . S
H1088 C1096 0.929 . S
H1089 C1098 0.930 . S
H1090 C1100 0.937 1_455 S
H1091 C1103 0.929 1_545 S
H1092 C1106 0.930 . S
H1093 C1108 0.960 . S
H1094 C1108 0.960 . S
H1095 C1108 0.960 . S
C1096 H1088 0.929 . S
C1096 C1097 1.377 . S
C1096 C1098 1.384 . S
C1097 C1096 1.377 . S
C1097 C1103 1.390 . S
C1098 H1089 0.930 . S
C1098 C1096 1.384 . S
C1098 C1099 1.372 . S
C1099 C1098 1.372 . S
C1099 C1100 1.395 1_565 S
C1099 C1104 1.490 . S
C1100 H1090 0.937 1_655 S
C1100 C1099 1.395 1_545 S
C1100 C1103 1.384 1_545 S
H1101 C1117 0.930 . S
H1102 C1118 0.931 . S
C1103 H1091 0.929 1_565 S
C1103 C1097 1.390 . S
C1103 C1100 1.384 1_565 S
C1104 C1099 1.490 . S
C1104 C1106 1.395 1_655 S
C1104 C1107 1.403 1_565 S
H1105 C1111 0.930 . S
C1106 H1092 0.930 . S
C1106 C1104 1.395 1_455 S
C1106 C1109 1.403 1_556 S
C1107 C1104 1.403 1_545 S
C1107 C1108 1.524 . S
C1107 C1111 1.400 1_556 S
C1108 H1093 0.960 . S
C1108 H1094 0.960 . S
C1108 H1095 0.960 . S
C1108 C1107 1.524 . S
C1109 C1106 1.403 1_554 S
C1109 C1110 1.365 1_565 S
C1109 C1113 1.495 . S
C1110 C1109 1.365 1_545 S
C1110 C1111 1.408 1_455 S
C1110 C1112 1.484 . S
C1111 H1105 0.930 . S
C1111 C1107 1.400 1_554 S
C1111 C1110 1.408 1_655 S
C1112 C1110 1.484 . S
C1112 C1114 1.381 1_545 S
C1112 C1118 1.383 . S
C1113 C1109 1.495 . S
C1113 H1119 0.959 . S
C1113 H1120 0.961 . S
C1113 H1121 0.960 . S
C1114 C1112 1.381 1_565 S
C1114 C1115 1.394 1_565 S
C1114 H1122 0.930 1_455 S
C1115 C1114 1.394 1_545 S
C1115 C1116 1.383 . S
C1115 H1123 0.929 1_545 S
C1116 C1115 1.383 . S
C1116 C1117 1.377 . S
C1117 H1101 0.930 . S
C1117 C1116 1.377 . S
C1117 C1118 1.379 . S
C1118 H1102 0.931 . S
C1118 C1112 1.383 . S
C1118 C1117 1.379 . S
H1119 C1113 0.959 . S
H1120 C1113 0.961 . S
H1121 C1113 0.960 . S
H1122 C1114 0.930 1_655 S
H1123 C1115 0.929 1_565 S
H1124 C1132 0.910 1_565 S
H1125 C1134 0.930 . S
H1126 C1136 0.930 . S
H1127 C1139 0.929 . S
H1128 C1142 0.930 . S
H1129 C1144 0.960 . S
H1130 C1144 0.960 . S
H1131 C1144 0.960 . S
C1132 H1124 0.910 1_545 S
C1132 C1133 1.404 . S
C1132 C1134 1.377 1_545 S
C1133 C1132 1.404 . S
C1133 C1139 1.390 . S
C1134 H1125 0.930 . S
C1134 C1132 1.377 1_565 S
C1134 C1135 1.372 1_565 S
C1135 C1134 1.372 1_545 S
C1135 C1136 1.400 . S
C1135 C1140 1.490 . S
C1136 H1126 0.930 . S
C1136 C1135 1.400 . S
C1136 C1139 1.386 . S
H1137 C1153 0.930 1_545 S
H1138 C1154 0.933 1_545 S
C1139 H1127 0.929 . S
C1139 C1133 1.390 . S
C1139 C1136 1.386 . S
C1140 C1135 1.490 . S
C1140 C1142 1.395 1_545 S
C1140 C1143 1.403 . S
H1141 C1147 0.930 . S
C1142 H1128 0.930 . S
C1142 C1140 1.395 1_565 S
C1142 C1145 1.403 1_556 S
C1143 C1140 1.403 . S
C1143 C1144 1.524 . S
C1143 C1147 1.400 1_556 S
C1144 H1129 0.960 . S
C1144 H1130 0.960 . S
C1144 H1131 0.960 . S
C1144 C1143 1.524 . S
C1145 C1142 1.403 1_554 S
C1145 C1146 1.392 . S
C1145 C1149 1.495 . S
C1146 C1145 1.392 . S
C1146 C1147 1.385 1_565 S
C1146 C1148 1.478 . S
C1147 H1141 0.930 . S
C1147 C1143 1.400 1_554 S
C1147 C1146 1.385 1_545 S
C1148 C1146 1.478 . S
C1148 C1150 1.381 . S
C1148 C1154 1.381 . S
C1149 C1145 1.495 . S
C1149 H1155 0.959 . S
C1149 H1156 0.961 . S
C1149 H1157 0.960 . S
C1150 C1148 1.381 . S
C1150 C1151 1.394 . S
C1150 H1158 0.930 . S
C1151 C1150 1.394 . S
C1151 C1152 1.383 . S
C1151 H1159 0.929 . S
C1152 C1151 1.383 . S
C1152 C1153 1.377 . S
C1153 H1137 0.930 1_565 S
C1153 C1152 1.377 . S
C1153 C1154 1.379 . S
C1154 H1138 0.933 1_565 S
C1154 C1148 1.381 . S
C1154 C1153 1.379 . S
H1155 C1149 0.959 . S
H1156 C1149 0.961 . S
H1157 C1149 0.960 . S
H1158 C1150 0.930 . S
H1159 C1151 0.929 . S
H1160 C1168 0.929 . S
H1161 C1170 0.930 . S
H1162 C1172 0.930 . S
H1163 C1175 0.929 . S
H1164 C1178 0.930 . S
H1165 C1180 0.960 . S
H1166 C1180 0.960 . S
H1167 C1180 0.960 . S
C1168 H1160 0.929 . S
C1168 C1169 1.377 . S
C1168 C1170 1.384 . S
C1169 C1168 1.377 . S
C1169 C1175 1.390 1_545 S
C1170 H1161 0.930 . S
C1170 C1168 1.384 . S
C1170 C1171 1.372 . S
C1171 C1170 1.372 . S
C1171 C1172 1.400 1_545 S
C1171 C1176 1.490 . S
C1172 H1162 0.930 . S
C1172 C1171 1.400 1_565 S
C1172 C1175 1.386 . S
H1173 C1189 0.930 . S
H1174 C1190 0.931 . S
C1175 H1163 0.929 . S
C1175 C1169 1.390 1_565 S
C1175 C1172 1.386 . S
C1176 C1171 1.490 . S
C1176 C1178 1.395 . S
C1176 C1179 1.403 1_545 S
H1177 C1183 0.930 . S
C1178 H1164 0.930 . S
C1178 C1176 1.395 . S
C1178 C1181 1.403 . S
C1179 C1176 1.403 1_565 S
C1179 C1180 1.524 . S
C1179 C1183 1.400 . S
C1180 H1165 0.960 . S
C1180 H1166 0.960 . S
C1180 H1167 0.960 . S
C1180 C1179 1.524 . S
C1181 C1178 1.403 . S
C1181 C1182 1.392 1_545 S
C1181 C1185 1.495 . S
C1182 C1181 1.392 1_565 S
C1182 C1183 1.385 . S
C1182 C1184 1.478 . S
C1183 H1177 0.930 . S
C1183 C1179 1.400 . S
C1183 C1182 1.385 . S
C1184 C1182 1.478 . S
C1184 C1186 1.381 1_565 S
C1184 C1190 1.383 . S
C1185 C1181 1.495 . S
C1185 H1191 0.959 . S
C1185 H1192 0.961 . S
C1185 H1193 0.960 . S
C1186 C1184 1.381 1_545 S
C1186 C1187 1.394 . S
C1186 H1194 0.930 . S
C1187 C1186 1.394 . S
C1187 C1188 1.383 1_545 S
C1187 H1195 0.929 . S
C1188 C1187 1.383 1_565 S
C1188 C1189 1.377 . S
C1189 H1173 0.930 . S
C1189 C1188 1.377 . S
C1189 C1190 1.379 . S
C1190 H1174 0.931 . S
C1190 C1184 1.383 . S
C1190 C1189 1.379 . S
H1191 C1185 0.959 . S
H1192 C1185 0.961 . S
H1193 C1185 0.960 . S
H1194 C1186 0.930 . S
H1195 C1187 0.929 . S
H1196 C1204 0.929 . S
H1197 C1206 0.930 . S
H1198 C1208 0.930 . S
H1199 C1211 0.929 . S
H1200 C1214 0.930 . S
H1201 C1216 0.960 . S
H1202 C1216 0.960 1_565 S
H1203 C1216 0.960 . S
C1204 H1196 0.929 . S
C1204 C1205 1.377 . S
C1204 C1206 1.384 . S
C1205 C1204 1.377 . S
C1205 C1211 1.390 1_565 S
C1206 H1197 0.930 . S
C1206 C1204 1.384 . S
C1206 C1207 1.372 . S
C1207 C1206 1.372 . S
C1207 C1208 1.400 1_565 S
C1207 C1212 1.490 . S
C1208 H1198 0.930 . S
C1208 C1207 1.400 1_545 S
C1208 C1211 1.386 . S
H1209 C1225 0.930 . S
H1210 C1226 0.931 . S
C1211 H1199 0.929 . S
C1211 C1205 1.390 1_545 S
C1211 C1208 1.386 . S
C1212 C1207 1.490 . S
C1212 C1214 1.395 1_455 S
C1212 C1215 1.403 1_565 S
H1213 C1219 0.930 . S
C1214 H1200 0.930 . S
C1214 C1212 1.395 1_655 S
C1214 C1217 1.403 . S
C1215 C1212 1.403 1_545 S
C1215 C1216 1.524 . S
C1215 C1219 1.400 . S
C1216 H1201 0.960 . S
C1216 H1202 0.960 1_545 S
C1216 H1203 0.960 . S
C1216 C1215 1.524 . S
C1217 C1214 1.403 . S
C1217 C1218 1.392 1_565 S
C1217 C1221 1.495 . S
C1218 C1217 1.392 1_545 S
C1218 C1219 1.385 1_655 S
C1218 C1220 1.478 . S
C1219 H1213 0.930 . S
C1219 C1215 1.400 . S
C1219 C1218 1.385 1_455 S
C1220 C1218 1.478 . S
C1220 C1222 1.381 1_545 S
C1220 C1226 1.383 . S
C1221 C1217 1.495 . S
C1221 H1227 0.959 . S
C1221 H1228 0.961 1_565 S
C1221 H1229 0.960 . S
C1222 C1220 1.381 1_565 S
C1222 C1223 1.394 . S
C1222 H1230 0.930 . S
C1223 C1222 1.394 . S
C1223 C1224 1.383 1_565 S
C1223 H1231 0.929 . S
C1224 C1223 1.383 1_545 S
C1224 C1225 1.377 . S
C1225 H1209 0.930 . S
C1225 C1224 1.377 . S
C1225 C1226 1.379 . S
C1226 H1210 0.931 . S
C1226 C1220 1.383 . S
C1226 C1225 1.379 . S
H1227 C1221 0.959 . S
H1228 C1221 0.961 1_545 S
H1229 C1221 0.960 . S
H1230 C1222 0.930 . S
H1231 C1223 0.929 . S
H1232 C1240 0.929 . S
H1233 C1242 0.930 . S
H1234 C1244 0.930 . S
H1235 C1247 0.929 . S
H1236 C1250 0.930 . S
H1237 C1252 0.960 1_556 S
H1238 C1252 0.960 . S
H1239 C1252 0.960 . S
C1240 H1232 0.929 . S
C1240 C1241 1.377 . S
C1240 C1242 1.384 . S
C1241 C1240 1.377 . S
C1241 C1247 1.390 . S
C1242 H1233 0.930 . S
C1242 C1240 1.384 . S
C1242 C1243 1.372 . S
C1243 C1242 1.372 . S
C1243 C1244 1.400 . S
C1243 C1248 1.490 . S
C1244 H1234 0.930 . S
C1244 C1243 1.400 . S
C1244 C1247 1.386 . S
H1245 C1261 0.930 . S
H1246 C1262 0.931 . S
C1247 H1235 0.929 . S
C1247 C1241 1.390 . S
C1247 C1244 1.386 . S
C1248 C1243 1.490 . S
C1248 C1250 1.395 . S
C1248 C1251 1.403 . S
H1249 C1255 0.930 . S
C1250 H1236 0.930 . S
C1250 C1248 1.395 . S
C1250 C1253 1.403 1_554 S
C1251 C1248 1.403 . S
C1251 C1252 1.524 . S
C1251 C1255 1.400 1_554 S
C1252 H1237 0.960 1_554 S
C1252 H1238 0.960 . S
C1252 H1239 0.960 . S
C1252 C1251 1.524 . S
C1253 C1250 1.403 1_556 S
C1253 C1254 1.392 . S
C1253 C1257 1.495 . S
C1254 C1253 1.392 . S
C1254 C1255 1.385 . S
C1254 C1256 1.478 . S
C1255 H1249 0.930 . S
C1255 C1251 1.400 1_556 S
C1255 C1254 1.385 . S
C1256 C1254 1.478 . S
C1256 C1258 1.381 . S
C1256 C1262 1.383 . S
C1257 C1253 1.495 . S
C1257 H1263 0.959 1_556 S
C1257 H1264 0.961 . S
C1257 H1265 0.960 . S
C1258 C1256 1.381 . S
C1258 C1259 1.394 . S
C1258 H1266 0.930 . S
C1259 C1258 1.394 . S
C1259 C1260 1.383 . S
C1259 H1267 0.929 . S
C1260 C1259 1.383 . S
C1260 C1261 1.377 . S
C1261 H1245 0.930 . S
C1261 C1260 1.377 . S
C1261 C1262 1.379 . S
C1262 H1246 0.931 . S
C1262 C1256 1.383 . S
C1262 C1261 1.379 . S
H1263 C1257 0.959 1_554 S
H1264 C1257 0.961 . S
H1265 C1257 0.960 . S
H1266 C1258 0.930 . S
H1267 C1259 0.929 . S
H1268 C1276 0.929 . S
H1269 C1278 0.930 . S
H1270 C1280 0.926 1_455 S
H1271 C1283 0.929 1_455 S
H1272 C1286 0.930 . S
H1273 C1288 0.960 . S
H1274 C1288 0.960 1_655 S
H1275 C1288 0.960 . S
C1276 H1268 0.929 . S
C1276 C1277 1.377 . S
C1276 C1278 1.384 . S
C1277 C1276 1.377 . S
C1277 C1283 1.390 . S
C1278 H1269 0.930 . S
C1278 C1276 1.384 . S
C1278 C1279 1.372 . S
C1279 C1278 1.372 . S
C1279 C1280 1.402 . S
C1279 C1284 1.490 . S
C1280 H1270 0.926 1_655 S
C1280 C1279 1.402 . S
C1280 C1283 1.387 . S
H1281 C1297 0.930 . S
H1282 C1298 0.931 . S
C1283 H1271 0.929 1_655 S
C1283 C1277 1.390 . S
C1283 C1280 1.387 . S
C1284 C1279 1.490 . S
C1284 C1286 1.395 . S
C1284 C1287 1.403 1_655 S
H1285 C1291 0.930 . S
C1286 H1272 0.930 . S
C1286 C1284 1.395 . S
C1286 C1289 1.403 1_554 S
C1287 C1284 1.403 1_455 S
C1287 C1288 1.524 . S
C1287 C1291 1.400 1_554 S
C1288 H1273 0.960 . S
C1288 H1274 0.960 1_455 S
C1288 H1275 0.960 . S
C1288 C1287 1.524 . S
C1289 C1286 1.403 1_556 S
C1289 C1290 1.392 1_655 S
C1289 C1293 1.495 . S
C1290 C1289 1.392 1_455 S
C1290 C1291 1.385 . S
C1290 C1292 1.478 . S
C1291 H1285 0.930 . S
C1291 C1287 1.400 1_556 S
C1291 C1290 1.385 . S
C1292 C1290 1.478 . S
C1292 C1294 1.381 1_455 S
C1292 C1298 1.383 . S
C1293 C1289 1.495 . S
C1293 H1299 0.959 . S
C1293 H1300 0.961 1_655 S
C1293 H1301 0.960 . S
C1294 C1292 1.381 1_655 S
C1294 C1295 1.394 1_655 S
C1294 H1302 0.930 . S
C1295 C1294 1.394 1_455 S
C1295 C1296 1.383 . S
C1295 H1303 0.929 1_455 S
C1296 C1295 1.383 . S
C1296 C1297 1.377 . S
C1297 H1281 0.930 . S
C1297 C1296 1.377 . S
C1297 C1298 1.379 . S
C1298 H1282 0.931 . S
C1298 C1292 1.383 . S
C1298 C1297 1.379 . S
H1299 C1293 0.959 . S
H1300 C1293 0.961 1_455 S
H1301 C1293 0.960 . S
H1302 C1294 0.930 . S
H1303 C1295 0.929 1_655 S
H1304 C1312 0.929 . S
H1305 C1314 0.930 1_455 S
H1306 C1316 0.930 . S
H1307 C1319 0.929 . S
H1308 C1322 0.930 . S
H1309 C1324 0.960 . S
H1310 C1324 0.960 . S
H1311 C1324 0.960 . S
C1312 H1304 0.929 . S
C1312 C1313 1.377 . S
C1312 C1314 1.384 . S
C1313 C1312 1.377 . S
C1313 C1319 1.390 . S
C1314 H1305 0.930 1_655 S
C1314 C1312 1.384 . S
C1314 C1315 1.372 . S
C1315 C1314 1.372 . S
C1315 C1316 1.400 . S
C1315 C1320 1.490 . S
C1316 H1306 0.930 . S
C1316 C1315 1.400 . S
C1316 C1319 1.386 . S
H1317 C1333 0.930 . S
H1318 C1334 0.931 1_655 S
C1319 H1307 0.929 . S
C1319 C1313 1.390 . S
C1319 C1316 1.386 . S
C1320 C1315 1.490 . S
C1320 C1322 1.395 1_655 S
C1320 C1323 1.403 . S
H1321 C1327 0.930 . S
C1322 H1308 0.930 . S
C1322 C1320 1.395 1_455 S
C1322 C1325 1.403 . S
C1323 C1320 1.403 . S
C1323 C1324 1.524 . S
C1323 C1327 1.400 . S
C1324 H1309 0.960 . S
C1324 H1310 0.960 . S
C1324 H1311 0.960 . S
C1324 C1323 1.524 . S
C1325 C1322 1.403 . S
C1325 C1326 1.392 . S
C1325 C1329 1.495 . S
C1326 C1325 1.392 . S
C1326 C1327 1.385 1_455 S
C1326 C1328 1.478 . S
C1327 H1321 0.930 . S
C1327 C1323 1.400 . S
C1327 C1326 1.385 1_655 S
C1328 C1326 1.478 . S
C1328 C1330 1.381 . S
C1328 C1334 1.383 . S
C1329 C1325 1.495 . S
C1329 H1335 0.959 . S
C1329 H1336 0.961 . S
C1329 H1337 0.960 . S
C1330 C1328 1.381 . S
C1330 C1331 1.394 . S
C1330 H1338 0.930 . S
C1331 C1330 1.394 . S
C1331 C1332 1.383 . S
C1331 H1339 0.929 . S
C1332 C1331 1.383 . S
C1332 C1333 1.377 . S
C1333 H1317 0.930 . S
C1333 C1332 1.377 . S
C1333 C1334 1.379 . S
C1334 H1318 0.931 1_455 S
C1334 C1328 1.383 . S
C1334 C1333 1.379 . S
H1335 C1329 0.959 . S
H1336 C1329 0.961 . S
H1337 C1329 0.960 . S
H1338 C1330 0.930 . S
H1339 C1331 0.929 . S
H1340 C1348 0.929 . S
H1341 C1350 0.930 . S
H1342 C1352 0.930 . S
H1343 C1355 0.929 . S
H1344 C1358 0.930 . S
H1345 C1360 0.960 . S
H1346 C1360 0.960 . S
H1347 C1360 0.960 . S
C1348 H1340 0.929 . S
C1348 C1349 1.377 . S
C1348 C1350 1.384 . S
C1349 C1348 1.377 . S
C1349 C1355 1.390 . S
C1350 H1341 0.930 . S
C1350 C1348 1.384 . S
C1350 C1351 1.372 . S
C1351 C1350 1.372 . S
C1351 C1352 1.400 . S
C1351 C1356 1.490 . S
C1352 H1342 0.930 . S
C1352 C1351 1.400 . S
C1352 C1355 1.386 . S
H1353 C1369 0.930 . S
H1354 C1370 0.931 . S
C1355 H1343 0.929 . S
C1355 C1349 1.390 . S
C1355 C1352 1.386 . S
C1356 C1351 1.490 . S
C1356 C1358 1.395 . S
C1356 C1359 1.403 . S
H1357 C1363 0.930 . S
C1358 H1344 0.930 . S
C1358 C1356 1.395 . S
C1358 C1361 1.403 . S
C1359 C1356 1.403 . S
C1359 C1360 1.524 . S
C1359 C1363 1.400 . S
C1360 H1345 0.960 . S
C1360 H1346 0.960 . S
C1360 H1347 0.960 . S
C1360 C1359 1.524 . S
C1361 C1358 1.403 . S
C1361 C1362 1.392 . S
C1361 C1365 1.495 . S
C1362 C1361 1.392 . S
C1362 C1363 1.385 . S
C1362 C1364 1.478 . S
C1363 H1357 0.930 . S
C1363 C1359 1.400 . S
C1363 C1362 1.385 . S
C1364 C1362 1.478 . S
C1364 C1366 1.381 . S
C1364 C1370 1.383 . S
C1365 C1361 1.495 . S
C1365 H1371 0.959 . S
C1365 H1372 0.961 . S
C1365 H1373 0.960 . S
C1366 C1364 1.381 . S
C1366 C1367 1.394 . S
C1366 H1374 0.930 . S
C1367 C1366 1.394 . S
C1367 C1368 1.383 . S
C1367 H1375 0.929 . S
C1368 C1367 1.383 . S
C1368 C1369 1.377 . S
C1369 H1353 0.930 . S
C1369 C1368 1.377 . S
C1369 C1370 1.379 . S
C1370 H1354 0.931 . S
C1370 C1364 1.383 . S
C1370 C1369 1.379 . S
H1371 C1365 0.959 . S
H1372 C1365 0.961 . S
H1373 C1365 0.960 . S
H1374 C1366 0.930 . S
H1375 C1367 0.929 . S
C233 C25 1.483 . S
C252 C11 1.489 . S
C269 C39 1.483 . S
C288 C53 1.492 . S
C305 C67 1.483 . S
C324 C81 1.474 . S
C341 C109 1.487 . S
C360 C95 1.492 . S
C377 C137 1.483 . S
C396 C123 1.493 . S
C413 C165 1.484 . S
C432 C151 1.490 . S
C449 C193 1.483 . S
C468 C179 1.474 . S
C485 C221 1.485 . S
C504 C207 1.473 . S
C521 C49 1.100 . S
C540 C7 1.100 . S
C557 C21 1.103 . S
C576 C35 1.094 . S
C593 C105 1.104 . S
C612 C63 1.099 . S
C629 C91 1.104 . S
C648 C77 1.100 . S
C665 C119 1.098 . S
C684 C161 1.111 . S
C701 C147 1.098 . S
C720 C133 1.111 . S
C737 C217 1.098 . S
C756 C175 1.089 . S
C773 C189 1.098 . S
C792 C203 1.092 . S
C809 C8 1.454 . S
C828 C134 1.481 . S
C845 C22 1.451 . S
C864 C120 1.457 . S
C881 C162 1.462 . S
C900 C36 1.458 . S
C917 C148 1.462 . S
C936 C50 1.456 . S
C953 C190 1.461 . S
C972 C64 1.479 . S
C989 C176 1.462 . S
C1008 C78 1.481 . S
C1025 C92 1.460 . S
C1044 C218 1.462 . S
C1061 C106 1.462 . S
C1080 C204 1.480 . S
C1097 C69 1.026 . S
C1116 C13 1.048 . S
C1133 C83 1.010 . S
C1152 C27 0.974 . S
C1169 C97 1.023 . S
C1188 C41 1.060 . S
C1205 C111 1.019 . S
C1224 C55 1.059 . S
C1241 C125 1.027 . S
C1260 C181 1.039 . S
C1277 C139 1.021 . S
C1296 C195 0.987 . S
C1313 C209 1.014 . S
C1332 C153 1.046 . S
C1349 C223 1.009 . S
C1368 C167 0.976 . S
