# Generated by pormake.
# Topology wjl, (5)-cn, num edge types: 1
# Building blocks:
#     Node 0, Type 0, BuildingBlock: XOMCOT_clean_sbu_1, # of connection points: 5
#     Node 1, Type 0, BuildingBlock: XOMCOT_clean_sbu_1, # of connection points: 5
#     Node 2, Type 0, BuildingBlock: XOMCOT_clean_sbu_1, # of connection points: 5
#     Node 3, Type 0, BuildingBlock: XOMCOT_clean_sbu_1, # of connection points: 5
#     Node 4, Type 0, BuildingBlock: XOMCOT_clean_sbu_1, # of connection points: 5
#     Node 5, Type 0, BuildingBlock: XOMCOT_clean_sbu_1, # of connection points: 5
#     Node 6, Type 0, BuildingBlock: XOMCOT_clean_sbu_1, # of connection points: 5
#     Node 7, Type 0, BuildingBlock: XOMCOT_clean_sbu_1, # of connection points: 5
#     Node 8, Type 0, BuildingBlock: XOMCOT_clean_sbu_1, # of connection points: 5
#     Node 9, Type 0, BuildingBlock: XOMCOT_clean_sbu_1, # of connection points: 5
#     Node 10, Type 0, BuildingBlock: XOMCOT_clean_sbu_1, # of connection points: 5
#     Node 11, Type 0, BuildingBlock: XOMCOT_clean_sbu_1, # of connection points: 5
#     Edge 12, Type (0, 0), BuildingBlock: MIFKUJ_clean_linker_0, # of connection points: 2
#     Edge 13, Type (0, 0), BuildingBlock: MIFKUJ_clean_linker_0, # of connection points: 2
#     Edge 14, Type (0, 0), BuildingBlock: MIFKUJ_clean_linker_0, # of connection points: 2
#     Edge 15, Type (0, 0), BuildingBlock: MIFKUJ_clean_linker_0, # of connection points: 2
#     Edge 16, Type (0, 0), BuildingBlock: MIFKUJ_clean_linker_0, # of connection points: 2
#     Edge 17, Type (0, 0), BuildingBlock: MIFKUJ_clean_linker_0, # of connection points: 2
#     Edge 18, Type (0, 0), BuildingBlock: MIFKUJ_clean_linker_0, # of connection points: 2
#     Edge 19, Type (0, 0), BuildingBlock: MIFKUJ_clean_linker_0, # of connection points: 2
#     Edge 20, Type (0, 0), BuildingBlock: MIFKUJ_clean_linker_0, # of connection points: 2
#     Edge 21, Type (0, 0), BuildingBlock: MIFKUJ_clean_linker_0, # of connection points: 2
#     Edge 22, Type (0, 0), BuildingBlock: MIFKUJ_clean_linker_0, # of connection points: 2
#     Edge 23, Type (0, 0), BuildingBlock: MIFKUJ_clean_linker_0, # of connection points: 2
#     Edge 24, Type (0, 0), BuildingBlock: MIFKUJ_clean_linker_0, # of connection points: 2
#     Edge 25, Type (0, 0), BuildingBlock: MIFKUJ_clean_linker_0, # of connection points: 2
#     Edge 26, Type (0, 0), BuildingBlock: MIFKUJ_clean_linker_0, # of connection points: 2
#     Edge 27, Type (0, 0), BuildingBlock: MIFKUJ_clean_linker_0, # of connection points: 2
#     Edge 28, Type (0, 0), BuildingBlock: MIFKUJ_clean_linker_0, # of connection points: 2
#     Edge 29, Type (0, 0), BuildingBlock: MIFKUJ_clean_linker_0, # of connection points: 2
#     Edge 30, Type (0, 0), BuildingBlock: MIFKUJ_clean_linker_0, # of connection points: 2
#     Edge 31, Type (0, 0), BuildingBlock: MIFKUJ_clean_linker_0, # of connection points: 2
#     Edge 32, Type (0, 0), BuildingBlock: MIFKUJ_clean_linker_0, # of connection points: 2
#     Edge 33, Type (0, 0), BuildingBlock: MIFKUJ_clean_linker_0, # of connection points: 2
#     Edge 34, Type (0, 0), BuildingBlock: MIFKUJ_clean_linker_0, # of connection points: 2
#     Edge 35, Type (0, 0), BuildingBlock: MIFKUJ_clean_linker_0, # of connection points: 2
#     Edge 36, Type (0, 0), BuildingBlock: MIFKUJ_clean_linker_0, # of connection points: 2
#     Edge 37, Type (0, 0), BuildingBlock: MIFKUJ_clean_linker_0, # of connection points: 2
#     Edge 38, Type (0, 0), BuildingBlock: MIFKUJ_clean_linker_0, # of connection points: 2
#     Edge 39, Type (0, 0), BuildingBlock: MIFKUJ_clean_linker_0, # of connection points: 2
#     Edge 40, Type (0, 0), BuildingBlock: MIFKUJ_clean_linker_0, # of connection points: 2
#     Edge 41, Type (0, 0), BuildingBlock: MIFKUJ_clean_linker_0, # of connection points: 2
# Relax obj value: 0.420
# Max RMSD: 0.220
# Mean RMSD: 0.220
data_MOF--net-wjl--node1-XOMCOT_clean_sbu_1--edge1-MIFKUJ_clean_linker_0
_symmetry_space_group_name_H-M    P1
_symmetry_Int_Tables_number       1
_symmetry_cell_setting            triclinic
loop_
_symmetry_equiv_pos_as_xyz
'x, y, z'
_cell_length_a     33.657857
_cell_length_b     33.668201
_cell_length_c     106.47647
_cell_angle_alpha  89.98502
_cell_angle_beta   90.023646
_cell_angle_gamma 119.98783
loop_
_atom_site_label
_atom_site_type_symbol
_atom_site_fract_x
_atom_site_fract_y
_atom_site_fract_z
_atom_type_partial_charge
C0 C 0.32911 0.28162 0.35499 0.0
C1 C 0.34861 0.29402 0.36674 0.0
N2 N 0.38376 0.33755 0.36616 0.0
N3 N 0.3518 0.31715 0.34707 0.0
C4 C 0.38506 0.35062 0.3541 0.0
H5 H 0.29989 0.24901 0.3524 0.0
Co6 Co 0.33689 0.31694 0.33034 0.0
C7 C 0.36619 0.41275 0.32397 0.0
O8 O 0.32681 0.39699 0.31807 0.0
N9 N 0.32253 0.31567 0.31315 0.0
C10 C 0.33521 0.32994 0.29269 0.0
C11 C 0.35443 0.34085 0.30441 0.0
C12 C 0.2845 0.28812 0.30635 0.0
N13 N 0.29121 0.29673 0.29391 0.0
O14 O 0.38736 0.30866 0.32578 0.0
H15 H 0.39018 0.3646 0.30639 0.0
H16 H 0.25324 0.26058 0.31021 0.0
O17 O 0.37575 0.38455 0.32943 0.0
C18 C 0.37401 0.26698 0.32304 0.0
O19 O 0.32973 0.2375 0.32295 0.0
N20 N 0.28545 0.32098 0.33559 0.0
C21 C 0.2093 0.31253 0.34853 0.0
C22 C 0.25187 0.35296 0.34926 0.0
C23 C 0.2896 0.35607 0.34299 0.0
C24 C 0.24434 0.28126 0.33486 0.0
C25 C 0.20558 0.27662 0.34102 0.0
H26 H 0.32272 0.38523 0.34509 0.0
H27 H 0.24236 0.25147 0.33045 0.0
H28 H 0.41002 0.38382 0.35044 0.0
H29 H 0.33719 0.27288 0.37509 0.0
H30 H 0.35314 0.3429 0.28387 0.0
H31 H 0.25713 0.38058 0.35551 0.0
H32 H 0.17374 0.24422 0.34051 0.0
C33 C 0.12067 0.36433 0.52443 0.0
C34 C 0.12922 0.3908 0.53502 0.0
N35 N 0.0985 0.40533 0.53546 0.0
N36 N 0.0848 0.36226 0.51823 0.0
C37 C 0.07192 0.38744 0.52517 0.0
H38 H 0.13924 0.34747 0.52144 0.0
Co39 Co 0.06028 0.32953 0.50361 0.0
C40 C 0.98992 0.35272 0.49484 0.0
O41 O 0.96611 0.31175 0.48984 0.0
N42 N 0.0362 0.29552 0.48855 0.0
C43 C 1.00084 0.23969 0.47444 0.0
C44 C 0.00687 0.25006 0.487 0.0
C45 C 0.04703 0.31183 0.47666 0.0
N46 N 0.02636 0.27855 0.46793 0.0
O47 O 0.11355 0.3749 0.49482 0.0
H48 H 0.99044 0.22524 0.49438 0.0
H49 H 0.07072 0.34735 0.47443 0.0
O50 O 0.0278 0.36395 0.50045 0.0
C51 C 0.14221 0.36133 0.49276 0.0
O52 O 0.12984 0.3185 0.49534 0.0
N53 N 0.01216 0.2843 0.5131 0.0
C54 C 0.95246 0.21333 0.52886 0.0
C55 C 0.94416 0.24907 0.52575 0.0
C56 C 0.97485 0.28471 0.51798 0.0
C57 C 0.02192 0.25114 0.51658 0.0
C58 C 0.99209 0.21481 0.52423 0.0
H59 H 0.96906 0.31297 0.51636 0.0
H60 H 0.05301 0.25277 0.5132 0.0
H61 H 0.04289 0.39163 0.52293 0.0
H62 H 0.1562 0.39897 0.5418 0.0
H63 H 0.97945 0.20598 0.47044 0.0
H64 H 0.91441 0.2497 0.52937 0.0
H65 H 1.00055 0.18872 0.52673 0.0
C66 C 0.73453 0.05367 0.69029 0.0
C67 C 0.72495 0.06463 0.70195 0.0
N68 N 0.68489 0.06435 0.70116 0.0
N69 N 0.70006 0.04558 0.68234 0.0
C70 C 0.67074 0.05307 0.68919 0.0
H71 H 0.76418 0.0508 0.68787 0.0
Co72 Co 0.69274 0.02632 0.66575 0.0
C73 C 0.59648 0.95085 0.66389 0.0
O74 O 0.61157 0.92792 0.65737 0.0
N75 N 0.68513 0.00812 0.64872 0.0
C76 C 0.65772 0.99771 0.62924 0.0
C77 C 0.65355 0.00977 0.64124 0.0
C78 C 0.70903 0.99612 0.64086 0.0
N79 N 0.69272 0.98919 0.62898 0.0
O80 O 0.69159 0.0807 0.66098 0.0
H81 H 0.62962 0.02042 0.64427 0.0
H82 H 0.73879 0.994 0.64355 0.0
O83 O 0.62511 0.99098 0.66803 0.0
C84 C 0.73201 0.11029 0.65746 0.0
O85 O 0.76293 0.0974 0.65677 0.0
N86 N 0.69997 0.97684 0.67087 0.0
C87 C 0.73294 0.92693 0.68374 0.0
C88 C 0.68822 0.91848 0.6858 0.0
C89 C 0.67274 0.94456 0.6795 0.0
C90 C 0.74313 0.98457 0.66856 0.0
C91 C 0.76011 0.95963 0.67476 0.0
H92 H 0.64093 0.94176 0.68257 0.0
H93 H 0.76641 0.0136 0.66291 0.0
H94 H 0.63881 0.04891 0.68559 0.0
H95 H 0.74558 0.0719 0.71035 0.0
H96 H 0.63837 0.99808 0.62116 0.0
H97 H 0.66696 0.89506 0.6931 0.0
H98 H 0.79529 0.96814 0.67319 0.0
C99 C 0.67836 0.73228 0.85717 0.0
C100 C 0.65621 0.71871 0.86857 0.0
N101 N 0.618 0.67747 0.86707 0.0
N102 N 0.65445 0.69956 0.84857 0.0
C103 C 0.61768 0.66707 0.85481 0.0
H104 H 0.7102 0.7636 0.85532 0.0
Co105 Co 0.66852 0.69818 0.8318 0.0
C106 C 0.65027 0.60326 0.82807 0.0
O107 O 0.68943 0.62039 0.82199 0.0
N108 N 0.68108 0.69671 0.81458 0.0
C109 C 0.66387 0.6772 0.7945 0.0
C110 C 0.65002 0.66498 0.80665 0.0
C111 C 0.71316 0.72871 0.80686 0.0
N112 N 0.70341 0.71742 0.79463 0.0
O113 O 0.61303 0.69738 0.82725 0.0
H114 H 0.61732 0.63636 0.80945 0.0
H115 H 0.74038 0.76174 0.80992 0.0
O116 O 0.63722 0.63034 0.83246 0.0
C117 C 0.62386 0.73884 0.82504 0.0
O118 O 0.66747 0.77044 0.82559 0.0
N119 N 0.72518 0.70469 0.83683 0.0
C120 C 0.80617 0.73468 0.85044 0.0
C121 C 0.76999 0.6895 0.8516 0.0
C122 C 0.72928 0.67554 0.845 0.0
C123 C 0.76089 0.74825 0.83527 0.0
C124 C 0.80182 0.76388 0.84191 0.0
H125 H 0.69995 0.64315 0.84756 0.0
H126 H 0.75589 0.77285 0.83006 0.0
H127 H 0.59094 0.63649 0.85037 0.0
H128 H 0.66802 0.73744 0.87731 0.0
H129 H 0.64463 0.65964 0.78617 0.0
H130 H 0.77132 0.66661 0.85853 0.0
H131 H 0.82845 0.79948 0.84109 0.0
C132 C 0.9396 0.68332 0.02606 0.0
C133 C 0.93432 0.66359 0.03774 0.0
N134 N 0.93583 0.62455 0.03638 0.0
N135 N 0.94502 0.65708 0.01745 0.0
C136 C 0.94176 0.62123 0.02398 0.0
H137 H 0.94109 0.71551 0.02403 0.0
Co138 Co 0.95916 0.6702 0.00053 0.0
C139 C 0.02731 0.64158 0.99548 0.0
O140 O 0.05108 0.68011 0.98922 0.0
N141 N 0.97177 0.68169 0.98317 0.0
C142 C 0.97235 0.66351 0.96308 0.0
C143 C 0.9654 0.64778 0.97517 0.0
C144 C 0.98086 0.71745 0.97551 0.0
N145 N 0.98202 0.70735 0.96327 0.0
O146 O 0.90047 0.61925 0.99628 0.0
H147 H 0.95441 0.61287 0.97793 0.0
H148 H 0.98446 0.74953 0.97862 0.0
O149 O 0.98888 0.63223 0.00044 0.0
C150 C 0.87364 0.63553 0.99504 0.0
O151 O 0.89105 0.67999 0.99645 0.0
N152 N 0.01412 0.72299 0.00534 0.0
C153 C 0.0763 0.80165 0.0186 0.0
C154 C 0.07614 0.76013 0.02008 0.0
C155 C 0.04455 0.72122 0.01351 0.0
C156 C 0.01418 0.76316 0.00367 0.0
C157 C 0.04577 0.80312 0.00989 0.0
H158 H 0.04166 0.68889 0.0161 0.0
H159 H 0.98665 0.7634 0.99856 0.0
H160 H 0.94563 0.59408 0.01982 0.0
H161 H 0.93041 0.67729 0.04655 0.0
H162 H 0.96751 0.64323 0.95473 0.0
H163 H 0.09735 0.75634 0.02708 0.0
H164 H 0.04406 0.83407 0.00847 0.0
C165 C 0.26361 0.91735 0.18858 0.0
C166 C 0.27357 0.90261 0.19959 0.0
N167 N 0.31739 0.91183 0.19903 0.0
N168 N 0.30116 0.93621 0.18121 0.0
C169 C 0.3331 0.93176 0.18774 0.0
H170 H 0.23139 0.91522 0.18616 0.0
Co171 Co 0.30644 0.96266 0.16554 0.0
C172 C 0.40142 0.04116 0.16552 0.0
O173 O 0.38477 0.06687 0.16152 0.0
N174 N 0.31101 0.98745 0.14926 0.0
C175 C 0.33548 0.01069 0.12971 0.0
C176 C 0.34697 0.00174 0.14129 0.0
C177 C 0.27705 0.98511 0.1419 0.0
N178 N 0.29142 1.00002 0.1301 0.0
O179 O 0.30827 0.91197 0.15819 0.0
H180 H 0.37859 0.00215 0.14334 0.0
H181 H 0.24152 0.96916 0.14471 0.0
O182 O 0.37421 0.99815 0.16734 0.0
C183 C 0.26764 0.88214 0.15494 0.0
O184 O 0.23518 0.89282 0.156 0.0
N185 N 0.29997 0.00967 0.17336 0.0
C186 C 0.27843 0.06598 0.18767 0.0
C187 C 0.31729 0.06254 0.19043 0.0
C188 C 0.32678 0.03345 0.18339 0.0
C189 C 0.26134 0.01177 0.17077 0.0
C190 C 0.25021 0.04014 0.1777 0.0
H191 H 0.3545 0.0284 0.18646 0.0
H192 H 0.23718 0.98918 0.16391 0.0
H193 H 0.36774 0.9442 0.18446 0.0
H194 H 0.25046 0.88665 0.20742 0.0
H195 H 0.35641 0.01994 0.12132 0.0
H196 H 0.33879 0.08013 0.19844 0.0
H197 H 0.21904 0.04069 0.17553 0.0
C198 C 0.75983 0.67462 0.47058 0.0
C199 C 0.74506 0.65376 0.45904 0.0
N200 N 0.70377 0.61588 0.4606 0.0
N201 N 0.7275 0.65036 0.47926 0.0
C202 C 0.6942 0.61436 0.47294 0.0
H203 H 0.79121 0.70641 0.47242 0.0
Co204 Co 0.72667 0.66651 0.49588 0.0
C205 C 0.62996 0.64254 0.50016 0.0
O206 O 0.64529 0.68225 0.50584 0.0
N207 N 0.72592 0.68177 0.51293 0.0
C208 C 0.70621 0.6715 0.53316 0.0
C209 C 0.69617 0.65191 0.52146 0.0
C210 C 0.75521 0.71861 0.5199 0.0
N211 N 0.74311 0.71348 0.53212 0.0
O212 O 0.73005 0.61359 0.50105 0.0
H213 H 0.6698 0.61711 0.51939 0.0
H214 H 0.78628 0.7475 0.51637 0.0
O215 O 0.65862 0.63148 0.49579 0.0
C216 C 0.7716 0.62568 0.50366 0.0
O217 O 0.80218 0.66965 0.50344 0.0
N218 N 0.72869 0.72057 0.49014 0.0
C219 C 0.75004 0.79928 0.47629 0.0
C220 C 0.70623 0.7605 0.47562 0.0
C221 C 0.69669 0.72103 0.48229 0.0
C222 C 0.77129 0.75842 0.49101 0.0
C223 C 0.78262 0.79825 0.48424 0.0
H224 H 0.66517 0.68999 0.48015 0.0
H225 H 0.7982 0.75627 0.49592 0.0
H226 H 0.6624 0.58862 0.47714 0.0
H227 H 0.76276 0.66601 0.45017 0.0
H228 H 0.68979 0.65505 0.5419 0.0
H229 H 0.68092 0.75927 0.46909 0.0
H230 H 0.81735 0.82698 0.48464 0.0
C231 C 0.05959 0.73494 0.64312 0.0
C232 C 0.06854 0.7233 0.63148 0.0
N233 N 0.05934 0.67948 0.63196 0.0
N234 N 0.04471 0.69854 0.65085 0.0
C235 C 0.04552 0.66559 0.64385 0.0
H236 H 0.0626 0.76738 0.64573 0.0
Co237 Co 0.02493 0.69444 0.66726 0.0
C238 C 0.94886 0.59912 0.67002 0.0
O239 O 0.92566 0.61618 0.6755 0.0
N240 N 0.00619 0.69021 0.68421 0.0
C241 C 0.99576 0.66633 0.70407 0.0
C242 C 0.00648 0.65915 0.6922 0.0
C243 C 0.99663 0.71701 0.69165 0.0
N244 N 0.98959 0.7028 0.70374 0.0
O245 O 0.0794 0.69457 0.67277 0.0
H246 H 0.01589 0.63384 0.68966 0.0
H247 H 0.99705 0.74768 0.68857 0.0
O248 O 0.98982 0.62636 0.66616 0.0
C249 C 0.10893 0.73374 0.6771 0.0
O250 O 0.09708 0.76529 0.6783 0.0
N251 N 0.97492 0.69952 0.66117 0.0
C252 C 0.92082 0.72494 0.64703 0.0
C253 C 0.91825 0.68241 0.64516 0.0
C254 C 0.94585 0.67067 0.65217 0.0
C255 C 0.97814 0.74108 0.66306 0.0
C256 C 0.95052 0.75391 0.6564 0.0
H257 H 0.94679 0.64032 0.64942 0.0
H258 H 0.00526 0.7664 0.66886 0.0
H259 H 0.03614 0.63194 0.6474 0.0
H260 H 0.07966 0.74499 0.62323 0.0
H261 H 0.99592 0.64821 0.71245 0.0
H262 H 0.89794 0.65969 0.63764 0.0
H263 H 0.95453 0.78741 0.6581 0.0
C264 C 0.33395 0.06735 0.80742 0.0
C265 C 0.35808 0.07767 0.79631 0.0
N266 N 0.39301 0.06922 0.79774 0.0
N267 N 0.35345 0.05224 0.81577 0.0
C268 C 0.38959 0.05436 0.80969 0.0
H269 H 0.30366 0.06984 0.80924 0.0
Co270 Co 0.33382 0.03219 0.83199 0.0
C271 C 0.35049 0.95441 0.83548 0.0
O272 O 0.30928 0.93137 0.84045 0.0
N273 N 0.31519 0.01329 0.84873 0.0
C274 C 0.32076 0.99805 0.86881 0.0
C275 C 0.34216 0.00872 0.85736 0.0
C276 C 0.27857 0.00777 0.85544 0.0
N277 N 0.28082 0.99749 0.86757 0.0
O278 O 0.38736 0.08551 0.83819 0.0
H279 H 0.37632 0.01464 0.85558 0.0
H280 H 0.25196 0.01358 0.85183 0.0
O281 O 0.36544 0.9957 0.83171 0.0
C282 C 0.37611 0.11567 0.84067 0.0
O283 O 0.33263 0.10382 0.83966 0.0
N284 N 0.27937 0.98334 0.82526 0.0
C285 C 0.19966 0.92678 0.81166 0.0
C286 C 0.23875 0.92245 0.81039 0.0
C287 C 0.27864 0.95198 0.81696 0.0
C288 C 0.24189 0.98863 0.82635 0.0
C289 C 0.20147 0.96034 0.81978 0.0
H290 H 0.30958 0.95149 0.81462 0.0
H291 H 0.24441 0.01733 0.83152 0.0
H292 H 0.4131 0.0453 0.81397 0.0
H293 H 0.34963 0.08919 0.78775 0.0
H294 H 0.33493 0.99439 0.87758 0.0
H295 H 0.23954 0.89864 0.80369 0.0
H296 H 0.17258 0.96596 0.82064 0.0
C297 C 0.24652 0.32843 0.97093 0.0
C298 C 0.25794 0.3511 0.95955 0.0
N299 N 0.2995 0.38904 0.96073 0.0
N300 N 0.28115 0.35168 0.9791 0.0
C301 C 0.31241 0.38879 0.9727 0.0
H302 H 0.216 0.29607 0.97295 0.0
Co303 Co 0.28748 0.33401 0.99515 0.0
C304 C 0.38401 0.35563 0.99573 0.0
O305 O 0.36944 0.31419 0.0002 0.0
N306 N 0.29401 0.31789 0.01178 0.0
C307 C 0.31962 0.32939 0.03149 0.0
C308 C 0.32855 0.3462 0.01951 0.0
C309 C 0.2634 0.28498 0.01958 0.0
N310 N 0.2784 0.29086 0.0316 0.0
O311 O 0.28604 0.3862 0.00169 0.0
H312 H 0.35689 0.37933 0.0169 0.0
H313 H 0.22919 0.25962 0.01681 0.0
O314 O 0.35514 0.36901 0.99343 0.0
C315 C 0.24613 0.37424 0.0059 0.0
O316 O 0.21516 0.3304 0.00599 0.0
N317 N 0.28408 0.2806 0.98816 0.0
C318 C 0.26362 0.20184 0.9743 0.0
C319 C 0.30187 0.24445 0.97133 0.0
C320 C 0.3111 0.2833 0.97822 0.0
C321 C 0.24618 0.23967 0.99098 0.0
C322 C 0.23601 0.19973 0.98443 0.0
H323 H 0.33821 0.31608 0.97495 0.0
H324 H 0.22146 0.23821 0.99762 0.0
H325 H 0.34527 0.41399 0.97652 0.0
H326 H 0.23781 0.33993 0.95102 0.0
H327 H 0.34001 0.34681 0.03967 0.0
H328 H 0.32302 0.2486 0.96322 0.0
H329 H 0.20559 0.16793 0.98697 0.0
C330 C 0.94339 0.26979 0.14152 0.0
C331 C 0.93613 0.28469 0.13016 0.0
N332 N 0.94275 0.32739 0.13169 0.0
N333 N 0.9549 0.30305 0.15014 0.0
C334 C 0.95347 0.33726 0.14395 0.0
H335 H 0.94165 0.23733 0.14331 0.0
Co336 Co 0.97227 0.30306 0.16669 0.0
C337 C 0.04721 0.39785 0.17127 0.0
O338 O 0.06969 0.38052 0.17703 0.0
N339 N 0.98863 0.30327 0.18365 0.0
C340 C 0.9943 0.32088 0.20394 0.0
C341 C 0.98583 0.33139 0.1922 0.0
C342 C 0.99789 0.27508 0.19057 0.0
N343 N 1.00177 0.28529 0.20296 0.0
O344 O 0.9173 0.30169 0.17211 0.0
H345 H 0.97611 0.35681 0.1901 0.0
H346 H 0.99959 0.24628 0.18678 0.0
O347 O 0.00743 0.37087 0.16666 0.0
C348 C 0.88848 0.26054 0.17525 0.0
O349 O 0.90166 0.2298 0.17485 0.0
N350 N 0.0225 0.29864 0.16075 0.0
C351 C 0.07322 0.27207 0.1458 0.0
C352 C 0.08213 0.31739 0.14558 0.0
C353 C 0.05551 0.3297 0.15286 0.0
C354 C 0.01465 0.25483 0.16135 0.0
C355 C 0.03984 0.24088 0.15404 0.0
H356 H 0.0585 0.36259 0.15106 0.0
H357 H 0.98525 0.22913 0.16645 0.0
H358 H 0.9603 0.36892 0.14837 0.0
H359 H 0.92806 0.26596 0.1214 0.0
H360 H 0.99169 0.33616 0.21261 0.0
H361 H 0.10623 0.34187 0.13891 0.0
H362 H 0.03102 0.20521 0.15415 0.0
C363 C 0.66453 0.92763 0.31024 0.0
C364 C 0.64157 0.91298 0.29899 0.0
N365 N 0.61002 0.92647 0.29838 0.0
N366 N 0.64789 0.95063 0.31665 0.0
C367 C 0.6146 0.94912 0.30925 0.0
H368 H 0.69128 0.92149 0.31363 0.0
Co369 Co 0.66609 0.97487 0.33264 0.0
C370 C 0.6489 0.05287 0.33396 0.0
O371 O 0.68933 0.07716 0.33928 0.0
N372 N 0.68339 0.99763 0.34915 0.0
C373 C 0.67299 0.00911 0.36915 0.0
C374 C 0.65465 0.00118 0.35732 0.0
C375 C 0.71872 0.0027 0.35639 0.0
N376 N 0.71324 0.00966 0.36864 0.0
O377 O 0.61151 0.92397 0.3391 0.0
H378 H 0.62067 0.99484 0.35502 0.0
H379 H 0.74613 0.9979 0.35297 0.0
O380 O 0.63518 0.01138 0.33066 0.0
C381 C 0.62075 0.89455 0.34371 0.0
O382 O 0.664 0.90544 0.34453 0.0
N383 N 0.72142 0.02103 0.32575 0.0
C384 C 0.80047 0.06677 0.31112 0.0
C385 C 0.76482 0.07655 0.30984 0.0
C386 C 0.72494 0.05225 0.31696 0.0
C387 C 0.75617 0.01163 0.32717 0.0
C388 C 0.79615 0.03433 0.32003 0.0
H389 H 0.69585 0.0559 0.31452 0.0
H390 H 0.75107 0.98313 0.33296 0.0
H391 H 0.59415 0.96447 0.31176 0.0
H392 H 0.64716 0.89317 0.29193 0.0
H393 H 0.65567 0.00995 0.37762 0.0
H394 H 0.76609 0.09982 0.30261 0.0
H395 H 0.82229 0.0247 0.32094 0.0
H396 H 0.35626 0.1868 0.31219 0.0
H397 H 0.40513 0.15247 0.31186 0.0
H398 H 0.51367 0.27298 0.32972 0.0
H399 H 0.46489 0.30812 0.32987 0.0
H400 H 0.54704 0.23746 0.31205 0.0
H401 H 0.44349 0.18073 0.34715 0.0
H402 H 0.36792 0.14532 0.35752 0.0
H403 H 0.32307 0.02276 0.33578 0.0
H404 H 0.3982 0.05773 0.32514 0.0
H405 H 0.67037 0.14047 0.33942 0.0
H406 H 0.62509 0.17724 0.33539 0.0
H407 H 0.51881 0.05257 0.31859 0.0
H408 H 0.56396 0.01503 0.32274 0.0
H409 H 0.48369 0.08909 0.33465 0.0
H410 H 0.58934 0.14445 0.30038 0.0
H411 H 0.66528 0.17996 0.29023 0.0
H412 H 0.70681 0.30491 0.3105 0.0
H413 H 0.63132 0.26992 0.32093 0.0
C414 C 0.39076 0.20635 0.31591 0.0
C415 C 0.40655 0.24997 0.32121 0.0
C416 C 0.41862 0.18658 0.31573 0.0
C417 C 0.46267 0.20967 0.32103 0.0
C418 C 0.47966 0.25442 0.32565 0.0
C419 C 0.4518 0.27448 0.32573 0.0
C420 C 0.48955 0.18582 0.32245 0.0
C421 C 0.53344 0.20529 0.3171 0.0
C422 C 0.47137 0.14325 0.3288 0.0
C423 C 0.4263 0.12202 0.33526 0.0
C424 C 0.41739 0.14635 0.34451 0.0
C425 C 0.37466 0.12635 0.35045 0.0
C426 C 0.34067 0.08186 0.34729 0.0
C427 C 0.3494 0.05725 0.3382 0.0
C428 C 0.39206 0.07713 0.33222 0.0
C429 C 0.63743 0.12073 0.33483 0.0
C430 C 0.62086 0.07473 0.33138 0.0
C431 C 0.61167 0.142 0.33246 0.0
C432 C 0.56883 0.11795 0.32652 0.0
C433 C 0.55191 0.07188 0.32314 0.0
C434 C 0.57776 0.05048 0.3255 0.0
C435 C 0.54129 0.1407 0.32426 0.0
C436 C 0.49725 0.12108 0.3295 0.0
C437 C 0.55941 0.18312 0.31783 0.0
C438 C 0.60477 0.20441 0.31152 0.0
C439 C 0.61477 0.17939 0.30275 0.0
C440 C 0.65773 0.19944 0.29693 0.0
C441 C 0.69088 0.24463 0.29974 0.0
C442 C 0.6811 0.2699 0.30834 0.0
C443 C 0.63822 0.24998 0.3142 0.0
H444 H 0.72412 0.2601 0.29522 0.0
H445 H 0.30761 0.06643 0.3519 0.0
H446 H 0.19125 0.45478 0.49597 0.0
H447 H 0.27473 0.50406 0.49446 0.0
H448 H 0.28606 0.38939 0.48087 0.0
H449 H 0.20314 0.34008 0.4826 0.0
H450 H 0.34176 0.42749 0.49977 0.0
H451 H 0.3101 0.48282 0.46193 0.0
H452 H 0.27329 0.51496 0.44854 0.0
H453 H 0.33083 0.63644 0.4713 0.0
H454 H 0.36754 0.60478 0.48494 0.0
H455 H 0.58386 0.5569 0.48933 0.0
H456 H 0.50109 0.51005 0.48552 0.0
H457 H 0.48051 0.61547 0.50193 0.0
H458 H 0.56269 0.66233 0.50574 0.0
H459 H 0.43056 0.58129 0.48026 0.0
H460 H 0.45767 0.52274 0.51873 0.0
H461 H 0.49456 0.4903 0.53199 0.0
H462 H 0.4449 0.37374 0.5075 0.0
H463 H 0.40822 0.40585 0.49399 0.0
C464 C 0.21147 0.44046 0.49235 0.0
C465 C 0.19068 0.39353 0.48947 0.0
C466 C 0.25923 0.46863 0.4915 0.0
C467 C 0.28685 0.45044 0.48758 0.0
C468 C 0.26565 0.40418 0.48401 0.0
C469 C 0.21816 0.37606 0.48496 0.0
C470 C 0.33784 0.47817 0.48828 0.0
C471 C 0.36115 0.46074 0.49529 0.0
C472 C 0.36328 0.52206 0.4827 0.0
C473 C 0.34122 0.54122 0.47453 0.0
C474 C 0.3146 0.51623 0.46415 0.0
C475 C 0.29381 0.5344 0.4565 0.0
C476 C 0.29962 0.57766 0.45909 0.0
C477 C 0.32632 0.60291 0.46932 0.0
C478 C 0.34718 0.58489 0.477 0.0
C479 C 0.5617 0.57007 0.49213 0.0
C480 C 0.57995 0.61328 0.49791 0.0
C481 C 0.51441 0.54327 0.48995 0.0
C482 C 0.48457 0.55922 0.49349 0.0
C483 C 0.50284 0.60254 0.49909 0.0
C484 C 0.54991 0.62916 0.50133 0.0
C485 C 0.43412 0.53044 0.49172 0.0
C486 C 0.41101 0.54777 0.48459 0.0
C487 C 0.40876 0.48634 0.49715 0.0
C488 C 0.43066 0.46694 0.50528 0.0
C489 C 0.45495 0.49038 0.51612 0.0
C490 C 0.47575 0.47202 0.52369 0.0
C491 C 0.4722 0.43005 0.52057 0.0
C492 C 0.4477 0.40629 0.50989 0.0
C493 C 0.42688 0.42454 0.50228 0.0
H494 H 0.48832 0.41588 0.52644 0.0
H495 H 0.2835 0.59167 0.45315 0.0
H496 H 0.98422 0.54908 0.6591 0.0
H497 H 0.94431 0.466 0.65545 0.0
H498 H 0.82126 0.45321 0.67186 0.0
H499 H 0.86088 0.5353 0.6758 0.0
H500 H 0.83422 0.38802 0.68045 0.0
H501 H 0.83591 0.44932 0.63945 0.0
H502 H 0.87201 0.49807 0.62088 0.0
H503 H 0.95043 0.43122 0.61451 0.0
H504 H 0.91523 0.38245 0.63316 0.0
H505 H 0.68624 0.15641 0.66371 0.0
H506 H 0.71811 0.23989 0.66373 0.0
H507 H 0.84413 0.25844 0.64781 0.0
H508 H 0.81227 0.17582 0.6474 0.0
H509 H 0.82707 0.32079 0.63849 0.0
H510 H 0.8297 0.26332 0.6799 0.0
H511 H 0.79384 0.21348 0.6983 0.0
H512 H 0.70884 0.27363 0.70392 0.0
H513 H 0.74371 0.32333 0.68542 0.0
C514 C 0.94871 0.5285 0.66195 0.0
C515 C 0.92584 0.54894 0.66775 0.0
C516 C 0.92581 0.48103 0.65979 0.0
C517 C 0.87951 0.45326 0.66326 0.0
C518 C 0.8569 0.47373 0.66911 0.0
C519 C 0.87972 0.52088 0.67133 0.0
C520 C 0.85438 0.40279 0.66103 0.0
C521 C 0.83217 0.37344 0.67122 0.0
C522 C 0.85231 0.3835 0.64905 0.0
C523 C 0.87319 0.41248 0.63776 0.0
C524 C 0.86106 0.4452 0.63414 0.0
C525 C 0.88134 0.47281 0.62359 0.0
C526 C 0.91352 0.46777 0.61653 0.0
C527 C 0.92548 0.43507 0.62 0.0
C528 C 0.90535 0.40741 0.63054 0.0
C529 C 0.72029 0.1783 0.65995 0.0
C530 C 0.7469 0.15948 0.65571 0.0
C531 C 0.73864 0.22602 0.66005 0.0
C532 C 0.78399 0.25561 0.65602 0.0
C533 C 0.80924 0.23655 0.65102 0.0
C534 C 0.79095 0.18912 0.65086 0.0
C535 C 0.80684 0.30618 0.6579 0.0
C536 C 0.82883 0.3355 0.64767 0.0
C537 C 0.80896 0.32555 0.66986 0.0
C538 C 0.78898 0.2967 0.68121 0.0
C539 C 0.80324 0.26578 0.68503 0.0
C540 C 0.78308 0.23754 0.69547 0.0
C541 C 0.74899 0.24028 0.70225 0.0
C542 C 0.73518 0.27147 0.69864 0.0
C543 C 0.75514 0.2997 0.68818 0.0
H544 H 0.73332 0.2183 0.71031 0.0
H545 H 0.9291 0.48911 0.60836 0.0
H546 H 0.43768 0.98962 0.82584 0.0
H547 H 0.48 0.94872 0.82247 0.0
H548 H 0.36505 0.82454 0.83683 0.0
H549 H 0.32337 0.86516 0.84052 0.0
H550 H 0.44004 0.83374 0.84634 0.0
H551 H 0.39059 0.84359 0.80474 0.0
H552 H 0.38222 0.88241 0.78613 0.0
H553 H 0.52861 0.96034 0.78203 0.0
H554 H 0.53792 0.92239 0.80073 0.0
H555 H 0.53065 0.69044 0.82962 0.0
H556 H 0.47788 0.72105 0.82929 0.0
H557 H 0.58767 0.85139 0.81629 0.0
H558 H 0.63963 0.82096 0.81627 0.0
H559 H 0.51047 0.83429 0.80539 0.0
H560 H 0.55929 0.82723 0.84778 0.0
H561 H 0.56729 0.78748 0.86624 0.0
H562 H 0.42075 0.70426 0.86886 0.0
H563 H 0.41194 0.74276 0.85023 0.0
C564 C 0.42153 0.95365 0.8283 0.0
C565 C 0.37715 0.93075 0.83347 0.0
C566 C 0.44562 0.93018 0.82629 0.0
C567 C 0.42552 0.88329 0.82926 0.0
C568 C 0.38136 0.86063 0.83447 0.0
C569 C 0.35751 0.88402 0.83656 0.0
C570 C 0.45049 0.85771 0.8272 0.0
C571 C 0.45482 0.83334 0.83732 0.0
C572 C 0.47043 0.85761 0.81549 0.0
C573 C 0.46495 0.88038 0.80421 0.0
C574 C 0.42102 0.86922 0.79993 0.0
C575 C 0.41611 0.89103 0.78935 0.0
C576 C 0.45486 0.92381 0.7829 0.0
C577 C 0.49863 0.93489 0.78702 0.0
C578 C 0.50374 0.91321 0.79761 0.0
C579 C 0.54312 0.72525 0.82643 0.0
C580 C 0.58942 0.75342 0.82312 0.0
C581 C 0.51308 0.74284 0.82633 0.0
C582 C 0.52904 0.78889 0.82299 0.0
C583 C 0.5745 0.81591 0.81895 0.0
C584 C 0.6043 0.79843 0.81902 0.0
C585 C 0.5001 0.81054 0.82455 0.0
C586 C 0.49521 0.83434 0.81436 0.0
C587 C 0.4796 0.81014 0.8362 0.0
C588 C 0.48497 0.78748 0.84751 0.0
C589 C 0.52879 0.8002 0.85223 0.0
C590 C 0.53347 0.77786 0.86272 0.0
C591 C 0.49456 0.74317 0.86868 0.0
C592 C 0.45088 0.73093 0.8642 0.0
C593 C 0.44602 0.75297 0.85367 0.0
H594 H 0.49824 0.72588 0.87679 0.0
H595 H 0.45096 0.94056 0.7747 0.0
H596 H 0.82235 0.54136 0.99248 0.0
H597 H 0.73852 0.49485 0.99019 0.0
H598 H 0.72888 0.61784 0.99034 0.0
H599 H 0.81163 0.66411 0.99255 0.0
H600 H 0.6698 0.55481 0.00694 0.0
H601 H 0.71085 0.56153 0.96385 0.0
H602 H 0.75157 0.55377 0.94562 0.0
H603 H 0.68978 0.4092 0.95254 0.0
H604 H 0.64909 0.4162 0.97093 0.0
H605 H 0.43146 0.44906 0.99241 0.0
H606 H 0.51476 0.49849 0.99004 0.0
H607 H 0.53132 0.37952 0.99111 0.0
H608 H 0.44867 0.33021 0.99363 0.0
H609 H 0.58647 0.443 0.9729 0.0
H610 H 0.54885 0.43949 0.01698 0.0
H611 H 0.50786 0.4493 0.03483 0.0
H612 H 0.56393 0.59142 0.02537 0.0
H613 H 0.60475 0.58224 0.00735 0.0
C614 C 0.80233 0.55839 0.9919 0.0
C615 C 0.8237 0.60639 0.99278 0.0
C616 C 0.75451 0.53185 0.99056 0.0
C617 C 0.72749 0.55296 0.99012 0.0
C618 C 0.74898 0.60083 0.99073 0.0
C619 C 0.79645 0.62722 0.99198 0.0
C620 C 0.67664 0.52546 0.98965 0.0
C621 C 0.65162 0.5308 -0.0006 0.0
C622 C 0.65291 0.49388 0.97989 0.0
C623 C 0.67733 0.48948 0.96886 0.0
C624 C 0.70628 0.52815 0.96156 0.0
C625 C 0.72928 0.52388 0.95118 0.0
C626 C 0.72339 0.48105 0.94795 0.0
C627 C 0.69437 0.44237 0.95507 0.0
C628 C 0.67129 0.44646 0.96547 0.0
C629 C 0.45287 0.4335 0.99204 0.0
C630 C 0.43361 0.38584 0.99337 0.0
C631 C 0.50039 0.46171 0.99069 0.0
C632 C 0.52921 0.44263 0.99047 0.0
C633 C 0.50975 0.39494 0.99124 0.0
C634 C 0.4625 0.36686 0.99277 0.0
C635 C 0.57987 0.47217 0.99024 0.0
C636 C 0.6048 0.46719 0.98039 0.0
C637 C 0.60363 0.50442 -0.00014 0.0
C638 C 0.57943 0.51006 0.01075 0.0
C639 C 0.55215 0.47274 0.01865 0.0
C640 C 0.529 0.4782 0.02881 0.0
C641 C 0.53319 0.52093 0.03121 0.0
C642 C 0.56066 0.55832 0.02349 0.0
C643 C 0.58382 0.55302 0.0133 0.0
H644 H 0.51524 0.52509 0.03908 0.0
H645 H 0.74122 0.4778 0.93991 0.0
H646 H 0.18902 0.81762 0.14398 0.0
H647 H 0.15711 0.73488 0.14453 0.0
H648 H 0.28298 0.75382 0.16071 0.0
H649 H 0.31486 0.8372 0.16049 0.0
H650 H 0.17359 0.66954 0.13637 0.0
H651 H 0.25567 0.67691 0.18435 0.0
H652 H 0.29143 0.73156 0.20186 0.0
H653 H 0.20767 0.79133 0.19362 0.0
H654 H 0.17086 0.73653 0.17622 0.0
H655 H 0.13463 0.4617 0.17766 0.0
H656 H 0.17552 0.54329 0.17289 0.0
H657 H 0.05421 0.53001 0.15512 0.0
H658 H 0.01318 0.44756 0.15957 0.0
H659 H 0.16431 0.6115 0.17973 0.0
H660 H 0.08522 0.60875 0.13141 0.0
H661 H 0.04894 0.55622 0.11352 0.0
H662 H 0.12351 0.48712 0.12238 0.0
H663 H 0.16084 0.53972 0.14018 0.0
C664 C 0.21036 0.80429 0.14741 0.0
C665 C 0.25416 0.83386 0.1524 0.0
C666 C 0.19209 0.75689 0.14766 0.0
C667 C 0.21719 0.73808 0.15292 0.0
C668 C 0.26268 0.76764 0.15681 0.0
C669 C 0.28101 0.81528 0.1566 0.0
C670 C 0.19363 0.68811 0.15564 0.0
C671 C 0.1714 0.65678 0.14584 0.0
C672 C 0.19082 0.67148 0.16802 0.0
C673 C 0.21091 0.70293 0.1789 0.0
C674 C 0.24464 0.70147 0.18634 0.0
C675 C 0.26512 0.73251 0.19624 0.0
C676 C 0.25197 0.76502 0.19882 0.0
C677 C 0.21793 0.76623 0.19159 0.0
C678 C 0.19721 0.73515 0.18172 0.0
C679 C 0.11645 0.47598 0.17275 0.0
C680 C 0.07061 0.44794 0.16895 0.0
C681 C 0.13997 0.5228 0.17004 0.0
C682 C 0.11827 0.54284 0.1635 0.0
C683 C 0.07204 0.51521 0.15997 0.0
C684 C 0.0485 0.46812 0.16259 0.0
C685 C 0.14437 0.59261 0.16043 0.0
C686 C 0.16684 0.62403 0.17021 0.0
C687 C 0.147 0.60925 0.14805 0.0
C688 C 0.12551 0.57795 0.1372 0.0
C689 C 0.09407 0.58251 0.1295 0.0
C690 C 0.07333 0.55273 0.11937 0.0
C691 C 0.08387 0.51832 0.11683 0.0
C692 C 0.11531 0.51373 0.12438 0.0
C693 C 0.13627 0.54352 0.13449 0.0
H694 H 0.0677 0.49524 0.109 0.0
H695 H 0.2681 0.78922 0.20642 0.0
H696 H 0.90565 0.33314 0.48632 0.0
H697 H 0.86717 0.37732 0.48909 0.0
H698 H 0.98602 0.48291 0.50831 0.0
H699 H 0.02459 0.43784 0.50589 0.0
H700 H 0.91121 0.46767 0.52028 0.0
H701 H 0.95893 0.49612 0.47749 0.0
H702 H 0.96801 0.47717 0.4557 0.0
H703 H 0.82169 0.40214 0.45109 0.0
H704 H 0.8117 0.42009 0.47292 0.0
H705 H 0.85202 0.64203 0.51402 0.0
H706 H 0.88541 0.59247 0.51392 0.0
H707 H 0.76219 0.48428 0.49701 0.0
H708 H 0.72852 0.53444 0.49692 0.0
H709 H 0.83808 0.49991 0.48425 0.0
H710 H 0.79279 0.47522 0.52774 0.0
H711 H 0.78744 0.49874 0.54932 0.0
H712 H 0.93437 0.57346 0.55214 0.0
H713 H 0.9406 0.55059 0.53054 0.0
C714 C 0.92396 0.36591 0.49107 0.0
C715 C 0.96847 0.38198 0.49582 0.0
C716 C 0.90183 0.3913 0.4926 0.0
C717 C 0.9238 0.4339 0.49874 0.0
C718 C 0.96832 0.45021 0.5035 0.0
C719 C 0.99047 0.42454 0.50205 0.0
C720 C 0.89978 0.46076 0.50029 0.0
C721 C 0.89576 0.47523 0.51236 0.0
C722 C 0.87871 0.46997 0.49003 0.0
C723 C 0.88457 0.45908 0.47689 0.0
C724 C 0.92867 0.47526 0.47186 0.0
C725 C 0.93399 0.46475 0.4595 0.0
C726 C 0.89545 0.43836 0.45203 0.0
C727 C 0.85151 0.42252 0.4569 0.0
C728 C 0.846 0.43288 0.46926 0.0
C729 C 0.83157 0.6074 0.51047 0.0
C730 C 0.7876 0.59222 0.50544 0.0
C731 C 0.85071 0.57895 0.51048 0.0
C732 C 0.82632 0.53444 0.50553 0.0
C733 C 0.78165 0.51847 0.50091 0.0
C734 C 0.76229 0.54701 0.50094 0.0
C735 C 0.8492 0.50648 0.50423 0.0
C736 C 0.85322 0.49201 0.49217 0.0
C737 C 0.87081 0.49792 0.51447 0.0
C738 C 0.86714 0.51145 0.52749 0.0
C739 C 0.82396 0.49688 0.53293 0.0
C740 C 0.82077 0.51003 0.54518 0.0
C741 C 0.86054 0.53767 0.55208 0.0
C742 C 0.90359 0.55215 0.54677 0.0
C743 C 0.90697 0.53897 0.53454 0.0
H744 H 0.858 0.5478 0.56156 0.0
H745 H 0.89964 0.43027 0.44245 0.0
H746 H 0.15858 0.6997 0.66553 0.0
H747 H 0.24221 0.73371 0.66583 0.0
H748 H 0.25264 0.83256 0.69336 0.0
H749 H 0.16951 0.79956 0.69279 0.0
H750 H 0.30898 0.87541 0.67521 0.0
H751 H 0.27746 0.74483 0.70021 0.0
H752 H 0.24062 0.66274 0.7056 0.0
H753 H 0.2985 0.6379 0.67265 0.0
H754 H 0.33521 0.71977 0.66697 0.0
H755 H 0.55279 0.97718 0.6811 0.0
H756 H 0.47054 0.93759 0.68603 0.0
H757 H 0.44593 0.83477 0.65815 0.0
H758 H 0.52755 0.87328 0.65342 0.0
H759 H 0.3979 0.79476 0.67849 0.0
H760 H 0.42318 0.92379 0.65269 0.0
H761 H 0.45993 0.00587 0.64725 0.0
H762 H 0.41334 0.03315 0.682 0.0
H763 H 0.37676 0.95126 0.68771 0.0
C764 C 0.17868 0.72787 0.67188 0.0
C765 C 0.15756 0.74704 0.67911 0.0
C766 C 0.22655 0.7474 0.67205 0.0
C767 C 0.254 0.78588 0.67962 0.0
C768 C 0.23245 0.80322 0.68736 0.0
C769 C 0.18485 0.78414 0.68708 0.0
C770 C 0.30511 0.81047 0.67873 0.0
C771 C 0.32841 0.8578 0.67617 0.0
C772 C 0.33068 0.78763 0.67971 0.0
C773 C 0.30878 0.73839 0.68312 0.0
C774 C 0.28206 0.72181 0.69407 0.0
C775 C 0.26125 0.67533 0.69718 0.0
C776 C 0.26714 0.64511 0.68946 0.0
C777 C 0.29395 0.66134 0.67862 0.0
C778 C 0.31481 0.70779 0.67546 0.0
C779 C 0.52977 0.94624 0.676 0.0
C780 C 0.54677 0.92854 0.66683 0.0
C781 C 0.48274 0.92361 0.67882 0.0
C782 C 0.45182 0.88325 0.67239 0.0
C783 C 0.46895 0.86563 0.66329 0.0
C784 C 0.51575 0.88791 0.66055 0.0
C785 C 0.40149 0.85943 0.67488 0.0
C786 C 0.37838 0.81232 0.67769 0.0
C787 C 0.37602 0.88242 0.67415 0.0
C788 C 0.39766 0.93154 0.67068 0.0
C789 C 0.42103 0.94736 0.6592 0.0
C790 C 0.44179 0.99383 0.65606 0.0
C791 C 0.43908 0.02473 0.66429 0.0
C792 C 0.41547 0.00919 0.67565 0.0
C793 C 0.39469 0.96276 0.67883 0.0
H794 H 0.45518 0.06069 0.66185 0.0
H795 H 0.25099 0.60913 0.69189 0.0
H796 H 0.56342 0.55271 0.83793 0.0
H797 H 0.5207 0.46993 0.84188 0.0
H798 H 0.63549 0.45863 0.82833 0.0
H799 H 0.67742 0.54054 0.82395 0.0
H800 H 0.56147 0.39227 0.81913 0.0
H801 H 0.60769 0.45452 0.86068 0.0
H802 H 0.61467 0.50404 0.87859 0.0
H803 H 0.46798 0.43767 0.88137 0.0
H804 H 0.46009 0.38801 0.86338 0.0
H805 H 0.46988 0.16041 0.83713 0.0
H806 H 0.52248 0.2437 0.8375 0.0
H807 H 0.41127 0.26436 0.84905 0.0
H808 H 0.35939 0.18192 0.84908 0.0
H809 H 0.48757 0.32602 0.86005 0.0
H810 H 0.44227 0.26717 0.81765 0.0
H811 H 0.43583 0.21783 0.79972 0.0
H812 H 0.58248 0.27942 0.79862 0.0
H813 H 0.58967 0.32843 0.81663 0.0
C814 C 0.57947 0.53252 0.83578 0.0
C815 C 0.62378 0.55326 0.83059 0.0
C816 C 0.55516 0.48521 0.83813 0.0
C817 C 0.57505 0.45791 0.83557 0.0
C818 C 0.61928 0.47874 0.83038 0.0
C819 C 0.64328 0.52575 0.82789 0.0
C820 C 0.54971 0.40752 0.83797 0.0
C821 C 0.54598 0.37793 0.82816 0.0
C822 C 0.52871 0.38848 0.84966 0.0
C823 C 0.53332 0.41774 0.86062 0.0
C824 C 0.57692 0.4506 0.86507 0.0
C825 C 0.58103 0.47867 0.87525 0.0
C826 C 0.5418 0.47399 0.88112 0.0
C827 C 0.49834 0.44119 0.87683 0.0
C828 C 0.49402 0.41302 0.86665 0.0
C829 C 0.45702 0.18271 0.84004 0.0
C830 C 0.41035 0.16457 0.84291 0.0
C831 C 0.48698 0.23033 0.84016 0.0
C832 C 0.47061 0.26046 0.84304 0.0
C833 C 0.42477 0.24204 0.84674 0.0
C834 C 0.39503 0.19472 0.84667 0.0
C835 C 0.49952 0.31096 0.84121 0.0
C836 C 0.50361 0.34053 0.85109 0.0
C837 C 0.52094 0.33008 0.82958 0.0
C838 C 0.51648 0.30113 0.81857 0.0
C839 C 0.4731 0.26998 0.81361 0.0
C840 C 0.46931 0.24205 0.80343 0.0
C841 C 0.5087 0.24535 0.79804 0.0
C842 C 0.55195 0.27673 0.80279 0.0
C843 C 0.55591 0.3046 0.81299 0.0
H844 H 0.50571 0.22366 0.79016 0.0
H845 H 0.54507 0.49572 0.889 0.0
H846 H 0.28128 0.46181 0.99692 0.0
H847 H 0.2454 0.50953 0.99841 0.0
H848 H 0.14144 0.40957 0.02296 0.0
H849 H 0.17652 0.36148 0.02125 0.0
H850 H 0.10231 0.42772 0.00458 0.0
H851 H 0.22186 0.51868 0.03336 0.0
H852 H 0.30124 0.56325 0.04119 0.0
H853 H 0.3357 0.65863 0.01075 0.0
H854 H 0.25666 0.61427 0.00262 0.0
H855 H 0.99459 0.56484 0.01043 0.0
H856 H 0.03221 0.52049 0.01514 0.0
H857 H 0.14462 0.60839 0.99077 0.0
H858 H 0.10754 0.6529 0.98609 0.0
H859 H 0.17704 0.59522 0.012 0.0
H860 H 0.05815 0.498 0.98231 0.0
H861 H 0.97818 0.45289 0.9749 0.0
H862 H 0.94231 0.36866 0.00793 0.0
H863 H 0.02201 0.41353 0.01557 0.0
C864 C 0.25157 0.45073 0.00291 0.0
C865 C 0.23152 0.40786 0.0089 0.0
C866 C 0.231 0.47799 0.00376 0.0
C867 C 0.19053 0.46312 0.01078 0.0
C868 C 0.17235 0.42164 0.01741 0.0
C869 C 0.19256 0.39427 0.01646 0.0
C870 C 0.16471 0.48834 0.01022 0.0
C871 C 0.11851 0.46422 0.00644 0.0
C872 C 0.1858 0.53605 0.01246 0.0
C873 C 0.23339 0.56291 0.01732 0.0
C874 C 0.24644 0.54896 0.02827 0.0
C875 C 0.29137 0.57423 0.03278 0.0
C876 C 0.32352 0.61369 0.02646 0.0
C877 C 0.31077 0.62803 0.01564 0.0
C878 C 0.26589 0.60287 0.01108 0.0
C879 C 0.02721 0.57458 0.00603 0.0
C880 C 0.04801 0.61245 0.99788 0.0
C881 C 0.04881 0.54923 0.00877 0.0
C882 C 0.09147 0.56114 0.00336 0.0
C883 C 0.11196 0.5987 0.99515 0.0
C884 C 0.09049 0.62399 0.99243 0.0
C885 C 0.11513 0.53475 0.00608 0.0
C886 C 0.16084 0.55862 0.01028 0.0
C887 C 0.09357 0.48676 0.00428 0.0
C888 C 0.04585 0.45948 -0.00041 0.0
C889 C 0.03312 0.47005 0.98803 0.0
C890 C 0.98787 0.44448 0.98378 0.0
C891 C 0.95514 0.40804 0.99096 0.0
C892 C 0.96765 0.39696 0.00239 0.0
C893 C 0.01286 0.42242 0.00668 0.0
H894 H 0.92012 0.3883 0.98766 0.0
H895 H 0.35828 0.63321 0.02997 0.0
H896 H 0.82949 0.1849 0.18837 0.0
H897 H 0.74631 0.1497 0.18956 0.0
H898 H 0.75344 0.26434 0.16947 0.0
H899 H 0.83742 0.30019 0.1683 0.0
H900 H 0.68495 0.22837 0.1887 0.0
H901 H 0.73447 0.17402 0.15328 0.0
H902 H 0.77722 0.14076 0.14323 0.0
H903 H 0.70416 0.01921 0.16567 0.0
H904 H 0.66146 0.05209 0.17599 0.0
H905 H 0.46662 0.1299 0.16126 0.0
H906 H 0.54825 0.16724 0.1657 0.0
H907 H 0.53155 0.04013 0.18023 0.0
H908 H 0.44915 0.00203 0.17565 0.0
H909 H 0.60447 0.08027 0.16578 0.0
H910 H 0.54933 0.13014 0.19986 0.0
H911 H 0.50668 0.16248 0.21038 0.0
H912 H 0.58903 0.29075 0.19144 0.0
H913 H 0.6318 0.25893 0.18065 0.0
C914 C 0.81352 0.20312 0.18439 0.0
C915 C 0.83987 0.24502 0.17807 0.0
C916 C 0.76594 0.1829 0.18509 0.0
C917 C 0.74365 0.20394 0.17938 0.0
C918 C 0.77005 0.24747 0.17389 0.0
C919 C 0.81796 0.26795 0.17323 0.0
C920 C 0.69292 0.17838 0.17813 0.0
C921 C 0.66727 0.19624 0.18359 0.0
C922 C 0.66986 0.13571 0.17179 0.0
C923 C 0.69512 0.11569 0.16549 0.0
C924 C 0.72777 0.14034 0.15613 0.0
C925 C 0.75196 0.12154 0.15038 0.0
C926 C 0.74349 0.07794 0.15383 0.0
C927 C 0.71072 0.053 0.16302 0.0
C928 C 0.6865 0.07169 0.16882 0.0
C929 C 0.48008 0.10973 0.16545 0.0
C930 C 0.4512 0.06293 0.16815 0.0
C931 C 0.52688 0.13134 0.16808 0.0
C932 C 0.54601 0.10691 0.17361 0.0
C933 C 0.51748 0.05991 0.17613 0.0
C934 C 0.47041 0.03812 0.17348 0.0
C935 C 0.59612 0.1304 0.17623 0.0
C936 C 0.62184 0.11216 0.17101 0.0
C937 C 0.61909 0.17255 0.18286 0.0
C938 C 0.59361 0.19198 0.18938 0.0
C939 C 0.55819 0.16513 0.19787 0.0
C940 C 0.534 0.1834 0.2039 0.0
C941 C 0.54509 0.22863 0.20157 0.0
C942 C 0.58047 0.25571 0.19323 0.0
C943 C 0.60475 0.23758 0.18717 0.0
H944 H 0.52631 0.24272 0.20624 0.0
H945 H 0.76225 0.06344 0.14937 0.0
H946 H 0.44514 0.45988 0.33798 0.0
H947 H 0.48753 0.54248 0.34226 0.0
H948 H 0.3943 0.56097 0.31844 0.0
H949 H 0.35285 0.47931 0.31384 0.0
H950 H 0.47982 0.62944 0.31519 0.0
H951 H 0.38058 0.55236 0.35085 0.0
H952 H 0.35241 0.49248 0.36723 0.0
H953 H 0.48781 0.55332 0.38299 0.0
H954 H 0.51674 0.61326 0.36668 0.0
H955 H 0.53366 0.84886 0.33395 0.0
H956 H 0.48447 0.7654 0.33258 0.0
H957 H 0.57959 0.74768 0.35579 0.0
H958 H 0.62816 0.83069 0.3574 0.0
H959 H 0.49259 0.67861 0.35968 0.0
H960 H 0.59239 0.7548 0.32464 0.0
H961 H 0.62417 0.81211 0.30763 0.0
H962 H 0.49177 0.75134 0.2901 0.0
H963 H 0.45881 0.69431 0.30718 0.0
C964 C 0.43409 0.48166 0.33353 0.0
C965 C 0.39532 0.46289 0.32568 0.0
C966 C 0.45817 0.52881 0.33603 0.0
C967 C 0.4435 0.55777 0.33086 0.0
C968 C 0.40613 0.53933 0.32258 0.0
C969 C 0.38234 0.49247 0.32001 0.0
C970 C 0.46538 0.6069 0.33443 0.0
C971 C 0.48208 0.64013 0.3249 0.0
C972 C 0.46903 0.62093 0.34712 0.0
C973 C 0.45086 0.58712 0.35751 0.0
C974 C 0.40426 0.55304 0.35786 0.0
C975 C 0.38816 0.51904 0.36711 0.0
C976 C 0.41831 0.51897 0.37612 0.0
C977 C 0.46444 0.55334 0.37602 0.0
C978 C 0.4807 0.58743 0.36679 0.0
C979 C 0.54316 0.82717 0.33914 0.0
C980 C 0.58509 0.84618 0.34561 0.0
C981 C 0.51522 0.7795 0.33828 0.0
C982 C 0.52903 0.75038 0.34382 0.0
C983 C 0.56844 0.76943 0.35136 0.0
C984 C 0.59627 0.81693 0.35222 0.0
C985 C 0.50642 0.70108 0.34041 0.0
C986 C 0.48987 0.66787 0.34996 0.0
C987 C 0.50313 0.68702 0.32772 0.0
C988 C 0.52302 0.72059 0.31727 0.0
C989 C 0.56995 0.75385 0.3172 0.0
C990 C 0.58815 0.78632 0.30756 0.0
C991 C 0.5599 0.78549 0.29783 0.0
C992 C 0.51346 0.75206 0.29769 0.0
C993 C 0.495 0.71967 0.30735 0.0
H994 H 0.574 0.8106 0.29036 0.0
H995 H 0.40593 0.49219 0.38314 0.0
H996 H 0.64613 0.52458 0.46221 0.0
H997 H 0.5902 0.47513 0.44635 0.0
H998 H 0.63509 0.59152 0.42172 0.0
H999 H 0.69145 0.64088 0.43747 0.0
H1000 H 0.5346 0.5339 0.42628 0.0
H1001 H 0.66843 0.52385 0.41417 0.0
H1002 H 0.73162 0.50847 0.41827 0.0
H1003 H 0.6345 0.37031 0.42904 0.0
H1004 H 0.57073 0.3851 0.42518 0.0
H1005 H 0.42976 0.43035 0.36836 0.0
H1006 H 0.48208 0.47576 0.38522 0.0
H1007 H 0.45659 0.35174 0.40402 0.0
H1008 H 0.40549 0.3061 0.38699 0.0
H1009 H 0.54513 0.41092 0.40354 0.0
H1010 H 0.41106 0.41454 0.41418 0.0
H1011 H 0.3448 0.42649 0.4125 0.0
H1012 H 0.43537 0.57094 0.40737 0.0
H1013 H 0.50225 0.55979 0.40863 0.0
C1014 C 0.64416 0.53941 0.45337 0.0
C1015 C 0.67316 0.5864 0.45101 0.0
C1016 C 0.61236 0.51125 0.44435 0.0
C1017 C 0.60863 0.52982 0.43291 0.0
C1018 C 0.63756 0.57668 0.43051 0.0
C1019 C 0.66993 0.60468 0.43944 0.0
C1020 C 0.57406 0.50044 0.4235 0.0
C1021 C 0.53704 0.50742 0.42112 0.0
C1022 C 0.57655 0.46471 0.41728 0.0
C1023 C 0.61486 0.45574 0.41952 0.0
C1024 C 0.66057 0.49032 0.41752 0.0
C1025 C 0.69649 0.48168 0.41978 0.0
C1026 C 0.68709 0.43848 0.42395 0.0
C1027 C 0.64174 0.40378 0.42583 0.0
C1028 C 0.6057 0.41226 0.4236 0.0
C1029 C 0.43546 0.41269 0.37603 0.0
C1030 C 0.41351 0.3645 0.37629 0.0
C1031 C 0.46495 0.43873 0.38575 0.0
C1032 C 0.47287 0.41717 0.39595 0.0
C1033 C 0.45087 0.36911 0.39626 0.0
C1034 C 0.42139 0.34304 0.38655 0.0
C1035 C 0.50562 0.44479 0.40601 0.0
C1036 C 0.54236 0.43739 0.4086 0.0
C1037 C 0.50223 0.47958 0.4126 0.0
C1038 C 0.46186 0.48619 0.41132 0.0
C1039 C 0.41696 0.44878 0.41247 0.0
C1040 C 0.37922 0.45543 0.41165 0.0
C1041 C 0.38587 0.49945 0.40985 0.0
C1042 C 0.43027 0.53687 0.40881 0.0
C1043 C 0.46811 0.53037 0.40954 0.0
H1044 H 0.35664 0.50457 0.40927 0.0
H1045 H 0.71494 0.43186 0.42569 0.0
H1046 H 0.12365 0.41204 0.55988 0.0
H1047 H 0.11596 0.459 0.5761 0.0
H1048 H 0.05644 0.50938 0.54899 0.0
H1049 H 0.06404 0.46244 0.53271 0.0
H1050 H 0.15162 0.54866 0.57862 0.0
H1051 H 0.97621 0.52645 0.56347 0.0
H1052 H 0.90563 0.46902 0.5527 0.0
H1053 H 0.93063 0.36166 0.56455 0.0
H1054 H 1.00086 0.41814 0.57555 0.0
H1055 H 0.11408 0.71006 0.61139 0.0
H1056 H 0.11908 0.66347 0.59451 0.0
H1057 H 0.01628 0.54067 0.6129 0.0
H1058 H 0.00975 0.58693 0.62951 0.0
H1059 H 1.00125 0.53593 0.58802 0.0
H1060 H 0.1273 0.57213 0.61558 0.0
H1061 H 0.19665 0.62262 0.62786 0.0
H1062 H 0.26769 0.69027 0.59403 0.0
H1063 H 0.1985 0.64058 0.58156 0.0
C1064 C 0.10927 0.43336 0.55734 0.0
C1065 C 0.09433 0.43336 0.545 0.0
C1066 C 0.10481 0.46013 0.56663 0.0
C1067 C 0.08527 0.48738 0.56379 0.0
C1068 C 0.0709 0.488 0.55144 0.0
C1069 C 0.07518 0.46107 0.54215 0.0
C1070 C 0.0799 0.51504 0.57377 0.0
C1071 C 0.11878 0.546 0.58063 0.0
C1072 C 0.03687 0.51094 0.57656 0.0
C1073 C 0.99407 0.47663 0.57022 0.0
C1074 C 0.96652 0.49057 0.56383 0.0
C1075 C 0.92663 0.45822 0.55767 0.0
C1076 C 0.91381 0.41184 0.5579 0.0
C1077 C 0.9407 0.39762 0.56434 0.0
C1078 C 0.98057 0.42978 0.57053 0.0
C1079 C 0.09215 0.67321 0.61176 0.0
C1080 C 0.06186 0.65228 0.62187 0.0
C1081 C 0.09526 0.6466 0.60216 0.0
C1082 C 0.06829 0.59858 0.60251 0.0
C1083 C 0.03733 0.57766 0.61244 0.0
C1084 C 0.03412 0.60419 0.62202 0.0
C1085 C 0.07313 0.57 0.59273 0.0
C1086 C 0.03415 0.53886 0.58591 0.0
C1087 C 0.11586 0.57309 0.59018 0.0
C1088 C 0.15757 0.60296 0.59765 0.0
C1089 C 0.15759 0.59802 0.61077 0.0
C1090 C 0.19689 0.62645 0.61776 0.0
C1091 C 0.23651 0.65972 0.61173 0.0
C1092 C 0.23695 0.66454 0.59869 0.0
C1093 C 0.19771 0.63624 0.59165 0.0
H1094 H 0.2669 0.68169 0.61717 0.0
H1095 H 0.88297 0.3869 0.5531 0.0
H1096 H 0.67674 0.03378 0.72494 0.0
H1097 H 0.62915 0.03865 0.74161 0.0
H1098 H 0.58812 0.11257 0.71662 0.0
H1099 H 0.63576 0.10758 0.69991 0.0
H1100 H 0.61101 0.14911 0.74172 0.0
H1101 H 0.5174 0.00682 0.72012 0.0
H1102 H 0.49901 0.93192 0.71124 0.0
H1103 H 0.50895 0.88451 0.74792 0.0
H1104 H 0.52822 0.95947 0.75699 0.0
H1105 H 0.41844 0.12135 0.77658 0.0
H1106 H 0.47039 0.1238 0.76022 0.0
H1107 H 0.49496 0.02888 0.78137 0.0
H1108 H 0.44119 0.02412 0.79738 0.0
H1109 H 0.48056 0.004 0.75776 0.0
H1110 H 0.57597 0.14519 0.7795 0.0
H1111 H 0.59703 0.22033 0.78869 0.0
H1112 H 0.58534 0.26969 0.75246 0.0
H1113 H 0.56389 0.1946 0.74306 0.0
C1114 C 0.65819 0.05172 0.72311 0.0
C1115 C 0.65984 0.07034 0.71119 0.0
C1116 C 0.63081 0.0542 0.73257 0.0
C1117 C 0.60496 0.0757 0.73029 0.0
C1118 C 0.60781 0.09579 0.71854 0.0
C1119 C 0.63473 0.09274 0.70901 0.0
C1120 C 0.57361 0.07558 0.74004 0.0
C1121 C 0.58211 0.11749 0.74514 0.0
C1122 C 0.5366 0.03417 0.74464 0.0
C1123 C 0.52482 0.98898 0.73921 0.0
C1124 C 0.51614 0.9806 0.72628 0.0
C1125 C 0.50546 0.93809 0.72121 0.0
C1126 C 0.50296 0.90352 0.729 0.0
C1127 C 0.511 0.91135 0.74189 0.0
C1128 C 0.52179 0.95384 0.747 0.0
C1129 C 0.43458 0.10072 0.77772 0.0
C1130 C 0.42545 0.07256 0.78834 0.0
C1131 C 0.46476 0.10258 0.76842 0.0
C1132 C 0.48694 0.07683 0.76961 0.0
C1133 C 0.47822 0.04902 0.78024 0.0
C1134 C 0.44778 0.04679 0.78948 0.0
C1135 C 0.51809 0.0776 0.75962 0.0
C1136 C 0.50947 0.03572 0.75441 0.0
C1137 C 0.55516 0.11904 0.75499 0.0
C1138 C 0.5679 0.16415 0.7606 0.0
C1139 C 0.57754 0.17195 0.77351 0.0
C1140 C 0.58964 0.21458 0.77875 0.0
C1141 C 0.59237 0.24975 0.77117 0.0
C1142 C 0.58315 0.2424 0.75832 0.0
C1143 C 0.57111 0.19984 0.75303 0.0
H1144 H 0.60176 0.28275 0.77524 0.0
H1145 H 0.49467 0.87063 0.72507 0.0
H1146 H 0.55733 0.58565 0.86607 0.0
H1147 H 0.50124 0.53899 0.88191 0.0
H1148 H 0.54854 0.65731 0.90587 0.0
H1149 H 0.60375 0.70508 0.88984 0.0
H1150 H 0.5391 0.57784 0.91808 0.0
H1151 H 0.45207 0.62153 0.89116 0.0
H1152 H 0.42273 0.62955 0.87066 0.0
H1153 H 0.35416 0.48368 0.86541 0.0
H1154 H 0.38385 0.47482 0.88578 0.0
H1155 H 0.36235 0.47888 0.96327 0.0
H1156 H 0.41564 0.52951 0.94725 0.0
H1157 H 0.35489 0.41955 0.92018 0.0
H1158 H 0.30114 0.36905 0.93616 0.0
H1159 H 0.37183 0.49604 0.90945 0.0
H1160 H 0.45751 0.44981 0.93533 0.0
H1161 H 0.49191 0.43862 0.95451 0.0
H1162 H 0.56591 0.58397 0.96086 0.0
H1163 H 0.53134 0.59603 0.94185 0.0
C1164 C 0.55559 0.60222 0.87458 0.0
C1165 C 0.58512 0.64953 0.87656 0.0
C1166 C 0.52361 0.57524 0.88369 0.0
C1167 C 0.5207 0.59476 0.89502 0.0
C1168 C 0.5504 0.64164 0.89717 0.0
C1169 C 0.58208 0.66886 0.88799 0.0
C1170 C 0.48662 0.56606 0.90464 0.0
C1171 C 0.50245 0.56051 0.91632 0.0
C1172 C 0.43903 0.54233 0.9021 0.0
C1173 C 0.42044 0.54754 0.88996 0.0
C1174 C 0.43097 0.59118 0.8856 0.0
C1175 C 0.41426 0.59589 0.87401 0.0
C1176 C 0.38662 0.55717 0.86673 0.0
C1177 C 0.37557 0.51364 0.87105 0.0
C1178 C 0.39231 0.50875 0.88262 0.0
C1179 C 0.3603 0.46561 0.95389 0.0
C1180 C 0.32774 0.41995 0.95099 0.0
C1181 C 0.39086 0.49449 0.94475 0.0
C1182 C 0.38992 0.47809 0.93257 0.0
C1183 C 0.35637 0.43296 0.92953 0.0
C1184 C 0.32551 0.40417 0.93865 0.0
C1185 C 0.42415 0.50781 0.92303 0.0
C1186 C 0.40841 0.5135 0.91132 0.0
C1187 C 0.47196 0.53114 0.9255 0.0
C1188 C 0.49144 0.52379 0.93721 0.0
C1189 C 0.48064 0.47935 0.9409 0.0
C1190 C 0.50027 0.47286 0.95172 0.0
C1191 C 0.53109 0.51057 0.95887 0.0
C1192 C 0.54203 0.55481 0.95529 0.0
C1193 C 0.52241 0.56149 0.9445 0.0
H1194 H 0.54675 0.50559 0.96714 0.0
H1195 H 0.37373 0.5609 0.85776 0.0
H1196 H 0.98155 0.42042 0.13274 0.0
H1197 H 0.97898 0.47049 0.11671 0.0
H1198 H 0.90092 0.35415 0.09256 0.0
H1199 H 0.90155 0.30311 0.10876 0.0
H1200 H 0.97407 0.42715 0.08038 0.0
H1201 H 0.84797 0.40298 0.10728 0.0
H1202 H 0.81296 0.40242 0.12767 0.0
H1203 H 0.90783 0.54638 0.1321 0.0
H1204 H 0.94378 0.54766 0.11179 0.0
H1205 H 0.90598 0.53369 0.03452 0.0
H1206 H 0.90902 0.48392 0.05072 0.0
H1207 H 0.96963 0.59814 0.07647 0.0
H1208 H 0.96621 0.64792 0.06031 0.0
H1209 H 0.90726 0.52702 0.08812 0.0
H1210 H 0.03293 0.55485 0.06184 0.0
H1211 H 0.07693 0.55797 0.04297 0.0
H1212 H 0.99242 0.41241 0.03826 0.0
H1213 H 0.94739 0.40846 0.05695 0.0
C1214 C 0.96308 0.40503 0.12415 0.0
C1215 C 0.9414 0.35731 0.12216 0.0
C1216 C 0.96202 0.43397 0.11493 0.0
C1217 C 0.9397 0.41605 0.10347 0.0
C1218 C 0.91846 0.36867 0.10135 0.0
C1219 C 0.91901 0.33954 0.11062 0.0
C1220 C 0.93893 0.44687 0.09364 0.0
C1221 C 0.9588 0.44848 0.08195 0.0
C1222 C 0.92068 0.47596 0.09594 0.0
C1223 C 0.89872 0.47534 0.10806 0.0
C1224 C 0.86151 0.43445 0.11264 0.0
C1225 C 0.84148 0.43402 0.12417 0.0
C1226 C 0.8582 0.47432 0.13119 0.0
C1227 C 0.89492 0.51519 0.12666 0.0
C1228 C 0.91509 0.5158 0.11513 0.0
C1229 C 0.92016 0.54825 0.04361 0.0
C1230 C 0.93588 0.59479 0.04612 0.0
C1231 C 0.92205 0.51979 0.05286 0.0
C1232 C 0.94024 0.53739 0.06477 0.0
C1233 C 0.95546 0.58374 0.06735 0.0
C1234 C 0.95327 0.61214 0.05812 0.0
C1235 C 0.94205 0.50716 0.07467 0.0
C1236 C 0.92245 0.50568 0.08643 0.0
C1237 C 0.96127 0.47871 0.07248 0.0
C1238 C 0.9865 0.48143 0.06076 0.0
C1239 C 0.02326 0.52359 0.05667 0.0
C1240 C 0.04852 0.52548 0.04604 0.0
C1241 C 0.03761 0.48539 0.03946 0.0
C1242 C 1.00094 0.44342 0.04338 0.0
C1243 C 0.97551 0.44135 0.05399 0.0
H1244 H 0.0577 0.4868 0.03137 0.0
H1245 H 0.84267 0.47391 0.14012 0.0
H1246 H 0.52898 0.92572 0.29979 0.0
H1247 H 0.47781 0.91695 0.2825 0.0
H1248 H 0.56641 0.89921 0.25667 0.0
H1249 H 0.61885 0.90976 0.27387 0.0
H1250 H 0.54304 0.95809 0.2475 0.0
H1251 H 0.46067 0.80691 0.26537 0.0
H1252 H 0.42324 0.74931 0.28212 0.0
H1253 H 0.33201 0.80083 0.28971 0.0
H1254 H 0.36873 0.85865 0.27297 0.0
H1255 H 0.38903 0.89721 0.19612 0.0
H1256 H 0.4375 0.8937 0.2127 0.0
H1257 H 0.35425 0.91032 0.24068 0.0
H1258 H 0.30556 0.91349 0.22415 0.0
H1259 H 0.37556 0.8485 0.24819 0.0
H1260 H 0.45863 1.00057 0.2307 0.0
H1261 H 0.49652 0.05925 0.21424 0.0
H1262 H 0.58788 0.00807 0.20634 0.0
H1263 H 0.55004 0.94857 0.22261 0.0
C1264 C 0.53786 0.92021 0.29045 0.0
C1265 C 0.57836 0.91876 0.28826 0.0
C1266 C 0.50815 0.91459 0.28057 0.0
C1267 C 0.51795 0.90691 0.26829 0.0
C1268 C 0.55804 0.90493 0.26607 0.0
C1269 C 0.58785 0.91065 0.27595 0.0
C1270 C 0.48749 0.90313 0.25769 0.0
C1271 C 0.50654 0.93354 0.24754 0.0
C1272 C 0.43968 0.87193 0.25788 0.0
C1273 C 0.4177 0.83734 0.26799 0.0
C1274 C 0.43284 0.80616 0.27067 0.0
C1275 C 0.41173 0.77344 0.28015 0.0
C1276 C 0.37551 0.77161 0.28703 0.0
C1277 C 0.36013 0.80234 0.28439 0.0
C1278 C 0.38096 0.83498 0.27488 0.0
C1279 C 0.38109 0.90011 0.20581 0.0
C1280 C 0.34368 0.90602 0.20881 0.0
C1281 C 0.40882 0.89813 0.21528 0.0
C1282 C 0.40004 0.90259 0.22794 0.0
C1283 C 0.36177 0.90689 0.23098 0.0
C1284 C 0.33385 0.90855 0.22152 0.0
C1285 C 0.43108 0.90361 0.23803 0.0
C1286 C 0.41213 0.87277 0.24809 0.0
C1287 C 0.47901 0.93455 0.23777 0.0
C1288 C 0.50117 0.9698 0.2278 0.0
C1289 C 0.48647 0.0015 0.22537 0.0
C1290 C 0.50801 0.03498 0.21608 0.0
C1291 C 0.54459 0.03737 0.20925 0.0
C1292 C 0.55954 0.00616 0.21164 0.0
C1293 C 0.53806 0.97255 0.22089 0.0
H1294 H 0.56154 0.06353 0.20215 0.0
H1295 H 0.35926 0.74628 0.29437 0.0
H1296 H 0.19402 0.03997 0.19774 0.0
H1297 H 0.17696 0.07814 0.21478 0.0
H1298 H 0.31695 0.18948 0.21392 0.0
H1299 H 0.3341 0.15179 0.19689 0.0
H1300 H 0.29135 0.14772 0.23682 0.0
H1301 H 0.23219 0.20662 0.20518 0.0
H1302 H 0.18211 0.20243 0.18772 0.0
H1303 H 0.06326 0.12526 0.21085 0.0
H1304 H 0.11259 0.12824 0.22839 0.0
H1305 H 0.28236 0.32779 0.27142 0.0
H1306 H 0.25456 0.28178 0.25228 0.0
H1307 H 0.20824 0.15855 0.27414 0.0
H1308 H 0.23638 0.20455 0.29328 0.0
H1309 H 0.17802 0.20031 0.24111 0.0
H1310 H 0.26764 0.11095 0.26223 0.0
H1311 H 0.32018 0.12088 0.2797 0.0
H1312 H 0.38346 0.26721 0.27639 0.0
H1313 H 0.33196 0.25807 0.25876 0.0
C1314 C 0.22074 0.07328 0.20092 0.0
C1315 C 0.26556 0.09273 0.1961 0.0
C1316 C 0.21095 0.09496 0.21067 0.0
C1317 C 0.2458 0.1364 0.21565 0.0
C1318 C 0.28968 0.15731 0.21024 0.0
C1319 C 0.29946 0.13574 0.20055 0.0
C1320 C 0.23869 0.15526 0.22743 0.0
C1321 C 0.2663 0.15889 0.23773 0.0
C1322 C 0.20579 0.16951 0.22866 0.0
C1323 C 0.1761 0.1671 0.21805 0.0
C1324 C 0.19535 0.18822 0.2065 0.0
C1325 C 0.1671 0.18618 0.19659 0.0
C1326 C 0.11953 0.16343 0.19816 0.0
C1327 C 0.10011 0.14274 0.20964 0.0
C1328 C 0.12821 0.14459 0.21956 0.0
C1329 C 0.2646 0.29076 0.27216 0.0
C1330 C 0.2624 0.2697 0.28373 0.0
C1331 C 0.24832 0.2645 0.26126 0.0
C1332 C 0.23009 0.21693 0.26181 0.0
C1333 C 0.22235 0.19532 0.27356 0.0
C1334 C 0.23847 0.22162 0.28449 0.0
C1335 C 0.23072 0.19265 0.25033 0.0
C1336 C 0.2022 0.18809 0.24016 0.0
C1337 C 0.26315 0.17788 0.24908 0.0
C1338 C 0.29564 0.18378 0.2593 0.0
C1339 C 0.29298 0.1452 0.26519 0.0
C1340 C 0.32256 0.1507 0.27512 0.0
C1341 C 0.35504 0.19465 0.27917 0.0
C1342 C 0.35825 0.2332 0.27326 0.0
C1343 C 0.32891 0.22787 0.2633 0.0
H1344 H 0.37782 0.19883 0.28687 0.0
H1345 H 0.09772 0.16198 0.19049 0.0
H1346 H 0.18151 0.37386 0.3548 0.0
H1347 H 0.13494 0.36923 0.37299 0.0
H1348 H 0.10719 0.23176 0.3804 0.0
H1349 H 0.15414 0.2363 0.36245 0.0
H1350 H 0.03318 0.24429 0.38652 0.0
H1351 H 0.19674 0.31569 0.39355 0.0
H1352 H 0.27755 0.37215 0.38893 0.0
H1353 H 0.25158 0.48223 0.39673 0.0
H1354 H 0.17033 0.42634 0.4012 0.0
H1355 H 0.01978 0.21297 0.45197 0.0
H1356 H 0.03646 0.22092 0.4296 0.0
H1357 H 0.06691 0.36147 0.43095 0.0
H1358 H 0.05019 0.35369 0.4535 0.0
H1359 H 0.13284 0.35445 0.41915 0.0
H1360 H 0.96928 0.27747 0.4161 0.0
H1361 H 0.88982 0.21763 0.42084 0.0
H1362 H 0.91653 0.11457 0.4061 0.0
H1363 H 0.99637 0.1737 0.40143 0.0
C1364 C 0.16461 0.34227 0.36014 0.0
C1365 C 0.17209 0.30572 0.35729 0.0
C1366 C 0.13791 0.33963 0.37048 0.0
C1367 C 0.11832 0.30043 0.37812 0.0
C1368 C 0.12202 0.26229 0.3746 0.0
C1369 C 0.14882 0.26493 0.36429 0.0
C1370 C 0.10001 0.30138 0.39067 0.0
C1371 C 0.05477 0.26833 0.39368 0.0
C1372 C 0.12827 0.33321 0.39992 0.0
C1373 C 0.17733 0.36687 0.39754 0.0
C1374 C 0.20819 0.35194 0.3942 0.0
C1375 C 0.25406 0.38382 0.39161 0.0
C1376 C 0.26962 0.43074 0.39247 0.0
C1377 C 0.23941 0.44587 0.39602 0.0
C1378 C 0.19345 0.41411 0.39858 0.0
C1379 C 0.02907 0.24533 0.4475 0.0
C1380 C 0.03355 0.28269 0.45454 0.0
C1381 C 0.03857 0.24981 0.43467 0.0
C1382 C 0.05226 0.29158 0.42854 0.0
C1383 C 0.05621 0.32885 0.43548 0.0
C1384 C 0.04687 0.32443 0.44837 0.0
C1385 C 0.06583 0.297 0.41513 0.0
C1386 C 0.11055 0.33112 0.41196 0.0
C1387 C 0.03717 0.26575 0.4058 0.0
C1388 C 0.98896 0.23008 0.40848 0.0
C1389 C 0.95832 0.24203 0.41394 0.0
C1390 C 0.91318 0.20822 0.4166 0.0
C1391 C 0.89816 0.16232 0.41378 0.0
C1392 C 0.92822 0.15015 0.40827 0.0
C1393 C 0.9734 0.18381 0.40559 0.0
H1394 H 0.86321 0.13619 0.41586 0.0
H1395 H 0.30509 0.45536 0.3904 0.0
H1396 H 0.64909 0.94606 0.60764 0.0
H1397 H 0.68496 0.9542 0.58713 0.0
H1398 H 0.81864 0.02761 0.60439 0.0
H1399 H 0.78299 0.01979 0.62483 0.0
H1400 H 0.73031 0.03697 0.57833 0.0
H1401 H 0.89958 0.02755 0.58571 0.0
H1402 H 0.92132 0.97257 0.59395 0.0
H1403 H 0.78263 0.86271 0.58965 0.0
H1404 H 0.75999 0.91687 0.58135 0.0
H1405 H 0.91455 0.22083 0.55068 0.0
H1406 H 0.86302 0.15937 0.56474 0.0
H1407 H 0.86828 0.05947 0.54047 0.0
H1408 H 0.9205 0.12126 0.52634 0.0
H1409 H 0.87228 0.03914 0.56471 0.0
H1410 H 0.77373 0.06876 0.54005 0.0
H1411 H 0.74632 0.11512 0.52912 0.0
H1412 H 0.73171 0.16791 0.56446 0.0
H1413 H 0.75969 0.12241 0.57559 0.0
C1414 C 0.68611 0.96284 0.60709 0.0
C1415 C 0.71324 0.98331 0.61778 0.0
C1416 C 0.70655 0.96711 0.59538 0.0
C1417 C 0.75447 0.99184 0.59419 0.0
C1418 C 0.78158 0.00793 0.60507 0.0
C1419 C 0.76113 0.00363 0.61679 0.0
C1420 C 0.77573 0.01028 0.58179 0.0
C1421 C 0.7609 0.03672 0.57525 0.0
C1422 C 0.81476 0.00884 0.57749 0.0
C1423 C 0.82803 0.97648 0.58296 0.0
C1424 C 0.87367 0.99169 0.58652 0.0
C1425 C 0.88615 0.96064 0.59122 0.0
C1426 C 0.85335 0.91419 0.59236 0.0
C1427 C 0.80794 0.89873 0.58885 0.0
C1428 C 0.79523 0.92965 0.58419 0.0
C1429 C 0.90442 0.18577 0.54826 0.0
C1430 C 0.9211 0.17578 0.53734 0.0
C1431 C 0.87508 0.15067 0.55632 0.0
C1432 C 0.86122 0.10476 0.55354 0.0
C1433 C 0.87847 0.09464 0.54277 0.0
C1434 C 0.9082 0.12991 0.53472 0.0
C1435 C 0.82833 0.06789 0.56195 0.0
C1436 C 0.84103 0.03826 0.56767 0.0
C1437 C 0.78633 0.06505 0.56527 0.0
C1438 C 0.76895 0.09221 0.55865 0.0
C1439 C 0.76488 0.09042 0.54549 0.0
C1440 C 0.74923 0.11655 0.53926 0.0
C1441 C 0.7373 0.14446 0.54609 0.0
C1442 C 0.74092 0.14624 0.55918 0.0
C1443 C 0.7566 0.12021 0.56546 0.0
H1444 H 0.72522 0.16468 0.54125 0.0
H1445 H 0.86312 0.89016 0.59592 0.0
H1446 H 0.65803 0.73277 0.77637 0.0
H1447 H 0.69033 0.77979 0.75766 0.0
H1448 H 0.82663 0.81595 0.76982 0.0
H1449 H 0.79382 0.76859 0.7889 0.0
H1450 H 0.75895 0.87702 0.7565 0.0
H1451 H 0.87764 0.81922 0.73827 0.0
H1452 H 0.89717 0.75819 0.74116 0.0
H1453 H 0.75615 0.66138 0.74934 0.0
H1454 H 0.7358 0.72174 0.74636 0.0
H1455 H 0.81391 0.9737 0.69632 0.0
H1456 H 0.83786 0.94693 0.7146 0.0
H1457 H 0.72127 0.81143 0.70973 0.0
H1458 H 0.69697 0.83802 0.69143 0.0
H1459 H 0.80725 0.81677 0.72062 0.0
H1460 H 0.70109 0.88009 0.72482 0.0
H1461 H 0.6863 0.94416 0.72153 0.0
H1462 H 0.80829 0.03409 0.74221 0.0
H1463 H 0.8242 0.9707 0.7454 0.0
C1464 C 0.69486 0.7507 0.77506 0.0
C1465 C 0.7235 0.74684 0.78395 0.0
C1466 C 0.7133 0.77777 0.76444 0.0
C1467 C 0.76077 0.80121 0.76239 0.0
C1468 C 0.78987 0.79802 0.77129 0.0
C1469 C 0.77126 0.77122 0.78212 0.0
C1470 C 0.77812 0.82765 0.75063 0.0
C1471 C 0.77074 0.86466 0.74874 0.0
C1472 C 0.79402 0.81192 0.74056 0.0
C1473 C 0.80536 0.77506 0.74224 0.0
C1474 C 0.85084 0.78486 0.74067 0.0
C1475 C 0.86205 0.75042 0.74232 0.0
C1476 C 0.82794 0.70597 0.74548 0.0
C1477 C 0.78255 0.69586 0.74695 0.0
C1478 C 0.77117 0.73019 0.74529 0.0
C1479 C 0.79445 0.93772 0.69881 0.0
C1480 C 0.75331 0.90793 0.69253 0.0
C1481 C 0.80826 0.92252 0.70925 0.0
C1482 C 0.78124 0.87732 0.71351 0.0
C1483 C 0.74274 0.84637 0.70651 0.0
C1484 C 0.72864 0.86165 0.69614 0.0
C1485 C 0.78641 0.86491 0.72647 0.0
C1486 C 0.79765 0.83053 0.72852 0.0
C1487 C 0.77472 0.88349 0.73679 0.0
C1488 C 0.76406 0.92089 0.73524 0.0
C1489 C 0.72482 0.91359 0.72861 0.0
C1490 C 0.71625 0.94976 0.72676 0.0
C1491 C 0.74641 0.99318 0.73164 0.0
C1492 C 0.78503 1.00046 0.73842 0.0
C1493 C 0.79385 0.96446 0.74025 0.0
H1494 H 0.73989 0.0212 0.73019 0.0
H1495 H 0.83668 0.67935 0.74676 0.0
H1496 H 0.95166 0.76813 0.96111 0.0
H1497 H 0.9402 0.79864 0.94142 0.0
H1498 H 0.00397 0.73466 0.92098 0.0
H1499 H 0.01681 0.70548 0.94064 0.0
H1500 H 0.02001 0.81276 0.90941 0.0
H1501 H 0.89079 0.67625 0.92632 0.0
H1502 H 0.8338 0.63037 0.94253 0.0
H1503 H 0.78349 0.7251 0.94239 0.0
H1504 H 0.84077 0.77198 0.92631 0.0
H1505 H 0.86254 0.70123 0.85693 0.0
H1506 H 0.91224 0.72248 0.87554 0.0
H1507 H 0.88016 0.82825 0.88436 0.0
H1508 H 0.83156 0.80807 0.86565 0.0
H1509 H 0.85281 0.74454 0.90213 0.0
H1510 H 0.97639 0.87147 0.88092 0.0
H1511 H 0.03307 0.91098 0.86413 0.0
H1512 H 0.09279 0.8265 0.87132 0.0
H1513 H 0.03584 0.78576 0.88799 0.0
C1514 C 0.96474 0.76201 0.95248 0.0
C1515 C 0.98428 0.73362 0.95235 0.0
C1516 C 0.95796 0.77925 0.94123 0.0
C1517 C 0.97033 0.76803 0.92972 0.0
C1518 C 0.99391 0.74353 0.92973 0.0
C1519 C 1.0008 0.72647 0.94095 0.0
C1520 C 0.95273 0.77525 0.91768 0.0
C1521 C 0.98349 0.79803 0.9078 0.0
C1522 C 0.90504 0.75613 0.91562 0.0
C1523 C 0.87043 0.72793 0.92525 0.0
C1524 C 0.8678 0.68748 0.92982 0.0
C1525 C 0.83543 0.66127 0.93897 0.0
C1526 C 0.80512 0.67487 0.94352 0.0
C1527 C 0.80707 0.71467 0.93889 0.0
C1528 C 0.83949 0.74109 0.92976 0.0
C1529 C 0.86748 0.73004 0.86261 0.0
C1530 C 0.84348 0.75315 0.85986 0.0
C1531 C 0.8959 0.74224 0.87318 0.0
C1532 C 0.89999 0.77712 0.88122 0.0
C1533 C 0.87789 0.80172 0.87814 0.0
C1534 C 0.85026 0.7902 0.86745 0.0
C1535 C 0.92001 0.78176 0.89383 0.0
C1536 C 0.88944 0.76052 0.90381 0.0
C1537 C 0.96767 0.80139 0.89583 0.0
C1538 C 1.00139 0.82513 0.88562 0.0
C1539 C 1.00111 0.86077 0.8788 0.0
C1540 C 0.03341 0.88351 0.86932 0.0
C1541 C 0.06642 0.87117 0.86663 0.0
C1542 C 0.06716 0.836 0.8734 0.0
C1543 C 0.03486 0.81306 0.88287 0.0
H1544 H 0.0915 0.88894 0.85932 0.0
H1545 H 0.78004 0.6545 0.95059 0.0
H1546 H 0.30991 0.062 0.11187 0.0
H1547 H 0.26979 0.04843 0.09171 0.0
H1548 H 0.17381 0.90993 0.10341 0.0
H1549 H 0.21236 0.92475 0.1237 0.0
H1550 H 0.2655 0.99803 0.07437 0.0
H1551 H 0.07662 0.86129 0.08848 0.0
H1552 H 0.0215 0.85022 0.10524 0.0
H1553 H 0.09422 0.99482 0.11285 0.0
H1554 H 0.14941 0.00691 0.09602 0.0
H1555 H 0.16091 0.82908 0.02901 0.0
H1556 H 0.19625 0.8811 0.04656 0.0
H1557 H 0.08983 0.91701 0.04537 0.0
H1558 H 0.05179 0.86167 0.02864 0.0
H1559 H 0.0979 0.902 0.06756 0.0
H1560 H 0.20791 0.99646 0.03815 0.0
H1561 H 0.26263 0.01903 0.02057 0.0
H1562 H 0.34623 0.98051 0.04197 0.0
H1563 H 0.29169 0.95704 0.05962 0.0
C1564 C 0.27932 0.02926 0.11018 0.0
C1565 C 0.26378 0.99453 0.11928 0.0
C1566 C 0.25659 0.02137 0.09868 0.0
C1567 C 0.21845 0.97822 0.09599 0.0
C1568 C 0.2022 0.94397 0.1053 0.0
C1569 C 0.22428 0.95229 0.1169 0.0
C1570 C 0.19878 0.96706 0.08309 0.0
C1571 C 0.2288 0.97755 0.07287 0.0
C1572 C 0.15088 0.94201 0.08095 0.0
C1573 C 0.11734 0.93496 0.091 0.0
C1574 C 0.0807 0.89079 0.09366 0.0
C1575 C 0.04947 0.88432 0.1032 0.0
C1576 C 0.0544 0.92177 0.11012 0.0
C1577 C 0.09051 0.96581 0.1075 0.0
C1578 C 0.12182 0.97248 0.09797 0.0
C1579 C 0.14496 0.84806 0.03243 0.0
C1580 C 0.10305 0.84046 0.02743 0.0
C1581 C 0.16575 0.87858 0.04238 0.0
C1582 C 0.14602 0.90349 0.0473 0.0
C1583 C 0.10576 0.89819 0.04179 0.0
C1584 C 0.08433 0.86684 0.03204 0.0
C1585 C 0.16475 0.93096 0.05898 0.0
C1586 C 0.13454 0.9235 0.06898 0.0
C1587 C 0.21238 0.96069 0.06078 0.0
C1588 C 0.24553 0.9748 0.05021 0.0
C1589 C 0.23781 0.99252 0.03909 0.0
C1590 C 0.26883 0.00551 0.02911 0.0
C1591 C 0.30786 0.00117 0.03015 0.0
C1592 C 0.31599 0.98388 0.04118 0.0
C1593 C 0.28507 0.97081 0.05119 0.0
H1594 H 0.33183 0.01124 0.02241 0.0
H1595 H 0.0302 0.91667 0.1175 0.0
H1596 H 0.81816 0.71568 0.54106 0.0
H1597 H 0.85186 0.74331 0.5618 0.0
H1598 H 0.76197 0.79885 0.56748 0.0
H1599 H 0.72643 0.7682 0.54691 0.0
H1600 H 0.89473 0.81447 0.57526 0.0
H1601 H 0.7279 0.78353 0.59828 0.0
H1602 H 0.64449 0.74277 0.59428 0.0
H1603 H 0.65635 0.64254 0.57216 0.0
H1604 H 0.73972 0.68249 0.57614 0.0
H1605 H 0.95092 0.81288 0.63839 0.0
H1606 H 0.92007 0.8357 0.62095 0.0
H1607 H 0.81038 0.69581 0.61684 0.0
H1608 H 0.83799 0.67367 0.63509 0.0
H1609 H 0.77979 0.74589 0.60942 0.0
H1610 H 0.92271 0.74599 0.60102 0.0
H1611 H 0.0049 0.77259 0.60424 0.0
H1612 H 0.03844 0.91069 0.59582 0.0
H1613 H 0.95633 0.88488 0.59269 0.0
C1614 C 0.80678 0.73501 0.54664 0.0
C1615 C 0.77009 0.7401 0.54253 0.0
C1616 C 0.82592 0.75085 0.55848 0.0
C1617 C 0.80889 0.77245 0.56637 0.0
C1618 C 0.77502 0.78141 0.56171 0.0
C1619 C 0.75506 0.76443 0.54996 0.0
C1620 C 0.82278 0.77976 0.57982 0.0
C1621 C 0.86958 0.80009 0.58275 0.0
C1622 C 0.79014 0.76101 0.58967 0.0
C1623 C 0.74006 0.73647 0.58732 0.0
C1624 C 0.71267 0.75284 0.59255 0.0
C1625 C 0.66542 0.72985 0.5903 0.0
C1626 C 0.64517 0.69023 0.58292 0.0
C1627 C 0.67209 0.67334 0.57783 0.0
C1628 C 0.71933 0.69614 0.58008 0.0
C1629 C 0.91916 0.78716 0.63416 0.0
C1630 C 0.89768 0.74095 0.63804 0.0
C1631 C 0.90192 0.80027 0.624 0.0
C1632 C 0.8639 0.76725 0.61722 0.0
C1633 C 0.84017 0.72202 0.62175 0.0
C1634 C 0.85651 0.70917 0.63213 0.0
C1635 C 0.85151 0.77776 0.60471 0.0
C1636 C 0.80506 0.7615 0.602 0.0
C1637 C 0.88428 0.79819 0.59495 0.0
C1638 C 0.93351 0.81366 0.59679 0.0
C1639 C 0.94766 0.78205 0.59992 0.0
C1640 C 0.99417 0.79697 0.60173 0.0
C1641 C 0.02685 0.84333 0.60028 0.0
C1642 C 0.01308 0.87483 0.59698 0.0
C1643 C 0.96658 0.86009 0.59519 0.0
H1644 H 0.06285 0.85482 0.60168 0.0
H1645 H 0.6086 0.67252 0.58117 0.0
H1646 H 0.1554 0.95944 0.79718 0.0
H1647 H 0.09948 0.91858 0.78057 0.0
H1648 H 0.09836 0.79375 0.79055 0.0
H1649 H 0.15516 0.83488 0.80698 0.0
H1650 H 0.11654 0.81016 0.76704 0.0
H1651 H 0.00274 0.80827 0.79407 0.0
H1652 H 0.96603 0.83873 0.80809 0.0
H1653 H 0.96339 0.92293 0.77818 0.0
H1654 H 1.0008 0.89357 0.76403 0.0
H1655 H 0.94628 0.66459 0.7255 0.0
H1656 H 0.96057 0.70428 0.74564 0.0
H1657 H 0.04024 0.83414 0.72692 0.0
H1658 H 0.02699 0.79469 0.70677 0.0
H1659 H 0.97461 0.81181 0.75521 0.0
H1660 H 0.11883 0.83011 0.73276 0.0
H1661 H 0.14779 0.79314 0.71823 0.0
H1662 H 0.08252 0.66994 0.7403 0.0
H1663 H 0.05297 0.70624 0.75488 0.0
C1664 C 0.14219 0.92298 0.79606 0.0
C1665 C 0.15974 0.90031 0.8033 0.0
C1666 C 0.11012 0.89961 0.78657 0.0
C1667 C 0.09459 0.85302 0.7843 0.0
C1668 C 0.10998 0.82973 0.79209 0.0
C1669 C 0.1424 0.85319 0.80146 0.0
C1670 C 0.06756 0.83029 0.77284 0.0
C1671 C 0.08527 0.81029 0.76464 0.0
C1672 C 0.02698 0.83078 0.76947 0.0
C1673 C 0.00507 0.84904 0.77802 0.0
C1674 C 0.99483 0.83366 0.79052 0.0
C1675 C 0.97377 0.85066 0.79848 0.0
C1676 C 0.9625 0.88284 0.79404 0.0
C1677 C 0.97221 0.89805 0.78161 0.0
C1678 C 0.99332 0.88122 0.77362 0.0
C1679 C 0.96557 0.7017 0.72563 0.0
C1680 C 0.98648 0.72646 0.71462 0.0
C1681 C 0.97315 0.72432 0.73711 0.0
C1682 C 1.0015 0.77199 0.73771 0.0
C1683 C 0.0178 0.79729 0.72657 0.0
C1684 C 0.01036 0.77465 0.71507 0.0
C1685 C 0.02429 0.79284 0.7497 0.0
C1686 C 0.00589 0.81212 0.75784 0.0
C1687 C 0.06411 0.79169 0.75317 0.0
C1688 C 0.08395 0.77082 0.74488 0.0
C1689 C 0.11097 0.79524 0.73452 0.0
C1690 C 0.12731 0.77438 0.72627 0.0
C1691 C 0.11702 0.72922 0.72835 0.0
C1692 C 0.09051 0.70492 0.73871 0.0
C1693 C 0.07402 0.72562 0.74698 0.0
H1694 H 0.12956 0.71308 0.72192 0.0
H1695 H 0.94614 0.8959 0.80021 0.0
H1696 H 0.24439 0.93404 0.88578 0.0
H1697 H 0.21178 0.94154 0.90563 0.0
H1698 H 0.22804 0.07064 0.89277 0.0
H1699 H 0.25749 0.06113 0.87276 0.0
H1700 H 0.25388 0.99647 0.92211 0.0
H1701 H 0.17127 0.10889 0.9077 0.0
H1702 H 0.1162 0.10598 0.89195 0.0
H1703 H 0.06234 0.96132 0.88733 0.0
H1704 H 0.11672 0.96314 0.90312 0.0
H1705 H 0.3204 0.17824 0.96204 0.0
H1706 H 0.29977 0.1204 0.94591 0.0
H1707 H 0.15622 0.07322 0.95214 0.0
H1708 H 0.17686 0.1341 0.96752 0.0
H1709 H 0.16675 0.07735 0.92917 0.0
H1710 H 0.20756 0.00472 0.95943 0.0
H1711 H 0.25089 0.99454 0.97658 0.0
H1712 H 0.36595 0.03529 0.95198 0.0
H1713 H 0.32365 0.04642 0.93473 0.0
C1714 C 0.2391 0.96295 0.88711 0.0
C1715 C 0.25307 0.99694 0.87784 0.0
C1716 C 0.22079 0.96744 0.89844 0.0
C1717 C 0.21727 0.00667 0.9008 0.0
C1718 C 0.229 0.03937 0.89118 0.0
C1719 C 0.24612 0.03418 0.87973 0.0
C1720 C 0.20878 0.01738 0.91375 0.0
C1721 C 0.23415 0.01345 0.92368 0.0
C1722 C 0.18126 0.03746 0.9161 0.0
C1723 C 0.14828 0.03623 0.9066 0.0
C1724 C 0.1475 0.07637 0.9034 0.0
C1725 C 0.11647 0.07493 0.89442 0.0
C1726 C 0.08586 0.0335 0.88862 0.0
C1727 C 0.0862 0.99341 0.89178 0.0
C1728 C 0.1172 0.99465 0.90073 0.0
C1729 C 0.28439 0.15567 0.96001 0.0
C1730 C 0.25045 0.16141 0.96604 0.0
C1731 C 0.2725 0.12183 0.95091 0.0
C1732 C 0.22628 0.09172 0.94787 0.0
C1733 C 0.19212 0.09588 0.9543 0.0
C1734 C 0.20405 0.13048 0.96324 0.0
C1735 C 0.21455 0.05935 0.93716 0.0
C1736 C 0.18529 0.0591 0.92769 0.0
C1737 C 0.23651 0.03321 0.93545 0.0
C1738 C 0.26235 0.02647 0.94577 0.0
C1739 C 0.24219 0.01175 0.95768 0.0
C1740 C 0.26658 0.00579 0.96743 0.0
C1741 C 0.31114 0.01427 0.96537 0.0
C1742 C 0.33139 0.02867 0.95356 0.0
C1743 C 0.30717 0.0347 0.94378 0.0
H1744 H 0.32998 0.00966 0.97293 0.0
H1745 H 0.06185 0.03246 0.88168 0.0
H1746 H 0.18523 0.24065 0.03427 0.0
H1747 H 0.14329 0.21521 0.05398 0.0
H1748 H 0.27077 0.26588 0.07415 0.0
H1749 H 0.31277 0.2885 0.05442 0.0
H1750 H 0.20689 0.19524 0.08613 0.0
H1751 H 0.22138 0.33369 0.06826 0.0
H1752 H 0.21225 0.37999 0.05176 0.0
H1753 H 0.06601 0.29228 0.05303 0.0
H1754 H 0.07435 0.24499 0.0694 0.0
H1755 H 0.16312 0.30741 0.13913 0.0
H1756 H 0.19211 0.28897 0.12011 0.0
H1757 H 0.05451 0.18462 0.11047 0.0
H1758 H 0.02553 0.20199 0.12956 0.0
H1759 H 0.11449 0.27087 0.09309 0.0
H1760 H 0.10399 0.13857 0.11376 0.0
H1761 H 0.11843 0.09754 0.13073 0.0
H1762 H 0.26364 0.18191 0.12512 0.0
H1763 H 0.25006 0.22389 0.10822 0.0
C1764 C 0.20443 0.24513 0.0428 0.0
C1765 C 0.25269 0.26801 0.04275 0.0
C1766 C 0.18029 0.23084 0.05412 0.0
C1767 C 0.20399 0.24006 0.06558 0.0
C1768 C 0.25172 0.25894 0.06545 0.0
C1769 C 0.27578 0.27247 0.05414 0.0
C1770 C 0.18021 0.23535 0.07768 0.0
C1771 C 0.18667 0.21175 0.08765 0.0
C1772 C 0.15362 0.25675 0.07967 0.0
C1773 C 0.14852 0.28549 0.06994 0.0
C1774 C 0.1873 0.32412 0.06496 0.0
C1775 C 0.18227 0.35054 0.05564 0.0
C1776 C 0.13859 0.33901 0.05133 0.0
C1777 C 0.09983 0.30111 0.05636 0.0
C1778 C 0.10468 0.27447 0.06566 0.0
C1779 C 0.13939 0.27962 0.13313 0.0
C1780 C 0.09223 0.25591 0.13581 0.0
C1781 C 0.1559 0.26906 0.12233 0.0
C1782 C 0.12536 0.23526 0.11401 0.0
C1783 C 0.07854 0.21037 0.11691 0.0
C1784 C 0.06214 0.22024 0.12781 0.0
C1785 C 0.1414 0.23101 0.10146 0.0
C1786 C 0.13386 0.25349 0.09146 0.0
C1787 C 0.16768 0.20946 0.09956 0.0
C1788 C 0.17599 0.18475 0.10983 0.0
C1789 C 0.13901 0.14878 0.11625 0.0
C1790 C 0.14704 0.12523 0.12583 0.0
C1791 C 0.19193 0.13721 0.12903 0.0
C1792 C 0.22888 0.17271 0.12264 0.0
C1793 C 0.22104 0.19637 0.11306 0.0
H1794 H 0.19807 0.1189 0.13644 0.0
H1795 H 0.13475 0.35951 0.04412 0.0
H1796 H 0.97542 0.19435 0.20324 0.0
H1797 H 0.96124 0.14738 0.22197 0.0
H1798 H 0.01521 0.26858 0.24512 0.0
H1799 H 0.03238 0.31588 0.22644 0.0
H1800 H 0.02786 0.20778 0.2567 0.0
H1801 H 0.90017 0.20821 0.23565 0.0
H1802 H 0.84943 0.19604 0.21756 0.0
H1803 H 0.8108 0.0537 0.2165 0.0
H1804 H 0.86191 0.06525 0.23447 0.0
H1805 H 0.85864 0.15612 0.30481 0.0
H1806 H 0.91201 0.18431 0.28697 0.0
H1807 H 0.87743 0.04572 0.27811 0.0
H1808 H 0.82503 0.01753 0.29611 0.0
H1809 H 0.85999 0.10058 0.25891 0.0
H1810 H 0.97717 0.10346 0.28487 0.0
H1811 H 0.02627 0.12229 0.30363 0.0
H1812 H 0.08164 0.26599 0.29657 0.0
H1813 H 0.03232 0.24805 0.27786 0.0
C1814 C 0.98594 0.21126 0.21225 0.0
C1815 C 0.00353 0.25881 0.21337 0.0
C1816 C 0.9775 0.18426 0.22299 0.0
C1817 C 0.98555 0.20428 0.23498 0.0
C1818 C 0.00802 0.25219 0.236 0.0
C1819 C 0.01723 0.27919 0.22529 0.0
C1820 C 0.96432 0.17602 0.24635 0.0
C1821 C 0.9912 0.18415 0.25718 0.0
C1822 C 0.91646 0.14485 0.24696 0.0
C1823 C 0.88525 0.1377 0.23628 0.0
C1824 C 0.88101 0.17438 0.23151 0.0
C1825 C 0.85222 0.16761 0.22128 0.0
C1826 C 0.82701 0.12416 0.21586 0.0
C1827 C 0.83044 0.08736 0.22068 0.0
C1828 C 0.85933 0.094 0.23088 0.0
C1829 C 0.86352 0.13195 0.29925 0.0
C1830 C 0.83802 0.08479 0.30181 0.0
C1831 C 0.89402 0.148 0.28913 0.0
C1832 C 0.89872 0.11702 0.28132 0.0
C1833 C 0.87456 0.07009 0.28414 0.0
C1834 C 0.8448 0.05412 0.29441 0.0
C1835 C 0.92338 0.13315 0.26927 0.0
C1836 C 0.89689 0.12301 0.25834 0.0
C1837 C 0.97123 0.16336 0.26869 0.0
C1838 C 1.00072 0.17435 0.28 0.0
C1839 C 0.99944 0.13907 0.28738 0.0
C1840 C 0.02741 0.14959 0.29799 0.0
C1841 C 0.05699 0.1953 0.3013 0.0
C1842 C 0.05869 0.23059 0.294 0.0
C1843 C 0.03077 0.22026 0.28338 0.0
H1844 H 0.07866 0.20338 0.30952 0.0
H1845 H 0.80474 0.11898 0.20794 0.0
H1846 H 0.77044 0.97387 0.36945 0.0
H1847 H 0.79847 0.95493 0.38827 0.0
H1848 H 0.73865 0.01703 0.4112 0.0
H1849 H 0.71323 0.03902 0.39239 0.0
H1850 H 0.81096 0.02534 0.42265 0.0
H1851 H 0.67819 0.90171 0.40265 0.0
H1852 H 0.63467 0.85024 0.38514 0.0
H1853 H 0.73066 0.80162 0.38341 0.0
H1854 H 0.7752 0.85341 0.40078 0.0
H1855 H 0.70785 0.84928 0.47179 0.0
H1856 H 0.72265 0.90213 0.45418 0.0
H1857 H 0.83468 0.88392 0.44205 0.0
H1858 H 0.82092 0.8322 0.4598 0.0
H1859 H 0.74723 0.85703 0.42507 0.0
H1860 H 0.87297 0.97702 0.44822 0.0
H1861 H 0.90982 0.02743 0.46644 0.0
H1862 H 0.8175 0.08019 0.46333 0.0
H1863 H 0.77954 0.02947 0.44522 0.0
C1864 C 0.76439 0.98495 0.37841 0.0
C1865 C 0.73803 0.0067 0.37936 0.0
C1866 C 0.78023 0.97369 0.38922 0.0
C1867 C 0.76917 0.98302 0.40117 0.0
C1868 C 0.74698 0.00877 0.4021 0.0
C1869 C 0.73188 0.02078 0.3913 0.0
C1870 C 0.77536 0.96132 0.41258 0.0
C1871 C 0.79702 0.98855 0.42318 0.0
C1872 C 0.75727 0.91325 0.41329 0.0
C1873 C 0.73032 0.88182 0.40291 0.0
C1874 C 0.69018 0.88026 0.39848 0.0
C1875 C 0.66533 0.85103 0.38858 0.0
C1876 C 0.67996 0.82277 0.38315 0.0
C1877 C 0.71943 0.82361 0.38761 0.0
C1878 C 0.7445 0.8529 0.39748 0.0
C1879 C 0.73645 0.85771 0.46557 0.0
C1880 C 0.76342 0.83699 0.46716 0.0
C1881 C 0.74494 0.88789 0.45557 0.0
C1882 C 0.77997 0.89705 0.44693 0.0
C1883 C 0.80794 0.87767 0.44875 0.0
C1884 C 0.8001 0.8483 0.45888 0.0
C1885 C 0.78263 0.921 0.43507 0.0
C1886 C 0.76205 0.89395 0.42443 0.0
C1887 C 0.80067 0.9689 0.43446 0.0
C1888 C 0.82301 0.99897 0.44546 0.0
C1889 C 0.86008 0.99888 0.45153 0.0
C1890 C 0.8813 0.02765 0.46181 0.0
C1891 C 0.86592 0.05689 0.46607 0.0
C1892 C 0.82933 0.05746 0.46004 0.0
C1893 C 0.80796 0.02872 0.44976 0.0
H1894 H 0.88245 0.07921 0.47401 0.0
H1895 H 0.66064 0.80011 0.3755 0.0
loop_
_geom_bond_atom_site_label_1
_geom_bond_atom_site_label_2
_geom_bond_distance
_geom_bond_site_symmetry_2
_ccdc_geom_bond_type
C0 C1 1.351 . S
C0 N3 1.368 . S
C0 H5 0.931 . S
C1 C0 1.351 . S
C1 N2 1.373 . S
C1 H29 0.930 . S
N2 C1 1.373 . S
N2 C4 1.340 . S
N3 C0 1.368 . S
N3 C4 1.321 . S
N3 Co6 2.135 . S
C4 N2 1.340 . S
C4 N3 1.321 . S
C4 H28 0.930 . S
H5 C0 0.931 . S
Co6 N3 2.135 . S
Co6 N9 2.121 . S
Co6 O14 2.055 . S
Co6 O17 2.039 . S
Co6 N20 2.140 . S
C7 O8 1.227 . S
C7 O17 1.265 . S
O8 C7 1.227 . S
N9 Co6 2.121 . S
N9 C11 1.375 . S
N9 C12 1.313 . S
C10 C11 1.338 . S
C10 N13 1.377 . S
C10 H30 0.930 . S
C11 N9 1.375 . S
C11 C10 1.338 . S
C11 H15 0.931 . S
C12 N9 1.313 . S
C12 N13 1.344 . S
C12 H16 0.930 . S
N13 C10 1.377 . S
N13 C12 1.344 . S
O14 Co6 2.055 . S
O14 C18 1.253 . S
H15 C11 0.931 . S
H16 C12 0.930 . S
O17 Co6 2.039 . S
O17 C7 1.265 . S
C18 O14 1.253 . S
C18 O19 1.227 . S
O19 C18 1.227 . S
N20 Co6 2.140 . S
N20 C23 1.346 . S
N20 C24 1.345 . S
C21 C22 1.387 . S
C21 C25 1.391 . S
C22 C21 1.387 . S
C22 C23 1.369 . S
C22 H31 0.929 . S
C23 N20 1.346 . S
C23 C22 1.369 . S
C23 H26 0.928 . S
C24 N20 1.345 . S
C24 C25 1.371 . S
C24 H27 0.931 . S
C25 C21 1.391 . S
C25 C24 1.371 . S
C25 H32 0.930 . S
H26 C23 0.928 . S
H27 C24 0.931 . S
H28 C4 0.930 . S
H29 C1 0.930 . S
H30 C10 0.930 . S
H31 C22 0.929 . S
H32 C25 0.930 . S
C33 C34 1.351 . S
C33 N36 1.368 . S
C33 H38 0.931 . S
C34 C33 1.351 . S
C34 N35 1.373 . S
C34 H62 0.930 . S
N35 C34 1.373 . S
N35 C37 1.340 . S
N36 C33 1.368 . S
N36 C37 1.321 . S
N36 Co39 2.135 . S
C37 N35 1.340 . S
C37 N36 1.321 . S
C37 H61 0.930 1_455 S
H38 C33 0.931 . S
Co39 N36 2.135 . S
Co39 N42 2.121 . S
Co39 O47 2.055 . S
Co39 O50 2.039 1_455 S
Co39 N53 2.140 1_455 S
C40 O41 1.227 . S
C40 O50 1.265 . S
O41 C40 1.227 . S
N42 Co39 2.121 . S
N42 C44 1.375 1_455 S
N42 C45 1.313 . S
C43 C44 1.338 . S
C43 N46 1.377 1_655 S
C43 H63 0.930 . S
C44 N42 1.375 1_655 S
C44 C43 1.338 . S
C44 H48 0.931 . S
C45 N42 1.313 . S
C45 N46 1.344 . S
C45 H49 0.930 . S
N46 C43 1.377 1_455 S
N46 C45 1.344 . S
O47 Co39 2.055 . S
O47 C51 1.253 . S
H48 C44 0.931 . S
H49 C45 0.930 . S
O50 Co39 2.039 1_655 S
O50 C40 1.265 . S
C51 O47 1.253 . S
C51 O52 1.227 . S
O52 C51 1.227 . S
N53 Co39 2.140 1_655 S
N53 C56 1.346 . S
N53 C57 1.345 . S
C54 C55 1.387 . S
C54 C58 1.391 . S
C55 C54 1.387 . S
C55 C56 1.369 . S
C55 H64 0.929 . S
C56 N53 1.346 . S
C56 C55 1.369 . S
C56 H59 0.928 . S
C57 N53 1.345 . S
C57 C58 1.371 . S
C57 H60 0.931 1_655 S
C58 C54 1.391 . S
C58 C57 1.371 . S
C58 H65 0.930 . S
H59 C56 0.928 . S
H60 C57 0.931 1_455 S
H61 C37 0.930 1_655 S
H62 C34 0.930 . S
H63 C43 0.930 . S
H64 C55 0.929 . S
H65 C58 0.930 . S
C66 C67 1.351 . S
C66 N69 1.368 . S
C66 H71 0.931 . S
C67 C66 1.351 . S
C67 N68 1.373 . S
C67 H95 0.930 . S
N68 C67 1.373 . S
N68 C70 1.340 . S
N69 C66 1.368 . S
N69 C70 1.321 . S
N69 Co72 2.135 . S
C70 N68 1.340 . S
C70 N69 1.321 . S
C70 H94 0.930 1_545 S
H71 C66 0.931 . S
Co72 N69 2.135 . S
Co72 N75 2.121 . S
Co72 O80 2.055 . S
Co72 O83 2.039 1_545 S
Co72 N86 2.140 1_545 S
C73 O74 1.227 . S
C73 O83 1.265 . S
O74 C73 1.227 . S
N75 Co72 2.121 . S
N75 C77 1.375 1_545 S
N75 C78 1.313 . S
C76 C77 1.338 . S
C76 N79 1.377 1_565 S
C76 H96 0.930 . S
C77 N75 1.375 1_565 S
C77 C76 1.338 . S
C77 H81 0.931 . S
C78 N75 1.313 . S
C78 N79 1.344 . S
C78 H82 0.930 . S
N79 C76 1.377 1_545 S
N79 C78 1.344 . S
O80 Co72 2.055 . S
O80 C84 1.253 . S
H81 C77 0.931 . S
H82 C78 0.930 . S
O83 Co72 2.039 1_565 S
O83 C73 1.265 . S
C84 O80 1.253 . S
C84 O85 1.227 . S
O85 C84 1.227 . S
N86 Co72 2.140 1_565 S
N86 C89 1.346 . S
N86 C90 1.345 . S
C87 C88 1.387 . S
C87 C91 1.391 . S
C88 C87 1.387 . S
C88 C89 1.369 . S
C88 H97 0.929 . S
C89 N86 1.346 . S
C89 C88 1.369 . S
C89 H92 0.928 . S
C90 N86 1.345 . S
C90 C91 1.371 . S
C90 H93 0.931 1_565 S
C91 C87 1.391 . S
C91 C90 1.371 . S
C91 H98 0.930 . S
H92 C89 0.928 . S
H93 C90 0.931 1_545 S
H94 C70 0.930 1_565 S
H95 C67 0.930 . S
H96 C76 0.930 . S
H97 C88 0.929 . S
H98 C91 0.930 . S
C99 C100 1.351 . S
C99 N102 1.368 . S
C99 H104 0.931 . S
C100 C99 1.351 . S
C100 N101 1.373 . S
C100 H128 0.930 . S
N101 C100 1.373 . S
N101 C103 1.340 . S
N102 C99 1.368 . S
N102 C103 1.321 . S
N102 Co105 2.135 . S
C103 N101 1.340 . S
C103 N102 1.321 . S
C103 H127 0.930 . S
H104 C99 0.931 . S
Co105 N102 2.135 . S
Co105 N108 2.121 . S
Co105 O113 2.055 . S
Co105 O116 2.039 . S
Co105 N119 2.140 . S
C106 O107 1.227 . S
C106 O116 1.265 . S
O107 C106 1.227 . S
N108 Co105 2.121 . S
N108 C110 1.375 . S
N108 C111 1.313 . S
C109 C110 1.338 . S
C109 N112 1.377 . S
C109 H129 0.930 . S
C110 N108 1.375 . S
C110 C109 1.338 . S
C110 H114 0.931 . S
C111 N108 1.313 . S
C111 N112 1.344 . S
C111 H115 0.930 . S
N112 C109 1.377 . S
N112 C111 1.344 . S
O113 Co105 2.055 . S
O113 C117 1.253 . S
H114 C110 0.931 . S
H115 C111 0.930 . S
O116 Co105 2.039 . S
O116 C106 1.265 . S
C117 O113 1.253 . S
C117 O118 1.227 . S
O118 C117 1.227 . S
N119 Co105 2.140 . S
N119 C122 1.346 . S
N119 C123 1.345 . S
C120 C121 1.387 . S
C120 C124 1.391 . S
C121 C120 1.387 . S
C121 C122 1.369 . S
C121 H130 0.929 . S
C122 N119 1.346 . S
C122 C121 1.369 . S
C122 H125 0.928 . S
C123 N119 1.345 . S
C123 C124 1.371 . S
C123 H126 0.931 . S
C124 C120 1.391 . S
C124 C123 1.371 . S
C124 H131 0.930 . S
H125 C122 0.928 . S
H126 C123 0.931 . S
H127 C103 0.930 . S
H128 C100 0.930 . S
H129 C109 0.930 . S
H130 C121 0.929 . S
H131 C124 0.930 . S
C132 C133 1.351 . S
C132 N135 1.368 . S
C132 H137 0.931 . S
C133 C132 1.351 . S
C133 N134 1.373 . S
C133 H161 0.930 . S
N134 C133 1.373 . S
N134 C136 1.340 . S
N135 C132 1.368 . S
N135 C136 1.321 . S
N135 Co138 2.135 . S
C136 N134 1.340 . S
C136 N135 1.321 . S
C136 H160 0.930 1_655 S
H137 C132 0.931 . S
Co138 N135 2.135 . S
Co138 N141 2.121 1_554 S
Co138 O146 2.055 . S
Co138 O149 2.039 1_655 S
Co138 N152 2.140 1_655 S
C139 O140 1.227 . S
C139 O149 1.265 . S
O140 C139 1.227 . S
N141 Co138 2.121 1_556 S
N141 C143 1.375 1_655 S
N141 C144 1.313 . S
C142 C143 1.338 . S
C142 N145 1.377 1_455 S
C142 H162 0.930 . S
C143 N141 1.375 1_455 S
C143 C142 1.338 . S
C143 H147 0.931 . S
C144 N141 1.313 . S
C144 N145 1.344 . S
C144 H148 0.930 . S
N145 C142 1.377 1_655 S
N145 C144 1.344 . S
O146 Co138 2.055 . S
O146 C150 1.253 . S
H147 C143 0.931 . S
H148 C144 0.930 . S
O149 Co138 2.039 1_455 S
O149 C139 1.265 . S
C150 O146 1.253 . S
C150 O151 1.227 . S
O151 C150 1.227 . S
N152 Co138 2.140 1_455 S
N152 C155 1.346 . S
N152 C156 1.345 . S
C153 C154 1.387 . S
C153 C157 1.391 . S
C154 C153 1.387 . S
C154 C155 1.369 . S
C154 H163 0.929 . S
C155 N152 1.346 . S
C155 C154 1.369 . S
C155 H158 0.928 . S
C156 N152 1.345 . S
C156 C157 1.371 . S
C156 H159 0.931 1_455 S
C157 C153 1.391 . S
C157 C156 1.371 . S
C157 H164 0.930 . S
H158 C155 0.928 . S
H159 C156 0.931 1_655 S
H160 C136 0.930 1_455 S
H161 C133 0.930 . S
H162 C142 0.930 . S
H163 C154 0.929 . S
H164 C157 0.930 . S
C165 C166 1.351 . S
C165 N168 1.368 . S
C165 H170 0.931 . S
C166 C165 1.351 . S
C166 N167 1.373 . S
C166 H194 0.930 . S
N167 C166 1.373 . S
N167 C169 1.340 . S
N168 C165 1.368 . S
N168 C169 1.321 . S
N168 Co171 2.135 . S
C169 N167 1.340 . S
C169 N168 1.321 . S
C169 H193 0.930 1_565 S
H170 C165 0.931 . S
Co171 N168 2.135 . S
Co171 N174 2.121 . S
Co171 O179 2.055 . S
Co171 O182 2.039 1_565 S
Co171 N185 2.140 1_565 S
C172 O173 1.227 . S
C172 O182 1.265 . S
O173 C172 1.227 . S
N174 Co171 2.121 . S
N174 C176 1.375 1_565 S
N174 C177 1.313 . S
C175 C176 1.338 . S
C175 N178 1.377 1_545 S
C175 H195 0.930 . S
C176 N174 1.375 1_545 S
C176 C175 1.338 . S
C176 H180 0.931 . S
C177 N174 1.313 . S
C177 N178 1.344 . S
C177 H181 0.930 . S
N178 C175 1.377 1_565 S
N178 C177 1.344 . S
O179 Co171 2.055 . S
O179 C183 1.253 . S
H180 C176 0.931 . S
H181 C177 0.930 . S
O182 Co171 2.039 1_545 S
O182 C172 1.265 . S
C183 O179 1.253 . S
C183 O184 1.227 . S
O184 C183 1.227 . S
N185 Co171 2.140 1_545 S
N185 C188 1.346 . S
N185 C189 1.345 . S
C186 C187 1.387 . S
C186 C190 1.391 . S
C187 C186 1.387 . S
C187 C188 1.369 . S
C187 H196 0.929 . S
C188 N185 1.346 . S
C188 C187 1.369 . S
C188 H191 0.928 . S
C189 N185 1.345 . S
C189 C190 1.371 . S
C189 H192 0.931 1_545 S
C190 C186 1.391 . S
C190 C189 1.371 . S
C190 H197 0.930 . S
H191 C188 0.928 . S
H192 C189 0.931 1_565 S
H193 C169 0.930 1_545 S
H194 C166 0.930 . S
H195 C175 0.930 . S
H196 C187 0.929 . S
H197 C190 0.930 . S
C198 C199 1.351 . S
C198 N201 1.368 . S
C198 H203 0.931 . S
C199 C198 1.351 . S
C199 N200 1.373 . S
C199 H227 0.930 . S
N200 C199 1.373 . S
N200 C202 1.340 . S
N201 C198 1.368 . S
N201 C202 1.321 . S
N201 Co204 2.135 . S
C202 N200 1.340 . S
C202 N201 1.321 . S
C202 H226 0.930 . S
H203 C198 0.931 . S
Co204 N201 2.135 . S
Co204 N207 2.121 . S
Co204 O212 2.055 . S
Co204 O215 2.039 . S
Co204 N218 2.140 . S
C205 O206 1.227 . S
C205 O215 1.265 . S
O206 C205 1.227 . S
N207 Co204 2.121 . S
N207 C209 1.375 . S
N207 C210 1.313 . S
C208 C209 1.338 . S
C208 N211 1.377 . S
C208 H228 0.930 . S
C209 N207 1.375 . S
C209 C208 1.338 . S
C209 H213 0.931 . S
C210 N207 1.313 . S
C210 N211 1.344 . S
C210 H214 0.930 . S
N211 C208 1.377 . S
N211 C210 1.344 . S
O212 Co204 2.055 . S
O212 C216 1.253 . S
H213 C209 0.931 . S
H214 C210 0.930 . S
O215 Co204 2.039 . S
O215 C205 1.265 . S
C216 O212 1.253 . S
C216 O217 1.227 . S
O217 C216 1.227 . S
N218 Co204 2.140 . S
N218 C221 1.346 . S
N218 C222 1.345 . S
C219 C220 1.387 . S
C219 C223 1.391 . S
C220 C219 1.387 . S
C220 C221 1.369 . S
C220 H229 0.929 . S
C221 N218 1.346 . S
C221 C220 1.369 . S
C221 H224 0.928 . S
C222 N218 1.345 . S
C222 C223 1.371 . S
C222 H225 0.931 . S
C223 C219 1.391 . S
C223 C222 1.371 . S
C223 H230 0.930 . S
H224 C221 0.928 . S
H225 C222 0.931 . S
H226 C202 0.930 . S
H227 C199 0.930 . S
H228 C208 0.930 . S
H229 C220 0.929 . S
H230 C223 0.930 . S
C231 C232 1.351 . S
C231 N234 1.368 . S
C231 H236 0.931 . S
C232 C231 1.351 . S
C232 N233 1.373 . S
C232 H260 0.930 . S
N233 C232 1.373 . S
N233 C235 1.340 . S
N234 C231 1.368 . S
N234 C235 1.321 . S
N234 Co237 2.135 . S
C235 N233 1.340 . S
C235 N234 1.321 . S
C235 H259 0.930 1_455 S
H236 C231 0.931 . S
Co237 N234 2.135 . S
Co237 N240 2.121 . S
Co237 O245 2.055 . S
Co237 O248 2.039 1_455 S
Co237 N251 2.140 1_455 S
C238 O239 1.227 . S
C238 O248 1.265 . S
O239 C238 1.227 . S
N240 Co237 2.121 . S
N240 C242 1.375 1_455 S
N240 C243 1.313 . S
C241 C242 1.338 . S
C241 N244 1.377 1_655 S
C241 H261 0.930 . S
C242 N240 1.375 1_655 S
C242 C241 1.338 . S
C242 H246 0.931 . S
C243 N240 1.313 . S
C243 N244 1.344 . S
C243 H247 0.930 . S
N244 C241 1.377 1_455 S
N244 C243 1.344 . S
O245 Co237 2.055 . S
O245 C249 1.253 . S
H246 C242 0.931 . S
H247 C243 0.930 . S
O248 Co237 2.039 1_655 S
O248 C238 1.265 . S
C249 O245 1.253 . S
C249 O250 1.227 . S
O250 C249 1.227 . S
N251 Co237 2.140 1_655 S
N251 C254 1.346 . S
N251 C255 1.345 . S
C252 C253 1.387 . S
C252 C256 1.391 . S
C253 C252 1.387 . S
C253 C254 1.369 . S
C253 H262 0.929 . S
C254 N251 1.346 . S
C254 C253 1.369 . S
C254 H257 0.928 . S
C255 N251 1.345 . S
C255 C256 1.371 . S
C255 H258 0.931 1_655 S
C256 C252 1.391 . S
C256 C255 1.371 . S
C256 H263 0.930 . S
H257 C254 0.928 . S
H258 C255 0.931 1_455 S
H259 C235 0.930 1_655 S
H260 C232 0.930 . S
H261 C241 0.930 . S
H262 C253 0.929 . S
H263 C256 0.930 . S
C264 C265 1.351 . S
C264 N267 1.368 . S
C264 H269 0.931 . S
C265 C264 1.351 . S
C265 N266 1.373 . S
C265 H293 0.930 . S
N266 C265 1.373 . S
N266 C268 1.340 . S
N267 C264 1.368 . S
N267 C268 1.321 . S
N267 Co270 2.135 . S
C268 N266 1.340 . S
C268 N267 1.321 . S
C268 H292 0.930 1_545 S
H269 C264 0.931 . S
Co270 N267 2.135 . S
Co270 N273 2.121 . S
Co270 O278 2.055 . S
Co270 O281 2.039 1_545 S
Co270 N284 2.140 1_545 S
C271 O272 1.227 . S
C271 O281 1.265 . S
O272 C271 1.227 . S
N273 Co270 2.121 . S
N273 C275 1.375 1_545 S
N273 C276 1.313 . S
C274 C275 1.338 . S
C274 N277 1.377 1_565 S
C274 H294 0.930 . S
C275 N273 1.375 1_565 S
C275 C274 1.338 . S
C275 H279 0.931 . S
C276 N273 1.313 . S
C276 N277 1.344 . S
C276 H280 0.930 . S
N277 C274 1.377 1_545 S
N277 C276 1.344 . S
O278 Co270 2.055 . S
O278 C282 1.253 . S
H279 C275 0.931 . S
H280 C276 0.930 . S
O281 Co270 2.039 1_565 S
O281 C271 1.265 . S
C282 O278 1.253 . S
C282 O283 1.227 . S
O283 C282 1.227 . S
N284 Co270 2.140 1_565 S
N284 C287 1.346 . S
N284 C288 1.345 . S
C285 C286 1.387 . S
C285 C289 1.391 . S
C286 C285 1.387 . S
C286 C287 1.369 . S
C286 H295 0.929 . S
C287 N284 1.346 . S
C287 C286 1.369 . S
C287 H290 0.928 . S
C288 N284 1.345 . S
C288 C289 1.371 . S
C288 H291 0.931 1_565 S
C289 C285 1.391 . S
C289 C288 1.371 . S
C289 H296 0.930 . S
H290 C287 0.928 . S
H291 C288 0.931 1_545 S
H292 C268 0.930 1_565 S
H293 C265 0.930 . S
H294 C274 0.930 . S
H295 C286 0.929 . S
H296 C289 0.930 . S
C297 C298 1.351 . S
C297 N300 1.368 . S
C297 H302 0.931 . S
C298 C297 1.351 . S
C298 N299 1.373 . S
C298 H326 0.930 . S
N299 C298 1.373 . S
N299 C301 1.340 . S
N300 C297 1.368 . S
N300 C301 1.321 . S
N300 Co303 2.135 . S
C301 N299 1.340 . S
C301 N300 1.321 . S
C301 H325 0.930 . S
H302 C297 0.931 . S
Co303 N300 2.135 . S
Co303 N306 2.121 1_556 S
Co303 O311 2.055 . S
Co303 O314 2.039 . S
Co303 N317 2.140 . S
C304 O305 1.227 . S
C304 O314 1.265 . S
O305 C304 1.227 . S
N306 Co303 2.121 1_554 S
N306 C308 1.375 . S
N306 C309 1.313 . S
C307 C308 1.338 . S
C307 N310 1.377 . S
C307 H327 0.930 . S
C308 N306 1.375 . S
C308 C307 1.338 . S
C308 H312 0.931 . S
C309 N306 1.313 . S
C309 N310 1.344 . S
C309 H313 0.930 . S
N310 C307 1.377 . S
N310 C309 1.344 . S
O311 Co303 2.055 . S
O311 C315 1.253 . S
H312 C308 0.931 . S
H313 C309 0.930 . S
O314 Co303 2.039 . S
O314 C304 1.265 . S
C315 O311 1.253 . S
C315 O316 1.227 . S
O316 C315 1.227 . S
N317 Co303 2.140 . S
N317 C320 1.346 . S
N317 C321 1.345 . S
C318 C319 1.387 . S
C318 C322 1.391 . S
C319 C318 1.387 . S
C319 C320 1.369 . S
C319 H328 0.929 . S
C320 N317 1.346 . S
C320 C319 1.369 . S
C320 H323 0.928 . S
C321 N317 1.345 . S
C321 C322 1.371 . S
C321 H324 0.931 . S
C322 C318 1.391 . S
C322 C321 1.371 . S
C322 H329 0.930 . S
H323 C320 0.928 . S
H324 C321 0.931 . S
H325 C301 0.930 . S
H326 C298 0.930 . S
H327 C307 0.930 . S
H328 C319 0.929 . S
H329 C322 0.930 . S
C330 C331 1.351 . S
C330 N333 1.368 . S
C330 H335 0.931 . S
C331 C330 1.351 . S
C331 N332 1.373 . S
C331 H359 0.930 . S
N332 C331 1.373 . S
N332 C334 1.340 . S
N333 C330 1.368 . S
N333 C334 1.321 . S
N333 Co336 2.135 . S
C334 N332 1.340 . S
C334 N333 1.321 . S
C334 H358 0.930 1_655 S
H335 C330 0.931 . S
Co336 N333 2.135 . S
Co336 N339 2.121 . S
Co336 O344 2.055 . S
Co336 O347 2.039 1_655 S
Co336 N350 2.140 1_655 S
C337 O338 1.227 . S
C337 O347 1.265 . S
O338 C337 1.227 . S
N339 Co336 2.121 . S
N339 C341 1.375 1_655 S
N339 C342 1.313 . S
C340 C341 1.338 . S
C340 N343 1.377 1_455 S
C340 H360 0.930 . S
C341 N339 1.375 1_455 S
C341 C340 1.338 . S
C341 H345 0.931 . S
C342 N339 1.313 . S
C342 N343 1.344 . S
C342 H346 0.930 . S
N343 C340 1.377 1_655 S
N343 C342 1.344 . S
O344 Co336 2.055 . S
O344 C348 1.253 . S
H345 C341 0.931 . S
H346 C342 0.930 . S
O347 Co336 2.039 1_455 S
O347 C337 1.265 . S
C348 O344 1.253 . S
C348 O349 1.227 . S
O349 C348 1.227 . S
N350 Co336 2.140 1_455 S
N350 C353 1.346 . S
N350 C354 1.345 . S
C351 C352 1.387 . S
C351 C355 1.391 . S
C352 C351 1.387 . S
C352 C353 1.369 . S
C352 H361 0.929 . S
C353 N350 1.346 . S
C353 C352 1.369 . S
C353 H356 0.928 . S
C354 N350 1.345 . S
C354 C355 1.371 . S
C354 H357 0.931 1_455 S
C355 C351 1.391 . S
C355 C354 1.371 . S
C355 H362 0.930 . S
H356 C353 0.928 . S
H357 C354 0.931 1_655 S
H358 C334 0.930 1_455 S
H359 C331 0.930 . S
H360 C340 0.930 . S
H361 C352 0.929 . S
H362 C355 0.930 . S
C363 C364 1.351 . S
C363 N366 1.368 . S
C363 H368 0.931 . S
C364 C363 1.351 . S
C364 N365 1.373 . S
C364 H392 0.930 . S
N365 C364 1.373 . S
N365 C367 1.340 . S
N366 C363 1.368 . S
N366 C367 1.321 . S
N366 Co369 2.135 . S
C367 N365 1.340 . S
C367 N366 1.321 . S
C367 H391 0.930 1_565 S
H368 C363 0.931 . S
Co369 N366 2.135 . S
Co369 N372 2.121 . S
Co369 O377 2.055 . S
Co369 O380 2.039 1_565 S
Co369 N383 2.140 1_565 S
C370 O371 1.227 . S
C370 O380 1.265 . S
O371 C370 1.227 . S
N372 Co369 2.121 . S
N372 C374 1.375 1_565 S
N372 C375 1.313 . S
C373 C374 1.338 . S
C373 N376 1.377 1_545 S
C373 H393 0.930 . S
C374 N372 1.375 1_545 S
C374 C373 1.338 . S
C374 H378 0.931 . S
C375 N372 1.313 . S
C375 N376 1.344 . S
C375 H379 0.930 . S
N376 C373 1.377 1_565 S
N376 C375 1.344 . S
O377 Co369 2.055 . S
O377 C381 1.253 . S
H378 C374 0.931 . S
H379 C375 0.930 . S
O380 Co369 2.039 1_545 S
O380 C370 1.265 . S
C381 O377 1.253 . S
C381 O382 1.227 . S
O382 C381 1.227 . S
N383 Co369 2.140 1_545 S
N383 C386 1.346 . S
N383 C387 1.345 . S
C384 C385 1.387 . S
C384 C388 1.391 . S
C385 C384 1.387 . S
C385 C386 1.369 . S
C385 H394 0.929 . S
C386 N383 1.346 . S
C386 C385 1.369 . S
C386 H389 0.928 . S
C387 N383 1.345 . S
C387 C388 1.371 . S
C387 H390 0.931 1_545 S
C388 C384 1.391 . S
C388 C387 1.371 . S
C388 H395 0.930 . S
H389 C386 0.928 . S
H390 C387 0.931 1_565 S
H391 C367 0.930 1_545 S
H392 C364 0.930 . S
H393 C373 0.930 . S
H394 C385 0.929 . S
H395 C388 0.930 . S
H396 C414 0.951 . S
H397 C416 0.951 . S
H398 C418 0.950 . S
H399 C419 0.950 . S
H400 C421 0.950 . S
H401 C424 0.950 . S
H402 C425 0.950 . S
H403 C427 0.950 1_565 S
H404 C428 0.950 . S
H405 C429 0.951 . S
H406 C431 0.951 . S
H407 C433 0.950 . S
H408 C434 0.950 . S
H409 C436 0.950 . S
H410 C439 0.950 . S
H411 C440 0.950 . S
H412 C442 0.950 . S
H413 C443 0.950 . S
C414 H396 0.951 . S
C414 C415 1.366 . S
C414 C416 1.388 . S
C415 C414 1.366 . S
C415 C419 1.385 . S
C416 H397 0.951 . S
C416 C414 1.388 . S
C416 C417 1.366 . S
C417 C416 1.366 . S
C417 C418 1.414 . S
C417 C420 1.499 . S
C418 H398 0.950 . S
C418 C417 1.414 . S
C418 C419 1.374 . S
C419 H399 0.950 . S
C419 C415 1.385 . S
C419 C418 1.374 . S
C420 C417 1.499 . S
C420 C421 1.373 . S
C420 C422 1.389 . S
C421 H400 0.950 . S
C421 C420 1.373 . S
C421 C437 1.377 . S
C422 C420 1.389 . S
C422 C423 1.524 . S
C422 C436 1.377 . S
C423 C422 1.524 . S
C423 C424 1.397 . S
C423 C428 1.363 . S
C424 H401 0.950 . S
C424 C423 1.397 . S
C424 C425 1.334 . S
C425 H402 0.950 . S
C425 C424 1.334 . S
C425 C426 1.287 . S
C426 C425 1.287 . S
C426 C427 1.524 . S
C426 H445 0.913 1_545 S
C427 H403 0.950 1_545 S
C427 C426 1.524 . S
C427 C428 1.415 . S
C428 H404 0.950 . S
C428 C423 1.363 . S
C428 C427 1.415 . S
C429 H405 0.951 . S
C429 C430 1.366 . S
C429 C431 1.388 . S
C430 C429 1.366 . S
C430 C434 1.385 . S
C431 H406 0.951 . S
C431 C429 1.388 . S
C431 C432 1.366 . S
C432 C431 1.366 . S
C432 C433 1.414 . S
C432 C435 1.499 . S
C433 H407 0.950 . S
C433 C432 1.414 . S
C433 C434 1.374 . S
C434 H408 0.950 . S
C434 C430 1.385 . S
C434 C433 1.374 . S
C435 C432 1.499 . S
C435 C436 1.373 . S
C435 C437 1.389 . S
C436 H409 0.950 . S
C436 C422 1.377 . S
C436 C435 1.373 . S
C437 C421 1.377 . S
C437 C435 1.389 . S
C437 C438 1.524 . S
C438 C437 1.524 . S
C438 C439 1.397 . S
C438 C443 1.363 . S
C439 H410 0.950 . S
C439 C438 1.397 . S
C439 C440 1.334 . S
C440 H411 0.950 . S
C440 C439 1.334 . S
C440 C441 1.287 . S
C441 C440 1.287 . S
C441 C442 1.524 . S
C441 H444 0.999 . S
C442 H412 0.950 . S
C442 C441 1.524 . S
C442 C443 1.415 . S
C443 H413 0.950 . S
C443 C438 1.363 . S
C443 C442 1.415 . S
H444 C441 0.999 . S
H445 C426 0.913 1_565 S
H446 C464 0.951 . S
H447 C466 0.951 . S
H448 C468 0.950 . S
H449 C469 0.950 . S
H450 C471 0.950 . S
H451 C474 0.950 . S
H452 C475 0.950 . S
H453 C477 0.950 . S
H454 C478 0.950 . S
H455 C479 0.951 . S
H456 C481 0.951 . S
H457 C483 0.950 . S
H458 C484 0.950 . S
H459 C486 0.950 . S
H460 C489 0.950 . S
H461 C490 0.950 . S
H462 C492 0.950 . S
H463 C493 0.950 . S
C464 H446 0.951 . S
C464 C465 1.366 . S
C464 C466 1.388 . S
C465 C464 1.366 . S
C465 C469 1.385 . S
C466 H447 0.951 . S
C466 C464 1.388 . S
C466 C467 1.366 . S
C467 C466 1.366 . S
C467 C468 1.414 . S
C467 C470 1.499 . S
C468 H448 0.950 . S
C468 C467 1.414 . S
C468 C469 1.374 . S
C469 H449 0.950 . S
C469 C465 1.385 . S
C469 C468 1.374 . S
C470 C467 1.499 . S
C470 C471 1.373 . S
C470 C472 1.389 . S
C471 H450 0.950 . S
C471 C470 1.373 . S
C471 C487 1.377 . S
C472 C470 1.389 . S
C472 C473 1.524 . S
C472 C486 1.377 . S
C473 C472 1.524 . S
C473 C474 1.397 . S
C473 C478 1.363 . S
C474 H451 0.950 . S
C474 C473 1.397 . S
C474 C475 1.334 . S
C475 H452 0.950 . S
C475 C474 1.334 . S
C475 C476 1.287 . S
C476 C475 1.287 . S
C476 C477 1.524 . S
C476 H495 0.913 . S
C477 H453 0.950 . S
C477 C476 1.524 . S
C477 C478 1.415 . S
C478 H454 0.950 . S
C478 C473 1.363 . S
C478 C477 1.415 . S
C479 H455 0.951 . S
C479 C480 1.366 . S
C479 C481 1.388 . S
C480 C479 1.366 . S
C480 C484 1.385 . S
C481 H456 0.951 . S
C481 C479 1.388 . S
C481 C482 1.366 . S
C482 C481 1.366 . S
C482 C483 1.414 . S
C482 C485 1.499 . S
C483 H457 0.950 . S
C483 C482 1.414 . S
C483 C484 1.374 . S
C484 H458 0.950 . S
C484 C480 1.385 . S
C484 C483 1.374 . S
C485 C482 1.499 . S
C485 C486 1.373 . S
C485 C487 1.389 . S
C486 H459 0.950 . S
C486 C472 1.377 . S
C486 C485 1.373 . S
C487 C471 1.377 . S
C487 C485 1.389 . S
C487 C488 1.524 . S
C488 C487 1.524 . S
C488 C489 1.397 . S
C488 C493 1.363 . S
C489 H460 0.950 . S
C489 C488 1.397 . S
C489 C490 1.334 . S
C490 H461 0.950 . S
C490 C489 1.334 . S
C490 C491 1.287 . S
C491 C490 1.287 . S
C491 C492 1.524 . S
C491 H494 0.999 . S
C492 H462 0.950 . S
C492 C491 1.524 . S
C492 C493 1.415 . S
C493 H463 0.950 . S
C493 C488 1.363 . S
C493 C492 1.415 . S
H494 C491 0.999 . S
H495 C476 0.913 . S
H496 C514 0.951 . S
H497 C516 0.951 . S
H498 C518 0.950 . S
H499 C519 0.950 . S
H500 C521 0.950 . S
H501 C524 0.950 . S
H502 C525 0.950 . S
H503 C527 0.950 . S
H504 C528 0.950 . S
H505 C529 0.951 . S
H506 C531 0.951 . S
H507 C533 0.950 . S
H508 C534 0.950 . S
H509 C536 0.950 . S
H510 C539 0.950 . S
H511 C540 0.950 . S
H512 C542 0.950 . S
H513 C543 0.950 . S
C514 H496 0.951 . S
C514 C515 1.366 . S
C514 C516 1.388 . S
C515 C514 1.366 . S
C515 C519 1.385 . S
C516 H497 0.951 . S
C516 C514 1.388 . S
C516 C517 1.366 . S
C517 C516 1.366 . S
C517 C518 1.414 . S
C517 C520 1.499 . S
C518 H498 0.950 . S
C518 C517 1.414 . S
C518 C519 1.374 . S
C519 H499 0.950 . S
C519 C515 1.385 . S
C519 C518 1.374 . S
C520 C517 1.499 . S
C520 C521 1.373 . S
C520 C522 1.389 . S
C521 H500 0.950 . S
C521 C520 1.373 . S
C521 C537 1.377 . S
C522 C520 1.389 . S
C522 C523 1.524 . S
C522 C536 1.377 . S
C523 C522 1.524 . S
C523 C524 1.397 . S
C523 C528 1.363 . S
C524 H501 0.950 . S
C524 C523 1.397 . S
C524 C525 1.334 . S
C525 H502 0.950 . S
C525 C524 1.334 . S
C525 C526 1.287 . S
C526 C525 1.287 . S
C526 C527 1.524 . S
C526 H545 0.913 . S
C527 H503 0.950 . S
C527 C526 1.524 . S
C527 C528 1.415 . S
C528 H504 0.950 . S
C528 C523 1.363 . S
C528 C527 1.415 . S
C529 H505 0.951 . S
C529 C530 1.366 . S
C529 C531 1.388 . S
C530 C529 1.366 . S
C530 C534 1.385 . S
C531 H506 0.951 . S
C531 C529 1.388 . S
C531 C532 1.366 . S
C532 C531 1.366 . S
C532 C533 1.414 . S
C532 C535 1.499 . S
C533 H507 0.950 . S
C533 C532 1.414 . S
C533 C534 1.374 . S
C534 H508 0.950 . S
C534 C530 1.385 . S
C534 C533 1.374 . S
C535 C532 1.499 . S
C535 C536 1.373 . S
C535 C537 1.389 . S
C536 H509 0.950 . S
C536 C522 1.377 . S
C536 C535 1.373 . S
C537 C521 1.377 . S
C537 C535 1.389 . S
C537 C538 1.524 . S
C538 C537 1.524 . S
C538 C539 1.397 . S
C538 C543 1.363 . S
C539 H510 0.950 . S
C539 C538 1.397 . S
C539 C540 1.334 . S
C540 H511 0.950 . S
C540 C539 1.334 . S
C540 C541 1.287 . S
C541 C540 1.287 . S
C541 C542 1.524 . S
C541 H544 0.999 . S
C542 H512 0.950 . S
C542 C541 1.524 . S
C542 C543 1.415 . S
C543 H513 0.950 . S
C543 C538 1.363 . S
C543 C542 1.415 . S
H544 C541 0.999 . S
H545 C526 0.913 . S
H546 C564 0.951 . S
H547 C566 0.951 . S
H548 C568 0.950 . S
H549 C569 0.950 . S
H550 C571 0.950 . S
H551 C574 0.950 . S
H552 C575 0.950 . S
H553 C577 0.950 . S
H554 C578 0.950 . S
H555 C579 0.951 . S
H556 C581 0.951 . S
H557 C583 0.950 . S
H558 C584 0.950 . S
H559 C586 0.950 . S
H560 C589 0.950 . S
H561 C590 0.950 . S
H562 C592 0.950 . S
H563 C593 0.950 . S
C564 H546 0.951 . S
C564 C565 1.366 . S
C564 C566 1.388 . S
C565 C564 1.366 . S
C565 C569 1.385 . S
C566 H547 0.951 . S
C566 C564 1.388 . S
C566 C567 1.366 . S
C567 C566 1.366 . S
C567 C568 1.414 . S
C567 C570 1.499 . S
C568 H548 0.950 . S
C568 C567 1.414 . S
C568 C569 1.374 . S
C569 H549 0.950 . S
C569 C565 1.385 . S
C569 C568 1.374 . S
C570 C567 1.499 . S
C570 C571 1.373 . S
C570 C572 1.389 . S
C571 H550 0.950 . S
C571 C570 1.373 . S
C571 C587 1.377 . S
C572 C570 1.389 . S
C572 C573 1.524 . S
C572 C586 1.377 . S
C573 C572 1.524 . S
C573 C574 1.397 . S
C573 C578 1.363 . S
C574 H551 0.950 . S
C574 C573 1.397 . S
C574 C575 1.334 . S
C575 H552 0.950 . S
C575 C574 1.334 . S
C575 C576 1.287 . S
C576 C575 1.287 . S
C576 C577 1.524 . S
C576 H595 0.913 . S
C577 H553 0.950 . S
C577 C576 1.524 . S
C577 C578 1.415 . S
C578 H554 0.950 . S
C578 C573 1.363 . S
C578 C577 1.415 . S
C579 H555 0.951 . S
C579 C580 1.366 . S
C579 C581 1.388 . S
C580 C579 1.366 . S
C580 C584 1.385 . S
C581 H556 0.951 . S
C581 C579 1.388 . S
C581 C582 1.366 . S
C582 C581 1.366 . S
C582 C583 1.414 . S
C582 C585 1.499 . S
C583 H557 0.950 . S
C583 C582 1.414 . S
C583 C584 1.374 . S
C584 H558 0.950 . S
C584 C580 1.385 . S
C584 C583 1.374 . S
C585 C582 1.499 . S
C585 C586 1.373 . S
C585 C587 1.389 . S
C586 H559 0.950 . S
C586 C572 1.377 . S
C586 C585 1.373 . S
C587 C571 1.377 . S
C587 C585 1.389 . S
C587 C588 1.524 . S
C588 C587 1.524 . S
C588 C589 1.397 . S
C588 C593 1.363 . S
C589 H560 0.950 . S
C589 C588 1.397 . S
C589 C590 1.334 . S
C590 H561 0.950 . S
C590 C589 1.334 . S
C590 C591 1.287 . S
C591 C590 1.287 . S
C591 C592 1.524 . S
C591 H594 0.999 . S
C592 H562 0.950 . S
C592 C591 1.524 . S
C592 C593 1.415 . S
C593 H563 0.950 . S
C593 C588 1.363 . S
C593 C592 1.415 . S
H594 C591 0.999 . S
H595 C576 0.913 . S
H596 C614 0.931 1_556 S
H597 C616 0.951 1_556 S
H598 C618 0.950 . S
H599 C619 0.950 . S
H600 C621 0.950 . S
H601 C624 0.950 . S
H602 C625 0.950 . S
H603 C627 0.950 . S
H604 C628 0.950 . S
H605 C629 0.951 . S
H606 C631 0.951 . S
H607 C633 0.950 . S
H608 C634 0.950 . S
H609 C636 0.950 . S
H610 C639 0.950 . S
H611 C640 0.950 . S
H612 C642 0.950 . S
H613 C643 0.950 . S
C614 H596 0.931 1_554 S
C614 C615 1.366 . S
C614 C616 1.388 . S
C615 C614 1.366 . S
C615 C619 1.385 . S
C616 H597 0.951 1_554 S
C616 C614 1.388 . S
C616 C617 1.366 . S
C617 C616 1.366 . S
C617 C618 1.414 . S
C617 C620 1.499 . S
C618 H598 0.950 . S
C618 C617 1.414 . S
C618 C619 1.374 . S
C619 H599 0.950 . S
C619 C615 1.385 . S
C619 C618 1.374 . S
C620 C617 1.499 . S
C620 C621 1.373 . S
C620 C622 1.389 1_554 S
C621 H600 0.950 . S
C621 C620 1.373 . S
C621 C637 1.377 . S
C622 C620 1.389 1_556 S
C622 C623 1.524 . S
C622 C636 1.377 . S
C623 C622 1.524 . S
C623 C624 1.397 . S
C623 C628 1.363 . S
C624 H601 0.950 . S
C624 C623 1.397 . S
C624 C625 1.334 . S
C625 H602 0.950 . S
C625 C624 1.334 . S
C625 C626 1.287 . S
C626 C625 1.287 . S
C626 C627 1.524 . S
C626 H645 0.913 . S
C627 H603 0.950 . S
C627 C626 1.524 . S
C627 C628 1.415 . S
C628 H604 0.950 . S
C628 C623 1.363 . S
C628 C627 1.415 . S
C629 H605 0.951 . S
C629 C630 1.334 1_554 S
C629 C631 1.388 . S
C630 C629 1.334 1_556 S
C630 C634 1.412 . S
C631 H606 0.951 . S
C631 C629 1.388 . S
C631 C632 1.366 . S
C632 C631 1.366 . S
C632 C633 1.414 1_554 S
C632 C635 1.499 . S
C633 H607 0.950 . S
C633 C632 1.414 1_556 S
C633 C634 1.374 . S
C634 H608 0.950 . S
C634 C630 1.412 . S
C634 C633 1.374 . S
C635 C632 1.499 . S
C635 C636 1.373 1_554 S
C635 C637 1.389 . S
C636 H609 0.950 . S
C636 C622 1.377 . S
C636 C635 1.373 1_556 S
C637 C621 1.377 . S
C637 C635 1.389 . S
C637 C638 1.524 . S
C638 C637 1.524 . S
C638 C639 1.397 . S
C638 C643 1.363 . S
C639 H610 0.950 . S
C639 C638 1.397 . S
C639 C640 1.334 . S
C640 H611 0.950 . S
C640 C639 1.334 . S
C640 C641 1.287 . S
C641 C640 1.287 . S
C641 C642 1.524 . S
C641 H644 0.999 . S
C642 H612 0.950 . S
C642 C641 1.524 . S
C642 C643 1.415 . S
C643 H613 0.950 . S
C643 C638 1.363 . S
C643 C642 1.415 . S
H644 C641 0.999 . S
H645 C626 0.913 . S
H646 C664 0.951 . S
H647 C666 0.951 . S
H648 C668 0.950 . S
H649 C669 0.950 . S
H650 C671 0.950 . S
H651 C674 0.950 . S
H652 C675 0.950 . S
H653 C677 0.950 . S
H654 C678 0.950 . S
H655 C679 0.951 . S
H656 C681 0.951 . S
H657 C683 0.950 . S
H658 C684 0.950 . S
H659 C686 0.950 . S
H660 C689 0.950 . S
H661 C690 0.950 . S
H662 C692 0.950 . S
H663 C693 0.950 . S
C664 H646 0.951 . S
C664 C665 1.366 . S
C664 C666 1.388 . S
C665 C664 1.366 . S
C665 C669 1.385 . S
C666 H647 0.951 . S
C666 C664 1.388 . S
C666 C667 1.366 . S
C667 C666 1.366 . S
C667 C668 1.414 . S
C667 C670 1.499 . S
C668 H648 0.950 . S
C668 C667 1.414 . S
C668 C669 1.374 . S
C669 H649 0.950 . S
C669 C665 1.385 . S
C669 C668 1.374 . S
C670 C667 1.499 . S
C670 C671 1.373 . S
C670 C672 1.389 . S
C671 H650 0.950 . S
C671 C670 1.373 . S
C671 C687 1.377 . S
C672 C670 1.389 . S
C672 C673 1.524 . S
C672 C686 1.377 . S
C673 C672 1.524 . S
C673 C674 1.397 . S
C673 C678 1.363 . S
C674 H651 0.950 . S
C674 C673 1.397 . S
C674 C675 1.334 . S
C675 H652 0.950 . S
C675 C674 1.334 . S
C675 C676 1.287 . S
C676 C675 1.287 . S
C676 C677 1.524 . S
C676 H695 0.913 . S
C677 H653 0.950 . S
C677 C676 1.524 . S
C677 C678 1.415 . S
C678 H654 0.950 . S
C678 C673 1.363 . S
C678 C677 1.415 . S
C679 H655 0.951 . S
C679 C680 1.366 . S
C679 C681 1.388 . S
C680 C679 1.366 . S
C680 C684 1.385 . S
C681 H656 0.951 . S
C681 C679 1.388 . S
C681 C682 1.366 . S
C682 C681 1.366 . S
C682 C683 1.414 . S
C682 C685 1.499 . S
C683 H657 0.950 . S
C683 C682 1.414 . S
C683 C684 1.374 . S
C684 H658 0.950 . S
C684 C680 1.385 . S
C684 C683 1.374 . S
C685 C682 1.499 . S
C685 C686 1.373 . S
C685 C687 1.389 . S
C686 H659 0.950 . S
C686 C672 1.377 . S
C686 C685 1.373 . S
C687 C671 1.377 . S
C687 C685 1.389 . S
C687 C688 1.524 . S
C688 C687 1.524 . S
C688 C689 1.397 . S
C688 C693 1.363 . S
C689 H660 0.950 . S
C689 C688 1.397 . S
C689 C690 1.334 . S
C690 H661 0.950 . S
C690 C689 1.334 . S
C690 C691 1.287 . S
C691 C690 1.287 . S
C691 C692 1.524 . S
C691 H694 0.999 . S
C692 H662 0.950 . S
C692 C691 1.524 . S
C692 C693 1.415 . S
C693 H663 0.950 . S
C693 C688 1.363 . S
C693 C692 1.415 . S
H694 C691 0.999 . S
H695 C676 0.913 . S
H696 C714 0.951 . S
H697 C716 0.951 . S
H698 C718 0.950 . S
H699 C719 0.950 . S
H700 C721 0.950 . S
H701 C724 0.950 . S
H702 C725 0.950 . S
H703 C727 0.950 . S
H704 C728 0.950 . S
H705 C729 0.951 . S
H706 C731 0.951 . S
H707 C733 0.950 . S
H708 C734 0.950 . S
H709 C736 0.950 . S
H710 C739 0.950 . S
H711 C740 0.950 . S
H712 C742 0.950 . S
H713 C743 0.950 . S
C714 H696 0.951 . S
C714 C715 1.366 . S
C714 C716 1.388 . S
C715 C714 1.366 . S
C715 C719 1.385 . S
C716 H697 0.951 . S
C716 C714 1.388 . S
C716 C717 1.366 . S
C717 C716 1.366 . S
C717 C718 1.414 . S
C717 C720 1.499 . S
C718 H698 0.950 . S
C718 C717 1.414 . S
C718 C719 1.374 . S
C719 H699 0.950 . S
C719 C715 1.385 . S
C719 C718 1.374 . S
C720 C717 1.499 . S
C720 C721 1.373 . S
C720 C722 1.389 . S
C721 H700 0.950 . S
C721 C720 1.373 . S
C721 C737 1.377 . S
C722 C720 1.389 . S
C722 C723 1.524 . S
C722 C736 1.377 . S
C723 C722 1.524 . S
C723 C724 1.397 . S
C723 C728 1.363 . S
C724 H701 0.950 . S
C724 C723 1.397 . S
C724 C725 1.334 . S
C725 H702 0.950 . S
C725 C724 1.334 . S
C725 C726 1.287 . S
C726 C725 1.287 . S
C726 C727 1.524 . S
C726 H745 0.913 . S
C727 H703 0.950 . S
C727 C726 1.524 . S
C727 C728 1.415 . S
C728 H704 0.950 . S
C728 C723 1.363 . S
C728 C727 1.415 . S
C729 H705 0.951 . S
C729 C730 1.366 . S
C729 C731 1.388 . S
C730 C729 1.366 . S
C730 C734 1.385 . S
C731 H706 0.951 . S
C731 C729 1.388 . S
C731 C732 1.366 . S
C732 C731 1.366 . S
C732 C733 1.414 . S
C732 C735 1.499 . S
C733 H707 0.950 . S
C733 C732 1.414 . S
C733 C734 1.374 . S
C734 H708 0.950 . S
C734 C730 1.385 . S
C734 C733 1.374 . S
C735 C732 1.499 . S
C735 C736 1.373 . S
C735 C737 1.389 . S
C736 H709 0.950 . S
C736 C722 1.377 . S
C736 C735 1.373 . S
C737 C721 1.377 . S
C737 C735 1.389 . S
C737 C738 1.524 . S
C738 C737 1.524 . S
C738 C739 1.397 . S
C738 C743 1.363 . S
C739 H710 0.950 . S
C739 C738 1.397 . S
C739 C740 1.334 . S
C740 H711 0.950 . S
C740 C739 1.334 . S
C740 C741 1.287 . S
C741 C740 1.287 . S
C741 C742 1.524 . S
C741 H744 0.999 . S
C742 H712 0.950 . S
C742 C741 1.524 . S
C742 C743 1.415 . S
C743 H713 0.950 . S
C743 C738 1.363 . S
C743 C742 1.415 . S
H744 C741 0.999 . S
H745 C726 0.913 . S
H746 C764 0.951 . S
H747 C766 0.951 . S
H748 C768 0.950 . S
H749 C769 0.950 . S
H750 C771 0.950 . S
H751 C774 0.950 . S
H752 C775 0.950 . S
H753 C777 0.950 . S
H754 C778 0.950 . S
H755 C779 0.951 . S
H756 C781 0.951 . S
H757 C783 0.950 . S
H758 C784 0.950 . S
H759 C786 0.950 . S
H760 C789 0.950 . S
H761 C790 0.950 . S
H762 C792 0.950 . S
H763 C793 0.950 . S
C764 H746 0.951 . S
C764 C765 1.366 . S
C764 C766 1.388 . S
C765 C764 1.366 . S
C765 C769 1.385 . S
C766 H747 0.951 . S
C766 C764 1.388 . S
C766 C767 1.366 . S
C767 C766 1.366 . S
C767 C768 1.414 . S
C767 C770 1.499 . S
C768 H748 0.950 . S
C768 C767 1.414 . S
C768 C769 1.374 . S
C769 H749 0.950 . S
C769 C765 1.385 . S
C769 C768 1.374 . S
C770 C767 1.499 . S
C770 C771 1.373 . S
C770 C772 1.389 . S
C771 H750 0.950 . S
C771 C770 1.373 . S
C771 C787 1.377 . S
C772 C770 1.389 . S
C772 C773 1.524 . S
C772 C786 1.377 . S
C773 C772 1.524 . S
C773 C774 1.397 . S
C773 C778 1.363 . S
C774 H751 0.950 . S
C774 C773 1.397 . S
C774 C775 1.334 . S
C775 H752 0.950 . S
C775 C774 1.334 . S
C775 C776 1.287 . S
C776 C775 1.287 . S
C776 C777 1.524 . S
C776 H795 0.913 . S
C777 H753 0.950 . S
C777 C776 1.524 . S
C777 C778 1.415 . S
C778 H754 0.950 . S
C778 C773 1.363 . S
C778 C777 1.415 . S
C779 H755 0.951 . S
C779 C780 1.366 . S
C779 C781 1.388 . S
C780 C779 1.366 . S
C780 C784 1.385 . S
C781 H756 0.951 . S
C781 C779 1.388 . S
C781 C782 1.366 . S
C782 C781 1.366 . S
C782 C783 1.414 . S
C782 C785 1.499 . S
C783 H757 0.950 . S
C783 C782 1.414 . S
C783 C784 1.374 . S
C784 H758 0.950 . S
C784 C780 1.385 . S
C784 C783 1.374 . S
C785 C782 1.499 . S
C785 C786 1.373 . S
C785 C787 1.389 . S
C786 H759 0.950 . S
C786 C772 1.377 . S
C786 C785 1.373 . S
C787 C771 1.377 . S
C787 C785 1.389 . S
C787 C788 1.524 . S
C788 C787 1.524 . S
C788 C789 1.397 . S
C788 C793 1.363 . S
C789 H760 0.950 . S
C789 C788 1.397 . S
C789 C790 1.334 1_565 S
C790 H761 0.950 . S
C790 C789 1.334 1_545 S
C790 C791 1.287 . S
C791 C790 1.287 . S
C791 C792 1.524 . S
C791 H794 0.999 . S
C792 H762 0.950 . S
C792 C791 1.524 . S
C792 C793 1.415 1_545 S
C793 H763 0.950 . S
C793 C788 1.363 . S
C793 C792 1.415 1_565 S
H794 C791 0.999 . S
H795 C776 0.913 . S
H796 C814 0.951 . S
H797 C816 0.951 . S
H798 C818 0.950 . S
H799 C819 0.950 . S
H800 C821 0.950 . S
H801 C824 0.950 . S
H802 C825 0.950 . S
H803 C827 0.950 . S
H804 C828 0.950 . S
H805 C829 0.951 . S
H806 C831 0.951 . S
H807 C833 0.950 . S
H808 C834 0.950 . S
H809 C836 0.950 . S
H810 C839 0.950 . S
H811 C840 0.950 . S
H812 C842 0.950 . S
H813 C843 0.950 . S
C814 H796 0.951 . S
C814 C815 1.366 . S
C814 C816 1.388 . S
C815 C814 1.366 . S
C815 C819 1.385 . S
C816 H797 0.951 . S
C816 C814 1.388 . S
C816 C817 1.366 . S
C817 C816 1.366 . S
C817 C818 1.414 . S
C817 C820 1.499 . S
C818 H798 0.950 . S
C818 C817 1.414 . S
C818 C819 1.374 . S
C819 H799 0.950 . S
C819 C815 1.385 . S
C819 C818 1.374 . S
C820 C817 1.499 . S
C820 C821 1.373 . S
C820 C822 1.389 . S
C821 H800 0.950 . S
C821 C820 1.373 . S
C821 C837 1.377 . S
C822 C820 1.389 . S
C822 C823 1.524 . S
C822 C836 1.377 . S
C823 C822 1.524 . S
C823 C824 1.397 . S
C823 C828 1.363 . S
C824 H801 0.950 . S
C824 C823 1.397 . S
C824 C825 1.334 . S
C825 H802 0.950 . S
C825 C824 1.334 . S
C825 C826 1.287 . S
C826 C825 1.287 . S
C826 C827 1.524 . S
C826 H845 0.913 . S
C827 H803 0.950 . S
C827 C826 1.524 . S
C827 C828 1.415 . S
C828 H804 0.950 . S
C828 C823 1.363 . S
C828 C827 1.415 . S
C829 H805 0.951 . S
C829 C830 1.366 . S
C829 C831 1.388 . S
C830 C829 1.366 . S
C830 C834 1.385 . S
C831 H806 0.951 . S
C831 C829 1.388 . S
C831 C832 1.366 . S
C832 C831 1.366 . S
C832 C833 1.414 . S
C832 C835 1.499 . S
C833 H807 0.950 . S
C833 C832 1.414 . S
C833 C834 1.374 . S
C834 H808 0.950 . S
C834 C830 1.385 . S
C834 C833 1.374 . S
C835 C832 1.499 . S
C835 C836 1.373 . S
C835 C837 1.389 . S
C836 H809 0.950 . S
C836 C822 1.377 . S
C836 C835 1.373 . S
C837 C821 1.377 . S
C837 C835 1.389 . S
C837 C838 1.524 . S
C838 C837 1.524 . S
C838 C839 1.397 . S
C838 C843 1.363 . S
C839 H810 0.950 . S
C839 C838 1.397 . S
C839 C840 1.334 . S
C840 H811 0.950 . S
C840 C839 1.334 . S
C840 C841 1.287 . S
C841 C840 1.287 . S
C841 C842 1.524 . S
C841 H844 0.999 . S
C842 H812 0.950 . S
C842 C841 1.524 . S
C842 C843 1.415 . S
C843 H813 0.950 . S
C843 C838 1.363 . S
C843 C842 1.415 . S
H844 C841 0.999 . S
H845 C826 0.913 . S
H846 C864 0.951 . S
H847 C866 0.951 . S
H848 C868 0.950 . S
H849 C869 0.969 . S
H850 C871 0.950 . S
H851 C874 0.950 . S
H852 C875 0.950 . S
H853 C877 0.950 . S
H854 C878 0.950 . S
H855 C879 0.951 . S
H856 C881 0.951 . S
H857 C883 0.950 . S
H858 C884 0.950 . S
H859 C886 0.950 . S
H860 C889 0.950 . S
H861 C890 0.950 . S
H862 C892 0.950 . S
H863 C893 0.950 . S
C864 H846 0.951 . S
C864 C865 1.366 . S
C864 C866 1.388 . S
C865 C864 1.366 . S
C865 C869 1.363 1_556 S
C866 H847 0.951 . S
C866 C864 1.388 . S
C866 C867 1.366 . S
C867 C866 1.366 . S
C867 C868 1.414 1_556 S
C867 C870 1.499 . S
C868 H848 0.950 . S
C868 C867 1.414 1_554 S
C868 C869 1.377 . S
C869 H849 0.969 . S
C869 C865 1.363 1_554 S
C869 C868 1.377 . S
C870 C867 1.499 . S
C870 C871 1.373 . S
C870 C872 1.389 . S
C871 H850 0.950 . S
C871 C870 1.373 . S
C871 C887 1.377 . S
C872 C870 1.389 . S
C872 C873 1.524 . S
C872 C886 1.377 . S
C873 C872 1.524 . S
C873 C874 1.397 1_556 S
C873 C878 1.363 . S
C874 H851 0.950 . S
C874 C873 1.397 1_554 S
C874 C875 1.334 . S
C875 H852 0.950 . S
C875 C874 1.334 . S
C875 C876 1.287 1_554 S
C876 C875 1.287 1_556 S
C876 C877 1.524 . S
C876 H895 0.913 . S
C877 H853 0.950 . S
C877 C876 1.524 . S
C877 C878 1.415 . S
C878 H854 0.950 . S
C878 C873 1.363 . S
C878 C877 1.415 . S
C879 H855 0.951 . S
C879 C880 1.407 . S
C879 C881 1.388 . S
C880 C879 1.407 . S
C880 C884 1.337 1_554 S
C881 H856 0.951 . S
C881 C879 1.388 . S
C881 C882 1.366 1_554 S
C882 C881 1.366 1_556 S
C882 C883 1.414 . S
C882 C885 1.499 . S
C883 H857 0.950 . S
C883 C882 1.414 . S
C883 C884 1.374 . S
C884 H858 0.950 . S
C884 C880 1.337 1_556 S
C884 C883 1.374 . S
C885 C882 1.499 . S
C885 C886 1.373 . S
C885 C887 1.389 . S
C886 H859 0.950 . S
C886 C872 1.377 . S
C886 C885 1.373 . S
C887 C871 1.377 . S
C887 C885 1.389 . S
C887 C888 1.524 . S
C888 C887 1.524 . S
C888 C889 1.397 . S
C888 C893 1.363 1_556 S
C889 H860 0.950 . S
C889 C888 1.397 . S
C889 C890 1.334 1_455 S
C890 H861 0.950 . S
C890 C889 1.334 1_655 S
C890 C891 1.287 . S
C891 C890 1.287 . S
C891 C892 1.524 1_556 S
C891 H894 0.999 . S
C892 H862 0.950 . S
C892 C891 1.524 1_554 S
C892 C893 1.415 1_655 S
C893 H863 0.950 . S
C893 C888 1.363 1_554 S
C893 C892 1.415 1_455 S
H894 C891 0.999 . S
H895 C876 0.913 . S
H896 C914 0.951 . S
H897 C916 0.951 . S
H898 C918 0.950 . S
H899 C919 0.950 . S
H900 C921 0.950 . S
H901 C924 0.950 . S
H902 C925 0.950 . S
H903 C927 0.950 . S
H904 C928 0.950 . S
H905 C929 0.951 . S
H906 C931 0.951 . S
H907 C933 0.950 . S
H908 C934 0.950 . S
H909 C936 0.950 . S
H910 C939 0.950 . S
H911 C940 0.950 . S
H912 C942 0.950 . S
H913 C943 0.950 . S
C914 H896 0.951 . S
C914 C915 1.366 . S
C914 C916 1.388 . S
C915 C914 1.366 . S
C915 C919 1.385 . S
C916 H897 0.951 . S
C916 C914 1.388 . S
C916 C917 1.366 . S
C917 C916 1.366 . S
C917 C918 1.414 . S
C917 C920 1.499 . S
C918 H898 0.950 . S
C918 C917 1.414 . S
C918 C919 1.374 . S
C919 H899 0.950 . S
C919 C915 1.385 . S
C919 C918 1.374 . S
C920 C917 1.499 . S
C920 C921 1.373 . S
C920 C922 1.389 . S
C921 H900 0.950 . S
C921 C920 1.373 . S
C921 C937 1.377 . S
C922 C920 1.389 . S
C922 C923 1.524 . S
C922 C936 1.377 . S
C923 C922 1.524 . S
C923 C924 1.397 . S
C923 C928 1.363 . S
C924 H901 0.950 . S
C924 C923 1.397 . S
C924 C925 1.334 . S
C925 H902 0.950 . S
C925 C924 1.334 . S
C925 C926 1.287 . S
C926 C925 1.287 . S
C926 C927 1.524 . S
C926 H945 0.913 . S
C927 H903 0.950 . S
C927 C926 1.524 . S
C927 C928 1.415 . S
C928 H904 0.950 . S
C928 C923 1.363 . S
C928 C927 1.415 . S
C929 H905 0.951 . S
C929 C930 1.366 . S
C929 C931 1.388 . S
C930 C929 1.366 . S
C930 C934 1.385 . S
C931 H906 0.951 . S
C931 C929 1.388 . S
C931 C932 1.366 . S
C932 C931 1.366 . S
C932 C933 1.414 . S
C932 C935 1.499 . S
C933 H907 0.950 . S
C933 C932 1.414 . S
C933 C934 1.374 . S
C934 H908 0.950 . S
C934 C930 1.385 . S
C934 C933 1.374 . S
C935 C932 1.499 . S
C935 C936 1.373 . S
C935 C937 1.389 . S
C936 H909 0.950 . S
C936 C922 1.377 . S
C936 C935 1.373 . S
C937 C921 1.377 . S
C937 C935 1.389 . S
C937 C938 1.524 . S
C938 C937 1.524 . S
C938 C939 1.397 . S
C938 C943 1.363 . S
C939 H910 0.950 . S
C939 C938 1.397 . S
C939 C940 1.334 . S
C940 H911 0.950 . S
C940 C939 1.334 . S
C940 C941 1.287 . S
C941 C940 1.287 . S
C941 C942 1.524 . S
C941 H944 0.999 . S
C942 H912 0.950 . S
C942 C941 1.524 . S
C942 C943 1.415 . S
C943 H913 0.950 . S
C943 C938 1.363 . S
C943 C942 1.415 . S
H944 C941 0.999 . S
H945 C926 0.913 . S
H946 C964 0.951 . S
H947 C966 0.951 . S
H948 C968 0.950 . S
H949 C969 0.950 . S
H950 C971 0.950 . S
H951 C974 0.950 . S
H952 C975 0.950 . S
H953 C977 0.950 . S
H954 C978 0.950 . S
H955 C979 0.951 . S
H956 C981 0.951 . S
H957 C983 0.950 . S
H958 C984 0.950 . S
H959 C986 0.950 . S
H960 C989 0.950 . S
H961 C990 0.950 . S
H962 C992 0.950 . S
H963 C993 0.950 . S
C964 H946 0.951 . S
C964 C965 1.366 . S
C964 C966 1.388 . S
C965 C964 1.366 . S
C965 C969 1.385 . S
C966 H947 0.951 . S
C966 C964 1.388 . S
C966 C967 1.366 . S
C967 C966 1.366 . S
C967 C968 1.414 . S
C967 C970 1.499 . S
C968 H948 0.950 . S
C968 C967 1.414 . S
C968 C969 1.374 . S
C969 H949 0.950 . S
C969 C965 1.385 . S
C969 C968 1.374 . S
C970 C967 1.499 . S
C970 C971 1.373 . S
C970 C972 1.389 . S
C971 H950 0.950 . S
C971 C970 1.373 . S
C971 C987 1.377 . S
C972 C970 1.389 . S
C972 C973 1.524 . S
C972 C986 1.377 . S
C973 C972 1.524 . S
C973 C974 1.397 . S
C973 C978 1.363 . S
C974 H951 0.950 . S
C974 C973 1.397 . S
C974 C975 1.334 . S
C975 H952 0.950 . S
C975 C974 1.334 . S
C975 C976 1.287 . S
C976 C975 1.287 . S
C976 C977 1.524 . S
C976 H995 0.913 . S
C977 H953 0.950 . S
C977 C976 1.524 . S
C977 C978 1.415 . S
C978 H954 0.950 . S
C978 C973 1.363 . S
C978 C977 1.415 . S
C979 H955 0.951 . S
C979 C980 1.366 . S
C979 C981 1.388 . S
C980 C979 1.366 . S
C980 C984 1.385 . S
C981 H956 0.951 . S
C981 C979 1.388 . S
C981 C982 1.366 . S
C982 C981 1.366 . S
C982 C983 1.414 . S
C982 C985 1.499 . S
C983 H957 0.950 . S
C983 C982 1.414 . S
C983 C984 1.374 . S
C984 H958 0.950 . S
C984 C980 1.385 . S
C984 C983 1.374 . S
C985 C982 1.499 . S
C985 C986 1.373 . S
C985 C987 1.389 . S
C986 H959 0.950 . S
C986 C972 1.377 . S
C986 C985 1.373 . S
C987 C971 1.377 . S
C987 C985 1.389 . S
C987 C988 1.524 . S
C988 C987 1.524 . S
C988 C989 1.397 . S
C988 C993 1.363 . S
C989 H960 0.950 . S
C989 C988 1.397 . S
C989 C990 1.334 . S
C990 H961 0.950 . S
C990 C989 1.334 . S
C990 C991 1.287 . S
C991 C990 1.287 . S
C991 C992 1.524 . S
C991 H994 0.999 . S
C992 H962 0.950 . S
C992 C991 1.524 . S
C992 C993 1.415 . S
C993 H963 0.950 . S
C993 C988 1.363 . S
C993 C992 1.415 . S
H994 C991 0.999 . S
H995 C976 0.913 . S
H996 C1014 0.951 . S
H997 C1016 0.951 . S
H998 C1018 0.950 . S
H999 C1019 0.950 . S
H1000 C1021 0.950 . S
H1001 C1024 0.950 . S
H1002 C1025 0.950 . S
H1003 C1027 0.950 . S
H1004 C1028 0.950 . S
H1005 C1029 0.951 . S
H1006 C1031 0.951 . S
H1007 C1033 0.950 . S
H1008 C1034 0.950 . S
H1009 C1036 0.950 . S
H1010 C1039 0.950 . S
H1011 C1040 0.950 . S
H1012 C1042 0.950 . S
H1013 C1043 0.950 . S
C1014 H996 0.951 . S
C1014 C1015 1.366 . S
C1014 C1016 1.388 . S
C1015 C1014 1.366 . S
C1015 C1019 1.385 . S
C1016 H997 0.951 . S
C1016 C1014 1.388 . S
C1016 C1017 1.366 . S
C1017 C1016 1.366 . S
C1017 C1018 1.414 . S
C1017 C1020 1.499 . S
C1018 H998 0.950 . S
C1018 C1017 1.414 . S
C1018 C1019 1.374 . S
C1019 H999 0.950 . S
C1019 C1015 1.385 . S
C1019 C1018 1.374 . S
C1020 C1017 1.499 . S
C1020 C1021 1.373 . S
C1020 C1022 1.389 . S
C1021 H1000 0.950 . S
C1021 C1020 1.373 . S
C1021 C1037 1.377 . S
C1022 C1020 1.389 . S
C1022 C1023 1.524 . S
C1022 C1036 1.377 . S
C1023 C1022 1.524 . S
C1023 C1024 1.397 . S
C1023 C1028 1.363 . S
C1024 H1001 0.950 . S
C1024 C1023 1.397 . S
C1024 C1025 1.334 . S
C1025 H1002 0.950 . S
C1025 C1024 1.334 . S
C1025 C1026 1.287 . S
C1026 C1025 1.287 . S
C1026 C1027 1.524 . S
C1026 H1045 0.913 . S
C1027 H1003 0.950 . S
C1027 C1026 1.524 . S
C1027 C1028 1.415 . S
C1028 H1004 0.950 . S
C1028 C1023 1.363 . S
C1028 C1027 1.415 . S
C1029 H1005 0.951 . S
C1029 C1030 1.366 . S
C1029 C1031 1.388 . S
C1030 C1029 1.366 . S
C1030 C1034 1.385 . S
C1031 H1006 0.951 . S
C1031 C1029 1.388 . S
C1031 C1032 1.366 . S
C1032 C1031 1.366 . S
C1032 C1033 1.414 . S
C1032 C1035 1.499 . S
C1033 H1007 0.950 . S
C1033 C1032 1.414 . S
C1033 C1034 1.374 . S
C1034 H1008 0.950 . S
C1034 C1030 1.385 . S
C1034 C1033 1.374 . S
C1035 C1032 1.499 . S
C1035 C1036 1.373 . S
C1035 C1037 1.389 . S
C1036 H1009 0.950 . S
C1036 C1022 1.377 . S
C1036 C1035 1.373 . S
C1037 C1021 1.377 . S
C1037 C1035 1.389 . S
C1037 C1038 1.524 . S
C1038 C1037 1.524 . S
C1038 C1039 1.397 . S
C1038 C1043 1.363 . S
C1039 H1010 0.950 . S
C1039 C1038 1.397 . S
C1039 C1040 1.334 . S
C1040 H1011 0.950 . S
C1040 C1039 1.334 . S
C1040 C1041 1.287 . S
C1041 C1040 1.287 . S
C1041 C1042 1.524 . S
C1041 H1044 0.999 . S
C1042 H1012 0.950 . S
C1042 C1041 1.524 . S
C1042 C1043 1.415 . S
C1043 H1013 0.950 . S
C1043 C1038 1.363 . S
C1043 C1042 1.415 . S
H1044 C1041 0.999 . S
H1045 C1026 0.913 . S
H1046 C1064 0.951 . S
H1047 C1066 0.951 . S
H1048 C1068 0.950 . S
H1049 C1069 0.950 . S
H1050 C1071 0.950 . S
H1051 C1074 0.950 . S
H1052 C1075 0.950 . S
H1053 C1077 0.950 . S
H1054 C1078 0.950 . S
H1055 C1079 0.951 . S
H1056 C1081 0.951 . S
H1057 C1083 0.950 . S
H1058 C1084 0.950 . S
H1059 C1086 0.950 . S
H1060 C1089 0.950 . S
H1061 C1090 0.950 . S
H1062 C1092 0.950 . S
H1063 C1093 0.950 . S
C1064 H1046 0.951 . S
C1064 C1065 1.366 1_655 S
C1064 C1066 1.388 . S
C1065 C1064 1.366 1_455 S
C1065 C1069 1.385 . S
C1066 H1047 0.951 . S
C1066 C1064 1.388 . S
C1066 C1067 1.366 1_655 S
C1067 C1066 1.366 1_455 S
C1067 C1068 1.414 . S
C1067 C1070 1.499 . S
C1068 H1048 0.950 . S
C1068 C1067 1.414 . S
C1068 C1069 1.374 . S
C1069 H1049 0.950 . S
C1069 C1065 1.385 . S
C1069 C1068 1.374 . S
C1070 C1067 1.499 . S
C1070 C1071 1.373 . S
C1070 C1072 1.389 1_455 S
C1071 H1050 0.950 . S
C1071 C1070 1.373 . S
C1071 C1087 1.377 . S
C1072 C1070 1.389 1_655 S
C1072 C1073 1.524 . S
C1072 C1086 1.377 . S
C1073 C1072 1.524 . S
C1073 C1074 1.397 . S
C1073 C1078 1.363 . S
C1074 H1051 0.950 . S
C1074 C1073 1.397 . S
C1074 C1075 1.334 . S
C1075 H1052 0.950 . S
C1075 C1074 1.334 . S
C1075 C1076 1.287 . S
C1076 C1075 1.287 . S
C1076 C1077 1.524 . S
C1076 H1095 0.913 . S
C1077 H1053 0.950 . S
C1077 C1076 1.524 . S
C1077 C1078 1.415 . S
C1078 H1054 0.950 . S
C1078 C1073 1.363 . S
C1078 C1077 1.415 . S
C1079 H1055 0.951 . S
C1079 C1080 1.366 . S
C1079 C1081 1.388 . S
C1080 C1079 1.366 . S
C1080 C1084 1.385 1_455 S
C1081 H1056 0.951 . S
C1081 C1079 1.388 . S
C1081 C1082 1.366 . S
C1082 C1081 1.366 . S
C1082 C1083 1.414 1_455 S
C1082 C1085 1.499 . S
C1083 H1057 0.950 . S
C1083 C1082 1.414 1_655 S
C1083 C1084 1.374 . S
C1084 H1058 0.950 . S
C1084 C1080 1.385 1_655 S
C1084 C1083 1.374 . S
C1085 C1082 1.499 . S
C1085 C1086 1.373 1_455 S
C1085 C1087 1.389 . S
C1086 H1059 0.950 . S
C1086 C1072 1.377 . S
C1086 C1085 1.373 1_655 S
C1087 C1071 1.377 . S
C1087 C1085 1.389 . S
C1087 C1088 1.524 . S
C1088 C1087 1.524 . S
C1088 C1089 1.397 . S
C1088 C1093 1.363 . S
C1089 H1060 0.950 . S
C1089 C1088 1.397 . S
C1089 C1090 1.334 . S
C1090 H1061 0.950 . S
C1090 C1089 1.334 . S
C1090 C1091 1.287 . S
C1091 C1090 1.287 . S
C1091 C1092 1.524 . S
C1091 H1094 0.999 . S
C1092 H1062 0.950 . S
C1092 C1091 1.524 . S
C1092 C1093 1.415 . S
C1093 H1063 0.950 . S
C1093 C1088 1.363 . S
C1093 C1092 1.415 . S
H1094 C1091 0.999 . S
H1095 C1076 0.913 . S
H1096 C1114 0.951 . S
H1097 C1116 0.951 . S
H1098 C1118 0.950 . S
H1099 C1119 0.950 . S
H1100 C1121 0.950 . S
H1101 C1124 0.950 . S
H1102 C1125 0.950 . S
H1103 C1127 0.950 . S
H1104 C1128 0.950 . S
H1105 C1129 0.951 . S
H1106 C1131 0.951 . S
H1107 C1133 0.950 . S
H1108 C1134 0.950 . S
H1109 C1136 0.950 . S
H1110 C1139 0.950 . S
H1111 C1140 0.950 . S
H1112 C1142 0.950 . S
H1113 C1143 0.950 . S
C1114 H1096 0.951 . S
C1114 C1115 1.366 1_565 S
C1114 C1116 1.388 . S
C1115 C1114 1.366 1_545 S
C1115 C1119 1.385 . S
C1116 H1097 0.951 . S
C1116 C1114 1.388 . S
C1116 C1117 1.366 1_565 S
C1117 C1116 1.366 1_545 S
C1117 C1118 1.414 . S
C1117 C1120 1.499 . S
C1118 H1098 0.950 . S
C1118 C1117 1.414 . S
C1118 C1119 1.374 . S
C1119 H1099 0.950 . S
C1119 C1115 1.385 . S
C1119 C1118 1.374 . S
C1120 C1117 1.499 . S
C1120 C1121 1.373 . S
C1120 C1122 1.389 1_545 S
C1121 H1100 0.950 . S
C1121 C1120 1.373 . S
C1121 C1137 1.377 . S
C1122 C1120 1.389 1_565 S
C1122 C1123 1.524 . S
C1122 C1136 1.377 . S
C1123 C1122 1.524 . S
C1123 C1124 1.397 . S
C1123 C1128 1.363 . S
C1124 H1101 0.950 . S
C1124 C1123 1.397 . S
C1124 C1125 1.334 . S
C1125 H1102 0.950 . S
C1125 C1124 1.334 . S
C1125 C1126 1.287 . S
C1126 C1125 1.287 . S
C1126 C1127 1.524 . S
C1126 H1145 0.913 . S
C1127 H1103 0.950 . S
C1127 C1126 1.524 . S
C1127 C1128 1.415 . S
C1128 H1104 0.950 . S
C1128 C1123 1.363 . S
C1128 C1127 1.415 . S
C1129 H1105 0.951 . S
C1129 C1130 1.366 . S
C1129 C1131 1.388 . S
C1130 C1129 1.366 . S
C1130 C1134 1.385 1_545 S
C1131 H1106 0.951 . S
C1131 C1129 1.388 . S
C1131 C1132 1.366 . S
C1132 C1131 1.366 . S
C1132 C1133 1.414 1_545 S
C1132 C1135 1.499 . S
C1133 H1107 0.950 . S
C1133 C1132 1.414 1_565 S
C1133 C1134 1.374 . S
C1134 H1108 0.950 . S
C1134 C1130 1.385 1_565 S
C1134 C1133 1.374 . S
C1135 C1132 1.499 . S
C1135 C1136 1.373 1_545 S
C1135 C1137 1.389 . S
C1136 H1109 0.950 . S
C1136 C1122 1.377 . S
C1136 C1135 1.373 1_565 S
C1137 C1121 1.377 . S
C1137 C1135 1.389 . S
C1137 C1138 1.524 . S
C1138 C1137 1.524 . S
C1138 C1139 1.397 . S
C1138 C1143 1.363 . S
C1139 H1110 0.950 . S
C1139 C1138 1.397 . S
C1139 C1140 1.334 . S
C1140 H1111 0.950 . S
C1140 C1139 1.334 . S
C1140 C1141 1.287 . S
C1141 C1140 1.287 . S
C1141 C1142 1.524 . S
C1141 H1144 0.999 . S
C1142 H1112 0.950 . S
C1142 C1141 1.524 . S
C1142 C1143 1.415 . S
C1143 H1113 0.950 . S
C1143 C1138 1.363 . S
C1143 C1142 1.415 . S
H1144 C1141 0.999 . S
H1145 C1126 0.913 . S
H1146 C1164 0.951 . S
H1147 C1166 0.951 . S
H1148 C1168 0.950 . S
H1149 C1169 0.950 . S
H1150 C1171 0.950 . S
H1151 C1174 0.950 . S
H1152 C1175 0.950 . S
H1153 C1177 0.950 . S
H1154 C1178 0.950 . S
H1155 C1179 0.951 . S
H1156 C1181 0.951 . S
H1157 C1183 0.950 . S
H1158 C1184 0.950 . S
H1159 C1186 0.950 . S
H1160 C1189 0.950 . S
H1161 C1190 0.950 . S
H1162 C1192 0.950 . S
H1163 C1193 0.950 . S
C1164 H1146 0.951 . S
C1164 C1165 1.366 . S
C1164 C1166 1.388 . S
C1165 C1164 1.366 . S
C1165 C1169 1.385 . S
C1166 H1147 0.951 . S
C1166 C1164 1.388 . S
C1166 C1167 1.366 . S
C1167 C1166 1.366 . S
C1167 C1168 1.414 . S
C1167 C1170 1.499 . S
C1168 H1148 0.950 . S
C1168 C1167 1.414 . S
C1168 C1169 1.374 . S
C1169 H1149 0.950 . S
C1169 C1165 1.385 . S
C1169 C1168 1.374 . S
C1170 C1167 1.499 . S
C1170 C1171 1.373 . S
C1170 C1172 1.389 . S
C1171 H1150 0.950 . S
C1171 C1170 1.373 . S
C1171 C1187 1.377 . S
C1172 C1170 1.389 . S
C1172 C1173 1.524 . S
C1172 C1186 1.377 . S
C1173 C1172 1.524 . S
C1173 C1174 1.397 . S
C1173 C1178 1.363 . S
C1174 H1151 0.950 . S
C1174 C1173 1.397 . S
C1174 C1175 1.334 . S
C1175 H1152 0.950 . S
C1175 C1174 1.334 . S
C1175 C1176 1.287 . S
C1176 C1175 1.287 . S
C1176 C1177 1.524 . S
C1176 H1195 0.913 . S
C1177 H1153 0.950 . S
C1177 C1176 1.524 . S
C1177 C1178 1.415 . S
C1178 H1154 0.950 . S
C1178 C1173 1.363 . S
C1178 C1177 1.415 . S
C1179 H1155 0.951 . S
C1179 C1180 1.366 . S
C1179 C1181 1.388 . S
C1180 C1179 1.366 . S
C1180 C1184 1.385 . S
C1181 H1156 0.951 . S
C1181 C1179 1.388 . S
C1181 C1182 1.366 . S
C1182 C1181 1.366 . S
C1182 C1183 1.414 . S
C1182 C1185 1.499 . S
C1183 H1157 0.950 . S
C1183 C1182 1.414 . S
C1183 C1184 1.374 . S
C1184 H1158 0.950 . S
C1184 C1180 1.385 . S
C1184 C1183 1.374 . S
C1185 C1182 1.499 . S
C1185 C1186 1.373 . S
C1185 C1187 1.389 . S
C1186 H1159 0.950 . S
C1186 C1172 1.377 . S
C1186 C1185 1.373 . S
C1187 C1171 1.377 . S
C1187 C1185 1.389 . S
C1187 C1188 1.524 . S
C1188 C1187 1.524 . S
C1188 C1189 1.397 . S
C1188 C1193 1.363 . S
C1189 H1160 0.950 . S
C1189 C1188 1.397 . S
C1189 C1190 1.334 . S
C1190 H1161 0.950 . S
C1190 C1189 1.334 . S
C1190 C1191 1.287 . S
C1191 C1190 1.287 . S
C1191 C1192 1.524 . S
C1191 H1194 0.999 . S
C1192 H1162 0.950 . S
C1192 C1191 1.524 . S
C1192 C1193 1.415 . S
C1193 H1163 0.950 . S
C1193 C1188 1.363 . S
C1193 C1192 1.415 . S
H1194 C1191 0.999 . S
H1195 C1176 0.913 . S
H1196 C1214 0.951 . S
H1197 C1216 0.951 . S
H1198 C1218 0.950 . S
H1199 C1219 0.950 . S
H1200 C1221 0.950 . S
H1201 C1224 0.950 . S
H1202 C1225 0.950 . S
H1203 C1227 0.950 . S
H1204 C1228 0.950 . S
H1205 C1229 0.951 . S
H1206 C1231 0.951 . S
H1207 C1233 0.950 . S
H1208 C1234 0.950 . S
H1209 C1236 0.950 . S
H1210 C1239 0.950 . S
H1211 C1240 0.950 . S
H1212 C1242 0.950 . S
H1213 C1243 0.950 . S
C1214 H1196 0.951 . S
C1214 C1215 1.366 . S
C1214 C1216 1.388 . S
C1215 C1214 1.366 . S
C1215 C1219 1.385 . S
C1216 H1197 0.951 . S
C1216 C1214 1.388 . S
C1216 C1217 1.366 . S
C1217 C1216 1.366 . S
C1217 C1218 1.414 . S
C1217 C1220 1.499 . S
C1218 H1198 0.950 . S
C1218 C1217 1.414 . S
C1218 C1219 1.374 . S
C1219 H1199 0.950 . S
C1219 C1215 1.385 . S
C1219 C1218 1.374 . S
C1220 C1217 1.499 . S
C1220 C1221 1.373 1_655 S
C1220 C1222 1.389 . S
C1221 H1200 0.950 . S
C1221 C1220 1.373 1_455 S
C1221 C1237 1.377 . S
C1222 C1220 1.389 . S
C1222 C1223 1.524 . S
C1222 C1236 1.377 . S
C1223 C1222 1.524 . S
C1223 C1224 1.397 . S
C1223 C1228 1.363 . S
C1224 H1201 0.950 . S
C1224 C1223 1.397 . S
C1224 C1225 1.334 . S
C1225 H1202 0.950 . S
C1225 C1224 1.334 . S
C1225 C1226 1.287 . S
C1226 C1225 1.287 . S
C1226 C1227 1.524 . S
C1226 H1245 0.913 . S
C1227 H1203 0.950 . S
C1227 C1226 1.524 . S
C1227 C1228 1.415 . S
C1228 H1204 0.950 . S
C1228 C1223 1.363 . S
C1228 C1227 1.415 . S
C1229 H1205 0.951 . S
C1229 C1230 1.366 . S
C1229 C1231 1.388 . S
C1230 C1229 1.366 . S
C1230 C1234 1.385 . S
C1231 H1206 0.951 . S
C1231 C1229 1.388 . S
C1231 C1232 1.366 . S
C1232 C1231 1.366 . S
C1232 C1233 1.414 . S
C1232 C1235 1.499 . S
C1233 H1207 0.950 . S
C1233 C1232 1.414 . S
C1233 C1234 1.374 . S
C1234 H1208 0.950 . S
C1234 C1230 1.385 . S
C1234 C1233 1.374 . S
C1235 C1232 1.499 . S
C1235 C1236 1.373 . S
C1235 C1237 1.389 1_655 S
C1236 H1209 0.950 . S
C1236 C1222 1.377 . S
C1236 C1235 1.373 . S
C1237 C1221 1.377 . S
C1237 C1235 1.389 1_455 S
C1237 C1238 1.524 . S
C1238 C1237 1.524 . S
C1238 C1239 1.397 . S
C1238 C1243 1.363 . S
C1239 H1210 0.950 . S
C1239 C1238 1.397 . S
C1239 C1240 1.334 . S
C1240 H1211 0.950 . S
C1240 C1239 1.334 . S
C1240 C1241 1.287 . S
C1241 C1240 1.287 . S
C1241 C1242 1.524 . S
C1241 H1244 0.999 . S
C1242 H1212 0.950 . S
C1242 C1241 1.524 . S
C1242 C1243 1.415 . S
C1243 H1213 0.950 . S
C1243 C1238 1.363 . S
C1243 C1242 1.415 . S
H1244 C1241 0.999 . S
H1245 C1226 0.913 . S
H1246 C1264 0.951 . S
H1247 C1266 0.951 . S
H1248 C1268 0.950 . S
H1249 C1269 0.950 . S
H1250 C1271 0.950 . S
H1251 C1274 0.950 . S
H1252 C1275 0.950 . S
H1253 C1277 0.950 . S
H1254 C1278 0.950 . S
H1255 C1279 0.951 . S
H1256 C1281 0.951 . S
H1257 C1283 0.950 . S
H1258 C1284 0.950 . S
H1259 C1286 0.950 . S
H1260 C1289 0.950 . S
H1261 C1290 0.950 . S
H1262 C1292 0.950 . S
H1263 C1293 0.950 . S
C1264 H1246 0.951 . S
C1264 C1265 1.366 . S
C1264 C1266 1.388 . S
C1265 C1264 1.366 . S
C1265 C1269 1.385 . S
C1266 H1247 0.951 . S
C1266 C1264 1.388 . S
C1266 C1267 1.366 . S
C1267 C1266 1.366 . S
C1267 C1268 1.414 . S
C1267 C1270 1.499 . S
C1268 H1248 0.950 . S
C1268 C1267 1.414 . S
C1268 C1269 1.374 . S
C1269 H1249 0.950 . S
C1269 C1265 1.385 . S
C1269 C1268 1.374 . S
C1270 C1267 1.499 . S
C1270 C1271 1.373 1_565 S
C1270 C1272 1.389 . S
C1271 H1250 0.950 . S
C1271 C1270 1.373 1_545 S
C1271 C1287 1.377 . S
C1272 C1270 1.389 . S
C1272 C1273 1.524 . S
C1272 C1286 1.377 . S
C1273 C1272 1.524 . S
C1273 C1274 1.397 . S
C1273 C1278 1.363 . S
C1274 H1251 0.950 . S
C1274 C1273 1.397 . S
C1274 C1275 1.334 . S
C1275 H1252 0.950 . S
C1275 C1274 1.334 . S
C1275 C1276 1.287 . S
C1276 C1275 1.287 . S
C1276 C1277 1.524 . S
C1276 H1295 0.913 . S
C1277 H1253 0.950 . S
C1277 C1276 1.524 . S
C1277 C1278 1.415 . S
C1278 H1254 0.950 . S
C1278 C1273 1.363 . S
C1278 C1277 1.415 . S
C1279 H1255 0.951 . S
C1279 C1280 1.366 . S
C1279 C1281 1.388 . S
C1280 C1279 1.366 . S
C1280 C1284 1.385 . S
C1281 H1256 0.951 . S
C1281 C1279 1.388 . S
C1281 C1282 1.366 . S
C1282 C1281 1.366 . S
C1282 C1283 1.414 . S
C1282 C1285 1.499 . S
C1283 H1257 0.950 . S
C1283 C1282 1.414 . S
C1283 C1284 1.374 . S
C1284 H1258 0.950 . S
C1284 C1280 1.385 . S
C1284 C1283 1.374 . S
C1285 C1282 1.499 . S
C1285 C1286 1.373 . S
C1285 C1287 1.389 1_565 S
C1286 H1259 0.950 . S
C1286 C1272 1.377 . S
C1286 C1285 1.373 . S
C1287 C1271 1.377 . S
C1287 C1285 1.389 1_545 S
C1287 C1288 1.524 . S
C1288 C1287 1.524 . S
C1288 C1289 1.397 . S
C1288 C1293 1.363 . S
C1289 H1260 0.950 . S
C1289 C1288 1.397 . S
C1289 C1290 1.334 . S
C1290 H1261 0.950 . S
C1290 C1289 1.334 . S
C1290 C1291 1.287 . S
C1291 C1290 1.287 . S
C1291 C1292 1.524 . S
C1291 H1294 0.999 . S
C1292 H1262 0.950 . S
C1292 C1291 1.524 . S
C1292 C1293 1.415 . S
C1293 H1263 0.950 . S
C1293 C1288 1.363 . S
C1293 C1292 1.415 . S
H1294 C1291 0.999 . S
H1295 C1276 0.913 . S
H1296 C1314 0.951 . S
H1297 C1316 0.951 . S
H1298 C1318 0.950 . S
H1299 C1319 0.950 . S
H1300 C1321 0.950 . S
H1301 C1324 0.950 . S
H1302 C1325 0.950 . S
H1303 C1327 0.950 . S
H1304 C1328 0.950 . S
H1305 C1329 0.951 . S
H1306 C1331 0.951 . S
H1307 C1333 0.950 . S
H1308 C1334 0.950 . S
H1309 C1336 0.950 . S
H1310 C1339 0.950 . S
H1311 C1340 0.950 . S
H1312 C1342 0.950 . S
H1313 C1343 0.950 . S
C1314 H1296 0.951 . S
C1314 C1315 1.366 . S
C1314 C1316 1.388 . S
C1315 C1314 1.366 . S
C1315 C1319 1.385 . S
C1316 H1297 0.951 . S
C1316 C1314 1.388 . S
C1316 C1317 1.366 . S
C1317 C1316 1.366 . S
C1317 C1318 1.414 . S
C1317 C1320 1.499 . S
C1318 H1298 0.950 . S
C1318 C1317 1.414 . S
C1318 C1319 1.374 . S
C1319 H1299 0.950 . S
C1319 C1315 1.385 . S
C1319 C1318 1.374 . S
C1320 C1317 1.499 . S
C1320 C1321 1.373 . S
C1320 C1322 1.389 . S
C1321 H1300 0.950 . S
C1321 C1320 1.373 . S
C1321 C1337 1.377 . S
C1322 C1320 1.389 . S
C1322 C1323 1.524 . S
C1322 C1336 1.377 . S
C1323 C1322 1.524 . S
C1323 C1324 1.397 . S
C1323 C1328 1.363 . S
C1324 H1301 0.950 . S
C1324 C1323 1.397 . S
C1324 C1325 1.334 . S
C1325 H1302 0.950 . S
C1325 C1324 1.334 . S
C1325 C1326 1.287 . S
C1326 C1325 1.287 . S
C1326 C1327 1.524 . S
C1326 H1345 0.913 . S
C1327 H1303 0.950 . S
C1327 C1326 1.524 . S
C1327 C1328 1.415 . S
C1328 H1304 0.950 . S
C1328 C1323 1.363 . S
C1328 C1327 1.415 . S
C1329 H1305 0.951 . S
C1329 C1330 1.366 . S
C1329 C1331 1.388 . S
C1330 C1329 1.366 . S
C1330 C1334 1.385 . S
C1331 H1306 0.951 . S
C1331 C1329 1.388 . S
C1331 C1332 1.366 . S
C1332 C1331 1.366 . S
C1332 C1333 1.414 . S
C1332 C1335 1.499 . S
C1333 H1307 0.950 . S
C1333 C1332 1.414 . S
C1333 C1334 1.374 . S
C1334 H1308 0.950 . S
C1334 C1330 1.385 . S
C1334 C1333 1.374 . S
C1335 C1332 1.499 . S
C1335 C1336 1.373 . S
C1335 C1337 1.389 . S
C1336 H1309 0.950 . S
C1336 C1322 1.377 . S
C1336 C1335 1.373 . S
C1337 C1321 1.377 . S
C1337 C1335 1.389 . S
C1337 C1338 1.524 . S
C1338 C1337 1.524 . S
C1338 C1339 1.397 . S
C1338 C1343 1.363 . S
C1339 H1310 0.950 . S
C1339 C1338 1.397 . S
C1339 C1340 1.334 . S
C1340 H1311 0.950 . S
C1340 C1339 1.334 . S
C1340 C1341 1.287 . S
C1341 C1340 1.287 . S
C1341 C1342 1.524 . S
C1341 H1344 0.999 . S
C1342 H1312 0.950 . S
C1342 C1341 1.524 . S
C1342 C1343 1.415 . S
C1343 H1313 0.950 . S
C1343 C1338 1.363 . S
C1343 C1342 1.415 . S
H1344 C1341 0.999 . S
H1345 C1326 0.913 . S
H1346 C1364 0.951 . S
H1347 C1366 0.951 . S
H1348 C1368 0.950 . S
H1349 C1369 0.950 . S
H1350 C1371 0.950 . S
H1351 C1374 0.950 . S
H1352 C1375 0.950 . S
H1353 C1377 0.950 . S
H1354 C1378 0.950 . S
H1355 C1379 0.951 1_655 S
H1356 C1381 0.951 . S
H1357 C1383 0.950 . S
H1358 C1384 0.950 . S
H1359 C1386 0.950 . S
H1360 C1389 0.950 . S
H1361 C1390 0.950 . S
H1362 C1392 0.950 . S
H1363 C1393 0.950 . S
C1364 H1346 0.951 . S
C1364 C1365 1.366 . S
C1364 C1366 1.388 . S
C1365 C1364 1.366 . S
C1365 C1369 1.385 . S
C1366 H1347 0.951 . S
C1366 C1364 1.388 . S
C1366 C1367 1.366 . S
C1367 C1366 1.366 . S
C1367 C1368 1.414 . S
C1367 C1370 1.499 . S
C1368 H1348 0.950 . S
C1368 C1367 1.414 . S
C1368 C1369 1.374 . S
C1369 H1349 0.950 . S
C1369 C1365 1.385 . S
C1369 C1368 1.374 . S
C1370 C1367 1.499 . S
C1370 C1371 1.373 . S
C1370 C1372 1.389 . S
C1371 H1350 0.950 . S
C1371 C1370 1.373 . S
C1371 C1387 1.377 . S
C1372 C1370 1.389 . S
C1372 C1373 1.524 . S
C1372 C1386 1.377 . S
C1373 C1372 1.524 . S
C1373 C1374 1.397 . S
C1373 C1378 1.363 . S
C1374 H1351 0.950 . S
C1374 C1373 1.397 . S
C1374 C1375 1.334 . S
C1375 H1352 0.950 . S
C1375 C1374 1.334 . S
C1375 C1376 1.287 . S
C1376 C1375 1.287 . S
C1376 C1377 1.524 . S
C1376 H1395 0.913 . S
C1377 H1353 0.950 . S
C1377 C1376 1.524 . S
C1377 C1378 1.415 . S
C1378 H1354 0.950 . S
C1378 C1373 1.363 . S
C1378 C1377 1.415 . S
C1379 H1355 0.951 1_455 S
C1379 C1380 1.366 . S
C1379 C1381 1.388 . S
C1380 C1379 1.366 . S
C1380 C1384 1.385 . S
C1381 H1356 0.951 . S
C1381 C1379 1.388 . S
C1381 C1382 1.366 . S
C1382 C1381 1.366 . S
C1382 C1383 1.414 . S
C1382 C1385 1.499 . S
C1383 H1357 0.950 . S
C1383 C1382 1.414 . S
C1383 C1384 1.374 . S
C1384 H1358 0.950 . S
C1384 C1380 1.385 . S
C1384 C1383 1.374 . S
C1385 C1382 1.499 . S
C1385 C1386 1.373 . S
C1385 C1387 1.389 . S
C1386 H1359 0.950 . S
C1386 C1372 1.377 . S
C1386 C1385 1.373 . S
C1387 C1371 1.377 . S
C1387 C1385 1.389 . S
C1387 C1388 1.524 1_455 S
C1388 C1387 1.524 1_655 S
C1388 C1389 1.397 . S
C1388 C1393 1.363 . S
C1389 H1360 0.950 . S
C1389 C1388 1.397 . S
C1389 C1390 1.334 . S
C1390 H1361 0.950 . S
C1390 C1389 1.334 . S
C1390 C1391 1.287 . S
C1391 C1390 1.287 . S
C1391 C1392 1.524 . S
C1391 H1394 0.999 . S
C1392 H1362 0.950 . S
C1392 C1391 1.524 . S
C1392 C1393 1.415 . S
C1393 H1363 0.950 . S
C1393 C1388 1.363 . S
C1393 C1392 1.415 . S
H1394 C1391 0.999 . S
H1395 C1376 0.913 . S
H1396 C1414 0.951 . S
H1397 C1416 0.951 1_565 S
H1398 C1418 0.950 . S
H1399 C1419 0.950 . S
H1400 C1421 0.950 . S
H1401 C1424 0.950 . S
H1402 C1425 0.950 . S
H1403 C1427 0.950 . S
H1404 C1428 0.950 1_565 S
H1405 C1429 0.951 . S
H1406 C1431 0.951 . S
H1407 C1433 0.950 . S
H1408 C1434 0.950 . S
H1409 C1436 0.950 . S
H1410 C1439 0.950 . S
H1411 C1440 0.950 . S
H1412 C1442 0.950 . S
H1413 C1443 0.950 . S
C1414 H1396 0.951 . S
C1414 C1415 1.366 1_565 S
C1414 C1416 1.388 1_565 S
C1415 C1414 1.366 1_545 S
C1415 C1419 1.385 . S
C1416 H1397 0.951 1_545 S
C1416 C1414 1.388 1_545 S
C1416 C1417 1.366 . S
C1417 C1416 1.366 . S
C1417 C1418 1.414 . S
C1417 C1420 1.499 . S
C1418 H1398 0.950 . S
C1418 C1417 1.414 . S
C1418 C1419 1.374 . S
C1419 H1399 0.950 . S
C1419 C1415 1.385 . S
C1419 C1418 1.374 . S
C1420 C1417 1.499 . S
C1420 C1421 1.373 . S
C1420 C1422 1.389 . S
C1421 H1400 0.950 . S
C1421 C1420 1.373 . S
C1421 C1437 1.377 . S
C1422 C1420 1.389 . S
C1422 C1423 1.524 . S
C1422 C1436 1.377 . S
C1423 C1422 1.524 . S
C1423 C1424 1.397 . S
C1423 C1428 1.363 . S
C1424 H1401 0.950 . S
C1424 C1423 1.397 . S
C1424 C1425 1.334 . S
C1425 H1402 0.950 . S
C1425 C1424 1.334 . S
C1425 C1426 1.287 . S
C1426 C1425 1.287 . S
C1426 C1427 1.524 1_545 S
C1426 H1445 0.913 1_545 S
C1427 H1403 0.950 . S
C1427 C1426 1.524 1_565 S
C1427 C1428 1.415 1_565 S
C1428 H1404 0.950 1_545 S
C1428 C1423 1.363 . S
C1428 C1427 1.415 1_545 S
C1429 H1405 0.951 . S
C1429 C1430 1.366 . S
C1429 C1431 1.388 . S
C1430 C1429 1.366 . S
C1430 C1434 1.385 . S
C1431 H1406 0.951 . S
C1431 C1429 1.388 . S
C1431 C1432 1.366 . S
C1432 C1431 1.366 . S
C1432 C1433 1.414 . S
C1432 C1435 1.499 . S
C1433 H1407 0.950 . S
C1433 C1432 1.414 . S
C1433 C1434 1.374 . S
C1434 H1408 0.950 . S
C1434 C1430 1.385 . S
C1434 C1433 1.374 . S
C1435 C1432 1.499 . S
C1435 C1436 1.373 . S
C1435 C1437 1.389 . S
C1436 H1409 0.950 . S
C1436 C1422 1.377 . S
C1436 C1435 1.373 . S
C1437 C1421 1.377 . S
C1437 C1435 1.389 . S
C1437 C1438 1.524 . S
C1438 C1437 1.524 . S
C1438 C1439 1.397 . S
C1438 C1443 1.363 . S
C1439 H1410 0.950 . S
C1439 C1438 1.397 . S
C1439 C1440 1.334 . S
C1440 H1411 0.950 . S
C1440 C1439 1.334 . S
C1440 C1441 1.287 . S
C1441 C1440 1.287 . S
C1441 C1442 1.524 . S
C1441 H1444 0.999 . S
C1442 H1412 0.950 . S
C1442 C1441 1.524 . S
C1442 C1443 1.415 . S
C1443 H1413 0.950 . S
C1443 C1438 1.363 . S
C1443 C1442 1.415 . S
H1444 C1441 0.999 . S
H1445 C1426 0.913 1_565 S
H1446 C1464 0.951 . S
H1447 C1466 0.951 . S
H1448 C1468 0.950 . S
H1449 C1469 0.950 . S
H1450 C1471 0.950 . S
H1451 C1474 0.950 . S
H1452 C1475 0.950 . S
H1453 C1477 0.950 . S
H1454 C1478 0.950 . S
H1455 C1479 0.951 . S
H1456 C1481 0.951 . S
H1457 C1483 0.950 . S
H1458 C1484 0.950 . S
H1459 C1486 0.950 . S
H1460 C1489 0.950 . S
H1461 C1490 0.950 . S
H1462 C1492 0.950 . S
H1463 C1493 0.950 . S
C1464 H1446 0.951 . S
C1464 C1465 1.366 . S
C1464 C1466 1.388 . S
C1465 C1464 1.366 . S
C1465 C1469 1.385 . S
C1466 H1447 0.951 . S
C1466 C1464 1.388 . S
C1466 C1467 1.366 . S
C1467 C1466 1.366 . S
C1467 C1468 1.414 . S
C1467 C1470 1.499 . S
C1468 H1448 0.950 . S
C1468 C1467 1.414 . S
C1468 C1469 1.374 . S
C1469 H1449 0.950 . S
C1469 C1465 1.385 . S
C1469 C1468 1.374 . S
C1470 C1467 1.499 . S
C1470 C1471 1.373 . S
C1470 C1472 1.389 . S
C1471 H1450 0.950 . S
C1471 C1470 1.373 . S
C1471 C1487 1.377 . S
C1472 C1470 1.389 . S
C1472 C1473 1.524 . S
C1472 C1486 1.377 . S
C1473 C1472 1.524 . S
C1473 C1474 1.397 . S
C1473 C1478 1.363 . S
C1474 H1451 0.950 . S
C1474 C1473 1.397 . S
C1474 C1475 1.334 . S
C1475 H1452 0.950 . S
C1475 C1474 1.334 . S
C1475 C1476 1.287 . S
C1476 C1475 1.287 . S
C1476 C1477 1.524 . S
C1476 H1495 0.913 . S
C1477 H1453 0.950 . S
C1477 C1476 1.524 . S
C1477 C1478 1.415 . S
C1478 H1454 0.950 . S
C1478 C1473 1.363 . S
C1478 C1477 1.415 . S
C1479 H1455 0.951 . S
C1479 C1480 1.366 . S
C1479 C1481 1.388 . S
C1480 C1479 1.366 . S
C1480 C1484 1.385 . S
C1481 H1456 0.951 . S
C1481 C1479 1.388 . S
C1481 C1482 1.366 . S
C1482 C1481 1.366 . S
C1482 C1483 1.414 . S
C1482 C1485 1.499 . S
C1483 H1457 0.950 . S
C1483 C1482 1.414 . S
C1483 C1484 1.374 . S
C1484 H1458 0.950 . S
C1484 C1480 1.385 . S
C1484 C1483 1.374 . S
C1485 C1482 1.499 . S
C1485 C1486 1.373 . S
C1485 C1487 1.389 . S
C1486 H1459 0.950 . S
C1486 C1472 1.377 . S
C1486 C1485 1.373 . S
C1487 C1471 1.377 . S
C1487 C1485 1.389 . S
C1487 C1488 1.524 . S
C1488 C1487 1.524 . S
C1488 C1489 1.397 . S
C1488 C1493 1.363 . S
C1489 H1460 0.950 . S
C1489 C1488 1.397 . S
C1489 C1490 1.334 1_565 S
C1490 H1461 0.950 . S
C1490 C1489 1.334 1_545 S
C1490 C1491 1.287 . S
C1491 C1490 1.287 . S
C1491 C1492 1.524 . S
C1491 H1494 0.999 . S
C1492 H1462 0.950 . S
C1492 C1491 1.524 . S
C1492 C1493 1.415 1_545 S
C1493 H1463 0.950 . S
C1493 C1488 1.363 . S
C1493 C1492 1.415 1_565 S
H1494 C1491 0.999 . S
H1495 C1476 0.913 . S
H1496 C1514 0.951 . S
H1497 C1516 0.951 . S
H1498 C1518 0.950 . S
H1499 C1519 0.950 1_455 S
H1500 C1521 0.950 . S
H1501 C1524 0.950 . S
H1502 C1525 0.950 . S
H1503 C1527 0.950 . S
H1504 C1528 0.950 . S
H1505 C1529 0.951 . S
H1506 C1531 0.951 . S
H1507 C1533 0.950 . S
H1508 C1534 0.950 . S
H1509 C1536 0.950 . S
H1510 C1539 0.950 . S
H1511 C1540 0.950 . S
H1512 C1542 0.950 . S
H1513 C1543 0.950 . S
C1514 H1496 0.951 . S
C1514 C1515 1.366 . S
C1514 C1516 1.388 . S
C1515 C1514 1.366 . S
C1515 C1519 1.385 . S
C1516 H1497 0.951 . S
C1516 C1514 1.388 . S
C1516 C1517 1.366 . S
C1517 C1516 1.366 . S
C1517 C1518 1.414 . S
C1517 C1520 1.499 . S
C1518 H1498 0.950 . S
C1518 C1517 1.414 . S
C1518 C1519 1.374 . S
C1519 H1499 0.950 1_655 S
C1519 C1515 1.385 . S
C1519 C1518 1.374 . S
C1520 C1517 1.499 . S
C1520 C1521 1.373 . S
C1520 C1522 1.389 . S
C1521 H1500 0.950 . S
C1521 C1520 1.373 . S
C1521 C1537 1.377 . S
C1522 C1520 1.389 . S
C1522 C1523 1.524 . S
C1522 C1536 1.377 . S
C1523 C1522 1.524 . S
C1523 C1524 1.397 . S
C1523 C1528 1.363 . S
C1524 H1501 0.950 . S
C1524 C1523 1.397 . S
C1524 C1525 1.334 . S
C1525 H1502 0.950 . S
C1525 C1524 1.334 . S
C1525 C1526 1.287 . S
C1526 C1525 1.287 . S
C1526 C1527 1.524 . S
C1526 H1545 0.913 . S
C1527 H1503 0.950 . S
C1527 C1526 1.524 . S
C1527 C1528 1.415 . S
C1528 H1504 0.950 . S
C1528 C1523 1.363 . S
C1528 C1527 1.415 . S
C1529 H1505 0.951 . S
C1529 C1530 1.366 . S
C1529 C1531 1.388 . S
C1530 C1529 1.366 . S
C1530 C1534 1.385 . S
C1531 H1506 0.951 . S
C1531 C1529 1.388 . S
C1531 C1532 1.366 . S
C1532 C1531 1.366 . S
C1532 C1533 1.414 . S
C1532 C1535 1.499 . S
C1533 H1507 0.950 . S
C1533 C1532 1.414 . S
C1533 C1534 1.374 . S
C1534 H1508 0.950 . S
C1534 C1530 1.385 . S
C1534 C1533 1.374 . S
C1535 C1532 1.499 . S
C1535 C1536 1.373 . S
C1535 C1537 1.389 . S
C1536 H1509 0.950 . S
C1536 C1522 1.377 . S
C1536 C1535 1.373 . S
C1537 C1521 1.377 . S
C1537 C1535 1.389 . S
C1537 C1538 1.524 . S
C1538 C1537 1.524 . S
C1538 C1539 1.397 . S
C1538 C1543 1.363 1_655 S
C1539 H1510 0.950 . S
C1539 C1538 1.397 . S
C1539 C1540 1.334 1_655 S
C1540 H1511 0.950 . S
C1540 C1539 1.334 1_455 S
C1540 C1541 1.287 . S
C1541 C1540 1.287 . S
C1541 C1542 1.524 . S
C1541 H1544 0.999 . S
C1542 H1512 0.950 . S
C1542 C1541 1.524 . S
C1542 C1543 1.415 . S
C1543 H1513 0.950 . S
C1543 C1538 1.363 1_455 S
C1543 C1542 1.415 . S
H1544 C1541 0.999 . S
H1545 C1526 0.913 . S
H1546 C1564 0.951 . S
H1547 C1566 0.951 . S
H1548 C1568 0.950 . S
H1549 C1569 0.950 . S
H1550 C1571 0.950 . S
H1551 C1574 0.950 . S
H1552 C1575 0.950 . S
H1553 C1577 0.950 1_655 S
H1554 C1578 0.950 . S
H1555 C1579 0.951 . S
H1556 C1581 0.951 . S
H1557 C1583 0.950 . S
H1558 C1584 0.950 . S
H1559 C1586 0.950 . S
H1560 C1589 0.950 . S
H1561 C1590 0.950 . S
H1562 C1592 0.950 . S
H1563 C1593 0.950 . S
C1564 H1546 0.951 . S
C1564 C1565 1.366 . S
C1564 C1566 1.388 . S
C1565 C1564 1.366 . S
C1565 C1569 1.385 . S
C1566 H1547 0.951 . S
C1566 C1564 1.388 . S
C1566 C1567 1.366 . S
C1567 C1566 1.366 . S
C1567 C1568 1.414 . S
C1567 C1570 1.499 . S
C1568 H1548 0.950 . S
C1568 C1567 1.414 . S
C1568 C1569 1.374 . S
C1569 H1549 0.950 . S
C1569 C1565 1.385 . S
C1569 C1568 1.374 . S
C1570 C1567 1.499 . S
C1570 C1571 1.373 . S
C1570 C1572 1.389 . S
C1571 H1550 0.950 . S
C1571 C1570 1.373 . S
C1571 C1587 1.377 . S
C1572 C1570 1.389 . S
C1572 C1573 1.524 . S
C1572 C1586 1.377 . S
C1573 C1572 1.524 . S
C1573 C1574 1.397 . S
C1573 C1578 1.363 . S
C1574 H1551 0.950 . S
C1574 C1573 1.397 . S
C1574 C1575 1.334 . S
C1575 H1552 0.950 . S
C1575 C1574 1.334 . S
C1575 C1576 1.287 . S
C1576 C1575 1.287 . S
C1576 C1577 1.524 . S
C1576 H1595 0.913 . S
C1577 H1553 0.950 1_455 S
C1577 C1576 1.524 . S
C1577 C1578 1.415 . S
C1578 H1554 0.950 . S
C1578 C1573 1.363 . S
C1578 C1577 1.415 . S
C1579 H1555 0.951 . S
C1579 C1580 1.366 . S
C1579 C1581 1.388 . S
C1580 C1579 1.366 . S
C1580 C1584 1.385 . S
C1581 H1556 0.951 . S
C1581 C1579 1.388 . S
C1581 C1582 1.366 . S
C1582 C1581 1.366 . S
C1582 C1583 1.414 . S
C1582 C1585 1.499 . S
C1583 H1557 0.950 . S
C1583 C1582 1.414 . S
C1583 C1584 1.374 . S
C1584 H1558 0.950 . S
C1584 C1580 1.385 . S
C1584 C1583 1.374 . S
C1585 C1582 1.499 . S
C1585 C1586 1.373 . S
C1585 C1587 1.389 . S
C1586 H1559 0.950 . S
C1586 C1572 1.377 . S
C1586 C1585 1.373 . S
C1587 C1571 1.377 . S
C1587 C1585 1.389 . S
C1587 C1588 1.524 . S
C1588 C1587 1.524 . S
C1588 C1589 1.397 . S
C1588 C1593 1.363 . S
C1589 H1560 0.950 . S
C1589 C1588 1.397 . S
C1589 C1590 1.334 1_565 S
C1590 H1561 0.950 . S
C1590 C1589 1.334 1_545 S
C1590 C1591 1.287 . S
C1591 C1590 1.287 . S
C1591 C1592 1.524 1_545 S
C1591 H1594 0.999 . S
C1592 H1562 0.950 . S
C1592 C1591 1.524 1_565 S
C1592 C1593 1.415 . S
C1593 H1563 0.950 . S
C1593 C1588 1.363 . S
C1593 C1592 1.415 . S
H1594 C1591 0.999 . S
H1595 C1576 0.913 . S
H1596 C1614 0.951 . S
H1597 C1616 0.951 . S
H1598 C1618 0.950 . S
H1599 C1619 0.950 . S
H1600 C1621 0.950 . S
H1601 C1624 0.950 . S
H1602 C1625 0.950 . S
H1603 C1627 0.950 . S
H1604 C1628 0.950 . S
H1605 C1629 0.951 . S
H1606 C1631 0.951 . S
H1607 C1633 0.950 . S
H1608 C1634 0.950 . S
H1609 C1636 0.950 . S
H1610 C1639 0.950 . S
H1611 C1640 0.950 . S
H1612 C1642 0.950 . S
H1613 C1643 0.950 . S
C1614 H1596 0.951 . S
C1614 C1615 1.366 . S
C1614 C1616 1.388 . S
C1615 C1614 1.366 . S
C1615 C1619 1.385 . S
C1616 H1597 0.951 . S
C1616 C1614 1.388 . S
C1616 C1617 1.366 . S
C1617 C1616 1.366 . S
C1617 C1618 1.414 . S
C1617 C1620 1.499 . S
C1618 H1598 0.950 . S
C1618 C1617 1.414 . S
C1618 C1619 1.374 . S
C1619 H1599 0.950 . S
C1619 C1615 1.385 . S
C1619 C1618 1.374 . S
C1620 C1617 1.499 . S
C1620 C1621 1.373 . S
C1620 C1622 1.389 . S
C1621 H1600 0.950 . S
C1621 C1620 1.373 . S
C1621 C1637 1.377 . S
C1622 C1620 1.389 . S
C1622 C1623 1.524 . S
C1622 C1636 1.377 . S
C1623 C1622 1.524 . S
C1623 C1624 1.397 . S
C1623 C1628 1.363 . S
C1624 H1601 0.950 . S
C1624 C1623 1.397 . S
C1624 C1625 1.334 . S
C1625 H1602 0.950 . S
C1625 C1624 1.334 . S
C1625 C1626 1.287 . S
C1626 C1625 1.287 . S
C1626 C1627 1.524 . S
C1626 H1645 0.913 . S
C1627 H1603 0.950 . S
C1627 C1626 1.524 . S
C1627 C1628 1.415 . S
C1628 H1604 0.950 . S
C1628 C1623 1.363 . S
C1628 C1627 1.415 . S
C1629 H1605 0.951 . S
C1629 C1630 1.366 . S
C1629 C1631 1.388 . S
C1630 C1629 1.366 . S
C1630 C1634 1.385 . S
C1631 H1606 0.951 . S
C1631 C1629 1.388 . S
C1631 C1632 1.366 . S
C1632 C1631 1.366 . S
C1632 C1633 1.414 . S
C1632 C1635 1.499 . S
C1633 H1607 0.950 . S
C1633 C1632 1.414 . S
C1633 C1634 1.374 . S
C1634 H1608 0.950 . S
C1634 C1630 1.385 . S
C1634 C1633 1.374 . S
C1635 C1632 1.499 . S
C1635 C1636 1.373 . S
C1635 C1637 1.389 . S
C1636 H1609 0.950 . S
C1636 C1622 1.377 . S
C1636 C1635 1.373 . S
C1637 C1621 1.377 . S
C1637 C1635 1.389 . S
C1637 C1638 1.524 . S
C1638 C1637 1.524 . S
C1638 C1639 1.397 . S
C1638 C1643 1.363 . S
C1639 H1610 0.950 . S
C1639 C1638 1.397 . S
C1639 C1640 1.334 1_655 S
C1640 H1611 0.950 . S
C1640 C1639 1.334 1_455 S
C1640 C1641 1.287 . S
C1641 C1640 1.287 . S
C1641 C1642 1.524 . S
C1641 H1644 0.999 . S
C1642 H1612 0.950 . S
C1642 C1641 1.524 . S
C1642 C1643 1.415 1_455 S
C1643 H1613 0.950 . S
C1643 C1638 1.363 . S
C1643 C1642 1.415 1_655 S
H1644 C1641 0.999 . S
H1645 C1626 0.913 . S
H1646 C1664 0.951 . S
H1647 C1666 0.951 . S
H1648 C1668 0.950 . S
H1649 C1669 0.950 . S
H1650 C1671 0.950 . S
H1651 C1674 0.950 . S
H1652 C1675 0.950 . S
H1653 C1677 0.950 . S
H1654 C1678 0.950 . S
H1655 C1679 0.951 1_655 S
H1656 C1681 0.951 . S
H1657 C1683 0.950 . S
H1658 C1684 0.950 . S
H1659 C1686 0.950 . S
H1660 C1689 0.950 . S
H1661 C1690 0.950 . S
H1662 C1692 0.950 . S
H1663 C1693 0.950 . S
C1664 H1646 0.951 . S
C1664 C1665 1.366 . S
C1664 C1666 1.388 . S
C1665 C1664 1.366 . S
C1665 C1669 1.385 . S
C1666 H1647 0.951 . S
C1666 C1664 1.388 . S
C1666 C1667 1.366 . S
C1667 C1666 1.366 . S
C1667 C1668 1.414 . S
C1667 C1670 1.499 . S
C1668 H1648 0.950 . S
C1668 C1667 1.414 . S
C1668 C1669 1.374 . S
C1669 H1649 0.950 . S
C1669 C1665 1.385 . S
C1669 C1668 1.374 . S
C1670 C1667 1.499 . S
C1670 C1671 1.373 . S
C1670 C1672 1.389 . S
C1671 H1650 0.950 . S
C1671 C1670 1.373 . S
C1671 C1687 1.377 . S
C1672 C1670 1.389 . S
C1672 C1673 1.524 . S
C1672 C1686 1.377 . S
C1673 C1672 1.524 . S
C1673 C1674 1.397 . S
C1673 C1678 1.363 . S
C1674 H1651 0.950 . S
C1674 C1673 1.397 . S
C1674 C1675 1.334 . S
C1675 H1652 0.950 . S
C1675 C1674 1.334 . S
C1675 C1676 1.287 . S
C1676 C1675 1.287 . S
C1676 C1677 1.524 1_565 S
C1676 H1695 0.913 1_565 S
C1677 H1653 0.950 . S
C1677 C1676 1.524 1_545 S
C1677 C1678 1.415 1_545 S
C1678 H1654 0.950 . S
C1678 C1673 1.363 . S
C1678 C1677 1.415 1_565 S
C1679 H1655 0.951 1_455 S
C1679 C1680 1.366 . S
C1679 C1681 1.388 . S
C1680 C1679 1.366 . S
C1680 C1684 1.385 . S
C1681 H1656 0.951 . S
C1681 C1679 1.388 . S
C1681 C1682 1.366 . S
C1682 C1681 1.366 . S
C1682 C1683 1.414 . S
C1682 C1685 1.499 . S
C1683 H1657 0.950 . S
C1683 C1682 1.414 . S
C1683 C1684 1.374 . S
C1684 H1658 0.950 . S
C1684 C1680 1.385 . S
C1684 C1683 1.374 . S
C1685 C1682 1.499 . S
C1685 C1686 1.373 . S
C1685 C1687 1.389 . S
C1686 H1659 0.950 . S
C1686 C1672 1.377 . S
C1686 C1685 1.373 . S
C1687 C1671 1.377 . S
C1687 C1685 1.389 . S
C1687 C1688 1.524 . S
C1688 C1687 1.524 . S
C1688 C1689 1.397 . S
C1688 C1693 1.363 . S
C1689 H1660 0.950 . S
C1689 C1688 1.397 . S
C1689 C1690 1.334 . S
C1690 H1661 0.950 . S
C1690 C1689 1.334 . S
C1690 C1691 1.287 . S
C1691 C1690 1.287 . S
C1691 C1692 1.524 . S
C1691 H1694 0.999 . S
C1692 H1662 0.950 . S
C1692 C1691 1.524 . S
C1692 C1693 1.415 . S
C1693 H1663 0.950 . S
C1693 C1688 1.363 . S
C1693 C1692 1.415 . S
H1694 C1691 0.999 . S
H1695 C1676 0.913 1_545 S
H1696 C1714 0.951 1_565 S
H1697 C1716 0.951 . S
H1698 C1718 0.950 . S
H1699 C1719 0.950 . S
H1700 C1721 0.950 . S
H1701 C1724 0.950 . S
H1702 C1725 0.950 . S
H1703 C1727 0.950 . S
H1704 C1728 0.950 . S
H1705 C1729 0.951 . S
H1706 C1731 0.951 . S
H1707 C1733 0.950 . S
H1708 C1734 0.950 . S
H1709 C1736 0.950 . S
H1710 C1739 0.950 . S
H1711 C1740 0.950 . S
H1712 C1742 0.950 . S
H1713 C1743 0.950 . S
C1714 H1696 0.951 1_545 S
C1714 C1715 1.366 . S
C1714 C1716 1.388 . S
C1715 C1714 1.366 . S
C1715 C1719 1.385 . S
C1716 H1697 0.951 . S
C1716 C1714 1.388 . S
C1716 C1717 1.366 . S
C1717 C1716 1.366 . S
C1717 C1718 1.414 . S
C1717 C1720 1.499 . S
C1718 H1698 0.950 . S
C1718 C1717 1.414 . S
C1718 C1719 1.374 . S
C1719 H1699 0.950 . S
C1719 C1715 1.385 . S
C1719 C1718 1.374 . S
C1720 C1717 1.499 . S
C1720 C1721 1.373 . S
C1720 C1722 1.389 . S
C1721 H1700 0.950 . S
C1721 C1720 1.373 . S
C1721 C1737 1.377 . S
C1722 C1720 1.389 . S
C1722 C1723 1.524 . S
C1722 C1736 1.377 . S
C1723 C1722 1.524 . S
C1723 C1724 1.397 . S
C1723 C1728 1.363 . S
C1724 H1701 0.950 . S
C1724 C1723 1.397 . S
C1724 C1725 1.334 . S
C1725 H1702 0.950 . S
C1725 C1724 1.334 . S
C1725 C1726 1.287 . S
C1726 C1725 1.287 . S
C1726 C1727 1.524 . S
C1726 H1745 0.913 . S
C1727 H1703 0.950 . S
C1727 C1726 1.524 . S
C1727 C1728 1.415 . S
C1728 H1704 0.950 . S
C1728 C1723 1.363 . S
C1728 C1727 1.415 . S
C1729 H1705 0.951 . S
C1729 C1730 1.366 . S
C1729 C1731 1.388 . S
C1730 C1729 1.366 . S
C1730 C1734 1.385 . S
C1731 H1706 0.951 . S
C1731 C1729 1.388 . S
C1731 C1732 1.366 . S
C1732 C1731 1.366 . S
C1732 C1733 1.414 . S
C1732 C1735 1.499 . S
C1733 H1707 0.950 . S
C1733 C1732 1.414 . S
C1733 C1734 1.374 . S
C1734 H1708 0.950 . S
C1734 C1730 1.385 . S
C1734 C1733 1.374 . S
C1735 C1732 1.499 . S
C1735 C1736 1.373 . S
C1735 C1737 1.389 . S
C1736 H1709 0.950 . S
C1736 C1722 1.377 . S
C1736 C1735 1.373 . S
C1737 C1721 1.377 . S
C1737 C1735 1.389 . S
C1737 C1738 1.524 . S
C1738 C1737 1.524 . S
C1738 C1739 1.397 . S
C1738 C1743 1.363 . S
C1739 H1710 0.950 . S
C1739 C1738 1.397 . S
C1739 C1740 1.334 . S
C1740 H1711 0.950 . S
C1740 C1739 1.334 . S
C1740 C1741 1.287 . S
C1741 C1740 1.287 . S
C1741 C1742 1.524 . S
C1741 H1744 0.999 . S
C1742 H1712 0.950 . S
C1742 C1741 1.524 . S
C1742 C1743 1.415 . S
C1743 H1713 0.950 . S
C1743 C1738 1.363 . S
C1743 C1742 1.415 . S
H1744 C1741 0.999 . S
H1745 C1726 0.913 . S
H1746 C1764 0.951 . S
H1747 C1766 0.951 . S
H1748 C1768 0.950 . S
H1749 C1769 0.950 . S
H1750 C1771 0.950 . S
H1751 C1774 0.950 . S
H1752 C1775 0.950 . S
H1753 C1777 0.950 . S
H1754 C1778 0.950 . S
H1755 C1779 0.951 . S
H1756 C1781 0.951 . S
H1757 C1783 0.950 . S
H1758 C1784 0.950 . S
H1759 C1786 0.950 . S
H1760 C1789 0.950 . S
H1761 C1790 0.950 . S
H1762 C1792 0.950 . S
H1763 C1793 0.950 . S
C1764 H1746 0.951 . S
C1764 C1765 1.366 . S
C1764 C1766 1.388 . S
C1765 C1764 1.366 . S
C1765 C1769 1.385 . S
C1766 H1747 0.951 . S
C1766 C1764 1.388 . S
C1766 C1767 1.366 . S
C1767 C1766 1.366 . S
C1767 C1768 1.414 . S
C1767 C1770 1.499 . S
C1768 H1748 0.950 . S
C1768 C1767 1.414 . S
C1768 C1769 1.374 . S
C1769 H1749 0.950 . S
C1769 C1765 1.385 . S
C1769 C1768 1.374 . S
C1770 C1767 1.499 . S
C1770 C1771 1.373 . S
C1770 C1772 1.389 . S
C1771 H1750 0.950 . S
C1771 C1770 1.373 . S
C1771 C1787 1.377 . S
C1772 C1770 1.389 . S
C1772 C1773 1.524 . S
C1772 C1786 1.377 . S
C1773 C1772 1.524 . S
C1773 C1774 1.397 . S
C1773 C1778 1.363 . S
C1774 H1751 0.950 . S
C1774 C1773 1.397 . S
C1774 C1775 1.334 . S
C1775 H1752 0.950 . S
C1775 C1774 1.334 . S
C1775 C1776 1.287 . S
C1776 C1775 1.287 . S
C1776 C1777 1.524 . S
C1776 H1795 0.913 . S
C1777 H1753 0.950 . S
C1777 C1776 1.524 . S
C1777 C1778 1.415 . S
C1778 H1754 0.950 . S
C1778 C1773 1.363 . S
C1778 C1777 1.415 . S
C1779 H1755 0.951 . S
C1779 C1780 1.366 . S
C1779 C1781 1.388 . S
C1780 C1779 1.366 . S
C1780 C1784 1.385 . S
C1781 H1756 0.951 . S
C1781 C1779 1.388 . S
C1781 C1782 1.366 . S
C1782 C1781 1.366 . S
C1782 C1783 1.414 . S
C1782 C1785 1.499 . S
C1783 H1757 0.950 . S
C1783 C1782 1.414 . S
C1783 C1784 1.374 . S
C1784 H1758 0.950 . S
C1784 C1780 1.385 . S
C1784 C1783 1.374 . S
C1785 C1782 1.499 . S
C1785 C1786 1.373 . S
C1785 C1787 1.389 . S
C1786 H1759 0.950 . S
C1786 C1772 1.377 . S
C1786 C1785 1.373 . S
C1787 C1771 1.377 . S
C1787 C1785 1.389 . S
C1787 C1788 1.524 . S
C1788 C1787 1.524 . S
C1788 C1789 1.397 . S
C1788 C1793 1.363 . S
C1789 H1760 0.950 . S
C1789 C1788 1.397 . S
C1789 C1790 1.334 . S
C1790 H1761 0.950 . S
C1790 C1789 1.334 . S
C1790 C1791 1.287 . S
C1791 C1790 1.287 . S
C1791 C1792 1.524 . S
C1791 H1794 0.999 . S
C1792 H1762 0.950 . S
C1792 C1791 1.524 . S
C1792 C1793 1.415 . S
C1793 H1763 0.950 . S
C1793 C1788 1.363 . S
C1793 C1792 1.415 . S
H1794 C1791 0.999 . S
H1795 C1776 0.913 . S
H1796 C1814 0.951 . S
H1797 C1816 0.951 . S
H1798 C1818 0.950 . S
H1799 C1819 0.950 1_455 S
H1800 C1821 0.950 . S
H1801 C1824 0.950 . S
H1802 C1825 0.950 . S
H1803 C1827 0.950 . S
H1804 C1828 0.950 . S
H1805 C1829 0.951 . S
H1806 C1831 0.951 . S
H1807 C1833 0.950 . S
H1808 C1834 0.950 . S
H1809 C1836 0.950 . S
H1810 C1839 0.950 . S
H1811 C1840 0.950 . S
H1812 C1842 0.950 . S
H1813 C1843 0.950 . S
C1814 H1796 0.951 . S
C1814 C1815 1.366 . S
C1814 C1816 1.388 . S
C1815 C1814 1.366 . S
C1815 C1819 1.385 . S
C1816 H1797 0.951 . S
C1816 C1814 1.388 . S
C1816 C1817 1.366 . S
C1817 C1816 1.366 . S
C1817 C1818 1.414 . S
C1817 C1820 1.499 . S
C1818 H1798 0.950 . S
C1818 C1817 1.414 . S
C1818 C1819 1.374 . S
C1819 H1799 0.950 1_655 S
C1819 C1815 1.385 . S
C1819 C1818 1.374 . S
C1820 C1817 1.499 . S
C1820 C1821 1.373 . S
C1820 C1822 1.389 . S
C1821 H1800 0.950 . S
C1821 C1820 1.373 . S
C1821 C1837 1.377 . S
C1822 C1820 1.389 . S
C1822 C1823 1.524 . S
C1822 C1836 1.377 . S
C1823 C1822 1.524 . S
C1823 C1824 1.397 . S
C1823 C1828 1.363 . S
C1824 H1801 0.950 . S
C1824 C1823 1.397 . S
C1824 C1825 1.334 . S
C1825 H1802 0.950 . S
C1825 C1824 1.334 . S
C1825 C1826 1.287 . S
C1826 C1825 1.287 . S
C1826 C1827 1.524 . S
C1826 H1845 0.913 . S
C1827 H1803 0.950 . S
C1827 C1826 1.524 . S
C1827 C1828 1.415 . S
C1828 H1804 0.950 . S
C1828 C1823 1.363 . S
C1828 C1827 1.415 . S
C1829 H1805 0.951 . S
C1829 C1830 1.366 . S
C1829 C1831 1.388 . S
C1830 C1829 1.366 . S
C1830 C1834 1.385 . S
C1831 H1806 0.951 . S
C1831 C1829 1.388 . S
C1831 C1832 1.366 . S
C1832 C1831 1.366 . S
C1832 C1833 1.414 . S
C1832 C1835 1.499 . S
C1833 H1807 0.950 . S
C1833 C1832 1.414 . S
C1833 C1834 1.374 . S
C1834 H1808 0.950 . S
C1834 C1830 1.385 . S
C1834 C1833 1.374 . S
C1835 C1832 1.499 . S
C1835 C1836 1.373 . S
C1835 C1837 1.389 . S
C1836 H1809 0.950 . S
C1836 C1822 1.377 . S
C1836 C1835 1.373 . S
C1837 C1821 1.377 . S
C1837 C1835 1.389 . S
C1837 C1838 1.524 . S
C1838 C1837 1.524 . S
C1838 C1839 1.397 . S
C1838 C1843 1.363 1_655 S
C1839 H1810 0.950 . S
C1839 C1838 1.397 . S
C1839 C1840 1.334 . S
C1840 H1811 0.950 . S
C1840 C1839 1.334 . S
C1840 C1841 1.287 1_655 S
C1841 C1840 1.287 1_455 S
C1841 C1842 1.524 . S
C1841 H1844 0.999 . S
C1842 H1812 0.950 . S
C1842 C1841 1.524 . S
C1842 C1843 1.415 . S
C1843 H1813 0.950 . S
C1843 C1838 1.363 1_455 S
C1843 C1842 1.415 . S
H1844 C1841 0.999 . S
H1845 C1826 0.913 . S
H1846 C1864 0.951 . S
H1847 C1866 0.951 . S
H1848 C1868 0.950 . S
H1849 C1869 0.950 1_545 S
H1850 C1871 0.950 . S
H1851 C1874 0.950 . S
H1852 C1875 0.950 . S
H1853 C1877 0.950 . S
H1854 C1878 0.950 . S
H1855 C1879 0.951 . S
H1856 C1881 0.951 . S
H1857 C1883 0.950 . S
H1858 C1884 0.950 . S
H1859 C1886 0.950 . S
H1860 C1889 0.950 . S
H1861 C1890 0.944 1_565 S
H1862 C1892 0.950 . S
H1863 C1893 0.950 . S
C1864 H1846 0.951 . S
C1864 C1865 1.366 . S
C1864 C1866 1.388 . S
C1865 C1864 1.366 . S
C1865 C1869 1.385 . S
C1866 H1847 0.951 . S
C1866 C1864 1.388 . S
C1866 C1867 1.366 . S
C1867 C1866 1.366 . S
C1867 C1868 1.414 . S
C1867 C1870 1.499 . S
C1868 H1848 0.950 . S
C1868 C1867 1.414 . S
C1868 C1869 1.374 . S
C1869 H1849 0.950 1_565 S
C1869 C1865 1.385 . S
C1869 C1868 1.374 . S
C1870 C1867 1.499 . S
C1870 C1871 1.373 . S
C1870 C1872 1.389 . S
C1871 H1850 0.950 . S
C1871 C1870 1.373 . S
C1871 C1887 1.377 . S
C1872 C1870 1.389 . S
C1872 C1873 1.524 . S
C1872 C1886 1.377 . S
C1873 C1872 1.524 . S
C1873 C1874 1.397 . S
C1873 C1878 1.363 . S
C1874 H1851 0.950 . S
C1874 C1873 1.397 . S
C1874 C1875 1.334 . S
C1875 H1852 0.950 . S
C1875 C1874 1.334 . S
C1875 C1876 1.287 . S
C1876 C1875 1.287 . S
C1876 C1877 1.524 . S
C1876 H1895 0.913 . S
C1877 H1853 0.950 . S
C1877 C1876 1.524 . S
C1877 C1878 1.415 . S
C1878 H1854 0.950 . S
C1878 C1873 1.363 . S
C1878 C1877 1.415 . S
C1879 H1855 0.951 . S
C1879 C1880 1.366 . S
C1879 C1881 1.388 . S
C1880 C1879 1.366 . S
C1880 C1884 1.385 . S
C1881 H1856 0.951 . S
C1881 C1879 1.388 . S
C1881 C1882 1.366 . S
C1882 C1881 1.366 . S
C1882 C1883 1.414 . S
C1882 C1885 1.499 . S
C1883 H1857 0.950 . S
C1883 C1882 1.414 . S
C1883 C1884 1.374 . S
C1884 H1858 0.950 . S
C1884 C1880 1.385 . S
C1884 C1883 1.374 . S
C1885 C1882 1.499 . S
C1885 C1886 1.373 . S
C1885 C1887 1.389 . S
C1886 H1859 0.950 . S
C1886 C1872 1.377 . S
C1886 C1885 1.373 . S
C1887 C1871 1.377 . S
C1887 C1885 1.389 . S
C1887 C1888 1.524 . S
C1888 C1887 1.524 . S
C1888 C1889 1.397 . S
C1888 C1893 1.363 1_565 S
C1889 H1860 0.950 . S
C1889 C1888 1.397 . S
C1889 C1890 1.334 1_565 S
C1890 H1861 0.944 1_545 S
C1890 C1889 1.334 1_545 S
C1890 C1891 1.287 . S
C1891 C1890 1.287 . S
C1891 C1892 1.524 . S
C1891 H1894 0.999 . S
C1892 H1862 0.950 . S
C1892 C1891 1.524 . S
C1892 C1893 1.415 . S
C1893 H1863 0.950 . S
C1893 C1888 1.363 1_545 S
C1893 C1892 1.415 . S
H1894 C1891 0.999 . S
H1895 C1876 0.913 . S
C415 C18 1.811 . S
C430 C370 1.753 . S
C465 C51 1.811 . S
C480 C205 1.753 . S
C515 C238 1.753 . S
C530 C84 1.811 . S
C565 C271 1.753 . S
C580 C117 1.810 . S
C615 C150 1.811 . S
C630 C304 1.773 . S
C665 C183 1.811 . S
C680 C337 1.753 . S
C715 C40 1.753 . S
C730 C216 1.811 . S
C765 C249 1.811 . S
C780 C73 1.753 . S
C815 C106 1.754 . S
C830 C282 1.811 . S
C865 C315 1.811 . S
C880 C139 1.773 . S
C915 C348 1.811 . S
C930 C172 1.754 . S
C965 C7 1.754 . S
C980 C381 1.811 . S
C1015 N200 0.324 . S
C1030 N2 0.320 . S
C1065 N35 0.321 . S
C1080 N233 0.323 . S
C1115 N68 0.320 . S
C1130 N266 0.324 . S
C1165 N101 0.322 . S
C1180 N299 0.322 . S
C1215 N332 0.324 . S
C1230 N134 0.320 . S
C1265 N365 0.324 . S
C1280 N167 0.320 . S
C1315 C186 0.883 . S
C1330 N13 0.894 . S
C1365 C21 0.885 . S
C1380 N46 0.895 . S
C1415 N79 0.893 . S
C1430 C54 0.885 . S
C1465 N112 0.895 . S
C1480 C87 0.885 . S
C1515 N145 0.894 . S
C1530 C120 0.883 . S
C1565 N178 0.894 . S
C1580 C153 0.883 . S
C1615 N211 0.895 . S
C1630 C252 0.885 . S
C1665 C285 0.883 . S
C1680 N244 0.895 . S
C1715 N277 0.893 . S
C1730 C318 0.884 . S
C1765 N310 0.895 . S
C1780 C351 0.883 . S
C1815 N343 0.895 . S
C1830 C384 0.883 . S
C1865 N376 0.894 . S
C1880 C219 0.883 . S
