# Generated by pormake.
# Topology unu, (4)-cn, num edge types: 1
# Building blocks:
#     Node 0, Type 0, BuildingBlock: CEKHIL_clean_sbu_0, # of connection points: 4
#     Node 1, Type 0, BuildingBlock: CEKHIL_clean_sbu_0, # of connection points: 4
#     Node 2, Type 0, BuildingBlock: CEKHIL_clean_sbu_0, # of connection points: 4
#     Node 3, Type 0, BuildingBlock: CEKHIL_clean_sbu_0, # of connection points: 4
#     Node 4, Type 0, BuildingBlock: CEKHIL_clean_sbu_0, # of connection points: 4
#     Node 5, Type 0, BuildingBlock: CEKHIL_clean_sbu_0, # of connection points: 4
#     Node 6, Type 0, BuildingBlock: CEKHIL_clean_sbu_0, # of connection points: 4
#     Node 7, Type 0, BuildingBlock: CEKHIL_clean_sbu_0, # of connection points: 4
#     Node 8, Type 0, BuildingBlock: CEKHIL_clean_sbu_0, # of connection points: 4
#     Node 9, Type 0, BuildingBlock: CEKHIL_clean_sbu_0, # of connection points: 4
#     Node 10, Type 0, BuildingBlock: CEKHIL_clean_sbu_0, # of connection points: 4
#     Node 11, Type 0, BuildingBlock: CEKHIL_clean_sbu_0, # of connection points: 4
#     Node 12, Type 0, BuildingBlock: CEKHIL_clean_sbu_0, # of connection points: 4
#     Node 13, Type 0, BuildingBlock: CEKHIL_clean_sbu_0, # of connection points: 4
#     Node 14, Type 0, BuildingBlock: CEKHIL_clean_sbu_0, # of connection points: 4
#     Node 15, Type 0, BuildingBlock: CEKHIL_clean_sbu_0, # of connection points: 4
#     Node 16, Type 0, BuildingBlock: CEKHIL_clean_sbu_0, # of connection points: 4
#     Node 17, Type 0, BuildingBlock: CEKHIL_clean_sbu_0, # of connection points: 4
#     Node 18, Type 0, BuildingBlock: CEKHIL_clean_sbu_0, # of connection points: 4
#     Node 19, Type 0, BuildingBlock: CEKHIL_clean_sbu_0, # of connection points: 4
#     Node 20, Type 0, BuildingBlock: CEKHIL_clean_sbu_0, # of connection points: 4
#     Node 21, Type 0, BuildingBlock: CEKHIL_clean_sbu_0, # of connection points: 4
#     Node 22, Type 0, BuildingBlock: CEKHIL_clean_sbu_0, # of connection points: 4
#     Node 23, Type 0, BuildingBlock: CEKHIL_clean_sbu_0, # of connection points: 4
#     Node 24, Type 0, BuildingBlock: CEKHIL_clean_sbu_0, # of connection points: 4
#     Node 25, Type 0, BuildingBlock: CEKHIL_clean_sbu_0, # of connection points: 4
#     Node 26, Type 0, BuildingBlock: CEKHIL_clean_sbu_0, # of connection points: 4
#     Node 27, Type 0, BuildingBlock: CEKHIL_clean_sbu_0, # of connection points: 4
#     Node 28, Type 0, BuildingBlock: CEKHIL_clean_sbu_0, # of connection points: 4
#     Node 29, Type 0, BuildingBlock: CEKHIL_clean_sbu_0, # of connection points: 4
#     Node 30, Type 0, BuildingBlock: CEKHIL_clean_sbu_0, # of connection points: 4
#     Node 31, Type 0, BuildingBlock: CEKHIL_clean_sbu_0, # of connection points: 4
#     Node 32, Type 0, BuildingBlock: CEKHIL_clean_sbu_0, # of connection points: 4
#     Node 33, Type 0, BuildingBlock: CEKHIL_clean_sbu_0, # of connection points: 4
#     Node 34, Type 0, BuildingBlock: CEKHIL_clean_sbu_0, # of connection points: 4
#     Node 35, Type 0, BuildingBlock: CEKHIL_clean_sbu_0, # of connection points: 4
#     Edge 36, Type (0, 0), None
#     Edge 37, Type (0, 0), None
#     Edge 38, Type (0, 0), None
#     Edge 39, Type (0, 0), None
#     Edge 40, Type (0, 0), None
#     Edge 41, Type (0, 0), None
#     Edge 42, Type (0, 0), None
#     Edge 43, Type (0, 0), None
#     Edge 44, Type (0, 0), None
#     Edge 45, Type (0, 0), None
#     Edge 46, Type (0, 0), None
#     Edge 47, Type (0, 0), None
#     Edge 48, Type (0, 0), None
#     Edge 49, Type (0, 0), None
#     Edge 50, Type (0, 0), None
#     Edge 51, Type (0, 0), None
#     Edge 52, Type (0, 0), None
#     Edge 53, Type (0, 0), None
#     Edge 54, Type (0, 0), None
#     Edge 55, Type (0, 0), None
#     Edge 56, Type (0, 0), None
#     Edge 57, Type (0, 0), None
#     Edge 58, Type (0, 0), None
#     Edge 59, Type (0, 0), None
#     Edge 60, Type (0, 0), None
#     Edge 61, Type (0, 0), None
#     Edge 62, Type (0, 0), None
#     Edge 63, Type (0, 0), None
#     Edge 64, Type (0, 0), None
#     Edge 65, Type (0, 0), None
#     Edge 66, Type (0, 0), None
#     Edge 67, Type (0, 0), None
#     Edge 68, Type (0, 0), None
#     Edge 69, Type (0, 0), None
#     Edge 70, Type (0, 0), None
#     Edge 71, Type (0, 0), None
#     Edge 72, Type (0, 0), None
#     Edge 73, Type (0, 0), None
#     Edge 74, Type (0, 0), None
#     Edge 75, Type (0, 0), None
#     Edge 76, Type (0, 0), None
#     Edge 77, Type (0, 0), None
#     Edge 78, Type (0, 0), None
#     Edge 79, Type (0, 0), None
#     Edge 80, Type (0, 0), None
#     Edge 81, Type (0, 0), None
#     Edge 82, Type (0, 0), None
#     Edge 83, Type (0, 0), None
#     Edge 84, Type (0, 0), None
#     Edge 85, Type (0, 0), None
#     Edge 86, Type (0, 0), None
#     Edge 87, Type (0, 0), None
#     Edge 88, Type (0, 0), None
#     Edge 89, Type (0, 0), None
#     Edge 90, Type (0, 0), None
#     Edge 91, Type (0, 0), None
#     Edge 92, Type (0, 0), None
#     Edge 93, Type (0, 0), None
#     Edge 94, Type (0, 0), None
#     Edge 95, Type (0, 0), None
#     Edge 96, Type (0, 0), None
#     Edge 97, Type (0, 0), None
#     Edge 98, Type (0, 0), None
#     Edge 99, Type (0, 0), None
#     Edge 100, Type (0, 0), None
#     Edge 101, Type (0, 0), None
#     Edge 102, Type (0, 0), None
#     Edge 103, Type (0, 0), None
#     Edge 104, Type (0, 0), None
#     Edge 105, Type (0, 0), None
#     Edge 106, Type (0, 0), None
#     Edge 107, Type (0, 0), None
# Relax obj value: 0.185
# Max RMSD: 0.233
# Mean RMSD: 0.233
data_MOF--net-unu--node1-CEKHIL_clean_sbu_0--edge1-none
_symmetry_space_group_name_H-M    P1
_symmetry_Int_Tables_number       1
_symmetry_cell_setting            triclinic
loop_
_symmetry_equiv_pos_as_xyz
'x, y, z'
_cell_length_a     19.528794
_cell_length_b     19.530308
_cell_length_c     45.011797
_cell_angle_alpha  89.992938
_cell_angle_beta   90.004294
_cell_angle_gamma 120.00315
loop_
_atom_site_label
_atom_site_type_symbol
_atom_site_fract_x
_atom_site_fract_y
_atom_site_fract_z
_atom_type_partial_charge
Co0 Co 0.19031 0.00241 0.11753 0.0
O1 O 0.23789 0.93691 0.1151 0.0
O2 O 0.25258 0.02515 0.08125 0.0
C3 C 0.06678 0.90891 0.12852 0.0
O4 O 0.14688 0.0792 0.1163 0.0
Co5 Co 0.13434 0.00902 0.18219 0.0
O6 O 0.10222 0.07892 0.16298 0.0
C7 C 0.29385 0.1272 0.1623 0.0
C8 C 0.26876 0.9712 0.09028 0.0
C9 C 0.11532 0.10314 0.13621 0.0
O10 O 0.28499 0.08685 0.13872 0.0
O11 O 0.2423 0.10513 0.18301 0.0
O12 O 0.09003 0.91883 0.10116 0.0
O13 O 0.1223 0.9439 0.14811 0.0
Co14 Co 0.99298 0.18693 0.11752 0.0
O15 O 0.0585 0.30001 0.11509 0.0
O16 O 0.97024 0.22647 0.08124 0.0
C17 C 0.08642 0.15685 0.12851 0.0
O18 O 0.91616 0.06671 0.11629 0.0
Co19 Co 0.98633 0.12434 0.18219 0.0
O20 O 0.91642 0.02232 0.16298 0.0
C21 C 0.8682 0.16571 0.1623 0.0
C22 C 0.02419 0.29659 0.09027 0.0
C23 C 0.89222 0.01121 0.13621 0.0
O24 O 0.90855 0.19718 0.13871 0.0
O25 O 0.89025 0.13623 0.18301 0.0
O26 O 0.07654 0.17022 0.10115 0.0
O27 O 0.05147 0.1774 0.1481 0.0
Co28 Co 0.80845 0.80511 0.11752 0.0
O29 O 0.69537 0.75754 0.11508 0.0
O30 O 0.76893 0.74284 0.08124 0.0
C31 C 0.83851 0.92861 0.1285 0.0
O32 O 0.92868 0.84851 0.1163 0.0
Co33 Co 0.87103 0.86105 0.18219 0.0
O34 O 0.97307 0.89315 0.16298 0.0
C35 C 0.82968 0.70156 0.1623 0.0
C36 C 0.6988 0.72666 0.09027 0.0
C37 C 0.98417 0.88004 0.13622 0.0
O38 O 0.79819 0.71042 0.13872 0.0
O39 O 0.85917 0.7531 0.183 0.0
O40 O 0.82517 0.90538 0.10115 0.0
O41 O 0.81795 0.8731 0.1481 0.0
Co42 Co 0.0015 0.1912 0.37709 0.0
O43 O 0.93599 0.23877 0.37952 0.0
O44 O 0.02425 0.25346 0.41337 0.0
C45 C 0.908 0.06768 0.3661 0.0
O46 O 0.0783 0.14778 0.37831 0.0
Co47 Co 0.00811 0.13527 0.31242 0.0
O48 O 0.07802 0.10314 0.33163 0.0
C49 C 0.12628 0.29476 0.33231 0.0
C50 C 0.9703 0.26965 0.40434 0.0
C51 C 0.10224 0.11623 0.35839 0.0
O52 O 0.08594 0.28589 0.3559 0.0
O53 O 0.10421 0.24323 0.3116 0.0
O54 O 0.91792 0.09092 0.39345 0.0
O55 O 0.94299 0.1232 0.34651 0.0
Co56 Co 0.80419 0.80936 0.37708 0.0
O57 O 0.75661 0.69628 0.37952 0.0
O58 O 0.74191 0.76981 0.41337 0.0
C59 C 0.92771 0.83939 0.36609 0.0
O60 O 0.8476 0.92958 0.37831 0.0
Co61 Co 0.86016 0.87196 0.31242 0.0
O62 O 0.89225 0.97398 0.33163 0.0
C63 C 0.70064 0.8306 0.33231 0.0
C64 C 0.72574 0.69969 0.40434 0.0
C65 C 0.87913 0.98508 0.35839 0.0
O66 O 0.7095 0.79911 0.35589 0.0
O67 O 0.75219 0.86009 0.3116 0.0
O68 O 0.90447 0.82606 0.39345 0.0
O69 O 0.87219 0.81887 0.34651 0.0
Co70 Co 0.18603 0.99389 0.37708 0.0
O71 O 0.29912 0.05942 0.37951 0.0
O72 O 0.22557 0.97115 0.41336 0.0
C73 C 0.15595 0.08733 0.3661 0.0
O74 O 0.06582 0.91707 0.37831 0.0
Co75 Co 0.12345 0.98727 0.31241 0.0
O76 O 0.02142 0.91734 0.33162 0.0
C77 C 0.1648 0.86912 0.33231 0.0
C78 C 0.2957 0.02511 0.40433 0.0
C79 C 0.01032 0.89312 0.35839 0.0
O80 O 0.1963 0.90948 0.35589 0.0
O81 O 0.13531 0.89117 0.3116 0.0
O82 O 0.16931 0.07744 0.39345 0.0
O83 O 0.17651 0.05239 0.3465 0.0
Co84 Co 0.80418 0.99391 0.87708 0.0
O85 O 0.75659 0.05941 0.87951 0.0
O86 O 0.7419 0.97117 0.91336 0.0
C87 C 0.9277 0.08741 0.86609 0.0
O88 O 0.84761 0.91712 0.87831 0.0
Co89 Co 0.86014 0.9873 0.81242 0.0
O90 O 0.89226 0.9174 0.83163 0.0
C91 C 0.70063 0.86912 0.83231 0.0
C92 C 0.72572 0.02512 0.90433 0.0
C93 C 0.87916 0.89318 0.85839 0.0
O94 O 0.70949 0.90947 0.85589 0.0
O95 O 0.75218 0.89119 0.8116 0.0
O96 O 0.90445 0.07749 0.89344 0.0
O97 O 0.87218 0.05242 0.8465 0.0
Co98 Co 0.0015 0.80939 0.87708 0.0
O99 O 0.93598 0.69631 0.87952 0.0
O100 O 0.02425 0.76985 0.91336 0.0
C101 C 0.90806 0.83947 0.8661 0.0
O102 O 0.07832 0.92961 0.87831 0.0
Co103 Co 0.00815 0.87198 0.81242 0.0
O104 O 0.07806 0.974 0.83163 0.0
C105 C 0.12629 0.83061 0.83231 0.0
C106 C 0.97029 0.69973 0.90433 0.0
C107 C 0.10227 0.98511 0.85839 0.0
O108 O 0.08594 0.79914 0.85589 0.0
O109 O 0.10423 0.86009 0.8116 0.0
O110 O 0.91794 0.8261 0.89346 0.0
O111 O 0.94301 0.81892 0.8465 0.0
Co112 Co 0.18603 0.19121 0.87708 0.0
O113 O 0.29912 0.23878 0.87952 0.0
O114 O 0.22556 0.25348 0.91336 0.0
C115 C 0.15597 0.06771 0.8661 0.0
O116 O 0.06581 0.14781 0.8783 0.0
Co117 Co 0.12345 0.13527 0.81242 0.0
O118 O 0.02142 0.10317 0.83162 0.0
C119 C 0.1648 0.29476 0.83231 0.0
C120 C 0.29569 0.26966 0.90434 0.0
C121 C 0.01031 0.11628 0.85838 0.0
O122 O 0.1963 0.2859 0.85589 0.0
O123 O 0.13531 0.24322 0.8116 0.0
O124 O 0.16932 0.09094 0.89346 0.0
O125 O 0.17653 0.12322 0.84651 0.0
Co126 Co 0.99298 0.80512 0.61752 0.0
O127 O 0.05849 0.75755 0.61508 0.0
O128 O 0.97023 0.74285 0.58124 0.0
C129 C 0.08648 0.92864 0.62851 0.0
O130 O 0.91618 0.84854 0.61629 0.0
Co131 Co 0.98637 0.86105 0.68218 0.0
O132 O 0.91646 0.89318 0.66298 0.0
C133 C 0.8682 0.70155 0.6623 0.0
C134 C 0.02418 0.72667 0.59026 0.0
C135 C 0.89224 0.88009 0.63621 0.0
O136 O 0.90854 0.71043 0.63871 0.0
O137 O 0.89027 0.75309 0.68301 0.0
O138 O 0.07656 0.9054 0.60115 0.0
O139 O 0.05149 0.87312 0.6481 0.0
Co140 Co 0.1903 0.18696 0.61752 0.0
O141 O 0.23787 0.30004 0.61509 0.0
O142 O 0.25257 0.22651 0.58124 0.0
C143 C 0.06677 0.15693 0.62851 0.0
O144 O 0.14688 0.06674 0.61629 0.0
Co145 Co 0.13433 0.12435 0.68218 0.0
O146 O 0.10224 0.02234 0.66298 0.0
C147 C 0.29384 0.16572 0.6623 0.0
C148 C 0.26875 0.29663 0.59027 0.0
C149 C 0.11535 0.01124 0.63621 0.0
O150 O 0.28498 0.19721 0.63871 0.0
O151 O 0.24229 0.13623 0.683 0.0
O152 O 0.09002 0.17026 0.60115 0.0
O153 O 0.12229 0.17745 0.6481 0.0
Co154 Co 0.80845 0.00243 0.61753 0.0
O155 O 0.69536 0.9369 0.61509 0.0
O156 O 0.76891 0.02517 0.58125 0.0
C157 C 0.83853 0.90899 0.62851 0.0
O158 O 0.92867 0.07925 0.6163 0.0
Co159 Co 0.87104 0.00905 0.68219 0.0
O160 O 0.97307 0.07898 0.66298 0.0
C161 C 0.82968 0.1272 0.6623 0.0
C162 C 0.69878 0.97121 0.59028 0.0
C163 C 0.98417 0.1032 0.63622 0.0
O164 O 0.79818 0.08684 0.63872 0.0
O165 O 0.85917 0.10515 0.68301 0.0
O166 O 0.82517 0.91888 0.60115 0.0
O167 O 0.81797 0.94393 0.64811 0.0
Co168 Co 0.85697 0.33574 0.45086 0.0
O169 O 0.90455 0.27023 0.44843 0.0
O170 O 0.91924 0.35849 0.41458 0.0
C171 C 0.73345 0.24224 0.46185 0.0
O172 O 0.81354 0.41253 0.44964 0.0
Co173 Co 0.80101 0.34235 0.51553 0.0
O174 O 0.76889 0.41226 0.49632 0.0
C175 C 0.96052 0.46053 0.49563 0.0
C176 C 0.9354 0.30453 0.42361 0.0
C177 C 0.78198 0.43647 0.46955 0.0
O178 O 0.95166 0.42018 0.47205 0.0
O179 O 0.90897 0.43846 0.51634 0.0
O180 O 0.75669 0.25216 0.4345 0.0
O181 O 0.78897 0.27723 0.48144 0.0
Co182 Co 0.65965 0.52026 0.45086 0.0
O183 O 0.72518 0.63334 0.44842 0.0
O184 O 0.63689 0.55978 0.41458 0.0
C185 C 0.75309 0.49018 0.46184 0.0
O186 O 0.58283 0.40005 0.44963 0.0
Co187 Co 0.653 0.45767 0.51552 0.0
O188 O 0.58309 0.35565 0.49632 0.0
C189 C 0.53486 0.49905 0.49563 0.0
C190 C 0.69087 0.6299 0.4236 0.0
C191 C 0.55888 0.34455 0.46955 0.0
O192 O 0.57522 0.53052 0.47205 0.0
O193 O 0.55692 0.46956 0.51634 0.0
O194 O 0.74321 0.50354 0.43449 0.0
O195 O 0.71814 0.51074 0.48144 0.0
Co196 Co 0.47512 0.13844 0.45086 0.0
O197 O 0.36203 0.09088 0.44841 0.0
O198 O 0.43561 0.07618 0.41458 0.0
C199 C 0.50518 0.26194 0.46184 0.0
O200 O 0.59534 0.18185 0.44964 0.0
Co201 Co 0.53769 0.19438 0.51552 0.0
O202 O 0.63973 0.22648 0.49632 0.0
C203 C 0.49634 0.03489 0.49563 0.0
C204 C 0.36549 0.06003 0.4236 0.0
C205 C 0.65084 0.21337 0.46956 0.0
O206 O 0.46485 0.04375 0.47205 0.0
O207 O 0.52584 0.08643 0.51634 0.0
O208 O 0.49184 0.23872 0.43448 0.0
O209 O 0.48461 0.20643 0.48144 0.0
Co210 Co 0.66817 0.52452 0.71042 0.0
O211 O 0.60266 0.5721 0.71286 0.0
O212 O 0.69091 0.58679 0.7467 0.0
C213 C 0.57466 0.40101 0.69943 0.0
O214 O 0.74497 0.4811 0.71164 0.0
Co215 Co 0.67478 0.4686 0.64576 0.0
O216 O 0.74469 0.43647 0.66496 0.0
C217 C 0.79295 0.62809 0.66564 0.0
C218 C 0.63697 0.60298 0.73767 0.0
C219 C 0.7689 0.44956 0.69172 0.0
O220 O 0.75261 0.61921 0.68923 0.0
O221 O 0.77088 0.57656 0.64493 0.0
O222 O 0.58459 0.42425 0.72679 0.0
O223 O 0.60965 0.45653 0.67984 0.0
Co224 Co 0.47085 0.14269 0.71042 0.0
O225 O 0.42328 0.02961 0.71285 0.0
O226 O 0.40857 0.10314 0.7467 0.0
C227 C 0.59437 0.17271 0.69943 0.0
O228 O 0.51427 0.2629 0.71164 0.0
Co229 Co 0.52682 0.20529 0.64576 0.0
O230 O 0.55891 0.30731 0.66496 0.0
C231 C 0.3673 0.16393 0.66564 0.0
C232 C 0.3924 0.03302 0.73767 0.0
C233 C 0.54579 0.3184 0.69172 0.0
O234 O 0.37616 0.13244 0.68923 0.0
O235 O 0.41885 0.19342 0.64494 0.0
O236 O 0.57113 0.15939 0.72678 0.0
O237 O 0.53885 0.1522 0.67984 0.0
Co238 Co 0.8527 0.32722 0.71041 0.0
O239 O 0.96578 0.39275 0.71285 0.0
O240 O 0.89224 0.30447 0.74669 0.0
C241 C 0.82261 0.42065 0.69943 0.0
O242 O 0.73248 0.2504 0.71164 0.0
Co243 Co 0.79011 0.32059 0.64575 0.0
O244 O 0.68808 0.25066 0.66496 0.0
C245 C 0.83147 0.20245 0.66564 0.0
C246 C 0.96236 0.35843 0.73766 0.0
C247 C 0.67698 0.22644 0.69172 0.0
O248 O 0.86296 0.2428 0.68922 0.0
O249 O 0.80197 0.2245 0.64493 0.0
O250 O 0.83598 0.41077 0.72679 0.0
O251 O 0.84318 0.38572 0.67983 0.0
Co252 Co 0.47085 0.32725 0.21041 0.0
O253 O 0.42326 0.39275 0.21284 0.0
O254 O 0.40857 0.30451 0.24669 0.0
C255 C 0.59437 0.42075 0.19942 0.0
O256 O 0.51428 0.25046 0.21164 0.0
Co257 Co 0.52681 0.32064 0.14575 0.0
O258 O 0.55893 0.25074 0.16496 0.0
C259 C 0.3673 0.20246 0.16564 0.0
C260 C 0.39239 0.35846 0.23766 0.0
C261 C 0.54583 0.22652 0.19172 0.0
O262 O 0.37616 0.24281 0.18922 0.0
O263 O 0.41885 0.22453 0.14493 0.0
O264 O 0.57112 0.41083 0.22678 0.0
O265 O 0.53885 0.38576 0.17983 0.0
Co266 Co 0.66817 0.14273 0.21042 0.0
O267 O 0.60265 0.02965 0.21285 0.0
O268 O 0.69092 0.10319 0.2467 0.0
C269 C 0.57473 0.17281 0.19943 0.0
O270 O 0.74499 0.26295 0.21165 0.0
Co271 Co 0.67482 0.20532 0.14575 0.0
O272 O 0.74473 0.30734 0.16496 0.0
C273 C 0.79296 0.16395 0.16564 0.0
C274 C 0.63696 0.03307 0.23767 0.0
C275 C 0.76894 0.31845 0.19173 0.0
O276 O 0.75261 0.13248 0.18923 0.0
O277 O 0.7709 0.19343 0.14493 0.0
O278 O 0.58461 0.15944 0.22679 0.0
O279 O 0.60968 0.15226 0.17984 0.0
Co280 Co 0.8527 0.52455 0.21042 0.0
O281 O 0.96579 0.57212 0.21286 0.0
O282 O 0.89223 0.58682 0.2467 0.0
C283 C 0.82264 0.40105 0.19944 0.0
O284 O 0.73248 0.48115 0.21164 0.0
Co285 Co 0.79012 0.46861 0.14575 0.0
O286 O 0.68809 0.43651 0.16495 0.0
C287 C 0.83147 0.6281 0.16564 0.0
C288 C 0.96236 0.603 0.23767 0.0
C289 C 0.67698 0.44962 0.19172 0.0
O290 O 0.86297 0.61924 0.18922 0.0
O291 O 0.80198 0.57656 0.14493 0.0
O292 O 0.83599 0.42428 0.22679 0.0
O293 O 0.8432 0.45656 0.17984 0.0
Co294 Co 0.65965 0.13846 0.95085 0.0
O295 O 0.72516 0.09089 0.94841 0.0
O296 O 0.63689 0.0762 0.91457 0.0
C297 C 0.75315 0.26198 0.96184 0.0
O298 O 0.58285 0.18188 0.94963 0.0
Co299 Co 0.65304 0.19439 0.01552 0.0
O300 O 0.58313 0.22652 0.99632 0.0
C301 C 0.53487 0.03489 0.99563 0.0
C302 C 0.69086 0.06004 0.92359 0.0
C303 C 0.55891 0.21343 0.96955 0.0
O304 O 0.57521 0.04377 0.97204 0.0
O305 O 0.55694 0.08642 0.01634 0.0
O306 O 0.74323 0.23874 0.93449 0.0
O307 O 0.71816 0.20645 0.98143 0.0
Co308 Co 0.85696 0.52029 0.95086 0.0
O309 O 0.90453 0.63337 0.94842 0.0
O310 O 0.91923 0.55982 0.91457 0.0
C311 C 0.73344 0.49027 0.96185 0.0
O312 O 0.81355 0.40008 0.94963 0.0
Co313 Co 0.80099 0.45769 0.01552 0.0
O314 O 0.7689 0.35567 0.99632 0.0
C315 C 0.96051 0.49906 0.99563 0.0
C316 C 0.93538 0.62994 0.9236 0.0
C317 C 0.78202 0.34458 0.96955 0.0
O318 O 0.95165 0.53055 0.97205 0.0
O319 O 0.90896 0.46956 0.01634 0.0
O320 O 0.75668 0.50359 0.93449 0.0
O321 O 0.78896 0.51079 0.98144 0.0
Co322 Co 0.47512 0.33576 0.95086 0.0
O323 O 0.36203 0.27023 0.94843 0.0
O324 O 0.4356 0.35852 0.91458 0.0
C325 C 0.5052 0.24233 0.96185 0.0
O326 O 0.59533 0.41258 0.94964 0.0
Co327 Co 0.5377 0.34239 0.01553 0.0
O328 O 0.63973 0.41232 0.99632 0.0
C329 C 0.49634 0.46054 0.99563 0.0
C330 C 0.36547 0.30454 0.92361 0.0
C331 C 0.65083 0.43654 0.96956 0.0
O332 O 0.46485 0.42017 0.97205 0.0
O333 O 0.52584 0.43849 0.01634 0.0
O334 O 0.49184 0.25221 0.93449 0.0
O335 O 0.48463 0.27726 0.98144 0.0
Co336 Co 0.52363 0.66907 0.7842 0.0
O337 O 0.57121 0.60356 0.78176 0.0
O338 O 0.5859 0.69182 0.74791 0.0
C339 C 0.40011 0.57557 0.79519 0.0
O340 O 0.4802 0.74586 0.78297 0.0
Co341 Co 0.46768 0.67568 0.84886 0.0
O342 O 0.43555 0.74558 0.82965 0.0
C343 C 0.62718 0.79386 0.82897 0.0
C344 C 0.60206 0.63786 0.75694 0.0
C345 C 0.44865 0.7698 0.80289 0.0
O346 O 0.61832 0.75351 0.80539 0.0
O347 O 0.57563 0.77179 0.84967 0.0
O348 O 0.42335 0.58549 0.76783 0.0
O349 O 0.45563 0.61056 0.81478 0.0
Co350 Co 0.32631 0.85359 0.78419 0.0
O351 O 0.39184 0.96667 0.78175 0.0
O352 O 0.30355 0.89311 0.74791 0.0
C353 C 0.41975 0.82351 0.79518 0.0
O354 O 0.24949 0.73337 0.78296 0.0
Co355 Co 0.31966 0.791 0.84886 0.0
O356 O 0.24975 0.68898 0.82965 0.0
C357 C 0.20153 0.83238 0.82897 0.0
C358 C 0.35753 0.96323 0.75693 0.0
C359 C 0.22555 0.67787 0.80288 0.0
O360 O 0.24188 0.86384 0.80538 0.0
O361 O 0.22358 0.80289 0.84968 0.0
O362 O 0.40987 0.83687 0.76782 0.0
O363 O 0.3848 0.84407 0.81477 0.0
Co364 Co 0.14178 0.47177 0.78419 0.0
O365 O 0.0287 0.4242 0.78175 0.0
O366 O 0.10228 0.40951 0.74791 0.0
C367 C 0.17184 0.59527 0.79517 0.0
O368 O 0.26201 0.51517 0.78297 0.0
Co369 Co 0.20436 0.52771 0.84886 0.0
O370 O 0.30639 0.55981 0.82966 0.0
C371 C 0.16301 0.36822 0.82897 0.0
C372 C 0.03215 0.39335 0.75693 0.0
C373 C 0.3175 0.5467 0.80289 0.0
O374 O 0.13151 0.37708 0.80538 0.0
O375 O 0.1925 0.41976 0.84967 0.0
O376 O 0.1585 0.57204 0.76782 0.0
O377 O 0.15128 0.53976 0.81477 0.0
Co378 Co 0.33483 0.85786 0.04375 0.0
O379 O 0.26932 0.90543 0.04619 0.0
O380 O 0.35759 0.92012 0.08004 0.0
C381 C 0.24133 0.73434 0.03276 0.0
O382 O 0.41163 0.81444 0.04497 0.0
Co383 Co 0.34144 0.80193 0.97909 0.0
O384 O 0.41136 0.7698 -0.00171 0.0
C385 C 0.45962 0.96143 -0.00103 0.0
C386 C 0.30363 0.93628 0.07101 0.0
C387 C 0.43557 0.78289 0.02505 0.0
O388 O 0.41927 0.95255 0.02256 0.0
O389 O 0.43755 0.90989 0.97827 0.0
O390 O 0.25126 0.75758 0.06012 0.0
O391 O 0.27632 0.78987 0.01317 0.0
Co392 Co 0.13752 0.47603 0.04375 0.0
O393 O 0.08995 0.36295 0.04619 0.0
O394 O 0.07525 0.4365 0.08003 0.0
C395 C 0.26104 0.50605 0.03276 0.0
O396 O 0.18094 0.59624 0.04497 0.0
Co397 Co 0.19349 0.53863 0.97909 0.0
O398 O 0.22558 0.64065 -0.00171 0.0
C399 C 0.03397 0.49727 -0.00103 0.0
C400 C 0.0591 0.36638 0.07101 0.0
C401 C 0.21246 0.65174 0.02505 0.0
O402 O 0.04283 0.46577 0.02256 0.0
O403 O 0.08552 0.52676 0.97827 0.0
O404 O 0.2378 0.49273 0.06011 0.0
O405 O 0.20552 0.48553 0.01317 0.0
Co406 Co 0.51937 0.66056 0.04374 0.0
O407 O 0.63245 0.72609 0.04618 0.0
O408 O 0.55889 0.6378 0.08002 0.0
C409 C 0.48928 0.75399 0.03276 0.0
O410 O 0.39915 0.58374 0.04497 0.0
Co411 Co 0.45678 0.65393 0.97908 0.0
O412 O 0.35475 0.584 -0.00172 0.0
C413 C 0.49814 0.53578 -0.00103 0.0
C414 C 0.62901 0.69178 0.071 0.0
C415 C 0.34365 0.55978 0.02505 0.0
O416 O 0.52963 0.57615 0.02255 0.0
O417 O 0.46864 0.55783 0.97826 0.0
O418 O 0.50264 0.7441 0.06012 0.0
O419 O 0.50985 0.71906 0.01316 0.0
Co420 Co 0.13751 0.66058 0.54374 0.0
O421 O 0.08993 0.72608 0.54618 0.0
O422 O 0.07524 0.63783 0.58003 0.0
C423 C 0.26104 0.75408 0.53275 0.0
O424 O 0.18094 0.58379 0.54497 0.0
Co425 Co 0.19347 0.65397 0.47908 0.0
O426 O 0.2256 0.58406 0.49829 0.0
C427 C 0.03397 0.53579 0.49897 0.0
C428 C 0.05909 0.69179 0.571 0.0
C429 C 0.2125 0.55985 0.52505 0.0
O430 O 0.04282 0.57614 0.52255 0.0
O431 O 0.08552 0.55786 0.47827 0.0
O432 O 0.23779 0.74416 0.56011 0.0
O433 O 0.20551 0.71909 0.51316 0.0
Co434 Co 0.33483 0.47606 0.54375 0.0
O435 O 0.26931 0.36298 0.54619 0.0
O436 O 0.35759 0.43654 0.58003 0.0
C437 C 0.2414 0.50614 0.53276 0.0
O438 O 0.41165 0.59627 0.54497 0.0
Co439 Co 0.34148 0.53865 0.47908 0.0
O440 O 0.41139 0.64067 0.49829 0.0
C441 C 0.45962 0.49728 0.49897 0.0
C442 C 0.30362 0.36642 0.571 0.0
C443 C 0.4356 0.65177 0.52505 0.0
O444 O 0.41927 0.4658 0.52256 0.0
O445 O 0.43757 0.52676 0.47826 0.0
O446 O 0.25127 0.49278 0.56012 0.0
O447 O 0.27634 0.48558 0.51317 0.0
Co448 Co 0.51936 0.85788 0.54375 0.0
O449 O 0.63245 0.90544 0.54619 0.0
O450 O 0.55887 0.92014 0.58003 0.0
C451 C 0.4893 0.73438 0.53276 0.0
O452 O 0.39914 0.81447 0.54497 0.0
Co453 Co 0.45679 0.80194 0.47908 0.0
O454 O 0.35475 0.76984 0.49828 0.0
C455 C 0.49814 0.96143 0.49897 0.0
C456 C 0.629 0.9363 0.57101 0.0
C457 C 0.34365 0.78295 0.52505 0.0
O458 O 0.52964 0.95257 0.52255 0.0
O459 O 0.46864 0.90989 0.47827 0.0
O460 O 0.50264 0.7576 0.56012 0.0
O461 O 0.50987 0.78989 0.51317 0.0
Co462 Co 0.32632 0.4718 0.28419 0.0
O463 O 0.39183 0.42423 0.28175 0.0
O464 O 0.30356 0.40954 0.2479 0.0
C465 C 0.41982 0.59531 0.29518 0.0
O466 O 0.24952 0.51522 0.28297 0.0
Co467 Co 0.31971 0.52772 0.34885 0.0
O468 O 0.24979 0.55985 0.32965 0.0
C469 C 0.20154 0.36823 0.32896 0.0
C470 C 0.35752 0.39338 0.25693 0.0
C471 C 0.22558 0.54676 0.30289 0.0
O472 O 0.24188 0.37711 0.30538 0.0
O473 O 0.22361 0.41976 0.34967 0.0
O474 O 0.4099 0.57208 0.26782 0.0
O475 O 0.38483 0.53979 0.31477 0.0
Co476 Co 0.52363 0.85363 0.28419 0.0
O477 O 0.5712 0.96671 0.28175 0.0
O478 O 0.5859 0.89316 0.24791 0.0
C479 C 0.40011 0.82361 0.29518 0.0
O480 O 0.48022 0.73342 0.28297 0.0
Co481 Co 0.46766 0.79103 0.34885 0.0
O482 O 0.43557 0.68901 0.32965 0.0
C483 C 0.62718 0.83239 0.32896 0.0
C484 C 0.60205 0.96328 0.25693 0.0
C485 C 0.44869 0.67792 0.30289 0.0
O486 O 0.61832 0.86389 0.30538 0.0
O487 O 0.57563 0.8029 0.34967 0.0
O488 O 0.42335 0.83693 0.26782 0.0
O489 O 0.45563 0.84413 0.31477 0.0
Co490 Co 0.14179 0.6691 0.2842 0.0
O491 O 0.0287 0.60357 0.28176 0.0
O492 O 0.10227 0.69186 0.24792 0.0
C493 C 0.17187 0.57567 0.29518 0.0
O494 O 0.262 0.74592 0.28297 0.0
Co495 Co 0.20437 0.67573 0.34886 0.0
O496 O 0.3064 0.74565 0.32965 0.0
C497 C 0.16301 0.79387 0.32897 0.0
C498 C 0.03214 0.63788 0.25694 0.0
C499 C 0.3175 0.76988 0.30289 0.0
O500 O 0.13152 0.75351 0.30539 0.0
O501 O 0.19251 0.77182 0.34968 0.0
O502 O 0.15851 0.58555 0.26782 0.0
O503 O 0.1513 0.6106 0.31478 0.0
loop_
_geom_bond_atom_site_label_1
_geom_bond_atom_site_label_2
_geom_bond_distance
_geom_bond_site_symmetry_2
_ccdc_geom_bond_type
Co0 O1 2.216 1_545 S
Co0 O2 2.091 . S
Co0 O4 2.004 . S
Co0 O10 2.021 . S
Co0 O12 2.137 1_545 S
Co0 O13 2.244 1_545 S
O1 Co0 2.216 1_565 S
O1 C8 1.246 . S
O2 Co0 2.091 . S
O2 C8 1.262 1_545 S
C3 O12 1.247 . S
C3 O13 1.272 . S
O4 Co0 2.004 . S
O4 C9 1.259 . S
Co5 O6 2.061 . S
Co5 O11 2.052 . S
Co5 O13 2.135 1_545 S
O6 Co5 2.061 . S
O6 C9 1.235 . S
C7 O10 1.238 . S
C7 O11 1.241 . S
C8 O1 1.246 . S
C8 O2 1.262 1_565 S
C9 O4 1.259 . S
C9 O6 1.235 . S
O10 Co0 2.021 . S
O10 C7 1.238 . S
O11 Co5 2.052 . S
O11 C7 1.241 . S
O12 Co0 2.137 1_565 S
O12 C3 1.247 . S
O13 Co0 2.244 1_565 S
O13 C3 1.272 . S
O13 Co5 2.135 1_565 S
Co14 O15 2.216 1_655 S
Co14 O16 2.091 . S
Co14 O18 2.004 . S
Co14 O24 2.021 . S
Co14 O26 2.137 1_655 S
Co14 O27 2.244 1_655 S
O15 Co14 2.216 1_455 S
O15 C22 1.246 . S
O16 Co14 2.091 . S
O16 C22 1.262 1_655 S
C17 O26 1.247 . S
C17 O27 1.272 . S
O18 Co14 2.004 . S
O18 C23 1.259 1_545 S
Co19 O20 2.061 1_545 S
Co19 O25 2.052 . S
Co19 O27 2.135 1_655 S
O20 Co19 2.061 1_565 S
O20 C23 1.235 . S
C21 O24 1.238 . S
C21 O25 1.241 . S
C22 O15 1.246 . S
C22 O16 1.262 1_455 S
C23 O18 1.259 1_565 S
C23 O20 1.235 . S
O24 Co14 2.021 . S
O24 C21 1.238 . S
O25 Co19 2.052 . S
O25 C21 1.241 . S
O26 Co14 2.137 1_455 S
O26 C17 1.247 . S
O27 Co14 2.244 1_455 S
O27 C17 1.272 . S
O27 Co19 2.135 1_455 S
Co28 O29 2.216 . S
Co28 O30 2.091 . S
Co28 O32 2.004 . S
Co28 O38 2.021 . S
Co28 O40 2.137 . S
Co28 O41 2.244 . S
O29 Co28 2.216 . S
O29 C36 1.247 . S
O30 Co28 2.091 . S
O30 C36 1.261 . S
C31 O40 1.247 . S
C31 O41 1.272 . S
O32 Co28 2.004 . S
O32 C37 1.259 1_655 S
Co33 O34 2.061 1_655 S
Co33 O39 2.052 . S
Co33 O41 2.135 . S
O34 Co33 2.061 1_455 S
O34 C37 1.235 . S
C35 O38 1.238 . S
C35 O39 1.241 . S
C36 O29 1.247 . S
C36 O30 1.261 . S
C37 O32 1.259 1_455 S
C37 O34 1.235 . S
O38 Co28 2.021 . S
O38 C35 1.238 . S
O39 Co33 2.052 . S
O39 C35 1.241 . S
O40 Co28 2.137 . S
O40 C31 1.247 . S
O41 Co28 2.244 . S
O41 C31 1.272 . S
O41 Co33 2.135 . S
Co42 O43 2.216 1_455 S
Co42 O44 2.091 . S
Co42 O46 2.004 . S
Co42 O52 2.021 . S
Co42 O54 2.137 1_455 S
Co42 O55 2.244 1_455 S
O43 Co42 2.216 1_655 S
O43 C50 1.246 . S
O44 Co42 2.091 . S
O44 C50 1.262 1_455 S
C45 O54 1.247 . S
C45 O55 1.272 . S
O46 Co42 2.004 . S
O46 C51 1.259 . S
Co47 O48 2.061 . S
Co47 O53 2.052 . S
Co47 O55 2.135 1_455 S
O48 Co47 2.061 . S
O48 C51 1.235 . S
C49 O52 1.238 . S
C49 O53 1.241 . S
C50 O43 1.246 . S
C50 O44 1.262 1_655 S
C51 O46 1.259 . S
C51 O48 1.235 . S
O52 Co42 2.021 . S
O52 C49 1.238 . S
O53 Co47 2.052 . S
O53 C49 1.241 . S
O54 Co42 2.137 1_655 S
O54 C45 1.247 . S
O55 Co42 2.244 1_655 S
O55 C45 1.272 . S
O55 Co47 2.135 1_655 S
Co56 O57 2.216 . S
Co56 O58 2.091 . S
Co56 O60 2.004 . S
Co56 O66 2.021 . S
Co56 O68 2.137 . S
Co56 O69 2.244 . S
O57 Co56 2.216 . S
O57 C64 1.247 . S
O58 Co56 2.091 . S
O58 C64 1.261 . S
C59 O68 1.247 . S
C59 O69 1.272 . S
O60 Co56 2.004 . S
O60 C65 1.259 1_565 S
Co61 O62 2.061 1_565 S
Co61 O67 2.052 . S
Co61 O69 2.135 . S
O62 Co61 2.061 1_545 S
O62 C65 1.235 . S
C63 O66 1.238 . S
C63 O67 1.241 . S
C64 O57 1.247 . S
C64 O58 1.261 . S
C65 O60 1.259 1_545 S
C65 O62 1.235 . S
O66 Co56 2.021 . S
O66 C63 1.238 . S
O67 Co61 2.052 . S
O67 C63 1.241 . S
O68 Co56 2.137 . S
O68 C59 1.247 . S
O69 Co56 2.244 . S
O69 C59 1.272 . S
O69 Co61 2.135 . S
Co70 O71 2.216 1_565 S
Co70 O72 2.091 . S
Co70 O74 2.004 . S
Co70 O80 2.021 . S
Co70 O82 2.137 1_565 S
Co70 O83 2.244 1_565 S
O71 Co70 2.216 1_545 S
O71 C78 1.246 . S
O72 Co70 2.091 . S
O72 C78 1.262 1_565 S
C73 O82 1.247 . S
C73 O83 1.272 . S
O74 Co70 2.004 . S
O74 C79 1.259 1_455 S
Co75 O76 2.061 1_455 S
Co75 O81 2.052 . S
Co75 O83 2.135 1_565 S
O76 Co75 2.061 1_655 S
O76 C79 1.235 . S
C77 O80 1.238 . S
C77 O81 1.241 . S
C78 O71 1.246 . S
C78 O72 1.262 1_545 S
C79 O74 1.259 1_655 S
C79 O76 1.235 . S
O80 Co70 2.021 . S
O80 C77 1.238 . S
O81 Co75 2.052 . S
O81 C77 1.241 . S
O82 Co70 2.137 1_545 S
O82 C73 1.247 . S
O83 Co70 2.244 1_545 S
O83 C73 1.272 . S
O83 Co75 2.135 1_545 S
Co84 O85 2.216 1_565 S
Co84 O86 2.091 . S
Co84 O88 2.004 . S
Co84 O94 2.021 . S
Co84 O96 2.137 1_565 S
Co84 O97 2.244 1_565 S
O85 Co84 2.216 1_545 S
O85 C92 1.246 . S
O86 Co84 2.091 . S
O86 C92 1.262 1_565 S
C87 O96 1.247 . S
C87 O97 1.272 . S
O88 Co84 2.004 . S
O88 C93 1.259 . S
Co89 O90 2.061 . S
Co89 O95 2.052 . S
Co89 O97 2.135 1_565 S
O90 Co89 2.061 . S
O90 C93 1.235 . S
C91 O94 1.238 . S
C91 O95 1.241 . S
C92 O85 1.246 . S
C92 O86 1.262 1_545 S
C93 O88 1.259 . S
C93 O90 1.235 . S
O94 Co84 2.021 . S
O94 C91 1.238 . S
O95 Co89 2.052 . S
O95 C91 1.241 . S
O96 Co84 2.137 1_545 S
O96 C87 1.247 . S
O97 Co84 2.244 1_545 S
O97 C87 1.272 . S
O97 Co89 2.135 1_545 S
Co98 O99 2.216 1_455 S
Co98 O100 2.091 . S
Co98 O102 2.004 . S
Co98 O108 2.021 . S
Co98 O110 2.137 1_455 S
Co98 O111 2.244 1_455 S
O99 Co98 2.216 1_655 S
O99 C106 1.246 . S
O100 Co98 2.091 . S
O100 C106 1.262 1_455 S
C101 O110 1.247 . S
C101 O111 1.272 . S
O102 Co98 2.004 . S
O102 C107 1.259 1_565 S
Co103 O104 2.061 1_565 S
Co103 O109 2.052 . S
Co103 O111 2.135 1_455 S
O104 Co103 2.061 1_545 S
O104 C107 1.235 . S
C105 O108 1.238 . S
C105 O109 1.241 . S
C106 O99 1.246 . S
C106 O100 1.262 1_655 S
C107 O102 1.259 1_545 S
C107 O104 1.235 . S
O108 Co98 2.021 . S
O108 C105 1.238 . S
O109 Co103 2.052 . S
O109 C105 1.241 . S
O110 Co98 2.137 1_655 S
O110 C101 1.247 . S
O111 Co98 2.244 1_655 S
O111 C101 1.272 . S
O111 Co103 2.135 1_655 S
Co112 O113 2.216 . S
Co112 O114 2.091 . S
Co112 O116 2.004 . S
Co112 O122 2.021 . S
Co112 O124 2.137 . S
Co112 O125 2.244 . S
O113 Co112 2.216 . S
O113 C120 1.247 . S
O114 Co112 2.091 . S
O114 C120 1.261 . S
C115 O124 1.247 . S
C115 O125 1.272 . S
O116 Co112 2.004 . S
O116 C121 1.259 1_455 S
Co117 O118 2.061 1_455 S
Co117 O123 2.052 . S
Co117 O125 2.135 . S
O118 Co117 2.061 1_655 S
O118 C121 1.235 . S
C119 O122 1.238 . S
C119 O123 1.241 . S
C120 O113 1.247 . S
C120 O114 1.261 . S
C121 O116 1.259 1_655 S
C121 O118 1.235 . S
O122 Co112 2.021 . S
O122 C119 1.238 . S
O123 Co117 2.052 . S
O123 C119 1.241 . S
O124 Co112 2.137 . S
O124 C115 1.247 . S
O125 Co112 2.244 . S
O125 C115 1.272 . S
O125 Co117 2.135 . S
Co126 O127 2.216 1_655 S
Co126 O128 2.091 . S
Co126 O130 2.004 . S
Co126 O136 2.021 . S
Co126 O138 2.137 1_655 S
Co126 O139 2.244 1_655 S
O127 Co126 2.216 1_455 S
O127 C134 1.246 . S
O128 Co126 2.091 . S
O128 C134 1.262 1_655 S
C129 O138 1.247 . S
C129 O139 1.272 . S
O130 Co126 2.004 . S
O130 C135 1.259 . S
Co131 O132 2.061 . S
Co131 O137 2.052 . S
Co131 O139 2.135 1_655 S
O132 Co131 2.061 . S
O132 C135 1.235 . S
C133 O136 1.238 . S
C133 O137 1.241 . S
C134 O127 1.246 . S
C134 O128 1.262 1_455 S
C135 O130 1.259 . S
C135 O132 1.235 . S
O136 Co126 2.021 . S
O136 C133 1.238 . S
O137 Co131 2.052 . S
O137 C133 1.241 . S
O138 Co126 2.137 1_455 S
O138 C129 1.247 . S
O139 Co126 2.244 1_455 S
O139 C129 1.272 . S
O139 Co131 2.135 1_455 S
Co140 O141 2.216 . S
Co140 O142 2.091 . S
Co140 O144 2.004 . S
Co140 O150 2.021 . S
Co140 O152 2.137 . S
Co140 O153 2.244 . S
O141 Co140 2.216 . S
O141 C148 1.247 . S
O142 Co140 2.091 . S
O142 C148 1.261 . S
C143 O152 1.247 . S
C143 O153 1.272 . S
O144 Co140 2.004 . S
O144 C149 1.259 1_545 S
Co145 O146 2.061 1_545 S
Co145 O151 2.052 . S
Co145 O153 2.135 . S
O146 Co145 2.061 1_565 S
O146 C149 1.235 . S
C147 O150 1.238 . S
C147 O151 1.241 . S
C148 O141 1.247 . S
C148 O142 1.261 . S
C149 O144 1.259 1_565 S
C149 O146 1.235 . S
O150 Co140 2.021 . S
O150 C147 1.238 . S
O151 Co145 2.052 . S
O151 C147 1.241 . S
O152 Co140 2.137 . S
O152 C143 1.247 . S
O153 Co140 2.244 . S
O153 C143 1.272 . S
O153 Co145 2.135 . S
Co154 O155 2.216 1_545 S
Co154 O156 2.091 . S
Co154 O158 2.004 . S
Co154 O164 2.021 . S
Co154 O166 2.137 1_545 S
Co154 O167 2.244 1_545 S
O155 Co154 2.216 1_565 S
O155 C162 1.246 . S
O156 Co154 2.091 . S
O156 C162 1.262 1_545 S
C157 O166 1.247 . S
C157 O167 1.272 . S
O158 Co154 2.004 . S
O158 C163 1.259 1_655 S
Co159 O160 2.061 1_655 S
Co159 O165 2.052 . S
Co159 O167 2.135 1_545 S
O160 Co159 2.061 1_455 S
O160 C163 1.235 . S
C161 O164 1.238 . S
C161 O165 1.241 . S
C162 O155 1.246 . S
C162 O156 1.262 1_565 S
C163 O158 1.259 1_455 S
C163 O160 1.235 . S
O164 Co154 2.021 . S
O164 C161 1.238 . S
O165 Co159 2.052 . S
O165 C161 1.241 . S
O166 Co154 2.137 1_565 S
O166 C157 1.247 . S
O167 Co154 2.244 1_565 S
O167 C157 1.272 . S
O167 Co159 2.135 1_565 S
Co168 O169 2.216 . S
Co168 O170 2.091 . S
Co168 O172 2.004 . S
Co168 O178 2.021 . S
Co168 O180 2.137 . S
Co168 O181 2.244 . S
O169 Co168 2.216 . S
O169 C176 1.247 . S
O170 Co168 2.091 . S
O170 C176 1.261 . S
C171 O180 1.247 . S
C171 O181 1.272 . S
O172 Co168 2.004 . S
O172 C177 1.259 . S
Co173 O174 2.061 . S
Co173 O179 2.052 . S
Co173 O181 2.135 . S
O174 Co173 2.061 . S
O174 C177 1.235 . S
C175 O178 1.238 . S
C175 O179 1.241 . S
C176 O169 1.247 . S
C176 O170 1.261 . S
C177 O172 1.259 . S
C177 O174 1.235 . S
O178 Co168 2.021 . S
O178 C175 1.238 . S
O179 Co173 2.052 . S
O179 C175 1.241 . S
O180 Co168 2.137 . S
O180 C171 1.247 . S
O181 Co168 2.244 . S
O181 C171 1.272 . S
O181 Co173 2.135 . S
Co182 O183 2.216 . S
Co182 O184 2.091 . S
Co182 O186 2.004 . S
Co182 O192 2.021 . S
Co182 O194 2.137 . S
Co182 O195 2.244 . S
O183 Co182 2.216 . S
O183 C190 1.247 . S
O184 Co182 2.091 . S
O184 C190 1.261 . S
C185 O194 1.247 . S
C185 O195 1.272 . S
O186 Co182 2.004 . S
O186 C191 1.259 . S
Co187 O188 2.061 . S
Co187 O193 2.052 . S
Co187 O195 2.135 . S
O188 Co187 2.061 . S
O188 C191 1.235 . S
C189 O192 1.238 . S
C189 O193 1.241 . S
C190 O183 1.247 . S
C190 O184 1.261 . S
C191 O186 1.259 . S
C191 O188 1.235 . S
O192 Co182 2.021 . S
O192 C189 1.238 . S
O193 Co187 2.052 . S
O193 C189 1.241 . S
O194 Co182 2.137 . S
O194 C185 1.247 . S
O195 Co182 2.244 . S
O195 C185 1.272 . S
O195 Co187 2.135 . S
Co196 O197 2.216 . S
Co196 O198 2.091 . S
Co196 O200 2.004 . S
Co196 O206 2.021 . S
Co196 O208 2.137 . S
Co196 O209 2.244 . S
O197 Co196 2.216 . S
O197 C204 1.247 . S
O198 Co196 2.091 . S
O198 C204 1.261 . S
C199 O208 1.247 . S
C199 O209 1.272 . S
O200 Co196 2.004 . S
O200 C205 1.259 . S
Co201 O202 2.061 . S
Co201 O207 2.052 . S
Co201 O209 2.135 . S
O202 Co201 2.061 . S
O202 C205 1.235 . S
C203 O206 1.238 . S
C203 O207 1.241 . S
C204 O197 1.247 . S
C204 O198 1.261 . S
C205 O200 1.259 . S
C205 O202 1.235 . S
O206 Co196 2.021 . S
O206 C203 1.238 . S
O207 Co201 2.052 . S
O207 C203 1.241 . S
O208 Co196 2.137 . S
O208 C199 1.247 . S
O209 Co196 2.244 . S
O209 C199 1.272 . S
O209 Co201 2.135 . S
Co210 O211 2.216 . S
Co210 O212 2.091 . S
Co210 O214 2.004 . S
Co210 O220 2.021 . S
Co210 O222 2.137 . S
Co210 O223 2.244 . S
O211 Co210 2.216 . S
O211 C218 1.247 . S
O212 Co210 2.091 . S
O212 C218 1.261 . S
C213 O222 1.247 . S
C213 O223 1.272 . S
O214 Co210 2.004 . S
O214 C219 1.259 . S
Co215 O216 2.061 . S
Co215 O221 2.052 . S
Co215 O223 2.135 . S
O216 Co215 2.061 . S
O216 C219 1.235 . S
C217 O220 1.238 . S
C217 O221 1.241 . S
C218 O211 1.247 . S
C218 O212 1.261 . S
C219 O214 1.259 . S
C219 O216 1.235 . S
O220 Co210 2.021 . S
O220 C217 1.238 . S
O221 Co215 2.052 . S
O221 C217 1.241 . S
O222 Co210 2.137 . S
O222 C213 1.247 . S
O223 Co210 2.244 . S
O223 C213 1.272 . S
O223 Co215 2.135 . S
Co224 O225 2.216 . S
Co224 O226 2.091 . S
Co224 O228 2.004 . S
Co224 O234 2.021 . S
Co224 O236 2.137 . S
Co224 O237 2.244 . S
O225 Co224 2.216 . S
O225 C232 1.247 . S
O226 Co224 2.091 . S
O226 C232 1.261 . S
C227 O236 1.247 . S
C227 O237 1.272 . S
O228 Co224 2.004 . S
O228 C233 1.259 . S
Co229 O230 2.061 . S
Co229 O235 2.052 . S
Co229 O237 2.135 . S
O230 Co229 2.061 . S
O230 C233 1.235 . S
C231 O234 1.238 . S
C231 O235 1.241 . S
C232 O225 1.247 . S
C232 O226 1.261 . S
C233 O228 1.259 . S
C233 O230 1.235 . S
O234 Co224 2.021 . S
O234 C231 1.238 . S
O235 Co229 2.052 . S
O235 C231 1.241 . S
O236 Co224 2.137 . S
O236 C227 1.247 . S
O237 Co224 2.244 . S
O237 C227 1.272 . S
O237 Co229 2.135 . S
Co238 O239 2.216 . S
Co238 O240 2.091 . S
Co238 O242 2.004 . S
Co238 O248 2.021 . S
Co238 O250 2.137 . S
Co238 O251 2.244 . S
O239 Co238 2.216 . S
O239 C246 1.247 . S
O240 Co238 2.091 . S
O240 C246 1.261 . S
C241 O250 1.247 . S
C241 O251 1.272 . S
O242 Co238 2.004 . S
O242 C247 1.259 . S
Co243 O244 2.061 . S
Co243 O249 2.052 . S
Co243 O251 2.135 . S
O244 Co243 2.061 . S
O244 C247 1.235 . S
C245 O248 1.238 . S
C245 O249 1.241 . S
C246 O239 1.247 . S
C246 O240 1.261 . S
C247 O242 1.259 . S
C247 O244 1.235 . S
O248 Co238 2.021 . S
O248 C245 1.238 . S
O249 Co243 2.052 . S
O249 C245 1.241 . S
O250 Co238 2.137 . S
O250 C241 1.247 . S
O251 Co238 2.244 . S
O251 C241 1.272 . S
O251 Co243 2.135 . S
Co252 O253 2.216 . S
Co252 O254 2.091 . S
Co252 O256 2.004 . S
Co252 O262 2.021 . S
Co252 O264 2.137 . S
Co252 O265 2.244 . S
O253 Co252 2.216 . S
O253 C260 1.247 . S
O254 Co252 2.091 . S
O254 C260 1.261 . S
C255 O264 1.247 . S
C255 O265 1.272 . S
O256 Co252 2.004 . S
O256 C261 1.259 . S
Co257 O258 2.061 . S
Co257 O263 2.052 . S
Co257 O265 2.135 . S
O258 Co257 2.061 . S
O258 C261 1.235 . S
C259 O262 1.238 . S
C259 O263 1.241 . S
C260 O253 1.247 . S
C260 O254 1.261 . S
C261 O256 1.259 . S
C261 O258 1.235 . S
O262 Co252 2.021 . S
O262 C259 1.238 . S
O263 Co257 2.052 . S
O263 C259 1.241 . S
O264 Co252 2.137 . S
O264 C255 1.247 . S
O265 Co252 2.244 . S
O265 C255 1.272 . S
O265 Co257 2.135 . S
Co266 O267 2.216 . S
Co266 O268 2.091 . S
Co266 O270 2.004 . S
Co266 O276 2.021 . S
Co266 O278 2.137 . S
Co266 O279 2.244 . S
O267 Co266 2.216 . S
O267 C274 1.247 . S
O268 Co266 2.091 . S
O268 C274 1.261 . S
C269 O278 1.247 . S
C269 O279 1.272 . S
O270 Co266 2.004 . S
O270 C275 1.259 . S
Co271 O272 2.061 . S
Co271 O277 2.052 . S
Co271 O279 2.135 . S
O272 Co271 2.061 . S
O272 C275 1.235 . S
C273 O276 1.238 . S
C273 O277 1.241 . S
C274 O267 1.247 . S
C274 O268 1.261 . S
C275 O270 1.259 . S
C275 O272 1.235 . S
O276 Co266 2.021 . S
O276 C273 1.238 . S
O277 Co271 2.052 . S
O277 C273 1.241 . S
O278 Co266 2.137 . S
O278 C269 1.247 . S
O279 Co266 2.244 . S
O279 C269 1.272 . S
O279 Co271 2.135 . S
Co280 O281 2.216 . S
Co280 O282 2.091 . S
Co280 O284 2.004 . S
Co280 O290 2.021 . S
Co280 O292 2.137 . S
Co280 O293 2.244 . S
O281 Co280 2.216 . S
O281 C288 1.247 . S
O282 Co280 2.091 . S
O282 C288 1.261 . S
C283 O292 1.247 . S
C283 O293 1.272 . S
O284 Co280 2.004 . S
O284 C289 1.259 . S
Co285 O286 2.061 . S
Co285 O291 2.052 . S
Co285 O293 2.135 . S
O286 Co285 2.061 . S
O286 C289 1.235 . S
C287 O290 1.238 . S
C287 O291 1.241 . S
C288 O281 1.247 . S
C288 O282 1.261 . S
C289 O284 1.259 . S
C289 O286 1.235 . S
O290 Co280 2.021 . S
O290 C287 1.238 . S
O291 Co285 2.052 . S
O291 C287 1.241 . S
O292 Co280 2.137 . S
O292 C283 1.247 . S
O293 Co280 2.244 . S
O293 C283 1.272 . S
O293 Co285 2.135 . S
Co294 O295 2.216 . S
Co294 O296 2.091 . S
Co294 O298 2.004 . S
Co294 O304 2.021 . S
Co294 O306 2.137 . S
Co294 O307 2.244 . S
O295 Co294 2.216 . S
O295 C302 1.247 . S
O296 Co294 2.091 . S
O296 C302 1.261 . S
C297 O306 1.247 . S
C297 O307 1.272 . S
O298 Co294 2.004 . S
O298 C303 1.259 . S
Co299 O300 2.061 1_554 S
Co299 O305 2.052 . S
Co299 O307 2.135 1_554 S
O300 Co299 2.061 1_556 S
O300 C303 1.235 . S
C301 O304 1.238 . S
C301 O305 1.241 1_556 S
C302 O295 1.247 . S
C302 O296 1.261 . S
C303 O298 1.259 . S
C303 O300 1.235 . S
O304 Co294 2.021 . S
O304 C301 1.238 . S
O305 Co299 2.052 . S
O305 C301 1.241 1_554 S
O306 Co294 2.137 . S
O306 C297 1.247 . S
O307 Co294 2.244 . S
O307 C297 1.272 . S
O307 Co299 2.135 1_556 S
Co308 O309 2.216 . S
Co308 O310 2.091 . S
Co308 O312 2.004 . S
Co308 O318 2.021 . S
Co308 O320 2.137 . S
Co308 O321 2.244 . S
O309 Co308 2.216 . S
O309 C316 1.247 . S
O310 Co308 2.091 . S
O310 C316 1.261 . S
C311 O320 1.247 . S
C311 O321 1.272 . S
O312 Co308 2.004 . S
O312 C317 1.259 . S
Co313 O314 2.061 1_554 S
Co313 O319 2.052 . S
Co313 O321 2.135 1_554 S
O314 Co313 2.061 1_556 S
O314 C317 1.235 . S
C315 O318 1.238 . S
C315 O319 1.241 1_556 S
C316 O309 1.247 . S
C316 O310 1.261 . S
C317 O312 1.259 . S
C317 O314 1.235 . S
O318 Co308 2.021 . S
O318 C315 1.238 . S
O319 Co313 2.052 . S
O319 C315 1.241 1_554 S
O320 Co308 2.137 . S
O320 C311 1.247 . S
O321 Co308 2.244 . S
O321 C311 1.272 . S
O321 Co313 2.135 1_556 S
Co322 O323 2.216 . S
Co322 O324 2.091 . S
Co322 O326 2.004 . S
Co322 O332 2.021 . S
Co322 O334 2.137 . S
Co322 O335 2.244 . S
O323 Co322 2.216 . S
O323 C330 1.247 . S
O324 Co322 2.091 . S
O324 C330 1.261 . S
C325 O334 1.247 . S
C325 O335 1.272 . S
O326 Co322 2.004 . S
O326 C331 1.259 . S
Co327 O328 2.061 1_554 S
Co327 O333 2.052 . S
Co327 O335 2.135 1_554 S
O328 Co327 2.061 1_556 S
O328 C331 1.235 . S
C329 O332 1.238 . S
C329 O333 1.241 1_556 S
C330 O323 1.247 . S
C330 O324 1.261 . S
C331 O326 1.259 . S
C331 O328 1.235 . S
O332 Co322 2.021 . S
O332 C329 1.238 . S
O333 Co327 2.052 . S
O333 C329 1.241 1_554 S
O334 Co322 2.137 . S
O334 C325 1.247 . S
O335 Co322 2.244 . S
O335 C325 1.272 . S
O335 Co327 2.135 1_556 S
Co336 O337 2.216 . S
Co336 O338 2.091 . S
Co336 O340 2.004 . S
Co336 O346 2.021 . S
Co336 O348 2.137 . S
Co336 O349 2.244 . S
O337 Co336 2.216 . S
O337 C344 1.247 . S
O338 Co336 2.091 . S
O338 C344 1.261 . S
C339 O348 1.247 . S
C339 O349 1.272 . S
O340 Co336 2.004 . S
O340 C345 1.259 . S
Co341 O342 2.061 . S
Co341 O347 2.052 . S
Co341 O349 2.135 . S
O342 Co341 2.061 . S
O342 C345 1.235 . S
C343 O346 1.238 . S
C343 O347 1.241 . S
C344 O337 1.247 . S
C344 O338 1.261 . S
C345 O340 1.259 . S
C345 O342 1.235 . S
O346 Co336 2.021 . S
O346 C343 1.238 . S
O347 Co341 2.052 . S
O347 C343 1.241 . S
O348 Co336 2.137 . S
O348 C339 1.247 . S
O349 Co336 2.244 . S
O349 C339 1.272 . S
O349 Co341 2.135 . S
Co350 O351 2.216 . S
Co350 O352 2.091 . S
Co350 O354 2.004 . S
Co350 O360 2.021 . S
Co350 O362 2.137 . S
Co350 O363 2.244 . S
O351 Co350 2.216 . S
O351 C358 1.247 . S
O352 Co350 2.091 . S
O352 C358 1.261 . S
C353 O362 1.247 . S
C353 O363 1.272 . S
O354 Co350 2.004 . S
O354 C359 1.259 . S
Co355 O356 2.061 . S
Co355 O361 2.052 . S
Co355 O363 2.135 . S
O356 Co355 2.061 . S
O356 C359 1.235 . S
C357 O360 1.238 . S
C357 O361 1.241 . S
C358 O351 1.247 . S
C358 O352 1.261 . S
C359 O354 1.259 . S
C359 O356 1.235 . S
O360 Co350 2.021 . S
O360 C357 1.238 . S
O361 Co355 2.052 . S
O361 C357 1.241 . S
O362 Co350 2.137 . S
O362 C353 1.247 . S
O363 Co350 2.244 . S
O363 C353 1.272 . S
O363 Co355 2.135 . S
Co364 O365 2.216 . S
Co364 O366 2.091 . S
Co364 O368 2.004 . S
Co364 O374 2.021 . S
Co364 O376 2.137 . S
Co364 O377 2.244 . S
O365 Co364 2.216 . S
O365 C372 1.247 . S
O366 Co364 2.091 . S
O366 C372 1.261 . S
C367 O376 1.247 . S
C367 O377 1.272 . S
O368 Co364 2.004 . S
O368 C373 1.259 . S
Co369 O370 2.061 . S
Co369 O375 2.052 . S
Co369 O377 2.135 . S
O370 Co369 2.061 . S
O370 C373 1.235 . S
C371 O374 1.238 . S
C371 O375 1.241 . S
C372 O365 1.247 . S
C372 O366 1.261 . S
C373 O368 1.259 . S
C373 O370 1.235 . S
O374 Co364 2.021 . S
O374 C371 1.238 . S
O375 Co369 2.052 . S
O375 C371 1.241 . S
O376 Co364 2.137 . S
O376 C367 1.247 . S
O377 Co364 2.244 . S
O377 C367 1.272 . S
O377 Co369 2.135 . S
Co378 O379 2.216 . S
Co378 O380 2.091 . S
Co378 O382 2.004 . S
Co378 O388 2.021 . S
Co378 O390 2.137 . S
Co378 O391 2.244 . S
O379 Co378 2.216 . S
O379 C386 1.247 . S
O380 Co378 2.091 . S
O380 C386 1.261 . S
C381 O390 1.247 . S
C381 O391 1.272 . S
O382 Co378 2.004 . S
O382 C387 1.259 . S
Co383 O384 2.061 1_556 S
Co383 O389 2.052 . S
Co383 O391 2.135 1_556 S
O384 Co383 2.061 1_554 S
O384 C387 1.235 . S
C385 O388 1.238 . S
C385 O389 1.241 1_554 S
C386 O379 1.247 . S
C386 O380 1.261 . S
C387 O382 1.259 . S
C387 O384 1.235 . S
O388 Co378 2.021 . S
O388 C385 1.238 . S
O389 Co383 2.052 . S
O389 C385 1.241 1_556 S
O390 Co378 2.137 . S
O390 C381 1.247 . S
O391 Co378 2.244 . S
O391 C381 1.272 . S
O391 Co383 2.135 1_554 S
Co392 O393 2.216 . S
Co392 O394 2.091 . S
Co392 O396 2.004 . S
Co392 O402 2.021 . S
Co392 O404 2.137 . S
Co392 O405 2.244 . S
O393 Co392 2.216 . S
O393 C400 1.247 . S
O394 Co392 2.091 . S
O394 C400 1.261 . S
C395 O404 1.247 . S
C395 O405 1.272 . S
O396 Co392 2.004 . S
O396 C401 1.259 . S
Co397 O398 2.061 1_556 S
Co397 O403 2.052 . S
Co397 O405 2.135 1_556 S
O398 Co397 2.061 1_554 S
O398 C401 1.235 . S
C399 O402 1.238 . S
C399 O403 1.241 1_554 S
C400 O393 1.247 . S
C400 O394 1.261 . S
C401 O396 1.259 . S
C401 O398 1.235 . S
O402 Co392 2.021 . S
O402 C399 1.238 . S
O403 Co397 2.052 . S
O403 C399 1.241 1_556 S
O404 Co392 2.137 . S
O404 C395 1.247 . S
O405 Co392 2.244 . S
O405 C395 1.272 . S
O405 Co397 2.135 1_554 S
Co406 O407 2.216 . S
Co406 O408 2.091 . S
Co406 O410 2.004 . S
Co406 O416 2.021 . S
Co406 O418 2.137 . S
Co406 O419 2.244 . S
O407 Co406 2.216 . S
O407 C414 1.247 . S
O408 Co406 2.091 . S
O408 C414 1.261 . S
C409 O418 1.247 . S
C409 O419 1.272 . S
O410 Co406 2.004 . S
O410 C415 1.259 . S
Co411 O412 2.061 1_556 S
Co411 O417 2.052 . S
Co411 O419 2.135 1_556 S
O412 Co411 2.061 1_554 S
O412 C415 1.235 . S
C413 O416 1.238 . S
C413 O417 1.241 1_554 S
C414 O407 1.247 . S
C414 O408 1.261 . S
C415 O410 1.259 . S
C415 O412 1.235 . S
O416 Co406 2.021 . S
O416 C413 1.238 . S
O417 Co411 2.052 . S
O417 C413 1.241 1_556 S
O418 Co406 2.137 . S
O418 C409 1.247 . S
O419 Co406 2.244 . S
O419 C409 1.272 . S
O419 Co411 2.135 1_554 S
Co420 O421 2.216 . S
Co420 O422 2.091 . S
Co420 O424 2.004 . S
Co420 O430 2.021 . S
Co420 O432 2.137 . S
Co420 O433 2.244 . S
O421 Co420 2.216 . S
O421 C428 1.247 . S
O422 Co420 2.091 . S
O422 C428 1.261 . S
C423 O432 1.247 . S
C423 O433 1.272 . S
O424 Co420 2.004 . S
O424 C429 1.259 . S
Co425 O426 2.061 . S
Co425 O431 2.052 . S
Co425 O433 2.135 . S
O426 Co425 2.061 . S
O426 C429 1.235 . S
C427 O430 1.238 . S
C427 O431 1.241 . S
C428 O421 1.247 . S
C428 O422 1.261 . S
C429 O424 1.259 . S
C429 O426 1.235 . S
O430 Co420 2.021 . S
O430 C427 1.238 . S
O431 Co425 2.052 . S
O431 C427 1.241 . S
O432 Co420 2.137 . S
O432 C423 1.247 . S
O433 Co420 2.244 . S
O433 C423 1.272 . S
O433 Co425 2.135 . S
Co434 O435 2.216 . S
Co434 O436 2.091 . S
Co434 O438 2.004 . S
Co434 O444 2.021 . S
Co434 O446 2.137 . S
Co434 O447 2.244 . S
O435 Co434 2.216 . S
O435 C442 1.247 . S
O436 Co434 2.091 . S
O436 C442 1.261 . S
C437 O446 1.247 . S
C437 O447 1.272 . S
O438 Co434 2.004 . S
O438 C443 1.259 . S
Co439 O440 2.061 . S
Co439 O445 2.052 . S
Co439 O447 2.135 . S
O440 Co439 2.061 . S
O440 C443 1.235 . S
C441 O444 1.238 . S
C441 O445 1.241 . S
C442 O435 1.247 . S
C442 O436 1.261 . S
C443 O438 1.259 . S
C443 O440 1.235 . S
O444 Co434 2.021 . S
O444 C441 1.238 . S
O445 Co439 2.052 . S
O445 C441 1.241 . S
O446 Co434 2.137 . S
O446 C437 1.247 . S
O447 Co434 2.244 . S
O447 C437 1.272 . S
O447 Co439 2.135 . S
Co448 O449 2.216 . S
Co448 O450 2.091 . S
Co448 O452 2.004 . S
Co448 O458 2.021 . S
Co448 O460 2.137 . S
Co448 O461 2.244 . S
O449 Co448 2.216 . S
O449 C456 1.247 . S
O450 Co448 2.091 . S
O450 C456 1.261 . S
C451 O460 1.247 . S
C451 O461 1.272 . S
O452 Co448 2.004 . S
O452 C457 1.259 . S
Co453 O454 2.061 . S
Co453 O459 2.052 . S
Co453 O461 2.135 . S
O454 Co453 2.061 . S
O454 C457 1.235 . S
C455 O458 1.238 . S
C455 O459 1.241 . S
C456 O449 1.247 . S
C456 O450 1.261 . S
C457 O452 1.259 . S
C457 O454 1.235 . S
O458 Co448 2.021 . S
O458 C455 1.238 . S
O459 Co453 2.052 . S
O459 C455 1.241 . S
O460 Co448 2.137 . S
O460 C451 1.247 . S
O461 Co448 2.244 . S
O461 C451 1.272 . S
O461 Co453 2.135 . S
Co462 O463 2.216 . S
Co462 O464 2.091 . S
Co462 O466 2.004 . S
Co462 O472 2.021 . S
Co462 O474 2.137 . S
Co462 O475 2.244 . S
O463 Co462 2.216 . S
O463 C470 1.247 . S
O464 Co462 2.091 . S
O464 C470 1.261 . S
C465 O474 1.247 . S
C465 O475 1.272 . S
O466 Co462 2.004 . S
O466 C471 1.259 . S
Co467 O468 2.061 . S
Co467 O473 2.052 . S
Co467 O475 2.135 . S
O468 Co467 2.061 . S
O468 C471 1.235 . S
C469 O472 1.238 . S
C469 O473 1.241 . S
C470 O463 1.247 . S
C470 O464 1.261 . S
C471 O466 1.259 . S
C471 O468 1.235 . S
O472 Co462 2.021 . S
O472 C469 1.238 . S
O473 Co467 2.052 . S
O473 C469 1.241 . S
O474 Co462 2.137 . S
O474 C465 1.247 . S
O475 Co462 2.244 . S
O475 C465 1.272 . S
O475 Co467 2.135 . S
Co476 O477 2.216 . S
Co476 O478 2.091 . S
Co476 O480 2.004 . S
Co476 O486 2.021 . S
Co476 O488 2.137 . S
Co476 O489 2.244 . S
O477 Co476 2.216 . S
O477 C484 1.247 . S
O478 Co476 2.091 . S
O478 C484 1.261 . S
C479 O488 1.247 . S
C479 O489 1.272 . S
O480 Co476 2.004 . S
O480 C485 1.259 . S
Co481 O482 2.061 . S
Co481 O487 2.052 . S
Co481 O489 2.135 . S
O482 Co481 2.061 . S
O482 C485 1.235 . S
C483 O486 1.238 . S
C483 O487 1.241 . S
C484 O477 1.247 . S
C484 O478 1.261 . S
C485 O480 1.259 . S
C485 O482 1.235 . S
O486 Co476 2.021 . S
O486 C483 1.238 . S
O487 Co481 2.052 . S
O487 C483 1.241 . S
O488 Co476 2.137 . S
O488 C479 1.247 . S
O489 Co476 2.244 . S
O489 C479 1.272 . S
O489 Co481 2.135 . S
Co490 O491 2.216 . S
Co490 O492 2.091 . S
Co490 O494 2.004 . S
Co490 O500 2.021 . S
Co490 O502 2.137 . S
Co490 O503 2.244 . S
O491 Co490 2.216 . S
O491 C498 1.247 . S
O492 Co490 2.091 . S
O492 C498 1.261 . S
C493 O502 1.247 . S
C493 O503 1.272 . S
O494 Co490 2.004 . S
O494 C499 1.259 . S
Co495 O496 2.061 . S
Co495 O501 2.052 . S
Co495 O503 2.135 . S
O496 Co495 2.061 . S
O496 C499 1.235 . S
C497 O500 1.238 . S
C497 O501 1.241 . S
C498 O491 1.247 . S
C498 O492 1.261 . S
C499 O494 1.259 . S
C499 O496 1.235 . S
O500 Co490 2.021 . S
O500 C497 1.238 . S
O501 Co495 2.052 . S
O501 C497 1.241 . S
O502 Co490 2.137 . S
O502 C493 1.247 . S
O503 Co490 2.244 . S
O503 C493 1.272 . S
O503 Co495 2.135 . S
C7 C259 1.441 . S
C273 C21 1.441 . S
C287 C35 1.441 . S
C49 C469 1.441 . S
C63 C483 1.441 . S
C77 C497 1.441 . S
C343 C91 1.441 . S
C105 C357 1.441 . S
C119 C371 1.441 . S
C217 C133 1.441 . S
C231 C147 1.441 . S
C245 C161 1.441 . S
C427 C175 1.441 1_455 S
C441 C189 1.441 . S
C203 C455 1.441 1_545 S
C385 C301 1.441 1_564 S
C315 C399 1.441 1_656 S
C329 C413 1.441 1_556 S
C8 C386 1.589 . S
C400 C22 1.590 . S
C414 C36 1.590 . S
C176 C50 1.589 . S
C190 C64 1.590 . S
C204 C78 1.590 . S
C92 C302 1.589 . S
C316 C106 1.590 . S
C330 C120 1.590 . S
C134 C428 1.589 . S
C148 C442 1.590 . S
C162 C456 1.590 . S
C218 C344 1.590 . S
C232 C358 1.590 1_545 S
C246 C372 1.590 1_655 S
C260 C470 1.590 . S
C484 C274 1.590 1_565 S
C288 C498 1.590 1_655 S
C17 C9 1.271 . S
C23 C31 1.271 . S
C37 C3 1.272 . S
C51 C73 1.272 . S
C45 C65 1.272 . S
C79 C59 1.271 . S
C93 C101 1.271 . S
C107 C115 1.271 . S
C121 C87 1.272 . S
C157 C135 1.272 . S
C149 C129 1.272 . S
C143 C163 1.271 . S
C185 C177 1.271 . S
C199 C191 1.272 . S
C171 C205 1.272 . S
C219 C241 1.271 . S
C233 C213 1.272 . S
C247 C227 1.272 . S
C269 C261 1.271 . S
C275 C283 1.271 . S
C289 C255 1.272 . S
C303 C325 1.271 . S
C317 C297 1.272 . S
C311 C331 1.271 . S
C353 C345 1.271 . S
C359 C367 1.271 . S
C339 C373 1.272 . S
C387 C409 1.271 . S
C401 C381 1.272 . S
C415 C395 1.271 . S
C429 C437 1.271 . S
C443 C451 1.272 . S
C457 C423 1.272 . S
C471 C493 1.271 . S
C485 C465 1.272 . S
C479 C499 1.272 . S
