# Generated by pormake.
# Topology lcy-e, (6)-cn, num edge types: 1
# Building blocks:
#     Node 0, Type 0, BuildingBlock: CUKXOW_clean_sbu_0, # of connection points: 6
#     Node 1, Type 0, BuildingBlock: CUKXOW_clean_sbu_0, # of connection points: 6
#     Node 2, Type 0, BuildingBlock: CUKXOW_clean_sbu_0, # of connection points: 6
#     Node 3, Type 0, BuildingBlock: CUKXOW_clean_sbu_0, # of connection points: 6
#     Node 4, Type 0, BuildingBlock: CUKXOW_clean_sbu_0, # of connection points: 6
#     Node 5, Type 0, BuildingBlock: CUKXOW_clean_sbu_0, # of connection points: 6
#     Node 6, Type 0, BuildingBlock: CUKXOW_clean_sbu_0, # of connection points: 6
#     Node 7, Type 0, BuildingBlock: CUKXOW_clean_sbu_0, # of connection points: 6
#     Node 8, Type 0, BuildingBlock: CUKXOW_clean_sbu_0, # of connection points: 6
#     Node 9, Type 0, BuildingBlock: CUKXOW_clean_sbu_0, # of connection points: 6
#     Node 10, Type 0, BuildingBlock: CUKXOW_clean_sbu_0, # of connection points: 6
#     Node 11, Type 0, BuildingBlock: CUKXOW_clean_sbu_0, # of connection points: 6
#     Edge 12, Type (0, 0), BuildingBlock: UVAHIK_clean_linker_0, # of connection points: 2
#     Edge 13, Type (0, 0), BuildingBlock: UVAHIK_clean_linker_0, # of connection points: 2
#     Edge 14, Type (0, 0), BuildingBlock: UVAHIK_clean_linker_0, # of connection points: 2
#     Edge 15, Type (0, 0), BuildingBlock: UVAHIK_clean_linker_0, # of connection points: 2
#     Edge 16, Type (0, 0), BuildingBlock: UVAHIK_clean_linker_0, # of connection points: 2
#     Edge 17, Type (0, 0), BuildingBlock: UVAHIK_clean_linker_0, # of connection points: 2
#     Edge 18, Type (0, 0), BuildingBlock: UVAHIK_clean_linker_0, # of connection points: 2
#     Edge 19, Type (0, 0), BuildingBlock: UVAHIK_clean_linker_0, # of connection points: 2
#     Edge 20, Type (0, 0), BuildingBlock: UVAHIK_clean_linker_0, # of connection points: 2
#     Edge 21, Type (0, 0), BuildingBlock: UVAHIK_clean_linker_0, # of connection points: 2
#     Edge 22, Type (0, 0), BuildingBlock: UVAHIK_clean_linker_0, # of connection points: 2
#     Edge 23, Type (0, 0), BuildingBlock: UVAHIK_clean_linker_0, # of connection points: 2
#     Edge 24, Type (0, 0), BuildingBlock: UVAHIK_clean_linker_0, # of connection points: 2
#     Edge 25, Type (0, 0), BuildingBlock: UVAHIK_clean_linker_0, # of connection points: 2
#     Edge 26, Type (0, 0), BuildingBlock: UVAHIK_clean_linker_0, # of connection points: 2
#     Edge 27, Type (0, 0), BuildingBlock: UVAHIK_clean_linker_0, # of connection points: 2
#     Edge 28, Type (0, 0), BuildingBlock: UVAHIK_clean_linker_0, # of connection points: 2
#     Edge 29, Type (0, 0), BuildingBlock: UVAHIK_clean_linker_0, # of connection points: 2
#     Edge 30, Type (0, 0), BuildingBlock: UVAHIK_clean_linker_0, # of connection points: 2
#     Edge 31, Type (0, 0), BuildingBlock: UVAHIK_clean_linker_0, # of connection points: 2
#     Edge 32, Type (0, 0), BuildingBlock: UVAHIK_clean_linker_0, # of connection points: 2
#     Edge 33, Type (0, 0), BuildingBlock: UVAHIK_clean_linker_0, # of connection points: 2
#     Edge 34, Type (0, 0), BuildingBlock: UVAHIK_clean_linker_0, # of connection points: 2
#     Edge 35, Type (0, 0), BuildingBlock: UVAHIK_clean_linker_0, # of connection points: 2
#     Edge 36, Type (0, 0), BuildingBlock: UVAHIK_clean_linker_0, # of connection points: 2
#     Edge 37, Type (0, 0), BuildingBlock: UVAHIK_clean_linker_0, # of connection points: 2
#     Edge 38, Type (0, 0), BuildingBlock: UVAHIK_clean_linker_0, # of connection points: 2
#     Edge 39, Type (0, 0), BuildingBlock: UVAHIK_clean_linker_0, # of connection points: 2
#     Edge 40, Type (0, 0), BuildingBlock: UVAHIK_clean_linker_0, # of connection points: 2
#     Edge 41, Type (0, 0), BuildingBlock: UVAHIK_clean_linker_0, # of connection points: 2
#     Edge 42, Type (0, 0), BuildingBlock: UVAHIK_clean_linker_0, # of connection points: 2
#     Edge 43, Type (0, 0), BuildingBlock: UVAHIK_clean_linker_0, # of connection points: 2
#     Edge 44, Type (0, 0), BuildingBlock: UVAHIK_clean_linker_0, # of connection points: 2
#     Edge 45, Type (0, 0), BuildingBlock: UVAHIK_clean_linker_0, # of connection points: 2
#     Edge 46, Type (0, 0), BuildingBlock: UVAHIK_clean_linker_0, # of connection points: 2
#     Edge 47, Type (0, 0), BuildingBlock: UVAHIK_clean_linker_0, # of connection points: 2
# Relax obj value: 0.156
# Max RMSD: 0.258
# Mean RMSD: 0.230
data_MOF--net-lcy-e--node1-CUKXOW_clean_sbu_0--edge1-UVAHIK_clean_linker_0
_symmetry_space_group_name_H-M    P1
_symmetry_Int_Tables_number       1
_symmetry_cell_setting            triclinic
loop_
_symmetry_equiv_pos_as_xyz
'x, y, z'
_cell_length_a     45.059021
_cell_length_b     48.565672
_cell_length_c     48.69932
_cell_angle_alpha  89.881433
_cell_angle_beta   91.32172
_cell_angle_gamma 88.966087
loop_
_atom_site_label
_atom_site_type_symbol
_atom_site_fract_x
_atom_site_fract_y
_atom_site_fract_z
_atom_type_partial_charge
Tb0 Tb 0.16415 0.18365 0.42951 0.0
C1 C 0.10453 0.14844 0.42685 0.0
Tb2 Tb 0.11069 0.20017 0.46435 0.0
O3 O 0.1886 0.16575 0.46494 0.0
O4 O 0.14326 0.16837 0.46456 0.0
O5 O 0.12927 0.15543 0.41408 0.0
C6 C 0.07384 0.21133 0.505 0.0
O7 O 0.09512 0.16119 0.44918 0.0
C8 C 0.10922 0.21658 0.41307 0.0
C9 C 0.16778 0.2362 0.4666 0.0
O10 O 0.07707 0.22655 0.48336 0.0
O11 O 0.09123 0.18985 0.50365 0.0
O12 O 0.08539 0.21161 0.42667 0.0
O13 O 0.13143 0.21487 0.42897 0.0
O14 O 0.1459 0.22601 0.48099 0.0
O15 O 0.17497 0.22571 0.44238 0.0
C16 C 0.20396 0.1741 0.39069 0.0
O17 O 0.2095 0.18429 0.41476 0.0
O18 O 0.17577 0.16926 0.38822 0.0
C19 C 0.16539 0.16354 0.47994 0.0
Tb20 Tb 0.08597 0.90571 0.69809 0.0
C21 C 0.11502 0.84672 0.69598 0.0
Tb22 Tb 0.06683 0.86347 0.73978 0.0
O23 O 0.13055 0.90702 0.71542 0.0
O24 O 0.09502 0.89827 0.74077 0.0
O25 O 0.10774 0.86901 0.68115 0.0
C26 C 0.06373 0.82879 0.78221 0.0
O27 O 0.10411 0.84221 0.72068 0.0
C28 C 0.03276 0.86854 0.69515 0.0
C29 C 0.03284 0.91929 0.73849 0.0
O30 O 0.07773 0.85185 0.78225 0.0
O31 O 0.05147 0.8251 0.75815 0.0
O32 O 0.02266 0.86147 0.71889 0.0
O33 O 0.06041 0.87015 0.69722 0.0
O34 O 0.04223 0.89879 0.75458 0.0
O35 O 0.04442 0.92364 0.71401 0.0
C36 C 0.09097 0.94592 0.6614 0.0
O37 O 0.09058 0.94904 0.68778 0.0
O38 O 0.08848 0.91999 0.65543 0.0
C39 C 0.12308 0.89913 0.73965 0.0
Tb40 Tb 0.41952 0.81363 0.96059 0.0
C41 C 0.35416 0.82724 0.93554 0.0
Tb42 Tb 0.36594 0.78364 0.98183 0.0
O43 O 0.43405 0.77682 0.93821 0.0
O44 O 0.38994 0.7835 0.94482 0.0
O45 O 0.38234 0.83529 0.93816 0.0
C46 C 0.32653 0.74493 0.99196 0.0
O47 O 0.34408 0.80517 0.94809 0.0
C48 C 0.3742 0.83291 1.0021 0.0
C49 C 0.4273 0.77441 0.0129 0.0
O50 O 0.32851 0.76818 1.00491 0.0
O51 O 0.34683 0.74346 0.97358 0.0
O52 O 0.34827 0.82166 1.00005 0.0
O53 O 0.39387 0.81544 0.99595 0.0
O54 O 0.40182 0.76311 1.00547 0.0
O55 O 0.4366 0.79722 1.00064 0.0
C56 C 0.46227 0.84833 0.94614 0.0
O57 O 0.46538 0.82196 0.94958 0.0
O58 O 0.43491 0.85536 0.95096 0.0
C59 C 0.40804 0.76607 0.93556 0.0
Tb60 Tb 0.45601 0.12934 0.14881 0.0
C61 C 0.43179 0.1911 0.15423 0.0
Tb62 Tb 0.4839 0.16736 0.1928 0.0
O63 O 0.43597 0.10445 0.18112 0.0
O64 O 0.44419 0.14547 0.18743 0.0
O65 O 0.43322 0.16861 0.13846 0.0
C66 C 0.49492 0.19236 0.24048 0.0
O67 O 0.4481 0.1941 0.17717 0.0
C68 C 0.51432 0.16124 0.14756 0.0
C69 C 0.50719 0.10673 0.18753 0.0
O70 O 0.49608 0.20423 0.21648 0.0
O71 O 0.48751 0.16688 0.23734 0.0
O72 O 0.52638 0.16768 0.17113 0.0
O73 O 0.48666 0.16164 0.14988 0.0
O74 O 0.50067 0.12684 0.20471 0.0
O75 O 0.49559 0.10584 0.16231 0.0
C76 C 0.43904 0.10028 0.10486 0.0
O77 O 0.46626 0.10612 0.11164 0.0
O78 O 0.42133 0.11175 0.12234 0.0
C79 C 0.4356 0.12411 0.19909 0.0
Tb80 Tb 0.61521 0.32922 0.55027 0.0
C81 C 0.68199 0.34037 0.57054 0.0
Tb82 Tb 0.66576 0.2992 0.52337 0.0
O83 O 0.60221 0.29085 0.57015 0.0
O84 O 0.6461 0.29759 0.5625 0.0
O85 O 0.65365 0.34889 0.57061 0.0
C86 C 0.70069 0.2577 0.50624 0.0
O87 O 0.69143 0.31965 0.55506 0.0
C88 C 0.65448 0.34914 0.50419 0.0
C89 C 0.6006 0.29069 0.50139 0.0
O90 O 0.68861 0.27674 0.49066 0.0
O91 O 0.69379 0.26258 0.53148 0.0
O92 O 0.68069 0.33736 0.50395 0.0
O93 O 0.63597 0.33183 0.51202 0.0
O94 O 0.62628 0.27823 0.50748 0.0
O95 O 0.59357 0.31467 0.51264 0.0
C96 C 0.5722 0.36177 0.56972 0.0
O97 O 0.5726 0.33515 0.56973 0.0
O98 O 0.5964 0.37047 0.55883 0.0
C99 C 0.62865 0.28005 0.57163 0.0
Tb100 Tb 0.92667 0.41239 0.82472 0.0
C101 C 0.89573 0.35356 0.82866 0.0
Tb102 Tb 0.9473 0.36481 0.78847 0.0
O103 O 0.90352 0.43206 0.7894 0.0
O104 O 0.90886 0.38986 0.79119 0.0
O105 O 0.90182 0.37712 0.8417 0.0
C106 C 0.95796 0.33333 0.74497 0.0
O107 O 0.90758 0.34716 0.80475 0.0
C108 C 0.97207 0.36655 0.83751 0.0
C109 C 0.98082 0.42176 0.78541 0.0
O110 O 0.96379 0.32644 0.77031 0.0
O111 O 0.9463 0.35793 0.74415 0.0
O112 O 0.96922 0.34392 0.8236 0.0
O113 O 0.96464 0.38667 0.82247 0.0
O114 O 0.97404 0.39835 0.77291 0.0
O115 O 0.96766 0.42959 0.80842 0.0
C116 C 0.91469 0.45 0.86331 0.0
O117 O 0.91003 0.4529 0.83715 0.0
O118 O 0.92571 0.42547 0.86807 0.0
C119 C 0.90028 0.40935 0.7759 0.0
Tb120 Tb 0.85602 0.69869 0.10171 0.0
C121 C 0.91846 0.66918 0.10739 0.0
Tb122 Tb 0.9047 0.7161 0.06315 0.0
O123 O 0.85501 0.65785 0.0838 0.0
O124 O 0.86634 0.6916 0.05979 0.0
O125 O 0.89322 0.67501 0.12002 0.0
C126 C 0.94412 0.71895 0.02317 0.0
O127 O 0.92598 0.68102 0.08401 0.0
C128 C 0.89805 0.74699 0.10699 0.0
C129 C 0.84497 0.74844 0.0597 0.0
O130 O 0.9472 0.72974 0.0474 0.0
O131 O 0.91897 0.70643 0.02156 0.0
O132 O 0.90752 0.75626 0.08377 0.0
O133 O 0.89532 0.72136 0.10532 0.0
O134 O 0.86783 0.73956 0.04542 0.0
O135 O 0.83851 0.7378 0.08401 0.0
C136 C 0.81137 0.69194 0.13604 0.0
O137 O 0.80971 0.68976 0.10953 0.0
O138 O 0.83826 0.69849 0.1434 0.0
C139 C 0.86481 0.66563 0.06031 0.0
Tb140 Tb 0.54438 0.65615 0.33771 0.0
C141 C 0.55237 0.59501 0.36216 0.0
Tb142 Tb 0.50763 0.60957 0.31398 0.0
O143 O 0.50478 0.67336 0.35708 0.0
O144 O 0.50925 0.63132 0.35178 0.0
O145 O 0.56509 0.61938 0.3584 0.0
C146 C 0.46179 0.57809 0.30005 0.0
O147 O 0.52671 0.58882 0.34992 0.0
C148 C 0.56032 0.61533 0.29294 0.0
C149 C 0.50266 0.66878 0.28519 0.0
O150 O 0.48956 0.57145 0.297 0.0
O151 O 0.45987 0.60242 0.31093 0.0
O152 O 0.54672 0.59196 0.29316 0.0
O153 O 0.54284 0.6337 0.3011 0.0
O154 O 0.49004 0.64455 0.28916 0.0
O155 O 0.52611 0.67656 0.3003 0.0
C156 C 0.58621 0.69223 0.35252 0.0
O157 O 0.55963 0.69137 0.36207 0.0
O158 O 0.5895 0.67235 0.33505 0.0
C159 C 0.49187 0.64992 0.36019 0.0
Tb160 Tb 0.16892 0.4089 0.14352 0.0
C161 C 0.13926 0.41494 0.08545 0.0
Tb162 Tb 0.18574 0.45778 0.10877 0.0
O163 O 0.12343 0.42442 0.14589 0.0
O164 O 0.15835 0.45181 0.14296 0.0
O165 O 0.14758 0.3969 0.10483 0.0
C166 C 0.18758 0.50438 0.07976 0.0
O167 O 0.14887 0.44061 0.08519 0.0
C168 C 0.22385 0.41629 0.10849 0.0
C169 C 0.2171 0.45073 0.16555 0.0
O170 O 0.19861 0.48079 0.07229 0.0
O171 O 0.17551 0.50167 0.10347 0.0
O172 O 0.23122 0.44177 0.10513 0.0
O173 O 0.196 0.41491 0.1093 0.0
O174 O 0.20725 0.46902 0.14717 0.0
O175 O 0.20832 0.42475 0.16536 0.0
C176 C 0.16268 0.36716 0.17833 0.0
O177 O 0.15921 0.39302 0.18396 0.0
O178 O 0.17029 0.3645 0.15287 0.0
C179 C 0.13048 0.44995 0.14314 0.0
Tb180 Tb 0.71309 0.08303 0.85496 0.0
C181 C 0.68651 0.09119 0.91462 0.0
Tb182 Tb 0.73915 0.05002 0.9044 0.0
O183 O 0.69213 0.04527 0.83935 0.0
O184 O 0.69938 0.0509 0.88092 0.0
O185 O 0.69165 0.10321 0.89049 0.0
C186 C 0.7521 1.00483 0.9342 0.0
O187 O 0.69935 0.06739 0.92205 0.0
C188 C 0.76093 0.0993 0.89827 0.0
C189 C 0.76773 0.04253 0.84516 0.0
O190 O 0.75522 0.03002 0.94282 0.0
O191 O 0.74188 1.00537 0.90911 0.0
O192 O 0.7612 0.08627 0.9217 0.0
O193 O 0.75248 0.0831 0.87957 0.0
O194 O 0.76562 0.03379 0.87089 0.0
O195 O 0.75089 0.06304 0.83485 0.0
C196 C 0.69612 0.11988 0.81606 0.0
O197 O 0.68066 0.0993 0.8243 0.0
O198 O 0.72083 0.12012 0.83025 0.0
C199 C 0.69055 0.03383 0.8634 0.0
Tb200 Tb 0.8356 0.94121 0.39869 0.0
C201 C 0.84995 0.9156 0.33966 0.0
Tb202 Tb 0.80274 0.96224 0.34708 0.0
O203 O 0.79375 0.92532 0.4136 0.0
O204 O 0.80179 0.92641 0.37185 0.0
O205 O 0.85926 0.9192 0.36564 0.0
C206 C 0.75891 0.97336 0.3106 0.0
O207 O 0.82595 0.92799 0.32891 0.0
C208 C 0.85586 0.98209 0.35515 0.0
C209 C 0.79201 0.99233 0.40424 0.0
O210 O 0.78314 0.98725 0.31351 0.0
O211 O 0.7595 0.95317 0.32809 0.0
O212 O 0.84337 0.97963 0.33092 0.0
O213 O 0.83731 0.97633 0.37318 0.0
O214 O 0.78196 0.98716 0.37896 0.0
O215 O 0.81468 0.97825 0.41568 0.0
C216 C 0.87295 0.92661 0.44018 0.0
O217 O 0.85147 0.91189 0.43039 0.0
O218 O 0.87384 0.94933 0.42618 0.0
C219 C 0.78262 0.92068 0.38926 0.0
Tb220 Tb 0.29658 0.57519 0.65761 0.0
C221 C 0.32283 0.58076 0.59707 0.0
Tb222 Tb 0.27075 0.54086 0.60964 0.0
O223 O 0.32161 0.53899 0.6734 0.0
O224 O 0.31103 0.5423 0.63246 0.0
O225 O 0.319 0.59308 0.62142 0.0
C226 C 0.25805 0.49524 0.58137 0.0
O227 O 0.30944 0.55746 0.59032 0.0
C228 C 0.24767 0.59045 0.61525 0.0
C229 C 0.24129 0.53716 0.66823 0.0
O230 O 0.25392 0.52028 0.57222 0.0
O231 O 0.26925 0.49615 0.60609 0.0
O232 O 0.24676 0.57708 0.59208 0.0
O233 O 0.25708 0.57445 0.63385 0.0
O234 O 0.24607 0.5251 0.64428 0.0
O235 O 0.25543 0.55994 0.67568 0.0
C236 C 0.31307 0.61011 0.69766 0.0
O237 O 0.30919 0.58391 0.70019 0.0
O238 O 0.30781 0.61707 0.67212 0.0
C239 C 0.32177 0.52609 0.6502 0.0
C240 C 0.18216 0.2676 0.50491 0.0
C241 C 0.18167 0.26177 0.47669 0.0
C242 C 0.19205 0.29295 0.51461 0.0
C243 C 0.23126 0.35706 0.49459 0.0
H244 H 0.19057 0.3861 0.55791 0.0
C245 C 0.243 0.46904 0.53884 0.0
C246 C 0.25012 0.46948 0.56708 0.0
C247 C 0.23535 0.44423 0.52594 0.0
C248 C 0.20213 0.37824 0.54023 0.0
H249 H 0.19184 0.27768 0.43648 0.0
H250 H 0.20818 0.32247 0.45325 0.0
H251 H 0.17627 0.34192 0.53893 0.0
H252 H 0.25491 0.44453 0.60393 0.0
H253 H 0.2408 0.40163 0.58166 0.0
H254 H 0.2565 0.39423 0.49578 0.0
C255 C 0.20159 0.30723 0.46806 0.0
C256 C 0.19417 0.35273 0.52943 0.0
C257 C 0.19218 0.28154 0.45838 0.0
C258 C 0.24949 0.44482 0.58214 0.0
C259 C 0.24135 0.42027 0.56943 0.0
C260 C 0.23888 0.38291 0.50518 0.0
C261 C 0.2011 0.31349 0.4963 0.0
C262 C 0.20898 0.34144 0.50679 0.0
C263 C 0.23413 0.41969 0.54125 0.0
C264 C 0.22471 0.39348 0.52839 0.0
H265 H 0.17453 0.25263 0.51956 0.0
H266 H 0.19225 0.29648 0.53655 0.0
H267 H 0.24335 0.34908 0.4773 0.0
H268 H 0.2434 0.48778 0.52678 0.0
H269 H 0.22978 0.4443 0.50419 0.0
C270 C 0.80162 0.04245 0.80441 0.0
C271 C 0.79179 0.03001 0.82861 0.0
C272 C 0.82622 0.03146 0.79063 0.0
C273 C 0.8731 0.96759 0.78589 0.0
H274 H 0.93453 0.0164 0.76171 0.0
C275 C 0.99215 0.92879 0.77151 0.0
C276 C 0.00633 0.93557 0.74703 0.0
C277 C 0.96542 0.94166 0.77846 0.0
C278 C 0.9174 1.00255 0.76806 0.0
H279 H 0.79973 0.99577 0.85675 0.0
H280 H 0.84216 0.97705 0.83318 0.0
H281 H 0.88767 0.03579 0.77837 0.0
H282 H 1.00384 0.96217 0.71116 0.0
H283 H 0.95708 0.98509 0.7237 0.0
H284 H 0.90306 0.93443 0.77653 0.0
C285 C 0.83092 0.99507 0.82451 0.0
C286 C 0.89051 0.01363 0.77752 0.0
C287 C 0.80659 0.006 0.83822 0.0
C288 C 0.99356 0.95643 0.73018 0.0
C289 C 0.9668 0.96957 0.73733 0.0
C290 C 0.89993 0.9566 0.7767 0.0
C291 C 0.84129 0.00769 0.80065 0.0
C292 C 0.8683 0.99626 0.78721 0.0
C293 C 0.95214 0.96185 0.76127 0.0
C294 C 0.92267 0.97392 0.76829 0.0
H295 H 0.79081 0.06101 0.79649 0.0
H296 H 0.83347 0.0416 0.7722 0.0
H297 H 0.85627 0.95355 0.79249 0.0
H298 H 1.00124 0.91296 0.78513 0.0
H299 H 0.95495 0.9356 0.79729 0.0
C300 C 0.28357 0.72696 0.01752 0.0
C301 C 0.30518 0.72321 0.99754 0.0
C302 C 0.26422 0.70574 0.02357 0.0
C303 C 0.23649 0.63846 0.99825 0.0
H304 H 0.22695 0.6236 0.07576 0.0
C305 C 0.20903 0.53196 0.04212 0.0
C306 C 0.19175 0.53076 0.06566 0.0
C307 C 0.21649 0.5574 0.03104 0.0
C308 C 0.22883 0.62773 0.05401 0.0
H309 H 0.3232 0.69486 0.96765 0.0
H310 H 0.28996 0.65758 0.97857 0.0
H311 H 0.25215 0.66491 0.0617 0.0
H312 H 0.167 0.55482 0.0951 0.0
H313 H 0.17983 0.59931 0.07561 0.0
H314 H 0.21408 0.60058 0.99073 0.0
C315 C 0.28748 0.67698 0.98929 0.0
C316 C 0.2433 0.65145 0.04594 0.0
C317 C 0.30671 0.69823 0.98319 0.0
C318 C 0.18059 0.55525 0.07703 0.0
C319 C 0.18802 0.58068 0.06596 0.0
C320 C 0.22206 0.61464 0.00635 0.0
C321 C 0.26625 0.68036 0.00979 0.0
C322 C 0.24784 0.65682 0.018 0.0
C323 C 0.20677 0.58203 0.04334 0.0
C324 C 0.2186 0.60879 0.03435 0.0
H325 H 0.28184 0.74616 0.0287 0.0
H326 H 0.24786 0.70911 0.03921 0.0
H327 H 0.2392 0.64226 0.97654 0.0
H328 H 0.21786 0.51331 0.03298 0.0
H329 H 0.23117 0.55775 0.01375 0.0
C330 C 0.53685 0.08335 0.22494 0.0
C331 C 0.52945 0.08572 0.19683 0.0
C332 C 0.55991 0.06582 0.23396 0.0
C333 C 0.62957 0.03478 0.21111 0.0
H334 H 0.62593 0.99607 0.28064 0.0
C335 C 0.73367 1.0051 0.27663 0.0
C336 C 0.73343 0.98087 0.29237 0.0
C337 C 0.70843 0.01354 0.26138 0.0
C338 C 0.6273 0.00635 0.26097 0.0
H339 H 0.53992 0.07086 0.15618 0.0
H340 H 0.58048 0.04002 0.17206 0.0
H341 H 0.5811 0.01734 0.26071 0.0
H342 H 0.70724 0.94581 0.30364 0.0
H343 H 0.66325 0.96031 0.27674 0.0
H344 H 0.67591 0.024 0.21155 0.0
C345 C 0.56839 0.05194 0.18704 0.0
C346 C 0.60162 0.0188 0.24968 0.0
C347 C 0.54504 0.06942 0.17798 0.0
C348 C 0.70793 0.96468 0.29179 0.0
C349 C 0.68271 0.97307 0.27649 0.0
C350 C 0.65532 0.02231 0.22242 0.0
C351 C 0.5763 0.05024 0.21513 0.0
C352 C 0.60259 0.03374 0.22497 0.0
C353 C 0.68244 0.99789 0.26152 0.0
C354 C 0.65462 0.00846 0.2478 0.0
H355 H 0.52525 0.09554 0.24005 0.0
H356 H 0.56562 0.06532 0.25569 0.0
H357 H 0.63112 0.04626 0.19212 0.0
H358 H 0.75305 0.01798 0.27677 0.0
H359 H 0.70892 0.03293 0.25038 0.0
C360 C 0.72772 0.21304 0.51537 0.0
C361 C 0.7145 0.23177 0.49654 0.0
C362 C 0.73726 0.18691 0.50675 0.0
C363 C 0.71975 0.13516 0.45522 0.0
H364 H 0.79697 0.10268 0.47331 0.0
C365 C 0.76031 0.03521 0.40401 0.0
C366 C 0.78003 0.01718 0.41826 0.0
C367 C 0.75176 0.0604 0.41539 0.0
C368 C 0.77508 0.11116 0.4685 0.0
H369 H 0.70157 0.23821 0.45386 0.0
H370 H 0.71783 0.1924 0.43886 0.0
H371 H 0.78465 0.14911 0.48918 0.0
H372 H 0.80522 0.01121 0.45635 0.0
H373 H 0.78939 0.05483 0.47674 0.0
H374 H 0.70959 0.09728 0.43524 0.0
C375 C 0.72089 0.19797 0.46026 0.0
C376 C 0.76816 0.13788 0.47744 0.0
C377 C 0.71181 0.22423 0.46879 0.0
C378 C 0.79005 0.02459 0.44475 0.0
C379 C 0.78119 0.04979 0.45632 0.0
C380 C 0.72644 0.10835 0.44667 0.0
C381 C 0.73326 0.17888 0.47923 0.0
C382 C 0.74059 0.15029 0.47051 0.0
C383 C 0.76231 0.06828 0.44159 0.0
C384 C 0.75439 0.09607 0.45276 0.0
H385 H 0.72994 0.21831 0.53692 0.0
H386 H 0.74663 0.17259 0.52182 0.0
H387 H 0.69809 0.14401 0.45005 0.0
H388 H 0.75222 0.0304 0.38349 0.0
H389 H 0.73766 0.07411 0.40308 0.0
C390 C 0.0174 0.46065 0.78884 0.0
C391 C 0.00658 0.43724 0.77513 0.0
C392 C 0.04337 0.47339 0.78017 0.0
C393 C 0.11188 0.45709 0.74319 0.0
H394 H 0.11876 0.53577 0.73213 0.0
C395 C 0.20375 0.50128 0.67786 0.0
C396 C 0.21688 0.52639 0.68507 0.0
C397 C 0.1795 0.49154 0.69205 0.0
C398 C 0.11741 0.5138 0.73557 0.0
H399 H 0.01419 0.40965 0.74083 0.0
H400 H 0.05901 0.43163 0.72603 0.0
H401 H 0.07301 0.51731 0.75063 0.0
H402 H 0.21486 0.56074 0.71337 0.0
H403 H 0.17239 0.54347 0.73849 0.0
H404 H 0.15595 0.4533 0.72818 0.0
C405 C 0.04774 0.43998 0.74366 0.0
C406 C 0.09115 0.50324 0.7461 0.0
C407 C 0.02184 0.42746 0.75212 0.0
C408 C 0.20535 0.54129 0.7073 0.0
C409 C 0.18086 0.5315 0.72156 0.0
C410 C 0.13806 0.46759 0.73289 0.0
C411 C 0.05916 0.46279 0.75781 0.0
C412 C 0.08784 0.47468 0.74935 0.0
C413 C 0.16757 0.5065 0.71401 0.0
C414 C 0.14095 0.496 0.72822 0.0
H415 H 0.00624 0.46877 0.80662 0.0
H416 H 0.0516 0.49096 0.79147 0.0
H417 H 0.11032 0.43504 0.74606 0.0
H418 H 0.21191 0.48917 0.66088 0.0
H419 H 0.16964 0.47248 0.68526 0.0
C420 C 0.75981 0.954 0.93554 0.0
C421 C 0.75964 0.97923 0.94956 0.0
C422 C 0.76745 0.92953 0.94926 0.0
C423 C 0.77076 0.89498 0.01583 0.0
H424 H 0.82999 0.84833 0.98169 0.0
C425 C 0.81933 0.79416 0.0666 0.0
C426 C 0.82851 0.77295 0.04897 0.0
C427 C 0.80894 0.81949 0.05583 0.0
C428 C 0.813 0.86075 0.99135 0.0
H429 H 0.76664 0.99865 0.98911 0.0
H430 H 0.7796 0.95542 0.01346 0.0
H431 H 0.81609 0.89228 0.96084 0.0
H432 H 0.83212 0.7608 0.00643 0.0
H433 H 0.81259 0.80404 0.98766 0.0
H434 H 0.76704 0.86304 0.04598 0.0
C435 C 0.77396 0.95478 0.99173 0.0
C436 C 0.80524 0.88612 0.97944 0.0
C437 C 0.76671 0.97946 0.97782 0.0
C438 C 0.82541 0.77689 0.0205 0.0
C439 C 0.81455 0.80187 0.00976 0.0
C440 C 0.77824 0.86929 0.02762 0.0
C441 C 0.77474 0.92961 0.97746 0.0
C442 C 0.78388 0.90342 0.99137 0.0
C443 C 0.80718 0.82394 0.0272 0.0
C444 C 0.79926 0.85165 0.01534 0.0
H445 H 0.75435 0.95315 0.91378 0.0
H446 H 0.76758 0.91044 0.93779 0.0
H447 H 0.75409 0.90788 0.02538 0.0
H448 H 0.82184 0.79178 0.08866 0.0
H449 H 0.80364 0.83593 0.06996 0.0
C450 C 0.44057 0.53392 0.28304 0.0
C451 C 0.43634 0.56133 0.29131 0.0
C452 C 0.41645 0.51843 0.27378 0.0
C453 C 0.33333 0.51863 0.27058 0.0
H454 H 0.34542 0.47039 0.20831 0.0
C455 C 0.24121 0.48725 0.19361 0.0
C456 C 0.23998 0.4595 0.18568 0.0
C457 C 0.26433 0.49639 0.21062 0.0
C458 C 0.34182 0.48346 0.22597 0.0
H459 H 0.4038 0.59413 0.29661 0.0
H460 H 0.36195 0.56769 0.27952 0.0
H461 H 0.38784 0.49289 0.22987 0.0
H462 H 0.26163 0.41943 0.18957 0.0
H463 H 0.30273 0.43569 0.2189 0.0
H464 H 0.28697 0.51026 0.26544 0.0
C465 C 0.38359 0.55765 0.28088 0.0
C466 C 0.36613 0.49633 0.23843 0.0
C467 C 0.40762 0.57295 0.29048 0.0
C468 C 0.26196 0.44089 0.19557 0.0
C469 C 0.2855 0.45019 0.21217 0.0
C470 C 0.309 0.50608 0.25783 0.0
C471 C 0.38765 0.5302 0.27225 0.0
C472 C 0.36216 0.51449 0.26062 0.0
C473 C 0.287 0.47808 0.21962 0.0
C474 C 0.31298 0.48872 0.23516 0.0
H475 H 0.46253 0.52444 0.28367 0.0
H476 H 0.42044 0.49726 0.26779 0.0
H477 H 0.32942 0.53189 0.28801 0.0
H478 H 0.22451 0.50202 0.18632 0.0
H479 H 0.26511 0.51804 0.21586 0.0
C480 C 0.50668 0.18718 0.29022 0.0
C481 C 0.50264 0.2046 0.26734 0.0
C482 C 0.51518 0.19781 0.3157 0.0
C483 C 0.51333 0.25708 0.35982 0.0
H484 H 0.58491 0.22519 0.39337 0.0
C485 C 0.56659 0.29892 0.46081 0.0
C486 C 0.58295 0.28044 0.47774 0.0
C487 C 0.55444 0.29019 0.43567 0.0
C488 C 0.56454 0.234 0.38468 0.0
H489 H 0.50345 0.24688 0.2532 0.0
H490 H 0.51772 0.26577 0.29846 0.0
H491 H 0.56841 0.20984 0.34817 0.0
H492 H 0.5976 0.23799 0.4827 0.0
H493 H 0.57504 0.22233 0.43975 0.0
H494 H 0.50872 0.28054 0.3967 0.0
C495 C 0.51454 0.24382 0.29634 0.0
C496 C 0.55532 0.22538 0.3586 0.0
C497 C 0.50653 0.23305 0.27055 0.0
C498 C 0.5853 0.25272 0.46993 0.0
C499 C 0.57266 0.24386 0.4451 0.0
C500 C 0.52226 0.26542 0.38623 0.0
C501 C 0.51933 0.22616 0.319 0.0
C502 C 0.52962 0.23674 0.34598 0.0
C503 C 0.55796 0.26266 0.42713 0.0
C504 C 0.54794 0.25385 0.39911 0.0
H505 H 0.5038 0.16516 0.28836 0.0
H506 H 0.51855 0.18383 0.33291 0.0
H507 H 0.49327 0.26595 0.35053 0.0
H508 H 0.56467 0.32051 0.46618 0.0
H509 H 0.54354 0.30537 0.42242 0.0
C510 C 0.05686 0.20214 0.55239 0.0
C511 C 0.05569 0.21864 0.52869 0.0
C512 C 0.04196 0.21044 0.57588 0.0
C513 C 0.98411 0.25831 0.6014 0.0
H514 H 0.03201 0.25664 0.6686 0.0
C515 C 0.95865 0.32692 0.69432 0.0
C516 C 0.96454 0.31644 0.72078 0.0
C517 C 0.96629 0.31159 0.67125 0.0
C518 C 0.01806 0.25679 0.65018 0.0
H519 H 0.03727 0.25606 0.51036 0.0
H520 H 0.01126 0.27066 0.55144 0.0
H521 H 0.05112 0.23542 0.62725 0.0
H522 H 0.98204 0.28152 0.74411 0.0
H523 H 0.99512 0.25446 0.70374 0.0
H524 H 0.95126 0.28017 0.62425 0.0
C525 C 0.02348 0.25124 0.55188 0.0
C526 C 0.02905 0.24463 0.62646 0.0
C527 C 0.03848 0.24299 0.52843 0.0
C528 C 0.97745 0.29009 0.72387 0.0
C529 C 0.98504 0.27469 0.70078 0.0
C530 C 0.97306 0.27039 0.62517 0.0
C531 C 0.02554 0.23532 0.57601 0.0
C532 C 0.01242 0.2457 0.60171 0.0
C533 C 0.97989 0.28543 0.67421 0.0
C534 C 0.99016 0.27022 0.64969 0.0
H535 H 0.06995 0.18321 0.55304 0.0
H536 H 0.04367 0.19761 0.5941 0.0
H537 H 0.97065 0.2591 0.58268 0.0
H538 H 0.94868 0.34722 0.69143 0.0
H539 H 0.9624 0.32064 0.65112 0.0
C540 C 0.07408 0.81794 0.83151 0.0
C541 C 0.05954 0.8115 0.80663 0.0
C542 C 0.0676 0.80375 0.85554 0.0
C543 C 0.02978 0.74236 0.88292 0.0
H544 H 0.01594 0.79011 0.94521 0.0
C545 C 0.95635 0.71339 0.97381 0.0
C546 C 0.96393 0.72338 1.00001 0.0
C547 C 0.97303 0.72051 0.95111 0.0
C548 C 0.02025 0.77633 0.92825 0.0
H549 H 0.02791 0.78445 0.78688 0.0
H550 H 0.01613 0.75988 0.82896 0.0
H551 H 0.03624 0.80907 0.90366 0.0
H552 H 0.9957 0.74727 0.02348 0.0
H553 H 0.02514 0.75947 0.98388 0.0
H554 H 0.01287 0.70975 0.90746 0.0
C555 C 0.03282 0.77563 0.82994 0.0
C556 C 0.03191 0.78722 0.90437 0.0
C557 C 0.03942 0.78978 0.80586 0.0
C558 C 0.98931 0.73945 1.00342 0.0
C559 C 0.00603 0.74654 0.98074 0.0
C560 C 0.01807 0.73143 0.90689 0.0
C561 C 0.0463 0.78292 0.85518 0.0
C562 C 0.03645 0.77048 0.88127 0.0
C563 C 0.99763 0.73775 0.95422 0.0
C564 C 0.01278 0.7484 0.92969 0.0
H565 H 0.08989 0.83448 0.83258 0.0
H566 H 0.07878 0.80952 0.87454 0.0
H567 H 0.03336 0.72884 0.8656 0.0
H568 H 0.93686 0.70093 0.97066 0.0
H569 H 0.96577 0.71359 0.93096 0.0
C570 C 0.5157 0.69966 0.24583 0.0
C571 C 0.49435 0.68443 0.25965 0.0
C572 C 0.50952 0.71074 0.21959 0.0
C573 C 0.45519 0.70415 0.15989 0.0
H574 H 0.49751 0.76673 0.13227 0.0
C575 C 0.44033 0.73625 0.04602 0.0
C576 C 0.44173 0.76424 0.03892 0.0
C577 C 0.44901 0.72702 0.07236 0.0
C578 C 0.4851 0.74942 0.13955 0.0
H579 H 0.44918 0.67012 0.25713 0.0
H580 H 0.43761 0.69081 0.21249 0.0
H581 H 0.50568 0.752 0.17949 0.0
H582 H 0.45378 0.80449 0.05397 0.0
H583 H 0.46776 0.78883 0.10019 0.0
H584 H 0.43321 0.70256 0.12068 0.0
C585 C 0.45974 0.69327 0.22111 0.0
C586 C 0.49021 0.74058 0.16681 0.0
C587 C 0.46619 0.68166 0.24706 0.0
C588 C 0.45292 0.7827 0.05862 0.0
C589 C 0.46094 0.77359 0.08527 0.0
C590 C 0.44965 0.71331 0.13289 0.0
C591 C 0.48153 0.70741 0.20649 0.0
C592 C 0.47547 0.71764 0.17751 0.0
C593 C 0.45853 0.74561 0.09285 0.0
C594 C 0.46467 0.73598 0.12202 0.0
H595 H 0.53782 0.70184 0.25465 0.0
H596 H 0.52724 0.72097 0.20925 0.0
H597 H 0.44364 0.68613 0.1667 0.0
H598 H 0.43186 0.72147 0.0313 0.0
H599 H 0.44771 0.70522 0.07665 0.0
C600 C 0.08511 0.22414 0.36678 0.0
C601 C 0.11079 0.2227 0.38358 0.0
C602 C 0.08703 0.23167 0.33912 0.0
C603 C 0.09659 0.27111 0.29189 0.0
H604 H 0.16671 0.25629 0.24913 0.0
C605 C 0.14497 0.35196 0.22342 0.0
C606 C 0.15547 0.34491 0.19744 0.0
C607 C 0.13594 0.33167 0.2414 0.0
C608 C 0.14669 0.26022 0.26049 0.0
H609 H 0.15864 0.22676 0.38467 0.0
H610 H 0.16199 0.24022 0.3369 0.0
H611 H 0.15672 0.22761 0.28907 0.0
H612 H 0.16534 0.31119 0.16987 0.0
H613 H 0.14986 0.27517 0.20193 0.0
H614 H 0.08709 0.30426 0.26392 0.0
C615 C 0.14041 0.23519 0.34464 0.0
C616 C 0.14109 0.244 0.28348 0.0
C617 C 0.13846 0.22776 0.37215 0.0
C618 C 0.15735 0.31706 0.18987 0.0
C619 C 0.14845 0.29656 0.2081 0.0
C620 C 0.10215 0.28724 0.26893 0.0
C621 C 0.11468 0.23778 0.32791 0.0
C622 C 0.11673 0.25012 0.30014 0.0
C623 C 0.13726 0.3038 0.23389 0.0
C624 C 0.12799 0.28279 0.25383 0.0
H625 H 0.06354 0.22007 0.37513 0.0
H626 H 0.06683 0.23332 0.32668 0.0
H627 H 0.07768 0.27648 0.30425 0.0
H628 H 0.14339 0.37327 0.22984 0.0
H629 H 0.12816 0.33784 0.2614 0.0
C630 C 0.03022 0.87576 0.64456 0.0
C631 C 0.01541 0.87399 0.66952 0.0
C632 C 0.01456 0.88149 0.62008 0.0
C633 C 0.93872 0.88205 0.58812 0.0
H634 H 0.97668 0.92612 0.533 0.0
C635 C 0.88835 0.89447 0.47834 0.0
C636 C 0.89082 0.9201 0.46529 0.0
C637 C 0.90361 0.88896 0.50317 0.0
C638 C 0.96552 0.91403 0.5482 0.0
H639 H 0.97258 0.87688 0.68859 0.0
H640 H 0.94499 0.88756 0.64579 0.0
H641 H 1.00188 0.91754 0.57684 0.0
H642 H 0.91124 0.96005 0.46784 0.0
H643 H 0.93735 0.95081 0.51141 0.0
H644 H 0.90187 0.87942 0.5598 0.0
C645 C 0.96873 0.88398 0.645 0.0
C646 C 0.98023 0.90873 0.57332 0.0
C647 C 0.98449 0.87797 0.66956 0.0
C648 C 0.90912 0.94002 0.47735 0.0
C649 C 0.92418 0.93463 0.50232 0.0
C650 C 0.92388 0.88755 0.56305 0.0
C651 C 0.98361 0.88592 0.6199 0.0
C652 C 0.96719 0.89245 0.59357 0.0
C653 C 0.92151 0.90906 0.51571 0.0
C654 C 0.93715 0.90347 0.54263 0.0
H655 H 0.05404 0.8725 0.64386 0.0
H656 H 0.02679 0.88212 0.60122 0.0
H657 H 0.92801 0.86924 0.60303 0.0
H658 H 0.8744 0.87871 0.46946 0.0
H659 H 0.90141 0.86885 0.51247 0.0
C660 C 0.33272 0.6548 0.7167 0.0
C661 C 0.3217 0.62826 0.72084 0.0
C662 C 0.342 0.67083 0.73924 0.0
C663 C 0.33194 0.67979 0.81364 0.0
H664 H 0.41034 0.71127 0.81493 0.0
C665 C 0.38162 0.72647 0.91351 0.0
C666 C 0.40023 0.74914 0.9113 0.0
C667 C 0.37242 0.712 0.88998 0.0
C668 C 0.38816 0.70309 0.81488 0.0
H669 H 0.3112 0.59797 0.75174 0.0
H670 H 0.32658 0.62603 0.79077 0.0
H671 H 0.39242 0.68745 0.77389 0.0
H672 H 0.42362 0.77475 0.88287 0.0
H673 H 0.40698 0.75032 0.84185 0.0
H674 H 0.32711 0.69578 0.85418 0.0
C675 C 0.32829 0.63446 0.77026 0.0
C676 C 0.37795 0.68935 0.79127 0.0
C677 C 0.3196 0.61835 0.74785 0.0
C678 C 0.40963 0.75702 0.88518 0.0
C679 C 0.4001 0.74289 0.86164 0.0
C680 C 0.34191 0.69387 0.83707 0.0
C681 C 0.3398 0.66081 0.76629 0.0
C682 C 0.34985 0.67727 0.79049 0.0
C683 C 0.38118 0.7202 0.86358 0.0
C684 C 0.37034 0.70551 0.83824 0.0
H685 H 0.33465 0.66292 0.6961 0.0
H686 H 0.35069 0.69112 0.73556 0.0
H687 H 0.31004 0.67093 0.81358 0.0
H688 H 0.37427 0.71983 0.9334 0.0
H689 H 0.35847 0.69432 0.8926 0.0
C690 C 0.56114 0.15696 0.12104 0.0
C691 C 0.53 0.1577 0.12145 0.0
C692 C 0.57585 0.15348 0.09622 0.0
C693 C 0.56439 0.12609 0.02623 0.0
H694 H 0.63804 0.16303 0.01172 0.0
C695 C 0.64871 0.08446 0.95014 0.0
C696 C 0.66413 0.10267 0.9334 0.0
C697 C 0.62962 0.09434 0.97007 0.0
C698 C 0.61726 0.15288 0.01526 0.0
H699 H 0.48979 0.15609 0.09629 0.0
H700 H 0.51535 0.15 0.05304 0.0
H701 H 0.61045 0.17463 0.05294 0.0
H702 H 0.67106 0.14562 0.92393 0.0
H703 H 0.63753 0.16317 0.95941 0.0
H704 H 0.57132 0.10411 0.98882 0.0
C705 C 0.52849 0.15173 0.07184 0.0
C706 C 0.60166 0.15924 0.03906 0.0
C707 C 0.51383 0.15523 0.09662 0.0
C708 C 0.65935 0.13115 0.93649 0.0
C709 C 0.64038 0.14114 0.95688 0.0
C710 C 0.58 0.11969 1.00256 0.0
C711 C 0.5597 0.15067 0.07131 0.0
C712 C 0.57529 0.14556 0.04508 0.0
C713 C 0.62551 0.12276 0.97404 0.0
C714 C 0.60694 0.13257 0.99706 0.0
H715 H 0.57413 0.1588 0.13992 0.0
H716 H 0.59988 0.15237 0.09665 0.0
H717 H 0.5443 0.11499 0.03024 0.0
H718 H 0.65175 0.06238 0.94815 0.0
H719 H 0.61887 0.0796 0.98309 0.0
C720 C 0.6666 0.25858 0.60403 0.0
C721 C 0.63738 0.2597 0.59323 0.0
C722 C 0.67374 0.24245 0.62725 0.0
C723 C 0.64824 0.18463 0.66998 0.0
H724 H 0.69336 0.21997 0.72832 0.0
C725 C 0.66134 0.13502 0.77782 0.0
C726 C 0.6887 0.13754 0.79191 0.0
C727 C 0.65524 0.15 0.75365 0.0
C728 C 0.68111 0.20955 0.71216 0.0
H729 H 0.59313 0.2438 0.59749 0.0
H730 H 0.60569 0.21526 0.63768 0.0
H731 H 0.68364 0.24428 0.68513 0.0
H732 H 0.73102 0.15796 0.79195 0.0
H733 H 0.72076 0.18369 0.74958 0.0
H734 H 0.64597 0.14977 0.69673 0.0
C735 C 0.62306 0.22694 0.62834 0.0
C736 C 0.67551 0.22356 0.68734 0.0
C737 C 0.61584 0.24331 0.60532 0.0
C738 C 0.70964 0.15573 0.78162 0.0
C739 C 0.70366 0.17057 0.75733 0.0
C740 C 0.65406 0.17051 0.6947 0.0
C741 C 0.65194 0.2268 0.63999 0.0
C742 C 0.65888 0.21134 0.66597 0.0
C743 C 0.67647 0.16773 0.74279 0.0
C744 C 0.67045 0.1828 0.71627 0.0
H745 H 0.68371 0.27101 0.59522 0.0
H746 H 0.69628 0.24252 0.63546 0.0
H747 H 0.63564 0.17449 0.65385 0.0
H748 H 0.64474 0.12119 0.7853 0.0
H749 H 0.63382 0.14763 0.74349 0.0
C750 C 0.11415 0.37886 0.05648 0.0
C751 C 0.11907 0.40669 0.06271 0.0
C752 C 0.09716 0.37176 0.03313 0.0
C753 C 0.07536 0.40061 0.9658 0.0
H754 H 0.0138 0.34583 0.96376 0.0
C755 C 0.99305 0.39495 0.87542 0.0
C756 C 0.98698 0.36888 0.86457 0.0
C757 C 0.00855 0.3974 0.90036 0.0
C758 C 0.03118 0.36096 0.96401 0.0
H759 H 0.10839 0.44883 0.05047 0.0
H760 H 0.07891 0.43649 0.01032 0.0
H761 H 0.04223 0.35357 0.00656 0.0
H762 H 0.99148 0.32489 0.87146 0.0
H763 H 0.01896 0.32918 0.91524 0.0
H764 H 0.06444 0.40827 0.92356 0.0
C765 C 0.08871 0.42013 0.0229 0.0
C766 C 0.04742 0.36535 0.98844 0.0
C767 C 0.10558 0.42717 0.046 0.0
C768 C 0.99601 0.34524 0.87942 0.0
C769 C 0.01155 0.34769 0.90448 0.0
C770 C 0.05923 0.39626 0.94154 0.0
C771 C 0.08492 0.39242 0.01579 0.0
C772 C 0.06923 0.38565 0.98967 0.0
C773 C 0.01838 0.37382 0.91496 0.0
C774 C 0.03657 0.37681 0.94049 0.0
H775 H 0.1242 0.36263 0.06904 0.0
H776 H 0.09451 0.35022 0.02812 0.0
H777 H 0.09256 0.41592 0.96595 0.0
H778 H 0.98629 0.41351 0.86441 0.0
H779 H 0.01301 0.41782 0.90816 0.0
C780 C 0.87257 0.90705 0.2947 0.0
C781 C 0.86636 0.89733 0.32106 0.0
C782 C 0.88207 0.88898 0.27437 0.0
C783 C 0.87263 0.81802 0.25318 0.0
H784 H 0.92913 0.83689 0.1976 0.0
C785 C 0.8923 0.74932 0.15787 0.0
C786 C 0.89633 0.76287 0.13276 0.0
C787 C 0.89174 0.76414 0.18246 0.0
C788 C 0.91308 0.83141 0.2128 0.0
H789 H 0.86607 0.86139 0.34734 0.0
H790 H 0.88257 0.82933 0.31144 0.0
H791 H 0.92525 0.86513 0.23877 0.0
H792 H 0.90245 0.8025 0.1135 0.0
H793 H 0.90084 0.82858 0.1563 0.0
H794 H 0.85961 0.78494 0.22683 0.0
C795 C 0.88027 0.85106 0.30664 0.0
C796 C 0.91103 0.84749 0.23649 0.0
C797 C 0.87117 0.86936 0.32723 0.0
C798 C 0.89947 0.79154 0.13261 0.0
C799 C 0.89879 0.80641 0.15719 0.0
C800 C 0.87455 0.80201 0.2294 0.0
C801 C 0.88511 0.86064 0.2798 0.0
C802 C 0.89041 0.84129 0.25672 0.0
C803 C 0.89509 0.7929 0.18247 0.0
C804 C 0.89442 0.8088 0.20864 0.0
H805 H 0.86874 0.92855 0.28946 0.0
H806 H 0.88528 0.89702 0.25391 0.0
H807 H 0.8562 0.81294 0.26817 0.0
H808 H 0.89006 0.72717 0.1586 0.0
H809 H 0.88919 0.75298 0.2015 0.0
C810 C 0.35815 0.57235 0.5594 0.0
C811 C 0.34408 0.59131 0.57684 0.0
C812 C 0.37522 0.58123 0.53769 0.0
C813 C 0.38487 0.6398 0.49076 0.0
H814 H 0.45468 0.5975 0.47017 0.0
C815 C 0.4591 0.66727 0.3978 0.0
C816 C 0.47071 0.64511 0.3826 0.0
C817 C 0.44305 0.66253 0.42168 0.0
C818 C 0.43505 0.60939 0.47542 0.0
H819 H 0.33765 0.63466 0.58552 0.0
H820 H 0.36791 0.65047 0.5472 0.0
H821 H 0.4304 0.58715 0.51297 0.0
H822 H 0.47311 0.60062 0.37973 0.0
H823 H 0.44496 0.59234 0.42105 0.0
H824 H 0.38962 0.66196 0.45293 0.0
C825 C 0.36542 0.62858 0.55044 0.0
C826 C 0.42115 0.60351 0.50008 0.0
C827 C 0.34838 0.61957 0.57255 0.0
C828 C 0.46464 0.61815 0.39104 0.0
C829 C 0.44872 0.61342 0.41491 0.0
C830 C 0.39889 0.64576 0.46601 0.0
C831 C 0.3788 0.60944 0.53255 0.0
C832 C 0.39551 0.61823 0.50789 0.0
C833 C 0.43834 0.63553 0.43095 0.0
C834 C 0.42385 0.63025 0.45776 0.0
H835 H 0.35543 0.55039 0.56214 0.0
H836 H 0.38474 0.56584 0.52428 0.0
H837 H 0.36503 0.6514 0.49594 0.0
H838 H 0.46342 0.6883 0.39187 0.0
H839 H 0.43546 0.68005 0.43349 0.0
C840 C 0.25447 0.18072 0.37273 0.0
C841 C 0.22667 0.16832 0.37012 0.0
C842 C 0.2767 0.17479 0.35406 0.0
C843 C 0.30593 0.12232 0.30978 0.0
H844 H 0.34263 0.18232 0.27136 0.0
C845 C 0.39408 0.10472 0.226 0.0
C846 C 0.41525 0.1252 0.22239 0.0
C847 C 0.37142 0.10846 0.24493 0.0
C848 C 0.33314 0.16529 0.28229 0.0
H849 H 0.20014 0.13991 0.34619 0.0
H850 H 0.23965 0.12884 0.31373 0.0
H851 H 0.3018 0.19201 0.30187 0.0
H852 H 0.4303 0.16486 0.23667 0.0
H853 H 0.39247 0.17051 0.27092 0.0
H854 H 0.33795 0.09561 0.29118 0.0
C855 C 0.24395 0.14338 0.33012 0.0
C856 C 0.30949 0.1709 0.29952 0.0
C857 C 0.2214 0.1498 0.34851 0.0
C858 C 0.41445 0.14863 0.23915 0.0
C859 C 0.39231 0.15209 0.25845 0.0
C860 C 0.33004 0.1167 0.2929 0.0
C861 C 0.27174 0.1559 0.33276 0.0
C862 C 0.29575 0.14951 0.31347 0.0
C863 C 0.36981 0.13256 0.26093 0.0
C864 C 0.34411 0.13816 0.27903 0.0
H865 H 0.25906 0.19507 0.38924 0.0
H866 H 0.298 0.18461 0.35655 0.0
H867 H 0.29577 0.10552 0.32057 0.0
H868 H 0.39403 0.08652 0.21318 0.0
H869 H 0.35447 0.09301 0.24604 0.0
C870 C 0.17522 0.11676 0.49852 0.0
C871 C 0.16393 0.14351 0.50231 0.0
C872 C 0.16868 0.09592 0.51705 0.0
C873 C 0.11251 0.07915 0.56849 0.0
H874 H 0.16527 0.01663 0.58328 0.0
C875 C 0.09298 0.99573 0.6505 0.0
C876 C 0.09619 0.9683 0.64192 0.0
C877 C 0.10041 0.01725 0.63313 0.0
C878 C 0.15029 0.0339 0.57908 0.0
H879 H 0.13894 0.17028 0.52896 0.0
H880 H 0.12837 0.13417 0.56219 0.0
H881 H 0.1826 0.05513 0.55607 0.0
H882 H 0.10907 0.9416 0.6085 0.0
H883 H 0.12281 0.97948 0.57812 0.0
H884 H 0.0806 0.05807 0.59235 0.0
C885 C 0.14134 0.12889 0.54445 0.0
C886 C 0.16014 0.05595 0.56351 0.0
C887 C 0.14752 0.14963 0.52562 0.0
C888 C 0.10636 0.96264 0.61547 0.0
C889 C 0.11435 0.98421 0.59824 0.0
C890 C 0.10287 0.05731 0.58444 0.0
C891 C 0.15104 0.10157 0.53992 0.0
C892 C 0.14131 0.0788 0.55785 0.0
C893 C 0.11167 0.01165 0.60708 0.0
C894 C 0.12161 0.03445 0.58969 0.0
H895 H 0.18756 0.11158 0.48035 0.0
H896 H 0.17622 0.07514 0.51261 0.0
H897 H 0.09712 0.09605 0.56407 0.0
H898 H 0.08515 1.00055 0.67084 0.0
H899 H 0.0983 0.03825 0.6404 0.0
C900 C 0.13743 0.89049 0.78957 0.0
C901 C 0.14524 0.89368 0.76202 0.0
C902 C 0.15957 0.88603 0.81001 0.0
C903 C 0.24048 0.89486 0.82351 0.0
H904 H 0.23139 0.83814 0.8785 0.0
C905 C 0.33884 0.85135 0.89142 0.0
C906 C 0.33227 0.8425 0.918 0.0
C907 C 0.31592 0.86082 0.87351 0.0
C908 C 0.23419 0.85441 0.8636 0.0
H909 H 0.18219 0.89445 0.73424 0.0
H910 H 0.22032 0.88673 0.76949 0.0
H911 H 0.19078 0.84829 0.84599 0.0
H912 H 0.29732 0.83857 0.94749 0.0
H913 H 0.25788 0.85591 0.91694 0.0
H914 H 0.28399 0.90087 0.84098 0.0
C915 C 0.19736 0.88801 0.77558 0.0
C916 C 0.21082 0.86019 0.84493 0.0
C917 C 0.1754 0.89227 0.75533 0.0
C918 C 0.30293 0.84497 0.92695 0.0
C919 C 0.28025 0.85466 0.90932 0.0
C920 C 0.26384 0.88916 0.84226 0.0
C921 C 0.18985 0.88497 0.80321 0.0
C922 C 0.21378 0.88028 0.82446 0.0
C923 C 0.28617 0.86181 0.88205 0.0
C924 C 0.2611 0.86871 0.86246 0.0
H925 H 0.11442 0.89191 0.79537 0.0
H926 H 0.15306 0.88389 0.83116 0.0
H927 H 0.24336 0.91075 0.80821 0.0
H928 H 0.36125 0.84941 0.88398 0.0
H929 H 0.32133 0.86607 0.85262 0.0
C930 C 0.45235 0.06154 0.07362 0.0
C931 C 0.43044 0.07816 0.08568 0.0
C932 C 0.44467 0.03714 0.06022 0.0
C933 C 0.38555 0.9855 0.06098 0.0
H934 H 0.42877 0.9536 1.00054 0.0
C935 C 0.35573 0.87999 0.01433 0.0
C936 C 0.37963 0.86189 0.00939 0.0
C937 C 0.3608 0.90751 0.02109 0.0
C938 C 0.41662 0.96221 0.01753 0.0
H939 H 0.38319 0.08351 0.09148 0.0
H940 H 0.36959 0.0414 0.06735 0.0
H941 H 0.43893 1.00068 0.01508 0.0
H942 H 0.42754 0.8582 0.00763 0.0
H943 H 0.43645 0.90632 0.01933 0.0
H944 H 0.36341 0.94701 0.06355 0.0
C945 C 0.39281 0.0467 0.06889 0.0
C946 C 0.42242 0.98919 0.02587 0.0
C947 C 0.40054 0.07099 0.08245 0.0
C948 C 0.4087 0.87179 0.01118 0.0
C949 C 0.41377 0.89936 0.01774 0.0
C950 C 0.37964 0.95864 0.05254 0.0
C951 C 0.41487 0.02895 0.05846 0.0
C952 C 0.40717 1.00111 0.04791 0.0
C953 C 0.38988 0.91751 0.0229 0.0
C954 C 0.39531 0.94656 0.03091 0.0
H955 H 0.47561 0.06653 0.0759 0.0
H956 H 0.4623 0.02398 0.05265 0.0
H957 H 0.3738 0.99368 0.07841 0.0
H958 H 0.33309 0.87291 0.01295 0.0
H959 H 0.34191 0.92103 0.02469 0.0
C960 C 0.86233 0.42821 0.74211 0.0
C961 C 0.87944 0.40587 0.75242 0.0
C962 C 0.84008 0.42402 0.72207 0.0
C963 C 0.79359 0.36785 0.69401 0.0
H964 H 0.7752 0.4192 0.63464 0.0
C965 C 0.72993 0.33715 0.59688 0.0
C966 C 0.70363 0.35206 0.59044 0.0
C967 C 0.74983 0.3466 0.61683 0.0
C968 C 0.77993 0.40493 0.65136 0.0
H969 H 0.88762 0.36193 0.74915 0.0
H970 H 0.85011 0.35478 0.71343 0.0
H971 H 0.81439 0.42992 0.66855 0.0
H972 H 0.67807 0.3891 0.59939 0.0
H973 H 0.71374 0.40608 0.63423 0.0
H974 H 0.7601 0.34236 0.67612 0.0
C975 C 0.85296 0.37541 0.72134 0.0
C976 C 0.80232 0.411 0.67077 0.0
C977 C 0.87482 0.37954 0.74156 0.0
C978 C 0.69811 0.37715 0.60396 0.0
C979 C 0.71847 0.3869 0.62375 0.0
C980 C 0.77163 0.36167 0.67449 0.0
C981 C 0.83474 0.39743 0.71183 0.0
C982 C 0.80981 0.39223 0.69203 0.0
C983 C 0.7442 0.37137 0.63061 0.0
C984 C 0.76495 0.37991 0.65278 0.0
H985 H 0.86539 0.44874 0.75023 0.0
H986 H 0.82642 0.44143 0.71534 0.0
H987 H 0.79802 0.3533 0.71054 0.0
H988 H 0.73491 0.31768 0.58704 0.0
H989 H 0.76963 0.33439 0.62169 0.0
C990 C 0.91557 0.46758 0.9118 0.0
C991 C 0.91023 0.47216 0.88365 0.0
C992 C 0.912 0.48914 0.93062 0.0
C993 C 0.90989 0.56515 0.93586 0.0
H994 H 0.86801 0.55177 1.00303 0.0
C995 C 0.87437 0.6527 0.0111 0.0
C996 C 0.87456 0.64597 0.03914 0.0
C997 C 0.88043 0.63227 0.9915 0.0
C998 C 0.8802 0.55586 0.9846 0.0
H999 H 0.89709 0.50277 0.85303 0.0
H1000 H 0.89093 0.54027 0.88577 0.0
H1001 H 0.87547 0.51433 0.97071 0.0
H1002 H 0.88321 0.61339 0.06888 0.0
H1003 H 0.89472 0.57835 0.03517 0.0
H1004 H 0.91485 0.60668 0.9499 0.0
C1005 C 0.89801 0.52017 0.89337 0.0
C1006 C 0.8844 0.53432 0.96603 0.0
C1007 C 0.90133 0.49862 0.87465 0.0
C1008 C 0.88238 0.61903 0.04733 0.0
C1009 C 0.88877 0.59886 0.02795 0.0
C1010 C 0.90589 0.58671 0.95459 0.0
C1011 C 0.9033 0.51572 0.92158 0.0
C1012 C 0.89931 0.53867 0.94146 0.0
C1013 C 0.88705 0.6049 0.99971 0.0
C1014 C 0.89109 0.58232 0.97929 0.0
H1015 H 0.92261 0.44742 0.91925 0.0
H1016 H 0.91645 0.4851 0.95222 0.0
H1017 H 0.92169 0.5691 0.91717 0.0
H1018 H 0.86833 0.67334 1.00431 0.0
H1019 H 0.87886 0.63769 0.96993 0.0
C1020 C 0.79166 0.6845 0.18319 0.0
C1021 C 0.78722 0.6848 0.15456 0.0
C1022 C 0.76914 0.67562 0.20032 0.0
C1023 C 0.71102 0.67063 0.2313 0.0
H1024 H 0.66402 0.6085 0.20756 0.0
C1025 C 0.59666 0.64848 0.27505 0.0
C1026 C 0.58869 0.62106 0.27968 0.0
C1027 C 0.62309 0.65452 0.26221 0.0
C1028 C 0.67716 0.62563 0.21469 0.0
H1029 H 0.75574 0.67668 0.12137 0.0
H1030 H 0.71646 0.66161 0.15111 0.0
H1031 H 0.70616 0.62248 0.18061 0.0
H1032 H 0.602 0.57839 0.27439 0.0
H1033 H 0.64852 0.58894 0.25161 0.0
H1034 H 0.68193 0.67383 0.26534 0.0
C1035 C 0.73739 0.6677 0.16042 0.0
C1036 C 0.70109 0.63387 0.19907 0.0
C1037 C 0.7598 0.67659 0.14338 0.0
C1038 C 0.60768 0.5997 0.27109 0.0
C1039 C 0.63421 0.60576 0.25803 0.0
C1040 C 0.68704 0.66243 0.24689 0.0
C1041 C 0.74187 0.66679 0.18906 0.0
C1042 C 0.71797 0.65678 0.20691 0.0
C1043 C 0.64218 0.63328 0.25345 0.0
C1044 C 0.6695 0.64014 0.2385 0.0
H1045 H 0.81268 0.69063 0.1923 0.0
H1046 H 0.77332 0.67507 0.2223 0.0
H1047 H 0.7235 0.6884 0.23787 0.0
H1048 H 0.58221 0.6654 0.28093 0.0
H1049 H 0.62817 0.6759 0.25849 0.0
C1050 C 0.66846 0.39409 0.48253 0.0
C1051 C 0.64653 0.37663 0.49239 0.0
C1052 C 0.66068 0.41977 0.47083 0.0
C1053 C 0.59819 0.47157 0.46579 0.0
H1054 H 0.63861 0.49683 0.40123 0.0
C1055 C 0.5475 0.55415 0.3929 0.0
C1056 C 0.56583 0.57396 0.38119 0.0
C1057 C 0.55953 0.53253 0.40879 0.0
C1058 C 0.62738 0.49031 0.4195 0.0
H1059 H 0.59924 0.37249 0.49777 0.0
H1060 H 0.5856 0.41679 0.47714 0.0
H1061 H 0.65518 0.45421 0.42405 0.0
H1062 H 0.61138 0.58667 0.37749 0.0
H1063 H 0.63265 0.54845 0.40528 0.0
H1064 H 0.56992 0.50725 0.46081 0.0
C1065 C 0.60891 0.41107 0.47877 0.0
C1066 C 0.63688 0.4658 0.43263 0.0
C1067 C 0.6167 0.38549 0.49048 0.0
C1068 C 0.59664 0.57187 0.38634 0.0
C1069 C 0.60881 0.54984 0.40205 0.0
C1070 C 0.58863 0.49593 0.4526 0.0
C1071 C 0.63075 0.42865 0.46871 0.0
C1072 C 0.62209 0.45579 0.45573 0.0
C1073 C 0.59036 0.52978 0.41334 0.0
C1074 C 0.60274 0.50543 0.42899 0.0
H1075 H 0.69166 0.38788 0.4838 0.0
H1076 H 0.67819 0.43276 0.46367 0.0
H1077 H 0.58665 0.46505 0.48388 0.0
H1078 H 0.52366 0.55511 0.38949 0.0
H1079 H 0.54462 0.5174 0.41682 0.0
C1080 C 0.2755 0.39713 0.10814 0.0
C1081 C 0.24495 0.39272 0.11011 0.0
C1082 C 0.29578 0.37508 0.11022 0.0
C1083 C 0.3019 0.29838 0.10831 0.0
H1084 H 0.37571 0.31149 0.14817 0.0
C1085 C 0.40461 0.23459 0.16604 0.0
C1086 C 0.41049 0.21372 0.14684 0.0
C1087 C 0.38455 0.25598 0.15977 0.0
C1088 C 0.35513 0.30734 0.13715 0.0
H1089 H 0.21149 0.36181 0.11509 0.0
H1090 H 0.24688 0.32331 0.11989 0.0
H1091 H 0.34013 0.34901 0.14128 0.0
H1092 H 0.39958 0.19898 0.10591 0.0
H1093 H 0.36481 0.2369 0.09465 0.0
H1094 H 0.31655 0.25627 0.10535 0.0
C1095 C 0.25527 0.34371 0.11621 0.0
C1096 C 0.33484 0.32905 0.13281 0.0
C1097 C 0.23496 0.36579 0.11381 0.0
C1098 C 0.39559 0.21473 0.12116 0.0
C1099 C 0.37554 0.23638 0.11477 0.0
C1100 C 0.32217 0.27653 0.11286 0.0
C1101 C 0.286 0.34809 0.11463 0.0
C1102 C 0.30786 0.32489 0.11846 0.0
C1103 C 0.36991 0.25736 0.134 0.0
C1104 C 0.34893 0.2807 0.1276 0.0
H1105 H 0.28381 0.41767 0.10505 0.0
H1106 H 0.31916 0.37925 0.10831 0.0
H1107 H 0.28156 0.29445 0.09683 0.0
H1108 H 0.41528 0.23436 0.1862 0.0
H1109 H 0.38027 0.2713 0.17538 0.0
C1110 C 0.87178 0.32898 0.86813 0.0
C1111 C 0.87468 0.33339 0.8398 0.0
C1112 C 0.85566 0.30644 0.8777 0.0
C1113 C 0.80202 0.25253 0.85411 0.0
H1114 H 0.83852 0.20811 0.91231 0.0
C1115 C 0.77718 0.13725 0.86731 0.0
C1116 C 0.77218 0.12746 0.89392 0.0
C1117 C 0.78718 0.16403 0.86315 0.0
C1118 C 0.82785 0.22045 0.89624 0.0
H1119 H 0.86155 0.31858 0.79939 0.0
H1120 H 0.83405 0.27984 0.81577 0.0
H1121 H 0.85899 0.25303 0.90137 0.0
H1122 H 0.77468 0.13777 0.93716 0.0
H1123 H 0.79279 0.1845 0.92994 0.0
H1124 H 0.77166 0.21949 0.84825 0.0
C1125 C 0.84383 0.29353 0.83084 0.0
C1126 C 0.83949 0.2463 0.89004 0.0
C1127 C 0.8599 0.31576 0.82138 0.0
C1128 C 0.77819 0.1448 0.91638 0.0
C1129 C 0.7886 0.17153 0.91226 0.0
C1130 C 0.79063 0.22665 0.8601 0.0
C1131 C 0.8419 0.28811 0.85909 0.0
C1132 C 0.82715 0.26245 0.86845 0.0
C1133 C 0.79295 0.18156 0.88556 0.0
C1134 C 0.80374 0.21003 0.88086 0.0
H1135 H 0.88309 0.34209 0.88282 0.0
H1136 H 0.85441 0.30309 0.89963 0.0
H1137 H 0.79141 0.26458 0.8378 0.0
H1138 H 0.77376 0.12407 0.84968 0.0
H1139 H 0.79089 0.17089 0.84235 0.0
C1140 C 0.07836 0.46741 0.14375 0.0
C1141 C 0.10878 0.47303 0.14343 0.0
C1142 C 0.05731 0.48881 0.14396 0.0
C1143 C 0.0486 0.56446 0.15551 0.0
H1144 H 0.97499 0.5542 0.11422 0.0
C1145 C 0.97002 0.65176 0.1159 0.0
C1146 C 0.9394 0.64851 0.11919 0.0
C1147 C 0.99007 0.63081 0.12367 0.0
C1148 C 0.99524 0.55718 0.12619 0.0
H1149 H 0.14115 0.50539 0.14418 0.0
H1150 H 0.10444 0.54298 0.14268 0.0
H1151 H 0.01172 0.51694 0.1168 0.0
H1152 H 0.90563 0.62127 0.13376 0.0
H1153 H 0.94087 0.58401 0.14675 0.0
H1154 H 0.03241 0.60544 0.16342 0.0
C1155 C 0.09672 0.52202 0.14335 0.0
C1156 C 0.01636 0.53581 0.12774 0.0
C1157 C 0.11783 0.50051 0.14367 0.0
C1158 C 0.92918 0.6243 0.13126 0.0
C1159 C 0.94925 0.60302 0.1385 0.0
C1160 C 0.02764 0.58601 0.15352 0.0
C1161 C 0.06612 0.51644 0.14339 0.0
C1162 C 0.04341 0.53916 0.14234 0.0
C1163 C 0.97982 0.60598 0.13436 0.0
C1164 C 1.00085 0.58256 0.13876 0.0
H1165 H 0.07073 0.44638 0.14391 0.0
H1166 H 0.03409 0.48358 0.14471 0.0
H1167 H 0.06885 0.56769 0.16737 0.0
H1168 H 0.97843 0.6703 0.10667 0.0
H1169 H 0.01348 0.63351 0.12007 0.0
C1170 C 0.75719 0.88622 0.35919 0.0
C1171 C 0.7588 0.90062 0.38415 0.0
C1172 C 0.73747 0.86451 0.35569 0.0
C1173 C 0.69335 0.81546 0.3967 0.0
H1174 H 0.65994 0.79672 0.32522 0.0
C1175 C 0.60281 0.73324 0.37929 0.0
C1176 C 0.60748 0.71451 0.35783 0.0
C1177 C 0.62149 0.75572 0.383 0.0
C1178 C 0.66931 0.80161 0.34528 0.0
H1179 H 0.73996 0.90467 0.42444 0.0
H1180 H 0.70452 0.86769 0.418 0.0
H1181 H 0.68984 0.83783 0.33024 0.0
H1182 H 0.6354 0.70434 0.32354 0.0
H1183 H 0.66782 0.74396 0.32974 0.0
H1184 H 0.67193 0.77952 0.41173 0.0
C1185 C 0.71923 0.87234 0.40141 0.0
C1186 C 0.68655 0.82516 0.34819 0.0
C1187 C 0.73929 0.89379 0.40504 0.0
C1188 C 0.63141 0.71841 0.34034 0.0
C1189 C 0.6498 0.74116 0.34376 0.0
C1190 C 0.67571 0.79216 0.39384 0.0
C1191 C 0.71851 0.8569 0.37692 0.0
C1192 C 0.69902 0.83238 0.37393 0.0
C1193 C 0.6449 0.76016 0.36502 0.0
C1194 C 0.66366 0.78489 0.36807 0.0
H1195 H 0.77208 0.89093 0.34274 0.0
H1196 H 0.738 0.85305 0.33667 0.0
H1197 H 0.70299 0.81982 0.41675 0.0
H1198 H 0.58445 0.73075 0.393 0.0
H1199 H 0.61709 0.77009 0.39946 0.0
C1200 C 0.54764 0.40756 0.57889 0.0
C1201 C 0.54702 0.37868 0.57925 0.0
C1202 C 0.52288 0.42301 0.58727 0.0
C1203 C 0.4421 0.41801 0.59433 0.0
H1204 H 0.44999 0.47991 0.64395 0.0
C1205 C 0.3468 0.49563 0.61636 0.0
C1206 C 0.34392 0.50455 0.6436 0.0
C1207 C 0.37071 0.47869 0.60909 0.0
C1208 C 0.44746 0.46253 0.63024 0.0
H1209 H 0.52046 0.34326 0.58882 0.0
H1210 H 0.4775 0.37009 0.60325 0.0
H1211 H 0.49439 0.45447 0.62974 0.0
H1212 H 0.36288 0.50177 0.68484 0.0
H1213 H 0.40474 0.47207 0.67211 0.0
H1214 H 0.39522 0.426 0.59482 0.0
C1215 C 0.49683 0.38087 0.59638 0.0
C1216 C 0.47287 0.44821 0.62187 0.0
C1217 C 0.52152 0.36552 0.58827 0.0
C1218 C 0.36459 0.4952 0.66369 0.0
C1219 C 0.38867 0.47844 0.65636 0.0
C1220 C 0.41675 0.43246 0.6025 0.0
C1221 C 0.49714 0.40974 0.59582 0.0
C1222 C 0.47042 0.42571 0.60396 0.0
C1223 C 0.3923 0.47051 0.62889 0.0
C1224 C 0.41914 0.45479 0.62063 0.0
H1225 H 0.56707 0.41814 0.57198 0.0
H1226 H 0.52364 0.44527 0.58653 0.0
H1227 H 0.43958 0.40088 0.58032 0.0
H1228 H 0.33123 0.5026 0.60045 0.0
H1229 H 0.37299 0.47299 0.58773 0.0
C1230 C 0.22445 0.63512 0.59873 0.0
C1231 C 0.2361 0.61857 0.62023 0.0
C1232 C 0.21257 0.66139 0.60423 0.0
C1233 C 0.17953 0.7004 0.66086 0.0
H1234 H 0.19622 0.76588 0.61859 0.0
C1235 C 0.14874 0.80602 0.70225 0.0
C1236 C 0.13391 0.82465 0.68437 0.0
C1237 C 0.16282 0.78253 0.69211 0.0
C1238 C 0.19115 0.74771 0.63039 0.0
H1239 H 0.24528 0.61668 0.6641 0.0
H1240 H 0.2249 0.66221 0.67362 0.0
H1241 H 0.21717 0.72112 0.60475 0.0
H1242 H 0.12369 0.83413 0.64165 0.0
H1243 H 0.14826 0.79256 0.62378 0.0
H1244 H 0.15362 0.72655 0.68646 0.0
C1245 C 0.22445 0.65494 0.6526 0.0
C1246 C 0.2031 0.72212 0.62246 0.0
C1247 C 0.23629 0.62888 0.64712 0.0
C1248 C 0.13499 0.82012 0.6559 0.0
C1249 C 0.14902 0.79634 0.64569 0.0
C1250 C 0.16764 0.72578 0.6687 0.0
C1251 C 0.21205 0.67136 0.63133 0.0
C1252 C 0.19785 0.6983 0.63799 0.0
C1253 C 0.16224 0.77686 0.66383 0.0
C1254 C 0.17377 0.74985 0.65395 0.0
H1255 H 0.22416 0.62763 0.57779 0.0
H1256 H 0.2031 0.67357 0.58745 0.0
H1257 H 0.17444 0.68234 0.67284 0.0
H1258 H 0.14875 0.80918 0.72427 0.0
H1259 H 0.17354 0.76836 0.70658 0.0
C1260 C 0.48042 0.895 0.93261 0.0
C1261 C 0.48608 0.86684 0.93741 0.0
C1262 C 0.50311 0.91213 0.92383 0.0
C1263 C 0.58512 0.9168 0.92223 0.0
H1264 H 0.56916 0.97188 0.86581 0.0
C1265 C 0.66726 1.0032 0.89777 0.0
C1266 C 0.67042 0.01112 0.87023 0.0
C1267 C 0.64587 0.98417 0.90505 0.0
C1268 C 0.57407 0.95643 0.8814 0.0
H1269 H 0.51986 0.83455 0.93687 0.0
H1270 H 0.55933 0.86427 0.92161 0.0
H1271 H 0.52931 0.94212 0.88048 0.0
H1272 H 0.65408 1.00473 0.8286 0.0
H1273 H 0.61662 0.97129 0.8413 0.0
H1274 H 0.62988 0.931 0.92312 0.0
C1275 C 0.53752 0.87328 0.92479 0.0
C1276 C 0.55111 0.9396 0.89007 0.0
C1277 C 0.51484 0.85619 0.93342 0.0
C1278 C 0.65223 0.99897 0.84998 0.0
C1279 C 0.6306 0.98002 0.8573 0.0
C1280 C 0.60801 0.93373 0.9137 0.0
C1281 C 0.53199 0.90148 0.91983 0.0
C1282 C 0.55633 0.91957 0.91063 0.0
C1283 C 0.6269 0.97265 0.885 0.0
C1284 C 0.60279 0.95382 0.89321 0.0
H1285 H 0.45845 0.90377 0.93557 0.0
H1286 H 0.49813 0.93379 0.9205 0.0
H1287 H 0.58992 0.90179 0.93827 0.0
H1288 H 0.68077 0.01232 0.9139 0.0
H1289 H 0.6435 0.97924 0.92658 0.0
C1290 C 0.89249 1.00339 0.3876 0.0
C1291 C 0.88432 0.99595 0.3607 0.0
C1292 C 0.91858 0.01777 0.39283 0.0
C1293 C 0.99048 0.03789 0.3631 0.0
H1294 H 0.98561 0.09491 0.41847 0.0
C1295 C 0.08149 0.12061 0.38844 0.0
C1296 C 0.08595 0.12566 0.41663 0.0
C1297 C 0.05915 0.10261 0.37947 0.0
C1298 C 0.98743 0.07893 0.40307 0.0
H1299 H 0.8972 0.99734 0.31815 0.0
H1300 H 0.94261 0.02307 0.32717 0.0
H1301 H 0.94202 0.06825 0.40706 0.0
H1302 H 0.07256 0.11409 0.4575 0.0
H1303 H 0.03427 0.08284 0.442 0.0
H1304 H 0.03615 0.04921 0.35908 0.0
C1305 C 0.92911 0.01739 0.34432 0.0
C1306 C 0.96243 0.06352 0.3966 0.0
C1307 C 0.90301 1.00282 0.33912 0.0
C1308 C 0.06931 0.11099 0.43562 0.0
C1309 C 0.04727 0.09314 0.42675 0.0
C1310 C 0.01562 0.05354 0.36951 0.0
C1311 C 0.93702 0.02539 0.37123 0.0
C1312 C 0.96368 0.04245 0.3769 0.0
C1313 C 0.04112 0.08952 0.39863 0.0
C1314 C 0.01444 0.07387 0.38996 0.0
H1315 H 0.87839 0.99865 0.40461 0.0
H1316 H 0.92418 0.02309 0.41388 0.0
H1317 H 0.99228 0.02178 0.34786 0.0
H1318 H 0.09393 0.13174 0.37338 0.0
H1319 H 0.05492 0.10011 0.35765 0.0
loop_
_geom_bond_atom_site_label_1
_geom_bond_atom_site_label_2
_geom_bond_distance
_geom_bond_site_symmetry_2
_ccdc_geom_bond_type
Tb0 O3 2.453 . S
Tb0 O4 2.596 . S
Tb0 O5 2.374 . S
Tb0 O13 2.343 . S
Tb0 O15 2.353 . S
Tb0 O17 2.427 . S
Tb0 O18 2.513 . S
C1 O5 1.251 . S
C1 O7 1.263 . S
Tb2 O4 2.343 . S
Tb2 O7 2.353 . S
Tb2 O10 2.427 . S
Tb2 O11 2.513 . S
Tb2 O12 2.453 . S
Tb2 O13 2.596 . S
Tb2 O14 2.374 . S
O3 Tb0 2.453 . S
O3 C19 1.245 . S
O4 Tb0 2.596 . S
O4 Tb2 2.343 . S
O4 C19 1.259 . S
O5 Tb0 2.374 . S
O5 C1 1.251 . S
C6 O10 1.275 . S
C6 O11 1.246 . S
O7 C1 1.263 . S
O7 Tb2 2.353 . S
C8 O12 1.245 . S
C8 O13 1.259 . S
C9 O14 1.250 . S
C9 O15 1.263 . S
O10 Tb2 2.427 . S
O10 C6 1.275 . S
O11 Tb2 2.513 . S
O11 C6 1.246 . S
O12 Tb2 2.453 . S
O12 C8 1.245 . S
O13 Tb0 2.343 . S
O13 Tb2 2.596 . S
O13 C8 1.259 . S
O14 Tb2 2.374 . S
O14 C9 1.250 . S
O15 Tb0 2.353 . S
O15 C9 1.263 . S
C16 O17 1.275 . S
C16 O18 1.246 . S
O17 Tb0 2.427 . S
O17 C16 1.275 . S
O18 Tb0 2.513 . S
O18 C16 1.246 . S
C19 O3 1.245 . S
C19 O4 1.259 . S
Tb20 O23 2.453 . S
Tb20 O24 2.596 . S
Tb20 O25 2.374 . S
Tb20 O33 2.343 . S
Tb20 O35 2.353 . S
Tb20 O37 2.427 . S
Tb20 O38 2.513 . S
C21 O25 1.251 . S
C21 O27 1.263 . S
Tb22 O24 2.343 . S
Tb22 O27 2.353 . S
Tb22 O30 2.427 . S
Tb22 O31 2.513 . S
Tb22 O32 2.453 . S
Tb22 O33 2.596 . S
Tb22 O34 2.374 . S
O23 Tb20 2.453 . S
O23 C39 1.245 . S
O24 Tb20 2.596 . S
O24 Tb22 2.343 . S
O24 C39 1.259 . S
O25 Tb20 2.374 . S
O25 C21 1.251 . S
C26 O30 1.275 . S
C26 O31 1.246 . S
O27 C21 1.263 . S
O27 Tb22 2.353 . S
C28 O32 1.245 . S
C28 O33 1.259 . S
C29 O34 1.250 . S
C29 O35 1.263 . S
O30 Tb22 2.427 . S
O30 C26 1.275 . S
O31 Tb22 2.513 . S
O31 C26 1.246 . S
O32 Tb22 2.453 . S
O32 C28 1.245 . S
O33 Tb20 2.343 . S
O33 Tb22 2.596 . S
O33 C28 1.259 . S
O34 Tb22 2.374 . S
O34 C29 1.250 . S
O35 Tb20 2.353 . S
O35 C29 1.263 . S
C36 O37 1.275 . S
C36 O38 1.246 . S
O37 Tb20 2.427 . S
O37 C36 1.275 . S
O38 Tb20 2.513 . S
O38 C36 1.246 . S
C39 O23 1.245 . S
C39 O24 1.259 . S
Tb40 O43 2.453 . S
Tb40 O44 2.596 . S
Tb40 O45 2.374 . S
Tb40 O53 2.343 . S
Tb40 O55 2.353 . S
Tb40 O57 2.427 . S
Tb40 O58 2.513 . S
C41 O45 1.251 . S
C41 O47 1.263 . S
Tb42 O44 2.343 . S
Tb42 O47 2.353 . S
Tb42 O50 2.427 . S
Tb42 O51 2.513 . S
Tb42 O52 2.453 1_556 S
Tb42 O53 2.596 . S
Tb42 O54 2.374 1_556 S
O43 Tb40 2.453 . S
O43 C59 1.245 . S
O44 Tb40 2.596 . S
O44 Tb42 2.343 . S
O44 C59 1.259 . S
O45 Tb40 2.374 . S
O45 C41 1.251 . S
C46 O50 1.275 . S
C46 O51 1.246 . S
O47 C41 1.263 . S
O47 Tb42 2.353 . S
C48 O52 1.245 1_556 S
C48 O53 1.259 . S
C49 O54 1.250 1_556 S
C49 O55 1.263 . S
O50 Tb42 2.427 . S
O50 C46 1.275 . S
O51 Tb42 2.513 . S
O51 C46 1.246 . S
O52 Tb42 2.453 1_554 S
O52 C48 1.245 1_554 S
O53 Tb40 2.343 . S
O53 Tb42 2.596 . S
O53 C48 1.259 . S
O54 Tb42 2.374 1_554 S
O54 C49 1.250 1_554 S
O55 Tb40 2.353 . S
O55 C49 1.263 . S
C56 O57 1.275 . S
C56 O58 1.246 . S
O57 Tb40 2.427 . S
O57 C56 1.275 . S
O58 Tb40 2.513 . S
O58 C56 1.246 . S
C59 O43 1.245 . S
C59 O44 1.259 . S
Tb60 O63 2.453 . S
Tb60 O64 2.596 . S
Tb60 O65 2.374 . S
Tb60 O73 2.343 . S
Tb60 O75 2.353 . S
Tb60 O77 2.427 . S
Tb60 O78 2.513 . S
C61 O65 1.251 . S
C61 O67 1.263 . S
Tb62 O64 2.343 . S
Tb62 O67 2.353 . S
Tb62 O70 2.427 . S
Tb62 O71 2.513 . S
Tb62 O72 2.453 . S
Tb62 O73 2.596 . S
Tb62 O74 2.374 . S
O63 Tb60 2.453 . S
O63 C79 1.245 . S
O64 Tb60 2.596 . S
O64 Tb62 2.343 . S
O64 C79 1.259 . S
O65 Tb60 2.374 . S
O65 C61 1.251 . S
C66 O70 1.275 . S
C66 O71 1.246 . S
O67 C61 1.263 . S
O67 Tb62 2.353 . S
C68 O72 1.245 . S
C68 O73 1.259 . S
C69 O74 1.250 . S
C69 O75 1.263 . S
O70 Tb62 2.427 . S
O70 C66 1.275 . S
O71 Tb62 2.513 . S
O71 C66 1.246 . S
O72 Tb62 2.453 . S
O72 C68 1.245 . S
O73 Tb60 2.343 . S
O73 Tb62 2.596 . S
O73 C68 1.259 . S
O74 Tb62 2.374 . S
O74 C69 1.250 . S
O75 Tb60 2.353 . S
O75 C69 1.263 . S
C76 O77 1.275 . S
C76 O78 1.246 . S
O77 Tb60 2.427 . S
O77 C76 1.275 . S
O78 Tb60 2.513 . S
O78 C76 1.246 . S
C79 O63 1.245 . S
C79 O64 1.259 . S
Tb80 O83 2.453 . S
Tb80 O84 2.596 . S
Tb80 O85 2.374 . S
Tb80 O93 2.343 . S
Tb80 O95 2.353 . S
Tb80 O97 2.427 . S
Tb80 O98 2.513 . S
C81 O85 1.251 . S
C81 O87 1.263 . S
Tb82 O84 2.343 . S
Tb82 O87 2.353 . S
Tb82 O90 2.427 . S
Tb82 O91 2.513 . S
Tb82 O92 2.453 . S
Tb82 O93 2.596 . S
Tb82 O94 2.374 . S
O83 Tb80 2.453 . S
O83 C99 1.245 . S
O84 Tb80 2.596 . S
O84 Tb82 2.343 . S
O84 C99 1.259 . S
O85 Tb80 2.374 . S
O85 C81 1.251 . S
C86 O90 1.275 . S
C86 O91 1.246 . S
O87 C81 1.263 . S
O87 Tb82 2.353 . S
C88 O92 1.245 . S
C88 O93 1.259 . S
C89 O94 1.250 . S
C89 O95 1.263 . S
O90 Tb82 2.427 . S
O90 C86 1.275 . S
O91 Tb82 2.513 . S
O91 C86 1.246 . S
O92 Tb82 2.453 . S
O92 C88 1.245 . S
O93 Tb80 2.343 . S
O93 Tb82 2.596 . S
O93 C88 1.259 . S
O94 Tb82 2.374 . S
O94 C89 1.250 . S
O95 Tb80 2.353 . S
O95 C89 1.263 . S
C96 O97 1.275 . S
C96 O98 1.246 . S
O97 Tb80 2.427 . S
O97 C96 1.275 . S
O98 Tb80 2.513 . S
O98 C96 1.246 . S
C99 O83 1.245 . S
C99 O84 1.259 . S
Tb100 O103 2.453 . S
Tb100 O104 2.596 . S
Tb100 O105 2.374 . S
Tb100 O113 2.343 . S
Tb100 O115 2.353 . S
Tb100 O117 2.427 . S
Tb100 O118 2.513 . S
C101 O105 1.251 . S
C101 O107 1.263 . S
Tb102 O104 2.343 . S
Tb102 O107 2.353 . S
Tb102 O110 2.427 . S
Tb102 O111 2.513 . S
Tb102 O112 2.453 . S
Tb102 O113 2.596 . S
Tb102 O114 2.374 . S
O103 Tb100 2.453 . S
O103 C119 1.245 . S
O104 Tb100 2.596 . S
O104 Tb102 2.343 . S
O104 C119 1.259 . S
O105 Tb100 2.374 . S
O105 C101 1.251 . S
C106 O110 1.275 . S
C106 O111 1.246 . S
O107 C101 1.263 . S
O107 Tb102 2.353 . S
C108 O112 1.245 . S
C108 O113 1.259 . S
C109 O114 1.250 . S
C109 O115 1.263 . S
O110 Tb102 2.427 . S
O110 C106 1.275 . S
O111 Tb102 2.513 . S
O111 C106 1.246 . S
O112 Tb102 2.453 . S
O112 C108 1.245 . S
O113 Tb100 2.343 . S
O113 Tb102 2.596 . S
O113 C108 1.259 . S
O114 Tb102 2.374 . S
O114 C109 1.250 . S
O115 Tb100 2.353 . S
O115 C109 1.263 . S
C116 O117 1.275 . S
C116 O118 1.246 . S
O117 Tb100 2.427 . S
O117 C116 1.275 . S
O118 Tb100 2.513 . S
O118 C116 1.246 . S
C119 O103 1.245 . S
C119 O104 1.259 . S
Tb120 O123 2.453 . S
Tb120 O124 2.596 . S
Tb120 O125 2.374 . S
Tb120 O133 2.343 . S
Tb120 O135 2.353 . S
Tb120 O137 2.427 . S
Tb120 O138 2.513 . S
C121 O125 1.251 . S
C121 O127 1.263 . S
Tb122 O124 2.343 . S
Tb122 O127 2.353 . S
Tb122 O130 2.427 . S
Tb122 O131 2.513 . S
Tb122 O132 2.453 . S
Tb122 O133 2.596 . S
Tb122 O134 2.374 . S
O123 Tb120 2.453 . S
O123 C139 1.245 . S
O124 Tb120 2.596 . S
O124 Tb122 2.343 . S
O124 C139 1.259 . S
O125 Tb120 2.374 . S
O125 C121 1.251 . S
C126 O130 1.275 . S
C126 O131 1.246 . S
O127 C121 1.263 . S
O127 Tb122 2.353 . S
C128 O132 1.245 . S
C128 O133 1.259 . S
C129 O134 1.250 . S
C129 O135 1.263 . S
O130 Tb122 2.427 . S
O130 C126 1.275 . S
O131 Tb122 2.513 . S
O131 C126 1.246 . S
O132 Tb122 2.453 . S
O132 C128 1.245 . S
O133 Tb120 2.343 . S
O133 Tb122 2.596 . S
O133 C128 1.259 . S
O134 Tb122 2.374 . S
O134 C129 1.250 . S
O135 Tb120 2.353 . S
O135 C129 1.263 . S
C136 O137 1.275 . S
C136 O138 1.246 . S
O137 Tb120 2.427 . S
O137 C136 1.275 . S
O138 Tb120 2.513 . S
O138 C136 1.246 . S
C139 O123 1.245 . S
C139 O124 1.259 . S
Tb140 O143 2.453 . S
Tb140 O144 2.596 . S
Tb140 O145 2.374 . S
Tb140 O153 2.343 . S
Tb140 O155 2.353 . S
Tb140 O157 2.427 . S
Tb140 O158 2.513 . S
C141 O145 1.251 . S
C141 O147 1.263 . S
Tb142 O144 2.343 . S
Tb142 O147 2.353 . S
Tb142 O150 2.427 . S
Tb142 O151 2.513 . S
Tb142 O152 2.453 . S
Tb142 O153 2.596 . S
Tb142 O154 2.374 . S
O143 Tb140 2.453 . S
O143 C159 1.245 . S
O144 Tb140 2.596 . S
O144 Tb142 2.343 . S
O144 C159 1.259 . S
O145 Tb140 2.374 . S
O145 C141 1.251 . S
C146 O150 1.275 . S
C146 O151 1.246 . S
O147 C141 1.263 . S
O147 Tb142 2.353 . S
C148 O152 1.245 . S
C148 O153 1.259 . S
C149 O154 1.250 . S
C149 O155 1.263 . S
O150 Tb142 2.427 . S
O150 C146 1.275 . S
O151 Tb142 2.513 . S
O151 C146 1.246 . S
O152 Tb142 2.453 . S
O152 C148 1.245 . S
O153 Tb140 2.343 . S
O153 Tb142 2.596 . S
O153 C148 1.259 . S
O154 Tb142 2.374 . S
O154 C149 1.250 . S
O155 Tb140 2.353 . S
O155 C149 1.263 . S
C156 O157 1.275 . S
C156 O158 1.246 . S
O157 Tb140 2.427 . S
O157 C156 1.275 . S
O158 Tb140 2.513 . S
O158 C156 1.246 . S
C159 O143 1.245 . S
C159 O144 1.259 . S
Tb160 O163 2.453 . S
Tb160 O164 2.596 . S
Tb160 O165 2.374 . S
Tb160 O173 2.343 . S
Tb160 O175 2.353 . S
Tb160 O177 2.427 . S
Tb160 O178 2.513 . S
C161 O165 1.251 . S
C161 O167 1.263 . S
Tb162 O164 2.343 . S
Tb162 O167 2.353 . S
Tb162 O170 2.427 . S
Tb162 O171 2.513 . S
Tb162 O172 2.453 . S
Tb162 O173 2.596 . S
Tb162 O174 2.374 . S
O163 Tb160 2.453 . S
O163 C179 1.245 . S
O164 Tb160 2.596 . S
O164 Tb162 2.343 . S
O164 C179 1.259 . S
O165 Tb160 2.374 . S
O165 C161 1.251 . S
C166 O170 1.275 . S
C166 O171 1.246 . S
O167 C161 1.263 . S
O167 Tb162 2.353 . S
C168 O172 1.245 . S
C168 O173 1.259 . S
C169 O174 1.250 . S
C169 O175 1.263 . S
O170 Tb162 2.427 . S
O170 C166 1.275 . S
O171 Tb162 2.513 . S
O171 C166 1.246 . S
O172 Tb162 2.453 . S
O172 C168 1.245 . S
O173 Tb160 2.343 . S
O173 Tb162 2.596 . S
O173 C168 1.259 . S
O174 Tb162 2.374 . S
O174 C169 1.250 . S
O175 Tb160 2.353 . S
O175 C169 1.263 . S
C176 O177 1.275 . S
C176 O178 1.246 . S
O177 Tb160 2.427 . S
O177 C176 1.275 . S
O178 Tb160 2.513 . S
O178 C176 1.246 . S
C179 O163 1.245 . S
C179 O164 1.259 . S
Tb180 O183 2.453 . S
Tb180 O184 2.596 . S
Tb180 O185 2.374 . S
Tb180 O193 2.343 . S
Tb180 O195 2.353 . S
Tb180 O197 2.427 . S
Tb180 O198 2.513 . S
C181 O185 1.251 . S
C181 O187 1.263 . S
Tb182 O184 2.343 . S
Tb182 O187 2.353 . S
Tb182 O190 2.427 . S
Tb182 O191 2.513 1_545 S
Tb182 O192 2.453 . S
Tb182 O193 2.596 . S
Tb182 O194 2.374 . S
O183 Tb180 2.453 . S
O183 C199 1.245 . S
O184 Tb180 2.596 . S
O184 Tb182 2.343 . S
O184 C199 1.259 . S
O185 Tb180 2.374 . S
O185 C181 1.251 . S
C186 O190 1.275 1_565 S
C186 O191 1.246 . S
O187 C181 1.263 . S
O187 Tb182 2.353 . S
C188 O192 1.245 . S
C188 O193 1.259 . S
C189 O194 1.250 . S
C189 O195 1.263 . S
O190 Tb182 2.427 . S
O190 C186 1.275 1_545 S
O191 Tb182 2.513 1_565 S
O191 C186 1.246 . S
O192 Tb182 2.453 . S
O192 C188 1.245 . S
O193 Tb180 2.343 . S
O193 Tb182 2.596 . S
O193 C188 1.259 . S
O194 Tb182 2.374 . S
O194 C189 1.250 . S
O195 Tb180 2.353 . S
O195 C189 1.263 . S
C196 O197 1.275 . S
C196 O198 1.246 . S
O197 Tb180 2.427 . S
O197 C196 1.275 . S
O198 Tb180 2.513 . S
O198 C196 1.246 . S
C199 O183 1.245 . S
C199 O184 1.259 . S
Tb200 O203 2.453 . S
Tb200 O204 2.596 . S
Tb200 O205 2.374 . S
Tb200 O213 2.343 . S
Tb200 O215 2.353 . S
Tb200 O217 2.427 . S
Tb200 O218 2.513 . S
C201 O205 1.251 . S
C201 O207 1.263 . S
Tb202 O204 2.343 . S
Tb202 O207 2.353 . S
Tb202 O210 2.427 . S
Tb202 O211 2.513 . S
Tb202 O212 2.453 . S
Tb202 O213 2.596 . S
Tb202 O214 2.374 . S
O203 Tb200 2.453 . S
O203 C219 1.245 . S
O204 Tb200 2.596 . S
O204 Tb202 2.343 . S
O204 C219 1.259 . S
O205 Tb200 2.374 . S
O205 C201 1.251 . S
C206 O210 1.275 . S
C206 O211 1.246 . S
O207 C201 1.263 . S
O207 Tb202 2.353 . S
C208 O212 1.245 . S
C208 O213 1.259 . S
C209 O214 1.250 . S
C209 O215 1.263 . S
O210 Tb202 2.427 . S
O210 C206 1.275 . S
O211 Tb202 2.513 . S
O211 C206 1.246 . S
O212 Tb202 2.453 . S
O212 C208 1.245 . S
O213 Tb200 2.343 . S
O213 Tb202 2.596 . S
O213 C208 1.259 . S
O214 Tb202 2.374 . S
O214 C209 1.250 . S
O215 Tb200 2.353 . S
O215 C209 1.263 . S
C216 O217 1.275 . S
C216 O218 1.246 . S
O217 Tb200 2.427 . S
O217 C216 1.275 . S
O218 Tb200 2.513 . S
O218 C216 1.246 . S
C219 O203 1.245 . S
C219 O204 1.259 . S
Tb220 O223 2.453 . S
Tb220 O224 2.596 . S
Tb220 O225 2.374 . S
Tb220 O233 2.343 . S
Tb220 O235 2.353 . S
Tb220 O237 2.427 . S
Tb220 O238 2.513 . S
C221 O225 1.251 . S
C221 O227 1.263 . S
Tb222 O224 2.343 . S
Tb222 O227 2.353 . S
Tb222 O230 2.427 . S
Tb222 O231 2.513 . S
Tb222 O232 2.453 . S
Tb222 O233 2.596 . S
Tb222 O234 2.374 . S
O223 Tb220 2.453 . S
O223 C239 1.245 . S
O224 Tb220 2.596 . S
O224 Tb222 2.343 . S
O224 C239 1.259 . S
O225 Tb220 2.374 . S
O225 C221 1.251 . S
C226 O230 1.275 . S
C226 O231 1.246 . S
O227 C221 1.263 . S
O227 Tb222 2.353 . S
C228 O232 1.245 . S
C228 O233 1.259 . S
C229 O234 1.250 . S
C229 O235 1.263 . S
O230 Tb222 2.427 . S
O230 C226 1.275 . S
O231 Tb222 2.513 . S
O231 C226 1.246 . S
O232 Tb222 2.453 . S
O232 C228 1.245 . S
O233 Tb220 2.343 . S
O233 Tb222 2.596 . S
O233 C228 1.259 . S
O234 Tb222 2.374 . S
O234 C229 1.250 . S
O235 Tb220 2.353 . S
O235 C229 1.263 . S
C236 O237 1.275 . S
C236 O238 1.246 . S
O237 Tb220 2.427 . S
O237 C236 1.275 . S
O238 Tb220 2.513 . S
O238 C236 1.246 . S
C239 O223 1.245 . S
C239 O224 1.259 . S
C240 C241 1.349 . S
C240 C242 1.327 . S
C240 H265 0.950 . S
C241 C240 1.349 . S
C241 C257 1.349 . S
C242 C240 1.327 . S
C242 C261 1.429 . S
C242 H266 0.950 . S
C243 C260 1.574 . S
C243 C262 1.368 . S
C243 H267 0.949 . S
H244 C248 0.949 . S
C245 C246 1.349 . S
C245 C247 1.327 . S
C245 H268 0.950 . S
C246 C245 1.349 . S
C246 C258 1.349 . S
C247 C245 1.327 . S
C247 C263 1.429 . S
C247 H269 0.950 . S
C248 H244 0.949 . S
C248 C256 1.574 . S
C248 C264 1.368 . S
H249 C257 0.950 . S
H250 C255 0.950 . S
H251 C256 0.949 . S
H252 C258 0.950 . S
H253 C259 0.950 . S
H254 C260 0.949 . S
C255 H250 0.950 . S
C255 C257 1.327 . S
C255 C261 1.429 . S
C256 C248 1.574 . S
C256 H251 0.949 . S
C256 C262 1.368 . S
C257 C241 1.349 . S
C257 H249 0.950 . S
C257 C255 1.327 . S
C258 C246 1.349 . S
C258 H252 0.950 . S
C258 C259 1.327 . S
C259 H253 0.950 . S
C259 C258 1.327 . S
C259 C263 1.429 . S
C260 C243 1.574 . S
C260 H254 0.949 . S
C260 C264 1.368 . S
C261 C242 1.429 . S
C261 C255 1.429 . S
C261 C262 1.523 . S
C262 C243 1.368 . S
C262 C256 1.368 . S
C262 C261 1.523 . S
C263 C247 1.429 . S
C263 C259 1.429 . S
C263 C264 1.523 . S
C264 C248 1.368 . S
C264 C260 1.368 . S
C264 C263 1.523 . S
H265 C240 0.950 . S
H266 C242 0.950 . S
H267 C243 0.949 . S
H268 C245 0.950 . S
H269 C247 0.950 . S
C270 C271 1.349 . S
C270 C272 1.327 . S
C270 H295 0.950 . S
C271 C270 1.349 . S
C271 C287 1.349 1_545 S
C272 C270 1.327 . S
C272 C291 1.429 1_545 S
C272 H296 0.950 . S
C273 C290 1.574 . S
C273 C292 1.368 . S
C273 H297 0.949 . S
H274 C278 0.949 1_545 S
C275 C276 1.333 1_655 S
C275 C277 1.327 . S
C275 H298 0.950 . S
C276 C275 1.333 1_455 S
C276 C288 1.345 1_455 S
C277 C275 1.327 . S
C277 C293 1.429 . S
C277 H299 0.950 . S
C278 H274 0.949 1_565 S
C278 C286 1.574 1_565 S
C278 C294 1.368 . S
H279 C287 0.950 . S
H280 C285 0.950 . S
H281 C286 0.949 . S
H282 C288 0.950 1_455 S
H283 C289 0.950 . S
H284 C290 0.949 . S
C285 H280 0.950 . S
C285 C287 1.327 . S
C285 C291 1.429 . S
C286 C278 1.574 1_545 S
C286 H281 0.949 . S
C286 C292 1.368 1_545 S
C287 C271 1.349 1_565 S
C287 H279 0.950 . S
C287 C285 1.327 . S
C288 C276 1.345 1_655 S
C288 H282 0.950 1_655 S
C288 C289 1.327 . S
C289 H283 0.950 . S
C289 C288 1.327 . S
C289 C293 1.429 . S
C290 C273 1.574 . S
C290 H284 0.949 . S
C290 C294 1.368 . S
C291 C272 1.429 1_565 S
C291 C285 1.429 . S
C291 C292 1.523 . S
C292 C273 1.368 . S
C292 C286 1.368 1_565 S
C292 C291 1.523 . S
C293 C277 1.429 . S
C293 C289 1.429 . S
C293 C294 1.523 . S
C294 C278 1.368 . S
C294 C290 1.368 . S
C294 C293 1.523 . S
H295 C270 0.950 . S
H296 C272 0.950 . S
H297 C273 0.949 . S
H298 C275 0.950 . S
H299 C277 0.950 . S
C300 C301 1.349 1_554 S
C300 C302 1.327 . S
C300 H325 0.950 . S
C301 C300 1.349 1_556 S
C301 C317 1.349 . S
C302 C300 1.327 . S
C302 C321 1.429 1_554 S
C302 H326 0.950 . S
C303 C320 1.582 . S
C303 C322 1.368 1_556 S
C303 H327 0.949 . S
H304 C308 0.949 . S
C305 C306 1.349 . S
C305 C307 1.327 . S
C305 H328 0.950 . S
C306 C305 1.349 . S
C306 C318 1.349 . S
C307 C305 1.327 . S
C307 C323 1.429 . S
C307 H329 0.950 . S
C308 H304 0.949 . S
C308 C316 1.574 . S
C308 C324 1.368 . S
H309 C317 0.950 . S
H310 C315 0.950 . S
H311 C316 0.949 . S
H312 C318 0.950 . S
H313 C319 0.950 . S
H314 C320 0.962 . S
C315 H310 0.950 . S
C315 C317 1.327 . S
C315 C321 1.429 . S
C316 C308 1.574 . S
C316 H311 0.949 . S
C316 C322 1.368 . S
C317 C301 1.349 . S
C317 H309 0.950 . S
C317 C315 1.327 . S
C318 C306 1.349 . S
C318 H312 0.950 . S
C318 C319 1.327 . S
C319 H313 0.950 . S
C319 C318 1.327 . S
C319 C323 1.429 . S
C320 C303 1.582 . S
C320 H314 0.962 . S
C320 C324 1.346 1_556 S
C321 C302 1.429 1_556 S
C321 C315 1.429 . S
C321 C322 1.523 1_556 S
C322 C303 1.368 1_554 S
C322 C316 1.368 . S
C322 C321 1.523 1_554 S
C323 C307 1.429 . S
C323 C319 1.429 . S
C323 C324 1.523 . S
C324 C308 1.368 . S
C324 C320 1.346 1_554 S
C324 C323 1.523 . S
H325 C300 0.950 . S
H326 C302 0.950 . S
H327 C303 0.949 . S
H328 C305 0.950 . S
H329 C307 0.950 . S
C330 C331 1.349 . S
C330 C332 1.327 . S
C330 H355 0.950 . S
C331 C330 1.349 . S
C331 C347 1.349 . S
C332 C330 1.327 . S
C332 C351 1.429 . S
C332 H356 0.950 . S
C333 C350 1.574 . S
C333 C352 1.368 . S
C333 H357 0.949 . S
H334 C338 0.949 . S
C335 C336 1.349 . S
C335 C337 1.327 . S
C335 H358 0.950 . S
C336 C335 1.349 . S
C336 C348 1.349 . S
C337 C335 1.327 . S
C337 C353 1.429 1_565 S
C337 H359 0.950 1_565 S
C338 H334 0.949 . S
C338 C346 1.574 . S
C338 C354 1.368 . S
H339 C347 0.950 . S
H340 C345 0.950 . S
H341 C346 0.949 . S
H342 C348 0.950 . S
H343 C349 0.950 . S
H344 C350 0.949 . S
C345 H340 0.950 . S
C345 C347 1.327 . S
C345 C351 1.429 . S
C346 C338 1.574 . S
C346 H341 0.949 . S
C346 C352 1.368 . S
C347 C331 1.349 . S
C347 H339 0.950 . S
C347 C345 1.327 . S
C348 C336 1.349 . S
C348 H342 0.950 . S
C348 C349 1.327 . S
C349 H343 0.950 . S
C349 C348 1.327 . S
C349 C353 1.429 1_565 S
C350 C333 1.574 . S
C350 H344 0.949 . S
C350 C354 1.368 . S
C351 C332 1.429 . S
C351 C345 1.429 . S
C351 C352 1.523 . S
C352 C333 1.368 . S
C352 C346 1.368 . S
C352 C351 1.523 . S
C353 C337 1.429 1_545 S
C353 C349 1.429 1_545 S
C353 C354 1.523 . S
C354 C338 1.368 . S
C354 C350 1.368 . S
C354 C353 1.523 . S
H355 C330 0.950 . S
H356 C332 0.950 . S
H357 C333 0.949 . S
H358 C335 0.950 . S
H359 C337 0.950 1_545 S
C360 C361 1.349 . S
C360 C362 1.327 . S
C360 H385 0.950 . S
C361 C360 1.349 . S
C361 C377 1.349 . S
C362 C360 1.327 . S
C362 C381 1.429 . S
C362 H386 0.950 . S
C363 C380 1.574 . S
C363 C382 1.368 . S
C363 H387 0.949 . S
H364 C368 0.949 . S
C365 C366 1.349 . S
C365 C367 1.327 . S
C365 H388 0.950 . S
C366 C365 1.349 . S
C366 C378 1.349 . S
C367 C365 1.327 . S
C367 C383 1.429 . S
C367 H389 0.950 . S
C368 H364 0.949 . S
C368 C376 1.574 . S
C368 C384 1.368 . S
H369 C377 0.950 . S
H370 C375 0.950 . S
H371 C376 0.949 . S
H372 C378 0.928 1_565 S
H373 C379 0.950 . S
H374 C380 0.949 . S
C375 H370 0.950 . S
C375 C377 1.327 . S
C375 C381 1.429 . S
C376 C368 1.574 . S
C376 H371 0.949 . S
C376 C382 1.368 . S
C377 C361 1.349 . S
C377 H369 0.950 . S
C377 C375 1.327 . S
C378 C366 1.349 . S
C378 H372 0.928 1_545 S
C378 C379 1.327 . S
C379 H373 0.950 . S
C379 C378 1.327 . S
C379 C383 1.429 . S
C380 C363 1.574 . S
C380 H374 0.949 . S
C380 C384 1.368 . S
C381 C362 1.429 . S
C381 C375 1.429 . S
C381 C382 1.523 . S
C382 C363 1.368 . S
C382 C376 1.368 . S
C382 C381 1.523 . S
C383 C367 1.429 . S
C383 C379 1.429 . S
C383 C384 1.523 . S
C384 C368 1.368 . S
C384 C380 1.368 . S
C384 C383 1.523 . S
H385 C360 0.950 . S
H386 C362 0.950 . S
H387 C363 0.949 . S
H388 C365 0.950 . S
H389 C367 0.950 . S
C390 C391 1.349 . S
C390 C392 1.327 . S
C390 H415 0.950 . S
C391 C390 1.349 . S
C391 C407 1.349 . S
C392 C390 1.327 . S
C392 C411 1.429 . S
C392 H416 0.950 . S
C393 C410 1.574 . S
C393 C412 1.368 . S
C393 H417 0.949 . S
H394 C398 0.949 . S
C395 C396 1.349 . S
C395 C397 1.327 . S
C395 H418 0.950 . S
C396 C395 1.349 . S
C396 C408 1.349 . S
C397 C395 1.327 . S
C397 C413 1.429 . S
C397 H419 0.950 . S
C398 H394 0.949 . S
C398 C406 1.574 . S
C398 C414 1.368 . S
H399 C407 0.950 1_655 S
H400 C405 0.950 . S
H401 C406 0.949 . S
H402 C408 0.950 . S
H403 C409 0.950 . S
H404 C410 0.949 . S
C405 H400 0.950 . S
C405 C407 1.327 . S
C405 C411 1.429 . S
C406 C398 1.574 . S
C406 H401 0.949 . S
C406 C412 1.368 . S
C407 C391 1.349 . S
C407 H399 0.950 1_455 S
C407 C405 1.327 . S
C408 C396 1.349 . S
C408 H402 0.950 . S
C408 C409 1.327 . S
C409 H403 0.950 . S
C409 C408 1.327 . S
C409 C413 1.429 . S
C410 C393 1.574 . S
C410 H404 0.949 . S
C410 C414 1.368 . S
C411 C392 1.429 . S
C411 C405 1.429 . S
C411 C412 1.523 . S
C412 C393 1.368 . S
C412 C406 1.368 . S
C412 C411 1.523 . S
C413 C397 1.429 . S
C413 C409 1.429 . S
C413 C414 1.523 . S
C414 C398 1.368 . S
C414 C410 1.368 . S
C414 C413 1.523 . S
H415 C390 0.950 . S
H416 C392 0.950 . S
H417 C393 0.949 . S
H418 C395 0.950 . S
H419 C397 0.950 . S
C420 C421 1.349 . S
C420 C422 1.327 . S
C420 H445 0.950 . S
C421 C420 1.349 . S
C421 C437 1.349 . S
C422 C420 1.327 . S
C422 C441 1.429 . S
C422 H446 0.950 . S
C423 C440 1.574 . S
C423 C442 1.368 1_554 S
C423 H447 0.949 . S
H424 C428 0.949 . S
C425 C426 1.349 . S
C425 C427 1.327 . S
C425 H448 0.950 . S
C426 C425 1.349 . S
C426 C438 1.349 . S
C427 C425 1.327 . S
C427 C443 1.429 . S
C427 H449 0.950 . S
C428 H424 0.949 . S
C428 C436 1.574 . S
C428 C444 1.368 1_556 S
H429 C437 0.950 . S
H430 C435 0.950 . S
H431 C436 0.949 . S
H432 C438 0.950 . S
H433 C439 0.941 1_556 S
H434 C440 0.949 . S
C435 H430 0.950 . S
C435 C437 1.327 . S
C435 C441 1.429 . S
C436 C428 1.574 . S
C436 H431 0.949 . S
C436 C442 1.368 . S
C437 C421 1.349 . S
C437 H429 0.950 . S
C437 C435 1.327 . S
C438 C426 1.349 . S
C438 H432 0.950 . S
C438 C439 1.327 . S
C439 H433 0.941 1_554 S
C439 C438 1.327 . S
C439 C443 1.429 . S
C440 C423 1.574 . S
C440 H434 0.949 . S
C440 C444 1.368 . S
C441 C422 1.429 . S
C441 C435 1.429 . S
C441 C442 1.523 . S
C442 C423 1.368 1_556 S
C442 C436 1.368 . S
C442 C441 1.523 . S
C443 C427 1.429 . S
C443 C439 1.429 . S
C443 C444 1.523 . S
C444 C428 1.368 1_554 S
C444 C440 1.368 . S
C444 C443 1.523 . S
H445 C420 0.950 . S
H446 C422 0.950 . S
H447 C423 0.949 . S
H448 C425 0.950 . S
H449 C427 0.950 . S
C450 C451 1.349 . S
C450 C452 1.327 . S
C450 H475 0.950 . S
C451 C450 1.349 . S
C451 C467 1.349 . S
C452 C450 1.327 . S
C452 C471 1.429 . S
C452 H476 0.950 . S
C453 C470 1.574 . S
C453 C472 1.368 . S
C453 H477 0.949 . S
H454 C458 0.949 . S
C455 C456 1.349 . S
C455 C457 1.327 . S
C455 H478 0.950 . S
C456 C455 1.349 . S
C456 C468 1.349 . S
C457 C455 1.327 . S
C457 C473 1.429 . S
C457 H479 0.950 . S
C458 H454 0.949 . S
C458 C466 1.574 . S
C458 C474 1.368 . S
H459 C467 0.950 . S
H460 C465 0.950 . S
H461 C466 0.949 . S
H462 C468 0.950 . S
H463 C469 0.950 . S
H464 C470 0.949 . S
C465 H460 0.950 . S
C465 C467 1.327 . S
C465 C471 1.429 . S
C466 C458 1.574 . S
C466 H461 0.949 . S
C466 C472 1.368 . S
C467 C451 1.349 . S
C467 H459 0.950 . S
C467 C465 1.327 . S
C468 C456 1.349 . S
C468 H462 0.950 . S
C468 C469 1.327 . S
C469 H463 0.950 . S
C469 C468 1.327 . S
C469 C473 1.429 . S
C470 C453 1.574 . S
C470 H464 0.949 . S
C470 C474 1.368 . S
C471 C452 1.429 . S
C471 C465 1.429 . S
C471 C472 1.523 . S
C472 C453 1.368 . S
C472 C466 1.368 . S
C472 C471 1.523 . S
C473 C457 1.429 . S
C473 C469 1.429 . S
C473 C474 1.523 . S
C474 C458 1.368 . S
C474 C470 1.368 . S
C474 C473 1.523 . S
H475 C450 0.950 . S
H476 C452 0.950 . S
H477 C453 0.949 . S
H478 C455 0.950 . S
H479 C457 0.950 . S
C480 C481 1.349 . S
C480 C482 1.327 . S
C480 H505 0.950 . S
C481 C480 1.349 . S
C481 C497 1.349 . S
C482 C480 1.327 . S
C482 C501 1.429 . S
C482 H506 0.950 . S
C483 C500 1.574 . S
C483 C502 1.368 . S
C483 H507 0.949 . S
H484 C488 0.949 . S
C485 C486 1.349 . S
C485 C487 1.327 . S
C485 H508 0.950 . S
C486 C485 1.349 . S
C486 C498 1.349 . S
C487 C485 1.327 . S
C487 C503 1.429 . S
C487 H509 0.950 . S
C488 H484 0.949 . S
C488 C496 1.574 . S
C488 C504 1.368 . S
H489 C497 0.950 . S
H490 C495 0.950 . S
H491 C496 0.949 . S
H492 C498 0.950 . S
H493 C499 0.950 . S
H494 C500 0.949 . S
C495 H490 0.950 . S
C495 C497 1.327 . S
C495 C501 1.429 . S
C496 C488 1.574 . S
C496 H491 0.949 . S
C496 C502 1.368 . S
C497 C481 1.349 . S
C497 H489 0.950 . S
C497 C495 1.327 . S
C498 C486 1.349 . S
C498 H492 0.950 . S
C498 C499 1.327 . S
C499 H493 0.950 . S
C499 C498 1.327 . S
C499 C503 1.429 . S
C500 C483 1.574 . S
C500 H494 0.949 . S
C500 C504 1.368 . S
C501 C482 1.429 . S
C501 C495 1.429 . S
C501 C502 1.523 . S
C502 C483 1.368 . S
C502 C496 1.368 . S
C502 C501 1.523 . S
C503 C487 1.429 . S
C503 C499 1.429 . S
C503 C504 1.523 . S
C504 C488 1.368 . S
C504 C500 1.368 . S
C504 C503 1.523 . S
H505 C480 0.950 . S
H506 C482 0.950 . S
H507 C483 0.949 . S
H508 C485 0.950 . S
H509 C487 0.950 . S
C510 C511 1.349 . S
C510 C512 1.327 . S
C510 H535 0.950 . S
C511 C510 1.349 . S
C511 C527 1.349 . S
C512 C510 1.327 . S
C512 C531 1.429 . S
C512 H536 0.950 . S
C513 C530 1.574 . S
C513 C532 1.368 1_655 S
C513 H537 0.949 . S
H514 C518 0.949 . S
C515 C516 1.349 . S
C515 C517 1.327 . S
C515 H538 0.950 . S
C516 C515 1.349 . S
C516 C528 1.349 . S
C517 C515 1.327 . S
C517 C533 1.429 . S
C517 H539 0.950 . S
C518 H514 0.949 . S
C518 C526 1.574 . S
C518 C534 1.368 . S
H519 C527 0.950 . S
H520 C525 0.950 . S
H521 C526 0.949 . S
H522 C528 0.950 1_455 S
H523 C529 0.950 . S
H524 C530 0.949 . S
C525 H520 0.950 . S
C525 C527 1.327 . S
C525 C531 1.429 . S
C526 C518 1.574 . S
C526 H521 0.949 . S
C526 C532 1.368 . S
C527 C511 1.349 . S
C527 H519 0.950 . S
C527 C525 1.327 . S
C528 C516 1.349 . S
C528 H522 0.950 1_655 S
C528 C529 1.327 1_655 S
C529 H523 0.950 . S
C529 C528 1.327 1_455 S
C529 C533 1.429 1_455 S
C530 C513 1.574 . S
C530 H524 0.949 . S
C530 C534 1.368 1_655 S
C531 C512 1.429 . S
C531 C525 1.429 . S
C531 C532 1.523 . S
C532 C513 1.368 1_455 S
C532 C526 1.368 . S
C532 C531 1.523 . S
C533 C517 1.429 . S
C533 C529 1.429 1_655 S
C533 C534 1.523 1_655 S
C534 C518 1.368 . S
C534 C530 1.368 1_455 S
C534 C533 1.523 1_455 S
H535 C510 0.950 . S
H536 C512 0.950 . S
H537 C513 0.949 . S
H538 C515 0.950 . S
H539 C517 0.950 . S
C540 C541 1.349 . S
C540 C542 1.327 . S
C540 H565 0.950 . S
C541 C540 1.349 . S
C541 C557 1.349 . S
C542 C540 1.327 . S
C542 C561 1.429 . S
C542 H566 0.950 . S
C543 C560 1.574 . S
C543 C562 1.368 . S
C543 H567 0.949 . S
H544 C548 0.949 . S
C545 C546 1.349 . S
C545 C547 1.327 . S
C545 H568 0.950 . S
C546 C545 1.349 . S
C546 C558 1.349 . S
C547 C545 1.327 . S
C547 C563 1.429 . S
C547 H569 0.950 . S
C548 H544 0.949 . S
C548 C556 1.574 1_655 S
C548 C564 1.368 . S
H549 C557 0.950 . S
H550 C555 0.950 . S
H551 C556 0.949 . S
H552 C558 0.950 1_554 S
H553 C559 0.950 . S
H554 C560 0.949 . S
C555 H550 0.950 . S
C555 C557 1.327 . S
C555 C561 1.429 . S
C556 C548 1.574 1_455 S
C556 H551 0.949 . S
C556 C562 1.368 . S
C557 C541 1.349 . S
C557 H549 0.950 . S
C557 C555 1.327 . S
C558 C546 1.349 . S
C558 H552 0.950 1_556 S
C558 C559 1.327 . S
C559 H553 0.950 . S
C559 C558 1.327 . S
C559 C563 1.429 . S
C560 C543 1.574 . S
C560 H554 0.949 . S
C560 C564 1.368 1_455 S
C561 C542 1.429 . S
C561 C555 1.429 . S
C561 C562 1.523 . S
C562 C543 1.368 . S
C562 C556 1.368 . S
C562 C561 1.523 . S
C563 C547 1.429 . S
C563 C559 1.429 . S
C563 C564 1.523 . S
C564 C548 1.368 . S
C564 C560 1.368 1_655 S
C564 C563 1.523 . S
H565 C540 0.950 . S
H566 C542 0.950 . S
H567 C543 0.949 . S
H568 C545 0.950 . S
H569 C547 0.950 . S
C570 C571 1.349 . S
C570 C572 1.327 . S
C570 H595 0.950 . S
C571 C570 1.349 . S
C571 C587 1.349 . S
C572 C570 1.327 . S
C572 C591 1.429 . S
C572 H596 0.950 . S
C573 C590 1.574 . S
C573 C592 1.368 . S
C573 H597 0.949 . S
H574 C578 0.949 . S
C575 C576 1.349 . S
C575 C577 1.327 . S
C575 H598 0.950 . S
C576 C575 1.349 . S
C576 C588 1.349 . S
C577 C575 1.327 . S
C577 C593 1.429 . S
C577 H599 0.950 . S
C578 H574 0.949 . S
C578 C586 1.574 . S
C578 C594 1.368 . S
H579 C587 0.950 . S
H580 C585 0.950 . S
H581 C586 0.949 . S
H582 C588 0.950 . S
H583 C589 0.950 . S
H584 C590 0.949 . S
C585 H580 0.950 . S
C585 C587 1.327 . S
C585 C591 1.429 . S
C586 C578 1.574 . S
C586 H581 0.949 . S
C586 C592 1.368 . S
C587 C571 1.349 . S
C587 H579 0.950 . S
C587 C585 1.327 . S
C588 C576 1.349 . S
C588 H582 0.950 . S
C588 C589 1.327 . S
C589 H583 0.950 . S
C589 C588 1.327 . S
C589 C593 1.429 . S
C590 C573 1.574 . S
C590 H584 0.949 . S
C590 C594 1.368 . S
C591 C572 1.429 . S
C591 C585 1.429 . S
C591 C592 1.523 . S
C592 C573 1.368 . S
C592 C586 1.368 . S
C592 C591 1.523 . S
C593 C577 1.429 . S
C593 C589 1.429 . S
C593 C594 1.523 . S
C594 C578 1.368 . S
C594 C590 1.368 . S
C594 C593 1.523 . S
H595 C570 0.950 . S
H596 C572 0.950 . S
H597 C573 0.949 . S
H598 C575 0.950 . S
H599 C577 0.950 . S
C600 C601 1.349 . S
C600 C602 1.327 . S
C600 H625 0.950 . S
C601 C600 1.349 . S
C601 C617 1.349 . S
C602 C600 1.327 . S
C602 C621 1.429 . S
C602 H626 0.950 . S
C603 C620 1.574 . S
C603 C622 1.368 . S
C603 H627 0.949 . S
H604 C608 0.949 . S
C605 C606 1.349 . S
C605 C607 1.327 . S
C605 H628 0.950 . S
C606 C605 1.349 . S
C606 C618 1.349 . S
C607 C605 1.327 . S
C607 C623 1.429 . S
C607 H629 0.950 . S
C608 H604 0.949 . S
C608 C616 1.574 . S
C608 C624 1.368 . S
H609 C617 0.950 . S
H610 C615 0.950 . S
H611 C616 0.949 . S
H612 C618 0.950 . S
H613 C619 0.950 . S
H614 C620 0.949 . S
C615 H610 0.950 . S
C615 C617 1.327 . S
C615 C621 1.429 . S
C616 C608 1.574 . S
C616 H611 0.949 . S
C616 C622 1.368 . S
C617 C601 1.349 . S
C617 H609 0.950 . S
C617 C615 1.327 . S
C618 C606 1.349 . S
C618 H612 0.950 . S
C618 C619 1.327 . S
C619 H613 0.950 . S
C619 C618 1.327 . S
C619 C623 1.429 . S
C620 C603 1.574 . S
C620 H614 0.949 . S
C620 C624 1.368 . S
C621 C602 1.429 . S
C621 C615 1.429 . S
C621 C622 1.523 . S
C622 C603 1.368 . S
C622 C616 1.368 . S
C622 C621 1.523 . S
C623 C607 1.429 . S
C623 C619 1.429 . S
C623 C624 1.523 . S
C624 C608 1.368 . S
C624 C620 1.368 . S
C624 C623 1.523 . S
H625 C600 0.950 . S
H626 C602 0.950 . S
H627 C603 0.949 . S
H628 C605 0.950 . S
H629 C607 0.950 . S
C630 C631 1.349 . S
C630 C632 1.327 . S
C630 H655 0.950 . S
C631 C630 1.349 . S
C631 C647 1.349 1_455 S
C632 C630 1.327 . S
C632 C651 1.429 1_455 S
C632 H656 0.950 . S
C633 C650 1.574 . S
C633 C652 1.368 . S
C633 H657 0.949 . S
H634 C638 0.949 . S
C635 C636 1.349 . S
C635 C637 1.327 . S
C635 H658 0.950 . S
C636 C635 1.349 . S
C636 C648 1.349 . S
C637 C635 1.327 . S
C637 C653 1.429 . S
C637 H659 0.950 . S
C638 H634 0.949 . S
C638 C646 1.574 . S
C638 C654 1.368 . S
H639 C647 0.950 . S
H640 C645 0.950 . S
H641 C646 0.949 . S
H642 C648 0.950 . S
H643 C649 0.950 . S
H644 C650 0.949 . S
C645 H640 0.950 . S
C645 C647 1.327 . S
C645 C651 1.429 . S
C646 C638 1.574 . S
C646 H641 0.949 . S
C646 C652 1.368 . S
C647 C631 1.349 1_655 S
C647 H639 0.950 . S
C647 C645 1.327 . S
C648 C636 1.349 . S
C648 H642 0.950 . S
C648 C649 1.327 . S
C649 H643 0.950 . S
C649 C648 1.327 . S
C649 C653 1.429 . S
C650 C633 1.574 . S
C650 H644 0.949 . S
C650 C654 1.368 . S
C651 C632 1.429 1_655 S
C651 C645 1.429 . S
C651 C652 1.523 . S
C652 C633 1.368 . S
C652 C646 1.368 . S
C652 C651 1.523 . S
C653 C637 1.429 . S
C653 C649 1.429 . S
C653 C654 1.523 . S
C654 C638 1.368 . S
C654 C650 1.368 . S
C654 C653 1.523 . S
H655 C630 0.950 . S
H656 C632 0.950 . S
H657 C633 0.949 . S
H658 C635 0.950 . S
H659 C637 0.950 . S
C660 C661 1.349 . S
C660 C662 1.327 . S
C660 H685 0.950 . S
C661 C660 1.349 . S
C661 C677 1.349 . S
C662 C660 1.327 . S
C662 C681 1.429 . S
C662 H686 0.950 . S
C663 C680 1.574 . S
C663 C682 1.368 . S
C663 H687 0.949 . S
H664 C668 0.949 . S
C665 C666 1.349 . S
C665 C667 1.327 . S
C665 H688 0.950 . S
C666 C665 1.349 . S
C666 C678 1.349 . S
C667 C665 1.327 . S
C667 C683 1.429 . S
C667 H689 0.950 . S
C668 H664 0.949 . S
C668 C676 1.574 . S
C668 C684 1.368 . S
H669 C677 0.950 . S
H670 C675 0.950 . S
H671 C676 0.949 . S
H672 C678 0.950 . S
H673 C679 0.950 . S
H674 C680 0.949 . S
C675 H670 0.950 . S
C675 C677 1.327 . S
C675 C681 1.429 . S
C676 C668 1.574 . S
C676 H671 0.949 . S
C676 C682 1.368 . S
C677 C661 1.349 . S
C677 H669 0.950 . S
C677 C675 1.327 . S
C678 C666 1.349 . S
C678 H672 0.950 . S
C678 C679 1.327 . S
C679 H673 0.950 . S
C679 C678 1.327 . S
C679 C683 1.429 . S
C680 C663 1.574 . S
C680 H674 0.949 . S
C680 C684 1.368 . S
C681 C662 1.429 . S
C681 C675 1.429 . S
C681 C682 1.523 . S
C682 C663 1.368 . S
C682 C676 1.368 . S
C682 C681 1.523 . S
C683 C667 1.429 . S
C683 C679 1.429 . S
C683 C684 1.523 . S
C684 C668 1.368 . S
C684 C680 1.368 . S
C684 C683 1.523 . S
H685 C660 0.950 . S
H686 C662 0.950 . S
H687 C663 0.949 . S
H688 C665 0.950 . S
H689 C667 0.950 . S
C690 C691 1.349 . S
C690 C692 1.327 . S
C690 H715 0.950 . S
C691 C690 1.349 . S
C691 C707 1.349 . S
C692 C690 1.327 . S
C692 C711 1.429 . S
C692 H716 0.950 . S
C693 C710 1.574 1_554 S
C693 C712 1.368 . S
C693 H717 0.949 . S
H694 C698 0.949 . S
C695 C696 1.349 . S
C695 C697 1.327 . S
C695 H718 0.950 . S
C696 C695 1.349 . S
C696 C708 1.349 . S
C697 C695 1.327 . S
C697 C713 1.429 . S
C697 H719 0.950 . S
C698 H694 0.949 . S
C698 C706 1.574 . S
C698 C714 1.368 . S
H699 C707 0.950 . S
H700 C705 0.950 . S
H701 C706 0.949 . S
H702 C708 0.950 . S
H703 C709 0.950 . S
H704 C710 0.949 . S
C705 H700 0.950 . S
C705 C707 1.327 . S
C705 C711 1.429 . S
C706 C698 1.574 . S
C706 H701 0.949 . S
C706 C712 1.368 . S
C707 C691 1.349 . S
C707 H699 0.950 . S
C707 C705 1.327 . S
C708 C696 1.349 . S
C708 H702 0.950 . S
C708 C709 1.327 . S
C709 H703 0.950 . S
C709 C708 1.327 . S
C709 C713 1.429 . S
C710 C693 1.574 1_556 S
C710 H704 0.949 . S
C710 C714 1.368 1_556 S
C711 C692 1.429 . S
C711 C705 1.429 . S
C711 C712 1.523 . S
C712 C693 1.368 . S
C712 C706 1.368 . S
C712 C711 1.523 . S
C713 C697 1.429 . S
C713 C709 1.429 . S
C713 C714 1.523 1_556 S
C714 C698 1.368 . S
C714 C710 1.368 1_554 S
C714 C713 1.523 1_554 S
H715 C690 0.950 . S
H716 C692 0.950 . S
H717 C693 0.949 . S
H718 C695 0.950 . S
H719 C697 0.950 . S
C720 C721 1.349 . S
C720 C722 1.327 . S
C720 H745 0.950 . S
C721 C720 1.349 . S
C721 C737 1.349 . S
C722 C720 1.327 . S
C722 C741 1.429 . S
C722 H746 0.950 . S
C723 C740 1.574 . S
C723 C742 1.368 . S
C723 H747 0.949 . S
H724 C728 0.949 . S
C725 C726 1.349 . S
C725 C727 1.327 . S
C725 H748 0.950 . S
C726 C725 1.349 . S
C726 C738 1.349 . S
C727 C725 1.327 . S
C727 C743 1.429 . S
C727 H749 0.950 . S
C728 H724 0.949 . S
C728 C736 1.574 . S
C728 C744 1.368 . S
H729 C737 0.950 . S
H730 C735 0.950 . S
H731 C736 0.949 . S
H732 C738 0.950 . S
H733 C739 0.950 . S
H734 C740 0.949 . S
C735 H730 0.950 . S
C735 C737 1.327 . S
C735 C741 1.429 . S
C736 C728 1.574 . S
C736 H731 0.949 . S
C736 C742 1.368 . S
C737 C721 1.349 . S
C737 H729 0.950 . S
C737 C735 1.327 . S
C738 C726 1.349 . S
C738 H732 0.950 . S
C738 C739 1.327 . S
C739 H733 0.950 . S
C739 C738 1.327 . S
C739 C743 1.429 . S
C740 C723 1.574 . S
C740 H734 0.949 . S
C740 C744 1.368 . S
C741 C722 1.429 . S
C741 C735 1.429 . S
C741 C742 1.523 . S
C742 C723 1.368 . S
C742 C736 1.368 . S
C742 C741 1.523 . S
C743 C727 1.429 . S
C743 C739 1.429 . S
C743 C744 1.523 . S
C744 C728 1.368 . S
C744 C740 1.368 . S
C744 C743 1.523 . S
H745 C720 0.950 . S
H746 C722 0.950 . S
H747 C723 0.949 . S
H748 C725 0.950 . S
H749 C727 0.950 . S
C750 C751 1.349 . S
C750 C752 1.327 . S
C750 H775 0.950 . S
C751 C750 1.349 . S
C751 C767 1.349 . S
C752 C750 1.327 . S
C752 C771 1.429 . S
C752 H776 0.950 . S
C753 C770 1.574 . S
C753 C772 1.368 . S
C753 H777 0.949 . S
H754 C758 0.949 . S
C755 C756 1.349 1_455 S
C755 C757 1.327 . S
C755 H778 0.950 . S
C756 C755 1.349 1_655 S
C756 C768 1.349 . S
C757 C755 1.327 . S
C757 C773 1.429 . S
C757 H779 0.950 . S
C758 H754 0.949 . S
C758 C766 1.574 . S
C758 C774 1.368 . S
H759 C767 0.950 . S
H760 C765 0.950 1_556 S
H761 C766 0.949 . S
H762 C768 0.950 . S
H763 C769 0.950 . S
H764 C770 0.949 . S
C765 H760 0.950 1_554 S
C765 C767 1.327 . S
C765 C771 1.429 . S
C766 C758 1.574 . S
C766 H761 0.949 . S
C766 C772 1.368 . S
C767 C751 1.349 . S
C767 H759 0.950 . S
C767 C765 1.327 . S
C768 C756 1.349 . S
C768 H762 0.950 . S
C768 C769 1.327 1_655 S
C769 H763 0.950 . S
C769 C768 1.327 1_455 S
C769 C773 1.429 . S
C770 C753 1.574 . S
C770 H764 0.949 . S
C770 C774 1.368 . S
C771 C752 1.429 . S
C771 C765 1.429 . S
C771 C772 1.523 1_554 S
C772 C753 1.368 . S
C772 C766 1.368 . S
C772 C771 1.523 1_556 S
C773 C757 1.429 . S
C773 C769 1.429 . S
C773 C774 1.523 . S
C774 C758 1.368 . S
C774 C770 1.368 . S
C774 C773 1.523 . S
H775 C750 0.950 . S
H776 C752 0.950 . S
H777 C753 0.949 . S
H778 C755 0.950 . S
H779 C757 0.950 . S
C780 C781 1.349 . S
C780 C782 1.327 . S
C780 H805 0.950 . S
C781 C780 1.349 . S
C781 C797 1.349 . S
C782 C780 1.327 . S
C782 C801 1.429 . S
C782 H806 0.950 . S
C783 C800 1.574 . S
C783 C802 1.368 . S
C783 H807 0.949 . S
H784 C788 0.949 . S
C785 C786 1.349 . S
C785 C787 1.327 . S
C785 H808 0.950 . S
C786 C785 1.349 . S
C786 C798 1.349 . S
C787 C785 1.327 . S
C787 C803 1.429 . S
C787 H809 0.950 . S
C788 H784 0.949 . S
C788 C796 1.574 . S
C788 C804 1.368 . S
H789 C797 0.950 . S
H790 C795 0.950 . S
H791 C796 0.949 . S
H792 C798 0.950 . S
H793 C799 0.950 . S
H794 C800 0.949 . S
C795 H790 0.950 . S
C795 C797 1.327 . S
C795 C801 1.429 . S
C796 C788 1.574 . S
C796 H791 0.949 . S
C796 C802 1.368 . S
C797 C781 1.349 . S
C797 H789 0.950 . S
C797 C795 1.327 . S
C798 C786 1.349 . S
C798 H792 0.950 . S
C798 C799 1.327 . S
C799 H793 0.950 . S
C799 C798 1.327 . S
C799 C803 1.429 . S
C800 C783 1.574 . S
C800 H794 0.949 . S
C800 C804 1.368 . S
C801 C782 1.429 . S
C801 C795 1.429 . S
C801 C802 1.523 . S
C802 C783 1.368 . S
C802 C796 1.368 . S
C802 C801 1.523 . S
C803 C787 1.429 . S
C803 C799 1.429 . S
C803 C804 1.523 . S
C804 C788 1.368 . S
C804 C800 1.368 . S
C804 C803 1.523 . S
H805 C780 0.950 . S
H806 C782 0.950 . S
H807 C783 0.949 . S
H808 C785 0.950 . S
H809 C787 0.950 . S
C810 C811 1.349 . S
C810 C812 1.327 . S
C810 H835 0.950 . S
C811 C810 1.349 . S
C811 C827 1.349 . S
C812 C810 1.327 . S
C812 C831 1.429 . S
C812 H836 0.950 . S
C813 C830 1.574 . S
C813 C832 1.368 . S
C813 H837 0.949 . S
H814 C818 0.949 . S
C815 C816 1.349 . S
C815 C817 1.327 . S
C815 H838 0.950 . S
C816 C815 1.349 . S
C816 C828 1.349 . S
C817 C815 1.327 . S
C817 C833 1.429 . S
C817 H839 0.950 . S
C818 H814 0.949 . S
C818 C826 1.574 . S
C818 C834 1.368 . S
H819 C827 0.950 . S
H820 C825 0.950 . S
H821 C826 0.949 . S
H822 C828 0.950 . S
H823 C829 0.950 . S
H824 C830 0.949 . S
C825 H820 0.950 . S
C825 C827 1.327 . S
C825 C831 1.429 . S
C826 C818 1.574 . S
C826 H821 0.949 . S
C826 C832 1.368 . S
C827 C811 1.349 . S
C827 H819 0.950 . S
C827 C825 1.327 . S
C828 C816 1.349 . S
C828 H822 0.950 . S
C828 C829 1.327 . S
C829 H823 0.950 . S
C829 C828 1.327 . S
C829 C833 1.429 . S
C830 C813 1.574 . S
C830 H824 0.949 . S
C830 C834 1.368 . S
C831 C812 1.429 . S
C831 C825 1.429 . S
C831 C832 1.523 . S
C832 C813 1.368 . S
C832 C826 1.368 . S
C832 C831 1.523 . S
C833 C817 1.429 . S
C833 C829 1.429 . S
C833 C834 1.523 . S
C834 C818 1.368 . S
C834 C830 1.368 . S
C834 C833 1.523 . S
H835 C810 0.950 . S
H836 C812 0.950 . S
H837 C813 0.949 . S
H838 C815 0.950 . S
H839 C817 0.950 . S
C840 C841 1.349 . S
C840 C842 1.327 . S
C840 H865 0.950 . S
C841 C840 1.349 . S
C841 C857 1.349 . S
C842 C840 1.327 . S
C842 C861 1.429 . S
C842 H866 0.950 . S
C843 C860 1.574 . S
C843 C862 1.368 . S
C843 H867 0.949 . S
H844 C848 0.949 . S
C845 C846 1.349 . S
C845 C847 1.327 . S
C845 H868 0.950 . S
C846 C845 1.349 . S
C846 C858 1.349 . S
C847 C845 1.327 . S
C847 C863 1.429 . S
C847 H869 0.950 . S
C848 H844 0.949 . S
C848 C856 1.574 . S
C848 C864 1.368 . S
H849 C857 0.950 . S
H850 C855 0.950 . S
H851 C856 0.949 . S
H852 C858 0.950 . S
H853 C859 0.950 . S
H854 C860 0.949 . S
C855 H850 0.950 . S
C855 C857 1.327 . S
C855 C861 1.429 . S
C856 C848 1.574 . S
C856 H851 0.949 . S
C856 C862 1.368 . S
C857 C841 1.349 . S
C857 H849 0.950 . S
C857 C855 1.327 . S
C858 C846 1.349 . S
C858 H852 0.950 . S
C858 C859 1.327 . S
C859 H853 0.950 . S
C859 C858 1.327 . S
C859 C863 1.429 . S
C860 C843 1.574 . S
C860 H854 0.949 . S
C860 C864 1.368 . S
C861 C842 1.429 . S
C861 C855 1.429 . S
C861 C862 1.523 . S
C862 C843 1.368 . S
C862 C856 1.368 . S
C862 C861 1.523 . S
C863 C847 1.429 . S
C863 C859 1.429 . S
C863 C864 1.523 . S
C864 C848 1.368 . S
C864 C860 1.368 . S
C864 C863 1.523 . S
H865 C840 0.950 . S
H866 C842 0.950 . S
H867 C843 0.949 . S
H868 C845 0.950 . S
H869 C847 0.950 . S
C870 C871 1.349 . S
C870 C872 1.327 . S
C870 H895 0.950 . S
C871 C870 1.349 . S
C871 C887 1.349 . S
C872 C870 1.327 . S
C872 C891 1.429 . S
C872 H896 0.950 . S
C873 C890 1.574 . S
C873 C892 1.368 . S
C873 H897 0.949 . S
H874 C878 0.949 . S
C875 C876 1.349 . S
C875 C877 1.324 1_565 S
C875 H898 0.950 . S
C876 C875 1.349 . S
C876 C888 1.349 . S
C877 C875 1.324 1_545 S
C877 C893 1.428 1_545 S
C877 H899 0.953 . S
C878 H874 0.949 . S
C878 C886 1.574 . S
C878 C894 1.368 . S
H879 C887 0.950 . S
H880 C885 0.950 . S
H881 C886 0.949 . S
H882 C888 0.950 . S
H883 C889 0.950 . S
H884 C890 0.949 . S
C885 H880 0.950 . S
C885 C887 1.327 . S
C885 C891 1.429 . S
C886 C878 1.574 . S
C886 H881 0.949 . S
C886 C892 1.368 . S
C887 C871 1.349 . S
C887 H879 0.950 . S
C887 C885 1.327 . S
C888 C876 1.349 . S
C888 H882 0.950 . S
C888 C889 1.327 . S
C889 H883 0.950 . S
C889 C888 1.327 . S
C889 C893 1.451 . S
C890 C873 1.574 . S
C890 H884 0.949 . S
C890 C894 1.368 . S
C891 C872 1.429 . S
C891 C885 1.429 . S
C891 C892 1.523 . S
C892 C873 1.368 . S
C892 C886 1.368 . S
C892 C891 1.523 . S
C893 C877 1.428 1_565 S
C893 C889 1.451 . S
C893 C894 1.503 1_565 S
C894 C878 1.368 . S
C894 C890 1.368 . S
C894 C893 1.503 1_545 S
H895 C870 0.950 . S
H896 C872 0.950 . S
H897 C873 0.949 . S
H898 C875 0.950 . S
H899 C877 0.953 . S
C900 C901 1.349 . S
C900 C902 1.327 . S
C900 H925 0.950 . S
C901 C900 1.349 . S
C901 C917 1.349 . S
C902 C900 1.327 . S
C902 C921 1.429 . S
C902 H926 0.950 . S
C903 C920 1.574 . S
C903 C922 1.368 . S
C903 H927 0.949 . S
H904 C908 0.949 . S
C905 C906 1.349 . S
C905 C907 1.327 . S
C905 H928 0.950 . S
C906 C905 1.349 . S
C906 C918 1.349 . S
C907 C905 1.327 . S
C907 C923 1.429 . S
C907 H929 0.950 . S
C908 H904 0.949 . S
C908 C916 1.574 . S
C908 C924 1.368 . S
H909 C917 0.950 . S
H910 C915 0.950 . S
H911 C916 0.949 . S
H912 C918 0.950 . S
H913 C919 0.950 . S
H914 C920 0.949 . S
C915 H910 0.950 . S
C915 C917 1.327 . S
C915 C921 1.429 . S
C916 C908 1.574 . S
C916 H911 0.949 . S
C916 C922 1.368 . S
C917 C901 1.349 . S
C917 H909 0.950 . S
C917 C915 1.327 . S
C918 C906 1.349 . S
C918 H912 0.950 . S
C918 C919 1.327 . S
C919 H913 0.950 . S
C919 C918 1.327 . S
C919 C923 1.429 . S
C920 C903 1.574 . S
C920 H914 0.949 . S
C920 C924 1.368 . S
C921 C902 1.429 . S
C921 C915 1.429 . S
C921 C922 1.523 . S
C922 C903 1.368 . S
C922 C916 1.368 . S
C922 C921 1.523 . S
C923 C907 1.429 . S
C923 C919 1.429 . S
C923 C924 1.523 . S
C924 C908 1.368 . S
C924 C920 1.368 . S
C924 C923 1.523 . S
H925 C900 0.950 . S
H926 C902 0.950 . S
H927 C903 0.949 . S
H928 C905 0.950 . S
H929 C907 0.950 . S
C930 C931 1.349 . S
C930 C932 1.327 . S
C930 H955 0.950 . S
C931 C930 1.349 . S
C931 C947 1.349 . S
C932 C930 1.327 . S
C932 C951 1.429 . S
C932 H956 0.950 . S
C933 C950 1.574 . S
C933 C952 1.368 . S
C933 H957 0.949 . S
H934 C938 0.949 . S
C935 C936 1.349 . S
C935 C937 1.327 . S
C935 H958 0.950 . S
C936 C935 1.349 . S
C936 C948 1.349 1_554 S
C937 C935 1.327 . S
C937 C953 1.429 . S
C937 H959 0.950 . S
C938 H934 0.949 . S
C938 C946 1.574 . S
C938 C954 1.368 . S
H939 C947 0.950 . S
H940 C945 0.950 . S
H941 C946 0.949 . S
H942 C948 0.950 . S
H943 C949 0.955 . S
H944 C950 0.949 . S
C945 H940 0.950 . S
C945 C947 1.327 . S
C945 C951 1.429 . S
C946 C938 1.574 . S
C946 H941 0.949 . S
C946 C952 1.368 . S
C947 C931 1.349 . S
C947 H939 0.950 . S
C947 C945 1.327 . S
C948 C936 1.349 1_556 S
C948 H942 0.950 . S
C948 C949 1.327 1_556 S
C949 H943 0.955 . S
C949 C948 1.327 1_554 S
C949 C953 1.429 . S
C950 C933 1.574 . S
C950 H944 0.949 . S
C950 C954 1.368 . S
C951 C932 1.429 . S
C951 C945 1.429 . S
C951 C952 1.523 1_545 S
C952 C933 1.368 . S
C952 C946 1.368 . S
C952 C951 1.523 1_565 S
C953 C937 1.429 . S
C953 C949 1.429 . S
C953 C954 1.523 . S
C954 C938 1.368 . S
C954 C950 1.368 . S
C954 C953 1.523 . S
H955 C930 0.950 . S
H956 C932 0.950 . S
H957 C933 0.949 . S
H958 C935 0.950 . S
H959 C937 0.950 . S
C960 C961 1.349 . S
C960 C962 1.327 . S
C960 H985 0.950 . S
C961 C960 1.349 . S
C961 C977 1.349 . S
C962 C960 1.327 . S
C962 C981 1.429 . S
C962 H986 0.950 . S
C963 C980 1.574 . S
C963 C982 1.368 . S
C963 H987 0.949 . S
H964 C968 0.949 . S
C965 C966 1.349 . S
C965 C967 1.327 . S
C965 H988 0.950 . S
C966 C965 1.349 . S
C966 C978 1.349 . S
C967 C965 1.327 . S
C967 C983 1.429 . S
C967 H989 0.950 . S
C968 H964 0.949 . S
C968 C976 1.574 . S
C968 C984 1.368 . S
H969 C977 0.950 . S
H970 C975 0.950 . S
H971 C976 0.949 . S
H972 C978 0.950 . S
H973 C979 0.950 . S
H974 C980 0.949 . S
C975 H970 0.950 . S
C975 C977 1.327 . S
C975 C981 1.429 . S
C976 C968 1.574 . S
C976 H971 0.949 . S
C976 C982 1.368 . S
C977 C961 1.349 . S
C977 H969 0.950 . S
C977 C975 1.327 . S
C978 C966 1.349 . S
C978 H972 0.950 . S
C978 C979 1.327 . S
C979 H973 0.950 . S
C979 C978 1.327 . S
C979 C983 1.429 . S
C980 C963 1.574 . S
C980 H974 0.949 . S
C980 C984 1.368 . S
C981 C962 1.429 . S
C981 C975 1.429 . S
C981 C982 1.523 . S
C982 C963 1.368 . S
C982 C976 1.368 . S
C982 C981 1.523 . S
C983 C967 1.429 . S
C983 C979 1.429 . S
C983 C984 1.523 . S
C984 C968 1.368 . S
C984 C980 1.368 . S
C984 C983 1.523 . S
H985 C960 0.950 . S
H986 C962 0.950 . S
H987 C963 0.949 . S
H988 C965 0.950 . S
H989 C967 0.950 . S
C990 C991 1.349 . S
C990 C992 1.327 . S
C990 H1015 0.950 . S
C991 C990 1.349 . S
C991 C1007 1.349 . S
C992 C990 1.327 . S
C992 C1011 1.429 . S
C992 H1016 0.950 . S
C993 C1010 1.574 . S
C993 C1012 1.368 . S
C993 H1017 0.949 . S
H994 C998 0.949 . S
C995 C996 1.349 1_556 S
C995 C997 1.327 . S
C995 H1018 0.950 . S
C996 C995 1.349 1_554 S
C996 C1008 1.349 . S
C997 C995 1.327 . S
C997 C1013 1.429 . S
C997 H1019 0.950 . S
C998 H994 0.949 . S
C998 C1006 1.574 . S
C998 C1014 1.368 . S
H999 C1007 0.950 . S
H1000 C1005 0.950 . S
H1001 C1006 0.949 . S
H1002 C1008 0.950 . S
H1003 C1009 0.950 . S
H1004 C1010 0.949 . S
C1005 H1000 0.950 . S
C1005 C1007 1.327 . S
C1005 C1011 1.429 . S
C1006 C998 1.574 . S
C1006 H1001 0.949 . S
C1006 C1012 1.368 . S
C1007 C991 1.349 . S
C1007 H999 0.950 . S
C1007 C1005 1.327 . S
C1008 C996 1.349 . S
C1008 H1002 0.950 . S
C1008 C1009 1.327 . S
C1009 H1003 0.950 . S
C1009 C1008 1.327 . S
C1009 C1013 1.429 1_554 S
C1010 C993 1.574 . S
C1010 H1004 0.949 . S
C1010 C1014 1.368 . S
C1011 C992 1.429 . S
C1011 C1005 1.429 . S
C1011 C1012 1.523 . S
C1012 C993 1.368 . S
C1012 C1006 1.368 . S
C1012 C1011 1.523 . S
C1013 C997 1.429 . S
C1013 C1009 1.429 1_556 S
C1013 C1014 1.523 . S
C1014 C998 1.368 . S
C1014 C1010 1.368 . S
C1014 C1013 1.523 . S
H1015 C990 0.950 . S
H1016 C992 0.950 . S
H1017 C993 0.949 . S
H1018 C995 0.950 . S
H1019 C997 0.950 . S
C1020 C1021 1.349 . S
C1020 C1022 1.327 . S
C1020 H1045 0.950 . S
C1021 C1020 1.349 . S
C1021 C1037 1.349 . S
C1022 C1020 1.327 . S
C1022 C1041 1.429 . S
C1022 H1046 0.950 . S
C1023 C1040 1.574 . S
C1023 C1042 1.368 . S
C1023 H1047 0.949 . S
H1024 C1028 0.949 . S
C1025 C1026 1.349 . S
C1025 C1027 1.327 . S
C1025 H1048 0.950 . S
C1026 C1025 1.349 . S
C1026 C1038 1.349 . S
C1027 C1025 1.327 . S
C1027 C1043 1.429 . S
C1027 H1049 0.950 . S
C1028 H1024 0.949 . S
C1028 C1036 1.574 . S
C1028 C1044 1.368 . S
H1029 C1037 0.950 . S
H1030 C1035 0.950 . S
H1031 C1036 0.949 . S
H1032 C1038 0.950 . S
H1033 C1039 0.950 . S
H1034 C1040 0.949 . S
C1035 H1030 0.950 . S
C1035 C1037 1.327 . S
C1035 C1041 1.429 . S
C1036 C1028 1.574 . S
C1036 H1031 0.949 . S
C1036 C1042 1.368 . S
C1037 C1021 1.349 . S
C1037 H1029 0.950 . S
C1037 C1035 1.327 . S
C1038 C1026 1.349 . S
C1038 H1032 0.950 . S
C1038 C1039 1.327 . S
C1039 H1033 0.950 . S
C1039 C1038 1.327 . S
C1039 C1043 1.429 . S
C1040 C1023 1.574 . S
C1040 H1034 0.949 . S
C1040 C1044 1.368 . S
C1041 C1022 1.429 . S
C1041 C1035 1.429 . S
C1041 C1042 1.523 . S
C1042 C1023 1.368 . S
C1042 C1036 1.368 . S
C1042 C1041 1.523 . S
C1043 C1027 1.429 . S
C1043 C1039 1.429 . S
C1043 C1044 1.523 . S
C1044 C1028 1.368 . S
C1044 C1040 1.368 . S
C1044 C1043 1.523 . S
H1045 C1020 0.950 . S
H1046 C1022 0.950 . S
H1047 C1023 0.949 . S
H1048 C1025 0.950 . S
H1049 C1027 0.950 . S
C1050 C1051 1.349 . S
C1050 C1052 1.327 . S
C1050 H1075 0.950 . S
C1051 C1050 1.349 . S
C1051 C1067 1.349 . S
C1052 C1050 1.327 . S
C1052 C1071 1.429 . S
C1052 H1076 0.950 . S
C1053 C1070 1.574 . S
C1053 C1072 1.368 . S
C1053 H1077 0.949 . S
H1054 C1058 0.949 . S
C1055 C1056 1.349 . S
C1055 C1057 1.327 . S
C1055 H1078 0.950 . S
C1056 C1055 1.349 . S
C1056 C1068 1.349 . S
C1057 C1055 1.327 . S
C1057 C1073 1.429 . S
C1057 H1079 0.950 . S
C1058 H1054 0.949 . S
C1058 C1066 1.574 . S
C1058 C1074 1.368 . S
H1059 C1067 0.950 . S
H1060 C1065 0.950 . S
H1061 C1066 0.949 . S
H1062 C1068 0.950 . S
H1063 C1069 0.950 . S
H1064 C1070 0.949 . S
C1065 H1060 0.950 . S
C1065 C1067 1.327 . S
C1065 C1071 1.429 . S
C1066 C1058 1.574 . S
C1066 H1061 0.949 . S
C1066 C1072 1.368 . S
C1067 C1051 1.349 . S
C1067 H1059 0.950 . S
C1067 C1065 1.327 . S
C1068 C1056 1.349 . S
C1068 H1062 0.950 . S
C1068 C1069 1.327 . S
C1069 H1063 0.950 . S
C1069 C1068 1.327 . S
C1069 C1073 1.429 . S
C1070 C1053 1.574 . S
C1070 H1064 0.949 . S
C1070 C1074 1.368 . S
C1071 C1052 1.429 . S
C1071 C1065 1.429 . S
C1071 C1072 1.523 . S
C1072 C1053 1.368 . S
C1072 C1066 1.368 . S
C1072 C1071 1.523 . S
C1073 C1057 1.429 . S
C1073 C1069 1.429 . S
C1073 C1074 1.523 . S
C1074 C1058 1.368 . S
C1074 C1070 1.368 . S
C1074 C1073 1.523 . S
H1075 C1050 0.950 . S
H1076 C1052 0.950 . S
H1077 C1053 0.949 . S
H1078 C1055 0.950 . S
H1079 C1057 0.950 . S
C1080 C1081 1.349 . S
C1080 C1082 1.327 . S
C1080 H1105 0.950 . S
C1081 C1080 1.349 . S
C1081 C1097 1.349 . S
C1082 C1080 1.327 . S
C1082 C1101 1.429 . S
C1082 H1106 0.950 . S
C1083 C1100 1.574 . S
C1083 C1102 1.368 . S
C1083 H1107 0.949 . S
H1084 C1088 0.949 . S
C1085 C1086 1.349 . S
C1085 C1087 1.327 . S
C1085 H1108 0.950 . S
C1086 C1085 1.349 . S
C1086 C1098 1.349 . S
C1087 C1085 1.327 . S
C1087 C1103 1.429 . S
C1087 H1109 0.950 . S
C1088 H1084 0.949 . S
C1088 C1096 1.574 . S
C1088 C1104 1.368 . S
H1089 C1097 0.950 . S
H1090 C1095 0.950 . S
H1091 C1096 0.949 . S
H1092 C1098 0.950 . S
H1093 C1099 0.950 . S
H1094 C1100 0.949 . S
C1095 H1090 0.950 . S
C1095 C1097 1.327 . S
C1095 C1101 1.429 . S
C1096 C1088 1.574 . S
C1096 H1091 0.949 . S
C1096 C1102 1.368 . S
C1097 C1081 1.349 . S
C1097 H1089 0.950 . S
C1097 C1095 1.327 . S
C1098 C1086 1.349 . S
C1098 H1092 0.950 . S
C1098 C1099 1.327 . S
C1099 H1093 0.950 . S
C1099 C1098 1.327 . S
C1099 C1103 1.429 . S
C1100 C1083 1.574 . S
C1100 H1094 0.949 . S
C1100 C1104 1.368 . S
C1101 C1082 1.429 . S
C1101 C1095 1.429 . S
C1101 C1102 1.523 . S
C1102 C1083 1.368 . S
C1102 C1096 1.368 . S
C1102 C1101 1.523 . S
C1103 C1087 1.429 . S
C1103 C1099 1.429 . S
C1103 C1104 1.523 . S
C1104 C1088 1.368 . S
C1104 C1100 1.368 . S
C1104 C1103 1.523 . S
H1105 C1080 0.950 . S
H1106 C1082 0.950 . S
H1107 C1083 0.949 . S
H1108 C1085 0.950 . S
H1109 C1087 0.950 . S
C1110 C1111 1.349 . S
C1110 C1112 1.327 . S
C1110 H1135 0.950 . S
C1111 C1110 1.349 . S
C1111 C1127 1.349 . S
C1112 C1110 1.327 . S
C1112 C1131 1.429 . S
C1112 H1136 0.950 . S
C1113 C1130 1.574 . S
C1113 C1132 1.368 . S
C1113 H1137 0.949 . S
H1114 C1118 0.949 . S
C1115 C1116 1.349 . S
C1115 C1117 1.327 . S
C1115 H1138 0.950 . S
C1116 C1115 1.349 . S
C1116 C1128 1.349 . S
C1117 C1115 1.327 . S
C1117 C1133 1.429 . S
C1117 H1139 0.950 . S
C1118 H1114 0.949 . S
C1118 C1126 1.574 . S
C1118 C1134 1.368 . S
H1119 C1127 0.950 . S
H1120 C1125 0.950 . S
H1121 C1126 0.949 . S
H1122 C1128 0.950 . S
H1123 C1129 0.950 . S
H1124 C1130 0.949 . S
C1125 H1120 0.950 . S
C1125 C1127 1.327 . S
C1125 C1131 1.429 . S
C1126 C1118 1.574 . S
C1126 H1121 0.949 . S
C1126 C1132 1.368 . S
C1127 C1111 1.349 . S
C1127 H1119 0.950 . S
C1127 C1125 1.327 . S
C1128 C1116 1.349 . S
C1128 H1122 0.950 . S
C1128 C1129 1.327 . S
C1129 H1123 0.950 . S
C1129 C1128 1.327 . S
C1129 C1133 1.429 . S
C1130 C1113 1.574 . S
C1130 H1124 0.949 . S
C1130 C1134 1.368 . S
C1131 C1112 1.429 . S
C1131 C1125 1.429 . S
C1131 C1132 1.523 . S
C1132 C1113 1.368 . S
C1132 C1126 1.368 . S
C1132 C1131 1.523 . S
C1133 C1117 1.429 . S
C1133 C1129 1.429 . S
C1133 C1134 1.523 . S
C1134 C1118 1.368 . S
C1134 C1130 1.368 . S
C1134 C1133 1.523 . S
H1135 C1110 0.950 . S
H1136 C1112 0.950 . S
H1137 C1113 0.949 . S
H1138 C1115 0.950 . S
H1139 C1117 0.950 . S
C1140 C1141 1.349 . S
C1140 C1142 1.327 . S
C1140 H1165 0.950 . S
C1141 C1140 1.349 . S
C1141 C1157 1.349 . S
C1142 C1140 1.327 . S
C1142 C1161 1.429 . S
C1142 H1166 0.950 . S
C1143 C1160 1.574 . S
C1143 C1162 1.368 . S
C1143 H1167 0.949 . S
H1144 C1148 0.949 . S
C1145 C1146 1.349 . S
C1145 C1147 1.327 . S
C1145 H1168 0.950 . S
C1146 C1145 1.349 . S
C1146 C1158 1.349 . S
C1147 C1145 1.327 . S
C1147 C1163 1.429 . S
C1147 H1169 0.950 1_655 S
C1148 H1144 0.949 . S
C1148 C1156 1.574 . S
C1148 C1164 1.368 . S
H1149 C1157 0.950 . S
H1150 C1155 0.950 . S
H1151 C1156 0.949 . S
H1152 C1158 0.950 . S
H1153 C1159 0.950 . S
H1154 C1160 0.949 . S
C1155 H1150 0.950 . S
C1155 C1157 1.327 . S
C1155 C1161 1.429 . S
C1156 C1148 1.574 . S
C1156 H1151 0.949 . S
C1156 C1162 1.368 . S
C1157 C1141 1.349 . S
C1157 H1149 0.950 . S
C1157 C1155 1.327 . S
C1158 C1146 1.349 . S
C1158 H1152 0.950 . S
C1158 C1159 1.327 . S
C1159 H1153 0.950 . S
C1159 C1158 1.327 . S
C1159 C1163 1.429 . S
C1160 C1143 1.574 . S
C1160 H1154 0.949 . S
C1160 C1164 1.368 . S
C1161 C1142 1.429 . S
C1161 C1155 1.429 . S
C1161 C1162 1.523 . S
C1162 C1143 1.368 . S
C1162 C1156 1.368 . S
C1162 C1161 1.523 . S
C1163 C1147 1.429 . S
C1163 C1159 1.429 . S
C1163 C1164 1.523 1_655 S
C1164 C1148 1.368 . S
C1164 C1160 1.368 . S
C1164 C1163 1.523 1_455 S
H1165 C1140 0.950 . S
H1166 C1142 0.950 . S
H1167 C1143 0.949 . S
H1168 C1145 0.950 . S
H1169 C1147 0.950 1_455 S
C1170 C1171 1.349 . S
C1170 C1172 1.327 . S
C1170 H1195 0.950 . S
C1171 C1170 1.349 . S
C1171 C1187 1.349 . S
C1172 C1170 1.327 . S
C1172 C1191 1.429 . S
C1172 H1196 0.950 . S
C1173 C1190 1.574 . S
C1173 C1192 1.368 . S
C1173 H1197 0.949 . S
H1174 C1178 0.949 . S
C1175 C1176 1.349 . S
C1175 C1177 1.327 . S
C1175 H1198 0.950 . S
C1176 C1175 1.349 . S
C1176 C1188 1.349 . S
C1177 C1175 1.327 . S
C1177 C1193 1.429 . S
C1177 H1199 0.950 . S
C1178 H1174 0.949 . S
C1178 C1186 1.574 . S
C1178 C1194 1.368 . S
H1179 C1187 0.950 . S
H1180 C1185 0.950 . S
H1181 C1186 0.949 . S
H1182 C1188 0.950 . S
H1183 C1189 0.950 . S
H1184 C1190 0.949 . S
C1185 H1180 0.950 . S
C1185 C1187 1.327 . S
C1185 C1191 1.429 . S
C1186 C1178 1.574 . S
C1186 H1181 0.949 . S
C1186 C1192 1.368 . S
C1187 C1171 1.349 . S
C1187 H1179 0.950 . S
C1187 C1185 1.327 . S
C1188 C1176 1.349 . S
C1188 H1182 0.950 . S
C1188 C1189 1.327 . S
C1189 H1183 0.950 . S
C1189 C1188 1.327 . S
C1189 C1193 1.429 . S
C1190 C1173 1.574 . S
C1190 H1184 0.949 . S
C1190 C1194 1.368 . S
C1191 C1172 1.429 . S
C1191 C1185 1.429 . S
C1191 C1192 1.523 . S
C1192 C1173 1.368 . S
C1192 C1186 1.368 . S
C1192 C1191 1.523 . S
C1193 C1177 1.429 . S
C1193 C1189 1.429 . S
C1193 C1194 1.523 . S
C1194 C1178 1.368 . S
C1194 C1190 1.368 . S
C1194 C1193 1.523 . S
H1195 C1170 0.950 . S
H1196 C1172 0.950 . S
H1197 C1173 0.949 . S
H1198 C1175 0.950 . S
H1199 C1177 0.950 . S
C1200 C1201 1.349 . S
C1200 C1202 1.327 . S
C1200 H1225 0.950 . S
C1201 C1200 1.349 . S
C1201 C1217 1.349 . S
C1202 C1200 1.327 . S
C1202 C1221 1.429 . S
C1202 H1226 0.950 . S
C1203 C1220 1.574 . S
C1203 C1222 1.368 . S
C1203 H1227 0.949 . S
H1204 C1208 0.949 . S
C1205 C1206 1.349 . S
C1205 C1207 1.327 . S
C1205 H1228 0.950 . S
C1206 C1205 1.349 . S
C1206 C1218 1.349 . S
C1207 C1205 1.327 . S
C1207 C1223 1.429 . S
C1207 H1229 0.950 . S
C1208 H1204 0.949 . S
C1208 C1216 1.574 . S
C1208 C1224 1.368 . S
H1209 C1217 0.950 . S
H1210 C1215 0.950 . S
H1211 C1216 0.949 . S
H1212 C1218 0.950 . S
H1213 C1219 0.950 . S
H1214 C1220 0.949 . S
C1215 H1210 0.950 . S
C1215 C1217 1.327 . S
C1215 C1221 1.429 . S
C1216 C1208 1.574 . S
C1216 H1211 0.949 . S
C1216 C1222 1.368 . S
C1217 C1201 1.349 . S
C1217 H1209 0.950 . S
C1217 C1215 1.327 . S
C1218 C1206 1.349 . S
C1218 H1212 0.950 . S
C1218 C1219 1.327 . S
C1219 H1213 0.950 . S
C1219 C1218 1.327 . S
C1219 C1223 1.429 . S
C1220 C1203 1.574 . S
C1220 H1214 0.949 . S
C1220 C1224 1.368 . S
C1221 C1202 1.429 . S
C1221 C1215 1.429 . S
C1221 C1222 1.523 . S
C1222 C1203 1.368 . S
C1222 C1216 1.368 . S
C1222 C1221 1.523 . S
C1223 C1207 1.429 . S
C1223 C1219 1.429 . S
C1223 C1224 1.523 . S
C1224 C1208 1.368 . S
C1224 C1220 1.368 . S
C1224 C1223 1.523 . S
H1225 C1200 0.950 . S
H1226 C1202 0.950 . S
H1227 C1203 0.949 . S
H1228 C1205 0.950 . S
H1229 C1207 0.950 . S
C1230 C1231 1.349 . S
C1230 C1232 1.327 . S
C1230 H1255 0.950 . S
C1231 C1230 1.349 . S
C1231 C1247 1.349 . S
C1232 C1230 1.327 . S
C1232 C1251 1.429 . S
C1232 H1256 0.950 . S
C1233 C1250 1.574 . S
C1233 C1252 1.368 . S
C1233 H1257 0.949 . S
H1234 C1238 0.949 . S
C1235 C1236 1.349 . S
C1235 C1237 1.327 . S
C1235 H1258 0.950 . S
C1236 C1235 1.349 . S
C1236 C1248 1.349 . S
C1237 C1235 1.327 . S
C1237 C1253 1.429 . S
C1237 H1259 0.950 . S
C1238 H1234 0.949 . S
C1238 C1246 1.574 . S
C1238 C1254 1.368 . S
H1239 C1247 0.950 . S
H1240 C1245 0.950 . S
H1241 C1246 0.949 . S
H1242 C1248 0.950 . S
H1243 C1249 0.950 . S
H1244 C1250 0.949 . S
C1245 H1240 0.950 . S
C1245 C1247 1.327 . S
C1245 C1251 1.429 . S
C1246 C1238 1.574 . S
C1246 H1241 0.949 . S
C1246 C1252 1.368 . S
C1247 C1231 1.349 . S
C1247 H1239 0.950 . S
C1247 C1245 1.327 . S
C1248 C1236 1.349 . S
C1248 H1242 0.950 . S
C1248 C1249 1.327 . S
C1249 H1243 0.950 . S
C1249 C1248 1.327 . S
C1249 C1253 1.429 . S
C1250 C1233 1.574 . S
C1250 H1244 0.949 . S
C1250 C1254 1.368 . S
C1251 C1232 1.429 . S
C1251 C1245 1.429 . S
C1251 C1252 1.523 . S
C1252 C1233 1.368 . S
C1252 C1246 1.368 . S
C1252 C1251 1.523 . S
C1253 C1237 1.429 . S
C1253 C1249 1.429 . S
C1253 C1254 1.523 . S
C1254 C1238 1.368 . S
C1254 C1250 1.368 . S
C1254 C1253 1.523 . S
H1255 C1230 0.950 . S
H1256 C1232 0.950 . S
H1257 C1233 0.949 . S
H1258 C1235 0.950 . S
H1259 C1237 0.950 . S
C1260 C1261 1.349 . S
C1260 C1262 1.327 . S
C1260 H1285 0.950 . S
C1261 C1260 1.349 . S
C1261 C1277 1.349 . S
C1262 C1260 1.327 . S
C1262 C1281 1.429 . S
C1262 H1286 0.950 . S
C1263 C1280 1.574 . S
C1263 C1282 1.368 . S
C1263 H1287 0.949 . S
H1264 C1268 0.949 . S
C1265 C1266 1.349 . S
C1265 C1267 1.327 . S
C1265 H1288 0.950 . S
C1266 C1265 1.349 . S
C1266 C1278 1.349 . S
C1267 C1265 1.327 . S
C1267 C1283 1.429 . S
C1267 H1289 0.950 . S
C1268 H1264 0.949 . S
C1268 C1276 1.574 . S
C1268 C1284 1.368 . S
H1269 C1277 0.950 . S
H1270 C1275 0.950 . S
H1271 C1276 0.949 . S
H1272 C1278 0.941 1_545 S
H1273 C1279 0.950 . S
H1274 C1280 0.949 . S
C1275 H1270 0.950 . S
C1275 C1277 1.327 . S
C1275 C1281 1.429 . S
C1276 C1268 1.574 . S
C1276 H1271 0.949 . S
C1276 C1282 1.368 . S
C1277 C1261 1.349 . S
C1277 H1269 0.950 . S
C1277 C1275 1.327 . S
C1278 C1266 1.349 . S
C1278 H1272 0.941 1_565 S
C1278 C1279 1.327 . S
C1279 H1273 0.950 . S
C1279 C1278 1.327 . S
C1279 C1283 1.429 . S
C1280 C1263 1.574 . S
C1280 H1274 0.949 . S
C1280 C1284 1.368 . S
C1281 C1262 1.429 . S
C1281 C1275 1.429 . S
C1281 C1282 1.523 . S
C1282 C1263 1.368 . S
C1282 C1276 1.368 . S
C1282 C1281 1.523 . S
C1283 C1267 1.429 . S
C1283 C1279 1.429 . S
C1283 C1284 1.523 . S
C1284 C1268 1.368 . S
C1284 C1280 1.368 . S
C1284 C1283 1.523 . S
H1285 C1260 0.950 . S
H1286 C1262 0.950 . S
H1287 C1263 0.949 . S
H1288 C1265 0.950 . S
H1289 C1267 0.950 . S
C1290 C1291 1.349 . S
C1290 C1292 1.327 1_565 S
C1290 H1315 0.950 . S
C1291 C1290 1.349 . S
C1291 C1307 1.349 1_565 S
C1292 C1290 1.327 1_545 S
C1292 C1311 1.429 . S
C1292 H1316 0.950 1_545 S
C1293 C1310 1.574 . S
C1293 C1312 1.368 . S
C1293 H1317 0.949 . S
H1294 C1298 0.949 . S
C1295 C1296 1.349 . S
C1295 C1297 1.327 . S
C1295 H1318 0.950 . S
C1296 C1295 1.349 . S
C1296 C1308 1.349 . S
C1297 C1295 1.327 . S
C1297 C1313 1.429 . S
C1297 H1319 0.950 . S
C1298 H1294 0.949 . S
C1298 C1306 1.574 1_455 S
C1298 C1314 1.368 . S
H1299 C1307 0.950 . S
H1300 C1305 0.950 . S
H1301 C1306 0.949 . S
H1302 C1308 0.950 . S
H1303 C1309 0.950 . S
H1304 C1310 0.949 . S
C1305 H1300 0.950 . S
C1305 C1307 1.327 . S
C1305 C1311 1.429 . S
C1306 C1298 1.574 1_655 S
C1306 H1301 0.949 . S
C1306 C1312 1.368 . S
C1307 C1291 1.349 1_545 S
C1307 H1299 0.950 . S
C1307 C1305 1.327 . S
C1308 C1296 1.349 . S
C1308 H1302 0.950 . S
C1308 C1309 1.327 . S
C1309 H1303 0.950 . S
C1309 C1308 1.327 . S
C1309 C1313 1.429 . S
C1310 C1293 1.574 . S
C1310 H1304 0.949 . S
C1310 C1314 1.368 1_655 S
C1311 C1292 1.429 . S
C1311 C1305 1.429 . S
C1311 C1312 1.523 . S
C1312 C1293 1.368 . S
C1312 C1306 1.368 . S
C1312 C1311 1.523 . S
C1313 C1297 1.429 . S
C1313 C1309 1.429 . S
C1313 C1314 1.523 . S
C1314 C1298 1.368 . S
C1314 C1310 1.368 1_455 S
C1314 C1313 1.523 . S
H1315 C1290 0.950 . S
H1316 C1292 0.950 1_565 S
H1317 C1293 0.949 . S
H1318 C1295 0.950 . S
H1319 C1297 0.950 . S
C241 C9 1.477 . S
C246 C226 1.489 . S
C271 C189 1.580 . S
C276 C29 1.590 . S
C301 C46 1.155 . S
C306 C166 1.147 . S
C331 C69 1.398 . S
C336 C206 1.363 . S
C361 C86 1.484 . S
C366 C209 1.515 1_545 S
C391 C109 1.502 1_455 S
C396 C229 1.518 . S
C421 C186 1.537 . S
C426 C129 1.546 . S
C451 C146 1.367 . S
C456 C169 1.390 . S
C481 C66 1.470 . S
C486 C89 1.492 . S
C511 C6 1.225 . S
C516 C106 1.237 . S
C541 C26 1.188 . S
C546 C126 1.169 1_556 S
C571 C149 1.814 . S
C576 C49 1.806 1_554 S
C601 C8 1.429 . S
C606 C176 1.434 . S
C631 C28 1.386 . S
C636 C216 1.382 . S
C661 C236 1.873 . S
C666 C59 1.836 . S
C691 C68 1.660 . S
C696 C181 1.707 . S
C721 C99 1.760 . S
C726 C196 1.821 . S
C751 C161 1.590 . S
C756 C108 1.535 . S
C781 C201 1.530 . S
C786 C128 1.491 . S
C811 C221 1.743 . S
C816 C159 1.653 . S
C841 C16 1.183 . S
C846 C79 1.135 . S
C871 C19 1.324 . S
C876 C36 1.354 . S
C901 C39 1.090 . S
C906 C41 1.137 . S
C931 C76 1.345 . S
C936 C48 1.378 1_554 S
C961 C119 1.588 . S
C966 C81 1.671 . S
C991 C116 1.920 . S
C996 C139 1.838 . S
C1021 C136 1.700 . S
C1026 C148 1.710 . S
C1051 C88 2.065 . S
C1056 C141 2.089 . S
C1081 C168 1.520 . S
C1086 C61 1.582 . S
C1111 C101 1.756 . S
C1116 C188 1.714 . S
C1141 C179 1.198 . S
C1146 C121 1.274 . S
C1171 C219 1.438 . S
C1176 C156 1.504 . S
C1201 C96 1.457 . S
C1206 C239 1.418 . S
C1231 C228 1.596 . S
C1236 C21 1.602 . S
C1261 C56 1.580 . S
C1266 C199 1.545 1_565 S
C1291 C208 1.392 . S
C1296 C1 1.437 . S
