# Generated by pormake.
# Topology snp, (6)-cn, num edge types: 1
# Building blocks:
#     Node 0, Type 0, BuildingBlock: KUMBUR_clean_sbu_0, # of connection points: 6
#     Node 1, Type 0, BuildingBlock: KUMBUR_clean_sbu_0, # of connection points: 6
#     Node 2, Type 0, BuildingBlock: KUMBUR_clean_sbu_0, # of connection points: 6
#     Node 3, Type 0, BuildingBlock: KUMBUR_clean_sbu_0, # of connection points: 6
#     Edge 4, Type (0, 0), BuildingBlock: MIFKUJ_clean_linker_0, # of connection points: 2
#     Edge 5, Type (0, 0), BuildingBlock: MIFKUJ_clean_linker_0, # of connection points: 2
#     Edge 6, Type (0, 0), BuildingBlock: MIFKUJ_clean_linker_0, # of connection points: 2
#     Edge 7, Type (0, 0), BuildingBlock: MIFKUJ_clean_linker_0, # of connection points: 2
#     Edge 8, Type (0, 0), BuildingBlock: MIFKUJ_clean_linker_0, # of connection points: 2
#     Edge 9, Type (0, 0), BuildingBlock: MIFKUJ_clean_linker_0, # of connection points: 2
#     Edge 10, Type (0, 0), BuildingBlock: MIFKUJ_clean_linker_0, # of connection points: 2
#     Edge 11, Type (0, 0), BuildingBlock: MIFKUJ_clean_linker_0, # of connection points: 2
#     Edge 12, Type (0, 0), BuildingBlock: MIFKUJ_clean_linker_0, # of connection points: 2
#     Edge 13, Type (0, 0), BuildingBlock: MIFKUJ_clean_linker_0, # of connection points: 2
#     Edge 14, Type (0, 0), BuildingBlock: MIFKUJ_clean_linker_0, # of connection points: 2
#     Edge 15, Type (0, 0), BuildingBlock: MIFKUJ_clean_linker_0, # of connection points: 2
# Relax obj value: 0.223
# Max RMSD: 0.242
# Mean RMSD: 0.222
data_MOF--net-snp--node1-KUMBUR_clean_sbu_0--edge1-MIFKUJ_clean_linker_0
_symmetry_space_group_name_H-M    P1
_symmetry_Int_Tables_number       1
_symmetry_cell_setting            triclinic
loop_
_symmetry_equiv_pos_as_xyz
'x, y, z'
_cell_length_a     31.570837
_cell_length_b     33.154606
_cell_length_c     41.098201
_cell_angle_alpha  115.02977
_cell_angle_beta   100.56048
_cell_angle_gamma 93.374378
loop_
_atom_site_label
_atom_site_type_symbol
_atom_site_fract_x
_atom_site_fract_y
_atom_site_fract_z
_atom_type_partial_charge
Tb0 Tb 0.35168 0.12076 0.21357 0.0
C1 C 0.42813 0.94705 0.19728 0.0
C2 C 0.39376 0.89023 0.13574 0.0
C3 C 0.46529 0.8845 0.16595 0.0
C4 C 0.39377 0.93079 0.16689 0.0
C5 C 0.46419 0.9239 0.19741 0.0
C6 C 0.42996 0.86752 0.13524 0.0
C7 C 0.49342 0.97802 0.26071 0.0
N8 N 0.4253 0.98487 0.22731 0.0
C9 C 0.45687 0.99967 0.25934 0.0
C10 C 0.49735 0.94026 0.22952 0.0
Tb11 Tb 0.3633 0.01748 0.22196 0.0
N12 N 0.35886 0.95292 0.16901 0.0
C13 C 0.32137 0.93383 0.14228 0.0
C14 C 0.35656 0.87269 0.1068 0.0
C15 C 0.31985 0.89421 0.11041 0.0
H16 H 0.45478 0.02849 0.284 0.0
H17 H 0.29012 0.87992 0.08901 0.0
H18 H 0.43046 0.83623 0.11163 0.0
H19 H 0.51851 0.99045 0.28594 0.0
H20 H 0.29232 0.94874 0.14595 0.0
H21 H 0.49221 0.21411 0.32731 0.0
H22 H 0.3552 0.84166 0.08236 0.0
H23 H 0.25447 0.14815 0.19519 0.0
H24 H 0.45472 0.15502 0.26718 0.0
H25 H 0.20812 0.20107 0.22896 0.0
H26 H 0.49275 0.86629 0.16544 0.0
H27 H 0.45207 0.27068 0.36545 0.0
H28 H 0.38156 0.3009 0.3725 0.0
H29 H 0.5256 0.92346 0.23076 0.0
H30 H 0.30402 0.29702 0.34602 0.0
N31 N 0.39233 0.17703 0.26907 0.0
C32 C 0.43604 0.17937 0.28231 0.0
C33 C 0.43513 0.24488 0.33846 0.0
C34 C 0.39087 0.24316 0.32473 0.0
C35 C 0.45786 0.21305 0.317 0.0
C36 C 0.37039 0.2088 0.28941 0.0
H37 H 0.23893 0.25975 0.2925 0.0
N38 N 0.3092 0.17346 0.24061 0.0
C39 C 0.24174 0.20339 0.24202 0.0
C40 C 0.32714 0.20667 0.27474 0.0
C41 C 0.26788 0.17322 0.22317 0.0
C42 C 0.25912 0.23621 0.27802 0.0
C43 C 0.30264 0.23877 0.29459 0.0
O44 O 0.32703 0.13971 0.17176 0.0
O45 O 0.35473 0.04941 0.18431 0.0
O46 O 0.42469 0.03438 0.21013 0.0
O47 O 0.4172 0.10362 0.209 0.0
O48 O 0.30911 0.07624 0.16035 0.0
O49 O 0.39553 0.15612 0.19864 0.0
O50 O 0.35627 0.01235 0.26999 0.0
O51 O 0.35529 0.08712 0.24779 0.0
O52 O 0.29082 0.09675 0.22296 0.0
O53 O 0.29406 0.02011 0.20221 0.0
O54 O 0.39574 0.06582 0.27888 0.0
O55 O 0.31733 0.96511 0.21706 0.0
C56 C 0.32564 0.03997 0.15503 0.0
C57 C 0.3671 0.20171 0.17116 0.0
C58 C 0.36088 0.24055 0.13202 0.0
C59 C 0.36039 0.20051 0.136 0.0
C60 C 0.3694 0.28201 0.16377 0.0
C61 C 0.37484 0.24324 0.20261 0.0
C62 C 0.37621 0.28325 0.19883 0.0
C63 C 0.43965 0.07043 0.20712 0.0
C64 C 0.36523 0.15893 0.17378 0.0
C65 C 0.3224 0.27236 0.33014 0.0
C66 C 0.36651 0.27459 0.34518 0.0
C67 C 0.37806 0.1 0.27986 0.0
C68 C 0.33334 0.94093 0.26412 0.0
C69 C 0.31407 0.94119 0.29237 0.0
C70 C 0.32307 0.91089 0.30751 0.0
C71 C 0.35104 0.87961 0.29341 0.0
C72 C 0.36081 0.90926 0.2501 0.0
C73 C 0.36945 0.87863 0.26467 0.0
C74 C 0.2716 0.05442 0.20944 0.0
C75 C 0.3271 0.97658 0.25228 0.0
H76 H 0.35408 0.16832 0.11167 0.0
H77 H 0.36991 0.31335 0.1614 0.0
H78 H 0.37977 0.24469 0.22989 0.0
H79 H 0.38225 0.31531 0.22312 0.0
H80 H 0.29308 0.96594 0.30333 0.0
H81 H 0.35828 0.85562 0.30435 0.0
H82 H 0.3759 0.90853 0.22833 0.0
H83 H 0.39081 0.85432 0.25389 0.0
Tb84 Tb 0.08822 0.27542 0.58943 0.0
C85 C 0.26874 0.37148 0.67553 0.0
C86 C 0.31759 0.33278 0.63802 0.0
C87 C 0.3363 0.41312 0.67831 0.0
C88 C 0.27818 0.33263 0.64952 0.0
C89 C 0.29827 0.41193 0.69127 0.0
C90 C 0.34592 0.37356 0.65162 0.0
C91 C 0.25335 0.44484 0.73457 0.0
N92 N 0.23172 0.36862 0.68734 0.0
C93 C 0.2249 0.40393 0.71787 0.0
C94 C 0.28965 0.44919 0.72067 0.0
Tb95 Tb 0.18721 0.29997 0.65876 0.0
N96 N 0.25043 0.29394 0.63795 0.0
C97 C 0.26235 0.25347 0.61742 0.0
C98 C 0.32822 0.2917 0.61464 0.0
C99 C 0.30089 0.25178 0.60492 0.0
H100 H 0.19696 0.40109 0.72886 0.0
H101 H 0.30937 0.21967 0.58771 0.0
H102 H 0.37611 0.37451 0.64279 0.0
H103 H 0.24714 0.47302 0.75806 0.0
H104 H 0.2416 0.22229 0.60966 0.0
H105 H 0.0566 0.44189 0.68445 0.0
H106 H 0.35812 0.2903 0.60507 0.0
H107 H 0.02612 0.17668 0.56308 0.0
H108 H 0.10196 0.38475 0.66192 0.0
H109 H 0.94861 0.14885 0.55161 0.0
H110 H 0.35921 0.44401 0.68968 0.0
H111 H 0.9765 0.42235 0.66482 0.0
H112 H 0.91163 0.36197 0.63293 0.0
H113 H 0.31163 0.48088 0.73367 0.0
H114 H 0.88246 0.28122 0.59888 0.0
N115 N 0.05 0.33275 0.62233 0.0
C116 C 0.06777 0.37542 0.64948 0.0
C117 C 0.99666 0.39708 0.65303 0.0
C118 C 0.97836 0.35241 0.6297 0.0
C119 C 0.04173 0.40825 0.66396 0.0
C120 C 0.00623 0.3207 0.61519 0.0
H121 H 0.89638 0.20161 0.5698 0.0
N122 N 0.01881 0.24644 0.58731 0.0
C123 C 0.96012 0.18459 0.56495 0.0
C124 C 0.99008 0.27569 0.59713 0.0
C125 C 0.00424 0.20099 0.57157 0.0
C126 C 0.93049 0.2145 0.57484 0.0
C127 C 0.94533 0.26067 0.59153 0.0
O128 O 0.07599 0.21371 0.54237 0.0
O129 O 0.15714 0.26956 0.60038 0.0
O130 O 0.18236 0.35834 0.64565 0.0
O131 O 0.11667 0.34298 0.60096 0.0
O132 O 0.13389 0.28842 0.55964 0.0
O133 O 0.05052 0.271 0.53926 0.0
O134 O 0.19031 0.30607 0.71244 0.0
O135 O 0.11653 0.28419 0.64368 0.0
O136 O 0.09688 0.21915 0.60341 0.0
O137 O 0.17113 0.22627 0.62703 0.0
O138 O 0.1436 0.33252 0.69516 0.0
O139 O 0.22722 0.26212 0.67802 0.0
C140 C 0.16796 0.27924 0.57605 0.0
C141 C 0.06896 0.21646 0.48507 0.0
C142 C 0.05604 0.20928 0.42207 0.0
C143 C 0.04378 0.22323 0.45615 0.0
C144 C 0.09349 0.18859 0.41728 0.0
C145 C 0.10536 0.19419 0.47879 0.0
C146 C 0.11766 0.18075 0.44535 0.0
C147 C 0.15402 0.36865 0.62307 0.0
C148 C 0.05572 0.22926 0.52063 0.0
C149 C 0.91695 0.29213 0.60333 0.0
C150 C 0.93349 0.33805 0.62248 0.0
C151 C 0.10712 0.30972 0.67327 0.0
C152 C 0.25667 0.29559 0.74236 0.0
C153 C 0.25931 0.27817 0.76843 0.0
C154 C 0.29391 0.29554 0.80026 0.0
C155 C 0.32551 0.33083 0.80526 0.0
C156 C 0.28943 0.32956 0.74761 0.0
C157 C 0.32347 0.34719 0.77894 0.0
C158 C 0.13173 0.20231 0.61252 0.0
C159 C 0.21895 0.2792 0.71055 0.0
H160 H 0.01475 0.23891 0.46001 0.0
H161 H 0.10334 0.17718 0.39129 0.0
H162 H 0.12389 0.18618 0.49946 0.0
H163 H 0.14581 0.1637 0.44104 0.0
H164 H 0.23457 0.25098 0.76363 0.0
H165 H 0.35172 0.34647 0.82978 0.0
H166 H 0.28866 0.34275 0.7277 0.0
H167 H 0.3482 0.37401 0.78304 0.0
Tb168 Tb 0.83277 0.09089 0.9814 0.0
C169 C 0.90773 0.91511 0.97463 0.0
C170 C 0.83981 0.86364 0.95333 0.0
C171 C 0.90543 0.82693 0.9473 0.0
C172 C 0.86326 0.90805 0.96987 0.0
C173 C 0.93249 0.8675 0.96006 0.0
C174 C 0.86061 0.82517 0.94402 0.0
C175 C 0.02102 0.91326 0.97113 0.0
N176 N 0.92944 0.96559 0.98911 0.0
C177 C 0.97914 0.98219 0.99254 0.0
C178 C 0.98579 0.86515 0.958 0.0
Tb179 Tb 0.88328 0.0155 1.01484 0.0
N180 N 0.84206 0.9446 0.97823 0.0
C181 C 0.79755 0.938 0.96651 0.0
C182 C 0.79425 0.85805 0.94489 0.0
C183 C 0.77316 0.89516 0.95049 0.0
H184 H 0.99074 0.01816 1.00531 0.0
H185 H 0.73799 0.89077 0.94207 0.0
H186 H 0.84116 0.79212 0.93236 0.0
H187 H 0.05518 0.91043 0.97022 0.0
H188 H 0.77997 0.96522 0.96813 0.0
H189 H 0.89409 0.25586 0.09419 0.0
H190 H 0.77493 0.82484 0.93224 0.0
H191 H 0.73443 0.04747 0.9262 0.0
H192 H 0.89964 0.18226 0.04505 0.0
H193 H 0.66001 0.06683 0.92342 0.0
H194 H 0.91893 0.79577 0.93825 0.0
H195 H 0.82159 0.27785 0.10166 0.0
H196 H 0.73999 0.26001 0.0775 0.0
H197 H 0.99752 0.83304 0.94819 0.0
H198 H 0.67618 0.20895 0.03031 0.0
N199 N 0.83105 0.16107 0.02648 0.0
C200 C 0.86779 0.1909 0.04846 0.0
C201 C 0.82386 0.24521 0.08033 0.0
C202 C 0.7864 0.21597 0.05579 0.0
C203 C 0.8648 0.23292 0.07619 0.0
C204 C 0.79129 0.17386 0.02868 0.0
H205 H 0.64615 0.13722 0.97208 0.0
N206 N 0.76262 0.10622 0.97606 0.0
C207 C 0.68665 0.08924 0.94583 0.0
C208 C 0.75573 0.14562 1.00218 0.0
C209 C 0.72895 0.07842 0.94745 0.0
C210 C 0.67893 0.12899 0.97336 0.0
C211 C 0.71377 0.15796 1.0019 0.0
O212 O 0.81748 0.08864 0.92837 0.0
O213 O 0.85517 0.02786 0.96983 0.0
O214 O 0.92336 0.03656 0.98449 0.0
O215 O 0.90412 0.10687 0.99564 0.0
O216 O 0.80842 0.02715 0.93039 0.0
O217 O 0.87075 0.13611 0.97073 0.0
O218 O 0.9305 0.03326 0.06276 0.0
O219 O 0.86074 0.08025 0.02942 0.0
O220 O 0.78369 0.0687 1.00427 0.0
O221 O 0.81775 0.02113 0.02663 0.0
O222 O 0.9213 0.07924 0.0562 0.0
O223 O 0.87297 0.98674 0.05141 0.0
C224 C 0.83383 1.0019 0.93801 0.0
C225 C 0.83898 0.15594 0.92411 0.0
C226 C 0.85631 0.19796 0.89017 0.0
C227 C 0.86265 0.16271 0.90037 0.0
C228 C 0.82531 0.22565 0.90359 0.0
C229 C 0.80825 0.18394 0.93701 0.0
C230 C 0.80137 0.21847 0.92662 0.0
C231 C 0.93241 0.07828 0.98841 0.0
C232 C 0.84876 0.12134 0.9368 0.0
C233 C 0.70822 0.19899 0.02975 0.0
C234 C 0.74452 0.228 0.05666 0.0
C235 C 0.89219 0.10488 0.05622 0.0
C236 C 0.93652 0.99309 0.09903 0.0
C237 C 0.91893 0.97797 0.1221 0.0
C238 C 0.94707 0.97013 0.14938 0.0
C239 C 0.99217 0.97479 0.15146 0.0
C240 C 0.9821 1.00075 0.10446 0.0
C241 C 0.00945 0.99023 0.12937 0.0
C242 C 0.78411 0.04162 0.02063 0.0
C243 C 0.90935 0.00996 0.07508 0.0
H244 H 0.88687 0.14145 0.89078 0.0
H245 H 0.81939 0.25278 0.89606 0.0
H246 H 0.78997 0.17941 0.95538 0.0
H247 H 0.77764 0.24006 0.93672 0.0
H248 H 0.88415 0.97507 0.12042 0.0
H249 H 0.01445 0.9679 0.17124 0.0
H250 H 0.99699 0.01691 0.09052 0.0
H251 H 0.04443 0.99573 0.13259 0.0
Tb252 Tb 0.01688 0.80248 0.56146 0.0
C253 C 0.17763 0.94859 0.62326 0.0
C254 C 0.2387 0.9107 0.60575 0.0
C255 C 0.24183 0.98962 0.61954 0.0
C256 C 0.19673 0.90997 0.61331 0.0
C257 C 0.19987 0.98874 0.62617 0.0
C258 C 0.26127 0.95072 0.6095 0.0
C259 C 0.13802 0.02505 0.64257 0.0
N260 N 0.13676 0.94658 0.62895 0.0
C261 C 0.11751 0.98487 0.63981 0.0
C262 C 0.17936 0.02699 0.63562 0.0
Tb263 Tb 0.10811 0.88098 0.62904 0.0
N264 N 0.17329 0.87127 0.60873 0.0
C265 C 0.18959 0.83152 0.59291 0.0
C266 C 0.25646 0.87092 0.59349 0.0
C267 C 0.23131 0.831 0.58611 0.0
H268 H 0.08618 0.98503 0.64684 0.0
H269 H 0.24373 0.79942 0.57452 0.0
H270 H 0.29344 0.95165 0.60387 0.0
H271 H 0.12218 0.05474 0.65062 0.0
H272 H 0.17118 0.799 0.58372 0.0
H273 H 0.89056 0.81184 0.63709 0.0
H274 H 0.2888 0.87042 0.58813 0.0
H275 H 0.0331 0.71017 0.49031 0.0
H276 H 0.93705 0.83907 0.60688 0.0
H277 H 0.02489 0.62873 0.47113 0.0
H278 H 0.25936 0.02013 0.6218 0.0
H279 H 0.88988 0.73458 0.63157 0.0
H280 H 0.91311 0.65857 0.60164 0.0
H281 H 0.19533 0.05828 0.63799 0.0
H282 H 0.94987 0.60807 0.5558 0.0
N283 N 0.96649 0.77935 0.58659 0.0
C284 C 0.93852 0.8057 0.60469 0.0
C285 C 0.91114 0.74661 0.61858 0.0
C286 C 0.93628 0.71821 0.59679 0.0
C287 C 0.91136 0.79016 0.62166 0.0
C288 C 0.96344 0.73567 0.58059 0.0
H289 H 0.99058 0.59636 0.50603 0.0
N290 N 0.00601 0.72511 0.53743 0.0
C291 C 0.01371 0.65054 0.49508 0.0
C292 C 0.98371 0.70733 0.55477 0.0
C293 C 0.01861 0.69707 0.50635 0.0
C294 C 0.99441 0.6324 0.51488 0.0
C295 C 0.97796 0.6607 0.5445 0.0
O296 O 0.00347 0.82948 0.52289 0.0
O297 O 0.07597 0.84724 0.57184 0.0
O298 O 0.0606 0.90881 0.6003 0.0
O299 O 1.00076 0.86621 0.59782 0.0
O300 O 0.06428 0.78614 0.5266 0.0
O301 O 0.95442 0.78537 0.5257 0.0
O302 O 0.09024 0.93131 0.67381 0.0
O303 O 0.04342 0.84556 0.61961 0.0
O304 O 0.06394 0.76249 0.57507 0.0
O305 O 0.1238 0.8144 0.62051 0.0
O306 O 0.09018 0.84561 0.66052 0.0
O307 O 0.15467 0.91284 0.67992 0.0
C308 C 0.09128 0.82308 0.54495 0.0
C309 C 0.9518 0.78554 0.46738 0.0
C310 C 0.93265 0.79064 0.40857 0.0
C311 C 0.94524 0.8116 0.44759 0.0
C312 C 0.92758 0.7433 0.38992 0.0
C313 C 0.94611 0.73845 0.44785 0.0
C314 C 0.93423 0.7176 0.4094 0.0
C315 C 0.01806 0.90263 0.59731 0.0
C316 C 0.96436 0.80792 0.50824 0.0
C317 C 0.95405 0.64368 0.56282 0.0
C318 C 0.93316 0.67244 0.58895 0.0
C319 C 0.04924 0.83305 0.64499 0.0
C320 C 0.12526 0.942 0.73397 0.0
C321 C 0.16186 0.93905 0.75815 0.0
C322 C 0.16003 0.94778 0.79454 0.0
C323 C 0.12152 0.95879 0.80636 0.0
C324 C 0.08757 0.95436 0.74712 0.0
C325 C 0.08561 0.9621 0.78281 0.0
C326 C 0.10274 0.77285 0.59822 0.0
C327 C 0.12729 0.93731 0.69668 0.0
H328 H 0.94929 0.84799 0.46259 0.0
H329 H 0.91894 0.72597 0.36005 0.0
H330 H 0.95073 0.71769 0.46225 0.0
H331 H 0.93016 0.68125 0.39458 0.0
H332 H 0.19184 0.93131 0.74918 0.0
H333 H 0.11954 0.96562 0.83419 0.0
H334 H 0.05971 0.95909 0.73012 0.0
H335 H 0.05631 0.97138 0.79245 0.0
H336 H 0.99139 0.06464 0.94425 0.0
H337 H 0.06943 0.0651 0.9676 0.0
H338 H 0.05056 0.12136 0.07854 0.0
H339 H 0.97849 0.13418 0.0565 0.0
H340 H 0.13837 0.134 0.06258 0.0
H341 H 0.04192 0.97138 0.06178 0.0
H342 H 0.96373 0.91577 0.02535 0.0
H343 H 0.99684 0.95087 0.90806 0.0
H344 H 0.0685 0.99676 0.96043 0.0
H345 H 0.20672 0.10792 0.22263 0.0
H346 H 0.1556 0.11114 0.17161 0.0
H347 H 0.18449 0.98366 0.09683 0.0
H348 H 0.22965 0.97784 0.14859 0.0
H349 H 0.11539 0.98848 0.0685 0.0
H350 H 0.24338 0.12639 0.108 0.0
H351 H 0.28103 0.2041 0.14855 0.0
H352 H 0.16463 0.2425 0.18473 0.0
H353 H 0.12569 0.16564 0.14378 0.0
C354 C 0.00514 0.07988 0.97371 0.0
C355 C 0.97854 0.0967 0.99881 0.0
C356 C 0.04883 0.07809 0.98686 0.0
C357 C 0.06293 0.08665 0.02394 0.0
C358 C 0.03891 0.1111 0.04926 0.0
C359 C 0.99757 0.11817 0.03663 0.0
C360 C 0.10009 0.06855 0.03767 0.0
C361 C 0.13422 0.10162 0.0633 0.0
C362 C 0.09411 0.02594 0.03844 0.0
C363 C 0.05707 0.98947 1.01329 0.0
C364 C 0.02894 0.96488 0.03359 0.0
C365 C 0.9804 0.92996 1.01057 0.0
C366 C 0.96037 0.92115 0.9417 0.0
C367 C 0.99969 0.95173 0.93498 0.0
C368 C 0.04396 0.98207 0.96883 0.0
C369 C 0.20094 0.08008 0.19535 0.0
C370 C 0.22594 0.04497 0.18843 0.0
C371 C 0.17291 0.08266 0.16592 0.0
C372 C 0.17011 0.05029 0.12951 0.0
C373 C 0.18797 0.01074 0.12421 0.0
C374 C 0.21411 1.00738 0.15391 0.0
C375 C 0.14883 0.05679 0.09698 0.0
C376 C 0.12014 0.02046 0.06741 0.0
C377 C 0.15643 0.09774 0.09424 0.0
C378 C 0.18229 0.13983 0.12419 0.0
C379 C 0.22627 0.15103 0.12551 0.0
C380 C 0.24768 0.19505 0.14814 0.0
C381 C 0.22568 0.22792 0.16961 0.0
C382 C 0.18188 0.21698 0.16839 0.0
C383 C 0.16016 0.17323 0.14562 0.0
H384 H 0.24251 0.2619 0.187 0.0
H385 H 0.93269 0.90201 0.91839 0.0
H386 H 0.93459 0.91246 0.603 0.0
H387 H 0.88965 0.95953 0.58375 0.0
H388 H 0.99023 0.98584 0.53327 0.0
H389 H 0.03461 0.94068 0.55346 0.0
H390 H 0.92072 0.04096 0.62259 0.0
H391 H 0.97765 0.02604 0.48691 0.0
H392 H 0.94437 0.98732 0.42061 0.0
H393 H 0.81916 0.9684 0.4431 0.0
H394 H 0.85134 1.00789 0.50989 0.0
H395 H 0.12225 0.11511 0.56158 0.0
H396 H 0.05708 0.06588 0.55377 0.0
H397 H 0.04581 0.15753 0.66324 0.0
H398 H 0.11457 0.2004 0.67278 0.0
H399 H 0.98736 0.08767 0.54231 0.0
H400 H 0.95744 0.14242 0.68271 0.0
H401 H 0.9924 0.15996 0.74712 0.0
H402 H 0.07487 0.05953 0.70844 0.0
H403 H 0.0397 0.04121 0.64385 0.0
C404 C 0.94643 0.92799 0.58724 0.0
C405 C 0.989 0.92582 0.58171 0.0
C406 C 0.92021 0.95384 0.57537 0.0
C407 C 0.93679 0.9783 0.55846 0.0
C408 C 0.97639 0.96906 0.54731 0.0
C409 C 1.00276 0.94409 0.55976 0.0
C410 C 0.92488 0.02382 0.56672 0.0
C411 C 0.93522 0.05155 0.60493 0.0
C412 C 0.93627 0.04334 0.54443 0.0
C413 C 0.91693 0.02096 0.50392 0.0
C414 C 0.94284 0.0147 0.47809 0.0
C415 C 0.92418 0.99218 0.44022 0.0
C416 C 0.87965 0.97556 0.42763 0.0
C417 C 0.85366 0.98139 0.45289 0.0
C418 C 0.87212 1.00383 0.4908 0.0
C419 C 0.10778 0.12196 0.58499 0.0
C420 C 0.12198 0.16213 0.61723 0.0
C421 C 0.06937 0.09502 0.58012 0.0
C422 C 0.04419 0.10922 0.60691 0.0
C423 C 0.06327 0.14499 0.64164 0.0
C424 C 0.10344 0.16962 0.64736 0.0
C425 C 0.99734 0.08923 0.5964 0.0
C426 C 0.97395 0.07595 0.55975 0.0
C427 C 0.97551 0.07987 0.62028 0.0
C428 C 0.99646 0.09087 0.65881 0.0
C429 C 0.98284 0.12405 0.68811 0.0
C430 C 1.00274 0.13421 0.72456 0.0
C431 C 0.03601 0.1111 0.73188 0.0
C432 C 0.04929 0.0776 0.70276 0.0
C433 C 0.02947 0.06737 0.66629 0.0
H434 H 0.05139 0.11904 0.76011 0.0
H435 H 0.8653 0.958 0.39831 0.0
H436 H 0.70762 0.07561 1.01452 0.0
H437 H 0.65018 0.07583 0.04683 0.0
H438 H 0.71757 0.99717 0.09442 0.0
H439 H 0.77509 0.99625 0.06184 0.0
H440 H 0.62547 0.97323 0.07408 0.0
H441 H 0.73529 0.10543 0.14116 0.0
H442 H 0.78096 0.16898 0.14213 0.0
H443 H 0.66669 0.22525 0.11919 0.0
H444 H 0.62007 0.16105 0.11662 0.0
H445 H 0.50594 0.02178 0.21244 0.0
H446 H 0.56918 0.01607 0.18497 0.0
H447 H 0.52843 0.11263 0.14557 0.0
H448 H 0.46672 0.11983 0.17405 0.0
H449 H 0.61205 0.12629 0.1647 0.0
H450 H 0.5016 0.99549 0.09565 0.0
H451 H 0.45373 0.92706 0.08399 0.0
H452 H 0.56559 0.86567 0.10318 0.0
H453 H 0.61422 0.93467 0.11707 0.0
C454 C 0.71007 0.05782 0.03137 0.0
C455 C 0.74643 0.03668 0.03605 0.0
C456 C 0.67711 0.05788 0.04977 0.0
C457 C 0.68015 0.03715 0.07343 0.0
C458 C 0.71482 0.01348 0.07634 0.0
C459 C 0.74777 0.01325 0.05781 0.0
C460 C 0.64953 0.04399 0.09784 0.0
C461 C 0.62281 1.00651 0.09435 0.0
C462 C 0.64601 0.08765 0.12373 0.0
C463 C 0.67412 0.12824 0.12849 0.0
C464 C 0.71984 0.13128 0.13623 0.0
C465 C 0.74589 0.16723 0.13678 0.0
C466 C 0.72674 0.20107 0.13067 0.0
C467 C 0.68146 0.19901 0.12395 0.0
C468 C 0.65518 0.16276 0.12284 0.0
C469 C 0.51093 0.04233 0.1985 0.0
C470 C 0.48108 0.071 0.1953 0.0
C471 C 0.54699 0.03894 0.18267 0.0
C472 C 0.55308 0.06324 0.16252 0.0
C473 C 0.52451 0.09352 0.16094 0.0
C474 C 0.48906 0.09754 0.1773 0.0
C475 C 0.58716 0.05533 0.1409 0.0
C476 C 0.61479 0.09278 0.14488 0.0
C477 C 0.59113 0.01154 0.11512 0.0
C478 C 0.56164 0.97053 0.10778 0.0
C479 C 0.51606 0.96773 0.09799 0.0
C480 C 0.48876 0.92879 0.09094 0.0
C481 C 0.50666 0.89189 0.09239 0.0
C482 C 0.55182 0.89424 0.10189 0.0
C483 C 0.57925 0.93336 0.10962 0.0
H484 H 0.48558 0.86134 0.08597 0.0
H485 H 0.74703 0.22902 0.13136 0.0
H486 H 0.13873 0.38608 0.5638 0.0
H487 H 0.14496 0.45978 0.56365 0.0
H488 H 0.19465 0.52367 0.68178 0.0
H489 H 0.18675 0.44993 0.68201 0.0
H490 H 0.12856 0.56207 0.66039 0.0
H491 H 0.26179 0.52084 0.62584 0.0
H492 H 0.30766 0.46992 0.59008 0.0
H493 H 0.23471 0.46841 0.49042 0.0
H494 H 0.18788 0.5187 0.52548 0.0
H495 H 0.15401 0.77386 0.65948 0.0
H496 H 0.17899 0.70909 0.66688 0.0
H497 H 0.12137 0.62305 0.55186 0.0
H498 H 0.09733 0.68791 0.54419 0.0
H499 H 0.20182 0.60124 0.57823 0.0
H500 H 0.06309 0.63167 0.61008 0.0
H501 H 0.01515 0.68162 0.64381 0.0
H502 H 0.09638 0.70144 0.74692 0.0
H503 H 0.14547 0.65236 0.71381 0.0
C504 C 0.15155 0.41586 0.58964 0.0
C505 C 0.16308 0.41246 0.62291 0.0
C506 C 0.15534 0.45784 0.58951 0.0
C507 C 0.17084 0.49708 0.62266 0.0
C508 C 0.18308 0.49369 0.65588 0.0
C509 C 0.17927 0.45158 0.65597 0.0
C510 C 0.17111 0.54162 0.62263 0.0
C511 C 0.14546 0.57115 0.64315 0.0
C512 C 0.19236 0.5528 0.59942 0.0
C513 C 0.22119 0.52345 0.57831 0.0
C514 C 0.25539 0.5095 0.59628 0.0
C515 C 0.28156 0.48073 0.57612 0.0
C516 C 0.27409 0.46591 0.538 0.0
C517 C 0.24049 0.47993 0.51996 0.0
C518 C 0.21415 0.50864 0.53997 0.0
C519 C 0.14751 0.7413 0.63562 0.0
C520 C 0.12276 0.73543 0.60142 0.0
C521 C 0.16174 0.70444 0.6399 0.0
C522 C 0.15148 0.66139 0.61001 0.0
C523 C 0.12942 0.65606 0.57525 0.0
C524 C 0.11508 0.69288 0.57102 0.0
C525 C 0.15915 0.62125 0.61576 0.0
C526 C 0.18589 0.59252 0.59614 0.0
C527 C 0.13868 0.61057 0.63959 0.0
C528 C 0.10828 0.63875 0.65949 0.0
C529 C 0.07092 0.64688 0.63995 0.0
C530 C 0.04352 0.67505 0.65895 0.0
C531 C 0.05278 0.69482 0.69748 0.0
C532 C 0.08933 0.68623 0.71708 0.0
C533 C 0.11697 0.65824 0.69821 0.0
H534 H 0.03159 0.71672 0.71214 0.0
H535 H 0.2944 0.44362 0.52246 0.0
H536 H 0.2283 0.3348 0.56922 0.0
H537 H 0.27779 0.31255 0.52722 0.0
H538 H 0.2334 0.17258 0.49597 0.0
H539 H 0.18806 0.19541 0.5411 0.0
H540 H 0.30849 0.1753 0.48885 0.0
H541 H 0.18925 0.23747 0.44849 0.0
H542 H 0.14086 0.29417 0.4517 0.0
H543 H 0.24806 0.38448 0.45702 0.0
H544 H 0.29716 0.32862 0.45482 0.0
H545 H 0.29805 0.12657 0.28772 0.0
H546 H 0.27427 0.16527 0.34421 0.0
H547 H 0.4033 0.17687 0.40753 0.0
H548 H 0.42773 0.13823 0.35003 0.0
H549 H 0.29293 0.2436 0.40152 0.0
H550 H 0.39249 0.15867 0.48166 0.0
H551 H 0.4208 0.08702 0.46951 0.0
H552 H 0.32334 0.01983 0.36818 0.0
H553 H 0.29458 0.09099 0.37962 0.0
C554 C 0.23055 0.29942 0.55428 0.0
C555 C 0.20461 0.26673 0.55824 0.0
C556 C 0.25826 0.2866 0.52984 0.0
C557 C 0.25841 0.24073 0.50723 0.0
C558 C 0.23401 0.20819 0.51275 0.0
C559 C 0.20773 0.22114 0.53831 0.0
C560 C 0.28103 0.22635 0.47604 0.0
C561 C 0.30537 0.1907 0.47008 0.0
C562 C 0.27618 0.24525 0.45057 0.0
C563 C 0.24692 0.27912 0.45209 0.0
C564 C 0.20247 0.2696 0.45074 0.0
C565 C 0.17496 0.30161 0.45241 0.0
C566 C 0.19146 0.3431 0.45488 0.0
C567 C 0.23541 0.35252 0.45548 0.0
C568 C 0.2631 0.3207 0.45407 0.0
C569 C 0.322 0.13853 0.31329 0.0
C570 C 0.36519 0.13007 0.31407 0.0
C571 C 0.30814 0.16053 0.3459 0.0
C572 C 0.3368 0.17376 0.38026 0.0
C573 C 0.3804 0.16662 0.38135 0.0
C574 C 0.3944 0.14482 0.34852 0.0
C575 C 0.31994 0.1926 0.41445 0.0
C576 C 0.29678 0.22906 0.42091 0.0
C577 C 0.32353 0.17267 0.43906 0.0
C578 C 0.34193 0.1303 0.43123 0.0
C579 C 0.37735 0.12864 0.45666 0.0
C580 C 0.39343 0.08811 0.44989 0.0
C581 C 0.37404 0.04894 0.41795 0.0
C582 C 0.33858 0.05025 0.39268 0.0
C583 C 0.32252 0.09071 0.39922 0.0
H584 H 0.38635 0.01753 0.41284 0.0
H585 H 0.17015 0.36788 0.45614 0.0
H586 H 0.08435 0.36552 0.73572 0.0
H587 H 0.03581 0.34534 0.76835 0.0
H588 H 0.99715 0.21294 0.67727 0.0
H589 H 0.04626 0.23271 0.6452 0.0
H590 H 0.93007 0.23817 0.70994 0.0
H591 H 0.07869 0.22891 0.74811 0.0
H592 H 0.1574 0.25746 0.76721 0.0
H593 H 0.13918 0.3646 0.86654 0.0
H594 H 0.06003 0.33727 0.84756 0.0
H595 H 0.8719 0.13775 0.82439 0.0
H596 H 0.91082 0.15429 0.78369 0.0
H597 H 0.93847 0.29474 0.86162 0.0
H598 H 0.89942 0.27855 0.90204 0.0
H599 H 0.01151 0.25897 0.83278 0.0
H600 H 0.85884 0.26444 0.78955 0.0
H601 H 0.7809 0.23195 0.76672 0.0
H602 H 0.80949 0.1226 0.67397 0.0
H603 H 0.88762 0.15416 0.69653 0.0
C604 C 0.06471 0.33244 0.72222 0.0
C605 C 0.06948 0.30069 0.68772 0.0
C606 C 0.03707 0.32084 0.74099 0.0
C607 C 0.01378 0.27702 0.72582 0.0
C608 C 0.01525 0.24669 0.68988 0.0
C609 C 0.04316 0.25827 0.67123 0.0
C610 C 0.99223 0.26161 0.74899 0.0
C611 C 0.94801 0.24238 0.73662 0.0
C612 C 0.01558 0.26625 0.78365 0.0
C613 C 0.06339 0.28132 0.79626 0.0
C614 C 0.09145 0.25863 0.774 0.0
C615 C 0.13614 0.27465 0.78477 0.0
C616 C 0.15329 0.31295 0.81802 0.0
C617 C 0.12582 0.33501 0.84074 0.0
C618 C 0.08102 0.31928 0.83 0.0
C619 C 0.88661 0.17206 0.83293 0.0
C620 C 0.8823 0.20689 0.86634 0.0
C621 C 0.90865 0.18151 0.80959 0.0
C622 C 0.92732 0.22586 0.81946 0.0
C623 C 0.92429 0.26033 0.85335 0.0
C624 C 0.90175 0.25105 0.87635 0.0
C625 C 0.94907 0.2369 0.79426 0.0
C626 C 0.99356 0.25489 0.80613 0.0
C627 C 0.92618 0.23004 0.75883 0.0
C628 C 0.87913 0.21146 0.74489 0.0
C629 C 0.84852 0.23332 0.7644 0.0
C630 C 0.8043 0.21509 0.7515 0.0
C631 C 0.79025 0.17518 0.71896 0.0
C632 C 0.8204 0.1535 0.69919 0.0
C633 C 0.86467 0.17157 0.712 0.0
H634 H 0.756 0.16109 0.70903 0.0
H635 H 0.18784 0.32558 0.82618 0.0
H636 H 0.86729 0.77176 0.34797 0.0
H637 H 0.86016 0.80804 0.30693 0.0
H638 H 0.97303 0.90607 0.37799 0.0
H639 H 0.98055 0.86958 0.41936 0.0
H640 H 0.90981 0.9442 0.34929 0.0
H641 H 0.98334 0.81565 0.30201 0.0
H642 H 0.99187 0.73578 0.28187 0.0
H643 H 0.87384 0.69606 0.19764 0.0
H644 H 0.86428 0.77574 0.21765 0.0
H645 H 0.97984 0.01162 0.22354 0.0
H646 H 0.96709 0.98648 0.269 0.0
H647 H 0.86651 0.88052 0.1861 0.0
H648 H 0.88092 0.9047 0.13964 0.0
H649 H 0.91726 0.84622 0.22056 0.0
H650 H 0.84735 0.97632 0.2642 0.0
H651 H 0.83826 0.05618 0.28558 0.0
H652 H 0.94801 0.09383 0.37703 0.0
H653 H 0.9582 0.0143 0.35593 0.0
C654 C 0.89063 0.80111 0.35503 0.0
C655 C 0.9251 0.81707 0.38667 0.0
C656 C 0.8864 0.82194 0.33151 0.0
C657 C 0.91662 0.85923 0.33877 0.0
C658 C 0.94945 0.87714 0.37156 0.0
C659 C 0.95368 0.85627 0.39527 0.0
C660 C 0.91543 0.87739 0.31094 0.0
C661 C 0.91183 0.92295 0.32123 0.0
C662 C 0.91689 0.84947 0.27395 0.0
C663 C 0.92288 0.8016 0.26154 0.0
C664 C 0.95906 0.78986 0.27934 0.0
C665 C 0.9641 0.74463 0.26794 0.0
C666 C 0.93336 0.71086 0.23855 0.0
C667 C 0.89759 0.72226 0.22043 0.0
C668 C 0.89236 0.76745 0.23177 0.0
C669 C 0.9545 0.98329 0.21499 0.0
C670 C 0.9317 0.95985 0.17777 0.0
C671 C 0.9469 0.96914 0.24126 0.0
C672 C 0.91553 0.93165 0.23142 0.0
C673 C 0.89096 0.90954 0.19459 0.0
C674 C 0.89885 0.92359 0.16805 0.0
C675 C 0.91162 0.91339 0.25872 0.0
C676 C 0.91457 0.86764 0.24841 0.0
C677 C 0.90952 0.94127 0.29568 0.0
C678 C 0.90373 0.98927 0.30827 0.0
C679 C 0.86981 1.00164 0.28868 0.0
C680 C 0.86442 0.04687 0.30079 0.0
C681 C 0.89256 0.08005 0.33262 0.0
C682 C 0.92623 0.0681 0.35237 0.0
C683 C 0.9318 0.02294 0.34036 0.0
H684 H 0.88812 0.11499 0.34208 0.0
H685 H 0.9373 0.67586 0.22978 0.0
H686 H 0.18628 0.87691 0.80593 0.0
H687 H 0.23245 0.8822 0.86309 0.0
H688 H 0.26371 0.02577 0.90309 0.0
H689 H 0.21666 0.02067 0.8465 0.0
H690 H 0.33386 0.95218 0.92033 0.0
H691 H 0.19688 0.0339 0.94415 0.0
H692 H 0.11979 0.02761 0.91412 0.0
H693 H 0.09848 0.88775 0.89006 0.0
H694 H 0.17548 0.89337 0.91992 0.0
H695 H 0.38619 0.05 0.11869 0.0
H696 H 0.37225 0.02559 0.05212 0.0
H697 H 0.25395 0.94104 0.03718 0.0
H698 H 0.26467 0.97081 0.10297 0.0
H699 H 0.23089 0.97998 1.00267 0.0
H700 H 0.35422 0.90121 0.99764 0.0
H701 H 0.42991 0.8893 1.01444 0.0
H702 H 0.47712 0.99838 0.99382 0.0
H703 H 0.40153 0.01031 0.97614 0.0
C704 C 0.20441 0.90926 0.82632 0.0
C705 C 0.19812 0.94838 0.82189 0.0
C706 C 0.23097 0.91223 0.85884 0.0
C707 C 0.25187 0.95433 0.88718 0.0
C708 C 0.24856 0.99289 0.88132 0.0
C709 C 0.22168 0.98997 0.84902 0.0
C710 C 0.26785 0.95961 0.92529 0.0
C711 C 0.3117 0.95837 0.93863 0.0
C712 C 0.23862 0.96612 0.94854 0.0
C713 C 0.19158 0.96415 0.93442 0.0
C714 C 0.17551 1.00204 0.93288 0.0
C715 C 0.13199 0.9985 0.91568 0.0
C716 C 0.10437 0.95722 0.89998 0.0
C717 C 0.11996 0.91963 0.90211 0.0
C718 C 0.16345 0.92302 0.91927 0.0
C719 C 0.35826 0.02463 0.10093 0.0
C720 C 0.3276 0.01078 0.11648 0.0
C721 C 0.35011 0.01062 0.06258 0.0
C722 C 0.31183 0.98103 0.03878 0.0
C723 C 0.28346 0.96426 0.05433 0.0
C724 C 0.29031 0.98036 0.09247 0.0
C725 C 0.29787 0.97203 0.99898 0.0
C726 C 0.25384 0.97318 0.98503 0.0
C727 C 0.32688 0.96346 0.97491 0.0
C728 C 0.37232 0.95688 0.9859 0.0
C729 C 0.38078 0.92279 0.99687 0.0
C730 C 0.42364 0.91594 1.00643 0.0
C731 C 0.45835 0.94329 1.00547 0.0
C732 C 0.45021 0.97727 0.99461 0.0
C733 C 0.40736 0.9839 0.98458 0.0
H734 H 0.49152 0.93804 1.01302 0.0
H735 H 0.07083 0.95443 0.88632 0.0
H736 H 0.89786 0.02945 0.91393 0.0
H737 H 0.92955 0.98528 0.86261 0.0
H738 H 0.84728 0.86513 0.84314 0.0
H739 H 0.81544 0.90971 0.89535 0.0
H740 H 0.95176 0.86753 0.83923 0.0
H741 H 0.80702 0.89562 0.79037 0.0
H742 H 0.75425 0.94858 0.79408 0.0
H743 H 0.84808 0.03672 0.7813 0.0
H744 H 0.90154 0.98453 0.77796 0.0
H745 H 0.02445 0.77411 0.6711 0.0
H746 H 0.9795 0.78679 0.71644 0.0
H747 H 0.96671 0.91858 0.72196 0.0
H748 H 0.00661 0.90328 0.67392 0.0
H749 H 0.89902 0.89519 0.73021 0.0
H750 H 0.04397 0.89082 0.7912 0.0
H751 H 0.11052 0.85764 0.79967 0.0
H752 H 0.03475 0.74653 0.80077 0.0
H753 H 0.9677 0.77931 0.79221 0.0
C754 C 0.88772 0.99336 0.89975 0.0
C755 C 0.85537 0.97274 0.90953 0.0
C756 C 0.90559 0.96823 0.8702 0.0
C757 C 0.89099 0.92197 0.84931 0.0
C758 C 0.85935 0.90076 0.85934 0.0
C759 C 0.84126 0.92617 0.88914 0.0
C760 C 0.90576 0.89781 0.8148 0.0
C761 C 0.93965 0.87238 0.81487 0.0
C762 C 0.89125 0.90613 0.78393 0.0
C763 C 0.85823 0.93619 0.78395 0.0
C764 C 0.81637 0.92631 0.78838 0.0
C765 C 0.78636 0.9562 0.79044 0.0
C766 C 0.79781 0.99598 0.78792 0.0
C767 C 0.83921 1.00585 0.78315 0.0
C768 C 0.86933 0.97607 0.78108 0.0
C769 C 0.01097 0.80521 0.68159 0.0
C770 C 0.01854 0.83758 0.66892 0.0
C771 C 0.9859 0.81291 0.708 0.0
C772 C 0.97017 0.85426 0.72375 0.0
C773 C 0.97768 0.88616 0.71043 0.0
C774 C 1.00088 0.8776 0.683 0.0
C775 C 0.94671 0.86555 0.75444 0.0
C776 C 0.9109 0.88884 0.75384 0.0
C777 C 0.96105 0.85715 0.78559 0.0
C778 C 1.00097 0.83717 0.79054 0.0
C779 C 0.04162 0.85922 0.79302 0.0
C780 C 0.07939 0.84053 0.79792 0.0
C781 C 0.07692 0.79989 0.80063 0.0
C782 C 0.03663 0.77798 0.79861 0.0
C783 C 0.99874 0.79663 0.79378 0.0
H784 H 0.10622 0.78545 0.80439 0.0
H785 H 0.77459 0.01916 0.78967 0.0
H786 H 0.23787 0.91313 0.31196 0.0
H787 H 0.20511 0.90941 0.36035 0.0
H788 H 0.33205 0.90927 0.4211 0.0
H789 H 0.36458 0.91164 0.37217 0.0
H790 H 0.2804 0.84732 0.41886 0.0
H791 H 0.27451 0.99988 0.45157 0.0
H792 H 0.26034 0.06873 0.44509 0.0
H793 H 0.12274 0.0208 0.41149 0.0
H794 H 0.13607 0.95122 0.41714 0.0
H795 H 0.11872 0.90946 0.55668 0.0
H796 H 0.16898 0.9332 0.52728 0.0
H797 H 0.16841 0.79328 0.45451 0.0
H798 H 0.12646 0.77064 0.48944 0.0
H799 H 0.1674 0.93489 0.47129 0.0
H800 H 0.23673 0.7686 0.40639 0.0
H801 H 0.26424 0.70922 0.42182 0.0
H802 H 0.29866 0.80231 0.5367 0.0
H803 H 0.27054 0.8623 0.52199 0.0
C804 C 0.25878 0.91284 0.33588 0.0
C805 C 0.30367 0.91211 0.33814 0.0
C806 C 0.24009 0.91099 0.36367 0.0
C807 C 0.26605 0.90927 0.39462 0.0
C808 C 0.3112 0.91024 0.39745 0.0
C809 C 0.32977 0.91145 0.36945 0.0
C810 C 0.24568 0.90237 0.42223 0.0
C811 C 0.25602 0.86685 0.43069 0.0
C812 C 0.21472 0.92849 0.43854 0.0
C813 C 0.20635 0.97002 0.4345 0.0
C814 C 0.24123 1.00374 0.44243 0.0
C815 C 0.23335 0.04297 0.43897 0.0
C816 C 0.19067 0.0491 0.42783 0.0
C817 C 0.15579 0.01598 0.4201 0.0
C818 C 0.1635 0.97663 0.42345 0.0
C819 C 0.13225 0.88414 0.53637 0.0
C820 C 0.12152 0.83849 0.52746 0.0
C821 C 0.1599 0.89752 0.51846 0.0
C822 C 0.17469 0.86526 0.48911 0.0
C823 C 0.16087 0.81939 0.47852 0.0
C824 C 0.13585 0.80627 0.49812 0.0
C825 C 0.20175 0.87922 0.46799 0.0
C826 C 0.19243 0.91587 0.46034 0.0
C827 C 0.23546 0.85562 0.45387 0.0
C828 C 0.25116 0.8197 0.46319 0.0
C829 C 0.25 0.77635 0.43499 0.0
C830 C 0.26549 0.7426 0.44361 0.0
C831 C 0.28278 0.75198 0.4803 0.0
C832 C 0.2846 0.79511 0.50842 0.0
C833 C 0.26869 0.8289 0.5 0.0
H834 H 0.29501 0.72589 0.48693 0.0
H835 H 0.18462 0.07956 0.42527 0.0
H836 H 0.36797 0.28924 0.84401 0.0
H837 H 0.37351 0.27028 0.89524 0.0
H838 H 0.23337 0.23876 0.87108 0.0
H839 H 0.22731 0.26145 0.82142 0.0
H840 H 0.2586 0.28329 0.93979 0.0
H841 H 0.30498 0.15552 0.85605 0.0
H842 H 0.34523 0.11092 0.81034 0.0
H843 H 0.46625 0.17132 0.89099 0.0
H844 H 0.42681 0.2168 0.93708 0.0
H845 H 0.28975 0.19465 0.0756 0.0
H846 H 0.27322 0.19372 1.0144 0.0
H847 H 0.39461 0.28096 0.04323 0.0
H848 H 0.41071 0.28293 0.10472 0.0
H849 H 0.37063 0.19682 0.96829 0.0
H850 H 0.31606 0.3303 0.04897 0.0
H851 H 0.27009 0.36702 0.09231 0.0
H852 H 0.15579 0.28228 1.01168 0.0
H853 H 0.20125 0.24458 0.96805 0.0
C854 C 0.33809 0.27888 0.84965 0.0
C855 C 0.29707 0.27814 0.82874 0.0
C856 C 0.34141 0.26701 0.87871 0.0
C857 C 0.30392 0.25244 0.88703 0.0
C858 C 0.26291 0.24993 0.86539 0.0
C859 C 0.2595 0.26264 0.83664 0.0
C860 C 0.3078 0.2429 0.91979 0.0
C861 C 0.28253 0.26353 0.94544 0.0
C862 C 0.33889 0.21707 0.92759 0.0
C863 C 0.3629 0.18984 0.89998 0.0
C864 C 0.34021 0.15956 0.86399 0.0
C865 C 0.36288 0.13407 0.83801 0.0
C866 C 0.40827 0.13835 0.84773 0.0
C867 C 0.43109 0.16806 0.88349 0.0
C868 C 0.40858 0.19366 0.90958 0.0
C869 C 0.31291 0.21343 0.06872 0.0
C870 C 0.35147 0.23895 0.09477 0.0
C871 C 0.30344 0.2129 0.03388 0.0
C872 C 0.33276 0.2372 0.02437 0.0
C873 C 0.37168 0.2619 0.05008 0.0
C874 C 0.38073 0.26321 0.08516 0.0
C875 C 0.32243 0.23823 0.98809 0.0
C876 C 0.3464 0.21592 0.96197 0.0
C877 C 0.28931 0.26128 0.97934 0.0
C878 C 0.26208 0.28428 1.00545 0.0
C879 C 0.28118 0.31921 0.04063 0.0
C880 C 0.25521 0.34026 0.06521 0.0
C881 C 0.21006 0.32689 0.0548 0.0
C882 C 0.19078 0.29254 0.01973 0.0
C883 C 0.21662 0.27134 0.99507 0.0
H884 H 0.19001 0.34324 0.07387 0.0
H885 H 0.42577 0.11858 0.82758 0.0
H886 H 0.83348 0.09572 0.09506 0.0
H887 H 0.84965 0.12759 0.16246 0.0
H888 H 0.96085 0.21509 0.16917 0.0
H889 H 0.94541 0.18268 0.10219 0.0
H890 H 0.98305 0.15496 0.19553 0.0
H891 H 0.87969 0.25967 0.21106 0.0
H892 H 0.80794 0.28437 0.20307 0.0
H893 H 0.75647 0.19686 0.24389 0.0
H894 H 0.82791 0.1715 0.252 0.0
H895 H 0.08309 0.24938 0.3823 0.0
H896 H 0.04407 0.24333 0.32286 0.0
H897 H 0.93092 0.1697 0.32895 0.0
H898 H 0.96968 0.17699 0.38927 0.0
H899 H 0.90539 0.22061 0.29615 0.0
H900 H 0.0055 0.11503 0.28038 0.0
H901 H 0.0757 0.08747 0.28835 0.0
H902 H 0.13067 0.1694 0.24424 0.0
H903 H 0.061 0.19813 0.23664 0.0
C904 C 0.85979 0.12358 0.11091 0.0
C905 C 0.888 0.1369 0.09322 0.0
C906 C 0.86928 0.14157 0.14958 0.0
C907 C 0.90683 0.1734 0.17093 0.0
C908 C 0.93183 0.19044 0.15332 0.0
C909 C 0.92272 0.17213 0.11491 0.0
C910 C 0.92516 0.1822 0.20979 0.0
C911 C 0.96637 0.17019 0.21767 0.0
C912 C 0.90246 0.1997 0.23825 0.0
C913 C 0.85908 0.2135 0.23193 0.0
C914 C 0.85297 0.24539 0.21801 0.0
C915 C 0.81245 0.25976 0.21373 0.0
C916 C 0.77778 0.24247 0.22326 0.0
C917 C 0.78345 0.21047 0.23678 0.0
C918 C 0.82395 0.19614 0.24128 0.0
C919 C 0.04954 0.23279 0.37131 0.0
C920 C 0.02943 0.21345 0.39023 0.0
C921 C 0.02736 0.229 0.3372 0.0
C922 C 0.98491 0.20488 0.32084 0.0
C923 C 0.96373 0.1881 0.34084 0.0
C924 C 0.9858 0.19242 0.37533 0.0
C925 C 0.96401 0.19495 0.28208 0.0
C926 C 0.9222 0.20586 0.27406 0.0
C927 C 0.98584 0.17572 0.25311 0.0
C928 C 0.02813 0.15918 0.25838 0.0
C929 C 0.03269 0.12759 0.27278 0.0
C930 C 0.07238 0.11169 0.27716 0.0
C931 C 0.10767 0.12681 0.26693 0.0
C932 C 0.10334 0.15784 0.25227 0.0
C933 C 0.06376 0.17396 0.24793 0.0
H934 H 0.13833 0.11437 0.27025 0.0
H935 H 0.74641 0.25356 0.21983 0.0
loop_
_geom_bond_atom_site_label_1
_geom_bond_atom_site_label_2
_geom_bond_distance
_geom_bond_site_symmetry_2
_ccdc_geom_bond_type
Tb0 N31 2.660 . S
Tb0 N38 2.600 . S
Tb0 O44 2.546 . S
Tb0 O45 2.610 1_545 S
Tb0 O47 2.320 . S
Tb0 O48 2.552 . S
Tb0 O49 2.413 . S
Tb0 O51 2.362 . S
Tb0 O52 2.421 . S
Tb0 C64 2.833 . S
C1 C4 1.432 . S
C1 C5 1.414 . S
C1 N8 1.359 . S
C2 C4 1.417 . S
C2 C6 1.432 . S
C2 C14 1.410 . S
C3 C5 1.444 . S
C3 C6 1.317 . S
C3 H26 0.929 . S
C4 C1 1.432 . S
C4 C2 1.417 . S
C4 N12 1.360 . S
C5 C1 1.414 . S
C5 C3 1.444 . S
C5 C10 1.385 . S
C6 C2 1.432 . S
C6 C3 1.317 . S
C6 H18 0.930 . S
C7 C9 1.392 . S
C7 C10 1.370 . S
C7 H19 0.931 . S
N8 C1 1.359 . S
N8 C9 1.327 . S
N8 Tb11 2.600 . S
C9 C7 1.392 . S
C9 N8 1.327 . S
C9 H16 0.930 . S
C10 C5 1.385 . S
C10 C7 1.370 . S
C10 H29 0.930 . S
Tb11 N8 2.600 . S
Tb11 N12 2.660 . S
Tb11 O45 2.362 . S
Tb11 O46 2.421 . S
Tb11 O50 2.546 . S
Tb11 O51 2.610 1_565 S
Tb11 O53 2.320 . S
Tb11 O54 2.552 1_565 S
Tb11 O55 2.413 . S
Tb11 C75 2.833 . S
N12 C4 1.360 . S
N12 Tb11 2.660 . S
N12 C13 1.305 . S
C13 N12 1.305 . S
C13 C15 1.407 . S
C13 H20 0.930 . S
C14 C2 1.410 . S
C14 C15 1.345 . S
C14 H22 0.930 . S
C15 C13 1.407 . S
C15 C14 1.345 . S
C15 H17 0.930 . S
H16 C9 0.930 . S
H17 C15 0.930 . S
H18 C6 0.930 . S
H19 C7 0.931 . S
H20 C13 0.930 . S
H21 C35 0.930 . S
H22 C14 0.930 . S
H23 C41 0.930 . S
H24 C32 0.930 . S
H25 C39 0.931 . S
H26 C3 0.929 . S
H27 C33 0.930 . S
H28 C66 0.930 . S
H29 C10 0.930 . S
H30 C65 0.929 . S
N31 Tb0 2.660 . S
N31 C32 1.305 . S
N31 C36 1.360 . S
C32 H24 0.930 . S
C32 N31 1.305 . S
C32 C35 1.407 . S
C33 H27 0.930 . S
C33 C34 1.410 . S
C33 C35 1.345 . S
C34 C33 1.410 . S
C34 C36 1.417 . S
C34 C66 1.432 . S
C35 H21 0.930 . S
C35 C32 1.407 . S
C35 C33 1.345 . S
C36 N31 1.360 . S
C36 C34 1.417 . S
C36 C40 1.432 . S
H37 C42 0.930 . S
N38 Tb0 2.600 . S
N38 C40 1.359 . S
N38 C41 1.327 . S
C39 H25 0.931 . S
C39 C41 1.392 . S
C39 C42 1.370 . S
C40 C36 1.432 . S
C40 N38 1.359 . S
C40 C43 1.414 . S
C41 H23 0.930 . S
C41 N38 1.327 . S
C41 C39 1.392 . S
C42 H37 0.930 . S
C42 C39 1.370 . S
C42 C43 1.385 . S
C43 C40 1.414 . S
C43 C42 1.385 . S
C43 C65 1.444 . S
O44 Tb0 2.546 . S
O44 C64 1.251 . S
O45 Tb0 2.610 1_565 S
O45 Tb11 2.362 . S
O45 C56 1.283 . S
O46 Tb11 2.421 . S
O46 C63 1.262 1_565 S
O47 Tb0 2.320 . S
O47 C63 1.260 . S
O48 Tb0 2.552 . S
O48 C56 1.243 1_545 S
O49 Tb0 2.413 . S
O49 C64 1.256 . S
O50 Tb11 2.546 . S
O50 C75 1.251 . S
O51 Tb0 2.362 . S
O51 Tb11 2.610 1_545 S
O51 C67 1.283 . S
O52 Tb0 2.421 . S
O52 C74 1.262 . S
O53 Tb11 2.320 . S
O53 C74 1.260 1_565 S
O54 Tb11 2.552 1_545 S
O54 C67 1.243 . S
O55 Tb11 2.413 . S
O55 C75 1.256 . S
C56 O45 1.283 . S
C56 O48 1.243 1_565 S
C57 C59 1.382 . S
C57 C61 1.393 . S
C57 C64 1.500 . S
C58 C59 1.400 . S
C58 C60 1.384 . S
C59 C57 1.382 . S
C59 C58 1.400 . S
C59 H76 0.930 . S
C60 C58 1.384 . S
C60 C62 1.392 . S
C60 H77 0.931 . S
C61 C57 1.393 . S
C61 C62 1.401 . S
C61 H78 0.930 . S
C62 C60 1.392 . S
C62 C61 1.401 . S
C62 H79 0.930 . S
C63 O46 1.262 1_545 S
C63 O47 1.260 . S
C64 Tb0 2.833 . S
C64 O44 1.251 . S
C64 O49 1.256 . S
C64 C57 1.500 . S
C65 H30 0.929 . S
C65 C43 1.444 . S
C65 C66 1.317 . S
C66 H28 0.930 . S
C66 C34 1.432 . S
C66 C65 1.317 . S
C67 O51 1.283 . S
C67 O54 1.243 . S
C68 C69 1.382 . S
C68 C72 1.393 . S
C68 C75 1.500 . S
C69 C68 1.382 . S
C69 C70 1.400 . S
C69 H80 0.930 . S
C70 C69 1.400 . S
C70 C71 1.384 . S
C71 C70 1.384 . S
C71 C73 1.392 . S
C71 H81 0.931 . S
C72 C68 1.393 . S
C72 C73 1.401 . S
C72 H82 0.930 . S
C73 C71 1.392 . S
C73 C72 1.401 . S
C73 H83 0.930 . S
C74 O52 1.262 . S
C74 O53 1.260 1_545 S
C75 Tb11 2.833 . S
C75 O50 1.251 . S
C75 O55 1.256 . S
C75 C68 1.500 . S
H76 C59 0.930 . S
H77 C60 0.931 . S
H78 C61 0.930 . S
H79 C62 0.930 . S
H80 C69 0.930 . S
H81 C71 0.931 . S
H82 C72 0.930 . S
H83 C73 0.930 . S
Tb84 N115 2.660 . S
Tb84 N122 2.600 . S
Tb84 O128 2.546 . S
Tb84 O129 2.610 . S
Tb84 O131 2.320 . S
Tb84 O132 2.552 . S
Tb84 O133 2.413 . S
Tb84 O135 2.362 . S
Tb84 O136 2.421 . S
Tb84 C148 2.833 . S
C85 C88 1.432 . S
C85 C89 1.414 . S
C85 N92 1.359 . S
C86 C88 1.417 . S
C86 C90 1.432 . S
C86 C98 1.410 . S
C87 C89 1.444 . S
C87 C90 1.317 . S
C87 H110 0.929 . S
C88 C85 1.432 . S
C88 C86 1.417 . S
C88 N96 1.360 . S
C89 C85 1.414 . S
C89 C87 1.444 . S
C89 C94 1.385 . S
C90 C86 1.432 . S
C90 C87 1.317 . S
C90 H102 0.930 . S
C91 C93 1.392 . S
C91 C94 1.370 . S
C91 H103 0.931 . S
N92 C85 1.359 . S
N92 C93 1.327 . S
N92 Tb95 2.600 . S
C93 C91 1.392 . S
C93 N92 1.327 . S
C93 H100 0.930 . S
C94 C89 1.385 . S
C94 C91 1.370 . S
C94 H113 0.930 . S
Tb95 N92 2.600 . S
Tb95 N96 2.660 . S
Tb95 O129 2.362 . S
Tb95 O130 2.421 . S
Tb95 O134 2.546 . S
Tb95 O135 2.610 . S
Tb95 O137 2.320 . S
Tb95 O138 2.552 . S
Tb95 O139 2.413 . S
Tb95 C159 2.833 . S
N96 C88 1.360 . S
N96 Tb95 2.660 . S
N96 C97 1.305 . S
C97 N96 1.305 . S
C97 C99 1.407 . S
C97 H104 0.930 . S
C98 C86 1.410 . S
C98 C99 1.345 . S
C98 H106 0.930 . S
C99 C97 1.407 . S
C99 C98 1.345 . S
C99 H101 0.930 . S
H100 C93 0.930 . S
H101 C99 0.930 . S
H102 C90 0.930 . S
H103 C91 0.931 . S
H104 C97 0.930 . S
H105 C119 0.930 . S
H106 C98 0.930 . S
H107 C125 0.930 . S
H108 C116 0.930 . S
H109 C123 0.931 . S
H110 C87 0.929 . S
H111 C117 0.930 . S
H112 C150 0.930 . S
H113 C94 0.930 . S
H114 C149 0.929 . S
N115 Tb84 2.660 . S
N115 C116 1.305 . S
N115 C120 1.360 . S
C116 H108 0.930 . S
C116 N115 1.305 . S
C116 C119 1.407 . S
C117 H111 0.930 . S
C117 C118 1.410 . S
C117 C119 1.345 1_655 S
C118 C117 1.410 . S
C118 C120 1.417 1_655 S
C118 C150 1.432 . S
C119 H105 0.930 . S
C119 C116 1.407 . S
C119 C117 1.345 1_455 S
C120 N115 1.360 . S
C120 C118 1.417 1_455 S
C120 C124 1.432 . S
H121 C126 0.930 . S
N122 Tb84 2.600 . S
N122 C124 1.359 . S
N122 C125 1.327 . S
C123 H109 0.931 . S
C123 C125 1.392 . S
C123 C126 1.370 1_455 S
C124 C120 1.432 . S
C124 N122 1.359 . S
C124 C127 1.414 1_455 S
C125 H107 0.930 . S
C125 N122 1.327 . S
C125 C123 1.392 . S
C126 H121 0.930 . S
C126 C123 1.370 1_655 S
C126 C127 1.385 . S
C127 C124 1.414 1_655 S
C127 C126 1.385 . S
C127 C149 1.444 . S
O128 Tb84 2.546 . S
O128 C148 1.251 . S
O129 Tb84 2.610 . S
O129 Tb95 2.362 . S
O129 C140 1.283 . S
O130 Tb95 2.421 . S
O130 C147 1.262 . S
O131 Tb84 2.320 . S
O131 C147 1.260 . S
O132 Tb84 2.552 . S
O132 C140 1.243 . S
O133 Tb84 2.413 . S
O133 C148 1.256 . S
O134 Tb95 2.546 . S
O134 C159 1.251 . S
O135 Tb84 2.362 . S
O135 Tb95 2.610 . S
O135 C151 1.283 . S
O136 Tb84 2.421 . S
O136 C158 1.262 . S
O137 Tb95 2.320 . S
O137 C158 1.260 . S
O138 Tb95 2.552 . S
O138 C151 1.243 . S
O139 Tb95 2.413 . S
O139 C159 1.256 . S
C140 O129 1.283 . S
C140 O132 1.243 . S
C141 C143 1.382 . S
C141 C145 1.393 . S
C141 C148 1.500 . S
C142 C143 1.400 . S
C142 C144 1.384 . S
C143 C141 1.382 . S
C143 C142 1.400 . S
C143 H160 0.930 . S
C144 C142 1.384 . S
C144 C146 1.392 . S
C144 H161 0.931 1_455 S
C145 C141 1.393 . S
C145 C146 1.401 . S
C145 H162 0.930 . S
C146 C144 1.392 . S
C146 C145 1.401 . S
C146 H163 0.930 1_455 S
C147 O130 1.262 . S
C147 O131 1.260 . S
C148 Tb84 2.833 . S
C148 O128 1.251 . S
C148 O133 1.256 . S
C148 C141 1.500 . S
C149 H114 0.929 . S
C149 C127 1.444 . S
C149 C150 1.317 . S
C150 H112 0.930 . S
C150 C118 1.432 . S
C150 C149 1.317 . S
C151 O135 1.283 . S
C151 O138 1.243 . S
C152 C153 1.382 . S
C152 C156 1.393 . S
C152 C159 1.500 . S
C153 C152 1.382 . S
C153 C154 1.400 . S
C153 H164 0.930 . S
C154 C153 1.400 . S
C154 C155 1.384 . S
C155 C154 1.384 . S
C155 C157 1.392 . S
C155 H165 0.931 . S
C156 C152 1.393 . S
C156 C157 1.401 . S
C156 H166 0.930 . S
C157 C155 1.392 . S
C157 C156 1.401 . S
C157 H167 0.930 . S
C158 O136 1.262 . S
C158 O137 1.260 . S
C159 Tb95 2.833 . S
C159 O134 1.251 . S
C159 O139 1.256 . S
C159 C152 1.500 . S
H160 C143 0.930 . S
H161 C144 0.931 1_655 S
H162 C145 0.930 . S
H163 C146 0.930 1_655 S
H164 C153 0.930 . S
H165 C155 0.931 . S
H166 C156 0.930 . S
H167 C157 0.930 . S
Tb168 N199 2.660 . S
Tb168 N206 2.600 . S
Tb168 O212 2.545 . S
Tb168 O213 2.610 . S
Tb168 O215 2.320 . S
Tb168 O216 2.552 1_554 S
Tb168 O217 2.413 . S
Tb168 O219 2.362 . S
Tb168 O220 2.421 . S
Tb168 C232 2.833 1_554 S
C169 C172 1.432 . S
C169 C173 1.414 . S
C169 N176 1.359 1_556 S
C170 C172 1.417 . S
C170 C174 1.432 . S
C170 C182 1.410 . S
C171 C173 1.444 . S
C171 C174 1.317 . S
C171 H194 0.929 . S
C172 C169 1.432 . S
C172 C170 1.417 . S
C172 N180 1.360 . S
C173 C169 1.414 . S
C173 C171 1.444 . S
C173 C178 1.385 . S
C174 C170 1.432 . S
C174 C171 1.317 . S
C174 H186 0.930 . S
C175 C177 1.392 . S
C175 C178 1.370 1_554 S
C175 H187 0.931 1_655 S
N176 C169 1.359 1_554 S
N176 C177 1.327 . S
N176 Tb179 2.600 1_565 S
C177 C175 1.392 . S
C177 N176 1.327 . S
C177 H184 0.930 . S
C178 C173 1.385 . S
C178 C175 1.370 1_556 S
C178 H197 0.930 . S
Tb179 N176 2.600 1_545 S
Tb179 N180 2.660 1_544 S
Tb179 O213 2.362 . S
Tb179 O214 2.421 . S
Tb179 O218 2.546 . S
Tb179 O219 2.610 . S
Tb179 O221 2.320 . S
Tb179 O222 2.552 . S
Tb179 O223 2.413 . S
Tb179 C243 2.833 1_545 S
N180 C172 1.360 . S
N180 Tb179 2.660 1_566 S
N180 C181 1.305 . S
C181 N180 1.305 . S
C181 C183 1.407 . S
C181 H188 0.916 1_565 S
C182 C170 1.410 . S
C182 C183 1.345 . S
C182 H190 0.930 . S
C183 C181 1.407 . S
C183 C182 1.345 . S
C183 H185 0.930 . S
H184 C177 0.930 . S
H185 C183 0.930 . S
H186 C174 0.930 . S
H187 C175 0.931 1_455 S
H188 C181 0.916 1_545 S
H189 C203 0.930 1_455 S
H190 C182 0.930 . S
H191 C209 0.930 . S
H192 C200 0.930 . S
H193 C207 0.931 . S
H194 C171 0.929 . S
H195 C201 0.930 . S
H196 C234 0.930 . S
H197 C178 0.930 . S
H198 C233 0.929 . S
N199 Tb168 2.660 . S
N199 C200 1.305 . S
N199 C204 1.360 . S
C200 H192 0.930 . S
C200 N199 1.305 . S
C200 C203 1.407 . S
C201 H195 0.930 . S
C201 C202 1.410 . S
C201 C203 1.345 . S
C202 C201 1.410 . S
C202 C204 1.417 . S
C202 C234 1.432 . S
C203 H189 0.930 1_655 S
C203 C200 1.407 . S
C203 C201 1.345 . S
C204 N199 1.360 . S
C204 C202 1.417 . S
C204 C208 1.432 . S
H205 C210 0.930 . S
N206 Tb168 2.600 . S
N206 C208 1.359 . S
N206 C209 1.327 . S
C207 H193 0.931 . S
C207 C209 1.392 . S
C207 C210 1.370 . S
C208 C204 1.432 . S
C208 N206 1.359 . S
C208 C211 1.414 . S
C209 H191 0.930 . S
C209 N206 1.327 . S
C209 C207 1.392 . S
C210 H205 0.930 . S
C210 C207 1.370 . S
C210 C211 1.385 . S
C211 C208 1.414 . S
C211 C210 1.385 . S
C211 C233 1.444 . S
O212 Tb168 2.545 . S
O212 C232 1.251 1_554 S
O213 Tb168 2.610 . S
O213 Tb179 2.362 . S
O213 C224 1.283 1_554 S
O214 Tb179 2.421 . S
O214 C231 1.262 . S
O215 Tb168 2.320 . S
O215 C231 1.260 . S
O216 Tb168 2.552 1_556 S
O216 C224 1.243 . S
O217 Tb168 2.413 . S
O217 C232 1.256 1_554 S
O218 Tb179 2.546 . S
O218 C243 1.251 1_545 S
O219 Tb168 2.362 . S
O219 Tb179 2.610 . S
O219 C235 1.283 . S
O220 Tb168 2.421 . S
O220 C242 1.262 . S
O221 Tb179 2.320 . S
O221 C242 1.260 . S
O222 Tb179 2.552 . S
O222 C235 1.243 . S
O223 Tb179 2.413 . S
O223 C243 1.256 1_545 S
C224 O213 1.283 1_556 S
C224 O216 1.243 . S
C225 C227 1.382 . S
C225 C229 1.393 . S
C225 C232 1.500 . S
C226 C227 1.400 . S
C226 C228 1.384 . S
C227 C225 1.382 . S
C227 C226 1.400 . S
C227 H244 0.930 . S
C228 C226 1.384 . S
C228 C230 1.392 . S
C228 H245 0.931 . S
C229 C225 1.393 . S
C229 C230 1.401 . S
C229 H246 0.930 . S
C230 C228 1.392 . S
C230 C229 1.401 . S
C230 H247 0.930 . S
C231 O214 1.262 . S
C231 O215 1.260 . S
C232 Tb168 2.833 1_556 S
C232 O212 1.251 1_556 S
C232 O217 1.256 1_556 S
C232 C225 1.500 . S
C233 H198 0.929 . S
C233 C211 1.444 . S
C233 C234 1.317 . S
C234 H196 0.930 . S
C234 C202 1.432 . S
C234 C233 1.317 . S
C235 O219 1.283 . S
C235 O222 1.243 . S
C236 C237 1.382 . S
C236 C240 1.393 . S
C236 C243 1.500 . S
C237 C236 1.382 . S
C237 C238 1.400 . S
C237 H248 0.930 . S
C238 C237 1.400 . S
C238 C239 1.384 . S
C239 C238 1.384 . S
C239 C241 1.392 . S
C239 H249 0.931 . S
C240 C236 1.393 . S
C240 C241 1.401 . S
C240 H250 0.930 . S
C241 C239 1.392 . S
C241 C240 1.401 . S
C241 H251 0.930 . S
C242 O220 1.262 . S
C242 O221 1.260 . S
C243 Tb179 2.833 1_565 S
C243 O218 1.251 1_565 S
C243 O223 1.256 1_565 S
C243 C236 1.500 . S
H244 C227 0.930 . S
H245 C228 0.931 . S
H246 C229 0.930 . S
H247 C230 0.930 . S
H248 C237 0.930 . S
H249 C239 0.931 . S
H250 C240 0.930 . S
H251 C241 0.930 . S
Tb252 N283 2.660 . S
Tb252 N290 2.600 . S
Tb252 O296 2.546 . S
Tb252 O297 2.610 1_655 S
Tb252 O299 2.320 . S
Tb252 O300 2.552 1_655 S
Tb252 O301 2.413 . S
Tb252 O303 2.362 . S
Tb252 O304 2.421 . S
Tb252 C316 2.833 . S
C253 C256 1.432 . S
C253 C257 1.414 . S
C253 N260 1.359 . S
C254 C256 1.417 . S
C254 C258 1.432 . S
C254 C266 1.410 . S
C255 C257 1.444 . S
C255 C258 1.317 . S
C255 H278 0.929 . S
C256 C253 1.432 . S
C256 C254 1.417 . S
C256 N264 1.360 . S
C257 C253 1.414 . S
C257 C255 1.444 . S
C257 C262 1.385 . S
C258 C254 1.432 . S
C258 C255 1.317 . S
C258 H270 0.930 . S
C259 C261 1.392 . S
C259 C262 1.370 . S
C259 H271 0.931 . S
N260 C253 1.359 . S
N260 C261 1.327 . S
N260 Tb263 2.600 . S
C261 C259 1.392 . S
C261 N260 1.327 . S
C261 H268 0.930 . S
C262 C257 1.385 . S
C262 C259 1.370 . S
C262 H281 0.930 . S
Tb263 N260 2.600 . S
Tb263 N264 2.660 . S
Tb263 O297 2.362 . S
Tb263 O298 2.421 . S
Tb263 O302 2.546 . S
Tb263 O303 2.610 1_455 S
Tb263 O305 2.320 . S
Tb263 O306 2.552 . S
Tb263 O307 2.413 . S
Tb263 C327 2.833 . S
N264 C256 1.360 . S
N264 Tb263 2.660 . S
N264 C265 1.305 . S
C265 N264 1.305 . S
C265 C267 1.407 . S
C265 H272 0.930 . S
C266 C254 1.410 . S
C266 C267 1.345 . S
C266 H274 0.930 . S
C267 C265 1.407 . S
C267 C266 1.345 . S
C267 H269 0.930 . S
H268 C261 0.930 . S
H269 C267 0.930 . S
H270 C258 0.930 . S
H271 C259 0.931 . S
H272 C265 0.930 . S
H273 C287 0.930 . S
H274 C266 0.930 . S
H275 C293 0.930 . S
H276 C284 0.930 . S
H277 C291 0.931 . S
H278 C255 0.929 . S
H279 C285 0.930 . S
H280 C318 0.930 . S
H281 C262 0.930 . S
H282 C317 0.929 . S
N283 Tb252 2.660 . S
N283 C284 1.305 . S
N283 C288 1.360 . S
C284 H276 0.930 . S
C284 N283 1.305 . S
C284 C287 1.407 . S
C285 H279 0.930 . S
C285 C286 1.410 . S
C285 C287 1.345 . S
C286 C285 1.410 . S
C286 C288 1.417 . S
C286 C318 1.432 . S
C287 H273 0.930 . S
C287 C284 1.407 . S
C287 C285 1.345 . S
C288 N283 1.360 . S
C288 C286 1.417 . S
C288 C292 1.432 . S
H289 C294 0.930 . S
N290 Tb252 2.600 . S
N290 C292 1.359 . S
N290 C293 1.327 . S
C291 H277 0.931 . S
C291 C293 1.392 . S
C291 C294 1.370 . S
C292 C288 1.432 . S
C292 N290 1.359 . S
C292 C295 1.414 . S
C293 H275 0.930 . S
C293 N290 1.327 . S
C293 C291 1.392 . S
C294 H289 0.930 . S
C294 C291 1.370 . S
C294 C295 1.385 . S
C295 C292 1.414 . S
C295 C294 1.385 . S
C295 C317 1.444 . S
O296 Tb252 2.546 . S
O296 C316 1.251 . S
O297 Tb252 2.610 1_455 S
O297 Tb263 2.362 . S
O297 C308 1.283 . S
O298 Tb263 2.421 . S
O298 C315 1.262 . S
O299 Tb252 2.320 . S
O299 C315 1.260 1_655 S
O300 Tb252 2.552 1_455 S
O300 C308 1.243 . S
O301 Tb252 2.413 . S
O301 C316 1.256 . S
O302 Tb263 2.546 . S
O302 C327 1.251 . S
O303 Tb252 2.362 . S
O303 Tb263 2.610 1_655 S
O303 C319 1.283 . S
O304 Tb252 2.421 . S
O304 C326 1.262 1_655 S
O305 Tb263 2.320 . S
O305 C326 1.260 . S
O306 Tb263 2.552 . S
O306 C319 1.243 1_455 S
O307 Tb263 2.413 . S
O307 C327 1.256 . S
C308 O297 1.283 . S
C308 O300 1.243 . S
C309 C311 1.382 . S
C309 C313 1.393 . S
C309 C316 1.500 . S
C310 C311 1.400 . S
C310 C312 1.384 . S
C311 C309 1.382 . S
C311 C310 1.400 . S
C311 H328 0.930 . S
C312 C310 1.384 . S
C312 C314 1.392 . S
C312 H329 0.931 . S
C313 C309 1.393 . S
C313 C314 1.401 . S
C313 H330 0.930 . S
C314 C312 1.392 . S
C314 C313 1.401 . S
C314 H331 0.930 . S
C315 O298 1.262 . S
C315 O299 1.260 1_455 S
C316 Tb252 2.833 . S
C316 O296 1.251 . S
C316 O301 1.256 . S
C316 C309 1.500 . S
C317 H282 0.929 . S
C317 C295 1.444 . S
C317 C318 1.317 . S
C318 H280 0.930 . S
C318 C286 1.432 . S
C318 C317 1.317 . S
C319 O303 1.283 . S
C319 O306 1.243 1_655 S
C320 C321 1.382 . S
C320 C324 1.393 . S
C320 C327 1.500 . S
C321 C320 1.382 . S
C321 C322 1.400 . S
C321 H332 0.930 . S
C322 C321 1.400 . S
C322 C323 1.384 . S
C323 C322 1.384 . S
C323 C325 1.392 . S
C323 H333 0.931 . S
C324 C320 1.393 . S
C324 C325 1.401 . S
C324 H334 0.930 . S
C325 C323 1.392 . S
C325 C324 1.401 . S
C325 H335 0.930 . S
C326 O304 1.262 1_455 S
C326 O305 1.260 . S
C327 Tb263 2.833 . S
C327 O302 1.251 . S
C327 O307 1.256 . S
C327 C320 1.500 . S
H328 C311 0.930 . S
H329 C312 0.931 . S
H330 C313 0.930 . S
H331 C314 0.930 . S
H332 C321 0.930 . S
H333 C323 0.931 . S
H334 C324 0.930 . S
H335 C325 0.930 . S
H336 C354 0.951 1_556 S
H337 C356 0.951 . S
H338 C358 0.950 . S
H339 C359 0.950 . S
H340 C361 0.950 . S
H341 C364 0.950 1_545 S
H342 C365 0.950 . S
H343 C367 0.950 . S
H344 C368 0.950 . S
H345 C369 0.951 . S
H346 C371 0.951 . S
H347 C373 0.950 1_565 S
H348 C374 0.950 . S
H349 C376 0.950 1_565 S
H350 C379 0.950 . S
H351 C380 0.950 . S
H352 C382 0.950 . S
H353 C383 0.950 . S
C354 H336 0.951 1_554 S
C354 C355 1.366 . S
C354 C356 1.388 1_655 S
C355 C354 1.366 . S
C355 C359 1.385 . S
C356 H337 0.951 . S
C356 C354 1.388 1_455 S
C356 C357 1.366 . S
C357 C356 1.366 . S
C357 C358 1.414 . S
C357 C360 1.499 . S
C358 H338 0.950 . S
C358 C357 1.414 . S
C358 C359 1.374 1_455 S
C359 H339 0.950 . S
C359 C355 1.385 . S
C359 C358 1.374 1_655 S
C360 C357 1.499 . S
C360 C361 1.373 . S
C360 C362 1.389 . S
C361 H340 0.950 . S
C361 C360 1.373 . S
C361 C377 1.377 . S
C362 C360 1.389 . S
C362 C363 1.524 1_545 S
C362 C376 1.377 . S
C363 C362 1.524 1_565 S
C363 C364 1.397 1_455 S
C363 C368 1.363 . S
C364 H341 0.950 1_565 S
C364 C363 1.397 1_655 S
C364 C365 1.334 . S
C365 H342 0.950 . S
C365 C364 1.334 . S
C365 C366 1.287 . S
C366 C365 1.287 . S
C366 C367 1.524 1_654 S
C366 H385 0.913 1_554 S
C367 H343 0.950 . S
C367 C366 1.524 1_456 S
C367 C368 1.415 1_556 S
C368 H344 0.950 . S
C368 C363 1.363 . S
C368 C367 1.415 1_554 S
C369 H345 0.951 . S
C369 C370 1.366 . S
C369 C371 1.388 . S
C370 C369 1.366 . S
C370 C374 1.385 1_545 S
C371 H346 0.951 . S
C371 C369 1.388 . S
C371 C372 1.366 . S
C372 C371 1.366 . S
C372 C373 1.414 . S
C372 C375 1.499 . S
C373 H347 0.950 1_545 S
C373 C372 1.414 . S
C373 C374 1.374 1_545 S
C374 H348 0.950 . S
C374 C370 1.385 1_565 S
C374 C373 1.374 1_565 S
C375 C372 1.499 . S
C375 C376 1.373 . S
C375 C377 1.389 . S
C376 H349 0.950 1_545 S
C376 C362 1.377 . S
C376 C375 1.373 . S
C377 C361 1.377 . S
C377 C375 1.389 . S
C377 C378 1.524 . S
C378 C377 1.524 . S
C378 C379 1.397 . S
C378 C383 1.363 . S
C379 H350 0.950 . S
C379 C378 1.397 . S
C379 C380 1.334 . S
C380 H351 0.950 . S
C380 C379 1.334 . S
C380 C381 1.287 . S
C381 C380 1.287 . S
C381 C382 1.524 . S
C381 H384 0.999 . S
C382 H352 0.950 . S
C382 C381 1.524 . S
C382 C383 1.415 . S
C383 H353 0.950 . S
C383 C378 1.363 . S
C383 C382 1.415 . S
H384 C381 0.999 . S
H385 C366 0.913 1_556 S
H386 C404 0.951 . S
H387 C406 0.951 . S
H388 C408 0.950 . S
H389 C409 0.950 . S
H390 C411 0.950 . S
H391 C414 0.950 . S
H392 C415 0.950 . S
H393 C417 0.950 . S
H394 C418 0.950 . S
H395 C419 0.951 . S
H396 C421 0.951 . S
H397 C423 0.950 . S
H398 C424 0.950 . S
H399 C426 0.950 . S
H400 C429 0.950 . S
H401 C430 0.950 . S
H402 C432 0.950 . S
H403 C433 0.950 . S
C404 H386 0.951 . S
C404 C405 1.366 1_655 S
C404 C406 1.388 1_655 S
C405 C404 1.366 1_455 S
C405 C409 1.385 . S
C406 H387 0.951 . S
C406 C404 1.388 1_455 S
C406 C407 1.366 . S
C407 C406 1.366 . S
C407 C408 1.414 . S
C407 C410 1.499 1_565 S
C408 H388 0.950 . S
C408 C407 1.414 . S
C408 C409 1.374 . S
C409 H389 0.950 . S
C409 C405 1.385 . S
C409 C408 1.374 . S
C410 C407 1.499 1_545 S
C410 C411 1.373 . S
C410 C412 1.389 . S
C411 H390 0.950 . S
C411 C410 1.373 . S
C411 C427 1.377 . S
C412 C410 1.389 . S
C412 C413 1.524 1_545 S
C412 C426 1.377 . S
C413 C412 1.524 1_565 S
C413 C414 1.397 . S
C413 C418 1.363 1_565 S
C414 H391 0.950 . S
C414 C413 1.397 . S
C414 C415 1.334 . S
C415 H392 0.950 . S
C415 C414 1.334 . S
C415 C416 1.287 . S
C416 C415 1.287 . S
C416 C417 1.524 . S
C416 H435 0.913 . S
C417 H393 0.950 . S
C417 C416 1.524 . S
C417 C418 1.415 1_565 S
C418 H394 0.950 . S
C418 C413 1.363 1_545 S
C418 C417 1.415 1_545 S
C419 H395 0.951 . S
C419 C420 1.366 . S
C419 C421 1.388 . S
C420 C419 1.366 . S
C420 C424 1.385 . S
C421 H396 0.951 . S
C421 C419 1.388 . S
C421 C422 1.366 . S
C422 C421 1.366 . S
C422 C423 1.414 . S
C422 C425 1.499 . S
C423 H397 0.950 . S
C423 C422 1.414 . S
C423 C424 1.374 . S
C424 H398 0.950 . S
C424 C420 1.385 . S
C424 C423 1.374 . S
C425 C422 1.499 . S
C425 C426 1.373 . S
C425 C427 1.389 . S
C426 H399 0.950 . S
C426 C412 1.377 . S
C426 C425 1.373 . S
C427 C411 1.377 . S
C427 C425 1.389 . S
C427 C428 1.524 . S
C428 C427 1.524 . S
C428 C429 1.397 . S
C428 C433 1.363 . S
C429 H400 0.950 . S
C429 C428 1.397 . S
C429 C430 1.334 . S
C430 H401 0.950 . S
C430 C429 1.334 . S
C430 C431 1.287 . S
C431 C430 1.287 . S
C431 C432 1.524 . S
C431 H434 0.999 . S
C432 H402 0.950 . S
C432 C431 1.524 . S
C432 C433 1.415 . S
C433 H403 0.950 . S
C433 C428 1.363 . S
C433 C432 1.415 . S
H434 C431 0.999 . S
H435 C416 0.913 . S
H436 C454 0.951 . S
H437 C456 0.951 . S
H438 C458 0.950 . S
H439 C459 0.950 . S
H440 C461 0.950 . S
H441 C464 0.950 . S
H442 C465 0.950 . S
H443 C467 0.950 . S
H444 C468 0.950 . S
H445 C469 0.951 . S
H446 C471 0.951 . S
H447 C473 0.950 . S
H448 C474 0.950 . S
H449 C476 0.950 . S
H450 C479 0.950 . S
H451 C480 0.950 . S
H452 C482 0.950 . S
H453 C483 0.950 1_545 S
C454 H436 0.951 . S
C454 C455 1.366 . S
C454 C456 1.388 . S
C455 C454 1.366 . S
C455 C459 1.385 . S
C456 H437 0.951 . S
C456 C454 1.388 . S
C456 C457 1.366 . S
C457 C456 1.366 . S
C457 C458 1.414 . S
C457 C460 1.499 . S
C458 H438 0.950 . S
C458 C457 1.414 . S
C458 C459 1.374 . S
C459 H439 0.950 . S
C459 C455 1.385 . S
C459 C458 1.374 . S
C460 C457 1.499 . S
C460 C461 1.373 . S
C460 C462 1.389 . S
C461 H440 0.950 . S
C461 C460 1.373 . S
C461 C477 1.377 . S
C462 C460 1.389 . S
C462 C463 1.524 . S
C462 C476 1.377 . S
C463 C462 1.524 . S
C463 C464 1.397 . S
C463 C468 1.363 . S
C464 H441 0.950 . S
C464 C463 1.397 . S
C464 C465 1.334 . S
C465 H442 0.950 . S
C465 C464 1.334 . S
C465 C466 1.287 . S
C466 C465 1.287 . S
C466 C467 1.524 . S
C466 H485 0.913 . S
C467 H443 0.950 . S
C467 C466 1.524 . S
C467 C468 1.415 . S
C468 H444 0.950 . S
C468 C463 1.363 . S
C468 C467 1.415 . S
C469 H445 0.951 . S
C469 C470 1.366 . S
C469 C471 1.388 . S
C470 C469 1.366 . S
C470 C474 1.385 . S
C471 H446 0.951 . S
C471 C469 1.388 . S
C471 C472 1.366 . S
C472 C471 1.366 . S
C472 C473 1.414 . S
C472 C475 1.499 . S
C473 H447 0.950 . S
C473 C472 1.414 . S
C473 C474 1.374 . S
C474 H448 0.950 . S
C474 C470 1.385 . S
C474 C473 1.374 . S
C475 C472 1.499 . S
C475 C476 1.373 . S
C475 C477 1.389 . S
C476 H449 0.950 . S
C476 C462 1.377 . S
C476 C475 1.373 . S
C477 C461 1.377 . S
C477 C475 1.389 . S
C477 C478 1.524 1_545 S
C478 C477 1.524 1_565 S
C478 C479 1.397 . S
C478 C483 1.363 . S
C479 H450 0.950 . S
C479 C478 1.397 . S
C479 C480 1.334 . S
C480 H451 0.950 . S
C480 C479 1.334 . S
C480 C481 1.287 . S
C481 C480 1.287 . S
C481 C482 1.524 . S
C481 H484 0.999 . S
C482 H452 0.950 . S
C482 C481 1.524 . S
C482 C483 1.415 . S
C483 H453 0.950 1_565 S
C483 C478 1.363 . S
C483 C482 1.415 . S
H484 C481 0.999 . S
H485 C466 0.913 . S
H486 C504 0.951 . S
H487 C506 0.951 . S
H488 C508 0.950 . S
H489 C509 0.950 . S
H490 C511 0.950 . S
H491 C514 0.950 . S
H492 C515 0.950 . S
H493 C517 0.950 . S
H494 C518 0.950 . S
H495 C519 0.951 . S
H496 C521 0.951 . S
H497 C523 0.950 . S
H498 C524 0.950 . S
H499 C526 0.950 . S
H500 C529 0.950 . S
H501 C530 0.950 . S
H502 C532 0.950 . S
H503 C533 0.950 . S
C504 H486 0.951 . S
C504 C505 1.366 . S
C504 C506 1.388 . S
C505 C504 1.366 . S
C505 C509 1.385 . S
C506 H487 0.951 . S
C506 C504 1.388 . S
C506 C507 1.366 . S
C507 C506 1.366 . S
C507 C508 1.414 . S
C507 C510 1.499 . S
C508 H488 0.950 . S
C508 C507 1.414 . S
C508 C509 1.374 . S
C509 H489 0.950 . S
C509 C505 1.385 . S
C509 C508 1.374 . S
C510 C507 1.499 . S
C510 C511 1.373 . S
C510 C512 1.389 . S
C511 H490 0.950 . S
C511 C510 1.373 . S
C511 C527 1.377 . S
C512 C510 1.389 . S
C512 C513 1.524 . S
C512 C526 1.377 . S
C513 C512 1.524 . S
C513 C514 1.397 . S
C513 C518 1.363 . S
C514 H491 0.950 . S
C514 C513 1.397 . S
C514 C515 1.334 . S
C515 H492 0.950 . S
C515 C514 1.334 . S
C515 C516 1.287 . S
C516 C515 1.287 . S
C516 C517 1.524 . S
C516 H535 0.913 . S
C517 H493 0.950 . S
C517 C516 1.524 . S
C517 C518 1.415 . S
C518 H494 0.950 . S
C518 C513 1.363 . S
C518 C517 1.415 . S
C519 H495 0.951 . S
C519 C520 1.366 . S
C519 C521 1.388 . S
C520 C519 1.366 . S
C520 C524 1.385 . S
C521 H496 0.951 . S
C521 C519 1.388 . S
C521 C522 1.366 . S
C522 C521 1.366 . S
C522 C523 1.414 . S
C522 C525 1.499 . S
C523 H497 0.950 . S
C523 C522 1.414 . S
C523 C524 1.374 . S
C524 H498 0.950 . S
C524 C520 1.385 . S
C524 C523 1.374 . S
C525 C522 1.499 . S
C525 C526 1.373 . S
C525 C527 1.389 . S
C526 H499 0.950 . S
C526 C512 1.377 . S
C526 C525 1.373 . S
C527 C511 1.377 . S
C527 C525 1.389 . S
C527 C528 1.524 . S
C528 C527 1.524 . S
C528 C529 1.397 1_455 S
C528 C533 1.363 . S
C529 H500 0.950 . S
C529 C528 1.397 1_655 S
C529 C530 1.334 . S
C530 H501 0.950 . S
C530 C529 1.334 . S
C530 C531 1.287 . S
C531 C530 1.287 . S
C531 C532 1.524 1_655 S
C531 H534 0.999 . S
C532 H502 0.950 . S
C532 C531 1.524 1_455 S
C532 C533 1.415 . S
C533 H503 0.950 . S
C533 C528 1.363 . S
C533 C532 1.415 . S
H534 C531 0.999 . S
H535 C516 0.913 . S
H536 C554 0.951 . S
H537 C556 0.951 . S
H538 C558 0.950 . S
H539 C559 0.950 . S
H540 C561 0.950 . S
H541 C564 0.950 . S
H542 C565 0.950 . S
H543 C567 0.950 . S
H544 C568 0.950 . S
H545 C569 0.951 . S
H546 C571 0.951 . S
H547 C573 0.950 . S
H548 C574 0.950 . S
H549 C576 0.950 . S
H550 C579 0.950 . S
H551 C580 0.951 . S
H552 C582 0.949 1_565 S
H553 C583 0.950 . S
C554 H536 0.951 . S
C554 C555 1.366 . S
C554 C556 1.388 . S
C555 C554 1.366 . S
C555 C559 1.385 . S
C556 H537 0.951 . S
C556 C554 1.388 . S
C556 C557 1.366 . S
C557 C556 1.366 . S
C557 C558 1.414 . S
C557 C560 1.499 . S
C558 H538 0.950 . S
C558 C557 1.414 . S
C558 C559 1.374 . S
C559 H539 0.950 . S
C559 C555 1.385 . S
C559 C558 1.374 . S
C560 C557 1.499 . S
C560 C561 1.373 . S
C560 C562 1.389 . S
C561 H540 0.950 . S
C561 C560 1.373 . S
C561 C577 1.377 . S
C562 C560 1.389 . S
C562 C563 1.524 . S
C562 C576 1.377 . S
C563 C562 1.524 . S
C563 C564 1.397 . S
C563 C568 1.363 . S
C564 H541 0.950 . S
C564 C563 1.397 . S
C564 C565 1.334 . S
C565 H542 0.950 . S
C565 C564 1.334 . S
C565 C566 1.287 . S
C566 C565 1.287 . S
C566 C567 1.524 . S
C566 H585 0.913 . S
C567 H543 0.950 . S
C567 C566 1.524 . S
C567 C568 1.415 . S
C568 H544 0.950 . S
C568 C563 1.363 . S
C568 C567 1.415 . S
C569 H545 0.951 . S
C569 C570 1.366 . S
C569 C571 1.388 . S
C570 C569 1.366 . S
C570 C574 1.385 . S
C571 H546 0.951 . S
C571 C569 1.388 . S
C571 C572 1.366 . S
C572 C571 1.366 . S
C572 C573 1.414 . S
C572 C575 1.499 . S
C573 H547 0.950 . S
C573 C572 1.414 . S
C573 C574 1.374 . S
C574 H548 0.950 . S
C574 C570 1.385 . S
C574 C573 1.374 . S
C575 C572 1.499 . S
C575 C576 1.373 . S
C575 C577 1.389 . S
C576 H549 0.950 . S
C576 C562 1.377 . S
C576 C575 1.373 . S
C577 C561 1.377 . S
C577 C575 1.389 . S
C577 C578 1.524 . S
C578 C577 1.524 . S
C578 C579 1.397 . S
C578 C583 1.363 . S
C579 H550 0.950 . S
C579 C578 1.397 . S
C579 C580 1.334 . S
C580 H551 0.951 . S
C580 C579 1.334 . S
C580 C581 1.287 1_545 S
C581 C580 1.287 1_565 S
C581 C582 1.524 1_565 S
C581 H584 0.999 . S
C582 H552 0.949 1_545 S
C582 C581 1.524 1_545 S
C582 C583 1.415 . S
C583 H553 0.950 . S
C583 C578 1.363 . S
C583 C582 1.415 . S
H584 C581 0.999 . S
H585 C566 0.913 . S
H586 C604 0.951 . S
H587 C606 0.951 . S
H588 C608 0.950 . S
H589 C609 0.950 . S
H590 C611 0.950 1_655 S
H591 C614 0.950 . S
H592 C615 0.950 . S
H593 C617 0.950 . S
H594 C618 0.950 . S
H595 C619 0.951 . S
H596 C621 0.951 . S
H597 C623 0.950 1_455 S
H598 C624 0.950 . S
H599 C626 0.950 . S
H600 C629 0.950 . S
H601 C630 0.950 . S
H602 C632 0.950 . S
H603 C633 0.950 . S
C604 H586 0.951 . S
C604 C605 1.366 . S
C604 C606 1.388 . S
C605 C604 1.366 . S
C605 C609 1.385 . S
C606 H587 0.951 . S
C606 C604 1.388 . S
C606 C607 1.366 . S
C607 C606 1.366 . S
C607 C608 1.414 . S
C607 C610 1.499 . S
C608 H588 0.950 . S
C608 C607 1.414 . S
C608 C609 1.374 . S
C609 H589 0.950 . S
C609 C605 1.385 . S
C609 C608 1.374 . S
C610 C607 1.499 . S
C610 C611 1.373 . S
C610 C612 1.389 . S
C611 H590 0.950 1_455 S
C611 C610 1.373 . S
C611 C627 1.377 1_455 S
C612 C610 1.389 . S
C612 C613 1.524 . S
C612 C626 1.377 . S
C613 C612 1.524 . S
C613 C614 1.397 . S
C613 C618 1.363 . S
C614 H591 0.950 . S
C614 C613 1.397 . S
C614 C615 1.334 . S
C615 H592 0.950 . S
C615 C614 1.334 . S
C615 C616 1.287 . S
C616 C615 1.287 . S
C616 C617 1.524 . S
C616 H635 0.913 . S
C617 H593 0.950 . S
C617 C616 1.524 . S
C617 C618 1.415 . S
C618 H594 0.950 . S
C618 C613 1.363 . S
C618 C617 1.415 . S
C619 H595 0.951 . S
C619 C620 1.366 . S
C619 C621 1.388 . S
C620 C619 1.366 . S
C620 C624 1.385 . S
C621 H596 0.951 . S
C621 C619 1.388 . S
C621 C622 1.366 . S
C622 C621 1.366 . S
C622 C623 1.414 . S
C622 C625 1.499 1_655 S
C623 H597 0.950 1_655 S
C623 C622 1.414 . S
C623 C624 1.374 . S
C624 H598 0.950 . S
C624 C620 1.385 . S
C624 C623 1.374 . S
C625 C622 1.499 1_455 S
C625 C626 1.373 . S
C625 C627 1.389 1_455 S
C626 H599 0.950 . S
C626 C612 1.377 . S
C626 C625 1.373 . S
C627 C611 1.377 1_655 S
C627 C625 1.389 1_655 S
C627 C628 1.524 . S
C628 C627 1.524 . S
C628 C629 1.397 . S
C628 C633 1.363 . S
C629 H600 0.950 . S
C629 C628 1.397 . S
C629 C630 1.334 . S
C630 H601 0.950 . S
C630 C629 1.334 . S
C630 C631 1.287 . S
C631 C630 1.287 . S
C631 C632 1.524 . S
C631 H634 0.999 . S
C632 H602 0.950 . S
C632 C631 1.524 . S
C632 C633 1.415 . S
C633 H603 0.950 . S
C633 C628 1.363 . S
C633 C632 1.415 . S
H634 C631 0.999 . S
H635 C616 0.913 . S
H636 C654 0.951 . S
H637 C656 0.951 . S
H638 C658 0.950 . S
H639 C659 0.950 . S
H640 C661 0.950 . S
H641 C664 0.950 . S
H642 C665 0.950 . S
H643 C667 0.950 . S
H644 C668 0.950 . S
H645 C669 0.951 . S
H646 C671 0.951 . S
H647 C673 0.950 . S
H648 C674 0.950 . S
H649 C676 0.950 . S
H650 C679 0.950 . S
H651 C680 0.950 . S
H652 C682 0.950 . S
H653 C683 0.950 1_565 S
C654 H636 0.951 . S
C654 C655 1.366 . S
C654 C656 1.388 . S
C655 C654 1.366 . S
C655 C659 1.385 . S
C656 H637 0.951 . S
C656 C654 1.388 . S
C656 C657 1.366 . S
C657 C656 1.366 . S
C657 C658 1.414 . S
C657 C660 1.499 . S
C658 H638 0.950 . S
C658 C657 1.414 . S
C658 C659 1.374 . S
C659 H639 0.950 . S
C659 C655 1.385 . S
C659 C658 1.374 . S
C660 C657 1.499 . S
C660 C661 1.373 . S
C660 C662 1.389 . S
C661 H640 0.950 . S
C661 C660 1.373 . S
C661 C677 1.377 . S
C662 C660 1.389 . S
C662 C663 1.524 . S
C662 C676 1.377 . S
C663 C662 1.524 . S
C663 C664 1.397 . S
C663 C668 1.363 . S
C664 H641 0.950 . S
C664 C663 1.397 . S
C664 C665 1.334 . S
C665 H642 0.950 . S
C665 C664 1.334 . S
C665 C666 1.287 . S
C666 C665 1.287 . S
C666 C667 1.524 . S
C666 H685 0.913 . S
C667 H643 0.950 . S
C667 C666 1.524 . S
C667 C668 1.415 . S
C668 H644 0.950 . S
C668 C663 1.363 . S
C668 C667 1.415 . S
C669 H645 0.951 . S
C669 C670 1.366 . S
C669 C671 1.388 . S
C670 C669 1.366 . S
C670 C674 1.385 . S
C671 H646 0.951 . S
C671 C669 1.388 . S
C671 C672 1.366 . S
C672 C671 1.366 . S
C672 C673 1.414 . S
C672 C675 1.499 . S
C673 H647 0.950 . S
C673 C672 1.414 . S
C673 C674 1.374 . S
C674 H648 0.950 . S
C674 C670 1.385 . S
C674 C673 1.374 . S
C675 C672 1.499 . S
C675 C676 1.373 . S
C675 C677 1.389 . S
C676 H649 0.950 . S
C676 C662 1.377 . S
C676 C675 1.373 . S
C677 C661 1.377 . S
C677 C675 1.389 . S
C677 C678 1.524 . S
C678 C677 1.524 . S
C678 C679 1.397 1_565 S
C678 C683 1.363 1_565 S
C679 H650 0.950 . S
C679 C678 1.397 1_545 S
C679 C680 1.334 . S
C680 H651 0.950 . S
C680 C679 1.334 . S
C680 C681 1.287 . S
C681 C680 1.287 . S
C681 C682 1.524 . S
C681 H684 0.999 . S
C682 H652 0.950 . S
C682 C681 1.524 . S
C682 C683 1.415 . S
C683 H653 0.950 1_545 S
C683 C678 1.363 1_545 S
C683 C682 1.415 . S
H684 C681 0.999 . S
H685 C666 0.913 . S
H686 C704 0.951 . S
H687 C706 0.951 . S
H688 C708 0.950 . S
H689 C709 0.950 . S
H690 C711 0.950 . S
H691 C714 0.950 . S
H692 C715 0.950 . S
H693 C717 0.950 . S
H694 C718 0.950 . S
H695 C719 0.951 . S
H696 C721 0.951 . S
H697 C723 0.950 1_556 S
H698 C724 0.950 . S
H699 C726 0.950 . S
H700 C729 0.950 . S
H701 C730 0.950 . S
H702 C732 0.950 . S
H703 C733 0.950 . S
C704 H686 0.951 . S
C704 C705 1.366 . S
C704 C706 1.388 . S
C705 C704 1.366 . S
C705 C709 1.385 . S
C706 H687 0.951 . S
C706 C704 1.388 . S
C706 C707 1.366 . S
C707 C706 1.366 . S
C707 C708 1.414 . S
C707 C710 1.499 . S
C708 H688 0.950 . S
C708 C707 1.414 . S
C708 C709 1.374 . S
C709 H689 0.950 . S
C709 C705 1.385 . S
C709 C708 1.374 . S
C710 C707 1.499 . S
C710 C711 1.373 . S
C710 C712 1.389 . S
C711 H690 0.950 . S
C711 C710 1.373 . S
C711 C727 1.377 . S
C712 C710 1.389 . S
C712 C713 1.524 . S
C712 C726 1.377 . S
C713 C712 1.524 . S
C713 C714 1.397 . S
C713 C718 1.363 . S
C714 H691 0.950 . S
C714 C713 1.397 . S
C714 C715 1.334 . S
C715 H692 0.950 . S
C715 C714 1.334 . S
C715 C716 1.287 . S
C716 C715 1.287 . S
C716 C717 1.524 . S
C716 H735 0.913 . S
C717 H693 0.950 . S
C717 C716 1.524 . S
C717 C718 1.415 . S
C718 H694 0.950 . S
C718 C713 1.363 . S
C718 C717 1.415 . S
C719 H695 0.951 . S
C719 C720 1.366 . S
C719 C721 1.388 1_554 S
C720 C719 1.366 . S
C720 C724 1.385 . S
C721 H696 0.951 . S
C721 C719 1.388 1_556 S
C721 C722 1.366 . S
C722 C721 1.366 . S
C722 C723 1.414 1_556 S
C722 C725 1.499 . S
C723 H697 0.950 1_554 S
C723 C722 1.414 1_554 S
C723 C724 1.374 . S
C724 H698 0.950 . S
C724 C720 1.385 . S
C724 C723 1.374 . S
C725 C722 1.499 . S
C725 C726 1.373 . S
C725 C727 1.389 . S
C726 H699 0.950 . S
C726 C712 1.377 . S
C726 C725 1.373 . S
C727 C711 1.377 . S
C727 C725 1.389 . S
C727 C728 1.524 . S
C728 C727 1.524 . S
C728 C729 1.397 . S
C728 C733 1.363 . S
C729 H700 0.950 . S
C729 C728 1.397 . S
C729 C730 1.334 . S
C730 H701 0.950 . S
C730 C729 1.334 . S
C730 C731 1.287 . S
C731 C730 1.287 . S
C731 C732 1.524 . S
C731 H734 0.999 . S
C732 H702 0.950 . S
C732 C731 1.524 . S
C732 C733 1.415 . S
C733 H703 0.950 . S
C733 C728 1.363 . S
C733 C732 1.415 . S
H734 C731 0.999 . S
H735 C716 0.913 . S
H736 C754 0.951 . S
H737 C756 0.951 . S
H738 C758 0.950 . S
H739 C759 0.950 . S
H740 C761 0.950 . S
H741 C764 0.950 . S
H742 C765 0.950 . S
H743 C767 0.950 . S
H744 C768 0.950 . S
H745 C769 0.951 . S
H746 C771 0.951 . S
H747 C773 0.950 . S
H748 C774 0.950 1_455 S
H749 C776 0.950 . S
H750 C779 0.950 . S
H751 C780 0.950 . S
H752 C782 0.950 . S
H753 C783 0.950 . S
C754 H736 0.951 . S
C754 C755 1.366 . S
C754 C756 1.388 . S
C755 C754 1.366 . S
C755 C759 1.385 1_545 S
C756 H737 0.951 . S
C756 C754 1.388 . S
C756 C757 1.366 1_545 S
C757 C756 1.366 1_565 S
C757 C758 1.414 . S
C757 C760 1.499 . S
C758 H738 0.950 . S
C758 C757 1.414 . S
C758 C759 1.374 . S
C759 H739 0.950 . S
C759 C755 1.385 1_565 S
C759 C758 1.374 . S
C760 C757 1.499 . S
C760 C761 1.373 . S
C760 C762 1.389 . S
C761 H740 0.950 . S
C761 C760 1.373 . S
C761 C777 1.377 . S
C762 C760 1.389 . S
C762 C763 1.524 1_565 S
C762 C776 1.377 . S
C763 C762 1.524 1_545 S
C763 C764 1.397 . S
C763 C768 1.363 . S
C764 H741 0.950 . S
C764 C763 1.397 . S
C764 C765 1.334 . S
C765 H742 0.950 . S
C765 C764 1.334 . S
C765 C766 1.287 . S
C766 C765 1.287 . S
C766 C767 1.524 . S
C766 H785 0.913 . S
C767 H743 0.950 . S
C767 C766 1.524 . S
C767 C768 1.415 . S
C768 H744 0.950 . S
C768 C763 1.363 . S
C768 C767 1.415 . S
C769 H745 0.951 . S
C769 C770 1.366 . S
C769 C771 1.388 . S
C770 C769 1.366 . S
C770 C774 1.385 . S
C771 H746 0.951 . S
C771 C769 1.388 . S
C771 C772 1.366 . S
C772 C771 1.366 . S
C772 C773 1.414 . S
C772 C775 1.499 . S
C773 H747 0.950 . S
C773 C772 1.414 . S
C773 C774 1.374 . S
C774 H748 0.950 1_655 S
C774 C770 1.385 . S
C774 C773 1.374 . S
C775 C772 1.499 . S
C775 C776 1.373 . S
C775 C777 1.389 . S
C776 H749 0.950 . S
C776 C762 1.377 . S
C776 C775 1.373 . S
C777 C761 1.377 . S
C777 C775 1.389 . S
C777 C778 1.524 . S
C778 C777 1.524 . S
C778 C779 1.397 . S
C778 C783 1.363 . S
C779 H750 0.950 . S
C779 C778 1.397 . S
C779 C780 1.334 . S
C780 H751 0.950 . S
C780 C779 1.334 . S
C780 C781 1.287 . S
C781 C780 1.287 . S
C781 C782 1.524 . S
C781 H784 0.999 . S
C782 H752 0.950 . S
C782 C781 1.524 . S
C782 C783 1.415 . S
C783 H753 0.950 . S
C783 C778 1.363 . S
C783 C782 1.415 . S
H784 C781 0.999 . S
H785 C766 0.913 . S
H786 C804 0.951 . S
H787 C806 0.951 . S
H788 C808 0.950 . S
H789 C809 0.950 . S
H790 C811 0.950 . S
H791 C814 0.950 . S
H792 C815 0.950 1_545 S
H793 C817 0.950 . S
H794 C818 0.950 . S
H795 C819 0.951 . S
H796 C821 0.951 . S
H797 C823 0.950 . S
H798 C824 0.950 . S
H799 C826 0.950 . S
H800 C829 0.950 . S
H801 C830 0.950 . S
H802 C832 0.950 . S
H803 C833 0.950 . S
C804 H786 0.951 . S
C804 C805 1.366 . S
C804 C806 1.388 . S
C805 C804 1.366 . S
C805 C809 1.385 . S
C806 H787 0.951 . S
C806 C804 1.388 . S
C806 C807 1.366 . S
C807 C806 1.366 . S
C807 C808 1.414 . S
C807 C810 1.499 . S
C808 H788 0.950 . S
C808 C807 1.414 . S
C808 C809 1.374 . S
C809 H789 0.950 . S
C809 C805 1.385 . S
C809 C808 1.374 . S
C810 C807 1.499 . S
C810 C811 1.373 . S
C810 C812 1.389 . S
C811 H790 0.950 . S
C811 C810 1.373 . S
C811 C827 1.377 . S
C812 C810 1.389 . S
C812 C813 1.524 . S
C812 C826 1.377 . S
C813 C812 1.524 . S
C813 C814 1.397 . S
C813 C818 1.363 . S
C814 H791 0.950 . S
C814 C813 1.397 . S
C814 C815 1.334 . S
C815 H792 0.950 1_565 S
C815 C814 1.334 . S
C815 C816 1.287 . S
C816 C815 1.287 . S
C816 C817 1.524 . S
C816 H835 0.913 1_565 S
C817 H793 0.950 . S
C817 C816 1.524 . S
C817 C818 1.415 . S
C818 H794 0.950 . S
C818 C813 1.363 . S
C818 C817 1.415 . S
C819 H795 0.951 . S
C819 C820 1.366 . S
C819 C821 1.388 . S
C820 C819 1.366 . S
C820 C824 1.385 . S
C821 H796 0.951 . S
C821 C819 1.388 . S
C821 C822 1.366 . S
C822 C821 1.366 . S
C822 C823 1.414 . S
C822 C825 1.499 . S
C823 H797 0.950 . S
C823 C822 1.414 . S
C823 C824 1.374 . S
C824 H798 0.950 . S
C824 C820 1.385 . S
C824 C823 1.374 . S
C825 C822 1.499 . S
C825 C826 1.373 . S
C825 C827 1.389 . S
C826 H799 0.950 . S
C826 C812 1.377 . S
C826 C825 1.373 . S
C827 C811 1.377 . S
C827 C825 1.389 . S
C827 C828 1.524 . S
C828 C827 1.524 . S
C828 C829 1.397 . S
C828 C833 1.363 . S
C829 H800 0.950 . S
C829 C828 1.397 . S
C829 C830 1.334 . S
C830 H801 0.950 . S
C830 C829 1.334 . S
C830 C831 1.287 . S
C831 C830 1.287 . S
C831 C832 1.524 . S
C831 H834 0.999 . S
C832 H802 0.950 . S
C832 C831 1.524 . S
C832 C833 1.415 . S
C833 H803 0.950 . S
C833 C828 1.363 . S
C833 C832 1.415 . S
H834 C831 0.999 . S
H835 C816 0.913 1_545 S
H836 C854 0.951 . S
H837 C856 0.951 . S
H838 C858 0.950 . S
H839 C859 0.950 . S
H840 C861 0.950 . S
H841 C864 0.950 . S
H842 C865 0.950 . S
H843 C867 0.950 . S
H844 C868 0.950 . S
H845 C869 0.951 . S
H846 C871 0.951 . S
H847 C873 0.950 . S
H848 C874 0.950 1_554 S
H849 C876 0.950 . S
H850 C879 0.950 . S
H851 C880 0.950 . S
H852 C882 0.950 . S
H853 C883 0.950 . S
C854 H836 0.951 . S
C854 C855 1.366 . S
C854 C856 1.388 . S
C855 C854 1.366 . S
C855 C859 1.385 . S
C856 H837 0.951 . S
C856 C854 1.388 . S
C856 C857 1.366 . S
C857 C856 1.366 . S
C857 C858 1.414 . S
C857 C860 1.499 . S
C858 H838 0.950 . S
C858 C857 1.414 . S
C858 C859 1.374 . S
C859 H839 0.950 . S
C859 C855 1.385 . S
C859 C858 1.374 . S
C860 C857 1.499 . S
C860 C861 1.373 . S
C860 C862 1.389 . S
C861 H840 0.950 . S
C861 C860 1.373 . S
C861 C877 1.377 . S
C862 C860 1.389 . S
C862 C863 1.524 . S
C862 C876 1.377 . S
C863 C862 1.524 . S
C863 C864 1.397 . S
C863 C868 1.363 . S
C864 H841 0.950 . S
C864 C863 1.397 . S
C864 C865 1.334 . S
C865 H842 0.950 . S
C865 C864 1.334 . S
C865 C866 1.287 . S
C866 C865 1.287 . S
C866 C867 1.524 . S
C866 H885 0.913 . S
C867 H843 0.950 . S
C867 C866 1.524 . S
C867 C868 1.415 . S
C868 H844 0.950 . S
C868 C863 1.363 . S
C868 C867 1.415 . S
C869 H845 0.951 . S
C869 C870 1.366 . S
C869 C871 1.388 1_554 S
C870 C869 1.366 . S
C870 C874 1.385 1_554 S
C871 H846 0.951 . S
C871 C869 1.388 1_556 S
C871 C872 1.366 . S
C872 C871 1.366 . S
C872 C873 1.414 . S
C872 C875 1.499 . S
C873 H847 0.950 . S
C873 C872 1.414 . S
C873 C874 1.374 . S
C874 H848 0.950 1_556 S
C874 C870 1.385 1_556 S
C874 C873 1.374 . S
C875 C872 1.499 . S
C875 C876 1.373 . S
C875 C877 1.389 . S
C876 H849 0.950 . S
C876 C862 1.377 . S
C876 C875 1.373 . S
C877 C861 1.377 . S
C877 C875 1.389 . S
C877 C878 1.524 . S
C878 C877 1.524 . S
C878 C879 1.397 1_556 S
C878 C883 1.363 . S
C879 H850 0.950 . S
C879 C878 1.397 1_554 S
C879 C880 1.334 . S
C880 H851 0.950 . S
C880 C879 1.334 . S
C880 C881 1.287 . S
C881 C880 1.287 . S
C881 C882 1.524 . S
C881 H884 0.999 . S
C882 H852 0.950 . S
C882 C881 1.524 . S
C882 C883 1.415 1_554 S
C883 H853 0.950 . S
C883 C878 1.363 . S
C883 C882 1.415 1_556 S
H884 C881 0.999 . S
H885 C866 0.913 . S
H886 C904 0.951 . S
H887 C906 0.951 . S
H888 C908 0.950 . S
H889 C909 0.950 . S
H890 C911 0.950 1_455 S
H891 C914 0.950 . S
H892 C915 0.950 . S
H893 C917 0.950 . S
H894 C918 0.950 . S
H895 C919 0.951 . S
H896 C921 0.951 . S
H897 C923 0.963 . S
H898 C924 0.950 . S
H899 C926 0.950 . S
H900 C929 0.950 . S
H901 C930 0.950 . S
H902 C932 0.950 . S
H903 C933 0.950 . S
C904 H886 0.951 . S
C904 C905 1.366 . S
C904 C906 1.388 . S
C905 C904 1.366 . S
C905 C909 1.385 . S
C906 H887 0.951 . S
C906 C904 1.388 . S
C906 C907 1.366 . S
C907 C906 1.366 . S
C907 C908 1.414 . S
C907 C910 1.499 . S
C908 H888 0.950 . S
C908 C907 1.414 . S
C908 C909 1.374 . S
C909 H889 0.950 . S
C909 C905 1.385 . S
C909 C908 1.374 . S
C910 C907 1.499 . S
C910 C911 1.373 . S
C910 C912 1.389 . S
C911 H890 0.950 1_655 S
C911 C910 1.373 . S
C911 C927 1.377 1_655 S
C912 C910 1.389 . S
C912 C913 1.524 . S
C912 C926 1.377 . S
C913 C912 1.524 . S
C913 C914 1.397 . S
C913 C918 1.363 . S
C914 H891 0.950 . S
C914 C913 1.397 . S
C914 C915 1.334 . S
C915 H892 0.950 . S
C915 C914 1.334 . S
C915 C916 1.287 . S
C916 C915 1.287 . S
C916 C917 1.524 . S
C916 H935 0.913 . S
C917 H893 0.950 . S
C917 C916 1.524 . S
C917 C918 1.415 . S
C918 H894 0.950 . S
C918 C913 1.363 . S
C918 C917 1.415 . S
C919 H895 0.951 . S
C919 C920 1.366 . S
C919 C921 1.388 . S
C920 C919 1.366 . S
C920 C924 1.385 . S
C921 H896 0.951 . S
C921 C919 1.388 . S
C921 C922 1.366 . S
C922 C921 1.366 . S
C922 C923 1.407 1_455 S
C922 C925 1.499 1_455 S
C923 H897 0.963 . S
C923 C922 1.407 1_655 S
C923 C924 1.369 1_655 S
C924 H898 0.950 . S
C924 C920 1.385 . S
C924 C923 1.369 1_455 S
C925 C922 1.499 1_655 S
C925 C926 1.373 . S
C925 C927 1.389 1_655 S
C926 H899 0.950 . S
C926 C912 1.377 . S
C926 C925 1.373 . S
C927 C911 1.377 1_455 S
C927 C925 1.389 1_455 S
C927 C928 1.524 . S
C928 C927 1.524 . S
C928 C929 1.397 . S
C928 C933 1.363 . S
C929 H900 0.950 . S
C929 C928 1.397 . S
C929 C930 1.334 . S
C930 H901 0.950 . S
C930 C929 1.334 . S
C930 C931 1.287 . S
C931 C930 1.287 . S
C931 C932 1.524 . S
C931 H934 0.999 . S
C932 H902 0.950 . S
C932 C931 1.524 . S
C932 C933 1.415 . S
C933 H903 0.950 . S
C933 C928 1.363 . S
C933 C932 1.415 . S
H934 C931 0.999 . S
H935 C916 0.913 . S
C355 C231 0.979 . S
C370 C74 0.979 . S
C405 C315 0.482 . S
C420 C158 0.482 . S
C455 C242 1.141 . S
C470 C63 1.141 . S
C505 C147 1.210 . S
C520 C326 1.210 . S
C555 C140 1.932 . S
C570 C67 2.070 . S
C605 C151 2.243 . S
C620 C226 2.250 . S
C655 C310 1.055 . S
C670 C238 0.903 . S
C705 C322 0.740 . S
C720 C56 0.717 . S
C755 C224 2.070 . S
C770 C319 1.932 . S
C805 C70 2.250 . S
C820 C308 2.242 . S
C855 C154 1.053 . S
C870 C58 0.904 . S
C905 C235 0.718 . S
C920 C142 0.739 . S
