# Generated by pormake.
# Topology smi, (6)-cn, num edge types: 1
# Building blocks:
#     Node 0, Type 0, BuildingBlock: IZENUY_clean_sbu_0, # of connection points: 6
#     Node 1, Type 0, BuildingBlock: IZENUY_clean_sbu_0, # of connection points: 6
#     Node 2, Type 0, BuildingBlock: IZENUY_clean_sbu_0, # of connection points: 6
#     Node 3, Type 0, BuildingBlock: IZENUY_clean_sbu_0, # of connection points: 6
#     Node 4, Type 0, BuildingBlock: IZENUY_clean_sbu_0, # of connection points: 6
#     Node 5, Type 0, BuildingBlock: IZENUY_clean_sbu_0, # of connection points: 6
#     Edge 6, Type (0, 0), BuildingBlock: UVAHIK_clean_linker_0, # of connection points: 2
#     Edge 7, Type (0, 0), BuildingBlock: UVAHIK_clean_linker_0, # of connection points: 2
#     Edge 8, Type (0, 0), BuildingBlock: UVAHIK_clean_linker_0, # of connection points: 2
#     Edge 9, Type (0, 0), BuildingBlock: UVAHIK_clean_linker_0, # of connection points: 2
#     Edge 10, Type (0, 0), BuildingBlock: UVAHIK_clean_linker_0, # of connection points: 2
#     Edge 11, Type (0, 0), BuildingBlock: UVAHIK_clean_linker_0, # of connection points: 2
#     Edge 12, Type (0, 0), BuildingBlock: UVAHIK_clean_linker_0, # of connection points: 2
#     Edge 13, Type (0, 0), BuildingBlock: UVAHIK_clean_linker_0, # of connection points: 2
#     Edge 14, Type (0, 0), BuildingBlock: UVAHIK_clean_linker_0, # of connection points: 2
#     Edge 15, Type (0, 0), BuildingBlock: UVAHIK_clean_linker_0, # of connection points: 2
#     Edge 16, Type (0, 0), BuildingBlock: UVAHIK_clean_linker_0, # of connection points: 2
#     Edge 17, Type (0, 0), BuildingBlock: UVAHIK_clean_linker_0, # of connection points: 2
#     Edge 18, Type (0, 0), BuildingBlock: UVAHIK_clean_linker_0, # of connection points: 2
#     Edge 19, Type (0, 0), BuildingBlock: UVAHIK_clean_linker_0, # of connection points: 2
#     Edge 20, Type (0, 0), BuildingBlock: UVAHIK_clean_linker_0, # of connection points: 2
#     Edge 21, Type (0, 0), BuildingBlock: UVAHIK_clean_linker_0, # of connection points: 2
#     Edge 22, Type (0, 0), BuildingBlock: UVAHIK_clean_linker_0, # of connection points: 2
#     Edge 23, Type (0, 0), BuildingBlock: UVAHIK_clean_linker_0, # of connection points: 2
# Relax obj value: 0.337
# Max RMSD: 0.277
# Mean RMSD: 0.276
data_MOF--net-smi--node1-IZENUY_clean_sbu_0--edge1-UVAHIK_clean_linker_0
_symmetry_space_group_name_H-M    P1
_symmetry_Int_Tables_number       1
_symmetry_cell_setting            triclinic
loop_
_symmetry_equiv_pos_as_xyz
'x, y, z'
_cell_length_a     34.409879
_cell_length_b     34.346428
_cell_length_c     51.079292
_cell_angle_alpha  89.939825
_cell_angle_beta   90.156345
_cell_angle_gamma 120.26212
loop_
_atom_site_label
_atom_site_type_symbol
_atom_site_fract_x
_atom_site_fract_y
_atom_site_fract_z
_atom_type_partial_charge
Fe0 Fe 0.09582 0.55827 0.10756 0.0
Fe1 Fe 0.18558 0.5823 0.08199 0.0
O2 O 0.12633 0.55555 0.08037 0.0
Fe3 Fe 0.09774 0.52626 0.05157 0.0
O4 O 0.07384 0.5619 0.0473 0.0
O5 O 0.05068 0.55821 0.0877 0.0
O6 O 0.12492 0.6194 0.1066 0.0
C7 C 0.16711 0.64396 0.10809 0.0
C8 C 0.04222 0.47041 0.09272 0.0
O9 O 0.19245 0.62794 0.10353 0.0
C10 C 0.16135 0.50168 0.0542 0.0
O11 O 0.13515 0.55847 0.1323 0.0
O12 O 0.18288 0.54768 0.10938 0.0
O13 O 0.04752 0.48275 0.06894 0.0
O14 O 0.06524 0.49769 0.11056 0.0
C15 C 0.17443 0.60499 0.03247 0.0
O16 O 0.18986 0.54169 0.0607 0.0
O17 O 0.11998 0.48853 0.05352 0.0
C18 C 0.16418 0.54609 0.13087 0.0
O19 O 0.19173 0.61863 0.05477 0.0
O20 O 0.1427 0.56474 0.02914 0.0
C21 C 0.04954 0.56702 0.06365 0.0
Fe22 Fe 0.55859 0.09707 0.22101 0.0
Fe23 Fe 0.58132 0.18394 0.24979 0.0
O24 O 0.55562 0.12461 0.24958 0.0
Fe25 Fe 0.52711 0.09298 0.27776 0.0
O26 O 0.5634 0.06928 0.27984 0.0
O27 O 0.55899 0.05028 0.23852 0.0
O28 O 0.61974 0.12687 0.22193 0.0
C29 C 0.64328 0.1693 0.22086 0.0
C30 C 0.47105 0.04183 0.23551 0.0
O31 O 0.62654 0.19342 0.22716 0.0
C32 C 0.50153 0.15626 0.27868 0.0
O33 O 0.55822 0.13835 0.19824 0.0
O34 O 0.54552 0.18262 0.22332 0.0
O35 O 0.48358 0.04423 0.25915 0.0
O36 O 0.49818 0.06644 0.2181 0.0
C37 C 0.60547 0.16894 0.298 0.0
O38 O 0.54115 0.18566 0.27242 0.0
O39 O 0.48884 0.11488 0.27823 0.0
C40 C 0.54416 0.1658 0.20118 0.0
O41 O 0.61843 0.1886 0.27621 0.0
O42 O 0.56579 0.13606 0.30099 0.0
C43 C 0.56901 0.04735 0.26203 0.0
Fe44 Fe 0.40858 0.59473 0.41747 0.0
Fe45 Fe 0.441 0.53785 0.44615 0.0
O46 O 0.44136 0.56841 0.41805 0.0
Fe47 Fe 0.47453 0.5729 0.39047 0.0
O48 O 0.50656 0.63413 0.39241 0.0
O49 O 0.44692 0.64117 0.39621 0.0
O50 O 0.43921 0.63005 0.44501 0.0
C51 C 0.44291 0.61546 0.46699 0.0
C52 C 0.39325 0.56023 0.36813 0.0
O53 O 0.43484 0.57528 0.46954 0.0
C54 C 0.43976 0.4842 0.40349 0.0
O55 O 0.36394 0.5532 0.43858 0.0
O56 O 0.3807 0.49998 0.44436 0.0
O57 O 0.43495 0.57373 0.36637 0.0
O58 O 0.37619 0.56101 0.3898 0.0
C59 C 0.53017 0.57995 0.43357 0.0
O60 O 0.44721 0.49501 0.42753 0.0
O61 O 0.4445 0.51271 0.38644 0.0
C62 C 0.35242 0.51299 0.44436 0.0
O63 O 0.50091 0.57362 0.45036 0.0
O64 O 0.51982 0.57194 0.40955 0.0
C65 C 0.4883 0.65803 0.39108 0.0
Fe66 Fe 0.81763 0.39748 0.5818 0.0
Fe67 Fe 0.90565 0.46898 0.55679 0.0
O68 O 0.87683 0.43147 0.583 0.0
Fe69 Fe 0.90669 0.42763 0.61034 0.0
O70 O 0.88493 0.36784 0.60557 0.0
O71 O 0.81478 0.35079 0.60062 0.0
O72 O 0.82067 0.3694 0.55278 0.0
C73 C 0.83911 0.38924 0.53174 0.0
C74 C 0.82997 0.42524 0.63257 0.0
O75 O 0.8664 0.43148 0.53138 0.0
C76 C 0.95256 0.51885 0.60214 0.0
O77 O 0.80855 0.43733 0.56263 0.0
O78 O 0.87477 0.49865 0.56081 0.0
O79 O 0.86229 0.41745 0.6341 0.0
O80 O 0.81183 0.42392 0.61085 0.0
C81 C 0.96149 0.43527 0.56685 0.0
O82 O 0.9503 0.51272 0.57757 0.0
O83 O 0.93038 0.48654 0.61753 0.0
C84 C 0.8325 0.47946 0.55938 0.0
O85 O 0.93805 0.44211 0.55059 0.0
O86 O 0.95638 0.4375 0.59129 0.0
C87 C 0.84365 0.33906 0.60471 0.0
Fe88 Fe 0.43445 0.91598 0.72331 0.0
Fe89 Fe 0.4055 0.825 0.74965 0.0
O90 O 0.43746 0.8845 0.75001 0.0
Fe91 Fe 0.4729 0.91328 0.7771 0.0
O92 O 0.46632 0.96264 0.774 0.0
O93 O 0.41322 0.94374 0.74456 0.0
O94 O 0.3762 0.87563 0.71455 0.0
C95 C 0.34455 0.84363 0.72698 0.0
C96 C 0.52616 0.96052 0.73588 0.0
O97 O 0.35286 0.82468 0.74553 0.0
C98 C 0.48267 0.83659 0.77245 0.0
O99 O 0.45516 0.88991 0.70061 0.0
O100 O 0.41141 0.82022 0.71436 0.0
O101 O 0.52263 0.93813 0.75626 0.0
O102 O 0.49259 0.96177 0.72678 0.0
C103 C 0.39733 0.8483 0.80189 0.0
O104 O 0.45532 0.82002 0.75367 0.0
O105 O 0.48548 0.86907 0.78552 0.0
C106 C 0.43864 0.84794 0.69776 0.0
O107 O 0.39437 0.82002 0.7849 0.0
O108 O 0.42543 0.88989 0.79946 0.0
C109 C 0.43343 0.96523 0.76498 0.0
Fe110 Fe 0.58917 0.40393 0.91876 0.0
Fe111 Fe 0.57038 0.47502 0.94188 0.0
O112 O 0.56291 0.4367 0.91642 0.0
Fe113 Fe 0.52904 0.43067 0.88883 0.0
O114 O 0.49188 0.37102 0.89456 0.0
O115 O 0.5458 0.35559 0.90035 0.0
O116 O 0.55772 0.37684 0.94803 0.0
C117 C 0.55835 0.39766 0.96848 0.0
C118 C 0.6045 0.42922 0.86759 0.0
O119 O 0.57366 0.43986 0.96811 0.0
C120 C 0.57226 0.52198 0.89556 0.0
O121 O 0.63787 0.44599 0.93759 0.0
O122 O 0.63093 0.50614 0.93784 0.0
O123 O 0.56407 0.42051 0.8658 0.0
O124 O 0.62154 0.42929 0.8895 0.0
C125 C 0.4804 0.43783 0.93152 0.0
O126 O 0.56772 0.51671 0.92017 0.0
O127 O 0.56358 0.48934 0.88079 0.0
C128 C 0.65494 0.4882 0.94005 0.0
O129 O 0.5109 0.44641 0.94801 0.0
O130 O 0.48824 0.44003 0.90714 0.0
C131 C 0.50503 0.34289 0.89556 0.0
C132 C 0.16444 0.5383 0.17978 0.0
C133 C 0.18164 0.53655 0.15513 0.0
C134 C 0.18407 0.53374 0.20274 0.0
C135 C 0.29244 0.55266 0.22693 0.0
H136 H 0.22472 0.48605 0.28795 0.0
C137 C 0.38259 0.54455 0.31995 0.0
C138 C 0.36569 0.54931 0.344 0.0
C139 C 0.35792 0.53725 0.29688 0.0
C140 C 0.24413 0.50513 0.27115 0.0
H141 H 0.23159 0.5263 0.13535 0.0
H142 H 0.26565 0.51842 0.17534 0.0
H143 H 0.18491 0.4834 0.24769 0.0
H144 H 0.30891 0.5488 0.36276 0.0
H145 H 0.26646 0.53722 0.3225 0.0
H146 H 0.35151 0.57556 0.25035 0.0
C147 C 0.23739 0.52393 0.1769 0.0
C148 C 0.22129 0.5035 0.24809 0.0
C149 C 0.21769 0.52827 0.15397 0.0
C150 C 0.32296 0.54529 0.34456 0.0
C151 C 0.29844 0.53835 0.32146 0.0
C152 C 0.31522 0.55454 0.24997 0.0
C153 C 0.22138 0.5275 0.20152 0.0
C154 C 0.24524 0.5274 0.22577 0.0
C155 C 0.31589 0.53488 0.29726 0.0
C156 C 0.29139 0.53098 0.27243 0.0
H157 H 0.13661 0.54446 0.18139 0.0
H158 H 0.17113 0.53687 0.22144 0.0
H159 H 0.31182 0.5721 0.2102 0.0
H160 H 0.41515 0.54692 0.31886 0.0
H161 H 0.372 0.53379 0.27869 0.0
C162 C 0.62427 0.16329 0.34461 0.0
C163 C 0.63529 0.18759 0.32103 0.0
C164 C 0.65091 0.18196 0.36685 0.0
C165 C 0.76168 0.27468 0.38995 0.0
H166 H 0.69614 0.25887 0.45444 0.0
C167 C 0.83654 0.38565 0.48265 0.0
C168 C 0.82347 0.36366 0.50698 0.0
C169 C 0.81794 0.36172 0.45947 0.0
C170 C 0.715 0.26308 0.43668 0.0
H171 H 0.68372 0.24995 0.30203 0.0
H172 H 0.7295 0.28299 0.34104 0.0
H173 H 0.65522 0.22122 0.41488 0.0
H174 H 0.78295 0.29876 0.52596 0.0
H175 H 0.75073 0.25731 0.4856 0.0
H176 H 0.82143 0.31785 0.4119 0.0
C177 C 0.70073 0.2492 0.34225 0.0
C178 C 0.69156 0.24141 0.41399 0.0
C179 C 0.67429 0.23037 0.31993 0.0
C180 C 0.79324 0.31692 0.50758 0.0
C181 C 0.77468 0.29312 0.48448 0.0
C182 C 0.78517 0.29667 0.4127 0.0
C183 C 0.68893 0.22549 0.36607 0.0
C184 C 0.71455 0.24703 0.39033 0.0
C185 C 0.78599 0.31545 0.46027 0.0
C186 C 0.76197 0.2911 0.43625 0.0
H187 H 0.5948 0.12997 0.34598 0.0
H188 H 0.64142 0.16242 0.38475 0.0
H189 H 0.78042 0.2793 0.37209 0.0
H190 H 0.85994 0.42158 0.48153 0.0
H191 H 0.8271 0.37979 0.44105 0.0
C192 C 0.46775 0.85711 0.65168 0.0
C193 C 0.44839 0.82998 0.67391 0.0
C194 C 0.4747 0.83877 0.6289 0.0
C195 C 0.48484 0.74302 0.6046 0.0
H196 H 0.43813 0.76115 0.53944 0.0
C197 C 0.44553 0.6258 0.51569 0.0
C198 C 0.45189 0.64418 0.49041 0.0
C199 C 0.45148 0.65241 0.5377 0.0
C200 C 0.45216 0.75634 0.55732 0.0
H201 H 0.42277 0.76287 0.68997 0.0
H202 H 0.43503 0.73122 0.65046 0.0
H203 H 0.43845 0.80182 0.57858 0.0
H204 H 0.47134 0.70546 0.46849 0.0
H205 H 0.48259 0.75201 0.50687 0.0
H206 H 0.49822 0.69728 0.58351 0.0
C207 C 0.44481 0.76654 0.65056 0.0
C208 C 0.45229 0.77967 0.57976 0.0
C209 C 0.43742 0.78464 0.67313 0.0
C210 C 0.46566 0.69009 0.48768 0.0
C211 C 0.47192 0.71677 0.50969 0.0
C212 C 0.48501 0.71993 0.58214 0.0
C213 C 0.46308 0.79321 0.62812 0.0
C214 C 0.46779 0.77255 0.60373 0.0
C215 C 0.46431 0.69813 0.53497 0.0
C216 C 0.46785 0.72562 0.55833 0.0
H217 H 0.4767 0.89219 0.65169 0.0
H218 H 0.48909 0.86015 0.6119 0.0
H219 H 0.49757 0.73736 0.62276 0.0
H220 H 0.43482 0.59054 0.51849 0.0
H221 H 0.44469 0.63672 0.55682 0.0
C222 C 0.6724 0.43704 0.84472 0.0
C223 C 0.63041 0.43462 0.84348 0.0
C224 C 0.69585 0.44003 0.82184 0.0
C225 C 0.67702 0.41464 0.75141 0.0
H226 H 0.80702 0.48807 0.74726 0.0
C227 C 0.7719 0.43622 0.6553 0.0
C228 C 0.81 0.43126 0.65673 0.0
C229 C 0.7517 0.43992 0.67805 0.0
C230 C 0.77073 0.46719 0.74823 0.0
H231 H 0.58097 0.43523 0.81727 0.0
H232 H 0.62221 0.44112 0.77741 0.0
H233 H 0.76846 0.48927 0.78709 0.0
H234 H 0.85754 0.42768 0.68322 0.0
H235 H 0.82196 0.43395 0.72302 0.0
H236 H 0.67924 0.39251 0.71263 0.0
C237 C 0.63653 0.43969 0.79604 0.0
C238 C 0.74866 0.46783 0.77101 0.0
C239 C 0.61298 0.43651 0.8189 0.0
C240 C 0.82812 0.43126 0.68144 0.0
C241 C 0.80794 0.43513 0.70423 0.0
C242 C 0.69904 0.41415 0.72865 0.0
C243 C 0.67794 0.44089 0.79723 0.0
C244 C 0.70155 0.44145 0.77286 0.0
C245 C 0.7692 0.43892 0.70274 0.0
C246 C 0.7461 0.44032 0.72684 0.0
H247 H 0.68684 0.43574 0.86335 0.0
H248 H 0.72744 0.44043 0.82342 0.0
H249 H 0.6408 0.39323 0.75238 0.0
H250 H 0.75726 0.43674 0.6366 0.0
H251 H 0.72226 0.44349 0.67631 0.0
C252 C 0.22791 0.68059 0.01318 0.0
C253 C 0.19412 0.63533 0.00964 0.0
C254 C 0.2473 0.709 0.99165 0.0
C255 C 0.23036 0.71983 0.92077 0.0
H256 H 0.36017 0.79695 0.92016 0.0
C257 C 0.33303 0.78701 0.82643 0.0
C258 C 0.37027 0.83103 0.82603 0.0
C259 C 0.30907 0.76872 0.84948 0.0
C260 C 0.32383 0.77625 0.92021 0.0
H261 H 0.15376 0.58468 0.98065 0.0
H262 H 0.18812 0.63393 0.94312 0.0
H263 H 0.32303 0.7537 0.95935 0.0
H264 H 0.41064 0.891 0.84936 0.0
H265 H 0.36876 0.85863 0.88995 0.0
H266 H 0.23146 0.74129 0.88127 0.0
C267 C 0.19918 0.64771 0.96256 0.0
C268 C 0.3025 0.75141 0.94267 0.0
C269 C 0.17968 0.61934 0.98409 0.0
C270 C 0.38217 0.85694 0.84907 0.0
C271 C 0.35837 0.83838 0.8723 0.0
C272 C 0.25171 0.74451 0.89829 0.0
C273 C 0.23342 0.69282 0.96606 0.0
C274 C 0.25559 0.72223 0.94304 0.0
C275 C 0.32188 0.79387 0.87277 0.0
C276 C 0.29875 0.77229 0.8976 0.0
H277 H 0.23956 0.69416 0.03261 0.0
H278 H 0.27313 0.7437 0.99506 0.0
H279 H 0.1941 0.69843 0.92058 0.0
H280 H 0.32274 0.76626 0.80897 0.0
H281 H 0.28145 0.7342 0.84925 0.0
C282 C 0.54686 0.17793 0.15296 0.0
C283 C 0.53332 0.18387 0.17781 0.0
C284 C 0.5401 0.19784 0.13098 0.0
C285 C 0.5214 0.29096 0.11198 0.0
H286 H 0.50655 0.23608 0.0437 0.0
C287 C 0.51246 0.32725 0.9939 0.0
C288 C 0.54554 0.37306 0.99346 0.0
C289 C 0.50195 0.30288 0.01721 0.0
C290 C 0.50975 0.25176 0.06257 0.0
H291 H 0.50023 0.21367 0.19902 0.0
H292 H 0.48694 0.24733 0.16037 0.0
H293 H 0.50136 0.19345 0.08253 0.0
H294 H 0.5929 0.42982 0.01695 0.0
H295 H 0.5766 0.38689 0.05743 0.0
H296 H 0.52831 0.3488 0.09197 0.0
C297 C 0.50401 0.22833 0.15799 0.0
C298 C 0.50757 0.22745 0.08492 0.0
C299 C 0.51138 0.20886 0.18011 0.0
C300 C 0.56715 0.39449 0.01684 0.0
C301 C 0.55745 0.36986 0.04008 0.0
C302 C 0.52274 0.31505 0.0896 0.0
C303 C 0.51891 0.22361 0.1332 0.0
C304 C 0.51481 0.24721 0.10985 0.0
C305 C 0.52518 0.32351 0.04049 0.0
C306 C 0.51821 0.29623 0.06454 0.0
H307 H 0.56416 0.15914 0.15053 0.0
H308 H 0.55297 0.19421 0.11239 0.0
H309 H 0.52734 0.30744 0.13082 0.0
H310 H 0.49479 0.31019 0.97614 0.0
H311 H 0.47603 0.26766 0.01684 0.0
C312 C 0.40026 0.41931 0.92433 0.0
C313 C 0.43593 0.42808 0.94138 0.0
C314 C 0.359 0.41149 0.93432 0.0
C315 C 0.29464 0.38755 0.997 0.0
H316 H 0.24489 0.45529 0.96492 0.0
C317 C 0.2176 0.47667 0.05215 0.0
C318 C 0.17785 0.47351 0.04263 0.0
C319 C 0.23758 0.45589 0.03882 0.0
C320 C 0.25774 0.43534 0.97379 0.0
H321 H 0.45569 0.43436 0.98231 0.0
H322 H 0.38524 0.42222 -0.00061 0.0
H323 H 0.30268 0.44753 0.94194 0.0
H324 H 0.12682 0.44507 0.01227 0.0
H325 H 0.16297 0.40992 0.98829 0.0
H326 H 0.25227 0.37881 0.02981 0.0
C327 C 0.38827 0.42025 0.9784 0.0
C328 C 0.2908 0.43078 0.96062 0.0
C329 C 0.42912 0.42785 0.96851 0.0
C330 C 0.15731 0.44762 0.02012 0.0
C331 C 0.17797 0.42773 0.00637 0.0
C332 C 0.26219 0.39276 0.01031 0.0
C333 C 0.3527 0.41223 0.96151 0.0
C334 C 0.31102 0.40848 0.97259 0.0
C335 C 0.2187 0.43246 0.01539 0.0
C336 C 0.24469 0.41806 -0.0008 0.0
H337 H 0.40432 0.41893 0.90334 0.0
H338 H 0.33219 0.40516 0.92077 0.0
H339 H 0.30858 0.36904 0.00647 0.0
H340 H 0.23403 0.49651 0.06945 0.0
H341 H 0.26925 0.46039 0.046 0.0
C342 C 0.00299 0.4097 0.12603 0.0
C343 C 0.00449 0.42577 0.10051 0.0
C344 C 0.9648 0.37094 0.13495 0.0
C345 C 0.84431 0.31336 0.12484 0.0
H346 H 0.84334 0.23066 0.17704 0.0
C347 C 0.71035 0.23819 0.20354 0.0
C348 C 0.6873 0.19123 0.20729 0.0
C349 C 0.74872 0.25911 0.18802 0.0
C350 C 0.84303 0.25307 0.16221 0.0
H351 H 0.96832 0.41192 0.0637 0.0
H352 H 0.90122 0.34412 0.07941 0.0
H353 H 0.91229 0.27875 0.15228 0.0
H354 H 0.68816 0.12978 0.19873 0.0
H355 H 0.75652 0.16708 0.17182 0.0
H356 H 0.77581 0.2892 0.13549 0.0
C357 C 0.92962 0.36185 0.09253 0.0
C358 C 0.88243 0.28072 0.14816 0.0
C359 C 0.96807 0.40057 0.08352 0.0
C360 C 0.70503 0.16598 0.19616 0.0
C361 C 0.74401 0.18721 0.18076 0.0
C362 C 0.80521 0.2861 0.13899 0.0
C363 C 0.9271 0.34743 0.11859 0.0
C364 C 0.88381 0.3121 0.12987 0.0
C365 C 0.7654 0.23381 0.17604 0.0
C366 C 0.80462 0.25679 0.15838 0.0
H367 H 0.03072 0.42806 0.13952 0.0
H368 H 0.96385 0.36102 0.15518 0.0
H369 H 0.84427 0.3374 0.11111 0.0
H370 H 0.69808 0.25889 0.21197 0.0
H371 H 0.76517 0.29525 0.18515 0.0
C372 C 0.49005 0.7282 0.3768 0.0
C373 C 0.51191 0.70299 0.37846 0.0
C374 C 0.50761 0.76683 0.36144 0.0
C375 C 0.60402 0.8597 0.33262 0.0
H376 H 0.51748 0.8543 0.28171 0.0
C377 C 0.59665 0.01327 0.29514 0.0
C378 C 0.58034 0.01269 0.26978 0.0
C379 C 0.60053 0.97704 0.30423 0.0
C380 C 0.54255 0.85622 0.29534 0.0
H381 H 0.57127 0.70066 0.36668 0.0
H382 H 0.60268 0.76965 0.34002 0.0
H383 H 0.50054 0.78751 0.307 0.0
H384 H 0.55878 0.97525 0.23335 0.0
H385 H 0.56533 0.91167 0.24934 0.0
H386 H 0.64505 0.92929 0.32188 0.0
C387 C 0.57146 0.75851 0.35046 0.0
C388 C 0.53264 0.81805 0.30997 0.0
C389 C 0.55354 0.71922 0.36574 0.0
C390 C 0.57112 0.97656 0.25304 0.0
C391 C 0.57474 0.94011 0.26222 0.0
C392 C 0.61383 0.89824 0.31811 0.0
C393 C 0.54773 0.78164 0.34758 0.0
C394 C 0.5626 0.81984 0.32927 0.0
C395 C 0.58801 0.9393 0.28821 0.0
C396 C 0.58253 0.89719 0.29987 0.0
H397 H 0.45829 0.71718 0.38659 0.0
H398 H 0.48917 0.78465 0.35986 0.0
H399 H 0.62756 0.86175 0.34744 0.0
H400 H 0.60457 0.04087 0.30843 0.0
H401 H 0.61051 0.97738 0.32439 0.0
C402 C 0.76381 0.48525 0.55284 0.0
C403 C 0.81043 0.50418 0.54962 0.0
C404 C 0.7412 0.50489 0.54113 0.0
C405 C 0.74758 0.57426 0.48511 0.0
H406 H 0.64696 0.57259 0.52011 0.0
C407 C 0.59074 0.61121 0.46736 0.0
C408 C 0.57451 0.58906 0.44328 0.0
C409 C 0.62781 0.61251 0.47943 0.0
C410 C 0.67539 0.5742 0.51005 0.0
H411 H 0.87021 0.55956 0.53221 0.0
H412 H 0.8304 0.59409 0.51159 0.0
H413 H 0.69625 0.5544 0.54458 0.0
H414 H 0.58607 0.55339 0.41213 0.0
H415 H 0.65023 0.55451 0.43352 0.0
H416 H 0.72622 0.59363 0.45044 0.0
C417 C 0.81146 0.56379 0.52315 0.0
C418 C 0.70338 0.56319 0.52408 0.0
C419 C 0.83427 0.54426 0.53513 0.0
C420 C 0.59798 0.57087 0.43064 0.0
C421 C 0.63483 0.57161 0.44292 0.0
C422 C 0.71948 0.58535 0.471 0.0
C423 C 0.76455 0.54394 0.52577 0.0
C424 C 0.73911 0.56198 0.51166 0.0
C425 C 0.64913 0.59101 0.46793 0.0
C426 C 0.68247 0.58456 0.4832 0.0
H427 H 0.74445 0.45446 0.56394 0.0
H428 H 0.70502 0.48839 0.54332 0.0
H429 H 0.7747 0.5734 0.47493 0.0
H430 H 0.57364 0.62607 0.47739 0.0
H431 H 0.63863 0.62884 0.49832 0.0
C432 C 0.29076 0.83816 0.69218 0.0
C433 C 0.29827 0.82308 0.71629 0.0
C434 C 0.24909 0.81451 0.67967 0.0
C435 C 0.12977 0.72901 0.68762 0.0
H436 H 0.14083 0.69026 0.61813 0.0
C437 C 0.9899 0.56759 0.64105 0.0
C438 C 0.98563 0.56295 0.61367 0.0
C439 C 0.024 0.6069 0.65242 0.0
C440 C 0.1368 0.70154 0.63718 0.0
H441 H 0.26671 0.7733 0.74706 0.0
H442 H 0.19356 0.73223 0.72522 0.0
H443 H 0.20773 0.74625 0.64113 0.0
H444 H 0.01227 0.59738 0.57679 0.0
H445 H 0.07147 0.66689 0.59673 0.0
H446 H 0.05889 0.68418 0.68382 0.0
C447 C 0.22022 0.76226 0.71602 0.0
C448 C 0.17528 0.73353 0.65043 0.0
C449 C 0.26214 0.78565 0.72846 0.0
C450 C 0.0149 0.59969 0.59793 0.0
C451 C 0.04898 0.63941 0.60938 0.0
C452 C 0.09113 0.6975 0.67421 0.0
C453 C 0.21383 0.77566 0.69112 0.0
C454 C 0.17227 0.7466 0.67604 0.0
C455 C 0.05461 0.64306 0.63679 0.0
C456 C 0.09431 0.68222 0.64915 0.0
H457 H 0.31767 0.86707 0.6823 0.0
H458 H 0.24485 0.82579 0.66061 0.0
H459 H 0.12654 0.739 0.70724 0.0
H460 H 0.96786 0.54015 0.65388 0.0
H461 H 0.02749 0.60791 0.67352 0.0
C462 C 0.44209 0.28712 0.86711 0.0
C463 C 0.47532 0.29644 0.88611 0.0
C464 C 0.41969 0.24497 0.85479 0.0
C465 C 0.39627 0.12768 0.85895 0.0
H466 H 0.41722 0.13703 0.78403 0.0
C467 C 0.43514 0.00853 0.80423 0.0
C468 C 0.42112 0.99574 0.77824 0.0
C469 C 0.42612 0.0387 0.81714 0.0
C470 C 0.40985 0.13346 0.80478 0.0
H471 H 0.50888 0.26827 0.90849 0.0
H472 H 0.46918 0.19455 0.8875 0.0
H473 H 0.4285 0.20286 0.80863 0.0
H474 H 0.38514 0.00345 0.74562 0.0
H475 H 0.36977 0.05742 0.76831 0.0
H476 H 0.37958 0.05893 0.85539 0.0
C477 C 0.46059 0.21975 0.88193 0.0
C478 C 0.41638 0.17121 0.81889 0.0
C479 C 0.48352 0.26201 0.89385 0.0
C480 C 0.39654 0.0129 0.76562 0.0
C481 C 0.38782 0.04374 0.77857 0.0
C482 C 0.38941 0.08993 0.84486 0.0
C483 C 0.42947 0.21123 0.86174 0.0
C484 C 0.4117 0.16916 0.84627 0.0
C485 C 0.40285 0.05714 0.80444 0.0
C486 C 0.39838 0.09305 0.81785 0.0
H487 H 0.43526 0.31315 0.86067 0.0
H488 H 0.39579 0.23918 0.83931 0.0
H489 H 0.39179 0.12506 0.88 0.0
H490 H 0.4537 0.99556 0.81467 0.0
H491 H 0.43895 0.04884 0.83685 0.0
C492 C 0.52246 0.82057 0.80806 0.0
C493 C 0.50599 0.8132 0.78224 0.0
C494 C 0.53972 0.79495 0.81866 0.0
C495 C 0.53308 0.68515 0.80888 0.0
H496 H 0.62152 0.7282 0.8649 0.0
C497 C 0.58791 0.56991 0.85588 0.0
C498 C 0.58074 0.56447 0.88308 0.0
C499 C 0.58819 0.6057 0.84288 0.0
C500 C 0.59684 0.71588 0.84926 0.0
H501 H 0.49746 0.77524 0.74672 0.0
H502 H 0.52938 0.73165 0.76485 0.0
H503 H 0.60593 0.78125 0.84174 0.0
H504 H 0.57198 0.59457 0.91823 0.0
H505 H 0.57283 0.65776 0.8953 0.0
H506 H 0.52435 0.61996 0.81628 0.0
C507 C 0.52743 0.75613 0.77727 0.0
C508 C 0.5877 0.7461 0.83603 0.0
C509 C 0.50941 0.7813 0.76678 0.0
C510 C 0.57736 0.5977 0.89727 0.0
C511 C 0.57793 0.63387 0.88418 0.0
C512 C 0.54275 0.65523 0.82177 0.0
C513 C 0.54167 0.76175 0.8036 0.0
C514 C 0.55512 0.73096 0.81593 0.0
C515 C 0.58172 0.63715 0.85676 0.0
C516 C 0.57425 0.67015 0.84229 0.0
H517 H 0.52019 0.84479 0.82058 0.0
H518 H 0.54963 0.79993 0.83907 0.0
H519 H 0.50706 0.67184 0.79401 0.0
H520 H 0.59141 0.54539 0.84435 0.0
H521 H 0.59187 0.60791 0.82178 0.0
C522 C 0.98363 0.57914 0.07003 0.0
C523 C 0.01495 0.57684 0.05345 0.0
C524 C 0.94835 0.58361 0.05951 0.0
C525 C 0.90604 0.60507 0.9961 0.0
H526 H 0.78889 0.52805 0.02706 0.0
C527 C 0.73373 0.50393 0.94362 0.0
C528 C 0.70078 0.51443 0.95094 0.0
C529 C 0.77509 0.52367 0.95663 0.0
C530 C 0.82153 0.55029 0.01848 0.0
H531 H 0.03475 0.57953 0.01281 0.0
H532 H 0.97324 0.58539 0.99473 0.0
H533 H 0.85638 0.54065 0.05021 0.0
H534 H 0.68527 0.55426 0.97721 0.0
H535 H 0.75747 0.58762 0.00071 0.0
H536 H 0.87024 0.61117 0.96333 0.0
C537 C 0.97599 0.58494 0.01583 0.0
C538 C 0.8603 0.55778 0.03177 0.0
C539 C 0.01127 0.58102 0.02629 0.0
C540 C 0.71039 0.54609 0.97099 0.0
C541 C 0.75141 0.56494 0.98449 0.0
C542 C 0.86719 0.59672 0.98261 0.0
C543 C 0.9435 0.58553 0.03219 0.0
C544 C 0.90307 0.58416 0.02039 0.0
C545 C 0.78372 0.55336 0.97758 0.0
C546 C 0.8247 0.56849 0.99347 0.0
H547 H 0.98567 0.57637 0.09105 0.0
H548 H 0.92445 0.5847 0.07278 0.0
H549 H 0.93833 0.62661 0.98699 0.0
H550 H 0.727 0.4795 0.9283 0.0
H551 H 0.79956 0.51412 0.95117 0.0
C552 C 0.40528 0.96315 0.2384 0.0
C553 C 0.42615 0.0061 0.22691 0.0
C554 C 0.36702 0.92739 0.22677 0.0
C555 C 0.27947 0.8569 0.20084 0.0
H556 H 0.29376 0.85698 0.12553 0.0
C557 C 0.16337 0.70294 0.13533 0.0
C558 C 0.18768 0.69002 0.11893 0.0
C559 C 0.1852 0.7448 0.14806 0.0
C560 C 0.28908 0.85654 0.14652 0.0
H561 H 0.42118 0.04666 0.19602 0.0
H562 H 0.3537 0.98497 0.17636 0.0
H563 H 0.34415 0.92355 0.15064 0.0
H564 H 0.25311 0.7115 0.10193 0.0
H565 H 0.29086 0.78412 0.12382 0.0
H566 H 0.22586 0.7885 0.19655 0.0
C567 C 0.36759 0.97821 0.19366 0.0
C568 C 0.31768 0.89494 0.16096 0.0
C569 C 0.4061 0.01361 0.20499 0.0
C570 C 0.23353 0.72043 0.11454 0.0
C571 C 0.2551 0.7622 0.12696 0.0
C572 C 0.25078 0.8183 0.18631 0.0
C573 C 0.34874 0.93425 0.20368 0.0
C574 C 0.31401 0.8953 0.18838 0.0
C575 C 0.23145 0.77458 0.14422 0.0
C576 C 0.25623 0.81737 0.15909 0.0
H577 H 0.42019 0.95652 0.25529 0.0
H578 H 0.35357 0.89395 0.23495 0.0
H579 H 0.27539 0.85623 0.22187 0.0
H580 H 0.128 0.68008 0.13913 0.0
H581 H 0.16613 0.75363 0.16115 0.0
C582 C 0.46889 0.16901 0.31876 0.0
C583 C 0.47389 0.17202 0.29148 0.0
C584 C 0.45387 0.19471 0.33192 0.0
C585 C 0.45364 0.30094 0.32116 0.0
H586 H 0.39311 0.27382 0.38831 0.0
C587 C 0.41349 0.42572 0.36865 0.0
C588 C 0.43036 0.43946 0.39415 0.0
C589 C 0.41027 0.38707 0.35778 0.0
C590 C 0.41013 0.28171 0.36959 0.0
H591 H 0.46451 0.20113 0.25621 0.0
H592 H 0.43542 0.24369 0.2788 0.0
H593 H 0.39992 0.21511 0.36498 0.0
H594 H 0.45397 0.42144 0.42896 0.0
H595 H 0.44844 0.35325 0.40968 0.0
H596 H 0.46375 0.3672 0.32561 0.0
C597 C 0.44459 0.22305 0.29033 0.0
C598 C 0.4141 0.24821 0.35622 0.0
C599 C 0.46055 0.1982 0.27729 0.0
C600 C 0.44105 0.41181 0.40922 0.0
C601 C 0.43778 0.3728 0.39824 0.0
C602 C 0.4492 0.33397 0.33429 0.0
C603 C 0.44326 0.22349 0.3179 0.0
C604 C 0.43599 0.25747 0.33179 0.0
C605 C 0.42379 0.36103 0.3721 0.0
C606 C 0.42747 0.32483 0.35861 0.0
H607 H 0.47989 0.14957 0.33005 0.0
H608 H 0.45364 0.1943 0.35311 0.0
H609 H 0.4721 0.31009 0.30291 0.0
H610 H 0.40407 0.44572 0.35665 0.0
H611 H 0.39858 0.37832 0.33776 0.0
C612 C 0.02543 0.42012 0.57342 0.0
C613 C 0.9975 0.42778 0.55664 0.0
C614 C 0.06014 0.4146 0.56318 0.0
C615 C 0.10291 0.39518 0.50001 0.0
H616 H 0.21988 0.4637 0.53312 0.0
C617 C 0.27078 0.48689 0.44593 0.0
C618 C 0.30749 0.48419 0.45569 0.0
C619 C 0.22968 0.46572 0.45905 0.0
C620 C 0.18725 0.44358 0.52394 0.0
H621 H 0.98372 0.43469 0.51587 0.0
H622 H 0.04422 0.42652 0.49835 0.0
H623 H 0.15317 0.45371 0.55584 0.0
H624 H 0.33 0.4563 0.48627 0.0
H625 H 0.25806 0.42036 0.50987 0.0
H626 H 0.13781 0.38833 0.46724 0.0
C627 C 0.03904 0.42361 0.51933 0.0
C628 C 0.14897 0.43776 0.53695 0.0
C629 C 0.00447 0.42887 0.52947 0.0
C630 C 0.30196 0.45843 0.47824 0.0
C631 C 0.26105 0.43814 0.49178 0.0
C632 C 0.14123 0.40165 0.48686 0.0
C633 C 0.06755 0.41665 0.53597 0.0
C634 C 0.10655 0.415 0.52469 0.0
C635 C 0.22488 0.44234 0.4825 0.0
C636 C 0.18386 0.42716 0.49837 0.0
H637 H 0.02077 0.41878 0.59443 0.0
H638 H 0.08129 0.40898 0.57656 0.0
H639 H 0.07062 0.37635 0.49028 0.0
H640 H 0.27434 0.50668 0.42861 0.0
H641 H 0.20242 0.46982 0.45165 0.0
C642 C 0.56983 0.9865 0.69505 0.0
C643 C 0.56947 0.98746 0.72248 0.0
C644 C 0.60766 0.01747 0.68121 0.0
C645 C 0.72699 0.10764 0.68446 0.0
H646 H 0.6871 0.16268 0.63269 0.0
C647 C 0.83966 0.28495 0.63858 0.0
C648 C 0.82738 0.29282 0.61376 0.0
C649 C 0.81502 0.24237 0.65021 0.0
C650 C 0.69915 0.14723 0.64653 0.0
H651 H 0.60912 0.01907 0.7572 0.0
H652 H 0.67571 0.07488 0.73278 0.0
H653 H 0.63213 0.09773 0.65672 0.0
H654 H 0.78337 0.26227 0.58048 0.0
H655 H 0.74219 0.18736 0.59991 0.0
H656 H 0.79443 0.15828 0.6743 0.0
C657 C 0.6468 0.04955 0.72204 0.0
C658 C 0.66744 0.10994 0.66045 0.0
C659 C 0.60881 0.01782 0.736 0.0
C660 C 0.79317 0.25683 0.59972 0.0
C661 C 0.76936 0.21415 0.61101 0.0
C662 C 0.75907 0.14514 0.67027 0.0
C663 C 0.64573 0.05077 0.6945 0.0
C664 C 0.68084 0.08962 0.67955 0.0
C665 C 0.7782 0.20703 0.63697 0.0
C666 C 0.74541 0.16535 0.6511 0.0
H667 H 0.54003 0.9629 0.68421 0.0
H668 H 0.60622 0.01689 0.66001 0.0
H669 H 0.73822 0.09265 0.69911 0.0
H670 H 0.86572 0.31253 0.64983 0.0
H671 H 0.82274 0.23821 0.67022 0.0
loop_
_geom_bond_atom_site_label_1
_geom_bond_atom_site_label_2
_geom_bond_distance
_geom_bond_site_symmetry_2
_ccdc_geom_bond_type
Fe0 O2 1.918 . S
Fe0 O5 1.997 . S
Fe0 O6 2.002 . S
Fe0 O11 1.976 . S
Fe0 O14 1.996 . S
Fe1 O2 1.918 . S
Fe1 O9 1.997 . S
Fe1 O12 1.996 . S
Fe1 O16 1.976 . S
Fe1 O19 2.002 . S
O2 Fe0 1.918 . S
O2 Fe1 1.918 . S
O2 Fe3 1.918 . S
Fe3 O2 1.918 . S
Fe3 O4 2.002 . S
Fe3 O13 1.976 . S
Fe3 O17 1.996 . S
Fe3 O20 1.997 . S
O4 Fe3 2.002 . S
O4 C21 1.295 . S
O5 Fe0 1.997 . S
O5 C21 1.235 . S
O6 Fe0 2.002 . S
O6 C7 1.295 . S
C7 O6 1.295 . S
C7 O9 1.235 . S
C8 O13 1.287 . S
C8 O14 1.255 . S
O9 Fe1 1.997 . S
O9 C7 1.235 . S
C10 O16 1.287 . S
C10 O17 1.255 . S
O11 Fe0 1.976 . S
O11 C18 1.287 . S
O12 Fe1 1.996 . S
O12 C18 1.255 . S
O13 Fe3 1.976 . S
O13 C8 1.287 . S
O14 Fe0 1.996 . S
O14 C8 1.255 . S
C15 O19 1.295 . S
C15 O20 1.235 . S
O16 Fe1 1.976 . S
O16 C10 1.287 . S
O17 Fe3 1.996 . S
O17 C10 1.255 . S
C18 O11 1.287 . S
C18 O12 1.255 . S
O19 Fe1 2.002 . S
O19 C15 1.295 . S
O20 Fe3 1.997 . S
O20 C15 1.235 . S
C21 O4 1.295 . S
C21 O5 1.235 . S
Fe22 O24 1.918 . S
Fe22 O27 1.997 . S
Fe22 O28 2.002 . S
Fe22 O33 1.976 . S
Fe22 O36 1.996 . S
Fe23 O24 1.918 . S
Fe23 O31 1.997 . S
Fe23 O34 1.996 . S
Fe23 O38 1.976 . S
Fe23 O41 2.002 . S
O24 Fe22 1.918 . S
O24 Fe23 1.918 . S
O24 Fe25 1.918 . S
Fe25 O24 1.918 . S
Fe25 O26 2.002 . S
Fe25 O35 1.976 . S
Fe25 O39 1.996 . S
Fe25 O42 1.997 . S
O26 Fe25 2.002 . S
O26 C43 1.295 . S
O27 Fe22 1.997 . S
O27 C43 1.235 . S
O28 Fe22 2.002 . S
O28 C29 1.295 . S
C29 O28 1.295 . S
C29 O31 1.235 . S
C30 O35 1.287 . S
C30 O36 1.255 . S
O31 Fe23 1.997 . S
O31 C29 1.235 . S
C32 O38 1.287 . S
C32 O39 1.255 . S
O33 Fe22 1.976 . S
O33 C40 1.287 . S
O34 Fe23 1.996 . S
O34 C40 1.255 . S
O35 Fe25 1.976 . S
O35 C30 1.287 . S
O36 Fe22 1.996 . S
O36 C30 1.255 . S
C37 O41 1.295 . S
C37 O42 1.235 . S
O38 Fe23 1.976 . S
O38 C32 1.287 . S
O39 Fe25 1.996 . S
O39 C32 1.255 . S
C40 O33 1.287 . S
C40 O34 1.255 . S
O41 Fe23 2.002 . S
O41 C37 1.295 . S
O42 Fe25 1.997 . S
O42 C37 1.235 . S
C43 O26 1.295 . S
C43 O27 1.235 . S
Fe44 O46 1.918 . S
Fe44 O49 1.997 . S
Fe44 O50 2.002 . S
Fe44 O55 1.976 . S
Fe44 O58 1.996 . S
Fe45 O46 1.918 . S
Fe45 O53 1.997 . S
Fe45 O56 1.996 . S
Fe45 O60 1.976 . S
Fe45 O63 2.002 . S
O46 Fe44 1.918 . S
O46 Fe45 1.918 . S
O46 Fe47 1.918 . S
Fe47 O46 1.918 . S
Fe47 O48 2.002 . S
Fe47 O57 1.976 . S
Fe47 O61 1.996 . S
Fe47 O64 1.997 . S
O48 Fe47 2.002 . S
O48 C65 1.295 . S
O49 Fe44 1.997 . S
O49 C65 1.235 . S
O50 Fe44 2.002 . S
O50 C51 1.295 . S
C51 O50 1.295 . S
C51 O53 1.235 . S
C52 O57 1.287 . S
C52 O58 1.255 . S
O53 Fe45 1.997 . S
O53 C51 1.235 . S
C54 O60 1.287 . S
C54 O61 1.255 . S
O55 Fe44 1.976 . S
O55 C62 1.287 . S
O56 Fe45 1.996 . S
O56 C62 1.255 . S
O57 Fe47 1.976 . S
O57 C52 1.287 . S
O58 Fe44 1.996 . S
O58 C52 1.255 . S
C59 O63 1.295 . S
C59 O64 1.235 . S
O60 Fe45 1.976 . S
O60 C54 1.287 . S
O61 Fe47 1.996 . S
O61 C54 1.255 . S
C62 O55 1.287 . S
C62 O56 1.255 . S
O63 Fe45 2.002 . S
O63 C59 1.295 . S
O64 Fe47 1.997 . S
O64 C59 1.235 . S
C65 O48 1.295 . S
C65 O49 1.235 . S
Fe66 O68 1.918 . S
Fe66 O71 1.997 . S
Fe66 O72 2.002 . S
Fe66 O77 1.976 . S
Fe66 O80 1.996 . S
Fe67 O68 1.918 . S
Fe67 O75 1.997 . S
Fe67 O78 1.996 . S
Fe67 O82 1.976 . S
Fe67 O85 2.002 . S
O68 Fe66 1.918 . S
O68 Fe67 1.918 . S
O68 Fe69 1.918 . S
Fe69 O68 1.918 . S
Fe69 O70 2.002 . S
Fe69 O79 1.976 . S
Fe69 O83 1.996 . S
Fe69 O86 1.997 . S
O70 Fe69 2.002 . S
O70 C87 1.295 . S
O71 Fe66 1.997 . S
O71 C87 1.235 . S
O72 Fe66 2.002 . S
O72 C73 1.295 . S
C73 O72 1.295 . S
C73 O75 1.235 . S
C74 O79 1.287 . S
C74 O80 1.255 . S
O75 Fe67 1.997 . S
O75 C73 1.235 . S
C76 O82 1.287 . S
C76 O83 1.255 . S
O77 Fe66 1.976 . S
O77 C84 1.287 . S
O78 Fe67 1.996 . S
O78 C84 1.255 . S
O79 Fe69 1.976 . S
O79 C74 1.287 . S
O80 Fe66 1.996 . S
O80 C74 1.255 . S
C81 O85 1.295 . S
C81 O86 1.235 . S
O82 Fe67 1.976 . S
O82 C76 1.287 . S
O83 Fe69 1.996 . S
O83 C76 1.255 . S
C84 O77 1.287 . S
C84 O78 1.255 . S
O85 Fe67 2.002 . S
O85 C81 1.295 . S
O86 Fe69 1.997 . S
O86 C81 1.235 . S
C87 O70 1.295 . S
C87 O71 1.235 . S
Fe88 O90 1.918 . S
Fe88 O93 1.997 . S
Fe88 O94 2.002 . S
Fe88 O99 1.976 . S
Fe88 O102 1.996 . S
Fe89 O90 1.918 . S
Fe89 O97 1.997 . S
Fe89 O100 1.996 . S
Fe89 O104 1.976 . S
Fe89 O107 2.002 . S
O90 Fe88 1.918 . S
O90 Fe89 1.918 . S
O90 Fe91 1.918 . S
Fe91 O90 1.918 . S
Fe91 O92 2.002 . S
Fe91 O101 1.976 . S
Fe91 O105 1.996 . S
Fe91 O108 1.997 . S
O92 Fe91 2.002 . S
O92 C109 1.295 . S
O93 Fe88 1.997 . S
O93 C109 1.235 . S
O94 Fe88 2.002 . S
O94 C95 1.295 . S
C95 O94 1.295 . S
C95 O97 1.235 . S
C96 O101 1.287 . S
C96 O102 1.255 . S
O97 Fe89 1.997 . S
O97 C95 1.235 . S
C98 O104 1.287 . S
C98 O105 1.255 . S
O99 Fe88 1.976 . S
O99 C106 1.287 . S
O100 Fe89 1.996 . S
O100 C106 1.255 . S
O101 Fe91 1.976 . S
O101 C96 1.287 . S
O102 Fe88 1.996 . S
O102 C96 1.255 . S
C103 O107 1.295 . S
C103 O108 1.235 . S
O104 Fe89 1.976 . S
O104 C98 1.287 . S
O105 Fe91 1.996 . S
O105 C98 1.255 . S
C106 O99 1.287 . S
C106 O100 1.255 . S
O107 Fe89 2.002 . S
O107 C103 1.295 . S
O108 Fe91 1.997 . S
O108 C103 1.235 . S
C109 O92 1.295 . S
C109 O93 1.235 . S
Fe110 O112 1.918 . S
Fe110 O115 1.997 . S
Fe110 O116 2.002 . S
Fe110 O121 1.976 . S
Fe110 O124 1.996 . S
Fe111 O112 1.918 . S
Fe111 O119 1.997 . S
Fe111 O122 1.996 . S
Fe111 O126 1.976 . S
Fe111 O129 2.002 . S
O112 Fe110 1.918 . S
O112 Fe111 1.918 . S
O112 Fe113 1.918 . S
Fe113 O112 1.918 . S
Fe113 O114 2.002 . S
Fe113 O123 1.976 . S
Fe113 O127 1.996 . S
Fe113 O130 1.997 . S
O114 Fe113 2.002 . S
O114 C131 1.295 . S
O115 Fe110 1.997 . S
O115 C131 1.235 . S
O116 Fe110 2.002 . S
O116 C117 1.295 . S
C117 O116 1.295 . S
C117 O119 1.235 . S
C118 O123 1.287 . S
C118 O124 1.255 . S
O119 Fe111 1.997 . S
O119 C117 1.235 . S
C120 O126 1.287 . S
C120 O127 1.255 . S
O121 Fe110 1.976 . S
O121 C128 1.287 . S
O122 Fe111 1.996 . S
O122 C128 1.255 . S
O123 Fe113 1.976 . S
O123 C118 1.287 . S
O124 Fe110 1.996 . S
O124 C118 1.255 . S
C125 O129 1.295 . S
C125 O130 1.235 . S
O126 Fe111 1.976 . S
O126 C120 1.287 . S
O127 Fe113 1.996 . S
O127 C120 1.255 . S
C128 O121 1.287 . S
C128 O122 1.255 . S
O129 Fe111 2.002 . S
O129 C125 1.295 . S
O130 Fe113 1.997 . S
O130 C125 1.235 . S
C131 O114 1.295 . S
C131 O115 1.235 . S
C132 C133 1.349 . S
C132 C134 1.327 . S
C132 H157 0.950 . S
C133 C132 1.349 . S
C133 C149 1.349 . S
C134 C132 1.327 . S
C134 C153 1.429 . S
C134 H158 0.950 . S
C135 C152 1.574 . S
C135 C154 1.368 . S
C135 H159 0.949 . S
H136 C140 0.949 . S
C137 C138 1.349 . S
C137 C139 1.327 . S
C137 H160 0.950 . S
C138 C137 1.349 . S
C138 C150 1.349 . S
C139 C137 1.327 . S
C139 C155 1.429 . S
C139 H161 0.950 . S
C140 H136 0.949 . S
C140 C148 1.574 . S
C140 C156 1.368 . S
H141 C149 0.950 . S
H142 C147 0.950 . S
H143 C148 0.949 . S
H144 C150 0.950 . S
H145 C151 0.950 . S
H146 C152 0.949 . S
C147 H142 0.950 . S
C147 C149 1.327 . S
C147 C153 1.429 . S
C148 C140 1.574 . S
C148 H143 0.949 . S
C148 C154 1.368 . S
C149 C133 1.349 . S
C149 H141 0.950 . S
C149 C147 1.327 . S
C150 C138 1.349 . S
C150 H144 0.950 . S
C150 C151 1.327 . S
C151 H145 0.950 . S
C151 C150 1.327 . S
C151 C155 1.429 . S
C152 C135 1.574 . S
C152 H146 0.949 . S
C152 C156 1.368 . S
C153 C134 1.429 . S
C153 C147 1.429 . S
C153 C154 1.523 . S
C154 C135 1.368 . S
C154 C148 1.368 . S
C154 C153 1.523 . S
C155 C139 1.429 . S
C155 C151 1.429 . S
C155 C156 1.523 . S
C156 C140 1.368 . S
C156 C152 1.368 . S
C156 C155 1.523 . S
H157 C132 0.950 . S
H158 C134 0.950 . S
H159 C135 0.949 . S
H160 C137 0.950 . S
H161 C139 0.950 . S
C162 C163 1.349 . S
C162 C164 1.327 . S
C162 H187 0.950 . S
C163 C162 1.349 . S
C163 C179 1.349 . S
C164 C162 1.327 . S
C164 C183 1.429 . S
C164 H188 0.950 . S
C165 C182 1.574 . S
C165 C184 1.368 . S
C165 H189 0.949 . S
H166 C170 0.949 . S
C167 C168 1.349 . S
C167 C169 1.327 . S
C167 H190 0.950 . S
C168 C167 1.349 . S
C168 C180 1.349 . S
C169 C167 1.327 . S
C169 C185 1.429 . S
C169 H191 0.950 . S
C170 H166 0.949 . S
C170 C178 1.574 . S
C170 C186 1.368 . S
H171 C179 0.950 . S
H172 C177 0.950 . S
H173 C178 0.949 . S
H174 C180 0.950 . S
H175 C181 0.950 . S
H176 C182 0.949 . S
C177 H172 0.950 . S
C177 C179 1.327 . S
C177 C183 1.429 . S
C178 C170 1.574 . S
C178 H173 0.949 . S
C178 C184 1.368 . S
C179 C163 1.349 . S
C179 H171 0.950 . S
C179 C177 1.327 . S
C180 C168 1.349 . S
C180 H174 0.950 . S
C180 C181 1.327 . S
C181 H175 0.950 . S
C181 C180 1.327 . S
C181 C185 1.429 . S
C182 C165 1.574 . S
C182 H176 0.949 . S
C182 C186 1.368 . S
C183 C164 1.429 . S
C183 C177 1.429 . S
C183 C184 1.523 . S
C184 C165 1.368 . S
C184 C178 1.368 . S
C184 C183 1.523 . S
C185 C169 1.429 . S
C185 C181 1.429 . S
C185 C186 1.523 . S
C186 C170 1.368 . S
C186 C182 1.368 . S
C186 C185 1.523 . S
H187 C162 0.950 . S
H188 C164 0.950 . S
H189 C165 0.949 . S
H190 C167 0.950 . S
H191 C169 0.950 . S
C192 C193 1.349 . S
C192 C194 1.327 . S
C192 H217 0.950 . S
C193 C192 1.349 . S
C193 C209 1.349 . S
C194 C192 1.327 . S
C194 C213 1.429 . S
C194 H218 0.950 . S
C195 C212 1.574 . S
C195 C214 1.368 . S
C195 H219 0.949 . S
H196 C200 0.949 . S
C197 C198 1.349 . S
C197 C199 1.327 . S
C197 H220 0.950 . S
C198 C197 1.349 . S
C198 C210 1.349 . S
C199 C197 1.327 . S
C199 C215 1.429 . S
C199 H221 0.950 . S
C200 H196 0.949 . S
C200 C208 1.574 . S
C200 C216 1.368 . S
H201 C209 0.950 . S
H202 C207 0.950 . S
H203 C208 0.949 . S
H204 C210 0.950 . S
H205 C211 0.950 . S
H206 C212 0.949 . S
C207 H202 0.950 . S
C207 C209 1.327 . S
C207 C213 1.429 . S
C208 C200 1.574 . S
C208 H203 0.949 . S
C208 C214 1.368 . S
C209 C193 1.349 . S
C209 H201 0.950 . S
C209 C207 1.327 . S
C210 C198 1.349 . S
C210 H204 0.950 . S
C210 C211 1.327 . S
C211 H205 0.950 . S
C211 C210 1.327 . S
C211 C215 1.429 . S
C212 C195 1.574 . S
C212 H206 0.949 . S
C212 C216 1.368 . S
C213 C194 1.429 . S
C213 C207 1.429 . S
C213 C214 1.523 . S
C214 C195 1.368 . S
C214 C208 1.368 . S
C214 C213 1.523 . S
C215 C199 1.429 . S
C215 C211 1.429 . S
C215 C216 1.523 . S
C216 C200 1.368 . S
C216 C212 1.368 . S
C216 C215 1.523 . S
H217 C192 0.950 . S
H218 C194 0.950 . S
H219 C195 0.949 . S
H220 C197 0.950 . S
H221 C199 0.950 . S
C222 C223 1.349 . S
C222 C224 1.327 . S
C222 H247 0.950 . S
C223 C222 1.349 . S
C223 C239 1.349 . S
C224 C222 1.327 . S
C224 C243 1.429 . S
C224 H248 0.950 . S
C225 C242 1.574 . S
C225 C244 1.368 . S
C225 H249 0.949 . S
H226 C230 0.949 . S
C227 C228 1.349 . S
C227 C229 1.327 . S
C227 H250 0.950 . S
C228 C227 1.349 . S
C228 C240 1.349 . S
C229 C227 1.327 . S
C229 C245 1.429 . S
C229 H251 0.950 . S
C230 H226 0.949 . S
C230 C238 1.574 . S
C230 C246 1.368 . S
H231 C239 0.950 . S
H232 C237 0.950 . S
H233 C238 0.949 . S
H234 C240 0.950 . S
H235 C241 0.950 . S
H236 C242 0.949 . S
C237 H232 0.950 . S
C237 C239 1.327 . S
C237 C243 1.429 . S
C238 C230 1.574 . S
C238 H233 0.949 . S
C238 C244 1.368 . S
C239 C223 1.349 . S
C239 H231 0.950 . S
C239 C237 1.327 . S
C240 C228 1.349 . S
C240 H234 0.950 . S
C240 C241 1.327 . S
C241 H235 0.950 . S
C241 C240 1.327 . S
C241 C245 1.429 . S
C242 C225 1.574 . S
C242 H236 0.949 . S
C242 C246 1.368 . S
C243 C224 1.429 . S
C243 C237 1.429 . S
C243 C244 1.523 . S
C244 C225 1.368 . S
C244 C238 1.368 . S
C244 C243 1.523 . S
C245 C229 1.429 . S
C245 C241 1.429 . S
C245 C246 1.523 . S
C246 C230 1.368 . S
C246 C242 1.368 . S
C246 C245 1.523 . S
H247 C222 0.950 . S
H248 C224 0.950 . S
H249 C225 0.949 . S
H250 C227 0.950 . S
H251 C229 0.950 . S
C252 C253 1.349 . S
C252 C254 1.327 1_554 S
C252 H277 0.950 . S
C253 C252 1.349 . S
C253 C269 1.349 1_554 S
C254 C252 1.327 1_556 S
C254 C273 1.429 . S
C254 H278 0.950 . S
C255 C272 1.574 . S
C255 C274 1.368 . S
C255 H279 0.949 . S
H256 C260 0.949 . S
C257 C258 1.349 . S
C257 C259 1.327 . S
C257 H280 0.950 . S
C258 C257 1.349 . S
C258 C270 1.349 . S
C259 C257 1.327 . S
C259 C275 1.429 . S
C259 H281 0.950 . S
C260 H256 0.949 . S
C260 C268 1.574 . S
C260 C276 1.368 . S
H261 C269 0.950 . S
H262 C267 0.950 . S
H263 C268 0.949 . S
H264 C270 0.950 . S
H265 C271 0.950 . S
H266 C272 0.949 . S
C267 H262 0.950 . S
C267 C269 1.327 . S
C267 C273 1.429 . S
C268 C260 1.574 . S
C268 H263 0.949 . S
C268 C274 1.368 . S
C269 C253 1.349 1_556 S
C269 H261 0.950 . S
C269 C267 1.327 . S
C270 C258 1.349 . S
C270 H264 0.950 . S
C270 C271 1.327 . S
C271 H265 0.950 . S
C271 C270 1.327 . S
C271 C275 1.429 . S
C272 C255 1.574 . S
C272 H266 0.949 . S
C272 C276 1.368 . S
C273 C254 1.429 . S
C273 C267 1.429 . S
C273 C274 1.523 . S
C274 C255 1.368 . S
C274 C268 1.368 . S
C274 C273 1.523 . S
C275 C259 1.429 . S
C275 C271 1.429 . S
C275 C276 1.523 . S
C276 C260 1.368 . S
C276 C272 1.368 . S
C276 C275 1.523 . S
H277 C252 0.950 . S
H278 C254 0.950 . S
H279 C255 0.949 . S
H280 C257 0.950 . S
H281 C259 0.950 . S
C282 C283 1.349 . S
C282 C284 1.327 . S
C282 H307 0.950 . S
C283 C282 1.349 . S
C283 C299 1.349 . S
C284 C282 1.327 . S
C284 C303 1.429 . S
C284 H308 0.950 . S
C285 C302 1.574 . S
C285 C304 1.368 . S
C285 H309 0.949 . S
H286 C290 0.949 . S
C287 C288 1.352 1_554 S
C287 C289 1.323 . S
C287 H310 0.951 1_554 S
C288 C287 1.352 1_556 S
C288 C300 1.349 . S
C289 C287 1.323 . S
C289 C305 1.429 . S
C289 H311 0.950 . S
C290 H286 0.949 . S
C290 C298 1.574 . S
C290 C306 1.368 . S
H291 C299 0.950 . S
H292 C297 0.950 . S
H293 C298 0.949 . S
H294 C300 0.950 . S
H295 C301 0.950 . S
H296 C302 0.949 . S
C297 H292 0.950 . S
C297 C299 1.327 . S
C297 C303 1.429 . S
C298 C290 1.574 . S
C298 H293 0.949 . S
C298 C304 1.368 . S
C299 C283 1.349 . S
C299 H291 0.950 . S
C299 C297 1.327 . S
C300 C288 1.349 . S
C300 H294 0.950 . S
C300 C301 1.327 1_556 S
C301 H295 0.950 . S
C301 C300 1.327 1_554 S
C301 C305 1.429 . S
C302 C285 1.574 . S
C302 H296 0.949 . S
C302 C306 1.368 . S
C303 C284 1.429 . S
C303 C297 1.429 . S
C303 C304 1.523 . S
C304 C285 1.368 . S
C304 C298 1.368 . S
C304 C303 1.523 . S
C305 C289 1.429 . S
C305 C301 1.429 . S
C305 C306 1.523 . S
C306 C290 1.368 . S
C306 C302 1.368 . S
C306 C305 1.523 . S
H307 C282 0.950 . S
H308 C284 0.950 . S
H309 C285 0.949 . S
H310 C287 0.951 1_556 S
H311 C289 0.950 . S
C312 C313 1.349 . S
C312 C314 1.327 . S
C312 H337 0.950 . S
C313 C312 1.349 . S
C313 C329 1.349 . S
C314 C312 1.327 . S
C314 C333 1.429 . S
C314 H338 0.950 . S
C315 C332 1.574 . S
C315 C334 1.368 1_554 S
C315 H339 0.949 . S
H316 C320 0.949 . S
C317 C318 1.349 . S
C317 C319 1.327 . S
C317 H340 0.950 . S
C318 C317 1.349 . S
C318 C330 1.349 . S
C319 C317 1.327 . S
C319 C335 1.429 . S
C319 H341 0.950 . S
C320 H316 0.949 . S
C320 C328 1.574 . S
C320 C336 1.368 1_556 S
H321 C329 0.950 . S
H322 C327 0.950 1_554 S
H323 C328 0.949 . S
H324 C330 0.950 . S
H325 C331 0.950 1_556 S
H326 C332 0.949 . S
C327 H322 0.950 1_556 S
C327 C329 1.327 . S
C327 C333 1.429 . S
C328 C320 1.574 . S
C328 H323 0.949 . S
C328 C334 1.368 . S
C329 C313 1.349 . S
C329 H321 0.950 . S
C329 C327 1.327 . S
C330 C318 1.349 . S
C330 H324 0.950 . S
C330 C331 1.327 . S
C331 H325 0.950 1_554 S
C331 C330 1.327 . S
C331 C335 1.429 . S
C332 C315 1.574 . S
C332 H326 0.949 . S
C332 C336 1.368 . S
C333 C314 1.429 . S
C333 C327 1.429 . S
C333 C334 1.523 . S
C334 C315 1.368 1_556 S
C334 C328 1.368 . S
C334 C333 1.523 . S
C335 C319 1.429 . S
C335 C331 1.429 . S
C335 C336 1.523 . S
C336 C320 1.368 1_554 S
C336 C332 1.368 . S
C336 C335 1.523 . S
H337 C312 0.950 . S
H338 C314 0.950 . S
H339 C315 0.949 . S
H340 C317 0.950 . S
H341 C319 0.950 . S
C342 C343 1.349 . S
C342 C344 1.327 1_455 S
C342 H367 0.950 . S
C343 C342 1.349 . S
C343 C359 1.349 . S
C344 C342 1.327 1_655 S
C344 C363 1.429 . S
C344 H368 0.950 . S
C345 C362 1.574 . S
C345 C364 1.368 . S
C345 H369 0.949 . S
H346 C350 0.949 . S
C347 C348 1.349 . S
C347 C349 1.327 . S
C347 H370 0.950 . S
C348 C347 1.349 . S
C348 C360 1.349 . S
C349 C347 1.327 . S
C349 C365 1.429 . S
C349 H371 0.950 . S
C350 H346 0.949 . S
C350 C358 1.574 . S
C350 C366 1.368 . S
H351 C359 0.950 . S
H352 C357 0.950 . S
H353 C358 0.949 . S
H354 C360 0.950 . S
H355 C361 0.950 . S
H356 C362 0.949 . S
C357 H352 0.950 . S
C357 C359 1.327 1_655 S
C357 C363 1.429 . S
C358 C350 1.574 . S
C358 H353 0.949 . S
C358 C364 1.368 . S
C359 C343 1.349 . S
C359 H351 0.950 . S
C359 C357 1.327 1_455 S
C360 C348 1.349 . S
C360 H354 0.950 . S
C360 C361 1.327 . S
C361 H355 0.950 . S
C361 C360 1.327 . S
C361 C365 1.429 . S
C362 C345 1.574 . S
C362 H356 0.949 . S
C362 C366 1.368 . S
C363 C344 1.429 . S
C363 C357 1.429 . S
C363 C364 1.523 . S
C364 C345 1.368 . S
C364 C358 1.368 . S
C364 C363 1.523 . S
C365 C349 1.429 . S
C365 C361 1.429 . S
C365 C366 1.523 . S
C366 C350 1.368 . S
C366 C362 1.368 . S
C366 C365 1.523 . S
H367 C342 0.950 . S
H368 C344 0.950 . S
H369 C345 0.949 . S
H370 C347 0.950 . S
H371 C349 0.950 . S
C372 C373 1.349 . S
C372 C374 1.327 . S
C372 H397 0.950 . S
C373 C372 1.349 . S
C373 C389 1.349 . S
C374 C372 1.327 . S
C374 C393 1.429 . S
C374 H398 0.950 . S
C375 C392 1.574 . S
C375 C394 1.368 . S
C375 H399 0.949 . S
H376 C380 0.949 . S
C377 C378 1.349 . S
C377 C379 1.327 1_545 S
C377 H400 0.950 . S
C378 C377 1.349 . S
C378 C390 1.349 . S
C379 C377 1.327 1_565 S
C379 C395 1.429 . S
C379 H401 0.950 . S
C380 H376 0.949 . S
C380 C388 1.574 . S
C380 C396 1.368 . S
H381 C389 0.950 . S
H382 C387 0.950 . S
H383 C388 0.949 . S
H384 C390 0.950 . S
H385 C391 0.950 . S
H386 C392 0.949 . S
C387 H382 0.950 . S
C387 C389 1.327 . S
C387 C393 1.429 . S
C388 C380 1.574 . S
C388 H383 0.949 . S
C388 C394 1.368 . S
C389 C373 1.349 . S
C389 H381 0.950 . S
C389 C387 1.327 . S
C390 C378 1.349 . S
C390 H384 0.950 . S
C390 C391 1.327 1_545 S
C391 H385 0.950 . S
C391 C390 1.327 1_565 S
C391 C395 1.429 . S
C392 C375 1.574 . S
C392 H386 0.949 . S
C392 C396 1.368 . S
C393 C374 1.429 . S
C393 C387 1.429 . S
C393 C394 1.523 . S
C394 C375 1.368 . S
C394 C388 1.368 . S
C394 C393 1.523 . S
C395 C379 1.429 . S
C395 C391 1.429 . S
C395 C396 1.523 . S
C396 C380 1.368 . S
C396 C392 1.368 . S
C396 C395 1.523 . S
H397 C372 0.950 . S
H398 C374 0.950 . S
H399 C375 0.949 . S
H400 C377 0.950 . S
H401 C379 0.950 . S
C402 C403 1.349 . S
C402 C404 1.327 . S
C402 H427 0.950 . S
C403 C402 1.349 . S
C403 C419 1.349 . S
C404 C402 1.327 . S
C404 C423 1.429 . S
C404 H428 0.950 . S
C405 C422 1.574 . S
C405 C424 1.368 . S
C405 H429 0.949 . S
H406 C410 0.949 . S
C407 C408 1.349 . S
C407 C409 1.327 . S
C407 H430 0.950 . S
C408 C407 1.349 . S
C408 C420 1.349 . S
C409 C407 1.327 . S
C409 C425 1.429 . S
C409 H431 0.950 . S
C410 H406 0.949 . S
C410 C418 1.574 . S
C410 C426 1.368 . S
H411 C419 0.950 . S
H412 C417 0.950 . S
H413 C418 0.949 . S
H414 C420 0.950 . S
H415 C421 0.950 . S
H416 C422 0.949 . S
C417 H412 0.950 . S
C417 C419 1.327 . S
C417 C423 1.429 . S
C418 C410 1.574 . S
C418 H413 0.949 . S
C418 C424 1.368 . S
C419 C403 1.349 . S
C419 H411 0.950 . S
C419 C417 1.327 . S
C420 C408 1.349 . S
C420 H414 0.950 . S
C420 C421 1.327 . S
C421 H415 0.950 . S
C421 C420 1.327 . S
C421 C425 1.429 . S
C422 C405 1.574 . S
C422 H416 0.949 . S
C422 C426 1.368 . S
C423 C404 1.429 . S
C423 C417 1.429 . S
C423 C424 1.523 . S
C424 C405 1.368 . S
C424 C418 1.368 . S
C424 C423 1.523 . S
C425 C409 1.429 . S
C425 C421 1.429 . S
C425 C426 1.523 . S
C426 C410 1.368 . S
C426 C422 1.368 . S
C426 C425 1.523 . S
H427 C402 0.950 . S
H428 C404 0.950 . S
H429 C405 0.949 . S
H430 C407 0.950 . S
H431 C409 0.950 . S
C432 C433 1.349 . S
C432 C434 1.327 . S
C432 H457 0.950 . S
C433 C432 1.349 . S
C433 C449 1.349 . S
C434 C432 1.327 . S
C434 C453 1.429 . S
C434 H458 0.950 . S
C435 C452 1.574 . S
C435 C454 1.368 . S
C435 H459 0.949 . S
H436 C440 0.949 . S
C437 C438 1.349 . S
C437 C439 1.327 . S
C437 H460 0.950 . S
C438 C437 1.349 . S
C438 C450 1.349 1_655 S
C439 C437 1.327 . S
C439 C455 1.429 1_655 S
C439 H461 0.950 . S
C440 H436 0.949 . S
C440 C448 1.574 . S
C440 C456 1.368 . S
H441 C449 0.950 . S
H442 C447 0.950 . S
H443 C448 0.949 . S
H444 C450 0.950 . S
H445 C451 0.950 . S
H446 C452 0.949 . S
C447 H442 0.950 . S
C447 C449 1.327 . S
C447 C453 1.429 . S
C448 C440 1.574 . S
C448 H443 0.949 . S
C448 C454 1.368 . S
C449 C433 1.349 . S
C449 H441 0.950 . S
C449 C447 1.327 . S
C450 C438 1.349 1_455 S
C450 H444 0.950 . S
C450 C451 1.327 . S
C451 H445 0.950 . S
C451 C450 1.327 . S
C451 C455 1.429 . S
C452 C435 1.574 . S
C452 H446 0.949 . S
C452 C456 1.368 . S
C453 C434 1.429 . S
C453 C447 1.429 . S
C453 C454 1.523 . S
C454 C435 1.368 . S
C454 C448 1.368 . S
C454 C453 1.523 . S
C455 C439 1.429 1_455 S
C455 C451 1.429 . S
C455 C456 1.523 . S
C456 C440 1.368 . S
C456 C452 1.368 . S
C456 C455 1.523 . S
H457 C432 0.950 . S
H458 C434 0.950 . S
H459 C435 0.949 . S
H460 C437 0.950 . S
H461 C439 0.950 . S
C462 C463 1.349 . S
C462 C464 1.327 . S
C462 H487 0.950 . S
C463 C462 1.349 . S
C463 C479 1.349 . S
C464 C462 1.327 . S
C464 C483 1.429 . S
C464 H488 0.950 . S
C465 C482 1.574 . S
C465 C484 1.368 . S
C465 H489 0.949 . S
H466 C470 0.949 . S
C467 C468 1.349 . S
C467 C469 1.327 . S
C467 H490 0.950 . S
C468 C467 1.349 . S
C468 C480 1.349 . S
C469 C467 1.327 . S
C469 C485 1.429 1_565 S
C469 H491 0.950 . S
C470 H466 0.949 . S
C470 C478 1.574 . S
C470 C486 1.368 . S
H471 C479 0.950 . S
H472 C477 0.950 . S
H473 C478 0.949 . S
H474 C480 0.949 . S
H475 C481 0.950 . S
H476 C482 0.949 . S
C477 H472 0.950 . S
C477 C479 1.327 . S
C477 C483 1.429 . S
C478 C470 1.574 . S
C478 H473 0.949 . S
C478 C484 1.368 . S
C479 C463 1.349 . S
C479 H471 0.950 . S
C479 C477 1.327 . S
C480 C468 1.349 . S
C480 H474 0.949 . S
C480 C481 1.327 1_565 S
C481 H475 0.950 . S
C481 C480 1.327 1_545 S
C481 C485 1.429 . S
C482 C465 1.574 . S
C482 H476 0.949 . S
C482 C486 1.368 . S
C483 C464 1.429 . S
C483 C477 1.429 . S
C483 C484 1.523 . S
C484 C465 1.368 . S
C484 C478 1.368 . S
C484 C483 1.523 . S
C485 C469 1.429 1_545 S
C485 C481 1.429 . S
C485 C486 1.523 . S
C486 C470 1.368 . S
C486 C482 1.368 . S
C486 C485 1.523 . S
H487 C462 0.950 . S
H488 C464 0.950 . S
H489 C465 0.949 . S
H490 C467 0.950 . S
H491 C469 0.950 . S
C492 C493 1.349 . S
C492 C494 1.327 . S
C492 H517 0.950 . S
C493 C492 1.349 . S
C493 C509 1.349 . S
C494 C492 1.327 . S
C494 C513 1.429 . S
C494 H518 0.950 . S
C495 C512 1.574 . S
C495 C514 1.368 . S
C495 H519 0.949 . S
H496 C500 0.949 . S
C497 C498 1.349 . S
C497 C499 1.327 . S
C497 H520 0.950 . S
C498 C497 1.349 . S
C498 C510 1.349 . S
C499 C497 1.327 . S
C499 C515 1.429 . S
C499 H521 0.950 . S
C500 H496 0.949 . S
C500 C508 1.574 . S
C500 C516 1.368 . S
H501 C509 0.950 . S
H502 C507 0.950 . S
H503 C508 0.949 . S
H504 C510 0.950 . S
H505 C511 0.950 . S
H506 C512 0.949 . S
C507 H502 0.950 . S
C507 C509 1.327 . S
C507 C513 1.429 . S
C508 C500 1.574 . S
C508 H503 0.949 . S
C508 C514 1.368 . S
C509 C493 1.349 . S
C509 H501 0.950 . S
C509 C507 1.327 . S
C510 C498 1.349 . S
C510 H504 0.950 . S
C510 C511 1.327 . S
C511 H505 0.950 . S
C511 C510 1.327 . S
C511 C515 1.429 . S
C512 C495 1.574 . S
C512 H506 0.949 . S
C512 C516 1.368 . S
C513 C494 1.429 . S
C513 C507 1.429 . S
C513 C514 1.523 . S
C514 C495 1.368 . S
C514 C508 1.368 . S
C514 C513 1.523 . S
C515 C499 1.429 . S
C515 C511 1.429 . S
C515 C516 1.523 . S
C516 C500 1.368 . S
C516 C512 1.368 . S
C516 C515 1.523 . S
H517 C492 0.950 . S
H518 C494 0.950 . S
H519 C495 0.949 . S
H520 C497 0.950 . S
H521 C499 0.950 . S
C522 C523 1.349 . S
C522 C524 1.327 1_455 S
C522 H547 0.950 . S
C523 C522 1.349 . S
C523 C539 1.349 . S
C524 C522 1.327 1_655 S
C524 C543 1.429 . S
C524 H548 0.950 . S
C525 C542 1.574 . S
C525 C544 1.368 1_556 S
C525 H549 0.949 . S
H526 C530 0.949 . S
C527 C528 1.349 . S
C527 C529 1.327 . S
C527 H550 0.950 . S
C528 C527 1.349 . S
C528 C540 1.349 . S
C529 C527 1.327 . S
C529 C545 1.429 . S
C529 H551 0.950 . S
C530 H526 0.949 . S
C530 C538 1.574 . S
C530 C546 1.368 1_554 S
H531 C539 0.950 . S
H532 C537 0.908 1_556 S
H533 C538 0.949 . S
H534 C540 0.950 . S
H535 C541 0.950 1_554 S
H536 C542 0.949 . S
C537 H532 0.908 1_554 S
C537 C539 1.327 . S
C537 C543 1.429 1_455 S
C538 C530 1.574 . S
C538 H533 0.949 . S
C538 C544 1.368 . S
C539 C523 1.349 . S
C539 H531 0.950 . S
C539 C537 1.327 . S
C540 C528 1.349 . S
C540 H534 0.950 . S
C540 C541 1.327 . S
C541 H535 0.950 1_556 S
C541 C540 1.327 . S
C541 C545 1.429 . S
C542 C525 1.574 . S
C542 H536 0.949 . S
C542 C546 1.368 . S
C543 C524 1.429 . S
C543 C537 1.429 1_655 S
C543 C544 1.523 . S
C544 C525 1.368 1_554 S
C544 C538 1.368 . S
C544 C543 1.523 . S
C545 C529 1.429 . S
C545 C541 1.429 . S
C545 C546 1.523 . S
C546 C530 1.368 1_556 S
C546 C542 1.368 . S
C546 C545 1.523 . S
H547 C522 0.950 . S
H548 C524 0.950 . S
H549 C525 0.949 . S
H550 C527 0.950 . S
H551 C529 0.950 . S
C552 C553 1.349 . S
C552 C554 1.327 1_545 S
C552 H577 0.950 . S
C553 C552 1.349 . S
C553 C569 1.349 . S
C554 C552 1.327 1_565 S
C554 C573 1.429 . S
C554 H578 0.950 . S
C555 C572 1.574 . S
C555 C574 1.368 . S
C555 H579 0.949 . S
H556 C560 0.949 . S
C557 C558 1.349 . S
C557 C559 1.327 . S
C557 H580 0.950 . S
C558 C557 1.349 . S
C558 C570 1.349 . S
C559 C557 1.327 . S
C559 C575 1.429 . S
C559 H581 0.950 . S
C560 H556 0.949 . S
C560 C568 1.574 . S
C560 C576 1.368 . S
H561 C569 0.950 . S
H562 C567 0.950 . S
H563 C568 0.949 . S
H564 C570 0.950 . S
H565 C571 0.950 . S
H566 C572 0.949 . S
C567 H562 0.950 . S
C567 C569 1.327 1_565 S
C567 C573 1.429 . S
C568 C560 1.574 . S
C568 H563 0.949 . S
C568 C574 1.368 . S
C569 C553 1.349 . S
C569 H561 0.950 . S
C569 C567 1.327 1_545 S
C570 C558 1.349 . S
C570 H564 0.950 . S
C570 C571 1.327 . S
C571 H565 0.950 . S
C571 C570 1.327 . S
C571 C575 1.429 . S
C572 C555 1.574 . S
C572 H566 0.949 . S
C572 C576 1.368 . S
C573 C554 1.429 . S
C573 C567 1.429 . S
C573 C574 1.523 . S
C574 C555 1.368 . S
C574 C568 1.368 . S
C574 C573 1.523 . S
C575 C559 1.429 . S
C575 C571 1.429 . S
C575 C576 1.523 . S
C576 C560 1.368 . S
C576 C572 1.368 . S
C576 C575 1.523 . S
H577 C552 0.950 . S
H578 C554 0.950 . S
H579 C555 0.949 . S
H580 C557 0.950 . S
H581 C559 0.950 . S
C582 C583 1.349 . S
C582 C584 1.327 . S
C582 H607 0.950 . S
C583 C582 1.349 . S
C583 C599 1.349 . S
C584 C582 1.327 . S
C584 C603 1.429 . S
C584 H608 0.950 . S
C585 C602 1.574 . S
C585 C604 1.368 . S
C585 H609 0.949 . S
H586 C590 0.949 . S
C587 C588 1.349 . S
C587 C589 1.327 . S
C587 H610 0.950 . S
C588 C587 1.349 . S
C588 C600 1.349 . S
C589 C587 1.327 . S
C589 C605 1.429 . S
C589 H611 0.950 . S
C590 H586 0.949 . S
C590 C598 1.574 . S
C590 C606 1.368 . S
H591 C599 0.950 . S
H592 C597 0.950 . S
H593 C598 0.949 . S
H594 C600 0.950 . S
H595 C601 0.950 . S
H596 C602 0.949 . S
C597 H592 0.950 . S
C597 C599 1.327 . S
C597 C603 1.429 . S
C598 C590 1.574 . S
C598 H593 0.949 . S
C598 C604 1.368 . S
C599 C583 1.349 . S
C599 H591 0.950 . S
C599 C597 1.327 . S
C600 C588 1.349 . S
C600 H594 0.950 . S
C600 C601 1.327 . S
C601 H595 0.950 . S
C601 C600 1.327 . S
C601 C605 1.429 . S
C602 C585 1.574 . S
C602 H596 0.949 . S
C602 C606 1.368 . S
C603 C584 1.429 . S
C603 C597 1.429 . S
C603 C604 1.523 . S
C604 C585 1.368 . S
C604 C598 1.368 . S
C604 C603 1.523 . S
C605 C589 1.429 . S
C605 C601 1.429 . S
C605 C606 1.523 . S
C606 C590 1.368 . S
C606 C602 1.368 . S
C606 C605 1.523 . S
H607 C582 0.950 . S
H608 C584 0.950 . S
H609 C585 0.949 . S
H610 C587 0.950 . S
H611 C589 0.950 . S
C612 C613 1.349 . S
C612 C614 1.327 1_655 S
C612 H637 0.950 . S
C613 C612 1.349 . S
C613 C629 1.349 . S
C614 C612 1.327 1_455 S
C614 C633 1.429 . S
C614 H638 0.950 . S
C615 C632 1.574 . S
C615 C634 1.368 . S
C615 H639 0.949 . S
H616 C620 0.949 . S
C617 C618 1.349 . S
C617 C619 1.327 . S
C617 H640 0.950 . S
C618 C617 1.349 . S
C618 C630 1.349 . S
C619 C617 1.327 . S
C619 C635 1.429 . S
C619 H641 0.950 . S
C620 H616 0.949 . S
C620 C628 1.574 . S
C620 C636 1.368 . S
H621 C629 0.950 . S
H622 C627 0.950 . S
H623 C628 0.949 . S
H624 C630 0.950 . S
H625 C631 0.950 . S
H626 C632 0.949 . S
C627 H622 0.950 . S
C627 C629 1.327 . S
C627 C633 1.429 1_655 S
C628 C620 1.574 . S
C628 H623 0.949 . S
C628 C634 1.368 . S
C629 C613 1.349 . S
C629 H621 0.950 . S
C629 C627 1.327 . S
C630 C618 1.349 . S
C630 H624 0.950 . S
C630 C631 1.327 . S
C631 H625 0.950 . S
C631 C630 1.327 . S
C631 C635 1.429 . S
C632 C615 1.574 . S
C632 H626 0.949 . S
C632 C636 1.368 . S
C633 C614 1.429 . S
C633 C627 1.429 1_455 S
C633 C634 1.523 . S
C634 C615 1.368 . S
C634 C628 1.368 . S
C634 C633 1.523 . S
C635 C619 1.429 . S
C635 C631 1.429 . S
C635 C636 1.523 . S
C636 C620 1.368 . S
C636 C632 1.368 . S
C636 C635 1.523 . S
H637 C612 0.950 . S
H638 C614 0.950 . S
H639 C615 0.949 . S
H640 C617 0.950 . S
H641 C619 0.950 . S
C642 C643 1.349 . S
C642 C644 1.327 1_565 S
C642 H667 0.950 . S
C643 C642 1.349 . S
C643 C659 1.349 . S
C644 C642 1.327 1_545 S
C644 C663 1.429 . S
C644 H668 0.950 . S
C645 C662 1.574 . S
C645 C664 1.368 . S
C645 H669 0.949 . S
H646 C650 0.949 . S
C647 C648 1.349 . S
C647 C649 1.327 . S
C647 H670 0.950 . S
C648 C647 1.349 . S
C648 C660 1.349 . S
C649 C647 1.327 . S
C649 C665 1.429 . S
C649 H671 0.950 . S
C650 H646 0.949 . S
C650 C658 1.574 . S
C650 C666 1.368 . S
H651 C659 0.950 . S
H652 C657 0.950 . S
H653 C658 0.949 . S
H654 C660 0.950 . S
H655 C661 0.950 . S
H656 C662 0.949 . S
C657 H652 0.950 . S
C657 C659 1.327 1_545 S
C657 C663 1.429 . S
C658 C650 1.574 . S
C658 H653 0.949 . S
C658 C664 1.368 . S
C659 C643 1.349 . S
C659 H651 0.950 . S
C659 C657 1.327 1_565 S
C660 C648 1.349 . S
C660 H654 0.950 . S
C660 C661 1.327 . S
C661 H655 0.950 . S
C661 C660 1.327 . S
C661 C665 1.429 . S
C662 C645 1.574 . S
C662 H656 0.949 . S
C662 C666 1.368 . S
C663 C644 1.429 . S
C663 C657 1.429 . S
C663 C664 1.523 . S
C664 C645 1.368 . S
C664 C658 1.368 . S
C664 C663 1.523 . S
C665 C649 1.429 . S
C665 C661 1.429 . S
C665 C666 1.523 . S
C666 C650 1.368 . S
C666 C662 1.368 . S
C666 C665 1.523 . S
H667 C642 0.950 . S
H668 C644 0.950 . S
H669 C645 0.949 . S
H670 C647 0.950 . S
H671 C649 0.950 . S
C133 C18 0.659 . S
C138 C52 0.659 . S
C163 C37 0.823 . S
C168 C73 0.824 . S
C193 C106 0.742 . S
C198 C51 0.742 . S
C223 C118 0.659 . S
C228 C74 0.659 . S
C253 C15 0.824 . S
C258 C103 0.823 . S
C283 C40 0.742 . S
C288 C117 0.742 . S
C313 C125 1.249 . S
C318 C10 1.271 . S
C343 C8 1.257 . S
C348 C29 1.242 . S
C373 C65 1.271 . S
C378 C43 1.271 . S
C403 C84 1.271 . S
C408 C59 1.249 . S
C433 C95 1.242 . S
C438 C76 1.257 . S
C463 C131 1.271 . S
C468 C109 1.271 . S
C493 C98 1.232 . S
C498 C120 1.226 . S
C523 C21 1.241 . S
C528 C128 1.262 . S
C553 C30 1.249 . S
C558 C7 1.234 . S
C583 C32 1.232 . S
C588 C54 1.226 . S
C613 C81 1.241 . S
C618 C62 1.262 . S
C643 C96 1.249 . S
C648 C87 1.234 . S
