# Generated by pormake.
# Topology qtz-e, (6)-cn, num edge types: 1
# Building blocks:
#     Node 0, Type 0, BuildingBlock: KUMJIN_clean_sbu_0, # of connection points: 6
#     Node 1, Type 0, BuildingBlock: KUMJIN_clean_sbu_0, # of connection points: 6
#     Node 2, Type 0, BuildingBlock: KUMJIN_clean_sbu_0, # of connection points: 6
#     Node 3, Type 0, BuildingBlock: KUMJIN_clean_sbu_0, # of connection points: 6
#     Node 4, Type 0, BuildingBlock: KUMJIN_clean_sbu_0, # of connection points: 6
#     Node 5, Type 0, BuildingBlock: KUMJIN_clean_sbu_0, # of connection points: 6
#     Edge 6, Type (0, 0), BuildingBlock: XUDNAN_clean_linker_2, # of connection points: 2
#     Edge 7, Type (0, 0), BuildingBlock: XUDNAN_clean_linker_2, # of connection points: 2
#     Edge 8, Type (0, 0), BuildingBlock: XUDNAN_clean_linker_2, # of connection points: 2
#     Edge 9, Type (0, 0), BuildingBlock: XUDNAN_clean_linker_2, # of connection points: 2
#     Edge 10, Type (0, 0), BuildingBlock: XUDNAN_clean_linker_2, # of connection points: 2
#     Edge 11, Type (0, 0), BuildingBlock: XUDNAN_clean_linker_2, # of connection points: 2
#     Edge 12, Type (0, 0), BuildingBlock: XUDNAN_clean_linker_2, # of connection points: 2
#     Edge 13, Type (0, 0), BuildingBlock: XUDNAN_clean_linker_2, # of connection points: 2
#     Edge 14, Type (0, 0), BuildingBlock: XUDNAN_clean_linker_2, # of connection points: 2
#     Edge 15, Type (0, 0), BuildingBlock: XUDNAN_clean_linker_2, # of connection points: 2
#     Edge 16, Type (0, 0), BuildingBlock: XUDNAN_clean_linker_2, # of connection points: 2
#     Edge 17, Type (0, 0), BuildingBlock: XUDNAN_clean_linker_2, # of connection points: 2
#     Edge 18, Type (0, 0), BuildingBlock: XUDNAN_clean_linker_2, # of connection points: 2
#     Edge 19, Type (0, 0), BuildingBlock: XUDNAN_clean_linker_2, # of connection points: 2
#     Edge 20, Type (0, 0), BuildingBlock: XUDNAN_clean_linker_2, # of connection points: 2
#     Edge 21, Type (0, 0), BuildingBlock: XUDNAN_clean_linker_2, # of connection points: 2
#     Edge 22, Type (0, 0), BuildingBlock: XUDNAN_clean_linker_2, # of connection points: 2
#     Edge 23, Type (0, 0), BuildingBlock: XUDNAN_clean_linker_2, # of connection points: 2
# Relax obj value: 0.058
# Max RMSD: 0.144
# Mean RMSD: 0.144
data_MOF--net-qtz-e--node1-KUMJIN_clean_sbu_0--edge1-XUDNAN_clean_linker_2
_symmetry_space_group_name_H-M    P1
_symmetry_Int_Tables_number       1
_symmetry_cell_setting            triclinic
loop_
_symmetry_equiv_pos_as_xyz
'x, y, z'
_cell_length_a     29.545307
_cell_length_b     29.605086
_cell_length_c     46.604268
_cell_angle_alpha  90.30019
_cell_angle_beta   89.945456
_cell_angle_gamma 119.9653
loop_
_atom_site_label
_atom_site_type_symbol
_atom_site_fract_x
_atom_site_fract_y
_atom_site_fract_z
_atom_type_partial_charge
Eu0 Eu 0.25125 0.49455 0.03833 0.0
C1 C 0.07918 0.26671 0.02093 0.0
C2 C 0.09799 0.22731 0.06123 0.0
C3 C 1.00841 0.19213 0.04505 0.0
C4 C 0.11511 0.26569 0.03963 0.0
C5 C 0.02569 0.22894 0.02289 0.0
C6 C 0.04447 0.19145 0.06424 0.0
C7 C 0.01081 0.26375 0.9794 0.0
N8 N 0.09675 0.30288 0.99985 0.0
C9 C 0.06411 0.30044 0.97839 0.0
C10 C 0.99133 0.22839 1.00204 0.0
Eu11 Eu 0.18615 0.36683 1.00099 0.0
N12 N 0.16674 0.30104 0.03621 0.0
C13 C 0.20329 0.29699 0.05237 0.0
C14 C 0.13519 0.22543 0.07889 0.0
C15 C 0.18806 0.25985 0.07411 0.0
H16 H 0.07919 0.32791 0.9609 0.0
H17 H 0.21723 0.25796 0.08727 0.0
H18 H 0.03069 0.16219 0.08092 0.0
H19 H 0.98483 0.26285 0.96277 0.0
H20 H 0.24447 0.3227 0.04947 0.0
H21 H 0.25058 0.64369 0.97008 0.0
H22 H 0.12359 0.1968 0.09581 0.0
H23 H 0.34897 0.50103 0.07766 0.0
H24 H 0.21159 0.5624 0.99798 0.0
H25 H 0.44508 0.55644 0.08182 0.0
H26 H 0.9674 0.16329 0.04714 0.0
H27 H 0.34659 0.70012 0.96808 0.0
H28 H 0.43502 0.71861 0.98476 0.0
H29 H 0.95 0.19996 1.00279 0.0
H30 H 0.48805 0.69448 0.01474 0.0
N31 N 0.28478 0.57084 1.01024 0.0
C32 C 0.25357 0.58613 0.99689 0.0
C33 C 0.3297 0.66414 0.98013 0.0
C34 C 0.36142 0.64993 0.99539 0.0
C35 C 0.27551 0.63243 0.98121 0.0
C36 C 0.33751 0.60255 1.0106 0.0
H37 H 0.49216 0.63425 0.05112 0.0
N38 N 0.34276 0.54558 0.04393 0.0
C39 C 0.42374 0.56602 0.06647 0.0
C40 C 0.36737 0.58957 0.02795 0.0
C41 C 0.3695 0.53472 0.06405 0.0
C42 C 0.45018 0.60986 0.04906 0.0
C43 C 0.42191 0.6228 0.02996 0.0
O44 O 0.26057 0.51591 0.08374 0.0
O45 O 0.1941 0.40931 0.04206 0.0
O46 O 0.12424 0.39294 1.00577 0.0
O47 O 0.1715 0.47883 0.02367 0.0
O48 O 0.24669 0.44134 0.07498 0.0
O49 O 0.22213 0.54416 0.05513 0.0
O50 O 0.24259 0.36977 0.96892 0.0
O51 O 0.23304 0.45228 0.99631 0.0
O52 O 0.31135 0.48101 0.01623 0.0
O53 O 0.26814 0.39089 0.01888 0.0
O54 O 0.17503 0.41203 0.96549 0.0
O55 O 0.16637 0.30264 0.97052 0.0
C56 C 0.20512 0.39978 0.06655 0.0
C57 C 0.27401 0.60001 0.09318 0.0
C58 C 0.31193 0.65544 0.13564 0.0
C59 C 0.28103 0.60576 0.12308 0.0
C60 C 0.33618 0.69922 0.11758 0.0
C61 C 0.29854 0.64436 0.0757 0.0
C62 C 0.3296 0.69355 0.08788 0.0
C63 C 0.12797 0.43818 1.01387 0.0
C64 C 0.24204 0.54744 0.08066 0.0
C65 C 0.44616 0.66862 1.01364 0.0
C66 C 0.41595 0.68235 0.99657 0.0
C67 C 0.21241 0.45713 0.97367 0.0
C68 C 0.20781 0.32424 0.92475 0.0
C69 C 0.2358 0.30615 0.90793 0.0
C70 C 0.23178 0.30373 0.87739 0.0
C71 C 0.19943 0.32019 0.86444 0.0
C72 C 0.17598 0.33991 0.91076 0.0
C73 C 0.17217 0.33818 0.88093 0.0
C74 C 0.31176 0.43678 0.01673 0.0
C75 C 0.21051 0.32556 0.95677 0.0
H76 H 0.26254 0.57141 0.13651 0.0
H77 H 0.35923 0.73815 0.12639 0.0
H78 H 0.29369 0.64123 0.05267 0.0
H79 H 0.3482 0.72755 0.07426 0.0
H80 H 0.26048 0.29406 0.91866 0.0
H81 H 0.1938 0.31789 0.84142 0.0
H82 H 0.1533 0.35284 0.92287 0.0
H83 H 0.14715 0.35013 0.87049 0.0
Eu84 Eu 0.76968 0.24787 0.38381 0.0
C85 C 0.82392 0.08695 0.35989 0.0
C86 C 0.89298 0.11175 0.39481 0.0
C87 C 0.8326 0.02007 0.38532 0.0
C88 C 0.86566 0.12523 0.37496 0.0
C89 C 0.80784 0.03389 0.36424 0.0
C90 C 0.87523 0.05899 0.40055 0.0
C91 C 0.74881 0.01261 0.32418 0.0
N92 N 0.80141 0.10176 0.33952 0.0
C93 C 0.76656 0.06574 0.32058 0.0
C94 C 0.76876 0.99648 0.34653 0.0
Eu95 Eu 0.82835 0.19212 0.33706 0.0
N96 N 0.88104 0.17578 0.36927 0.0
C97 C 0.92664 0.21465 0.38062 0.0
C98 C 0.93789 0.1517 0.40784 0.0
C99 C 0.95531 0.20334 0.40028 0.0
H100 H 0.75161 0.07802 0.30292 0.0
H101 H 0.99097 0.2345 0.4095 0.0
H102 H 0.89506 0.04791 0.41615 0.0
H103 H 0.71999 0.98422 0.30963 0.0
H104 H 0.94191 0.25449 0.37439 0.0
H105 H 0.56577 0.17728 0.41101 0.0
H106 H 0.96005 0.14303 0.42315 0.0
H107 H 0.85363 0.3587 0.34993 0.0
H108 H 0.65071 0.17996 0.41232 0.0
H109 H 0.85302 0.42975 0.3233 0.0
H110 H 0.82024 0.97951 0.38932 0.0
H111 H 0.55409 0.23797 0.37971 0.0
H112 H 0.59423 0.31474 0.34646 0.0
H113 H 0.75525 0.95534 0.34919 0.0
H114 H 0.67278 0.38414 0.32302 0.0
N115 N 0.68638 0.24104 0.38186 0.0
C116 C 0.64584 0.20652 0.39854 0.0
C117 C 0.5914 0.23929 0.38022 0.0
C118 C 0.634 0.27662 0.36452 0.0
C119 C 0.59773 0.20482 0.3978 0.0
C120 C 0.68186 0.277 0.36618 0.0
H121 H 0.76959 0.42821 0.31504 0.0
N122 N 0.77178 0.31633 0.3564 0.0
C123 C 0.8169 0.39783 0.33141 0.0
C124 C 0.72601 0.3161 0.35323 0.0
C125 C 0.81717 0.35725 0.34649 0.0
C126 C 0.76976 0.39679 0.32676 0.0
C127 C 0.72358 0.35588 0.33794 0.0
O128 O 0.81626 0.31664 0.4101 0.0
O129 O 0.81018 0.20031 0.38323 0.0
O130 O 0.73877 0.13478 0.3382 0.0
O131 O 0.70075 0.17561 0.36425 0.0
O132 O 0.74112 0.17199 0.40681 0.0
O133 O 0.74738 0.25179 0.42834 0.0
O134 O 0.84336 0.16855 0.29485 0.0
O135 O 0.79771 0.2475 0.33958 0.0
O136 O 0.85715 0.2886 0.38963 0.0
O137 O 0.88641 0.27856 0.34564 0.0
O138 O 0.773 0.19488 0.30494 0.0
O139 O 0.90061 0.24131 0.31338 0.0
C140 C 0.77825 0.16333 0.39937 0.0
C141 C 0.76837 0.33696 0.44297 0.0
C142 C 0.73434 0.36521 0.4827 0.0
C143 C 0.74767 0.32966 0.4707 0.0
C144 C 0.74199 0.40829 0.46635 0.0
C145 C 0.77508 0.37989 0.42684 0.0
C146 C 0.76199 0.41531 0.43856 0.0
C147 C 0.69744 0.13643 0.3486 0.0
C148 C 0.78392 0.30022 0.43155 0.0
C149 C 0.6755 0.35426 0.33495 0.0
C150 C 0.63077 0.3147 0.34824 0.0
C151 C 0.76983 0.23245 0.3171 0.0
C152 C 0.93115 0.20462 0.27829 0.0
C153 C 0.95203 0.22759 0.25138 0.0
C154 C 0.99393 0.22407 0.23885 0.0
C155 C 0.01406 0.19682 0.25392 0.0
C156 C 0.95221 0.17793 0.29269 0.0
C157 C 0.99336 0.17406 0.28051 0.0
C158 C 0.89306 0.30519 0.36959 0.0
C159 C 0.88856 0.21028 0.29138 0.0
H160 H 0.74134 0.29574 0.4827 0.0
H161 H 0.73278 0.43674 0.47504 0.0
H162 H 0.79079 0.38643 0.4053 0.0
H163 H 0.76759 0.44847 0.4261 0.0
H164 H 0.93612 0.24887 0.2405 0.0
H165 H 0.0454 0.19227 0.24497 0.0
H166 H 0.93691 0.16028 0.31337 0.0
H167 H 0.00933 0.15321 0.29172 0.0
Eu168 Eu 0.52963 0.78355 0.72107 0.0
C169 C 0.71795 0.77987 0.67319 0.0
C170 C 0.7856 0.85045 0.70106 0.0
C171 C 0.7954 0.77648 0.68739 0.0
C172 C 0.73646 0.82686 0.68732 0.0
C173 C 0.74795 0.75487 0.67226 0.0
C174 C 0.81422 0.82426 0.70177 0.0
C175 C 0.68543 0.69299 0.63854 0.0
N176 N 0.67265 0.76084 0.65833 0.0
C177 C 0.65739 0.7195 0.63999 0.0
C178 C 0.73044 0.71018 0.65516 0.0
Eu179 Eu 0.62463 0.80504 0.66362 0.0
N180 N 0.70814 0.85134 0.68581 0.0
C181 C 0.72838 0.9012 0.69583 0.0
C182 C 0.80539 0.90053 0.71264 0.0
C183 C 0.77707 0.92639 0.70951 0.0
H184 H 0.62242 0.70598 0.62715 0.0
H185 H 0.79248 0.96554 0.71787 0.0
H186 H 0.85174 0.84144 0.71253 0.0
H187 H 0.67235 0.65938 0.62459 0.0
H188 H 0.70675 0.92149 0.69386 0.0
H189 H 0.32828 0.64947 0.68851 0.0
H190 H 0.84304 0.92007 0.72329 0.0
H191 H 0.58429 0.9074 0.74703 0.0
H192 H 0.42188 0.6793 0.69462 0.0
H193 H 0.55489 0.96681 0.76499 0.0
H194 H 0.8187 0.75754 0.68723 0.0
H195 H 0.29325 0.70607 0.70397 0.0
H196 H 0.30902 0.78957 0.72682 0.0
H197 H 0.75233 0.68983 0.65386 0.0
H198 H 0.37 0.87447 0.74857 0.0
N199 N 0.44038 0.75306 0.71198 0.0
C200 C 0.4073 0.70465 0.70105 0.0
C201 C 0.33456 0.71963 0.70638 0.0
C202 C 0.36835 0.76854 0.71848 0.0
C203 C 0.35415 0.68754 0.69766 0.0
C204 C 0.42191 0.7846 0.72093 0.0
H205 H 0.46129 0.94033 0.76322 0.0
N206 N 0.50809 0.84795 0.73439 0.0
C207 C 0.52686 0.92929 0.75603 0.0
C208 C 0.45647 0.83294 0.73288 0.0
C209 C 0.54337 0.89548 0.74576 0.0
C210 C 0.47397 0.91416 0.75499 0.0
C211 C 0.43812 0.86583 0.74304 0.0
O212 O 0.54792 0.78316 0.76623 0.0
O213 O 0.60771 0.79169 0.71076 0.0
O214 O 0.58465 0.71783 0.67557 0.0
O215 O 0.51393 0.70453 0.70464 0.0
O216 O 0.6069 0.83943 0.74238 0.0
O217 O 0.47515 0.72063 0.74943 0.0
O218 O 0.63585 0.80284 0.61726 0.0
O219 O 0.54404 0.78393 0.6744 0.0
O220 O 0.53549 0.84788 0.6936 0.0
O221 O 0.61877 0.87893 0.67496 0.0
O222 O 0.55332 0.75464 0.63591 0.0
O223 O 0.65956 0.87656 0.63797 0.0
C224 C 0.63517 0.82258 0.73056 0.0
C225 C 0.4741 0.75479 0.79541 0.0
C226 C 0.40583 0.72383 0.83148 0.0
C227 C 0.43356 0.71355 0.8104 0.0
C228 C 0.41804 0.7753 0.83712 0.0
C229 C 0.48752 0.80636 0.80242 0.0
C230 C 0.45904 0.81642 0.82273 0.0
C231 C 0.54047 0.68705 0.68972 0.0
C232 C 0.502 0.74433 0.77241 0.0
C233 C 0.38475 0.84965 0.74091 0.0
C234 C 0.35005 0.80135 0.72846 0.0
C235 C 0.51981 0.75705 0.65268 0.0
C236 C 0.70706 0.87798 0.59659 0.0
C237 C 0.71408 0.91324 0.57422 0.0
C238 C 0.76129 0.93784 0.55841 0.0
C239 C 0.80039 0.92557 0.56496 0.0
C240 C 0.74709 0.86705 0.6026 0.0
C241 C 0.79323 0.89047 0.58676 0.0
C242 C 0.57754 0.88444 0.68087 0.0
C243 C 0.65862 0.85324 0.61399 0.0
H244 H 0.42376 0.67372 0.80582 0.0
H245 H 0.39711 0.78373 0.85344 0.0
H246 H 0.52033 0.8391 0.79245 0.0
H247 H 0.46939 0.85622 0.82764 0.0
H248 H 0.68362 0.92243 0.56968 0.0
H249 H 0.83682 0.94333 0.55316 0.0
H250 H 0.74271 0.84041 0.6196 0.0
H251 H 0.82382 0.88165 0.59155 0.0
Eu252 Eu 0.75546 0.50524 0.05366 0.0
C253 C 0.90922 0.72797 0.03326 0.0
C254 C 0.87931 0.76308 0.07106 0.0
C255 C 0.97185 0.80477 0.06011 0.0
C256 C 0.8688 0.72562 0.04932 0.0
C257 C 0.96112 0.76825 0.03808 0.0
C258 C 0.93102 0.80213 0.0766 0.0
C259 C 0.98786 0.73523 0.99799 0.0
N260 N 0.89779 0.6916 1.01251 0.0
C261 C 0.93593 0.69604 0.99411 0.0
C262 C 1.00067 0.77108 0.02036 0.0
Eu263 Eu 0.80949 0.62327 1.0085 0.0
N264 N 0.81931 0.68657 0.04388 0.0
C265 C 0.77838 0.68455 0.05876 0.0
C266 C 0.83759 0.76014 0.0867 0.0
C267 C 0.78689 0.72094 0.08035 0.0
H268 H 0.92644 0.6688 0.9765 0.0
H269 H 0.75423 0.71848 0.09222 0.0
H270 H 0.93979 0.83077 0.09342 0.0
H271 H 0.01794 0.73777 0.98371 0.0
H272 H 0.73883 0.6548 0.05471 0.0
H273 H 0.71419 0.34973 0.97625 0.0
H274 H 0.84406 0.78803 0.1036 0.0
H275 H 0.68241 0.49749 0.11058 0.0
H276 H 0.76953 0.4287 1.00491 0.0
H277 H 0.59067 0.44533 0.12681 0.0
H278 H 0.01151 0.83556 0.06433 0.0
H279 H 0.6183 0.30238 0.9828 0.0
H280 H 0.54084 0.29107 1.01106 0.0
H281 H 0.04097 0.8014 0.02337 0.0
H282 H 0.50705 0.31689 0.05251 0.0
N283 N 0.70557 0.42815 0.0262 0.0
C284 C 0.72778 0.40865 1.00787 0.0
C285 C 0.64241 0.33732 0.99527 0.0
C286 C 0.62043 0.35454 0.0162 0.0
C287 C 0.69652 0.36378 0.99161 0.0
C288 C 0.6536 0.40035 0.03179 0.0
H289 H 0.52566 0.37347 0.09634 0.0
N290 N 0.66869 0.45634 0.07108 0.0
C291 C 0.6024 0.43654 0.1065 0.0
C292 C 0.63458 0.41464 0.05514 0.0
C293 C 0.65424 0.46582 0.09732 0.0
C294 C 0.56578 0.39615 0.08917 0.0
C295 C 0.58192 0.3839 0.06348 0.0
O296 O 0.76737 0.48928 0.09792 0.0
O297 O 0.81646 0.58961 0.05035 0.0
O298 O 0.86978 0.59494 1.00781 0.0
O299 O 0.82594 0.51291 0.02994 0.0
O300 O 0.77779 0.56572 0.08896 0.0
O301 O 0.78433 0.4519 0.06279 0.0
O302 O 0.83388 0.6593 0.96593 0.0
O303 O 0.7546 0.53765 1.01055 0.0
O304 O 0.69179 0.52482 0.05003 0.0
O305 O 0.72165 0.59427 0.01778 0.0
O306 O 0.80394 0.56543 0.97529 0.0
O307 O 0.76592 0.6543 0.98523 0.0
C308 C 0.81517 0.60448 0.07568 0.0
C309 C 0.74027 0.40041 0.10319 0.0
C310 C 0.69892 0.34867 0.14587 0.0
C311 C 0.73516 0.39614 0.13311 0.0
C312 C 0.66712 0.30563 0.1282 0.0
C313 C 0.70864 0.35659 0.08597 0.0
C314 C 0.67205 0.30973 0.09845 0.0
C315 C 0.86627 0.5502 0.01607 0.0
C316 C 0.77556 0.45156 0.09025 0.0
C317 C 0.54783 0.34057 0.0467 0.0
C318 C 0.56707 0.3259 0.02308 0.0
C319 C 0.76565 0.52469 0.98689 0.0
C320 C 0.7666 0.64957 0.93389 0.0
C321 C 0.76361 0.68457 0.91408 0.0
C322 C 0.7392 0.66673 0.88659 0.0
C323 C 0.71989 0.61371 0.87963 0.0
C324 C 0.74358 0.59693 0.92623 0.0
C325 C 0.72112 0.57933 0.89939 0.0
C326 C 0.68514 0.55838 0.03479 0.0
C327 C 0.79456 0.66696 0.96216 0.0
H328 H 0.7592 0.42994 0.14644 0.0
H329 H 0.63956 0.26828 0.13735 0.0
H330 H 0.7117 0.3584 0.06285 0.0
H331 H 0.64775 0.27629 0.08501 0.0
H332 H 0.77985 0.72503 0.92027 0.0
H333 H 0.70397 0.598 0.8587 0.0
H334 H 0.74352 0.56921 0.94088 0.0
H335 H 0.70491 0.53867 0.89368 0.0
Eu336 Eu 0.28066 0.76314 0.38621 0.0
C337 C 0.19912 0.89364 0.36254 0.0
C338 C 0.13011 0.86611 0.39789 0.0
C339 C 0.18685 0.95828 0.38867 0.0
C340 C 0.158 0.85398 0.3775 0.0
C341 C 0.21292 0.94615 0.36749 0.0
C342 C 0.1455 0.91835 0.4038 0.0
C343 C 0.27325 0.97088 0.32803 0.0
N344 N 0.22408 0.88096 0.3423 0.0
C345 C 0.25805 0.91845 0.32379 0.0
C346 C 0.2515 0.98497 0.35042 0.0
Eu347 Eu 0.19919 0.7909 0.33883 0.0
N348 N 0.14503 0.80369 0.37212 0.0
C349 C 0.10179 0.76382 0.38486 0.0
C350 C 0.08744 0.82538 0.41177 0.0
C351 C 0.07282 0.77406 0.40492 0.0
H352 H 0.27368 0.9085 0.30541 0.0
H353 H 0.03914 0.7422 0.41511 0.0
H354 H 0.12509 0.92825 0.41973 0.0
H355 H 0.3013 1.00033 0.31377 0.0
H356 H 0.08841 0.72367 0.37982 0.0
H357 H 0.49136 0.88788 0.40133 0.0
H358 H 0.06511 0.83313 0.42752 0.0
H359 H 0.21606 0.63173 0.36505 0.0
H360 H 0.3979 0.85841 0.40911 0.0
H361 H 0.23619 0.57291 0.33931 0.0
H362 H 0.19754 0.9984 0.39302 0.0
H363 H 0.51693 0.83653 0.37027 0.0
H364 H 0.49016 0.75566 0.34124 0.0
H365 H 0.26314 0.02565 0.35357 0.0
H366 H 0.42069 0.67 0.32455 0.0
N367 N 0.37098 0.79129 0.38235 0.0
C368 C 0.40879 0.8355 0.39565 0.0
C369 C 0.4759 0.82332 0.37368 0.0
C370 C 0.4371 0.77633 0.36176 0.0
C371 C 0.46165 0.85247 0.3912 0.0
C372 C 0.38415 0.76067 0.36691 0.0
H373 H 0.32648 0.60153 0.3241 0.0
N374 N 0.29433 0.69703 0.36445 0.0
C375 C 0.26714 0.61211 0.34419 0.0
C376 C 0.34485 0.71216 0.3578 0.0
C377 C 0.25598 0.64657 0.35898 0.0
C378 C 0.31808 0.62838 0.33562 0.0
C379 C 0.35786 0.67844 0.3429 0.0
O380 O 0.23921 0.73905 0.42705 0.0
O381 O 0.22608 0.79583 0.38477 0.0
O382 O 0.28668 0.84469 0.32689 0.0
O383 O 0.33483 0.84 0.3654 0.0
O384 O 0.3002 0.84222 0.40258 0.0
O385 O 0.31768 0.75269 0.42436 0.0
O386 O 0.19605 0.8128 0.29412 0.0
O387 O 0.2562 0.76236 0.34099 0.0
O388 O 0.2001 0.69237 0.38484 0.0
O389 O 0.14609 0.7082 0.35489 0.0
O390 O 0.1929 0.72149 0.31465 0.0
O391 O 0.12486 0.75915 0.31589 0.0
C392 C 0.25518 0.8384 0.39831 0.0
C393 C 0.26256 0.693 0.45918 0.0
C394 C 0.26571 0.66013 0.50663 0.0
C395 C 0.27867 0.70198 0.48792 0.0
C396 C 0.23592 0.60887 0.49605 0.0
C397 C 0.23308 0.64174 0.44889 0.0
C398 C 0.21963 0.59986 0.46736 0.0
C399 C 0.33087 0.86211 0.34183 0.0
C400 C 0.27701 0.73798 0.44057 0.0
C401 C 0.41024 0.69516 0.33628 0.0
C402 C 0.44978 0.74395 0.34574 0.0
C403 C 0.2358 0.72498 0.32338 0.0
C404 C 0.11588 0.8025 0.27541 0.0
C405 C 0.09117 0.7779 0.24927 0.0
C406 C 0.05961 0.79343 0.23418 0.0
C407 C 0.05406 0.83448 0.24562 0.0
C408 C 0.10967 0.84334 0.28612 0.0
C409 C 0.07907 0.85927 0.27122 0.0
C410 C 0.1548 0.67831 0.37244 0.0
C411 C 0.14549 0.78315 0.29193 0.0
H412 H 0.30245 0.7418 0.49548 0.0
H413 H 0.22523 0.57584 0.50994 0.0
H414 H 0.22062 0.63418 0.42668 0.0
H415 H 0.19673 0.5603 0.45939 0.0
H416 H 0.09545 0.74588 0.24112 0.0
H417 H 0.03076 0.8479 0.23457 0.0
H418 H 0.12805 0.86251 0.30613 0.0
H419 H 0.07443 0.89085 0.27965 0.0
Eu420 Eu 0.51453 0.27908 0.70598 0.0
C421 C 0.28457 0.16849 0.69326 0.0
C422 C 0.26172 0.10328 0.73018 0.0
C423 C 0.20662 0.14136 0.72219 0.0
C424 C 0.29553 0.13474 0.70819 0.0
C425 C 0.23909 0.17094 0.69954 0.0
C426 C 0.21794 0.10764 0.7375 0.0
C427 C 0.25802 0.22738 0.65867 0.0
N428 N 0.31668 0.19673 0.67154 0.0
C429 C 0.3025 0.22352 0.65323 0.0
C430 C 0.2267 0.2018 0.68228 0.0
Eu431 Eu 0.39373 0.19165 0.66548 0.0
N432 N 0.33855 0.13182 0.70089 0.0
C433 C 0.3486 0.09648 0.71393 0.0
C434 C 0.27262 0.06799 0.74402 0.0
C435 C 0.31594 0.06422 0.73564 0.0
H436 H 0.32658 0.24332 0.63485 0.0
H437 H 0.32449 0.03675 0.74608 0.0
H438 H 0.19199 0.0843 0.75457 0.0
H439 H 0.24791 0.25003 0.64464 0.0
H440 H 0.38202 0.09307 0.70816 0.0
H441 H 0.66171 0.42524 0.63469 0.0
H442 H 0.24761 0.04318 0.761 0.0
H443 H 0.53003 0.20802 0.75757 0.0
H444 H 0.57552 0.37475 0.65687 0.0
H445 H 0.59843 0.19191 0.77612 0.0
H446 H 0.17198 0.14335 0.72759 0.0
H447 H 0.73352 0.40982 0.64871 0.0
H448 H 0.76541 0.36285 0.67998 0.0
H449 H 0.19216 0.20472 0.68643 0.0
H450 H 0.74841 0.29997 0.71855 0.0
N451 N 0.59667 0.32932 0.68299 0.0
C452 C 0.606 0.36722 0.66339 0.0
C453 C 0.69549 0.38735 0.65861 0.0
C454 C 0.6866 0.35035 0.67967 0.0
C455 C 0.65512 0.39621 0.65068 0.0
C456 C 0.63626 0.32196 0.69185 0.0
H457 H 0.68657 0.23649 0.75456 0.0
N458 N 0.5783 0.26109 0.72529 0.0
C459 C 0.60696 0.21869 0.75852 0.0
C460 C 0.62689 0.287 0.71371 0.0
C461 C 0.56822 0.22814 0.74793 0.0
C462 C 0.65663 0.2439 0.74629 0.0
C463 C 0.66728 0.27884 0.72377 0.0
O464 O 0.52081 0.30877 0.74955 0.0
O465 O 0.42662 0.23453 0.70695 0.0
O466 O 0.40151 0.27294 0.67043 0.0
O467 O 0.4911 0.3255 0.67763 0.0
O468 O 0.46453 0.22721 0.74196 0.0
O469 O 0.53982 0.361 0.71341 0.0
O470 O 0.36218 0.17698 0.62182 0.0
O471 O 0.47929 0.23981 0.6646 0.0
O472 O 0.52327 0.21052 0.69375 0.0
O473 O 0.4418 0.1497 0.67437 0.0
O474 O 0.44137 0.2398 0.62729 0.0
O475 O 0.36233 0.11444 0.64541 0.0
C476 C 0.41948 0.21537 0.73185 0.0
C477 C 0.58903 0.39509 0.75603 0.0
C478 C 0.63692 0.42683 0.80087 0.0
C479 C 0.59098 0.39327 0.78599 0.0
C480 C 0.68098 0.4634 0.7855 0.0
C481 C 0.6333 0.43192 0.74088 0.0
C482 C 0.67897 0.46598 0.75566 0.0
C483 C 0.44465 0.31945 0.67205 0.0
C484 C 0.54103 0.35702 0.7412 0.0
C485 C 0.717 0.30594 0.7112 0.0
C486 C 0.72665 0.34166 0.68922 0.0
C487 C 0.48634 0.25613 0.63918 0.0
C488 C 0.29813 0.09072 0.60867 0.0
C489 C 0.2945 0.06031 0.58421 0.0
C490 C 0.24519 0.02495 0.57205 0.0
C491 C 0.20024 0.02192 0.58444 0.0
C492 C 0.2524 0.08588 0.62061 0.0
C493 C 0.2039 0.05197 0.60844 0.0
C494 C 0.49013 0.16365 0.68348 0.0
C495 C 0.3495 0.12795 0.62144 0.0
H496 H 0.55705 0.36456 0.79768 0.0
H497 H 0.71681 0.49018 0.79657 0.0
H498 H 0.63289 0.43424 0.71771 0.0
H499 H 0.71299 0.49423 0.74395 0.0
H500 H 0.32971 0.06346 0.57508 0.0
H501 H 0.16189 0.99618 0.5755 0.0
H502 H 0.25415 0.10848 0.63931 0.0
H503 H 0.16884 0.04885 0.6177 0.0
H504 H 0.19413 0.64072 0.289 0.0
H505 H 0.34078 0.77821 0.31084 0.0
H506 H 0.38202 0.76366 0.26831 0.0
H507 H 0.24996 0.56363 0.25182 0.0
H508 H 0.19897 0.54034 0.22511 0.0
H509 H 0.18598 0.55226 0.26137 0.0
H510 H 0.1543 0.61364 0.24214 0.0
H511 H 0.16776 0.60278 0.20601 0.0
H512 H 0.19741 0.6683 0.22009 0.0
H513 H 0.40162 0.74467 0.21876 0.0
H514 H 0.39822 0.72428 0.16716 0.0
H515 H 0.23603 0.60331 0.17615 0.0
C516 C 0.23558 0.66625 0.28547 0.0
C517 C 0.2647 0.70982 0.30343 0.0
C518 C 0.31825 0.74382 0.29772 0.0
C519 C 0.34188 0.73581 0.27356 0.0
C520 C 0.31123 0.69383 0.25533 0.0
C521 C 0.25923 0.65929 0.26121 0.0
C522 C 0.23228 0.62288 0.23613 0.0
C523 C 0.21584 0.56643 0.24408 0.0
C524 C 0.18522 0.62723 0.22548 0.0
C525 C 0.27622 0.64439 0.21447 0.0
C526 C 0.32186 0.68421 0.22619 0.0
C527 C 0.36634 0.71298 0.20953 0.0
C528 C 0.3638 0.70149 0.18012 0.0
C529 C 0.31675 0.66227 0.16743 0.0
C530 C 0.27295 0.63266 0.18516 0.0
H531 H 0.5121 0.32033 0.5936 0.0
H532 H 0.56769 0.23757 0.64595 0.0
H533 H 0.64505 0.26815 0.61511 0.0
H534 H 0.54166 0.28479 0.5289 0.0
H535 H 0.56072 0.34534 0.51079 0.0
H536 H 0.51524 0.32535 0.54007 0.0
H537 H 0.57519 0.41258 0.56651 0.0
H538 H 0.62109 0.43295 0.53724 0.0
H539 H 0.64249 0.43174 0.5733 0.0
H540 H 0.71181 0.30091 0.57618 0.0
H541 H 0.75895 0.32679 0.53014 0.0
H542 H 0.65556 0.38199 0.50097 0.0
C543 C 0.54143 0.30998 0.59894 0.0
C544 C 0.53519 0.27846 0.62282 0.0
C545 C 0.57283 0.26346 0.62852 0.0
C546 C 0.61689 0.28058 0.61102 0.0
C547 C 0.62214 0.31197 0.58766 0.0
C548 C 0.58525 0.32626 0.58148 0.0
C549 C 0.59658 0.35465 0.55319 0.0
C550 C 0.55085 0.32579 0.532 0.0
C551 C 0.60962 0.41135 0.55784 0.0
C552 C 0.64427 0.35208 0.54383 0.0
C553 C 0.65921 0.32859 0.56436 0.0
C554 C 0.70066 0.31959 0.55998 0.0
C555 C 0.72683 0.33394 0.53362 0.0
C556 C 0.71073 0.35604 0.51176 0.0
C557 C 0.66954 0.36609 0.51732 0.0
H558 H 0.31245 0.51281 0.95508 0.0
H559 H 0.15878 0.49626 0.94716 0.0
H560 H 0.19151 0.56325 0.90911 0.0
H561 H 0.39539 0.65368 0.937 0.0
H562 H 0.43866 0.63856 0.91759 0.0
H563 H 0.40206 0.59857 0.94746 0.0
H564 H 0.36943 0.51996 0.91089 0.0
H565 H 0.40177 0.56338 0.88138 0.0
H566 H 0.33237 0.51878 0.87988 0.0
H567 H 0.24115 0.63242 0.87294 0.0
H568 H 0.30385 0.69645 0.83836 0.0
H569 H 0.42157 0.65918 0.86565 0.0
C570 C 0.28644 0.52477 0.94586 0.0
C571 C 0.23393 0.50162 0.95451 0.0
C572 C 0.1996 0.51519 0.94106 0.0
C573 C 0.21775 0.55287 0.91951 0.0
C574 C 0.26971 0.57479 0.91111 0.0
C575 C 0.3035 0.56097 0.92363 0.0
C576 C 0.35567 0.58606 0.90845 0.0
C577 C 0.40053 0.62122 0.9289 0.0
C578 C 0.36534 0.54456 0.89431 0.0
C579 C 0.34652 0.61767 0.88621 0.0
C580 C 0.29676 0.61074 0.8882 0.0
C581 C 0.28004 0.63784 0.8709 0.0
C582 C 0.31564 0.67388 0.8514 0.0
C583 C 0.36675 0.68165 0.84927 0.0
C584 C 0.38212 0.65272 0.86654 0.0
H585 H 0.8237 0.31813 0.28563 0.0
H586 H 0.66733 0.20323 0.31118 0.0
H587 H 0.63072 0.23793 0.2755 0.0
H588 H 0.7936 0.42581 0.26189 0.0
H589 H 0.83825 0.44158 0.23233 0.0
H590 H 0.85107 0.41977 0.26582 0.0
H591 H 0.85711 0.3465 0.23839 0.0
H592 H 0.84342 0.36749 0.20519 0.0
H593 H 0.80262 0.30103 0.21666 0.0
H594 H 0.61207 0.27049 0.2308 0.0
H595 H 0.61259 0.29509 0.18024 0.0
H596 H 0.78176 0.38621 0.18246 0.0
C597 C 0.78185 0.30253 0.28464 0.0
C598 C 0.74809 0.26003 0.30177 0.0
C599 C 0.69348 0.23737 0.29886 0.0
C600 C 0.67253 0.25698 0.27876 0.0
C601 C 0.70692 0.29851 0.26153 0.0
C602 C 0.76059 0.32128 0.26444 0.0
C603 C 0.78908 0.35792 0.23996 0.0
C604 C 0.8198 0.41463 0.25066 0.0
C605 C 0.82509 0.34223 0.22413 0.0
C606 C 0.74319 0.34904 0.22162 0.0
C607 C 0.69613 0.31616 0.23485 0.0
C608 C 0.6486 0.29726 0.22052 0.0
C609 C 0.64929 0.31098 0.19172 0.0
C610 C 0.69726 0.34258 0.17746 0.0
C611 C 0.74447 0.3632 0.193 0.0
H612 H 0.45781 0.66757 0.62487 0.0
H613 H 0.46399 0.80812 0.65639 0.0
H614 H 0.38442 0.78677 0.629 0.0
H615 H 0.43503 0.68278 0.55733 0.0
H616 H 0.39191 0.61526 0.54817 0.0
H617 H 0.43814 0.63193 0.57682 0.0
H618 H 0.36368 0.57458 0.61201 0.0
H619 H 0.31686 0.55689 0.58327 0.0
H620 H 0.30877 0.58483 0.61599 0.0
H621 H 0.3176 0.76097 0.59038 0.0
H622 H 0.26992 0.73368 0.54433 0.0
H623 H 0.30995 0.6119 0.53581 0.0
C624 C 0.44061 0.69228 0.6271 0.0
C625 C 0.46571 0.73842 0.64359 0.0
C626 C 0.44416 0.77157 0.64491 0.0
C627 C 0.39897 0.75971 0.62924 0.0
C628 C 0.37623 0.7148 0.61217 0.0
C629 C 0.39609 0.68125 0.61125 0.0
C630 C 0.37057 0.64078 0.5877 0.0
C631 C 0.41134 0.64289 0.56626 0.0
C632 C 0.33802 0.58602 0.60052 0.0
C633 C 0.33586 0.65888 0.5742 0.0
C634 C 0.33852 0.70069 0.5891 0.0
C635 C 0.31428 0.72754 0.57893 0.0
C636 C 0.2877 0.71207 0.55262 0.0
C637 C 0.28615 0.67057 0.53651 0.0
C638 C 0.30932 0.64285 0.54796 0.0
H639 H 0.78865 0.47927 0.94431 0.0
H640 H 0.65942 0.48314 0.98551 0.0
H641 H 0.60343 0.43845 0.94358 0.0
H642 H 0.77779 0.51757 0.88272 0.0
H643 H 0.79275 0.47724 0.86008 0.0
H644 H 0.81669 0.49088 0.89617 0.0
H645 H 0.7722 0.39253 0.90768 0.0
H646 H 0.74932 0.3779 0.87108 0.0
H647 H 0.7036 0.35079 0.90031 0.0
H648 H 0.57206 0.41941 0.89315 0.0
H649 H 0.56472 0.41926 0.84033 0.0
H650 H 0.71429 0.42641 0.83215 0.0
C651 C 0.74765 0.46768 0.94508 0.0
C652 C 0.72786 0.48364 0.96795 0.0
C653 C 0.6747 0.47 0.96827 0.0
C654 C 0.64273 0.44466 0.94453 0.0
C655 C 0.66454 0.43255 0.9212 0.0
C656 C 0.7155 0.44225 0.92171 0.0
C657 C 0.73276 0.43391 0.89261 0.0
C658 C 0.78287 0.48281 0.88233 0.0
C659 C 0.73986 0.38591 0.89294 0.0
C660 C 0.68586 0.42373 0.87494 0.0
C661 C 0.64618 0.42134 0.89184 0.0
C662 C 0.60193 0.41913 0.87981 0.0
C663 C 0.59826 0.41944 0.84983 0.0
C664 C 0.63903 0.4228 0.83234 0.0
C665 C 0.68265 0.42382 0.84511 0.0
H666 H 0.39638 0.48102 0.98069 0.0
H667 H 0.34445 0.40815 0.06379 0.0
H668 H 0.43636 0.44079 0.07803 0.0
H669 H 0.50338 0.44746 0.97468 0.0
H670 H 0.54563 0.5065 0.95549 0.0
H671 H 0.47576 0.4765 0.95182 0.0
H672 H 0.48185 0.56371 0.96721 0.0
H673 H 0.55157 0.59339 0.97163 0.0
H674 H 0.51181 0.59306 1.00106 0.0
H675 H 0.53256 0.4955 0.08615 0.0
H676 H 0.62827 0.53905 0.08291 0.0
H677 H 0.62039 0.56077 0.99152 0.0
C678 C 0.40449 0.47037 1.00146 0.0
C679 C 0.36351 0.44176 0.02118 0.0
C680 C 0.37526 0.42908 0.04829 0.0
C681 C 0.42735 0.44824 0.05668 0.0
C682 C 0.46701 0.47841 0.03729 0.0
C683 C 0.4563 0.48707 1.00971 0.0
C684 C 0.5066 0.51766 0.9926 0.0
C685 C 0.50792 0.48508 0.96714 0.0
C686 C 0.51332 0.57005 0.98253 0.0
C687 C 0.54728 0.52579 0.01514 0.0
C688 C 0.52316 0.50438 0.04098 0.0
C689 C 0.55172 0.51031 0.06575 0.0
C690 C 0.6061 0.53504 0.06367 0.0
C691 C 0.63168 0.55112 0.03683 0.0
C692 C 0.60205 0.54854 1.01233 0.0
H693 H 0.09 0.60543 0.33254 0.0
H694 H 0.12894 0.6276 0.42311 0.0
H695 H 0.07039 0.53355 0.43137 0.0
H696 H 0.95239 0.50365 0.34056 0.0
H697 H 0.95334 0.46763 0.30949 0.0
H698 H 0.99583 0.53726 0.31115 0.0
H699 H 0.07535 0.52452 0.30205 0.0
H700 H 0.03305 0.45478 0.30105 0.0
H701 H 0.08719 0.48368 0.32582 0.0
H702 H 1.00816 0.43812 0.43017 0.0
H703 H 0.94241 0.34649 0.41997 0.0
H704 H 0.94627 0.38265 0.32963 0.0
C705 C 0.08497 0.59049 0.35417 0.0
C706 C 0.11327 0.62379 0.37734 0.0
C707 C 0.10722 0.60273 0.40519 0.0
C708 C 0.07425 0.54936 0.41004 0.0
C709 C 0.0479 0.51726 0.38674 0.0
C710 C 0.05253 0.53684 0.35936 0.0
C711 C 0.02069 0.49311 0.33809 0.0
C712 C 0.97803 0.50089 0.32399 0.0
C713 C 0.0562 0.48878 0.31541 0.0
C714 C 0.99716 0.44614 0.35788 0.0
C715 C 0.0135 0.46124 0.38584 0.0
C716 C 0.99537 0.42572 0.40834 0.0
C717 C 0.95821 0.37371 0.40233 0.0
C718 C 0.93982 0.3573 0.37401 0.0
C719 C 0.96069 0.39381 0.35137 0.0
H720 H 0.43865 0.05633 0.67259 0.0
H721 H 0.59309 0.19142 0.68443 0.0
H722 H 0.63257 0.13636 0.68013 0.0
H723 H 0.45819 0.97117 0.71289 0.0
H724 H 0.42448 0.91411 0.69015 0.0
H725 H 0.40617 0.96359 0.68975 0.0
H726 H 0.42143 0.97605 0.63549 0.0
H727 H 0.43793 0.92506 0.63485 0.0
H728 H 0.48286 0.98843 0.62055 0.0
H729 H 0.6567 0.06635 0.67708 0.0
H730 H 0.66105 0.98483 0.67916 0.0
H731 H 0.49236 0.89497 0.67062 0.0
C732 C 0.48075 0.07434 0.67387 0.0
C733 C 0.51228 0.12843 0.67927 0.0
C734 C 0.56742 0.15016 0.68091 0.0
C735 C 0.59066 0.1192 0.67812 0.0
C736 C 0.55868 0.06614 0.67331 0.0
C737 C 0.50493 0.04376 0.67103 0.0
C738 C 0.47959 0.98512 0.66757 0.0
C739 C 0.43977 0.95677 0.69155 0.0
C740 C 0.45394 0.96765 0.63784 0.0
C741 C 0.52711 0.97816 0.67003 0.0
C742 C 0.57257 0.0255 0.67234 0.0
C743 C 0.62136 0.0289 0.67508 0.0
C744 C 0.62362 0.98252 0.67609 0.0
C745 C 0.57728 0.93356 0.67495 0.0
C746 C 0.52865 0.93175 0.6714 0.0
H747 H 0.58351 0.62852 0.66901 0.0
H748 H 0.44096 0.61329 0.70495 0.0
H749 H 0.39769 0.51829 0.69932 0.0
H750 H 0.5222 0.52246 0.6169 0.0
H751 H 0.56878 0.50092 0.62259 0.0
H752 H 0.58808 0.56856 0.62777 0.0
H753 H 0.61823 0.56538 0.67958 0.0
H754 H 0.5993 0.49789 0.67443 0.0
H755 H 0.57296 0.51676 0.70404 0.0
H756 H 0.36969 0.42299 0.69135 0.0
H757 H 0.3637 0.33676 0.68562 0.0
H758 H 0.5234 0.41403 0.6547 0.0
C759 C 0.54307 0.60542 0.67533 0.0
C760 C 0.51575 0.62919 0.68692 0.0
C761 C 0.46304 0.59678 0.69566 0.0
C762 C 0.43779 0.54241 0.6925 0.0
C763 C 0.46558 0.52034 0.68072 0.0
C764 C 0.51725 0.5508 0.67254 0.0
C765 C 0.53922 0.51705 0.66214 0.0
C766 C 0.55552 0.5279 0.63046 0.0
C767 C 0.58513 0.52473 0.68118 0.0
C768 C 0.49197 0.46313 0.6659 0.0
C769 C 0.44965 0.46566 0.67642 0.0
C770 C 0.40247 0.42053 0.68283 0.0
C771 C 0.39914 0.37164 0.67924 0.0
C772 C 0.44286 0.36848 0.66956 0.0
C773 C 0.48915 0.41495 0.66207 0.0
H774 H 0.11465 0.51587 0.03753 0.0
H775 H 0.03949 0.38177 0.98055 0.0
H776 H 0.96871 0.40153 0.97158 0.0
H777 H 0.99763 0.50143 0.06907 0.0
H778 H 0.02205 0.57061 0.07149 0.0
H779 H 0.06679 0.54604 0.07273 0.0
H780 H 0.11801 0.60546 0.03006 0.0
H781 H 0.0729 0.62965 0.02842 0.0
H782 H 0.08417 0.60078 0.99704 0.0
H783 H 0.9056 0.43583 0.96924 0.0
H784 H 0.85098 0.47623 0.97725 0.0
H785 H 0.96696 0.58835 0.03568 0.0
C786 C 0.08339 0.49047 0.02312 0.0
C787 C 0.08288 0.447 1.00974 0.0
C788 C 0.04079 0.41486 0.99127 0.0
C789 C 1.0006 0.42616 0.98584 0.0
C790 C 1.00293 0.46977 0.99905 0.0
C791 C 0.04301 0.50109 0.01756 0.0
C792 C 0.03552 0.54456 0.02988 0.0
C793 C 0.03016 0.54038 0.06274 0.0
C794 C 0.08032 0.59829 0.0208 0.0
C795 C 0.98451 0.53261 0.01565 0.0
C796 C 0.96674 0.48962 0.99769 0.0
C797 C 0.91947 0.46974 0.98302 0.0
C798 C 0.88885 0.49318 0.98753 0.0
C799 C 0.90539 0.53616 1.00646 0.0
C800 C 0.95429 0.55669 0.02034 0.0
H801 H 0.39075 0.95044 0.37163 0.0
H802 H 0.3849 0.87172 0.29208 0.0
H803 H 0.47877 0.93546 0.28374 0.0
H804 H 0.48405 0.08496 0.3457 0.0
H805 H 0.51451 0.10407 0.38045 0.0
H806 H 0.44632 0.05596 0.37767 0.0
H807 H 0.46314 0.99117 0.40711 0.0
H808 H 0.5311 0.04003 0.40983 0.0
H809 H 0.51267 0.97689 0.395 0.0
H810 H 0.57739 1.00234 0.28813 0.0
H811 H 0.66695 0.07085 0.30149 0.0
H812 H 0.60603 0.10512 0.37805 0.0
C813 C 0.40883 0.94798 0.35188 0.0
C814 C 0.38049 0.90707 0.33212 0.0
C815 C 0.40561 0.90377 0.307 0.0
C816 C 0.45906 0.93946 0.30233 0.0
C817 C 0.48649 0.97845 0.32286 0.0
C818 C 0.46169 0.98343 0.34683 0.0
C819 C 0.49957 0.02744 0.36614 0.0
C820 C 0.48525 0.07067 0.36755 0.0
C821 C 0.50168 0.00764 0.3963 0.0
C822 C 0.55026 0.04526 0.35008 0.0
C823 C 0.54212 0.01682 0.32509 0.0
C824 C 0.58388 0.02511 0.3075 0.0
C825 C 0.63484 0.06376 0.31545 0.0
C826 C 0.6439 0.09372 0.34084 0.0
C827 C 0.60069 0.08386 0.35826 0.0
H828 H 0.37049 0.27446 0.73427 0.0
H829 H 0.38371 0.15309 0.77827 0.0
H830 H 0.33431 0.15965 0.81934 0.0
H831 H 0.39388 0.35331 0.79443 0.0
H832 H 0.34882 0.37541 0.78544 0.0
H833 H 0.37747 0.35576 0.75743 0.0
H834 H 0.28582 0.28828 0.73846 0.0
H835 H 0.25661 0.30846 0.76599 0.0
H836 H 0.23862 0.24083 0.76267 0.0
H837 H 0.29094 0.18543 0.85793 0.0
H838 H 0.25234 0.22434 0.88955 0.0
H839 H 0.27218 0.33354 0.82213 0.0
C840 C 0.36111 0.2479 0.75208 0.0
C841 C 0.3796 0.212 0.75268 0.0
C842 C 0.36873 0.17978 0.77703 0.0
C843 C 0.34097 0.18352 0.80057 0.0
C844 C 0.32479 0.22041 0.79983 0.0
C845 C 0.33403 0.25178 0.77611 0.0
C846 C 0.31589 0.2909 0.78176 0.0
C847 C 0.36176 0.34717 0.77964 0.0
C848 C 0.27159 0.28156 0.76099 0.0
C849 C 0.29608 0.27734 0.8125 0.0
C850 C 0.30121 0.23629 0.82241 0.0
C851 C 0.28649 0.21745 0.85029 0.0
C852 C 0.2651 0.24037 0.86833 0.0
C853 C 0.25868 0.28224 0.85873 0.0
C854 C 0.27525 0.30105 0.83033 0.0
H855 H 0.09747 0.27363 0.22125 0.0
H856 H 0.94155 0.22815 0.19083 0.0
H857 H 0.97782 0.26443 0.14317 0.0
H858 H 0.16483 0.39416 0.18325 0.0
H859 H 0.22131 0.38808 0.17543 0.0
H860 H 0.18296 0.35787 0.20696 0.0
H861 H 0.17012 0.26851 0.19022 0.0
H862 H 0.20832 0.29857 0.15857 0.0
H863 H 0.14307 0.24379 0.15514 0.0
H864 H 0.03172 0.30661 0.09839 0.0
H865 H 0.0987 0.35482 0.06159 0.0
H866 H 0.21963 0.37147 0.12048 0.0
C867 C 0.07071 0.27077 0.20456 0.0
C868 C 0.01631 0.24772 0.21009 0.0
C869 C 0.98326 0.24601 0.18752 0.0
C870 C 1.00352 0.26616 0.1602 0.0
C871 C 0.05711 0.28809 0.15551 0.0
C872 C 0.09029 0.29071 0.17714 0.0
C873 C 0.14655 0.31736 0.16672 0.0
C874 C 0.18093 0.36733 0.18412 0.0
C875 C 0.16828 0.2798 0.16773 0.0
C876 C 0.14002 0.32983 0.13595 0.0
C877 C 0.08803 0.31221 0.12983 0.0
C878 C 0.07243 0.32018 0.10298 0.0
C879 C 0.11085 0.34739 0.08208 0.0
C880 C 0.16447 0.36604 0.08783 0.0
C881 C 0.17895 0.35694 0.11522 0.0
H882 H 0.70127 0.93213 0.51097 0.0
H883 H 0.84697 0.03454 0.55477 0.0
H884 H 0.87085 0.09976 0.51646 0.0
H885 H 0.75498 0.96392 0.43848 0.0
H886 H 0.69799 0.96163 0.42303 0.0
H887 H 0.69139 0.92185 0.45367 0.0
H888 H 0.64486 0.96238 0.48211 0.0
H889 H 0.65021 1.0013 0.45137 0.0
H890 H 0.67598 0.0323 0.48555 0.0
H891 H 0.87794 0.15598 0.47446 0.0
H892 H 0.86503 0.20014 0.43295 0.0
H893 H 0.71731 0.06141 0.41443 0.0
C894 C 0.73793 0.96849 0.51256 0.0
C895 C 0.77226 0.97813 0.53598 0.0
C896 C 0.82017 0.02607 0.53704 0.0
C897 C 0.83418 0.06337 0.51531 0.0
C898 C 0.80017 0.05236 0.49226 0.0
C899 C 0.75292 0.0062 0.49072 0.0
C900 C 0.72344 1.00471 0.46364 0.0
C901 C 0.71654 0.96037 0.44352 0.0
C902 C 0.67049 0.9999 0.47112 0.0
C903 C 0.76078 0.05765 0.45075 0.0
C904 C 0.8051 0.08426 0.46747 0.0
C905 C 0.8439 0.13504 0.46088 0.0
C906 C 0.83671 0.15965 0.437 0.0
C907 C 0.79159 0.1333 0.41961 0.0
C908 C 0.7533 0.08158 0.42663 0.0
H909 H 0.61623 0.72604 0.74724 0.0
H910 H 0.72037 0.89075 0.76216 0.0
H911 H 0.76261 0.87013 0.80193 0.0
H912 H 0.59207 0.69673 0.82031 0.0
H913 H 0.58571 0.63304 0.81761 0.0
H914 H 0.57081 0.66044 0.78714 0.0
H915 H 0.63722 0.6489 0.75622 0.0
H916 H 0.6521 0.62094 0.78651 0.0
H917 H 0.70377 0.6765 0.76844 0.0
H918 H 0.79093 0.82951 0.84251 0.0
H919 H 0.79935 0.77498 0.8797 0.0
H920 H 0.66523 0.63873 0.84267 0.0
C921 C 0.64939 0.75769 0.7581 0.0
C922 C 0.66695 0.81012 0.75048 0.0
C923 C 0.70806 0.85038 0.7666 0.0
C924 C 0.73187 0.83894 0.7895 0.0
C925 C 0.71294 0.78684 0.79687 0.0
C926 C 0.67218 0.74694 0.78172 0.0
C927 C 0.65461 0.69474 0.7959 0.0
C928 C 0.59743 0.66979 0.80583 0.0
C929 C 0.6624 0.65811 0.77556 0.0
C930 C 0.69187 0.71127 0.82131 0.0
C931 C 0.72586 0.76433 0.82135 0.0
C932 C 0.76421 0.78787 0.84262 0.0
C933 C 0.76834 0.75637 0.86403 0.0
C934 C 0.73368 0.70158 0.86462 0.0
C935 C 0.69423 0.6797 0.84297 0.0
H936 H 0.95776 0.76075 0.21846 0.0
H937 H 0.09912 0.76683 0.18755 0.0
H938 H 0.05475 0.72695 0.14152 0.0
H939 H 0.86915 0.63686 0.18847 0.0
H940 H 0.81984 0.65355 0.17986 0.0
H941 H 0.86409 0.68569 0.20925 0.0
H942 H 0.89158 0.77544 0.18628 0.0
H943 H 0.84756 0.74322 0.15671 0.0
H944 H 0.91572 0.78786 0.14995 0.0
H945 H 0.99341 0.68577 0.0981 0.0
H946 H 0.91861 0.63692 0.06501 0.0
H947 H 0.81672 0.65428 0.12538 0.0
C948 C 0.97962 0.75416 0.20192 0.0
C949 C 0.03226 0.76738 0.20668 0.0
C950 C 0.05885 0.75695 0.18458 0.0
C951 C 0.03404 0.73472 0.15822 0.0
C952 C 0.9823 0.72265 0.15417 0.0
C953 C 0.95525 0.73147 0.17564 0.0
C954 C 0.89901 0.71198 0.16674 0.0
C955 C 0.86078 0.66949 0.1873 0.0
C956 C 0.88783 0.75734 0.16482 0.0
C957 C 0.89814 0.68979 0.13719 0.0
C958 C 0.94685 0.69741 0.12994 0.0
C959 C 0.95524 0.67978 0.10366 0.0
C960 C 0.91257 0.65236 0.08485 0.0
C961 C 0.86192 0.64231 0.09245 0.0
C962 C 0.8551 0.66194 0.11885 0.0
H963 H 0.30263 0.04753 0.52119 0.0
H964 H 0.17314 0.92154 0.56658 0.0
H965 H 0.15627 0.86323 0.52518 0.0
H966 H 0.24262 0.01353 0.45004 0.0
H967 H 0.30236 0.02946 0.4316 0.0
H968 H 0.30446 0.06308 0.46439 0.0
H969 H 0.36733 0.03608 0.4872 0.0
H970 H 0.36631 1.00343 0.4543 0.0
H971 H 0.34907 0.96816 0.48765 0.0
H972 H 0.15407 0.81687 0.47945 0.0
H973 H 0.17207 0.78471 0.43423 0.0
H974 H 0.30189 0.93917 0.4173 0.0
C975 C 0.27097 0.0076 0.52246 0.0
C976 C 0.23887 0.98955 0.54724 0.0
C977 C 0.19776 0.93686 0.54782 0.0
C978 C 0.1878 0.90326 0.52434 0.0
C979 C 0.21917 0.92247 0.50009 0.0
C980 C 0.26024 0.97326 0.49899 0.0
C981 C 0.28881 0.98323 0.47047 0.0
C982 C 0.2843 0.02481 0.45311 0.0
C983 C 0.34628 0.99862 0.47519 0.0
C984 C 0.25817 0.92992 0.45618 0.0
C985 C 0.21767 0.89566 0.4735 0.0
C986 C 0.18521 0.8436 0.46552 0.0
C987 C 0.19525 0.82572 0.43959 0.0
C988 C 0.23704 0.85982 0.42168 0.0
C989 C 0.26855 0.91269 0.43011 0.0
loop_
_geom_bond_atom_site_label_1
_geom_bond_atom_site_label_2
_geom_bond_distance
_geom_bond_site_symmetry_2
_ccdc_geom_bond_type
Eu0 N31 2.657 . S
Eu0 N38 2.609 . S
Eu0 O44 2.558 . S
Eu0 O45 2.612 . S
Eu0 O47 2.339 . S
Eu0 O48 2.563 . S
Eu0 O49 2.419 . S
Eu0 O51 2.380 1_554 S
Eu0 O52 2.432 . S
Eu0 C64 2.848 . S
C1 C4 1.429 . S
C1 C5 1.411 . S
C1 N8 1.377 1_554 S
C2 C4 1.420 . S
C2 C6 1.423 . S
C2 C14 1.392 . S
C3 C5 1.420 . S
C3 C6 1.351 . S
C3 H26 0.931 1_455 S
C4 C1 1.429 . S
C4 C2 1.420 . S
C4 N12 1.362 . S
C5 C1 1.411 . S
C5 C3 1.420 . S
C5 C10 1.395 1_454 S
C6 C2 1.423 . S
C6 C3 1.351 . S
C6 H18 0.930 . S
C7 C9 1.400 1_655 S
C7 C10 1.386 . S
C7 H19 0.930 . S
N8 C1 1.377 1_556 S
N8 C9 1.321 . S
N8 Eu11 2.609 . S
C9 C7 1.400 1_455 S
C9 N8 1.321 . S
C9 H16 0.930 . S
C10 C5 1.395 1_656 S
C10 C7 1.386 . S
C10 H29 0.930 . S
Eu11 N8 2.609 . S
Eu11 N12 2.657 1_556 S
Eu11 O45 2.380 1_556 S
Eu11 O46 2.432 . S
Eu11 O50 2.558 . S
Eu11 O51 2.612 . S
Eu11 O53 2.339 1_556 S
Eu11 O54 2.563 . S
Eu11 O55 2.419 . S
Eu11 C75 2.848 . S
N12 C4 1.362 . S
N12 Eu11 2.657 1_554 S
N12 C13 1.334 . S
C13 N12 1.334 . S
C13 C15 1.413 . S
C13 H20 0.929 . S
C14 C2 1.392 . S
C14 C15 1.367 . S
C14 H22 0.930 . S
C15 C13 1.413 . S
C15 C14 1.367 . S
C15 H17 0.930 . S
H16 C9 0.930 . S
H17 C15 0.930 . S
H18 C6 0.930 . S
H19 C7 0.930 . S
H20 C13 0.929 . S
H21 C35 0.930 . S
H22 C14 0.930 . S
H23 C41 0.930 . S
H24 C32 0.929 . S
H25 C39 0.930 . S
H26 C3 0.931 1_655 S
H27 C33 0.930 . S
H28 C66 0.930 . S
H29 C10 0.930 . S
H30 C65 0.931 . S
N31 Eu0 2.657 . S
N31 C32 1.334 1_554 S
N31 C36 1.362 . S
C32 H24 0.929 . S
C32 N31 1.334 1_556 S
C32 C35 1.413 . S
C33 H27 0.930 . S
C33 C34 1.392 . S
C33 C35 1.367 . S
C34 C33 1.392 . S
C34 C36 1.420 1_556 S
C34 C66 1.423 . S
C35 H21 0.930 . S
C35 C32 1.413 . S
C35 C33 1.367 . S
C36 N31 1.362 . S
C36 C34 1.420 1_554 S
C36 C40 1.429 . S
H37 C42 0.930 . S
N38 Eu0 2.609 . S
N38 C40 1.377 . S
N38 C41 1.321 . S
C39 H25 0.930 . S
C39 C41 1.400 . S
C39 C42 1.386 . S
C40 C36 1.429 . S
C40 N38 1.377 . S
C40 C43 1.411 . S
C41 H23 0.930 . S
C41 N38 1.321 . S
C41 C39 1.400 . S
C42 H37 0.930 . S
C42 C39 1.386 . S
C42 C43 1.395 . S
C43 C40 1.411 . S
C43 C42 1.395 . S
C43 C65 1.420 . S
O44 Eu0 2.558 . S
O44 C64 1.257 . S
O45 Eu0 2.612 . S
O45 Eu11 2.380 1_554 S
O45 C56 1.276 . S
O46 Eu11 2.432 . S
O46 C63 1.264 1_556 S
O47 Eu0 2.339 . S
O47 C63 1.254 . S
O48 Eu0 2.563 . S
O48 C56 1.235 . S
O49 Eu0 2.419 . S
O49 C64 1.249 . S
O50 Eu11 2.558 . S
O50 C75 1.257 . S
O51 Eu0 2.380 1_556 S
O51 Eu11 2.612 . S
O51 C67 1.276 . S
O52 Eu0 2.432 . S
O52 C74 1.264 . S
O53 Eu11 2.339 1_554 S
O53 C74 1.254 . S
O54 Eu11 2.563 . S
O54 C67 1.235 . S
O55 Eu11 2.419 . S
O55 C75 1.249 . S
C56 O45 1.276 . S
C56 O48 1.235 . S
C57 C59 1.393 . S
C57 C61 1.395 . S
C57 C64 1.492 . S
C58 C59 1.392 . S
C58 C60 1.386 . S
C59 C57 1.393 . S
C59 C58 1.392 . S
C59 H76 0.930 . S
C60 C58 1.386 . S
C60 C62 1.395 . S
C60 H77 0.930 . S
C61 C57 1.395 . S
C61 C62 1.379 . S
C61 H78 0.930 . S
C62 C60 1.395 . S
C62 C61 1.379 . S
C62 H79 0.930 . S
C63 O46 1.264 1_554 S
C63 O47 1.254 . S
C64 Eu0 2.848 . S
C64 O44 1.257 . S
C64 O49 1.249 . S
C64 C57 1.492 . S
C65 H30 0.931 . S
C65 C43 1.420 . S
C65 C66 1.351 1_554 S
C66 H28 0.930 . S
C66 C34 1.423 . S
C66 C65 1.351 1_556 S
C67 O51 1.276 . S
C67 O54 1.235 . S
C68 C69 1.393 . S
C68 C72 1.395 . S
C68 C75 1.492 . S
C69 C68 1.393 . S
C69 C70 1.392 . S
C69 H80 0.930 . S
C70 C69 1.392 . S
C70 C71 1.386 . S
C71 C70 1.386 . S
C71 C73 1.395 . S
C71 H81 0.930 . S
C72 C68 1.395 . S
C72 C73 1.379 . S
C72 H82 0.930 . S
C73 C71 1.395 . S
C73 C72 1.379 . S
C73 H83 0.930 . S
C74 O52 1.264 . S
C74 O53 1.254 . S
C75 Eu11 2.848 . S
C75 O50 1.257 . S
C75 O55 1.249 . S
C75 C68 1.492 . S
H76 C59 0.930 . S
H77 C60 0.930 . S
H78 C61 0.930 . S
H79 C62 0.930 . S
H80 C69 0.930 . S
H81 C71 0.930 . S
H82 C72 0.930 . S
H83 C73 0.930 . S
Eu84 N115 2.657 . S
Eu84 N122 2.609 . S
Eu84 O128 2.558 . S
Eu84 O129 2.612 . S
Eu84 O131 2.339 . S
Eu84 O132 2.563 . S
Eu84 O133 2.419 . S
Eu84 O135 2.380 . S
Eu84 O136 2.432 . S
Eu84 C148 2.848 . S
C85 C88 1.429 . S
C85 C89 1.411 . S
C85 N92 1.377 . S
C86 C88 1.420 . S
C86 C90 1.423 . S
C86 C98 1.392 . S
C87 C89 1.420 . S
C87 C90 1.351 . S
C87 H110 0.931 1_545 S
C88 C85 1.429 . S
C88 C86 1.420 . S
C88 N96 1.362 . S
C89 C85 1.411 . S
C89 C87 1.420 . S
C89 C94 1.395 1_545 S
C90 C86 1.423 . S
C90 C87 1.351 . S
C90 H102 0.930 . S
C91 C93 1.400 1_565 S
C91 C94 1.386 . S
C91 H103 0.930 . S
N92 C85 1.377 . S
N92 C93 1.321 . S
N92 Eu95 2.609 . S
C93 C91 1.400 1_545 S
C93 N92 1.321 . S
C93 H100 0.930 . S
C94 C89 1.395 1_565 S
C94 C91 1.386 . S
C94 H113 0.930 . S
Eu95 N92 2.609 . S
Eu95 N96 2.657 . S
Eu95 O129 2.380 . S
Eu95 O130 2.432 . S
Eu95 O134 2.558 . S
Eu95 O135 2.612 . S
Eu95 O137 2.339 . S
Eu95 O138 2.563 . S
Eu95 O139 2.419 . S
Eu95 C159 2.848 . S
N96 C88 1.362 . S
N96 Eu95 2.657 . S
N96 C97 1.334 . S
C97 N96 1.334 . S
C97 C99 1.413 . S
C97 H104 0.929 . S
C98 C86 1.392 . S
C98 C99 1.367 . S
C98 H106 0.930 . S
C99 C97 1.413 . S
C99 C98 1.367 . S
C99 H101 0.930 . S
H100 C93 0.930 . S
H101 C99 0.930 . S
H102 C90 0.930 . S
H103 C91 0.930 . S
H104 C97 0.929 . S
H105 C119 0.930 . S
H106 C98 0.930 . S
H107 C125 0.930 . S
H108 C116 0.929 . S
H109 C123 0.930 . S
H110 C87 0.931 1_565 S
H111 C117 0.930 . S
H112 C150 0.930 . S
H113 C94 0.930 . S
H114 C149 0.931 . S
N115 Eu84 2.657 . S
N115 C116 1.334 . S
N115 C120 1.362 . S
C116 H108 0.929 . S
C116 N115 1.334 . S
C116 C119 1.413 . S
C117 H111 0.930 . S
C117 C118 1.392 . S
C117 C119 1.367 . S
C118 C117 1.392 . S
C118 C120 1.420 . S
C118 C150 1.423 . S
C119 H105 0.930 . S
C119 C116 1.413 . S
C119 C117 1.367 . S
C120 N115 1.362 . S
C120 C118 1.420 . S
C120 C124 1.429 . S
H121 C126 0.930 . S
N122 Eu84 2.609 . S
N122 C124 1.377 . S
N122 C125 1.321 . S
C123 H109 0.930 . S
C123 C125 1.400 . S
C123 C126 1.386 . S
C124 C120 1.429 . S
C124 N122 1.377 . S
C124 C127 1.411 . S
C125 H107 0.930 . S
C125 N122 1.321 . S
C125 C123 1.400 . S
C126 H121 0.930 . S
C126 C123 1.386 . S
C126 C127 1.395 . S
C127 C124 1.411 . S
C127 C126 1.395 . S
C127 C149 1.420 . S
O128 Eu84 2.558 . S
O128 C148 1.257 . S
O129 Eu84 2.612 . S
O129 Eu95 2.380 . S
O129 C140 1.276 . S
O130 Eu95 2.432 . S
O130 C147 1.264 . S
O131 Eu84 2.339 . S
O131 C147 1.254 . S
O132 Eu84 2.563 . S
O132 C140 1.235 . S
O133 Eu84 2.419 . S
O133 C148 1.249 . S
O134 Eu95 2.558 . S
O134 C159 1.257 . S
O135 Eu84 2.380 . S
O135 Eu95 2.612 . S
O135 C151 1.276 . S
O136 Eu84 2.432 . S
O136 C158 1.264 . S
O137 Eu95 2.339 . S
O137 C158 1.254 . S
O138 Eu95 2.563 . S
O138 C151 1.235 . S
O139 Eu95 2.419 . S
O139 C159 1.249 . S
C140 O129 1.276 . S
C140 O132 1.235 . S
C141 C143 1.393 . S
C141 C145 1.395 . S
C141 C148 1.492 . S
C142 C143 1.392 . S
C142 C144 1.386 . S
C143 C141 1.393 . S
C143 C142 1.392 . S
C143 H160 0.930 . S
C144 C142 1.386 . S
C144 C146 1.395 . S
C144 H161 0.930 . S
C145 C141 1.395 . S
C145 C146 1.379 . S
C145 H162 0.930 . S
C146 C144 1.395 . S
C146 C145 1.379 . S
C146 H163 0.930 . S
C147 O130 1.264 . S
C147 O131 1.254 . S
C148 Eu84 2.848 . S
C148 O128 1.257 . S
C148 O133 1.249 . S
C148 C141 1.492 . S
C149 H114 0.931 . S
C149 C127 1.420 . S
C149 C150 1.351 . S
C150 H112 0.930 . S
C150 C118 1.423 . S
C150 C149 1.351 . S
C151 O135 1.276 . S
C151 O138 1.235 . S
C152 C153 1.393 . S
C152 C156 1.395 . S
C152 C159 1.492 . S
C153 C152 1.393 . S
C153 C154 1.392 . S
C153 H164 0.930 . S
C154 C153 1.392 . S
C154 C155 1.386 . S
C155 C154 1.386 . S
C155 C157 1.395 . S
C155 H165 0.930 . S
C156 C152 1.395 . S
C156 C157 1.379 . S
C156 H166 0.930 . S
C157 C155 1.395 . S
C157 C156 1.379 . S
C157 H167 0.930 . S
C158 O136 1.264 . S
C158 O137 1.254 . S
C159 Eu95 2.848 . S
C159 O134 1.257 . S
C159 O139 1.249 . S
C159 C152 1.492 . S
H160 C143 0.930 . S
H161 C144 0.930 . S
H162 C145 0.930 . S
H163 C146 0.930 . S
H164 C153 0.930 . S
H165 C155 0.930 . S
H166 C156 0.930 . S
H167 C157 0.930 . S
Eu168 N199 2.657 . S
Eu168 N206 2.609 . S
Eu168 O212 2.558 . S
Eu168 O213 2.612 . S
Eu168 O215 2.339 . S
Eu168 O216 2.563 . S
Eu168 O217 2.419 . S
Eu168 O219 2.380 . S
Eu168 O220 2.432 . S
Eu168 C232 2.848 . S
C169 C172 1.429 . S
C169 C173 1.411 . S
C169 N176 1.377 . S
C170 C172 1.420 . S
C170 C174 1.423 . S
C170 C182 1.392 . S
C171 C173 1.420 . S
C171 C174 1.351 . S
C171 H194 0.931 . S
C172 C169 1.429 . S
C172 C170 1.420 . S
C172 N180 1.362 . S
C173 C169 1.411 . S
C173 C171 1.420 . S
C173 C178 1.395 . S
C174 C170 1.423 . S
C174 C171 1.351 . S
C174 H186 0.930 . S
C175 C177 1.400 . S
C175 C178 1.386 . S
C175 H187 0.930 . S
N176 C169 1.377 . S
N176 C177 1.321 . S
N176 Eu179 2.609 . S
C177 C175 1.400 . S
C177 N176 1.321 . S
C177 H184 0.930 . S
C178 C173 1.395 . S
C178 C175 1.386 . S
C178 H197 0.930 . S
Eu179 N176 2.609 . S
Eu179 N180 2.657 . S
Eu179 O213 2.380 . S
Eu179 O214 2.432 . S
Eu179 O218 2.558 . S
Eu179 O219 2.612 . S
Eu179 O221 2.339 . S
Eu179 O222 2.563 . S
Eu179 O223 2.419 . S
Eu179 C243 2.848 . S
N180 C172 1.362 . S
N180 Eu179 2.657 . S
N180 C181 1.334 . S
C181 N180 1.334 . S
C181 C183 1.413 . S
C181 H188 0.929 . S
C182 C170 1.392 . S
C182 C183 1.367 . S
C182 H190 0.930 . S
C183 C181 1.413 . S
C183 C182 1.367 . S
C183 H185 0.930 . S
H184 C177 0.930 . S
H185 C183 0.930 . S
H186 C174 0.930 . S
H187 C175 0.930 . S
H188 C181 0.929 . S
H189 C203 0.930 . S
H190 C182 0.930 . S
H191 C209 0.930 . S
H192 C200 0.929 . S
H193 C207 0.930 . S
H194 C171 0.931 . S
H195 C201 0.930 . S
H196 C234 0.930 . S
H197 C178 0.930 . S
H198 C233 0.931 . S
N199 Eu168 2.657 . S
N199 C200 1.334 . S
N199 C204 1.362 . S
C200 H192 0.929 . S
C200 N199 1.334 . S
C200 C203 1.413 . S
C201 H195 0.930 . S
C201 C202 1.392 . S
C201 C203 1.367 . S
C202 C201 1.392 . S
C202 C204 1.420 . S
C202 C234 1.423 . S
C203 H189 0.930 . S
C203 C200 1.413 . S
C203 C201 1.367 . S
C204 N199 1.362 . S
C204 C202 1.420 . S
C204 C208 1.429 . S
H205 C210 0.930 . S
N206 Eu168 2.609 . S
N206 C208 1.377 . S
N206 C209 1.321 . S
C207 H193 0.930 . S
C207 C209 1.400 . S
C207 C210 1.386 . S
C208 C204 1.429 . S
C208 N206 1.377 . S
C208 C211 1.411 . S
C209 H191 0.930 . S
C209 N206 1.321 . S
C209 C207 1.400 . S
C210 H205 0.930 . S
C210 C207 1.386 . S
C210 C211 1.395 . S
C211 C208 1.411 . S
C211 C210 1.395 . S
C211 C233 1.420 . S
O212 Eu168 2.558 . S
O212 C232 1.257 . S
O213 Eu168 2.612 . S
O213 Eu179 2.380 . S
O213 C224 1.276 . S
O214 Eu179 2.432 . S
O214 C231 1.264 . S
O215 Eu168 2.339 . S
O215 C231 1.254 . S
O216 Eu168 2.563 . S
O216 C224 1.235 . S
O217 Eu168 2.419 . S
O217 C232 1.249 . S
O218 Eu179 2.558 . S
O218 C243 1.257 . S
O219 Eu168 2.380 . S
O219 Eu179 2.612 . S
O219 C235 1.276 . S
O220 Eu168 2.432 . S
O220 C242 1.264 . S
O221 Eu179 2.339 . S
O221 C242 1.254 . S
O222 Eu179 2.563 . S
O222 C235 1.235 . S
O223 Eu179 2.419 . S
O223 C243 1.249 . S
C224 O213 1.276 . S
C224 O216 1.235 . S
C225 C227 1.393 . S
C225 C229 1.395 . S
C225 C232 1.492 . S
C226 C227 1.392 . S
C226 C228 1.386 . S
C227 C225 1.393 . S
C227 C226 1.392 . S
C227 H244 0.930 . S
C228 C226 1.386 . S
C228 C230 1.395 . S
C228 H245 0.930 . S
C229 C225 1.395 . S
C229 C230 1.379 . S
C229 H246 0.930 . S
C230 C228 1.395 . S
C230 C229 1.379 . S
C230 H247 0.930 . S
C231 O214 1.264 . S
C231 O215 1.254 . S
C232 Eu168 2.848 . S
C232 O212 1.257 . S
C232 O217 1.249 . S
C232 C225 1.492 . S
C233 H198 0.931 . S
C233 C211 1.420 . S
C233 C234 1.351 . S
C234 H196 0.930 . S
C234 C202 1.423 . S
C234 C233 1.351 . S
C235 O219 1.276 . S
C235 O222 1.235 . S
C236 C237 1.393 . S
C236 C240 1.395 . S
C236 C243 1.492 . S
C237 C236 1.393 . S
C237 C238 1.392 . S
C237 H248 0.930 . S
C238 C237 1.392 . S
C238 C239 1.386 . S
C239 C238 1.386 . S
C239 C241 1.395 . S
C239 H249 0.930 . S
C240 C236 1.395 . S
C240 C241 1.379 . S
C240 H250 0.930 . S
C241 C239 1.395 . S
C241 C240 1.379 . S
C241 H251 0.930 . S
C242 O220 1.264 . S
C242 O221 1.254 . S
C243 Eu179 2.848 . S
C243 O218 1.257 . S
C243 O223 1.249 . S
C243 C236 1.492 . S
H244 C227 0.930 . S
H245 C228 0.930 . S
H246 C229 0.930 . S
H247 C230 0.930 . S
H248 C237 0.930 . S
H249 C239 0.930 . S
H250 C240 0.930 . S
H251 C241 0.930 . S
Eu252 N283 2.657 . S
Eu252 N290 2.609 . S
Eu252 O296 2.558 . S
Eu252 O297 2.612 . S
Eu252 O299 2.339 . S
Eu252 O300 2.563 . S
Eu252 O301 2.419 . S
Eu252 O303 2.380 1_554 S
Eu252 O304 2.432 . S
Eu252 C316 2.848 . S
C253 C256 1.429 . S
C253 C257 1.411 . S
C253 N260 1.377 1_554 S
C254 C256 1.420 . S
C254 C258 1.423 . S
C254 C266 1.392 . S
C255 C257 1.420 . S
C255 C258 1.351 . S
C255 H278 0.931 1_655 S
C256 C253 1.429 . S
C256 C254 1.420 . S
C256 N264 1.362 . S
C257 C253 1.411 . S
C257 C255 1.420 . S
C257 C262 1.395 1_654 S
C258 C254 1.423 . S
C258 C255 1.351 . S
C258 H270 0.930 . S
C259 C261 1.400 1_455 S
C259 C262 1.386 . S
C259 H271 0.930 . S
N260 C253 1.377 1_556 S
N260 C261 1.321 . S
N260 Eu263 2.609 . S
C261 C259 1.400 1_655 S
C261 N260 1.321 . S
C261 H268 0.930 . S
C262 C257 1.395 1_456 S
C262 C259 1.386 . S
C262 H281 0.930 . S
Eu263 N260 2.609 . S
Eu263 N264 2.657 1_556 S
Eu263 O297 2.380 1_556 S
Eu263 O298 2.432 . S
Eu263 O302 2.558 . S
Eu263 O303 2.612 . S
Eu263 O305 2.339 1_556 S
Eu263 O306 2.563 . S
Eu263 O307 2.419 . S
Eu263 C327 2.848 . S
N264 C256 1.362 . S
N264 Eu263 2.657 1_554 S
N264 C265 1.334 . S
C265 N264 1.334 . S
C265 C267 1.413 . S
C265 H272 0.929 . S
C266 C254 1.392 . S
C266 C267 1.367 . S
C266 H274 0.930 . S
C267 C265 1.413 . S
C267 C266 1.367 . S
C267 H269 0.930 . S
H268 C261 0.930 . S
H269 C267 0.930 . S
H270 C258 0.930 . S
H271 C259 0.930 . S
H272 C265 0.929 . S
H273 C287 0.930 . S
H274 C266 0.930 . S
H275 C293 0.930 . S
H276 C284 0.929 . S
H277 C291 0.930 . S
H278 C255 0.931 1_455 S
H279 C285 0.930 . S
H280 C318 0.930 . S
H281 C262 0.930 . S
H282 C317 0.931 . S
N283 Eu252 2.657 . S
N283 C284 1.334 1_554 S
N283 C288 1.362 . S
C284 H276 0.929 . S
C284 N283 1.334 1_556 S
C284 C287 1.413 . S
C285 H279 0.930 . S
C285 C286 1.392 . S
C285 C287 1.367 . S
C286 C285 1.392 . S
C286 C288 1.420 1_556 S
C286 C318 1.423 . S
C287 H273 0.930 . S
C287 C284 1.413 . S
C287 C285 1.367 . S
C288 N283 1.362 . S
C288 C286 1.420 1_554 S
C288 C292 1.429 . S
H289 C294 0.930 . S
N290 Eu252 2.609 . S
N290 C292 1.377 . S
N290 C293 1.321 . S
C291 H277 0.930 . S
C291 C293 1.400 . S
C291 C294 1.386 . S
C292 C288 1.429 . S
C292 N290 1.377 . S
C292 C295 1.411 . S
C293 H275 0.930 . S
C293 N290 1.321 . S
C293 C291 1.400 . S
C294 H289 0.930 . S
C294 C291 1.386 . S
C294 C295 1.395 . S
C295 C292 1.411 . S
C295 C294 1.395 . S
C295 C317 1.420 . S
O296 Eu252 2.558 . S
O296 C316 1.257 . S
O297 Eu252 2.612 . S
O297 Eu263 2.380 1_554 S
O297 C308 1.276 . S
O298 Eu263 2.432 . S
O298 C315 1.264 1_556 S
O299 Eu252 2.339 . S
O299 C315 1.254 . S
O300 Eu252 2.563 . S
O300 C308 1.235 . S
O301 Eu252 2.419 . S
O301 C316 1.249 . S
O302 Eu263 2.558 . S
O302 C327 1.257 . S
O303 Eu252 2.380 1_556 S
O303 Eu263 2.612 . S
O303 C319 1.276 . S
O304 Eu252 2.432 . S
O304 C326 1.264 . S
O305 Eu263 2.339 1_554 S
O305 C326 1.254 . S
O306 Eu263 2.563 . S
O306 C319 1.235 . S
O307 Eu263 2.419 . S
O307 C327 1.249 . S
C308 O297 1.276 . S
C308 O300 1.235 . S
C309 C311 1.393 . S
C309 C313 1.395 . S
C309 C316 1.492 . S
C310 C311 1.392 . S
C310 C312 1.386 . S
C311 C309 1.393 . S
C311 C310 1.392 . S
C311 H328 0.930 . S
C312 C310 1.386 . S
C312 C314 1.395 . S
C312 H329 0.930 . S
C313 C309 1.395 . S
C313 C314 1.379 . S
C313 H330 0.930 . S
C314 C312 1.395 . S
C314 C313 1.379 . S
C314 H331 0.930 . S
C315 O298 1.264 1_554 S
C315 O299 1.254 . S
C316 Eu252 2.848 . S
C316 O296 1.257 . S
C316 O301 1.249 . S
C316 C309 1.492 . S
C317 H282 0.931 . S
C317 C295 1.420 . S
C317 C318 1.351 1_554 S
C318 H280 0.930 . S
C318 C286 1.423 . S
C318 C317 1.351 1_556 S
C319 O303 1.276 . S
C319 O306 1.235 . S
C320 C321 1.393 . S
C320 C324 1.395 . S
C320 C327 1.492 . S
C321 C320 1.393 . S
C321 C322 1.392 . S
C321 H332 0.930 . S
C322 C321 1.392 . S
C322 C323 1.386 . S
C323 C322 1.386 . S
C323 C325 1.395 . S
C323 H333 0.930 . S
C324 C320 1.395 . S
C324 C325 1.379 . S
C324 H334 0.930 . S
C325 C323 1.395 . S
C325 C324 1.379 . S
C325 H335 0.930 . S
C326 O304 1.264 . S
C326 O305 1.254 . S
C327 Eu263 2.848 . S
C327 O302 1.257 . S
C327 O307 1.249 . S
C327 C320 1.492 . S
H328 C311 0.930 . S
H329 C312 0.930 . S
H330 C313 0.930 . S
H331 C314 0.930 . S
H332 C321 0.930 . S
H333 C323 0.930 . S
H334 C324 0.930 . S
H335 C325 0.930 . S
Eu336 N367 2.657 . S
Eu336 N374 2.609 . S
Eu336 O380 2.558 . S
Eu336 O381 2.612 . S
Eu336 O383 2.339 . S
Eu336 O384 2.563 . S
Eu336 O385 2.419 . S
Eu336 O387 2.380 . S
Eu336 O388 2.432 . S
Eu336 C400 2.848 . S
C337 C340 1.429 . S
C337 C341 1.411 . S
C337 N344 1.377 . S
C338 C340 1.420 . S
C338 C342 1.423 . S
C338 C350 1.392 . S
C339 C341 1.420 . S
C339 C342 1.351 . S
C339 H362 0.931 1_565 S
C340 C337 1.429 . S
C340 C338 1.420 . S
C340 N348 1.362 . S
C341 C337 1.411 . S
C341 C339 1.420 . S
C341 C346 1.395 1_565 S
C342 C338 1.423 . S
C342 C339 1.351 . S
C342 H354 0.930 . S
C343 C345 1.400 1_545 S
C343 C346 1.386 . S
C343 H355 0.930 . S
N344 C337 1.377 . S
N344 C345 1.321 . S
N344 Eu347 2.609 . S
C345 C343 1.400 1_565 S
C345 N344 1.321 . S
C345 H352 0.930 . S
C346 C341 1.395 1_545 S
C346 C343 1.386 . S
C346 H365 0.930 . S
Eu347 N344 2.609 . S
Eu347 N348 2.657 . S
Eu347 O381 2.380 . S
Eu347 O382 2.432 . S
Eu347 O386 2.558 . S
Eu347 O387 2.612 . S
Eu347 O389 2.339 . S
Eu347 O390 2.563 . S
Eu347 O391 2.419 . S
Eu347 C411 2.848 . S
N348 C340 1.362 . S
N348 Eu347 2.657 . S
N348 C349 1.334 . S
C349 N348 1.334 . S
C349 C351 1.413 . S
C349 H356 0.929 . S
C350 C338 1.392 . S
C350 C351 1.367 . S
C350 H358 0.930 . S
C351 C349 1.413 . S
C351 C350 1.367 . S
C351 H353 0.930 . S
H352 C345 0.930 . S
H353 C351 0.930 . S
H354 C342 0.930 . S
H355 C343 0.930 . S
H356 C349 0.929 . S
H357 C371 0.930 . S
H358 C350 0.930 . S
H359 C377 0.930 . S
H360 C368 0.929 . S
H361 C375 0.930 . S
H362 C339 0.931 1_545 S
H363 C369 0.930 . S
H364 C402 0.930 . S
H365 C346 0.930 . S
H366 C401 0.931 . S
N367 Eu336 2.657 . S
N367 C368 1.334 . S
N367 C372 1.362 . S
C368 H360 0.929 . S
C368 N367 1.334 . S
C368 C371 1.413 . S
C369 H363 0.930 . S
C369 C370 1.392 . S
C369 C371 1.367 . S
C370 C369 1.392 . S
C370 C372 1.420 . S
C370 C402 1.423 . S
C371 H357 0.930 . S
C371 C368 1.413 . S
C371 C369 1.367 . S
C372 N367 1.362 . S
C372 C370 1.420 . S
C372 C376 1.429 . S
H373 C378 0.930 . S
N374 Eu336 2.609 . S
N374 C376 1.377 . S
N374 C377 1.321 . S
C375 H361 0.930 . S
C375 C377 1.400 . S
C375 C378 1.386 . S
C376 C372 1.429 . S
C376 N374 1.377 . S
C376 C379 1.411 . S
C377 H359 0.930 . S
C377 N374 1.321 . S
C377 C375 1.400 . S
C378 H373 0.930 . S
C378 C375 1.386 . S
C378 C379 1.395 . S
C379 C376 1.411 . S
C379 C378 1.395 . S
C379 C401 1.420 . S
O380 Eu336 2.558 . S
O380 C400 1.257 . S
O381 Eu336 2.612 . S
O381 Eu347 2.380 . S
O381 C392 1.276 . S
O382 Eu347 2.432 . S
O382 C399 1.264 . S
O383 Eu336 2.339 . S
O383 C399 1.254 . S
O384 Eu336 2.563 . S
O384 C392 1.235 . S
O385 Eu336 2.419 . S
O385 C400 1.249 . S
O386 Eu347 2.558 . S
O386 C411 1.257 . S
O387 Eu336 2.380 . S
O387 Eu347 2.612 . S
O387 C403 1.276 . S
O388 Eu336 2.432 . S
O388 C410 1.264 . S
O389 Eu347 2.339 . S
O389 C410 1.254 . S
O390 Eu347 2.563 . S
O390 C403 1.235 . S
O391 Eu347 2.419 . S
O391 C411 1.249 . S
C392 O381 1.276 . S
C392 O384 1.235 . S
C393 C395 1.393 . S
C393 C397 1.395 . S
C393 C400 1.492 . S
C394 C395 1.392 . S
C394 C396 1.386 . S
C395 C393 1.393 . S
C395 C394 1.392 . S
C395 H412 0.930 . S
C396 C394 1.386 . S
C396 C398 1.395 . S
C396 H413 0.930 . S
C397 C393 1.395 . S
C397 C398 1.379 . S
C397 H414 0.930 . S
C398 C396 1.395 . S
C398 C397 1.379 . S
C398 H415 0.930 . S
C399 O382 1.264 . S
C399 O383 1.254 . S
C400 Eu336 2.848 . S
C400 O380 1.257 . S
C400 O385 1.249 . S
C400 C393 1.492 . S
C401 H366 0.931 . S
C401 C379 1.420 . S
C401 C402 1.351 . S
C402 H364 0.930 . S
C402 C370 1.423 . S
C402 C401 1.351 . S
C403 O387 1.276 . S
C403 O390 1.235 . S
C404 C405 1.393 . S
C404 C408 1.395 . S
C404 C411 1.492 . S
C405 C404 1.393 . S
C405 C406 1.392 . S
C405 H416 0.930 . S
C406 C405 1.392 . S
C406 C407 1.386 . S
C407 C406 1.386 . S
C407 C409 1.395 . S
C407 H417 0.930 . S
C408 C404 1.395 . S
C408 C409 1.379 . S
C408 H418 0.930 . S
C409 C407 1.395 . S
C409 C408 1.379 . S
C409 H419 0.930 . S
C410 O388 1.264 . S
C410 O389 1.254 . S
C411 Eu347 2.848 . S
C411 O386 1.257 . S
C411 O391 1.249 . S
C411 C404 1.492 . S
H412 C395 0.930 . S
H413 C396 0.930 . S
H414 C397 0.930 . S
H415 C398 0.930 . S
H416 C405 0.930 . S
H417 C407 0.930 . S
H418 C408 0.930 . S
H419 C409 0.930 . S
Eu420 N451 2.657 . S
Eu420 N458 2.609 . S
Eu420 O464 2.558 . S
Eu420 O465 2.612 . S
Eu420 O467 2.339 . S
Eu420 O468 2.563 . S
Eu420 O469 2.419 . S
Eu420 O471 2.380 . S
Eu420 O472 2.432 . S
Eu420 C484 2.848 . S
C421 C424 1.429 . S
C421 C425 1.411 . S
C421 N428 1.377 . S
C422 C424 1.420 . S
C422 C426 1.423 . S
C422 C434 1.392 . S
C423 C425 1.420 . S
C423 C426 1.351 . S
C423 H446 0.931 . S
C424 C421 1.429 . S
C424 C422 1.420 . S
C424 N432 1.362 . S
C425 C421 1.411 . S
C425 C423 1.420 . S
C425 C430 1.395 . S
C426 C422 1.423 . S
C426 C423 1.351 . S
C426 H438 0.930 . S
C427 C429 1.400 . S
C427 C430 1.386 . S
C427 H439 0.930 . S
N428 C421 1.377 . S
N428 C429 1.321 . S
N428 Eu431 2.609 . S
C429 C427 1.400 . S
C429 N428 1.321 . S
C429 H436 0.930 . S
C430 C425 1.395 . S
C430 C427 1.386 . S
C430 H449 0.930 . S
Eu431 N428 2.609 . S
Eu431 N432 2.657 . S
Eu431 O465 2.380 . S
Eu431 O466 2.432 . S
Eu431 O470 2.558 . S
Eu431 O471 2.612 . S
Eu431 O473 2.339 . S
Eu431 O474 2.563 . S
Eu431 O475 2.419 . S
Eu431 C495 2.848 . S
N432 C424 1.362 . S
N432 Eu431 2.657 . S
N432 C433 1.334 . S
C433 N432 1.334 . S
C433 C435 1.413 . S
C433 H440 0.929 . S
C434 C422 1.392 . S
C434 C435 1.367 . S
C434 H442 0.930 . S
C435 C433 1.413 . S
C435 C434 1.367 . S
C435 H437 0.930 . S
H436 C429 0.930 . S
H437 C435 0.930 . S
H438 C426 0.930 . S
H439 C427 0.930 . S
H440 C433 0.929 . S
H441 C455 0.930 . S
H442 C434 0.930 . S
H443 C461 0.930 . S
H444 C452 0.929 . S
H445 C459 0.930 . S
H446 C423 0.931 . S
H447 C453 0.930 . S
H448 C486 0.930 . S
H449 C430 0.930 . S
H450 C485 0.931 . S
N451 Eu420 2.657 . S
N451 C452 1.334 . S
N451 C456 1.362 . S
C452 H444 0.929 . S
C452 N451 1.334 . S
C452 C455 1.413 . S
C453 H447 0.930 . S
C453 C454 1.392 . S
C453 C455 1.367 . S
C454 C453 1.392 . S
C454 C456 1.420 . S
C454 C486 1.423 . S
C455 H441 0.930 . S
C455 C452 1.413 . S
C455 C453 1.367 . S
C456 N451 1.362 . S
C456 C454 1.420 . S
C456 C460 1.429 . S
H457 C462 0.930 . S
N458 Eu420 2.609 . S
N458 C460 1.377 . S
N458 C461 1.321 . S
C459 H445 0.930 . S
C459 C461 1.400 . S
C459 C462 1.386 . S
C460 C456 1.429 . S
C460 N458 1.377 . S
C460 C463 1.411 . S
C461 H443 0.930 . S
C461 N458 1.321 . S
C461 C459 1.400 . S
C462 H457 0.930 . S
C462 C459 1.386 . S
C462 C463 1.395 . S
C463 C460 1.411 . S
C463 C462 1.395 . S
C463 C485 1.420 . S
O464 Eu420 2.558 . S
O464 C484 1.257 . S
O465 Eu420 2.612 . S
O465 Eu431 2.380 . S
O465 C476 1.276 . S
O466 Eu431 2.432 . S
O466 C483 1.264 . S
O467 Eu420 2.339 . S
O467 C483 1.254 . S
O468 Eu420 2.563 . S
O468 C476 1.235 . S
O469 Eu420 2.419 . S
O469 C484 1.249 . S
O470 Eu431 2.558 . S
O470 C495 1.257 . S
O471 Eu420 2.380 . S
O471 Eu431 2.612 . S
O471 C487 1.276 . S
O472 Eu420 2.432 . S
O472 C494 1.264 . S
O473 Eu431 2.339 . S
O473 C494 1.254 . S
O474 Eu431 2.563 . S
O474 C487 1.235 . S
O475 Eu431 2.419 . S
O475 C495 1.249 . S
C476 O465 1.276 . S
C476 O468 1.235 . S
C477 C479 1.393 . S
C477 C481 1.395 . S
C477 C484 1.492 . S
C478 C479 1.392 . S
C478 C480 1.386 . S
C479 C477 1.393 . S
C479 C478 1.392 . S
C479 H496 0.930 . S
C480 C478 1.386 . S
C480 C482 1.395 . S
C480 H497 0.930 . S
C481 C477 1.395 . S
C481 C482 1.379 . S
C481 H498 0.930 . S
C482 C480 1.395 . S
C482 C481 1.379 . S
C482 H499 0.930 . S
C483 O466 1.264 . S
C483 O467 1.254 . S
C484 Eu420 2.848 . S
C484 O464 1.257 . S
C484 O469 1.249 . S
C484 C477 1.492 . S
C485 H450 0.931 . S
C485 C463 1.420 . S
C485 C486 1.351 . S
C486 H448 0.930 . S
C486 C454 1.423 . S
C486 C485 1.351 . S
C487 O471 1.276 . S
C487 O474 1.235 . S
C488 C489 1.393 . S
C488 C492 1.395 . S
C488 C495 1.492 . S
C489 C488 1.393 . S
C489 C490 1.392 . S
C489 H500 0.930 . S
C490 C489 1.392 . S
C490 C491 1.386 . S
C491 C490 1.386 . S
C491 C493 1.395 . S
C491 H501 0.930 . S
C492 C488 1.395 . S
C492 C493 1.379 . S
C492 H502 0.930 . S
C493 C491 1.395 . S
C493 C492 1.379 . S
C493 H503 0.930 . S
C494 O472 1.264 . S
C494 O473 1.254 . S
C495 Eu431 2.848 . S
C495 O470 1.257 . S
C495 O475 1.249 . S
C495 C488 1.492 . S
H496 C479 0.930 . S
H497 C480 0.930 . S
H498 C481 0.930 . S
H499 C482 0.930 . S
H500 C489 0.930 . S
H501 C491 0.930 . S
H502 C492 0.930 . S
H503 C493 0.930 . S
H504 C516 0.930 . S
H505 C518 0.930 . S
H506 C519 0.930 . S
H507 C523 0.959 . S
H508 C523 0.959 . S
H509 C523 0.961 . S
H510 C524 0.960 . S
H511 C524 0.961 . S
H512 C524 0.959 . S
H513 C527 0.929 . S
H514 C528 0.931 . S
H515 C530 0.930 . S
C516 H504 0.930 . S
C516 C517 1.399 . S
C516 C521 1.399 . S
C517 C516 1.399 . S
C517 C518 1.376 . S
C518 H505 0.930 . S
C518 C517 1.376 . S
C518 C519 1.388 . S
C519 H506 0.930 . S
C519 C518 1.388 . S
C519 C520 1.390 . S
C520 C519 1.390 . S
C520 C521 1.394 . S
C520 C526 1.465 . S
C521 C516 1.399 . S
C521 C520 1.394 . S
C521 C522 1.516 . S
C522 C521 1.516 . S
C522 C523 1.502 . S
C522 C524 1.561 . S
C522 C525 1.526 . S
C523 H507 0.959 . S
C523 H508 0.959 . S
C523 H509 0.961 . S
C523 C522 1.502 . S
C524 H510 0.960 . S
C524 H511 0.961 . S
C524 H512 0.959 . S
C524 C522 1.561 . S
C525 C522 1.526 . S
C525 C526 1.396 . S
C525 C530 1.390 . S
C526 C520 1.465 . S
C526 C525 1.396 . S
C526 C527 1.399 . S
C527 H513 0.929 . S
C527 C526 1.399 . S
C527 C528 1.385 . S
C528 H514 0.931 . S
C528 C527 1.385 . S
C528 C529 1.389 . S
C529 C528 1.389 . S
C529 C530 1.387 . S
C530 H515 0.930 . S
C530 C525 1.390 . S
C530 C529 1.387 . S
H531 C543 0.930 . S
H532 C545 0.930 . S
H533 C546 0.930 . S
H534 C550 0.959 . S
H535 C550 0.959 . S
H536 C550 0.961 . S
H537 C551 0.960 . S
H538 C551 0.961 . S
H539 C551 0.959 . S
H540 C554 0.929 . S
H541 C555 0.931 . S
H542 C557 0.930 . S
C543 H531 0.930 . S
C543 C544 1.399 . S
C543 C548 1.399 . S
C544 C543 1.399 . S
C544 C545 1.376 . S
C545 H532 0.930 . S
C545 C544 1.376 . S
C545 C546 1.388 . S
C546 H533 0.930 . S
C546 C545 1.388 . S
C546 C547 1.390 . S
C547 C546 1.390 . S
C547 C548 1.394 . S
C547 C553 1.465 . S
C548 C543 1.399 . S
C548 C547 1.394 . S
C548 C549 1.516 . S
C549 C548 1.516 . S
C549 C550 1.502 . S
C549 C551 1.561 . S
C549 C552 1.526 . S
C550 H534 0.959 . S
C550 H535 0.959 . S
C550 H536 0.961 . S
C550 C549 1.502 . S
C551 H537 0.960 . S
C551 H538 0.961 . S
C551 H539 0.959 . S
C551 C549 1.561 . S
C552 C549 1.526 . S
C552 C553 1.396 . S
C552 C557 1.390 . S
C553 C547 1.465 . S
C553 C552 1.396 . S
C553 C554 1.399 . S
C554 H540 0.929 . S
C554 C553 1.399 . S
C554 C555 1.385 . S
C555 H541 0.931 . S
C555 C554 1.385 . S
C555 C556 1.389 . S
C556 C555 1.389 . S
C556 C557 1.387 . S
C557 H542 0.930 . S
C557 C552 1.390 . S
C557 C556 1.387 . S
H558 C570 0.930 . S
H559 C572 0.930 . S
H560 C573 0.930 . S
H561 C577 0.959 . S
H562 C577 0.959 . S
H563 C577 0.961 . S
H564 C578 0.960 . S
H565 C578 0.961 . S
H566 C578 0.959 . S
H567 C581 0.929 . S
H568 C582 0.931 . S
H569 C584 0.930 . S
C570 H558 0.930 . S
C570 C571 1.399 . S
C570 C575 1.399 . S
C571 C570 1.399 . S
C571 C572 1.376 . S
C572 H559 0.930 . S
C572 C571 1.376 . S
C572 C573 1.388 . S
C573 H560 0.930 . S
C573 C572 1.388 . S
C573 C574 1.390 . S
C574 C573 1.390 . S
C574 C575 1.394 . S
C574 C580 1.465 . S
C575 C570 1.399 . S
C575 C574 1.394 . S
C575 C576 1.516 . S
C576 C575 1.516 . S
C576 C577 1.502 . S
C576 C578 1.561 . S
C576 C579 1.526 . S
C577 H561 0.959 . S
C577 H562 0.959 . S
C577 H563 0.961 . S
C577 C576 1.502 . S
C578 H564 0.960 . S
C578 H565 0.961 . S
C578 H566 0.959 . S
C578 C576 1.561 . S
C579 C576 1.526 . S
C579 C580 1.396 . S
C579 C584 1.390 . S
C580 C574 1.465 . S
C580 C579 1.396 . S
C580 C581 1.399 . S
C581 H567 0.929 . S
C581 C580 1.399 . S
C581 C582 1.385 . S
C582 H568 0.931 . S
C582 C581 1.385 . S
C582 C583 1.389 . S
C583 C582 1.389 . S
C583 C584 1.387 . S
C584 H569 0.930 . S
C584 C579 1.390 . S
C584 C583 1.387 . S
H585 C597 0.930 . S
H586 C599 0.930 . S
H587 C600 0.930 . S
H588 C604 0.959 . S
H589 C604 0.959 . S
H590 C604 0.961 . S
H591 C605 0.960 . S
H592 C605 0.961 . S
H593 C605 0.959 . S
H594 C608 0.929 . S
H595 C609 0.931 . S
H596 C611 0.930 . S
C597 H585 0.930 . S
C597 C598 1.399 . S
C597 C602 1.399 . S
C598 C597 1.399 . S
C598 C599 1.376 . S
C599 H586 0.930 . S
C599 C598 1.376 . S
C599 C600 1.388 . S
C600 H587 0.930 . S
C600 C599 1.388 . S
C600 C601 1.390 . S
C601 C600 1.390 . S
C601 C602 1.394 . S
C601 C607 1.465 . S
C602 C597 1.399 . S
C602 C601 1.394 . S
C602 C603 1.516 . S
C603 C602 1.516 . S
C603 C604 1.502 . S
C603 C605 1.561 . S
C603 C606 1.526 . S
C604 H588 0.959 . S
C604 H589 0.959 . S
C604 H590 0.961 . S
C604 C603 1.502 . S
C605 H591 0.960 . S
C605 H592 0.961 . S
C605 H593 0.959 . S
C605 C603 1.561 . S
C606 C603 1.526 . S
C606 C607 1.396 . S
C606 C611 1.390 . S
C607 C601 1.465 . S
C607 C606 1.396 . S
C607 C608 1.399 . S
C608 H594 0.929 . S
C608 C607 1.399 . S
C608 C609 1.385 . S
C609 H595 0.931 . S
C609 C608 1.385 . S
C609 C610 1.389 . S
C610 C609 1.389 . S
C610 C611 1.387 . S
C611 H596 0.930 . S
C611 C606 1.390 . S
C611 C610 1.387 . S
H612 C624 0.930 . S
H613 C626 0.930 . S
H614 C627 0.930 . S
H615 C631 0.959 . S
H616 C631 0.959 . S
H617 C631 0.961 . S
H618 C632 0.960 . S
H619 C632 0.961 . S
H620 C632 0.959 . S
H621 C635 0.929 . S
H622 C636 0.931 . S
H623 C638 0.930 . S
C624 H612 0.930 . S
C624 C625 1.399 . S
C624 C629 1.399 . S
C625 C624 1.399 . S
C625 C626 1.376 . S
C626 H613 0.930 . S
C626 C625 1.376 . S
C626 C627 1.388 . S
C627 H614 0.930 . S
C627 C626 1.388 . S
C627 C628 1.390 . S
C628 C627 1.390 . S
C628 C629 1.394 . S
C628 C634 1.465 . S
C629 C624 1.399 . S
C629 C628 1.394 . S
C629 C630 1.516 . S
C630 C629 1.516 . S
C630 C631 1.502 . S
C630 C632 1.561 . S
C630 C633 1.526 . S
C631 H615 0.959 . S
C631 H616 0.959 . S
C631 H617 0.961 . S
C631 C630 1.502 . S
C632 H618 0.960 . S
C632 H619 0.961 . S
C632 H620 0.959 . S
C632 C630 1.561 . S
C633 C630 1.526 . S
C633 C634 1.396 . S
C633 C638 1.390 . S
C634 C628 1.465 . S
C634 C633 1.396 . S
C634 C635 1.399 . S
C635 H621 0.929 . S
C635 C634 1.399 . S
C635 C636 1.385 . S
C636 H622 0.931 . S
C636 C635 1.385 . S
C636 C637 1.389 . S
C637 C636 1.389 . S
C637 C638 1.387 . S
C638 H623 0.930 . S
C638 C633 1.390 . S
C638 C637 1.387 . S
H639 C651 0.930 . S
H640 C653 0.930 . S
H641 C654 0.930 . S
H642 C658 0.959 . S
H643 C658 0.959 . S
H644 C658 0.961 . S
H645 C659 0.960 . S
H646 C659 0.961 . S
H647 C659 0.959 . S
H648 C662 0.929 . S
H649 C663 0.931 . S
H650 C665 0.930 . S
C651 H639 0.930 . S
C651 C652 1.399 . S
C651 C656 1.399 . S
C652 C651 1.399 . S
C652 C653 1.376 . S
C653 H640 0.930 . S
C653 C652 1.376 . S
C653 C654 1.388 . S
C654 H641 0.930 . S
C654 C653 1.388 . S
C654 C655 1.390 . S
C655 C654 1.390 . S
C655 C656 1.394 . S
C655 C661 1.465 . S
C656 C651 1.399 . S
C656 C655 1.394 . S
C656 C657 1.516 . S
C657 C656 1.516 . S
C657 C658 1.502 . S
C657 C659 1.561 . S
C657 C660 1.526 . S
C658 H642 0.959 . S
C658 H643 0.959 . S
C658 H644 0.961 . S
C658 C657 1.502 . S
C659 H645 0.960 . S
C659 H646 0.961 . S
C659 H647 0.959 . S
C659 C657 1.561 . S
C660 C657 1.526 . S
C660 C661 1.396 . S
C660 C665 1.390 . S
C661 C655 1.465 . S
C661 C660 1.396 . S
C661 C662 1.399 . S
C662 H648 0.929 . S
C662 C661 1.399 . S
C662 C663 1.385 . S
C663 H649 0.931 . S
C663 C662 1.385 . S
C663 C664 1.389 . S
C664 C663 1.389 . S
C664 C665 1.387 . S
C665 H650 0.930 . S
C665 C660 1.390 . S
C665 C664 1.387 . S
H666 C678 0.930 . S
H667 C680 0.930 . S
H668 C681 0.930 . S
H669 C685 0.959 1_554 S
H670 C685 0.959 . S
H671 C685 0.961 . S
H672 C686 0.960 . S
H673 C686 0.961 . S
H674 C686 0.959 . S
H675 C689 0.929 . S
H676 C690 0.931 . S
H677 C692 0.930 . S
C678 H666 0.930 . S
C678 C679 1.399 1_556 S
C678 C683 1.399 1_556 S
C679 C678 1.399 1_554 S
C679 C680 1.376 . S
C680 H667 0.930 . S
C680 C679 1.376 . S
C680 C681 1.388 . S
C681 H668 0.930 . S
C681 C680 1.388 . S
C681 C682 1.390 . S
C682 C681 1.390 . S
C682 C683 1.394 . S
C682 C688 1.465 . S
C683 C678 1.399 1_554 S
C683 C682 1.394 . S
C683 C684 1.516 1_554 S
C684 C683 1.516 1_556 S
C684 C685 1.502 . S
C684 C686 1.561 . S
C684 C687 1.526 1_556 S
C685 H669 0.959 1_556 S
C685 H670 0.959 . S
C685 H671 0.961 . S
C685 C684 1.502 . S
C686 H672 0.960 . S
C686 H673 0.961 . S
C686 H674 0.959 . S
C686 C684 1.561 . S
C687 C684 1.526 1_554 S
C687 C688 1.396 . S
C687 C692 1.390 1_554 S
C688 C682 1.465 . S
C688 C687 1.396 . S
C688 C689 1.399 . S
C689 H675 0.929 . S
C689 C688 1.399 . S
C689 C690 1.385 . S
C690 H676 0.931 . S
C690 C689 1.385 . S
C690 C691 1.389 . S
C691 C690 1.389 . S
C691 C692 1.387 1_554 S
C692 H677 0.930 . S
C692 C687 1.390 1_556 S
C692 C691 1.387 1_556 S
H693 C705 0.930 . S
H694 C707 0.930 . S
H695 C708 0.930 . S
H696 C712 0.959 . S
H697 C712 0.959 . S
H698 C712 0.961 . S
H699 C713 0.960 . S
H700 C713 0.961 . S
H701 C713 0.959 . S
H702 C716 0.929 1_455 S
H703 C717 0.931 . S
H704 C719 0.930 . S
C705 H693 0.930 . S
C705 C706 1.399 . S
C705 C710 1.399 . S
C706 C705 1.399 . S
C706 C707 1.376 . S
C707 H694 0.930 . S
C707 C706 1.376 . S
C707 C708 1.388 . S
C708 H695 0.930 . S
C708 C707 1.388 . S
C708 C709 1.390 . S
C709 C708 1.390 . S
C709 C710 1.394 . S
C709 C715 1.465 1_455 S
C710 C705 1.399 . S
C710 C709 1.394 . S
C710 C711 1.516 1_455 S
C711 C710 1.516 1_655 S
C711 C712 1.502 . S
C711 C713 1.561 1_655 S
C711 C714 1.526 . S
C712 H696 0.959 . S
C712 H697 0.959 . S
C712 H698 0.961 . S
C712 C711 1.502 . S
C713 H699 0.960 . S
C713 H700 0.961 . S
C713 H701 0.959 . S
C713 C711 1.561 1_455 S
C714 C711 1.526 . S
C714 C715 1.396 . S
C714 C719 1.390 . S
C715 C709 1.465 1_655 S
C715 C714 1.396 . S
C715 C716 1.399 . S
C716 H702 0.929 1_655 S
C716 C715 1.399 . S
C716 C717 1.385 . S
C717 H703 0.931 . S
C717 C716 1.385 . S
C717 C718 1.389 . S
C718 C717 1.389 . S
C718 C719 1.387 . S
C719 H704 0.930 . S
C719 C714 1.390 . S
C719 C718 1.387 . S
H720 C732 0.930 . S
H721 C734 0.930 . S
H722 C735 0.930 . S
H723 C739 0.959 . S
H724 C739 0.959 . S
H725 C739 0.961 . S
H726 C740 0.960 . S
H727 C740 0.961 . S
H728 C740 0.959 . S
H729 C743 0.938 . S
H730 C744 0.931 . S
H731 C746 0.930 . S
C732 H720 0.930 . S
C732 C733 1.399 . S
C732 C737 1.399 . S
C733 C732 1.399 . S
C733 C734 1.376 . S
C734 H721 0.930 . S
C734 C733 1.376 . S
C734 C735 1.388 . S
C735 H722 0.930 . S
C735 C734 1.388 . S
C735 C736 1.390 . S
C736 C735 1.390 . S
C736 C737 1.394 . S
C736 C742 1.465 1_545 S
C737 C732 1.399 . S
C737 C736 1.394 . S
C737 C738 1.516 1_545 S
C738 C737 1.516 1_565 S
C738 C739 1.502 . S
C738 C740 1.561 1_565 S
C738 C741 1.526 . S
C739 H723 0.959 . S
C739 H724 0.959 . S
C739 H725 0.961 . S
C739 C738 1.502 . S
C740 H726 0.960 . S
C740 H727 0.961 . S
C740 H728 0.959 . S
C740 C738 1.561 1_545 S
C741 C738 1.526 . S
C741 C742 1.396 . S
C741 C746 1.390 . S
C742 C736 1.465 1_565 S
C742 C741 1.396 . S
C742 C743 1.399 . S
C743 H729 0.938 . S
C743 C742 1.399 . S
C743 C744 1.385 . S
C744 H730 0.931 . S
C744 C743 1.385 . S
C744 C745 1.389 . S
C745 C744 1.389 . S
C745 C746 1.387 . S
C746 H731 0.930 . S
C746 C741 1.390 . S
C746 C745 1.387 . S
H747 C759 0.930 . S
H748 C761 0.930 . S
H749 C762 0.930 . S
H750 C766 0.959 . S
H751 C766 0.959 . S
H752 C766 0.961 . S
H753 C767 0.960 . S
H754 C767 0.961 . S
H755 C767 0.959 . S
H756 C770 0.929 . S
H757 C771 0.931 . S
H758 C773 0.930 . S
C759 H747 0.930 . S
C759 C760 1.399 . S
C759 C764 1.399 . S
C760 C759 1.399 . S
C760 C761 1.376 . S
C761 H748 0.930 . S
C761 C760 1.376 . S
C761 C762 1.388 . S
C762 H749 0.930 . S
C762 C761 1.388 . S
C762 C763 1.390 . S
C763 C762 1.390 . S
C763 C764 1.394 . S
C763 C769 1.465 . S
C764 C759 1.399 . S
C764 C763 1.394 . S
C764 C765 1.516 . S
C765 C764 1.516 . S
C765 C766 1.502 . S
C765 C767 1.561 . S
C765 C768 1.526 . S
C766 H750 0.959 . S
C766 H751 0.959 . S
C766 H752 0.961 . S
C766 C765 1.502 . S
C767 H753 0.960 . S
C767 H754 0.961 . S
C767 H755 0.959 . S
C767 C765 1.561 . S
C768 C765 1.526 . S
C768 C769 1.396 . S
C768 C773 1.390 . S
C769 C763 1.465 . S
C769 C768 1.396 . S
C769 C770 1.399 . S
C770 H756 0.929 . S
C770 C769 1.399 . S
C770 C771 1.385 . S
C771 H757 0.931 . S
C771 C770 1.385 . S
C771 C772 1.389 . S
C772 C771 1.389 . S
C772 C773 1.387 . S
C773 H758 0.930 . S
C773 C768 1.390 . S
C773 C772 1.387 . S
H774 C786 0.930 . S
H775 C788 0.927 1_556 S
H776 C789 0.930 1_556 S
H777 C793 0.959 . S
H778 C793 0.959 . S
H779 C793 0.961 . S
H780 C794 0.960 . S
H781 C794 0.961 . S
H782 C794 0.959 . S
H783 C797 0.929 1_556 S
H784 C798 0.931 . S
H785 C800 0.930 . S
C786 H774 0.930 . S
C786 C787 1.399 . S
C786 C791 1.399 . S
C787 C786 1.399 . S
C787 C788 1.376 . S
C788 H775 0.927 1_554 S
C788 C787 1.376 . S
C788 C789 1.388 1_455 S
C789 H776 0.930 1_554 S
C789 C788 1.388 1_655 S
C789 C790 1.390 . S
C790 C789 1.390 . S
C790 C791 1.394 1_655 S
C790 C796 1.465 . S
C791 C786 1.399 . S
C791 C790 1.394 1_455 S
C791 C792 1.516 . S
C792 C791 1.516 . S
C792 C793 1.502 . S
C792 C794 1.561 1_554 S
C792 C795 1.526 1_455 S
C793 H777 0.959 . S
C793 H778 0.959 . S
C793 H779 0.961 . S
C793 C792 1.502 . S
C794 H780 0.960 . S
C794 H781 0.961 . S
C794 H782 0.959 . S
C794 C792 1.561 1_556 S
C795 C792 1.526 1_655 S
C795 C796 1.396 . S
C795 C800 1.390 . S
C796 C790 1.465 . S
C796 C795 1.396 . S
C796 C797 1.399 . S
C797 H783 0.929 1_554 S
C797 C796 1.399 . S
C797 C798 1.385 . S
C798 H784 0.931 . S
C798 C797 1.385 . S
C798 C799 1.389 . S
C799 C798 1.389 . S
C799 C800 1.387 . S
C800 H785 0.930 . S
C800 C795 1.390 . S
C800 C799 1.387 . S
H801 C813 0.930 . S
H802 C815 0.930 . S
H803 C816 0.930 . S
H804 C820 0.959 . S
H805 C820 0.959 . S
H806 C820 0.961 . S
H807 C821 0.960 . S
H808 C821 0.961 . S
H809 C821 0.959 . S
H810 C824 0.929 . S
H811 C825 0.931 . S
H812 C827 0.930 . S
C813 H801 0.930 . S
C813 C814 1.399 . S
C813 C818 1.399 . S
C814 C813 1.399 . S
C814 C815 1.376 . S
C815 H802 0.930 . S
C815 C814 1.376 . S
C815 C816 1.388 . S
C816 H803 0.930 . S
C816 C815 1.388 . S
C816 C817 1.390 . S
C817 C816 1.390 . S
C817 C818 1.394 . S
C817 C823 1.465 1_565 S
C818 C813 1.399 . S
C818 C817 1.394 . S
C818 C819 1.516 1_565 S
C819 C818 1.516 1_545 S
C819 C820 1.502 . S
C819 C821 1.561 1_545 S
C819 C822 1.526 . S
C820 H804 0.959 . S
C820 H805 0.959 . S
C820 H806 0.961 . S
C820 C819 1.502 . S
C821 H807 0.960 . S
C821 H808 0.961 . S
C821 H809 0.959 . S
C821 C819 1.561 1_565 S
C822 C819 1.526 . S
C822 C823 1.396 . S
C822 C827 1.390 . S
C823 C817 1.465 1_545 S
C823 C822 1.396 . S
C823 C824 1.399 . S
C824 H810 0.929 . S
C824 C823 1.399 . S
C824 C825 1.385 . S
C825 H811 0.931 . S
C825 C824 1.385 . S
C825 C826 1.389 . S
C826 C825 1.389 . S
C826 C827 1.387 . S
C827 H812 0.930 . S
C827 C822 1.390 . S
C827 C826 1.387 . S
H828 C840 0.930 . S
H829 C842 0.930 . S
H830 C843 0.930 . S
H831 C847 0.959 . S
H832 C847 0.959 . S
H833 C847 0.961 . S
H834 C848 0.960 . S
H835 C848 0.961 . S
H836 C848 0.959 . S
H837 C851 0.929 . S
H838 C852 0.931 . S
H839 C854 0.930 . S
C840 H828 0.930 . S
C840 C841 1.399 . S
C840 C845 1.399 . S
C841 C840 1.399 . S
C841 C842 1.376 . S
C842 H829 0.930 . S
C842 C841 1.376 . S
C842 C843 1.388 . S
C843 H830 0.930 . S
C843 C842 1.388 . S
C843 C844 1.390 . S
C844 C843 1.390 . S
C844 C845 1.394 . S
C844 C850 1.465 . S
C845 C840 1.399 . S
C845 C844 1.394 . S
C845 C846 1.516 . S
C846 C845 1.516 . S
C846 C847 1.502 . S
C846 C848 1.561 . S
C846 C849 1.526 . S
C847 H831 0.959 . S
C847 H832 0.959 . S
C847 H833 0.961 . S
C847 C846 1.502 . S
C848 H834 0.960 . S
C848 H835 0.961 . S
C848 H836 0.959 . S
C848 C846 1.561 . S
C849 C846 1.526 . S
C849 C850 1.396 . S
C849 C854 1.390 . S
C850 C844 1.465 . S
C850 C849 1.396 . S
C850 C851 1.399 . S
C851 H837 0.929 . S
C851 C850 1.399 . S
C851 C852 1.385 . S
C852 H838 0.931 . S
C852 C851 1.385 . S
C852 C853 1.389 . S
C853 C852 1.389 . S
C853 C854 1.387 . S
C854 H839 0.930 . S
C854 C849 1.390 . S
C854 C853 1.387 . S
H855 C867 0.930 . S
H856 C869 0.930 . S
H857 C870 0.930 . S
H858 C874 0.959 . S
H859 C874 0.959 . S
H860 C874 0.961 . S
H861 C875 0.960 . S
H862 C875 0.961 . S
H863 C875 0.959 . S
H864 C878 0.929 . S
H865 C879 0.931 . S
H866 C881 0.930 . S
C867 H855 0.930 . S
C867 C868 1.399 1_455 S
C867 C872 1.399 . S
C868 C867 1.399 1_655 S
C868 C869 1.376 . S
C869 H856 0.930 . S
C869 C868 1.376 . S
C869 C870 1.388 1_655 S
C870 H857 0.930 . S
C870 C869 1.388 1_455 S
C870 C871 1.390 . S
C871 C870 1.390 . S
C871 C872 1.394 . S
C871 C877 1.465 . S
C872 C867 1.399 . S
C872 C871 1.394 . S
C872 C873 1.516 . S
C873 C872 1.516 . S
C873 C874 1.502 . S
C873 C875 1.561 . S
C873 C876 1.526 . S
C874 H858 0.959 . S
C874 H859 0.959 . S
C874 H860 0.961 . S
C874 C873 1.502 . S
C875 H861 0.960 . S
C875 H862 0.961 . S
C875 H863 0.959 . S
C875 C873 1.561 . S
C876 C873 1.526 . S
C876 C877 1.396 . S
C876 C881 1.390 . S
C877 C871 1.465 . S
C877 C876 1.396 . S
C877 C878 1.399 . S
C878 H864 0.929 . S
C878 C877 1.399 . S
C878 C879 1.385 . S
C879 H865 0.931 . S
C879 C878 1.385 . S
C879 C880 1.389 . S
C880 C879 1.389 . S
C880 C881 1.387 . S
C881 H866 0.930 . S
C881 C876 1.390 . S
C881 C880 1.387 . S
H882 C894 0.930 . S
H883 C896 0.930 . S
H884 C897 0.930 . S
H885 C901 0.959 . S
H886 C901 0.959 . S
H887 C901 0.961 1_565 S
H888 C902 0.960 . S
H889 C902 0.961 . S
H890 C902 0.959 . S
H891 C905 0.929 . S
H892 C906 0.931 . S
H893 C908 0.930 . S
C894 H882 0.930 . S
C894 C895 1.399 1_565 S
C894 C899 1.399 1_565 S
C895 C894 1.399 1_545 S
C895 C896 1.376 . S
C896 H883 0.930 . S
C896 C895 1.376 . S
C896 C897 1.388 . S
C897 H884 0.930 . S
C897 C896 1.388 . S
C897 C898 1.390 . S
C898 C897 1.390 . S
C898 C899 1.394 . S
C898 C904 1.465 . S
C899 C894 1.399 1_545 S
C899 C898 1.394 . S
C899 C900 1.516 . S
C900 C899 1.516 . S
C900 C901 1.502 . S
C900 C902 1.561 1_545 S
C900 C903 1.526 . S
C901 H885 0.959 . S
C901 H886 0.959 . S
C901 H887 0.961 1_545 S
C901 C900 1.502 . S
C902 H888 0.960 . S
C902 H889 0.961 . S
C902 H890 0.959 . S
C902 C900 1.561 1_565 S
C903 C900 1.526 . S
C903 C904 1.396 . S
C903 C908 1.390 . S
C904 C898 1.465 . S
C904 C903 1.396 . S
C904 C905 1.399 . S
C905 H891 0.929 . S
C905 C904 1.399 . S
C905 C906 1.385 . S
C906 H892 0.931 . S
C906 C905 1.385 . S
C906 C907 1.389 . S
C907 C906 1.389 . S
C907 C908 1.387 . S
C908 H893 0.930 . S
C908 C903 1.390 . S
C908 C907 1.387 . S
H909 C921 0.930 . S
H910 C923 0.930 . S
H911 C924 0.930 . S
H912 C928 0.959 . S
H913 C928 0.959 . S
H914 C928 0.961 . S
H915 C929 0.960 . S
H916 C929 0.961 . S
H917 C929 0.959 . S
H918 C932 0.929 . S
H919 C933 0.931 . S
H920 C935 0.930 . S
C921 H909 0.930 . S
C921 C922 1.399 . S
C921 C926 1.399 . S
C922 C921 1.399 . S
C922 C923 1.376 . S
C923 H910 0.930 . S
C923 C922 1.376 . S
C923 C924 1.388 . S
C924 H911 0.930 . S
C924 C923 1.388 . S
C924 C925 1.390 . S
C925 C924 1.390 . S
C925 C926 1.394 . S
C925 C931 1.465 . S
C926 C921 1.399 . S
C926 C925 1.394 . S
C926 C927 1.516 . S
C927 C926 1.516 . S
C927 C928 1.502 . S
C927 C929 1.561 . S
C927 C930 1.526 . S
C928 H912 0.959 . S
C928 H913 0.959 . S
C928 H914 0.961 . S
C928 C927 1.502 . S
C929 H915 0.960 . S
C929 H916 0.961 . S
C929 H917 0.959 . S
C929 C927 1.561 . S
C930 C927 1.526 . S
C930 C931 1.396 . S
C930 C935 1.390 . S
C931 C925 1.465 . S
C931 C930 1.396 . S
C931 C932 1.399 . S
C932 H918 0.929 . S
C932 C931 1.399 . S
C932 C933 1.385 . S
C933 H919 0.931 . S
C933 C932 1.385 . S
C933 C934 1.389 . S
C934 C933 1.389 . S
C934 C935 1.387 . S
C935 H920 0.930 . S
C935 C930 1.390 . S
C935 C934 1.387 . S
H936 C948 0.930 1_455 S
H937 C950 0.930 . S
H938 C951 0.930 . S
H939 C955 0.959 . S
H940 C955 0.959 . S
H941 C955 0.961 . S
H942 C956 0.960 . S
H943 C956 0.961 . S
H944 C956 0.959 . S
H945 C959 0.929 . S
H946 C960 0.931 . S
H947 C962 0.930 . S
C948 H936 0.930 1_655 S
C948 C949 1.399 . S
C948 C953 1.399 . S
C949 C948 1.399 . S
C949 C950 1.376 . S
C950 H937 0.930 . S
C950 C949 1.376 . S
C950 C951 1.388 . S
C951 H938 0.930 . S
C951 C950 1.388 . S
C951 C952 1.390 . S
C952 C951 1.390 . S
C952 C953 1.394 . S
C952 C958 1.465 . S
C953 C948 1.399 . S
C953 C952 1.394 . S
C953 C954 1.516 . S
C954 C953 1.516 . S
C954 C955 1.502 . S
C954 C956 1.561 1_655 S
C954 C957 1.526 . S
C955 H939 0.959 . S
C955 H940 0.959 . S
C955 H941 0.961 . S
C955 C954 1.502 . S
C956 H942 0.960 . S
C956 H943 0.961 . S
C956 H944 0.959 . S
C956 C954 1.561 1_455 S
C957 C954 1.526 . S
C957 C958 1.396 . S
C957 C962 1.390 . S
C958 C952 1.465 . S
C958 C957 1.396 . S
C958 C959 1.399 . S
C959 H945 0.929 . S
C959 C958 1.399 . S
C959 C960 1.385 . S
C960 H946 0.931 . S
C960 C959 1.385 . S
C960 C961 1.389 . S
C961 C960 1.389 . S
C961 C962 1.387 . S
C962 H947 0.930 . S
C962 C957 1.390 . S
C962 C961 1.387 . S
H963 C975 0.930 . S
H964 C977 0.930 . S
H965 C978 0.930 . S
H966 C982 0.959 . S
H967 C982 0.959 . S
H968 C982 0.961 . S
H969 C983 0.960 . S
H970 C983 0.961 . S
H971 C983 0.959 . S
H972 C986 0.929 . S
H973 C987 0.931 . S
H974 C989 0.930 . S
C975 H963 0.930 . S
C975 C976 1.399 1_545 S
C975 C980 1.399 1_545 S
C976 C975 1.399 1_565 S
C976 C977 1.376 . S
C977 H964 0.930 . S
C977 C976 1.376 . S
C977 C978 1.388 . S
C978 H965 0.930 . S
C978 C977 1.388 . S
C978 C979 1.390 . S
C979 C978 1.390 . S
C979 C980 1.394 . S
C979 C985 1.465 . S
C980 C975 1.399 1_565 S
C980 C979 1.394 . S
C980 C981 1.516 . S
C981 C980 1.516 . S
C981 C982 1.502 1_565 S
C981 C983 1.561 . S
C981 C984 1.526 . S
C982 H966 0.959 . S
C982 H967 0.959 . S
C982 H968 0.961 . S
C982 C981 1.502 1_545 S
C983 H969 0.960 . S
C983 H970 0.961 . S
C983 H971 0.959 . S
C983 C981 1.561 . S
C984 C981 1.526 . S
C984 C985 1.396 . S
C984 C989 1.390 . S
C985 C979 1.465 . S
C985 C984 1.396 . S
C985 C986 1.399 . S
C986 H972 0.929 . S
C986 C985 1.399 . S
C986 C987 1.385 . S
C987 H973 0.931 . S
C987 C986 1.385 . S
C987 C988 1.389 . S
C988 C987 1.389 . S
C988 C989 1.387 . S
C989 H974 0.930 . S
C989 C984 1.390 . S
C989 C988 1.387 . S
C517 C403 1.078 . S
C529 C58 1.036 . S
C544 C487 1.181 . S
C556 C142 1.091 . S
C571 C67 1.086 . S
C583 C226 1.072 . S
C598 C151 1.079 . S
C610 C310 1.041 . S
C625 C235 1.173 . S
C637 C394 1.100 . S
C652 C319 1.088 . S
C664 C478 1.078 . S
C679 C74 1.782 . S
C691 C326 1.815 . S
C706 C410 1.778 . S
C718 C158 1.800 . S
C733 C494 1.779 . S
C745 C242 1.798 . S
C760 C231 1.835 . S
C772 C483 1.796 . S
C787 C63 1.811 . S
C799 C315 1.765 . S
C814 C399 1.764 . S
C826 C147 1.792 . S
C841 C476 1.276 . S
C853 C70 1.157 . S
C868 C154 1.219 . S
C880 C56 1.198 . S
C895 C238 1.271 1_545 S
C907 C140 1.163 . S
C922 C224 1.277 . S
C934 C322 1.153 . S
C949 C406 1.256 1_655 S
C961 C308 1.168 . S
C976 C490 1.231 1_565 S
C988 C392 1.215 . S
