# Generated by pormake.
# Topology wiu, (6)-cn, num edge types: 1
# Building blocks:
#     Node 0, Type 0, BuildingBlock: JUFBIX_clean_sbu_0, # of connection points: 6
#     Node 1, Type 0, BuildingBlock: JUFBIX_clean_sbu_0, # of connection points: 6
#     Node 2, Type 0, BuildingBlock: JUFBIX_clean_sbu_0, # of connection points: 6
#     Node 3, Type 0, BuildingBlock: JUFBIX_clean_sbu_0, # of connection points: 6
#     Node 4, Type 0, BuildingBlock: JUFBIX_clean_sbu_0, # of connection points: 6
#     Node 5, Type 0, BuildingBlock: JUFBIX_clean_sbu_0, # of connection points: 6
#     Node 6, Type 0, BuildingBlock: JUFBIX_clean_sbu_0, # of connection points: 6
#     Node 7, Type 0, BuildingBlock: JUFBIX_clean_sbu_0, # of connection points: 6
#     Node 8, Type 0, BuildingBlock: JUFBIX_clean_sbu_0, # of connection points: 6
#     Node 9, Type 0, BuildingBlock: JUFBIX_clean_sbu_0, # of connection points: 6
#     Node 10, Type 0, BuildingBlock: JUFBIX_clean_sbu_0, # of connection points: 6
#     Node 11, Type 0, BuildingBlock: JUFBIX_clean_sbu_0, # of connection points: 6
#     Node 12, Type 0, BuildingBlock: JUFBIX_clean_sbu_0, # of connection points: 6
#     Node 13, Type 0, BuildingBlock: JUFBIX_clean_sbu_0, # of connection points: 6
#     Node 14, Type 0, BuildingBlock: JUFBIX_clean_sbu_0, # of connection points: 6
#     Node 15, Type 0, BuildingBlock: JUFBIX_clean_sbu_0, # of connection points: 6
#     Edge 16, Type (0, 0), BuildingBlock: XIVTED_clean_linker_0, # of connection points: 2
#     Edge 17, Type (0, 0), BuildingBlock: XIVTED_clean_linker_0, # of connection points: 2
#     Edge 18, Type (0, 0), BuildingBlock: XIVTED_clean_linker_0, # of connection points: 2
#     Edge 19, Type (0, 0), BuildingBlock: XIVTED_clean_linker_0, # of connection points: 2
#     Edge 20, Type (0, 0), BuildingBlock: XIVTED_clean_linker_0, # of connection points: 2
#     Edge 21, Type (0, 0), BuildingBlock: XIVTED_clean_linker_0, # of connection points: 2
#     Edge 22, Type (0, 0), BuildingBlock: XIVTED_clean_linker_0, # of connection points: 2
#     Edge 23, Type (0, 0), BuildingBlock: XIVTED_clean_linker_0, # of connection points: 2
#     Edge 24, Type (0, 0), BuildingBlock: XIVTED_clean_linker_0, # of connection points: 2
#     Edge 25, Type (0, 0), BuildingBlock: XIVTED_clean_linker_0, # of connection points: 2
#     Edge 26, Type (0, 0), BuildingBlock: XIVTED_clean_linker_0, # of connection points: 2
#     Edge 27, Type (0, 0), BuildingBlock: XIVTED_clean_linker_0, # of connection points: 2
#     Edge 28, Type (0, 0), BuildingBlock: XIVTED_clean_linker_0, # of connection points: 2
#     Edge 29, Type (0, 0), BuildingBlock: XIVTED_clean_linker_0, # of connection points: 2
#     Edge 30, Type (0, 0), BuildingBlock: XIVTED_clean_linker_0, # of connection points: 2
#     Edge 31, Type (0, 0), BuildingBlock: XIVTED_clean_linker_0, # of connection points: 2
#     Edge 32, Type (0, 0), BuildingBlock: XIVTED_clean_linker_0, # of connection points: 2
#     Edge 33, Type (0, 0), BuildingBlock: XIVTED_clean_linker_0, # of connection points: 2
#     Edge 34, Type (0, 0), BuildingBlock: XIVTED_clean_linker_0, # of connection points: 2
#     Edge 35, Type (0, 0), BuildingBlock: XIVTED_clean_linker_0, # of connection points: 2
#     Edge 36, Type (0, 0), BuildingBlock: XIVTED_clean_linker_0, # of connection points: 2
#     Edge 37, Type (0, 0), BuildingBlock: XIVTED_clean_linker_0, # of connection points: 2
#     Edge 38, Type (0, 0), BuildingBlock: XIVTED_clean_linker_0, # of connection points: 2
#     Edge 39, Type (0, 0), BuildingBlock: XIVTED_clean_linker_0, # of connection points: 2
#     Edge 40, Type (0, 0), BuildingBlock: XIVTED_clean_linker_0, # of connection points: 2
#     Edge 41, Type (0, 0), BuildingBlock: XIVTED_clean_linker_0, # of connection points: 2
#     Edge 42, Type (0, 0), BuildingBlock: XIVTED_clean_linker_0, # of connection points: 2
#     Edge 43, Type (0, 0), BuildingBlock: XIVTED_clean_linker_0, # of connection points: 2
#     Edge 44, Type (0, 0), BuildingBlock: XIVTED_clean_linker_0, # of connection points: 2
#     Edge 45, Type (0, 0), BuildingBlock: XIVTED_clean_linker_0, # of connection points: 2
#     Edge 46, Type (0, 0), BuildingBlock: XIVTED_clean_linker_0, # of connection points: 2
#     Edge 47, Type (0, 0), BuildingBlock: XIVTED_clean_linker_0, # of connection points: 2
#     Edge 48, Type (0, 0), BuildingBlock: XIVTED_clean_linker_0, # of connection points: 2
#     Edge 49, Type (0, 0), BuildingBlock: XIVTED_clean_linker_0, # of connection points: 2
#     Edge 50, Type (0, 0), BuildingBlock: XIVTED_clean_linker_0, # of connection points: 2
#     Edge 51, Type (0, 0), BuildingBlock: XIVTED_clean_linker_0, # of connection points: 2
#     Edge 52, Type (0, 0), BuildingBlock: XIVTED_clean_linker_0, # of connection points: 2
#     Edge 53, Type (0, 0), BuildingBlock: XIVTED_clean_linker_0, # of connection points: 2
#     Edge 54, Type (0, 0), BuildingBlock: XIVTED_clean_linker_0, # of connection points: 2
#     Edge 55, Type (0, 0), BuildingBlock: XIVTED_clean_linker_0, # of connection points: 2
#     Edge 56, Type (0, 0), BuildingBlock: XIVTED_clean_linker_0, # of connection points: 2
#     Edge 57, Type (0, 0), BuildingBlock: XIVTED_clean_linker_0, # of connection points: 2
#     Edge 58, Type (0, 0), BuildingBlock: XIVTED_clean_linker_0, # of connection points: 2
#     Edge 59, Type (0, 0), BuildingBlock: XIVTED_clean_linker_0, # of connection points: 2
#     Edge 60, Type (0, 0), BuildingBlock: XIVTED_clean_linker_0, # of connection points: 2
#     Edge 61, Type (0, 0), BuildingBlock: XIVTED_clean_linker_0, # of connection points: 2
#     Edge 62, Type (0, 0), BuildingBlock: XIVTED_clean_linker_0, # of connection points: 2
#     Edge 63, Type (0, 0), BuildingBlock: XIVTED_clean_linker_0, # of connection points: 2
# Relax obj value: 0.357
# Max RMSD: 0.261
# Mean RMSD: 0.249
data_MOF--net-wiu--node1-JUFBIX_clean_sbu_0--edge1-XIVTED_clean_linker_0
_symmetry_space_group_name_H-M    P1
_symmetry_Int_Tables_number       1
_symmetry_cell_setting            triclinic
loop_
_symmetry_equiv_pos_as_xyz
'x, y, z'
_cell_length_a     28.386006
_cell_length_b     29.18482
_cell_length_c     67.610409
_cell_angle_alpha  95.759156
_cell_angle_beta   83.867913
_cell_angle_gamma 95.250379
loop_
_atom_site_label
_atom_site_type_symbol
_atom_site_fract_x
_atom_site_fract_y
_atom_site_fract_z
_atom_type_partial_charge
Co0 Co 0.32717 0.15362 0.06273 0.0
C1 C 0.28366 0.09813 0.09292 0.0
Co2 Co 0.37247 0.14319 0.08581 0.0
C3 C 0.29271 0.16258 0.02496 0.0
C4 C 0.23886 0.16982 0.04952 0.0
N5 N 0.28477 0.16105 0.04487 0.0
N6 N 0.25364 0.17248 0.01703 0.0
C7 C 0.21963 0.17698 0.03241 0.0
H8 H 0.3269 0.15808 0.01656 0.0
H9 H 0.22082 0.17179 0.06447 0.0
C10 C 0.41323 0.19778 0.05584 0.0
N11 N 0.41526 0.13566 0.10361 0.0
C12 C 0.40593 0.12748 0.12291 0.0
C13 C 0.46273 0.13351 0.0996 0.0
N14 N 0.44551 0.11998 0.13104 0.0
C15 C 0.48149 0.12412 0.11652 0.0
C16 C 0.38699 0.08203 0.05153 0.0
O17 O 0.37272 0.19359 0.04945 0.0
O18 O 0.4197 0.17943 0.07143 0.0
O19 O 0.39475 0.09022 0.06978 0.0
O20 O 0.35422 0.10267 0.04539 0.0
O21 O 0.32327 0.1064 0.10029 0.0
H22 H 0.48228 0.13688 0.08511 0.0
H23 H 0.37064 0.12622 0.13078 0.0
O24 O 0.2796 0.11285 0.07615 0.0
O25 O 0.30412 0.20628 0.07951 0.0
O26 O 0.35254 0.19751 0.10169 0.0
C27 C 0.32185 0.22073 0.09575 0.0
H28 H 0.1835 0.18488 0.03136 0.0
H29 H 0.5182 0.11865 0.11781 0.0
Co30 Co 0.63926 0.56963 0.30196 0.0
C31 C 0.69786 0.53649 0.32692 0.0
Co32 Co 0.65745 0.61997 0.32685 0.0
C33 C 0.64846 0.5149 0.26353 0.0
C34 C 0.57766 0.5105 0.27808 0.0
N35 N 0.6225 0.52801 0.28075 0.0
N36 N 0.62132 0.49062 0.25023 0.0
C37 C 0.57686 0.48759 0.25938 0.0
H38 H 0.68574 0.52569 0.26024 0.0
H39 H 0.54674 0.51645 0.2885 0.0
C40 C 0.59879 0.65094 0.30247 0.0
N41 N 0.67243 0.66216 0.34768 0.0
C42 C 0.67124 0.65349 0.36688 0.0
C43 C 0.68914 0.7069 0.34723 0.0
N44 N 0.68684 0.6908 0.37845 0.0
C45 C 0.69841 0.72459 0.36621 0.0
C46 C 0.71615 0.63517 0.29227 0.0
O47 O 0.59911 0.61029 0.29406 0.0
O48 O 0.62178 0.66264 0.3175 0.0
O49 O 0.71123 0.6448 0.31105 0.0
O50 O 0.69097 0.60028 0.28487 0.0
O51 O 0.69342 0.57628 0.33613 0.0
H52 H 0.69506 0.72515 0.33391 0.0
H53 H 0.66076 0.61985 0.37213 0.0
O54 O 0.67995 0.52691 0.31032 0.0
O55 O 0.58676 0.54293 0.31904 0.0
O56 O 0.60222 0.59666 0.34288 0.0
C57 C 0.57584 0.56202 0.33649 0.0
H58 H 0.54566 0.4717 0.25269 0.0
H59 H 0.71276 0.7593 0.37065 0.0
Co60 Co 0.29156 0.87646 0.57473 0.0
C61 C 0.2132 0.85379 0.55603 0.0
Co62 Co 0.26024 0.9402 0.56798 0.0
C63 C 0.304 0.7937 0.59396 0.0
C64 C 0.36512 0.81433 0.57451 0.0
N65 N 0.32123 0.8263 0.58152 0.0
N66 N 0.33525 0.76177 0.59476 0.0
C67 C 0.37367 0.77466 0.58249 0.0
H68 H 0.26888 0.79285 0.60199 0.0
H69 H 0.38946 0.83319 0.56421 0.0
C70 C 0.3413 0.9615 0.58681 0.0
N71 N 0.22657 0.98806 0.55996 0.0
C72 C 0.18046 0.98368 0.55557 0.0
C73 C 0.24451 0.02789 0.55253 0.0
N74 N 0.16929 1.01807 0.54522 0.0
C75 C 0.20967 0.04634 0.54362 0.0
C76 C 0.22888 0.91269 0.60541 0.0
O77 O 0.33979 0.91758 0.58501 0.0
O78 O 0.30903 0.98193 0.58005 0.0
O79 O 0.22302 0.94155 0.59312 0.0
O80 O 0.25705 0.88122 0.60021 0.0
O81 O 0.21488 0.89735 0.55635 0.0
H82 H 0.28149 0.04089 0.5522 0.0
H83 H 0.1559 0.95439 0.55906 0.0
O84 O 0.24344 0.83556 0.56454 0.0
O85 O 0.32531 0.87305 0.5488 0.0
O86 O 0.29758 0.93807 0.54324 0.0
C87 C 0.32253 0.90442 0.53729 0.0
H88 H 0.40596 0.75697 0.57969 0.0
H89 H 0.21492 0.07657 0.53534 0.0
Co90 Co 0.88063 0.48397 0.8181 0.0
C91 C 0.81264 0.52528 0.84546 0.0
Co92 Co 0.84918 0.4392 0.84091 0.0
C93 C 0.91299 0.51284 0.77938 0.0
C94 C 0.92039 0.56778 0.8026 0.0
N95 N 0.90531 0.52276 0.79925 0.0
N96 N 0.93227 0.54995 0.77014 0.0
C97 C 0.93705 0.58462 0.7847 0.0
H98 H 0.90464 0.479 0.77186 0.0
H99 H 0.91887 0.58722 0.81711 0.0
C100 C 0.91717 0.4009 0.81353 0.0
N101 N 0.8262 0.40114 0.86057 0.0
C102 C 0.82664 0.41415 0.88021 0.0
C103 C 0.81731 0.35482 0.85932 0.0
N104 N 0.82066 0.3779 0.89135 0.0
C105 C 0.81385 0.34038 0.87829 0.0
C106 C 0.80637 0.41968 0.80584 0.0
O107 O 0.92246 0.44049 0.80715 0.0
O108 O 0.88756 0.39317 0.82849 0.0
O109 O 0.80104 0.41258 0.8243 0.0
O110 O 0.83517 0.45347 0.80047 0.0
O111 O 0.81047 0.48739 0.8535 0.0
H112 H 0.81733 0.33273 0.84548 0.0
H113 H 0.83452 0.4496 0.88602 0.0
O114 O 0.83842 0.52907 0.82908 0.0
O115 O 0.92761 0.51125 0.83518 0.0
O116 O 0.89928 0.46312 0.85694 0.0
C117 C 0.93046 0.49453 0.8516 0.0
H118 H 0.95014 0.61994 0.7825 0.0
H119 H 0.81041 0.30488 0.88193 0.0
Co120 Co 0.68467 0.91242 0.92446 0.0
C121 C 0.6439 0.85954 0.95511 0.0
Co122 Co 0.72984 0.90334 0.94781 0.0
C123 C 0.63945 0.95108 0.89461 0.0
C124 C 0.61024 0.88259 0.89973 0.0
N125 N 0.64278 0.91613 0.90583 0.0
N126 N 0.60649 0.94052 0.88151 0.0
C127 C 0.5879 0.89744 0.88481 0.0
H128 H 0.66183 0.9831 0.8957 0.0
H129 H 0.60445 0.84877 0.90523 0.0
C130 C 0.77296 0.95748 0.91703 0.0
N131 N 0.77221 0.89811 0.96611 0.0
C132 C 0.76387 0.89231 0.98574 0.0
C133 C 0.81905 0.89326 0.96154 0.0
N134 N 0.8036 0.88338 0.99348 0.0
C135 C 0.83843 0.88421 0.97833 0.0
C136 C 0.73667 0.83488 0.9158 0.0
O137 O 0.73375 0.9479 0.90943 0.0
O138 O 0.77674 0.94414 0.93408 0.0
O139 O 0.75457 0.85027 0.93188 0.0
O140 O 0.70559 0.85734 0.90977 0.0
O141 O 0.68464 0.86344 0.9613 0.0
H142 H 0.83762 0.8945 0.94676 0.0
H143 H 0.72897 0.89245 0.99394 0.0
O144 O 0.63727 0.87761 0.93945 0.0
O145 O 0.66141 0.96628 0.93942 0.0
O146 O 0.7012 0.95474 0.96428 0.0
C147 C 0.66865 0.97507 0.95774 0.0
H148 H 0.56214 0.87688 0.87625 0.0
H149 H 0.87515 0.87816 0.97926 0.0
Co150 Co 0.40487 0.42578 0.68149 0.0
C151 C 0.45866 0.40433 0.71013 0.0
Co152 Co 0.41193 0.47941 0.70632 0.0
C153 C 0.39363 0.38915 0.64163 0.0
C154 C 0.39238 0.33442 0.6605 0.0
N155 N 0.39918 0.38081 0.66042 0.0
N156 N 0.38219 0.3503 0.63011 0.0
C157 C 0.38198 0.31546 0.64175 0.0
H158 H 0.39575 0.42342 0.63663 0.0
H159 H 0.39211 0.31589 0.67359 0.0
C160 C 0.35792 0.50371 0.67763 0.0
N161 N 0.41717 0.52534 0.72708 0.0
C162 C 0.41071 0.52224 0.74699 0.0
C163 C 0.42784 0.57069 0.72503 0.0
N164 N 0.41674 0.56399 0.75744 0.0
C165 C 0.42765 0.59448 0.74361 0.0
C166 C 0.48332 0.48927 0.6746 0.0
O167 O 0.36902 0.46504 0.66895 0.0
O168 O 0.36971 0.51508 0.69515 0.0
O169 O 0.46587 0.5099 0.6909 0.0
O170 O 0.46224 0.45149 0.66798 0.0
O171 O 0.45372 0.44548 0.71739 0.0
H172 H 0.43486 0.58561 0.71089 0.0
H173 H 0.40068 0.49009 0.75363 0.0
O174 O 0.44016 0.38845 0.69429 0.0
O175 O 0.34898 0.39809 0.69498 0.0
O176 O 0.35941 0.44538 0.72166 0.0
C177 C 0.33874 0.40845 0.71354 0.0
H178 H 0.37183 0.27948 0.63743 0.0
H179 H 0.43504 0.6314 0.74664 0.0
Co180 Co 0.80005 0.10535 0.44199 0.0
C181 C 0.71718 0.08668 0.42466 0.0
Co182 Co 0.77173 0.17061 0.4349 0.0
C183 C 0.85941 0.06256 0.46608 0.0
C184 C 0.84301 1.01621 0.44079 0.0
N185 N 0.83222 0.05718 0.45043 0.0
N186 N 0.88765 0.0276 0.46635 0.0
C187 C 0.87667 0.99798 0.45052 0.0
H188 H 0.86019 0.09298 0.47663 0.0
H189 H 0.8299 1.00201 0.42683 0.0
C190 C 0.85242 0.19022 0.45196 0.0
N191 N 0.74392 0.22177 0.42738 0.0
C192 C 0.75919 0.24976 0.41269 0.0
C193 C 0.7032 0.23878 0.43596 0.0
N194 N 0.72988 0.28354 0.41201 0.0
C195 C 0.69476 0.27672 0.4267 0.0
C196 C 0.74194 0.14639 0.47308 0.0
O197 O 0.84949 0.1466 0.45135 0.0
O198 O 0.82138 0.21002 0.44459 0.0
O199 O 0.73859 0.17659 0.46106 0.0
O200 O 0.76596 0.11199 0.46738 0.0
O201 O 0.72181 0.13059 0.42523 0.0
H202 H 0.68075 0.22454 0.44817 0.0
H203 H 0.7916 0.24608 0.40288 0.0
O204 O 0.74788 0.06516 0.43192 0.0
O205 O 0.834 0.09928 0.41621 0.0
O206 O 0.80609 0.16311 0.40931 0.0
C207 C 0.8309 0.129 0.40395 0.0
H208 H 0.89397 0.96678 0.44546 0.0
H209 H 0.6647 0.2974 0.43032 0.0
Co210 Co 0.21117 0.61633 0.17117 0.0
C211 C 0.14429 0.65705 0.19805 0.0
Co212 Co 0.18037 0.57329 0.19485 0.0
C213 C 0.23281 0.6388 0.13108 0.0
C214 C 0.24602 0.69824 0.15151 0.0
N215 N 0.23427 0.65234 0.15067 0.0
N216 N 0.24142 0.67446 0.11958 0.0
C217 C 0.25048 0.71195 0.13241 0.0
H218 H 0.22306 0.60352 0.12556 0.0
H219 H 0.24787 0.72072 0.16519 0.0
C220 C 0.24721 0.52954 0.16795 0.0
N221 N 0.15541 0.53715 0.21476 0.0
C222 C 0.14753 0.55014 0.23443 0.0
C223 C 0.13903 0.49227 0.21263 0.0
N224 N 0.12668 0.51519 0.24468 0.0
C225 C 0.12126 0.47866 0.23103 0.0
C226 C 0.12966 0.56008 0.16155 0.0
O227 O 0.24945 0.56688 0.15944 0.0
O228 O 0.22174 0.52686 0.18449 0.0
O229 O 0.13278 0.5449 0.17829 0.0
O230 O 0.16079 0.59095 0.15559 0.0
O231 O 0.13944 0.61819 0.20511 0.0
H232 H 0.13993 0.47087 0.19859 0.0
H233 H 0.15635 0.58479 0.24104 0.0
O234 O 0.17323 0.66348 0.18275 0.0
O235 O 0.25961 0.64455 0.18751 0.0
O236 O 0.22642 0.60466 0.21182 0.0
C237 C 0.25477 0.63835 0.20608 0.0
H238 H 0.25673 0.74721 0.12853 0.0
H239 H 0.1065 0.44432 0.23418 0.0
Co240 Co 0.82759 0.65634 0.56308 0.0
C241 C 0.78463 0.60116 0.59383 0.0
Co242 Co 0.87298 0.64569 0.5862 0.0
C243 C 0.78914 0.66387 0.52568 0.0
C244 C 0.73781 0.67047 0.5512 0.0
N245 N 0.78383 0.66323 0.54569 0.0
N246 N 0.74805 0.67098 0.51855 0.0
C247 C 0.71568 0.67505 0.53455 0.0
H248 H 0.82238 0.65913 0.51656 0.0
H249 H 0.72151 0.67301 0.56643 0.0
C250 C 0.913 0.70065 0.55583 0.0
N251 N 0.91666 0.63879 0.60373 0.0
C252 C 0.90803 0.62932 0.62289 0.0
C253 C 0.96425 0.63818 0.59954 0.0
N254 N 0.94817 0.62246 0.63076 0.0
C255 C 0.98377 0.6284 0.61623 0.0
C256 C 0.88687 0.58424 0.55191 0.0
O257 O 0.87296 0.69479 0.54901 0.0
O258 O 0.91922 0.68339 0.57174 0.0
O259 O 0.89597 0.5936 0.56994 0.0
O260 O 0.85324 0.60411 0.54596 0.0
O261 O 0.82495 0.60729 0.60069 0.0
H262 H 0.98341 0.64278 0.58507 0.0
H263 H 0.87287 0.62662 0.63085 0.0
O264 O 0.78006 0.61736 0.57745 0.0
O265 O 0.80612 0.70985 0.57952 0.0
O266 O 0.85209 0.69939 0.60239 0.0
C267 C 0.82261 0.72345 0.59609 0.0
H268 H 0.67895 0.68199 0.53428 0.0
H269 H 1.02081 0.62385 0.61731 0.0
Co270 Co 0.14053 0.06809 0.80091 0.0
C271 C 0.19932 0.03495 0.82587 0.0
Co272 Co 0.15794 0.11814 0.82609 0.0
C273 C 0.15039 1.0132 0.76247 0.0
C274 C 0.07948 1.00863 0.77689 0.0
N275 N 0.12419 0.02645 0.77962 0.0
N276 N 0.12352 0.9885 0.74917 0.0
C277 C 0.07899 0.98536 0.75826 0.0
H278 H 0.18769 1.02404 0.75925 0.0
H279 H 0.04844 1.01446 0.78726 0.0
C280 C 0.09886 0.14877 0.80168 0.0
N281 N 0.17257 0.16051 0.847 0.0
C282 C 0.18038 0.1511 0.86538 0.0
C283 C 0.17999 0.20692 0.84718 0.0
N284 N 0.19278 0.18958 0.87699 0.0
C285 C 0.19222 0.22497 0.86572 0.0
C286 C 0.21664 0.13443 0.7915 0.0
O287 O 0.10021 0.10853 0.79293 0.0
O288 O 0.1212 0.16019 0.81691 0.0
O289 O 0.21112 0.14411 0.81029 0.0
O290 O 0.19227 0.09909 0.78399 0.0
O291 O 0.1949 0.07471 0.83511 0.0
H292 H 0.17765 0.22625 0.83453 0.0
H293 H 0.17716 0.11657 0.87018 0.0
O294 O 0.1813 1.02546 0.80929 0.0
O295 O 0.08803 0.04119 0.81788 0.0
O296 O 0.10335 0.09392 0.84216 0.0
C297 C 0.07701 0.05956 0.83545 0.0
H298 H 0.04795 0.96899 0.75159 0.0
H299 H 0.20144 0.26098 0.87035 0.0
Co300 Co 0.78914 0.37802 0.07515 0.0
C301 C 0.70794 0.36043 0.05821 0.0
Co302 Co 0.76129 0.4441 0.06902 0.0
C303 C 0.79984 0.29565 0.09512 0.0
C304 C 0.85828 0.3104 0.07334 0.0
N305 N 0.81663 0.32598 0.08157 0.0
N306 N 0.82914 0.26175 0.09546 0.0
C307 C 0.86585 0.27092 0.08172 0.0
H308 H 0.76642 0.2979 0.10436 0.0
H309 H 0.88188 0.32672 0.062 0.0
C310 C 0.84445 0.46079 0.08633 0.0
N311 N 0.72887 0.49322 0.06154 0.0
C312 C 0.70316 0.48948 0.04545 0.0
C313 C 0.71366 0.53078 0.07276 0.0
N314 N 0.67129 0.52187 0.04644 0.0
C315 C 0.6787 0.54839 0.06359 0.0
C316 C 0.73143 0.41772 0.10679 0.0
O317 O 0.83983 0.41679 0.08481 0.0
O318 O 0.81359 0.4833 0.07968 0.0
O319 O 0.72724 0.44784 0.09486 0.0
O320 O 0.7565 0.38409 0.10099 0.0
O321 O 0.71186 0.40406 0.05904 0.0
H322 H 0.72405 0.54221 0.08751 0.0
H323 H 0.70553 0.46118 0.03387 0.0
O324 O 0.7384 0.33971 0.06551 0.0
O325 O 0.82104 0.37329 0.04891 0.0
O326 O 0.79546 0.43945 0.04356 0.0
C327 C 0.8185 0.40461 0.03736 0.0
H328 H 0.89643 0.25091 0.07821 0.0
H329 H 0.65794 0.5765 0.06997 0.0
Co330 Co 0.37759 0.98345 0.31891 0.0
C331 C 0.30925 1.02389 0.34639 0.0
Co332 Co 0.34656 0.93817 0.34159 0.0
C333 C 0.40902 1.01303 0.28026 0.0
C334 C 0.41663 0.06772 0.30357 0.0
N335 N 0.40174 1.02266 0.30016 0.0
N336 N 0.42785 0.05034 0.27107 0.0
C337 C 0.43279 0.08486 0.28567 0.0
H338 H 0.40071 0.97925 0.27268 0.0
H339 H 0.4153 0.08697 0.31812 0.0
C340 C 0.41504 0.9009 0.3141 0.0
N341 N 0.3241 0.8996 0.36114 0.0
C342 C 0.32494 0.91202 0.38081 0.0
C343 C 0.3154 0.85325 0.35965 0.0
N344 N 0.31941 0.87538 0.39173 0.0
C345 C 0.31246 0.83821 0.37849 0.0
C346 C 0.30395 0.91849 0.30649 0.0
O347 O 0.41993 0.94062 0.30786 0.0
O348 O 0.38544 0.89266 0.32901 0.0
O349 O 0.29857 0.91127 0.32494 0.0
O350 O 0.3324 0.95261 0.30121 0.0
O351 O 0.3074 0.98592 0.35436 0.0
H352 H 0.31524 0.83155 0.3457 0.0
H353 H 0.33278 0.94734 0.3868 0.0
O354 O 0.33487 0.02796 0.33 0.0
O355 O 0.42433 1.01103 0.33605 0.0
O356 O 0.39651 0.96232 0.35763 0.0
C357 C 0.42738 0.99409 0.3524 0.0
H358 H 0.44564 0.12026 0.28352 0.0
H359 H 0.3093 0.80256 0.38191 0.0
Co360 Co 0.18347 0.41195 0.42515 0.0
C361 C 0.14279 0.3596 0.45597 0.0
Co362 Co 0.22886 0.40315 0.44851 0.0
C363 C 0.13889 0.44985 0.39488 0.0
C364 C 0.10876 0.38195 0.40054 0.0
N365 N 0.14154 0.41543 0.40648 0.0
N366 N 0.1062 0.43898 0.38168 0.0
C367 C 0.08701 0.39629 0.38533 0.0
H368 H 0.16167 0.48164 0.39574 0.0
H369 H 0.10252 0.34842 0.40629 0.0
C370 C 0.27184 0.45676 0.41746 0.0
N371 N 0.27143 0.39807 0.46683 0.0
C372 C 0.26356 0.39224 0.48648 0.0
C373 C 0.31821 0.39315 0.46208 0.0
N374 N 0.30354 0.38322 0.49404 0.0
C375 C 0.33801 0.38405 0.47875 0.0
C376 C 0.23525 0.33417 0.41666 0.0
O377 O 0.23244 0.44717 0.41002 0.0
O378 O 0.27591 0.44364 0.43454 0.0
O379 O 0.25328 0.34969 0.43269 0.0
O380 O 0.20427 0.3567 0.41059 0.0
O381 O 0.18354 0.36361 0.46217 0.0
H382 H 0.33646 0.39433 0.44723 0.0
H383 H 0.22883 0.39237 0.49484 0.0
O384 O 0.13614 0.37739 0.44025 0.0
O385 O 0.16034 0.46597 0.43997 0.0
O386 O 0.20037 0.45493 0.46484 0.0
C387 C 0.16773 0.4751 0.45825 0.0
H388 H 0.06129 0.37554 0.3768 0.0
H389 H 0.37478 0.37793 0.47951 0.0
Co390 Co 0.90152 0.92721 0.18142 0.0
C391 C 0.95861 0.90393 0.2089 0.0
Co392 Co 0.91194 0.97938 0.2067 0.0
C393 C 0.88647 0.89087 0.14185 0.0
C394 C 0.88993 0.83613 0.16028 0.0
N395 N 0.89422 0.88263 0.16039 0.0
N396 N 0.87634 0.85175 0.13029 0.0
C397 C 0.87905 0.81694 0.14164 0.0
H398 H 0.88677 0.92514 0.137 0.0
H399 H 0.89234 0.81751 0.17314 0.0
C400 C 0.85499 1.00538 0.1789 0.0
N401 N 0.91893 1.02469 0.22758 0.0
C402 C 0.9119 1.02121 0.24745 0.0
C403 C 0.93141 0.06986 0.22573 0.0
N404 N 0.91928 0.06255 0.25808 0.0
C405 C 0.93171 0.09316 0.2444 0.0
C406 C 0.9802 0.99031 0.17386 0.0
O407 O 0.86297 0.96588 0.17021 0.0
O408 O 0.87035 1.01688 0.19583 0.0
O409 O 0.96635 1.00862 0.19119 0.0
O410 O 0.95639 0.95456 0.16679 0.0
O411 O 0.95298 0.94406 0.21726 0.0
H412 H 0.93921 0.08503 0.21167 0.0
H413 H 0.90037 0.98915 0.25395 0.0
O414 O 0.93981 0.88997 0.19292 0.0
O415 O 0.84792 0.89827 0.19581 0.0
O416 O 0.85897 0.94622 0.22223 0.0
C417 C 0.8382 0.90905 0.21436 0.0
H418 H 0.87112 0.78063 0.13716 0.0
H419 H 0.94033 0.12986 0.2476 0.0
Co420 Co 0.30294 0.60598 0.9414 0.0
C421 C 0.22016 0.58714 0.92397 0.0
Co422 Co 0.27372 0.67123 0.93482 0.0
C423 C 0.36258 0.56247 0.96507 0.0
C424 C 0.35067 0.51948 0.93832 0.0
N425 N 0.33618 0.5578 0.94918 0.0
N426 N 0.39412 0.52986 0.9643 0.0
C427 C 0.38585 0.5023 0.94752 0.0
H428 H 0.36078 0.59141 0.97637 0.0
H429 H 0.33946 0.50706 0.9238 0.0
C430 C 0.35415 0.69094 0.95213 0.0
N431 N 0.24527 0.72261 0.9278 0.0
C432 C 0.26001 0.75103 0.9132 0.0
C433 C 0.20472 0.7394 0.93668 0.0
N434 N 0.23054 0.78485 0.91286 0.0
C435 C 0.19586 0.7776 0.92769 0.0
C436 C 0.24444 0.64491 0.97283 0.0
O437 O 0.35177 0.6473 0.95121 0.0
O438 O 0.32305 0.71067 0.94475 0.0
O439 O 0.24074 0.67569 0.96111 0.0
O440 O 0.26876 0.61087 0.9668 0.0
O441 O 0.22411 0.63111 0.92492 0.0
H442 H 0.1827 0.72485 0.94893 0.0
H443 H 0.2922 0.74767 0.90323 0.0
O444 O 0.25131 0.56566 0.93096 0.0
O445 O 0.33695 0.60166 0.91563 0.0
O446 O 0.30791 0.66519 0.90913 0.0
C447 C 0.33325 0.63158 0.90355 0.0
H448 H 0.40606 0.47361 0.94138 0.0
H449 H 0.16581 0.7982 0.93159 0.0
Co450 Co 0.70779 0.11787 0.67139 0.0
C451 C 0.64227 0.15971 0.69857 0.0
Co452 Co 0.67696 0.07534 0.69523 0.0
C453 C 0.72891 0.13946 0.63126 0.0
C454 C 0.74242 0.19938 0.65138 0.0
N455 N 0.73078 0.15348 0.65077 0.0
N456 N 0.73703 0.1748 0.61958 0.0
C457 C 0.74632 0.21261 0.63221 0.0
H458 H 0.71908 0.10407 0.62592 0.0
H459 H 0.74443 0.22219 0.66496 0.0
C460 C 0.74304 0.03082 0.66818 0.0
N461 N 0.65206 0.03959 0.71526 0.0
C462 C 0.64448 0.05289 0.73491 0.0
C463 C 0.63526 0.99481 0.71326 0.0
N464 N 0.62337 1.01824 0.74528 0.0
C465 C 0.61751 0.98157 0.73173 0.0
C466 C 0.62529 0.06241 0.66219 0.0
O467 O 0.74546 0.06809 0.65963 0.0
O468 O 0.71753 0.02831 0.68472 0.0
O469 O 0.62851 0.04745 0.67897 0.0
O470 O 0.65676 0.09277 0.65603 0.0
O471 O 0.63694 0.12091 0.70567 0.0
H472 H 0.6358 0.97326 0.69927 0.0
H473 H 0.65364 0.08755 0.74142 0.0
O474 O 0.67065 0.1655 0.68304 0.0
O475 O 0.75683 0.14573 0.68746 0.0
O476 O 0.72385 0.10617 0.71191 0.0
C477 C 0.75242 0.13957 0.70602 0.0
H478 H 0.75224 0.24775 0.62814 0.0
H479 H 0.60245 0.9474 0.73498 0.0
H480 H 0.49071 0.15512 0.04116 0.0
H481 H 0.63545 0.39633 0.04327 0.0
H482 H 0.42859 0.28528 0.04438 0.0
H483 H 0.69126 0.26689 0.05052 0.0
H484 H 0.56567 0.35403 0.03036 0.0
H485 H 0.56784 0.19297 0.03011 0.0
C486 C 0.49341 0.19163 0.03901 0.0
C487 C 0.45437 0.21785 0.04416 0.0
C488 C 0.59358 0.33488 0.03442 0.0
C489 C 0.54185 0.26133 0.03231 0.0
C490 C 0.63331 0.35895 0.04191 0.0
C491 C 0.66835 0.33495 0.04858 0.0
C492 C 0.58871 0.28658 0.03387 0.0
C493 C 0.66428 0.28666 0.04612 0.0
C494 C 0.53722 0.21317 0.03271 0.0
C495 C 0.4586 0.2645 0.04084 0.0
N496 N 0.6246 0.26398 0.03927 0.0
N497 N 0.50225 0.2853 0.03562 0.0
H498 H 0.51475 0.63783 0.28597 0.0
H499 H 0.50103 0.90849 0.29215 0.0
H500 H 0.62869 0.74056 0.29963 0.0
H501 H 0.38597 0.80985 0.31055 0.0
H502 H 0.54724 0.8443 0.27744 0.0
H503 H 0.46883 0.69919 0.27741 0.0
C504 C 0.53032 0.6732 0.28671 0.0
C505 C 0.57423 0.68506 0.29427 0.0
C506 C 0.51137 0.837 0.28425 0.0
C507 C 0.52344 0.75397 0.28408 0.0
C508 C 0.48536 0.87333 0.29279 0.0
C509 C 0.44088 0.86384 0.30328 0.0
C510 C 0.49219 0.79146 0.28616 0.0
C511 C 0.4212 0.81813 0.3033 0.0
C512 C 0.50448 0.70787 0.2817 0.0
C513 C 0.59388 0.73077 0.29461 0.0
N514 N 0.44739 0.78335 0.29511 0.0
N515 N 0.56794 0.76392 0.28986 0.0
H516 H 0.19233 0.76038 0.55554 0.0
H517 H 0.98232 0.65273 0.53623 0.0
H518 H 0.14888 0.88261 0.53392 0.0
H519 H 0.93784 0.79064 0.54939 0.0
H520 H 0.06217 0.68479 0.52506 0.0
H521 H 0.12111 0.71723 0.54442 0.0
C522 C 0.16822 0.77788 0.54807 0.0
C523 C 0.17532 0.82543 0.54634 0.0
C524 C 0.03481 0.70806 0.53005 0.0
C525 C 0.09429 0.77636 0.53322 0.0
C526 C 0.98934 0.68985 0.5362 0.0
C527 C 0.95448 0.71947 0.54396 0.0
C528 C 0.04528 0.75606 0.5324 0.0
C529 C 0.96442 0.76707 0.54363 0.0
C530 C 0.12779 0.7531 0.54144 0.0
C531 C 0.14353 0.84633 0.53624 0.0
N532 N 1.00958 0.78413 0.53833 0.0
N533 N 0.10357 0.82192 0.53054 0.0
H534 H 1.01414 0.13618 0.78569 0.0
H535 H 1.00291 0.40726 0.79131 0.0
H536 H 0.12933 0.23807 0.79862 0.0
H537 H 0.88726 0.31002 0.81047 0.0
H538 H 0.04823 0.34237 0.77671 0.0
H539 H 0.96835 0.19797 0.77738 0.0
C540 C 0.02999 0.17145 0.78632 0.0
C541 C 0.07426 0.18299 0.79358 0.0
C542 C 1.01243 0.33552 0.78367 0.0
C543 C 1.02366 0.25234 0.78367 0.0
C544 C 0.98693 0.37225 0.79215 0.0
C545 C 0.94254 0.36339 0.80281 0.0
C546 C 0.99284 0.29019 0.7858 0.0
C547 C 0.92244 0.31784 0.80308 0.0
C548 C 1.00423 0.20636 0.78146 0.0
C549 C 0.09427 0.22856 0.7938 0.0
N550 N 0.94815 0.28266 0.79494 0.0
N551 N 0.06844 0.26194 0.78918 0.0
H552 H 0.63325 0.77532 0.97011 0.0
H553 H 0.36179 0.78351 0.96352 0.0
H554 H 0.56239 0.89832 0.96671 0.0
H555 H 0.43196 0.65868 0.96454 0.0
H556 H 0.4297 0.82797 0.97721 0.0
H557 H 0.55656 0.73542 0.98124 0.0
C558 C 0.60163 0.79412 0.97232 0.0
C559 C 0.60295 0.83909 0.96681 0.0
C560 C 0.42996 0.79074 0.97473 0.0
C561 C 0.51628 0.79451 0.97913 0.0
C562 C 0.39144 0.76551 0.96671 0.0
C563 C 0.39234 0.71776 0.96213 0.0
C564 C 0.46994 0.76806 0.97767 0.0
C565 C 0.43062 0.69575 0.96728 0.0
C566 C 0.55799 0.77156 0.97864 0.0
C567 C 0.56184 0.8628 0.97016 0.0
N568 N 0.46851 0.72125 0.97435 0.0
N569 N 0.51979 0.83988 0.97574 0.0
H570 H 0.67243 0.25039 0.69804 0.0
H571 H 0.42694 0.31928 0.71999 0.0
H572 H 0.56242 0.15725 0.72475 0.0
H573 H 0.54579 0.42173 0.72371 0.0
H574 H 0.47521 0.26207 0.72969 0.0
H575 H 0.63063 0.31562 0.71395 0.0
C576 C 0.6394 0.24383 0.70732 0.0
C577 C 0.61932 0.19875 0.70936 0.0
C578 C 0.49055 0.29733 0.72903 0.0
C579 C 0.57174 0.27273 0.72769 0.0
C580 C 0.46314 0.32968 0.72329 0.0
C581 C 0.48357 0.37415 0.72037 0.0
C582 C 0.53901 0.30941 0.73086 0.0
C583 C 0.52971 0.38704 0.72535 0.0
C584 C 0.61606 0.28098 0.71674 0.0
C585 C 0.57791 0.19176 0.72227 0.0
N586 N 0.55675 0.35418 0.72973 0.0
N587 N 0.5546 0.22853 0.73057 0.0
H588 H 0.13225 0.27489 0.47049 0.0
H589 H 0.86001 0.28255 0.4639 0.0
H590 H 0.06112 0.39802 0.46771 0.0
H591 H 0.9316 0.15793 0.46297 0.0
H592 H 0.9282 0.32672 0.47758 0.0
H593 H 0.05546 0.23427 0.48094 0.0
C594 C 0.10054 0.29356 0.47273 0.0
C595 C 0.10187 0.33884 0.46759 0.0
C596 C 0.92869 0.28958 0.47469 0.0
C597 C 1.01507 0.29341 0.47908 0.0
C598 C 0.89004 0.26453 0.46667 0.0
C599 C 0.89112 0.21693 0.46167 0.0
C600 C 0.96892 0.26685 0.47724 0.0
C601 C 0.92995 0.19485 0.4662 0.0
C602 C 0.05684 0.27057 0.47863 0.0
C603 C 0.0606 0.36233 0.47092 0.0
N604 N 0.96785 0.22017 0.47335 0.0
N605 N 1.01849 0.339 0.47607 0.0
H606 H 0.06197 0.6521 0.22267 0.0
H607 H 0.04529 0.92116 0.22293 0.0
H608 H 0.17218 0.74837 0.19818 0.0
H609 H 0.92934 0.81646 0.21603 0.0
H610 H 0.09415 0.8621 0.23158 0.0
H611 H 1.01759 0.71738 0.23749 0.0
C612 C 0.07699 0.687 0.22065 0.0
C613 C 0.11944 0.69527 0.2085 0.0
C614 C 0.05746 0.85259 0.22884 0.0
C615 C 0.07023 0.76908 0.22577 0.0
C616 C 0.02992 0.88596 0.22383 0.0
C617 C 0.98445 0.87258 0.21811 0.0
C618 C 0.03862 0.80635 0.22825 0.0
C619 C 0.96516 0.82721 0.21972 0.0
C620 C 0.05207 0.72399 0.22928 0.0
C621 C 0.13838 0.74082 0.20676 0.0
N622 N 0.99272 0.79529 0.22439 0.0
N623 N 0.1132 0.77624 0.21508 0.0
H624 H 0.46072 0.03476 0.0602 0.0
H625 H 0.59439 1.02131 0.94863 0.0
H626 H 0.40159 0.08062 0.01017 0.0
H627 H 0.654 0.97801 0.99907 0.0
H628 H 0.5247 0.04407 0.97076 0.0
H629 H 0.53022 1.01229 0.03796 0.0
C630 C 0.46166 0.03924 0.04444 0.0
C631 C 0.42427 0.05924 0.03718 0.0
C632 C 0.55319 0.03009 0.97708 0.0
C633 C 0.50567 0.03435 0.01138 0.0
C634 C 0.5935 1.01744 0.96443 0.0
C635 C 0.63107 0.99805 0.97186 0.0
C636 C 0.54954 1.02322 0.99751 0.0
C637 C 0.62673 0.99337 0.99255 0.0
C638 C 0.5019 0.02677 0.03173 0.0
C639 C 0.42871 0.06471 0.01656 0.0
N640 N 0.5869 1.00552 1.00451 0.0
N641 N 0.46849 0.05265 1.00451 0.0
H642 H 0.77518 0.71069 0.30394 0.0
H643 H 0.78225 0.8321 0.20175 0.0
H644 H 0.71094 0.64562 0.25216 0.0
H645 H 0.8392 0.89964 0.25475 0.0
H646 H 0.75568 0.76433 0.21982 0.0
H647 H 0.80112 0.77839 0.2858 0.0
C648 C 0.76732 0.71004 0.28858 0.0
C649 C 0.74103 0.67158 0.27963 0.0
C650 C 0.77345 0.79409 0.22763 0.0
C651 C 0.77007 0.75071 0.25868 0.0
C652 C 0.78831 0.83324 0.21735 0.0
C653 C 0.81268 0.87243 0.2267 0.0
C654 C 0.7832 0.79326 0.24754 0.0
C655 C 0.81993 0.87093 0.24691 0.0
C656 C 0.78182 0.7492 0.27827 0.0
C657 C 0.73164 0.67376 0.2597 0.0
N658 N 0.80566 0.83211 0.25653 0.0
N659 N 0.74584 0.71251 0.25002 0.0
H660 H 0.13524 0.09439 0.53306 0.0
H661 H 0.92728 0.95106 0.47524 0.0
H662 H 0.104 0.94727 0.53422 0.0
H663 H 0.9372 0.09951 0.48648 0.0
H664 H 0.99418 0.94878 0.49522 0.0
H665 H 0.06566 0.09688 0.51468 0.0
C666 C 0.11397 0.06252 0.5295 0.0
C667 C 0.1263 1.02048 0.53531 0.0
C668 C 0.98162 0.98187 0.49338 0.0
C669 C 0.04581 1.02313 0.51392 0.0
C670 C 0.94336 0.98323 0.48185 0.0
C671 C 0.92602 1.02555 0.47898 0.0
C672 C 1.00365 1.02316 0.50203 0.0
C673 C 0.94859 0.06597 0.48824 0.0
C674 C 0.07394 0.06403 0.51901 0.0
C675 C 0.09643 0.98057 0.53029 0.0
N676 N 0.98614 0.06376 0.49912 0.0
N677 N 0.05814 0.98284 0.51983 0.0
H678 H 0.82299 0.41563 0.7646 0.0
H679 H 0.73883 0.14404 0.74724 0.0
H680 H 0.75926 0.33421 0.81178 0.0
H681 H 0.79757 0.22573 0.6994 0.0
H682 H 0.74852 0.21251 0.77101 0.0
H683 H 0.81345 0.3474 0.74058 0.0
C684 C 0.80596 0.38382 0.76993 0.0
C685 C 0.79142 0.38144 0.79043 0.0
C686 C 0.75982 0.21547 0.75535 0.0
C687 C 0.78167 0.30184 0.76273 0.0
C688 C 0.75482 0.17601 0.74169 0.0
C689 C 0.76789 0.17834 0.72109 0.0
C690 C 0.77793 0.25829 0.74857 0.0
C691 C 0.7875 0.22156 0.71505 0.0
C692 C 0.80104 0.34452 0.75615 0.0
C693 C 0.77054 0.33843 0.79621 0.0
N694 N 0.79166 0.25952 0.72861 0.0
N695 N 0.76661 0.30066 0.78257 0.0
H696 H 0.28501 0.33024 0.70049 0.0
H697 H 0.27372 0.21114 0.80347 0.0
H698 H 0.33757 0.39959 0.75408 0.0
H699 H 0.21326 0.14398 0.75116 0.0
H700 H 0.2997 0.27865 0.78523 0.0
H701 H 0.25842 0.26246 0.71858 0.0
C702 C 0.29009 0.33178 0.7162 0.0
C703 C 0.31322 0.37149 0.72572 0.0
C704 C 0.28122 0.24906 0.77761 0.0
C705 C 0.28374 0.29235 0.7466 0.0
C706 C 0.26671 0.21 0.78799 0.0
C707 C 0.24147 0.17099 0.77891 0.0
C708 C 0.27055 0.24992 0.75782 0.0
C709 C 0.23312 0.17257 0.75882 0.0
C710 C 0.27523 0.29262 0.7265 0.0
C711 C 0.31928 0.37046 0.74608 0.0
N712 N 0.24732 0.21123 0.74906 0.0
N713 N 0.30504 0.33166 0.75571 0.0
H714 H 0.32104 0.91479 0.26527 0.0
H715 H 0.24033 0.64249 0.24728 0.0
H716 H 0.25799 0.83238 0.31222 0.0
H717 H 0.29912 0.72501 0.19974 0.0
H718 H 0.24889 0.71087 0.2712 0.0
H719 H 0.31269 0.84661 0.24114 0.0
C720 C 0.30441 0.88276 0.27053 0.0
C721 C 0.28969 0.88011 0.291 0.0
C722 C 0.26045 0.71403 0.25557 0.0
C723 C 0.28129 0.80056 0.26316 0.0
C724 C 0.25609 0.67463 0.24184 0.0
C725 C 0.26952 0.67721 0.22126 0.0
C726 C 0.27825 0.75707 0.24891 0.0
C727 C 0.2888 0.72065 0.21536 0.0
C728 C 0.30016 0.84349 0.25668 0.0
C729 C 0.26936 0.83682 0.29668 0.0
N730 N 0.29233 0.75854 0.22899 0.0
N731 N 0.26607 0.7991 0.28297 0.0
H732 H 0.09372 0.52147 0.44899 0.0
H733 H 0.95984 0.53606 0.56049 0.0
H734 H 0.15285 0.47844 0.4996 0.0
H735 H 0.9009 0.58211 0.51046 0.0
H736 H 0.02907 0.51307 0.53827 0.0
H737 H 1.02398 0.54456 0.47102 0.0
C738 C 0.09272 0.51773 0.46481 0.0
C739 C 0.13017 0.49832 0.47231 0.0
C740 C 1.00085 0.52768 0.53202 0.0
C741 C 0.04857 0.52386 0.49784 0.0
C742 C 0.96074 0.54045 0.54473 0.0
C743 C 0.92351 0.56072 0.53748 0.0
C744 C 1.00467 0.53519 0.51167 0.0
C745 C 0.92789 0.56598 0.51684 0.0
C746 C 0.05237 0.53057 0.4774 0.0
C747 C 0.12569 0.49382 0.49301 0.0
N748 N 0.96759 0.55364 0.50478 0.0
N749 N 0.08583 0.50614 0.50491 0.0
H750 H 0.63809 0.45444 0.01859 0.0
H751 H 0.42925 0.59871 0.99107 0.0
H752 H 0.61413 0.59234 0.04496 0.0
H753 H 0.44998 0.4588 0.96654 0.0
H754 H 0.49643 0.59706 0.01062 0.0
H755 H 0.57088 0.45619 0.99912 0.0
C756 C 0.61919 0.4853 0.02036 0.0
C757 C 0.63257 0.52324 0.03383 0.0
C758 C 0.48627 0.56666 1.00098 0.0
C759 C 0.55402 0.52522 0.01113 0.0
C760 C 0.44738 0.5674 0.98976 0.0
C761 C 0.43306 0.52881 0.97683 0.0
C762 C 0.51172 0.52707 0.99947 0.0
C763 C 0.45933 0.48971 0.97598 0.0
C764 C 0.5803 0.48612 0.00916 0.0
C765 C 0.6055 0.56191 0.03513 0.0
N766 N 0.49705 0.48992 0.98703 0.0
N767 N 0.56788 0.56183 0.02403 0.0
H768 H 0.28032 0.29135 0.08204 0.0
H769 H 0.26935 0.45324 0.18454 0.0
H770 H 0.33818 0.25442 0.13416 0.0
H771 H 0.26716 0.50708 0.12758 0.0
H772 H 0.28868 0.37848 0.16714 0.0
H773 H 0.2673 0.36791 0.09926 0.0
C774 C 0.28985 0.29909 0.09718 0.0
C775 C 0.31024 0.26609 0.10665 0.0
C776 C 0.28457 0.40678 0.15843 0.0
C777 C 0.29541 0.35411 0.1265 0.0
C778 C 0.27374 0.44962 0.16836 0.0
C779 C 0.26703 0.48684 0.15755 0.0
C780 C 0.28763 0.40046 0.13747 0.0
C781 C 0.27263 0.4797 0.13657 0.0
C782 C 0.28279 0.34303 0.10693 0.0
C783 C 0.32231 0.27857 0.12624 0.0
N784 N 0.28195 0.4373 0.12725 0.0
N785 N 0.31445 0.32131 0.13552 0.0
H786 H 0.55238 0.58126 0.37674 0.0
H787 H 0.28496 0.46561 0.37704 0.0
H788 H 0.49773 0.50756 0.32438 0.0
H789 H 0.35681 0.49386 0.43056 0.0
H790 H 0.35872 0.49106 0.35733 0.0
H791 H 0.47784 0.55851 0.39646 0.0
C792 C 0.5248 0.56015 0.36938 0.0
C793 C 0.53163 0.54615 0.34883 0.0
C794 C 0.35822 0.49196 0.3734 0.0
C795 C 0.44546 0.52066 0.37136 0.0
C796 C 0.31595 0.47782 0.38471 0.0
C797 C 0.31442 0.47764 0.40556 0.0
C798 C 0.39931 0.50672 0.38298 0.0
C799 C 0.35611 0.49342 0.41456 0.0
C800 C 0.48219 0.54719 0.38067 0.0
C801 C 0.49435 0.51889 0.34017 0.0
N802 N 0.39664 0.50735 0.40327 0.0
N803 N 0.45288 0.50736 0.35141 0.0
H804 H 0.36565 0.6773 0.58315 0.0
H805 H 0.32947 0.59 0.69126 0.0
H806 H 0.29258 0.75582 0.63252 0.0
H807 H 0.34794 0.4975 0.63756 0.0
H808 H 0.31596 0.65157 0.67083 0.0
H809 H 0.36138 0.61178 0.60337 0.0
C810 C 0.34854 0.6806 0.59826 0.0
C811 C 0.32962 0.72206 0.6062 0.0
C812 C 0.32216 0.61756 0.66359 0.0
C813 C 0.32492 0.64726 0.6296 0.0
C814 C 0.32973 0.58229 0.67524 0.0
C815 C 0.34008 0.53838 0.66616 0.0
C816 C 0.32582 0.60916 0.64267 0.0
C817 C 0.34018 0.53067 0.64529 0.0
C818 C 0.34583 0.64313 0.60977 0.0
C819 C 0.30739 0.72436 0.62583 0.0
N820 N 0.33399 0.56582 0.63427 0.0
N821 N 0.30623 0.68771 0.63697 0.0
H822 H 0.94811 0.46395 0.88713 0.0
H823 H 0.20603 0.60152 0.88665 0.0
H824 H 1.00868 0.55382 0.84244 0.0
H825 H 0.1467 0.52229 0.93512 0.0
H826 H 0.13589 0.57775 0.86919 0.0
H827 H 1.02046 0.48062 0.90436 0.0
C828 C 0.97639 0.4875 0.88101 0.0
C829 C 0.97207 0.50765 0.86328 0.0
C830 C 0.13809 0.56494 0.88352 0.0
C831 C 0.05544 0.52622 0.88283 0.0
C832 C 0.17843 0.57817 0.89342 0.0
C833 C 0.18235 0.56349 0.91226 0.0
C834 C 0.10059 0.53707 0.89255 0.0
C835 C 0.14534 0.53376 0.92047 0.0
C836 C 1.01781 0.49677 0.89083 0.0
C837 C 1.01011 0.53761 0.85606 0.0
N838 N 0.10569 0.52179 0.91063 0.0
N839 N 0.05002 0.5458 0.8658 0.0
H840 H 0.7919 0.54554 0.88593 0.0
H841 H 0.7219 0.80231 0.87733 0.0
H842 H 0.79039 0.60223 0.82953 0.0
H843 H 0.77666 0.76334 0.92979 0.0
H844 H 0.73558 0.72567 0.86053 0.0
H845 H 0.77313 0.62083 0.90328 0.0
C846 C 0.78651 0.57342 0.87719 0.0
C847 C 0.79248 0.56735 0.8562 0.0
C848 C 0.74478 0.73391 0.87569 0.0
C849 C 0.77153 0.65383 0.876 0.0
C850 C 0.73708 0.77775 0.8853 0.0
C851 C 0.74849 0.7896 0.90499 0.0
C852 C 0.7632 0.70099 0.8859 0.0
C853 C 0.76781 0.75601 0.91455 0.0
C854 C 0.77641 0.61657 0.88711 0.0
C855 C 0.78598 0.60517 0.8457 0.0
N856 N 0.77421 0.71322 0.90499 0.0
N857 N 0.77585 0.64659 0.85567 0.0
H858 H 0.51664 0.57945 0.6692 0.0
H859 H 0.77638 0.53291 0.62003 0.0
H860 H 0.55395 0.43915 0.6554 0.0
H861 H 0.69463 0.62755 0.59584 0.0
H862 H 0.70366 0.50545 0.64046 0.0
H863 H 0.59101 0.6062 0.64978 0.0
C864 C 0.54063 0.55437 0.66226 0.0
C865 C 0.52889 0.507 0.6638 0.0
C866 C 0.7019 0.5322 0.63062 0.0
C867 C 0.61442 0.53738 0.64212 0.0
C868 C 0.74326 0.5478 0.61897 0.0
C869 C 0.74151 0.58208 0.60594 0.0
C870 C 0.65901 0.55233 0.62982 0.0
C871 C 0.69758 0.60052 0.60537 0.0
C872 C 0.58287 0.56959 0.65116 0.0
C873 C 0.56137 0.47597 0.65444 0.0
N874 N 0.65838 0.58589 0.61726 0.0
N875 N 0.60276 0.49165 0.64418 0.0
H876 H 0.75638 0.27718 0.37194 0.0
H877 H 0.72936 0.54542 0.36403 0.0
H878 H 0.71279 0.37286 0.4218 0.0
H879 H 0.70588 0.44376 0.31437 0.0
H880 H 0.74395 0.48394 0.3839 0.0
H881 H 0.75678 0.33908 0.34947 0.0
C882 C 0.74756 0.31133 0.37815 0.0
C883 C 0.73434 0.31994 0.39874 0.0
C884 C 0.73619 0.47508 0.36858 0.0
C885 C 0.7353 0.39071 0.37331 0.0
C886 C 0.72815 0.51027 0.3571 0.0
C887 C 0.71598 0.49998 0.33742 0.0
C888 C 0.73263 0.42889 0.36042 0.0
C889 C 0.71505 0.45346 0.32945 0.0
C890 C 0.7475 0.34646 0.36535 0.0
C891 C 0.72279 0.36468 0.40603 0.0
N892 N 0.72296 0.4196 0.341 0.0
N893 N 0.72373 0.39828 0.39339 0.0
H894 H 0.90751 0.53799 0.07932 0.0
H895 H 0.05589 0.49547 0.1701 0.0
H896 H 0.86992 0.43273 0.11994 0.0
H897 H 0.10778 0.5922 0.12694 0.0
H898 H 0.98506 0.47604 0.1525 0.0
H899 H 0.97778 0.56391 0.09756 0.0
C900 C 0.91356 0.52096 0.09222 0.0
C901 C 0.88302 0.48307 0.09808 0.0
C902 C 1.01192 0.50145 0.14678 0.0
C903 C 0.96298 0.51191 0.11879 0.0
C904 C 0.0526 0.51242 0.15683 0.0
C905 C 0.08811 0.54538 0.15001 0.0
C906 C 1.00621 0.52363 0.12973 0.0
C907 C 0.08146 0.56639 0.13273 0.0
C908 C 0.95381 0.53538 0.10251 0.0
C909 C 0.89276 0.46184 0.11478 0.0
N910 N 0.04133 0.55526 0.12322 0.0
N911 N 0.93167 0.47638 0.12443 0.0
H912 H 0.78244 0.79435 0.58208 0.0
H913 H 0.76402 0.95431 0.68495 0.0
H914 H 0.83682 0.75653 0.63484 0.0
H915 H 0.76533 1.00889 0.62793 0.0
H916 H 0.78487 0.87993 0.66762 0.0
H917 H 0.7682 0.87049 0.59936 0.0
C918 C 0.79101 0.80183 0.59736 0.0
C919 C 0.81075 0.76869 0.607 0.0
C920 C 0.78117 0.90832 0.6589 0.0
C921 C 0.79444 0.85625 0.62693 0.0
C922 C 0.76943 0.95092 0.66879 0.0
C923 C 0.76325 0.98822 0.65792 0.0
C924 C 0.78571 0.90233 0.63792 0.0
C925 C 0.77028 0.98142 0.63696 0.0
C926 C 0.78322 0.84553 0.60716 0.0
C927 C 0.82151 0.78081 0.62678 0.0
N928 N 0.78049 0.93925 0.62767 0.0
N929 N 0.81295 0.82336 0.63611 0.0
H930 H 0.85616 0.99669 0.9309 0.0
H931 H 1.00034 1.00391 0.82277 0.0
H932 H 0.78862 0.96417 0.87646 0.0
H933 H 0.05118 0.07935 0.87555 0.0
H934 H 0.92525 0.98238 0.84244 0.0
H935 H 0.92975 1.02192 0.91121 0.0
C936 C 0.85657 0.99536 0.91482 0.0
C937 C 0.81582 0.97847 0.90538 0.0
C938 C 0.95286 1.00361 0.84971 0.0
C939 C 0.90081 1.00632 0.88261 0.0
C940 C 0.99596 1.01564 0.83852 0.0
C941 C 0.0324 0.04346 0.84748 0.0
C942 C 0.94615 1.01885 0.87014 0.0
C943 C 1.02425 0.05788 0.86796 0.0
C944 C 0.89874 1.00967 0.90356 0.0
C945 C 0.81886 0.9773 0.88443 0.0
N946 N 0.98226 0.04526 0.87857 0.0
N947 N 0.86065 0.99051 0.87377 0.0
H948 H 0.83419 0.99616 0.14 0.0
H949 H 0.79393 0.26274 0.13453 0.0
H950 H 0.83597 0.09515 0.19189 0.0
H951 H 0.85183 0.17414 0.08477 0.0
H952 H 0.79067 0.19854 0.15588 0.0
H953 H 0.82049 0.05774 0.11989 0.0
C954 C 0.83071 0.03061 0.14731 0.0
C955 C 0.83663 0.04037 0.16772 0.0
C956 C 0.80371 0.19316 0.14025 0.0
C957 C 0.82111 0.11137 0.14457 0.0
C958 C 0.80533 0.22962 0.12807 0.0
C959 C 0.82345 0.22375 0.1079 0.0
C960 C 0.81934 0.15031 0.13206 0.0
C961 C 0.83813 0.18025 0.10029 0.0
C962 C 0.82324 0.06587 0.13573 0.0
C963 C 0.83177 0.08594 0.17622 0.0
N964 N 0.83566 0.14527 0.11232 0.0
N965 N 0.8246 0.1198 0.1646 0.0
H966 H 0.70316 0.10043 0.38727 0.0
H967 H 0.44507 0.96333 0.38788 0.0
H968 H 0.64333 1.02241 0.43605 0.0
H969 H 0.50537 0.05376 0.34336 0.0
H970 H 0.51737 0.98004 0.40513 0.0
H971 H 0.63294 0.07673 0.36986 0.0
C972 C 0.67542 0.07738 0.39413 0.0
C973 C 0.67921 0.06304 0.41304 0.0
C974 C 0.51467 0.99632 0.39163 0.0
C975 C 0.59738 0.03668 0.39338 0.0
C976 C 0.47327 0.98703 0.3818 0.0
C977 C 0.4689 1.00731 0.36411 0.0
C978 C 0.55222 1.0259 0.38368 0.0
C979 C 0.50685 0.03744 0.35695 0.0
C980 C 0.63504 0.06419 0.38426 0.0
C981 C 0.64205 0.03363 0.42135 0.0
N982 N 0.54675 0.04562 0.36669 0.0
N983 N 0.60236 1.02168 0.41153 0.0
H984 H 0.21982 0.30127 0.3783 0.0
H985 H 0.28983 0.04437 0.38694 0.0
H986 H 0.27518 0.26254 0.43067 0.0
H987 H 0.28579 0.1005 0.33059 0.0
H988 H 0.27153 0.1198 0.40432 0.0
H989 H 0.23284 0.22442 0.36161 0.0
C990 C 0.235 0.27672 0.38628 0.0
C991 C 0.24676 0.28871 0.40591 0.0
C992 C 0.27414 0.11538 0.38816 0.0
C993 C 0.26075 0.19981 0.38694 0.0
C994 C 0.28394 0.07214 0.37823 0.0
C995 C 0.28908 0.06588 0.35724 0.0
C996 C 0.26872 0.15252 0.37706 0.0
C997 C 0.28201 0.10357 0.34677 0.0
C998 C 0.24232 0.23274 0.37673 0.0
C999 C 0.26606 0.25511 0.41547 0.0
N1000 N 0.27221 0.14506 0.35674 0.0
N1001 N 0.27212 0.21218 0.40597 0.0
H1002 H 0.05571 0.04737 0.18726 0.0
H1003 H 0.20003 0.05984 0.07915 0.0
H1004 H 1.00694 0.97308 0.13386 0.0
H1005 H 0.26839 0.09042 0.13347 0.0
H1006 H 0.12669 0.03408 0.09886 0.0
H1007 H 0.13085 0.07098 0.16783 0.0
C1008 C 0.06054 0.03639 0.17144 0.0
C1009 C 1.02473 1.0082 0.16223 0.0
C1010 C 0.15781 0.04606 0.10649 0.0
C1011 C 0.1108 0.03516 0.13986 0.0
C1012 C 0.19985 0.06066 0.09521 0.0
C1013 C 0.24079 0.07705 0.10459 0.0
C1014 C 0.156 0.04862 0.12743 0.0
C1015 C 0.23799 0.07761 0.12553 0.0
C1016 C 0.10362 0.04958 0.16039 0.0
C1017 C 0.03338 0.99474 0.14167 0.0
N1018 N 0.1963 0.06411 0.13624 0.0
N1019 N 0.0752 1.00847 0.13123 0.0
H1020 H 0.20789 0.94253 0.81302 0.0
H1021 H 0.21292 0.87383 0.92319 0.0
H1022 H 0.22937 0.04299 0.86328 0.0
H1023 H 0.25641 0.7798 0.87271 0.0
H1024 H 0.214 0.93505 0.90088 0.0
H1025 H 0.22263 0.88122 0.83357 0.0
C1026 C 0.2166 0.95191 0.82819 0.0
C1027 C 0.21715 0.99822 0.83637 0.0
C1028 C 0.22371 0.90119 0.89463 0.0
C1029 C 0.23277 0.92798 0.8601 0.0
C1030 C 0.22288 0.86619 0.90737 0.0
C1031 C 0.23456 0.82169 0.8998 0.0
C1032 C 0.23525 0.89163 0.87398 0.0
C1033 C 0.24748 0.81375 0.87915 0.0
C1034 C 0.22483 0.91682 0.83993 0.0
C1035 C 0.22833 1.00798 0.85622 0.0
N1036 N 0.24684 0.84818 0.86689 0.0
N1037 N 0.2349 0.97327 0.86741 0.0
H1038 H 0.54946 1.00069 0.67175 0.0
H1039 H 0.40684 0.03548 0.5782 0.0
H1040 H 0.60456 0.09228 0.62693 0.0
H1041 H 0.36089 0.94053 0.6226 0.0
H1042 H 0.47651 0.06222 0.59664 0.0
H1043 H 0.47826 0.98179 0.65433 0.0
C1044 C 0.5468 1.01662 0.65816 0.0
C1045 C 0.58334 0.04799 0.65082 0.0
C1046 C 0.45077 0.03596 0.60244 0.0
C1047 C 0.50102 0.02683 0.63072 0.0
C1048 C 0.4108 1.02117 0.59204 0.0
C1049 C 0.37805 0.98592 0.59895 0.0
C1050 C 0.45765 1.01532 0.61981 0.0
C1051 C 0.38533 0.9678 0.61675 0.0
C1052 C 0.50588 1.00599 0.64822 0.0
C1053 C 0.57744 0.06773 0.63314 0.0
N1054 N 0.42419 0.98247 0.62645 0.0
N1055 N 0.53713 0.05688 0.62372 0.0
H1056 H 0.29938 0.12822 0.98456 0.0
H1057 H 0.176 0.25621 0.90711 0.0
H1058 H 0.1986 0.23007 1.0028 0.0
H1059 H 0.24027 0.12737 0.89207 0.0
H1060 H 0.19555 0.25607 0.94161 0.0
H1061 H 0.28957 0.13654 0.94964 0.0
C1062 C 0.2755 0.15258 0.98118 0.0
C1063 C 0.24943 0.1782 0.9965 0.0
C1064 C 0.20546 0.22795 0.9307 0.0
C1065 C 0.23797 0.18787 0.95678 0.0
C1066 C 0.19456 0.22818 0.91108 0.0
C1067 C 0.20611 0.1915 0.89692 0.0
C1068 C 0.22856 0.19107 0.93598 0.0
C1069 C 0.23 0.15582 0.9027 0.0
C1070 C 0.26972 0.15716 0.9613 0.0
C1071 C 0.21867 0.20911 0.99138 0.0
N1072 N 0.24043 0.15645 0.92181 0.0
N1073 N 0.21373 0.21309 0.9719 0.0
H1074 H 0.7558 0.37654 0.13827 0.0
H1075 H 0.57038 0.49627 0.21916 0.0
H1076 H 0.66211 0.47349 0.12321 0.0
H1077 H 0.70355 0.45594 0.23418 0.0
H1078 H 0.59469 0.47534 0.18382 0.0
H1079 H 0.72758 0.39231 0.17354 0.0
C1080 C 0.72886 0.40073 0.14235 0.0
C1081 C 0.71126 0.42385 0.12781 0.0
C1082 C 0.6185 0.47096 0.19486 0.0
C1083 C 0.67897 0.4418 0.16805 0.0
C1084 C 0.60457 0.48254 0.21499 0.0
C1085 C 0.63505 0.47757 0.22952 0.0
C1086 C 0.66289 0.45358 0.18928 0.0
C1087 C 0.67927 0.46039 0.22335 0.0
C1088 C 0.7131 0.4099 0.16248 0.0
C1089 C 0.67667 0.45505 0.13397 0.0
N1090 N 0.69184 0.44869 0.20365 0.0
N1091 N 0.66151 0.46305 0.15366 0.0
H1092 H 0.35268 0.97101 0.51242 0.0
H1093 H 0.28929 0.8097 0.41721 0.0
H1094 H 0.32831 0.82326 0.51381 0.0
H1095 H 0.3706 0.94169 0.41359 0.0
H1096 H 0.30285 0.81297 0.45255 0.0
H1097 H 0.36091 0.96071 0.47596 0.0
C1098 C 0.35035 0.93632 0.50499 0.0
C1099 C 0.33984 0.89794 0.51603 0.0
C1100 C 0.31797 0.84095 0.44388 0.0
C1101 C 0.34737 0.88593 0.47446 0.0
C1102 C 0.31011 0.83918 0.42374 0.0
C1103 C 0.32783 0.87589 0.41242 0.0
C1104 C 0.34335 0.87987 0.45273 0.0
C1105 C 0.35469 0.91324 0.42173 0.0
C1106 C 0.3548 0.93042 0.48421 0.0
C1107 C 0.33677 0.8537 0.50576 0.0
N1108 N 0.36115 0.91445 0.44134 0.0
N1109 N 0.33946 0.84889 0.48548 0.0
H1110 H 1.01929 0.64503 0.65446 0.0
H1111 H 0.88659 0.4998 0.74101 0.0
H1112 H 0.88474 0.56477 0.65061 0.0
H1113 H 0.99822 0.60769 0.75116 0.0
H1114 H 0.89665 0.51145 0.7056 0.0
H1115 H 1.02217 0.62067 0.688 0.0
C1116 C 0.99062 0.62205 0.66067 0.0
C1117 C 0.9514 0.60736 0.65003 0.0
C1118 C 0.9192 0.53234 0.71556 0.0
C1119 C 0.95449 0.57928 0.68795 0.0
C1120 C 0.91374 0.52546 0.73574 0.0
C1121 C 0.94126 0.55325 0.74904 0.0
C1122 C 0.95244 0.56719 0.70865 0.0
C1123 C 0.97565 0.58626 0.74142 0.0
C1124 C 0.99217 0.60829 0.67973 0.0
C1125 C 0.91504 0.57763 0.65858 0.0
N1126 N 0.98009 0.59259 0.72168 0.0
N1127 N 0.91741 0.56463 0.67708 0.0
H1128 H 0.89668 0.78957 0.09871 0.0
H1129 H 0.753 0.91605 0.0273 0.0
H1130 H 0.81759 0.90799 0.11802 0.0
H1131 H 0.86336 0.82642 1.00517 0.0
H1132 H 0.76409 0.90137 0.06142 0.0
H1133 H 0.87265 0.79083 0.06485 0.0
C1134 C 0.87389 0.81541 0.0958 0.0
C1135 C 0.85968 0.84918 0.11091 0.0
C1136 C 0.7857 0.88473 0.04907 0.0
C1137 C 0.832 0.8508 0.07271 0.0
C1138 C 0.77922 0.89295 0.02964 0.0
C1139 C 0.80778 0.87294 0.01348 0.0
C1140 C 0.82076 0.85605 0.0523 0.0
C1141 C 0.84138 0.84333 0.01729 0.0
C1142 C 0.86038 0.8163 0.07658 0.0
C1143 C 0.8301 0.88202 0.10659 0.0
N1144 N 0.84712 0.8359 0.03634 0.0
N1145 N 0.81736 0.88212 0.08786 0.0
H1146 H 0.33694 0.69137 0.8747 0.0
H1147 H 0.42537 0.507 0.78613 0.0
H1148 H 0.37633 0.55663 0.88454 0.0
H1149 H 0.39321 0.64505 0.77772 0.0
H1150 H 0.41139 0.52521 0.8223 0.0
H1151 H 0.3626 0.67635 0.83926 0.0
C1152 C 0.35147 0.65879 0.86944 0.0
C1153 C 0.35422 0.6251 0.8826 0.0
C1154 C 0.40772 0.55157 0.81251 0.0
C1155 C 0.38318 0.60738 0.84191 0.0
C1156 C 0.41537 0.54109 0.79185 0.0
C1157 C 0.41032 0.57446 0.77881 0.0
C1158 C 0.39467 0.59567 0.82018 0.0
C1159 C 0.39804 0.61834 0.78712 0.0
C1160 C 0.36605 0.65017 0.84917 0.0
C1161 C 0.3735 0.58356 0.87492 0.0
N1162 N 0.39042 0.62753 0.80723 0.0
N1163 N 0.38684 0.57569 0.85504 0.0
H1164 H 0.68665 0.10758 0.59766 0.0
H1165 H 0.73827 0.22876 0.49601 0.0
H1166 H 0.76983 0.2385 0.5934 0.0
H1167 H 0.71093 0.08158 0.49868 0.0
H1168 H 0.72991 0.23906 0.53271 0.0
H1169 H 0.67733 0.10392 0.56229 0.0
C1170 C 0.7034 0.13549 0.58938 0.0
C1171 C 0.73012 0.17302 0.59864 0.0
C1172 C 0.72485 0.20466 0.5252 0.0
C1173 C 0.71796 0.16943 0.55796 0.0
C1174 C 0.729 0.19881 0.50433 0.0
C1175 C 0.72531 0.15423 0.49441 0.0
C1176 C 0.71625 0.16569 0.53607 0.0
C1177 C 0.71413 0.11648 0.50582 0.0
C1178 C 0.69751 0.1335 0.56913 0.0
C1179 C 0.74912 0.20885 0.58698 0.0
N1180 N 0.71023 0.12304 0.52606 0.0
N1181 N 0.74286 0.20608 0.5672 0.0
H1182 H 0.02988 0.4297 0.36008 0.0
H1183 H 0.17211 0.56748 0.27339 0.0
H1184 H 0.16788 0.50377 0.36427 0.0
H1185 H 0.05568 0.46423 0.2644 0.0
H1186 H 0.15824 0.56122 0.30935 0.0
H1187 H 1.02673 0.45919 0.32775 0.0
C1188 C 0.0593 0.45248 0.35435 0.0
C1189 C 0.09978 0.46314 0.36472 0.0
C1190 C 0.13535 0.54038 0.29951 0.0
C1191 C 0.09606 0.49742 0.3279 0.0
C1192 C 0.14311 0.54408 0.27902 0.0
C1193 C 0.11548 0.51572 0.26592 0.0
C1194 C 0.09963 0.50824 0.30691 0.0
C1195 C 0.07848 0.48586 0.27399 0.0
C1196 C 0.05735 0.46945 0.33594 0.0
C1197 C 0.13608 0.49417 0.35685 0.0
N1198 N 0.07188 0.48258 0.29398 0.0
N1199 N 0.13365 0.50967 0.33876 0.0
H1200 H 0.63048 0.64618 0.40621 0.0
H1201 H 0.81055 0.70563 0.48955 0.0
H1202 H 0.75763 0.73772 0.39783 0.0
H1203 H 0.66712 0.64517 0.5014 0.0
H1204 H 0.79464 0.71376 0.45519 0.0
H1205 H 0.64537 0.64235 0.44085 0.0
C1206 C 0.66144 0.66563 0.41177 0.0
C1207 C 0.69303 0.69213 0.39925 0.0
C1208 C 0.76666 0.69887 0.46536 0.0
C1209 C 0.7105 0.68784 0.43871 0.0
C1210 C 0.77586 0.69384 0.48485 0.0
C1211 C 0.74002 0.67476 0.49824 0.0
C1212 C 0.72152 0.68418 0.45928 0.0
C1213 C 0.69548 0.66054 0.49157 0.0
C1214 C 0.66988 0.66359 0.43151 0.0
C1215 C 0.73234 0.71719 0.40713 0.0
N1216 N 0.68752 0.66538 0.47252 0.0
N1217 N 0.74029 0.7141 0.42639 0.0
H1218 H 0.15577 0.96488 0.62093 0.0
H1219 H 0.20683 0.95538 0.73354 0.0
H1220 H 0.25523 0.87554 0.63757 0.0
H1221 H 0.07226 0.99073 0.71787 0.0
H1222 H 0.23009 0.93288 0.69807 0.0
H1223 H 0.12811 0.98102 0.65634 0.0
C1224 C 0.1714 0.94832 0.632 0.0
C1225 C 0.20778 0.91883 0.62632 0.0
C1226 C 0.19535 0.94528 0.70246 0.0
C1227 C 0.17715 0.93785 0.6667 0.0
C1228 C 0.1823 0.95833 0.7226 0.0
C1229 C 0.13757 0.97458 0.72855 0.0
C1230 C 0.16375 0.94951 0.68822 0.0
C1231 C 0.10682 0.97772 0.71389 0.0
C1232 C 0.15566 0.95754 0.65217 0.0
C1233 C 0.22692 0.89834 0.64128 0.0
N1234 N 0.12062 0.96565 0.69436 0.0
N1235 N 0.21177 0.90868 0.66081 0.0
H1236 H 0.87178 0.4447 0.91302 0.0
H1237 H 0.82409 0.32266 0.01432 0.0
H1238 H 0.78974 0.3132 0.91722 0.0
H1239 H 0.84704 0.47025 0.01181 0.0
H1240 H 0.83247 0.31254 0.97766 0.0
H1241 H 0.88222 0.44797 0.94826 0.0
C1242 C 0.85548 0.41659 0.9213 0.0
C1243 C 0.82859 0.37909 0.91212 0.0
C1244 C 0.83654 0.347 0.9852 0.0
C1245 C 0.84206 0.38223 0.95257 0.0
C1246 C 0.83234 0.35279 0.00605 0.0
C1247 C 0.83472 0.39739 0.016 0.0
C1248 C 0.84394 0.38606 0.9744 0.0
C1249 C 0.84475 0.43533 1.00465 0.0
C1250 C 0.86203 0.41835 0.94144 0.0
C1251 C 0.81039 0.34288 0.92367 0.0
N1252 N 0.84875 0.42882 0.98442 0.0
N1253 N 0.8172 0.34546 0.94338 0.0
H1254 H 0.38114 1.00088 0.2421 0.0
H1255 H 0.51669 0.14186 0.15476 0.0
H1256 H 0.49373 0.10792 0.25198 0.0
H1257 H 0.37999 0.06531 0.15145 0.0
H1258 H 0.51841 0.11881 0.1886 0.0
H1259 H 0.39094 1.01242 0.20667 0.0
C1260 C 0.40842 0.02635 0.23676 0.0
C1261 C 0.43637 0.05386 0.24998 0.0
C1262 C 0.48818 0.107 0.18039 0.0
C1263 C 0.4473 0.06764 0.20958 0.0
C1264 C 0.48727 0.11999 0.16116 0.0
C1265 C 0.44785 0.10591 0.15056 0.0
C1266 C 0.44965 0.07931 0.18881 0.0
C1267 C 0.41052 0.07766 0.15936 0.0
C1268 C 0.41373 0.03317 0.21657 0.0
C1269 C 0.47089 0.08666 0.24229 0.0
N1270 N 0.4123 0.0653 0.17802 0.0
N1271 N 0.47525 0.09289 0.22254 0.0
H1272 H 0.39949 0.28744 0.59845 0.0
H1273 H 0.25492 0.41673 0.52824 0.0
H1274 H 0.32537 0.40885 0.61813 0.0
H1275 H 0.36298 0.32528 0.50521 0.0
H1276 H 0.26786 0.40232 0.56223 0.0
H1277 H 0.3741 0.28934 0.56483 0.0
C1278 C 0.37757 0.31413 0.59567 0.0
C1279 C 0.36513 0.34848 0.61082 0.0
C1280 C 0.28854 0.38521 0.54971 0.0
C1281 C 0.33579 0.35076 0.5729 0.0
C1282 C 0.28099 0.39327 0.53037 0.0
C1283 C 0.30841 0.37269 0.51398 0.0
C1284 C 0.32345 0.35605 0.55263 0.0
C1285 C 0.34187 0.34262 0.5175 0.0
C1286 C 0.36326 0.31535 0.57659 0.0
C1287 C 0.33655 0.38238 0.60667 0.0
N1288 N 0.34861 0.3353 0.53647 0.0
N1289 N 0.32294 0.38275 0.58809 0.0
H1290 H 0.83776 0.18931 0.3752 0.0
H1291 H 0.92423 1.00414 0.28664 0.0
H1292 H 0.87191 0.05273 0.38502 0.0
H1293 H 0.89812 0.14414 0.27854 0.0
H1294 H 0.90888 1.02168 0.3228 0.0
H1295 H 0.86464 0.17434 0.33991 0.0
C1296 C 0.85136 0.15629 0.36997 0.0
C1297 C 0.85232 0.12211 0.38308 0.0
C1298 C 0.90686 0.0486 0.31308 0.0
C1299 C 0.88274 0.10449 0.34252 0.0
C1300 C 0.9153 0.03852 0.29242 0.0
C1301 C 0.91231 0.07263 0.27946 0.0
C1302 C 0.89509 0.09305 0.32082 0.0
C1303 C 0.90135 0.11683 0.28787 0.0
C1304 C 0.86667 0.14772 0.34977 0.0
C1305 C 0.8705 0.08004 0.37543 0.0
N1306 N 0.8929 0.12563 0.30796 0.0
N1307 N 0.88459 0.07224 0.35561 0.0
H1308 H 0.27499 0.73919 0.09396 0.0
H1309 H 0.21302 0.57878 0.99774 0.0
H1310 H 0.19279 0.60744 0.09684 0.0
H1311 H 0.2421 0.72616 0.9966 0.0
H1312 H 0.20501 0.58866 0.03421 0.0
H1313 H 0.26461 0.7356 0.05836 0.0
C1314 C 0.25463 0.70965 0.08725 0.0
C1315 C 0.23545 0.67327 0.09856 0.0
C1316 C 0.2122 0.619 0.02603 0.0
C1317 C 0.22374 0.66891 0.05775 0.0
C1318 C 0.21653 0.61336 1.00523 0.0
C1319 C 0.22806 0.65173 0.99423 0.0
C1320 C 0.22073 0.6632 0.03589 0.0
C1321 C 0.23269 0.69577 1.0046 0.0
C1322 C 0.24864 0.70771 0.06691 0.0
C1323 C 0.20953 0.63579 0.08885 0.0
N1324 N 0.22995 0.70028 0.02491 0.0
N1325 N 0.20486 0.63444 0.06903 0.0
H1326 H 0.52914 0.93211 0.86057 0.0
H1327 H 0.66939 0.07062 0.77379 0.0
H1328 H 0.66723 1.00623 0.8643 0.0
H1329 H 0.55213 0.96806 0.76522 0.0
H1330 H 0.656 0.06465 0.80977 0.0
H1331 H 0.52469 0.96269 0.82857 0.0
C1332 C 0.55829 0.95516 0.85481 0.0
C1333 C 0.59922 0.96547 0.86492 0.0
C1334 C 0.6328 0.04392 0.80002 0.0
C1335 C 0.59403 1.00095 0.82848 0.0
C1336 C 0.64029 0.04745 0.77951 0.0
C1337 C 0.61233 1.01913 0.76652 0.0
C1338 C 0.59704 1.01198 0.80754 0.0
C1339 C 0.5752 0.98961 0.77472 0.0
C1340 C 0.5556 0.97275 0.83659 0.0
C1341 C 0.63515 0.99687 0.85706 0.0
N1342 N 0.5689 0.98644 0.79473 0.0
N1343 N 0.63202 1.01293 0.83914 0.0
loop_
_geom_bond_atom_site_label_1
_geom_bond_atom_site_label_2
_geom_bond_distance
_geom_bond_site_symmetry_2
_ccdc_geom_bond_type
Co0 N5 2.057 . S
Co0 O17 2.021 . S
Co0 O20 2.062 . S
Co0 O24 2.117 . S
Co0 O25 2.020 . S
C1 O21 1.259 . S
C1 O24 1.258 . S
Co2 N11 2.057 . S
Co2 O18 2.117 . S
Co2 O19 2.020 . S
Co2 O21 2.021 . S
Co2 O26 2.062 . S
C3 N5 1.316 . S
C3 N6 1.347 . S
C3 H8 0.931 . S
C4 N5 1.375 . S
C4 C7 1.350 . S
C4 H9 0.930 . S
N5 Co0 2.057 . S
N5 C3 1.316 . S
N5 C4 1.375 . S
N6 C3 1.347 . S
N6 C7 1.373 . S
C7 C4 1.350 . S
C7 N6 1.373 . S
C7 H28 0.931 . S
H8 C3 0.931 . S
H9 C4 0.930 . S
C10 O17 1.259 . S
C10 O18 1.258 . S
N11 Co2 2.057 . S
N11 C12 1.316 . S
N11 C13 1.375 . S
C12 N11 1.316 . S
C12 N14 1.347 . S
C12 H23 0.931 . S
C13 N11 1.375 . S
C13 C15 1.350 . S
C13 H22 0.930 . S
N14 C12 1.347 . S
N14 C15 1.373 . S
C15 C13 1.350 . S
C15 N14 1.373 . S
C15 H29 0.931 . S
C16 O19 1.256 . S
C16 O20 1.255 . S
O17 Co0 2.021 . S
O17 C10 1.259 . S
O18 Co2 2.117 . S
O18 C10 1.258 . S
O19 Co2 2.020 . S
O19 C16 1.256 . S
O20 Co0 2.062 . S
O20 C16 1.255 . S
O21 C1 1.259 . S
O21 Co2 2.021 . S
H22 C13 0.930 . S
H23 C12 0.931 . S
O24 Co0 2.117 . S
O24 C1 1.258 . S
O25 Co0 2.020 . S
O25 C27 1.256 . S
O26 Co2 2.062 . S
O26 C27 1.255 . S
C27 O25 1.256 . S
C27 O26 1.255 . S
H28 C7 0.931 . S
H29 C15 0.931 . S
Co30 N35 2.057 . S
Co30 O47 2.021 . S
Co30 O50 2.062 . S
Co30 O54 2.117 . S
Co30 O55 2.020 . S
C31 O51 1.259 . S
C31 O54 1.258 . S
Co32 N41 2.057 . S
Co32 O48 2.117 . S
Co32 O49 2.020 . S
Co32 O51 2.021 . S
Co32 O56 2.062 . S
C33 N35 1.316 . S
C33 N36 1.347 . S
C33 H38 0.931 . S
C34 N35 1.375 . S
C34 C37 1.350 . S
C34 H39 0.930 . S
N35 Co30 2.057 . S
N35 C33 1.316 . S
N35 C34 1.375 . S
N36 C33 1.347 . S
N36 C37 1.373 . S
C37 C34 1.350 . S
C37 N36 1.373 . S
C37 H58 0.931 . S
H38 C33 0.931 . S
H39 C34 0.930 . S
C40 O47 1.259 . S
C40 O48 1.258 . S
N41 Co32 2.057 . S
N41 C42 1.316 . S
N41 C43 1.375 . S
C42 N41 1.316 . S
C42 N44 1.347 . S
C42 H53 0.931 . S
C43 N41 1.375 . S
C43 C45 1.350 . S
C43 H52 0.930 . S
N44 C42 1.347 . S
N44 C45 1.373 . S
C45 C43 1.350 . S
C45 N44 1.373 . S
C45 H59 0.931 . S
C46 O49 1.256 . S
C46 O50 1.255 . S
O47 Co30 2.021 . S
O47 C40 1.259 . S
O48 Co32 2.117 . S
O48 C40 1.258 . S
O49 Co32 2.020 . S
O49 C46 1.256 . S
O50 Co30 2.062 . S
O50 C46 1.255 . S
O51 C31 1.259 . S
O51 Co32 2.021 . S
H52 C43 0.930 . S
H53 C42 0.931 . S
O54 Co30 2.117 . S
O54 C31 1.258 . S
O55 Co30 2.020 . S
O55 C57 1.256 . S
O56 Co32 2.062 . S
O56 C57 1.255 . S
C57 O55 1.256 . S
C57 O56 1.255 . S
H58 C37 0.931 . S
H59 C45 0.931 . S
Co60 N65 2.057 . S
Co60 O77 2.021 . S
Co60 O80 2.062 . S
Co60 O84 2.117 . S
Co60 O85 2.020 . S
C61 O81 1.259 . S
C61 O84 1.258 . S
Co62 N71 2.057 . S
Co62 O78 2.117 . S
Co62 O79 2.020 . S
Co62 O81 2.021 . S
Co62 O86 2.062 . S
C63 N65 1.316 . S
C63 N66 1.347 . S
C63 H68 0.931 . S
C64 N65 1.375 . S
C64 C67 1.350 . S
C64 H69 0.930 . S
N65 Co60 2.057 . S
N65 C63 1.316 . S
N65 C64 1.375 . S
N66 C63 1.347 . S
N66 C67 1.373 . S
C67 C64 1.350 . S
C67 N66 1.373 . S
C67 H88 0.931 . S
H68 C63 0.931 . S
H69 C64 0.930 . S
C70 O77 1.259 . S
C70 O78 1.258 . S
N71 Co62 2.057 . S
N71 C72 1.316 . S
N71 C73 1.375 . S
C72 N71 1.316 . S
C72 N74 1.347 . S
C72 H83 0.931 . S
C73 N71 1.375 . S
C73 C75 1.365 . S
C73 H82 0.930 . S
N74 C72 1.347 . S
N74 C75 1.381 . S
C75 C73 1.365 . S
C75 N74 1.381 . S
C75 H89 0.912 1_565 S
C76 O79 1.256 . S
C76 O80 1.255 . S
O77 Co60 2.021 . S
O77 C70 1.259 . S
O78 Co62 2.117 . S
O78 C70 1.258 . S
O79 Co62 2.020 . S
O79 C76 1.256 . S
O80 Co60 2.062 . S
O80 C76 1.255 . S
O81 C61 1.259 . S
O81 Co62 2.021 . S
H82 C73 0.930 . S
H83 C72 0.931 . S
O84 Co60 2.117 . S
O84 C61 1.258 . S
O85 Co60 2.020 . S
O85 C87 1.256 . S
O86 Co62 2.062 . S
O86 C87 1.255 . S
C87 O85 1.256 . S
C87 O86 1.255 . S
H88 C67 0.931 . S
H89 C75 0.912 1_545 S
Co90 N95 2.057 . S
Co90 O107 2.021 . S
Co90 O110 2.062 . S
Co90 O114 2.117 . S
Co90 O115 2.020 . S
C91 O111 1.259 . S
C91 O114 1.258 . S
Co92 N101 2.057 . S
Co92 O108 2.117 . S
Co92 O109 2.020 . S
Co92 O111 2.021 . S
Co92 O116 2.062 . S
C93 N95 1.316 . S
C93 N96 1.347 . S
C93 H98 0.931 . S
C94 N95 1.375 . S
C94 C97 1.350 . S
C94 H99 0.930 . S
N95 Co90 2.057 . S
N95 C93 1.316 . S
N95 C94 1.375 . S
N96 C93 1.347 . S
N96 C97 1.373 . S
C97 C94 1.350 . S
C97 N96 1.373 . S
C97 H118 0.931 . S
H98 C93 0.931 . S
H99 C94 0.930 . S
C100 O107 1.259 . S
C100 O108 1.258 . S
N101 Co92 2.057 . S
N101 C102 1.316 . S
N101 C103 1.375 . S
C102 N101 1.316 . S
C102 N104 1.347 . S
C102 H113 0.931 . S
C103 N101 1.375 . S
C103 C105 1.350 . S
C103 H112 0.930 . S
N104 C102 1.347 . S
N104 C105 1.373 . S
C105 C103 1.350 . S
C105 N104 1.373 . S
C105 H119 0.931 . S
C106 O109 1.256 . S
C106 O110 1.255 . S
O107 Co90 2.021 . S
O107 C100 1.259 . S
O108 Co92 2.117 . S
O108 C100 1.258 . S
O109 Co92 2.020 . S
O109 C106 1.256 . S
O110 Co90 2.062 . S
O110 C106 1.255 . S
O111 C91 1.259 . S
O111 Co92 2.021 . S
H112 C103 0.930 . S
H113 C102 0.931 . S
O114 Co90 2.117 . S
O114 C91 1.258 . S
O115 Co90 2.020 . S
O115 C117 1.256 . S
O116 Co92 2.062 . S
O116 C117 1.255 . S
C117 O115 1.256 . S
C117 O116 1.255 . S
H118 C97 0.931 . S
H119 C105 0.931 . S
Co120 N125 2.057 . S
Co120 O137 2.021 . S
Co120 O140 2.062 . S
Co120 O144 2.117 . S
Co120 O145 2.020 . S
C121 O141 1.259 . S
C121 O144 1.258 . S
Co122 N131 2.057 . S
Co122 O138 2.117 . S
Co122 O139 2.020 . S
Co122 O141 2.021 . S
Co122 O146 2.062 . S
C123 N125 1.316 . S
C123 N126 1.347 . S
C123 H128 0.931 . S
C124 N125 1.375 . S
C124 C127 1.350 . S
C124 H129 0.930 . S
N125 Co120 2.057 . S
N125 C123 1.316 . S
N125 C124 1.375 . S
N126 C123 1.347 . S
N126 C127 1.373 . S
C127 C124 1.350 . S
C127 N126 1.373 . S
C127 H148 0.931 . S
H128 C123 0.931 . S
H129 C124 0.930 . S
C130 O137 1.259 . S
C130 O138 1.258 . S
N131 Co122 2.057 . S
N131 C132 1.316 . S
N131 C133 1.375 . S
C132 N131 1.316 . S
C132 N134 1.347 . S
C132 H143 0.931 . S
C133 N131 1.375 . S
C133 C135 1.350 . S
C133 H142 0.930 . S
N134 C132 1.347 . S
N134 C135 1.373 . S
C135 C133 1.350 . S
C135 N134 1.373 . S
C135 H149 0.931 . S
C136 O139 1.256 . S
C136 O140 1.255 . S
O137 Co120 2.021 . S
O137 C130 1.259 . S
O138 Co122 2.117 . S
O138 C130 1.258 . S
O139 Co122 2.020 . S
O139 C136 1.256 . S
O140 Co120 2.062 . S
O140 C136 1.255 . S
O141 C121 1.259 . S
O141 Co122 2.021 . S
H142 C133 0.930 . S
H143 C132 0.931 . S
O144 Co120 2.117 . S
O144 C121 1.258 . S
O145 Co120 2.020 . S
O145 C147 1.256 . S
O146 Co122 2.062 . S
O146 C147 1.255 . S
C147 O145 1.256 . S
C147 O146 1.255 . S
H148 C127 0.931 . S
H149 C135 0.931 . S
Co150 N155 2.057 . S
Co150 O167 2.021 . S
Co150 O170 2.062 . S
Co150 O174 2.117 . S
Co150 O175 2.020 . S
C151 O171 1.259 . S
C151 O174 1.258 . S
Co152 N161 2.057 . S
Co152 O168 2.117 . S
Co152 O169 2.020 . S
Co152 O171 2.021 . S
Co152 O176 2.062 . S
C153 N155 1.316 . S
C153 N156 1.347 . S
C153 H158 0.931 . S
C154 N155 1.375 . S
C154 C157 1.350 . S
C154 H159 0.930 . S
N155 Co150 2.057 . S
N155 C153 1.316 . S
N155 C154 1.375 . S
N156 C153 1.347 . S
N156 C157 1.373 . S
C157 C154 1.350 . S
C157 N156 1.373 . S
C157 H178 0.931 . S
H158 C153 0.931 . S
H159 C154 0.930 . S
C160 O167 1.259 . S
C160 O168 1.258 . S
N161 Co152 2.057 . S
N161 C162 1.316 . S
N161 C163 1.375 . S
C162 N161 1.316 . S
C162 N164 1.347 . S
C162 H173 0.931 . S
C163 N161 1.375 . S
C163 C165 1.350 . S
C163 H172 0.930 . S
N164 C162 1.347 . S
N164 C165 1.373 . S
C165 C163 1.350 . S
C165 N164 1.373 . S
C165 H179 0.931 . S
C166 O169 1.256 . S
C166 O170 1.255 . S
O167 Co150 2.021 . S
O167 C160 1.259 . S
O168 Co152 2.117 . S
O168 C160 1.258 . S
O169 Co152 2.020 . S
O169 C166 1.256 . S
O170 Co150 2.062 . S
O170 C166 1.255 . S
O171 C151 1.259 . S
O171 Co152 2.021 . S
H172 C163 0.930 . S
H173 C162 0.931 . S
O174 Co150 2.117 . S
O174 C151 1.258 . S
O175 Co150 2.020 . S
O175 C177 1.256 . S
O176 Co152 2.062 . S
O176 C177 1.255 . S
C177 O175 1.256 . S
C177 O176 1.255 . S
H178 C157 0.931 . S
H179 C165 0.931 . S
Co180 N185 2.057 . S
Co180 O197 2.021 . S
Co180 O200 2.062 . S
Co180 O204 2.117 . S
Co180 O205 2.020 . S
C181 O201 1.259 . S
C181 O204 1.258 . S
Co182 N191 2.057 . S
Co182 O198 2.117 . S
Co182 O199 2.020 . S
Co182 O201 2.021 . S
Co182 O206 2.062 . S
C183 N185 1.316 . S
C183 N186 1.347 . S
C183 H188 0.931 . S
C184 N185 1.375 . S
C184 C187 1.365 . S
C184 H189 0.930 . S
N185 Co180 2.057 . S
N185 C183 1.316 . S
N185 C184 1.375 . S
N186 C183 1.347 . S
N186 C187 1.381 . S
C187 C184 1.365 . S
C187 N186 1.381 . S
C187 H208 0.912 1_545 S
H188 C183 0.931 . S
H189 C184 0.930 . S
C190 O197 1.259 . S
C190 O198 1.258 . S
N191 Co182 2.057 . S
N191 C192 1.316 . S
N191 C193 1.375 . S
C192 N191 1.316 . S
C192 N194 1.347 . S
C192 H203 0.931 . S
C193 N191 1.375 . S
C193 C195 1.350 . S
C193 H202 0.930 . S
N194 C192 1.347 . S
N194 C195 1.373 . S
C195 C193 1.350 . S
C195 N194 1.373 . S
C195 H209 0.931 . S
C196 O199 1.256 . S
C196 O200 1.255 . S
O197 Co180 2.021 . S
O197 C190 1.259 . S
O198 Co182 2.117 . S
O198 C190 1.258 . S
O199 Co182 2.020 . S
O199 C196 1.256 . S
O200 Co180 2.062 . S
O200 C196 1.255 . S
O201 C181 1.259 . S
O201 Co182 2.021 . S
H202 C193 0.930 . S
H203 C192 0.931 . S
O204 Co180 2.117 . S
O204 C181 1.258 . S
O205 Co180 2.020 . S
O205 C207 1.256 . S
O206 Co182 2.062 . S
O206 C207 1.255 . S
C207 O205 1.256 . S
C207 O206 1.255 . S
H208 C187 0.912 1_565 S
H209 C195 0.931 . S
Co210 N215 2.057 . S
Co210 O227 2.021 . S
Co210 O230 2.062 . S
Co210 O234 2.117 . S
Co210 O235 2.020 . S
C211 O231 1.259 . S
C211 O234 1.258 . S
Co212 N221 2.057 . S
Co212 O228 2.117 . S
Co212 O229 2.020 . S
Co212 O231 2.021 . S
Co212 O236 2.062 . S
C213 N215 1.316 . S
C213 N216 1.347 . S
C213 H218 0.931 . S
C214 N215 1.375 . S
C214 C217 1.350 . S
C214 H219 0.930 . S
N215 Co210 2.057 . S
N215 C213 1.316 . S
N215 C214 1.375 . S
N216 C213 1.347 . S
N216 C217 1.373 . S
C217 C214 1.350 . S
C217 N216 1.373 . S
C217 H238 0.931 . S
H218 C213 0.931 . S
H219 C214 0.930 . S
C220 O227 1.259 . S
C220 O228 1.258 . S
N221 Co212 2.057 . S
N221 C222 1.316 . S
N221 C223 1.375 . S
C222 N221 1.316 . S
C222 N224 1.347 . S
C222 H233 0.931 . S
C223 N221 1.375 . S
C223 C225 1.350 . S
C223 H232 0.930 . S
N224 C222 1.347 . S
N224 C225 1.373 . S
C225 C223 1.350 . S
C225 N224 1.373 . S
C225 H239 0.931 . S
C226 O229 1.256 . S
C226 O230 1.255 . S
O227 Co210 2.021 . S
O227 C220 1.259 . S
O228 Co212 2.117 . S
O228 C220 1.258 . S
O229 Co212 2.020 . S
O229 C226 1.256 . S
O230 Co210 2.062 . S
O230 C226 1.255 . S
O231 C211 1.259 . S
O231 Co212 2.021 . S
H232 C223 0.930 . S
H233 C222 0.931 . S
O234 Co210 2.117 . S
O234 C211 1.258 . S
O235 Co210 2.020 . S
O235 C237 1.256 . S
O236 Co212 2.062 . S
O236 C237 1.255 . S
C237 O235 1.256 . S
C237 O236 1.255 . S
H238 C217 0.931 . S
H239 C225 0.931 . S
Co240 N245 2.057 . S
Co240 O257 2.021 . S
Co240 O260 2.062 . S
Co240 O264 2.117 . S
Co240 O265 2.020 . S
C241 O261 1.259 . S
C241 O264 1.258 . S
Co242 N251 2.057 . S
Co242 O258 2.117 . S
Co242 O259 2.020 . S
Co242 O261 2.021 . S
Co242 O266 2.062 . S
C243 N245 1.316 . S
C243 N246 1.347 . S
C243 H248 0.931 . S
C244 N245 1.375 . S
C244 C247 1.350 . S
C244 H249 0.930 . S
N245 Co240 2.057 . S
N245 C243 1.316 . S
N245 C244 1.375 . S
N246 C243 1.347 . S
N246 C247 1.373 . S
C247 C244 1.350 . S
C247 N246 1.373 . S
C247 H268 0.931 . S
H248 C243 0.931 . S
H249 C244 0.930 . S
C250 O257 1.259 . S
C250 O258 1.258 . S
N251 Co242 2.057 . S
N251 C252 1.316 . S
N251 C253 1.375 . S
C252 N251 1.316 . S
C252 N254 1.347 . S
C252 H263 0.931 . S
C253 N251 1.375 . S
C253 C255 1.350 . S
C253 H262 0.930 . S
N254 C252 1.347 . S
N254 C255 1.373 . S
C255 C253 1.350 . S
C255 N254 1.373 . S
C255 H269 0.931 . S
C256 O259 1.256 . S
C256 O260 1.255 . S
O257 Co240 2.021 . S
O257 C250 1.259 . S
O258 Co242 2.117 . S
O258 C250 1.258 . S
O259 Co242 2.020 . S
O259 C256 1.256 . S
O260 Co240 2.062 . S
O260 C256 1.255 . S
O261 C241 1.259 . S
O261 Co242 2.021 . S
H262 C253 0.930 . S
H263 C252 0.931 . S
O264 Co240 2.117 . S
O264 C241 1.258 . S
O265 Co240 2.020 . S
O265 C267 1.256 . S
O266 Co242 2.062 . S
O266 C267 1.255 . S
C267 O265 1.256 . S
C267 O266 1.255 . S
H268 C247 0.931 . S
H269 C255 0.931 . S
Co270 N275 2.057 . S
Co270 O287 2.021 . S
Co270 O290 2.062 . S
Co270 O294 2.117 . S
Co270 O295 2.020 . S
C271 O291 1.259 . S
C271 O294 1.258 . S
Co272 N281 2.057 . S
Co272 O288 2.117 . S
Co272 O289 2.020 . S
Co272 O291 2.021 . S
Co272 O296 2.062 . S
C273 N275 1.316 . S
C273 N276 1.347 . S
C273 H278 0.931 . S
C274 N275 1.375 1_565 S
C274 C277 1.350 . S
C274 H279 0.930 . S
N275 Co270 2.057 . S
N275 C273 1.316 . S
N275 C274 1.375 1_545 S
N276 C273 1.347 . S
N276 C277 1.373 1_545 S
C277 C274 1.350 . S
C277 N276 1.373 1_565 S
C277 H298 0.931 . S
H278 C273 0.931 . S
H279 C274 0.930 . S
C280 O287 1.259 . S
C280 O288 1.258 . S
N281 Co272 2.057 . S
N281 C282 1.316 . S
N281 C283 1.375 . S
C282 N281 1.316 . S
C282 N284 1.347 . S
C282 H293 0.931 . S
C283 N281 1.375 . S
C283 C285 1.350 . S
C283 H292 0.930 . S
N284 C282 1.347 . S
N284 C285 1.373 . S
C285 C283 1.350 . S
C285 N284 1.373 . S
C285 H299 0.931 . S
C286 O289 1.256 . S
C286 O290 1.255 . S
O287 Co270 2.021 . S
O287 C280 1.259 . S
O288 Co272 2.117 . S
O288 C280 1.258 . S
O289 Co272 2.020 . S
O289 C286 1.256 . S
O290 Co270 2.062 . S
O290 C286 1.255 . S
O291 C271 1.259 . S
O291 Co272 2.021 . S
H292 C283 0.930 . S
H293 C282 0.931 . S
O294 Co270 2.117 . S
O294 C271 1.258 . S
O295 Co270 2.020 . S
O295 C297 1.256 . S
O296 Co272 2.062 . S
O296 C297 1.255 . S
C297 O295 1.256 . S
C297 O296 1.255 . S
H298 C277 0.931 . S
H299 C285 0.931 . S
Co300 N305 2.057 . S
Co300 O317 2.021 . S
Co300 O320 2.062 . S
Co300 O324 2.117 . S
Co300 O325 2.020 . S
C301 O321 1.259 . S
C301 O324 1.258 . S
Co302 N311 2.057 . S
Co302 O318 2.117 . S
Co302 O319 2.020 . S
Co302 O321 2.021 . S
Co302 O326 2.062 . S
C303 N305 1.316 . S
C303 N306 1.347 . S
C303 H308 0.931 . S
C304 N305 1.375 . S
C304 C307 1.350 . S
C304 H309 0.930 . S
N305 Co300 2.057 . S
N305 C303 1.316 . S
N305 C304 1.375 . S
N306 C303 1.347 . S
N306 C307 1.373 . S
C307 C304 1.350 . S
C307 N306 1.373 . S
C307 H328 0.931 . S
H308 C303 0.931 . S
H309 C304 0.930 . S
C310 O317 1.259 . S
C310 O318 1.258 . S
N311 Co302 2.057 . S
N311 C312 1.316 . S
N311 C313 1.375 . S
C312 N311 1.316 . S
C312 N314 1.347 . S
C312 H323 0.931 . S
C313 N311 1.375 . S
C313 C315 1.350 . S
C313 H322 0.930 . S
N314 C312 1.347 . S
N314 C315 1.373 . S
C315 C313 1.350 . S
C315 N314 1.373 . S
C315 H329 0.931 . S
C316 O319 1.256 . S
C316 O320 1.255 . S
O317 Co300 2.021 . S
O317 C310 1.259 . S
O318 Co302 2.117 . S
O318 C310 1.258 . S
O319 Co302 2.020 . S
O319 C316 1.256 . S
O320 Co300 2.062 . S
O320 C316 1.255 . S
O321 C301 1.259 . S
O321 Co302 2.021 . S
H322 C313 0.930 . S
H323 C312 0.931 . S
O324 Co300 2.117 . S
O324 C301 1.258 . S
O325 Co300 2.020 . S
O325 C327 1.256 . S
O326 Co302 2.062 . S
O326 C327 1.255 . S
C327 O325 1.256 . S
C327 O326 1.255 . S
H328 C307 0.931 . S
H329 C315 0.931 . S
Co330 N335 2.057 . S
Co330 O347 2.021 . S
Co330 O350 2.062 . S
Co330 O354 2.117 . S
Co330 O355 2.020 . S
C331 O351 1.259 . S
C331 O354 1.258 . S
Co332 N341 2.057 . S
Co332 O348 2.117 . S
Co332 O349 2.020 . S
Co332 O351 2.021 . S
Co332 O356 2.062 . S
C333 N335 1.316 . S
C333 N336 1.347 . S
C333 H338 0.931 . S
C334 N335 1.375 1_545 S
C334 C337 1.350 . S
C334 H339 0.930 . S
N335 Co330 2.057 . S
N335 C333 1.316 . S
N335 C334 1.375 1_565 S
N336 C333 1.347 . S
N336 C337 1.373 1_565 S
C337 C334 1.350 . S
C337 N336 1.373 1_545 S
C337 H358 0.931 . S
H338 C333 0.931 . S
H339 C334 0.930 . S
C340 O347 1.259 . S
C340 O348 1.258 . S
N341 Co332 2.057 . S
N341 C342 1.316 . S
N341 C343 1.375 . S
C342 N341 1.316 . S
C342 N344 1.347 . S
C342 H353 0.931 . S
C343 N341 1.375 . S
C343 C345 1.350 . S
C343 H352 0.930 . S
N344 C342 1.347 . S
N344 C345 1.373 . S
C345 C343 1.350 . S
C345 N344 1.373 . S
C345 H359 0.931 . S
C346 O349 1.256 . S
C346 O350 1.255 . S
O347 Co330 2.021 . S
O347 C340 1.259 . S
O348 Co332 2.117 . S
O348 C340 1.258 . S
O349 Co332 2.020 . S
O349 C346 1.256 . S
O350 Co330 2.062 . S
O350 C346 1.255 . S
O351 C331 1.259 . S
O351 Co332 2.021 . S
H352 C343 0.930 . S
H353 C342 0.931 . S
O354 Co330 2.117 . S
O354 C331 1.258 . S
O355 Co330 2.020 . S
O355 C357 1.256 . S
O356 Co332 2.062 . S
O356 C357 1.255 . S
C357 O355 1.256 . S
C357 O356 1.255 . S
H358 C337 0.931 . S
H359 C345 0.931 . S
Co360 N365 2.057 . S
Co360 O377 2.021 . S
Co360 O380 2.062 . S
Co360 O384 2.117 . S
Co360 O385 2.020 . S
C361 O381 1.259 . S
C361 O384 1.258 . S
Co362 N371 2.057 . S
Co362 O378 2.117 . S
Co362 O379 2.020 . S
Co362 O381 2.021 . S
Co362 O386 2.062 . S
C363 N365 1.316 . S
C363 N366 1.347 . S
C363 H368 0.931 . S
C364 N365 1.375 . S
C364 C367 1.350 . S
C364 H369 0.930 . S
N365 Co360 2.057 . S
N365 C363 1.316 . S
N365 C364 1.375 . S
N366 C363 1.347 . S
N366 C367 1.373 . S
C367 C364 1.350 . S
C367 N366 1.373 . S
C367 H388 0.931 . S
H368 C363 0.931 . S
H369 C364 0.930 . S
C370 O377 1.259 . S
C370 O378 1.258 . S
N371 Co362 2.057 . S
N371 C372 1.316 . S
N371 C373 1.375 . S
C372 N371 1.316 . S
C372 N374 1.347 . S
C372 H383 0.931 . S
C373 N371 1.375 . S
C373 C375 1.350 . S
C373 H382 0.930 . S
N374 C372 1.347 . S
N374 C375 1.373 . S
C375 C373 1.350 . S
C375 N374 1.373 . S
C375 H389 0.931 . S
C376 O379 1.256 . S
C376 O380 1.255 . S
O377 Co360 2.021 . S
O377 C370 1.259 . S
O378 Co362 2.117 . S
O378 C370 1.258 . S
O379 Co362 2.020 . S
O379 C376 1.256 . S
O380 Co360 2.062 . S
O380 C376 1.255 . S
O381 C361 1.259 . S
O381 Co362 2.021 . S
H382 C373 0.930 . S
H383 C372 0.931 . S
O384 Co360 2.117 . S
O384 C361 1.258 . S
O385 Co360 2.020 . S
O385 C387 1.256 . S
O386 Co362 2.062 . S
O386 C387 1.255 . S
C387 O385 1.256 . S
C387 O386 1.255 . S
H388 C367 0.931 . S
H389 C375 0.931 . S
Co390 N395 2.057 . S
Co390 O407 2.021 . S
Co390 O410 2.062 . S
Co390 O414 2.117 . S
Co390 O415 2.020 . S
C391 O411 1.259 . S
C391 O414 1.258 . S
Co392 N401 2.057 . S
Co392 O408 2.117 . S
Co392 O409 2.020 . S
Co392 O411 2.021 . S
Co392 O416 2.062 . S
C393 N395 1.316 . S
C393 N396 1.347 . S
C393 H398 0.931 . S
C394 N395 1.375 . S
C394 C397 1.350 . S
C394 H399 0.930 . S
N395 Co390 2.057 . S
N395 C393 1.316 . S
N395 C394 1.375 . S
N396 C393 1.347 . S
N396 C397 1.373 . S
C397 C394 1.350 . S
C397 N396 1.373 . S
C397 H418 0.931 . S
H398 C393 0.931 . S
H399 C394 0.930 . S
C400 O407 1.259 . S
C400 O408 1.258 . S
N401 Co392 2.057 . S
N401 C402 1.316 . S
N401 C403 1.375 1_565 S
C402 N401 1.316 . S
C402 N404 1.347 . S
C402 H413 0.931 . S
C403 N401 1.375 1_545 S
C403 C405 1.350 . S
C403 H412 0.930 . S
N404 C402 1.347 . S
N404 C405 1.373 1_565 S
C405 C403 1.350 . S
C405 N404 1.373 1_545 S
C405 H419 0.931 . S
C406 O409 1.256 . S
C406 O410 1.255 . S
O407 Co390 2.021 . S
O407 C400 1.259 . S
O408 Co392 2.117 . S
O408 C400 1.258 . S
O409 Co392 2.020 . S
O409 C406 1.256 . S
O410 Co390 2.062 . S
O410 C406 1.255 . S
O411 C391 1.259 . S
O411 Co392 2.021 . S
H412 C403 0.930 . S
H413 C402 0.931 . S
O414 Co390 2.117 . S
O414 C391 1.258 . S
O415 Co390 2.020 . S
O415 C417 1.256 . S
O416 Co392 2.062 . S
O416 C417 1.255 . S
C417 O415 1.256 . S
C417 O416 1.255 . S
H418 C397 0.931 . S
H419 C405 0.931 . S
Co420 N425 2.057 . S
Co420 O437 2.021 . S
Co420 O440 2.062 . S
Co420 O444 2.117 . S
Co420 O445 2.020 . S
C421 O441 1.259 . S
C421 O444 1.258 . S
Co422 N431 2.057 . S
Co422 O438 2.117 . S
Co422 O439 2.020 . S
Co422 O441 2.021 . S
Co422 O446 2.062 . S
C423 N425 1.316 . S
C423 N426 1.347 . S
C423 H428 0.931 . S
C424 N425 1.375 . S
C424 C427 1.350 . S
C424 H429 0.930 . S
N425 Co420 2.057 . S
N425 C423 1.316 . S
N425 C424 1.375 . S
N426 C423 1.347 . S
N426 C427 1.373 . S
C427 C424 1.350 . S
C427 N426 1.373 . S
C427 H448 0.931 . S
H428 C423 0.931 . S
H429 C424 0.930 . S
C430 O437 1.259 . S
C430 O438 1.258 . S
N431 Co422 2.057 . S
N431 C432 1.316 . S
N431 C433 1.375 . S
C432 N431 1.316 . S
C432 N434 1.347 . S
C432 H443 0.931 . S
C433 N431 1.375 . S
C433 C435 1.350 . S
C433 H442 0.930 . S
N434 C432 1.347 . S
N434 C435 1.373 . S
C435 C433 1.350 . S
C435 N434 1.373 . S
C435 H449 0.931 . S
C436 O439 1.256 . S
C436 O440 1.255 . S
O437 Co420 2.021 . S
O437 C430 1.259 . S
O438 Co422 2.117 . S
O438 C430 1.258 . S
O439 Co422 2.020 . S
O439 C436 1.256 . S
O440 Co420 2.062 . S
O440 C436 1.255 . S
O441 C421 1.259 . S
O441 Co422 2.021 . S
H442 C433 0.930 . S
H443 C432 0.931 . S
O444 Co420 2.117 . S
O444 C421 1.258 . S
O445 Co420 2.020 . S
O445 C447 1.256 . S
O446 Co422 2.062 . S
O446 C447 1.255 . S
C447 O445 1.256 . S
C447 O446 1.255 . S
H448 C427 0.931 . S
H449 C435 0.931 . S
Co450 N455 2.057 . S
Co450 O467 2.021 . S
Co450 O470 2.062 . S
Co450 O474 2.117 . S
Co450 O475 2.020 . S
C451 O471 1.259 . S
C451 O474 1.258 . S
Co452 N461 2.057 . S
Co452 O468 2.117 . S
Co452 O469 2.020 . S
Co452 O471 2.021 . S
Co452 O476 2.062 . S
C453 N455 1.316 . S
C453 N456 1.347 . S
C453 H458 0.931 . S
C454 N455 1.375 . S
C454 C457 1.350 . S
C454 H459 0.930 . S
N455 Co450 2.057 . S
N455 C453 1.316 . S
N455 C454 1.375 . S
N456 C453 1.347 . S
N456 C457 1.373 . S
C457 C454 1.350 . S
C457 N456 1.373 . S
C457 H478 0.931 . S
H458 C453 0.931 . S
H459 C454 0.930 . S
C460 O467 1.259 . S
C460 O468 1.258 . S
N461 Co452 2.057 . S
N461 C462 1.316 . S
N461 C463 1.375 1_545 S
C462 N461 1.316 . S
C462 N464 1.347 . S
C462 H473 0.931 . S
C463 N461 1.375 1_565 S
C463 C465 1.350 . S
C463 H472 0.930 . S
N464 C462 1.347 . S
N464 C465 1.373 1_545 S
C465 C463 1.350 . S
C465 N464 1.373 1_565 S
C465 H479 0.931 . S
C466 O469 1.256 . S
C466 O470 1.255 . S
O467 Co450 2.021 . S
O467 C460 1.259 . S
O468 Co452 2.117 . S
O468 C460 1.258 . S
O469 Co452 2.020 . S
O469 C466 1.256 . S
O470 Co450 2.062 . S
O470 C466 1.255 . S
O471 C451 1.259 . S
O471 Co452 2.021 . S
H472 C463 0.930 . S
H473 C462 0.931 . S
O474 Co450 2.117 . S
O474 C451 1.258 . S
O475 Co450 2.020 . S
O475 C477 1.256 . S
O476 Co452 2.062 . S
O476 C477 1.255 . S
C477 O475 1.256 . S
C477 O476 1.255 . S
H478 C457 0.931 . S
H479 C465 0.931 . S
H480 C486 0.930 . S
H481 C490 0.930 . S
H482 C495 0.929 . S
H483 C493 0.929 . S
H484 C488 0.929 . S
H485 C494 0.929 . S
C486 H480 0.930 . S
C486 C487 1.367 . S
C486 C494 1.378 . S
C487 C486 1.367 . S
C487 C495 1.433 . S
C488 H484 0.929 . S
C488 C490 1.378 . S
C488 C492 1.350 . S
C489 C492 1.463 . S
C489 C494 1.350 . S
C489 N497 1.427 . S
C490 H481 0.930 . S
C490 C488 1.378 . S
C490 C491 1.367 . S
C491 C490 1.367 . S
C491 C493 1.433 . S
C492 C488 1.350 . S
C492 C489 1.463 . S
C492 N496 1.427 . S
C493 H483 0.929 . S
C493 C491 1.433 . S
C493 N496 1.384 . S
C494 H485 0.929 . S
C494 C486 1.378 . S
C494 C489 1.350 . S
C495 H482 0.929 . S
C495 C487 1.433 . S
C495 N497 1.384 . S
N496 C492 1.427 . S
N496 C493 1.384 . S
N497 C489 1.427 . S
N497 C495 1.384 . S
H498 C504 0.930 . S
H499 C508 0.930 . S
H500 C513 0.929 . S
H501 C511 0.929 . S
H502 C506 0.929 . S
H503 C512 0.929 . S
C504 H498 0.930 . S
C504 C505 1.367 . S
C504 C512 1.378 . S
C505 C504 1.367 . S
C505 C513 1.433 . S
C506 H502 0.929 . S
C506 C508 1.378 . S
C506 C510 1.350 . S
C507 C510 1.463 . S
C507 C512 1.350 . S
C507 N515 1.427 . S
C508 H499 0.930 . S
C508 C506 1.378 . S
C508 C509 1.367 . S
C509 C508 1.367 . S
C509 C511 1.433 . S
C510 C506 1.350 . S
C510 C507 1.463 . S
C510 N514 1.427 . S
C511 H501 0.929 . S
C511 C509 1.433 . S
C511 N514 1.384 . S
C512 H503 0.929 . S
C512 C504 1.378 . S
C512 C507 1.350 . S
C513 H500 0.929 . S
C513 C505 1.433 . S
C513 N515 1.384 . S
N514 C510 1.427 . S
N514 C511 1.384 . S
N515 C507 1.427 . S
N515 C513 1.384 . S
H516 C522 0.930 . S
H517 C526 0.930 . S
H518 C531 0.929 . S
H519 C529 0.929 . S
H520 C524 0.929 . S
H521 C530 0.929 . S
C522 H516 0.930 . S
C522 C523 1.367 . S
C522 C530 1.378 . S
C523 C522 1.367 . S
C523 C531 1.433 . S
C524 H520 0.929 . S
C524 C526 1.378 . S
C524 C528 1.350 . S
C525 C528 1.463 1_455 S
C525 C530 1.350 . S
C525 N533 1.427 . S
C526 H517 0.930 . S
C526 C524 1.378 . S
C526 C527 1.367 . S
C527 C526 1.367 . S
C527 C529 1.433 . S
C528 C524 1.350 . S
C528 C525 1.463 1_655 S
C528 N532 1.427 . S
C529 H519 0.929 . S
C529 C527 1.433 . S
C529 N532 1.384 . S
C530 H521 0.929 . S
C530 C522 1.378 . S
C530 C525 1.350 . S
C531 H518 0.929 . S
C531 C523 1.433 . S
C531 N533 1.384 . S
N532 C528 1.427 . S
N532 C529 1.384 . S
N533 C525 1.427 . S
N533 C531 1.384 . S
H534 C540 0.930 1_655 S
H535 C544 0.930 . S
H536 C549 0.929 . S
H537 C547 0.929 . S
H538 C542 0.929 1_455 S
H539 C548 0.929 . S
C540 H534 0.930 1_455 S
C540 C541 1.367 . S
C540 C548 1.378 1_455 S
C541 C540 1.367 . S
C541 C549 1.433 . S
C542 H538 0.929 1_655 S
C542 C544 1.378 . S
C542 C546 1.350 . S
C543 C546 1.463 1_455 S
C543 C548 1.350 1_455 S
C543 N551 1.426 . S
C544 H535 0.930 . S
C544 C542 1.378 . S
C544 C545 1.367 . S
C545 C544 1.367 . S
C545 C547 1.433 . S
C546 C542 1.350 . S
C546 C543 1.463 1_655 S
C546 N550 1.427 . S
C547 H537 0.929 . S
C547 C545 1.433 . S
C547 N550 1.384 . S
C548 H539 0.929 . S
C548 C540 1.378 1_655 S
C548 C543 1.350 1_655 S
C549 H536 0.929 . S
C549 C541 1.433 . S
C549 N551 1.384 . S
N550 C546 1.427 . S
N550 C547 1.384 . S
N551 C543 1.426 . S
N551 C549 1.384 . S
H552 C558 0.930 . S
H553 C562 0.930 . S
H554 C567 0.929 . S
H555 C565 0.929 . S
H556 C560 0.929 . S
H557 C566 0.929 . S
C558 H552 0.930 . S
C558 C559 1.367 . S
C558 C566 1.378 . S
C559 C558 1.367 . S
C559 C567 1.433 . S
C560 H556 0.929 . S
C560 C562 1.378 . S
C560 C564 1.350 . S
C561 C564 1.463 . S
C561 C566 1.350 . S
C561 N569 1.427 . S
C562 H553 0.930 . S
C562 C560 1.378 . S
C562 C563 1.367 . S
C563 C562 1.367 . S
C563 C565 1.433 . S
C564 C560 1.350 . S
C564 C561 1.463 . S
C564 N568 1.427 . S
C565 H555 0.929 . S
C565 C563 1.433 . S
C565 N568 1.384 . S
C566 H557 0.929 . S
C566 C558 1.378 . S
C566 C561 1.350 . S
C567 H554 0.929 . S
C567 C559 1.433 . S
C567 N569 1.384 . S
N568 C564 1.427 . S
N568 C565 1.384 . S
N569 C561 1.427 . S
N569 C567 1.384 . S
H570 C576 0.930 . S
H571 C580 0.930 . S
H572 C585 0.929 . S
H573 C583 0.929 . S
H574 C578 0.929 . S
H575 C584 0.929 . S
C576 H570 0.930 . S
C576 C577 1.367 . S
C576 C584 1.378 . S
C577 C576 1.367 . S
C577 C585 1.433 . S
C578 H574 0.929 . S
C578 C580 1.378 . S
C578 C582 1.350 . S
C579 C582 1.463 . S
C579 C584 1.350 . S
C579 N587 1.427 . S
C580 H571 0.930 . S
C580 C578 1.378 . S
C580 C581 1.367 . S
C581 C580 1.367 . S
C581 C583 1.433 . S
C582 C578 1.350 . S
C582 C579 1.463 . S
C582 N586 1.427 . S
C583 H573 0.929 . S
C583 C581 1.433 . S
C583 N586 1.384 . S
C584 H575 0.929 . S
C584 C576 1.378 . S
C584 C579 1.350 . S
C585 H572 0.929 . S
C585 C577 1.433 . S
C585 N587 1.384 . S
N586 C582 1.427 . S
N586 C583 1.384 . S
N587 C579 1.427 . S
N587 C585 1.384 . S
H588 C594 0.930 . S
H589 C598 0.930 . S
H590 C603 0.929 . S
H591 C601 0.929 . S
H592 C596 0.929 . S
H593 C602 0.929 . S
C594 H588 0.930 . S
C594 C595 1.367 . S
C594 C602 1.378 . S
C595 C594 1.367 . S
C595 C603 1.433 . S
C596 H592 0.929 . S
C596 C598 1.378 . S
C596 C600 1.350 . S
C597 C600 1.463 1_455 S
C597 C602 1.350 . S
C597 N605 1.427 . S
C598 H589 0.930 . S
C598 C596 1.378 . S
C598 C599 1.367 . S
C599 C598 1.367 . S
C599 C601 1.433 . S
C600 C596 1.350 . S
C600 C597 1.463 1_655 S
C600 N604 1.427 . S
C601 H591 0.929 . S
C601 C599 1.433 . S
C601 N604 1.384 . S
C602 H593 0.929 . S
C602 C594 1.378 . S
C602 C597 1.350 . S
C603 H590 0.929 . S
C603 C595 1.433 . S
C603 N605 1.384 . S
N604 C600 1.427 . S
N604 C601 1.384 . S
N605 C597 1.427 . S
N605 C603 1.384 . S
H606 C612 0.930 . S
H607 C616 0.930 . S
H608 C621 0.929 . S
H609 C619 0.929 . S
H610 C614 0.929 . S
H611 C620 0.929 . S
C612 H606 0.930 . S
C612 C613 1.367 . S
C612 C620 1.378 . S
C613 C612 1.367 . S
C613 C621 1.433 . S
C614 H610 0.929 . S
C614 C616 1.378 . S
C614 C618 1.350 . S
C615 C618 1.463 1_455 S
C615 C620 1.350 . S
C615 N623 1.427 . S
C616 H607 0.930 . S
C616 C614 1.378 . S
C616 C617 1.367 . S
C617 C616 1.367 . S
C617 C619 1.433 . S
C618 C614 1.350 . S
C618 C615 1.463 1_655 S
C618 N622 1.427 1_655 S
C619 H609 0.929 . S
C619 C617 1.433 . S
C619 N622 1.384 1_655 S
C620 H611 0.929 . S
C620 C612 1.378 . S
C620 C615 1.350 . S
C621 H608 0.929 . S
C621 C613 1.433 . S
C621 N623 1.384 . S
N622 C618 1.427 1_455 S
N622 C619 1.384 1_455 S
N623 C615 1.427 . S
N623 C621 1.384 . S
H624 C630 0.930 1_565 S
H625 C634 0.930 1_545 S
H626 C639 0.929 . S
H627 C637 0.929 . S
H628 C632 0.929 . S
H629 C638 0.929 . S
C630 H624 0.930 1_545 S
C630 C631 1.367 . S
C630 C638 1.378 1_545 S
C631 C630 1.367 . S
C631 C639 1.433 . S
C632 H628 0.929 . S
C632 C634 1.378 1_545 S
C632 C636 1.350 1_545 S
C633 C636 1.463 1_544 S
C633 C638 1.350 1_545 S
C633 N641 1.427 . S
C634 H625 0.930 1_565 S
C634 C632 1.378 1_565 S
C634 C635 1.367 . S
C635 C634 1.367 . S
C635 C637 1.433 . S
C636 C632 1.350 1_565 S
C636 C633 1.463 1_566 S
C636 N640 1.427 . S
C637 H627 0.929 . S
C637 C635 1.433 . S
C637 N640 1.384 . S
C638 H629 0.929 . S
C638 C630 1.378 1_565 S
C638 C633 1.350 1_565 S
C639 H626 0.929 . S
C639 C631 1.433 . S
C639 N641 1.384 . S
N640 C636 1.427 . S
N640 C637 1.384 . S
N641 C633 1.427 . S
N641 C639 1.384 . S
H642 C648 0.930 . S
H643 C652 0.930 . S
H644 C657 0.929 . S
H645 C655 0.929 . S
H646 C650 0.929 . S
H647 C656 0.929 . S
C648 H642 0.930 . S
C648 C649 1.367 . S
C648 C656 1.378 . S
C649 C648 1.367 . S
C649 C657 1.433 . S
C650 H646 0.929 . S
C650 C652 1.378 . S
C650 C654 1.350 . S
C651 C654 1.463 . S
C651 C656 1.350 . S
C651 N659 1.427 . S
C652 H643 0.930 . S
C652 C650 1.378 . S
C652 C653 1.367 . S
C653 C652 1.367 . S
C653 C655 1.433 . S
C654 C650 1.350 . S
C654 C651 1.463 . S
C654 N658 1.427 . S
C655 H645 0.929 . S
C655 C653 1.433 . S
C655 N658 1.384 . S
C656 H647 0.929 . S
C656 C648 1.378 . S
C656 C651 1.350 . S
C657 H644 0.929 . S
C657 C649 1.433 . S
C657 N659 1.384 . S
N658 C654 1.427 . S
N658 C655 1.384 . S
N659 C651 1.427 . S
N659 C657 1.384 . S
H660 C666 0.930 . S
H661 C670 0.930 . S
H662 C675 0.929 . S
H663 C673 0.929 . S
H664 C668 0.929 . S
H665 C674 0.929 . S
C666 H660 0.930 . S
C666 C667 1.367 1_545 S
C666 C674 1.378 . S
C667 C666 1.367 1_565 S
C667 C675 1.433 . S
C668 H664 0.929 . S
C668 C670 1.378 . S
C668 C672 1.350 1_565 S
C669 C672 1.463 1_465 S
C669 C674 1.350 1_565 S
C669 N677 1.427 . S
C670 H661 0.930 . S
C670 C668 1.378 . S
C670 C671 1.367 1_565 S
C671 C670 1.367 1_545 S
C671 C673 1.433 . S
C672 C668 1.350 1_545 S
C672 C669 1.463 1_645 S
C672 N676 1.427 . S
C673 H663 0.929 . S
C673 C671 1.433 . S
C673 N676 1.384 . S
C674 H665 0.929 . S
C674 C666 1.378 . S
C674 C669 1.350 1_545 S
C675 H662 0.929 . S
C675 C667 1.433 . S
C675 N677 1.384 . S
N676 C672 1.427 . S
N676 C673 1.384 . S
N677 C669 1.427 . S
N677 C675 1.384 . S
H678 C684 0.930 . S
H679 C688 0.930 . S
H680 C693 0.929 . S
H681 C691 0.929 . S
H682 C686 0.929 . S
H683 C692 0.929 . S
C684 H678 0.930 . S
C684 C685 1.367 . S
C684 C692 1.378 . S
C685 C684 1.367 . S
C685 C693 1.433 . S
C686 H682 0.929 . S
C686 C688 1.378 . S
C686 C690 1.350 . S
C687 C690 1.463 . S
C687 C692 1.350 . S
C687 N695 1.427 . S
C688 H679 0.930 . S
C688 C686 1.378 . S
C688 C689 1.367 . S
C689 C688 1.367 . S
C689 C691 1.433 . S
C690 C686 1.350 . S
C690 C687 1.463 . S
C690 N694 1.427 . S
C691 H681 0.929 . S
C691 C689 1.433 . S
C691 N694 1.384 . S
C692 H683 0.929 . S
C692 C684 1.378 . S
C692 C687 1.350 . S
C693 H680 0.929 . S
C693 C685 1.433 . S
C693 N695 1.384 . S
N694 C690 1.427 . S
N694 C691 1.384 . S
N695 C687 1.427 . S
N695 C693 1.384 . S
H696 C702 0.930 . S
H697 C706 0.930 . S
H698 C711 0.929 . S
H699 C709 0.929 . S
H700 C704 0.929 . S
H701 C710 0.929 . S
C702 H696 0.930 . S
C702 C703 1.367 . S
C702 C710 1.378 . S
C703 C702 1.367 . S
C703 C711 1.433 . S
C704 H700 0.929 . S
C704 C706 1.378 . S
C704 C708 1.350 . S
C705 C708 1.463 . S
C705 C710 1.350 . S
C705 N713 1.427 . S
C706 H697 0.930 . S
C706 C704 1.378 . S
C706 C707 1.367 . S
C707 C706 1.367 . S
C707 C709 1.433 . S
C708 C704 1.350 . S
C708 C705 1.463 . S
C708 N712 1.427 . S
C709 H699 0.929 . S
C709 C707 1.433 . S
C709 N712 1.384 . S
C710 H701 0.929 . S
C710 C702 1.378 . S
C710 C705 1.350 . S
C711 H698 0.929 . S
C711 C703 1.433 . S
C711 N713 1.384 . S
N712 C708 1.427 . S
N712 C709 1.384 . S
N713 C705 1.427 . S
N713 C711 1.384 . S
H714 C720 0.930 . S
H715 C724 0.930 . S
H716 C729 0.929 . S
H717 C727 0.929 . S
H718 C722 0.929 . S
H719 C728 0.929 . S
C720 H714 0.930 . S
C720 C721 1.367 . S
C720 C728 1.378 . S
C721 C720 1.367 . S
C721 C729 1.433 . S
C722 H718 0.929 . S
C722 C724 1.378 . S
C722 C726 1.350 . S
C723 C726 1.463 . S
C723 C728 1.350 . S
C723 N731 1.427 . S
C724 H715 0.930 . S
C724 C722 1.378 . S
C724 C725 1.367 . S
C725 C724 1.367 . S
C725 C727 1.433 . S
C726 C722 1.350 . S
C726 C723 1.463 . S
C726 N730 1.427 . S
C727 H717 0.929 . S
C727 C725 1.433 . S
C727 N730 1.384 . S
C728 H719 0.929 . S
C728 C720 1.378 . S
C728 C723 1.350 . S
C729 H716 0.929 . S
C729 C721 1.433 . S
C729 N731 1.384 . S
N730 C726 1.427 . S
N730 C727 1.384 . S
N731 C723 1.427 . S
N731 C729 1.384 . S
H732 C738 0.930 . S
H733 C742 0.930 . S
H734 C747 0.929 . S
H735 C745 0.929 . S
H736 C740 0.929 . S
H737 C746 0.929 . S
C738 H732 0.930 . S
C738 C739 1.367 . S
C738 C746 1.378 . S
C739 C738 1.367 . S
C739 C747 1.433 . S
C740 H736 0.929 . S
C740 C742 1.378 . S
C740 C744 1.350 . S
C741 C744 1.463 1_455 S
C741 C746 1.350 . S
C741 N749 1.427 . S
C742 H733 0.930 . S
C742 C740 1.378 . S
C742 C743 1.367 . S
C743 C742 1.367 . S
C743 C745 1.433 . S
C744 C740 1.350 . S
C744 C741 1.463 1_655 S
C744 N748 1.427 . S
C745 H735 0.929 . S
C745 C743 1.433 . S
C745 N748 1.384 . S
C746 H737 0.929 . S
C746 C738 1.378 . S
C746 C741 1.350 . S
C747 H734 0.929 . S
C747 C739 1.433 . S
C747 N749 1.384 . S
N748 C744 1.427 . S
N748 C745 1.384 . S
N749 C741 1.427 . S
N749 C747 1.384 . S
H750 C756 0.930 . S
H751 C760 0.930 . S
H752 C765 0.929 . S
H753 C763 0.929 . S
H754 C758 0.929 . S
H755 C764 0.929 . S
C756 H750 0.930 . S
C756 C757 1.367 . S
C756 C764 1.378 . S
C757 C756 1.367 . S
C757 C765 1.433 . S
C758 H754 0.929 . S
C758 C760 1.378 . S
C758 C762 1.350 . S
C759 C762 1.463 1_554 S
C759 C764 1.350 . S
C759 N767 1.427 . S
C760 H751 0.930 . S
C760 C758 1.378 . S
C760 C761 1.367 . S
C761 C760 1.367 . S
C761 C763 1.433 . S
C762 C758 1.350 . S
C762 C759 1.463 1_556 S
C762 N766 1.427 . S
C763 H753 0.929 . S
C763 C761 1.433 . S
C763 N766 1.384 . S
C764 H755 0.929 . S
C764 C756 1.378 . S
C764 C759 1.350 . S
C765 H752 0.929 . S
C765 C757 1.433 . S
C765 N767 1.384 . S
N766 C762 1.427 . S
N766 C763 1.384 . S
N767 C759 1.427 . S
N767 C765 1.384 . S
H768 C774 0.930 . S
H769 C778 0.930 . S
H770 C783 0.929 . S
H771 C781 0.929 . S
H772 C776 0.929 . S
H773 C782 0.929 . S
C774 H768 0.930 . S
C774 C775 1.367 . S
C774 C782 1.378 . S
C775 C774 1.367 . S
C775 C783 1.433 . S
C776 H772 0.929 . S
C776 C778 1.378 . S
C776 C780 1.350 . S
C777 C780 1.463 . S
C777 C782 1.350 . S
C777 N785 1.427 . S
C778 H769 0.930 . S
C778 C776 1.378 . S
C778 C779 1.367 . S
C779 C778 1.367 . S
C779 C781 1.433 . S
C780 C776 1.350 . S
C780 C777 1.463 . S
C780 N784 1.427 . S
C781 H771 0.929 . S
C781 C779 1.433 . S
C781 N784 1.384 . S
C782 H773 0.929 . S
C782 C774 1.378 . S
C782 C777 1.350 . S
C783 H770 0.929 . S
C783 C775 1.433 . S
C783 N785 1.384 . S
N784 C780 1.427 . S
N784 C781 1.384 . S
N785 C777 1.427 . S
N785 C783 1.384 . S
H786 C792 0.930 . S
H787 C796 0.930 . S
H788 C801 0.929 . S
H789 C799 0.929 . S
H790 C794 0.929 . S
H791 C800 0.929 . S
C792 H786 0.930 . S
C792 C793 1.367 . S
C792 C800 1.378 . S
C793 C792 1.367 . S
C793 C801 1.433 . S
C794 H790 0.929 . S
C794 C796 1.378 . S
C794 C798 1.350 . S
C795 C798 1.463 . S
C795 C800 1.350 . S
C795 N803 1.427 . S
C796 H787 0.930 . S
C796 C794 1.378 . S
C796 C797 1.367 . S
C797 C796 1.367 . S
C797 C799 1.433 . S
C798 C794 1.350 . S
C798 C795 1.463 . S
C798 N802 1.427 . S
C799 H789 0.929 . S
C799 C797 1.433 . S
C799 N802 1.384 . S
C800 H791 0.929 . S
C800 C792 1.378 . S
C800 C795 1.350 . S
C801 H788 0.929 . S
C801 C793 1.433 . S
C801 N803 1.384 . S
N802 C798 1.427 . S
N802 C799 1.384 . S
N803 C795 1.427 . S
N803 C801 1.384 . S
H804 C810 0.930 . S
H805 C814 0.930 . S
H806 C819 0.929 . S
H807 C817 0.929 . S
H808 C812 0.929 . S
H809 C818 0.929 . S
C810 H804 0.930 . S
C810 C811 1.367 . S
C810 C818 1.378 . S
C811 C810 1.367 . S
C811 C819 1.433 . S
C812 H808 0.929 . S
C812 C814 1.378 . S
C812 C816 1.350 . S
C813 C816 1.463 . S
C813 C818 1.350 . S
C813 N821 1.427 . S
C814 H805 0.930 . S
C814 C812 1.378 . S
C814 C815 1.367 . S
C815 C814 1.367 . S
C815 C817 1.433 . S
C816 C812 1.350 . S
C816 C813 1.463 . S
C816 N820 1.427 . S
C817 H807 0.929 . S
C817 C815 1.433 . S
C817 N820 1.384 . S
C818 H809 0.929 . S
C818 C810 1.378 . S
C818 C813 1.350 . S
C819 H806 0.929 . S
C819 C811 1.433 . S
C819 N821 1.384 . S
N820 C816 1.427 . S
N820 C817 1.384 . S
N821 C813 1.427 . S
N821 C819 1.384 . S
H822 C828 0.930 . S
H823 C832 0.930 . S
H824 C837 0.929 . S
H825 C835 0.929 . S
H826 C830 0.929 . S
H827 C836 0.929 . S
C828 H822 0.930 . S
C828 C829 1.367 . S
C828 C836 1.378 . S
C829 C828 1.367 . S
C829 C837 1.433 . S
C830 H826 0.929 . S
C830 C832 1.378 . S
C830 C834 1.350 . S
C831 C834 1.463 . S
C831 C836 1.350 . S
C831 N839 1.427 . S
C832 H823 0.930 . S
C832 C830 1.378 . S
C832 C833 1.367 . S
C833 C832 1.367 . S
C833 C835 1.433 . S
C834 C830 1.350 . S
C834 C831 1.463 . S
C834 N838 1.427 . S
C835 H825 0.929 . S
C835 C833 1.433 . S
C835 N838 1.384 . S
C836 H827 0.929 . S
C836 C828 1.378 . S
C836 C831 1.350 . S
C837 H824 0.929 . S
C837 C829 1.433 . S
C837 N839 1.384 . S
N838 C834 1.427 . S
N838 C835 1.384 . S
N839 C831 1.427 . S
N839 C837 1.384 . S
H840 C846 0.930 . S
H841 C850 0.930 . S
H842 C855 0.929 . S
H843 C853 0.929 . S
H844 C848 0.929 . S
H845 C854 0.929 . S
C846 H840 0.930 . S
C846 C847 1.367 . S
C846 C854 1.378 . S
C847 C846 1.367 . S
C847 C855 1.433 . S
C848 H844 0.929 . S
C848 C850 1.378 . S
C848 C852 1.350 . S
C849 C852 1.463 . S
C849 C854 1.350 . S
C849 N857 1.427 . S
C850 H841 0.930 . S
C850 C848 1.378 . S
C850 C851 1.367 . S
C851 C850 1.367 . S
C851 C853 1.433 . S
C852 C848 1.350 . S
C852 C849 1.463 . S
C852 N856 1.427 . S
C853 H843 0.929 . S
C853 C851 1.433 . S
C853 N856 1.384 . S
C854 H845 0.929 . S
C854 C846 1.378 . S
C854 C849 1.350 . S
C855 H842 0.929 . S
C855 C847 1.433 . S
C855 N857 1.384 . S
N856 C852 1.427 . S
N856 C853 1.384 . S
N857 C849 1.427 . S
N857 C855 1.384 . S
H858 C864 0.930 . S
H859 C868 0.930 . S
H860 C873 0.929 . S
H861 C871 0.929 . S
H862 C866 0.929 . S
H863 C872 0.929 . S
C864 H858 0.930 . S
C864 C865 1.367 . S
C864 C872 1.378 . S
C865 C864 1.367 . S
C865 C873 1.433 . S
C866 H862 0.929 . S
C866 C868 1.378 . S
C866 C870 1.350 . S
C867 C870 1.463 . S
C867 C872 1.350 . S
C867 N875 1.427 . S
C868 H859 0.930 . S
C868 C866 1.378 . S
C868 C869 1.367 . S
C869 C868 1.367 . S
C869 C871 1.433 . S
C870 C866 1.350 . S
C870 C867 1.463 . S
C870 N874 1.427 . S
C871 H861 0.929 . S
C871 C869 1.433 . S
C871 N874 1.384 . S
C872 H863 0.929 . S
C872 C864 1.378 . S
C872 C867 1.350 . S
C873 H860 0.929 . S
C873 C865 1.433 . S
C873 N875 1.384 . S
N874 C870 1.427 . S
N874 C871 1.384 . S
N875 C867 1.427 . S
N875 C873 1.384 . S
H876 C882 0.930 . S
H877 C886 0.930 . S
H878 C891 0.929 . S
H879 C889 0.929 . S
H880 C884 0.929 . S
H881 C890 0.929 . S
C882 H876 0.930 . S
C882 C883 1.367 . S
C882 C890 1.378 . S
C883 C882 1.367 . S
C883 C891 1.433 . S
C884 H880 0.929 . S
C884 C886 1.378 . S
C884 C888 1.350 . S
C885 C888 1.463 . S
C885 C890 1.350 . S
C885 N893 1.427 . S
C886 H877 0.930 . S
C886 C884 1.378 . S
C886 C887 1.367 . S
C887 C886 1.367 . S
C887 C889 1.433 . S
C888 C884 1.350 . S
C888 C885 1.463 . S
C888 N892 1.427 . S
C889 H879 0.929 . S
C889 C887 1.433 . S
C889 N892 1.384 . S
C890 H881 0.929 . S
C890 C882 1.378 . S
C890 C885 1.350 . S
C891 H878 0.929 . S
C891 C883 1.433 . S
C891 N893 1.384 . S
N892 C888 1.427 . S
N892 C889 1.384 . S
N893 C885 1.427 . S
N893 C891 1.384 . S
H894 C900 0.930 . S
H895 C904 0.930 . S
H896 C909 0.929 . S
H897 C907 0.929 1_455 S
H898 C902 0.929 . S
H899 C908 0.929 . S
C900 H894 0.930 . S
C900 C901 1.367 . S
C900 C908 1.378 . S
C901 C900 1.367 . S
C901 C909 1.433 . S
C902 H898 0.929 . S
C902 C904 1.378 . S
C902 C906 1.350 . S
C903 C906 1.463 . S
C903 C908 1.350 . S
C903 N911 1.427 . S
C904 H895 0.930 . S
C904 C902 1.378 . S
C904 C905 1.367 . S
C905 C904 1.367 . S
C905 C907 1.433 . S
C906 C902 1.350 . S
C906 C903 1.463 . S
C906 N910 1.427 . S
C907 H897 0.929 1_655 S
C907 C905 1.433 . S
C907 N910 1.384 . S
C908 H899 0.929 . S
C908 C900 1.378 . S
C908 C903 1.350 . S
C909 H896 0.929 . S
C909 C901 1.433 . S
C909 N911 1.384 . S
N910 C906 1.427 . S
N910 C907 1.384 . S
N911 C903 1.427 . S
N911 C909 1.384 . S
H912 C918 0.930 . S
H913 C922 0.930 . S
H914 C927 0.929 . S
H915 C925 0.929 . S
H916 C920 0.929 . S
H917 C926 0.929 . S
C918 H912 0.930 . S
C918 C919 1.367 . S
C918 C926 1.378 . S
C919 C918 1.367 . S
C919 C927 1.433 . S
C920 H916 0.929 . S
C920 C922 1.378 . S
C920 C924 1.350 . S
C921 C924 1.463 . S
C921 C926 1.350 . S
C921 N929 1.427 . S
C922 H913 0.930 . S
C922 C920 1.378 . S
C922 C923 1.367 . S
C923 C922 1.367 . S
C923 C925 1.433 . S
C924 C920 1.350 . S
C924 C921 1.463 . S
C924 N928 1.427 . S
C925 H915 0.929 . S
C925 C923 1.433 . S
C925 N928 1.384 . S
C926 H917 0.929 . S
C926 C918 1.378 . S
C926 C921 1.350 . S
C927 H914 0.929 . S
C927 C919 1.433 . S
C927 N929 1.384 . S
N928 C924 1.427 . S
N928 C925 1.384 . S
N929 C921 1.427 . S
N929 C927 1.384 . S
H930 C936 0.930 . S
H931 C940 0.930 . S
H932 C945 0.929 . S
H933 C943 0.929 . S
H934 C938 0.929 . S
H935 C944 0.929 1_545 S
C936 H930 0.930 . S
C936 C937 1.367 . S
C936 C944 1.378 . S
C937 C936 1.367 . S
C937 C945 1.433 . S
C938 H934 0.929 . S
C938 C940 1.378 . S
C938 C942 1.350 . S
C939 C942 1.463 . S
C939 C944 1.350 . S
C939 N947 1.427 . S
C940 H931 0.930 . S
C940 C938 1.378 . S
C940 C941 1.367 1_565 S
C941 C940 1.367 1_545 S
C941 C943 1.433 . S
C942 C938 1.350 . S
C942 C939 1.463 . S
C942 N946 1.427 1_565 S
C943 H933 0.929 . S
C943 C941 1.433 . S
C943 N946 1.384 . S
C944 H935 0.929 1_565 S
C944 C936 1.378 . S
C944 C939 1.350 . S
C945 H932 0.929 . S
C945 C937 1.433 . S
C945 N947 1.384 . S
N946 C942 1.427 1_545 S
N946 C943 1.384 . S
N947 C939 1.427 . S
N947 C945 1.384 . S
H948 C954 0.915 1_565 S
H949 C958 0.930 . S
H950 C963 0.929 . S
H951 C961 0.929 . S
H952 C956 0.929 . S
H953 C962 0.929 . S
C954 H948 0.915 1_545 S
C954 C955 1.369 . S
C954 C962 1.391 . S
C955 C954 1.369 . S
C955 C963 1.433 . S
C956 H952 0.929 . S
C956 C958 1.378 . S
C956 C960 1.350 . S
C957 C960 1.463 . S
C957 C962 1.350 . S
C957 N965 1.427 . S
C958 H949 0.930 . S
C958 C956 1.378 . S
C958 C959 1.367 . S
C959 C958 1.367 . S
C959 C961 1.433 . S
C960 C956 1.350 . S
C960 C957 1.463 . S
C960 N964 1.427 . S
C961 H951 0.929 . S
C961 C959 1.433 . S
C961 N964 1.384 . S
C962 H953 0.929 . S
C962 C954 1.391 . S
C962 C957 1.350 . S
C963 H950 0.929 . S
C963 C955 1.433 . S
C963 N965 1.384 . S
N964 C960 1.427 . S
N964 C961 1.384 . S
N965 C957 1.427 . S
N965 C963 1.384 . S
H966 C972 0.930 . S
H967 C976 0.930 . S
H968 C981 0.929 . S
H969 C979 0.929 . S
H970 C974 0.929 1_565 S
H971 C980 0.929 . S
C972 H966 0.930 . S
C972 C973 1.367 . S
C972 C980 1.378 . S
C973 C972 1.367 . S
C973 C981 1.433 . S
C974 H970 0.929 1_545 S
C974 C976 1.378 1_545 S
C974 C978 1.350 . S
C975 C978 1.463 . S
C975 C980 1.350 . S
C975 N983 1.427 . S
C976 H967 0.930 . S
C976 C974 1.378 1_565 S
C976 C977 1.367 . S
C977 C976 1.367 . S
C977 C979 1.433 1_565 S
C978 C974 1.350 . S
C978 C975 1.463 . S
C978 N982 1.427 . S
C979 H969 0.929 . S
C979 C977 1.433 1_545 S
C979 N982 1.384 . S
C980 H971 0.929 . S
C980 C972 1.378 . S
C980 C975 1.350 . S
C981 H968 0.929 . S
C981 C973 1.433 . S
C981 N983 1.384 . S
N982 C978 1.427 . S
N982 C979 1.384 . S
N983 C975 1.427 . S
N983 C981 1.384 . S
H984 C990 0.930 . S
H985 C994 0.930 . S
H986 C999 0.929 . S
H987 C997 0.929 . S
H988 C992 0.929 . S
H989 C998 0.929 . S
C990 H984 0.930 . S
C990 C991 1.367 . S
C990 C998 1.378 . S
C991 C990 1.367 . S
C991 C999 1.433 . S
C992 H988 0.929 . S
C992 C994 1.378 . S
C992 C996 1.350 . S
C993 C996 1.463 . S
C993 C998 1.350 . S
C993 N1001 1.427 . S
C994 H985 0.930 . S
C994 C992 1.378 . S
C994 C995 1.367 . S
C995 C994 1.367 . S
C995 C997 1.433 . S
C996 C992 1.350 . S
C996 C993 1.463 . S
C996 N1000 1.427 . S
C997 H987 0.929 . S
C997 C995 1.433 . S
C997 N1000 1.384 . S
C998 H989 0.929 . S
C998 C990 1.378 . S
C998 C993 1.350 . S
C999 H986 0.929 . S
C999 C991 1.433 . S
C999 N1001 1.384 . S
N1000 C996 1.427 . S
N1000 C997 1.384 . S
N1001 C993 1.427 . S
N1001 C999 1.384 . S
H1002 C1008 0.930 . S
H1003 C1012 0.930 . S
H1004 C1017 0.929 . S
H1005 C1015 0.929 . S
H1006 C1010 0.929 1_565 S
H1007 C1016 0.929 . S
C1008 H1002 0.930 . S
C1008 C1009 1.367 1_545 S
C1008 C1016 1.378 . S
C1009 C1008 1.367 1_565 S
C1009 C1017 1.433 . S
C1010 H1006 0.929 1_545 S
C1010 C1012 1.378 . S
C1010 C1014 1.350 . S
C1011 C1014 1.463 . S
C1011 C1016 1.350 . S
C1011 N1019 1.427 1_545 S
C1012 H1003 0.930 . S
C1012 C1010 1.378 . S
C1012 C1013 1.367 . S
C1013 C1012 1.367 . S
C1013 C1015 1.433 . S
C1014 C1010 1.350 . S
C1014 C1011 1.463 . S
C1014 N1018 1.427 . S
C1015 H1005 0.929 . S
C1015 C1013 1.433 . S
C1015 N1018 1.384 . S
C1016 H1007 0.929 . S
C1016 C1008 1.378 . S
C1016 C1011 1.350 . S
C1017 H1004 0.929 . S
C1017 C1009 1.433 . S
C1017 N1019 1.384 . S
N1018 C1014 1.427 . S
N1018 C1015 1.384 . S
N1019 C1011 1.427 1_565 S
N1019 C1017 1.384 . S
H1020 C1026 0.930 . S
H1021 C1030 0.930 . S
H1022 C1035 0.929 1_545 S
H1023 C1033 0.929 . S
H1024 C1028 0.929 . S
H1025 C1034 0.929 . S
C1026 H1020 0.930 . S
C1026 C1027 1.367 . S
C1026 C1034 1.378 . S
C1027 C1026 1.367 . S
C1027 C1035 1.433 . S
C1028 H1024 0.929 . S
C1028 C1030 1.378 . S
C1028 C1032 1.350 . S
C1029 C1032 1.463 . S
C1029 C1034 1.350 . S
C1029 N1037 1.427 . S
C1030 H1021 0.930 . S
C1030 C1028 1.378 . S
C1030 C1031 1.367 . S
C1031 C1030 1.367 . S
C1031 C1033 1.433 . S
C1032 C1028 1.350 . S
C1032 C1029 1.463 . S
C1032 N1036 1.427 . S
C1033 H1023 0.929 . S
C1033 C1031 1.433 . S
C1033 N1036 1.384 . S
C1034 H1025 0.929 . S
C1034 C1026 1.378 . S
C1034 C1029 1.350 . S
C1035 H1022 0.929 1_565 S
C1035 C1027 1.433 . S
C1035 N1037 1.384 . S
N1036 C1032 1.427 . S
N1036 C1033 1.384 . S
N1037 C1029 1.427 . S
N1037 C1035 1.384 . S
H1038 C1044 0.930 . S
H1039 C1048 0.930 . S
H1040 C1053 0.929 . S
H1041 C1051 0.929 . S
H1042 C1046 0.929 . S
H1043 C1052 0.929 . S
C1044 H1038 0.930 . S
C1044 C1045 1.367 1_565 S
C1044 C1052 1.378 . S
C1045 C1044 1.367 1_545 S
C1045 C1053 1.433 . S
C1046 H1042 0.929 . S
C1046 C1048 1.378 . S
C1046 C1050 1.350 . S
C1047 C1050 1.463 . S
C1047 C1052 1.350 . S
C1047 N1055 1.427 1_565 S
C1048 H1039 0.930 . S
C1048 C1046 1.378 . S
C1048 C1049 1.367 . S
C1049 C1048 1.367 . S
C1049 C1051 1.433 . S
C1050 C1046 1.350 . S
C1050 C1047 1.463 . S
C1050 N1054 1.427 . S
C1051 H1041 0.929 . S
C1051 C1049 1.433 . S
C1051 N1054 1.384 . S
C1052 H1043 0.929 . S
C1052 C1044 1.378 . S
C1052 C1047 1.350 . S
C1053 H1040 0.929 . S
C1053 C1045 1.433 . S
C1053 N1055 1.384 . S
N1054 C1050 1.427 . S
N1054 C1051 1.384 . S
N1055 C1047 1.427 1_545 S
N1055 C1053 1.384 . S
H1056 C1062 0.930 . S
H1057 C1066 0.930 . S
H1058 C1071 0.929 . S
H1059 C1069 0.929 . S
H1060 C1064 0.929 . S
H1061 C1070 0.929 . S
C1062 H1056 0.930 . S
C1062 C1063 1.367 . S
C1062 C1070 1.378 . S
C1063 C1062 1.367 . S
C1063 C1071 1.433 . S
C1064 H1060 0.929 . S
C1064 C1066 1.378 . S
C1064 C1068 1.350 . S
C1065 C1068 1.463 . S
C1065 C1070 1.350 . S
C1065 N1073 1.427 . S
C1066 H1057 0.930 . S
C1066 C1064 1.378 . S
C1066 C1067 1.367 . S
C1067 C1066 1.367 . S
C1067 C1069 1.433 . S
C1068 C1064 1.350 . S
C1068 C1065 1.463 . S
C1068 N1072 1.427 . S
C1069 H1059 0.929 . S
C1069 C1067 1.433 . S
C1069 N1072 1.384 . S
C1070 H1061 0.929 . S
C1070 C1062 1.378 . S
C1070 C1065 1.350 . S
C1071 H1058 0.929 . S
C1071 C1063 1.433 . S
C1071 N1073 1.384 . S
N1072 C1068 1.427 . S
N1072 C1069 1.384 . S
N1073 C1065 1.427 . S
N1073 C1071 1.384 . S
H1074 C1080 0.930 . S
H1075 C1084 0.930 . S
H1076 C1089 0.929 . S
H1077 C1087 0.929 . S
H1078 C1082 0.929 . S
H1079 C1088 0.929 . S
C1080 H1074 0.930 . S
C1080 C1081 1.367 . S
C1080 C1088 1.378 . S
C1081 C1080 1.367 . S
C1081 C1089 1.433 . S
C1082 H1078 0.929 . S
C1082 C1084 1.378 . S
C1082 C1086 1.350 . S
C1083 C1086 1.463 . S
C1083 C1088 1.350 . S
C1083 N1091 1.427 . S
C1084 H1075 0.930 . S
C1084 C1082 1.378 . S
C1084 C1085 1.367 . S
C1085 C1084 1.367 . S
C1085 C1087 1.433 . S
C1086 C1082 1.350 . S
C1086 C1083 1.463 . S
C1086 N1090 1.427 . S
C1087 H1077 0.929 . S
C1087 C1085 1.433 . S
C1087 N1090 1.384 . S
C1088 H1079 0.929 . S
C1088 C1080 1.378 . S
C1088 C1083 1.350 . S
C1089 H1076 0.929 . S
C1089 C1081 1.433 . S
C1089 N1091 1.384 . S
N1090 C1086 1.427 . S
N1090 C1087 1.384 . S
N1091 C1083 1.427 . S
N1091 C1089 1.384 . S
H1092 C1098 0.930 . S
H1093 C1102 0.930 . S
H1094 C1107 0.929 . S
H1095 C1105 0.929 . S
H1096 C1100 0.929 . S
H1097 C1106 0.929 . S
C1098 H1092 0.930 . S
C1098 C1099 1.367 . S
C1098 C1106 1.378 . S
C1099 C1098 1.367 . S
C1099 C1107 1.433 . S
C1100 H1096 0.929 . S
C1100 C1102 1.378 . S
C1100 C1104 1.350 . S
C1101 C1104 1.463 . S
C1101 C1106 1.350 . S
C1101 N1109 1.427 . S
C1102 H1093 0.930 . S
C1102 C1100 1.378 . S
C1102 C1103 1.367 . S
C1103 C1102 1.367 . S
C1103 C1105 1.433 . S
C1104 C1100 1.350 . S
C1104 C1101 1.463 . S
C1104 N1108 1.427 . S
C1105 H1095 0.929 . S
C1105 C1103 1.433 . S
C1105 N1108 1.384 . S
C1106 H1097 0.929 . S
C1106 C1098 1.378 . S
C1106 C1101 1.350 . S
C1107 H1094 0.929 . S
C1107 C1099 1.433 . S
C1107 N1109 1.384 . S
N1108 C1104 1.427 . S
N1108 C1105 1.384 . S
N1109 C1101 1.427 . S
N1109 C1107 1.384 . S
H1110 C1116 0.930 . S
H1111 C1120 0.930 . S
H1112 C1125 0.929 . S
H1113 C1123 0.929 . S
H1114 C1118 0.929 . S
H1115 C1124 0.929 . S
C1116 H1110 0.930 . S
C1116 C1117 1.367 . S
C1116 C1124 1.378 . S
C1117 C1116 1.367 . S
C1117 C1125 1.433 . S
C1118 H1114 0.929 . S
C1118 C1120 1.378 . S
C1118 C1122 1.350 . S
C1119 C1122 1.463 . S
C1119 C1124 1.350 . S
C1119 N1127 1.427 . S
C1120 H1111 0.930 . S
C1120 C1118 1.378 . S
C1120 C1121 1.367 . S
C1121 C1120 1.367 . S
C1121 C1123 1.433 . S
C1122 C1118 1.350 . S
C1122 C1119 1.463 . S
C1122 N1126 1.427 . S
C1123 H1113 0.929 . S
C1123 C1121 1.433 . S
C1123 N1126 1.384 . S
C1124 H1115 0.929 . S
C1124 C1116 1.378 . S
C1124 C1119 1.350 . S
C1125 H1112 0.929 . S
C1125 C1117 1.433 . S
C1125 N1127 1.384 . S
N1126 C1122 1.427 . S
N1126 C1123 1.384 . S
N1127 C1119 1.427 . S
N1127 C1125 1.384 . S
H1128 C1134 0.930 . S
H1129 C1138 0.930 . S
H1130 C1143 0.929 . S
H1131 C1141 0.929 1_556 S
H1132 C1136 0.929 . S
H1133 C1142 0.929 . S
C1134 H1128 0.930 . S
C1134 C1135 1.367 . S
C1134 C1142 1.378 . S
C1135 C1134 1.367 . S
C1135 C1143 1.433 . S
C1136 H1132 0.929 . S
C1136 C1138 1.378 . S
C1136 C1140 1.350 . S
C1137 C1140 1.463 . S
C1137 C1142 1.350 . S
C1137 N1145 1.427 . S
C1138 H1129 0.930 . S
C1138 C1136 1.378 . S
C1138 C1139 1.367 . S
C1139 C1138 1.367 . S
C1139 C1141 1.433 . S
C1140 C1136 1.350 . S
C1140 C1137 1.463 . S
C1140 N1144 1.427 . S
C1141 H1131 0.929 1_554 S
C1141 C1139 1.433 . S
C1141 N1144 1.384 . S
C1142 H1133 0.929 . S
C1142 C1134 1.378 . S
C1142 C1137 1.350 . S
C1143 H1130 0.929 . S
C1143 C1135 1.433 . S
C1143 N1145 1.384 . S
N1144 C1140 1.427 . S
N1144 C1141 1.384 . S
N1145 C1137 1.427 . S
N1145 C1143 1.384 . S
H1146 C1152 0.930 . S
H1147 C1156 0.930 . S
H1148 C1161 0.929 . S
H1149 C1159 0.929 . S
H1150 C1154 0.929 . S
H1151 C1160 0.929 . S
C1152 H1146 0.930 . S
C1152 C1153 1.367 . S
C1152 C1160 1.378 . S
C1153 C1152 1.367 . S
C1153 C1161 1.433 . S
C1154 H1150 0.929 . S
C1154 C1156 1.378 . S
C1154 C1158 1.350 . S
C1155 C1158 1.463 . S
C1155 C1160 1.350 . S
C1155 N1163 1.427 . S
C1156 H1147 0.930 . S
C1156 C1154 1.378 . S
C1156 C1157 1.367 . S
C1157 C1156 1.367 . S
C1157 C1159 1.433 . S
C1158 C1154 1.350 . S
C1158 C1155 1.463 . S
C1158 N1162 1.427 . S
C1159 H1149 0.929 . S
C1159 C1157 1.433 . S
C1159 N1162 1.384 . S
C1160 H1151 0.929 . S
C1160 C1152 1.378 . S
C1160 C1155 1.350 . S
C1161 H1148 0.929 . S
C1161 C1153 1.433 . S
C1161 N1163 1.384 . S
N1162 C1158 1.427 . S
N1162 C1159 1.384 . S
N1163 C1155 1.427 . S
N1163 C1161 1.384 . S
H1164 C1170 0.930 . S
H1165 C1174 0.930 . S
H1166 C1179 0.929 . S
H1167 C1177 0.929 . S
H1168 C1172 0.929 . S
H1169 C1178 0.929 . S
C1170 H1164 0.930 . S
C1170 C1171 1.367 . S
C1170 C1178 1.378 . S
C1171 C1170 1.367 . S
C1171 C1179 1.433 . S
C1172 H1168 0.929 . S
C1172 C1174 1.378 . S
C1172 C1176 1.350 . S
C1173 C1176 1.463 . S
C1173 C1178 1.350 . S
C1173 N1181 1.427 . S
C1174 H1165 0.930 . S
C1174 C1172 1.378 . S
C1174 C1175 1.367 . S
C1175 C1174 1.367 . S
C1175 C1177 1.433 . S
C1176 C1172 1.350 . S
C1176 C1173 1.463 . S
C1176 N1180 1.427 . S
C1177 H1167 0.929 . S
C1177 C1175 1.433 . S
C1177 N1180 1.384 . S
C1178 H1169 0.929 . S
C1178 C1170 1.378 . S
C1178 C1173 1.350 . S
C1179 H1166 0.929 . S
C1179 C1171 1.433 . S
C1179 N1181 1.384 . S
N1180 C1176 1.427 . S
N1180 C1177 1.384 . S
N1181 C1173 1.427 . S
N1181 C1179 1.384 . S
H1182 C1188 0.930 . S
H1183 C1192 0.930 . S
H1184 C1197 0.929 . S
H1185 C1195 0.929 1_655 S
H1186 C1190 0.929 . S
H1187 C1196 0.929 . S
C1188 H1182 0.930 . S
C1188 C1189 1.367 . S
C1188 C1196 1.378 . S
C1189 C1188 1.367 . S
C1189 C1197 1.433 . S
C1190 H1186 0.929 . S
C1190 C1192 1.378 . S
C1190 C1194 1.350 . S
C1191 C1194 1.463 . S
C1191 C1196 1.350 . S
C1191 N1199 1.427 . S
C1192 H1183 0.930 . S
C1192 C1190 1.378 . S
C1192 C1193 1.367 . S
C1193 C1192 1.367 . S
C1193 C1195 1.433 . S
C1194 C1190 1.350 . S
C1194 C1191 1.463 . S
C1194 N1198 1.427 . S
C1195 H1185 0.929 1_455 S
C1195 C1193 1.433 . S
C1195 N1198 1.384 . S
C1196 H1187 0.929 . S
C1196 C1188 1.378 . S
C1196 C1191 1.350 . S
C1197 H1184 0.929 . S
C1197 C1189 1.433 . S
C1197 N1199 1.384 . S
N1198 C1194 1.427 . S
N1198 C1195 1.384 . S
N1199 C1191 1.427 . S
N1199 C1197 1.384 . S
H1200 C1206 0.930 . S
H1201 C1210 0.930 . S
H1202 C1215 0.929 . S
H1203 C1213 0.929 . S
H1204 C1208 0.929 . S
H1205 C1214 0.929 . S
C1206 H1200 0.930 . S
C1206 C1207 1.367 . S
C1206 C1214 1.378 . S
C1207 C1206 1.367 . S
C1207 C1215 1.433 . S
C1208 H1204 0.929 . S
C1208 C1210 1.378 . S
C1208 C1212 1.350 . S
C1209 C1212 1.463 . S
C1209 C1214 1.350 . S
C1209 N1217 1.427 . S
C1210 H1201 0.930 . S
C1210 C1208 1.378 . S
C1210 C1211 1.367 . S
C1211 C1210 1.367 . S
C1211 C1213 1.433 . S
C1212 C1208 1.350 . S
C1212 C1209 1.463 . S
C1212 N1216 1.427 . S
C1213 H1203 0.929 . S
C1213 C1211 1.433 . S
C1213 N1216 1.384 . S
C1214 H1205 0.929 . S
C1214 C1206 1.378 . S
C1214 C1209 1.350 . S
C1215 H1202 0.929 . S
C1215 C1207 1.433 . S
C1215 N1217 1.384 . S
N1216 C1212 1.427 . S
N1216 C1213 1.384 . S
N1217 C1209 1.427 . S
N1217 C1215 1.384 . S
H1218 C1224 0.930 . S
H1219 C1228 0.930 . S
H1220 C1233 0.929 . S
H1221 C1231 0.926 1_545 S
H1222 C1226 0.929 . S
H1223 C1232 0.929 . S
C1224 H1218 0.930 . S
C1224 C1225 1.367 . S
C1224 C1232 1.378 . S
C1225 C1224 1.367 . S
C1225 C1233 1.433 . S
C1226 H1222 0.929 . S
C1226 C1228 1.378 . S
C1226 C1230 1.350 . S
C1227 C1230 1.463 . S
C1227 C1232 1.350 . S
C1227 N1235 1.427 . S
C1228 H1219 0.930 . S
C1228 C1226 1.378 . S
C1228 C1229 1.367 1_565 S
C1229 C1228 1.367 1_545 S
C1229 C1231 1.434 1_545 S
C1230 C1226 1.350 . S
C1230 C1227 1.463 . S
C1230 N1234 1.427 . S
C1231 H1221 0.926 1_565 S
C1231 C1229 1.434 1_565 S
C1231 N1234 1.386 . S
C1232 H1223 0.929 . S
C1232 C1224 1.378 . S
C1232 C1227 1.350 . S
C1233 H1220 0.929 . S
C1233 C1225 1.433 . S
C1233 N1235 1.384 . S
N1234 C1230 1.427 . S
N1234 C1231 1.386 . S
N1235 C1227 1.427 . S
N1235 C1233 1.384 . S
H1236 C1242 0.930 . S
H1237 C1246 0.930 . S
H1238 C1251 0.929 . S
H1239 C1249 0.929 . S
H1240 C1244 0.929 . S
H1241 C1250 0.929 . S
C1242 H1236 0.930 . S
C1242 C1243 1.367 . S
C1242 C1250 1.378 . S
C1243 C1242 1.367 . S
C1243 C1251 1.433 . S
C1244 H1240 0.929 . S
C1244 C1246 1.378 1_556 S
C1244 C1248 1.350 . S
C1245 C1248 1.463 . S
C1245 C1250 1.350 . S
C1245 N1253 1.427 . S
C1246 H1237 0.930 . S
C1246 C1244 1.378 1_554 S
C1246 C1247 1.367 . S
C1247 C1246 1.367 . S
C1247 C1249 1.433 . S
C1248 C1244 1.350 . S
C1248 C1245 1.463 . S
C1248 N1252 1.427 1_556 S
C1249 H1239 0.929 . S
C1249 C1247 1.433 . S
C1249 N1252 1.384 . S
C1250 H1241 0.929 . S
C1250 C1242 1.378 . S
C1250 C1245 1.350 . S
C1251 H1238 0.929 . S
C1251 C1243 1.433 . S
C1251 N1253 1.384 . S
N1252 C1248 1.427 1_554 S
N1252 C1249 1.384 . S
N1253 C1245 1.427 . S
N1253 C1251 1.384 . S
H1254 C1260 0.930 . S
H1255 C1264 0.930 . S
H1256 C1269 0.929 . S
H1257 C1267 0.929 . S
H1258 C1262 0.929 . S
H1259 C1268 0.929 . S
C1260 H1254 0.930 . S
C1260 C1261 1.367 . S
C1260 C1268 1.378 . S
C1261 C1260 1.367 . S
C1261 C1269 1.433 1_565 S
C1262 H1258 0.929 . S
C1262 C1264 1.378 . S
C1262 C1266 1.350 . S
C1263 C1266 1.463 . S
C1263 C1268 1.350 1_545 S
C1263 N1271 1.427 . S
C1264 H1255 0.930 . S
C1264 C1262 1.378 . S
C1264 C1265 1.367 . S
C1265 C1264 1.367 . S
C1265 C1267 1.433 . S
C1266 C1262 1.350 . S
C1266 C1263 1.463 . S
C1266 N1270 1.427 . S
C1267 H1257 0.929 . S
C1267 C1265 1.433 . S
C1267 N1270 1.384 . S
C1268 H1259 0.929 . S
C1268 C1260 1.378 . S
C1268 C1263 1.350 1_565 S
C1269 H1256 0.929 . S
C1269 C1261 1.433 1_545 S
C1269 N1271 1.384 . S
N1270 C1266 1.427 . S
N1270 C1267 1.384 . S
N1271 C1263 1.427 . S
N1271 C1269 1.384 . S
H1272 C1278 0.930 . S
H1273 C1282 0.930 . S
H1274 C1287 0.929 . S
H1275 C1285 0.929 . S
H1276 C1280 0.929 . S
H1277 C1286 0.929 . S
C1278 H1272 0.930 . S
C1278 C1279 1.367 . S
C1278 C1286 1.378 . S
C1279 C1278 1.367 . S
C1279 C1287 1.433 . S
C1280 H1276 0.929 . S
C1280 C1282 1.378 . S
C1280 C1284 1.350 . S
C1281 C1284 1.463 . S
C1281 C1286 1.350 . S
C1281 N1289 1.427 . S
C1282 H1273 0.930 . S
C1282 C1280 1.378 . S
C1282 C1283 1.367 . S
C1283 C1282 1.367 . S
C1283 C1285 1.433 . S
C1284 C1280 1.350 . S
C1284 C1281 1.463 . S
C1284 N1288 1.427 . S
C1285 H1275 0.929 . S
C1285 C1283 1.433 . S
C1285 N1288 1.384 . S
C1286 H1277 0.929 . S
C1286 C1278 1.378 . S
C1286 C1281 1.350 . S
C1287 H1274 0.929 . S
C1287 C1279 1.433 . S
C1287 N1289 1.384 . S
N1288 C1284 1.427 . S
N1288 C1285 1.384 . S
N1289 C1281 1.427 . S
N1289 C1287 1.384 . S
H1290 C1296 0.930 . S
H1291 C1300 0.930 . S
H1292 C1305 0.929 . S
H1293 C1303 0.929 . S
H1294 C1298 0.929 . S
H1295 C1304 0.929 . S
C1296 H1290 0.930 . S
C1296 C1297 1.367 . S
C1296 C1304 1.378 . S
C1297 C1296 1.367 . S
C1297 C1305 1.433 . S
C1298 H1294 0.929 . S
C1298 C1300 1.378 1_545 S
C1298 C1302 1.350 . S
C1299 C1302 1.463 . S
C1299 C1304 1.350 . S
C1299 N1307 1.427 . S
C1300 H1291 0.930 . S
C1300 C1298 1.378 1_565 S
C1300 C1301 1.367 . S
C1301 C1300 1.367 . S
C1301 C1303 1.433 1_565 S
C1302 C1298 1.350 . S
C1302 C1299 1.463 . S
C1302 N1306 1.427 . S
C1303 H1293 0.929 . S
C1303 C1301 1.433 1_545 S
C1303 N1306 1.384 . S
C1304 H1295 0.929 . S
C1304 C1296 1.378 . S
C1304 C1299 1.350 . S
C1305 H1292 0.929 . S
C1305 C1297 1.433 . S
C1305 N1307 1.384 . S
N1306 C1302 1.427 . S
N1306 C1303 1.384 . S
N1307 C1299 1.427 . S
N1307 C1305 1.384 . S
H1308 C1314 0.930 . S
H1309 C1318 0.930 . S
H1310 C1323 0.929 . S
H1311 C1321 0.929 . S
H1312 C1316 0.927 1_554 S
H1313 C1322 0.929 . S
C1314 H1308 0.930 . S
C1314 C1315 1.367 . S
C1314 C1322 1.378 . S
C1315 C1314 1.367 . S
C1315 C1323 1.433 . S
C1316 H1312 0.927 1_556 S
C1316 C1318 1.378 . S
C1316 C1320 1.350 1_556 S
C1317 C1320 1.463 . S
C1317 C1322 1.350 . S
C1317 N1325 1.427 . S
C1318 H1309 0.930 . S
C1318 C1316 1.378 . S
C1318 C1319 1.367 . S
C1319 C1318 1.367 . S
C1319 C1321 1.433 . S
C1320 C1316 1.350 1_554 S
C1320 C1317 1.463 . S
C1320 N1324 1.427 . S
C1321 H1311 0.929 . S
C1321 C1319 1.433 . S
C1321 N1324 1.384 1_556 S
C1322 H1313 0.929 . S
C1322 C1314 1.378 . S
C1322 C1317 1.350 . S
C1323 H1310 0.929 . S
C1323 C1315 1.433 . S
C1323 N1325 1.384 . S
N1324 C1320 1.427 . S
N1324 C1321 1.384 1_554 S
N1325 C1317 1.427 . S
N1325 C1323 1.384 . S
H1326 C1332 0.930 . S
H1327 C1336 0.930 . S
H1328 C1341 0.929 . S
H1329 C1339 0.929 . S
H1330 C1334 0.929 . S
H1331 C1340 0.929 . S
C1332 H1326 0.930 . S
C1332 C1333 1.367 . S
C1332 C1340 1.378 . S
C1333 C1332 1.367 . S
C1333 C1341 1.433 . S
C1334 H1330 0.929 . S
C1334 C1336 1.378 1_565 S
C1334 C1338 1.350 . S
C1335 C1338 1.463 . S
C1335 C1340 1.350 . S
C1335 N1343 1.427 . S
C1336 H1327 0.930 . S
C1336 C1334 1.378 1_545 S
C1336 C1337 1.367 . S
C1337 C1336 1.367 . S
C1337 C1339 1.433 1_545 S
C1338 C1334 1.350 . S
C1338 C1335 1.463 . S
C1338 N1342 1.427 . S
C1339 H1329 0.929 . S
C1339 C1337 1.433 1_565 S
C1339 N1342 1.384 . S
C1340 H1331 0.929 . S
C1340 C1332 1.378 . S
C1340 C1335 1.350 . S
C1341 H1328 0.929 . S
C1341 C1333 1.433 . S
C1341 N1343 1.384 . S
N1342 C1338 1.427 . S
N1342 C1339 1.384 . S
N1343 C1335 1.427 . S
N1343 C1341 1.384 . S
C487 C10 0.280 . S
C491 C301 0.418 . S
C505 C40 0.129 . S
C509 C340 0.129 . S
C523 C61 0.431 . S
C527 C250 0.315 . S
C541 C280 0.166 . S
C545 C100 0.120 . S
C559 C121 0.304 . S
C563 C430 0.449 . S
C577 C451 0.117 . S
C581 C151 0.167 . S
C595 C361 0.302 . S
C599 C190 0.448 . S
C613 C211 0.129 . S
C617 C391 0.129 . S
C631 C16 2.511 . S
C635 C147 2.511 . S
C649 C46 2.195 . S
C653 C417 2.195 . S
C667 N74 1.781 . S
C671 N186 1.781 . S
C685 C106 2.688 . S
C689 C477 2.688 . S
C703 C177 2.194 . S
C707 C286 2.194 . S
C721 C346 2.685 . S
C725 C237 2.685 . S
C739 C387 2.511 . S
C743 C256 2.511 . S
C757 N314 1.776 . S
C761 N426 1.776 . S
C775 C27 1.929 . S
C779 C220 1.927 . S
C793 C57 1.783 . S
C797 C370 1.740 . S
C811 N66 1.269 . S
C815 C160 1.268 . S
C829 C117 1.743 1_455 S
C833 C421 1.705 . S
C847 C91 1.923 . S
C851 C136 1.932 . S
C865 C166 1.784 . S
C869 C241 1.741 . S
C883 N194 1.273 . S
C887 C31 1.257 . S
C901 C310 1.707 . S
C905 C226 1.742 1_655 S
C919 C267 1.930 . S
C923 C460 1.927 1_565 S
C937 C130 1.744 . S
C941 C297 1.784 1_655 S
C955 C400 1.256 1_545 S
C959 N306 1.273 . S
C973 C181 1.706 . S
C977 C357 1.744 . S
C991 C376 1.931 . S
C995 C331 1.923 1_545 S
C1009 C406 1.784 1_455 S
C1013 C1 1.744 . S
C1027 C271 1.270 1_565 S
C1031 N434 1.265 . S
C1045 C466 1.744 . S
C1049 C70 1.715 . S
C1063 N6 1.201 1_556 S
C1067 N284 1.282 . S
C1081 C316 1.561 . S
C1085 N36 1.435 . S
C1099 C87 1.484 . S
C1103 N344 1.482 . S
C1117 N254 1.246 . S
C1121 N96 1.170 . S
C1135 N396 1.294 . S
C1139 N134 1.221 1_554 S
C1153 C447 1.562 . S
C1157 N164 1.435 . S
C1171 N456 1.491 . S
C1175 C196 1.491 . S
C1189 N366 1.250 . S
C1193 N224 1.178 . S
C1207 N44 1.295 . S
C1211 N246 1.222 . S
C1225 C76 1.554 . S
C1229 N276 1.413 . S
C1243 N104 1.490 . S
C1247 C327 1.490 . S
C1261 N336 1.190 . S
C1265 N14 1.259 . S
C1279 N156 1.281 . S
C1283 N374 1.201 . S
C1297 C207 1.562 . S
C1301 N404 1.436 . S
C1315 N216 1.482 . S
C1319 C436 1.482 . S
C1333 N126 1.249 . S
C1337 N464 1.176 . S
