# Generated by pormake.
# Topology zfu, (5)-cn, num edge types: 1
# Building blocks:
#     Node 0, Type 0, BuildingBlock: XOMCOT_clean_sbu_0, # of connection points: 5
#     Node 1, Type 0, BuildingBlock: XOMCOT_clean_sbu_0, # of connection points: 5
#     Node 2, Type 0, BuildingBlock: XOMCOT_clean_sbu_0, # of connection points: 5
#     Node 3, Type 0, BuildingBlock: XOMCOT_clean_sbu_0, # of connection points: 5
#     Node 4, Type 0, BuildingBlock: XOMCOT_clean_sbu_0, # of connection points: 5
#     Node 5, Type 0, BuildingBlock: XOMCOT_clean_sbu_0, # of connection points: 5
#     Node 6, Type 0, BuildingBlock: XOMCOT_clean_sbu_0, # of connection points: 5
#     Node 7, Type 0, BuildingBlock: XOMCOT_clean_sbu_0, # of connection points: 5
#     Edge 8, Type (0, 0), BuildingBlock: AJUNOK_clean_linker_0, # of connection points: 2
#     Edge 9, Type (0, 0), BuildingBlock: AJUNOK_clean_linker_0, # of connection points: 2
#     Edge 10, Type (0, 0), BuildingBlock: AJUNOK_clean_linker_0, # of connection points: 2
#     Edge 11, Type (0, 0), BuildingBlock: AJUNOK_clean_linker_0, # of connection points: 2
#     Edge 12, Type (0, 0), BuildingBlock: AJUNOK_clean_linker_0, # of connection points: 2
#     Edge 13, Type (0, 0), BuildingBlock: AJUNOK_clean_linker_0, # of connection points: 2
#     Edge 14, Type (0, 0), BuildingBlock: AJUNOK_clean_linker_0, # of connection points: 2
#     Edge 15, Type (0, 0), BuildingBlock: AJUNOK_clean_linker_0, # of connection points: 2
#     Edge 16, Type (0, 0), BuildingBlock: AJUNOK_clean_linker_0, # of connection points: 2
#     Edge 17, Type (0, 0), BuildingBlock: AJUNOK_clean_linker_0, # of connection points: 2
#     Edge 18, Type (0, 0), BuildingBlock: AJUNOK_clean_linker_0, # of connection points: 2
#     Edge 19, Type (0, 0), BuildingBlock: AJUNOK_clean_linker_0, # of connection points: 2
#     Edge 20, Type (0, 0), BuildingBlock: AJUNOK_clean_linker_0, # of connection points: 2
#     Edge 21, Type (0, 0), BuildingBlock: AJUNOK_clean_linker_0, # of connection points: 2
#     Edge 22, Type (0, 0), BuildingBlock: AJUNOK_clean_linker_0, # of connection points: 2
#     Edge 23, Type (0, 0), BuildingBlock: AJUNOK_clean_linker_0, # of connection points: 2
#     Edge 24, Type (0, 0), BuildingBlock: AJUNOK_clean_linker_0, # of connection points: 2
#     Edge 25, Type (0, 0), BuildingBlock: AJUNOK_clean_linker_0, # of connection points: 2
#     Edge 26, Type (0, 0), BuildingBlock: AJUNOK_clean_linker_0, # of connection points: 2
#     Edge 27, Type (0, 0), BuildingBlock: AJUNOK_clean_linker_0, # of connection points: 2
# Relax obj value: 0.185
# Max RMSD: 0.196
# Mean RMSD: 0.196
data_MOF--net-zfu--node1-XOMCOT_clean_sbu_0--edge1-AJUNOK_clean_linker_0
_symmetry_space_group_name_H-M    P1
_symmetry_Int_Tables_number       1
_symmetry_cell_setting            triclinic
loop_
_symmetry_equiv_pos_as_xyz
'x, y, z'
_cell_length_a     30.922909
_cell_length_b     30.790672
_cell_length_c     18.842289
_cell_angle_alpha  89.459479
_cell_angle_beta   89.581953
_cell_angle_gamma 89.933575
loop_
_atom_site_label
_atom_site_type_symbol
_atom_site_fract_x
_atom_site_fract_y
_atom_site_fract_z
_atom_type_partial_charge
Co0 Co 0.47489 0.78437 0.97957 0.0
C1 C 0.5399 0.7115 1.01558 0.0
C2 C 0.5353 0.72996 0.90612 0.0
C3 C 0.56555 0.69765 0.91161 0.0
N4 N 0.51865 0.73882 0.97085 0.0
N5 N 0.56827 0.68577 0.98022 0.0
H6 H 0.53523 0.70964 0.07218 0.0
H7 H 0.52598 0.74636 0.85757 0.0
C8 C 0.43053 0.71376 0.90288 0.0
O9 O 0.44862 0.68708 0.94869 0.0
N10 N 0.43245 0.83053 0.97743 0.0
C11 C 0.40657 0.84732 0.02809 0.0
C12 C 0.37969 0.87786 0.99652 0.0
C13 C 0.42165 0.85145 0.91672 0.0
N14 N 0.38947 0.88023 0.92661 0.0
C15 C 0.46528 0.7502 0.1189 0.0
C16 C 0.37875 0.72883 0.11521 0.0
C17 C 0.40168 0.72311 0.17876 0.0
C18 C 0.44536 0.73409 0.17976 0.0
C19 C 0.40035 0.74488 0.05436 0.0
N20 N 0.4436 0.75438 0.05628 0.0
H21 H 0.4983 0.76069 0.12358 0.0
H22 H 0.38194 0.75114 1.00682 0.0
H23 H 0.40674 0.8378 0.08349 0.0
H24 H 0.4365 0.84494 0.86571 0.0
O25 O 0.51056 0.8171 0.0413 0.0
O26 O 0.51457 0.82253 0.92455 0.0
O27 O 0.43961 0.75436 0.90426 0.0
C28 C 0.52868 0.83455 0.98665 0.0
H29 H 0.58494 0.68474 0.86863 0.0
H30 H 0.35514 0.89706 1.02288 0.0
H31 H 0.34463 0.72116 0.11269 0.0
H32 H 0.46394 0.7313 0.22815 0.0
Co33 Co 0.76281 0.97294 0.21551 0.0
C34 C 0.83733 0.02893 0.26372 0.0
C35 C 0.83616 1.01706 0.15188 0.0
C36 C 0.86919 0.04544 0.165 0.0
N37 N 0.81625 1.00611 0.21355 0.0
N38 N 0.87 0.0527 0.23511 0.0
H39 H 0.82806 0.03028 0.31895 0.0
H40 H 0.82613 1.00674 0.09988 0.0
C41 C 0.7756 0.90409 0.09996 0.0
O42 O 0.74014 0.88411 0.11986 0.0
N43 N 0.70824 0.94192 0.21096 0.0
C44 C 0.69168 0.91056 0.25352 0.0
C45 C 0.65594 0.89308 0.22056 0.0
C46 C 0.68103 0.94466 0.15507 0.0
N47 N 0.64956 0.91456 0.15876 0.0
C48 C 0.7917 0.94693 0.35259 0.0
C49 C 0.8061 0.85998 0.32861 0.0
C50 C 0.81064 0.87583 0.39778 0.0
C51 C 0.8039 0.92011 0.40868 0.0
C52 C 0.7945 0.88837 0.27306 0.0
N53 N 0.78671 0.93149 0.28531 0.0
H54 H 0.78529 0.9803 0.36494 0.0
H55 H 0.79042 0.87459 0.22174 0.0
H56 H 0.70586 0.89919 0.30255 0.0
H57 H 0.6872 0.96466 0.10854 0.0
O58 O 0.73739 1.01074 0.28409 0.0
O59 O 0.7341 0.02305 0.16878 0.0
O60 O 0.78798 0.9385 0.13194 0.0
C61 C 0.72396 0.03514 0.23319 0.0
H62 H 0.89065 0.06014 0.12602 0.0
H63 H 0.63769 0.86499 0.23839 0.0
H64 H 0.81036 0.8258 0.31758 0.0
H65 H 0.8078 0.93423 0.4607 0.0
Co66 Co 0.5726 0.26024 0.48434 0.0
C67 C 0.51239 0.32983 0.53779 0.0
C68 C 0.52363 0.3311 0.42505 0.0
C69 C 0.49354 0.36222 0.44069 0.0
N70 N 0.53569 0.31087 0.48551 0.0
N71 N 0.48646 0.36136 0.51115 0.0
H72 H 0.51303 0.31974 0.59296 0.0
H73 H 0.53464 0.3225 0.37244 0.0
C74 C 0.64904 0.2934 0.406 0.0
O75 O 0.67151 0.27324 0.45525 0.0
N76 N 0.60819 0.20788 0.47365 0.0
C77 C 0.60842 0.17132 0.51406 0.0
C78 C 0.62716 0.13798 0.47616 0.0
C79 C 0.62539 0.19508 0.41058 0.0
N80 N 0.63803 0.15321 0.41129 0.0
C81 C 0.61933 0.26151 0.61435 0.0
C82 C 0.63661 0.3495 0.61461 0.0
C83 C 0.64541 0.32461 0.67556 0.0
C84 C 0.63753 0.27998 0.67419 0.0
C85 C 0.61877 0.3295 0.55507 0.0
N86 N 0.60984 0.28595 0.55572 0.0
H87 H 0.61032 0.22796 0.61755 0.0
H88 H 0.61035 0.34938 0.50962 0.0
H89 H 0.59252 0.16743 0.56493 0.0
H90 H 0.62513 0.21461 0.36263 0.0
O91 O 0.53581 0.23146 0.55171 0.0
O92 O 0.52568 0.22875 0.43587 0.0
O93 O 0.60766 0.28972 0.40536 0.0
C94 C 0.51308 0.21729 0.49997 0.0
H95 H 0.47713 0.38321 0.4031 0.0
H96 H 0.6305 0.10455 0.4936 0.0
H97 H 0.64268 0.38413 0.61347 0.0
H98 H 0.64336 0.25975 0.72052 0.0
Co99 Co 0.27612 0.07749 0.74853 0.0
C100 C 0.20365 1.02008 0.80175 0.0
C101 C 0.20026 0.03713 0.69108 0.0
C102 C 0.16898 1.00693 0.7054 0.0
N103 N 0.22212 0.04562 0.75103 0.0
N104 N 0.1712 0.99601 0.77449 0.0
H105 H 0.21534 1.01707 0.85559 0.0
H106 H 0.20834 0.0498 0.63898 0.0
C107 C 0.24985 0.15699 0.67012 0.0
O108 O 0.2713 0.17809 0.71887 0.0
N109 N 0.3317 0.10768 0.73664 0.0
C110 C 0.36788 0.10315 0.77596 0.0
C111 C 0.4029 0.11912 0.73812 0.0
C112 C 0.3463 0.12475 0.67401 0.0
N113 N 0.3892 0.13286 0.67405 0.0
C114 C 0.27946 0.12555 0.87794 0.0
C115 C 0.1933 0.14932 0.88108 0.0
C116 C 0.21874 0.15644 0.94117 0.0
C117 C 0.26258 0.14551 0.93823 0.0
C118 C 0.2117 0.12982 0.82109 0.0
N119 N 0.25423 0.11742 0.82041 0.0
H120 H 0.3122 0.11413 0.87997 0.0
H121 H 0.19118 0.12284 0.77642 0.0
H122 H 0.36989 0.086 0.82611 0.0
H123 H 0.32692 0.12767 0.62672 0.0
O124 O 0.30065 0.03746 0.81514 0.0
O125 O 0.30219 0.02756 0.69899 0.0
O126 O 0.25054 0.11531 0.67003 0.0
C127 C 0.31163 1.01317 0.76274 0.0
H128 H 0.1472 0.9927 0.66736 0.0
H129 H 0.43625 0.11882 0.75523 0.0
H130 H 0.15927 0.15769 0.88115 0.0
H131 H 0.28316 0.15003 0.98386 0.0
Co132 Co 0.96556 0.76503 0.85416 0.0
C133 C 0.03362 0.83489 0.84345 0.0
C134 C 0.96896 0.85981 0.84526 0.0
C135 C 0.99708 0.89428 0.84636 0.0
N136 N 0.99171 0.82237 0.84346 0.0
N137 N 0.03772 0.87858 0.84594 0.0
H138 H 0.06056 0.81292 0.84273 0.0
H139 H 0.93404 0.86193 0.84642 0.0
C140 C 0.88875 0.78449 0.95173 0.0
O141 O 0.87132 0.74655 0.93964 0.0
N142 N 0.93973 0.70827 0.87128 0.0
C143 C 0.92517 0.67902 0.82443 0.0
C144 C 0.91159 0.64242 0.86153 0.0
C145 C 0.93646 0.68841 0.93563 0.0
N146 N 0.91839 0.6487 0.93137 0.0
C147 C 0.94597 0.79612 0.71783 0.0
C148 C 0.85851 0.77961 0.71244 0.0
C149 C 0.87947 0.79675 0.65201 0.0
C150 C 0.92362 0.80555 0.65607 0.0
C151 C 0.88237 0.77073 0.77428 0.0
N152 N 0.92569 0.77963 0.77692 0.0
H153 H 0.98042 0.80179 0.71757 0.0
H154 H 0.86598 0.75522 0.81775 0.0
H155 H 0.92427 0.68396 0.76756 0.0
H156 H 0.94583 0.70341 0.98492 0.0
O157 O 1.00674 0.73856 0.79183 0.0
O158 O 1.017 0.74397 0.90708 0.0
O159 O 0.92698 0.79346 0.92929 0.0
C160 C 0.0309 0.73004 0.84536 0.0
H161 H 0.98829 0.92833 0.84591 0.0
H162 H 0.89683 0.61383 0.83916 0.0
H163 H 0.82429 0.77222 0.71136 0.0
H164 H 0.94109 0.81989 0.61166 0.0
Co165 Co 0.78369 0.47056 0.12149 0.0
C166 C 0.716 0.53465 0.07194 0.0
C167 C 0.7169 0.52273 0.18442 0.0
C168 C 0.68614 0.55353 0.17076 0.0
N169 N 0.73554 0.51058 0.1229 0.0
N170 N 0.6855 0.56124 0.10034 0.0
H171 H 0.72481 0.53379 1.01627 0.0
H172 H 0.72594 0.51082 0.23639 0.0
C173 C 0.75133 0.39517 0.20472 0.0
O174 O 0.76941 0.3716 0.15498 0.0
N175 N 0.83307 0.43106 0.13052 0.0
C176 C 0.84992 0.3994 0.08924 0.0
C177 C 0.87847 0.37492 0.1291 0.0
C178 C 0.85266 0.42552 0.19416 0.0
N179 N 0.87979 0.39129 0.19505 0.0
C180 C 0.77523 0.4321 0.98616 0.0
C181 C 0.69086 0.40391 0.99951 0.0
C182 C 0.71295 0.39815 0.93491 0.0
C183 C 0.75553 0.41256 0.92883 0.0
C184 C 0.71229 0.42325 0.05663 0.0
N185 N 0.75462 0.43577 0.05018 0.0
H186 H 0.80731 0.44502 0.97814 0.0
H187 H 0.69451 0.42927 0.10515 0.0
H188 H 0.84077 0.39175 0.03589 0.0
H189 H 0.84456 0.44423 0.24076 0.0
O190 O 0.81392 0.50601 0.05383 0.0
O191 O 0.81913 0.51532 0.16921 0.0
O192 O 0.7545 0.43674 0.20223 0.0
C193 C 0.83084 0.52716 0.10492 0.0
H194 H 0.66592 0.56942 0.20986 0.0
H195 H 0.89574 0.34627 0.11172 0.0
H196 H 0.65748 0.39386 1.00556 0.0
H197 H 0.77318 0.4099 0.87916 0.0
Co198 Co 0.06267 0.27776 0.3946 0.0
C199 C 1.01282 0.20024 0.34329 0.0
C200 C 0.02251 0.20188 0.45589 0.0
C201 C 0.99664 0.1672 0.44113 0.0
N202 N 0.03298 0.22253 0.39493 0.0
N203 N 0.99077 0.16563 0.37036 0.0
H204 H 1.01323 0.20982 0.28789 0.0
H205 H 0.031 0.21287 0.5083 0.0
C206 C 0.14156 0.25583 0.47506 0.0
O207 O 0.16225 0.27782 0.42531 0.0
N208 N 0.09028 0.33477 0.40361 0.0
C209 C 0.08684 0.37016 0.36093 0.0
C210 C 0.10361 0.40573 0.39515 0.0
C211 C 0.10634 0.35068 0.46514 0.0
N212 N 0.11527 0.39341 0.46099 0.0
C213 C 0.11193 0.28129 0.26519 0.0
C214 C 0.14087 0.19642 0.26847 0.0
C215 C 0.1479 0.22163 0.20706 0.0
C216 C 0.13415 0.26484 0.20674 0.0
C217 C 0.11903 0.21448 0.3267 0.0
N218 N 0.10429 0.25643 0.32433 0.0
H219 H 0.09847 0.31322 0.26033 0.0
H220 H 0.11229 0.1941 0.37248 0.0
H221 H 0.07132 0.37114 0.30978 0.0
H222 H 0.11081 0.33183 0.51316 0.0
O223 O 0.02319 0.30028 0.32626 0.0
O224 O 1.01172 0.30317 0.44228 0.0
O225 O 0.10008 0.25425 0.47484 0.0
C226 C 0.99835 0.3119 0.37782 0.0
H227 H 0.98103 0.14656 0.48036 0.0
H228 H 0.10716 0.43819 0.37334 0.0
H229 H 0.15118 0.16281 0.27077 0.0
H230 H 0.13831 0.28514 0.15989 0.0
Co231 Co 0.26431 0.57227 0.63085 0.0
C232 C 0.33476 0.50558 0.59338 0.0
C233 C 0.32928 0.52162 0.7033 0.0
C234 C 0.36131 0.49129 0.69641 0.0
N235 N 0.31296 0.53183 0.63888 0.0
N236 N 0.36473 0.48103 0.62758 0.0
H237 H 0.32901 0.50358 0.53718 0.0
H238 H 0.31758 0.53419 0.75322 0.0
C239 C 0.28719 0.6428 0.73967 0.0
O240 O 0.25539 0.6679 0.71892 0.0
N241 N 0.21467 0.61108 0.63202 0.0
C242 C 0.20355 0.64407 0.58817 0.0
C243 C 0.17056 0.66753 0.62003 0.0
C244 C 0.18709 0.61384 0.68804 0.0
N245 N 0.16062 0.64848 0.68283 0.0
C246 C 0.30181 0.58768 0.49536 0.0
C247 C 0.32539 0.67345 0.50746 0.0
C248 C 0.3315 0.65246 0.44239 0.0
C249 C 0.31979 0.60906 0.43731 0.0
C250 C 0.30763 0.65032 0.56564 0.0
N251 N 0.29556 0.60767 0.55924 0.0
H252 H 0.29192 0.5548 0.48686 0.0
H253 H 0.30255 0.66769 0.61383 0.0
H254 H 0.21952 0.65206 0.53854 0.0
H255 H 0.1892 0.59338 0.73492 0.0
O256 O 0.23612 0.53751 0.56236 0.0
O257 O 0.22768 0.52622 0.67665 0.0
O258 O 0.29207 0.60491 0.71296 0.0
C259 C 0.21939 0.51404 0.61167 0.0
H260 H 0.3798 0.47672 0.73905 0.0
H261 H 0.15613 0.6972 0.59997 0.0
H262 H 0.33425 0.70724 0.51331 0.0
H263 H 0.32363 0.59175 0.38782 0.0
C264 C 0.64907 0.63249 0.10068 0.0
C265 C 0.65827 0.59306 0.0662 0.0
C266 C 0.61931 0.66231 0.07285 0.0
C267 C 0.59769 0.65401 1.0092 0.0
H268 H 0.665 0.64028 0.14992 0.0
H269 H 0.61355 0.69235 0.10081 0.0
S270 S 0.60853 0.55472 0.9 0.0
N271 N 0.64242 0.54678 0.96623 0.0
N272 N 0.58643 0.60287 0.91338 0.0
C273 C 0.60665 0.61478 0.97391 0.0
C274 C 0.63701 0.58436 1.00242 0.0
C275 C 0.93884 0.14991 0.27452 0.0
C276 C 0.96226 0.13607 0.33436 0.0
C277 C 0.90821 0.12273 0.24295 0.0
C278 C 0.8997 0.08093 0.27041 0.0
H279 H 0.94356 0.1822 0.25274 0.0
H280 H 0.89067 0.13457 0.19713 0.0
S281 S 0.95599 0.02672 0.41936 0.0
N282 N 0.97786 0.07557 0.41462 0.0
N283 N 0.91916 0.02556 0.35642 0.0
C284 C 0.92345 0.06625 0.32878 0.0
C285 C 0.9551 0.09349 0.36033 0.0
C286 C 0.46766 0.41849 0.59645 0.0
C287 C 0.45488 0.38746 0.5469 0.0
C288 C 0.43794 0.44912 0.62236 0.0
C289 C 0.39465 0.44969 0.59922 0.0
H290 H 0.50109 0.42003 0.61299 0.0
H291 H 0.44902 0.47318 0.6596 0.0
S292 S 0.34468 0.37088 0.47746 0.0
N293 N 0.39607 0.35651 0.48008 0.0
N294 N 0.33991 0.41339 0.52987 0.0
C295 C 0.38134 0.41757 0.55191 0.0
C296 C 0.41156 0.38659 0.52555 0.0
C297 C 0.10896 0.89278 0.79119 0.0
C298 C 0.0768 0.90393 0.84083 0.0
C299 C 0.14245 0.9218 0.77419 0.0
C300 C 0.1454 0.96252 0.80715 0.0
H301 H 0.10636 0.86297 0.7615 0.0
H302 H 0.16474 0.91361 0.73175 0.0
S303 S 0.07403 1.00374 0.94966 0.0
N304 N 0.05339 0.95593 0.92966 0.0
N305 N 0.11673 1.01027 0.89741 0.0
C306 C 0.11597 0.97227 0.86146 0.0
C307 C 0.08149 0.94302 0.87829 0.0
C308 C 0.38647 0.65519 0.34554 0.0
C309 C 0.35027 0.67408 0.37868 0.0
C310 C 0.40195 0.67072 0.2802 0.0
C311 C 0.38167 0.70557 0.24488 0.0
H312 H 0.40264 0.6277 0.37006 0.0
H313 H 0.43005 0.65518 0.25689 0.0
S314 S 0.28589 0.76653 0.30925 0.0
N315 N 0.29444 0.72947 0.37165 0.0
N316 N 0.32389 0.7591 0.24838 0.0
C317 C 0.3455 0.72494 0.27739 0.0
C318 C 0.32984 0.70922 0.34454 0.0
C319 C 0.8029 0.85378 0.52595 0.0
C320 C 0.82301 0.84766 0.45924 0.0
C321 C 0.81925 0.83436 0.58787 0.0
C322 C 0.85617 0.80783 0.5854 0.0
H323 H 0.77545 0.87545 0.53092 0.0
H324 H 0.80456 0.84248 0.63841 0.0
S325 S 0.91628 0.77503 0.42321 0.0
N326 N 0.87903 0.8091 0.39401 0.0
N327 N 0.90843 0.77104 0.50978 0.0
C328 C 0.87406 0.79811 0.51837 0.0
C329 C 0.85778 0.81831 0.45543 0.0
C330 C 0.71336 0.34305 0.83909 0.0
C331 C 0.69262 0.37818 0.87229 0.0
C332 C 0.69804 0.32631 0.77525 0.0
C333 C 0.66171 0.34442 0.74163 0.0
H334 H 0.74202 0.3287 0.86239 0.0
H335 H 0.71508 0.29926 0.75152 0.0
S336 S 0.59548 0.43638 0.80738 0.0
N337 N 0.63372 0.43035 0.86749 0.0
N338 N 0.60462 0.39872 0.74717 0.0
C339 C 0.64041 0.37937 0.7745 0.0
C340 C 0.65585 0.39619 0.84004 0.0
C341 C 0.21831 0.20867 0.04239 0.0
C342 C 0.19972 0.1728 1.00844 0.0
C343 C 0.20188 0.22375 0.10727 0.0
C344 C 0.16682 0.20297 0.14136 0.0
H345 H 0.24552 0.22545 1.0182 0.0
H346 H 0.21668 0.25193 0.13101 0.0
S347 S 0.10738 0.10706 0.07544 0.0
N348 N 0.14484 0.11641 1.01426 0.0
N349 N 0.11407 0.14465 0.13637 0.0
C350 C 0.1483 0.16673 0.10845 0.0
C351 C 0.16466 0.15173 0.04191 0.0
C352 C 0.35647 0.63509 0.80782 0.0
C353 C 0.32264 0.66172 0.783 0.0
C354 C 0.39154 0.65242 0.84499 0.0
C355 C 0.39476 0.69724 0.85822 0.0
H356 H 0.35599 0.60046 0.79859 0.0
H357 H 0.41642 0.63035 0.86354 0.0
S358 S 0.315 0.78152 0.8053 0.0
N359 N 0.29474 0.73575 0.77517 0.0
N360 N 0.36079 0.76801 0.84419 0.0
C361 C 0.36139 0.72441 0.8335 0.0
C362 C 0.32533 0.70674 0.79634 0.0
C363 C 0.85063 0.88069 0.06279 0.0
C364 C 0.80549 0.87991 0.05258 0.0
C365 C 0.87803 0.8507 0.02837 0.0
C366 C 0.86103 0.81874 0.98346 0.0
H367 H 0.8646 0.90301 0.10033 0.0
H368 H 0.91235 0.85132 0.03938 0.0
S369 S 0.7462 0.80833 0.92948 0.0
N370 N 0.74612 0.84842 0.98696 0.0
N371 N 0.797 0.79223 0.92338 0.0
C372 C 0.81638 0.81972 0.9694 0.0
C373 C 0.7888 0.85026 1.00364 0.0
C374 C 0.73965 0.3316 0.2846 0.0
C375 C 0.72524 0.37224 0.25959 0.0
C376 C 0.71432 0.30631 0.33091 0.0
C377 C 0.67293 0.31998 0.35273 0.0
H378 H 0.77092 0.31915 0.26816 0.0
H379 H 0.72722 0.27552 0.34939 0.0
S380 S 0.61978 0.42363 0.302 0.0
N381 N 0.66694 0.42524 0.26017 0.0
N382 N 0.61869 0.37704 0.3463 0.0
C383 C 0.65785 0.36043 0.32787 0.0
C384 C 0.6842 0.38678 0.28171 0.0
C385 C 0.15703 0.18886 0.54774 0.0
C386 C 0.16733 0.23193 0.52861 0.0
C387 C 0.18453 0.16419 0.59179 0.0
C388 C 0.2228 0.18207 0.61926 0.0
H389 H 0.12822 0.17375 0.5269 0.0
H390 H 0.1754 0.13116 0.60529 0.0
S391 S 0.26312 0.29421 0.58672 0.0
N392 N 0.21787 0.29159 0.54106 0.0
N393 N 0.26879 0.24605 0.62485 0.0
C394 C 0.23287 0.22542 0.60128 0.0
C395 C 0.20535 0.25012 0.5557 0.0
C396 C 0.3959 0.93735 0.83364 0.0
C397 C 0.37026 0.90808 0.87345 0.0
C398 C 0.37688 0.96872 0.78858 0.0
C399 C 0.33173 0.97087 0.78012 0.0
H400 H 0.43057 0.93788 0.84125 0.0
H401 H 0.3973 0.99356 0.76483 0.0
S402 S 0.25127 0.89706 0.86427 0.0
N403 N 0.29814 0.8804 0.89619 0.0
N404 N 0.2626 0.93789 0.80978 0.0
C405 C 0.30635 0.93925 0.81508 0.0
C406 C 0.32552 0.90823 0.86222 0.0
C407 C 0.60514 0.84326 1.01611 0.0
C408 C 0.56546 0.86346 1.00018 0.0
C409 C 0.63356 0.86118 0.06581 0.0
C410 C 0.62353 0.90016 0.10052 0.0
H411 H 0.612 0.81104 0.9962 0.0
H412 H 0.66234 0.84322 0.08036 0.0
S413 S 0.52654 0.9682 0.07204 0.0
N414 N 0.51952 0.92627 1.01922 0.0
N415 N 0.57381 0.96059 0.11067 0.0
C416 C 0.58611 0.92264 0.08045 0.0
C417 C 0.55694 0.90419 0.03049 0.0
C418 C 0.65587 0.06079 0.28562 0.0
C419 C 0.69545 0.07166 0.25256 0.0
C420 C 0.63613 0.08851 0.33499 0.0
C421 C 0.65489 0.12848 0.3525 0.0
H422 H 0.64217 0.02875 0.27838 0.0
H423 H 0.60708 0.07772 0.36231 0.0
S424 S 0.75637 0.17389 0.27706 0.0
N425 N 0.75147 0.1262 0.23833 0.0
N426 N 0.71338 0.17921 0.32895 0.0
C427 C 0.69255 0.14138 0.31571 0.0
C428 C 0.71308 0.11274 0.26622 0.0
C429 C 0.48568 0.14937 0.55371 0.0
C430 C 0.47613 0.18874 0.51847 0.0
C431 C 0.45627 0.13006 0.60166 0.0
C432 C 0.41581 0.1491 0.61601 0.0
H433 H 0.5177 0.13533 0.54899 0.0
H434 H 0.46607 0.10108 0.63034 0.0
S435 S 0.37353 0.25022 0.53365 0.0
N436 N 0.42231 0.24474 0.49843 0.0
N437 N 0.36636 0.20779 0.58679 0.0
C438 C 0.40442 0.18658 0.57699 0.0
C439 C 0.43471 0.20655 0.52869 0.0
C440 C 0.87191 0.63456 0.03708 0.0
C441 C 0.90422 0.6208 0.98906 0.0
C442 C 0.85136 0.60482 0.08394 0.0
C443 C 0.86325 0.56065 0.08528 0.0
H444 H 0.86015 0.66766 0.03432 0.0
H445 H 0.82353 0.6156 0.11429 0.0
S446 S 0.94992 0.51005 0.97677 0.0
N447 N 0.9497 0.56141 0.95055 0.0
N448 N 0.91236 0.50599 0.03927 0.0
C449 C 0.89816 0.54776 0.04189 0.0
C450 C 0.91826 0.57763 0.99348 0.0
C451 C 0.95992 0.37916 0.34323 0.0
C452 C 0.95789 0.33436 0.35877 0.0
C453 C 0.93216 0.39846 0.29294 0.0
C454 C 0.90218 0.37331 0.2555 0.0
H455 H 0.98581 0.39856 0.36487 0.0
H456 H 0.93645 0.4324 0.27915 0.0
S457 S 0.87945 0.25642 0.28439 0.0
N458 N 0.91979 0.2668 0.33872 0.0
N459 N 0.86807 0.3029 0.24414 0.0
C460 C 0.8974 0.32945 0.27484 0.0
C461 C 0.92511 0.31005 0.32661 0.0
C462 C 0.15315 0.46533 0.61029 0.0
C463 C 0.19594 0.47447 0.58869 0.0
C464 C 0.12688 0.43689 0.57042 0.0
C465 C 0.14273 0.41743 0.50787 0.0
H466 H 0.139 0.48249 0.65468 0.0
H467 H 0.0935 0.43194 0.58619 0.0
S468 S 0.25194 0.42915 0.43045 0.0
N469 N 0.25289 0.45922 0.50245 0.0
N470 N 0.20334 0.40734 0.42869 0.0
C471 C 0.18568 0.42452 0.48842 0.0
C472 C 0.21233 0.45255 0.52864 0.0
C473 C 0.09383 0.64335 0.75504 0.0
C474 C 0.13234 0.66509 0.73747 0.0
C475 C 0.06306 0.66232 0.80065 0.0
C476 C 0.06998 0.70331 0.83158 0.0
H477 H 0.08623 0.61296 0.72951 0.0
H478 H 0.03189 0.64657 0.80671 0.0
S479 S 0.17017 0.76878 0.81324 0.0
N480 N 0.17864 0.72662 0.76131 0.0
N481 N 0.12184 0.76136 0.84936 0.0
C482 C 0.11051 0.72298 0.82003 0.0
C483 C 0.14139 0.70416 0.77222 0.0
loop_
_geom_bond_atom_site_label_1
_geom_bond_atom_site_label_2
_geom_bond_distance
_geom_bond_site_symmetry_2
_ccdc_geom_bond_type
Co0 N4 2.148 . S
Co0 N10 2.128 . S
Co0 N20 2.194 1_556 S
Co0 O25 2.351 1_556 S
Co0 O26 2.155 . S
Co0 O27 2.096 . S
C1 N4 1.301 1_554 S
C1 N5 1.328 . S
C1 H6 0.930 . S
C2 C3 1.333 . S
C2 N4 1.317 . S
C2 H7 0.930 . S
C3 C2 1.333 . S
C3 N5 1.350 1_556 S
C3 H29 0.931 . S
N4 Co0 2.148 . S
N4 C1 1.301 1_556 S
N4 C2 1.317 . S
N5 C1 1.328 . S
N5 C3 1.350 1_554 S
H6 C1 0.930 . S
H7 C2 0.930 . S
C8 O9 1.224 . S
C8 O27 1.247 . S
O9 C8 1.224 . S
N10 Co0 2.128 . S
N10 C11 1.355 1_556 S
N10 C13 1.311 . S
C11 N10 1.355 1_554 S
C11 C12 1.363 . S
C11 H23 0.929 . S
C12 C11 1.363 . S
C12 N14 1.375 1_554 S
C12 H30 0.931 . S
C13 N10 1.311 . S
C13 N14 1.347 . S
C13 H24 0.929 . S
N14 C12 1.375 1_556 S
N14 C13 1.347 . S
C15 C18 1.365 . S
C15 N20 1.328 . S
C15 H21 0.929 . S
C16 C17 1.362 . S
C16 C19 1.378 . S
C16 H31 0.929 . S
C17 C16 1.362 . S
C17 C18 1.366 . S
C18 C15 1.365 . S
C18 C17 1.366 . S
C18 H32 0.930 . S
C19 C16 1.378 . S
C19 N20 1.315 . S
C19 H22 0.930 . S
N20 Co0 2.194 1_554 S
N20 C15 1.328 . S
N20 C19 1.315 . S
H21 C15 0.929 . S
H22 C19 0.930 . S
H23 C11 0.929 . S
H24 C13 0.929 . S
O25 Co0 2.351 1_554 S
O25 C28 1.244 . S
O26 Co0 2.155 . S
O26 C28 1.240 1_556 S
O27 Co0 2.096 . S
O27 C8 1.247 . S
C28 O25 1.244 . S
C28 O26 1.240 1_554 S
H29 C3 0.931 . S
H30 C12 0.931 . S
H31 C16 0.929 . S
H32 C18 0.930 . S
Co33 N37 2.148 . S
Co33 N43 2.128 . S
Co33 N53 2.194 . S
Co33 O58 2.351 . S
Co33 O59 2.155 . S
Co33 O60 2.096 . S
C34 N37 1.301 1_545 S
C34 N38 1.328 . S
C34 H39 0.930 . S
C35 C36 1.333 1_565 S
C35 N37 1.317 . S
C35 H40 0.930 . S
C36 C35 1.333 1_545 S
C36 N38 1.350 . S
C36 H62 0.931 . S
N37 Co33 2.148 . S
N37 C34 1.301 1_565 S
N37 C35 1.317 . S
N38 C34 1.328 . S
N38 C36 1.350 . S
H39 C34 0.930 . S
H40 C35 0.930 . S
C41 O42 1.224 . S
C41 O60 1.247 . S
O42 C41 1.224 . S
N43 Co33 2.128 . S
N43 C44 1.355 . S
N43 C46 1.311 . S
C44 N43 1.355 . S
C44 C45 1.363 . S
C44 H56 0.929 . S
C45 C44 1.363 . S
C45 N47 1.375 . S
C45 H63 0.931 . S
C46 N43 1.311 . S
C46 N47 1.347 . S
C46 H57 0.929 . S
N47 C45 1.375 . S
N47 C46 1.347 . S
C48 C51 1.365 . S
C48 N53 1.328 . S
C48 H54 0.929 . S
C49 C50 1.362 . S
C49 C52 1.378 . S
C49 H64 0.929 . S
C50 C49 1.362 . S
C50 C51 1.366 . S
C51 C48 1.365 . S
C51 C50 1.366 . S
C51 H65 0.930 . S
C52 C49 1.378 . S
C52 N53 1.315 . S
C52 H55 0.930 . S
N53 Co33 2.194 . S
N53 C48 1.328 . S
N53 C52 1.315 . S
H54 C48 0.929 . S
H55 C52 0.930 . S
H56 C44 0.929 . S
H57 C46 0.929 . S
O58 Co33 2.351 . S
O58 C61 1.244 1_565 S
O59 Co33 2.155 . S
O59 C61 1.240 1_565 S
O60 Co33 2.096 . S
O60 C41 1.247 . S
C61 O58 1.244 1_545 S
C61 O59 1.240 1_545 S
H62 C36 0.931 . S
H63 C45 0.931 . S
H64 C49 0.929 . S
H65 C51 0.930 . S
Co66 N70 2.148 . S
Co66 N76 2.128 . S
Co66 N86 2.194 . S
Co66 O91 2.351 . S
Co66 O92 2.155 . S
Co66 O93 2.096 . S
C67 N70 1.301 . S
C67 N71 1.328 . S
C67 H72 0.930 . S
C68 C69 1.333 . S
C68 N70 1.317 . S
C68 H73 0.930 . S
C69 C68 1.333 . S
C69 N71 1.350 . S
C69 H95 0.931 . S
N70 Co66 2.148 . S
N70 C67 1.301 . S
N70 C68 1.317 . S
N71 C67 1.328 . S
N71 C69 1.350 . S
H72 C67 0.930 . S
H73 C68 0.930 . S
C74 O75 1.224 . S
C74 O93 1.247 . S
O75 C74 1.224 . S
N76 Co66 2.128 . S
N76 C77 1.355 . S
N76 C79 1.311 . S
C77 N76 1.355 . S
C77 C78 1.363 . S
C77 H89 0.929 . S
C78 C77 1.363 . S
C78 N80 1.375 . S
C78 H96 0.931 . S
C79 N76 1.311 . S
C79 N80 1.347 . S
C79 H90 0.929 . S
N80 C78 1.375 . S
N80 C79 1.347 . S
C81 C84 1.365 . S
C81 N86 1.328 . S
C81 H87 0.929 . S
C82 C83 1.362 . S
C82 C85 1.378 . S
C82 H97 0.929 . S
C83 C82 1.362 . S
C83 C84 1.366 . S
C84 C81 1.365 . S
C84 C83 1.366 . S
C84 H98 0.930 . S
C85 C82 1.378 . S
C85 N86 1.315 . S
C85 H88 0.930 . S
N86 Co66 2.194 . S
N86 C81 1.328 . S
N86 C85 1.315 . S
H87 C81 0.929 . S
H88 C85 0.930 . S
H89 C77 0.929 . S
H90 C79 0.929 . S
O91 Co66 2.351 . S
O91 C94 1.244 . S
O92 Co66 2.155 . S
O92 C94 1.240 . S
O93 Co66 2.096 . S
O93 C74 1.247 . S
C94 O91 1.244 . S
C94 O92 1.240 . S
H95 C69 0.931 . S
H96 C78 0.931 . S
H97 C82 0.929 . S
H98 C84 0.930 . S
Co99 N103 2.148 . S
Co99 N109 2.128 . S
Co99 N119 2.194 . S
Co99 O124 2.351 . S
Co99 O125 2.155 . S
Co99 O126 2.096 . S
C100 N103 1.301 1_565 S
C100 N104 1.328 . S
C100 H105 0.930 . S
C101 C102 1.333 1_545 S
C101 N103 1.317 . S
C101 H106 0.930 . S
C102 C101 1.333 1_565 S
C102 N104 1.350 . S
C102 H128 0.931 . S
N103 Co99 2.148 . S
N103 C100 1.301 1_545 S
N103 C101 1.317 . S
N104 C100 1.328 . S
N104 C102 1.350 . S
H105 C100 0.930 . S
H106 C101 0.930 . S
C107 O108 1.224 . S
C107 O126 1.247 . S
O108 C107 1.224 . S
N109 Co99 2.128 . S
N109 C110 1.355 . S
N109 C112 1.311 . S
C110 N109 1.355 . S
C110 C111 1.363 . S
C110 H122 0.929 . S
C111 C110 1.363 . S
C111 N113 1.375 . S
C111 H129 0.931 . S
C112 N109 1.311 . S
C112 N113 1.347 . S
C112 H123 0.929 . S
N113 C111 1.375 . S
N113 C112 1.347 . S
C114 C117 1.365 . S
C114 N119 1.328 . S
C114 H120 0.929 . S
C115 C116 1.362 . S
C115 C118 1.378 . S
C115 H130 0.929 . S
C116 C115 1.362 . S
C116 C117 1.366 . S
C117 C114 1.365 . S
C117 C116 1.366 . S
C117 H131 0.930 . S
C118 C115 1.378 . S
C118 N119 1.315 . S
C118 H121 0.930 . S
N119 Co99 2.194 . S
N119 C114 1.328 . S
N119 C118 1.315 . S
H120 C114 0.929 . S
H121 C118 0.930 . S
H122 C110 0.929 . S
H123 C112 0.929 . S
O124 Co99 2.351 . S
O124 C127 1.244 1_545 S
O125 Co99 2.155 . S
O125 C127 1.240 1_545 S
O126 Co99 2.096 . S
O126 C107 1.247 . S
C127 O124 1.244 1_565 S
C127 O125 1.240 1_565 S
H128 C102 0.931 . S
H129 C111 0.931 . S
H130 C115 0.929 . S
H131 C117 0.930 . S
Co132 N136 2.148 . S
Co132 N142 2.128 . S
Co132 N152 2.194 . S
Co132 O157 2.351 . S
Co132 O158 2.155 . S
Co132 O159 2.096 . S
C133 N136 1.301 1_455 S
C133 N137 1.328 . S
C133 H138 0.930 . S
C134 C135 1.333 1_655 S
C134 N136 1.317 . S
C134 H139 0.930 . S
C135 C134 1.333 1_455 S
C135 N137 1.350 . S
C135 H161 0.931 . S
N136 Co132 2.148 . S
N136 C133 1.301 1_655 S
N136 C134 1.317 . S
N137 C133 1.328 . S
N137 C135 1.350 . S
H138 C133 0.930 . S
H139 C134 0.930 . S
C140 O141 1.224 . S
C140 O159 1.247 . S
O141 C140 1.224 . S
N142 Co132 2.128 . S
N142 C143 1.355 . S
N142 C145 1.311 . S
C143 N142 1.355 . S
C143 C144 1.363 . S
C143 H155 0.929 . S
C144 C143 1.363 . S
C144 N146 1.375 . S
C144 H162 0.931 . S
C145 N142 1.311 . S
C145 N146 1.347 . S
C145 H156 0.929 . S
N146 C144 1.375 . S
N146 C145 1.347 . S
C147 C150 1.365 . S
C147 N152 1.328 . S
C147 H153 0.929 . S
C148 C149 1.362 . S
C148 C151 1.378 . S
C148 H163 0.929 . S
C149 C148 1.362 . S
C149 C150 1.366 . S
C150 C147 1.365 . S
C150 C149 1.366 . S
C150 H164 0.930 . S
C151 C148 1.378 . S
C151 N152 1.315 . S
C151 H154 0.930 . S
N152 Co132 2.194 . S
N152 C147 1.328 . S
N152 C151 1.315 . S
H153 C147 0.929 . S
H154 C151 0.930 . S
H155 C143 0.929 . S
H156 C145 0.929 . S
O157 Co132 2.351 . S
O157 C160 1.244 1_655 S
O158 Co132 2.155 . S
O158 C160 1.240 1_655 S
O159 Co132 2.096 . S
O159 C140 1.247 . S
C160 O157 1.244 1_455 S
C160 O158 1.240 1_455 S
H161 C135 0.931 . S
H162 C144 0.931 . S
H163 C148 0.929 . S
H164 C150 0.930 . S
Co165 N169 2.148 . S
Co165 N175 2.128 . S
Co165 N185 2.194 1_554 S
Co165 O190 2.351 1_554 S
Co165 O191 2.155 . S
Co165 O192 2.096 . S
C166 N169 1.301 . S
C166 N170 1.328 . S
C166 H171 0.930 1_554 S
C167 C168 1.333 . S
C167 N169 1.317 . S
C167 H172 0.930 . S
C168 C167 1.333 . S
C168 N170 1.350 . S
C168 H194 0.931 . S
N169 Co165 2.148 . S
N169 C166 1.301 . S
N169 C167 1.317 . S
N170 C166 1.328 . S
N170 C168 1.350 . S
H171 C166 0.930 1_556 S
H172 C167 0.930 . S
C173 O174 1.224 . S
C173 O192 1.247 . S
O174 C173 1.224 . S
N175 Co165 2.128 . S
N175 C176 1.355 . S
N175 C178 1.311 . S
C176 N175 1.355 . S
C176 C177 1.363 . S
C176 H188 0.929 1_554 S
C177 C176 1.363 . S
C177 N179 1.375 . S
C177 H195 0.931 . S
C178 N175 1.311 . S
C178 N179 1.347 . S
C178 H189 0.929 . S
N179 C177 1.375 . S
N179 C178 1.347 . S
C180 C183 1.365 . S
C180 N185 1.328 . S
C180 H186 0.929 . S
C181 C182 1.362 . S
C181 C184 1.378 . S
C181 H196 0.929 . S
C182 C181 1.362 . S
C182 C183 1.366 . S
C183 C180 1.365 . S
C183 C182 1.366 . S
C183 H197 0.930 . S
C184 C181 1.378 . S
C184 N185 1.315 . S
C184 H187 0.930 1_556 S
N185 Co165 2.194 1_556 S
N185 C180 1.328 . S
N185 C184 1.315 . S
H186 C180 0.929 . S
H187 C184 0.930 1_554 S
H188 C176 0.929 1_556 S
H189 C178 0.929 . S
O190 Co165 2.351 1_556 S
O190 C193 1.244 1_556 S
O191 Co165 2.155 . S
O191 C193 1.240 . S
O192 Co165 2.096 . S
O192 C173 1.247 . S
C193 O190 1.244 1_554 S
C193 O191 1.240 . S
H194 C168 0.931 . S
H195 C177 0.931 . S
H196 C181 0.929 . S
H197 C183 0.930 . S
Co198 N202 2.148 . S
Co198 N208 2.128 . S
Co198 N218 2.194 . S
Co198 O223 2.351 . S
Co198 O224 2.155 . S
Co198 O225 2.096 . S
C199 N202 1.301 1_655 S
C199 N203 1.328 . S
C199 H204 0.930 . S
C200 C201 1.333 1_455 S
C200 N202 1.317 . S
C200 H205 0.930 . S
C201 C200 1.333 1_655 S
C201 N203 1.350 . S
C201 H227 0.931 . S
N202 Co198 2.148 . S
N202 C199 1.301 1_455 S
N202 C200 1.317 . S
N203 C199 1.328 . S
N203 C201 1.350 . S
H204 C199 0.930 . S
H205 C200 0.930 . S
C206 O207 1.224 . S
C206 O225 1.247 . S
O207 C206 1.224 . S
N208 Co198 2.128 . S
N208 C209 1.355 . S
N208 C211 1.311 . S
C209 N208 1.355 . S
C209 C210 1.363 . S
C209 H221 0.929 . S
C210 C209 1.363 . S
C210 N212 1.375 . S
C210 H228 0.931 . S
C211 N208 1.311 . S
C211 N212 1.347 . S
C211 H222 0.929 . S
N212 C210 1.375 . S
N212 C211 1.347 . S
C213 C216 1.365 . S
C213 N218 1.328 . S
C213 H219 0.929 . S
C214 C215 1.362 . S
C214 C217 1.378 . S
C214 H229 0.929 . S
C215 C214 1.362 . S
C215 C216 1.366 . S
C216 C213 1.365 . S
C216 C215 1.366 . S
C216 H230 0.930 . S
C217 C214 1.378 . S
C217 N218 1.315 . S
C217 H220 0.930 . S
N218 Co198 2.194 . S
N218 C213 1.328 . S
N218 C217 1.315 . S
H219 C213 0.929 . S
H220 C217 0.930 . S
H221 C209 0.929 . S
H222 C211 0.929 . S
O223 Co198 2.351 . S
O223 C226 1.244 1_455 S
O224 Co198 2.155 . S
O224 C226 1.240 1_455 S
O225 Co198 2.096 . S
O225 C206 1.247 . S
C226 O223 1.244 1_655 S
C226 O224 1.240 1_655 S
H227 C201 0.931 . S
H228 C210 0.931 . S
H229 C214 0.929 . S
H230 C216 0.930 . S
Co231 N235 2.148 . S
Co231 N241 2.128 . S
Co231 N251 2.194 . S
Co231 O256 2.351 . S
Co231 O257 2.155 . S
Co231 O258 2.096 . S
C232 N235 1.301 . S
C232 N236 1.328 . S
C232 H237 0.930 . S
C233 C234 1.333 . S
C233 N235 1.317 . S
C233 H238 0.930 . S
C234 C233 1.333 . S
C234 N236 1.350 . S
C234 H260 0.931 . S
N235 Co231 2.148 . S
N235 C232 1.301 . S
N235 C233 1.317 . S
N236 C232 1.328 . S
N236 C234 1.350 . S
H237 C232 0.930 . S
H238 C233 0.930 . S
C239 O240 1.224 . S
C239 O258 1.247 . S
O240 C239 1.224 . S
N241 Co231 2.128 . S
N241 C242 1.355 . S
N241 C244 1.311 . S
C242 N241 1.355 . S
C242 C243 1.363 . S
C242 H254 0.929 . S
C243 C242 1.363 . S
C243 N245 1.375 . S
C243 H261 0.931 . S
C244 N241 1.311 . S
C244 N245 1.347 . S
C244 H255 0.929 . S
N245 C243 1.375 . S
N245 C244 1.347 . S
C246 C249 1.365 . S
C246 N251 1.328 . S
C246 H252 0.929 . S
C247 C248 1.362 . S
C247 C250 1.378 . S
C247 H262 0.929 . S
C248 C247 1.362 . S
C248 C249 1.366 . S
C249 C246 1.365 . S
C249 C248 1.366 . S
C249 H263 0.930 . S
C250 C247 1.378 . S
C250 N251 1.315 . S
C250 H253 0.930 . S
N251 Co231 2.194 . S
N251 C246 1.328 . S
N251 C250 1.315 . S
H252 C246 0.929 . S
H253 C250 0.930 . S
H254 C242 0.929 . S
H255 C244 0.929 . S
O256 Co231 2.351 . S
O256 C259 1.244 . S
O257 Co231 2.155 . S
O257 C259 1.240 . S
O258 Co231 2.096 . S
O258 C239 1.247 . S
C259 O256 1.244 . S
C259 O257 1.240 . S
H260 C234 0.931 . S
H261 C243 0.931 . S
H262 C247 0.929 . S
H263 C249 0.930 . S
C264 C265 1.369 . S
C264 C266 1.419 . S
C264 H268 0.930 . S
C265 C264 1.369 . S
C265 C274 1.429 . S
C266 C264 1.419 . S
C266 C267 1.363 . S
C266 H269 0.929 . S
C267 C266 1.363 . S
C267 C273 1.428 . S
H268 C264 0.930 . S
H269 C266 0.929 . S
S270 N271 1.613 . S
S270 N272 1.610 . S
N271 S270 1.613 . S
N271 C274 1.350 1_556 S
N272 S270 1.610 . S
N272 C273 1.351 1_556 S
C273 C267 1.428 . S
C273 N272 1.351 1_554 S
C273 C274 1.434 . S
C274 C265 1.429 . S
C274 N271 1.350 1_554 S
C274 C273 1.434 . S
C275 C276 1.369 . S
C275 C277 1.419 . S
C275 H279 0.930 . S
C276 C275 1.369 . S
C276 C285 1.429 . S
C277 C275 1.419 . S
C277 C278 1.363 . S
C277 H280 0.929 . S
C278 C277 1.363 . S
C278 C284 1.428 . S
H279 C275 0.930 . S
H280 C277 0.929 . S
S281 N282 1.615 . S
S281 N283 1.612 . S
N282 S281 1.615 . S
N282 C285 1.365 . S
N283 S281 1.612 . S
N283 C284 1.368 . S
C284 C278 1.428 . S
C284 N283 1.368 . S
C284 C285 1.434 . S
C285 C276 1.429 . S
C285 N282 1.365 . S
C285 C284 1.434 . S
C286 C287 1.369 . S
C286 C288 1.419 . S
C286 H290 0.930 . S
C287 C286 1.369 . S
C287 C296 1.429 . S
C288 C286 1.419 . S
C288 C289 1.363 . S
C288 H291 0.929 . S
C289 C288 1.363 . S
C289 C295 1.428 . S
H290 C286 0.930 . S
H291 C288 0.929 . S
S292 N293 1.613 . S
S292 N294 1.610 . S
N293 S292 1.613 . S
N293 C296 1.350 . S
N294 S292 1.610 . S
N294 C295 1.351 . S
C295 C289 1.428 . S
C295 N294 1.351 . S
C295 C296 1.434 . S
C296 C287 1.429 . S
C296 N293 1.350 . S
C296 C295 1.434 . S
C297 C298 1.369 . S
C297 C299 1.419 . S
C297 H301 0.930 . S
C298 C297 1.369 . S
C298 C307 1.429 . S
C299 C297 1.419 . S
C299 C300 1.363 . S
C299 H302 0.929 . S
C300 C299 1.363 . S
C300 C306 1.428 . S
H301 C297 0.930 . S
H302 C299 0.929 . S
S303 N304 1.613 . S
S303 N305 1.610 . S
N304 S303 1.613 . S
N304 C307 1.350 . S
N305 S303 1.610 . S
N305 C306 1.351 . S
C306 C300 1.428 . S
C306 N305 1.351 . S
C306 C307 1.434 . S
C307 C298 1.429 . S
C307 N304 1.350 . S
C307 C306 1.434 . S
C308 C309 1.369 . S
C308 C310 1.419 . S
C308 H312 0.930 . S
C309 C308 1.369 . S
C309 C318 1.429 . S
C310 C308 1.419 . S
C310 C311 1.363 . S
C310 H313 0.929 . S
C311 C310 1.363 . S
C311 C317 1.428 . S
H312 C308 0.930 . S
H313 C310 0.929 . S
S314 N315 1.613 . S
S314 N316 1.610 . S
N315 S314 1.613 . S
N315 C318 1.350 . S
N316 S314 1.610 . S
N316 C317 1.351 . S
C317 C311 1.428 . S
C317 N316 1.351 . S
C317 C318 1.434 . S
C318 C309 1.429 . S
C318 N315 1.350 . S
C318 C317 1.434 . S
C319 C320 1.369 . S
C319 C321 1.419 . S
C319 H323 0.930 . S
C320 C319 1.369 . S
C320 C329 1.429 . S
C321 C319 1.419 . S
C321 C322 1.363 . S
C321 H324 0.929 . S
C322 C321 1.363 . S
C322 C328 1.428 . S
H323 C319 0.930 . S
H324 C321 0.929 . S
S325 N326 1.613 . S
S325 N327 1.610 . S
N326 S325 1.613 . S
N326 C329 1.350 . S
N327 S325 1.610 . S
N327 C328 1.351 . S
C328 C322 1.428 . S
C328 N327 1.351 . S
C328 C329 1.434 . S
C329 C320 1.429 . S
C329 N326 1.350 . S
C329 C328 1.434 . S
C330 C331 1.369 . S
C330 C332 1.419 . S
C330 H334 0.930 . S
C331 C330 1.369 . S
C331 C340 1.429 . S
C332 C330 1.419 . S
C332 C333 1.363 . S
C332 H335 0.929 . S
C333 C332 1.363 . S
C333 C339 1.428 . S
H334 C330 0.930 . S
H335 C332 0.929 . S
S336 N337 1.613 . S
S336 N338 1.610 . S
N337 S336 1.613 . S
N337 C340 1.350 . S
N338 S336 1.610 . S
N338 C339 1.351 . S
C339 C333 1.428 . S
C339 N338 1.351 . S
C339 C340 1.434 . S
C340 C331 1.429 . S
C340 N337 1.350 . S
C340 C339 1.434 . S
C341 C342 1.369 . S
C341 C343 1.419 1_556 S
C341 H345 0.930 . S
C342 C341 1.369 . S
C342 C351 1.429 1_556 S
C343 C341 1.419 1_554 S
C343 C344 1.363 . S
C343 H346 0.929 . S
C344 C343 1.363 . S
C344 C350 1.428 . S
H345 C341 0.930 . S
H346 C343 0.929 . S
S347 N348 1.613 . S
S347 N349 1.610 . S
N348 S347 1.613 . S
N348 C351 1.350 . S
N349 S347 1.610 . S
N349 C350 1.351 . S
C350 C344 1.428 . S
C350 N349 1.351 . S
C350 C351 1.434 . S
C351 C342 1.429 1_554 S
C351 N348 1.350 . S
C351 C350 1.434 . S
C352 C353 1.369 . S
C352 C354 1.419 . S
C352 H356 0.930 . S
C353 C352 1.369 . S
C353 C362 1.429 . S
C354 C352 1.419 . S
C354 C355 1.363 . S
C354 H357 0.929 . S
C355 C354 1.363 . S
C355 C361 1.428 . S
H356 C352 0.930 . S
H357 C354 0.929 . S
S358 N359 1.613 . S
S358 N360 1.610 . S
N359 S358 1.613 . S
N359 C362 1.350 . S
N360 S358 1.610 . S
N360 C361 1.351 . S
C361 C355 1.428 . S
C361 N360 1.351 . S
C361 C362 1.434 . S
C362 C353 1.429 . S
C362 N359 1.350 . S
C362 C361 1.434 . S
C363 C364 1.369 . S
C363 C365 1.419 . S
C363 H367 0.930 . S
C364 C363 1.369 . S
C364 C373 1.429 1_554 S
C365 C363 1.419 . S
C365 C366 1.363 1_554 S
C365 H368 0.929 . S
C366 C365 1.363 1_556 S
C366 C372 1.428 . S
H367 C363 0.930 . S
H368 C365 0.929 . S
S369 N370 1.613 . S
S369 N371 1.610 . S
N370 S369 1.613 . S
N370 C373 1.350 . S
N371 S369 1.610 . S
N371 C372 1.351 . S
C372 C366 1.428 . S
C372 N371 1.351 . S
C372 C373 1.434 . S
C373 C364 1.429 1_556 S
C373 N370 1.350 . S
C373 C372 1.434 . S
C374 C375 1.369 . S
C374 C376 1.419 . S
C374 H378 0.930 . S
C375 C374 1.369 . S
C375 C384 1.429 . S
C376 C374 1.419 . S
C376 C377 1.363 . S
C376 H379 0.929 . S
C377 C376 1.363 . S
C377 C383 1.428 . S
H378 C374 0.930 . S
H379 C376 0.929 . S
S380 N381 1.613 . S
S380 N382 1.610 . S
N381 S380 1.613 . S
N381 C384 1.350 . S
N382 S380 1.610 . S
N382 C383 1.351 . S
C383 C377 1.428 . S
C383 N382 1.351 . S
C383 C384 1.434 . S
C384 C375 1.429 . S
C384 N381 1.350 . S
C384 C383 1.434 . S
C385 C386 1.369 . S
C385 C387 1.419 . S
C385 H389 0.930 . S
C386 C385 1.369 . S
C386 C395 1.429 . S
C387 C385 1.419 . S
C387 C388 1.363 . S
C387 H390 0.929 . S
C388 C387 1.363 . S
C388 C394 1.428 . S
H389 C385 0.930 . S
H390 C387 0.929 . S
S391 N392 1.613 . S
S391 N393 1.610 . S
N392 S391 1.613 . S
N392 C395 1.350 . S
N393 S391 1.610 . S
N393 C394 1.351 . S
C394 C388 1.428 . S
C394 N393 1.351 . S
C394 C395 1.434 . S
C395 C386 1.429 . S
C395 N392 1.350 . S
C395 C394 1.434 . S
C396 C397 1.369 . S
C396 C398 1.419 . S
C396 H400 0.930 . S
C397 C396 1.369 . S
C397 C406 1.429 . S
C398 C396 1.419 . S
C398 C399 1.363 . S
C398 H401 0.929 . S
C399 C398 1.363 . S
C399 C405 1.428 . S
H400 C396 0.930 . S
H401 C398 0.929 . S
S402 N403 1.613 . S
S402 N404 1.610 . S
N403 S402 1.613 . S
N403 C406 1.350 . S
N404 S402 1.610 . S
N404 C405 1.351 . S
C405 C399 1.428 . S
C405 N404 1.351 . S
C405 C406 1.434 . S
C406 C397 1.429 . S
C406 N403 1.350 . S
C406 C405 1.434 . S
C407 C408 1.369 . S
C407 C409 1.419 . S
C407 H411 0.930 1_554 S
C408 C407 1.369 . S
C408 C417 1.429 . S
C409 C407 1.419 . S
C409 C410 1.363 . S
C409 H412 0.929 . S
C410 C409 1.363 . S
C410 C416 1.428 . S
H411 C407 0.930 1_556 S
H412 C409 0.929 . S
S413 N414 1.613 . S
S413 N415 1.610 . S
N414 S413 1.613 . S
N414 C417 1.350 . S
N415 S413 1.610 . S
N415 C416 1.351 . S
C416 C410 1.428 . S
C416 N415 1.351 . S
C416 C417 1.434 . S
C417 C408 1.429 . S
C417 N414 1.350 . S
C417 C416 1.434 . S
C418 C419 1.369 . S
C418 C420 1.419 . S
C418 H422 0.930 . S
C419 C418 1.369 . S
C419 C428 1.429 . S
C420 C418 1.419 . S
C420 C421 1.363 . S
C420 H423 0.929 . S
C421 C420 1.363 . S
C421 C427 1.428 . S
H422 C418 0.930 . S
H423 C420 0.929 . S
S424 N425 1.613 . S
S424 N426 1.610 . S
N425 S424 1.613 . S
N425 C428 1.350 . S
N426 S424 1.610 . S
N426 C427 1.351 . S
C427 C421 1.428 . S
C427 N426 1.351 . S
C427 C428 1.434 . S
C428 C419 1.429 . S
C428 N425 1.350 . S
C428 C427 1.434 . S
C429 C430 1.369 . S
C429 C431 1.419 . S
C429 H433 0.930 . S
C430 C429 1.369 . S
C430 C439 1.429 . S
C431 C429 1.419 . S
C431 C432 1.363 . S
C431 H434 0.929 . S
C432 C431 1.363 . S
C432 C438 1.428 . S
H433 C429 0.930 . S
H434 C431 0.929 . S
S435 N436 1.613 . S
S435 N437 1.610 . S
N436 S435 1.613 . S
N436 C439 1.350 . S
N437 S435 1.610 . S
N437 C438 1.351 . S
C438 C432 1.428 . S
C438 N437 1.351 . S
C438 C439 1.434 . S
C439 C430 1.429 . S
C439 N436 1.350 . S
C439 C438 1.434 . S
C440 C441 1.369 . S
C440 C442 1.419 1_556 S
C440 H444 0.930 . S
C441 C440 1.369 . S
C441 C450 1.429 . S
C442 C440 1.419 1_554 S
C442 C443 1.363 . S
C442 H445 0.929 . S
C443 C442 1.363 . S
C443 C449 1.428 1_554 S
H444 C440 0.930 . S
H445 C442 0.929 . S
S446 N447 1.613 . S
S446 N448 1.610 . S
N447 S446 1.613 . S
N447 C450 1.350 . S
N448 S446 1.610 . S
N448 C449 1.351 . S
C449 C443 1.428 1_556 S
C449 N448 1.351 . S
C449 C450 1.434 . S
C450 C441 1.429 . S
C450 N447 1.350 . S
C450 C449 1.434 . S
C451 C452 1.369 . S
C451 C453 1.419 . S
C451 H455 0.930 . S
C452 C451 1.369 . S
C452 C461 1.429 . S
C453 C451 1.419 . S
C453 C454 1.363 . S
C453 H456 0.929 . S
C454 C453 1.363 . S
C454 C460 1.428 . S
H455 C451 0.930 . S
H456 C453 0.929 . S
S457 N458 1.613 . S
S457 N459 1.610 . S
N458 S457 1.613 . S
N458 C461 1.350 . S
N459 S457 1.610 . S
N459 C460 1.351 . S
C460 C454 1.428 . S
C460 N459 1.351 . S
C460 C461 1.434 . S
C461 C452 1.429 . S
C461 N458 1.350 . S
C461 C460 1.434 . S
C462 C463 1.369 . S
C462 C464 1.419 . S
C462 H466 0.930 . S
C463 C462 1.369 . S
C463 C472 1.429 . S
C464 C462 1.419 . S
C464 C465 1.363 . S
C464 H467 0.929 . S
C465 C464 1.363 . S
C465 C471 1.428 . S
H466 C462 0.930 . S
H467 C464 0.929 . S
S468 N469 1.613 . S
S468 N470 1.610 . S
N469 S468 1.613 . S
N469 C472 1.350 . S
N470 S468 1.610 . S
N470 C471 1.351 . S
C471 C465 1.428 . S
C471 N470 1.351 . S
C471 C472 1.434 . S
C472 C463 1.429 . S
C472 N469 1.350 . S
C472 C471 1.434 . S
C473 C474 1.369 . S
C473 C475 1.419 . S
C473 H477 0.930 . S
C474 C473 1.369 . S
C474 C483 1.429 . S
C475 C473 1.419 . S
C475 C476 1.363 . S
C475 H478 0.929 . S
C476 C475 1.363 . S
C476 C482 1.428 . S
H477 C473 0.930 . S
H478 C475 0.929 . S
S479 N480 1.613 . S
S479 N481 1.610 . S
N480 S479 1.613 . S
N480 C483 1.350 . S
N481 S479 1.610 . S
N481 C482 1.351 . S
C482 C476 1.428 . S
C482 N481 1.351 . S
C482 C483 1.434 . S
C483 C474 1.429 . S
C483 N480 1.350 . S
C483 C482 1.434 . S
C265 N170 1.303 . S
C267 N5 1.297 . S
C276 N203 1.300 . S
C278 N38 1.298 . S
C287 N71 1.297 . S
C289 N236 1.303 . S
C298 N137 1.295 . S
C300 N104 1.303 . S
C309 C248 0.976 . S
C311 C17 0.977 . S
C320 C50 0.977 . S
C322 C149 0.975 . S
C331 C182 0.971 . S
C333 C83 0.972 . S
C342 C116 0.971 . S
C344 C215 0.973 . S
C353 C239 1.757 . S
C355 C8 1.751 . S
C364 C41 1.758 . S
C366 C140 1.750 . S
C375 C173 1.752 . S
C377 C74 1.755 . S
C386 C206 1.750 . S
C388 C107 1.756 . S
C397 N14 1.811 . S
C399 C127 1.794 . S
C408 C28 1.793 . S
C410 N47 1.806 . S
C419 C61 1.791 . S
C421 N80 1.810 . S
C430 C94 1.791 . S
C432 N113 1.809 . S
C441 N146 1.809 . S
C443 C193 1.791 . S
C452 C226 1.791 . S
C454 N179 1.808 . S
C463 C259 1.791 . S
C465 N212 1.809 . S
C474 N245 1.809 . S
C476 C160 1.796 . S
