# Generated by pormake.
# Topology ulh, (4)-cn, num edge types: 1
# Building blocks:
#     Node 0, Type 0, BuildingBlock: CEKHIL_clean_sbu_0, # of connection points: 4
#     Node 1, Type 0, BuildingBlock: CEKHIL_clean_sbu_0, # of connection points: 4
#     Node 2, Type 0, BuildingBlock: CEKHIL_clean_sbu_0, # of connection points: 4
#     Node 3, Type 0, BuildingBlock: CEKHIL_clean_sbu_0, # of connection points: 4
#     Node 4, Type 0, BuildingBlock: CEKHIL_clean_sbu_0, # of connection points: 4
#     Node 5, Type 0, BuildingBlock: CEKHIL_clean_sbu_0, # of connection points: 4
#     Node 6, Type 0, BuildingBlock: CEKHIL_clean_sbu_0, # of connection points: 4
#     Node 7, Type 0, BuildingBlock: CEKHIL_clean_sbu_0, # of connection points: 4
#     Node 8, Type 0, BuildingBlock: CEKHIL_clean_sbu_0, # of connection points: 4
#     Node 9, Type 0, BuildingBlock: CEKHIL_clean_sbu_0, # of connection points: 4
#     Node 10, Type 0, BuildingBlock: CEKHIL_clean_sbu_0, # of connection points: 4
#     Node 11, Type 0, BuildingBlock: CEKHIL_clean_sbu_0, # of connection points: 4
#     Node 12, Type 0, BuildingBlock: CEKHIL_clean_sbu_0, # of connection points: 4
#     Node 13, Type 0, BuildingBlock: CEKHIL_clean_sbu_0, # of connection points: 4
#     Node 14, Type 0, BuildingBlock: CEKHIL_clean_sbu_0, # of connection points: 4
#     Node 15, Type 0, BuildingBlock: CEKHIL_clean_sbu_0, # of connection points: 4
#     Node 16, Type 0, BuildingBlock: CEKHIL_clean_sbu_0, # of connection points: 4
#     Node 17, Type 0, BuildingBlock: CEKHIL_clean_sbu_0, # of connection points: 4
#     Node 18, Type 0, BuildingBlock: CEKHIL_clean_sbu_0, # of connection points: 4
#     Node 19, Type 0, BuildingBlock: CEKHIL_clean_sbu_0, # of connection points: 4
#     Node 20, Type 0, BuildingBlock: CEKHIL_clean_sbu_0, # of connection points: 4
#     Node 21, Type 0, BuildingBlock: CEKHIL_clean_sbu_0, # of connection points: 4
#     Node 22, Type 0, BuildingBlock: CEKHIL_clean_sbu_0, # of connection points: 4
#     Node 23, Type 0, BuildingBlock: CEKHIL_clean_sbu_0, # of connection points: 4
#     Node 24, Type 0, BuildingBlock: CEKHIL_clean_sbu_0, # of connection points: 4
#     Node 25, Type 0, BuildingBlock: CEKHIL_clean_sbu_0, # of connection points: 4
#     Node 26, Type 0, BuildingBlock: CEKHIL_clean_sbu_0, # of connection points: 4
#     Node 27, Type 0, BuildingBlock: CEKHIL_clean_sbu_0, # of connection points: 4
#     Node 28, Type 0, BuildingBlock: CEKHIL_clean_sbu_0, # of connection points: 4
#     Node 29, Type 0, BuildingBlock: CEKHIL_clean_sbu_0, # of connection points: 4
#     Node 30, Type 0, BuildingBlock: CEKHIL_clean_sbu_0, # of connection points: 4
#     Node 31, Type 0, BuildingBlock: CEKHIL_clean_sbu_0, # of connection points: 4
#     Node 32, Type 0, BuildingBlock: CEKHIL_clean_sbu_0, # of connection points: 4
#     Node 33, Type 0, BuildingBlock: CEKHIL_clean_sbu_0, # of connection points: 4
#     Node 34, Type 0, BuildingBlock: CEKHIL_clean_sbu_0, # of connection points: 4
#     Node 35, Type 0, BuildingBlock: CEKHIL_clean_sbu_0, # of connection points: 4
#     Node 36, Type 0, BuildingBlock: CEKHIL_clean_sbu_0, # of connection points: 4
#     Node 37, Type 0, BuildingBlock: CEKHIL_clean_sbu_0, # of connection points: 4
#     Node 38, Type 0, BuildingBlock: CEKHIL_clean_sbu_0, # of connection points: 4
#     Node 39, Type 0, BuildingBlock: CEKHIL_clean_sbu_0, # of connection points: 4
#     Node 40, Type 0, BuildingBlock: CEKHIL_clean_sbu_0, # of connection points: 4
#     Node 41, Type 0, BuildingBlock: CEKHIL_clean_sbu_0, # of connection points: 4
#     Node 42, Type 0, BuildingBlock: CEKHIL_clean_sbu_0, # of connection points: 4
#     Node 43, Type 0, BuildingBlock: CEKHIL_clean_sbu_0, # of connection points: 4
#     Node 44, Type 0, BuildingBlock: CEKHIL_clean_sbu_0, # of connection points: 4
#     Node 45, Type 0, BuildingBlock: CEKHIL_clean_sbu_0, # of connection points: 4
#     Node 46, Type 0, BuildingBlock: CEKHIL_clean_sbu_0, # of connection points: 4
#     Node 47, Type 0, BuildingBlock: CEKHIL_clean_sbu_0, # of connection points: 4
#     Node 48, Type 0, BuildingBlock: CEKHIL_clean_sbu_0, # of connection points: 4
#     Node 49, Type 0, BuildingBlock: CEKHIL_clean_sbu_0, # of connection points: 4
#     Node 50, Type 0, BuildingBlock: CEKHIL_clean_sbu_0, # of connection points: 4
#     Node 51, Type 0, BuildingBlock: CEKHIL_clean_sbu_0, # of connection points: 4
#     Node 52, Type 0, BuildingBlock: CEKHIL_clean_sbu_0, # of connection points: 4
#     Node 53, Type 0, BuildingBlock: CEKHIL_clean_sbu_0, # of connection points: 4
#     Node 54, Type 0, BuildingBlock: CEKHIL_clean_sbu_0, # of connection points: 4
#     Node 55, Type 0, BuildingBlock: CEKHIL_clean_sbu_0, # of connection points: 4
#     Node 56, Type 0, BuildingBlock: CEKHIL_clean_sbu_0, # of connection points: 4
#     Node 57, Type 0, BuildingBlock: CEKHIL_clean_sbu_0, # of connection points: 4
#     Node 58, Type 0, BuildingBlock: CEKHIL_clean_sbu_0, # of connection points: 4
#     Node 59, Type 0, BuildingBlock: CEKHIL_clean_sbu_0, # of connection points: 4
#     Node 60, Type 0, BuildingBlock: CEKHIL_clean_sbu_0, # of connection points: 4
#     Node 61, Type 0, BuildingBlock: CEKHIL_clean_sbu_0, # of connection points: 4
#     Node 62, Type 0, BuildingBlock: CEKHIL_clean_sbu_0, # of connection points: 4
#     Node 63, Type 0, BuildingBlock: CEKHIL_clean_sbu_0, # of connection points: 4
#     Node 64, Type 0, BuildingBlock: CEKHIL_clean_sbu_0, # of connection points: 4
#     Node 65, Type 0, BuildingBlock: CEKHIL_clean_sbu_0, # of connection points: 4
#     Node 66, Type 0, BuildingBlock: CEKHIL_clean_sbu_0, # of connection points: 4
#     Node 67, Type 0, BuildingBlock: CEKHIL_clean_sbu_0, # of connection points: 4
#     Node 68, Type 0, BuildingBlock: CEKHIL_clean_sbu_0, # of connection points: 4
#     Node 69, Type 0, BuildingBlock: CEKHIL_clean_sbu_0, # of connection points: 4
#     Node 70, Type 0, BuildingBlock: CEKHIL_clean_sbu_0, # of connection points: 4
#     Node 71, Type 0, BuildingBlock: CEKHIL_clean_sbu_0, # of connection points: 4
#     Node 72, Type 0, BuildingBlock: CEKHIL_clean_sbu_0, # of connection points: 4
#     Node 73, Type 0, BuildingBlock: CEKHIL_clean_sbu_0, # of connection points: 4
#     Node 74, Type 0, BuildingBlock: CEKHIL_clean_sbu_0, # of connection points: 4
#     Node 75, Type 0, BuildingBlock: CEKHIL_clean_sbu_0, # of connection points: 4
#     Node 76, Type 0, BuildingBlock: CEKHIL_clean_sbu_0, # of connection points: 4
#     Node 77, Type 0, BuildingBlock: CEKHIL_clean_sbu_0, # of connection points: 4
#     Node 78, Type 0, BuildingBlock: CEKHIL_clean_sbu_0, # of connection points: 4
#     Node 79, Type 0, BuildingBlock: CEKHIL_clean_sbu_0, # of connection points: 4
#     Node 80, Type 0, BuildingBlock: CEKHIL_clean_sbu_0, # of connection points: 4
#     Node 81, Type 0, BuildingBlock: CEKHIL_clean_sbu_0, # of connection points: 4
#     Node 82, Type 0, BuildingBlock: CEKHIL_clean_sbu_0, # of connection points: 4
#     Node 83, Type 0, BuildingBlock: CEKHIL_clean_sbu_0, # of connection points: 4
#     Node 84, Type 0, BuildingBlock: CEKHIL_clean_sbu_0, # of connection points: 4
#     Node 85, Type 0, BuildingBlock: CEKHIL_clean_sbu_0, # of connection points: 4
#     Node 86, Type 0, BuildingBlock: CEKHIL_clean_sbu_0, # of connection points: 4
#     Node 87, Type 0, BuildingBlock: CEKHIL_clean_sbu_0, # of connection points: 4
#     Node 88, Type 0, BuildingBlock: CEKHIL_clean_sbu_0, # of connection points: 4
#     Node 89, Type 0, BuildingBlock: CEKHIL_clean_sbu_0, # of connection points: 4
#     Node 90, Type 0, BuildingBlock: CEKHIL_clean_sbu_0, # of connection points: 4
#     Node 91, Type 0, BuildingBlock: CEKHIL_clean_sbu_0, # of connection points: 4
#     Node 92, Type 0, BuildingBlock: CEKHIL_clean_sbu_0, # of connection points: 4
#     Node 93, Type 0, BuildingBlock: CEKHIL_clean_sbu_0, # of connection points: 4
#     Node 94, Type 0, BuildingBlock: CEKHIL_clean_sbu_0, # of connection points: 4
#     Node 95, Type 0, BuildingBlock: CEKHIL_clean_sbu_0, # of connection points: 4
#     Edge 96, Type (0, 0), BuildingBlock: ZUJKAS_clean_linker_0, # of connection points: 2
#     Edge 97, Type (0, 0), BuildingBlock: ZUJKAS_clean_linker_0, # of connection points: 2
#     Edge 98, Type (0, 0), BuildingBlock: ZUJKAS_clean_linker_0, # of connection points: 2
#     Edge 99, Type (0, 0), BuildingBlock: ZUJKAS_clean_linker_0, # of connection points: 2
#     Edge 100, Type (0, 0), BuildingBlock: ZUJKAS_clean_linker_0, # of connection points: 2
#     Edge 101, Type (0, 0), BuildingBlock: ZUJKAS_clean_linker_0, # of connection points: 2
#     Edge 102, Type (0, 0), BuildingBlock: ZUJKAS_clean_linker_0, # of connection points: 2
#     Edge 103, Type (0, 0), BuildingBlock: ZUJKAS_clean_linker_0, # of connection points: 2
#     Edge 104, Type (0, 0), BuildingBlock: ZUJKAS_clean_linker_0, # of connection points: 2
#     Edge 105, Type (0, 0), BuildingBlock: ZUJKAS_clean_linker_0, # of connection points: 2
#     Edge 106, Type (0, 0), BuildingBlock: ZUJKAS_clean_linker_0, # of connection points: 2
#     Edge 107, Type (0, 0), BuildingBlock: ZUJKAS_clean_linker_0, # of connection points: 2
#     Edge 108, Type (0, 0), BuildingBlock: ZUJKAS_clean_linker_0, # of connection points: 2
#     Edge 109, Type (0, 0), BuildingBlock: ZUJKAS_clean_linker_0, # of connection points: 2
#     Edge 110, Type (0, 0), BuildingBlock: ZUJKAS_clean_linker_0, # of connection points: 2
#     Edge 111, Type (0, 0), BuildingBlock: ZUJKAS_clean_linker_0, # of connection points: 2
#     Edge 112, Type (0, 0), BuildingBlock: ZUJKAS_clean_linker_0, # of connection points: 2
#     Edge 113, Type (0, 0), BuildingBlock: ZUJKAS_clean_linker_0, # of connection points: 2
#     Edge 114, Type (0, 0), BuildingBlock: ZUJKAS_clean_linker_0, # of connection points: 2
#     Edge 115, Type (0, 0), BuildingBlock: ZUJKAS_clean_linker_0, # of connection points: 2
#     Edge 116, Type (0, 0), BuildingBlock: ZUJKAS_clean_linker_0, # of connection points: 2
#     Edge 117, Type (0, 0), BuildingBlock: ZUJKAS_clean_linker_0, # of connection points: 2
#     Edge 118, Type (0, 0), BuildingBlock: ZUJKAS_clean_linker_0, # of connection points: 2
#     Edge 119, Type (0, 0), BuildingBlock: ZUJKAS_clean_linker_0, # of connection points: 2
#     Edge 120, Type (0, 0), BuildingBlock: ZUJKAS_clean_linker_0, # of connection points: 2
#     Edge 121, Type (0, 0), BuildingBlock: ZUJKAS_clean_linker_0, # of connection points: 2
#     Edge 122, Type (0, 0), BuildingBlock: ZUJKAS_clean_linker_0, # of connection points: 2
#     Edge 123, Type (0, 0), BuildingBlock: ZUJKAS_clean_linker_0, # of connection points: 2
#     Edge 124, Type (0, 0), BuildingBlock: ZUJKAS_clean_linker_0, # of connection points: 2
#     Edge 125, Type (0, 0), BuildingBlock: ZUJKAS_clean_linker_0, # of connection points: 2
#     Edge 126, Type (0, 0), BuildingBlock: ZUJKAS_clean_linker_0, # of connection points: 2
#     Edge 127, Type (0, 0), BuildingBlock: ZUJKAS_clean_linker_0, # of connection points: 2
#     Edge 128, Type (0, 0), BuildingBlock: ZUJKAS_clean_linker_0, # of connection points: 2
#     Edge 129, Type (0, 0), BuildingBlock: ZUJKAS_clean_linker_0, # of connection points: 2
#     Edge 130, Type (0, 0), BuildingBlock: ZUJKAS_clean_linker_0, # of connection points: 2
#     Edge 131, Type (0, 0), BuildingBlock: ZUJKAS_clean_linker_0, # of connection points: 2
#     Edge 132, Type (0, 0), BuildingBlock: ZUJKAS_clean_linker_0, # of connection points: 2
#     Edge 133, Type (0, 0), BuildingBlock: ZUJKAS_clean_linker_0, # of connection points: 2
#     Edge 134, Type (0, 0), BuildingBlock: ZUJKAS_clean_linker_0, # of connection points: 2
#     Edge 135, Type (0, 0), BuildingBlock: ZUJKAS_clean_linker_0, # of connection points: 2
#     Edge 136, Type (0, 0), BuildingBlock: ZUJKAS_clean_linker_0, # of connection points: 2
#     Edge 137, Type (0, 0), BuildingBlock: ZUJKAS_clean_linker_0, # of connection points: 2
#     Edge 138, Type (0, 0), BuildingBlock: ZUJKAS_clean_linker_0, # of connection points: 2
#     Edge 139, Type (0, 0), BuildingBlock: ZUJKAS_clean_linker_0, # of connection points: 2
#     Edge 140, Type (0, 0), BuildingBlock: ZUJKAS_clean_linker_0, # of connection points: 2
#     Edge 141, Type (0, 0), BuildingBlock: ZUJKAS_clean_linker_0, # of connection points: 2
#     Edge 142, Type (0, 0), BuildingBlock: ZUJKAS_clean_linker_0, # of connection points: 2
#     Edge 143, Type (0, 0), BuildingBlock: ZUJKAS_clean_linker_0, # of connection points: 2
#     Edge 144, Type (0, 0), BuildingBlock: ZUJKAS_clean_linker_0, # of connection points: 2
#     Edge 145, Type (0, 0), BuildingBlock: ZUJKAS_clean_linker_0, # of connection points: 2
#     Edge 146, Type (0, 0), BuildingBlock: ZUJKAS_clean_linker_0, # of connection points: 2
#     Edge 147, Type (0, 0), BuildingBlock: ZUJKAS_clean_linker_0, # of connection points: 2
#     Edge 148, Type (0, 0), BuildingBlock: ZUJKAS_clean_linker_0, # of connection points: 2
#     Edge 149, Type (0, 0), BuildingBlock: ZUJKAS_clean_linker_0, # of connection points: 2
#     Edge 150, Type (0, 0), BuildingBlock: ZUJKAS_clean_linker_0, # of connection points: 2
#     Edge 151, Type (0, 0), BuildingBlock: ZUJKAS_clean_linker_0, # of connection points: 2
#     Edge 152, Type (0, 0), BuildingBlock: ZUJKAS_clean_linker_0, # of connection points: 2
#     Edge 153, Type (0, 0), BuildingBlock: ZUJKAS_clean_linker_0, # of connection points: 2
#     Edge 154, Type (0, 0), BuildingBlock: ZUJKAS_clean_linker_0, # of connection points: 2
#     Edge 155, Type (0, 0), BuildingBlock: ZUJKAS_clean_linker_0, # of connection points: 2
#     Edge 156, Type (0, 0), BuildingBlock: ZUJKAS_clean_linker_0, # of connection points: 2
#     Edge 157, Type (0, 0), BuildingBlock: ZUJKAS_clean_linker_0, # of connection points: 2
#     Edge 158, Type (0, 0), BuildingBlock: ZUJKAS_clean_linker_0, # of connection points: 2
#     Edge 159, Type (0, 0), BuildingBlock: ZUJKAS_clean_linker_0, # of connection points: 2
#     Edge 160, Type (0, 0), BuildingBlock: ZUJKAS_clean_linker_0, # of connection points: 2
#     Edge 161, Type (0, 0), BuildingBlock: ZUJKAS_clean_linker_0, # of connection points: 2
#     Edge 162, Type (0, 0), BuildingBlock: ZUJKAS_clean_linker_0, # of connection points: 2
#     Edge 163, Type (0, 0), BuildingBlock: ZUJKAS_clean_linker_0, # of connection points: 2
#     Edge 164, Type (0, 0), BuildingBlock: ZUJKAS_clean_linker_0, # of connection points: 2
#     Edge 165, Type (0, 0), BuildingBlock: ZUJKAS_clean_linker_0, # of connection points: 2
#     Edge 166, Type (0, 0), BuildingBlock: ZUJKAS_clean_linker_0, # of connection points: 2
#     Edge 167, Type (0, 0), BuildingBlock: ZUJKAS_clean_linker_0, # of connection points: 2
#     Edge 168, Type (0, 0), BuildingBlock: ZUJKAS_clean_linker_0, # of connection points: 2
#     Edge 169, Type (0, 0), BuildingBlock: ZUJKAS_clean_linker_0, # of connection points: 2
#     Edge 170, Type (0, 0), BuildingBlock: ZUJKAS_clean_linker_0, # of connection points: 2
#     Edge 171, Type (0, 0), BuildingBlock: ZUJKAS_clean_linker_0, # of connection points: 2
#     Edge 172, Type (0, 0), BuildingBlock: ZUJKAS_clean_linker_0, # of connection points: 2
#     Edge 173, Type (0, 0), BuildingBlock: ZUJKAS_clean_linker_0, # of connection points: 2
#     Edge 174, Type (0, 0), BuildingBlock: ZUJKAS_clean_linker_0, # of connection points: 2
#     Edge 175, Type (0, 0), BuildingBlock: ZUJKAS_clean_linker_0, # of connection points: 2
#     Edge 176, Type (0, 0), BuildingBlock: ZUJKAS_clean_linker_0, # of connection points: 2
#     Edge 177, Type (0, 0), BuildingBlock: ZUJKAS_clean_linker_0, # of connection points: 2
#     Edge 178, Type (0, 0), BuildingBlock: ZUJKAS_clean_linker_0, # of connection points: 2
#     Edge 179, Type (0, 0), BuildingBlock: ZUJKAS_clean_linker_0, # of connection points: 2
#     Edge 180, Type (0, 0), BuildingBlock: ZUJKAS_clean_linker_0, # of connection points: 2
#     Edge 181, Type (0, 0), BuildingBlock: ZUJKAS_clean_linker_0, # of connection points: 2
#     Edge 182, Type (0, 0), BuildingBlock: ZUJKAS_clean_linker_0, # of connection points: 2
#     Edge 183, Type (0, 0), BuildingBlock: ZUJKAS_clean_linker_0, # of connection points: 2
#     Edge 184, Type (0, 0), BuildingBlock: ZUJKAS_clean_linker_0, # of connection points: 2
#     Edge 185, Type (0, 0), BuildingBlock: ZUJKAS_clean_linker_0, # of connection points: 2
#     Edge 186, Type (0, 0), BuildingBlock: ZUJKAS_clean_linker_0, # of connection points: 2
#     Edge 187, Type (0, 0), BuildingBlock: ZUJKAS_clean_linker_0, # of connection points: 2
#     Edge 188, Type (0, 0), BuildingBlock: ZUJKAS_clean_linker_0, # of connection points: 2
#     Edge 189, Type (0, 0), BuildingBlock: ZUJKAS_clean_linker_0, # of connection points: 2
#     Edge 190, Type (0, 0), BuildingBlock: ZUJKAS_clean_linker_0, # of connection points: 2
#     Edge 191, Type (0, 0), BuildingBlock: ZUJKAS_clean_linker_0, # of connection points: 2
#     Edge 192, Type (0, 0), BuildingBlock: ZUJKAS_clean_linker_0, # of connection points: 2
#     Edge 193, Type (0, 0), BuildingBlock: ZUJKAS_clean_linker_0, # of connection points: 2
#     Edge 194, Type (0, 0), BuildingBlock: ZUJKAS_clean_linker_0, # of connection points: 2
#     Edge 195, Type (0, 0), BuildingBlock: ZUJKAS_clean_linker_0, # of connection points: 2
#     Edge 196, Type (0, 0), BuildingBlock: ZUJKAS_clean_linker_0, # of connection points: 2
#     Edge 197, Type (0, 0), BuildingBlock: ZUJKAS_clean_linker_0, # of connection points: 2
#     Edge 198, Type (0, 0), BuildingBlock: ZUJKAS_clean_linker_0, # of connection points: 2
#     Edge 199, Type (0, 0), BuildingBlock: ZUJKAS_clean_linker_0, # of connection points: 2
#     Edge 200, Type (0, 0), BuildingBlock: ZUJKAS_clean_linker_0, # of connection points: 2
#     Edge 201, Type (0, 0), BuildingBlock: ZUJKAS_clean_linker_0, # of connection points: 2
#     Edge 202, Type (0, 0), BuildingBlock: ZUJKAS_clean_linker_0, # of connection points: 2
#     Edge 203, Type (0, 0), BuildingBlock: ZUJKAS_clean_linker_0, # of connection points: 2
#     Edge 204, Type (0, 0), BuildingBlock: ZUJKAS_clean_linker_0, # of connection points: 2
#     Edge 205, Type (0, 0), BuildingBlock: ZUJKAS_clean_linker_0, # of connection points: 2
#     Edge 206, Type (0, 0), BuildingBlock: ZUJKAS_clean_linker_0, # of connection points: 2
#     Edge 207, Type (0, 0), BuildingBlock: ZUJKAS_clean_linker_0, # of connection points: 2
#     Edge 208, Type (0, 0), BuildingBlock: ZUJKAS_clean_linker_0, # of connection points: 2
#     Edge 209, Type (0, 0), BuildingBlock: ZUJKAS_clean_linker_0, # of connection points: 2
#     Edge 210, Type (0, 0), BuildingBlock: ZUJKAS_clean_linker_0, # of connection points: 2
#     Edge 211, Type (0, 0), BuildingBlock: ZUJKAS_clean_linker_0, # of connection points: 2
#     Edge 212, Type (0, 0), BuildingBlock: ZUJKAS_clean_linker_0, # of connection points: 2
#     Edge 213, Type (0, 0), BuildingBlock: ZUJKAS_clean_linker_0, # of connection points: 2
#     Edge 214, Type (0, 0), BuildingBlock: ZUJKAS_clean_linker_0, # of connection points: 2
#     Edge 215, Type (0, 0), BuildingBlock: ZUJKAS_clean_linker_0, # of connection points: 2
#     Edge 216, Type (0, 0), BuildingBlock: ZUJKAS_clean_linker_0, # of connection points: 2
#     Edge 217, Type (0, 0), BuildingBlock: ZUJKAS_clean_linker_0, # of connection points: 2
#     Edge 218, Type (0, 0), BuildingBlock: ZUJKAS_clean_linker_0, # of connection points: 2
#     Edge 219, Type (0, 0), BuildingBlock: ZUJKAS_clean_linker_0, # of connection points: 2
#     Edge 220, Type (0, 0), BuildingBlock: ZUJKAS_clean_linker_0, # of connection points: 2
#     Edge 221, Type (0, 0), BuildingBlock: ZUJKAS_clean_linker_0, # of connection points: 2
#     Edge 222, Type (0, 0), BuildingBlock: ZUJKAS_clean_linker_0, # of connection points: 2
#     Edge 223, Type (0, 0), BuildingBlock: ZUJKAS_clean_linker_0, # of connection points: 2
#     Edge 224, Type (0, 0), BuildingBlock: ZUJKAS_clean_linker_0, # of connection points: 2
#     Edge 225, Type (0, 0), BuildingBlock: ZUJKAS_clean_linker_0, # of connection points: 2
#     Edge 226, Type (0, 0), BuildingBlock: ZUJKAS_clean_linker_0, # of connection points: 2
#     Edge 227, Type (0, 0), BuildingBlock: ZUJKAS_clean_linker_0, # of connection points: 2
#     Edge 228, Type (0, 0), BuildingBlock: ZUJKAS_clean_linker_0, # of connection points: 2
#     Edge 229, Type (0, 0), BuildingBlock: ZUJKAS_clean_linker_0, # of connection points: 2
#     Edge 230, Type (0, 0), BuildingBlock: ZUJKAS_clean_linker_0, # of connection points: 2
#     Edge 231, Type (0, 0), BuildingBlock: ZUJKAS_clean_linker_0, # of connection points: 2
#     Edge 232, Type (0, 0), BuildingBlock: ZUJKAS_clean_linker_0, # of connection points: 2
#     Edge 233, Type (0, 0), BuildingBlock: ZUJKAS_clean_linker_0, # of connection points: 2
#     Edge 234, Type (0, 0), BuildingBlock: ZUJKAS_clean_linker_0, # of connection points: 2
#     Edge 235, Type (0, 0), BuildingBlock: ZUJKAS_clean_linker_0, # of connection points: 2
#     Edge 236, Type (0, 0), BuildingBlock: ZUJKAS_clean_linker_0, # of connection points: 2
#     Edge 237, Type (0, 0), BuildingBlock: ZUJKAS_clean_linker_0, # of connection points: 2
#     Edge 238, Type (0, 0), BuildingBlock: ZUJKAS_clean_linker_0, # of connection points: 2
#     Edge 239, Type (0, 0), BuildingBlock: ZUJKAS_clean_linker_0, # of connection points: 2
#     Edge 240, Type (0, 0), BuildingBlock: ZUJKAS_clean_linker_0, # of connection points: 2
#     Edge 241, Type (0, 0), BuildingBlock: ZUJKAS_clean_linker_0, # of connection points: 2
#     Edge 242, Type (0, 0), BuildingBlock: ZUJKAS_clean_linker_0, # of connection points: 2
#     Edge 243, Type (0, 0), BuildingBlock: ZUJKAS_clean_linker_0, # of connection points: 2
#     Edge 244, Type (0, 0), BuildingBlock: ZUJKAS_clean_linker_0, # of connection points: 2
#     Edge 245, Type (0, 0), BuildingBlock: ZUJKAS_clean_linker_0, # of connection points: 2
#     Edge 246, Type (0, 0), BuildingBlock: ZUJKAS_clean_linker_0, # of connection points: 2
#     Edge 247, Type (0, 0), BuildingBlock: ZUJKAS_clean_linker_0, # of connection points: 2
#     Edge 248, Type (0, 0), BuildingBlock: ZUJKAS_clean_linker_0, # of connection points: 2
#     Edge 249, Type (0, 0), BuildingBlock: ZUJKAS_clean_linker_0, # of connection points: 2
#     Edge 250, Type (0, 0), BuildingBlock: ZUJKAS_clean_linker_0, # of connection points: 2
#     Edge 251, Type (0, 0), BuildingBlock: ZUJKAS_clean_linker_0, # of connection points: 2
#     Edge 252, Type (0, 0), BuildingBlock: ZUJKAS_clean_linker_0, # of connection points: 2
#     Edge 253, Type (0, 0), BuildingBlock: ZUJKAS_clean_linker_0, # of connection points: 2
#     Edge 254, Type (0, 0), BuildingBlock: ZUJKAS_clean_linker_0, # of connection points: 2
#     Edge 255, Type (0, 0), BuildingBlock: ZUJKAS_clean_linker_0, # of connection points: 2
#     Edge 256, Type (0, 0), BuildingBlock: ZUJKAS_clean_linker_0, # of connection points: 2
#     Edge 257, Type (0, 0), BuildingBlock: ZUJKAS_clean_linker_0, # of connection points: 2
#     Edge 258, Type (0, 0), BuildingBlock: ZUJKAS_clean_linker_0, # of connection points: 2
#     Edge 259, Type (0, 0), BuildingBlock: ZUJKAS_clean_linker_0, # of connection points: 2
#     Edge 260, Type (0, 0), BuildingBlock: ZUJKAS_clean_linker_0, # of connection points: 2
#     Edge 261, Type (0, 0), BuildingBlock: ZUJKAS_clean_linker_0, # of connection points: 2
#     Edge 262, Type (0, 0), BuildingBlock: ZUJKAS_clean_linker_0, # of connection points: 2
#     Edge 263, Type (0, 0), BuildingBlock: ZUJKAS_clean_linker_0, # of connection points: 2
#     Edge 264, Type (0, 0), BuildingBlock: ZUJKAS_clean_linker_0, # of connection points: 2
#     Edge 265, Type (0, 0), BuildingBlock: ZUJKAS_clean_linker_0, # of connection points: 2
#     Edge 266, Type (0, 0), BuildingBlock: ZUJKAS_clean_linker_0, # of connection points: 2
#     Edge 267, Type (0, 0), BuildingBlock: ZUJKAS_clean_linker_0, # of connection points: 2
#     Edge 268, Type (0, 0), BuildingBlock: ZUJKAS_clean_linker_0, # of connection points: 2
#     Edge 269, Type (0, 0), BuildingBlock: ZUJKAS_clean_linker_0, # of connection points: 2
#     Edge 270, Type (0, 0), BuildingBlock: ZUJKAS_clean_linker_0, # of connection points: 2
#     Edge 271, Type (0, 0), BuildingBlock: ZUJKAS_clean_linker_0, # of connection points: 2
#     Edge 272, Type (0, 0), BuildingBlock: ZUJKAS_clean_linker_0, # of connection points: 2
#     Edge 273, Type (0, 0), BuildingBlock: ZUJKAS_clean_linker_0, # of connection points: 2
#     Edge 274, Type (0, 0), BuildingBlock: ZUJKAS_clean_linker_0, # of connection points: 2
#     Edge 275, Type (0, 0), BuildingBlock: ZUJKAS_clean_linker_0, # of connection points: 2
#     Edge 276, Type (0, 0), BuildingBlock: ZUJKAS_clean_linker_0, # of connection points: 2
#     Edge 277, Type (0, 0), BuildingBlock: ZUJKAS_clean_linker_0, # of connection points: 2
#     Edge 278, Type (0, 0), BuildingBlock: ZUJKAS_clean_linker_0, # of connection points: 2
#     Edge 279, Type (0, 0), BuildingBlock: ZUJKAS_clean_linker_0, # of connection points: 2
#     Edge 280, Type (0, 0), BuildingBlock: ZUJKAS_clean_linker_0, # of connection points: 2
#     Edge 281, Type (0, 0), BuildingBlock: ZUJKAS_clean_linker_0, # of connection points: 2
#     Edge 282, Type (0, 0), BuildingBlock: ZUJKAS_clean_linker_0, # of connection points: 2
#     Edge 283, Type (0, 0), BuildingBlock: ZUJKAS_clean_linker_0, # of connection points: 2
#     Edge 284, Type (0, 0), BuildingBlock: ZUJKAS_clean_linker_0, # of connection points: 2
#     Edge 285, Type (0, 0), BuildingBlock: ZUJKAS_clean_linker_0, # of connection points: 2
#     Edge 286, Type (0, 0), BuildingBlock: ZUJKAS_clean_linker_0, # of connection points: 2
#     Edge 287, Type (0, 0), BuildingBlock: ZUJKAS_clean_linker_0, # of connection points: 2
# Relax obj value: 0.199
# Max RMSD: 0.230
# Mean RMSD: 0.230
data_MOF--net-ulh--node1-CEKHIL_clean_sbu_0--edge1-ZUJKAS_clean_linker_0
_symmetry_space_group_name_H-M    P1
_symmetry_Int_Tables_number       1
_symmetry_cell_setting            triclinic
loop_
_symmetry_equiv_pos_as_xyz
'x, y, z'
_cell_length_a     103.72035
_cell_length_b     103.70398
_cell_length_c     103.70581
_cell_angle_alpha  89.996849
_cell_angle_beta   89.997851
_cell_angle_gamma 89.995996
loop_
_atom_site_label
_atom_site_type_symbol
_atom_site_fract_x
_atom_site_fract_y
_atom_site_fract_z
_atom_type_partial_charge
Co0 Co 0.03673 0.31475 0.08766 0.0
O1 O 0.02447 0.30321 0.09517 0.0
O2 O 0.04257 0.29706 0.08563 0.0
C3 C 0.03788 0.32875 0.10427 0.0
O4 O 0.05178 0.32429 0.0793 0.0
Co5 Co 0.02775 0.34282 0.08181 0.0
O6 O 0.04627 0.34529 0.07788 0.0
C7 C 0.01975 0.3218 0.06452 0.0
C8 C 0.03211 0.29391 0.09181 0.0
C9 C 0.0544 0.33615 0.07661 0.0
O10 O 0.02723 0.31398 0.07061 0.0
O11 O 0.01775 0.33342 0.0682 0.0
O12 O 0.04442 0.31809 0.10449 0.0
O13 O 0.02969 0.32975 0.09493 0.0
Co14 Co 0.9372 0.28714 0.33867 0.0
O15 O 0.9492 0.27503 0.34569 0.0
O16 O 0.95469 0.29347 0.33637 0.0
C17 C 0.92357 0.28761 0.35559 0.0
O18 O 0.92707 0.3021 0.33082 0.0
Co19 Co 0.90923 0.27773 0.33326 0.0
O20 O 0.90609 0.29646 0.33107 0.0
C21 C 0.93005 0.27034 0.31546 0.0
C22 C 0.95823 0.28296 0.34227 0.0
C23 C 0.915 0.30477 0.32935 0.0
O24 O 0.93782 0.27792 0.32148 0.0
O25 O 0.91853 0.2681 0.31931 0.0
O26 O 0.93405 0.29444 0.35569 0.0
O27 O 0.92257 0.27955 0.34613 0.0
Co28 Co 0.96245 0.18722 0.58696 0.0
O29 O 0.97546 0.19845 0.59368 0.0
O30 O 0.95709 0.20505 0.58499 0.0
C31 C 0.96178 0.17354 0.60386 0.0
O32 O 0.94664 0.17814 0.57953 0.0
Co33 Co 0.9697 0.15871 0.58107 0.0
O34 O 0.95072 0.15682 0.57982 0.0
C35 C 0.97792 0.17916 0.56315 0.0
C36 C 0.96792 0.20794 0.59064 0.0
C37 C 0.94304 0.1663 0.57829 0.0
O38 O 0.97112 0.18741 0.56948 0.0
O39 O 0.97943 0.16747 0.56683 0.0
O40 O 0.95559 0.1844 0.60423 0.0
O41 O 0.96934 0.17206 0.59406 0.0
Co42 Co 0.06261 0.21209 0.83853 0.0
O43 O 0.051 0.22506 0.8447 0.0
O44 O 0.04493 0.20655 0.83589 0.0
C45 C 0.07563 0.21171 0.85596 0.0
O46 O 0.07209 0.19631 0.83151 0.0
Co47 Co 0.09136 0.21922 0.8338 0.0
O48 O 0.09334 0.20019 0.83378 0.0
C49 C 0.07165 0.2272 0.81487 0.0
C50 C 0.04172 0.21741 0.84132 0.0
C51 C 0.08395 0.19259 0.83149 0.0
O52 O 0.06307 0.22065 0.82101 0.0
O53 O 0.08323 0.2286 0.81893 0.0
O54 O 0.06483 0.20539 0.85597 0.0
O55 O 0.07741 0.21917 0.84613 0.0
Co56 Co 0.03891 0.6866 0.91189 0.0
O57 O 0.02583 0.69805 0.90564 0.0
O58 O 0.04426 0.70435 0.91445 0.0
C59 C 0.03944 0.67352 0.8945 0.0
O60 O 0.05477 0.67733 0.91898 0.0
Co61 Co 0.03211 0.65778 0.91673 0.0
O62 O 0.05116 0.65602 0.91678 0.0
C63 C 0.0239 0.6775 0.93558 0.0
C64 C 0.03338 0.70743 0.909 0.0
C65 C 0.05863 0.66551 0.91906 0.0
O66 O 0.03034 0.68613 0.9294 0.0
O67 O 0.02267 0.66587 0.93158 0.0
O68 O 0.04566 0.68437 0.89447 0.0
O69 O 0.03201 0.67168 0.90434 0.0
Co70 Co 0.56331 0.28979 0.16172 0.0
O71 O 0.5523 0.27727 0.15385 0.0
O72 O 0.54541 0.29513 0.16334 0.0
C73 C 0.57765 0.29134 0.14544 0.0
O74 O 0.57227 0.30503 0.17043 0.0
Co75 Co 0.59144 0.28154 0.16818 0.0
O76 O 0.59343 0.30021 0.17164 0.0
C77 C 0.57023 0.27281 0.18489 0.0
C78 C 0.54271 0.2846 0.15705 0.0
C79 C 0.58406 0.30807 0.17301 0.0
O80 O 0.56236 0.28012 0.17866 0.0
O81 O 0.582 0.2712 0.18152 0.0
O82 O 0.56688 0.29769 0.14503 0.0
O83 O 0.57863 0.28314 0.15477 0.0
Co84 Co 0.95809 0.81178 0.41315 0.0
O85 O 0.97062 0.79972 0.40694 0.0
O86 O 0.95194 0.79431 0.41589 0.0
C87 C 0.95811 0.82473 0.39567 0.0
O88 O 0.94267 0.82181 0.42018 0.0
Co89 Co 0.96633 0.84027 0.41775 0.0
O90 O 0.94744 0.84295 0.41881 0.0
C91 C 0.97389 0.82029 0.43654 0.0
C92 C 0.96266 0.79075 0.41043 0.0
C93 C 0.93946 0.83381 0.42083 0.0
O94 O 0.96678 0.81199 0.43063 0.0
O95 O 0.97577 0.83175 0.43233 0.0
O96 O 0.95139 0.81417 0.39573 0.0
O97 O 0.96565 0.82629 0.40547 0.0
Co98 Co 0.43902 0.2116 0.66298 0.0
O99 O 0.45073 0.22431 0.65648 0.0
O100 O 0.45667 0.20578 0.66533 0.0
C101 C 0.42572 0.21136 0.64577 0.0
O102 O 0.42938 0.19606 0.67031 0.0
Co103 Co 0.41047 0.21926 0.66804 0.0
O104 O 0.40817 0.20026 0.66824 0.0
C105 C 0.43061 0.22709 0.6866 0.0
C106 C 0.45995 0.21655 0.65977 0.0
C107 C 0.41746 0.19253 0.6705 0.0
O108 O 0.43901 0.22034 0.68042 0.0
O109 O 0.419 0.22863 0.68268 0.0
O110 O 0.43634 0.20473 0.64566 0.0
O111 O 0.42426 0.21894 0.65555 0.0
Co112 Co 0.08845 0.03753 0.31443 0.0
O113 O 0.09516 0.02482 0.30286 0.0
O114 O 0.08678 0.04351 0.29676 0.0
C115 C 0.10517 0.03753 0.32835 0.0
O116 O 0.0811 0.05314 0.32395 0.0
Co117 Co 0.08218 0.02949 0.34266 0.0
O118 O 0.08131 0.04842 0.34515 0.0
C119 C 0.06445 0.02202 0.32173 0.0
C120 C 0.09234 0.03271 0.29358 0.0
C121 C 0.07992 0.05641 0.3359 0.0
O122 O 0.07088 0.02904 0.31375 0.0
O123 O 0.06802 0.02013 0.33341 0.0
O124 O 0.10578 0.04409 0.31772 0.0
O125 O 0.09525 0.03006 0.32941 0.0
Co126 Co 0.2127 0.33846 0.56306 0.0
O127 O 0.22603 0.34465 0.55189 0.0
O128 O 0.20772 0.33593 0.54518 0.0
C129 C 0.21198 0.35587 0.5761 0.0
O130 O 0.19662 0.33148 0.57204 0.0
Co131 Co 0.21899 0.33365 0.59201 0.0
O132 O 0.1999 0.3339 0.59339 0.0
C133 C 0.22762 0.31483 0.57248 0.0
C134 C 0.21866 0.3414 0.54234 0.0
C135 C 0.19257 0.33163 0.58379 0.0
O136 O 0.2212 0.3209 0.56374 0.0
O137 O 0.22874 0.31892 0.58408 0.0
O138 O 0.20598 0.35592 0.56512 0.0
O139 O 0.21934 0.346 0.57809 0.0
Co140 Co 0.91218 0.46152 0.81274 0.0
O141 O 0.90553 0.47411 0.80097 0.0
O142 O 0.91462 0.45566 0.79511 0.0
C143 C 0.89501 0.46097 0.82609 0.0
O144 O 0.91967 0.44612 0.82247 0.0
Co145 Co 0.9173 0.46974 0.84112 0.0
O146 O 0.91884 0.45085 0.84365 0.0
C147 C 0.93554 0.47763 0.82081 0.0
C148 C 0.90894 0.46636 0.79178 0.0
C149 C 0.92071 0.4429 0.83445 0.0
O150 O 0.92951 0.47047 0.81265 0.0
O151 O 0.93157 0.47946 0.83237 0.0
O152 O 0.89498 0.45443 0.81542 0.0
O153 O 0.90464 0.46877 0.8275 0.0
Co154 Co 0.78913 0.1634 0.06315 0.0
O155 O 0.77667 0.15626 0.05157 0.0
O156 O 0.79495 0.1655 0.04546 0.0
C157 C 0.78992 0.14657 0.07693 0.0
O158 O 0.80434 0.17143 0.07278 0.0
Co159 Co 0.78027 0.16906 0.09131 0.0
O160 O 0.79884 0.17274 0.09379 0.0
C161 C 0.77241 0.18663 0.07047 0.0
C162 C 0.78433 0.15959 0.04229 0.0
C163 C 0.80699 0.17402 0.08466 0.0
O164 O 0.77991 0.1806 0.06261 0.0
O165 O 0.77032 0.1828 0.08203 0.0
O166 O 0.79649 0.14636 0.06627 0.0
O167 O 0.78197 0.1561 0.07806 0.0
Co168 Co 0.0876 0.96284 0.68694 0.0
O169 O 0.09525 0.97527 0.69822 0.0
O170 O 0.08574 0.95728 0.70474 0.0
C171 C 0.1041 0.96156 0.67285 0.0
O172 O 0.07912 0.94764 0.67776 0.0
Co173 Co 0.08153 0.97114 0.65874 0.0
O174 O 0.07751 0.95258 0.65664 0.0
C175 C 0.06459 0.97988 0.67977 0.0
C176 C 0.09196 0.96778 0.70767 0.0
C177 C 0.07632 0.9447 0.66601 0.0
O178 O 0.07061 0.97244 0.68769 0.0
O179 O 0.06823 0.9816 0.6681 0.0
O180 O 0.10437 0.95506 0.68354 0.0
O181 O 0.09474 0.96971 0.6718 0.0
Co182 Co 0.2894 0.3386 0.93647 0.0
O183 O 0.27702 0.34567 0.94819 0.0
O184 O 0.29531 0.33632 0.95409 0.0
C185 C 0.29016 0.35556 0.92286 0.0
O186 O 0.30464 0.33071 0.92682 0.0
Co187 Co 0.28109 0.33321 0.90815 0.0
O188 O 0.29995 0.33133 0.90563 0.0
C189 C 0.27288 0.31541 0.92873 0.0
C190 C 0.28477 0.34228 0.9574 0.0
C191 C 0.30785 0.32945 0.91487 0.0
O192 O 0.28014 0.32142 0.93683 0.0
O193 O 0.27114 0.31925 0.91713 0.0
O194 O 0.29676 0.35565 0.9335 0.0
O195 O 0.28223 0.34603 0.92161 0.0
Co196 Co 0.91249 0.53814 0.18819 0.0
O197 O 0.90576 0.52542 0.19972 0.0
O198 O 0.91476 0.54377 0.20594 0.0
C199 C 0.89539 0.53882 0.17474 0.0
O200 O 0.92006 0.5536 0.1786 0.0
Co201 Co 0.91778 0.52972 0.15984 0.0
O202 O 0.92027 0.54853 0.15747 0.0
C203 C 0.93568 0.52174 0.18031 0.0
C204 C 0.90904 0.53303 0.20906 0.0
C205 C 0.92182 0.55658 0.16665 0.0
O206 O 0.92986 0.52926 0.1883 0.0
O207 O 0.93159 0.51959 0.16886 0.0
O208 O 0.89527 0.54523 0.18548 0.0
O209 O 0.90503 0.53105 0.17333 0.0
Co210 Co 0.70978 0.16222 0.43743 0.0
O211 O 0.72112 0.15286 0.44848 0.0
O212 O 0.70417 0.16392 0.4553 0.0
C213 C 0.70732 0.14631 0.4228 0.0
O214 O 0.69561 0.17237 0.42823 0.0
Co215 Co 0.71945 0.16837 0.40968 0.0
O216 O 0.70127 0.17368 0.40726 0.0
C217 C 0.72877 0.18407 0.43139 0.0
C218 C 0.71375 0.15624 0.45797 0.0
C219 C 0.69324 0.17546 0.41641 0.0
O220 O 0.72082 0.17826 0.43898 0.0
O221 O 0.73049 0.18073 0.41963 0.0
O222 O 0.70056 0.14636 0.43333 0.0
O223 O 0.71627 0.15496 0.42219 0.0
Co224 Co 0.31213 0.08715 0.04096 0.0
O225 O 0.30053 0.09603 0.02976 0.0
O226 O 0.2945 0.08504 0.0471 0.0
C227 C 0.32641 0.10346 0.04272 0.0
O228 O 0.32194 0.07752 0.05507 0.0
Co229 Co 0.33979 0.08146 0.03083 0.0
O230 O 0.34286 0.07719 0.04919 0.0
C231 C 0.31829 0.06495 0.02241 0.0
C232 C 0.29137 0.09242 0.03743 0.0
C233 C 0.33393 0.07515 0.0574 0.0
O234 O 0.3107 0.07087 0.03027 0.0
O235 O 0.32997 0.06845 0.02044 0.0
O236 O 0.31606 0.1033 0.04975 0.0
O237 O 0.32701 0.09464 0.03393 0.0
Co238 Co 0.81336 0.91414 0.46336 0.0
O239 O 0.80144 0.90828 0.4762 0.0
O240 O 0.79581 0.91682 0.45743 0.0
C241 C 0.82618 0.89656 0.46345 0.0
O242 O 0.82327 0.92074 0.44764 0.0
Co243 Co 0.84192 0.91874 0.47131 0.0
O244 O 0.84441 0.91936 0.45238 0.0
C245 C 0.82219 0.93788 0.47853 0.0
C246 C 0.79234 0.91155 0.46829 0.0
C247 C 0.83526 0.92122 0.44437 0.0
O248 O 0.8138 0.9318 0.47167 0.0
O249 O 0.83364 0.93367 0.48041 0.0
O250 O 0.81549 0.8966 0.45696 0.0
O251 O 0.82794 0.90645 0.47084 0.0
Co252 Co 0.33908 0.06373 0.71295 0.0
O253 O 0.34551 0.05223 0.7259 0.0
O254 O 0.33715 0.04599 0.70725 0.0
C255 C 0.35601 0.07737 0.71287 0.0
O256 O 0.33196 0.07312 0.69716 0.0
Co257 Co 0.33326 0.09218 0.72046 0.0
O258 O 0.33259 0.09439 0.70148 0.0
C259 C 0.31507 0.0717 0.72812 0.0
C260 C 0.34253 0.04289 0.71816 0.0
C261 C 0.33104 0.08501 0.69366 0.0
O262 O 0.32145 0.06348 0.72133 0.0
O263 O 0.3188 0.08336 0.72982 0.0
O264 O 0.35646 0.06667 0.7064 0.0
O265 O 0.34609 0.0787 0.7203 0.0
Co266 Co 0.18753 0.58799 0.96271 0.0
O267 O 0.19966 0.59486 0.97476 0.0
O268 O 0.20495 0.58581 0.95614 0.0
C269 C 0.17389 0.60491 0.96262 0.0
O270 O 0.17723 0.58031 0.9478 0.0
Co271 Co 0.15968 0.58248 0.97245 0.0
O272 O 0.15632 0.58055 0.95371 0.0
C273 C 0.18069 0.5648 0.97955 0.0
C274 C 0.2086 0.59159 0.96667 0.0
C275 C 0.16513 0.5789 0.94527 0.0
O276 O 0.18826 0.57067 0.97165 0.0
O277 O 0.16929 0.56877 0.98219 0.0
O278 O 0.18429 0.6051 0.95566 0.0
O279 O 0.173 0.59534 0.97056 0.0
Co280 Co 0.16303 0.93702 0.21217 0.0
O281 O 0.15658 0.94851 0.22508 0.0
O282 O 0.16567 0.95477 0.20678 0.0
C283 C 0.14568 0.92394 0.21143 0.0
O284 O 0.17034 0.92762 0.19649 0.0
Co285 Co 0.16774 0.90828 0.21935 0.0
O286 O 0.16795 0.90636 0.20031 0.0
C287 C 0.1865 0.92802 0.22762 0.0
C288 C 0.16003 0.95787 0.21756 0.0
C289 C 0.17035 0.91576 0.19275 0.0
O290 O 0.1804 0.9366 0.22103 0.0
O291 O 0.18247 0.91641 0.22892 0.0
O292 O 0.14575 0.93475 0.20512 0.0
O293 O 0.15536 0.92219 0.21909 0.0
Co294 Co 0.68703 0.9129 0.03749 0.0
O295 O 0.69877 0.90666 0.02467 0.0
O296 O 0.70466 0.91537 0.04328 0.0
C297 C 0.67395 0.89552 0.03764 0.0
O298 O 0.67738 0.91997 0.05314 0.0
Co299 Co 0.65841 0.91776 0.03001 0.0
O300 O 0.65617 0.9178 0.04902 0.0
C301 C 0.67832 0.93665 0.02234 0.0
C302 C 0.70797 0.9099 0.03248 0.0
C303 C 0.66548 0.92006 0.05673 0.0
O304 O 0.68681 0.93043 0.02894 0.0
O305 O 0.66672 0.93265 0.02083 0.0
O306 O 0.68462 0.8955 0.04417 0.0
O307 O 0.67231 0.90536 0.03016 0.0
Co308 Co 0.33835 0.43561 0.78698 0.0
O309 O 0.34536 0.44736 0.77458 0.0
O310 O 0.3361 0.45323 0.79292 0.0
C311 C 0.35525 0.42195 0.78773 0.0
O312 O 0.3305 0.42587 0.80221 0.0
Co313 Co 0.33283 0.40742 0.77828 0.0
O314 O 0.33047 0.40476 0.79705 0.0
C315 C 0.31515 0.42814 0.77032 0.0
C316 C 0.34198 0.45655 0.78234 0.0
C317 C 0.32885 0.41389 0.80515 0.0
O318 O 0.32114 0.43606 0.77778 0.0
O319 O 0.31899 0.41657 0.76833 0.0
O320 O 0.35541 0.43262 0.79428 0.0
O321 O 0.34574 0.42077 0.77976 0.0
Co322 Co 0.66251 0.06311 0.28762 0.0
O323 O 0.65584 0.05098 0.27543 0.0
O324 O 0.66503 0.04569 0.294 0.0
C325 C 0.64537 0.07651 0.28794 0.0
O326 O 0.67004 0.07334 0.30267 0.0
Co327 Co 0.6676 0.09118 0.27826 0.0
O328 O 0.66995 0.0943 0.29696 0.0
C329 C 0.68588 0.07065 0.27119 0.0
C330 C 0.65934 0.04203 0.28343 0.0
C331 C 0.67161 0.0854 0.30529 0.0
O332 O 0.67983 0.06276 0.27864 0.0
O333 O 0.68188 0.08211 0.2689 0.0
O334 O 0.64534 0.06599 0.29472 0.0
O335 O 0.65492 0.07766 0.28 0.0
Co336 Co 0.03928 0.81479 0.58695 0.0
O337 O 0.02632 0.80396 0.59438 0.0
O338 O 0.04427 0.79681 0.58528 0.0
C339 C 0.04061 0.8289 0.60346 0.0
O340 O 0.05497 0.82341 0.57872 0.0
Co341 Co 0.03215 0.84327 0.5806 0.0
O342 O 0.05091 0.84472 0.57731 0.0
C343 C 0.02292 0.82244 0.56364 0.0
C344 C 0.03356 0.79425 0.5913 0.0
C345 C 0.05845 0.83507 0.57614 0.0
O346 O 0.03 0.81429 0.56978 0.0
O347 O 0.0216 0.8342 0.56718 0.0
O348 O 0.04674 0.818 0.60394 0.0
O349 O 0.03281 0.83019 0.59383 0.0
Co350 Co 0.93687 0.78883 0.83868 0.0
O351 O 0.94848 0.77607 0.84528 0.0
O352 O 0.95451 0.79484 0.83699 0.0
C353 C 0.92297 0.78875 0.85539 0.0
O354 O 0.92734 0.80447 0.83145 0.0
Co355 Co 0.90865 0.78086 0.83241 0.0
O356 O 0.90614 0.79981 0.8317 0.0
C357 C 0.92954 0.77346 0.81461 0.0
C358 C 0.95773 0.78399 0.84243 0.0
C359 C 0.9154 0.80779 0.83035 0.0
O360 O 0.93752 0.78044 0.82107 0.0
O361 O 0.91787 0.77156 0.81817 0.0
O362 O 0.9336 0.79533 0.85602 0.0
O363 O 0.92191 0.78127 0.84547 0.0
Co364 Co 0.96131 0.68522 0.0873 0.0
O365 O 0.97408 0.69653 0.09438 0.0
O366 O 0.95592 0.70301 0.08515 0.0
C367 C 0.96026 0.67154 0.10421 0.0
O368 O 0.94579 0.67612 0.07935 0.0
Co369 Co 0.96893 0.65673 0.08168 0.0
O370 O 0.9503 0.6549 0.07786 0.0
C371 C 0.97761 0.67723 0.06405 0.0
C372 C 0.96659 0.70597 0.09106 0.0
C373 C 0.94259 0.66441 0.07667 0.0
O374 O 0.97049 0.68543 0.07008 0.0
O375 O 0.97918 0.6656 0.06789 0.0
O376 O 0.95395 0.68235 0.10437 0.0
O377 O 0.96808 0.6701 0.09461 0.0
Co378 Co 0.06321 0.71204 0.33645 0.0
O379 O 0.05093 0.72395 0.34334 0.0
O380 O 0.04587 0.70541 0.33393 0.0
C381 C 0.07659 0.71171 0.35357 0.0
O382 O 0.07366 0.69722 0.32872 0.0
Co383 Co 0.09117 0.72173 0.33152 0.0
O384 O 0.09457 0.70305 0.32937 0.0
C385 C 0.0705 0.72907 0.31349 0.0
C386 C 0.04212 0.71584 0.33982 0.0
C387 C 0.08577 0.69466 0.32747 0.0
O388 O 0.06271 0.72132 0.31929 0.0
O389 O 0.08192 0.73139 0.31756 0.0
O390 O 0.06621 0.70472 0.35349 0.0
O391 O 0.07762 0.7198 0.34415 0.0
Co392 Co 0.03926 0.18679 0.41179 0.0
O393 O 0.02679 0.19829 0.40454 0.0
O394 O 0.04496 0.20453 0.41389 0.0
C395 C 0.0402 0.173 0.395 0.0
O396 O 0.0545 0.17732 0.41991 0.0
Co397 Co 0.03078 0.15856 0.4175 0.0
O398 O 0.04947 0.15619 0.42062 0.0
C399 C 0.02257 0.17936 0.43498 0.0
C400 C 0.03438 0.20763 0.40788 0.0
C401 C 0.05745 0.16543 0.42212 0.0
O402 O 0.02994 0.18732 0.42893 0.0
O403 O 0.02071 0.16774 0.43123 0.0
O404 O 0.04671 0.18368 0.39481 0.0
O405 O 0.03222 0.17181 0.40451 0.0
Co406 Co 0.56348 0.78896 0.66118 0.0
O407 O 0.55229 0.77585 0.6546 0.0
O408 O 0.54562 0.79412 0.66347 0.0
C409 C 0.57683 0.78983 0.64402 0.0
O410 O 0.57257 0.80481 0.66853 0.0
Co411 Co 0.59218 0.78196 0.6664 0.0
O412 O 0.59391 0.80098 0.66741 0.0
C413 C 0.57219 0.7735 0.68476 0.0
C414 C 0.54277 0.78327 0.65783 0.0
C415 C 0.5844 0.80854 0.66931 0.0
O416 O 0.56372 0.78019 0.67861 0.0
O417 O 0.58382 0.77216 0.68084 0.0
O418 O 0.56592 0.79597 0.6439 0.0
O419 O 0.57853 0.78222 0.65374 0.0
Co420 Co 0.96207 0.31391 0.91133 0.0
O421 O 0.97462 0.30189 0.90509 0.0
O422 O 0.95578 0.29642 0.91359 0.0
C423 C 0.9623 0.32723 0.89412 0.0
O424 O 0.94662 0.32393 0.91831 0.0
Co425 Co 0.97066 0.34216 0.91667 0.0
O426 O 0.9518 0.34502 0.91779 0.0
C427 C 0.97748 0.32176 0.93525 0.0
C428 C 0.96655 0.29287 0.90822 0.0
C429 C 0.94363 0.33597 0.91937 0.0
O430 O 0.97045 0.31368 0.92895 0.0
O431 O 0.97961 0.33328 0.93135 0.0
O432 O 0.95561 0.31665 0.89389 0.0
O433 O 0.9698 0.32854 0.90399 0.0
Co434 Co 0.43627 0.71226 0.16104 0.0
O435 O 0.44733 0.72486 0.15335 0.0
O436 O 0.45416 0.70693 0.16273 0.0
C437 C 0.42215 0.71091 0.14455 0.0
O438 O 0.42732 0.69689 0.16949 0.0
Co439 Co 0.40797 0.72013 0.16728 0.0
O440 O 0.4061 0.70142 0.17065 0.0
C441 C 0.42894 0.72898 0.18425 0.0
C442 C 0.4569 0.71743 0.15641 0.0
C443 C 0.41556 0.69368 0.17199 0.0
O444 O 0.43697 0.72175 0.17811 0.0
O445 O 0.41722 0.73054 0.1807 0.0
O446 O 0.43295 0.7046 0.1442 0.0
O447 O 0.42098 0.71892 0.15403 0.0
Co448 Co 0.0878 0.5378 0.81504 0.0
O449 O 0.09424 0.52459 0.80384 0.0
O450 O 0.08617 0.54324 0.79721 0.0
C451 C 0.10454 0.53796 0.82892 0.0
O452 O 0.08075 0.55385 0.82405 0.0
Co453 Co 0.08143 0.53087 0.84353 0.0
O454 O 0.08104 0.54989 0.8454 0.0
C455 C 0.06357 0.52292 0.82289 0.0
C456 C 0.09151 0.53224 0.79434 0.0
C457 C 0.07975 0.55757 0.83588 0.0
O458 O 0.07009 0.5296 0.81468 0.0
O459 O 0.06712 0.52138 0.83462 0.0
O460 O 0.10523 0.54415 0.81806 0.0
O461 O 0.09449 0.5307 0.83026 0.0
Co462 Co 0.21164 0.83773 0.06361 0.0
O463 O 0.22396 0.84444 0.05162 0.0
O464 O 0.20532 0.83556 0.0461 0.0
C465 C 0.21157 0.85473 0.07716 0.0
O466 O 0.19643 0.83024 0.07366 0.0
Co467 Co 0.22058 0.83228 0.09173 0.0
O468 O 0.2018 0.8303 0.0947 0.0
C469 C 0.22787 0.81425 0.07103 0.0
C470 C 0.21596 0.84121 0.04258 0.0
C471 C 0.19359 0.82873 0.08568 0.0
O472 O 0.22048 0.82033 0.06311 0.0
O473 O 0.23004 0.81815 0.08254 0.0
O474 O 0.20471 0.85494 0.0667 0.0
O475 O 0.21935 0.84505 0.07824 0.0
Co476 Co 0.91323 0.95974 0.31351 0.0
O477 O 0.90587 0.97283 0.30278 0.0
O478 O 0.91472 0.95479 0.2955 0.0
C479 C 0.89681 0.95849 0.32774 0.0
O480 O 0.92132 0.94392 0.322 0.0
Co481 Co 0.9199 0.96674 0.34195 0.0
O482 O 0.92358 0.94805 0.34323 0.0
C483 C 0.93681 0.97579 0.32102 0.0
C484 C 0.9088 0.96558 0.29302 0.0
C485 C 0.92434 0.94049 0.33356 0.0
O486 O 0.93052 0.9688 0.3129 0.0
O487 O 0.93335 0.97717 0.33279 0.0
O488 O 0.89619 0.95245 0.3168 0.0
O489 O 0.90652 0.9662 0.32901 0.0
Co490 Co 0.78809 0.66305 0.56326 0.0
O491 O 0.7759 0.65609 0.55129 0.0
O492 O 0.79435 0.66535 0.54575 0.0
C493 C 0.78852 0.64605 0.57684 0.0
O494 O 0.80309 0.67091 0.57334 0.0
Co495 Co 0.77866 0.6684 0.59129 0.0
O496 O 0.79722 0.67173 0.59426 0.0
C497 C 0.77133 0.68628 0.5705 0.0
C498 C 0.78381 0.65949 0.54224 0.0
C499 C 0.80555 0.67318 0.58532 0.0
O500 O 0.77891 0.68028 0.56271 0.0
O501 O 0.76905 0.68236 0.58199 0.0
O502 O 0.79532 0.64596 0.56634 0.0
O503 O 0.78057 0.65558 0.57792 0.0
Co504 Co 0.08896 0.46249 0.18673 0.0
O505 O 0.09602 0.47457 0.19872 0.0
O506 O 0.08701 0.45599 0.20423 0.0
C507 C 0.10572 0.46239 0.17285 0.0
O508 O 0.08107 0.44762 0.17649 0.0
Co509 Co 0.08314 0.47257 0.159 0.0
O510 O 0.0799 0.454 0.15573 0.0
C511 C 0.066 0.47977 0.18034 0.0
C512 C 0.09282 0.46656 0.20775 0.0
C513 C 0.07868 0.44543 0.16447 0.0
O514 O 0.07167 0.4715 0.18767 0.0
O515 O 0.07 0.48263 0.16902 0.0
O516 O 0.10607 0.45543 0.18324 0.0
O517 O 0.09612 0.4703 0.17212 0.0
Co518 Co 0.287 0.83795 0.43562 0.0
O519 O 0.27429 0.84425 0.44744 0.0
O520 O 0.29287 0.83541 0.45321 0.0
C521 C 0.28727 0.85529 0.42248 0.0
O522 O 0.30257 0.83085 0.42583 0.0
Co523 Co 0.27894 0.83299 0.40714 0.0
O524 O 0.29785 0.83184 0.40466 0.0
C525 C 0.27127 0.81442 0.42723 0.0
C526 C 0.28211 0.84091 0.4566 0.0
C527 C 0.30582 0.83001 0.41385 0.0
O528 O 0.27834 0.82046 0.43547 0.0
O529 O 0.26942 0.81849 0.41572 0.0
O530 O 0.29375 0.85532 0.43318 0.0
O531 O 0.27968 0.84552 0.4209 0.0
Co532 Co 0.9123 0.03919 0.68584 0.0
O533 O 0.90606 0.02623 0.69742 0.0
O534 O 0.91425 0.045 0.70354 0.0
C535 C 0.89526 0.0391 0.67233 0.0
O536 O 0.91923 0.055 0.67632 0.0
Co537 Co 0.91815 0.03143 0.65747 0.0
O538 O 0.91878 0.05038 0.6551 0.0
C539 C 0.93644 0.02416 0.67796 0.0
C540 C 0.90896 0.03407 0.70671 0.0
C541 C 0.92022 0.05834 0.66437 0.0
O542 O 0.93 0.03099 0.68608 0.0
O543 O 0.93272 0.02228 0.66633 0.0
O544 O 0.89483 0.04551 0.68306 0.0
O545 O 0.90526 0.03177 0.67091 0.0
Co546 Co 0.70845 0.66208 0.93815 0.0
O547 O 0.72035 0.65509 0.95043 0.0
O548 O 0.70205 0.66499 0.95549 0.0
C549 C 0.70794 0.64476 0.92501 0.0
O550 O 0.69357 0.66984 0.92789 0.0
Co551 Co 0.71742 0.66663 0.90991 0.0
O552 O 0.69861 0.66831 0.90684 0.0
C553 C 0.7252 0.68503 0.93014 0.0
C554 C 0.71234 0.65888 0.95924 0.0
C555 C 0.69056 0.67058 0.91586 0.0
O556 O 0.71787 0.67918 0.9383 0.0
O557 O 0.72711 0.68091 0.91866 0.0
O558 O 0.70099 0.64504 0.93541 0.0
O559 O 0.71599 0.65419 0.92371 0.0
Co560 Co 0.31181 0.589 0.53976 0.0
O561 O 0.30034 0.59502 0.52659 0.0
O562 O 0.29407 0.58651 0.54517 0.0
C563 C 0.32482 0.60646 0.53993 0.0
O564 O 0.32113 0.58218 0.55573 0.0
Co565 Co 0.34065 0.58419 0.53303 0.0
O566 O 0.34242 0.58437 0.55208 0.0
C567 C 0.32099 0.56515 0.52508 0.0
C568 C 0.29098 0.59181 0.53422 0.0
C569 C 0.33294 0.58216 0.55959 0.0
O570 O 0.31232 0.57136 0.53145 0.0
O571 O 0.33259 0.56921 0.52379 0.0
O572 O 0.314 0.60655 0.54621 0.0
O573 O 0.32668 0.59648 0.53269 0.0
Co574 Co 0.81318 0.41246 0.96088 0.0
O575 O 0.80168 0.40511 0.97327 0.0
O576 O 0.79544 0.41467 0.95521 0.0
C577 C 0.82693 0.39565 0.95972 0.0
O578 O 0.82277 0.42071 0.94574 0.0
Co579 Co 0.8414 0.41793 0.96964 0.0
O580 O 0.84386 0.42122 0.95099 0.0
C581 C 0.82061 0.43532 0.97802 0.0
C582 C 0.79234 0.40856 0.96574 0.0
C583 C 0.83471 0.42285 0.94293 0.0
O584 O 0.8127 0.42948 0.97044 0.0
O585 O 0.83219 0.43146 0.97991 0.0
O586 O 0.81624 0.39556 0.95321 0.0
O587 O 0.82811 0.40503 0.96784 0.0
Co588 Co 0.33855 0.56419 0.21045 0.0
O589 O 0.34505 0.553 0.22361 0.0
O590 O 0.33679 0.54634 0.20506 0.0
C591 C 0.35544 0.57791 0.21025 0.0
O592 O 0.33138 0.57325 0.19448 0.0
Co593 Co 0.3325 0.59274 0.21745 0.0
O594 O 0.33179 0.59459 0.19844 0.0
C595 C 0.31444 0.57224 0.22541 0.0
C596 C 0.34223 0.54348 0.21601 0.0
C597 C 0.33032 0.58508 0.19079 0.0
O598 O 0.32091 0.56395 0.21879 0.0
O599 O 0.31808 0.58395 0.22689 0.0
O600 O 0.35597 0.5671 0.20397 0.0
O601 O 0.34543 0.57934 0.21753 0.0
Co602 Co 0.18623 0.08742 0.46363 0.0
O603 O 0.19751 0.09477 0.47625 0.0
O604 O 0.20405 0.08545 0.45816 0.0
C605 C 0.17236 0.10414 0.46246 0.0
O606 O 0.17698 0.07919 0.44829 0.0
Co607 Co 0.15797 0.08158 0.47198 0.0
O608 O 0.15592 0.07748 0.45345 0.0
C609 C 0.17881 0.06431 0.48045 0.0
C610 C 0.20697 0.09149 0.46877 0.0
C611 C 0.16521 0.07632 0.44548 0.0
O612 O 0.18675 0.07031 0.47301 0.0
O613 O 0.16719 0.06807 0.48229 0.0
O614 O 0.18311 0.10437 0.45607 0.0
O615 O 0.17113 0.09466 0.47046 0.0
Co616 Co 0.16253 0.43598 0.71154 0.0
O617 O 0.15642 0.44733 0.72476 0.0
O618 O 0.16434 0.45377 0.70598 0.0
C619 C 0.14558 0.42235 0.71167 0.0
O620 O 0.16927 0.42673 0.69548 0.0
Co621 Co 0.16855 0.40747 0.71876 0.0
O622 O 0.16901 0.40544 0.69976 0.0
C623 C 0.18682 0.42792 0.7262 0.0
C624 C 0.15919 0.45675 0.71703 0.0
C625 C 0.17028 0.41485 0.69194 0.0
O626 O 0.18034 0.43614 0.71951 0.0
O627 O 0.18311 0.41627 0.72795 0.0
O628 O 0.14497 0.43318 0.70542 0.0
O629 O 0.15568 0.42092 0.71883 0.0
Co630 Co 0.6858 0.41246 0.53977 0.0
O631 O 0.69725 0.40585 0.52688 0.0
O632 O 0.70353 0.41406 0.54558 0.0
C633 C 0.67188 0.39575 0.5398 0.0
O634 O 0.67642 0.41972 0.55552 0.0
Co635 Co 0.65752 0.41879 0.53198 0.0
O636 O 0.6552 0.41975 0.55092 0.0
C637 C 0.67839 0.43657 0.52448 0.0
C638 C 0.70659 0.40861 0.5347 0.0
C639 C 0.66451 0.42103 0.55886 0.0
O640 O 0.68641 0.4301 0.53141 0.0
O641 O 0.66671 0.43301 0.52263 0.0
O642 O 0.68258 0.3951 0.54625 0.0
O643 O 0.67075 0.4057 0.53238 0.0
Co644 Co 0.33866 0.93708 0.28862 0.0
O645 O 0.34508 0.94871 0.27582 0.0
O646 O 0.33615 0.95478 0.29426 0.0
C647 C 0.35598 0.92393 0.28908 0.0
O648 O 0.33142 0.92746 0.30422 0.0
Co649 Co 0.33374 0.90854 0.28072 0.0
O650 O 0.33232 0.90625 0.29964 0.0
C651 C 0.31523 0.92859 0.27283 0.0
C652 C 0.34175 0.958 0.28349 0.0
C653 C 0.33044 0.9155 0.30752 0.0
O654 O 0.32122 0.93688 0.27987 0.0
O655 O 0.31932 0.91707 0.27105 0.0
O656 O 0.35599 0.93466 0.29551 0.0
O657 O 0.34624 0.92231 0.28147 0.0
Co658 Co 0.66377 0.56324 0.78884 0.0
O659 O 0.65663 0.55163 0.77639 0.0
O660 O 0.66561 0.54557 0.79482 0.0
C661 C 0.6471 0.57719 0.78942 0.0
O662 O 0.67167 0.57287 0.80411 0.0
Co663 Co 0.66978 0.59133 0.78012 0.0
O664 O 0.67232 0.59394 0.79887 0.0
C665 C 0.68728 0.57032 0.77245 0.0
C666 C 0.65975 0.54237 0.78419 0.0
C667 C 0.67368 0.5848 0.807 0.0
O668 O 0.68105 0.56247 0.77979 0.0
O669 O 0.68364 0.58195 0.77045 0.0
O670 O 0.64673 0.56658 0.79604 0.0
O671 O 0.65667 0.57818 0.7815 0.0
Co672 Co 0.53685 0.31404 0.58784 0.0
O673 O 0.52482 0.30205 0.59506 0.0
O674 O 0.54316 0.29654 0.58557 0.0
C675 C 0.53755 0.32776 0.60469 0.0
O676 O 0.55173 0.32411 0.57975 0.0
Co677 Co 0.52737 0.34202 0.58245 0.0
O678 O 0.54595 0.34506 0.57924 0.0
C679 C 0.5199 0.32115 0.56471 0.0
C680 C 0.53273 0.29302 0.5916 0.0
C681 C 0.55425 0.33611 0.57765 0.0
O682 O 0.52747 0.31336 0.57073 0.0
O683 O 0.51769 0.33267 0.56857 0.0
O684 O 0.54436 0.31727 0.60476 0.0
O685 O 0.52938 0.32872 0.59533 0.0
Co686 Co 0.43684 0.28747 0.83872 0.0
O687 O 0.44891 0.27509 0.84518 0.0
O688 O 0.45431 0.29378 0.83632 0.0
C689 C 0.42355 0.28748 0.85593 0.0
O690 O 0.42671 0.30273 0.83143 0.0
Co691 Co 0.40867 0.27853 0.83354 0.0
O692 O 0.40568 0.29734 0.83192 0.0
C693 C 0.42915 0.27136 0.81522 0.0
C694 C 0.4579 0.28311 0.84187 0.0
C695 C 0.41465 0.30557 0.83022 0.0
O696 O 0.4371 0.27873 0.82128 0.0
O697 O 0.41768 0.26915 0.81921 0.0
O698 O 0.43407 0.29425 0.85603 0.0
O699 O 0.42227 0.27979 0.8462 0.0
Co700 Co 0.46169 0.1866 0.0874 0.0
O701 O 0.47417 0.19818 0.09449 0.0
O702 O 0.45594 0.2043 0.08517 0.0
C703 C 0.46078 0.17293 0.10431 0.0
O704 O 0.44645 0.17698 0.07946 0.0
Co705 Co 0.47048 0.15839 0.0819 0.0
O706 O 0.45187 0.15594 0.0784 0.0
C707 C 0.4784 0.17909 0.06422 0.0
C708 C 0.46655 0.20748 0.0911 0.0
C709 C 0.44374 0.16508 0.07706 0.0
O710 O 0.47093 0.187 0.07021 0.0
O711 O 0.48045 0.16755 0.0681 0.0
O712 O 0.4543 0.18363 0.10444 0.0
O713 O 0.46877 0.17169 0.09482 0.0
Co714 Co 0.56315 0.21136 0.33621 0.0
O715 O 0.55124 0.22362 0.34318 0.0
O716 O 0.54563 0.20488 0.33458 0.0
C717 C 0.57719 0.21155 0.35283 0.0
O718 O 0.57317 0.19622 0.3285 0.0
Co719 Co 0.59097 0.2208 0.3299 0.0
O720 O 0.59405 0.20214 0.32727 0.0
C721 C 0.56962 0.22767 0.31248 0.0
C722 C 0.54218 0.21554 0.34026 0.0
C723 C 0.58514 0.19372 0.32619 0.0
O724 O 0.56204 0.22009 0.31876 0.0
O725 O 0.58117 0.23012 0.3161 0.0
O726 O 0.56678 0.20463 0.35341 0.0
O727 O 0.5779 0.21923 0.34305 0.0
Co728 Co 0.53902 0.68677 0.41175 0.0
O729 O 0.52571 0.69797 0.4056 0.0
O730 O 0.54411 0.70463 0.41418 0.0
C731 C 0.53947 0.67371 0.39435 0.0
O732 O 0.5551 0.67774 0.4187 0.0
Co733 Co 0.53274 0.65784 0.41664 0.0
O734 O 0.55181 0.65639 0.41642 0.0
C735 C 0.52425 0.67747 0.43548 0.0
C736 C 0.53315 0.70749 0.40877 0.0
C737 C 0.55915 0.66599 0.41866 0.0
O738 O 0.5306 0.6862 0.42933 0.0
O739 O 0.52314 0.66585 0.43144 0.0
O740 O 0.54561 0.68461 0.39426 0.0
O741 O 0.53222 0.67176 0.4043 0.0
Co742 Co 0.06459 0.28726 0.66239 0.0
O743 O 0.05286 0.27473 0.65565 0.0
O744 O 0.04696 0.29319 0.66467 0.0
C745 C 0.07808 0.28776 0.64536 0.0
O746 O 0.07433 0.30264 0.66992 0.0
Co747 Co 0.0929 0.2789 0.66774 0.0
O748 O 0.09548 0.29779 0.66917 0.0
C749 C 0.07244 0.27121 0.68588 0.0
C750 C 0.04366 0.28252 0.65892 0.0
C751 C 0.08631 0.30579 0.67097 0.0
O752 O 0.06434 0.27835 0.67975 0.0
O753 O 0.08402 0.26932 0.68201 0.0
O754 O 0.06744 0.29433 0.64521 0.0
O755 O 0.07937 0.27994 0.65498 0.0
Co756 Co 0.46056 0.81273 0.91367 0.0
O757 O 0.4737 0.80151 0.90718 0.0
O758 O 0.45519 0.79489 0.91556 0.0
C759 C 0.46017 0.82634 0.8967 0.0
O760 O 0.44461 0.82182 0.92088 0.0
Co761 Co 0.46737 0.84135 0.91946 0.0
O762 O 0.44833 0.84316 0.91905 0.0
C763 C 0.47525 0.82107 0.93786 0.0
C764 C 0.46612 0.79201 0.91009 0.0
C765 C 0.44079 0.83365 0.92103 0.0
O766 O 0.46896 0.81262 0.93128 0.0
O767 O 0.4765 0.83283 0.93426 0.0
O768 O 0.45394 0.8155 0.8963 0.0
O769 O 0.46756 0.82787 0.90662 0.0
Co770 Co 0.93719 0.21241 0.16269 0.0
O771 O 0.94882 0.22528 0.1564 0.0
O772 O 0.95485 0.20644 0.1645 0.0
C773 C 0.9235 0.21272 0.14579 0.0
O774 O 0.92759 0.19667 0.16961 0.0
Co775 Co 0.90888 0.22032 0.16875 0.0
O776 O 0.90639 0.20137 0.16908 0.0
C777 C 0.92955 0.22743 0.18691 0.0
C778 C 0.95808 0.21737 0.15922 0.0
C779 C 0.91562 0.19337 0.17048 0.0
O780 O 0.93761 0.22055 0.18043 0.0
O781 O 0.91792 0.22938 0.18325 0.0
O782 O 0.93417 0.20619 0.1452 0.0
O783 O 0.92229 0.22 0.15584 0.0
Co784 Co 0.58797 0.03784 0.8148 0.0
O785 O 0.59441 0.02468 0.80358 0.0
O786 O 0.58591 0.04313 0.79694 0.0
C787 C 0.60503 0.03835 0.82829 0.0
O788 O 0.58081 0.05378 0.82394 0.0
Co789 Co 0.58239 0.03069 0.84342 0.0
O790 O 0.58146 0.04968 0.84527 0.0
C791 C 0.56404 0.02273 0.82322 0.0
C792 C 0.59141 0.03221 0.79407 0.0
C793 C 0.57984 0.05739 0.83582 0.0
O794 O 0.57037 0.02937 0.81484 0.0
O795 O 0.56786 0.02122 0.83487 0.0
O796 O 0.60536 0.0445 0.8174 0.0
O797 O 0.59515 0.03091 0.82989 0.0
Co798 Co 0.71328 0.33882 0.06383 0.0
O799 O 0.72564 0.34558 0.05193 0.0
O800 O 0.70715 0.3365 0.04626 0.0
C801 C 0.71293 0.35592 0.07728 0.0
O802 O 0.69808 0.33124 0.07386 0.0
Co803 Co 0.72244 0.33348 0.09192 0.0
O804 O 0.70376 0.33084 0.09484 0.0
C805 C 0.72969 0.31541 0.07129 0.0
C806 C 0.71778 0.34224 0.04281 0.0
C807 C 0.69546 0.32936 0.08589 0.0
O808 O 0.72223 0.32149 0.06344 0.0
O809 O 0.73195 0.31933 0.08278 0.0
O810 O 0.70624 0.35601 0.06671 0.0
O811 O 0.72077 0.3463 0.07851 0.0
Co812 Co 0.41284 0.46016 0.31278 0.0
O813 O 0.40674 0.4736 0.30169 0.0
O814 O 0.415 0.45511 0.29488 0.0
C815 C 0.3956 0.45987 0.32605 0.0
O816 O 0.41964 0.44395 0.32168 0.0
Co817 Co 0.4181 0.46625 0.34169 0.0
O818 O 0.41742 0.44717 0.34305 0.0
C819 C 0.43688 0.47455 0.32191 0.0
C820 C 0.40971 0.46615 0.2921 0.0
C821 C 0.41949 0.43984 0.3334 0.0
O822 O 0.43054 0.46835 0.3132 0.0
O823 O 0.43297 0.47563 0.33358 0.0
O824 O 0.39529 0.45377 0.31513 0.0
O825 O 0.40564 0.46701 0.32788 0.0
Co826 Co 0.28955 0.16264 0.56548 0.0
O827 O 0.27612 0.15647 0.5544 0.0
O828 O 0.2945 0.16498 0.54758 0.0
C829 C 0.29015 0.14532 0.57866 0.0
O830 O 0.30574 0.16957 0.57433 0.0
Co831 Co 0.28351 0.16775 0.59442 0.0
O832 O 0.30259 0.16747 0.59572 0.0
C833 C 0.27495 0.18652 0.57477 0.0
C834 C 0.2835 0.15961 0.54481 0.0
C835 C 0.30988 0.16959 0.58605 0.0
O836 O 0.28118 0.18026 0.56604 0.0
O837 O 0.27394 0.18258 0.58644 0.0
O838 O 0.29613 0.14514 0.56767 0.0
O839 O 0.2829 0.15527 0.58061 0.0
Co840 Co 0.58909 0.96314 0.18704 0.0
O841 O 0.59659 0.97527 0.19876 0.0
O842 O 0.5871 0.95703 0.20462 0.0
C843 C 0.60564 0.96229 0.17298 0.0
O844 O 0.58074 0.94817 0.17739 0.0
Co845 Co 0.58312 0.97212 0.15903 0.0
O846 O 0.57927 0.95359 0.15639 0.0
C847 C 0.56597 0.98017 0.18018 0.0
C848 C 0.59321 0.96748 0.20793 0.0
C849 C 0.57805 0.94548 0.16556 0.0
O850 O 0.57205 0.97263 0.18796 0.0
O851 O 0.56962 0.98215 0.16855 0.0
O852 O 0.60591 0.95552 0.1835 0.0
O853 O 0.59626 0.97045 0.17212 0.0
Co854 Co 0.78817 0.33634 0.43802 0.0
O855 O 0.77477 0.34247 0.44915 0.0
O856 O 0.79344 0.33458 0.4559 0.0
C857 C 0.78815 0.3533 0.42438 0.0
O858 O 0.80438 0.32957 0.42908 0.0
Co859 Co 0.78178 0.33028 0.40934 0.0
O860 O 0.80082 0.33117 0.40771 0.0
C861 C 0.77409 0.31181 0.42962 0.0
C862 C 0.78235 0.33975 0.45871 0.0
C863 C 0.80831 0.32945 0.41729 0.0
O864 O 0.78024 0.31851 0.43808 0.0
O865 O 0.7728 0.31538 0.41786 0.0
O866 O 0.79428 0.35392 0.43527 0.0
O867 O 0.78111 0.34313 0.42281 0.0
Co868 Co 0.41204 0.53798 0.68693 0.0
O869 O 0.40563 0.52523 0.69865 0.0
O870 O 0.41442 0.5438 0.70457 0.0
C871 C 0.39484 0.53828 0.67364 0.0
O872 O 0.41922 0.55358 0.67729 0.0
Co873 Co 0.41718 0.53016 0.65845 0.0
O874 O 0.4181 0.54911 0.65607 0.0
C875 C 0.43565 0.52237 0.67861 0.0
C876 C 0.40891 0.53301 0.70787 0.0
C877 C 0.41995 0.55698 0.66535 0.0
O878 O 0.42952 0.52931 0.6869 0.0
O879 O 0.43168 0.52064 0.66704 0.0
O880 O 0.39472 0.54481 0.68432 0.0
O881 O 0.40459 0.53066 0.67216 0.0
Co882 Co 0.21191 0.16341 0.93524 0.0
O883 O 0.22503 0.1569 0.94647 0.0
O884 O 0.20637 0.16495 0.95307 0.0
C885 C 0.21185 0.14659 0.92145 0.0
O886 O 0.19596 0.1705 0.92609 0.0
Co887 Co 0.21923 0.16966 0.90682 0.0
O888 O 0.20025 0.17047 0.9048 0.0
C889 C 0.22695 0.18758 0.9275 0.0
C890 C 0.21731 0.1595 0.95594 0.0
C891 C 0.19244 0.17174 0.91422 0.0
O892 O 0.22016 0.18111 0.93565 0.0
O893 O 0.22865 0.18397 0.91581 0.0
O894 O 0.20554 0.14599 0.93223 0.0
O895 O 0.21913 0.15662 0.92009 0.0
Co896 Co 0.81339 0.09069 0.53896 0.0
O897 O 0.80174 0.0973 0.52626 0.0
O898 O 0.79572 0.08847 0.54476 0.0
C899 C 0.82672 0.10788 0.53925 0.0
O900 O 0.82297 0.08334 0.55453 0.0
Co901 Co 0.84191 0.08548 0.5312 0.0
O902 O 0.84421 0.08433 0.55014 0.0
C903 C 0.82166 0.06708 0.52334 0.0
C904 C 0.79249 0.0942 0.53407 0.0
C905 C 0.8349 0.08244 0.55794 0.0
O906 O 0.81334 0.07322 0.53022 0.0
O907 O 0.83325 0.07103 0.52169 0.0
O908 O 0.81606 0.108 0.54579 0.0
O909 O 0.82822 0.09808 0.53169 0.0
Co910 Co 0.31213 0.91271 0.9635 0.0
O911 O 0.30035 0.90607 0.97607 0.0
O912 O 0.29454 0.91469 0.9574 0.0
C913 C 0.32583 0.89582 0.96341 0.0
O914 O 0.32191 0.92005 0.94805 0.0
Co915 Co 0.34032 0.91856 0.97189 0.0
O916 O 0.34304 0.91941 0.95298 0.0
C917 C 0.31962 0.93666 0.97908 0.0
C918 C 0.29119 0.90913 0.96815 0.0
C919 C 0.33391 0.92102 0.94491 0.0
O920 O 0.31161 0.93023 0.97209 0.0
O921 O 0.33125 0.93301 0.98103 0.0
O922 O 0.31523 0.89544 0.95678 0.0
O923 O 0.32696 0.9056 0.97107 0.0
Co924 Co 0.83799 0.06381 0.21114 0.0
O925 O 0.8453 0.0527 0.22393 0.0
O926 O 0.83613 0.04593 0.20585 0.0
C927 C 0.85463 0.07777 0.20998 0.0
O928 O 0.82984 0.07281 0.19563 0.0
Co929 Co 0.8319 0.09217 0.21897 0.0
O930 O 0.82802 0.09397 0.20036 0.0
C931 C 0.81462 0.07134 0.22753 0.0
C932 C 0.84212 0.04314 0.21653 0.0
C933 C 0.82697 0.08452 0.19256 0.0
O934 O 0.8208 0.06329 0.22038 0.0
O935 O 0.81824 0.08303 0.22916 0.0
O936 O 0.85497 0.06694 0.20372 0.0
O937 O 0.84506 0.07905 0.21786 0.0
Co938 Co 0.68741 0.58858 0.46389 0.0
O939 O 0.69934 0.59517 0.47635 0.0
O940 O 0.70494 0.58615 0.45779 0.0
C941 C 0.67404 0.60572 0.46355 0.0
O942 O 0.67749 0.5812 0.44854 0.0
Co943 Co 0.65908 0.58345 0.47231 0.0
O944 O 0.65636 0.58232 0.45342 0.0
C945 C 0.67942 0.56507 0.47986 0.0
C946 C 0.70842 0.5918 0.46845 0.0
C947 C 0.66548 0.58041 0.44539 0.0
O948 O 0.68758 0.57119 0.47276 0.0
O949 O 0.66787 0.56901 0.48172 0.0
O950 O 0.68465 0.60581 0.45691 0.0
O951 O 0.67273 0.59608 0.47135 0.0
Co952 Co 0.66274 0.93517 0.71261 0.0
O953 O 0.65661 0.94657 0.72576 0.0
O954 O 0.66506 0.95296 0.70721 0.0
C955 C 0.64541 0.92202 0.71235 0.0
O956 O 0.66959 0.92583 0.69666 0.0
Co957 Co 0.6679 0.90652 0.71989 0.0
O958 O 0.66876 0.90454 0.7009 0.0
C959 C 0.68654 0.92647 0.72774 0.0
C960 C 0.65969 0.95599 0.71815 0.0
C961 C 0.67042 0.91392 0.69312 0.0
O962 O 0.68039 0.93486 0.72094 0.0
O963 O 0.68251 0.91491 0.7294 0.0
O964 O 0.64525 0.93287 0.70612 0.0
O965 O 0.65533 0.92025 0.71969 0.0
Co966 Co 0.18779 0.9115 0.539 0.0
O967 O 0.19943 0.90546 0.52601 0.0
O968 O 0.20545 0.91368 0.5448 0.0
C969 C 0.17454 0.89424 0.53874 0.0
O970 O 0.17823 0.9183 0.55483 0.0
Co971 Co 0.15919 0.91681 0.53164 0.0
O972 O 0.15699 0.91653 0.55064 0.0
C973 C 0.1793 0.9356 0.5243 0.0
C974 C 0.20868 0.90846 0.53385 0.0
C975 C 0.16632 0.9185 0.55839 0.0
O976 O 0.1877 0.92922 0.53086 0.0
O977 O 0.16769 0.93172 0.52265 0.0
O978 O 0.18522 0.89393 0.54524 0.0
O979 O 0.17297 0.9043 0.53155 0.0
Co980 Co 0.83739 0.43569 0.2904 0.0
O981 O 0.84505 0.44673 0.27775 0.0
O982 O 0.83556 0.45361 0.29562 0.0
C983 C 0.85393 0.42163 0.29191 0.0
O984 O 0.82888 0.42675 0.30576 0.0
Co985 Co 0.83135 0.40734 0.28253 0.0
O986 O 0.82714 0.40558 0.30107 0.0
C987 C 0.81442 0.42823 0.27345 0.0
C988 C 0.84179 0.45633 0.28506 0.0
C989 C 0.82595 0.41506 0.30883 0.0
O990 O 0.8204 0.43627 0.2808 0.0
O991 O 0.81809 0.41654 0.2719 0.0
O992 O 0.8542 0.43244 0.29821 0.0
O993 O 0.84452 0.42042 0.28383 0.0
Co994 Co 0.16274 0.06466 0.78736 0.0
O995 O 0.15588 0.05297 0.77485 0.0
O996 O 0.16494 0.04702 0.79327 0.0
C997 C 0.14578 0.07824 0.78786 0.0
O998 O 0.17038 0.07432 0.80272 0.0
Co999 Co 0.16824 0.09296 0.77912 0.0
O1000 O 0.16956 0.0955 0.79803 0.0
C1001 C 0.18626 0.07242 0.77132 0.0
C1002 C 0.15916 0.04374 0.78262 0.0
C1003 C 0.17139 0.08628 0.80596 0.0
O1004 O 0.18005 0.0643 0.77839 0.0
O1005 O 0.1825 0.08404 0.76955 0.0
O1006 O 0.1456 0.06763 0.79449 0.0
O1007 O 0.15541 0.07949 0.78004 0.0
Co1008 Co 0.54031 0.81406 0.08766 0.0
O1009 O 0.52843 0.80342 0.09686 0.0
O1010 O 0.54556 0.79605 0.08645 0.0
C1011 C 0.54259 0.82891 0.1034 0.0
O1012 O 0.55499 0.82274 0.07779 0.0
Co1013 Co 0.53159 0.84198 0.08078 0.0
O1014 O 0.55005 0.84386 0.07625 0.0
C1015 C 0.52202 0.8202 0.06529 0.0
C1016 C 0.53569 0.79371 0.09387 0.0
C1017 C 0.55785 0.83447 0.07475 0.0
O1018 O 0.52968 0.81249 0.07134 0.0
O1019 O 0.52055 0.83205 0.06843 0.0
O1020 O 0.54911 0.81823 0.10377 0.0
O1021 O 0.53398 0.82957 0.09442 0.0
Co1022 Co 0.4354 0.78816 0.33685 0.0
O1023 O 0.44657 0.77492 0.34325 0.0
O1024 O 0.45324 0.79353 0.33512 0.0
C1025 C 0.42165 0.78838 0.35371 0.0
O1026 O 0.42642 0.80424 0.32987 0.0
Co1027 Co 0.40686 0.78132 0.33065 0.0
O1028 O 0.40507 0.80035 0.33026 0.0
C1029 C 0.42734 0.77346 0.31256 0.0
C1030 C 0.45609 0.78254 0.3405 0.0
C1031 C 0.4146 0.80799 0.32892 0.0
O1032 O 0.43562 0.77999 0.31912 0.0
O1033 O 0.41561 0.77197 0.31614 0.0
O1034 O 0.43254 0.79451 0.35431 0.0
O1035 O 0.42018 0.78113 0.34367 0.0
Co1036 Co 0.46087 0.68531 0.58718 0.0
O1037 O 0.47425 0.69635 0.59348 0.0
O1038 O 0.45587 0.70322 0.58504 0.0
C1039 C 0.46029 0.67193 0.60433 0.0
O1040 O 0.44468 0.67652 0.5802 0.0
Co1041 Co 0.46711 0.65648 0.5817 0.0
O1042 O 0.44805 0.65509 0.5811 0.0
C1043 C 0.47572 0.67641 0.56332 0.0
C1044 C 0.46685 0.70596 0.59047 0.0
C1045 C 0.44066 0.66477 0.57945 0.0
O1046 O 0.46925 0.68499 0.56955 0.0
O1047 O 0.47689 0.66474 0.5672 0.0
O1048 O 0.45429 0.68291 0.60464 0.0
O1049 O 0.46756 0.67012 0.59437 0.0
Co1050 Co 0.56276 0.71196 0.83707 0.0
O1051 O 0.55134 0.72518 0.84307 0.0
O1052 O 0.54499 0.70662 0.8346 0.0
C1053 C 0.57575 0.71171 0.85453 0.0
O1054 O 0.57204 0.69592 0.83033 0.0
Co1055 Co 0.59164 0.71857 0.83229 0.0
O1056 O 0.59331 0.69952 0.83287 0.0
C1057 C 0.57204 0.72661 0.81323 0.0
C1058 C 0.54194 0.71758 0.83991 0.0
C1059 C 0.58384 0.69202 0.83061 0.0
O1060 O 0.56333 0.72026 0.81943 0.0
O1061 O 0.58364 0.72784 0.81729 0.0
O1062 O 0.56488 0.70551 0.85461 0.0
O1063 O 0.57765 0.71896 0.84457 0.0
Co1064 Co 0.53788 0.18677 0.9119 0.0
O1065 O 0.5251 0.19848 0.90552 0.0
O1066 O 0.54373 0.2044 0.91416 0.0
C1067 C 0.53805 0.17337 0.89475 0.0
O1068 O 0.55351 0.17712 0.91904 0.0
Co1069 Co 0.5299 0.15836 0.91733 0.0
O1070 O 0.54881 0.15592 0.91859 0.0
C1071 C 0.52233 0.1787 0.93566 0.0
C1072 C 0.53292 0.2077 0.90871 0.0
C1073 C 0.55677 0.16516 0.92018 0.0
O1074 O 0.52935 0.18686 0.92945 0.0
O1075 O 0.52046 0.16713 0.93177 0.0
O1076 O 0.54451 0.18409 0.89451 0.0
O1077 O 0.53054 0.17193 0.9046 0.0
Co1078 Co 0.06231 0.78992 0.16122 0.0
O1079 O 0.05121 0.77653 0.15502 0.0
O1080 O 0.04443 0.79505 0.16326 0.0
C1081 C 0.07579 0.79028 0.14414 0.0
O1082 O 0.07118 0.80609 0.16812 0.0
Co1083 Co 0.09112 0.78373 0.16683 0.0
O1084 O 0.09255 0.8028 0.16602 0.0
C1085 C 0.07113 0.7756 0.18544 0.0
C1086 C 0.04165 0.78401 0.15799 0.0
C1087 C 0.08292 0.81017 0.16801 0.0
O1088 O 0.06251 0.78172 0.17892 0.0
O1089 O 0.08287 0.77453 0.18173 0.0
O1090 O 0.06485 0.79635 0.14372 0.0
O1091 O 0.07748 0.78306 0.15416 0.0
Co1092 Co 0.46248 0.3113 0.41131 0.0
O1093 O 0.47515 0.29943 0.40503 0.0
O1094 O 0.45656 0.29371 0.41388 0.0
C1095 C 0.46227 0.3244 0.39395 0.0
O1096 O 0.44697 0.32117 0.41843 0.0
Co1097 Co 0.47038 0.33986 0.41604 0.0
O1098 O 0.45141 0.34231 0.41607 0.0
C1099 C 0.47772 0.31995 0.43505 0.0
C1100 C 0.46732 0.29029 0.4084 0.0
C1101 C 0.44357 0.33313 0.41842 0.0
O1102 O 0.4711 0.31149 0.42881 0.0
O1103 O 0.47935 0.33152 0.43103 0.0
O1104 O 0.4557 0.31375 0.39394 0.0
O1105 O 0.46988 0.32593 0.4037 0.0
Co1106 Co 0.93619 0.71299 0.66317 0.0
O1107 O 0.94748 0.72568 0.65598 0.0
O1108 O 0.95398 0.70729 0.66474 0.0
C1109 C 0.92204 0.71239 0.64666 0.0
O1110 O 0.9269 0.6975 0.67107 0.0
Co1111 Co 0.90806 0.72124 0.66966 0.0
O1112 O 0.90575 0.70239 0.67181 0.0
C1113 C 0.92921 0.72922 0.68681 0.0
C1114 C 0.95692 0.71803 0.65892 0.0
C1115 C 0.91501 0.69439 0.67305 0.0
O1116 O 0.93704 0.72192 0.6805 0.0
O1117 O 0.91752 0.73112 0.68332 0.0
O1118 O 0.93274 0.70593 0.64607 0.0
O1119 O 0.92105 0.72014 0.65637 0.0
Co1120 Co 0.58828 0.53804 0.31598 0.0
O1121 O 0.59527 0.52499 0.30494 0.0
O1122 O 0.58639 0.54318 0.29808 0.0
C1123 C 0.60506 0.53905 0.32979 0.0
O1124 O 0.58059 0.55389 0.32479 0.0
Co1125 Co 0.58228 0.53115 0.34455 0.0
O1126 O 0.58082 0.55014 0.34618 0.0
C1127 C 0.56466 0.52233 0.32407 0.0
C1128 C 0.59221 0.5324 0.29534 0.0
C1129 C 0.57926 0.55766 0.33657 0.0
O1130 O 0.57092 0.52912 0.31576 0.0
O1131 O 0.56829 0.52106 0.3358 0.0
O1132 O 0.60545 0.54515 0.31887 0.0
O1133 O 0.59533 0.53141 0.33127 0.0
Co1134 Co 0.71153 0.83865 0.56242 0.0
O1135 O 0.72413 0.84555 0.55084 0.0
O1136 O 0.70571 0.83662 0.54473 0.0
C1137 C 0.71093 0.85553 0.57614 0.0
O1138 O 0.69614 0.83093 0.57203 0.0
Co1139 Co 0.72008 0.83296 0.59066 0.0
O1140 O 0.70135 0.83019 0.59312 0.0
C1141 C 0.72774 0.81513 0.56995 0.0
C1142 C 0.7164 0.84239 0.54156 0.0
C1143 C 0.69326 0.82883 0.58395 0.0
O1144 O 0.72048 0.82129 0.56197 0.0
O1145 O 0.72974 0.81893 0.58152 0.0
O1146 O 0.70445 0.85581 0.56545 0.0
O1147 O 0.71874 0.84589 0.57735 0.0
Co1148 Co 0.41191 0.96186 0.81585 0.0
O1149 O 0.40511 0.97438 0.80411 0.0
O1150 O 0.4142 0.95596 0.79821 0.0
C1151 C 0.39487 0.96129 0.82936 0.0
O1152 O 0.41957 0.94654 0.82564 0.0
Co1153 Co 0.41726 0.97054 0.8441 0.0
O1154 O 0.41981 0.95179 0.84672 0.0
C1155 C 0.43525 0.97824 0.82354 0.0
C1156 C 0.40846 0.96663 0.79491 0.0
C1157 C 0.42137 0.94367 0.83761 0.0
O1158 O 0.42922 0.97088 0.81555 0.0
O1159 O 0.43132 0.98027 0.83507 0.0
O1160 O 0.39475 0.95473 0.8187 0.0
O1161 O 0.40447 0.96914 0.83065 0.0
Co1162 Co 0.28734 0.66159 0.0629 0.0
O1163 O 0.27469 0.6553 0.05104 0.0
O1164 O 0.29325 0.66422 0.04532 0.0
C1165 C 0.28759 0.6442 0.07597 0.0
O1166 O 0.30285 0.6687 0.07274 0.0
Co1167 Co 0.27919 0.66642 0.09137 0.0
O1168 O 0.29808 0.66765 0.0939 0.0
C1169 C 0.27174 0.68519 0.07137 0.0
C1170 C 0.28251 0.65868 0.04189 0.0
C1171 C 0.30606 0.66954 0.08473 0.0
O1172 O 0.27867 0.67907 0.06307 0.0
O1173 O 0.26992 0.68114 0.08289 0.0
O1174 O 0.29412 0.64422 0.06529 0.0
O1175 O 0.27999 0.65395 0.07757 0.0
Co1176 Co 0.58802 0.46206 0.68798 0.0
O1177 O 0.59429 0.47508 0.69948 0.0
O1178 O 0.58549 0.45663 0.70572 0.0
C1179 C 0.60541 0.46156 0.6749 0.0
O1180 O 0.58094 0.44623 0.67861 0.0
Co1181 Co 0.58319 0.46907 0.65921 0.0
O1182 O 0.58326 0.45003 0.65734 0.0
C1183 C 0.56437 0.4772 0.67898 0.0
C1184 C 0.59097 0.46749 0.70884 0.0
C1185 C 0.58097 0.44247 0.66676 0.0
O1186 O 0.57052 0.47065 0.68756 0.0
O1187 O 0.56839 0.47854 0.66737 0.0
O1188 O 0.60543 0.45529 0.68573 0.0
O1189 O 0.59559 0.46903 0.6731 0.0
Co1190 Co 0.78673 0.83697 0.93654 0.0
O1191 O 0.77387 0.84347 0.9481 0.0
O1192 O 0.79229 0.83453 0.95424 0.0
C1193 C 0.78734 0.8542 0.92328 0.0
O1194 O 0.80242 0.82967 0.92713 0.0
Co1195 Co 0.77954 0.83192 0.90788 0.0
O1196 O 0.79857 0.83203 0.90588 0.0
C1197 C 0.77137 0.81333 0.92785 0.0
C1198 C 0.78153 0.84016 0.95741 0.0
C1199 C 0.80616 0.82974 0.91527 0.0
O1200 O 0.77795 0.81955 0.93635 0.0
O1201 O 0.77006 0.81721 0.91619 0.0
O1202 O 0.79368 0.85426 0.93407 0.0
O1203 O 0.77971 0.84447 0.92165 0.0
Co1204 Co 0.41313 0.03863 0.18754 0.0
O1205 O 0.4069 0.02579 0.19924 0.0
O1206 O 0.41483 0.04472 0.20518 0.0
C1207 C 0.39623 0.03809 0.17387 0.0
O1208 O 0.41994 0.05438 0.17784 0.0
Co1209 Co 0.4192 0.03064 0.15926 0.0
O1210 O 0.41932 0.04958 0.15666 0.0
C1211 C 0.43747 0.02381 0.17997 0.0
C1212 C 0.4096 0.03378 0.20846 0.0
C1213 C 0.42072 0.05764 0.16585 0.0
O1214 O 0.43092 0.03063 0.18803 0.0
O1215 O 0.43382 0.02182 0.16834 0.0
O1216 O 0.3956 0.04472 0.18446 0.0
O1217 O 0.40633 0.03088 0.1727 0.0
Co1218 Co 0.21102 0.662 0.43678 0.0
O1219 O 0.22391 0.65594 0.44854 0.0
O1220 O 0.20518 0.66442 0.45439 0.0
C1221 C 0.21117 0.64461 0.42369 0.0
O1222 O 0.19528 0.66885 0.42713 0.0
Co1223 Co 0.21841 0.66696 0.40812 0.0
O1224 O 0.1994 0.66674 0.40591 0.0
C1225 C 0.22603 0.68582 0.42807 0.0
C1226 C 0.21605 0.65911 0.45773 0.0
C1227 C 0.19169 0.66889 0.41523 0.0
O1228 O 0.21935 0.67964 0.43653 0.0
O1229 O 0.22763 0.68178 0.4165 0.0
O1230 O 0.20462 0.64447 0.43436 0.0
O1231 O 0.21844 0.65459 0.42204 0.0
Co1232 Co 0.81305 0.58688 0.04021 0.0
O1233 O 0.8016 0.59292 0.02708 0.0
O1234 O 0.79532 0.58512 0.04598 0.0
C1235 C 0.82657 0.60391 0.03982 0.0
O1236 O 0.82249 0.5802 0.05618 0.0
Co1237 Co 0.84153 0.581 0.03277 0.0
O1238 O 0.84374 0.58075 0.05175 0.0
C1239 C 0.82105 0.56266 0.02547 0.0
C1240 C 0.79226 0.59024 0.03493 0.0
C1241 C 0.83441 0.57936 0.05964 0.0
O1242 O 0.81285 0.56906 0.03226 0.0
O1243 O 0.83267 0.56643 0.02364 0.0
O1244 O 0.81585 0.60447 0.04625 0.0
O1245 O 0.82799 0.59376 0.03273 0.0
Co1246 Co 0.31586 0.41353 0.46225 0.0
O1247 O 0.30443 0.40634 0.47481 0.0
O1248 O 0.29812 0.41542 0.45652 0.0
C1249 C 0.32975 0.39683 0.46147 0.0
O1250 O 0.32526 0.42146 0.44686 0.0
Co1251 Co 0.34409 0.41948 0.47044 0.0
O1252 O 0.34645 0.42154 0.45159 0.0
C1253 C 0.32324 0.43694 0.47863 0.0
C1254 C 0.29506 0.40948 0.46716 0.0
C1255 C 0.33717 0.42308 0.44366 0.0
O1256 O 0.31525 0.43077 0.4714 0.0
O1257 O 0.33491 0.4333 0.48038 0.0
O1258 O 0.31909 0.39652 0.45494 0.0
O1259 O 0.33088 0.40639 0.46938 0.0
Co1260 Co 0.83832 0.56322 0.71032 0.0
O1261 O 0.84584 0.55199 0.72289 0.0
O1262 O 0.83657 0.5454 0.7048 0.0
C1263 C 0.85483 0.57736 0.70922 0.0
O1264 O 0.82992 0.57232 0.69499 0.0
Co1265 Co 0.83204 0.59143 0.71847 0.0
O1266 O 0.82781 0.59339 0.69995 0.0
C1267 C 0.81508 0.57034 0.72705 0.0
C1268 C 0.84264 0.54251 0.71541 0.0
C1269 C 0.82681 0.584 0.69207 0.0
O1270 O 0.82123 0.56242 0.71971 0.0
O1271 O 0.81864 0.58204 0.72877 0.0
O1272 O 0.85521 0.56664 0.70277 0.0
O1273 O 0.84531 0.57843 0.71718 0.0
Co1274 Co 0.68661 0.08956 0.96244 0.0
O1275 O 0.69834 0.09592 0.97522 0.0
O1276 O 0.70425 0.08717 0.95663 0.0
C1277 C 0.67332 0.10679 0.96214 0.0
O1278 O 0.67693 0.08241 0.94683 0.0
Co1279 Co 0.65812 0.08444 0.97039 0.0
O1280 O 0.65573 0.08329 0.95146 0.0
C1281 C 0.67827 0.06589 0.978 0.0
C1282 C 0.70755 0.09266 0.96743 0.0
C1283 C 0.66497 0.0815 0.94354 0.0
O1284 O 0.68655 0.07203 0.97106 0.0
O1285 O 0.66673 0.0699 0.97979 0.0
O1286 O 0.68405 0.10694 0.95571 0.0
O1287 O 0.67183 0.09701 0.96972 0.0
Co1288 Co 0.66258 0.4368 0.21165 0.0
O1289 O 0.65636 0.44811 0.22483 0.0
O1290 O 0.66491 0.45462 0.20635 0.0
C1291 C 0.64529 0.42361 0.21124 0.0
O1292 O 0.66956 0.42758 0.19569 0.0
Co1293 Co 0.66771 0.40807 0.21862 0.0
O1294 O 0.66834 0.40625 0.1996 0.0
C1295 C 0.68643 0.42795 0.2266 0.0
C1296 C 0.65952 0.45757 0.2173 0.0
C1297 C 0.67019 0.41572 0.19198 0.0
O1298 O 0.68017 0.43648 0.22008 0.0
O1299 O 0.68249 0.41633 0.228 0.0
O1300 O 0.64514 0.43447 0.20503 0.0
O1301 O 0.65518 0.42184 0.21862 0.0
Co1302 Co 0.18751 0.41194 0.03867 0.0
O1303 O 0.19811 0.40323 0.02641 0.0
O1304 O 0.20551 0.41273 0.04402 0.0
C1305 C 0.17243 0.39634 0.04031 0.0
O1306 O 0.1788 0.42134 0.05362 0.0
Co1307 Co 0.15978 0.41943 0.02966 0.0
O1308 O 0.15795 0.42424 0.04807 0.0
C1309 C 0.18189 0.43469 0.02077 0.0
C1310 C 0.20786 0.40589 0.03374 0.0
C1311 C 0.16719 0.42504 0.05616 0.0
O1312 O 0.18927 0.42869 0.02876 0.0
O1313 O 0.17017 0.43145 0.01865 0.0
O1314 O 0.18309 0.39552 0.0468 0.0
O1315 O 0.17198 0.40561 0.03201 0.0
Co1316 Co 0.83867 0.93672 0.78898 0.0
O1317 O 0.84488 0.94781 0.77557 0.0
O1318 O 0.83621 0.95462 0.79388 0.0
C1319 C 0.85602 0.92361 0.78973 0.0
O1320 O 0.83167 0.92786 0.80513 0.0
Co1321 Co 0.83373 0.90774 0.78296 0.0
O1322 O 0.83411 0.90649 0.80206 0.0
C1323 C 0.81496 0.92729 0.7742 0.0
C1324 C 0.84164 0.9574 0.78291 0.0
C1325 C 0.83184 0.91616 0.80931 0.0
O1326 O 0.82112 0.93607 0.78048 0.0
O1327 O 0.81897 0.91564 0.77324 0.0
O1328 O 0.85612 0.93461 0.79569 0.0
O1329 O 0.84613 0.92162 0.7824 0.0
Co1330 Co 0.16368 0.56348 0.28914 0.0
O1331 O 0.15614 0.55247 0.27639 0.0
O1332 O 0.16547 0.54555 0.29432 0.0
C1333 C 0.14716 0.57758 0.29053 0.0
O1334 O 0.17202 0.57231 0.30464 0.0
Co1335 Co 0.16986 0.59189 0.28161 0.0
O1336 O 0.17328 0.59358 0.30033 0.0
C1337 C 0.18686 0.57103 0.27253 0.0
C1338 C 0.15934 0.54285 0.2837 0.0
C1339 C 0.17456 0.58402 0.30797 0.0
O1340 O 0.18077 0.56292 0.27971 0.0
O1341 O 0.18327 0.58276 0.2711 0.0
O1342 O 0.14679 0.56674 0.29678 0.0
O1343 O 0.15666 0.57879 0.28256 0.0
H1344 H 0.02407 0.29934 0.05101 0.0
H1345 H 0.01652 0.29406 0.02924 0.0
H1346 H 0.99512 0.32968 0.02799 0.0
H1347 H 0.00237 0.33494 0.04967 0.0
H1348 H 0.98171 0.30885 0.01738 0.0
H1349 H 0.03152 0.31271 0.99768 0.0
H1350 H 0.02905 0.30122 0.01042 0.0
H1351 H 0.02744 0.31814 0.01369 0.0
C1352 C 0.01761 0.30597 0.04618 0.0
C1353 C 0.01397 0.31766 0.05207 0.0
C1354 C 0.01337 0.30296 0.0337 0.0
C1355 C 0.00545 0.31159 0.02691 0.0
C1356 C 0.00127 0.32291 0.03303 0.0
H1357 H 0.99342 0.33572 0.95093 0.0
H1358 H 0.00037 0.33054 0.97273 0.0
C1359 C 0.00548 0.32591 0.04545 0.0
C1360 C 0.00201 0.30943 0.01319 0.0
H1361 H 0.01473 0.31005 0.98281 0.0
C1362 C 0.98892 0.30888 0.0098 0.0
C1363 C 0.01146 0.30957 0.00334 0.0
C1364 C 0.02566 0.31053 0.00638 0.0
C1365 C 0.98498 0.30906 0.99684 0.0
C1366 C 0.99442 0.30962 0.987 0.0
C1367 C 0.00753 0.30956 0.99038 0.0
C1368 C 0.99091 0.31196 0.97333 0.0
C1369 C 0.97076 0.30945 0.9938 0.0
C1370 C 0.98353 0.30308 0.96627 0.0
C1371 C 0.97947 0.30604 0.95372 0.0
C1372 C 0.98276 0.31792 0.94801 0.0
C1373 C 0.99061 0.32652 0.95498 0.0
C1374 C 0.99463 0.32356 0.96747 0.0
H1375 H 0.9648 0.3111 0.00255 0.0
H1376 H 0.96863 0.31718 0.9867 0.0
H1377 H 0.96781 0.30011 0.98948 0.0
H1378 H 0.98073 0.29397 0.97053 0.0
H1379 H 0.9735 0.29914 0.94862 0.0
H1380 H 0.91623 0.24427 0.20218 0.0
H1381 H 0.92175 0.25165 0.22374 0.0
H1382 H 0.95739 0.23031 0.22216 0.0
H1383 H 0.95188 0.22269 0.20046 0.0
H1384 H 0.94343 0.22567 0.24441 0.0
H1385 H 0.94776 0.27815 0.23639 0.0
H1386 H 0.93301 0.27194 0.22986 0.0
H1387 H 0.9482 0.26663 0.22333 0.0
C1388 C 0.92533 0.24124 0.20629 0.0
C1389 C 0.93359 0.23284 0.19954 0.0
C1390 C 0.92852 0.24557 0.21862 0.0
C1391 C 0.94007 0.2417 0.22449 0.0
C1392 C 0.94847 0.2335 0.21775 0.0
H1393 H 0.95193 0.27561 0.30142 0.0
H1394 H 0.95735 0.26771 0.27982 0.0
C1395 C 0.94531 0.22918 0.20534 0.0
C1396 C 0.94269 0.24544 0.23805 0.0
H1397 H 0.94264 0.27148 0.25817 0.0
C1398 C 0.94354 0.23569 0.24741 0.0
C1399 C 0.94307 0.25851 0.24196 0.0
C1400 C 0.9431 0.2694 0.23233 0.0
C1401 C 0.94379 0.23867 0.26062 0.0
C1402 C 0.94296 0.2517 0.26455 0.0
C1403 C 0.94309 0.26147 0.25517 0.0
C1404 C 0.94061 0.25538 0.27818 0.0
C1405 C 0.94461 0.22779 0.27024 0.0
C1406 C 0.92945 0.25102 0.28444 0.0
C1407 C 0.9263 0.25551 0.29674 0.0
C1408 C 0.93422 0.26455 0.30304 0.0
C1409 C 0.94562 0.26863 0.29689 0.0
C1410 C 0.94874 0.26415 0.28453 0.0
H1411 H 0.94957 0.21927 0.26605 0.0
H1412 H 0.94981 0.23081 0.2791 0.0
H1413 H 0.93472 0.22477 0.27298 0.0
H1414 H 0.92287 0.24449 0.27963 0.0
H1415 H 0.91745 0.25214 0.30113 0.0
H1416 H 0.99494 0.16555 0.54833 0.0
H1417 H 0.00275 0.17082 0.52683 0.0
H1418 H 0.9818 0.20671 0.52779 0.0
H1419 H 0.97377 0.20147 0.5494 0.0
H1420 H 0.97721 0.19241 0.50566 0.0
H1421 H 0.02964 0.19657 0.5142 0.0
H1422 H 0.02319 0.18195 0.52083 0.0
H1423 H 0.01797 0.19727 0.52711 0.0
C1424 C 0.9921 0.17466 0.54409 0.0
C1425 C 0.98368 0.18306 0.55063 0.0
C1426 C 0.99667 0.1777 0.53181 0.0
C1427 C 0.99301 0.18924 0.52577 0.0
C1428 C 0.98482 0.1978 0.53233 0.0
H1429 H 0.02744 0.20129 0.44909 0.0
H1430 H 0.01936 0.20653 0.47067 0.0
C1431 C 0.98027 0.19479 0.54469 0.0
C1432 C 0.99691 0.19169 0.51223 0.0
H1433 H 0.02315 0.19157 0.49237 0.0
C1434 C 0.98726 0.19249 0.50277 0.0
C1435 C 0.01001 0.19202 0.50845 0.0
C1436 C 0.02079 0.19205 0.51821 0.0
C1437 C 0.99037 0.1927 0.48959 0.0
C1438 C 0.00344 0.1919 0.4858 0.0
C1439 C 0.01311 0.19202 0.49527 0.0
C1440 C 0.00726 0.18961 0.4722 0.0
C1441 C 0.9796 0.19347 0.47984 0.0
C1442 C 0.00308 0.17841 0.46587 0.0
C1443 C 0.00767 0.17537 0.4536 0.0
C1444 C 0.01663 0.18343 0.44736 0.0
C1445 C 0.02052 0.19487 0.45356 0.0
C1446 C 0.01594 0.19788 0.46591 0.0
H1447 H 0.97098 0.19832 0.48396 0.0
H1448 H 0.98267 0.19876 0.47105 0.0
H1449 H 0.97672 0.18357 0.477 0.0
H1450 H 0.9966 0.17174 0.47064 0.0
H1451 H 0.00445 0.16648 0.44915 0.0
H1452 H 0.08631 0.2433 0.79997 0.0
H1453 H 0.08168 0.2511 0.77832 0.0
H1454 H 0.04486 0.23183 0.77901 0.0
H1455 H 0.04944 0.22381 0.80077 0.0
H1456 H 0.05923 0.22653 0.75699 0.0
H1457 H 0.05721 0.27914 0.76551 0.0
H1458 H 0.07147 0.27199 0.77221 0.0
H1459 H 0.05589 0.2675 0.77841 0.0
C1460 C 0.07714 0.24082 0.79564 0.0
C1461 C 0.06826 0.23289 0.80216 0.0
C1462 C 0.07447 0.24538 0.78326 0.0
C1463 C 0.06285 0.24221 0.77712 0.0
C1464 C 0.05385 0.23448 0.78363 0.0
H1465 H 0.05092 0.27661 0.70039 0.0
H1466 H 0.04597 0.26882 0.72215 0.0
C1467 C 0.05648 0.22992 0.79607 0.0
C1468 C 0.06069 0.24619 0.76355 0.0
H1469 H 0.06167 0.27242 0.74368 0.0
C1470 C 0.05952 0.23658 0.75409 0.0
C1471 C 0.06086 0.2593 0.75977 0.0
C1472 C 0.06128 0.27008 0.76953 0.0
C1473 C 0.05936 0.23969 0.74091 0.0
C1474 C 0.06058 0.25274 0.73712 0.0
C1475 C 0.06088 0.2624 0.74659 0.0
C1476 C 0.06274 0.25648 0.72348 0.0
C1477 C 0.05819 0.22897 0.73116 0.0
C1478 C 0.07376 0.25209 0.717 0.0
C1479 C 0.07665 0.25653 0.70463 0.0
C1480 C 0.06858 0.26553 0.69845 0.0
C1481 C 0.05732 0.26965 0.70483 0.0
C1482 C 0.05448 0.26523 0.71728 0.0
H1483 H 0.05326 0.22042 0.73535 0.0
H1484 H 0.05278 0.23217 0.7225 0.0
H1485 H 0.06797 0.22592 0.72809 0.0
H1486 H 0.08041 0.24554 0.7217 0.0
H1487 H 0.08539 0.25313 0.70004 0.0
H1488 H 0.97362 0.69935 0.04991 0.0
H1489 H 0.98167 0.7041 0.02819 0.0
H1490 H 0.00285 0.66833 0.02816 0.0
H1491 H 0.99505 0.66356 0.04978 0.0
H1492 H 0.0167 0.68943 0.01777 0.0
H1493 H 0.96767 0.68447 0.99642 0.0
H1494 H 0.96952 0.69603 0.00921 0.0
H1495 H 0.97133 0.67915 0.01258 0.0
C1496 C 0.98013 0.69257 0.04535 0.0
C1497 C 0.98356 0.68099 0.05157 0.0
C1498 C 0.98465 0.69528 0.03291 0.0
C1499 C 0.99269 0.68647 0.0265 0.0
C1500 C 0.99661 0.67524 0.03291 0.0
H1501 H 0.00842 0.66249 0.95077 0.0
H1502 H 0.00063 0.66712 0.97244 0.0
C1503 C 0.9921 0.67251 0.04529 0.0
C1504 C 0.99657 0.68842 0.01287 0.0
H1505 H 0.98493 0.68728 0.98208 0.0
C1506 C 0.00976 0.68919 0.00995 0.0
C1507 C 0.98747 0.68798 0.00272 0.0
C1508 C 0.9732 0.68678 0.0053 0.0
C1509 C 0.01414 0.68904 0.99713 0.0
C1510 C 0.00506 0.68824 0.98698 0.0
C1511 C 0.99184 0.68797 0.9899 0.0
C1512 C 0.00911 0.68615 0.97343 0.0
C1513 C 0.02846 0.689 0.99456 0.0
C1514 C 0.01623 0.69545 0.96665 0.0
C1515 C 0.02074 0.69284 0.95419 0.0
C1516 C 0.0182 0.68086 0.94829 0.0
C1517 C 0.01066 0.67178 0.95499 0.0
C1518 C 0.00615 0.67442 0.96739 0.0
H1519 H 0.03417 0.68756 0.00351 0.0
H1520 H 0.03101 0.68129 0.98759 0.0
H1521 H 0.03131 0.69838 0.99027 0.0
H1522 H 0.01844 0.70465 0.97107 0.0
H1523 H 0.02647 0.70008 0.94931 0.0
H1524 H 0.54698 0.2757 0.19741 0.0
H1525 H 0.54109 0.26744 0.21876 0.0
H1526 H 0.57779 0.2481 0.22144 0.0
H1527 H 0.58367 0.25605 0.20017 0.0
H1528 H 0.55736 0.23327 0.23069 0.0
H1529 H 0.55705 0.28278 0.25154 0.0
H1530 H 0.54638 0.27983 0.2382 0.0
H1531 H 0.56351 0.27944 0.23574 0.0
C1532 C 0.55373 0.26955 0.20247 0.0
C1533 C 0.56588 0.26668 0.1971 0.0
C1534 C 0.55037 0.2649 0.21471 0.0
C1535 C 0.5591 0.25734 0.22179 0.0
C1536 C 0.57092 0.25396 0.21618 0.0
H1537 H 0.58215 0.24533 0.29749 0.0
H1538 H 0.57647 0.25255 0.27593 0.0
C1539 C 0.57429 0.25856 0.204 0.0
C1540 C 0.55646 0.25347 0.23531 0.0
H1541 H 0.55514 0.26551 0.26594 0.0
C1542 C 0.55662 0.24029 0.23841 0.0
C1543 C 0.55557 0.26268 0.24534 0.0
C1544 C 0.5557 0.27698 0.24263 0.0
C1545 C 0.55661 0.23608 0.25128 0.0
C1546 C 0.55624 0.24532 0.26132 0.0
C1547 C 0.55537 0.25846 0.25821 0.0
C1548 C 0.55868 0.24169 0.27495 0.0
C1549 C 0.55787 0.22184 0.25404 0.0
C1550 C 0.55038 0.23343 0.28175 0.0
C1551 C 0.55364 0.2292 0.29418 0.0
C1552 C 0.56525 0.23319 0.29999 0.0
C1553 C 0.57319 0.24194 0.29333 0.0
C1554 C 0.56994 0.24614 0.28098 0.0
H1555 H 0.56004 0.21618 0.2452 0.0
H1556 H 0.56562 0.22007 0.26121 0.0
H1557 H 0.54868 0.21821 0.25815 0.0
H1558 H 0.54153 0.23006 0.27736 0.0
H1559 H 0.54726 0.22252 0.29905 0.0
H1560 H 0.02569 0.79957 0.55041 0.0
H1561 H 0.01692 0.79418 0.52912 0.0
H1562 H 0.99741 0.83087 0.52783 0.0
H1563 H 0.0059 0.83627 0.54903 0.0
H1564 H 0.98234 0.81021 0.51878 0.0
H1565 H 0.03103 0.81133 0.49613 0.0
H1566 H 0.02883 0.80046 0.50946 0.0
H1567 H 0.02809 0.81755 0.51211 0.0
C1568 C 0.01941 0.80643 0.54567 0.0
C1569 C 0.01663 0.81842 0.55141 0.0
C1570 C 0.01447 0.80336 0.53347 0.0
C1571 C 0.00669 0.81222 0.52682 0.0
C1572 C 0.00344 0.82391 0.53277 0.0
H1573 H 0.9908 0.83446 0.45094 0.0
H1574 H 0.99879 0.82983 0.47251 0.0
C1575 C 0.00836 0.82699 0.54491 0.0
C1576 C 0.00237 0.80982 0.5134 0.0
H1577 H 0.01329 0.80899 0.48233 0.0
C1578 C 0.98908 0.80971 0.5108 0.0
C1579 C 0.01122 0.80927 0.50303 0.0
C1580 C 0.0256 0.80974 0.50523 0.0
C1581 C 0.9844 0.80962 0.49809 0.0
C1582 C 0.99326 0.80948 0.48772 0.0
C1583 C 0.00653 0.80902 0.49032 0.0
C1584 C 0.98903 0.81147 0.4742 0.0
C1585 C 0.97005 0.81047 0.49585 0.0
C1586 C 0.98109 0.80254 0.46785 0.0
C1587 C 0.97645 0.80517 0.45543 0.0
C1588 C 0.97967 0.81679 0.44918 0.0
C1589 C 0.98802 0.82546 0.45545 0.0
C1590 C 0.99265 0.82281 0.46779 0.0
H1591 H 0.96466 0.81253 0.50488 0.0
H1592 H 0.96781 0.81812 0.4887 0.0
H1593 H 0.96653 0.80117 0.49191 0.0
H1594 H 0.97835 0.79363 0.47256 0.0
H1595 H 0.9701 0.79824 0.45088 0.0
H1596 H 0.41661 0.24398 0.7012 0.0
H1597 H 0.4214 0.25177 0.72281 0.0
H1598 H 0.45741 0.231 0.72254 0.0
H1599 H 0.45264 0.22298 0.70081 0.0
H1600 H 0.44272 0.22639 0.74443 0.0
H1601 H 0.44676 0.27884 0.73582 0.0
H1602 H 0.4323 0.27228 0.72895 0.0
H1603 H 0.44776 0.26713 0.72295 0.0
C1604 C 0.42564 0.24117 0.70561 0.0
C1605 C 0.43422 0.23281 0.69923 0.0
C1606 C 0.42841 0.24573 0.71797 0.0
C1607 C 0.43985 0.24213 0.72422 0.0
C1608 C 0.44857 0.23398 0.71783 0.0
H1609 H 0.45099 0.27652 0.80107 0.0
H1610 H 0.45627 0.26861 0.77944 0.0
C1611 C 0.44584 0.22943 0.70541 0.0
C1612 C 0.44202 0.24607 0.7378 0.0
H1613 H 0.44147 0.27237 0.75758 0.0
C1614 C 0.4427 0.23645 0.7473 0.0
C1615 C 0.44222 0.25919 0.74154 0.0
C1616 C 0.44236 0.26995 0.73176 0.0
C1617 C 0.44268 0.2396 0.76047 0.0
C1618 C 0.44177 0.25268 0.76421 0.0
C1619 C 0.442 0.26232 0.75471 0.0
C1620 C 0.43935 0.25653 0.77778 0.0
C1621 C 0.44335 0.22886 0.77026 0.0
C1622 C 0.42811 0.25234 0.78402 0.0
C1623 C 0.42504 0.25684 0.79633 0.0
C1624 C 0.43312 0.26571 0.80267 0.0
C1625 C 0.44456 0.26967 0.79651 0.0
C1626 C 0.4476 0.26518 0.78414 0.0
H1627 H 0.44823 0.22021 0.76622 0.0
H1628 H 0.44855 0.23196 0.77909 0.0
H1629 H 0.43341 0.226 0.77302 0.0
H1630 H 0.42146 0.24589 0.7792 0.0
H1631 H 0.41615 0.25358 0.80073 0.0
H1632 H 0.95006 0.97257 0.2982 0.0
H1633 H 0.97157 0.98081 0.29286 0.0
H1634 H 0.97307 0.00066 0.32936 0.0
H1635 H 0.95166 0.99271 0.3347 0.0
H1636 H 0.98267 0.0153 0.30873 0.0
H1637 H 0.00407 0.96604 0.31026 0.0
H1638 H 0.99093 0.96858 0.29924 0.0
H1639 H 0.9881 0.96939 0.3163 0.0
C1640 C 0.9549 0.97882 0.30502 0.0
C1641 C 0.94915 0.98184 0.31696 0.0
C1642 C 0.96722 0.98346 0.30197 0.0
C1643 C 0.974 0.99118 0.3108 0.0
C1644 C 0.96804 0.99468 0.32242 0.0
H1645 H 0.0493 0.00508 0.33505 0.0
H1646 H 0.02781 0.99749 0.32948 0.0
C1647 C 0.95578 0.99007 0.32547 0.0
C1648 C 0.98755 0.99514 0.30849 0.0
H1649 H 0.01833 0.98344 0.30831 0.0
C1650 C 0.99049 0.00835 0.30838 0.0
C1651 C 0.9977 0.98603 0.30814 0.0
C1652 C 0.99513 0.97171 0.30857 0.0
C1653 C 0.00331 0.01271 0.30857 0.0
C1654 C 0.01346 0.00359 0.30869 0.0
C1655 C 0.01052 0.99039 0.30815 0.0
C1656 C 0.027 0.00748 0.31119 0.0
C1657 C 0.00588 0.02701 0.30947 0.0
C1658 C 0.03384 0.01539 0.30259 0.0
C1659 C 0.04622 0.01981 0.30576 0.0
C1660 C 0.05194 0.01639 0.3176 0.0
C1661 C 0.0452 0.00803 0.3259 0.0
C1662 C 0.0329 0.00362 0.32272 0.0
H1663 H 0.99694 0.03263 0.31126 0.0
H1664 H 0.01286 0.02908 0.31732 0.0
H1665 H 0.01017 0.03042 0.30028 0.0
H1666 H 0.02954 0.01831 0.29353 0.0
H1667 H 0.05114 0.02618 0.2991 0.0
H1668 H 0.24546 0.30137 0.58643 0.0
H1669 H 0.25361 0.2797 0.58235 0.0
H1670 H 0.23116 0.27763 0.54743 0.0
H1671 H 0.22287 0.29942 0.55143 0.0
H1672 H 0.22786 0.25638 0.56441 0.0
H1673 H 0.27957 0.26617 0.55543 0.0
H1674 H 0.27356 0.27394 0.56969 0.0
H1675 H 0.26731 0.27849 0.55417 0.0
C1676 C 0.24235 0.29641 0.57778 0.0
C1677 C 0.23348 0.30216 0.56927 0.0
C1678 C 0.2471 0.28404 0.57543 0.0
C1679 C 0.24311 0.27712 0.56452 0.0
C1680 C 0.23443 0.28286 0.55586 0.0
H1681 H 0.2775 0.20038 0.55228 0.0
H1682 H 0.26896 0.22193 0.54762 0.0
C1683 C 0.22974 0.29533 0.55815 0.0
C1684 C 0.24728 0.26354 0.56283 0.0
H1685 H 0.27412 0.24451 0.56167 0.0
C1686 C 0.23795 0.25377 0.56358 0.0
C1687 C 0.26043 0.26016 0.56158 0.0
C1688 C 0.27079 0.27024 0.56004 0.0
C1689 C 0.2415 0.24071 0.56389 0.0
C1690 C 0.25472 0.23736 0.56359 0.0
C1691 C 0.26399 0.24709 0.56204 0.0
C1692 C 0.25917 0.22396 0.56592 0.0
C1693 C 0.23107 0.23061 0.56481 0.0
C1694 C 0.25653 0.21798 0.57776 0.0
C1695 C 0.2614 0.20573 0.58048 0.0
C1696 C 0.26909 0.19917 0.57142 0.0
C1697 C 0.27158 0.20511 0.55947 0.0
C1698 C 0.26673 0.21744 0.55678 0.0
H1699 H 0.22176 0.23425 0.56096 0.0
H1700 H 0.23378 0.22173 0.55947 0.0
H1701 H 0.22958 0.22803 0.57509 0.0
H1702 H 0.25094 0.22295 0.58507 0.0
H1703 H 0.25928 0.20151 0.58979 0.0
H1704 H 0.94951 0.49572 0.83395 0.0
H1705 H 0.97105 0.50363 0.82902 0.0
H1706 H 0.97178 0.4807 0.79436 0.0
H1707 H 0.95013 0.47258 0.79925 0.0
H1708 H 0.99334 0.47721 0.80981 0.0
H1709 H 0.98447 0.52922 0.80229 0.0
H1710 H 0.97726 0.5235 0.81694 0.0
H1711 H 0.97172 0.51735 0.80168 0.0
C1712 C 0.95413 0.49246 0.82517 0.0
C1713 C 0.94806 0.48347 0.81702 0.0
C1714 C 0.96644 0.49709 0.82231 0.0
C1715 C 0.97296 0.4929 0.81123 0.0
C1716 C 0.96686 0.48414 0.80291 0.0
H1717 H 0.05016 0.5269 0.80033 0.0
H1718 H 0.02866 0.51875 0.79479 0.0
C1719 C 0.95448 0.47953 0.80572 0.0
C1720 C 0.98655 0.49683 0.80912 0.0
H1721 H 0.00613 0.52329 0.80858 0.0
C1722 C 0.99613 0.48727 0.80928 0.0
C1723 C 0.99021 0.50994 0.80819 0.0
C1724 C 0.98036 0.52058 0.80712 0.0
C1725 C 0.00927 0.49053 0.80946 0.0
C1726 C 0.0129 0.50368 0.80969 0.0
C1727 C 0.00335 0.51321 0.80858 0.0
C1728 C 0.02635 0.50775 0.81237 0.0
C1729 C 0.01915 0.47985 0.80975 0.0
C1730 C 0.03216 0.50428 0.82407 0.0
C1731 C 0.04437 0.50893 0.82728 0.0
C1732 C 0.05106 0.51722 0.81888 0.0
C1733 C 0.04532 0.5205 0.80702 0.0
C1734 C 0.03303 0.51587 0.80383 0.0
H1735 H 0.01533 0.4709 0.80527 0.0
H1736 H 0.02812 0.48271 0.80466 0.0
H1737 H 0.0216 0.47761 0.81993 0.0
H1738 H 0.02707 0.49827 0.83094 0.0
H1739 H 0.04844 0.50619 0.8365 0.0
H1740 H 0.75448 0.20101 0.08338 0.0
H1741 H 0.74695 0.22261 0.07821 0.0
H1742 H 0.76962 0.2224 0.04336 0.0
H1743 H 0.77742 0.2007 0.04854 0.0
H1744 H 0.77377 0.24399 0.05807 0.0
H1745 H 0.72141 0.23645 0.05201 0.0
H1746 H 0.72711 0.22947 0.06677 0.0
H1747 H 0.73285 0.22332 0.05158 0.0
C1748 C 0.75775 0.20542 0.0745 0.0
C1749 C 0.76661 0.19908 0.06641 0.0
C1750 C 0.75333 0.21778 0.0715 0.0
C1751 C 0.75758 0.22407 0.06031 0.0
C1752 C 0.76615 0.21768 0.052 0.0
H1753 H 0.72477 0.30162 0.04917 0.0
H1754 H 0.73245 0.27994 0.04377 0.0
C1755 C 0.77057 0.20526 0.05498 0.0
C1756 C 0.75395 0.23774 0.05807 0.0
H1757 H 0.72805 0.25804 0.05798 0.0
C1758 C 0.76377 0.24705 0.05778 0.0
C1759 C 0.74093 0.24175 0.05747 0.0
C1760 C 0.72998 0.2322 0.05683 0.0
C1761 C 0.76089 0.26028 0.05783 0.0
C1762 C 0.74786 0.26428 0.05839 0.0
C1763 C 0.73805 0.25498 0.05774 0.0
C1764 C 0.74421 0.2779 0.06087 0.0
C1765 C 0.77184 0.26985 0.05757 0.0
C1766 C 0.74831 0.28396 0.07225 0.0
C1767 C 0.74395 0.2963 0.07538 0.0
C1768 C 0.7353 0.30286 0.06724 0.0
C1769 C 0.73145 0.29689 0.05566 0.0
C1770 C 0.73581 0.28449 0.05255 0.0
H1771 H 0.78049 0.26571 0.0528 0.0
H1772 H 0.76905 0.27884 0.05247 0.0
H1773 H 0.77455 0.27236 0.06761 0.0
H1774 H 0.75455 0.27896 0.07897 0.0
H1775 H 0.74712 0.30055 0.08438 0.0
H1776 H 0.05085 0.99844 0.6671 0.0
H1777 H 0.02939 0.00642 0.67222 0.0
H1778 H 0.02877 0.98323 0.70672 0.0
H1779 H 0.05033 0.975 0.7016 0.0
H1780 H 0.00735 0.97963 0.69154 0.0
H1781 H 0.01553 0.03177 0.69864 0.0
H1782 H 0.02271 0.0262 0.68393 0.0
H1783 H 0.02848 0.02013 0.69914 0.0
C1784 C 0.04629 0.99516 0.67591 0.0
C1785 C 0.05233 0.98602 0.6839 0.0
C1786 C 0.03402 0.99984 0.67888 0.0
C1787 C 0.02753 0.99556 0.68994 0.0
C1788 C 0.03366 0.98673 0.69818 0.0
H1789 H 0.9499 0.02863 0.70038 0.0
H1790 H 0.97152 0.02088 0.70595 0.0
C1791 C 0.04599 0.98207 0.69525 0.0
C1792 C 0.01389 0.99935 0.69203 0.0
H1793 H 0.99396 0.02555 0.69213 0.0
C1794 C 0.00443 0.98967 0.69195 0.0
C1795 C 0.01005 0.01242 0.69277 0.0
C1796 C 0.01975 0.02322 0.69377 0.0
C1797 C 0.99125 0.99275 0.69166 0.0
C1798 C 0.98745 0.00584 0.69124 0.0
C1799 C 0.99687 0.01551 0.69226 0.0
C1800 C 0.97395 0.0097 0.68851 0.0
C1801 C 0.98152 0.98194 0.69148 0.0
C1802 C 0.96816 0.006 0.67686 0.0
C1803 C 0.95586 0.01041 0.67363 0.0
C1804 C 0.94907 0.0187 0.68195 0.0
C1805 C 0.95481 0.02222 0.69375 0.0
C1806 C 0.96718 0.01782 0.69695 0.0
H1807 H 0.98545 0.97309 0.69609 0.0
H1808 H 0.9725 0.98474 0.69652 0.0
H1809 H 0.97911 0.97954 0.68134 0.0
H1810 H 0.97331 0.99997 0.67006 0.0
H1811 H 0.95179 0.00749 0.66446 0.0
H1812 H 0.24411 0.20245 0.91414 0.0
H1813 H 0.25193 0.22389 0.91959 0.0
H1814 H 0.23045 0.22292 0.95517 0.0
H1815 H 0.22241 0.20135 0.94974 0.0
H1816 H 0.2264 0.24529 0.94091 0.0
H1817 H 0.27862 0.2359 0.94583 0.0
H1818 H 0.27229 0.22944 0.93109 0.0
H1819 H 0.26674 0.22317 0.9463 0.0
C1820 C 0.24113 0.20667 0.92322 0.0
C1821 C 0.23259 0.20013 0.93149 0.0
C1822 C 0.24571 0.21893 0.92636 0.0
C1823 C 0.24194 0.22494 0.93787 0.0
C1824 C 0.23357 0.21841 0.94628 0.0
H1825 H 0.27741 0.30109 0.95061 0.0
H1826 H 0.26898 0.27959 0.95568 0.0
C1827 C 0.22901 0.20607 0.94317 0.0
C1828 C 0.246 0.23841 0.94046 0.0
H1829 H 0.27256 0.25785 0.94079 0.0
C1830 C 0.2365 0.24803 0.94115 0.0
C1831 C 0.25915 0.24198 0.941 0.0
C1832 C 0.26978 0.23206 0.94116 0.0
C1833 C 0.23981 0.26116 0.94145 0.0
C1834 C 0.25296 0.26474 0.94084 0.0
C1835 C 0.26247 0.25511 0.94109 0.0
C1836 C 0.25703 0.27829 0.93863 0.0
C1837 C 0.22919 0.27107 0.94209 0.0
C1838 C 0.25308 0.28471 0.9274 0.0
C1839 C 0.25788 0.29694 0.92446 0.0
C1840 C 0.26682 0.30303 0.93265 0.0
C1841 C 0.27051 0.29672 0.9441 0.0
C1842 C 0.26573 0.28442 0.94701 0.0
H1843 H 0.22045 0.26709 0.94683 0.0
H1844 H 0.23233 0.27981 0.94741 0.0
H1845 H 0.22648 0.27396 0.93215 0.0
H1846 H 0.24661 0.28007 0.92064 0.0
H1847 H 0.2548 0.30146 0.91557 0.0
H1848 H 0.05634 0.50341 0.17427 0.0
H1849 H 0.03455 0.51139 0.17824 0.0
H1850 H 0.02547 0.47638 0.19885 0.0
H1851 H 0.04751 0.46868 0.19546 0.0
H1852 H 0.01427 0.50125 0.16855 0.0
H1853 H 0.00744 0.50157 0.22141 0.0
H1854 H 0.02313 0.49988 0.21409 0.0
H1855 H 0.01269 0.4861 0.21578 0.0
C1856 C 0.04979 0.49758 0.17995 0.0
C1857 C 0.05361 0.48542 0.18454 0.0
C1858 C 0.03733 0.50213 0.1822 0.0
C1859 C 0.02832 0.49454 0.1889 0.0
C1860 C 0.03228 0.4826 0.19394 0.0
H1861 H 0.94706 0.50002 0.17079 0.0
H1862 H 0.9692 0.49277 0.17427 0.0
C1863 C 0.04487 0.47815 0.19194 0.0
C1864 C 0.0145 0.49845 0.18914 0.0
H1865 H 0.98813 0.50225 0.20857 0.0
C1866 C 0.00863 0.50158 0.17735 0.0
C1867 C 0.00709 0.499 0.2006 0.0
C1868 C 0.01296 0.49659 0.21369 0.0
C1869 C 0.99561 0.5051 0.17664 0.0
C1870 C 0.98802 0.50498 0.18798 0.0
C1871 C 0.99389 0.5021 0.19985 0.0
C1872 C 0.97404 0.50808 0.1876 0.0
C1873 C 0.99022 0.50916 0.16373 0.0
C1874 C 0.96912 0.51854 0.19465 0.0
C1875 C 0.95634 0.52254 0.19289 0.0
C1876 C 0.94833 0.5162 0.18396 0.0
C1877 C 0.95305 0.50523 0.17757 0.0
C1878 C 0.96573 0.50111 0.1795 0.0
H1879 H 0.99796 0.51243 0.15708 0.0
H1880 H 0.98533 0.50081 0.15916 0.0
H1881 H 0.98311 0.51709 0.16481 0.0
H1882 H 0.97532 0.52399 0.20104 0.0
H1883 H 0.95298 0.53102 0.19798 0.0
H1884 H 0.74886 0.19672 0.41997 0.0
H1885 H 0.75708 0.21809 0.42514 0.0
H1886 H 0.73164 0.22015 0.45796 0.0
H1887 H 0.7232 0.1987 0.45278 0.0
H1888 H 0.72923 0.24095 0.44175 0.0
H1889 H 0.78073 0.23288 0.45265 0.0
H1890 H 0.77607 0.22518 0.43788 0.0
H1891 H 0.769 0.22001 0.45287 0.0
C1892 C 0.74517 0.20156 0.42846 0.0
C1893 C 0.7353 0.19598 0.43592 0.0
C1894 C 0.74998 0.21378 0.43146 0.0
C1895 C 0.74508 0.22068 0.44201 0.0
C1896 C 0.73562 0.21495 0.44982 0.0
H1897 H 0.77713 0.29882 0.45257 0.0
H1898 H 0.76929 0.27719 0.45801 0.0
C1899 C 0.73083 0.20266 0.44686 0.0
C1900 C 0.74883 0.23438 0.44384 0.0
H1901 H 0.77504 0.25426 0.4451 0.0
C1902 C 0.73922 0.24386 0.44275 0.0
C1903 C 0.76183 0.23821 0.44533 0.0
C1904 C 0.77248 0.22852 0.44739 0.0
C1905 C 0.74237 0.25702 0.44223 0.0
C1906 C 0.75547 0.26078 0.44262 0.0
C1907 C 0.765 0.25137 0.44462 0.0
C1908 C 0.75955 0.2742 0.43981 0.0
C1909 C 0.73164 0.26676 0.44095 0.0
C1910 C 0.75672 0.27968 0.42777 0.0
C1911 C 0.76118 0.29198 0.42462 0.0
C1912 C 0.76867 0.2991 0.43342 0.0
C1913 C 0.77136 0.29365 0.44557 0.0
C1914 C 0.76691 0.28128 0.4487 0.0
H1915 H 0.72245 0.26298 0.44496 0.0
H1916 H 0.73408 0.27591 0.44594 0.0
H1917 H 0.73005 0.26889 0.43058 0.0
H1918 H 0.75129 0.27429 0.42065 0.0
H1919 H 0.75892 0.2958 0.41516 0.0
H1920 H 0.33303 0.95212 0.99571 0.0
H1921 H 0.32739 0.97366 0.00309 0.0
H1922 H 0.29145 0.97162 0.9823 0.0
H1923 H 0.29708 0.94997 0.97467 0.0
H1924 H 0.30491 0.99399 0.97738 0.0
H1925 H 0.30176 0.98614 0.02997 0.0
H1926 H 0.31653 0.97987 0.0235 0.0
H1927 H 0.30137 0.97302 0.01852 0.0
C1928 C 0.32383 0.95612 0.9928 0.0
C1929 C 0.31552 0.94926 0.98455 0.0
C1930 C 0.32058 0.96845 0.99713 0.0
C1931 C 0.30891 0.97419 0.99342 0.0
C1932 C 0.30046 0.96732 0.98537 0.0
H1933 H 0.2965 0.05081 0.02777 0.0
H1934 H 0.29114 0.02924 0.01973 0.0
C1935 C 0.30369 0.95493 0.98104 0.0
C1936 C 0.30618 0.98774 0.99716 0.0
H1937 H 0.30629 0.00799 0.0231 0.0
C1938 C 0.30494 0.99704 0.98739 0.0
C1939 C 0.30597 0.99171 0.01021 0.0
C1940 C 0.30634 0.98213 0.02115 0.0
C1941 C 0.30445 0.01026 0.99031 0.0
C1942 C 0.30543 0.01428 0.00331 0.0
C1943 C 0.30571 0.00494 0.01311 0.0
C1944 C 0.30754 0.02798 0.00689 0.0
C1945 C 0.30319 0.0198 0.97941 0.0
C1946 C 0.31844 0.0345 0.00224 0.0
C1947 C 0.32153 0.04679 0.00679 0.0
C1948 C 0.31384 0.05283 0.0162 0.0
C1949 C 0.30262 0.04649 0.02049 0.0
C1950 C 0.29955 0.03414 0.01593 0.0
H1951 H 0.29808 0.01547 0.97104 0.0
H1952 H 0.29791 0.02859 0.98249 0.0
H1953 H 0.31295 0.02269 0.97611 0.0
H1954 H 0.32491 0.02986 0.99548 0.0
H1955 H 0.33024 0.05134 0.00326 0.0
H1956 H 0.79973 0.0527 0.5276 0.0
H1957 H 0.79521 0.03083 0.51982 0.0
H1958 H 0.83102 0.03086 0.49872 0.0
H1959 H 0.83556 0.05263 0.50624 0.0
H1960 H 0.81011 0.02026 0.48487 0.0
H1961 H 0.81489 0.99923 0.53406 0.0
H1962 H 0.80326 0.01194 0.53208 0.0
H1963 H 0.82013 0.01539 0.53033 0.0
C1964 C 0.80658 0.04812 0.52118 0.0
C1965 C 0.81808 0.05441 0.51767 0.0
C1966 C 0.804 0.03559 0.51681 0.0
C1967 C 0.81287 0.02916 0.50885 0.0
C1968 C 0.82406 0.03563 0.50489 0.0
H1969 H 0.83691 0.95316 0.49418 0.0
H1970 H 0.83225 0.97491 0.50168 0.0
C1971 C 0.82665 0.04809 0.50925 0.0
C1972 C 0.81101 0.01549 0.50504 0.0
H1973 H 0.81213 0.98478 0.51689 0.0
C1974 C 0.81034 0.01248 0.49186 0.0
C1975 C 0.81143 0.00539 0.5142 0.0
C1976 C 0.81255 0.00806 0.52847 0.0
C1977 C 0.81055 0.99963 0.48756 0.0
C1978 C 0.8113 0.98954 0.49671 0.0
C1979 C 0.81148 0.99254 0.50991 0.0
C1980 C 0.81342 0.97594 0.49277 0.0
C1981 C 0.81071 0.99699 0.47325 0.0
C1982 C 0.80425 0.96916 0.48548 0.0
C1983 C 0.8069 0.95664 0.48111 0.0
C1984 C 0.81877 0.95069 0.48399 0.0
C1985 C 0.82771 0.95741 0.49169 0.0
C1986 C 0.82505 0.96987 0.49603 0.0
H1987 H 0.81231 0.0059 0.46752 0.0
H1988 H 0.81838 0.98993 0.47081 0.0
H1989 H 0.80132 0.99279 0.47033 0.0
H1990 H 0.79512 0.9736 0.48303 0.0
H1991 H 0.79976 0.95175 0.47527 0.0
H1992 H 0.30038 0.08508 0.74542 0.0
H1993 H 0.27871 0.08003 0.75286 0.0
H1994 H 0.27913 0.04478 0.73083 0.0
H1995 H 0.30093 0.0498 0.72317 0.0
H1996 H 0.25733 0.05979 0.7265 0.0
H1997 H 0.26532 0.05369 0.77884 0.0
H1998 H 0.27236 0.06834 0.7729 0.0
H1999 H 0.27831 0.05304 0.76725 0.0
C2000 C 0.29599 0.07615 0.74226 0.0
C2001 C 0.30244 0.06787 0.73366 0.0
C2002 C 0.2836 0.07323 0.74662 0.0
C2003 C 0.27737 0.06194 0.74255 0.0
C2004 C 0.28382 0.05349 0.73417 0.0
H2005 H 0.20009 0.05021 0.77575 0.0
H2006 H 0.22172 0.04496 0.76783 0.0
C2007 C 0.29629 0.05638 0.72983 0.0
C2008 C 0.26374 0.05968 0.74626 0.0
H2009 H 0.24367 0.05938 0.77234 0.0
C2010 C 0.25435 0.05943 0.73652 0.0
C2011 C 0.25985 0.059 0.75931 0.0
C2012 C 0.26951 0.05839 0.77017 0.0
C2013 C 0.24114 0.05943 0.73951 0.0
C2014 C 0.23726 0.05987 0.75258 0.0
C2015 C 0.24665 0.0592 0.76231 0.0
C2016 C 0.22367 0.06228 0.75637 0.0
C2017 C 0.23148 0.05927 0.72865 0.0
C2018 C 0.21758 0.07373 0.75253 0.0
C2019 C 0.20527 0.07678 0.75703 0.0
C2020 C 0.19878 0.06847 0.76557 0.0
C2021 C 0.20477 0.05682 0.76916 0.0
C2022 C 0.21715 0.0538 0.76466 0.0
H2023 H 0.23556 0.05466 0.71988 0.0
H2024 H 0.22255 0.05405 0.73146 0.0
H2025 H 0.22886 0.06933 0.72613 0.0
H2026 H 0.22254 0.08056 0.74636 0.0
H2027 H 0.201 0.08583 0.75405 0.0
H2028 H 0.19883 0.45216 0.03087 0.0
H2029 H 0.20205 0.47443 0.02363 0.0
H2030 H 0.17854 0.46696 0.99015 0.0
H2031 H 0.17485 0.4449 0.99761 0.0
H2032 H 0.21078 0.48773 0.00248 0.0
H2033 H 0.15814 0.49462 0.00842 0.0
H2034 H 0.16629 0.48022 0.01373 0.0
H2035 H 0.16194 0.48218 0.99703 0.0
C2036 C 0.1946 0.45519 0.02181 0.0
C2037 C 0.18642 0.44687 0.01491 0.0
C2038 C 0.19643 0.46793 0.0177 0.0
C2039 C 0.19021 0.47246 0.00656 0.0
C2040 C 0.1831 0.46378 0.99899 0.0
H2041 H 0.19723 0.54716 0.96907 0.0
H2042 H 0.20102 0.52508 0.97644 0.0
C2043 C 0.18107 0.45115 0.00322 0.0
C2044 C 0.19009 0.48646 0.00351 0.0
H2045 H 0.1696 0.5117 0.99856 0.0
C2046 C 0.2018 0.49301 0.00167 0.0
C2047 C 0.17837 0.49343 0.00279 0.0
C2048 C 0.16549 0.48729 0.00573 0.0
C2049 C 0.20207 0.50629 0.99882 0.0
C2050 C 0.1903 0.51309 0.99746 0.0
C2051 C 0.17864 0.50653 0.99952 0.0
C2052 C 0.18961 0.52696 0.99384 0.0
C2053 C 0.21496 0.5129 0.99756 0.0
C2054 C 0.18192 0.53543 0.00111 0.0
C2055 C 0.17946 0.54793 0.99673 0.0
C2056 C 0.1848 0.55231 0.98508 0.0
C2057 C 0.19309 0.5441 0.97816 0.0
C2058 C 0.19533 0.53148 0.98241 0.0
H2059 H 0.22257 0.50767 0.00299 0.0
H2060 H 0.21784 0.51304 0.98726 0.0
H2061 H 0.21454 0.52299 0.00111 0.0
H2062 H 0.17742 0.53221 0.00996 0.0
H2063 H 0.1731 0.55406 0.0023 0.0
H2064 H 0.30132 0.91518 0.25489 0.0
H2065 H 0.27964 0.91976 0.24713 0.0
H2066 H 0.27855 0.95445 0.27001 0.0
H2067 H 0.30033 0.94991 0.27797 0.0
H2068 H 0.25716 0.9384 0.27358 0.0
H2069 H 0.26596 0.94659 0.2216 0.0
H2070 H 0.27336 0.93203 0.22734 0.0
H2071 H 0.27866 0.94736 0.2335 0.0
C2072 C 0.29658 0.92389 0.25818 0.0
C2073 C 0.3026 0.93216 0.2671 0.0
C2074 C 0.2842 0.92654 0.25364 0.0
C2075 C 0.27754 0.93753 0.25786 0.0
C2076 C 0.28357 0.94596 0.26656 0.0
H2077 H 0.20054 0.95029 0.22443 0.0
H2078 H 0.2222 0.95492 0.23267 0.0
C2079 C 0.29603 0.94336 0.27107 0.0
C2080 C 0.26392 0.93949 0.25396 0.0
H2081 H 0.24431 0.94056 0.22755 0.0
C2082 C 0.25435 0.93912 0.26353 0.0
C2083 C 0.26025 0.9406 0.24087 0.0
C2084 C 0.27011 0.9418 0.23024 0.0
C2085 C 0.24121 0.93902 0.26029 0.0
C2086 C 0.23757 0.93913 0.24714 0.0
C2087 C 0.24711 0.94032 0.23762 0.0
C2088 C 0.22405 0.93691 0.24302 0.0
C2089 C 0.23134 0.93853 0.27096 0.0
C2090 C 0.21792 0.92526 0.24612 0.0
C2091 C 0.20559 0.92257 0.24143 0.0
C2092 C 0.19913 0.93145 0.23346 0.0
C2093 C 0.2052 0.94325 0.23057 0.0
C2094 C 0.21759 0.94591 0.23525 0.0
H2095 H 0.23524 0.94261 0.28007 0.0
H2096 H 0.22247 0.94391 0.2683 0.0
H2097 H 0.22867 0.92834 0.27282 0.0
H2098 H 0.22283 0.91806 0.25188 0.0
H2099 H 0.20127 0.91338 0.24385 0.0
H2100 H 0.70067 0.95056 0.02578 0.0
H2101 H 0.7053 0.97243 0.01808 0.0
H2102 H 0.66845 0.97354 0.99888 0.0
H2103 H 0.66378 0.95176 0.00635 0.0
H2104 H 0.68905 0.98363 0.98404 0.0
H2105 H 0.68721 0.00447 0.0335 0.0
H2106 H 0.69832 0.99141 0.0309 0.0
H2107 H 0.68129 0.9885 0.02994 0.0
C2108 C 0.6936 0.9554 0.01982 0.0
C2109 C 0.68179 0.94941 0.0168 0.0
C2110 C 0.69624 0.96793 0.01548 0.0
C2111 C 0.68714 0.97466 0.00807 0.0
C2112 C 0.6756 0.96852 0.00463 0.0
H2113 H 0.66414 0.051 0.99453 0.0
H2114 H 0.66886 0.02925 0.00196 0.0
C2115 C 0.67293 0.95606 0.00896 0.0
C2116 C 0.6892 0.98829 0.00424 0.0
H2117 H 0.68953 0.01895 0.01628 0.0
C2118 C 0.68938 0.99137 0.99106 0.0
C2119 C 0.68952 0.99834 0.01347 0.0
C2120 C 0.68899 0.99561 0.02775 0.0
C2121 C 0.68935 0.00424 0.98684 0.0
C2122 C 0.68931 0.01429 0.99607 0.0
C2123 C 0.68965 0.01121 0.00924 0.0
C2124 C 0.68728 0.02794 0.99228 0.0
C2125 C 0.68864 0.00697 0.97256 0.0
C2126 C 0.69625 0.03459 0.98461 0.0
C2127 C 0.69357 0.04711 0.98029 0.0
C2128 C 0.68187 0.05319 0.98357 0.0
C2129 C 0.6732 0.04664 0.9917 0.0
C2130 C 0.67589 0.03418 0.99601 0.0
H2131 H 0.68664 0.99813 0.96685 0.0
H2132 H 0.681 0.01419 0.9705 0.0
H2133 H 0.69797 0.01103 0.96927 0.0
H2134 H 0.7052 0.03001 0.9818 0.0
H2135 H 0.7005 0.05188 0.9741 0.0
H2136 H 0.30102 0.41528 0.75215 0.0
H2137 H 0.2796 0.42059 0.74419 0.0
H2138 H 0.27952 0.45537 0.76697 0.0
H2139 H 0.30104 0.45007 0.77516 0.0
H2140 H 0.25785 0.44057 0.7707 0.0
H2141 H 0.26629 0.44706 0.71851 0.0
H2142 H 0.27319 0.43229 0.72427 0.0
H2143 H 0.2792 0.44747 0.73019 0.0
C2144 C 0.29658 0.42418 0.75536 0.0
C2145 C 0.30278 0.43222 0.76436 0.0
C2146 C 0.28434 0.42725 0.75069 0.0
C2147 C 0.27802 0.43847 0.75484 0.0
C2148 C 0.28428 0.44672 0.76357 0.0
H2149 H 0.20058 0.45015 0.72162 0.0
H2150 H 0.2223 0.45543 0.72933 0.0
C2151 C 0.29659 0.44367 0.76822 0.0
C2152 C 0.26443 0.44077 0.75099 0.0
H2153 H 0.24457 0.44114 0.72475 0.0
C2154 C 0.25495 0.44097 0.76066 0.0
C2155 C 0.26064 0.4415 0.73791 0.0
C2156 C 0.27039 0.44221 0.72714 0.0
C2157 C 0.24178 0.44095 0.75755 0.0
C2158 C 0.23801 0.44053 0.74445 0.0
C2159 C 0.24747 0.44128 0.7348 0.0
C2160 C 0.22447 0.43801 0.74059 0.0
C2161 C 0.23203 0.44105 0.76834 0.0
C2162 C 0.21851 0.42647 0.74435 0.0
C2163 C 0.20617 0.4234 0.73996 0.0
C2164 C 0.1995 0.43179 0.73163 0.0
C2165 C 0.2054 0.44349 0.72806 0.0
C2166 C 0.21782 0.44652 0.73243 0.0
H2167 H 0.23603 0.44563 0.77716 0.0
H2168 H 0.22311 0.44625 0.76548 0.0
H2169 H 0.22941 0.43097 0.7708 0.0
H2170 H 0.22356 0.41962 0.7504 0.0
H2171 H 0.20197 0.41431 0.74292 0.0
H2172 H 0.69966 0.04842 0.27579 0.0
H2173 H 0.72151 0.04332 0.26837 0.0
H2174 H 0.72262 0.07897 0.247 0.0
H2175 H 0.70086 0.08406 0.25414 0.0
H2176 H 0.73307 0.05801 0.23352 0.0
H2177 H 0.75321 0.06207 0.28315 0.0
H2178 H 0.7404 0.05062 0.28082 0.0
H2179 H 0.73718 0.06755 0.27917 0.0
C2180 C 0.70449 0.05511 0.26939 0.0
C2181 C 0.69851 0.06673 0.26569 0.0
C2182 C 0.71701 0.0522 0.26522 0.0
C2183 C 0.72376 0.06087 0.25731 0.0
C2184 C 0.71761 0.07216 0.25315 0.0
H2185 H 0.79941 0.08514 0.24406 0.0
H2186 H 0.77785 0.0798 0.25162 0.0
C2187 C 0.70514 0.07508 0.25728 0.0
C2188 C 0.73745 0.0587 0.25378 0.0
H2189 H 0.76794 0.05938 0.26622 0.0
C2190 C 0.74071 0.05808 0.24066 0.0
C2191 C 0.74738 0.05888 0.26314 0.0
C2192 C 0.74445 0.0599 0.27736 0.0
C2193 C 0.75364 0.05823 0.2366 0.0
C2194 C 0.76356 0.05882 0.24595 0.0
C2195 C 0.7603 0.05884 0.25909 0.0
C2196 C 0.77718 0.06116 0.24229 0.0
C2197 C 0.75654 0.05854 0.22234 0.0
C2198 C 0.78415 0.05227 0.23481 0.0
C2199 C 0.79655 0.05532 0.2304 0.0
C2200 C 0.80219 0.06731 0.23342 0.0
C2201 C 0.79538 0.07587 0.24144 0.0
C2202 C 0.78303 0.07282 0.24582 0.0
H2203 H 0.74773 0.06017 0.21646 0.0
H2204 H 0.76361 0.06626 0.22011 0.0
H2205 H 0.76082 0.04919 0.2194 0.0
H2206 H 0.77989 0.04311 0.23217 0.0
H2207 H 0.80154 0.04845 0.22431 0.0
H2208 H 0.9166 0.75601 0.79972 0.0
H2209 H 0.92222 0.7484 0.77826 0.0
H2210 H 0.95738 0.77055 0.77937 0.0
H2211 H 0.95176 0.7784 0.80096 0.0
H2212 H 0.94317 0.77463 0.75718 0.0
H2213 H 0.94873 0.72236 0.76567 0.0
H2214 H 0.9339 0.72829 0.77229 0.0
H2215 H 0.94903 0.73401 0.77861 0.0
C2216 C 0.92562 0.75917 0.79553 0.0
C2217 C 0.9337 0.76786 0.8021 0.0
C2218 C 0.92888 0.7547 0.78326 0.0
C2219 C 0.94031 0.75874 0.77728 0.0
C2220 C 0.94855 0.76723 0.78387 0.0
H2221 H 0.9515 0.72439 0.70038 0.0
H2222 H 0.95726 0.73252 0.72181 0.0
C2223 C 0.94533 0.77168 0.79621 0.0
C2224 C 0.94291 0.75492 0.76374 0.0
H2225 H 0.94312 0.72868 0.74388 0.0
C2226 C 0.94344 0.76459 0.75428 0.0
C2227 C 0.94352 0.74183 0.75995 0.0
C2228 C 0.94391 0.73104 0.76969 0.0
C2229 C 0.94356 0.76149 0.7411 0.0
C2230 C 0.94293 0.7484 0.73731 0.0
C2231 C 0.94342 0.73873 0.74677 0.0
C2232 C 0.94034 0.74456 0.72377 0.0
C2233 C 0.94401 0.77228 0.73136 0.0
C2234 C 0.92895 0.74866 0.71774 0.0
C2235 C 0.92561 0.74404 0.70556 0.0
C2236 C 0.93355 0.73511 0.69912 0.0
C2237 C 0.94517 0.73128 0.70502 0.0
C2238 C 0.94848 0.7359 0.71728 0.0
H2239 H 0.94891 0.78092 0.73538 0.0
H2240 H 0.94909 0.76927 0.72243 0.0
H2241 H 0.93402 0.77511 0.72879 0.0
H2242 H 0.92237 0.7551 0.72267 0.0
H2243 H 0.9166 0.74722 0.70134 0.0
H2244 H 0.04884 0.72391 0.29902 0.0
H2245 H 0.04384 0.73197 0.27736 0.0
H2246 H 0.0782 0.75535 0.27808 0.0
H2247 H 0.0832 0.74755 0.29965 0.0
H2248 H 0.0565 0.76795 0.26736 0.0
H2249 H 0.06482 0.7194 0.24592 0.0
H2250 H 0.0529 0.72052 0.25846 0.0
H2251 H 0.06957 0.72327 0.2622 0.0
C2252 C 0.05525 0.7309 0.29464 0.0
C2253 C 0.06652 0.73495 0.30105 0.0
C2254 C 0.0524 0.73544 0.28224 0.0
C2255 C 0.06076 0.7441 0.27604 0.0
C2256 C 0.07164 0.74864 0.28266 0.0
H2257 H 0.08627 0.7611 0.20142 0.0
H2258 H 0.08118 0.75325 0.22295 0.0
C2259 C 0.0745 0.74411 0.29501 0.0
C2260 C 0.05882 0.74795 0.26241 0.0
H2261 H 0.06151 0.73657 0.23162 0.0
C2262 C 0.05735 0.76109 0.25952 0.0
C2263 C 0.06005 0.73895 0.25222 0.0
C2264 C 0.06201 0.72475 0.25477 0.0
C2265 C 0.05763 0.76555 0.24673 0.0
C2266 C 0.05929 0.75659 0.23657 0.0
C2267 C 0.06018 0.74339 0.23944 0.0
C2268 C 0.06174 0.76082 0.22313 0.0
C2269 C 0.05692 0.77987 0.24422 0.0
C2270 C 0.0524 0.76749 0.21596 0.0
C2271 C 0.05529 0.77205 0.20357 0.0
C2272 C 0.06757 0.77 0.19814 0.0
C2273 C 0.07673 0.76295 0.20526 0.0
C2274 C 0.07383 0.75841 0.21759 0.0
H2275 H 0.05766 0.78559 0.25324 0.0
H2276 H 0.06474 0.78291 0.23758 0.0
H2277 H 0.04757 0.78218 0.23956 0.0
H2278 H 0.04294 0.76928 0.21999 0.0
H2279 H 0.04798 0.77738 0.19835 0.0
H2280 H 0.55027 0.77754 0.69917 0.0
H2281 H 0.54572 0.76949 0.72093 0.0
H2282 H 0.58158 0.74847 0.7207 0.0
H2283 H 0.58618 0.75633 0.69904 0.0
H2284 H 0.56004 0.73447 0.73096 0.0
H2285 H 0.56589 0.7832 0.75279 0.0
H2286 H 0.55443 0.78163 0.73987 0.0
H2287 H 0.5713 0.77956 0.73665 0.0
C2288 C 0.55712 0.77109 0.70368 0.0
C2289 C 0.56866 0.76769 0.69737 0.0
C2290 C 0.55453 0.76655 0.71615 0.0
C2291 C 0.5634 0.75852 0.72248 0.0
C2292 C 0.57463 0.75469 0.716 0.0
H2293 H 0.58732 0.74172 0.79797 0.0
H2294 H 0.5828 0.74964 0.77634 0.0
C2295 C 0.57725 0.75924 0.70361 0.0
C2296 C 0.56147 0.75452 0.73606 0.0
H2297 H 0.56294 0.76583 0.76696 0.0
C2298 C 0.56045 0.74131 0.73885 0.0
C2299 C 0.56212 0.7635 0.74631 0.0
C2300 C 0.56358 0.77777 0.74385 0.0
C2301 C 0.56053 0.7368 0.75163 0.0
C2302 C 0.56155 0.74577 0.76187 0.0
C2303 C 0.56208 0.759 0.75908 0.0
C2304 C 0.56361 0.74154 0.77537 0.0
C2305 C 0.56025 0.72246 0.75405 0.0
C2306 C 0.5542 0.73456 0.78214 0.0
C2307 C 0.55675 0.72995 0.79459 0.0
C2308 C 0.56878 0.73228 0.80048 0.0
C2309 C 0.57798 0.73965 0.79377 0.0
C2310 C 0.57542 0.74424 0.78138 0.0
H2311 H 0.56152 0.71681 0.74504 0.0
H2312 H 0.56793 0.71966 0.76097 0.0
H2313 H 0.55083 0.71978 0.75837 0.0
H2314 H 0.54495 0.73254 0.77774 0.0
H2315 H 0.54941 0.72437 0.79948 0.0
H2316 H 0.41626 0.74756 0.19797 0.0
H2317 H 0.42128 0.75548 0.21948 0.0
H2318 H 0.45565 0.73211 0.22029 0.0
H2319 H 0.45064 0.72396 0.19867 0.0
H2320 H 0.44014 0.72862 0.24167 0.0
H2321 H 0.44794 0.78068 0.23342 0.0
H2322 H 0.43325 0.77518 0.22613 0.0
H2323 H 0.44847 0.76898 0.22052 0.0
C2324 C 0.42502 0.74423 0.20258 0.0
C2325 C 0.43302 0.73507 0.19657 0.0
C2326 C 0.42792 0.74887 0.21488 0.0
C2327 C 0.43892 0.74452 0.22144 0.0
C2328 C 0.44716 0.73567 0.21535 0.0
H2329 H 0.44987 0.77745 0.29911 0.0
H2330 H 0.45527 0.76961 0.27747 0.0
C2331 C 0.44429 0.73105 0.20298 0.0
C2332 C 0.44096 0.74832 0.2351 0.0
H2333 H 0.44145 0.77455 0.25499 0.0
C2334 C 0.4407 0.73865 0.24458 0.0
C2335 C 0.44188 0.76138 0.23891 0.0
C2336 C 0.44304 0.77214 0.22919 0.0
C2337 C 0.44043 0.74176 0.25775 0.0
C2338 C 0.44024 0.75487 0.26153 0.0
C2339 C 0.44142 0.7645 0.25209 0.0
C2340 C 0.4376 0.7588 0.27504 0.0
C2341 C 0.44004 0.73097 0.2675 0.0
C2342 C 0.42588 0.75533 0.28084 0.0
C2343 C 0.42275 0.7598 0.29314 0.0
C2344 C 0.43125 0.76791 0.29994 0.0
C2345 C 0.44312 0.77119 0.2942 0.0
C2346 C 0.44622 0.76673 0.28182 0.0
H2347 H 0.44445 0.72203 0.26359 0.0
H2348 H 0.44514 0.73368 0.27652 0.0
H2349 H 0.42985 0.72879 0.26993 0.0
H2350 H 0.41896 0.74945 0.27569 0.0
H2351 H 0.41353 0.75707 0.2972 0.0
H2352 H 0.27444 0.69847 0.04852 0.0
H2353 H 0.2667 0.72025 0.04358 0.0
H2354 H 0.24904 0.72255 0.08114 0.0
H2355 H 0.25649 0.70086 0.08611 0.0
H2356 H 0.23343 0.73217 0.06139 0.0
H2357 H 0.28301 0.75271 0.05944 0.0
H2358 H 0.27965 0.73947 0.04877 0.0
H2359 H 0.27977 0.73687 0.06589 0.0
C2360 C 0.26881 0.70356 0.05569 0.0
C2361 C 0.2662 0.69791 0.06777 0.0
C2362 C 0.26446 0.71604 0.05286 0.0
C2363 C 0.25747 0.72309 0.06207 0.0
C2364 C 0.25445 0.7173 0.07391 0.0
H2365 H 0.24571 0.79984 0.08401 0.0
H2366 H 0.25299 0.77808 0.07907 0.0
C2367 C 0.25876 0.70487 0.07674 0.0
C2368 C 0.25361 0.73668 0.05977 0.0
H2369 H 0.26576 0.76723 0.0577 0.0
C2370 C 0.24047 0.73984 0.06037 0.0
C2371 C 0.26285 0.74665 0.05852 0.0
C2372 C 0.27712 0.74384 0.0582 0.0
C2373 C 0.23633 0.75274 0.06031 0.0
C2374 C 0.24559 0.76272 0.05943 0.0
C2375 C 0.25869 0.75954 0.05828 0.0
C2376 C 0.24202 0.77643 0.06141 0.0
C2377 C 0.22215 0.75559 0.06195 0.0
C2378 C 0.2337 0.7829 0.05291 0.0
C2379 C 0.22945 0.79542 0.05572 0.0
C2380 C 0.23347 0.80166 0.06709 0.0
C2381 C 0.2423 0.79533 0.07523 0.0
C2382 C 0.24652 0.78288 0.0724 0.0
H2383 H 0.21655 0.74685 0.06459 0.0
H2384 H 0.22066 0.76301 0.06953 0.0
H2385 H 0.21822 0.75943 0.05277 0.0
H2386 H 0.23027 0.77816 0.04425 0.0
H2387 H 0.22272 0.80002 0.0492 0.0
H2388 H 0.7755 0.69975 0.54799 0.0
H2389 H 0.76785 0.72148 0.54267 0.0
H2390 H 0.74698 0.72298 0.57859 0.0
H2391 H 0.75433 0.70133 0.5839 0.0
H2392 H 0.73315 0.73317 0.55791 0.0
H2393 H 0.7828 0.75345 0.56058 0.0
H2394 H 0.78029 0.74052 0.5493 0.0
H2395 H 0.77899 0.73746 0.56629 0.0
C2396 C 0.76915 0.70464 0.55469 0.0
C2397 C 0.76566 0.69881 0.56645 0.0
C2398 C 0.76485 0.71709 0.55166 0.0
C2399 C 0.75703 0.72392 0.56034 0.0
C2400 C 0.75306 0.7179 0.57177 0.0
H2401 H 0.74455 0.80006 0.58355 0.0
H2402 H 0.75183 0.77836 0.57842 0.0
C2403 C 0.75732 0.7055 0.57481 0.0
C2404 C 0.75341 0.73758 0.55804 0.0
H2405 H 0.76581 0.7681 0.55789 0.0
C2406 C 0.74028 0.74082 0.55767 0.0
C2407 C 0.76276 0.74753 0.55784 0.0
C2408 C 0.77701 0.74465 0.55861 0.0
C2409 C 0.7362 0.75374 0.5577 0.0
C2410 C 0.74555 0.76369 0.5579 0.0
C2411 C 0.75869 0.76044 0.55766 0.0
C2412 C 0.74192 0.77736 0.5601 0.0
C2413 C 0.72195 0.75662 0.55832 0.0
C2414 C 0.7342 0.78418 0.55131 0.0
C2415 C 0.72994 0.79667 0.55424 0.0
C2416 C 0.73337 0.80255 0.566 0.0
C2417 C 0.74161 0.79586 0.57445 0.0
C2418 C 0.74583 0.78343 0.57153 0.0
H2419 H 0.71613 0.74784 0.56027 0.0
H2420 H 0.7199 0.76385 0.56595 0.0
H2421 H 0.71876 0.76072 0.54897 0.0
H2422 H 0.73126 0.77975 0.54233 0.0
H2423 H 0.72367 0.80155 0.54746 0.0
H2424 H 0.24311 0.70023 0.4141 0.0
H2425 H 0.25094 0.72186 0.41879 0.0
H2426 H 0.22959 0.7221 0.45445 0.0
H2427 H 0.22155 0.70035 0.44981 0.0
H2428 H 0.22543 0.74393 0.43923 0.0
H2429 H 0.27767 0.73477 0.44475 0.0
H2430 H 0.27129 0.72776 0.43027 0.0
H2431 H 0.26577 0.72207 0.44571 0.0
C2432 C 0.24016 0.70477 0.42304 0.0
C2433 C 0.23166 0.69851 0.43157 0.0
C2434 C 0.24475 0.71713 0.42574 0.0
C2435 C 0.241 0.72352 0.43705 0.0
C2436 C 0.23268 0.71728 0.44572 0.0
H2437 H 0.27564 0.80015 0.44916 0.0
H2438 H 0.26747 0.77852 0.45409 0.0
C2439 C 0.22812 0.70484 0.44305 0.0
C2440 C 0.24504 0.73708 0.43918 0.0
H2441 H 0.27157 0.75656 0.43932 0.0
C2442 C 0.23552 0.74669 0.4395 0.0
C2443 C 0.25818 0.74067 0.43974 0.0
C2444 C 0.26881 0.73076 0.44024 0.0
C2445 C 0.23881 0.75983 0.43951 0.0
C2446 C 0.25196 0.76341 0.439 0.0
C2447 C 0.26148 0.75381 0.43955 0.0
C2448 C 0.25603 0.77694 0.43671 0.0
C2449 C 0.22817 0.76974 0.43977 0.0
C2450 C 0.25231 0.78322 0.42533 0.0
C2451 C 0.25696 0.79552 0.42247 0.0
C2452 C 0.26552 0.80183 0.4309 0.0
C2453 C 0.26903 0.79561 0.44246 0.0
C2454 C 0.26439 0.78324 0.44529 0.0
H2455 H 0.21931 0.76582 0.44433 0.0
H2456 H 0.23119 0.77854 0.44508 0.0
H2457 H 0.22573 0.77254 0.42973 0.0
H2458 H 0.2461 0.77844 0.41843 0.0
H2459 H 0.25404 0.79996 0.41347 0.0
H2460 H 0.74395 0.69835 0.91728 0.0
H2461 H 0.75182 0.72003 0.92171 0.0
H2462 H 0.72764 0.72212 0.95546 0.0
H2463 H 0.71957 0.70033 0.95106 0.0
H2464 H 0.72486 0.74314 0.93888 0.0
H2465 H 0.77644 0.73422 0.94904 0.0
H2466 H 0.7712 0.72651 0.93446 0.0
H2467 H 0.76444 0.72161 0.94968 0.0
C2468 C 0.74041 0.7033 0.92577 0.0
C2469 C 0.73108 0.69757 0.93379 0.0
C2470 C 0.74501 0.71569 0.92834 0.0
C2471 C 0.74044 0.72263 0.939 0.0
C2472 C 0.73136 0.71687 0.94723 0.0
H2473 H 0.7741 0.7998 0.95052 0.0
H2474 H 0.76567 0.7783 0.95554 0.0
C2475 C 0.72679 0.70441 0.94471 0.0
C2476 C 0.74437 0.73628 0.94077 0.0
H2477 H 0.77089 0.75574 0.94212 0.0
C2478 C 0.7349 0.74591 0.93984 0.0
C2479 C 0.75745 0.73989 0.9422 0.0
C2480 C 0.76795 0.73001 0.94404 0.0
C2481 C 0.73824 0.75902 0.93947 0.0
C2482 C 0.75141 0.76258 0.93987 0.0
C2483 C 0.76081 0.753 0.94165 0.0
C2484 C 0.7557 0.77601 0.93736 0.0
C2485 C 0.72766 0.76894 0.93839 0.0
C2486 C 0.75291 0.78184 0.92548 0.0
C2487 C 0.75771 0.79407 0.92257 0.0
C2488 C 0.7655 0.80076 0.93145 0.0
C2489 C 0.76811 0.79497 0.94346 0.0
C2490 C 0.76332 0.78267 0.94635 0.0
H2491 H 0.71843 0.76523 0.94236 0.0
H2492 H 0.73025 0.77797 0.94352 0.0
H2493 H 0.72607 0.77127 0.92806 0.0
H2494 H 0.74729 0.77676 0.91828 0.0
H2495 H 0.7555 0.79816 0.91322 0.0
H2496 H 0.29846 0.55131 0.52767 0.0
H2497 H 0.29401 0.5295 0.51968 0.0
H2498 H 0.33163 0.52823 0.50204 0.0
H2499 H 0.33613 0.54992 0.50978 0.0
H2500 H 0.31164 0.51862 0.48621 0.0
H2501 H 0.31097 0.497 0.53538 0.0
H2502 H 0.30014 0.51022 0.53242 0.0
H2503 H 0.31722 0.51296 0.53235 0.0
C2504 C 0.30575 0.54644 0.522 0.0
C2505 C 0.31771 0.55237 0.51948 0.0
C2506 C 0.3032 0.53395 0.5175 0.0
C2507 C 0.31256 0.52719 0.51042 0.0
C2508 C 0.32428 0.53326 0.50752 0.0
H2509 H 0.33639 0.45139 0.49632 0.0
H2510 H 0.33105 0.47286 0.5042 0.0
C2511 C 0.32685 0.54568 0.512 0.0
C2512 C 0.31053 0.51364 0.50631 0.0
H2513 H 0.30957 0.4828 0.51783 0.0
C2514 C 0.31096 0.51078 0.49309 0.0
C2515 C 0.30973 0.50345 0.51535 0.0
C2516 C 0.30957 0.50597 0.52968 0.0
C2517 C 0.31116 0.49798 0.48867 0.0
C2518 C 0.31076 0.48778 0.49773 0.0
C2519 C 0.30979 0.49065 0.51092 0.0
C2520 C 0.31303 0.47421 0.49381 0.0
C2521 C 0.31256 0.49547 0.4744 0.0
C2522 C 0.30447 0.46767 0.48561 0.0
C2523 C 0.3075 0.45532 0.48103 0.0
C2524 C 0.31916 0.44933 0.48457 0.0
C2525 C 0.32739 0.45572 0.49327 0.0
C2526 C 0.32433 0.468 0.49784 0.0
H2527 H 0.31477 0.50441 0.46892 0.0
H2528 H 0.32034 0.48834 0.47259 0.0
H2529 H 0.30342 0.49141 0.47061 0.0
H2530 H 0.29558 0.47223 0.48254 0.0
H2531 H 0.30091 0.45067 0.4744 0.0
H2532 H 0.79811 0.44896 0.97441 0.0
H2533 H 0.79282 0.47036 0.98294 0.0
H2534 H 0.82873 0.47095 0.00387 0.0
H2535 H 0.83401 0.44962 0.99564 0.0
H2536 H 0.80781 0.48069 0.01805 0.0
H2537 H 0.8112 0.50273 0.96916 0.0
H2538 H 0.79988 0.48975 0.97115 0.0
H2539 H 0.81685 0.48661 0.97246 0.0
C2540 C 0.80481 0.45357 0.98096 0.0
C2541 C 0.81657 0.4476 0.9842 0.0
C2542 C 0.80179 0.46583 0.98576 0.0
C2543 C 0.81048 0.47232 0.99386 0.0
C2544 C 0.8219 0.46613 0.99759 0.0
H2545 H 0.83504 0.54726 0.00932 0.0
H2546 H 0.82967 0.52577 0.00161 0.0
C2547 C 0.82492 0.45392 0.99282 0.0
C2548 C 0.80826 0.48585 0.99796 0.0
H2549 H 0.80881 0.51678 0.98668 0.0
C2550 C 0.80778 0.4886 0.0112 0.0
C2551 C 0.80831 0.49612 0.98898 0.0
C2552 C 0.80917 0.49375 0.97464 0.0
C2553 C 0.80798 0.50136 0.01574 0.0
C2554 C 0.80851 0.51162 0.00676 0.0
C2555 C 0.80834 0.50888 0.99351 0.0
C2556 C 0.81101 0.52508 0.01089 0.0
C2557 C 0.80844 0.50375 0.03009 0.0
C2558 C 0.80217 0.53196 0.01849 0.0
C2559 C 0.80523 0.54434 0.02299 0.0
C2560 C 0.81719 0.55002 0.01995 0.0
C2561 C 0.82579 0.5432 0.01196 0.0
C2562 C 0.82272 0.5309 0.00748 0.0
H2563 H 0.80991 0.49471 0.03565 0.0
H2564 H 0.81633 0.51057 0.0325 0.0
H2565 H 0.79922 0.50815 0.03324 0.0
H2566 H 0.79299 0.52771 0.02107 0.0
H2567 H 0.79834 0.54932 0.02906 0.0
H2568 H 0.30133 0.54933 0.22239 0.0
H2569 H 0.27974 0.54399 0.23042 0.0
H2570 H 0.27744 0.58109 0.24903 0.0
H2571 H 0.29891 0.58646 0.24126 0.0
H2572 H 0.26845 0.56051 0.26437 0.0
H2573 H 0.24673 0.56033 0.21524 0.0
H2574 H 0.26023 0.54979 0.21794 0.0
H2575 H 0.26252 0.56694 0.21836 0.0
C2576 C 0.29628 0.55631 0.22829 0.0
C2577 C 0.30186 0.56838 0.23106 0.0
C2578 C 0.28391 0.55325 0.23281 0.0
C2579 C 0.27692 0.56222 0.24016 0.0
C2580 C 0.28265 0.57404 0.24333 0.0
H2581 H 0.20097 0.58441 0.25476 0.0
H2582 H 0.22241 0.57937 0.24667 0.0
C2583 C 0.29495 0.57711 0.23883 0.0
C2584 C 0.26345 0.5597 0.24426 0.0
H2585 H 0.23261 0.5583 0.23278 0.0
C2586 C 0.26061 0.55979 0.25749 0.0
C2587 C 0.25326 0.55885 0.23522 0.0
C2588 C 0.25574 0.55904 0.22088 0.0
C2589 C 0.24782 0.55964 0.26194 0.0
C2590 C 0.23761 0.55922 0.25289 0.0
C2591 C 0.24047 0.55854 0.23968 0.0
C2592 C 0.22402 0.56125 0.25686 0.0
C2593 C 0.24532 0.56074 0.27623 0.0
C2594 C 0.21762 0.55253 0.265 0.0
C2595 C 0.20527 0.5554 0.26971 0.0
C2596 C 0.19915 0.56705 0.26634 0.0
C2597 C 0.2054 0.57541 0.25767 0.0
C2598 C 0.21767 0.57253 0.25298 0.0
H2599 H 0.25423 0.56299 0.28174 0.0
H2600 H 0.23807 0.56837 0.2782 0.0
H2601 H 0.24141 0.55147 0.27987 0.0
H2602 H 0.22228 0.54366 0.26795 0.0
H2603 H 0.20074 0.5487 0.27632 0.0
H2604 H 0.16536 0.95062 0.50771 0.0
H2605 H 0.17032 0.97233 0.50027 0.0
H2606 H 0.20624 0.97151 0.52116 0.0
H2607 H 0.20133 0.94968 0.5288 0.0
H2608 H 0.19156 0.99356 0.52591 0.0
H2609 H 0.19614 0.98523 0.47345 0.0
H2610 H 0.18161 0.9784 0.47988 0.0
H2611 H 0.197 0.97231 0.48509 0.0
C2612 C 0.17441 0.95494 0.51063 0.0
C2613 C 0.18294 0.94836 0.51889 0.0
C2614 C 0.17727 0.96735 0.50628 0.0
C2615 C 0.18873 0.97347 0.51001 0.0
C2616 C 0.19738 0.96691 0.51809 0.0
H2617 H 0.20079 0.05022 0.47578 0.0
H2618 H 0.20598 0.02865 0.48392 0.0
C2619 C 0.19456 0.95443 0.52242 0.0
C2620 C 0.19106 0.98706 0.50618 0.0
H2621 H 0.19111 0.007 0.48 0.0
C2622 C 0.19172 0.99649 0.51587 0.0
C2623 C 0.19149 0.99088 0.4931 0.0
C2624 C 0.19166 0.98116 0.48228 0.0
C2625 C 0.1919 0.00968 0.5128 0.0
C2626 C 0.19122 0.01352 0.49973 0.0
C2627 C 0.19147 0.00407 0.49003 0.0
C2628 C 0.18898 0.02713 0.49592 0.0
C2629 C 0.19251 0.01939 0.52361 0.0
C2630 C 0.17776 0.03346 0.50002 0.0
C2631 C 0.17475 0.04574 0.49539 0.0
C2632 C 0.18287 0.05196 0.48646 0.0
C2633 C 0.19434 0.04575 0.48266 0.0
C2634 C 0.19731 0.03341 0.48729 0.0
H2635 H 0.19729 0.01527 0.53227 0.0
H2636 H 0.19779 0.02822 0.52063 0.0
H2637 H 0.18257 0.02219 0.5264 0.0
H2638 H 0.17104 0.02871 0.50645 0.0
H2639 H 0.16584 0.05018 0.49854 0.0
H2640 H 0.70207 0.55158 0.47651 0.0
H2641 H 0.70715 0.52989 0.48442 0.0
H2642 H 0.67037 0.52828 0.50373 0.0
H2643 H 0.66529 0.54988 0.49611 0.0
H2644 H 0.69073 0.51848 0.51856 0.0
H2645 H 0.68998 0.49757 0.46909 0.0
H2646 H 0.70099 0.51066 0.4719 0.0
H2647 H 0.68393 0.51352 0.47249 0.0
C2648 C 0.69512 0.54667 0.48255 0.0
C2649 C 0.6832 0.55247 0.48555 0.0
C2650 C 0.69801 0.53424 0.487 0.0
C2651 C 0.68905 0.5274 0.4945 0.0
C2652 C 0.67742 0.53337 0.49793 0.0
H2653 H 0.66511 0.45172 0.50751 0.0
H2654 H 0.67056 0.47332 0.50014 0.0
C2655 C 0.67451 0.54574 0.49351 0.0
C2656 C 0.69129 0.5138 0.49836 0.0
H2657 H 0.69185 0.48313 0.48637 0.0
C2658 C 0.69122 0.51074 0.51155 0.0
C2659 C 0.69184 0.50374 0.48916 0.0
C2660 C 0.69161 0.50644 0.47486 0.0
C2661 C 0.69106 0.49787 0.51578 0.0
C2662 C 0.69115 0.48781 0.50657 0.0
C2663 C 0.69185 0.49088 0.4934 0.0
C2664 C 0.68875 0.47421 0.5103 0.0
C2665 C 0.68999 0.49516 0.53004 0.0
C2666 C 0.69734 0.46738 0.51822 0.0
C2667 C 0.69423 0.45494 0.52252 0.0
C2668 C 0.68247 0.44915 0.51895 0.0
C2669 C 0.67419 0.45587 0.51056 0.0
C2670 C 0.67731 0.46824 0.50628 0.0
H2671 H 0.68804 0.50403 0.53572 0.0
H2672 H 0.68217 0.4881 0.53194 0.0
H2673 H 0.69916 0.49091 0.53353 0.0
H2674 H 0.70632 0.47174 0.52127 0.0
H2675 H 0.70087 0.45003 0.52891 0.0
H2676 H 0.70061 0.54772 0.77666 0.0
H2677 H 0.72226 0.54221 0.76889 0.0
H2678 H 0.72385 0.57802 0.74782 0.0
H2679 H 0.7023 0.58352 0.7553 0.0
H2680 H 0.73368 0.55704 0.73401 0.0
H2681 H 0.75453 0.56011 0.78342 0.0
H2682 H 0.74148 0.54895 0.78109 0.0
H2683 H 0.73856 0.56596 0.77973 0.0
C2684 C 0.7055 0.55436 0.77025 0.0
C2685 C 0.69974 0.56615 0.76674 0.0
C2686 C 0.71791 0.55121 0.76588 0.0
C2687 C 0.72474 0.55981 0.75796 0.0
C2688 C 0.71877 0.57126 0.75397 0.0
H2689 H 0.80014 0.58377 0.74411 0.0
H2690 H 0.77872 0.57825 0.75191 0.0
C2691 C 0.70643 0.57441 0.75831 0.0
C2692 C 0.73834 0.55741 0.75422 0.0
H2693 H 0.76899 0.55761 0.76626 0.0
C2694 C 0.74142 0.55691 0.74105 0.0
C2695 C 0.74839 0.55734 0.76345 0.0
C2696 C 0.74566 0.5582 0.77772 0.0
C2697 C 0.75429 0.557 0.73682 0.0
C2698 C 0.76434 0.5574 0.74605 0.0
C2699 C 0.76126 0.55724 0.75923 0.0
C2700 C 0.77792 0.55979 0.74223 0.0
C2701 C 0.757 0.55751 0.72253 0.0
C2702 C 0.78478 0.55106 0.73448 0.0
C2703 C 0.7971 0.55421 0.72992 0.0
C2704 C 0.80277 0.56615 0.73307 0.0
C2705 C 0.79608 0.57455 0.74137 0.0
C2706 C 0.78381 0.57139 0.74589 0.0
H2707 H 0.74812 0.55924 0.71679 0.0
H2708 H 0.76406 0.56525 0.72031 0.0
H2709 H 0.76122 0.54819 0.7194 0.0
H2710 H 0.78049 0.54195 0.73173 0.0
H2711 H 0.802 0.54747 0.72362 0.0
H2712 H 0.52469 0.29899 0.55089 0.0
H2713 H 0.51726 0.29387 0.52904 0.0
H2714 H 0.49517 0.32908 0.52825 0.0
H2715 H 0.50232 0.33419 0.55002 0.0
H2716 H 0.48217 0.308 0.51739 0.0
H2717 H 0.53185 0.3134 0.49773 0.0
H2718 H 0.52973 0.30173 0.51037 0.0
H2719 H 0.52761 0.31857 0.51379 0.0
C2720 C 0.51811 0.30556 0.54614 0.0
C2721 C 0.51424 0.3171 0.55219 0.0
C2722 C 0.51393 0.30265 0.53362 0.0
C2723 C 0.50585 0.31122 0.52695 0.0
C2724 C 0.50146 0.32237 0.53321 0.0
H2725 H 0.49305 0.33472 0.4506 0.0
H2726 H 0.50007 0.3301 0.47251 0.0
C2727 C 0.5056 0.32529 0.54567 0.0
C2728 C 0.50245 0.30914 0.5132 0.0
H2729 H 0.51516 0.31018 0.48283 0.0
C2730 C 0.48938 0.30826 0.50982 0.0
C2731 C 0.5119 0.3096 0.50336 0.0
C2732 C 0.52606 0.31097 0.50641 0.0
C2733 C 0.48545 0.30833 0.49685 0.0
C2734 C 0.49487 0.30913 0.48702 0.0
C2735 C 0.50797 0.30949 0.4904 0.0
C2736 C 0.4913 0.31119 0.47332 0.0
C2737 C 0.47122 0.30829 0.4938 0.0
C2738 C 0.48428 0.30195 0.46635 0.0
C2739 C 0.48019 0.30458 0.45374 0.0
C2740 C 0.48307 0.31649 0.44789 0.0
C2741 C 0.49055 0.32548 0.45477 0.0
C2742 C 0.49462 0.32284 0.46732 0.0
H2743 H 0.46521 0.30985 0.50254 0.0
H2744 H 0.46888 0.31591 0.48665 0.0
H2745 H 0.46854 0.29885 0.48956 0.0
H2746 H 0.4818 0.2928 0.47073 0.0
H2747 H 0.4745 0.2974 0.44872 0.0
H2748 H 0.5054 0.16506 0.95057 0.0
H2749 H 0.49773 0.17028 0.97212 0.0
H2750 H 0.51878 0.20611 0.97117 0.0
H2751 H 0.52668 0.20092 0.94951 0.0
H2752 H 0.52336 0.19193 0.99325 0.0
H2753 H 0.4709 0.19593 0.98487 0.0
H2754 H 0.47733 0.18128 0.97829 0.0
H2755 H 0.48252 0.19658 0.9719 0.0
C2756 C 0.5083 0.17414 0.95482 0.0
C2757 C 0.5167 0.18255 0.94826 0.0
C2758 C 0.50381 0.17716 0.96714 0.0
C2759 C 0.50752 0.18867 0.97319 0.0
C2760 C 0.51571 0.19722 0.96662 0.0
H2761 H 0.47328 0.20086 0.04995 0.0
H2762 H 0.48121 0.206 0.02829 0.0
C2763 C 0.5202 0.19423 0.95424 0.0
C2764 C 0.50365 0.19111 0.98675 0.0
H2765 H 0.47747 0.19097 0.00669 0.0
C2766 C 0.51332 0.19198 0.99618 0.0
C2767 C 0.49056 0.19141 0.99057 0.0
C2768 C 0.47974 0.19139 0.98085 0.0
C2769 C 0.51026 0.19222 0.00936 0.0
C2770 C 0.49719 0.19138 0.0132 0.0
C2771 C 0.4875 0.19144 0.00375 0.0
C2772 C 0.49343 0.18916 0.02683 0.0
C2773 C 0.52105 0.19308 0.01907 0.0
C2774 C 0.49772 0.17803 0.03322 0.0
C2775 C 0.49321 0.17505 0.04554 0.0
C2776 C 0.48423 0.1831 0.05176 0.0
C2777 C 0.48022 0.19446 0.04549 0.0
C2778 C 0.48472 0.19741 0.03309 0.0
H2779 H 0.52963 0.19797 0.0149 0.0
H2780 H 0.51799 0.19838 0.02785 0.0
H2781 H 0.524 0.1832 0.02193 0.0
H2782 H 0.50422 0.17137 0.02847 0.0
H2783 H 0.49652 0.16623 0.05004 0.0
H2784 H 0.52747 0.69955 0.44987 0.0
H2785 H 0.51915 0.70387 0.47158 0.0
H2786 H 0.49968 0.66715 0.4715 0.0
H2787 H 0.50781 0.66276 0.4499 0.0
H2788 H 0.48466 0.68826 0.48129 0.0
H2789 H 0.53327 0.68458 0.50386 0.0
H2790 H 0.53141 0.69579 0.49075 0.0
H2791 H 0.53006 0.6788 0.48776 0.0
C2792 C 0.52132 0.69244 0.45442 0.0
C2793 C 0.51842 0.68074 0.44815 0.0
C2794 C 0.51663 0.69491 0.46684 0.0
C2795 C 0.50893 0.68576 0.47319 0.0
C2796 C 0.50563 0.67432 0.46678 0.0
H2797 H 0.49168 0.66164 0.54843 0.0
H2798 H 0.49989 0.6664 0.52696 0.0
C2799 C 0.51034 0.67182 0.45442 0.0
C2800 C 0.50467 0.68766 0.4867 0.0
H2801 H 0.51557 0.6869 0.51776 0.0
C2802 C 0.4914 0.6882 0.48928 0.0
C2803 C 0.51352 0.68746 0.49707 0.0
C2804 C 0.52787 0.68655 0.49482 0.0
C2805 C 0.48671 0.68806 0.50199 0.0
C2806 C 0.49555 0.68748 0.51236 0.0
C2807 C 0.50884 0.68743 0.50978 0.0
C2808 C 0.4912 0.68532 0.52581 0.0
C2809 C 0.47233 0.6878 0.50421 0.0
C2810 C 0.4838 0.69452 0.53243 0.0
C2811 C 0.47904 0.69183 0.5448 0.0
C2812 C 0.4816 0.67988 0.55072 0.0
C2813 C 0.48941 0.67091 0.54418 0.0
C2814 C 0.49416 0.67362 0.53189 0.0
H2815 H 0.46686 0.6863 0.49512 0.0
H2816 H 0.46974 0.68002 0.5111 0.0
H2817 H 0.46924 0.69712 0.50847 0.0
H2818 H 0.48156 0.7037 0.52798 0.0
H2819 H 0.47311 0.69899 0.54956 0.0
H2820 H 0.47302 0.79784 0.95057 0.0
H2821 H 0.4809 0.79248 0.97221 0.0
H2822 H 0.49764 0.83038 0.97554 0.0
H2823 H 0.49002 0.83578 0.95401 0.0
H2824 H 0.51386 0.81043 0.98424 0.0
H2825 H 0.46462 0.80717 0.00545 0.0
H2826 H 0.46798 0.7971 0.99173 0.0
H2827 H 0.46754 0.8143 0.98984 0.0
C2828 C 0.47846 0.80501 0.95586 0.0
C2829 C 0.48078 0.8173 0.95054 0.0
C2830 C 0.4829 0.80194 0.96826 0.0
C2831 C 0.48969 0.8111 0.97555 0.0
C2832 C 0.49238 0.82318 0.9701 0.0
H2833 H 0.50278 0.83227 0.05197 0.0
H2834 H 0.49465 0.82696 0.03061 0.0
C2835 C 0.48797 0.82626 0.95776 0.0
C2836 C 0.49377 0.80846 0.98901 0.0
H2837 H 0.48212 0.80557 0.01969 0.0
C2838 C 0.50695 0.80913 0.99199 0.0
C2839 C 0.48471 0.80685 0.99908 0.0
C2840 C 0.47041 0.80638 0.99646 0.0
C2841 C 0.51129 0.80884 0.00482 0.0
C2842 C 0.5022 0.80764 0.01492 0.0
C2843 C 0.48906 0.80638 0.01191 0.0
C2844 C 0.50595 0.80955 0.0286 0.0
C2845 C 0.5255 0.81061 0.00747 0.0
C2846 C 0.51467 0.80124 0.03481 0.0
C2847 C 0.51941 0.80427 0.04711 0.0
C2848 C 0.51549 0.81567 0.05337 0.0
C2849 C 0.50614 0.82349 0.04741 0.0
C2850 C 0.50142 0.82045 0.03519 0.0
H2851 H 0.53093 0.81345 0.99869 0.0
H2852 H 0.52701 0.81809 0.01498 0.0
H2853 H 0.5296 0.80142 0.0111 0.0
H2854 H 0.51812 0.79265 0.02998 0.0
H2855 H 0.52655 0.798 0.05142 0.0
H2856 H 0.44914 0.97385 0.80134 0.0
H2857 H 0.47089 0.98162 0.79628 0.0
H2858 H 0.47155 0.00309 0.83187 0.0
H2859 H 0.44989 0.99559 0.83694 0.0
H2860 H 0.48194 0.01666 0.81072 0.0
H2861 H 0.50264 0.96732 0.81548 0.0
H2862 H 0.48982 0.96935 0.804 0.0
H2863 H 0.48657 0.97119 0.8209 0.0
C2864 C 0.45385 0.98035 0.80802 0.0
C2865 C 0.44779 0.98396 0.81963 0.0
C2866 C 0.46631 0.98473 0.80513 0.0
C2867 C 0.4729 0.99276 0.8138 0.0
C2868 C 0.46665 0.99685 0.82507 0.0
H2869 H 0.54865 0.00698 0.8377 0.0
H2870 H 0.52695 0.99953 0.83278 0.0
C2871 C 0.45426 0.9925 0.82797 0.0
C2872 C 0.48656 0.99646 0.81168 0.0
H2873 H 0.51718 0.98438 0.81257 0.0
C2874 C 0.48967 0.00961 0.8109 0.0
C2875 C 0.49659 0.98721 0.81202 0.0
C2876 C 0.49383 0.97297 0.81323 0.0
C2877 C 0.50254 0.01381 0.81098 0.0
C2878 C 0.51257 0.00458 0.81171 0.0
C2879 C 0.50947 0.99141 0.81193 0.0
C2880 C 0.52617 0.00842 0.81392 0.0
C2881 C 0.5053 0.0281 0.81106 0.0
C2882 C 0.53309 0.01566 0.80481 0.0
C2883 C 0.54558 0.02001 0.80761 0.0
C2884 C 0.55136 0.01716 0.81957 0.0
C2885 C 0.54453 0.00946 0.82843 0.0
C2886 C 0.5321 0.00515 0.82562 0.0
H2887 H 0.49643 0.03392 0.81255 0.0
H2888 H 0.51233 0.03053 0.81876 0.0
H2889 H 0.5096 0.03092 0.80167 0.0
H2890 H 0.52876 0.01812 0.79563 0.0
H2891 H 0.55056 0.02585 0.80053 0.0
H2892 H 0.55129 0.52521 0.3013 0.0
H2893 H 0.52984 0.51672 0.2961 0.0
H2894 H 0.52848 0.49747 0.33292 0.0
H2895 H 0.54982 0.50571 0.33815 0.0
H2896 H 0.51925 0.48234 0.3121 0.0
H2897 H 0.49703 0.53124 0.31353 0.0
H2898 H 0.51036 0.52895 0.30268 0.0
H2899 H 0.51297 0.52812 0.31977 0.0
C2900 C 0.54649 0.51906 0.30824 0.0
C2901 C 0.55226 0.51627 0.32021 0.0
C2902 C 0.5342 0.51427 0.30526 0.0
C2903 C 0.5275 0.50662 0.3142 0.0
C2904 C 0.53346 0.50339 0.32589 0.0
H2905 H 0.45161 0.49069 0.33661 0.0
H2906 H 0.47328 0.49854 0.33214 0.0
C2907 C 0.54568 0.50816 0.32888 0.0
C2908 C 0.51403 0.50242 0.31187 0.0
H2909 H 0.48306 0.51361 0.31122 0.0
C2910 C 0.51133 0.48916 0.31167 0.0
C2911 C 0.50374 0.51137 0.31141 0.0
C2912 C 0.50607 0.52572 0.31193 0.0
C2913 C 0.49857 0.48459 0.31155 0.0
C2914 C 0.48828 0.49354 0.31151 0.0
C2915 C 0.49099 0.50679 0.31117 0.0
C2916 C 0.47474 0.48939 0.31346 0.0
C2917 C 0.49619 0.47025 0.31222 0.0
C2918 C 0.46824 0.48184 0.30429 0.0
C2919 C 0.45576 0.4773 0.30682 0.0
C2920 C 0.4496 0.48022 0.31857 0.0
C2921 C 0.45605 0.48815 0.3275 0.0
C2922 C 0.46844 0.4927 0.32495 0.0
H2923 H 0.50519 0.46473 0.31405 0.0
H2924 H 0.48915 0.46799 0.31996 0.0
H2925 H 0.49205 0.46691 0.30294 0.0
H2926 H 0.47288 0.47932 0.29528 0.0
H2927 H 0.45108 0.47126 0.2997 0.0
H2928 H 0.55272 0.97627 0.20288 0.0
H2929 H 0.53112 0.98419 0.20836 0.0
H2930 H 0.52961 0.00505 0.17243 0.0
H2931 H 0.55111 0.99746 0.16697 0.0
H2932 H 0.5195 0.01894 0.19314 0.0
H2933 H 0.4991 0.96931 0.19049 0.0
H2934 H 0.51202 0.97186 0.20176 0.0
H2935 H 0.51509 0.97306 0.18477 0.0
C2936 C 0.54786 0.98269 0.19622 0.0
C2937 C 0.55363 0.98609 0.1844 0.0
C2938 C 0.53549 0.98714 0.19935 0.0
C2939 C 0.52867 0.99502 0.1907 0.0
C2940 C 0.53467 0.99894 0.17923 0.0
H2941 H 0.45315 0.0076 0.16635 0.0
H2942 H 0.47484 0.00054 0.17182 0.0
C2943 C 0.54699 0.99453 0.17611 0.0
C2944 C 0.51503 0.99868 0.19299 0.0
H2945 H 0.48449 0.98636 0.19279 0.0
C2946 C 0.51183 0.01183 0.19331 0.0
C2947 C 0.50506 0.98936 0.19312 0.0
C2948 C 0.50791 0.9751 0.19244 0.0
C2949 C 0.49892 0.01594 0.19311 0.0
C2950 C 0.48896 0.00662 0.19277 0.0
C2951 C 0.49216 0.99347 0.19311 0.0
C2952 C 0.47536 0.01026 0.19027 0.0
C2953 C 0.49606 0.03019 0.19243 0.0
C2954 C 0.4683 0.01785 0.19898 0.0
C2955 C 0.45581 0.02198 0.19586 0.0
C2956 C 0.45018 0.01855 0.18398 0.0
C2957 C 0.45716 0.01053 0.17554 0.0
C2958 C 0.46958 0.00643 0.17867 0.0
H2959 H 0.5049 0.03602 0.19078 0.0
H2960 H 0.48909 0.03225 0.18458 0.0
H2961 H 0.49166 0.03336 0.20166 0.0
H2962 H 0.47252 0.02075 0.20808 0.0
H2963 H 0.45071 0.02809 0.20262 0.0
H2964 H 0.54978 0.4938 0.66458 0.0
H2965 H 0.52819 0.50176 0.66922 0.0
H2966 H 0.52835 0.48162 0.70558 0.0
H2967 H 0.55005 0.47346 0.701 0.0
H2968 H 0.50638 0.4769 0.69076 0.0
H2969 H 0.51549 0.52933 0.6944 0.0
H2970 H 0.5223 0.52246 0.68005 0.0
H2971 H 0.52822 0.5175 0.6956 0.0
C2972 C 0.54534 0.49116 0.67365 0.0
C2973 C 0.5517 0.48295 0.6824 0.0
C2974 C 0.533 0.49581 0.67633 0.0
C2975 C 0.52672 0.49243 0.68782 0.0
C2976 C 0.53307 0.48442 0.6967 0.0
H2977 H 0.45018 0.52716 0.70028 0.0
H2978 H 0.47191 0.51915 0.70505 0.0
C2979 C 0.54549 0.47979 0.69406 0.0
C2980 C 0.51318 0.49652 0.68997 0.0
H2981 H 0.49363 0.523 0.68962 0.0
C2982 C 0.5036 0.48699 0.69075 0.0
C2983 C 0.50956 0.50967 0.69016 0.0
C2984 C 0.51945 0.52033 0.69014 0.0
C2985 C 0.49046 0.49026 0.69089 0.0
C2986 C 0.48683 0.50338 0.69005 0.0
C2987 C 0.49642 0.51293 0.69012 0.0
C2988 C 0.47325 0.50735 0.6879 0.0
C2989 C 0.48058 0.47961 0.69164 0.0
C2990 C 0.46681 0.50335 0.67671 0.0
C2991 C 0.45446 0.50792 0.67393 0.0
C2992 C 0.44826 0.51665 0.68227 0.0
C2993 C 0.45463 0.52042 0.69366 0.0
C2994 C 0.46705 0.51587 0.6964 0.0
H2995 H 0.48462 0.47087 0.69633 0.0
H2996 H 0.4719 0.48275 0.69708 0.0
H2997 H 0.47756 0.47692 0.68174 0.0
H2998 H 0.4715 0.49699 0.66988 0.0
H2999 H 0.44989 0.5048 0.66507 0.0
H3000 H 0.70068 0.91291 0.74537 0.0
H3001 H 0.72229 0.91765 0.75324 0.0
H3002 H 0.72302 0.95262 0.73078 0.0
H3003 H 0.70129 0.94794 0.72274 0.0
H3004 H 0.74479 0.93675 0.72731 0.0
H3005 H 0.73512 0.94467 0.77919 0.0
H3006 H 0.72795 0.93009 0.77321 0.0
H3007 H 0.72261 0.94541 0.76708 0.0
C3008 C 0.70533 0.9217 0.74219 0.0
C3009 C 0.69921 0.93003 0.73339 0.0
C3010 C 0.71767 0.92444 0.74679 0.0
C3011 C 0.7242 0.93557 0.74273 0.0
C3012 C 0.7181 0.94403 0.73411 0.0
H3013 H 0.80064 0.94943 0.77714 0.0
H3014 H 0.77902 0.9538 0.76862 0.0
C3015 C 0.70567 0.94134 0.72954 0.0
C3016 C 0.73774 0.93772 0.74682 0.0
H3017 H 0.75693 0.93908 0.77352 0.0
C3018 C 0.74745 0.9375 0.7374 0.0
C3019 C 0.74119 0.93888 0.75996 0.0
C3020 C 0.73116 0.93991 0.77044 0.0
C3021 C 0.76055 0.9376 0.74083 0.0
C3022 C 0.76399 0.93776 0.75403 0.0
C3023 C 0.75429 0.93881 0.76341 0.0
C3024 C 0.77747 0.93571 0.75835 0.0
C3025 C 0.77058 0.93725 0.73031 0.0
C3026 C 0.78375 0.9241 0.75541 0.0
C3027 C 0.79604 0.92155 0.76028 0.0
C3028 C 0.80233 0.93054 0.76826 0.0
C3029 C 0.79611 0.9423 0.77099 0.0
C3030 C 0.78375 0.94482 0.76615 0.0
H3031 H 0.76675 0.94122 0.72113 0.0
H3032 H 0.77931 0.94278 0.73309 0.0
H3033 H 0.77345 0.92709 0.72854 0.0
H3034 H 0.77899 0.91682 0.74963 0.0
H3035 H 0.80049 0.91239 0.75796 0.0
H3036 H 0.80022 0.45025 0.27775 0.0
H3037 H 0.77862 0.45516 0.26948 0.0
H3038 H 0.77916 0.42011 0.24713 0.0
H3039 H 0.80067 0.41519 0.25515 0.0
H3040 H 0.76851 0.44154 0.23391 0.0
H3041 H 0.74711 0.4346 0.28269 0.0
H3042 H 0.75973 0.44641 0.28126 0.0
H3043 H 0.76335 0.42965 0.27891 0.0
C3044 C 0.79583 0.44368 0.27092 0.0
C3045 C 0.80214 0.43223 0.26725 0.0
C3046 C 0.78345 0.44648 0.26627 0.0
C3047 C 0.77722 0.43789 0.25786 0.0
C3048 C 0.78377 0.42684 0.25365 0.0
H3049 H 0.70204 0.41296 0.24165 0.0
H3050 H 0.72365 0.41786 0.2494 0.0
C3051 C 0.79608 0.42403 0.2583 0.0
C3052 C 0.76358 0.43979 0.25398 0.0
H3053 H 0.7328 0.43769 0.26549 0.0
C3054 C 0.76068 0.44093 0.24081 0.0
C3055 C 0.75341 0.43886 0.26303 0.0
C3056 C 0.75597 0.43723 0.27726 0.0
C3057 C 0.74787 0.44066 0.23638 0.0
C3058 C 0.73772 0.43937 0.24541 0.0
C3059 C 0.74061 0.43876 0.25862 0.0
C3060 C 0.72423 0.43706 0.24127 0.0
C3061 C 0.74535 0.44103 0.22206 0.0
C3062 C 0.71724 0.44635 0.23433 0.0
C3063 C 0.7048 0.44357 0.22983 0.0
C3064 C 0.69915 0.43145 0.23221 0.0
C3065 C 0.70607 0.42237 0.23955 0.0
C3066 C 0.71844 0.42515 0.24403 0.0
H3067 H 0.75434 0.43993 0.21634 0.0
H3068 H 0.73853 0.43327 0.21924 0.0
H3069 H 0.7409 0.45041 0.21949 0.0
H3070 H 0.72145 0.45568 0.23228 0.0
H3071 H 0.69975 0.45082 0.22427 0.0
H3072 H 0.00851 0.2839 0.09609 0.0
H3073 H 0.00331 0.26369 0.10682 0.0
H3074 H 0.04366 0.25365 0.10791 0.0
H3075 H 0.04897 0.2741 0.09699 0.0
H3076 H 0.00935 0.23653 0.10174 0.0
H3077 H 0.03153 0.25635 0.14656 0.0
H3078 H 0.02784 0.26679 0.13315 0.0
H3079 H 0.04081 0.25542 0.13191 0.0
C3080 C 0.01627 0.27728 0.09834 0.0
C3081 C 0.02914 0.28059 0.09582 0.0
C3082 C 0.01329 0.26571 0.10444 0.0
C3083 C 0.02311 0.25725 0.10827 0.0
C3084 C 0.03596 0.26011 0.10508 0.0
H3085 H 0.97765 0.20072 0.15272 0.0
H3086 H 0.99786 0.20655 0.14168 0.0
C3087 C 0.03896 0.27172 0.09879 0.0
C3088 C 0.01958 0.24638 0.11683 0.0
H3089 H 0.01546 0.24066 0.14897 0.0
C3090 C 0.01107 0.23702 0.11204 0.0
C3091 C 0.02187 0.24709 0.13026 0.0
C3092 C 0.03099 0.25693 0.13588 0.0
C3093 C 0.0037 0.22934 0.12041 0.0
C3094 C 0.00497 0.23107 0.13389 0.0
C3095 C 0.01454 0.23938 0.13863 0.0
C3096 C 0.99448 0.22712 0.14274 0.0
C3097 C 0.99361 0.22048 0.1148 0.0
C3098 C 0.98626 0.23674 0.14749 0.0
C3099 C 0.97482 0.23347 0.15369 0.0
C3100 C 0.9714 0.22049 0.15537 0.0
C3101 C 0.9801 0.21081 0.15157 0.0
C3102 C 0.99158 0.21411 0.1452 0.0
H3103 H 0.99361 0.22057 0.10409 0.0
H3104 H 0.99539 0.21046 0.1181 0.0
H3105 H 0.98389 0.22338 0.11823 0.0
H3106 H 0.98831 0.24684 0.14569 0.0
H3107 H 0.96832 0.24112 0.15659 0.0
H3108 H 0.96909 0.25952 0.34486 0.0
H3109 H 0.98939 0.25434 0.35541 0.0
H3110 H 0.99802 0.29486 0.35912 0.0
H3111 H 0.97748 0.30015 0.34839 0.0
H3112 H 0.01637 0.26127 0.35152 0.0
H3113 H 0.99485 0.28068 0.39686 0.0
H3114 H 0.98488 0.2776 0.38294 0.0
H3115 H 0.99606 0.2908 0.38278 0.0
C3116 C 0.97545 0.26734 0.34762 0.0
C3117 C 0.97169 0.28022 0.34592 0.0
C3118 C 0.98707 0.26437 0.35361 0.0
C3119 C 0.99514 0.27421 0.35818 0.0
C3120 C 0.99188 0.28713 0.35573 0.0
H3121 H 0.05095 0.2277 0.40271 0.0
H3122 H 0.04527 0.24822 0.3921 0.0
C3123 C 0.98021 0.29013 0.34954 0.0
C3124 C 0.0059 0.27052 0.36683 0.0
H3125 H 0.01078 0.26485 0.39886 0.0
C3126 C 0.01557 0.26245 0.36188 0.0
C3127 C 0.00478 0.27212 0.38033 0.0
C3128 C 0.9946 0.28074 0.38614 0.0
C3129 C 0.02315 0.2548 0.37009 0.0
C3130 C 0.02099 0.25532 0.38355 0.0
C3131 C 0.01239 0.26449 0.38853 0.0
C3132 C 0.02476 0.24439 0.39194 0.0
C3133 C 0.03237 0.24518 0.36425 0.0
C3134 C 0.01509 0.23576 0.39579 0.0
C3135 C 0.01828 0.22416 0.40171 0.0
C3136 C 0.03122 0.22096 0.40404 0.0
C3137 C 0.0409 0.22998 0.40106 0.0
C3138 C 0.03768 0.24164 0.39495 0.0
H3139 H 0.03279 0.24591 0.35357 0.0
H3140 H 0.0422 0.2468 0.36815 0.0
H3141 H 0.02941 0.23523 0.36689 0.0
H3142 H 0.00507 0.23769 0.39355 0.0
H3143 H 0.01063 0.21742 0.40398 0.0
H3144 H 0.99183 0.21742 0.59452 0.0
H3145 H 0.99762 0.23736 0.60547 0.0
H3146 H 0.95753 0.24823 0.60733 0.0
H3147 H 0.95161 0.22808 0.59622 0.0
H3148 H 0.99222 0.26471 0.60116 0.0
H3149 H 0.96992 0.2444 0.64571 0.0
H3150 H 0.97319 0.23423 0.63197 0.0
H3151 H 0.96047 0.24592 0.63121 0.0
C3152 C 0.98425 0.22418 0.59698 0.0
C3153 C 0.97127 0.22117 0.59464 0.0
C3154 C 0.98758 0.2356 0.6032 0.0
C3155 C 0.978 0.24419 0.60734 0.0
C3156 C 0.96505 0.24166 0.60428 0.0
H3157 H 0.0242 0.29943 0.65278 0.0
H3158 H 0.00396 0.29394 0.64161 0.0
C3159 C 0.9617 0.23021 0.59788 0.0
C3160 C 0.98184 0.25479 0.61611 0.0
H3161 H 0.98606 0.25993 0.64833 0.0
C3162 C 0.99051 0.26408 0.61146 0.0
C3163 C 0.97956 0.25388 0.62953 0.0
C3164 C 0.9703 0.24409 0.63501 0.0
C3165 C 0.99799 0.27152 0.61994 0.0
C3166 C 0.99668 0.26961 0.63339 0.0
C3167 C 0.98701 0.26136 0.63801 0.0
C3168 C 0.00719 0.27333 0.64231 0.0
C3169 C 0.0082 0.28032 0.61447 0.0
C3170 C 0.01533 0.26356 0.64691 0.0
C3171 C 0.02679 0.26665 0.65316 0.0
C3172 C 0.0303 0.27957 0.65509 0.0
C3173 C 0.02167 0.28938 0.65145 0.0
C3174 C 0.01017 0.28627 0.64501 0.0
H3175 H 0.0082 0.2804 0.60376 0.0
H3176 H 0.00656 0.29031 0.61792 0.0
H3177 H 0.01788 0.27724 0.61786 0.0
H3178 H 0.01322 0.25352 0.64492 0.0
H3179 H 0.03324 0.2589 0.65593 0.0
H3180 H 0.94957 0.27448 0.89984 0.0
H3181 H 0.95525 0.25425 0.88878 0.0
H3182 H 0.99544 0.26124 0.89689 0.0
H3183 H 0.98986 0.28135 0.90766 0.0
H3184 H 0.97124 0.25525 0.86681 0.0
H3185 H 0.9922 0.22228 0.90283 0.0
H3186 H 0.98113 0.23505 0.90714 0.0
H3187 H 0.99806 0.23839 0.90512 0.0
C3188 C 0.95955 0.2714 0.89965 0.0
C3189 C 0.9693 0.27942 0.90457 0.0
C3190 C 0.96278 0.2599 0.8933 0.0
C3191 C 0.97575 0.25616 0.89214 0.0
C3192 C 0.98535 0.26377 0.8979 0.0
H3193 H 0.03143 0.24126 0.84289 0.0
H3194 H 0.01114 0.2473 0.85304 0.0
C3195 C 0.98217 0.27531 0.90398 0.0
C3196 C 0.97976 0.24575 0.88322 0.0
H3197 H 0.00215 0.22178 0.88131 0.0
C3198 C 0.97762 0.24759 0.86998 0.0
C3199 C 0.9879 0.23562 0.88732 0.0
C3200 C 0.98984 0.23263 0.90141 0.0
C3201 C 0.98468 0.24064 0.86076 0.0
C3202 C 0.99412 0.23174 0.86493 0.0
C3203 C 0.99504 0.22875 0.8781 0.0
C3204 C 0.00482 0.22768 0.85638 0.0
C3205 C 0.98265 0.24356 0.84666 0.0
C3206 C 0.00795 0.21461 0.85466 0.0
C3207 C 0.01957 0.21112 0.84869 0.0
C3208 C 0.02831 0.22068 0.8447 0.0
C3209 C 0.02484 0.2337 0.84585 0.0
C3210 C 0.0132 0.23717 0.85158 0.0
H3211 H 0.97253 0.24653 0.84479 0.0
H3212 H 0.98901 0.25168 0.8438 0.0
H3213 H 0.985 0.23509 0.84055 0.0
H3214 H 0.00169 0.20716 0.85845 0.0
H3215 H 0.02212 0.20101 0.84803 0.0
H3216 H 0.04958 0.72721 0.90232 0.0
H3217 H 0.04324 0.74763 0.89199 0.0
H3218 H 0.00319 0.73775 0.89729 0.0
H3219 H 0.00943 0.71746 0.90733 0.0
H3220 H 0.02838 0.74714 0.86905 0.0
H3221 H 0.00388 0.77638 0.9061 0.0
H3222 H 0.01548 0.76398 0.9101 0.0
H3223 H 0.99891 0.75983 0.90695 0.0
C3224 C 0.03944 0.72965 0.90165 0.0
C3225 C 0.02997 0.72079 0.90558 0.0
C3226 C 0.03584 0.74127 0.89573 0.0
C3227 C 0.02275 0.74428 0.89401 0.0
C3228 C 0.01334 0.73577 0.89874 0.0
H3229 H 0.96867 0.76041 0.84316 0.0
H3230 H 0.98864 0.75437 0.85396 0.0
C3231 C 0.01691 0.72413 0.90441 0.0
C3232 C 0.01859 0.75504 0.8856 0.0
H3233 H 0.99517 0.77806 0.88416 0.0
C3234 C 0.02147 0.75425 0.87239 0.0
C3235 C 0.00975 0.76446 0.88994 0.0
C3236 C 0.00693 0.76631 0.90408 0.0
C3237 C 0.01456 0.76152 0.86331 0.0
C3238 C 0.00452 0.76969 0.86758 0.0
C3239 C 0.00277 0.77166 0.88086 0.0
C3240 C 0.99412 0.77394 0.85876 0.0
C3241 C 0.01741 0.75972 0.84918 0.0
C3242 C 0.99066 0.78699 0.85765 0.0
C3243 C 0.97925 0.79049 0.85128 0.0
C3244 C 0.97104 0.78092 0.8463 0.0
C3245 C 0.97486 0.76796 0.84689 0.0
C3246 C 0.98631 0.76451 0.85299 0.0
H3247 H 0.0277 0.75717 0.84763 0.0
H3248 H 0.01145 0.75167 0.84539 0.0
H3249 H 0.01512 0.76856 0.84358 0.0
H3250 H 0.99647 0.79439 0.86218 0.0
H3251 H 0.9764 0.80054 0.85108 0.0
H3252 H 0.53366 0.26064 0.15269 0.0
H3253 H 0.51365 0.25462 0.142 0.0
H3254 H 0.50207 0.29455 0.14072 0.0
H3255 H 0.52231 0.3007 0.15162 0.0
H3256 H 0.48611 0.26008 0.14755 0.0
H3257 H 0.50498 0.28163 0.10201 0.0
H3258 H 0.51572 0.27824 0.11528 0.0
H3259 H 0.50424 0.2911 0.11657 0.0
C3260 C 0.52675 0.26814 0.15039 0.0
C3261 C 0.52955 0.28114 0.15288 0.0
C3262 C 0.5153 0.26468 0.14432 0.0
C3263 C 0.50645 0.27414 0.14048 0.0
C3264 C 0.50883 0.28712 0.14357 0.0
H3265 H 0.44997 0.22727 0.09715 0.0
H3266 H 0.45585 0.24767 0.10786 0.0
C3267 C 0.52032 0.2906 0.14984 0.0
C3268 C 0.4956 0.27013 0.1321 0.0
H3269 H 0.48967 0.2651 0.10014 0.0
C3270 C 0.48646 0.26156 0.1372 0.0
C3271 C 0.49615 0.27209 0.11862 0.0
C3272 C 0.50577 0.28125 0.11269 0.0
C3273 C 0.47881 0.25388 0.12909 0.0
C3274 C 0.48036 0.25486 0.11558 0.0
C3275 C 0.48849 0.26441 0.11051 0.0
C3276 C 0.4764 0.24413 0.10702 0.0
C3277 C 0.47016 0.24379 0.13502 0.0
C3278 C 0.486 0.23572 0.10256 0.0
C3279 C 0.4827 0.22417 0.09659 0.0
C3280 C 0.46971 0.22083 0.09481 0.0
C3281 C 0.46006 0.22967 0.09836 0.0
C3282 C 0.4634 0.24126 0.10453 0.0
H3283 H 0.47024 0.24414 0.14573 0.0
H3284 H 0.4601 0.24525 0.13166 0.0
H3285 H 0.47326 0.23403 0.1319 0.0
H3286 H 0.49609 0.23774 0.1044 0.0
H3287 H 0.49032 0.21756 0.09389 0.0
H3288 H 0.95151 0.77696 0.39141 0.0
H3289 H 0.96121 0.75844 0.38052 0.0
H3290 H 0.99019 0.75619 0.41032 0.0
H3291 H 0.98088 0.77522 0.42073 0.0
H3292 H 0.00093 0.75981 0.38854 0.0
H3293 H 0.96598 0.72036 0.38127 0.0
H3294 H 0.95936 0.73543 0.37603 0.0
H3295 H 0.96329 0.73313 0.3928 0.0
C3296 C 0.95958 0.77209 0.39592 0.0
C3297 C 0.96542 0.77734 0.40692 0.0
C3298 C 0.96512 0.76146 0.38971 0.0
C3299 C 0.97643 0.75582 0.39459 0.0
C3300 C 0.98147 0.76035 0.40636 0.0
H3301 H 0.02764 0.70128 0.35603 0.0
H3302 H 0.00944 0.7094 0.36883 0.0
C3303 C 0.97612 0.77115 0.41236 0.0
C3304 C 0.98445 0.74734 0.38624 0.0
H3305 H 0.98374 0.72131 0.36595 0.0
C3306 C 0.99717 0.75126 0.38383 0.0
C3307 C 0.97964 0.73617 0.38001 0.0
C3308 C 0.96635 0.73096 0.38278 0.0
C3309 C 0.00508 0.74462 0.37516 0.0
C3310 C 1.00002 0.73398 0.36829 0.0
C3311 C 0.98748 0.72967 0.371 0.0
C3312 C 0.00792 0.72739 0.35838 0.0
C3313 C 0.01882 0.74915 0.37342 0.0
C3314 C 0.01248 0.73445 0.34776 0.0
C3315 C 0.02297 0.72994 0.34064 0.0
C3316 C 0.02873 0.71812 0.34376 0.0
C3317 C 0.02317 0.71033 0.35333 0.0
C3318 C 0.01282 0.71498 0.36067 0.0
H3319 H 0.02215 0.75502 0.38175 0.0
H3320 H 0.0255 0.74086 0.37223 0.0
H3321 H 0.01944 0.75525 0.36466 0.0
H3322 H 0.00871 0.74398 0.34574 0.0
H3323 H 0.02721 0.73614 0.33337 0.0
H3324 H 0.55002 0.27445 0.59905 0.0
H3325 H 0.54477 0.25406 0.61006 0.0
H3326 H 0.50427 0.26143 0.6041 0.0
H3327 H 0.50943 0.28167 0.59338 0.0
H3328 H 0.52983 0.25438 0.63283 0.0
H3329 H 0.50703 0.22268 0.5968 0.0
H3330 H 0.51794 0.23555 0.59238 0.0
H3331 H 0.50113 0.23887 0.5953 0.0
C3332 C 0.54004 0.27144 0.59972 0.0
C3333 C 0.53011 0.27958 0.59539 0.0
C3334 C 0.53706 0.25985 0.60604 0.0
C3335 C 0.52413 0.25615 0.60776 0.0
C3336 C 0.51431 0.26392 0.60265 0.0
H3337 H 0.47069 0.24021 0.65895 0.0
H3338 H 0.4907 0.24631 0.6483 0.0
C3339 C 0.51726 0.27554 0.59659 0.0
C3340 C 0.52049 0.24547 0.61654 0.0
H3341 H 0.49803 0.22159 0.61872 0.0
C3342 C 0.52325 0.24687 0.62972 0.0
C3343 C 0.5121 0.23552 0.61251 0.0
C3344 C 0.5095 0.23298 0.59844 0.0
C3345 C 0.51658 0.23966 0.63904 0.0
C3346 C 0.50688 0.23097 0.63503 0.0
C3347 C 0.50534 0.22839 0.62183 0.0
C3348 C 0.49651 0.22674 0.64392 0.0
C3349 C 0.5193 0.24209 0.6531 0.0
C3350 C 0.4932 0.21366 0.64524 0.0
C3351 C 0.48174 0.21013 0.65151 0.0
C3352 C 0.47334 0.21968 0.6562 0.0
C3353 C 0.47703 0.23267 0.65546 0.0
C3354 C 0.48852 0.23615 0.64944 0.0
H3355 H 0.52955 0.24483 0.65459 0.0
H3356 H 0.51324 0.25023 0.65651 0.0
H3357 H 0.51709 0.23347 0.65906 0.0
H3358 H 0.49915 0.20626 0.6409 0.0
H3359 H 0.479 0.20006 0.65183 0.0
H3360 H 0.09573 0.00905 0.28331 0.0
H3361 H 0.10689 0.00368 0.26336 0.0
H3362 H 0.11001 0.04408 0.25399 0.0
H3363 H 0.09868 0.04957 0.27415 0.0
H3364 H 0.10326 0.01019 0.23614 0.0
H3365 H 0.14796 0.03051 0.25811 0.0
H3366 H 0.13394 0.02724 0.26788 0.0
H3367 H 0.13376 0.0404 0.25666 0.0
C3368 C 0.09851 0.0168 0.27687 0.0
C3369 C 0.09646 0.02972 0.2803 0.0
C3370 C 0.10485 0.01372 0.26545 0.0
C3371 C 0.1094 0.02349 0.25728 0.0
C3372 C 0.10663 0.03642 0.26022 0.0
H3373 H 0.1546 0.97803 0.20124 0.0
H3374 H 0.14386 0.99836 0.20725 0.0
C3375 C 0.10011 0.03953 0.27167 0.0
C3376 C 0.11827 0.01978 0.24672 0.0
H3377 H 0.15046 0.01488 0.24204 0.0
C3378 C 0.11358 0.01159 0.23703 0.0
C3379 C 0.13172 0.02167 0.24796 0.0
C3380 C 0.13725 0.03041 0.2582 0.0
C3381 C 0.12201 0.00415 0.22949 0.0
C3382 C 0.13545 0.00503 0.23169 0.0
C3383 C 0.14015 0.01426 0.24038 0.0
C3384 C 0.14417 0.99442 0.22775 0.0
C3385 C 0.11645 0.99442 0.22021 0.0
C3386 C 0.14842 0.98585 0.2373 0.0
C3387 C 0.15444 0.97434 0.23392 0.0
C3388 C 0.15646 0.97122 0.22091 0.0
C3389 C 0.15318 0.98026 0.21135 0.0
C3390 C 0.14698 0.99181 0.21475 0.0
H3391 H 0.10574 0.99468 0.21997 0.0
H3392 H 0.1201 0.99636 0.21035 0.0
H3393 H 0.11955 0.98454 0.22297 0.0
H3394 H 0.14634 0.98767 0.24738 0.0
H3395 H 0.15694 0.96758 0.24148 0.0
H3396 H 0.24277 0.3448 0.53315 0.0
H3397 H 0.24898 0.35549 0.51319 0.0
H3398 H 0.20907 0.35764 0.50169 0.0
H3399 H 0.20274 0.3468 0.52186 0.0
H3400 H 0.24404 0.35117 0.4858 0.0
H3401 H 0.22162 0.39591 0.50557 0.0
H3402 H 0.22461 0.38215 0.5158 0.0
H3403 H 0.21207 0.3815 0.50392 0.0
C3404 C 0.23532 0.34725 0.52624 0.0
C3405 C 0.22227 0.34508 0.52909 0.0
C3406 C 0.23888 0.35333 0.51481 0.0
C3407 C 0.22947 0.3575 0.50605 0.0
C3408 C 0.21646 0.35457 0.5084 0.0
H3409 H 0.27555 0.40295 0.45046 0.0
H3410 H 0.25551 0.39151 0.45618 0.0
C3411 C 0.21287 0.34831 0.51986 0.0
C3412 C 0.23355 0.3662 0.49547 0.0
H3413 H 0.23778 0.39838 0.49005 0.0
C3414 C 0.24232 0.36147 0.48632 0.0
C3415 C 0.23126 0.37963 0.49624 0.0
C3416 C 0.22191 0.3852 0.5059 0.0
C3417 C 0.24984 0.3699 0.47885 0.0
C3418 C 0.24848 0.38336 0.48059 0.0
C3419 C 0.23876 0.38805 0.48874 0.0
C3420 C 0.25894 0.39229 0.47675 0.0
C3421 C 0.26013 0.36437 0.47017 0.0
C3422 C 0.26714 0.39697 0.48642 0.0
C3423 C 0.27849 0.40337 0.48321 0.0
C3424 C 0.28182 0.40536 0.47025 0.0
C3425 C 0.27314 0.40158 0.46053 0.0
C3426 C 0.26177 0.39499 0.46377 0.0
H3427 H 0.26013 0.35366 0.47017 0.0
H3428 H 0.25857 0.36776 0.46014 0.0
H3429 H 0.26978 0.36779 0.47331 0.0
H3430 H 0.26515 0.39498 0.49649 0.0
H3431 H 0.28498 0.40623 0.49088 0.0
H3432 H 0.84993 0.52298 0.69913 0.0
H3433 H 0.8607 0.50274 0.70543 0.0
H3434 H 0.85522 0.51243 0.7455 0.0
H3435 H 0.84477 0.53253 0.73931 0.0
H3436 H 0.88371 0.50344 0.72074 0.0
H3437 H 0.84646 0.47365 0.7443 0.0
H3438 H 0.8426 0.48601 0.73261 0.0
H3439 H 0.84535 0.49019 0.74924 0.0
C3440 C 0.8507 0.52054 0.70925 0.0
C3441 C 0.84656 0.52927 0.71876 0.0
C3442 C 0.85686 0.50903 0.71283 0.0
C3443 C 0.85861 0.50601 0.72593 0.0
C3444 C 0.85375 0.51442 0.73535 0.0
H3445 H 0.90839 0.48995 0.7809 0.0
H3446 H 0.89807 0.49601 0.76068 0.0
C3447 C 0.84785 0.52595 0.7318 0.0
C3448 C 0.86705 0.49527 0.7301 0.0
H3449 H 0.86823 0.47206 0.75334 0.0
C3450 C 0.8803 0.49623 0.72751 0.0
C3451 C 0.86262 0.48573 0.73877 0.0
C3452 C 0.84845 0.48374 0.74129 0.0
C3453 C 0.88931 0.48898 0.73455 0.0
C3454 C 0.88492 0.48068 0.74442 0.0
C3455 C 0.87163 0.47855 0.74587 0.0
C3456 C 0.89355 0.47644 0.75499 0.0
C3457 C 0.90348 0.49096 0.73201 0.0
C3458 C 0.89467 0.46337 0.75843 0.0
C3459 C 0.90077 0.45987 0.76999 0.0
C3460 C 0.90546 0.46943 0.77836 0.0
C3461 C 0.90488 0.4824 0.77458 0.0
C3462 C 0.89905 0.48586 0.76298 0.0
H3463 H 0.90521 0.49358 0.72177 0.0
H3464 H 0.90705 0.49901 0.73809 0.0
H3465 H 0.90912 0.48216 0.73437 0.0
H3466 H 0.89033 0.45597 0.75247 0.0
H3467 H 0.90096 0.44981 0.7728 0.0
H3468 H 0.80077 0.1514 0.02326 0.0
H3469 H 0.79448 0.14044 0.00314 0.0
H3470 H 0.75448 0.14802 0.01166 0.0
H3471 H 0.76067 0.15868 0.03165 0.0
H3472 H 0.77864 0.11826 0.00423 0.0
H3473 H 0.75635 0.15485 0.97276 0.0
H3474 H 0.76781 0.15896 0.98525 0.0
H3475 H 0.75102 0.15672 0.98911 0.0
C3476 C 0.79069 0.1511 0.02055 0.0
C3477 C 0.78118 0.15586 0.02895 0.0
C3478 C 0.78711 0.14481 0.00911 0.0
C3479 C 0.77402 0.14356 0.00582 0.0
C3480 C 0.76464 0.14911 0.01384 0.0
H3481 H 0.71824 0.09398 0.99111 0.0
H3482 H 0.73849 0.10433 0.99699 0.0
C3483 C 0.76817 0.15513 0.0253 0.0
C3484 C 0.76972 0.13481 0.99537 0.0
H3485 H 0.74662 0.13326 0.97204 0.0
C3486 C 0.772 0.12155 0.99685 0.0
C3487 C 0.76123 0.13907 0.98559 0.0
C3488 C 0.75907 0.15321 0.98299 0.0
C3489 C 0.76481 0.11243 0.98989 0.0
C3490 C 0.75509 0.11672 0.98136 0.0
C3491 C 0.75396 0.12995 0.97872 0.0
C3492 C 0.74439 0.10814 0.97732 0.0
C3493 C 0.76704 0.09829 0.99241 0.0
C3494 C 0.74105 0.10663 0.96428 0.0
C3495 C 0.72946 0.10054 0.96088 0.0
C3496 C 0.72096 0.09622 0.97052 0.0
C3497 C 0.72465 0.09719 0.9835 0.0
C3498 C 0.73626 0.10304 0.98686 0.0
H3499 H 0.77723 0.09644 0.99515 0.0
H3500 H 0.76086 0.09516 0.00057 0.0
H3501 H 0.76459 0.09237 0.98383 0.0
H3502 H 0.74711 0.11065 0.95679 0.0
H3503 H 0.72674 0.10003 0.95081 0.0
H3504 H 0.1559 0.03347 0.75897 0.0
H3505 H 0.14523 0.01328 0.75357 0.0
H3506 H 0.14261 0.00365 0.79395 0.0
H3507 H 0.15345 0.02407 0.79946 0.0
H3508 H 0.14947 0.98611 0.75987 0.0
H3509 H 0.10449 0.00703 0.78072 0.0
H3510 H 0.11828 0.01712 0.77745 0.0
H3511 H 0.11881 0.00576 0.79047 0.0
C3512 C 0.15334 0.02693 0.7667 0.0
C3513 C 0.15538 0.03037 0.77962 0.0
C3514 C 0.14729 0.01536 0.76361 0.0
C3515 C 0.143 0.00704 0.77336 0.0
C3516 C 0.14578 0.01 0.78629 0.0
H3517 H 0.0976 0.95124 0.72762 0.0
H3518 H 0.10869 0.95697 0.74787 0.0
C3519 C 0.15203 0.0216 0.78941 0.0
C3520 C 0.13432 0.99632 0.76966 0.0
H3521 H 0.10219 0.99124 0.76477 0.0
C3522 C 0.13913 0.98681 0.76133 0.0
C3523 C 0.12086 0.99732 0.77162 0.0
C3524 C 0.1152 0.00734 0.78053 0.0
C3525 C 0.13079 0.97925 0.75381 0.0
C3526 C 0.11734 0.98127 0.75473 0.0
C3527 C 0.11252 0.98973 0.76412 0.0
C3528 C 0.10869 0.97748 0.74402 0.0
C3529 C 0.13644 0.97018 0.74393 0.0
C3530 C 0.1046 0.98714 0.73549 0.0
C3531 C 0.09842 0.98392 0.72403 0.0
C3532 C 0.09606 0.97097 0.7209 0.0
C3533 C 0.09928 0.9613 0.72986 0.0
C3534 C 0.10566 0.96455 0.74136 0.0
H3535 H 0.14714 0.96984 0.74438 0.0
H3536 H 0.13266 0.9603 0.74552 0.0
H3537 H 0.13353 0.97325 0.73409 0.0
H3538 H 0.10686 0.99717 0.73736 0.0
H3539 H 0.09598 0.99156 0.71733 0.0
H3540 H 0.21354 0.39018 0.01379 0.0
H3541 H 0.23375 0.37953 0.00898 0.0
H3542 H 0.25168 0.39802 0.0416 0.0
H3543 H 0.23105 0.40883 0.04674 0.0
H3544 H 0.26377 0.39718 0.01124 0.0
H3545 H 0.25231 0.35134 0.03614 0.0
H3546 H 0.23868 0.35907 0.02869 0.0
H3547 H 0.2468 0.36689 0.04186 0.0
C3548 C 0.22173 0.39211 0.01999 0.0
C3549 C 0.22066 0.40037 0.03068 0.0
C3550 C 0.23328 0.38595 0.01722 0.0
C3551 C 0.24412 0.38791 0.025 0.0
C3552 C 0.24334 0.39636 0.03555 0.0
H3553 H 0.30173 0.34801 0.97694 0.0
H3554 H 0.29633 0.35839 0.99765 0.0
C3555 C 0.2316 0.40253 0.03843 0.0
C3556 C 0.25603 0.38093 0.02152 0.0
H3557 H 0.26445 0.34962 0.01618 0.0
C3558 C 0.26447 0.38686 0.01279 0.0
C3559 C 0.25686 0.36749 0.02357 0.0
C3560 C 0.24825 0.3608 0.03317 0.0
C3561 C 0.27251 0.37943 0.0048 0.0
C3562 C 0.27201 0.36583 0.00565 0.0
C3563 C 0.2648 0.36005 0.01553 0.0
C3564 C 0.27572 0.35778 0.99447 0.0
C3565 C 0.28027 0.38606 0.99443 0.0
C3566 C 0.26592 0.3537 0.98611 0.0
C3567 C 0.26895 0.34796 0.97437 0.0
C3568 C 0.28186 0.34602 0.9708 0.0
C3569 C 0.2917 0.34932 0.97953 0.0
C3570 C 0.28865 0.35528 0.9913 0.0
H3571 H 0.28017 0.39672 0.99549 0.0
H3572 H 0.29042 0.38267 0.99476 0.0
H3573 H 0.2763 0.38354 0.98481 0.0
H3574 H 0.2559 0.35557 0.98838 0.0
H3575 H 0.26118 0.34547 0.96784 0.0
H3576 H 0.90659 0.50915 0.21901 0.0
H3577 H 0.89578 0.5031 0.23895 0.0
H3578 H 0.8916 0.54323 0.24907 0.0
H3579 H 0.90258 0.54939 0.2289 0.0
H3580 H 0.89921 0.50903 0.26623 0.0
H3581 H 0.85404 0.52885 0.24476 0.0
H3582 H 0.86815 0.52617 0.23495 0.0
H3583 H 0.86797 0.53907 0.24646 0.0
C3584 C 0.90368 0.5167 0.22562 0.0
C3585 C 0.90531 0.52973 0.22239 0.0
C3586 C 0.89753 0.51323 0.23704 0.0
C3587 C 0.89275 0.52271 0.24541 0.0
C3588 C 0.89515 0.53577 0.24268 0.0
H3589 H 0.84737 0.47662 0.30122 0.0
H3590 H 0.85846 0.49677 0.29515 0.0
C3591 C 0.90148 0.53927 0.23123 0.0
C3592 C 0.88399 0.51857 0.2559 0.0
H3593 H 0.8519 0.51298 0.26064 0.0
C3594 C 0.88886 0.51027 0.26541 0.0
C3595 C 0.87049 0.52021 0.25474 0.0
C3596 C 0.86475 0.52903 0.24469 0.0
C3597 C 0.8806 0.50256 0.27288 0.0
C3598 C 0.86714 0.50325 0.27077 0.0
C3599 C 0.86223 0.51252 0.26223 0.0
C3600 C 0.85859 0.49251 0.27472 0.0
C3601 C 0.88634 0.49278 0.28199 0.0
C3602 C 0.8546 0.48377 0.26522 0.0
C3603 C 0.84842 0.47236 0.26863 0.0
C3604 C 0.84595 0.4695 0.28163 0.0
C3605 C 0.84911 0.47865 0.29113 0.0
C3606 C 0.8555 0.49009 0.28769 0.0
H3607 H 0.89704 0.49335 0.28235 0.0
H3608 H 0.88253 0.49438 0.29186 0.0
H3609 H 0.88354 0.4829 0.27897 0.0
H3610 H 0.8569 0.48545 0.25516 0.0
H3611 H 0.84603 0.46551 0.26111 0.0
H3612 H 0.78231 0.09864 0.51053 0.0
H3613 H 0.76214 0.10962 0.50555 0.0
H3614 H 0.75258 0.11093 0.54598 0.0
H3615 H 0.77292 0.09969 0.5511 0.0
H3616 H 0.73198 0.10344 0.51966 0.0
H3617 H 0.75788 0.15015 0.52418 0.0
H3618 H 0.76711 0.13673 0.51814 0.0
H3619 H 0.76129 0.13646 0.53444 0.0
C3620 C 0.7758 0.10098 0.51836 0.0
C3621 C 0.77919 0.09836 0.5312 0.0
C3622 C 0.76429 0.10726 0.5155 0.0
C3623 C 0.75598 0.11114 0.52541 0.0
C3624 C 0.75892 0.10796 0.53823 0.0
H3625 H 0.70881 0.16639 0.48217 0.0
H3626 H 0.71465 0.15647 0.50307 0.0
C3627 C 0.77047 0.1015 0.54111 0.0
C3628 C 0.74495 0.11947 0.52199 0.0
H3629 H 0.74023 0.14942 0.50933 0.0
C3630 C 0.73349 0.11364 0.51787 0.0
C3631 C 0.74686 0.13279 0.51984 0.0
C3632 C 0.75891 0.13949 0.52445 0.0
C3633 C 0.72459 0.12048 0.51031 0.0
C3634 C 0.72746 0.13329 0.50656 0.0
C3635 C 0.73806 0.13958 0.51211 0.0
C3636 C 0.72198 0.13885 0.49459 0.0
C3637 C 0.71274 0.1136 0.50546 0.0
C3638 C 0.72425 0.13229 0.48299 0.0
C3639 C 0.72123 0.13798 0.47125 0.0
C3640 C 0.71577 0.15035 0.47076 0.0
C3641 C 0.71298 0.15682 0.48234 0.0
C3642 C 0.71627 0.15116 0.49422 0.0
H3643 H 0.70919 0.10659 0.51274 0.0
H3644 H 0.70488 0.1205 0.50313 0.0
H3645 H 0.71522 0.10811 0.49662 0.0
H3646 H 0.72895 0.12296 0.48297 0.0
H3647 H 0.72339 0.13271 0.46249 0.0
H3648 H 0.2009 0.15062 0.97469 0.0
H3649 H 0.20716 0.13788 0.99374 0.0
H3650 H 0.24722 0.14504 0.98526 0.0
H3651 H 0.24109 0.15745 0.96625 0.0
H3652 H 0.23803 0.11781 0.98571 0.0
H3653 H 0.22594 0.14607 0.02978 0.0
H3654 H 0.21476 0.1452 0.01647 0.0
H3655 H 0.22943 0.15413 0.01473 0.0
C3656 C 0.21101 0.14982 0.97719 0.0
C3657 C 0.22054 0.15495 0.96901 0.0
C3658 C 0.21456 0.14252 0.98802 0.0
C3659 C 0.22765 0.14049 0.99083 0.0
C3660 C 0.23708 0.14647 0.98322 0.0
H3661 H 0.28573 0.11748 0.03592 0.0
H3662 H 0.26604 0.1271 0.02749 0.0
C3663 C 0.23356 0.15359 0.97238 0.0
C3664 C 0.23186 0.13091 0.00053 0.0
H3665 H 0.2392 0.12779 0.03244 0.0
C3666 C 0.238 0.11975 0.99599 0.0
C3667 C 0.2317 0.13352 0.01388 0.0
C3668 C 0.22512 0.14537 0.01912 0.0
C3669 C 0.24498 0.1117 0.00429 0.0
C3670 C 0.24562 0.11478 0.01758 0.0
C3671 C 0.23859 0.12538 0.02228 0.0
C3672 C 0.25576 0.10902 0.02586 0.0
C3673 C 0.25263 0.1007 0.99856 0.0
C3674 C 0.2563 0.09569 0.0284 0.0
C3675 C 0.26763 0.09014 0.03332 0.0
C3676 C 0.27845 0.09792 0.03567 0.0
C3677 C 0.27747 0.11132 0.03414 0.0
C3678 C 0.26621 0.11683 0.02938 0.0
H3679 H 0.2521 0.10051 0.98786 0.0
H3680 H 0.26292 0.10143 0.00142 0.0
H3681 H 0.24883 0.09141 0.00225 0.0
H3682 H 0.24828 0.08951 0.02583 0.0
H3683 H 0.26826 0.07977 0.03436 0.0
H3684 H 0.69983 0.85084 0.52279 0.0
H3685 H 0.70596 0.86232 0.50292 0.0
H3686 H 0.74604 0.85471 0.51102 0.0
H3687 H 0.74001 0.84352 0.53077 0.0
H3688 H 0.7215 0.88451 0.50452 0.0
H3689 H 0.74415 0.84912 0.47199 0.0
H3690 H 0.73283 0.8445 0.48443 0.0
H3691 H 0.74962 0.84686 0.48824 0.0
C3692 C 0.7099 0.85124 0.52003 0.0
C3693 C 0.71947 0.84632 0.52826 0.0
C3694 C 0.71338 0.85783 0.50873 0.0
C3695 C 0.72644 0.85924 0.50541 0.0
C3696 C 0.73589 0.85352 0.51322 0.0
H3697 H 0.7814 0.91017 0.49187 0.0
H3698 H 0.76123 0.89957 0.49751 0.0
C3699 C 0.73245 0.84718 0.52455 0.0
C3700 C 0.73063 0.86833 0.4952 0.0
H3701 H 0.75363 0.87084 0.47186 0.0
C3702 C 0.72817 0.88152 0.49704 0.0
C3703 C 0.73915 0.86447 0.48529 0.0
C3704 C 0.74148 0.85044 0.48229 0.0
C3705 C 0.7352 0.89093 0.49031 0.0
C3706 C 0.74496 0.88701 0.48165 0.0
C3707 C 0.74627 0.87387 0.47865 0.0
C3708 C 0.75551 0.89585 0.47778 0.0
C3709 C 0.73274 0.90496 0.4932 0.0
C3710 C 0.75893 0.89752 0.46477 0.0
C3711 C 0.77049 0.90376 0.46151 0.0
C3712 C 0.77888 0.90806 0.47125 0.0
C3713 C 0.77508 0.90698 0.48419 0.0
C3714 C 0.7635 0.90099 0.48741 0.0
H3715 H 0.7225 0.90658 0.49587 0.0
H3716 H 0.73878 0.90795 0.50151 0.0
H3717 H 0.73518 0.91116 0.48481 0.0
H3718 H 0.75298 0.89349 0.4572 0.0
H3719 H 0.7733 0.90434 0.45147 0.0
H3720 H 0.35019 0.02346 0.70194 0.0
H3721 H 0.36073 0.00317 0.70837 0.0
H3722 H 0.35394 0.01244 0.74834 0.0
H3723 H 0.34367 0.03259 0.74202 0.0
H3724 H 0.38315 0.00377 0.72392 0.0
H3725 H 0.34585 0.97372 0.747 0.0
H3726 H 0.342 0.98622 0.73545 0.0
H3727 H 0.3446 0.99018 0.75216 0.0
C3728 C 0.35059 0.02091 0.71206 0.0
C3729 C 0.34615 0.02955 0.7215 0.0
C3730 C 0.35664 0.00936 0.71571 0.0
C3731 C 0.35798 0.00622 0.72883 0.0
C3732 C 0.35278 0.01451 0.73817 0.0
H3733 H 0.40776 0.99023 0.78408 0.0
H3734 H 0.39735 0.99631 0.76392 0.0
C3735 C 0.34699 0.02608 0.73455 0.0
C3736 C 0.36644 0.99554 0.73314 0.0
H3737 H 0.36754 0.97231 0.75637 0.0
C3738 C 0.37971 0.99655 0.73066 0.0
C3739 C 0.36198 0.98597 0.74177 0.0
C3740 C 0.3478 0.98387 0.74414 0.0
C3741 C 0.38869 0.98933 0.73776 0.0
C3742 C 0.38426 0.98099 0.7476 0.0
C3743 C 0.37097 0.97882 0.74894 0.0
C3744 C 0.39285 0.97674 0.7582 0.0
C3745 C 0.40287 0.99135 0.73531 0.0
C3746 C 0.39401 0.96368 0.7616 0.0
C3747 C 0.40016 0.96016 0.77314 0.0
C3748 C 0.40488 0.96971 0.78151 0.0
C3749 C 0.40424 0.98269 0.77776 0.0
C3750 C 0.39836 0.98616 0.7662 0.0
H3751 H 0.40466 0.99397 0.72508 0.0
H3752 H 0.40637 0.99942 0.7414 0.0
H3753 H 0.40853 0.98258 0.73771 0.0
H3754 H 0.38967 0.95628 0.75564 0.0
H3755 H 0.40039 0.9501 0.77593 0.0
H3756 H 0.21984 0.59389 0.98996 0.0
H3757 H 0.23986 0.60502 0.99498 0.0
H3758 H 0.24768 0.60967 0.95438 0.0
H3759 H 0.22739 0.59839 0.94926 0.0
H3760 H 0.26667 0.60247 0.98792 0.0
H3761 H 0.24332 0.64699 0.96873 0.0
H3762 H 0.23398 0.63262 0.97165 0.0
H3763 H 0.24518 0.63311 0.95847 0.0
C3764 C 0.22598 0.59697 0.98208 0.0
C3765 C 0.22204 0.5954 0.96924 0.0
C3766 C 0.23745 0.6033 0.98496 0.0
C3767 C 0.24517 0.60832 0.97506 0.0
C3768 C 0.24178 0.60595 0.96216 0.0
H3769 H 0.2994 0.65402 0.02199 0.0
H3770 H 0.29413 0.64356 0.00132 0.0
C3771 C 0.23027 0.59944 0.95925 0.0
C3772 C 0.2556 0.61738 0.97871 0.0
H3773 H 0.25931 0.64957 0.98439 0.0
C3774 C 0.26547 0.61279 0.98675 0.0
C3775 C 0.25397 0.63083 0.97714 0.0
C3776 C 0.24356 0.63628 0.96856 0.0
C3777 C 0.27273 0.62126 0.99443 0.0
C3778 C 0.27007 0.63464 0.99392 0.0
C3779 C 0.26129 0.63931 0.98475 0.0
C3780 C 0.27356 0.64317 0.00484 0.0
C3781 C 0.28214 0.61574 0.00406 0.0
C3782 C 0.26372 0.64695 0.01331 0.0
C3783 C 0.26668 0.65282 0.025 0.0
C3784 C 0.27955 0.65516 0.02844 0.0
C3785 C 0.28939 0.65234 0.01954 0.0
C3786 C 0.2864 0.64631 0.00779 0.0
H3787 H 0.28275 0.60506 0.00349 0.0
H3788 H 0.29188 0.61977 0.00228 0.0
H3789 H 0.27923 0.61846 0.014 0.0
H3790 H 0.25374 0.64463 0.01122 0.0
H3791 H 0.2589 0.65498 0.03163 0.0
H3792 H 0.7267 0.9017 0.04916 0.0
H3793 H 0.74664 0.89029 0.04318 0.0
H3794 H 0.73876 0.89779 0.00303 0.0
H3795 H 0.71894 0.90892 0.00892 0.0
H3796 H 0.74491 0.86807 0.02771 0.0
H3797 H 0.77785 0.90312 0.00511 0.0
H3798 H 0.76539 0.90788 0.01636 0.0
H3799 H 0.76164 0.90547 0.99956 0.0
C3800 C 0.72954 0.90131 0.03911 0.0
C3801 C 0.72134 0.90616 0.02947 0.0
C3802 C 0.74087 0.89476 0.03571 0.0
C3803 C 0.74426 0.89331 0.02267 0.0
C3804 C 0.73651 0.89901 0.01316 0.0
H3805 H 0.7578 0.84228 0.96787 0.0
H3806 H 0.75206 0.85311 0.98791 0.0
C3807 C 0.72513 0.90531 0.01652 0.0
C3808 C 0.75443 0.88414 0.01858 0.0
H3809 H 0.7779 0.88135 0.99576 0.0
C3810 C 0.75246 0.87098 0.02109 0.0
C3811 C 0.76442 0.88789 0.01011 0.0
C3812 C 0.76754 0.90189 0.00774 0.0
C3813 C 0.75915 0.86149 0.01413 0.0
C3814 C 0.76793 0.8653 0.00443 0.0
C3815 C 0.77104 0.87841 0.00308 0.0
C3816 C 0.77177 0.8564 0.99394 0.0
C3817 C 0.75611 0.84749 0.01658 0.0
C3818 C 0.78479 0.85442 0.99075 0.0
C3819 C 0.7881 0.84805 0.97928 0.0
C3820 C 0.77841 0.84392 0.97075 0.0
C3821 C 0.76544 0.84534 0.9743 0.0
C3822 C 0.76216 0.85146 0.9858 0.0
H3823 H 0.75323 0.84592 0.02678 0.0
H3824 H 0.7479 0.84454 0.01039 0.0
H3825 H 0.7645 0.84122 0.01432 0.0
H3826 H 0.79235 0.8583 0.99683 0.0
H3827 H 0.79818 0.8472 0.97667 0.0
H3828 H 0.34931 0.47555 0.79919 0.0
H3829 H 0.36007 0.49594 0.79347 0.0
H3830 H 0.3541 0.48765 0.75315 0.0
H3831 H 0.34364 0.46739 0.75877 0.0
H3832 H 0.38284 0.49549 0.7783 0.0
H3833 H 0.34622 0.52641 0.75531 0.0
H3834 H 0.34207 0.51373 0.76655 0.0
H3835 H 0.34485 0.51008 0.74979 0.0
C3836 C 0.34993 0.47835 0.78914 0.0
C3837 C 0.34568 0.46995 0.7794 0.0
C3838 C 0.3561 0.48994 0.78589 0.0
C3839 C 0.35774 0.49339 0.77289 0.0
C3840 C 0.35271 0.48534 0.76324 0.0
H3841 H 0.40814 0.50936 0.71864 0.0
H3842 H 0.39766 0.50328 0.73876 0.0
C3843 C 0.3468 0.47372 0.76646 0.0
C3844 C 0.36636 0.5041 0.769 0.0
H3845 H 0.36805 0.52771 0.74621 0.0
C3846 C 0.37958 0.50288 0.77165 0.0
C3847 C 0.36213 0.51388 0.76051 0.0
C3848 C 0.34801 0.5162 0.75799 0.0
C3849 C 0.38874 0.51011 0.76479 0.0
C3850 C 0.38454 0.51864 0.75503 0.0
C3851 C 0.3713 0.52103 0.75357 0.0
C3852 C 0.39329 0.52286 0.74455 0.0
C3853 C 0.40286 0.50786 0.76739 0.0
C3854 C 0.39455 0.53594 0.74119 0.0
C3855 C 0.40073 0.53945 0.72968 0.0
C3856 C 0.40537 0.52989 0.72127 0.0
C3857 C 0.40468 0.51691 0.72499 0.0
C3858 C 0.39876 0.51343 0.73653 0.0
H3859 H 0.40449 0.50516 0.77763 0.0
H3860 H 0.40631 0.49977 0.7613 0.0
H3861 H 0.40868 0.51656 0.7651 0.0
H3862 H 0.39024 0.54334 0.74717 0.0
H3863 H 0.40101 0.54952 0.72692 0.0
H3864 H 0.60024 0.95044 0.2269 0.0
H3865 H 0.61088 0.95592 0.24743 0.0
H3866 H 0.60562 0.99636 0.23922 0.0
H3867 H 0.5953 0.99097 0.21883 0.0
H3868 H 0.63388 0.97082 0.2474 0.0
H3869 H 0.59708 0.99411 0.27786 0.0
H3870 H 0.593 0.98289 0.26514 0.0
H3871 H 0.59591 0.99963 0.26151 0.0
C3872 C 0.60102 0.96046 0.22973 0.0
C3873 C 0.597 0.97031 0.22133 0.0
C3874 C 0.6071 0.96357 0.24141 0.0
C3875 C 0.60888 0.97654 0.24493 0.0
C3876 C 0.60411 0.98629 0.23685 0.0
H3877 H 0.65885 0.03054 0.26014 0.0
H3878 H 0.64861 0.01016 0.25461 0.0
C3879 C 0.59829 0.98321 0.22515 0.0
C3880 C 0.61737 0.98027 0.25578 0.0
H3881 H 0.61894 0.00323 0.27923 0.0
C3882 C 0.63058 0.97753 0.25472 0.0
C3883 C 0.61309 0.98882 0.26549 0.0
C3884 C 0.59896 0.99142 0.26766 0.0
C3885 C 0.63971 0.98441 0.26197 0.0
C3886 C 0.63547 0.99429 0.27035 0.0
C3887 C 0.62222 0.99578 0.27266 0.0
C3888 C 0.64417 0.00491 0.27433 0.0
C3889 C 0.65384 0.98175 0.25985 0.0
C3890 C 0.64531 0.00867 0.2873 0.0
C3891 C 0.65135 0.02035 0.2905 0.0
C3892 C 0.65596 0.02851 0.28072 0.0
C3893 C 0.6554 0.02439 0.26785 0.0
C3894 C 0.64963 0.01269 0.2647 0.0
H3895 H 0.65546 0.97145 0.25742 0.0
H3896 H 0.65733 0.98762 0.25161 0.0
H3897 H 0.65963 0.98425 0.26851 0.0
H3898 H 0.641 0.00288 0.29486 0.0
H3899 H 0.65153 0.02342 0.30048 0.0
H3900 H 0.00946 0.78552 0.59569 0.0
H3901 H 0.00321 0.7656 0.60643 0.0
H3902 H 0.04298 0.7535 0.60758 0.0
H3903 H 0.04935 0.77363 0.59664 0.0
H3904 H 0.00817 0.73799 0.6011 0.0
H3905 H 0.03048 0.75684 0.64629 0.0
H3906 H 0.02719 0.76747 0.63291 0.0
H3907 H 0.03987 0.75578 0.6317 0.0
C3908 C 0.01686 0.77851 0.59797 0.0
C3909 C 0.02989 0.78115 0.59544 0.0
C3910 C 0.01328 0.76711 0.60407 0.0
C3911 C 0.02264 0.75815 0.6079 0.0
C3912 C 0.03563 0.76035 0.60474 0.0
H3913 H 0.97661 0.70159 0.65222 0.0
H3914 H 0.99666 0.70763 0.64095 0.0
C3915 C 0.03923 0.77179 0.59845 0.0
C3916 C 0.01855 0.7474 0.61637 0.0
H3917 H 0.01409 0.74144 0.64842 0.0
C3918 C 0.00983 0.73833 0.61142 0.0
C3919 C 0.02075 0.74794 0.62983 0.0
C3920 C 0.03006 0.75751 0.6356 0.0
C3921 C 0.00227 0.7307 0.61966 0.0
C3922 C 0.00353 0.7322 0.63316 0.0
C3923 C 0.01319 0.7403 0.63807 0.0
C3924 C 0.99302 0.72816 0.64194 0.0
C3925 C 0.99204 0.72209 0.61392 0.0
C3926 C 0.98468 0.7377 0.64665 0.0
C3927 C 0.97333 0.7343 0.65294 0.0
C3928 C 0.97012 0.72129 0.65479 0.0
C3929 C 0.97892 0.7117 0.65096 0.0
C3930 C 0.9903 0.71513 0.64447 0.0
H3931 H 0.99216 0.72222 0.6032 0.0
H3932 H 0.99356 0.71202 0.6172 0.0
H3933 H 0.98236 0.72519 0.61727 0.0
H3934 H 0.98659 0.7478 0.64479 0.0
H3935 H 0.96675 0.74189 0.65585 0.0
H3936 H 0.02189 0.79971 0.1502 0.0
H3937 H 0.00189 0.79275 0.13946 0.0
H3938 H 0.01206 0.75304 0.14645 0.0
H3939 H 0.03196 0.75988 0.1569 0.0
H3940 H 0.00352 0.77695 0.11703 0.0
H3941 H 0.97307 0.7537 0.15397 0.0
H3942 H 0.98518 0.76562 0.15792 0.0
H3943 H 0.98964 0.749 0.15556 0.0
C3944 C 0.01959 0.78953 0.14981 0.0
C3945 C 0.02843 0.78031 0.15434 0.0
C3946 C 0.00821 0.78558 0.14365 0.0
C3947 C 0.00543 0.77239 0.14229 0.0
C3948 C 0.01387 0.76326 0.14761 0.0
H3949 H 0.99043 0.71618 0.09295 0.0
H3950 H 0.99649 0.73628 0.10351 0.0
C3951 C 0.02528 0.76717 0.15352 0.0
C3952 C 0.99501 0.76781 0.13366 0.0
H3953 H 0.97204 0.74435 0.1323 0.0
C3954 C 0.99629 0.77017 0.12039 0.0
C3955 C 0.98547 0.75911 0.13801 0.0
C3956 C 0.98316 0.75681 0.15217 0.0
C3957 C 0.98933 0.76292 0.11133 0.0
C3958 C 0.98097 0.75309 0.11569 0.0
C3959 C 0.97856 0.75181 0.12895 0.0
C3960 C 0.97688 0.74245 0.10709 0.0
C3961 C 0.99166 0.76518 0.09716 0.0
C3962 C 0.96381 0.73934 0.10539 0.0
C3963 C 0.96031 0.72786 0.09915 0.0
C3964 C 0.96987 0.71924 0.0949 0.0
C3965 C 0.98289 0.72268 0.09611 0.0
C3966 C 0.98635 0.7342 0.10208 0.0
H3967 H 0.99456 0.77533 0.0953 0.0
H3968 H 0.99962 0.75884 0.09385 0.0
H3969 H 0.98293 0.76293 0.09139 0.0
H3970 H 0.95637 0.74551 0.10934 0.0
H3971 H 0.9502 0.72532 0.09845 0.0
H3972 H 0.49097 0.71503 0.59421 0.0
H3973 H 0.49716 0.73497 0.60495 0.0
H3974 H 0.45727 0.74658 0.60681 0.0
H3975 H 0.45096 0.72645 0.59591 0.0
H3976 H 0.49201 0.76249 0.60024 0.0
H3977 H 0.47001 0.74283 0.64523 0.0
H3978 H 0.47319 0.7325 0.63159 0.0
H3979 H 0.46044 0.74415 0.6308 0.0
C3980 C 0.48352 0.72195 0.59662 0.0
C3981 C 0.47048 0.71916 0.59433 0.0
C3982 C 0.48708 0.73336 0.60272 0.0
C3983 C 0.47767 0.74217 0.6068 0.0
C3984 C 0.46466 0.73985 0.6038 0.0
H3985 H 0.52272 0.79929 0.6513 0.0
H3986 H 0.50278 0.79284 0.64011 0.0
C3987 C 0.46109 0.72841 0.59752 0.0
C3988 C 0.48171 0.75282 0.6154 0.0
H3989 H 0.48596 0.75863 0.64752 0.0
C3990 C 0.49033 0.76204 0.61055 0.0
C3991 C 0.47949 0.75213 0.62885 0.0
C3992 C 0.47031 0.74239 0.63453 0.0
C3993 C 0.49774 0.76973 0.61887 0.0
C3994 C 0.49643 0.76813 0.63236 0.0
C3995 C 0.48689 0.75984 0.63717 0.0
C3996 C 0.50677 0.77239 0.64123 0.0
C3997 C 0.50786 0.77853 0.61322 0.0
C3998 C 0.51525 0.76302 0.64604 0.0
C3999 C 0.52655 0.76665 0.6523 0.0
C4000 C 0.52955 0.77973 0.65401 0.0
C4001 C 0.52058 0.78914 0.65015 0.0
C4002 C 0.50925 0.78548 0.6437 0.0
H4003 H 0.5079 0.77834 0.60251 0.0
H4004 H 0.50608 0.78858 0.61642 0.0
H4005 H 0.51757 0.77566 0.61672 0.0
H4006 H 0.51352 0.75287 0.64423 0.0
H4007 H 0.53328 0.75921 0.65523 0.0
H4008 H 0.46551 0.74075 0.14868 0.0
H4009 H 0.48565 0.7457 0.1377 0.0
H4010 H 0.49809 0.70629 0.14212 0.0
H4011 H 0.47769 0.70116 0.15329 0.0
H4012 H 0.51649 0.73346 0.14771 0.0
H4013 H 0.49392 0.72472 0.09998 0.0
H4014 H 0.4835 0.7317 0.11199 0.0
H4015 H 0.48964 0.71567 0.11427 0.0
C4016 C 0.47257 0.73314 0.14752 0.0
C4017 C 0.47 0.72055 0.15178 0.0
C4018 C 0.48407 0.73599 0.14123 0.0
C4019 C 0.49323 0.72633 0.13901 0.0
C4020 C 0.49106 0.71384 0.14375 0.0
H4021 H 0.54258 0.76936 0.08529 0.0
H4022 H 0.53681 0.74859 0.09552 0.0
C4023 C 0.47948 0.71096 0.15016 0.0
C4024 C 0.50461 0.72964 0.13112 0.0
H4025 H 0.51042 0.74105 0.10086 0.0
C4026 C 0.5155 0.73463 0.13736 0.0
C4027 C 0.50339 0.731 0.11762 0.0
C4028 C 0.49203 0.7254 0.1105 0.0
C4029 C 0.52436 0.74235 0.13065 0.0
C4030 C 0.52204 0.74532 0.11753 0.0
C4031 C 0.51215 0.73887 0.11094 0.0
C4032 C 0.52708 0.75737 0.11177 0.0
C4033 C 0.53544 0.7483 0.13793 0.0
C4034 C 0.52336 0.76907 0.11741 0.0
C4035 C 0.52634 0.78072 0.11153 0.0
C4036 C 0.53321 0.78103 0.09986 0.0
C4037 C 0.53729 0.76936 0.09429 0.0
C4038 C 0.53405 0.75754 0.10013 0.0
H4039 H 0.53884 0.74175 0.14569 0.0
H4040 H 0.54363 0.75055 0.13141 0.0
H4041 H 0.53216 0.75738 0.14254 0.0
H4042 H 0.51771 0.76918 0.1262 0.0
H4043 H 0.52315 0.78954 0.11613 0.0
H4044 H 0.09907 0.54838 0.77483 0.0
H4045 H 0.11 0.54196 0.75474 0.0
H4046 H 0.10409 0.50194 0.76443 0.0
H4047 H 0.09345 0.50825 0.7844 0.0
H4048 H 0.13285 0.52663 0.75581 0.0
H4049 H 0.09594 0.5031 0.72554 0.0
H4050 H 0.09193 0.51473 0.73791 0.0
H4051 H 0.09472 0.4981 0.74206 0.0
C4052 C 0.09977 0.53824 0.77242 0.0
C4053 C 0.09545 0.52879 0.78113 0.0
C4054 C 0.10603 0.53459 0.76099 0.0
C4055 C 0.10772 0.52148 0.75803 0.0
C4056 C 0.10268 0.51211 0.76638 0.0
H4057 H 0.15855 0.467 0.74094 0.0
H4058 H 0.14785 0.48683 0.74758 0.0
C4059 C 0.09666 0.51572 0.77784 0.0
C4060 C 0.1163 0.51727 0.74742 0.0
H4061 H 0.11778 0.49434 0.72392 0.0
C4062 C 0.12953 0.51991 0.74851 0.0
C4063 C 0.11198 0.50867 0.73777 0.0
C4064 C 0.09784 0.50609 0.73565 0.0
C4065 C 0.13863 0.51304 0.74121 0.0
C4066 C 0.13435 0.50327 0.73272 0.0
C4067 C 0.12108 0.50173 0.73054 0.0
C4068 C 0.14312 0.49295 0.72818 0.0
C4069 C 0.15277 0.51567 0.74329 0.0
C4070 C 0.14425 0.48989 0.71503 0.0
C4071 C 0.15054 0.47855 0.71119 0.0
C4072 C 0.15545 0.47001 0.7205 0.0
C4073 C 0.15487 0.47344 0.73357 0.0
C4074 C 0.14883 0.48482 0.73737 0.0
H4075 H 0.1544 0.52586 0.74614 0.0
H4076 H 0.15637 0.50945 0.75122 0.0
H4077 H 0.15846 0.51355 0.73447 0.0
H4078 H 0.13977 0.49597 0.70781 0.0
H4079 H 0.15074 0.47602 0.70106 0.0
H4080 H 0.19903 0.84953 0.02407 0.0
H4081 H 0.20479 0.86055 0.00383 0.0
H4082 H 0.24497 0.8526 0.01111 0.0
H4083 H 0.2393 0.84187 0.0312 0.0
H4084 H 0.22041 0.88253 0.00459 0.0
H4085 H 0.24234 0.84654 0.97229 0.0
H4086 H 0.23128 0.84214 0.98504 0.0
H4087 H 0.24817 0.84446 0.98843 0.0
C4088 C 0.20902 0.84975 0.02105 0.0
C4089 C 0.21874 0.84488 0.02914 0.0
C4090 C 0.21231 0.85607 0.00954 0.0
C4091 C 0.2253 0.85726 0.00587 0.0
C4092 C 0.23487 0.85157 0.01356 0.0
H4093 H 0.28032 0.90748 0.99172 0.0
H4094 H 0.26015 0.89691 0.99736 0.0
C4095 C 0.23163 0.8455 0.0251 0.0
C4096 C 0.22935 0.86615 0.99543 0.0
H4097 H 0.25219 0.86816 0.97189 0.0
C4098 C 0.22699 0.87938 0.9971 0.0
C4099 C 0.23774 0.86209 0.98549 0.0
C4100 C 0.23991 0.848 0.98262 0.0
C4101 C 0.23405 0.88863 0.99019 0.0
C4102 C 0.24374 0.88452 0.98154 0.0
C4103 C 0.2449 0.87134 0.97868 0.0
C4104 C 0.25441 0.8932 0.97763 0.0
C4105 C 0.23172 0.90272 0.99291 0.0
C4106 C 0.25785 0.89483 0.96462 0.0
C4107 C 0.26942 0.90104 0.96136 0.0
C4108 C 0.2778 0.90537 0.97109 0.0
C4109 C 0.27402 0.90427 0.98403 0.0
C4110 C 0.26243 0.89829 0.98726 0.0
H4111 H 0.2215 0.90447 0.99557 0.0
H4112 H 0.2378 0.90576 0.00118 0.0
H4113 H 0.23421 0.9088 0.98444 0.0
H4114 H 0.25187 0.89082 0.95706 0.0
H4115 H 0.27221 0.90165 0.95131 0.0
H4116 H 0.90467 0.98975 0.28433 0.0
H4117 H 0.8939 0.99615 0.26446 0.0
H4118 H 0.8921 0.95639 0.2524 0.0
H4119 H 0.90308 0.94986 0.27245 0.0
H4120 H 0.89907 0.99082 0.23666 0.0
H4121 H 0.85356 0.96979 0.25616 0.0
H4122 H 0.86705 0.97299 0.26668 0.0
H4123 H 0.86796 0.96011 0.25518 0.0
C4124 C 0.90225 0.98238 0.27734 0.0
C4125 C 0.90461 0.96931 0.27995 0.0
C4126 C 0.89613 0.98605 0.26597 0.0
C4127 C 0.89211 0.97673 0.25703 0.0
C4128 C 0.8951 0.9637 0.25923 0.0
H4129 H 0.84805 0.02296 0.20039 0.0
H4130 H 0.85898 0.00278 0.20662 0.0
C4131 C 0.90141 0.96001 0.27062 0.0
C4132 C 0.88364 0.98093 0.24634 0.0
H4133 H 0.85166 0.98616 0.24068 0.0
C4134 C 0.88872 0.98942 0.23712 0.0
C4135 C 0.87015 0.97908 0.24705 0.0
C4136 C 0.86425 0.97002 0.25678 0.0
C4137 C 0.88059 0.9971 0.22948 0.0
C4138 C 0.86709 0.9962 0.23115 0.0
C4139 C 0.86203 0.98677 0.23941 0.0
C4140 C 0.85855 0.00689 0.22707 0.0
C4141 C 0.88649 0.00706 0.22067 0.0
C4142 C 0.8543 0.01556 0.23653 0.0
C4143 C 0.84821 0.02699 0.23303 0.0
C4144 C 0.84611 0.02995 0.21999 0.0
C4145 C 0.84951 0.02086 0.21052 0.0
C4146 C 0.85579 0.00939 0.21404 0.0
H4147 H 0.8972 0.00661 0.22061 0.0
H4148 H 0.88297 0.00558 0.21068 0.0
H4149 H 0.88351 0.01687 0.22376 0.0
H4150 H 0.85634 0.01381 0.24663 0.0
H4151 H 0.84564 0.0338 0.24053 0.0
H4152 H 0.80079 0.65131 0.52372 0.0
H4153 H 0.79507 0.64026 0.50348 0.0
H4154 H 0.75485 0.64796 0.5108 0.0
H4155 H 0.76047 0.65872 0.53089 0.0
H4156 H 0.77953 0.61817 0.50432 0.0
H4157 H 0.75744 0.65401 0.47196 0.0
H4158 H 0.76852 0.65847 0.48467 0.0
H4159 H 0.75165 0.65612 0.48811 0.0
C4160 C 0.79079 0.65103 0.52071 0.0
C4161 C 0.78105 0.65584 0.5288 0.0
C4162 C 0.78754 0.64469 0.5092 0.0
C4163 C 0.77455 0.64342 0.50554 0.0
C4164 C 0.76495 0.64905 0.51324 0.0
H4165 H 0.71947 0.5934 0.49194 0.0
H4166 H 0.73979 0.60382 0.49738 0.0
C4167 C 0.76816 0.65514 0.52477 0.0
C4168 C 0.77053 0.6345 0.49512 0.0
H4169 H 0.74762 0.63237 0.47167 0.0
C4170 C 0.77293 0.62129 0.49683 0.0
C4171 C 0.76211 0.63852 0.48519 0.0
C4172 C 0.7599 0.65259 0.48229 0.0
C4173 C 0.76585 0.61199 0.48999 0.0
C4174 C 0.75612 0.61606 0.48136 0.0
C4175 C 0.75494 0.62922 0.47844 0.0
C4176 C 0.74541 0.60738 0.47759 0.0
C4177 C 0.76819 0.59792 0.49277 0.0
C4178 C 0.74188 0.60569 0.46461 0.0
C4179 C 0.73023 0.59956 0.46147 0.0
C4180 C 0.72188 0.59538 0.47129 0.0
C4181 C 0.72576 0.59651 0.48419 0.0
C4182 C 0.73742 0.60239 0.4873 0.0
H4183 H 0.77843 0.59619 0.4954 0.0
H4184 H 0.76215 0.59492 0.50108 0.0
H4185 H 0.76567 0.5918 0.48435 0.0
H4186 H 0.74783 0.60962 0.45698 0.0
H4187 H 0.72736 0.59893 0.45144 0.0
H4188 H 0.09445 0.48997 0.2188 0.0
H4189 H 0.1054 0.4955 0.2388 0.0
H4190 H 0.11137 0.45514 0.24691 0.0
H4191 H 0.10024 0.4495 0.22667 0.0
H4192 H 0.10298 0.48838 0.26578 0.0
H4193 H 0.14821 0.47096 0.24241 0.0
H4194 H 0.13375 0.47343 0.23307 0.0
H4195 H 0.1347 0.46019 0.24416 0.0
C4196 C 0.09778 0.48224 0.225 0.0
C4197 C 0.09661 0.46933 0.22117 0.0
C4198 C 0.10401 0.48541 0.23646 0.0
C4199 C 0.10934 0.47575 0.24426 0.0
C4200 C 0.10739 0.46274 0.24096 0.0
H4201 H 0.15475 0.52218 0.29971 0.0
H4202 H 0.14412 0.50178 0.29368 0.0
C4203 C 0.10097 0.45954 0.22947 0.0
C4204 C 0.11823 0.47976 0.2547 0.0
H4205 H 0.1502 0.48649 0.25863 0.0
C4206 C 0.11334 0.48757 0.26461 0.0
C4207 C 0.13174 0.47868 0.2531 0.0
C4208 C 0.13751 0.4704 0.24262 0.0
C4209 C 0.12152 0.4954 0.27204 0.0
C4210 C 0.13492 0.49534 0.26947 0.0
C4211 C 0.13992 0.48649 0.26055 0.0
C4212 C 0.14313 0.50636 0.27334 0.0
C4213 C 0.11569 0.50469 0.28159 0.0
C4214 C 0.14647 0.5154 0.26386 0.0
C4215 C 0.15241 0.52695 0.26726 0.0
C4216 C 0.15525 0.52968 0.2802 0.0
C4217 C 0.15269 0.52028 0.28965 0.0
C4218 C 0.14658 0.50869 0.28624 0.0
H4219 H 0.10505 0.50363 0.28232 0.0
H4220 H 0.11993 0.50304 0.29127 0.0
H4221 H 0.11794 0.51476 0.27872 0.0
H4222 H 0.14389 0.5138 0.25386 0.0
H4223 H 0.15433 0.53397 0.25976 0.0
H4224 H 0.22758 0.89992 0.55019 0.0
H4225 H 0.24756 0.8888 0.54381 0.0
H4226 H 0.23933 0.89719 0.5039 0.0
H4227 H 0.21947 0.90803 0.51019 0.0
H4228 H 0.24596 0.86695 0.52784 0.0
H4229 H 0.27835 0.90286 0.50581 0.0
H4230 H 0.26593 0.90723 0.51726 0.0
H4231 H 0.26208 0.90518 0.50043 0.0
C4232 C 0.23033 0.89978 0.54012 0.0
C4233 C 0.22203 0.9048 0.53066 0.0
C4234 C 0.2417 0.8934 0.53648 0.0
C4235 C 0.24501 0.89229 0.52339 0.0
C4236 C 0.23713 0.89815 0.51407 0.0
H4237 H 0.25848 0.84263 0.46736 0.0
H4238 H 0.25287 0.853 0.48767 0.0
C4239 C 0.22574 0.90428 0.51766 0.0
C4240 C 0.25523 0.88333 0.51901 0.0
H4241 H 0.27853 0.88132 0.49591 0.0
C4242 C 0.25342 0.87009 0.52122 0.0
C4243 C 0.26511 0.88739 0.51055 0.0
C4244 C 0.26807 0.90147 0.50849 0.0
C4245 C 0.26015 0.86084 0.51398 0.0
C4246 C 0.26879 0.86497 0.50429 0.0
C4247 C 0.27176 0.87814 0.50323 0.0
C4248 C 0.27262 0.85636 0.49355 0.0
C4249 C 0.25728 0.84676 0.51613 0.0
C4250 C 0.28562 0.85459 0.49017 0.0
C4251 C 0.28886 0.84849 0.47854 0.0
C4252 C 0.27912 0.84443 0.47003 0.0
C4253 C 0.26617 0.84565 0.47376 0.0
C4254 C 0.26296 0.8515 0.48541 0.0
H4255 H 0.25453 0.84492 0.52632 0.0
H4256 H 0.24902 0.84387 0.50997 0.0
H4257 H 0.26569 0.84063 0.51362 0.0
H4258 H 0.2932 0.85841 0.49624 0.0
H4259 H 0.29891 0.84779 0.47579 0.0
H4260 H 0.84833 0.97752 0.79866 0.0
H4261 H 0.85889 0.9977 0.79192 0.0
H4262 H 0.85393 0.98686 0.75207 0.0
H4263 H 0.84365 0.96681 0.75871 0.0
H4264 H 0.88201 0.99673 0.77714 0.0
H4265 H 0.84507 0.02556 0.75193 0.0
H4266 H 0.84103 0.0134 0.76377 0.0
H4267 H 0.84431 0.0089 0.74732 0.0
C4268 C 0.84913 0.9797 0.78848 0.0
C4269 C 0.84521 0.97064 0.77918 0.0
C4270 C 0.85519 0.99118 0.78465 0.0
C4271 C 0.85706 0.99384 0.77149 0.0
C4272 C 0.85236 0.98514 0.76226 0.0
H4273 H 0.90859 0.01043 0.71756 0.0
H4274 H 0.89766 0.00412 0.73738 0.0
C4275 C 0.84655 0.97364 0.76606 0.0
C4276 C 0.86552 0.0045 0.76716 0.0
H4277 H 0.86708 0.02736 0.74359 0.0
C4278 C 0.8787 0.00377 0.77014 0.0
C4279 C 0.86122 0.01381 0.75818 0.0
C4280 C 0.8471 0.01557 0.75521 0.0
C4281 C 0.88782 0.01104 0.76327 0.0
C4282 C 0.8836 0.01916 0.75316 0.0
C4283 C 0.87033 0.02102 0.75125 0.0
C4284 C 0.89253 0.02358 0.74292 0.0
C4285 C 0.90193 0.00933 0.76627 0.0
C4286 C 0.89352 0.03667 0.73956 0.0
C4287 C 0.89997 0.04032 0.72824 0.0
C4288 C 0.90515 0.03088 0.72002 0.0
C4289 C 0.90471 0.01789 0.72376 0.0
C4290 C 0.89852 0.01428 0.73513 0.0
H4291 H 0.90339 0.00675 0.77657 0.0
H4292 H 0.90585 0.00135 0.76032 0.0
H4293 H 0.90748 0.01823 0.76408 0.0
H4294 H 0.88881 0.04397 0.74536 0.0
H4295 H 0.90004 0.05039 0.72545 0.0
H4296 H 0.78043 0.58791 0.01191 0.0
H4297 H 0.76201 0.60054 0.00441 0.0
H4298 H 0.75672 0.61578 0.04273 0.0
H4299 H 0.77501 0.60274 0.0504 0.0
H4300 H 0.73263 0.61217 0.02676 0.0
H4301 H 0.7717 0.6398 0.003 0.0
H4302 H 0.77211 0.6229 0.99928 0.0
H4303 H 0.77477 0.62819 0.01559 0.0
C4304 C 0.775 0.59354 0.01884 0.0
C4305 C 0.77911 0.59443 0.03169 0.0
C4306 C 0.76453 0.60078 0.01455 0.0
C4307 C 0.75822 0.60928 0.02297 0.0
C4308 C 0.76151 0.60929 0.0361 0.0
H4309 H 0.72518 0.6717 0.97816 0.0
H4310 H 0.73403 0.66191 0.99781 0.0
C4311 C 0.7719 0.60181 0.04047 0.0
C4312 C 0.74975 0.61939 0.01751 0.0
H4313 H 0.75037 0.64362 0.99536 0.0
C4314 C 0.73647 0.61921 0.02005 0.0
C4315 C 0.75485 0.62883 0.00909 0.0
C4316 C 0.76916 0.63007 0.00667 0.0
C4317 C 0.72803 0.62768 0.0136 0.0
C4318 C 0.73304 0.63629 0.00424 0.0
C4319 C 0.74643 0.63702 0.00247 0.0
C4320 C 0.72475 0.6434 0.99493 0.0
C4321 C 0.71385 0.62716 0.01676 0.0
C4322 C 0.71613 0.6365 0.9871 0.0
C4323 C 0.71094 0.64217 0.97604 0.0
C4324 C 0.71435 0.65478 0.9726 0.0
C4325 C 0.72223 0.66203 0.98083 0.0
C4326 C 0.72732 0.65641 0.992 0.0
H4327 H 0.71234 0.62457 0.02704 0.0
H4328 H 0.70902 0.63651 0.0148 0.0
H4329 H 0.7092 0.61958 0.01081 0.0
H4330 H 0.71427 0.62638 0.98885 0.0
H4331 H 0.70512 0.63634 0.96962 0.0
H4332 H 0.19941 0.65135 0.4767 0.0
H4333 H 0.20537 0.64046 0.49693 0.0
H4334 H 0.24554 0.64746 0.48872 0.0
H4335 H 0.23967 0.65806 0.4686 0.0
H4336 H 0.22092 0.61806 0.49591 0.0
H4337 H 0.24332 0.65437 0.52765 0.0
H4338 H 0.23203 0.65862 0.51505 0.0
H4339 H 0.24882 0.65613 0.51135 0.0
C4340 C 0.20946 0.65095 0.47949 0.0
C4341 C 0.2191 0.65551 0.47113 0.0
C4342 C 0.21285 0.64469 0.491 0.0
C4343 C 0.22589 0.64328 0.4944 0.0
C4344 C 0.23542 0.64866 0.48644 0.0
H4345 H 0.28074 0.59293 0.51033 0.0
H4346 H 0.26072 0.60344 0.50398 0.0
C4347 C 0.23206 0.65466 0.4749 0.0
C4348 C 0.22995 0.63448 0.5049 0.0
H4349 H 0.25259 0.63262 0.52864 0.0
C4350 C 0.22749 0.62126 0.5034 0.0
C4351 C 0.23834 0.63863 0.5148 0.0
C4352 C 0.24067 0.65274 0.5174 0.0
C4353 C 0.2344 0.61204 0.51051 0.0
C4354 C 0.24402 0.61619 0.51921 0.0
C4355 C 0.24533 0.62941 0.52184 0.0
C4356 C 0.25448 0.60745 0.5235 0.0
C4357 C 0.232 0.59793 0.50797 0.0
C4358 C 0.25754 0.60598 0.53662 0.0
C4359 C 0.26899 0.59979 0.54028 0.0
C4360 C 0.27764 0.59534 0.53084 0.0
C4361 C 0.27421 0.59624 0.51779 0.0
C4362 C 0.26272 0.60219 0.51416 0.0
H4363 H 0.22183 0.59624 0.50505 0.0
H4364 H 0.23828 0.59468 0.49995 0.0
H4365 H 0.23418 0.59199 0.51661 0.0
H4366 H 0.25137 0.61012 0.54396 0.0
H4367 H 0.27152 0.59934 0.55041 0.0
H4368 H 0.7824 0.40557 0.98953 0.0
H4369 H 0.76239 0.39481 0.99536 0.0
H4370 H 0.75224 0.3915 0.95516 0.0
H4371 H 0.7725 0.40244 0.94921 0.0
H4372 H 0.73519 0.39878 0.98947 0.0
H4373 H 0.75591 0.3536 0.96888 0.0
H4374 H 0.76599 0.36748 0.97177 0.0
H4375 H 0.75441 0.36777 0.95894 0.0
C4376 C 0.77578 0.40285 0.98193 0.0
C4377 C 0.77902 0.40473 0.96893 0.0
C4378 C 0.76432 0.39673 0.98527 0.0
C4379 C 0.75591 0.39222 0.97569 0.0
C4380 C 0.75867 0.39483 0.96268 0.0
H4381 H 0.7008 0.34793 0.02323 0.0
H4382 H 0.70621 0.3586 0.00269 0.0
C4383 C 0.77017 0.40115 0.95931 0.0
C4384 C 0.74528 0.38354 0.97969 0.0
H4385 H 0.74035 0.35145 0.98506 0.0
C4386 C 0.7359 0.38843 0.98813 0.0
C4387 C 0.74629 0.37005 0.9779 0.0
C4388 C 0.75618 0.36431 0.96891 0.0
C4389 C 0.72848 0.38016 0.99588 0.0
C4390 C 0.7305 0.36669 0.99509 0.0
C4391 C 0.73884 0.36179 0.98562 0.0
C4392 C 0.72682 0.35812 0.00592 0.0
C4393 C 0.71959 0.38594 0.00585 0.0
C4394 C 0.73662 0.35383 0.01419 0.0
C4395 C 0.73358 0.34785 0.02581 0.0
C4396 C 0.72067 0.34591 0.02938 0.0
C4397 C 0.71084 0.34928 0.02067 0.0
C4398 C 0.7139 0.35543 0.009 0.0
H4399 H 0.71943 0.39664 0.00545 0.0
H4400 H 0.70964 0.38235 0.00429 0.0
H4401 H 0.72265 0.38293 0.01566 0.0
H4402 H 0.74664 0.3558 0.01201 0.0
H4403 H 0.74135 0.34528 0.03231 0.0
H4404 H 0.34545 0.534 0.24003 0.0
H4405 H 0.35645 0.51417 0.24614 0.0
H4406 H 0.35972 0.50342 0.2061 0.0
H4407 H 0.34855 0.52345 0.19986 0.0
H4408 H 0.35255 0.48673 0.24043 0.0
H4409 H 0.39765 0.5077 0.21992 0.0
H4410 H 0.3837 0.51767 0.22286 0.0
H4411 H 0.38353 0.50619 0.20992 0.0
C4412 C 0.34823 0.52728 0.23252 0.0
C4413 C 0.34626 0.53029 0.21948 0.0
C4414 C 0.35449 0.51593 0.23603 0.0
C4415 C 0.35903 0.50741 0.22657 0.0
C4416 C 0.35635 0.50993 0.21353 0.0
H4417 H 0.40354 0.45036 0.27175 0.0
H4418 H 0.39257 0.45698 0.25174 0.0
C4419 C 0.34991 0.52131 0.21 0.0
C4420 C 0.36776 0.49688 0.23066 0.0
H4421 H 0.39987 0.49166 0.23563 0.0
C4422 C 0.36289 0.48742 0.23902 0.0
C4423 C 0.38123 0.49788 0.2288 0.0
C4424 C 0.38694 0.50789 0.21992 0.0
C4425 C 0.37118 0.4798 0.24654 0.0
C4426 C 0.38466 0.48168 0.24558 0.0
C4427 C 0.38953 0.49023 0.23629 0.0
C4428 C 0.39338 0.47738 0.25604 0.0
C4429 C 0.36546 0.47073 0.25638 0.0
C4430 C 0.39796 0.48668 0.26473 0.0
C4431 C 0.40411 0.48296 0.27606 0.0
C4432 C 0.40594 0.46985 0.2789 0.0
C4433 C 0.40229 0.46054 0.26974 0.0
C4434 C 0.39596 0.46429 0.25838 0.0
H4435 H 0.35475 0.47078 0.25622 0.0
H4436 H 0.36882 0.46076 0.25445 0.0
H4437 H 0.36875 0.47344 0.2662 0.0
H4438 H 0.39607 0.49683 0.26311 0.0
H4439 H 0.40688 0.49034 0.28292 0.0
H4440 H 0.22612 0.09973 0.45253 0.0
H4441 H 0.24601 0.11102 0.45897 0.0
H4442 H 0.237 0.10385 0.49894 0.0
H4443 H 0.21722 0.09288 0.4926 0.0
H4444 H 0.2443 0.13347 0.47498 0.0
H4445 H 0.27613 0.09701 0.49714 0.0
H4446 H 0.26381 0.09289 0.48551 0.0
H4447 H 0.25972 0.09508 0.50225 0.0
C4448 C 0.22867 0.1002 0.46265 0.0
C4449 C 0.22019 0.09545 0.47209 0.0
C4450 C 0.23997 0.10668 0.46631 0.0
C4451 C 0.24305 0.10814 0.47943 0.0
C4452 C 0.23497 0.10262 0.48876 0.0
H4453 H 0.25935 0.15807 0.53521 0.0
H4454 H 0.25263 0.14754 0.51531 0.0
C4455 C 0.22363 0.09641 0.48514 0.0
C4456 C 0.25341 0.11697 0.48375 0.0
H4457 H 0.27711 0.11866 0.50647 0.0
C4458 C 0.2518 0.13023 0.48151 0.0
C4459 C 0.26329 0.11276 0.49213 0.0
C4460 C 0.26594 0.09864 0.4943 0.0
C4461 C 0.25884 0.13939 0.48858 0.0
C4462 C 0.26761 0.13514 0.49811 0.0
C4463 C 0.27027 0.12192 0.49925 0.0
C4464 C 0.27203 0.14381 0.50857 0.0
C4465 C 0.2562 0.15351 0.48641 0.0
C4466 C 0.2852 0.14543 0.51131 0.0
C4467 C 0.28907 0.15164 0.52268 0.0
C4468 C 0.2798 0.15596 0.53158 0.0
C4469 C 0.26668 0.15486 0.52849 0.0
C4470 C 0.26284 0.14891 0.51708 0.0
H4471 H 0.25303 0.15534 0.47634 0.0
H4472 H 0.24833 0.15667 0.49294 0.0
H4473 H 0.26488 0.15945 0.48846 0.0
H4474 H 0.29244 0.14142 0.50493 0.0
H4475 H 0.29925 0.15223 0.52494 0.0
H4476 H 0.79822 0.34704 0.47855 0.0
H4477 H 0.79155 0.35787 0.4986 0.0
H4478 H 0.75167 0.35227 0.48824 0.0
H4479 H 0.75823 0.34169 0.46833 0.0
H4480 H 0.77676 0.38074 0.49754 0.0
H4481 H 0.75173 0.34418 0.52696 0.0
H4482 H 0.76341 0.33996 0.51471 0.0
H4483 H 0.7469 0.3432 0.51038 0.0
C4484 C 0.78805 0.34777 0.48081 0.0
C4485 C 0.77872 0.34357 0.47192 0.0
C4486 C 0.78426 0.35398 0.49221 0.0
C4487 C 0.77112 0.35574 0.49498 0.0
C4488 C 0.76186 0.35079 0.48645 0.0
H4489 H 0.71734 0.40772 0.51103 0.0
H4490 H 0.73704 0.39654 0.50481 0.0
C4491 C 0.76561 0.34482 0.47503 0.0
C4492 C 0.76679 0.36435 0.50554 0.0
H4493 H 0.74327 0.3662 0.52842 0.0
C4494 C 0.76977 0.37752 0.50463 0.0
C4495 C 0.75783 0.36017 0.51492 0.0
C4496 C 0.75489 0.34607 0.5169 0.0
C4497 C 0.76292 0.38673 0.51181 0.0
C4498 C 0.75282 0.38262 0.51999 0.0
C4499 C 0.75091 0.36938 0.52203 0.0
C4500 C 0.7426 0.39162 0.52432 0.0
C4501 C 0.76593 0.40082 0.50992 0.0
C4502 C 0.73928 0.3928 0.5374 0.0
C4503 C 0.72802 0.39939 0.541 0.0
C4504 C 0.71983 0.40454 0.53151 0.0
C4505 C 0.72353 0.40388 0.51852 0.0
C4506 C 0.73482 0.39754 0.51497 0.0
H4507 H 0.77623 0.40224 0.50732 0.0
H4508 H 0.75998 0.40465 0.50189 0.0
H4509 H 0.76375 0.40648 0.51875 0.0
H4510 H 0.74507 0.38815 0.54475 0.0
H4511 H 0.72527 0.39964 0.55108 0.0
H4512 H 0.40697 0.01009 0.21886 0.0
H4513 H 0.39579 0.00446 0.23871 0.0
H4514 H 0.39148 0.04479 0.24794 0.0
H4515 H 0.40278 0.05053 0.22784 0.0
H4516 H 0.3987 0.01069 0.26575 0.0
H4517 H 0.35401 0.03074 0.24349 0.0
H4518 H 0.36827 0.02795 0.23393 0.0
H4519 H 0.36795 0.04091 0.24538 0.0
C4520 C 0.40393 0.01778 0.22525 0.0
C4521 C 0.40562 0.03074 0.22177 0.0
C4522 C 0.39758 0.01455 0.23662 0.0
C4523 C 0.39266 0.02421 0.24471 0.0
C4524 C 0.39512 0.0372 0.24176 0.0
H4525 H 0.3473 0.97794 0.30005 0.0
H4526 H 0.35812 0.9983 0.29427 0.0
C4527 C 0.40164 0.04046 0.23035 0.0
C4528 C 0.38371 0.02029 0.25514 0.0
H4529 H 0.35151 0.01512 0.25954 0.0
C4530 C 0.38837 0.01203 0.26478 0.0
C4531 C 0.37025 0.02208 0.2538 0.0
C4532 C 0.36472 0.03087 0.24361 0.0
C4533 C 0.37994 0.00444 0.27218 0.0
C4534 C 0.36651 0.00526 0.2699 0.0
C4535 C 0.36181 0.01455 0.26126 0.0
C4536 C 0.3578 0.9946 0.27373 0.0
C4537 C 0.3855 0.99464 0.28139 0.0
C4538 C 0.35352 0.98615 0.26409 0.0
C4539 C 0.34744 0.97464 0.26734 0.0
C4540 C 0.3454 0.97137 0.28031 0.0
C4541 C 0.34873 0.98028 0.28997 0.0
C4542 C 0.35498 0.99184 0.28669 0.0
H4543 H 0.39621 0.99491 0.28164 0.0
H4544 H 0.38185 0.99651 0.29127 0.0
H4545 H 0.38241 0.98479 0.27856 0.0
H4546 H 0.35559 0.98809 0.25403 0.0
H4547 H 0.34491 0.96798 0.25969 0.0
H4548 H 0.59807 0.45115 0.72836 0.0
H4549 H 0.60885 0.45737 0.74858 0.0
H4550 H 0.60313 0.49748 0.73916 0.0
H4551 H 0.59262 0.49136 0.71907 0.0
H4552 H 0.63166 0.47212 0.74766 0.0
H4553 H 0.59552 0.49668 0.77795 0.0
H4554 H 0.59113 0.48523 0.76554 0.0
H4555 H 0.59429 0.50182 0.76148 0.0
C4556 C 0.59873 0.46127 0.73087 0.0
C4557 C 0.59455 0.4708 0.72219 0.0
C4558 C 0.60492 0.4648 0.74238 0.0
C4559 C 0.60666 0.47789 0.74545 0.0
C4560 C 0.60167 0.48734 0.73715 0.0
H4561 H 0.65857 0.53142 0.76066 0.0
H4562 H 0.64743 0.51161 0.75478 0.0
C4563 C 0.59573 0.48383 0.72562 0.0
C4564 C 0.61538 0.48199 0.756 0.0
H4565 H 0.61755 0.50529 0.77909 0.0
C4566 C 0.62854 0.47903 0.75487 0.0
C4567 C 0.61133 0.49082 0.76556 0.0
C4568 C 0.59726 0.49371 0.7678 0.0
C4569 C 0.63784 0.48583 0.76197 0.0
C4570 C 0.63385 0.49586 0.77029 0.0
C4571 C 0.62064 0.4977 0.77258 0.0
C4572 C 0.64287 0.50616 0.77441 0.0
C4573 C 0.65191 0.48286 0.75982 0.0
C4574 C 0.64424 0.50959 0.78745 0.0
C4575 C 0.65081 0.52093 0.79085 0.0
C4576 C 0.65574 0.52908 0.78122 0.0
C4577 C 0.6549 0.52527 0.76827 0.0
C4578 C 0.64859 0.5139 0.76491 0.0
H4579 H 0.6533 0.47255 0.75725 0.0
H4580 H 0.65554 0.48877 0.75167 0.0
H4581 H 0.65774 0.48511 0.76852 0.0
H4582 H 0.63975 0.50383 0.79491 0.0
H4583 H 0.6512 0.52377 0.8009 0.0
H4584 H 0.47635 0.30009 0.85017 0.0
H4585 H 0.49664 0.29437 0.86109 0.0
H4586 H 0.48958 0.2542 0.85292 0.0
H4587 H 0.46941 0.25982 0.84229 0.0
H4588 H 0.49584 0.27849 0.883 0.0
H4589 H 0.52844 0.25722 0.84685 0.0
H4590 H 0.51566 0.26829 0.84257 0.0
H4591 H 0.51232 0.25136 0.84466 0.0
C4592 C 0.47942 0.29011 0.85031 0.0
C4593 C 0.47137 0.28037 0.84542 0.0
C4594 C 0.49097 0.28686 0.85658 0.0
C4595 C 0.4947 0.27387 0.85768 0.0
C4596 C 0.48706 0.26429 0.85195 0.0
H4597 H 0.50921 0.21828 0.90708 0.0
H4598 H 0.50339 0.23858 0.89681 0.0
C4599 C 0.47549 0.2675 0.84594 0.0
C4600 C 0.50515 0.26983 0.86655 0.0
H4601 H 0.5289 0.24719 0.86838 0.0
C4602 C 0.50341 0.27202 0.8798 0.0
C4603 C 0.51519 0.26158 0.86242 0.0
C4604 C 0.5181 0.2596 0.84832 0.0
C4605 C 0.51034 0.26491 0.889 0.0
C4606 C 0.51911 0.25536 0.8848 0.0
C4607 C 0.52203 0.25439 0.87162 0.0
C4608 C 0.52307 0.24461 0.89335 0.0
C4609 C 0.50753 0.26701 0.9031 0.0
C4610 C 0.53611 0.24132 0.89502 0.0
C4611 C 0.53947 0.22968 0.90106 0.0
C4612 C 0.52981 0.2211 0.90516 0.0
C4613 C 0.51683 0.22474 0.90403 0.0
C4614 C 0.5135 0.23639 0.89823 0.0
H4615 H 0.50471 0.27717 0.90497 0.0
H4616 H 0.49933 0.26077 0.90602 0.0
H4617 H 0.516 0.26456 0.90918 0.0
H4618 H 0.54363 0.24746 0.89117 0.0
H4619 H 0.54955 0.22701 0.9017 0.0
H4620 H 0.52383 0.1985 0.34877 0.0
H4621 H 0.5037 0.20414 0.36007 0.0
H4622 H 0.51083 0.2444 0.35241 0.0
H4623 H 0.5308 0.23886 0.34139 0.0
H4624 H 0.50446 0.2197 0.38221 0.0
H4625 H 0.47201 0.24157 0.34628 0.0
H4626 H 0.48482 0.23058 0.34186 0.0
H4627 H 0.48813 0.24748 0.34424 0.0
C4628 C 0.52081 0.20849 0.34913 0.0
C4629 C 0.52882 0.21827 0.34424 0.0
C4630 C 0.50937 0.2117 0.35561 0.0
C4631 C 0.50568 0.22468 0.35694 0.0
C4632 C 0.5133 0.23431 0.35127 0.0
H4633 H 0.49093 0.27946 0.40732 0.0
H4634 H 0.49679 0.25924 0.39693 0.0
C4635 C 0.52477 0.23115 0.34504 0.0
C4636 C 0.49523 0.22864 0.36586 0.0
H4637 H 0.47148 0.25125 0.36795 0.0
C4638 C 0.49691 0.22623 0.37908 0.0
C4639 C 0.48522 0.23696 0.36183 0.0
C4640 C 0.48235 0.23918 0.34775 0.0
C4641 C 0.48993 0.23319 0.38836 0.0
C4642 C 0.48118 0.24282 0.38429 0.0
C4643 C 0.47833 0.24401 0.3711 0.0
C4644 C 0.47714 0.25341 0.393 0.0
C4645 C 0.49264 0.23081 0.40244 0.0
C4646 C 0.46409 0.25679 0.39448 0.0
C4647 C 0.46071 0.26838 0.40059 0.0
C4648 C 0.47036 0.27684 0.40497 0.0
C4649 C 0.48332 0.27309 0.40407 0.0
C4650 C 0.48667 0.26148 0.3982 0.0
H4651 H 0.49535 0.22059 0.40414 0.0
H4652 H 0.50088 0.23691 0.40552 0.0
H4653 H 0.48416 0.23323 0.40852 0.0
H4654 H 0.4566 0.25077 0.39039 0.0
H4655 H 0.45065 0.27115 0.40104 0.0
H4656 H 0.46553 0.75857 0.34431 0.0
H4657 H 0.48539 0.7527 0.35538 0.0
H4658 H 0.49621 0.79279 0.35764 0.0
H4659 H 0.47616 0.79879 0.3464 0.0
H4660 H 0.51282 0.75832 0.35119 0.0
H4661 H 0.49209 0.77988 0.39592 0.0
H4662 H 0.48205 0.77662 0.38209 0.0
H4663 H 0.49353 0.78953 0.38154 0.0
C4664 C 0.47226 0.76614 0.34688 0.0
C4665 C 0.46927 0.77913 0.34461 0.0
C4666 C 0.48363 0.76277 0.35318 0.0
C4667 C 0.49218 0.77232 0.35745 0.0
C4668 C 0.48967 0.78529 0.35448 0.0
H4669 H 0.54911 0.72767 0.40249 0.0
H4670 H 0.54264 0.74763 0.39136 0.0
C4671 C 0.47828 0.78869 0.348 0.0
C4672 C 0.50275 0.76843 0.36623 0.0
H4673 H 0.50808 0.76416 0.39842 0.0
C4674 C 0.51218 0.75996 0.36151 0.0
C4675 C 0.50181 0.7706 0.37966 0.0
C4676 C 0.49184 0.77963 0.38521 0.0
C4677 C 0.51982 0.75261 0.36993 0.0
C4678 C 0.51797 0.75386 0.38339 0.0
C4679 C 0.50948 0.76328 0.38809 0.0
C4680 C 0.5222 0.74353 0.3923 0.0
C4681 C 0.52884 0.74263 0.36439 0.0
C4682 C 0.51284 0.73499 0.39702 0.0
C4683 C 0.51648 0.72368 0.40327 0.0
C4684 C 0.52956 0.72073 0.40504 0.0
C4685 C 0.53895 0.72977 0.40129 0.0
C4686 C 0.53528 0.74111 0.39487 0.0
H4687 H 0.52876 0.74257 0.35367 0.0
H4688 H 0.53882 0.74458 0.36769 0.0
H4689 H 0.5261 0.73288 0.36787 0.0
H4690 H 0.5027 0.73668 0.39515 0.0
H4691 H 0.50905 0.71691 0.40612 0.0
H4692 H 0.52255 0.70133 0.84746 0.0
H4693 H 0.50259 0.70765 0.85864 0.0
H4694 H 0.51189 0.7477 0.85238 0.0
H4695 H 0.53173 0.74148 0.84146 0.0
H4696 H 0.50418 0.72265 0.88133 0.0
H4697 H 0.47289 0.74677 0.84571 0.0
H4698 H 0.48522 0.7353 0.84112 0.0
H4699 H 0.48933 0.75192 0.84409 0.0
C4700 C 0.52005 0.71145 0.84808 0.0
C4701 C 0.52864 0.72094 0.84363 0.0
C4702 C 0.5087 0.71504 0.85451 0.0
C4703 C 0.50569 0.72814 0.85622 0.0
C4704 C 0.51386 0.73755 0.85095 0.0
H4705 H 0.49003 0.78185 0.9086 0.0
H4706 H 0.49642 0.76228 0.89729 0.0
C4707 C 0.52524 0.73398 0.84477 0.0
C4708 C 0.49535 0.73231 0.86518 0.0
H4709 H 0.472 0.7553 0.86772 0.0
C4710 C 0.49682 0.72945 0.87833 0.0
C4711 C 0.48563 0.74102 0.86128 0.0
C4712 C 0.48308 0.74382 0.84725 0.0
C4713 C 0.48982 0.73619 0.88775 0.0
C4714 C 0.48124 0.74605 0.88388 0.0
C4715 C 0.47869 0.74783 0.87071 0.0
C4716 C 0.47693 0.75619 0.89298 0.0
C4717 C 0.49229 0.73332 0.90178 0.0
C4718 C 0.4638 0.75917 0.89456 0.0
C4719 C 0.46011 0.77036 0.90121 0.0
C4720 C 0.46953 0.77882 0.90604 0.0
C4721 C 0.48258 0.77546 0.90501 0.0
C4722 C 0.48624 0.76423 0.8986 0.0
H4723 H 0.49519 0.7231 0.90316 0.0
H4724 H 0.50031 0.73949 0.90527 0.0
H4725 H 0.48363 0.73532 0.90775 0.0
H4726 H 0.45648 0.75317 0.89015 0.0
H4727 H 0.44998 0.77285 0.90174 0.0
H4728 H 0.65696 0.96572 0.74212 0.0
H4729 H 0.64596 0.98555 0.7482 0.0
H4730 H 0.64225 0.99601 0.70812 0.0
H4731 H 0.65339 0.97596 0.70192 0.0
H4732 H 0.64928 0.01283 0.74265 0.0
H4733 H 0.60454 0.99142 0.7218 0.0
H4734 H 0.61869 0.98168 0.72457 0.0
H4735 H 0.61859 0.99332 0.71178 0.0
C4736 C 0.65411 0.97239 0.7346 0.0
C4737 C 0.65592 0.96927 0.72155 0.0
C4738 C 0.64785 0.98374 0.73808 0.0
C4739 C 0.64314 0.99216 0.72861 0.0
C4740 C 0.64573 0.98957 0.71556 0.0
H4741 H 0.59769 0.04833 0.77399 0.0
H4742 H 0.60893 0.04206 0.75401 0.0
C4743 C 0.65216 0.97819 0.71205 0.0
C4744 C 0.63426 0.00258 0.7327 0.0
H4745 H 0.60206 0.00743 0.73746 0.0
C4746 C 0.63896 0.01203 0.74117 0.0
C4747 C 0.62081 0.00145 0.73074 0.0
C4748 C 0.61525 0.99143 0.72176 0.0
C4749 C 0.63053 0.01951 0.74868 0.0
C4750 C 0.61708 0.01748 0.74761 0.0
C4751 C 0.61238 0.00896 0.73821 0.0
C4752 C 0.60822 0.02159 0.75804 0.0
C4753 C 0.63608 0.02855 0.75864 0.0
C4754 C 0.60362 0.01215 0.76655 0.0
C4755 C 0.59731 0.01568 0.77786 0.0
C4756 C 0.59535 0.02873 0.78085 0.0
C4757 C 0.59904 0.03819 0.77186 0.0
C4758 C 0.60552 0.03464 0.76052 0.0
H4759 H 0.64679 0.02859 0.75858 0.0
H4760 H 0.63265 0.03851 0.75675 0.0
H4761 H 0.63273 0.02574 0.76841 0.0
H4762 H 0.6056 0.00203 0.76482 0.0
H4763 H 0.59451 0.00818 0.78459 0.0
H4764 H 0.65748 0.46722 0.24135 0.0
H4765 H 0.64659 0.487 0.2478 0.0
H4766 H 0.64175 0.49756 0.20786 0.0
H4767 H 0.6528 0.47757 0.2013 0.0
H4768 H 0.64949 0.51447 0.2421 0.0
H4769 H 0.60446 0.49228 0.22271 0.0
H4770 H 0.61881 0.48273 0.2251 0.0
H4771 H 0.61821 0.49435 0.2123 0.0
C4772 C 0.65442 0.47391 0.23394 0.0
C4773 C 0.65587 0.47084 0.22084 0.0
C4774 C 0.64823 0.48523 0.23763 0.0
C4775 C 0.64323 0.49365 0.22831 0.0
C4776 C 0.64547 0.49112 0.21519 0.0
H4777 H 0.59736 0.54854 0.27497 0.0
H4778 H 0.60837 0.54261 0.25476 0.0
C4779 C 0.65185 0.47977 0.21146 0.0
C4780 C 0.63433 0.50394 0.23267 0.0
H4781 H 0.60223 0.50805 0.23867 0.0
C4782 C 0.63914 0.51346 0.24098 0.0
C4783 C 0.62084 0.50253 0.23119 0.0
C4784 C 0.61517 0.49243 0.22238 0.0
C4785 C 0.63083 0.52073 0.24883 0.0
C4786 C 0.61741 0.51839 0.24827 0.0
C4787 C 0.61254 0.50982 0.23902 0.0
C4788 C 0.60889 0.5222 0.25908 0.0
C4789 C 0.63652 0.52989 0.2586 0.0
C4790 C 0.60514 0.51265 0.26788 0.0
C4791 C 0.59898 0.51599 0.27933 0.0
C4792 C 0.59633 0.52895 0.28217 0.0
C4793 C 0.59926 0.53847 0.27296 0.0
C4794 C 0.6056 0.53511 0.26148 0.0
H4795 H 0.6472 0.53042 0.25794 0.0
H4796 H 0.63254 0.5397 0.25708 0.0
H4797 H 0.63385 0.52679 0.26849 0.0
H4798 H 0.6076 0.50263 0.2662 0.0
H4799 H 0.59678 0.50845 0.28622 0.0
H4800 H 0.06051 0.35658 0.06154 0.0
H4801 H 0.08183 0.36396 0.05518 0.0
H4802 H 0.09905 0.33148 0.07464 0.0
H4803 H 0.0775 0.32379 0.08086 0.0
H4804 H 0.10051 0.37105 0.07236 0.0
H4805 H 0.11828 0.33197 0.04014 0.0
H4806 H 0.10149 0.33357 0.04446 0.0
H4807 H 0.11279 0.32702 0.05582 0.0
C4808 C 0.0688 0.3509 0.06437 0.0
C4809 C 0.06734 0.33965 0.07178 0.0
C4810 C 0.08099 0.35513 0.0607 0.0
C4811 C 0.09203 0.34827 0.0644 0.0
C4812 C 0.09064 0.33681 0.0715 0.0
H4813 H 0.17148 0.37585 0.05677 0.0
H4814 H 0.1525 0.36313 0.06281 0.0
C4815 C 0.07835 0.33245 0.07508 0.0
C4816 C 0.10486 0.35385 0.06155 0.0
H4817 H 0.13247 0.34938 0.04413 0.0
C4818 C 0.10751 0.36628 0.06624 0.0
C4819 C 0.11401 0.34756 0.05362 0.0
C4820 C 0.11152 0.33433 0.04812 0.0
C4821 C 0.1189 0.37273 0.06294 0.0
C4822 C 0.12785 0.36661 0.05472 0.0
C4823 C 0.12549 0.35402 0.05038 0.0
C4824 C 0.13948 0.37346 0.05025 0.0
C4825 C 0.12124 0.38613 0.0681 0.0
C4826 C 0.13839 0.38331 0.04105 0.0
C4827 C 0.14918 0.39057 0.03755 0.0
C4828 C 0.16121 0.3881 0.04326 0.0
C4829 C 0.16232 0.37799 0.05224 0.0
C4830 C 0.15153 0.37069 0.05567 0.0
H4831 H 0.11444 0.38866 0.07599 0.0
H4832 H 0.13127 0.38703 0.07176 0.0
H4833 H 0.12001 0.39323 0.06019 0.0
H4834 H 0.12912 0.38555 0.03677 0.0
H4835 H 0.14804 0.39827 0.03059 0.0
H4836 H 0.9303 0.32604 0.3246 0.0
H4837 H 0.9231 0.34778 0.31847 0.0
H4838 H 0.8836 0.33487 0.31898 0.0
H4839 H 0.89054 0.31338 0.32512 0.0
H4840 H 0.90734 0.35545 0.29635 0.0
H4841 H 0.88404 0.36667 0.34313 0.0
H4842 H 0.89579 0.35393 0.34131 0.0
H4843 H 0.8793 0.35135 0.33658 0.0
C4844 C 0.92009 0.32785 0.32342 0.0
C4845 C 0.91102 0.31795 0.32544 0.0
C4846 C 0.916 0.34025 0.31991 0.0
C4847 C 0.90281 0.34294 0.31848 0.0
C4848 C 0.89381 0.33305 0.32027 0.0
H4849 H 0.85524 0.39788 0.28053 0.0
H4850 H 0.86913 0.37981 0.28667 0.0
C4851 C 0.89783 0.32073 0.32374 0.0
C4852 C 0.89821 0.35598 0.31499 0.0
H4853 H 0.87764 0.37958 0.32508 0.0
C4854 C 0.90102 0.36086 0.30269 0.0
C4855 C 0.89008 0.36306 0.32334 0.0
C4856 C 0.88721 0.35856 0.33688 0.0
C4857 C 0.89532 0.37233 0.29826 0.0
C4858 C 0.88653 0.37895 0.30632 0.0
C4859 C 0.88429 0.37442 0.31886 0.0
C4860 C 0.87905 0.39024 0.30179 0.0
C4861 C 0.89862 0.37719 0.28496 0.0
C4862 C 0.87995 0.40204 0.30832 0.0
C4863 C 0.872 0.41235 0.30487 0.0
C4864 C 0.86291 0.41099 0.2949 0.0
C4865 C 0.86217 0.39923 0.28822 0.0
C4866 C 0.87016 0.38892 0.29166 0.0
H4867 H 0.90798 0.37325 0.28154 0.0
H4868 H 0.89103 0.37408 0.2781 0.0
H4869 H 0.8991 0.38789 0.28478 0.0
H4870 H 0.88667 0.40321 0.31624 0.0
H4871 H 0.87278 0.42129 0.31021 0.0
H4872 H 0.82561 0.12907 0.55474 0.0
H4873 H 0.84326 0.14357 0.56053 0.0
H4874 H 0.86893 0.12229 0.53566 0.0
H4875 H 0.85125 0.10792 0.52961 0.0
H4876 H 0.86473 0.13629 0.57291 0.0
H4877 H 0.87831 0.15912 0.5267 0.0
H4878 H 0.86321 0.15074 0.5289 0.0
H4879 H 0.87773 0.14188 0.52538 0.0
C4880 C 0.83496 0.12761 0.55032 0.0
C4881 C 0.83707 0.11734 0.54174 0.0
C4882 C 0.84503 0.13592 0.55364 0.0
C4883 C 0.85737 0.13413 0.5484 0.0
C4884 C 0.85941 0.12407 0.53957 0.0
H4885 H 0.93137 0.1428 0.5787 0.0
H4886 H 0.9096 0.13735 0.57205 0.0
C4887 C 0.84933 0.11578 0.5362 0.0
C4888 C 0.8684 0.14184 0.55321 0.0
H4889 H 0.8947 0.15902 0.54335 0.0
C4890 C 0.87114 0.14148 0.56646 0.0
C4891 C 0.87666 0.14879 0.54486 0.0
C4892 C 0.87375 0.15028 0.53069 0.0
C4893 C 0.88233 0.14715 0.57145 0.0
C4894 C 0.89112 0.15315 0.56294 0.0
C4895 C 0.888 0.15428 0.54983 0.0
C4896 C 0.90419 0.15691 0.56725 0.0
C4897 C 0.88486 0.14632 0.58576 0.0
C4898 C 0.90845 0.16974 0.56654 0.0
C4899 C 0.92102 0.17294 0.57035 0.0
C4900 C 0.92953 0.16331 0.57472 0.0
C4901 C 0.92513 0.15049 0.57538 0.0
C4902 C 0.91264 0.14734 0.57165 0.0
H4903 H 0.87574 0.14524 0.59128 0.0
H4904 H 0.89094 0.13775 0.58777 0.0
H4905 H 0.89003 0.15501 0.58929 0.0
H4906 H 0.90207 0.17723 0.56306 0.0
H4907 H 0.92412 0.18289 0.56967 0.0
H4908 H 0.12986 0.08066 0.80858 0.0
H4909 H 0.11666 0.09922 0.81443 0.0
H4910 H 0.12799 0.11844 0.7793 0.0
H4911 H 0.14172 0.10006 0.77369 0.0
H4912 H 0.13078 0.13388 0.79852 0.0
H4913 H 0.08241 0.11222 0.80325 0.0
H4914 H 0.0938 0.10388 0.8132 0.0
H4915 H 0.0957 0.1037 0.79592 0.0
C4916 C 0.12938 0.08876 0.802 0.0
C4917 C 0.1368 0.08893 0.79067 0.0
C4918 C 0.12172 0.09933 0.8053 0.0
C4919 C 0.12108 0.11015 0.79719 0.0
C4920 C 0.12825 0.11017 0.78568 0.0
H4921 H 0.07188 0.1772 0.81374 0.0
H4922 H 0.08003 0.15674 0.80497 0.0
C4923 C 0.13609 0.09968 0.78248 0.0
C4924 C 0.11403 0.12191 0.80136 0.0
H4925 H 0.08558 0.13261 0.81412 0.0
C4926 C 0.12084 0.1336 0.80175 0.0
C4927 C 0.10098 0.12166 0.80541 0.0
C4928 C 0.09278 0.10971 0.80429 0.0
C4929 C 0.11516 0.1449 0.8065 0.0
C4930 C 0.10245 0.14442 0.81146 0.0
C4931 C 0.09542 0.1329 0.81058 0.0
C4932 C 0.0965 0.1558 0.81776 0.0
C4933 C 0.12286 0.15725 0.80608 0.0
C4934 C 0.10269 0.16168 0.82825 0.0
C4935 C 0.09819 0.17338 0.83311 0.0
C4936 C 0.08721 0.17925 0.82779 0.0
C4937 C 0.08037 0.17285 0.818 0.0
C4938 C 0.08503 0.16121 0.81297 0.0
H4939 H 0.13039 0.15691 0.79847 0.0
H4940 H 0.11657 0.16572 0.80426 0.0
H4941 H 0.1278 0.15864 0.81547 0.0
H4942 H 0.1113 0.15746 0.83239 0.0
H4943 H 0.10351 0.17802 0.84081 0.0
H4944 H 0.07349 0.677 0.93758 0.0
H4945 H 0.09411 0.66905 0.94603 0.0
H4946 H 0.09448 0.63923 0.91699 0.0
H4947 H 0.07367 0.64676 0.90898 0.0
H4948 H 0.09802 0.62922 0.93976 0.0
H4949 H 0.13095 0.67104 0.93469 0.0
H4950 H 0.11666 0.67462 0.94376 0.0
H4951 H 0.11538 0.67046 0.92696 0.0
C4952 C 0.07816 0.66894 0.93285 0.0
C4953 C 0.07202 0.66244 0.92268 0.0
C4954 C 0.08996 0.66443 0.93765 0.0
C4955 C 0.09591 0.65357 0.93211 0.0
C4956 C 0.09006 0.64757 0.92147 0.0
H4957 H 0.17143 0.62139 0.94235 0.0
H4958 H 0.15246 0.63391 0.93627 0.0
C4959 C 0.0782 0.65189 0.91688 0.0
C4960 C 0.10753 0.64761 0.93799 0.0
H4961 H 0.13878 0.65318 0.94676 0.0
C4962 C 0.10694 0.63448 0.94127 0.0
C4963 C 0.11918 0.65444 0.93993 0.0
C4964 C 0.12066 0.66838 0.93604 0.0
C4965 C 0.11769 0.62791 0.94613 0.0
C4966 C 0.12927 0.63478 0.94832 0.0
C4967 C 0.12984 0.64797 0.94524 0.0
C4968 C 0.14114 0.6282 0.95286 0.0
C4969 C 0.11665 0.61354 0.94834 0.0
C4970 C 0.14124 0.6211 0.9644 0.0
C4971 C 0.15202 0.61374 0.9678 0.0
C4972 C 0.16297 0.6136 0.95984 0.0
C4973 C 0.16312 0.62128 0.94868 0.0
C4974 C 0.15229 0.62848 0.9452 0.0
H4975 H 0.10839 0.60928 0.94302 0.0
H4976 H 0.12559 0.60851 0.94528 0.0
H4977 H 0.11513 0.61168 0.95877 0.0
H4978 H 0.13286 0.62102 0.97064 0.0
H4979 H 0.1517 0.60801 0.97652 0.0
H4980 H 0.60665 0.31597 0.18371 0.0
H4981 H 0.61271 0.33756 0.19047 0.0
H4982 H 0.57502 0.35169 0.18016 0.0
H4983 H 0.56872 0.32985 0.17324 0.0
H4984 H 0.60926 0.36104 0.17138 0.0
H4985 H 0.58602 0.36395 0.21977 0.0
H4986 H 0.59107 0.34858 0.21332 0.0
H4987 H 0.57767 0.35684 0.20623 0.0
C4988 C 0.59956 0.32359 0.18287 0.0
C4989 C 0.5872 0.32117 0.17781 0.0
C4990 C 0.60306 0.33593 0.1868 0.0
C4991 C 0.59432 0.34615 0.1858 0.0
C4992 C 0.58186 0.34384 0.18104 0.0
H4993 H 0.62508 0.42455 0.19444 0.0
H4994 H 0.61066 0.4069 0.18833 0.0
C4995 C 0.57829 0.33139 0.1771 0.0
C4996 C 0.59877 0.35924 0.18917 0.0
H4997 H 0.60114 0.38013 0.21449 0.0
C4998 C 0.60728 0.3654 0.18067 0.0
C4999 C 0.59625 0.36472 0.20137 0.0
C5000 C 0.58726 0.35825 0.21078 0.0
C5001 C 0.61378 0.3767 0.18427 0.0
C5002 C 0.61159 0.38198 0.19665 0.0
C5003 C 0.60273 0.37606 0.20499 0.0
C5004 C 0.61922 0.39306 0.20137 0.0
C5005 C 0.62347 0.38251 0.17508 0.0
C5006 C 0.62854 0.39119 0.211 0.0
C5007 C 0.6368 0.40124 0.21452 0.0
C5008 C 0.63582 0.41333 0.20848 0.0
C5009 C 0.62611 0.41532 0.19922 0.0
C5010 C 0.61787 0.40526 0.1957 0.0
H5011 H 0.6255 0.3761 0.16675 0.0
H5012 H 0.61967 0.39178 0.17132 0.0
H5013 H 0.63268 0.38456 0.18015 0.0
H5014 H 0.62971 0.38182 0.21547 0.0
H5015 H 0.64416 0.39944 0.22171 0.0
H5016 H 0.8242 0.87485 0.44883 0.0
H5017 H 0.84147 0.86012 0.44253 0.0
H5018 H 0.86851 0.88207 0.46528 0.0
H5019 H 0.85119 0.89666 0.47188 0.0
H5020 H 0.86214 0.86669 0.42874 0.0
H5021 H 0.87835 0.84565 0.47496 0.0
H5022 H 0.86323 0.85415 0.47336 0.0
H5023 H 0.87804 0.86293 0.47554 0.0
C5024 C 0.83378 0.87641 0.45269 0.0
C5025 C 0.83635 0.88693 0.46083 0.0
C5026 C 0.84363 0.86797 0.44907 0.0
C5027 C 0.85626 0.86989 0.45354 0.0
C5028 C 0.85879 0.88021 0.46196 0.0
H5029 H 0.92822 0.85743 0.41861 0.0
H5030 H 0.90699 0.86407 0.42596 0.0
C5031 C 0.8489 0.8886 0.46565 0.0
C5032 C 0.86698 0.86194 0.44839 0.0
H5033 H 0.89352 0.84463 0.45731 0.0
C5034 C 0.86887 0.86168 0.43499 0.0
C5035 C 0.87565 0.85521 0.4565 0.0
C5036 C 0.87364 0.85437 0.47088 0.0
C5037 C 0.87959 0.85551 0.42954 0.0
C5038 C 0.88879 0.84966 0.43772 0.0
C5039 C 0.88652 0.84924 0.45106 0.0
C5040 C 0.90139 0.84516 0.43275 0.0
C5041 C 0.88112 0.85556 0.41507 0.0
C5042 C 0.90538 0.83231 0.43428 0.0
C5043 C 0.91763 0.82843 0.43009 0.0
C5044 C 0.92613 0.83742 0.42449 0.0
C5045 C 0.92198 0.85024 0.4229 0.0
C5046 C 0.90978 0.85406 0.42701 0.0
H5047 H 0.87165 0.85652 0.41015 0.0
H5048 H 0.88715 0.86393 0.4122 0.0
H5049 H 0.8859 0.84662 0.41163 0.0
H5050 H 0.89905 0.82532 0.43877 0.0
H5051 H 0.92055 0.8185 0.43151 0.0
H5052 H 0.37201 0.08008 0.69223 0.0
H5053 H 0.38509 0.09881 0.68662 0.0
H5054 H 0.37356 0.11752 0.72196 0.0
H5055 H 0.35993 0.099 0.7273 0.0
H5056 H 0.37071 0.13321 0.70311 0.0
H5057 H 0.4192 0.11196 0.69783 0.0
H5058 H 0.40786 0.10373 0.68773 0.0
H5059 H 0.40599 0.1032 0.70501 0.0
C5060 C 0.37243 0.0881 0.69891 0.0
C5061 C 0.36497 0.0881 0.71022 0.0
C5062 C 0.38002 0.09877 0.69574 0.0
C5063 C 0.38056 0.10951 0.70398 0.0
C5064 C 0.37337 0.10934 0.71547 0.0
H5065 H 0.42962 0.17686 0.68797 0.0
H5066 H 0.42148 0.15635 0.69663 0.0
C5067 C 0.36559 0.09876 0.71853 0.0
C5068 C 0.38752 0.12139 0.69997 0.0
H5069 H 0.41584 0.13251 0.6873 0.0
C5070 C 0.38064 0.13305 0.69984 0.0
C5071 C 0.40055 0.1213 0.69587 0.0
C5072 C 0.40885 0.10939 0.69676 0.0
C5073 C 0.38624 0.14447 0.6953 0.0
C5074 C 0.39892 0.14418 0.69027 0.0
C5075 C 0.40602 0.13267 0.69089 0.0
C5076 C 0.40477 0.1557 0.68412 0.0
C5077 C 0.37847 0.15677 0.69604 0.0
C5078 C 0.39843 0.16179 0.67384 0.0
C5079 C 0.40292 0.17353 0.66907 0.0
C5080 C 0.41405 0.17924 0.67424 0.0
C5081 C 0.42101 0.17265 0.68383 0.0
C5082 C 0.41635 0.16097 0.68879 0.0
H5083 H 0.37105 0.15625 0.70376 0.0
H5084 H 0.38473 0.16525 0.69792 0.0
H5085 H 0.37338 0.15829 0.68675 0.0
H5086 H 0.38973 0.15768 0.66978 0.0
H5087 H 0.3975 0.1783 0.66152 0.0
H5088 H 0.05628 0.17362 0.37425 0.0
H5089 H 0.06244 0.15567 0.36027 0.0
H5090 H 0.03712 0.13041 0.38151 0.0
H5091 H 0.03071 0.14839 0.39536 0.0
H5092 H 0.0746 0.13418 0.36796 0.0
H5093 H 0.02857 0.12073 0.34465 0.0
H5094 H 0.03077 0.13589 0.35295 0.0
H5095 H 0.02714 0.12144 0.36187 0.0
C5096 C 0.05187 0.16428 0.37582 0.0
C5097 C 0.04302 0.1624 0.38591 0.0
C5098 C 0.05539 0.15404 0.36781 0.0
C5099 C 0.05012 0.14173 0.36972 0.0
C5100 C 0.04108 0.13989 0.37964 0.0
H5101 H 0.08105 0.06753 0.35964 0.0
H5102 H 0.07446 0.08914 0.36581 0.0
C5103 C 0.0375 0.15015 0.38762 0.0
C5104 C 0.05496 0.13059 0.36218 0.0
H5105 H 0.04525 0.10449 0.34462 0.0
C5106 C 0.0682 0.12781 0.36267 0.0
C5107 C 0.04667 0.12239 0.3551 0.0
C5108 C 0.03252 0.12534 0.35348 0.0
C5109 C 0.07325 0.11668 0.35691 0.0
C5110 C 0.0648 0.10798 0.35068 0.0
C5111 C 0.05169 0.11111 0.34952 0.0
C5112 C 0.06917 0.09505 0.34652 0.0
C5113 C 0.08755 0.11418 0.35777 0.0
C5114 C 0.06819 0.0911 0.3336 0.0
C5115 C 0.07194 0.07861 0.32999 0.0
C5116 C 0.07653 0.06987 0.33929 0.0
C5117 C 0.07752 0.07396 0.3522 0.0
C5118 C 0.07385 0.08637 0.35576 0.0
H5119 H 0.09304 0.12331 0.35899 0.0
H5120 H 0.08954 0.10802 0.36629 0.0
H5121 H 0.09116 0.10913 0.34905 0.0
H5122 H 0.06451 0.09765 0.32635 0.0
H5123 H 0.07101 0.07575 0.31999 0.0
H5124 H 0.17782 0.31266 0.57295 0.0
H5125 H 0.15704 0.30469 0.58099 0.0
H5126 H 0.15621 0.33537 0.60912 0.0
H5127 H 0.17717 0.34291 0.60152 0.0
H5128 H 0.15282 0.3132 0.62037 0.0
H5129 H 0.12008 0.31547 0.5782 0.0
H5130 H 0.13448 0.30641 0.5751 0.0
H5131 H 0.13556 0.32341 0.57841 0.0
C5132 C 0.173 0.31785 0.58063 0.0
C5133 C 0.17906 0.32834 0.58668 0.0
C5134 C 0.16111 0.31333 0.58519 0.0
C5135 C 0.155 0.31946 0.59564 0.0
C5136 C 0.16075 0.33044 0.6011 0.0
H5137 H 0.07954 0.30773 0.62836 0.0
H5138 H 0.09818 0.31437 0.61561 0.0
C5139 C 0.1727 0.33476 0.59675 0.0
C5140 C 0.14341 0.31378 0.60185 0.0
H5141 H 0.11247 0.30382 0.59651 0.0
C5142 C 0.14399 0.3112 0.61513 0.0
C5143 C 0.13186 0.31121 0.59505 0.0
C5144 C 0.13038 0.31438 0.58093 0.0
C5145 C 0.13335 0.30629 0.62185 0.0
C5146 C 0.12191 0.30338 0.61501 0.0
C5147 C 0.12132 0.30588 0.6017 0.0
C5148 C 0.11026 0.29848 0.62169 0.0
C5149 C 0.13434 0.30475 0.6363 0.0
C5150 C 0.11071 0.28711 0.62906 0.0
C5151 C 0.10012 0.28339 0.63652 0.0
C5152 C 0.08881 0.29084 0.63653 0.0
C5153 C 0.08813 0.3018 0.62858 0.0
C5154 C 0.09877 0.3056 0.62126 0.0
H5155 H 0.14233 0.3106 0.64039 0.0
H5156 H 0.12523 0.30762 0.64114 0.0
H5157 H 0.1363 0.29449 0.63863 0.0
H5158 H 0.11938 0.28129 0.62928 0.0
H5159 H 0.10086 0.27483 0.64246 0.0
H5160 H 0.93032 0.42376 0.81869 0.0
H5161 H 0.9375 0.40212 0.8252 0.0
H5162 H 0.92716 0.41052 0.86458 0.0
H5163 H 0.91992 0.43189 0.85827 0.0
H5164 H 0.95693 0.39596 0.84385 0.0
H5165 H 0.90945 0.37579 0.85753 0.0
H5166 H 0.91109 0.38994 0.84751 0.0
H5167 H 0.91246 0.39123 0.86476 0.0
C5168 C 0.92946 0.42093 0.8287 0.0
C5169 C 0.92454 0.42958 0.83794 0.0
C5170 C 0.93359 0.4086 0.8324 0.0
C5171 C 0.9327 0.40469 0.84533 0.0
C5172 C 0.92772 0.41326 0.85451 0.0
H5173 H 0.97157 0.35194 0.89468 0.0
H5174 H 0.96517 0.36988 0.88077 0.0
C5175 C 0.92366 0.42553 0.85087 0.0
C5176 C 0.93739 0.39189 0.84957 0.0
H5177 H 0.92805 0.36534 0.86658 0.0
C5178 C 0.9506 0.38913 0.84862 0.0
C5179 C 0.92909 0.38294 0.85565 0.0
C5180 C 0.91471 0.38505 0.85632 0.0
C5181 C 0.95585 0.37797 0.85423 0.0
C5182 C 0.94767 0.36949 0.86112 0.0
C5183 C 0.93435 0.37191 0.86143 0.0
C5184 C 0.95268 0.35839 0.86861 0.0
C5185 C 0.9701 0.37544 0.85285 0.0
C5186 C 0.94773 0.34598 0.86647 0.0
C5187 C 0.95125 0.33576 0.8745 0.0
C5188 C 0.95976 0.33776 0.88486 0.0
C5189 C 0.96504 0.35009 0.88675 0.0
C5190 C 0.96146 0.36033 0.87874 0.0
H5191 H 0.97409 0.38026 0.84415 0.0
H5192 H 0.9752 0.37936 0.86139 0.0
H5193 H 0.97214 0.36494 0.85222 0.0
H5194 H 0.94089 0.34427 0.85876 0.0
H5195 H 0.94703 0.32636 0.87279 0.0
H5196 H 0.8131 0.18837 0.1056 0.0
H5197 H 0.83433 0.19515 0.11282 0.0
H5198 H 0.85157 0.17738 0.0794 0.0
H5199 H 0.83008 0.1707 0.07188 0.0
H5200 H 0.85394 0.1785 0.11895 0.0
H5201 H 0.86923 0.21282 0.08059 0.0
H5202 H 0.85267 0.20775 0.08249 0.0
H5203 H 0.86425 0.19706 0.07533 0.0
C5204 C 0.82137 0.18596 0.09969 0.0
C5205 C 0.81992 0.1789 0.08821 0.0
C5206 C 0.83351 0.18988 0.10383 0.0
C5207 C 0.84453 0.18681 0.09666 0.0
C5208 C 0.84316 0.18002 0.085 0.0
H5209 H 0.92361 0.19714 0.12458 0.0
H5210 H 0.90509 0.19086 0.11131 0.0
C5211 C 0.8309 0.17618 0.08074 0.0
C5212 C 0.85735 0.19008 0.10205 0.0
H5213 H 0.88379 0.2093 0.09776 0.0
C5214 C 0.8605 0.18516 0.11427 0.0
C5215 C 0.86591 0.19875 0.09589 0.0
C5216 C 0.86287 0.20451 0.08289 0.0
C5217 C 0.87177 0.18895 0.12066 0.0
C5218 C 0.8801 0.1979 0.1147 0.0
C5219 C 0.87727 0.20248 0.10229 0.0
C5220 C 0.89151 0.20288 0.12158 0.0
C5221 C 0.87462 0.18355 0.13388 0.0
C5222 C 0.88997 0.21191 0.13152 0.0
C5223 C 0.9005 0.21554 0.13909 0.0
C5224 C 0.91271 0.21012 0.13687 0.0
C5225 C 0.91431 0.20145 0.12655 0.0
C5226 C 0.90377 0.19788 0.11894 0.0
H5227 H 0.86825 0.1753 0.13633 0.0
H5228 H 0.88482 0.18034 0.13447 0.0
H5229 H 0.8732 0.19122 0.14121 0.0
H5230 H 0.88053 0.21585 0.13366 0.0
H5231 H 0.89898 0.22227 0.14693 0.0
H5232 H 0.03195 0.85374 0.60241 0.0
H5233 H 0.03768 0.87154 0.61677 0.0
H5234 H 0.0609 0.84572 0.63967 0.0
H5235 H 0.05549 0.82794 0.62513 0.0
H5236 H 0.03414 0.87512 0.64281 0.0
H5237 H 0.08643 0.87399 0.63085 0.0
H5238 H 0.07459 0.86519 0.62165 0.0
H5239 H 0.07997 0.85914 0.63698 0.0
C5240 C 0.03826 0.85185 0.61051 0.0
C5241 C 0.04338 0.83948 0.61257 0.0
C5242 C 0.0415 0.86202 0.61873 0.0
C5243 C 0.04989 0.86 0.62917 0.0
C5244 C 0.05465 0.84756 0.63151 0.0
H5245 H 0.08055 0.92204 0.67913 0.0
H5246 H 0.07364 0.90027 0.6726 0.0
C5247 C 0.0515 0.8374 0.62323 0.0
C5248 C 0.05377 0.87105 0.63737 0.0
H5249 H 0.07961 0.88971 0.64571 0.0
C5250 C 0.0441 0.87823 0.64356 0.0
C5251 C 0.06679 0.87506 0.63837 0.0
C5252 C 0.07755 0.86803 0.63154 0.0
C5253 C 0.04705 0.88955 0.65035 0.0
C5254 C 0.05997 0.89378 0.65094 0.0
C5255 C 0.06972 0.88632 0.6453 0.0
C5256 C 0.06331 0.90679 0.65569 0.0
C5257 C 0.0363 0.89713 0.65655 0.0
C5258 C 0.05977 0.91753 0.64833 0.0
C5259 C 0.0638 0.92983 0.6519 0.0
C5260 C 0.0714 0.93166 0.66298 0.0
C5261 C 0.07465 0.92092 0.67059 0.0
C5262 C 0.07074 0.90851 0.66687 0.0
H5263 H 0.02753 0.89115 0.65797 0.0
H5264 H 0.0394 0.90107 0.66601 0.0
H5265 H 0.03373 0.90538 0.65023 0.0
H5266 H 0.05417 0.91636 0.63959 0.0
H5267 H 0.06107 0.93792 0.64587 0.0
H5268 H 0.32688 0.32006 0.93087 0.0
H5269 H 0.34853 0.31273 0.9246 0.0
H5270 H 0.34028 0.3222 0.88498 0.0
H5271 H 0.31889 0.32957 0.89104 0.0
H5272 H 0.35483 0.2929 0.90617 0.0
H5273 H 0.3749 0.34034 0.89214 0.0
H5274 H 0.36075 0.33873 0.90217 0.0
H5275 H 0.35949 0.3372 0.88493 0.0
C5276 C 0.32973 0.32068 0.92085 0.0
C5277 C 0.32113 0.32541 0.91147 0.0
C5278 C 0.34207 0.31646 0.91729 0.0
C5279 C 0.34603 0.31709 0.90436 0.0
C5280 C 0.33749 0.32184 0.89504 0.0
H5281 H 0.39891 0.27804 0.85555 0.0
H5282 H 0.381 0.28443 0.8695 0.0
C5283 C 0.32521 0.32598 0.89854 0.0
C5284 C 0.35887 0.3124 0.90029 0.0
H5285 H 0.38548 0.3217 0.88338 0.0
C5286 C 0.36166 0.29921 0.90139 0.0
C5287 C 0.36783 0.32068 0.89422 0.0
C5288 C 0.36567 0.33505 0.8934 0.0
C5289 C 0.37288 0.29395 0.89589 0.0
C5290 C 0.38136 0.30211 0.88898 0.0
C5291 C 0.37891 0.31541 0.88855 0.0
C5292 C 0.39247 0.29706 0.88153 0.0
C5293 C 0.37545 0.27972 0.89741 0.0
C5294 C 0.40486 0.3021 0.88358 0.0
C5295 C 0.41505 0.2986 0.87552 0.0
C5296 C 0.41305 0.29001 0.86522 0.0
C5297 C 0.40076 0.28464 0.86343 0.0
C5298 C 0.39053 0.2882 0.87147 0.0
H5299 H 0.37065 0.27581 0.90616 0.0
H5300 H 0.37152 0.27452 0.88893 0.0
H5301 H 0.38595 0.27771 0.89805 0.0
H5302 H 0.40656 0.309 0.89124 0.0
H5303 H 0.42443 0.30289 0.87716 0.0
H5304 H 0.9444 0.67266 0.12513 0.0
H5305 H 0.93883 0.65517 0.13994 0.0
H5306 H 0.96414 0.6295 0.11918 0.0
H5307 H 0.96994 0.64701 0.10448 0.0
H5308 H 0.92699 0.63294 0.13329 0.0
H5309 H 0.97379 0.62172 0.1563 0.0
H5310 H 0.971 0.63648 0.14748 0.0
H5311 H 0.97485 0.6218 0.13904 0.0
C5312 C 0.94892 0.66333 0.12383 0.0
C5313 C 0.95761 0.6612 0.11364 0.0
C5314 C 0.94574 0.65336 0.13231 0.0
C5315 C 0.95122 0.64108 0.1308 0.0
C5316 C 0.96005 0.63898 0.12074 0.0
H5317 H 0.92672 0.56575 0.14252 0.0
H5318 H 0.93353 0.58725 0.13627 0.0
C5319 C 0.96327 0.64897 0.11227 0.0
C5320 C 0.9468 0.63018 0.13893 0.0
H5321 H 0.95755 0.605 0.15727 0.0
C5322 C 0.93364 0.627 0.13875 0.0
C5323 C 0.95545 0.62249 0.14618 0.0
C5324 C 0.96954 0.62587 0.14739 0.0
C5325 C 0.92905 0.61589 0.14494 0.0
C5326 C 0.93784 0.60775 0.1514 0.0
C5327 C 0.95086 0.61128 0.15226 0.0
C5328 C 0.93393 0.59475 0.15569 0.0
C5329 C 0.91491 0.6126 0.14409 0.0
C5330 C 0.93201 0.59184 0.16877 0.0
C5331 C 0.92803 0.57944 0.17246 0.0
C5332 C 0.926 0.56981 0.1631 0.0
C5333 C 0.9281 0.57286 0.15003 0.0
C5334 C 0.93201 0.58517 0.1464 0.0
H5335 H 0.90902 0.62102 0.14107 0.0
H5336 H 0.91354 0.60478 0.13691 0.0
H5337 H 0.91131 0.60904 0.15354 0.0
H5338 H 0.93347 0.59917 0.17606 0.0
H5339 H 0.92653 0.57742 0.1826 0.0
H5340 H 0.6881 0.19081 0.3959 0.0
H5341 H 0.66714 0.19788 0.38808 0.0
H5342 H 0.64869 0.17969 0.42061 0.0
H5343 H 0.66986 0.17269 0.4287 0.0
H5344 H 0.64803 0.18058 0.38121 0.0
H5345 H 0.63054 0.21503 0.41848 0.0
H5346 H 0.64728 0.2104 0.41718 0.0
H5347 H 0.63579 0.19951 0.42418 0.0
C5348 C 0.67962 0.18845 0.40153 0.0
C5349 C 0.68062 0.1811 0.41288 0.0
C5350 C 0.66764 0.19252 0.39704 0.0
C5351 C 0.65637 0.18932 0.40376 0.0
C5352 C 0.6573 0.18242 0.41538 0.0
H5353 H 0.57772 0.19607 0.37409 0.0
H5354 H 0.5964 0.19082 0.38759 0.0
C5355 C 0.66938 0.1784 0.41998 0.0
C5356 C 0.64373 0.19233 0.3978 0.0
H5357 H 0.6165 0.21062 0.40103 0.0
C5358 C 0.64112 0.18711 0.38558 0.0
C5359 C 0.63472 0.2008 0.40355 0.0
C5360 C 0.6372 0.20686 0.41653 0.0
C5361 C 0.62988 0.19034 0.37883 0.0
C5362 C 0.62105 0.19905 0.38443 0.0
C5363 C 0.62339 0.20399 0.3968 0.0
C5364 C 0.60951 0.20329 0.37725 0.0
C5365 C 0.62754 0.18455 0.36569 0.0
C5366 C 0.61073 0.2122 0.36716 0.0
C5367 C 0.6001 0.21525 0.35946 0.0
C5368 C 0.58811 0.20935 0.3617 0.0
C5369 C 0.58684 0.20074 0.37211 0.0
C5370 C 0.59747 0.19776 0.37985 0.0
H5371 H 0.6344 0.17662 0.36348 0.0
H5372 H 0.61754 0.18076 0.36502 0.0
H5373 H 0.62864 0.19214 0.35822 0.0
H5374 H 0.61999 0.21654 0.36503 0.0
H5375 H 0.60137 0.22194 0.35153 0.0
H5376 H 0.35693 0.0642 0.06361 0.0
H5377 H 0.36442 0.05723 0.08468 0.0
H5378 H 0.32774 0.06747 0.10135 0.0
H5379 H 0.32 0.07446 0.08006 0.0
H5380 H 0.36607 0.07361 0.10629 0.0
H5381 H 0.33515 0.03067 0.11556 0.0
H5382 H 0.33726 0.03735 0.09961 0.0
H5383 H 0.32713 0.0454 0.11109 0.0
C5384 C 0.35036 0.06491 0.07169 0.0
C5385 C 0.33786 0.06997 0.07014 0.0
C5386 C 0.35468 0.06089 0.08374 0.0
C5387 C 0.34664 0.0618 0.09455 0.0
C5388 C 0.33403 0.06654 0.09307 0.0
H5389 H 0.37601 0.0549 0.17327 0.0
H5390 H 0.36253 0.06046 0.15469 0.0
C5391 C 0.32964 0.07056 0.08092 0.0
C5392 C 0.35194 0.05843 0.10737 0.0
H5393 H 0.35051 0.03603 0.13151 0.0
C5394 C 0.36259 0.06547 0.11187 0.0
C5395 C 0.34739 0.04777 0.11456 0.0
C5396 C 0.33616 0.03976 0.10999 0.0
C5397 C 0.36899 0.06198 0.12324 0.0
C5398 C 0.36459 0.05121 0.1303 0.0
C5399 C 0.35379 0.0443 0.12601 0.0
C5400 C 0.37159 0.04677 0.14185 0.0
C5401 C 0.38065 0.06957 0.12751 0.0
C5402 C 0.38097 0.0371 0.14074 0.0
C5403 C 0.38874 0.03394 0.1513 0.0
C5404 C 0.3872 0.04041 0.16311 0.0
C5405 C 0.37743 0.04975 0.16429 0.0
C5406 C 0.36971 0.05293 0.15372 0.0
H5407 H 0.38314 0.07742 0.12065 0.0
H5408 H 0.37881 0.07389 0.13713 0.0
H5409 H 0.38909 0.06304 0.12848 0.0
H5410 H 0.38257 0.03232 0.13159 0.0
H5411 H 0.39616 0.02669 0.1501 0.0
H5412 H 0.89818 0.96677 0.35273 0.0
H5413 H 0.88428 0.96038 0.37071 0.0
H5414 H 0.86114 0.9375 0.34481 0.0
H5415 H 0.87517 0.9436 0.32685 0.0
H5416 H 0.85789 0.96283 0.37521 0.0
H5417 H 0.87243 0.91131 0.37185 0.0
H5418 H 0.88083 0.92394 0.36333 0.0
H5419 H 0.86566 0.91803 0.3574 0.0
C5420 C 0.89009 0.96043 0.35086 0.0
C5421 C 0.88785 0.95556 0.33842 0.0
C5422 C 0.88214 0.95681 0.36112 0.0
C5423 C 0.87181 0.9483 0.35913 0.0
C5424 C 0.86922 0.94387 0.34661 0.0
H5425 H 0.8198 0.93018 0.42462 0.0
H5426 H 0.82667 0.9364 0.4028 0.0
C5427 C 0.87722 0.9474 0.33636 0.0
C5428 C 0.86415 0.94367 0.37027 0.0
H5429 H 0.85758 0.91676 0.38806 0.0
C5430 C 0.85769 0.95275 0.37797 0.0
C5431 C 0.86398 0.9305 0.37385 0.0
C5432 C 0.87117 0.92037 0.36626 0.0
C5433 C 0.85138 0.94906 0.38938 0.0
C5434 C 0.8514 0.93593 0.39306 0.0
C5435 C 0.85748 0.9268 0.38513 0.0
C5436 C 0.84676 0.93168 0.40589 0.0
C5437 C 0.84532 0.9593 0.39775 0.0
C5438 C 0.8557 0.92666 0.41467 0.0
C5439 C 0.85184 0.92307 0.42702 0.0
C5440 C 0.83891 0.92439 0.4309 0.0
C5441 C 0.82984 0.92909 0.42196 0.0
C5442 C 0.83376 0.93272 0.40953 0.0
H5443 H 0.84786 0.96919 0.3945 0.0
H5444 H 0.83468 0.9583 0.39742 0.0
H5445 H 0.84842 0.95814 0.40793 0.0
H5446 H 0.86577 0.92573 0.41205 0.0
H5447 H 0.8591 0.91938 0.43356 0.0
H5448 H 0.32142 0.069 0.67476 0.0
H5449 H 0.31483 0.07511 0.65282 0.0
H5450 H 0.32637 0.11435 0.66028 0.0
H5451 H 0.33303 0.10841 0.68194 0.0
H5452 H 0.29607 0.09379 0.64613 0.0
H5453 H 0.34364 0.10643 0.62569 0.0
H5454 H 0.3419 0.09678 0.64009 0.0
H5455 H 0.34091 0.11409 0.64096 0.0
C5456 C 0.32269 0.07889 0.67165 0.0
C5457 C 0.32773 0.08821 0.68013 0.0
C5458 C 0.3189 0.08236 0.65914 0.0
C5459 C 0.32028 0.09514 0.65489 0.0
C5460 C 0.32545 0.10438 0.66327 0.0
H5461 H 0.28159 0.14529 0.60358 0.0
H5462 H 0.28826 0.13086 0.62097 0.0
C5463 C 0.32916 0.10097 0.67572 0.0
C5464 C 0.31568 0.09924 0.642 0.0
H5465 H 0.32516 0.11617 0.61546 0.0
C5466 C 0.30244 0.09846 0.63928 0.0
C5467 C 0.32403 0.10515 0.633 0.0
C5468 C 0.33843 0.10555 0.63501 0.0
C5469 C 0.29724 0.10419 0.62817 0.0
C5470 C 0.30547 0.11104 0.61971 0.0
C5471 C 0.31881 0.11107 0.62202 0.0
C5472 C 0.30045 0.11896 0.6089 0.0
C5473 C 0.28296 0.10301 0.6257 0.0
C5474 C 0.3052 0.11718 0.59635 0.0
C5475 C 0.30153 0.12553 0.58643 0.0
C5476 C 0.29307 0.13584 0.58889 0.0
C5477 C 0.28807 0.13741 0.60138 0.0
C5478 C 0.2918 0.12909 0.61131 0.0
H5479 H 0.27894 0.09419 0.63027 0.0
H5480 H 0.27795 0.11145 0.62997 0.0
H5481 H 0.28081 0.10274 0.61521 0.0
H5482 H 0.31196 0.10948 0.5943 0.0
H5483 H 0.30555 0.12407 0.5769 0.0
H5484 H 0.10354 0.52875 0.85361 0.0
H5485 H 0.11678 0.53556 0.87194 0.0
H5486 H 0.13876 0.56046 0.84693 0.0
H5487 H 0.12547 0.55386 0.8286 0.0
H5488 H 0.14397 0.53516 0.87649 0.0
H5489 H 0.12398 0.58492 0.87461 0.0
H5490 H 0.11677 0.57163 0.866 0.0
H5491 H 0.13113 0.57916 0.85992 0.0
C5492 C 0.11127 0.53558 0.85199 0.0
C5493 C 0.11338 0.54088 0.8397 0.0
C5494 C 0.11883 0.53944 0.86246 0.0
C5495 C 0.12861 0.54865 0.8608 0.0
C5496 C 0.13113 0.5535 0.84843 0.0
H5497 H 0.18025 0.57127 0.92476 0.0
H5498 H 0.17288 0.56419 0.90339 0.0
C5499 C 0.12355 0.54968 0.83797 0.0
C5500 C 0.13565 0.55367 0.87215 0.0
H5501 H 0.13949 0.58066 0.8906 0.0
C5502 C 0.14311 0.54513 0.87954 0.0
C5503 C 0.13439 0.56666 0.87612 0.0
C5504 C 0.12606 0.57614 0.86884 0.0
C5505 C 0.14917 0.54919 0.89096 0.0
C5506 C 0.14783 0.56216 0.89496 0.0
C5507 C 0.1406 0.57075 0.88741 0.0
C5508 C 0.15261 0.56669 0.90763 0.0
C5509 C 0.15647 0.53947 0.89894 0.0
C5510 C 0.14367 0.5707 0.91693 0.0
C5511 C 0.14781 0.57477 0.92904 0.0
C5512 C 0.16102 0.57497 0.93215 0.0
C5513 C 0.17001 0.57118 0.92271 0.0
C5514 C 0.16583 0.56707 0.91053 0.0
H5515 H 0.15478 0.52943 0.89562 0.0
H5516 H 0.16696 0.54149 0.89825 0.0
H5517 H 0.15366 0.54019 0.90925 0.0
H5518 H 0.13343 0.57052 0.91487 0.0
H5519 H 0.14058 0.57771 0.93598 0.0
H5520 H 0.16123 0.89601 0.17831 0.0
H5521 H 0.16942 0.88843 0.15759 0.0
H5522 H 0.19633 0.92014 0.1565 0.0
H5523 H 0.18779 0.92807 0.17715 0.0
H5524 H 0.18667 0.91461 0.13253 0.0
H5525 H 0.20359 0.86987 0.15609 0.0
H5526 H 0.18661 0.87217 0.15829 0.0
H5527 H 0.19782 0.88354 0.16515 0.0
C5528 C 0.16878 0.90147 0.17357 0.0
C5529 C 0.17402 0.91252 0.17939 0.0
C5530 C 0.1735 0.89709 0.16178 0.0
C5531 C 0.18378 0.90347 0.15573 0.0
C5532 C 0.1885 0.91498 0.1611 0.0
H5533 H 0.22646 0.85887 0.09846 0.0
H5534 H 0.22141 0.87257 0.11702 0.0
C5535 C 0.1836 0.91952 0.17285 0.0
C5536 C 0.18988 0.8977 0.14416 0.0
H5537 H 0.20279 0.86957 0.13305 0.0
C5538 C 0.19034 0.90482 0.13265 0.0
C5539 C 0.195 0.88505 0.1444 0.0
C5540 C 0.19587 0.87728 0.15669 0.0
C5541 C 0.19521 0.89937 0.12123 0.0
C5542 C 0.1994 0.88636 0.12127 0.0
C5543 C 0.19946 0.87949 0.13293 0.0
C5544 C 0.20323 0.8794 0.10935 0.0
C5545 C 0.19588 0.90766 0.10929 0.0
C5546 C 0.19477 0.87875 0.09879 0.0
C5547 C 0.19775 0.87111 0.08811 0.0
C5548 C 0.2091 0.86373 0.0879 0.0
C5549 C 0.21764 0.86447 0.09837 0.0
C5550 C 0.21476 0.87229 0.10897 0.0
H5551 H 0.19693 0.91801 0.11183 0.0
H5552 H 0.20406 0.90483 0.10299 0.0
H5553 H 0.18678 0.9066 0.10377 0.0
H5554 H 0.18562 0.88377 0.09899 0.0
H5555 H 0.1909 0.87061 0.08024 0.0
H5556 H 0.62064 0.94101 0.1696 0.0
H5557 H 0.63335 0.93527 0.15066 0.0
H5558 H 0.62315 0.97145 0.13279 0.0
H5559 H 0.60988 0.97695 0.15154 0.0
H5560 H 0.61959 0.95301 0.11667 0.0
H5561 H 0.66787 0.94561 0.13779 0.0
H5562 H 0.65616 0.93576 0.1458 0.0
H5563 H 0.65491 0.95308 0.14669 0.0
C5564 C 0.62126 0.94783 0.16171 0.0
C5565 C 0.61429 0.95944 0.16204 0.0
C5566 C 0.62864 0.94459 0.15092 0.0
C5567 C 0.62947 0.95304 0.14037 0.0
C5568 C 0.62274 0.9648 0.14084 0.0
H5569 H 0.67804 0.93697 0.07271 0.0
H5570 H 0.6701 0.94547 0.09336 0.0
C5571 C 0.61516 0.96794 0.15154 0.0
C5572 C 0.63628 0.94906 0.12841 0.0
H5573 H 0.66419 0.93571 0.117 0.0
C5574 C 0.62941 0.94941 0.11675 0.0
C5575 C 0.64917 0.94452 0.1284 0.0
C5576 C 0.65749 0.94486 0.14033 0.0
C5577 C 0.63486 0.94494 0.10523 0.0
C5578 C 0.64738 0.9395 0.10541 0.0
C5579 C 0.65449 0.93963 0.11693 0.0
C5580 C 0.65305 0.93344 0.09375 0.0
C5581 C 0.62713 0.94618 0.09295 0.0
C5582 C 0.64642 0.92346 0.08747 0.0
C5583 C 0.65081 0.91876 0.07566 0.0
C5584 C 0.66211 0.92371 0.07006 0.0
C5585 C 0.6693 0.933 0.07682 0.0
C5586 C 0.66476 0.93787 0.08858 0.0
H5587 H 0.61993 0.95409 0.09364 0.0
H5588 H 0.63345 0.94806 0.08452 0.0
H5589 H 0.62177 0.93707 0.09123 0.0
H5590 H 0.63761 0.91957 0.0915 0.0
H5591 H 0.6452 0.91143 0.07076 0.0
H5592 H 0.30857 0.37432 0.92236 0.0
H5593 H 0.31478 0.38788 0.9041 0.0
H5594 H 0.28486 0.37057 0.88099 0.0
H5595 H 0.27854 0.357 0.89924 0.0
H5596 H 0.32343 0.37811 0.88066 0.0
H5597 H 0.2807 0.40944 0.87363 0.0
H5598 H 0.28372 0.40081 0.88847 0.0
H5599 H 0.27684 0.3926 0.87484 0.0
C5600 C 0.30317 0.37354 0.91346 0.0
C5601 C 0.29307 0.36458 0.91222 0.0
C5602 C 0.30674 0.3813 0.90304 0.0
C5603 C 0.30018 0.38035 0.89125 0.0
C5604 C 0.28988 0.37165 0.89008 0.0
H5605 H 0.32392 0.38972 0.81422 0.0
H5606 H 0.31753 0.38337 0.83582 0.0
C5607 C 0.28633 0.36384 0.90049 0.0
C5608 C 0.30491 0.38749 0.87982 0.0
H5609 H 0.29554 0.40809 0.8559 0.0
C5610 C 0.3174 0.38482 0.87535 0.0
C5611 C 0.2971 0.39636 0.87301 0.0
C5612 C 0.28389 0.40009 0.87778 0.0
C5613 C 0.32204 0.39026 0.86389 0.0
C5614 C 0.31393 0.39848 0.85664 0.0
C5615 C 0.3017 0.40171 0.86144 0.0
C5616 C 0.31756 0.40274 0.84352 0.0
C5617 C 0.3355 0.38693 0.85946 0.0
C5618 C 0.31936 0.41583 0.84059 0.0
C5619 C 0.32302 0.41958 0.82811 0.0
C5620 C 0.32482 0.41027 0.81839 0.0
C5621 C 0.32274 0.39719 0.82142 0.0
C5622 C 0.31912 0.3935 0.83381 0.0
H5623 H 0.34165 0.38374 0.86763 0.0
H5624 H 0.33499 0.3789 0.85241 0.0
H5625 H 0.34017 0.3953 0.85468 0.0
H5626 H 0.31811 0.42311 0.84797 0.0
H5627 H 0.32449 0.42973 0.82611 0.0
H5628 H 0.68766 0.12899 0.42144 0.0
H5629 H 0.68179 0.11527 0.40319 0.0
H5630 H 0.71395 0.13025 0.3815 0.0
H5631 H 0.71993 0.144 0.39976 0.0
H5632 H 0.67525 0.12457 0.3788 0.0
H5633 H 0.71663 0.0908 0.37618 0.0
H5634 H 0.71298 0.10016 0.39042 0.0
H5635 H 0.72122 0.10748 0.37704 0.0
C5636 C 0.69358 0.12926 0.41284 0.0
C5637 C 0.70425 0.13758 0.412 0.0
C5638 C 0.69022 0.1214 0.40244 0.0
C5639 C 0.69754 0.12161 0.39108 0.0
C5640 C 0.70833 0.12975 0.39029 0.0
H5641 H 0.67831 0.10952 0.31322 0.0
H5642 H 0.68409 0.11658 0.33478 0.0
C5643 C 0.71167 0.13767 0.40067 0.0
C5644 C 0.69323 0.11421 0.37968 0.0
H5645 H 0.703 0.0919 0.35751 0.0
C5646 C 0.68124 0.11729 0.37425 0.0
C5647 C 0.70098 0.1046 0.37388 0.0
C5648 C 0.71362 0.10045 0.37973 0.0
C5649 C 0.67706 0.11149 0.36279 0.0
C5650 C 0.68517 0.10249 0.35654 0.0
C5651 C 0.69686 0.09889 0.3623 0.0
C5652 C 0.68214 0.09773 0.34346 0.0
C5653 C 0.66413 0.11527 0.3573 0.0
C5654 C 0.67951 0.08466 0.34113 0.0
C5655 C 0.67619 0.0805 0.3287 0.0
C5656 C 0.67554 0.08938 0.31844 0.0
C5657 C 0.67855 0.1024 0.32086 0.0
C5658 C 0.68184 0.1065 0.3332 0.0
H5659 H 0.65767 0.11931 0.36483 0.0
H5660 H 0.66555 0.12279 0.34981 0.0
H5661 H 0.65929 0.10688 0.35273 0.0
H5662 H 0.67979 0.07775 0.34896 0.0
H5663 H 0.67398 0.07041 0.32716 0.0
H5664 H 0.17564 0.87244 0.55344 0.0
H5665 H 0.15801 0.85757 0.55845 0.0
H5666 H 0.13238 0.87991 0.53448 0.0
H5667 H 0.15001 0.89459 0.52918 0.0
H5668 H 0.13625 0.86341 0.57089 0.0
H5669 H 0.12352 0.84394 0.523 0.0
H5670 H 0.13843 0.85245 0.52591 0.0
H5671 H 0.12375 0.86123 0.52281 0.0
C5672 C 0.16629 0.87405 0.54906 0.0
C5673 C 0.1642 0.88468 0.54091 0.0
C5674 C 0.15624 0.86554 0.55194 0.0
C5675 C 0.14392 0.86748 0.54668 0.0
C5676 C 0.14188 0.87799 0.53837 0.0
H5677 H 0.06695 0.85673 0.56406 0.0
H5678 H 0.08872 0.86176 0.55694 0.0
C5679 C 0.15194 0.88645 0.53543 0.0
C5680 C 0.13291 0.85933 0.55079 0.0
H5681 H 0.10666 0.84315 0.53925 0.0
C5682 C 0.12997 0.85869 0.564 0.0
C5683 C 0.12475 0.85308 0.54181 0.0
C5684 C 0.12786 0.85259 0.52761 0.0
C5685 C 0.11861 0.85277 0.56836 0.0
C5686 C 0.11003 0.84737 0.55928 0.0
C5687 C 0.1133 0.84733 0.54617 0.0
C5688 C 0.09685 0.84358 0.56305 0.0
C5689 C 0.11541 0.85299 0.58254 0.0
C5690 C 0.09423 0.83159 0.56875 0.0
C5691 C 0.08168 0.8286 0.57284 0.0
C5692 C 0.07167 0.83766 0.57138 0.0
C5693 C 0.07441 0.84956 0.56546 0.0
C5694 C 0.08684 0.85246 0.56131 0.0
H5695 H 0.12328 0.85724 0.58842 0.0
H5696 H 0.10648 0.85868 0.58412 0.0
H5697 H 0.11353 0.84303 0.58599 0.0
H5698 H 0.1019 0.82464 0.57017 0.0
H5699 H 0.07989 0.81937 0.57736 0.0
H5700 H 0.93148 0.82733 0.82221 0.0
H5701 H 0.92526 0.84933 0.81598 0.0
H5702 H 0.88557 0.84059 0.82471 0.0
H5703 H 0.8916 0.81886 0.83104 0.0
H5704 H 0.90779 0.85643 0.79639 0.0
H5705 H 0.89146 0.87456 0.84379 0.0
H5706 H 0.90146 0.8604 0.84213 0.0
H5707 H 0.88429 0.85932 0.83986 0.0
C5708 C 0.92145 0.83015 0.82293 0.0
C5709 C 0.91205 0.8213 0.82711 0.0
C5710 C 0.91792 0.84271 0.81935 0.0
C5711 C 0.90498 0.84663 0.82007 0.0
C5712 C 0.89564 0.83785 0.82434 0.0
H5713 H 0.85665 0.89898 0.78042 0.0
H5714 H 0.87076 0.88142 0.78735 0.0
C5715 C 0.89912 0.82537 0.82785 0.0
C5716 C 0.90091 0.85961 0.81572 0.0
H5717 H 0.88295 0.88551 0.82512 0.0
C5718 C 0.90257 0.86292 0.80271 0.0
C5719 C 0.89427 0.86815 0.82402 0.0
C5720 C 0.89288 0.8655 0.83826 0.0
C5721 C 0.89705 0.87418 0.7976 0.0
C5722 C 0.88952 0.88219 0.80569 0.0
C5723 C 0.88857 0.87928 0.81888 0.0
C5724 C 0.88186 0.89313 0.8006 0.0
C5725 C 0.89916 0.87729 0.78355 0.0
C5726 C 0.88331 0.90552 0.80584 0.0
C5727 C 0.87517 0.91555 0.80198 0.0
C5728 C 0.86538 0.91333 0.79287 0.0
C5729 C 0.86414 0.901 0.78741 0.0
C5730 C 0.87226 0.89097 0.79129 0.0
H5731 H 0.90822 0.87289 0.77991 0.0
H5732 H 0.89106 0.8733 0.77781 0.0
H5733 H 0.89956 0.88787 0.78192 0.0
H5734 H 0.89059 0.90737 0.8131 0.0
H5735 H 0.87635 0.92495 0.80637 0.0
H5736 H 0.8514 0.60268 0.03113 0.0
H5737 H 0.86921 0.61709 0.03672 0.0
H5738 H 0.8432 0.64085 0.05883 0.0
H5739 H 0.82541 0.62628 0.05358 0.0
H5740 H 0.87343 0.64313 0.03301 0.0
H5741 H 0.87046 0.63149 0.08532 0.0
H5742 H 0.86189 0.62237 0.07326 0.0
H5743 H 0.85595 0.63784 0.07833 0.0
C5744 C 0.84946 0.61101 0.03712 0.0
C5745 C 0.83706 0.61327 0.04206 0.0
C5746 C 0.85964 0.61925 0.04029 0.0
C5747 C 0.85757 0.6299 0.04839 0.0
C5748 C 0.84506 0.63252 0.05282 0.0
H5749 H 0.92029 0.67834 0.08021 0.0
H5750 H 0.89848 0.67249 0.07284 0.0
C5751 C 0.8349 0.62422 0.04975 0.0
C5752 C 0.86866 0.6379 0.05253 0.0
H5753 H 0.88679 0.64581 0.07887 0.0
C5754 C 0.87626 0.64385 0.04305 0.0
C5755 C 0.87232 0.63884 0.06566 0.0
C5756 C 0.86482 0.63222 0.07624 0.0
C5757 C 0.88768 0.65034 0.0463 0.0
C5758 C 0.89156 0.65085 0.05934 0.0
C5759 C 0.88367 0.64547 0.0689 0.0
C5760 C 0.90462 0.65514 0.06303 0.0
C5761 C 0.89576 0.65625 0.03576 0.0
C5762 C 0.91516 0.64728 0.05997 0.0
C5763 C 0.92747 0.65046 0.06428 0.0
C5764 C 0.92952 0.66163 0.07169 0.0
C5765 C 0.91899 0.6697 0.07449 0.0
C5766 C 0.90657 0.66639 0.0703 0.0
H5767 H 0.8901 0.65776 0.02679 0.0
H5768 H 0.89985 0.66563 0.03893 0.0
H5769 H 0.90392 0.64969 0.0335 0.0
H5770 H 0.9138 0.63849 0.05448 0.0
H5771 H 0.93538 0.64408 0.06186 0.0
H5772 H 0.07071 0.67328 0.32247 0.0
H5773 H 0.07817 0.65159 0.31648 0.0
H5774 H 0.11757 0.66477 0.31767 0.0
H5775 H 0.11037 0.68622 0.32368 0.0
H5776 H 0.09405 0.64397 0.29475 0.0
H5777 H 0.11725 0.63298 0.34162 0.0
H5778 H 0.10553 0.64573 0.33971 0.0
H5779 H 0.12204 0.64826 0.33503 0.0
C5780 C 0.08096 0.67155 0.32147 0.0
C5781 C 0.08992 0.68151 0.32364 0.0
C5782 C 0.08519 0.65916 0.31805 0.0
C5783 C 0.09842 0.65656 0.31685 0.0
C5784 C 0.10733 0.66652 0.31879 0.0
H5785 H 0.14602 0.60131 0.27914 0.0
H5786 H 0.13229 0.61951 0.28526 0.0
C5787 C 0.10316 0.67882 0.32219 0.0
C5788 C 0.10315 0.64355 0.31341 0.0
H5789 H 0.12373 0.62 0.32364 0.0
C5790 C 0.10037 0.6386 0.30112 0.0
C5791 C 0.11129 0.63652 0.3218 0.0
C5792 C 0.11412 0.64107 0.33533 0.0
C5793 C 0.10608 0.62711 0.29676 0.0
C5794 C 0.11486 0.62053 0.30487 0.0
C5795 C 0.11709 0.62514 0.31739 0.0
C5796 C 0.12231 0.60919 0.30042 0.0
C5797 C 0.10279 0.62218 0.28349 0.0
C5798 C 0.12133 0.5974 0.30698 0.0
C5799 C 0.12919 0.58702 0.30353 0.0
C5800 C 0.13826 0.58828 0.29353 0.0
C5801 C 0.13909 0.60004 0.28685 0.0
C5802 C 0.13119 0.61041 0.29028 0.0
H5803 H 0.09345 0.62612 0.28002 0.0
H5804 H 0.11041 0.62523 0.27662 0.0
H5805 H 0.10229 0.61148 0.28338 0.0
H5806 H 0.11461 0.59631 0.3149 0.0
H5807 H 0.12834 0.57809 0.30888 0.0
H5808 H 0.17336 0.12528 0.44691 0.0
H5809 H 0.15571 0.13982 0.44118 0.0
H5810 H 0.12993 0.11814 0.46559 0.0
H5811 H 0.14762 0.10374 0.47159 0.0
H5812 H 0.13398 0.1334 0.42875 0.0
H5813 H 0.1212 0.15463 0.47596 0.0
H5814 H 0.1361 0.14601 0.47334 0.0
H5815 H 0.1214 0.13735 0.47655 0.0
C5816 C 0.16397 0.12372 0.4512 0.0
C5817 C 0.16187 0.11338 0.45971 0.0
C5818 C 0.1539 0.13205 0.44792 0.0
C5819 C 0.14155 0.13021 0.45311 0.0
C5820 C 0.13946 0.11996 0.46173 0.0
H5821 H 0.06541 0.14231 0.43165 0.0
H5822 H 0.08682 0.13626 0.43903 0.0
C5823 C 0.14955 0.11167 0.46507 0.0
C5824 C 0.1306 0.13828 0.44867 0.0
H5825 H 0.10479 0.1557 0.4594 0.0
C5826 C 0.12777 0.13852 0.43543 0.0
C5827 C 0.12255 0.14505 0.45737 0.0
C5828 C 0.12554 0.14587 0.47158 0.0
C5829 C 0.11666 0.14468 0.43077 0.0
C5830 C 0.10821 0.15069 0.43956 0.0
C5831 C 0.11134 0.15105 0.45271 0.0
C5832 C 0.09528 0.15495 0.43548 0.0
C5833 C 0.11362 0.14418 0.41656 0.0
C5834 C 0.09299 0.16755 0.43111 0.0
C5835 C 0.08066 0.17112 0.42684 0.0
C5836 C 0.07052 0.16208 0.42685 0.0
C5837 C 0.07296 0.14952 0.4314 0.0
C5838 C 0.08518 0.14602 0.43567 0.0
H5839 H 0.12173 0.14018 0.41082 0.0
H5840 H 0.10497 0.13807 0.41499 0.0
H5841 H 0.11133 0.154 0.41296 0.0
H5842 H 0.10075 0.17454 0.43088 0.0
H5843 H 0.07911 0.18086 0.4234 0.0
H5844 H 0.62324 0.92426 0.69849 0.0
H5845 H 0.60838 0.90707 0.69226 0.0
H5846 H 0.63132 0.87955 0.7134 0.0
H5847 H 0.64602 0.89677 0.71997 0.0
H5848 H 0.61429 0.88698 0.67766 0.0
H5849 H 0.59554 0.86898 0.72416 0.0
H5850 H 0.60389 0.8842 0.72274 0.0
H5851 H 0.61282 0.86936 0.72409 0.0
C5852 C 0.62499 0.91458 0.70201 0.0
C5853 C 0.63581 0.91184 0.7097 0.0
C5854 C 0.61648 0.90477 0.69844 0.0
C5855 C 0.61862 0.89204 0.70249 0.0
C5856 C 0.62926 0.88934 0.71043 0.0
H5857 H 0.60722 0.82105 0.66623 0.0
H5858 H 0.61309 0.84246 0.67371 0.0
C5859 C 0.63773 0.89918 0.7141 0.0
C5860 C 0.61055 0.8814 0.69734 0.0
H5861 H 0.59429 0.85416 0.70613 0.0
C5862 C 0.60971 0.87995 0.68391 0.0
C5863 C 0.60435 0.87234 0.70545 0.0
C5864 C 0.60407 0.87387 0.71991 0.0
C5865 C 0.60357 0.86925 0.67839 0.0
C5866 C 0.59836 0.85963 0.68651 0.0
C5867 C 0.59843 0.86149 0.69992 0.0
C5868 C 0.59422 0.84698 0.68136 0.0
C5869 C 0.60302 0.86818 0.66389 0.0
C5870 C 0.58165 0.84233 0.68331 0.0
C5871 C 0.57822 0.82996 0.67904 0.0
C5872 C 0.5874 0.82202 0.67296 0.0
C5873 C 0.59991 0.82685 0.67092 0.0
C5874 C 0.60327 0.83916 0.6751 0.0
H5875 H 0.60337 0.87783 0.65926 0.0
H5876 H 0.61149 0.86261 0.66045 0.0
H5877 H 0.59414 0.86313 0.66069 0.0
H5878 H 0.57455 0.84821 0.68822 0.0
H5879 H 0.56853 0.8265 0.68081 0.0
H5880 H 0.93372 0.36026 0.92042 0.0
H5881 H 0.91234 0.3669 0.92723 0.0
H5882 H 0.9016 0.32715 0.93304 0.0
H5883 H 0.92328 0.3203 0.92637 0.0
H5884 H 0.88847 0.36064 0.91674 0.0
H5885 H 0.89285 0.34459 0.9678 0.0
H5886 H 0.90663 0.34595 0.95726 0.0
H5887 H 0.89572 0.33263 0.95556 0.0
C5888 C 0.92688 0.35286 0.92314 0.0
C5889 C 0.9303 0.33972 0.92294 0.0
C5890 C 0.91462 0.3567 0.927 0.0
C5891 C 0.90544 0.34754 0.93078 0.0
C5892 C 0.90863 0.33438 0.93035 0.0
H5893 H 0.82645 0.37533 0.94308 0.0
H5894 H 0.8446 0.36185 0.93634 0.0
C5895 C 0.92099 0.33049 0.92647 0.0
C5896 C 0.89263 0.35206 0.93517 0.0
H5897 H 0.87388 0.3556 0.96201 0.0
C5898 C 0.88517 0.3594 0.92659 0.0
C5899 C 0.88847 0.35053 0.94807 0.0
C5900 C 0.89633 0.34308 0.95778 0.0
C5901 C 0.87387 0.36561 0.93065 0.0
C5902 C 0.86978 0.36421 0.94359 0.0
C5903 C 0.87703 0.35657 0.95209 0.0
C5904 C 0.8585 0.37136 0.94864 0.0
C5905 C 0.86677 0.37414 0.92121 0.0
C5906 C 0.86022 0.38081 0.95817 0.0
C5907 C 0.84985 0.38846 0.96213 0.0
C5908 C 0.83761 0.38677 0.95659 0.0
C5909 C 0.83581 0.37693 0.94744 0.0
C5910 C 0.84616 0.36925 0.94354 0.0
H5911 H 0.87269 0.37635 0.91256 0.0
H5912 H 0.85789 0.36916 0.91795 0.0
H5913 H 0.8639 0.38336 0.92583 0.0
H5914 H 0.86967 0.38255 0.96225 0.0
H5915 H 0.85151 0.39593 0.96923 0.0
H5916 H 0.43107 0.67206 0.1717 0.0
H5917 H 0.42529 0.65022 0.17903 0.0
H5918 H 0.38779 0.66394 0.1905 0.0
H5919 H 0.39332 0.68556 0.18326 0.0
H5920 H 0.4062 0.64603 0.20919 0.0
H5921 H 0.39246 0.62899 0.16006 0.0
H5922 H 0.40659 0.63886 0.16256 0.0
H5923 H 0.39087 0.64583 0.1642 0.0
C5924 C 0.42163 0.67042 0.17587 0.0
C5925 C 0.41264 0.68055 0.17681 0.0
C5926 C 0.41837 0.65797 0.18003 0.0
C5927 C 0.40613 0.65556 0.18527 0.0
C5928 C 0.39728 0.66567 0.18648 0.0
H5929 H 0.35463 0.60262 0.21933 0.0
H5930 H 0.36914 0.62035 0.21386 0.0
C5931 C 0.40047 0.67801 0.18227 0.0
C5932 C 0.4021 0.64249 0.18916 0.0
H5933 H 0.38594 0.61628 0.17768 0.0
C5934 C 0.402 0.63936 0.20231 0.0
C5935 C 0.39668 0.63388 0.18013 0.0
C5936 C 0.39661 0.63695 0.16591 0.0
C5937 C 0.39613 0.628 0.20673 0.0
C5938 C 0.38991 0.61978 0.19778 0.0
C5939 C 0.39064 0.62261 0.18455 0.0
C5940 C 0.38178 0.60877 0.20192 0.0
C5941 C 0.39647 0.62502 0.22097 0.0
C5942 C 0.38389 0.5964 0.19685 0.0
C5943 C 0.37549 0.58629 0.19982 0.0
C5944 C 0.3648 0.58838 0.20789 0.0
C5945 C 0.36283 0.6007 0.21315 0.0
C5946 C 0.37119 0.61082 0.21012 0.0
H5947 H 0.40503 0.62945 0.22565 0.0
H5948 H 0.38775 0.6291 0.22562 0.0
H5949 H 0.39665 0.61446 0.22275 0.0
H5950 H 0.39194 0.59463 0.19043 0.0
H5951 H 0.37726 0.5769 0.19561 0.0
H5952 H 0.07041 0.57632 0.81951 0.0
H5953 H 0.06407 0.59844 0.82525 0.0
H5954 H 0.07549 0.59149 0.86462 0.0
H5955 H 0.08193 0.56967 0.85905 0.0
H5956 H 0.04538 0.60564 0.8435 0.0
H5957 H 0.09296 0.62578 0.85653 0.0
H5958 H 0.09122 0.6112 0.84716 0.0
H5959 H 0.09001 0.61069 0.86447 0.0
C5960 C 0.07173 0.57959 0.82935 0.0
C5961 C 0.07664 0.57121 0.83882 0.0
C5962 C 0.06808 0.5922 0.8326 0.0
C5963 C 0.06948 0.59665 0.84532 0.0
C5964 C 0.07456 0.58835 0.8547 0.0
H5965 H 0.03049 0.64873 0.89437 0.0
H5966 H 0.03719 0.6312 0.88014 0.0
C5967 C 0.07813 0.57581 0.8515 0.0
C5968 C 0.06495 0.60962 0.84921 0.0
H5969 H 0.07444 0.63624 0.86603 0.0
C5970 C 0.05176 0.61247 0.8482 0.0
C5971 C 0.07331 0.61861 0.85515 0.0
C5972 C 0.08768 0.61648 0.85577 0.0
C5973 C 0.04658 0.6237 0.85374 0.0
C5974 C 0.05479 0.63213 0.86065 0.0
C5975 C 0.0681 0.62969 0.8609 0.0
C5976 C 0.04975 0.64305 0.8684 0.0
C5977 C 0.03234 0.62629 0.8523 0.0
C5978 C 0.0547 0.65553 0.86666 0.0
C5979 C 0.05101 0.66553 0.87491 0.0
C5980 C 0.04234 0.66323 0.88507 0.0
C5981 C 0.03714 0.65082 0.88659 0.0
C5982 C 0.04088 0.6408 0.87839 0.0
H5983 H 0.02844 0.62172 0.84343 0.0
H5984 H 0.02715 0.6221 0.86067 0.0
H5985 H 0.0303 0.63679 0.85195 0.0
H5986 H 0.06162 0.65746 0.85908 0.0
H5987 H 0.05519 0.675 0.87349 0.0
H5988 H 0.17228 0.82522 0.07012 0.0
H5989 H 0.1504 0.81915 0.07694 0.0
H5990 H 0.16318 0.81733 0.11644 0.0
H5991 H 0.18481 0.82341 0.10988 0.0
H5992 H 0.14223 0.79651 0.09116 0.0
H5993 H 0.13184 0.84179 0.11759 0.0
H5994 H 0.14468 0.8405 0.10588 0.0
H5995 H 0.14693 0.83458 0.12203 0.0
C5996 C 0.17041 0.82355 0.08026 0.0
C5997 C 0.18032 0.82491 0.08944 0.0
C5998 C 0.15793 0.82008 0.08412 0.0
C5999 C 0.15516 0.81801 0.09721 0.0
C6000 C 0.16506 0.81914 0.10633 0.0
H6001 H 0.09938 0.77871 0.14248 0.0
H6002 H 0.11761 0.78525 0.12899 0.0
C6003 C 0.17746 0.82259 0.10251 0.0
C6004 C 0.14204 0.81448 0.10157 0.0
H6005 H 0.11846 0.82364 0.12262 0.0
C6006 C 0.13691 0.80251 0.09787 0.0
C6007 C 0.13507 0.82239 0.11022 0.0
C6008 C 0.13984 0.83559 0.11408 0.0
C6009 C 0.1253 0.79796 0.10317 0.0
C6010 C 0.11877 0.80555 0.11243 0.0
C6011 C 0.12355 0.81779 0.11559 0.0
C6012 C 0.10734 0.80074 0.1195 0.0
C6013 C 0.12018 0.78501 0.09898 0.0
C6014 C 0.09555 0.80731 0.11865 0.0
C6015 C 0.08512 0.80358 0.12632 0.0
C6016 C 0.08637 0.79333 0.13511 0.0
C6017 C 0.09812 0.78661 0.13576 0.0
C6018 C 0.10851 0.79029 0.12801 0.0
H6019 H 0.12434 0.78198 0.08958 0.0
H6020 H 0.1228 0.77766 0.1063 0.0
H6021 H 0.10951 0.78521 0.09815 0.0
H6022 H 0.0945 0.81547 0.11222 0.0
H6023 H 0.07621 0.80898 0.12565 0.0
H6024 H 0.96791 0.84917 0.39554 0.0
H6025 H 0.96258 0.86665 0.38066 0.0
H6026 H 0.93822 0.84088 0.35892 0.0
H6027 H 0.94323 0.82342 0.374 0.0
H6028 H 0.96552 0.86955 0.35435 0.0
H6029 H 0.91359 0.86995 0.36794 0.0
H6030 H 0.92551 0.86112 0.37701 0.0
H6031 H 0.9196 0.85484 0.36198 0.0
C6032 C 0.96146 0.8472 0.38757 0.0
C6033 C 0.95586 0.83497 0.38603 0.0
C6034 C 0.95845 0.85719 0.37905 0.0
C6035 C 0.94983 0.85512 0.36882 0.0
C6036 C 0.94467 0.84276 0.36692 0.0
H6037 H 0.91874 0.9182 0.32031 0.0
H6038 H 0.92535 0.89613 0.32614 0.0
C6039 C 0.94759 0.83279 0.37551 0.0
C6040 C 0.94598 0.86609 0.36049 0.0
H6041 H 0.92041 0.88544 0.3529 0.0
C6042 C 0.95563 0.87292 0.3539 0.0
C6043 C 0.93305 0.87046 0.35988 0.0
C6044 C 0.92233 0.8638 0.36715 0.0
C6045 C 0.95277 0.88428 0.34713 0.0
C6046 C 0.93997 0.88892 0.34698 0.0
C6047 C 0.9302 0.88175 0.35297 0.0
C6048 C 0.93688 0.90208 0.34248 0.0
C6049 C 0.96352 0.89151 0.34053 0.0
C6050 C 0.94118 0.91261 0.34975 0.0
C6051 C 0.93731 0.92507 0.34659 0.0
C6052 C 0.92911 0.92729 0.33602 0.0
C6053 C 0.92511 0.91676 0.32846 0.0
C6054 C 0.92885 0.90419 0.33178 0.0
H6055 H 0.97195 0.88518 0.33862 0.0
H6056 H 0.96016 0.89572 0.33127 0.0
H6057 H 0.96674 0.89954 0.34683 0.0
H6058 H 0.94724 0.91114 0.35813 0.0
H6059 H 0.94062 0.93298 0.35255 0.0
H6060 H 0.81171 0.68568 0.60747 0.0
H6061 H 0.83285 0.69248 0.61488 0.0
H6062 H 0.84998 0.67809 0.57982 0.0
H6063 H 0.82858 0.67139 0.57211 0.0
H6064 H 0.85336 0.67636 0.6193 0.0
H6065 H 0.86598 0.71416 0.5833 0.0
H6066 H 0.84974 0.70816 0.5852 0.0
H6067 H 0.86161 0.69863 0.57696 0.0
C6068 C 0.81992 0.68399 0.60124 0.0
C6069 C 0.81845 0.6779 0.58921 0.0
C6070 C 0.83202 0.68792 0.60551 0.0
C6071 C 0.84298 0.68584 0.5979 0.0
C6072 C 0.84161 0.67997 0.58576 0.0
H6073 H 0.92197 0.69628 0.62587 0.0
H6074 H 0.90341 0.68988 0.61272 0.0
C6075 C 0.8294 0.6761 0.58139 0.0
C6076 C 0.85578 0.6893 0.60322 0.0
H6077 H 0.88117 0.71004 0.59978 0.0
C6078 C 0.85948 0.68365 0.61496 0.0
C6079 C 0.86375 0.69882 0.59755 0.0
C6080 C 0.86008 0.7054 0.58511 0.0
C6081 C 0.87074 0.68749 0.62135 0.0
C6082 C 0.8785 0.69722 0.61586 0.0
C6083 C 0.8751 0.70261 0.60393 0.0
C6084 C 0.88991 0.70215 0.62277 0.0
C6085 C 0.87418 0.68137 0.6341 0.0
C6086 C 0.8884 0.71131 0.6326 0.0
C6087 C 0.89895 0.71501 0.64012 0.0
C6088 C 0.91115 0.70953 0.63794 0.0
C6089 C 0.91268 0.70065 0.62779 0.0
C6090 C 0.90213 0.69701 0.62025 0.0
H6091 H 0.86778 0.67313 0.6365 0.0
H6092 H 0.88432 0.67792 0.6339 0.0
H6093 H 0.87341 0.68867 0.64188 0.0
H6094 H 0.87898 0.71532 0.63468 0.0
H6095 H 0.89747 0.72187 0.64785 0.0
H6096 H 0.05621 0.32928 0.12308 0.0
H6097 H 0.06298 0.34779 0.13606 0.0
H6098 H 0.0338 0.37125 0.11805 0.0
H6099 H 0.02698 0.35279 0.1049 0.0
H6100 H 0.06914 0.37471 0.1211 0.0
H6101 H 0.0337 0.3746 0.16149 0.0
H6102 H 0.03894 0.3599 0.1537 0.0
H6103 H 0.02823 0.37064 0.14544 0.0
C6104 C 0.05111 0.33833 0.12198 0.0
C6105 C 0.04108 0.3396 0.11294 0.0
C6106 C 0.05499 0.34886 0.12942 0.0
C6107 C 0.04883 0.36079 0.12803 0.0
C6108 C 0.03857 0.36204 0.1193 0.0
H6109 H 0.068 0.43904 0.14138 0.0
H6110 H 0.06136 0.4179 0.13382 0.0
C6111 C 0.03472 0.35151 0.1118 0.0
C6112 C 0.05382 0.37223 0.13486 0.0
H6113 H 0.04787 0.39245 0.16014 0.0
C6114 C 0.06458 0.37855 0.1297 0.0
C6115 C 0.04792 0.37704 0.14614 0.0
C6116 C 0.03657 0.37023 0.15214 0.0
C6117 C 0.06935 0.3899 0.13529 0.0
C6118 C 0.06306 0.39511 0.14623 0.0
C6119 C 0.05262 0.38847 0.15172 0.0
C6120 C 0.06661 0.40795 0.15137 0.0
C6121 C 0.08098 0.39629 0.12933 0.0
C6122 C 0.07133 0.40945 0.16398 0.0
C6123 C 0.07511 0.42165 0.16843 0.0
C6124 C 0.07418 0.4325 0.16032 0.0
C6125 C 0.06907 0.43091 0.14785 0.0
C6126 C 0.06527 0.41881 0.14347 0.0
H6127 H 0.08684 0.38932 0.12368 0.0
H6128 H 0.07773 0.40399 0.12265 0.0
H6129 H 0.08721 0.40075 0.13681 0.0
H6130 H 0.07233 0.40116 0.17026 0.0
H6131 H 0.07897 0.42255 0.1781 0.0
H6132 H 0.31672 0.83104 0.39 0.0
H6133 H 0.338 0.82379 0.38349 0.0
H6134 H 0.34684 0.81368 0.42285 0.0
H6135 H 0.32525 0.82079 0.42953 0.0
H6136 H 0.36223 0.832 0.39136 0.0
H6137 H 0.35402 0.78014 0.4026 0.0
H6138 H 0.341 0.79166 0.40183 0.0
H6139 H 0.35156 0.79143 0.41553 0.0
C6140 C 0.32313 0.82728 0.39734 0.0
C6141 C 0.31918 0.82637 0.4103 0.0
C6142 C 0.33534 0.82318 0.39358 0.0
C6143 C 0.34393 0.81804 0.40264 0.0
C6144 C 0.34025 0.81742 0.41567 0.0
H6145 H 0.42274 0.80307 0.37547 0.0
H6146 H 0.40478 0.80974 0.38923 0.0
C6147 C 0.32795 0.82157 0.41948 0.0
C6148 C 0.35661 0.81322 0.39813 0.0
H6149 H 0.37366 0.78557 0.39265 0.0
C6150 C 0.36484 0.82188 0.3918 0.0
C6151 C 0.35987 0.79998 0.39859 0.0
C6152 C 0.35115 0.79019 0.40492 0.0
C6153 C 0.37604 0.81762 0.38552 0.0
C6154 C 0.37922 0.80436 0.38583 0.0
C6155 C 0.3712 0.79573 0.3925 0.0
C6156 C 0.39034 0.79918 0.3785 0.0
C6157 C 0.38399 0.82727 0.37805 0.0
C6158 C 0.38825 0.79057 0.36826 0.0
C6159 C 0.39852 0.78663 0.36045 0.0
C6160 C 0.41103 0.79128 0.36275 0.0
C6161 C 0.41318 0.79943 0.37337 0.0
C6162 C 0.40293 0.80329 0.38122 0.0
H6163 H 0.37871 0.83646 0.37646 0.0
H6164 H 0.3929 0.82949 0.38353 0.0
H6165 H 0.38685 0.8233 0.36853 0.0
H6166 H 0.3786 0.78724 0.36603 0.0
H6167 H 0.39657 0.7803 0.35238 0.0
H6168 H 0.94646 0.17476 0.62515 0.0
H6169 H 0.94002 0.15704 0.63929 0.0
H6170 H 0.96354 0.1308 0.6172 0.0
H6171 H 0.97025 0.14855 0.60317 0.0
H6172 H 0.92672 0.13607 0.63205 0.0
H6173 H 0.97297 0.12077 0.65375 0.0
H6174 H 0.97109 0.13599 0.6455 0.0
H6175 H 0.97379 0.12141 0.63648 0.0
C6176 C 0.95043 0.16525 0.62342 0.0
C6177 C 0.95886 0.16303 0.61304 0.0
C6178 C 0.94674 0.15515 0.63152 0.0
C6179 C 0.95142 0.14263 0.62942 0.0
C6180 C 0.96005 0.14044 0.6192 0.0
H6181 H 0.91813 0.06968 0.64081 0.0
H6182 H 0.92503 0.09113 0.63443 0.0
C6183 C 0.9638 0.15057 0.61113 0.0
C6184 C 0.94639 0.13169 0.63714 0.0
H6185 H 0.95563 0.10527 0.65449 0.0
C6186 C 0.93303 0.12946 0.63714 0.0
C6187 C 0.95458 0.12318 0.64397 0.0
C6188 C 0.96889 0.12552 0.64506 0.0
C6189 C 0.92774 0.11857 0.64315 0.0
C6190 C 0.93603 0.10956 0.64913 0.0
C6191 C 0.9493 0.11215 0.6498 0.0
C6192 C 0.93129 0.09681 0.65349 0.0
C6193 C 0.91332 0.11668 0.6428 0.0
C6194 C 0.93267 0.09279 0.66636 0.0
C6195 C 0.92873 0.0804 0.67009 0.0
C6196 C 0.92356 0.07181 0.66095 0.0
C6197 C 0.92211 0.076 0.64812 0.0
C6198 C 0.92596 0.08832 0.64445 0.0
H6199 H 0.90818 0.12603 0.64178 0.0
H6200 H 0.91077 0.11061 0.63436 0.0
H6201 H 0.90983 0.11177 0.65165 0.0
H6202 H 0.93686 0.0992 0.67346 0.0
H6203 H 0.93004 0.07746 0.68003 0.0
H6204 H 0.57432 0.69581 0.87543 0.0
H6205 H 0.59186 0.68944 0.88984 0.0
H6206 H 0.61795 0.71435 0.86914 0.0
H6207 H 0.60041 0.72096 0.85486 0.0
H6208 H 0.61344 0.67697 0.88251 0.0
H6209 H 0.62687 0.72279 0.90623 0.0
H6210 H 0.61185 0.72075 0.89765 0.0
H6211 H 0.62647 0.72432 0.889 0.0
C6212 C 0.58374 0.70011 0.87409 0.0
C6213 C 0.586 0.70888 0.864 0.0
C6214 C 0.59375 0.69645 0.88233 0.0
C6215 C 0.60617 0.70154 0.88068 0.0
C6216 C 0.60837 0.71053 0.8708 0.0
H6217 H 0.68 0.67001 0.89179 0.0
H6218 H 0.65856 0.67684 0.88525 0.0
C6219 C 0.59836 0.71423 0.86258 0.0
C6220 C 0.6171 0.69655 0.88843 0.0
H6221 H 0.64304 0.70602 0.90634 0.0
C6222 C 0.61978 0.6833 0.88791 0.0
C6223 C 0.62526 0.70476 0.89565 0.0
C6224 C 0.62239 0.71893 0.89729 0.0
C6225 C 0.63083 0.67815 0.89377 0.0
C6226 C 0.63951 0.68652 0.90012 0.0
C6227 C 0.63643 0.69965 0.90133 0.0
C6228 C 0.65234 0.68205 0.90446 0.0
C6229 C 0.63324 0.66383 0.89286 0.0
C6230 C 0.65606 0.68294 0.91745 0.0
C6231 C 0.66842 0.67906 0.92127 0.0
C6232 C 0.6773 0.67439 0.91212 0.0
C6233 C 0.67346 0.67356 0.89913 0.0
C6234 C 0.66115 0.67737 0.89535 0.0
H6235 H 0.62411 0.65841 0.89146 0.0
H6236 H 0.63954 0.66186 0.88444 0.0
H6237 H 0.63813 0.66016 0.90165 0.0
H6238 H 0.6494 0.68663 0.9246 0.0
H6239 H 0.67107 0.67986 0.93134 0.0
H6240 H 0.35247 0.59138 0.57426 0.0
H6241 H 0.36011 0.58291 0.59485 0.0
H6242 H 0.32861 0.55575 0.59549 0.0
H6243 H 0.32061 0.56458 0.57499 0.0
H6244 H 0.33432 0.56489 0.61972 0.0
H6245 H 0.37883 0.54872 0.59521 0.0
H6246 H 0.3764 0.56575 0.59347 0.0
H6247 H 0.36502 0.55465 0.58647 0.0
C6248 C 0.34705 0.58374 0.5789 0.0
C6249 C 0.33606 0.57851 0.57298 0.0
C6250 C 0.35147 0.57886 0.59061 0.0
C6251 C 0.34518 0.56841 0.59647 0.0
C6252 C 0.33369 0.56372 0.59104 0.0
H6253 H 0.39045 0.52408 0.65192 0.0
H6254 H 0.37654 0.52972 0.63369 0.0
C6255 C 0.32911 0.56878 0.57937 0.0
C6256 C 0.35109 0.56203 0.60783 0.0
H6257 H 0.37935 0.54882 0.61823 0.0
C6258 C 0.34411 0.56125 0.6194 0.0
C6259 C 0.36374 0.55693 0.60729 0.0
C6260 C 0.37137 0.55642 0.5949 0.0
C6261 C 0.34969 0.55604 0.63061 0.0
C6262 C 0.3627 0.55185 0.6303 0.0
C6263 C 0.36944 0.55215 0.61857 0.0
C6264 C 0.36978 0.54764 0.64202 0.0
C6265 C 0.34154 0.55502 0.64261 0.0
C6266 C 0.37055 0.55575 0.65284 0.0
C6267 C 0.3783 0.55243 0.66334 0.0
C6268 C 0.3857 0.54108 0.6631 0.0
C6269 C 0.38484 0.53288 0.65236 0.0
C6270 C 0.3769 0.5361 0.64195 0.0
H6271 H 0.33115 0.55406 0.64016 0.0
H6272 H 0.34443 0.54666 0.64864 0.0
H6273 H 0.34267 0.56395 0.6484 0.0
H6274 H 0.36553 0.56491 0.65299 0.0
H6275 H 0.37889 0.55902 0.67142 0.0
H6276 H 0.81986 0.42352 0.92081 0.0
H6277 H 0.8269 0.42999 0.89907 0.0
H6278 H 0.86462 0.43907 0.91397 0.0
H6279 H 0.85783 0.4327 0.93545 0.0
H6280 H 0.83924 0.45497 0.89041 0.0
H6281 H 0.87045 0.41186 0.8846 0.0
H6282 H 0.85746 0.41255 0.8962 0.0
H6283 H 0.87259 0.42029 0.89958 0.0
C6284 C 0.82962 0.42698 0.91945 0.0
C6285 C 0.83831 0.42743 0.92986 0.0
C6286 C 0.83361 0.43066 0.90705 0.0
C6287 C 0.84633 0.43481 0.90494 0.0
C6288 C 0.85483 0.43569 0.91538 0.0
H6289 H 0.89256 0.47332 0.84926 0.0
H6290 H 0.87864 0.46716 0.86736 0.0
C6291 C 0.8509 0.43202 0.92767 0.0
C6292 C 0.85108 0.43798 0.89188 0.0
H6293 H 0.87424 0.42937 0.87015 0.0
C6294 C 0.84674 0.44929 0.88585 0.0
C6295 C 0.86082 0.4305 0.88595 0.0
C6296 C 0.86555 0.41806 0.89184 0.0
C6297 C 0.85238 0.45363 0.8743 0.0
C6298 C 0.86258 0.44649 0.86878 0.0
C6299 C 0.86647 0.43487 0.87449 0.0
C6300 C 0.8698 0.45111 0.85738 0.0
C6301 C 0.84755 0.4659 0.86817 0.0
C6302 C 0.86939 0.44413 0.84582 0.0
C6303 C 0.87727 0.44765 0.83548 0.0
C6304 C 0.88584 0.4581 0.8366 0.0
C6305 C 0.88604 0.46525 0.84811 0.0
C6306 C 0.87806 0.46179 0.85842 0.0
H6307 H 0.83804 0.46885 0.87211 0.0
H6308 H 0.85456 0.47376 0.87003 0.0
H6309 H 0.84671 0.4647 0.85756 0.0
H6310 H 0.86316 0.4358 0.8449 0.0
H6311 H 0.87693 0.44193 0.82675 0.0
H6312 H 0.30248 0.62264 0.07429 0.0
H6313 H 0.30888 0.60819 0.09177 0.0
H6314 H 0.2858 0.63023 0.11846 0.0
H6315 H 0.2791 0.64452 0.10095 0.0
H6316 H 0.32254 0.61504 0.11231 0.0
H6317 H 0.27651 0.59397 0.12892 0.0
H6318 H 0.278 0.60228 0.11369 0.0
H6319 H 0.27574 0.61123 0.1284 0.0
C6320 C 0.29858 0.62427 0.08384 0.0
C6321 C 0.29031 0.63473 0.08627 0.0
C6322 C 0.30224 0.61599 0.09382 0.0
C6323 C 0.2977 0.61801 0.1064 0.0
C6324 C 0.28918 0.62827 0.10878 0.0
H6325 H 0.3324 0.6082 0.17859 0.0
H6326 H 0.32514 0.61388 0.15706 0.0
C6327 C 0.28543 0.6365 0.09877 0.0
C6328 C 0.30292 0.61027 0.11725 0.0
H6329 H 0.29412 0.59357 0.14424 0.0
C6330 C 0.31632 0.61014 0.11915 0.0
C6331 C 0.29486 0.60368 0.12608 0.0
C6332 C 0.28049 0.60267 0.12409 0.0
C6333 C 0.32181 0.6043 0.13003 0.0
C6334 C 0.31367 0.59865 0.13939 0.0
C6335 C 0.30034 0.59804 0.13711 0.0
C6336 C 0.31864 0.59468 0.15217 0.0
C6337 C 0.33627 0.60451 0.13157 0.0
C6338 C 0.31726 0.58197 0.15665 0.0
C6339 C 0.3214 0.57864 0.16909 0.0
C6340 C 0.32679 0.58804 0.17726 0.0
C6341 C 0.32826 0.60071 0.17261 0.0
C6342 C 0.3242 0.60398 0.16023 0.0
H6343 H 0.34119 0.60518 0.12207 0.0
H6344 H 0.33907 0.6131 0.13731 0.0
H6345 H 0.33978 0.59577 0.13666 0.0
H6346 H 0.31289 0.57468 0.15058 0.0
H6347 H 0.32008 0.56883 0.17241 0.0
H6348 H 0.14557 0.06025 0.43945 0.0
H6349 H 0.13851 0.05337 0.41818 0.0
H6350 H 0.17002 0.07423 0.40079 0.0
H6351 H 0.1774 0.08097 0.42232 0.0
H6352 H 0.13056 0.07008 0.39946 0.0
H6353 H 0.17106 0.0397 0.38162 0.0
H6354 H 0.16934 0.04401 0.39841 0.0
H6355 H 0.17523 0.05564 0.38702 0.0
C6356 C 0.15111 0.06328 0.43113 0.0
C6357 C 0.16199 0.07124 0.43254 0.0
C6358 C 0.14707 0.05931 0.41897 0.0
C6359 C 0.15373 0.06326 0.4079 0.0
C6360 C 0.16485 0.0709 0.40923 0.0
H6361 H 0.12603 0.05359 0.32864 0.0
H6362 H 0.13902 0.05988 0.34735 0.0
C6363 C 0.16903 0.07478 0.42151 0.0
C6364 C 0.14823 0.06008 0.39508 0.0
H6365 H 0.15333 0.04264 0.36757 0.0
C6366 C 0.13558 0.06413 0.39248 0.0
C6367 C 0.15483 0.05238 0.38594 0.0
C6368 C 0.16833 0.04757 0.38836 0.0
C6369 C 0.12921 0.06043 0.38116 0.0
C6370 C 0.13563 0.0524 0.37224 0.0
C6371 C 0.14845 0.04872 0.37454 0.0
C6372 C 0.12889 0.04749 0.3607 0.0
C6373 C 0.11557 0.06498 0.37887 0.0
C6374 C 0.11912 0.03823 0.36203 0.0
C6375 C 0.11172 0.03459 0.35138 0.0
C6376 C 0.11392 0.04022 0.33926 0.0
C6377 C 0.12407 0.04912 0.33787 0.0
C6378 C 0.13152 0.05271 0.34852 0.0
H6379 H 0.11286 0.073 0.38543 0.0
H6380 H 0.11433 0.06823 0.36875 0.0
H6381 H 0.10882 0.05685 0.38055 0.0
H6382 H 0.11701 0.03409 0.37138 0.0
H6383 H 0.10401 0.02767 0.35275 0.0
H6384 H 0.22048 0.35596 0.60104 0.0
H6385 H 0.21306 0.36984 0.6186 0.0
H6386 H 0.18893 0.39081 0.59201 0.0
H6387 H 0.19608 0.37678 0.57442 0.0
H6388 H 0.2134 0.39653 0.62264 0.0
H6389 H 0.16333 0.37762 0.61893 0.0
H6390 H 0.17675 0.37012 0.6108 0.0
H6391 H 0.16976 0.38466 0.60447 0.0
C6392 C 0.21368 0.36359 0.5989 0.0
C6393 C 0.20873 0.36517 0.58639 0.0
C6394 C 0.20947 0.37153 0.60894 0.0
C6395 C 0.20029 0.38121 0.60664 0.0
C6396 C 0.19583 0.38324 0.59403 0.0
H6397 H 0.17799 0.43123 0.67241 0.0
H6398 H 0.18457 0.42519 0.65045 0.0
C6399 C 0.19998 0.37525 0.58399 0.0
C6400 C 0.1949 0.38861 0.61761 0.0
H6401 H 0.16741 0.39279 0.63522 0.0
C6402 C 0.20332 0.39587 0.62534 0.0
C6403 C 0.18175 0.38762 0.62111 0.0
C6404 C 0.17236 0.37951 0.61348 0.0
C6405 C 0.19903 0.40181 0.63673 0.0
C6406 C 0.18593 0.40062 0.64034 0.0
C6407 C 0.17742 0.39378 0.63235 0.0
C6408 C 0.18125 0.40476 0.6532 0.0
C6409 C 0.20868 0.40871 0.64516 0.0
C6410 C 0.17682 0.39536 0.66183 0.0
C6411 C 0.17301 0.39876 0.67424 0.0
C6412 C 0.17351 0.41168 0.67836 0.0
C6413 C 0.17755 0.42119 0.66957 0.0
C6414 C 0.18139 0.41775 0.65706 0.0
H6415 H 0.21877 0.40695 0.64201 0.0
H6416 H 0.20684 0.41924 0.64476 0.0
H6417 H 0.20768 0.40558 0.65535 0.0
H6418 H 0.17659 0.38529 0.65904 0.0
H6419 H 0.16983 0.39116 0.68066 0.0
H6420 H 0.68075 0.42862 0.57853 0.0
H6421 H 0.67459 0.43506 0.6005 0.0
H6422 H 0.63467 0.42785 0.59143 0.0
H6423 H 0.64062 0.42134 0.56975 0.0
H6424 H 0.65739 0.45529 0.60769 0.0
H6425 H 0.63998 0.40799 0.62517 0.0
H6426 H 0.65021 0.40962 0.61116 0.0
H6427 H 0.6331 0.41228 0.60988 0.0
C6428 C 0.67068 0.42829 0.58127 0.0
C6429 C 0.6612 0.42445 0.57235 0.0
C6430 C 0.66719 0.43199 0.59381 0.0
C6431 C 0.6542 0.43174 0.59763 0.0
C6432 C 0.64477 0.42787 0.58876 0.0
H6433 H 0.60618 0.47137 0.65044 0.0
H6434 H 0.62029 0.46465 0.63278 0.0
C6435 C 0.64822 0.42423 0.57631 0.0
C6436 C 0.65016 0.43605 0.61063 0.0
H6437 H 0.63188 0.42669 0.63632 0.0
C6438 C 0.65203 0.449 0.61409 0.0
C6439 C 0.64332 0.42778 0.61904 0.0
C6440 C 0.64164 0.41361 0.61619 0.0
C6441 C 0.64652 0.45408 0.62538 0.0
C6442 C 0.63883 0.44603 0.63326 0.0
C6443 C 0.63765 0.4329 0.63019 0.0
C6444 C 0.63126 0.4511 0.64428 0.0
C6445 C 0.64883 0.46806 0.62865 0.0
C6446 C 0.63265 0.44565 0.65658 0.0
C6447 C 0.62452 0.4494 0.66666 0.0
C6448 C 0.61479 0.4586 0.66458 0.0
C6449 C 0.61362 0.4643 0.65235 0.0
C6450 C 0.62175 0.46053 0.64227 0.0
H6451 H 0.65793 0.47164 0.62426 0.0
H6452 H 0.64079 0.47395 0.62477 0.0
H6453 H 0.6493 0.46954 0.63924 0.0
H6454 H 0.63986 0.43829 0.65832 0.0
H6455 H 0.62566 0.44482 0.67598 0.0
H6456 H 0.2789 0.85474 0.39746 0.0
H6457 H 0.28603 0.86863 0.37975 0.0
H6458 H 0.30905 0.89085 0.40631 0.0
H6459 H 0.30223 0.87682 0.424 0.0
H6460 H 0.28503 0.89523 0.37507 0.0
H6461 H 0.33552 0.8779 0.38022 0.0
H6462 H 0.32216 0.8702 0.38826 0.0
H6463 H 0.32868 0.88502 0.39445 0.0
C6464 C 0.28538 0.86266 0.39955 0.0
C6465 C 0.29016 0.86458 0.41208 0.0
C6466 C 0.28942 0.8706 0.38943 0.0
C6467 C 0.29825 0.88062 0.39169 0.0
C6468 C 0.30244 0.88301 0.40432 0.0
H6469 H 0.32143 0.93142 0.32687 0.0
H6470 H 0.31397 0.92492 0.34841 0.0
C6471 C 0.2985 0.87501 0.41442 0.0
C6472 C 0.30364 0.88798 0.38069 0.0
H6473 H 0.33147 0.89303 0.36387 0.0
C6474 C 0.2952 0.89489 0.37267 0.0
C6475 C 0.31691 0.8874 0.37757 0.0
C6476 C 0.32636 0.87965 0.38549 0.0
C6477 C 0.29963 0.90095 0.36139 0.0
C6478 C 0.31286 0.90022 0.35819 0.0
C6479 C 0.32135 0.89367 0.36644 0.0
C6480 C 0.31783 0.90461 0.34553 0.0
C6481 C 0.29003 0.90753 0.35266 0.0
C6482 C 0.32279 0.89542 0.33697 0.0
C6483 C 0.3271 0.89907 0.3248 0.0
C6484 C 0.32657 0.91205 0.32086 0.0
C6485 C 0.32192 0.92135 0.32958 0.0
C6486 C 0.31758 0.91765 0.34185 0.0
H6487 H 0.27991 0.90548 0.35551 0.0
H6488 H 0.29154 0.91811 0.35306 0.0
H6489 H 0.29143 0.9044 0.34251 0.0
H6490 H 0.32312 0.88532 0.33964 0.0
H6491 H 0.33072 0.89163 0.31843 0.0
H6492 H 0.6745 0.56956 0.82882 0.0
H6493 H 0.6802 0.57638 0.85082 0.0
H6494 H 0.68782 0.61482 0.83695 0.0
H6495 H 0.68218 0.60825 0.8152 0.0
H6496 H 0.7043 0.58932 0.86026 0.0
H6497 H 0.66011 0.61895 0.86598 0.0
H6498 H 0.66148 0.60634 0.85403 0.0
H6499 H 0.66873 0.62184 0.85124 0.0
C6500 C 0.67745 0.57944 0.83046 0.0
C6501 C 0.67773 0.58838 0.82024 0.0
C6502 C 0.6807 0.58331 0.84301 0.0
C6503 C 0.68423 0.59614 0.84549 0.0
C6504 C 0.68491 0.60492 0.83526 0.0
H6505 H 0.72123 0.64169 0.90246 0.0
H6506 H 0.7156 0.62764 0.88433 0.0
C6507 C 0.68167 0.60111 0.8228 0.0
C6508 C 0.687 0.60069 0.85871 0.0
H6509 H 0.67729 0.6231 0.88075 0.0
C6510 C 0.69831 0.59654 0.86487 0.0
C6511 C 0.6791 0.61004 0.86472 0.0
C6512 C 0.66661 0.61449 0.85872 0.0
C6513 C 0.70226 0.60203 0.87662 0.0
C6514 C 0.69473 0.61193 0.88222 0.0
C6515 C 0.68309 0.61557 0.87638 0.0
C6516 C 0.69901 0.61918 0.89373 0.0
C6517 C 0.71453 0.59738 0.88288 0.0
C6518 C 0.69153 0.61907 0.90499 0.0
C6519 C 0.69473 0.62706 0.91535 0.0
C6520 C 0.70536 0.63544 0.91455 0.0
C6521 C 0.713 0.63533 0.90337 0.0
C6522 C 0.70985 0.62725 0.89304 0.0
H6523 H 0.71743 0.58774 0.8792 0.0
H6524 H 0.72241 0.60429 0.88072 0.0
H6525 H 0.71341 0.59685 0.89351 0.0
H6526 H 0.68306 0.61299 0.90565 0.0
H6527 H 0.68863 0.62696 0.92383 0.0
H6528 H 0.67138 0.3757 0.55682 0.0
H6529 H 0.65276 0.36253 0.56296 0.0
H6530 H 0.62926 0.38269 0.53525 0.0
H6531 H 0.6478 0.39598 0.52906 0.0
H6532 H 0.62543 0.37853 0.56952 0.0
H6533 H 0.62606 0.33838 0.5338 0.0
H6534 H 0.64074 0.34577 0.53963 0.0
H6535 H 0.63055 0.35443 0.52871 0.0
C6536 C 0.6623 0.37722 0.5519 0.0
C6537 C 0.66103 0.38692 0.54249 0.0
C6538 C 0.65171 0.36968 0.55541 0.0
C6539 C 0.63973 0.37164 0.54949 0.0
C6540 C 0.6385 0.381 0.53982 0.0
H6541 H 0.56105 0.35899 0.56679 0.0
H6542 H 0.58241 0.36623 0.56048 0.0
C6543 C 0.64908 0.38859 0.53633 0.0
C6544 C 0.62821 0.36478 0.55424 0.0
H6545 H 0.60796 0.33969 0.54765 0.0
C6546 C 0.62165 0.36997 0.56484 0.0
C6547 C 0.62349 0.35356 0.54817 0.0
C6548 C 0.63053 0.34759 0.53695 0.0
C6549 C 0.61015 0.36445 0.56929 0.0
C6550 C 0.60502 0.35358 0.56282 0.0
C6551 C 0.61189 0.34806 0.55254 0.0
C6552 C 0.59203 0.34857 0.56598 0.0
C6553 C 0.60351 0.37041 0.58079 0.0
C6554 C 0.59028 0.336 0.5707 0.0
C6555 C 0.57795 0.33173 0.57428 0.0
C6556 C 0.56725 0.34 0.57317 0.0
C6557 C 0.56907 0.35241 0.568 0.0
C6558 C 0.5813 0.35661 0.56439 0.0
H6559 H 0.61037 0.37596 0.58685 0.0
H6560 H 0.59596 0.37717 0.57736 0.0
H6561 H 0.59882 0.36294 0.58685 0.0
H6562 H 0.59846 0.32962 0.57189 0.0
H6563 H 0.57686 0.3221 0.57818 0.0
H6564 H 0.39023 0.31508 0.82841 0.0
H6565 H 0.38343 0.33625 0.82112 0.0
H6566 H 0.42312 0.34753 0.81605 0.0
H6567 H 0.43015 0.32607 0.82321 0.0
H6568 H 0.38897 0.36029 0.83141 0.0
H6569 H 0.40644 0.35572 0.78084 0.0
H6570 H 0.40507 0.34202 0.79149 0.0
H6571 H 0.41816 0.35319 0.79337 0.0
C6572 C 0.3976 0.32199 0.82575 0.0
C6573 C 0.41078 0.31879 0.82632 0.0
C6574 C 0.39365 0.33414 0.82161 0.0
C6575 C 0.40274 0.34341 0.8179 0.0
C6576 C 0.41594 0.34042 0.81867 0.0
H6577 H 0.37542 0.42228 0.80456 0.0
H6578 H 0.38859 0.40401 0.81156 0.0
C6579 C 0.41993 0.32819 0.82284 0.0
C6580 C 0.39813 0.35611 0.81326 0.0
H6581 H 0.39523 0.37472 0.78623 0.0
C6582 C 0.39047 0.36354 0.82158 0.0
C6583 C 0.39998 0.36021 0.80038 0.0
C6584 C 0.40778 0.35237 0.79093 0.0
C6585 C 0.3843 0.37478 0.81728 0.0
C6586 C 0.38607 0.37884 0.80438 0.0
C6587 C 0.39398 0.37159 0.79613 0.0
C6588 C 0.37914 0.39017 0.79913 0.0
C6589 C 0.37548 0.38189 0.82643 0.0
C6590 C 0.36983 0.38853 0.78945 0.0
C6591 C 0.36234 0.39897 0.78535 0.0
C6592 C 0.36406 0.41121 0.7909 0.0
C6593 C 0.37379 0.41293 0.80018 0.0
C6594 C 0.3813 0.40251 0.80423 0.0
H6595 H 0.37303 0.37601 0.83504 0.0
H6596 H 0.38033 0.39082 0.82979 0.0
H6597 H 0.36639 0.38471 0.82153 0.0
H6598 H 0.36806 0.37908 0.78537 0.0
H6599 H 0.35495 0.39736 0.77816 0.0
H6600 H 0.42091 0.17837 0.08008 0.0
H6601 H 0.39916 0.17074 0.07433 0.0
H6602 H 0.41559 0.13622 0.05799 0.0
H6603 H 0.4371 0.14359 0.06372 0.0
H6604 H 0.3882 0.16183 0.04931 0.0
H6605 H 0.39046 0.12351 0.0866 0.0
H6606 H 0.40113 0.13728 0.08665 0.0
H6607 H 0.40422 0.12386 0.0761 0.0
C6608 C 0.41986 0.16923 0.07514 0.0
C6609 C 0.4307 0.16149 0.07254 0.0
C6610 C 0.40746 0.16489 0.07188 0.0
C6611 C 0.40582 0.15281 0.06597 0.0
C6612 C 0.41667 0.14545 0.06278 0.0
H6613 H 0.34949 0.10535 0.03011 0.0
H6614 H 0.3678 0.11921 0.03578 0.0
C6615 C 0.42895 0.14969 0.06608 0.0
C6616 C 0.39285 0.14743 0.06354 0.0
H6617 H 0.37414 0.12125 0.07049 0.0
C6618 C 0.38501 0.15307 0.05406 0.0
C6619 C 0.38871 0.13605 0.06983 0.0
C6620 C 0.39651 0.12987 0.08045 0.0
C6621 C 0.37339 0.14721 0.05027 0.0
C6622 C 0.36964 0.13551 0.05611 0.0
C6623 C 0.37717 0.13019 0.06597 0.0
C6624 C 0.35815 0.1283 0.05187 0.0
C6625 C 0.36527 0.15334 0.0399 0.0
C6626 C 0.34674 0.12893 0.05905 0.0
C6627 C 0.33629 0.12107 0.05584 0.0
C6628 C 0.33716 0.11236 0.04548 0.0
C6629 C 0.34854 0.11196 0.03814 0.0
C6630 C 0.35897 0.11988 0.04132 0.0
H6631 H 0.36896 0.16298 0.03703 0.0
H6632 H 0.36513 0.147 0.03127 0.0
H6633 H 0.35517 0.15435 0.04331 0.0
H6634 H 0.34602 0.13532 0.06729 0.0
H6635 H 0.32764 0.12161 0.06167 0.0
H6636 H 0.57132 0.17099 0.32743 0.0
H6637 H 0.57888 0.14932 0.32133 0.0
H6638 H 0.61518 0.16544 0.30906 0.0
H6639 H 0.6079 0.18684 0.31516 0.0
H6640 H 0.58864 0.13969 0.2969 0.0
H6641 H 0.62554 0.13772 0.33552 0.0
H6642 H 0.61241 0.14917 0.3357 0.0
H6643 H 0.62646 0.15213 0.32597 0.0
C6644 C 0.58089 0.16989 0.32339 0.0
C6645 C 0.58906 0.18063 0.32196 0.0
C6646 C 0.58519 0.15753 0.31992 0.0
C6647 C 0.59769 0.15578 0.315 0.0
C6648 C 0.60562 0.16654 0.31313 0.0
H6649 H 0.64435 0.10032 0.27661 0.0
H6650 H 0.63091 0.11868 0.28311 0.0
C6651 C 0.6014 0.1788 0.31662 0.0
C6652 C 0.60272 0.1428 0.31184 0.0
H6653 H 0.628 0.12267 0.31816 0.0
C6654 C 0.59712 0.13586 0.30166 0.0
C6655 C 0.61374 0.13779 0.31815 0.0
C6656 C 0.61982 0.14452 0.32953 0.0
C6657 C 0.60269 0.12432 0.2972 0.0
C6658 C 0.61407 0.11973 0.30308 0.0
C6659 C 0.61932 0.12634 0.31361 0.0
C6660 C 0.62098 0.10828 0.29821 0.0
C6661 C 0.5966 0.1172 0.2861 0.0
C6662 C 0.6197 0.09641 0.30451 0.0
C6663 C 0.62731 0.08593 0.30081 0.0
C6664 C 0.63642 0.08721 0.29084 0.0
C6665 C 0.63741 0.09904 0.28431 0.0
C6666 C 0.62974 0.10951 0.28798 0.0
H6667 H 0.58719 0.12144 0.28324 0.0
H6668 H 0.60319 0.11744 0.27767 0.0
H6669 H 0.59513 0.10692 0.28874 0.0
H6670 H 0.61304 0.09536 0.31249 0.0
H6671 H 0.62632 0.07694 0.30604 0.0
H6672 H 0.57389 0.67736 0.43734 0.0
H6673 H 0.59463 0.66954 0.44562 0.0
H6674 H 0.59542 0.64037 0.41593 0.0
H6675 H 0.5745 0.64776 0.4081 0.0
H6676 H 0.59897 0.62987 0.43839 0.0
H6677 H 0.63153 0.67208 0.4347 0.0
H6678 H 0.61716 0.67538 0.44374 0.0
H6679 H 0.61601 0.67157 0.42684 0.0
C6680 C 0.57869 0.66949 0.43243 0.0
C6681 C 0.57262 0.66311 0.42214 0.0
C6682 C 0.59055 0.66504 0.43713 0.0
C6683 C 0.59665 0.65439 0.43136 0.0
C6684 C 0.59089 0.64855 0.42059 0.0
H6685 H 0.67235 0.62237 0.4433 0.0
H6686 H 0.65358 0.6349 0.43659 0.0
C6687 C 0.57896 0.6528 0.41609 0.0
C6688 C 0.60829 0.6484 0.4372 0.0
H6689 H 0.63929 0.65413 0.44677 0.0
C6690 C 0.60779 0.63519 0.44017 0.0
C6691 C 0.61983 0.65531 0.4395 0.0
C6692 C 0.62124 0.66934 0.43591 0.0
C6693 C 0.61851 0.62865 0.44516 0.0
C6694 C 0.62994 0.63561 0.44779 0.0
C6695 C 0.63045 0.64885 0.44492 0.0
C6696 C 0.64168 0.6291 0.45272 0.0
C6697 C 0.61759 0.61424 0.44709 0.0
C6698 C 0.64139 0.62198 0.46425 0.0
C6699 C 0.65205 0.61463 0.46801 0.0
C6700 C 0.66328 0.61452 0.46044 0.0
C6701 C 0.66382 0.62225 0.44932 0.0
C6702 C 0.6531 0.62944 0.44548 0.0
H6703 H 0.60956 0.60997 0.44142 0.0
H6704 H 0.62669 0.60936 0.44426 0.0
H6705 H 0.61573 0.61217 0.45742 0.0
H6706 H 0.63278 0.62184 0.47016 0.0
H6707 H 0.65142 0.60886 0.47669 0.0
H6708 H 0.14678 0.39748 0.72035 0.0
H6709 H 0.13323 0.37936 0.71363 0.0
H6710 H 0.11031 0.40503 0.69028 0.0
H6711 H 0.12396 0.42315 0.69674 0.0
H6712 H 0.10647 0.37445 0.71496 0.0
H6713 H 0.12382 0.37841 0.66434 0.0
H6714 H 0.13149 0.38679 0.67751 0.0
H6715 H 0.11662 0.39273 0.6709 0.0
C6716 C 0.13878 0.39929 0.71388 0.0
C6717 C 0.13653 0.4117 0.70893 0.0
C6718 C 0.13104 0.38894 0.71008 0.0
C6719 C 0.12092 0.39084 0.70129 0.0
C6720 C 0.11823 0.40333 0.69688 0.0
H6721 H 0.07049 0.3254 0.67953 0.0
H6722 H 0.07706 0.34705 0.68657 0.0
C6723 C 0.12601 0.41367 0.70062 0.0
C6724 C 0.11372 0.3796 0.69621 0.0
H6725 H 0.10898 0.36191 0.66886 0.0
C6726 C 0.10688 0.37175 0.70486 0.0
C6727 C 0.11439 0.37609 0.68304 0.0
C6728 C 0.12205 0.38386 0.6734 0.0
C6729 C 0.10095 0.36029 0.70075 0.0
C6730 C 0.10176 0.35672 0.68761 0.0
C6731 C 0.10828 0.36476 0.6789 0.0
C6732 C 0.09738 0.34394 0.68298 0.0
C6733 C 0.0944 0.35178 0.71057 0.0
C6734 C 0.10657 0.3352 0.67834 0.0
C6735 C 0.10288 0.32294 0.67429 0.0
C6736 C 0.08987 0.31912 0.67475 0.0
C6737 C 0.08059 0.32801 0.67911 0.0
C6738 C 0.08433 0.34034 0.6832 0.0
H6739 H 0.09639 0.35493 0.72061 0.0
H6740 H 0.08382 0.35207 0.70901 0.0
H6741 H 0.0976 0.34162 0.70946 0.0
H6742 H 0.11669 0.3378 0.67805 0.0
H6743 H 0.11031 0.31644 0.67088 0.0
H6744 H 0.34839 0.89305 0.97678 0.0
H6745 H 0.36706 0.87988 0.97075 0.0
H6746 H 0.3466 0.86616 0.93723 0.0
H6747 H 0.32779 0.87886 0.94346 0.0
H6748 H 0.3605 0.8471 0.94793 0.0
H6749 H 0.39091 0.89073 0.94221 0.0
H6750 H 0.38451 0.88891 0.95818 0.0
H6751 H 0.37376 0.89163 0.94482 0.0
C6752 C 0.34784 0.88711 0.96821 0.0
C6753 C 0.33669 0.88707 0.96054 0.0
C6754 C 0.35853 0.87965 0.96473 0.0
C6755 C 0.35834 0.87226 0.95337 0.0
C6756 C 0.347 0.87182 0.946 0.0
H6757 H 0.42584 0.8519 0.91001 0.0
H6758 H 0.40494 0.85973 0.91749 0.0
C6759 C 0.33626 0.87911 0.94957 0.0
C6760 C 0.37008 0.8655 0.94875 0.0
H6761 H 0.40128 0.87064 0.93972 0.0
C6762 C 0.36943 0.85222 0.94613 0.0
C6763 C 0.38166 0.87226 0.94618 0.0
C6764 C 0.38275 0.88668 0.94786 0.0
C6765 C 0.38004 0.84552 0.94097 0.0
C6766 C 0.3917 0.85222 0.93872 0.0
C6767 C 0.39235 0.86547 0.94147 0.0
C6768 C 0.40333 0.84597 0.93312 0.0
C6769 C 0.37847 0.83145 0.93761 0.0
C6770 C 0.4092 0.83532 0.93912 0.0
C6771 C 0.42105 0.83062 0.93462 0.0
C6772 C 0.42732 0.83674 0.9243 0.0
C6773 C 0.4212 0.84706 0.91802 0.0
C6774 C 0.40929 0.85155 0.92232 0.0
H6775 H 0.36817 0.82883 0.93631 0.0
H6776 H 0.38378 0.82899 0.92864 0.0
H6777 H 0.38238 0.82548 0.94558 0.0
H6778 H 0.40496 0.83102 0.94763 0.0
H6779 H 0.42568 0.82276 0.93971 0.0
H6780 H 0.93109 0.17423 0.18051 0.0
H6781 H 0.92445 0.1524 0.18692 0.0
H6782 H 0.88571 0.16042 0.17413 0.0
H6783 H 0.89219 0.18197 0.1676 0.0
H6784 H 0.90521 0.14607 0.20511 0.0
H6785 H 0.89353 0.1257 0.15724 0.0
H6786 H 0.90328 0.14001 0.15921 0.0
H6787 H 0.88596 0.14105 0.15979 0.0
C6788 C 0.92121 0.17126 0.1789 0.0
C6789 C 0.91217 0.17986 0.17358 0.0
C6790 C 0.91743 0.15881 0.18261 0.0
C6791 C 0.90463 0.15476 0.18085 0.0
C6792 C 0.89569 0.16326 0.17535 0.0
H6793 H 0.85383 0.10269 0.21859 0.0
H6794 H 0.86795 0.12047 0.21221 0.0
C6795 C 0.89941 0.17564 0.17172 0.0
C6796 C 0.90022 0.14196 0.18538 0.0
H6797 H 0.8834 0.1155 0.17549 0.0
C6798 C 0.90065 0.13925 0.19863 0.0
C6799 C 0.89443 0.133 0.17688 0.0
C6800 C 0.89438 0.13502 0.16247 0.0
C6801 C 0.89477 0.12815 0.2037 0.0
C6802 C 0.8881 0.11971 0.1953 0.0
C6803 C 0.88835 0.12206 0.18196 0.0
C6804 C 0.88028 0.10874 0.20009 0.0
C6805 C 0.89562 0.12566 0.218 0.0
C6806 C 0.88238 0.09628 0.19527 0.0
C6807 C 0.87421 0.08616 0.19876 0.0
C6808 C 0.86377 0.08831 0.20713 0.0
C6809 C 0.86183 0.10072 0.21218 0.0
C6810 C 0.86997 0.11087 0.20862 0.0
H6811 H 0.90428 0.13032 0.22225 0.0
H6812 H 0.88701 0.1298 0.22281 0.0
H6813 H 0.89597 0.11517 0.22012 0.0
H6814 H 0.89022 0.09443 0.18862 0.0
H6815 H 0.87595 0.07668 0.19471 0.0
H6816 H 0.52982 0.14833 0.89578 0.0
H6817 H 0.53674 0.13047 0.88198 0.0
H6818 H 0.55922 0.15683 0.85898 0.0
H6819 H 0.55263 0.17467 0.87294 0.0
H6820 H 0.53517 0.12539 0.85561 0.0
H6821 H 0.58608 0.13104 0.87149 0.0
H6822 H 0.57291 0.13918 0.87938 0.0
H6823 H 0.57902 0.14512 0.86429 0.0
C6824 C 0.53614 0.15034 0.88772 0.0
C6825 C 0.54084 0.16286 0.88555 0.0
C6826 C 0.54006 0.14014 0.87983 0.0
C6827 C 0.54869 0.1423 0.86961 0.0
C6828 C 0.55279 0.15491 0.86699 0.0
H6829 H 0.57049 0.07633 0.81959 0.0
H6830 H 0.56331 0.09809 0.82571 0.0
C6831 C 0.54897 0.16509 0.87494 0.0
C6832 C 0.55394 0.13122 0.86226 0.0
H6833 H 0.58171 0.11444 0.85674 0.0
C6834 C 0.54536 0.12304 0.85572 0.0
C6835 C 0.56724 0.12817 0.86252 0.0
C6836 C 0.57686 0.13625 0.86987 0.0
C6837 C 0.54967 0.11167 0.84974 0.0
C6838 C 0.56294 0.10854 0.85017 0.0
C6839 C 0.57157 0.11695 0.85632 0.0
C6840 C 0.56783 0.09579 0.84595 0.0
C6841 C 0.53993 0.10277 0.84362 0.0
C6842 C 0.57311 0.08749 0.85521 0.0
C6843 C 0.57726 0.0752 0.85177 0.0
C6844 C 0.57625 0.07087 0.83895 0.0
C6845 C 0.57134 0.07934 0.82955 0.0
C6846 C 0.56715 0.09173 0.83304 0.0
H6847 H 0.52986 0.10562 0.8459 0.0
H6848 H 0.54114 0.10298 0.83299 0.0
H6849 H 0.54147 0.09269 0.8469 0.0
H6850 H 0.57378 0.09044 0.86522 0.0
H6851 H 0.58111 0.06903 0.85927 0.0
H6852 H 0.57878 0.31065 0.12765 0.0
H6853 H 0.59733 0.31711 0.11456 0.0
H6854 H 0.61968 0.28602 0.13072 0.0
H6855 H 0.60119 0.27953 0.14398 0.0
H6856 H 0.62311 0.32316 0.12696 0.0
H6857 H 0.62422 0.28489 0.08937 0.0
H6858 H 0.60958 0.28956 0.09761 0.0
H6859 H 0.62133 0.27983 0.10574 0.0
C6860 C 0.58759 0.30509 0.12832 0.0
C6861 C 0.58855 0.29458 0.13685 0.0
C6862 C 0.59816 0.30879 0.12083 0.0
C6863 C 0.60978 0.30196 0.1216 0.0
C6864 C 0.6107 0.29129 0.12988 0.0
H6865 H 0.68816 0.3201 0.10932 0.0
H6866 H 0.66671 0.31407 0.11649 0.0
C6867 C 0.60017 0.28764 0.13747 0.0
C6868 C 0.62128 0.3066 0.11459 0.0
H6869 H 0.64245 0.2987 0.09065 0.0
C6870 C 0.62727 0.31791 0.11893 0.0
C6871 C 0.62655 0.29979 0.10404 0.0
C6872 C 0.62009 0.28787 0.09879 0.0
C6873 C 0.63876 0.3223 0.11333 0.0
C6874 C 0.64442 0.31512 0.1032 0.0
C6875 C 0.63811 0.30414 0.09845 0.0
C6876 C 0.65745 0.31829 0.0983 0.0
C6877 C 0.64489 0.33445 0.11848 0.0
C6878 C 0.65943 0.32225 0.0855 0.0
C6879 C 0.67181 0.3257 0.08127 0.0
C6880 C 0.68235 0.32518 0.08981 0.0
C6881 C 0.68028 0.32082 0.1025 0.0
C6882 C 0.668 0.31738 0.10666 0.0
H6883 H 0.63773 0.34065 0.12349 0.0
H6884 H 0.65248 0.33183 0.12555 0.0
H6885 H 0.64946 0.3401 0.11061 0.0
H6886 H 0.65137 0.32291 0.07889 0.0
H6887 H 0.67308 0.32897 0.07144 0.0
H6888 H 0.47531 0.34705 0.39077 0.0
H6889 H 0.46875 0.36561 0.37772 0.0
H6890 H 0.43547 0.34454 0.36436 0.0
H6891 H 0.4422 0.32583 0.37702 0.0
H6892 H 0.44595 0.35911 0.34518 0.0
H6893 H 0.43939 0.38834 0.38949 0.0
H6894 H 0.45548 0.38228 0.38764 0.0
H6895 H 0.44231 0.37122 0.38997 0.0
C6896 C 0.46669 0.34633 0.38491 0.0
C6897 C 0.4592 0.33505 0.385 0.0
C6898 C 0.46291 0.35695 0.37752 0.0
C6899 C 0.45146 0.35655 0.37031 0.0
C6900 C 0.44431 0.34508 0.3699 0.0
H6901 H 0.40801 0.42454 0.3511 0.0
H6902 H 0.4151 0.40333 0.35845 0.0
C6903 C 0.44816 0.3344 0.37716 0.0
C6904 C 0.44651 0.36829 0.3638 0.0
H6905 H 0.43703 0.39922 0.36962 0.0
C6906 C 0.44397 0.3679 0.3505 0.0
C6907 C 0.44368 0.37964 0.37081 0.0
C6908 C 0.44522 0.3804 0.38528 0.0
C6909 C 0.43877 0.37861 0.344 0.0
C6910 C 0.43636 0.3901 0.35095 0.0
C6911 C 0.43891 0.39044 0.36425 0.0
C6912 C 0.43092 0.4019 0.34489 0.0
C6913 C 0.43559 0.37735 0.32986 0.0
C6914 C 0.43715 0.40798 0.33448 0.0
C6915 C 0.43288 0.42002 0.33005 0.0
C6916 C 0.42255 0.42625 0.3362 0.0
C6917 C 0.41604 0.41994 0.34624 0.0
C6918 C 0.42011 0.40784 0.35046 0.0
H6919 H 0.43426 0.36711 0.32702 0.0
H6920 H 0.42669 0.38277 0.32738 0.0
H6921 H 0.44367 0.38132 0.32408 0.0
H6922 H 0.44568 0.40376 0.33021 0.0
H6923 H 0.43814 0.42479 0.32239 0.0
H6924 H 0.3249 0.15999 0.60511 0.0
H6925 H 0.34586 0.168 0.61222 0.0
H6926 H 0.34617 0.19535 0.58088 0.0
H6927 H 0.32526 0.187 0.57342 0.0
H6928 H 0.37047 0.18551 0.586 0.0
H6929 H 0.34721 0.2022 0.63101 0.0
H6930 H 0.34503 0.18523 0.62856 0.0
H6931 H 0.33807 0.19654 0.61735 0.0
C6932 C 0.32953 0.16757 0.59961 0.0
C6933 C 0.32341 0.17301 0.58883 0.0
C6934 C 0.34146 0.17218 0.60372 0.0
C6935 C 0.34736 0.18254 0.59733 0.0
C6936 C 0.3417 0.18744 0.58603 0.0
H6937 H 0.40434 0.22596 0.64132 0.0
H6938 H 0.38589 0.22057 0.62764 0.0
C6939 C 0.3298 0.18265 0.58176 0.0
C6940 C 0.35897 0.18867 0.603 0.0
H6941 H 0.37021 0.20167 0.63102 0.0
C6942 C 0.37041 0.18918 0.59579 0.0
C6943 C 0.3588 0.19378 0.61565 0.0
C6944 C 0.34658 0.19455 0.62354 0.0
C6945 C 0.38185 0.19413 0.60115 0.0
C6946 C 0.38187 0.19836 0.61414 0.0
C6947 C 0.37028 0.19832 0.62112 0.0
C6948 C 0.3938 0.20242 0.62098 0.0
C6949 C 0.39373 0.19484 0.59278 0.0
C6950 C 0.40447 0.19412 0.62169 0.0
C6951 C 0.41511 0.1973 0.62933 0.0
C6952 C 0.41513 0.2087 0.63664 0.0
C6953 C 0.40456 0.21711 0.63578 0.0
C6954 C 0.39403 0.21403 0.62797 0.0
H6955 H 0.39112 0.19574 0.58243 0.0
H6956 H 0.39994 0.20314 0.59548 0.0
H6957 H 0.39938 0.18583 0.59393 0.0
H6958 H 0.4044 0.18492 0.61675 0.0
H6959 H 0.42306 0.19056 0.62992 0.0
H6960 H 0.53332 0.85353 0.10215 0.0
H6961 H 0.53914 0.87175 0.11597 0.0
H6962 H 0.56397 0.84696 0.13832 0.0
H6963 H 0.55848 0.8288 0.12432 0.0
H6964 H 0.53646 0.87564 0.14198 0.0
H6965 H 0.58831 0.87577 0.1283 0.0
H6966 H 0.57642 0.86647 0.11966 0.0
H6967 H 0.58259 0.86079 0.13484 0.0
C6968 C 0.54001 0.85197 0.11001 0.0
C6969 C 0.54554 0.83978 0.11208 0.0
C6970 C 0.54331 0.86237 0.11791 0.0
C6971 C 0.55215 0.86075 0.12804 0.0
C6972 C 0.55737 0.84849 0.13038 0.0
H6973 H 0.5821 0.92266 0.17842 0.0
H6974 H 0.57537 0.90098 0.17147 0.0
C6975 C 0.55417 0.83812 0.12241 0.0
C6976 C 0.55601 0.87199 0.13598 0.0
H6977 H 0.58169 0.89113 0.14367 0.0
C6978 C 0.54636 0.87896 0.14244 0.0
C6979 C 0.56896 0.87629 0.13658 0.0
C6980 C 0.57966 0.86953 0.1294 0.0
C6981 C 0.54928 0.89031 0.14921 0.0
C6982 C 0.56213 0.89476 0.1495 0.0
C6983 C 0.57186 0.88756 0.1435 0.0
C6984 C 0.56539 0.9077 0.15444 0.0
C6985 C 0.53858 0.89768 0.15572 0.0
C6986 C 0.56198 0.91852 0.14713 0.0
C6987 C 0.56591 0.93079 0.15094 0.0
C6988 C 0.57327 0.93248 0.1622 0.0
C6989 C 0.57638 0.92164 0.16974 0.0
C6990 C 0.57258 0.90929 0.16579 0.0
H6991 H 0.52978 0.89169 0.15696 0.0
H6992 H 0.54175 0.90124 0.16531 0.0
H6993 H 0.53603 0.90619 0.14975 0.0
H6994 H 0.55653 0.91744 0.13828 0.0
H6995 H 0.56328 0.93894 0.14497 0.0
H6996 H 0.82361 0.31103 0.42832 0.0
H6997 H 0.84448 0.3034 0.42019 0.0
H6998 H 0.84432 0.33362 0.39155 0.0
H6999 H 0.82327 0.34081 0.39924 0.0
H7000 H 0.84815 0.31138 0.38062 0.0
H7001 H 0.88119 0.31503 0.42246 0.0
H7002 H 0.86704 0.30566 0.42581 0.0
H7003 H 0.86552 0.32259 0.42228 0.0
C7004 C 0.82823 0.31621 0.42051 0.0
C7005 C 0.82188 0.32646 0.41436 0.0
C7006 C 0.84017 0.31188 0.41589 0.0
C7007 C 0.84603 0.31797 0.40528 0.0
C7008 C 0.83998 0.32872 0.3997 0.0
H7009 H 0.92156 0.30777 0.37228 0.0
H7010 H 0.90276 0.31407 0.38497 0.0
C7011 C 0.82798 0.33285 0.40411 0.0
C7012 C 0.8577 0.31246 0.39905 0.0
H7013 H 0.88892 0.30335 0.40423 0.0
C7014 C 0.85707 0.30968 0.3858 0.0
C7015 C 0.86937 0.31027 0.40577 0.0
C7016 C 0.87089 0.31366 0.41984 0.0
C7017 C 0.86778 0.30496 0.37905 0.0
C7018 C 0.87935 0.30244 0.38583 0.0
C7019 C 0.87999 0.30512 0.3991 0.0
C7020 C 0.89109 0.2978 0.3791 0.0
C7021 C 0.8667 0.30321 0.36463 0.0
C7022 C 0.89092 0.28635 0.37185 0.0
C7023 C 0.9016 0.28282 0.36442 0.0
C7024 C 0.91272 0.29055 0.36432 0.0
C7025 C 0.91311 0.30162 0.37213 0.0
C7026 C 0.90239 0.30523 0.37942 0.0
H7027 H 0.85853 0.3088 0.36055 0.0
H7028 H 0.87569 0.30627 0.35968 0.0
H7029 H 0.86501 0.29287 0.36245 0.0
H7030 H 0.88242 0.2803 0.37172 0.0
H7031 H 0.90108 0.27417 0.35859 0.0
H7032 H 0.44524 0.67357 0.62582 0.0
H7033 H 0.43905 0.6561 0.64041 0.0
H7034 H 0.46231 0.62951 0.61845 0.0
H7035 H 0.46876 0.64698 0.60401 0.0
H7036 H 0.42571 0.63499 0.6338 0.0
H7037 H 0.47229 0.62004 0.65493 0.0
H7038 H 0.47028 0.63514 0.64649 0.0
H7039 H 0.47295 0.62043 0.63765 0.0
C7040 C 0.4492 0.66404 0.62422 0.0
C7041 C 0.45748 0.66163 0.61376 0.0
C7042 C 0.44566 0.65408 0.63257 0.0
C7043 C 0.45036 0.64154 0.63064 0.0
C7044 C 0.45883 0.63917 0.62034 0.0
H7045 H 0.4178 0.56851 0.64187 0.0
H7046 H 0.4245 0.59009 0.63569 0.0
C7047 C 0.46242 0.64915 0.61202 0.0
C7048 C 0.44547 0.6307 0.63859 0.0
H7049 H 0.45512 0.60425 0.65567 0.0
C7050 C 0.43213 0.62841 0.63878 0.0
C7051 C 0.45381 0.62222 0.64529 0.0
C7052 C 0.46811 0.62466 0.64621 0.0
C7053 C 0.42699 0.61744 0.64479 0.0
C7054 C 0.43543 0.60843 0.65056 0.0
C7055 C 0.44868 0.61112 0.65111 0.0
C7056 C 0.43086 0.59558 0.65479 0.0
C7057 C 0.41258 0.61545 0.64463 0.0
C7058 C 0.43238 0.59141 0.66758 0.0
C7059 C 0.42857 0.57895 0.67119 0.0
C7060 C 0.42336 0.57044 0.66199 0.0
C7061 C 0.4218 0.57476 0.64922 0.0
C7062 C 0.42554 0.58716 0.64567 0.0
H7063 H 0.40737 0.62477 0.64377 0.0
H7064 H 0.40996 0.60945 0.63617 0.0
H7065 H 0.40925 0.61043 0.65349 0.0
H7066 H 0.43658 0.59777 0.67473 0.0
H7067 H 0.42994 0.57592 0.68108 0.0
H7068 H 0.10025 0.22107 0.85622 0.0
H7069 H 0.11804 0.21407 0.87003 0.0
H7070 H 0.09225 0.18879 0.89064 0.0
H7071 H 0.07445 0.19555 0.8767 0.0
H7072 H 0.12201 0.21401 0.89695 0.0
H7073 H 0.12002 0.16436 0.87666 0.0
H7074 H 0.11153 0.17772 0.86945 0.0
H7075 H 0.10533 0.17018 0.88376 0.0
C7076 C 0.09833 0.21412 0.86377 0.0
C7077 C 0.08599 0.20873 0.86526 0.0
C7078 C 0.10849 0.21015 0.87168 0.0
C7079 C 0.10649 0.20077 0.88122 0.0
C7080 C 0.09404 0.19588 0.88318 0.0
H7081 H 0.17269 0.17853 0.93076 0.0
H7082 H 0.15066 0.18497 0.92484 0.0
C7083 C 0.08388 0.19979 0.87523 0.0
C7084 C 0.11763 0.19558 0.88849 0.0
H7085 H 0.13618 0.1686 0.8919 0.0
C7086 C 0.12505 0.20404 0.89601 0.0
C7087 C 0.12158 0.18258 0.88713 0.0
C7088 C 0.11429 0.17317 0.87874 0.0
C7089 C 0.13657 0.19997 0.90187 0.0
C7090 C 0.14064 0.18704 0.90029 0.0
C7091 C 0.13295 0.17847 0.89318 0.0
C7092 C 0.15363 0.18268 0.90431 0.0
C7093 C 0.14464 0.20967 0.9091 0.0
C7094 C 0.16245 0.17896 0.89478 0.0
C7095 C 0.1749 0.17524 0.8981 0.0
C7096 C 0.1789 0.17513 0.91107 0.0
C7097 C 0.16995 0.17857 0.92069 0.0
C7098 C 0.1574 0.18232 0.91732 0.0
H7099 H 0.14108 0.21969 0.90777 0.0
H7100 H 0.14439 0.20739 0.91955 0.0
H7101 H 0.15484 0.2092 0.90588 0.0
H7102 H 0.15974 0.17915 0.88469 0.0
H7103 H 0.18144 0.17257 0.8904 0.0
H7104 H 0.87314 0.05311 0.67378 0.0
H7105 H 0.85887 0.05934 0.65611 0.0
H7106 H 0.88235 0.03769 0.62947 0.0
H7107 H 0.89649 0.03114 0.64718 0.0
H7108 H 0.8658 0.0737 0.63597 0.0
H7109 H 0.84658 0.02727 0.61813 0.0
H7110 H 0.85451 0.02878 0.63357 0.0
H7111 H 0.86385 0.02717 0.61902 0.0
C7112 C 0.87514 0.04948 0.66419 0.0
C7113 C 0.88596 0.04166 0.66185 0.0
C7114 C 0.86696 0.05305 0.65411 0.0
C7115 C 0.86944 0.04887 0.64149 0.0
C7116 C 0.88006 0.04078 0.63917 0.0
H7117 H 0.85818 0.0848 0.56977 0.0
H7118 H 0.86444 0.07714 0.59102 0.0
C7119 C 0.8882 0.03712 0.64929 0.0
C7120 C 0.86173 0.05403 0.63059 0.0
H7121 H 0.84545 0.04524 0.60335 0.0
C7122 C 0.86116 0.06746 0.62897 0.0
C7123 C 0.85549 0.04593 0.62155 0.0
C7124 C 0.85501 0.03149 0.62322 0.0
C7125 C 0.85517 0.07298 0.61818 0.0
C7126 C 0.8498 0.06484 0.60866 0.0
C7127 C 0.84969 0.05145 0.61062 0.0
C7128 C 0.84551 0.06998 0.59605 0.0
C7129 C 0.85488 0.08747 0.61694 0.0
C7130 C 0.83277 0.06837 0.59174 0.0
C7131 C 0.82911 0.07275 0.57948 0.0
C7132 C 0.83822 0.07862 0.5713 0.0
C7133 C 0.85092 0.08029 0.57577 0.0
C7134 C 0.85451 0.076 0.58798 0.0
H7135 H 0.85554 0.09222 0.62652 0.0
H7136 H 0.86327 0.09067 0.61112 0.0
H7137 H 0.84594 0.09077 0.61206 0.0
H7138 H 0.82571 0.06365 0.59782 0.0
H7139 H 0.81928 0.07126 0.5763 0.0
H7140 H 0.31843 0.93054 0.9255 0.0
H7141 H 0.3252 0.93718 0.90377 0.0
H7142 H 0.36429 0.92607 0.91253 0.0
H7143 H 0.35771 0.91935 0.93398 0.0
H7144 H 0.34396 0.95609 0.8975 0.0
H7145 H 0.35749 0.90835 0.87792 0.0
H7146 H 0.34745 0.91018 0.89204 0.0
H7147 H 0.36471 0.91139 0.89334 0.0
C7148 C 0.32843 0.92938 0.92272 0.0
C7149 C 0.33752 0.92444 0.9315 0.0
C7150 C 0.33228 0.93321 0.91033 0.0
C7151 C 0.34521 0.93195 0.9065 0.0
C7152 C 0.35422 0.9269 0.9152 0.0
H7153 H 0.39524 0.97045 0.8541 0.0
H7154 H 0.38121 0.96399 0.87193 0.0
C7155 C 0.35043 0.92315 0.92753 0.0
C7156 C 0.34963 0.93647 0.8937 0.0
H7157 H 0.36696 0.92678 0.86749 0.0
C7158 C 0.34879 0.94967 0.8908 0.0
C7159 C 0.35577 0.92805 0.88491 0.0
C7160 C 0.3563 0.91368 0.88714 0.0
C7161 C 0.35459 0.95477 0.87967 0.0
C7162 C 0.36157 0.94648 0.87139 0.0
C7163 C 0.36176 0.93318 0.87393 0.0
C7164 C 0.36926 0.95137 0.86036 0.0
C7165 C 0.35329 0.96901 0.87698 0.0
C7166 C 0.36732 0.94632 0.84796 0.0
C7167 C 0.37542 0.94987 0.83781 0.0
C7168 C 0.38566 0.95852 0.83987 0.0
C7169 C 0.3874 0.96383 0.85221 0.0
C7170 C 0.37932 0.96021 0.86238 0.0
H7171 H 0.34451 0.97306 0.88159 0.0
H7172 H 0.36176 0.97413 0.88103 0.0
H7173 H 0.35288 0.97095 0.86646 0.0
H7174 H 0.35967 0.93943 0.84619 0.0
H7175 H 0.37383 0.94562 0.8284 0.0
H7176 H 0.81115 0.1042 0.18586 0.0
H7177 H 0.804 0.11035 0.16436 0.0
H7178 H 0.82437 0.07798 0.1481 0.0
H7179 H 0.83154 0.07156 0.16984 0.0
H7180 H 0.82952 0.10507 0.13763 0.0
H7181 H 0.7778 0.09143 0.13917 0.0
H7182 H 0.78382 0.09928 0.15342 0.0
H7183 H 0.78991 0.08367 0.14904 0.0
C7184 C 0.81404 0.09828 0.17775 0.0
C7185 C 0.82196 0.08742 0.17953 0.0
C7186 C 0.80986 0.10178 0.16548 0.0
C7187 C 0.81357 0.09455 0.1547 0.0
C7188 C 0.82133 0.08359 0.15637 0.0
H7189 H 0.80501 0.12508 0.07603 0.0
H7190 H 0.81058 0.11064 0.09383 0.0
C7191 C 0.82539 0.07994 0.16875 0.0
C7192 C 0.81005 0.09929 0.14173 0.0
H7193 H 0.78394 0.10688 0.12323 0.0
C7194 C 0.81962 0.10524 0.13428 0.0
C7195 C 0.79709 0.09958 0.13756 0.0
C7196 C 0.78654 0.09307 0.14514 0.0
C7197 C 0.81645 0.11217 0.12308 0.0
C7198 C 0.8034 0.11285 0.11911 0.0
C7199 C 0.79392 0.10638 0.12629 0.0
C7200 C 0.79929 0.12092 0.10805 0.0
C7201 C 0.82701 0.11934 0.11607 0.0
C7202 C 0.79067 0.13118 0.11001 0.0
C7203 C 0.78732 0.13934 0.09982 0.0
C7204 C 0.79258 0.13741 0.0875 0.0
C7205 C 0.8009 0.12689 0.08546 0.0
C7206 C 0.80415 0.11867 0.09563 0.0
H7207 H 0.83586 0.12029 0.12204 0.0
H7208 H 0.82961 0.11399 0.10718 0.0
H7209 H 0.82375 0.12914 0.11323 0.0
H7210 H 0.78676 0.13306 0.11952 0.0
H7211 H 0.78087 0.14734 0.10167 0.0
H7212 H 0.62591 0.55501 0.32884 0.0
H7213 H 0.63988 0.56153 0.34668 0.0
H7214 H 0.61836 0.53704 0.37251 0.0
H7215 H 0.60451 0.53028 0.35466 0.0
H7216 H 0.63235 0.57425 0.36802 0.0
H7217 H 0.65518 0.52816 0.38216 0.0
H7218 H 0.64688 0.53022 0.36699 0.0
H7219 H 0.63794 0.52695 0.38151 0.0
C7220 C 0.62428 0.55086 0.33828 0.0
C7221 C 0.61412 0.54213 0.34035 0.0
C7222 C 0.63227 0.55459 0.34846 0.0
C7223 C 0.63029 0.54964 0.36089 0.0
C7224 C 0.62028 0.54075 0.36294 0.0
H7225 H 0.64163 0.58189 0.43452 0.0
H7226 H 0.63505 0.57507 0.41309 0.0
C7227 C 0.6123 0.53696 0.35274 0.0
C7228 C 0.63792 0.55461 0.37192 0.0
H7229 H 0.65559 0.54514 0.39804 0.0
C7230 C 0.6376 0.5679 0.37447 0.0
C7231 C 0.64497 0.54637 0.38021 0.0
C7232 C 0.64639 0.53215 0.37751 0.0
C7233 C 0.64352 0.57307 0.38546 0.0
C7234 C 0.64974 0.5647 0.39426 0.0
C7235 C 0.6507 0.55152 0.39135 0.0
C7236 C 0.65415 0.56926 0.40705 0.0
C7237 C 0.64286 0.58744 0.38769 0.0
C7238 C 0.66708 0.56806 0.41088 0.0
C7239 C 0.67093 0.57193 0.42325 0.0
C7240 C 0.66183 0.57687 0.43203 0.0
C7241 C 0.64891 0.57809 0.42806 0.0
C7242 C 0.64512 0.57429 0.41575 0.0
H7243 H 0.64164 0.59277 0.37848 0.0
H7244 H 0.63442 0.58965 0.39389 0.0
H7245 H 0.65168 0.59102 0.39261 0.0
H7246 H 0.67417 0.5641 0.40431 0.0
H7247 H 0.68094 0.57082 0.42601 0.0
H7248 H 0.66954 0.89026 0.68181 0.0
H7249 H 0.67645 0.88424 0.66028 0.0
H7250 H 0.68577 0.92389 0.65192 0.0
H7251 H 0.67901 0.9301 0.67378 0.0
H7252 H 0.66761 0.89235 0.63638 0.0
H7253 H 0.71945 0.90431 0.6437 0.0
H7254 H 0.70822 0.90317 0.65694 0.0
H7255 H 0.70798 0.91701 0.64656 0.0
C7256 C 0.67305 0.89778 0.67546 0.0
C7257 C 0.67384 0.91068 0.67961 0.0
C7258 C 0.67696 0.89429 0.6631 0.0
C7259 C 0.68178 0.90358 0.65456 0.0
C7260 C 0.68227 0.91655 0.65846 0.0
H7261 H 0.69563 0.87687 0.57533 0.0
H7262 H 0.68901 0.8905 0.5934 0.0
C7263 C 0.67833 0.92008 0.67091 0.0
C7264 C 0.6864 0.89934 0.64172 0.0
H7265 H 0.7138 0.89438 0.62413 0.0
C7266 C 0.67767 0.89295 0.63359 0.0
C7267 C 0.69956 0.90002 0.63822 0.0
C7268 C 0.70942 0.90641 0.64681 0.0
C7269 C 0.68182 0.8868 0.62228 0.0
C7270 C 0.69502 0.88731 0.61886 0.0
C7271 C 0.70368 0.89407 0.62676 0.0
C7272 C 0.70012 0.88006 0.60765 0.0
C7273 C 0.67213 0.87923 0.61447 0.0
C7274 C 0.70902 0.87005 0.60957 0.0
C7275 C 0.71295 0.86233 0.59923 0.0
C7276 C 0.70799 0.86449 0.58682 0.0
C7277 C 0.69951 0.87488 0.58482 0.0
C7278 C 0.69567 0.88265 0.59514 0.0
H7279 H 0.66309 0.87745 0.61994 0.0
H7280 H 0.66962 0.88474 0.60566 0.0
H7281 H 0.67619 0.8698 0.61145 0.0
H7282 H 0.71261 0.86792 0.61915 0.0
H7283 H 0.71953 0.85443 0.60106 0.0
H7284 H 0.11944 0.94045 0.6701 0.0
H7285 H 0.13265 0.93463 0.65154 0.0
H7286 H 0.12221 0.97031 0.63284 0.0
H7287 H 0.10845 0.9759 0.6512 0.0
H7288 H 0.11935 0.95155 0.61697 0.0
H7289 H 0.16726 0.94539 0.63926 0.0
H7290 H 0.15557 0.93547 0.64721 0.0
H7291 H 0.15399 0.95278 0.64774 0.0
C7292 C 0.1201 0.94714 0.66211 0.0
C7293 C 0.11293 0.95863 0.66208 0.0
C7294 C 0.12777 0.94385 0.65154 0.0
C7295 C 0.12869 0.95215 0.64087 0.0
C7296 C 0.12174 0.96379 0.64098 0.0
H7297 H 0.17861 0.93566 0.57429 0.0
H7298 H 0.17037 0.94432 0.59476 0.0
C7299 C 0.11387 0.96697 0.65146 0.0
C7300 C 0.13584 0.94809 0.62914 0.0
H7301 H 0.16419 0.93495 0.61861 0.0
C7302 C 0.12922 0.9481 0.61733 0.0
C7303 C 0.1488 0.94376 0.6295 0.0
C7304 C 0.15685 0.94449 0.6416 0.0
C7305 C 0.13499 0.94348 0.60603 0.0
C7306 C 0.14757 0.93822 0.6066 0.0
C7307 C 0.15443 0.93871 0.61825 0.0
C7308 C 0.15354 0.93197 0.5952 0.0
C7309 C 0.1275 0.94434 0.59357 0.0
C7310 C 0.14717 0.92175 0.58905 0.0
C7311 C 0.15174 0.91696 0.57735 0.0
C7312 C 0.16296 0.92206 0.57175 0.0
C7313 C 0.16994 0.93156 0.57842 0.0
C7314 C 0.16522 0.93653 0.59007 0.0
H7315 H 0.12017 0.95215 0.59394 0.0
H7316 H 0.13398 0.94615 0.58523 0.0
H7317 H 0.12233 0.93512 0.59192 0.0
H7318 H 0.13838 0.91778 0.59306 0.0
H7319 H 0.14628 0.90949 0.57249 0.0
H7320 H 0.77954 0.35226 0.39949 0.0
H7321 H 0.78545 0.36655 0.38168 0.0
H7322 H 0.80823 0.38969 0.40766 0.0
H7323 H 0.80262 0.37526 0.42547 0.0
H7324 H 0.78217 0.39275 0.37774 0.0
H7325 H 0.83426 0.3801 0.37995 0.0
H7326 H 0.82212 0.37108 0.38853 0.0
H7327 H 0.82757 0.38635 0.39465 0.0
C7328 C 0.78576 0.36042 0.40143 0.0
C7329 C 0.79072 0.36256 0.41385 0.0
C7330 C 0.78911 0.36859 0.39125 0.0
C7331 C 0.79746 0.37905 0.3933 0.0
C7332 C 0.80201 0.38151 0.4058 0.0
H7333 H 0.83007 0.4282 0.33153 0.0
H7334 H 0.82268 0.42186 0.35321 0.0
C7335 C 0.79873 0.3733 0.41597 0.0
C7336 C 0.80164 0.38708 0.38223 0.0
H7337 H 0.82795 0.39496 0.36403 0.0
C7338 C 0.7922 0.39335 0.37483 0.0
C7339 C 0.81475 0.38788 0.37845 0.0
C7340 C 0.82527 0.38092 0.38572 0.0
C7341 C 0.79546 0.40005 0.36353 0.0
C7342 C 0.80847 0.40046 0.35955 0.0
C7343 C 0.81799 0.39471 0.36722 0.0
C7344 C 0.81214 0.40512 0.34658 0.0
C7345 C 0.78494 0.40635 0.35571 0.0
C7346 C 0.80864 0.3978 0.3358 0.0
C7347 C 0.81294 0.40126 0.32356 0.0
C7348 C 0.82078 0.41219 0.32181 0.0
C7349 C 0.82399 0.41977 0.33259 0.0
C7350 C 0.81981 0.41616 0.34494 0.0
H7351 H 0.77609 0.40795 0.36153 0.0
H7352 H 0.78825 0.41573 0.35175 0.0
H7353 H 0.78241 0.4 0.34748 0.0
H7354 H 0.80285 0.38917 0.3369 0.0
H7355 H 0.81022 0.39526 0.31545 0.0
H7356 H 0.18152 0.07058 0.82486 0.0
H7357 H 0.18854 0.07704 0.84657 0.0
H7358 H 0.17686 0.11616 0.83873 0.0
H7359 H 0.1698 0.1099 0.81728 0.0
H7360 H 0.20742 0.09642 0.8527 0.0
H7361 H 0.15966 0.10788 0.87357 0.0
H7362 H 0.16156 0.09802 0.85934 0.0
H7363 H 0.16216 0.11532 0.85815 0.0
C7364 C 0.18033 0.08053 0.82783 0.0
C7365 C 0.17511 0.08972 0.81932 0.0
C7366 C 0.18437 0.08419 0.8402 0.0
C7367 C 0.18306 0.09703 0.84427 0.0
C7368 C 0.17776 0.10616 0.83585 0.0
H7369 H 0.22047 0.14768 0.89653 0.0
H7370 H 0.21433 0.13352 0.87869 0.0
C7371 C 0.1738 0.10255 0.82353 0.0
C7372 C 0.18771 0.10127 0.85708 0.0
H7373 H 0.17798 0.11766 0.88386 0.0
C7374 C 0.20099 0.10086 0.85965 0.0
C7375 C 0.17927 0.10689 0.86618 0.0
C7376 C 0.16485 0.10695 0.86425 0.0
C7377 C 0.20613 0.10662 0.87078 0.0
C7378 C 0.19777 0.1131 0.87939 0.0
C7379 C 0.18442 0.11283 0.87717 0.0
C7380 C 0.20261 0.12082 0.89041 0.0
C7381 C 0.22046 0.10585 0.87311 0.0
C7382 C 0.19797 0.11847 0.90289 0.0
C7383 C 0.20132 0.12664 0.91305 0.0
C7384 C 0.20936 0.13734 0.91091 0.0
C7385 C 0.21431 0.13948 0.89849 0.0
C7386 C 0.21089 0.13133 0.8883 0.0
H7387 H 0.22475 0.09733 0.86823 0.0
H7388 H 0.22514 0.1146 0.86912 0.0
H7389 H 0.22267 0.10531 0.88357 0.0
H7390 H 0.19151 0.11046 0.90472 0.0
H7391 H 0.19738 0.12472 0.92253 0.0
H7392 H 0.58008 0.81987 0.07566 0.0
H7393 H 0.60181 0.82662 0.06886 0.0
H7394 H 0.58638 0.86274 0.05528 0.0
H7395 H 0.56487 0.85621 0.06192 0.0
H7396 H 0.6106 0.8385 0.04172 0.0
H7397 H 0.61479 0.86994 0.08498 0.0
H7398 H 0.60417 0.85613 0.08442 0.0
H7399 H 0.59977 0.8708 0.07635 0.0
C7400 C 0.58131 0.82916 0.07105 0.0
C7401 C 0.57076 0.83756 0.06949 0.0
C7402 C 0.5937 0.83299 0.06719 0.0
C7403 C 0.59563 0.84522 0.06171 0.0
C7404 C 0.58506 0.85331 0.0596 0.0
H7405 H 0.65103 0.8928 0.02494 0.0
H7406 H 0.63317 0.87839 0.03058 0.0
C7407 C 0.57277 0.84955 0.06345 0.0
C7408 C 0.60869 0.85009 0.05883 0.0
H7409 H 0.62993 0.87342 0.06815 0.0
C7410 C 0.61497 0.84597 0.04758 0.0
C7411 C 0.61432 0.85982 0.06654 0.0
C7412 C 0.608 0.86441 0.07881 0.0
C7413 C 0.62653 0.8518 0.04354 0.0
C7414 C 0.6318 0.86196 0.05094 0.0
C7415 C 0.62582 0.86564 0.06249 0.0
C7416 C 0.64312 0.86944 0.04658 0.0
C7417 C 0.63294 0.84723 0.03133 0.0
C7418 C 0.65459 0.86914 0.05372 0.0
C7419 C 0.66481 0.87731 0.05049 0.0
C7420 C 0.66363 0.88606 0.0402 0.0
C7421 C 0.65222 0.88615 0.0329 0.0
C7422 C 0.64205 0.87788 0.03606 0.0
H7423 H 0.62919 0.83771 0.02817 0.0
H7424 H 0.63111 0.85432 0.02352 0.0
H7425 H 0.64354 0.84652 0.03269 0.0
H7426 H 0.65553 0.86277 0.06195 0.0
H7427 H 0.67346 0.87704 0.05633 0.0
H7428 H 0.37717 0.92538 0.30454 0.0
H7429 H 0.39165 0.90785 0.31075 0.0
H7430 H 0.37031 0.88161 0.28653 0.0
H7431 H 0.35598 0.89916 0.28005 0.0
H7432 H 0.38472 0.88669 0.32365 0.0
H7433 H 0.40696 0.87205 0.27751 0.0
H7434 H 0.3985 0.88715 0.27941 0.0
H7435 H 0.38972 0.87249 0.27635 0.0
C7436 C 0.3757 0.91592 0.30036 0.0
C7437 C 0.36542 0.91363 0.29182 0.0
C7438 C 0.38399 0.90592 0.30392 0.0
C7439 C 0.38219 0.89345 0.29898 0.0
C7440 C 0.3721 0.89122 0.29022 0.0
H7441 H 0.39147 0.82015 0.33107 0.0
H7442 H 0.38596 0.84198 0.32462 0.0
C7443 C 0.36385 0.90124 0.28659 0.0
C7444 C 0.38996 0.88253 0.30396 0.0
H7445 H 0.40701 0.85601 0.29449 0.0
C7446 C 0.3898 0.88013 0.31729 0.0
C7447 C 0.3968 0.87408 0.29572 0.0
C7448 C 0.39813 0.87665 0.28147 0.0
C7449 C 0.39557 0.86906 0.32247 0.0
C7450 C 0.40143 0.86005 0.31409 0.0
C7451 C 0.40237 0.86287 0.30089 0.0
C7452 C 0.40528 0.84707 0.31862 0.0
C7453 C 0.39503 0.86694 0.33686 0.0
C7454 C 0.41799 0.84259 0.31722 0.0
C7455 C 0.4212 0.82998 0.32088 0.0
C7456 C 0.4117 0.82163 0.3258 0.0
C7457 C 0.39904 0.82627 0.32728 0.0
C7458 C 0.39587 0.83881 0.32369 0.0
H7459 H 0.3943 0.87624 0.34213 0.0
H7460 H 0.38635 0.86116 0.33924 0.0
H7461 H 0.40366 0.86166 0.34035 0.0
H7462 H 0.42536 0.84881 0.31321 0.0
H7463 H 0.43103 0.82668 0.31958 0.0
H7464 H 0.3231 0.62809 0.55479 0.0
H7465 H 0.34051 0.64285 0.56074 0.0
H7466 H 0.36706 0.62092 0.5374 0.0
H7467 H 0.34965 0.60637 0.53114 0.0
H7468 H 0.36142 0.63657 0.57405 0.0
H7469 H 0.37689 0.6571 0.52744 0.0
H7470 H 0.36178 0.64865 0.52933 0.0
H7471 H 0.37654 0.63984 0.52677 0.0
C7472 C 0.3326 0.62656 0.55074 0.0
C7473 C 0.33502 0.61606 0.54251 0.0
C7474 C 0.34254 0.635 0.55414 0.0
C7475 C 0.35506 0.63312 0.54937 0.0
C7476 C 0.35742 0.6228 0.54093 0.0
H7477 H 0.4279 0.642 0.582 0.0
H7478 H 0.40602 0.63687 0.57543 0.0
C7479 C 0.34747 0.6144 0.53744 0.0
C7480 C 0.36593 0.64104 0.55425 0.0
H7481 H 0.39286 0.65732 0.54457 0.0
C7482 C 0.36814 0.64133 0.56761 0.0
C7483 C 0.3746 0.64748 0.5459 0.0
C7484 C 0.37225 0.64838 0.53158 0.0
C7485 C 0.37924 0.6471 0.57275 0.0
C7486 C 0.38847 0.65249 0.56429 0.0
C7487 C 0.38584 0.65303 0.55103 0.0
C7488 C 0.40149 0.65615 0.56885 0.0
C7489 C 0.38115 0.64702 0.58717 0.0
C7490 C 0.40631 0.66869 0.56717 0.0
C7491 C 0.41895 0.67169 0.57091 0.0
C7492 C 0.427 0.66212 0.5762 0.0
C7493 C 0.42203 0.64962 0.57794 0.0
C7494 C 0.40945 0.64667 0.57428 0.0
H7495 H 0.37177 0.64667 0.59233 0.0
H7496 H 0.38672 0.63831 0.58993 0.0
H7497 H 0.38656 0.65567 0.59042 0.0
H7498 H 0.40033 0.6761 0.56289 0.0
H7499 H 0.42251 0.68139 0.56939 0.0
H7500 H 0.5736 0.67691 0.81158 0.0
H7501 H 0.5821 0.65615 0.80402 0.0
H7502 H 0.60958 0.65606 0.83528 0.0
H7503 H 0.60153 0.677 0.84242 0.0
H7504 H 0.62135 0.65248 0.81344 0.0
H7505 H 0.57949 0.61931 0.8152 0.0
H7506 H 0.57647 0.63355 0.80586 0.0
H7507 H 0.57935 0.6349 0.82291 0.0
C7508 C 0.58123 0.67226 0.81699 0.0
C7509 C 0.58696 0.67852 0.82753 0.0
C7510 C 0.58606 0.66038 0.81269 0.0
C7511 C 0.59645 0.65448 0.81911 0.0
C7512 C 0.60161 0.66043 0.83013 0.0
H7513 H 0.62991 0.57902 0.80919 0.0
H7514 H 0.61709 0.59778 0.81539 0.0
C7515 C 0.59699 0.67237 0.83423 0.0
C7516 C 0.60292 0.64288 0.81373 0.0
H7517 H 0.59817 0.61172 0.80416 0.0
C7518 C 0.61626 0.64356 0.81146 0.0
C7519 C 0.59632 0.63121 0.81119 0.0
C7520 C 0.58215 0.62962 0.81403 0.0
C7521 C 0.62321 0.6329 0.8069 0.0
C7522 C 0.61657 0.62134 0.80402 0.0
C7523 C 0.60322 0.62065 0.8062 0.0
C7524 C 0.62349 0.60967 0.79948 0.0
C7525 C 0.63768 0.63403 0.80569 0.0
C7526 C 0.6311 0.60999 0.78827 0.0
C7527 C 0.6386 0.59933 0.7848 0.0
C7528 C 0.63841 0.58809 0.79235 0.0
C7529 C 0.63029 0.58757 0.80319 0.0
C7530 C 0.62292 0.59827 0.80673 0.0
H7531 H 0.64154 0.64215 0.81152 0.0
H7532 H 0.64254 0.62502 0.80881 0.0
H7533 H 0.64023 0.63587 0.79546 0.0
H7534 H 0.63144 0.61859 0.78234 0.0
H7535 H 0.64468 0.59996 0.77633 0.0
H7536 H 0.56737 0.14115 0.92088 0.0
H7537 H 0.58878 0.13498 0.92805 0.0
H7538 H 0.59826 0.17489 0.93484 0.0
H7539 H 0.57655 0.18126 0.92782 0.0
H7540 H 0.61272 0.14195 0.9184 0.0
H7541 H 0.60658 0.1572 0.96952 0.0
H7542 H 0.59313 0.15568 0.95859 0.0
H7543 H 0.60378 0.16926 0.95737 0.0
C7544 C 0.57394 0.14869 0.9239 0.0
C7545 C 0.57015 0.16173 0.92388 0.0
C7546 C 0.58622 0.14512 0.92796 0.0
C7547 C 0.59505 0.15445 0.93213 0.0
C7548 C 0.5915 0.16752 0.93186 0.0
H7549 H 0.67416 0.12762 0.94611 0.0
H7550 H 0.65612 0.14116 0.93923 0.0
C7551 C 0.57913 0.17114 0.92776 0.0
C7552 C 0.60786 0.15019 0.93681 0.0
H7553 H 0.62594 0.14669 0.96412 0.0
C7554 C 0.61572 0.14314 0.92835 0.0
C7555 C 0.61163 0.15164 0.94984 0.0
C7556 C 0.60334 0.15877 0.95943 0.0
C7557 C 0.62703 0.13711 0.93264 0.0
C7558 C 0.63074 0.13841 0.94571 0.0
C7559 C 0.62309 0.14579 0.9541 0.0
C7560 C 0.64197 0.13135 0.951 0.0
C7561 C 0.63456 0.12885 0.9233 0.0
C7562 C 0.64009 0.12174 0.96035 0.0
C7563 C 0.6504 0.11406 0.96439 0.0
C7564 C 0.66276 0.11586 0.95914 0.0
C7565 C 0.66473 0.12592 0.95025 0.0
C7566 C 0.65443 0.13363 0.94626 0.0
H7567 H 0.62895 0.12666 0.91444 0.0
H7568 H 0.64346 0.13402 0.92039 0.0
H7569 H 0.63744 0.1196 0.92787 0.0
H7570 H 0.63055 0.11986 0.96416 0.0
H7571 H 0.6486 0.10644 0.9713 0.0
H7572 H 0.14259 0.90087 0.22372 0.0
H7573 H 0.12915 0.88272 0.21687 0.0
H7574 H 0.11524 0.90507 0.18467 0.0
H7575 H 0.12833 0.92338 0.19168 0.0
H7576 H 0.09609 0.89035 0.19539 0.0
H7577 H 0.13982 0.86096 0.18625 0.0
H7578 H 0.13863 0.86652 0.20259 0.0
H7579 H 0.14058 0.87798 0.1897 0.0
C7580 C 0.13654 0.90196 0.21528 0.0
C7581 C 0.1366 0.91348 0.20816 0.0
C7582 C 0.12892 0.89157 0.21134 0.0
C7583 C 0.12142 0.89246 0.2001 0.0
C7584 C 0.121 0.90416 0.19333 0.0
H7585 H 0.1 0.8256 0.15585 0.0
H7586 H 0.10766 0.84674 0.16286 0.0
C7587 C 0.12851 0.9146 0.19735 0.0
C7588 C 0.11462 0.88099 0.19495 0.0
H7589 H 0.11977 0.85032 0.18433 0.0
C7590 C 0.10124 0.88158 0.19293 0.0
C7591 C 0.12141 0.86968 0.1915 0.0
C7592 C 0.13591 0.86875 0.19248 0.0
C7593 C 0.09444 0.87109 0.18768 0.0
C7594 C 0.10118 0.85961 0.18467 0.0
C7595 C 0.11457 0.85909 0.18667 0.0
C7596 C 0.09478 0.84799 0.17926 0.0
C7597 C 0.0802 0.87255 0.18511 0.0
C7598 C 0.08464 0.84185 0.18584 0.0
C7599 C 0.08002 0.82987 0.18162 0.0
C7600 C 0.08574 0.82375 0.17099 0.0
C7601 C 0.09548 0.83013 0.16411 0.0
C7602 C 0.09987 0.84218 0.16813 0.0
H7603 H 0.07742 0.88286 0.18411 0.0
H7604 H 0.07729 0.86735 0.17622 0.0
H7605 H 0.07471 0.86849 0.19335 0.0
H7606 H 0.08075 0.84595 0.19461 0.0
H7607 H 0.07261 0.82503 0.18716 0.0
H7608 H 0.33225 0.38103 0.44067 0.0
H7609 H 0.35078 0.36778 0.43485 0.0
H7610 H 0.36998 0.37908 0.47 0.0
H7611 H 0.35164 0.39287 0.47558 0.0
H7612 H 0.38558 0.38151 0.45083 0.0
H7613 H 0.3632 0.33343 0.44633 0.0
H7614 H 0.35509 0.34489 0.43626 0.0
H7615 H 0.35486 0.3469 0.45353 0.0
C7616 C 0.34035 0.38056 0.44725 0.0
C7617 C 0.3405 0.38796 0.4586 0.0
C7618 C 0.3509 0.37286 0.44397 0.0
C7619 C 0.36169 0.37217 0.45211 0.0
C7620 C 0.36173 0.37938 0.46359 0.0
H7621 H 0.42779 0.32151 0.43614 0.0
H7622 H 0.40751 0.33021 0.44481 0.0
C7623 C 0.35126 0.38725 0.46678 0.0
C7624 C 0.37337 0.36492 0.44804 0.0
H7625 H 0.3837 0.33621 0.43557 0.0
C7626 C 0.38516 0.37155 0.44768 0.0
C7627 C 0.37294 0.35185 0.44409 0.0
C7628 C 0.36086 0.34383 0.44521 0.0
C7629 C 0.3964 0.36565 0.44305 0.0
C7630 C 0.39576 0.3529 0.43819 0.0
C7631 C 0.38412 0.34607 0.43904 0.0
C7632 C 0.40708 0.3467 0.43201 0.0
C7633 C 0.40887 0.37316 0.44351 0.0
C7634 C 0.41319 0.35274 0.42156 0.0
C7635 C 0.42479 0.34792 0.41676 0.0
C7636 C 0.43033 0.33677 0.4221 0.0
C7637 C 0.4237 0.33012 0.43186 0.0
C7638 C 0.41216 0.3351 0.43684 0.0
H7639 H 0.4086 0.38072 0.4511 0.0
H7640 H 0.41723 0.36674 0.4454 0.0
H7641 H 0.41039 0.37805 0.43411 0.0
H7642 H 0.40922 0.36145 0.41739 0.0
H7643 H 0.42961 0.35312 0.40908 0.0
H7644 H 0.87539 0.57716 0.69284 0.0
H7645 H 0.88972 0.59511 0.6875 0.0
H7646 H 0.86902 0.61957 0.71401 0.0
H7647 H 0.85478 0.6016 0.71956 0.0
H7648 H 0.88236 0.61771 0.67655 0.0
H7649 H 0.90629 0.62752 0.72322 0.0
H7650 H 0.89768 0.61271 0.72005 0.0
H7651 H 0.88906 0.62706 0.72463 0.0
C7652 C 0.874 0.58632 0.69767 0.0
C7653 C 0.86396 0.58798 0.70663 0.0
C7654 C 0.88221 0.59655 0.69461 0.0
C7655 C 0.88058 0.60862 0.7005 0.0
C7656 C 0.87067 0.61026 0.70959 0.0
H7657 H 0.89109 0.68501 0.67851 0.0
H7658 H 0.88512 0.66327 0.6848 0.0
C7659 C 0.86247 0.60001 0.71268 0.0
C7660 C 0.88845 0.6198 0.69631 0.0
H7661 H 0.90676 0.64477 0.70756 0.0
C7662 C 0.88791 0.62347 0.68329 0.0
C7663 C 0.8958 0.62725 0.70507 0.0
C7664 C 0.89737 0.62336 0.719 0.0
C7665 C 0.89385 0.63482 0.67897 0.0
C7666 C 0.90045 0.64269 0.6879 0.0
C7667 C 0.90165 0.63869 0.70076 0.0
C7668 C 0.90457 0.65585 0.68436 0.0
C7669 C 0.89262 0.63864 0.66499 0.0
C7670 C 0.91758 0.65888 0.68217 0.0
C7671 C 0.9211 0.67141 0.67849 0.0
C7672 C 0.91165 0.68106 0.67704 0.0
C7673 C 0.89867 0.67789 0.67945 0.0
C7674 C 0.89519 0.66545 0.68307 0.0
H7675 H 0.88946 0.63044 0.65887 0.0
H7676 H 0.8854 0.64649 0.6641 0.0
H7677 H 0.90196 0.64236 0.66128 0.0
H7678 H 0.92493 0.65153 0.68315 0.0
H7679 H 0.93118 0.67352 0.67672 0.0
H7680 H 0.55522 0.67524 0.37334 0.0
H7681 H 0.56127 0.65782 0.35863 0.0
H7682 H 0.53627 0.63173 0.37924 0.0
H7683 H 0.52999 0.64915 0.3938 0.0
H7684 H 0.57363 0.63622 0.36573 0.0
H7685 H 0.52776 0.62283 0.3422 0.0
H7686 H 0.52982 0.63785 0.35077 0.0
H7687 H 0.52615 0.62325 0.35941 0.0
C7688 C 0.55084 0.66585 0.37459 0.0
C7689 C 0.54215 0.66354 0.38474 0.0
C7690 C 0.55429 0.65591 0.36617 0.0
C7691 C 0.54908 0.64352 0.36771 0.0
C7692 C 0.54016 0.64129 0.37765 0.0
H7693 H 0.57914 0.56959 0.35994 0.0
H7694 H 0.57249 0.59146 0.365 0.0
C7695 C 0.53667 0.65123 0.38605 0.0
C7696 C 0.554 0.63259 0.35992 0.0
H7697 H 0.54431 0.60629 0.34265 0.0
C7698 C 0.56724 0.62983 0.36045 0.0
C7699 C 0.54573 0.62436 0.35284 0.0
C7700 C 0.5316 0.6273 0.35115 0.0
C7701 C 0.57228 0.6186 0.35488 0.0
C7702 C 0.56383 0.60981 0.3488 0.0
C7703 C 0.55075 0.61299 0.34745 0.0
C7704 C 0.56811 0.59666 0.34528 0.0
C7705 C 0.58656 0.61602 0.35593 0.0
C7706 C 0.56762 0.59224 0.3325 0.0
C7707 C 0.57143 0.57961 0.32952 0.0
C7708 C 0.57559 0.5712 0.33933 0.0
C7709 C 0.576 0.57575 0.35211 0.0
C7710 C 0.57228 0.58831 0.35504 0.0
H7711 H 0.5921 0.62513 0.35702 0.0
H7712 H 0.58842 0.61 0.36458 0.0
H7713 H 0.59019 0.61077 0.34733 0.0
H7714 H 0.56432 0.59855 0.32486 0.0
H7715 H 0.57095 0.57639 0.31959 0.0
H7716 H 0.67105 0.82926 0.56925 0.0
H7717 H 0.6492 0.82308 0.57621 0.0
H7718 H 0.66411 0.81236 0.6135 0.0
H7719 H 0.68568 0.81847 0.6068 0.0
H7720 H 0.63993 0.79822 0.58724 0.0
H7721 H 0.63544 0.83943 0.62104 0.0
H7722 H 0.64709 0.83915 0.60809 0.0
H7723 H 0.65018 0.83053 0.62281 0.0
C7724 C 0.66965 0.82553 0.5789 0.0
C7725 C 0.6801 0.82453 0.58751 0.0
C7726 C 0.65719 0.82202 0.58285 0.0
C7727 C 0.65506 0.8175 0.59544 0.0
C7728 C 0.66553 0.81608 0.60384 0.0
H7729 H 0.60059 0.77861 0.64204 0.0
H7730 H 0.61845 0.78529 0.62805 0.0
C7731 C 0.67787 0.81959 0.59996 0.0
C7732 C 0.64197 0.81436 0.60014 0.0
H7733 H 0.62085 0.82183 0.62425 0.0
C7734 C 0.63562 0.80349 0.59517 0.0
C7735 C 0.63636 0.82132 0.61045 0.0
C7736 C 0.64255 0.83333 0.61585 0.0
C7737 C 0.62412 0.799 0.60077 0.0
C7738 C 0.61895 0.80555 0.61153 0.0
C7739 C 0.62493 0.81679 0.61604 0.0
C7740 C 0.60773 0.80057 0.61873 0.0
C7741 C 0.61766 0.78715 0.59538 0.0
C7742 C 0.59585 0.80693 0.61802 0.0
C7743 C 0.58563 0.80311 0.62593 0.0
C7744 C 0.58723 0.79297 0.63481 0.0
C7745 C 0.59908 0.78643 0.63529 0.0
C7746 C 0.60926 0.7902 0.62728 0.0
H7747 H 0.62181 0.78424 0.58594 0.0
H7748 H 0.61883 0.77904 0.60227 0.0
H7749 H 0.60716 0.78889 0.59418 0.0
H7750 H 0.59456 0.81503 0.61155 0.0
H7751 H 0.57662 0.80835 0.62536 0.0
H7752 H 0.42368 0.92203 0.82222 0.0
H7753 H 0.43009 0.90023 0.82906 0.0
H7754 H 0.43515 0.91389 0.86799 0.0
H7755 H 0.42878 0.93543 0.86142 0.0
H7756 H 0.45397 0.89202 0.84259 0.0
H7757 H 0.4095 0.88317 0.87096 0.0
H7758 H 0.41049 0.89547 0.85866 0.0
H7759 H 0.41712 0.89833 0.87442 0.0
C7760 C 0.42617 0.92038 0.83223 0.0
C7761 C 0.42557 0.93048 0.84128 0.0
C7762 C 0.42984 0.90794 0.8361 0.0
C7763 C 0.43288 0.90545 0.84906 0.0
C7764 C 0.4326 0.91557 0.85799 0.0
H7765 H 0.47192 0.84988 0.89496 0.0
H7766 H 0.46556 0.86807 0.88127 0.0
C7767 C 0.42896 0.92791 0.85417 0.0
C7768 C 0.43634 0.89236 0.85354 0.0
H7769 H 0.42749 0.86948 0.87547 0.0
C7770 C 0.44811 0.88696 0.84961 0.0
C7771 C 0.42861 0.88577 0.86264 0.0
C7772 C 0.41566 0.89091 0.86685 0.0
C7773 C 0.45265 0.87541 0.85508 0.0
C7774 C 0.44524 0.86924 0.86471 0.0
C7775 C 0.43319 0.8743 0.86815 0.0
C7776 C 0.45001 0.85783 0.87184 0.0
C7777 C 0.46539 0.86997 0.85068 0.0
C7778 C 0.44338 0.84609 0.87105 0.0
C7779 C 0.44701 0.83569 0.87881 0.0
C7780 C 0.45723 0.83694 0.88764 0.0
C7781 C 0.46403 0.84864 0.88822 0.0
C7782 C 0.46046 0.859 0.88037 0.0
H7783 H 0.46845 0.87413 0.84129 0.0
H7784 H 0.47289 0.87226 0.85796 0.0
H7785 H 0.46484 0.85932 0.84975 0.0
H7786 H 0.43522 0.84505 0.86461 0.0
H7787 H 0.44154 0.82682 0.87817 0.0
H7788 H 0.31673 0.6691 0.1087 0.0
H7789 H 0.33804 0.67629 0.11519 0.0
H7790 H 0.34726 0.68537 0.07567 0.0
H7791 H 0.32565 0.67831 0.06899 0.0
H7792 H 0.36219 0.66739 0.10744 0.0
H7793 H 0.35486 0.71923 0.09543 0.0
H7794 H 0.34163 0.70796 0.09644 0.0
H7795 H 0.35216 0.70774 0.08271 0.0
C7796 C 0.32323 0.67262 0.10132 0.0
C7797 C 0.3194 0.67323 0.08831 0.0
C7798 C 0.33545 0.67669 0.10507 0.0
C7799 C 0.34416 0.6815 0.09595 0.0
C7800 C 0.34058 0.68187 0.08289 0.0
H7801 H 0.42303 0.69557 0.12327 0.0
H7802 H 0.40502 0.68892 0.10958 0.0
C7803 C 0.32827 0.67776 0.07909 0.0
C7804 C 0.35689 0.68618 0.10042 0.0
H7805 H 0.37432 0.71363 0.10562 0.0
C7806 C 0.36496 0.67747 0.10689 0.0
C7807 C 0.36034 0.69936 0.0998 0.0
C7808 C 0.3518 0.70918 0.09331 0.0
C7809 C 0.37618 0.68163 0.11317 0.0
C7810 C 0.37956 0.69484 0.11271 0.0
C7811 C 0.37171 0.70351 0.10589 0.0
C7812 C 0.39072 0.69994 0.12002 0.0
C7813 C 0.38395 0.67195 0.12079 0.0
C7814 C 0.38873 0.70879 0.13008 0.0
C7815 C 0.39903 0.71272 0.13784 0.0
C7816 C 0.41147 0.70783 0.13567 0.0
C7817 C 0.41352 0.69939 0.12526 0.0
C7818 C 0.40324 0.69554 0.11745 0.0
H7819 H 0.37849 0.66289 0.12252 0.0
H7820 H 0.39281 0.66946 0.11534 0.0
H7821 H 0.38688 0.67601 0.13025 0.0
H7822 H 0.37913 0.71233 0.13218 0.0
H7823 H 0.39717 0.71927 0.14575 0.0
H7824 H 0.52415 0.35027 0.60778 0.0
H7825 H 0.53037 0.36894 0.62087 0.0
H7826 H 0.56429 0.34861 0.6338 0.0
H7827 H 0.55789 0.32981 0.62115 0.0
H7828 H 0.55376 0.36232 0.65317 0.0
H7829 H 0.55865 0.393 0.60961 0.0
H7830 H 0.54276 0.38649 0.61167 0.0
H7831 H 0.55613 0.37583 0.60866 0.0
C7832 C 0.53285 0.34976 0.61353 0.0
C7833 C 0.54059 0.33864 0.61336 0.0
C7834 C 0.53644 0.36044 0.62094 0.0
C7835 C 0.54795 0.36027 0.62809 0.0
C7836 C 0.5554 0.34898 0.62832 0.0
H7837 H 0.59164 0.42761 0.6482 0.0
H7838 H 0.58397 0.4068 0.64033 0.0
C7839 C 0.55174 0.33825 0.62106 0.0
C7840 C 0.55262 0.372 0.63483 0.0
H7841 H 0.56151 0.40324 0.62971 0.0
C7842 C 0.55546 0.37129 0.64807 0.0
C7843 C 0.55505 0.38362 0.6281 0.0
C7844 C 0.55312 0.38479 0.61371 0.0
C7845 C 0.56069 0.38187 0.65474 0.0
C7846 C 0.56281 0.39357 0.64806 0.0
C7847 C 0.55985 0.39428 0.63486 0.0
C7848 C 0.56851 0.40516 0.65428 0.0
C7849 C 0.56427 0.38024 0.66875 0.0
C7850 C 0.56266 0.41099 0.66504 0.0
C7851 C 0.56727 0.4228 0.66975 0.0
C7852 C 0.57755 0.42906 0.66355 0.0
C7853 C 0.58366 0.42299 0.65311 0.0
C7854 C 0.57925 0.41112 0.64859 0.0
H7855 H 0.5656 0.36992 0.67131 0.0
H7856 H 0.57328 0.38553 0.67108 0.0
H7857 H 0.5564 0.38414 0.67486 0.0
H7858 H 0.5542 0.40675 0.66942 0.0
H7859 H 0.56231 0.42738 0.67772 0.0
H7860 H 0.82149 0.81133 0.9263 0.0
H7861 H 0.84245 0.80377 0.91832 0.0
H7862 H 0.84204 0.83354 0.88921 0.0
H7863 H 0.82089 0.84062 0.89673 0.0
H7864 H 0.84674 0.8115 0.87862 0.0
H7865 H 0.87874 0.81612 0.92114 0.0
H7866 H 0.8648 0.80639 0.9243 0.0
H7867 H 0.86289 0.82325 0.92061 0.0
C7868 C 0.82605 0.81638 0.91837 0.0
C7869 C 0.81961 0.82649 0.91207 0.0
C7870 C 0.83804 0.81211 0.91385 0.0
C7871 C 0.8439 0.81814 0.9032 0.0
C7872 C 0.83771 0.82868 0.89739 0.0
H7873 H 0.92051 0.80881 0.87217 0.0
H7874 H 0.90135 0.81497 0.88441 0.0
C7875 C 0.82565 0.83275 0.9017 0.0
C7876 C 0.85582 0.81283 0.89726 0.0
H7877 H 0.88708 0.80435 0.90323 0.0
C7878 C 0.85557 0.80999 0.88402 0.0
C7879 C 0.86738 0.81092 0.90427 0.0
C7880 C 0.86854 0.81445 0.91833 0.0
C7881 C 0.86653 0.80548 0.87754 0.0
C7882 C 0.87797 0.80318 0.88461 0.0
C7883 C 0.87825 0.80594 0.89787 0.0
C7884 C 0.88993 0.79864 0.8782 0.0
C7885 C 0.86583 0.80369 0.8631 0.0
C7886 C 0.89003 0.78719 0.87095 0.0
C7887 C 0.90091 0.78376 0.86377 0.0
C7888 C 0.91197 0.79157 0.86396 0.0
C7889 C 0.91212 0.80261 0.87182 0.0
C7890 C 0.90118 0.80613 0.87884 0.0
H7891 H 0.85772 0.80922 0.85881 0.0
H7892 H 0.87492 0.8068 0.85837 0.0
H7893 H 0.86425 0.79334 0.8609 0.0
H7894 H 0.88158 0.78108 0.8706 0.0
H7895 H 0.90058 0.77513 0.85789 0.0
H7896 H 0.43078 0.0769 0.18114 0.0
H7897 H 0.43721 0.09868 0.1743 0.0
H7898 H 0.42424 0.09037 0.13567 0.0
H7899 H 0.41769 0.06889 0.14236 0.0
H7900 H 0.45533 0.1048 0.15514 0.0
H7901 H 0.40763 0.12522 0.14296 0.0
H7902 H 0.40947 0.11095 0.15279 0.0
H7903 H 0.41015 0.10983 0.13548 0.0
C7904 C 0.42913 0.07981 0.17125 0.0
C7905 C 0.42377 0.07114 0.16229 0.0
C7906 C 0.43284 0.09222 0.16735 0.0
C7907 C 0.43105 0.09618 0.15452 0.0
C7908 C 0.42549 0.08761 0.14567 0.0
H7909 H 0.46946 0.14801 0.10369 0.0
H7910 H 0.46288 0.13024 0.11775 0.0
C7911 C 0.42185 0.07527 0.14951 0.0
C7912 C 0.43565 0.10891 0.14996 0.0
H7913 H 0.42597 0.13525 0.13281 0.0
C7914 C 0.4489 0.11159 0.15046 0.0
C7915 C 0.42723 0.11784 0.14402 0.0
C7916 C 0.41281 0.11588 0.14389 0.0
C7917 C 0.45405 0.12262 0.14452 0.0
C7918 C 0.44572 0.13103 0.13771 0.0
C7919 C 0.43239 0.12871 0.13787 0.0
C7920 C 0.45061 0.14199 0.1299 0.0
C7921 C 0.46835 0.12509 0.14548 0.0
C7922 C 0.44577 0.15446 0.13193 0.0
C7923 C 0.44938 0.16457 0.1238 0.0
C7924 C 0.45789 0.16241 0.11347 0.0
C7925 C 0.46296 0.14999 0.11162 0.0
C7926 C 0.45928 0.13984 0.11971 0.0
H7927 H 0.47251 0.12046 0.1542 0.0
H7928 H 0.47322 0.1209 0.13692 0.0
H7929 H 0.47048 0.13557 0.1458 0.0
H7930 H 0.43902 0.15632 0.13968 0.0
H7931 H 0.44531 0.17404 0.12548 0.0
H7932 H 0.17609 0.68677 0.42677 0.0
H7933 H 0.15541 0.69485 0.41859 0.0
H7934 H 0.1565 0.66656 0.38806 0.0
H7935 H 0.17735 0.65894 0.39584 0.0
H7936 H 0.15244 0.68941 0.37853 0.0
H7937 H 0.11891 0.68242 0.41957 0.0
H7938 H 0.13284 0.69181 0.42368 0.0
H7939 H 0.13471 0.67517 0.41911 0.0
C7940 C 0.17174 0.68213 0.41849 0.0
C7941 C 0.1783 0.67229 0.41189 0.0
C7942 C 0.1599 0.68671 0.41384 0.0
C7943 C 0.15434 0.68127 0.40274 0.0
C7944 C 0.16061 0.67096 0.3966 0.0
H7945 H 0.07906 0.69098 0.36948 0.0
H7946 H 0.09791 0.68477 0.38212 0.0
C7947 C 0.17251 0.66659 0.40106 0.0
C7948 C 0.14266 0.68696 0.3967 0.0
H7949 H 0.11112 0.69485 0.40192 0.0
C7950 C 0.1434 0.69056 0.38366 0.0
C7951 C 0.13084 0.68843 0.40336 0.0
C7952 C 0.1292 0.68414 0.41716 0.0
C7953 C 0.13265 0.69535 0.37702 0.0
C7954 C 0.12091 0.69711 0.38375 0.0
C7955 C 0.12017 0.69366 0.39683 0.0
C7956 C 0.10908 0.70167 0.3771 0.0
C7957 C 0.13388 0.69795 0.36274 0.0
C7958 C 0.10894 0.71342 0.37036 0.0
C7959 C 0.09824 0.7169 0.36292 0.0
C7960 C 0.0874 0.7088 0.36236 0.0
C7961 C 0.08728 0.69741 0.3697 0.0
C7962 C 0.09804 0.69386 0.37696 0.0
H7963 H 0.14229 0.69287 0.35848 0.0
H7964 H 0.12507 0.69489 0.35748 0.0
H7965 H 0.13527 0.70844 0.36117 0.0
H7966 H 0.11723 0.71977 0.3706 0.0
H7967 H 0.09853 0.72579 0.35746 0.0
H7968 H 0.87406 0.55405 0.1761 0.0
H7969 H 0.8597 0.56032 0.1585 0.0
H7970 H 0.88164 0.53675 0.13217 0.0
H7971 H 0.89586 0.5302 0.1498 0.0
H7972 H 0.86649 0.57357 0.13753 0.0
H7973 H 0.8452 0.52711 0.12235 0.0
H7974 H 0.8536 0.52903 0.13748 0.0
H7975 H 0.86247 0.52642 0.12278 0.0
C7976 C 0.87571 0.55004 0.1666 0.0
C7977 C 0.8861 0.54164 0.16432 0.0
C7978 C 0.86748 0.55363 0.15656 0.0
C7979 C 0.86947 0.54888 0.14405 0.0
C7980 C 0.8797 0.54029 0.1418 0.0
H7981 H 0.85778 0.58208 0.07121 0.0
H7982 H 0.86411 0.57537 0.09274 0.0
C7983 C 0.8879 0.53662 0.15187 0.0
C7984 C 0.86163 0.55384 0.13315 0.0
H7985 H 0.84434 0.54441 0.10677 0.0
C7986 C 0.86146 0.56719 0.13094 0.0
C7987 C 0.85486 0.54557 0.12466 0.0
C7988 C 0.85391 0.53125 0.12701 0.0
C7989 C 0.85537 0.57243 0.12007 0.0
C7990 C 0.84949 0.56407 0.11105 0.0
C7991 C 0.84897 0.55079 0.11364 0.0
C7992 C 0.84512 0.56875 0.09828 0.0
C7993 C 0.85553 0.58686 0.1182 0.0
C7994 C 0.83233 0.56711 0.09415 0.0
C7995 C 0.82863 0.57092 0.08171 0.0
C7996 C 0.83774 0.57624 0.07318 0.0
C7997 C 0.85049 0.57798 0.07748 0.0
C7998 C 0.85413 0.57425 0.08985 0.0
H7999 H 0.8564 0.59199 0.12756 0.0
H8000 H 0.86399 0.58953 0.11222 0.0
H8001 H 0.84668 0.59024 0.11322 0.0
H8002 H 0.82525 0.56279 0.10051 0.0
H8003 H 0.81875 0.5694 0.07868 0.0
H8004 H 0.32084 0.42755 0.4231 0.0
H8005 H 0.32696 0.43351 0.40098 0.0
H8006 H 0.36703 0.43331 0.41199 0.0
H8007 H 0.36117 0.42738 0.43385 0.0
H8008 H 0.34249 0.45576 0.3925 0.0
H8009 H 0.36492 0.40879 0.38034 0.0
H8010 H 0.35367 0.41071 0.39351 0.0
H8011 H 0.37028 0.41529 0.39547 0.0
C8012 C 0.33095 0.42877 0.4208 0.0
C8013 C 0.3405 0.4269 0.43028 0.0
C8014 C 0.33442 0.43217 0.40818 0.0
C8015 C 0.34745 0.43364 0.40485 0.0
C8016 C 0.35693 0.43199 0.41432 0.0
H8017 H 0.39409 0.47119 0.34976 0.0
H8018 H 0.37997 0.46512 0.36765 0.0
C8019 C 0.35352 0.42864 0.42685 0.0
C8020 C 0.35143 0.43704 0.39158 0.0
H8021 H 0.37107 0.42684 0.36726 0.0
C8022 C 0.34854 0.44937 0.38684 0.0
C8023 C 0.35919 0.42863 0.38418 0.0
C8024 C 0.36211 0.41506 0.38856 0.0
C8025 C 0.35388 0.45379 0.37519 0.0
C8026 C 0.36239 0.44569 0.36827 0.0
C8027 C 0.36463 0.43309 0.37264 0.0
C8028 C 0.36983 0.45032 0.35699 0.0
C8029 C 0.35058 0.46716 0.37052 0.0
C8030 C 0.36885 0.44396 0.34509 0.0
C8031 C 0.37693 0.44739 0.33486 0.0
C8032 C 0.38623 0.45713 0.33643 0.0
C8033 C 0.38699 0.46367 0.34826 0.0
C8034 C 0.37887 0.46028 0.35846 0.0
H8035 H 0.34128 0.47056 0.37462 0.0
H8036 H 0.35824 0.47396 0.37364 0.0
H8037 H 0.34998 0.46747 0.35984 0.0
H8038 H 0.36202 0.43617 0.34381 0.0
H8039 H 0.37615 0.44215 0.32587 0.0
H8040 H 0.81067 0.60356 0.68573 0.0
H8041 H 0.80307 0.60971 0.66438 0.0
H8042 H 0.8235 0.57761 0.64764 0.0
H8043 H 0.83111 0.5712 0.66922 0.0
H8044 H 0.82832 0.60449 0.63714 0.0
H8045 H 0.77659 0.59103 0.63954 0.0
H8046 H 0.78279 0.59898 0.65365 0.0
H8047 H 0.78881 0.58333 0.6493 0.0
C8048 C 0.81348 0.5977 0.67754 0.0
C8049 C 0.82155 0.58692 0.67914 0.0
C8050 C 0.80904 0.60119 0.66536 0.0
C8051 C 0.81263 0.59405 0.65449 0.0
C8052 C 0.82054 0.58316 0.65598 0.0
H8053 H 0.8033 0.62435 0.57587 0.0
H8054 H 0.80883 0.60989 0.59366 0.0
C8055 C 0.82486 0.57951 0.66827 0.0
C8056 C 0.80889 0.59881 0.64158 0.0
H8057 H 0.78251 0.60644 0.62346 0.0
C8058 C 0.81836 0.60469 0.63395 0.0
C8059 C 0.79586 0.59915 0.63762 0.0
C8060 C 0.78541 0.5927 0.64539 0.0
C8061 C 0.81505 0.61159 0.62278 0.0
C8062 C 0.80194 0.6123 0.619 0.0
C8063 C 0.79254 0.60592 0.62637 0.0
C8064 C 0.79771 0.6203 0.60792 0.0
C8065 C 0.82553 0.61869 0.61559 0.0
C8066 C 0.78914 0.6306 0.60991 0.0
C8067 C 0.7858 0.63877 0.59971 0.0
C8068 C 0.79103 0.6368 0.58738 0.0
C8069 C 0.79923 0.6262 0.58531 0.0
C8070 C 0.80246 0.61797 0.59548 0.0
H8071 H 0.83444 0.61968 0.62145 0.0
H8072 H 0.82802 0.61325 0.60672 0.0
H8073 H 0.82225 0.62846 0.6127 0.0
H8074 H 0.78531 0.63254 0.61943 0.0
H8075 H 0.77943 0.64683 0.60159 0.0
H8076 H 0.64115 0.08229 0.93257 0.0
H8077 H 0.63475 0.07482 0.91133 0.0
H8078 H 0.67421 0.06505 0.90261 0.0
H8079 H 0.68079 0.07236 0.92418 0.0
H8080 H 0.64243 0.08287 0.88709 0.0
H8081 H 0.65448 0.03124 0.89565 0.0
H8082 H 0.65361 0.04286 0.90858 0.0
H8083 H 0.66726 0.04273 0.89796 0.0
C8084 C 0.64854 0.07856 0.9262 0.0
C8085 C 0.66149 0.0778 0.93017 0.0
C8086 C 0.64484 0.07433 0.91401 0.0
C8087 C 0.65396 0.06921 0.90547 0.0
C8088 C 0.66698 0.06877 0.90917 0.0
H8089 H 0.62654 0.05337 0.82691 0.0
H8090 H 0.64037 0.06032 0.8447 0.0
C8091 C 0.67073 0.07303 0.92145 0.0
C8092 C 0.64951 0.06424 0.89283 0.0
H8093 H 0.64443 0.03639 0.87599 0.0
C8094 C 0.64302 0.07274 0.88455 0.0
C8095 C 0.65018 0.05098 0.88966 0.0
C8096 C 0.65667 0.04136 0.89843 0.0
C8097 C 0.63676 0.0683 0.87342 0.0
C8098 C 0.63728 0.05502 0.87032 0.0
C8099 C 0.64412 0.04657 0.87838 0.0
C8100 C 0.62996 0.04965 0.85929 0.0
C8101 C 0.62909 0.07777 0.86544 0.0
C8102 C 0.6199 0.04087 0.86151 0.0
C8103 C 0.61206 0.03676 0.85134 0.0
C8104 C 0.61415 0.0414 0.83879 0.0
C8105 C 0.62461 0.04972 0.8365 0.0
C8106 C 0.63249 0.05375 0.84666 0.0
H8107 H 0.62737 0.08696 0.87067 0.0
H8108 H 0.63449 0.08004 0.85649 0.0
H8109 H 0.61963 0.07362 0.86265 0.0
H8110 H 0.61783 0.03754 0.8712 0.0
H8111 H 0.60413 0.0303 0.8534 0.0
H8112 H 0.6815 0.4315 0.17383 0.0
H8113 H 0.6888 0.42534 0.15213 0.0
H8114 H 0.67441 0.38681 0.15822 0.0
H8115 H 0.667 0.39282 0.17962 0.0
H8116 H 0.70671 0.40583 0.14614 0.0
H8117 H 0.65976 0.39604 0.12292 0.0
H8118 H 0.66117 0.40527 0.13762 0.0
H8119 H 0.66122 0.38791 0.13812 0.0
C8120 C 0.67972 0.42178 0.17044 0.0
C8121 C 0.6737 0.41265 0.17848 0.0
C8122 C 0.68393 0.41828 0.15808 0.0
C8123 C 0.682 0.40567 0.15353 0.0
C8124 C 0.67578 0.39665 0.16144 0.0
H8125 H 0.72107 0.35493 0.10238 0.0
H8126 H 0.71448 0.36909 0.12005 0.0
C8127 C 0.67164 0.4001 0.17374 0.0
C8128 C 0.6871 0.40147 0.14087 0.0
H8129 H 0.67823 0.38548 0.11355 0.0
C8130 C 0.70049 0.4016 0.13888 0.0
C8131 C 0.67896 0.39612 0.13133 0.0
C8132 C 0.66447 0.39644 0.13254 0.0
C8133 C 0.706 0.39582 0.12793 0.0
C8134 C 0.6979 0.38955 0.11891 0.0
C8135 C 0.68447 0.39012 0.12054 0.0
C8136 C 0.70306 0.38181 0.10803 0.0
C8137 C 0.72043 0.39636 0.12623 0.0
C8138 C 0.69875 0.38415 0.09542 0.0
C8139 C 0.70233 0.37594 0.08537 0.0
C8140 C 0.71031 0.36524 0.08772 0.0
C8141 C 0.71498 0.36314 0.10026 0.0
C8142 C 0.71129 0.3713 0.11035 0.0
H8143 H 0.72461 0.40487 0.13122 0.0
H8144 H 0.72481 0.3876 0.13053 0.0
H8145 H 0.72313 0.39678 0.11588 0.0
H8146 H 0.69236 0.39216 0.09341 0.0
H8147 H 0.69861 0.37782 0.07579 0.0
H8148 H 0.10483 0.47293 0.14872 0.0
H8149 H 0.11809 0.46708 0.13008 0.0
H8150 H 0.13974 0.44053 0.15361 0.0
H8151 H 0.12648 0.44625 0.17232 0.0
H8152 H 0.15426 0.4587 0.13401 0.0
H8153 H 0.11433 0.42829 0.115 0.0
H8154 H 0.11011 0.44423 0.12042 0.0
H8155 H 0.11568 0.4325 0.13185 0.0
C8156 C 0.11251 0.46597 0.14998 0.0
C8157 C 0.11455 0.45997 0.16195 0.0
C8158 C 0.12007 0.46265 0.13933 0.0
C8159 C 0.12982 0.45335 0.14052 0.0
C8160 C 0.13226 0.44774 0.15256 0.0
H8161 H 0.17901 0.42027 0.07947 0.0
H8162 H 0.17142 0.42718 0.10087 0.0
C8163 C 0.12465 0.451 0.1632 0.0
C8164 C 0.13675 0.4488 0.12894 0.0
H8165 H 0.13228 0.43148 0.10139 0.0
C8166 C 0.14955 0.45268 0.12688 0.0
C8167 C 0.13054 0.44085 0.11981 0.0
C8168 C 0.11693 0.43611 0.12184 0.0
C8169 C 0.15614 0.44924 0.11552 0.0
C8170 C 0.14977 0.4416 0.1062 0.0
C8171 C 0.13712 0.43739 0.10854 0.0
C8172 C 0.15554 0.43854 0.09349 0.0
C8173 C 0.16963 0.4542 0.11336 0.0
C8174 C 0.1492 0.44272 0.08231 0.0
C8175 C 0.15338 0.4387 0.07022 0.0
C8176 C 0.16404 0.43041 0.06898 0.0
C8177 C 0.17081 0.4267 0.08014 0.0
C8178 C 0.16651 0.43066 0.09234 0.0
H8179 H 0.17225 0.4619 0.12033 0.0
H8180 H 0.17657 0.44614 0.11451 0.0
H8181 H 0.17068 0.45804 0.10342 0.0
H8182 H 0.14075 0.44884 0.08298 0.0
H8183 H 0.14805 0.44186 0.06181 0.0
H8184 H 0.77522 0.85686 0.90004 0.0
H8185 H 0.78213 0.87011 0.88175 0.0
H8186 H 0.81402 0.88458 0.90418 0.0
H8187 H 0.80696 0.87169 0.9226 0.0
H8188 H 0.80328 0.90346 0.88917 0.0
H8189 H 0.81299 0.85949 0.86031 0.0
H8190 H 0.7966 0.86063 0.86574 0.0
H8191 H 0.80942 0.85889 0.87731 0.0
C8192 C 0.78361 0.86299 0.90112 0.0
C8193 C 0.79062 0.86315 0.9127 0.0
C8194 C 0.78758 0.8705 0.89065 0.0
C8195 C 0.79875 0.87811 0.89152 0.0
C8196 C 0.80541 0.87874 0.90327 0.0
H8197 H 0.84376 0.89919 0.82506 0.0
H8198 H 0.8364 0.89163 0.84612 0.0
C8199 C 0.80137 0.87134 0.91378 0.0
C8200 C 0.80394 0.88484 0.88001 0.0
H8201 H 0.81493 0.87945 0.84951 0.0
C8202 C 0.80586 0.89824 0.88049 0.0
C8203 C 0.80755 0.87796 0.8688 0.0
C8204 C 0.80667 0.86344 0.86801 0.0
C8205 C 0.81119 0.90497 0.86999 0.0
C8206 C 0.81437 0.89813 0.85861 0.0
C8207 C 0.81246 0.88473 0.8582 0.0
C8208 C 0.81993 0.90445 0.847 0.0
C8209 C 0.81366 0.91924 0.87134 0.0
C8210 C 0.81342 0.91453 0.84067 0.0
C8211 C 0.81784 0.9191 0.82874 0.0
C8212 C 0.82861 0.91339 0.82285 0.0
C8213 C 0.8354 0.9037 0.82942 0.0
C8214 C 0.83117 0.89937 0.84142 0.0
H8215 H 0.81449 0.92213 0.88162 0.0
H8216 H 0.82261 0.92214 0.86623 0.0
H8217 H 0.80546 0.92464 0.86709 0.0
H8218 H 0.80457 0.91842 0.8446 0.0
H8219 H 0.81237 0.92647 0.82376 0.0
H8220 H 0.19605 0.62309 0.42483 0.0
H8221 H 0.19109 0.60807 0.40731 0.0
H8222 H 0.21584 0.62966 0.38179 0.0
H8223 H 0.22109 0.64449 0.39931 0.0
H8224 H 0.17914 0.61384 0.38518 0.0
H8225 H 0.22694 0.59335 0.37374 0.0
H8226 H 0.22385 0.60211 0.38847 0.0
H8227 H 0.2274 0.61063 0.37375 0.0
C8228 C 0.2006 0.62451 0.41554 0.0
C8229 C 0.20897 0.63497 0.41344 0.0
C8230 C 0.19775 0.61592 0.40555 0.0
C8231 C 0.20325 0.6176 0.3933 0.0
C8232 C 0.21176 0.62794 0.39125 0.0
H8233 H 0.1867 0.60576 0.31618 0.0
H8234 H 0.19363 0.61115 0.33794 0.0
C8235 C 0.21467 0.63649 0.40125 0.0
C8236 C 0.19923 0.60934 0.38233 0.0
H8237 H 0.21101 0.5925 0.35659 0.0
C8238 C 0.18608 0.60889 0.37912 0.0
C8239 C 0.20826 0.6028 0.37445 0.0
C8240 C 0.22238 0.60213 0.37787 0.0
C8241 C 0.18185 0.60285 0.36778 0.0
C8242 C 0.19099 0.59714 0.35948 0.0
C8243 C 0.20404 0.59693 0.36301 0.0
C8244 C 0.1874 0.59312 0.34631 0.0
C8245 C 0.16774 0.60325 0.36428 0.0
C8246 C 0.18173 0.58109 0.34384 0.0
C8247 C 0.17775 0.5779 0.33131 0.0
C8248 C 0.17931 0.58679 0.32116 0.0
C8249 C 0.18523 0.59872 0.32375 0.0
C8250 C 0.18926 0.60182 0.33618 0.0
H8251 H 0.16177 0.60769 0.37199 0.0
H8252 H 0.16644 0.60887 0.35526 0.0
H8253 H 0.16418 0.59332 0.36244 0.0
H8254 H 0.18022 0.57428 0.35162 0.0
H8255 H 0.17322 0.56865 0.32963 0.0
loop_
_geom_bond_atom_site_label_1
_geom_bond_atom_site_label_2
_geom_bond_distance
_geom_bond_site_symmetry_2
_ccdc_geom_bond_type
Co0 O1 2.216 . S
Co0 O2 2.091 . S
Co0 O4 2.004 . S
Co0 O10 2.021 . S
Co0 O12 2.137 . S
Co0 O13 2.244 . S
O1 Co0 2.216 . S
O1 C8 1.247 . S
O2 Co0 2.091 . S
O2 C8 1.261 . S
C3 O12 1.247 . S
C3 O13 1.272 . S
O4 Co0 2.004 . S
O4 C9 1.259 . S
Co5 O6 2.061 . S
Co5 O11 2.052 . S
Co5 O13 2.135 . S
O6 Co5 2.061 . S
O6 C9 1.235 . S
C7 O10 1.238 . S
C7 O11 1.241 . S
C8 O1 1.247 . S
C8 O2 1.261 . S
C9 O4 1.259 . S
C9 O6 1.235 . S
O10 Co0 2.021 . S
O10 C7 1.238 . S
O11 Co5 2.052 . S
O11 C7 1.241 . S
O12 Co0 2.137 . S
O12 C3 1.247 . S
O13 Co0 2.244 . S
O13 C3 1.272 . S
O13 Co5 2.135 . S
Co14 O15 2.216 . S
Co14 O16 2.091 . S
Co14 O18 2.004 . S
Co14 O24 2.021 . S
Co14 O26 2.137 . S
Co14 O27 2.244 . S
O15 Co14 2.216 . S
O15 C22 1.247 . S
O16 Co14 2.091 . S
O16 C22 1.261 . S
C17 O26 1.247 . S
C17 O27 1.272 . S
O18 Co14 2.004 . S
O18 C23 1.259 . S
Co19 O20 2.061 . S
Co19 O25 2.052 . S
Co19 O27 2.135 . S
O20 Co19 2.061 . S
O20 C23 1.235 . S
C21 O24 1.238 . S
C21 O25 1.241 . S
C22 O15 1.247 . S
C22 O16 1.261 . S
C23 O18 1.259 . S
C23 O20 1.235 . S
O24 Co14 2.021 . S
O24 C21 1.238 . S
O25 Co19 2.052 . S
O25 C21 1.241 . S
O26 Co14 2.137 . S
O26 C17 1.247 . S
O27 Co14 2.244 . S
O27 C17 1.272 . S
O27 Co19 2.135 . S
Co28 O29 2.216 . S
Co28 O30 2.091 . S
Co28 O32 2.004 . S
Co28 O38 2.021 . S
Co28 O40 2.137 . S
Co28 O41 2.244 . S
O29 Co28 2.216 . S
O29 C36 1.247 . S
O30 Co28 2.091 . S
O30 C36 1.261 . S
C31 O40 1.247 . S
C31 O41 1.272 . S
O32 Co28 2.004 . S
O32 C37 1.259 . S
Co33 O34 2.061 . S
Co33 O39 2.052 . S
Co33 O41 2.135 . S
O34 Co33 2.061 . S
O34 C37 1.235 . S
C35 O38 1.238 . S
C35 O39 1.241 . S
C36 O29 1.247 . S
C36 O30 1.261 . S
C37 O32 1.259 . S
C37 O34 1.235 . S
O38 Co28 2.021 . S
O38 C35 1.238 . S
O39 Co33 2.052 . S
O39 C35 1.241 . S
O40 Co28 2.137 . S
O40 C31 1.247 . S
O41 Co28 2.244 . S
O41 C31 1.272 . S
O41 Co33 2.135 . S
Co42 O43 2.216 . S
Co42 O44 2.091 . S
Co42 O46 2.004 . S
Co42 O52 2.021 . S
Co42 O54 2.137 . S
Co42 O55 2.244 . S
O43 Co42 2.216 . S
O43 C50 1.247 . S
O44 Co42 2.091 . S
O44 C50 1.261 . S
C45 O54 1.247 . S
C45 O55 1.272 . S
O46 Co42 2.004 . S
O46 C51 1.259 . S
Co47 O48 2.061 . S
Co47 O53 2.052 . S
Co47 O55 2.135 . S
O48 Co47 2.061 . S
O48 C51 1.235 . S
C49 O52 1.238 . S
C49 O53 1.241 . S
C50 O43 1.247 . S
C50 O44 1.261 . S
C51 O46 1.259 . S
C51 O48 1.235 . S
O52 Co42 2.021 . S
O52 C49 1.238 . S
O53 Co47 2.052 . S
O53 C49 1.241 . S
O54 Co42 2.137 . S
O54 C45 1.247 . S
O55 Co42 2.244 . S
O55 C45 1.272 . S
O55 Co47 2.135 . S
Co56 O57 2.216 . S
Co56 O58 2.091 . S
Co56 O60 2.004 . S
Co56 O66 2.021 . S
Co56 O68 2.137 . S
Co56 O69 2.244 . S
O57 Co56 2.216 . S
O57 C64 1.247 . S
O58 Co56 2.091 . S
O58 C64 1.261 . S
C59 O68 1.247 . S
C59 O69 1.272 . S
O60 Co56 2.004 . S
O60 C65 1.259 . S
Co61 O62 2.061 . S
Co61 O67 2.052 . S
Co61 O69 2.135 . S
O62 Co61 2.061 . S
O62 C65 1.235 . S
C63 O66 1.238 . S
C63 O67 1.241 . S
C64 O57 1.247 . S
C64 O58 1.261 . S
C65 O60 1.259 . S
C65 O62 1.235 . S
O66 Co56 2.021 . S
O66 C63 1.238 . S
O67 Co61 2.052 . S
O67 C63 1.241 . S
O68 Co56 2.137 . S
O68 C59 1.247 . S
O69 Co56 2.244 . S
O69 C59 1.272 . S
O69 Co61 2.135 . S
Co70 O71 2.216 . S
Co70 O72 2.091 . S
Co70 O74 2.004 . S
Co70 O80 2.021 . S
Co70 O82 2.137 . S
Co70 O83 2.244 . S
O71 Co70 2.216 . S
O71 C78 1.247 . S
O72 Co70 2.091 . S
O72 C78 1.261 . S
C73 O82 1.247 . S
C73 O83 1.272 . S
O74 Co70 2.004 . S
O74 C79 1.259 . S
Co75 O76 2.061 . S
Co75 O81 2.052 . S
Co75 O83 2.135 . S
O76 Co75 2.061 . S
O76 C79 1.235 . S
C77 O80 1.238 . S
C77 O81 1.241 . S
C78 O71 1.247 . S
C78 O72 1.261 . S
C79 O74 1.259 . S
C79 O76 1.235 . S
O80 Co70 2.021 . S
O80 C77 1.238 . S
O81 Co75 2.052 . S
O81 C77 1.241 . S
O82 Co70 2.137 . S
O82 C73 1.247 . S
O83 Co70 2.244 . S
O83 C73 1.272 . S
O83 Co75 2.135 . S
Co84 O85 2.216 . S
Co84 O86 2.091 . S
Co84 O88 2.004 . S
Co84 O94 2.021 . S
Co84 O96 2.137 . S
Co84 O97 2.244 . S
O85 Co84 2.216 . S
O85 C92 1.247 . S
O86 Co84 2.091 . S
O86 C92 1.261 . S
C87 O96 1.247 . S
C87 O97 1.272 . S
O88 Co84 2.004 . S
O88 C93 1.259 . S
Co89 O90 2.061 . S
Co89 O95 2.052 . S
Co89 O97 2.135 . S
O90 Co89 2.061 . S
O90 C93 1.235 . S
C91 O94 1.238 . S
C91 O95 1.241 . S
C92 O85 1.247 . S
C92 O86 1.261 . S
C93 O88 1.259 . S
C93 O90 1.235 . S
O94 Co84 2.021 . S
O94 C91 1.238 . S
O95 Co89 2.052 . S
O95 C91 1.241 . S
O96 Co84 2.137 . S
O96 C87 1.247 . S
O97 Co84 2.244 . S
O97 C87 1.272 . S
O97 Co89 2.135 . S
Co98 O99 2.216 . S
Co98 O100 2.091 . S
Co98 O102 2.004 . S
Co98 O108 2.021 . S
Co98 O110 2.137 . S
Co98 O111 2.244 . S
O99 Co98 2.216 . S
O99 C106 1.247 . S
O100 Co98 2.091 . S
O100 C106 1.261 . S
C101 O110 1.247 . S
C101 O111 1.272 . S
O102 Co98 2.004 . S
O102 C107 1.259 . S
Co103 O104 2.061 . S
Co103 O109 2.052 . S
Co103 O111 2.135 . S
O104 Co103 2.061 . S
O104 C107 1.235 . S
C105 O108 1.238 . S
C105 O109 1.241 . S
C106 O99 1.247 . S
C106 O100 1.261 . S
C107 O102 1.259 . S
C107 O104 1.235 . S
O108 Co98 2.021 . S
O108 C105 1.238 . S
O109 Co103 2.052 . S
O109 C105 1.241 . S
O110 Co98 2.137 . S
O110 C101 1.247 . S
O111 Co98 2.244 . S
O111 C101 1.272 . S
O111 Co103 2.135 . S
Co112 O113 2.216 . S
Co112 O114 2.091 . S
Co112 O116 2.004 . S
Co112 O122 2.021 . S
Co112 O124 2.137 . S
Co112 O125 2.244 . S
O113 Co112 2.216 . S
O113 C120 1.247 . S
O114 Co112 2.091 . S
O114 C120 1.261 . S
C115 O124 1.247 . S
C115 O125 1.272 . S
O116 Co112 2.004 . S
O116 C121 1.259 . S
Co117 O118 2.061 . S
Co117 O123 2.052 . S
Co117 O125 2.135 . S
O118 Co117 2.061 . S
O118 C121 1.235 . S
C119 O122 1.238 . S
C119 O123 1.241 . S
C120 O113 1.247 . S
C120 O114 1.261 . S
C121 O116 1.259 . S
C121 O118 1.235 . S
O122 Co112 2.021 . S
O122 C119 1.238 . S
O123 Co117 2.052 . S
O123 C119 1.241 . S
O124 Co112 2.137 . S
O124 C115 1.247 . S
O125 Co112 2.244 . S
O125 C115 1.272 . S
O125 Co117 2.135 . S
Co126 O127 2.216 . S
Co126 O128 2.091 . S
Co126 O130 2.004 . S
Co126 O136 2.021 . S
Co126 O138 2.137 . S
Co126 O139 2.244 . S
O127 Co126 2.216 . S
O127 C134 1.247 . S
O128 Co126 2.091 . S
O128 C134 1.261 . S
C129 O138 1.247 . S
C129 O139 1.272 . S
O130 Co126 2.004 . S
O130 C135 1.259 . S
Co131 O132 2.061 . S
Co131 O137 2.052 . S
Co131 O139 2.135 . S
O132 Co131 2.061 . S
O132 C135 1.235 . S
C133 O136 1.238 . S
C133 O137 1.241 . S
C134 O127 1.247 . S
C134 O128 1.261 . S
C135 O130 1.259 . S
C135 O132 1.235 . S
O136 Co126 2.021 . S
O136 C133 1.238 . S
O137 Co131 2.052 . S
O137 C133 1.241 . S
O138 Co126 2.137 . S
O138 C129 1.247 . S
O139 Co126 2.244 . S
O139 C129 1.272 . S
O139 Co131 2.135 . S
Co140 O141 2.216 . S
Co140 O142 2.091 . S
Co140 O144 2.004 . S
Co140 O150 2.021 . S
Co140 O152 2.137 . S
Co140 O153 2.244 . S
O141 Co140 2.216 . S
O141 C148 1.247 . S
O142 Co140 2.091 . S
O142 C148 1.261 . S
C143 O152 1.247 . S
C143 O153 1.272 . S
O144 Co140 2.004 . S
O144 C149 1.259 . S
Co145 O146 2.061 . S
Co145 O151 2.052 . S
Co145 O153 2.135 . S
O146 Co145 2.061 . S
O146 C149 1.235 . S
C147 O150 1.238 . S
C147 O151 1.241 . S
C148 O141 1.247 . S
C148 O142 1.261 . S
C149 O144 1.259 . S
C149 O146 1.235 . S
O150 Co140 2.021 . S
O150 C147 1.238 . S
O151 Co145 2.052 . S
O151 C147 1.241 . S
O152 Co140 2.137 . S
O152 C143 1.247 . S
O153 Co140 2.244 . S
O153 C143 1.272 . S
O153 Co145 2.135 . S
Co154 O155 2.216 . S
Co154 O156 2.091 . S
Co154 O158 2.004 . S
Co154 O164 2.021 . S
Co154 O166 2.137 . S
Co154 O167 2.244 . S
O155 Co154 2.216 . S
O155 C162 1.247 . S
O156 Co154 2.091 . S
O156 C162 1.261 . S
C157 O166 1.247 . S
C157 O167 1.272 . S
O158 Co154 2.004 . S
O158 C163 1.259 . S
Co159 O160 2.061 . S
Co159 O165 2.052 . S
Co159 O167 2.135 . S
O160 Co159 2.061 . S
O160 C163 1.235 . S
C161 O164 1.238 . S
C161 O165 1.241 . S
C162 O155 1.247 . S
C162 O156 1.261 . S
C163 O158 1.259 . S
C163 O160 1.235 . S
O164 Co154 2.021 . S
O164 C161 1.238 . S
O165 Co159 2.052 . S
O165 C161 1.241 . S
O166 Co154 2.137 . S
O166 C157 1.247 . S
O167 Co154 2.244 . S
O167 C157 1.272 . S
O167 Co159 2.135 . S
Co168 O169 2.216 . S
Co168 O170 2.091 . S
Co168 O172 2.004 . S
Co168 O178 2.021 . S
Co168 O180 2.137 . S
Co168 O181 2.244 . S
O169 Co168 2.216 . S
O169 C176 1.247 . S
O170 Co168 2.091 . S
O170 C176 1.261 . S
C171 O180 1.247 . S
C171 O181 1.272 . S
O172 Co168 2.004 . S
O172 C177 1.259 . S
Co173 O174 2.061 . S
Co173 O179 2.052 . S
Co173 O181 2.135 . S
O174 Co173 2.061 . S
O174 C177 1.235 . S
C175 O178 1.238 . S
C175 O179 1.241 . S
C176 O169 1.247 . S
C176 O170 1.261 . S
C177 O172 1.259 . S
C177 O174 1.235 . S
O178 Co168 2.021 . S
O178 C175 1.238 . S
O179 Co173 2.052 . S
O179 C175 1.241 . S
O180 Co168 2.137 . S
O180 C171 1.247 . S
O181 Co168 2.244 . S
O181 C171 1.272 . S
O181 Co173 2.135 . S
Co182 O183 2.216 . S
Co182 O184 2.091 . S
Co182 O186 2.004 . S
Co182 O192 2.021 . S
Co182 O194 2.137 . S
Co182 O195 2.244 . S
O183 Co182 2.216 . S
O183 C190 1.247 . S
O184 Co182 2.091 . S
O184 C190 1.261 . S
C185 O194 1.247 . S
C185 O195 1.272 . S
O186 Co182 2.004 . S
O186 C191 1.259 . S
Co187 O188 2.061 . S
Co187 O193 2.052 . S
Co187 O195 2.135 . S
O188 Co187 2.061 . S
O188 C191 1.235 . S
C189 O192 1.238 . S
C189 O193 1.241 . S
C190 O183 1.247 . S
C190 O184 1.261 . S
C191 O186 1.259 . S
C191 O188 1.235 . S
O192 Co182 2.021 . S
O192 C189 1.238 . S
O193 Co187 2.052 . S
O193 C189 1.241 . S
O194 Co182 2.137 . S
O194 C185 1.247 . S
O195 Co182 2.244 . S
O195 C185 1.272 . S
O195 Co187 2.135 . S
Co196 O197 2.216 . S
Co196 O198 2.091 . S
Co196 O200 2.004 . S
Co196 O206 2.021 . S
Co196 O208 2.137 . S
Co196 O209 2.244 . S
O197 Co196 2.216 . S
O197 C204 1.247 . S
O198 Co196 2.091 . S
O198 C204 1.261 . S
C199 O208 1.247 . S
C199 O209 1.272 . S
O200 Co196 2.004 . S
O200 C205 1.259 . S
Co201 O202 2.061 . S
Co201 O207 2.052 . S
Co201 O209 2.135 . S
O202 Co201 2.061 . S
O202 C205 1.235 . S
C203 O206 1.238 . S
C203 O207 1.241 . S
C204 O197 1.247 . S
C204 O198 1.261 . S
C205 O200 1.259 . S
C205 O202 1.235 . S
O206 Co196 2.021 . S
O206 C203 1.238 . S
O207 Co201 2.052 . S
O207 C203 1.241 . S
O208 Co196 2.137 . S
O208 C199 1.247 . S
O209 Co196 2.244 . S
O209 C199 1.272 . S
O209 Co201 2.135 . S
Co210 O211 2.216 . S
Co210 O212 2.091 . S
Co210 O214 2.004 . S
Co210 O220 2.021 . S
Co210 O222 2.137 . S
Co210 O223 2.244 . S
O211 Co210 2.216 . S
O211 C218 1.247 . S
O212 Co210 2.091 . S
O212 C218 1.261 . S
C213 O222 1.247 . S
C213 O223 1.272 . S
O214 Co210 2.004 . S
O214 C219 1.259 . S
Co215 O216 2.061 . S
Co215 O221 2.052 . S
Co215 O223 2.135 . S
O216 Co215 2.061 . S
O216 C219 1.235 . S
C217 O220 1.238 . S
C217 O221 1.241 . S
C218 O211 1.247 . S
C218 O212 1.261 . S
C219 O214 1.259 . S
C219 O216 1.235 . S
O220 Co210 2.021 . S
O220 C217 1.238 . S
O221 Co215 2.052 . S
O221 C217 1.241 . S
O222 Co210 2.137 . S
O222 C213 1.247 . S
O223 Co210 2.244 . S
O223 C213 1.272 . S
O223 Co215 2.135 . S
Co224 O225 2.216 . S
Co224 O226 2.091 . S
Co224 O228 2.004 . S
Co224 O234 2.021 . S
Co224 O236 2.137 . S
Co224 O237 2.244 . S
O225 Co224 2.216 . S
O225 C232 1.247 . S
O226 Co224 2.091 . S
O226 C232 1.261 . S
C227 O236 1.247 . S
C227 O237 1.272 . S
O228 Co224 2.004 . S
O228 C233 1.259 . S
Co229 O230 2.061 . S
Co229 O235 2.052 . S
Co229 O237 2.135 . S
O230 Co229 2.061 . S
O230 C233 1.235 . S
C231 O234 1.238 . S
C231 O235 1.241 . S
C232 O225 1.247 . S
C232 O226 1.261 . S
C233 O228 1.259 . S
C233 O230 1.235 . S
O234 Co224 2.021 . S
O234 C231 1.238 . S
O235 Co229 2.052 . S
O235 C231 1.241 . S
O236 Co224 2.137 . S
O236 C227 1.247 . S
O237 Co224 2.244 . S
O237 C227 1.272 . S
O237 Co229 2.135 . S
Co238 O239 2.216 . S
Co238 O240 2.091 . S
Co238 O242 2.004 . S
Co238 O248 2.021 . S
Co238 O250 2.137 . S
Co238 O251 2.244 . S
O239 Co238 2.216 . S
O239 C246 1.247 . S
O240 Co238 2.091 . S
O240 C246 1.261 . S
C241 O250 1.247 . S
C241 O251 1.272 . S
O242 Co238 2.004 . S
O242 C247 1.259 . S
Co243 O244 2.061 . S
Co243 O249 2.052 . S
Co243 O251 2.135 . S
O244 Co243 2.061 . S
O244 C247 1.235 . S
C245 O248 1.238 . S
C245 O249 1.241 . S
C246 O239 1.247 . S
C246 O240 1.261 . S
C247 O242 1.259 . S
C247 O244 1.235 . S
O248 Co238 2.021 . S
O248 C245 1.238 . S
O249 Co243 2.052 . S
O249 C245 1.241 . S
O250 Co238 2.137 . S
O250 C241 1.247 . S
O251 Co238 2.244 . S
O251 C241 1.272 . S
O251 Co243 2.135 . S
Co252 O253 2.216 . S
Co252 O254 2.091 . S
Co252 O256 2.004 . S
Co252 O262 2.021 . S
Co252 O264 2.137 . S
Co252 O265 2.244 . S
O253 Co252 2.216 . S
O253 C260 1.247 . S
O254 Co252 2.091 . S
O254 C260 1.261 . S
C255 O264 1.247 . S
C255 O265 1.272 . S
O256 Co252 2.004 . S
O256 C261 1.259 . S
Co257 O258 2.061 . S
Co257 O263 2.052 . S
Co257 O265 2.135 . S
O258 Co257 2.061 . S
O258 C261 1.235 . S
C259 O262 1.238 . S
C259 O263 1.241 . S
C260 O253 1.247 . S
C260 O254 1.261 . S
C261 O256 1.259 . S
C261 O258 1.235 . S
O262 Co252 2.021 . S
O262 C259 1.238 . S
O263 Co257 2.052 . S
O263 C259 1.241 . S
O264 Co252 2.137 . S
O264 C255 1.247 . S
O265 Co252 2.244 . S
O265 C255 1.272 . S
O265 Co257 2.135 . S
Co266 O267 2.216 . S
Co266 O268 2.091 . S
Co266 O270 2.004 . S
Co266 O276 2.021 . S
Co266 O278 2.137 . S
Co266 O279 2.244 . S
O267 Co266 2.216 . S
O267 C274 1.247 . S
O268 Co266 2.091 . S
O268 C274 1.261 . S
C269 O278 1.247 . S
C269 O279 1.272 . S
O270 Co266 2.004 . S
O270 C275 1.259 . S
Co271 O272 2.061 . S
Co271 O277 2.052 . S
Co271 O279 2.135 . S
O272 Co271 2.061 . S
O272 C275 1.235 . S
C273 O276 1.238 . S
C273 O277 1.241 . S
C274 O267 1.247 . S
C274 O268 1.261 . S
C275 O270 1.259 . S
C275 O272 1.235 . S
O276 Co266 2.021 . S
O276 C273 1.238 . S
O277 Co271 2.052 . S
O277 C273 1.241 . S
O278 Co266 2.137 . S
O278 C269 1.247 . S
O279 Co266 2.244 . S
O279 C269 1.272 . S
O279 Co271 2.135 . S
Co280 O281 2.216 . S
Co280 O282 2.091 . S
Co280 O284 2.004 . S
Co280 O290 2.021 . S
Co280 O292 2.137 . S
Co280 O293 2.244 . S
O281 Co280 2.216 . S
O281 C288 1.247 . S
O282 Co280 2.091 . S
O282 C288 1.261 . S
C283 O292 1.247 . S
C283 O293 1.272 . S
O284 Co280 2.004 . S
O284 C289 1.259 . S
Co285 O286 2.061 . S
Co285 O291 2.052 . S
Co285 O293 2.135 . S
O286 Co285 2.061 . S
O286 C289 1.235 . S
C287 O290 1.238 . S
C287 O291 1.241 . S
C288 O281 1.247 . S
C288 O282 1.261 . S
C289 O284 1.259 . S
C289 O286 1.235 . S
O290 Co280 2.021 . S
O290 C287 1.238 . S
O291 Co285 2.052 . S
O291 C287 1.241 . S
O292 Co280 2.137 . S
O292 C283 1.247 . S
O293 Co280 2.244 . S
O293 C283 1.272 . S
O293 Co285 2.135 . S
Co294 O295 2.216 . S
Co294 O296 2.091 . S
Co294 O298 2.004 . S
Co294 O304 2.021 . S
Co294 O306 2.137 . S
Co294 O307 2.244 . S
O295 Co294 2.216 . S
O295 C302 1.247 . S
O296 Co294 2.091 . S
O296 C302 1.261 . S
C297 O306 1.247 . S
C297 O307 1.272 . S
O298 Co294 2.004 . S
O298 C303 1.259 . S
Co299 O300 2.061 . S
Co299 O305 2.052 . S
Co299 O307 2.135 . S
O300 Co299 2.061 . S
O300 C303 1.235 . S
C301 O304 1.238 . S
C301 O305 1.241 . S
C302 O295 1.247 . S
C302 O296 1.261 . S
C303 O298 1.259 . S
C303 O300 1.235 . S
O304 Co294 2.021 . S
O304 C301 1.238 . S
O305 Co299 2.052 . S
O305 C301 1.241 . S
O306 Co294 2.137 . S
O306 C297 1.247 . S
O307 Co294 2.244 . S
O307 C297 1.272 . S
O307 Co299 2.135 . S
Co308 O309 2.216 . S
Co308 O310 2.091 . S
Co308 O312 2.004 . S
Co308 O318 2.021 . S
Co308 O320 2.137 . S
Co308 O321 2.244 . S
O309 Co308 2.216 . S
O309 C316 1.247 . S
O310 Co308 2.091 . S
O310 C316 1.261 . S
C311 O320 1.247 . S
C311 O321 1.272 . S
O312 Co308 2.004 . S
O312 C317 1.259 . S
Co313 O314 2.061 . S
Co313 O319 2.052 . S
Co313 O321 2.135 . S
O314 Co313 2.061 . S
O314 C317 1.235 . S
C315 O318 1.238 . S
C315 O319 1.241 . S
C316 O309 1.247 . S
C316 O310 1.261 . S
C317 O312 1.259 . S
C317 O314 1.235 . S
O318 Co308 2.021 . S
O318 C315 1.238 . S
O319 Co313 2.052 . S
O319 C315 1.241 . S
O320 Co308 2.137 . S
O320 C311 1.247 . S
O321 Co308 2.244 . S
O321 C311 1.272 . S
O321 Co313 2.135 . S
Co322 O323 2.216 . S
Co322 O324 2.091 . S
Co322 O326 2.004 . S
Co322 O332 2.021 . S
Co322 O334 2.137 . S
Co322 O335 2.244 . S
O323 Co322 2.216 . S
O323 C330 1.247 . S
O324 Co322 2.091 . S
O324 C330 1.261 . S
C325 O334 1.247 . S
C325 O335 1.272 . S
O326 Co322 2.004 . S
O326 C331 1.259 . S
Co327 O328 2.061 . S
Co327 O333 2.052 . S
Co327 O335 2.135 . S
O328 Co327 2.061 . S
O328 C331 1.235 . S
C329 O332 1.238 . S
C329 O333 1.241 . S
C330 O323 1.247 . S
C330 O324 1.261 . S
C331 O326 1.259 . S
C331 O328 1.235 . S
O332 Co322 2.021 . S
O332 C329 1.238 . S
O333 Co327 2.052 . S
O333 C329 1.241 . S
O334 Co322 2.137 . S
O334 C325 1.247 . S
O335 Co322 2.244 . S
O335 C325 1.272 . S
O335 Co327 2.135 . S
Co336 O337 2.216 . S
Co336 O338 2.091 . S
Co336 O340 2.004 . S
Co336 O346 2.021 . S
Co336 O348 2.137 . S
Co336 O349 2.244 . S
O337 Co336 2.216 . S
O337 C344 1.247 . S
O338 Co336 2.091 . S
O338 C344 1.261 . S
C339 O348 1.247 . S
C339 O349 1.272 . S
O340 Co336 2.004 . S
O340 C345 1.259 . S
Co341 O342 2.061 . S
Co341 O347 2.052 . S
Co341 O349 2.135 . S
O342 Co341 2.061 . S
O342 C345 1.235 . S
C343 O346 1.238 . S
C343 O347 1.241 . S
C344 O337 1.247 . S
C344 O338 1.261 . S
C345 O340 1.259 . S
C345 O342 1.235 . S
O346 Co336 2.021 . S
O346 C343 1.238 . S
O347 Co341 2.052 . S
O347 C343 1.241 . S
O348 Co336 2.137 . S
O348 C339 1.247 . S
O349 Co336 2.244 . S
O349 C339 1.272 . S
O349 Co341 2.135 . S
Co350 O351 2.216 . S
Co350 O352 2.091 . S
Co350 O354 2.004 . S
Co350 O360 2.021 . S
Co350 O362 2.137 . S
Co350 O363 2.244 . S
O351 Co350 2.216 . S
O351 C358 1.247 . S
O352 Co350 2.091 . S
O352 C358 1.261 . S
C353 O362 1.247 . S
C353 O363 1.272 . S
O354 Co350 2.004 . S
O354 C359 1.259 . S
Co355 O356 2.061 . S
Co355 O361 2.052 . S
Co355 O363 2.135 . S
O356 Co355 2.061 . S
O356 C359 1.235 . S
C357 O360 1.238 . S
C357 O361 1.241 . S
C358 O351 1.247 . S
C358 O352 1.261 . S
C359 O354 1.259 . S
C359 O356 1.235 . S
O360 Co350 2.021 . S
O360 C357 1.238 . S
O361 Co355 2.052 . S
O361 C357 1.241 . S
O362 Co350 2.137 . S
O362 C353 1.247 . S
O363 Co350 2.244 . S
O363 C353 1.272 . S
O363 Co355 2.135 . S
Co364 O365 2.216 . S
Co364 O366 2.091 . S
Co364 O368 2.004 . S
Co364 O374 2.021 . S
Co364 O376 2.137 . S
Co364 O377 2.244 . S
O365 Co364 2.216 . S
O365 C372 1.247 . S
O366 Co364 2.091 . S
O366 C372 1.261 . S
C367 O376 1.247 . S
C367 O377 1.272 . S
O368 Co364 2.004 . S
O368 C373 1.259 . S
Co369 O370 2.061 . S
Co369 O375 2.052 . S
Co369 O377 2.135 . S
O370 Co369 2.061 . S
O370 C373 1.235 . S
C371 O374 1.238 . S
C371 O375 1.241 . S
C372 O365 1.247 . S
C372 O366 1.261 . S
C373 O368 1.259 . S
C373 O370 1.235 . S
O374 Co364 2.021 . S
O374 C371 1.238 . S
O375 Co369 2.052 . S
O375 C371 1.241 . S
O376 Co364 2.137 . S
O376 C367 1.247 . S
O377 Co364 2.244 . S
O377 C367 1.272 . S
O377 Co369 2.135 . S
Co378 O379 2.216 . S
Co378 O380 2.091 . S
Co378 O382 2.004 . S
Co378 O388 2.021 . S
Co378 O390 2.137 . S
Co378 O391 2.244 . S
O379 Co378 2.216 . S
O379 C386 1.247 . S
O380 Co378 2.091 . S
O380 C386 1.261 . S
C381 O390 1.247 . S
C381 O391 1.272 . S
O382 Co378 2.004 . S
O382 C387 1.259 . S
Co383 O384 2.061 . S
Co383 O389 2.052 . S
Co383 O391 2.135 . S
O384 Co383 2.061 . S
O384 C387 1.235 . S
C385 O388 1.238 . S
C385 O389 1.241 . S
C386 O379 1.247 . S
C386 O380 1.261 . S
C387 O382 1.259 . S
C387 O384 1.235 . S
O388 Co378 2.021 . S
O388 C385 1.238 . S
O389 Co383 2.052 . S
O389 C385 1.241 . S
O390 Co378 2.137 . S
O390 C381 1.247 . S
O391 Co378 2.244 . S
O391 C381 1.272 . S
O391 Co383 2.135 . S
Co392 O393 2.216 . S
Co392 O394 2.091 . S
Co392 O396 2.004 . S
Co392 O402 2.021 . S
Co392 O404 2.137 . S
Co392 O405 2.244 . S
O393 Co392 2.216 . S
O393 C400 1.247 . S
O394 Co392 2.091 . S
O394 C400 1.261 . S
C395 O404 1.247 . S
C395 O405 1.272 . S
O396 Co392 2.004 . S
O396 C401 1.259 . S
Co397 O398 2.061 . S
Co397 O403 2.052 . S
Co397 O405 2.135 . S
O398 Co397 2.061 . S
O398 C401 1.235 . S
C399 O402 1.238 . S
C399 O403 1.241 . S
C400 O393 1.247 . S
C400 O394 1.261 . S
C401 O396 1.259 . S
C401 O398 1.235 . S
O402 Co392 2.021 . S
O402 C399 1.238 . S
O403 Co397 2.052 . S
O403 C399 1.241 . S
O404 Co392 2.137 . S
O404 C395 1.247 . S
O405 Co392 2.244 . S
O405 C395 1.272 . S
O405 Co397 2.135 . S
Co406 O407 2.216 . S
Co406 O408 2.091 . S
Co406 O410 2.004 . S
Co406 O416 2.021 . S
Co406 O418 2.137 . S
Co406 O419 2.244 . S
O407 Co406 2.216 . S
O407 C414 1.247 . S
O408 Co406 2.091 . S
O408 C414 1.261 . S
C409 O418 1.247 . S
C409 O419 1.272 . S
O410 Co406 2.004 . S
O410 C415 1.259 . S
Co411 O412 2.061 . S
Co411 O417 2.052 . S
Co411 O419 2.135 . S
O412 Co411 2.061 . S
O412 C415 1.235 . S
C413 O416 1.238 . S
C413 O417 1.241 . S
C414 O407 1.247 . S
C414 O408 1.261 . S
C415 O410 1.259 . S
C415 O412 1.235 . S
O416 Co406 2.021 . S
O416 C413 1.238 . S
O417 Co411 2.052 . S
O417 C413 1.241 . S
O418 Co406 2.137 . S
O418 C409 1.247 . S
O419 Co406 2.244 . S
O419 C409 1.272 . S
O419 Co411 2.135 . S
Co420 O421 2.216 . S
Co420 O422 2.091 . S
Co420 O424 2.004 . S
Co420 O430 2.021 . S
Co420 O432 2.137 . S
Co420 O433 2.244 . S
O421 Co420 2.216 . S
O421 C428 1.247 . S
O422 Co420 2.091 . S
O422 C428 1.261 . S
C423 O432 1.247 . S
C423 O433 1.272 . S
O424 Co420 2.004 . S
O424 C429 1.259 . S
Co425 O426 2.061 . S
Co425 O431 2.052 . S
Co425 O433 2.135 . S
O426 Co425 2.061 . S
O426 C429 1.235 . S
C427 O430 1.238 . S
C427 O431 1.241 . S
C428 O421 1.247 . S
C428 O422 1.261 . S
C429 O424 1.259 . S
C429 O426 1.235 . S
O430 Co420 2.021 . S
O430 C427 1.238 . S
O431 Co425 2.052 . S
O431 C427 1.241 . S
O432 Co420 2.137 . S
O432 C423 1.247 . S
O433 Co420 2.244 . S
O433 C423 1.272 . S
O433 Co425 2.135 . S
Co434 O435 2.216 . S
Co434 O436 2.091 . S
Co434 O438 2.004 . S
Co434 O444 2.021 . S
Co434 O446 2.137 . S
Co434 O447 2.244 . S
O435 Co434 2.216 . S
O435 C442 1.247 . S
O436 Co434 2.091 . S
O436 C442 1.261 . S
C437 O446 1.247 . S
C437 O447 1.272 . S
O438 Co434 2.004 . S
O438 C443 1.259 . S
Co439 O440 2.061 . S
Co439 O445 2.052 . S
Co439 O447 2.135 . S
O440 Co439 2.061 . S
O440 C443 1.235 . S
C441 O444 1.238 . S
C441 O445 1.241 . S
C442 O435 1.247 . S
C442 O436 1.261 . S
C443 O438 1.259 . S
C443 O440 1.235 . S
O444 Co434 2.021 . S
O444 C441 1.238 . S
O445 Co439 2.052 . S
O445 C441 1.241 . S
O446 Co434 2.137 . S
O446 C437 1.247 . S
O447 Co434 2.244 . S
O447 C437 1.272 . S
O447 Co439 2.135 . S
Co448 O449 2.216 . S
Co448 O450 2.091 . S
Co448 O452 2.004 . S
Co448 O458 2.021 . S
Co448 O460 2.137 . S
Co448 O461 2.244 . S
O449 Co448 2.216 . S
O449 C456 1.247 . S
O450 Co448 2.091 . S
O450 C456 1.261 . S
C451 O460 1.247 . S
C451 O461 1.272 . S
O452 Co448 2.004 . S
O452 C457 1.259 . S
Co453 O454 2.061 . S
Co453 O459 2.052 . S
Co453 O461 2.135 . S
O454 Co453 2.061 . S
O454 C457 1.235 . S
C455 O458 1.238 . S
C455 O459 1.241 . S
C456 O449 1.247 . S
C456 O450 1.261 . S
C457 O452 1.259 . S
C457 O454 1.235 . S
O458 Co448 2.021 . S
O458 C455 1.238 . S
O459 Co453 2.052 . S
O459 C455 1.241 . S
O460 Co448 2.137 . S
O460 C451 1.247 . S
O461 Co448 2.244 . S
O461 C451 1.272 . S
O461 Co453 2.135 . S
Co462 O463 2.216 . S
Co462 O464 2.091 . S
Co462 O466 2.004 . S
Co462 O472 2.021 . S
Co462 O474 2.137 . S
Co462 O475 2.244 . S
O463 Co462 2.216 . S
O463 C470 1.247 . S
O464 Co462 2.091 . S
O464 C470 1.261 . S
C465 O474 1.247 . S
C465 O475 1.272 . S
O466 Co462 2.004 . S
O466 C471 1.259 . S
Co467 O468 2.061 . S
Co467 O473 2.052 . S
Co467 O475 2.135 . S
O468 Co467 2.061 . S
O468 C471 1.235 . S
C469 O472 1.238 . S
C469 O473 1.241 . S
C470 O463 1.247 . S
C470 O464 1.261 . S
C471 O466 1.259 . S
C471 O468 1.235 . S
O472 Co462 2.021 . S
O472 C469 1.238 . S
O473 Co467 2.052 . S
O473 C469 1.241 . S
O474 Co462 2.137 . S
O474 C465 1.247 . S
O475 Co462 2.244 . S
O475 C465 1.272 . S
O475 Co467 2.135 . S
Co476 O477 2.216 . S
Co476 O478 2.091 . S
Co476 O480 2.004 . S
Co476 O486 2.021 . S
Co476 O488 2.137 . S
Co476 O489 2.244 . S
O477 Co476 2.216 . S
O477 C484 1.247 . S
O478 Co476 2.091 . S
O478 C484 1.261 . S
C479 O488 1.247 . S
C479 O489 1.272 . S
O480 Co476 2.004 . S
O480 C485 1.259 . S
Co481 O482 2.061 . S
Co481 O487 2.052 . S
Co481 O489 2.135 . S
O482 Co481 2.061 . S
O482 C485 1.235 . S
C483 O486 1.238 . S
C483 O487 1.241 . S
C484 O477 1.247 . S
C484 O478 1.261 . S
C485 O480 1.259 . S
C485 O482 1.235 . S
O486 Co476 2.021 . S
O486 C483 1.238 . S
O487 Co481 2.052 . S
O487 C483 1.241 . S
O488 Co476 2.137 . S
O488 C479 1.247 . S
O489 Co476 2.244 . S
O489 C479 1.272 . S
O489 Co481 2.135 . S
Co490 O491 2.216 . S
Co490 O492 2.091 . S
Co490 O494 2.004 . S
Co490 O500 2.021 . S
Co490 O502 2.137 . S
Co490 O503 2.244 . S
O491 Co490 2.216 . S
O491 C498 1.247 . S
O492 Co490 2.091 . S
O492 C498 1.261 . S
C493 O502 1.247 . S
C493 O503 1.272 . S
O494 Co490 2.004 . S
O494 C499 1.259 . S
Co495 O496 2.061 . S
Co495 O501 2.052 . S
Co495 O503 2.135 . S
O496 Co495 2.061 . S
O496 C499 1.235 . S
C497 O500 1.238 . S
C497 O501 1.241 . S
C498 O491 1.247 . S
C498 O492 1.261 . S
C499 O494 1.259 . S
C499 O496 1.235 . S
O500 Co490 2.021 . S
O500 C497 1.238 . S
O501 Co495 2.052 . S
O501 C497 1.241 . S
O502 Co490 2.137 . S
O502 C493 1.247 . S
O503 Co490 2.244 . S
O503 C493 1.272 . S
O503 Co495 2.135 . S
Co504 O505 2.216 . S
Co504 O506 2.091 . S
Co504 O508 2.004 . S
Co504 O514 2.021 . S
Co504 O516 2.137 . S
Co504 O517 2.244 . S
O505 Co504 2.216 . S
O505 C512 1.247 . S
O506 Co504 2.091 . S
O506 C512 1.261 . S
C507 O516 1.247 . S
C507 O517 1.272 . S
O508 Co504 2.004 . S
O508 C513 1.259 . S
Co509 O510 2.061 . S
Co509 O515 2.052 . S
Co509 O517 2.135 . S
O510 Co509 2.061 . S
O510 C513 1.235 . S
C511 O514 1.238 . S
C511 O515 1.241 . S
C512 O505 1.247 . S
C512 O506 1.261 . S
C513 O508 1.259 . S
C513 O510 1.235 . S
O514 Co504 2.021 . S
O514 C511 1.238 . S
O515 Co509 2.052 . S
O515 C511 1.241 . S
O516 Co504 2.137 . S
O516 C507 1.247 . S
O517 Co504 2.244 . S
O517 C507 1.272 . S
O517 Co509 2.135 . S
Co518 O519 2.216 . S
Co518 O520 2.091 . S
Co518 O522 2.004 . S
Co518 O528 2.021 . S
Co518 O530 2.137 . S
Co518 O531 2.244 . S
O519 Co518 2.216 . S
O519 C526 1.247 . S
O520 Co518 2.091 . S
O520 C526 1.261 . S
C521 O530 1.247 . S
C521 O531 1.272 . S
O522 Co518 2.004 . S
O522 C527 1.259 . S
Co523 O524 2.061 . S
Co523 O529 2.052 . S
Co523 O531 2.135 . S
O524 Co523 2.061 . S
O524 C527 1.235 . S
C525 O528 1.238 . S
C525 O529 1.241 . S
C526 O519 1.247 . S
C526 O520 1.261 . S
C527 O522 1.259 . S
C527 O524 1.235 . S
O528 Co518 2.021 . S
O528 C525 1.238 . S
O529 Co523 2.052 . S
O529 C525 1.241 . S
O530 Co518 2.137 . S
O530 C521 1.247 . S
O531 Co518 2.244 . S
O531 C521 1.272 . S
O531 Co523 2.135 . S
Co532 O533 2.216 . S
Co532 O534 2.091 . S
Co532 O536 2.004 . S
Co532 O542 2.021 . S
Co532 O544 2.137 . S
Co532 O545 2.244 . S
O533 Co532 2.216 . S
O533 C540 1.247 . S
O534 Co532 2.091 . S
O534 C540 1.261 . S
C535 O544 1.247 . S
C535 O545 1.272 . S
O536 Co532 2.004 . S
O536 C541 1.259 . S
Co537 O538 2.061 . S
Co537 O543 2.052 . S
Co537 O545 2.135 . S
O538 Co537 2.061 . S
O538 C541 1.235 . S
C539 O542 1.238 . S
C539 O543 1.241 . S
C540 O533 1.247 . S
C540 O534 1.261 . S
C541 O536 1.259 . S
C541 O538 1.235 . S
O542 Co532 2.021 . S
O542 C539 1.238 . S
O543 Co537 2.052 . S
O543 C539 1.241 . S
O544 Co532 2.137 . S
O544 C535 1.247 . S
O545 Co532 2.244 . S
O545 C535 1.272 . S
O545 Co537 2.135 . S
Co546 O547 2.216 . S
Co546 O548 2.091 . S
Co546 O550 2.004 . S
Co546 O556 2.021 . S
Co546 O558 2.137 . S
Co546 O559 2.244 . S
O547 Co546 2.216 . S
O547 C554 1.247 . S
O548 Co546 2.091 . S
O548 C554 1.261 . S
C549 O558 1.247 . S
C549 O559 1.272 . S
O550 Co546 2.004 . S
O550 C555 1.259 . S
Co551 O552 2.061 . S
Co551 O557 2.052 . S
Co551 O559 2.135 . S
O552 Co551 2.061 . S
O552 C555 1.235 . S
C553 O556 1.238 . S
C553 O557 1.241 . S
C554 O547 1.247 . S
C554 O548 1.261 . S
C555 O550 1.259 . S
C555 O552 1.235 . S
O556 Co546 2.021 . S
O556 C553 1.238 . S
O557 Co551 2.052 . S
O557 C553 1.241 . S
O558 Co546 2.137 . S
O558 C549 1.247 . S
O559 Co546 2.244 . S
O559 C549 1.272 . S
O559 Co551 2.135 . S
Co560 O561 2.216 . S
Co560 O562 2.091 . S
Co560 O564 2.004 . S
Co560 O570 2.021 . S
Co560 O572 2.137 . S
Co560 O573 2.244 . S
O561 Co560 2.216 . S
O561 C568 1.247 . S
O562 Co560 2.091 . S
O562 C568 1.261 . S
C563 O572 1.247 . S
C563 O573 1.272 . S
O564 Co560 2.004 . S
O564 C569 1.259 . S
Co565 O566 2.061 . S
Co565 O571 2.052 . S
Co565 O573 2.135 . S
O566 Co565 2.061 . S
O566 C569 1.235 . S
C567 O570 1.238 . S
C567 O571 1.241 . S
C568 O561 1.247 . S
C568 O562 1.261 . S
C569 O564 1.259 . S
C569 O566 1.235 . S
O570 Co560 2.021 . S
O570 C567 1.238 . S
O571 Co565 2.052 . S
O571 C567 1.241 . S
O572 Co560 2.137 . S
O572 C563 1.247 . S
O573 Co560 2.244 . S
O573 C563 1.272 . S
O573 Co565 2.135 . S
Co574 O575 2.216 . S
Co574 O576 2.091 . S
Co574 O578 2.004 . S
Co574 O584 2.021 . S
Co574 O586 2.137 . S
Co574 O587 2.244 . S
O575 Co574 2.216 . S
O575 C582 1.247 . S
O576 Co574 2.091 . S
O576 C582 1.261 . S
C577 O586 1.247 . S
C577 O587 1.272 . S
O578 Co574 2.004 . S
O578 C583 1.259 . S
Co579 O580 2.061 . S
Co579 O585 2.052 . S
Co579 O587 2.135 . S
O580 Co579 2.061 . S
O580 C583 1.235 . S
C581 O584 1.238 . S
C581 O585 1.241 . S
C582 O575 1.247 . S
C582 O576 1.261 . S
C583 O578 1.259 . S
C583 O580 1.235 . S
O584 Co574 2.021 . S
O584 C581 1.238 . S
O585 Co579 2.052 . S
O585 C581 1.241 . S
O586 Co574 2.137 . S
O586 C577 1.247 . S
O587 Co574 2.244 . S
O587 C577 1.272 . S
O587 Co579 2.135 . S
Co588 O589 2.216 . S
Co588 O590 2.091 . S
Co588 O592 2.004 . S
Co588 O598 2.021 . S
Co588 O600 2.137 . S
Co588 O601 2.244 . S
O589 Co588 2.216 . S
O589 C596 1.247 . S
O590 Co588 2.091 . S
O590 C596 1.261 . S
C591 O600 1.247 . S
C591 O601 1.272 . S
O592 Co588 2.004 . S
O592 C597 1.259 . S
Co593 O594 2.061 . S
Co593 O599 2.052 . S
Co593 O601 2.135 . S
O594 Co593 2.061 . S
O594 C597 1.235 . S
C595 O598 1.238 . S
C595 O599 1.241 . S
C596 O589 1.247 . S
C596 O590 1.261 . S
C597 O592 1.259 . S
C597 O594 1.235 . S
O598 Co588 2.021 . S
O598 C595 1.238 . S
O599 Co593 2.052 . S
O599 C595 1.241 . S
O600 Co588 2.137 . S
O600 C591 1.247 . S
O601 Co588 2.244 . S
O601 C591 1.272 . S
O601 Co593 2.135 . S
Co602 O603 2.216 . S
Co602 O604 2.091 . S
Co602 O606 2.004 . S
Co602 O612 2.021 . S
Co602 O614 2.137 . S
Co602 O615 2.244 . S
O603 Co602 2.216 . S
O603 C610 1.247 . S
O604 Co602 2.091 . S
O604 C610 1.261 . S
C605 O614 1.247 . S
C605 O615 1.272 . S
O606 Co602 2.004 . S
O606 C611 1.259 . S
Co607 O608 2.061 . S
Co607 O613 2.052 . S
Co607 O615 2.135 . S
O608 Co607 2.061 . S
O608 C611 1.235 . S
C609 O612 1.238 . S
C609 O613 1.241 . S
C610 O603 1.247 . S
C610 O604 1.261 . S
C611 O606 1.259 . S
C611 O608 1.235 . S
O612 Co602 2.021 . S
O612 C609 1.238 . S
O613 Co607 2.052 . S
O613 C609 1.241 . S
O614 Co602 2.137 . S
O614 C605 1.247 . S
O615 Co602 2.244 . S
O615 C605 1.272 . S
O615 Co607 2.135 . S
Co616 O617 2.216 . S
Co616 O618 2.091 . S
Co616 O620 2.004 . S
Co616 O626 2.021 . S
Co616 O628 2.137 . S
Co616 O629 2.244 . S
O617 Co616 2.216 . S
O617 C624 1.247 . S
O618 Co616 2.091 . S
O618 C624 1.261 . S
C619 O628 1.247 . S
C619 O629 1.272 . S
O620 Co616 2.004 . S
O620 C625 1.259 . S
Co621 O622 2.061 . S
Co621 O627 2.052 . S
Co621 O629 2.135 . S
O622 Co621 2.061 . S
O622 C625 1.235 . S
C623 O626 1.238 . S
C623 O627 1.241 . S
C624 O617 1.247 . S
C624 O618 1.261 . S
C625 O620 1.259 . S
C625 O622 1.235 . S
O626 Co616 2.021 . S
O626 C623 1.238 . S
O627 Co621 2.052 . S
O627 C623 1.241 . S
O628 Co616 2.137 . S
O628 C619 1.247 . S
O629 Co616 2.244 . S
O629 C619 1.272 . S
O629 Co621 2.135 . S
Co630 O631 2.216 . S
Co630 O632 2.091 . S
Co630 O634 2.004 . S
Co630 O640 2.021 . S
Co630 O642 2.137 . S
Co630 O643 2.244 . S
O631 Co630 2.216 . S
O631 C638 1.247 . S
O632 Co630 2.091 . S
O632 C638 1.261 . S
C633 O642 1.247 . S
C633 O643 1.272 . S
O634 Co630 2.004 . S
O634 C639 1.259 . S
Co635 O636 2.061 . S
Co635 O641 2.052 . S
Co635 O643 2.135 . S
O636 Co635 2.061 . S
O636 C639 1.235 . S
C637 O640 1.238 . S
C637 O641 1.241 . S
C638 O631 1.247 . S
C638 O632 1.261 . S
C639 O634 1.259 . S
C639 O636 1.235 . S
O640 Co630 2.021 . S
O640 C637 1.238 . S
O641 Co635 2.052 . S
O641 C637 1.241 . S
O642 Co630 2.137 . S
O642 C633 1.247 . S
O643 Co630 2.244 . S
O643 C633 1.272 . S
O643 Co635 2.135 . S
Co644 O645 2.216 . S
Co644 O646 2.091 . S
Co644 O648 2.004 . S
Co644 O654 2.021 . S
Co644 O656 2.137 . S
Co644 O657 2.244 . S
O645 Co644 2.216 . S
O645 C652 1.247 . S
O646 Co644 2.091 . S
O646 C652 1.261 . S
C647 O656 1.247 . S
C647 O657 1.272 . S
O648 Co644 2.004 . S
O648 C653 1.259 . S
Co649 O650 2.061 . S
Co649 O655 2.052 . S
Co649 O657 2.135 . S
O650 Co649 2.061 . S
O650 C653 1.235 . S
C651 O654 1.238 . S
C651 O655 1.241 . S
C652 O645 1.247 . S
C652 O646 1.261 . S
C653 O648 1.259 . S
C653 O650 1.235 . S
O654 Co644 2.021 . S
O654 C651 1.238 . S
O655 Co649 2.052 . S
O655 C651 1.241 . S
O656 Co644 2.137 . S
O656 C647 1.247 . S
O657 Co644 2.244 . S
O657 C647 1.272 . S
O657 Co649 2.135 . S
Co658 O659 2.216 . S
Co658 O660 2.091 . S
Co658 O662 2.004 . S
Co658 O668 2.021 . S
Co658 O670 2.137 . S
Co658 O671 2.244 . S
O659 Co658 2.216 . S
O659 C666 1.247 . S
O660 Co658 2.091 . S
O660 C666 1.261 . S
C661 O670 1.247 . S
C661 O671 1.272 . S
O662 Co658 2.004 . S
O662 C667 1.259 . S
Co663 O664 2.061 . S
Co663 O669 2.052 . S
Co663 O671 2.135 . S
O664 Co663 2.061 . S
O664 C667 1.235 . S
C665 O668 1.238 . S
C665 O669 1.241 . S
C666 O659 1.247 . S
C666 O660 1.261 . S
C667 O662 1.259 . S
C667 O664 1.235 . S
O668 Co658 2.021 . S
O668 C665 1.238 . S
O669 Co663 2.052 . S
O669 C665 1.241 . S
O670 Co658 2.137 . S
O670 C661 1.247 . S
O671 Co658 2.244 . S
O671 C661 1.272 . S
O671 Co663 2.135 . S
Co672 O673 2.216 . S
Co672 O674 2.091 . S
Co672 O676 2.004 . S
Co672 O682 2.021 . S
Co672 O684 2.137 . S
Co672 O685 2.244 . S
O673 Co672 2.216 . S
O673 C680 1.247 . S
O674 Co672 2.091 . S
O674 C680 1.261 . S
C675 O684 1.247 . S
C675 O685 1.272 . S
O676 Co672 2.004 . S
O676 C681 1.259 . S
Co677 O678 2.061 . S
Co677 O683 2.052 . S
Co677 O685 2.135 . S
O678 Co677 2.061 . S
O678 C681 1.235 . S
C679 O682 1.238 . S
C679 O683 1.241 . S
C680 O673 1.247 . S
C680 O674 1.261 . S
C681 O676 1.259 . S
C681 O678 1.235 . S
O682 Co672 2.021 . S
O682 C679 1.238 . S
O683 Co677 2.052 . S
O683 C679 1.241 . S
O684 Co672 2.137 . S
O684 C675 1.247 . S
O685 Co672 2.244 . S
O685 C675 1.272 . S
O685 Co677 2.135 . S
Co686 O687 2.216 . S
Co686 O688 2.091 . S
Co686 O690 2.004 . S
Co686 O696 2.021 . S
Co686 O698 2.137 . S
Co686 O699 2.244 . S
O687 Co686 2.216 . S
O687 C694 1.247 . S
O688 Co686 2.091 . S
O688 C694 1.261 . S
C689 O698 1.247 . S
C689 O699 1.272 . S
O690 Co686 2.004 . S
O690 C695 1.259 . S
Co691 O692 2.061 . S
Co691 O697 2.052 . S
Co691 O699 2.135 . S
O692 Co691 2.061 . S
O692 C695 1.235 . S
C693 O696 1.238 . S
C693 O697 1.241 . S
C694 O687 1.247 . S
C694 O688 1.261 . S
C695 O690 1.259 . S
C695 O692 1.235 . S
O696 Co686 2.021 . S
O696 C693 1.238 . S
O697 Co691 2.052 . S
O697 C693 1.241 . S
O698 Co686 2.137 . S
O698 C689 1.247 . S
O699 Co686 2.244 . S
O699 C689 1.272 . S
O699 Co691 2.135 . S
Co700 O701 2.216 . S
Co700 O702 2.091 . S
Co700 O704 2.004 . S
Co700 O710 2.021 . S
Co700 O712 2.137 . S
Co700 O713 2.244 . S
O701 Co700 2.216 . S
O701 C708 1.247 . S
O702 Co700 2.091 . S
O702 C708 1.261 . S
C703 O712 1.247 . S
C703 O713 1.272 . S
O704 Co700 2.004 . S
O704 C709 1.259 . S
Co705 O706 2.061 . S
Co705 O711 2.052 . S
Co705 O713 2.135 . S
O706 Co705 2.061 . S
O706 C709 1.235 . S
C707 O710 1.238 . S
C707 O711 1.241 . S
C708 O701 1.247 . S
C708 O702 1.261 . S
C709 O704 1.259 . S
C709 O706 1.235 . S
O710 Co700 2.021 . S
O710 C707 1.238 . S
O711 Co705 2.052 . S
O711 C707 1.241 . S
O712 Co700 2.137 . S
O712 C703 1.247 . S
O713 Co700 2.244 . S
O713 C703 1.272 . S
O713 Co705 2.135 . S
Co714 O715 2.216 . S
Co714 O716 2.091 . S
Co714 O718 2.004 . S
Co714 O724 2.021 . S
Co714 O726 2.137 . S
Co714 O727 2.244 . S
O715 Co714 2.216 . S
O715 C722 1.247 . S
O716 Co714 2.091 . S
O716 C722 1.261 . S
C717 O726 1.247 . S
C717 O727 1.272 . S
O718 Co714 2.004 . S
O718 C723 1.259 . S
Co719 O720 2.061 . S
Co719 O725 2.052 . S
Co719 O727 2.135 . S
O720 Co719 2.061 . S
O720 C723 1.235 . S
C721 O724 1.238 . S
C721 O725 1.241 . S
C722 O715 1.247 . S
C722 O716 1.261 . S
C723 O718 1.259 . S
C723 O720 1.235 . S
O724 Co714 2.021 . S
O724 C721 1.238 . S
O725 Co719 2.052 . S
O725 C721 1.241 . S
O726 Co714 2.137 . S
O726 C717 1.247 . S
O727 Co714 2.244 . S
O727 C717 1.272 . S
O727 Co719 2.135 . S
Co728 O729 2.216 . S
Co728 O730 2.091 . S
Co728 O732 2.004 . S
Co728 O738 2.021 . S
Co728 O740 2.137 . S
Co728 O741 2.244 . S
O729 Co728 2.216 . S
O729 C736 1.247 . S
O730 Co728 2.091 . S
O730 C736 1.261 . S
C731 O740 1.247 . S
C731 O741 1.272 . S
O732 Co728 2.004 . S
O732 C737 1.259 . S
Co733 O734 2.061 . S
Co733 O739 2.052 . S
Co733 O741 2.135 . S
O734 Co733 2.061 . S
O734 C737 1.235 . S
C735 O738 1.238 . S
C735 O739 1.241 . S
C736 O729 1.247 . S
C736 O730 1.261 . S
C737 O732 1.259 . S
C737 O734 1.235 . S
O738 Co728 2.021 . S
O738 C735 1.238 . S
O739 Co733 2.052 . S
O739 C735 1.241 . S
O740 Co728 2.137 . S
O740 C731 1.247 . S
O741 Co728 2.244 . S
O741 C731 1.272 . S
O741 Co733 2.135 . S
Co742 O743 2.216 . S
Co742 O744 2.091 . S
Co742 O746 2.004 . S
Co742 O752 2.021 . S
Co742 O754 2.137 . S
Co742 O755 2.244 . S
O743 Co742 2.216 . S
O743 C750 1.247 . S
O744 Co742 2.091 . S
O744 C750 1.261 . S
C745 O754 1.247 . S
C745 O755 1.272 . S
O746 Co742 2.004 . S
O746 C751 1.259 . S
Co747 O748 2.061 . S
Co747 O753 2.052 . S
Co747 O755 2.135 . S
O748 Co747 2.061 . S
O748 C751 1.235 . S
C749 O752 1.238 . S
C749 O753 1.241 . S
C750 O743 1.247 . S
C750 O744 1.261 . S
C751 O746 1.259 . S
C751 O748 1.235 . S
O752 Co742 2.021 . S
O752 C749 1.238 . S
O753 Co747 2.052 . S
O753 C749 1.241 . S
O754 Co742 2.137 . S
O754 C745 1.247 . S
O755 Co742 2.244 . S
O755 C745 1.272 . S
O755 Co747 2.135 . S
Co756 O757 2.216 . S
Co756 O758 2.091 . S
Co756 O760 2.004 . S
Co756 O766 2.021 . S
Co756 O768 2.137 . S
Co756 O769 2.244 . S
O757 Co756 2.216 . S
O757 C764 1.247 . S
O758 Co756 2.091 . S
O758 C764 1.261 . S
C759 O768 1.247 . S
C759 O769 1.272 . S
O760 Co756 2.004 . S
O760 C765 1.259 . S
Co761 O762 2.061 . S
Co761 O767 2.052 . S
Co761 O769 2.135 . S
O762 Co761 2.061 . S
O762 C765 1.235 . S
C763 O766 1.238 . S
C763 O767 1.241 . S
C764 O757 1.247 . S
C764 O758 1.261 . S
C765 O760 1.259 . S
C765 O762 1.235 . S
O766 Co756 2.021 . S
O766 C763 1.238 . S
O767 Co761 2.052 . S
O767 C763 1.241 . S
O768 Co756 2.137 . S
O768 C759 1.247 . S
O769 Co756 2.244 . S
O769 C759 1.272 . S
O769 Co761 2.135 . S
Co770 O771 2.216 . S
Co770 O772 2.091 . S
Co770 O774 2.004 . S
Co770 O780 2.021 . S
Co770 O782 2.137 . S
Co770 O783 2.244 . S
O771 Co770 2.216 . S
O771 C778 1.247 . S
O772 Co770 2.091 . S
O772 C778 1.261 . S
C773 O782 1.247 . S
C773 O783 1.272 . S
O774 Co770 2.004 . S
O774 C779 1.259 . S
Co775 O776 2.061 . S
Co775 O781 2.052 . S
Co775 O783 2.135 . S
O776 Co775 2.061 . S
O776 C779 1.235 . S
C777 O780 1.238 . S
C777 O781 1.241 . S
C778 O771 1.247 . S
C778 O772 1.261 . S
C779 O774 1.259 . S
C779 O776 1.235 . S
O780 Co770 2.021 . S
O780 C777 1.238 . S
O781 Co775 2.052 . S
O781 C777 1.241 . S
O782 Co770 2.137 . S
O782 C773 1.247 . S
O783 Co770 2.244 . S
O783 C773 1.272 . S
O783 Co775 2.135 . S
Co784 O785 2.216 . S
Co784 O786 2.091 . S
Co784 O788 2.004 . S
Co784 O794 2.021 . S
Co784 O796 2.137 . S
Co784 O797 2.244 . S
O785 Co784 2.216 . S
O785 C792 1.247 . S
O786 Co784 2.091 . S
O786 C792 1.261 . S
C787 O796 1.247 . S
C787 O797 1.272 . S
O788 Co784 2.004 . S
O788 C793 1.259 . S
Co789 O790 2.061 . S
Co789 O795 2.052 . S
Co789 O797 2.135 . S
O790 Co789 2.061 . S
O790 C793 1.235 . S
C791 O794 1.238 . S
C791 O795 1.241 . S
C792 O785 1.247 . S
C792 O786 1.261 . S
C793 O788 1.259 . S
C793 O790 1.235 . S
O794 Co784 2.021 . S
O794 C791 1.238 . S
O795 Co789 2.052 . S
O795 C791 1.241 . S
O796 Co784 2.137 . S
O796 C787 1.247 . S
O797 Co784 2.244 . S
O797 C787 1.272 . S
O797 Co789 2.135 . S
Co798 O799 2.216 . S
Co798 O800 2.091 . S
Co798 O802 2.004 . S
Co798 O808 2.021 . S
Co798 O810 2.137 . S
Co798 O811 2.244 . S
O799 Co798 2.216 . S
O799 C806 1.247 . S
O800 Co798 2.091 . S
O800 C806 1.261 . S
C801 O810 1.247 . S
C801 O811 1.272 . S
O802 Co798 2.004 . S
O802 C807 1.259 . S
Co803 O804 2.061 . S
Co803 O809 2.052 . S
Co803 O811 2.135 . S
O804 Co803 2.061 . S
O804 C807 1.235 . S
C805 O808 1.238 . S
C805 O809 1.241 . S
C806 O799 1.247 . S
C806 O800 1.261 . S
C807 O802 1.259 . S
C807 O804 1.235 . S
O808 Co798 2.021 . S
O808 C805 1.238 . S
O809 Co803 2.052 . S
O809 C805 1.241 . S
O810 Co798 2.137 . S
O810 C801 1.247 . S
O811 Co798 2.244 . S
O811 C801 1.272 . S
O811 Co803 2.135 . S
Co812 O813 2.216 . S
Co812 O814 2.091 . S
Co812 O816 2.004 . S
Co812 O822 2.021 . S
Co812 O824 2.137 . S
Co812 O825 2.244 . S
O813 Co812 2.216 . S
O813 C820 1.247 . S
O814 Co812 2.091 . S
O814 C820 1.261 . S
C815 O824 1.247 . S
C815 O825 1.272 . S
O816 Co812 2.004 . S
O816 C821 1.259 . S
Co817 O818 2.061 . S
Co817 O823 2.052 . S
Co817 O825 2.135 . S
O818 Co817 2.061 . S
O818 C821 1.235 . S
C819 O822 1.238 . S
C819 O823 1.241 . S
C820 O813 1.247 . S
C820 O814 1.261 . S
C821 O816 1.259 . S
C821 O818 1.235 . S
O822 Co812 2.021 . S
O822 C819 1.238 . S
O823 Co817 2.052 . S
O823 C819 1.241 . S
O824 Co812 2.137 . S
O824 C815 1.247 . S
O825 Co812 2.244 . S
O825 C815 1.272 . S
O825 Co817 2.135 . S
Co826 O827 2.216 . S
Co826 O828 2.091 . S
Co826 O830 2.004 . S
Co826 O836 2.021 . S
Co826 O838 2.137 . S
Co826 O839 2.244 . S
O827 Co826 2.216 . S
O827 C834 1.247 . S
O828 Co826 2.091 . S
O828 C834 1.261 . S
C829 O838 1.247 . S
C829 O839 1.272 . S
O830 Co826 2.004 . S
O830 C835 1.259 . S
Co831 O832 2.061 . S
Co831 O837 2.052 . S
Co831 O839 2.135 . S
O832 Co831 2.061 . S
O832 C835 1.235 . S
C833 O836 1.238 . S
C833 O837 1.241 . S
C834 O827 1.247 . S
C834 O828 1.261 . S
C835 O830 1.259 . S
C835 O832 1.235 . S
O836 Co826 2.021 . S
O836 C833 1.238 . S
O837 Co831 2.052 . S
O837 C833 1.241 . S
O838 Co826 2.137 . S
O838 C829 1.247 . S
O839 Co826 2.244 . S
O839 C829 1.272 . S
O839 Co831 2.135 . S
Co840 O841 2.216 . S
Co840 O842 2.091 . S
Co840 O844 2.004 . S
Co840 O850 2.021 . S
Co840 O852 2.137 . S
Co840 O853 2.244 . S
O841 Co840 2.216 . S
O841 C848 1.247 . S
O842 Co840 2.091 . S
O842 C848 1.261 . S
C843 O852 1.247 . S
C843 O853 1.272 . S
O844 Co840 2.004 . S
O844 C849 1.259 . S
Co845 O846 2.061 . S
Co845 O851 2.052 . S
Co845 O853 2.135 . S
O846 Co845 2.061 . S
O846 C849 1.235 . S
C847 O850 1.238 . S
C847 O851 1.241 . S
C848 O841 1.247 . S
C848 O842 1.261 . S
C849 O844 1.259 . S
C849 O846 1.235 . S
O850 Co840 2.021 . S
O850 C847 1.238 . S
O851 Co845 2.052 . S
O851 C847 1.241 . S
O852 Co840 2.137 . S
O852 C843 1.247 . S
O853 Co840 2.244 . S
O853 C843 1.272 . S
O853 Co845 2.135 . S
Co854 O855 2.216 . S
Co854 O856 2.091 . S
Co854 O858 2.004 . S
Co854 O864 2.021 . S
Co854 O866 2.137 . S
Co854 O867 2.244 . S
O855 Co854 2.216 . S
O855 C862 1.247 . S
O856 Co854 2.091 . S
O856 C862 1.261 . S
C857 O866 1.247 . S
C857 O867 1.272 . S
O858 Co854 2.004 . S
O858 C863 1.259 . S
Co859 O860 2.061 . S
Co859 O865 2.052 . S
Co859 O867 2.135 . S
O860 Co859 2.061 . S
O860 C863 1.235 . S
C861 O864 1.238 . S
C861 O865 1.241 . S
C862 O855 1.247 . S
C862 O856 1.261 . S
C863 O858 1.259 . S
C863 O860 1.235 . S
O864 Co854 2.021 . S
O864 C861 1.238 . S
O865 Co859 2.052 . S
O865 C861 1.241 . S
O866 Co854 2.137 . S
O866 C857 1.247 . S
O867 Co854 2.244 . S
O867 C857 1.272 . S
O867 Co859 2.135 . S
Co868 O869 2.216 . S
Co868 O870 2.091 . S
Co868 O872 2.004 . S
Co868 O878 2.021 . S
Co868 O880 2.137 . S
Co868 O881 2.244 . S
O869 Co868 2.216 . S
O869 C876 1.247 . S
O870 Co868 2.091 . S
O870 C876 1.261 . S
C871 O880 1.247 . S
C871 O881 1.272 . S
O872 Co868 2.004 . S
O872 C877 1.259 . S
Co873 O874 2.061 . S
Co873 O879 2.052 . S
Co873 O881 2.135 . S
O874 Co873 2.061 . S
O874 C877 1.235 . S
C875 O878 1.238 . S
C875 O879 1.241 . S
C876 O869 1.247 . S
C876 O870 1.261 . S
C877 O872 1.259 . S
C877 O874 1.235 . S
O878 Co868 2.021 . S
O878 C875 1.238 . S
O879 Co873 2.052 . S
O879 C875 1.241 . S
O880 Co868 2.137 . S
O880 C871 1.247 . S
O881 Co868 2.244 . S
O881 C871 1.272 . S
O881 Co873 2.135 . S
Co882 O883 2.216 . S
Co882 O884 2.091 . S
Co882 O886 2.004 . S
Co882 O892 2.021 . S
Co882 O894 2.137 . S
Co882 O895 2.244 . S
O883 Co882 2.216 . S
O883 C890 1.247 . S
O884 Co882 2.091 . S
O884 C890 1.261 . S
C885 O894 1.247 . S
C885 O895 1.272 . S
O886 Co882 2.004 . S
O886 C891 1.259 . S
Co887 O888 2.061 . S
Co887 O893 2.052 . S
Co887 O895 2.135 . S
O888 Co887 2.061 . S
O888 C891 1.235 . S
C889 O892 1.238 . S
C889 O893 1.241 . S
C890 O883 1.247 . S
C890 O884 1.261 . S
C891 O886 1.259 . S
C891 O888 1.235 . S
O892 Co882 2.021 . S
O892 C889 1.238 . S
O893 Co887 2.052 . S
O893 C889 1.241 . S
O894 Co882 2.137 . S
O894 C885 1.247 . S
O895 Co882 2.244 . S
O895 C885 1.272 . S
O895 Co887 2.135 . S
Co896 O897 2.216 . S
Co896 O898 2.091 . S
Co896 O900 2.004 . S
Co896 O906 2.021 . S
Co896 O908 2.137 . S
Co896 O909 2.244 . S
O897 Co896 2.216 . S
O897 C904 1.247 . S
O898 Co896 2.091 . S
O898 C904 1.261 . S
C899 O908 1.247 . S
C899 O909 1.272 . S
O900 Co896 2.004 . S
O900 C905 1.259 . S
Co901 O902 2.061 . S
Co901 O907 2.052 . S
Co901 O909 2.135 . S
O902 Co901 2.061 . S
O902 C905 1.235 . S
C903 O906 1.238 . S
C903 O907 1.241 . S
C904 O897 1.247 . S
C904 O898 1.261 . S
C905 O900 1.259 . S
C905 O902 1.235 . S
O906 Co896 2.021 . S
O906 C903 1.238 . S
O907 Co901 2.052 . S
O907 C903 1.241 . S
O908 Co896 2.137 . S
O908 C899 1.247 . S
O909 Co896 2.244 . S
O909 C899 1.272 . S
O909 Co901 2.135 . S
Co910 O911 2.216 . S
Co910 O912 2.091 . S
Co910 O914 2.004 . S
Co910 O920 2.021 . S
Co910 O922 2.137 . S
Co910 O923 2.244 . S
O911 Co910 2.216 . S
O911 C918 1.247 . S
O912 Co910 2.091 . S
O912 C918 1.261 . S
C913 O922 1.247 . S
C913 O923 1.272 . S
O914 Co910 2.004 . S
O914 C919 1.259 . S
Co915 O916 2.061 . S
Co915 O921 2.052 . S
Co915 O923 2.135 . S
O916 Co915 2.061 . S
O916 C919 1.235 . S
C917 O920 1.238 . S
C917 O921 1.241 . S
C918 O911 1.247 . S
C918 O912 1.261 . S
C919 O914 1.259 . S
C919 O916 1.235 . S
O920 Co910 2.021 . S
O920 C917 1.238 . S
O921 Co915 2.052 . S
O921 C917 1.241 . S
O922 Co910 2.137 . S
O922 C913 1.247 . S
O923 Co910 2.244 . S
O923 C913 1.272 . S
O923 Co915 2.135 . S
Co924 O925 2.216 . S
Co924 O926 2.091 . S
Co924 O928 2.004 . S
Co924 O934 2.021 . S
Co924 O936 2.137 . S
Co924 O937 2.244 . S
O925 Co924 2.216 . S
O925 C932 1.247 . S
O926 Co924 2.091 . S
O926 C932 1.261 . S
C927 O936 1.247 . S
C927 O937 1.272 . S
O928 Co924 2.004 . S
O928 C933 1.259 . S
Co929 O930 2.061 . S
Co929 O935 2.052 . S
Co929 O937 2.135 . S
O930 Co929 2.061 . S
O930 C933 1.235 . S
C931 O934 1.238 . S
C931 O935 1.241 . S
C932 O925 1.247 . S
C932 O926 1.261 . S
C933 O928 1.259 . S
C933 O930 1.235 . S
O934 Co924 2.021 . S
O934 C931 1.238 . S
O935 Co929 2.052 . S
O935 C931 1.241 . S
O936 Co924 2.137 . S
O936 C927 1.247 . S
O937 Co924 2.244 . S
O937 C927 1.272 . S
O937 Co929 2.135 . S
Co938 O939 2.216 . S
Co938 O940 2.091 . S
Co938 O942 2.004 . S
Co938 O948 2.021 . S
Co938 O950 2.137 . S
Co938 O951 2.244 . S
O939 Co938 2.216 . S
O939 C946 1.247 . S
O940 Co938 2.091 . S
O940 C946 1.261 . S
C941 O950 1.247 . S
C941 O951 1.272 . S
O942 Co938 2.004 . S
O942 C947 1.259 . S
Co943 O944 2.061 . S
Co943 O949 2.052 . S
Co943 O951 2.135 . S
O944 Co943 2.061 . S
O944 C947 1.235 . S
C945 O948 1.238 . S
C945 O949 1.241 . S
C946 O939 1.247 . S
C946 O940 1.261 . S
C947 O942 1.259 . S
C947 O944 1.235 . S
O948 Co938 2.021 . S
O948 C945 1.238 . S
O949 Co943 2.052 . S
O949 C945 1.241 . S
O950 Co938 2.137 . S
O950 C941 1.247 . S
O951 Co938 2.244 . S
O951 C941 1.272 . S
O951 Co943 2.135 . S
Co952 O953 2.216 . S
Co952 O954 2.091 . S
Co952 O956 2.004 . S
Co952 O962 2.021 . S
Co952 O964 2.137 . S
Co952 O965 2.244 . S
O953 Co952 2.216 . S
O953 C960 1.247 . S
O954 Co952 2.091 . S
O954 C960 1.261 . S
C955 O964 1.247 . S
C955 O965 1.272 . S
O956 Co952 2.004 . S
O956 C961 1.259 . S
Co957 O958 2.061 . S
Co957 O963 2.052 . S
Co957 O965 2.135 . S
O958 Co957 2.061 . S
O958 C961 1.235 . S
C959 O962 1.238 . S
C959 O963 1.241 . S
C960 O953 1.247 . S
C960 O954 1.261 . S
C961 O956 1.259 . S
C961 O958 1.235 . S
O962 Co952 2.021 . S
O962 C959 1.238 . S
O963 Co957 2.052 . S
O963 C959 1.241 . S
O964 Co952 2.137 . S
O964 C955 1.247 . S
O965 Co952 2.244 . S
O965 C955 1.272 . S
O965 Co957 2.135 . S
Co966 O967 2.216 . S
Co966 O968 2.091 . S
Co966 O970 2.004 . S
Co966 O976 2.021 . S
Co966 O978 2.137 . S
Co966 O979 2.244 . S
O967 Co966 2.216 . S
O967 C974 1.247 . S
O968 Co966 2.091 . S
O968 C974 1.261 . S
C969 O978 1.247 . S
C969 O979 1.272 . S
O970 Co966 2.004 . S
O970 C975 1.259 . S
Co971 O972 2.061 . S
Co971 O977 2.052 . S
Co971 O979 2.135 . S
O972 Co971 2.061 . S
O972 C975 1.235 . S
C973 O976 1.238 . S
C973 O977 1.241 . S
C974 O967 1.247 . S
C974 O968 1.261 . S
C975 O970 1.259 . S
C975 O972 1.235 . S
O976 Co966 2.021 . S
O976 C973 1.238 . S
O977 Co971 2.052 . S
O977 C973 1.241 . S
O978 Co966 2.137 . S
O978 C969 1.247 . S
O979 Co966 2.244 . S
O979 C969 1.272 . S
O979 Co971 2.135 . S
Co980 O981 2.216 . S
Co980 O982 2.091 . S
Co980 O984 2.004 . S
Co980 O990 2.021 . S
Co980 O992 2.137 . S
Co980 O993 2.244 . S
O981 Co980 2.216 . S
O981 C988 1.247 . S
O982 Co980 2.091 . S
O982 C988 1.261 . S
C983 O992 1.247 . S
C983 O993 1.272 . S
O984 Co980 2.004 . S
O984 C989 1.259 . S
Co985 O986 2.061 . S
Co985 O991 2.052 . S
Co985 O993 2.135 . S
O986 Co985 2.061 . S
O986 C989 1.235 . S
C987 O990 1.238 . S
C987 O991 1.241 . S
C988 O981 1.247 . S
C988 O982 1.261 . S
C989 O984 1.259 . S
C989 O986 1.235 . S
O990 Co980 2.021 . S
O990 C987 1.238 . S
O991 Co985 2.052 . S
O991 C987 1.241 . S
O992 Co980 2.137 . S
O992 C983 1.247 . S
O993 Co980 2.244 . S
O993 C983 1.272 . S
O993 Co985 2.135 . S
Co994 O995 2.216 . S
Co994 O996 2.091 . S
Co994 O998 2.004 . S
Co994 O1004 2.021 . S
Co994 O1006 2.137 . S
Co994 O1007 2.244 . S
O995 Co994 2.216 . S
O995 C1002 1.247 . S
O996 Co994 2.091 . S
O996 C1002 1.261 . S
C997 O1006 1.247 . S
C997 O1007 1.272 . S
O998 Co994 2.004 . S
O998 C1003 1.259 . S
Co999 O1000 2.061 . S
Co999 O1005 2.052 . S
Co999 O1007 2.135 . S
O1000 Co999 2.061 . S
O1000 C1003 1.235 . S
C1001 O1004 1.238 . S
C1001 O1005 1.241 . S
C1002 O995 1.247 . S
C1002 O996 1.261 . S
C1003 O998 1.259 . S
C1003 O1000 1.235 . S
O1004 Co994 2.021 . S
O1004 C1001 1.238 . S
O1005 Co999 2.052 . S
O1005 C1001 1.241 . S
O1006 Co994 2.137 . S
O1006 C997 1.247 . S
O1007 Co994 2.244 . S
O1007 C997 1.272 . S
O1007 Co999 2.135 . S
Co1008 O1009 2.216 . S
Co1008 O1010 2.091 . S
Co1008 O1012 2.004 . S
Co1008 O1018 2.021 . S
Co1008 O1020 2.137 . S
Co1008 O1021 2.244 . S
O1009 Co1008 2.216 . S
O1009 C1016 1.247 . S
O1010 Co1008 2.091 . S
O1010 C1016 1.261 . S
C1011 O1020 1.247 . S
C1011 O1021 1.272 . S
O1012 Co1008 2.004 . S
O1012 C1017 1.259 . S
Co1013 O1014 2.061 . S
Co1013 O1019 2.052 . S
Co1013 O1021 2.135 . S
O1014 Co1013 2.061 . S
O1014 C1017 1.235 . S
C1015 O1018 1.238 . S
C1015 O1019 1.241 . S
C1016 O1009 1.247 . S
C1016 O1010 1.261 . S
C1017 O1012 1.259 . S
C1017 O1014 1.235 . S
O1018 Co1008 2.021 . S
O1018 C1015 1.238 . S
O1019 Co1013 2.052 . S
O1019 C1015 1.241 . S
O1020 Co1008 2.137 . S
O1020 C1011 1.247 . S
O1021 Co1008 2.244 . S
O1021 C1011 1.272 . S
O1021 Co1013 2.135 . S
Co1022 O1023 2.216 . S
Co1022 O1024 2.091 . S
Co1022 O1026 2.004 . S
Co1022 O1032 2.021 . S
Co1022 O1034 2.137 . S
Co1022 O1035 2.244 . S
O1023 Co1022 2.216 . S
O1023 C1030 1.247 . S
O1024 Co1022 2.091 . S
O1024 C1030 1.261 . S
C1025 O1034 1.247 . S
C1025 O1035 1.272 . S
O1026 Co1022 2.004 . S
O1026 C1031 1.259 . S
Co1027 O1028 2.061 . S
Co1027 O1033 2.052 . S
Co1027 O1035 2.135 . S
O1028 Co1027 2.061 . S
O1028 C1031 1.235 . S
C1029 O1032 1.238 . S
C1029 O1033 1.241 . S
C1030 O1023 1.247 . S
C1030 O1024 1.261 . S
C1031 O1026 1.259 . S
C1031 O1028 1.235 . S
O1032 Co1022 2.021 . S
O1032 C1029 1.238 . S
O1033 Co1027 2.052 . S
O1033 C1029 1.241 . S
O1034 Co1022 2.137 . S
O1034 C1025 1.247 . S
O1035 Co1022 2.244 . S
O1035 C1025 1.272 . S
O1035 Co1027 2.135 . S
Co1036 O1037 2.216 . S
Co1036 O1038 2.091 . S
Co1036 O1040 2.004 . S
Co1036 O1046 2.021 . S
Co1036 O1048 2.137 . S
Co1036 O1049 2.244 . S
O1037 Co1036 2.216 . S
O1037 C1044 1.247 . S
O1038 Co1036 2.091 . S
O1038 C1044 1.261 . S
C1039 O1048 1.247 . S
C1039 O1049 1.272 . S
O1040 Co1036 2.004 . S
O1040 C1045 1.259 . S
Co1041 O1042 2.061 . S
Co1041 O1047 2.052 . S
Co1041 O1049 2.135 . S
O1042 Co1041 2.061 . S
O1042 C1045 1.235 . S
C1043 O1046 1.238 . S
C1043 O1047 1.241 . S
C1044 O1037 1.247 . S
C1044 O1038 1.261 . S
C1045 O1040 1.259 . S
C1045 O1042 1.235 . S
O1046 Co1036 2.021 . S
O1046 C1043 1.238 . S
O1047 Co1041 2.052 . S
O1047 C1043 1.241 . S
O1048 Co1036 2.137 . S
O1048 C1039 1.247 . S
O1049 Co1036 2.244 . S
O1049 C1039 1.272 . S
O1049 Co1041 2.135 . S
Co1050 O1051 2.216 . S
Co1050 O1052 2.091 . S
Co1050 O1054 2.004 . S
Co1050 O1060 2.021 . S
Co1050 O1062 2.137 . S
Co1050 O1063 2.244 . S
O1051 Co1050 2.216 . S
O1051 C1058 1.247 . S
O1052 Co1050 2.091 . S
O1052 C1058 1.261 . S
C1053 O1062 1.247 . S
C1053 O1063 1.272 . S
O1054 Co1050 2.004 . S
O1054 C1059 1.259 . S
Co1055 O1056 2.061 . S
Co1055 O1061 2.052 . S
Co1055 O1063 2.135 . S
O1056 Co1055 2.061 . S
O1056 C1059 1.235 . S
C1057 O1060 1.238 . S
C1057 O1061 1.241 . S
C1058 O1051 1.247 . S
C1058 O1052 1.261 . S
C1059 O1054 1.259 . S
C1059 O1056 1.235 . S
O1060 Co1050 2.021 . S
O1060 C1057 1.238 . S
O1061 Co1055 2.052 . S
O1061 C1057 1.241 . S
O1062 Co1050 2.137 . S
O1062 C1053 1.247 . S
O1063 Co1050 2.244 . S
O1063 C1053 1.272 . S
O1063 Co1055 2.135 . S
Co1064 O1065 2.216 . S
Co1064 O1066 2.091 . S
Co1064 O1068 2.004 . S
Co1064 O1074 2.021 . S
Co1064 O1076 2.137 . S
Co1064 O1077 2.244 . S
O1065 Co1064 2.216 . S
O1065 C1072 1.247 . S
O1066 Co1064 2.091 . S
O1066 C1072 1.261 . S
C1067 O1076 1.247 . S
C1067 O1077 1.272 . S
O1068 Co1064 2.004 . S
O1068 C1073 1.259 . S
Co1069 O1070 2.061 . S
Co1069 O1075 2.052 . S
Co1069 O1077 2.135 . S
O1070 Co1069 2.061 . S
O1070 C1073 1.235 . S
C1071 O1074 1.238 . S
C1071 O1075 1.241 . S
C1072 O1065 1.247 . S
C1072 O1066 1.261 . S
C1073 O1068 1.259 . S
C1073 O1070 1.235 . S
O1074 Co1064 2.021 . S
O1074 C1071 1.238 . S
O1075 Co1069 2.052 . S
O1075 C1071 1.241 . S
O1076 Co1064 2.137 . S
O1076 C1067 1.247 . S
O1077 Co1064 2.244 . S
O1077 C1067 1.272 . S
O1077 Co1069 2.135 . S
Co1078 O1079 2.216 . S
Co1078 O1080 2.091 . S
Co1078 O1082 2.004 . S
Co1078 O1088 2.021 . S
Co1078 O1090 2.137 . S
Co1078 O1091 2.244 . S
O1079 Co1078 2.216 . S
O1079 C1086 1.247 . S
O1080 Co1078 2.091 . S
O1080 C1086 1.261 . S
C1081 O1090 1.247 . S
C1081 O1091 1.272 . S
O1082 Co1078 2.004 . S
O1082 C1087 1.259 . S
Co1083 O1084 2.061 . S
Co1083 O1089 2.052 . S
Co1083 O1091 2.135 . S
O1084 Co1083 2.061 . S
O1084 C1087 1.235 . S
C1085 O1088 1.238 . S
C1085 O1089 1.241 . S
C1086 O1079 1.247 . S
C1086 O1080 1.261 . S
C1087 O1082 1.259 . S
C1087 O1084 1.235 . S
O1088 Co1078 2.021 . S
O1088 C1085 1.238 . S
O1089 Co1083 2.052 . S
O1089 C1085 1.241 . S
O1090 Co1078 2.137 . S
O1090 C1081 1.247 . S
O1091 Co1078 2.244 . S
O1091 C1081 1.272 . S
O1091 Co1083 2.135 . S
Co1092 O1093 2.216 . S
Co1092 O1094 2.091 . S
Co1092 O1096 2.004 . S
Co1092 O1102 2.021 . S
Co1092 O1104 2.137 . S
Co1092 O1105 2.244 . S
O1093 Co1092 2.216 . S
O1093 C1100 1.247 . S
O1094 Co1092 2.091 . S
O1094 C1100 1.261 . S
C1095 O1104 1.247 . S
C1095 O1105 1.272 . S
O1096 Co1092 2.004 . S
O1096 C1101 1.259 . S
Co1097 O1098 2.061 . S
Co1097 O1103 2.052 . S
Co1097 O1105 2.135 . S
O1098 Co1097 2.061 . S
O1098 C1101 1.235 . S
C1099 O1102 1.238 . S
C1099 O1103 1.241 . S
C1100 O1093 1.247 . S
C1100 O1094 1.261 . S
C1101 O1096 1.259 . S
C1101 O1098 1.235 . S
O1102 Co1092 2.021 . S
O1102 C1099 1.238 . S
O1103 Co1097 2.052 . S
O1103 C1099 1.241 . S
O1104 Co1092 2.137 . S
O1104 C1095 1.247 . S
O1105 Co1092 2.244 . S
O1105 C1095 1.272 . S
O1105 Co1097 2.135 . S
Co1106 O1107 2.216 . S
Co1106 O1108 2.091 . S
Co1106 O1110 2.004 . S
Co1106 O1116 2.021 . S
Co1106 O1118 2.137 . S
Co1106 O1119 2.244 . S
O1107 Co1106 2.216 . S
O1107 C1114 1.247 . S
O1108 Co1106 2.091 . S
O1108 C1114 1.261 . S
C1109 O1118 1.247 . S
C1109 O1119 1.272 . S
O1110 Co1106 2.004 . S
O1110 C1115 1.259 . S
Co1111 O1112 2.061 . S
Co1111 O1117 2.052 . S
Co1111 O1119 2.135 . S
O1112 Co1111 2.061 . S
O1112 C1115 1.235 . S
C1113 O1116 1.238 . S
C1113 O1117 1.241 . S
C1114 O1107 1.247 . S
C1114 O1108 1.261 . S
C1115 O1110 1.259 . S
C1115 O1112 1.235 . S
O1116 Co1106 2.021 . S
O1116 C1113 1.238 . S
O1117 Co1111 2.052 . S
O1117 C1113 1.241 . S
O1118 Co1106 2.137 . S
O1118 C1109 1.247 . S
O1119 Co1106 2.244 . S
O1119 C1109 1.272 . S
O1119 Co1111 2.135 . S
Co1120 O1121 2.216 . S
Co1120 O1122 2.091 . S
Co1120 O1124 2.004 . S
Co1120 O1130 2.021 . S
Co1120 O1132 2.137 . S
Co1120 O1133 2.244 . S
O1121 Co1120 2.216 . S
O1121 C1128 1.247 . S
O1122 Co1120 2.091 . S
O1122 C1128 1.261 . S
C1123 O1132 1.247 . S
C1123 O1133 1.272 . S
O1124 Co1120 2.004 . S
O1124 C1129 1.259 . S
Co1125 O1126 2.061 . S
Co1125 O1131 2.052 . S
Co1125 O1133 2.135 . S
O1126 Co1125 2.061 . S
O1126 C1129 1.235 . S
C1127 O1130 1.238 . S
C1127 O1131 1.241 . S
C1128 O1121 1.247 . S
C1128 O1122 1.261 . S
C1129 O1124 1.259 . S
C1129 O1126 1.235 . S
O1130 Co1120 2.021 . S
O1130 C1127 1.238 . S
O1131 Co1125 2.052 . S
O1131 C1127 1.241 . S
O1132 Co1120 2.137 . S
O1132 C1123 1.247 . S
O1133 Co1120 2.244 . S
O1133 C1123 1.272 . S
O1133 Co1125 2.135 . S
Co1134 O1135 2.216 . S
Co1134 O1136 2.091 . S
Co1134 O1138 2.004 . S
Co1134 O1144 2.021 . S
Co1134 O1146 2.137 . S
Co1134 O1147 2.244 . S
O1135 Co1134 2.216 . S
O1135 C1142 1.247 . S
O1136 Co1134 2.091 . S
O1136 C1142 1.261 . S
C1137 O1146 1.247 . S
C1137 O1147 1.272 . S
O1138 Co1134 2.004 . S
O1138 C1143 1.259 . S
Co1139 O1140 2.061 . S
Co1139 O1145 2.052 . S
Co1139 O1147 2.135 . S
O1140 Co1139 2.061 . S
O1140 C1143 1.235 . S
C1141 O1144 1.238 . S
C1141 O1145 1.241 . S
C1142 O1135 1.247 . S
C1142 O1136 1.261 . S
C1143 O1138 1.259 . S
C1143 O1140 1.235 . S
O1144 Co1134 2.021 . S
O1144 C1141 1.238 . S
O1145 Co1139 2.052 . S
O1145 C1141 1.241 . S
O1146 Co1134 2.137 . S
O1146 C1137 1.247 . S
O1147 Co1134 2.244 . S
O1147 C1137 1.272 . S
O1147 Co1139 2.135 . S
Co1148 O1149 2.216 . S
Co1148 O1150 2.091 . S
Co1148 O1152 2.004 . S
Co1148 O1158 2.021 . S
Co1148 O1160 2.137 . S
Co1148 O1161 2.244 . S
O1149 Co1148 2.216 . S
O1149 C1156 1.247 . S
O1150 Co1148 2.091 . S
O1150 C1156 1.261 . S
C1151 O1160 1.247 . S
C1151 O1161 1.272 . S
O1152 Co1148 2.004 . S
O1152 C1157 1.259 . S
Co1153 O1154 2.061 . S
Co1153 O1159 2.052 . S
Co1153 O1161 2.135 . S
O1154 Co1153 2.061 . S
O1154 C1157 1.235 . S
C1155 O1158 1.238 . S
C1155 O1159 1.241 . S
C1156 O1149 1.247 . S
C1156 O1150 1.261 . S
C1157 O1152 1.259 . S
C1157 O1154 1.235 . S
O1158 Co1148 2.021 . S
O1158 C1155 1.238 . S
O1159 Co1153 2.052 . S
O1159 C1155 1.241 . S
O1160 Co1148 2.137 . S
O1160 C1151 1.247 . S
O1161 Co1148 2.244 . S
O1161 C1151 1.272 . S
O1161 Co1153 2.135 . S
Co1162 O1163 2.216 . S
Co1162 O1164 2.091 . S
Co1162 O1166 2.004 . S
Co1162 O1172 2.021 . S
Co1162 O1174 2.137 . S
Co1162 O1175 2.244 . S
O1163 Co1162 2.216 . S
O1163 C1170 1.247 . S
O1164 Co1162 2.091 . S
O1164 C1170 1.261 . S
C1165 O1174 1.247 . S
C1165 O1175 1.272 . S
O1166 Co1162 2.004 . S
O1166 C1171 1.259 . S
Co1167 O1168 2.061 . S
Co1167 O1173 2.052 . S
Co1167 O1175 2.135 . S
O1168 Co1167 2.061 . S
O1168 C1171 1.235 . S
C1169 O1172 1.238 . S
C1169 O1173 1.241 . S
C1170 O1163 1.247 . S
C1170 O1164 1.261 . S
C1171 O1166 1.259 . S
C1171 O1168 1.235 . S
O1172 Co1162 2.021 . S
O1172 C1169 1.238 . S
O1173 Co1167 2.052 . S
O1173 C1169 1.241 . S
O1174 Co1162 2.137 . S
O1174 C1165 1.247 . S
O1175 Co1162 2.244 . S
O1175 C1165 1.272 . S
O1175 Co1167 2.135 . S
Co1176 O1177 2.216 . S
Co1176 O1178 2.091 . S
Co1176 O1180 2.004 . S
Co1176 O1186 2.021 . S
Co1176 O1188 2.137 . S
Co1176 O1189 2.244 . S
O1177 Co1176 2.216 . S
O1177 C1184 1.247 . S
O1178 Co1176 2.091 . S
O1178 C1184 1.261 . S
C1179 O1188 1.247 . S
C1179 O1189 1.272 . S
O1180 Co1176 2.004 . S
O1180 C1185 1.259 . S
Co1181 O1182 2.061 . S
Co1181 O1187 2.052 . S
Co1181 O1189 2.135 . S
O1182 Co1181 2.061 . S
O1182 C1185 1.235 . S
C1183 O1186 1.238 . S
C1183 O1187 1.241 . S
C1184 O1177 1.247 . S
C1184 O1178 1.261 . S
C1185 O1180 1.259 . S
C1185 O1182 1.235 . S
O1186 Co1176 2.021 . S
O1186 C1183 1.238 . S
O1187 Co1181 2.052 . S
O1187 C1183 1.241 . S
O1188 Co1176 2.137 . S
O1188 C1179 1.247 . S
O1189 Co1176 2.244 . S
O1189 C1179 1.272 . S
O1189 Co1181 2.135 . S
Co1190 O1191 2.216 . S
Co1190 O1192 2.091 . S
Co1190 O1194 2.004 . S
Co1190 O1200 2.021 . S
Co1190 O1202 2.137 . S
Co1190 O1203 2.244 . S
O1191 Co1190 2.216 . S
O1191 C1198 1.247 . S
O1192 Co1190 2.091 . S
O1192 C1198 1.261 . S
C1193 O1202 1.247 . S
C1193 O1203 1.272 . S
O1194 Co1190 2.004 . S
O1194 C1199 1.259 . S
Co1195 O1196 2.061 . S
Co1195 O1201 2.052 . S
Co1195 O1203 2.135 . S
O1196 Co1195 2.061 . S
O1196 C1199 1.235 . S
C1197 O1200 1.238 . S
C1197 O1201 1.241 . S
C1198 O1191 1.247 . S
C1198 O1192 1.261 . S
C1199 O1194 1.259 . S
C1199 O1196 1.235 . S
O1200 Co1190 2.021 . S
O1200 C1197 1.238 . S
O1201 Co1195 2.052 . S
O1201 C1197 1.241 . S
O1202 Co1190 2.137 . S
O1202 C1193 1.247 . S
O1203 Co1190 2.244 . S
O1203 C1193 1.272 . S
O1203 Co1195 2.135 . S
Co1204 O1205 2.216 . S
Co1204 O1206 2.091 . S
Co1204 O1208 2.004 . S
Co1204 O1214 2.021 . S
Co1204 O1216 2.137 . S
Co1204 O1217 2.244 . S
O1205 Co1204 2.216 . S
O1205 C1212 1.247 . S
O1206 Co1204 2.091 . S
O1206 C1212 1.261 . S
C1207 O1216 1.247 . S
C1207 O1217 1.272 . S
O1208 Co1204 2.004 . S
O1208 C1213 1.259 . S
Co1209 O1210 2.061 . S
Co1209 O1215 2.052 . S
Co1209 O1217 2.135 . S
O1210 Co1209 2.061 . S
O1210 C1213 1.235 . S
C1211 O1214 1.238 . S
C1211 O1215 1.241 . S
C1212 O1205 1.247 . S
C1212 O1206 1.261 . S
C1213 O1208 1.259 . S
C1213 O1210 1.235 . S
O1214 Co1204 2.021 . S
O1214 C1211 1.238 . S
O1215 Co1209 2.052 . S
O1215 C1211 1.241 . S
O1216 Co1204 2.137 . S
O1216 C1207 1.247 . S
O1217 Co1204 2.244 . S
O1217 C1207 1.272 . S
O1217 Co1209 2.135 . S
Co1218 O1219 2.216 . S
Co1218 O1220 2.091 . S
Co1218 O1222 2.004 . S
Co1218 O1228 2.021 . S
Co1218 O1230 2.137 . S
Co1218 O1231 2.244 . S
O1219 Co1218 2.216 . S
O1219 C1226 1.247 . S
O1220 Co1218 2.091 . S
O1220 C1226 1.261 . S
C1221 O1230 1.247 . S
C1221 O1231 1.272 . S
O1222 Co1218 2.004 . S
O1222 C1227 1.259 . S
Co1223 O1224 2.061 . S
Co1223 O1229 2.052 . S
Co1223 O1231 2.135 . S
O1224 Co1223 2.061 . S
O1224 C1227 1.235 . S
C1225 O1228 1.238 . S
C1225 O1229 1.241 . S
C1226 O1219 1.247 . S
C1226 O1220 1.261 . S
C1227 O1222 1.259 . S
C1227 O1224 1.235 . S
O1228 Co1218 2.021 . S
O1228 C1225 1.238 . S
O1229 Co1223 2.052 . S
O1229 C1225 1.241 . S
O1230 Co1218 2.137 . S
O1230 C1221 1.247 . S
O1231 Co1218 2.244 . S
O1231 C1221 1.272 . S
O1231 Co1223 2.135 . S
Co1232 O1233 2.216 . S
Co1232 O1234 2.091 . S
Co1232 O1236 2.004 . S
Co1232 O1242 2.021 . S
Co1232 O1244 2.137 . S
Co1232 O1245 2.244 . S
O1233 Co1232 2.216 . S
O1233 C1240 1.247 . S
O1234 Co1232 2.091 . S
O1234 C1240 1.261 . S
C1235 O1244 1.247 . S
C1235 O1245 1.272 . S
O1236 Co1232 2.004 . S
O1236 C1241 1.259 . S
Co1237 O1238 2.061 . S
Co1237 O1243 2.052 . S
Co1237 O1245 2.135 . S
O1238 Co1237 2.061 . S
O1238 C1241 1.235 . S
C1239 O1242 1.238 . S
C1239 O1243 1.241 . S
C1240 O1233 1.247 . S
C1240 O1234 1.261 . S
C1241 O1236 1.259 . S
C1241 O1238 1.235 . S
O1242 Co1232 2.021 . S
O1242 C1239 1.238 . S
O1243 Co1237 2.052 . S
O1243 C1239 1.241 . S
O1244 Co1232 2.137 . S
O1244 C1235 1.247 . S
O1245 Co1232 2.244 . S
O1245 C1235 1.272 . S
O1245 Co1237 2.135 . S
Co1246 O1247 2.216 . S
Co1246 O1248 2.091 . S
Co1246 O1250 2.004 . S
Co1246 O1256 2.021 . S
Co1246 O1258 2.137 . S
Co1246 O1259 2.244 . S
O1247 Co1246 2.216 . S
O1247 C1254 1.247 . S
O1248 Co1246 2.091 . S
O1248 C1254 1.261 . S
C1249 O1258 1.247 . S
C1249 O1259 1.272 . S
O1250 Co1246 2.004 . S
O1250 C1255 1.259 . S
Co1251 O1252 2.061 . S
Co1251 O1257 2.052 . S
Co1251 O1259 2.135 . S
O1252 Co1251 2.061 . S
O1252 C1255 1.235 . S
C1253 O1256 1.238 . S
C1253 O1257 1.241 . S
C1254 O1247 1.247 . S
C1254 O1248 1.261 . S
C1255 O1250 1.259 . S
C1255 O1252 1.235 . S
O1256 Co1246 2.021 . S
O1256 C1253 1.238 . S
O1257 Co1251 2.052 . S
O1257 C1253 1.241 . S
O1258 Co1246 2.137 . S
O1258 C1249 1.247 . S
O1259 Co1246 2.244 . S
O1259 C1249 1.272 . S
O1259 Co1251 2.135 . S
Co1260 O1261 2.216 . S
Co1260 O1262 2.091 . S
Co1260 O1264 2.004 . S
Co1260 O1270 2.021 . S
Co1260 O1272 2.137 . S
Co1260 O1273 2.244 . S
O1261 Co1260 2.216 . S
O1261 C1268 1.247 . S
O1262 Co1260 2.091 . S
O1262 C1268 1.261 . S
C1263 O1272 1.247 . S
C1263 O1273 1.272 . S
O1264 Co1260 2.004 . S
O1264 C1269 1.259 . S
Co1265 O1266 2.061 . S
Co1265 O1271 2.052 . S
Co1265 O1273 2.135 . S
O1266 Co1265 2.061 . S
O1266 C1269 1.235 . S
C1267 O1270 1.238 . S
C1267 O1271 1.241 . S
C1268 O1261 1.247 . S
C1268 O1262 1.261 . S
C1269 O1264 1.259 . S
C1269 O1266 1.235 . S
O1270 Co1260 2.021 . S
O1270 C1267 1.238 . S
O1271 Co1265 2.052 . S
O1271 C1267 1.241 . S
O1272 Co1260 2.137 . S
O1272 C1263 1.247 . S
O1273 Co1260 2.244 . S
O1273 C1263 1.272 . S
O1273 Co1265 2.135 . S
Co1274 O1275 2.216 . S
Co1274 O1276 2.091 . S
Co1274 O1278 2.004 . S
Co1274 O1284 2.021 . S
Co1274 O1286 2.137 . S
Co1274 O1287 2.244 . S
O1275 Co1274 2.216 . S
O1275 C1282 1.247 . S
O1276 Co1274 2.091 . S
O1276 C1282 1.261 . S
C1277 O1286 1.247 . S
C1277 O1287 1.272 . S
O1278 Co1274 2.004 . S
O1278 C1283 1.259 . S
Co1279 O1280 2.061 . S
Co1279 O1285 2.052 . S
Co1279 O1287 2.135 . S
O1280 Co1279 2.061 . S
O1280 C1283 1.235 . S
C1281 O1284 1.238 . S
C1281 O1285 1.241 . S
C1282 O1275 1.247 . S
C1282 O1276 1.261 . S
C1283 O1278 1.259 . S
C1283 O1280 1.235 . S
O1284 Co1274 2.021 . S
O1284 C1281 1.238 . S
O1285 Co1279 2.052 . S
O1285 C1281 1.241 . S
O1286 Co1274 2.137 . S
O1286 C1277 1.247 . S
O1287 Co1274 2.244 . S
O1287 C1277 1.272 . S
O1287 Co1279 2.135 . S
Co1288 O1289 2.216 . S
Co1288 O1290 2.091 . S
Co1288 O1292 2.004 . S
Co1288 O1298 2.021 . S
Co1288 O1300 2.137 . S
Co1288 O1301 2.244 . S
O1289 Co1288 2.216 . S
O1289 C1296 1.247 . S
O1290 Co1288 2.091 . S
O1290 C1296 1.261 . S
C1291 O1300 1.247 . S
C1291 O1301 1.272 . S
O1292 Co1288 2.004 . S
O1292 C1297 1.259 . S
Co1293 O1294 2.061 . S
Co1293 O1299 2.052 . S
Co1293 O1301 2.135 . S
O1294 Co1293 2.061 . S
O1294 C1297 1.235 . S
C1295 O1298 1.238 . S
C1295 O1299 1.241 . S
C1296 O1289 1.247 . S
C1296 O1290 1.261 . S
C1297 O1292 1.259 . S
C1297 O1294 1.235 . S
O1298 Co1288 2.021 . S
O1298 C1295 1.238 . S
O1299 Co1293 2.052 . S
O1299 C1295 1.241 . S
O1300 Co1288 2.137 . S
O1300 C1291 1.247 . S
O1301 Co1288 2.244 . S
O1301 C1291 1.272 . S
O1301 Co1293 2.135 . S
Co1302 O1303 2.216 . S
Co1302 O1304 2.091 . S
Co1302 O1306 2.004 . S
Co1302 O1312 2.021 . S
Co1302 O1314 2.137 . S
Co1302 O1315 2.244 . S
O1303 Co1302 2.216 . S
O1303 C1310 1.247 . S
O1304 Co1302 2.091 . S
O1304 C1310 1.261 . S
C1305 O1314 1.247 . S
C1305 O1315 1.272 . S
O1306 Co1302 2.004 . S
O1306 C1311 1.259 . S
Co1307 O1308 2.061 . S
Co1307 O1313 2.052 . S
Co1307 O1315 2.135 . S
O1308 Co1307 2.061 . S
O1308 C1311 1.235 . S
C1309 O1312 1.238 . S
C1309 O1313 1.241 . S
C1310 O1303 1.247 . S
C1310 O1304 1.261 . S
C1311 O1306 1.259 . S
C1311 O1308 1.235 . S
O1312 Co1302 2.021 . S
O1312 C1309 1.238 . S
O1313 Co1307 2.052 . S
O1313 C1309 1.241 . S
O1314 Co1302 2.137 . S
O1314 C1305 1.247 . S
O1315 Co1302 2.244 . S
O1315 C1305 1.272 . S
O1315 Co1307 2.135 . S
Co1316 O1317 2.216 . S
Co1316 O1318 2.091 . S
Co1316 O1320 2.004 . S
Co1316 O1326 2.021 . S
Co1316 O1328 2.137 . S
Co1316 O1329 2.244 . S
O1317 Co1316 2.216 . S
O1317 C1324 1.247 . S
O1318 Co1316 2.091 . S
O1318 C1324 1.261 . S
C1319 O1328 1.247 . S
C1319 O1329 1.272 . S
O1320 Co1316 2.004 . S
O1320 C1325 1.259 . S
Co1321 O1322 2.061 . S
Co1321 O1327 2.052 . S
Co1321 O1329 2.135 . S
O1322 Co1321 2.061 . S
O1322 C1325 1.235 . S
C1323 O1326 1.238 . S
C1323 O1327 1.241 . S
C1324 O1317 1.247 . S
C1324 O1318 1.261 . S
C1325 O1320 1.259 . S
C1325 O1322 1.235 . S
O1326 Co1316 2.021 . S
O1326 C1323 1.238 . S
O1327 Co1321 2.052 . S
O1327 C1323 1.241 . S
O1328 Co1316 2.137 . S
O1328 C1319 1.247 . S
O1329 Co1316 2.244 . S
O1329 C1319 1.272 . S
O1329 Co1321 2.135 . S
Co1330 O1331 2.216 . S
Co1330 O1332 2.091 . S
Co1330 O1334 2.004 . S
Co1330 O1340 2.021 . S
Co1330 O1342 2.137 . S
Co1330 O1343 2.244 . S
O1331 Co1330 2.216 . S
O1331 C1338 1.247 . S
O1332 Co1330 2.091 . S
O1332 C1338 1.261 . S
C1333 O1342 1.247 . S
C1333 O1343 1.272 . S
O1334 Co1330 2.004 . S
O1334 C1339 1.259 . S
Co1335 O1336 2.061 . S
Co1335 O1341 2.052 . S
Co1335 O1343 2.135 . S
O1336 Co1335 2.061 . S
O1336 C1339 1.235 . S
C1337 O1340 1.238 . S
C1337 O1341 1.241 . S
C1338 O1331 1.247 . S
C1338 O1332 1.261 . S
C1339 O1334 1.259 . S
C1339 O1336 1.235 . S
O1340 Co1330 2.021 . S
O1340 C1337 1.238 . S
O1341 Co1335 2.052 . S
O1341 C1337 1.241 . S
O1342 Co1330 2.137 . S
O1342 C1333 1.247 . S
O1343 Co1330 2.244 . S
O1343 C1333 1.272 . S
O1343 Co1335 2.135 . S
H1344 C1352 0.929 . S
H1345 C1354 0.930 . S
H1346 C1356 0.930 . S
H1347 C1359 0.929 . S
H1348 C1362 0.930 . S
H1349 C1364 0.960 . S
H1350 C1364 0.960 1_554 S
H1351 C1364 0.960 1_554 S
C1352 H1344 0.929 . S
C1352 C1353 1.377 . S
C1352 C1354 1.384 . S
C1353 C1352 1.377 . S
C1353 C1359 1.390 . S
C1354 H1345 0.930 . S
C1354 C1352 1.384 . S
C1354 C1355 1.372 . S
C1355 C1354 1.372 . S
C1355 C1356 1.400 . S
C1355 C1360 1.490 . S
C1356 H1346 0.930 . S
C1356 C1355 1.400 . S
C1356 C1359 1.386 . S
H1357 C1373 0.930 . S
H1358 C1374 0.931 . S
C1359 H1347 0.929 . S
C1359 C1353 1.390 . S
C1359 C1356 1.386 . S
C1360 C1355 1.490 . S
C1360 C1362 1.395 1_455 S
C1360 C1363 1.369 1_554 S
H1361 C1367 0.930 . S
C1362 H1348 0.930 . S
C1362 C1360 1.395 1_655 S
C1362 C1365 1.403 . S
C1363 C1360 1.369 1_556 S
C1363 C1364 1.529 . S
C1363 C1367 1.430 . S
C1364 H1349 0.960 . S
C1364 H1350 0.960 1_556 S
C1364 H1351 0.960 1_556 S
C1364 C1363 1.529 . S
C1365 C1362 1.403 . S
C1365 C1366 1.392 1_554 S
C1365 C1369 1.495 . S
C1366 C1365 1.392 1_556 S
C1366 C1367 1.385 1_655 S
C1366 C1368 1.478 . S
C1367 H1361 0.930 . S
C1367 C1363 1.430 . S
C1367 C1366 1.385 1_455 S
C1368 C1366 1.478 . S
C1368 C1370 1.381 . S
C1368 C1374 1.383 . S
C1369 C1365 1.495 . S
C1369 H1375 0.959 . S
C1369 H1376 0.953 1_554 S
C1369 H1377 0.937 1_554 S
C1370 C1368 1.381 . S
C1370 C1371 1.394 . S
C1370 H1378 0.930 . S
C1371 C1370 1.394 . S
C1371 C1372 1.383 . S
C1371 H1379 0.929 . S
C1372 C1371 1.383 . S
C1372 C1373 1.377 . S
C1373 H1357 0.930 . S
C1373 C1372 1.377 . S
C1373 C1374 1.379 . S
C1374 H1358 0.931 . S
C1374 C1368 1.383 . S
C1374 C1373 1.379 . S
H1375 C1369 0.959 . S
H1376 C1369 0.953 1_556 S
H1377 C1369 0.937 1_556 S
H1378 C1370 0.930 . S
H1379 C1371 0.929 . S
H1380 C1388 0.929 . S
H1381 C1390 0.930 . S
H1382 C1392 0.930 . S
H1383 C1395 0.929 . S
H1384 C1398 0.930 . S
H1385 C1400 0.960 . S
H1386 C1400 0.960 . S
H1387 C1400 0.960 . S
C1388 H1380 0.929 . S
C1388 C1389 1.377 . S
C1388 C1390 1.384 . S
C1389 C1388 1.377 . S
C1389 C1395 1.390 . S
C1390 H1381 0.930 . S
C1390 C1388 1.384 . S
C1390 C1391 1.372 . S
C1391 C1390 1.372 . S
C1391 C1392 1.400 . S
C1391 C1396 1.490 . S
C1392 H1382 0.930 . S
C1392 C1391 1.400 . S
C1392 C1395 1.386 . S
H1393 C1409 0.930 . S
H1394 C1410 0.931 . S
C1395 H1383 0.929 . S
C1395 C1389 1.390 . S
C1395 C1392 1.386 . S
C1396 C1391 1.490 . S
C1396 C1398 1.395 . S
C1396 C1399 1.403 . S
H1397 C1403 0.930 . S
C1398 H1384 0.930 . S
C1398 C1396 1.395 . S
C1398 C1401 1.403 . S
C1399 C1396 1.403 . S
C1399 C1400 1.524 . S
C1399 C1403 1.400 . S
C1400 H1385 0.960 . S
C1400 H1386 0.960 . S
C1400 H1387 0.960 . S
C1400 C1399 1.524 . S
C1401 C1398 1.403 . S
C1401 C1402 1.392 . S
C1401 C1405 1.495 . S
C1402 C1401 1.392 . S
C1402 C1403 1.385 . S
C1402 C1404 1.478 . S
C1403 H1397 0.930 . S
C1403 C1399 1.400 . S
C1403 C1402 1.385 . S
C1404 C1402 1.478 . S
C1404 C1406 1.381 . S
C1404 C1410 1.383 . S
C1405 C1401 1.495 . S
C1405 H1411 0.959 . S
C1405 H1412 0.961 . S
C1405 H1413 0.960 . S
C1406 C1404 1.381 . S
C1406 C1407 1.394 . S
C1406 H1414 0.930 . S
C1407 C1406 1.394 . S
C1407 C1408 1.383 . S
C1407 H1415 0.929 . S
C1408 C1407 1.383 . S
C1408 C1409 1.377 . S
C1409 H1393 0.930 . S
C1409 C1408 1.377 . S
C1409 C1410 1.379 . S
C1410 H1394 0.931 . S
C1410 C1404 1.383 . S
C1410 C1409 1.379 . S
H1411 C1405 0.959 . S
H1412 C1405 0.961 . S
H1413 C1405 0.960 . S
H1414 C1406 0.930 . S
H1415 C1407 0.929 . S
H1416 C1424 0.929 . S
H1417 C1426 0.930 . S
H1418 C1428 1.007 . S
H1419 C1431 0.929 . S
H1420 C1434 0.930 . S
H1421 C1436 0.960 . S
H1422 C1436 0.960 . S
H1423 C1436 0.960 . S
C1424 H1416 0.929 . S
C1424 C1425 1.377 . S
C1424 C1426 1.384 . S
C1425 C1424 1.377 . S
C1425 C1431 1.390 . S
C1426 H1417 0.930 . S
C1426 C1424 1.384 . S
C1426 C1427 1.372 . S
C1427 C1426 1.372 . S
C1427 C1428 1.400 . S
C1427 C1432 1.490 . S
C1428 H1418 1.007 . S
C1428 C1427 1.400 . S
C1428 C1431 1.386 . S
H1429 C1445 0.930 . S
H1430 C1446 0.931 . S
C1431 H1419 0.929 . S
C1431 C1425 1.390 . S
C1431 C1428 1.386 . S
C1432 C1427 1.490 . S
C1432 C1434 1.395 . S
C1432 C1435 1.403 1_655 S
H1433 C1439 0.930 . S
C1434 H1420 0.930 . S
C1434 C1432 1.395 . S
C1434 C1437 1.403 . S
C1435 C1432 1.403 1_455 S
C1435 C1436 1.524 . S
C1435 C1439 1.400 . S
C1436 H1421 0.960 . S
C1436 H1422 0.960 . S
C1436 H1423 0.960 . S
C1436 C1435 1.524 . S
C1437 C1434 1.403 . S
C1437 C1438 1.392 1_655 S
C1437 C1441 1.495 . S
C1438 C1437 1.392 1_455 S
C1438 C1439 1.385 . S
C1438 C1440 1.478 . S
C1439 H1433 0.930 . S
C1439 C1435 1.400 . S
C1439 C1438 1.385 . S
C1440 C1438 1.478 . S
C1440 C1442 1.381 . S
C1440 C1446 1.383 . S
C1441 C1437 1.495 . S
C1441 H1447 0.959 . S
C1441 H1448 0.961 . S
C1441 H1449 0.960 . S
C1442 C1440 1.381 . S
C1442 C1443 1.394 . S
C1442 H1450 0.941 . S
C1443 C1442 1.394 . S
C1443 C1444 1.383 . S
C1443 H1451 0.929 . S
C1444 C1443 1.383 . S
C1444 C1445 1.377 . S
C1445 H1429 0.930 . S
C1445 C1444 1.377 . S
C1445 C1446 1.379 . S
C1446 H1430 0.931 . S
C1446 C1440 1.383 . S
C1446 C1445 1.379 . S
H1447 C1441 0.959 . S
H1448 C1441 0.961 . S
H1449 C1441 0.960 . S
H1450 C1442 0.941 . S
H1451 C1443 0.929 . S
H1452 C1460 0.929 . S
H1453 C1462 0.930 . S
H1454 C1464 0.930 . S
H1455 C1467 0.929 . S
H1456 C1470 0.930 . S
H1457 C1472 0.960 . S
H1458 C1472 0.960 . S
H1459 C1472 0.960 . S
C1460 H1452 0.929 . S
C1460 C1461 1.377 . S
C1460 C1462 1.384 . S
C1461 C1460 1.377 . S
C1461 C1467 1.390 . S
C1462 H1453 0.930 . S
C1462 C1460 1.384 . S
C1462 C1463 1.372 . S
C1463 C1462 1.372 . S
C1463 C1464 1.400 . S
C1463 C1468 1.490 . S
C1464 H1454 0.930 . S
C1464 C1463 1.400 . S
C1464 C1467 1.386 . S
H1465 C1481 0.930 . S
H1466 C1482 0.931 . S
C1467 H1455 0.929 . S
C1467 C1461 1.390 . S
C1467 C1464 1.386 . S
C1468 C1463 1.490 . S
C1468 C1470 1.395 . S
C1468 C1471 1.403 . S
H1469 C1475 0.930 . S
C1470 H1456 0.930 . S
C1470 C1468 1.395 . S
C1470 C1473 1.403 . S
C1471 C1468 1.403 . S
C1471 C1472 1.524 . S
C1471 C1475 1.400 . S
C1472 H1457 0.960 . S
C1472 H1458 0.960 . S
C1472 H1459 0.960 . S
C1472 C1471 1.524 . S
C1473 C1470 1.403 . S
C1473 C1474 1.392 . S
C1473 C1477 1.495 . S
C1474 C1473 1.392 . S
C1474 C1475 1.385 . S
C1474 C1476 1.478 . S
C1475 H1469 0.930 . S
C1475 C1471 1.400 . S
C1475 C1474 1.385 . S
C1476 C1474 1.478 . S
C1476 C1478 1.381 . S
C1476 C1482 1.383 . S
C1477 C1473 1.495 . S
C1477 H1483 0.959 . S
C1477 H1484 0.961 . S
C1477 H1485 0.960 . S
C1478 C1476 1.381 . S
C1478 C1479 1.394 . S
C1478 H1486 0.930 . S
C1479 C1478 1.394 . S
C1479 C1480 1.383 . S
C1479 H1487 0.929 . S
C1480 C1479 1.383 . S
C1480 C1481 1.377 . S
C1481 H1465 0.930 . S
C1481 C1480 1.377 . S
C1481 C1482 1.379 . S
C1482 H1466 0.931 . S
C1482 C1476 1.383 . S
C1482 C1481 1.379 . S
H1483 C1477 0.959 . S
H1484 C1477 0.961 . S
H1485 C1477 0.960 . S
H1486 C1478 0.930 . S
H1487 C1479 0.929 . S
H1488 C1496 0.929 . S
H1489 C1498 0.930 . S
H1490 C1500 0.930 . S
H1491 C1503 0.929 . S
H1492 C1506 0.930 . S
H1493 C1508 0.960 . S
H1494 C1508 0.960 1_554 S
H1495 C1508 0.960 1_554 S
C1496 H1488 0.929 . S
C1496 C1497 1.377 . S
C1496 C1498 1.384 . S
C1497 C1496 1.377 . S
C1497 C1503 1.390 . S
C1498 H1489 0.930 . S
C1498 C1496 1.384 . S
C1498 C1499 1.372 . S
C1499 C1498 1.372 . S
C1499 C1500 1.400 . S
C1499 C1504 1.490 . S
C1500 H1490 0.930 . S
C1500 C1499 1.400 . S
C1500 C1503 1.386 . S
H1501 C1517 0.930 . S
H1502 C1518 0.931 . S
C1503 H1491 0.929 . S
C1503 C1497 1.390 . S
C1503 C1500 1.386 . S
C1504 C1499 1.490 . S
C1504 C1506 1.395 1_655 S
C1504 C1507 1.408 . S
H1505 C1511 0.930 . S
C1506 H1492 0.930 . S
C1506 C1504 1.395 1_455 S
C1506 C1509 1.403 . S
C1507 C1504 1.408 . S
C1507 C1508 1.523 1_554 S
C1507 C1511 1.395 1_554 S
C1508 H1493 0.960 . S
C1508 H1494 0.960 1_556 S
C1508 H1495 0.960 1_556 S
C1508 C1507 1.523 1_556 S
C1509 C1506 1.403 . S
C1509 C1510 1.392 1_554 S
C1509 C1513 1.495 . S
C1510 C1509 1.392 1_556 S
C1510 C1511 1.385 1_455 S
C1510 C1512 1.478 . S
C1511 H1505 0.930 . S
C1511 C1507 1.395 1_556 S
C1511 C1510 1.385 1_655 S
C1512 C1510 1.478 . S
C1512 C1514 1.381 . S
C1512 C1518 1.383 . S
C1513 C1509 1.495 . S
C1513 H1519 0.959 . S
C1513 H1520 0.961 1_554 S
C1513 H1521 0.956 1_554 S
C1514 C1512 1.381 . S
C1514 C1515 1.394 . S
C1514 H1522 0.930 . S
C1515 C1514 1.394 . S
C1515 C1516 1.383 . S
C1515 H1523 0.929 . S
C1516 C1515 1.383 . S
C1516 C1517 1.377 . S
C1517 H1501 0.930 . S
C1517 C1516 1.377 . S
C1517 C1518 1.379 . S
C1518 H1502 0.931 . S
C1518 C1512 1.383 . S
C1518 C1517 1.379 . S
H1519 C1513 0.959 . S
H1520 C1513 0.961 1_556 S
H1521 C1513 0.956 1_556 S
H1522 C1514 0.930 . S
H1523 C1515 0.929 . S
H1524 C1532 0.929 . S
H1525 C1534 0.930 . S
H1526 C1536 0.930 . S
H1527 C1539 0.929 . S
H1528 C1542 0.930 . S
H1529 C1544 0.960 . S
H1530 C1544 0.960 . S
H1531 C1544 0.960 . S
C1532 H1524 0.929 . S
C1532 C1533 1.377 . S
C1532 C1534 1.384 . S
C1533 C1532 1.377 . S
C1533 C1539 1.390 . S
C1534 H1525 0.930 . S
C1534 C1532 1.384 . S
C1534 C1535 1.372 . S
C1535 C1534 1.372 . S
C1535 C1536 1.400 . S
C1535 C1540 1.490 . S
C1536 H1526 0.930 . S
C1536 C1535 1.400 . S
C1536 C1539 1.386 . S
H1537 C1553 0.930 . S
H1538 C1554 0.931 . S
C1539 H1527 0.929 . S
C1539 C1533 1.390 . S
C1539 C1536 1.386 . S
C1540 C1535 1.490 . S
C1540 C1542 1.395 . S
C1540 C1543 1.403 . S
H1541 C1547 0.930 . S
C1542 H1528 0.930 . S
C1542 C1540 1.395 . S
C1542 C1545 1.403 . S
C1543 C1540 1.403 . S
C1543 C1544 1.524 . S
C1543 C1547 1.400 . S
C1544 H1529 0.960 . S
C1544 H1530 0.960 . S
C1544 H1531 0.960 . S
C1544 C1543 1.524 . S
C1545 C1542 1.403 . S
C1545 C1546 1.392 . S
C1545 C1549 1.495 . S
C1546 C1545 1.392 . S
C1546 C1547 1.385 . S
C1546 C1548 1.478 . S
C1547 H1541 0.930 . S
C1547 C1543 1.400 . S
C1547 C1546 1.385 . S
C1548 C1546 1.478 . S
C1548 C1550 1.381 . S
C1548 C1554 1.383 . S
C1549 C1545 1.495 . S
C1549 H1555 0.959 . S
C1549 H1556 0.961 . S
C1549 H1557 0.960 . S
C1550 C1548 1.381 . S
C1550 C1551 1.394 . S
C1550 H1558 0.930 . S
C1551 C1550 1.394 . S
C1551 C1552 1.383 . S
C1551 H1559 0.929 . S
C1552 C1551 1.383 . S
C1552 C1553 1.377 . S
C1553 H1537 0.930 . S
C1553 C1552 1.377 . S
C1553 C1554 1.379 . S
C1554 H1538 0.931 . S
C1554 C1548 1.383 . S
C1554 C1553 1.379 . S
H1555 C1549 0.959 . S
H1556 C1549 0.961 . S
H1557 C1549 0.960 . S
H1558 C1550 0.930 . S
H1559 C1551 0.929 . S
H1560 C1568 0.929 . S
H1561 C1570 0.898 1_655 S
H1562 C1572 0.930 . S
H1563 C1575 0.929 . S
H1564 C1578 0.930 . S
H1565 C1580 0.960 . S
H1566 C1580 0.960 . S
H1567 C1580 0.960 . S
C1568 H1560 0.929 . S
C1568 C1569 1.377 . S
C1568 C1570 1.384 . S
C1569 C1568 1.377 . S
C1569 C1575 1.390 . S
C1570 H1561 0.898 1_455 S
C1570 C1568 1.384 . S
C1570 C1571 1.372 . S
C1571 C1570 1.372 . S
C1571 C1572 1.400 . S
C1571 C1576 1.490 . S
C1572 H1562 0.930 . S
C1572 C1571 1.400 . S
C1572 C1575 1.386 . S
H1573 C1589 0.930 . S
H1574 C1590 0.931 . S
C1575 H1563 0.929 . S
C1575 C1569 1.390 . S
C1575 C1572 1.386 . S
C1576 C1571 1.490 . S
C1576 C1578 1.395 1_455 S
C1576 C1579 1.403 . S
H1577 C1583 0.930 . S
C1578 H1564 0.930 . S
C1578 C1576 1.395 1_655 S
C1578 C1581 1.403 . S
C1579 C1576 1.403 . S
C1579 C1580 1.524 . S
C1579 C1583 1.400 . S
C1580 H1565 0.960 . S
C1580 H1566 0.960 . S
C1580 H1567 0.960 . S
C1580 C1579 1.524 . S
C1581 C1578 1.403 . S
C1581 C1582 1.392 . S
C1581 C1585 1.495 . S
C1582 C1581 1.392 . S
C1582 C1583 1.385 1_655 S
C1582 C1584 1.478 . S
C1583 H1577 0.930 . S
C1583 C1579 1.400 . S
C1583 C1582 1.385 1_455 S
C1584 C1582 1.478 . S
C1584 C1586 1.381 . S
C1584 C1590 1.383 . S
C1585 C1581 1.495 . S
C1585 H1591 0.959 . S
C1585 H1592 0.961 . S
C1585 H1593 0.960 . S
C1586 C1584 1.381 . S
C1586 C1587 1.394 . S
C1586 H1594 0.930 . S
C1587 C1586 1.394 . S
C1587 C1588 1.383 . S
C1587 H1595 0.929 . S
C1588 C1587 1.383 . S
C1588 C1589 1.377 . S
C1589 H1573 0.930 . S
C1589 C1588 1.377 . S
C1589 C1590 1.379 . S
C1590 H1574 0.931 . S
C1590 C1584 1.383 . S
C1590 C1589 1.379 . S
H1591 C1585 0.959 . S
H1592 C1585 0.961 . S
H1593 C1585 0.960 . S
H1594 C1586 0.930 . S
H1595 C1587 0.929 . S
H1596 C1604 0.929 . S
H1597 C1606 0.930 . S
H1598 C1608 0.930 . S
H1599 C1611 0.929 . S
H1600 C1614 0.930 . S
H1601 C1616 0.960 . S
H1602 C1616 0.960 . S
H1603 C1616 0.960 . S
C1604 H1596 0.929 . S
C1604 C1605 1.377 . S
C1604 C1606 1.384 . S
C1605 C1604 1.377 . S
C1605 C1611 1.390 . S
C1606 H1597 0.930 . S
C1606 C1604 1.384 . S
C1606 C1607 1.372 . S
C1607 C1606 1.372 . S
C1607 C1608 1.400 . S
C1607 C1612 1.490 . S
C1608 H1598 0.930 . S
C1608 C1607 1.400 . S
C1608 C1611 1.386 . S
H1609 C1625 0.930 . S
H1610 C1626 0.931 . S
C1611 H1599 0.929 . S
C1611 C1605 1.390 . S
C1611 C1608 1.386 . S
C1612 C1607 1.490 . S
C1612 C1614 1.395 . S
C1612 C1615 1.403 . S
H1613 C1619 0.930 . S
C1614 H1600 0.930 . S
C1614 C1612 1.395 . S
C1614 C1617 1.403 . S
C1615 C1612 1.403 . S
C1615 C1616 1.524 . S
C1615 C1619 1.400 . S
C1616 H1601 0.960 . S
C1616 H1602 0.960 . S
C1616 H1603 0.960 . S
C1616 C1615 1.524 . S
C1617 C1614 1.403 . S
C1617 C1618 1.392 . S
C1617 C1621 1.495 . S
C1618 C1617 1.392 . S
C1618 C1619 1.385 . S
C1618 C1620 1.478 . S
C1619 H1613 0.930 . S
C1619 C1615 1.400 . S
C1619 C1618 1.385 . S
C1620 C1618 1.478 . S
C1620 C1622 1.381 . S
C1620 C1626 1.383 . S
C1621 C1617 1.495 . S
C1621 H1627 0.959 . S
C1621 H1628 0.961 . S
C1621 H1629 0.960 . S
C1622 C1620 1.381 . S
C1622 C1623 1.394 . S
C1622 H1630 0.930 . S
C1623 C1622 1.394 . S
C1623 C1624 1.383 . S
C1623 H1631 0.929 . S
C1624 C1623 1.383 . S
C1624 C1625 1.377 . S
C1625 H1609 0.930 . S
C1625 C1624 1.377 . S
C1625 C1626 1.379 . S
C1626 H1610 0.931 . S
C1626 C1620 1.383 . S
C1626 C1625 1.379 . S
H1627 C1621 0.959 . S
H1628 C1621 0.961 . S
H1629 C1621 0.960 . S
H1630 C1622 0.930 . S
H1631 C1623 0.929 . S
H1632 C1640 0.929 . S
H1633 C1642 0.930 . S
H1634 C1644 0.930 . S
H1635 C1647 0.929 . S
H1636 C1650 0.930 . S
H1637 C1652 0.960 . S
H1638 C1652 0.944 1_655 S
H1639 C1652 0.960 1_655 S
C1640 H1632 0.929 . S
C1640 C1641 1.377 . S
C1640 C1642 1.384 . S
C1641 C1640 1.377 . S
C1641 C1647 1.390 . S
C1642 H1633 0.930 . S
C1642 C1640 1.384 . S
C1642 C1643 1.372 . S
C1643 C1642 1.372 . S
C1643 C1644 1.400 . S
C1643 C1648 1.490 . S
C1644 H1634 0.930 . S
C1644 C1643 1.400 . S
C1644 C1647 1.386 . S
H1645 C1661 0.930 . S
H1646 C1662 0.931 . S
C1647 H1635 0.929 . S
C1647 C1641 1.390 . S
C1647 C1644 1.386 . S
C1648 C1643 1.490 . S
C1648 C1650 1.395 1_565 S
C1648 C1651 1.372 1_655 S
H1649 C1655 0.930 . S
C1650 H1636 0.930 . S
C1650 C1648 1.395 1_545 S
C1650 C1653 1.403 . S
C1651 C1648 1.372 1_455 S
C1651 C1652 1.529 . S
C1651 C1655 1.427 . S
C1652 H1637 0.960 . S
C1652 H1638 0.944 1_455 S
C1652 H1639 0.960 1_455 S
C1652 C1651 1.529 . S
C1653 C1650 1.403 . S
C1653 C1654 1.392 1_655 S
C1653 C1657 1.495 . S
C1654 C1653 1.392 1_455 S
C1654 C1655 1.385 1_545 S
C1654 C1656 1.478 . S
C1655 H1649 0.930 . S
C1655 C1651 1.427 . S
C1655 C1654 1.385 1_565 S
C1656 C1654 1.478 . S
C1656 C1658 1.381 . S
C1656 C1662 1.383 . S
C1657 C1653 1.495 . S
C1657 H1663 0.959 . S
C1657 H1664 0.964 . S
C1657 H1665 0.960 1_655 S
C1658 C1656 1.381 . S
C1658 C1659 1.394 . S
C1658 H1666 0.930 . S
C1659 C1658 1.394 . S
C1659 C1660 1.383 . S
C1659 H1667 0.929 . S
C1660 C1659 1.383 . S
C1660 C1661 1.377 . S
C1661 H1645 0.930 . S
C1661 C1660 1.377 . S
C1661 C1662 1.379 . S
C1662 H1646 0.931 . S
C1662 C1656 1.383 . S
C1662 C1661 1.379 . S
H1663 C1657 0.959 . S
H1664 C1657 0.964 . S
H1665 C1657 0.960 1_455 S
H1666 C1658 0.930 . S
H1667 C1659 0.929 . S
H1668 C1676 0.929 . S
H1669 C1678 0.930 . S
H1670 C1680 0.930 . S
H1671 C1683 0.929 . S
H1672 C1686 0.930 . S
H1673 C1688 0.960 . S
H1674 C1688 0.960 . S
H1675 C1688 0.960 . S
C1676 H1668 0.929 . S
C1676 C1677 1.377 . S
C1676 C1678 1.384 . S
C1677 C1676 1.377 . S
C1677 C1683 1.390 . S
C1678 H1669 0.930 . S
C1678 C1676 1.384 . S
C1678 C1679 1.372 . S
C1679 C1678 1.372 . S
C1679 C1680 1.400 . S
C1679 C1684 1.490 . S
C1680 H1670 0.930 . S
C1680 C1679 1.400 . S
C1680 C1683 1.386 . S
H1681 C1697 0.930 . S
H1682 C1698 0.931 . S
C1683 H1671 0.929 . S
C1683 C1677 1.390 . S
C1683 C1680 1.386 . S
C1684 C1679 1.490 . S
C1684 C1686 1.395 . S
C1684 C1687 1.403 . S
H1685 C1691 0.930 . S
C1686 H1672 0.930 . S
C1686 C1684 1.395 . S
C1686 C1689 1.403 . S
C1687 C1684 1.403 . S
C1687 C1688 1.524 . S
C1687 C1691 1.400 . S
C1688 H1673 0.960 . S
C1688 H1674 0.960 . S
C1688 H1675 0.960 . S
C1688 C1687 1.524 . S
C1689 C1686 1.403 . S
C1689 C1690 1.392 . S
C1689 C1693 1.495 . S
C1690 C1689 1.392 . S
C1690 C1691 1.385 . S
C1690 C1692 1.478 . S
C1691 H1685 0.930 . S
C1691 C1687 1.400 . S
C1691 C1690 1.385 . S
C1692 C1690 1.478 . S
C1692 C1694 1.381 . S
C1692 C1698 1.383 . S
C1693 C1689 1.495 . S
C1693 H1699 0.959 . S
C1693 H1700 0.961 . S
C1693 H1701 0.960 . S
C1694 C1692 1.381 . S
C1694 C1695 1.394 . S
C1694 H1702 0.930 . S
C1695 C1694 1.394 . S
C1695 C1696 1.383 . S
C1695 H1703 0.929 . S
C1696 C1695 1.383 . S
C1696 C1697 1.377 . S
C1697 H1681 0.930 . S
C1697 C1696 1.377 . S
C1697 C1698 1.379 . S
C1698 H1682 0.931 . S
C1698 C1692 1.383 . S
C1698 C1697 1.379 . S
H1699 C1693 0.959 . S
H1700 C1693 0.961 . S
H1701 C1693 0.960 . S
H1702 C1694 0.930 . S
H1703 C1695 0.929 . S
H1704 C1712 0.929 . S
H1705 C1714 0.930 . S
H1706 C1716 0.930 . S
H1707 C1719 0.929 . S
H1708 C1722 0.929 1_655 S
H1709 C1724 0.960 . S
H1710 C1724 0.960 . S
H1711 C1724 0.960 . S
C1712 H1704 0.929 . S
C1712 C1713 1.377 . S
C1712 C1714 1.384 . S
C1713 C1712 1.377 . S
C1713 C1719 1.390 . S
C1714 H1705 0.930 . S
C1714 C1712 1.384 . S
C1714 C1715 1.372 . S
C1715 C1714 1.372 . S
C1715 C1716 1.400 . S
C1715 C1720 1.490 . S
C1716 H1706 0.930 . S
C1716 C1715 1.400 . S
C1716 C1719 1.386 . S
H1717 C1733 0.930 . S
H1718 C1734 0.931 . S
C1719 H1707 0.929 . S
C1719 C1713 1.390 . S
C1719 C1716 1.386 . S
C1720 C1715 1.490 . S
C1720 C1722 1.367 1_655 S
C1720 C1723 1.403 . S
H1721 C1727 0.930 . S
C1722 H1708 0.929 1_455 S
C1722 C1720 1.367 1_455 S
C1722 C1725 1.432 . S
C1723 C1720 1.403 . S
C1723 C1724 1.524 . S
C1723 C1727 1.400 1_655 S
C1724 H1709 0.960 . S
C1724 H1710 0.960 . S
C1724 H1711 0.960 . S
C1724 C1723 1.524 . S
C1725 C1722 1.432 . S
C1725 C1726 1.392 . S
C1725 C1729 1.495 . S
C1726 C1725 1.392 . S
C1726 C1727 1.385 . S
C1726 C1728 1.478 . S
C1727 H1721 0.930 . S
C1727 C1723 1.400 1_455 S
C1727 C1726 1.385 . S
C1728 C1726 1.478 . S
C1728 C1730 1.381 . S
C1728 C1734 1.383 . S
C1729 C1725 1.495 . S
C1729 H1735 0.959 . S
C1729 H1736 0.961 . S
C1729 H1737 0.960 . S
C1730 C1728 1.381 . S
C1730 C1731 1.394 . S
C1730 H1738 0.930 . S
C1731 C1730 1.394 . S
C1731 C1732 1.383 . S
C1731 H1739 0.929 . S
C1732 C1731 1.383 . S
C1732 C1733 1.377 . S
C1733 H1717 0.930 . S
C1733 C1732 1.377 . S
C1733 C1734 1.379 . S
C1734 H1718 0.931 . S
C1734 C1728 1.383 . S
C1734 C1733 1.379 . S
H1735 C1729 0.959 . S
H1736 C1729 0.961 . S
H1737 C1729 0.960 . S
H1738 C1730 0.930 . S
H1739 C1731 0.929 . S
H1740 C1748 0.929 . S
H1741 C1750 0.930 . S
H1742 C1752 0.930 . S
H1743 C1755 0.929 . S
H1744 C1758 0.930 . S
H1745 C1760 0.960 . S
H1746 C1760 0.960 . S
H1747 C1760 0.960 . S
C1748 H1740 0.929 . S
C1748 C1749 1.377 . S
C1748 C1750 1.384 . S
C1749 C1748 1.377 . S
C1749 C1755 1.390 . S
C1750 H1741 0.930 . S
C1750 C1748 1.384 . S
C1750 C1751 1.372 . S
C1751 C1750 1.372 . S
C1751 C1752 1.400 . S
C1751 C1756 1.490 . S
C1752 H1742 0.930 . S
C1752 C1751 1.400 . S
C1752 C1755 1.386 . S
H1753 C1769 0.930 . S
H1754 C1770 0.931 . S
C1755 H1743 0.929 . S
C1755 C1749 1.390 . S
C1755 C1752 1.386 . S
C1756 C1751 1.490 . S
C1756 C1758 1.395 . S
C1756 C1759 1.403 . S
H1757 C1763 0.930 . S
C1758 H1744 0.930 . S
C1758 C1756 1.395 . S
C1758 C1761 1.403 . S
C1759 C1756 1.403 . S
C1759 C1760 1.524 . S
C1759 C1763 1.400 . S
C1760 H1745 0.960 . S
C1760 H1746 0.960 . S
C1760 H1747 0.960 . S
C1760 C1759 1.524 . S
C1761 C1758 1.403 . S
C1761 C1762 1.392 . S
C1761 C1765 1.495 . S
C1762 C1761 1.392 . S
C1762 C1763 1.385 . S
C1762 C1764 1.478 . S
C1763 H1757 0.930 . S
C1763 C1759 1.400 . S
C1763 C1762 1.385 . S
C1764 C1762 1.478 . S
C1764 C1766 1.381 . S
C1764 C1770 1.383 . S
C1765 C1761 1.495 . S
C1765 H1771 0.959 . S
C1765 H1772 0.961 . S
C1765 H1773 0.960 . S
C1766 C1764 1.381 . S
C1766 C1767 1.394 . S
C1766 H1774 0.930 . S
C1767 C1766 1.394 . S
C1767 C1768 1.383 . S
C1767 H1775 0.929 . S
C1768 C1767 1.383 . S
C1768 C1769 1.377 . S
C1769 H1753 0.930 . S
C1769 C1768 1.377 . S
C1769 C1770 1.379 . S
C1770 H1754 0.931 . S
C1770 C1764 1.383 . S
C1770 C1769 1.379 . S
H1771 C1765 0.959 . S
H1772 C1765 0.961 . S
H1773 C1765 0.960 . S
H1774 C1766 0.930 . S
H1775 C1767 0.929 . S
H1776 C1784 0.929 . S
H1777 C1786 0.930 . S
H1778 C1788 0.930 . S
H1779 C1791 0.929 . S
H1780 C1794 0.929 1_455 S
H1781 C1796 0.960 . S
H1782 C1796 0.960 . S
H1783 C1796 0.960 . S
C1784 H1776 0.929 . S
C1784 C1785 1.377 . S
C1784 C1786 1.384 . S
C1785 C1784 1.377 . S
C1785 C1791 1.390 . S
C1786 H1777 0.930 . S
C1786 C1784 1.384 . S
C1786 C1787 1.372 . S
C1787 C1786 1.372 . S
C1787 C1788 1.400 . S
C1787 C1792 1.490 . S
C1788 H1778 0.930 . S
C1788 C1787 1.400 . S
C1788 C1791 1.386 . S
H1789 C1805 0.930 . S
H1790 C1806 0.931 . S
C1791 H1779 0.929 . S
C1791 C1785 1.390 . S
C1791 C1788 1.386 . S
C1792 C1787 1.490 . S
C1792 C1794 1.366 1_455 S
C1792 C1795 1.403 1_565 S
H1793 C1799 0.930 . S
C1794 H1780 0.929 1_655 S
C1794 C1792 1.366 1_655 S
C1794 C1797 1.434 . S
C1795 C1792 1.403 1_545 S
C1795 C1796 1.524 . S
C1795 C1799 1.400 1_455 S
C1796 H1781 0.960 . S
C1796 H1782 0.960 . S
C1796 H1783 0.960 . S
C1796 C1795 1.524 . S
C1797 C1794 1.434 . S
C1797 C1798 1.392 1_565 S
C1797 C1801 1.495 . S
C1798 C1797 1.392 1_545 S
C1798 C1799 1.385 . S
C1798 C1800 1.478 . S
C1799 H1793 0.930 . S
C1799 C1795 1.400 1_655 S
C1799 C1798 1.385 . S
C1800 C1798 1.478 . S
C1800 C1802 1.381 . S
C1800 C1806 1.383 . S
C1801 C1797 1.495 . S
C1801 H1807 0.959 . S
C1801 H1808 0.961 . S
C1801 H1809 0.960 . S
C1802 C1800 1.381 . S
C1802 C1803 1.394 . S
C1802 H1810 0.930 . S
C1803 C1802 1.394 . S
C1803 C1804 1.383 . S
C1803 H1811 0.929 . S
C1804 C1803 1.383 . S
C1804 C1805 1.377 . S
C1805 H1789 0.930 . S
C1805 C1804 1.377 . S
C1805 C1806 1.379 . S
C1806 H1790 0.931 . S
C1806 C1800 1.383 . S
C1806 C1805 1.379 . S
H1807 C1801 0.959 . S
H1808 C1801 0.961 . S
H1809 C1801 0.960 . S
H1810 C1802 0.930 . S
H1811 C1803 0.929 . S
H1812 C1820 0.929 . S
H1813 C1822 0.930 . S
H1814 C1824 0.930 . S
H1815 C1827 0.929 . S
H1816 C1830 0.930 . S
H1817 C1832 0.960 . S
H1818 C1832 0.960 . S
H1819 C1832 0.960 . S
C1820 H1812 0.929 . S
C1820 C1821 1.377 . S
C1820 C1822 1.384 . S
C1821 C1820 1.377 . S
C1821 C1827 1.390 . S
C1822 H1813 0.930 . S
C1822 C1820 1.384 . S
C1822 C1823 1.372 . S
C1823 C1822 1.372 . S
C1823 C1824 1.400 . S
C1823 C1828 1.490 . S
C1824 H1814 0.930 . S
C1824 C1823 1.400 . S
C1824 C1827 1.386 . S
H1825 C1841 0.930 . S
H1826 C1842 0.931 . S
C1827 H1815 0.929 . S
C1827 C1821 1.390 . S
C1827 C1824 1.386 . S
C1828 C1823 1.490 . S
C1828 C1830 1.395 . S
C1828 C1831 1.403 . S
H1829 C1835 0.930 . S
C1830 H1816 0.930 . S
C1830 C1828 1.395 . S
C1830 C1833 1.403 . S
C1831 C1828 1.403 . S
C1831 C1832 1.524 . S
C1831 C1835 1.400 . S
C1832 H1817 0.960 . S
C1832 H1818 0.960 . S
C1832 H1819 0.960 . S
C1832 C1831 1.524 . S
C1833 C1830 1.403 . S
C1833 C1834 1.392 . S
C1833 C1837 1.495 . S
C1834 C1833 1.392 . S
C1834 C1835 1.385 . S
C1834 C1836 1.478 . S
C1835 H1829 0.930 . S
C1835 C1831 1.400 . S
C1835 C1834 1.385 . S
C1836 C1834 1.478 . S
C1836 C1838 1.381 . S
C1836 C1842 1.383 . S
C1837 C1833 1.495 . S
C1837 H1843 0.959 . S
C1837 H1844 0.961 . S
C1837 H1845 0.960 . S
C1838 C1836 1.381 . S
C1838 C1839 1.394 . S
C1838 H1846 0.930 . S
C1839 C1838 1.394 . S
C1839 C1840 1.383 . S
C1839 H1847 0.929 . S
C1840 C1839 1.383 . S
C1840 C1841 1.377 . S
C1841 H1825 0.930 . S
C1841 C1840 1.377 . S
C1841 C1842 1.379 . S
C1842 H1826 0.931 . S
C1842 C1836 1.383 . S
C1842 C1841 1.379 . S
H1843 C1837 0.959 . S
H1844 C1837 0.961 . S
H1845 C1837 0.960 . S
H1846 C1838 0.930 . S
H1847 C1839 0.929 . S
H1848 C1856 0.929 . S
H1849 C1858 0.930 . S
H1850 C1860 0.930 . S
H1851 C1863 0.929 . S
H1852 C1866 0.930 . S
H1853 C1868 0.983 . S
H1854 C1868 0.960 . S
H1855 C1868 0.960 . S
C1856 H1848 0.929 . S
C1856 C1857 1.377 . S
C1856 C1858 1.384 . S
C1857 C1856 1.377 . S
C1857 C1863 1.390 . S
C1858 H1849 0.930 . S
C1858 C1856 1.384 . S
C1858 C1859 1.372 . S
C1859 C1858 1.372 . S
C1859 C1860 1.400 . S
C1859 C1864 1.490 . S
C1860 H1850 0.930 . S
C1860 C1859 1.400 . S
C1860 C1863 1.386 . S
H1861 C1877 0.930 . S
H1862 C1878 0.931 . S
C1863 H1851 0.929 . S
C1863 C1857 1.390 . S
C1863 C1860 1.386 . S
C1864 C1859 1.490 . S
C1864 C1866 1.395 . S
C1864 C1867 1.403 . S
H1865 C1871 0.930 . S
C1866 H1852 0.930 . S
C1866 C1864 1.395 . S
C1866 C1869 1.403 1_455 S
C1867 C1864 1.403 . S
C1867 C1868 1.524 . S
C1867 C1871 1.400 1_455 S
C1868 H1853 0.983 . S
C1868 H1854 0.960 . S
C1868 H1855 0.960 . S
C1868 C1867 1.524 . S
C1869 C1866 1.403 1_655 S
C1869 C1870 1.392 . S
C1869 C1873 1.495 . S
C1870 C1869 1.392 . S
C1870 C1871 1.385 . S
C1870 C1872 1.478 . S
C1871 H1865 0.930 . S
C1871 C1867 1.400 1_655 S
C1871 C1870 1.385 . S
C1872 C1870 1.478 . S
C1872 C1874 1.381 . S
C1872 C1878 1.383 . S
C1873 C1869 1.495 . S
C1873 H1879 0.935 1_655 S
C1873 H1880 0.961 . S
C1873 H1881 0.960 . S
C1874 C1872 1.381 . S
C1874 C1875 1.394 . S
C1874 H1882 0.930 . S
C1875 C1874 1.394 . S
C1875 C1876 1.383 . S
C1875 H1883 0.929 . S
C1876 C1875 1.383 . S
C1876 C1877 1.377 . S
C1877 H1861 0.930 . S
C1877 C1876 1.377 . S
C1877 C1878 1.379 . S
C1878 H1862 0.931 . S
C1878 C1872 1.383 . S
C1878 C1877 1.379 . S
H1879 C1873 0.935 1_455 S
H1880 C1873 0.961 . S
H1881 C1873 0.960 . S
H1882 C1874 0.930 . S
H1883 C1875 0.929 . S
H1884 C1892 0.929 . S
H1885 C1894 0.930 . S
H1886 C1896 0.930 . S
H1887 C1899 0.929 . S
H1888 C1902 0.930 . S
H1889 C1904 0.960 . S
H1890 C1904 0.960 . S
H1891 C1904 0.960 . S
C1892 H1884 0.929 . S
C1892 C1893 1.377 . S
C1892 C1894 1.384 . S
C1893 C1892 1.377 . S
C1893 C1899 1.390 . S
C1894 H1885 0.930 . S
C1894 C1892 1.384 . S
C1894 C1895 1.372 . S
C1895 C1894 1.372 . S
C1895 C1896 1.400 . S
C1895 C1900 1.490 . S
C1896 H1886 0.930 . S
C1896 C1895 1.400 . S
C1896 C1899 1.386 . S
H1897 C1913 0.930 . S
H1898 C1914 0.931 . S
C1899 H1887 0.929 . S
C1899 C1893 1.390 . S
C1899 C1896 1.386 . S
C1900 C1895 1.490 . S
C1900 C1902 1.395 . S
C1900 C1903 1.403 . S
H1901 C1907 0.930 . S
C1902 H1888 0.930 . S
C1902 C1900 1.395 . S
C1902 C1905 1.403 . S
C1903 C1900 1.403 . S
C1903 C1904 1.524 . S
C1903 C1907 1.400 . S
C1904 H1889 0.960 . S
C1904 H1890 0.960 . S
C1904 H1891 0.960 . S
C1904 C1903 1.524 . S
C1905 C1902 1.403 . S
C1905 C1906 1.392 . S
C1905 C1909 1.495 . S
C1906 C1905 1.392 . S
C1906 C1907 1.385 . S
C1906 C1908 1.478 . S
C1907 H1901 0.930 . S
C1907 C1903 1.400 . S
C1907 C1906 1.385 . S
C1908 C1906 1.478 . S
C1908 C1910 1.381 . S
C1908 C1914 1.383 . S
C1909 C1905 1.495 . S
C1909 H1915 0.959 . S
C1909 H1916 0.961 . S
C1909 H1917 0.960 . S
C1910 C1908 1.381 . S
C1910 C1911 1.394 . S
C1910 H1918 0.930 . S
C1911 C1910 1.394 . S
C1911 C1912 1.383 . S
C1911 H1919 0.929 . S
C1912 C1911 1.383 . S
C1912 C1913 1.377 . S
C1913 H1897 0.930 . S
C1913 C1912 1.377 . S
C1913 C1914 1.379 . S
C1914 H1898 0.931 . S
C1914 C1908 1.383 . S
C1914 C1913 1.379 . S
H1915 C1909 0.959 . S
H1916 C1909 0.961 . S
H1917 C1909 0.960 . S
H1918 C1910 0.930 . S
H1919 C1911 0.929 . S
H1920 C1928 0.929 . S
H1921 C1930 0.930 . S
H1922 C1932 0.930 . S
H1923 C1935 0.929 . S
H1924 C1938 0.930 . S
H1925 C1940 0.960 . S
H1926 C1940 0.960 . S
H1927 C1940 0.960 . S
C1928 H1920 0.929 . S
C1928 C1929 1.377 . S
C1928 C1930 1.384 . S
C1929 C1928 1.377 . S
C1929 C1935 1.390 . S
C1930 H1921 0.930 . S
C1930 C1928 1.384 . S
C1930 C1931 1.372 . S
C1931 C1930 1.372 . S
C1931 C1932 1.400 . S
C1931 C1936 1.490 . S
C1932 H1922 0.930 . S
C1932 C1931 1.400 . S
C1932 C1935 1.386 . S
H1933 C1949 0.930 . S
H1934 C1950 0.931 . S
C1935 H1923 0.929 . S
C1935 C1929 1.390 . S
C1935 C1932 1.386 . S
C1936 C1931 1.490 . S
C1936 C1938 1.395 . S
C1936 C1939 1.403 1_556 S
H1937 C1943 0.930 . S
C1938 H1924 0.930 . S
C1938 C1936 1.395 . S
C1938 C1941 1.403 1_565 S
C1939 C1936 1.403 1_554 S
C1939 C1940 1.524 . S
C1939 C1943 1.400 1_565 S
C1940 H1925 0.960 . S
C1940 H1926 0.960 . S
C1940 H1927 0.960 . S
C1940 C1939 1.524 . S
C1941 C1938 1.403 1_545 S
C1941 C1942 1.392 1_556 S
C1941 C1945 1.495 . S
C1942 C1941 1.392 1_554 S
C1942 C1943 1.385 . S
C1942 C1944 1.478 . S
C1943 H1937 0.930 . S
C1943 C1939 1.400 1_545 S
C1943 C1942 1.385 . S
C1944 C1942 1.478 . S
C1944 C1946 1.381 . S
C1944 C1950 1.383 . S
C1945 C1941 1.495 . S
C1945 H1951 0.959 . S
C1945 H1952 0.961 . S
C1945 H1953 0.960 . S
C1946 C1944 1.381 . S
C1946 C1947 1.394 . S
C1946 H1954 0.930 . S
C1947 C1946 1.394 . S
C1947 C1948 1.383 . S
C1947 H1955 0.929 . S
C1948 C1947 1.383 . S
C1948 C1949 1.377 . S
C1949 H1933 0.930 . S
C1949 C1948 1.377 . S
C1949 C1950 1.379 . S
C1950 H1934 0.931 . S
C1950 C1944 1.383 . S
C1950 C1949 1.379 . S
H1951 C1945 0.959 . S
H1952 C1945 0.961 . S
H1953 C1945 0.960 . S
H1954 C1946 0.930 . S
H1955 C1947 0.929 . S
H1956 C1964 0.929 . S
H1957 C1966 0.930 . S
H1958 C1968 0.930 . S
H1959 C1971 0.929 . S
H1960 C1974 0.930 . S
H1961 C1976 0.960 1_565 S
H1962 C1976 0.960 . S
H1963 C1976 0.960 . S
C1964 H1956 0.929 . S
C1964 C1965 1.377 . S
C1964 C1966 1.384 . S
C1965 C1964 1.377 . S
C1965 C1971 1.390 . S
C1966 H1957 0.930 . S
C1966 C1964 1.384 . S
C1966 C1967 1.372 . S
C1967 C1966 1.372 . S
C1967 C1968 1.400 . S
C1967 C1972 1.490 . S
C1968 H1958 0.930 . S
C1968 C1967 1.400 . S
C1968 C1971 1.386 . S
H1969 C1985 0.930 . S
H1970 C1986 0.931 . S
C1971 H1959 0.929 . S
C1971 C1965 1.390 . S
C1971 C1968 1.386 . S
C1972 C1967 1.490 . S
C1972 C1974 1.395 . S
C1972 C1975 1.403 . S
H1973 C1979 0.930 . S
C1974 H1960 0.930 . S
C1974 C1972 1.395 . S
C1974 C1977 1.403 1_545 S
C1975 C1972 1.403 . S
C1975 C1976 1.524 . S
C1975 C1979 1.400 1_545 S
C1976 H1961 0.960 1_545 S
C1976 H1962 0.960 . S
C1976 H1963 0.960 . S
C1976 C1975 1.524 . S
C1977 C1974 1.403 1_565 S
C1977 C1978 1.392 . S
C1977 C1981 1.495 . S
C1978 C1977 1.392 . S
C1978 C1979 1.385 . S
C1978 C1980 1.478 . S
C1979 H1973 0.930 . S
C1979 C1975 1.400 1_565 S
C1979 C1978 1.385 . S
C1980 C1978 1.478 . S
C1980 C1982 1.381 . S
C1980 C1986 1.383 . S
C1981 C1977 1.495 . S
C1981 H1987 0.959 1_565 S
C1981 H1988 0.961 . S
C1981 H1989 0.960 . S
C1982 C1980 1.381 . S
C1982 C1983 1.394 . S
C1982 H1990 0.930 . S
C1983 C1982 1.394 . S
C1983 C1984 1.383 . S
C1983 H1991 0.929 . S
C1984 C1983 1.383 . S
C1984 C1985 1.377 . S
C1985 H1969 0.930 . S
C1985 C1984 1.377 . S
C1985 C1986 1.379 . S
C1986 H1970 0.931 . S
C1986 C1980 1.383 . S
C1986 C1985 1.379 . S
H1987 C1981 0.959 1_545 S
H1988 C1981 0.961 . S
H1989 C1981 0.960 . S
H1990 C1982 0.930 . S
H1991 C1983 0.929 . S
H1992 C2000 0.929 . S
H1993 C2002 0.930 . S
H1994 C2004 0.930 . S
H1995 C2007 0.929 . S
H1996 C2010 0.930 . S
H1997 C2012 0.960 . S
H1998 C2012 0.960 . S
H1999 C2012 0.960 . S
C2000 H1992 0.929 . S
C2000 C2001 1.377 . S
C2000 C2002 1.384 . S
C2001 C2000 1.377 . S
C2001 C2007 1.390 . S
C2002 H1993 0.930 . S
C2002 C2000 1.384 . S
C2002 C2003 1.372 . S
C2003 C2002 1.372 . S
C2003 C2004 1.400 . S
C2003 C2008 1.490 . S
C2004 H1994 0.930 . S
C2004 C2003 1.400 . S
C2004 C2007 1.386 . S
H2005 C2021 0.930 . S
H2006 C2022 0.931 . S
C2007 H1995 0.929 . S
C2007 C2001 1.390 . S
C2007 C2004 1.386 . S
C2008 C2003 1.490 . S
C2008 C2010 1.395 . S
C2008 C2011 1.403 . S
H2009 C2015 0.930 . S
C2010 H1996 0.930 . S
C2010 C2008 1.395 . S
C2010 C2013 1.403 . S
C2011 C2008 1.403 . S
C2011 C2012 1.524 . S
C2011 C2015 1.400 . S
C2012 H1997 0.960 . S
C2012 H1998 0.960 . S
C2012 H1999 0.960 . S
C2012 C2011 1.524 . S
C2013 C2010 1.403 . S
C2013 C2014 1.392 . S
C2013 C2017 1.495 . S
C2014 C2013 1.392 . S
C2014 C2015 1.385 . S
C2014 C2016 1.478 . S
C2015 H2009 0.930 . S
C2015 C2011 1.400 . S
C2015 C2014 1.385 . S
C2016 C2014 1.478 . S
C2016 C2018 1.381 . S
C2016 C2022 1.383 . S
C2017 C2013 1.495 . S
C2017 H2023 0.959 . S
C2017 H2024 0.961 . S
C2017 H2025 0.960 . S
C2018 C2016 1.381 . S
C2018 C2019 1.394 . S
C2018 H2026 0.930 . S
C2019 C2018 1.394 . S
C2019 C2020 1.383 . S
C2019 H2027 0.929 . S
C2020 C2019 1.383 . S
C2020 C2021 1.377 . S
C2021 H2005 0.930 . S
C2021 C2020 1.377 . S
C2021 C2022 1.379 . S
C2022 H2006 0.931 . S
C2022 C2016 1.383 . S
C2022 C2021 1.379 . S
H2023 C2017 0.959 . S
H2024 C2017 0.961 . S
H2025 C2017 0.960 . S
H2026 C2018 0.930 . S
H2027 C2019 0.929 . S
H2028 C2036 0.929 . S
H2029 C2038 0.930 . S
H2030 C2040 0.907 1_556 S
H2031 C2043 0.929 . S
H2032 C2046 0.930 . S
H2033 C2048 0.983 . S
H2034 C2048 0.927 1_554 S
H2035 C2048 0.974 . S
C2036 H2028 0.929 . S
C2036 C2037 1.377 . S
C2036 C2038 1.384 . S
C2037 C2036 1.377 . S
C2037 C2043 1.390 . S
C2038 H2029 0.930 . S
C2038 C2036 1.384 . S
C2038 C2039 1.372 . S
C2039 C2038 1.372 . S
C2039 C2040 1.400 . S
C2039 C2044 1.490 . S
C2040 H2030 0.907 1_554 S
C2040 C2039 1.400 . S
C2040 C2043 1.386 . S
H2041 C2057 0.930 . S
H2042 C2058 0.931 . S
C2043 H2031 0.929 . S
C2043 C2037 1.390 . S
C2043 C2040 1.386 . S
C2044 C2039 1.490 . S
C2044 C2046 1.395 . S
C2044 C2047 1.412 . S
H2045 C2051 0.930 . S
C2046 H2032 0.930 . S
C2046 C2044 1.395 . S
C2046 C2049 1.403 . S
C2047 C2044 1.412 . S
C2047 C2048 1.522 1_554 S
C2047 C2051 1.392 1_554 S
C2048 H2033 0.983 . S
C2048 H2034 0.927 1_556 S
C2048 H2035 0.974 . S
C2048 C2047 1.522 1_556 S
C2049 C2046 1.403 . S
C2049 C2050 1.392 1_554 S
C2049 C2053 1.495 . S
C2050 C2049 1.392 1_556 S
C2050 C2051 1.385 . S
C2050 C2052 1.478 . S
C2051 H2045 0.930 . S
C2051 C2047 1.392 1_556 S
C2051 C2050 1.385 . S
C2052 C2050 1.478 . S
C2052 C2054 1.381 . S
C2052 C2058 1.383 . S
C2053 C2049 1.495 . S
C2053 H2059 0.959 . S
C2053 H2060 0.961 1_554 S
C2053 H2061 0.960 . S
C2054 C2052 1.381 . S
C2054 C2055 1.394 . S
C2054 H2062 0.930 1_556 S
C2055 C2054 1.394 . S
C2055 C2056 1.383 . S
C2055 H2063 0.929 . S
C2056 C2055 1.383 . S
C2056 C2057 1.377 . S
C2057 H2041 0.930 . S
C2057 C2056 1.377 . S
C2057 C2058 1.379 . S
C2058 H2042 0.931 . S
C2058 C2052 1.383 . S
C2058 C2057 1.379 . S
H2059 C2053 0.959 . S
H2060 C2053 0.961 1_556 S
H2061 C2053 0.960 . S
H2062 C2054 0.930 1_554 S
H2063 C2055 0.929 . S
H2064 C2072 0.929 . S
H2065 C2074 0.930 . S
H2066 C2076 0.930 . S
H2067 C2079 0.929 . S
H2068 C2082 0.930 . S
H2069 C2084 0.960 . S
H2070 C2084 0.960 . S
H2071 C2084 0.960 . S
C2072 H2064 0.929 . S
C2072 C2073 1.377 . S
C2072 C2074 1.384 . S
C2073 C2072 1.377 . S
C2073 C2079 1.390 . S
C2074 H2065 0.930 . S
C2074 C2072 1.384 . S
C2074 C2075 1.372 . S
C2075 C2074 1.372 . S
C2075 C2076 1.400 . S
C2075 C2080 1.490 . S
C2076 H2066 0.930 . S
C2076 C2075 1.400 . S
C2076 C2079 1.386 . S
H2077 C2093 0.930 . S
H2078 C2094 0.931 . S
C2079 H2067 0.929 . S
C2079 C2073 1.390 . S
C2079 C2076 1.386 . S
C2080 C2075 1.490 . S
C2080 C2082 1.395 . S
C2080 C2083 1.403 . S
H2081 C2087 0.930 . S
C2082 H2068 0.930 . S
C2082 C2080 1.395 . S
C2082 C2085 1.403 . S
C2083 C2080 1.403 . S
C2083 C2084 1.524 . S
C2083 C2087 1.400 . S
C2084 H2069 0.960 . S
C2084 H2070 0.960 . S
C2084 H2071 0.960 . S
C2084 C2083 1.524 . S
C2085 C2082 1.403 . S
C2085 C2086 1.392 . S
C2085 C2089 1.495 . S
C2086 C2085 1.392 . S
C2086 C2087 1.385 . S
C2086 C2088 1.478 . S
C2087 H2081 0.930 . S
C2087 C2083 1.400 . S
C2087 C2086 1.385 . S
C2088 C2086 1.478 . S
C2088 C2090 1.381 . S
C2088 C2094 1.383 . S
C2089 C2085 1.495 . S
C2089 H2095 0.959 . S
C2089 H2096 0.961 . S
C2089 H2097 0.960 . S
C2090 C2088 1.381 . S
C2090 C2091 1.394 . S
C2090 H2098 0.930 . S
C2091 C2090 1.394 . S
C2091 C2092 1.383 . S
C2091 H2099 0.929 . S
C2092 C2091 1.383 . S
C2092 C2093 1.377 . S
C2093 H2077 0.930 . S
C2093 C2092 1.377 . S
C2093 C2094 1.379 . S
C2094 H2078 0.931 . S
C2094 C2088 1.383 . S
C2094 C2093 1.379 . S
H2095 C2089 0.959 . S
H2096 C2089 0.961 . S
H2097 C2089 0.960 . S
H2098 C2090 0.930 . S
H2099 C2091 0.929 . S
H2100 C2108 0.929 . S
H2101 C2110 0.930 . S
H2102 C2112 0.930 . S
H2103 C2115 0.929 . S
H2104 C2118 0.930 . S
H2105 C2120 1.003 . S
H2106 C2120 0.949 1_565 S
H2107 C2120 0.929 1_565 S
C2108 H2100 0.929 . S
C2108 C2109 1.377 . S
C2108 C2110 1.384 . S
C2109 C2108 1.377 . S
C2109 C2115 1.390 . S
C2110 H2101 0.930 . S
C2110 C2108 1.384 . S
C2110 C2111 1.372 . S
C2111 C2110 1.372 . S
C2111 C2112 1.400 . S
C2111 C2116 1.490 . S
C2112 H2102 0.930 . S
C2112 C2111 1.400 . S
C2112 C2115 1.386 . S
H2113 C2129 0.930 . S
H2114 C2130 0.931 . S
C2115 H2103 0.929 . S
C2115 C2109 1.390 . S
C2115 C2112 1.386 . S
C2116 C2111 1.490 . S
C2116 C2118 1.395 1_554 S
C2116 C2119 1.423 . S
H2117 C2123 0.930 . S
C2118 H2104 0.930 . S
C2118 C2116 1.395 1_556 S
C2118 C2121 1.423 . S
C2119 C2116 1.423 . S
C2119 C2120 1.521 1_565 S
C2119 C2123 1.380 1_565 S
C2120 H2105 1.003 . S
C2120 H2106 0.949 1_545 S
C2120 H2107 0.929 1_545 S
C2120 C2119 1.521 1_545 S
C2121 C2118 1.423 . S
C2121 C2122 1.373 1_565 S
C2121 C2125 1.494 . S
C2122 C2121 1.373 1_545 S
C2122 C2123 1.385 1_556 S
C2122 C2124 1.478 . S
C2123 H2117 0.930 . S
C2123 C2119 1.380 1_545 S
C2123 C2122 1.385 1_554 S
C2124 C2122 1.478 . S
C2124 C2126 1.381 . S
C2124 C2130 1.383 . S
C2125 C2121 1.494 . S
C2125 H2131 1.028 . S
C2125 H2132 0.947 1_565 S
C2125 H2133 0.908 1_565 S
C2126 C2124 1.381 . S
C2126 C2127 1.394 . S
C2126 H2134 0.930 . S
C2127 C2126 1.394 . S
C2127 C2128 1.383 . S
C2127 H2135 0.929 . S
C2128 C2127 1.383 . S
C2128 C2129 1.377 . S
C2129 H2113 0.930 . S
C2129 C2128 1.377 . S
C2129 C2130 1.379 . S
C2130 H2114 0.931 . S
C2130 C2124 1.383 . S
C2130 C2129 1.379 . S
H2131 C2125 1.028 . S
H2132 C2125 0.947 1_545 S
H2133 C2125 0.908 1_545 S
H2134 C2126 0.930 . S
H2135 C2127 0.929 . S
H2136 C2144 0.929 . S
H2137 C2146 0.930 . S
H2138 C2148 0.930 . S
H2139 C2151 0.929 . S
H2140 C2154 0.930 . S
H2141 C2156 0.960 . S
H2142 C2156 0.960 . S
H2143 C2156 0.960 . S
C2144 H2136 0.929 . S
C2144 C2145 1.377 . S
C2144 C2146 1.384 . S
C2145 C2144 1.377 . S
C2145 C2151 1.390 . S
C2146 H2137 0.930 . S
C2146 C2144 1.384 . S
C2146 C2147 1.372 . S
C2147 C2146 1.372 . S
C2147 C2148 1.400 . S
C2147 C2152 1.490 . S
C2148 H2138 0.930 . S
C2148 C2147 1.400 . S
C2148 C2151 1.386 . S
H2149 C2165 0.930 . S
H2150 C2166 0.931 . S
C2151 H2139 0.929 . S
C2151 C2145 1.390 . S
C2151 C2148 1.386 . S
C2152 C2147 1.490 . S
C2152 C2154 1.395 . S
C2152 C2155 1.403 . S
H2153 C2159 0.930 . S
C2154 H2140 0.930 . S
C2154 C2152 1.395 . S
C2154 C2157 1.403 . S
C2155 C2152 1.403 . S
C2155 C2156 1.524 . S
C2155 C2159 1.400 . S
C2156 H2141 0.960 . S
C2156 H2142 0.960 . S
C2156 H2143 0.960 . S
C2156 C2155 1.524 . S
C2157 C2154 1.403 . S
C2157 C2158 1.392 . S
C2157 C2161 1.495 . S
C2158 C2157 1.392 . S
C2158 C2159 1.385 . S
C2158 C2160 1.478 . S
C2159 H2153 0.930 . S
C2159 C2155 1.400 . S
C2159 C2158 1.385 . S
C2160 C2158 1.478 . S
C2160 C2162 1.381 . S
C2160 C2166 1.383 . S
C2161 C2157 1.495 . S
C2161 H2167 0.959 . S
C2161 H2168 0.961 . S
C2161 H2169 0.960 . S
C2162 C2160 1.381 . S
C2162 C2163 1.394 . S
C2162 H2170 0.930 . S
C2163 C2162 1.394 . S
C2163 C2164 1.383 . S
C2163 H2171 0.929 . S
C2164 C2163 1.383 . S
C2164 C2165 1.377 . S
C2165 H2149 0.930 . S
C2165 C2164 1.377 . S
C2165 C2166 1.379 . S
C2166 H2150 0.931 . S
C2166 C2160 1.383 . S
C2166 C2165 1.379 . S
H2167 C2161 0.959 . S
H2168 C2161 0.961 . S
H2169 C2161 0.960 . S
H2170 C2162 0.930 . S
H2171 C2163 0.929 . S
H2172 C2180 0.929 . S
H2173 C2182 0.930 . S
H2174 C2184 0.930 . S
H2175 C2187 0.929 . S
H2176 C2190 0.930 . S
H2177 C2192 0.960 . S
H2178 C2192 0.960 . S
H2179 C2192 0.960 . S
C2180 H2172 0.929 . S
C2180 C2181 1.377 . S
C2180 C2182 1.384 . S
C2181 C2180 1.377 . S
C2181 C2187 1.390 . S
C2182 H2173 0.930 . S
C2182 C2180 1.384 . S
C2182 C2183 1.372 . S
C2183 C2182 1.372 . S
C2183 C2184 1.400 . S
C2183 C2188 1.490 . S
C2184 H2174 0.930 . S
C2184 C2183 1.400 . S
C2184 C2187 1.386 . S
H2185 C2201 0.930 . S
H2186 C2202 0.931 . S
C2187 H2175 0.929 . S
C2187 C2181 1.390 . S
C2187 C2184 1.386 . S
C2188 C2183 1.490 . S
C2188 C2190 1.395 . S
C2188 C2191 1.403 . S
H2189 C2195 0.930 . S
C2190 H2176 0.930 . S
C2190 C2188 1.395 . S
C2190 C2193 1.403 . S
C2191 C2188 1.403 . S
C2191 C2192 1.524 . S
C2191 C2195 1.400 . S
C2192 H2177 0.960 . S
C2192 H2178 0.960 . S
C2192 H2179 0.960 . S
C2192 C2191 1.524 . S
C2193 C2190 1.403 . S
C2193 C2194 1.392 . S
C2193 C2197 1.495 . S
C2194 C2193 1.392 . S
C2194 C2195 1.385 . S
C2194 C2196 1.478 . S
C2195 H2189 0.930 . S
C2195 C2191 1.400 . S
C2195 C2194 1.385 . S
C2196 C2194 1.478 . S
C2196 C2198 1.381 . S
C2196 C2202 1.383 . S
C2197 C2193 1.495 . S
C2197 H2203 0.959 . S
C2197 H2204 0.961 . S
C2197 H2205 0.960 . S
C2198 C2196 1.381 . S
C2198 C2199 1.394 . S
C2198 H2206 0.930 . S
C2199 C2198 1.394 . S
C2199 C2200 1.383 . S
C2199 H2207 0.929 . S
C2200 C2199 1.383 . S
C2200 C2201 1.377 . S
C2201 H2185 0.930 . S
C2201 C2200 1.377 . S
C2201 C2202 1.379 . S
C2202 H2186 0.931 . S
C2202 C2196 1.383 . S
C2202 C2201 1.379 . S
H2203 C2197 0.959 . S
H2204 C2197 0.961 . S
H2205 C2197 0.960 . S
H2206 C2198 0.930 . S
H2207 C2199 0.929 . S
H2208 C2216 0.929 . S
H2209 C2218 0.930 . S
H2210 C2220 0.930 . S
H2211 C2223 0.929 . S
H2212 C2226 0.930 . S
H2213 C2228 0.960 . S
H2214 C2228 0.960 . S
H2215 C2228 0.960 . S
C2216 H2208 0.929 . S
C2216 C2217 1.377 . S
C2216 C2218 1.384 . S
C2217 C2216 1.377 . S
C2217 C2223 1.390 . S
C2218 H2209 0.930 . S
C2218 C2216 1.384 . S
C2218 C2219 1.372 . S
C2219 C2218 1.372 . S
C2219 C2220 1.400 . S
C2219 C2224 1.490 . S
C2220 H2210 0.930 . S
C2220 C2219 1.400 . S
C2220 C2223 1.386 . S
H2221 C2237 0.930 . S
H2222 C2238 0.931 . S
C2223 H2211 0.929 . S
C2223 C2217 1.390 . S
C2223 C2220 1.386 . S
C2224 C2219 1.490 . S
C2224 C2226 1.395 . S
C2224 C2227 1.403 . S
H2225 C2231 0.930 . S
C2226 H2212 0.930 . S
C2226 C2224 1.395 . S
C2226 C2229 1.403 . S
C2227 C2224 1.403 . S
C2227 C2228 1.524 . S
C2227 C2231 1.400 . S
C2228 H2213 0.960 . S
C2228 H2214 0.960 . S
C2228 H2215 0.960 . S
C2228 C2227 1.524 . S
C2229 C2226 1.403 . S
C2229 C2230 1.392 . S
C2229 C2233 1.495 . S
C2230 C2229 1.392 . S
C2230 C2231 1.385 . S
C2230 C2232 1.478 . S
C2231 H2225 0.930 . S
C2231 C2227 1.400 . S
C2231 C2230 1.385 . S
C2232 C2230 1.478 . S
C2232 C2234 1.381 . S
C2232 C2238 1.383 . S
C2233 C2229 1.495 . S
C2233 H2239 0.959 . S
C2233 H2240 0.961 . S
C2233 H2241 0.960 . S
C2234 C2232 1.381 . S
C2234 C2235 1.394 . S
C2234 H2242 0.930 . S
C2235 C2234 1.394 . S
C2235 C2236 1.383 . S
C2235 H2243 0.929 . S
C2236 C2235 1.383 . S
C2236 C2237 1.377 . S
C2237 H2221 0.930 . S
C2237 C2236 1.377 . S
C2237 C2238 1.379 . S
C2238 H2222 0.931 . S
C2238 C2232 1.383 . S
C2238 C2237 1.379 . S
H2239 C2233 0.959 . S
H2240 C2233 0.961 . S
H2241 C2233 0.960 . S
H2242 C2234 0.930 . S
H2243 C2235 0.929 . S
H2244 C2252 0.929 . S
H2245 C2254 0.930 . S
H2246 C2256 0.930 . S
H2247 C2259 0.929 . S
H2248 C2262 0.930 . S
H2249 C2264 0.960 . S
H2250 C2264 0.960 . S
H2251 C2264 0.960 . S
C2252 H2244 0.929 . S
C2252 C2253 1.377 . S
C2252 C2254 1.384 . S
C2253 C2252 1.377 . S
C2253 C2259 1.390 . S
C2254 H2245 0.930 . S
C2254 C2252 1.384 . S
C2254 C2255 1.372 . S
C2255 C2254 1.372 . S
C2255 C2256 1.400 . S
C2255 C2260 1.490 . S
C2256 H2246 0.930 . S
C2256 C2255 1.400 . S
C2256 C2259 1.386 . S
H2257 C2273 0.930 . S
H2258 C2274 0.931 . S
C2259 H2247 0.929 . S
C2259 C2253 1.390 . S
C2259 C2256 1.386 . S
C2260 C2255 1.490 . S
C2260 C2262 1.395 . S
C2260 C2263 1.403 . S
H2261 C2267 0.930 . S
C2262 H2248 0.930 . S
C2262 C2260 1.395 . S
C2262 C2265 1.403 . S
C2263 C2260 1.403 . S
C2263 C2264 1.524 . S
C2263 C2267 1.400 . S
C2264 H2249 0.960 . S
C2264 H2250 0.960 . S
C2264 H2251 0.960 . S
C2264 C2263 1.524 . S
C2265 C2262 1.403 . S
C2265 C2266 1.392 . S
C2265 C2269 1.495 . S
C2266 C2265 1.392 . S
C2266 C2267 1.385 . S
C2266 C2268 1.478 . S
C2267 H2261 0.930 . S
C2267 C2263 1.400 . S
C2267 C2266 1.385 . S
C2268 C2266 1.478 . S
C2268 C2270 1.381 . S
C2268 C2274 1.383 . S
C2269 C2265 1.495 . S
C2269 H2275 0.959 . S
C2269 H2276 0.961 . S
C2269 H2277 0.960 . S
C2270 C2268 1.381 . S
C2270 C2271 1.394 . S
C2270 H2278 0.930 . S
C2271 C2270 1.394 . S
C2271 C2272 1.383 . S
C2271 H2279 0.929 . S
C2272 C2271 1.383 . S
C2272 C2273 1.377 . S
C2273 H2257 0.930 . S
C2273 C2272 1.377 . S
C2273 C2274 1.379 . S
C2274 H2258 0.931 . S
C2274 C2268 1.383 . S
C2274 C2273 1.379 . S
H2275 C2269 0.959 . S
H2276 C2269 0.961 . S
H2277 C2269 0.960 . S
H2278 C2270 0.930 . S
H2279 C2271 0.929 . S
H2280 C2288 0.929 . S
H2281 C2290 0.930 . S
H2282 C2292 0.930 . S
H2283 C2295 0.929 . S
H2284 C2298 0.930 . S
H2285 C2300 0.960 . S
H2286 C2300 0.960 . S
H2287 C2300 0.960 . S
C2288 H2280 0.929 . S
C2288 C2289 1.377 . S
C2288 C2290 1.384 . S
C2289 C2288 1.377 . S
C2289 C2295 1.390 . S
C2290 H2281 0.930 . S
C2290 C2288 1.384 . S
C2290 C2291 1.372 . S
C2291 C2290 1.372 . S
C2291 C2292 1.400 . S
C2291 C2296 1.490 . S
C2292 H2282 0.930 . S
C2292 C2291 1.400 . S
C2292 C2295 1.386 . S
H2293 C2309 0.930 . S
H2294 C2310 0.931 . S
C2295 H2283 0.929 . S
C2295 C2289 1.390 . S
C2295 C2292 1.386 . S
C2296 C2291 1.490 . S
C2296 C2298 1.395 . S
C2296 C2299 1.403 . S
H2297 C2303 0.930 . S
C2298 H2284 0.930 . S
C2298 C2296 1.395 . S
C2298 C2301 1.403 . S
C2299 C2296 1.403 . S
C2299 C2300 1.524 . S
C2299 C2303 1.400 . S
C2300 H2285 0.960 . S
C2300 H2286 0.960 . S
C2300 H2287 0.960 . S
C2300 C2299 1.524 . S
C2301 C2298 1.403 . S
C2301 C2302 1.392 . S
C2301 C2305 1.495 . S
C2302 C2301 1.392 . S
C2302 C2303 1.385 . S
C2302 C2304 1.478 . S
C2303 H2297 0.930 . S
C2303 C2299 1.400 . S
C2303 C2302 1.385 . S
C2304 C2302 1.478 . S
C2304 C2306 1.381 . S
C2304 C2310 1.383 . S
C2305 C2301 1.495 . S
C2305 H2311 0.959 . S
C2305 H2312 0.961 . S
C2305 H2313 0.960 . S
C2306 C2304 1.381 . S
C2306 C2307 1.394 . S
C2306 H2314 0.930 . S
C2307 C2306 1.394 . S
C2307 C2308 1.383 . S
C2307 H2315 0.929 . S
C2308 C2307 1.383 . S
C2308 C2309 1.377 . S
C2309 H2293 0.930 . S
C2309 C2308 1.377 . S
C2309 C2310 1.379 . S
C2310 H2294 0.931 . S
C2310 C2304 1.383 . S
C2310 C2309 1.379 . S
H2311 C2305 0.959 . S
H2312 C2305 0.961 . S
H2313 C2305 0.960 . S
H2314 C2306 0.930 . S
H2315 C2307 0.929 . S
H2316 C2324 0.929 . S
H2317 C2326 0.930 . S
H2318 C2328 0.930 . S
H2319 C2331 0.929 . S
H2320 C2334 0.930 . S
H2321 C2336 0.960 . S
H2322 C2336 0.960 . S
H2323 C2336 0.960 . S
C2324 H2316 0.929 . S
C2324 C2325 1.377 . S
C2324 C2326 1.384 . S
C2325 C2324 1.377 . S
C2325 C2331 1.390 . S
C2326 H2317 0.930 . S
C2326 C2324 1.384 . S
C2326 C2327 1.372 . S
C2327 C2326 1.372 . S
C2327 C2328 1.400 . S
C2327 C2332 1.490 . S
C2328 H2318 0.930 . S
C2328 C2327 1.400 . S
C2328 C2331 1.386 . S
H2329 C2345 0.930 . S
H2330 C2346 0.931 . S
C2331 H2319 0.929 . S
C2331 C2325 1.390 . S
C2331 C2328 1.386 . S
C2332 C2327 1.490 . S
C2332 C2334 1.395 . S
C2332 C2335 1.403 . S
H2333 C2339 0.930 . S
C2334 H2320 0.930 . S
C2334 C2332 1.395 . S
C2334 C2337 1.403 . S
C2335 C2332 1.403 . S
C2335 C2336 1.524 . S
C2335 C2339 1.400 . S
C2336 H2321 0.960 . S
C2336 H2322 0.960 . S
C2336 H2323 0.960 . S
C2336 C2335 1.524 . S
C2337 C2334 1.403 . S
C2337 C2338 1.392 . S
C2337 C2341 1.495 . S
C2338 C2337 1.392 . S
C2338 C2339 1.385 . S
C2338 C2340 1.478 . S
C2339 H2333 0.930 . S
C2339 C2335 1.400 . S
C2339 C2338 1.385 . S
C2340 C2338 1.478 . S
C2340 C2342 1.381 . S
C2340 C2346 1.383 . S
C2341 C2337 1.495 . S
C2341 H2347 0.959 . S
C2341 H2348 0.961 . S
C2341 H2349 0.960 . S
C2342 C2340 1.381 . S
C2342 C2343 1.394 . S
C2342 H2350 0.930 . S
C2343 C2342 1.394 . S
C2343 C2344 1.383 . S
C2343 H2351 0.929 . S
C2344 C2343 1.383 . S
C2344 C2345 1.377 . S
C2345 H2329 0.930 . S
C2345 C2344 1.377 . S
C2345 C2346 1.379 . S
C2346 H2330 0.931 . S
C2346 C2340 1.383 . S
C2346 C2345 1.379 . S
H2347 C2341 0.959 . S
H2348 C2341 0.961 . S
H2349 C2341 0.960 . S
H2350 C2342 0.930 . S
H2351 C2343 0.929 . S
H2352 C2360 0.929 . S
H2353 C2362 0.930 . S
H2354 C2364 0.930 . S
H2355 C2367 0.929 . S
H2356 C2370 0.930 . S
H2357 C2372 0.960 . S
H2358 C2372 0.960 . S
H2359 C2372 0.960 . S
C2360 H2352 0.929 . S
C2360 C2361 1.377 . S
C2360 C2362 1.384 . S
C2361 C2360 1.377 . S
C2361 C2367 1.390 . S
C2362 H2353 0.930 . S
C2362 C2360 1.384 . S
C2362 C2363 1.372 . S
C2363 C2362 1.372 . S
C2363 C2364 1.400 . S
C2363 C2368 1.490 . S
C2364 H2354 0.930 . S
C2364 C2363 1.400 . S
C2364 C2367 1.386 . S
H2365 C2381 0.930 . S
H2366 C2382 0.931 . S
C2367 H2355 0.929 . S
C2367 C2361 1.390 . S
C2367 C2364 1.386 . S
C2368 C2363 1.490 . S
C2368 C2370 1.395 . S
C2368 C2371 1.403 . S
H2369 C2375 0.930 . S
C2370 H2356 0.930 . S
C2370 C2368 1.395 . S
C2370 C2373 1.403 . S
C2371 C2368 1.403 . S
C2371 C2372 1.524 . S
C2371 C2375 1.400 . S
C2372 H2357 0.960 . S
C2372 H2358 0.960 . S
C2372 H2359 0.960 . S
C2372 C2371 1.524 . S
C2373 C2370 1.403 . S
C2373 C2374 1.392 . S
C2373 C2377 1.495 . S
C2374 C2373 1.392 . S
C2374 C2375 1.385 . S
C2374 C2376 1.478 . S
C2375 H2369 0.930 . S
C2375 C2371 1.400 . S
C2375 C2374 1.385 . S
C2376 C2374 1.478 . S
C2376 C2378 1.381 . S
C2376 C2382 1.383 . S
C2377 C2373 1.495 . S
C2377 H2383 0.959 . S
C2377 H2384 0.961 . S
C2377 H2385 0.960 . S
C2378 C2376 1.381 . S
C2378 C2379 1.394 . S
C2378 H2386 0.930 . S
C2379 C2378 1.394 . S
C2379 C2380 1.383 . S
C2379 H2387 0.929 . S
C2380 C2379 1.383 . S
C2380 C2381 1.377 . S
C2381 H2365 0.930 . S
C2381 C2380 1.377 . S
C2381 C2382 1.379 . S
C2382 H2366 0.931 . S
C2382 C2376 1.383 . S
C2382 C2381 1.379 . S
H2383 C2377 0.959 . S
H2384 C2377 0.961 . S
H2385 C2377 0.960 . S
H2386 C2378 0.930 . S
H2387 C2379 0.929 . S
H2388 C2396 0.929 . S
H2389 C2398 0.930 . S
H2390 C2400 0.930 . S
H2391 C2403 0.929 . S
H2392 C2406 0.930 . S
H2393 C2408 0.960 . S
H2394 C2408 0.960 . S
H2395 C2408 0.960 . S
C2396 H2388 0.929 . S
C2396 C2397 1.377 . S
C2396 C2398 1.384 . S
C2397 C2396 1.377 . S
C2397 C2403 1.390 . S
C2398 H2389 0.930 . S
C2398 C2396 1.384 . S
C2398 C2399 1.372 . S
C2399 C2398 1.372 . S
C2399 C2400 1.400 . S
C2399 C2404 1.490 . S
C2400 H2390 0.930 . S
C2400 C2399 1.400 . S
C2400 C2403 1.386 . S
H2401 C2417 0.930 . S
H2402 C2418 0.931 . S
C2403 H2391 0.929 . S
C2403 C2397 1.390 . S
C2403 C2400 1.386 . S
C2404 C2399 1.490 . S
C2404 C2406 1.395 . S
C2404 C2407 1.403 . S
H2405 C2411 0.930 . S
C2406 H2392 0.930 . S
C2406 C2404 1.395 . S
C2406 C2409 1.403 . S
C2407 C2404 1.403 . S
C2407 C2408 1.524 . S
C2407 C2411 1.400 . S
C2408 H2393 0.960 . S
C2408 H2394 0.960 . S
C2408 H2395 0.960 . S
C2408 C2407 1.524 . S
C2409 C2406 1.403 . S
C2409 C2410 1.392 . S
C2409 C2413 1.495 . S
C2410 C2409 1.392 . S
C2410 C2411 1.385 . S
C2410 C2412 1.478 . S
C2411 H2405 0.930 . S
C2411 C2407 1.400 . S
C2411 C2410 1.385 . S
C2412 C2410 1.478 . S
C2412 C2414 1.381 . S
C2412 C2418 1.383 . S
C2413 C2409 1.495 . S
C2413 H2419 0.959 . S
C2413 H2420 0.961 . S
C2413 H2421 0.960 . S
C2414 C2412 1.381 . S
C2414 C2415 1.394 . S
C2414 H2422 0.930 . S
C2415 C2414 1.394 . S
C2415 C2416 1.383 . S
C2415 H2423 0.929 . S
C2416 C2415 1.383 . S
C2416 C2417 1.377 . S
C2417 H2401 0.930 . S
C2417 C2416 1.377 . S
C2417 C2418 1.379 . S
C2418 H2402 0.931 . S
C2418 C2412 1.383 . S
C2418 C2417 1.379 . S
H2419 C2413 0.959 . S
H2420 C2413 0.961 . S
H2421 C2413 0.960 . S
H2422 C2414 0.930 . S
H2423 C2415 0.929 . S
H2424 C2432 0.929 . S
H2425 C2434 0.930 . S
H2426 C2436 0.930 . S
H2427 C2439 0.929 . S
H2428 C2442 0.930 . S
H2429 C2444 0.960 . S
H2430 C2444 0.960 . S
H2431 C2444 0.960 . S
C2432 H2424 0.929 . S
C2432 C2433 1.377 . S
C2432 C2434 1.384 . S
C2433 C2432 1.377 . S
C2433 C2439 1.390 . S
C2434 H2425 0.930 . S
C2434 C2432 1.384 . S
C2434 C2435 1.372 . S
C2435 C2434 1.372 . S
C2435 C2436 1.400 . S
C2435 C2440 1.490 . S
C2436 H2426 0.930 . S
C2436 C2435 1.400 . S
C2436 C2439 1.386 . S
H2437 C2453 0.930 . S
H2438 C2454 0.931 . S
C2439 H2427 0.929 . S
C2439 C2433 1.390 . S
C2439 C2436 1.386 . S
C2440 C2435 1.490 . S
C2440 C2442 1.395 . S
C2440 C2443 1.403 . S
H2441 C2447 0.930 . S
C2442 H2428 0.930 . S
C2442 C2440 1.395 . S
C2442 C2445 1.403 . S
C2443 C2440 1.403 . S
C2443 C2444 1.524 . S
C2443 C2447 1.400 . S
C2444 H2429 0.960 . S
C2444 H2430 0.960 . S
C2444 H2431 0.960 . S
C2444 C2443 1.524 . S
C2445 C2442 1.403 . S
C2445 C2446 1.392 . S
C2445 C2449 1.495 . S
C2446 C2445 1.392 . S
C2446 C2447 1.385 . S
C2446 C2448 1.478 . S
C2447 H2441 0.930 . S
C2447 C2443 1.400 . S
C2447 C2446 1.385 . S
C2448 C2446 1.478 . S
C2448 C2450 1.381 . S
C2448 C2454 1.383 . S
C2449 C2445 1.495 . S
C2449 H2455 0.959 . S
C2449 H2456 0.961 . S
C2449 H2457 0.960 . S
C2450 C2448 1.381 . S
C2450 C2451 1.394 . S
C2450 H2458 0.930 . S
C2451 C2450 1.394 . S
C2451 C2452 1.383 . S
C2451 H2459 0.929 . S
C2452 C2451 1.383 . S
C2452 C2453 1.377 . S
C2453 H2437 0.930 . S
C2453 C2452 1.377 . S
C2453 C2454 1.379 . S
C2454 H2438 0.931 . S
C2454 C2448 1.383 . S
C2454 C2453 1.379 . S
H2455 C2449 0.959 . S
H2456 C2449 0.961 . S
H2457 C2449 0.960 . S
H2458 C2450 0.930 . S
H2459 C2451 0.929 . S
H2460 C2468 0.929 . S
H2461 C2470 0.930 . S
H2462 C2472 0.930 . S
H2463 C2475 0.929 . S
H2464 C2478 0.930 . S
H2465 C2480 0.960 . S
H2466 C2480 0.960 . S
H2467 C2480 0.960 . S
C2468 H2460 0.929 . S
C2468 C2469 1.377 . S
C2468 C2470 1.384 . S
C2469 C2468 1.377 . S
C2469 C2475 1.390 . S
C2470 H2461 0.930 . S
C2470 C2468 1.384 . S
C2470 C2471 1.372 . S
C2471 C2470 1.372 . S
C2471 C2472 1.400 . S
C2471 C2476 1.490 . S
C2472 H2462 0.930 . S
C2472 C2471 1.400 . S
C2472 C2475 1.386 . S
H2473 C2489 0.930 . S
H2474 C2490 0.931 . S
C2475 H2463 0.929 . S
C2475 C2469 1.390 . S
C2475 C2472 1.386 . S
C2476 C2471 1.490 . S
C2476 C2478 1.395 . S
C2476 C2479 1.403 . S
H2477 C2483 0.930 . S
C2478 H2464 0.930 . S
C2478 C2476 1.395 . S
C2478 C2481 1.403 . S
C2479 C2476 1.403 . S
C2479 C2480 1.524 . S
C2479 C2483 1.400 . S
C2480 H2465 0.960 . S
C2480 H2466 0.960 . S
C2480 H2467 0.960 . S
C2480 C2479 1.524 . S
C2481 C2478 1.403 . S
C2481 C2482 1.392 . S
C2481 C2485 1.495 . S
C2482 C2481 1.392 . S
C2482 C2483 1.385 . S
C2482 C2484 1.478 . S
C2483 H2477 0.930 . S
C2483 C2479 1.400 . S
C2483 C2482 1.385 . S
C2484 C2482 1.478 . S
C2484 C2486 1.381 . S
C2484 C2490 1.383 . S
C2485 C2481 1.495 . S
C2485 H2491 0.959 . S
C2485 H2492 0.961 . S
C2485 H2493 0.960 . S
C2486 C2484 1.381 . S
C2486 C2487 1.394 . S
C2486 H2494 0.930 . S
C2487 C2486 1.394 . S
C2487 C2488 1.383 . S
C2487 H2495 0.929 . S
C2488 C2487 1.383 . S
C2488 C2489 1.377 . S
C2489 H2473 0.930 . S
C2489 C2488 1.377 . S
C2489 C2490 1.379 . S
C2490 H2474 0.931 . S
C2490 C2484 1.383 . S
C2490 C2489 1.379 . S
H2491 C2485 0.959 . S
H2492 C2485 0.961 . S
H2493 C2485 0.960 . S
H2494 C2486 0.930 . S
H2495 C2487 0.929 . S
H2496 C2504 0.929 . S
H2497 C2506 0.930 . S
H2498 C2508 0.930 . S
H2499 C2511 0.929 . S
H2500 C2514 0.930 . S
H2501 C2516 0.960 . S
H2502 C2516 0.960 . S
H2503 C2516 0.960 . S
C2504 H2496 0.929 . S
C2504 C2505 1.377 . S
C2504 C2506 1.384 . S
C2505 C2504 1.377 . S
C2505 C2511 1.390 . S
C2506 H2497 0.930 . S
C2506 C2504 1.384 . S
C2506 C2507 1.372 . S
C2507 C2506 1.372 . S
C2507 C2508 1.400 . S
C2507 C2512 1.490 . S
C2508 H2498 0.930 . S
C2508 C2507 1.400 . S
C2508 C2511 1.386 . S
H2509 C2525 0.930 . S
H2510 C2526 0.931 . S
C2511 H2499 0.929 . S
C2511 C2505 1.390 . S
C2511 C2508 1.386 . S
C2512 C2507 1.490 . S
C2512 C2514 1.395 . S
C2512 C2515 1.403 . S
H2513 C2519 0.930 . S
C2514 H2500 0.930 . S
C2514 C2512 1.395 . S
C2514 C2517 1.403 . S
C2515 C2512 1.403 . S
C2515 C2516 1.524 . S
C2515 C2519 1.400 . S
C2516 H2501 0.960 . S
C2516 H2502 0.960 . S
C2516 H2503 0.960 . S
C2516 C2515 1.524 . S
C2517 C2514 1.403 . S
C2517 C2518 1.392 . S
C2517 C2521 1.495 . S
C2518 C2517 1.392 . S
C2518 C2519 1.385 . S
C2518 C2520 1.478 . S
C2519 H2513 0.930 . S
C2519 C2515 1.400 . S
C2519 C2518 1.385 . S
C2520 C2518 1.478 . S
C2520 C2522 1.381 . S
C2520 C2526 1.383 . S
C2521 C2517 1.495 . S
C2521 H2527 0.959 . S
C2521 H2528 0.961 . S
C2521 H2529 0.960 . S
C2522 C2520 1.381 . S
C2522 C2523 1.394 . S
C2522 H2530 0.930 . S
C2523 C2522 1.394 . S
C2523 C2524 1.383 . S
C2523 H2531 0.929 . S
C2524 C2523 1.383 . S
C2524 C2525 1.377 . S
C2525 H2509 0.930 . S
C2525 C2524 1.377 . S
C2525 C2526 1.379 . S
C2526 H2510 0.931 . S
C2526 C2520 1.383 . S
C2526 C2525 1.379 . S
H2527 C2521 0.959 . S
H2528 C2521 0.961 . S
H2529 C2521 0.960 . S
H2530 C2522 0.930 . S
H2531 C2523 0.929 . S
H2532 C2540 0.929 . S
H2533 C2542 0.930 . S
H2534 C2544 0.930 . S
H2535 C2547 0.929 . S
H2536 C2550 0.930 . S
H2537 C2552 0.960 . S
H2538 C2552 0.960 . S
H2539 C2552 0.960 . S
C2540 H2532 0.929 . S
C2540 C2541 1.377 . S
C2540 C2542 1.384 . S
C2541 C2540 1.377 . S
C2541 C2547 1.390 . S
C2542 H2533 0.930 . S
C2542 C2540 1.384 . S
C2542 C2543 1.372 . S
C2543 C2542 1.372 . S
C2543 C2544 1.400 . S
C2543 C2548 1.490 . S
C2544 H2534 0.930 . S
C2544 C2543 1.400 . S
C2544 C2547 1.386 . S
H2545 C2561 0.930 . S
H2546 C2562 0.931 . S
C2547 H2535 0.929 . S
C2547 C2541 1.390 . S
C2547 C2544 1.386 . S
C2548 C2543 1.490 . S
C2548 C2550 1.395 1_556 S
C2548 C2551 1.403 . S
H2549 C2555 0.930 . S
C2550 H2536 0.930 . S
C2550 C2548 1.395 1_554 S
C2550 C2553 1.403 . S
C2551 C2548 1.403 . S
C2551 C2552 1.524 . S
C2551 C2555 1.400 . S
C2552 H2537 0.960 . S
C2552 H2538 0.960 . S
C2552 H2539 0.960 . S
C2552 C2551 1.524 . S
C2553 C2550 1.403 . S
C2553 C2554 1.392 . S
C2553 C2557 1.495 . S
C2554 C2553 1.392 . S
C2554 C2555 1.385 1_554 S
C2554 C2556 1.478 . S
C2555 H2549 0.930 . S
C2555 C2551 1.400 . S
C2555 C2554 1.385 1_556 S
C2556 C2554 1.478 . S
C2556 C2558 1.381 . S
C2556 C2562 1.383 . S
C2557 C2553 1.495 . S
C2557 H2563 0.959 . S
C2557 H2564 0.961 . S
C2557 H2565 0.960 . S
C2558 C2556 1.381 . S
C2558 C2559 1.394 . S
C2558 H2566 0.930 . S
C2559 C2558 1.394 . S
C2559 C2560 1.383 . S
C2559 H2567 0.929 . S
C2560 C2559 1.383 . S
C2560 C2561 1.377 . S
C2561 H2545 0.930 . S
C2561 C2560 1.377 . S
C2561 C2562 1.379 . S
C2562 H2546 0.931 . S
C2562 C2556 1.383 . S
C2562 C2561 1.379 . S
H2563 C2557 0.959 . S
H2564 C2557 0.961 . S
H2565 C2557 0.960 . S
H2566 C2558 0.930 . S
H2567 C2559 0.929 . S
H2568 C2576 0.929 . S
H2569 C2578 0.930 . S
H2570 C2580 0.930 . S
H2571 C2583 0.929 . S
H2572 C2586 0.930 . S
H2573 C2588 0.960 . S
H2574 C2588 0.960 . S
H2575 C2588 0.960 . S
C2576 H2568 0.929 . S
C2576 C2577 1.377 . S
C2576 C2578 1.384 . S
C2577 C2576 1.377 . S
C2577 C2583 1.390 . S
C2578 H2569 0.930 . S
C2578 C2576 1.384 . S
C2578 C2579 1.372 . S
C2579 C2578 1.372 . S
C2579 C2580 1.400 . S
C2579 C2584 1.490 . S
C2580 H2570 0.930 . S
C2580 C2579 1.400 . S
C2580 C2583 1.386 . S
H2581 C2597 0.930 . S
H2582 C2598 0.931 . S
C2583 H2571 0.929 . S
C2583 C2577 1.390 . S
C2583 C2580 1.386 . S
C2584 C2579 1.490 . S
C2584 C2586 1.395 . S
C2584 C2587 1.403 . S
H2585 C2591 0.930 . S
C2586 H2572 0.930 . S
C2586 C2584 1.395 . S
C2586 C2589 1.403 . S
C2587 C2584 1.403 . S
C2587 C2588 1.524 . S
C2587 C2591 1.400 . S
C2588 H2573 0.960 . S
C2588 H2574 0.960 . S
C2588 H2575 0.960 . S
C2588 C2587 1.524 . S
C2589 C2586 1.403 . S
C2589 C2590 1.392 . S
C2589 C2593 1.495 . S
C2590 C2589 1.392 . S
C2590 C2591 1.385 . S
C2590 C2592 1.478 . S
C2591 H2585 0.930 . S
C2591 C2587 1.400 . S
C2591 C2590 1.385 . S
C2592 C2590 1.478 . S
C2592 C2594 1.381 . S
C2592 C2598 1.383 . S
C2593 C2589 1.495 . S
C2593 H2599 0.959 . S
C2593 H2600 0.961 . S
C2593 H2601 0.960 . S
C2594 C2592 1.381 . S
C2594 C2595 1.394 . S
C2594 H2602 0.930 . S
C2595 C2594 1.394 . S
C2595 C2596 1.383 . S
C2595 H2603 0.929 . S
C2596 C2595 1.383 . S
C2596 C2597 1.377 . S
C2597 H2581 0.930 . S
C2597 C2596 1.377 . S
C2597 C2598 1.379 . S
C2598 H2582 0.931 . S
C2598 C2592 1.383 . S
C2598 C2597 1.379 . S
H2599 C2593 0.959 . S
H2600 C2593 0.961 . S
H2601 C2593 0.960 . S
H2602 C2594 0.930 . S
H2603 C2595 0.929 . S
H2604 C2612 0.929 . S
H2605 C2614 0.930 . S
H2606 C2616 0.930 . S
H2607 C2619 0.929 . S
H2608 C2622 0.927 . S
H2609 C2624 0.960 . S
H2610 C2624 0.960 . S
H2611 C2624 0.960 . S
C2612 H2604 0.929 . S
C2612 C2613 1.377 . S
C2612 C2614 1.384 . S
C2613 C2612 1.377 . S
C2613 C2619 1.390 . S
C2614 H2605 0.930 . S
C2614 C2612 1.384 . S
C2614 C2615 1.372 . S
C2615 C2614 1.372 . S
C2615 C2616 1.400 . S
C2615 C2620 1.490 . S
C2616 H2606 0.930 . S
C2616 C2615 1.400 . S
C2616 C2619 1.386 . S
H2617 C2633 0.930 . S
H2618 C2634 0.931 . S
C2619 H2607 0.929 . S
C2619 C2613 1.390 . S
C2619 C2616 1.386 . S
C2620 C2615 1.490 . S
C2620 C2622 1.405 . S
C2620 C2623 1.403 . S
H2621 C2627 0.930 . S
C2622 H2608 0.927 . S
C2622 C2620 1.405 . S
C2622 C2625 1.392 1_565 S
C2623 C2620 1.403 . S
C2623 C2624 1.524 . S
C2623 C2627 1.400 1_565 S
C2624 H2609 0.960 . S
C2624 H2610 0.960 . S
C2624 H2611 0.960 . S
C2624 C2623 1.524 . S
C2625 C2622 1.392 1_545 S
C2625 C2626 1.392 . S
C2625 C2629 1.495 . S
C2626 C2625 1.392 . S
C2626 C2627 1.385 . S
C2626 C2628 1.478 . S
C2627 H2621 0.930 . S
C2627 C2623 1.400 1_545 S
C2627 C2626 1.385 . S
C2628 C2626 1.478 . S
C2628 C2630 1.381 . S
C2628 C2634 1.383 . S
C2629 C2625 1.495 . S
C2629 H2635 0.959 . S
C2629 H2636 0.961 . S
C2629 H2637 0.960 . S
C2630 C2628 1.381 . S
C2630 C2631 1.394 . S
C2630 H2638 0.930 . S
C2631 C2630 1.394 . S
C2631 C2632 1.383 . S
C2631 H2639 0.929 . S
C2632 C2631 1.383 . S
C2632 C2633 1.377 . S
C2633 H2617 0.930 . S
C2633 C2632 1.377 . S
C2633 C2634 1.379 . S
C2634 H2618 0.931 . S
C2634 C2628 1.383 . S
C2634 C2633 1.379 . S
H2635 C2629 0.959 . S
H2636 C2629 0.961 . S
H2637 C2629 0.960 . S
H2638 C2630 0.930 . S
H2639 C2631 0.929 . S
H2640 C2648 0.929 . S
H2641 C2650 0.930 . S
H2642 C2652 0.930 . S
H2643 C2655 0.929 . S
H2644 C2658 0.930 . S
H2645 C2660 0.960 . S
H2646 C2660 0.960 . S
H2647 C2660 0.960 . S
C2648 H2640 0.929 . S
C2648 C2649 1.377 . S
C2648 C2650 1.384 . S
C2649 C2648 1.377 . S
C2649 C2655 1.390 . S
C2650 H2641 0.930 . S
C2650 C2648 1.384 . S
C2650 C2651 1.372 . S
C2651 C2650 1.372 . S
C2651 C2652 1.400 . S
C2651 C2656 1.490 . S
C2652 H2642 0.930 . S
C2652 C2651 1.400 . S
C2652 C2655 1.386 . S
H2653 C2669 0.930 . S
H2654 C2670 0.931 . S
C2655 H2643 0.929 . S
C2655 C2649 1.390 . S
C2655 C2652 1.386 . S
C2656 C2651 1.490 . S
C2656 C2658 1.395 . S
C2656 C2659 1.403 . S
H2657 C2663 0.930 . S
C2658 H2644 0.930 . S
C2658 C2656 1.395 . S
C2658 C2661 1.403 . S
C2659 C2656 1.403 . S
C2659 C2660 1.524 . S
C2659 C2663 1.400 . S
C2660 H2645 0.960 . S
C2660 H2646 0.960 . S
C2660 H2647 0.960 . S
C2660 C2659 1.524 . S
C2661 C2658 1.403 . S
C2661 C2662 1.392 . S
C2661 C2665 1.495 . S
C2662 C2661 1.392 . S
C2662 C2663 1.385 . S
C2662 C2664 1.478 . S
C2663 H2657 0.930 . S
C2663 C2659 1.400 . S
C2663 C2662 1.385 . S
C2664 C2662 1.478 . S
C2664 C2666 1.381 . S
C2664 C2670 1.383 . S
C2665 C2661 1.495 . S
C2665 H2671 0.959 . S
C2665 H2672 0.961 . S
C2665 H2673 0.960 . S
C2666 C2664 1.381 . S
C2666 C2667 1.394 . S
C2666 H2674 0.930 . S
C2667 C2666 1.394 . S
C2667 C2668 1.383 . S
C2667 H2675 0.929 . S
C2668 C2667 1.383 . S
C2668 C2669 1.377 . S
C2669 H2653 0.930 . S
C2669 C2668 1.377 . S
C2669 C2670 1.379 . S
C2670 H2654 0.931 . S
C2670 C2664 1.383 . S
C2670 C2669 1.379 . S
H2671 C2665 0.959 . S
H2672 C2665 0.961 . S
H2673 C2665 0.960 . S
H2674 C2666 0.930 . S
H2675 C2667 0.929 . S
H2676 C2684 0.929 . S
H2677 C2686 0.930 . S
H2678 C2688 0.930 . S
H2679 C2691 0.929 . S
H2680 C2694 0.930 . S
H2681 C2696 0.960 . S
H2682 C2696 0.960 . S
H2683 C2696 0.960 . S
C2684 H2676 0.929 . S
C2684 C2685 1.377 . S
C2684 C2686 1.384 . S
C2685 C2684 1.377 . S
C2685 C2691 1.390 . S
C2686 H2677 0.930 . S
C2686 C2684 1.384 . S
C2686 C2687 1.372 . S
C2687 C2686 1.372 . S
C2687 C2688 1.400 . S
C2687 C2692 1.490 . S
C2688 H2678 0.930 . S
C2688 C2687 1.400 . S
C2688 C2691 1.386 . S
H2689 C2705 0.930 . S
H2690 C2706 0.931 . S
C2691 H2679 0.929 . S
C2691 C2685 1.390 . S
C2691 C2688 1.386 . S
C2692 C2687 1.490 . S
C2692 C2694 1.395 . S
C2692 C2695 1.403 . S
H2693 C2699 0.930 . S
C2694 H2680 0.930 . S
C2694 C2692 1.395 . S
C2694 C2697 1.403 . S
C2695 C2692 1.403 . S
C2695 C2696 1.524 . S
C2695 C2699 1.400 . S
C2696 H2681 0.960 . S
C2696 H2682 0.960 . S
C2696 H2683 0.960 . S
C2696 C2695 1.524 . S
C2697 C2694 1.403 . S
C2697 C2698 1.392 . S
C2697 C2701 1.495 . S
C2698 C2697 1.392 . S
C2698 C2699 1.385 . S
C2698 C2700 1.478 . S
C2699 H2693 0.930 . S
C2699 C2695 1.400 . S
C2699 C2698 1.385 . S
C2700 C2698 1.478 . S
C2700 C2702 1.381 . S
C2700 C2706 1.383 . S
C2701 C2697 1.495 . S
C2701 H2707 0.959 . S
C2701 H2708 0.961 . S
C2701 H2709 0.960 . S
C2702 C2700 1.381 . S
C2702 C2703 1.394 . S
C2702 H2710 0.930 . S
C2703 C2702 1.394 . S
C2703 C2704 1.383 . S
C2703 H2711 0.929 . S
C2704 C2703 1.383 . S
C2704 C2705 1.377 . S
C2705 H2689 0.930 . S
C2705 C2704 1.377 . S
C2705 C2706 1.379 . S
C2706 H2690 0.931 . S
C2706 C2700 1.383 . S
C2706 C2705 1.379 . S
H2707 C2701 0.959 . S
H2708 C2701 0.961 . S
H2709 C2701 0.960 . S
H2710 C2702 0.930 . S
H2711 C2703 0.929 . S
H2712 C2720 0.929 . S
H2713 C2722 0.930 . S
H2714 C2724 0.930 . S
H2715 C2727 0.929 . S
H2716 C2730 0.930 . S
H2717 C2732 0.960 . S
H2718 C2732 0.960 . S
H2719 C2732 0.960 . S
C2720 H2712 0.929 . S
C2720 C2721 1.377 . S
C2720 C2722 1.384 . S
C2721 C2720 1.377 . S
C2721 C2727 1.390 . S
C2722 H2713 0.930 . S
C2722 C2720 1.384 . S
C2722 C2723 1.372 . S
C2723 C2722 1.372 . S
C2723 C2724 1.400 . S
C2723 C2728 1.490 . S
C2724 H2714 0.930 . S
C2724 C2723 1.400 . S
C2724 C2727 1.386 . S
H2725 C2741 0.930 . S
H2726 C2742 0.931 . S
C2727 H2715 0.929 . S
C2727 C2721 1.390 . S
C2727 C2724 1.386 . S
C2728 C2723 1.490 . S
C2728 C2730 1.395 . S
C2728 C2731 1.403 . S
H2729 C2735 0.930 . S
C2730 H2716 0.930 . S
C2730 C2728 1.395 . S
C2730 C2733 1.403 . S
C2731 C2728 1.403 . S
C2731 C2732 1.524 . S
C2731 C2735 1.400 . S
C2732 H2717 0.960 . S
C2732 H2718 0.960 . S
C2732 H2719 0.960 . S
C2732 C2731 1.524 . S
C2733 C2730 1.403 . S
C2733 C2734 1.392 . S
C2733 C2737 1.495 . S
C2734 C2733 1.392 . S
C2734 C2735 1.385 . S
C2734 C2736 1.478 . S
C2735 H2729 0.930 . S
C2735 C2731 1.400 . S
C2735 C2734 1.385 . S
C2736 C2734 1.478 . S
C2736 C2738 1.381 . S
C2736 C2742 1.383 . S
C2737 C2733 1.495 . S
C2737 H2743 0.959 . S
C2737 H2744 0.961 . S
C2737 H2745 0.960 . S
C2738 C2736 1.381 . S
C2738 C2739 1.394 . S
C2738 H2746 0.930 . S
C2739 C2738 1.394 . S
C2739 C2740 1.383 . S
C2739 H2747 0.929 . S
C2740 C2739 1.383 . S
C2740 C2741 1.377 . S
C2741 H2725 0.930 . S
C2741 C2740 1.377 . S
C2741 C2742 1.379 . S
C2742 H2726 0.931 . S
C2742 C2736 1.383 . S
C2742 C2741 1.379 . S
H2743 C2737 0.959 . S
H2744 C2737 0.961 . S
H2745 C2737 0.960 . S
H2746 C2738 0.930 . S
H2747 C2739 0.929 . S
H2748 C2756 0.929 . S
H2749 C2758 0.930 . S
H2750 C2760 0.930 . S
H2751 C2763 0.929 . S
H2752 C2766 0.933 . S
H2753 C2768 0.960 . S
H2754 C2768 0.960 . S
H2755 C2768 0.960 . S
C2756 H2748 0.929 . S
C2756 C2757 1.377 . S
C2756 C2758 1.384 . S
C2757 C2756 1.377 . S
C2757 C2763 1.390 . S
C2758 H2749 0.930 . S
C2758 C2756 1.384 . S
C2758 C2759 1.372 . S
C2759 C2758 1.372 . S
C2759 C2760 1.400 . S
C2759 C2764 1.490 . S
C2760 H2750 0.930 . S
C2760 C2759 1.400 . S
C2760 C2763 1.386 . S
H2761 C2777 0.930 . S
H2762 C2778 0.931 . S
C2763 H2751 0.929 . S
C2763 C2757 1.390 . S
C2763 C2760 1.386 . S
C2764 C2759 1.490 . S
C2764 C2766 1.420 . S
C2764 C2767 1.403 . S
H2765 C2771 0.930 . S
C2766 H2752 0.933 . S
C2766 C2764 1.420 . S
C2766 C2769 1.376 1_556 S
C2767 C2764 1.403 . S
C2767 C2768 1.524 . S
C2767 C2771 1.400 1_556 S
C2768 H2753 0.960 . S
C2768 H2754 0.960 . S
C2768 H2755 0.960 . S
C2768 C2767 1.524 . S
C2769 C2766 1.376 1_554 S
C2769 C2770 1.392 . S
C2769 C2773 1.495 . S
C2770 C2769 1.392 . S
C2770 C2771 1.385 . S
C2770 C2772 1.478 . S
C2771 H2765 0.930 . S
C2771 C2767 1.400 1_554 S
C2771 C2770 1.385 . S
C2772 C2770 1.478 . S
C2772 C2774 1.381 . S
C2772 C2778 1.383 . S
C2773 C2769 1.495 . S
C2773 H2779 0.959 . S
C2773 H2780 0.961 . S
C2773 H2781 0.960 . S
C2774 C2772 1.381 . S
C2774 C2775 1.394 . S
C2774 H2782 0.930 . S
C2775 C2774 1.394 . S
C2775 C2776 1.383 . S
C2775 H2783 0.929 . S
C2776 C2775 1.383 . S
C2776 C2777 1.377 . S
C2777 H2761 0.930 . S
C2777 C2776 1.377 . S
C2777 C2778 1.379 . S
C2778 H2762 0.931 . S
C2778 C2772 1.383 . S
C2778 C2777 1.379 . S
H2779 C2773 0.959 . S
H2780 C2773 0.961 . S
H2781 C2773 0.960 . S
H2782 C2774 0.930 . S
H2783 C2775 0.929 . S
H2784 C2792 0.929 . S
H2785 C2794 0.930 . S
H2786 C2796 0.930 . S
H2787 C2799 0.929 . S
H2788 C2802 0.930 . S
H2789 C2804 0.960 . S
H2790 C2804 0.960 . S
H2791 C2804 0.960 . S
C2792 H2784 0.929 . S
C2792 C2793 1.377 . S
C2792 C2794 1.384 . S
C2793 C2792 1.377 . S
C2793 C2799 1.390 . S
C2794 H2785 0.930 . S
C2794 C2792 1.384 . S
C2794 C2795 1.372 . S
C2795 C2794 1.372 . S
C2795 C2796 1.400 . S
C2795 C2800 1.490 . S
C2796 H2786 0.930 . S
C2796 C2795 1.400 . S
C2796 C2799 1.386 . S
H2797 C2813 0.930 . S
H2798 C2814 0.931 . S
C2799 H2787 0.929 . S
C2799 C2793 1.390 . S
C2799 C2796 1.386 . S
C2800 C2795 1.490 . S
C2800 C2802 1.395 . S
C2800 C2803 1.403 . S
H2801 C2807 0.930 . S
C2802 H2788 0.930 . S
C2802 C2800 1.395 . S
C2802 C2805 1.403 . S
C2803 C2800 1.403 . S
C2803 C2804 1.524 . S
C2803 C2807 1.400 . S
C2804 H2789 0.960 . S
C2804 H2790 0.960 . S
C2804 H2791 0.960 . S
C2804 C2803 1.524 . S
C2805 C2802 1.403 . S
C2805 C2806 1.392 . S
C2805 C2809 1.495 . S
C2806 C2805 1.392 . S
C2806 C2807 1.385 . S
C2806 C2808 1.478 . S
C2807 H2801 0.930 . S
C2807 C2803 1.400 . S
C2807 C2806 1.385 . S
C2808 C2806 1.478 . S
C2808 C2810 1.381 . S
C2808 C2814 1.383 . S
C2809 C2805 1.495 . S
C2809 H2815 0.959 . S
C2809 H2816 0.961 . S
C2809 H2817 0.960 . S
C2810 C2808 1.381 . S
C2810 C2811 1.394 . S
C2810 H2818 0.930 . S
C2811 C2810 1.394 . S
C2811 C2812 1.383 . S
C2811 H2819 0.929 . S
C2812 C2811 1.383 . S
C2812 C2813 1.377 . S
C2813 H2797 0.930 . S
C2813 C2812 1.377 . S
C2813 C2814 1.379 . S
C2814 H2798 0.931 . S
C2814 C2808 1.383 . S
C2814 C2813 1.379 . S
H2815 C2809 0.959 . S
H2816 C2809 0.961 . S
H2817 C2809 0.960 . S
H2818 C2810 0.930 . S
H2819 C2811 0.929 . S
H2820 C2828 0.929 . S
H2821 C2830 0.930 . S
H2822 C2832 0.930 . S
H2823 C2835 0.929 . S
H2824 C2838 0.930 . S
H2825 C2840 0.960 1_554 S
H2826 C2840 0.960 . S
H2827 C2840 0.960 . S
C2828 H2820 0.929 . S
C2828 C2829 1.377 . S
C2828 C2830 1.384 . S
C2829 C2828 1.377 . S
C2829 C2835 1.390 . S
C2830 H2821 0.930 . S
C2830 C2828 1.384 . S
C2830 C2831 1.372 . S
C2831 C2830 1.372 . S
C2831 C2832 1.400 . S
C2831 C2836 1.490 . S
C2832 H2822 0.930 . S
C2832 C2831 1.400 . S
C2832 C2835 1.386 . S
H2833 C2849 0.930 . S
H2834 C2850 0.931 . S
C2835 H2823 0.929 . S
C2835 C2829 1.390 . S
C2835 C2832 1.386 . S
C2836 C2831 1.490 . S
C2836 C2838 1.395 . S
C2836 C2839 1.403 . S
H2837 C2843 0.930 . S
C2838 H2824 0.930 . S
C2838 C2836 1.395 . S
C2838 C2841 1.328 1_556 S
C2839 C2836 1.403 . S
C2839 C2840 1.524 . S
C2839 C2843 1.400 1_556 S
C2840 H2825 0.960 1_556 S
C2840 H2826 0.960 . S
C2840 H2827 0.960 . S
C2840 C2839 1.524 . S
C2841 C2838 1.328 1_554 S
C2841 C2842 1.460 . S
C2841 C2845 1.506 . S
C2842 C2841 1.460 . S
C2842 C2843 1.385 . S
C2842 C2844 1.478 . S
C2843 H2837 0.930 . S
C2843 C2839 1.400 1_554 S
C2843 C2842 1.385 . S
C2844 C2842 1.478 . S
C2844 C2846 1.381 . S
C2844 C2850 1.383 . S
C2845 C2841 1.506 . S
C2845 H2851 0.959 1_554 S
C2845 H2852 0.961 . S
C2845 H2853 0.960 . S
C2846 C2844 1.381 . S
C2846 C2847 1.394 . S
C2846 H2854 0.930 . S
C2847 C2846 1.394 . S
C2847 C2848 1.383 . S
C2847 H2855 0.929 . S
C2848 C2847 1.383 . S
C2848 C2849 1.377 . S
C2849 H2833 0.930 . S
C2849 C2848 1.377 . S
C2849 C2850 1.379 . S
C2850 H2834 0.931 . S
C2850 C2844 1.383 . S
C2850 C2849 1.379 . S
H2851 C2845 0.959 1_556 S
H2852 C2845 0.961 . S
H2853 C2845 0.960 . S
H2854 C2846 0.930 . S
H2855 C2847 0.929 . S
H2856 C2864 0.929 . S
H2857 C2866 0.930 . S
H2858 C2868 0.930 . S
H2859 C2871 0.929 . S
H2860 C2874 0.930 . S
H2861 C2876 0.960 . S
H2862 C2876 0.960 . S
H2863 C2876 0.960 . S
C2864 H2856 0.929 . S
C2864 C2865 1.377 . S
C2864 C2866 1.384 . S
C2865 C2864 1.377 . S
C2865 C2871 1.390 . S
C2866 H2857 0.930 . S
C2866 C2864 1.384 . S
C2866 C2867 1.372 . S
C2867 C2866 1.372 . S
C2867 C2868 1.400 . S
C2867 C2872 1.490 . S
C2868 H2858 0.930 . S
C2868 C2867 1.400 . S
C2868 C2871 1.386 . S
H2869 C2885 0.930 . S
H2870 C2886 0.931 . S
C2871 H2859 0.929 . S
C2871 C2865 1.390 . S
C2871 C2868 1.386 . S
C2872 C2867 1.490 . S
C2872 C2874 1.395 1_565 S
C2872 C2875 1.403 . S
H2873 C2879 0.938 . S
C2874 H2860 0.930 . S
C2874 C2872 1.395 1_545 S
C2874 C2877 1.403 . S
C2875 C2872 1.403 . S
C2875 C2876 1.524 . S
C2875 C2879 1.440 . S
C2876 H2861 0.960 . S
C2876 H2862 0.960 . S
C2876 H2863 0.960 . S
C2876 C2875 1.524 . S
C2877 C2874 1.403 . S
C2877 C2878 1.392 . S
C2877 C2881 1.495 . S
C2878 C2877 1.392 . S
C2878 C2879 1.342 1_545 S
C2878 C2880 1.478 . S
C2879 H2873 0.938 . S
C2879 C2875 1.440 . S
C2879 C2878 1.342 1_565 S
C2880 C2878 1.478 . S
C2880 C2882 1.381 . S
C2880 C2886 1.383 . S
C2881 C2877 1.495 . S
C2881 H2887 0.959 . S
C2881 H2888 0.961 . S
C2881 H2889 0.960 . S
C2882 C2880 1.381 . S
C2882 C2883 1.394 . S
C2882 H2890 0.930 . S
C2883 C2882 1.394 . S
C2883 C2884 1.383 . S
C2883 H2891 0.929 . S
C2884 C2883 1.383 . S
C2884 C2885 1.377 . S
C2885 H2869 0.930 . S
C2885 C2884 1.377 . S
C2885 C2886 1.379 . S
C2886 H2870 0.931 . S
C2886 C2880 1.383 . S
C2886 C2885 1.379 . S
H2887 C2881 0.959 . S
H2888 C2881 0.961 . S
H2889 C2881 0.960 . S
H2890 C2882 0.930 . S
H2891 C2883 0.929 . S
H2892 C2900 0.929 . S
H2893 C2902 0.930 . S
H2894 C2904 0.930 . S
H2895 C2907 0.929 . S
H2896 C2910 0.930 . S
H2897 C2912 0.960 . S
H2898 C2912 0.960 . S
H2899 C2912 0.960 . S
C2900 H2892 0.929 . S
C2900 C2901 1.377 . S
C2900 C2902 1.384 . S
C2901 C2900 1.377 . S
C2901 C2907 1.390 . S
C2902 H2893 0.930 . S
C2902 C2900 1.384 . S
C2902 C2903 1.372 . S
C2903 C2902 1.372 . S
C2903 C2904 1.400 . S
C2903 C2908 1.490 . S
C2904 H2894 0.930 . S
C2904 C2903 1.400 . S
C2904 C2907 1.386 . S
H2905 C2921 0.930 . S
H2906 C2922 0.931 . S
C2907 H2895 0.929 . S
C2907 C2901 1.390 . S
C2907 C2904 1.386 . S
C2908 C2903 1.490 . S
C2908 C2910 1.395 . S
C2908 C2911 1.403 . S
H2909 C2915 0.930 . S
C2910 H2896 0.930 . S
C2910 C2908 1.395 . S
C2910 C2913 1.403 . S
C2911 C2908 1.403 . S
C2911 C2912 1.524 . S
C2911 C2915 1.400 . S
C2912 H2897 0.960 . S
C2912 H2898 0.960 . S
C2912 H2899 0.960 . S
C2912 C2911 1.524 . S
C2913 C2910 1.403 . S
C2913 C2914 1.392 . S
C2913 C2917 1.495 . S
C2914 C2913 1.392 . S
C2914 C2915 1.385 . S
C2914 C2916 1.478 . S
C2915 H2909 0.930 . S
C2915 C2911 1.400 . S
C2915 C2914 1.385 . S
C2916 C2914 1.478 . S
C2916 C2918 1.381 . S
C2916 C2922 1.383 . S
C2917 C2913 1.495 . S
C2917 H2923 0.959 . S
C2917 H2924 0.961 . S
C2917 H2925 0.960 . S
C2918 C2916 1.381 . S
C2918 C2919 1.394 . S
C2918 H2926 0.930 . S
C2919 C2918 1.394 . S
C2919 C2920 1.383 . S
C2919 H2927 0.929 . S
C2920 C2919 1.383 . S
C2920 C2921 1.377 . S
C2921 H2905 0.930 . S
C2921 C2920 1.377 . S
C2921 C2922 1.379 . S
C2922 H2906 0.931 . S
C2922 C2916 1.383 . S
C2922 C2921 1.379 . S
H2923 C2917 0.959 . S
H2924 C2917 0.961 . S
H2925 C2917 0.960 . S
H2926 C2918 0.930 . S
H2927 C2919 0.929 . S
H2928 C2936 0.929 . S
H2929 C2938 0.842 1_545 S
H2930 C2940 0.930 . S
H2931 C2943 0.929 . S
H2932 C2946 0.930 . S
H2933 C2948 0.960 . S
H2934 C2948 0.960 . S
H2935 C2948 0.960 . S
C2936 H2928 0.929 . S
C2936 C2937 1.377 . S
C2936 C2938 1.384 . S
C2937 C2936 1.377 . S
C2937 C2943 1.390 . S
C2938 H2929 0.842 1_565 S
C2938 C2936 1.384 . S
C2938 C2939 1.372 . S
C2939 C2938 1.372 . S
C2939 C2940 1.400 . S
C2939 C2944 1.490 . S
C2940 H2930 0.930 . S
C2940 C2939 1.400 . S
C2940 C2943 1.386 . S
H2941 C2957 0.930 . S
H2942 C2958 0.999 . S
C2943 H2931 0.929 . S
C2943 C2937 1.390 . S
C2943 C2940 1.386 . S
C2944 C2939 1.490 . S
C2944 C2946 1.395 1_565 S
C2944 C2947 1.403 . S
H2945 C2951 0.937 . S
C2946 H2932 0.930 . S
C2946 C2944 1.395 1_545 S
C2946 C2949 1.403 . S
C2947 C2944 1.403 . S
C2947 C2948 1.524 . S
C2947 C2951 1.423 . S
C2948 H2933 0.960 . S
C2948 H2934 0.960 . S
C2948 H2935 0.960 . S
C2948 C2947 1.524 . S
C2949 C2946 1.403 . S
C2949 C2950 1.392 . S
C2949 C2953 1.495 . S
C2950 C2949 1.392 . S
C2950 C2951 1.358 1_545 S
C2950 C2952 1.478 . S
C2951 H2945 0.937 . S
C2951 C2947 1.423 . S
C2951 C2950 1.358 1_565 S
C2952 C2950 1.478 . S
C2952 C2954 1.381 . S
C2952 C2958 1.383 . S
C2953 C2949 1.495 . S
C2953 H2959 0.959 . S
C2953 H2960 0.961 . S
C2953 H2961 0.960 . S
C2954 C2952 1.381 . S
C2954 C2955 1.394 . S
C2954 H2962 0.930 . S
C2955 C2954 1.394 . S
C2955 C2956 1.383 . S
C2955 H2963 0.929 . S
C2956 C2955 1.383 . S
C2956 C2957 1.377 . S
C2957 H2941 0.930 . S
C2957 C2956 1.377 . S
C2957 C2958 1.379 . S
C2958 H2942 0.999 . S
C2958 C2952 1.383 . S
C2958 C2957 1.379 . S
H2959 C2953 0.959 . S
H2960 C2953 0.961 . S
H2961 C2953 0.960 . S
H2962 C2954 0.930 . S
H2963 C2955 0.929 . S
H2964 C2972 0.929 . S
H2965 C2974 0.930 . S
H2966 C2976 0.930 . S
H2967 C2979 0.929 . S
H2968 C2982 0.930 . S
H2969 C2984 0.960 . S
H2970 C2984 0.960 . S
H2971 C2984 0.960 . S
C2972 H2964 0.929 . S
C2972 C2973 1.377 . S
C2972 C2974 1.384 . S
C2973 C2972 1.377 . S
C2973 C2979 1.390 . S
C2974 H2965 0.930 . S
C2974 C2972 1.384 . S
C2974 C2975 1.372 . S
C2975 C2974 1.372 . S
C2975 C2976 1.400 . S
C2975 C2980 1.490 . S
C2976 H2966 0.930 . S
C2976 C2975 1.400 . S
C2976 C2979 1.386 . S
H2977 C2993 0.930 . S
H2978 C2994 0.931 . S
C2979 H2967 0.929 . S
C2979 C2973 1.390 . S
C2979 C2976 1.386 . S
C2980 C2975 1.490 . S
C2980 C2982 1.395 . S
C2980 C2983 1.403 . S
H2981 C2987 0.930 . S
C2982 H2968 0.930 . S
C2982 C2980 1.395 . S
C2982 C2985 1.403 . S
C2983 C2980 1.403 . S
C2983 C2984 1.524 . S
C2983 C2987 1.400 . S
C2984 H2969 0.960 . S
C2984 H2970 0.960 . S
C2984 H2971 0.960 . S
C2984 C2983 1.524 . S
C2985 C2982 1.403 . S
C2985 C2986 1.392 . S
C2985 C2989 1.495 . S
C2986 C2985 1.392 . S
C2986 C2987 1.385 . S
C2986 C2988 1.478 . S
C2987 H2981 0.930 . S
C2987 C2983 1.400 . S
C2987 C2986 1.385 . S
C2988 C2986 1.478 . S
C2988 C2990 1.381 . S
C2988 C2994 1.383 . S
C2989 C2985 1.495 . S
C2989 H2995 0.959 . S
C2989 H2996 0.961 . S
C2989 H2997 0.960 . S
C2990 C2988 1.381 . S
C2990 C2991 1.394 . S
C2990 H2998 0.930 . S
C2991 C2990 1.394 . S
C2991 C2992 1.383 . S
C2991 H2999 0.929 . S
C2992 C2991 1.383 . S
C2992 C2993 1.377 . S
C2993 H2977 0.930 . S
C2993 C2992 1.377 . S
C2993 C2994 1.379 . S
C2994 H2978 0.931 . S
C2994 C2988 1.383 . S
C2994 C2993 1.379 . S
H2995 C2989 0.959 . S
H2996 C2989 0.961 . S
H2997 C2989 0.960 . S
H2998 C2990 0.930 . S
H2999 C2991 0.929 . S
H3000 C3008 0.929 . S
H3001 C3010 0.930 . S
H3002 C3012 0.930 . S
H3003 C3015 0.929 . S
H3004 C3018 0.930 . S
H3005 C3020 0.960 . S
H3006 C3020 0.960 . S
H3007 C3020 0.960 . S
C3008 H3000 0.929 . S
C3008 C3009 1.377 . S
C3008 C3010 1.384 . S
C3009 C3008 1.377 . S
C3009 C3015 1.390 . S
C3010 H3001 0.930 . S
C3010 C3008 1.384 . S
C3010 C3011 1.372 . S
C3011 C3010 1.372 . S
C3011 C3012 1.400 . S
C3011 C3016 1.490 . S
C3012 H3002 0.930 . S
C3012 C3011 1.400 . S
C3012 C3015 1.386 . S
H3013 C3029 0.930 . S
H3014 C3030 0.931 . S
C3015 H3003 0.929 . S
C3015 C3009 1.390 . S
C3015 C3012 1.386 . S
C3016 C3011 1.490 . S
C3016 C3018 1.395 . S
C3016 C3019 1.403 . S
H3017 C3023 0.930 . S
C3018 H3004 0.930 . S
C3018 C3016 1.395 . S
C3018 C3021 1.403 . S
C3019 C3016 1.403 . S
C3019 C3020 1.524 . S
C3019 C3023 1.400 . S
C3020 H3005 0.960 . S
C3020 H3006 0.960 . S
C3020 H3007 0.960 . S
C3020 C3019 1.524 . S
C3021 C3018 1.403 . S
C3021 C3022 1.392 . S
C3021 C3025 1.495 . S
C3022 C3021 1.392 . S
C3022 C3023 1.385 . S
C3022 C3024 1.478 . S
C3023 H3017 0.930 . S
C3023 C3019 1.400 . S
C3023 C3022 1.385 . S
C3024 C3022 1.478 . S
C3024 C3026 1.381 . S
C3024 C3030 1.383 . S
C3025 C3021 1.495 . S
C3025 H3031 0.959 . S
C3025 H3032 0.961 . S
C3025 H3033 0.960 . S
C3026 C3024 1.381 . S
C3026 C3027 1.394 . S
C3026 H3034 0.930 . S
C3027 C3026 1.394 . S
C3027 C3028 1.383 . S
C3027 H3035 0.929 . S
C3028 C3027 1.383 . S
C3028 C3029 1.377 . S
C3029 H3013 0.930 . S
C3029 C3028 1.377 . S
C3029 C3030 1.379 . S
C3030 H3014 0.931 . S
C3030 C3024 1.383 . S
C3030 C3029 1.379 . S
H3031 C3025 0.959 . S
H3032 C3025 0.961 . S
H3033 C3025 0.960 . S
H3034 C3026 0.930 . S
H3035 C3027 0.929 . S
H3036 C3044 0.929 . S
H3037 C3046 0.930 . S
H3038 C3048 0.930 . S
H3039 C3051 0.929 . S
H3040 C3054 0.930 . S
H3041 C3056 0.960 . S
H3042 C3056 0.960 . S
H3043 C3056 0.960 . S
C3044 H3036 0.929 . S
C3044 C3045 1.377 . S
C3044 C3046 1.384 . S
C3045 C3044 1.377 . S
C3045 C3051 1.390 . S
C3046 H3037 0.930 . S
C3046 C3044 1.384 . S
C3046 C3047 1.372 . S
C3047 C3046 1.372 . S
C3047 C3048 1.400 . S
C3047 C3052 1.490 . S
C3048 H3038 0.930 . S
C3048 C3047 1.400 . S
C3048 C3051 1.386 . S
H3049 C3065 0.930 . S
H3050 C3066 0.931 . S
C3051 H3039 0.929 . S
C3051 C3045 1.390 . S
C3051 C3048 1.386 . S
C3052 C3047 1.490 . S
C3052 C3054 1.395 . S
C3052 C3055 1.403 . S
H3053 C3059 0.930 . S
C3054 H3040 0.930 . S
C3054 C3052 1.395 . S
C3054 C3057 1.403 . S
C3055 C3052 1.403 . S
C3055 C3056 1.524 . S
C3055 C3059 1.400 . S
C3056 H3041 0.960 . S
C3056 H3042 0.960 . S
C3056 H3043 0.960 . S
C3056 C3055 1.524 . S
C3057 C3054 1.403 . S
C3057 C3058 1.392 . S
C3057 C3061 1.495 . S
C3058 C3057 1.392 . S
C3058 C3059 1.385 . S
C3058 C3060 1.478 . S
C3059 H3053 0.930 . S
C3059 C3055 1.400 . S
C3059 C3058 1.385 . S
C3060 C3058 1.478 . S
C3060 C3062 1.381 . S
C3060 C3066 1.383 . S
C3061 C3057 1.495 . S
C3061 H3067 0.959 . S
C3061 H3068 0.961 . S
C3061 H3069 0.960 . S
C3062 C3060 1.381 . S
C3062 C3063 1.394 . S
C3062 H3070 0.930 . S
C3063 C3062 1.394 . S
C3063 C3064 1.383 . S
C3063 H3071 0.929 . S
C3064 C3063 1.383 . S
C3064 C3065 1.377 . S
C3065 H3049 0.930 . S
C3065 C3064 1.377 . S
C3065 C3066 1.379 . S
C3066 H3050 0.931 . S
C3066 C3060 1.383 . S
C3066 C3065 1.379 . S
H3067 C3061 0.959 . S
H3068 C3061 0.961 . S
H3069 C3061 0.960 . S
H3070 C3062 0.930 . S
H3071 C3063 0.929 . S
H3072 C3080 0.929 . S
H3073 C3082 0.930 . S
H3074 C3084 0.930 . S
H3075 C3087 0.929 . S
H3076 C3090 0.930 . S
H3077 C3092 0.960 . S
H3078 C3092 0.960 . S
H3079 C3092 0.960 . S
C3080 H3072 0.929 . S
C3080 C3081 1.377 . S
C3080 C3082 1.384 . S
C3081 C3080 1.377 . S
C3081 C3087 1.390 . S
C3082 H3073 0.930 . S
C3082 C3080 1.384 . S
C3082 C3083 1.372 . S
C3083 C3082 1.372 . S
C3083 C3084 1.400 . S
C3083 C3088 1.490 . S
C3084 H3074 0.930 . S
C3084 C3083 1.400 . S
C3084 C3087 1.386 . S
H3085 C3101 0.930 . S
H3086 C3102 0.931 . S
C3087 H3075 0.929 . S
C3087 C3081 1.390 . S
C3087 C3084 1.386 . S
C3088 C3083 1.490 . S
C3088 C3090 1.395 1_455 S
C3088 C3091 1.403 . S
H3089 C3095 0.930 1_455 S
C3090 H3076 0.930 . S
C3090 C3088 1.395 1_655 S
C3090 C3093 1.403 . S
C3091 C3088 1.403 . S
C3091 C3092 1.524 . S
C3091 C3095 1.400 1_455 S
C3092 H3077 0.960 . S
C3092 H3078 0.960 . S
C3092 H3079 0.960 . S
C3092 C3091 1.524 . S
C3093 C3090 1.403 . S
C3093 C3094 1.392 . S
C3093 C3097 1.495 . S
C3094 C3093 1.392 . S
C3094 C3095 1.385 . S
C3094 C3096 1.478 . S
C3095 H3089 0.930 1_655 S
C3095 C3091 1.400 1_655 S
C3095 C3094 1.385 . S
C3096 C3094 1.478 . S
C3096 C3098 1.381 . S
C3096 C3102 1.383 . S
C3097 C3093 1.495 . S
C3097 H3103 0.959 . S
C3097 H3104 0.961 . S
C3097 H3105 0.960 . S
C3098 C3096 1.381 . S
C3098 C3099 1.394 . S
C3098 H3106 0.930 . S
C3099 C3098 1.394 . S
C3099 C3100 1.383 . S
C3099 H3107 0.929 . S
C3100 C3099 1.383 . S
C3100 C3101 1.377 . S
C3101 H3085 0.930 . S
C3101 C3100 1.377 . S
C3101 C3102 1.379 . S
C3102 H3086 0.931 . S
C3102 C3096 1.383 . S
C3102 C3101 1.379 . S
H3103 C3097 0.959 . S
H3104 C3097 0.961 . S
H3105 C3097 0.960 . S
H3106 C3098 0.930 . S
H3107 C3099 0.929 . S
H3108 C3116 0.929 . S
H3109 C3118 0.930 . S
H3110 C3120 0.930 . S
H3111 C3123 0.929 . S
H3112 C3126 0.923 1_455 S
H3113 C3128 0.960 . S
H3114 C3128 0.960 . S
H3115 C3128 0.960 . S
C3116 H3108 0.929 . S
C3116 C3117 1.377 . S
C3116 C3118 1.384 . S
C3117 C3116 1.377 . S
C3117 C3123 1.390 . S
C3118 H3109 0.930 . S
C3118 C3116 1.384 . S
C3118 C3119 1.372 . S
C3119 C3118 1.372 . S
C3119 C3120 1.400 . S
C3119 C3124 1.490 . S
C3120 H3110 0.930 . S
C3120 C3119 1.400 . S
C3120 C3123 1.386 . S
H3121 C3137 0.930 . S
H3122 C3138 0.931 . S
C3123 H3111 0.929 . S
C3123 C3117 1.390 . S
C3123 C3120 1.386 . S
C3124 C3119 1.490 . S
C3124 C3126 1.428 . S
C3124 C3127 1.403 . S
H3125 C3131 0.930 . S
C3126 H3112 0.923 1_655 S
C3126 C3124 1.428 . S
C3126 C3129 1.377 1_655 S
C3127 C3124 1.403 . S
C3127 C3128 1.524 . S
C3127 C3131 1.400 . S
C3128 H3113 0.960 . S
C3128 H3114 0.960 . S
C3128 H3115 0.960 . S
C3128 C3127 1.524 . S
C3129 C3126 1.377 1_455 S
C3129 C3130 1.392 . S
C3129 C3133 1.495 . S
C3130 C3129 1.392 . S
C3130 C3131 1.385 1_455 S
C3130 C3132 1.478 . S
C3131 H3125 0.930 . S
C3131 C3127 1.400 . S
C3131 C3130 1.385 1_655 S
C3132 C3130 1.478 . S
C3132 C3134 1.381 . S
C3132 C3138 1.383 . S
C3133 C3129 1.495 . S
C3133 H3139 0.959 . S
C3133 H3140 0.961 . S
C3133 H3141 0.960 . S
C3134 C3132 1.381 . S
C3134 C3135 1.394 . S
C3134 H3142 0.930 . S
C3135 C3134 1.394 . S
C3135 C3136 1.383 . S
C3135 H3143 0.929 . S
C3136 C3135 1.383 . S
C3136 C3137 1.377 . S
C3137 H3121 0.930 . S
C3137 C3136 1.377 . S
C3137 C3138 1.379 . S
C3138 H3122 0.931 . S
C3138 C3132 1.383 . S
C3138 C3137 1.379 . S
H3139 C3133 0.959 . S
H3140 C3133 0.961 . S
H3141 C3133 0.960 . S
H3142 C3134 0.930 . S
H3143 C3135 0.929 . S
H3144 C3152 0.929 . S
H3145 C3154 0.930 1_455 S
H3146 C3156 0.930 . S
H3147 C3159 0.929 . S
H3148 C3162 0.930 . S
H3149 C3164 0.960 . S
H3150 C3164 0.960 . S
H3151 C3164 0.960 . S
C3152 H3144 0.929 . S
C3152 C3153 1.377 . S
C3152 C3154 1.384 . S
C3153 C3152 1.377 . S
C3153 C3159 1.390 . S
C3154 H3145 0.930 1_655 S
C3154 C3152 1.384 . S
C3154 C3155 1.372 . S
C3155 C3154 1.372 . S
C3155 C3156 1.400 . S
C3155 C3160 1.490 . S
C3156 H3146 0.930 . S
C3156 C3155 1.400 . S
C3156 C3159 1.386 . S
H3157 C3173 0.930 . S
H3158 C3174 0.931 . S
C3159 H3147 0.929 . S
C3159 C3153 1.390 . S
C3159 C3156 1.386 . S
C3160 C3155 1.490 . S
C3160 C3162 1.395 1_655 S
C3160 C3163 1.403 . S
H3161 C3167 0.930 . S
C3162 H3148 0.930 . S
C3162 C3160 1.395 1_455 S
C3162 C3165 1.403 . S
C3163 C3160 1.403 . S
C3163 C3164 1.524 . S
C3163 C3167 1.400 1_655 S
C3164 H3149 0.960 . S
C3164 H3150 0.960 . S
C3164 H3151 0.960 . S
C3164 C3163 1.524 . S
C3165 C3162 1.403 . S
C3165 C3166 1.392 . S
C3165 C3169 1.495 . S
C3166 C3165 1.392 . S
C3166 C3167 1.385 . S
C3166 C3168 1.478 . S
C3167 H3161 0.930 . S
C3167 C3163 1.400 1_455 S
C3167 C3166 1.385 . S
C3168 C3166 1.478 . S
C3168 C3170 1.381 . S
C3168 C3174 1.383 . S
C3169 C3165 1.495 . S
C3169 H3175 0.959 . S
C3169 H3176 0.961 . S
C3169 H3177 0.960 . S
C3170 C3168 1.381 . S
C3170 C3171 1.394 . S
C3170 H3178 0.930 . S
C3171 C3170 1.394 . S
C3171 C3172 1.383 . S
C3171 H3179 0.929 . S
C3172 C3171 1.383 . S
C3172 C3173 1.377 . S
C3173 H3157 0.930 . S
C3173 C3172 1.377 . S
C3173 C3174 1.379 . S
C3174 H3158 0.931 . S
C3174 C3168 1.383 . S
C3174 C3173 1.379 . S
H3175 C3169 0.959 . S
H3176 C3169 0.961 . S
H3177 C3169 0.960 . S
H3178 C3170 0.930 . S
H3179 C3171 0.929 . S
H3180 C3188 0.929 . S
H3181 C3190 0.930 . S
H3182 C3192 0.930 . S
H3183 C3195 0.929 . S
H3184 C3198 0.930 . S
H3185 C3200 0.960 . S
H3186 C3200 0.960 . S
H3187 C3200 0.960 . S
C3188 H3180 0.929 . S
C3188 C3189 1.377 . S
C3188 C3190 1.384 . S
C3189 C3188 1.377 . S
C3189 C3195 1.390 . S
C3190 H3181 0.930 . S
C3190 C3188 1.384 . S
C3190 C3191 1.372 . S
C3191 C3190 1.372 . S
C3191 C3192 1.400 . S
C3191 C3196 1.490 . S
C3192 H3182 0.930 . S
C3192 C3191 1.400 . S
C3192 C3195 1.386 . S
H3193 C3209 0.930 . S
H3194 C3210 0.931 . S
C3195 H3183 0.929 . S
C3195 C3189 1.390 . S
C3195 C3192 1.386 . S
C3196 C3191 1.490 . S
C3196 C3198 1.395 1_655 S
C3196 C3199 1.403 . S
H3197 C3203 0.930 . S
C3198 H3184 0.930 . S
C3198 C3196 1.395 1_455 S
C3198 C3201 1.403 . S
C3199 C3196 1.403 . S
C3199 C3200 1.524 . S
C3199 C3203 1.400 1_655 S
C3200 H3185 0.960 . S
C3200 H3186 0.960 . S
C3200 H3187 0.960 . S
C3200 C3199 1.524 . S
C3201 C3198 1.403 . S
C3201 C3202 1.392 . S
C3201 C3205 1.495 . S
C3202 C3201 1.392 . S
C3202 C3203 1.385 . S
C3202 C3204 1.478 . S
C3203 H3197 0.930 . S
C3203 C3199 1.400 1_455 S
C3203 C3202 1.385 . S
C3204 C3202 1.478 . S
C3204 C3206 1.381 . S
C3204 C3210 1.383 . S
C3205 C3201 1.495 . S
C3205 H3211 0.959 . S
C3205 H3212 0.961 . S
C3205 H3213 0.960 . S
C3206 C3204 1.381 . S
C3206 C3207 1.394 . S
C3206 H3214 0.930 . S
C3207 C3206 1.394 . S
C3207 C3208 1.383 . S
C3207 H3215 0.929 . S
C3208 C3207 1.383 . S
C3208 C3209 1.377 . S
C3209 H3193 0.930 . S
C3209 C3208 1.377 . S
C3209 C3210 1.379 . S
C3210 H3194 0.931 . S
C3210 C3204 1.383 . S
C3210 C3209 1.379 . S
H3211 C3205 0.959 . S
H3212 C3205 0.961 . S
H3213 C3205 0.960 . S
H3214 C3206 0.930 . S
H3215 C3207 0.929 . S
H3216 C3224 0.929 . S
H3217 C3226 0.930 . S
H3218 C3228 0.930 . S
H3219 C3231 0.929 . S
H3220 C3234 0.930 . S
H3221 C3236 0.960 . S
H3222 C3236 0.960 . S
H3223 C3236 0.960 . S
C3224 H3216 0.929 . S
C3224 C3225 1.377 . S
C3224 C3226 1.384 . S
C3225 C3224 1.377 . S
C3225 C3231 1.390 . S
C3226 H3217 0.930 . S
C3226 C3224 1.384 . S
C3226 C3227 1.372 . S
C3227 C3226 1.372 . S
C3227 C3228 1.400 . S
C3227 C3232 1.490 . S
C3228 H3218 0.930 . S
C3228 C3227 1.400 . S
C3228 C3231 1.386 . S
H3229 C3245 0.930 . S
H3230 C3246 0.931 . S
C3231 H3219 0.929 . S
C3231 C3225 1.390 . S
C3231 C3228 1.386 . S
C3232 C3227 1.490 . S
C3232 C3234 1.395 . S
C3232 C3235 1.403 1_455 S
H3233 C3239 0.930 . S
C3234 H3220 0.930 . S
C3234 C3232 1.395 . S
C3234 C3237 1.403 . S
C3235 C3232 1.403 1_655 S
C3235 C3236 1.524 . S
C3235 C3239 1.400 . S
C3236 H3221 0.960 . S
C3236 H3222 0.960 . S
C3236 H3223 0.960 . S
C3236 C3235 1.524 . S
C3237 C3234 1.403 . S
C3237 C3238 1.392 1_455 S
C3237 C3241 1.495 . S
C3238 C3237 1.392 1_655 S
C3238 C3239 1.385 . S
C3238 C3240 1.478 . S
C3239 H3233 0.930 . S
C3239 C3235 1.400 . S
C3239 C3238 1.385 . S
C3240 C3238 1.478 . S
C3240 C3242 1.381 . S
C3240 C3246 1.383 . S
C3241 C3237 1.495 . S
C3241 H3247 0.959 . S
C3241 H3248 0.961 . S
C3241 H3249 0.960 . S
C3242 C3240 1.381 . S
C3242 C3243 1.394 . S
C3242 H3250 0.930 . S
C3243 C3242 1.394 . S
C3243 C3244 1.383 . S
C3243 H3251 0.929 . S
C3244 C3243 1.383 . S
C3244 C3245 1.377 . S
C3245 H3229 0.930 . S
C3245 C3244 1.377 . S
C3245 C3246 1.379 . S
C3246 H3230 0.931 . S
C3246 C3240 1.383 . S
C3246 C3245 1.379 . S
H3247 C3241 0.959 . S
H3248 C3241 0.961 . S
H3249 C3241 0.960 . S
H3250 C3242 0.930 . S
H3251 C3243 0.929 . S
H3252 C3260 0.929 . S
H3253 C3262 0.930 . S
H3254 C3264 0.930 . S
H3255 C3267 0.929 . S
H3256 C3270 0.930 . S
H3257 C3272 0.960 . S
H3258 C3272 0.960 . S
H3259 C3272 0.960 . S
C3260 H3252 0.929 . S
C3260 C3261 1.377 . S
C3260 C3262 1.384 . S
C3261 C3260 1.377 . S
C3261 C3267 1.390 . S
C3262 H3253 0.930 . S
C3262 C3260 1.384 . S
C3262 C3263 1.372 . S
C3263 C3262 1.372 . S
C3263 C3264 1.400 . S
C3263 C3268 1.490 . S
C3264 H3254 0.930 . S
C3264 C3263 1.400 . S
C3264 C3267 1.386 . S
H3265 C3281 0.930 . S
H3266 C3282 0.931 . S
C3267 H3255 0.929 . S
C3267 C3261 1.390 . S
C3267 C3264 1.386 . S
C3268 C3263 1.490 . S
C3268 C3270 1.395 . S
C3268 C3271 1.403 . S
H3269 C3275 0.930 . S
C3270 H3256 0.930 . S
C3270 C3268 1.395 . S
C3270 C3273 1.403 . S
C3271 C3268 1.403 . S
C3271 C3272 1.524 . S
C3271 C3275 1.400 . S
C3272 H3257 0.960 . S
C3272 H3258 0.960 . S
C3272 H3259 0.960 . S
C3272 C3271 1.524 . S
C3273 C3270 1.403 . S
C3273 C3274 1.392 . S
C3273 C3277 1.495 . S
C3274 C3273 1.392 . S
C3274 C3275 1.385 . S
C3274 C3276 1.478 . S
C3275 H3269 0.930 . S
C3275 C3271 1.400 . S
C3275 C3274 1.385 . S
C3276 C3274 1.478 . S
C3276 C3278 1.381 . S
C3276 C3282 1.383 . S
C3277 C3273 1.495 . S
C3277 H3283 0.959 . S
C3277 H3284 0.961 . S
C3277 H3285 0.960 . S
C3278 C3276 1.381 . S
C3278 C3279 1.394 . S
C3278 H3286 0.930 . S
C3279 C3278 1.394 . S
C3279 C3280 1.383 . S
C3279 H3287 0.929 . S
C3280 C3279 1.383 . S
C3280 C3281 1.377 . S
C3281 H3265 0.930 . S
C3281 C3280 1.377 . S
C3281 C3282 1.379 . S
C3282 H3266 0.931 . S
C3282 C3276 1.383 . S
C3282 C3281 1.379 . S
H3283 C3277 0.959 . S
H3284 C3277 0.961 . S
H3285 C3277 0.960 . S
H3286 C3278 0.930 . S
H3287 C3279 0.929 . S
H3288 C3296 0.929 . S
H3289 C3298 0.930 . S
H3290 C3300 0.930 . S
H3291 C3303 0.929 . S
H3292 C3306 0.930 . S
H3293 C3308 0.960 . S
H3294 C3308 0.960 . S
H3295 C3308 0.960 . S
C3296 H3288 0.929 . S
C3296 C3297 1.377 . S
C3296 C3298 1.384 . S
C3297 C3296 1.377 . S
C3297 C3303 1.390 . S
C3298 H3289 0.930 . S
C3298 C3296 1.384 . S
C3298 C3299 1.372 . S
C3299 C3298 1.372 . S
C3299 C3300 1.400 . S
C3299 C3304 1.490 . S
C3300 H3290 0.930 . S
C3300 C3299 1.400 . S
C3300 C3303 1.386 . S
H3301 C3317 0.930 . S
H3302 C3318 0.931 . S
C3303 H3291 0.929 . S
C3303 C3297 1.390 . S
C3303 C3300 1.386 . S
C3304 C3299 1.490 . S
C3304 C3306 1.395 1_655 S
C3304 C3307 1.403 . S
H3305 C3311 0.930 . S
C3306 H3292 0.930 . S
C3306 C3304 1.395 1_455 S
C3306 C3309 1.403 . S
C3307 C3304 1.403 . S
C3307 C3308 1.524 . S
C3307 C3311 1.400 1_655 S
C3308 H3293 0.960 . S
C3308 H3294 0.960 . S
C3308 H3295 0.960 . S
C3308 C3307 1.524 . S
C3309 C3306 1.403 . S
C3309 C3310 1.392 . S
C3309 C3313 1.495 . S
C3310 C3309 1.392 . S
C3310 C3311 1.385 . S
C3310 C3312 1.478 . S
C3311 H3305 0.930 . S
C3311 C3307 1.400 1_455 S
C3311 C3310 1.385 . S
C3312 C3310 1.478 . S
C3312 C3314 1.381 . S
C3312 C3318 1.383 . S
C3313 C3309 1.495 . S
C3313 H3319 0.959 . S
C3313 H3320 0.961 . S
C3313 H3321 0.960 . S
C3314 C3312 1.381 . S
C3314 C3315 1.394 . S
C3314 H3322 0.930 . S
C3315 C3314 1.394 . S
C3315 C3316 1.383 . S
C3315 H3323 0.929 . S
C3316 C3315 1.383 . S
C3316 C3317 1.377 . S
C3317 H3301 0.930 . S
C3317 C3316 1.377 . S
C3317 C3318 1.379 . S
C3318 H3302 0.931 . S
C3318 C3312 1.383 . S
C3318 C3317 1.379 . S
H3319 C3313 0.959 . S
H3320 C3313 0.961 . S
H3321 C3313 0.960 . S
H3322 C3314 0.930 . S
H3323 C3315 0.929 . S
H3324 C3332 0.929 . S
H3325 C3334 0.930 . S
H3326 C3336 0.930 . S
H3327 C3339 0.929 . S
H3328 C3342 0.930 . S
H3329 C3344 0.960 . S
H3330 C3344 0.960 . S
H3331 C3344 0.960 . S
C3332 H3324 0.929 . S
C3332 C3333 1.377 . S
C3332 C3334 1.384 . S
C3333 C3332 1.377 . S
C3333 C3339 1.390 . S
C3334 H3325 0.930 . S
C3334 C3332 1.384 . S
C3334 C3335 1.372 . S
C3335 C3334 1.372 . S
C3335 C3336 1.400 . S
C3335 C3340 1.490 . S
C3336 H3326 0.930 . S
C3336 C3335 1.400 . S
C3336 C3339 1.386 . S
H3337 C3353 0.930 . S
H3338 C3354 0.931 . S
C3339 H3327 0.929 . S
C3339 C3333 1.390 . S
C3339 C3336 1.386 . S
C3340 C3335 1.490 . S
C3340 C3342 1.395 . S
C3340 C3343 1.403 . S
H3341 C3347 0.930 . S
C3342 H3328 0.930 . S
C3342 C3340 1.395 . S
C3342 C3345 1.403 . S
C3343 C3340 1.403 . S
C3343 C3344 1.524 . S
C3343 C3347 1.400 . S
C3344 H3329 0.960 . S
C3344 H3330 0.960 . S
C3344 H3331 0.960 . S
C3344 C3343 1.524 . S
C3345 C3342 1.403 . S
C3345 C3346 1.392 . S
C3345 C3349 1.495 . S
C3346 C3345 1.392 . S
C3346 C3347 1.385 . S
C3346 C3348 1.478 . S
C3347 H3341 0.930 . S
C3347 C3343 1.400 . S
C3347 C3346 1.385 . S
C3348 C3346 1.478 . S
C3348 C3350 1.381 . S
C3348 C3354 1.383 . S
C3349 C3345 1.495 . S
C3349 H3355 0.959 . S
C3349 H3356 0.961 . S
C3349 H3357 0.960 . S
C3350 C3348 1.381 . S
C3350 C3351 1.394 . S
C3350 H3358 0.930 . S
C3351 C3350 1.394 . S
C3351 C3352 1.383 . S
C3351 H3359 0.929 . S
C3352 C3351 1.383 . S
C3352 C3353 1.377 . S
C3353 H3337 0.930 . S
C3353 C3352 1.377 . S
C3353 C3354 1.379 . S
C3354 H3338 0.931 . S
C3354 C3348 1.383 . S
C3354 C3353 1.379 . S
H3355 C3349 0.959 . S
H3356 C3349 0.961 . S
H3357 C3349 0.960 . S
H3358 C3350 0.930 . S
H3359 C3351 0.929 . S
H3360 C3368 0.929 . S
H3361 C3370 0.839 1_565 S
H3362 C3372 0.930 . S
H3363 C3375 0.929 . S
H3364 C3378 0.930 . S
H3365 C3380 0.960 . S
H3366 C3380 0.960 . S
H3367 C3380 0.960 . S
C3368 H3360 0.929 . S
C3368 C3369 1.377 . S
C3368 C3370 1.384 . S
C3369 C3368 1.377 . S
C3369 C3375 1.390 . S
C3370 H3361 0.839 1_545 S
C3370 C3368 1.384 . S
C3370 C3371 1.372 . S
C3371 C3370 1.372 . S
C3371 C3372 1.400 . S
C3371 C3376 1.490 . S
C3372 H3362 0.930 . S
C3372 C3371 1.400 . S
C3372 C3375 1.386 . S
H3373 C3389 0.930 . S
H3374 C3390 0.931 . S
C3375 H3363 0.929 . S
C3375 C3369 1.390 . S
C3375 C3372 1.386 . S
C3376 C3371 1.490 . S
C3376 C3378 1.395 1_545 S
C3376 C3379 1.403 . S
H3377 C3383 0.930 . S
C3378 H3364 0.930 . S
C3378 C3376 1.395 1_565 S
C3378 C3381 1.403 . S
C3379 C3376 1.403 . S
C3379 C3380 1.524 . S
C3379 C3383 1.400 1_545 S
C3380 H3365 0.960 . S
C3380 H3366 0.960 . S
C3380 H3367 0.960 . S
C3380 C3379 1.524 . S
C3381 C3378 1.403 . S
C3381 C3382 1.392 . S
C3381 C3385 1.495 . S
C3382 C3381 1.392 . S
C3382 C3383 1.385 . S
C3382 C3384 1.478 . S
C3383 H3377 0.930 . S
C3383 C3379 1.400 1_565 S
C3383 C3382 1.385 . S
C3384 C3382 1.478 . S
C3384 C3386 1.381 . S
C3384 C3390 1.383 . S
C3385 C3381 1.495 . S
C3385 H3391 0.959 . S
C3385 H3392 0.961 . S
C3385 H3393 0.960 . S
C3386 C3384 1.381 . S
C3386 C3387 1.394 . S
C3386 H3394 0.930 . S
C3387 C3386 1.394 . S
C3387 C3388 1.383 . S
C3387 H3395 0.929 . S
C3388 C3387 1.383 . S
C3388 C3389 1.377 . S
C3389 H3373 0.930 . S
C3389 C3388 1.377 . S
C3389 C3390 1.379 . S
C3390 H3374 0.931 . S
C3390 C3384 1.383 . S
C3390 C3389 1.379 . S
H3391 C3385 0.959 . S
H3392 C3385 0.961 . S
H3393 C3385 0.960 . S
H3394 C3386 0.930 . S
H3395 C3387 0.929 . S
H3396 C3404 0.929 . S
H3397 C3406 0.930 . S
H3398 C3408 0.930 . S
H3399 C3411 0.929 . S
H3400 C3414 0.930 . S
H3401 C3416 0.960 . S
H3402 C3416 0.960 . S
H3403 C3416 0.960 . S
C3404 H3396 0.929 . S
C3404 C3405 1.377 . S
C3404 C3406 1.384 . S
C3405 C3404 1.377 . S
C3405 C3411 1.390 . S
C3406 H3397 0.930 . S
C3406 C3404 1.384 . S
C3406 C3407 1.372 . S
C3407 C3406 1.372 . S
C3407 C3408 1.400 . S
C3407 C3412 1.490 . S
C3408 H3398 0.930 . S
C3408 C3407 1.400 . S
C3408 C3411 1.386 . S
H3409 C3425 0.930 . S
H3410 C3426 0.931 . S
C3411 H3399 0.929 . S
C3411 C3405 1.390 . S
C3411 C3408 1.386 . S
C3412 C3407 1.490 . S
C3412 C3414 1.395 . S
C3412 C3415 1.403 . S
H3413 C3419 0.930 . S
C3414 H3400 0.930 . S
C3414 C3412 1.395 . S
C3414 C3417 1.403 . S
C3415 C3412 1.403 . S
C3415 C3416 1.524 . S
C3415 C3419 1.400 . S
C3416 H3401 0.960 . S
C3416 H3402 0.960 . S
C3416 H3403 0.960 . S
C3416 C3415 1.524 . S
C3417 C3414 1.403 . S
C3417 C3418 1.392 . S
C3417 C3421 1.495 . S
C3418 C3417 1.392 . S
C3418 C3419 1.385 . S
C3418 C3420 1.478 . S
C3419 H3413 0.930 . S
C3419 C3415 1.400 . S
C3419 C3418 1.385 . S
C3420 C3418 1.478 . S
C3420 C3422 1.381 . S
C3420 C3426 1.383 . S
C3421 C3417 1.495 . S
C3421 H3427 0.959 . S
C3421 H3428 0.961 . S
C3421 H3429 0.960 . S
C3422 C3420 1.381 . S
C3422 C3423 1.394 . S
C3422 H3430 0.930 . S
C3423 C3422 1.394 . S
C3423 C3424 1.383 . S
C3423 H3431 0.929 . S
C3424 C3423 1.383 . S
C3424 C3425 1.377 . S
C3425 H3409 0.930 . S
C3425 C3424 1.377 . S
C3425 C3426 1.379 . S
C3426 H3410 0.931 . S
C3426 C3420 1.383 . S
C3426 C3425 1.379 . S
H3427 C3421 0.959 . S
H3428 C3421 0.961 . S
H3429 C3421 0.960 . S
H3430 C3422 0.930 . S
H3431 C3423 0.929 . S
H3432 C3440 0.929 . S
H3433 C3442 0.930 . S
H3434 C3444 0.930 . S
H3435 C3447 0.929 . S
H3436 C3450 0.930 . S
H3437 C3452 0.960 . S
H3438 C3452 0.960 . S
H3439 C3452 0.960 . S
C3440 H3432 0.929 . S
C3440 C3441 1.377 . S
C3440 C3442 1.384 . S
C3441 C3440 1.377 . S
C3441 C3447 1.390 . S
C3442 H3433 0.930 . S
C3442 C3440 1.384 . S
C3442 C3443 1.372 . S
C3443 C3442 1.372 . S
C3443 C3444 1.400 . S
C3443 C3448 1.490 . S
C3444 H3434 0.930 . S
C3444 C3443 1.400 . S
C3444 C3447 1.386 . S
H3445 C3461 0.930 . S
H3446 C3462 0.931 . S
C3447 H3435 0.929 . S
C3447 C3441 1.390 . S
C3447 C3444 1.386 . S
C3448 C3443 1.490 . S
C3448 C3450 1.395 . S
C3448 C3451 1.403 . S
H3449 C3455 0.930 . S
C3450 H3436 0.930 . S
C3450 C3448 1.395 . S
C3450 C3453 1.403 . S
C3451 C3448 1.403 . S
C3451 C3452 1.524 . S
C3451 C3455 1.400 . S
C3452 H3437 0.960 . S
C3452 H3438 0.960 . S
C3452 H3439 0.960 . S
C3452 C3451 1.524 . S
C3453 C3450 1.403 . S
C3453 C3454 1.392 . S
C3453 C3457 1.495 . S
C3454 C3453 1.392 . S
C3454 C3455 1.385 . S
C3454 C3456 1.478 . S
C3455 H3449 0.930 . S
C3455 C3451 1.400 . S
C3455 C3454 1.385 . S
C3456 C3454 1.478 . S
C3456 C3458 1.381 . S
C3456 C3462 1.383 . S
C3457 C3453 1.495 . S
C3457 H3463 0.959 . S
C3457 H3464 0.961 . S
C3457 H3465 0.960 . S
C3458 C3456 1.381 . S
C3458 C3459 1.394 . S
C3458 H3466 0.930 . S
C3459 C3458 1.394 . S
C3459 C3460 1.383 . S
C3459 H3467 0.929 . S
C3460 C3459 1.383 . S
C3460 C3461 1.377 . S
C3461 H3445 0.930 . S
C3461 C3460 1.377 . S
C3461 C3462 1.379 . S
C3462 H3446 0.931 . S
C3462 C3456 1.383 . S
C3462 C3461 1.379 . S
H3463 C3457 0.959 . S
H3464 C3457 0.961 . S
H3465 C3457 0.960 . S
H3466 C3458 0.930 . S
H3467 C3459 0.929 . S
H3468 C3476 0.929 . S
H3469 C3478 0.930 . S
H3470 C3480 0.930 . S
H3471 C3483 0.929 . S
H3472 C3486 0.932 . S
H3473 C3488 0.960 . S
H3474 C3488 0.960 . S
H3475 C3488 0.960 . S
C3476 H3468 0.929 . S
C3476 C3477 1.377 . S
C3476 C3478 1.384 . S
C3477 C3476 1.377 . S
C3477 C3483 1.390 . S
C3478 H3469 0.930 . S
C3478 C3476 1.384 . S
C3478 C3479 1.372 . S
C3479 C3478 1.372 . S
C3479 C3480 1.400 . S
C3479 C3484 1.490 . S
C3480 H3470 0.930 . S
C3480 C3479 1.400 . S
C3480 C3483 1.386 . S
H3481 C3497 0.930 . S
H3482 C3498 0.931 . S
C3483 H3471 0.929 . S
C3483 C3477 1.390 . S
C3483 C3480 1.386 . S
C3484 C3479 1.490 . S
C3484 C3486 1.388 1_554 S
C3484 C3487 1.403 . S
H3485 C3491 0.930 . S
C3486 H3472 0.932 . S
C3486 C3484 1.388 1_556 S
C3486 C3489 1.409 . S
C3487 C3484 1.403 . S
C3487 C3488 1.524 . S
C3487 C3491 1.400 . S
C3488 H3473 0.960 . S
C3488 H3474 0.960 . S
C3488 H3475 0.960 . S
C3488 C3487 1.524 . S
C3489 C3486 1.409 . S
C3489 C3490 1.392 . S
C3489 C3493 1.495 . S
C3490 C3489 1.392 . S
C3490 C3491 1.385 1_556 S
C3490 C3492 1.478 . S
C3491 H3485 0.930 . S
C3491 C3487 1.400 . S
C3491 C3490 1.385 1_554 S
C3492 C3490 1.478 . S
C3492 C3494 1.381 . S
C3492 C3498 1.383 . S
C3493 C3489 1.495 . S
C3493 H3499 0.959 . S
C3493 H3500 0.961 . S
C3493 H3501 0.960 . S
C3494 C3492 1.381 . S
C3494 C3495 1.394 . S
C3494 H3502 0.930 . S
C3495 C3494 1.394 . S
C3495 C3496 1.383 . S
C3495 H3503 0.929 . S
C3496 C3495 1.383 . S
C3496 C3497 1.377 . S
C3497 H3481 0.930 . S
C3497 C3496 1.377 . S
C3497 C3498 1.379 . S
C3498 H3482 0.931 . S
C3498 C3492 1.383 . S
C3498 C3497 1.379 . S
H3499 C3493 0.959 . S
H3500 C3493 0.961 . S
H3501 C3493 0.960 . S
H3502 C3494 0.930 . S
H3503 C3495 0.929 . S
H3504 C3512 0.929 . S
H3505 C3514 0.930 . S
H3506 C3516 0.930 . S
H3507 C3519 0.929 . S
H3508 C3522 0.930 . S
H3509 C3524 0.960 . S
H3510 C3524 0.960 . S
H3511 C3524 0.960 . S
C3512 H3504 0.929 . S
C3512 C3513 1.377 . S
C3512 C3514 1.384 . S
C3513 C3512 1.377 . S
C3513 C3519 1.390 . S
C3514 H3505 0.930 . S
C3514 C3512 1.384 . S
C3514 C3515 1.372 . S
C3515 C3514 1.372 . S
C3515 C3516 1.400 . S
C3515 C3520 1.490 . S
C3516 H3506 0.930 . S
C3516 C3515 1.400 . S
C3516 C3519 1.386 . S
H3517 C3533 0.930 . S
H3518 C3534 0.931 . S
C3519 H3507 0.929 . S
C3519 C3513 1.390 . S
C3519 C3516 1.386 . S
C3520 C3515 1.490 . S
C3520 C3522 1.395 . S
C3520 C3523 1.403 . S
H3521 C3527 0.935 . S
C3522 H3508 0.930 . S
C3522 C3520 1.395 . S
C3522 C3525 1.403 1_545 S
C3523 C3520 1.403 . S
C3523 C3524 1.524 . S
C3523 C3527 1.400 . S
C3524 H3509 0.960 . S
C3524 H3510 0.960 . S
C3524 H3511 0.960 . S
C3524 C3523 1.524 . S
C3525 C3522 1.403 1_565 S
C3525 C3526 1.392 . S
C3525 C3529 1.495 . S
C3526 C3525 1.392 . S
C3526 C3527 1.385 1_565 S
C3526 C3528 1.478 . S
C3527 H3521 0.935 . S
C3527 C3523 1.400 . S
C3527 C3526 1.385 1_545 S
C3528 C3526 1.478 . S
C3528 C3530 1.381 . S
C3528 C3534 1.383 . S
C3529 C3525 1.495 . S
C3529 H3535 0.959 . S
C3529 H3536 0.961 . S
C3529 H3537 0.960 . S
C3530 C3528 1.381 . S
C3530 C3531 1.394 . S
C3530 H3538 0.930 . S
C3531 C3530 1.394 . S
C3531 C3532 1.383 . S
C3531 H3539 0.929 . S
C3532 C3531 1.383 . S
C3532 C3533 1.377 . S
C3533 H3517 0.930 . S
C3533 C3532 1.377 . S
C3533 C3534 1.379 . S
C3534 H3518 0.931 . S
C3534 C3528 1.383 . S
C3534 C3533 1.379 . S
H3535 C3529 0.959 . S
H3536 C3529 0.961 . S
H3537 C3529 0.960 . S
H3538 C3530 0.930 . S
H3539 C3531 0.929 . S
H3540 C3548 0.929 . S
H3541 C3550 0.930 . S
H3542 C3552 0.930 . S
H3543 C3555 0.929 . S
H3544 C3558 0.930 . S
H3545 C3560 0.960 . S
H3546 C3560 0.960 . S
H3547 C3560 0.960 . S
C3548 H3540 0.929 . S
C3548 C3549 1.377 . S
C3548 C3550 1.384 . S
C3549 C3548 1.377 . S
C3549 C3555 1.390 . S
C3550 H3541 0.930 . S
C3550 C3548 1.384 . S
C3550 C3551 1.372 . S
C3551 C3550 1.372 . S
C3551 C3552 1.400 . S
C3551 C3556 1.490 . S
C3552 H3542 0.930 . S
C3552 C3551 1.400 . S
C3552 C3555 1.386 . S
H3553 C3569 0.930 . S
H3554 C3570 0.931 . S
C3555 H3543 0.929 . S
C3555 C3549 1.390 . S
C3555 C3552 1.386 . S
C3556 C3551 1.490 . S
C3556 C3558 1.395 1_554 S
C3556 C3559 1.403 . S
H3557 C3563 0.934 . S
C3558 H3544 0.930 . S
C3558 C3556 1.395 1_556 S
C3558 C3561 1.403 . S
C3559 C3556 1.403 . S
C3559 C3560 1.524 . S
C3559 C3563 1.400 1_554 S
C3560 H3545 0.960 . S
C3560 H3546 0.960 . S
C3560 H3547 0.960 . S
C3560 C3559 1.524 . S
C3561 C3558 1.403 . S
C3561 C3562 1.392 . S
C3561 C3565 1.495 . S
C3562 C3561 1.392 . S
C3562 C3563 1.385 . S
C3562 C3564 1.478 . S
C3563 H3557 0.934 . S
C3563 C3559 1.400 1_556 S
C3563 C3562 1.385 . S
C3564 C3562 1.478 . S
C3564 C3566 1.381 . S
C3564 C3570 1.383 . S
C3565 C3561 1.495 . S
C3565 H3571 0.959 . S
C3565 H3572 0.961 . S
C3565 H3573 0.960 . S
C3566 C3564 1.381 . S
C3566 C3567 1.394 . S
C3566 H3574 0.930 . S
C3567 C3566 1.394 . S
C3567 C3568 1.383 . S
C3567 H3575 0.929 . S
C3568 C3567 1.383 . S
C3568 C3569 1.377 . S
C3569 H3553 0.930 . S
C3569 C3568 1.377 . S
C3569 C3570 1.379 . S
C3570 H3554 0.931 . S
C3570 C3564 1.383 . S
C3570 C3569 1.379 . S
H3571 C3565 0.959 . S
H3572 C3565 0.961 . S
H3573 C3565 0.960 . S
H3574 C3566 0.930 . S
H3575 C3567 0.929 . S
H3576 C3584 0.929 . S
H3577 C3586 0.930 . S
H3578 C3588 0.930 . S
H3579 C3591 0.929 . S
H3580 C3594 0.930 . S
H3581 C3596 0.960 . S
H3582 C3596 0.960 . S
H3583 C3596 0.960 . S
C3584 H3576 0.929 . S
C3584 C3585 1.377 . S
C3584 C3586 1.384 . S
C3585 C3584 1.377 . S
C3585 C3591 1.390 . S
C3586 H3577 0.930 . S
C3586 C3584 1.384 . S
C3586 C3587 1.372 . S
C3587 C3586 1.372 . S
C3587 C3588 1.400 . S
C3587 C3592 1.490 . S
C3588 H3578 0.930 . S
C3588 C3587 1.400 . S
C3588 C3591 1.386 . S
H3589 C3605 0.930 . S
H3590 C3606 0.931 . S
C3591 H3579 0.929 . S
C3591 C3585 1.390 . S
C3591 C3588 1.386 . S
C3592 C3587 1.490 . S
C3592 C3594 1.395 . S
C3592 C3595 1.403 . S
H3593 C3599 0.930 . S
C3594 H3580 0.930 . S
C3594 C3592 1.395 . S
C3594 C3597 1.403 . S
C3595 C3592 1.403 . S
C3595 C3596 1.524 . S
C3595 C3599 1.400 . S
C3596 H3581 0.960 . S
C3596 H3582 0.960 . S
C3596 H3583 0.960 . S
C3596 C3595 1.524 . S
C3597 C3594 1.403 . S
C3597 C3598 1.392 . S
C3597 C3601 1.495 . S
C3598 C3597 1.392 . S
C3598 C3599 1.385 . S
C3598 C3600 1.478 . S
C3599 H3593 0.930 . S
C3599 C3595 1.400 . S
C3599 C3598 1.385 . S
C3600 C3598 1.478 . S
C3600 C3602 1.381 . S
C3600 C3606 1.383 . S
C3601 C3597 1.495 . S
C3601 H3607 0.959 . S
C3601 H3608 0.961 . S
C3601 H3609 0.960 . S
C3602 C3600 1.381 . S
C3602 C3603 1.394 . S
C3602 H3610 0.930 . S
C3603 C3602 1.394 . S
C3603 C3604 1.383 . S
C3603 H3611 0.929 . S
C3604 C3603 1.383 . S
C3604 C3605 1.377 . S
C3605 H3589 0.930 . S
C3605 C3604 1.377 . S
C3605 C3606 1.379 . S
C3606 H3590 0.931 . S
C3606 C3600 1.383 . S
C3606 C3605 1.379 . S
H3607 C3601 0.959 . S
H3608 C3601 0.961 . S
H3609 C3601 0.960 . S
H3610 C3602 0.930 . S
H3611 C3603 0.929 . S
H3612 C3620 0.929 . S
H3613 C3622 0.930 . S
H3614 C3624 0.930 . S
H3615 C3627 0.929 . S
H3616 C3630 0.930 . S
H3617 C3632 0.960 . S
H3618 C3632 0.960 . S
H3619 C3632 0.960 . S
C3620 H3612 0.929 . S
C3620 C3621 1.377 . S
C3620 C3622 1.384 . S
C3621 C3620 1.377 . S
C3621 C3627 1.390 . S
C3622 H3613 0.930 . S
C3622 C3620 1.384 . S
C3622 C3623 1.372 . S
C3623 C3622 1.372 . S
C3623 C3624 1.400 . S
C3623 C3628 1.490 . S
C3624 H3614 0.930 . S
C3624 C3623 1.400 . S
C3624 C3627 1.386 . S
H3625 C3641 0.930 . S
H3626 C3642 0.931 . S
C3627 H3615 0.929 . S
C3627 C3621 1.390 . S
C3627 C3624 1.386 . S
C3628 C3623 1.490 . S
C3628 C3630 1.395 . S
C3628 C3631 1.403 . S
H3629 C3635 0.930 . S
C3630 H3616 0.930 . S
C3630 C3628 1.395 . S
C3630 C3633 1.403 . S
C3631 C3628 1.403 . S
C3631 C3632 1.524 . S
C3631 C3635 1.400 . S
C3632 H3617 0.960 . S
C3632 H3618 0.960 . S
C3632 H3619 0.960 . S
C3632 C3631 1.524 . S
C3633 C3630 1.403 . S
C3633 C3634 1.392 . S
C3633 C3637 1.495 . S
C3634 C3633 1.392 . S
C3634 C3635 1.385 . S
C3634 C3636 1.478 . S
C3635 H3629 0.930 . S
C3635 C3631 1.400 . S
C3635 C3634 1.385 . S
C3636 C3634 1.478 . S
C3636 C3638 1.381 . S
C3636 C3642 1.383 . S
C3637 C3633 1.495 . S
C3637 H3643 0.959 . S
C3637 H3644 0.961 . S
C3637 H3645 0.960 . S
C3638 C3636 1.381 . S
C3638 C3639 1.394 . S
C3638 H3646 0.930 . S
C3639 C3638 1.394 . S
C3639 C3640 1.383 . S
C3639 H3647 0.929 . S
C3640 C3639 1.383 . S
C3640 C3641 1.377 . S
C3641 H3625 0.930 . S
C3641 C3640 1.377 . S
C3641 C3642 1.379 . S
C3642 H3626 0.931 . S
C3642 C3636 1.383 . S
C3642 C3641 1.379 . S
H3643 C3637 0.959 . S
H3644 C3637 0.961 . S
H3645 C3637 0.960 . S
H3646 C3638 0.930 . S
H3647 C3639 0.929 . S
H3648 C3656 0.929 . S
H3649 C3658 0.930 . S
H3650 C3660 0.930 . S
H3651 C3663 0.929 . S
H3652 C3666 0.930 . S
H3653 C3668 0.960 . S
H3654 C3668 0.960 . S
H3655 C3668 0.960 . S
C3656 H3648 0.929 . S
C3656 C3657 1.377 . S
C3656 C3658 1.384 . S
C3657 C3656 1.377 . S
C3657 C3663 1.390 . S
C3658 H3649 0.930 . S
C3658 C3656 1.384 . S
C3658 C3659 1.372 . S
C3659 C3658 1.372 . S
C3659 C3660 1.400 . S
C3659 C3664 1.490 . S
C3660 H3650 0.930 . S
C3660 C3659 1.400 . S
C3660 C3663 1.386 . S
H3661 C3677 0.930 . S
H3662 C3678 0.931 . S
C3663 H3651 0.929 . S
C3663 C3657 1.390 . S
C3663 C3660 1.386 . S
C3664 C3659 1.490 . S
C3664 C3666 1.395 . S
C3664 C3667 1.354 1_556 S
H3665 C3671 0.930 . S
C3666 H3652 0.930 . S
C3666 C3664 1.395 . S
C3666 C3669 1.403 . S
C3667 C3664 1.354 1_554 S
C3667 C3668 1.547 . S
C3667 C3671 1.427 . S
C3668 H3653 0.960 . S
C3668 H3654 0.960 . S
C3668 H3655 0.960 . S
C3668 C3667 1.547 . S
C3669 C3666 1.403 . S
C3669 C3670 1.392 1_556 S
C3669 C3673 1.495 . S
C3670 C3669 1.392 1_554 S
C3670 C3671 1.385 . S
C3670 C3672 1.478 . S
C3671 H3665 0.930 . S
C3671 C3667 1.427 . S
C3671 C3670 1.385 . S
C3672 C3670 1.478 . S
C3672 C3674 1.381 . S
C3672 C3678 1.383 . S
C3673 C3669 1.495 . S
C3673 H3679 0.959 . S
C3673 H3680 0.961 . S
C3673 H3681 0.960 . S
C3674 C3672 1.381 . S
C3674 C3675 1.394 . S
C3674 H3682 0.930 . S
C3675 C3674 1.394 . S
C3675 C3676 1.383 . S
C3675 H3683 0.929 . S
C3676 C3675 1.383 . S
C3676 C3677 1.377 . S
C3677 H3661 0.930 . S
C3677 C3676 1.377 . S
C3677 C3678 1.379 . S
C3678 H3662 0.931 . S
C3678 C3672 1.383 . S
C3678 C3677 1.379 . S
H3679 C3673 0.959 . S
H3680 C3673 0.961 . S
H3681 C3673 0.960 . S
H3682 C3674 0.930 . S
H3683 C3675 0.929 . S
H3684 C3692 0.929 . S
H3685 C3694 0.930 . S
H3686 C3696 0.930 . S
H3687 C3699 0.929 . S
H3688 C3702 0.930 . S
H3689 C3704 0.960 . S
H3690 C3704 0.960 . S
H3691 C3704 0.960 . S
C3692 H3684 0.929 . S
C3692 C3693 1.377 . S
C3692 C3694 1.384 . S
C3693 C3692 1.377 . S
C3693 C3699 1.390 . S
C3694 H3685 0.930 . S
C3694 C3692 1.384 . S
C3694 C3695 1.372 . S
C3695 C3694 1.372 . S
C3695 C3696 1.400 . S
C3695 C3700 1.490 . S
C3696 H3686 0.930 . S
C3696 C3695 1.400 . S
C3696 C3699 1.386 . S
H3697 C3713 0.930 . S
H3698 C3714 0.931 . S
C3699 H3687 0.929 . S
C3699 C3693 1.390 . S
C3699 C3696 1.386 . S
C3700 C3695 1.490 . S
C3700 C3702 1.395 . S
C3700 C3703 1.403 . S
H3701 C3707 0.930 . S
C3702 H3688 0.930 . S
C3702 C3700 1.395 . S
C3702 C3705 1.403 . S
C3703 C3700 1.403 . S
C3703 C3704 1.524 . S
C3703 C3707 1.400 . S
C3704 H3689 0.960 . S
C3704 H3690 0.960 . S
C3704 H3691 0.960 . S
C3704 C3703 1.524 . S
C3705 C3702 1.403 . S
C3705 C3706 1.392 . S
C3705 C3709 1.495 . S
C3706 C3705 1.392 . S
C3706 C3707 1.385 . S
C3706 C3708 1.478 . S
C3707 H3701 0.930 . S
C3707 C3703 1.400 . S
C3707 C3706 1.385 . S
C3708 C3706 1.478 . S
C3708 C3710 1.381 . S
C3708 C3714 1.383 . S
C3709 C3705 1.495 . S
C3709 H3715 0.959 . S
C3709 H3716 0.961 . S
C3709 H3717 0.960 . S
C3710 C3708 1.381 . S
C3710 C3711 1.394 . S
C3710 H3718 0.930 . S
C3711 C3710 1.394 . S
C3711 C3712 1.383 . S
C3711 H3719 0.929 . S
C3712 C3711 1.383 . S
C3712 C3713 1.377 . S
C3713 H3697 0.930 . S
C3713 C3712 1.377 . S
C3713 C3714 1.379 . S
C3714 H3698 0.931 . S
C3714 C3708 1.383 . S
C3714 C3713 1.379 . S
H3715 C3709 0.959 . S
H3716 C3709 0.961 . S
H3717 C3709 0.960 . S
H3718 C3710 0.930 . S
H3719 C3711 0.929 . S
H3720 C3728 0.929 . S
H3721 C3730 0.930 . S
H3722 C3732 0.930 . S
H3723 C3735 0.929 . S
H3724 C3738 0.930 . S
H3725 C3740 0.934 1_565 S
H3726 C3740 0.960 . S
H3727 C3740 0.960 . S
C3728 H3720 0.929 . S
C3728 C3729 1.377 . S
C3728 C3730 1.384 . S
C3729 C3728 1.377 . S
C3729 C3735 1.390 . S
C3730 H3721 0.930 . S
C3730 C3728 1.384 . S
C3730 C3731 1.372 . S
C3731 C3730 1.372 . S
C3731 C3732 1.400 . S
C3731 C3736 1.490 . S
C3732 H3722 0.930 . S
C3732 C3731 1.400 . S
C3732 C3735 1.386 . S
H3733 C3749 0.930 . S
H3734 C3750 0.931 . S
C3735 H3723 0.929 . S
C3735 C3729 1.390 . S
C3735 C3732 1.386 . S
C3736 C3731 1.490 . S
C3736 C3738 1.395 . S
C3736 C3739 1.403 . S
H3737 C3743 0.930 . S
C3738 H3724 0.930 . S
C3738 C3736 1.395 . S
C3738 C3741 1.403 . S
C3739 C3736 1.403 . S
C3739 C3740 1.524 . S
C3739 C3743 1.400 1_545 S
C3740 H3725 0.934 1_545 S
C3740 H3726 0.960 . S
C3740 H3727 0.960 . S
C3740 C3739 1.524 . S
C3741 C3738 1.403 . S
C3741 C3742 1.392 1_545 S
C3741 C3745 1.495 . S
C3742 C3741 1.392 1_565 S
C3742 C3743 1.385 . S
C3742 C3744 1.478 . S
C3743 H3737 0.930 . S
C3743 C3739 1.400 1_565 S
C3743 C3742 1.385 . S
C3744 C3742 1.478 . S
C3744 C3746 1.381 . S
C3744 C3750 1.383 . S
C3745 C3741 1.495 . S
C3745 H3751 0.959 . S
C3745 H3752 0.961 . S
C3745 H3753 0.960 1_545 S
C3746 C3744 1.381 . S
C3746 C3747 1.394 . S
C3746 H3754 0.930 . S
C3747 C3746 1.394 . S
C3747 C3748 1.383 . S
C3747 H3755 0.929 . S
C3748 C3747 1.383 . S
C3748 C3749 1.377 . S
C3749 H3733 0.930 . S
C3749 C3748 1.377 . S
C3749 C3750 1.379 . S
C3750 H3734 0.931 . S
C3750 C3744 1.383 . S
C3750 C3749 1.379 . S
H3751 C3745 0.959 . S
H3752 C3745 0.961 . S
H3753 C3745 0.960 1_565 S
H3754 C3746 0.930 . S
H3755 C3747 0.929 . S
H3756 C3764 0.929 . S
H3757 C3766 0.930 . S
H3758 C3768 0.930 . S
H3759 C3771 0.929 . S
H3760 C3774 0.930 . S
H3761 C3776 0.960 . S
H3762 C3776 0.960 . S
H3763 C3776 0.960 1_556 S
C3764 H3756 0.929 . S
C3764 C3765 1.377 . S
C3764 C3766 1.384 . S
C3765 C3764 1.377 . S
C3765 C3771 1.390 . S
C3766 H3757 0.930 . S
C3766 C3764 1.384 . S
C3766 C3767 1.372 . S
C3767 C3766 1.372 . S
C3767 C3768 1.400 . S
C3767 C3772 1.490 . S
C3768 H3758 0.930 . S
C3768 C3767 1.400 . S
C3768 C3771 1.386 . S
H3769 C3785 0.930 . S
H3770 C3786 0.931 . S
C3771 H3759 0.929 . S
C3771 C3765 1.390 . S
C3771 C3768 1.386 . S
C3772 C3767 1.490 . S
C3772 C3774 1.395 . S
C3772 C3775 1.403 1_556 S
H3773 C3779 0.930 . S
C3774 H3760 0.930 . S
C3774 C3772 1.395 . S
C3774 C3777 1.403 1_556 S
C3775 C3772 1.403 1_554 S
C3775 C3776 1.524 . S
C3775 C3779 1.400 . S
C3776 H3761 0.960 . S
C3776 H3762 0.960 . S
C3776 H3763 0.960 1_554 S
C3776 C3775 1.524 . S
C3777 C3774 1.403 1_554 S
C3777 C3778 1.392 . S
C3777 C3781 1.495 . S
C3778 C3777 1.392 . S
C3778 C3779 1.385 . S
C3778 C3780 1.478 . S
C3779 H3773 0.930 . S
C3779 C3775 1.400 . S
C3779 C3778 1.385 . S
C3780 C3778 1.478 . S
C3780 C3782 1.381 . S
C3780 C3786 1.383 . S
C3781 C3777 1.495 . S
C3781 H3787 0.959 1_554 S
C3781 H3788 0.961 . S
C3781 H3789 0.960 . S
C3782 C3780 1.381 . S
C3782 C3783 1.394 . S
C3782 H3790 0.930 . S
C3783 C3782 1.394 . S
C3783 C3784 1.383 . S
C3783 H3791 0.929 . S
C3784 C3783 1.383 . S
C3784 C3785 1.377 . S
C3785 H3769 0.930 . S
C3785 C3784 1.377 . S
C3785 C3786 1.379 . S
C3786 H3770 0.931 . S
C3786 C3780 1.383 . S
C3786 C3785 1.379 . S
H3787 C3781 0.959 1_556 S
H3788 C3781 0.961 . S
H3789 C3781 0.960 . S
H3790 C3782 0.930 . S
H3791 C3783 0.929 . S
H3792 C3800 0.929 . S
H3793 C3802 0.930 . S
H3794 C3804 0.930 . S
H3795 C3807 0.929 . S
H3796 C3810 0.940 . S
H3797 C3812 0.960 . S
H3798 C3812 0.960 . S
H3799 C3812 0.960 . S
C3800 H3792 0.929 . S
C3800 C3801 1.377 . S
C3800 C3802 1.384 . S
C3801 C3800 1.377 . S
C3801 C3807 1.390 . S
C3802 H3793 0.930 . S
C3802 C3800 1.384 . S
C3802 C3803 1.372 . S
C3803 C3802 1.372 . S
C3803 C3804 1.400 . S
C3803 C3808 1.490 . S
C3804 H3794 0.930 . S
C3804 C3803 1.400 . S
C3804 C3807 1.386 . S
H3805 C3821 0.930 . S
H3806 C3822 0.931 . S
C3807 H3795 0.929 . S
C3807 C3801 1.390 . S
C3807 C3804 1.386 . S
C3808 C3803 1.490 . S
C3808 C3810 1.395 1_554 S
C3808 C3811 1.403 . S
H3809 C3815 0.930 . S
C3810 H3796 0.940 . S
C3810 C3808 1.395 1_556 S
C3810 C3813 1.403 . S
C3811 C3808 1.403 . S
C3811 C3812 1.524 . S
C3811 C3815 1.400 1_554 S
C3812 H3797 0.960 . S
C3812 H3798 0.960 . S
C3812 H3799 0.960 . S
C3812 C3811 1.524 . S
C3813 C3810 1.403 . S
C3813 C3814 1.392 . S
C3813 C3817 1.495 . S
C3814 C3813 1.392 . S
C3814 C3815 1.385 . S
C3814 C3816 1.478 . S
C3815 H3809 0.930 . S
C3815 C3811 1.400 1_556 S
C3815 C3814 1.385 . S
C3816 C3814 1.478 . S
C3816 C3818 1.381 . S
C3816 C3822 1.383 . S
C3817 C3813 1.495 . S
C3817 H3823 0.959 . S
C3817 H3824 0.961 . S
C3817 H3825 0.960 . S
C3818 C3816 1.381 . S
C3818 C3819 1.394 . S
C3818 H3826 0.930 . S
C3819 C3818 1.394 . S
C3819 C3820 1.383 . S
C3819 H3827 0.929 . S
C3820 C3819 1.383 . S
C3820 C3821 1.377 . S
C3821 H3805 0.930 . S
C3821 C3820 1.377 . S
C3821 C3822 1.379 . S
C3822 H3806 0.931 . S
C3822 C3816 1.383 . S
C3822 C3821 1.379 . S
H3823 C3817 0.959 . S
H3824 C3817 0.961 . S
H3825 C3817 0.960 . S
H3826 C3818 0.930 . S
H3827 C3819 0.929 . S
H3828 C3836 0.929 . S
H3829 C3838 0.930 . S
H3830 C3840 0.930 . S
H3831 C3843 0.929 . S
H3832 C3846 0.930 . S
H3833 C3848 0.960 . S
H3834 C3848 0.960 . S
H3835 C3848 0.960 . S
C3836 H3828 0.929 . S
C3836 C3837 1.377 . S
C3836 C3838 1.384 . S
C3837 C3836 1.377 . S
C3837 C3843 1.390 . S
C3838 H3829 0.930 . S
C3838 C3836 1.384 . S
C3838 C3839 1.372 . S
C3839 C3838 1.372 . S
C3839 C3840 1.400 . S
C3839 C3844 1.490 . S
C3840 H3830 0.930 . S
C3840 C3839 1.400 . S
C3840 C3843 1.386 . S
H3841 C3857 0.930 . S
H3842 C3858 0.931 . S
C3843 H3831 0.929 . S
C3843 C3837 1.390 . S
C3843 C3840 1.386 . S
C3844 C3839 1.490 . S
C3844 C3846 1.395 . S
C3844 C3847 1.403 . S
H3845 C3851 0.930 . S
C3846 H3832 0.930 . S
C3846 C3844 1.395 . S
C3846 C3849 1.403 . S
C3847 C3844 1.403 . S
C3847 C3848 1.524 . S
C3847 C3851 1.400 . S
C3848 H3833 0.960 . S
C3848 H3834 0.960 . S
C3848 H3835 0.960 . S
C3848 C3847 1.524 . S
C3849 C3846 1.403 . S
C3849 C3850 1.392 . S
C3849 C3853 1.495 . S
C3850 C3849 1.392 . S
C3850 C3851 1.385 . S
C3850 C3852 1.478 . S
C3851 H3845 0.930 . S
C3851 C3847 1.400 . S
C3851 C3850 1.385 . S
C3852 C3850 1.478 . S
C3852 C3854 1.381 . S
C3852 C3858 1.383 . S
C3853 C3849 1.495 . S
C3853 H3859 0.959 . S
C3853 H3860 0.961 . S
C3853 H3861 0.960 . S
C3854 C3852 1.381 . S
C3854 C3855 1.394 . S
C3854 H3862 0.930 . S
C3855 C3854 1.394 . S
C3855 C3856 1.383 . S
C3855 H3863 0.929 . S
C3856 C3855 1.383 . S
C3856 C3857 1.377 . S
C3857 H3841 0.930 . S
C3857 C3856 1.377 . S
C3857 C3858 1.379 . S
C3858 H3842 0.931 . S
C3858 C3852 1.383 . S
C3858 C3857 1.379 . S
H3859 C3853 0.959 . S
H3860 C3853 0.961 . S
H3861 C3853 0.960 . S
H3862 C3854 0.930 . S
H3863 C3855 0.929 . S
H3864 C3872 0.929 . S
H3865 C3874 0.930 . S
H3866 C3876 0.972 . S
H3867 C3879 0.929 . S
H3868 C3882 0.930 . S
H3869 C3884 0.960 1_545 S
H3870 C3884 0.960 . S
H3871 C3884 0.949 1_545 S
C3872 H3864 0.929 . S
C3872 C3873 1.377 . S
C3872 C3874 1.384 . S
C3873 C3872 1.377 . S
C3873 C3879 1.390 . S
C3874 H3865 0.930 . S
C3874 C3872 1.384 . S
C3874 C3875 1.372 . S
C3875 C3874 1.372 . S
C3875 C3876 1.400 . S
C3875 C3880 1.490 . S
C3876 H3866 0.972 . S
C3876 C3875 1.400 . S
C3876 C3879 1.386 . S
H3877 C3893 0.930 . S
H3878 C3894 0.931 . S
C3879 H3867 0.929 . S
C3879 C3873 1.390 . S
C3879 C3876 1.386 . S
C3880 C3875 1.490 . S
C3880 C3882 1.395 . S
C3880 C3883 1.369 1_565 S
H3881 C3887 0.930 . S
C3882 H3868 0.930 . S
C3882 C3880 1.395 . S
C3882 C3885 1.403 1_565 S
C3883 C3880 1.369 1_545 S
C3883 C3884 1.510 1_545 S
C3883 C3887 1.455 . S
C3884 H3869 0.960 1_565 S
C3884 H3870 0.960 . S
C3884 H3871 0.949 1_565 S
C3884 C3883 1.510 1_565 S
C3885 C3882 1.403 1_545 S
C3885 C3886 1.392 . S
C3885 C3889 1.495 . S
C3886 C3885 1.392 . S
C3886 C3887 1.385 . S
C3886 C3888 1.478 . S
C3887 H3881 0.930 . S
C3887 C3883 1.455 . S
C3887 C3886 1.385 . S
C3888 C3886 1.478 . S
C3888 C3890 1.381 . S
C3888 C3894 1.383 . S
C3889 C3885 1.495 . S
C3889 H3895 0.959 . S
C3889 H3896 0.961 . S
C3889 H3897 0.960 . S
C3890 C3888 1.381 . S
C3890 C3891 1.394 . S
C3890 H3898 0.930 . S
C3891 C3890 1.394 . S
C3891 C3892 1.383 . S
C3891 H3899 0.929 . S
C3892 C3891 1.383 . S
C3892 C3893 1.377 . S
C3893 H3877 0.930 . S
C3893 C3892 1.377 . S
C3893 C3894 1.379 . S
C3894 H3878 0.931 . S
C3894 C3888 1.383 . S
C3894 C3893 1.379 . S
H3895 C3889 0.959 . S
H3896 C3889 0.961 . S
H3897 C3889 0.960 . S
H3898 C3890 0.930 . S
H3899 C3891 0.929 . S
H3900 C3908 0.929 . S
H3901 C3910 0.930 . S
H3902 C3912 0.930 . S
H3903 C3915 0.929 . S
H3904 C3918 0.930 . S
H3905 C3920 0.960 . S
H3906 C3920 0.960 . S
H3907 C3920 0.960 . S
C3908 H3900 0.929 . S
C3908 C3909 1.377 . S
C3908 C3910 1.384 . S
C3909 C3908 1.377 . S
C3909 C3915 1.390 . S
C3910 H3901 0.930 . S
C3910 C3908 1.384 . S
C3910 C3911 1.372 . S
C3911 C3910 1.372 . S
C3911 C3912 1.400 . S
C3911 C3916 1.490 . S
C3912 H3902 0.930 . S
C3912 C3911 1.400 . S
C3912 C3915 1.386 . S
H3913 C3929 0.930 . S
H3914 C3930 0.931 . S
C3915 H3903 0.929 . S
C3915 C3909 1.390 . S
C3915 C3912 1.386 . S
C3916 C3911 1.490 . S
C3916 C3918 1.395 1_455 S
C3916 C3919 1.403 . S
H3917 C3923 0.930 1_455 S
C3918 H3904 0.930 . S
C3918 C3916 1.395 1_655 S
C3918 C3921 1.403 . S
C3919 C3916 1.403 . S
C3919 C3920 1.524 . S
C3919 C3923 1.400 1_455 S
C3920 H3905 0.960 . S
C3920 H3906 0.960 . S
C3920 H3907 0.960 . S
C3920 C3919 1.524 . S
C3921 C3918 1.403 . S
C3921 C3922 1.392 . S
C3921 C3925 1.495 . S
C3922 C3921 1.392 . S
C3922 C3923 1.385 . S
C3922 C3924 1.478 . S
C3923 H3917 0.930 1_655 S
C3923 C3919 1.400 1_655 S
C3923 C3922 1.385 . S
C3924 C3922 1.478 . S
C3924 C3926 1.381 . S
C3924 C3930 1.383 . S
C3925 C3921 1.495 . S
C3925 H3931 0.959 . S
C3925 H3932 0.961 . S
C3925 H3933 0.960 . S
C3926 C3924 1.381 . S
C3926 C3927 1.394 . S
C3926 H3934 0.930 . S
C3927 C3926 1.394 . S
C3927 C3928 1.383 . S
C3927 H3935 0.929 . S
C3928 C3927 1.383 . S
C3928 C3929 1.377 . S
C3929 H3913 0.930 . S
C3929 C3928 1.377 . S
C3929 C3930 1.379 . S
C3930 H3914 0.931 . S
C3930 C3924 1.383 . S
C3930 C3929 1.379 . S
H3931 C3925 0.959 . S
H3932 C3925 0.961 . S
H3933 C3925 0.960 . S
H3934 C3926 0.930 . S
H3935 C3927 0.929 . S
H3936 C3944 0.929 . S
H3937 C3946 0.930 . S
H3938 C3948 0.930 . S
H3939 C3951 0.929 . S
H3940 C3954 0.920 1_655 S
H3941 C3956 0.960 . S
H3942 C3956 0.960 . S
H3943 C3956 0.960 . S
C3944 H3936 0.929 . S
C3944 C3945 1.377 . S
C3944 C3946 1.384 . S
C3945 C3944 1.377 . S
C3945 C3951 1.390 . S
C3946 H3937 0.930 . S
C3946 C3944 1.384 . S
C3946 C3947 1.372 . S
C3947 C3946 1.372 . S
C3947 C3948 1.400 . S
C3947 C3952 1.490 . S
C3948 H3938 0.930 . S
C3948 C3947 1.400 . S
C3948 C3951 1.386 . S
H3949 C3965 0.930 . S
H3950 C3966 0.931 . S
C3951 H3939 0.929 . S
C3951 C3945 1.390 . S
C3951 C3948 1.386 . S
C3952 C3947 1.490 . S
C3952 C3954 1.443 . S
C3952 C3955 1.403 . S
H3953 C3959 0.930 . S
C3954 H3940 0.920 1_455 S
C3954 C3952 1.443 . S
C3954 C3957 1.365 1_455 S
C3955 C3952 1.403 . S
C3955 C3956 1.524 . S
C3955 C3959 1.400 . S
C3956 H3941 0.960 . S
C3956 H3942 0.960 . S
C3956 H3943 0.960 . S
C3956 C3955 1.524 . S
C3957 C3954 1.365 1_655 S
C3957 C3958 1.392 . S
C3957 C3961 1.495 . S
C3958 C3957 1.392 . S
C3958 C3959 1.385 1_655 S
C3958 C3960 1.478 . S
C3959 H3953 0.930 . S
C3959 C3955 1.400 . S
C3959 C3958 1.385 1_455 S
C3960 C3958 1.478 . S
C3960 C3962 1.381 . S
C3960 C3966 1.383 . S
C3961 C3957 1.495 . S
C3961 H3967 0.959 . S
C3961 H3968 0.961 . S
C3961 H3969 0.960 . S
C3962 C3960 1.381 . S
C3962 C3963 1.394 . S
C3962 H3970 0.930 . S
C3963 C3962 1.394 . S
C3963 C3964 1.383 . S
C3963 H3971 0.929 . S
C3964 C3963 1.383 . S
C3964 C3965 1.377 . S
C3965 H3949 0.930 . S
C3965 C3964 1.377 . S
C3965 C3966 1.379 . S
C3966 H3950 0.931 . S
C3966 C3960 1.383 . S
C3966 C3965 1.379 . S
H3967 C3961 0.959 . S
H3968 C3961 0.961 . S
H3969 C3961 0.960 . S
H3970 C3962 0.930 . S
H3971 C3963 0.929 . S
H3972 C3980 0.929 . S
H3973 C3982 0.930 . S
H3974 C3984 0.930 . S
H3975 C3987 0.929 . S
H3976 C3990 0.930 . S
H3977 C3992 0.960 . S
H3978 C3992 0.960 . S
H3979 C3992 0.960 . S
C3980 H3972 0.929 . S
C3980 C3981 1.377 . S
C3980 C3982 1.384 . S
C3981 C3980 1.377 . S
C3981 C3987 1.390 . S
C3982 H3973 0.930 . S
C3982 C3980 1.384 . S
C3982 C3983 1.372 . S
C3983 C3982 1.372 . S
C3983 C3984 1.400 . S
C3983 C3988 1.490 . S
C3984 H3974 0.930 . S
C3984 C3983 1.400 . S
C3984 C3987 1.386 . S
H3985 C4001 0.930 . S
H3986 C4002 0.931 . S
C3987 H3975 0.929 . S
C3987 C3981 1.390 . S
C3987 C3984 1.386 . S
C3988 C3983 1.490 . S
C3988 C3990 1.395 . S
C3988 C3991 1.403 . S
H3989 C3995 0.930 . S
C3990 H3976 0.930 . S
C3990 C3988 1.395 . S
C3990 C3993 1.403 . S
C3991 C3988 1.403 . S
C3991 C3992 1.524 . S
C3991 C3995 1.400 . S
C3992 H3977 0.960 . S
C3992 H3978 0.960 . S
C3992 H3979 0.960 . S
C3992 C3991 1.524 . S
C3993 C3990 1.403 . S
C3993 C3994 1.392 . S
C3993 C3997 1.495 . S
C3994 C3993 1.392 . S
C3994 C3995 1.385 . S
C3994 C3996 1.478 . S
C3995 H3989 0.930 . S
C3995 C3991 1.400 . S
C3995 C3994 1.385 . S
C3996 C3994 1.478 . S
C3996 C3998 1.381 . S
C3996 C4002 1.383 . S
C3997 C3993 1.495 . S
C3997 H4003 0.959 . S
C3997 H4004 0.961 . S
C3997 H4005 0.960 . S
C3998 C3996 1.381 . S
C3998 C3999 1.394 . S
C3998 H4006 0.930 . S
C3999 C3998 1.394 . S
C3999 C4000 1.383 . S
C3999 H4007 0.929 . S
C4000 C3999 1.383 . S
C4000 C4001 1.377 . S
C4001 H3985 0.930 . S
C4001 C4000 1.377 . S
C4001 C4002 1.379 . S
C4002 H3986 0.931 . S
C4002 C3996 1.383 . S
C4002 C4001 1.379 . S
H4003 C3997 0.959 . S
H4004 C3997 0.961 . S
H4005 C3997 0.960 . S
H4006 C3998 0.930 . S
H4007 C3999 0.929 . S
H4008 C4016 0.929 . S
H4009 C4018 0.930 . S
H4010 C4020 0.930 . S
H4011 C4023 0.929 . S
H4012 C4026 0.930 . S
H4013 C4028 0.960 . S
H4014 C4028 0.960 . S
H4015 C4028 0.960 . S
C4016 H4008 0.929 . S
C4016 C4017 1.377 . S
C4016 C4018 1.384 . S
C4017 C4016 1.377 . S
C4017 C4023 1.390 . S
C4018 H4009 0.930 . S
C4018 C4016 1.384 . S
C4018 C4019 1.372 . S
C4019 C4018 1.372 . S
C4019 C4020 1.400 . S
C4019 C4024 1.490 . S
C4020 H4010 0.930 . S
C4020 C4019 1.400 . S
C4020 C4023 1.386 . S
H4021 C4037 0.930 . S
H4022 C4038 0.931 . S
C4023 H4011 0.929 . S
C4023 C4017 1.390 . S
C4023 C4020 1.386 . S
C4024 C4019 1.490 . S
C4024 C4026 1.395 . S
C4024 C4027 1.403 . S
H4025 C4031 0.930 . S
C4026 H4012 0.930 . S
C4026 C4024 1.395 . S
C4026 C4029 1.403 . S
C4027 C4024 1.403 . S
C4027 C4028 1.524 . S
C4027 C4031 1.400 . S
C4028 H4013 0.960 . S
C4028 H4014 0.960 . S
C4028 H4015 0.960 . S
C4028 C4027 1.524 . S
C4029 C4026 1.403 . S
C4029 C4030 1.392 . S
C4029 C4033 1.495 . S
C4030 C4029 1.392 . S
C4030 C4031 1.385 . S
C4030 C4032 1.478 . S
C4031 H4025 0.930 . S
C4031 C4027 1.400 . S
C4031 C4030 1.385 . S
C4032 C4030 1.478 . S
C4032 C4034 1.381 . S
C4032 C4038 1.383 . S
C4033 C4029 1.495 . S
C4033 H4039 0.959 . S
C4033 H4040 0.961 . S
C4033 H4041 0.960 . S
C4034 C4032 1.381 . S
C4034 C4035 1.394 . S
C4034 H4042 0.930 . S
C4035 C4034 1.394 . S
C4035 C4036 1.383 . S
C4035 H4043 0.929 . S
C4036 C4035 1.383 . S
C4036 C4037 1.377 . S
C4037 H4021 0.930 . S
C4037 C4036 1.377 . S
C4037 C4038 1.379 . S
C4038 H4022 0.931 . S
C4038 C4032 1.383 . S
C4038 C4037 1.379 . S
H4039 C4033 0.959 . S
H4040 C4033 0.961 . S
H4041 C4033 0.960 . S
H4042 C4034 0.930 . S
H4043 C4035 0.929 . S
H4044 C4052 0.929 . S
H4045 C4054 0.930 . S
H4046 C4056 0.930 . S
H4047 C4059 0.929 . S
H4048 C4062 0.930 . S
H4049 C4064 0.960 . S
H4050 C4064 0.960 . S
H4051 C4064 0.960 . S
C4052 H4044 0.929 . S
C4052 C4053 1.377 . S
C4052 C4054 1.384 . S
C4053 C4052 1.377 . S
C4053 C4059 1.390 . S
C4054 H4045 0.930 . S
C4054 C4052 1.384 . S
C4054 C4055 1.372 . S
C4055 C4054 1.372 . S
C4055 C4056 1.400 . S
C4055 C4060 1.490 . S
C4056 H4046 0.930 . S
C4056 C4055 1.400 . S
C4056 C4059 1.386 . S
H4057 C4073 0.930 . S
H4058 C4074 0.931 . S
C4059 H4047 0.929 . S
C4059 C4053 1.390 . S
C4059 C4056 1.386 . S
C4060 C4055 1.490 . S
C4060 C4062 1.395 . S
C4060 C4063 1.403 . S
H4061 C4067 0.930 . S
C4062 H4048 0.930 . S
C4062 C4060 1.395 . S
C4062 C4065 1.403 . S
C4063 C4060 1.403 . S
C4063 C4064 1.524 . S
C4063 C4067 1.400 . S
C4064 H4049 0.960 . S
C4064 H4050 0.960 . S
C4064 H4051 0.960 . S
C4064 C4063 1.524 . S
C4065 C4062 1.403 . S
C4065 C4066 1.392 . S
C4065 C4069 1.495 . S
C4066 C4065 1.392 . S
C4066 C4067 1.385 . S
C4066 C4068 1.478 . S
C4067 H4061 0.930 . S
C4067 C4063 1.400 . S
C4067 C4066 1.385 . S
C4068 C4066 1.478 . S
C4068 C4070 1.381 . S
C4068 C4074 1.383 . S
C4069 C4065 1.495 . S
C4069 H4075 0.959 . S
C4069 H4076 0.961 . S
C4069 H4077 0.960 . S
C4070 C4068 1.381 . S
C4070 C4071 1.394 . S
C4070 H4078 0.930 . S
C4071 C4070 1.394 . S
C4071 C4072 1.383 . S
C4071 H4079 0.929 . S
C4072 C4071 1.383 . S
C4072 C4073 1.377 . S
C4073 H4057 0.930 . S
C4073 C4072 1.377 . S
C4073 C4074 1.379 . S
C4074 H4058 0.931 . S
C4074 C4068 1.383 . S
C4074 C4073 1.379 . S
H4075 C4069 0.959 . S
H4076 C4069 0.961 . S
H4077 C4069 0.960 . S
H4078 C4070 0.930 . S
H4079 C4071 0.929 . S
H4080 C4088 0.929 . S
H4081 C4090 0.930 . S
H4082 C4092 0.930 . S
H4083 C4095 0.929 . S
H4084 C4098 0.930 . S
H4085 C4100 0.960 . S
H4086 C4100 0.960 . S
H4087 C4100 0.960 . S
C4088 H4080 0.929 . S
C4088 C4089 1.377 . S
C4088 C4090 1.384 . S
C4089 C4088 1.377 . S
C4089 C4095 1.390 . S
C4090 H4081 0.930 . S
C4090 C4088 1.384 . S
C4090 C4091 1.372 . S
C4091 C4090 1.372 . S
C4091 C4092 1.400 . S
C4091 C4096 1.490 . S
C4092 H4082 0.930 . S
C4092 C4091 1.400 . S
C4092 C4095 1.386 . S
H4093 C4109 0.930 . S
H4094 C4110 0.931 . S
C4095 H4083 0.929 . S
C4095 C4089 1.390 . S
C4095 C4092 1.386 . S
C4096 C4091 1.490 . S
C4096 C4098 1.395 . S
C4096 C4099 1.395 1_554 S
H4097 C4103 0.930 . S
C4098 H4084 0.930 . S
C4098 C4096 1.395 . S
C4098 C4101 1.403 . S
C4099 C4096 1.395 1_556 S
C4099 C4100 1.527 . S
C4099 C4103 1.404 . S
C4100 H4085 0.960 . S
C4100 H4086 0.960 . S
C4100 H4087 0.960 . S
C4100 C4099 1.527 . S
C4101 C4098 1.403 . S
C4101 C4102 1.392 1_554 S
C4101 C4105 1.495 . S
C4102 C4101 1.392 1_556 S
C4102 C4103 1.385 . S
C4102 C4104 1.478 . S
C4103 H4097 0.930 . S
C4103 C4099 1.404 . S
C4103 C4102 1.385 . S
C4104 C4102 1.478 . S
C4104 C4106 1.381 . S
C4104 C4110 1.383 . S
C4105 C4101 1.495 . S
C4105 H4111 0.959 . S
C4105 H4112 0.961 . S
C4105 H4113 0.960 . S
C4106 C4104 1.381 . S
C4106 C4107 1.394 . S
C4106 H4114 0.930 . S
C4107 C4106 1.394 . S
C4107 C4108 1.383 . S
C4107 H4115 0.929 . S
C4108 C4107 1.383 . S
C4108 C4109 1.377 . S
C4109 H4093 0.930 . S
C4109 C4108 1.377 . S
C4109 C4110 1.379 . S
C4110 H4094 0.931 . S
C4110 C4104 1.383 . S
C4110 C4109 1.379 . S
H4111 C4105 0.959 . S
H4112 C4105 0.961 . S
H4113 C4105 0.960 . S
H4114 C4106 0.930 . S
H4115 C4107 0.929 . S
H4116 C4124 0.929 . S
H4117 C4126 0.930 1_545 S
H4118 C4128 0.930 . S
H4119 C4131 0.929 . S
H4120 C4134 0.930 . S
H4121 C4136 0.960 . S
H4122 C4136 0.960 . S
H4123 C4136 0.960 . S
C4124 H4116 0.929 . S
C4124 C4125 1.377 . S
C4124 C4126 1.384 . S
C4125 C4124 1.377 . S
C4125 C4131 1.390 . S
C4126 H4117 0.930 1_565 S
C4126 C4124 1.384 . S
C4126 C4127 1.372 . S
C4127 C4126 1.372 . S
C4127 C4128 1.400 . S
C4127 C4132 1.490 . S
C4128 H4118 0.930 . S
C4128 C4127 1.400 . S
C4128 C4131 1.386 . S
H4129 C4145 0.930 . S
H4130 C4146 0.931 . S
C4131 H4119 0.929 . S
C4131 C4125 1.390 . S
C4131 C4128 1.386 . S
C4132 C4127 1.490 . S
C4132 C4134 1.395 1_565 S
C4132 C4135 1.403 . S
H4133 C4139 0.930 . S
C4134 H4120 0.930 . S
C4134 C4132 1.395 1_545 S
C4134 C4137 1.403 . S
C4135 C4132 1.403 . S
C4135 C4136 1.524 . S
C4135 C4139 1.400 1_565 S
C4136 H4121 0.960 . S
C4136 H4122 0.960 . S
C4136 H4123 0.960 . S
C4136 C4135 1.524 . S
C4137 C4134 1.403 . S
C4137 C4138 1.392 . S
C4137 C4141 1.495 . S
C4138 C4137 1.392 . S
C4138 C4139 1.385 . S
C4138 C4140 1.478 . S
C4139 H4133 0.930 . S
C4139 C4135 1.400 1_545 S
C4139 C4138 1.385 . S
C4140 C4138 1.478 . S
C4140 C4142 1.381 . S
C4140 C4146 1.383 . S
C4141 C4137 1.495 . S
C4141 H4147 0.959 . S
C4141 H4148 0.961 . S
C4141 H4149 0.960 . S
C4142 C4140 1.381 . S
C4142 C4143 1.394 . S
C4142 H4150 0.930 . S
C4143 C4142 1.394 . S
C4143 C4144 1.383 . S
C4143 H4151 0.929 . S
C4144 C4143 1.383 . S
C4144 C4145 1.377 . S
C4145 H4129 0.930 . S
C4145 C4144 1.377 . S
C4145 C4146 1.379 . S
C4146 H4130 0.931 . S
C4146 C4140 1.383 . S
C4146 C4145 1.379 . S
H4147 C4141 0.959 . S
H4148 C4141 0.961 . S
H4149 C4141 0.960 . S
H4150 C4142 0.930 . S
H4151 C4143 0.929 . S
H4152 C4160 0.929 . S
H4153 C4162 0.930 . S
H4154 C4164 0.930 . S
H4155 C4167 0.929 . S
H4156 C4170 0.930 . S
H4157 C4172 0.960 . S
H4158 C4172 0.960 . S
H4159 C4172 0.960 . S
C4160 H4152 0.929 . S
C4160 C4161 1.377 . S
C4160 C4162 1.384 . S
C4161 C4160 1.377 . S
C4161 C4167 1.390 . S
C4162 H4153 0.930 . S
C4162 C4160 1.384 . S
C4162 C4163 1.372 . S
C4163 C4162 1.372 . S
C4163 C4164 1.400 . S
C4163 C4168 1.490 . S
C4164 H4154 0.930 . S
C4164 C4163 1.400 . S
C4164 C4167 1.386 . S
H4165 C4181 0.930 . S
H4166 C4182 0.931 . S
C4167 H4155 0.929 . S
C4167 C4161 1.390 . S
C4167 C4164 1.386 . S
C4168 C4163 1.490 . S
C4168 C4170 1.395 . S
C4168 C4171 1.403 . S
H4169 C4175 0.930 . S
C4170 H4156 0.930 . S
C4170 C4168 1.395 . S
C4170 C4173 1.403 . S
C4171 C4168 1.403 . S
C4171 C4172 1.524 . S
C4171 C4175 1.400 . S
C4172 H4157 0.960 . S
C4172 H4158 0.960 . S
C4172 H4159 0.960 . S
C4172 C4171 1.524 . S
C4173 C4170 1.403 . S
C4173 C4174 1.392 . S
C4173 C4177 1.495 . S
C4174 C4173 1.392 . S
C4174 C4175 1.385 . S
C4174 C4176 1.478 . S
C4175 H4169 0.930 . S
C4175 C4171 1.400 . S
C4175 C4174 1.385 . S
C4176 C4174 1.478 . S
C4176 C4178 1.381 . S
C4176 C4182 1.383 . S
C4177 C4173 1.495 . S
C4177 H4183 0.959 . S
C4177 H4184 0.961 . S
C4177 H4185 0.960 . S
C4178 C4176 1.381 . S
C4178 C4179 1.394 . S
C4178 H4186 0.930 . S
C4179 C4178 1.394 . S
C4179 C4180 1.383 . S
C4179 H4187 0.929 . S
C4180 C4179 1.383 . S
C4180 C4181 1.377 . S
C4181 H4165 0.930 . S
C4181 C4180 1.377 . S
C4181 C4182 1.379 . S
C4182 H4166 0.931 . S
C4182 C4176 1.383 . S
C4182 C4181 1.379 . S
H4183 C4177 0.959 . S
H4184 C4177 0.961 . S
H4185 C4177 0.960 . S
H4186 C4178 0.930 . S
H4187 C4179 0.929 . S
H4188 C4196 0.929 . S
H4189 C4198 0.930 . S
H4190 C4200 0.930 . S
H4191 C4203 0.929 . S
H4192 C4206 0.930 . S
H4193 C4208 0.960 . S
H4194 C4208 0.960 . S
H4195 C4208 0.960 . S
C4196 H4188 0.929 . S
C4196 C4197 1.377 . S
C4196 C4198 1.384 . S
C4197 C4196 1.377 . S
C4197 C4203 1.390 . S
C4198 H4189 0.930 . S
C4198 C4196 1.384 . S
C4198 C4199 1.372 . S
C4199 C4198 1.372 . S
C4199 C4200 1.400 . S
C4199 C4204 1.490 . S
C4200 H4190 0.930 . S
C4200 C4199 1.400 . S
C4200 C4203 1.386 . S
H4201 C4217 0.930 . S
H4202 C4218 0.931 . S
C4203 H4191 0.929 . S
C4203 C4197 1.390 . S
C4203 C4200 1.386 . S
C4204 C4199 1.490 . S
C4204 C4206 1.395 . S
C4204 C4207 1.403 . S
H4205 C4211 0.930 . S
C4206 H4192 0.930 . S
C4206 C4204 1.395 . S
C4206 C4209 1.403 . S
C4207 C4204 1.403 . S
C4207 C4208 1.524 . S
C4207 C4211 1.400 . S
C4208 H4193 0.960 . S
C4208 H4194 0.960 . S
C4208 H4195 0.960 . S
C4208 C4207 1.524 . S
C4209 C4206 1.403 . S
C4209 C4210 1.392 . S
C4209 C4213 1.495 . S
C4210 C4209 1.392 . S
C4210 C4211 1.385 . S
C4210 C4212 1.478 . S
C4211 H4205 0.930 . S
C4211 C4207 1.400 . S
C4211 C4210 1.385 . S
C4212 C4210 1.478 . S
C4212 C4214 1.381 . S
C4212 C4218 1.383 . S
C4213 C4209 1.495 . S
C4213 H4219 0.959 . S
C4213 H4220 0.961 . S
C4213 H4221 0.960 . S
C4214 C4212 1.381 . S
C4214 C4215 1.394 . S
C4214 H4222 0.930 . S
C4215 C4214 1.394 . S
C4215 C4216 1.383 . S
C4215 H4223 0.929 . S
C4216 C4215 1.383 . S
C4216 C4217 1.377 . S
C4217 H4201 0.930 . S
C4217 C4216 1.377 . S
C4217 C4218 1.379 . S
C4218 H4202 0.931 . S
C4218 C4212 1.383 . S
C4218 C4217 1.379 . S
H4219 C4213 0.959 . S
H4220 C4213 0.961 . S
H4221 C4213 0.960 . S
H4222 C4214 0.930 . S
H4223 C4215 0.929 . S
H4224 C4232 0.929 . S
H4225 C4234 0.930 . S
H4226 C4236 0.930 . S
H4227 C4239 0.929 . S
H4228 C4242 0.930 . S
H4229 C4244 0.960 . S
H4230 C4244 0.960 . S
H4231 C4244 0.960 . S
C4232 H4224 0.929 . S
C4232 C4233 1.377 . S
C4232 C4234 1.384 . S
C4233 C4232 1.377 . S
C4233 C4239 1.390 . S
C4234 H4225 0.930 . S
C4234 C4232 1.384 . S
C4234 C4235 1.372 . S
C4235 C4234 1.372 . S
C4235 C4236 1.400 . S
C4235 C4240 1.490 . S
C4236 H4226 0.930 . S
C4236 C4235 1.400 . S
C4236 C4239 1.386 . S
H4237 C4253 0.930 . S
H4238 C4254 0.931 . S
C4239 H4227 0.929 . S
C4239 C4233 1.390 . S
C4239 C4236 1.386 . S
C4240 C4235 1.490 . S
C4240 C4242 1.395 . S
C4240 C4243 1.403 . S
H4241 C4247 0.930 . S
C4242 H4228 0.930 . S
C4242 C4240 1.395 . S
C4242 C4245 1.403 . S
C4243 C4240 1.403 . S
C4243 C4244 1.524 . S
C4243 C4247 1.400 . S
C4244 H4229 0.960 . S
C4244 H4230 0.960 . S
C4244 H4231 0.960 . S
C4244 C4243 1.524 . S
C4245 C4242 1.403 . S
C4245 C4246 1.392 . S
C4245 C4249 1.495 . S
C4246 C4245 1.392 . S
C4246 C4247 1.385 . S
C4246 C4248 1.478 . S
C4247 H4241 0.930 . S
C4247 C4243 1.400 . S
C4247 C4246 1.385 . S
C4248 C4246 1.478 . S
C4248 C4250 1.381 . S
C4248 C4254 1.383 . S
C4249 C4245 1.495 . S
C4249 H4255 0.959 . S
C4249 H4256 0.961 . S
C4249 H4257 0.960 . S
C4250 C4248 1.381 . S
C4250 C4251 1.394 . S
C4250 H4258 0.930 . S
C4251 C4250 1.394 . S
C4251 C4252 1.383 . S
C4251 H4259 0.929 . S
C4252 C4251 1.383 . S
C4252 C4253 1.377 . S
C4253 H4237 0.930 . S
C4253 C4252 1.377 . S
C4253 C4254 1.379 . S
C4254 H4238 0.931 . S
C4254 C4248 1.383 . S
C4254 C4253 1.379 . S
H4255 C4249 0.959 . S
H4256 C4249 0.961 . S
H4257 C4249 0.960 . S
H4258 C4250 0.930 . S
H4259 C4251 0.929 . S
H4260 C4268 0.929 . S
H4261 C4270 0.930 . S
H4262 C4272 0.930 . S
H4263 C4275 0.929 . S
H4264 C4278 0.941 . S
H4265 C4280 0.960 . S
H4266 C4280 0.960 . S
H4267 C4280 0.960 . S
C4268 H4260 0.929 . S
C4268 C4269 1.377 . S
C4268 C4270 1.384 . S
C4269 C4268 1.377 . S
C4269 C4275 1.390 . S
C4270 H4261 0.930 . S
C4270 C4268 1.384 . S
C4270 C4271 1.372 . S
C4271 C4270 1.372 . S
C4271 C4272 1.400 . S
C4271 C4276 1.490 . S
C4272 H4262 0.930 . S
C4272 C4271 1.400 . S
C4272 C4275 1.386 . S
H4273 C4289 0.930 . S
H4274 C4290 0.995 . S
C4275 H4263 0.929 . S
C4275 C4269 1.390 . S
C4275 C4272 1.386 . S
C4276 C4271 1.490 . S
C4276 C4278 1.395 . S
C4276 C4279 1.403 . S
H4277 C4283 0.930 . S
C4278 H4264 0.941 . S
C4278 C4276 1.395 . S
C4278 C4281 1.403 1_565 S
C4279 C4276 1.403 . S
C4279 C4280 1.524 . S
C4279 C4283 1.400 . S
C4280 H4265 0.960 . S
C4280 H4266 0.960 . S
C4280 H4267 0.960 . S
C4280 C4279 1.524 . S
C4281 C4278 1.403 1_545 S
C4281 C4282 1.392 . S
C4281 C4285 1.495 . S
C4282 C4281 1.392 . S
C4282 C4283 1.385 1_545 S
C4282 C4284 1.478 . S
C4283 H4277 0.930 . S
C4283 C4279 1.400 . S
C4283 C4282 1.385 1_565 S
C4284 C4282 1.478 . S
C4284 C4286 1.381 . S
C4284 C4290 1.383 . S
C4285 C4281 1.495 . S
C4285 H4291 0.959 . S
C4285 H4292 0.961 . S
C4285 H4293 0.960 . S
C4286 C4284 1.381 . S
C4286 C4287 1.394 . S
C4286 H4294 0.930 . S
C4287 C4286 1.394 . S
C4287 C4288 1.383 . S
C4287 H4295 0.929 . S
C4288 C4287 1.383 . S
C4288 C4289 1.377 . S
C4289 H4273 0.930 . S
C4289 C4288 1.377 . S
C4289 C4290 1.379 . S
C4290 H4274 0.995 . S
C4290 C4284 1.383 . S
C4290 C4289 1.379 . S
H4291 C4285 0.959 . S
H4292 C4285 0.961 . S
H4293 C4285 0.960 . S
H4294 C4286 0.930 . S
H4295 C4287 0.929 . S
H4296 C4304 0.929 . S
H4297 C4306 0.930 . S
H4298 C4308 0.930 . S
H4299 C4311 0.929 . S
H4300 C4314 0.930 . S
H4301 C4316 0.960 . S
H4302 C4316 0.960 . S
H4303 C4316 0.960 . S
C4304 H4296 0.929 . S
C4304 C4305 1.377 . S
C4304 C4306 1.384 . S
C4305 C4304 1.377 . S
C4305 C4311 1.390 . S
C4306 H4297 0.930 . S
C4306 C4304 1.384 . S
C4306 C4307 1.372 . S
C4307 C4306 1.372 . S
C4307 C4308 1.400 . S
C4307 C4312 1.490 . S
C4308 H4298 0.930 . S
C4308 C4307 1.400 . S
C4308 C4311 1.386 . S
H4309 C4325 0.930 . S
H4310 C4326 0.931 . S
C4311 H4299 0.929 . S
C4311 C4305 1.390 . S
C4311 C4308 1.386 . S
C4312 C4307 1.490 . S
C4312 C4314 1.395 . S
C4312 C4315 1.403 1_554 S
H4313 C4319 0.930 . S
C4314 H4300 0.930 . S
C4314 C4312 1.395 . S
C4314 C4317 1.429 . S
C4315 C4312 1.403 1_556 S
C4315 C4316 1.524 . S
C4315 C4319 1.400 . S
C4316 H4301 0.960 . S
C4316 H4302 0.960 . S
C4316 H4303 0.960 . S
C4316 C4315 1.524 . S
C4317 C4314 1.429 . S
C4317 C4318 1.353 1_554 S
C4317 C4321 1.511 . S
C4318 C4317 1.353 1_556 S
C4318 C4319 1.385 . S
C4318 C4320 1.478 . S
C4319 H4313 0.930 . S
C4319 C4315 1.400 . S
C4319 C4318 1.385 . S
C4320 C4318 1.478 . S
C4320 C4322 1.381 . S
C4320 C4326 1.383 . S
C4321 C4317 1.511 . S
C4321 H4327 0.959 . S
C4321 H4328 0.961 . S
C4321 H4329 0.960 1_554 S
C4322 C4320 1.381 . S
C4322 C4323 1.394 . S
C4322 H4330 0.930 . S
C4323 C4322 1.394 . S
C4323 C4324 1.383 . S
C4323 H4331 0.929 . S
C4324 C4323 1.383 . S
C4324 C4325 1.377 . S
C4325 H4309 0.930 . S
C4325 C4324 1.377 . S
C4325 C4326 1.379 . S
C4326 H4310 0.931 . S
C4326 C4320 1.383 . S
C4326 C4325 1.379 . S
H4327 C4321 0.959 . S
H4328 C4321 0.961 . S
H4329 C4321 0.960 1_556 S
H4330 C4322 0.930 . S
H4331 C4323 0.929 . S
H4332 C4340 0.929 . S
H4333 C4342 0.930 . S
H4334 C4344 0.930 . S
H4335 C4347 0.929 . S
H4336 C4350 0.930 . S
H4337 C4352 0.960 . S
H4338 C4352 0.960 . S
H4339 C4352 0.960 . S
C4340 H4332 0.929 . S
C4340 C4341 1.377 . S
C4340 C4342 1.384 . S
C4341 C4340 1.377 . S
C4341 C4347 1.390 . S
C4342 H4333 0.930 . S
C4342 C4340 1.384 . S
C4342 C4343 1.372 . S
C4343 C4342 1.372 . S
C4343 C4344 1.400 . S
C4343 C4348 1.490 . S
C4344 H4334 0.930 . S
C4344 C4343 1.400 . S
C4344 C4347 1.386 . S
H4345 C4361 0.930 . S
H4346 C4362 0.931 . S
C4347 H4335 0.929 . S
C4347 C4341 1.390 . S
C4347 C4344 1.386 . S
C4348 C4343 1.490 . S
C4348 C4350 1.395 . S
C4348 C4351 1.403 . S
H4349 C4355 0.930 . S
C4350 H4336 0.930 . S
C4350 C4348 1.395 . S
C4350 C4353 1.403 . S
C4351 C4348 1.403 . S
C4351 C4352 1.524 . S
C4351 C4355 1.400 . S
C4352 H4337 0.960 . S
C4352 H4338 0.960 . S
C4352 H4339 0.960 . S
C4352 C4351 1.524 . S
C4353 C4350 1.403 . S
C4353 C4354 1.392 . S
C4353 C4357 1.495 . S
C4354 C4353 1.392 . S
C4354 C4355 1.385 . S
C4354 C4356 1.478 . S
C4355 H4349 0.930 . S
C4355 C4351 1.400 . S
C4355 C4354 1.385 . S
C4356 C4354 1.478 . S
C4356 C4358 1.381 . S
C4356 C4362 1.383 . S
C4357 C4353 1.495 . S
C4357 H4363 0.959 . S
C4357 H4364 0.961 . S
C4357 H4365 0.960 . S
C4358 C4356 1.381 . S
C4358 C4359 1.394 . S
C4358 H4366 0.930 . S
C4359 C4358 1.394 . S
C4359 C4360 1.383 . S
C4359 H4367 0.929 . S
C4360 C4359 1.383 . S
C4360 C4361 1.377 . S
C4361 H4345 0.930 . S
C4361 C4360 1.377 . S
C4361 C4362 1.379 . S
C4362 H4346 0.931 . S
C4362 C4356 1.383 . S
C4362 C4361 1.379 . S
H4363 C4357 0.959 . S
H4364 C4357 0.961 . S
H4365 C4357 0.960 . S
H4366 C4358 0.930 . S
H4367 C4359 0.929 . S
H4368 C4376 0.929 . S
H4369 C4378 0.930 . S
H4370 C4380 0.930 . S
H4371 C4383 0.929 . S
H4372 C4386 0.930 . S
H4373 C4388 0.960 . S
H4374 C4388 0.960 . S
H4375 C4388 0.960 1_556 S
C4376 H4368 0.929 . S
C4376 C4377 1.377 . S
C4376 C4378 1.384 . S
C4377 C4376 1.377 . S
C4377 C4383 1.390 . S
C4378 H4369 0.930 . S
C4378 C4376 1.384 . S
C4378 C4379 1.372 . S
C4379 C4378 1.372 . S
C4379 C4380 1.400 . S
C4379 C4384 1.490 . S
C4380 H4370 0.930 . S
C4380 C4379 1.400 . S
C4380 C4383 1.386 . S
H4381 C4397 0.930 . S
H4382 C4398 0.931 . S
C4383 H4371 0.929 . S
C4383 C4377 1.390 . S
C4383 C4380 1.386 . S
C4384 C4379 1.490 . S
C4384 C4386 1.395 . S
C4384 C4387 1.403 1_556 S
H4385 C4391 0.930 . S
C4386 H4372 0.930 . S
C4386 C4384 1.395 . S
C4386 C4389 1.403 1_556 S
C4387 C4384 1.403 1_554 S
C4387 C4388 1.524 . S
C4387 C4391 1.400 . S
C4388 H4373 0.960 . S
C4388 H4374 0.960 . S
C4388 H4375 0.960 1_554 S
C4388 C4387 1.524 . S
C4389 C4386 1.403 1_554 S
C4389 C4390 1.392 . S
C4389 C4393 1.495 . S
C4390 C4389 1.392 . S
C4390 C4391 1.385 . S
C4390 C4392 1.478 . S
C4391 H4385 0.930 . S
C4391 C4387 1.400 . S
C4391 C4390 1.385 . S
C4392 C4390 1.478 . S
C4392 C4394 1.381 . S
C4392 C4398 1.383 . S
C4393 C4389 1.495 . S
C4393 H4399 0.911 1_554 S
C4393 H4400 0.961 . S
C4393 H4401 0.960 . S
C4394 C4392 1.381 . S
C4394 C4395 1.394 . S
C4394 H4402 0.930 . S
C4395 C4394 1.394 . S
C4395 C4396 1.383 . S
C4395 H4403 0.929 . S
C4396 C4395 1.383 . S
C4396 C4397 1.377 . S
C4397 H4381 0.930 . S
C4397 C4396 1.377 . S
C4397 C4398 1.379 . S
C4398 H4382 0.931 . S
C4398 C4392 1.383 . S
C4398 C4397 1.379 . S
H4399 C4393 0.911 1_556 S
H4400 C4393 0.961 . S
H4401 C4393 0.960 . S
H4402 C4394 0.930 . S
H4403 C4395 0.929 . S
H4404 C4412 0.929 . S
H4405 C4414 0.930 . S
H4406 C4416 0.930 . S
H4407 C4419 0.929 . S
H4408 C4422 0.930 . S
H4409 C4424 0.960 . S
H4410 C4424 0.960 . S
H4411 C4424 0.960 . S
C4412 H4404 0.929 . S
C4412 C4413 1.377 . S
C4412 C4414 1.384 . S
C4413 C4412 1.377 . S
C4413 C4419 1.390 . S
C4414 H4405 0.930 . S
C4414 C4412 1.384 . S
C4414 C4415 1.372 . S
C4415 C4414 1.372 . S
C4415 C4416 1.400 . S
C4415 C4420 1.490 . S
C4416 H4406 0.930 . S
C4416 C4415 1.400 . S
C4416 C4419 1.386 . S
H4417 C4433 0.930 . S
H4418 C4434 0.931 . S
C4419 H4407 0.929 . S
C4419 C4413 1.390 . S
C4419 C4416 1.386 . S
C4420 C4415 1.490 . S
C4420 C4422 1.395 . S
C4420 C4423 1.403 . S
H4421 C4427 0.930 . S
C4422 H4408 0.930 . S
C4422 C4420 1.395 . S
C4422 C4425 1.403 . S
C4423 C4420 1.403 . S
C4423 C4424 1.524 . S
C4423 C4427 1.400 . S
C4424 H4409 0.960 . S
C4424 H4410 0.960 . S
C4424 H4411 0.960 . S
C4424 C4423 1.524 . S
C4425 C4422 1.403 . S
C4425 C4426 1.392 . S
C4425 C4429 1.495 . S
C4426 C4425 1.392 . S
C4426 C4427 1.385 . S
C4426 C4428 1.478 . S
C4427 H4421 0.930 . S
C4427 C4423 1.400 . S
C4427 C4426 1.385 . S
C4428 C4426 1.478 . S
C4428 C4430 1.381 . S
C4428 C4434 1.383 . S
C4429 C4425 1.495 . S
C4429 H4435 0.959 . S
C4429 H4436 0.961 . S
C4429 H4437 0.960 . S
C4430 C4428 1.381 . S
C4430 C4431 1.394 . S
C4430 H4438 0.930 . S
C4431 C4430 1.394 . S
C4431 C4432 1.383 . S
C4431 H4439 0.929 . S
C4432 C4431 1.383 . S
C4432 C4433 1.377 . S
C4433 H4417 0.930 . S
C4433 C4432 1.377 . S
C4433 C4434 1.379 . S
C4434 H4418 0.931 . S
C4434 C4428 1.383 . S
C4434 C4433 1.379 . S
H4435 C4429 0.959 . S
H4436 C4429 0.961 . S
H4437 C4429 0.960 . S
H4438 C4430 0.930 . S
H4439 C4431 0.929 . S
H4440 C4448 0.929 . S
H4441 C4450 0.930 . S
H4442 C4452 0.930 . S
H4443 C4455 0.929 . S
H4444 C4458 0.930 . S
H4445 C4460 0.960 . S
H4446 C4460 0.960 . S
H4447 C4460 0.960 . S
C4448 H4440 0.929 . S
C4448 C4449 1.377 . S
C4448 C4450 1.384 . S
C4449 C4448 1.377 . S
C4449 C4455 1.390 . S
C4450 H4441 0.930 . S
C4450 C4448 1.384 . S
C4450 C4451 1.372 . S
C4451 C4450 1.372 . S
C4451 C4452 1.400 . S
C4451 C4456 1.490 . S
C4452 H4442 0.930 . S
C4452 C4451 1.400 . S
C4452 C4455 1.386 . S
H4453 C4469 0.930 . S
H4454 C4470 0.931 . S
C4455 H4443 0.929 . S
C4455 C4449 1.390 . S
C4455 C4452 1.386 . S
C4456 C4451 1.490 . S
C4456 C4458 1.395 . S
C4456 C4459 1.403 . S
H4457 C4463 0.930 . S
C4458 H4444 0.930 . S
C4458 C4456 1.395 . S
C4458 C4461 1.403 . S
C4459 C4456 1.403 . S
C4459 C4460 1.524 . S
C4459 C4463 1.400 . S
C4460 H4445 0.960 . S
C4460 H4446 0.960 . S
C4460 H4447 0.960 . S
C4460 C4459 1.524 . S
C4461 C4458 1.403 . S
C4461 C4462 1.392 . S
C4461 C4465 1.495 . S
C4462 C4461 1.392 . S
C4462 C4463 1.385 . S
C4462 C4464 1.478 . S
C4463 H4457 0.930 . S
C4463 C4459 1.400 . S
C4463 C4462 1.385 . S
C4464 C4462 1.478 . S
C4464 C4466 1.381 . S
C4464 C4470 1.383 . S
C4465 C4461 1.495 . S
C4465 H4471 0.959 . S
C4465 H4472 0.961 . S
C4465 H4473 0.960 . S
C4466 C4464 1.381 . S
C4466 C4467 1.394 . S
C4466 H4474 0.930 . S
C4467 C4466 1.394 . S
C4467 C4468 1.383 . S
C4467 H4475 0.929 . S
C4468 C4467 1.383 . S
C4468 C4469 1.377 . S
C4469 H4453 0.930 . S
C4469 C4468 1.377 . S
C4469 C4470 1.379 . S
C4470 H4454 0.931 . S
C4470 C4464 1.383 . S
C4470 C4469 1.379 . S
H4471 C4465 0.959 . S
H4472 C4465 0.961 . S
H4473 C4465 0.960 . S
H4474 C4466 0.930 . S
H4475 C4467 0.929 . S
H4476 C4484 0.929 . S
H4477 C4486 0.930 . S
H4478 C4488 0.930 . S
H4479 C4491 0.929 . S
H4480 C4494 0.930 . S
H4481 C4496 0.960 . S
H4482 C4496 0.960 . S
H4483 C4496 0.960 . S
C4484 H4476 0.929 . S
C4484 C4485 1.377 . S
C4484 C4486 1.384 . S
C4485 C4484 1.377 . S
C4485 C4491 1.390 . S
C4486 H4477 0.930 . S
C4486 C4484 1.384 . S
C4486 C4487 1.372 . S
C4487 C4486 1.372 . S
C4487 C4488 1.400 . S
C4487 C4492 1.490 . S
C4488 H4478 0.930 . S
C4488 C4487 1.400 . S
C4488 C4491 1.386 . S
H4489 C4505 0.930 . S
H4490 C4506 0.931 . S
C4491 H4479 0.929 . S
C4491 C4485 1.390 . S
C4491 C4488 1.386 . S
C4492 C4487 1.490 . S
C4492 C4494 1.395 . S
C4492 C4495 1.403 . S
H4493 C4499 0.930 . S
C4494 H4480 0.930 . S
C4494 C4492 1.395 . S
C4494 C4497 1.403 . S
C4495 C4492 1.403 . S
C4495 C4496 1.524 . S
C4495 C4499 1.400 . S
C4496 H4481 0.960 . S
C4496 H4482 0.960 . S
C4496 H4483 0.960 . S
C4496 C4495 1.524 . S
C4497 C4494 1.403 . S
C4497 C4498 1.392 . S
C4497 C4501 1.495 . S
C4498 C4497 1.392 . S
C4498 C4499 1.385 . S
C4498 C4500 1.478 . S
C4499 H4493 0.930 . S
C4499 C4495 1.400 . S
C4499 C4498 1.385 . S
C4500 C4498 1.478 . S
C4500 C4502 1.381 . S
C4500 C4506 1.383 . S
C4501 C4497 1.495 . S
C4501 H4507 0.959 . S
C4501 H4508 0.961 . S
C4501 H4509 0.960 . S
C4502 C4500 1.381 . S
C4502 C4503 1.394 . S
C4502 H4510 0.930 . S
C4503 C4502 1.394 . S
C4503 C4504 1.383 . S
C4503 H4511 0.929 . S
C4504 C4503 1.383 . S
C4504 C4505 1.377 . S
C4505 H4489 0.930 . S
C4505 C4504 1.377 . S
C4505 C4506 1.379 . S
C4506 H4490 0.931 . S
C4506 C4500 1.383 . S
C4506 C4505 1.379 . S
H4507 C4501 0.959 . S
H4508 C4501 0.961 . S
H4509 C4501 0.960 . S
H4510 C4502 0.930 . S
H4511 C4503 0.929 . S
H4512 C4520 0.929 . S
H4513 C4522 0.882 1_565 S
H4514 C4524 0.930 . S
H4515 C4527 0.929 . S
H4516 C4530 0.930 . S
H4517 C4532 0.960 . S
H4518 C4532 0.960 . S
H4519 C4532 0.960 . S
C4520 H4512 0.929 . S
C4520 C4521 1.377 . S
C4520 C4522 1.384 . S
C4521 C4520 1.377 . S
C4521 C4527 1.390 . S
C4522 H4513 0.882 1_545 S
C4522 C4520 1.384 . S
C4522 C4523 1.372 . S
C4523 C4522 1.372 . S
C4523 C4524 1.400 . S
C4523 C4528 1.490 . S
C4524 H4514 0.930 . S
C4524 C4523 1.400 . S
C4524 C4527 1.386 . S
H4525 C4541 0.930 . S
H4526 C4542 0.931 . S
C4527 H4515 0.929 . S
C4527 C4521 1.390 . S
C4527 C4524 1.386 . S
C4528 C4523 1.490 . S
C4528 C4530 1.395 1_545 S
C4528 C4531 1.403 . S
H4529 C4535 0.930 . S
C4530 H4516 0.930 . S
C4530 C4528 1.395 1_565 S
C4530 C4533 1.403 . S
C4531 C4528 1.403 . S
C4531 C4532 1.524 . S
C4531 C4535 1.400 1_545 S
C4532 H4517 0.960 . S
C4532 H4518 0.960 . S
C4532 H4519 0.960 . S
C4532 C4531 1.524 . S
C4533 C4530 1.403 . S
C4533 C4534 1.392 . S
C4533 C4537 1.495 . S
C4534 C4533 1.392 . S
C4534 C4535 1.385 . S
C4534 C4536 1.478 . S
C4535 H4529 0.930 . S
C4535 C4531 1.400 1_565 S
C4535 C4534 1.385 . S
C4536 C4534 1.478 . S
C4536 C4538 1.381 . S
C4536 C4542 1.383 . S
C4537 C4533 1.495 . S
C4537 H4543 0.959 . S
C4537 H4544 0.961 . S
C4537 H4545 0.960 . S
C4538 C4536 1.381 . S
C4538 C4539 1.394 . S
C4538 H4546 0.930 . S
C4539 C4538 1.394 . S
C4539 C4540 1.383 . S
C4539 H4547 0.929 . S
C4540 C4539 1.383 . S
C4540 C4541 1.377 . S
C4541 H4525 0.930 . S
C4541 C4540 1.377 . S
C4541 C4542 1.379 . S
C4542 H4526 0.931 . S
C4542 C4536 1.383 . S
C4542 C4541 1.379 . S
H4543 C4537 0.959 . S
H4544 C4537 0.961 . S
H4545 C4537 0.960 . S
H4546 C4538 0.930 . S
H4547 C4539 0.929 . S
H4548 C4556 0.929 . S
H4549 C4558 0.930 . S
H4550 C4560 0.930 . S
H4551 C4563 0.929 . S
H4552 C4566 0.930 . S
H4553 C4568 0.960 . S
H4554 C4568 0.960 . S
H4555 C4568 0.960 . S
C4556 H4548 0.929 . S
C4556 C4557 1.377 . S
C4556 C4558 1.384 . S
C4557 C4556 1.377 . S
C4557 C4563 1.390 . S
C4558 H4549 0.930 . S
C4558 C4556 1.384 . S
C4558 C4559 1.372 . S
C4559 C4558 1.372 . S
C4559 C4560 1.400 . S
C4559 C4564 1.490 . S
C4560 H4550 0.930 . S
C4560 C4559 1.400 . S
C4560 C4563 1.386 . S
H4561 C4577 0.930 . S
H4562 C4578 0.931 . S
C4563 H4551 0.929 . S
C4563 C4557 1.390 . S
C4563 C4560 1.386 . S
C4564 C4559 1.490 . S
C4564 C4566 1.395 . S
C4564 C4567 1.403 . S
H4565 C4571 0.930 . S
C4566 H4552 0.930 . S
C4566 C4564 1.395 . S
C4566 C4569 1.403 . S
C4567 C4564 1.403 . S
C4567 C4568 1.524 . S
C4567 C4571 1.400 . S
C4568 H4553 0.960 . S
C4568 H4554 0.960 . S
C4568 H4555 0.960 . S
C4568 C4567 1.524 . S
C4569 C4566 1.403 . S
C4569 C4570 1.392 . S
C4569 C4573 1.495 . S
C4570 C4569 1.392 . S
C4570 C4571 1.385 . S
C4570 C4572 1.478 . S
C4571 H4565 0.930 . S
C4571 C4567 1.400 . S
C4571 C4570 1.385 . S
C4572 C4570 1.478 . S
C4572 C4574 1.381 . S
C4572 C4578 1.383 . S
C4573 C4569 1.495 . S
C4573 H4579 0.959 . S
C4573 H4580 0.961 . S
C4573 H4581 0.960 . S
C4574 C4572 1.381 . S
C4574 C4575 1.394 . S
C4574 H4582 0.930 . S
C4575 C4574 1.394 . S
C4575 C4576 1.383 . S
C4575 H4583 0.929 . S
C4576 C4575 1.383 . S
C4576 C4577 1.377 . S
C4577 H4561 0.930 . S
C4577 C4576 1.377 . S
C4577 C4578 1.379 . S
C4578 H4562 0.931 . S
C4578 C4572 1.383 . S
C4578 C4577 1.379 . S
H4579 C4573 0.959 . S
H4580 C4573 0.961 . S
H4581 C4573 0.960 . S
H4582 C4574 0.930 . S
H4583 C4575 0.929 . S
H4584 C4592 0.929 . S
H4585 C4594 0.930 . S
H4586 C4596 0.930 . S
H4587 C4599 0.929 . S
H4588 C4602 0.930 . S
H4589 C4604 0.960 . S
H4590 C4604 0.960 . S
H4591 C4604 0.960 . S
C4592 H4584 0.929 . S
C4592 C4593 1.377 . S
C4592 C4594 1.384 . S
C4593 C4592 1.377 . S
C4593 C4599 1.390 . S
C4594 H4585 0.930 . S
C4594 C4592 1.384 . S
C4594 C4595 1.372 . S
C4595 C4594 1.372 . S
C4595 C4596 1.400 . S
C4595 C4600 1.490 . S
C4596 H4586 0.930 . S
C4596 C4595 1.400 . S
C4596 C4599 1.386 . S
H4597 C4613 0.930 . S
H4598 C4614 0.931 . S
C4599 H4587 0.929 . S
C4599 C4593 1.390 . S
C4599 C4596 1.386 . S
C4600 C4595 1.490 . S
C4600 C4602 1.395 . S
C4600 C4603 1.403 . S
H4601 C4607 0.930 . S
C4602 H4588 0.930 . S
C4602 C4600 1.395 . S
C4602 C4605 1.403 . S
C4603 C4600 1.403 . S
C4603 C4604 1.524 . S
C4603 C4607 1.400 . S
C4604 H4589 0.960 . S
C4604 H4590 0.960 . S
C4604 H4591 0.960 . S
C4604 C4603 1.524 . S
C4605 C4602 1.403 . S
C4605 C4606 1.392 . S
C4605 C4609 1.495 . S
C4606 C4605 1.392 . S
C4606 C4607 1.385 . S
C4606 C4608 1.478 . S
C4607 H4601 0.930 . S
C4607 C4603 1.400 . S
C4607 C4606 1.385 . S
C4608 C4606 1.478 . S
C4608 C4610 1.381 . S
C4608 C4614 1.383 . S
C4609 C4605 1.495 . S
C4609 H4615 0.959 . S
C4609 H4616 0.961 . S
C4609 H4617 0.960 . S
C4610 C4608 1.381 . S
C4610 C4611 1.394 . S
C4610 H4618 0.930 . S
C4611 C4610 1.394 . S
C4611 C4612 1.383 . S
C4611 H4619 0.929 . S
C4612 C4611 1.383 . S
C4612 C4613 1.377 . S
C4613 H4597 0.930 . S
C4613 C4612 1.377 . S
C4613 C4614 1.379 . S
C4614 H4598 0.931 . S
C4614 C4608 1.383 . S
C4614 C4613 1.379 . S
H4615 C4609 0.959 . S
H4616 C4609 0.961 . S
H4617 C4609 0.960 . S
H4618 C4610 0.930 . S
H4619 C4611 0.929 . S
H4620 C4628 0.929 . S
H4621 C4630 0.930 . S
H4622 C4632 0.930 . S
H4623 C4635 0.929 . S
H4624 C4638 0.930 . S
H4625 C4640 0.960 . S
H4626 C4640 0.960 . S
H4627 C4640 0.960 . S
C4628 H4620 0.929 . S
C4628 C4629 1.377 . S
C4628 C4630 1.384 . S
C4629 C4628 1.377 . S
C4629 C4635 1.390 . S
C4630 H4621 0.930 . S
C4630 C4628 1.384 . S
C4630 C4631 1.372 . S
C4631 C4630 1.372 . S
C4631 C4632 1.400 . S
C4631 C4636 1.490 . S
C4632 H4622 0.930 . S
C4632 C4631 1.400 . S
C4632 C4635 1.386 . S
H4633 C4649 0.930 . S
H4634 C4650 0.931 . S
C4635 H4623 0.929 . S
C4635 C4629 1.390 . S
C4635 C4632 1.386 . S
C4636 C4631 1.490 . S
C4636 C4638 1.395 . S
C4636 C4639 1.403 . S
H4637 C4643 0.930 . S
C4638 H4624 0.930 . S
C4638 C4636 1.395 . S
C4638 C4641 1.403 . S
C4639 C4636 1.403 . S
C4639 C4640 1.524 . S
C4639 C4643 1.400 . S
C4640 H4625 0.960 . S
C4640 H4626 0.960 . S
C4640 H4627 0.960 . S
C4640 C4639 1.524 . S
C4641 C4638 1.403 . S
C4641 C4642 1.392 . S
C4641 C4645 1.495 . S
C4642 C4641 1.392 . S
C4642 C4643 1.385 . S
C4642 C4644 1.478 . S
C4643 H4637 0.930 . S
C4643 C4639 1.400 . S
C4643 C4642 1.385 . S
C4644 C4642 1.478 . S
C4644 C4646 1.381 . S
C4644 C4650 1.383 . S
C4645 C4641 1.495 . S
C4645 H4651 0.959 . S
C4645 H4652 0.961 . S
C4645 H4653 0.960 . S
C4646 C4644 1.381 . S
C4646 C4647 1.394 . S
C4646 H4654 0.930 . S
C4647 C4646 1.394 . S
C4647 C4648 1.383 . S
C4647 H4655 0.929 . S
C4648 C4647 1.383 . S
C4648 C4649 1.377 . S
C4649 H4633 0.930 . S
C4649 C4648 1.377 . S
C4649 C4650 1.379 . S
C4650 H4634 0.931 . S
C4650 C4644 1.383 . S
C4650 C4649 1.379 . S
H4651 C4645 0.959 . S
H4652 C4645 0.961 . S
H4653 C4645 0.960 . S
H4654 C4646 0.930 . S
H4655 C4647 0.929 . S
H4656 C4664 0.929 . S
H4657 C4666 0.930 . S
H4658 C4668 0.930 . S
H4659 C4671 0.929 . S
H4660 C4674 0.930 . S
H4661 C4676 0.960 . S
H4662 C4676 0.960 . S
H4663 C4676 0.960 . S
C4664 H4656 0.929 . S
C4664 C4665 1.377 . S
C4664 C4666 1.384 . S
C4665 C4664 1.377 . S
C4665 C4671 1.390 . S
C4666 H4657 0.930 . S
C4666 C4664 1.384 . S
C4666 C4667 1.372 . S
C4667 C4666 1.372 . S
C4667 C4668 1.400 . S
C4667 C4672 1.490 . S
C4668 H4658 0.930 . S
C4668 C4667 1.400 . S
C4668 C4671 1.386 . S
H4669 C4685 0.930 . S
H4670 C4686 0.931 . S
C4671 H4659 0.929 . S
C4671 C4665 1.390 . S
C4671 C4668 1.386 . S
C4672 C4667 1.490 . S
C4672 C4674 1.395 . S
C4672 C4675 1.403 . S
H4673 C4679 0.930 . S
C4674 H4660 0.930 . S
C4674 C4672 1.395 . S
C4674 C4677 1.403 . S
C4675 C4672 1.403 . S
C4675 C4676 1.524 . S
C4675 C4679 1.400 . S
C4676 H4661 0.960 . S
C4676 H4662 0.960 . S
C4676 H4663 0.960 . S
C4676 C4675 1.524 . S
C4677 C4674 1.403 . S
C4677 C4678 1.392 . S
C4677 C4681 1.495 . S
C4678 C4677 1.392 . S
C4678 C4679 1.385 . S
C4678 C4680 1.478 . S
C4679 H4673 0.930 . S
C4679 C4675 1.400 . S
C4679 C4678 1.385 . S
C4680 C4678 1.478 . S
C4680 C4682 1.381 . S
C4680 C4686 1.383 . S
C4681 C4677 1.495 . S
C4681 H4687 0.959 . S
C4681 H4688 0.961 . S
C4681 H4689 0.960 . S
C4682 C4680 1.381 . S
C4682 C4683 1.394 . S
C4682 H4690 0.930 . S
C4683 C4682 1.394 . S
C4683 C4684 1.383 . S
C4683 H4691 0.929 . S
C4684 C4683 1.383 . S
C4684 C4685 1.377 . S
C4685 H4669 0.930 . S
C4685 C4684 1.377 . S
C4685 C4686 1.379 . S
C4686 H4670 0.931 . S
C4686 C4680 1.383 . S
C4686 C4685 1.379 . S
H4687 C4681 0.959 . S
H4688 C4681 0.961 . S
H4689 C4681 0.960 . S
H4690 C4682 0.930 . S
H4691 C4683 0.929 . S
H4692 C4700 0.929 . S
H4693 C4702 0.930 . S
H4694 C4704 0.930 . S
H4695 C4707 0.929 . S
H4696 C4710 0.930 . S
H4697 C4712 0.960 . S
H4698 C4712 0.960 . S
H4699 C4712 0.960 . S
C4700 H4692 0.929 . S
C4700 C4701 1.377 . S
C4700 C4702 1.384 . S
C4701 C4700 1.377 . S
C4701 C4707 1.390 . S
C4702 H4693 0.930 . S
C4702 C4700 1.384 . S
C4702 C4703 1.372 . S
C4703 C4702 1.372 . S
C4703 C4704 1.400 . S
C4703 C4708 1.490 . S
C4704 H4694 0.930 . S
C4704 C4703 1.400 . S
C4704 C4707 1.386 . S
H4705 C4721 0.930 . S
H4706 C4722 0.931 . S
C4707 H4695 0.929 . S
C4707 C4701 1.390 . S
C4707 C4704 1.386 . S
C4708 C4703 1.490 . S
C4708 C4710 1.395 . S
C4708 C4711 1.403 . S
H4709 C4715 0.930 . S
C4710 H4696 0.930 . S
C4710 C4708 1.395 . S
C4710 C4713 1.403 . S
C4711 C4708 1.403 . S
C4711 C4712 1.524 . S
C4711 C4715 1.400 . S
C4712 H4697 0.960 . S
C4712 H4698 0.960 . S
C4712 H4699 0.960 . S
C4712 C4711 1.524 . S
C4713 C4710 1.403 . S
C4713 C4714 1.392 . S
C4713 C4717 1.495 . S
C4714 C4713 1.392 . S
C4714 C4715 1.385 . S
C4714 C4716 1.478 . S
C4715 H4709 0.930 . S
C4715 C4711 1.400 . S
C4715 C4714 1.385 . S
C4716 C4714 1.478 . S
C4716 C4718 1.381 . S
C4716 C4722 1.383 . S
C4717 C4713 1.495 . S
C4717 H4723 0.959 . S
C4717 H4724 0.961 . S
C4717 H4725 0.960 . S
C4718 C4716 1.381 . S
C4718 C4719 1.394 . S
C4718 H4726 0.930 . S
C4719 C4718 1.394 . S
C4719 C4720 1.383 . S
C4719 H4727 0.929 . S
C4720 C4719 1.383 . S
C4720 C4721 1.377 . S
C4721 H4705 0.930 . S
C4721 C4720 1.377 . S
C4721 C4722 1.379 . S
C4722 H4706 0.931 . S
C4722 C4716 1.383 . S
C4722 C4721 1.379 . S
H4723 C4717 0.959 . S
H4724 C4717 0.961 . S
H4725 C4717 0.960 . S
H4726 C4718 0.930 . S
H4727 C4719 0.929 . S
H4728 C4736 0.929 . S
H4729 C4738 0.930 . S
H4730 C4740 0.930 . S
H4731 C4743 0.929 . S
H4732 C4746 0.930 . S
H4733 C4748 0.960 . S
H4734 C4748 0.960 1_565 S
H4735 C4748 0.960 . S
C4736 H4728 0.929 . S
C4736 C4737 1.377 . S
C4736 C4738 1.384 . S
C4737 C4736 1.377 . S
C4737 C4743 1.390 . S
C4738 H4729 0.930 . S
C4738 C4736 1.384 . S
C4738 C4739 1.372 . S
C4739 C4738 1.372 . S
C4739 C4740 1.400 . S
C4739 C4744 1.490 . S
C4740 H4730 0.930 . S
C4740 C4739 1.400 . S
C4740 C4743 1.386 . S
H4741 C4757 0.930 . S
H4742 C4758 0.931 . S
C4743 H4731 0.929 . S
C4743 C4737 1.390 . S
C4743 C4740 1.386 . S
C4744 C4739 1.490 . S
C4744 C4746 1.395 . S
C4744 C4747 1.403 . S
H4745 C4751 0.930 . S
C4746 H4732 0.930 . S
C4746 C4744 1.395 . S
C4746 C4749 1.403 . S
C4747 C4744 1.403 . S
C4747 C4748 1.524 1_565 S
C4747 C4751 1.400 1_565 S
C4748 H4733 0.960 . S
C4748 H4734 0.960 1_545 S
C4748 H4735 0.960 . S
C4748 C4747 1.524 1_545 S
C4749 C4746 1.403 . S
C4749 C4750 1.392 1_565 S
C4749 C4753 1.495 . S
C4750 C4749 1.392 1_545 S
C4750 C4751 1.385 . S
C4750 C4752 1.478 . S
C4751 H4745 0.930 . S
C4751 C4747 1.400 1_545 S
C4751 C4750 1.385 . S
C4752 C4750 1.478 . S
C4752 C4754 1.381 . S
C4752 C4758 1.383 . S
C4753 C4749 1.495 . S
C4753 H4759 0.959 . S
C4753 H4760 0.961 . S
C4753 H4761 0.960 . S
C4754 C4752 1.381 . S
C4754 C4755 1.394 . S
C4754 H4762 0.880 1_545 S
C4755 C4754 1.394 . S
C4755 C4756 1.383 . S
C4755 H4763 0.929 . S
C4756 C4755 1.383 . S
C4756 C4757 1.377 . S
C4757 H4741 0.930 . S
C4757 C4756 1.377 . S
C4757 C4758 1.379 . S
C4758 H4742 0.931 . S
C4758 C4752 1.383 . S
C4758 C4757 1.379 . S
H4759 C4753 0.959 . S
H4760 C4753 0.961 . S
H4761 C4753 0.960 . S
H4762 C4754 0.880 1_565 S
H4763 C4755 0.929 . S
H4764 C4772 0.929 . S
H4765 C4774 0.930 . S
H4766 C4776 0.930 . S
H4767 C4779 0.929 . S
H4768 C4782 0.930 . S
H4769 C4784 0.960 . S
H4770 C4784 0.960 . S
H4771 C4784 0.960 . S
C4772 H4764 0.929 . S
C4772 C4773 1.377 . S
C4772 C4774 1.384 . S
C4773 C4772 1.377 . S
C4773 C4779 1.390 . S
C4774 H4765 0.930 . S
C4774 C4772 1.384 . S
C4774 C4775 1.372 . S
C4775 C4774 1.372 . S
C4775 C4776 1.400 . S
C4775 C4780 1.490 . S
C4776 H4766 0.930 . S
C4776 C4775 1.400 . S
C4776 C4779 1.386 . S
H4777 C4793 0.930 . S
H4778 C4794 0.931 . S
C4779 H4767 0.929 . S
C4779 C4773 1.390 . S
C4779 C4776 1.386 . S
C4780 C4775 1.490 . S
C4780 C4782 1.395 . S
C4780 C4783 1.403 . S
H4781 C4787 0.930 . S
C4782 H4768 0.930 . S
C4782 C4780 1.395 . S
C4782 C4785 1.403 . S
C4783 C4780 1.403 . S
C4783 C4784 1.524 . S
C4783 C4787 1.400 . S
C4784 H4769 0.960 . S
C4784 H4770 0.960 . S
C4784 H4771 0.960 . S
C4784 C4783 1.524 . S
C4785 C4782 1.403 . S
C4785 C4786 1.392 . S
C4785 C4789 1.495 . S
C4786 C4785 1.392 . S
C4786 C4787 1.385 . S
C4786 C4788 1.478 . S
C4787 H4781 0.930 . S
C4787 C4783 1.400 . S
C4787 C4786 1.385 . S
C4788 C4786 1.478 . S
C4788 C4790 1.381 . S
C4788 C4794 1.383 . S
C4789 C4785 1.495 . S
C4789 H4795 0.959 . S
C4789 H4796 0.961 . S
C4789 H4797 0.960 . S
C4790 C4788 1.381 . S
C4790 C4791 1.394 . S
C4790 H4798 0.930 . S
C4791 C4790 1.394 . S
C4791 C4792 1.383 . S
C4791 H4799 0.929 . S
C4792 C4791 1.383 . S
C4792 C4793 1.377 . S
C4793 H4777 0.930 . S
C4793 C4792 1.377 . S
C4793 C4794 1.379 . S
C4794 H4778 0.931 . S
C4794 C4788 1.383 . S
C4794 C4793 1.379 . S
H4795 C4789 0.959 . S
H4796 C4789 0.961 . S
H4797 C4789 0.960 . S
H4798 C4790 0.930 . S
H4799 C4791 0.929 . S
H4800 C4808 0.929 . S
H4801 C4810 0.930 . S
H4802 C4812 0.930 . S
H4803 C4815 0.929 . S
H4804 C4818 0.930 . S
H4805 C4820 0.960 . S
H4806 C4820 0.960 . S
H4807 C4820 0.960 . S
C4808 H4800 0.929 . S
C4808 C4809 1.377 . S
C4808 C4810 1.384 . S
C4809 C4808 1.377 . S
C4809 C4815 1.390 . S
C4810 H4801 0.930 . S
C4810 C4808 1.384 . S
C4810 C4811 1.372 . S
C4811 C4810 1.372 . S
C4811 C4812 1.400 . S
C4811 C4816 1.490 . S
C4812 H4802 0.930 . S
C4812 C4811 1.400 . S
C4812 C4815 1.386 . S
H4813 C4829 0.930 . S
H4814 C4830 0.931 . S
C4815 H4803 0.929 . S
C4815 C4809 1.390 . S
C4815 C4812 1.386 . S
C4816 C4811 1.490 . S
C4816 C4818 1.395 . S
C4816 C4819 1.403 . S
H4817 C4823 0.930 . S
C4818 H4804 0.930 . S
C4818 C4816 1.395 . S
C4818 C4821 1.403 . S
C4819 C4816 1.403 . S
C4819 C4820 1.524 . S
C4819 C4823 1.400 . S
C4820 H4805 0.960 . S
C4820 H4806 0.960 . S
C4820 H4807 0.960 . S
C4820 C4819 1.524 . S
C4821 C4818 1.403 . S
C4821 C4822 1.392 . S
C4821 C4825 1.495 . S
C4822 C4821 1.392 . S
C4822 C4823 1.385 . S
C4822 C4824 1.478 . S
C4823 H4817 0.930 . S
C4823 C4819 1.400 . S
C4823 C4822 1.385 . S
C4824 C4822 1.478 . S
C4824 C4826 1.381 . S
C4824 C4830 1.383 . S
C4825 C4821 1.495 . S
C4825 H4831 0.959 . S
C4825 H4832 0.961 . S
C4825 H4833 0.960 . S
C4826 C4824 1.381 . S
C4826 C4827 1.394 . S
C4826 H4834 0.930 . S
C4827 C4826 1.394 . S
C4827 C4828 1.383 . S
C4827 H4835 0.929 . S
C4828 C4827 1.383 . S
C4828 C4829 1.377 . S
C4829 H4813 0.930 . S
C4829 C4828 1.377 . S
C4829 C4830 1.379 . S
C4830 H4814 0.931 . S
C4830 C4824 1.383 . S
C4830 C4829 1.379 . S
H4831 C4825 0.959 . S
H4832 C4825 0.961 . S
H4833 C4825 0.960 . S
H4834 C4826 0.930 . S
H4835 C4827 0.929 . S
H4836 C4844 0.929 . S
H4837 C4846 0.930 . S
H4838 C4848 0.930 . S
H4839 C4851 0.929 . S
H4840 C4854 0.930 . S
H4841 C4856 0.960 . S
H4842 C4856 0.960 . S
H4843 C4856 0.960 . S
C4844 H4836 0.929 . S
C4844 C4845 1.377 . S
C4844 C4846 1.384 . S
C4845 C4844 1.377 . S
C4845 C4851 1.390 . S
C4846 H4837 0.930 . S
C4846 C4844 1.384 . S
C4846 C4847 1.372 . S
C4847 C4846 1.372 . S
C4847 C4848 1.400 . S
C4847 C4852 1.490 . S
C4848 H4838 0.930 . S
C4848 C4847 1.400 . S
C4848 C4851 1.386 . S
H4849 C4865 0.930 . S
H4850 C4866 0.931 . S
C4851 H4839 0.929 . S
C4851 C4845 1.390 . S
C4851 C4848 1.386 . S
C4852 C4847 1.490 . S
C4852 C4854 1.395 . S
C4852 C4855 1.403 . S
H4853 C4859 0.930 . S
C4854 H4840 0.930 . S
C4854 C4852 1.395 . S
C4854 C4857 1.403 . S
C4855 C4852 1.403 . S
C4855 C4856 1.524 . S
C4855 C4859 1.400 . S
C4856 H4841 0.960 . S
C4856 H4842 0.960 . S
C4856 H4843 0.960 . S
C4856 C4855 1.524 . S
C4857 C4854 1.403 . S
C4857 C4858 1.392 . S
C4857 C4861 1.495 . S
C4858 C4857 1.392 . S
C4858 C4859 1.385 . S
C4858 C4860 1.478 . S
C4859 H4853 0.930 . S
C4859 C4855 1.400 . S
C4859 C4858 1.385 . S
C4860 C4858 1.478 . S
C4860 C4862 1.381 . S
C4860 C4866 1.383 . S
C4861 C4857 1.495 . S
C4861 H4867 0.959 . S
C4861 H4868 0.961 . S
C4861 H4869 0.960 . S
C4862 C4860 1.381 . S
C4862 C4863 1.394 . S
C4862 H4870 0.930 . S
C4863 C4862 1.394 . S
C4863 C4864 1.383 . S
C4863 H4871 0.929 . S
C4864 C4863 1.383 . S
C4864 C4865 1.377 . S
C4865 H4849 0.930 . S
C4865 C4864 1.377 . S
C4865 C4866 1.379 . S
C4866 H4850 0.931 . S
C4866 C4860 1.383 . S
C4866 C4865 1.379 . S
H4867 C4861 0.959 . S
H4868 C4861 0.961 . S
H4869 C4861 0.960 . S
H4870 C4862 0.930 . S
H4871 C4863 0.929 . S
H4872 C4880 0.929 . S
H4873 C4882 0.930 . S
H4874 C4884 0.930 . S
H4875 C4887 0.929 . S
H4876 C4890 0.930 . S
H4877 C4892 0.960 . S
H4878 C4892 0.960 . S
H4879 C4892 0.960 . S
C4880 H4872 0.929 . S
C4880 C4881 1.377 . S
C4880 C4882 1.384 . S
C4881 C4880 1.377 . S
C4881 C4887 1.390 . S
C4882 H4873 0.930 . S
C4882 C4880 1.384 . S
C4882 C4883 1.372 . S
C4883 C4882 1.372 . S
C4883 C4884 1.400 . S
C4883 C4888 1.490 . S
C4884 H4874 0.930 . S
C4884 C4883 1.400 . S
C4884 C4887 1.386 . S
H4885 C4901 0.930 . S
H4886 C4902 0.931 . S
C4887 H4875 0.929 . S
C4887 C4881 1.390 . S
C4887 C4884 1.386 . S
C4888 C4883 1.490 . S
C4888 C4890 1.395 . S
C4888 C4891 1.403 . S
H4889 C4895 0.930 . S
C4890 H4876 0.930 . S
C4890 C4888 1.395 . S
C4890 C4893 1.403 . S
C4891 C4888 1.403 . S
C4891 C4892 1.524 . S
C4891 C4895 1.400 . S
C4892 H4877 0.960 . S
C4892 H4878 0.960 . S
C4892 H4879 0.960 . S
C4892 C4891 1.524 . S
C4893 C4890 1.403 . S
C4893 C4894 1.392 . S
C4893 C4897 1.495 . S
C4894 C4893 1.392 . S
C4894 C4895 1.385 . S
C4894 C4896 1.478 . S
C4895 H4889 0.930 . S
C4895 C4891 1.400 . S
C4895 C4894 1.385 . S
C4896 C4894 1.478 . S
C4896 C4898 1.381 . S
C4896 C4902 1.383 . S
C4897 C4893 1.495 . S
C4897 H4903 0.959 . S
C4897 H4904 0.961 . S
C4897 H4905 0.960 . S
C4898 C4896 1.381 . S
C4898 C4899 1.394 . S
C4898 H4906 0.930 . S
C4899 C4898 1.394 . S
C4899 C4900 1.383 . S
C4899 H4907 0.929 . S
C4900 C4899 1.383 . S
C4900 C4901 1.377 . S
C4901 H4885 0.930 . S
C4901 C4900 1.377 . S
C4901 C4902 1.379 . S
C4902 H4886 0.931 . S
C4902 C4896 1.383 . S
C4902 C4901 1.379 . S
H4903 C4897 0.959 . S
H4904 C4897 0.961 . S
H4905 C4897 0.960 . S
H4906 C4898 0.930 . S
H4907 C4899 0.929 . S
H4908 C4916 0.929 . S
H4909 C4918 0.930 . S
H4910 C4920 0.930 . S
H4911 C4923 0.929 . S
H4912 C4926 0.930 . S
H4913 C4928 0.960 . S
H4914 C4928 0.960 . S
H4915 C4928 0.960 . S
C4916 H4908 0.929 . S
C4916 C4917 1.377 . S
C4916 C4918 1.384 . S
C4917 C4916 1.377 . S
C4917 C4923 1.390 . S
C4918 H4909 0.930 . S
C4918 C4916 1.384 . S
C4918 C4919 1.372 . S
C4919 C4918 1.372 . S
C4919 C4920 1.400 . S
C4919 C4924 1.490 . S
C4920 H4910 0.930 . S
C4920 C4919 1.400 . S
C4920 C4923 1.386 . S
H4921 C4937 0.930 . S
H4922 C4938 0.931 . S
C4923 H4911 0.929 . S
C4923 C4917 1.390 . S
C4923 C4920 1.386 . S
C4924 C4919 1.490 . S
C4924 C4926 1.395 . S
C4924 C4927 1.403 . S
H4925 C4931 0.930 . S
C4926 H4912 0.930 . S
C4926 C4924 1.395 . S
C4926 C4929 1.403 . S
C4927 C4924 1.403 . S
C4927 C4928 1.524 . S
C4927 C4931 1.400 . S
C4928 H4913 0.960 . S
C4928 H4914 0.960 . S
C4928 H4915 0.960 . S
C4928 C4927 1.524 . S
C4929 C4926 1.403 . S
C4929 C4930 1.392 . S
C4929 C4933 1.495 . S
C4930 C4929 1.392 . S
C4930 C4931 1.385 . S
C4930 C4932 1.478 . S
C4931 H4925 0.930 . S
C4931 C4927 1.400 . S
C4931 C4930 1.385 . S
C4932 C4930 1.478 . S
C4932 C4934 1.381 . S
C4932 C4938 1.383 . S
C4933 C4929 1.495 . S
C4933 H4939 0.959 . S
C4933 H4940 0.961 . S
C4933 H4941 0.960 . S
C4934 C4932 1.381 . S
C4934 C4935 1.394 . S
C4934 H4942 0.930 . S
C4935 C4934 1.394 . S
C4935 C4936 1.383 . S
C4935 H4943 0.929 . S
C4936 C4935 1.383 . S
C4936 C4937 1.377 . S
C4937 H4921 0.930 . S
C4937 C4936 1.377 . S
C4937 C4938 1.379 . S
C4938 H4922 0.931 . S
C4938 C4932 1.383 . S
C4938 C4937 1.379 . S
H4939 C4933 0.959 . S
H4940 C4933 0.961 . S
H4941 C4933 0.960 . S
H4942 C4934 0.930 . S
H4943 C4935 0.929 . S
H4944 C4952 0.929 . S
H4945 C4954 0.930 . S
H4946 C4956 0.930 . S
H4947 C4959 0.929 . S
H4948 C4962 0.930 . S
H4949 C4964 0.960 . S
H4950 C4964 0.960 . S
H4951 C4964 0.960 . S
C4952 H4944 0.929 . S
C4952 C4953 1.377 . S
C4952 C4954 1.384 . S
C4953 C4952 1.377 . S
C4953 C4959 1.390 . S
C4954 H4945 0.930 . S
C4954 C4952 1.384 . S
C4954 C4955 1.372 . S
C4955 C4954 1.372 . S
C4955 C4956 1.400 . S
C4955 C4960 1.490 . S
C4956 H4946 0.930 . S
C4956 C4955 1.400 . S
C4956 C4959 1.386 . S
H4957 C4973 0.930 . S
H4958 C4974 0.931 . S
C4959 H4947 0.929 . S
C4959 C4953 1.390 . S
C4959 C4956 1.386 . S
C4960 C4955 1.490 . S
C4960 C4962 1.395 . S
C4960 C4963 1.403 . S
H4961 C4967 0.930 . S
C4962 H4948 0.930 . S
C4962 C4960 1.395 . S
C4962 C4965 1.403 . S
C4963 C4960 1.403 . S
C4963 C4964 1.524 . S
C4963 C4967 1.400 . S
C4964 H4949 0.960 . S
C4964 H4950 0.960 . S
C4964 H4951 0.960 . S
C4964 C4963 1.524 . S
C4965 C4962 1.403 . S
C4965 C4966 1.392 . S
C4965 C4969 1.495 . S
C4966 C4965 1.392 . S
C4966 C4967 1.385 . S
C4966 C4968 1.478 . S
C4967 H4961 0.930 . S
C4967 C4963 1.400 . S
C4967 C4966 1.385 . S
C4968 C4966 1.478 . S
C4968 C4970 1.381 . S
C4968 C4974 1.383 . S
C4969 C4965 1.495 . S
C4969 H4975 0.959 . S
C4969 H4976 0.961 . S
C4969 H4977 0.960 . S
C4970 C4968 1.381 . S
C4970 C4971 1.394 . S
C4970 H4978 0.930 . S
C4971 C4970 1.394 . S
C4971 C4972 1.383 . S
C4971 H4979 0.929 . S
C4972 C4971 1.383 . S
C4972 C4973 1.377 . S
C4973 H4957 0.930 . S
C4973 C4972 1.377 . S
C4973 C4974 1.379 . S
C4974 H4958 0.931 . S
C4974 C4968 1.383 . S
C4974 C4973 1.379 . S
H4975 C4969 0.959 . S
H4976 C4969 0.961 . S
H4977 C4969 0.960 . S
H4978 C4970 0.930 . S
H4979 C4971 0.929 . S
H4980 C4988 0.929 . S
H4981 C4990 0.930 . S
H4982 C4992 0.930 . S
H4983 C4995 0.929 . S
H4984 C4998 0.930 . S
H4985 C5000 0.960 . S
H4986 C5000 0.960 . S
H4987 C5000 0.960 . S
C4988 H4980 0.929 . S
C4988 C4989 1.377 . S
C4988 C4990 1.384 . S
C4989 C4988 1.377 . S
C4989 C4995 1.390 . S
C4990 H4981 0.930 . S
C4990 C4988 1.384 . S
C4990 C4991 1.372 . S
C4991 C4990 1.372 . S
C4991 C4992 1.400 . S
C4991 C4996 1.490 . S
C4992 H4982 0.930 . S
C4992 C4991 1.400 . S
C4992 C4995 1.386 . S
H4993 C5009 0.930 . S
H4994 C5010 0.931 . S
C4995 H4983 0.929 . S
C4995 C4989 1.390 . S
C4995 C4992 1.386 . S
C4996 C4991 1.490 . S
C4996 C4998 1.395 . S
C4996 C4999 1.403 . S
H4997 C5003 0.930 . S
C4998 H4984 0.930 . S
C4998 C4996 1.395 . S
C4998 C5001 1.403 . S
C4999 C4996 1.403 . S
C4999 C5000 1.524 . S
C4999 C5003 1.400 . S
C5000 H4985 0.960 . S
C5000 H4986 0.960 . S
C5000 H4987 0.960 . S
C5000 C4999 1.524 . S
C5001 C4998 1.403 . S
C5001 C5002 1.392 . S
C5001 C5005 1.495 . S
C5002 C5001 1.392 . S
C5002 C5003 1.385 . S
C5002 C5004 1.478 . S
C5003 H4997 0.930 . S
C5003 C4999 1.400 . S
C5003 C5002 1.385 . S
C5004 C5002 1.478 . S
C5004 C5006 1.381 . S
C5004 C5010 1.383 . S
C5005 C5001 1.495 . S
C5005 H5011 0.959 . S
C5005 H5012 0.961 . S
C5005 H5013 0.960 . S
C5006 C5004 1.381 . S
C5006 C5007 1.394 . S
C5006 H5014 0.930 . S
C5007 C5006 1.394 . S
C5007 C5008 1.383 . S
C5007 H5015 0.929 . S
C5008 C5007 1.383 . S
C5008 C5009 1.377 . S
C5009 H4993 0.930 . S
C5009 C5008 1.377 . S
C5009 C5010 1.379 . S
C5010 H4994 0.931 . S
C5010 C5004 1.383 . S
C5010 C5009 1.379 . S
H5011 C5005 0.959 . S
H5012 C5005 0.961 . S
H5013 C5005 0.960 . S
H5014 C5006 0.930 . S
H5015 C5007 0.929 . S
H5016 C5024 0.929 . S
H5017 C5026 0.930 . S
H5018 C5028 0.930 . S
H5019 C5031 0.929 . S
H5020 C5034 0.930 . S
H5021 C5036 0.960 . S
H5022 C5036 0.960 . S
H5023 C5036 0.960 . S
C5024 H5016 0.929 . S
C5024 C5025 1.377 . S
C5024 C5026 1.384 . S
C5025 C5024 1.377 . S
C5025 C5031 1.390 . S
C5026 H5017 0.930 . S
C5026 C5024 1.384 . S
C5026 C5027 1.372 . S
C5027 C5026 1.372 . S
C5027 C5028 1.400 . S
C5027 C5032 1.490 . S
C5028 H5018 0.930 . S
C5028 C5027 1.400 . S
C5028 C5031 1.386 . S
H5029 C5045 0.930 . S
H5030 C5046 0.931 . S
C5031 H5019 0.929 . S
C5031 C5025 1.390 . S
C5031 C5028 1.386 . S
C5032 C5027 1.490 . S
C5032 C5034 1.395 . S
C5032 C5035 1.403 . S
H5033 C5039 0.930 . S
C5034 H5020 0.930 . S
C5034 C5032 1.395 . S
C5034 C5037 1.403 . S
C5035 C5032 1.403 . S
C5035 C5036 1.524 . S
C5035 C5039 1.400 . S
C5036 H5021 0.960 . S
C5036 H5022 0.960 . S
C5036 H5023 0.960 . S
C5036 C5035 1.524 . S
C5037 C5034 1.403 . S
C5037 C5038 1.392 . S
C5037 C5041 1.495 . S
C5038 C5037 1.392 . S
C5038 C5039 1.385 . S
C5038 C5040 1.478 . S
C5039 H5033 0.930 . S
C5039 C5035 1.400 . S
C5039 C5038 1.385 . S
C5040 C5038 1.478 . S
C5040 C5042 1.381 . S
C5040 C5046 1.383 . S
C5041 C5037 1.495 . S
C5041 H5047 0.959 . S
C5041 H5048 0.961 . S
C5041 H5049 0.960 . S
C5042 C5040 1.381 . S
C5042 C5043 1.394 . S
C5042 H5050 0.930 . S
C5043 C5042 1.394 . S
C5043 C5044 1.383 . S
C5043 H5051 0.929 . S
C5044 C5043 1.383 . S
C5044 C5045 1.377 . S
C5045 H5029 0.930 . S
C5045 C5044 1.377 . S
C5045 C5046 1.379 . S
C5046 H5030 0.931 . S
C5046 C5040 1.383 . S
C5046 C5045 1.379 . S
H5047 C5041 0.959 . S
H5048 C5041 0.961 . S
H5049 C5041 0.960 . S
H5050 C5042 0.930 . S
H5051 C5043 0.929 . S
H5052 C5060 0.929 . S
H5053 C5062 0.930 . S
H5054 C5064 0.930 . S
H5055 C5067 0.929 . S
H5056 C5070 0.930 . S
H5057 C5072 0.960 . S
H5058 C5072 0.960 . S
H5059 C5072 0.960 . S
C5060 H5052 0.929 . S
C5060 C5061 1.377 . S
C5060 C5062 1.384 . S
C5061 C5060 1.377 . S
C5061 C5067 1.390 . S
C5062 H5053 0.930 . S
C5062 C5060 1.384 . S
C5062 C5063 1.372 . S
C5063 C5062 1.372 . S
C5063 C5064 1.400 . S
C5063 C5068 1.490 . S
C5064 H5054 0.930 . S
C5064 C5063 1.400 . S
C5064 C5067 1.386 . S
H5065 C5081 0.930 . S
H5066 C5082 0.931 . S
C5067 H5055 0.929 . S
C5067 C5061 1.390 . S
C5067 C5064 1.386 . S
C5068 C5063 1.490 . S
C5068 C5070 1.395 . S
C5068 C5071 1.403 . S
H5069 C5075 0.930 . S
C5070 H5056 0.930 . S
C5070 C5068 1.395 . S
C5070 C5073 1.403 . S
C5071 C5068 1.403 . S
C5071 C5072 1.524 . S
C5071 C5075 1.400 . S
C5072 H5057 0.960 . S
C5072 H5058 0.960 . S
C5072 H5059 0.960 . S
C5072 C5071 1.524 . S
C5073 C5070 1.403 . S
C5073 C5074 1.392 . S
C5073 C5077 1.495 . S
C5074 C5073 1.392 . S
C5074 C5075 1.385 . S
C5074 C5076 1.478 . S
C5075 H5069 0.930 . S
C5075 C5071 1.400 . S
C5075 C5074 1.385 . S
C5076 C5074 1.478 . S
C5076 C5078 1.381 . S
C5076 C5082 1.383 . S
C5077 C5073 1.495 . S
C5077 H5083 0.959 . S
C5077 H5084 0.961 . S
C5077 H5085 0.960 . S
C5078 C5076 1.381 . S
C5078 C5079 1.394 . S
C5078 H5086 0.930 . S
C5079 C5078 1.394 . S
C5079 C5080 1.383 . S
C5079 H5087 0.929 . S
C5080 C5079 1.383 . S
C5080 C5081 1.377 . S
C5081 H5065 0.930 . S
C5081 C5080 1.377 . S
C5081 C5082 1.379 . S
C5082 H5066 0.931 . S
C5082 C5076 1.383 . S
C5082 C5081 1.379 . S
H5083 C5077 0.959 . S
H5084 C5077 0.961 . S
H5085 C5077 0.960 . S
H5086 C5078 0.930 . S
H5087 C5079 0.929 . S
H5088 C5096 0.929 . S
H5089 C5098 0.930 . S
H5090 C5100 0.930 . S
H5091 C5103 0.929 . S
H5092 C5106 0.930 . S
H5093 C5108 0.960 . S
H5094 C5108 0.960 . S
H5095 C5108 0.960 . S
C5096 H5088 0.929 . S
C5096 C5097 1.377 . S
C5096 C5098 1.384 . S
C5097 C5096 1.377 . S
C5097 C5103 1.390 . S
C5098 H5089 0.930 . S
C5098 C5096 1.384 . S
C5098 C5099 1.372 . S
C5099 C5098 1.372 . S
C5099 C5100 1.400 . S
C5099 C5104 1.490 . S
C5100 H5090 0.930 . S
C5100 C5099 1.400 . S
C5100 C5103 1.386 . S
H5101 C5117 0.930 . S
H5102 C5118 0.931 . S
C5103 H5091 0.929 . S
C5103 C5097 1.390 . S
C5103 C5100 1.386 . S
C5104 C5099 1.490 . S
C5104 C5106 1.395 . S
C5104 C5107 1.403 . S
H5105 C5111 0.930 . S
C5106 H5092 0.930 . S
C5106 C5104 1.395 . S
C5106 C5109 1.403 . S
C5107 C5104 1.403 . S
C5107 C5108 1.524 . S
C5107 C5111 1.400 . S
C5108 H5093 0.960 . S
C5108 H5094 0.960 . S
C5108 H5095 0.960 . S
C5108 C5107 1.524 . S
C5109 C5106 1.403 . S
C5109 C5110 1.392 . S
C5109 C5113 1.495 . S
C5110 C5109 1.392 . S
C5110 C5111 1.385 . S
C5110 C5112 1.478 . S
C5111 H5105 0.930 . S
C5111 C5107 1.400 . S
C5111 C5110 1.385 . S
C5112 C5110 1.478 . S
C5112 C5114 1.381 . S
C5112 C5118 1.383 . S
C5113 C5109 1.495 . S
C5113 H5119 0.959 . S
C5113 H5120 0.961 . S
C5113 H5121 0.960 . S
C5114 C5112 1.381 . S
C5114 C5115 1.394 . S
C5114 H5122 0.930 . S
C5115 C5114 1.394 . S
C5115 C5116 1.383 . S
C5115 H5123 0.929 . S
C5116 C5115 1.383 . S
C5116 C5117 1.377 . S
C5117 H5101 0.930 . S
C5117 C5116 1.377 . S
C5117 C5118 1.379 . S
C5118 H5102 0.931 . S
C5118 C5112 1.383 . S
C5118 C5117 1.379 . S
H5119 C5113 0.959 . S
H5120 C5113 0.961 . S
H5121 C5113 0.960 . S
H5122 C5114 0.930 . S
H5123 C5115 0.929 . S
H5124 C5132 0.929 . S
H5125 C5134 0.930 . S
H5126 C5136 0.930 . S
H5127 C5139 0.929 . S
H5128 C5142 0.930 . S
H5129 C5144 0.960 . S
H5130 C5144 0.960 . S
H5131 C5144 0.960 . S
C5132 H5124 0.929 . S
C5132 C5133 1.377 . S
C5132 C5134 1.384 . S
C5133 C5132 1.377 . S
C5133 C5139 1.390 . S
C5134 H5125 0.930 . S
C5134 C5132 1.384 . S
C5134 C5135 1.372 . S
C5135 C5134 1.372 . S
C5135 C5136 1.400 . S
C5135 C5140 1.490 . S
C5136 H5126 0.930 . S
C5136 C5135 1.400 . S
C5136 C5139 1.386 . S
H5137 C5153 0.930 . S
H5138 C5154 0.931 . S
C5139 H5127 0.929 . S
C5139 C5133 1.390 . S
C5139 C5136 1.386 . S
C5140 C5135 1.490 . S
C5140 C5142 1.395 . S
C5140 C5143 1.403 . S
H5141 C5147 0.930 . S
C5142 H5128 0.930 . S
C5142 C5140 1.395 . S
C5142 C5145 1.403 . S
C5143 C5140 1.403 . S
C5143 C5144 1.524 . S
C5143 C5147 1.400 . S
C5144 H5129 0.960 . S
C5144 H5130 0.960 . S
C5144 H5131 0.960 . S
C5144 C5143 1.524 . S
C5145 C5142 1.403 . S
C5145 C5146 1.392 . S
C5145 C5149 1.495 . S
C5146 C5145 1.392 . S
C5146 C5147 1.385 . S
C5146 C5148 1.478 . S
C5147 H5141 0.930 . S
C5147 C5143 1.400 . S
C5147 C5146 1.385 . S
C5148 C5146 1.478 . S
C5148 C5150 1.381 . S
C5148 C5154 1.383 . S
C5149 C5145 1.495 . S
C5149 H5155 0.959 . S
C5149 H5156 0.961 . S
C5149 H5157 0.960 . S
C5150 C5148 1.381 . S
C5150 C5151 1.394 . S
C5150 H5158 0.930 . S
C5151 C5150 1.394 . S
C5151 C5152 1.383 . S
C5151 H5159 0.929 . S
C5152 C5151 1.383 . S
C5152 C5153 1.377 . S
C5153 H5137 0.930 . S
C5153 C5152 1.377 . S
C5153 C5154 1.379 . S
C5154 H5138 0.931 . S
C5154 C5148 1.383 . S
C5154 C5153 1.379 . S
H5155 C5149 0.959 . S
H5156 C5149 0.961 . S
H5157 C5149 0.960 . S
H5158 C5150 0.930 . S
H5159 C5151 0.929 . S
H5160 C5168 0.929 . S
H5161 C5170 0.930 . S
H5162 C5172 0.930 . S
H5163 C5175 0.929 . S
H5164 C5178 0.930 . S
H5165 C5180 0.960 . S
H5166 C5180 0.960 . S
H5167 C5180 0.960 . S
C5168 H5160 0.929 . S
C5168 C5169 1.377 . S
C5168 C5170 1.384 . S
C5169 C5168 1.377 . S
C5169 C5175 1.390 . S
C5170 H5161 0.930 . S
C5170 C5168 1.384 . S
C5170 C5171 1.372 . S
C5171 C5170 1.372 . S
C5171 C5172 1.400 . S
C5171 C5176 1.490 . S
C5172 H5162 0.930 . S
C5172 C5171 1.400 . S
C5172 C5175 1.386 . S
H5173 C5189 0.930 . S
H5174 C5190 0.931 . S
C5175 H5163 0.929 . S
C5175 C5169 1.390 . S
C5175 C5172 1.386 . S
C5176 C5171 1.490 . S
C5176 C5178 1.395 . S
C5176 C5179 1.403 . S
H5177 C5183 0.930 . S
C5178 H5164 0.930 . S
C5178 C5176 1.395 . S
C5178 C5181 1.403 . S
C5179 C5176 1.403 . S
C5179 C5180 1.524 . S
C5179 C5183 1.400 . S
C5180 H5165 0.960 . S
C5180 H5166 0.960 . S
C5180 H5167 0.960 . S
C5180 C5179 1.524 . S
C5181 C5178 1.403 . S
C5181 C5182 1.392 . S
C5181 C5185 1.495 . S
C5182 C5181 1.392 . S
C5182 C5183 1.385 . S
C5182 C5184 1.478 . S
C5183 H5177 0.930 . S
C5183 C5179 1.400 . S
C5183 C5182 1.385 . S
C5184 C5182 1.478 . S
C5184 C5186 1.381 . S
C5184 C5190 1.383 . S
C5185 C5181 1.495 . S
C5185 H5191 0.959 . S
C5185 H5192 0.961 . S
C5185 H5193 0.960 . S
C5186 C5184 1.381 . S
C5186 C5187 1.394 . S
C5186 H5194 0.930 . S
C5187 C5186 1.394 . S
C5187 C5188 1.383 . S
C5187 H5195 0.929 . S
C5188 C5187 1.383 . S
C5188 C5189 1.377 . S
C5189 H5173 0.930 . S
C5189 C5188 1.377 . S
C5189 C5190 1.379 . S
C5190 H5174 0.931 . S
C5190 C5184 1.383 . S
C5190 C5189 1.379 . S
H5191 C5185 0.959 . S
H5192 C5185 0.961 . S
H5193 C5185 0.960 . S
H5194 C5186 0.930 . S
H5195 C5187 0.929 . S
H5196 C5204 0.929 . S
H5197 C5206 0.930 . S
H5198 C5208 0.930 . S
H5199 C5211 0.929 . S
H5200 C5214 0.930 . S
H5201 C5216 0.960 . S
H5202 C5216 0.960 . S
H5203 C5216 0.960 . S
C5204 H5196 0.929 . S
C5204 C5205 1.377 . S
C5204 C5206 1.384 . S
C5205 C5204 1.377 . S
C5205 C5211 1.390 . S
C5206 H5197 0.930 . S
C5206 C5204 1.384 . S
C5206 C5207 1.372 . S
C5207 C5206 1.372 . S
C5207 C5208 1.400 . S
C5207 C5212 1.490 . S
C5208 H5198 0.930 . S
C5208 C5207 1.400 . S
C5208 C5211 1.386 . S
H5209 C5225 0.930 . S
H5210 C5226 0.931 . S
C5211 H5199 0.929 . S
C5211 C5205 1.390 . S
C5211 C5208 1.386 . S
C5212 C5207 1.490 . S
C5212 C5214 1.395 . S
C5212 C5215 1.403 . S
H5213 C5219 0.930 . S
C5214 H5200 0.930 . S
C5214 C5212 1.395 . S
C5214 C5217 1.403 . S
C5215 C5212 1.403 . S
C5215 C5216 1.524 . S
C5215 C5219 1.400 . S
C5216 H5201 0.960 . S
C5216 H5202 0.960 . S
C5216 H5203 0.960 . S
C5216 C5215 1.524 . S
C5217 C5214 1.403 . S
C5217 C5218 1.392 . S
C5217 C5221 1.495 . S
C5218 C5217 1.392 . S
C5218 C5219 1.385 . S
C5218 C5220 1.478 . S
C5219 H5213 0.930 . S
C5219 C5215 1.400 . S
C5219 C5218 1.385 . S
C5220 C5218 1.478 . S
C5220 C5222 1.381 . S
C5220 C5226 1.383 . S
C5221 C5217 1.495 . S
C5221 H5227 0.959 . S
C5221 H5228 0.961 . S
C5221 H5229 0.960 . S
C5222 C5220 1.381 . S
C5222 C5223 1.394 . S
C5222 H5230 0.930 . S
C5223 C5222 1.394 . S
C5223 C5224 1.383 . S
C5223 H5231 0.929 . S
C5224 C5223 1.383 . S
C5224 C5225 1.377 . S
C5225 H5209 0.930 . S
C5225 C5224 1.377 . S
C5225 C5226 1.379 . S
C5226 H5210 0.931 . S
C5226 C5220 1.383 . S
C5226 C5225 1.379 . S
H5227 C5221 0.959 . S
H5228 C5221 0.961 . S
H5229 C5221 0.960 . S
H5230 C5222 0.930 . S
H5231 C5223 0.929 . S
H5232 C5240 0.929 . S
H5233 C5242 0.930 . S
H5234 C5244 0.930 . S
H5235 C5247 0.929 . S
H5236 C5250 0.930 . S
H5237 C5252 0.960 . S
H5238 C5252 0.960 . S
H5239 C5252 0.960 . S
C5240 H5232 0.929 . S
C5240 C5241 1.377 . S
C5240 C5242 1.384 . S
C5241 C5240 1.377 . S
C5241 C5247 1.390 . S
C5242 H5233 0.930 . S
C5242 C5240 1.384 . S
C5242 C5243 1.372 . S
C5243 C5242 1.372 . S
C5243 C5244 1.400 . S
C5243 C5248 1.490 . S
C5244 H5234 0.930 . S
C5244 C5243 1.400 . S
C5244 C5247 1.386 . S
H5245 C5261 0.930 . S
H5246 C5262 0.931 . S
C5247 H5235 0.929 . S
C5247 C5241 1.390 . S
C5247 C5244 1.386 . S
C5248 C5243 1.490 . S
C5248 C5250 1.395 . S
C5248 C5251 1.403 . S
H5249 C5255 0.930 . S
C5250 H5236 0.930 . S
C5250 C5248 1.395 . S
C5250 C5253 1.403 . S
C5251 C5248 1.403 . S
C5251 C5252 1.524 . S
C5251 C5255 1.400 . S
C5252 H5237 0.960 . S
C5252 H5238 0.960 . S
C5252 H5239 0.960 . S
C5252 C5251 1.524 . S
C5253 C5250 1.403 . S
C5253 C5254 1.392 . S
C5253 C5257 1.495 . S
C5254 C5253 1.392 . S
C5254 C5255 1.385 . S
C5254 C5256 1.478 . S
C5255 H5249 0.930 . S
C5255 C5251 1.400 . S
C5255 C5254 1.385 . S
C5256 C5254 1.478 . S
C5256 C5258 1.381 . S
C5256 C5262 1.383 . S
C5257 C5253 1.495 . S
C5257 H5263 0.959 . S
C5257 H5264 0.961 . S
C5257 H5265 0.960 . S
C5258 C5256 1.381 . S
C5258 C5259 1.394 . S
C5258 H5266 0.930 . S
C5259 C5258 1.394 . S
C5259 C5260 1.383 . S
C5259 H5267 0.929 . S
C5260 C5259 1.383 . S
C5260 C5261 1.377 . S
C5261 H5245 0.930 . S
C5261 C5260 1.377 . S
C5261 C5262 1.379 . S
C5262 H5246 0.931 . S
C5262 C5256 1.383 . S
C5262 C5261 1.379 . S
H5263 C5257 0.959 . S
H5264 C5257 0.961 . S
H5265 C5257 0.960 . S
H5266 C5258 0.930 . S
H5267 C5259 0.929 . S
H5268 C5276 0.929 . S
H5269 C5278 0.930 . S
H5270 C5280 0.930 . S
H5271 C5283 0.929 . S
H5272 C5286 0.930 . S
H5273 C5288 0.960 . S
H5274 C5288 0.960 . S
H5275 C5288 0.960 . S
C5276 H5268 0.929 . S
C5276 C5277 1.377 . S
C5276 C5278 1.384 . S
C5277 C5276 1.377 . S
C5277 C5283 1.390 . S
C5278 H5269 0.930 . S
C5278 C5276 1.384 . S
C5278 C5279 1.372 . S
C5279 C5278 1.372 . S
C5279 C5280 1.400 . S
C5279 C5284 1.490 . S
C5280 H5270 0.930 . S
C5280 C5279 1.400 . S
C5280 C5283 1.386 . S
H5281 C5297 0.930 . S
H5282 C5298 0.931 . S
C5283 H5271 0.929 . S
C5283 C5277 1.390 . S
C5283 C5280 1.386 . S
C5284 C5279 1.490 . S
C5284 C5286 1.395 . S
C5284 C5287 1.403 . S
H5285 C5291 0.930 . S
C5286 H5272 0.930 . S
C5286 C5284 1.395 . S
C5286 C5289 1.403 . S
C5287 C5284 1.403 . S
C5287 C5288 1.524 . S
C5287 C5291 1.400 . S
C5288 H5273 0.960 . S
C5288 H5274 0.960 . S
C5288 H5275 0.960 . S
C5288 C5287 1.524 . S
C5289 C5286 1.403 . S
C5289 C5290 1.392 . S
C5289 C5293 1.495 . S
C5290 C5289 1.392 . S
C5290 C5291 1.385 . S
C5290 C5292 1.478 . S
C5291 H5285 0.930 . S
C5291 C5287 1.400 . S
C5291 C5290 1.385 . S
C5292 C5290 1.478 . S
C5292 C5294 1.381 . S
C5292 C5298 1.383 . S
C5293 C5289 1.495 . S
C5293 H5299 0.959 . S
C5293 H5300 0.961 . S
C5293 H5301 0.960 . S
C5294 C5292 1.381 . S
C5294 C5295 1.394 . S
C5294 H5302 0.930 . S
C5295 C5294 1.394 . S
C5295 C5296 1.383 . S
C5295 H5303 0.929 . S
C5296 C5295 1.383 . S
C5296 C5297 1.377 . S
C5297 H5281 0.930 . S
C5297 C5296 1.377 . S
C5297 C5298 1.379 . S
C5298 H5282 0.931 . S
C5298 C5292 1.383 . S
C5298 C5297 1.379 . S
H5299 C5293 0.959 . S
H5300 C5293 0.961 . S
H5301 C5293 0.960 . S
H5302 C5294 0.930 . S
H5303 C5295 0.929 . S
H5304 C5312 0.929 . S
H5305 C5314 0.930 . S
H5306 C5316 0.930 . S
H5307 C5319 0.929 . S
H5308 C5322 0.930 . S
H5309 C5324 0.960 . S
H5310 C5324 0.960 . S
H5311 C5324 0.960 . S
C5312 H5304 0.929 . S
C5312 C5313 1.377 . S
C5312 C5314 1.384 . S
C5313 C5312 1.377 . S
C5313 C5319 1.390 . S
C5314 H5305 0.930 . S
C5314 C5312 1.384 . S
C5314 C5315 1.372 . S
C5315 C5314 1.372 . S
C5315 C5316 1.400 . S
C5315 C5320 1.490 . S
C5316 H5306 0.930 . S
C5316 C5315 1.400 . S
C5316 C5319 1.386 . S
H5317 C5333 0.930 . S
H5318 C5334 0.931 . S
C5319 H5307 0.929 . S
C5319 C5313 1.390 . S
C5319 C5316 1.386 . S
C5320 C5315 1.490 . S
C5320 C5322 1.395 . S
C5320 C5323 1.403 . S
H5321 C5327 0.930 . S
C5322 H5308 0.930 . S
C5322 C5320 1.395 . S
C5322 C5325 1.403 . S
C5323 C5320 1.403 . S
C5323 C5324 1.524 . S
C5323 C5327 1.400 . S
C5324 H5309 0.960 . S
C5324 H5310 0.960 . S
C5324 H5311 0.960 . S
C5324 C5323 1.524 . S
C5325 C5322 1.403 . S
C5325 C5326 1.392 . S
C5325 C5329 1.495 . S
C5326 C5325 1.392 . S
C5326 C5327 1.385 . S
C5326 C5328 1.478 . S
C5327 H5321 0.930 . S
C5327 C5323 1.400 . S
C5327 C5326 1.385 . S
C5328 C5326 1.478 . S
C5328 C5330 1.381 . S
C5328 C5334 1.383 . S
C5329 C5325 1.495 . S
C5329 H5335 0.959 . S
C5329 H5336 0.961 . S
C5329 H5337 0.960 . S
C5330 C5328 1.381 . S
C5330 C5331 1.394 . S
C5330 H5338 0.930 . S
C5331 C5330 1.394 . S
C5331 C5332 1.383 . S
C5331 H5339 0.929 . S
C5332 C5331 1.383 . S
C5332 C5333 1.377 . S
C5333 H5317 0.930 . S
C5333 C5332 1.377 . S
C5333 C5334 1.379 . S
C5334 H5318 0.931 . S
C5334 C5328 1.383 . S
C5334 C5333 1.379 . S
H5335 C5329 0.959 . S
H5336 C5329 0.961 . S
H5337 C5329 0.960 . S
H5338 C5330 0.930 . S
H5339 C5331 0.929 . S
H5340 C5348 0.929 . S
H5341 C5350 0.930 . S
H5342 C5352 0.930 . S
H5343 C5355 0.929 . S
H5344 C5358 0.930 . S
H5345 C5360 0.960 . S
H5346 C5360 0.960 . S
H5347 C5360 0.960 . S
C5348 H5340 0.929 . S
C5348 C5349 1.377 . S
C5348 C5350 1.384 . S
C5349 C5348 1.377 . S
C5349 C5355 1.390 . S
C5350 H5341 0.930 . S
C5350 C5348 1.384 . S
C5350 C5351 1.372 . S
C5351 C5350 1.372 . S
C5351 C5352 1.400 . S
C5351 C5356 1.490 . S
C5352 H5342 0.930 . S
C5352 C5351 1.400 . S
C5352 C5355 1.386 . S
H5353 C5369 0.930 . S
H5354 C5370 0.931 . S
C5355 H5343 0.929 . S
C5355 C5349 1.390 . S
C5355 C5352 1.386 . S
C5356 C5351 1.490 . S
C5356 C5358 1.395 . S
C5356 C5359 1.403 . S
H5357 C5363 0.930 . S
C5358 H5344 0.930 . S
C5358 C5356 1.395 . S
C5358 C5361 1.403 . S
C5359 C5356 1.403 . S
C5359 C5360 1.524 . S
C5359 C5363 1.400 . S
C5360 H5345 0.960 . S
C5360 H5346 0.960 . S
C5360 H5347 0.960 . S
C5360 C5359 1.524 . S
C5361 C5358 1.403 . S
C5361 C5362 1.392 . S
C5361 C5365 1.495 . S
C5362 C5361 1.392 . S
C5362 C5363 1.385 . S
C5362 C5364 1.478 . S
C5363 H5357 0.930 . S
C5363 C5359 1.400 . S
C5363 C5362 1.385 . S
C5364 C5362 1.478 . S
C5364 C5366 1.381 . S
C5364 C5370 1.383 . S
C5365 C5361 1.495 . S
C5365 H5371 0.959 . S
C5365 H5372 0.961 . S
C5365 H5373 0.960 . S
C5366 C5364 1.381 . S
C5366 C5367 1.394 . S
C5366 H5374 0.930 . S
C5367 C5366 1.394 . S
C5367 C5368 1.383 . S
C5367 H5375 0.929 . S
C5368 C5367 1.383 . S
C5368 C5369 1.377 . S
C5369 H5353 0.930 . S
C5369 C5368 1.377 . S
C5369 C5370 1.379 . S
C5370 H5354 0.931 . S
C5370 C5364 1.383 . S
C5370 C5369 1.379 . S
H5371 C5365 0.959 . S
H5372 C5365 0.961 . S
H5373 C5365 0.960 . S
H5374 C5366 0.930 . S
H5375 C5367 0.929 . S
H5376 C5384 0.929 . S
H5377 C5386 0.930 . S
H5378 C5388 0.930 . S
H5379 C5391 0.929 . S
H5380 C5394 0.930 . S
H5381 C5396 0.960 . S
H5382 C5396 0.960 . S
H5383 C5396 0.960 . S
C5384 H5376 0.929 . S
C5384 C5385 1.377 . S
C5384 C5386 1.384 . S
C5385 C5384 1.377 . S
C5385 C5391 1.390 . S
C5386 H5377 0.930 . S
C5386 C5384 1.384 . S
C5386 C5387 1.372 . S
C5387 C5386 1.372 . S
C5387 C5388 1.400 . S
C5387 C5392 1.490 . S
C5388 H5378 0.930 . S
C5388 C5387 1.400 . S
C5388 C5391 1.386 . S
H5389 C5405 0.930 . S
H5390 C5406 0.931 . S
C5391 H5379 0.929 . S
C5391 C5385 1.390 . S
C5391 C5388 1.386 . S
C5392 C5387 1.490 . S
C5392 C5394 1.395 . S
C5392 C5395 1.403 . S
H5393 C5399 0.930 . S
C5394 H5380 0.930 . S
C5394 C5392 1.395 . S
C5394 C5397 1.403 . S
C5395 C5392 1.403 . S
C5395 C5396 1.524 . S
C5395 C5399 1.400 . S
C5396 H5381 0.960 . S
C5396 H5382 0.960 . S
C5396 H5383 0.960 . S
C5396 C5395 1.524 . S
C5397 C5394 1.403 . S
C5397 C5398 1.392 . S
C5397 C5401 1.495 . S
C5398 C5397 1.392 . S
C5398 C5399 1.385 . S
C5398 C5400 1.478 . S
C5399 H5393 0.930 . S
C5399 C5395 1.400 . S
C5399 C5398 1.385 . S
C5400 C5398 1.478 . S
C5400 C5402 1.381 . S
C5400 C5406 1.383 . S
C5401 C5397 1.495 . S
C5401 H5407 0.959 . S
C5401 H5408 0.961 . S
C5401 H5409 0.960 . S
C5402 C5400 1.381 . S
C5402 C5403 1.394 . S
C5402 H5410 0.930 . S
C5403 C5402 1.394 . S
C5403 C5404 1.383 . S
C5403 H5411 0.929 . S
C5404 C5403 1.383 . S
C5404 C5405 1.377 . S
C5405 H5389 0.930 . S
C5405 C5404 1.377 . S
C5405 C5406 1.379 . S
C5406 H5390 0.931 . S
C5406 C5400 1.383 . S
C5406 C5405 1.379 . S
H5407 C5401 0.959 . S
H5408 C5401 0.961 . S
H5409 C5401 0.960 . S
H5410 C5402 0.930 . S
H5411 C5403 0.929 . S
H5412 C5420 0.929 . S
H5413 C5422 0.930 . S
H5414 C5424 0.930 . S
H5415 C5427 0.929 . S
H5416 C5430 0.930 . S
H5417 C5432 0.960 . S
H5418 C5432 0.960 . S
H5419 C5432 0.960 . S
C5420 H5412 0.929 . S
C5420 C5421 1.377 . S
C5420 C5422 1.384 . S
C5421 C5420 1.377 . S
C5421 C5427 1.390 . S
C5422 H5413 0.930 . S
C5422 C5420 1.384 . S
C5422 C5423 1.372 . S
C5423 C5422 1.372 . S
C5423 C5424 1.400 . S
C5423 C5428 1.490 . S
C5424 H5414 0.930 . S
C5424 C5423 1.400 . S
C5424 C5427 1.386 . S
H5425 C5441 0.930 . S
H5426 C5442 0.931 . S
C5427 H5415 0.929 . S
C5427 C5421 1.390 . S
C5427 C5424 1.386 . S
C5428 C5423 1.490 . S
C5428 C5430 1.395 . S
C5428 C5431 1.403 . S
H5429 C5435 0.930 . S
C5430 H5416 0.930 . S
C5430 C5428 1.395 . S
C5430 C5433 1.403 . S
C5431 C5428 1.403 . S
C5431 C5432 1.524 . S
C5431 C5435 1.400 . S
C5432 H5417 0.960 . S
C5432 H5418 0.960 . S
C5432 H5419 0.960 . S
C5432 C5431 1.524 . S
C5433 C5430 1.403 . S
C5433 C5434 1.392 . S
C5433 C5437 1.495 . S
C5434 C5433 1.392 . S
C5434 C5435 1.385 . S
C5434 C5436 1.478 . S
C5435 H5429 0.930 . S
C5435 C5431 1.400 . S
C5435 C5434 1.385 . S
C5436 C5434 1.478 . S
C5436 C5438 1.381 . S
C5436 C5442 1.383 . S
C5437 C5433 1.495 . S
C5437 H5443 0.959 . S
C5437 H5444 0.961 . S
C5437 H5445 0.960 . S
C5438 C5436 1.381 . S
C5438 C5439 1.394 . S
C5438 H5446 0.930 . S
C5439 C5438 1.394 . S
C5439 C5440 1.383 . S
C5439 H5447 0.929 . S
C5440 C5439 1.383 . S
C5440 C5441 1.377 . S
C5441 H5425 0.930 . S
C5441 C5440 1.377 . S
C5441 C5442 1.379 . S
C5442 H5426 0.931 . S
C5442 C5436 1.383 . S
C5442 C5441 1.379 . S
H5443 C5437 0.959 . S
H5444 C5437 0.961 . S
H5445 C5437 0.960 . S
H5446 C5438 0.930 . S
H5447 C5439 0.929 . S
H5448 C5456 0.929 . S
H5449 C5458 0.930 . S
H5450 C5460 0.930 . S
H5451 C5463 0.929 . S
H5452 C5466 0.930 . S
H5453 C5468 0.960 . S
H5454 C5468 0.960 . S
H5455 C5468 0.960 . S
C5456 H5448 0.929 . S
C5456 C5457 1.377 . S
C5456 C5458 1.384 . S
C5457 C5456 1.377 . S
C5457 C5463 1.390 . S
C5458 H5449 0.930 . S
C5458 C5456 1.384 . S
C5458 C5459 1.372 . S
C5459 C5458 1.372 . S
C5459 C5460 1.400 . S
C5459 C5464 1.490 . S
C5460 H5450 0.930 . S
C5460 C5459 1.400 . S
C5460 C5463 1.386 . S
H5461 C5477 0.930 . S
H5462 C5478 0.931 . S
C5463 H5451 0.929 . S
C5463 C5457 1.390 . S
C5463 C5460 1.386 . S
C5464 C5459 1.490 . S
C5464 C5466 1.395 . S
C5464 C5467 1.403 . S
H5465 C5471 0.930 . S
C5466 H5452 0.930 . S
C5466 C5464 1.395 . S
C5466 C5469 1.403 . S
C5467 C5464 1.403 . S
C5467 C5468 1.524 . S
C5467 C5471 1.400 . S
C5468 H5453 0.960 . S
C5468 H5454 0.960 . S
C5468 H5455 0.960 . S
C5468 C5467 1.524 . S
C5469 C5466 1.403 . S
C5469 C5470 1.392 . S
C5469 C5473 1.495 . S
C5470 C5469 1.392 . S
C5470 C5471 1.385 . S
C5470 C5472 1.478 . S
C5471 H5465 0.930 . S
C5471 C5467 1.400 . S
C5471 C5470 1.385 . S
C5472 C5470 1.478 . S
C5472 C5474 1.381 . S
C5472 C5478 1.383 . S
C5473 C5469 1.495 . S
C5473 H5479 0.959 . S
C5473 H5480 0.961 . S
C5473 H5481 0.960 . S
C5474 C5472 1.381 . S
C5474 C5475 1.394 . S
C5474 H5482 0.930 . S
C5475 C5474 1.394 . S
C5475 C5476 1.383 . S
C5475 H5483 0.929 . S
C5476 C5475 1.383 . S
C5476 C5477 1.377 . S
C5477 H5461 0.930 . S
C5477 C5476 1.377 . S
C5477 C5478 1.379 . S
C5478 H5462 0.931 . S
C5478 C5472 1.383 . S
C5478 C5477 1.379 . S
H5479 C5473 0.959 . S
H5480 C5473 0.961 . S
H5481 C5473 0.960 . S
H5482 C5474 0.930 . S
H5483 C5475 0.929 . S
H5484 C5492 0.929 . S
H5485 C5494 0.930 . S
H5486 C5496 0.930 . S
H5487 C5499 0.929 . S
H5488 C5502 0.930 . S
H5489 C5504 0.960 . S
H5490 C5504 0.960 . S
H5491 C5504 0.960 . S
C5492 H5484 0.929 . S
C5492 C5493 1.377 . S
C5492 C5494 1.384 . S
C5493 C5492 1.377 . S
C5493 C5499 1.390 . S
C5494 H5485 0.930 . S
C5494 C5492 1.384 . S
C5494 C5495 1.372 . S
C5495 C5494 1.372 . S
C5495 C5496 1.400 . S
C5495 C5500 1.490 . S
C5496 H5486 0.930 . S
C5496 C5495 1.400 . S
C5496 C5499 1.386 . S
H5497 C5513 0.930 . S
H5498 C5514 0.931 . S
C5499 H5487 0.929 . S
C5499 C5493 1.390 . S
C5499 C5496 1.386 . S
C5500 C5495 1.490 . S
C5500 C5502 1.395 . S
C5500 C5503 1.403 . S
H5501 C5507 0.930 . S
C5502 H5488 0.930 . S
C5502 C5500 1.395 . S
C5502 C5505 1.403 . S
C5503 C5500 1.403 . S
C5503 C5504 1.524 . S
C5503 C5507 1.400 . S
C5504 H5489 0.960 . S
C5504 H5490 0.960 . S
C5504 H5491 0.960 . S
C5504 C5503 1.524 . S
C5505 C5502 1.403 . S
C5505 C5506 1.392 . S
C5505 C5509 1.495 . S
C5506 C5505 1.392 . S
C5506 C5507 1.385 . S
C5506 C5508 1.478 . S
C5507 H5501 0.930 . S
C5507 C5503 1.400 . S
C5507 C5506 1.385 . S
C5508 C5506 1.478 . S
C5508 C5510 1.381 . S
C5508 C5514 1.383 . S
C5509 C5505 1.495 . S
C5509 H5515 0.959 . S
C5509 H5516 0.961 . S
C5509 H5517 0.960 . S
C5510 C5508 1.381 . S
C5510 C5511 1.394 . S
C5510 H5518 0.930 . S
C5511 C5510 1.394 . S
C5511 C5512 1.383 . S
C5511 H5519 0.929 . S
C5512 C5511 1.383 . S
C5512 C5513 1.377 . S
C5513 H5497 0.930 . S
C5513 C5512 1.377 . S
C5513 C5514 1.379 . S
C5514 H5498 0.931 . S
C5514 C5508 1.383 . S
C5514 C5513 1.379 . S
H5515 C5509 0.959 . S
H5516 C5509 0.961 . S
H5517 C5509 0.960 . S
H5518 C5510 0.930 . S
H5519 C5511 0.929 . S
H5520 C5528 0.929 . S
H5521 C5530 0.930 . S
H5522 C5532 0.930 . S
H5523 C5535 0.929 . S
H5524 C5538 0.930 . S
H5525 C5540 0.960 . S
H5526 C5540 0.960 . S
H5527 C5540 0.960 . S
C5528 H5520 0.929 . S
C5528 C5529 1.377 . S
C5528 C5530 1.384 . S
C5529 C5528 1.377 . S
C5529 C5535 1.390 . S
C5530 H5521 0.930 . S
C5530 C5528 1.384 . S
C5530 C5531 1.372 . S
C5531 C5530 1.372 . S
C5531 C5532 1.400 . S
C5531 C5536 1.490 . S
C5532 H5522 0.930 . S
C5532 C5531 1.400 . S
C5532 C5535 1.386 . S
H5533 C5549 0.930 . S
H5534 C5550 0.931 . S
C5535 H5523 0.929 . S
C5535 C5529 1.390 . S
C5535 C5532 1.386 . S
C5536 C5531 1.490 . S
C5536 C5538 1.395 . S
C5536 C5539 1.403 . S
H5537 C5543 0.930 . S
C5538 H5524 0.930 . S
C5538 C5536 1.395 . S
C5538 C5541 1.403 . S
C5539 C5536 1.403 . S
C5539 C5540 1.524 . S
C5539 C5543 1.400 . S
C5540 H5525 0.960 . S
C5540 H5526 0.960 . S
C5540 H5527 0.960 . S
C5540 C5539 1.524 . S
C5541 C5538 1.403 . S
C5541 C5542 1.392 . S
C5541 C5545 1.495 . S
C5542 C5541 1.392 . S
C5542 C5543 1.385 . S
C5542 C5544 1.478 . S
C5543 H5537 0.930 . S
C5543 C5539 1.400 . S
C5543 C5542 1.385 . S
C5544 C5542 1.478 . S
C5544 C5546 1.381 . S
C5544 C5550 1.383 . S
C5545 C5541 1.495 . S
C5545 H5551 0.959 . S
C5545 H5552 0.961 . S
C5545 H5553 0.960 . S
C5546 C5544 1.381 . S
C5546 C5547 1.394 . S
C5546 H5554 0.930 . S
C5547 C5546 1.394 . S
C5547 C5548 1.383 . S
C5547 H5555 0.929 . S
C5548 C5547 1.383 . S
C5548 C5549 1.377 . S
C5549 H5533 0.930 . S
C5549 C5548 1.377 . S
C5549 C5550 1.379 . S
C5550 H5534 0.931 . S
C5550 C5544 1.383 . S
C5550 C5549 1.379 . S
H5551 C5545 0.959 . S
H5552 C5545 0.961 . S
H5553 C5545 0.960 . S
H5554 C5546 0.930 . S
H5555 C5547 0.929 . S
H5556 C5564 0.929 . S
H5557 C5566 0.930 . S
H5558 C5568 0.930 . S
H5559 C5571 0.929 . S
H5560 C5574 0.930 . S
H5561 C5576 0.960 . S
H5562 C5576 0.960 . S
H5563 C5576 0.960 . S
C5564 H5556 0.929 . S
C5564 C5565 1.377 . S
C5564 C5566 1.384 . S
C5565 C5564 1.377 . S
C5565 C5571 1.390 . S
C5566 H5557 0.930 . S
C5566 C5564 1.384 . S
C5566 C5567 1.372 . S
C5567 C5566 1.372 . S
C5567 C5568 1.400 . S
C5567 C5572 1.490 . S
C5568 H5558 0.930 . S
C5568 C5567 1.400 . S
C5568 C5571 1.386 . S
H5569 C5585 0.930 . S
H5570 C5586 0.931 . S
C5571 H5559 0.929 . S
C5571 C5565 1.390 . S
C5571 C5568 1.386 . S
C5572 C5567 1.490 . S
C5572 C5574 1.395 . S
C5572 C5575 1.403 . S
H5573 C5579 0.930 . S
C5574 H5560 0.930 . S
C5574 C5572 1.395 . S
C5574 C5577 1.403 . S
C5575 C5572 1.403 . S
C5575 C5576 1.524 . S
C5575 C5579 1.400 . S
C5576 H5561 0.960 . S
C5576 H5562 0.960 . S
C5576 H5563 0.960 . S
C5576 C5575 1.524 . S
C5577 C5574 1.403 . S
C5577 C5578 1.392 . S
C5577 C5581 1.495 . S
C5578 C5577 1.392 . S
C5578 C5579 1.385 . S
C5578 C5580 1.478 . S
C5579 H5573 0.930 . S
C5579 C5575 1.400 . S
C5579 C5578 1.385 . S
C5580 C5578 1.478 . S
C5580 C5582 1.381 . S
C5580 C5586 1.383 . S
C5581 C5577 1.495 . S
C5581 H5587 0.959 . S
C5581 H5588 0.961 . S
C5581 H5589 0.960 . S
C5582 C5580 1.381 . S
C5582 C5583 1.394 . S
C5582 H5590 0.930 . S
C5583 C5582 1.394 . S
C5583 C5584 1.383 . S
C5583 H5591 0.929 . S
C5584 C5583 1.383 . S
C5584 C5585 1.377 . S
C5585 H5569 0.930 . S
C5585 C5584 1.377 . S
C5585 C5586 1.379 . S
C5586 H5570 0.931 . S
C5586 C5580 1.383 . S
C5586 C5585 1.379 . S
H5587 C5581 0.959 . S
H5588 C5581 0.961 . S
H5589 C5581 0.960 . S
H5590 C5582 0.930 . S
H5591 C5583 0.929 . S
H5592 C5600 0.929 . S
H5593 C5602 0.930 . S
H5594 C5604 0.930 . S
H5595 C5607 0.929 . S
H5596 C5610 0.930 . S
H5597 C5612 0.960 . S
H5598 C5612 0.960 . S
H5599 C5612 0.960 . S
C5600 H5592 0.929 . S
C5600 C5601 1.377 . S
C5600 C5602 1.384 . S
C5601 C5600 1.377 . S
C5601 C5607 1.390 . S
C5602 H5593 0.930 . S
C5602 C5600 1.384 . S
C5602 C5603 1.372 . S
C5603 C5602 1.372 . S
C5603 C5604 1.400 . S
C5603 C5608 1.490 . S
C5604 H5594 0.930 . S
C5604 C5603 1.400 . S
C5604 C5607 1.386 . S
H5605 C5621 0.930 . S
H5606 C5622 0.931 . S
C5607 H5595 0.929 . S
C5607 C5601 1.390 . S
C5607 C5604 1.386 . S
C5608 C5603 1.490 . S
C5608 C5610 1.395 . S
C5608 C5611 1.403 . S
H5609 C5615 0.930 . S
C5610 H5596 0.930 . S
C5610 C5608 1.395 . S
C5610 C5613 1.403 . S
C5611 C5608 1.403 . S
C5611 C5612 1.524 . S
C5611 C5615 1.400 . S
C5612 H5597 0.960 . S
C5612 H5598 0.960 . S
C5612 H5599 0.960 . S
C5612 C5611 1.524 . S
C5613 C5610 1.403 . S
C5613 C5614 1.392 . S
C5613 C5617 1.495 . S
C5614 C5613 1.392 . S
C5614 C5615 1.385 . S
C5614 C5616 1.478 . S
C5615 H5609 0.930 . S
C5615 C5611 1.400 . S
C5615 C5614 1.385 . S
C5616 C5614 1.478 . S
C5616 C5618 1.381 . S
C5616 C5622 1.383 . S
C5617 C5613 1.495 . S
C5617 H5623 0.959 . S
C5617 H5624 0.961 . S
C5617 H5625 0.960 . S
C5618 C5616 1.381 . S
C5618 C5619 1.394 . S
C5618 H5626 0.930 . S
C5619 C5618 1.394 . S
C5619 C5620 1.383 . S
C5619 H5627 0.929 . S
C5620 C5619 1.383 . S
C5620 C5621 1.377 . S
C5621 H5605 0.930 . S
C5621 C5620 1.377 . S
C5621 C5622 1.379 . S
C5622 H5606 0.931 . S
C5622 C5616 1.383 . S
C5622 C5621 1.379 . S
H5623 C5617 0.959 . S
H5624 C5617 0.961 . S
H5625 C5617 0.960 . S
H5626 C5618 0.930 . S
H5627 C5619 0.929 . S
H5628 C5636 0.929 . S
H5629 C5638 0.930 . S
H5630 C5640 0.930 . S
H5631 C5643 0.929 . S
H5632 C5646 0.930 . S
H5633 C5648 0.960 . S
H5634 C5648 0.960 . S
H5635 C5648 0.960 . S
C5636 H5628 0.929 . S
C5636 C5637 1.377 . S
C5636 C5638 1.384 . S
C5637 C5636 1.377 . S
C5637 C5643 1.390 . S
C5638 H5629 0.930 . S
C5638 C5636 1.384 . S
C5638 C5639 1.372 . S
C5639 C5638 1.372 . S
C5639 C5640 1.400 . S
C5639 C5644 1.490 . S
C5640 H5630 0.930 . S
C5640 C5639 1.400 . S
C5640 C5643 1.386 . S
H5641 C5657 0.930 . S
H5642 C5658 0.931 . S
C5643 H5631 0.929 . S
C5643 C5637 1.390 . S
C5643 C5640 1.386 . S
C5644 C5639 1.490 . S
C5644 C5646 1.395 . S
C5644 C5647 1.403 . S
H5645 C5651 0.930 . S
C5646 H5632 0.930 . S
C5646 C5644 1.395 . S
C5646 C5649 1.403 . S
C5647 C5644 1.403 . S
C5647 C5648 1.524 . S
C5647 C5651 1.400 . S
C5648 H5633 0.960 . S
C5648 H5634 0.960 . S
C5648 H5635 0.960 . S
C5648 C5647 1.524 . S
C5649 C5646 1.403 . S
C5649 C5650 1.392 . S
C5649 C5653 1.495 . S
C5650 C5649 1.392 . S
C5650 C5651 1.385 . S
C5650 C5652 1.478 . S
C5651 H5645 0.930 . S
C5651 C5647 1.400 . S
C5651 C5650 1.385 . S
C5652 C5650 1.478 . S
C5652 C5654 1.381 . S
C5652 C5658 1.383 . S
C5653 C5649 1.495 . S
C5653 H5659 0.959 . S
C5653 H5660 0.961 . S
C5653 H5661 0.960 . S
C5654 C5652 1.381 . S
C5654 C5655 1.394 . S
C5654 H5662 0.930 . S
C5655 C5654 1.394 . S
C5655 C5656 1.383 . S
C5655 H5663 0.929 . S
C5656 C5655 1.383 . S
C5656 C5657 1.377 . S
C5657 H5641 0.930 . S
C5657 C5656 1.377 . S
C5657 C5658 1.379 . S
C5658 H5642 0.931 . S
C5658 C5652 1.383 . S
C5658 C5657 1.379 . S
H5659 C5653 0.959 . S
H5660 C5653 0.961 . S
H5661 C5653 0.960 . S
H5662 C5654 0.930 . S
H5663 C5655 0.929 . S
H5664 C5672 0.929 . S
H5665 C5674 0.930 . S
H5666 C5676 0.930 . S
H5667 C5679 0.929 . S
H5668 C5682 0.930 . S
H5669 C5684 0.960 . S
H5670 C5684 0.960 . S
H5671 C5684 0.960 . S
C5672 H5664 0.929 . S
C5672 C5673 1.377 . S
C5672 C5674 1.384 . S
C5673 C5672 1.377 . S
C5673 C5679 1.390 . S
C5674 H5665 0.930 . S
C5674 C5672 1.384 . S
C5674 C5675 1.372 . S
C5675 C5674 1.372 . S
C5675 C5676 1.400 . S
C5675 C5680 1.490 . S
C5676 H5666 0.930 . S
C5676 C5675 1.400 . S
C5676 C5679 1.386 . S
H5677 C5693 0.930 . S
H5678 C5694 0.931 . S
C5679 H5667 0.929 . S
C5679 C5673 1.390 . S
C5679 C5676 1.386 . S
C5680 C5675 1.490 . S
C5680 C5682 1.395 . S
C5680 C5683 1.403 . S
H5681 C5687 0.930 . S
C5682 H5668 0.930 . S
C5682 C5680 1.395 . S
C5682 C5685 1.403 . S
C5683 C5680 1.403 . S
C5683 C5684 1.524 . S
C5683 C5687 1.400 . S
C5684 H5669 0.960 . S
C5684 H5670 0.960 . S
C5684 H5671 0.960 . S
C5684 C5683 1.524 . S
C5685 C5682 1.403 . S
C5685 C5686 1.392 . S
C5685 C5689 1.495 . S
C5686 C5685 1.392 . S
C5686 C5687 1.385 . S
C5686 C5688 1.478 . S
C5687 H5681 0.930 . S
C5687 C5683 1.400 . S
C5687 C5686 1.385 . S
C5688 C5686 1.478 . S
C5688 C5690 1.381 . S
C5688 C5694 1.383 . S
C5689 C5685 1.495 . S
C5689 H5695 0.959 . S
C5689 H5696 0.961 . S
C5689 H5697 0.960 . S
C5690 C5688 1.381 . S
C5690 C5691 1.394 . S
C5690 H5698 0.930 . S
C5691 C5690 1.394 . S
C5691 C5692 1.383 . S
C5691 H5699 0.929 . S
C5692 C5691 1.383 . S
C5692 C5693 1.377 . S
C5693 H5677 0.930 . S
C5693 C5692 1.377 . S
C5693 C5694 1.379 . S
C5694 H5678 0.931 . S
C5694 C5688 1.383 . S
C5694 C5693 1.379 . S
H5695 C5689 0.959 . S
H5696 C5689 0.961 . S
H5697 C5689 0.960 . S
H5698 C5690 0.930 . S
H5699 C5691 0.929 . S
H5700 C5708 0.929 . S
H5701 C5710 0.930 . S
H5702 C5712 0.930 . S
H5703 C5715 0.929 . S
H5704 C5718 0.930 . S
H5705 C5720 0.960 . S
H5706 C5720 0.960 . S
H5707 C5720 0.960 . S
C5708 H5700 0.929 . S
C5708 C5709 1.377 . S
C5708 C5710 1.384 . S
C5709 C5708 1.377 . S
C5709 C5715 1.390 . S
C5710 H5701 0.930 . S
C5710 C5708 1.384 . S
C5710 C5711 1.372 . S
C5711 C5710 1.372 . S
C5711 C5712 1.400 . S
C5711 C5716 1.490 . S
C5712 H5702 0.930 . S
C5712 C5711 1.400 . S
C5712 C5715 1.386 . S
H5713 C5729 0.930 . S
H5714 C5730 0.931 . S
C5715 H5703 0.929 . S
C5715 C5709 1.390 . S
C5715 C5712 1.386 . S
C5716 C5711 1.490 . S
C5716 C5718 1.395 . S
C5716 C5719 1.403 . S
H5717 C5723 0.930 . S
C5718 H5704 0.930 . S
C5718 C5716 1.395 . S
C5718 C5721 1.403 . S
C5719 C5716 1.403 . S
C5719 C5720 1.524 . S
C5719 C5723 1.400 . S
C5720 H5705 0.960 . S
C5720 H5706 0.960 . S
C5720 H5707 0.960 . S
C5720 C5719 1.524 . S
C5721 C5718 1.403 . S
C5721 C5722 1.392 . S
C5721 C5725 1.495 . S
C5722 C5721 1.392 . S
C5722 C5723 1.385 . S
C5722 C5724 1.478 . S
C5723 H5717 0.930 . S
C5723 C5719 1.400 . S
C5723 C5722 1.385 . S
C5724 C5722 1.478 . S
C5724 C5726 1.381 . S
C5724 C5730 1.383 . S
C5725 C5721 1.495 . S
C5725 H5731 0.959 . S
C5725 H5732 0.961 . S
C5725 H5733 0.960 . S
C5726 C5724 1.381 . S
C5726 C5727 1.394 . S
C5726 H5734 0.930 . S
C5727 C5726 1.394 . S
C5727 C5728 1.383 . S
C5727 H5735 0.929 . S
C5728 C5727 1.383 . S
C5728 C5729 1.377 . S
C5729 H5713 0.930 . S
C5729 C5728 1.377 . S
C5729 C5730 1.379 . S
C5730 H5714 0.931 . S
C5730 C5724 1.383 . S
C5730 C5729 1.379 . S
H5731 C5725 0.959 . S
H5732 C5725 0.961 . S
H5733 C5725 0.960 . S
H5734 C5726 0.930 . S
H5735 C5727 0.929 . S
H5736 C5744 0.929 . S
H5737 C5746 0.930 . S
H5738 C5748 0.930 . S
H5739 C5751 0.929 . S
H5740 C5754 0.930 . S
H5741 C5756 0.960 . S
H5742 C5756 0.960 . S
H5743 C5756 0.960 . S
C5744 H5736 0.929 . S
C5744 C5745 1.377 . S
C5744 C5746 1.384 . S
C5745 C5744 1.377 . S
C5745 C5751 1.390 . S
C5746 H5737 0.930 . S
C5746 C5744 1.384 . S
C5746 C5747 1.372 . S
C5747 C5746 1.372 . S
C5747 C5748 1.400 . S
C5747 C5752 1.490 . S
C5748 H5738 0.930 . S
C5748 C5747 1.400 . S
C5748 C5751 1.386 . S
H5749 C5765 0.930 . S
H5750 C5766 0.931 . S
C5751 H5739 0.929 . S
C5751 C5745 1.390 . S
C5751 C5748 1.386 . S
C5752 C5747 1.490 . S
C5752 C5754 1.395 . S
C5752 C5755 1.403 . S
H5753 C5759 0.930 . S
C5754 H5740 0.930 . S
C5754 C5752 1.395 . S
C5754 C5757 1.403 . S
C5755 C5752 1.403 . S
C5755 C5756 1.524 . S
C5755 C5759 1.400 . S
C5756 H5741 0.960 . S
C5756 H5742 0.960 . S
C5756 H5743 0.960 . S
C5756 C5755 1.524 . S
C5757 C5754 1.403 . S
C5757 C5758 1.392 . S
C5757 C5761 1.495 . S
C5758 C5757 1.392 . S
C5758 C5759 1.385 . S
C5758 C5760 1.478 . S
C5759 H5753 0.930 . S
C5759 C5755 1.400 . S
C5759 C5758 1.385 . S
C5760 C5758 1.478 . S
C5760 C5762 1.381 . S
C5760 C5766 1.383 . S
C5761 C5757 1.495 . S
C5761 H5767 0.959 . S
C5761 H5768 0.961 . S
C5761 H5769 0.960 . S
C5762 C5760 1.381 . S
C5762 C5763 1.394 . S
C5762 H5770 0.930 . S
C5763 C5762 1.394 . S
C5763 C5764 1.383 . S
C5763 H5771 0.929 . S
C5764 C5763 1.383 . S
C5764 C5765 1.377 . S
C5765 H5749 0.930 . S
C5765 C5764 1.377 . S
C5765 C5766 1.379 . S
C5766 H5750 0.931 . S
C5766 C5760 1.383 . S
C5766 C5765 1.379 . S
H5767 C5761 0.959 . S
H5768 C5761 0.961 . S
H5769 C5761 0.960 . S
H5770 C5762 0.930 . S
H5771 C5763 0.929 . S
H5772 C5780 0.929 . S
H5773 C5782 0.930 . S
H5774 C5784 0.930 . S
H5775 C5787 0.929 . S
H5776 C5790 0.930 . S
H5777 C5792 0.960 . S
H5778 C5792 0.960 . S
H5779 C5792 0.960 . S
C5780 H5772 0.929 . S
C5780 C5781 1.377 . S
C5780 C5782 1.384 . S
C5781 C5780 1.377 . S
C5781 C5787 1.390 . S
C5782 H5773 0.930 . S
C5782 C5780 1.384 . S
C5782 C5783 1.372 . S
C5783 C5782 1.372 . S
C5783 C5784 1.400 . S
C5783 C5788 1.490 . S
C5784 H5774 0.930 . S
C5784 C5783 1.400 . S
C5784 C5787 1.386 . S
H5785 C5801 0.930 . S
H5786 C5802 0.931 . S
C5787 H5775 0.929 . S
C5787 C5781 1.390 . S
C5787 C5784 1.386 . S
C5788 C5783 1.490 . S
C5788 C5790 1.395 . S
C5788 C5791 1.403 . S
H5789 C5795 0.930 . S
C5790 H5776 0.930 . S
C5790 C5788 1.395 . S
C5790 C5793 1.403 . S
C5791 C5788 1.403 . S
C5791 C5792 1.524 . S
C5791 C5795 1.400 . S
C5792 H5777 0.960 . S
C5792 H5778 0.960 . S
C5792 H5779 0.960 . S
C5792 C5791 1.524 . S
C5793 C5790 1.403 . S
C5793 C5794 1.392 . S
C5793 C5797 1.495 . S
C5794 C5793 1.392 . S
C5794 C5795 1.385 . S
C5794 C5796 1.478 . S
C5795 H5789 0.930 . S
C5795 C5791 1.400 . S
C5795 C5794 1.385 . S
C5796 C5794 1.478 . S
C5796 C5798 1.381 . S
C5796 C5802 1.383 . S
C5797 C5793 1.495 . S
C5797 H5803 0.959 . S
C5797 H5804 0.961 . S
C5797 H5805 0.960 . S
C5798 C5796 1.381 . S
C5798 C5799 1.394 . S
C5798 H5806 0.930 . S
C5799 C5798 1.394 . S
C5799 C5800 1.383 . S
C5799 H5807 0.929 . S
C5800 C5799 1.383 . S
C5800 C5801 1.377 . S
C5801 H5785 0.930 . S
C5801 C5800 1.377 . S
C5801 C5802 1.379 . S
C5802 H5786 0.931 . S
C5802 C5796 1.383 . S
C5802 C5801 1.379 . S
H5803 C5797 0.959 . S
H5804 C5797 0.961 . S
H5805 C5797 0.960 . S
H5806 C5798 0.930 . S
H5807 C5799 0.929 . S
H5808 C5816 0.929 . S
H5809 C5818 0.930 . S
H5810 C5820 0.930 . S
H5811 C5823 0.929 . S
H5812 C5826 0.930 . S
H5813 C5828 0.960 . S
H5814 C5828 0.960 . S
H5815 C5828 0.960 . S
C5816 H5808 0.929 . S
C5816 C5817 1.377 . S
C5816 C5818 1.384 . S
C5817 C5816 1.377 . S
C5817 C5823 1.390 . S
C5818 H5809 0.930 . S
C5818 C5816 1.384 . S
C5818 C5819 1.372 . S
C5819 C5818 1.372 . S
C5819 C5820 1.400 . S
C5819 C5824 1.490 . S
C5820 H5810 0.930 . S
C5820 C5819 1.400 . S
C5820 C5823 1.386 . S
H5821 C5837 0.930 . S
H5822 C5838 0.931 . S
C5823 H5811 0.929 . S
C5823 C5817 1.390 . S
C5823 C5820 1.386 . S
C5824 C5819 1.490 . S
C5824 C5826 1.395 . S
C5824 C5827 1.403 . S
H5825 C5831 0.930 . S
C5826 H5812 0.930 . S
C5826 C5824 1.395 . S
C5826 C5829 1.403 . S
C5827 C5824 1.403 . S
C5827 C5828 1.524 . S
C5827 C5831 1.400 . S
C5828 H5813 0.960 . S
C5828 H5814 0.960 . S
C5828 H5815 0.960 . S
C5828 C5827 1.524 . S
C5829 C5826 1.403 . S
C5829 C5830 1.392 . S
C5829 C5833 1.495 . S
C5830 C5829 1.392 . S
C5830 C5831 1.385 . S
C5830 C5832 1.478 . S
C5831 H5825 0.930 . S
C5831 C5827 1.400 . S
C5831 C5830 1.385 . S
C5832 C5830 1.478 . S
C5832 C5834 1.381 . S
C5832 C5838 1.383 . S
C5833 C5829 1.495 . S
C5833 H5839 0.959 . S
C5833 H5840 0.961 . S
C5833 H5841 0.960 . S
C5834 C5832 1.381 . S
C5834 C5835 1.394 . S
C5834 H5842 0.930 . S
C5835 C5834 1.394 . S
C5835 C5836 1.383 . S
C5835 H5843 0.929 . S
C5836 C5835 1.383 . S
C5836 C5837 1.377 . S
C5837 H5821 0.930 . S
C5837 C5836 1.377 . S
C5837 C5838 1.379 . S
C5838 H5822 0.931 . S
C5838 C5832 1.383 . S
C5838 C5837 1.379 . S
H5839 C5833 0.959 . S
H5840 C5833 0.961 . S
H5841 C5833 0.960 . S
H5842 C5834 0.930 . S
H5843 C5835 0.929 . S
H5844 C5852 0.929 . S
H5845 C5854 0.930 . S
H5846 C5856 0.930 . S
H5847 C5859 0.929 . S
H5848 C5862 0.930 . S
H5849 C5864 0.960 . S
H5850 C5864 0.960 . S
H5851 C5864 0.960 . S
C5852 H5844 0.929 . S
C5852 C5853 1.377 . S
C5852 C5854 1.384 . S
C5853 C5852 1.377 . S
C5853 C5859 1.390 . S
C5854 H5845 0.930 . S
C5854 C5852 1.384 . S
C5854 C5855 1.372 . S
C5855 C5854 1.372 . S
C5855 C5856 1.400 . S
C5855 C5860 1.490 . S
C5856 H5846 0.930 . S
C5856 C5855 1.400 . S
C5856 C5859 1.386 . S
H5857 C5873 0.930 . S
H5858 C5874 0.931 . S
C5859 H5847 0.929 . S
C5859 C5853 1.390 . S
C5859 C5856 1.386 . S
C5860 C5855 1.490 . S
C5860 C5862 1.395 . S
C5860 C5863 1.403 . S
H5861 C5867 0.930 . S
C5862 H5848 0.930 . S
C5862 C5860 1.395 . S
C5862 C5865 1.403 . S
C5863 C5860 1.403 . S
C5863 C5864 1.524 . S
C5863 C5867 1.400 . S
C5864 H5849 0.960 . S
C5864 H5850 0.960 . S
C5864 H5851 0.960 . S
C5864 C5863 1.524 . S
C5865 C5862 1.403 . S
C5865 C5866 1.392 . S
C5865 C5869 1.495 . S
C5866 C5865 1.392 . S
C5866 C5867 1.385 . S
C5866 C5868 1.478 . S
C5867 H5861 0.930 . S
C5867 C5863 1.400 . S
C5867 C5866 1.385 . S
C5868 C5866 1.478 . S
C5868 C5870 1.381 . S
C5868 C5874 1.383 . S
C5869 C5865 1.495 . S
C5869 H5875 0.959 . S
C5869 H5876 0.961 . S
C5869 H5877 0.960 . S
C5870 C5868 1.381 . S
C5870 C5871 1.394 . S
C5870 H5878 0.930 . S
C5871 C5870 1.394 . S
C5871 C5872 1.383 . S
C5871 H5879 0.929 . S
C5872 C5871 1.383 . S
C5872 C5873 1.377 . S
C5873 H5857 0.930 . S
C5873 C5872 1.377 . S
C5873 C5874 1.379 . S
C5874 H5858 0.931 . S
C5874 C5868 1.383 . S
C5874 C5873 1.379 . S
H5875 C5869 0.959 . S
H5876 C5869 0.961 . S
H5877 C5869 0.960 . S
H5878 C5870 0.930 . S
H5879 C5871 0.929 . S
H5880 C5888 0.929 . S
H5881 C5890 0.930 . S
H5882 C5892 0.930 . S
H5883 C5895 0.929 . S
H5884 C5898 0.930 . S
H5885 C5900 0.960 . S
H5886 C5900 0.960 . S
H5887 C5900 0.960 . S
C5888 H5880 0.929 . S
C5888 C5889 1.377 . S
C5888 C5890 1.384 . S
C5889 C5888 1.377 . S
C5889 C5895 1.390 . S
C5890 H5881 0.930 . S
C5890 C5888 1.384 . S
C5890 C5891 1.372 . S
C5891 C5890 1.372 . S
C5891 C5892 1.400 . S
C5891 C5896 1.490 . S
C5892 H5882 0.930 . S
C5892 C5891 1.400 . S
C5892 C5895 1.386 . S
H5893 C5909 0.930 . S
H5894 C5910 0.931 . S
C5895 H5883 0.929 . S
C5895 C5889 1.390 . S
C5895 C5892 1.386 . S
C5896 C5891 1.490 . S
C5896 C5898 1.395 . S
C5896 C5899 1.403 . S
H5897 C5903 0.930 . S
C5898 H5884 0.930 . S
C5898 C5896 1.395 . S
C5898 C5901 1.403 . S
C5899 C5896 1.403 . S
C5899 C5900 1.524 . S
C5899 C5903 1.400 . S
C5900 H5885 0.960 . S
C5900 H5886 0.960 . S
C5900 H5887 0.960 . S
C5900 C5899 1.524 . S
C5901 C5898 1.403 . S
C5901 C5902 1.392 . S
C5901 C5905 1.495 . S
C5902 C5901 1.392 . S
C5902 C5903 1.385 . S
C5902 C5904 1.478 . S
C5903 H5897 0.930 . S
C5903 C5899 1.400 . S
C5903 C5902 1.385 . S
C5904 C5902 1.478 . S
C5904 C5906 1.381 . S
C5904 C5910 1.383 . S
C5905 C5901 1.495 . S
C5905 H5911 0.959 . S
C5905 H5912 0.961 . S
C5905 H5913 0.960 . S
C5906 C5904 1.381 . S
C5906 C5907 1.394 . S
C5906 H5914 0.930 . S
C5907 C5906 1.394 . S
C5907 C5908 1.383 . S
C5907 H5915 0.929 . S
C5908 C5907 1.383 . S
C5908 C5909 1.377 . S
C5909 H5893 0.930 . S
C5909 C5908 1.377 . S
C5909 C5910 1.379 . S
C5910 H5894 0.931 . S
C5910 C5904 1.383 . S
C5910 C5909 1.379 . S
H5911 C5905 0.959 . S
H5912 C5905 0.961 . S
H5913 C5905 0.960 . S
H5914 C5906 0.930 . S
H5915 C5907 0.929 . S
H5916 C5924 0.929 . S
H5917 C5926 0.930 . S
H5918 C5928 0.930 . S
H5919 C5931 0.929 . S
H5920 C5934 0.930 . S
H5921 C5936 0.960 . S
H5922 C5936 0.960 . S
H5923 C5936 0.960 . S
C5924 H5916 0.929 . S
C5924 C5925 1.377 . S
C5924 C5926 1.384 . S
C5925 C5924 1.377 . S
C5925 C5931 1.390 . S
C5926 H5917 0.930 . S
C5926 C5924 1.384 . S
C5926 C5927 1.372 . S
C5927 C5926 1.372 . S
C5927 C5928 1.400 . S
C5927 C5932 1.490 . S
C5928 H5918 0.930 . S
C5928 C5927 1.400 . S
C5928 C5931 1.386 . S
H5929 C5945 0.930 . S
H5930 C5946 0.931 . S
C5931 H5919 0.929 . S
C5931 C5925 1.390 . S
C5931 C5928 1.386 . S
C5932 C5927 1.490 . S
C5932 C5934 1.395 . S
C5932 C5935 1.403 . S
H5933 C5939 0.930 . S
C5934 H5920 0.930 . S
C5934 C5932 1.395 . S
C5934 C5937 1.403 . S
C5935 C5932 1.403 . S
C5935 C5936 1.524 . S
C5935 C5939 1.400 . S
C5936 H5921 0.960 . S
C5936 H5922 0.960 . S
C5936 H5923 0.960 . S
C5936 C5935 1.524 . S
C5937 C5934 1.403 . S
C5937 C5938 1.392 . S
C5937 C5941 1.495 . S
C5938 C5937 1.392 . S
C5938 C5939 1.385 . S
C5938 C5940 1.478 . S
C5939 H5933 0.930 . S
C5939 C5935 1.400 . S
C5939 C5938 1.385 . S
C5940 C5938 1.478 . S
C5940 C5942 1.381 . S
C5940 C5946 1.383 . S
C5941 C5937 1.495 . S
C5941 H5947 0.959 . S
C5941 H5948 0.961 . S
C5941 H5949 0.960 . S
C5942 C5940 1.381 . S
C5942 C5943 1.394 . S
C5942 H5950 0.930 . S
C5943 C5942 1.394 . S
C5943 C5944 1.383 . S
C5943 H5951 0.929 . S
C5944 C5943 1.383 . S
C5944 C5945 1.377 . S
C5945 H5929 0.930 . S
C5945 C5944 1.377 . S
C5945 C5946 1.379 . S
C5946 H5930 0.931 . S
C5946 C5940 1.383 . S
C5946 C5945 1.379 . S
H5947 C5941 0.959 . S
H5948 C5941 0.961 . S
H5949 C5941 0.960 . S
H5950 C5942 0.930 . S
H5951 C5943 0.929 . S
H5952 C5960 0.929 . S
H5953 C5962 0.930 . S
H5954 C5964 0.930 . S
H5955 C5967 0.929 . S
H5956 C5970 0.930 . S
H5957 C5972 0.960 . S
H5958 C5972 0.960 . S
H5959 C5972 0.960 . S
C5960 H5952 0.929 . S
C5960 C5961 1.377 . S
C5960 C5962 1.384 . S
C5961 C5960 1.377 . S
C5961 C5967 1.390 . S
C5962 H5953 0.930 . S
C5962 C5960 1.384 . S
C5962 C5963 1.372 . S
C5963 C5962 1.372 . S
C5963 C5964 1.400 . S
C5963 C5968 1.490 . S
C5964 H5954 0.930 . S
C5964 C5963 1.400 . S
C5964 C5967 1.386 . S
H5965 C5981 0.930 . S
H5966 C5982 0.931 . S
C5967 H5955 0.929 . S
C5967 C5961 1.390 . S
C5967 C5964 1.386 . S
C5968 C5963 1.490 . S
C5968 C5970 1.395 . S
C5968 C5971 1.403 . S
H5969 C5975 0.930 . S
C5970 H5956 0.930 . S
C5970 C5968 1.395 . S
C5970 C5973 1.403 . S
C5971 C5968 1.403 . S
C5971 C5972 1.524 . S
C5971 C5975 1.400 . S
C5972 H5957 0.960 . S
C5972 H5958 0.960 . S
C5972 H5959 0.960 . S
C5972 C5971 1.524 . S
C5973 C5970 1.403 . S
C5973 C5974 1.392 . S
C5973 C5977 1.495 . S
C5974 C5973 1.392 . S
C5974 C5975 1.385 . S
C5974 C5976 1.478 . S
C5975 H5969 0.930 . S
C5975 C5971 1.400 . S
C5975 C5974 1.385 . S
C5976 C5974 1.478 . S
C5976 C5978 1.381 . S
C5976 C5982 1.383 . S
C5977 C5973 1.495 . S
C5977 H5983 0.959 . S
C5977 H5984 0.961 . S
C5977 H5985 0.960 . S
C5978 C5976 1.381 . S
C5978 C5979 1.394 . S
C5978 H5986 0.930 . S
C5979 C5978 1.394 . S
C5979 C5980 1.383 . S
C5979 H5987 0.929 . S
C5980 C5979 1.383 . S
C5980 C5981 1.377 . S
C5981 H5965 0.930 . S
C5981 C5980 1.377 . S
C5981 C5982 1.379 . S
C5982 H5966 0.931 . S
C5982 C5976 1.383 . S
C5982 C5981 1.379 . S
H5983 C5977 0.959 . S
H5984 C5977 0.961 . S
H5985 C5977 0.960 . S
H5986 C5978 0.930 . S
H5987 C5979 0.929 . S
H5988 C5996 0.929 . S
H5989 C5998 0.930 . S
H5990 C6000 0.930 . S
H5991 C6003 0.929 . S
H5992 C6006 0.930 . S
H5993 C6008 0.960 . S
H5994 C6008 0.960 . S
H5995 C6008 0.960 . S
C5996 H5988 0.929 . S
C5996 C5997 1.377 . S
C5996 C5998 1.384 . S
C5997 C5996 1.377 . S
C5997 C6003 1.390 . S
C5998 H5989 0.930 . S
C5998 C5996 1.384 . S
C5998 C5999 1.372 . S
C5999 C5998 1.372 . S
C5999 C6000 1.400 . S
C5999 C6004 1.490 . S
C6000 H5990 0.930 . S
C6000 C5999 1.400 . S
C6000 C6003 1.386 . S
H6001 C6017 0.930 . S
H6002 C6018 0.931 . S
C6003 H5991 0.929 . S
C6003 C5997 1.390 . S
C6003 C6000 1.386 . S
C6004 C5999 1.490 . S
C6004 C6006 1.395 . S
C6004 C6007 1.403 . S
H6005 C6011 0.930 . S
C6006 H5992 0.930 . S
C6006 C6004 1.395 . S
C6006 C6009 1.403 . S
C6007 C6004 1.403 . S
C6007 C6008 1.524 . S
C6007 C6011 1.400 . S
C6008 H5993 0.960 . S
C6008 H5994 0.960 . S
C6008 H5995 0.960 . S
C6008 C6007 1.524 . S
C6009 C6006 1.403 . S
C6009 C6010 1.392 . S
C6009 C6013 1.495 . S
C6010 C6009 1.392 . S
C6010 C6011 1.385 . S
C6010 C6012 1.478 . S
C6011 H6005 0.930 . S
C6011 C6007 1.400 . S
C6011 C6010 1.385 . S
C6012 C6010 1.478 . S
C6012 C6014 1.381 . S
C6012 C6018 1.383 . S
C6013 C6009 1.495 . S
C6013 H6019 0.959 . S
C6013 H6020 0.961 . S
C6013 H6021 0.960 . S
C6014 C6012 1.381 . S
C6014 C6015 1.394 . S
C6014 H6022 0.930 . S
C6015 C6014 1.394 . S
C6015 C6016 1.383 . S
C6015 H6023 0.929 . S
C6016 C6015 1.383 . S
C6016 C6017 1.377 . S
C6017 H6001 0.930 . S
C6017 C6016 1.377 . S
C6017 C6018 1.379 . S
C6018 H6002 0.931 . S
C6018 C6012 1.383 . S
C6018 C6017 1.379 . S
H6019 C6013 0.959 . S
H6020 C6013 0.961 . S
H6021 C6013 0.960 . S
H6022 C6014 0.930 . S
H6023 C6015 0.929 . S
H6024 C6032 0.929 . S
H6025 C6034 0.930 . S
H6026 C6036 0.930 . S
H6027 C6039 0.929 . S
H6028 C6042 0.930 . S
H6029 C6044 0.960 . S
H6030 C6044 0.960 . S
H6031 C6044 0.960 . S
C6032 H6024 0.929 . S
C6032 C6033 1.377 . S
C6032 C6034 1.384 . S
C6033 C6032 1.377 . S
C6033 C6039 1.390 . S
C6034 H6025 0.930 . S
C6034 C6032 1.384 . S
C6034 C6035 1.372 . S
C6035 C6034 1.372 . S
C6035 C6036 1.400 . S
C6035 C6040 1.490 . S
C6036 H6026 0.930 . S
C6036 C6035 1.400 . S
C6036 C6039 1.386 . S
H6037 C6053 0.930 . S
H6038 C6054 0.931 . S
C6039 H6027 0.929 . S
C6039 C6033 1.390 . S
C6039 C6036 1.386 . S
C6040 C6035 1.490 . S
C6040 C6042 1.395 . S
C6040 C6043 1.403 . S
H6041 C6047 0.930 . S
C6042 H6028 0.930 . S
C6042 C6040 1.395 . S
C6042 C6045 1.403 . S
C6043 C6040 1.403 . S
C6043 C6044 1.524 . S
C6043 C6047 1.400 . S
C6044 H6029 0.960 . S
C6044 H6030 0.960 . S
C6044 H6031 0.960 . S
C6044 C6043 1.524 . S
C6045 C6042 1.403 . S
C6045 C6046 1.392 . S
C6045 C6049 1.495 . S
C6046 C6045 1.392 . S
C6046 C6047 1.385 . S
C6046 C6048 1.478 . S
C6047 H6041 0.930 . S
C6047 C6043 1.400 . S
C6047 C6046 1.385 . S
C6048 C6046 1.478 . S
C6048 C6050 1.381 . S
C6048 C6054 1.383 . S
C6049 C6045 1.495 . S
C6049 H6055 0.959 . S
C6049 H6056 0.961 . S
C6049 H6057 0.960 . S
C6050 C6048 1.381 . S
C6050 C6051 1.394 . S
C6050 H6058 0.930 . S
C6051 C6050 1.394 . S
C6051 C6052 1.383 . S
C6051 H6059 0.929 . S
C6052 C6051 1.383 . S
C6052 C6053 1.377 . S
C6053 H6037 0.930 . S
C6053 C6052 1.377 . S
C6053 C6054 1.379 . S
C6054 H6038 0.931 . S
C6054 C6048 1.383 . S
C6054 C6053 1.379 . S
H6055 C6049 0.959 . S
H6056 C6049 0.961 . S
H6057 C6049 0.960 . S
H6058 C6050 0.930 . S
H6059 C6051 0.929 . S
H6060 C6068 0.929 . S
H6061 C6070 0.930 . S
H6062 C6072 0.930 . S
H6063 C6075 0.929 . S
H6064 C6078 0.930 . S
H6065 C6080 0.960 . S
H6066 C6080 0.960 . S
H6067 C6080 0.960 . S
C6068 H6060 0.929 . S
C6068 C6069 1.377 . S
C6068 C6070 1.384 . S
C6069 C6068 1.377 . S
C6069 C6075 1.390 . S
C6070 H6061 0.930 . S
C6070 C6068 1.384 . S
C6070 C6071 1.372 . S
C6071 C6070 1.372 . S
C6071 C6072 1.400 . S
C6071 C6076 1.490 . S
C6072 H6062 0.930 . S
C6072 C6071 1.400 . S
C6072 C6075 1.386 . S
H6073 C6089 0.930 . S
H6074 C6090 0.931 . S
C6075 H6063 0.929 . S
C6075 C6069 1.390 . S
C6075 C6072 1.386 . S
C6076 C6071 1.490 . S
C6076 C6078 1.395 . S
C6076 C6079 1.403 . S
H6077 C6083 0.930 . S
C6078 H6064 0.930 . S
C6078 C6076 1.395 . S
C6078 C6081 1.403 . S
C6079 C6076 1.403 . S
C6079 C6080 1.524 . S
C6079 C6083 1.400 . S
C6080 H6065 0.960 . S
C6080 H6066 0.960 . S
C6080 H6067 0.960 . S
C6080 C6079 1.524 . S
C6081 C6078 1.403 . S
C6081 C6082 1.392 . S
C6081 C6085 1.495 . S
C6082 C6081 1.392 . S
C6082 C6083 1.385 . S
C6082 C6084 1.478 . S
C6083 H6077 0.930 . S
C6083 C6079 1.400 . S
C6083 C6082 1.385 . S
C6084 C6082 1.478 . S
C6084 C6086 1.381 . S
C6084 C6090 1.383 . S
C6085 C6081 1.495 . S
C6085 H6091 0.959 . S
C6085 H6092 0.961 . S
C6085 H6093 0.960 . S
C6086 C6084 1.381 . S
C6086 C6087 1.394 . S
C6086 H6094 0.930 . S
C6087 C6086 1.394 . S
C6087 C6088 1.383 . S
C6087 H6095 0.929 . S
C6088 C6087 1.383 . S
C6088 C6089 1.377 . S
C6089 H6073 0.930 . S
C6089 C6088 1.377 . S
C6089 C6090 1.379 . S
C6090 H6074 0.931 . S
C6090 C6084 1.383 . S
C6090 C6089 1.379 . S
H6091 C6085 0.959 . S
H6092 C6085 0.961 . S
H6093 C6085 0.960 . S
H6094 C6086 0.930 . S
H6095 C6087 0.929 . S
H6096 C6104 0.929 . S
H6097 C6106 0.930 . S
H6098 C6108 0.930 . S
H6099 C6111 0.929 . S
H6100 C6114 0.930 . S
H6101 C6116 0.960 . S
H6102 C6116 0.960 . S
H6103 C6116 0.960 . S
C6104 H6096 0.929 . S
C6104 C6105 1.377 . S
C6104 C6106 1.384 . S
C6105 C6104 1.377 . S
C6105 C6111 1.390 . S
C6106 H6097 0.930 . S
C6106 C6104 1.384 . S
C6106 C6107 1.372 . S
C6107 C6106 1.372 . S
C6107 C6108 1.400 . S
C6107 C6112 1.490 . S
C6108 H6098 0.930 . S
C6108 C6107 1.400 . S
C6108 C6111 1.386 . S
H6109 C6125 0.930 . S
H6110 C6126 0.931 . S
C6111 H6099 0.929 . S
C6111 C6105 1.390 . S
C6111 C6108 1.386 . S
C6112 C6107 1.490 . S
C6112 C6114 1.395 . S
C6112 C6115 1.403 . S
H6113 C6119 0.930 . S
C6114 H6100 0.930 . S
C6114 C6112 1.395 . S
C6114 C6117 1.403 . S
C6115 C6112 1.403 . S
C6115 C6116 1.524 . S
C6115 C6119 1.400 . S
C6116 H6101 0.960 . S
C6116 H6102 0.960 . S
C6116 H6103 0.960 . S
C6116 C6115 1.524 . S
C6117 C6114 1.403 . S
C6117 C6118 1.392 . S
C6117 C6121 1.495 . S
C6118 C6117 1.392 . S
C6118 C6119 1.385 . S
C6118 C6120 1.478 . S
C6119 H6113 0.930 . S
C6119 C6115 1.400 . S
C6119 C6118 1.385 . S
C6120 C6118 1.478 . S
C6120 C6122 1.381 . S
C6120 C6126 1.383 . S
C6121 C6117 1.495 . S
C6121 H6127 0.959 . S
C6121 H6128 0.961 . S
C6121 H6129 0.960 . S
C6122 C6120 1.381 . S
C6122 C6123 1.394 . S
C6122 H6130 0.930 . S
C6123 C6122 1.394 . S
C6123 C6124 1.383 . S
C6123 H6131 0.929 . S
C6124 C6123 1.383 . S
C6124 C6125 1.377 . S
C6125 H6109 0.930 . S
C6125 C6124 1.377 . S
C6125 C6126 1.379 . S
C6126 H6110 0.931 . S
C6126 C6120 1.383 . S
C6126 C6125 1.379 . S
H6127 C6121 0.959 . S
H6128 C6121 0.961 . S
H6129 C6121 0.960 . S
H6130 C6122 0.930 . S
H6131 C6123 0.929 . S
H6132 C6140 0.929 . S
H6133 C6142 0.930 . S
H6134 C6144 0.930 . S
H6135 C6147 0.929 . S
H6136 C6150 0.930 . S
H6137 C6152 0.960 . S
H6138 C6152 0.960 . S
H6139 C6152 0.960 . S
C6140 H6132 0.929 . S
C6140 C6141 1.377 . S
C6140 C6142 1.384 . S
C6141 C6140 1.377 . S
C6141 C6147 1.390 . S
C6142 H6133 0.930 . S
C6142 C6140 1.384 . S
C6142 C6143 1.372 . S
C6143 C6142 1.372 . S
C6143 C6144 1.400 . S
C6143 C6148 1.490 . S
C6144 H6134 0.930 . S
C6144 C6143 1.400 . S
C6144 C6147 1.386 . S
H6145 C6161 0.930 . S
H6146 C6162 0.931 . S
C6147 H6135 0.929 . S
C6147 C6141 1.390 . S
C6147 C6144 1.386 . S
C6148 C6143 1.490 . S
C6148 C6150 1.395 . S
C6148 C6151 1.403 . S
H6149 C6155 0.930 . S
C6150 H6136 0.930 . S
C6150 C6148 1.395 . S
C6150 C6153 1.403 . S
C6151 C6148 1.403 . S
C6151 C6152 1.524 . S
C6151 C6155 1.400 . S
C6152 H6137 0.960 . S
C6152 H6138 0.960 . S
C6152 H6139 0.960 . S
C6152 C6151 1.524 . S
C6153 C6150 1.403 . S
C6153 C6154 1.392 . S
C6153 C6157 1.495 . S
C6154 C6153 1.392 . S
C6154 C6155 1.385 . S
C6154 C6156 1.478 . S
C6155 H6149 0.930 . S
C6155 C6151 1.400 . S
C6155 C6154 1.385 . S
C6156 C6154 1.478 . S
C6156 C6158 1.381 . S
C6156 C6162 1.383 . S
C6157 C6153 1.495 . S
C6157 H6163 0.959 . S
C6157 H6164 0.961 . S
C6157 H6165 0.960 . S
C6158 C6156 1.381 . S
C6158 C6159 1.394 . S
C6158 H6166 0.930 . S
C6159 C6158 1.394 . S
C6159 C6160 1.383 . S
C6159 H6167 0.929 . S
C6160 C6159 1.383 . S
C6160 C6161 1.377 . S
C6161 H6145 0.930 . S
C6161 C6160 1.377 . S
C6161 C6162 1.379 . S
C6162 H6146 0.931 . S
C6162 C6156 1.383 . S
C6162 C6161 1.379 . S
H6163 C6157 0.959 . S
H6164 C6157 0.961 . S
H6165 C6157 0.960 . S
H6166 C6158 0.930 . S
H6167 C6159 0.929 . S
H6168 C6176 0.929 . S
H6169 C6178 0.930 . S
H6170 C6180 0.930 . S
H6171 C6183 0.929 . S
H6172 C6186 0.930 . S
H6173 C6188 0.960 . S
H6174 C6188 0.960 . S
H6175 C6188 0.960 . S
C6176 H6168 0.929 . S
C6176 C6177 1.377 . S
C6176 C6178 1.384 . S
C6177 C6176 1.377 . S
C6177 C6183 1.390 . S
C6178 H6169 0.930 . S
C6178 C6176 1.384 . S
C6178 C6179 1.372 . S
C6179 C6178 1.372 . S
C6179 C6180 1.400 . S
C6179 C6184 1.490 . S
C6180 H6170 0.930 . S
C6180 C6179 1.400 . S
C6180 C6183 1.386 . S
H6181 C6197 0.930 . S
H6182 C6198 0.931 . S
C6183 H6171 0.929 . S
C6183 C6177 1.390 . S
C6183 C6180 1.386 . S
C6184 C6179 1.490 . S
C6184 C6186 1.395 . S
C6184 C6187 1.403 . S
H6185 C6191 0.930 . S
C6186 H6172 0.930 . S
C6186 C6184 1.395 . S
C6186 C6189 1.403 . S
C6187 C6184 1.403 . S
C6187 C6188 1.524 . S
C6187 C6191 1.400 . S
C6188 H6173 0.960 . S
C6188 H6174 0.960 . S
C6188 H6175 0.960 . S
C6188 C6187 1.524 . S
C6189 C6186 1.403 . S
C6189 C6190 1.392 . S
C6189 C6193 1.495 . S
C6190 C6189 1.392 . S
C6190 C6191 1.385 . S
C6190 C6192 1.478 . S
C6191 H6185 0.930 . S
C6191 C6187 1.400 . S
C6191 C6190 1.385 . S
C6192 C6190 1.478 . S
C6192 C6194 1.381 . S
C6192 C6198 1.383 . S
C6193 C6189 1.495 . S
C6193 H6199 0.959 . S
C6193 H6200 0.961 . S
C6193 H6201 0.960 . S
C6194 C6192 1.381 . S
C6194 C6195 1.394 . S
C6194 H6202 0.930 . S
C6195 C6194 1.394 . S
C6195 C6196 1.383 . S
C6195 H6203 0.929 . S
C6196 C6195 1.383 . S
C6196 C6197 1.377 . S
C6197 H6181 0.930 . S
C6197 C6196 1.377 . S
C6197 C6198 1.379 . S
C6198 H6182 0.931 . S
C6198 C6192 1.383 . S
C6198 C6197 1.379 . S
H6199 C6193 0.959 . S
H6200 C6193 0.961 . S
H6201 C6193 0.960 . S
H6202 C6194 0.930 . S
H6203 C6195 0.929 . S
H6204 C6212 0.929 . S
H6205 C6214 0.930 . S
H6206 C6216 0.930 . S
H6207 C6219 0.929 . S
H6208 C6222 0.930 . S
H6209 C6224 0.960 . S
H6210 C6224 0.960 . S
H6211 C6224 0.960 . S
C6212 H6204 0.929 . S
C6212 C6213 1.377 . S
C6212 C6214 1.384 . S
C6213 C6212 1.377 . S
C6213 C6219 1.390 . S
C6214 H6205 0.930 . S
C6214 C6212 1.384 . S
C6214 C6215 1.372 . S
C6215 C6214 1.372 . S
C6215 C6216 1.400 . S
C6215 C6220 1.490 . S
C6216 H6206 0.930 . S
C6216 C6215 1.400 . S
C6216 C6219 1.386 . S
H6217 C6233 0.930 . S
H6218 C6234 0.931 . S
C6219 H6207 0.929 . S
C6219 C6213 1.390 . S
C6219 C6216 1.386 . S
C6220 C6215 1.490 . S
C6220 C6222 1.395 . S
C6220 C6223 1.403 . S
H6221 C6227 0.930 . S
C6222 H6208 0.930 . S
C6222 C6220 1.395 . S
C6222 C6225 1.403 . S
C6223 C6220 1.403 . S
C6223 C6224 1.524 . S
C6223 C6227 1.400 . S
C6224 H6209 0.960 . S
C6224 H6210 0.960 . S
C6224 H6211 0.960 . S
C6224 C6223 1.524 . S
C6225 C6222 1.403 . S
C6225 C6226 1.392 . S
C6225 C6229 1.495 . S
C6226 C6225 1.392 . S
C6226 C6227 1.385 . S
C6226 C6228 1.478 . S
C6227 H6221 0.930 . S
C6227 C6223 1.400 . S
C6227 C6226 1.385 . S
C6228 C6226 1.478 . S
C6228 C6230 1.381 . S
C6228 C6234 1.383 . S
C6229 C6225 1.495 . S
C6229 H6235 0.959 . S
C6229 H6236 0.961 . S
C6229 H6237 0.960 . S
C6230 C6228 1.381 . S
C6230 C6231 1.394 . S
C6230 H6238 0.930 . S
C6231 C6230 1.394 . S
C6231 C6232 1.383 . S
C6231 H6239 0.929 . S
C6232 C6231 1.383 . S
C6232 C6233 1.377 . S
C6233 H6217 0.930 . S
C6233 C6232 1.377 . S
C6233 C6234 1.379 . S
C6234 H6218 0.931 . S
C6234 C6228 1.383 . S
C6234 C6233 1.379 . S
H6235 C6229 0.959 . S
H6236 C6229 0.961 . S
H6237 C6229 0.960 . S
H6238 C6230 0.930 . S
H6239 C6231 0.929 . S
H6240 C6248 0.929 . S
H6241 C6250 0.930 . S
H6242 C6252 0.930 . S
H6243 C6255 0.929 . S
H6244 C6258 0.930 . S
H6245 C6260 0.960 . S
H6246 C6260 0.960 . S
H6247 C6260 0.960 . S
C6248 H6240 0.929 . S
C6248 C6249 1.377 . S
C6248 C6250 1.384 . S
C6249 C6248 1.377 . S
C6249 C6255 1.390 . S
C6250 H6241 0.930 . S
C6250 C6248 1.384 . S
C6250 C6251 1.372 . S
C6251 C6250 1.372 . S
C6251 C6252 1.400 . S
C6251 C6256 1.490 . S
C6252 H6242 0.930 . S
C6252 C6251 1.400 . S
C6252 C6255 1.386 . S
H6253 C6269 0.930 . S
H6254 C6270 0.931 . S
C6255 H6243 0.929 . S
C6255 C6249 1.390 . S
C6255 C6252 1.386 . S
C6256 C6251 1.490 . S
C6256 C6258 1.395 . S
C6256 C6259 1.403 . S
H6257 C6263 0.930 . S
C6258 H6244 0.930 . S
C6258 C6256 1.395 . S
C6258 C6261 1.403 . S
C6259 C6256 1.403 . S
C6259 C6260 1.524 . S
C6259 C6263 1.400 . S
C6260 H6245 0.960 . S
C6260 H6246 0.960 . S
C6260 H6247 0.960 . S
C6260 C6259 1.524 . S
C6261 C6258 1.403 . S
C6261 C6262 1.392 . S
C6261 C6265 1.495 . S
C6262 C6261 1.392 . S
C6262 C6263 1.385 . S
C6262 C6264 1.478 . S
C6263 H6257 0.930 . S
C6263 C6259 1.400 . S
C6263 C6262 1.385 . S
C6264 C6262 1.478 . S
C6264 C6266 1.381 . S
C6264 C6270 1.383 . S
C6265 C6261 1.495 . S
C6265 H6271 0.959 . S
C6265 H6272 0.961 . S
C6265 H6273 0.960 . S
C6266 C6264 1.381 . S
C6266 C6267 1.394 . S
C6266 H6274 0.930 . S
C6267 C6266 1.394 . S
C6267 C6268 1.383 . S
C6267 H6275 0.929 . S
C6268 C6267 1.383 . S
C6268 C6269 1.377 . S
C6269 H6253 0.930 . S
C6269 C6268 1.377 . S
C6269 C6270 1.379 . S
C6270 H6254 0.931 . S
C6270 C6264 1.383 . S
C6270 C6269 1.379 . S
H6271 C6265 0.959 . S
H6272 C6265 0.961 . S
H6273 C6265 0.960 . S
H6274 C6266 0.930 . S
H6275 C6267 0.929 . S
H6276 C6284 0.929 . S
H6277 C6286 0.930 . S
H6278 C6288 0.930 . S
H6279 C6291 0.929 . S
H6280 C6294 0.930 . S
H6281 C6296 0.960 . S
H6282 C6296 0.960 . S
H6283 C6296 0.960 . S
C6284 H6276 0.929 . S
C6284 C6285 1.377 . S
C6284 C6286 1.384 . S
C6285 C6284 1.377 . S
C6285 C6291 1.390 . S
C6286 H6277 0.930 . S
C6286 C6284 1.384 . S
C6286 C6287 1.372 . S
C6287 C6286 1.372 . S
C6287 C6288 1.400 . S
C6287 C6292 1.490 . S
C6288 H6278 0.930 . S
C6288 C6287 1.400 . S
C6288 C6291 1.386 . S
H6289 C6305 0.930 . S
H6290 C6306 0.931 . S
C6291 H6279 0.929 . S
C6291 C6285 1.390 . S
C6291 C6288 1.386 . S
C6292 C6287 1.490 . S
C6292 C6294 1.395 . S
C6292 C6295 1.403 . S
H6293 C6299 0.930 . S
C6294 H6280 0.930 . S
C6294 C6292 1.395 . S
C6294 C6297 1.403 . S
C6295 C6292 1.403 . S
C6295 C6296 1.524 . S
C6295 C6299 1.400 . S
C6296 H6281 0.960 . S
C6296 H6282 0.960 . S
C6296 H6283 0.960 . S
C6296 C6295 1.524 . S
C6297 C6294 1.403 . S
C6297 C6298 1.392 . S
C6297 C6301 1.495 . S
C6298 C6297 1.392 . S
C6298 C6299 1.385 . S
C6298 C6300 1.478 . S
C6299 H6293 0.930 . S
C6299 C6295 1.400 . S
C6299 C6298 1.385 . S
C6300 C6298 1.478 . S
C6300 C6302 1.381 . S
C6300 C6306 1.383 . S
C6301 C6297 1.495 . S
C6301 H6307 0.959 . S
C6301 H6308 0.961 . S
C6301 H6309 0.960 . S
C6302 C6300 1.381 . S
C6302 C6303 1.394 . S
C6302 H6310 0.930 . S
C6303 C6302 1.394 . S
C6303 C6304 1.383 . S
C6303 H6311 0.929 . S
C6304 C6303 1.383 . S
C6304 C6305 1.377 . S
C6305 H6289 0.930 . S
C6305 C6304 1.377 . S
C6305 C6306 1.379 . S
C6306 H6290 0.931 . S
C6306 C6300 1.383 . S
C6306 C6305 1.379 . S
H6307 C6301 0.959 . S
H6308 C6301 0.961 . S
H6309 C6301 0.960 . S
H6310 C6302 0.930 . S
H6311 C6303 0.929 . S
H6312 C6320 0.929 . S
H6313 C6322 0.930 . S
H6314 C6324 0.930 . S
H6315 C6327 0.929 . S
H6316 C6330 0.930 . S
H6317 C6332 0.960 . S
H6318 C6332 0.960 . S
H6319 C6332 0.960 . S
C6320 H6312 0.929 . S
C6320 C6321 1.377 . S
C6320 C6322 1.384 . S
C6321 C6320 1.377 . S
C6321 C6327 1.390 . S
C6322 H6313 0.930 . S
C6322 C6320 1.384 . S
C6322 C6323 1.372 . S
C6323 C6322 1.372 . S
C6323 C6324 1.400 . S
C6323 C6328 1.490 . S
C6324 H6314 0.930 . S
C6324 C6323 1.400 . S
C6324 C6327 1.386 . S
H6325 C6341 0.930 . S
H6326 C6342 0.931 . S
C6327 H6315 0.929 . S
C6327 C6321 1.390 . S
C6327 C6324 1.386 . S
C6328 C6323 1.490 . S
C6328 C6330 1.395 . S
C6328 C6331 1.403 . S
H6329 C6335 0.930 . S
C6330 H6316 0.930 . S
C6330 C6328 1.395 . S
C6330 C6333 1.403 . S
C6331 C6328 1.403 . S
C6331 C6332 1.524 . S
C6331 C6335 1.400 . S
C6332 H6317 0.960 . S
C6332 H6318 0.960 . S
C6332 H6319 0.960 . S
C6332 C6331 1.524 . S
C6333 C6330 1.403 . S
C6333 C6334 1.392 . S
C6333 C6337 1.495 . S
C6334 C6333 1.392 . S
C6334 C6335 1.385 . S
C6334 C6336 1.478 . S
C6335 H6329 0.930 . S
C6335 C6331 1.400 . S
C6335 C6334 1.385 . S
C6336 C6334 1.478 . S
C6336 C6338 1.381 . S
C6336 C6342 1.383 . S
C6337 C6333 1.495 . S
C6337 H6343 0.959 . S
C6337 H6344 0.961 . S
C6337 H6345 0.960 . S
C6338 C6336 1.381 . S
C6338 C6339 1.394 . S
C6338 H6346 0.930 . S
C6339 C6338 1.394 . S
C6339 C6340 1.383 . S
C6339 H6347 0.929 . S
C6340 C6339 1.383 . S
C6340 C6341 1.377 . S
C6341 H6325 0.930 . S
C6341 C6340 1.377 . S
C6341 C6342 1.379 . S
C6342 H6326 0.931 . S
C6342 C6336 1.383 . S
C6342 C6341 1.379 . S
H6343 C6337 0.959 . S
H6344 C6337 0.961 . S
H6345 C6337 0.960 . S
H6346 C6338 0.930 . S
H6347 C6339 0.929 . S
H6348 C6356 0.929 . S
H6349 C6358 0.930 . S
H6350 C6360 0.930 . S
H6351 C6363 0.929 . S
H6352 C6366 0.930 . S
H6353 C6368 0.960 . S
H6354 C6368 0.960 . S
H6355 C6368 0.960 . S
C6356 H6348 0.929 . S
C6356 C6357 1.377 . S
C6356 C6358 1.384 . S
C6357 C6356 1.377 . S
C6357 C6363 1.390 . S
C6358 H6349 0.930 . S
C6358 C6356 1.384 . S
C6358 C6359 1.372 . S
C6359 C6358 1.372 . S
C6359 C6360 1.400 . S
C6359 C6364 1.490 . S
C6360 H6350 0.930 . S
C6360 C6359 1.400 . S
C6360 C6363 1.386 . S
H6361 C6377 0.930 . S
H6362 C6378 0.931 . S
C6363 H6351 0.929 . S
C6363 C6357 1.390 . S
C6363 C6360 1.386 . S
C6364 C6359 1.490 . S
C6364 C6366 1.395 . S
C6364 C6367 1.403 . S
H6365 C6371 0.930 . S
C6366 H6352 0.930 . S
C6366 C6364 1.395 . S
C6366 C6369 1.403 . S
C6367 C6364 1.403 . S
C6367 C6368 1.524 . S
C6367 C6371 1.400 . S
C6368 H6353 0.960 . S
C6368 H6354 0.960 . S
C6368 H6355 0.960 . S
C6368 C6367 1.524 . S
C6369 C6366 1.403 . S
C6369 C6370 1.392 . S
C6369 C6373 1.495 . S
C6370 C6369 1.392 . S
C6370 C6371 1.385 . S
C6370 C6372 1.478 . S
C6371 H6365 0.930 . S
C6371 C6367 1.400 . S
C6371 C6370 1.385 . S
C6372 C6370 1.478 . S
C6372 C6374 1.381 . S
C6372 C6378 1.383 . S
C6373 C6369 1.495 . S
C6373 H6379 0.959 . S
C6373 H6380 0.961 . S
C6373 H6381 0.960 . S
C6374 C6372 1.381 . S
C6374 C6375 1.394 . S
C6374 H6382 0.930 . S
C6375 C6374 1.394 . S
C6375 C6376 1.383 . S
C6375 H6383 0.929 . S
C6376 C6375 1.383 . S
C6376 C6377 1.377 . S
C6377 H6361 0.930 . S
C6377 C6376 1.377 . S
C6377 C6378 1.379 . S
C6378 H6362 0.931 . S
C6378 C6372 1.383 . S
C6378 C6377 1.379 . S
H6379 C6373 0.959 . S
H6380 C6373 0.961 . S
H6381 C6373 0.960 . S
H6382 C6374 0.930 . S
H6383 C6375 0.929 . S
H6384 C6392 0.929 . S
H6385 C6394 0.930 . S
H6386 C6396 0.930 . S
H6387 C6399 0.929 . S
H6388 C6402 0.930 . S
H6389 C6404 0.960 . S
H6390 C6404 0.960 . S
H6391 C6404 0.960 . S
C6392 H6384 0.929 . S
C6392 C6393 1.377 . S
C6392 C6394 1.384 . S
C6393 C6392 1.377 . S
C6393 C6399 1.390 . S
C6394 H6385 0.930 . S
C6394 C6392 1.384 . S
C6394 C6395 1.372 . S
C6395 C6394 1.372 . S
C6395 C6396 1.400 . S
C6395 C6400 1.490 . S
C6396 H6386 0.930 . S
C6396 C6395 1.400 . S
C6396 C6399 1.386 . S
H6397 C6413 0.930 . S
H6398 C6414 0.931 . S
C6399 H6387 0.929 . S
C6399 C6393 1.390 . S
C6399 C6396 1.386 . S
C6400 C6395 1.490 . S
C6400 C6402 1.395 . S
C6400 C6403 1.403 . S
H6401 C6407 0.930 . S
C6402 H6388 0.930 . S
C6402 C6400 1.395 . S
C6402 C6405 1.403 . S
C6403 C6400 1.403 . S
C6403 C6404 1.524 . S
C6403 C6407 1.400 . S
C6404 H6389 0.960 . S
C6404 H6390 0.960 . S
C6404 H6391 0.960 . S
C6404 C6403 1.524 . S
C6405 C6402 1.403 . S
C6405 C6406 1.392 . S
C6405 C6409 1.495 . S
C6406 C6405 1.392 . S
C6406 C6407 1.385 . S
C6406 C6408 1.478 . S
C6407 H6401 0.930 . S
C6407 C6403 1.400 . S
C6407 C6406 1.385 . S
C6408 C6406 1.478 . S
C6408 C6410 1.381 . S
C6408 C6414 1.383 . S
C6409 C6405 1.495 . S
C6409 H6415 0.959 . S
C6409 H6416 0.961 . S
C6409 H6417 0.960 . S
C6410 C6408 1.381 . S
C6410 C6411 1.394 . S
C6410 H6418 0.930 . S
C6411 C6410 1.394 . S
C6411 C6412 1.383 . S
C6411 H6419 0.929 . S
C6412 C6411 1.383 . S
C6412 C6413 1.377 . S
C6413 H6397 0.930 . S
C6413 C6412 1.377 . S
C6413 C6414 1.379 . S
C6414 H6398 0.931 . S
C6414 C6408 1.383 . S
C6414 C6413 1.379 . S
H6415 C6409 0.959 . S
H6416 C6409 0.961 . S
H6417 C6409 0.960 . S
H6418 C6410 0.930 . S
H6419 C6411 0.929 . S
H6420 C6428 0.929 . S
H6421 C6430 0.930 . S
H6422 C6432 0.930 . S
H6423 C6435 0.929 . S
H6424 C6438 0.930 . S
H6425 C6440 0.960 . S
H6426 C6440 0.960 . S
H6427 C6440 0.960 . S
C6428 H6420 0.929 . S
C6428 C6429 1.377 . S
C6428 C6430 1.384 . S
C6429 C6428 1.377 . S
C6429 C6435 1.390 . S
C6430 H6421 0.930 . S
C6430 C6428 1.384 . S
C6430 C6431 1.372 . S
C6431 C6430 1.372 . S
C6431 C6432 1.400 . S
C6431 C6436 1.490 . S
C6432 H6422 0.930 . S
C6432 C6431 1.400 . S
C6432 C6435 1.386 . S
H6433 C6449 0.930 . S
H6434 C6450 0.931 . S
C6435 H6423 0.929 . S
C6435 C6429 1.390 . S
C6435 C6432 1.386 . S
C6436 C6431 1.490 . S
C6436 C6438 1.395 . S
C6436 C6439 1.403 . S
H6437 C6443 0.930 . S
C6438 H6424 0.930 . S
C6438 C6436 1.395 . S
C6438 C6441 1.403 . S
C6439 C6436 1.403 . S
C6439 C6440 1.524 . S
C6439 C6443 1.400 . S
C6440 H6425 0.960 . S
C6440 H6426 0.960 . S
C6440 H6427 0.960 . S
C6440 C6439 1.524 . S
C6441 C6438 1.403 . S
C6441 C6442 1.392 . S
C6441 C6445 1.495 . S
C6442 C6441 1.392 . S
C6442 C6443 1.385 . S
C6442 C6444 1.478 . S
C6443 H6437 0.930 . S
C6443 C6439 1.400 . S
C6443 C6442 1.385 . S
C6444 C6442 1.478 . S
C6444 C6446 1.381 . S
C6444 C6450 1.383 . S
C6445 C6441 1.495 . S
C6445 H6451 0.959 . S
C6445 H6452 0.961 . S
C6445 H6453 0.960 . S
C6446 C6444 1.381 . S
C6446 C6447 1.394 . S
C6446 H6454 0.930 . S
C6447 C6446 1.394 . S
C6447 C6448 1.383 . S
C6447 H6455 0.929 . S
C6448 C6447 1.383 . S
C6448 C6449 1.377 . S
C6449 H6433 0.930 . S
C6449 C6448 1.377 . S
C6449 C6450 1.379 . S
C6450 H6434 0.931 . S
C6450 C6444 1.383 . S
C6450 C6449 1.379 . S
H6451 C6445 0.959 . S
H6452 C6445 0.961 . S
H6453 C6445 0.960 . S
H6454 C6446 0.930 . S
H6455 C6447 0.929 . S
H6456 C6464 0.929 . S
H6457 C6466 0.930 . S
H6458 C6468 0.930 . S
H6459 C6471 0.929 . S
H6460 C6474 0.930 . S
H6461 C6476 0.960 . S
H6462 C6476 0.960 . S
H6463 C6476 0.960 . S
C6464 H6456 0.929 . S
C6464 C6465 1.377 . S
C6464 C6466 1.384 . S
C6465 C6464 1.377 . S
C6465 C6471 1.390 . S
C6466 H6457 0.930 . S
C6466 C6464 1.384 . S
C6466 C6467 1.372 . S
C6467 C6466 1.372 . S
C6467 C6468 1.400 . S
C6467 C6472 1.490 . S
C6468 H6458 0.930 . S
C6468 C6467 1.400 . S
C6468 C6471 1.386 . S
H6469 C6485 0.930 . S
H6470 C6486 0.931 . S
C6471 H6459 0.929 . S
C6471 C6465 1.390 . S
C6471 C6468 1.386 . S
C6472 C6467 1.490 . S
C6472 C6474 1.395 . S
C6472 C6475 1.403 . S
H6473 C6479 0.930 . S
C6474 H6460 0.930 . S
C6474 C6472 1.395 . S
C6474 C6477 1.403 . S
C6475 C6472 1.403 . S
C6475 C6476 1.524 . S
C6475 C6479 1.400 . S
C6476 H6461 0.960 . S
C6476 H6462 0.960 . S
C6476 H6463 0.960 . S
C6476 C6475 1.524 . S
C6477 C6474 1.403 . S
C6477 C6478 1.392 . S
C6477 C6481 1.495 . S
C6478 C6477 1.392 . S
C6478 C6479 1.385 . S
C6478 C6480 1.478 . S
C6479 H6473 0.930 . S
C6479 C6475 1.400 . S
C6479 C6478 1.385 . S
C6480 C6478 1.478 . S
C6480 C6482 1.381 . S
C6480 C6486 1.383 . S
C6481 C6477 1.495 . S
C6481 H6487 0.959 . S
C6481 H6488 0.961 . S
C6481 H6489 0.960 . S
C6482 C6480 1.381 . S
C6482 C6483 1.394 . S
C6482 H6490 0.930 . S
C6483 C6482 1.394 . S
C6483 C6484 1.383 . S
C6483 H6491 0.929 . S
C6484 C6483 1.383 . S
C6484 C6485 1.377 . S
C6485 H6469 0.930 . S
C6485 C6484 1.377 . S
C6485 C6486 1.379 . S
C6486 H6470 0.931 . S
C6486 C6480 1.383 . S
C6486 C6485 1.379 . S
H6487 C6481 0.959 . S
H6488 C6481 0.961 . S
H6489 C6481 0.960 . S
H6490 C6482 0.930 . S
H6491 C6483 0.929 . S
H6492 C6500 0.929 . S
H6493 C6502 0.930 . S
H6494 C6504 0.930 . S
H6495 C6507 0.929 . S
H6496 C6510 0.930 . S
H6497 C6512 0.960 . S
H6498 C6512 0.960 . S
H6499 C6512 0.960 . S
C6500 H6492 0.929 . S
C6500 C6501 1.377 . S
C6500 C6502 1.384 . S
C6501 C6500 1.377 . S
C6501 C6507 1.390 . S
C6502 H6493 0.930 . S
C6502 C6500 1.384 . S
C6502 C6503 1.372 . S
C6503 C6502 1.372 . S
C6503 C6504 1.400 . S
C6503 C6508 1.490 . S
C6504 H6494 0.930 . S
C6504 C6503 1.400 . S
C6504 C6507 1.386 . S
H6505 C6521 0.930 . S
H6506 C6522 0.931 . S
C6507 H6495 0.929 . S
C6507 C6501 1.390 . S
C6507 C6504 1.386 . S
C6508 C6503 1.490 . S
C6508 C6510 1.395 . S
C6508 C6511 1.403 . S
H6509 C6515 0.930 . S
C6510 H6496 0.930 . S
C6510 C6508 1.395 . S
C6510 C6513 1.403 . S
C6511 C6508 1.403 . S
C6511 C6512 1.524 . S
C6511 C6515 1.400 . S
C6512 H6497 0.960 . S
C6512 H6498 0.960 . S
C6512 H6499 0.960 . S
C6512 C6511 1.524 . S
C6513 C6510 1.403 . S
C6513 C6514 1.392 . S
C6513 C6517 1.495 . S
C6514 C6513 1.392 . S
C6514 C6515 1.385 . S
C6514 C6516 1.478 . S
C6515 H6509 0.930 . S
C6515 C6511 1.400 . S
C6515 C6514 1.385 . S
C6516 C6514 1.478 . S
C6516 C6518 1.381 . S
C6516 C6522 1.383 . S
C6517 C6513 1.495 . S
C6517 H6523 0.959 . S
C6517 H6524 0.961 . S
C6517 H6525 0.960 . S
C6518 C6516 1.381 . S
C6518 C6519 1.394 . S
C6518 H6526 0.930 . S
C6519 C6518 1.394 . S
C6519 C6520 1.383 . S
C6519 H6527 0.929 . S
C6520 C6519 1.383 . S
C6520 C6521 1.377 . S
C6521 H6505 0.930 . S
C6521 C6520 1.377 . S
C6521 C6522 1.379 . S
C6522 H6506 0.931 . S
C6522 C6516 1.383 . S
C6522 C6521 1.379 . S
H6523 C6517 0.959 . S
H6524 C6517 0.961 . S
H6525 C6517 0.960 . S
H6526 C6518 0.930 . S
H6527 C6519 0.929 . S
H6528 C6536 0.929 . S
H6529 C6538 0.930 . S
H6530 C6540 0.930 . S
H6531 C6543 0.929 . S
H6532 C6546 0.930 . S
H6533 C6548 0.960 . S
H6534 C6548 0.960 . S
H6535 C6548 0.960 . S
C6536 H6528 0.929 . S
C6536 C6537 1.377 . S
C6536 C6538 1.384 . S
C6537 C6536 1.377 . S
C6537 C6543 1.390 . S
C6538 H6529 0.930 . S
C6538 C6536 1.384 . S
C6538 C6539 1.372 . S
C6539 C6538 1.372 . S
C6539 C6540 1.400 . S
C6539 C6544 1.490 . S
C6540 H6530 0.930 . S
C6540 C6539 1.400 . S
C6540 C6543 1.386 . S
H6541 C6557 0.930 . S
H6542 C6558 0.931 . S
C6543 H6531 0.929 . S
C6543 C6537 1.390 . S
C6543 C6540 1.386 . S
C6544 C6539 1.490 . S
C6544 C6546 1.395 . S
C6544 C6547 1.403 . S
H6545 C6551 0.930 . S
C6546 H6532 0.930 . S
C6546 C6544 1.395 . S
C6546 C6549 1.403 . S
C6547 C6544 1.403 . S
C6547 C6548 1.524 . S
C6547 C6551 1.400 . S
C6548 H6533 0.960 . S
C6548 H6534 0.960 . S
C6548 H6535 0.960 . S
C6548 C6547 1.524 . S
C6549 C6546 1.403 . S
C6549 C6550 1.392 . S
C6549 C6553 1.495 . S
C6550 C6549 1.392 . S
C6550 C6551 1.385 . S
C6550 C6552 1.478 . S
C6551 H6545 0.930 . S
C6551 C6547 1.400 . S
C6551 C6550 1.385 . S
C6552 C6550 1.478 . S
C6552 C6554 1.381 . S
C6552 C6558 1.383 . S
C6553 C6549 1.495 . S
C6553 H6559 0.959 . S
C6553 H6560 0.961 . S
C6553 H6561 0.960 . S
C6554 C6552 1.381 . S
C6554 C6555 1.394 . S
C6554 H6562 0.930 . S
C6555 C6554 1.394 . S
C6555 C6556 1.383 . S
C6555 H6563 0.929 . S
C6556 C6555 1.383 . S
C6556 C6557 1.377 . S
C6557 H6541 0.930 . S
C6557 C6556 1.377 . S
C6557 C6558 1.379 . S
C6558 H6542 0.931 . S
C6558 C6552 1.383 . S
C6558 C6557 1.379 . S
H6559 C6553 0.959 . S
H6560 C6553 0.961 . S
H6561 C6553 0.960 . S
H6562 C6554 0.930 . S
H6563 C6555 0.929 . S
H6564 C6572 0.929 . S
H6565 C6574 0.930 . S
H6566 C6576 0.930 . S
H6567 C6579 0.929 . S
H6568 C6582 0.930 . S
H6569 C6584 0.960 . S
H6570 C6584 0.960 . S
H6571 C6584 0.960 . S
C6572 H6564 0.929 . S
C6572 C6573 1.377 . S
C6572 C6574 1.384 . S
C6573 C6572 1.377 . S
C6573 C6579 1.390 . S
C6574 H6565 0.930 . S
C6574 C6572 1.384 . S
C6574 C6575 1.372 . S
C6575 C6574 1.372 . S
C6575 C6576 1.400 . S
C6575 C6580 1.490 . S
C6576 H6566 0.930 . S
C6576 C6575 1.400 . S
C6576 C6579 1.386 . S
H6577 C6593 0.930 . S
H6578 C6594 0.931 . S
C6579 H6567 0.929 . S
C6579 C6573 1.390 . S
C6579 C6576 1.386 . S
C6580 C6575 1.490 . S
C6580 C6582 1.395 . S
C6580 C6583 1.403 . S
H6581 C6587 0.930 . S
C6582 H6568 0.930 . S
C6582 C6580 1.395 . S
C6582 C6585 1.403 . S
C6583 C6580 1.403 . S
C6583 C6584 1.524 . S
C6583 C6587 1.400 . S
C6584 H6569 0.960 . S
C6584 H6570 0.960 . S
C6584 H6571 0.960 . S
C6584 C6583 1.524 . S
C6585 C6582 1.403 . S
C6585 C6586 1.392 . S
C6585 C6589 1.495 . S
C6586 C6585 1.392 . S
C6586 C6587 1.385 . S
C6586 C6588 1.478 . S
C6587 H6581 0.930 . S
C6587 C6583 1.400 . S
C6587 C6586 1.385 . S
C6588 C6586 1.478 . S
C6588 C6590 1.381 . S
C6588 C6594 1.383 . S
C6589 C6585 1.495 . S
C6589 H6595 0.959 . S
C6589 H6596 0.961 . S
C6589 H6597 0.960 . S
C6590 C6588 1.381 . S
C6590 C6591 1.394 . S
C6590 H6598 0.930 . S
C6591 C6590 1.394 . S
C6591 C6592 1.383 . S
C6591 H6599 0.929 . S
C6592 C6591 1.383 . S
C6592 C6593 1.377 . S
C6593 H6577 0.930 . S
C6593 C6592 1.377 . S
C6593 C6594 1.379 . S
C6594 H6578 0.931 . S
C6594 C6588 1.383 . S
C6594 C6593 1.379 . S
H6595 C6589 0.959 . S
H6596 C6589 0.961 . S
H6597 C6589 0.960 . S
H6598 C6590 0.930 . S
H6599 C6591 0.929 . S
H6600 C6608 0.929 . S
H6601 C6610 0.930 . S
H6602 C6612 0.930 . S
H6603 C6615 0.929 . S
H6604 C6618 0.930 . S
H6605 C6620 0.960 . S
H6606 C6620 0.960 . S
H6607 C6620 0.960 . S
C6608 H6600 0.929 . S
C6608 C6609 1.377 . S
C6608 C6610 1.384 . S
C6609 C6608 1.377 . S
C6609 C6615 1.390 . S
C6610 H6601 0.930 . S
C6610 C6608 1.384 . S
C6610 C6611 1.372 . S
C6611 C6610 1.372 . S
C6611 C6612 1.400 . S
C6611 C6616 1.490 . S
C6612 H6602 0.930 . S
C6612 C6611 1.400 . S
C6612 C6615 1.386 . S
H6613 C6629 0.930 . S
H6614 C6630 0.931 . S
C6615 H6603 0.929 . S
C6615 C6609 1.390 . S
C6615 C6612 1.386 . S
C6616 C6611 1.490 . S
C6616 C6618 1.395 . S
C6616 C6619 1.403 . S
H6617 C6623 0.930 . S
C6618 H6604 0.930 . S
C6618 C6616 1.395 . S
C6618 C6621 1.403 . S
C6619 C6616 1.403 . S
C6619 C6620 1.524 . S
C6619 C6623 1.400 . S
C6620 H6605 0.960 . S
C6620 H6606 0.960 . S
C6620 H6607 0.960 . S
C6620 C6619 1.524 . S
C6621 C6618 1.403 . S
C6621 C6622 1.392 . S
C6621 C6625 1.495 . S
C6622 C6621 1.392 . S
C6622 C6623 1.385 . S
C6622 C6624 1.478 . S
C6623 H6617 0.930 . S
C6623 C6619 1.400 . S
C6623 C6622 1.385 . S
C6624 C6622 1.478 . S
C6624 C6626 1.381 . S
C6624 C6630 1.383 . S
C6625 C6621 1.495 . S
C6625 H6631 0.959 . S
C6625 H6632 0.961 . S
C6625 H6633 0.960 . S
C6626 C6624 1.381 . S
C6626 C6627 1.394 . S
C6626 H6634 0.930 . S
C6627 C6626 1.394 . S
C6627 C6628 1.383 . S
C6627 H6635 0.929 . S
C6628 C6627 1.383 . S
C6628 C6629 1.377 . S
C6629 H6613 0.930 . S
C6629 C6628 1.377 . S
C6629 C6630 1.379 . S
C6630 H6614 0.931 . S
C6630 C6624 1.383 . S
C6630 C6629 1.379 . S
H6631 C6625 0.959 . S
H6632 C6625 0.961 . S
H6633 C6625 0.960 . S
H6634 C6626 0.930 . S
H6635 C6627 0.929 . S
H6636 C6644 0.929 . S
H6637 C6646 0.930 . S
H6638 C6648 0.930 . S
H6639 C6651 0.929 . S
H6640 C6654 0.930 . S
H6641 C6656 0.960 . S
H6642 C6656 0.960 . S
H6643 C6656 0.960 . S
C6644 H6636 0.929 . S
C6644 C6645 1.377 . S
C6644 C6646 1.384 . S
C6645 C6644 1.377 . S
C6645 C6651 1.390 . S
C6646 H6637 0.930 . S
C6646 C6644 1.384 . S
C6646 C6647 1.372 . S
C6647 C6646 1.372 . S
C6647 C6648 1.400 . S
C6647 C6652 1.490 . S
C6648 H6638 0.930 . S
C6648 C6647 1.400 . S
C6648 C6651 1.386 . S
H6649 C6665 0.930 . S
H6650 C6666 0.931 . S
C6651 H6639 0.929 . S
C6651 C6645 1.390 . S
C6651 C6648 1.386 . S
C6652 C6647 1.490 . S
C6652 C6654 1.395 . S
C6652 C6655 1.403 . S
H6653 C6659 0.930 . S
C6654 H6640 0.930 . S
C6654 C6652 1.395 . S
C6654 C6657 1.403 . S
C6655 C6652 1.403 . S
C6655 C6656 1.524 . S
C6655 C6659 1.400 . S
C6656 H6641 0.960 . S
C6656 H6642 0.960 . S
C6656 H6643 0.960 . S
C6656 C6655 1.524 . S
C6657 C6654 1.403 . S
C6657 C6658 1.392 . S
C6657 C6661 1.495 . S
C6658 C6657 1.392 . S
C6658 C6659 1.385 . S
C6658 C6660 1.478 . S
C6659 H6653 0.930 . S
C6659 C6655 1.400 . S
C6659 C6658 1.385 . S
C6660 C6658 1.478 . S
C6660 C6662 1.381 . S
C6660 C6666 1.383 . S
C6661 C6657 1.495 . S
C6661 H6667 0.959 . S
C6661 H6668 0.961 . S
C6661 H6669 0.960 . S
C6662 C6660 1.381 . S
C6662 C6663 1.394 . S
C6662 H6670 0.930 . S
C6663 C6662 1.394 . S
C6663 C6664 1.383 . S
C6663 H6671 0.929 . S
C6664 C6663 1.383 . S
C6664 C6665 1.377 . S
C6665 H6649 0.930 . S
C6665 C6664 1.377 . S
C6665 C6666 1.379 . S
C6666 H6650 0.931 . S
C6666 C6660 1.383 . S
C6666 C6665 1.379 . S
H6667 C6661 0.959 . S
H6668 C6661 0.961 . S
H6669 C6661 0.960 . S
H6670 C6662 0.930 . S
H6671 C6663 0.929 . S
H6672 C6680 0.929 . S
H6673 C6682 0.930 . S
H6674 C6684 0.930 . S
H6675 C6687 0.929 . S
H6676 C6690 0.930 . S
H6677 C6692 0.960 . S
H6678 C6692 0.960 . S
H6679 C6692 0.960 . S
C6680 H6672 0.929 . S
C6680 C6681 1.377 . S
C6680 C6682 1.384 . S
C6681 C6680 1.377 . S
C6681 C6687 1.390 . S
C6682 H6673 0.930 . S
C6682 C6680 1.384 . S
C6682 C6683 1.372 . S
C6683 C6682 1.372 . S
C6683 C6684 1.400 . S
C6683 C6688 1.490 . S
C6684 H6674 0.930 . S
C6684 C6683 1.400 . S
C6684 C6687 1.386 . S
H6685 C6701 0.930 . S
H6686 C6702 0.931 . S
C6687 H6675 0.929 . S
C6687 C6681 1.390 . S
C6687 C6684 1.386 . S
C6688 C6683 1.490 . S
C6688 C6690 1.395 . S
C6688 C6691 1.403 . S
H6689 C6695 0.930 . S
C6690 H6676 0.930 . S
C6690 C6688 1.395 . S
C6690 C6693 1.403 . S
C6691 C6688 1.403 . S
C6691 C6692 1.524 . S
C6691 C6695 1.400 . S
C6692 H6677 0.960 . S
C6692 H6678 0.960 . S
C6692 H6679 0.960 . S
C6692 C6691 1.524 . S
C6693 C6690 1.403 . S
C6693 C6694 1.392 . S
C6693 C6697 1.495 . S
C6694 C6693 1.392 . S
C6694 C6695 1.385 . S
C6694 C6696 1.478 . S
C6695 H6689 0.930 . S
C6695 C6691 1.400 . S
C6695 C6694 1.385 . S
C6696 C6694 1.478 . S
C6696 C6698 1.381 . S
C6696 C6702 1.383 . S
C6697 C6693 1.495 . S
C6697 H6703 0.959 . S
C6697 H6704 0.961 . S
C6697 H6705 0.960 . S
C6698 C6696 1.381 . S
C6698 C6699 1.394 . S
C6698 H6706 0.930 . S
C6699 C6698 1.394 . S
C6699 C6700 1.383 . S
C6699 H6707 0.929 . S
C6700 C6699 1.383 . S
C6700 C6701 1.377 . S
C6701 H6685 0.930 . S
C6701 C6700 1.377 . S
C6701 C6702 1.379 . S
C6702 H6686 0.931 . S
C6702 C6696 1.383 . S
C6702 C6701 1.379 . S
H6703 C6697 0.959 . S
H6704 C6697 0.961 . S
H6705 C6697 0.960 . S
H6706 C6698 0.930 . S
H6707 C6699 0.929 . S
H6708 C6716 0.929 . S
H6709 C6718 0.930 . S
H6710 C6720 0.930 . S
H6711 C6723 0.929 . S
H6712 C6726 0.930 . S
H6713 C6728 0.960 . S
H6714 C6728 0.960 . S
H6715 C6728 0.960 . S
C6716 H6708 0.929 . S
C6716 C6717 1.377 . S
C6716 C6718 1.384 . S
C6717 C6716 1.377 . S
C6717 C6723 1.390 . S
C6718 H6709 0.930 . S
C6718 C6716 1.384 . S
C6718 C6719 1.372 . S
C6719 C6718 1.372 . S
C6719 C6720 1.400 . S
C6719 C6724 1.490 . S
C6720 H6710 0.930 . S
C6720 C6719 1.400 . S
C6720 C6723 1.386 . S
H6721 C6737 0.930 . S
H6722 C6738 0.931 . S
C6723 H6711 0.929 . S
C6723 C6717 1.390 . S
C6723 C6720 1.386 . S
C6724 C6719 1.490 . S
C6724 C6726 1.395 . S
C6724 C6727 1.403 . S
H6725 C6731 0.930 . S
C6726 H6712 0.930 . S
C6726 C6724 1.395 . S
C6726 C6729 1.403 . S
C6727 C6724 1.403 . S
C6727 C6728 1.524 . S
C6727 C6731 1.400 . S
C6728 H6713 0.960 . S
C6728 H6714 0.960 . S
C6728 H6715 0.960 . S
C6728 C6727 1.524 . S
C6729 C6726 1.403 . S
C6729 C6730 1.392 . S
C6729 C6733 1.495 . S
C6730 C6729 1.392 . S
C6730 C6731 1.385 . S
C6730 C6732 1.478 . S
C6731 H6725 0.930 . S
C6731 C6727 1.400 . S
C6731 C6730 1.385 . S
C6732 C6730 1.478 . S
C6732 C6734 1.381 . S
C6732 C6738 1.383 . S
C6733 C6729 1.495 . S
C6733 H6739 0.959 . S
C6733 H6740 0.961 . S
C6733 H6741 0.960 . S
C6734 C6732 1.381 . S
C6734 C6735 1.394 . S
C6734 H6742 0.930 . S
C6735 C6734 1.394 . S
C6735 C6736 1.383 . S
C6735 H6743 0.929 . S
C6736 C6735 1.383 . S
C6736 C6737 1.377 . S
C6737 H6721 0.930 . S
C6737 C6736 1.377 . S
C6737 C6738 1.379 . S
C6738 H6722 0.931 . S
C6738 C6732 1.383 . S
C6738 C6737 1.379 . S
H6739 C6733 0.959 . S
H6740 C6733 0.961 . S
H6741 C6733 0.960 . S
H6742 C6734 0.930 . S
H6743 C6735 0.929 . S
H6744 C6752 0.929 . S
H6745 C6754 0.930 . S
H6746 C6756 0.930 . S
H6747 C6759 0.929 . S
H6748 C6762 0.930 . S
H6749 C6764 0.960 . S
H6750 C6764 0.960 . S
H6751 C6764 0.960 . S
C6752 H6744 0.929 . S
C6752 C6753 1.377 . S
C6752 C6754 1.384 . S
C6753 C6752 1.377 . S
C6753 C6759 1.390 . S
C6754 H6745 0.930 . S
C6754 C6752 1.384 . S
C6754 C6755 1.372 . S
C6755 C6754 1.372 . S
C6755 C6756 1.400 . S
C6755 C6760 1.490 . S
C6756 H6746 0.930 . S
C6756 C6755 1.400 . S
C6756 C6759 1.386 . S
H6757 C6773 0.930 . S
H6758 C6774 0.931 . S
C6759 H6747 0.929 . S
C6759 C6753 1.390 . S
C6759 C6756 1.386 . S
C6760 C6755 1.490 . S
C6760 C6762 1.395 . S
C6760 C6763 1.403 . S
H6761 C6767 0.930 . S
C6762 H6748 0.930 . S
C6762 C6760 1.395 . S
C6762 C6765 1.403 . S
C6763 C6760 1.403 . S
C6763 C6764 1.524 . S
C6763 C6767 1.400 . S
C6764 H6749 0.960 . S
C6764 H6750 0.960 . S
C6764 H6751 0.960 . S
C6764 C6763 1.524 . S
C6765 C6762 1.403 . S
C6765 C6766 1.392 . S
C6765 C6769 1.495 . S
C6766 C6765 1.392 . S
C6766 C6767 1.385 . S
C6766 C6768 1.478 . S
C6767 H6761 0.930 . S
C6767 C6763 1.400 . S
C6767 C6766 1.385 . S
C6768 C6766 1.478 . S
C6768 C6770 1.381 . S
C6768 C6774 1.383 . S
C6769 C6765 1.495 . S
C6769 H6775 0.959 . S
C6769 H6776 0.961 . S
C6769 H6777 0.960 . S
C6770 C6768 1.381 . S
C6770 C6771 1.394 . S
C6770 H6778 0.930 . S
C6771 C6770 1.394 . S
C6771 C6772 1.383 . S
C6771 H6779 0.929 . S
C6772 C6771 1.383 . S
C6772 C6773 1.377 . S
C6773 H6757 0.930 . S
C6773 C6772 1.377 . S
C6773 C6774 1.379 . S
C6774 H6758 0.931 . S
C6774 C6768 1.383 . S
C6774 C6773 1.379 . S
H6775 C6769 0.959 . S
H6776 C6769 0.961 . S
H6777 C6769 0.960 . S
H6778 C6770 0.930 . S
H6779 C6771 0.929 . S
H6780 C6788 0.929 . S
H6781 C6790 0.930 . S
H6782 C6792 0.930 . S
H6783 C6795 0.929 . S
H6784 C6798 0.930 . S
H6785 C6800 0.960 . S
H6786 C6800 0.960 . S
H6787 C6800 0.960 . S
C6788 H6780 0.929 . S
C6788 C6789 1.377 . S
C6788 C6790 1.384 . S
C6789 C6788 1.377 . S
C6789 C6795 1.390 . S
C6790 H6781 0.930 . S
C6790 C6788 1.384 . S
C6790 C6791 1.372 . S
C6791 C6790 1.372 . S
C6791 C6792 1.400 . S
C6791 C6796 1.490 . S
C6792 H6782 0.930 . S
C6792 C6791 1.400 . S
C6792 C6795 1.386 . S
H6793 C6809 0.930 . S
H6794 C6810 0.931 . S
C6795 H6783 0.929 . S
C6795 C6789 1.390 . S
C6795 C6792 1.386 . S
C6796 C6791 1.490 . S
C6796 C6798 1.395 . S
C6796 C6799 1.403 . S
H6797 C6803 0.930 . S
C6798 H6784 0.930 . S
C6798 C6796 1.395 . S
C6798 C6801 1.403 . S
C6799 C6796 1.403 . S
C6799 C6800 1.524 . S
C6799 C6803 1.400 . S
C6800 H6785 0.960 . S
C6800 H6786 0.960 . S
C6800 H6787 0.960 . S
C6800 C6799 1.524 . S
C6801 C6798 1.403 . S
C6801 C6802 1.392 . S
C6801 C6805 1.495 . S
C6802 C6801 1.392 . S
C6802 C6803 1.385 . S
C6802 C6804 1.478 . S
C6803 H6797 0.930 . S
C6803 C6799 1.400 . S
C6803 C6802 1.385 . S
C6804 C6802 1.478 . S
C6804 C6806 1.381 . S
C6804 C6810 1.383 . S
C6805 C6801 1.495 . S
C6805 H6811 0.959 . S
C6805 H6812 0.961 . S
C6805 H6813 0.960 . S
C6806 C6804 1.381 . S
C6806 C6807 1.394 . S
C6806 H6814 0.930 . S
C6807 C6806 1.394 . S
C6807 C6808 1.383 . S
C6807 H6815 0.929 . S
C6808 C6807 1.383 . S
C6808 C6809 1.377 . S
C6809 H6793 0.930 . S
C6809 C6808 1.377 . S
C6809 C6810 1.379 . S
C6810 H6794 0.931 . S
C6810 C6804 1.383 . S
C6810 C6809 1.379 . S
H6811 C6805 0.959 . S
H6812 C6805 0.961 . S
H6813 C6805 0.960 . S
H6814 C6806 0.930 . S
H6815 C6807 0.929 . S
H6816 C6824 0.929 . S
H6817 C6826 0.930 . S
H6818 C6828 0.930 . S
H6819 C6831 0.929 . S
H6820 C6834 0.930 . S
H6821 C6836 0.960 . S
H6822 C6836 0.960 . S
H6823 C6836 0.960 . S
C6824 H6816 0.929 . S
C6824 C6825 1.377 . S
C6824 C6826 1.384 . S
C6825 C6824 1.377 . S
C6825 C6831 1.390 . S
C6826 H6817 0.930 . S
C6826 C6824 1.384 . S
C6826 C6827 1.372 . S
C6827 C6826 1.372 . S
C6827 C6828 1.400 . S
C6827 C6832 1.490 . S
C6828 H6818 0.930 . S
C6828 C6827 1.400 . S
C6828 C6831 1.386 . S
H6829 C6845 0.930 . S
H6830 C6846 0.931 . S
C6831 H6819 0.929 . S
C6831 C6825 1.390 . S
C6831 C6828 1.386 . S
C6832 C6827 1.490 . S
C6832 C6834 1.395 . S
C6832 C6835 1.403 . S
H6833 C6839 0.930 . S
C6834 H6820 0.930 . S
C6834 C6832 1.395 . S
C6834 C6837 1.403 . S
C6835 C6832 1.403 . S
C6835 C6836 1.524 . S
C6835 C6839 1.400 . S
C6836 H6821 0.960 . S
C6836 H6822 0.960 . S
C6836 H6823 0.960 . S
C6836 C6835 1.524 . S
C6837 C6834 1.403 . S
C6837 C6838 1.392 . S
C6837 C6841 1.495 . S
C6838 C6837 1.392 . S
C6838 C6839 1.385 . S
C6838 C6840 1.478 . S
C6839 H6833 0.930 . S
C6839 C6835 1.400 . S
C6839 C6838 1.385 . S
C6840 C6838 1.478 . S
C6840 C6842 1.381 . S
C6840 C6846 1.383 . S
C6841 C6837 1.495 . S
C6841 H6847 0.959 . S
C6841 H6848 0.961 . S
C6841 H6849 0.960 . S
C6842 C6840 1.381 . S
C6842 C6843 1.394 . S
C6842 H6850 0.930 . S
C6843 C6842 1.394 . S
C6843 C6844 1.383 . S
C6843 H6851 0.929 . S
C6844 C6843 1.383 . S
C6844 C6845 1.377 . S
C6845 H6829 0.930 . S
C6845 C6844 1.377 . S
C6845 C6846 1.379 . S
C6846 H6830 0.931 . S
C6846 C6840 1.383 . S
C6846 C6845 1.379 . S
H6847 C6841 0.959 . S
H6848 C6841 0.961 . S
H6849 C6841 0.960 . S
H6850 C6842 0.930 . S
H6851 C6843 0.929 . S
H6852 C6860 0.929 . S
H6853 C6862 0.930 . S
H6854 C6864 0.930 . S
H6855 C6867 0.929 . S
H6856 C6870 0.930 . S
H6857 C6872 0.960 . S
H6858 C6872 0.960 . S
H6859 C6872 0.960 . S
C6860 H6852 0.929 . S
C6860 C6861 1.377 . S
C6860 C6862 1.384 . S
C6861 C6860 1.377 . S
C6861 C6867 1.390 . S
C6862 H6853 0.930 . S
C6862 C6860 1.384 . S
C6862 C6863 1.372 . S
C6863 C6862 1.372 . S
C6863 C6864 1.400 . S
C6863 C6868 1.490 . S
C6864 H6854 0.930 . S
C6864 C6863 1.400 . S
C6864 C6867 1.386 . S
H6865 C6881 0.930 . S
H6866 C6882 0.931 . S
C6867 H6855 0.929 . S
C6867 C6861 1.390 . S
C6867 C6864 1.386 . S
C6868 C6863 1.490 . S
C6868 C6870 1.395 . S
C6868 C6871 1.403 . S
H6869 C6875 0.930 . S
C6870 H6856 0.930 . S
C6870 C6868 1.395 . S
C6870 C6873 1.403 . S
C6871 C6868 1.403 . S
C6871 C6872 1.524 . S
C6871 C6875 1.400 . S
C6872 H6857 0.960 . S
C6872 H6858 0.960 . S
C6872 H6859 0.960 . S
C6872 C6871 1.524 . S
C6873 C6870 1.403 . S
C6873 C6874 1.392 . S
C6873 C6877 1.495 . S
C6874 C6873 1.392 . S
C6874 C6875 1.385 . S
C6874 C6876 1.478 . S
C6875 H6869 0.930 . S
C6875 C6871 1.400 . S
C6875 C6874 1.385 . S
C6876 C6874 1.478 . S
C6876 C6878 1.381 . S
C6876 C6882 1.383 . S
C6877 C6873 1.495 . S
C6877 H6883 0.959 . S
C6877 H6884 0.961 . S
C6877 H6885 0.960 . S
C6878 C6876 1.381 . S
C6878 C6879 1.394 . S
C6878 H6886 0.930 . S
C6879 C6878 1.394 . S
C6879 C6880 1.383 . S
C6879 H6887 0.929 . S
C6880 C6879 1.383 . S
C6880 C6881 1.377 . S
C6881 H6865 0.930 . S
C6881 C6880 1.377 . S
C6881 C6882 1.379 . S
C6882 H6866 0.931 . S
C6882 C6876 1.383 . S
C6882 C6881 1.379 . S
H6883 C6877 0.959 . S
H6884 C6877 0.961 . S
H6885 C6877 0.960 . S
H6886 C6878 0.930 . S
H6887 C6879 0.929 . S
H6888 C6896 0.929 . S
H6889 C6898 0.930 . S
H6890 C6900 0.930 . S
H6891 C6903 0.929 . S
H6892 C6906 0.930 . S
H6893 C6908 0.960 . S
H6894 C6908 0.960 . S
H6895 C6908 0.960 . S
C6896 H6888 0.929 . S
C6896 C6897 1.377 . S
C6896 C6898 1.384 . S
C6897 C6896 1.377 . S
C6897 C6903 1.390 . S
C6898 H6889 0.930 . S
C6898 C6896 1.384 . S
C6898 C6899 1.372 . S
C6899 C6898 1.372 . S
C6899 C6900 1.400 . S
C6899 C6904 1.490 . S
C6900 H6890 0.930 . S
C6900 C6899 1.400 . S
C6900 C6903 1.386 . S
H6901 C6917 0.930 . S
H6902 C6918 0.931 . S
C6903 H6891 0.929 . S
C6903 C6897 1.390 . S
C6903 C6900 1.386 . S
C6904 C6899 1.490 . S
C6904 C6906 1.395 . S
C6904 C6907 1.403 . S
H6905 C6911 0.930 . S
C6906 H6892 0.930 . S
C6906 C6904 1.395 . S
C6906 C6909 1.403 . S
C6907 C6904 1.403 . S
C6907 C6908 1.524 . S
C6907 C6911 1.400 . S
C6908 H6893 0.960 . S
C6908 H6894 0.960 . S
C6908 H6895 0.960 . S
C6908 C6907 1.524 . S
C6909 C6906 1.403 . S
C6909 C6910 1.392 . S
C6909 C6913 1.495 . S
C6910 C6909 1.392 . S
C6910 C6911 1.385 . S
C6910 C6912 1.478 . S
C6911 H6905 0.930 . S
C6911 C6907 1.400 . S
C6911 C6910 1.385 . S
C6912 C6910 1.478 . S
C6912 C6914 1.381 . S
C6912 C6918 1.383 . S
C6913 C6909 1.495 . S
C6913 H6919 0.959 . S
C6913 H6920 0.961 . S
C6913 H6921 0.960 . S
C6914 C6912 1.381 . S
C6914 C6915 1.394 . S
C6914 H6922 0.930 . S
C6915 C6914 1.394 . S
C6915 C6916 1.383 . S
C6915 H6923 0.929 . S
C6916 C6915 1.383 . S
C6916 C6917 1.377 . S
C6917 H6901 0.930 . S
C6917 C6916 1.377 . S
C6917 C6918 1.379 . S
C6918 H6902 0.931 . S
C6918 C6912 1.383 . S
C6918 C6917 1.379 . S
H6919 C6913 0.959 . S
H6920 C6913 0.961 . S
H6921 C6913 0.960 . S
H6922 C6914 0.930 . S
H6923 C6915 0.929 . S
H6924 C6932 0.929 . S
H6925 C6934 0.930 . S
H6926 C6936 0.930 . S
H6927 C6939 0.929 . S
H6928 C6942 0.930 . S
H6929 C6944 0.960 . S
H6930 C6944 0.960 . S
H6931 C6944 0.960 . S
C6932 H6924 0.929 . S
C6932 C6933 1.377 . S
C6932 C6934 1.384 . S
C6933 C6932 1.377 . S
C6933 C6939 1.390 . S
C6934 H6925 0.930 . S
C6934 C6932 1.384 . S
C6934 C6935 1.372 . S
C6935 C6934 1.372 . S
C6935 C6936 1.400 . S
C6935 C6940 1.490 . S
C6936 H6926 0.930 . S
C6936 C6935 1.400 . S
C6936 C6939 1.386 . S
H6937 C6953 0.930 . S
H6938 C6954 0.931 . S
C6939 H6927 0.929 . S
C6939 C6933 1.390 . S
C6939 C6936 1.386 . S
C6940 C6935 1.490 . S
C6940 C6942 1.395 . S
C6940 C6943 1.403 . S
H6941 C6947 0.930 . S
C6942 H6928 0.930 . S
C6942 C6940 1.395 . S
C6942 C6945 1.403 . S
C6943 C6940 1.403 . S
C6943 C6944 1.524 . S
C6943 C6947 1.400 . S
C6944 H6929 0.960 . S
C6944 H6930 0.960 . S
C6944 H6931 0.960 . S
C6944 C6943 1.524 . S
C6945 C6942 1.403 . S
C6945 C6946 1.392 . S
C6945 C6949 1.495 . S
C6946 C6945 1.392 . S
C6946 C6947 1.385 . S
C6946 C6948 1.478 . S
C6947 H6941 0.930 . S
C6947 C6943 1.400 . S
C6947 C6946 1.385 . S
C6948 C6946 1.478 . S
C6948 C6950 1.381 . S
C6948 C6954 1.383 . S
C6949 C6945 1.495 . S
C6949 H6955 0.959 . S
C6949 H6956 0.961 . S
C6949 H6957 0.960 . S
C6950 C6948 1.381 . S
C6950 C6951 1.394 . S
C6950 H6958 0.930 . S
C6951 C6950 1.394 . S
C6951 C6952 1.383 . S
C6951 H6959 0.929 . S
C6952 C6951 1.383 . S
C6952 C6953 1.377 . S
C6953 H6937 0.930 . S
C6953 C6952 1.377 . S
C6953 C6954 1.379 . S
C6954 H6938 0.931 . S
C6954 C6948 1.383 . S
C6954 C6953 1.379 . S
H6955 C6949 0.959 . S
H6956 C6949 0.961 . S
H6957 C6949 0.960 . S
H6958 C6950 0.930 . S
H6959 C6951 0.929 . S
H6960 C6968 0.929 . S
H6961 C6970 0.930 . S
H6962 C6972 0.930 . S
H6963 C6975 0.929 . S
H6964 C6978 0.930 . S
H6965 C6980 0.960 . S
H6966 C6980 0.960 . S
H6967 C6980 0.960 . S
C6968 H6960 0.929 . S
C6968 C6969 1.377 . S
C6968 C6970 1.384 . S
C6969 C6968 1.377 . S
C6969 C6975 1.390 . S
C6970 H6961 0.930 . S
C6970 C6968 1.384 . S
C6970 C6971 1.372 . S
C6971 C6970 1.372 . S
C6971 C6972 1.400 . S
C6971 C6976 1.490 . S
C6972 H6962 0.930 . S
C6972 C6971 1.400 . S
C6972 C6975 1.386 . S
H6973 C6989 0.930 . S
H6974 C6990 0.931 . S
C6975 H6963 0.929 . S
C6975 C6969 1.390 . S
C6975 C6972 1.386 . S
C6976 C6971 1.490 . S
C6976 C6978 1.395 . S
C6976 C6979 1.403 . S
H6977 C6983 0.930 . S
C6978 H6964 0.930 . S
C6978 C6976 1.395 . S
C6978 C6981 1.403 . S
C6979 C6976 1.403 . S
C6979 C6980 1.524 . S
C6979 C6983 1.400 . S
C6980 H6965 0.960 . S
C6980 H6966 0.960 . S
C6980 H6967 0.960 . S
C6980 C6979 1.524 . S
C6981 C6978 1.403 . S
C6981 C6982 1.392 . S
C6981 C6985 1.495 . S
C6982 C6981 1.392 . S
C6982 C6983 1.385 . S
C6982 C6984 1.478 . S
C6983 H6977 0.930 . S
C6983 C6979 1.400 . S
C6983 C6982 1.385 . S
C6984 C6982 1.478 . S
C6984 C6986 1.381 . S
C6984 C6990 1.383 . S
C6985 C6981 1.495 . S
C6985 H6991 0.959 . S
C6985 H6992 0.961 . S
C6985 H6993 0.960 . S
C6986 C6984 1.381 . S
C6986 C6987 1.394 . S
C6986 H6994 0.930 . S
C6987 C6986 1.394 . S
C6987 C6988 1.383 . S
C6987 H6995 0.929 . S
C6988 C6987 1.383 . S
C6988 C6989 1.377 . S
C6989 H6973 0.930 . S
C6989 C6988 1.377 . S
C6989 C6990 1.379 . S
C6990 H6974 0.931 . S
C6990 C6984 1.383 . S
C6990 C6989 1.379 . S
H6991 C6985 0.959 . S
H6992 C6985 0.961 . S
H6993 C6985 0.960 . S
H6994 C6986 0.930 . S
H6995 C6987 0.929 . S
H6996 C7004 0.929 . S
H6997 C7006 0.930 . S
H6998 C7008 0.930 . S
H6999 C7011 0.929 . S
H7000 C7014 0.930 . S
H7001 C7016 0.960 . S
H7002 C7016 0.960 . S
H7003 C7016 0.960 . S
C7004 H6996 0.929 . S
C7004 C7005 1.377 . S
C7004 C7006 1.384 . S
C7005 C7004 1.377 . S
C7005 C7011 1.390 . S
C7006 H6997 0.930 . S
C7006 C7004 1.384 . S
C7006 C7007 1.372 . S
C7007 C7006 1.372 . S
C7007 C7008 1.400 . S
C7007 C7012 1.490 . S
C7008 H6998 0.930 . S
C7008 C7007 1.400 . S
C7008 C7011 1.386 . S
H7009 C7025 0.930 . S
H7010 C7026 0.931 . S
C7011 H6999 0.929 . S
C7011 C7005 1.390 . S
C7011 C7008 1.386 . S
C7012 C7007 1.490 . S
C7012 C7014 1.395 . S
C7012 C7015 1.403 . S
H7013 C7019 0.930 . S
C7014 H7000 0.930 . S
C7014 C7012 1.395 . S
C7014 C7017 1.403 . S
C7015 C7012 1.403 . S
C7015 C7016 1.524 . S
C7015 C7019 1.400 . S
C7016 H7001 0.960 . S
C7016 H7002 0.960 . S
C7016 H7003 0.960 . S
C7016 C7015 1.524 . S
C7017 C7014 1.403 . S
C7017 C7018 1.392 . S
C7017 C7021 1.495 . S
C7018 C7017 1.392 . S
C7018 C7019 1.385 . S
C7018 C7020 1.478 . S
C7019 H7013 0.930 . S
C7019 C7015 1.400 . S
C7019 C7018 1.385 . S
C7020 C7018 1.478 . S
C7020 C7022 1.381 . S
C7020 C7026 1.383 . S
C7021 C7017 1.495 . S
C7021 H7027 0.959 . S
C7021 H7028 0.961 . S
C7021 H7029 0.960 . S
C7022 C7020 1.381 . S
C7022 C7023 1.394 . S
C7022 H7030 0.930 . S
C7023 C7022 1.394 . S
C7023 C7024 1.383 . S
C7023 H7031 0.929 . S
C7024 C7023 1.383 . S
C7024 C7025 1.377 . S
C7025 H7009 0.930 . S
C7025 C7024 1.377 . S
C7025 C7026 1.379 . S
C7026 H7010 0.931 . S
C7026 C7020 1.383 . S
C7026 C7025 1.379 . S
H7027 C7021 0.959 . S
H7028 C7021 0.961 . S
H7029 C7021 0.960 . S
H7030 C7022 0.930 . S
H7031 C7023 0.929 . S
H7032 C7040 0.929 . S
H7033 C7042 0.930 . S
H7034 C7044 0.930 . S
H7035 C7047 0.929 . S
H7036 C7050 0.930 . S
H7037 C7052 0.960 . S
H7038 C7052 0.960 . S
H7039 C7052 0.960 . S
C7040 H7032 0.929 . S
C7040 C7041 1.377 . S
C7040 C7042 1.384 . S
C7041 C7040 1.377 . S
C7041 C7047 1.390 . S
C7042 H7033 0.930 . S
C7042 C7040 1.384 . S
C7042 C7043 1.372 . S
C7043 C7042 1.372 . S
C7043 C7044 1.400 . S
C7043 C7048 1.490 . S
C7044 H7034 0.930 . S
C7044 C7043 1.400 . S
C7044 C7047 1.386 . S
H7045 C7061 0.930 . S
H7046 C7062 0.931 . S
C7047 H7035 0.929 . S
C7047 C7041 1.390 . S
C7047 C7044 1.386 . S
C7048 C7043 1.490 . S
C7048 C7050 1.395 . S
C7048 C7051 1.403 . S
H7049 C7055 0.930 . S
C7050 H7036 0.930 . S
C7050 C7048 1.395 . S
C7050 C7053 1.403 . S
C7051 C7048 1.403 . S
C7051 C7052 1.524 . S
C7051 C7055 1.400 . S
C7052 H7037 0.960 . S
C7052 H7038 0.960 . S
C7052 H7039 0.960 . S
C7052 C7051 1.524 . S
C7053 C7050 1.403 . S
C7053 C7054 1.392 . S
C7053 C7057 1.495 . S
C7054 C7053 1.392 . S
C7054 C7055 1.385 . S
C7054 C7056 1.478 . S
C7055 H7049 0.930 . S
C7055 C7051 1.400 . S
C7055 C7054 1.385 . S
C7056 C7054 1.478 . S
C7056 C7058 1.381 . S
C7056 C7062 1.383 . S
C7057 C7053 1.495 . S
C7057 H7063 0.959 . S
C7057 H7064 0.961 . S
C7057 H7065 0.960 . S
C7058 C7056 1.381 . S
C7058 C7059 1.394 . S
C7058 H7066 0.930 . S
C7059 C7058 1.394 . S
C7059 C7060 1.383 . S
C7059 H7067 0.929 . S
C7060 C7059 1.383 . S
C7060 C7061 1.377 . S
C7061 H7045 0.930 . S
C7061 C7060 1.377 . S
C7061 C7062 1.379 . S
C7062 H7046 0.931 . S
C7062 C7056 1.383 . S
C7062 C7061 1.379 . S
H7063 C7057 0.959 . S
H7064 C7057 0.961 . S
H7065 C7057 0.960 . S
H7066 C7058 0.930 . S
H7067 C7059 0.929 . S
H7068 C7076 0.929 . S
H7069 C7078 0.930 . S
H7070 C7080 0.930 . S
H7071 C7083 0.929 . S
H7072 C7086 0.930 . S
H7073 C7088 0.960 . S
H7074 C7088 0.960 . S
H7075 C7088 0.960 . S
C7076 H7068 0.929 . S
C7076 C7077 1.377 . S
C7076 C7078 1.384 . S
C7077 C7076 1.377 . S
C7077 C7083 1.390 . S
C7078 H7069 0.930 . S
C7078 C7076 1.384 . S
C7078 C7079 1.372 . S
C7079 C7078 1.372 . S
C7079 C7080 1.400 . S
C7079 C7084 1.490 . S
C7080 H7070 0.930 . S
C7080 C7079 1.400 . S
C7080 C7083 1.386 . S
H7081 C7097 0.930 . S
H7082 C7098 0.931 . S
C7083 H7071 0.929 . S
C7083 C7077 1.390 . S
C7083 C7080 1.386 . S
C7084 C7079 1.490 . S
C7084 C7086 1.395 . S
C7084 C7087 1.403 . S
H7085 C7091 0.930 . S
C7086 H7072 0.930 . S
C7086 C7084 1.395 . S
C7086 C7089 1.403 . S
C7087 C7084 1.403 . S
C7087 C7088 1.524 . S
C7087 C7091 1.400 . S
C7088 H7073 0.960 . S
C7088 H7074 0.960 . S
C7088 H7075 0.960 . S
C7088 C7087 1.524 . S
C7089 C7086 1.403 . S
C7089 C7090 1.392 . S
C7089 C7093 1.495 . S
C7090 C7089 1.392 . S
C7090 C7091 1.385 . S
C7090 C7092 1.478 . S
C7091 H7085 0.930 . S
C7091 C7087 1.400 . S
C7091 C7090 1.385 . S
C7092 C7090 1.478 . S
C7092 C7094 1.381 . S
C7092 C7098 1.383 . S
C7093 C7089 1.495 . S
C7093 H7099 0.959 . S
C7093 H7100 0.961 . S
C7093 H7101 0.960 . S
C7094 C7092 1.381 . S
C7094 C7095 1.394 . S
C7094 H7102 0.930 . S
C7095 C7094 1.394 . S
C7095 C7096 1.383 . S
C7095 H7103 0.929 . S
C7096 C7095 1.383 . S
C7096 C7097 1.377 . S
C7097 H7081 0.930 . S
C7097 C7096 1.377 . S
C7097 C7098 1.379 . S
C7098 H7082 0.931 . S
C7098 C7092 1.383 . S
C7098 C7097 1.379 . S
H7099 C7093 0.959 . S
H7100 C7093 0.961 . S
H7101 C7093 0.960 . S
H7102 C7094 0.930 . S
H7103 C7095 0.929 . S
H7104 C7112 0.929 . S
H7105 C7114 0.930 . S
H7106 C7116 0.930 . S
H7107 C7119 0.929 . S
H7108 C7122 0.930 . S
H7109 C7124 0.960 . S
H7110 C7124 0.960 . S
H7111 C7124 0.960 . S
C7112 H7104 0.929 . S
C7112 C7113 1.377 . S
C7112 C7114 1.384 . S
C7113 C7112 1.377 . S
C7113 C7119 1.390 . S
C7114 H7105 0.930 . S
C7114 C7112 1.384 . S
C7114 C7115 1.372 . S
C7115 C7114 1.372 . S
C7115 C7116 1.400 . S
C7115 C7120 1.490 . S
C7116 H7106 0.930 . S
C7116 C7115 1.400 . S
C7116 C7119 1.386 . S
H7117 C7133 0.930 . S
H7118 C7134 0.931 . S
C7119 H7107 0.929 . S
C7119 C7113 1.390 . S
C7119 C7116 1.386 . S
C7120 C7115 1.490 . S
C7120 C7122 1.395 . S
C7120 C7123 1.403 . S
H7121 C7127 0.930 . S
C7122 H7108 0.930 . S
C7122 C7120 1.395 . S
C7122 C7125 1.403 . S
C7123 C7120 1.403 . S
C7123 C7124 1.524 . S
C7123 C7127 1.400 . S
C7124 H7109 0.960 . S
C7124 H7110 0.960 . S
C7124 H7111 0.960 . S
C7124 C7123 1.524 . S
C7125 C7122 1.403 . S
C7125 C7126 1.392 . S
C7125 C7129 1.495 . S
C7126 C7125 1.392 . S
C7126 C7127 1.385 . S
C7126 C7128 1.478 . S
C7127 H7121 0.930 . S
C7127 C7123 1.400 . S
C7127 C7126 1.385 . S
C7128 C7126 1.478 . S
C7128 C7130 1.381 . S
C7128 C7134 1.383 . S
C7129 C7125 1.495 . S
C7129 H7135 0.959 . S
C7129 H7136 0.961 . S
C7129 H7137 0.960 . S
C7130 C7128 1.381 . S
C7130 C7131 1.394 . S
C7130 H7138 0.930 . S
C7131 C7130 1.394 . S
C7131 C7132 1.383 . S
C7131 H7139 0.929 . S
C7132 C7131 1.383 . S
C7132 C7133 1.377 . S
C7133 H7117 0.930 . S
C7133 C7132 1.377 . S
C7133 C7134 1.379 . S
C7134 H7118 0.931 . S
C7134 C7128 1.383 . S
C7134 C7133 1.379 . S
H7135 C7129 0.959 . S
H7136 C7129 0.961 . S
H7137 C7129 0.960 . S
H7138 C7130 0.930 . S
H7139 C7131 0.929 . S
H7140 C7148 0.929 . S
H7141 C7150 0.930 . S
H7142 C7152 0.930 . S
H7143 C7155 0.929 . S
H7144 C7158 0.930 . S
H7145 C7160 0.960 . S
H7146 C7160 0.960 . S
H7147 C7160 0.960 . S
C7148 H7140 0.929 . S
C7148 C7149 1.377 . S
C7148 C7150 1.384 . S
C7149 C7148 1.377 . S
C7149 C7155 1.390 . S
C7150 H7141 0.930 . S
C7150 C7148 1.384 . S
C7150 C7151 1.372 . S
C7151 C7150 1.372 . S
C7151 C7152 1.400 . S
C7151 C7156 1.490 . S
C7152 H7142 0.930 . S
C7152 C7151 1.400 . S
C7152 C7155 1.386 . S
H7153 C7169 0.930 . S
H7154 C7170 0.931 . S
C7155 H7143 0.929 . S
C7155 C7149 1.390 . S
C7155 C7152 1.386 . S
C7156 C7151 1.490 . S
C7156 C7158 1.395 . S
C7156 C7159 1.403 . S
H7157 C7163 0.930 . S
C7158 H7144 0.930 . S
C7158 C7156 1.395 . S
C7158 C7161 1.403 . S
C7159 C7156 1.403 . S
C7159 C7160 1.524 . S
C7159 C7163 1.400 . S
C7160 H7145 0.960 . S
C7160 H7146 0.960 . S
C7160 H7147 0.960 . S
C7160 C7159 1.524 . S
C7161 C7158 1.403 . S
C7161 C7162 1.392 . S
C7161 C7165 1.495 . S
C7162 C7161 1.392 . S
C7162 C7163 1.385 . S
C7162 C7164 1.478 . S
C7163 H7157 0.930 . S
C7163 C7159 1.400 . S
C7163 C7162 1.385 . S
C7164 C7162 1.478 . S
C7164 C7166 1.381 . S
C7164 C7170 1.383 . S
C7165 C7161 1.495 . S
C7165 H7171 0.959 . S
C7165 H7172 0.961 . S
C7165 H7173 0.960 . S
C7166 C7164 1.381 . S
C7166 C7167 1.394 . S
C7166 H7174 0.930 . S
C7167 C7166 1.394 . S
C7167 C7168 1.383 . S
C7167 H7175 0.929 . S
C7168 C7167 1.383 . S
C7168 C7169 1.377 . S
C7169 H7153 0.930 . S
C7169 C7168 1.377 . S
C7169 C7170 1.379 . S
C7170 H7154 0.931 . S
C7170 C7164 1.383 . S
C7170 C7169 1.379 . S
H7171 C7165 0.959 . S
H7172 C7165 0.961 . S
H7173 C7165 0.960 . S
H7174 C7166 0.930 . S
H7175 C7167 0.929 . S
H7176 C7184 0.929 . S
H7177 C7186 0.930 . S
H7178 C7188 0.930 . S
H7179 C7191 0.929 . S
H7180 C7194 0.930 . S
H7181 C7196 0.960 . S
H7182 C7196 0.960 . S
H7183 C7196 0.960 . S
C7184 H7176 0.929 . S
C7184 C7185 1.377 . S
C7184 C7186 1.384 . S
C7185 C7184 1.377 . S
C7185 C7191 1.390 . S
C7186 H7177 0.930 . S
C7186 C7184 1.384 . S
C7186 C7187 1.372 . S
C7187 C7186 1.372 . S
C7187 C7188 1.400 . S
C7187 C7192 1.490 . S
C7188 H7178 0.930 . S
C7188 C7187 1.400 . S
C7188 C7191 1.386 . S
H7189 C7205 0.930 . S
H7190 C7206 0.931 . S
C7191 H7179 0.929 . S
C7191 C7185 1.390 . S
C7191 C7188 1.386 . S
C7192 C7187 1.490 . S
C7192 C7194 1.395 . S
C7192 C7195 1.403 . S
H7193 C7199 0.930 . S
C7194 H7180 0.930 . S
C7194 C7192 1.395 . S
C7194 C7197 1.403 . S
C7195 C7192 1.403 . S
C7195 C7196 1.524 . S
C7195 C7199 1.400 . S
C7196 H7181 0.960 . S
C7196 H7182 0.960 . S
C7196 H7183 0.960 . S
C7196 C7195 1.524 . S
C7197 C7194 1.403 . S
C7197 C7198 1.392 . S
C7197 C7201 1.495 . S
C7198 C7197 1.392 . S
C7198 C7199 1.385 . S
C7198 C7200 1.478 . S
C7199 H7193 0.930 . S
C7199 C7195 1.400 . S
C7199 C7198 1.385 . S
C7200 C7198 1.478 . S
C7200 C7202 1.381 . S
C7200 C7206 1.383 . S
C7201 C7197 1.495 . S
C7201 H7207 0.959 . S
C7201 H7208 0.961 . S
C7201 H7209 0.960 . S
C7202 C7200 1.381 . S
C7202 C7203 1.394 . S
C7202 H7210 0.930 . S
C7203 C7202 1.394 . S
C7203 C7204 1.383 . S
C7203 H7211 0.929 . S
C7204 C7203 1.383 . S
C7204 C7205 1.377 . S
C7205 H7189 0.930 . S
C7205 C7204 1.377 . S
C7205 C7206 1.379 . S
C7206 H7190 0.931 . S
C7206 C7200 1.383 . S
C7206 C7205 1.379 . S
H7207 C7201 0.959 . S
H7208 C7201 0.961 . S
H7209 C7201 0.960 . S
H7210 C7202 0.930 . S
H7211 C7203 0.929 . S
H7212 C7220 0.929 . S
H7213 C7222 0.930 . S
H7214 C7224 0.930 . S
H7215 C7227 0.929 . S
H7216 C7230 0.930 . S
H7217 C7232 0.960 . S
H7218 C7232 0.960 . S
H7219 C7232 0.960 . S
C7220 H7212 0.929 . S
C7220 C7221 1.377 . S
C7220 C7222 1.384 . S
C7221 C7220 1.377 . S
C7221 C7227 1.390 . S
C7222 H7213 0.930 . S
C7222 C7220 1.384 . S
C7222 C7223 1.372 . S
C7223 C7222 1.372 . S
C7223 C7224 1.400 . S
C7223 C7228 1.490 . S
C7224 H7214 0.930 . S
C7224 C7223 1.400 . S
C7224 C7227 1.386 . S
H7225 C7241 0.930 . S
H7226 C7242 0.931 . S
C7227 H7215 0.929 . S
C7227 C7221 1.390 . S
C7227 C7224 1.386 . S
C7228 C7223 1.490 . S
C7228 C7230 1.395 . S
C7228 C7231 1.403 . S
H7229 C7235 0.930 . S
C7230 H7216 0.930 . S
C7230 C7228 1.395 . S
C7230 C7233 1.403 . S
C7231 C7228 1.403 . S
C7231 C7232 1.524 . S
C7231 C7235 1.400 . S
C7232 H7217 0.960 . S
C7232 H7218 0.960 . S
C7232 H7219 0.960 . S
C7232 C7231 1.524 . S
C7233 C7230 1.403 . S
C7233 C7234 1.392 . S
C7233 C7237 1.495 . S
C7234 C7233 1.392 . S
C7234 C7235 1.385 . S
C7234 C7236 1.478 . S
C7235 H7229 0.930 . S
C7235 C7231 1.400 . S
C7235 C7234 1.385 . S
C7236 C7234 1.478 . S
C7236 C7238 1.381 . S
C7236 C7242 1.383 . S
C7237 C7233 1.495 . S
C7237 H7243 0.959 . S
C7237 H7244 0.961 . S
C7237 H7245 0.960 . S
C7238 C7236 1.381 . S
C7238 C7239 1.394 . S
C7238 H7246 0.930 . S
C7239 C7238 1.394 . S
C7239 C7240 1.383 . S
C7239 H7247 0.929 . S
C7240 C7239 1.383 . S
C7240 C7241 1.377 . S
C7241 H7225 0.930 . S
C7241 C7240 1.377 . S
C7241 C7242 1.379 . S
C7242 H7226 0.931 . S
C7242 C7236 1.383 . S
C7242 C7241 1.379 . S
H7243 C7237 0.959 . S
H7244 C7237 0.961 . S
H7245 C7237 0.960 . S
H7246 C7238 0.930 . S
H7247 C7239 0.929 . S
H7248 C7256 0.929 . S
H7249 C7258 0.930 . S
H7250 C7260 0.930 . S
H7251 C7263 0.929 . S
H7252 C7266 0.930 . S
H7253 C7268 0.960 . S
H7254 C7268 0.960 . S
H7255 C7268 0.960 . S
C7256 H7248 0.929 . S
C7256 C7257 1.377 . S
C7256 C7258 1.384 . S
C7257 C7256 1.377 . S
C7257 C7263 1.390 . S
C7258 H7249 0.930 . S
C7258 C7256 1.384 . S
C7258 C7259 1.372 . S
C7259 C7258 1.372 . S
C7259 C7260 1.400 . S
C7259 C7264 1.490 . S
C7260 H7250 0.930 . S
C7260 C7259 1.400 . S
C7260 C7263 1.386 . S
H7261 C7277 0.930 . S
H7262 C7278 0.931 . S
C7263 H7251 0.929 . S
C7263 C7257 1.390 . S
C7263 C7260 1.386 . S
C7264 C7259 1.490 . S
C7264 C7266 1.395 . S
C7264 C7267 1.403 . S
H7265 C7271 0.930 . S
C7266 H7252 0.930 . S
C7266 C7264 1.395 . S
C7266 C7269 1.403 . S
C7267 C7264 1.403 . S
C7267 C7268 1.524 . S
C7267 C7271 1.400 . S
C7268 H7253 0.960 . S
C7268 H7254 0.960 . S
C7268 H7255 0.960 . S
C7268 C7267 1.524 . S
C7269 C7266 1.403 . S
C7269 C7270 1.392 . S
C7269 C7273 1.495 . S
C7270 C7269 1.392 . S
C7270 C7271 1.385 . S
C7270 C7272 1.478 . S
C7271 H7265 0.930 . S
C7271 C7267 1.400 . S
C7271 C7270 1.385 . S
C7272 C7270 1.478 . S
C7272 C7274 1.381 . S
C7272 C7278 1.383 . S
C7273 C7269 1.495 . S
C7273 H7279 0.959 . S
C7273 H7280 0.961 . S
C7273 H7281 0.960 . S
C7274 C7272 1.381 . S
C7274 C7275 1.394 . S
C7274 H7282 0.930 . S
C7275 C7274 1.394 . S
C7275 C7276 1.383 . S
C7275 H7283 0.929 . S
C7276 C7275 1.383 . S
C7276 C7277 1.377 . S
C7277 H7261 0.930 . S
C7277 C7276 1.377 . S
C7277 C7278 1.379 . S
C7278 H7262 0.931 . S
C7278 C7272 1.383 . S
C7278 C7277 1.379 . S
H7279 C7273 0.959 . S
H7280 C7273 0.961 . S
H7281 C7273 0.960 . S
H7282 C7274 0.930 . S
H7283 C7275 0.929 . S
H7284 C7292 0.929 . S
H7285 C7294 0.930 . S
H7286 C7296 0.930 . S
H7287 C7299 0.929 . S
H7288 C7302 0.930 . S
H7289 C7304 0.960 . S
H7290 C7304 0.960 . S
H7291 C7304 0.960 . S
C7292 H7284 0.929 . S
C7292 C7293 1.377 . S
C7292 C7294 1.384 . S
C7293 C7292 1.377 . S
C7293 C7299 1.390 . S
C7294 H7285 0.930 . S
C7294 C7292 1.384 . S
C7294 C7295 1.372 . S
C7295 C7294 1.372 . S
C7295 C7296 1.400 . S
C7295 C7300 1.490 . S
C7296 H7286 0.930 . S
C7296 C7295 1.400 . S
C7296 C7299 1.386 . S
H7297 C7313 0.930 . S
H7298 C7314 0.931 . S
C7299 H7287 0.929 . S
C7299 C7293 1.390 . S
C7299 C7296 1.386 . S
C7300 C7295 1.490 . S
C7300 C7302 1.395 . S
C7300 C7303 1.403 . S
H7301 C7307 0.930 . S
C7302 H7288 0.930 . S
C7302 C7300 1.395 . S
C7302 C7305 1.403 . S
C7303 C7300 1.403 . S
C7303 C7304 1.524 . S
C7303 C7307 1.400 . S
C7304 H7289 0.960 . S
C7304 H7290 0.960 . S
C7304 H7291 0.960 . S
C7304 C7303 1.524 . S
C7305 C7302 1.403 . S
C7305 C7306 1.392 . S
C7305 C7309 1.495 . S
C7306 C7305 1.392 . S
C7306 C7307 1.385 . S
C7306 C7308 1.478 . S
C7307 H7301 0.930 . S
C7307 C7303 1.400 . S
C7307 C7306 1.385 . S
C7308 C7306 1.478 . S
C7308 C7310 1.381 . S
C7308 C7314 1.383 . S
C7309 C7305 1.495 . S
C7309 H7315 0.959 . S
C7309 H7316 0.961 . S
C7309 H7317 0.960 . S
C7310 C7308 1.381 . S
C7310 C7311 1.394 . S
C7310 H7318 0.930 . S
C7311 C7310 1.394 . S
C7311 C7312 1.383 . S
C7311 H7319 0.929 . S
C7312 C7311 1.383 . S
C7312 C7313 1.377 . S
C7313 H7297 0.930 . S
C7313 C7312 1.377 . S
C7313 C7314 1.379 . S
C7314 H7298 0.931 . S
C7314 C7308 1.383 . S
C7314 C7313 1.379 . S
H7315 C7309 0.959 . S
H7316 C7309 0.961 . S
H7317 C7309 0.960 . S
H7318 C7310 0.930 . S
H7319 C7311 0.929 . S
H7320 C7328 0.929 . S
H7321 C7330 0.930 . S
H7322 C7332 0.930 . S
H7323 C7335 0.929 . S
H7324 C7338 0.930 . S
H7325 C7340 0.960 . S
H7326 C7340 0.960 . S
H7327 C7340 0.960 . S
C7328 H7320 0.929 . S
C7328 C7329 1.377 . S
C7328 C7330 1.384 . S
C7329 C7328 1.377 . S
C7329 C7335 1.390 . S
C7330 H7321 0.930 . S
C7330 C7328 1.384 . S
C7330 C7331 1.372 . S
C7331 C7330 1.372 . S
C7331 C7332 1.400 . S
C7331 C7336 1.490 . S
C7332 H7322 0.930 . S
C7332 C7331 1.400 . S
C7332 C7335 1.386 . S
H7333 C7349 0.930 . S
H7334 C7350 0.931 . S
C7335 H7323 0.929 . S
C7335 C7329 1.390 . S
C7335 C7332 1.386 . S
C7336 C7331 1.490 . S
C7336 C7338 1.395 . S
C7336 C7339 1.403 . S
H7337 C7343 0.930 . S
C7338 H7324 0.930 . S
C7338 C7336 1.395 . S
C7338 C7341 1.403 . S
C7339 C7336 1.403 . S
C7339 C7340 1.524 . S
C7339 C7343 1.400 . S
C7340 H7325 0.960 . S
C7340 H7326 0.960 . S
C7340 H7327 0.960 . S
C7340 C7339 1.524 . S
C7341 C7338 1.403 . S
C7341 C7342 1.392 . S
C7341 C7345 1.495 . S
C7342 C7341 1.392 . S
C7342 C7343 1.385 . S
C7342 C7344 1.478 . S
C7343 H7337 0.930 . S
C7343 C7339 1.400 . S
C7343 C7342 1.385 . S
C7344 C7342 1.478 . S
C7344 C7346 1.381 . S
C7344 C7350 1.383 . S
C7345 C7341 1.495 . S
C7345 H7351 0.959 . S
C7345 H7352 0.961 . S
C7345 H7353 0.960 . S
C7346 C7344 1.381 . S
C7346 C7347 1.394 . S
C7346 H7354 0.930 . S
C7347 C7346 1.394 . S
C7347 C7348 1.383 . S
C7347 H7355 0.929 . S
C7348 C7347 1.383 . S
C7348 C7349 1.377 . S
C7349 H7333 0.930 . S
C7349 C7348 1.377 . S
C7349 C7350 1.379 . S
C7350 H7334 0.931 . S
C7350 C7344 1.383 . S
C7350 C7349 1.379 . S
H7351 C7345 0.959 . S
H7352 C7345 0.961 . S
H7353 C7345 0.960 . S
H7354 C7346 0.930 . S
H7355 C7347 0.929 . S
H7356 C7364 0.929 . S
H7357 C7366 0.930 . S
H7358 C7368 0.930 . S
H7359 C7371 0.929 . S
H7360 C7374 0.930 . S
H7361 C7376 0.960 . S
H7362 C7376 0.960 . S
H7363 C7376 0.960 . S
C7364 H7356 0.929 . S
C7364 C7365 1.377 . S
C7364 C7366 1.384 . S
C7365 C7364 1.377 . S
C7365 C7371 1.390 . S
C7366 H7357 0.930 . S
C7366 C7364 1.384 . S
C7366 C7367 1.372 . S
C7367 C7366 1.372 . S
C7367 C7368 1.400 . S
C7367 C7372 1.490 . S
C7368 H7358 0.930 . S
C7368 C7367 1.400 . S
C7368 C7371 1.386 . S
H7369 C7385 0.930 . S
H7370 C7386 0.931 . S
C7371 H7359 0.929 . S
C7371 C7365 1.390 . S
C7371 C7368 1.386 . S
C7372 C7367 1.490 . S
C7372 C7374 1.395 . S
C7372 C7375 1.403 . S
H7373 C7379 0.930 . S
C7374 H7360 0.930 . S
C7374 C7372 1.395 . S
C7374 C7377 1.403 . S
C7375 C7372 1.403 . S
C7375 C7376 1.524 . S
C7375 C7379 1.400 . S
C7376 H7361 0.960 . S
C7376 H7362 0.960 . S
C7376 H7363 0.960 . S
C7376 C7375 1.524 . S
C7377 C7374 1.403 . S
C7377 C7378 1.392 . S
C7377 C7381 1.495 . S
C7378 C7377 1.392 . S
C7378 C7379 1.385 . S
C7378 C7380 1.478 . S
C7379 H7373 0.930 . S
C7379 C7375 1.400 . S
C7379 C7378 1.385 . S
C7380 C7378 1.478 . S
C7380 C7382 1.381 . S
C7380 C7386 1.383 . S
C7381 C7377 1.495 . S
C7381 H7387 0.959 . S
C7381 H7388 0.961 . S
C7381 H7389 0.960 . S
C7382 C7380 1.381 . S
C7382 C7383 1.394 . S
C7382 H7390 0.930 . S
C7383 C7382 1.394 . S
C7383 C7384 1.383 . S
C7383 H7391 0.929 . S
C7384 C7383 1.383 . S
C7384 C7385 1.377 . S
C7385 H7369 0.930 . S
C7385 C7384 1.377 . S
C7385 C7386 1.379 . S
C7386 H7370 0.931 . S
C7386 C7380 1.383 . S
C7386 C7385 1.379 . S
H7387 C7381 0.959 . S
H7388 C7381 0.961 . S
H7389 C7381 0.960 . S
H7390 C7382 0.930 . S
H7391 C7383 0.929 . S
H7392 C7400 0.929 . S
H7393 C7402 0.930 . S
H7394 C7404 0.930 . S
H7395 C7407 0.929 . S
H7396 C7410 0.930 . S
H7397 C7412 0.960 . S
H7398 C7412 0.960 . S
H7399 C7412 0.960 . S
C7400 H7392 0.929 . S
C7400 C7401 1.377 . S
C7400 C7402 1.384 . S
C7401 C7400 1.377 . S
C7401 C7407 1.390 . S
C7402 H7393 0.930 . S
C7402 C7400 1.384 . S
C7402 C7403 1.372 . S
C7403 C7402 1.372 . S
C7403 C7404 1.400 . S
C7403 C7408 1.490 . S
C7404 H7394 0.930 . S
C7404 C7403 1.400 . S
C7404 C7407 1.386 . S
H7405 C7421 0.930 . S
H7406 C7422 0.931 . S
C7407 H7395 0.929 . S
C7407 C7401 1.390 . S
C7407 C7404 1.386 . S
C7408 C7403 1.490 . S
C7408 C7410 1.395 . S
C7408 C7411 1.403 . S
H7409 C7415 0.930 . S
C7410 H7396 0.930 . S
C7410 C7408 1.395 . S
C7410 C7413 1.403 . S
C7411 C7408 1.403 . S
C7411 C7412 1.524 . S
C7411 C7415 1.400 . S
C7412 H7397 0.960 . S
C7412 H7398 0.960 . S
C7412 H7399 0.960 . S
C7412 C7411 1.524 . S
C7413 C7410 1.403 . S
C7413 C7414 1.392 . S
C7413 C7417 1.495 . S
C7414 C7413 1.392 . S
C7414 C7415 1.385 . S
C7414 C7416 1.478 . S
C7415 H7409 0.930 . S
C7415 C7411 1.400 . S
C7415 C7414 1.385 . S
C7416 C7414 1.478 . S
C7416 C7418 1.381 . S
C7416 C7422 1.383 . S
C7417 C7413 1.495 . S
C7417 H7423 0.959 . S
C7417 H7424 0.961 . S
C7417 H7425 0.960 . S
C7418 C7416 1.381 . S
C7418 C7419 1.394 . S
C7418 H7426 0.930 . S
C7419 C7418 1.394 . S
C7419 C7420 1.383 . S
C7419 H7427 0.929 . S
C7420 C7419 1.383 . S
C7420 C7421 1.377 . S
C7421 H7405 0.930 . S
C7421 C7420 1.377 . S
C7421 C7422 1.379 . S
C7422 H7406 0.931 . S
C7422 C7416 1.383 . S
C7422 C7421 1.379 . S
H7423 C7417 0.959 . S
H7424 C7417 0.961 . S
H7425 C7417 0.960 . S
H7426 C7418 0.930 . S
H7427 C7419 0.929 . S
H7428 C7436 0.929 . S
H7429 C7438 0.930 . S
H7430 C7440 0.930 . S
H7431 C7443 0.929 . S
H7432 C7446 0.930 . S
H7433 C7448 0.960 . S
H7434 C7448 0.960 . S
H7435 C7448 0.960 . S
C7436 H7428 0.929 . S
C7436 C7437 1.377 . S
C7436 C7438 1.384 . S
C7437 C7436 1.377 . S
C7437 C7443 1.390 . S
C7438 H7429 0.930 . S
C7438 C7436 1.384 . S
C7438 C7439 1.372 . S
C7439 C7438 1.372 . S
C7439 C7440 1.400 . S
C7439 C7444 1.490 . S
C7440 H7430 0.930 . S
C7440 C7439 1.400 . S
C7440 C7443 1.386 . S
H7441 C7457 0.930 . S
H7442 C7458 0.931 . S
C7443 H7431 0.929 . S
C7443 C7437 1.390 . S
C7443 C7440 1.386 . S
C7444 C7439 1.490 . S
C7444 C7446 1.395 . S
C7444 C7447 1.403 . S
H7445 C7451 0.930 . S
C7446 H7432 0.930 . S
C7446 C7444 1.395 . S
C7446 C7449 1.403 . S
C7447 C7444 1.403 . S
C7447 C7448 1.524 . S
C7447 C7451 1.400 . S
C7448 H7433 0.960 . S
C7448 H7434 0.960 . S
C7448 H7435 0.960 . S
C7448 C7447 1.524 . S
C7449 C7446 1.403 . S
C7449 C7450 1.392 . S
C7449 C7453 1.495 . S
C7450 C7449 1.392 . S
C7450 C7451 1.385 . S
C7450 C7452 1.478 . S
C7451 H7445 0.930 . S
C7451 C7447 1.400 . S
C7451 C7450 1.385 . S
C7452 C7450 1.478 . S
C7452 C7454 1.381 . S
C7452 C7458 1.383 . S
C7453 C7449 1.495 . S
C7453 H7459 0.959 . S
C7453 H7460 0.961 . S
C7453 H7461 0.960 . S
C7454 C7452 1.381 . S
C7454 C7455 1.394 . S
C7454 H7462 0.930 . S
C7455 C7454 1.394 . S
C7455 C7456 1.383 . S
C7455 H7463 0.929 . S
C7456 C7455 1.383 . S
C7456 C7457 1.377 . S
C7457 H7441 0.930 . S
C7457 C7456 1.377 . S
C7457 C7458 1.379 . S
C7458 H7442 0.931 . S
C7458 C7452 1.383 . S
C7458 C7457 1.379 . S
H7459 C7453 0.959 . S
H7460 C7453 0.961 . S
H7461 C7453 0.960 . S
H7462 C7454 0.930 . S
H7463 C7455 0.929 . S
H7464 C7472 0.929 . S
H7465 C7474 0.930 . S
H7466 C7476 0.930 . S
H7467 C7479 0.929 . S
H7468 C7482 0.930 . S
H7469 C7484 0.960 . S
H7470 C7484 0.960 . S
H7471 C7484 0.960 . S
C7472 H7464 0.929 . S
C7472 C7473 1.377 . S
C7472 C7474 1.384 . S
C7473 C7472 1.377 . S
C7473 C7479 1.390 . S
C7474 H7465 0.930 . S
C7474 C7472 1.384 . S
C7474 C7475 1.372 . S
C7475 C7474 1.372 . S
C7475 C7476 1.400 . S
C7475 C7480 1.490 . S
C7476 H7466 0.930 . S
C7476 C7475 1.400 . S
C7476 C7479 1.386 . S
H7477 C7493 0.930 . S
H7478 C7494 0.931 . S
C7479 H7467 0.929 . S
C7479 C7473 1.390 . S
C7479 C7476 1.386 . S
C7480 C7475 1.490 . S
C7480 C7482 1.395 . S
C7480 C7483 1.403 . S
H7481 C7487 0.930 . S
C7482 H7468 0.930 . S
C7482 C7480 1.395 . S
C7482 C7485 1.403 . S
C7483 C7480 1.403 . S
C7483 C7484 1.524 . S
C7483 C7487 1.400 . S
C7484 H7469 0.960 . S
C7484 H7470 0.960 . S
C7484 H7471 0.960 . S
C7484 C7483 1.524 . S
C7485 C7482 1.403 . S
C7485 C7486 1.392 . S
C7485 C7489 1.495 . S
C7486 C7485 1.392 . S
C7486 C7487 1.385 . S
C7486 C7488 1.478 . S
C7487 H7481 0.930 . S
C7487 C7483 1.400 . S
C7487 C7486 1.385 . S
C7488 C7486 1.478 . S
C7488 C7490 1.381 . S
C7488 C7494 1.383 . S
C7489 C7485 1.495 . S
C7489 H7495 0.959 . S
C7489 H7496 0.961 . S
C7489 H7497 0.960 . S
C7490 C7488 1.381 . S
C7490 C7491 1.394 . S
C7490 H7498 0.930 . S
C7491 C7490 1.394 . S
C7491 C7492 1.383 . S
C7491 H7499 0.929 . S
C7492 C7491 1.383 . S
C7492 C7493 1.377 . S
C7493 H7477 0.930 . S
C7493 C7492 1.377 . S
C7493 C7494 1.379 . S
C7494 H7478 0.931 . S
C7494 C7488 1.383 . S
C7494 C7493 1.379 . S
H7495 C7489 0.959 . S
H7496 C7489 0.961 . S
H7497 C7489 0.960 . S
H7498 C7490 0.930 . S
H7499 C7491 0.929 . S
H7500 C7508 0.929 . S
H7501 C7510 0.930 . S
H7502 C7512 0.930 . S
H7503 C7515 0.929 . S
H7504 C7518 0.930 . S
H7505 C7520 0.960 . S
H7506 C7520 0.960 . S
H7507 C7520 0.960 . S
C7508 H7500 0.929 . S
C7508 C7509 1.377 . S
C7508 C7510 1.384 . S
C7509 C7508 1.377 . S
C7509 C7515 1.390 . S
C7510 H7501 0.930 . S
C7510 C7508 1.384 . S
C7510 C7511 1.372 . S
C7511 C7510 1.372 . S
C7511 C7512 1.400 . S
C7511 C7516 1.490 . S
C7512 H7502 0.930 . S
C7512 C7511 1.400 . S
C7512 C7515 1.386 . S
H7513 C7529 0.930 . S
H7514 C7530 0.931 . S
C7515 H7503 0.929 . S
C7515 C7509 1.390 . S
C7515 C7512 1.386 . S
C7516 C7511 1.490 . S
C7516 C7518 1.395 . S
C7516 C7519 1.403 . S
H7517 C7523 0.930 . S
C7518 H7504 0.930 . S
C7518 C7516 1.395 . S
C7518 C7521 1.403 . S
C7519 C7516 1.403 . S
C7519 C7520 1.524 . S
C7519 C7523 1.400 . S
C7520 H7505 0.960 . S
C7520 H7506 0.960 . S
C7520 H7507 0.960 . S
C7520 C7519 1.524 . S
C7521 C7518 1.403 . S
C7521 C7522 1.392 . S
C7521 C7525 1.495 . S
C7522 C7521 1.392 . S
C7522 C7523 1.385 . S
C7522 C7524 1.478 . S
C7523 H7517 0.930 . S
C7523 C7519 1.400 . S
C7523 C7522 1.385 . S
C7524 C7522 1.478 . S
C7524 C7526 1.381 . S
C7524 C7530 1.383 . S
C7525 C7521 1.495 . S
C7525 H7531 0.959 . S
C7525 H7532 0.961 . S
C7525 H7533 0.960 . S
C7526 C7524 1.381 . S
C7526 C7527 1.394 . S
C7526 H7534 0.930 . S
C7527 C7526 1.394 . S
C7527 C7528 1.383 . S
C7527 H7535 0.929 . S
C7528 C7527 1.383 . S
C7528 C7529 1.377 . S
C7529 H7513 0.930 . S
C7529 C7528 1.377 . S
C7529 C7530 1.379 . S
C7530 H7514 0.931 . S
C7530 C7524 1.383 . S
C7530 C7529 1.379 . S
H7531 C7525 0.959 . S
H7532 C7525 0.961 . S
H7533 C7525 0.960 . S
H7534 C7526 0.930 . S
H7535 C7527 0.929 . S
H7536 C7544 0.929 . S
H7537 C7546 0.930 . S
H7538 C7548 0.930 . S
H7539 C7551 0.929 . S
H7540 C7554 0.930 . S
H7541 C7556 0.960 . S
H7542 C7556 0.960 . S
H7543 C7556 0.960 . S
C7544 H7536 0.929 . S
C7544 C7545 1.377 . S
C7544 C7546 1.384 . S
C7545 C7544 1.377 . S
C7545 C7551 1.390 . S
C7546 H7537 0.930 . S
C7546 C7544 1.384 . S
C7546 C7547 1.372 . S
C7547 C7546 1.372 . S
C7547 C7548 1.400 . S
C7547 C7552 1.490 . S
C7548 H7538 0.930 . S
C7548 C7547 1.400 . S
C7548 C7551 1.386 . S
H7549 C7565 0.930 . S
H7550 C7566 0.931 . S
C7551 H7539 0.929 . S
C7551 C7545 1.390 . S
C7551 C7548 1.386 . S
C7552 C7547 1.490 . S
C7552 C7554 1.395 . S
C7552 C7555 1.403 . S
H7553 C7559 0.930 . S
C7554 H7540 0.930 . S
C7554 C7552 1.395 . S
C7554 C7557 1.403 . S
C7555 C7552 1.403 . S
C7555 C7556 1.524 . S
C7555 C7559 1.400 . S
C7556 H7541 0.960 . S
C7556 H7542 0.960 . S
C7556 H7543 0.960 . S
C7556 C7555 1.524 . S
C7557 C7554 1.403 . S
C7557 C7558 1.392 . S
C7557 C7561 1.495 . S
C7558 C7557 1.392 . S
C7558 C7559 1.385 . S
C7558 C7560 1.478 . S
C7559 H7553 0.930 . S
C7559 C7555 1.400 . S
C7559 C7558 1.385 . S
C7560 C7558 1.478 . S
C7560 C7562 1.381 . S
C7560 C7566 1.383 . S
C7561 C7557 1.495 . S
C7561 H7567 0.959 . S
C7561 H7568 0.961 . S
C7561 H7569 0.960 . S
C7562 C7560 1.381 . S
C7562 C7563 1.394 . S
C7562 H7570 0.930 . S
C7563 C7562 1.394 . S
C7563 C7564 1.383 . S
C7563 H7571 0.929 . S
C7564 C7563 1.383 . S
C7564 C7565 1.377 . S
C7565 H7549 0.930 . S
C7565 C7564 1.377 . S
C7565 C7566 1.379 . S
C7566 H7550 0.931 . S
C7566 C7560 1.383 . S
C7566 C7565 1.379 . S
H7567 C7561 0.959 . S
H7568 C7561 0.961 . S
H7569 C7561 0.960 . S
H7570 C7562 0.930 . S
H7571 C7563 0.929 . S
H7572 C7580 0.929 . S
H7573 C7582 0.930 . S
H7574 C7584 0.930 . S
H7575 C7587 0.929 . S
H7576 C7590 0.930 . S
H7577 C7592 0.960 . S
H7578 C7592 0.960 . S
H7579 C7592 0.960 . S
C7580 H7572 0.929 . S
C7580 C7581 1.377 . S
C7580 C7582 1.384 . S
C7581 C7580 1.377 . S
C7581 C7587 1.390 . S
C7582 H7573 0.930 . S
C7582 C7580 1.384 . S
C7582 C7583 1.372 . S
C7583 C7582 1.372 . S
C7583 C7584 1.400 . S
C7583 C7588 1.490 . S
C7584 H7574 0.930 . S
C7584 C7583 1.400 . S
C7584 C7587 1.386 . S
H7585 C7601 0.930 . S
H7586 C7602 0.931 . S
C7587 H7575 0.929 . S
C7587 C7581 1.390 . S
C7587 C7584 1.386 . S
C7588 C7583 1.490 . S
C7588 C7590 1.395 . S
C7588 C7591 1.403 . S
H7589 C7595 0.930 . S
C7590 H7576 0.930 . S
C7590 C7588 1.395 . S
C7590 C7593 1.403 . S
C7591 C7588 1.403 . S
C7591 C7592 1.524 . S
C7591 C7595 1.400 . S
C7592 H7577 0.960 . S
C7592 H7578 0.960 . S
C7592 H7579 0.960 . S
C7592 C7591 1.524 . S
C7593 C7590 1.403 . S
C7593 C7594 1.392 . S
C7593 C7597 1.495 . S
C7594 C7593 1.392 . S
C7594 C7595 1.385 . S
C7594 C7596 1.478 . S
C7595 H7589 0.930 . S
C7595 C7591 1.400 . S
C7595 C7594 1.385 . S
C7596 C7594 1.478 . S
C7596 C7598 1.381 . S
C7596 C7602 1.383 . S
C7597 C7593 1.495 . S
C7597 H7603 0.959 . S
C7597 H7604 0.961 . S
C7597 H7605 0.960 . S
C7598 C7596 1.381 . S
C7598 C7599 1.394 . S
C7598 H7606 0.930 . S
C7599 C7598 1.394 . S
C7599 C7600 1.383 . S
C7599 H7607 0.929 . S
C7600 C7599 1.383 . S
C7600 C7601 1.377 . S
C7601 H7585 0.930 . S
C7601 C7600 1.377 . S
C7601 C7602 1.379 . S
C7602 H7586 0.931 . S
C7602 C7596 1.383 . S
C7602 C7601 1.379 . S
H7603 C7597 0.959 . S
H7604 C7597 0.961 . S
H7605 C7597 0.960 . S
H7606 C7598 0.930 . S
H7607 C7599 0.929 . S
H7608 C7616 0.929 . S
H7609 C7618 0.930 . S
H7610 C7620 0.930 . S
H7611 C7623 0.929 . S
H7612 C7626 0.930 . S
H7613 C7628 0.960 . S
H7614 C7628 0.960 . S
H7615 C7628 0.960 . S
C7616 H7608 0.929 . S
C7616 C7617 1.377 . S
C7616 C7618 1.384 . S
C7617 C7616 1.377 . S
C7617 C7623 1.390 . S
C7618 H7609 0.930 . S
C7618 C7616 1.384 . S
C7618 C7619 1.372 . S
C7619 C7618 1.372 . S
C7619 C7620 1.400 . S
C7619 C7624 1.490 . S
C7620 H7610 0.930 . S
C7620 C7619 1.400 . S
C7620 C7623 1.386 . S
H7621 C7637 0.930 . S
H7622 C7638 0.931 . S
C7623 H7611 0.929 . S
C7623 C7617 1.390 . S
C7623 C7620 1.386 . S
C7624 C7619 1.490 . S
C7624 C7626 1.395 . S
C7624 C7627 1.403 . S
H7625 C7631 0.930 . S
C7626 H7612 0.930 . S
C7626 C7624 1.395 . S
C7626 C7629 1.403 . S
C7627 C7624 1.403 . S
C7627 C7628 1.524 . S
C7627 C7631 1.400 . S
C7628 H7613 0.960 . S
C7628 H7614 0.960 . S
C7628 H7615 0.960 . S
C7628 C7627 1.524 . S
C7629 C7626 1.403 . S
C7629 C7630 1.392 . S
C7629 C7633 1.495 . S
C7630 C7629 1.392 . S
C7630 C7631 1.385 . S
C7630 C7632 1.478 . S
C7631 H7625 0.930 . S
C7631 C7627 1.400 . S
C7631 C7630 1.385 . S
C7632 C7630 1.478 . S
C7632 C7634 1.381 . S
C7632 C7638 1.383 . S
C7633 C7629 1.495 . S
C7633 H7639 0.959 . S
C7633 H7640 0.961 . S
C7633 H7641 0.960 . S
C7634 C7632 1.381 . S
C7634 C7635 1.394 . S
C7634 H7642 0.930 . S
C7635 C7634 1.394 . S
C7635 C7636 1.383 . S
C7635 H7643 0.929 . S
C7636 C7635 1.383 . S
C7636 C7637 1.377 . S
C7637 H7621 0.930 . S
C7637 C7636 1.377 . S
C7637 C7638 1.379 . S
C7638 H7622 0.931 . S
C7638 C7632 1.383 . S
C7638 C7637 1.379 . S
H7639 C7633 0.959 . S
H7640 C7633 0.961 . S
H7641 C7633 0.960 . S
H7642 C7634 0.930 . S
H7643 C7635 0.929 . S
H7644 C7652 0.929 . S
H7645 C7654 0.930 . S
H7646 C7656 0.930 . S
H7647 C7659 0.929 . S
H7648 C7662 0.930 . S
H7649 C7664 0.960 . S
H7650 C7664 0.960 . S
H7651 C7664 0.960 . S
C7652 H7644 0.929 . S
C7652 C7653 1.377 . S
C7652 C7654 1.384 . S
C7653 C7652 1.377 . S
C7653 C7659 1.390 . S
C7654 H7645 0.930 . S
C7654 C7652 1.384 . S
C7654 C7655 1.372 . S
C7655 C7654 1.372 . S
C7655 C7656 1.400 . S
C7655 C7660 1.490 . S
C7656 H7646 0.930 . S
C7656 C7655 1.400 . S
C7656 C7659 1.386 . S
H7657 C7673 0.930 . S
H7658 C7674 0.931 . S
C7659 H7647 0.929 . S
C7659 C7653 1.390 . S
C7659 C7656 1.386 . S
C7660 C7655 1.490 . S
C7660 C7662 1.395 . S
C7660 C7663 1.403 . S
H7661 C7667 0.930 . S
C7662 H7648 0.930 . S
C7662 C7660 1.395 . S
C7662 C7665 1.403 . S
C7663 C7660 1.403 . S
C7663 C7664 1.524 . S
C7663 C7667 1.400 . S
C7664 H7649 0.960 . S
C7664 H7650 0.960 . S
C7664 H7651 0.960 . S
C7664 C7663 1.524 . S
C7665 C7662 1.403 . S
C7665 C7666 1.392 . S
C7665 C7669 1.495 . S
C7666 C7665 1.392 . S
C7666 C7667 1.385 . S
C7666 C7668 1.478 . S
C7667 H7661 0.930 . S
C7667 C7663 1.400 . S
C7667 C7666 1.385 . S
C7668 C7666 1.478 . S
C7668 C7670 1.381 . S
C7668 C7674 1.383 . S
C7669 C7665 1.495 . S
C7669 H7675 0.959 . S
C7669 H7676 0.961 . S
C7669 H7677 0.960 . S
C7670 C7668 1.381 . S
C7670 C7671 1.394 . S
C7670 H7678 0.930 . S
C7671 C7670 1.394 . S
C7671 C7672 1.383 . S
C7671 H7679 0.929 . S
C7672 C7671 1.383 . S
C7672 C7673 1.377 . S
C7673 H7657 0.930 . S
C7673 C7672 1.377 . S
C7673 C7674 1.379 . S
C7674 H7658 0.931 . S
C7674 C7668 1.383 . S
C7674 C7673 1.379 . S
H7675 C7669 0.959 . S
H7676 C7669 0.961 . S
H7677 C7669 0.960 . S
H7678 C7670 0.930 . S
H7679 C7671 0.929 . S
H7680 C7688 0.929 . S
H7681 C7690 0.930 . S
H7682 C7692 0.930 . S
H7683 C7695 0.929 . S
H7684 C7698 0.930 . S
H7685 C7700 0.960 . S
H7686 C7700 0.960 . S
H7687 C7700 0.960 . S
C7688 H7680 0.929 . S
C7688 C7689 1.377 . S
C7688 C7690 1.384 . S
C7689 C7688 1.377 . S
C7689 C7695 1.390 . S
C7690 H7681 0.930 . S
C7690 C7688 1.384 . S
C7690 C7691 1.372 . S
C7691 C7690 1.372 . S
C7691 C7692 1.400 . S
C7691 C7696 1.490 . S
C7692 H7682 0.930 . S
C7692 C7691 1.400 . S
C7692 C7695 1.386 . S
H7693 C7709 0.930 . S
H7694 C7710 0.931 . S
C7695 H7683 0.929 . S
C7695 C7689 1.390 . S
C7695 C7692 1.386 . S
C7696 C7691 1.490 . S
C7696 C7698 1.395 . S
C7696 C7699 1.403 . S
H7697 C7703 0.930 . S
C7698 H7684 0.930 . S
C7698 C7696 1.395 . S
C7698 C7701 1.403 . S
C7699 C7696 1.403 . S
C7699 C7700 1.524 . S
C7699 C7703 1.400 . S
C7700 H7685 0.960 . S
C7700 H7686 0.960 . S
C7700 H7687 0.960 . S
C7700 C7699 1.524 . S
C7701 C7698 1.403 . S
C7701 C7702 1.392 . S
C7701 C7705 1.495 . S
C7702 C7701 1.392 . S
C7702 C7703 1.385 . S
C7702 C7704 1.478 . S
C7703 H7697 0.930 . S
C7703 C7699 1.400 . S
C7703 C7702 1.385 . S
C7704 C7702 1.478 . S
C7704 C7706 1.381 . S
C7704 C7710 1.383 . S
C7705 C7701 1.495 . S
C7705 H7711 0.959 . S
C7705 H7712 0.961 . S
C7705 H7713 0.960 . S
C7706 C7704 1.381 . S
C7706 C7707 1.394 . S
C7706 H7714 0.930 . S
C7707 C7706 1.394 . S
C7707 C7708 1.383 . S
C7707 H7715 0.929 . S
C7708 C7707 1.383 . S
C7708 C7709 1.377 . S
C7709 H7693 0.930 . S
C7709 C7708 1.377 . S
C7709 C7710 1.379 . S
C7710 H7694 0.931 . S
C7710 C7704 1.383 . S
C7710 C7709 1.379 . S
H7711 C7705 0.959 . S
H7712 C7705 0.961 . S
H7713 C7705 0.960 . S
H7714 C7706 0.930 . S
H7715 C7707 0.929 . S
H7716 C7724 0.929 . S
H7717 C7726 0.930 . S
H7718 C7728 0.930 . S
H7719 C7731 0.929 . S
H7720 C7734 0.930 . S
H7721 C7736 0.960 . S
H7722 C7736 0.960 . S
H7723 C7736 0.960 . S
C7724 H7716 0.929 . S
C7724 C7725 1.377 . S
C7724 C7726 1.384 . S
C7725 C7724 1.377 . S
C7725 C7731 1.390 . S
C7726 H7717 0.930 . S
C7726 C7724 1.384 . S
C7726 C7727 1.372 . S
C7727 C7726 1.372 . S
C7727 C7728 1.400 . S
C7727 C7732 1.490 . S
C7728 H7718 0.930 . S
C7728 C7727 1.400 . S
C7728 C7731 1.386 . S
H7729 C7745 0.930 . S
H7730 C7746 0.931 . S
C7731 H7719 0.929 . S
C7731 C7725 1.390 . S
C7731 C7728 1.386 . S
C7732 C7727 1.490 . S
C7732 C7734 1.395 . S
C7732 C7735 1.403 . S
H7733 C7739 0.930 . S
C7734 H7720 0.930 . S
C7734 C7732 1.395 . S
C7734 C7737 1.403 . S
C7735 C7732 1.403 . S
C7735 C7736 1.524 . S
C7735 C7739 1.400 . S
C7736 H7721 0.960 . S
C7736 H7722 0.960 . S
C7736 H7723 0.960 . S
C7736 C7735 1.524 . S
C7737 C7734 1.403 . S
C7737 C7738 1.392 . S
C7737 C7741 1.495 . S
C7738 C7737 1.392 . S
C7738 C7739 1.385 . S
C7738 C7740 1.478 . S
C7739 H7733 0.930 . S
C7739 C7735 1.400 . S
C7739 C7738 1.385 . S
C7740 C7738 1.478 . S
C7740 C7742 1.381 . S
C7740 C7746 1.383 . S
C7741 C7737 1.495 . S
C7741 H7747 0.959 . S
C7741 H7748 0.961 . S
C7741 H7749 0.960 . S
C7742 C7740 1.381 . S
C7742 C7743 1.394 . S
C7742 H7750 0.930 . S
C7743 C7742 1.394 . S
C7743 C7744 1.383 . S
C7743 H7751 0.929 . S
C7744 C7743 1.383 . S
C7744 C7745 1.377 . S
C7745 H7729 0.930 . S
C7745 C7744 1.377 . S
C7745 C7746 1.379 . S
C7746 H7730 0.931 . S
C7746 C7740 1.383 . S
C7746 C7745 1.379 . S
H7747 C7741 0.959 . S
H7748 C7741 0.961 . S
H7749 C7741 0.960 . S
H7750 C7742 0.930 . S
H7751 C7743 0.929 . S
H7752 C7760 0.929 . S
H7753 C7762 0.930 . S
H7754 C7764 0.930 . S
H7755 C7767 0.929 . S
H7756 C7770 0.930 . S
H7757 C7772 0.960 . S
H7758 C7772 0.960 . S
H7759 C7772 0.960 . S
C7760 H7752 0.929 . S
C7760 C7761 1.377 . S
C7760 C7762 1.384 . S
C7761 C7760 1.377 . S
C7761 C7767 1.390 . S
C7762 H7753 0.930 . S
C7762 C7760 1.384 . S
C7762 C7763 1.372 . S
C7763 C7762 1.372 . S
C7763 C7764 1.400 . S
C7763 C7768 1.490 . S
C7764 H7754 0.930 . S
C7764 C7763 1.400 . S
C7764 C7767 1.386 . S
H7765 C7781 0.930 . S
H7766 C7782 0.931 . S
C7767 H7755 0.929 . S
C7767 C7761 1.390 . S
C7767 C7764 1.386 . S
C7768 C7763 1.490 . S
C7768 C7770 1.395 . S
C7768 C7771 1.403 . S
H7769 C7775 0.930 . S
C7770 H7756 0.930 . S
C7770 C7768 1.395 . S
C7770 C7773 1.403 . S
C7771 C7768 1.403 . S
C7771 C7772 1.524 . S
C7771 C7775 1.400 . S
C7772 H7757 0.960 . S
C7772 H7758 0.960 . S
C7772 H7759 0.960 . S
C7772 C7771 1.524 . S
C7773 C7770 1.403 . S
C7773 C7774 1.392 . S
C7773 C7777 1.495 . S
C7774 C7773 1.392 . S
C7774 C7775 1.385 . S
C7774 C7776 1.478 . S
C7775 H7769 0.930 . S
C7775 C7771 1.400 . S
C7775 C7774 1.385 . S
C7776 C7774 1.478 . S
C7776 C7778 1.381 . S
C7776 C7782 1.383 . S
C7777 C7773 1.495 . S
C7777 H7783 0.959 . S
C7777 H7784 0.961 . S
C7777 H7785 0.960 . S
C7778 C7776 1.381 . S
C7778 C7779 1.394 . S
C7778 H7786 0.930 . S
C7779 C7778 1.394 . S
C7779 C7780 1.383 . S
C7779 H7787 0.929 . S
C7780 C7779 1.383 . S
C7780 C7781 1.377 . S
C7781 H7765 0.930 . S
C7781 C7780 1.377 . S
C7781 C7782 1.379 . S
C7782 H7766 0.931 . S
C7782 C7776 1.383 . S
C7782 C7781 1.379 . S
H7783 C7777 0.959 . S
H7784 C7777 0.961 . S
H7785 C7777 0.960 . S
H7786 C7778 0.930 . S
H7787 C7779 0.929 . S
H7788 C7796 0.929 . S
H7789 C7798 0.930 . S
H7790 C7800 0.930 . S
H7791 C7803 0.929 . S
H7792 C7806 0.930 . S
H7793 C7808 0.960 . S
H7794 C7808 0.960 . S
H7795 C7808 0.960 . S
C7796 H7788 0.929 . S
C7796 C7797 1.377 . S
C7796 C7798 1.384 . S
C7797 C7796 1.377 . S
C7797 C7803 1.390 . S
C7798 H7789 0.930 . S
C7798 C7796 1.384 . S
C7798 C7799 1.372 . S
C7799 C7798 1.372 . S
C7799 C7800 1.400 . S
C7799 C7804 1.490 . S
C7800 H7790 0.930 . S
C7800 C7799 1.400 . S
C7800 C7803 1.386 . S
H7801 C7817 0.930 . S
H7802 C7818 0.931 . S
C7803 H7791 0.929 . S
C7803 C7797 1.390 . S
C7803 C7800 1.386 . S
C7804 C7799 1.490 . S
C7804 C7806 1.395 . S
C7804 C7807 1.403 . S
H7805 C7811 0.930 . S
C7806 H7792 0.930 . S
C7806 C7804 1.395 . S
C7806 C7809 1.403 . S
C7807 C7804 1.403 . S
C7807 C7808 1.524 . S
C7807 C7811 1.400 . S
C7808 H7793 0.960 . S
C7808 H7794 0.960 . S
C7808 H7795 0.960 . S
C7808 C7807 1.524 . S
C7809 C7806 1.403 . S
C7809 C7810 1.392 . S
C7809 C7813 1.495 . S
C7810 C7809 1.392 . S
C7810 C7811 1.385 . S
C7810 C7812 1.478 . S
C7811 H7805 0.930 . S
C7811 C7807 1.400 . S
C7811 C7810 1.385 . S
C7812 C7810 1.478 . S
C7812 C7814 1.381 . S
C7812 C7818 1.383 . S
C7813 C7809 1.495 . S
C7813 H7819 0.959 . S
C7813 H7820 0.961 . S
C7813 H7821 0.960 . S
C7814 C7812 1.381 . S
C7814 C7815 1.394 . S
C7814 H7822 0.930 . S
C7815 C7814 1.394 . S
C7815 C7816 1.383 . S
C7815 H7823 0.929 . S
C7816 C7815 1.383 . S
C7816 C7817 1.377 . S
C7817 H7801 0.930 . S
C7817 C7816 1.377 . S
C7817 C7818 1.379 . S
C7818 H7802 0.931 . S
C7818 C7812 1.383 . S
C7818 C7817 1.379 . S
H7819 C7813 0.959 . S
H7820 C7813 0.961 . S
H7821 C7813 0.960 . S
H7822 C7814 0.930 . S
H7823 C7815 0.929 . S
H7824 C7832 0.929 . S
H7825 C7834 0.930 . S
H7826 C7836 0.930 . S
H7827 C7839 0.929 . S
H7828 C7842 0.930 . S
H7829 C7844 0.960 . S
H7830 C7844 0.960 . S
H7831 C7844 0.960 . S
C7832 H7824 0.929 . S
C7832 C7833 1.377 . S
C7832 C7834 1.384 . S
C7833 C7832 1.377 . S
C7833 C7839 1.390 . S
C7834 H7825 0.930 . S
C7834 C7832 1.384 . S
C7834 C7835 1.372 . S
C7835 C7834 1.372 . S
C7835 C7836 1.400 . S
C7835 C7840 1.490 . S
C7836 H7826 0.930 . S
C7836 C7835 1.400 . S
C7836 C7839 1.386 . S
H7837 C7853 0.930 . S
H7838 C7854 0.931 . S
C7839 H7827 0.929 . S
C7839 C7833 1.390 . S
C7839 C7836 1.386 . S
C7840 C7835 1.490 . S
C7840 C7842 1.395 . S
C7840 C7843 1.403 . S
H7841 C7847 0.930 . S
C7842 H7828 0.930 . S
C7842 C7840 1.395 . S
C7842 C7845 1.403 . S
C7843 C7840 1.403 . S
C7843 C7844 1.524 . S
C7843 C7847 1.400 . S
C7844 H7829 0.960 . S
C7844 H7830 0.960 . S
C7844 H7831 0.960 . S
C7844 C7843 1.524 . S
C7845 C7842 1.403 . S
C7845 C7846 1.392 . S
C7845 C7849 1.495 . S
C7846 C7845 1.392 . S
C7846 C7847 1.385 . S
C7846 C7848 1.478 . S
C7847 H7841 0.930 . S
C7847 C7843 1.400 . S
C7847 C7846 1.385 . S
C7848 C7846 1.478 . S
C7848 C7850 1.381 . S
C7848 C7854 1.383 . S
C7849 C7845 1.495 . S
C7849 H7855 0.959 . S
C7849 H7856 0.961 . S
C7849 H7857 0.960 . S
C7850 C7848 1.381 . S
C7850 C7851 1.394 . S
C7850 H7858 0.930 . S
C7851 C7850 1.394 . S
C7851 C7852 1.383 . S
C7851 H7859 0.929 . S
C7852 C7851 1.383 . S
C7852 C7853 1.377 . S
C7853 H7837 0.930 . S
C7853 C7852 1.377 . S
C7853 C7854 1.379 . S
C7854 H7838 0.931 . S
C7854 C7848 1.383 . S
C7854 C7853 1.379 . S
H7855 C7849 0.959 . S
H7856 C7849 0.961 . S
H7857 C7849 0.960 . S
H7858 C7850 0.930 . S
H7859 C7851 0.929 . S
H7860 C7868 0.929 . S
H7861 C7870 0.930 . S
H7862 C7872 0.930 . S
H7863 C7875 0.929 . S
H7864 C7878 0.930 . S
H7865 C7880 0.960 . S
H7866 C7880 0.960 . S
H7867 C7880 0.960 . S
C7868 H7860 0.929 . S
C7868 C7869 1.377 . S
C7868 C7870 1.384 . S
C7869 C7868 1.377 . S
C7869 C7875 1.390 . S
C7870 H7861 0.930 . S
C7870 C7868 1.384 . S
C7870 C7871 1.372 . S
C7871 C7870 1.372 . S
C7871 C7872 1.400 . S
C7871 C7876 1.490 . S
C7872 H7862 0.930 . S
C7872 C7871 1.400 . S
C7872 C7875 1.386 . S
H7873 C7889 0.930 . S
H7874 C7890 0.931 . S
C7875 H7863 0.929 . S
C7875 C7869 1.390 . S
C7875 C7872 1.386 . S
C7876 C7871 1.490 . S
C7876 C7878 1.395 . S
C7876 C7879 1.403 . S
H7877 C7883 0.930 . S
C7878 H7864 0.930 . S
C7878 C7876 1.395 . S
C7878 C7881 1.403 . S
C7879 C7876 1.403 . S
C7879 C7880 1.524 . S
C7879 C7883 1.400 . S
C7880 H7865 0.960 . S
C7880 H7866 0.960 . S
C7880 H7867 0.960 . S
C7880 C7879 1.524 . S
C7881 C7878 1.403 . S
C7881 C7882 1.392 . S
C7881 C7885 1.495 . S
C7882 C7881 1.392 . S
C7882 C7883 1.385 . S
C7882 C7884 1.478 . S
C7883 H7877 0.930 . S
C7883 C7879 1.400 . S
C7883 C7882 1.385 . S
C7884 C7882 1.478 . S
C7884 C7886 1.381 . S
C7884 C7890 1.383 . S
C7885 C7881 1.495 . S
C7885 H7891 0.959 . S
C7885 H7892 0.961 . S
C7885 H7893 0.960 . S
C7886 C7884 1.381 . S
C7886 C7887 1.394 . S
C7886 H7894 0.930 . S
C7887 C7886 1.394 . S
C7887 C7888 1.383 . S
C7887 H7895 0.929 . S
C7888 C7887 1.383 . S
C7888 C7889 1.377 . S
C7889 H7873 0.930 . S
C7889 C7888 1.377 . S
C7889 C7890 1.379 . S
C7890 H7874 0.931 . S
C7890 C7884 1.383 . S
C7890 C7889 1.379 . S
H7891 C7885 0.959 . S
H7892 C7885 0.961 . S
H7893 C7885 0.960 . S
H7894 C7886 0.930 . S
H7895 C7887 0.929 . S
H7896 C7904 0.929 . S
H7897 C7906 0.930 . S
H7898 C7908 0.930 . S
H7899 C7911 0.929 . S
H7900 C7914 0.930 . S
H7901 C7916 0.960 . S
H7902 C7916 0.960 . S
H7903 C7916 0.960 . S
C7904 H7896 0.929 . S
C7904 C7905 1.377 . S
C7904 C7906 1.384 . S
C7905 C7904 1.377 . S
C7905 C7911 1.390 . S
C7906 H7897 0.930 . S
C7906 C7904 1.384 . S
C7906 C7907 1.372 . S
C7907 C7906 1.372 . S
C7907 C7908 1.400 . S
C7907 C7912 1.490 . S
C7908 H7898 0.930 . S
C7908 C7907 1.400 . S
C7908 C7911 1.386 . S
H7909 C7925 0.930 . S
H7910 C7926 0.931 . S
C7911 H7899 0.929 . S
C7911 C7905 1.390 . S
C7911 C7908 1.386 . S
C7912 C7907 1.490 . S
C7912 C7914 1.395 . S
C7912 C7915 1.403 . S
H7913 C7919 0.930 . S
C7914 H7900 0.930 . S
C7914 C7912 1.395 . S
C7914 C7917 1.403 . S
C7915 C7912 1.403 . S
C7915 C7916 1.524 . S
C7915 C7919 1.400 . S
C7916 H7901 0.960 . S
C7916 H7902 0.960 . S
C7916 H7903 0.960 . S
C7916 C7915 1.524 . S
C7917 C7914 1.403 . S
C7917 C7918 1.392 . S
C7917 C7921 1.495 . S
C7918 C7917 1.392 . S
C7918 C7919 1.385 . S
C7918 C7920 1.478 . S
C7919 H7913 0.930 . S
C7919 C7915 1.400 . S
C7919 C7918 1.385 . S
C7920 C7918 1.478 . S
C7920 C7922 1.381 . S
C7920 C7926 1.383 . S
C7921 C7917 1.495 . S
C7921 H7927 0.959 . S
C7921 H7928 0.961 . S
C7921 H7929 0.960 . S
C7922 C7920 1.381 . S
C7922 C7923 1.394 . S
C7922 H7930 0.930 . S
C7923 C7922 1.394 . S
C7923 C7924 1.383 . S
C7923 H7931 0.929 . S
C7924 C7923 1.383 . S
C7924 C7925 1.377 . S
C7925 H7909 0.930 . S
C7925 C7924 1.377 . S
C7925 C7926 1.379 . S
C7926 H7910 0.931 . S
C7926 C7920 1.383 . S
C7926 C7925 1.379 . S
H7927 C7921 0.959 . S
H7928 C7921 0.961 . S
H7929 C7921 0.960 . S
H7930 C7922 0.930 . S
H7931 C7923 0.929 . S
H7932 C7940 0.929 . S
H7933 C7942 0.930 . S
H7934 C7944 0.930 . S
H7935 C7947 0.929 . S
H7936 C7950 0.930 . S
H7937 C7952 0.960 . S
H7938 C7952 0.960 . S
H7939 C7952 0.960 . S
C7940 H7932 0.929 . S
C7940 C7941 1.377 . S
C7940 C7942 1.384 . S
C7941 C7940 1.377 . S
C7941 C7947 1.390 . S
C7942 H7933 0.930 . S
C7942 C7940 1.384 . S
C7942 C7943 1.372 . S
C7943 C7942 1.372 . S
C7943 C7944 1.400 . S
C7943 C7948 1.490 . S
C7944 H7934 0.930 . S
C7944 C7943 1.400 . S
C7944 C7947 1.386 . S
H7945 C7961 0.930 . S
H7946 C7962 0.931 . S
C7947 H7935 0.929 . S
C7947 C7941 1.390 . S
C7947 C7944 1.386 . S
C7948 C7943 1.490 . S
C7948 C7950 1.395 . S
C7948 C7951 1.403 . S
H7949 C7955 0.930 . S
C7950 H7936 0.930 . S
C7950 C7948 1.395 . S
C7950 C7953 1.403 . S
C7951 C7948 1.403 . S
C7951 C7952 1.524 . S
C7951 C7955 1.400 . S
C7952 H7937 0.960 . S
C7952 H7938 0.960 . S
C7952 H7939 0.960 . S
C7952 C7951 1.524 . S
C7953 C7950 1.403 . S
C7953 C7954 1.392 . S
C7953 C7957 1.495 . S
C7954 C7953 1.392 . S
C7954 C7955 1.385 . S
C7954 C7956 1.478 . S
C7955 H7949 0.930 . S
C7955 C7951 1.400 . S
C7955 C7954 1.385 . S
C7956 C7954 1.478 . S
C7956 C7958 1.381 . S
C7956 C7962 1.383 . S
C7957 C7953 1.495 . S
C7957 H7963 0.959 . S
C7957 H7964 0.961 . S
C7957 H7965 0.960 . S
C7958 C7956 1.381 . S
C7958 C7959 1.394 . S
C7958 H7966 0.930 . S
C7959 C7958 1.394 . S
C7959 C7960 1.383 . S
C7959 H7967 0.929 . S
C7960 C7959 1.383 . S
C7960 C7961 1.377 . S
C7961 H7945 0.930 . S
C7961 C7960 1.377 . S
C7961 C7962 1.379 . S
C7962 H7946 0.931 . S
C7962 C7956 1.383 . S
C7962 C7961 1.379 . S
H7963 C7957 0.959 . S
H7964 C7957 0.961 . S
H7965 C7957 0.960 . S
H7966 C7958 0.930 . S
H7967 C7959 0.929 . S
H7968 C7976 0.929 . S
H7969 C7978 0.930 . S
H7970 C7980 0.930 . S
H7971 C7983 0.929 . S
H7972 C7986 0.930 . S
H7973 C7988 0.960 . S
H7974 C7988 0.960 . S
H7975 C7988 0.960 . S
C7976 H7968 0.929 . S
C7976 C7977 1.377 . S
C7976 C7978 1.384 . S
C7977 C7976 1.377 . S
C7977 C7983 1.390 . S
C7978 H7969 0.930 . S
C7978 C7976 1.384 . S
C7978 C7979 1.372 . S
C7979 C7978 1.372 . S
C7979 C7980 1.400 . S
C7979 C7984 1.490 . S
C7980 H7970 0.930 . S
C7980 C7979 1.400 . S
C7980 C7983 1.386 . S
H7981 C7997 0.930 . S
H7982 C7998 0.931 . S
C7983 H7971 0.929 . S
C7983 C7977 1.390 . S
C7983 C7980 1.386 . S
C7984 C7979 1.490 . S
C7984 C7986 1.395 . S
C7984 C7987 1.403 . S
H7985 C7991 0.930 . S
C7986 H7972 0.930 . S
C7986 C7984 1.395 . S
C7986 C7989 1.403 . S
C7987 C7984 1.403 . S
C7987 C7988 1.524 . S
C7987 C7991 1.400 . S
C7988 H7973 0.960 . S
C7988 H7974 0.960 . S
C7988 H7975 0.960 . S
C7988 C7987 1.524 . S
C7989 C7986 1.403 . S
C7989 C7990 1.392 . S
C7989 C7993 1.495 . S
C7990 C7989 1.392 . S
C7990 C7991 1.385 . S
C7990 C7992 1.478 . S
C7991 H7985 0.930 . S
C7991 C7987 1.400 . S
C7991 C7990 1.385 . S
C7992 C7990 1.478 . S
C7992 C7994 1.381 . S
C7992 C7998 1.383 . S
C7993 C7989 1.495 . S
C7993 H7999 0.959 . S
C7993 H8000 0.961 . S
C7993 H8001 0.960 . S
C7994 C7992 1.381 . S
C7994 C7995 1.394 . S
C7994 H8002 0.930 . S
C7995 C7994 1.394 . S
C7995 C7996 1.383 . S
C7995 H8003 0.929 . S
C7996 C7995 1.383 . S
C7996 C7997 1.377 . S
C7997 H7981 0.930 . S
C7997 C7996 1.377 . S
C7997 C7998 1.379 . S
C7998 H7982 0.931 . S
C7998 C7992 1.383 . S
C7998 C7997 1.379 . S
H7999 C7993 0.959 . S
H8000 C7993 0.961 . S
H8001 C7993 0.960 . S
H8002 C7994 0.930 . S
H8003 C7995 0.929 . S
H8004 C8012 0.929 . S
H8005 C8014 0.930 . S
H8006 C8016 0.930 . S
H8007 C8019 0.929 . S
H8008 C8022 0.930 . S
H8009 C8024 0.960 . S
H8010 C8024 0.960 . S
H8011 C8024 0.960 . S
C8012 H8004 0.929 . S
C8012 C8013 1.377 . S
C8012 C8014 1.384 . S
C8013 C8012 1.377 . S
C8013 C8019 1.390 . S
C8014 H8005 0.930 . S
C8014 C8012 1.384 . S
C8014 C8015 1.372 . S
C8015 C8014 1.372 . S
C8015 C8016 1.400 . S
C8015 C8020 1.490 . S
C8016 H8006 0.930 . S
C8016 C8015 1.400 . S
C8016 C8019 1.386 . S
H8017 C8033 0.930 . S
H8018 C8034 0.931 . S
C8019 H8007 0.929 . S
C8019 C8013 1.390 . S
C8019 C8016 1.386 . S
C8020 C8015 1.490 . S
C8020 C8022 1.395 . S
C8020 C8023 1.403 . S
H8021 C8027 0.930 . S
C8022 H8008 0.930 . S
C8022 C8020 1.395 . S
C8022 C8025 1.403 . S
C8023 C8020 1.403 . S
C8023 C8024 1.524 . S
C8023 C8027 1.400 . S
C8024 H8009 0.960 . S
C8024 H8010 0.960 . S
C8024 H8011 0.960 . S
C8024 C8023 1.524 . S
C8025 C8022 1.403 . S
C8025 C8026 1.392 . S
C8025 C8029 1.495 . S
C8026 C8025 1.392 . S
C8026 C8027 1.385 . S
C8026 C8028 1.478 . S
C8027 H8021 0.930 . S
C8027 C8023 1.400 . S
C8027 C8026 1.385 . S
C8028 C8026 1.478 . S
C8028 C8030 1.381 . S
C8028 C8034 1.383 . S
C8029 C8025 1.495 . S
C8029 H8035 0.959 . S
C8029 H8036 0.961 . S
C8029 H8037 0.960 . S
C8030 C8028 1.381 . S
C8030 C8031 1.394 . S
C8030 H8038 0.930 . S
C8031 C8030 1.394 . S
C8031 C8032 1.383 . S
C8031 H8039 0.929 . S
C8032 C8031 1.383 . S
C8032 C8033 1.377 . S
C8033 H8017 0.930 . S
C8033 C8032 1.377 . S
C8033 C8034 1.379 . S
C8034 H8018 0.931 . S
C8034 C8028 1.383 . S
C8034 C8033 1.379 . S
H8035 C8029 0.959 . S
H8036 C8029 0.961 . S
H8037 C8029 0.960 . S
H8038 C8030 0.930 . S
H8039 C8031 0.929 . S
H8040 C8048 0.929 . S
H8041 C8050 0.930 . S
H8042 C8052 0.930 . S
H8043 C8055 0.929 . S
H8044 C8058 0.930 . S
H8045 C8060 0.960 . S
H8046 C8060 0.960 . S
H8047 C8060 0.960 . S
C8048 H8040 0.929 . S
C8048 C8049 1.377 . S
C8048 C8050 1.384 . S
C8049 C8048 1.377 . S
C8049 C8055 1.390 . S
C8050 H8041 0.930 . S
C8050 C8048 1.384 . S
C8050 C8051 1.372 . S
C8051 C8050 1.372 . S
C8051 C8052 1.400 . S
C8051 C8056 1.490 . S
C8052 H8042 0.930 . S
C8052 C8051 1.400 . S
C8052 C8055 1.386 . S
H8053 C8069 0.930 . S
H8054 C8070 0.931 . S
C8055 H8043 0.929 . S
C8055 C8049 1.390 . S
C8055 C8052 1.386 . S
C8056 C8051 1.490 . S
C8056 C8058 1.395 . S
C8056 C8059 1.403 . S
H8057 C8063 0.930 . S
C8058 H8044 0.930 . S
C8058 C8056 1.395 . S
C8058 C8061 1.403 . S
C8059 C8056 1.403 . S
C8059 C8060 1.524 . S
C8059 C8063 1.400 . S
C8060 H8045 0.960 . S
C8060 H8046 0.960 . S
C8060 H8047 0.960 . S
C8060 C8059 1.524 . S
C8061 C8058 1.403 . S
C8061 C8062 1.392 . S
C8061 C8065 1.495 . S
C8062 C8061 1.392 . S
C8062 C8063 1.385 . S
C8062 C8064 1.478 . S
C8063 H8057 0.930 . S
C8063 C8059 1.400 . S
C8063 C8062 1.385 . S
C8064 C8062 1.478 . S
C8064 C8066 1.381 . S
C8064 C8070 1.383 . S
C8065 C8061 1.495 . S
C8065 H8071 0.959 . S
C8065 H8072 0.961 . S
C8065 H8073 0.960 . S
C8066 C8064 1.381 . S
C8066 C8067 1.394 . S
C8066 H8074 0.930 . S
C8067 C8066 1.394 . S
C8067 C8068 1.383 . S
C8067 H8075 0.929 . S
C8068 C8067 1.383 . S
C8068 C8069 1.377 . S
C8069 H8053 0.930 . S
C8069 C8068 1.377 . S
C8069 C8070 1.379 . S
C8070 H8054 0.931 . S
C8070 C8064 1.383 . S
C8070 C8069 1.379 . S
H8071 C8065 0.959 . S
H8072 C8065 0.961 . S
H8073 C8065 0.960 . S
H8074 C8066 0.930 . S
H8075 C8067 0.929 . S
H8076 C8084 0.929 . S
H8077 C8086 0.930 . S
H8078 C8088 0.930 . S
H8079 C8091 0.929 . S
H8080 C8094 0.930 . S
H8081 C8096 0.960 . S
H8082 C8096 0.960 . S
H8083 C8096 0.960 . S
C8084 H8076 0.929 . S
C8084 C8085 1.377 . S
C8084 C8086 1.384 . S
C8085 C8084 1.377 . S
C8085 C8091 1.390 . S
C8086 H8077 0.930 . S
C8086 C8084 1.384 . S
C8086 C8087 1.372 . S
C8087 C8086 1.372 . S
C8087 C8088 1.400 . S
C8087 C8092 1.490 . S
C8088 H8078 0.930 . S
C8088 C8087 1.400 . S
C8088 C8091 1.386 . S
H8089 C8105 0.930 . S
H8090 C8106 0.931 . S
C8091 H8079 0.929 . S
C8091 C8085 1.390 . S
C8091 C8088 1.386 . S
C8092 C8087 1.490 . S
C8092 C8094 1.395 . S
C8092 C8095 1.403 . S
H8093 C8099 0.930 . S
C8094 H8080 0.930 . S
C8094 C8092 1.395 . S
C8094 C8097 1.403 . S
C8095 C8092 1.403 . S
C8095 C8096 1.524 . S
C8095 C8099 1.400 . S
C8096 H8081 0.960 . S
C8096 H8082 0.960 . S
C8096 H8083 0.960 . S
C8096 C8095 1.524 . S
C8097 C8094 1.403 . S
C8097 C8098 1.392 . S
C8097 C8101 1.495 . S
C8098 C8097 1.392 . S
C8098 C8099 1.385 . S
C8098 C8100 1.478 . S
C8099 H8093 0.930 . S
C8099 C8095 1.400 . S
C8099 C8098 1.385 . S
C8100 C8098 1.478 . S
C8100 C8102 1.381 . S
C8100 C8106 1.383 . S
C8101 C8097 1.495 . S
C8101 H8107 0.959 . S
C8101 H8108 0.961 . S
C8101 H8109 0.960 . S
C8102 C8100 1.381 . S
C8102 C8103 1.394 . S
C8102 H8110 0.930 . S
C8103 C8102 1.394 . S
C8103 C8104 1.383 . S
C8103 H8111 0.929 . S
C8104 C8103 1.383 . S
C8104 C8105 1.377 . S
C8105 H8089 0.930 . S
C8105 C8104 1.377 . S
C8105 C8106 1.379 . S
C8106 H8090 0.931 . S
C8106 C8100 1.383 . S
C8106 C8105 1.379 . S
H8107 C8101 0.959 . S
H8108 C8101 0.961 . S
H8109 C8101 0.960 . S
H8110 C8102 0.930 . S
H8111 C8103 0.929 . S
H8112 C8120 0.929 . S
H8113 C8122 0.930 . S
H8114 C8124 0.930 . S
H8115 C8127 0.929 . S
H8116 C8130 0.930 . S
H8117 C8132 0.960 . S
H8118 C8132 0.960 . S
H8119 C8132 0.960 . S
C8120 H8112 0.929 . S
C8120 C8121 1.377 . S
C8120 C8122 1.384 . S
C8121 C8120 1.377 . S
C8121 C8127 1.390 . S
C8122 H8113 0.930 . S
C8122 C8120 1.384 . S
C8122 C8123 1.372 . S
C8123 C8122 1.372 . S
C8123 C8124 1.400 . S
C8123 C8128 1.490 . S
C8124 H8114 0.930 . S
C8124 C8123 1.400 . S
C8124 C8127 1.386 . S
H8125 C8141 0.930 . S
H8126 C8142 0.931 . S
C8127 H8115 0.929 . S
C8127 C8121 1.390 . S
C8127 C8124 1.386 . S
C8128 C8123 1.490 . S
C8128 C8130 1.395 . S
C8128 C8131 1.403 . S
H8129 C8135 0.930 . S
C8130 H8116 0.930 . S
C8130 C8128 1.395 . S
C8130 C8133 1.403 . S
C8131 C8128 1.403 . S
C8131 C8132 1.524 . S
C8131 C8135 1.400 . S
C8132 H8117 0.960 . S
C8132 H8118 0.960 . S
C8132 H8119 0.960 . S
C8132 C8131 1.524 . S
C8133 C8130 1.403 . S
C8133 C8134 1.392 . S
C8133 C8137 1.495 . S
C8134 C8133 1.392 . S
C8134 C8135 1.385 . S
C8134 C8136 1.478 . S
C8135 H8129 0.930 . S
C8135 C8131 1.400 . S
C8135 C8134 1.385 . S
C8136 C8134 1.478 . S
C8136 C8138 1.381 . S
C8136 C8142 1.383 . S
C8137 C8133 1.495 . S
C8137 H8143 0.959 . S
C8137 H8144 0.961 . S
C8137 H8145 0.960 . S
C8138 C8136 1.381 . S
C8138 C8139 1.394 . S
C8138 H8146 0.930 . S
C8139 C8138 1.394 . S
C8139 C8140 1.383 . S
C8139 H8147 0.929 . S
C8140 C8139 1.383 . S
C8140 C8141 1.377 . S
C8141 H8125 0.930 . S
C8141 C8140 1.377 . S
C8141 C8142 1.379 . S
C8142 H8126 0.931 . S
C8142 C8136 1.383 . S
C8142 C8141 1.379 . S
H8143 C8137 0.959 . S
H8144 C8137 0.961 . S
H8145 C8137 0.960 . S
H8146 C8138 0.930 . S
H8147 C8139 0.929 . S
H8148 C8156 0.929 . S
H8149 C8158 0.930 . S
H8150 C8160 0.930 . S
H8151 C8163 0.929 . S
H8152 C8166 0.930 . S
H8153 C8168 0.960 . S
H8154 C8168 0.960 . S
H8155 C8168 0.960 . S
C8156 H8148 0.929 . S
C8156 C8157 1.377 . S
C8156 C8158 1.384 . S
C8157 C8156 1.377 . S
C8157 C8163 1.390 . S
C8158 H8149 0.930 . S
C8158 C8156 1.384 . S
C8158 C8159 1.372 . S
C8159 C8158 1.372 . S
C8159 C8160 1.400 . S
C8159 C8164 1.490 . S
C8160 H8150 0.930 . S
C8160 C8159 1.400 . S
C8160 C8163 1.386 . S
H8161 C8177 0.930 . S
H8162 C8178 0.931 . S
C8163 H8151 0.929 . S
C8163 C8157 1.390 . S
C8163 C8160 1.386 . S
C8164 C8159 1.490 . S
C8164 C8166 1.395 . S
C8164 C8167 1.403 . S
H8165 C8171 0.930 . S
C8166 H8152 0.930 . S
C8166 C8164 1.395 . S
C8166 C8169 1.403 . S
C8167 C8164 1.403 . S
C8167 C8168 1.524 . S
C8167 C8171 1.400 . S
C8168 H8153 0.960 . S
C8168 H8154 0.960 . S
C8168 H8155 0.960 . S
C8168 C8167 1.524 . S
C8169 C8166 1.403 . S
C8169 C8170 1.392 . S
C8169 C8173 1.495 . S
C8170 C8169 1.392 . S
C8170 C8171 1.385 . S
C8170 C8172 1.478 . S
C8171 H8165 0.930 . S
C8171 C8167 1.400 . S
C8171 C8170 1.385 . S
C8172 C8170 1.478 . S
C8172 C8174 1.381 . S
C8172 C8178 1.383 . S
C8173 C8169 1.495 . S
C8173 H8179 0.959 . S
C8173 H8180 0.961 . S
C8173 H8181 0.960 . S
C8174 C8172 1.381 . S
C8174 C8175 1.394 . S
C8174 H8182 0.930 . S
C8175 C8174 1.394 . S
C8175 C8176 1.383 . S
C8175 H8183 0.929 . S
C8176 C8175 1.383 . S
C8176 C8177 1.377 . S
C8177 H8161 0.930 . S
C8177 C8176 1.377 . S
C8177 C8178 1.379 . S
C8178 H8162 0.931 . S
C8178 C8172 1.383 . S
C8178 C8177 1.379 . S
H8179 C8173 0.959 . S
H8180 C8173 0.961 . S
H8181 C8173 0.960 . S
H8182 C8174 0.930 . S
H8183 C8175 0.929 . S
H8184 C8192 0.929 . S
H8185 C8194 0.930 . S
H8186 C8196 0.930 . S
H8187 C8199 0.929 . S
H8188 C8202 0.930 . S
H8189 C8204 0.960 . S
H8190 C8204 0.960 . S
H8191 C8204 0.960 . S
C8192 H8184 0.929 . S
C8192 C8193 1.377 . S
C8192 C8194 1.384 . S
C8193 C8192 1.377 . S
C8193 C8199 1.390 . S
C8194 H8185 0.930 . S
C8194 C8192 1.384 . S
C8194 C8195 1.372 . S
C8195 C8194 1.372 . S
C8195 C8196 1.400 . S
C8195 C8200 1.490 . S
C8196 H8186 0.930 . S
C8196 C8195 1.400 . S
C8196 C8199 1.386 . S
H8197 C8213 0.930 . S
H8198 C8214 0.931 . S
C8199 H8187 0.929 . S
C8199 C8193 1.390 . S
C8199 C8196 1.386 . S
C8200 C8195 1.490 . S
C8200 C8202 1.395 . S
C8200 C8203 1.403 . S
H8201 C8207 0.930 . S
C8202 H8188 0.930 . S
C8202 C8200 1.395 . S
C8202 C8205 1.403 . S
C8203 C8200 1.403 . S
C8203 C8204 1.524 . S
C8203 C8207 1.400 . S
C8204 H8189 0.960 . S
C8204 H8190 0.960 . S
C8204 H8191 0.960 . S
C8204 C8203 1.524 . S
C8205 C8202 1.403 . S
C8205 C8206 1.392 . S
C8205 C8209 1.495 . S
C8206 C8205 1.392 . S
C8206 C8207 1.385 . S
C8206 C8208 1.478 . S
C8207 H8201 0.930 . S
C8207 C8203 1.400 . S
C8207 C8206 1.385 . S
C8208 C8206 1.478 . S
C8208 C8210 1.381 . S
C8208 C8214 1.383 . S
C8209 C8205 1.495 . S
C8209 H8215 0.959 . S
C8209 H8216 0.961 . S
C8209 H8217 0.960 . S
C8210 C8208 1.381 . S
C8210 C8211 1.394 . S
C8210 H8218 0.930 . S
C8211 C8210 1.394 . S
C8211 C8212 1.383 . S
C8211 H8219 0.929 . S
C8212 C8211 1.383 . S
C8212 C8213 1.377 . S
C8213 H8197 0.930 . S
C8213 C8212 1.377 . S
C8213 C8214 1.379 . S
C8214 H8198 0.931 . S
C8214 C8208 1.383 . S
C8214 C8213 1.379 . S
H8215 C8209 0.959 . S
H8216 C8209 0.961 . S
H8217 C8209 0.960 . S
H8218 C8210 0.930 . S
H8219 C8211 0.929 . S
H8220 C8228 0.929 . S
H8221 C8230 0.930 . S
H8222 C8232 0.930 . S
H8223 C8235 0.929 . S
H8224 C8238 0.930 . S
H8225 C8240 0.960 . S
H8226 C8240 0.960 . S
H8227 C8240 0.960 . S
C8228 H8220 0.929 . S
C8228 C8229 1.377 . S
C8228 C8230 1.384 . S
C8229 C8228 1.377 . S
C8229 C8235 1.390 . S
C8230 H8221 0.930 . S
C8230 C8228 1.384 . S
C8230 C8231 1.372 . S
C8231 C8230 1.372 . S
C8231 C8232 1.400 . S
C8231 C8236 1.490 . S
C8232 H8222 0.930 . S
C8232 C8231 1.400 . S
C8232 C8235 1.386 . S
H8233 C8249 0.930 . S
H8234 C8250 0.931 . S
C8235 H8223 0.929 . S
C8235 C8229 1.390 . S
C8235 C8232 1.386 . S
C8236 C8231 1.490 . S
C8236 C8238 1.395 . S
C8236 C8239 1.403 . S
H8237 C8243 0.930 . S
C8238 H8224 0.930 . S
C8238 C8236 1.395 . S
C8238 C8241 1.403 . S
C8239 C8236 1.403 . S
C8239 C8240 1.524 . S
C8239 C8243 1.400 . S
C8240 H8225 0.960 . S
C8240 H8226 0.960 . S
C8240 H8227 0.960 . S
C8240 C8239 1.524 . S
C8241 C8238 1.403 . S
C8241 C8242 1.392 . S
C8241 C8245 1.495 . S
C8242 C8241 1.392 . S
C8242 C8243 1.385 . S
C8242 C8244 1.478 . S
C8243 H8237 0.930 . S
C8243 C8239 1.400 . S
C8243 C8242 1.385 . S
C8244 C8242 1.478 . S
C8244 C8246 1.381 . S
C8244 C8250 1.383 . S
C8245 C8241 1.495 . S
C8245 H8251 0.959 . S
C8245 H8252 0.961 . S
C8245 H8253 0.960 . S
C8246 C8244 1.381 . S
C8246 C8247 1.394 . S
C8246 H8254 0.930 . S
C8247 C8246 1.394 . S
C8247 C8248 1.383 . S
C8247 H8255 0.929 . S
C8248 C8247 1.383 . S
C8248 C8249 1.377 . S
C8249 H8233 0.930 . S
C8249 C8248 1.377 . S
C8249 C8250 1.379 . S
C8250 H8234 0.931 . S
C8250 C8244 1.383 . S
C8250 C8249 1.379 . S
H8251 C8245 0.959 . S
H8252 C8245 0.961 . S
H8253 C8245 0.960 . S
H8254 C8246 0.930 . S
H8255 C8247 0.929 . S
C1353 C7 1.318 . S
C1372 C427 1.303 . S
C1389 C777 1.310 . S
C1408 C21 1.331 . S
C1425 C35 1.310 . S
C1444 C399 1.332 . S
C1461 C49 1.310 . S
C1480 C749 1.335 . S
C1497 C371 1.319 . S
C1516 C63 1.295 . S
C1533 C77 1.319 . S
C1552 C721 1.302 . S
C1569 C343 1.320 . S
C1588 C91 1.290 . S
C1605 C105 1.310 . S
C1624 C693 1.328 . S
C1641 C483 1.318 . S
C1660 C119 1.307 . S
C1677 C133 1.318 . S
C1696 C833 1.290 . S
C1713 C147 1.311 . S
C1732 C455 1.320 . S
C1749 C161 1.312 . S
C1768 C805 1.312 . S
C1785 C175 1.311 . S
C1804 C539 1.324 . S
C1821 C889 1.312 . S
C1840 C189 1.312 . S
C1857 C511 1.319 . S
C1876 C203 1.288 . S
C1893 C217 1.318 . S
C1912 C861 1.290 . S
C1929 C917 1.314 . S
C1948 C231 1.304 . S
C1965 C903 1.314 . S
C1984 C245 1.324 . S
C2001 C259 1.313 . S
C2020 C1001 1.311 . S
C2037 C1309 1.310 . S
C2056 C273 1.336 . S
C2073 C651 1.317 . S
C2092 C287 1.294 . S
C2109 C301 1.316 . S
C2128 C1281 1.317 . S
C2145 C315 1.313 . S
C2164 C623 1.311 . S
C2181 C329 1.320 . S
C2200 C931 1.293 . S
C2217 C357 1.311 . S
C2236 C1113 1.318 . S
C2253 C385 1.314 . S
C2272 C1085 1.326 . S
C2289 C413 1.313 . S
C2308 C1057 1.330 . S
C2325 C441 1.317 . S
C2344 C1029 1.292 . S
C2361 C1169 1.319 . S
C2380 C469 1.289 . S
C2397 C497 1.316 . S
C2416 C1141 1.316 . S
C2433 C1225 1.312 . S
C2452 C525 1.313 . S
C2469 C553 1.318 . S
C2488 C1197 1.290 . S
C2505 C567 1.319 . S
C2524 C1253 1.297 . S
C2541 C581 1.319 . S
C2560 C1239 1.302 . S
C2577 C595 1.319 . S
C2596 C1337 1.297 . S
C2613 C973 1.312 . S
C2632 C609 1.312 . S
C2649 C945 1.319 . S
C2668 C637 1.297 . S
C2685 C665 1.319 . S
C2704 C1267 1.294 . S
C2721 C679 1.317 . S
C2740 C1099 1.314 . S
C2757 C1071 1.313 . S
C2776 C707 1.311 . S
C2793 C735 1.316 . S
C2812 C1043 1.319 . S
C2829 C763 1.319 . S
C2848 C1015 1.289 . S
C2865 C1155 1.314 . S
C2884 C791 1.325 . S
C2901 C1127 1.319 . S
C2920 C819 1.289 . S
C2937 C847 1.320 . S
C2956 C1211 1.289 . S
C2973 C1183 1.312 . S
C2992 C875 1.317 . S
C3009 C959 1.314 . S
C3028 C1323 1.305 . S
C3045 C987 1.311 . S
C3064 C1295 1.335 . S
C3081 C8 1.293 . S
C3100 C778 1.278 . S
C3117 C22 1.291 . S
C3136 C400 1.294 . S
C3153 C36 1.291 . S
C3172 C750 1.285 . S
C3189 C428 1.296 . S
C3208 C50 1.284 . S
C3225 C64 1.294 . S
C3244 C358 1.304 . S
C3261 C78 1.293 . S
C3280 C708 1.278 . S
C3297 C92 1.295 . S
C3316 C386 1.280 . S
C3333 C680 1.295 . S
C3352 C106 1.303 . S
C3369 C120 1.291 . S
C3388 C288 1.289 . S
C3405 C134 1.291 . S
C3424 C1254 1.286 . S
C3441 C1268 1.294 . S
C3460 C148 1.304 . S
C3477 C162 1.294 . S
C3496 C1282 1.304 . S
C3513 C1002 1.291 . S
C3532 C176 1.285 . S
C3549 C1310 1.294 . S
C3568 C190 1.279 . S
C3585 C204 1.292 . S
C3604 C988 1.280 . S
C3621 C904 1.293 . S
C3640 C218 1.301 . S
C3657 C890 1.295 . S
C3676 C232 1.280 . S
C3693 C1142 1.296 . S
C3712 C246 1.286 . S
C3729 C260 1.296 . S
C3748 C1156 1.297 . S
C3765 C274 1.292 . S
C3784 C1170 1.298 . S
C3801 C302 1.296 . S
C3820 C1198 1.285 . S
C3837 C316 1.295 . S
C3856 C876 1.304 . S
C3873 C848 1.296 . S
C3892 C330 1.290 . S
C3909 C344 1.293 . S
C3928 C1114 1.278 . S
C3945 C1086 1.294 . S
C3964 C372 1.304 . S
C3981 C1044 1.292 . S
C4000 C414 1.279 . S
C4017 C442 1.292 . S
C4036 C1016 1.300 . S
C4053 C456 1.295 . S
C4072 C624 1.304 . S
C4089 C470 1.296 . S
C4108 C918 1.286 . S
C4125 C484 1.291 . S
C4144 C932 1.286 . S
C4161 C498 1.296 . S
C4180 C946 1.297 . S
C4197 C512 1.292 . S
C4216 C1338 1.296 . S
C4233 C974 1.295 . S
C4252 C526 1.282 . S
C4269 C1324 1.295 . S
C4288 C540 1.304 . S
C4305 C1240 1.293 . S
C4324 C554 1.303 . S
C4341 C1226 1.296 . S
C4360 C568 1.287 . S
C4377 C582 1.292 . S
C4396 C806 1.297 . S
C4413 C596 1.291 . S
C4432 C820 1.282 . S
C4449 C610 1.294 . S
C4468 C834 1.303 . S
C4485 C862 1.294 . S
C4504 C638 1.304 . S
C4521 C1212 1.291 . S
C4540 C652 1.284 . S
C4557 C1184 1.296 . S
C4576 C666 1.295 . S
C4593 C694 1.295 . S
C4612 C1072 1.283 . S
C4629 C722 1.295 . S
C4648 C1100 1.303 . S
C4665 C1030 1.291 . S
C4684 C736 1.292 . S
C4701 C1058 1.295 . S
C4720 C764 1.303 . S
C4737 C960 1.293 . S
C4756 C792 1.278 . S
C4773 C1296 1.291 . S
C4792 C1128 1.286 . S
C4809 C9 0.951 . S
C4828 C1305 1.003 . S
C4845 C23 0.939 . S
C4864 C983 1.000 . S
C4881 C899 0.999 . S
C4900 C37 0.891 . S
C4917 C997 0.997 . S
C4936 C51 0.888 . S
C4953 C65 0.956 . S
C4972 C269 1.018 . S
C4989 C79 0.944 . S
C5008 C1291 0.992 . S
C5025 C241 1.004 . S
C5044 C93 0.958 . S
C5061 C255 0.998 . S
C5080 C107 0.883 . S
C5097 C395 1.000 . S
C5116 C121 0.896 . S
C5133 C135 0.956 . S
C5152 C745 1.017 . S
C5169 C149 0.945 . S
C5188 C423 1.010 . S
C5205 C163 0.953 . S
C5224 C773 1.007 . S
C5241 C339 1.004 . S
C5260 C177 0.990 . S
C5277 C191 0.948 . S
C5296 C689 1.014 . S
C5313 C367 1.000 . S
C5332 C205 0.901 . S
C5349 C219 0.949 . S
C5368 C717 1.000 . S
C5385 C233 0.951 . S
C5404 C1207 1.004 . S
C5421 C479 0.997 . S
C5440 C247 0.889 . S
C5457 C261 0.956 . S
C5476 C829 1.019 . S
C5493 C451 0.999 . S
C5512 C275 0.929 . S
C5529 C289 0.932 . S
C5548 C465 0.985 . S
C5565 C843 0.997 . S
C5584 C303 0.886 . S
C5601 C185 0.998 . S
C5620 C317 0.883 . S
C5637 C213 0.998 . S
C5656 C331 0.883 . S
C5673 C969 1.001 . S
C5692 C345 0.915 . S
C5709 C359 0.941 . S
C5728 C1319 1.004 . S
C5745 C1235 1.001 . S
C5764 C373 0.962 . S
C5781 C387 0.938 . S
C5800 C1333 0.998 . S
C5817 C605 1.001 . S
C5836 C401 0.915 . S
C5853 C955 1.005 . S
C5872 C415 0.986 . S
C5889 C429 0.940 . S
C5908 C577 0.986 . S
C5925 C443 0.948 . S
C5944 C591 1.014 . S
C5961 C457 0.953 . S
C5980 C59 1.019 . S
C5997 C471 0.935 . S
C6016 C1081 0.992 . S
C6033 C87 1.005 . S
C6052 C485 0.999 . S
C6069 C499 0.950 . S
C6088 C1109 1.002 . S
C6105 C3 0.997 . S
C6124 C513 0.885 . S
C6141 C527 0.932 . S
C6160 C1025 0.980 . S
C6177 C31 0.999 . S
C6196 C541 0.889 . S
C6213 C1053 1.005 . S
C6232 C555 0.976 . S
C6249 C569 0.932 . S
C6268 C871 0.985 . S
C6285 C583 0.937 . S
C6304 C143 0.997 . S
C6321 C1165 1.004 . S
C6340 C597 0.952 . S
C6357 C611 0.955 . S
C6376 C115 1.012 . S
C6393 C129 0.997 . S
C6412 C625 0.901 . S
C6429 C639 0.940 . S
C6448 C1179 1.001 . S
C6465 C521 0.997 . S
C6484 C653 0.888 . S
C6501 C667 0.935 . S
C6520 C549 0.993 . S
C6537 C633 0.997 . S
C6556 C681 0.883 . S
C6573 C695 0.941 . S
C6592 C311 0.987 . S
C6609 C709 0.936 . S
C6628 C227 0.994 . S
C6645 C723 0.935 . S
C6664 C325 0.992 . S
C6681 C737 0.956 . S
C6700 C941 1.018 . S
C6717 C619 0.997 . S
C6736 C751 0.894 . S
C6753 C913 1.006 . S
C6772 C765 0.995 . S
C6789 C779 0.953 . S
C6808 C927 1.019 . S
C6825 C1067 0.998 . S
C6844 C793 0.904 . S
C6861 C73 0.998 . S
C6880 C807 0.883 . S
C6897 C1095 1.005 . S
C6916 C821 1.001 . S
C6933 C835 0.933 . S
C6952 C101 0.988 . S
C6969 C1011 1.003 . S
C6988 C849 0.989 . S
C7005 C863 0.954 . S
C7024 C17 1.009 . S
C7041 C1039 1.005 . S
C7060 C877 0.977 . S
C7077 C45 0.999 . S
C7096 C891 0.936 . S
C7113 C535 1.005 . S
C7132 C905 0.982 . S
C7149 C919 0.952 . S
C7168 C1151 1.018 . S
C7185 C933 0.944 . S
C7204 C157 0.992 . S
C7221 C1123 0.999 . S
C7240 C947 0.897 . S
C7257 C961 0.933 . S
C7276 C1137 0.979 . S
C7293 C171 0.997 . S
C7312 C975 0.887 . S
C7329 C857 1.002 . S
C7348 C989 0.969 . S
C7365 C1003 0.952 . S
C7384 C885 1.019 . S
C7401 C1017 0.938 . S
C7420 C297 0.998 . S
C7437 C647 0.999 . S
C7456 C1031 0.889 . S
C7473 C563 1.006 . S
C7492 C1045 0.990 . S
C7509 C1059 0.953 . S
C7528 C661 1.007 . S
C7545 C1073 0.937 . S
C7564 C1277 0.983 . S
C7581 C283 1.005 . S
C7600 C1087 1.001 . S
C7617 C1249 0.997 . S
C7636 C1101 0.884 . S
C7653 C1263 0.999 . S
C7672 C1115 0.888 . S
C7689 C731 1.001 . S
C7708 C1129 0.910 . S
C7725 C1143 0.936 . S
C7744 C409 0.995 . S
C7761 C1157 0.938 . S
C7780 C759 0.999 . S
C7797 C1171 0.932 . S
C7816 C437 0.980 . S
C7833 C675 1.005 . S
C7852 C1185 1.001 . S
C7869 C1199 0.954 . S
C7888 C353 1.011 . S
C7905 C1213 0.956 . S
C7924 C703 1.020 . S
C7941 C1227 0.956 . S
C7960 C381 1.016 . S
C7977 C199 1.003 . S
C7996 C1241 0.944 . S
C8013 C1255 0.938 . S
C8032 C815 0.999 . S
C8049 C1269 0.941 . S
C8068 C493 0.987 . S
C8085 C1283 0.933 . S
C8104 C787 0.980 . S
C8121 C1297 0.956 . S
C8140 C801 1.019 . S
C8157 C507 1.005 . S
C8176 C1311 1.001 . S
C8193 C1193 1.005 . S
C8212 C1325 1.001 . S
C8229 C1221 1.000 . S
C8248 C1339 0.900 . S
