# Generated by pormake.
# Topology utm, (3)-cn, num edge types: 1
# Building blocks:
#     Node 0, Type 0, BuildingBlock: OLANEW_clean_sbu_2, # of connection points: 3
#     Node 1, Type 0, BuildingBlock: OLANEW_clean_sbu_2, # of connection points: 3
#     Node 2, Type 0, BuildingBlock: OLANEW_clean_sbu_2, # of connection points: 3
#     Node 3, Type 0, BuildingBlock: OLANEW_clean_sbu_2, # of connection points: 3
#     Node 4, Type 0, BuildingBlock: OLANEW_clean_sbu_2, # of connection points: 3
#     Node 5, Type 0, BuildingBlock: OLANEW_clean_sbu_2, # of connection points: 3
#     Node 6, Type 0, BuildingBlock: OLANEW_clean_sbu_2, # of connection points: 3
#     Node 7, Type 0, BuildingBlock: OLANEW_clean_sbu_2, # of connection points: 3
#     Node 8, Type 0, BuildingBlock: OLANEW_clean_sbu_2, # of connection points: 3
#     Node 9, Type 0, BuildingBlock: OLANEW_clean_sbu_2, # of connection points: 3
#     Node 10, Type 0, BuildingBlock: OLANEW_clean_sbu_2, # of connection points: 3
#     Node 11, Type 0, BuildingBlock: OLANEW_clean_sbu_2, # of connection points: 3
#     Node 12, Type 0, BuildingBlock: OLANEW_clean_sbu_2, # of connection points: 3
#     Node 13, Type 0, BuildingBlock: OLANEW_clean_sbu_2, # of connection points: 3
#     Node 14, Type 0, BuildingBlock: OLANEW_clean_sbu_2, # of connection points: 3
#     Node 15, Type 0, BuildingBlock: OLANEW_clean_sbu_2, # of connection points: 3
#     Node 16, Type 0, BuildingBlock: OLANEW_clean_sbu_2, # of connection points: 3
#     Node 17, Type 0, BuildingBlock: OLANEW_clean_sbu_2, # of connection points: 3
#     Node 18, Type 0, BuildingBlock: OLANEW_clean_sbu_2, # of connection points: 3
#     Node 19, Type 0, BuildingBlock: OLANEW_clean_sbu_2, # of connection points: 3
#     Node 20, Type 0, BuildingBlock: OLANEW_clean_sbu_2, # of connection points: 3
#     Node 21, Type 0, BuildingBlock: OLANEW_clean_sbu_2, # of connection points: 3
#     Node 22, Type 0, BuildingBlock: OLANEW_clean_sbu_2, # of connection points: 3
#     Node 23, Type 0, BuildingBlock: OLANEW_clean_sbu_2, # of connection points: 3
#     Node 24, Type 0, BuildingBlock: OLANEW_clean_sbu_2, # of connection points: 3
#     Node 25, Type 0, BuildingBlock: OLANEW_clean_sbu_2, # of connection points: 3
#     Node 26, Type 0, BuildingBlock: OLANEW_clean_sbu_2, # of connection points: 3
#     Node 27, Type 0, BuildingBlock: OLANEW_clean_sbu_2, # of connection points: 3
#     Node 28, Type 0, BuildingBlock: OLANEW_clean_sbu_2, # of connection points: 3
#     Node 29, Type 0, BuildingBlock: OLANEW_clean_sbu_2, # of connection points: 3
#     Node 30, Type 0, BuildingBlock: OLANEW_clean_sbu_2, # of connection points: 3
#     Node 31, Type 0, BuildingBlock: OLANEW_clean_sbu_2, # of connection points: 3
#     Edge 32, Type (0, 0), BuildingBlock: KIFKEQ_clean_linker_1, # of connection points: 2
#     Edge 33, Type (0, 0), BuildingBlock: KIFKEQ_clean_linker_1, # of connection points: 2
#     Edge 34, Type (0, 0), BuildingBlock: KIFKEQ_clean_linker_1, # of connection points: 2
#     Edge 35, Type (0, 0), BuildingBlock: KIFKEQ_clean_linker_1, # of connection points: 2
#     Edge 36, Type (0, 0), BuildingBlock: KIFKEQ_clean_linker_1, # of connection points: 2
#     Edge 37, Type (0, 0), BuildingBlock: KIFKEQ_clean_linker_1, # of connection points: 2
#     Edge 38, Type (0, 0), BuildingBlock: KIFKEQ_clean_linker_1, # of connection points: 2
#     Edge 39, Type (0, 0), BuildingBlock: KIFKEQ_clean_linker_1, # of connection points: 2
#     Edge 40, Type (0, 0), BuildingBlock: KIFKEQ_clean_linker_1, # of connection points: 2
#     Edge 41, Type (0, 0), BuildingBlock: KIFKEQ_clean_linker_1, # of connection points: 2
#     Edge 42, Type (0, 0), BuildingBlock: KIFKEQ_clean_linker_1, # of connection points: 2
#     Edge 43, Type (0, 0), BuildingBlock: KIFKEQ_clean_linker_1, # of connection points: 2
#     Edge 44, Type (0, 0), BuildingBlock: KIFKEQ_clean_linker_1, # of connection points: 2
#     Edge 45, Type (0, 0), BuildingBlock: KIFKEQ_clean_linker_1, # of connection points: 2
#     Edge 46, Type (0, 0), BuildingBlock: KIFKEQ_clean_linker_1, # of connection points: 2
#     Edge 47, Type (0, 0), BuildingBlock: KIFKEQ_clean_linker_1, # of connection points: 2
#     Edge 48, Type (0, 0), BuildingBlock: KIFKEQ_clean_linker_1, # of connection points: 2
#     Edge 49, Type (0, 0), BuildingBlock: KIFKEQ_clean_linker_1, # of connection points: 2
#     Edge 50, Type (0, 0), BuildingBlock: KIFKEQ_clean_linker_1, # of connection points: 2
#     Edge 51, Type (0, 0), BuildingBlock: KIFKEQ_clean_linker_1, # of connection points: 2
#     Edge 52, Type (0, 0), BuildingBlock: KIFKEQ_clean_linker_1, # of connection points: 2
#     Edge 53, Type (0, 0), BuildingBlock: KIFKEQ_clean_linker_1, # of connection points: 2
#     Edge 54, Type (0, 0), BuildingBlock: KIFKEQ_clean_linker_1, # of connection points: 2
#     Edge 55, Type (0, 0), BuildingBlock: KIFKEQ_clean_linker_1, # of connection points: 2
#     Edge 56, Type (0, 0), BuildingBlock: KIFKEQ_clean_linker_1, # of connection points: 2
#     Edge 57, Type (0, 0), BuildingBlock: KIFKEQ_clean_linker_1, # of connection points: 2
#     Edge 58, Type (0, 0), BuildingBlock: KIFKEQ_clean_linker_1, # of connection points: 2
#     Edge 59, Type (0, 0), BuildingBlock: KIFKEQ_clean_linker_1, # of connection points: 2
#     Edge 60, Type (0, 0), BuildingBlock: KIFKEQ_clean_linker_1, # of connection points: 2
#     Edge 61, Type (0, 0), BuildingBlock: KIFKEQ_clean_linker_1, # of connection points: 2
#     Edge 62, Type (0, 0), BuildingBlock: KIFKEQ_clean_linker_1, # of connection points: 2
#     Edge 63, Type (0, 0), BuildingBlock: KIFKEQ_clean_linker_1, # of connection points: 2
#     Edge 64, Type (0, 0), BuildingBlock: KIFKEQ_clean_linker_1, # of connection points: 2
#     Edge 65, Type (0, 0), BuildingBlock: KIFKEQ_clean_linker_1, # of connection points: 2
#     Edge 66, Type (0, 0), BuildingBlock: KIFKEQ_clean_linker_1, # of connection points: 2
#     Edge 67, Type (0, 0), BuildingBlock: KIFKEQ_clean_linker_1, # of connection points: 2
#     Edge 68, Type (0, 0), BuildingBlock: KIFKEQ_clean_linker_1, # of connection points: 2
#     Edge 69, Type (0, 0), BuildingBlock: KIFKEQ_clean_linker_1, # of connection points: 2
#     Edge 70, Type (0, 0), BuildingBlock: KIFKEQ_clean_linker_1, # of connection points: 2
#     Edge 71, Type (0, 0), BuildingBlock: KIFKEQ_clean_linker_1, # of connection points: 2
#     Edge 72, Type (0, 0), BuildingBlock: KIFKEQ_clean_linker_1, # of connection points: 2
#     Edge 73, Type (0, 0), BuildingBlock: KIFKEQ_clean_linker_1, # of connection points: 2
#     Edge 74, Type (0, 0), BuildingBlock: KIFKEQ_clean_linker_1, # of connection points: 2
#     Edge 75, Type (0, 0), BuildingBlock: KIFKEQ_clean_linker_1, # of connection points: 2
#     Edge 76, Type (0, 0), BuildingBlock: KIFKEQ_clean_linker_1, # of connection points: 2
#     Edge 77, Type (0, 0), BuildingBlock: KIFKEQ_clean_linker_1, # of connection points: 2
#     Edge 78, Type (0, 0), BuildingBlock: KIFKEQ_clean_linker_1, # of connection points: 2
#     Edge 79, Type (0, 0), BuildingBlock: KIFKEQ_clean_linker_1, # of connection points: 2
# Relax obj value: 0.000
# Max RMSD: 0.047
# Mean RMSD: 0.047
data_MOF--net-utm--node1-OLANEW_clean_sbu_2--edge1-KIFKEQ_clean_linker_1
_symmetry_space_group_name_H-M    P1
_symmetry_Int_Tables_number       1
_symmetry_cell_setting            triclinic
loop_
_symmetry_equiv_pos_as_xyz
'x, y, z'
_cell_length_a     84.73276
_cell_length_b     84.758218
_cell_length_c     50.483767
_cell_angle_alpha  89.977642
_cell_angle_beta   89.956726
_cell_angle_gamma 89.830727
loop_
_atom_site_label
_atom_site_type_symbol
_atom_site_fract_x
_atom_site_fract_y
_atom_site_fract_z
_atom_type_partial_charge
O0 O 0.20408 0.27147 0.09316 0.0
Cd1 Cd 0.18918 0.27411 0.13441 0.0
O2 O 0.19787 0.2954 0.07959 0.0
Cd3 Cd 0.17995 0.30075 0.10933 0.0
O4 O 0.15852 0.31398 0.11893 0.0
C5 C 0.14844 0.31535 0.10042 0.0
O6 O 0.15117 0.30822 0.07776 0.0
C7 C 0.20549 0.28259 0.07642 0.0
C8 C 0.2068 0.26216 0.17676 0.0
O9 O 0.19678 0.25351 0.16455 0.0
O10 O 0.20835 0.2765 0.16913 0.0
O11 O 0.94622 0.9408 0.28821 0.0
Cd12 Cd 0.94579 0.92205 0.32516 0.0
O13 O 0.925 0.95354 0.30158 0.0
Cd14 Cd 0.91902 0.93582 0.33113 0.0
O15 O 0.90713 0.91659 0.35165 0.0
C16 C 0.90098 0.90589 0.33741 0.0
O17 O 0.90253 0.90673 0.31154 0.0
C18 C 0.93654 0.95219 0.28561 0.0
C19 C 0.95893 0.93567 0.37042 0.0
O20 O 0.96762 0.92878 0.35312 0.0
O21 O 0.94399 0.93594 0.36652 0.0
O22 O 0.2779 0.71 0.60072 0.0
Cd23 Cd 0.29649 0.71029 0.63773 0.0
O24 O 0.26741 0.68786 0.61501 0.0
Cd25 Cd 0.28705 0.68239 0.64138 0.0
O26 O 0.30846 0.66892 0.64975 0.0
C27 C 0.3182 0.66734 0.63076 0.0
O28 O 0.31522 0.6745 0.6082 0.0
C29 C 0.26726 0.69949 0.59907 0.0
C30 C 0.28341 0.72724 0.67982 0.0
O31 O 0.29301 0.73381 0.6636 0.0
O32 O 0.2802 0.71263 0.67637 0.0
O33 O 0.52936 0.01674 0.81267 0.0
Cd34 Cd 0.53503 0.02976 0.85472 0.0
O35 O 0.5404 0.03487 0.78758 0.0
Cd36 Cd 0.54856 0.04984 0.81987 0.0
O37 O 0.5643 0.06742 0.83704 0.0
C38 C 0.5695 0.07785 0.8212 0.0
O39 O 0.5647 0.07765 0.79646 0.0
C40 C 0.53303 0.0219 0.78984 0.0
C41 C 0.51737 0.01568 0.89493 0.0
O42 O 0.51232 0.02803 0.88295 0.0
O43 O 0.53087 0.01014 0.88818 0.0
O44 O 0.19697 0.68946 0.42347 0.0
Cd45 Cd 0.18131 0.68415 0.38383 0.0
O46 O 0.17705 0.68679 0.45107 0.0
Cd47 Cd 0.1609 0.67767 0.42119 0.0
O48 O 0.14457 0.66071 0.40384 0.0
C49 C 0.12975 0.6624 0.40662 0.0
O50 O 0.12433 0.675 0.4188 0.0
C51 C 0.19147 0.69011 0.44688 0.0
C52 C 0.19529 0.69878 0.34025 0.0
O53 O 0.18556 0.70624 0.35517 0.0
O54 O 0.19822 0.68429 0.34565 0.0
O55 O 0.51172 0.94171 0.62733 0.0
Cd56 Cd 0.50988 0.92398 0.58937 0.0
O57 O 0.53734 0.94491 0.6229 0.0
Cd58 Cd 0.54084 0.92461 0.59696 0.0
O59 O 0.55393 0.90262 0.59123 0.0
C60 C 0.55524 0.89371 0.61138 0.0
O61 O 0.54799 0.89776 0.63339 0.0
C62 C 0.52439 0.94863 0.63401 0.0
C63 C 0.49637 0.94058 0.54725 0.0
O64 O 0.48778 0.93323 0.56409 0.0
O65 O 0.5114 0.9398 0.54999 0.0
O66 O 0.28808 0.26519 0.91529 0.0
Cd67 Cd 0.30542 0.26344 0.87665 0.0
O68 O 0.27647 0.28667 0.90042 0.0
Cd69 Cd 0.29522 0.29173 0.87207 0.0
O70 O 0.31581 0.3052 0.85937 0.0
C71 C 0.32653 0.30752 0.87653 0.0
O72 O 0.32502 0.30106 0.90006 0.0
C73 C 0.27723 0.27551 0.91721 0.0
C74 C 0.2886 0.25057 0.83429 0.0
O75 O 0.29586 0.24171 0.8509 0.0
O76 O 0.28952 0.26554 0.83742 0.0
O77 O 0.95457 0.03041 0.11853 0.0
Cd78 Cd 0.95706 0.04826 0.08073 0.0
O79 O 0.92993 0.03681 0.12763 0.0
Cd80 Cd 0.92716 0.05659 0.10033 0.0
O81 O 0.91354 0.07818 0.09363 0.0
C82 C 0.9109 0.08663 0.11397 0.0
O83 O 0.91718 0.08237 0.13669 0.0
C84 C 0.94211 0.02845 0.13217 0.0
C85 C 0.97523 0.03407 0.04101 0.0
O86 O 0.98168 0.04222 0.05942 0.0
O87 O 0.96016 0.03277 0.0412 0.0
O88 O 0.74367 0.67318 0.90002 0.0
Cd89 Cd 0.75475 0.66779 0.8562 0.0
O90 O 0.76649 0.6791 0.91825 0.0
Cd91 Cd 0.78082 0.67045 0.88532 0.0
O92 O 0.79933 0.65495 0.86984 0.0
C93 C 0.80541 0.64554 0.88662 0.0
O94 O 0.80022 0.64587 0.91115 0.0
C95 C 0.75156 0.67801 0.91983 0.0
C96 C 0.73861 0.68499 0.81742 0.0
O97 O 0.73391 0.67127 0.82453 0.0
O98 O 0.75102 0.69054 0.82849 0.0
O99 O 0.02365 0.00709 0.60169 0.0
Cd100 Cd 0.0227 0.01721 0.55635 0.0
O101 O 0.03839 0.02752 0.61052 0.0
Cd102 Cd 0.05258 0.04445 0.63297 0.0
O103 O 0.06914 0.06314 0.64352 0.0
C104 C 0.08151 0.06036 0.65699 0.0
O105 O 0.08409 0.04598 0.66573 0.0
C106 C 0.03176 0.01488 0.6183 0.0
C107 C 0.00789 -0.00283 0.52033 0.0
O108 O 0.02257 -0.00447 0.52588 0.0
O109 O 0.00016 0.00813 0.53213 0.0
O110 O 0.7298 0.30045 0.38056 0.0
Cd111 Cd 0.72105 0.30723 0.3358 0.0
O112 O 0.71172 0.31508 0.40015 0.0
Cd113 Cd 0.70006 0.3241 0.36457 0.0
O114 O 0.68208 0.33818 0.3442 0.0
C115 C 0.68244 0.35307 0.34714 0.0
O116 O 0.69405 0.3593 0.36081 0.0
C117 C 0.72344 0.30571 0.40162 0.0
C118 C 0.73667 0.28924 0.29739 0.0
O119 O 0.74241 0.30233 0.30562 0.0
O120 O 0.72352 0.28467 0.3073 0.0
O121 O 0.43481 0.96216 0.11319 0.0
Cd122 Cd 0.43137 0.94759 0.07186 0.0
O123 O 0.4462 0.94226 0.13366 0.0
Cd124 Cd 0.43903 0.92568 0.10288 0.0
O125 O 0.42274 0.90892 0.08477 0.0
C126 C 0.40827 0.91289 0.08405 0.0
O127 O 0.40419 0.92692 0.09281 0.0
C128 C 0.44189 0.95664 0.1334 0.0
C129 C 0.44979 0.96131 0.03231 0.0
O130 O 0.43524 0.96513 0.03519 0.0
O131 O 0.45555 0.95082 0.04788 0.0
O132 O 0.75583 0.26821 0.59884 0.0
Cd133 Cd 0.7661 0.26496 0.64386 0.0
O134 O 0.77684 0.28257 0.59227 0.0
Cd135 Cd 0.79285 0.29921 0.57281 0.0
O136 O 0.81152 0.31636 0.56517 0.0
C137 C 0.80908 0.32905 0.55235 0.0
O138 O 0.79497 0.33177 0.54254 0.0
C139 C 0.76406 0.27674 0.58343 0.0
C140 C 0.74573 0.25046 0.67985 0.0
O141 O 0.74477 0.26529 0.67511 0.0
O142 O 0.75609 0.24242 0.66712 0.0
O143 O 0.43941 0.01469 0.32191 0.0
Cd144 Cd 0.43432 0.02736 0.36453 0.0
O145 O 0.44061 0.03651 0.29831 0.0
Cd146 Cd 0.43211 0.05187 0.32998 0.0
O147 O 0.41504 0.06914 0.34477 0.0
C148 C 0.40066 0.06642 0.33934 0.0
O149 O 0.39711 0.05339 0.3266 0.0
C150 C 0.44178 0.02158 0.29989 0.0
C151 C 0.44735 0.00905 0.4051 0.0
O152 O 0.4333 0.00656 0.39673 0.0
O153 O 0.45517 0.02036 0.39456 0.0
O154 O 0.71021 0.70117 0.11698 0.0
Cd155 Cd 0.7006 0.70137 0.16265 0.0
O156 O 0.69276 0.68272 0.11002 0.0
Cd157 Cd 0.67831 0.66512 0.08955 0.0
O158 O 0.66231 0.6455 0.08164 0.0
C159 C 0.66723 0.63257 0.07187 0.0
O160 O 0.68218 0.63122 0.06532 0.0
C161 C 0.70385 0.69137 0.10123 0.0
C162 C 0.7198 0.7179 0.19782 0.0
O163 O 0.72265 0.70344 0.1921 0.0
O164 O 0.70799 0.72462 0.1866 0.0
O165 O 0.05299 0.97509 0.81876 0.0
Cd166 Cd 0.05934 0.96427 0.86241 0.0
O167 O 0.05082 0.95193 0.79937 0.0
Cd168 Cd 0.06033 0.93827 0.83244 0.0
O169 O 0.07633 0.92071 0.8495 0.0
C170 C 0.08649 0.91491 0.8337 0.0
O171 O 0.08666 0.91981 0.809 0.0
C172 C 0.04977 0.96689 0.79838 0.0
C173 C 0.04138 0.97908 0.90174 0.0
O174 O 0.05473 0.98468 0.89447 0.0
O175 O 0.03656 0.9664 0.89057 0.0
O176 O 0.68727 0.76629 0.59933 0.0
Cd177 Cd 0.66767 0.7644 0.63468 0.0
O178 O 0.69161 0.79154 0.60617 0.0
Cd179 Cd 0.67035 0.79528 0.6298 0.0
O180 O 0.64825 0.80829 0.6349 0.0
C181 C 0.63956 0.80974 0.61452 0.0
O182 O 0.64387 0.80269 0.59248 0.0
C183 C 0.69515 0.77871 0.59453 0.0
C184 C 0.6809 0.74743 0.67666 0.0
O185 O 0.6735 0.74041 0.65794 0.0
O186 O 0.68175 0.76252 0.67584 0.0
O187 O 0.45039 0.44568 0.82757 0.0
Cd188 Cd 0.45186 0.42658 0.86381 0.0
O189 O 0.42448 0.44468 0.82502 0.0
Cd190 Cd 0.42139 0.42477 0.85193 0.0
O191 O 0.40934 0.40308 0.8635 0.0
C192 C 0.40655 0.39316 0.84523 0.0
O193 O 0.4117 0.39612 0.82118 0.0
C194 C 0.43752 0.45056 0.81749 0.0
C195 C 0.46996 0.43844 0.90553 0.0
O196 O 0.47635 0.43062 0.8866 0.0
O197 O 0.45498 0.44055 0.90485 0.0
O198 O 0.78758 0.20649 0.07653 0.0
Cd199 Cd 0.80559 0.20799 0.11434 0.0
O200 O 0.77338 0.18771 0.09479 0.0
Cd201 Cd 0.79245 0.18178 0.12206 0.0
O202 O 0.81428 0.16871 0.12934 0.0
C203 C 0.82411 0.16811 0.11031 0.0
O204 O 0.82093 0.17592 0.08845 0.0
C205 C 0.77541 0.19774 0.07637 0.0
C206 C 0.79173 0.22533 0.1554 0.0
O207 O 0.7999 0.23212 0.13734 0.0
O208 O 0.79026 0.2103 0.15423 0.0
O209 O 0.02101 0.53268 0.30777 0.0
Cd210 Cd 0.02036 0.5491 0.3476 0.0
O211 O 0.04334 0.52117 0.3189 0.0
Cd212 Cd 0.04855 0.53836 0.34975 0.0
O213 O 0.06087 0.55846 0.36695 0.0
C214 C 0.05782 0.57225 0.35842 0.0
O215 O 0.04668 0.57408 0.34057 0.0
C216 C 0.03154 0.52228 0.30346 0.0
C217 C 0.00673 0.53225 0.38926 0.0
O218 O -0.00177 0.54023 0.37307 0.0
O219 O 0.02173 0.53241 0.386 0.0
O220 O 0.69032 0.19381 0.91712 0.0
Cd221 Cd 0.67237 0.1907 0.87939 0.0
O222 O 0.70652 0.1749 0.90453 0.0
Cd223 Cd 0.68938 0.16576 0.87638 0.0
O224 O 0.66925 0.15282 0.86069 0.0
C225 C 0.65769 0.1505 0.87627 0.0
O226 O 0.65832 0.15631 0.90037 0.0
C227 C 0.70315 0.18618 0.92015 0.0
C228 C 0.68565 0.20326 0.83323 0.0
O229 O 0.67821 0.21206 0.84971 0.0
O230 O 0.68667 0.18849 0.83838 0.0
O231 O 0.0177 0.45058 0.12743 0.0
Cd232 Cd 0.01633 0.43417 0.0877 0.0
O233 O 0.04309 0.44657 0.13398 0.0
Cd234 Cd 0.04652 0.42804 0.10457 0.0
O235 O 0.06003 0.40673 0.09542 0.0
C236 C 0.06275 0.39756 0.11484 0.0
O237 O 0.05664 0.40103 0.13806 0.0
C238 C 0.03025 0.45337 0.14036 0.0
C239 C 0.00302 0.4513 0.04594 0.0
O240 O -0.00566 0.44378 0.06245 0.0
O241 O 0.01802 0.45058 0.04899 0.0
O242 O 0.77487 0.78176 0.42883 0.0
Cd243 Cd 0.79256 0.78484 0.39088 0.0
O244 O 0.79247 0.78923 0.45826 0.0
Cd245 Cd 0.81014 0.79581 0.42891 0.0
O246 O 0.82736 0.81083 0.40914 0.0
C247 C 0.82807 0.82495 0.41749 0.0
O248 O 0.81857 0.82933 0.43674 0.0
C249 C 0.77873 0.7842 0.45282 0.0
C250 C 0.77921 0.77119 0.3459 0.0
O251 O 0.78751 0.763 0.36209 0.0
O252 O 0.77738 0.78593 0.35078 0.0
O253 O 0.44552 0.53959 0.66415 0.0
Cd254 Cd 0.44565 0.55834 0.62729 0.0
O255 O 0.42151 0.53133 0.65533 0.0
Cd256 Cd 0.41615 0.55123 0.62941 0.0
O257 O 0.40302 0.57293 0.62153 0.0
C258 C 0.40126 0.58234 0.64093 0.0
O259 O 0.40799 0.57884 0.66363 0.0
C260 C 0.43423 0.5301 0.66854 0.0
C261 C 0.45672 0.54326 0.58167 0.0
O262 O 0.46626 0.54959 0.59822 0.0
O263 O 0.44189 0.54427 0.58644 0.0
O264 O 0.27429 0.20437 0.40828 0.0
Cd265 Cd 0.29055 0.20557 0.36831 0.0
O266 O 0.27796 0.17889 0.41435 0.0
Cd267 Cd 0.29579 0.17496 0.38382 0.0
O268 O 0.31515 0.15985 0.37034 0.0
C269 C 0.31427 0.14556 0.37786 0.0
O270 O 0.30196 0.14116 0.39185 0.0
C271 C 0.27143 0.1918 0.42113 0.0
C272 C 0.27309 0.21779 0.32601 0.0
O273 O 0.27416 0.20286 0.32977 0.0
O274 O 0.28039 0.22691 0.34208 0.0
O275 O 0.54913 0.48959 0.13483 0.0
Cd276 Cd 0.55603 0.49867 0.09029 0.0
O277 O 0.56055 0.50984 0.15414 0.0
Cd278 Cd 0.56932 0.52135 0.1183 0.0
O279 O 0.58326 0.53893 0.09697 0.0
C280 C 0.59821 0.53803 0.09854 0.0
O281 O 0.60453 0.5261 0.11141 0.0
C282 C 0.55281 0.49705 0.15579 0.0
C283 C 0.53691 0.48519 0.05133 0.0
O284 O 0.54966 0.47839 0.05895 0.0
O285 O 0.53318 0.49836 0.06219 0.0
O286 O 0.22914 0.80422 0.90661 0.0
Cd287 Cd 0.21567 0.80832 0.86432 0.0
O288 O 0.20678 0.80101 0.92816 0.0
Cd289 Cd 0.19159 0.80962 0.89632 0.0
O290 O 0.17335 0.82494 0.87953 0.0
C291 C 0.16826 0.83582 0.89465 0.0
O292 O 0.17423 0.83706 0.91858 0.0
C293 C 0.22179 0.80082 0.92782 0.0
C294 C 0.23028 0.79087 0.82421 0.0
O295 O 0.23359 0.80547 0.82771 0.0
O296 O 0.21999 0.78457 0.83951 0.0
O297 O 0.9441 0.45692 0.61287 0.0
Cd298 Cd 0.94191 0.44539 0.56867 0.0
O299 O 0.925 0.44222 0.62903 0.0
Cd300 Cd 0.91957 0.42868 0.5934 0.0
O301 O 0.9046 0.41147 0.5733 0.0
C302 C 0.88989 0.41446 0.57253 0.0
O303 O 0.88481 0.42796 0.58214 0.0
C304 C 0.93533 0.45291 0.63217 0.0
C305 C 0.95619 0.46455 0.5306 0.0
O306 O 0.9418 0.46676 0.53755 0.0
O307 O 0.96383 0.45323 0.54159 0.0
O308 O 0.2671 0.77494 0.12049 0.0
Cd309 Cd 0.27656 0.7741 0.16618 0.0
O310 O 0.28737 0.78986 0.11139 0.0
Cd311 Cd 0.30422 0.80408 0.08878 0.0
O312 O 0.32389 0.81976 0.07954 0.0
C313 C 0.32197 0.83271 0.06723 0.0
O314 O 0.3078 0.83654 0.05879 0.0
C315 C 0.27481 0.78305 0.10375 0.0
C316 C 0.25726 0.75653 0.1998 0.0
O317 O 0.25417 0.77103 0.19469 0.0
O318 O 0.2694 0.75028 0.1888 0.0
O319 O 0.94338 0.51909 0.81546 0.0
Cd320 Cd 0.94125 0.53364 0.85713 0.0
O321 O 0.91852 0.52356 0.8051 0.0
Cd322 Cd 0.91284 0.5404 0.83643 0.0
O323 O 0.89785 0.55957 0.85099 0.0
C324 C 0.88715 0.56413 0.83504 0.0
O325 O 0.88608 0.55721 0.81182 0.0
C326 C 0.9317 0.51699 0.80008 0.0
C327 C 0.95448 0.51627 0.89869 0.0
O328 O 0.94005 0.51434 0.89184 0.0
O329 O 0.96264 0.52652 0.88603 0.0
O330 O 0.21109 0.19482 0.60874 0.0
Cd331 Cd 0.1998 0.19091 0.6528 0.0
O332 O 0.19557 0.1773 0.58999 0.0
Cd333 Cd 0.1821 0.17063 0.62514 0.0
O334 O 0.16469 0.15549 0.64441 0.0
C335 C 0.16764 0.14078 0.64507 0.0
O336 O 0.18126 0.13572 0.63588 0.0
C337 C 0.20665 0.18733 0.58826 0.0
C338 C 0.21927 0.20383 0.69172 0.0
O339 O 0.22133 0.18966 0.68353 0.0
O340 O 0.20793 0.21187 0.68162 0.0
O341 O 0.51508 0.46314 0.352 0.0
Cd342 Cd 0.51103 0.45354 0.39725 0.0
O343 O 0.53327 0.44491 0.34861 0.0
Cd344 Cd 0.5533 0.43177 0.33199 0.0
O345 O 0.57374 0.41625 0.32665 0.0
C346 C 0.58686 0.42134 0.31795 0.0
O347 O 0.58803 0.43625 0.3111 0.0
C348 C 0.52561 0.45627 0.33822 0.0
C349 C 0.49835 0.47571 0.43231 0.0
O350 O 0.51322 0.47515 0.42768 0.0
O351 O 0.48943 0.46598 0.41999 0.0
H352 H 0.26465 0.24852 0.31768 0.0
H353 H 0.25992 0.2018 0.28454 0.0
H354 H 0.24842 0.2592 0.28213 0.0
H355 H 0.2442 0.21254 0.24836 0.0
H356 H 0.20324 0.23396 0.20234 0.0
H357 H 0.21909 0.22339 0.2385 0.0
H358 H 0.24842 0.26504 0.23633 0.0
H359 H 0.23216 0.27583 0.20089 0.0
C360 C 0.26026 0.24055 0.30265 0.0
C361 C 0.26356 0.22431 0.30396 0.0
C362 C 0.25102 0.24669 0.28213 0.0
C363 C 0.24496 0.23676 0.26226 0.0
C364 C 0.2484 0.22052 0.26351 0.0
C365 C 0.25752 0.21436 0.28418 0.0
C366 C 0.21305 0.24087 0.20965 0.0
C367 C 0.21642 0.25575 0.19878 0.0
C368 C 0.22223 0.23476 0.23028 0.0
C369 C 0.2351 0.24332 0.24039 0.0
C370 C 0.23846 0.2582 0.22941 0.0
C371 C 0.22919 0.26437 0.20895 0.0
H372 H 0.94366 0.94751 0.41383 0.0
H373 H -0.0099 0.94147 0.3799 0.0
H374 H 0.95517 0.96111 0.45165 0.0
H375 H 0.00157 0.95559 0.41712 0.0
H376 H 0.01966 0.9704 0.49735 0.0
H377 H 0.00754 0.9544 0.46288 0.0
H378 H 0.96701 0.98551 0.46257 0.0
H379 H 0.97888 0.0011 0.49773 0.0
C380 C 0.95633 0.94911 0.41443 0.0
C381 C 0.96596 0.94343 0.39385 0.0
C382 C 0.96294 0.957 0.43604 0.0
C383 C 0.97932 0.95954 0.43747 0.0
C384 C -0.01105 0.95366 0.41698 0.0
C385 C 0.98236 0.94564 0.3955 0.0
C386 C 0.00811 0.97375 0.49004 0.0
C387 C 0.00025 0.98704 0.50023 0.0
C388 C 0.00119 0.96463 0.47013 0.0
C389 C 0.98631 0.96868 0.45975 0.0
C390 C 0.97836 0.98187 0.4703 0.0
C391 C 0.98522 -0.00912 0.49039 0.0
H392 H 0.23215 0.75883 0.8202 0.0
H393 H 0.24627 0.80181 0.78099 0.0
H394 H 0.24555 0.74338 0.78631 0.0
H395 H 0.25896 0.78643 0.74621 0.0
H396 H 0.29293 0.75544 0.70044 0.0
H397 H 0.28057 0.77054 0.73589 0.0
H398 H 0.24416 0.73507 0.74251 0.0
H399 H 0.25707 0.71965 0.7081 0.0
C400 C 0.23799 0.76497 0.80414 0.0
C401 C 0.23817 0.78153 0.80327 0.0
C402 C 0.2456 0.75611 0.78455 0.0
C403 C 0.25336 0.76359 0.76332 0.0
C404 C 0.25341 0.7802 0.76244 0.0
C405 C 0.24602 0.78905 0.7823 0.0
C406 C 0.28233 0.75086 0.7096 0.0
C407 C 0.276 0.73635 0.70153 0.0
C408 C 0.27514 0.75958 0.72982 0.0
C409 C 0.26127 0.75412 0.74216 0.0
C410 C 0.25496 0.73957 0.73394 0.0
C411 C 0.26231 0.73074 0.71405 0.0
H412 H 0.49085 0.02697 0.91931 0.0
H413 H 0.52209 0.98663 0.91703 0.0
H414 H 0.47479 0.01391 0.95275 0.0
H415 H 0.5057 0.97327 0.94965 0.0
H416 H 0.48185 0.95988 0.02726 0.0
H417 H 0.49832 0.97327 -0.00522 0.0
H418 H 0.45657 -0.00691 0.9583 0.0
H419 H 0.4402 0.98019 -0.00852 0.0
C420 C 0.49424 0.01527 0.92586 0.0
C421 C 0.50775 0.00784 0.91555 0.0
C422 C 0.48496 0.00771 0.94491 0.0
C423 C 0.48887 -0.00753 0.95389 0.0
C424 C 0.50243 0.98509 0.94356 0.0
C425 C 0.5118 -0.00729 0.92472 0.0
C426 C 0.4762 0.96708 0.01227 0.0
C427 C 0.45972 0.96899 0.01196 0.0
C428 C 0.48564 0.97471 -0.00647 0.0
C429 C 0.47881 0.98431 0.97385 0.0
C430 C 0.46229 0.98605 0.97342 0.0
C431 C 0.45287 0.97855 -0.00766 0.0
H432 H 0.19644 0.73039 0.33031 0.0
H433 H 0.21231 0.68541 0.3 0.0
H434 H 0.21088 0.74385 0.29541 0.0
H435 H 0.22622 0.69882 0.26425 0.0
H436 H 0.2643 0.72848 0.2237 0.0
H437 H 0.24874 0.71433 0.25649 0.0
H438 H 0.2119 0.74955 0.24996 0.0
H439 H 0.22785 0.76404 0.21808 0.0
C440 C 0.20284 0.72336 0.31593 0.0
C441 C 0.20328 0.70684 0.31798 0.0
C442 C 0.21106 0.73108 0.29575 0.0
C443 C 0.21977 0.72246 0.2769 0.0
C444 C 0.2199 0.70588 0.27866 0.0
C445 C 0.21183 0.69817 0.29906 0.0
C446 C 0.25284 0.73315 0.2292 0.0
C447 C 0.24734 0.74743 0.21843 0.0
C448 C 0.24385 0.72498 0.2479 0.0
C449 C 0.22903 0.73078 0.25603 0.0
C450 C 0.22338 0.74487 0.24465 0.0
C451 C 0.23248 0.75315 0.22622 0.0
H452 H 0.51124 0.95523 0.50592 0.0
H453 H 0.46516 0.94753 0.54014 0.0
H454 H 0.49939 0.97143 0.47131 0.0
H455 H 0.45335 0.96413 0.50611 0.0
H456 H 0.43527 0.98209 0.42668 0.0
H457 H 0.44719 0.96514 0.46015 0.0
H458 H 0.48719 -0.00345 0.46478 0.0
H459 H 0.47548 0.0132 0.43066 0.0
C460 C 0.49858 0.95702 0.50609 0.0
C461 C 0.48915 0.95007 0.52577 0.0
C462 C 0.49178 0.96642 0.48635 0.0
C463 C 0.4754 0.96917 0.48592 0.0
C464 C 0.46597 0.96211 0.50555 0.0
C465 C 0.47276 0.95263 0.52518 0.0
C466 C 0.4466 0.98538 0.43486 0.0
C467 C 0.45442 -0.001 0.42599 0.0
C468 C 0.45342 0.9757 0.45417 0.0
C469 C 0.46818 0.97944 0.46523 0.0
C470 C 0.47594 -0.00686 0.45642 0.0
C471 C 0.46917 0.00276 0.43698 0.0
H472 H 0.28127 0.21956 0.82635 0.0
H473 H 0.27433 0.26606 0.79322 0.0
H474 H 0.26465 0.20838 0.79186 0.0
H475 H 0.25812 0.25483 0.75815 0.0
H476 H 0.24632 0.19121 0.71235 0.0
H477 H 0.26361 0.20262 0.74573 0.0
H478 H 0.23283 0.24325 0.75133 0.0
H479 H 0.21585 0.23206 0.7173 0.0
C480 C 0.27633 0.22738 0.81152 0.0
C481 C 0.2791 0.2437 0.81257 0.0
C482 C 0.26685 0.22095 0.79163 0.0
C483 C 0.26 0.23068 0.77218 0.0
C484 C 0.26297 0.247 0.77304 0.0
C485 C 0.27236 0.25344 0.79305 0.0
C486 C 0.24326 0.20259 0.72069 0.0
C487 C 0.2297 0.21072 0.71217 0.0
C488 C 0.25313 0.2091 0.73995 0.0
C489 C 0.24963 0.22386 0.75131 0.0
C490 C 0.23605 0.23198 0.74275 0.0
C491 C 0.22624 0.22551 0.72335 0.0
H492 H 0.04723 0.00732 0.92592 0.0
H493 H 0.01371 0.96903 0.92395 0.0
H494 H 0.03118 0.02077 0.95904 0.0
H495 H -0.00213 0.98226 0.95764 0.0
H496 H 0.96498 0.01775 -0.00241 0.0
H497 H 0.98093 0.00468 0.96386 0.0
H498 H 0.02336 0.0191 0.00455 0.0
H499 H 0.00741 0.03254 0.03782 0.0
C500 C 0.03648 0.00172 0.93269 0.0
C501 C 0.03175 0.9871 0.92227 0.0
C502 C 0.02731 0.00939 0.95181 0.0
C503 C 0.01321 0.00261 0.96107 0.0
C504 C 0.00853 -0.01205 0.95069 0.0
C505 C 0.01767 0.98031 0.93148 0.0
C506 C 0.97771 0.01816 -0.00071 0.0
C507 C 0.98492 0.02622 0.02038 0.0
C508 C 0.98687 0.01057 0.98004 0.0
C509 C 0.00345 0.01079 0.98147 0.0
C510 C 0.01063 0.01887 0.00258 0.0
C511 C 0.00148 0.02652 0.02176 0.0
H512 H 0.68354 0.7154 0.68116 0.0
H513 H 0.69587 0.75887 0.72062 0.0
H514 H 0.69737 0.70044 0.71521 0.0
H515 H 0.70932 0.74389 0.75515 0.0
H516 H 0.71058 0.67758 0.79376 0.0
H517 H 0.6961 0.69281 0.76079 0.0
H518 H 0.73264 0.72827 0.76174 0.0
H519 H 0.74688 0.71325 0.79528 0.0
C520 C 0.68907 0.72176 0.69726 0.0
C521 C 0.68862 0.73833 0.69814 0.0
C522 C 0.69694 0.71318 0.71689 0.0
C523 C 0.7045 0.72094 0.73796 0.0
C524 C 0.70386 0.73752 0.73901 0.0
C525 C 0.69604 0.74611 0.7193 0.0
C526 C 0.71552 0.68863 0.78695 0.0
C527 C 0.7299 0.69419 0.79715 0.0
C528 C 0.70725 0.69734 0.76792 0.0
C529 C 0.71319 0.71178 0.75854 0.0
C530 C 0.72758 0.71732 0.76878 0.0
C531 C 0.73582 0.70865 0.7879 0.0
H532 H 0.76556 0.29481 0.27516 0.0
H533 H 0.72652 0.26215 0.2735 0.0
H534 H 0.77919 0.27919 0.24166 0.0
H535 H 0.73996 0.24675 0.23947 0.0
H536 H 0.77507 0.21423 0.19792 0.0
H537 H 0.76217 0.22951 0.2327 0.0
H538 H 0.77771 0.27268 0.19546 0.0
H539 H 0.79096 0.25739 0.16112 0.0
C540 C 0.75985 0.28433 0.26756 0.0
C541 C 0.74495 0.27974 0.27701 0.0
C542 C 0.76763 0.27541 0.24823 0.0
C543 C 0.76068 0.26171 0.23779 0.0
C544 C 0.74577 0.25711 0.24732 0.0
C545 C 0.73802 0.266 0.26672 0.0
C546 C 0.77578 0.22698 0.1972 0.0
C547 C 0.78406 0.23459 0.17675 0.0
C548 C 0.76829 0.23575 0.21706 0.0
C549 C 0.76886 0.25234 0.21689 0.0
C550 C 0.77721 0.25992 0.19646 0.0
C551 C 0.78474 0.25116 0.17666 0.0
H552 H 0.69119 0.2343 0.82227 0.0
H553 H 0.69718 0.18744 0.79019 0.0
H554 H 0.70491 0.24531 0.7842 0.0
H555 H 0.71028 0.19846 0.75143 0.0
H556 H 0.71934 0.26263 0.70346 0.0
H557 H 0.7036 0.2509 0.7387 0.0
H558 H 0.73424 0.21001 0.73857 0.0
H559 H 0.74946 0.22145 0.70255 0.0
C560 C 0.69525 0.22636 0.80688 0.0
C561 C 0.69317 0.20999 0.80931 0.0
C562 C 0.70304 0.23268 0.7849 0.0
C563 C 0.70877 0.2228 0.76461 0.0
C564 C 0.70633 0.20643 0.76683 0.0
C565 C 0.69872 0.2001 0.78899 0.0
C566 C 0.72261 0.25107 0.71083 0.0
C567 C 0.73566 0.24298 0.70025 0.0
C568 C 0.71365 0.24438 0.7312 0.0
C569 C 0.71766 0.22952 0.74174 0.0
C570 C 0.73059 0.22134 0.73077 0.0
C571 C 0.73941 0.22795 0.71017 0.0
H572 H 0.76466 0.78579 0.30416 0.0
H573 H 0.77653 0.73977 0.33518 0.0
H574 H 0.75148 0.77346 0.26662 0.0
H575 H 0.76285 0.72741 0.29835 0.0
H576 H 0.74819 0.70888 0.21857 0.0
H577 H 0.7636 0.72227 0.25245 0.0
H578 H 0.72835 0.75919 0.25631 0.0
H579 H 0.71333 0.74611 0.22165 0.0
C580 C 0.76442 0.77304 0.30299 0.0
C581 C 0.77163 0.76376 0.32266 0.0
C582 C 0.75678 0.76595 0.28155 0.0
C583 C 0.75602 0.74941 0.27941 0.0
C584 C 0.7634 0.74017 0.29902 0.0
C585 C 0.77117 0.74726 0.32029 0.0
C586 C 0.74381 0.71992 0.22653 0.0
C587 C 0.72952 0.72641 0.21749 0.0
C588 C 0.75259 0.72756 0.2461 0.0
C589 C 0.7472 0.74178 0.25734 0.0
C590 C 0.73302 0.74839 0.2479 0.0
C591 C 0.72433 0.74084 0.22812 0.0
H592 H 0.54084 0.45675 0.02664 0.0
H593 H 0.51027 0.49761 0.02882 0.0
H594 H 0.52445 0.44516 -0.00784 0.0
H595 H 0.49411 0.48621 -0.00615 0.0
H596 H 0.45976 0.45427 0.9496 0.0
H597 H 0.47572 0.46518 0.98531 0.0
H598 H 0.51802 0.44869 0.94614 0.0
H599 H 0.50205 0.43744 0.91081 0.0
C600 C 0.53065 0.46329 0.0197 0.0
C601 C 0.52688 0.47811 0.03048 0.0
C602 C 0.5213 0.45668 -0.0002 0.0
C603 C 0.50797 0.46476 -0.00986 0.0
C604 C 0.50416 0.47956 0.00105 0.0
C605 C 0.51349 0.48615 0.021 0.0
C606 C 0.47246 0.45294 0.94865 0.0
C607 C 0.47962 0.44497 0.92736 0.0
C608 C 0.48163 0.45928 0.96905 0.0
C609 C 0.49817 0.45784 0.96862 0.0
C610 C 0.50531 0.44983 0.94733 0.0
C611 C 0.49614 0.44345 0.92698 0.0
H612 H 0.97544 0.52596 0.39654 0.0
H613 H 0.02145 0.51725 0.43042 0.0
H614 H 0.96342 0.5097 0.43074 0.0
H615 H 0.00938 0.50144 0.46528 0.0
H616 H 0.94476 0.49197 0.50946 0.0
H617 H 0.95716 0.50882 0.47644 0.0
H618 H -0.00312 0.47677 0.47249 0.0
H619 H 0.98471 0.46025 0.50626 0.0
C620 C 0.98298 0.5207 0.41148 0.0
C621 C -0.0006 0.52287 0.41073 0.0
C622 C 0.97607 0.51144 0.43122 0.0
C623 C 0.9854 0.50423 0.45086 0.0
C624 C 0.00184 0.50658 0.45026 0.0
C625 C 0.00876 0.51574 0.43036 0.0
C626 C 0.95615 0.48854 0.50157 0.0
C627 C 0.96374 0.47476 0.51047 0.0
C628 C 0.96324 0.49816 0.4825 0.0
C629 C 0.97803 0.49417 0.47167 0.0
C630 C 0.98561 0.48037 0.48065 0.0
C631 C 0.97858 0.47083 0.49991 0.0
H632 H 0.98305 0.52057 0.92275 0.0
H633 H 0.94191 0.4906 0.92362 0.0
H634 H -0.00537 0.50506 0.95847 0.0
H635 H 0.95372 0.47471 0.95859 0.0
H636 H 0.97197 0.45903 0.03913 0.0
H637 H 0.96031 0.47496 0.00407 0.0
H638 H 0.00628 0.48026 0.96799 0.0
H639 H 0.018 0.46483 0.00368 0.0
C640 C 0.97652 0.5106 0.93046 0.0
C641 C 0.96154 0.50684 0.92038 0.0
C642 C 0.98321 0.50162 0.95084 0.0
C643 C 0.97515 0.48857 0.96147 0.0
C644 C 0.96018 0.48481 0.95127 0.0
C645 C 0.95342 0.49388 0.93107 0.0
C646 C 0.97958 0.46359 0.0237 0.0
C647 C -0.00409 0.46067 0.02421 0.0
C648 C 0.97288 0.47267 0.00347 0.0
C649 C 0.98232 0.47893 0.98308 0.0
C650 C -0.00134 0.47588 0.98355 0.0
C651 C 0.00538 0.46693 0.00393 0.0
H652 H 0.51293 0.50109 0.45483 0.0
H653 H 0.46897 0.47545 0.45459 0.0
H654 H 0.50262 0.51862 0.48895 0.0
H655 H 0.45886 0.49249 0.48953 0.0
H656 H 0.43994 0.53281 0.53886 0.0
H657 H 0.44973 0.51785 0.50099 0.0
H658 H 0.4967 0.51857 0.5344 0.0
H659 H 0.48701 0.53408 0.57153 0.0
C660 C 0.50106 0.49918 0.46211 0.0
C661 C 0.49179 0.48686 0.45206 0.0
C662 C 0.49517 0.50917 0.48184 0.0
C663 C 0.47992 0.50695 0.49226 0.0
C664 C 0.47056 0.49475 0.4818 0.0
C665 C 0.47639 0.48489 0.46183 0.0
C666 C 0.45238 0.52986 0.53798 0.0
C667 C 0.4627 0.53463 0.5582 0.0
C668 C 0.45799 0.52118 0.51634 0.0
C669 C 0.47402 0.51691 0.51456 0.0
C670 C 0.48434 0.52185 0.53475 0.0
C671 C 0.47876 0.53067 0.5562 0.0
H672 H 0.07964 0.38857 0.07106 0.0
H673 H 0.07079 0.37595 0.15267 0.0
H674 H 0.09938 0.36766 0.06803 0.0
H675 H 0.09028 0.35486 0.14946 0.0
H676 H 0.1405 0.33386 0.14289 0.0
H677 H 0.11876 0.35266 0.14608 0.0
H678 H 0.10303 0.33924 0.0679 0.0
H679 H 0.12494 0.32068 0.06447 0.0
C680 C 0.08175 0.38121 0.08824 0.0
C681 C 0.0737 0.384 0.11214 0.0
C682 C 0.09302 0.36916 0.08648 0.0
C683 C 0.09647 0.35963 0.10856 0.0
C684 C 0.08809 0.36215 0.13222 0.0
C685 C 0.07684 0.37419 0.13399 0.0
C686 C 0.13234 0.33482 0.12647 0.0
C687 C 0.13452 0.32582 0.10338 0.0
C688 C 0.11982 0.34555 0.12834 0.0
C689 C 0.10919 0.34751 0.10719 0.0
C690 C 0.11115 0.33821 0.08438 0.0
C691 C 0.12366 0.32749 0.0825 0.0
H692 H 0.84992 0.81974 0.37838 0.0
H693 H 0.83178 0.85594 0.43055 0.0
H694 H 0.86852 0.83866 0.35964 0.0
H695 H 0.85009 0.87486 0.41149 0.0
H696 H 0.89488 0.90103 0.39003 0.0
H697 H 0.87807 0.88088 0.40968 0.0
H698 H 0.86835 0.86213 0.33182 0.0
H699 H 0.88541 0.88206 0.31221 0.0
C700 C 0.84987 0.83173 0.38581 0.0
C701 C 0.83937 0.83633 0.40596 0.0
C702 C 0.86048 0.84259 0.37499 0.0
C703 C 0.86081 0.85826 0.38411 0.0
C704 C 0.85032 0.86282 0.40431 0.0
C705 C 0.83974 0.85198 0.41511 0.0
C706 C 0.88925 0.89255 0.37712 0.0
C707 C 0.89144 0.89319 0.34954 0.0
C708 C 0.87953 0.88105 0.38837 0.0
C709 C 0.87179 0.86995 0.3723 0.0
C710 C 0.87426 0.8704 0.34478 0.0
C711 C 0.88398 0.88189 0.33353 0.0
H712 H 0.3408 0.6612 0.59352 0.0
H713 H 0.32648 0.64884 0.67303 0.0
H714 H 0.36216 0.64194 0.59589 0.0
H715 H 0.34765 0.62936 0.67517 0.0
H716 H 0.39488 0.60435 0.67898 0.0
H717 H 0.37613 0.62616 0.67676 0.0
H718 H 0.36469 0.61338 0.59621 0.0
H719 H 0.38367 0.59175 0.59823 0.0
C720 C 0.34225 0.65444 0.61157 0.0
C721 C 0.33189 0.65652 0.63305 0.0
C722 C 0.35444 0.64332 0.61284 0.0
C723 C 0.35656 0.63404 0.63564 0.0
C724 C 0.34646 0.63644 0.65741 0.0
C725 C 0.33427 0.64756 0.65614 0.0
C726 C 0.38847 0.60627 0.6607 0.0
C727 C 0.39073 0.59626 0.63882 0.0
C728 C 0.37765 0.61872 0.6595 0.0
C729 C 0.36884 0.62147 0.63638 0.0
C730 C 0.3714 0.61171 0.61424 0.0
C731 C 0.38223 0.59925 0.61544 0.0
H732 H 0.58272 0.10146 0.79196 0.0
H733 H 0.58345 0.08042 0.86995 0.0
H734 H 0.60333 0.11976 0.80531 0.0
H735 H 0.60431 0.09856 0.88314 0.0
H736 H 0.63147 0.14306 0.90518 0.0
H737 H 0.60947 0.12633 0.89209 0.0
H738 H 0.63131 0.11886 0.81574 0.0
H739 H 0.65316 0.13584 0.82861 0.0
C740 C 0.58725 0.10075 0.81198 0.0
C741 C 0.58147 0.08944 0.82987 0.0
C742 C 0.59914 0.11119 0.81957 0.0
C743 C 0.60553 0.11057 0.84523 0.0
C744 C 0.59953 0.09946 0.8633 0.0
C745 C 0.58762 0.089 0.85571 0.0
C746 C 0.63155 0.13792 0.88554 0.0
C747 C 0.64409 0.14078 0.86794 0.0
C748 C 0.61898 0.12825 0.87811 0.0
C749 C 0.61865 0.12123 0.85291 0.0
C750 C 0.6311 0.12425 0.83519 0.0
C751 C 0.64368 0.13391 0.84262 0.0
H752 H 0.05359 0.60337 0.3459 0.0
H753 H 0.08427 0.57185 0.3894 0.0
H754 H 0.07076 0.62549 0.35701 0.0
H755 H 0.10133 0.59398 0.40059 0.0
H756 H 0.13742 0.63325 0.38729 0.0
H757 H 0.11958 0.61177 0.3761 0.0
H758 H 0.07961 0.64117 0.39618 0.0
H759 H 0.09746 0.66276 0.40727 0.0
C760 C 0.06392 0.60117 0.35799 0.0
C761 C 0.06759 0.58584 0.3667 0.0
C762 C 0.07372 0.61386 0.36441 0.0
C763 C 0.08744 0.61144 0.3795 0.0
C764 C 0.09095 0.59616 0.38859 0.0
C765 C 0.08111 0.5835 0.38235 0.0
C766 C 0.12483 0.6352 0.38918 0.0
C767 C 0.11887 0.64972 0.39825 0.0
C768 C 0.11462 0.62284 0.38295 0.0
C769 C 0.09821 0.62475 0.38547 0.0
C770 C 0.09221 0.63938 0.39393 0.0
C771 C 0.10244 0.65172 0.40035 0.0
H772 H 0.56022 0.87231 0.651 0.0
H773 H 0.57452 0.88377 0.5711 0.0
H774 H 0.57923 0.85071 0.65187 0.0
H775 H 0.59379 0.86237 0.5722 0.0
H776 H 0.61861 0.81508 0.57437 0.0
H777 H 0.59692 0.834 0.57339 0.0
H778 H 0.6076 0.84773 0.65381 0.0
H779 H 0.62908 0.82855 0.65501 0.0
C780 C 0.56737 0.87018 0.63356 0.0
C781 C 0.56589 0.87982 0.61101 0.0
C782 C 0.57834 0.85785 0.63414 0.0
C783 C 0.58812 0.85486 0.61219 0.0
C784 C 0.58633 0.86422 0.58936 0.0
C785 C 0.57533 0.87655 0.58876 0.0
C786 C 0.61625 0.82203 0.59195 0.0
C787 C 0.62563 0.82035 0.61474 0.0
C788 C 0.60386 0.83295 0.59131 0.0
C789 C 0.60057 0.84246 0.61344 0.0
C790 C 0.60969 0.84047 0.6365 0.0
C791 C 0.62206 0.82952 0.63715 0.0
H792 H 0.35104 0.31509 0.90923 0.0
H793 H 0.33187 0.32478 0.83158 0.0
H794 H 0.37171 0.33451 0.90165 0.0
H795 H 0.35235 0.34443 0.82424 0.0
H796 H 0.39845 0.36995 0.81031 0.0
H797 H 0.38046 0.34799 0.81754 0.0
H798 H 0.37361 0.36301 0.89852 0.0
H799 H 0.39186 0.38479 0.89146 0.0
C800 C 0.35127 0.32131 0.89048 0.0
C801 C 0.33976 0.31843 0.87105 0.0
C802 C 0.36307 0.33251 0.88622 0.0
C803 C 0.36364 0.3411 0.86242 0.0
C804 C 0.35237 0.33791 0.84269 0.0
C805 C 0.34057 0.32669 0.84695 0.0
C806 C 0.39322 0.36849 0.82974 0.0
C807 C 0.39654 0.37917 0.85028 0.0
C808 C 0.38283 0.35595 0.83382 0.0
C809 C 0.37552 0.35379 0.85855 0.0
C810 C 0.37917 0.36422 0.8793 0.0
C811 C 0.38958 0.37677 0.87523 0.0
H812 H 0.90315 0.10693 0.15393 0.0
H813 H 0.89339 0.09685 0.07166 0.0
H814 H 0.88341 0.12787 0.15334 0.0
H815 H 0.8734 0.11759 0.07125 0.0
H816 H 0.84712 0.16424 0.07292 0.0
H817 H 0.8693 0.14588 0.07376 0.0
H818 H 0.85491 0.12983 0.15133 0.0
H819 H 0.83292 0.14841 0.15073 0.0
C820 C 0.89685 0.10922 0.13566 0.0
C821 C 0.89981 0.10016 0.11286 0.0
C822 C 0.88545 0.12117 0.13539 0.0
C823 C 0.87673 0.12435 0.11232 0.0
C824 C 0.88001 0.11558 0.08929 0.0
C825 C 0.89143 0.10362 0.08955 0.0
C826 C 0.84876 0.15689 0.09026 0.0
C827 C 0.8382 0.15776 0.11172 0.0
C828 C 0.86143 0.1463 0.09066 0.0
C829 C 0.86385 0.13632 0.11253 0.0
C830 C 0.85351 0.13747 0.13428 0.0
C831 C 0.84084 0.14808 0.13389 0.0
H832 H 0.8197 0.64224 0.83817 0.0
H833 H 0.81957 0.62328 0.91765 0.0
H834 H 0.84022 0.62337 0.8257 0.0
H835 H 0.83974 0.60423 0.90504 0.0
H836 H 0.88625 0.58153 0.88081 0.0
H837 H 0.86723 0.60197 0.89294 0.0
H838 H 0.84323 0.59538 0.81828 0.0
H839 H 0.86241 0.57528 0.80593 0.0
C840 C 0.82402 0.63403 0.85296 0.0
C841 C 0.81798 0.63426 0.87888 0.0
C842 C 0.83573 0.62317 0.84578 0.0
C843 C 0.84163 0.61226 0.86437 0.0
C844 C 0.83565 0.6126 0.89033 0.0
C845 C 0.82399 0.62347 0.89751 0.0
C846 C 0.87695 0.58449 0.86696 0.0
C847 C 0.87584 0.57674 0.84243 0.0
C848 C 0.866 0.59616 0.87395 0.0
C849 C 0.85367 0.60031 0.8566 0.0
C850 C 0.85268 0.59265 0.83197 0.0
C851 C 0.86364 0.58103 0.82497 0.0
H852 H 0.10995 0.05814 0.68249 0.0
H853 H 0.08029 0.09086 0.6395 0.0
H854 H 0.13066 0.07804 0.68479 0.0
H855 H 0.10107 0.11056 0.64129 0.0
H856 H 0.1374 0.14701 0.66144 0.0
H857 H 0.11629 0.12803 0.66927 0.0
H858 H 0.14873 0.08976 0.6533 0.0
H859 H 0.16984 0.10865 0.64608 0.0
C860 C 0.10779 0.0696 0.67371 0.0
C861 C 0.09351 0.07285 0.66062 0.0
C862 C 0.1197 0.08098 0.67492 0.0
C863 C 0.11757 0.09587 0.66309 0.0
C864 C 0.10305 0.0993 0.65089 0.0
C865 C 0.09116 0.08794 0.64969 0.0
C866 C 0.14007 0.13454 0.65999 0.0
C867 C 0.15528 0.12936 0.65289 0.0
C868 C 0.12795 0.12366 0.66433 0.0
C869 C 0.13077 0.10738 0.66169 0.0
C870 C 0.14616 0.1022 0.65577 0.0
C871 C 0.15826 0.11306 0.65145 0.0
H872 H 0.61699 0.42875 0.30285 0.0
H873 H 0.58859 0.39027 0.33234 0.0
H874 H 0.64047 0.41209 0.30554 0.0
H875 H 0.61207 0.37377 0.33551 0.0
H876 H 0.65537 0.3438 0.32188 0.0
H877 H 0.63253 0.36009 0.31065 0.0
H878 H 0.65653 0.4012 0.34094 0.0
H879 H 0.67942 0.38503 0.35165 0.0
C880 C 0.61573 0.41672 0.30976 0.0
C881 C 0.60092 0.41089 0.31756 0.0
C882 C 0.6292 0.40719 0.31142 0.0
C883 C 0.62818 0.39162 0.32088 0.0
C884 C 0.61328 0.38564 0.32784 0.0
C885 C 0.59981 0.39516 0.3262 0.0
C886 C 0.65585 0.35635 0.32583 0.0
C887 C 0.66919 0.36309 0.33784 0.0
C888 C 0.64271 0.36567 0.31954 0.0
C889 C 0.64264 0.38194 0.32506 0.0
C890 C 0.65623 0.38875 0.33614 0.0
C891 C 0.66934 0.37944 0.34245 0.0
H892 H 0.37635 0.91728 0.08352 0.0
H893 H 0.41238 0.88245 0.06697 0.0
H894 H 0.35602 0.89768 0.07545 0.0
H895 H 0.39196 0.86288 0.05825 0.0
H896 H 0.3522 0.829 0.08506 0.0
H897 H 0.3733 0.84838 0.08492 0.0
H898 H 0.34315 0.88117 0.04308 0.0
H899 H 0.32185 0.86186 0.04377 0.0
C900 C 0.37994 0.9055 0.07774 0.0
C901 C 0.396 0.9014 0.07615 0.0
C902 C 0.36826 0.89426 0.07293 0.0
C903 C 0.37235 0.87866 0.06634 0.0
C904 C 0.38841 0.87473 0.06369 0.0
C905 C 0.40011 0.88597 0.06855 0.0
C906 C 0.35009 0.84028 0.07559 0.0
C907 C 0.33527 0.84393 0.06465 0.0
C908 C 0.36225 0.85137 0.07534 0.0
C909 C 0.35991 0.86637 0.06409 0.0
C910 C 0.34527 0.86981 0.05226 0.0
C911 C 0.33308 0.85871 0.05254 0.0
H912 H 0.85779 0.4169 0.57066 0.0
H913 H 0.89611 0.38441 0.55528 0.0
H914 H 0.83883 0.39608 0.56183 0.0
H915 H 0.87707 0.3636 0.54587 0.0
H916 H 0.83913 0.32737 0.5718 0.0
H917 H 0.85896 0.34804 0.57235 0.0
H918 H 0.82751 0.37873 0.52879 0.0
H919 H 0.80747 0.3581 0.52871 0.0
C920 C 0.86218 0.40538 0.56497 0.0
C921 C 0.87848 0.40229 0.56394 0.0
C922 C 0.85129 0.39344 0.55973 0.0
C923 C 0.85642 0.37813 0.5533 0.0
C924 C 0.87273 0.37521 0.55117 0.0
C925 C 0.88364 0.38716 0.55641 0.0
C926 C 0.83647 0.33846 0.56211 0.0
C927 C 0.82164 0.34112 0.55042 0.0
C928 C 0.84791 0.3503 0.56226 0.0
C929 C 0.84482 0.36508 0.55069 0.0
C930 C 0.83019 0.36755 0.53819 0.0
C931 C 0.81873 0.3557 0.53804 0.0
H932 H 0.40405 0.09609 0.36023 0.0
H933 H 0.3689 0.06304 0.33291 0.0
H934 H 0.38327 0.11539 0.36947 0.0
H935 H 0.34825 0.08234 0.34187 0.0
H936 H 0.31463 0.11406 0.38869 0.0
H937 H 0.33568 0.09514 0.3801 0.0
H938 H 0.36385 0.13202 0.34494 0.0
H939 H 0.34279 0.15109 0.3538 0.0
C940 C 0.39191 0.09293 0.35626 0.0
C941 C 0.38813 0.07802 0.34588 0.0
C942 C 0.38002 0.10402 0.36136 0.0
C943 C 0.36412 0.10039 0.35637 0.0
C944 C 0.36037 0.08544 0.3462 0.0
C945 C 0.37223 0.0744 0.34097 0.0
C946 C 0.32529 0.11817 0.37908 0.0
C947 C 0.32701 0.13409 0.37189 0.0
C948 C 0.33733 0.10729 0.37407 0.0
C949 C 0.35142 0.11208 0.36182 0.0
C950 C 0.35319 0.12801 0.35466 0.0
C951 C 0.34108 0.1389 0.35956 0.0
H952 H 0.58892 0.56542 0.07415 0.0
H953 H 0.6303 0.54028 0.1013 0.0
H954 H 0.60533 0.58806 0.0628 0.0
H955 H 0.64659 0.56297 0.09053 0.0
H956 H 0.6742 0.60276 0.05438 0.0
H957 H 0.65729 0.57952 0.05579 0.0
H958 H 0.61939 0.60786 0.08799 0.0
H959 H 0.63613 0.63109 0.08606 0.0
C960 C 0.60153 0.56466 0.07747 0.0
C961 C 0.60828 0.55109 0.08886 0.0
C962 C 0.61092 0.57767 0.07111 0.0
C963 C 0.62726 0.57739 0.07596 0.0
C964 C 0.63408 0.56355 0.08627 0.0
C965 C 0.6247 0.55055 0.09262 0.0
C966 C 0.66219 0.60407 0.06145 0.0
C967 C 0.65656 0.61877 0.07031 0.0
C968 C 0.65253 0.59073 0.06238 0.0
C969 C 0.63701 0.59179 0.07217 0.0
C970 C 0.63121 0.60662 0.08005 0.0
C971 C 0.64086 0.61995 0.07912 0.0
H972 H 0.15253 0.83613 0.84721 0.0
H973 H 0.15596 0.8608 0.92188 0.0
H974 H 0.1322 0.85467 0.83273 0.0
H975 H 0.13597 0.8795 0.90719 0.0
H976 H 0.08894 0.90129 0.8828 0.0
H977 H 0.10813 0.8816 0.8974 0.0
H978 H 0.12957 0.882 0.81972 0.0
H979 H 0.11021 0.90135 0.80498 0.0
C980 C 0.14899 0.84553 0.8605 0.0
C981 C 0.15589 0.84699 0.88569 0.0
C982 C 0.13739 0.85621 0.85216 0.0
C983 C 0.13245 0.86859 0.86879 0.0
C984 C 0.13931 0.86998 0.89402 0.0
C985 C 0.15087 0.8593 0.90237 0.0
C986 C 0.09772 0.89714 0.86884 0.0
C987 C 0.09805 0.90291 0.84274 0.0
C988 C 0.10878 0.88591 0.87724 0.0
C989 C 0.12041 0.88022 0.85974 0.0
C990 C 0.12065 0.88594 0.83361 0.0
C991 C 0.1096 0.89714 0.82521 0.0
H992 H 0.24968 0.29196 0.9222 0.0
H993 H 0.27922 0.25808 0.96275 0.0
H994 H 0.2319 0.29262 0.96001 0.0
H995 H 0.26173 0.25917 0.0011 0.0
H996 H 0.21967 0.25562 0.05783 0.0
H997 H 0.23623 0.25282 0.01848 0.0
H998 H 0.23182 0.30287 0.0036 0.0
H999 H 0.21492 0.30553 0.04214 0.0
C1000 C 0.25239 0.28466 0.93922 0.0
C1001 C 0.26592 0.27505 0.93954 0.0
C1002 C 0.24224 0.28511 0.96101 0.0
C1003 C 0.24547 0.27611 0.9838 0.0
C1004 C 0.25879 0.26615 0.98382 0.0
C1005 C 0.26887 0.26558 0.96187 0.0
C1006 C 0.22225 0.266 0.0461 0.0
C1007 C 0.21591 0.28078 0.05306 0.0
C1008 C 0.23179 0.26442 0.02361 0.0
C1009 C 0.23529 0.2776 0.00771 0.0
C1010 C 0.2291 0.29239 0.01496 0.0
C1011 C 0.21948 0.29394 0.03724 0.0
H1012 H 0.9164 0.01822 0.15968 0.0
H1013 H 0.96695 0.01218 0.15395 0.0
H1014 H 0.91566 -0.00026 0.19641 0.0
H1015 H 0.96628 -0.006 0.19144 0.0
H1016 H 0.95619 0.95012 0.24263 0.0
H1017 H 0.95784 0.9682 0.20512 0.0
H1018 H 0.9229 -0.00165 0.24185 0.0
H1019 H 0.92088 0.98007 0.27879 0.0
C1020 C 0.92739 0.01299 0.16633 0.0
C1021 C 0.94175 0.01673 0.15392 0.0
C1022 C 0.92698 0.00246 0.18756 0.0
C1023 C 0.94093 -0.00451 0.19712 0.0
C1024 C 0.95529 -0.00096 0.18445 0.0
C1025 C 0.95569 0.00951 0.16302 0.0
C1026 C 0.94891 0.96065 0.24272 0.0
C1027 C 0.93833 0.9636 0.26361 0.0
C1028 C 0.94991 0.97105 0.22127 0.0
C1029 C 0.94041 0.98468 0.22033 0.0
C1030 C 0.93013 -0.0122 0.2416 0.0
C1031 C 0.92905 0.97736 0.2629 0.0
H1032 H 0.18367 0.69172 0.49936 0.0
H1033 H 0.22299 0.69719 0.44553 0.0
H1034 H 0.20125 0.69603 0.5368 0.0
H1035 H 0.24059 0.70129 0.4831 0.0
H1036 H 0.26593 0.71966 0.55663 0.0
H1037 H 0.24693 0.7194 0.52021 0.0
H1038 H 0.22253 0.68049 0.55717 0.0
H1039 H 0.2413 0.68084 0.59356 0.0
C1040 C 0.19604 0.69394 0.49547 0.0
C1041 C 0.20194 0.69398 0.46943 0.0
C1042 C 0.20612 0.69635 0.51695 0.0
C1043 C 0.22232 0.69889 0.51291 0.0
C1044 C 0.22814 0.6995 0.48685 0.0
C1045 C 0.21806 0.69705 0.46533 0.0
C1046 C 0.2564 0.71117 0.55711 0.0
C1047 C 0.25516 0.70023 0.57795 0.0
C1048 C 0.24559 0.71096 0.53617 0.0
C1049 C 0.23325 0.69991 0.5358 0.0
C1050 C 0.23178 0.68928 0.55702 0.0
C1051 C 0.24262 0.68942 0.57781 0.0
H1052 H 0.5001 0.95634 0.66754 0.0
H1053 H 0.54849 0.96798 0.64885 0.0
H1054 H 0.50059 0.97514 0.70423 0.0
H1055 H 0.54896 0.9866 0.68551 0.0
H1056 H 0.54082 0.02863 0.73853 0.0
H1057 H 0.53726 0.01198 0.6997 0.0
H1058 H 0.51415 0.9769 0.74803 0.0
H1059 H 0.51754 -0.00639 0.78696 0.0
C1060 C 0.51079 0.96297 0.67112 0.0
C1061 C 0.52427 0.96063 0.65532 0.0
C1062 C 0.51109 0.97367 0.69221 0.0
C1063 C 0.52481 0.98233 0.69773 0.0
C1064 C 0.53815 0.98023 0.68156 0.0
C1065 C 0.5379 0.96948 0.66065 0.0
C1066 C 0.53483 0.01744 0.74089 0.0
C1067 C 0.52958 0.0124 0.76592 0.0
C1068 C 0.53286 0.00788 0.71863 0.0
C1069 C 0.52554 -0.0069 0.72086 0.0
C1070 C 0.51974 -0.0117 0.74567 0.0
C1071 C 0.52176 -0.00216 0.76799 0.0
H1072 H 0.72105 0.67142 0.93378 0.0
H1073 H 0.76395 0.69247 0.96344 0.0
H1074 H 0.70852 0.6755 0.97686 0.0
H1075 H 0.7514 0.6965 0.00639 0.0
H1076 H 0.71894 0.71398 0.07262 0.0
H1077 H 0.72955 0.71192 0.02776 0.0
H1078 H 0.71257 0.66404 0.02261 0.0
H1079 H 0.70243 0.66592 0.06762 0.0
C1080 C 0.72776 0.67705 0.94938 0.0
C1081 C 0.74352 0.68157 0.9452 0.0
C1082 C 0.7206 0.6793 0.97407 0.0
C1083 C 0.729 0.68628 -0.00502 0.0
C1084 C 0.74459 0.69122 -0.00943 0.0
C1085 C 0.7518 0.68883 0.966 0.0
C1086 C 0.71739 0.70304 0.06185 0.0
C1087 C 0.70948 0.69023 0.07352 0.0
C1088 C 0.72348 0.70187 0.0362 0.0
C1089 C 0.72178 0.68786 0.02162 0.0
C1090 C 0.71375 0.6751 0.03316 0.0
C1091 C 0.70778 0.67623 0.05891 0.0
H1092 H 0.05183 -0.00172 0.78595 0.0
H1093 H 0.03825 0.95313 0.75349 0.0
H1094 H 0.04649 0.01074 0.74321 0.0
H1095 H 0.03298 0.9656 0.7109 0.0
H1096 H 0.01155 -0.00421 0.64516 0.0
H1097 H 0.01465 0.98494 0.68967 0.0
H1098 H 0.05893 0.00953 0.69789 0.0
H1099 H 0.05607 0.01999 0.65322 0.0
C1100 C 0.04758 -0.00896 0.7698 0.0
C1101 C 0.04551 0.9747 0.77312 0.0
C1102 C 0.04462 -0.00183 0.7453 0.0
C1103 C 0.03935 -0.01086 0.72372 0.0
C1104 C 0.03688 0.97289 0.72724 0.0
C1105 C 0.03999 0.96574 0.75162 0.0
C1106 C 0.0219 -0.00104 0.65654 0.0
C1107 C 0.03338 0.00908 0.64584 0.0
C1108 C 0.02368 -0.00727 0.68199 0.0
C1109 C 0.03698 -0.00353 0.69732 0.0
C1110 C 0.04838 0.00671 0.68676 0.0
C1111 C 0.04666 0.01285 0.66121 0.0
H1112 H 0.7487 0.28649 0.41289 0.0
H1113 H 0.71212 0.31439 0.45016 0.0
H1114 H 0.75861 0.27888 0.45651 0.0
H1115 H 0.72217 0.30699 0.49354 0.0
H1116 H 0.73366 0.27753 0.56634 0.0
H1117 H 0.72396 0.28388 0.52211 0.0
H1118 H 0.7719 0.29033 0.49509 0.0
H1119 H 0.78159 0.28333 0.53907 0.0
C1120 C 0.74279 0.29102 0.43034 0.0
C1121 C 0.7296 0.30103 0.42799 0.0
C1122 C 0.74853 0.28673 0.45534 0.0
C1123 C 0.74116 0.2923 0.4785 0.0
C1124 C 0.72798 0.3023 0.47611 0.0
C1125 C 0.72228 0.30662 0.45119 0.0
C1126 C 0.74212 0.28026 0.55092 0.0
C1127 C 0.75838 0.28032 0.55637 0.0
C1128 C 0.73657 0.28401 0.52564 0.0
C1129 C 0.74715 0.2878 0.50514 0.0
C1130 C 0.76344 0.28747 0.51043 0.0
C1131 C 0.76899 0.28375 0.53578 0.0
H1132 H 0.44132 -0.01054 0.29468 0.0
H1133 H 0.44895 0.03236 0.25021 0.0
H1134 H 0.44332 0.97418 0.25404 0.0
H1135 H 0.4514 0.017 0.20963 0.0
H1136 H 0.43163 0.98687 0.14131 0.0
H1137 H 0.43378 0.00262 0.18138 0.0
H1138 H 0.46026 0.96514 0.21893 0.0
H1139 H 0.45772 0.94917 0.17901 0.0
C1140 C 0.44369 -0.00438 0.2763 0.0
C1141 C 0.44482 0.01216 0.27569 0.0
C1142 C 0.44493 0.98683 0.25298 0.0
C1143 C 0.44741 -0.00564 0.2285 0.0
C1144 C 0.44919 0.01085 0.22807 0.0
C1145 C 0.44788 0.01965 0.25137 0.0
C1146 C 0.43803 0.98202 0.15802 0.0
C1147 C 0.4444 0.96671 0.157 0.0
C1148 C 0.43936 -0.00889 0.18097 0.0
C1149 C 0.44716 0.98514 0.20344 0.0
C1150 C 0.45396 0.97001 0.20213 0.0
C1151 C 0.45258 0.96088 0.17919 0.0
H1152 H 0.71679 0.80179 0.58472 0.0
H1153 H 0.70283 0.75508 0.5598 0.0
H1154 H 0.73743 0.80193 0.55113 0.0
H1155 H 0.72361 0.75524 0.52619 0.0
H1156 H 0.74879 0.7723 0.44896 0.0
H1157 H 0.72914 0.76998 0.48413 0.0
H1158 H 0.76269 0.78831 0.54052 0.0
H1159 H 0.78231 0.79075 0.50546 0.0
C1160 C 0.71818 0.79151 0.57218 0.0
C1161 C 0.70814 0.77843 0.57491 0.0
C1162 C 0.73007 0.79156 0.55304 0.0
C1163 C 0.73213 0.77859 0.53605 0.0
C1164 C 0.7222 0.76545 0.53888 0.0
C1165 C 0.71037 0.76533 0.55822 0.0
C1166 C 0.75201 0.77573 0.46888 0.0
C1167 C 0.7671 0.7818 0.47435 0.0
C1168 C 0.74078 0.77432 0.48904 0.0
C1169 C 0.74437 0.77904 0.51503 0.0
C1170 C 0.75954 0.78477 0.52061 0.0
C1171 C 0.77079 0.78609 0.50052 0.0
H1172 H 0.41225 0.46636 0.79694 0.0
H1173 H 0.46294 0.4622 0.7902 0.0
H1174 H 0.41205 0.48551 0.76113 0.0
H1175 H 0.46269 0.48106 0.75366 0.0
H1176 H 0.45725 0.52722 0.70632 0.0
H1177 H 0.45839 0.50833 0.74273 0.0
H1178 H 0.41557 0.48653 0.71436 0.0
H1179 H 0.41416 0.50568 0.67858 0.0
C1180 C 0.42337 0.46949 0.78775 0.0
C1181 C 0.43761 0.4627 0.79639 0.0
C1182 C 0.42324 0.48041 0.76705 0.0
C1183 C 0.43733 0.48472 0.75428 0.0
C1184 C 0.45163 0.47812 0.76319 0.0
C1185 C 0.45177 0.46726 0.78408 0.0
C1186 C 0.44812 0.51834 0.7078 0.0
C1187 C 0.43556 0.51802 0.68963 0.0
C1188 C 0.44881 0.50747 0.72863 0.0
C1189 C 0.43701 0.49597 0.73164 0.0
C1190 C 0.42468 0.49543 0.71302 0.0
C1191 C 0.42393 0.50636 0.69236 0.0
H1192 H 0.78061 0.20965 0.02689 0.0
H1193 H 0.74499 0.18718 0.07509 0.0
H1194 H 0.76298 0.20845 -0.0114 0.0
H1195 H 0.7273 0.18628 0.03685 0.0
H1196 H 0.69587 0.20171 0.96598 0.0
H1197 H 0.71308 0.20625 0.00414 0.0
H1198 H 0.75166 0.18383 0.96272 0.0
H1199 H 0.73444 0.179 0.92476 0.0
C1200 C 0.76894 0.20468 0.02941 0.0
C1201 C 0.7642 0.19845 0.05396 0.0
C1202 C 0.75891 0.20394 0.00749 0.0
C1203 C 0.74384 0.19725 0.00985 0.0
C1204 C 0.73885 0.19158 0.0346 0.0
C1205 C 0.74899 0.19203 0.05641 0.0
C1206 C 0.70806 0.19787 0.96494 0.0
C1207 C 0.7138 0.18995 0.94242 0.0
C1208 C 0.71786 0.20041 -0.01321 0.0
C1209 C 0.73365 0.19539 0.98628 0.0
C1210 C 0.73954 0.18791 0.96349 0.0
C1211 C 0.72967 0.18508 0.94186 0.0
H1212 H 0.04976 0.49657 0.29194 0.0
H1213 H 0.01088 0.5244 0.26189 0.0
H1214 H 0.04883 0.48007 0.25259 0.0
H1215 H 0.01027 0.50816 0.22203 0.0
H1216 H 0.00444 0.46595 0.16557 0.0
H1217 H 0.00415 0.4823 0.20535 0.0
H1218 H 0.05515 0.48175 0.20666 0.0
H1219 H 0.05543 0.46506 0.16756 0.0
C1220 C 0.04103 0.4992 0.2769 0.0
C1221 C 0.03044 0.51184 0.28002 0.0
C1222 C 0.04056 0.4898 0.25422 0.0
C1223 C 0.02958 0.49288 0.23398 0.0
C1224 C 0.01879 0.50536 0.23732 0.0
C1225 C 0.01918 0.51471 0.26013 0.0
C1226 C 0.01559 0.46938 0.17431 0.0
C1227 C 0.02995 0.46412 0.16348 0.0
C1228 C 0.01542 0.4788 0.19707 0.0
C1229 C 0.02963 0.48324 0.20936 0.0
C1230 C 0.04398 0.47827 0.19809 0.0
C1231 C 0.04414 0.46878 0.17551 0.0
H1232 H 0.20102 0.17201 0.54168 0.0
H1233 H 0.23076 0.20778 0.57656 0.0
H1234 H 0.21558 0.17418 0.50029 0.0
H1235 H 0.24543 0.20982 0.53499 0.0
H1236 H 0.25951 0.21759 0.44738 0.0
H1237 H 0.24277 0.21768 0.48694 0.0
H1238 H 0.24279 0.16674 0.48706 0.0
H1239 H 0.25936 0.16658 0.44771 0.0
C1240 C 0.21059 0.18042 0.54051 0.0
C1241 C 0.2148 0.18963 0.56255 0.0
C1242 C 0.21898 0.18161 0.51679 0.0
C1243 C 0.23172 0.19207 0.51448 0.0
C1244 C 0.23559 0.20172 0.53615 0.0
C1245 C 0.22724 0.20048 0.56 0.0
C1246 C 0.25585 0.20642 0.45577 0.0
C1247 C 0.26078 0.19208 0.4444 0.0
C1248 C 0.24635 0.20649 0.47848 0.0
C1249 C 0.24145 0.19222 0.49004 0.0
C1250 C 0.24621 0.17792 0.47842 0.0
C1251 C 0.25579 0.17784 0.45595 0.0
H1252 H 0.5368 0.43924 0.29594 0.0
H1253 H 0.5217 0.48596 0.31891 0.0
H1254 H 0.54329 0.449 0.25177 0.0
H1255 H 0.5276 0.49561 0.27449 0.0
H1256 H 0.55784 0.5108 0.20393 0.0
H1257 H 0.55098 0.50066 0.24748 0.0
H1258 H 0.53058 0.45928 0.21141 0.0
H1259 H 0.53765 0.46933 0.16762 0.0
C1260 C 0.53507 0.45162 0.29169 0.0
C1261 C 0.52916 0.46192 0.31113 0.0
C1262 C 0.53851 0.45716 0.26622 0.0
C1263 C 0.53607 0.47311 0.25967 0.0
C1264 C 0.52986 0.48332 0.27902 0.0
C1265 C 0.52638 0.47777 0.30441 0.0
C1266 C 0.55187 0.49954 0.20519 0.0
C1267 C 0.5483 0.49088 0.18222 0.0
C1268 C 0.54786 0.49377 0.23021 0.0
C1269 C 0.5402 0.47918 0.23293 0.0
C1270 C 0.53661 0.47049 0.20999 0.0
C1271 C 0.54059 0.4763 0.18489 0.0
H1272 H 0.2535 0.80403 0.93732 0.0
H1273 H 0.20992 0.78909 0.97402 0.0
H1274 H 0.26758 0.79877 0.9787 0.0
H1275 H 0.22395 0.78395 0.01517 0.0
H1276 H 0.25589 0.76256 0.07739 0.0
H1277 H 0.24411 0.76578 0.03364 0.0
H1278 H 0.26799 0.8104 0.0246 0.0
H1279 H 0.2795 0.80734 0.06854 0.0
C1280 C 0.24694 0.79954 0.95412 0.0
C1281 C 0.23058 0.79701 0.95237 0.0
C1282 C 0.25499 0.79661 0.97783 0.0
C1283 C 0.24687 0.79093 0.00015 0.0
C1284 C 0.23057 0.78814 -0.00178 0.0
C1285 C 0.22252 0.79119 0.97466 0.0
C1286 C 0.25875 0.77299 0.06596 0.0
C1287 C 0.26888 0.78456 0.07629 0.0
C1288 C 0.25197 0.77485 0.04095 0.0
C1289 C 0.25514 0.78834 0.02569 0.0
C1290 C 0.26556 0.79974 0.03571 0.0
C1291 C 0.27228 0.79792 0.06084 0.0
H1292 H 0.95873 0.50482 0.7778 0.0
H1293 H 0.90806 0.50645 0.76825 0.0
H1294 H 0.96084 0.48845 0.73793 0.0
H1295 H 0.91021 0.49025 0.72871 0.0
H1296 H 0.91741 0.4479 0.67627 0.0
H1297 H 0.91767 0.4626 0.7176 0.0
H1298 H 0.95592 0.49128 0.68833 0.0
H1299 H 0.95579 0.47647 0.64672 0.0
C1300 C 0.94807 0.50167 0.76728 0.0
C1301 C 0.93323 0.50693 0.77623 0.0
C1302 C 0.94929 0.49238 0.74442 0.0
C1303 C 0.93568 0.48802 0.73032 0.0
C1304 C 0.92088 0.49324 0.73936 0.0
C1305 C 0.91967 0.50261 0.76196 0.0
C1306 C 0.92599 0.45725 0.67861 0.0
C1307 C 0.93649 0.4611 0.65803 0.0
C1308 C 0.92608 0.46571 0.7023 0.0
C1309 C 0.93671 0.47818 0.70608 0.0
C1310 C 0.94765 0.48167 0.68598 0.0
C1311 C 0.94751 0.47324 0.66213 0.0
loop_
_geom_bond_atom_site_label_1
_geom_bond_atom_site_label_2
_geom_bond_distance
_geom_bond_site_symmetry_2
_ccdc_geom_bond_type
O0 Cd1 2.300 . S
O0 C7 1.275 . S
Cd1 O0 2.300 . S
Cd1 O9 2.381 . S
Cd1 O10 2.378 . S
O2 Cd3 2.385 . S
O2 C7 1.255 . S
Cd3 O2 2.385 . S
Cd3 O4 2.317 . S
O4 Cd3 2.317 . S
O4 C5 1.232 . S
C5 O4 1.232 . S
C5 O6 1.218 . S
O6 C5 1.218 . S
C7 O0 1.275 . S
C7 O2 1.255 . S
C8 O9 1.258 . S
C8 O10 1.256 . S
O9 Cd1 2.381 . S
O9 C8 1.258 . S
O10 Cd1 2.378 . S
O10 C8 1.256 . S
O11 Cd12 2.300 . S
O11 C18 1.275 . S
Cd12 O11 2.300 . S
Cd12 O20 2.381 . S
Cd12 O21 2.378 . S
O13 Cd14 2.385 . S
O13 C18 1.255 . S
Cd14 O13 2.385 . S
Cd14 O15 2.317 . S
O15 Cd14 2.317 . S
O15 C16 1.232 . S
C16 O15 1.232 . S
C16 O17 1.218 . S
O17 C16 1.218 . S
C18 O11 1.275 . S
C18 O13 1.255 . S
C19 O20 1.258 . S
C19 O21 1.256 . S
O20 Cd12 2.381 . S
O20 C19 1.258 . S
O21 Cd12 2.378 . S
O21 C19 1.256 . S
O22 Cd23 2.300 . S
O22 C29 1.275 . S
Cd23 O22 2.300 . S
Cd23 O31 2.381 . S
Cd23 O32 2.378 . S
O24 Cd25 2.385 . S
O24 C29 1.255 . S
Cd25 O24 2.385 . S
Cd25 O26 2.317 . S
O26 Cd25 2.317 . S
O26 C27 1.232 . S
C27 O26 1.232 . S
C27 O28 1.218 . S
O28 C27 1.218 . S
C29 O22 1.275 . S
C29 O24 1.255 . S
C30 O31 1.258 . S
C30 O32 1.256 . S
O31 Cd23 2.381 . S
O31 C30 1.258 . S
O32 Cd23 2.378 . S
O32 C30 1.256 . S
O33 Cd34 2.300 . S
O33 C40 1.275 . S
Cd34 O33 2.300 . S
Cd34 O42 2.381 . S
Cd34 O43 2.378 . S
O35 Cd36 2.385 . S
O35 C40 1.255 . S
Cd36 O35 2.385 . S
Cd36 O37 2.317 . S
O37 Cd36 2.317 . S
O37 C38 1.232 . S
C38 O37 1.232 . S
C38 O39 1.218 . S
O39 C38 1.218 . S
C40 O33 1.275 . S
C40 O35 1.255 . S
C41 O42 1.258 . S
C41 O43 1.256 . S
O42 Cd34 2.381 . S
O42 C41 1.258 . S
O43 Cd34 2.378 . S
O43 C41 1.256 . S
O44 Cd45 2.300 . S
O44 C51 1.275 . S
Cd45 O44 2.300 . S
Cd45 O53 2.381 . S
Cd45 O54 2.378 . S
O46 Cd47 2.385 . S
O46 C51 1.255 . S
Cd47 O46 2.385 . S
Cd47 O48 2.317 . S
O48 Cd47 2.317 . S
O48 C49 1.232 . S
C49 O48 1.232 . S
C49 O50 1.218 . S
O50 C49 1.218 . S
C51 O44 1.275 . S
C51 O46 1.255 . S
C52 O53 1.258 . S
C52 O54 1.256 . S
O53 Cd45 2.381 . S
O53 C52 1.258 . S
O54 Cd45 2.378 . S
O54 C52 1.256 . S
O55 Cd56 2.300 . S
O55 C62 1.275 . S
Cd56 O55 2.300 . S
Cd56 O64 2.381 . S
Cd56 O65 2.378 . S
O57 Cd58 2.385 . S
O57 C62 1.255 . S
Cd58 O57 2.385 . S
Cd58 O59 2.317 . S
O59 Cd58 2.317 . S
O59 C60 1.232 . S
C60 O59 1.232 . S
C60 O61 1.218 . S
O61 C60 1.218 . S
C62 O55 1.275 . S
C62 O57 1.255 . S
C63 O64 1.258 . S
C63 O65 1.256 . S
O64 Cd56 2.381 . S
O64 C63 1.258 . S
O65 Cd56 2.378 . S
O65 C63 1.256 . S
O66 Cd67 2.300 . S
O66 C73 1.275 . S
Cd67 O66 2.300 . S
Cd67 O75 2.381 . S
Cd67 O76 2.378 . S
O68 Cd69 2.385 . S
O68 C73 1.255 . S
Cd69 O68 2.385 . S
Cd69 O70 2.317 . S
O70 Cd69 2.317 . S
O70 C71 1.232 . S
C71 O70 1.232 . S
C71 O72 1.218 . S
O72 C71 1.218 . S
C73 O66 1.275 . S
C73 O68 1.255 . S
C74 O75 1.258 . S
C74 O76 1.256 . S
O75 Cd67 2.381 . S
O75 C74 1.258 . S
O76 Cd67 2.378 . S
O76 C74 1.256 . S
O77 Cd78 2.300 . S
O77 C84 1.275 . S
Cd78 O77 2.300 . S
Cd78 O86 2.381 . S
Cd78 O87 2.378 . S
O79 Cd80 2.385 . S
O79 C84 1.255 . S
Cd80 O79 2.385 . S
Cd80 O81 2.317 . S
O81 Cd80 2.317 . S
O81 C82 1.232 . S
C82 O81 1.232 . S
C82 O83 1.218 . S
O83 C82 1.218 . S
C84 O77 1.275 . S
C84 O79 1.255 . S
C85 O86 1.258 . S
C85 O87 1.256 . S
O86 Cd78 2.381 . S
O86 C85 1.258 . S
O87 Cd78 2.378 . S
O87 C85 1.256 . S
O88 Cd89 2.300 . S
O88 C95 1.275 . S
Cd89 O88 2.300 . S
Cd89 O97 2.381 . S
Cd89 O98 2.378 . S
O90 Cd91 2.385 . S
O90 C95 1.255 . S
Cd91 O90 2.385 . S
Cd91 O92 2.317 . S
O92 Cd91 2.317 . S
O92 C93 1.232 . S
C93 O92 1.232 . S
C93 O94 1.218 . S
O94 C93 1.218 . S
C95 O88 1.275 . S
C95 O90 1.255 . S
C96 O97 1.258 . S
C96 O98 1.256 . S
O97 Cd89 2.381 . S
O97 C96 1.258 . S
O98 Cd89 2.378 . S
O98 C96 1.256 . S
O99 Cd100 2.300 . S
O99 C106 1.275 . S
Cd100 O99 2.300 . S
Cd100 O108 2.381 . S
Cd100 O109 2.378 . S
O101 Cd102 2.385 . S
O101 C106 1.255 . S
Cd102 O101 2.385 . S
Cd102 O103 2.317 . S
O103 Cd102 2.317 . S
O103 C104 1.232 . S
C104 O103 1.232 . S
C104 O105 1.218 . S
O105 C104 1.218 . S
C106 O99 1.275 . S
C106 O101 1.255 . S
C107 O108 1.258 . S
C107 O109 1.256 . S
O108 Cd100 2.381 . S
O108 C107 1.258 . S
O109 Cd100 2.378 . S
O109 C107 1.256 . S
O110 Cd111 2.300 . S
O110 C117 1.275 . S
Cd111 O110 2.300 . S
Cd111 O119 2.381 . S
Cd111 O120 2.378 . S
O112 Cd113 2.385 . S
O112 C117 1.255 . S
Cd113 O112 2.385 . S
Cd113 O114 2.317 . S
O114 Cd113 2.317 . S
O114 C115 1.232 . S
C115 O114 1.232 . S
C115 O116 1.218 . S
O116 C115 1.218 . S
C117 O110 1.275 . S
C117 O112 1.255 . S
C118 O119 1.258 . S
C118 O120 1.256 . S
O119 Cd111 2.381 . S
O119 C118 1.258 . S
O120 Cd111 2.378 . S
O120 C118 1.256 . S
O121 Cd122 2.300 . S
O121 C128 1.275 . S
Cd122 O121 2.300 . S
Cd122 O130 2.381 . S
Cd122 O131 2.378 . S
O123 Cd124 2.385 . S
O123 C128 1.255 . S
Cd124 O123 2.385 . S
Cd124 O125 2.317 . S
O125 Cd124 2.317 . S
O125 C126 1.232 . S
C126 O125 1.232 . S
C126 O127 1.218 . S
O127 C126 1.218 . S
C128 O121 1.275 . S
C128 O123 1.255 . S
C129 O130 1.258 . S
C129 O131 1.256 . S
O130 Cd122 2.381 . S
O130 C129 1.258 . S
O131 Cd122 2.378 . S
O131 C129 1.256 . S
O132 Cd133 2.300 . S
O132 C139 1.275 . S
Cd133 O132 2.300 . S
Cd133 O141 2.381 . S
Cd133 O142 2.378 . S
O134 Cd135 2.385 . S
O134 C139 1.255 . S
Cd135 O134 2.385 . S
Cd135 O136 2.317 . S
O136 Cd135 2.317 . S
O136 C137 1.232 . S
C137 O136 1.232 . S
C137 O138 1.218 . S
O138 C137 1.218 . S
C139 O132 1.275 . S
C139 O134 1.255 . S
C140 O141 1.258 . S
C140 O142 1.256 . S
O141 Cd133 2.381 . S
O141 C140 1.258 . S
O142 Cd133 2.378 . S
O142 C140 1.256 . S
O143 Cd144 2.300 . S
O143 C150 1.275 . S
Cd144 O143 2.300 . S
Cd144 O152 2.381 . S
Cd144 O153 2.378 . S
O145 Cd146 2.385 . S
O145 C150 1.255 . S
Cd146 O145 2.385 . S
Cd146 O147 2.317 . S
O147 Cd146 2.317 . S
O147 C148 1.232 . S
C148 O147 1.232 . S
C148 O149 1.218 . S
O149 C148 1.218 . S
C150 O143 1.275 . S
C150 O145 1.255 . S
C151 O152 1.258 . S
C151 O153 1.256 . S
O152 Cd144 2.381 . S
O152 C151 1.258 . S
O153 Cd144 2.378 . S
O153 C151 1.256 . S
O154 Cd155 2.300 . S
O154 C161 1.275 . S
Cd155 O154 2.300 . S
Cd155 O163 2.381 . S
Cd155 O164 2.378 . S
O156 Cd157 2.385 . S
O156 C161 1.255 . S
Cd157 O156 2.385 . S
Cd157 O158 2.317 . S
O158 Cd157 2.317 . S
O158 C159 1.232 . S
C159 O158 1.232 . S
C159 O160 1.218 . S
O160 C159 1.218 . S
C161 O154 1.275 . S
C161 O156 1.255 . S
C162 O163 1.258 . S
C162 O164 1.256 . S
O163 Cd155 2.381 . S
O163 C162 1.258 . S
O164 Cd155 2.378 . S
O164 C162 1.256 . S
O165 Cd166 2.300 . S
O165 C172 1.275 . S
Cd166 O165 2.300 . S
Cd166 O174 2.381 . S
Cd166 O175 2.378 . S
O167 Cd168 2.385 . S
O167 C172 1.255 . S
Cd168 O167 2.385 . S
Cd168 O169 2.317 . S
O169 Cd168 2.317 . S
O169 C170 1.232 . S
C170 O169 1.232 . S
C170 O171 1.218 . S
O171 C170 1.218 . S
C172 O165 1.275 . S
C172 O167 1.255 . S
C173 O174 1.258 . S
C173 O175 1.256 . S
O174 Cd166 2.381 . S
O174 C173 1.258 . S
O175 Cd166 2.378 . S
O175 C173 1.256 . S
O176 Cd177 2.300 . S
O176 C183 1.275 . S
Cd177 O176 2.300 . S
Cd177 O185 2.381 . S
Cd177 O186 2.378 . S
O178 Cd179 2.385 . S
O178 C183 1.255 . S
Cd179 O178 2.385 . S
Cd179 O180 2.317 . S
O180 Cd179 2.317 . S
O180 C181 1.232 . S
C181 O180 1.232 . S
C181 O182 1.218 . S
O182 C181 1.218 . S
C183 O176 1.275 . S
C183 O178 1.255 . S
C184 O185 1.258 . S
C184 O186 1.256 . S
O185 Cd177 2.381 . S
O185 C184 1.258 . S
O186 Cd177 2.378 . S
O186 C184 1.256 . S
O187 Cd188 2.300 . S
O187 C194 1.275 . S
Cd188 O187 2.300 . S
Cd188 O196 2.381 . S
Cd188 O197 2.378 . S
O189 Cd190 2.385 . S
O189 C194 1.255 . S
Cd190 O189 2.385 . S
Cd190 O191 2.317 . S
O191 Cd190 2.317 . S
O191 C192 1.232 . S
C192 O191 1.232 . S
C192 O193 1.218 . S
O193 C192 1.218 . S
C194 O187 1.275 . S
C194 O189 1.255 . S
C195 O196 1.258 . S
C195 O197 1.256 . S
O196 Cd188 2.381 . S
O196 C195 1.258 . S
O197 Cd188 2.378 . S
O197 C195 1.256 . S
O198 Cd199 2.300 . S
O198 C205 1.275 . S
Cd199 O198 2.300 . S
Cd199 O207 2.381 . S
Cd199 O208 2.378 . S
O200 Cd201 2.385 . S
O200 C205 1.255 . S
Cd201 O200 2.385 . S
Cd201 O202 2.317 . S
O202 Cd201 2.317 . S
O202 C203 1.232 . S
C203 O202 1.232 . S
C203 O204 1.218 . S
O204 C203 1.218 . S
C205 O198 1.275 . S
C205 O200 1.255 . S
C206 O207 1.258 . S
C206 O208 1.256 . S
O207 Cd199 2.381 . S
O207 C206 1.258 . S
O208 Cd199 2.378 . S
O208 C206 1.256 . S
O209 Cd210 2.300 . S
O209 C216 1.275 . S
Cd210 O209 2.300 . S
Cd210 O218 2.381 . S
Cd210 O219 2.378 . S
O211 Cd212 2.385 . S
O211 C216 1.255 . S
Cd212 O211 2.385 . S
Cd212 O213 2.317 . S
O213 Cd212 2.317 . S
O213 C214 1.232 . S
C214 O213 1.232 . S
C214 O215 1.218 . S
O215 C214 1.218 . S
C216 O209 1.275 . S
C216 O211 1.255 . S
C217 O218 1.258 . S
C217 O219 1.256 . S
O218 Cd210 2.381 . S
O218 C217 1.258 . S
O219 Cd210 2.378 . S
O219 C217 1.256 . S
O220 Cd221 2.300 . S
O220 C227 1.275 . S
Cd221 O220 2.300 . S
Cd221 O229 2.381 . S
Cd221 O230 2.378 . S
O222 Cd223 2.385 . S
O222 C227 1.255 . S
Cd223 O222 2.385 . S
Cd223 O224 2.317 . S
O224 Cd223 2.317 . S
O224 C225 1.232 . S
C225 O224 1.232 . S
C225 O226 1.218 . S
O226 C225 1.218 . S
C227 O220 1.275 . S
C227 O222 1.255 . S
C228 O229 1.258 . S
C228 O230 1.256 . S
O229 Cd221 2.381 . S
O229 C228 1.258 . S
O230 Cd221 2.378 . S
O230 C228 1.256 . S
O231 Cd232 2.300 . S
O231 C238 1.275 . S
Cd232 O231 2.300 . S
Cd232 O240 2.381 . S
Cd232 O241 2.378 . S
O233 Cd234 2.385 . S
O233 C238 1.255 . S
Cd234 O233 2.385 . S
Cd234 O235 2.317 . S
O235 Cd234 2.317 . S
O235 C236 1.232 . S
C236 O235 1.232 . S
C236 O237 1.218 . S
O237 C236 1.218 . S
C238 O231 1.275 . S
C238 O233 1.255 . S
C239 O240 1.258 . S
C239 O241 1.256 . S
O240 Cd232 2.381 . S
O240 C239 1.258 . S
O241 Cd232 2.378 . S
O241 C239 1.256 . S
O242 Cd243 2.300 . S
O242 C249 1.275 . S
Cd243 O242 2.300 . S
Cd243 O251 2.381 . S
Cd243 O252 2.378 . S
O244 Cd245 2.385 . S
O244 C249 1.255 . S
Cd245 O244 2.385 . S
Cd245 O246 2.317 . S
O246 Cd245 2.317 . S
O246 C247 1.232 . S
C247 O246 1.232 . S
C247 O248 1.218 . S
O248 C247 1.218 . S
C249 O242 1.275 . S
C249 O244 1.255 . S
C250 O251 1.258 . S
C250 O252 1.256 . S
O251 Cd243 2.381 . S
O251 C250 1.258 . S
O252 Cd243 2.378 . S
O252 C250 1.256 . S
O253 Cd254 2.300 . S
O253 C260 1.275 . S
Cd254 O253 2.300 . S
Cd254 O262 2.381 . S
Cd254 O263 2.378 . S
O255 Cd256 2.385 . S
O255 C260 1.255 . S
Cd256 O255 2.385 . S
Cd256 O257 2.317 . S
O257 Cd256 2.317 . S
O257 C258 1.232 . S
C258 O257 1.232 . S
C258 O259 1.218 . S
O259 C258 1.218 . S
C260 O253 1.275 . S
C260 O255 1.255 . S
C261 O262 1.258 . S
C261 O263 1.256 . S
O262 Cd254 2.381 . S
O262 C261 1.258 . S
O263 Cd254 2.378 . S
O263 C261 1.256 . S
O264 Cd265 2.300 . S
O264 C271 1.275 . S
Cd265 O264 2.300 . S
Cd265 O273 2.381 . S
Cd265 O274 2.378 . S
O266 Cd267 2.385 . S
O266 C271 1.255 . S
Cd267 O266 2.385 . S
Cd267 O268 2.317 . S
O268 Cd267 2.317 . S
O268 C269 1.232 . S
C269 O268 1.232 . S
C269 O270 1.218 . S
O270 C269 1.218 . S
C271 O264 1.275 . S
C271 O266 1.255 . S
C272 O273 1.258 . S
C272 O274 1.256 . S
O273 Cd265 2.381 . S
O273 C272 1.258 . S
O274 Cd265 2.378 . S
O274 C272 1.256 . S
O275 Cd276 2.300 . S
O275 C282 1.275 . S
Cd276 O275 2.300 . S
Cd276 O284 2.381 . S
Cd276 O285 2.378 . S
O277 Cd278 2.385 . S
O277 C282 1.255 . S
Cd278 O277 2.385 . S
Cd278 O279 2.317 . S
O279 Cd278 2.317 . S
O279 C280 1.232 . S
C280 O279 1.232 . S
C280 O281 1.218 . S
O281 C280 1.218 . S
C282 O275 1.275 . S
C282 O277 1.255 . S
C283 O284 1.258 . S
C283 O285 1.256 . S
O284 Cd276 2.381 . S
O284 C283 1.258 . S
O285 Cd276 2.378 . S
O285 C283 1.256 . S
O286 Cd287 2.300 . S
O286 C293 1.275 . S
Cd287 O286 2.300 . S
Cd287 O295 2.381 . S
Cd287 O296 2.378 . S
O288 Cd289 2.385 . S
O288 C293 1.255 . S
Cd289 O288 2.385 . S
Cd289 O290 2.317 . S
O290 Cd289 2.317 . S
O290 C291 1.232 . S
C291 O290 1.232 . S
C291 O292 1.218 . S
O292 C291 1.218 . S
C293 O286 1.275 . S
C293 O288 1.255 . S
C294 O295 1.258 . S
C294 O296 1.256 . S
O295 Cd287 2.381 . S
O295 C294 1.258 . S
O296 Cd287 2.378 . S
O296 C294 1.256 . S
O297 Cd298 2.300 . S
O297 C304 1.275 . S
Cd298 O297 2.300 . S
Cd298 O306 2.381 . S
Cd298 O307 2.378 . S
O299 Cd300 2.385 . S
O299 C304 1.255 . S
Cd300 O299 2.385 . S
Cd300 O301 2.317 . S
O301 Cd300 2.317 . S
O301 C302 1.232 . S
C302 O301 1.232 . S
C302 O303 1.218 . S
O303 C302 1.218 . S
C304 O297 1.275 . S
C304 O299 1.255 . S
C305 O306 1.258 . S
C305 O307 1.256 . S
O306 Cd298 2.381 . S
O306 C305 1.258 . S
O307 Cd298 2.378 . S
O307 C305 1.256 . S
O308 Cd309 2.300 . S
O308 C315 1.275 . S
Cd309 O308 2.300 . S
Cd309 O317 2.381 . S
Cd309 O318 2.378 . S
O310 Cd311 2.385 . S
O310 C315 1.255 . S
Cd311 O310 2.385 . S
Cd311 O312 2.317 . S
O312 Cd311 2.317 . S
O312 C313 1.232 . S
C313 O312 1.232 . S
C313 O314 1.218 . S
O314 C313 1.218 . S
C315 O308 1.275 . S
C315 O310 1.255 . S
C316 O317 1.258 . S
C316 O318 1.256 . S
O317 Cd309 2.381 . S
O317 C316 1.258 . S
O318 Cd309 2.378 . S
O318 C316 1.256 . S
O319 Cd320 2.300 . S
O319 C326 1.275 . S
Cd320 O319 2.300 . S
Cd320 O328 2.381 . S
Cd320 O329 2.378 . S
O321 Cd322 2.385 . S
O321 C326 1.255 . S
Cd322 O321 2.385 . S
Cd322 O323 2.317 . S
O323 Cd322 2.317 . S
O323 C324 1.232 . S
C324 O323 1.232 . S
C324 O325 1.218 . S
O325 C324 1.218 . S
C326 O319 1.275 . S
C326 O321 1.255 . S
C327 O328 1.258 . S
C327 O329 1.256 . S
O328 Cd320 2.381 . S
O328 C327 1.258 . S
O329 Cd320 2.378 . S
O329 C327 1.256 . S
O330 Cd331 2.300 . S
O330 C337 1.275 . S
Cd331 O330 2.300 . S
Cd331 O339 2.381 . S
Cd331 O340 2.378 . S
O332 Cd333 2.385 . S
O332 C337 1.255 . S
Cd333 O332 2.385 . S
Cd333 O334 2.317 . S
O334 Cd333 2.317 . S
O334 C335 1.232 . S
C335 O334 1.232 . S
C335 O336 1.218 . S
O336 C335 1.218 . S
C337 O330 1.275 . S
C337 O332 1.255 . S
C338 O339 1.258 . S
C338 O340 1.256 . S
O339 Cd331 2.381 . S
O339 C338 1.258 . S
O340 Cd331 2.378 . S
O340 C338 1.256 . S
O341 Cd342 2.300 . S
O341 C348 1.275 . S
Cd342 O341 2.300 . S
Cd342 O350 2.381 . S
Cd342 O351 2.378 . S
O343 Cd344 2.385 . S
O343 C348 1.255 . S
Cd344 O343 2.385 . S
Cd344 O345 2.317 . S
O345 Cd344 2.317 . S
O345 C346 1.232 . S
C346 O345 1.232 . S
C346 O347 1.218 . S
O347 C346 1.218 . S
C348 O341 1.275 . S
C348 O343 1.255 . S
C349 O350 1.258 . S
C349 O351 1.256 . S
O350 Cd342 2.381 . S
O350 C349 1.258 . S
O351 Cd342 2.378 . S
O351 C349 1.256 . S
H352 C360 0.950 . S
H353 C365 0.950 . S
H354 C362 0.950 . S
H355 C364 0.950 . S
H356 C366 0.950 . S
H357 C368 0.950 . S
H358 C370 0.950 . S
H359 C371 0.950 . S
C360 H352 0.950 . S
C360 C361 1.386 . S
C360 C362 1.391 . S
C361 C360 1.386 . S
C361 C365 1.393 . S
C362 H354 0.950 . S
C362 C360 1.391 . S
C362 C363 1.400 . S
C363 C362 1.400 . S
C363 C364 1.398 . S
C363 C369 1.491 . S
C364 H355 0.950 . S
C364 C363 1.398 . S
C364 C365 1.391 . S
C365 H353 0.950 . S
C365 C361 1.393 . S
C365 C364 1.391 . S
C366 H356 0.950 . S
C366 C367 1.386 . S
C366 C368 1.391 . S
C367 C366 1.386 . S
C367 C371 1.393 . S
C368 H357 0.950 . S
C368 C366 1.391 . S
C368 C369 1.400 . S
C369 C363 1.491 . S
C369 C368 1.400 . S
C369 C370 1.398 . S
C370 H358 0.950 . S
C370 C369 1.398 . S
C370 C371 1.391 . S
C371 H359 0.950 . S
C371 C367 1.393 . S
C371 C370 1.391 . S
H372 C380 0.950 . S
H373 C385 0.950 . S
H374 C382 0.950 . S
H375 C384 0.950 . S
H376 C386 0.950 . S
H377 C388 0.950 . S
H378 C390 0.950 . S
H379 C391 0.950 . S
C380 H372 0.950 . S
C380 C381 1.386 1_545 S
C380 C382 1.391 . S
C381 C380 1.386 1_565 S
C381 C385 1.393 . S
C382 H374 0.950 . S
C382 C380 1.391 . S
C382 C383 1.400 1_545 S
C383 C382 1.400 1_565 S
C383 C384 1.398 . S
C383 C389 1.491 1_665 S
C384 H375 0.950 . S
C384 C383 1.398 . S
C384 C385 1.391 . S
C385 H373 0.950 . S
C385 C381 1.393 . S
C385 C384 1.391 . S
C386 H376 0.950 . S
C386 C387 1.386 1_565 S
C386 C388 1.391 . S
C387 C386 1.386 1_545 S
C387 C391 1.393 . S
C388 H377 0.950 . S
C388 C386 1.391 . S
C388 C389 1.400 1_565 S
C389 C383 1.491 1_445 S
C389 C388 1.400 1_545 S
C389 C390 1.398 . S
C390 H378 0.950 . S
C390 C389 1.398 . S
C390 C391 1.391 . S
C391 H379 0.950 . S
C391 C387 1.393 . S
C391 C390 1.391 . S
H392 C400 0.950 . S
H393 C405 0.950 . S
H394 C402 0.950 . S
H395 C404 0.950 . S
H396 C406 0.950 . S
H397 C408 0.950 . S
H398 C410 0.950 . S
H399 C411 0.950 . S
C400 H392 0.950 . S
C400 C401 1.386 . S
C400 C402 1.391 . S
C401 C400 1.386 . S
C401 C405 1.393 . S
C402 H394 0.950 . S
C402 C400 1.391 . S
C402 C403 1.400 . S
C403 C402 1.400 . S
C403 C404 1.398 . S
C403 C409 1.491 . S
C404 H395 0.950 . S
C404 C403 1.398 . S
C404 C405 1.391 . S
C405 H393 0.950 . S
C405 C401 1.393 . S
C405 C404 1.391 . S
C406 H396 0.950 . S
C406 C407 1.386 . S
C406 C408 1.391 . S
C407 C406 1.386 . S
C407 C411 1.393 . S
C408 H397 0.950 . S
C408 C406 1.391 . S
C408 C409 1.400 . S
C409 C403 1.491 . S
C409 C408 1.400 . S
C409 C410 1.398 . S
C410 H398 0.950 . S
C410 C409 1.398 . S
C410 C411 1.391 . S
C411 H399 0.950 . S
C411 C407 1.393 . S
C411 C410 1.391 . S
H412 C420 0.950 . S
H413 C425 0.950 . S
H414 C422 0.941 1_565 S
H415 C424 0.950 . S
H416 C426 0.950 . S
H417 C428 0.941 1_545 S
H418 C430 0.950 . S
H419 C431 0.950 . S
C420 H412 0.950 . S
C420 C421 1.386 . S
C420 C422 1.391 . S
C421 C420 1.386 . S
C421 C425 1.393 . S
C422 H414 0.941 1_545 S
C422 C420 1.391 . S
C422 C423 1.400 . S
C423 C422 1.400 . S
C423 C424 1.398 1_556 S
C423 C429 1.491 1_546 S
C424 H415 0.950 . S
C424 C423 1.398 1_554 S
C424 C425 1.391 1_554 S
C425 H413 0.950 . S
C425 C421 1.393 . S
C425 C424 1.391 1_556 S
C426 H416 0.950 . S
C426 C427 1.386 . S
C426 C428 1.391 . S
C427 C426 1.386 . S
C427 C431 1.393 . S
C428 H417 0.941 1_565 S
C428 C426 1.391 . S
C428 C429 1.400 . S
C429 C423 1.491 1_564 S
C429 C428 1.400 . S
C429 C430 1.398 1_554 S
C430 H418 0.950 . S
C430 C429 1.398 1_556 S
C430 C431 1.391 1_556 S
C431 H419 0.950 . S
C431 C427 1.393 . S
C431 C430 1.391 1_554 S
H432 C440 0.950 . S
H433 C445 0.950 . S
H434 C442 0.950 . S
H435 C444 0.950 . S
H436 C446 0.950 . S
H437 C448 0.950 . S
H438 C450 0.950 . S
H439 C451 0.950 . S
C440 H432 0.950 . S
C440 C441 1.386 . S
C440 C442 1.391 . S
C441 C440 1.386 . S
C441 C445 1.393 . S
C442 H434 0.950 . S
C442 C440 1.391 . S
C442 C443 1.400 . S
C443 C442 1.400 . S
C443 C444 1.398 . S
C443 C449 1.491 . S
C444 H435 0.950 . S
C444 C443 1.398 . S
C444 C445 1.391 . S
C445 H433 0.950 . S
C445 C441 1.393 . S
C445 C444 1.391 . S
C446 H436 0.950 . S
C446 C447 1.386 . S
C446 C448 1.391 . S
C447 C446 1.386 . S
C447 C451 1.393 . S
C448 H437 0.950 . S
C448 C446 1.391 . S
C448 C449 1.400 . S
C449 C443 1.491 . S
C449 C448 1.400 . S
C449 C450 1.398 . S
C450 H438 0.950 . S
C450 C449 1.398 . S
C450 C451 1.391 . S
C451 H439 0.950 . S
C451 C447 1.393 . S
C451 C450 1.391 . S
H452 C460 0.950 . S
H453 C465 0.950 . S
H454 C462 0.950 . S
H455 C464 0.950 . S
H456 C466 0.950 . S
H457 C468 0.950 . S
H458 C470 0.950 . S
H459 C471 0.950 . S
C460 H452 0.950 . S
C460 C461 1.386 1_545 S
C460 C462 1.391 . S
C461 C460 1.386 1_565 S
C461 C465 1.393 . S
C462 H454 0.950 . S
C462 C460 1.391 . S
C462 C463 1.400 1_545 S
C463 C462 1.400 1_565 S
C463 C464 1.398 . S
C463 C469 1.491 1_565 S
C464 H455 0.950 . S
C464 C463 1.398 . S
C464 C465 1.391 . S
C465 H453 0.950 . S
C465 C461 1.393 . S
C465 C464 1.391 . S
C466 H456 0.950 . S
C466 C467 1.386 1_565 S
C466 C468 1.391 . S
C467 C466 1.386 1_545 S
C467 C471 1.393 . S
C468 H457 0.950 . S
C468 C466 1.391 . S
C468 C469 1.400 1_565 S
C469 C463 1.491 1_545 S
C469 C468 1.400 1_545 S
C469 C470 1.398 . S
C470 H458 0.950 . S
C470 C469 1.398 . S
C470 C471 1.391 . S
C471 H459 0.950 . S
C471 C467 1.393 . S
C471 C470 1.391 . S
H472 C480 0.950 . S
H473 C485 0.950 . S
H474 C482 0.950 . S
H475 C484 0.950 . S
H476 C486 0.950 . S
H477 C488 0.950 . S
H478 C490 0.950 . S
H479 C491 0.950 . S
C480 H472 0.950 . S
C480 C481 1.386 . S
C480 C482 1.391 . S
C481 C480 1.386 . S
C481 C485 1.393 . S
C482 H474 0.950 . S
C482 C480 1.391 . S
C482 C483 1.400 . S
C483 C482 1.400 . S
C483 C484 1.398 . S
C483 C489 1.491 . S
C484 H475 0.950 . S
C484 C483 1.398 . S
C484 C485 1.391 . S
C485 H473 0.950 . S
C485 C481 1.393 . S
C485 C484 1.391 . S
C486 H476 0.950 . S
C486 C487 1.386 . S
C486 C488 1.391 . S
C487 C486 1.386 . S
C487 C491 1.393 . S
C488 H477 0.950 . S
C488 C486 1.391 . S
C488 C489 1.400 . S
C489 C483 1.491 . S
C489 C488 1.400 . S
C489 C490 1.398 . S
C490 H478 0.950 . S
C490 C489 1.398 . S
C490 C491 1.391 . S
C491 H479 0.950 . S
C491 C487 1.393 . S
C491 C490 1.391 . S
H492 C500 0.950 . S
H493 C505 0.950 . S
H494 C502 0.950 . S
H495 C504 0.950 . S
H496 C506 0.950 . S
H497 C508 0.950 . S
H498 C510 0.950 . S
H499 C511 0.950 . S
C500 H492 0.950 . S
C500 C501 1.386 1_545 S
C500 C502 1.391 . S
C501 C500 1.386 1_565 S
C501 C505 1.393 . S
C502 H494 0.950 . S
C502 C500 1.391 . S
C502 C503 1.400 1_545 S
C503 C502 1.400 1_565 S
C503 C504 1.398 . S
C503 C509 1.491 1_466 S
C504 H495 0.950 . S
C504 C503 1.398 . S
C504 C505 1.391 . S
C505 H493 0.950 . S
C505 C501 1.393 . S
C505 C504 1.391 . S
C506 H496 0.950 . S
C506 C507 1.386 1_565 S
C506 C508 1.391 . S
C507 C506 1.386 1_545 S
C507 C511 1.393 . S
C508 H497 0.950 . S
C508 C506 1.391 . S
C508 C509 1.400 1_565 S
C509 C503 1.491 1_644 S
C509 C508 1.400 1_545 S
C509 C510 1.398 . S
C510 H498 0.950 . S
C510 C509 1.398 . S
C510 C511 1.391 . S
C511 H499 0.950 . S
C511 C507 1.393 . S
C511 C510 1.391 . S
H512 C520 0.950 . S
H513 C525 0.950 . S
H514 C522 0.950 . S
H515 C524 0.950 . S
H516 C526 0.950 . S
H517 C528 0.950 . S
H518 C530 0.950 . S
H519 C531 0.950 . S
C520 H512 0.950 . S
C520 C521 1.386 . S
C520 C522 1.391 . S
C521 C520 1.386 . S
C521 C525 1.393 . S
C522 H514 0.950 . S
C522 C520 1.391 . S
C522 C523 1.400 . S
C523 C522 1.400 . S
C523 C524 1.398 . S
C523 C529 1.491 . S
C524 H515 0.950 . S
C524 C523 1.398 . S
C524 C525 1.391 . S
C525 H513 0.950 . S
C525 C521 1.393 . S
C525 C524 1.391 . S
C526 H516 0.950 . S
C526 C527 1.386 . S
C526 C528 1.391 . S
C527 C526 1.386 . S
C527 C531 1.393 . S
C528 H517 0.950 . S
C528 C526 1.391 . S
C528 C529 1.400 . S
C529 C523 1.491 . S
C529 C528 1.400 . S
C529 C530 1.398 . S
C530 H518 0.950 . S
C530 C529 1.398 . S
C530 C531 1.391 . S
C531 H519 0.950 . S
C531 C527 1.393 . S
C531 C530 1.391 . S
H532 C540 0.950 . S
H533 C545 0.950 . S
H534 C542 0.950 . S
H535 C544 0.950 . S
H536 C546 0.950 . S
H537 C548 0.950 . S
H538 C550 0.950 . S
H539 C551 0.950 . S
C540 H532 0.950 . S
C540 C541 1.386 . S
C540 C542 1.391 . S
C541 C540 1.386 . S
C541 C545 1.393 . S
C542 H534 0.950 . S
C542 C540 1.391 . S
C542 C543 1.400 . S
C543 C542 1.400 . S
C543 C544 1.398 . S
C543 C549 1.491 . S
C544 H535 0.950 . S
C544 C543 1.398 . S
C544 C545 1.391 . S
C545 H533 0.950 . S
C545 C541 1.393 . S
C545 C544 1.391 . S
C546 H536 0.950 . S
C546 C547 1.386 . S
C546 C548 1.391 . S
C547 C546 1.386 . S
C547 C551 1.393 . S
C548 H537 0.950 . S
C548 C546 1.391 . S
C548 C549 1.400 . S
C549 C543 1.491 . S
C549 C548 1.400 . S
C549 C550 1.398 . S
C550 H538 0.950 . S
C550 C549 1.398 . S
C550 C551 1.391 . S
C551 H539 0.950 . S
C551 C547 1.393 . S
C551 C550 1.391 . S
H552 C560 0.950 . S
H553 C565 0.950 . S
H554 C562 0.950 . S
H555 C564 0.950 . S
H556 C566 0.950 . S
H557 C568 0.950 . S
H558 C570 0.950 . S
H559 C571 0.950 . S
C560 H552 0.950 . S
C560 C561 1.386 . S
C560 C562 1.391 . S
C561 C560 1.386 . S
C561 C565 1.393 . S
C562 H554 0.950 . S
C562 C560 1.391 . S
C562 C563 1.400 . S
C563 C562 1.400 . S
C563 C564 1.398 . S
C563 C569 1.491 . S
C564 H555 0.950 . S
C564 C563 1.398 . S
C564 C565 1.391 . S
C565 H553 0.950 . S
C565 C561 1.393 . S
C565 C564 1.391 . S
C566 H556 0.950 . S
C566 C567 1.386 . S
C566 C568 1.391 . S
C567 C566 1.386 . S
C567 C571 1.393 . S
C568 H557 0.950 . S
C568 C566 1.391 . S
C568 C569 1.400 . S
C569 C563 1.491 . S
C569 C568 1.400 . S
C569 C570 1.398 . S
C570 H558 0.950 . S
C570 C569 1.398 . S
C570 C571 1.391 . S
C571 H559 0.950 . S
C571 C567 1.393 . S
C571 C570 1.391 . S
H572 C580 0.950 . S
H573 C585 0.950 . S
H574 C582 0.950 . S
H575 C584 0.950 . S
H576 C586 0.950 . S
H577 C588 0.950 . S
H578 C590 0.950 . S
H579 C591 0.950 . S
C580 H572 0.950 . S
C580 C581 1.386 . S
C580 C582 1.391 . S
C581 C580 1.386 . S
C581 C585 1.393 . S
C582 H574 0.950 . S
C582 C580 1.391 . S
C582 C583 1.400 . S
C583 C582 1.400 . S
C583 C584 1.398 . S
C583 C589 1.491 . S
C584 H575 0.950 . S
C584 C583 1.398 . S
C584 C585 1.391 . S
C585 H573 0.950 . S
C585 C581 1.393 . S
C585 C584 1.391 . S
C586 H576 0.950 . S
C586 C587 1.386 . S
C586 C588 1.391 . S
C587 C586 1.386 . S
C587 C591 1.393 . S
C588 H577 0.950 . S
C588 C586 1.391 . S
C588 C589 1.400 . S
C589 C583 1.491 . S
C589 C588 1.400 . S
C589 C590 1.398 . S
C590 H578 0.950 . S
C590 C589 1.398 . S
C590 C591 1.391 . S
C591 H579 0.950 . S
C591 C587 1.393 . S
C591 C590 1.391 . S
H592 C600 0.950 . S
H593 C605 0.950 . S
H594 C602 0.950 . S
H595 C604 0.950 . S
H596 C606 0.950 . S
H597 C608 0.950 . S
H598 C610 0.950 . S
H599 C611 0.950 . S
C600 H592 0.950 . S
C600 C601 1.386 . S
C600 C602 1.391 . S
C601 C600 1.386 . S
C601 C605 1.393 . S
C602 H594 0.950 . S
C602 C600 1.391 . S
C602 C603 1.400 . S
C603 C602 1.400 . S
C603 C604 1.398 . S
C603 C609 1.491 1_554 S
C604 H595 0.950 . S
C604 C603 1.398 . S
C604 C605 1.391 . S
C605 H593 0.950 . S
C605 C601 1.393 . S
C605 C604 1.391 . S
C606 H596 0.950 . S
C606 C607 1.386 . S
C606 C608 1.391 . S
C607 C606 1.386 . S
C607 C611 1.393 . S
C608 H597 0.950 . S
C608 C606 1.391 . S
C608 C609 1.400 . S
C609 C603 1.491 1_556 S
C609 C608 1.400 . S
C609 C610 1.398 . S
C610 H598 0.950 . S
C610 C609 1.398 . S
C610 C611 1.391 . S
C611 H599 0.950 . S
C611 C607 1.393 . S
C611 C610 1.391 . S
H612 C620 0.950 . S
H613 C625 0.950 . S
H614 C622 0.896 1_655 S
H615 C624 0.950 . S
H616 C626 0.950 . S
H617 C628 0.896 1_455 S
H618 C630 0.950 . S
H619 C631 0.950 . S
C620 H612 0.950 . S
C620 C621 1.386 . S
C620 C622 1.391 . S
C621 C620 1.386 . S
C621 C625 1.393 . S
C622 H614 0.896 1_455 S
C622 C620 1.391 . S
C622 C623 1.400 . S
C623 C622 1.400 . S
C623 C624 1.398 . S
C623 C629 1.491 1_455 S
C624 H615 0.950 . S
C624 C623 1.398 . S
C624 C625 1.391 . S
C625 H613 0.950 . S
C625 C621 1.393 . S
C625 C624 1.391 . S
C626 H616 0.950 . S
C626 C627 1.386 . S
C626 C628 1.391 . S
C627 C626 1.386 . S
C627 C631 1.393 . S
C628 H617 0.896 1_655 S
C628 C626 1.391 . S
C628 C629 1.400 . S
C629 C623 1.491 1_655 S
C629 C628 1.400 . S
C629 C630 1.398 . S
C630 H618 0.950 . S
C630 C629 1.398 . S
C630 C631 1.391 . S
C631 H619 0.950 . S
C631 C627 1.393 . S
C631 C630 1.391 . S
H632 C640 0.950 . S
H633 C645 0.950 . S
H634 C642 0.980 . S
H635 C644 0.950 1_554 S
H636 C646 0.950 . S
H637 C648 0.980 . S
H638 C650 0.950 1_556 S
H639 C651 0.950 . S
C640 H632 0.950 . S
C640 C641 1.386 . S
C640 C642 1.391 . S
C641 C640 1.386 . S
C641 C645 1.393 . S
C642 H634 0.980 . S
C642 C640 1.391 . S
C642 C643 1.400 . S
C643 C642 1.400 . S
C643 C644 1.398 . S
C643 C649 1.491 1_656 S
C644 H635 0.950 1_556 S
C644 C643 1.398 . S
C644 C645 1.391 . S
C645 H633 0.950 . S
C645 C641 1.393 . S
C645 C644 1.391 . S
C646 H636 0.950 . S
C646 C647 1.386 . S
C646 C648 1.391 . S
C647 C646 1.386 . S
C647 C651 1.393 . S
C648 H637 0.980 . S
C648 C646 1.391 . S
C648 C649 1.400 . S
C649 C643 1.491 1_454 S
C649 C648 1.400 . S
C649 C650 1.398 . S
C650 H638 0.950 1_554 S
C650 C649 1.398 . S
C650 C651 1.391 . S
C651 H639 0.950 . S
C651 C647 1.393 . S
C651 C650 1.391 . S
H652 C660 0.950 . S
H653 C665 0.950 . S
H654 C662 0.950 . S
H655 C664 0.950 . S
H656 C666 0.950 . S
H657 C668 0.950 . S
H658 C670 0.950 . S
H659 C671 0.950 . S
C660 H652 0.950 . S
C660 C661 1.386 . S
C660 C662 1.391 . S
C661 C660 1.386 . S
C661 C665 1.393 . S
C662 H654 0.950 . S
C662 C660 1.391 . S
C662 C663 1.400 . S
C663 C662 1.400 . S
C663 C664 1.398 . S
C663 C669 1.491 . S
C664 H655 0.950 . S
C664 C663 1.398 . S
C664 C665 1.391 . S
C665 H653 0.950 . S
C665 C661 1.393 . S
C665 C664 1.391 . S
C666 H656 0.950 . S
C666 C667 1.386 . S
C666 C668 1.391 . S
C667 C666 1.386 . S
C667 C671 1.393 . S
C668 H657 0.950 . S
C668 C666 1.391 . S
C668 C669 1.400 . S
C669 C663 1.491 . S
C669 C668 1.400 . S
C669 C670 1.398 . S
C670 H658 0.950 . S
C670 C669 1.398 . S
C670 C671 1.391 . S
C671 H659 0.950 . S
C671 C667 1.393 . S
C671 C670 1.391 . S
H672 C680 0.950 . S
H673 C685 0.950 . S
H674 C682 0.950 . S
H675 C684 0.950 . S
H676 C686 0.950 . S
H677 C688 0.950 . S
H678 C690 0.950 . S
H679 C691 0.950 . S
C680 H672 0.950 . S
C680 C681 1.386 . S
C680 C682 1.391 . S
C681 C680 1.386 . S
C681 C685 1.393 . S
C682 H674 0.950 . S
C682 C680 1.391 . S
C682 C683 1.400 . S
C683 C682 1.400 . S
C683 C684 1.398 . S
C683 C689 1.491 . S
C684 H675 0.950 . S
C684 C683 1.398 . S
C684 C685 1.391 . S
C685 H673 0.950 . S
C685 C681 1.393 . S
C685 C684 1.391 . S
C686 H676 0.950 . S
C686 C687 1.386 . S
C686 C688 1.391 . S
C687 C686 1.386 . S
C687 C691 1.393 . S
C688 H677 0.950 . S
C688 C686 1.391 . S
C688 C689 1.400 . S
C689 C683 1.491 . S
C689 C688 1.400 . S
C689 C690 1.398 . S
C690 H678 0.950 . S
C690 C689 1.398 . S
C690 C691 1.391 . S
C691 H679 0.950 . S
C691 C687 1.393 . S
C691 C690 1.391 . S
H692 C700 0.950 . S
H693 C705 0.950 . S
H694 C702 0.950 . S
H695 C704 0.950 . S
H696 C706 0.950 . S
H697 C708 0.950 . S
H698 C710 0.950 . S
H699 C711 0.950 . S
C700 H692 0.950 . S
C700 C701 1.386 . S
C700 C702 1.391 . S
C701 C700 1.386 . S
C701 C705 1.393 . S
C702 H694 0.950 . S
C702 C700 1.391 . S
C702 C703 1.400 . S
C703 C702 1.400 . S
C703 C704 1.398 . S
C703 C709 1.491 . S
C704 H695 0.950 . S
C704 C703 1.398 . S
C704 C705 1.391 . S
C705 H693 0.950 . S
C705 C701 1.393 . S
C705 C704 1.391 . S
C706 H696 0.950 . S
C706 C707 1.386 . S
C706 C708 1.391 . S
C707 C706 1.386 . S
C707 C711 1.393 . S
C708 H697 0.950 . S
C708 C706 1.391 . S
C708 C709 1.400 . S
C709 C703 1.491 . S
C709 C708 1.400 . S
C709 C710 1.398 . S
C710 H698 0.950 . S
C710 C709 1.398 . S
C710 C711 1.391 . S
C711 H699 0.950 . S
C711 C707 1.393 . S
C711 C710 1.391 . S
H712 C720 0.950 . S
H713 C725 0.950 . S
H714 C722 0.950 . S
H715 C724 0.950 . S
H716 C726 0.950 . S
H717 C728 0.950 . S
H718 C730 0.950 . S
H719 C731 0.950 . S
C720 H712 0.950 . S
C720 C721 1.386 . S
C720 C722 1.391 . S
C721 C720 1.386 . S
C721 C725 1.393 . S
C722 H714 0.950 . S
C722 C720 1.391 . S
C722 C723 1.400 . S
C723 C722 1.400 . S
C723 C724 1.398 . S
C723 C729 1.491 . S
C724 H715 0.950 . S
C724 C723 1.398 . S
C724 C725 1.391 . S
C725 H713 0.950 . S
C725 C721 1.393 . S
C725 C724 1.391 . S
C726 H716 0.950 . S
C726 C727 1.386 . S
C726 C728 1.391 . S
C727 C726 1.386 . S
C727 C731 1.393 . S
C728 H717 0.950 . S
C728 C726 1.391 . S
C728 C729 1.400 . S
C729 C723 1.491 . S
C729 C728 1.400 . S
C729 C730 1.398 . S
C730 H718 0.950 . S
C730 C729 1.398 . S
C730 C731 1.391 . S
C731 H719 0.950 . S
C731 C727 1.393 . S
C731 C730 1.391 . S
H732 C740 0.950 . S
H733 C745 0.950 . S
H734 C742 0.950 . S
H735 C744 0.950 . S
H736 C746 0.950 . S
H737 C748 0.950 . S
H738 C750 0.950 . S
H739 C751 0.950 . S
C740 H732 0.950 . S
C740 C741 1.386 . S
C740 C742 1.391 . S
C741 C740 1.386 . S
C741 C745 1.393 . S
C742 H734 0.950 . S
C742 C740 1.391 . S
C742 C743 1.400 . S
C743 C742 1.400 . S
C743 C744 1.398 . S
C743 C749 1.491 . S
C744 H735 0.950 . S
C744 C743 1.398 . S
C744 C745 1.391 . S
C745 H733 0.950 . S
C745 C741 1.393 . S
C745 C744 1.391 . S
C746 H736 0.950 . S
C746 C747 1.386 . S
C746 C748 1.391 . S
C747 C746 1.386 . S
C747 C751 1.393 . S
C748 H737 0.950 . S
C748 C746 1.391 . S
C748 C749 1.400 . S
C749 C743 1.491 . S
C749 C748 1.400 . S
C749 C750 1.398 . S
C750 H738 0.950 . S
C750 C749 1.398 . S
C750 C751 1.391 . S
C751 H739 0.950 . S
C751 C747 1.393 . S
C751 C750 1.391 . S
H752 C760 0.950 . S
H753 C765 0.950 . S
H754 C762 0.950 . S
H755 C764 0.950 . S
H756 C766 0.950 . S
H757 C768 0.950 . S
H758 C770 0.950 . S
H759 C771 0.950 . S
C760 H752 0.950 . S
C760 C761 1.386 . S
C760 C762 1.391 . S
C761 C760 1.386 . S
C761 C765 1.393 . S
C762 H754 0.950 . S
C762 C760 1.391 . S
C762 C763 1.400 . S
C763 C762 1.400 . S
C763 C764 1.398 . S
C763 C769 1.491 . S
C764 H755 0.950 . S
C764 C763 1.398 . S
C764 C765 1.391 . S
C765 H753 0.950 . S
C765 C761 1.393 . S
C765 C764 1.391 . S
C766 H756 0.950 . S
C766 C767 1.386 . S
C766 C768 1.391 . S
C767 C766 1.386 . S
C767 C771 1.393 . S
C768 H757 0.950 . S
C768 C766 1.391 . S
C768 C769 1.400 . S
C769 C763 1.491 . S
C769 C768 1.400 . S
C769 C770 1.398 . S
C770 H758 0.950 . S
C770 C769 1.398 . S
C770 C771 1.391 . S
C771 H759 0.950 . S
C771 C767 1.393 . S
C771 C770 1.391 . S
H772 C780 0.950 . S
H773 C785 0.950 . S
H774 C782 0.950 . S
H775 C784 0.950 . S
H776 C786 0.950 . S
H777 C788 0.950 . S
H778 C790 0.950 . S
H779 C791 0.950 . S
C780 H772 0.950 . S
C780 C781 1.386 . S
C780 C782 1.391 . S
C781 C780 1.386 . S
C781 C785 1.393 . S
C782 H774 0.950 . S
C782 C780 1.391 . S
C782 C783 1.400 . S
C783 C782 1.400 . S
C783 C784 1.398 . S
C783 C789 1.491 . S
C784 H775 0.950 . S
C784 C783 1.398 . S
C784 C785 1.391 . S
C785 H773 0.950 . S
C785 C781 1.393 . S
C785 C784 1.391 . S
C786 H776 0.950 . S
C786 C787 1.386 . S
C786 C788 1.391 . S
C787 C786 1.386 . S
C787 C791 1.393 . S
C788 H777 0.950 . S
C788 C786 1.391 . S
C788 C789 1.400 . S
C789 C783 1.491 . S
C789 C788 1.400 . S
C789 C790 1.398 . S
C790 H778 0.950 . S
C790 C789 1.398 . S
C790 C791 1.391 . S
C791 H779 0.950 . S
C791 C787 1.393 . S
C791 C790 1.391 . S
H792 C800 0.950 . S
H793 C805 0.950 . S
H794 C802 0.950 . S
H795 C804 0.950 . S
H796 C806 0.950 . S
H797 C808 0.950 . S
H798 C810 0.950 . S
H799 C811 0.950 . S
C800 H792 0.950 . S
C800 C801 1.386 . S
C800 C802 1.391 . S
C801 C800 1.386 . S
C801 C805 1.393 . S
C802 H794 0.950 . S
C802 C800 1.391 . S
C802 C803 1.400 . S
C803 C802 1.400 . S
C803 C804 1.398 . S
C803 C809 1.491 . S
C804 H795 0.950 . S
C804 C803 1.398 . S
C804 C805 1.391 . S
C805 H793 0.950 . S
C805 C801 1.393 . S
C805 C804 1.391 . S
C806 H796 0.950 . S
C806 C807 1.386 . S
C806 C808 1.391 . S
C807 C806 1.386 . S
C807 C811 1.393 . S
C808 H797 0.950 . S
C808 C806 1.391 . S
C808 C809 1.400 . S
C809 C803 1.491 . S
C809 C808 1.400 . S
C809 C810 1.398 . S
C810 H798 0.950 . S
C810 C809 1.398 . S
C810 C811 1.391 . S
C811 H799 0.950 . S
C811 C807 1.393 . S
C811 C810 1.391 . S
H812 C820 0.950 . S
H813 C825 0.950 . S
H814 C822 0.950 . S
H815 C824 0.950 . S
H816 C826 0.950 . S
H817 C828 0.950 . S
H818 C830 0.950 . S
H819 C831 0.950 . S
C820 H812 0.950 . S
C820 C821 1.386 . S
C820 C822 1.391 . S
C821 C820 1.386 . S
C821 C825 1.393 . S
C822 H814 0.950 . S
C822 C820 1.391 . S
C822 C823 1.400 . S
C823 C822 1.400 . S
C823 C824 1.398 . S
C823 C829 1.491 . S
C824 H815 0.950 . S
C824 C823 1.398 . S
C824 C825 1.391 . S
C825 H813 0.950 . S
C825 C821 1.393 . S
C825 C824 1.391 . S
C826 H816 0.950 . S
C826 C827 1.386 . S
C826 C828 1.391 . S
C827 C826 1.386 . S
C827 C831 1.393 . S
C828 H817 0.950 . S
C828 C826 1.391 . S
C828 C829 1.400 . S
C829 C823 1.491 . S
C829 C828 1.400 . S
C829 C830 1.398 . S
C830 H818 0.950 . S
C830 C829 1.398 . S
C830 C831 1.391 . S
C831 H819 0.950 . S
C831 C827 1.393 . S
C831 C830 1.391 . S
H832 C840 0.950 . S
H833 C845 0.950 . S
H834 C842 0.950 . S
H835 C844 0.950 . S
H836 C846 0.950 . S
H837 C848 0.950 . S
H838 C850 0.950 . S
H839 C851 0.950 . S
C840 H832 0.950 . S
C840 C841 1.386 . S
C840 C842 1.391 . S
C841 C840 1.386 . S
C841 C845 1.393 . S
C842 H834 0.950 . S
C842 C840 1.391 . S
C842 C843 1.400 . S
C843 C842 1.400 . S
C843 C844 1.398 . S
C843 C849 1.491 . S
C844 H835 0.950 . S
C844 C843 1.398 . S
C844 C845 1.391 . S
C845 H833 0.950 . S
C845 C841 1.393 . S
C845 C844 1.391 . S
C846 H836 0.950 . S
C846 C847 1.386 . S
C846 C848 1.391 . S
C847 C846 1.386 . S
C847 C851 1.393 . S
C848 H837 0.950 . S
C848 C846 1.391 . S
C848 C849 1.400 . S
C849 C843 1.491 . S
C849 C848 1.400 . S
C849 C850 1.398 . S
C850 H838 0.950 . S
C850 C849 1.398 . S
C850 C851 1.391 . S
C851 H839 0.950 . S
C851 C847 1.393 . S
C851 C850 1.391 . S
H852 C860 0.950 . S
H853 C865 0.950 . S
H854 C862 0.950 . S
H855 C864 0.950 . S
H856 C866 0.950 . S
H857 C868 0.950 . S
H858 C870 0.950 . S
H859 C871 0.950 . S
C860 H852 0.950 . S
C860 C861 1.386 . S
C860 C862 1.391 . S
C861 C860 1.386 . S
C861 C865 1.393 . S
C862 H854 0.950 . S
C862 C860 1.391 . S
C862 C863 1.400 . S
C863 C862 1.400 . S
C863 C864 1.398 . S
C863 C869 1.491 . S
C864 H855 0.950 . S
C864 C863 1.398 . S
C864 C865 1.391 . S
C865 H853 0.950 . S
C865 C861 1.393 . S
C865 C864 1.391 . S
C866 H856 0.950 . S
C866 C867 1.386 . S
C866 C868 1.391 . S
C867 C866 1.386 . S
C867 C871 1.393 . S
C868 H857 0.950 . S
C868 C866 1.391 . S
C868 C869 1.400 . S
C869 C863 1.491 . S
C869 C868 1.400 . S
C869 C870 1.398 . S
C870 H858 0.950 . S
C870 C869 1.398 . S
C870 C871 1.391 . S
C871 H859 0.950 . S
C871 C867 1.393 . S
C871 C870 1.391 . S
H872 C880 0.950 . S
H873 C885 0.950 . S
H874 C882 0.950 . S
H875 C884 0.950 . S
H876 C886 0.950 . S
H877 C888 0.950 . S
H878 C890 0.950 . S
H879 C891 0.950 . S
C880 H872 0.950 . S
C880 C881 1.386 . S
C880 C882 1.391 . S
C881 C880 1.386 . S
C881 C885 1.393 . S
C882 H874 0.950 . S
C882 C880 1.391 . S
C882 C883 1.400 . S
C883 C882 1.400 . S
C883 C884 1.398 . S
C883 C889 1.491 . S
C884 H875 0.950 . S
C884 C883 1.398 . S
C884 C885 1.391 . S
C885 H873 0.950 . S
C885 C881 1.393 . S
C885 C884 1.391 . S
C886 H876 0.950 . S
C886 C887 1.386 . S
C886 C888 1.391 . S
C887 C886 1.386 . S
C887 C891 1.393 . S
C888 H877 0.950 . S
C888 C886 1.391 . S
C888 C889 1.400 . S
C889 C883 1.491 . S
C889 C888 1.400 . S
C889 C890 1.398 . S
C890 H878 0.950 . S
C890 C889 1.398 . S
C890 C891 1.391 . S
C891 H879 0.950 . S
C891 C887 1.393 . S
C891 C890 1.391 . S
H892 C900 0.950 . S
H893 C905 0.950 . S
H894 C902 0.950 . S
H895 C904 0.950 . S
H896 C906 0.950 . S
H897 C908 0.950 . S
H898 C910 0.950 . S
H899 C911 0.950 . S
C900 H892 0.950 . S
C900 C901 1.386 . S
C900 C902 1.391 . S
C901 C900 1.386 . S
C901 C905 1.393 . S
C902 H894 0.950 . S
C902 C900 1.391 . S
C902 C903 1.400 . S
C903 C902 1.400 . S
C903 C904 1.398 . S
C903 C909 1.491 . S
C904 H895 0.950 . S
C904 C903 1.398 . S
C904 C905 1.391 . S
C905 H893 0.950 . S
C905 C901 1.393 . S
C905 C904 1.391 . S
C906 H896 0.950 . S
C906 C907 1.386 . S
C906 C908 1.391 . S
C907 C906 1.386 . S
C907 C911 1.393 . S
C908 H897 0.950 . S
C908 C906 1.391 . S
C908 C909 1.400 . S
C909 C903 1.491 . S
C909 C908 1.400 . S
C909 C910 1.398 . S
C910 H898 0.950 . S
C910 C909 1.398 . S
C910 C911 1.391 . S
C911 H899 0.950 . S
C911 C907 1.393 . S
C911 C910 1.391 . S
H912 C920 0.950 . S
H913 C925 0.950 . S
H914 C922 0.950 . S
H915 C924 0.950 . S
H916 C926 0.950 . S
H917 C928 0.950 . S
H918 C930 0.950 . S
H919 C931 0.950 . S
C920 H912 0.950 . S
C920 C921 1.386 . S
C920 C922 1.391 . S
C921 C920 1.386 . S
C921 C925 1.393 . S
C922 H914 0.950 . S
C922 C920 1.391 . S
C922 C923 1.400 . S
C923 C922 1.400 . S
C923 C924 1.398 . S
C923 C929 1.491 . S
C924 H915 0.950 . S
C924 C923 1.398 . S
C924 C925 1.391 . S
C925 H913 0.950 . S
C925 C921 1.393 . S
C925 C924 1.391 . S
C926 H916 0.950 . S
C926 C927 1.386 . S
C926 C928 1.391 . S
C927 C926 1.386 . S
C927 C931 1.393 . S
C928 H917 0.950 . S
C928 C926 1.391 . S
C928 C929 1.400 . S
C929 C923 1.491 . S
C929 C928 1.400 . S
C929 C930 1.398 . S
C930 H918 0.950 . S
C930 C929 1.398 . S
C930 C931 1.391 . S
C931 H919 0.950 . S
C931 C927 1.393 . S
C931 C930 1.391 . S
H932 C940 0.950 . S
H933 C945 0.950 . S
H934 C942 0.950 . S
H935 C944 0.950 . S
H936 C946 0.950 . S
H937 C948 0.950 . S
H938 C950 0.950 . S
H939 C951 0.950 . S
C940 H932 0.950 . S
C940 C941 1.386 . S
C940 C942 1.391 . S
C941 C940 1.386 . S
C941 C945 1.393 . S
C942 H934 0.950 . S
C942 C940 1.391 . S
C942 C943 1.400 . S
C943 C942 1.400 . S
C943 C944 1.398 . S
C943 C949 1.491 . S
C944 H935 0.950 . S
C944 C943 1.398 . S
C944 C945 1.391 . S
C945 H933 0.950 . S
C945 C941 1.393 . S
C945 C944 1.391 . S
C946 H936 0.950 . S
C946 C947 1.386 . S
C946 C948 1.391 . S
C947 C946 1.386 . S
C947 C951 1.393 . S
C948 H937 0.950 . S
C948 C946 1.391 . S
C948 C949 1.400 . S
C949 C943 1.491 . S
C949 C948 1.400 . S
C949 C950 1.398 . S
C950 H938 0.950 . S
C950 C949 1.398 . S
C950 C951 1.391 . S
C951 H939 0.950 . S
C951 C947 1.393 . S
C951 C950 1.391 . S
H952 C960 0.950 . S
H953 C965 0.950 . S
H954 C962 0.950 . S
H955 C964 0.950 . S
H956 C966 0.950 . S
H957 C968 0.950 . S
H958 C970 0.950 . S
H959 C971 0.950 . S
C960 H952 0.950 . S
C960 C961 1.386 . S
C960 C962 1.391 . S
C961 C960 1.386 . S
C961 C965 1.393 . S
C962 H954 0.950 . S
C962 C960 1.391 . S
C962 C963 1.400 . S
C963 C962 1.400 . S
C963 C964 1.398 . S
C963 C969 1.491 . S
C964 H955 0.950 . S
C964 C963 1.398 . S
C964 C965 1.391 . S
C965 H953 0.950 . S
C965 C961 1.393 . S
C965 C964 1.391 . S
C966 H956 0.950 . S
C966 C967 1.386 . S
C966 C968 1.391 . S
C967 C966 1.386 . S
C967 C971 1.393 . S
C968 H957 0.950 . S
C968 C966 1.391 . S
C968 C969 1.400 . S
C969 C963 1.491 . S
C969 C968 1.400 . S
C969 C970 1.398 . S
C970 H958 0.950 . S
C970 C969 1.398 . S
C970 C971 1.391 . S
C971 H959 0.950 . S
C971 C967 1.393 . S
C971 C970 1.391 . S
H972 C980 0.950 . S
H973 C985 0.950 . S
H974 C982 0.950 . S
H975 C984 0.950 . S
H976 C986 0.950 . S
H977 C988 0.950 . S
H978 C990 0.950 . S
H979 C991 0.950 . S
C980 H972 0.950 . S
C980 C981 1.386 . S
C980 C982 1.391 . S
C981 C980 1.386 . S
C981 C985 1.393 . S
C982 H974 0.950 . S
C982 C980 1.391 . S
C982 C983 1.400 . S
C983 C982 1.400 . S
C983 C984 1.398 . S
C983 C989 1.491 . S
C984 H975 0.950 . S
C984 C983 1.398 . S
C984 C985 1.391 . S
C985 H973 0.950 . S
C985 C981 1.393 . S
C985 C984 1.391 . S
C986 H976 0.950 . S
C986 C987 1.386 . S
C986 C988 1.391 . S
C987 C986 1.386 . S
C987 C991 1.393 . S
C988 H977 0.950 . S
C988 C986 1.391 . S
C988 C989 1.400 . S
C989 C983 1.491 . S
C989 C988 1.400 . S
C989 C990 1.398 . S
C990 H978 0.950 . S
C990 C989 1.398 . S
C990 C991 1.391 . S
C991 H979 0.950 . S
C991 C987 1.393 . S
C991 C990 1.391 . S
H992 C1000 0.950 . S
H993 C1005 0.950 . S
H994 C1002 0.950 . S
H995 C1004 0.950 . S
H996 C1006 0.950 . S
H997 C1008 0.950 . S
H998 C1010 0.950 . S
H999 C1011 0.950 . S
C1000 H992 0.950 . S
C1000 C1001 1.386 . S
C1000 C1002 1.391 . S
C1001 C1000 1.386 . S
C1001 C1005 1.393 . S
C1002 H994 0.950 . S
C1002 C1000 1.391 . S
C1002 C1003 1.400 . S
C1003 C1002 1.400 . S
C1003 C1004 1.398 . S
C1003 C1009 1.491 1_556 S
C1004 H995 0.950 . S
C1004 C1003 1.398 . S
C1004 C1005 1.391 . S
C1005 H993 0.950 . S
C1005 C1001 1.393 . S
C1005 C1004 1.391 . S
C1006 H996 0.950 . S
C1006 C1007 1.386 . S
C1006 C1008 1.391 . S
C1007 C1006 1.386 . S
C1007 C1011 1.393 . S
C1008 H997 0.950 . S
C1008 C1006 1.391 . S
C1008 C1009 1.400 . S
C1009 C1003 1.491 1_554 S
C1009 C1008 1.400 . S
C1009 C1010 1.398 . S
C1010 H998 0.950 . S
C1010 C1009 1.398 . S
C1010 C1011 1.391 . S
C1011 H999 0.950 . S
C1011 C1007 1.393 . S
C1011 C1010 1.391 . S
H1012 C1020 0.950 . S
H1013 C1025 0.950 . S
H1014 C1022 0.950 . S
H1015 C1024 0.950 . S
H1016 C1026 0.950 . S
H1017 C1028 0.950 . S
H1018 C1030 0.950 . S
H1019 C1031 0.950 . S
C1020 H1012 0.950 . S
C1020 C1021 1.386 . S
C1020 C1022 1.391 . S
C1021 C1020 1.386 . S
C1021 C1025 1.393 1_545 S
C1022 H1014 0.950 . S
C1022 C1020 1.391 . S
C1022 C1023 1.400 . S
C1023 C1022 1.400 . S
C1023 C1024 1.398 1_545 S
C1023 C1029 1.491 1_545 S
C1024 H1015 0.950 . S
C1024 C1023 1.398 1_565 S
C1024 C1025 1.391 . S
C1025 H1013 0.950 . S
C1025 C1021 1.393 1_565 S
C1025 C1024 1.391 . S
C1026 H1016 0.950 . S
C1026 C1027 1.386 . S
C1026 C1028 1.391 . S
C1027 C1026 1.386 . S
C1027 C1031 1.393 1_565 S
C1028 H1017 0.950 . S
C1028 C1026 1.391 . S
C1028 C1029 1.400 . S
C1029 C1023 1.491 1_565 S
C1029 C1028 1.400 . S
C1029 C1030 1.398 1_565 S
C1030 H1018 0.950 . S
C1030 C1029 1.398 1_545 S
C1030 C1031 1.391 . S
C1031 H1019 0.950 . S
C1031 C1027 1.393 1_545 S
C1031 C1030 1.391 . S
H1032 C1040 0.950 . S
H1033 C1045 0.950 . S
H1034 C1042 0.950 . S
H1035 C1044 0.950 . S
H1036 C1046 0.950 . S
H1037 C1048 0.950 . S
H1038 C1050 0.950 . S
H1039 C1051 0.950 . S
C1040 H1032 0.950 . S
C1040 C1041 1.386 . S
C1040 C1042 1.391 . S
C1041 C1040 1.386 . S
C1041 C1045 1.393 . S
C1042 H1034 0.950 . S
C1042 C1040 1.391 . S
C1042 C1043 1.400 . S
C1043 C1042 1.400 . S
C1043 C1044 1.398 . S
C1043 C1049 1.491 . S
C1044 H1035 0.950 . S
C1044 C1043 1.398 . S
C1044 C1045 1.391 . S
C1045 H1033 0.950 . S
C1045 C1041 1.393 . S
C1045 C1044 1.391 . S
C1046 H1036 0.950 . S
C1046 C1047 1.386 . S
C1046 C1048 1.391 . S
C1047 C1046 1.386 . S
C1047 C1051 1.393 . S
C1048 H1037 0.950 . S
C1048 C1046 1.391 . S
C1048 C1049 1.400 . S
C1049 C1043 1.491 . S
C1049 C1048 1.400 . S
C1049 C1050 1.398 . S
C1050 H1038 0.950 . S
C1050 C1049 1.398 . S
C1050 C1051 1.391 . S
C1051 H1039 0.950 . S
C1051 C1047 1.393 . S
C1051 C1050 1.391 . S
H1052 C1060 0.950 . S
H1053 C1065 0.950 . S
H1054 C1062 0.950 . S
H1055 C1064 0.950 . S
H1056 C1066 0.950 . S
H1057 C1068 0.950 . S
H1058 C1070 0.950 . S
H1059 C1071 0.950 . S
C1060 H1052 0.950 . S
C1060 C1061 1.386 . S
C1060 C1062 1.391 . S
C1061 C1060 1.386 . S
C1061 C1065 1.393 1_565 S
C1062 H1054 0.950 . S
C1062 C1060 1.391 . S
C1062 C1063 1.400 . S
C1063 C1062 1.400 . S
C1063 C1064 1.398 1_565 S
C1063 C1069 1.491 1_565 S
C1064 H1055 0.950 . S
C1064 C1063 1.398 1_545 S
C1064 C1065 1.391 . S
C1065 H1053 0.950 . S
C1065 C1061 1.393 1_545 S
C1065 C1064 1.391 . S
C1066 H1056 0.950 . S
C1066 C1067 1.386 . S
C1066 C1068 1.391 . S
C1067 C1066 1.386 . S
C1067 C1071 1.393 1_545 S
C1068 H1057 0.950 . S
C1068 C1066 1.391 . S
C1068 C1069 1.400 . S
C1069 C1063 1.491 1_545 S
C1069 C1068 1.400 . S
C1069 C1070 1.398 1_545 S
C1070 H1058 0.950 . S
C1070 C1069 1.398 1_565 S
C1070 C1071 1.391 . S
C1071 H1059 0.950 . S
C1071 C1067 1.393 1_565 S
C1071 C1070 1.391 . S
H1072 C1080 0.950 . S
H1073 C1085 0.950 . S
H1074 C1082 0.950 . S
H1075 C1084 0.950 . S
H1076 C1086 0.950 . S
H1077 C1088 0.950 . S
H1078 C1090 0.950 . S
H1079 C1091 0.950 . S
C1080 H1072 0.950 . S
C1080 C1081 1.386 . S
C1080 C1082 1.391 . S
C1081 C1080 1.386 . S
C1081 C1085 1.393 . S
C1082 H1074 0.950 . S
C1082 C1080 1.391 . S
C1082 C1083 1.400 . S
C1083 C1082 1.400 . S
C1083 C1084 1.398 . S
C1083 C1089 1.491 1_556 S
C1084 H1075 0.950 . S
C1084 C1083 1.398 . S
C1084 C1085 1.391 . S
C1085 H1073 0.950 . S
C1085 C1081 1.393 . S
C1085 C1084 1.391 . S
C1086 H1076 0.950 . S
C1086 C1087 1.386 . S
C1086 C1088 1.391 . S
C1087 C1086 1.386 . S
C1087 C1091 1.393 . S
C1088 H1077 0.950 . S
C1088 C1086 1.391 . S
C1088 C1089 1.400 . S
C1089 C1083 1.491 1_554 S
C1089 C1088 1.400 . S
C1089 C1090 1.398 . S
C1090 H1078 0.950 . S
C1090 C1089 1.398 . S
C1090 C1091 1.391 . S
C1091 H1079 0.950 . S
C1091 C1087 1.393 . S
C1091 C1090 1.391 . S
H1092 C1100 0.950 . S
H1093 C1105 0.950 . S
H1094 C1102 0.950 . S
H1095 C1104 0.950 . S
H1096 C1106 0.950 . S
H1097 C1108 0.950 . S
H1098 C1110 0.950 . S
H1099 C1111 0.950 . S
C1100 H1092 0.950 . S
C1100 C1101 1.386 1_545 S
C1100 C1102 1.391 . S
C1101 C1100 1.386 1_565 S
C1101 C1105 1.393 . S
C1102 H1094 0.950 . S
C1102 C1100 1.391 . S
C1102 C1103 1.400 1_545 S
C1103 C1102 1.400 1_565 S
C1103 C1104 1.398 . S
C1103 C1109 1.491 1_565 S
C1104 H1095 0.950 . S
C1104 C1103 1.398 . S
C1104 C1105 1.391 . S
C1105 H1093 0.950 . S
C1105 C1101 1.393 . S
C1105 C1104 1.391 . S
C1106 H1096 0.950 . S
C1106 C1107 1.386 1_565 S
C1106 C1108 1.391 . S
C1107 C1106 1.386 1_545 S
C1107 C1111 1.393 . S
C1108 H1097 0.950 . S
C1108 C1106 1.391 . S
C1108 C1109 1.400 1_565 S
C1109 C1103 1.491 1_545 S
C1109 C1108 1.400 1_545 S
C1109 C1110 1.398 . S
C1110 H1098 0.950 . S
C1110 C1109 1.398 . S
C1110 C1111 1.391 . S
C1111 H1099 0.950 . S
C1111 C1107 1.393 . S
C1111 C1110 1.391 . S
H1112 C1120 0.950 . S
H1113 C1125 0.950 . S
H1114 C1122 0.950 . S
H1115 C1124 0.950 . S
H1116 C1126 0.950 . S
H1117 C1128 0.950 . S
H1118 C1130 0.950 . S
H1119 C1131 0.950 . S
C1120 H1112 0.950 . S
C1120 C1121 1.386 . S
C1120 C1122 1.391 . S
C1121 C1120 1.386 . S
C1121 C1125 1.393 . S
C1122 H1114 0.950 . S
C1122 C1120 1.391 . S
C1122 C1123 1.400 . S
C1123 C1122 1.400 . S
C1123 C1124 1.398 . S
C1123 C1129 1.491 . S
C1124 H1115 0.950 . S
C1124 C1123 1.398 . S
C1124 C1125 1.391 . S
C1125 H1113 0.950 . S
C1125 C1121 1.393 . S
C1125 C1124 1.391 . S
C1126 H1116 0.950 . S
C1126 C1127 1.386 . S
C1126 C1128 1.391 . S
C1127 C1126 1.386 . S
C1127 C1131 1.393 . S
C1128 H1117 0.950 . S
C1128 C1126 1.391 . S
C1128 C1129 1.400 . S
C1129 C1123 1.491 . S
C1129 C1128 1.400 . S
C1129 C1130 1.398 . S
C1130 H1118 0.950 . S
C1130 C1129 1.398 . S
C1130 C1131 1.391 . S
C1131 H1119 0.950 . S
C1131 C1127 1.393 . S
C1131 C1130 1.391 . S
H1132 C1140 0.951 1_565 S
H1133 C1145 0.950 . S
H1134 C1142 0.950 . S
H1135 C1144 0.950 . S
H1136 C1146 0.952 1_545 S
H1137 C1148 0.950 . S
H1138 C1150 0.950 . S
H1139 C1151 0.950 . S
C1140 H1132 0.951 1_545 S
C1140 C1141 1.386 . S
C1140 C1142 1.391 1_545 S
C1141 C1140 1.386 . S
C1141 C1145 1.393 . S
C1142 H1134 0.950 . S
C1142 C1140 1.391 1_565 S
C1142 C1143 1.400 1_565 S
C1143 C1142 1.400 1_545 S
C1143 C1144 1.398 . S
C1143 C1149 1.491 1_545 S
C1144 H1135 0.950 . S
C1144 C1143 1.398 . S
C1144 C1145 1.391 . S
C1145 H1133 0.950 . S
C1145 C1141 1.393 . S
C1145 C1144 1.391 . S
C1146 H1136 0.952 1_565 S
C1146 C1147 1.386 . S
C1146 C1148 1.391 1_565 S
C1147 C1146 1.386 . S
C1147 C1151 1.393 . S
C1148 H1137 0.950 . S
C1148 C1146 1.391 1_545 S
C1148 C1149 1.400 1_545 S
C1149 C1143 1.491 1_565 S
C1149 C1148 1.400 1_565 S
C1149 C1150 1.398 . S
C1150 H1138 0.950 . S
C1150 C1149 1.398 . S
C1150 C1151 1.391 . S
C1151 H1139 0.950 . S
C1151 C1147 1.393 . S
C1151 C1150 1.391 . S
H1152 C1160 0.950 . S
H1153 C1165 0.950 . S
H1154 C1162 0.950 . S
H1155 C1164 0.950 . S
H1156 C1166 0.950 . S
H1157 C1168 0.950 . S
H1158 C1170 0.950 . S
H1159 C1171 0.950 . S
C1160 H1152 0.950 . S
C1160 C1161 1.386 . S
C1160 C1162 1.391 . S
C1161 C1160 1.386 . S
C1161 C1165 1.393 . S
C1162 H1154 0.950 . S
C1162 C1160 1.391 . S
C1162 C1163 1.400 . S
C1163 C1162 1.400 . S
C1163 C1164 1.398 . S
C1163 C1169 1.491 . S
C1164 H1155 0.950 . S
C1164 C1163 1.398 . S
C1164 C1165 1.391 . S
C1165 H1153 0.950 . S
C1165 C1161 1.393 . S
C1165 C1164 1.391 . S
C1166 H1156 0.950 . S
C1166 C1167 1.386 . S
C1166 C1168 1.391 . S
C1167 C1166 1.386 . S
C1167 C1171 1.393 . S
C1168 H1157 0.950 . S
C1168 C1166 1.391 . S
C1168 C1169 1.400 . S
C1169 C1163 1.491 . S
C1169 C1168 1.400 . S
C1169 C1170 1.398 . S
C1170 H1158 0.950 . S
C1170 C1169 1.398 . S
C1170 C1171 1.391 . S
C1171 H1159 0.950 . S
C1171 C1167 1.393 . S
C1171 C1170 1.391 . S
H1172 C1180 0.950 . S
H1173 C1185 0.950 . S
H1174 C1182 0.950 . S
H1175 C1184 0.950 . S
H1176 C1186 0.950 . S
H1177 C1188 0.950 . S
H1178 C1190 0.950 . S
H1179 C1191 0.950 . S
C1180 H1172 0.950 . S
C1180 C1181 1.386 . S
C1180 C1182 1.391 . S
C1181 C1180 1.386 . S
C1181 C1185 1.393 . S
C1182 H1174 0.950 . S
C1182 C1180 1.391 . S
C1182 C1183 1.400 . S
C1183 C1182 1.400 . S
C1183 C1184 1.398 . S
C1183 C1189 1.491 . S
C1184 H1175 0.950 . S
C1184 C1183 1.398 . S
C1184 C1185 1.391 . S
C1185 H1173 0.950 . S
C1185 C1181 1.393 . S
C1185 C1184 1.391 . S
C1186 H1176 0.950 . S
C1186 C1187 1.386 . S
C1186 C1188 1.391 . S
C1187 C1186 1.386 . S
C1187 C1191 1.393 . S
C1188 H1177 0.950 . S
C1188 C1186 1.391 . S
C1188 C1189 1.400 . S
C1189 C1183 1.491 . S
C1189 C1188 1.400 . S
C1189 C1190 1.398 . S
C1190 H1178 0.950 . S
C1190 C1189 1.398 . S
C1190 C1191 1.391 . S
C1191 H1179 0.950 . S
C1191 C1187 1.393 . S
C1191 C1190 1.391 . S
H1192 C1200 0.950 . S
H1193 C1205 0.950 . S
H1194 C1202 0.950 . S
H1195 C1204 0.950 . S
H1196 C1206 0.950 . S
H1197 C1208 0.950 . S
H1198 C1210 0.950 . S
H1199 C1211 0.950 . S
C1200 H1192 0.950 . S
C1200 C1201 1.386 . S
C1200 C1202 1.391 . S
C1201 C1200 1.386 . S
C1201 C1205 1.393 . S
C1202 H1194 0.950 . S
C1202 C1200 1.391 . S
C1202 C1203 1.400 . S
C1203 C1202 1.400 . S
C1203 C1204 1.398 . S
C1203 C1209 1.491 1_554 S
C1204 H1195 0.950 . S
C1204 C1203 1.398 . S
C1204 C1205 1.391 . S
C1205 H1193 0.950 . S
C1205 C1201 1.393 . S
C1205 C1204 1.391 . S
C1206 H1196 0.950 . S
C1206 C1207 1.386 . S
C1206 C1208 1.391 . S
C1207 C1206 1.386 . S
C1207 C1211 1.393 . S
C1208 H1197 0.950 . S
C1208 C1206 1.391 . S
C1208 C1209 1.400 . S
C1209 C1203 1.491 1_556 S
C1209 C1208 1.400 . S
C1209 C1210 1.398 . S
C1210 H1198 0.950 . S
C1210 C1209 1.398 . S
C1210 C1211 1.391 . S
C1211 H1199 0.950 . S
C1211 C1207 1.393 . S
C1211 C1210 1.391 . S
H1212 C1220 0.950 . S
H1213 C1225 0.950 . S
H1214 C1222 0.950 . S
H1215 C1224 0.950 . S
H1216 C1226 0.950 . S
H1217 C1228 0.950 . S
H1218 C1230 0.950 . S
H1219 C1231 0.950 . S
C1220 H1212 0.950 . S
C1220 C1221 1.386 . S
C1220 C1222 1.391 . S
C1221 C1220 1.386 . S
C1221 C1225 1.393 . S
C1222 H1214 0.950 . S
C1222 C1220 1.391 . S
C1222 C1223 1.400 . S
C1223 C1222 1.400 . S
C1223 C1224 1.398 . S
C1223 C1229 1.491 . S
C1224 H1215 0.950 . S
C1224 C1223 1.398 . S
C1224 C1225 1.391 . S
C1225 H1213 0.950 . S
C1225 C1221 1.393 . S
C1225 C1224 1.391 . S
C1226 H1216 0.950 . S
C1226 C1227 1.386 . S
C1226 C1228 1.391 . S
C1227 C1226 1.386 . S
C1227 C1231 1.393 . S
C1228 H1217 0.950 . S
C1228 C1226 1.391 . S
C1228 C1229 1.400 . S
C1229 C1223 1.491 . S
C1229 C1228 1.400 . S
C1229 C1230 1.398 . S
C1230 H1218 0.950 . S
C1230 C1229 1.398 . S
C1230 C1231 1.391 . S
C1231 H1219 0.950 . S
C1231 C1227 1.393 . S
C1231 C1230 1.391 . S
H1232 C1240 0.950 . S
H1233 C1245 0.950 . S
H1234 C1242 0.950 . S
H1235 C1244 0.950 . S
H1236 C1246 0.950 . S
H1237 C1248 0.950 . S
H1238 C1250 0.950 . S
H1239 C1251 0.950 . S
C1240 H1232 0.950 . S
C1240 C1241 1.386 . S
C1240 C1242 1.391 . S
C1241 C1240 1.386 . S
C1241 C1245 1.393 . S
C1242 H1234 0.950 . S
C1242 C1240 1.391 . S
C1242 C1243 1.400 . S
C1243 C1242 1.400 . S
C1243 C1244 1.398 . S
C1243 C1249 1.491 . S
C1244 H1235 0.950 . S
C1244 C1243 1.398 . S
C1244 C1245 1.391 . S
C1245 H1233 0.950 . S
C1245 C1241 1.393 . S
C1245 C1244 1.391 . S
C1246 H1236 0.950 . S
C1246 C1247 1.386 . S
C1246 C1248 1.391 . S
C1247 C1246 1.386 . S
C1247 C1251 1.393 . S
C1248 H1237 0.950 . S
C1248 C1246 1.391 . S
C1248 C1249 1.400 . S
C1249 C1243 1.491 . S
C1249 C1248 1.400 . S
C1249 C1250 1.398 . S
C1250 H1238 0.950 . S
C1250 C1249 1.398 . S
C1250 C1251 1.391 . S
C1251 H1239 0.950 . S
C1251 C1247 1.393 . S
C1251 C1250 1.391 . S
H1252 C1260 0.950 . S
H1253 C1265 0.950 . S
H1254 C1262 0.950 . S
H1255 C1264 0.950 . S
H1256 C1266 0.950 . S
H1257 C1268 0.950 . S
H1258 C1270 0.950 . S
H1259 C1271 0.950 . S
C1260 H1252 0.950 . S
C1260 C1261 1.386 . S
C1260 C1262 1.391 . S
C1261 C1260 1.386 . S
C1261 C1265 1.393 . S
C1262 H1254 0.950 . S
C1262 C1260 1.391 . S
C1262 C1263 1.400 . S
C1263 C1262 1.400 . S
C1263 C1264 1.398 . S
C1263 C1269 1.491 . S
C1264 H1255 0.950 . S
C1264 C1263 1.398 . S
C1264 C1265 1.391 . S
C1265 H1253 0.950 . S
C1265 C1261 1.393 . S
C1265 C1264 1.391 . S
C1266 H1256 0.950 . S
C1266 C1267 1.386 . S
C1266 C1268 1.391 . S
C1267 C1266 1.386 . S
C1267 C1271 1.393 . S
C1268 H1257 0.950 . S
C1268 C1266 1.391 . S
C1268 C1269 1.400 . S
C1269 C1263 1.491 . S
C1269 C1268 1.400 . S
C1269 C1270 1.398 . S
C1270 H1258 0.950 . S
C1270 C1269 1.398 . S
C1270 C1271 1.391 . S
C1271 H1259 0.950 . S
C1271 C1267 1.393 . S
C1271 C1270 1.391 . S
H1272 C1280 0.950 . S
H1273 C1285 0.950 . S
H1274 C1282 0.950 . S
H1275 C1284 0.950 . S
H1276 C1286 0.950 . S
H1277 C1288 0.950 . S
H1278 C1290 0.950 . S
H1279 C1291 0.950 . S
C1280 H1272 0.950 . S
C1280 C1281 1.386 . S
C1280 C1282 1.391 . S
C1281 C1280 1.386 . S
C1281 C1285 1.393 . S
C1282 H1274 0.950 . S
C1282 C1280 1.391 . S
C1282 C1283 1.400 . S
C1283 C1282 1.400 . S
C1283 C1284 1.398 . S
C1283 C1289 1.491 1_556 S
C1284 H1275 0.950 . S
C1284 C1283 1.398 . S
C1284 C1285 1.391 . S
C1285 H1273 0.950 . S
C1285 C1281 1.393 . S
C1285 C1284 1.391 . S
C1286 H1276 0.950 . S
C1286 C1287 1.386 . S
C1286 C1288 1.391 . S
C1287 C1286 1.386 . S
C1287 C1291 1.393 . S
C1288 H1277 0.950 . S
C1288 C1286 1.391 . S
C1288 C1289 1.400 . S
C1289 C1283 1.491 1_554 S
C1289 C1288 1.400 . S
C1289 C1290 1.398 . S
C1290 H1278 0.950 . S
C1290 C1289 1.398 . S
C1290 C1291 1.391 . S
C1291 H1279 0.950 . S
C1291 C1287 1.393 . S
C1291 C1290 1.391 . S
H1292 C1300 0.950 . S
H1293 C1305 0.950 . S
H1294 C1302 0.950 . S
H1295 C1304 0.950 . S
H1296 C1306 0.950 . S
H1297 C1308 0.950 . S
H1298 C1310 0.950 . S
H1299 C1311 0.950 . S
C1300 H1292 0.950 . S
C1300 C1301 1.386 . S
C1300 C1302 1.391 . S
C1301 C1300 1.386 . S
C1301 C1305 1.393 . S
C1302 H1294 0.950 . S
C1302 C1300 1.391 . S
C1302 C1303 1.400 . S
C1303 C1302 1.400 . S
C1303 C1304 1.398 . S
C1303 C1309 1.491 . S
C1304 H1295 0.950 . S
C1304 C1303 1.398 . S
C1304 C1305 1.391 . S
C1305 H1293 0.950 . S
C1305 C1301 1.393 . S
C1305 C1304 1.391 . S
C1306 H1296 0.950 . S
C1306 C1307 1.386 . S
C1306 C1308 1.391 . S
C1307 C1306 1.386 . S
C1307 C1311 1.393 . S
C1308 H1297 0.950 . S
C1308 C1306 1.391 . S
C1308 C1309 1.400 . S
C1309 C1303 1.491 . S
C1309 C1308 1.400 . S
C1309 C1310 1.398 . S
C1310 H1298 0.950 . S
C1310 C1309 1.398 . S
C1310 C1311 1.391 . S
C1311 H1299 0.950 . S
C1311 C1307 1.393 . S
C1311 C1310 1.391 . S
C361 C272 1.542 . S
C367 C8 1.563 . S
C381 C19 1.565 . S
C387 C107 1.536 . S
C401 C294 1.542 . S
C407 C30 1.563 . S
C421 C41 1.562 . S
C427 C129 1.540 . S
C441 C52 1.562 . S
C447 C316 1.525 . S
C461 C63 1.565 . S
C467 C151 1.531 . S
C481 C74 1.562 . S
C487 C338 1.541 . S
C501 C173 1.523 . S
C507 C85 1.562 . S
C521 C184 1.562 . S
C527 C96 1.541 . S
C541 C118 1.531 . S
C547 C206 1.561 . S
C561 C228 1.563 . S
C567 C140 1.541 . S
C581 C250 1.565 . S
C587 C162 1.530 . S
C601 C283 1.526 . S
C607 C195 1.562 . S
C621 C217 1.562 . S
C627 C305 1.541 . S
C641 C327 1.538 . S
C647 C239 1.565 . S
C661 C349 1.529 . S
C667 C261 1.561 . S
C681 C236 1.352 . S
C687 C5 1.393 . S
C701 C247 1.356 . S
C707 C16 1.391 . S
C721 C27 1.390 . S
C727 C258 1.353 . S
C741 C38 1.391 . S
C747 C225 1.353 . S
C761 C214 1.367 . S
C767 C49 1.380 . S
C781 C60 1.394 . S
C787 C181 1.350 . S
C801 C71 1.394 . S
C807 C192 1.351 . S
C821 C82 1.394 . S
C827 C203 1.351 . S
C841 C93 1.275 . S
C847 C324 1.315 . S
C861 C104 1.307 . S
C867 C335 1.316 . S
C881 C346 1.311 . S
C887 C115 1.313 . S
C901 C126 1.307 . S
C907 C313 1.315 . S
C921 C302 1.290 . S
C927 C137 1.321 . S
C941 C148 1.269 . S
C947 C269 1.298 . S
C961 C280 1.304 . S
C967 C159 1.269 . S
C981 C291 1.271 . S
C987 C170 1.309 . S
C1001 C73 1.533 . S
C1007 C7 1.528 . S
C1021 C84 1.533 . S
C1027 C18 1.528 . S
C1041 C51 1.527 . S
C1047 C29 1.525 . S
C1061 C62 1.539 . S
C1067 C40 1.534 . S
C1081 C95 1.505 . S
C1087 C161 1.480 . S
C1101 C172 1.499 . S
C1107 C106 1.480 . S
C1121 C117 1.506 . S
C1127 C139 1.485 . S
C1141 C150 1.492 . S
C1147 C128 1.484 . S
C1161 C183 1.525 . S
C1167 C249 1.526 . S
C1181 C194 1.533 . S
C1187 C260 1.528 . S
C1201 C205 1.535 . S
C1207 C227 1.530 . S
C1221 C216 1.533 . S
C1227 C238 1.528 . S
C1241 C337 1.484 . S
C1247 C271 1.492 . S
C1261 C348 1.489 . S
C1267 C282 1.503 . S
C1281 C293 1.501 . S
C1287 C315 1.479 . S
C1301 C326 1.501 . S
C1307 C304 1.493 . S
