# Generated by pormake.
# Topology rkf, (6)-cn, num edge types: 1
# Building blocks:
#     Node 0, Type 0, BuildingBlock: PAMTUU_clean_sbu_0, # of connection points: 6
#     Node 1, Type 0, BuildingBlock: PAMTUU_clean_sbu_0, # of connection points: 6
#     Node 2, Type 0, BuildingBlock: PAMTUU_clean_sbu_0, # of connection points: 6
#     Node 3, Type 0, BuildingBlock: PAMTUU_clean_sbu_0, # of connection points: 6
#     Node 4, Type 0, BuildingBlock: PAMTUU_clean_sbu_0, # of connection points: 6
#     Node 5, Type 0, BuildingBlock: PAMTUU_clean_sbu_0, # of connection points: 6
#     Edge 6, Type (0, 0), BuildingBlock: KIFKEQ_clean_linker_1, # of connection points: 2
#     Edge 7, Type (0, 0), BuildingBlock: KIFKEQ_clean_linker_1, # of connection points: 2
#     Edge 8, Type (0, 0), BuildingBlock: KIFKEQ_clean_linker_1, # of connection points: 2
#     Edge 9, Type (0, 0), BuildingBlock: KIFKEQ_clean_linker_1, # of connection points: 2
#     Edge 10, Type (0, 0), BuildingBlock: KIFKEQ_clean_linker_1, # of connection points: 2
#     Edge 11, Type (0, 0), BuildingBlock: KIFKEQ_clean_linker_1, # of connection points: 2
#     Edge 12, Type (0, 0), BuildingBlock: KIFKEQ_clean_linker_1, # of connection points: 2
#     Edge 13, Type (0, 0), BuildingBlock: KIFKEQ_clean_linker_1, # of connection points: 2
#     Edge 14, Type (0, 0), BuildingBlock: KIFKEQ_clean_linker_1, # of connection points: 2
#     Edge 15, Type (0, 0), BuildingBlock: KIFKEQ_clean_linker_1, # of connection points: 2
#     Edge 16, Type (0, 0), BuildingBlock: KIFKEQ_clean_linker_1, # of connection points: 2
#     Edge 17, Type (0, 0), BuildingBlock: KIFKEQ_clean_linker_1, # of connection points: 2
#     Edge 18, Type (0, 0), BuildingBlock: KIFKEQ_clean_linker_1, # of connection points: 2
#     Edge 19, Type (0, 0), BuildingBlock: KIFKEQ_clean_linker_1, # of connection points: 2
#     Edge 20, Type (0, 0), BuildingBlock: KIFKEQ_clean_linker_1, # of connection points: 2
#     Edge 21, Type (0, 0), BuildingBlock: KIFKEQ_clean_linker_1, # of connection points: 2
#     Edge 22, Type (0, 0), BuildingBlock: KIFKEQ_clean_linker_1, # of connection points: 2
#     Edge 23, Type (0, 0), BuildingBlock: KIFKEQ_clean_linker_1, # of connection points: 2
# Relax obj value: 0.788
# Max RMSD: 0.266
# Mean RMSD: 0.265
data_MOF--net-rkf--node1-PAMTUU_clean_sbu_0--edge1-KIFKEQ_clean_linker_1
_symmetry_space_group_name_H-M    P1
_symmetry_Int_Tables_number       1
_symmetry_cell_setting            triclinic
loop_
_symmetry_equiv_pos_as_xyz
'x, y, z'
_cell_length_a     27.356726
_cell_length_b     26.745314
_cell_length_c     42.532253
_cell_angle_alpha  89.997712
_cell_angle_beta   89.847505
_cell_angle_gamma 120.26204
loop_
_atom_site_label
_atom_site_type_symbol
_atom_site_fract_x
_atom_site_fract_y
_atom_site_fract_z
_atom_type_partial_charge
Tb0 Tb 0.23782 0.01788 0.20564 0.0
Tb1 Tb 0.25205 0.14025 0.18414 0.0
C2 C 0.35029 0.12114 0.19254 0.0
C3 C 0.21855 0.87951 0.24363 0.0
C4 C 0.18109 0.78444 0.28478 0.0
C5 C 0.2388 0.8265 0.283 0.0
C6 C 0.2574 0.87343 0.26242 0.0
C7 C 0.16099 0.83693 0.24505 0.0
C8 C 0.14252 0.78994 0.26539 0.0
C9 C 0.23932 0.92724 0.22068 0.0
O10 O 0.24578 0.06458 0.25049 0.0
O11 O 0.22568 0.1334 0.23273 0.0
O12 O 0.16325 0.07764 0.17687 0.0
O13 O 0.15416 0.00614 0.21099 0.0
O14 O 0.31082 0.21874 1.16324 0.0
O15 O 0.2339 0.208 0.18501 0.0
O16 O 0.24084 0.09505 1.13871 0.0
O17 O 0.20943 0.00246 1.15698 0.0
O18 O 0.31645 0.07055 0.18081 0.0
O19 O 0.32756 0.14834 0.20566 0.0
C20 C 0.23387 0.10619 0.25595 0.0
O21 O 0.20208 0.92832 0.20209 0.0
O22 O 0.27723 -0.02096 0.23 0.0
C23 C 0.13215 0.02846 0.19207 0.0
C24 C 0.28692 0.2906 1.15211 0.0
C25 C 0.30545 0.38613 1.11555 0.0
C26 C 0.28138 0.33046 1.10208 0.0
C27 C 0.27237 0.28294 1.12026 0.0
C28 C 0.31051 0.34569 1.16562 0.0
C29 C 0.31981 0.39311 1.14753 0.0
C30 C 0.28231 0.24366 1.17173 0.0
C31 C 0.21712 0.03852 1.13388 0.0
H32 H 0.26936 0.82342 0.29778 0.0
H33 H 0.30218 0.90506 0.26121 0.0
H34 H 0.13001 0.83987 0.23058 0.0
H35 H 0.09757 0.75902 0.26677 0.0
H36 H 0.26883 0.32346 1.07762 0.0
H37 H 0.25442 0.24058 1.10952 0.0
H38 H 0.32259 0.35222 0.19019 0.0
H39 H 0.33882 0.43532 1.15852 0.0
Tb40 Tb 0.20053 0.33724 0.52491 0.0
Tb41 Tb 0.17305 0.20886 0.54577 0.0
C42 C 0.2917 0.31578 0.55248 0.0
C43 C 0.20632 0.46608 0.48639 0.0
C44 C 0.16898 0.5141 0.43978 0.0
C45 C 0.227 0.53394 0.44341 0.0
C46 C 0.24551 0.51027 0.46664 0.0
C47 C 0.14855 0.44778 0.48354 0.0
C48 C 0.13016 0.47172 0.46059 0.0
C49 C 0.22607 0.43911 0.50952 0.0
O50 O 0.22196 0.29903 0.48434 0.0
O51 O 0.16074 0.20382 0.49529 0.0
O52 O 0.0921 0.20436 0.53927 0.0
O53 O 0.11743 0.28169 0.50568 0.0
O54 O 0.17528 0.13419 0.53333 0.0
O55 O 0.14506 0.14143 0.57888 0.0
O56 O 0.17603 0.2532 0.58968 0.0
O57 O 0.15128 0.31608 0.56888 0.0
O58 O 0.26672 0.34603 0.55611 0.0
O59 O 0.26405 0.26358 0.54087 0.0
C60 C 0.19455 0.24406 0.47549 0.0
O61 O 0.19069 0.40917 0.53183 0.0
O62 O 0.25168 0.4129 0.49845 0.0
C63 C 0.07928 0.23416 0.51961 0.0
C64 C 0.19865 0.09508 0.57565 0.0
C65 C 0.27172 0.06236 0.60332 0.0
C66 C 0.21988 0.02048 0.59014 0.0
C67 C 0.18366 0.03678 0.57642 0.0
C68 C 0.25108 0.13731 0.58777 0.0
C69 C 0.2873 0.12107 0.60157 0.0
C70 C 0.16039 0.11183 0.56126 0.0
C71 C 0.15399 0.28674 0.59306 0.0
H72 H 0.25782 0.5664 0.42764 0.0
H73 H 0.29031 0.52538 0.46864 0.0
H74 H 0.11725 0.41375 0.49842 0.0
H75 H 0.08508 0.45451 0.45799 0.0
H76 H 0.20612 0.97483 0.59162 0.0
H77 H 0.14357 0.00378 0.56685 0.0
H78 H 0.26362 0.18272 0.5869 0.0
H79 H 0.32699 0.15427 0.61141 0.0
Tb80 Tb -0.02026 0.33364 0.87314 0.0
Tb81 Tb 0.87494 0.20978 0.85277 0.0
C82 C 0.86982 0.32131 0.85074 0.0
C83 C 0.09954 0.46733 0.91085 0.0
C84 C 0.18408 0.5271 0.95632 0.0
C85 C 0.13659 0.53417 0.95487 0.0
C86 C 0.09481 0.50474 0.9322 0.0
C87 C 0.14818 0.46221 0.91148 0.0
C88 C 0.18992 0.49175 0.93395 0.0
C89 C 0.05485 0.4358 0.88732 0.0
O90 O 0.92898 0.29285 0.91659 0.0
O91 O 0.88787 0.19801 0.90171 0.0
O92 O 0.94767 0.19735 0.85667 0.0
O93 O 0.00999 0.27648 0.8867 0.0
O94 O 0.79456 0.14159 0.86526 0.0
O95 O 0.83146 0.14232 0.82036 0.0
O96 O 0.91529 0.25266 0.80815 0.0
O97 O 0.00379 0.314 0.82757 0.0
O98 O 0.92272 0.34478 0.84282 0.0
O99 O 0.84502 0.26975 0.86316 0.0
C100 C 0.90044 0.23688 0.9237 0.0
O101 O 0.06242 0.4026 0.86795 0.0
O102 O 0.00239 0.41158 0.89686 0.0
C103 C -0.00543 0.22663 0.87318 0.0
C104 C 0.73314 0.10464 0.82256 0.0
C105 C 0.63328 0.07805 0.79029 0.0
C106 C 0.63845 0.03437 0.80575 0.0
C107 C 0.68802 0.04763 0.82172 0.0
C108 C 0.72727 0.14899 0.80876 0.0
C109 C 0.67768 0.13577 0.79267 0.0
C110 C 0.78608 0.11733 0.83781 0.0
C111 C -0.02953 0.2852 0.8039 0.0
H112 H 0.13105 0.56119 0.9718 0.0
H113 H 0.05827 0.51037 0.93172 0.0
H114 H 0.15363 0.43441 0.89508 0.0
H115 H 0.22535 0.48436 0.93478 0.0
H116 H 0.60563 -0.01065 0.80391 0.0
H117 H 0.69179 0.01306 0.83257 0.0
H118 H 0.76162 0.1935 0.80968 0.0
H119 H 0.67489 0.17032 0.78109 0.0
Tb120 Tb 0.66807 0.97318 0.19235 0.0
Tb121 Tb 0.78969 0.07968 0.21519 0.0
C122 C 0.67995 0.0843 0.22031 0.0
C123 C 0.54386 0.85146 1.1502 0.0
C124 C 0.49569 0.77355 1.09954 0.0
C125 C 0.48406 0.81869 1.10373 0.0
C126 C 0.50775 0.85714 1.12893 0.0
C127 C 0.55313 0.8046 1.1469 0.0
C128 C 0.52933 0.76614 1.12187 0.0
C129 C 0.57056 0.89369 0.17598 0.0
O130 O 0.70491 0.03286 1.15154 0.0
O131 O 0.79839 0.07452 1.16469 0.0
O132 O 0.79999 0.00493 0.209 0.0
O133 O 0.7278 0.95 1.17418 0.0
O134 O 0.85942 0.1609 0.20421 0.0
O135 O 0.85475 0.12005 0.24858 0.0
O136 O 0.74592 0.03473 0.25858 0.0
O137 O 0.68752 0.94567 0.23699 0.0
O138 O 0.65395 0.02823 0.22393 0.0
O139 O 0.73185 0.11217 0.20979 0.0
C140 C 0.75916 0.06454 1.14391 0.0
O141 O 0.60413 0.88625 0.19456 0.0
O142 O 0.59109 0.94826 1.16915 0.0
C143 C 0.77419 0.96157 0.18913 0.0
C144 C 0.89856 0.22294 0.24796 0.0
C145 C 0.93848 0.33078 0.27815 0.0
C146 C 0.91973 0.27969 0.29579 0.0
C147 C 0.90008 0.22648 0.28089 0.0
C148 C 0.91618 0.27372 0.23027 0.0
C149 C 0.93576 0.32704 0.2452 0.0
C150 C 0.88151 0.16738 0.232 0.0
C151 C 0.71474 0.97799 0.26142 0.0
H152 H 0.45812 0.82535 1.08698 0.0
H153 H 0.49893 0.89216 1.13135 0.0
H154 H 0.58003 0.79833 1.16312 0.0
H155 H 0.54004 0.73253 1.11908 0.0
H156 H 0.92255 0.28099 0.3212 0.0
H157 H 0.88744 0.18839 0.29524 0.0
H158 H 0.91587 0.27246 0.20481 0.0
H159 H 0.94975 0.36545 0.23093 0.0
Tb160 Tb 0.67201 0.77376 0.54483 0.0
Tb161 Tb 0.77232 0.75139 0.52152 0.0
C162 C 0.65319 0.65535 0.53335 0.0
C163 C 0.5667 0.80907 0.58371 0.0
C164 C 0.51938 0.86049 0.6216 0.0
C165 C 0.49161 0.80007 0.61819 0.0
C166 C 0.51494 0.77465 0.59924 0.0
C167 C 0.5947 0.86947 0.58723 0.0
C168 C 0.57117 0.8949 0.60594 0.0
C169 C 0.5873 0.78152 0.5615 0.0
O170 O 0.7113 0.76487 0.5888 0.0
O171 O 0.7968 0.78203 0.56916 0.0
O172 O 0.80312 0.84214 0.51176 0.0
O173 O 0.74844 0.85683 0.54787 0.0
O174 O 0.78273 0.68443 0.50397 0.0
O175 O 0.85557 0.76634 0.51807 0.0
O176 O 0.73652 0.76012 0.47662 0.0
O177 O 0.68302 0.79844 0.4953 0.0
O178 O 0.63753 0.69035 0.52245 0.0
O179 O 0.70346 0.67769 0.5453 0.0
C180 C 0.76381 0.77565 0.59312 0.0
O181 O 0.62477 0.81501 0.54082 0.0
O182 O 0.59764 0.74203 0.57223 0.0
C183 C 0.78949 0.87641 0.52696 0.0
C184 C 0.8719 0.70188 0.48676 0.0
C185 C 0.93237 0.66966 0.44608 0.0
C186 C 0.91099 0.70482 0.43528 0.0
C187 C 0.88066 0.72064 0.45549 0.0
C188 C 0.89315 0.66711 0.49762 0.0
C189 C 0.92307 0.65103 0.47749 0.0
C190 C 0.83732 0.71347 0.50839 0.0
C191 C 0.70728 0.7867 0.47189 0.0
H192 H 0.45182 0.77256 0.63012 0.0
H193 H 0.49222 0.72804 0.59643 0.0
H194 H 0.63454 0.89715 0.57539 0.0
H195 H 0.59426 0.9415 0.60876 0.0
H196 H 0.91839 0.72082 0.41134 0.0
H197 H 0.86396 0.7471 0.44678 0.0
H198 H 0.88588 0.65166 0.5217 0.0
H199 H 0.93843 0.62358 0.48646 0.0
Tb200 Tb 0.0313 0.80054 0.85663 0.0
Tb201 Tb 0.92854 0.81874 0.88078 0.0
C202 C 0.92 0.69911 0.88157 0.0
C203 C 0.15715 0.80615 0.81771 0.0
C204 C 0.24675 0.85513 0.77391 0.0
C205 C 0.21632 0.79497 0.77894 0.0
C206 C 0.17196 0.77072 0.80076 0.0
C207 C 0.18883 0.86636 0.81366 0.0
C208 C 0.23341 0.89064 0.79208 0.0
C209 C 0.1077 0.77958 0.83873 0.0
O210 O -0.02793 0.78064 0.81662 0.0
O211 O 0.93659 0.83826 0.83094 0.0
O212 O 0.0019 0.90479 0.87557 0.0
O213 O 0.05912 0.88834 0.84188 0.0
O214 O 0.85179 0.81437 0.86994 0.0
O215 O 0.88819 0.84017 0.91604 0.0
O216 O -0.02702 0.81744 0.92339 0.0
O217 O 0.05973 0.84882 0.90099 0.0
O218 O -0.02524 0.72712 0.88559 0.0
O219 O 0.89431 0.72674 0.87273 0.0
C220 C 0.94405 0.80752 0.80955 0.0
O221 O 0.11075 0.80859 0.86389 0.0
O222 O 0.05842 0.75817 0.82538 0.0
C223 C 0.04612 0.92306 0.85681 0.0
C224 C 0.78756 0.78678 0.91256 0.0
C225 C 0.67838 0.72124 0.93921 0.0
C226 C 0.72667 0.74873 0.95846 0.0
C227 C 0.78056 0.78117 0.9453 0.0
C228 C 0.73954 0.75791 0.89322 0.0
C229 C 0.68553 0.72534 0.90641 0.0
C230 C 0.84391 0.82566 0.89862 0.0
C231 C 0.02852 0.84359 0.92578 0.0
H232 H 0.22554 0.7666 0.76519 0.0
H233 H 0.14809 0.72414 0.80373 0.0
H234 H 0.17801 0.89453 0.82644 0.0
H235 H 0.25515 0.937 0.78828 0.0
H236 H 0.72278 0.74775 0.98383 0.0
H237 H 0.81652 0.80334 0.96087 0.0
H238 H 0.74348 0.7617 0.86787 0.0
H239 H 0.64927 0.70462 0.89095 0.0
H240 H 0.80291 0.93686 1.13241 0.0
H241 H 0.80812 0.91265 0.23231 0.0
H242 H 0.88282 0.92105 1.12499 0.0
H243 H 0.88758 0.89764 0.22533 0.0
H244 H 0.05435 0.92222 0.21567 0.0
H245 H 0.95272 0.86867 0.20577 0.0
H246 H -0.02799 0.00389 1.14234 0.0
H247 H 0.07272 0.05635 1.15163 0.0
C248 C 0.81918 0.92492 1.15248 0.0
C249 C 0.80135 0.92767 0.18298 0.0
C250 C 0.86491 0.91608 1.14832 0.0
C251 C 0.89288 0.91063 0.17471 0.0
C252 C 0.86762 0.90246 0.2045 0.0
C253 C 0.8223 0.91152 0.20863 0.0
C254 C 0.03683 0.94014 0.19937 0.0
C255 C 0.07119 -0.00548 0.18527 0.0
C256 C -0.02118 0.90904 0.19339 0.0
C257 C 0.95425 0.93196 1.17334 0.0
C258 C -0.01054 -0.01568 1.15754 0.0
C259 C 0.04725 0.01525 1.16346 0.0
H260 H 0.87825 0.93474 0.4868 0.0
H261 H 0.75928 0.95539 0.5446 0.0
H262 H 0.92632 0.03667 0.47396 0.0
H263 H 0.80701 0.05786 0.5311 0.0
H264 H -0.00554 0.20532 0.56054 0.0
H265 H 0.89918 0.1262 0.55225 0.0
H266 H 0.93497 0.12648 0.45311 0.0
H267 H 0.03127 0.20642 0.46184 0.0
C268 C 0.86189 0.96092 0.49642 0.0
C269 C 0.81657 0.93763 0.51775 0.0
C270 C 0.8886 0.01925 0.48844 0.0
C271 C 0.8705 0.05549 0.50162 0.0
C272 C 0.82206 0.03103 0.52079 0.0
C273 C 0.79546 0.97262 0.52892 0.0
C274 C -0.01926 0.19057 0.53672 0.0
C275 C 0.0198 0.20983 0.51197 0.0
C276 C 0.92592 0.14542 0.5318 0.0
C277 C 0.91064 0.11846 0.50222 0.0
C278 C 0.94645 0.14566 0.4763 0.0
C279 C 0.00141 0.19135 0.48123 0.0
H280 H 0.05471 -0.0109 0.80683 0.0
H281 H 0.11419 -0.00421 0.90131 0.0
H282 H 0.07541 0.08847 0.81157 0.0
H283 H 0.13679 0.09612 0.90606 0.0
H284 H 0.07171 0.24412 0.82884 0.0
H285 H 0.1233 0.19175 0.82338 0.0
H286 H 0.05389 0.10689 0.91247 0.0
H287 H 0.00385 0.16026 0.91784 0.0
C288 C 0.07576 0.01335 0.82782 0.0
C289 C 0.08227 -0.01456 0.85386 0.0
C290 C 0.08777 0.07038 0.83064 0.0
C291 C 0.10602 0.09938 0.85964 0.0
C292 C 0.12157 0.07426 0.88373 0.0
C293 C 0.109 0.01711 0.88098 0.0
C294 C 0.06944 0.21563 0.84762 0.0
C295 C 0.03389 0.20516 0.87357 0.0
C296 C 0.09892 0.18592 0.84457 0.0
C297 C 0.09242 0.14494 0.86732 0.0
C298 C 0.06062 0.13876 0.8947 0.0
C299 C 0.03136 0.16864 0.89773 0.0
H300 H 0.34332 0.41314 1.05499 0.0
H301 H 0.28557 0.47273 1.13341 0.0
H302 H 0.33648 0.48188 1.02084 0.0
H303 H 0.28152 0.54389 1.09951 0.0
H304 H 0.15465 0.52168 1.01776 0.0
H305 H 0.20831 0.51823 1.06171 0.0
H306 H 0.35463 0.57447 1.00162 0.0
H307 H 0.29986 0.57721 0.95705 0.0
C308 C 0.33044 0.44193 1.06508 0.0
C309 C 0.31306 0.43608 1.09659 0.0
C310 C 0.32764 0.48235 1.04563 0.0
C311 C 0.3074 0.5178 1.05733 0.0
C312 C 0.29632 0.51649 1.08969 0.0
C313 C 0.29878 0.47574 1.10912 0.0
C314 C 0.19903 0.53612 1.01411 0.0
C315 C 0.22246 0.54766 0.98377 0.0
C316 C 0.23014 0.5343 1.03949 0.0
C317 C 0.28522 0.54401 1.03491 0.0
C318 C 0.31163 0.56495 1.00561 0.0
C319 C 0.28032 0.56651 0.98012 0.0
H320 H 0.20334 0.5189 0.37938 0.0
H321 H 0.08492 0.54168 0.43608 0.0
H322 H 0.14704 0.50556 0.33337 0.0
H323 H 0.02828 0.52959 0.3894 0.0
H324 H 0.90728 0.35958 0.33337 0.0
H325 H -0.03138 0.43845 0.36762 0.0
H326 H 0.09332 0.51327 0.29326 0.0
H327 H 0.0332 0.43152 0.25968 0.0
C328 C 0.16667 0.52404 0.38175 0.0
C329 C 0.1474 0.52913 0.4115 0.0
C330 C 0.13408 0.51653 0.35512 0.0
C331 C 0.08155 0.51405 0.35777 0.0
C332 C 0.06736 0.52901 0.38672 0.0
C333 C 0.09982 0.53603 0.41347 0.0
C334 C 0.94737 0.39339 0.32412 0.0
C335 C -0.03355 0.38775 0.29438 0.0
C336 C -0.01756 0.43954 0.34364 0.0
C337 C 0.03724 0.48137 0.33369 0.0
C338 C 0.05228 0.48067 0.30209 0.0
C339 C 0.01748 0.4339 0.28269 0.0
H340 H 0.52012 -0.00252 0.79707 0.0
H341 H 0.64171 0.12003 0.7311 0.0
H342 H 0.45631 0.94541 0.75368 0.0
H343 H 0.57955 0.06832 0.68823 0.0
H344 H 0.50989 0.9568 0.61259 0.0
H345 H 0.5031 0.01635 0.65398 0.0
H346 H 0.47645 0.8852 0.7224 0.0
H347 H 0.4814 0.82589 0.68121 0.0
C348 C 0.53233 0.01448 0.77344 0.0
C349 C 0.58685 0.06136 0.76733 0.0
C350 C 0.49579 -0.01529 0.74858 0.0
C351 C 0.51382 0.00086 0.7173 0.0
C352 C 0.56408 0.05375 0.71185 0.0
C353 C 0.60029 0.08368 0.73665 0.0
C354 C 0.50065 0.94014 0.6364 0.0
C355 C 0.49822 0.88777 0.64395 0.0
C356 C 0.49659 0.9741 0.6601 0.0
C357 C 0.49162 0.95686 0.69176 0.0
C358 C 0.48071 0.90053 0.69843 0.0
C359 C 0.48401 0.86634 0.67473 0.0
H360 H 0.50544 0.816 1.04041 0.0
H361 H 0.45612 0.65728 1.09083 0.0
H362 H 0.51875 0.77451 0.99328 0.0
H363 H 0.46871 0.6146 1.0429 0.0
H364 H 0.63963 0.65447 0.99232 0.0
H365 H 0.56122 0.64149 1.02474 0.0
H366 H 0.50657 0.71282 0.95069 0.0
H367 H 0.58744 0.72916 0.91899 0.0
C368 C 0.49462 0.77107 1.04107 0.0
C369 C 0.48185 0.7407 1.06962 0.0
C370 C 0.50212 0.74689 1.01378 0.0
C371 C 0.497 0.69182 1.01452 0.0
C372 C 0.47501 0.65793 1.04184 0.0
C373 C 0.46779 0.68235 1.06928 0.0
C374 C 0.61016 0.6662 0.98267 0.0
C375 C 0.62119 0.69513 0.95369 0.0
C376 C 0.56438 0.65786 1.00109 0.0
C377 C 0.52847 0.67798 0.99076 0.0
C378 C 0.53442 0.69843 0.95971 0.0
C379 C 0.5807 0.70744 0.94141 0.0
H380 H 0.02844 0.66654 0.46047 0.0
H381 H 0.91343 0.63872 0.38421 0.0
H382 H 0.09429 0.66197 0.42358 0.0
H383 H -0.01981 0.63736 0.34725 0.0
H384 H 0.10127 0.66919 0.27976 0.0
H385 H 0.04172 0.6089 0.32297 0.0
H386 H 0.15146 0.74042 0.38907 0.0
H387 H 0.21074 0.79924 0.34637 0.0
C388 C 0.01648 0.65795 0.43596 0.0
C389 C -0.03338 0.65505 0.42502 0.0
C390 C 0.05436 0.65549 0.41482 0.0
C391 C 0.04338 0.65093 0.38237 0.0
C392 C -0.00961 0.64106 0.37204 0.0
C393 C 0.95243 0.64308 0.39316 0.0
C394 C 0.11371 0.68389 0.3037 0.0
C395 C 0.15922 0.73978 0.30974 0.0
C396 C 0.0797 0.64942 0.32841 0.0
C397 C 0.09037 0.671 0.3593 0.0
C398 C 0.14141 0.72247 0.36559 0.0
C399 C 0.17558 0.75662 0.34096 0.0
H400 H 0.22755 0.81338 0.71431 0.0
H401 H 0.35102 0.95434 0.77093 0.0
H402 H 0.26779 0.87013 0.66741 0.0
H403 H 0.39318 0.0115 0.72339 0.0
H404 H 0.29889 -0.02115 0.58953 0.0
H405 H 0.32834 0.93041 0.62732 0.0
H406 H 0.34699 0.05486 0.69814 0.0
H407 H 0.31915 0.10318 0.66055 0.0
C408 C 0.26528 0.85553 0.71662 0.0
C409 C 0.28477 0.8803 0.74635 0.0
C410 C 0.28881 0.88836 0.6895 0.0
C411 C 0.33233 0.94659 0.69165 0.0
C412 C 0.35817 0.96759 0.72103 0.0
C413 C 0.33412 0.9349 0.74827 0.0
C414 C 0.31108 -0.0033 0.61296 0.0
C415 C 0.30506 0.0437 0.62238 0.0
C416 C 0.32809 0.96909 0.63459 0.0
C417 C 0.33829 -0.01259 0.66612 0.0
C418 C 0.33958 0.03914 0.67418 0.0
C419 C 0.32314 0.06695 0.65253 0.0
H420 H 0.41784 0.10677 1.15167 0.0
H421 H 0.41627 0.17461 0.24353 0.0
H422 H 0.5117 0.12077 1.16209 0.0
H423 H 0.50976 0.18664 0.25444 0.0
H424 H 0.69067 0.17374 0.18469 0.0
H425 H 0.62029 0.20421 0.17952 0.0
H426 H 0.52385 0.09039 0.25582 0.0
H427 H 0.59301 0.0585 0.26037 0.0
C428 C 0.43831 0.12593 1.17378 0.0
C429 C 0.41016 0.13945 0.19686 0.0
C430 C 0.492 0.13431 0.17965 0.0
C431 C 0.51768 0.15498 0.20899 0.0
C432 C 0.49076 0.17116 0.23157 0.0
C433 C 0.43754 0.16428 0.22533 0.0
C434 C 0.65545 0.15679 0.20104 0.0
C435 C 0.64668 0.11338 0.2227 0.0
C436 C 0.61535 0.17421 0.19806 0.0
C437 C 0.56702 0.14957 0.21731 0.0
C438 C 0.56119 0.11038 0.24098 0.0
C439 C 0.60045 0.0919 0.24343 0.0
H440 H 0.35449 0.3927 0.59755 0.0
H441 H 0.36704 0.30817 0.514 0.0
H442 H 0.45562 0.46289 0.59438 0.0
H443 H 0.46818 0.37982 0.51023 0.0
H444 H 0.57007 0.59052 0.49224 0.0
H445 H 0.49261 0.4914 0.49971 0.0
H446 H 0.56436 0.48228 0.58831 0.0
H447 H 0.64349 0.58136 0.58025 0.0
C448 C 0.37946 0.38798 0.57922 0.0
C449 C 0.35336 0.34574 0.55585 0.0
C450 C 0.43725 0.4278 0.57751 0.0
C451 C 0.46923 0.42663 0.55198 0.0
C452 C 0.44418 0.38114 0.5302 0.0
C453 C 0.38653 0.34032 0.53237 0.0
C454 C 0.57006 0.56671 0.51286 0.0
C455 C 0.61207 0.59331 0.53582 0.0
C456 C 0.52622 0.50995 0.51697 0.0
C457 C 0.52303 0.47943 0.54448 0.0
C458 C 0.56653 0.50498 0.56679 0.0
C459 C 0.61142 0.56144 0.56222 0.0
H460 H 0.87246 0.39672 0.80758 0.0
H461 H 0.81964 0.33576 0.9024 0.0
H462 H 0.86236 0.48081 0.8183 0.0
H463 H 0.81133 0.4212 0.91354 0.0
H464 H 0.83056 0.62439 0.84542 0.0
H465 H 0.79467 0.52048 0.83878 0.0
H466 H 0.90542 0.52673 0.91267 0.0
H467 H 0.9424 0.63051 0.91867 0.0
C468 C 0.85643 0.40024 0.83031 0.0
C469 C 0.84656 0.35995 0.85413 0.0
C470 C 0.85061 0.44825 0.83645 0.0
C471 C 0.83631 0.45744 0.86678 0.0
C472 C 0.82218 0.41479 0.88995 0.0
C473 C 0.82659 0.36588 0.88353 0.0
C474 C 0.84591 0.6031 0.86086 0.0
C475 C 0.88951 0.63533 0.8824 0.0
C476 C 0.82544 0.54382 0.85701 0.0
C477 C 0.84719 0.51578 0.87529 0.0
C478 C 0.88743 0.5472 0.89857 0.0
C479 C 0.90886 0.60659 0.90186 0.0
H480 H 0.23473 0.05753 0.31398 0.0
H481 H 0.22535 0.20017 0.27309 0.0
H482 H 0.22813 0.09156 0.36666 0.0
H483 H 0.21836 0.23336 0.325 0.0
H484 H 0.25603 0.31127 0.42424 0.0
H485 H 0.26848 0.27832 0.37259 0.0
H486 H 0.16337 0.1007 0.40207 0.0
H487 H 0.1514 0.13336 0.45335 0.0
C488 C 0.23131 0.09602 0.31607 0.0
C489 C 0.23044 0.12561 0.28886 0.0
C490 C 0.22725 0.11555 0.34639 0.0
C491 C 0.22282 0.16569 0.3505 0.0
C492 C 0.22254 0.19529 0.32324 0.0
C493 C 0.22608 0.17564 0.29315 0.0
C494 C 0.23551 0.26519 0.41972 0.0
C495 C 0.20243 0.22532 0.44328 0.0
C496 C 0.2425 0.24611 0.38994 0.0
C497 C 0.21705 0.18646 0.38275 0.0
C498 C 0.18443 0.14682 0.40648 0.0
C499 C 0.17711 0.16581 0.43605 0.0
H500 H 0.1708 0.2538 0.65164 0.0
H501 H 0.07762 0.32278 0.60495 0.0
H502 H 0.12644 0.25412 0.70169 0.0
H503 H 0.0327 0.32229 0.65491 0.0
H504 H 0.91905 0.24987 0.74565 0.0
H505 H -0.03676 0.2513 0.69506 0.0
H506 H 0.12588 0.32519 0.74035 0.0
H507 H 0.08228 0.32482 0.79052 0.0
C508 C 0.141 0.26919 0.65199 0.0
C509 C 0.12832 0.28864 0.62406 0.0
C510 C 0.11556 0.26951 0.68079 0.0
C511 C 0.07572 0.28817 0.68256 0.0
C512 C 0.06274 0.3072 0.65458 0.0
C513 C 0.08897 0.30792 0.62588 0.0
C514 C -0.03572 0.26676 0.74482 0.0
C515 C -0.00316 0.28738 0.77243 0.0
C516 C -0.01027 0.26772 0.71572 0.0
C517 C 0.04832 0.28819 0.71343 0.0
C518 C 0.08069 0.30859 0.74107 0.0
C519 C 0.05553 0.30869 0.76995 0.0
H520 H 0.93042 0.29617 0.98091 0.0
H521 H 0.82158 0.12689 0.94144 0.0
H522 H 0.89507 0.25673 1.03375 0.0
H523 H 0.78669 0.08807 0.99356 0.0
H524 H 0.69584 0.0437 1.08939 0.0
H525 H 0.72865 0.0878 1.03733 0.0
H526 H 0.89831 0.19082 1.07319 0.0
H527 H 0.86579 0.14705 1.12487 0.0
C528 C 0.89899 0.25074 0.98336 0.0
C529 C 0.87939 0.21503 0.95656 0.0
C530 C 0.87875 0.2279 1.01375 0.0
C531 C 0.83758 0.16886 1.01827 0.0
C532 C 0.81763 0.13369 0.99136 0.0
C533 C 0.83828 0.15618 0.96124 0.0
C534 C 0.74011 0.07576 1.08622 0.0
C535 C 0.77791 0.09116 1.11164 0.0
C536 C 0.75914 0.10108 1.05622 0.0
C537 C 0.81646 0.14328 1.05068 0.0
C538 C 0.85389 0.15921 1.07629 0.0
C539 C 0.83508 0.13346 1.10607 0.0
H540 H 0.6776 0.86292 0.27254 0.0
H541 H 0.74831 0.02719 0.32026 0.0
H542 H 0.67649 0.81579 0.32205 0.0
H543 H 0.74675 -0.02013 0.36984 0.0
H544 H 0.67449 0.86532 0.45792 0.0
H545 H 0.67693 0.9102 0.40787 0.0
H546 H 0.741 0.81038 0.36265 0.0
H547 H 0.73911 0.76518 0.41338 0.0
C548 C 0.69264 0.8891 0.2936 0.0
C549 C 0.71263 0.9491 0.29219 0.0
C550 C 0.69246 0.86198 0.32204 0.0
C551 C 0.71145 0.89371 0.3502 0.0
C552 C 0.73125 0.95369 0.34881 0.0
C553 C 0.73227 -0.01901 0.32027 0.0
C554 C 0.68882 0.85224 0.43741 0.0
C555 C 0.70624 0.81089 0.44003 0.0
C556 C 0.6907 0.87869 0.40856 0.0
C557 C 0.70942 0.86446 0.38097 0.0
C558 C 0.72601 0.82236 0.38329 0.0
C559 C 0.72499 0.79639 0.41245 0.0
H560 H 0.71723 0.77251 0.65211 0.0
H561 H 0.86628 0.78714 0.60808 0.0
H562 H 0.75899 0.77798 0.70397 0.0
H563 H 0.90764 0.79314 0.65922 0.0
H564 H 0.94888 0.74977 0.75638 0.0
H565 H 0.90327 0.73981 0.70543 0.0
H566 H 0.83314 0.84256 0.73943 0.0
H567 H 0.87793 0.85192 0.79013 0.0
C568 C 0.75875 0.77699 0.65334 0.0
C569 C 0.78796 0.77945 0.62551 0.0
C570 C 0.78302 0.78037 0.68319 0.0
C571 C 0.83703 0.7858 0.68618 0.0
C572 C 0.86582 0.78803 0.65829 0.0
C573 C 0.84191 0.78507 0.62868 0.0
C574 C 0.92388 0.77034 0.75301 0.0
C575 C 0.91768 0.80187 0.77767 0.0
C576 C 0.89765 0.76481 0.72362 0.0
C577 C 0.86402 0.79029 0.71792 0.0
C578 C 0.85774 0.82152 0.74271 0.0
C579 C 0.88414 0.82731 0.77191 0.0
H580 H -0.01876 0.82892 0.9849 0.0
H581 H 0.14067 0.92407 0.93584 0.0
H582 H 0.0275 0.8777 1.03387 0.0
H583 H 0.18675 0.97323 0.98475 0.0
H584 H 0.23453 0.09124 1.07506 0.0
H585 H 0.19 0.04531 1.02481 0.0
H586 H 0.09757 0.87999 1.07155 0.0
H587 H 0.14177 0.92498 1.12105 0.0
C588 C 0.02617 0.86004 0.98449 0.0
C589 C 0.05702 0.87184 0.95622 0.0
C590 C 0.05286 0.88811 1.01268 0.0
C591 C 0.11114 0.9297 1.0135 0.0
C592 C 0.14185 0.94197 0.98515 0.0
C593 C 0.11536 0.91321 0.95707 0.0
C594 C 0.20499 0.04507 1.07456 0.0
C595 C 0.19244 0.01214 1.10238 0.0
C596 C 0.17945 0.0186 1.04569 0.0
C597 C 0.13973 0.9587 1.04394 0.0
C598 C 0.12726 0.92614 1.0718 0.0
C599 C 0.15329 0.9522 1.10033 0.0
loop_
_geom_bond_atom_site_label_1
_geom_bond_atom_site_label_2
_geom_bond_distance
_geom_bond_site_symmetry_2
_ccdc_geom_bond_type
Tb0 C9 2.764 . S
Tb0 O10 2.325 1_565 S
Tb0 O13 2.303 . S
Tb0 O17 2.322 . S
Tb0 O18 2.349 . S
Tb0 O21 2.415 . S
Tb0 O22 2.399 . S
Tb1 O11 2.322 . S
Tb1 O12 2.349 . S
Tb1 O14 2.415 1_554 S
Tb1 O15 2.399 1_554 S
Tb1 O16 2.325 1_554 S
Tb1 O19 2.303 . S
Tb1 C30 2.764 1_554 S
C2 O18 1.261 1_545 S
C2 O19 1.257 . S
C3 C6 1.358 . S
C3 C7 1.332 . S
C3 C9 1.504 . S
C4 C5 1.373 . S
C4 C8 1.308 . S
C5 C4 1.373 . S
C5 C6 1.429 . S
C5 H32 0.932 . S
C6 C3 1.358 . S
C6 C5 1.429 . S
C6 H33 0.930 . S
C7 C3 1.332 . S
C7 C8 1.394 . S
C7 H34 0.932 . S
C8 C4 1.308 . S
C8 C7 1.394 . S
C8 H35 0.929 . S
C9 Tb0 2.764 . S
C9 C3 1.504 . S
C9 O21 1.239 . S
C9 O22 1.263 . S
O10 Tb0 2.325 1_545 S
O10 C20 1.236 . S
O11 Tb1 2.322 . S
O11 C20 1.257 . S
O12 Tb1 2.349 . S
O12 C23 1.261 . S
O13 Tb0 2.303 . S
O13 C23 1.257 1_565 S
O14 Tb1 2.415 1_556 S
O14 C30 1.239 . S
O15 Tb1 2.399 1_556 S
O15 C30 1.263 . S
O16 Tb1 2.325 1_556 S
O16 C31 1.236 1_545 S
O17 Tb0 2.322 . S
O17 C31 1.257 1_554 S
O18 Tb0 2.349 . S
O18 C2 1.261 1_565 S
O19 Tb1 2.303 . S
O19 C2 1.257 . S
C20 O10 1.236 . S
C20 O11 1.257 . S
O21 Tb0 2.415 . S
O21 C9 1.239 . S
O22 Tb0 2.399 . S
O22 C9 1.263 . S
C23 O12 1.261 . S
C23 O13 1.257 1_545 S
C24 C27 1.358 . S
C24 C28 1.332 . S
C24 C30 1.504 . S
C25 C26 1.373 . S
C25 C29 1.308 . S
C26 C25 1.373 . S
C26 C27 1.429 . S
C26 H36 0.932 . S
C27 C24 1.358 . S
C27 C26 1.429 . S
C27 H37 0.930 . S
C28 C24 1.332 . S
C28 C29 1.394 . S
C28 H38 0.932 . S
C29 C25 1.308 . S
C29 C28 1.394 . S
C29 H39 0.929 . S
C30 Tb1 2.764 1_556 S
C30 O14 1.239 . S
C30 O15 1.263 . S
C30 C24 1.504 . S
C31 O16 1.236 1_565 S
C31 O17 1.257 1_556 S
H32 C5 0.932 . S
H33 C6 0.930 . S
H34 C7 0.932 . S
H35 C8 0.929 . S
H36 C26 0.932 . S
H37 C27 0.930 . S
H38 C28 0.932 . S
H39 C29 0.929 . S
Tb40 C49 2.764 . S
Tb40 O50 2.325 . S
Tb40 O53 2.303 . S
Tb40 O57 2.322 . S
Tb40 O58 2.349 . S
Tb40 O61 2.415 . S
Tb40 O62 2.399 . S
Tb41 O51 2.322 . S
Tb41 O52 2.349 . S
Tb41 O54 2.415 . S
Tb41 O55 2.399 . S
Tb41 O56 2.325 . S
Tb41 O59 2.303 . S
Tb41 C70 2.764 . S
C42 O58 1.261 . S
C42 O59 1.257 . S
C43 C46 1.358 . S
C43 C47 1.332 . S
C43 C49 1.504 . S
C44 C45 1.373 . S
C44 C48 1.308 . S
C45 C44 1.373 . S
C45 C46 1.429 . S
C45 H72 0.932 . S
C46 C43 1.358 . S
C46 C45 1.429 . S
C46 H73 0.930 . S
C47 C43 1.332 . S
C47 C48 1.394 . S
C47 H74 0.932 . S
C48 C44 1.308 . S
C48 C47 1.394 . S
C48 H75 0.929 . S
C49 Tb40 2.764 . S
C49 C43 1.504 . S
C49 O61 1.239 . S
C49 O62 1.263 . S
O50 Tb40 2.325 . S
O50 C60 1.236 . S
O51 Tb41 2.322 . S
O51 C60 1.257 . S
O52 Tb41 2.349 . S
O52 C63 1.261 . S
O53 Tb40 2.303 . S
O53 C63 1.257 . S
O54 Tb41 2.415 . S
O54 C70 1.239 . S
O55 Tb41 2.399 . S
O55 C70 1.263 . S
O56 Tb41 2.325 . S
O56 C71 1.236 . S
O57 Tb40 2.322 . S
O57 C71 1.257 . S
O58 Tb40 2.349 . S
O58 C42 1.261 . S
O59 Tb41 2.303 . S
O59 C42 1.257 . S
C60 O50 1.236 . S
C60 O51 1.257 . S
O61 Tb40 2.415 . S
O61 C49 1.239 . S
O62 Tb40 2.399 . S
O62 C49 1.263 . S
C63 O52 1.261 . S
C63 O53 1.257 . S
C64 C67 1.358 . S
C64 C68 1.332 . S
C64 C70 1.504 . S
C65 C66 1.373 . S
C65 C69 1.308 . S
C66 C65 1.373 . S
C66 C67 1.429 . S
C66 H76 0.932 . S
C67 C64 1.358 . S
C67 C66 1.429 . S
C67 H77 0.930 . S
C68 C64 1.332 . S
C68 C69 1.394 . S
C68 H78 0.932 . S
C69 C65 1.308 . S
C69 C68 1.394 . S
C69 H79 0.929 . S
C70 Tb41 2.764 . S
C70 O54 1.239 . S
C70 O55 1.263 . S
C70 C64 1.504 . S
C71 O56 1.236 . S
C71 O57 1.257 . S
H72 C45 0.932 . S
H73 C46 0.930 . S
H74 C47 0.932 . S
H75 C48 0.929 . S
H76 C66 0.932 . S
H77 C67 0.930 . S
H78 C68 0.932 . S
H79 C69 0.929 . S
Tb80 C89 2.764 . S
Tb80 O90 2.325 . S
Tb80 O93 2.303 . S
Tb80 O97 2.322 . S
Tb80 O98 2.349 . S
Tb80 O101 2.415 . S
Tb80 O102 2.399 . S
Tb81 O91 2.322 . S
Tb81 O92 2.349 1_655 S
Tb81 O94 2.415 . S
Tb81 O95 2.399 . S
Tb81 O96 2.325 1_655 S
Tb81 O99 2.303 1_655 S
Tb81 C110 2.764 . S
C82 O98 1.261 . S
C82 O99 1.257 . S
C83 C86 1.358 . S
C83 C87 1.332 . S
C83 C89 1.504 . S
C84 C85 1.373 . S
C84 C88 1.308 . S
C85 C84 1.373 . S
C85 C86 1.429 . S
C85 H112 0.932 . S
C86 C83 1.358 . S
C86 C85 1.429 . S
C86 H113 0.930 . S
C87 C83 1.332 . S
C87 C88 1.394 . S
C87 H114 0.932 . S
C88 C84 1.308 . S
C88 C87 1.394 . S
C88 H115 0.929 . S
C89 Tb80 2.764 . S
C89 C83 1.504 . S
C89 O101 1.239 . S
C89 O102 1.263 . S
O90 Tb80 2.325 . S
O90 C100 1.236 1_455 S
O91 Tb81 2.322 . S
O91 C100 1.257 . S
O92 Tb81 2.349 1_455 S
O92 C103 1.261 . S
O93 Tb80 2.303 . S
O93 C103 1.257 . S
O94 Tb81 2.415 . S
O94 C110 1.239 . S
O95 Tb81 2.399 . S
O95 C110 1.263 . S
O96 Tb81 2.325 1_455 S
O96 C111 1.236 . S
O97 Tb80 2.322 . S
O97 C111 1.257 . S
O98 Tb80 2.349 . S
O98 C82 1.261 . S
O99 Tb81 2.303 1_455 S
O99 C82 1.257 . S
C100 O90 1.236 1_655 S
C100 O91 1.257 . S
O101 Tb80 2.415 . S
O101 C89 1.239 . S
O102 Tb80 2.399 . S
O102 C89 1.263 . S
C103 O92 1.261 . S
C103 O93 1.257 . S
C104 C107 1.358 . S
C104 C108 1.332 . S
C104 C110 1.504 . S
C105 C106 1.373 . S
C105 C109 1.308 . S
C106 C105 1.373 . S
C106 C107 1.429 . S
C106 H116 0.932 . S
C107 C104 1.358 . S
C107 C106 1.429 . S
C107 H117 0.930 . S
C108 C104 1.332 . S
C108 C109 1.394 . S
C108 H118 0.932 . S
C109 C105 1.308 . S
C109 C108 1.394 . S
C109 H119 0.929 . S
C110 Tb81 2.764 . S
C110 O94 1.239 . S
C110 O95 1.263 . S
C110 C104 1.504 . S
C111 O96 1.236 . S
C111 O97 1.257 . S
H112 C85 0.932 . S
H113 C86 0.930 . S
H114 C87 0.932 . S
H115 C88 0.929 . S
H116 C106 0.932 . S
H117 C107 0.930 . S
H118 C108 0.932 . S
H119 C109 0.929 . S
Tb120 C129 2.764 1_554 S
Tb120 O130 2.325 1_564 S
Tb120 O133 2.303 . S
Tb120 O137 2.322 . S
Tb120 O138 2.349 . S
Tb120 O141 2.415 1_554 S
Tb120 O142 2.399 1_554 S
Tb121 O131 2.295 1_554 S
Tb121 O132 2.349 . S
Tb121 O134 2.415 . S
Tb121 O135 2.399 . S
Tb121 O136 2.325 . S
Tb121 O139 2.303 . S
Tb121 C150 2.764 . S
C122 O138 1.261 1_545 S
C122 O139 1.257 . S
C123 C126 1.358 . S
C123 C127 1.332 . S
C123 C129 1.504 . S
C124 C125 1.373 . S
C124 C128 1.308 . S
C125 C124 1.373 . S
C125 C126 1.429 . S
C125 H152 0.932 . S
C126 C123 1.358 . S
C126 C125 1.429 . S
C126 H153 0.930 . S
C127 C123 1.332 . S
C127 C128 1.394 . S
C127 H154 0.932 . S
C128 C124 1.308 . S
C128 C127 1.394 . S
C128 H155 0.929 . S
C129 Tb120 2.764 1_556 S
C129 C123 1.504 . S
C129 O141 1.239 . S
C129 O142 1.263 . S
O130 Tb120 2.325 1_546 S
O130 C140 1.236 . S
O131 Tb121 2.295 1_556 S
O131 C140 1.281 . S
O132 Tb121 2.349 . S
O132 C143 1.261 . S
O133 Tb120 2.303 . S
O133 C143 1.257 1_565 S
O134 Tb121 2.415 . S
O134 C150 1.239 . S
O135 Tb121 2.399 . S
O135 C150 1.263 . S
O136 Tb121 2.325 . S
O136 C151 1.236 1_545 S
O137 Tb120 2.322 . S
O137 C151 1.257 . S
O138 Tb120 2.349 . S
O138 C122 1.261 1_565 S
O139 Tb121 2.303 . S
O139 C122 1.257 . S
C140 O130 1.236 . S
C140 O131 1.281 . S
O141 Tb120 2.415 1_556 S
O141 C129 1.239 . S
O142 Tb120 2.399 1_556 S
O142 C129 1.263 . S
C143 O132 1.261 . S
C143 O133 1.257 1_545 S
C144 C147 1.358 . S
C144 C148 1.332 . S
C144 C150 1.504 . S
C145 C146 1.373 . S
C145 C149 1.308 . S
C146 C145 1.373 . S
C146 C147 1.429 . S
C146 H156 0.932 . S
C147 C144 1.358 . S
C147 C146 1.429 . S
C147 H157 0.930 . S
C148 C144 1.332 . S
C148 C149 1.394 . S
C148 H158 0.932 . S
C149 C145 1.308 . S
C149 C148 1.394 . S
C149 H159 0.929 . S
C150 Tb121 2.764 . S
C150 O134 1.239 . S
C150 O135 1.263 . S
C150 C144 1.504 . S
C151 O136 1.236 1_565 S
C151 O137 1.257 . S
H152 C125 0.932 . S
H153 C126 0.930 . S
H154 C127 0.932 . S
H155 C128 0.929 . S
H156 C146 0.932 . S
H157 C147 0.930 . S
H158 C148 0.932 . S
H159 C149 0.929 . S
Tb160 C169 2.764 . S
Tb160 O170 2.325 . S
Tb160 O173 2.303 . S
Tb160 O177 2.322 . S
Tb160 O178 2.349 . S
Tb160 O181 2.415 . S
Tb160 O182 2.399 . S
Tb161 O171 2.322 . S
Tb161 O172 2.349 . S
Tb161 O174 2.415 . S
Tb161 O175 2.399 . S
Tb161 O176 2.325 . S
Tb161 O179 2.303 . S
Tb161 C190 2.764 . S
C162 O178 1.261 . S
C162 O179 1.257 . S
C163 C166 1.358 . S
C163 C167 1.332 . S
C163 C169 1.504 . S
C164 C165 1.373 . S
C164 C168 1.308 . S
C165 C164 1.373 . S
C165 C166 1.429 . S
C165 H192 0.932 . S
C166 C163 1.358 . S
C166 C165 1.429 . S
C166 H193 0.930 . S
C167 C163 1.332 . S
C167 C168 1.394 . S
C167 H194 0.932 . S
C168 C164 1.308 . S
C168 C167 1.394 . S
C168 H195 0.929 1_565 S
C169 Tb160 2.764 . S
C169 C163 1.504 . S
C169 O181 1.239 . S
C169 O182 1.263 . S
O170 Tb160 2.325 . S
O170 C180 1.236 . S
O171 Tb161 2.322 . S
O171 C180 1.257 . S
O172 Tb161 2.349 . S
O172 C183 1.261 . S
O173 Tb160 2.303 . S
O173 C183 1.257 . S
O174 Tb161 2.415 . S
O174 C190 1.239 . S
O175 Tb161 2.399 . S
O175 C190 1.263 . S
O176 Tb161 2.325 . S
O176 C191 1.236 . S
O177 Tb160 2.322 . S
O177 C191 1.257 . S
O178 Tb160 2.349 . S
O178 C162 1.261 . S
O179 Tb161 2.303 . S
O179 C162 1.257 . S
C180 O170 1.236 . S
C180 O171 1.257 . S
O181 Tb160 2.415 . S
O181 C169 1.239 . S
O182 Tb160 2.399 . S
O182 C169 1.263 . S
C183 O172 1.261 . S
C183 O173 1.257 . S
C184 C187 1.358 . S
C184 C188 1.332 . S
C184 C190 1.504 . S
C185 C186 1.373 . S
C185 C189 1.308 . S
C186 C185 1.373 . S
C186 C187 1.429 . S
C186 H196 0.932 . S
C187 C184 1.358 . S
C187 C186 1.429 . S
C187 H197 0.930 . S
C188 C184 1.332 . S
C188 C189 1.394 . S
C188 H198 0.932 . S
C189 C185 1.308 . S
C189 C188 1.394 . S
C189 H199 0.929 . S
C190 Tb161 2.764 . S
C190 O174 1.239 . S
C190 O175 1.263 . S
C190 C184 1.504 . S
C191 O176 1.236 . S
C191 O177 1.257 . S
H192 C165 0.932 . S
H193 C166 0.930 . S
H194 C167 0.932 . S
H195 C168 0.929 1_545 S
H196 C186 0.932 . S
H197 C187 0.930 . S
H198 C188 0.932 . S
H199 C189 0.929 . S
Tb200 C209 2.764 . S
Tb200 O210 2.325 . S
Tb200 O213 2.303 . S
Tb200 O217 2.322 . S
Tb200 O218 2.349 . S
Tb200 O221 2.415 . S
Tb200 O222 2.399 . S
Tb201 O211 2.322 . S
Tb201 O212 2.349 1_655 S
Tb201 O214 2.415 . S
Tb201 O215 2.399 . S
Tb201 O216 2.325 1_655 S
Tb201 O219 2.303 1_655 S
Tb201 C230 2.764 . S
C202 O218 1.261 . S
C202 O219 1.257 . S
C203 C206 1.358 . S
C203 C207 1.332 . S
C203 C209 1.504 . S
C204 C205 1.373 . S
C204 C208 1.308 . S
C205 C204 1.373 . S
C205 C206 1.429 . S
C205 H232 0.932 . S
C206 C203 1.358 . S
C206 C205 1.429 . S
C206 H233 0.930 . S
C207 C203 1.332 . S
C207 C208 1.394 . S
C207 H234 0.932 . S
C208 C204 1.308 . S
C208 C207 1.394 . S
C208 H235 0.929 1_565 S
C209 Tb200 2.764 . S
C209 C203 1.504 . S
C209 O221 1.239 . S
C209 O222 1.263 . S
O210 Tb200 2.325 . S
O210 C220 1.236 1_455 S
O211 Tb201 2.322 . S
O211 C220 1.257 . S
O212 Tb201 2.349 1_455 S
O212 C223 1.261 . S
O213 Tb200 2.303 . S
O213 C223 1.257 . S
O214 Tb201 2.415 . S
O214 C230 1.239 . S
O215 Tb201 2.399 . S
O215 C230 1.263 . S
O216 Tb201 2.325 1_455 S
O216 C231 1.236 . S
O217 Tb200 2.322 . S
O217 C231 1.257 . S
O218 Tb200 2.349 . S
O218 C202 1.261 . S
O219 Tb201 2.303 1_455 S
O219 C202 1.257 . S
C220 O210 1.236 1_655 S
C220 O211 1.257 . S
O221 Tb200 2.415 . S
O221 C209 1.239 . S
O222 Tb200 2.399 . S
O222 C209 1.263 . S
C223 O212 1.261 . S
C223 O213 1.257 . S
C224 C227 1.358 . S
C224 C228 1.332 . S
C224 C230 1.504 . S
C225 C226 1.373 . S
C225 C229 1.308 . S
C226 C225 1.373 . S
C226 C227 1.429 . S
C226 H236 0.932 . S
C227 C224 1.358 . S
C227 C226 1.429 . S
C227 H237 0.930 . S
C228 C224 1.332 . S
C228 C229 1.394 . S
C228 H238 0.932 . S
C229 C225 1.308 . S
C229 C228 1.394 . S
C229 H239 0.929 . S
C230 Tb201 2.764 . S
C230 O214 1.239 . S
C230 O215 1.263 . S
C230 C224 1.504 . S
C231 O216 1.236 . S
C231 O217 1.257 . S
H232 C205 0.932 . S
H233 C206 0.930 . S
H234 C207 0.932 . S
H235 C208 0.929 1_545 S
H236 C226 0.932 . S
H237 C227 0.930 . S
H238 C228 0.932 . S
H239 C229 0.929 . S
H240 C248 0.979 . S
H241 C253 0.950 . S
H242 C250 0.950 1_556 S
H243 C252 0.950 . S
H244 C254 0.950 . S
H245 C256 0.950 1_655 S
H246 C258 0.950 1_556 S
H247 C259 0.950 1_556 S
C248 H240 0.979 . S
C248 C249 1.360 1_556 S
C248 C250 1.388 1_556 S
C249 C248 1.360 1_554 S
C249 C253 1.393 1_545 S
C250 H242 0.950 1_554 S
C250 C248 1.388 1_554 S
C250 C251 1.400 . S
C251 C250 1.400 . S
C251 C252 1.398 1_545 S
C251 C257 1.491 1_655 S
C252 H243 0.950 . S
C252 C251 1.398 1_565 S
C252 C253 1.391 . S
C253 H241 0.950 . S
C253 C249 1.393 1_565 S
C253 C252 1.391 . S
C254 H244 0.950 . S
C254 C255 1.386 1_565 S
C254 C256 1.391 . S
C255 C254 1.386 1_545 S
C255 C259 1.393 . S
C256 H245 0.950 1_455 S
C256 C254 1.391 . S
C256 C257 1.400 1_565 S
C257 C251 1.491 1_455 S
C257 C256 1.400 1_545 S
C257 C258 1.398 . S
C258 H246 0.950 1_554 S
C258 C257 1.398 . S
C258 C259 1.391 . S
C259 H247 0.950 1_554 S
C259 C255 1.393 . S
C259 C258 1.391 . S
H260 C268 0.950 . S
H261 C273 0.950 . S
H262 C270 0.950 . S
H263 C272 0.950 . S
H264 C274 0.950 . S
H265 C276 0.950 . S
H266 C278 0.950 . S
H267 C279 0.950 . S
C268 H260 0.950 . S
C268 C269 1.386 . S
C268 C270 1.391 1_565 S
C269 C268 1.386 . S
C269 C273 1.393 . S
C270 H262 0.950 . S
C270 C268 1.391 1_545 S
C270 C271 1.400 . S
C271 C270 1.400 . S
C271 C272 1.398 . S
C271 C277 1.491 1_655 S
C272 H263 0.950 . S
C272 C271 1.398 . S
C272 C273 1.391 1_545 S
C273 H261 0.950 . S
C273 C269 1.393 . S
C273 C272 1.391 1_565 S
C274 H264 0.950 . S
C274 C275 1.386 . S
C274 C276 1.391 . S
C275 C274 1.386 . S
C275 C279 1.393 . S
C276 H265 0.950 . S
C276 C274 1.391 . S
C276 C277 1.400 . S
C277 C271 1.491 1_455 S
C277 C276 1.400 . S
C277 C278 1.398 . S
C278 H266 0.950 . S
C278 C277 1.398 . S
C278 C279 1.391 . S
C279 H267 0.950 . S
C279 C275 1.393 . S
C279 C278 1.391 . S
H280 C288 0.950 1_655 S
H281 C293 0.950 . S
H282 C290 0.950 1_655 S
H283 C292 0.950 . S
H284 C294 0.950 . S
H285 C296 0.950 . S
H286 C298 0.950 1_655 S
H287 C299 0.950 1_655 S
C288 H280 0.950 1_455 S
C288 C289 1.386 . S
C288 C290 1.391 1_565 S
C289 C288 1.386 . S
C289 C293 1.393 1_565 S
C290 H282 0.950 1_455 S
C290 C288 1.391 1_545 S
C290 C291 1.400 . S
C291 C290 1.400 . S
C291 C292 1.398 . S
C291 C297 1.491 . S
C292 H283 0.950 . S
C292 C291 1.398 . S
C292 C293 1.391 . S
C293 H281 0.950 . S
C293 C289 1.393 1_545 S
C293 C292 1.391 . S
C294 H284 0.950 . S
C294 C295 1.386 . S
C294 C296 1.391 . S
C295 C294 1.386 . S
C295 C299 1.393 . S
C296 H285 0.950 . S
C296 C294 1.391 . S
C296 C297 1.400 . S
C297 C291 1.491 . S
C297 C296 1.400 . S
C297 C298 1.398 . S
C298 H286 0.950 1_455 S
C298 C297 1.398 . S
C298 C299 1.391 . S
C299 H287 0.950 1_455 S
C299 C295 1.393 . S
C299 C298 1.391 . S
H300 C308 0.950 . S
H301 C313 0.950 . S
H302 C310 0.950 . S
H303 C312 0.950 . S
H304 C314 0.950 . S
H305 C316 0.950 . S
H306 C318 0.950 . S
H307 C319 0.950 . S
C308 H300 0.950 . S
C308 C309 1.386 . S
C308 C310 1.391 . S
C309 C308 1.386 . S
C309 C313 1.393 . S
C310 H302 0.950 . S
C310 C308 1.391 . S
C310 C311 1.400 . S
C311 C310 1.400 . S
C311 C312 1.398 . S
C311 C317 1.491 . S
C312 H303 0.950 . S
C312 C311 1.398 . S
C312 C313 1.391 . S
C313 H301 0.950 . S
C313 C309 1.393 . S
C313 C312 1.391 . S
C314 H304 0.950 . S
C314 C315 1.386 . S
C314 C316 1.391 . S
C315 C314 1.386 . S
C315 C319 1.393 . S
C316 H305 0.950 . S
C316 C314 1.391 . S
C316 C317 1.400 . S
C317 C311 1.491 . S
C317 C316 1.400 . S
C317 C318 1.398 . S
C318 H306 0.950 . S
C318 C317 1.398 . S
C318 C319 1.391 . S
C319 H307 0.950 . S
C319 C315 1.393 . S
C319 C318 1.391 . S
H320 C328 0.950 . S
H321 C333 0.950 . S
H322 C330 0.950 . S
H323 C332 0.950 1_655 S
H324 C334 0.950 . S
H325 C336 0.950 . S
H326 C338 0.950 . S
H327 C339 0.950 . S
C328 H320 0.950 . S
C328 C329 1.386 . S
C328 C330 1.391 . S
C329 C328 1.386 . S
C329 C333 1.393 . S
C330 H322 0.950 . S
C330 C328 1.391 . S
C330 C331 1.400 1_455 S
C331 C330 1.400 1_655 S
C331 C332 1.398 1_655 S
C331 C337 1.491 . S
C332 H323 0.950 1_455 S
C332 C331 1.398 1_455 S
C332 C333 1.391 . S
C333 H321 0.950 . S
C333 C329 1.393 . S
C333 C332 1.391 . S
C334 H324 0.950 . S
C334 C335 1.386 . S
C334 C336 1.391 . S
C335 C334 1.386 . S
C335 C339 1.393 . S
C336 H325 0.950 . S
C336 C334 1.391 . S
C336 C337 1.400 . S
C337 C331 1.491 . S
C337 C336 1.400 . S
C337 C338 1.398 . S
C338 H326 0.950 . S
C338 C337 1.398 . S
C338 C339 1.391 . S
C339 H327 0.950 . S
C339 C335 1.393 . S
C339 C338 1.391 . S
H340 C348 0.950 . S
H341 C353 0.950 . S
H342 C350 0.950 . S
H343 C352 0.950 . S
H344 C354 0.950 . S
H345 C356 0.950 . S
H346 C358 0.950 . S
H347 C359 0.950 . S
C348 H340 0.950 . S
C348 C349 1.386 . S
C348 C350 1.391 . S
C349 C348 1.386 . S
C349 C353 1.393 . S
C350 H342 0.950 . S
C350 C348 1.391 . S
C350 C351 1.400 . S
C351 C350 1.400 . S
C351 C352 1.398 . S
C351 C357 1.491 . S
C352 H343 0.950 . S
C352 C351 1.398 . S
C352 C353 1.391 . S
C353 H341 0.950 . S
C353 C349 1.393 . S
C353 C352 1.391 . S
C354 H344 0.950 . S
C354 C355 1.386 1_545 S
C354 C356 1.391 . S
C355 C354 1.386 1_565 S
C355 C359 1.393 . S
C356 H345 0.950 . S
C356 C354 1.391 . S
C356 C357 1.400 . S
C357 C351 1.491 . S
C357 C356 1.400 . S
C357 C358 1.398 . S
C358 H346 0.950 . S
C358 C357 1.398 . S
C358 C359 1.391 1_545 S
C359 H347 0.950 . S
C359 C355 1.393 . S
C359 C358 1.391 1_565 S
H360 C368 0.950 . S
H361 C373 0.950 . S
H362 C370 0.950 . S
H363 C372 0.950 . S
H364 C374 0.950 . S
H365 C376 0.950 . S
H366 C378 0.950 . S
H367 C379 0.950 . S
C368 H360 0.950 . S
C368 C369 1.386 . S
C368 C370 1.391 . S
C369 C368 1.386 . S
C369 C373 1.393 . S
C370 H362 0.950 . S
C370 C368 1.391 . S
C370 C371 1.400 . S
C371 C370 1.400 . S
C371 C372 1.398 . S
C371 C377 1.491 . S
C372 H363 0.950 . S
C372 C371 1.398 . S
C372 C373 1.391 . S
C373 H361 0.950 . S
C373 C369 1.393 . S
C373 C372 1.391 . S
C374 H364 0.950 . S
C374 C375 1.386 . S
C374 C376 1.391 . S
C375 C374 1.386 . S
C375 C379 1.393 . S
C376 H365 0.950 . S
C376 C374 1.391 . S
C376 C377 1.400 . S
C377 C371 1.491 . S
C377 C376 1.400 . S
C377 C378 1.398 . S
C378 H366 0.950 . S
C378 C377 1.398 . S
C378 C379 1.391 . S
C379 H367 0.950 . S
C379 C375 1.393 . S
C379 C378 1.391 . S
H380 C388 0.950 . S
H381 C393 0.950 . S
H382 C390 0.950 . S
H383 C392 0.950 . S
H384 C394 0.950 . S
H385 C396 0.950 . S
H386 C398 0.950 . S
H387 C399 0.950 . S
C388 H380 0.950 . S
C388 C389 1.386 . S
C388 C390 1.391 . S
C389 C388 1.386 . S
C389 C393 1.393 . S
C390 H382 0.950 . S
C390 C388 1.391 . S
C390 C391 1.400 . S
C391 C390 1.400 . S
C391 C392 1.398 . S
C391 C397 1.491 . S
C392 H383 0.950 . S
C392 C391 1.398 . S
C392 C393 1.391 . S
C393 H381 0.950 . S
C393 C389 1.393 . S
C393 C392 1.391 . S
C394 H384 0.950 . S
C394 C395 1.386 . S
C394 C396 1.391 1_455 S
C395 C394 1.386 . S
C395 C399 1.393 . S
C396 H385 0.950 . S
C396 C394 1.391 1_655 S
C396 C397 1.400 . S
C397 C391 1.491 . S
C397 C396 1.400 . S
C397 C398 1.398 1_655 S
C398 H386 0.950 . S
C398 C397 1.398 1_455 S
C398 C399 1.391 . S
C399 H387 0.950 . S
C399 C395 1.393 . S
C399 C398 1.391 . S
H400 C408 0.950 . S
H401 C413 0.950 . S
H402 C410 0.950 . S
H403 C412 0.950 . S
H404 C414 0.950 . S
H405 C416 0.950 . S
H406 C418 0.950 . S
H407 C419 0.950 . S
C408 H400 0.950 . S
C408 C409 1.386 . S
C408 C410 1.391 1_565 S
C409 C408 1.386 . S
C409 C413 1.393 1_565 S
C410 H402 0.950 . S
C410 C408 1.391 1_545 S
C410 C411 1.400 . S
C411 C410 1.400 . S
C411 C412 1.398 . S
C411 C417 1.491 . S
C412 H403 0.950 . S
C412 C411 1.398 . S
C412 C413 1.391 . S
C413 H401 0.950 . S
C413 C409 1.393 1_545 S
C413 C412 1.391 . S
C414 H404 0.950 . S
C414 C415 1.386 . S
C414 C416 1.391 . S
C415 C414 1.386 . S
C415 C419 1.393 . S
C416 H405 0.950 . S
C416 C414 1.391 . S
C416 C417 1.400 . S
C417 C411 1.491 . S
C417 C416 1.400 . S
C417 C418 1.398 . S
C418 H406 0.950 . S
C418 C417 1.398 . S
C418 C419 1.391 . S
C419 H407 0.950 . S
C419 C415 1.393 . S
C419 C418 1.391 . S
H420 C428 0.950 . S
H421 C433 0.950 . S
H422 C430 0.950 . S
H423 C432 0.950 . S
H424 C434 0.950 . S
H425 C436 0.950 . S
H426 C438 0.950 . S
H427 C439 0.950 . S
C428 H420 0.950 . S
C428 C429 1.386 1_565 S
C428 C430 1.391 . S
C429 C428 1.386 1_545 S
C429 C433 1.393 . S
C430 H422 0.950 . S
C430 C428 1.391 . S
C430 C431 1.400 1_565 S
C431 C430 1.400 1_545 S
C431 C432 1.398 . S
C431 C437 1.491 . S
C432 H423 0.950 . S
C432 C431 1.398 . S
C432 C433 1.391 . S
C433 H421 0.950 . S
C433 C429 1.393 . S
C433 C432 1.391 . S
C434 H424 0.950 . S
C434 C435 1.386 . S
C434 C436 1.391 . S
C435 C434 1.386 . S
C435 C439 1.393 1_545 S
C436 H425 0.950 . S
C436 C434 1.391 . S
C436 C437 1.400 . S
C437 C431 1.491 . S
C437 C436 1.400 . S
C437 C438 1.398 1_545 S
C438 H426 0.950 . S
C438 C437 1.398 1_565 S
C438 C439 1.391 . S
C439 H427 0.950 . S
C439 C435 1.393 1_565 S
C439 C438 1.391 . S
H440 C448 0.950 . S
H441 C453 0.950 . S
H442 C450 0.950 . S
H443 C452 0.950 . S
H444 C454 0.950 . S
H445 C456 0.950 . S
H446 C458 0.950 . S
H447 C459 0.950 . S
C448 H440 0.950 . S
C448 C449 1.386 . S
C448 C450 1.391 . S
C449 C448 1.386 . S
C449 C453 1.393 . S
C450 H442 0.950 . S
C450 C448 1.391 . S
C450 C451 1.400 . S
C451 C450 1.400 . S
C451 C452 1.398 . S
C451 C457 1.491 . S
C452 H443 0.950 . S
C452 C451 1.398 . S
C452 C453 1.391 . S
C453 H441 0.950 . S
C453 C449 1.393 . S
C453 C452 1.391 . S
C454 H444 0.950 . S
C454 C455 1.386 . S
C454 C456 1.391 . S
C455 C454 1.386 . S
C455 C459 1.393 . S
C456 H445 0.950 . S
C456 C454 1.391 . S
C456 C457 1.400 . S
C457 C451 1.491 . S
C457 C456 1.400 . S
C457 C458 1.398 . S
C458 H446 0.950 . S
C458 C457 1.398 . S
C458 C459 1.391 . S
C459 H447 0.950 . S
C459 C455 1.393 . S
C459 C458 1.391 . S
H460 C468 0.950 . S
H461 C473 0.950 1_655 S
H462 C470 0.950 . S
H463 C472 0.950 1_655 S
H464 C474 0.950 1_655 S
H465 C476 0.950 1_655 S
H466 C478 0.950 . S
H467 C479 0.950 . S
C468 H460 0.950 . S
C468 C469 1.386 . S
C468 C470 1.391 . S
C469 C468 1.386 . S
C469 C473 1.393 . S
C470 H462 0.950 . S
C470 C468 1.391 . S
C470 C471 1.400 . S
C471 C470 1.400 . S
C471 C472 1.398 . S
C471 C477 1.491 . S
C472 H463 0.950 1_455 S
C472 C471 1.398 . S
C472 C473 1.391 . S
C473 H461 0.950 1_455 S
C473 C469 1.393 . S
C473 C472 1.391 . S
C474 H464 0.950 1_455 S
C474 C475 1.386 . S
C474 C476 1.391 . S
C475 C474 1.386 . S
C475 C479 1.393 . S
C476 H465 0.950 1_455 S
C476 C474 1.391 . S
C476 C477 1.400 . S
C477 C471 1.491 . S
C477 C476 1.400 . S
C477 C478 1.398 . S
C478 H466 0.950 . S
C478 C477 1.398 . S
C478 C479 1.391 . S
C479 H467 0.950 . S
C479 C475 1.393 . S
C479 C478 1.391 . S
H480 C488 0.950 . S
H481 C493 0.950 . S
H482 C490 0.950 . S
H483 C492 0.950 . S
H484 C494 0.950 . S
H485 C496 0.950 . S
H486 C498 0.950 . S
H487 C499 0.950 . S
C488 H480 0.950 . S
C488 C489 1.386 . S
C488 C490 1.391 . S
C489 C488 1.386 . S
C489 C493 1.393 . S
C490 H482 0.950 . S
C490 C488 1.391 . S
C490 C491 1.400 . S
C491 C490 1.400 . S
C491 C492 1.398 . S
C491 C497 1.491 . S
C492 H483 0.950 . S
C492 C491 1.398 . S
C492 C493 1.391 . S
C493 H481 0.950 . S
C493 C489 1.393 . S
C493 C492 1.391 . S
C494 H484 0.950 . S
C494 C495 1.386 . S
C494 C496 1.391 . S
C495 C494 1.386 . S
C495 C499 1.393 . S
C496 H485 0.950 . S
C496 C494 1.391 . S
C496 C497 1.400 . S
C497 C491 1.491 . S
C497 C496 1.400 . S
C497 C498 1.398 . S
C498 H486 0.950 . S
C498 C497 1.398 . S
C498 C499 1.391 . S
C499 H487 0.950 . S
C499 C495 1.393 . S
C499 C498 1.391 . S
H500 C508 0.950 . S
H501 C513 0.950 . S
H502 C510 0.950 . S
H503 C512 0.950 . S
H504 C514 0.950 . S
H505 C516 0.950 . S
H506 C518 0.950 . S
H507 C519 0.950 . S
C508 H500 0.950 . S
C508 C509 1.386 . S
C508 C510 1.391 . S
C509 C508 1.386 . S
C509 C513 1.393 . S
C510 H502 0.950 . S
C510 C508 1.391 . S
C510 C511 1.400 . S
C511 C510 1.400 . S
C511 C512 1.398 . S
C511 C517 1.491 . S
C512 H503 0.950 . S
C512 C511 1.398 . S
C512 C513 1.391 . S
C513 H501 0.950 . S
C513 C509 1.393 . S
C513 C512 1.391 . S
C514 H504 0.950 . S
C514 C515 1.386 . S
C514 C516 1.391 . S
C515 C514 1.386 . S
C515 C519 1.393 . S
C516 H505 0.950 . S
C516 C514 1.391 . S
C516 C517 1.400 . S
C517 C511 1.491 . S
C517 C516 1.400 . S
C517 C518 1.398 . S
C518 H506 0.950 . S
C518 C517 1.398 . S
C518 C519 1.391 . S
C519 H507 0.950 . S
C519 C515 1.393 . S
C519 C518 1.391 . S
H520 C528 0.950 1_455 S
H521 C533 0.950 . S
H522 C530 0.950 . S
H523 C532 0.950 . S
H524 C534 0.950 . S
H525 C536 0.950 . S
H526 C538 0.950 . S
H527 C539 0.950 . S
C528 H520 0.950 1_655 S
C528 C529 1.386 . S
C528 C530 1.391 . S
C529 C528 1.386 . S
C529 C533 1.393 . S
C530 H522 0.950 . S
C530 C528 1.391 . S
C530 C531 1.400 . S
C531 C530 1.400 . S
C531 C532 1.398 . S
C531 C537 1.491 . S
C532 H523 0.950 . S
C532 C531 1.398 . S
C532 C533 1.391 . S
C533 H521 0.950 . S
C533 C529 1.393 . S
C533 C532 1.391 . S
C534 H524 0.950 . S
C534 C535 1.386 . S
C534 C536 1.391 . S
C535 C534 1.386 . S
C535 C539 1.393 . S
C536 H525 0.950 . S
C536 C534 1.391 . S
C536 C537 1.400 . S
C537 C531 1.491 . S
C537 C536 1.400 . S
C537 C538 1.398 . S
C538 H526 0.950 . S
C538 C537 1.398 . S
C538 C539 1.391 . S
C539 H527 0.950 . S
C539 C535 1.393 . S
C539 C538 1.391 . S
H540 C548 0.950 . S
H541 C553 0.950 . S
H542 C550 0.950 . S
H543 C552 0.950 . S
H544 C554 0.950 . S
H545 C556 0.950 . S
H546 C558 0.950 . S
H547 C559 0.950 . S
C548 H540 0.950 . S
C548 C549 1.386 . S
C548 C550 1.391 . S
C549 C548 1.386 . S
C549 C553 1.393 . S
C550 H542 0.950 . S
C550 C548 1.391 . S
C550 C551 1.400 . S
C551 C550 1.400 . S
C551 C552 1.398 . S
C551 C557 1.491 . S
C552 H543 0.950 . S
C552 C551 1.398 . S
C552 C553 1.391 . S
C553 H541 0.950 . S
C553 C549 1.393 . S
C553 C552 1.391 . S
C554 H544 0.950 . S
C554 C555 1.386 . S
C554 C556 1.391 . S
C555 C554 1.386 . S
C555 C559 1.393 . S
C556 H545 0.950 . S
C556 C554 1.391 . S
C556 C557 1.400 . S
C557 C551 1.491 . S
C557 C556 1.400 . S
C557 C558 1.398 . S
C558 H546 0.950 . S
C558 C557 1.398 . S
C558 C559 1.391 . S
C559 H547 0.950 . S
C559 C555 1.393 . S
C559 C558 1.391 . S
H560 C568 0.950 . S
H561 C573 0.950 . S
H562 C570 0.950 . S
H563 C572 0.950 . S
H564 C574 0.950 1_455 S
H565 C576 0.950 . S
H566 C578 0.950 . S
H567 C579 0.950 . S
C568 H560 0.950 . S
C568 C569 1.386 . S
C568 C570 1.391 . S
C569 C568 1.386 . S
C569 C573 1.393 . S
C570 H562 0.950 . S
C570 C568 1.391 . S
C570 C571 1.400 . S
C571 C570 1.400 . S
C571 C572 1.398 . S
C571 C577 1.491 . S
C572 H563 0.950 . S
C572 C571 1.398 . S
C572 C573 1.391 . S
C573 H561 0.950 . S
C573 C569 1.393 . S
C573 C572 1.391 . S
C574 H564 0.950 1_655 S
C574 C575 1.386 . S
C574 C576 1.391 . S
C575 C574 1.386 . S
C575 C579 1.393 . S
C576 H565 0.950 . S
C576 C574 1.391 . S
C576 C577 1.400 . S
C577 C571 1.491 . S
C577 C576 1.400 . S
C577 C578 1.398 . S
C578 H566 0.950 . S
C578 C577 1.398 . S
C578 C579 1.391 . S
C579 H567 0.950 . S
C579 C575 1.393 . S
C579 C578 1.391 . S
H580 C588 0.950 . S
H581 C593 0.950 . S
H582 C590 0.950 . S
H583 C592 0.950 . S
H584 C594 0.950 1_545 S
H585 C596 0.950 . S
H586 C598 0.950 . S
H587 C599 0.950 . S
C588 H580 0.950 . S
C588 C589 1.386 . S
C588 C590 1.391 . S
C589 C588 1.386 . S
C589 C593 1.393 . S
C590 H582 0.950 . S
C590 C588 1.391 . S
C590 C591 1.400 . S
C591 C590 1.400 . S
C591 C592 1.398 . S
C591 C597 1.491 . S
C592 H583 0.950 . S
C592 C591 1.398 . S
C592 C593 1.391 . S
C593 H581 0.950 . S
C593 C589 1.393 . S
C593 C592 1.391 . S
C594 H584 0.950 1_565 S
C594 C595 1.386 . S
C594 C596 1.391 . S
C595 C594 1.386 . S
C595 C599 1.393 . S
C596 H585 0.950 . S
C596 C594 1.391 . S
C596 C597 1.400 . S
C597 C591 1.491 . S
C597 C596 1.400 . S
C597 C598 1.398 . S
C598 H586 0.950 . S
C598 C597 1.398 . S
C598 C599 1.391 . S
C599 H587 0.950 . S
C599 C595 1.393 . S
C599 C598 1.391 . S
C249 C143 0.397 . S
C255 C23 0.448 . S
C269 C183 0.473 . S
C275 C63 0.416 . S
C289 C223 0.406 . S
C295 C103 0.403 . S
C309 C25 0.638 . S
C315 C84 0.688 . S
C329 C44 0.680 . S
C335 C145 0.713 . S
C349 C105 0.717 . S
C355 C164 0.690 . S
C369 C124 0.657 . S
C375 C225 0.698 . S
C389 C185 0.717 . S
C395 C4 0.688 . S
C409 C204 0.642 . S
C415 C65 0.661 . S
C429 C2 0.517 . S
C435 C122 0.507 . S
C449 C42 0.453 . S
C455 C162 0.497 . S
C469 C82 0.518 . S
C475 C202 0.497 . S
C489 C20 4.150 . S
C495 C60 4.150 . S
C509 C71 3.881 . S
C515 C111 3.873 . S
C529 C100 4.149 . S
C535 C140 4.148 . S
C549 C151 3.874 . S
C555 C191 3.880 . S
C569 C180 4.149 . S
C575 C220 4.148 . S
C589 C231 3.882 . S
C595 C31 3.874 . S
