# Generated by pormake.
# Topology uot, (4)-cn, num edge types: 1
# Building blocks:
#     Node 0, Type 0, BuildingBlock: ICAMEG_clean_sbu_1, # of connection points: 4
#     Node 1, Type 0, BuildingBlock: ICAMEG_clean_sbu_1, # of connection points: 4
#     Node 2, Type 0, BuildingBlock: ICAMEG_clean_sbu_1, # of connection points: 4
#     Node 3, Type 0, BuildingBlock: ICAMEG_clean_sbu_1, # of connection points: 4
#     Node 4, Type 0, BuildingBlock: ICAMEG_clean_sbu_1, # of connection points: 4
#     Node 5, Type 0, BuildingBlock: ICAMEG_clean_sbu_1, # of connection points: 4
#     Node 6, Type 0, BuildingBlock: ICAMEG_clean_sbu_1, # of connection points: 4
#     Node 7, Type 0, BuildingBlock: ICAMEG_clean_sbu_1, # of connection points: 4
#     Node 8, Type 0, BuildingBlock: ICAMEG_clean_sbu_1, # of connection points: 4
#     Node 9, Type 0, BuildingBlock: ICAMEG_clean_sbu_1, # of connection points: 4
#     Node 10, Type 0, BuildingBlock: ICAMEG_clean_sbu_1, # of connection points: 4
#     Node 11, Type 0, BuildingBlock: ICAMEG_clean_sbu_1, # of connection points: 4
#     Node 12, Type 0, BuildingBlock: ICAMEG_clean_sbu_1, # of connection points: 4
#     Node 13, Type 0, BuildingBlock: ICAMEG_clean_sbu_1, # of connection points: 4
#     Node 14, Type 0, BuildingBlock: ICAMEG_clean_sbu_1, # of connection points: 4
#     Node 15, Type 0, BuildingBlock: ICAMEG_clean_sbu_1, # of connection points: 4
#     Edge 16, Type (0, 0), None
#     Edge 17, Type (0, 0), None
#     Edge 18, Type (0, 0), None
#     Edge 19, Type (0, 0), None
#     Edge 20, Type (0, 0), None
#     Edge 21, Type (0, 0), None
#     Edge 22, Type (0, 0), None
#     Edge 23, Type (0, 0), None
#     Edge 24, Type (0, 0), None
#     Edge 25, Type (0, 0), None
#     Edge 26, Type (0, 0), None
#     Edge 27, Type (0, 0), None
#     Edge 28, Type (0, 0), None
#     Edge 29, Type (0, 0), None
#     Edge 30, Type (0, 0), None
#     Edge 31, Type (0, 0), None
#     Edge 32, Type (0, 0), None
#     Edge 33, Type (0, 0), None
#     Edge 34, Type (0, 0), None
#     Edge 35, Type (0, 0), None
#     Edge 36, Type (0, 0), None
#     Edge 37, Type (0, 0), None
#     Edge 38, Type (0, 0), None
#     Edge 39, Type (0, 0), None
#     Edge 40, Type (0, 0), None
#     Edge 41, Type (0, 0), None
#     Edge 42, Type (0, 0), None
#     Edge 43, Type (0, 0), None
#     Edge 44, Type (0, 0), None
#     Edge 45, Type (0, 0), None
#     Edge 46, Type (0, 0), None
#     Edge 47, Type (0, 0), None
# Relax obj value: 0.032
# Max RMSD: 0.062
# Mean RMSD: 0.062
data_MOF--net-uot--node1-ICAMEG_clean_sbu_1--edge1-none
_symmetry_space_group_name_H-M    P1
_symmetry_Int_Tables_number       1
_symmetry_cell_setting            triclinic
loop_
_symmetry_equiv_pos_as_xyz
'x, y, z'
_cell_length_a     22.70095
_cell_length_b     22.413517
_cell_length_c     23.15364
_cell_angle_alpha  89.369914
_cell_angle_beta   89.491711
_cell_angle_gamma 90.18634
loop_
_atom_site_label
_atom_site_type_symbol
_atom_site_fract_x
_atom_site_fract_y
_atom_site_fract_z
_atom_type_partial_charge
Co0 Co 0.15324 0.47249 0.34787 0.0
Co1 Co 0.22947 0.45349 0.22328 0.0
O2 O 0.22552 0.45148 0.31053 0.0
C3 C 0.23832 0.50976 0.45673 0.0
O4 O 0.28896 0.50256 0.42983 0.0
C5 C 0.27721 0.33525 0.25876 0.0
O6 O 0.22808 0.32661 0.28799 0.0
O7 O 0.1588 0.39507 0.21155 0.0
O8 O 0.10889 0.42328 0.28757 0.0
H9 H 0.18128 0.46533 0.01069 0.0
H10 H 0.24468 0.41134 0.40948 0.0
O11 O 0.18976 0.5106 0.42581 0.0
H12 H 0.09264 0.25946 0.40917 0.0
H13 H 0.01189 0.60461 0.45153 0.0
H14 H 0.05636 0.50119 0.27552 0.0
H15 H 0.07659 0.3552 0.3598 0.0
H16 H 0.08477 0.51747 0.45373 0.0
O17 O 0.28525 0.38358 0.2301 0.0
H18 H 0.15822 0.45088 0.11549 0.0
H19 H 0.33843 0.44096 0.15287 0.0
H20 H 0.99793 0.57893 0.27351 0.0
H21 H 0.25807 0.32387 0.46749 0.0
H22 H 0.96725 0.63281 0.36662 0.0
H23 H 0.18334 0.2422 0.46166 0.0
O24 O 0.15658 0.55377 0.30489 0.0
H25 H 0.43231 0.51312 0.28355 0.0
H26 H 0.25958 0.57043 0.169 0.0
H27 H 0.35164 0.62765 0.15782 0.0
H28 H 0.44054 0.59524 0.21111 0.0
H29 H 0.33972 0.45615 0.29296 0.0
H30 H 0.3631 0.44262 0.04969 0.0
H31 H 0.28324 0.4517 0.97787 0.0
O32 O 0.17034 0.5265 0.21408 0.0
C33 C 0.11113 0.39249 0.24195 0.0
C34 C 0.21559 0.46048 0.0422 0.0
C35 C 0.31782 0.44714 0.06366 0.0
N36 N 0.24583 0.45219 0.14056 0.0
C37 C 0.20238 0.45564 0.10114 0.0
C38 C 0.30319 0.44623 0.12223 0.0
C39 C 0.27342 0.45404 0.02345 0.0
C40 C 0.20735 0.38323 0.41596 0.0
N41 N 0.15488 0.39602 0.39025 0.0
C42 C 0.21705 0.33011 0.44523 0.0
C43 C 0.17535 0.28523 0.44231 0.0
C44 C 0.12403 0.29519 0.41206 0.0
C45 C 0.11458 0.3508 0.38562 0.0
C46 C 0.02289 0.57767 0.41572 0.0
C47 C 0.04809 0.51856 0.31762 0.0
C48 C 0.06431 0.5311 0.41573 0.0
N49 N 0.07621 0.50078 0.36714 0.0
C50 C 0.01363 0.56777 0.31535 0.0
C51 C 0.99707 0.59539 0.36562 0.0
C52 C 0.14954 0.56469 0.25094 0.0
C53 C 0.39477 0.5254 0.25783 0.0
C54 C 0.29677 0.55856 0.1955 0.0
C55 C 0.34922 0.59039 0.18792 0.0
C56 C 0.39904 0.57217 0.21782 0.0
N57 N 0.29451 0.50919 0.23084 0.0
C58 C 0.34178 0.49422 0.26395 0.0
Co59 Co 0.4729 0.84226 0.63253 0.0
Co60 Co 0.4379 0.77354 0.75794 0.0
O61 O 0.43518 0.77791 0.67345 0.0
C62 C 0.47644 0.75612 0.52553 0.0
O63 O 0.42454 0.73173 0.53509 0.0
C64 C 0.30825 0.73889 0.74532 0.0
O65 O 0.29306 0.79523 0.74341 0.0
O66 O 0.39051 0.85019 0.76514 0.0
O67 O 0.43391 0.90349 0.69389 0.0
H68 H 0.32788 0.73977 0.94159 0.0
H69 H 0.44069 0.85998 0.50873 0.0
O70 O 0.50187 0.78503 0.56675 0.0
H71 H 0.25268 0.83574 0.61036 0.0
H72 H 0.65369 0.90494 0.52008 0.0
H73 H 0.50572 0.96567 0.65851 0.0
H74 H 0.34472 0.84044 0.66255 0.0
H75 H 0.58332 0.83594 0.5589 0.0
O76 O 0.36206 0.72404 0.75298 0.0
H77 H 0.3435 0.785 0.84609 0.0
H78 H 0.52496 0.74526 0.85444 0.0
H79 H 0.57419 0.04156 0.61598 0.0
H80 H 0.35102 0.84868 0.45185 0.0
H81 H 0.64597 0.01215 0.54414 0.0
H82 H 0.25506 0.83556 0.5032 0.0
O83 O 0.54829 0.83067 0.67596 0.0
H84 H 0.46055 0.55118 0.73245 0.0
H85 H 0.5686 0.73638 0.76982 0.0
H86 H 0.61528 0.64158 0.78992 0.0
H87 H 0.56061 0.547 0.7743 0.0
H88 H 0.41325 0.64685 0.71635 0.0
H89 H 0.51094 0.69494 0.94783 0.0
H90 H 0.41192 0.69021 -0.00817 0.0
O91 O 0.51464 0.82657 0.76486 0.0
C92 C 0.39539 0.89965 0.7369 0.0
C93 C 0.37138 0.73984 0.92245 0.0
C94 C 0.4739 0.71439 0.92565 0.0
N95 N 0.43449 0.7628 0.84146 0.0
C96 C 0.38056 0.76548 0.86796 0.0
C97 C 0.48137 0.74101 0.87137 0.0
C98 C 0.41821 0.71249 0.95065 0.0
C99 C 0.39988 0.85745 0.53059 0.0
N100 N 0.39961 0.85416 0.58904 0.0
C101 C 0.3488 0.84925 0.49855 0.0
C102 C 0.29525 0.8413 0.52726 0.0
C103 C 0.29387 0.84175 0.58712 0.0
C104 C 0.34667 0.84686 0.61707 0.0
C105 C 0.61772 0.92086 0.5464 0.0
C106 C 0.52951 0.95646 0.61986 0.0
C107 C 0.57404 0.88197 0.56668 0.0
N108 N 0.52405 0.90215 0.59538 0.0
C109 C 0.57236 0.9972 0.6006 0.0
C110 C 0.61458 0.98002 0.56109 0.0
C111 C 0.55503 0.84384 0.72835 0.0
C112 C 0.48363 0.59186 0.74276 0.0
C113 C 0.54312 0.69682 0.76246 0.0
C114 C 0.57065 0.64244 0.7739 0.0
C115 C 0.54 0.58954 0.76539 0.0
N116 N 0.48422 0.69914 0.7499 0.0
C117 C 0.45658 0.64715 0.73463 0.0
Co118 Co 0.83979 0.53368 0.36467 0.0
Co119 Co 0.77234 0.57557 0.24314 0.0
O120 O 0.77782 0.57557 0.32805 0.0
C121 C 0.75655 0.52572 0.47065 0.0
O122 O 0.73386 0.5787 0.46116 0.0
C123 C 0.72801 0.69937 0.26701 0.0
O124 O 0.78189 0.71733 0.27691 0.0
O125 O 0.84328 0.63004 0.23779 0.0
O126 O 0.89656 0.5822 0.30548 0.0
H127 H 0.7689 0.69359 0.05813 0.0
H128 H 0.87977 0.54588 0.48671 0.0
O129 O 0.78239 0.49844 0.42801 0.0
H130 H 0.81024 0.74335 0.42655 0.0
H131 H 0.90549 0.35236 0.47527 0.0
H132 H 0.94057 0.48689 0.31477 0.0
H133 H 0.83076 0.6665 0.35537 0.0
H134 H 0.84987 0.44262 0.46733 0.0
O135 O 0.71719 0.64563 0.25236 0.0
H136 H 0.79819 0.67058 0.15685 0.0
H137 H 0.70874 0.50374 0.14824 0.0
H138 H 0.00745 0.40733 0.33045 0.0
H139 H 0.85172 0.61771 0.56111 0.0
H140 H 0.99587 0.3414 0.41832 0.0
H141 H 0.81362 0.71733 0.53125 0.0
O142 O 0.82852 0.46183 0.31257 0.0
H143 H 0.59282 0.50926 0.35209 0.0
H144 H 0.74581 0.44382 0.2154 0.0
H145 H 0.68708 0.36945 0.2675 0.0
H146 H 0.61098 0.40137 0.33811 0.0
H147 H 0.65579 0.58259 0.30426 0.0
H148 H 0.6775 0.52661 0.05137 0.0
H149 H 0.70488 0.62272 0.00588 0.0
O150 O 0.832 0.50545 0.22792 0.0
C151 C 0.89149 0.6251 0.26596 0.0
C152 C 0.75687 0.6511 0.07763 0.0
C153 C 0.70562 0.55758 0.07386 0.0
N154 N 0.75868 0.58373 0.15976 0.0
C155 C 0.77444 0.63686 0.13376 0.0
C156 C 0.72442 0.54456 0.12979 0.0
C157 C 0.72145 0.6114 0.04802 0.0
C158 C 0.86564 0.58914 0.4735 0.0
N159 N 0.85321 0.59997 0.41697 0.0
C160 C 0.84838 0.62956 0.51584 0.0
C161 C 0.82652 0.68508 0.49909 0.0
C162 C 0.82433 0.69971 0.44062 0.0
C163 C 0.83742 0.65616 0.40003 0.0
C164 C 0.91699 0.38524 0.44252 0.0
C165 C 0.94025 0.46547 0.35613 0.0
C166 C 0.88489 0.43804 0.43669 0.0
N167 N 0.89958 0.48111 0.39604 0.0
C168 C 0.9755 0.41589 0.36297 0.0
C169 C 0.96664 0.37781 0.40935 0.0
C170 C 0.8467 0.46098 0.26043 0.0
C171 C 0.62649 0.49476 0.32203 0.0
C172 C 0.71326 0.4595 0.24572 0.0
C173 C 0.67973 0.41642 0.27517 0.0
C174 C 0.63698 0.43429 0.3146 0.0
N175 N 0.70633 0.5193 0.25621 0.0
C176 C 0.66173 0.53663 0.29275 0.0
Co177 Co 0.5196 0.1683 0.62962 0.0
Co178 Co 0.55998 0.23563 0.75274 0.0
O179 O 0.55607 0.2322 0.66864 0.0
C180 C 0.51403 0.25512 0.52036 0.0
O181 O 0.56637 0.27858 0.5285 0.0
C182 C 0.68578 0.27503 0.73306 0.0
O183 O 0.70386 0.21958 0.73461 0.0
O184 O 0.61042 0.16006 0.75547 0.0
O185 O 0.5628 0.10759 0.68761 0.0
H186 H 0.55852 0.18838 0.96637 0.0
H187 H 0.54585 0.15084 0.50628 0.0
O188 O 0.48732 0.22842 0.56438 0.0
H189 H 0.7372 0.18774 0.59386 0.0
H190 H 0.35032 0.10026 0.50824 0.0
H191 H 0.47594 0.05464 0.67149 0.0
H192 H 0.64875 0.17857 0.65207 0.0
H193 H 0.43306 0.16068 0.5266 0.0
O194 O 0.63137 0.28815 0.7391 0.0
H195 H 0.57854 0.16331 0.86234 0.0
H196 H 0.58496 0.34483 0.81929 0.0
H197 H 0.3978 0.98452 0.64406 0.0
H198 H 0.63253 0.16466 0.44235 0.0
H199 H 0.33188 0.00841 0.56497 0.0
H200 H 0.72934 0.18699 0.48677 0.0
O201 O 0.44653 0.17451 0.68122 0.0
H202 H 0.51171 0.4481 0.70298 0.0
H203 H 0.45084 0.27002 0.81494 0.0
H204 H 0.4024 0.36582 0.83326 0.0
H205 H 0.43662 0.45666 0.78095 0.0
H206 H 0.55902 0.3508 0.68506 0.0
H207 H 0.58367 0.37179 0.92119 0.0
H208 H 0.5678 0.29318 -0.00413 0.0
O209 O 0.48639 0.17935 0.76791 0.0
C210 C 0.60379 0.1111 0.7272 0.0
C211 C 0.56435 0.22249 0.93376 0.0
C212 C 0.57849 0.32563 0.90896 0.0
N213 N 0.57071 0.25145 0.83465 0.0
C214 C 0.57071 0.20801 0.8754 0.0
C215 C 0.57924 0.30963 0.85102 0.0
C216 C 0.56937 0.28168 0.9506 0.0
C217 C 0.58817 0.15481 0.52461 0.0
N218 N 0.59122 0.16029 0.58251 0.0
C219 C 0.63706 0.16505 0.48885 0.0
C220 C 0.69114 0.17784 0.51369 0.0
C221 C 0.69558 0.17863 0.57339 0.0
C222 C 0.64487 0.17108 0.60692 0.0
C223 C 0.38017 0.08749 0.54199 0.0
C224 C 0.45437 0.06059 0.63083 0.0
C225 C 0.4299 0.12187 0.55332 0.0
N226 N 0.47056 0.10625 0.59467 0.0
C227 C 0.40662 0.0233 0.61885 0.0
C228 C 0.3692 0.0368 0.57422 0.0
C229 C 0.44465 0.15976 0.7349 0.0
C230 C 0.49817 0.409 0.72741 0.0
C231 C 0.46303 0.30827 0.78861 0.0
C232 C 0.4364 0.36282 0.80035 0.0
C233 C 0.45577 0.41381 0.77099 0.0
N234 N 0.50873 0.30495 0.74979 0.0
C235 C 0.52409 0.35366 0.71692 0.0
Co236 Co 0.15371 0.53059 0.62924 0.0
Co237 Co 0.21743 0.56543 0.75458 0.0
O238 O 0.21528 0.56707 0.67021 0.0
C239 C 0.24097 0.52588 0.52218 0.0
O240 O 0.27052 0.57421 0.53559 0.0
C241 C 0.26115 0.69315 0.74343 0.0
O242 O 0.2064 0.7113 0.74076 0.0
O243 O 0.14436 0.61734 0.75772 0.0
O244 O 0.09264 0.57287 0.68713 0.0
H245 H 0.2292 0.69149 0.92567 0.0
H246 H 0.13905 0.56562 0.50295 0.0
O247 O 0.21205 0.49757 0.56373 0.0
H248 H 0.18673 0.75031 0.60123 0.0
H249 H 0.08251 0.37748 0.48864 0.0
H250 H 0.04937 0.47575 0.67338 0.0
H251 H 0.16126 0.66109 0.65559 0.0
H252 H 0.13671 0.46597 0.511 0.0
O253 O 0.27303 0.63736 0.74734 0.0
H254 H 0.1849 0.65662 0.83905 0.0
H255 H 0.28107 0.49413 0.85243 0.0
H256 H 0.00286 0.3836 0.65459 0.0
H257 H 0.17578 0.64979 0.44552 0.0
H258 H 0.01378 0.33339 0.55934 0.0
H259 H 0.20036 0.74425 0.49483 0.0
O260 O 0.15964 0.45483 0.68089 0.0
H261 H 0.3967 0.50197 0.64702 0.0
H262 H 0.24379 0.43465 0.78498 0.0
H263 H 0.30527 0.36106 0.73669 0.0
H264 H 0.38013 0.39385 0.66447 0.0
H265 H 0.33358 0.5746 0.69401 0.0
H266 H 0.32953 0.53073 0.9376 0.0
H267 H 0.30345 0.62874 0.97713 0.0
O268 O 0.15836 0.49417 0.76747 0.0
C269 C 0.09635 0.61204 0.72898 0.0
C270 C 0.23981 0.64723 0.911 0.0
C271 C 0.29535 0.55693 0.91744 0.0
N272 N 0.22897 0.57233 0.838 0.0
C273 C 0.21383 0.6263 0.861 0.0
C274 C 0.26762 0.53673 0.86767 0.0
C275 C 0.2813 0.61246 0.93923 0.0
C276 C 0.14792 0.6055 0.52427 0.0
N277 N 0.14799 0.60539 0.58288 0.0
C278 C 0.17046 0.6534 0.49186 0.0
C279 C 0.18452 0.70613 0.51947 0.0
C280 C 0.17662 0.70952 0.57881 0.0
C281 C 0.15951 0.65841 0.60976 0.0
C282 C 0.07529 0.39912 0.529 0.0
C283 C 0.05668 0.45593 0.63178 0.0
C284 C 0.10477 0.45186 0.54204 0.0
N285 N 0.09408 0.482 0.59253 0.0
C286 C 0.02993 0.40178 0.6216 0.0
C287 C 0.03737 0.37386 0.56912 0.0
C288 C 0.14167 0.45206 0.73379 0.0
C289 C 0.3635 0.48707 0.67783 0.0
C290 C 0.27725 0.45068 0.75529 0.0
C291 C 0.31191 0.40809 0.72768 0.0
C292 C 0.35394 0.42646 0.68726 0.0
N293 N 0.28403 0.51054 0.74357 0.0
C294 C 0.32837 0.5285 0.70659 0.0
Co295 Co 0.53737 0.86074 0.36488 0.0
Co296 Co 0.55767 0.78094 0.24632 0.0
O297 O 0.5632 0.79038 0.32914 0.0
C298 C 0.49784 0.76269 0.46291 0.0
O299 O 0.50801 0.71458 0.43278 0.0
C300 C 0.67969 0.74245 0.27099 0.0
O301 O 0.68911 0.79517 0.29326 0.0
O302 O 0.61074 0.85457 0.22986 0.0
O303 O 0.57577 0.91433 0.29788 0.0
H304 H 0.66502 0.75948 0.06209 0.0
H305 H 0.60496 0.77399 0.43571 0.0
O306 O 0.50435 0.81491 0.43876 0.0
H307 H 0.74682 0.9337 0.39308 0.0
H308 H 0.44703 0.9687 0.524 0.0
H309 H 0.4753 0.95929 0.31512 0.0
H310 H 0.64565 0.94342 0.36557 0.0
H311 H 0.52865 0.91192 0.48031 0.0
O312 O 0.62933 0.72884 0.25119 0.0
H313 H 0.64515 0.79996 0.15465 0.0
H314 H 0.48288 0.706 0.16371 0.0
H315 H 0.38324 0.99176 0.35147 0.0
H316 H 0.70606 0.76214 0.46614 0.0
H317 H 0.3671 1.00424 0.45797 0.0
H318 H 0.77967 0.84085 0.44086 0.0
O319 O 0.45547 0.85353 0.32658 0.0
H320 H 0.51207 0.59337 0.35861 0.0
H321 H 0.42576 0.75077 0.237 0.0
H322 H 0.36149 0.68879 0.29741 0.0
H323 H 0.40414 0.60979 0.35998 0.0
H324 H 0.57596 0.66104 0.30466 0.0
H325 H 0.4984 0.66905 0.06664 0.0
H326 H 0.59142 0.69377 0.01439 0.0
O327 O 0.48419 0.83687 0.23753 0.0
C328 C 0.61109 0.90588 0.25409 0.0
C329 C 0.62249 0.751 0.08141 0.0
C330 C 0.52965 0.69992 0.08501 0.0
N331 N 0.55879 0.76216 0.16417 0.0
C332 C 0.61016 0.77511 0.13506 0.0
C333 C 0.51991 0.72308 0.14009 0.0
C334 C 0.58167 0.71376 0.05566 0.0
C335 C 0.63359 0.81161 0.43018 0.0
N336 N 0.61501 0.86273 0.40282 0.0
C337 C 0.69234 0.8034 0.4457 0.0
C338 C 0.73353 0.84723 0.43168 0.0
C339 C 0.71516 0.89934 0.40486 0.0
C340 C 0.65604 0.90587 0.39059 0.0
C341 C 0.45144 0.96574 0.47794 0.0
C342 C 0.46837 0.95961 0.36125 0.0
C343 C 0.49961 0.93582 0.45432 0.0
N344 N 0.50664 0.93158 0.39688 0.0
C345 C 0.41623 0.98145 0.38222 0.0
C346 C 0.40728 0.9855 0.4413 0.0
C347 C 0.44551 0.85889 0.27266 0.0
C348 C 0.49302 0.62848 0.33237 0.0
C349 C 0.44609 0.71843 0.26504 0.0
C350 C 0.40872 0.68252 0.29882 0.0
C351 C 0.43257 0.63799 0.33358 0.0
N352 N 0.50625 0.71272 0.26755 0.0
C353 C 0.52928 0.66671 0.29977 0.0
Co354 Co 0.85025 0.46123 0.63455 0.0
Co355 Co 0.7693 0.44611 0.7538 0.0
O356 O 0.77883 0.44102 0.67088 0.0
C357 C 0.7608 0.50418 0.53359 0.0
O358 O 0.71199 0.4979 0.56385 0.0
C359 C 0.72934 0.32312 0.72825 0.0
O360 O 0.78194 0.31221 0.70707 0.0
O361 O 0.84094 0.38997 0.77033 0.0
O362 O 0.89946 0.42009 0.69825 0.0
H363 H 0.72577 0.34419 0.94077 0.0
H364 H 0.75594 0.39889 0.57293 0.0
O365 O 0.81129 0.49734 0.55901 0.0
H366 H 0.90901 0.24758 0.58383 0.0
H367 H 0.99186 0.48196 0.47874 0.0
H368 H 0.95079 0.53633 0.67679 0.0
H369 H 0.92524 0.34594 0.62601 0.0
H370 H 0.92014 0.42811 0.53695 0.0
O371 O 0.71665 0.37427 0.7482 0.0
H372 H 0.77004 0.355 0.84475 0.0
H373 H 0.7201 0.53751 0.83887 0.0
H374 H 0.01936 0.59846 0.62063 0.0
H375 H 0.73983 0.30336 0.52787 0.0
H376 H 0.04291 0.57112 0.52592 0.0
H377 H 0.81675 0.22545 0.53491 0.0
O378 O 0.84897 0.54299 0.67294 0.0
H379 H 0.58623 0.49225 0.64261 0.0
H380 H 0.74503 0.58177 0.75558 0.0
H381 H 0.68584 0.64475 0.69376 0.0
H382 H 0.60586 0.60077 0.63561 0.0
H383 H 0.64811 0.4289 0.70129 0.0
H384 H 0.67432 0.5281 0.93437 0.0
H385 H 0.67692 0.43111 0.98681 0.0
O386 O 0.82603 0.51907 0.76327 0.0
C387 C 0.89045 0.38584 0.74233 0.0
C388 C 0.72515 0.38716 0.91921 0.0
C389 C 0.69577 0.49001 0.91512 0.0
N390 N 0.74882 0.44713 0.8354 0.0
C391 C 0.75068 0.39375 0.86456 0.0
C392 C 0.7218 0.49499 0.86033 0.0
C393 C 0.69751 0.43569 0.94467 0.0
C394 C 0.79225 0.36873 0.57165 0.0
N395 N 0.84485 0.38264 0.59708 0.0
C396 C 0.78173 0.31305 0.54769 0.0
C397 C 0.82451 0.26946 0.55183 0.0
C398 C 0.87674 0.2821 0.57962 0.0
C399 C 0.88602 0.33868 0.60269 0.0
C400 C 0.97968 0.49933 0.51985 0.0
C401 C 0.9543 0.52946 0.63107 0.0
C402 C 0.93849 0.46798 0.55144 0.0
N403 N 0.92344 0.48556 0.60408 0.0
C404 C 0.99466 0.56338 0.60064 0.0
C405 C 0.00622 0.54897 0.54462 0.0
C406 C 0.85206 0.55455 0.72669 0.0
C407 C 0.62111 0.51189 0.66771 0.0
C408 C 0.71142 0.56024 0.73091 0.0
C409 C 0.6774 0.59719 0.69565 0.0
C410 C 0.63251 0.57264 0.66319 0.0
N411 N 0.70326 0.49943 0.73255 0.0
C412 C 0.65664 0.476 0.70266 0.0
Co413 Co 0.46406 0.16398 0.34624 0.0
Co414 Co 0.439 0.23883 0.22297 0.0
O415 O 0.43937 0.23585 0.30871 0.0
C416 C 0.49142 0.2535 0.45705 0.0
O417 O 0.47235 0.30382 0.43455 0.0
C418 C 0.3232 0.28879 0.25914 0.0
O419 O 0.31471 0.23951 0.28925 0.0
O420 O 0.3807 0.16887 0.21859 0.0
O421 O 0.42832 0.11199 0.2814 0.0
H422 H 0.46172 0.17872 0.01667 0.0
H423 H 0.38893 0.24666 0.418 0.0
O424 O 0.49738 0.20675 0.42345 0.0
H425 H 0.26403 0.07237 0.39006 0.0
H426 H 0.54468 0.04932 0.50414 0.0
H427 H 0.52363 0.06062 0.2955 0.0
H428 H 0.36213 0.07777 0.34879 0.0
H429 H 0.46374 0.10564 0.45817 0.0
O430 O 0.37087 0.29649 0.23024 0.0
H431 H 0.4358 0.16178 0.12109 0.0
H432 H 0.42229 0.34578 0.14674 0.0
H433 H 0.61137 0.0201 0.33404 0.0
H434 H 0.29761 0.23771 0.47306 0.0
H435 H 0.62669 0.0133 0.44133 0.0
H436 H 0.22983 0.15371 0.45214 0.0
O437 O 0.54383 0.17062 0.30247 0.0
H438 H 0.5043 0.44566 0.27281 0.0
H439 H 0.55262 0.26518 0.16336 0.0
H440 H 0.61081 0.35651 0.14705 0.0
H441 H 0.5831 0.44918 0.19815 0.0
H442 H 0.44606 0.35341 0.28759 0.0
H443 H 0.43142 0.36487 0.0422 0.0
H444 H 0.45123 0.28091 0.97634 0.0
O445 O 0.50961 0.17737 0.21319 0.0
C446 C 0.38661 0.11834 0.24455 0.0
C447 C 0.45233 0.21548 0.04501 0.0
C448 C 0.43489 0.31993 0.05916 0.0
N449 N 0.43492 0.25167 0.14007 0.0
C450 C 0.44129 0.20551 0.10378 0.0
C451 C 0.42921 0.30851 0.11831 0.0
C452 C 0.44706 0.27296 0.02236 0.0
C453 C 0.36584 0.20542 0.41698 0.0
N454 N 0.38684 0.15851 0.38592 0.0
C455 C 0.31109 0.20272 0.44463 0.0
C456 C 0.27371 0.15501 0.43431 0.0
C457 C 0.29301 0.10917 0.3997 0.0
C458 C 0.3499 0.11156 0.3769 0.0
C459 C 0.54347 0.05494 0.45823 0.0
C460 C 0.5308 0.06246 0.34131 0.0
C461 C 0.4964 0.08497 0.43358 0.0
N462 N 0.4931 0.09184 0.37642 0.0
C463 C 0.58005 0.03624 0.36369 0.0
C464 C 0.5881 0.0338 0.423 0.0
C465 C 0.5501 0.1587 0.2484 0.0
C466 C 0.51447 0.40633 0.24829 0.0
C467 C 0.54261 0.30408 0.18873 0.0
C468 C 0.57501 0.35611 0.17827 0.0
C469 C 0.55938 0.40804 0.20689 0.0
N470 N 0.49517 0.30419 0.22569 0.0
C471 C 0.48258 0.35365 0.25731 0.0
Co472 Co 0.65164 0.96754 0.84677 0.0
Co473 Co 0.7242 0.94664 0.72083 0.0
O474 O 0.72416 0.94689 0.80835 0.0
C475 C 0.73761 0.01202 0.95053 0.0
O476 O 0.78789 1.00478 0.92303 0.0
C477 C 0.77201 0.82717 0.75059 0.0
O478 O 0.7225 0.81671 0.77863 0.0
O479 O 0.65526 0.88714 0.71319 0.0
O480 O 0.60689 0.91395 0.7904 0.0
H481 H 0.78537 0.84734 0.54098 0.0
H482 H 0.74676 0.90964 0.90994 0.0
O483 O 0.6885 0.01026 0.92104 0.0
H484 H 0.59363 0.75842 0.92029 0.0
H485 H 0.51242 0.10393 0.94694 0.0
H486 H 0.55175 0.98981 0.77613 0.0
H487 H 0.5771 0.85131 0.86737 0.0
H488 H 0.58321 0.01679 0.95259 0.0
O489 O 0.78173 0.87817 0.72735 0.0
H490 H 0.73624 0.84954 0.63544 0.0
H491 H 0.73192 0.03893 0.62892 0.0
H492 H 0.498 0.07164 0.77028 0.0
H493 H 0.76203 0.82218 0.97012 0.0
H494 H 0.46893 0.13022 0.86026 0.0
H495 H 0.68654 0.74249 0.97066 0.0
O496 O 0.65079 0.04697 0.80026 0.0
H497 H 0.91952 0.02499 0.65102 0.0
H498 H 0.75109 0.06495 0.7794 0.0
H499 H 0.82123 0.14532 0.75719 0.0
H500 H 0.9042 0.12691 0.68922 0.0
H501 H 0.84601 0.94687 0.67138 0.0
H502 H 0.77523 0.03862 0.53324 0.0
H503 H 0.8061 0.94305 0.48802 0.0
O504 O 0.66325 0.0173 0.71043 0.0
C505 C 0.60944 0.88241 0.74535 0.0
C506 C 0.77183 0.8896 0.55869 0.0
C507 C 0.76666 0.99674 0.55417 0.0
N508 N 0.73214 0.94436 0.63808 0.0
C509 C 0.74411 0.89107 0.61255 0.0
C510 C 0.74074 0.99666 0.60862 0.0
C511 C 0.78362 0.94307 0.52941 0.0
C512 C 0.70955 0.88171 0.91843 0.0
N513 N 0.65642 0.89326 0.89312 0.0
C514 C 0.71968 0.82982 0.95027 0.0
C515 C 0.67741 0.78523 0.95073 0.0
C516 C 0.62541 0.794 0.92126 0.0
C517 C 0.61577 0.8481 0.89223 0.0
C518 C 0.52368 0.07632 0.91184 0.0
C519 C 0.5459 0.01087 0.81703 0.0
C520 C 0.56391 0.02885 0.91381 0.0
N521 N 0.5746 0.99531 0.8669 0.0
C522 C 0.51355 0.06155 0.81239 0.0
C523 C 0.49796 0.09214 0.86116 0.0
C524 C 0.64166 0.05551 0.74622 0.0
C525 C 0.88205 0.03433 0.67866 0.0
C526 C 0.78629 0.05617 0.74977 0.0
C527 C 0.82666 0.10191 0.73785 0.0
C528 C 0.87352 0.09142 0.70018 0.0
N529 N 0.79093 1.0023 0.72312 0.0
C530 C 0.84055 0.98986 0.69133 0.0
Co531 Co 0.95838 0.36475 0.13135 0.0
Co532 Co 0.93801 0.28282 0.25199 0.0
O533 O 0.93895 0.29048 0.16804 0.0
C534 C 0.99673 0.27112 0.03393 0.0
O535 O 0.98628 0.22335 0.06574 0.0
C536 C 0.81525 0.2454 0.22038 0.0
O537 O 0.80529 0.29905 0.19953 0.0
O538 O 0.88608 0.35746 0.26442 0.0
O539 O 0.91962 0.41596 0.19473 0.0
H540 H 0.81933 0.23987 0.42891 0.0
H541 H 0.88853 0.27078 0.07423 0.0
O542 O 0.99317 0.32356 0.05716 0.0
H543 H 0.75726 0.44354 0.07872 0.0
H544 H 0.02395 0.48981 0.97208 0.0
H545 H 0.01531 0.4664 0.18244 0.0
H546 H 0.85878 0.45097 0.11495 0.0
H547 H 0.93946 0.44099 0.02429 0.0
O548 O 0.86422 0.23301 0.24402 0.0
H549 H 0.83926 0.28685 0.33496 0.0
H550 H 0.02055 0.24952 0.35153 0.0
H551 H 0.09558 0.51882 0.14106 0.0
H552 H 0.78869 0.26073 0.03857 0.0
H553 H 0.10675 0.52738 0.03266 0.0
H554 H 0.72035 0.34699 0.04394 0.0
O555 O 0.0399 0.36199 0.16912 0.0
H556 H 0.96162 0.06304 0.21453 0.0
H557 H 0.06757 0.24494 0.26935 0.0
H558 H 0.10989 0.1483 0.29223 0.0
H559 H 0.05717 0.05536 0.26547 0.0
H560 H 0.9169 0.16049 0.19898 0.0
H561 H 0.00263 0.19777 0.44346 0.0
H562 H 0.90125 0.19174 0.48302 0.0
O563 O 0.01595 0.33531 0.25959 0.0
C564 C 0.88528 0.40801 0.23807 0.0
C565 C 0.86393 0.24133 0.41212 0.0
C566 C 0.9665 0.21726 0.41995 0.0
N567 N 0.93129 0.26773 0.335 0.0
C568 C 0.87576 0.26835 0.35868 0.0
C569 C 0.97647 0.2448 0.36641 0.0
C570 C 0.90963 0.2145 0.44237 0.0
C571 C 0.86143 0.30986 0.07326 0.0
N572 N 0.88141 0.36297 0.09435 0.0
C573 C 0.8038 0.30339 0.05405 0.0
C574 C 0.76573 0.35163 0.05696 0.0
C575 C 0.7863 0.40584 0.07726 0.0
C576 C 0.84426 0.41045 0.09643 0.0
C577 C 0.02469 0.48247 0.01801 0.0
C578 C 0.01756 0.47098 0.13601 0.0
C579 C 0.97861 0.45212 0.04511 0.0
N580 N 0.98088 0.44 0.10158 0.0
C581 C 0.06379 0.50158 0.11196 0.0
C582 C 0.06982 0.50454 0.05203 0.0
C583 C 0.05353 0.35902 0.22255 0.0
C584 C 0.98411 0.10285 0.22869 0.0
C585 C 0.0425 0.20585 0.25859 0.0
C586 C 0.06774 0.15056 0.27097 0.0
C587 C 0.03786 0.09858 0.25664 0.0
N588 N 0.98507 0.20953 0.24137 0.0
C589 C 0.95854 0.15893 0.22085 0.0
Co590 Co 0.34358 0.02991 0.86055 0.0
Co591 Co 0.27459 0.06435 0.73752 0.0
O592 O 0.28111 0.06812 0.82181 0.0
C593 C 0.26243 0.02554 0.96827 0.0
O594 O 0.23916 0.07798 0.9574 0.0
C595 C 0.2334 0.19147 0.75256 0.0
O596 O 0.28832 0.20903 0.75624 0.0
O597 O 0.34548 0.11806 0.72773 0.0
O598 O 0.39894 0.07726 0.79956 0.0
H599 H 0.24235 0.17994 0.55763 0.0
H600 H 0.38281 0.05125 0.98222 0.0
O601 O 0.28657 0.99633 0.92563 0.0
H602 H 0.31254 0.2444 0.91011 0.0
H603 H 0.41115 0.85978 0.9867 0.0
H604 H 0.44258 0.97862 0.81412 0.0
H605 H 0.3295 0.16173 0.84395 0.0
H606 H 0.35716 0.95091 0.9724 0.0
O607 O 0.22043 0.13631 0.74529 0.0
H608 H 0.29329 0.15625 0.64704 0.0
H609 H 0.2187 0.98191 0.647 0.0
H610 H 0.50651 0.89766 0.83341 0.0
H611 H 0.35764 0.12856 0.05154 0.0
H612 H 0.49574 0.83845 0.92566 0.0
H613 H 0.32073 0.22665 0.01582 0.0
O614 O 0.33584 0.95536 0.80984 0.0
H615 H 0.08482 0.00791 0.83807 0.0
H616 H 0.25004 0.92995 0.72337 0.0
H617 H 0.18223 0.86066 0.77063 0.0
H618 H 0.0994 0.89881 0.82994 0.0
H619 H 0.15474 0.07653 0.79354 0.0
H620 H 0.15767 0.00898 0.56625 0.0
H621 H 0.16956 0.10756 0.51853 0.0
O622 O 0.33454 0.99409 0.72333 0.0
C623 C 0.39325 0.11677 0.75693 0.0
C624 C 0.23665 0.13639 0.57741 0.0
C625 C 0.19029 0.04013 0.58129 0.0
N626 N 0.25854 0.06786 0.65496 0.0
C627 C 0.26678 0.12191 0.62786 0.0
C628 C 0.22399 0.02579 0.62937 0.0
C629 C 0.19648 0.09584 0.55521 0.0
C630 C 0.36859 0.09335 0.9661 0.0
N631 N 0.35459 0.0998 0.90934 0.0
C632 C 0.35329 0.1372 0.00572 0.0
C633 C 0.33209 0.19182 0.98572 0.0
C634 C 0.32718 0.2017 0.92659 0.0
C635 C 0.33802 0.15471 0.88895 0.0
C636 C 0.42145 0.88906 0.95065 0.0
C637 C 0.44235 0.95975 0.85653 0.0
C638 C 0.39058 0.94218 0.94127 0.0
N639 N 0.40388 0.98043 0.89599 0.0
C640 C 0.47597 0.90949 0.86596 0.0
C641 C 0.46811 0.87584 0.91546 0.0
C642 C 0.35437 0.95323 0.75741 0.0
C643 C 0.12109 0.99071 0.81262 0.0
C644 C 0.21483 0.94854 0.74868 0.0
C645 C 0.17596 0.90823 0.77535 0.0
C646 C 0.12946 0.92957 0.80846 0.0
N647 N 0.20816 0.00915 0.75419 0.0
C648 C 0.16089 0.02982 0.78547 0.0
Co649 Co 0.02482 0.67644 0.13881 0.0
Co650 Co 0.05903 0.74327 0.26497 0.0
O651 O 0.05196 0.74272 0.1816 0.0
C652 C 0.99842 0.74822 0.02128 0.0
O653 O 0.02884 0.7976 0.01362 0.0
C654 C 0.17745 0.78713 0.22527 0.0
O655 O 0.18559 0.73666 0.19819 0.0
O656 O 0.11254 0.66818 0.26463 0.0
O657 O 0.07141 0.61668 0.19274 0.0
H658 H 0.06366 0.68493 0.47576 0.0
H659 H 0.0915 0.77813 0.09209 0.0
O660 O 0.98278 0.73202 0.07466 0.0
H661 H 0.22028 0.60762 0.05566 0.0
H662 H 0.94956 0.58096 0.96649 0.0
H663 H 0.94976 0.57179 0.17521 0.0
H664 H 0.12579 0.595 0.10358 0.0
H665 H 0.02668 0.63341 0.0216 0.0
O666 O 0.12992 0.79656 0.2533 0.0
H667 H 0.0793 0.66581 0.37021 0.0
H668 H 0.08256 0.84977 0.33642 0.0
H669 H 0.86007 0.54393 0.12497 0.0
H670 H 0.18262 0.79441 0.03893 0.0
H671 H 0.85941 0.54445 0.01755 0.0
H672 H 0.24857 0.70799 0.02017 0.0
O673 O 0.94996 0.67486 0.18965 0.0
H674 H 0.01024 0.95546 0.21522 0.0
H675 H 0.95046 0.77829 0.32979 0.0
H676 H 0.90039 0.87408 0.34605 0.0
H677 H 0.9329 0.9644 0.29116 0.0
H678 H 0.05821 0.8586 0.19931 0.0
H679 H 0.08443 0.87092 0.43982 0.0
H680 H 0.07219 0.78796 0.5107 0.0
O681 O 0.98482 0.68739 0.27836 0.0
C682 C 0.11061 0.62054 0.23335 0.0
C683 C 0.06831 0.72093 0.44497 0.0
C684 C 0.07964 0.82548 0.42525 0.0
N685 N 0.07054 0.75548 0.34734 0.0
C686 C 0.07234 0.70983 0.38576 0.0
C687 C 0.07845 0.8128 0.36647 0.0
C688 C 0.07292 0.7791 0.46482 0.0
C689 C 0.11654 0.73965 0.07935 0.0
N690 N 0.0975 0.68328 0.09317 0.0
C691 C 0.16997 0.74954 0.05127 0.0
C692 C 0.20702 0.70154 0.04156 0.0
C693 C 0.1907 0.64504 0.06064 0.0
C694 C 0.1356 0.63709 0.08635 0.0
C695 C 0.94589 0.58419 0.01182 0.0
C696 C 0.94763 0.57863 0.12916 0.0
C697 C 0.99151 0.6104 0.04241 0.0
N698 N 0.99093 0.60964 0.10027 0.0
C699 C 0.89741 0.55999 0.10065 0.0
C700 C 0.89653 0.56217 0.0409 0.0
C701 C 0.94458 0.66611 0.24433 0.0
C702 C 0.9966 0.9167 0.24029 0.0
C703 C 0.96243 0.81646 0.30322 0.0
C704 C 0.93482 0.87096 0.31358 0.0
C705 C 0.95321 0.92165 0.2829 0.0
N706 N 0.00801 0.81295 0.26435 0.0
C707 C 0.02321 0.8615 0.23109 0.0
Co708 Co 0.65338 0.03669 0.12286 0.0
Co709 Co 0.72834 0.07263 0.23981 0.0
O710 O 0.71551 0.07633 0.15764 0.0
C711 C 0.7402 0.02946 0.01522 0.0
O712 O 0.76905 0.07839 0.02803 0.0
C713 C 0.76815 0.20008 0.22083 0.0
O714 O 0.71315 0.21748 0.21943 0.0
O715 O 0.65434 0.12417 0.25332 0.0
O716 O 0.59713 0.07928 0.18577 0.0
H717 H 0.71308 0.08076 0.45779 0.0
H718 H 0.63887 0.06782 -0.00356 0.0
O719 O 0.70886 1.00298 0.05587 0.0
H720 H 0.67275 0.25773 0.09066 0.0
H721 H 0.57591 0.8783 0.99123 0.0
H722 H 0.55236 0.983 0.17394 0.0
H723 H 0.65032 0.16918 0.14645 0.0
H724 H 0.6329 0.96606 0.00911 0.0
O725 O 0.78126 0.14477 0.22619 0.0
H726 H 0.67385 0.09055 0.35875 0.0
H727 H 0.8454 0.07836 0.28998 0.0
H728 H 0.50403 0.89141 0.15946 0.0
H729 H 0.67361 0.15206 0.93769 0.0
H730 H 0.51089 0.83642 0.06676 0.0
H731 H 0.69141 0.24917 0.98514 0.0
O732 O 0.66368 0.96088 0.17374 0.0
H733 H 0.89597 0.99887 0.11731 0.0
H734 H 0.7649 0.95208 0.28262 0.0
H735 H 0.82685 0.87297 0.24164 0.0
H736 H 0.8926 0.8959 0.15793 0.0
H737 H 0.82947 0.07537 0.15629 0.0
H738 H 0.88724 0.08711 0.38572 0.0
H739 H 0.82198 0.09161 0.47055 0.0
O740 O 0.672 1.00037 0.259 0.0
C741 C 0.60348 0.11814 0.22801 0.0
C742 C 0.74219 0.08191 0.42095 0.0
C743 C 0.83997 0.08363 0.3808 0.0
N744 N 0.75548 0.07539 0.31896 0.0
C745 C 0.71927 0.08174 0.3652 0.0
C746 C 0.81545 0.07798 0.32641 0.0
C747 C 0.80299 0.08549 0.42847 0.0
C748 C 0.6457 0.10857 0.01682 0.0
N749 N 0.6433 0.11023 0.07535 0.0
C750 C 0.66654 0.1567 0.98372 0.0
C751 C 0.67663 0.21094 0.01026 0.0
C752 C 0.66589 0.21574 0.06907 0.0
C753 C 0.65048 0.16472 0.10091 0.0
C754 C 0.57013 0.90173 0.03085 0.0
C755 C 0.55669 0.96233 0.13235 0.0
C756 C 0.60082 0.95449 0.04109 0.0
N757 N 0.59213 0.98683 0.09068 0.0
C758 C 0.52929 0.90801 0.12497 0.0
C759 C 0.53413 0.87794 0.07342 0.0
C760 C 0.65107 0.95824 0.22782 0.0
C761 C 0.86703 0.98816 0.15338 0.0
C762 C 0.79305 0.96252 0.24604 0.0
C763 C 0.82817 0.91748 0.22306 0.0
C764 C 0.86501 0.93038 0.17607 0.0
N765 N 0.79221 0.01806 0.22105 0.0
C766 C 0.82988 0.0316 0.17631 0.0
Co767 Co 0.02492 0.34423 0.86228 0.0
Co768 Co 0.05883 0.2713 0.74031 0.0
O769 O 0.06175 0.27855 0.82456 0.0
C770 C 0.01917 0.26335 0.97194 0.0
O771 O 0.0719 0.24061 0.96453 0.0
C772 C 0.18712 0.23725 0.75273 0.0
O773 O 0.20248 0.29365 0.75366 0.0
O774 O 0.10576 0.34844 0.72869 0.0
O775 O 0.06717 0.40166 0.80056 0.0
H776 H 0.16588 0.2524 0.55509 0.0
H777 H 0.04889 0.37933 0.98297 0.0
O778 O 0.99251 0.28716 0.92785 0.0
H779 H 0.24045 0.3224 0.90177 0.0
H780 H 0.84923 0.40302 0.97095 0.0
H781 H 0.98547 0.45437 0.81536 0.0
H782 H 0.15425 0.33432 0.83987 0.0
H783 H 0.94428 0.35893 0.96919 0.0
O784 O 0.13325 0.22207 0.74785 0.0
H785 H 0.15008 0.28943 0.65144 0.0
H786 H 0.97466 0.22409 0.6532 0.0
H787 H 0.89987 0.51187 0.828 0.0
H788 H 0.13117 0.36098 0.04884 0.0
H789 H 0.82745 0.48543 0.90488 0.0
H790 H 0.22822 0.33007 0.0082 0.0
O791 O 0.94879 0.33588 0.81757 0.0
H792 H 0.03444 0.04888 0.72833 0.0
H793 H 0.95633 0.2317 0.81521 0.0
H794 H 0.91762 0.13499 0.84746 0.0
H795 H 0.95798 0.04211 0.80554 0.0
H796 H 0.07268 0.1467 0.6977 0.0
H797 H 0.98873 0.18458 0.55436 0.0
H798 H 0.08563 0.19762 0.50491 0.0
O799 O 0.98139 0.32221 0.72958 0.0
C800 C 0.10289 0.39768 0.75618 0.0
C801 C 0.12315 0.24664 0.57483 0.0
C802 C 0.02381 0.20888 0.57502 0.0
N803 N 0.06136 0.25892 0.65798 0.0
C804 C 0.11386 0.26799 0.63013 0.0
C805 C 0.01584 0.23171 0.63054 0.0
C806 C 0.07813 0.21613 0.54724 0.0
C807 C 0.09093 0.36874 0.96528 0.0
N808 N 0.09556 0.35624 0.90816 0.0
C809 C 0.1374 0.35687 0.00266 0.0
C810 C 0.19155 0.33918 0.97991 0.0
C811 C 0.19837 0.33451 0.92039 0.0
C812 C 0.14943 0.34254 0.88514 0.0
C813 C 0.8809 0.41657 0.93832 0.0
C814 C 0.9619 0.44855 0.85519 0.0
C815 C 0.93635 0.39058 0.93571 0.0
N816 N 0.97805 0.40698 0.89508 0.0
C817 C 0.90873 0.4776 0.85856 0.0
C818 C 0.86824 0.46221 0.90086 0.0
C819 C 0.94232 0.34484 0.76394 0.0
C820 C 0.01667 0.08897 0.74728 0.0
C821 C 0.97243 0.19256 0.7944 0.0
C822 C 0.95109 0.1373 0.81392 0.0
C823 C 0.97398 0.08519 0.79066 0.0
N824 N 0.01577 0.19629 0.75314 0.0
C825 C 0.03746 0.14493 0.7294 0.0
Co826 Co 0.3547 0.96828 0.1375 0.0
Co827 Co 0.27014 0.95308 0.25297 0.0
O828 O 0.28333 0.94408 0.17058 0.0
C829 C 0.26668 0.00601 0.03208 0.0
O830 O 0.21762 0.99427 0.06031 0.0
C831 C 0.22362 0.8334 0.22407 0.0
O832 O 0.27462 0.8226 0.19928 0.0
O833 O 0.33952 0.89531 0.27326 0.0
O834 O 0.40154 0.93349 0.20707 0.0
H835 H 0.28616 0.94218 0.47125 0.0
H836 H 0.27812 0.90209 0.05429 0.0
O837 O 0.31686 1.0016 0.05909 0.0
H838 H 0.41021 0.7487 0.12178 0.0
H839 H 0.48946 0.99798 0.98256 0.0
H840 H 0.45309 0.04588 0.18305 0.0
H841 H 0.42414 0.84968 0.15329 0.0
H842 H 0.42509 0.93956 0.04176 0.0
O843 O 0.21385 0.88371 0.2476 0.0
H844 H 0.32025 0.92312 0.37152 0.0
H845 H 0.15415 0.97561 0.30863 0.0
H846 H 0.51962 0.11166 0.1266 0.0
H847 H 0.27646 0.80748 0.00816 0.0
H848 H 0.53819 0.09087 0.02829 0.0
H849 H 0.33882 0.72567 0.04841 0.0
O850 O 0.34718 0.0511 0.17222 0.0
H851 H 0.1052 0.01974 0.12487 0.0
H852 H 0.24269 0.08261 0.27599 0.0
H853 H 0.19147 0.15865 0.21835 0.0
H854 H 0.12181 0.12757 0.14215 0.0
H855 H 0.165 0.94551 0.17617 0.0
H856 H 0.11563 0.98175 0.40622 0.0
H857 H 0.18154 0.96203 0.48856 0.0
O858 O 0.32963 0.02421 0.26259 0.0
C859 C 0.39185 0.89725 0.24996 0.0
C860 C 0.25755 0.94905 0.43519 0.0
C861 C 0.16199 0.97307 0.3991 0.0
N862 N 0.24371 0.95912 0.33319 0.0
C863 C 0.27819 0.94322 0.37855 0.0
C864 C 0.18509 0.97084 0.34331 0.0
C865 C 0.19887 0.96253 0.4453 0.0
C866 C 0.31298 0.8728 0.06451 0.0
N867 N 0.35657 0.88772 0.10243 0.0
C868 C 0.30871 0.81625 0.04096 0.0
C869 C 0.34407 0.77112 0.06213 0.0
C870 C 0.38542 0.78431 0.10314 0.0
C871 C 0.39244 0.84286 0.12142 0.0
C872 C 0.48059 0.0137 0.02467 0.0
C873 C 0.45743 0.03969 0.13735 0.0
C874 C 0.44243 0.97962 0.05672 0.0
N875 N 0.4279 0.99525 0.10989 0.0
C876 C 0.49662 0.07541 0.10676 0.0
C877 C 0.50607 0.06394 0.04946 0.0
C878 C 0.35089 0.06258 0.22575 0.0
C879 C 0.13617 0.03391 0.15729 0.0
C880 C 0.21424 0.06836 0.24166 0.0
C881 C 0.18481 0.1118 0.20946 0.0
C882 C 0.14574 0.09436 0.16674 0.0
N883 N 0.20957 0.00935 0.2279 0.0
C884 C 0.16931 0.99184 0.18771 0.0
Co885 Co 0.96329 0.67021 0.84462 0.0
Co886 Co 0.93499 0.73272 0.71487 0.0
O887 O 0.93389 0.73341 0.7984 0.0
C888 C 0.96491 0.72713 0.96839 0.0
O889 O 0.91553 0.69957 0.98072 0.0
C890 C 0.81526 0.77877 0.74418 0.0
O891 O 0.8014 0.72498 0.7625 0.0
O892 O 0.8812 0.65951 0.71452 0.0
O893 O 0.9256 0.60879 0.78651 0.0
H894 H 0.96347 0.66866 0.51075 0.0
H895 H 0.8696 0.75943 0.87051 0.0
O896 O 0.98552 0.72934 0.91422 0.0
H897 H 0.78438 0.56852 0.93276 0.0
H898 H 0.13432 0.61024 0.96644 0.0
H899 H 0.00151 0.55097 0.8149 0.0
H900 H 0.8887 0.57532 0.90113 0.0
H901 H 0.05981 0.67374 0.93524 0.0
O902 O 0.86556 0.78906 0.72098 0.0
H903 H 0.94052 0.65346 0.6158 0.0
H904 H 0.91214 0.83609 0.63607 0.0
H905 H 0.08311 0.48766 0.84245 0.0
H906 H 0.76379 0.75029 0.88065 0.0
H907 H 0.14812 0.51272 0.92052 0.0
H908 H 0.71897 0.65446 0.91315 0.0
O909 O 0.04031 0.67325 0.79834 0.0
H910 H 0.99261 0.94397 0.75766 0.0
H911 H 0.04968 0.75986 0.65745 0.0
H912 H 0.1086 0.85118 0.64228 0.0
H913 H 0.07788 0.94507 0.68958 0.0
H914 H 0.93637 0.85103 0.77369 0.0
H915 H 0.91994 0.85307 0.53131 0.0
H916 H 0.94789 0.76915 0.46768 0.0
O917 O 0.0056 0.67201 0.70875 0.0
C918 C 0.88652 0.61147 0.7454 0.0
C919 C 0.95278 0.70576 0.53805 0.0
C920 C 0.92736 0.809 0.54934 0.0
N921 N 0.93132 0.74291 0.63185 0.0
C922 C 0.94243 0.69665 0.59702 0.0
C923 C 0.92198 0.79865 0.60868 0.0
C924 C 0.94369 0.76216 0.51386 0.0
C925 C 0.8514 0.716 0.88074 0.0
N926 N 0.88607 0.66592 0.8821 0.0
C927 C 0.7909 0.71212 0.88951 0.0
C928 C 0.76606 0.65822 0.90669 0.0
C929 C 0.80246 0.60937 0.9154 0.0
C930 C 0.86188 0.61343 0.89967 0.0
C931 C 0.10173 0.5937 0.93713 0.0
C932 C 0.02307 0.55979 0.85477 0.0
C933 C 0.05433 0.6291 0.92111 0.0
N934 N 0.00985 0.60962 0.88528 0.0
C935 C 0.07204 0.52451 0.86778 0.0
C936 C 0.11013 0.53994 0.91083 0.0
C937 C 0.04419 0.65406 0.74606 0.0
C938 C 0.00569 0.90361 0.73587 0.0
C939 C 0.038 0.79956 0.68095 0.0
C940 C 0.07093 0.85148 0.67128 0.0
C941 C 0.0536 0.90415 0.69777 0.0
N942 N 0.98901 0.80018 0.7158 0.0
C943 C 0.97417 0.85069 0.74501 0.0
loop_
_geom_bond_atom_site_label_1
_geom_bond_atom_site_label_2
_geom_bond_distance
_geom_bond_site_symmetry_2
_ccdc_geom_bond_type
Co0 O2 2.143 . S
Co0 O8 2.074 . S
Co0 O11 2.093 . S
Co0 O24 2.097 . S
Co0 N41 2.151 . S
Co0 N49 2.214 . S
Co1 O2 2.160 . S
Co1 O7 2.058 . S
Co1 O17 2.057 . S
Co1 O32 2.037 . S
Co1 N36 2.145 . S
Co1 N57 2.257 . S
O2 Co0 2.143 . S
O2 Co1 2.160 . S
C3 O4 1.278 . S
C3 O11 1.224 . S
O4 C3 1.278 . S
C5 O6 1.245 . S
C5 O17 1.232 . S
O6 C5 1.245 . S
O7 Co1 2.058 . S
O7 C33 1.269 . S
O8 Co0 2.074 . S
O8 C33 1.257 . S
H9 C34 0.930 . S
H10 C40 0.930 . S
O11 Co0 2.093 . S
O11 C3 1.224 . S
H12 C44 0.929 1_655 S
H13 C46 0.930 . S
H14 C47 0.930 1_455 S
H15 C45 0.929 . S
H16 C48 0.928 1_455 S
O17 Co1 2.057 . S
O17 C5 1.232 . S
H18 C37 0.929 . S
H19 C38 0.929 . S
H20 C50 0.931 . S
H21 C42 0.929 . S
H22 C51 0.930 . S
H23 C43 0.931 . S
O24 Co0 2.097 . S
O24 C52 1.214 . S
H25 C53 0.929 . S
H26 C54 0.929 . S
H27 C55 0.930 . S
H28 C56 0.929 . S
H29 C58 0.930 . S
H30 C35 0.930 . S
H31 C39 0.930 . S
O32 Co1 2.037 . S
O32 C52 1.234 . S
C33 O7 1.269 . S
C33 O8 1.257 . S
C34 H9 0.930 . S
C34 C37 1.388 . S
C34 C39 1.418 . S
C35 H30 0.930 . S
C35 C38 1.404 . S
C35 C39 1.353 . S
N36 Co1 2.145 . S
N36 C37 1.397 . S
N36 C38 1.334 . S
C37 H18 0.929 . S
C37 C34 1.388 . S
C37 N36 1.397 . S
C38 H19 0.929 . S
C38 C35 1.404 . S
C38 N36 1.334 . S
C39 H31 0.930 . S
C39 C34 1.418 . S
C39 C35 1.353 . S
C40 H10 0.930 . S
C40 N41 1.330 . S
C40 C42 1.446 . S
N41 Co0 2.151 . S
N41 C40 1.330 . S
N41 C45 1.418 . S
C42 H21 0.929 . S
C42 C40 1.446 . S
C42 C43 1.332 . S
C43 H23 0.931 . S
C43 C42 1.332 . S
C43 C44 1.267 . S
C44 H12 0.929 1_455 S
C44 C43 1.267 . S
C44 C45 1.251 . S
C45 H15 0.929 . S
C45 N41 1.418 . S
C45 C44 1.251 . S
C46 H13 0.930 . S
C46 C48 1.406 . S
C46 C51 1.261 . S
C47 H14 0.930 1_655 S
C47 N49 1.325 1_655 S
C47 C50 1.357 . S
C48 H16 0.928 1_655 S
C48 C46 1.406 . S
C48 N49 1.261 1_655 S
N49 Co0 2.214 . S
N49 C47 1.325 1_455 S
N49 C48 1.261 1_455 S
C50 H20 0.931 . S
C50 C47 1.357 . S
C50 C51 1.312 . S
C51 H22 0.930 . S
C51 C46 1.261 . S
C51 C50 1.312 . S
C52 O24 1.214 . S
C52 O32 1.234 . S
C53 H25 0.929 . S
C53 C56 1.391 . S
C53 C58 1.391 . S
C54 H26 0.929 . S
C54 C55 1.390 . S
C54 N57 1.391 . S
C55 H27 0.930 . S
C55 C54 1.390 . S
C55 C56 1.392 . S
C56 H28 0.929 . S
C56 C53 1.391 . S
C56 C55 1.392 . S
N57 Co1 2.257 . S
N57 C54 1.391 . S
N57 C58 1.388 . S
C58 H29 0.930 . S
C58 C53 1.391 . S
C58 N57 1.388 . S
Co59 O61 2.143 . S
Co59 O67 2.074 . S
Co59 O70 2.093 . S
Co59 O83 2.097 . S
Co59 N100 2.151 . S
Co59 N108 2.214 . S
Co60 O61 2.160 . S
Co60 O66 2.058 . S
Co60 O76 2.057 . S
Co60 O91 2.037 . S
Co60 N95 2.145 . S
Co60 N116 2.257 . S
O61 Co59 2.143 . S
O61 Co60 2.160 . S
C62 O63 1.278 . S
C62 O70 1.224 . S
O63 C62 1.278 . S
C64 O65 1.245 . S
C64 O76 1.232 . S
O65 C64 1.245 . S
O66 Co60 2.058 . S
O66 C92 1.269 . S
O67 Co59 2.074 . S
O67 C92 1.257 . S
H68 C93 0.930 . S
H69 C99 0.930 . S
O70 Co59 2.093 . S
O70 C62 1.224 . S
H71 C103 0.929 1_545 S
H72 C105 0.930 . S
H73 C106 0.930 1_565 S
H74 C104 0.929 . S
H75 C107 0.928 1_565 S
O76 Co60 2.057 . S
O76 C64 1.232 . S
H77 C96 0.929 . S
H78 C97 0.929 . S
H79 C109 0.931 . S
H80 C101 0.929 . S
H81 C110 0.930 . S
H82 C102 0.931 . S
O83 Co59 2.097 . S
O83 C111 1.214 . S
H84 C112 0.929 . S
H85 C113 0.929 . S
H86 C114 0.930 . S
H87 C115 0.929 . S
H88 C117 0.930 . S
H89 C94 0.930 . S
H90 C98 0.930 . S
O91 Co60 2.037 . S
O91 C111 1.234 . S
C92 O66 1.269 . S
C92 O67 1.257 . S
C93 H68 0.930 . S
C93 C96 1.388 . S
C93 C98 1.418 . S
C94 H89 0.930 . S
C94 C97 1.404 . S
C94 C98 1.353 . S
N95 Co60 2.145 . S
N95 C96 1.397 . S
N95 C97 1.334 . S
C96 H77 0.929 . S
C96 C93 1.388 . S
C96 N95 1.397 . S
C97 H78 0.929 . S
C97 C94 1.404 . S
C97 N95 1.334 . S
C98 H90 0.930 . S
C98 C93 1.418 . S
C98 C94 1.353 . S
C99 H69 0.930 . S
C99 N100 1.330 . S
C99 C101 1.446 . S
N100 Co59 2.151 . S
N100 C99 1.330 . S
N100 C104 1.418 . S
C101 H80 0.929 . S
C101 C99 1.446 . S
C101 C102 1.332 . S
C102 H82 0.931 . S
C102 C101 1.332 . S
C102 C103 1.267 . S
C103 H71 0.929 1_565 S
C103 C102 1.267 . S
C103 C104 1.251 . S
C104 H74 0.929 . S
C104 N100 1.418 . S
C104 C103 1.251 . S
C105 H72 0.930 . S
C105 C107 1.406 . S
C105 C110 1.261 . S
C106 H73 0.930 1_545 S
C106 N108 1.325 1_545 S
C106 C109 1.357 . S
C107 H75 0.928 1_545 S
C107 C105 1.406 . S
C107 N108 1.261 1_545 S
N108 Co59 2.214 . S
N108 C106 1.325 1_565 S
N108 C107 1.261 1_565 S
C109 H79 0.931 . S
C109 C106 1.357 . S
C109 C110 1.312 . S
C110 H81 0.930 . S
C110 C105 1.261 . S
C110 C109 1.312 . S
C111 O83 1.214 . S
C111 O91 1.234 . S
C112 H84 0.929 . S
C112 C115 1.391 . S
C112 C117 1.391 . S
C113 H85 0.929 . S
C113 C114 1.390 . S
C113 N116 1.391 . S
C114 H86 0.930 . S
C114 C113 1.390 . S
C114 C115 1.392 . S
C115 H87 0.929 . S
C115 C112 1.391 . S
C115 C114 1.392 . S
N116 Co60 2.257 . S
N116 C113 1.391 . S
N116 C117 1.388 . S
C117 H88 0.930 . S
C117 C112 1.391 . S
C117 N116 1.388 . S
Co118 O120 2.143 . S
Co118 O126 2.074 . S
Co118 O129 2.093 . S
Co118 O142 2.097 . S
Co118 N159 2.151 . S
Co118 N167 2.214 . S
Co119 O120 2.160 . S
Co119 O125 2.058 . S
Co119 O135 2.057 . S
Co119 O150 2.037 . S
Co119 N154 2.145 . S
Co119 N175 2.257 . S
O120 Co118 2.143 . S
O120 Co119 2.160 . S
C121 O122 1.278 . S
C121 O129 1.224 . S
O122 C121 1.278 . S
C123 O124 1.245 . S
C123 O135 1.232 . S
O124 C123 1.245 . S
O125 Co119 2.058 . S
O125 C151 1.269 . S
O126 Co118 2.074 . S
O126 C151 1.257 . S
H127 C152 0.930 . S
H128 C158 0.930 . S
O129 Co118 2.093 . S
O129 C121 1.224 . S
H130 C162 0.929 1_455 S
H131 C164 0.930 . S
H132 C165 0.930 1_655 S
H133 C163 0.929 . S
H134 C166 0.928 1_655 S
O135 Co119 2.057 . S
O135 C123 1.232 . S
H136 C155 0.929 . S
H137 C156 0.929 . S
H138 C168 0.931 . S
H139 C160 0.929 . S
H140 C169 0.930 . S
H141 C161 0.931 . S
O142 Co118 2.097 . S
O142 C170 1.214 . S
H143 C171 0.929 . S
H144 C172 0.929 . S
H145 C173 0.930 . S
H146 C174 0.929 . S
H147 C176 0.930 . S
H148 C153 0.930 . S
H149 C157 0.930 . S
O150 Co119 2.037 . S
O150 C170 1.234 . S
C151 O125 1.269 . S
C151 O126 1.257 . S
C152 H127 0.930 . S
C152 C155 1.388 . S
C152 C157 1.418 . S
C153 H148 0.930 . S
C153 C156 1.404 . S
C153 C157 1.353 . S
N154 Co119 2.145 . S
N154 C155 1.397 . S
N154 C156 1.334 . S
C155 H136 0.929 . S
C155 C152 1.388 . S
C155 N154 1.397 . S
C156 H137 0.929 . S
C156 C153 1.404 . S
C156 N154 1.334 . S
C157 H149 0.930 . S
C157 C152 1.418 . S
C157 C153 1.353 . S
C158 H128 0.930 . S
C158 N159 1.330 . S
C158 C160 1.446 . S
N159 Co118 2.151 . S
N159 C158 1.330 . S
N159 C163 1.418 . S
C160 H139 0.929 . S
C160 C158 1.446 . S
C160 C161 1.332 . S
C161 H141 0.931 . S
C161 C160 1.332 . S
C161 C162 1.267 . S
C162 H130 0.929 1_655 S
C162 C161 1.267 . S
C162 C163 1.251 . S
C163 H133 0.929 . S
C163 N159 1.418 . S
C163 C162 1.251 . S
C164 H131 0.930 . S
C164 C166 1.406 . S
C164 C169 1.261 . S
C165 H132 0.930 1_455 S
C165 N167 1.325 1_455 S
C165 C168 1.357 . S
C166 H134 0.928 1_455 S
C166 C164 1.406 . S
C166 N167 1.261 1_455 S
N167 Co118 2.214 . S
N167 C165 1.325 1_655 S
N167 C166 1.261 1_655 S
C168 H138 0.931 . S
C168 C165 1.357 . S
C168 C169 1.312 . S
C169 H140 0.930 . S
C169 C164 1.261 . S
C169 C168 1.312 . S
C170 O142 1.214 . S
C170 O150 1.234 . S
C171 H143 0.929 . S
C171 C174 1.391 . S
C171 C176 1.391 . S
C172 H144 0.929 . S
C172 C173 1.390 . S
C172 N175 1.391 . S
C173 H145 0.930 . S
C173 C172 1.390 . S
C173 C174 1.392 . S
C174 H146 0.929 . S
C174 C171 1.391 . S
C174 C173 1.392 . S
N175 Co119 2.257 . S
N175 C172 1.391 . S
N175 C176 1.388 . S
C176 H147 0.930 . S
C176 C171 1.391 . S
C176 N175 1.388 . S
Co177 O179 2.143 . S
Co177 O185 2.074 . S
Co177 O188 2.093 . S
Co177 O201 2.097 . S
Co177 N218 2.151 . S
Co177 N226 2.214 . S
Co178 O179 2.160 . S
Co178 O184 2.058 . S
Co178 O194 2.057 . S
Co178 O209 2.037 . S
Co178 N213 2.145 . S
Co178 N234 2.257 . S
O179 Co177 2.143 . S
O179 Co178 2.160 . S
C180 O181 1.278 . S
C180 O188 1.224 . S
O181 C180 1.278 . S
C182 O183 1.245 . S
C182 O194 1.232 . S
O183 C182 1.245 . S
O184 Co178 2.058 . S
O184 C210 1.269 . S
O185 Co177 2.074 . S
O185 C210 1.257 . S
H186 C211 0.930 . S
H187 C217 0.930 . S
O188 Co177 2.093 . S
O188 C180 1.224 . S
H189 C221 0.929 1_565 S
H190 C223 0.930 . S
H191 C224 0.930 1_545 S
H192 C222 0.929 . S
H193 C225 0.928 1_545 S
O194 Co178 2.057 . S
O194 C182 1.232 . S
H195 C214 0.929 . S
H196 C215 0.929 . S
H197 C227 0.931 . S
H198 C219 0.929 . S
H199 C228 0.930 . S
H200 C220 0.931 . S
O201 Co177 2.097 . S
O201 C229 1.214 . S
H202 C230 0.929 . S
H203 C231 0.929 . S
H204 C232 0.930 . S
H205 C233 0.929 . S
H206 C235 0.930 . S
H207 C212 0.930 . S
H208 C216 0.930 . S
O209 Co178 2.037 . S
O209 C229 1.234 . S
C210 O184 1.269 . S
C210 O185 1.257 . S
C211 H186 0.930 . S
C211 C214 1.388 . S
C211 C216 1.418 . S
C212 H207 0.930 . S
C212 C215 1.404 . S
C212 C216 1.353 . S
N213 Co178 2.145 . S
N213 C214 1.397 . S
N213 C215 1.334 . S
C214 H195 0.929 . S
C214 C211 1.388 . S
C214 N213 1.397 . S
C215 H196 0.929 . S
C215 C212 1.404 . S
C215 N213 1.334 . S
C216 H208 0.930 . S
C216 C211 1.418 . S
C216 C212 1.353 . S
C217 H187 0.930 . S
C217 N218 1.330 . S
C217 C219 1.446 . S
N218 Co177 2.151 . S
N218 C217 1.330 . S
N218 C222 1.418 . S
C219 H198 0.929 . S
C219 C217 1.446 . S
C219 C220 1.332 . S
C220 H200 0.931 . S
C220 C219 1.332 . S
C220 C221 1.267 . S
C221 H189 0.929 1_545 S
C221 C220 1.267 . S
C221 C222 1.251 . S
C222 H192 0.929 . S
C222 N218 1.418 . S
C222 C221 1.251 . S
C223 H190 0.930 . S
C223 C225 1.406 . S
C223 C228 1.261 . S
C224 H191 0.930 1_565 S
C224 N226 1.325 1_565 S
C224 C227 1.357 . S
C225 H193 0.928 1_565 S
C225 C223 1.406 . S
C225 N226 1.261 1_565 S
N226 Co177 2.214 . S
N226 C224 1.325 1_545 S
N226 C225 1.261 1_545 S
C227 H197 0.931 . S
C227 C224 1.357 . S
C227 C228 1.312 . S
C228 H199 0.930 . S
C228 C223 1.261 . S
C228 C227 1.312 . S
C229 O201 1.214 . S
C229 O209 1.234 . S
C230 H202 0.929 . S
C230 C233 1.391 . S
C230 C235 1.391 . S
C231 H203 0.929 . S
C231 C232 1.390 . S
C231 N234 1.391 . S
C232 H204 0.930 . S
C232 C231 1.390 . S
C232 C233 1.392 . S
C233 H205 0.929 . S
C233 C230 1.391 . S
C233 C232 1.392 . S
N234 Co178 2.257 . S
N234 C231 1.391 . S
N234 C235 1.388 . S
C235 H206 0.930 . S
C235 C230 1.391 . S
C235 N234 1.388 . S
Co236 O238 2.143 . S
Co236 O244 2.074 . S
Co236 O247 2.093 . S
Co236 O260 2.097 . S
Co236 N277 2.151 . S
Co236 N285 2.214 . S
Co237 O238 2.160 . S
Co237 O243 2.058 . S
Co237 O253 2.057 . S
Co237 O268 2.037 . S
Co237 N272 2.145 . S
Co237 N293 2.257 . S
O238 Co236 2.143 . S
O238 Co237 2.160 . S
C239 O240 1.278 . S
C239 O247 1.224 . S
O240 C239 1.278 . S
C241 O242 1.245 . S
C241 O253 1.232 . S
O242 C241 1.245 . S
O243 Co237 2.058 . S
O243 C269 1.269 . S
O244 Co236 2.074 . S
O244 C269 1.257 . S
H245 C270 0.930 . S
H246 C276 0.930 . S
O247 Co236 2.093 . S
O247 C239 1.224 . S
H248 C280 0.929 1_655 S
H249 C282 0.930 . S
H250 C283 0.930 1_455 S
H251 C281 0.929 . S
H252 C284 0.928 1_455 S
O253 Co237 2.057 . S
O253 C241 1.232 . S
H254 C273 0.929 . S
H255 C274 0.929 . S
H256 C286 0.931 . S
H257 C278 0.929 . S
H258 C287 0.930 . S
H259 C279 0.931 . S
O260 Co236 2.097 . S
O260 C288 1.214 . S
H261 C289 0.929 . S
H262 C290 0.929 . S
H263 C291 0.930 . S
H264 C292 0.929 . S
H265 C294 0.930 . S
H266 C271 0.930 . S
H267 C275 0.930 . S
O268 Co237 2.037 . S
O268 C288 1.234 . S
C269 O243 1.269 . S
C269 O244 1.257 . S
C270 H245 0.930 . S
C270 C273 1.388 . S
C270 C275 1.418 . S
C271 H266 0.930 . S
C271 C274 1.404 . S
C271 C275 1.353 . S
N272 Co237 2.145 . S
N272 C273 1.397 . S
N272 C274 1.334 . S
C273 H254 0.929 . S
C273 C270 1.388 . S
C273 N272 1.397 . S
C274 H255 0.929 . S
C274 C271 1.404 . S
C274 N272 1.334 . S
C275 H267 0.930 . S
C275 C270 1.418 . S
C275 C271 1.353 . S
C276 H246 0.930 . S
C276 N277 1.330 . S
C276 C278 1.446 . S
N277 Co236 2.151 . S
N277 C276 1.330 . S
N277 C281 1.418 . S
C278 H257 0.929 . S
C278 C276 1.446 . S
C278 C279 1.332 . S
C279 H259 0.931 . S
C279 C278 1.332 . S
C279 C280 1.267 . S
C280 H248 0.929 1_455 S
C280 C279 1.267 . S
C280 C281 1.251 . S
C281 H251 0.929 . S
C281 N277 1.418 . S
C281 C280 1.251 . S
C282 H249 0.930 . S
C282 C284 1.406 . S
C282 C287 1.261 . S
C283 H250 0.930 1_655 S
C283 N285 1.325 1_655 S
C283 C286 1.357 . S
C284 H252 0.928 1_655 S
C284 C282 1.406 . S
C284 N285 1.261 1_655 S
N285 Co236 2.214 . S
N285 C283 1.325 1_455 S
N285 C284 1.261 1_455 S
C286 H256 0.931 . S
C286 C283 1.357 . S
C286 C287 1.312 . S
C287 H258 0.930 . S
C287 C282 1.261 . S
C287 C286 1.312 . S
C288 O260 1.214 . S
C288 O268 1.234 . S
C289 H261 0.929 . S
C289 C292 1.391 . S
C289 C294 1.391 . S
C290 H262 0.929 . S
C290 C291 1.390 . S
C290 N293 1.391 . S
C291 H263 0.930 . S
C291 C290 1.390 . S
C291 C292 1.392 . S
C292 H264 0.929 . S
C292 C289 1.391 . S
C292 C291 1.392 . S
N293 Co237 2.257 . S
N293 C290 1.391 . S
N293 C294 1.388 . S
C294 H265 0.930 . S
C294 C289 1.391 . S
C294 N293 1.388 . S
Co295 O297 2.143 . S
Co295 O303 2.074 . S
Co295 O306 2.093 . S
Co295 O319 2.097 . S
Co295 N336 2.151 . S
Co295 N344 2.214 . S
Co296 O297 2.160 . S
Co296 O302 2.058 . S
Co296 O312 2.057 . S
Co296 O327 2.037 . S
Co296 N331 2.145 . S
Co296 N352 2.257 . S
O297 Co295 2.143 . S
O297 Co296 2.160 . S
C298 O299 1.278 . S
C298 O306 1.224 . S
O299 C298 1.278 . S
C300 O301 1.245 . S
C300 O312 1.232 . S
O301 C300 1.245 . S
O302 Co296 2.058 . S
O302 C328 1.269 . S
O303 Co295 2.074 . S
O303 C328 1.257 . S
H304 C329 0.930 . S
H305 C335 0.930 . S
O306 Co295 2.093 . S
O306 C298 1.224 . S
H307 C339 0.929 1_545 S
H308 C341 0.930 . S
H309 C342 0.930 1_565 S
H310 C340 0.929 . S
H311 C343 0.928 1_565 S
O312 Co296 2.057 . S
O312 C300 1.232 . S
H313 C332 0.929 . S
H314 C333 0.929 . S
H315 C345 0.931 . S
H316 C337 0.929 . S
H317 C346 0.930 . S
H318 C338 0.931 . S
O319 Co295 2.097 . S
O319 C347 1.214 . S
H320 C348 0.929 . S
H321 C349 0.929 . S
H322 C350 0.930 . S
H323 C351 0.929 . S
H324 C353 0.930 . S
H325 C330 0.930 . S
H326 C334 0.930 . S
O327 Co296 2.037 . S
O327 C347 1.234 . S
C328 O302 1.269 . S
C328 O303 1.257 . S
C329 H304 0.930 . S
C329 C332 1.388 . S
C329 C334 1.418 . S
C330 H325 0.930 . S
C330 C333 1.404 . S
C330 C334 1.353 . S
N331 Co296 2.145 . S
N331 C332 1.397 . S
N331 C333 1.334 . S
C332 H313 0.929 . S
C332 C329 1.388 . S
C332 N331 1.397 . S
C333 H314 0.929 . S
C333 C330 1.404 . S
C333 N331 1.334 . S
C334 H326 0.930 . S
C334 C329 1.418 . S
C334 C330 1.353 . S
C335 H305 0.930 . S
C335 N336 1.330 . S
C335 C337 1.446 . S
N336 Co295 2.151 . S
N336 C335 1.330 . S
N336 C340 1.418 . S
C337 H316 0.929 . S
C337 C335 1.446 . S
C337 C338 1.332 . S
C338 H318 0.931 . S
C338 C337 1.332 . S
C338 C339 1.267 . S
C339 H307 0.929 1_565 S
C339 C338 1.267 . S
C339 C340 1.251 . S
C340 H310 0.929 . S
C340 N336 1.418 . S
C340 C339 1.251 . S
C341 H308 0.930 . S
C341 C343 1.406 . S
C341 C346 1.261 . S
C342 H309 0.930 1_545 S
C342 N344 1.325 1_545 S
C342 C345 1.357 . S
C343 H311 0.928 1_545 S
C343 C341 1.406 . S
C343 N344 1.261 1_545 S
N344 Co295 2.214 . S
N344 C342 1.325 1_565 S
N344 C343 1.261 1_565 S
C345 H315 0.931 . S
C345 C342 1.357 . S
C345 C346 1.312 . S
C346 H317 0.930 . S
C346 C341 1.261 . S
C346 C345 1.312 . S
C347 O319 1.214 . S
C347 O327 1.234 . S
C348 H320 0.929 . S
C348 C351 1.391 . S
C348 C353 1.391 . S
C349 H321 0.929 . S
C349 C350 1.390 . S
C349 N352 1.391 . S
C350 H322 0.930 . S
C350 C349 1.390 . S
C350 C351 1.392 . S
C351 H323 0.929 . S
C351 C348 1.391 . S
C351 C350 1.392 . S
N352 Co296 2.257 . S
N352 C349 1.391 . S
N352 C353 1.388 . S
C353 H324 0.930 . S
C353 C348 1.391 . S
C353 N352 1.388 . S
Co354 O356 2.143 . S
Co354 O362 2.074 . S
Co354 O365 2.093 . S
Co354 O378 2.097 . S
Co354 N395 2.151 . S
Co354 N403 2.214 . S
Co355 O356 2.160 . S
Co355 O361 2.058 . S
Co355 O371 2.057 . S
Co355 O386 2.037 . S
Co355 N390 2.145 . S
Co355 N411 2.257 . S
O356 Co354 2.143 . S
O356 Co355 2.160 . S
C357 O358 1.278 . S
C357 O365 1.224 . S
O358 C357 1.278 . S
C359 O360 1.245 . S
C359 O371 1.232 . S
O360 C359 1.245 . S
O361 Co355 2.058 . S
O361 C387 1.269 . S
O362 Co354 2.074 . S
O362 C387 1.257 . S
H363 C388 0.930 . S
H364 C394 0.930 . S
O365 Co354 2.093 . S
O365 C357 1.224 . S
H366 C398 0.929 1_455 S
H367 C400 0.930 . S
H368 C401 0.930 1_655 S
H369 C399 0.929 . S
H370 C402 0.928 1_655 S
O371 Co355 2.057 . S
O371 C359 1.232 . S
H372 C391 0.929 . S
H373 C392 0.929 . S
H374 C404 0.931 . S
H375 C396 0.929 . S
H376 C405 0.930 . S
H377 C397 0.931 . S
O378 Co354 2.097 . S
O378 C406 1.214 . S
H379 C407 0.929 . S
H380 C408 0.929 . S
H381 C409 0.930 . S
H382 C410 0.929 . S
H383 C412 0.930 . S
H384 C389 0.930 . S
H385 C393 0.930 . S
O386 Co355 2.037 . S
O386 C406 1.234 . S
C387 O361 1.269 . S
C387 O362 1.257 . S
C388 H363 0.930 . S
C388 C391 1.388 . S
C388 C393 1.418 . S
C389 H384 0.930 . S
C389 C392 1.404 . S
C389 C393 1.353 . S
N390 Co355 2.145 . S
N390 C391 1.397 . S
N390 C392 1.334 . S
C391 H372 0.929 . S
C391 C388 1.388 . S
C391 N390 1.397 . S
C392 H373 0.929 . S
C392 C389 1.404 . S
C392 N390 1.334 . S
C393 H385 0.930 . S
C393 C388 1.418 . S
C393 C389 1.353 . S
C394 H364 0.930 . S
C394 N395 1.330 . S
C394 C396 1.446 . S
N395 Co354 2.151 . S
N395 C394 1.330 . S
N395 C399 1.418 . S
C396 H375 0.929 . S
C396 C394 1.446 . S
C396 C397 1.332 . S
C397 H377 0.931 . S
C397 C396 1.332 . S
C397 C398 1.267 . S
C398 H366 0.929 1_655 S
C398 C397 1.267 . S
C398 C399 1.251 . S
C399 H369 0.929 . S
C399 N395 1.418 . S
C399 C398 1.251 . S
C400 H367 0.930 . S
C400 C402 1.406 . S
C400 C405 1.261 . S
C401 H368 0.930 1_455 S
C401 N403 1.325 1_455 S
C401 C404 1.357 . S
C402 H370 0.928 1_455 S
C402 C400 1.406 . S
C402 N403 1.261 1_455 S
N403 Co354 2.214 . S
N403 C401 1.325 1_655 S
N403 C402 1.261 1_655 S
C404 H374 0.931 . S
C404 C401 1.357 . S
C404 C405 1.312 . S
C405 H376 0.930 . S
C405 C400 1.261 . S
C405 C404 1.312 . S
C406 O378 1.214 . S
C406 O386 1.234 . S
C407 H379 0.929 . S
C407 C410 1.391 . S
C407 C412 1.391 . S
C408 H380 0.929 . S
C408 C409 1.390 . S
C408 N411 1.391 . S
C409 H381 0.930 . S
C409 C408 1.390 . S
C409 C410 1.392 . S
C410 H382 0.929 . S
C410 C407 1.391 . S
C410 C409 1.392 . S
N411 Co355 2.257 . S
N411 C408 1.391 . S
N411 C412 1.388 . S
C412 H383 0.930 . S
C412 C407 1.391 . S
C412 N411 1.388 . S
Co413 O415 2.143 . S
Co413 O421 2.074 . S
Co413 O424 2.093 . S
Co413 O437 2.097 . S
Co413 N454 2.151 . S
Co413 N462 2.214 . S
Co414 O415 2.160 . S
Co414 O420 2.058 . S
Co414 O430 2.057 . S
Co414 O445 2.037 . S
Co414 N449 2.145 . S
Co414 N470 2.257 . S
O415 Co413 2.143 . S
O415 Co414 2.160 . S
C416 O417 1.278 . S
C416 O424 1.224 . S
O417 C416 1.278 . S
C418 O419 1.245 . S
C418 O430 1.232 . S
O419 C418 1.245 . S
O420 Co414 2.058 . S
O420 C446 1.269 . S
O421 Co413 2.074 . S
O421 C446 1.257 . S
H422 C447 0.930 . S
H423 C453 0.930 . S
O424 Co413 2.093 . S
O424 C416 1.224 . S
H425 C457 0.929 1_565 S
H426 C459 0.930 . S
H427 C460 0.930 1_545 S
H428 C458 0.929 . S
H429 C461 0.928 1_545 S
O430 Co414 2.057 . S
O430 C418 1.232 . S
H431 C450 0.929 . S
H432 C451 0.929 . S
H433 C463 0.931 . S
H434 C455 0.929 . S
H435 C464 0.930 . S
H436 C456 0.931 . S
O437 Co413 2.097 . S
O437 C465 1.214 . S
H438 C466 0.929 . S
H439 C467 0.929 . S
H440 C468 0.930 . S
H441 C469 0.929 . S
H442 C471 0.930 . S
H443 C448 0.930 . S
H444 C452 0.930 . S
O445 Co414 2.037 . S
O445 C465 1.234 . S
C446 O420 1.269 . S
C446 O421 1.257 . S
C447 H422 0.930 . S
C447 C450 1.388 . S
C447 C452 1.418 . S
C448 H443 0.930 . S
C448 C451 1.404 . S
C448 C452 1.353 . S
N449 Co414 2.145 . S
N449 C450 1.397 . S
N449 C451 1.334 . S
C450 H431 0.929 . S
C450 C447 1.388 . S
C450 N449 1.397 . S
C451 H432 0.929 . S
C451 C448 1.404 . S
C451 N449 1.334 . S
C452 H444 0.930 . S
C452 C447 1.418 . S
C452 C448 1.353 . S
C453 H423 0.930 . S
C453 N454 1.330 . S
C453 C455 1.446 . S
N454 Co413 2.151 . S
N454 C453 1.330 . S
N454 C458 1.418 . S
C455 H434 0.929 . S
C455 C453 1.446 . S
C455 C456 1.332 . S
C456 H436 0.931 . S
C456 C455 1.332 . S
C456 C457 1.267 . S
C457 H425 0.929 1_545 S
C457 C456 1.267 . S
C457 C458 1.251 . S
C458 H428 0.929 . S
C458 N454 1.418 . S
C458 C457 1.251 . S
C459 H426 0.930 . S
C459 C461 1.406 . S
C459 C464 1.261 . S
C460 H427 0.930 1_565 S
C460 N462 1.325 1_565 S
C460 C463 1.357 . S
C461 H429 0.928 1_565 S
C461 C459 1.406 . S
C461 N462 1.261 1_565 S
N462 Co413 2.214 . S
N462 C460 1.325 1_545 S
N462 C461 1.261 1_545 S
C463 H433 0.931 . S
C463 C460 1.357 . S
C463 C464 1.312 . S
C464 H435 0.930 . S
C464 C459 1.261 . S
C464 C463 1.312 . S
C465 O437 1.214 . S
C465 O445 1.234 . S
C466 H438 0.929 . S
C466 C469 1.391 . S
C466 C471 1.391 . S
C467 H439 0.929 . S
C467 C468 1.390 . S
C467 N470 1.391 . S
C468 H440 0.930 . S
C468 C467 1.390 . S
C468 C469 1.392 . S
C469 H441 0.929 . S
C469 C466 1.391 . S
C469 C468 1.392 . S
N470 Co414 2.257 . S
N470 C467 1.391 . S
N470 C471 1.388 . S
C471 H442 0.930 . S
C471 C466 1.391 . S
C471 N470 1.388 . S
Co472 O474 2.143 . S
Co472 O480 2.074 . S
Co472 O483 2.093 1_565 S
Co472 O496 2.097 1_565 S
Co472 N513 2.151 . S
Co472 N521 2.214 . S
Co473 O474 2.160 . S
Co473 O479 2.058 . S
Co473 O489 2.057 . S
Co473 O504 2.037 1_565 S
Co473 N508 2.145 . S
Co473 N529 2.257 . S
O474 Co472 2.143 . S
O474 Co473 2.160 . S
C475 O476 1.276 1_545 S
C475 O483 1.224 . S
O476 C475 1.276 1_565 S
C477 O478 1.245 . S
C477 O489 1.232 . S
O478 C477 1.245 . S
O479 Co473 2.058 . S
O479 C505 1.269 . S
O480 Co472 2.074 . S
O480 C505 1.257 . S
H481 C506 0.930 . S
H482 C512 0.930 . S
O483 Co472 2.093 1_545 S
O483 C475 1.224 . S
H484 C516 0.929 . S
H485 C518 0.930 . S
H486 C519 0.930 . S
H487 C517 0.929 . S
H488 C520 0.928 . S
O489 Co473 2.057 . S
O489 C477 1.232 . S
H490 C509 0.929 . S
H491 C510 0.929 . S
H492 C522 0.931 . S
H493 C514 0.929 . S
H494 C523 0.930 . S
H495 C515 0.931 1_554 S
O496 Co472 2.097 1_545 S
O496 C524 1.214 . S
H497 C525 0.929 . S
H498 C526 0.929 . S
H499 C527 0.930 . S
H500 C528 0.929 . S
H501 C530 0.930 . S
H502 C507 0.930 . S
H503 C511 0.930 . S
O504 Co473 2.037 1_545 S
O504 C524 1.234 . S
C505 O479 1.269 . S
C505 O480 1.257 . S
C506 H481 0.930 . S
C506 C509 1.388 . S
C506 C511 1.418 . S
C507 H502 0.930 . S
C507 C510 1.404 . S
C507 C511 1.353 . S
N508 Co473 2.145 . S
N508 C509 1.397 . S
N508 C510 1.334 . S
C509 H490 0.929 . S
C509 C506 1.388 . S
C509 N508 1.397 . S
C510 H491 0.929 . S
C510 C507 1.404 . S
C510 N508 1.334 . S
C511 H503 0.930 . S
C511 C506 1.418 . S
C511 C507 1.353 . S
C512 H482 0.930 . S
C512 N513 1.330 . S
C512 C514 1.446 1_556 S
N513 Co472 2.151 . S
N513 C512 1.330 . S
N513 C517 1.418 . S
C514 H493 0.929 . S
C514 C512 1.446 1_554 S
C514 C515 1.332 1_554 S
C515 H495 0.931 1_556 S
C515 C514 1.332 1_556 S
C515 C516 1.267 . S
C516 H484 0.929 . S
C516 C515 1.267 . S
C516 C517 1.251 . S
C517 H487 0.929 . S
C517 N513 1.418 . S
C517 C516 1.251 . S
C518 H485 0.930 . S
C518 C520 1.406 1_545 S
C518 C523 1.261 . S
C519 H486 0.930 . S
C519 N521 1.325 1_545 S
C519 C522 1.357 . S
C520 H488 0.928 . S
C520 C518 1.406 1_565 S
C520 N521 1.261 . S
N521 Co472 2.214 . S
N521 C519 1.325 1_565 S
N521 C520 1.261 . S
C522 H492 0.931 . S
C522 C519 1.357 . S
C522 C523 1.312 . S
C523 H494 0.930 . S
C523 C518 1.261 . S
C523 C522 1.312 . S
C524 O496 1.214 . S
C524 O504 1.234 . S
C525 H497 0.929 . S
C525 C528 1.391 . S
C525 C530 1.391 1_545 S
C526 H498 0.929 . S
C526 C527 1.390 . S
C526 N529 1.391 1_545 S
C527 H499 0.930 . S
C527 C526 1.390 . S
C527 C528 1.392 . S
C528 H500 0.929 . S
C528 C525 1.391 . S
C528 C527 1.392 . S
N529 Co473 2.257 . S
N529 C526 1.391 1_565 S
N529 C530 1.388 . S
C530 H501 0.930 . S
C530 C525 1.391 1_565 S
C530 N529 1.388 . S
Co531 O533 2.143 . S
Co531 O539 2.074 . S
Co531 O542 2.093 1_655 S
Co531 O555 2.097 1_655 S
Co531 N572 2.151 . S
Co531 N580 2.214 . S
Co532 O533 2.160 . S
Co532 O538 2.058 . S
Co532 O548 2.057 . S
Co532 O563 2.037 1_655 S
Co532 N567 2.145 . S
Co532 N588 2.257 . S
O533 Co531 2.143 . S
O533 Co532 2.160 . S
C534 O535 1.276 1_455 S
C534 O542 1.224 . S
O535 C534 1.276 1_655 S
C536 O537 1.245 . S
C536 O548 1.232 . S
O537 C536 1.245 . S
O538 Co532 2.058 . S
O538 C564 1.269 . S
O539 Co531 2.074 . S
O539 C564 1.257 . S
H540 C565 0.930 . S
H541 C571 0.930 . S
O542 Co531 2.093 1_455 S
O542 C534 1.224 . S
H543 C575 0.929 . S
H544 C577 0.930 . S
H545 C578 0.930 . S
H546 C576 0.929 . S
H547 C579 0.928 . S
O548 Co532 2.057 . S
O548 C536 1.232 . S
H549 C568 0.929 . S
H550 C569 0.929 . S
H551 C581 0.931 . S
H552 C573 0.929 . S
H553 C582 0.930 . S
H554 C574 0.931 1_556 S
O555 Co531 2.097 1_455 S
O555 C583 1.214 . S
H556 C584 0.929 . S
H557 C585 0.929 . S
H558 C586 0.930 . S
H559 C587 0.929 . S
H560 C589 0.930 . S
H561 C566 0.930 . S
H562 C570 0.930 . S
O563 Co532 2.037 1_455 S
O563 C583 1.234 . S
C564 O538 1.269 . S
C564 O539 1.257 . S
C565 H540 0.930 . S
C565 C568 1.388 . S
C565 C570 1.418 . S
C566 H561 0.930 . S
C566 C569 1.404 . S
C566 C570 1.353 . S
N567 Co532 2.145 . S
N567 C568 1.397 . S
N567 C569 1.334 . S
C568 H549 0.929 . S
C568 C565 1.388 . S
C568 N567 1.397 . S
C569 H550 0.929 . S
C569 C566 1.404 . S
C569 N567 1.334 . S
C570 H562 0.930 . S
C570 C565 1.418 . S
C570 C566 1.353 . S
C571 H541 0.930 . S
C571 N572 1.330 . S
C571 C573 1.446 1_554 S
N572 Co531 2.151 . S
N572 C571 1.330 . S
N572 C576 1.418 . S
C573 H552 0.929 . S
C573 C571 1.446 1_556 S
C573 C574 1.332 1_556 S
C574 H554 0.931 1_554 S
C574 C573 1.332 1_554 S
C574 C575 1.267 . S
C575 H543 0.929 . S
C575 C574 1.267 . S
C575 C576 1.251 . S
C576 H546 0.929 . S
C576 N572 1.418 . S
C576 C575 1.251 . S
C577 H544 0.930 . S
C577 C579 1.406 1_455 S
C577 C582 1.261 . S
C578 H545 0.930 . S
C578 N580 1.325 1_455 S
C578 C581 1.357 . S
C579 H547 0.928 . S
C579 C577 1.406 1_655 S
C579 N580 1.261 . S
N580 Co531 2.214 . S
N580 C578 1.325 1_655 S
N580 C579 1.261 . S
C581 H551 0.931 . S
C581 C578 1.357 . S
C581 C582 1.312 . S
C582 H553 0.930 . S
C582 C577 1.261 . S
C582 C581 1.312 . S
C583 O555 1.214 . S
C583 O563 1.234 . S
C584 H556 0.929 . S
C584 C587 1.391 . S
C584 C589 1.391 1_455 S
C585 H557 0.929 . S
C585 C586 1.390 . S
C585 N588 1.391 1_455 S
C586 H558 0.930 . S
C586 C585 1.390 . S
C586 C587 1.392 . S
C587 H559 0.929 . S
C587 C584 1.391 . S
C587 C586 1.392 . S
N588 Co532 2.257 . S
N588 C585 1.391 1_655 S
N588 C589 1.388 . S
C589 H560 0.930 . S
C589 C584 1.391 1_655 S
C589 N588 1.388 . S
Co590 O592 2.143 . S
Co590 O598 2.074 . S
Co590 O601 2.093 1_545 S
Co590 O614 2.097 1_545 S
Co590 N631 2.151 . S
Co590 N639 2.214 . S
Co591 O592 2.160 . S
Co591 O597 2.058 . S
Co591 O607 2.057 . S
Co591 O622 2.037 1_545 S
Co591 N626 2.145 . S
Co591 N647 2.257 . S
O592 Co590 2.143 . S
O592 Co591 2.160 . S
C593 O594 1.276 1_565 S
C593 O601 1.224 . S
O594 C593 1.276 1_545 S
C595 O596 1.245 . S
C595 O607 1.232 . S
O596 C595 1.245 . S
O597 Co591 2.058 . S
O597 C623 1.269 . S
O598 Co590 2.074 . S
O598 C623 1.257 . S
H599 C624 0.930 . S
H600 C630 0.930 . S
O601 Co590 2.093 1_565 S
O601 C593 1.224 . S
H602 C634 0.929 . S
H603 C636 0.930 . S
H604 C637 0.930 . S
H605 C635 0.929 . S
H606 C638 0.928 . S
O607 Co591 2.057 . S
O607 C595 1.232 . S
H608 C627 0.929 . S
H609 C628 0.929 . S
H610 C640 0.931 . S
H611 C632 0.929 . S
H612 C641 0.930 . S
H613 C633 0.931 1_554 S
O614 Co590 2.097 1_565 S
O614 C642 1.214 . S
H615 C643 0.929 . S
H616 C644 0.929 . S
H617 C645 0.930 . S
H618 C646 0.929 . S
H619 C648 0.930 . S
H620 C625 0.930 . S
H621 C629 0.930 . S
O622 Co591 2.037 1_565 S
O622 C642 1.234 . S
C623 O597 1.269 . S
C623 O598 1.257 . S
C624 H599 0.930 . S
C624 C627 1.388 . S
C624 C629 1.418 . S
C625 H620 0.930 . S
C625 C628 1.404 . S
C625 C629 1.353 . S
N626 Co591 2.145 . S
N626 C627 1.397 . S
N626 C628 1.334 . S
C627 H608 0.929 . S
C627 C624 1.388 . S
C627 N626 1.397 . S
C628 H609 0.929 . S
C628 C625 1.404 . S
C628 N626 1.334 . S
C629 H621 0.930 . S
C629 C624 1.418 . S
C629 C625 1.353 . S
C630 H600 0.930 . S
C630 N631 1.330 . S
C630 C632 1.446 1_556 S
N631 Co590 2.151 . S
N631 C630 1.330 . S
N631 C635 1.418 . S
C632 H611 0.929 . S
C632 C630 1.446 1_554 S
C632 C633 1.332 1_554 S
C633 H613 0.931 1_556 S
C633 C632 1.332 1_556 S
C633 C634 1.267 . S
C634 H602 0.929 . S
C634 C633 1.267 . S
C634 C635 1.251 . S
C635 H605 0.929 . S
C635 N631 1.418 . S
C635 C634 1.251 . S
C636 H603 0.930 . S
C636 C638 1.406 1_565 S
C636 C641 1.261 . S
C637 H604 0.930 . S
C637 N639 1.325 1_565 S
C637 C640 1.357 . S
C638 H606 0.928 . S
C638 C636 1.406 1_545 S
C638 N639 1.261 . S
N639 Co590 2.214 . S
N639 C637 1.325 1_545 S
N639 C638 1.261 . S
C640 H610 0.931 . S
C640 C637 1.357 . S
C640 C641 1.312 . S
C641 H612 0.930 . S
C641 C636 1.261 . S
C641 C640 1.312 . S
C642 O614 1.214 . S
C642 O622 1.234 . S
C643 H615 0.929 . S
C643 C646 1.391 . S
C643 C648 1.391 1_565 S
C644 H616 0.929 . S
C644 C645 1.390 . S
C644 N647 1.391 1_565 S
C645 H617 0.930 . S
C645 C644 1.390 . S
C645 C646 1.392 . S
C646 H618 0.929 . S
C646 C643 1.391 . S
C646 C645 1.392 . S
N647 Co591 2.257 . S
N647 C644 1.391 1_545 S
N647 C648 1.388 . S
C648 H619 0.930 . S
C648 C643 1.391 1_545 S
C648 N647 1.388 . S
Co649 O651 2.143 . S
Co649 O657 2.074 . S
Co649 O660 2.093 1_455 S
Co649 O673 2.097 1_455 S
Co649 N690 2.151 . S
Co649 N698 2.214 . S
Co650 O651 2.160 . S
Co650 O656 2.058 . S
Co650 O666 2.057 . S
Co650 O681 2.037 1_455 S
Co650 N685 2.145 . S
Co650 N706 2.257 . S
O651 Co649 2.143 . S
O651 Co650 2.160 . S
C652 O653 1.276 1_655 S
C652 O660 1.224 . S
O653 C652 1.276 1_455 S
C654 O655 1.245 . S
C654 O666 1.232 . S
O655 C654 1.245 . S
O656 Co650 2.058 . S
O656 C682 1.269 . S
O657 Co649 2.074 . S
O657 C682 1.257 . S
H658 C683 0.930 . S
H659 C689 0.930 . S
O660 Co649 2.093 1_655 S
O660 C652 1.224 . S
H661 C693 0.929 . S
H662 C695 0.930 . S
H663 C696 0.930 . S
H664 C694 0.929 . S
H665 C697 0.928 . S
O666 Co650 2.057 . S
O666 C654 1.232 . S
H667 C686 0.929 . S
H668 C687 0.929 . S
H669 C699 0.931 . S
H670 C691 0.929 . S
H671 C700 0.930 . S
H672 C692 0.931 1_556 S
O673 Co649 2.097 1_655 S
O673 C701 1.214 . S
H674 C702 0.929 . S
H675 C703 0.929 . S
H676 C704 0.930 . S
H677 C705 0.929 . S
H678 C707 0.930 . S
H679 C684 0.930 . S
H680 C688 0.930 . S
O681 Co650 2.037 1_655 S
O681 C701 1.234 . S
C682 O656 1.269 . S
C682 O657 1.257 . S
C683 H658 0.930 . S
C683 C686 1.388 . S
C683 C688 1.418 . S
C684 H679 0.930 . S
C684 C687 1.404 . S
C684 C688 1.353 . S
N685 Co650 2.145 . S
N685 C686 1.397 . S
N685 C687 1.334 . S
C686 H667 0.929 . S
C686 C683 1.388 . S
C686 N685 1.397 . S
C687 H668 0.929 . S
C687 C684 1.404 . S
C687 N685 1.334 . S
C688 H680 0.930 . S
C688 C683 1.418 . S
C688 C684 1.353 . S
C689 H659 0.930 . S
C689 N690 1.330 . S
C689 C691 1.446 1_554 S
N690 Co649 2.151 . S
N690 C689 1.330 . S
N690 C694 1.418 . S
C691 H670 0.929 . S
C691 C689 1.446 1_556 S
C691 C692 1.332 1_556 S
C692 H672 0.931 1_554 S
C692 C691 1.332 1_554 S
C692 C693 1.267 . S
C693 H661 0.929 . S
C693 C692 1.267 . S
C693 C694 1.251 . S
C694 H664 0.929 . S
C694 N690 1.418 . S
C694 C693 1.251 . S
C695 H662 0.930 . S
C695 C697 1.406 1_655 S
C695 C700 1.261 . S
C696 H663 0.930 . S
C696 N698 1.325 1_655 S
C696 C699 1.357 . S
C697 H665 0.928 . S
C697 C695 1.406 1_455 S
C697 N698 1.261 . S
N698 Co649 2.214 . S
N698 C696 1.325 1_455 S
N698 C697 1.261 . S
C699 H669 0.931 . S
C699 C696 1.357 . S
C699 C700 1.312 . S
C700 H671 0.930 . S
C700 C695 1.261 . S
C700 C699 1.312 . S
C701 O673 1.214 . S
C701 O681 1.234 . S
C702 H674 0.929 . S
C702 C705 1.391 . S
C702 C707 1.391 1_655 S
C703 H675 0.929 . S
C703 C704 1.390 . S
C703 N706 1.391 1_655 S
C704 H676 0.930 . S
C704 C703 1.390 . S
C704 C705 1.392 . S
C705 H677 0.929 . S
C705 C702 1.391 . S
C705 C704 1.392 . S
N706 Co650 2.257 . S
N706 C703 1.391 1_455 S
N706 C707 1.388 . S
C707 H678 0.930 . S
C707 C702 1.391 1_455 S
C707 N706 1.388 . S
Co708 O710 2.143 . S
Co708 O716 2.074 . S
Co708 O719 2.093 1_545 S
Co708 O732 2.097 1_545 S
Co708 N749 2.151 . S
Co708 N757 2.214 . S
Co709 O710 2.160 . S
Co709 O715 2.058 . S
Co709 O725 2.057 . S
Co709 O740 2.037 1_545 S
Co709 N744 2.145 . S
Co709 N765 2.257 . S
O710 Co708 2.143 . S
O710 Co709 2.160 . S
C711 O712 1.276 1_565 S
C711 O719 1.224 . S
O712 C711 1.276 1_545 S
C713 O714 1.245 . S
C713 O725 1.232 . S
O714 C713 1.245 . S
O715 Co709 2.058 . S
O715 C741 1.269 . S
O716 Co708 2.074 . S
O716 C741 1.257 . S
H717 C742 0.930 . S
H718 C748 0.930 . S
O719 Co708 2.093 1_565 S
O719 C711 1.224 . S
H720 C752 0.929 . S
H721 C754 0.930 . S
H722 C755 0.930 . S
H723 C753 0.929 . S
H724 C756 0.928 . S
O725 Co709 2.057 . S
O725 C713 1.232 . S
H726 C745 0.929 . S
H727 C746 0.929 . S
H728 C758 0.931 . S
H729 C750 0.929 . S
H730 C759 0.930 . S
H731 C751 0.931 1_556 S
O732 Co708 2.097 1_565 S
O732 C760 1.214 . S
H733 C761 0.929 . S
H734 C762 0.929 . S
H735 C763 0.930 . S
H736 C764 0.929 . S
H737 C766 0.930 . S
H738 C743 0.930 . S
H739 C747 0.930 . S
O740 Co709 2.037 1_565 S
O740 C760 1.234 . S
C741 O715 1.269 . S
C741 O716 1.257 . S
C742 H717 0.930 . S
C742 C745 1.388 . S
C742 C747 1.418 . S
C743 H738 0.930 . S
C743 C746 1.404 . S
C743 C747 1.353 . S
N744 Co709 2.145 . S
N744 C745 1.397 . S
N744 C746 1.334 . S
C745 H726 0.929 . S
C745 C742 1.388 . S
C745 N744 1.397 . S
C746 H727 0.929 . S
C746 C743 1.404 . S
C746 N744 1.334 . S
C747 H739 0.930 . S
C747 C742 1.418 . S
C747 C743 1.353 . S
C748 H718 0.930 . S
C748 N749 1.330 . S
C748 C750 1.446 1_554 S
N749 Co708 2.151 . S
N749 C748 1.330 . S
N749 C753 1.418 . S
C750 H729 0.929 . S
C750 C748 1.446 1_556 S
C750 C751 1.332 1_556 S
C751 H731 0.931 1_554 S
C751 C750 1.332 1_554 S
C751 C752 1.267 . S
C752 H720 0.929 . S
C752 C751 1.267 . S
C752 C753 1.251 . S
C753 H723 0.929 . S
C753 N749 1.418 . S
C753 C752 1.251 . S
C754 H721 0.930 . S
C754 C756 1.406 1_565 S
C754 C759 1.261 . S
C755 H722 0.930 . S
C755 N757 1.325 1_565 S
C755 C758 1.357 . S
C756 H724 0.928 . S
C756 C754 1.406 1_545 S
C756 N757 1.261 . S
N757 Co708 2.214 . S
N757 C755 1.325 1_545 S
N757 C756 1.261 . S
C758 H728 0.931 . S
C758 C755 1.357 . S
C758 C759 1.312 . S
C759 H730 0.930 . S
C759 C754 1.261 . S
C759 C758 1.312 . S
C760 O732 1.214 . S
C760 O740 1.234 . S
C761 H733 0.929 . S
C761 C764 1.391 . S
C761 C766 1.391 1_565 S
C762 H734 0.929 . S
C762 C763 1.390 . S
C762 N765 1.391 1_565 S
C763 H735 0.930 . S
C763 C762 1.390 . S
C763 C764 1.392 . S
C764 H736 0.929 . S
C764 C761 1.391 . S
C764 C763 1.392 . S
N765 Co709 2.257 . S
N765 C762 1.391 1_545 S
N765 C766 1.388 . S
C766 H737 0.930 . S
C766 C761 1.391 1_545 S
C766 N765 1.388 . S
Co767 O769 2.143 . S
Co767 O775 2.074 . S
Co767 O778 2.093 1_455 S
Co767 O791 2.097 1_455 S
Co767 N808 2.151 . S
Co767 N816 2.214 . S
Co768 O769 2.160 . S
Co768 O774 2.058 . S
Co768 O784 2.057 . S
Co768 O799 2.037 1_455 S
Co768 N803 2.145 . S
Co768 N824 2.257 . S
O769 Co767 2.143 . S
O769 Co768 2.160 . S
C770 O771 1.276 1_655 S
C770 O778 1.224 . S
O771 C770 1.276 1_455 S
C772 O773 1.245 . S
C772 O784 1.232 . S
O773 C772 1.245 . S
O774 Co768 2.058 . S
O774 C800 1.269 . S
O775 Co767 2.074 . S
O775 C800 1.257 . S
H776 C801 0.930 . S
H777 C807 0.930 . S
O778 Co767 2.093 1_655 S
O778 C770 1.224 . S
H779 C811 0.929 . S
H780 C813 0.930 . S
H781 C814 0.930 . S
H782 C812 0.929 . S
H783 C815 0.928 . S
O784 Co768 2.057 . S
O784 C772 1.232 . S
H785 C804 0.929 . S
H786 C805 0.929 . S
H787 C817 0.931 . S
H788 C809 0.929 . S
H789 C818 0.930 . S
H790 C810 0.931 1_554 S
O791 Co767 2.097 1_655 S
O791 C819 1.214 . S
H792 C820 0.929 . S
H793 C821 0.929 . S
H794 C822 0.930 . S
H795 C823 0.929 . S
H796 C825 0.930 . S
H797 C802 0.930 . S
H798 C806 0.930 . S
O799 Co768 2.037 1_655 S
O799 C819 1.234 . S
C800 O774 1.269 . S
C800 O775 1.257 . S
C801 H776 0.930 . S
C801 C804 1.388 . S
C801 C806 1.418 . S
C802 H797 0.930 . S
C802 C805 1.404 . S
C802 C806 1.353 . S
N803 Co768 2.145 . S
N803 C804 1.397 . S
N803 C805 1.334 . S
C804 H785 0.929 . S
C804 C801 1.388 . S
C804 N803 1.397 . S
C805 H786 0.929 . S
C805 C802 1.404 . S
C805 N803 1.334 . S
C806 H798 0.930 . S
C806 C801 1.418 . S
C806 C802 1.353 . S
C807 H777 0.930 . S
C807 N808 1.330 . S
C807 C809 1.446 1_556 S
N808 Co767 2.151 . S
N808 C807 1.330 . S
N808 C812 1.418 . S
C809 H788 0.929 . S
C809 C807 1.446 1_554 S
C809 C810 1.332 1_554 S
C810 H790 0.931 1_556 S
C810 C809 1.332 1_556 S
C810 C811 1.267 . S
C811 H779 0.929 . S
C811 C810 1.267 . S
C811 C812 1.251 . S
C812 H782 0.929 . S
C812 N808 1.418 . S
C812 C811 1.251 . S
C813 H780 0.930 . S
C813 C815 1.406 1_655 S
C813 C818 1.261 . S
C814 H781 0.930 . S
C814 N816 1.325 1_655 S
C814 C817 1.357 . S
C815 H783 0.928 . S
C815 C813 1.406 1_455 S
C815 N816 1.261 . S
N816 Co767 2.214 . S
N816 C814 1.325 1_455 S
N816 C815 1.261 . S
C817 H787 0.931 . S
C817 C814 1.357 . S
C817 C818 1.312 . S
C818 H789 0.930 . S
C818 C813 1.261 . S
C818 C817 1.312 . S
C819 O791 1.214 . S
C819 O799 1.234 . S
C820 H792 0.929 . S
C820 C823 1.391 . S
C820 C825 1.391 1_655 S
C821 H793 0.929 . S
C821 C822 1.390 . S
C821 N824 1.391 1_655 S
C822 H794 0.930 . S
C822 C821 1.390 . S
C822 C823 1.392 . S
C823 H795 0.929 . S
C823 C820 1.391 . S
C823 C822 1.392 . S
N824 Co768 2.257 . S
N824 C821 1.391 1_455 S
N824 C825 1.388 . S
C825 H796 0.930 . S
C825 C820 1.391 1_455 S
C825 N824 1.388 . S
Co826 O828 2.143 . S
Co826 O834 2.074 . S
Co826 O837 2.093 1_565 S
Co826 O850 2.097 1_565 S
Co826 N867 2.151 . S
Co826 N875 2.214 . S
Co827 O828 2.160 . S
Co827 O833 2.058 . S
Co827 O843 2.057 . S
Co827 O858 2.037 1_565 S
Co827 N862 2.145 . S
Co827 N883 2.257 . S
O828 Co826 2.143 . S
O828 Co827 2.160 . S
C829 O830 1.276 1_545 S
C829 O837 1.224 . S
O830 C829 1.276 1_565 S
C831 O832 1.245 . S
C831 O843 1.232 . S
O832 C831 1.245 . S
O833 Co827 2.058 . S
O833 C859 1.269 . S
O834 Co826 2.074 . S
O834 C859 1.257 . S
H835 C860 0.930 . S
H836 C866 0.930 . S
O837 Co826 2.093 1_545 S
O837 C829 1.224 . S
H838 C870 0.929 . S
H839 C872 0.930 . S
H840 C873 0.930 . S
H841 C871 0.929 . S
H842 C874 0.928 . S
O843 Co827 2.057 . S
O843 C831 1.232 . S
H844 C863 0.929 . S
H845 C864 0.929 . S
H846 C876 0.931 . S
H847 C868 0.929 . S
H848 C877 0.930 . S
H849 C869 0.931 1_556 S
O850 Co826 2.097 1_545 S
O850 C878 1.214 . S
H851 C879 0.929 . S
H852 C880 0.929 . S
H853 C881 0.930 . S
H854 C882 0.929 . S
H855 C884 0.930 . S
H856 C861 0.930 . S
H857 C865 0.930 . S
O858 Co827 2.037 1_545 S
O858 C878 1.234 . S
C859 O833 1.269 . S
C859 O834 1.257 . S
C860 H835 0.930 . S
C860 C863 1.388 . S
C860 C865 1.418 . S
C861 H856 0.930 . S
C861 C864 1.404 . S
C861 C865 1.353 . S
N862 Co827 2.145 . S
N862 C863 1.397 . S
N862 C864 1.334 . S
C863 H844 0.929 . S
C863 C860 1.388 . S
C863 N862 1.397 . S
C864 H845 0.929 . S
C864 C861 1.404 . S
C864 N862 1.334 . S
C865 H857 0.930 . S
C865 C860 1.418 . S
C865 C861 1.353 . S
C866 H836 0.930 . S
C866 N867 1.330 . S
C866 C868 1.446 1_554 S
N867 Co826 2.151 . S
N867 C866 1.330 . S
N867 C871 1.418 . S
C868 H847 0.929 . S
C868 C866 1.446 1_556 S
C868 C869 1.332 1_556 S
C869 H849 0.931 1_554 S
C869 C868 1.332 1_554 S
C869 C870 1.267 . S
C870 H838 0.929 . S
C870 C869 1.267 . S
C870 C871 1.251 . S
C871 H841 0.929 . S
C871 N867 1.418 . S
C871 C870 1.251 . S
C872 H839 0.930 . S
C872 C874 1.406 1_545 S
C872 C877 1.261 . S
C873 H840 0.930 . S
C873 N875 1.325 1_545 S
C873 C876 1.357 . S
C874 H842 0.928 . S
C874 C872 1.406 1_565 S
C874 N875 1.261 . S
N875 Co826 2.214 . S
N875 C873 1.325 1_565 S
N875 C874 1.261 . S
C876 H846 0.931 . S
C876 C873 1.357 . S
C876 C877 1.312 . S
C877 H848 0.930 . S
C877 C872 1.261 . S
C877 C876 1.312 . S
C878 O850 1.214 . S
C878 O858 1.234 . S
C879 H851 0.929 . S
C879 C882 1.391 . S
C879 C884 1.391 1_545 S
C880 H852 0.929 . S
C880 C881 1.390 . S
C880 N883 1.391 1_545 S
C881 H853 0.930 . S
C881 C880 1.390 . S
C881 C882 1.392 . S
C882 H854 0.929 . S
C882 C879 1.391 . S
C882 C881 1.392 . S
N883 Co827 2.257 . S
N883 C880 1.391 1_565 S
N883 C884 1.388 . S
C884 H855 0.930 . S
C884 C879 1.391 1_565 S
C884 N883 1.388 . S
Co885 O887 2.143 . S
Co885 O893 2.074 . S
Co885 O896 2.093 1_655 S
Co885 O909 2.097 1_655 S
Co885 N926 2.151 . S
Co885 N934 2.214 . S
Co886 O887 2.160 . S
Co886 O892 2.058 . S
Co886 O902 2.057 . S
Co886 O917 2.037 1_655 S
Co886 N921 2.145 . S
Co886 N942 2.257 . S
O887 Co885 2.143 . S
O887 Co886 2.160 . S
C888 O889 1.276 1_455 S
C888 O896 1.224 . S
O889 C888 1.276 1_655 S
C890 O891 1.245 . S
C890 O902 1.232 . S
O891 C890 1.245 . S
O892 Co886 2.058 . S
O892 C918 1.269 . S
O893 Co885 2.074 . S
O893 C918 1.257 . S
H894 C919 0.930 . S
H895 C925 0.930 . S
O896 Co885 2.093 1_455 S
O896 C888 1.224 . S
H897 C929 0.929 . S
H898 C931 0.930 . S
H899 C932 0.930 . S
H900 C930 0.929 . S
H901 C933 0.928 . S
O902 Co886 2.057 . S
O902 C890 1.232 . S
H903 C922 0.929 . S
H904 C923 0.929 . S
H905 C935 0.931 . S
H906 C927 0.929 . S
H907 C936 0.930 . S
H908 C928 0.931 1_554 S
O909 Co885 2.097 1_455 S
O909 C937 1.214 . S
H910 C938 0.929 . S
H911 C939 0.929 . S
H912 C940 0.930 . S
H913 C941 0.929 . S
H914 C943 0.930 . S
H915 C920 0.930 . S
H916 C924 0.930 . S
O917 Co886 2.037 1_455 S
O917 C937 1.234 . S
C918 O892 1.269 . S
C918 O893 1.257 . S
C919 H894 0.930 . S
C919 C922 1.388 . S
C919 C924 1.418 . S
C920 H915 0.930 . S
C920 C923 1.404 . S
C920 C924 1.353 . S
N921 Co886 2.145 . S
N921 C922 1.397 . S
N921 C923 1.334 . S
C922 H903 0.929 . S
C922 C919 1.388 . S
C922 N921 1.397 . S
C923 H904 0.929 . S
C923 C920 1.404 . S
C923 N921 1.334 . S
C924 H916 0.930 . S
C924 C919 1.418 . S
C924 C920 1.353 . S
C925 H895 0.930 . S
C925 N926 1.330 . S
C925 C927 1.446 1_556 S
N926 Co885 2.151 . S
N926 C925 1.330 . S
N926 C930 1.418 . S
C927 H906 0.929 . S
C927 C925 1.446 1_554 S
C927 C928 1.332 1_554 S
C928 H908 0.931 1_556 S
C928 C927 1.332 1_556 S
C928 C929 1.267 . S
C929 H897 0.929 . S
C929 C928 1.267 . S
C929 C930 1.251 . S
C930 H900 0.929 . S
C930 N926 1.418 . S
C930 C929 1.251 . S
C931 H898 0.930 . S
C931 C933 1.406 1_455 S
C931 C936 1.261 . S
C932 H899 0.930 . S
C932 N934 1.325 1_455 S
C932 C935 1.357 . S
C933 H901 0.928 . S
C933 C931 1.406 1_655 S
C933 N934 1.261 . S
N934 Co885 2.214 . S
N934 C932 1.325 1_655 S
N934 C933 1.261 . S
C935 H905 0.931 . S
C935 C932 1.357 . S
C935 C936 1.312 . S
C936 H907 0.930 . S
C936 C931 1.261 . S
C936 C935 1.312 . S
C937 O909 1.214 . S
C937 O917 1.234 . S
C938 H910 0.929 . S
C938 C941 1.391 . S
C938 C943 1.391 1_455 S
C939 H911 0.929 . S
C939 C940 1.390 . S
C939 N942 1.391 1_455 S
C940 H912 0.930 . S
C940 C939 1.390 . S
C940 C941 1.392 . S
C941 H913 0.929 . S
C941 C938 1.391 . S
C941 C940 1.392 . S
N942 Co886 2.257 . S
N942 C939 1.391 1_655 S
N942 C943 1.388 . S
C943 H914 0.930 . S
C943 C938 1.391 1_655 S
C943 N942 1.388 . S
C5 C418 1.393 . S
C64 C241 1.393 . S
C300 C123 1.393 . S
C182 C359 1.393 . S
C477 C890 1.393 . S
C713 C536 1.393 . S
C772 C595 1.393 . S
C831 C654 1.393 . S
C52 C682 1.582 . S
C111 C505 1.582 . S
C564 C170 1.582 . S
C229 C623 1.582 . S
C288 C800 1.582 . S
C859 C347 1.582 . S
C406 C918 1.582 . S
C741 C465 1.582 . S
C524 C210 1.582 . S
C33 C583 1.582 . S
C642 C92 1.582 . S
C151 C701 1.582 . S
C760 C328 1.582 . S
C387 C819 1.582 . S
C446 C878 1.582 . S
C269 C937 1.582 . S
C239 C3 1.786 . S
C298 C62 1.786 . S
C121 C357 1.786 . S
C416 C180 1.786 . S
C711 C475 1.786 1_564 S
C770 C534 1.786 1_656 S
C593 C829 1.786 1_566 S
C888 C652 1.786 1_456 S
