# Generated by pormake.
# Topology xfc, (7)-cn, num edge types: 1
# Building blocks:
#     Node 0, Type 0, BuildingBlock: NUHQUE_clean_sbu_2, # of connection points: 7
#     Node 1, Type 0, BuildingBlock: NUHQUE_clean_sbu_2, # of connection points: 7
#     Node 2, Type 0, BuildingBlock: NUHQUE_clean_sbu_2, # of connection points: 7
#     Node 3, Type 0, BuildingBlock: NUHQUE_clean_sbu_2, # of connection points: 7
#     Node 4, Type 0, BuildingBlock: NUHQUE_clean_sbu_2, # of connection points: 7
#     Node 5, Type 0, BuildingBlock: NUHQUE_clean_sbu_2, # of connection points: 7
#     Node 6, Type 0, BuildingBlock: NUHQUE_clean_sbu_2, # of connection points: 7
#     Node 7, Type 0, BuildingBlock: NUHQUE_clean_sbu_2, # of connection points: 7
#     Node 8, Type 0, BuildingBlock: NUHQUE_clean_sbu_2, # of connection points: 7
#     Node 9, Type 0, BuildingBlock: NUHQUE_clean_sbu_2, # of connection points: 7
#     Node 10, Type 0, BuildingBlock: NUHQUE_clean_sbu_2, # of connection points: 7
#     Node 11, Type 0, BuildingBlock: NUHQUE_clean_sbu_2, # of connection points: 7
#     Node 12, Type 0, BuildingBlock: NUHQUE_clean_sbu_2, # of connection points: 7
#     Node 13, Type 0, BuildingBlock: NUHQUE_clean_sbu_2, # of connection points: 7
#     Node 14, Type 0, BuildingBlock: NUHQUE_clean_sbu_2, # of connection points: 7
#     Node 15, Type 0, BuildingBlock: NUHQUE_clean_sbu_2, # of connection points: 7
#     Edge 16, Type (0, 0), BuildingBlock: MIFKUJ_clean_linker_0, # of connection points: 2
#     Edge 17, Type (0, 0), BuildingBlock: MIFKUJ_clean_linker_0, # of connection points: 2
#     Edge 18, Type (0, 0), BuildingBlock: MIFKUJ_clean_linker_0, # of connection points: 2
#     Edge 19, Type (0, 0), BuildingBlock: MIFKUJ_clean_linker_0, # of connection points: 2
#     Edge 20, Type (0, 0), BuildingBlock: MIFKUJ_clean_linker_0, # of connection points: 2
#     Edge 21, Type (0, 0), BuildingBlock: MIFKUJ_clean_linker_0, # of connection points: 2
#     Edge 22, Type (0, 0), BuildingBlock: MIFKUJ_clean_linker_0, # of connection points: 2
#     Edge 23, Type (0, 0), BuildingBlock: MIFKUJ_clean_linker_0, # of connection points: 2
#     Edge 24, Type (0, 0), BuildingBlock: MIFKUJ_clean_linker_0, # of connection points: 2
#     Edge 25, Type (0, 0), BuildingBlock: MIFKUJ_clean_linker_0, # of connection points: 2
#     Edge 26, Type (0, 0), BuildingBlock: MIFKUJ_clean_linker_0, # of connection points: 2
#     Edge 27, Type (0, 0), BuildingBlock: MIFKUJ_clean_linker_0, # of connection points: 2
#     Edge 28, Type (0, 0), BuildingBlock: MIFKUJ_clean_linker_0, # of connection points: 2
#     Edge 29, Type (0, 0), BuildingBlock: MIFKUJ_clean_linker_0, # of connection points: 2
#     Edge 30, Type (0, 0), BuildingBlock: MIFKUJ_clean_linker_0, # of connection points: 2
#     Edge 31, Type (0, 0), BuildingBlock: MIFKUJ_clean_linker_0, # of connection points: 2
#     Edge 32, Type (0, 0), BuildingBlock: MIFKUJ_clean_linker_0, # of connection points: 2
#     Edge 33, Type (0, 0), BuildingBlock: MIFKUJ_clean_linker_0, # of connection points: 2
#     Edge 34, Type (0, 0), BuildingBlock: MIFKUJ_clean_linker_0, # of connection points: 2
#     Edge 35, Type (0, 0), BuildingBlock: MIFKUJ_clean_linker_0, # of connection points: 2
#     Edge 36, Type (0, 0), BuildingBlock: MIFKUJ_clean_linker_0, # of connection points: 2
#     Edge 37, Type (0, 0), BuildingBlock: MIFKUJ_clean_linker_0, # of connection points: 2
#     Edge 38, Type (0, 0), BuildingBlock: MIFKUJ_clean_linker_0, # of connection points: 2
#     Edge 39, Type (0, 0), BuildingBlock: MIFKUJ_clean_linker_0, # of connection points: 2
#     Edge 40, Type (0, 0), BuildingBlock: MIFKUJ_clean_linker_0, # of connection points: 2
#     Edge 41, Type (0, 0), BuildingBlock: MIFKUJ_clean_linker_0, # of connection points: 2
#     Edge 42, Type (0, 0), BuildingBlock: MIFKUJ_clean_linker_0, # of connection points: 2
#     Edge 43, Type (0, 0), BuildingBlock: MIFKUJ_clean_linker_0, # of connection points: 2
#     Edge 44, Type (0, 0), BuildingBlock: MIFKUJ_clean_linker_0, # of connection points: 2
#     Edge 45, Type (0, 0), BuildingBlock: MIFKUJ_clean_linker_0, # of connection points: 2
#     Edge 46, Type (0, 0), BuildingBlock: MIFKUJ_clean_linker_0, # of connection points: 2
#     Edge 47, Type (0, 0), BuildingBlock: MIFKUJ_clean_linker_0, # of connection points: 2
#     Edge 48, Type (0, 0), BuildingBlock: MIFKUJ_clean_linker_0, # of connection points: 2
#     Edge 49, Type (0, 0), BuildingBlock: MIFKUJ_clean_linker_0, # of connection points: 2
#     Edge 50, Type (0, 0), BuildingBlock: MIFKUJ_clean_linker_0, # of connection points: 2
#     Edge 51, Type (0, 0), BuildingBlock: MIFKUJ_clean_linker_0, # of connection points: 2
#     Edge 52, Type (0, 0), BuildingBlock: MIFKUJ_clean_linker_0, # of connection points: 2
#     Edge 53, Type (0, 0), BuildingBlock: MIFKUJ_clean_linker_0, # of connection points: 2
#     Edge 54, Type (0, 0), BuildingBlock: MIFKUJ_clean_linker_0, # of connection points: 2
#     Edge 55, Type (0, 0), BuildingBlock: MIFKUJ_clean_linker_0, # of connection points: 2
#     Edge 56, Type (0, 0), BuildingBlock: MIFKUJ_clean_linker_0, # of connection points: 2
#     Edge 57, Type (0, 0), BuildingBlock: MIFKUJ_clean_linker_0, # of connection points: 2
#     Edge 58, Type (0, 0), BuildingBlock: MIFKUJ_clean_linker_0, # of connection points: 2
#     Edge 59, Type (0, 0), BuildingBlock: MIFKUJ_clean_linker_0, # of connection points: 2
#     Edge 60, Type (0, 0), BuildingBlock: MIFKUJ_clean_linker_0, # of connection points: 2
#     Edge 61, Type (0, 0), BuildingBlock: MIFKUJ_clean_linker_0, # of connection points: 2
#     Edge 62, Type (0, 0), BuildingBlock: MIFKUJ_clean_linker_0, # of connection points: 2
#     Edge 63, Type (0, 0), BuildingBlock: MIFKUJ_clean_linker_0, # of connection points: 2
#     Edge 64, Type (0, 0), BuildingBlock: MIFKUJ_clean_linker_0, # of connection points: 2
#     Edge 65, Type (0, 0), BuildingBlock: MIFKUJ_clean_linker_0, # of connection points: 2
#     Edge 66, Type (0, 0), BuildingBlock: MIFKUJ_clean_linker_0, # of connection points: 2
#     Edge 67, Type (0, 0), BuildingBlock: MIFKUJ_clean_linker_0, # of connection points: 2
#     Edge 68, Type (0, 0), BuildingBlock: MIFKUJ_clean_linker_0, # of connection points: 2
#     Edge 69, Type (0, 0), BuildingBlock: MIFKUJ_clean_linker_0, # of connection points: 2
#     Edge 70, Type (0, 0), BuildingBlock: MIFKUJ_clean_linker_0, # of connection points: 2
#     Edge 71, Type (0, 0), BuildingBlock: MIFKUJ_clean_linker_0, # of connection points: 2
# Relax obj value: 0.401
# Max RMSD: 0.227
# Mean RMSD: 0.227
data_MOF--net-xfc--node1-NUHQUE_clean_sbu_2--edge1-MIFKUJ_clean_linker_0
_symmetry_space_group_name_H-M    P1
_symmetry_Int_Tables_number       1
_symmetry_cell_setting            triclinic
loop_
_symmetry_equiv_pos_as_xyz
'x, y, z'
_cell_length_a     46.754007
_cell_length_b     46.762587
_cell_length_c     59.124246
_cell_angle_alpha  90.039379
_cell_angle_beta   89.977782
_cell_angle_gamma 90.030322
loop_
_atom_site_label
_atom_site_type_symbol
_atom_site_fract_x
_atom_site_fract_y
_atom_site_fract_z
_atom_type_partial_charge
O0 O 0.05895 0.99402 0.16767 0.0
Tb1 Tb 0.01714 0.00283 0.15375 0.0
Eu2 Eu 0.98802 0.03211 0.20685 0.0
C3 C 0.0813 0.00886 0.16113 0.0
O4 O 0.07742 0.03129 0.14818 0.0
C5 C 0.01977 0.06426 0.16818 0.0
O6 O 0.95236 0.06434 0.2061 0.0
C7 C 0.00396 0.01295 0.24607 0.0
C8 C 0.92566 0.05575 0.20775 0.0
O9 O 0.92047 0.02976 0.21512 0.0
C10 C 0.96784 0.97613 0.1792 0.0
C11 C 0.99687 0.99135 0.26355 0.0
C12 C 0.01865 0.97299 0.27156 0.0
C13 C 0.01272 0.95239 0.28827 0.0
C14 C 0.98499 0.95064 0.29702 0.0
C15 C 0.96334 0.96898 0.28967 0.0
C16 C 0.96915 0.98939 0.27292 0.0
O17 O 0.00364 0.04687 0.15646 0.0
O18 O 0.02146 0.06006 0.19007 0.0
O19 O 0.03606 0.00131 0.12011 0.0
O20 O 0.99512 0.98253 0.12528 0.0
C21 C 0.01501 0.98785 0.1105 0.0
O22 O 0.95958 1.0003 0.18848 0.0
O23 O 0.99483 0.972 0.17441 0.0
O24 O 0.98645 0.03482 0.24354 0.0
O25 O 0.01438 0.00322 0.22682 0.0
H26 H 0.0401 0.97466 0.26472 0.0
H27 H 0.98028 0.9354 0.31034 0.0
H28 H 0.95228 0.00363 0.26737 0.0
O29 O 0.26003 0.80227 0.42533 0.0
Tb30 Tb 0.25136 0.7612 0.40985 0.0
Eu31 Eu 0.22132 0.73621 0.46082 0.0
C32 C 0.2447 0.82478 0.41993 0.0
O33 O 0.21912 0.82081 0.41146 0.0
C34 C 0.18922 0.76406 0.42114 0.0
O35 O 0.18613 0.70378 0.45683 0.0
C36 C 0.23395 0.75462 0.50096 0.0
C37 C 0.19142 0.67615 0.457 0.0
O38 O 0.21559 0.66685 0.46559 0.0
C39 C 0.27915 0.71221 0.43611 0.0
C40 C 0.25295 0.75179 0.5209 0.0
C41 C 0.2678 0.77612 0.52892 0.0
C42 C 0.28338 0.77489 0.54924 0.0
C43 C 0.28417 0.74921 0.56131 0.0
C44 C 0.2702 0.72474 0.55336 0.0
C45 C 0.25476 0.72591 0.53305 0.0
O46 O 0.20735 0.7474 0.41087 0.0
O47 O 0.19369 0.76865 0.44266 0.0
O48 O 0.25702 0.78595 0.37893 0.0
O49 O 0.26299 0.74094 0.37785 0.0
C50 C 0.26287 0.76433 0.36597 0.0
O51 O 0.25478 0.70589 0.44615 0.0
O52 O 0.28395 0.73761 0.4276 0.0
O53 O 0.21497 0.73427 0.49716 0.0
O54 O 0.24501 0.76566 0.48238 0.0
H55 H 0.26667 0.79611 0.51969 0.0
H56 H 0.29674 0.74793 0.57671 0.0
H57 H 0.24389 0.70691 0.52702 0.0
O58 O 0.45103 0.99031 0.69987 0.0
Tb59 Tb 0.48392 0.98758 0.67402 0.0
Eu60 Eu 0.52065 0.95562 0.71701 0.0
C61 C 0.4303 0.97131 0.7001 0.0
O62 O 0.43669 0.94465 0.69557 0.0
C63 C 0.49358 0.92492 0.67634 0.0
O64 O 0.56318 0.93386 0.72101 0.0
C65 C 0.49947 0.97929 0.75303 0.0
C66 C 0.5664 0.90772 0.71328 0.0
O67 O 0.54348 0.89205 0.70987 0.0
C68 C 0.54192 0.01106 0.68855 0.0
C69 C 0.50687 0.99922 0.77165 0.0
C70 C 0.4873 0.02089 0.7781 0.0
C71 C 0.49341 0.03927 0.79646 0.0
C72 C 0.51896 0.03501 0.80839 0.0
C73 C 0.53868 0.01414 0.80198 0.0
C74 C 0.53278 0.99622 0.78361 0.0
O75 O 0.50532 0.94758 0.66747 0.0
O76 O 0.4922 0.92424 0.69846 0.0
O77 O 0.45166 0.9831 0.64752 0.0
O78 O 0.48437 0.0142 0.64371 0.0
C79 C 0.4619 0.00286 0.63441 0.0
O80 O 0.54861 0.98576 0.69673 0.0
O81 O 0.5152 0.01842 0.68518 0.0
O82 O 0.51206 0.954 0.75304 0.0
O83 O 0.49656 0.99037 0.73265 0.0
H84 H 0.46753 0.02343 0.76876 0.0
H85 H 0.52377 0.04793 0.82311 0.0
H86 H 0.54817 0.97997 0.77884 0.0
O87 O 0.26646 0.2016 0.90398 0.0
Tb88 Tb 0.25858 0.24648 0.89727 0.0
Eu89 Eu 0.28109 0.27085 0.9545 0.0
C90 C 0.28305 0.18669 0.89042 0.0
O91 O 0.29497 0.1996 0.87311 0.0
C92 C 0.31857 0.24588 0.91469 0.0
O93 O 0.30769 0.311 0.95108 0.0
C94 C 0.27064 0.2527 0.99518 0.0
C95 C 0.3035 0.32649 0.93277 0.0
O96 O 0.28459 0.31772 0.91788 0.0
C97 C 0.22195 0.28302 0.92821 0.0
C98 C 0.25203 0.25739 0.01517 0.0
C99 C 0.23785 0.23378 0.02514 0.0
C100 C 0.22206 0.23718 0.04527 0.0
C101 C 0.22026 0.26442 0.05496 0.0
C102 C 0.23408 0.28796 0.04536 0.0
C103 C 0.24975 0.28461 0.02533 0.0
O104 O 0.30174 0.26177 0.90228 0.0
O105 O 0.31097 0.24075 0.93572 0.0
O106 O 0.24451 0.23052 0.86452 0.0
O107 O 0.24933 0.2754 0.86904 0.0
C108 C 0.24255 0.25531 0.85476 0.0
O109 O 0.24221 0.29414 0.94086 0.0
O110 O 0.22457 0.25686 0.92061 0.0
O111 O 0.29002 0.27235 0.99053 0.0
O112 O 0.25863 0.24154 0.97705 0.0
H113 H 0.23978 0.21273 0.0176 0.0
H114 H 0.20776 0.26754 0.07021 0.0
H115 H 0.26056 0.30294 0.01808 0.0
O116 O 0.06943 0.02335 0.83158 0.0
Tb117 Tb 0.02797 0.00323 0.82988 0.0
Eu118 Eu 0.9798 0.96492 0.8 0.0
C119 C 0.0903 0.01722 0.81751 0.0
O120 O 0.08493 0.00412 0.79833 0.0
C121 C 0.03739 0.94058 0.8195 0.0
O122 O 0.94531 0.93171 0.80277 0.0
C123 C 0.99609 0.98005 0.75961 0.0
C124 C 0.91838 0.93925 0.80502 0.0
O125 O 0.91082 0.96563 0.80031 0.0
C126 C 0.96899 0.02663 0.82113 0.0
C127 C 0.99596 0.00443 0.74339 0.0
C128 C 0.02205 0.01827 0.73807 0.0
C129 C 0.02264 0.04107 0.72261 0.0
C130 C 0.99724 0.04972 0.71229 0.0
C131 C 0.97131 0.03578 0.71653 0.0
C132 C 0.97067 0.013 0.7321 0.0
O133 O 0.04638 0.96599 0.81361 0.0
O134 O 0.0099 0.9352 0.81847 0.0
O135 O 0.03117 0.01355 0.86556 0.0
O136 O 0.00653 0.97729 0.85577 0.0
C137 C 0.0156 0.99247 0.87281 0.0
O138 O 0.95922 1.00037 0.81984 0.0
O139 O 0.99589 0.03197 0.8162 0.0
O140 O 0.97185 0.96654 0.76366 0.0
O141 O 0.01222 0.98289 0.77772 0.0
H142 H 0.04185 0.01126 0.74582 0.0
H143 H 0.998 0.06674 0.69985 0.0
H144 H 0.95064 0.00207 0.7353 0.0
O145 O 0.26738 0.80026 0.05565 0.0
Tb146 Tb 0.26266 0.77167 0.08455 0.0
Eu147 Eu 0.29677 0.73418 0.04111 0.0
C148 C 0.26464 0.82819 0.05533 0.0
O149 O 0.27181 0.84205 0.03685 0.0
C150 C 0.3263 0.76862 0.0799 0.0
O151 O 0.32222 0.69349 0.03945 0.0
C152 C 0.27595 0.7536 0.00345 0.0
C153 C 0.34795 0.69272 0.04834 0.0
O154 O 0.36107 0.71697 0.05261 0.0
C155 C 0.23969 0.71469 0.06773 0.0
C156 C 0.25629 0.74977 0.9841 0.0
C157 C 0.23764 0.77244 0.97841 0.0
C158 C 0.21957 0.77024 0.95954 0.0
C159 C 0.22071 0.74572 0.94616 0.0
C160 C 0.23973 0.72344 0.95103 0.0
C161 C 0.25715 0.72512 0.97033 0.0
O162 O 0.30541 0.75651 0.09112 0.0
O163 O 0.32623 0.76632 0.05783 0.0
O164 O 0.25638 0.7993 0.11409 0.0
O165 O 0.238 0.75777 0.11374 0.0
C166 C 0.24172 0.78071 0.12572 0.0
O167 O 0.26543 0.70695 0.06112 0.0
O168 O 0.23306 0.74184 0.06928 0.0
O169 O 0.29932 0.73783 0.00447 0.0
O170 O 0.26441 0.75887 0.02333 0.0
H171 H 0.23729 0.79177 0.98856 0.0
H172 H 0.20685 0.74418 0.93147 0.0
H173 H 0.27167 0.70775 0.97421 0.0
O174 O 0.4633 0.00323 0.33728 0.0
Tb175 Tb 0.49317 0.02858 0.35698 0.0
Eu176 Eu 0.50388 0.03343 0.30205 0.0
C177 C 0.43718 0.01304 0.33449 0.0
O178 O 0.43103 0.03864 0.34217 0.0
C179 C 0.47816 0.08167 0.33349 0.0
O180 O 0.5402 0.06217 0.31239 0.0
C181 C 0.49573 0.0259 0.25899 0.0
C182 C 0.56725 0.0549 0.31055 0.0
O183 O 0.57418 0.0318 0.29917 0.0
C184 C 0.53724 0.99011 0.3347 0.0
C185 C 0.50106 0.00439 0.24088 0.0
C186 C 0.47897 0.98547 0.23408 0.0
C187 C 0.48377 0.96539 0.21678 0.0
C188 C 0.51035 0.96449 0.20613 0.0
C189 C 0.53206 0.98361 0.21198 0.0
C190 C 0.52754 0.0036 0.22932 0.0
O191 O 0.49814 0.07234 0.34697 0.0
O192 O 0.47137 0.06543 0.31604 0.0
O193 O 0.46152 0.03556 0.38365 0.0
O194 O 0.50179 0.01774 0.39227 0.0
C195 C 0.47704 0.02568 0.40005 0.0
O196 O 0.5216 0.99156 0.31615 0.0
O197 O 0.5336 0.00813 0.35136 0.0
O198 O 0.51791 0.03982 0.26728 0.0
O199 O 0.47661 0.01915 0.2745 0.0
H200 H 0.45813 0.98638 0.24209 0.0
H201 H 0.51384 0.94941 0.19242 0.0
H202 H 0.54443 0.01854 0.23353 0.0
O203 O 0.28304 0.19182 0.57574 0.0
Tb204 Tb 0.25118 0.22505 0.5752 0.0
Eu205 Eu 0.20747 0.269 0.55114 0.0
C206 C 0.27812 0.16582 0.5683 0.0
O207 O 0.25601 0.16074 0.55522 0.0
C208 C 0.18883 0.2092 0.57139 0.0
O209 O 0.17546 0.3043 0.55575 0.0
C210 C 0.22094 0.2539 0.51021 0.0
C211 C 0.18405 0.33108 0.55644 0.0
O212 O 0.2099 0.33741 0.54929 0.0
C213 C 0.27009 0.28529 0.5663 0.0
C214 C 0.24312 0.25921 0.49271 0.0
C215 C 0.26058 0.23629 0.48544 0.0
C216 C 0.28142 0.24059 0.46867 0.0
C217 C 0.28484 0.26769 0.45922 0.0
C218 C 0.26722 0.29042 0.46565 0.0
C219 C 0.24631 0.28629 0.4824 0.0
O220 O 0.214 0.2013 0.56379 0.0
O221 O 0.18216 0.23649 0.57107 0.0
O222 O 0.25841 0.21888 0.6112 0.0
O223 O 0.23022 0.25195 0.60067 0.0
C224 C 0.24182 0.2394 0.618 0.0
O225 O 0.2432 0.29277 0.56804 0.0
O226 O 0.27639 0.25906 0.56014 0.0
O227 O 0.20257 0.27451 0.51476 0.0
O228 O 0.22932 0.23978 0.52828 0.0
H229 H 0.25771 0.21512 0.49256 0.0
H230 H 0.3005 0.2708 0.44586 0.0
H231 H 0.23251 0.30393 0.48707 0.0
O232 O 0.76082 0.30094 0.59367 0.0
Tb233 Tb 0.7599 0.25813 0.60727 0.0
Eu234 Eu 0.78287 0.23483 0.55084 0.0
C235 C 0.7753 0.32047 0.60472 0.0
O236 O 0.78893 0.31304 0.62321 0.0
C237 C 0.81902 0.2637 0.58904 0.0
O238 O 0.81217 0.19705 0.54639 0.0
C239 C 0.7582 0.2537 0.51444 0.0
C240 C 0.83891 0.19881 0.55307 0.0
O241 O 0.85021 0.22425 0.55602 0.0
C242 C 0.73367 0.20687 0.58305 0.0
C243 C 0.73789 0.24656 0.49605 0.0
C244 C 0.71963 0.26817 0.48761 0.0
C245 C 0.70084 0.26254 0.46951 0.0
C246 C 0.70097 0.23518 0.45984 0.0
C247 C 0.71881 0.21354 0.46798 0.0
C248 C 0.7373 0.2191 0.48614 0.0
O249 O 0.80367 0.24589 0.60094 0.0
O250 O 0.81132 0.26789 0.56794 0.0
O251 O 0.73972 0.27528 0.63788 0.0
O252 O 0.76963 0.24131 0.64073 0.0
C253 C 0.75292 0.2584 0.65189 0.0
O254 O 0.75563 0.20217 0.56959 0.0
O255 O 0.72791 0.23249 0.59073 0.0
O256 O 0.78322 0.24066 0.5144 0.0
O257 O 0.74752 0.25761 0.53487 0.0
H258 H 0.72012 0.28931 0.49514 0.0
H259 H 0.68743 0.23063 0.44537 0.0
H260 H 0.75122 0.20232 0.49233 0.0
O261 O 0.78023 0.69572 0.06897 0.0
Tb262 Tb 0.74971 0.72887 0.07675 0.0
Eu263 Eu 0.70519 0.77072 0.0515 0.0
C264 C 0.77261 0.67035 0.06163 0.0
O265 O 0.74643 0.66607 0.0544 0.0
C266 C 0.68575 0.71444 0.07547 0.0
O267 O 0.6778 0.81008 0.04845 0.0
C268 C 0.72298 0.74709 0.01406 0.0
C269 C 0.65247 0.81061 0.05808 0.0
O270 O 0.64124 0.78642 0.06506 0.0
C271 C 0.76583 0.79114 0.06777 0.0
C272 C 0.74426 0.75041 0.99564 0.0
C273 C 0.75952 0.7261 0.98789 0.0
C274 C 0.78058 0.72882 0.97095 0.0
C275 C 0.7857 0.75581 0.96164 0.0
C276 C 0.77066 0.77996 0.96891 0.0
C277 C 0.74988 0.77736 0.9859 0.0
O278 O 0.71072 0.70577 0.06801 0.0
O279 O 0.67923 0.74165 0.07398 0.0
O280 O 0.76704 0.71883 0.10986 0.0
O281 O 0.73219 0.74802 0.1077 0.0
C282 C 0.74974 0.73499 0.12134 0.0
O283 O 0.73865 0.79775 0.06842 0.0
O284 O 0.77338 0.76487 0.06276 0.0
O285 O 0.70141 0.76522 0.01495 0.0
O286 O 0.73327 0.74067 0.03408 0.0
H287 H 0.75534 0.7053 0.99527 0.0
H288 H 0.80136 0.75809 0.94819 0.0
H289 H 0.73844 0.79618 0.9916 0.0
O290 O 0.7842 0.30652 0.94526 0.0
Tb291 Tb 0.76055 0.26777 0.93805 0.0
Eu292 Eu 0.71723 0.22149 0.96019 0.0
C293 C 0.77395 0.32727 0.95798 0.0
O294 O 0.7506 0.32328 0.96989 0.0
C295 C 0.69616 0.27752 0.93697 0.0
O296 O 0.68701 0.18408 0.9594 0.0
C297 C 0.72876 0.24285 0.99987 0.0
C298 C 0.69658 0.1577 0.96076 0.0
O299 O 0.72335 0.15336 0.96654 0.0
C300 C 0.7811 0.20697 0.94745 0.0
C301 C 0.74844 0.23934 0.01938 0.0
C302 C 0.76228 0.26363 0.02864 0.0
C303 C 0.77927 0.26106 0.04821 0.0
C304 C 0.78278 0.23415 0.05805 0.0
C305 C 0.76964 0.20991 0.04895 0.0
C306 C 0.75248 0.21237 0.02961 0.0
O307 O 0.71959 0.28723 0.94639 0.0
O308 O 0.69147 0.24991 0.93709 0.0
O309 O 0.77683 0.27512 0.90397 0.0
O310 O 0.74183 0.24654 0.9086 0.0
C311 C 0.75875 0.2583 0.89382 0.0
O312 O 0.75462 0.19814 0.94522 0.0
O313 O 0.78618 0.23376 0.95298 0.0
O314 O 0.70939 0.22282 0.99645 0.0
O315 O 0.73988 0.25278 0.98104 0.0
H316 H 0.75923 0.28449 0.02103 0.0
H317 H 0.79594 0.23199 0.07309 0.0
H318 H 0.74207 0.1935 0.02285 0.0
O319 O 0.76679 0.7354 0.41456 0.0
Tb320 Tb 0.79039 0.77302 0.40461 0.0
Eu321 Eu 0.7857 0.76475 0.4595 0.0
C322 C 0.77438 0.71158 0.40451 0.0
O323 O 0.79506 0.71233 0.38948 0.0
C324 C 0.8323 0.73463 0.4279 0.0
O325 O 0.81809 0.79971 0.45388 0.0
C326 C 0.77394 0.75254 0.50142 0.0
C327 C 0.81189 0.82677 0.45739 0.0
O328 O 0.78832 0.8333 0.46834 0.0
C329 C 0.75095 0.81021 0.43086 0.0
C330 C 0.75366 0.75959 0.52 0.0
C331 C 0.73749 0.73738 0.53021 0.0
C332 C 0.7195 0.74314 0.54882 0.0
C333 C 0.71726 0.77134 0.55644 0.0
C334 C 0.73353 0.79336 0.5471 0.0
C335 C 0.75167 0.78768 0.52876 0.0
O336 O 0.83141 0.75909 0.41708 0.0
O337 O 0.81242 0.72925 0.44326 0.0
O338 O 0.76468 0.76943 0.37418 0.0
O339 O 0.80923 0.7779 0.37086 0.0
C340 C 0.7854 0.77354 0.35996 0.0
O341 O 0.74722 0.78795 0.4443 0.0
O342 O 0.77433 0.81198 0.4188 0.0
O343 O 0.79274 0.77212 0.49541 0.0
O344 O 0.76369 0.73795 0.48418 0.0
H345 H 0.73966 0.71561 0.52414 0.0
H346 H 0.70313 0.77637 0.57041 0.0
H347 H 0.76443 0.80486 0.52174 0.0
O348 O 0.56675 0.49154 0.66519 0.0
Tb349 Tb 0.52269 0.49449 0.65415 0.0
Eu350 Eu 0.49297 0.52102 0.70717 0.0
C351 C 0.58613 0.50744 0.65521 0.0
O352 O 0.5778 0.52611 0.64004 0.0
C353 C 0.52697 0.55569 0.67065 0.0
O354 O 0.45471 0.54931 0.70064 0.0
C355 C 0.5022 0.50662 0.74861 0.0
C356 C 0.44222 0.54631 0.68081 0.0
O357 O 0.45342 0.52871 0.66595 0.0
C358 C 0.47675 0.46225 0.68033 0.0
C359 C 0.50734 0.49841 0.77248 0.0
C360 C 0.53178 0.48238 0.77844 0.0
C361 C 0.53512 0.47232 0.80064 0.0
C362 C 0.514 0.47791 0.81673 0.0
C363 C 0.48917 0.49314 0.81114 0.0
C364 C 0.48619 0.5038 0.78899 0.0
O365 O 0.51176 0.53922 0.65748 0.0
O366 O 0.52764 0.54978 0.69238 0.0
O367 O 0.54121 0.48228 0.62168 0.0
O368 O 0.49649 0.49001 0.62375 0.0
C369 C 0.51747 0.48332 0.61032 0.0
O370 O 0.46736 0.48502 0.69106 0.0
O371 O 0.50334 0.46058 0.67356 0.0
O372 O 0.48485 0.52773 0.74309 0.0
O373 O 0.51535 0.49404 0.73155 0.0
H374 H 0.54774 0.47712 0.76581 0.0
H375 H 0.51618 0.46834 0.83335 0.0
H376 H 0.46685 0.5151 0.78433 0.0
O377 O 0.98935 0.48903 0.16011 0.0
Tb378 Tb 0.02737 0.46629 0.14991 0.0
Eu379 Eu 0.01456 0.47114 0.20364 0.0
C380 C 0.96518 0.48109 0.15072 0.0
O381 O 0.96535 0.4604 0.13568 0.0
C382 C 0.98796 0.42245 0.17106 0.0
O383 O 0.05022 0.43967 0.19816 0.0
C384 C 0.00053 0.48113 0.24553 0.0
C385 C 0.07726 0.44581 0.20185 0.0
O386 O 0.08386 0.46912 0.21312 0.0
C387 C 0.0591 0.5093 0.17712 0.0
C388 C 0.00481 0.50245 0.26396 0.0
C389 C 0.98103 0.51781 0.2726 0.0
C390 C 0.98465 0.53793 0.29013 0.0
C391 C 0.01193 0.54193 0.29924 0.0
C392 C 0.0355 0.52663 0.29135 0.0
C393 C 0.0321 0.50691 0.27367 0.0
O394 O 0.01219 0.4245 0.15986 0.0
O395 O 0.98161 0.44174 0.18674 0.0
O396 O 0.01635 0.49033 0.11976 0.0
O397 O 0.04287 0.4536 0.11632 0.0
C398 C 0.03031 0.47447 0.10559 0.0
O399 O 0.03548 0.5115 0.18924 0.0
O400 O 0.06374 0.48586 0.16565 0.0
O401 O 0.0225 0.46515 0.23961 0.0
O402 O 0.98474 0.48913 0.22821 0.0
H403 H 0.95989 0.51431 0.2656 0.0
H404 H 0.01486 0.5568 0.31308 0.0
H405 H 0.05056 0.49515 0.26766 0.0
O406 O 0.55952 0.52552 0.32501 0.0
Tb407 Tb 0.52568 0.49429 0.32674 0.0
Eu408 Eu 0.47756 0.45646 0.29668 0.0
C409 C 0.58526 0.51821 0.31831 0.0
O410 O 0.58938 0.49296 0.30916 0.0
C411 C 0.53458 0.43245 0.31589 0.0
O412 O 0.43956 0.42701 0.29768 0.0
C413 C 0.49678 0.47278 0.25741 0.0
C414 C 0.41353 0.43757 0.29849 0.0
O415 O 0.4096 0.46458 0.29323 0.0
C416 C 0.46478 0.51753 0.31922 0.0
C417 C 0.49467 0.49455 0.23918 0.0
C418 C 0.5189 0.51156 0.23399 0.0
C419 C 0.51796 0.53133 0.2161 0.0
C420 C 0.49317 0.53345 0.2031 0.0
C421 C 0.46932 0.51634 0.2075 0.0
C422 C 0.46976 0.49721 0.22579 0.0
O423 O 0.54279 0.45771 0.30895 0.0
O424 O 0.50717 0.42677 0.31543 0.0
O425 O 0.54204 0.49133 0.36109 0.0
O426 O 0.49978 0.47668 0.35435 0.0
C427 C 0.51928 0.47992 0.36986 0.0
O428 O 0.45528 0.49141 0.31601 0.0
O429 O 0.49204 0.52371 0.31657 0.0
O430 O 0.47577 0.4542 0.25988 0.0
O431 O 0.50805 0.48106 0.27671 0.0
H432 H 0.53839 0.50936 0.24376 0.0
H433 H 0.49259 0.54838 0.18904 0.0
H434 H 0.45116 0.48404 0.22912 0.0
O435 O 0.94424 0.46115 0.82315 0.0
Tb436 Tb 0.9797 0.49048 0.82534 0.0
Eu437 Eu 0.01365 0.54045 0.80081 0.0
C438 C 0.92118 0.46754 0.8115 0.0
O439 O 0.92199 0.48872 0.79694 0.0
C440 C 0.95822 0.5528 0.82959 0.0
O441 O 0.05162 0.56974 0.79863 0.0
C442 C 0.9899 0.52609 0.76271 0.0
C443 C 0.05131 0.59458 0.80899 0.0
O444 O 0.02684 0.60464 0.81648 0.0
C445 C 0.03932 0.47956 0.80998 0.0
C446 C 0.99452 0.50775 0.74261 0.0
C447 C 0.97129 0.49189 0.73381 0.0
C448 C 0.97453 0.47571 0.71391 0.0
C449 C 0.00111 0.47527 0.70313 0.0
C450 C 0.02457 0.4901 0.71195 0.0
C451 C 0.02142 0.50626 0.73181 0.0
O452 O 0.95095 0.52713 0.82254 0.0
O453 O 0.98425 0.56228 0.82577 0.0
O454 O 0.98588 0.47087 0.85831 0.0
O455 O 0.00345 0.51225 0.85215 0.0
C456 C 0.00071 0.49178 0.86687 0.0
O457 O 0.04385 0.50681 0.81357 0.0
O458 O 0.01325 0.47144 0.80495 0.0
O459 O 0.00626 0.54888 0.76508 0.0
O460 O 0.98466 0.51285 0.78186 0.0
H461 H 0.95066 0.49256 0.74218 0.0
H462 H 0.00381 0.46258 0.68792 0.0
H463 H 0.0396 0.51781 0.73858 0.0
H464 H 0.99014 0.94524 0.89159 0.0
H465 H 0.98775 0.93325 0.93216 0.0
H466 H 0.03078 0.01231 0.94825 0.0
H467 H 0.03269 0.02457 0.90822 0.0
H468 H 0.05449 0.96011 0.9687 0.0
H469 H 0.96408 0.00903 0.95308 0.0
H470 H 0.91698 0.01313 0.9346 0.0
H471 H 0.89101 0.93345 0.96431 0.0
H472 H 0.93815 0.92883 0.98274 0.0
H473 H 0.04684 0.01134 0.07733 0.0
H474 H 0.04432 0.00177 0.03695 0.0
H475 H 0.9784 0.9387 0.04862 0.0
H476 H 0.97966 0.94979 0.08925 0.0
H477 H 0.96492 0.96672 0.01345 0.0
H478 H 0.05003 0.91988 0.03428 0.0
H479 H 0.09639 0.91342 0.05344 0.0
H480 H 0.13248 0.98177 0.01426 0.0
H481 H 0.08626 0.98892 0.99504 0.0
C482 C 0.99875 0.96011 0.90389 0.0
C483 C 0.01164 0.98577 0.89689 0.0
C484 C 0.99755 0.95318 0.92693 0.0
C485 C 0.00941 0.97179 0.94304 0.0
C486 C 0.02183 0.99756 0.936 0.0
C487 C 0.02271 0.00461 0.91316 0.0
C488 C 0.00879 0.96523 0.96744 0.0
C489 C 0.03496 0.96137 0.97859 0.0
C490 C 0.98311 0.96554 0.98004 0.0
C491 C 0.95475 0.96847 0.96906 0.0
C492 C 0.94839 0.99234 0.95553 0.0
C493 C 0.92168 0.99476 0.94509 0.0
C494 C 0.90103 0.97351 0.94822 0.0
C495 C 0.90704 0.94986 0.96186 0.0
C496 C 0.93375 0.94736 0.97231 0.0
C497 C 0.03188 0.99537 0.07128 0.0
C498 C 0.01359 0.98114 0.08628 0.0
C499 C 0.03062 0.98967 0.0482 0.0
C500 C 0.0118 0.96882 0.03972 0.0
C501 C 0.9933 0.95465 0.05476 0.0
C502 C 0.99406 0.96092 0.07791 0.0
C503 C 0.0109 0.96307 0.01501 0.0
C504 C 0.98448 0.96447 0.00374 0.0
C505 C 0.03635 0.95974 1.00223 0.0
C506 C 0.06457 0.95496 0.01321 0.0
C507 C 0.06783 0.93357 0.02975 0.0
C508 C 0.09409 0.9298 0.04064 0.0
C509 C 0.11735 0.94719 0.03509 0.0
C510 C 0.11445 0.96829 0.01853 0.0
C511 C 0.08823 0.97216 0.00757 0.0
H512 H 0.13762 0.94432 0.04363 0.0
H513 H 0.88036 0.97539 0.94012 0.0
H514 H 0.2671 0.81173 0.33961 0.0
H515 H 0.26138 0.81431 0.2985 0.0
H516 H 0.25143 0.72256 0.29575 0.0
H517 H 0.25814 0.71987 0.33669 0.0
H518 H 0.28314 0.73956 0.26248 0.0
H519 H 0.19042 0.7689 0.29106 0.0
H520 H 0.15857 0.79782 0.31506 0.0
H521 H 0.19168 0.87478 0.28529 0.0
H522 H 0.22336 0.84612 0.26069 0.0
H523 H 0.21088 0.74358 0.15144 0.0
H524 H 0.2116 0.73975 0.19282 0.0
H525 H 0.26315 0.81581 0.19682 0.0
H526 H 0.26372 0.81904 0.15538 0.0
H527 H 0.20957 0.80333 0.22918 0.0
H528 H 0.32168 0.75586 0.23192 0.0
H529 H 0.35501 0.72528 0.21047 0.0
H530 H 0.28417 0.68131 0.18008 0.0
H531 H 0.25052 0.71061 0.20215 0.0
C532 C 0.26409 0.79212 0.33012 0.0
C533 C 0.2631 0.76559 0.34118 0.0
C534 C 0.26048 0.79364 0.30672 0.0
C535 C 0.25524 0.76869 0.29414 0.0
C536 C 0.25526 0.74209 0.30515 0.0
C537 C 0.25923 0.74055 0.32849 0.0
C538 C 0.24997 0.77015 0.26947 0.0
C539 C 0.26686 0.75328 0.25518 0.0
C540 C 0.22884 0.78818 0.26001 0.0
C541 C 0.2094 0.80543 0.27427 0.0
C542 C 0.19091 0.79199 0.28968 0.0
C543 C 0.17288 0.80835 0.30338 0.0
C544 C 0.17341 0.83818 0.30198 0.0
C545 C 0.19145 0.85168 0.28646 0.0
C546 C 0.2093 0.83539 0.27253 0.0
C547 C 0.22227 0.75958 0.16118 0.0
C548 C 0.23735 0.78166 0.15032 0.0
C549 C 0.22302 0.75711 0.18472 0.0
C550 C 0.23931 0.77631 0.19757 0.0
C551 C 0.25211 0.7998 0.18693 0.0
C552 C 0.25164 0.80216 0.1634 0.0
C553 C 0.24256 0.77246 0.22219 0.0
C554 C 0.22558 0.78929 0.23647 0.0
C555 C 0.26356 0.75413 0.23165 0.0
C556 C 0.28343 0.73656 0.21782 0.0
C557 C 0.31317 0.73973 0.2206 0.0
C558 C 0.33218 0.72245 0.20847 0.0
C559 C 0.32171 0.70166 0.19366 0.0
C560 C 0.29224 0.69784 0.19121 0.0
C561 C 0.27316 0.71493 0.20343 0.0
H562 H 0.33643 0.68828 0.18431 0.0
H563 H 0.15983 0.85087 0.31287 0.0
H564 H 0.42457 0.03817 0.41756 0.0
H565 H 0.40916 0.03359 0.45701 0.0
H566 H 0.49337 0.00348 0.47512 0.0
H567 H 0.50845 0.00718 0.43568 0.0
H568 H 0.45347 0.97266 0.49566 0.0
H569 H 0.47121 0.07481 0.48208 0.0
H570 H 0.46143 0.1199 0.46185 0.0
H571 H 0.37354 0.11635 0.48278 0.0
H572 H 0.38277 0.07102 0.50292 0.0
H573 H 0.48227 0.04325 0.60574 0.0
H574 H 0.47073 0.04865 0.56567 0.0
H575 H 0.40671 0.98253 0.57143 0.0
H576 H 0.41834 0.97694 0.61164 0.0
H577 H 0.42383 0.05927 0.53819 0.0
H578 H 0.41702 0.9387 0.52579 0.0
H579 H 0.43133 0.89344 0.54413 0.0
H580 H 0.5034 0.93547 0.57451 0.0
H581 H 0.48964 0.98085 0.55622 0.0
C582 C 0.43967 0.03045 0.42998 0.0
C583 C 0.4677 0.02312 0.42369 0.0
C584 C 0.43087 0.02789 0.45248 0.0
C585 C 0.45018 0.01839 0.46902 0.0
C586 C 0.47808 0.01075 0.46261 0.0
C587 C 0.48676 0.01304 0.44013 0.0
C588 C 0.44213 0.0172 0.49322 0.0
C589 C 0.4465 0.99148 0.50489 0.0
C590 C 0.43285 0.04171 0.50523 0.0
C591 C 0.42761 0.06943 0.49381 0.0
C592 C 0.4498 0.08363 0.48231 0.0
C593 C 0.44434 0.1092 0.47086 0.0
C594 C 0.41686 0.12094 0.47097 0.0
C595 C 0.39481 0.10721 0.48267 0.0
C596 C 0.40014 0.08159 0.49413 0.0
C597 C 0.46532 0.03031 0.59856 0.0
C598 C 0.45152 0.00935 0.61155 0.0
C599 C 0.45859 0.03356 0.57573 0.0
C600 C 0.43809 0.01579 0.56557 0.0
C601 C 0.42274 0.9963 0.57896 0.0
C602 C 0.42944 0.99308 0.60185 0.0
C603 C 0.43617 0.01498 0.54062 0.0
C604 C 0.42981 0.04023 0.52882 0.0
C605 C 0.44399 0.99014 0.52843 0.0
C606 C 0.45214 0.96314 0.53983 0.0
C607 C 0.4359 0.93823 0.5364 0.0
C608 C 0.44394 0.91257 0.54675 0.0
C609 C 0.46833 0.91159 0.56038 0.0
C610 C 0.48456 0.93628 0.5639 0.0
C611 C 0.47662 0.96197 0.5536 0.0
H612 H 0.4747 0.8917 0.56822 0.0
H613 H 0.41265 0.14069 0.46202 0.0
H614 H 0.21409 0.28619 0.6351 0.0
H615 H 0.20654 0.29771 0.67536 0.0
H616 H 0.25056 0.22029 0.69423 0.0
H617 H 0.25912 0.20935 0.65441 0.0
H618 H 0.19089 0.23391 0.71472 0.0
H619 H 0.28893 0.27055 0.70028 0.0
H620 H 0.3209 0.30186 0.67814 0.0
H621 H 0.27012 0.37485 0.6963 0.0
H622 H 0.23771 0.34384 0.71841 0.0
H623 H 0.24125 0.21436 0.82267 0.0
H624 H 0.23359 0.22023 0.78227 0.0
H625 H 0.22141 0.31099 0.79169 0.0
H626 H 0.23043 0.30525 0.83246 0.0
H627 H 0.2537 0.30198 0.75581 0.0
H628 H 0.16436 0.26569 0.78013 0.0
H629 H 0.13053 0.23434 0.80033 0.0
H630 H 0.15972 0.16227 0.76168 0.0
H631 H 0.1943 0.19289 0.74178 0.0
C632 C 0.22209 0.27172 0.64792 0.0
C633 C 0.23692 0.24675 0.64181 0.0
C634 C 0.21778 0.2783 0.67077 0.0
C635 C 0.22785 0.25968 0.68756 0.0
C636 C 0.24249 0.23473 0.6814 0.0
C637 C 0.24731 0.22851 0.65872 0.0
C638 C 0.22369 0.26584 0.71175 0.0
C639 C 0.2044 0.24885 0.72384 0.0
C640 C 0.24065 0.28616 0.72322 0.0
C641 C 0.26083 0.3049 0.71083 0.0
C642 C 0.28457 0.29327 0.69949 0.0
C643 C 0.30275 0.31095 0.68695 0.0
C644 C 0.2975 0.34032 0.68575 0.0
C645 C 0.27416 0.3521 0.69723 0.0
C646 C 0.25591 0.33449 0.70981 0.0
C647 C 0.23671 0.23555 0.81619 0.0
C648 C 0.23622 0.25933 0.83062 0.0
C649 C 0.23217 0.23889 0.79309 0.0
C650 C 0.22624 0.26597 0.78397 0.0
C651 C 0.22574 0.28988 0.79838 0.0
C652 C 0.23079 0.28658 0.8216 0.0
C653 C 0.22172 0.26886 0.75923 0.0
C654 C 0.23937 0.2876 0.74691 0.0
C655 C 0.20291 0.25027 0.74747 0.0
C656 C 0.18204 0.23166 0.75947 0.0
C657 C 0.16375 0.24311 0.77607 0.0
C658 C 0.14445 0.22542 0.78752 0.0
C659 C 0.14303 0.19629 0.78238 0.0
C660 C 0.1609 0.18478 0.76576 0.0
C661 C 0.18035 0.20231 0.75437 0.0
H662 H 0.12804 0.18265 0.79122 0.0
H663 H 0.31153 0.35396 0.67594 0.0
H664 H 0.71383 0.23705 0.86986 0.0
H665 H 0.70859 0.23553 0.82905 0.0
H666 H 0.79489 0.26771 0.82155 0.0
H667 H 0.79874 0.27186 0.86244 0.0
H668 H 0.76855 0.2951 0.79561 0.0
H669 H 0.76148 0.18743 0.80256 0.0
H670 H 0.73941 0.14282 0.81678 0.0
H671 H 0.65617 0.17421 0.7991 0.0
H672 H 0.67776 0.21858 0.78423 0.0
H673 H 0.78526 0.22916 0.68198 0.0
H674 H 0.78193 0.23021 0.72328 0.0
H675 H 0.71158 0.28955 0.71904 0.0
H676 H 0.71527 0.28917 0.67755 0.0
H677 H 0.72284 0.21956 0.74924 0.0
H678 H 0.73181 0.32767 0.74324 0.0
H679 H 0.7553 0.37049 0.72732 0.0
H680 H 0.83771 0.33527 0.74314 0.0
H681 H 0.81461 0.29214 0.75894 0.0
C682 C 0.73167 0.24362 0.85938 0.0
C683 C 0.7566 0.25474 0.86918 0.0
C684 C 0.7289 0.24232 0.83586 0.0
C685 C 0.75136 0.25139 0.82166 0.0
C686 C 0.77684 0.26114 0.83179 0.0
C687 C 0.77915 0.26347 0.85523 0.0
C688 C 0.74791 0.2536 0.79655 0.0
C689 C 0.75886 0.27814 0.78571 0.0
C690 C 0.73398 0.23259 0.78311 0.0
C691 C 0.72117 0.20634 0.79261 0.0
C692 C 0.73847 0.18482 0.80186 0.0
C693 C 0.72607 0.15957 0.80994 0.0
C694 C 0.69643 0.15583 0.80909 0.0
C695 C 0.67911 0.17717 0.79986 0.0
C696 C 0.69141 0.20225 0.79146 0.0
C697 C 0.76913 0.24249 0.68985 0.0
C698 C 0.75049 0.25907 0.67668 0.0
C699 C 0.7673 0.2431 0.71338 0.0
C700 C 0.74672 0.26017 0.72409 0.0
C701 C 0.72788 0.27661 0.71101 0.0
C702 C 0.7299 0.27625 0.6874 0.0
C703 C 0.74483 0.25991 0.74897 0.0
C704 C 0.73264 0.23609 0.75956 0.0
C705 C 0.75774 0.28135 0.7622 0.0
C706 C 0.77155 0.30662 0.75191 0.0
C707 C 0.75493 0.32894 0.74302 0.0
C708 C 0.76816 0.35331 0.73416 0.0
C709 C 0.79797 0.3556 0.73425 0.0
C710 C 0.81462 0.33346 0.74308 0.0
C711 C 0.80149 0.30906 0.75196 0.0
H712 H 0.80818 0.37452 0.72747 0.0
H713 H 0.68692 0.13633 0.81547 0.0
H714 H 0.79598 0.72702 0.14722 0.0
H715 H 0.80038 0.73308 0.18801 0.0
H716 H 0.71137 0.75705 0.19185 0.0
H717 H 0.70741 0.75204 0.15052 0.0
H718 H 0.73979 0.79056 0.21724 0.0
H719 H 0.73787 0.68785 0.21381 0.0
H720 H 0.75092 0.63944 0.20088 0.0
H721 H 0.83892 0.65563 0.21708 0.0
H722 H 0.82625 0.70384 0.23087 0.0
H723 H 0.73567 0.77205 0.33679 0.0
H724 H 0.72906 0.76617 0.29609 0.0
H725 H 0.82057 0.76404 0.28685 0.0
H726 H 0.82733 0.7702 0.32782 0.0
H727 H 0.78941 0.71885 0.26504 0.0
H728 H 0.78717 0.82161 0.27218 0.0
H729 H 0.76992 0.86668 0.289 0.0
H730 H 0.6846 0.84789 0.26661 0.0
H731 H 0.70124 0.80241 0.25003 0.0
C732 C 0.77728 0.7331 0.15688 0.0
C733 C 0.75135 0.73871 0.14595 0.0
C734 C 0.77973 0.7364 0.18019 0.0
C735 C 0.75604 0.7447 0.19319 0.0
C736 C 0.72995 0.75044 0.18222 0.0
C737 C 0.72766 0.74763 0.15869 0.0
C738 C 0.75928 0.74875 0.21799 0.0
C739 C 0.75017 0.77462 0.22772 0.0
C740 C 0.77333 0.72827 0.23172 0.0
C741 C 0.78114 0.69948 0.22319 0.0
C742 C 0.76002 0.68112 0.21452 0.0
C743 C 0.76734 0.6537 0.20709 0.0
C744 C 0.79577 0.64457 0.20791 0.0
C745 C 0.81691 0.66272 0.21646 0.0
C746 C 0.80964 0.69001 0.22424 0.0
C747 C 0.75438 0.77062 0.32606 0.0
C748 C 0.782 0.77176 0.33531 0.0
C749 C 0.75057 0.76728 0.30285 0.0
C750 C 0.77432 0.76488 0.28853 0.0
C751 C 0.802 0.766 0.29771 0.0
C752 C 0.80584 0.76966 0.32099 0.0
C753 C 0.77003 0.76054 0.26403 0.0
C754 C 0.77896 0.73466 0.25445 0.0
C755 C 0.7553 0.78074 0.2506 0.0
C756 C 0.74542 0.80848 0.26001 0.0
C757 C 0.7647 0.82699 0.27096 0.0
C758 C 0.75503 0.85262 0.28045 0.0
C759 C 0.72617 0.86012 0.27891 0.0
C760 C 0.70694 0.84204 0.2678 0.0
C761 C 0.71649 0.81635 0.25834 0.0
H762 H 0.71872 0.87995 0.28629 0.0
H763 H 0.8014 0.62341 0.20196 0.0
H764 H 0.56164 0.4708 0.40007 0.0
H765 H 0.55711 0.46541 0.44105 0.0
H766 H 0.46528 0.47038 0.43531 0.0
H767 H 0.46972 0.47517 0.39399 0.0
H768 H 0.49438 0.51229 0.46536 0.0
H769 H 0.48235 0.40254 0.468 0.0
H770 H 0.49607 0.35311 0.458 0.0
H771 H 0.58488 0.37618 0.46172 0.0
H772 H 0.57155 0.42552 0.47233 0.0
H773 H 0.47037 0.49138 0.58395 0.0
H774 H 0.46774 0.48848 0.54257 0.0
H775 H 0.55728 0.46633 0.53996 0.0
H776 H 0.55996 0.46909 0.58122 0.0
H777 H 0.5254 0.43151 0.51383 0.0
H778 H 0.53679 0.5317 0.52572 0.0
H779 H 0.52614 0.57942 0.54131 0.0
H780 H 0.44341 0.57787 0.50983 0.0
H781 H 0.45341 0.5299 0.4943 0.0
C782 C 0.54047 0.47024 0.40753 0.0
C783 C 0.51601 0.47352 0.39404 0.0
C784 C 0.53791 0.46691 0.43087 0.0
C785 C 0.51087 0.46723 0.44111 0.0
C786 C 0.4863 0.4698 0.42761 0.0
C787 C 0.48885 0.47258 0.40412 0.0
C788 C 0.50883 0.46855 0.466 0.0
C789 C 0.50055 0.49447 0.47605 0.0
C790 C 0.51795 0.44576 0.4798 0.0
C791 C 0.52599 0.41763 0.47054 0.0
C792 C 0.50477 0.39708 0.46635 0.0
C793 C 0.51247 0.36904 0.46089 0.0
C794 C 0.54133 0.36149 0.4593 0.0
C795 C 0.56255 0.38204 0.46298 0.0
C796 C 0.55494 0.41 0.46877 0.0
C797 C 0.4894 0.48575 0.57449 0.0
C798 C 0.51533 0.4803 0.58565 0.0
C799 C 0.48793 0.48432 0.55092 0.0
C800 C 0.51237 0.4774 0.53826 0.0
C801 C 0.5382 0.47169 0.54946 0.0
C802 C 0.5397 0.47324 0.57298 0.0
C803 C 0.51098 0.47526 0.51334 0.0
C804 C 0.51875 0.44928 0.50327 0.0
C805 C 0.50194 0.4983 0.49958 0.0
C806 C 0.49569 0.527 0.50912 0.0
C807 C 0.51619 0.54137 0.52234 0.0
C808 C 0.51031 0.5685 0.53112 0.0
C809 C 0.48407 0.58162 0.52664 0.0
C810 C 0.46369 0.56764 0.51333 0.0
C811 C 0.46946 0.54048 0.50453 0.0
H812 H 0.47957 0.60264 0.53343 0.0
H813 H 0.54722 0.33973 0.45517 0.0
H814 H 0.99516 0.50934 0.08209 0.0
H815 H 0.99392 0.51695 0.04119 0.0
H816 H 0.06499 0.45912 0.03292 0.0
H817 H 0.06604 0.45096 0.07402 0.0
H818 H 0.06604 0.51486 0.00603 0.0
H819 H 0.0073 0.43093 0.02345 0.0
H820 H 0.96855 0.40611 0.04386 0.0
H821 H 0.90796 0.46801 0.01988 0.0
H822 H 0.94648 0.49343 0.9995 0.0
H823 H 0.00929 0.44685 0.89468 0.0
H824 H 0.01873 0.44833 0.93529 0.0
H825 H 0.02186 0.54055 0.93291 0.0
H826 H 0.01321 0.53904 0.89198 0.0
H827 H 0.98329 0.4721 0.96568 0.0
H828 H 0.05905 0.56425 0.97535 0.0
H829 H 0.09654 0.58981 0.95399 0.0
H830 H 0.12272 0.51094 0.92303 0.0
H831 H 0.08518 0.48499 0.94409 0.0
C832 C 0.01068 0.49841 0.07157 0.0
C833 C 0.03063 0.47945 0.08107 0.0
C834 C 0.00998 0.50287 0.04828 0.0
C835 C 0.02945 0.4887 0.03419 0.0
C836 C 0.04998 0.47038 0.04367 0.0
C837 C 0.05041 0.46556 0.06701 0.0
C838 C 0.02674 0.49114 0.00944 0.0
C839 C 0.04801 0.50551 0.99716 0.0
C840 C 0.00294 0.47941 0.99802 0.0
C841 C 0.97979 0.46422 0.01019 0.0
C842 C 0.98577 0.43939 0.0227 0.0
C843 C 0.96386 0.42519 0.03421 0.0
C844 C 0.93588 0.43553 0.03316 0.0
C845 C 0.92969 0.46008 0.02064 0.0
C846 C 0.95153 0.47437 0.00911 0.0
C847 C 0.01264 0.46737 0.90277 0.0
C848 C 0.01056 0.49282 0.89038 0.0
C849 C 0.01787 0.46823 0.92593 0.0
C850 C 0.02095 0.49453 0.93709 0.0
C851 C 0.01994 0.52002 0.92456 0.0
C852 C 0.01502 0.51915 0.90125 0.0
C853 C 0.02311 0.49493 0.96203 0.0
C854 C 0.00139 0.48148 0.97447 0.0
C855 C 0.04638 0.50763 0.97352 0.0
C856 C 0.0694 0.52277 0.96124 0.0
C857 C 0.07295 0.55239 0.96407 0.0
C858 C 0.09411 0.56694 0.95197 0.0
C859 C 0.11204 0.55201 0.93718 0.0
C860 C 0.1088 0.52249 0.93445 0.0
C861 C 0.08753 0.50786 0.9464 0.0
H862 H 0.12843 0.56331 0.92783 0.0
H863 H 0.91902 0.42442 0.04198 0.0
H864 H 0.18766 0.19539 0.02666 0.0
H865 H 0.15595 0.16255 0.04716 0.0
H866 H 0.18973 0.19355 0.11057 0.0
H867 H 0.22235 0.22466 0.09024 0.0
H868 H 0.17668 0.14438 0.11795 0.0
H869 H 0.12378 0.21978 0.08289 0.0
H870 H 0.1068 0.24996 0.05144 0.0
H871 H 0.06963 0.17636 0.01938 0.0
H872 H 0.08673 0.14571 0.05054 0.0
H873 H 0.05635 0.10461 0.18613 0.0
H874 H 0.09164 0.1337 0.16578 0.0
H875 H 0.06502 0.09534 0.10279 0.0
H876 H 0.02876 0.0679 0.1227 0.0
H877 H 0.07457 0.14827 0.09571 0.0
H878 H 0.1267 0.07563 0.13944 0.0
H879 H 0.14238 0.05341 0.17536 0.0
H880 H 0.17987 0.13277 0.19636 0.0
H881 H 0.16376 0.15567 0.16107 0.0
C882 C 0.18881 0.19454 0.04495 0.0
C883 C 0.20706 0.21311 0.05682 0.0
C884 C 0.17032 0.17611 0.05672 0.0
C885 C 0.16934 0.17636 0.08058 0.0
C886 C 0.18944 0.19309 0.09226 0.0
C887 C 0.20807 0.21111 0.08056 0.0
C888 C 0.14662 0.16073 0.09355 0.0
C889 C 0.15433 0.14547 0.11311 0.0
C890 C 0.11728 0.1621 0.08758 0.0
C891 C 0.10681 0.18044 0.06889 0.0
C892 C 0.11214 0.21004 0.06906 0.0
C893 C 0.10249 0.22722 0.05129 0.0
C894 C 0.08722 0.21507 0.03338 0.0
C895 C 0.08151 0.18573 0.03324 0.0
C896 C 0.09116 0.16844 0.05095 0.0
C897 C 0.05785 0.10266 0.16791 0.0
C898 C 0.03988 0.08369 0.15612 0.0
C899 C 0.07826 0.1191 0.15628 0.0
C900 C 0.08173 0.11622 0.13271 0.0
C901 C 0.06307 0.09796 0.12093 0.0
C902 C 0.04226 0.08218 0.13242 0.0
C903 C 0.10466 0.13179 0.12002 0.0
C904 C 0.09695 0.14708 0.10048 0.0
C905 C 0.13385 0.1315 0.12663 0.0
C906 C 0.14385 0.11735 0.14765 0.0
C907 C 0.13822 0.08829 0.15176 0.0
C908 C 0.14714 0.07561 0.172 0.0
C909 C 0.16216 0.09161 0.18803 0.0
C910 C 0.16825 0.12037 0.18393 0.0
C911 C 0.15916 0.13323 0.16385 0.0
H912 H 0.16905 0.08171 0.20365 0.0
H913 H 0.07977 0.2284 0.01964 0.0
H914 H 0.06672 0.96602 0.30327 0.0
H915 H 0.09971 0.9349 0.32429 0.0
H916 H 0.04057 0.86463 0.317 0.0
H917 H 0.00838 0.89511 0.29546 0.0
H918 H 0.09371 0.9095 0.36349 0.0
H919 H 0.0741 0.80119 0.31556 0.0
H920 H 0.06769 0.78412 0.27642 0.0
H921 H 0.1079 0.86023 0.25113 0.0
H922 H 0.11488 0.8776 0.29008 0.0
H923 H 0.14249 0.79576 0.43473 0.0
H924 H 0.11365 0.82829 0.41139 0.0
H925 H 0.16752 0.80954 0.35396 0.0
H926 H 0.1941 0.77536 0.3763 0.0
H927 H 0.11896 0.8113 0.33913 0.0
H928 H 0.16985 0.87505 0.38886 0.0
H929 H 0.18512 0.89516 0.42558 0.0
H930 H 0.09779 0.91381 0.44238 0.0
H931 H 0.08195 0.89357 0.40592 0.0
C932 C 0.06122 0.94372 0.30564 0.0
C933 C 0.03498 0.93301 0.29769 0.0
C934 C 0.07989 0.92605 0.3179 0.0
C935 C 0.07271 0.89734 0.32225 0.0
C936 C 0.04689 0.88652 0.31368 0.0
C937 C 0.0284 0.90403 0.30142 0.0
C938 C 0.09139 0.87873 0.33643 0.0
C939 C 0.09956 0.88812 0.35807 0.0
C940 C 0.0994 0.85095 0.32934 0.0
C941 C 0.09467 0.84086 0.30579 0.0
C942 C 0.08158 0.81429 0.30166 0.0
C943 C 0.07786 0.80455 0.27949 0.0
C944 C 0.08728 0.82113 0.2613 0.0
C945 C 0.10045 0.84748 0.26523 0.0
C946 C 0.10419 0.85733 0.28735 0.0
C947 C 0.14776 0.79834 0.41701 0.0
C948 C 0.17046 0.78285 0.40739 0.0
C949 C 0.13153 0.81723 0.40371 0.0
C950 C 0.13845 0.8218 0.38078 0.0
C951 C 0.16122 0.80625 0.37136 0.0
C952 C 0.17657 0.78665 0.38429 0.0
C953 C 0.12197 0.84208 0.36617 0.0
C954 C 0.11368 0.83282 0.3445 0.0
C955 C 0.1152 0.87043 0.37284 0.0
C956 C 0.12471 0.88254 0.39477 0.0
C957 C 0.15391 0.88327 0.40046 0.0
C958 C 0.16266 0.89471 0.4212 0.0
C959 C 0.14244 0.90566 0.4363 0.0
C960 C 0.11342 0.90528 0.43068 0.0
C961 C 0.10455 0.89385 0.40998 0.0
H962 H 0.14927 0.9145 0.45234 0.0
H963 H 0.08443 0.81352 0.24415 0.0
H964 H 0.27937 0.7987 0.591 0.0
H965 H 0.31428 0.8298 0.60933 0.0
H966 H 0.36091 0.83671 0.54656 0.0
H967 H 0.32592 0.80504 0.52821 0.0
H968 H 0.39557 0.82073 0.5786 0.0
H969 H 0.32979 0.89618 0.57159 0.0
H970 H 0.28459 0.92322 0.57318 0.0
H971 H 0.28189 0.9131 0.64531 0.0
H972 H 0.32692 0.8857 0.64416 0.0
H973 H 0.49081 0.92429 0.63033 0.0
H974 H 0.45442 0.90188 0.60661 0.0
H975 H 0.41511 0.86482 0.66557 0.0
H976 H 0.4519 0.88674 0.68965 0.0
H977 H 0.37817 0.89997 0.63267 0.0
H978 H 0.44666 0.8222 0.63651 0.0
H979 H 0.49454 0.80091 0.63204 0.0
H980 H 0.49366 0.82136 0.56126 0.0
H981 H 0.44591 0.84314 0.56537 0.0
C982 C 0.29658 0.80761 0.58094 0.0
C983 C 0.29996 0.7995 0.55819 0.0
C984 C 0.31654 0.82547 0.59142 0.0
C985 C 0.34034 0.8357 0.57939 0.0
C986 C 0.34276 0.82909 0.55623 0.0
C987 C 0.32264 0.81124 0.54568 0.0
C988 C 0.36414 0.85011 0.59176 0.0
C989 C 0.39177 0.83843 0.59008 0.0
C990 C 0.35932 0.87303 0.60699 0.0
C991 C 0.33164 0.8886 0.60775 0.0
C992 C 0.31939 0.89939 0.58777 0.0
C993 C 0.29384 0.91488 0.5886 0.0
C994 C 0.28035 0.91982 0.60932 0.0
C995 C 0.29236 0.90924 0.62926 0.0
C996 C 0.31792 0.89375 0.62854 0.0
C997 C 0.47477 0.91095 0.63831 0.0
C998 C 0.47418 0.90748 0.66197 0.0
C999 C 0.45397 0.89822 0.62466 0.0
C1000 C 0.43208 0.88183 0.63432 0.0
C1001 C 0.43182 0.87753 0.65782 0.0
C1002 C 0.45296 0.8899 0.67153 0.0
C1003 C 0.40903 0.87001 0.61983 0.0
C1004 C 0.38172 0.88232 0.62109 0.0
C1005 C 0.41429 0.84817 0.60382 0.0
C1006 C 0.4429 0.83479 0.60134 0.0
C1007 C 0.45681 0.8225 0.62005 0.0
C1008 C 0.4839 0.81024 0.61756 0.0
C1009 C 0.49721 0.80991 0.5964 0.0
C1010 C 0.48337 0.82169 0.57766 0.0
C1011 C 0.45628 0.83397 0.58006 0.0
H1012 H 0.51819 0.80042 0.59451 0.0
H1013 H 0.26062 0.93191 0.60993 0.0
H1014 H 0.34737 0.19897 0.93122 0.0
H1015 H 0.3777 0.16582 0.90995 0.0
H1016 H 0.36661 0.21729 0.85001 0.0
H1017 H 0.33829 0.25134 0.8715 0.0
H1018 H 0.36805 0.13176 0.8784 0.0
H1019 H 0.41722 0.20903 0.81183 0.0
H1020 H 0.43448 0.25881 0.80942 0.0
H1021 H 0.45032 0.25943 0.88095 0.0
H1022 H 0.43349 0.20956 0.88374 0.0
H1023 H 0.43396 0.04059 0.79731 0.0
H1024 H 0.40343 0.07728 0.81447 0.0
H1025 H 0.47854 0.12624 0.8321 0.0
H1026 H 0.50827 0.09206 0.81263 0.0
H1027 H 0.44354 0.16156 0.82449 0.0
H1028 H 0.43574 0.0761 0.87046 0.0
H1029 H 0.42407 0.02563 0.8785 0.0
H1030 H 0.33721 0.03999 0.85778 0.0
H1031 H 0.34837 0.09043 0.84967 0.0
C1032 C 0.3521 0.20363 0.91367 0.0
C1033 C 0.34029 0.22782 0.90309 0.0
C1034 C 0.36918 0.18443 0.9014 0.0
C1035 C 0.37474 0.1889 0.87825 0.0
C1036 C 0.36346 0.21347 0.86789 0.0
C1037 C 0.34703 0.23297 0.88025 0.0
C1038 C 0.39148 0.16752 0.86478 0.0
C1039 C 0.38476 0.13832 0.86677 0.0
C1040 C 0.41344 0.17572 0.84957 0.0
C1041 C 0.42381 0.20566 0.84801 0.0
C1042 C 0.42448 0.21976 0.82702 0.0
C1043 C 0.43417 0.248 0.8256 0.0
C1044 C 0.4434 0.2623 0.84503 0.0
C1045 C 0.44306 0.24836 0.86592 0.0
C1046 C 0.43342 0.22013 0.86744 0.0
C1047 C 0.44385 0.05957 0.8043 0.0
C1048 C 0.47379 0.06277 0.80406 0.0
C1049 C 0.42637 0.08036 0.81459 0.0
C1050 C 0.43851 0.10433 0.8255 0.0
C1051 C 0.46827 0.10809 0.82413 0.0
C1052 C 0.48547 0.08805 0.8132 0.0
C1053 C 0.42093 0.12551 0.83863 0.0
C1054 C 0.42713 0.15484 0.83631 0.0
C1055 C 0.39957 0.11726 0.8544 0.0
C1056 C 0.39294 0.08691 0.85925 0.0
C1057 C 0.41418 0.06841 0.86756 0.0
C1058 C 0.40764 0.03982 0.87218 0.0
C1059 C 0.37989 0.02957 0.86869 0.0
C1060 C 0.35864 0.04791 0.8606 0.0
C1061 C 0.36505 0.0765 0.856 0.0
H1062 H 0.37485 0.00743 0.87227 0.0
H1063 H 0.45087 0.28416 0.84389 0.0
H1064 H 0.16162 0.76962 0.95939 0.0
H1065 H 0.13033 0.80067 0.93708 0.0
H1066 H 0.20291 0.85291 0.91902 0.0
H1067 H 0.2342 0.82184 0.94161 0.0
H1068 H 0.15494 0.88528 0.92398 0.0
H1069 H 0.18149 0.79952 0.88526 0.0
H1070 H 0.18679 0.74761 0.8792 0.0
H1071 H 0.09566 0.73715 0.88248 0.0
H1072 H 0.08982 0.78893 0.8891 0.0
H1073 H 0.09512 0.94648 0.82545 0.0
H1074 H 0.12616 0.91881 0.85038 0.0
H1075 H 0.05513 0.86439 0.86817 0.0
H1076 H 0.02398 0.89167 0.84286 0.0
H1077 H 0.10301 0.83353 0.86322 0.0
H1078 H 0.07735 0.91966 0.90377 0.0
H1079 H 0.07288 0.97182 0.90845 0.0
H1080 H 0.1635 0.98155 0.89983 0.0
H1081 H 0.16857 0.92936 0.89501 0.0
C1082 C 0.17065 0.7883 0.95127 0.0
C1083 C 0.20021 0.79349 0.95226 0.0
C1084 C 0.15286 0.80586 0.93834 0.0
C1085 C 0.16437 0.82872 0.9259 0.0
C1086 C 0.19356 0.83531 0.92837 0.0
C1087 C 0.21139 0.81774 0.94141 0.0
C1088 C 0.14649 0.84415 0.90901 0.0
C1089 C 0.14383 0.87398 0.91057 0.0
C1090 C 0.13172 0.8294 0.89158 0.0
C1091 C 0.13523 0.79814 0.88787 0.0
C1092 C 0.16258 0.78614 0.88492 0.0
C1093 C 0.16569 0.75673 0.88134 0.0
C1094 C 0.14157 0.73913 0.88037 0.0
C1095 C 0.11432 0.75084 0.88319 0.0
C1096 C 0.1111 0.78021 0.88688 0.0
C1097 C 0.08612 0.92837 0.8344 0.0
C1098 C 0.05697 0.92137 0.83217 0.0
C1099 C 0.1039 0.9127 0.84882 0.0
C1100 C 0.09289 0.88986 0.86158 0.0
C1101 C 0.06411 0.88201 0.85863 0.0
C1102 C 0.04632 0.89761 0.84409 0.0
C1103 C 0.11118 0.8746 0.87835 0.0
C1104 C 0.11402 0.84479 0.87671 0.0
C1105 C 0.12624 0.88935 0.8956 0.0
C1106 C 0.12331 0.92065 0.89887 0.0
C1107 C 0.09632 0.93293 0.90279 0.0
C1108 C 0.09367 0.9625 0.90548 0.0
C1109 C 0.11784 0.98002 0.90437 0.0
C1110 C 0.14478 0.96797 0.90068 0.0
C1111 C 0.14757 0.93838 0.89802 0.0
H1112 H 0.1157 0.00293 0.9064 0.0
H1113 H 0.14398 0.7164 0.87741 0.0
H1114 H 0.48124 0.90787 0.2216 0.0
H1115 H 0.45406 0.87466 0.19779 0.0
H1116 H 0.41088 0.94591 0.16655 0.0
H1117 H 0.43815 0.97917 0.19048 0.0
H1118 H 0.39834 0.86248 0.18922 0.0
H1119 H 0.40944 0.93067 0.10737 0.0
H1120 H 0.4406 0.9689 0.09258 0.0
H1121 H 0.5084 0.94157 0.13645 0.0
H1122 H 0.47827 0.9023 0.15064 0.0
H1123 H 0.30616 0.81111 0.1065 0.0
H1124 H 0.33306 0.8465 0.128 0.0
H1125 H 0.41168 0.81394 0.09981 0.0
H1126 H 0.38422 0.77854 0.07768 0.0
H1127 H 0.41154 0.87489 0.10646 0.0
H1128 H 0.38592 0.78879 0.14589 0.0
H1129 H 0.34765 0.75492 0.15615 0.0
H1130 H 0.31093 0.81745 0.20055 0.0
H1131 H 0.3464 0.85279 0.18847 0.0
C1132 C 0.46508 0.9163 0.21029 0.0
C1133 C 0.46137 0.94597 0.20809 0.0
C1134 C 0.44977 0.89737 0.19655 0.0
C1135 C 0.43085 0.90781 0.18008 0.0
C1136 C 0.42566 0.9374 0.17894 0.0
C1137 C 0.44087 0.95636 0.19283 0.0
C1138 C 0.41805 0.88786 0.16325 0.0
C1139 C 0.40118 0.86519 0.17113 0.0
C1140 C 0.4224 0.89107 0.13963 0.0
C1141 C 0.44135 0.91373 0.13033 0.0
C1142 C 0.43111 0.93258 0.11367 0.0
C1143 C 0.44865 0.95439 0.10533 0.0
C1144 C 0.47647 0.95766 0.11357 0.0
C1145 C 0.48689 0.93898 0.13003 0.0
C1146 C 0.46961 0.91686 0.13816 0.0
C1147 C 0.3291 0.81147 0.10485 0.0
C1148 C 0.34313 0.79149 0.09103 0.0
C1149 C 0.34449 0.83198 0.11693 0.0
C1150 C 0.37446 0.83254 0.11591 0.0
C1151 C 0.38856 0.81381 0.10095 0.0
C1152 C 0.37294 0.79348 0.08848 0.0
C1153 C 0.39077 0.85026 0.13245 0.0
C1154 C 0.40864 0.87222 0.12454 0.0
C1155 C 0.38744 0.84637 0.15613 0.0
C1156 C 0.36835 0.82389 0.16556 0.0
C1157 C 0.36934 0.79554 0.1575 0.0
C1158 C 0.34787 0.77615 0.1634 0.0
C1159 C 0.32623 0.7844 0.17827 0.0
C1160 C 0.32684 0.81147 0.1882 0.0
C1161 C 0.34748 0.83132 0.18164 0.0
H1162 H 0.30898 0.76982 0.18201 0.0
H1163 H 0.48997 0.97465 0.10718 0.0
H1164 H 0.33615 0.22618 0.47901 0.0
H1165 H 0.36851 0.19743 0.45552 0.0
H1166 H 0.29825 0.17648 0.41117 0.0
H1167 H 0.26585 0.20448 0.43512 0.0
H1168 H 0.33371 0.13266 0.41337 0.0
H1169 H 0.34286 0.23289 0.3996 0.0
H1170 H 0.35035 0.28352 0.40972 0.0
H1171 H 0.43437 0.26368 0.43449 0.0
H1172 H 0.42719 0.21282 0.42482 0.0
H1173 H 0.42269 0.09367 0.32032 0.0
H1174 H 0.38713 0.12093 0.34202 0.0
H1175 H 0.45197 0.14359 0.39074 0.0
H1176 H 0.48744 0.11731 0.36902 0.0
H1177 H 0.41719 0.18718 0.38461 0.0
H1178 H 0.40514 0.08444 0.39634 0.0
H1179 H 0.39448 0.0351 0.3839 0.0
H1180 H 0.31221 0.06192 0.35983 0.0
H1181 H 0.32256 0.11149 0.37153 0.0
C1182 C 0.32752 0.21441 0.46478 0.0
C1183 C 0.29854 0.21705 0.459 0.0
C1184 C 0.34603 0.19837 0.45116 0.0
C1185 C 0.33597 0.18536 0.43122 0.0
C1186 C 0.30656 0.18636 0.42638 0.0
C1187 C 0.28801 0.20216 0.44014 0.0
C1188 C 0.35629 0.17274 0.41455 0.0
C1189 C 0.35182 0.14468 0.40692 0.0
C1190 C 0.37989 0.18841 0.406 0.0
C1191 C 0.38439 0.21901 0.41167 0.0
C1192 C 0.36286 0.23929 0.40734 0.0
C1193 C 0.36705 0.26803 0.41298 0.0
C1194 C 0.3928 0.27679 0.42278 0.0
C1195 C 0.41442 0.25685 0.42691 0.0
C1196 C 0.41031 0.22806 0.42135 0.0
C1197 C 0.42948 0.10508 0.33533 0.0
C1198 C 0.45785 0.10293 0.34308 0.0
C1199 C 0.40907 0.1204 0.34788 0.0
C1200 C 0.41668 0.13372 0.36839 0.0
C1201 C 0.44543 0.13334 0.37513 0.0
C1202 C 0.46574 0.11822 0.36263 0.0
C1203 C 0.39489 0.14688 0.38362 0.0
C1204 C 0.39909 0.17514 0.39101 0.0
C1205 C 0.37073 0.13155 0.3916 0.0
C1206 C 0.36473 0.10171 0.38462 0.0
C1207 C 0.38487 0.07985 0.38824 0.0
C1208 C 0.37888 0.05188 0.38136 0.0
C1209 C 0.35271 0.04549 0.37117 0.0
C1210 C 0.33247 0.06697 0.36774 0.0
C1211 C 0.3384 0.09499 0.37445 0.0
H1212 H 0.34806 0.02392 0.36593 0.0
H1213 H 0.39601 0.29905 0.42713 0.0
H1214 H 0.03682 0.09692 0.72763 0.0
H1215 H 0.07062 0.1235 0.70402 0.0
H1216 H 0.10074 0.04436 0.67515 0.0
H1217 H 0.06694 0.01765 0.69897 0.0
H1218 H 0.14405 0.08914 0.67934 0.0
H1219 H 0.04753 0.07482 0.65228 0.0
H1220 H 0.9954 0.07776 0.6576 0.0
H1221 H 0.00057 0.16927 0.66122 0.0
H1222 H 0.05305 0.16684 0.65733 0.0
H1223 H 0.19612 0.15117 0.57688 0.0
H1224 H 0.17166 0.11987 0.6039 0.0
H1225 H 0.1199 0.19097 0.62605 0.0
H1226 H 0.1433 0.22185 0.59858 0.0
H1227 H 0.08806 0.14757 0.62514 0.0
H1228 H 0.18258 0.16433 0.65301 0.0
H1229 H 0.23521 0.16362 0.65454 0.0
H1230 H 0.23451 0.07187 0.65416 0.0
H1231 H 0.18204 0.07193 0.65112 0.0
C1232 C 0.05161 0.08515 0.71702 0.0
C1233 C 0.04938 0.05526 0.71515 0.0
C1234 C 0.07075 0.10035 0.70341 0.0
C1235 C 0.08777 0.08595 0.68749 0.0
C1236 C 0.08775 0.05589 0.68728 0.0
C1237 C 0.06858 0.04062 0.701 0.0
C1238 C 0.10206 0.10227 0.66905 0.0
C1239 C 0.13193 0.10165 0.66722 0.0
C1240 C 0.08609 0.11908 0.65364 0.0
C1241 C 0.05435 0.12062 0.65473 0.0
C1242 C 0.03764 0.09558 0.65437 0.0
C1243 C 0.008 0.09715 0.65716 0.0
C1244 C 0.99463 0.12367 0.65958 0.0
C1245 C 0.01094 0.14872 0.65933 0.0
C1246 C 0.04067 0.14725 0.65697 0.0
C1247 C 0.17918 0.16001 0.58724 0.0
C1248 C 0.1717 0.18909 0.58547 0.0
C1249 C 0.16539 0.14213 0.6029 0.0
C1250 C 0.14422 0.15306 0.61747 0.0
C1251 C 0.13613 0.18186 0.61512 0.0
C1252 C 0.14957 0.19958 0.5993 0.0
C1253 C 0.1305 0.13492 0.63531 0.0
C1254 C 0.10049 0.13505 0.63703 0.0
C1255 C 0.14647 0.11807 0.65085 0.0
C1256 C 0.17826 0.11815 0.65141 0.0
C1257 C 0.19364 0.14399 0.65268 0.0
C1258 C 0.22351 0.14371 0.65376 0.0
C1259 C 0.23826 0.11775 0.65416 0.0
C1260 C 0.22315 0.092 0.65345 0.0
C1261 C 0.19334 0.09214 0.65188 0.0
H1262 H 0.26138 0.11758 0.65517 0.0
H1263 H 0.97166 0.1248 0.66167 0.0
H1264 H 0.93419 0.90298 0.83834 0.0
H1265 H 0.90372 0.87968 0.86588 0.0
H1266 H 0.8288 0.91097 0.83109 0.0
H1267 H 0.85977 0.9366 0.80432 0.0
H1268 H 0.81969 0.91697 0.87262 0.0
H1269 H 0.85094 0.83457 0.83139 0.0
H1270 H 0.88581 0.80307 0.81238 0.0
H1271 H 0.93124 0.79234 0.87489 0.0
H1272 H 0.89651 0.82358 0.89431 0.0
H1273 H 0.7393 0.80814 0.93727 0.0
H1274 H 0.75916 0.84121 0.90902 0.0
H1275 H 0.83871 0.8436 0.94584 0.0
H1276 H 0.81887 0.81087 0.97404 0.0
H1277 H 0.84019 0.81923 0.90072 0.0
H1278 H 0.80549 0.90241 0.94118 0.0
H1279 H 0.76834 0.93274 0.95852 0.0
H1280 H 0.72552 0.93958 0.89452 0.0
H1281 H 0.7622 0.90891 0.87686 0.0
C1282 C 0.91122 0.90443 0.8362 0.0
C1283 C 0.89933 0.92126 0.81896 0.0
C1284 C 0.8937 0.8909 0.85197 0.0
C1285 C 0.86377 0.89276 0.85035 0.0
C1286 C 0.85179 0.90902 0.83271 0.0
C1287 C 0.86944 0.92344 0.8173 0.0
C1288 C 0.8454 0.87907 0.8679 0.0
C1289 C 0.82382 0.89536 0.87839 0.0
C1290 C 0.85072 0.85093 0.87572 0.0
C1291 C 0.87121 0.83151 0.86425 0.0
C1292 C 0.86837 0.82548 0.84106 0.0
C1293 C 0.88808 0.80763 0.83024 0.0
C1294 C 0.91075 0.79574 0.84242 0.0
C1295 C 0.91369 0.80158 0.86548 0.0
C1296 C 0.89388 0.81918 0.87644 0.0
C1297 C 0.76042 0.81706 0.93992 0.0
C1298 C 0.77754 0.80733 0.95784 0.0
C1299 C 0.77183 0.83571 0.92372 0.0
C1300 C 0.80045 0.8446 0.92531 0.0
C1301 C 0.81658 0.83697 0.94437 0.0
C1302 C 0.80517 0.81854 0.96056 0.0
C1303 C 0.81515 0.85735 0.90558 0.0
C1304 C 0.8359 0.8407 0.89464 0.0
C1305 C 0.80851 0.88476 0.89709 0.0
C1306 C 0.7864 0.90306 0.90776 0.0
C1307 C 0.78798 0.9101 0.93086 0.0
C1308 C 0.76705 0.92743 0.94073 0.0
C1309 C 0.74453 0.938 0.92765 0.0
C1310 C 0.74294 0.93133 0.90465 0.0
C1311 C 0.7638 0.91399 0.8947 0.0
H1312 H 0.72836 0.95144 0.93532 0.0
H1313 H 0.92602 0.78199 0.83399 0.0
H1314 H 0.8238 0.14226 0.54911 0.0
H1315 H 0.83852 0.10308 0.57423 0.0
H1316 H 0.89659 0.16004 0.60852 0.0
H1317 H 0.88296 0.19883 0.58321 0.0
H1318 H 0.905 0.0853 0.59129 0.0
H1319 H 0.85913 0.15245 0.6648 0.0
H1320 H 0.82015 0.18686 0.6718 0.0
H1321 H 0.7714 0.15005 0.61758 0.0
H1322 H 0.80949 0.11468 0.6109 0.0
H1323 H 0.95095 0.08964 0.71075 0.0
H1324 H 0.91934 0.10614 0.6807 0.0
H1325 H 0.90285 0.01877 0.66126 0.0
H1326 H 0.93577 0.00212 0.69087 0.0
H1327 H 0.8627 0.097 0.66776 0.0
H1328 H 0.90549 0.01331 0.61867 0.0
H1329 H 0.94736 0.98243 0.61128 0.0
H1330 H 0.00278 0.05558 0.61484 0.0
H1331 H 0.96114 0.08672 0.62247 0.0
C1332 C 0.84034 0.14618 0.56156 0.0
C1333 C 0.85207 0.17372 0.56424 0.0
C1334 C 0.84864 0.12382 0.5759 0.0
C1335 C 0.8682 0.12895 0.59341 0.0
C1336 C 0.88127 0.15582 0.59517 0.0
C1337 C 0.87351 0.17794 0.5806 0.0
C1338 C 0.87354 0.10745 0.61124 0.0
C1339 C 0.89508 0.08712 0.60782 0.0
C1340 C 0.86081 0.11023 0.63284 0.0
C1341 C 0.83747 0.13115 0.63709 0.0
C1342 C 0.84005 0.15159 0.65443 0.0
C1343 C 0.81806 0.17124 0.65839 0.0
C1344 C 0.79337 0.17071 0.64507 0.0
C1345 C 0.79065 0.1506 0.62775 0.0
C1346 C 0.81243 0.13071 0.6239 0.0
C1347 C 0.94012 0.07389 0.70037 0.0
C1348 C 0.94605 0.0446 0.70299 0.0
C1349 C 0.92207 0.08335 0.68317 0.0
C1350 C 0.90937 0.06376 0.66826 0.0
C1351 C 0.91316 0.03432 0.67209 0.0
C1352 C 0.9315 0.02479 0.68929 0.0
C1353 C 0.89436 0.07486 0.64791 0.0
C1354 C 0.87148 0.09395 0.65094 0.0
C1355 C 0.90559 0.07077 0.62589 0.0
C1356 C 0.93046 0.05211 0.62163 0.0
C1357 C 0.92668 0.02267 0.61807 0.0
C1358 C 0.95032 0.00516 0.61382 0.0
C1359 C 0.97774 0.017 0.61276 0.0
C1360 C 0.98156 0.0464 0.61583 0.0
C1361 C 0.95798 0.06395 0.6202 0.0
H1362 H 0.99602 0.00344 0.60944 0.0
H1363 H 0.77623 0.18568 0.64832 0.0
H1364 H 0.55743 0.09307 0.34435 0.0
H1365 H 0.59202 0.11542 0.36927 0.0
H1366 H 0.66093 0.07489 0.33273 0.0
H1367 H 0.6259 0.05099 0.30822 0.0
H1368 H 0.67264 0.07178 0.37462 0.0
H1369 H 0.64561 0.14959 0.3286 0.0
H1370 H 0.61408 0.18292 0.30809 0.0
H1371 H 0.57717 0.21064 0.37089 0.0
H1372 H 0.60817 0.17719 0.39177 0.0
H1373 H 0.75122 0.19508 0.43283 0.0
H1374 H 0.73513 0.16045 0.40428 0.0
H1375 H 0.66398 0.13752 0.44692 0.0
H1376 H 0.6802 0.17177 0.47549 0.0
H1377 H 0.66247 0.17346 0.39704 0.0
H1378 H 0.688 0.08726 0.4412 0.0
H1379 H 0.7231 0.05518 0.45919 0.0
H1380 H 0.76748 0.0463 0.39597 0.0
H1381 H 0.73286 0.07874 0.37772 0.0
C1382 C 0.57994 0.0891 0.34134 0.0
C1383 C 0.5889 0.07045 0.3241 0.0
C1384 C 0.5998 0.1021 0.3556 0.0
C1385 C 0.62925 0.09751 0.35262 0.0
C1386 C 0.63836 0.07897 0.33531 0.0
C1387 C 0.61834 0.06545 0.32123 0.0
C1388 C 0.65006 0.11123 0.36834 0.0
C1389 C 0.67054 0.09411 0.37929 0.0
C1390 C 0.64794 0.14055 0.37424 0.0
C1391 C 0.62914 0.16071 0.36175 0.0
C1392 C 0.63063 0.16264 0.33803 0.0
C1393 C 0.61287 0.18158 0.32634 0.0
C1394 C 0.5936 0.19885 0.33817 0.0
C1395 C 0.5921 0.19724 0.36174 0.0
C1396 C 0.6098 0.17832 0.37352 0.0
C1397 C 0.73325 0.18126 0.43667 0.0
C1398 C 0.71719 0.1856 0.45647 0.0
C1399 C 0.72396 0.16167 0.42031 0.0
C1400 C 0.69852 0.1463 0.42361 0.0
C1401 C 0.68398 0.14877 0.44428 0.0
C1402 C 0.69333 0.16818 0.46065 0.0
C1403 C 0.68347 0.13356 0.40405 0.0
C1404 C 0.66442 0.15115 0.3922 0.0
C1405 C 0.68725 0.10493 0.39713 0.0
C1406 C 0.70819 0.08584 0.40823 0.0
C1407 C 0.70551 0.07885 0.43124 0.0
C1408 C 0.72524 0.06048 0.44145 0.0
C1409 C 0.7476 0.04882 0.42876 0.0
C1410 C 0.75022 0.05543 0.40581 0.0
C1411 C 0.73056 0.0738 0.39553 0.0
H1412 H 0.76283 0.03458 0.43669 0.0
H1413 H 0.57987 0.2135 0.32909 0.0
H1414 H 0.60233 0.81904 0.08072 0.0
H1415 H 0.58802 0.86156 0.10159 0.0
H1416 H 0.66146 0.90696 0.07581 0.0
H1417 H 0.67632 0.86411 0.05514 0.0
H1418 H 0.65904 0.91162 0.12031 0.0
H1419 H 0.59192 0.92828 0.06063 0.0
H1420 H 0.55405 0.91633 0.03313 0.0
H1421 H 0.49805 0.8919 0.08739 0.0
H1422 H 0.53585 0.90301 0.11513 0.0
H1423 H 0.54406 0.01633 0.17557 0.0
H1424 H 0.57407 0.00094 0.14385 0.0
H1425 H 0.60605 0.93109 0.18422 0.0
H1426 H 0.57618 0.94662 0.21581 0.0
H1427 H 0.56091 0.95119 0.12557 0.0
H1428 H 0.66665 0.90413 0.16248 0.0
H1429 H 0.70401 0.9179 0.18981 0.0
H1430 H 0.68355 0.00654 0.18008 0.0
H1431 H 0.64634 0.99336 0.15244 0.0
C1432 C 0.61511 0.83824 0.079 0.0
C1433 C 0.64057 0.83806 0.06636 0.0
C1434 C 0.60681 0.86266 0.09091 0.0
C1435 C 0.62359 0.88757 0.09023 0.0
C1436 C 0.64819 0.88799 0.0766 0.0
C1437 C 0.65654 0.8635 0.06467 0.0
C1438 C 0.61687 0.91185 0.10558 0.0
C1439 C 0.63769 0.92059 0.1213 0.0
C1440 C 0.58919 0.92395 0.10665 0.0
C1441 C 0.56664 0.91666 0.08995 0.0
C1442 C 0.57159 0.9202 0.06667 0.0
C1443 C 0.55015 0.91354 0.05104 0.0
C1444 C 0.52365 0.90341 0.0585 0.0
C1445 C 0.51856 0.8998 0.08161 0.0
C1446 C 0.53996 0.90632 0.09729 0.0
C1447 C 0.55887 0.99879 0.17805 0.0
C1448 C 0.55821 0.98283 0.19813 0.0
C1449 C 0.57573 0.98978 0.15985 0.0
C1450 C 0.59221 0.96476 0.16158 0.0
C1451 C 0.59388 0.95067 0.18253 0.0
C1452 C 0.57694 0.95963 0.20067 0.0
C1453 C 0.60273 0.95013 0.14088 0.0
C1454 C 0.58253 0.94294 0.12425 0.0
C1455 C 0.63098 0.93959 0.13897 0.0
C1456 C 0.65357 0.94771 0.15543 0.0
C1457 C 0.67022 0.92657 0.16604 0.0
C1458 C 0.69136 0.93428 0.18163 0.0
C1459 C 0.69612 0.96307 0.1867 0.0
C1460 C 0.67979 0.98423 0.17618 0.0
C1461 C 0.65863 0.97665 0.16058 0.0
H1462 H 0.71248 0.96899 0.19878 0.0
H1463 H 0.50707 0.89833 0.04638 0.0
H1464 H 0.81082 0.17031 0.04129 0.0
H1465 H 0.82901 0.13659 0.06958 0.0
H1466 H 0.75806 0.15714 0.11333 0.0
H1467 H 0.73998 0.19082 0.08503 0.0
H1468 H 0.80996 0.17004 0.13186 0.0
H1469 H 0.76633 0.08926 0.09527 0.0
H1470 H 0.75506 0.05743 0.06321 0.0
H1471 H 0.84438 0.03919 0.0544 0.0
H1472 H 0.8562 0.07115 0.08625 0.0
H1473 H 0.87021 0.03945 0.20046 0.0
H1474 H 0.83584 0.06154 0.17472 0.0
H1475 H 0.89577 0.12951 0.16103 0.0
H1476 H 0.93014 0.10779 0.18689 0.0
H1477 H 0.8433 0.06944 0.12964 0.0
H1478 H 0.85924 0.18983 0.14655 0.0
H1479 H 0.87138 0.22238 0.17795 0.0
H1480 H 0.83716 0.16221 0.22568 0.0
H1481 H 0.82444 0.12947 0.19453 0.0
C1482 C 0.79836 0.16637 0.05643 0.0
C1483 C 0.77385 0.18269 0.06097 0.0
C1484 C 0.80882 0.14727 0.07264 0.0
C1485 C 0.79494 0.14448 0.09361 0.0
C1486 C 0.76905 0.15896 0.09726 0.0
C1487 C 0.75856 0.17793 0.08103 0.0
C1488 C 0.80983 0.1307 0.11287 0.0
C1489 C 0.81699 0.14794 0.13148 0.0
C1490 C 0.81921 0.10199 0.11225 0.0
C1491 C 0.81215 0.08276 0.09307 0.0
C1492 C 0.78358 0.07864 0.08639 0.0
C1493 C 0.77709 0.06052 0.06828 0.0
C1494 C 0.79899 0.04634 0.05675 0.0
C1495 C 0.82743 0.05022 0.06332 0.0
C1496 C 0.83403 0.06828 0.08144 0.0
C1497 C 0.87586 0.05946 0.1924 0.0
C1498 C 0.90297 0.07183 0.19575 0.0
C1499 C 0.85624 0.07193 0.17754 0.0
C1500 C 0.86323 0.09714 0.16593 0.0
C1501 C 0.88978 0.11021 0.16998 0.0
C1502 C 0.90942 0.09775 0.18481 0.0
C1503 C 0.84351 0.10886 0.14859 0.0
C1504 C 0.8358 0.09138 0.13021 0.0
C1505 C 0.8338 0.13749 0.14929 0.0
C1506 C 0.84109 0.15709 0.1682 0.0
C1507 C 0.85419 0.18359 0.16374 0.0
C1508 C 0.86119 0.20207 0.18149 0.0
C1509 C 0.85511 0.19433 0.2038 0.0
C1510 C 0.84194 0.16813 0.20839 0.0
C1511 C 0.83486 0.14958 0.19069 0.0
H1512 H 0.86057 0.20866 0.21752 0.0
H1513 H 0.79392 0.03231 0.04275 0.0
H1514 H 0.54868 0.98065 0.83851 0.0
H1515 H 0.58209 0.99276 0.86901 0.0
H1516 H 0.61915 0.05861 0.82713 0.0
H1517 H 0.58623 0.04604 0.79661 0.0
H1518 H 0.65832 0.03902 0.85648 0.0
H1519 H 0.56068 0.07461 0.85932 0.0
H1520 H 0.50807 0.0699 0.86001 0.0
H1521 H 0.51357 0.01681 0.91905 0.0
H1522 H 0.56621 0.0214 0.91881 0.0
H1523 H 0.64398 0.16125 0.94091 0.0
H1524 H 0.62105 0.12539 0.9172 0.0
H1525 H 0.68728 0.06479 0.93398 0.0
H1526 H 0.71096 0.101 0.95728 0.0
H1527 H 0.59862 0.07446 0.92006 0.0
H1528 H 0.70372 0.02666 0.88714 0.0
H1529 H 0.75482 0.03967 0.88467 0.0
H1530 H 0.7324 0.12859 0.88083 0.0
H1531 H 0.68119 0.11606 0.88301 0.0
C1532 C 0.56514 0.9965 0.83543 0.0
C1533 C 0.56522 0.01228 0.81526 0.0
C1534 C 0.58394 0.00369 0.85293 0.0
C1535 C 0.60262 0.02705 0.85053 0.0
C1536 C 0.60492 0.04054 0.82939 0.0
C1537 C 0.58625 0.03325 0.81188 0.0
C1538 C 0.6159 0.04069 0.87063 0.0
C1539 C 0.64538 0.04632 0.87059 0.0
C1540 C 0.59891 0.05094 0.88876 0.0
C1541 C 0.56733 0.04808 0.88891 0.0
C1542 C 0.55065 0.06182 0.87238 0.0
C1543 C 0.52085 0.05922 0.87271 0.0
C1544 C 0.50751 0.04291 0.88946 0.0
C1545 C 0.52393 0.02936 0.90604 0.0
C1546 C 0.55373 0.03202 0.90587 0.0
C1547 C 0.65346 0.14015 0.93995 0.0
C1548 C 0.67958 0.13416 0.95071 0.0
C1549 C 0.64024 0.11959 0.92639 0.0
C1550 C 0.65275 0.09257 0.9234 0.0
C1551 C 0.67755 0.08571 0.93565 0.0
C1552 C 0.69097 0.10639 0.94908 0.0
C1553 C 0.64108 0.07287 0.90594 0.0
C1554 C 0.6118 0.06632 0.90638 0.0
C1555 C 0.65809 0.0627 0.88778 0.0
C1556 C 0.68871 0.07042 0.88552 0.0
C1557 C 0.70972 0.04896 0.88564 0.0
C1558 C 0.73868 0.05626 0.88432 0.0
C1559 C 0.74685 0.08494 0.88272 0.0
C1560 C 0.72606 0.10639 0.88217 0.0
C1561 C 0.69707 0.0992 0.88345 0.0
H1562 H 0.76929 0.09051 0.88191 0.0
H1563 H 0.48444 0.04088 0.88965 0.0
H1564 H 0.76115 0.80874 0.58511 0.0
H1565 H 0.73942 0.83875 0.61411 0.0
H1566 H 0.67839 0.86986 0.56526 0.0
H1567 H 0.69928 0.83841 0.53653 0.0
H1568 H 0.72184 0.88877 0.62753 0.0
H1569 H 0.61449 0.86816 0.58544 0.0
H1570 H 0.59194 0.83631 0.55728 0.0
H1571 H 0.65021 0.76906 0.57508 0.0
H1572 H 0.67329 0.80069 0.60323 0.0
H1573 H 0.60745 0.94378 0.69676 0.0
H1574 H 0.64406 0.93211 0.66885 0.0
H1575 H 0.62248 0.84264 0.67455 0.0
H1576 H 0.58488 0.85442 0.70171 0.0
H1577 H 0.621 0.85652 0.6331 0.0
H1578 H 0.68922 0.87309 0.69235 0.0
H1579 H 0.71263 0.9002 0.72298 0.0
H1580 H 0.73416 0.96708 0.67624 0.0
H1581 H 0.71055 0.94052 0.64537 0.0
C1582 C 0.74417 0.82326 0.58025 0.0
C1583 C 0.73181 0.82126 0.55866 0.0
C1584 C 0.73151 0.84024 0.59693 0.0
C1585 C 0.70653 0.85573 0.59212 0.0
C1586 C 0.69713 0.85739 0.56955 0.0
C1587 C 0.70943 0.83989 0.55296 0.0
C1588 C 0.68795 0.86543 0.61112 0.0
C1589 C 0.6997 0.88198 0.62868 0.0
C1590 C 0.65925 0.85599 0.61304 0.0
C1591 C 0.64576 0.83685 0.59617 0.0
C1592 C 0.6225 0.8466 0.58328 0.0
C1593 C 0.6097 0.82863 0.56732 0.0
C1594 C 0.61982 0.80079 0.56429 0.0
C1595 C 0.64262 0.79075 0.57733 0.0
C1596 C 0.65562 0.8087 0.59323 0.0
C1597 C 0.61106 0.92151 0.69259 0.0
C1598 C 0.59318 0.89998 0.70139 0.0
C1599 C 0.63209 0.91486 0.67657 0.0
C1600 C 0.63609 0.88647 0.66944 0.0
C1601 C 0.61967 0.86475 0.67957 0.0
C1602 C 0.59831 0.87145 0.69524 0.0
C1603 C 0.65488 0.87962 0.6498 0.0
C1604 C 0.64306 0.86362 0.63202 0.0
C1605 C 0.68364 0.88898 0.64808 0.0
C1606 C 0.69787 0.90495 0.6666 0.0
C1607 C 0.69875 0.89368 0.68864 0.0
C1608 C 0.7121 0.90893 0.70604 0.0
C1609 C 0.72481 0.93538 0.70157 0.0
C1610 C 0.72427 0.94661 0.67968 0.0
C1611 C 0.71094 0.93145 0.66222 0.0
H1612 H 0.73513 0.94715 0.71506 0.0
H1613 H 0.60994 0.78703 0.55186 0.0
H1614 H 0.94347 0.00284 0.32331 0.0
H1615 H 0.90966 0.98726 0.35252 0.0
H1616 H 0.88941 0.91253 0.31281 0.0
H1617 H 0.92304 0.92822 0.28365 0.0
H1618 H 0.84372 0.92893 0.33882 0.0
H1619 H 0.94439 0.90887 0.34755 0.0
H1620 H 0.99563 0.92119 0.35012 0.0
H1621 H 0.9785 0.97526 0.40726 0.0
H1622 H 0.92712 0.96332 0.40497 0.0
H1623 H 0.86337 0.82193 0.43608 0.0
H1624 H 0.88327 0.85397 0.40751 0.0
H1625 H 0.81297 0.91231 0.41752 0.0
H1626 H 0.79293 0.88036 0.44626 0.0
H1627 H 0.90147 0.90841 0.40734 0.0
H1628 H 0.79492 0.93818 0.36261 0.0
H1629 H 0.74695 0.91812 0.35533 0.0
H1630 H 0.77932 0.83333 0.36564 0.0
H1631 H 0.82758 0.85271 0.37258 0.0
C1632 C 0.93051 0.984 0.32029 0.0
C1633 C 0.93553 0.9668 0.30124 0.0
C1634 C 0.91149 0.97492 0.33708 0.0
C1635 C 0.89748 0.94845 0.33502 0.0
C1636 C 0.89998 0.93301 0.31475 0.0
C1637 C 0.91903 0.94205 0.29801 0.0
C1638 C 0.8845 0.93446 0.35507 0.0
C1639 C 0.8561 0.92488 0.35399 0.0
C1640 C 0.90106 0.92827 0.37452 0.0
C1641 C 0.9319 0.93549 0.37593 0.0
C1642 C 0.95154 0.92354 0.36056 0.0
C1643 C 0.98059 0.93042 0.36198 0.0
C1644 C 0.99028 0.94911 0.37876 0.0
C1645 C 0.97095 0.96085 0.39423 0.0
C1646 C 0.94187 0.95401 0.3929 0.0
C1647 C 0.85244 0.84186 0.43256 0.0
C1648 C 0.8266 0.84861 0.44347 0.0
C1649 C 0.86381 0.86013 0.41618 0.0
C1650 C 0.84941 0.88534 0.41018 0.0
C1651 C 0.82426 0.89281 0.42173 0.0
C1652 C 0.81301 0.87465 0.43832 0.0
C1653 C 0.86043 0.90314 0.3913 0.0
C1654 C 0.88865 0.91323 0.39252 0.0
C1655 C 0.84394 0.90892 0.37171 0.0
C1656 C 0.8148 0.89699 0.36843 0.0
C1657 C 0.7918 0.91524 0.36336 0.0
C1658 C 0.76459 0.90397 0.35919 0.0
C1659 C 0.76016 0.87444 0.35991 0.0
C1660 C 0.78286 0.85615 0.365 0.0
C1661 C 0.81012 0.86728 0.36915 0.0
H1662 H 0.73911 0.86573 0.35663 0.0
H1663 H 0.01278 0.95442 0.37982 0.0
H1664 H 0.68955 0.69646 0.53209 0.0
H1665 H 0.65786 0.66441 0.55345 0.0
H1666 H 0.67965 0.70886 0.61512 0.0
H1667 H 0.71312 0.73841 0.59449 0.0
H1668 H 0.67374 0.65904 0.62592 0.0
H1669 H 0.61393 0.72028 0.57903 0.0
H1670 H 0.59616 0.73981 0.54287 0.0
H1671 H 0.57377 0.65539 0.52059 0.0
H1672 H 0.59158 0.63527 0.55647 0.0
H1673 H 0.5603 0.59757 0.69108 0.0
H1674 H 0.59165 0.63225 0.67227 0.0
H1675 H 0.56799 0.59679 0.60739 0.0
H1676 H 0.53445 0.5653 0.62576 0.0
H1677 H 0.57414 0.64573 0.5995 0.0
H1678 H 0.64204 0.58474 0.64237 0.0
H1679 H 0.66071 0.56343 0.67786 0.0
H1680 H 0.66907 0.64741 0.70657 0.0
H1681 H 0.65004 0.6687 0.67141 0.0
C1682 C 0.68805 0.69884 0.55028 0.0
C1683 C 0.70337 0.72056 0.56142 0.0
C1684 C 0.66948 0.68087 0.56247 0.0
C1685 C 0.66532 0.68478 0.58593 0.0
C1686 C 0.68194 0.70539 0.5971 0.0
C1687 C 0.70097 0.72262 0.58513 0.0
C1688 C 0.64374 0.66796 0.59915 0.0
C1689 C 0.65188 0.65639 0.62013 0.0
C1690 C 0.61516 0.66401 0.59181 0.0
C1691 C 0.6043 0.67626 0.57035 0.0
C1692 C 0.60533 0.70589 0.56638 0.0
C1693 C 0.59525 0.71706 0.54594 0.0
C1694 C 0.58394 0.69888 0.52945 0.0
C1695 C 0.58257 0.66946 0.53337 0.0
C1696 C 0.59262 0.65816 0.55375 0.0
C1697 C 0.5616 0.59756 0.67279 0.0
C1698 C 0.54513 0.57824 0.66003 0.0
C1699 C 0.58001 0.6171 0.66196 0.0
C1700 C 0.58337 0.61683 0.6382 0.0
C1701 C 0.56619 0.59793 0.62564 0.0
C1702 C 0.54694 0.57957 0.63629 0.0
C1703 C 0.60436 0.63575 0.62595 0.0
C1704 C 0.59602 0.64818 0.60526 0.0
C1705 C 0.63279 0.6405 0.63352 0.0
C1706 C 0.64406 0.62796 0.65462 0.0
C1707 C 0.64749 0.59831 0.6565 0.0
C1708 C 0.6582 0.58636 0.67644 0.0
C1709 C 0.66586 0.60405 0.69451 0.0
C1710 C 0.66298 0.63371 0.69261 0.0
C1711 C 0.65224 0.6457 0.67269 0.0
H1712 H 0.67418 0.5948 0.70994 0.0
H1713 H 0.57618 0.7076 0.51365 0.0
H1714 H 0.53725 0.41511 0.79464 0.0
H1715 H 0.56675 0.38153 0.8162 0.0
H1716 H 0.61348 0.4523 0.84509 0.0
H1717 H 0.58327 0.48587 0.82396 0.0
H1718 H 0.62092 0.36747 0.82125 0.0
H1719 H 0.62558 0.43761 0.90246 0.0
H1720 H 0.59848 0.47715 0.91993 0.0
H1721 H 0.52303 0.45164 0.88373 0.0
H1722 H 0.54961 0.41172 0.86641 0.0
H1723 H 0.69647 0.33591 0.9371 0.0
H1724 H 0.67089 0.36809 0.91184 0.0
H1725 H 0.63059 0.29584 0.87942 0.0
H1726 H 0.65607 0.26345 0.90491 0.0
H1727 H 0.61961 0.3814 0.90437 0.0
H1728 H 0.6121 0.30953 0.8262 0.0
H1729 H 0.63855 0.2749 0.80267 0.0
H1730 H 0.718 0.30544 0.82999 0.0
H1731 H 0.69196 0.33988 0.85388 0.0
C1732 C 0.55462 0.42334 0.80489 0.0
C1733 C 0.55848 0.45293 0.80737 0.0
C1734 C 0.57129 0.4042 0.81737 0.0
C1735 C 0.59199 0.41438 0.83262 0.0
C1736 C 0.59732 0.44395 0.83374 0.0
C1737 C 0.58043 0.4631 0.82142 0.0
C1738 C 0.60635 0.3942 0.84844 0.0
C1739 C 0.62039 0.37033 0.83947 0.0
C1740 C 0.60593 0.39812 0.87222 0.0
C1741 C 0.58964 0.42176 0.883 0.0
C1742 C 0.60317 0.44032 0.89835 0.0
C1743 C 0.58791 0.46282 0.90822 0.0
C1744 C 0.55907 0.46693 0.90292 0.0
C1745 C 0.54538 0.44847 0.88783 0.0
C1746 C 0.56052 0.42589 0.878 0.0
C1747 C 0.68203 0.32683 0.92469 0.0
C1748 C 0.67834 0.29707 0.92306 0.0
C1749 C 0.66751 0.3453 0.91008 0.0
C1750 C 0.64941 0.33453 0.89307 0.0
C1751 C 0.64506 0.3048 0.89184 0.0
C1752 C 0.65935 0.28627 0.90668 0.0
C1753 C 0.63469 0.35459 0.87718 0.0
C1754 C 0.62033 0.37848 0.88618 0.0
C1755 C 0.63455 0.35056 0.8534 0.0
C1756 C 0.65009 0.32708 0.84198 0.0
C1757 C 0.63519 0.30845 0.82748 0.0
C1758 C 0.65008 0.28893 0.81403 0.0
C1759 C 0.67989 0.28806 0.81477 0.0
C1760 C 0.69487 0.30607 0.82948 0.0
C1761 C 0.68004 0.32546 0.84314 0.0
H1762 H 0.69129 0.27355 0.80377 0.0
H1763 H 0.54733 0.48441 0.91053 0.0
H1764 H 0.93337 0.41215 0.18719 0.0
H1765 H 0.89431 0.3871 0.16749 0.0
H1766 H 0.95107 0.36781 0.11217 0.0
H1767 H 0.99021 0.39154 0.13184 0.0
H1768 H 0.89357 0.39698 0.1016 0.0
H1769 H 0.93886 0.31666 0.13903 0.0
H1770 H 0.95644 0.28864 0.17146 0.0
H1771 H 0.87205 0.28777 0.20012 0.0
H1772 H 0.85409 0.31637 0.16807 0.0
H1773 H 0.82227 0.29461 0.03143 0.0
H1774 H 0.85409 0.32571 0.05348 0.0
H1775 H 0.80142 0.31264 0.11254 0.0
H1776 H 0.77016 0.28111 0.09061 0.0
H1777 H 0.85418 0.30234 0.12309 0.0
H1778 H 0.80756 0.38133 0.08743 0.0
H1779 H 0.78767 0.40856 0.05536 0.0
H1780 H 0.87063 0.4116 0.02431 0.0
H1781 H 0.89093 0.38404 0.05616 0.0
C1782 C 0.93771 0.402 0.17108 0.0
C1783 C 0.96511 0.4038 0.16127 0.0
C1784 C 0.9153 0.38788 0.15977 0.0
C1785 C 0.91975 0.3758 0.13826 0.0
C1786 C 0.94711 0.37709 0.12867 0.0
C1787 C 0.96958 0.39053 0.14013 0.0
C1788 C 0.89594 0.36221 0.1254 0.0
C1789 C 0.88501 0.37623 0.10623 0.0
C1790 C 0.88426 0.33548 0.13172 0.0
C1791 C 0.89526 0.31915 0.15137 0.0
C1792 C 0.92416 0.31098 0.15245 0.0
C1793 C 0.93417 0.29487 0.17072 0.0
C1794 C 0.91541 0.28656 0.1879 0.0
C1795 C 0.88659 0.29434 0.18686 0.0
C1796 C 0.8765 0.31053 0.16866 0.0
C1797 C 0.817 0.29927 0.04888 0.0
C1798 C 0.79365 0.28571 0.05927 0.0
C1799 C 0.83524 0.31696 0.06156 0.0
C1800 C 0.83027 0.32162 0.0848 0.0
C1801 C 0.8059 0.30936 0.09474 0.0
C1802 C 0.78785 0.29158 0.08215 0.0
C1803 C 0.85169 0.33701 0.09915 0.0
C1804 C 0.86231 0.3233 0.11858 0.0
C1805 C 0.86279 0.36416 0.09325 0.0
C1806 C 0.85077 0.38074 0.07415 0.0
C1807 C 0.82153 0.38773 0.07372 0.0
C1808 C 0.81018 0.40321 0.0556 0.0
C1809 C 0.8279 0.41185 0.03783 0.0
C1810 C 0.85698 0.40497 0.03813 0.0
C1811 C 0.86842 0.38948 0.05622 0.0
H1812 H 0.81909 0.42384 0.02382 0.0
H1813 H 0.92318 0.27398 0.20198 0.0
H1814 H 0.86773 0.73796 0.3913 0.0
H1815 H 0.88664 0.69879 0.36876 0.0
H1816 H 0.85362 0.63797 0.41686 0.0
H1817 H 0.83381 0.67738 0.43958 0.0
H1818 H 0.91068 0.62599 0.40051 0.0
H1819 H 0.8162 0.64017 0.36861 0.0
H1820 H 0.77623 0.66955 0.35425 0.0
H1821 H 0.83161 0.70625 0.3041 0.0
H1822 H 0.87184 0.67707 0.31821 0.0
H1823 H 0.93385 0.51862 0.30812 0.0
H1824 H 0.90091 0.54611 0.33243 0.0
H1825 H 0.94997 0.62247 0.32006 0.0
H1826 H 0.98234 0.59552 0.2955 0.0
H1827 H 0.87728 0.61821 0.32103 0.0
H1828 H 0.96587 0.6246 0.38652 0.0
H1829 H 0.00638 0.5966 0.40145 0.0
H1830 H 0.96264 0.51855 0.38504 0.0
H1831 H 0.9214 0.54609 0.37095 0.0
C1832 C 0.86472 0.71635 0.39742 0.0
C1833 C 0.84894 0.71094 0.41728 0.0
C1834 C 0.87538 0.6939 0.3843 0.0
C1835 C 0.87094 0.66541 0.39078 0.0
C1836 C 0.857 0.65982 0.41139 0.0
C1837 C 0.8459 0.68238 0.42447 0.0
C1838 C 0.88097 0.64186 0.37576 0.0
C1839 C 0.90298 0.62387 0.38329 0.0
C1840 C 0.87104 0.63914 0.35322 0.0
C1841 C 0.84701 0.6567 0.34462 0.0
C1842 C 0.81984 0.65472 0.35466 0.0
C1843 C 0.79715 0.67123 0.3465 0.0
C1844 C 0.80143 0.6899 0.32837 0.0
C1845 C 0.82835 0.69187 0.3182 0.0
C1846 C 0.85107 0.67526 0.32621 0.0
C1847 C 0.93702 0.54143 0.31005 0.0
C1848 C 0.96076 0.55489 0.30003 0.0
C1849 C 0.91847 0.55702 0.32416 0.0
C1850 C 0.92368 0.58611 0.32861 0.0
C1851 C 0.94602 0.59992 0.31725 0.0
C1852 C 0.96433 0.58453 0.30309 0.0
C1853 C 0.90703 0.60233 0.34578 0.0
C1854 C 0.88427 0.61955 0.33849 0.0
C1855 C 0.91625 0.60426 0.36857 0.0
C1856 C 0.94084 0.58742 0.37713 0.0
C1857 C 0.96485 0.60146 0.38618 0.0
C1858 C 0.98787 0.58567 0.39465 0.0
C1859 C 0.98719 0.55582 0.39402 0.0
C1860 C 0.96329 0.54169 0.38528 0.0
C1861 C 0.94007 0.55738 0.37705 0.0
H1862 H 0.00513 0.54364 0.4004 0.0
H1863 H 0.78387 0.70275 0.32213 0.0
H1864 H 0.52827 0.37656 0.32867 0.0
H1865 H 0.55731 0.34994 0.35595 0.0
H1866 H 0.6124 0.42323 0.36423 0.0
H1867 H 0.58413 0.44947 0.33652 0.0
H1868 H 0.64319 0.37495 0.36433 0.0
H1869 H 0.5576 0.40793 0.40341 0.0
H1870 H 0.50508 0.41256 0.406 0.0
H1871 H 0.49642 0.32123 0.40622 0.0
H1872 H 0.54884 0.316 0.40346 0.0
H1873 H 0.71263 0.3193 0.46057 0.0
H1874 H 0.68397 0.35225 0.43767 0.0
H1875 H 0.61815 0.28797 0.43138 0.0
H1876 H 0.64549 0.25613 0.45556 0.0
H1877 H 0.59309 0.33496 0.43119 0.0
H1878 H 0.67501 0.29984 0.39043 0.0
H1879 H 0.72636 0.29155 0.38346 0.0
H1880 H 0.7413 0.38216 0.38254 0.0
H1881 H 0.69006 0.39097 0.38979 0.0
C1882 C 0.54682 0.38683 0.33606 0.0
C1883 C 0.55388 0.41512 0.33034 0.0
C1884 C 0.5633 0.37168 0.35179 0.0
C1885 C 0.58674 0.38477 0.36256 0.0
C1886 C 0.59443 0.41265 0.35622 0.0
C1887 C 0.57824 0.42763 0.34026 0.0
C1888 C 0.60259 0.3699 0.381 0.0
C1889 C 0.63232 0.36661 0.37915 0.0
C1890 C 0.58839 0.35845 0.40011 0.0
C1891 C 0.55708 0.36159 0.40312 0.0
C1892 C 0.54446 0.38886 0.40399 0.0
C1893 C 0.51474 0.3916 0.4054 0.0
C1894 C 0.49744 0.36725 0.40606 0.0
C1895 C 0.50984 0.34008 0.40557 0.0
C1896 C 0.53955 0.3372 0.40416 0.0
C1897 C 0.69167 0.31255 0.45488 0.0
C1898 C 0.68171 0.28477 0.45948 0.0
C1899 C 0.67544 0.33126 0.44145 0.0
C1900 C 0.64925 0.32232 0.43197 0.0
C1901 C 0.63837 0.29544 0.43811 0.0
C1902 C 0.65424 0.27706 0.45182 0.0
C1903 C 0.63389 0.33979 0.41459 0.0
C1904 C 0.60415 0.34361 0.4166 0.0
C1905 C 0.64804 0.35127 0.39538 0.0
C1906 C 0.6788 0.34605 0.3909 0.0
C1907 C 0.68929 0.31798 0.38887 0.0
C1908 C 0.71836 0.31319 0.38487 0.0
C1909 C 0.7371 0.33631 0.38263 0.0
C1910 C 0.72678 0.36427 0.38433 0.0
C1911 C 0.69772 0.36918 0.38838 0.0
H1912 H 0.7596 0.33256 0.37953 0.0
H1913 H 0.47444 0.36945 0.40717 0.0
H1914 H 0.953 0.47936 0.67142 0.0
H1915 H 0.92334 0.44413 0.65193 0.0
H1916 H 0.91505 0.39621 0.71394 0.0
H1917 H 0.94502 0.43168 0.7335 0.0
H1918 H 0.93206 0.36227 0.68094 0.0
H1919 H 0.85807 0.43038 0.68891 0.0
H1920 H 0.83247 0.47633 0.68699 0.0
H1921 H 0.84009 0.47629 0.61463 0.0
H1922 H 0.86633 0.43064 0.6161 0.0
H1923 H 0.83684 0.26045 0.63283 0.0
H1924 H 0.86114 0.29696 0.65495 0.0
H1925 H 0.86975 0.34934 0.59528 0.0
H1926 H 0.84402 0.31318 0.57313 0.0
H1927 H 0.85187 0.38097 0.62836 0.0
H1928 H 0.92828 0.3126 0.62225 0.0
H1929 H 0.95066 0.26501 0.62532 0.0
H1930 H 0.93366 0.26391 0.69669 0.0
H1931 H 0.91087 0.31135 0.694 0.0
C1932 C 0.94406 0.46178 0.68105 0.0
C1933 C 0.95109 0.45833 0.704 0.0
C1934 C 0.92708 0.44162 0.6699 0.0
C1935 C 0.91686 0.41741 0.68141 0.0
C1936 C 0.92271 0.41466 0.70466 0.0
C1937 C 0.93955 0.43506 0.71591 0.0
C1938 C 0.90249 0.39393 0.6686 0.0
C1939 C 0.91402 0.36622 0.66984 0.0
C1940 C 0.87946 0.39912 0.65359 0.0
C1941 C 0.86453 0.42716 0.65266 0.0
C1942 C 0.85473 0.44036 0.6726 0.0
C1943 C 0.84001 0.46634 0.67159 0.0
C1944 C 0.83474 0.47927 0.65071 0.0
C1945 C 0.84423 0.46627 0.6308 0.0
C1946 C 0.85905 0.44035 0.63172 0.0
C1947 C 0.84428 0.27951 0.62425 0.0
C1948 C 0.83832 0.28388 0.60115 0.0
C1949 C 0.85837 0.30043 0.63698 0.0
C1950 C 0.86768 0.32596 0.62686 0.0
C1951 C 0.86282 0.32987 0.60355 0.0
C1952 C 0.84833 0.30905 0.59082 0.0
C1953 C 0.881 0.34911 0.64084 0.0
C1954 C 0.86947 0.37681 0.63971 0.0
C1955 C 0.90365 0.34381 0.65622 0.0
C1956 C 0.91767 0.31543 0.65788 0.0
C1957 C 0.92918 0.30214 0.63857 0.0
C1958 C 0.94195 0.2752 0.64025 0.0
C1959 C 0.94353 0.26142 0.66118 0.0
C1960 C 0.93242 0.2746 0.68049 0.0
C1961 C 0.9196 0.30153 0.6789 0.0
H1962 H 0.9534 0.24055 0.66244 0.0
H1963 H 0.82323 0.49932 0.64996 0.0
H1964 H 0.83833 0.72567 0.96679 0.0
H1965 H 0.86577 0.69178 0.94405 0.0
H1966 H 0.78924 0.64287 0.93152 0.0
H1967 H 0.76136 0.67726 0.9542 0.0
H1968 H 0.84385 0.60973 0.93948 0.0
H1969 H 0.80533 0.68578 0.89282 0.0
H1970 H 0.79623 0.73657 0.88419 0.0
H1971 H 0.88657 0.75289 0.88313 0.0
H1972 H 0.89621 0.70237 0.89197 0.0
H1973 H 0.90381 0.53807 0.8429 0.0
H1974 H 0.87237 0.56364 0.86912 0.0
H1975 H 0.93491 0.63104 0.87498 0.0
H1976 H 0.9666 0.60547 0.84901 0.0
H1977 H 0.88367 0.65337 0.86977 0.0
H1978 H 0.92462 0.5846 0.91931 0.0
H1979 H 0.93875 0.53923 0.93738 0.0
H1980 H 0.85103 0.51204 0.93854 0.0
H1981 H 0.83637 0.55731 0.9205 0.0
C1982 C 0.8274 0.70735 0.95962 0.0
C1983 C 0.79762 0.70427 0.96213 0.0
C1984 C 0.84312 0.68804 0.94656 0.0
C1985 C 0.8295 0.66507 0.93574 0.0
C1986 C 0.80015 0.66053 0.93965 0.0
C1987 C 0.78428 0.68006 0.95271 0.0
C1988 C 0.8457 0.64758 0.919 0.0
C1989 C 0.852 0.61895 0.92393 0.0
C1990 C 0.8573 0.66004 0.8992 0.0
C1991 C 0.85149 0.69029 0.89316 0.0
C1992 C 0.82325 0.70024 0.89081 0.0
C1993 C 0.818 0.72901 0.88586 0.0
C1994 C 0.84081 0.748 0.88307 0.0
C1995 C 0.86891 0.73822 0.88519 0.0
C1996 C 0.87429 0.7095 0.89014 0.0
C1997 C 0.91086 0.55844 0.84963 0.0
C1998 C 0.93785 0.56966 0.84376 0.0
C1999 C 0.8929 0.57293 0.86485 0.0
C2000 C 0.9013 0.59919 0.87434 0.0
C2001 C 0.9279 0.61079 0.86801 0.0
C2002 C 0.946 0.59616 0.85304 0.0
C2003 C 0.88205 0.61518 0.89014 0.0
C2004 C 0.87514 0.64372 0.88504 0.0
C2005 C 0.87045 0.60275 0.91005 0.0
C2006 C 0.87944 0.57422 0.91833 0.0
C2007 C 0.9084 0.56876 0.92307 0.0
C2008 C 0.91645 0.54323 0.93358 0.0
C2009 C 0.89574 0.52293 0.93935 0.0
C2010 C 0.867 0.52791 0.93427 0.0
C2011 C 0.85881 0.55349 0.92389 0.0
H2012 H 0.90202 0.50321 0.94753 0.0
H2013 H 0.83673 0.77025 0.87923 0.0
H2014 H 0.52096 0.58904 0.21799 0.0
H2015 H 0.55268 0.6195 0.19555 0.0
H2016 H 0.60035 0.54518 0.17448 0.0
H2017 H 0.56853 0.5146 0.19714 0.0
H2018 H 0.63501 0.59421 0.17945 0.0
H2019 H 0.5487 0.56634 0.14268 0.0
H2020 H 0.49656 0.5597 0.13936 0.0
H2021 H 0.4842 0.65054 0.14339 0.0
H2022 H 0.53624 0.65768 0.14736 0.0
H2023 H 0.69244 0.65659 0.08034 0.0
H2024 H 0.66562 0.62445 0.10503 0.0
H2025 H 0.61088 0.69424 0.12501 0.0
H2026 H 0.63727 0.72648 0.0999 0.0
H2027 H 0.58035 0.64568 0.12011 0.0
H2028 H 0.66844 0.67207 0.15831 0.0
H2029 H 0.72095 0.67658 0.16113 0.0
H2030 H 0.7299 0.58588 0.15232 0.0
H2031 H 0.67751 0.58084 0.14926 0.0
C2032 C 0.53898 0.57938 0.20935 0.0
C2033 C 0.54249 0.54954 0.20942 0.0
C2034 C 0.55689 0.59674 0.19633 0.0
C2035 C 0.57851 0.58457 0.18295 0.0
C2036 C 0.58375 0.55503 0.18462 0.0
C2037 C 0.56575 0.53759 0.19771 0.0
C2038 C 0.59329 0.6022 0.16551 0.0
C2039 C 0.62311 0.60523 0.16634 0.0
C2040 C 0.57773 0.61668 0.1484 0.0
C2041 C 0.5464 0.61254 0.14556 0.0
C2042 C 0.53486 0.5849 0.14306 0.0
C2043 C 0.50531 0.58103 0.14106 0.0
C2044 C 0.48706 0.60466 0.14121 0.0
C2045 C 0.49834 0.63223 0.14333 0.0
C2046 C 0.52788 0.6362 0.14547 0.0
C2047 C 0.67446 0.66509 0.08972 0.0
C2048 C 0.66714 0.69422 0.08818 0.0
C2049 C 0.65922 0.64667 0.10399 0.0
C2050 C 0.63656 0.65699 0.11732 0.0
C2051 C 0.62836 0.68576 0.11502 0.0
C2052 C 0.64349 0.70419 0.10062 0.0
C2053 C 0.62213 0.63811 0.13422 0.0
C2054 C 0.59229 0.63476 0.13324 0.0
C2055 C 0.63768 0.62309 0.15104 0.0
C2056 C 0.6691 0.62611 0.15338 0.0
C2057 C 0.68163 0.65312 0.15687 0.0
C2058 C 0.71134 0.65577 0.15848 0.0
C2059 C 0.72866 0.63153 0.15675 0.0
C2060 C 0.7164 0.60461 0.15356 0.0
C2061 C 0.68672 0.60184 0.15194 0.0
H2062 H 0.75158 0.63351 0.15816 0.0
H2063 H 0.4642 0.60159 0.13963 0.0
H2064 H 0.30784 0.33155 0.46962 0.0
H2065 H 0.3226 0.36409 0.43927 0.0
H2066 H 0.2491 0.3387 0.40005 0.0
H2067 H 0.23409 0.30659 0.43059 0.0
H2068 H 0.30279 0.32521 0.38077 0.0
H2069 H 0.2537 0.40544 0.41203 0.0
H2070 H 0.23957 0.44054 0.44108 0.0
H2071 H 0.32675 0.46848 0.44706 0.0
H2072 H 0.34149 0.43325 0.4183 0.0
H2073 H 0.35789 0.4536 0.3054 0.0
H2074 H 0.32374 0.4322 0.33179 0.0
H2075 H 0.3848 0.36603 0.34762 0.0
H2076 H 0.41856 0.38667 0.32084 0.0
H2077 H 0.32927 0.4277 0.37579 0.0
H2078 H 0.35263 0.30691 0.36699 0.0
H2079 H 0.3667 0.27203 0.33776 0.0
H2080 H 0.32923 0.32496 0.28639 0.0
H2081 H 0.31455 0.36 0.31536 0.0
C2082 C 0.29404 0.33424 0.45507 0.0
C2083 C 0.26963 0.31704 0.45249 0.0
C2084 C 0.30255 0.35264 0.43768 0.0
C2085 C 0.28697 0.3537 0.41741 0.0
C2086 C 0.26129 0.33829 0.41562 0.0
C2087 C 0.25258 0.3202 0.43313 0.0
C2088 C 0.30016 0.36638 0.39695 0.0
C2089 C 0.30832 0.3477 0.37953 0.0
C2090 C 0.30741 0.39565 0.39546 0.0
C2091 C 0.29874 0.41648 0.41313 0.0
C2092 C 0.26992 0.41882 0.41973 0.0
C2093 C 0.26179 0.43881 0.4361 0.0
C2094 C 0.28226 0.45667 0.44596 0.0
C2095 C 0.31091 0.45458 0.43946 0.0
C2096 C 0.31916 0.43462 0.42309 0.0
C2097 C 0.36375 0.43405 0.31405 0.0
C2098 C 0.39097 0.42185 0.31097 0.0
C2099 C 0.34427 0.42197 0.32927 0.0
C2100 C 0.3516 0.39745 0.34168 0.0
C2101 C 0.37836 0.38463 0.33797 0.0
C2102 C 0.39772 0.39653 0.32262 0.0
C2103 C 0.33223 0.38644 0.35963 0.0
C2104 C 0.32326 0.40532 0.37676 0.0
C2105 C 0.3243 0.35726 0.36093 0.0
C2106 C 0.33265 0.33618 0.34334 0.0
C2107 C 0.34724 0.31104 0.34947 0.0
C2108 C 0.35536 0.29125 0.33295 0.0
C2109 C 0.34892 0.29631 0.31022 0.0
C2110 C 0.33427 0.32112 0.30399 0.0
C2111 C 0.32607 0.34097 0.32046 0.0
H2112 H 0.35526 0.28098 0.29745 0.0
H2113 H 0.2759 0.47218 0.45859 0.0
H2114 H 0.41665 0.53821 0.21699 0.0
H2115 H 0.38401 0.55908 0.18899 0.0
H2116 H 0.43645 0.52505 0.13521 0.0
H2117 H 0.46818 0.50362 0.16306 0.0
H2118 H 0.40154 0.60013 0.16381 0.0
H2119 H 0.4039 0.52369 0.0855 0.0
H2120 H 0.39915 0.47215 0.07753 0.0
H2121 H 0.35226 0.4607 0.13932 0.0
H2122 H 0.35635 0.51223 0.14753 0.0
H2123 H 0.40057 0.68219 0.0665 0.0
H2124 H 0.41311 0.64376 0.09265 0.0
H2125 H 0.32971 0.60605 0.08335 0.0
H2126 H 0.31729 0.64395 0.05669 0.0
H2127 H 0.36868 0.56525 0.08895 0.0
H2128 H 0.34262 0.65136 0.12721 0.0
H2129 H 0.34465 0.70288 0.13607 0.0
H2130 H 0.432 0.69411 0.15737 0.0
H2131 H 0.43061 0.6427 0.14831 0.0
C2132 C 0.42014 0.53391 0.1992 0.0
C2133 C 0.4447 0.51924 0.19208 0.0
C2134 C 0.40174 0.54609 0.18319 0.0
C2135 C 0.40776 0.54376 0.15993 0.0
C2136 C 0.4309 0.52678 0.15295 0.0
C2137 C 0.44908 0.5145 0.16888 0.0
C2138 C 0.39355 0.56287 0.14328 0.0
C2139 C 0.39397 0.59239 0.14758 0.0
C2140 C 0.38341 0.55288 0.12213 0.0
C2141 C 0.38058 0.52186 0.11718 0.0
C2142 C 0.39241 0.51023 0.09733 0.0
C2143 C 0.38988 0.48099 0.09279 0.0
C2144 C 0.37546 0.46315 0.10793 0.0
C2145 C 0.3635 0.47453 0.12763 0.0
C2146 C 0.36596 0.50375 0.13226 0.0
C2147 C 0.38516 0.66533 0.06956 0.0
C2148 C 0.35784 0.66631 0.05969 0.0
C2149 C 0.39226 0.64349 0.08465 0.0
C2150 C 0.37202 0.62252 0.09046 0.0
C2151 C 0.34556 0.62216 0.07928 0.0
C2152 C 0.33854 0.64384 0.06397 0.0
C2153 C 0.37779 0.60234 0.1093 0.0
C2154 C 0.37579 0.5728 0.10536 0.0
C2155 C 0.38596 0.61225 0.13101 0.0
C2156 C 0.38662 0.64318 0.13682 0.0
C2157 C 0.36233 0.66045 0.13362 0.0
C2158 C 0.36336 0.68966 0.13868 0.0
C2159 C 0.38848 0.70177 0.1472 0.0
C2160 C 0.41257 0.68471 0.15074 0.0
C2161 C 0.41168 0.65554 0.14563 0.0
H2162 H 0.38933 0.72436 0.15109 0.0
H2163 H 0.37353 0.44053 0.10438 0.0
H2164 H 0.05972 0.64718 0.82792 0.0
H2165 H 0.10189 0.66335 0.84872 0.0
H2166 H 0.14561 0.58502 0.83154 0.0
H2167 H 0.10397 0.56922 0.81006 0.0
H2168 H 0.12112 0.64025 0.88506 0.0
H2169 H 0.21817 0.59418 0.83594 0.0
H2170 H 0.23296 0.58491 0.79654 0.0
H2171 H 0.17624 0.65075 0.77318 0.0
H2172 H 0.1614 0.66066 0.81243 0.0
H2173 H 0.22744 0.66754 0.96037 0.0
H2174 H 0.20726 0.63415 0.93264 0.0
H2175 H 0.22953 0.69243 0.87886 0.0
H2176 H 0.25105 0.72467 0.90626 0.0
H2177 H 0.22293 0.64188 0.86141 0.0
H2178 H 0.17016 0.70252 0.91342 0.0
H2179 H 0.15494 0.71879 0.95117 0.0
H2180 H 0.12147 0.63531 0.96568 0.0
H2181 H 0.13655 0.61848 0.92788 0.0
C2182 C 0.0786 0.63375 0.82806 0.0
C2183 C 0.07844 0.60689 0.81743 0.0
C2184 C 0.10263 0.64292 0.84008 0.0
C2185 C 0.12689 0.62532 0.84186 0.0
C2186 C 0.12733 0.59914 0.83024 0.0
C2187 C 0.10343 0.59013 0.81794 0.0
C2188 C 0.15049 0.63332 0.85747 0.0
C2189 C 0.14337 0.64049 0.87982 0.0
C2190 C 0.17958 0.63359 0.85078 0.0
C2191 C 0.18842 0.62789 0.82711 0.0
C2192 C 0.2089 0.6067 0.82239 0.0
C2193 C 0.21729 0.60134 0.80009 0.0
C2194 C 0.20546 0.61715 0.78236 0.0
C2195 C 0.18529 0.63843 0.78691 0.0
C2196 C 0.17684 0.64389 0.80918 0.0
C2197 C 0.22964 0.67223 0.94251 0.0
C2198 C 0.2401 0.69885 0.93538 0.0
C2199 C 0.21784 0.65332 0.92667 0.0
C2200 C 0.21575 0.66143 0.90379 0.0
C2201 C 0.23047 0.68583 0.8964 0.0
C2202 C 0.24277 0.70433 0.91211 0.0
C2203 C 0.19344 0.64905 0.88882 0.0
C2204 C 0.2007 0.64105 0.86665 0.0
C2205 C 0.16426 0.64895 0.89539 0.0
C2206 C 0.15459 0.65921 0.91788 0.0
C2207 C 0.15941 0.68767 0.92459 0.0
C2208 C 0.15087 0.69697 0.94602 0.0
C2209 C 0.13723 0.67809 0.96082 0.0
C2210 C 0.13201 0.64988 0.95417 0.0
C2211 C 0.14053 0.64046 0.93275 0.0
H2212 H 0.13071 0.68531 0.97744 0.0
H2213 H 0.21198 0.61297 0.76511 0.0
H2214 H 0.19309 0.38882 0.56016 0.0
H2215 H 0.17114 0.42156 0.58746 0.0
H2216 H 0.11878 0.35255 0.61274 0.0
H2217 H 0.13958 0.32028 0.585 0.0
H2218 H 0.08832 0.39631 0.61167 0.0
H2219 H 0.18197 0.37728 0.64007 0.0
H2220 H 0.23466 0.37461 0.63937 0.0
H2221 H 0.23958 0.46549 0.62978 0.0
H2222 H 0.18688 0.46866 0.63014 0.0
H2223 H 0.07154 0.4603 0.72538 0.0
H2224 H 0.10682 0.43924 0.69945 0.0
H2225 H 0.07258 0.48967 0.6448 0.0
H2226 H 0.03759 0.51074 0.67061 0.0
H2227 H 0.14851 0.45568 0.66253 0.0
H2228 H 0.04651 0.43855 0.60907 0.0
H2229 H 0.99443 0.43241 0.61419 0.0
H2230 H 0.0082 0.40085 0.68148 0.0
H2231 H 0.06031 0.40657 0.67668 0.0
C2232 C 0.17652 0.3808 0.57129 0.0
C2233 C 0.16807 0.35195 0.57038 0.0
C2234 C 0.16425 0.39945 0.58708 0.0
C2235 C 0.14373 0.38943 0.60255 0.0
C2236 C 0.13459 0.36086 0.60107 0.0
C2237 C 0.14647 0.3424 0.58509 0.0
C2238 C 0.13148 0.40846 0.62026 0.0
C2239 C 0.10164 0.40929 0.62265 0.0
C2240 C 0.14874 0.42499 0.63512 0.0
C2241 C 0.18045 0.42317 0.63489 0.0
C2242 C 0.19427 0.39667 0.63763 0.0
C2243 C 0.22415 0.39507 0.63733 0.0
C2244 C 0.24045 0.41985 0.63446 0.0
C2245 C 0.22692 0.4463 0.63196 0.0
C2246 C 0.19705 0.44802 0.63223 0.0
C2247 C 0.07275 0.46807 0.70814 0.0
C2248 C 0.05204 0.48714 0.69991 0.0
C2249 C 0.09278 0.45595 0.69333 0.0
C2250 C 0.09199 0.46268 0.67019 0.0
C2251 C 0.07348 0.48422 0.66259 0.0
C2252 C 0.05363 0.49636 0.67735 0.0
C2253 C 0.10565 0.44352 0.65343 0.0
C2254 C 0.1355 0.44276 0.65128 0.0
C2255 C 0.08861 0.42596 0.63938 0.0
C2256 C 0.05724 0.42335 0.6426 0.0
C2257 C 0.03839 0.4304 0.62497 0.0
C2258 C 0.00888 0.42695 0.62781 0.0
C2259 C 0.99804 0.41626 0.64815 0.0
C2260 C 0.01664 0.40915 0.66575 0.0
C2261 C 0.04614 0.41263 0.66302 0.0
H2262 H 0.97525 0.41328 0.65021 0.0
H2263 H 0.26357 0.41857 0.63424 0.0
H2264 H 0.2961 0.67608 0.53905 0.0
H2265 H 0.31655 0.63913 0.56363 0.0
H2266 H 0.27514 0.67749 0.62137 0.0
H2267 H 0.25485 0.71444 0.59685 0.0
H2268 H 0.3541 0.65779 0.59655 0.0
H2269 H 0.26947 0.6238 0.66289 0.0
H2270 H 0.21774 0.61373 0.66502 0.0
H2271 H 0.21688 0.59181 0.59449 0.0
H2272 H 0.26865 0.60136 0.592 0.0
H2273 H 0.42708 0.60146 0.69127 0.0
H2274 H 0.38812 0.62894 0.67355 0.0
H2275 H 0.36026 0.55324 0.63826 0.0
H2276 H 0.39887 0.5259 0.65572 0.0
H2277 H 0.31402 0.59042 0.65313 0.0
H2278 H 0.40459 0.58981 0.61196 0.0
H2279 H 0.45662 0.59782 0.60912 0.0
H2280 H 0.44497 0.68625 0.62647 0.0
H2281 H 0.39287 0.6786 0.62977 0.0
C2282 C 0.29036 0.67578 0.55681 0.0
C2283 C 0.274 0.69795 0.56616 0.0
C2284 C 0.3022 0.65488 0.57085 0.0
C2285 C 0.29751 0.65576 0.59432 0.0
C2286 C 0.27887 0.67631 0.60331 0.0
C2287 C 0.26725 0.69734 0.58932 0.0
C2288 C 0.31559 0.63851 0.60965 0.0
C2289 C 0.34525 0.64303 0.60887 0.0
C2290 C 0.30404 0.61955 0.62591 0.0
C2291 C 0.27291 0.61361 0.62722 0.0
C2292 C 0.25826 0.61676 0.64785 0.0
C2293 C 0.22893 0.61114 0.64912 0.0
C2294 C 0.21402 0.60223 0.62989 0.0
C2295 C 0.22843 0.59884 0.60936 0.0
C2296 C 0.25776 0.60442 0.60799 0.0
C2297 C 0.41201 0.59059 0.68031 0.0
C2298 C 0.41599 0.56174 0.6746 0.0
C2299 C 0.38986 0.60622 0.67023 0.0
C2300 C 0.37135 0.59296 0.65466 0.0
C2301 C 0.37404 0.56365 0.65045 0.0
C2302 C 0.39628 0.54821 0.66022 0.0
C2303 C 0.35228 0.60998 0.64 0.0
C2304 C 0.32262 0.60544 0.64091 0.0
C2305 C 0.36372 0.62885 0.62369 0.0
C2306 C 0.39493 0.63357 0.62137 0.0
C2307 C 0.41317 0.6109 0.61534 0.0
C2308 C 0.44265 0.61538 0.61362 0.0
C2309 C 0.45411 0.64251 0.61768 0.0
C2310 C 0.43608 0.66524 0.62338 0.0
C2311 C 0.40657 0.66085 0.62517 0.0
H2312 H 0.47695 0.64594 0.61635 0.0
H2313 H 0.19131 0.59789 0.63091 0.0
H2314 H 0.18489 0.61786 0.45936 0.0
H2315 H 0.16167 0.58677 0.43139 0.0
H2316 H 0.14023 0.66099 0.39137 0.0
H2317 H 0.16128 0.69183 0.41987 0.0
H2318 H 0.09921 0.62906 0.38868 0.0
H2319 H 0.20001 0.61115 0.38092 0.0
H2320 H 0.24827 0.59699 0.39349 0.0
H2321 H 0.21705 0.51335 0.41054 0.0
H2322 H 0.16849 0.52716 0.39835 0.0
H2323 H 0.07199 0.57034 0.28367 0.0
H2324 H 0.10459 0.59053 0.31188 0.0
H2325 H 0.0909 0.51715 0.35465 0.0
H2326 H 0.05826 0.49691 0.32633 0.0
H2327 H 0.14923 0.54442 0.3571 0.0
H2328 H 0.04664 0.56759 0.36158 0.0
H2329 H 0.00137 0.58601 0.3459 0.0
H2330 H 0.04197 0.66589 0.33017 0.0
H2331 H 0.08759 0.64786 0.34549 0.0
C2332 C 0.17466 0.62743 0.44477 0.0
C2333 C 0.17465 0.65727 0.44193 0.0
C2334 C 0.16176 0.60965 0.42861 0.0
C2335 C 0.14965 0.62134 0.40887 0.0
C2336 C 0.14925 0.65123 0.40638 0.0
C2337 C 0.16126 0.66896 0.42279 0.0
C2338 C 0.13715 0.60295 0.39072 0.0
C2339 C 0.1105 0.61079 0.38172 0.0
C2340 C 0.15139 0.57866 0.38165 0.0
C2341 C 0.18055 0.5703 0.38896 0.0
C2342 C 0.2034 0.58981 0.3875 0.0
C2343 C 0.23081 0.58183 0.39454 0.0
C2344 C 0.2357 0.55431 0.40287 0.0
C2345 C 0.21321 0.53468 0.40413 0.0
C2346 C 0.18574 0.54256 0.39715 0.0
C2347 C 0.07727 0.55781 0.2985 0.0
C2348 C 0.06304 0.53193 0.30276 0.0
C2349 C 0.09562 0.56947 0.31471 0.0
C2350 C 0.09981 0.5555 0.33547 0.0
C2351 C 0.08802 0.52819 0.33871 0.0
C2352 C 0.06959 0.51653 0.32247 0.0
C2353 C 0.11209 0.57139 0.35489 0.0
C2354 C 0.1383 0.56281 0.36421 0.0
C2355 C 0.09804 0.59568 0.36381 0.0
C2356 C 0.07057 0.60629 0.35452 0.0
C2357 C 0.04598 0.58898 0.35461 0.0
C2358 C 0.02025 0.5994 0.34583 0.0
C2359 C 0.01881 0.62708 0.33705 0.0
C2360 C 0.04311 0.64444 0.33698 0.0
C2361 C 0.06889 0.63416 0.34572 0.0
H2362 H 0.99888 0.63515 0.33034 0.0
H2363 H 0.25694 0.54817 0.40829 0.0
H2364 H 0.13492 0.45725 0.19879 0.0
H2365 H 0.16899 0.43645 0.17184 0.0
H2366 H 0.10226 0.38184 0.14569 0.0
H2367 H 0.06883 0.40135 0.17294 0.0
H2368 H 0.14681 0.35253 0.14895 0.0
H2369 H 0.12606 0.44582 0.11914 0.0
H2370 H 0.1238 0.49848 0.11759 0.0
H2371 H 0.21492 0.50333 0.12582 0.0
H2372 H 0.21769 0.4507 0.12775 0.0
H2373 H 0.2025 0.33439 0.03329 0.0
H2374 H 0.18356 0.36988 0.06005 0.0
H2375 H 0.23891 0.33665 0.11207 0.0
H2376 H 0.25798 0.30156 0.08539 0.0
H2377 H 0.20333 0.41206 0.09573 0.0
H2378 H 0.18994 0.31126 0.15104 0.0
H2379 H 0.18263 0.25914 0.14737 0.0
H2380 H 0.14708 0.27106 0.0811 0.0
H2381 H 0.15382 0.32317 0.08451 0.0
C2382 C 0.12772 0.44039 0.18758 0.0
C2383 C 0.09915 0.43091 0.18811 0.0
C2384 C 0.14711 0.42882 0.17197 0.0
C2385 C 0.13812 0.40787 0.15646 0.0
C2386 C 0.10981 0.39794 0.15745 0.0
C2387 C 0.09065 0.40914 0.17314 0.0
C2388 C 0.15788 0.3956 0.1393 0.0
C2389 C 0.15927 0.36572 0.1375 0.0
C2390 C 0.17389 0.41265 0.12398 0.0
C2391 C 0.17205 0.44431 0.12381 0.0
C2392 C 0.14557 0.45811 0.12091 0.0
C2393 C 0.14421 0.48796 0.11988 0.0
C2394 C 0.16922 0.50422 0.12153 0.0
C2395 C 0.19558 0.4907 0.12449 0.0
C2396 C 0.19706 0.46087 0.12557 0.0
C2397 C 0.21176 0.33589 0.05005 0.0
C2398 C 0.2317 0.31548 0.05737 0.0
C2399 C 0.20087 0.35603 0.06534 0.0
C2400 C 0.20965 0.35558 0.08805 0.0
C2401 C 0.23191 0.3373 0.09461 0.0
C2402 C 0.24289 0.31739 0.07935 0.0
C2403 C 0.19189 0.36934 0.10566 0.0
C2404 C 0.19107 0.3992 0.10753 0.0
C2405 C 0.17538 0.35246 0.12058 0.0
C2406 C 0.17279 0.32104 0.11792 0.0
C2407 C 0.18074 0.3027 0.13565 0.0
C2408 C 0.17661 0.27319 0.13363 0.0
C2409 C 0.16436 0.26184 0.11404 0.0
C2410 C 0.15655 0.27989 0.09628 0.0
C2411 C 0.16066 0.3094 0.09819 0.0
H2412 H 0.16064 0.2391 0.11272 0.0
H2413 H 0.16821 0.52729 0.12039 0.0
H2414 H 0.49193 0.50094 0.85707 0.0
H2415 H 0.45708 0.48306 0.88437 0.0
H2416 H 0.39668 0.46858 0.83056 0.0
H2417 H 0.43204 0.48453 0.80288 0.0
H2418 H 0.37635 0.48789 0.88157 0.0
H2419 H 0.42823 0.4185 0.83394 0.0
H2420 H 0.47268 0.39943 0.81734 0.0
H2421 H 0.50725 0.38666 0.88384 0.0
H2422 H 0.46361 0.40716 0.90077 0.0
H2423 H 0.2896 0.36864 0.90343 0.0
H2424 H 0.31956 0.40777 0.89036 0.0
H2425 H 0.38578 0.38243 0.93703 0.0
H2426 H 0.35564 0.34264 0.95018 0.0
H2427 H 0.40622 0.38748 0.89525 0.0
H2428 H 0.35197 0.44665 0.94348 0.0
H2429 H 0.30913 0.46685 0.96177 0.0
H2430 H 0.27971 0.49838 0.89769 0.0
H2431 H 0.32218 0.47799 0.87892 0.0
C2432 C 0.47098 0.49464 0.85104 0.0
C2433 C 0.46513 0.49329 0.82768 0.0
C2434 C 0.45103 0.48466 0.86673 0.0
C2435 C 0.42459 0.47414 0.85937 0.0
C2436 C 0.41707 0.47665 0.83649 0.0
C2437 C 0.43733 0.48592 0.82067 0.0
C2438 C 0.40765 0.45546 0.87443 0.0
C2439 C 0.38264 0.46589 0.88453 0.0
C2440 C 0.41661 0.42713 0.87884 0.0
C2441 C 0.44292 0.41499 0.8686 0.0
C2442 C 0.44558 0.41228 0.845 0.0
C2443 C 0.47063 0.40118 0.83552 0.0
C2444 C 0.49289 0.39206 0.84951 0.0
C2445 C 0.49012 0.394 0.873 0.0
C2446 C 0.46531 0.40552 0.88254 0.0
C2447 C 0.31036 0.37161 0.91122 0.0
C2448 C 0.3204 0.35243 0.92771 0.0
C2449 C 0.32738 0.39421 0.90386 0.0
C2450 C 0.35485 0.39823 0.91281 0.0
C2451 C 0.36457 0.37979 0.92996 0.0
C2452 C 0.34735 0.35715 0.93751 0.0
C2453 C 0.37425 0.41952 0.90221 0.0
C2454 C 0.39992 0.40959 0.89277 0.0
C2455 C 0.36591 0.44832 0.89862 0.0
C2456 C 0.34022 0.4606 0.90976 0.0
C2457 C 0.33626 0.45768 0.93324 0.0
C2458 C 0.31205 0.46921 0.9437 0.0
C2459 C 0.29168 0.48385 0.93089 0.0
C2460 C 0.29551 0.48703 0.90759 0.0
C2461 C 0.31967 0.47552 0.89703 0.0
H2462 H 0.27296 0.49278 0.93903 0.0
H2463 H 0.51221 0.38332 0.84214 0.0
H2464 H 0.2837 0.87839 0.07223 0.0
H2465 H 0.25961 0.90883 0.0999 0.0
H2466 H 0.1945 0.84416 0.10874 0.0
H2467 H 0.21749 0.81482 0.07966 0.0
H2468 H 0.17053 0.89068 0.1013 0.0
H2469 H 0.24574 0.86553 0.15273 0.0
H2470 H 0.29608 0.8582 0.16404 0.0
H2471 H 0.31324 0.94739 0.15372 0.0
H2472 H 0.26313 0.95507 0.14205 0.0
H2473 H 0.09683 0.96202 0.18576 0.0
H2474 H 0.13833 0.9318 0.17822 0.0
H2475 H 0.17174 0.99527 0.1325 0.0
H2476 H 0.12984 0.02491 0.13894 0.0
H2477 H 0.21302 0.94827 0.16341 0.0
H2478 H 0.14248 0.96518 0.09901 0.0
H2479 H 0.09251 0.97173 0.08645 0.0
H2480 H 0.06745 0.89658 0.12318 0.0
H2481 H 0.11726 0.88984 0.13612 0.0
C2482 C 0.26448 0.87061 0.08043 0.0
C2483 C 0.25264 0.84415 0.07435 0.0
C2484 C 0.25093 0.8878 0.09645 0.0
C2485 C 0.22553 0.87858 0.10682 0.0
C2486 C 0.21417 0.85168 0.10109 0.0
C2487 C 0.22731 0.83487 0.08461 0.0
C2488 C 0.20867 0.89847 0.12105 0.0
C2489 C 0.1799 0.90264 0.11519 0.0
C2490 C 0.22087 0.91495 0.13878 0.0
C2491 C 0.25082 0.91071 0.14632 0.0
C2492 C 0.26038 0.88345 0.15275 0.0
C2493 C 0.28882 0.87926 0.15925 0.0
C2494 C 0.30789 0.90226 0.15952 0.0
C2495 C 0.29847 0.92956 0.15346 0.0
C2496 C 0.27003 0.93385 0.14695 0.0
C2497 C 0.11353 0.97008 0.17478 0.0
C2498 C 0.10986 0.9957 0.16269 0.0
C2499 C 0.13737 0.95292 0.17071 0.0
C2500 C 0.15791 0.96146 0.15485 0.0
C2501 C 0.1562 0.98862 0.14504 0.0
C2502 C 0.13212 0.00552 0.14872 0.0
C2503 C 0.17539 0.9396 0.14364 0.0
C2504 C 0.20399 0.93553 0.14984 0.0
C2505 C 0.16326 0.92302 0.12619 0.0
C2506 C 0.13338 0.92716 0.11864 0.0
C2507 C 0.12622 0.95021 0.10451 0.0
C2508 C 0.09797 0.95395 0.09734 0.0
C2509 C 0.07683 0.93459 0.10404 0.0
C2510 C 0.08386 0.91155 0.11802 0.0
C2511 C 0.11206 0.90778 0.12529 0.0
H2512 H 0.05504 0.9373 0.09831 0.0
H2513 H 0.32994 0.89895 0.16446 0.0
H2514 H 0.4377 0.95456 0.33387 0.0
H2515 H 0.39563 0.92433 0.33892 0.0
H2516 H 0.34084 0.99717 0.32805 0.0
H2517 H 0.38277 0.02761 0.32314 0.0
H2518 H 0.33982 0.97636 0.37183 0.0
H2519 H 0.32813 0.94109 0.29788 0.0
H2520 H 0.34023 0.91976 0.26099 0.0
H2521 H 0.36477 0.84165 0.29378 0.0
H2522 H 0.35333 0.86265 0.33094 0.0
H2523 H 0.2224 0.87361 0.40174 0.0
H2524 H 0.24938 0.9107 0.38184 0.0
H2525 H 0.32839 0.87217 0.40363 0.0
H2526 H 0.30183 0.83565 0.42423 0.0
H2527 H 0.30797 0.87923 0.34992 0.0
H2528 H 0.3299 0.92309 0.42398 0.0
H2529 H 0.31626 0.94583 0.46004 0.0
H2530 H 0.26927 0.01015 0.42397 0.0
H2531 H 0.28229 0.98745 0.38768 0.0
C2532 C 0.41672 0.9639 0.33152 0.0
C2533 C 0.41344 0.99357 0.32887 0.0
C2534 C 0.39265 0.94656 0.33433 0.0
C2535 C 0.3652 0.95872 0.33432 0.0
C2536 C 0.3619 0.98752 0.32834 0.0
C2537 C 0.3859 0.00487 0.32561 0.0
C2538 C 0.34174 0.9437 0.34607 0.0
C2539 C 0.33216 0.95556 0.36656 0.0
C2540 C 0.33237 0.91619 0.33956 0.0
C2541 C 0.34009 0.9036 0.31729 0.0
C2542 C 0.33646 0.91949 0.2973 0.0
C2543 C 0.34312 0.90742 0.27631 0.0
C2544 C 0.35332 0.87939 0.27504 0.0
C2545 C 0.35689 0.86338 0.29478 0.0
C2546 C 0.3503 0.87536 0.31582 0.0
C2547 C 0.24547 0.87371 0.40312 0.0
C2548 C 0.25995 0.85148 0.41435 0.0
C2549 C 0.2608 0.89475 0.39157 0.0
C2550 C 0.2907 0.8937 0.39111 0.0
C2551 C 0.30523 0.87306 0.4038 0.0
C2552 C 0.28997 0.85232 0.41565 0.0
C2553 C 0.30688 0.91199 0.37551 0.0
C2554 C 0.31506 0.90055 0.35453 0.0
C2555 C 0.31485 0.94002 0.38137 0.0
C2556 C 0.30652 0.95321 0.40318 0.0
C2557 C 0.31623 0.94176 0.42376 0.0
C2558 C 0.30874 0.95474 0.44423 0.0
C2559 C 0.29176 0.97932 0.44431 0.0
C2560 C 0.2823 0.99102 0.4239 0.0
C2561 C 0.28971 0.97811 0.40338 0.0
H2562 H 0.28604 0.98937 0.46017 0.0
H2563 H 0.3584 0.87006 0.25877 0.0
H2564 H 0.29028 0.11166 0.55272 0.0
H2565 H 0.31173 0.07234 0.57472 0.0
H2566 H 0.3154 0.12747 0.63332 0.0
H2567 H 0.29605 0.16649 0.61143 0.0
H2568 H 0.36267 0.10174 0.62922 0.0
H2569 H 0.26377 0.07497 0.62011 0.0
H2570 H 0.22015 0.05924 0.60039 0.0
H2571 H 0.26284 0.98261 0.57885 0.0
H2572 H 0.30683 0.99806 0.59831 0.0
H2573 H 0.39963 0.01575 0.7172 0.0
H2574 H 0.36414 0.04337 0.69603 0.0
H2575 H 0.36605 0.98028 0.64269 0.0
H2576 H 0.39936 0.9516 0.66458 0.0
H2577 H 0.31747 0.00699 0.64102 0.0
H2578 H 0.4166 0.03624 0.64861 0.0
H2579 H 0.45965 0.05183 0.66967 0.0
H2580 H 0.41447 0.12547 0.69398 0.0
H2581 H 0.37111 0.10997 0.6736 0.0
C2582 C 0.29614 0.11524 0.57021 0.0
C2583 C 0.2921 0.14216 0.58027 0.0
C2584 C 0.30809 0.09282 0.58279 0.0
C2585 C 0.31507 0.09696 0.6057 0.0
C2586 C 0.31055 0.12381 0.61563 0.0
C2587 C 0.29955 0.14619 0.60303 0.0
C2588 C 0.32774 0.07414 0.61981 0.0
C2589 C 0.35251 0.08114 0.63194 0.0
C2590 C 0.31507 0.04684 0.62274 0.0
C2591 C 0.28873 0.03787 0.61058 0.0
C2592 C 0.26393 0.05486 0.61109 0.0
C2593 C 0.23911 0.04598 0.59994 0.0
C2594 C 0.23874 0.01997 0.5883 0.0
C2595 C 0.26317 0.00279 0.58782 0.0
C2596 C 0.28806 0.01163 0.59892 0.0
C2597 C 0.39121 0.00713 0.70154 0.0
C2598 C 0.40245 0.9819 0.69234 0.0
C2599 C 0.37122 0.02299 0.68933 0.0
C2600 C 0.36358 0.0145 0.66732 0.0
C2601 C 0.37195 0.98747 0.65948 0.0
C2602 C 0.39103 0.97105 0.67207 0.0
C2603 C 0.35139 0.03538 0.65118 0.0
C2604 C 0.3273 0.02773 0.63834 0.0
C2605 C 0.36444 0.06236 0.64761 0.0
C2606 C 0.39064 0.07176 0.65972 0.0
C2607 C 0.41595 0.05567 0.6585 0.0
C2608 C 0.44033 0.06446 0.67032 0.0
C2609 C 0.4398 0.08959 0.68309 0.0
C2610 C 0.41486 0.10598 0.6841 0.0
C2611 C 0.39037 0.09716 0.67247 0.0
H2612 H 0.45871 0.09636 0.69219 0.0
H2613 H 0.21949 0.0131 0.5797 0.0
H2614 H 0.25365 0.15286 0.91997 0.0
H2615 H 0.23704 0.10477 0.91152 0.0
H2616 H 0.29364 0.1008 0.85409 0.0
H2617 H 0.31054 0.14907 0.86237 0.0
H2618 H 0.2212 0.1175 0.85771 0.0
H2619 H 0.27921 0.00893 0.85493 0.0
H2620 H 0.31703 0.98266 0.87524 0.0
H2621 H 0.29833 0.02968 0.93584 0.0
H2622 H 0.25992 0.05561 0.91612 0.0
H2623 H 0.13852 0.02417 0.79175 0.0
H2624 H 0.18673 0.03569 0.80563 0.0
H2625 H 0.15676 0.02928 0.8744 0.0
H2626 H 0.10881 0.01824 0.86083 0.0
H2627 H 0.22199 0.0115 0.86206 0.0
H2628 H 0.15005 0.09471 0.86749 0.0
H2629 H 0.10923 0.11889 0.84911 0.0
H2630 H 0.15543 0.12114 0.78634 0.0
H2631 H 0.19659 0.09732 0.8045 0.0
C2632 C 0.26368 0.1413 0.90621 0.0
C2633 C 0.2823 0.15517 0.89115 0.0
C2634 C 0.25446 0.11356 0.90161 0.0
C2635 C 0.26395 0.09941 0.88207 0.0
C2636 C 0.28622 0.11135 0.86933 0.0
C2637 C 0.2955 0.13916 0.8739 0.0
C2638 C 0.24348 0.08049 0.87056 0.0
C2639 C 0.22177 0.0943 0.85843 0.0
C2640 C 0.24421 0.0503 0.87162 0.0
C2641 C 0.2671 0.03474 0.88384 0.0
C2642 C 0.28313 0.01364 0.8726 0.0
C2643 C 0.30461 0.99871 0.88404 0.0
C2644 C 0.31024 0.00466 0.90676 0.0
C2645 C 0.29417 0.02531 0.91817 0.0
C2646 C 0.27257 0.0402 0.90683 0.0
C2647 C 0.14245 0.02466 0.8098 0.0
C2648 C 0.1199 0.02126 0.82523 0.0
C2649 C 0.16999 0.03073 0.81768 0.0
C2650 C 0.1752 0.03292 0.841 0.0
C2651 C 0.15319 0.02715 0.85637 0.0
C2652 C 0.1257 0.02154 0.84855 0.0
C2653 C 0.20028 0.04874 0.84925 0.0
C2654 C 0.22236 0.03463 0.86083 0.0
C2655 C 0.20014 0.0788 0.84798 0.0
C2656 C 0.17627 0.09448 0.83731 0.0
C2657 C 0.15152 0.10069 0.84983 0.0
C2658 C 0.12835 0.11428 0.83946 0.0
C2659 C 0.12979 0.1217 0.81659 0.0
C2660 C 0.15444 0.11564 0.80408 0.0
C2661 C 0.17771 0.10218 0.81441 0.0
H2662 H 0.11177 0.13206 0.80854 0.0
H2663 H 0.32695 0.99316 0.91556 0.0
H2664 H 0.9717 0.08541 0.81907 0.0
H2665 H 0.94403 0.11974 0.84199 0.0
H2666 H 0.90162 0.04986 0.87566 0.0
H2667 H 0.92802 0.01574 0.85247 0.0
H2668 H 0.87476 0.11595 0.84795 0.0
H2669 H 0.91196 0.07987 0.93651 0.0
H2670 H 0.95387 0.05872 0.95524 0.0
H2671 H 0.00856 0.09133 0.90294 0.0
H2672 H 0.96725 0.11446 0.88472 0.0
H2673 H 0.77705 0.15171 0.93288 0.0
H2674 H 0.81358 0.12361 0.91359 0.0
H2675 H 0.87503 0.19103 0.92423 0.0
H2676 H 0.83842 0.2196 0.94359 0.0
H2677 H 0.89714 0.13194 0.92909 0.0
H2678 H 0.8447 0.19173 0.87649 0.0
H2679 H 0.79865 0.21014 0.86289 0.0
H2680 H 0.77242 0.12526 0.84467 0.0
H2681 H 0.81826 0.10616 0.85861 0.0
C2682 C 0.95628 0.07747 0.83122 0.0
C2683 C 0.95188 0.04793 0.83382 0.0
C2684 C 0.94058 0.09702 0.84429 0.0
C2685 C 0.92109 0.08721 0.86066 0.0
C2686 C 0.91671 0.0578 0.86324 0.0
C2687 C 0.93172 0.03836 0.84983 0.0
C2688 C 0.90457 0.10741 0.87485 0.0
C2689 C 0.87988 0.11971 0.8656 0.0
C2690 C 0.91103 0.11187 0.898 0.0
C2691 C 0.93629 0.09842 0.90893 0.0
C2692 C 0.93292 0.08268 0.92902 0.0
C2693 C 0.95662 0.07037 0.9396 0.0
C2694 C 0.98382 0.07323 0.93009 0.0
C2695 C 0.98743 0.08888 0.91017 0.0
C2696 C 0.96386 0.1017 0.89975 0.0
C2697 C 0.79845 0.16046 0.93157 0.0
C2698 C 0.80469 0.18812 0.93962 0.0
C2699 C 0.81932 0.1443 0.92051 0.0
C2700 C 0.84691 0.15537 0.91725 0.0
C2701 C 0.85384 0.18212 0.92657 0.0
C2702 C 0.83287 0.19843 0.9376 0.0
C2703 C 0.86736 0.1402 0.9022 0.0
C2704 C 0.89246 0.12859 0.91132 0.0
C2705 C 0.86118 0.13592 0.87901 0.0
C2706 C 0.8348 0.14754 0.8687 0.0
C2707 C 0.82914 0.17701 0.86949 0.0
C2708 C 0.80302 0.18758 0.86177 0.0
C2709 C 0.78248 0.16899 0.85297 0.0
C2710 C 0.78829 0.13973 0.85148 0.0
C2711 C 0.81437 0.12899 0.85928 0.0
H2712 H 0.76207 0.17729 0.84746 0.0
H2713 H 0.00212 0.06354 0.93826 0.0
H2714 H 0.7044 0.20548 0.62261 0.0
H2715 H 0.67765 0.16584 0.63886 0.0
H2716 H 0.69852 0.11332 0.58122 0.0
H2717 H 0.72614 0.15316 0.5648 0.0
H2718 H 0.63812 0.11481 0.59394 0.0
H2719 H 0.72739 0.08539 0.62747 0.0
H2720 H 0.77378 0.09161 0.64675 0.0
H2721 H 0.73222 0.13612 0.70114 0.0
H2722 H 0.68539 0.12909 0.68256 0.0
H2723 H 0.5988 0.99844 0.6839 0.0
H2724 H 0.63513 0.02648 0.66416 0.0
H2725 H 0.5736 0.09369 0.6529 0.0
H2726 H 0.53694 0.06553 0.6721 0.0
H2727 H 0.65966 0.07627 0.67028 0.0
H2728 H 0.58388 0.12405 0.60191 0.0
H2729 H 0.53943 0.11079 0.58202 0.0
H2730 H 0.55738 0.02186 0.59303 0.0
H2731 H 0.60218 0.03454 0.61265 0.0
C2732 C 0.70328 0.18558 0.61325 0.0
C2733 C 0.71705 0.18257 0.59223 0.0
C2734 C 0.68821 0.16284 0.62271 0.0
C2735 C 0.68627 0.13665 0.61131 0.0
C2736 C 0.69991 0.1334 0.59029 0.0
C2737 C 0.71556 0.15613 0.58093 0.0
C2738 C 0.66857 0.11358 0.6212 0.0
C2739 C 0.64287 0.10608 0.61051 0.0
C2740 C 0.67507 0.10185 0.64259 0.0
C2741 C 0.70304 0.10691 0.65358 0.0
C2742 C 0.72821 0.09659 0.6435 0.0
C2743 C 0.75452 0.10009 0.65437 0.0
C2744 C 0.756 0.11449 0.67505 0.0
C2745 C 0.73107 0.12503 0.68509 0.0
C2746 C 0.7046 0.12105 0.67451 0.0
C2747 C 0.59303 0.01932 0.67745 0.0
C2748 C 0.56487 0.02964 0.67945 0.0
C2749 C 0.61385 0.0353 0.66612 0.0
C2750 C 0.60694 0.06191 0.65661 0.0
C2751 C 0.57924 0.07289 0.65959 0.0
C2752 C 0.55835 0.05685 0.67075 0.0
C2753 C 0.62855 0.07813 0.64339 0.0
C2754 C 0.65492 0.0845 0.65354 0.0
C2755 C 0.62288 0.08818 0.62122 0.0
C2756 C 0.59631 0.0803 0.60891 0.0
C2757 C 0.57846 0.10166 0.59995 0.0
C2758 C 0.55317 0.09425 0.58875 0.0
C2759 C 0.54556 0.06551 0.58631 0.0
C2760 C 0.56327 0.04412 0.59499 0.0
C2761 C 0.58861 0.05141 0.60616 0.0
H2762 H 0.52597 0.05982 0.57766 0.0
H2763 H 0.77645 0.11741 0.68331 0.0
H2764 H 0.6931 0.80389 0.43784 0.0
H2765 H 0.65505 0.83434 0.42243 0.0
H2766 H 0.7186 0.89246 0.39617 0.0
H2767 H 0.75636 0.86272 0.41193 0.0
H2768 H 0.67518 0.92188 0.40874 0.0
H2769 H 0.68798 0.83796 0.36322 0.0
H2770 H 0.69079 0.78609 0.35606 0.0
H2771 H 0.60365 0.77605 0.37756 0.0
H2772 H 0.60043 0.82786 0.38519 0.0
H2773 H 0.59379 0.98957 0.32453 0.0
H2774 H 0.62976 0.9572 0.34037 0.0
H2775 H 0.56285 0.90772 0.37193 0.0
H2776 H 0.52686 0.93989 0.35569 0.0
H2777 H 0.60707 0.87364 0.35684 0.0
H2778 H 0.59572 0.9608 0.40019 0.0
H2779 H 0.59529 0.01312 0.40543 0.0
H2780 H 0.68338 0.01764 0.38518 0.0
H2781 H 0.68416 0.96537 0.37933 0.0
C2782 C 0.69886 0.8235 0.42923 0.0
C2783 C 0.7277 0.83065 0.42574 0.0
C2784 C 0.67714 0.84074 0.42021 0.0
C2785 C 0.68398 0.86525 0.40747 0.0
C2786 C 0.71272 0.87348 0.40559 0.0
C2787 C 0.73433 0.85637 0.41458 0.0
C2788 C 0.66166 0.88145 0.39487 0.0
C2789 C 0.66047 0.91132 0.39726 0.0
C2790 C 0.64232 0.86777 0.37989 0.0
C2791 C 0.64405 0.83672 0.37499 0.0
C2792 C 0.66946 0.82466 0.36654 0.0
C2793 C 0.67113 0.79528 0.36238 0.0
C2794 C 0.64744 0.77777 0.36639 0.0
C2795 C 0.62199 0.78964 0.37449 0.0
C2796 C 0.62022 0.819 0.37873 0.0
C2797 C 0.58677 0.97109 0.33403 0.0
C2798 C 0.55763 0.96674 0.3385 0.0
C2799 C 0.60732 0.95283 0.34335 0.0
C2800 C 0.59901 0.93031 0.35766 0.0
C2801 C 0.56975 0.92492 0.36094 0.0
C2802 C 0.54921 0.94315 0.35156 0.0
C2803 C 0.62068 0.91397 0.37073 0.0
C2804 C 0.62175 0.88413 0.36838 0.0
C2805 C 0.64029 0.92775 0.38542 0.0
C2806 C 0.6399 0.95918 0.38911 0.0
C2807 C 0.61493 0.97296 0.39667 0.0
C2808 C 0.61462 0.00261 0.39975 0.0
C2809 C 0.63926 0.0187 0.39558 0.0
C2810 C 0.66428 0.00516 0.38834 0.0
C2811 C 0.66466 0.97552 0.38513 0.0
H2812 H 0.63895 0.04162 0.39807 0.0
H2813 H 0.64879 0.75502 0.36317 0.0
H2814 H 0.97727 0.92363 0.16027 0.0
H2815 H 0.94272 0.89307 0.14084 0.0
H2816 H 0.8753 0.95265 0.15683 0.0
H2817 H 0.90974 0.98346 0.17632 0.0
H2818 H 0.89309 0.86635 0.15549 0.0
H2819 H 0.8306 0.9556 0.11138 0.0
H2820 H 0.83798 0.00528 0.09866 0.0
H2821 H 0.92728 0.98825 0.08813 0.0
H2822 H 0.92037 0.93845 0.10073 0.0
H2823 H 0.75694 0.84621 0.08183 0.0
H2824 H 0.79111 0.8781 0.10032 0.0
H2825 H 0.85773 0.81538 0.09116 0.0
H2826 H 0.82357 0.78313 0.07298 0.0
H2827 H 0.8398 0.90414 0.08936 0.0
H2828 H 0.90004 0.81333 0.13595 0.0
H2829 H 0.89025 0.76581 0.15245 0.0
H2830 H 0.80206 0.78877 0.16171 0.0
H2831 H 0.8113 0.83609 0.14518 0.0
C2832 C 0.95505 0.93013 0.15989 0.0
C2833 C 0.94632 0.95607 0.16981 0.0
C2834 C 0.93533 0.91262 0.14876 0.0
C2835 C 0.90654 0.92077 0.14711 0.0
C2836 C 0.89752 0.94615 0.15763 0.0
C2837 C 0.91721 0.96363 0.16891 0.0
C2838 C 0.88614 0.90286 0.13406 0.0
C2839 C 0.88176 0.87447 0.14082 0.0
C2840 C 0.87069 0.91374 0.11536 0.0
C2841 C 0.87497 0.94338 0.10714 0.0
C2842 C 0.85176 0.96244 0.10623 0.0
C2843 C 0.85588 0.99063 0.09907 0.0
C2844 C 0.88309 0.99995 0.09259 0.0
C2845 C 0.90623 0.98105 0.09321 0.0
C2846 C 0.90223 0.95285 0.1004 0.0
C2847 C 0.77894 0.83928 0.08349 0.0
C2848 C 0.78744 0.81197 0.07604 0.0
C2849 C 0.79848 0.8576 0.09407 0.0
C2850 C 0.8269 0.849 0.09752 0.0
C2851 C 0.83578 0.8223 0.08911 0.0
C2852 C 0.81625 0.80394 0.07855 0.0
C2853 C 0.84695 0.86741 0.11063 0.0
C2854 C 0.85122 0.89592 0.10393 0.0
C2855 C 0.86206 0.85681 0.12962 0.0
C2856 C 0.8563 0.82808 0.13911 0.0
C2857 C 0.87856 0.80811 0.14146 0.0
C2858 C 0.87309 0.78118 0.15077 0.0
C2859 C 0.84552 0.77412 0.158 0.0
C2860 C 0.82335 0.794 0.15592 0.0
C2861 C 0.82866 0.82085 0.14649 0.0
H2862 H 0.84143 0.75332 0.1653 0.0
H2863 H 0.88624 0.02179 0.08709 0.0
H2864 H 0.63095 0.53903 0.64087 0.0
H2865 H 0.68003 0.523 0.63501 0.0
H2866 H 0.658 0.44105 0.66378 0.0
H2867 H 0.60986 0.4583 0.67176 0.0
H2868 H 0.71219 0.44842 0.66889 0.0
H2869 H 0.64555 0.45846 0.60559 0.0
H2870 H 0.61347 0.48644 0.58092 0.0
H2871 H 0.68326 0.54163 0.56282 0.0
H2872 H 0.71567 0.51408 0.58757 0.0
H2873 H 0.73056 0.34494 0.58256 0.0
H2874 H 0.71495 0.39411 0.58771 0.0
H2875 H 0.79492 0.41444 0.62046 0.0
H2876 H 0.8097 0.36447 0.61651 0.0
H2877 H 0.72527 0.45077 0.58551 0.0
H2878 H 0.78244 0.43797 0.66725 0.0
H2879 H 0.80923 0.39981 0.687 0.0
H2880 H 0.74774 0.33764 0.66478 0.0
H2881 H 0.72066 0.37543 0.64499 0.0
C2882 C 0.63714 0.51828 0.6471 0.0
C2883 C 0.61667 0.50001 0.65669 0.0
C2884 C 0.66507 0.50893 0.64348 0.0
C2885 C 0.67244 0.48049 0.64821 0.0
C2886 C 0.65281 0.46307 0.65984 0.0
C2887 C 0.62517 0.47288 0.66427 0.0
C2888 C 0.6979 0.4672 0.63756 0.0
C2889 C 0.71556 0.44961 0.65075 0.0
C2890 C 0.70215 0.46829 0.61378 0.0
C2891 C 0.6829 0.48446 0.59856 0.0
C2892 C 0.654 0.4766 0.59636 0.0
C2893 C 0.63577 0.49238 0.58239 0.0
C2894 C 0.6463 0.51585 0.57036 0.0
C2895 C 0.67512 0.52349 0.57219 0.0
C2896 C 0.69343 0.50781 0.58617 0.0
C2897 C 0.74529 0.36013 0.59003 0.0
C2898 C 0.77096 0.35095 0.59989 0.0
C2899 C 0.73644 0.38837 0.59282 0.0
C2900 C 0.75338 0.40763 0.60521 0.0
C2901 C 0.78125 0.39968 0.61136 0.0
C2902 C 0.78973 0.37123 0.60912 0.0
C2903 C 0.73888 0.43164 0.61676 0.0
C2904 C 0.72311 0.45105 0.60379 0.0
C2905 C 0.73548 0.43136 0.64059 0.0
C2906 C 0.74961 0.40944 0.65476 0.0
C2907 C 0.77446 0.41623 0.66694 0.0
C2908 C 0.78978 0.39465 0.67796 0.0
C2909 C 0.78028 0.36632 0.677 0.0
C2910 C 0.75509 0.35957 0.66547 0.0
C2911 C 0.73972 0.38105 0.65442 0.0
H2912 H 0.79243 0.34957 0.68516 0.0
H2913 H 0.63215 0.52807 0.55958 0.0
H2914 H 0.74287 0.37679 0.95739 0.0
H2915 H 0.75678 0.42086 0.93771 0.0
H2916 H 0.84138 0.38613 0.92733 0.0
H2917 H 0.82774 0.34277 0.94705 0.0
H2918 H 0.8443 0.44216 0.93151 0.0
H2919 H 0.77755 0.37308 0.89135 0.0
H2920 H 0.72993 0.35272 0.88301 0.0
H2921 H 0.69513 0.4373 0.8765 0.0
H2922 H 0.74245 0.45808 0.88513 0.0
H2923 H 0.91025 0.41808 0.8335 0.0
H2924 H 0.87288 0.41156 0.8618 0.0
H2925 H 0.83363 0.49087 0.84143 0.0
H2926 H 0.87114 0.49766 0.81294 0.0
H2927 H 0.79531 0.43991 0.85711 0.0
H2928 H 0.87152 0.50149 0.87879 0.0
H2929 H 0.92155 0.51748 0.88254 0.0
H2930 H 0.94102 0.44407 0.923 0.0
H2931 H 0.89161 0.42665 0.91868 0.0
C2932 C 0.76479 0.37923 0.95177 0.0
C2933 C 0.78424 0.35636 0.95342 0.0
C2934 C 0.7726 0.40428 0.94036 0.0
C2935 C 0.79988 0.40655 0.93062 0.0
C2936 C 0.82014 0.38493 0.93462 0.0
C2937 C 0.81237 0.36005 0.94587 0.0
C2938 C 0.80689 0.4284 0.91339 0.0
C2939 C 0.83338 0.44224 0.91532 0.0
C2940 C 0.79194 0.42978 0.89256 0.0
C2941 C 0.76331 0.41709 0.88922 0.0
C2942 C 0.75962 0.38728 0.88846 0.0
C2943 C 0.73273 0.37569 0.88359 0.0
C2944 C 0.70959 0.39376 0.87912 0.0
C2945 C 0.7131 0.42338 0.87994 0.0
C2946 C 0.73988 0.43506 0.8849 0.0
C2947 C 0.89302 0.43352 0.83438 0.0
C2948 C 0.89378 0.45853 0.82132 0.0
C2949 C 0.87182 0.42988 0.85062 0.0
C2950 C 0.85116 0.45118 0.85397 0.0
C2951 C 0.84966 0.47442 0.8391 0.0
C2952 C 0.87097 0.4781 0.82275 0.0
C2953 C 0.83404 0.45035 0.87483 0.0
C2954 C 0.80567 0.44115 0.87351 0.0
C2955 C 0.84759 0.45261 0.89615 0.0
C2956 C 0.87765 0.46274 0.89838 0.0
C2957 C 0.88654 0.48836 0.88807 0.0
C2958 C 0.91483 0.49761 0.89018 0.0
C2959 C 0.93428 0.48182 0.90296 0.0
C2960 C 0.92581 0.4563 0.91316 0.0
C2961 C 0.89768 0.44668 0.91083 0.0
H2962 H 0.95572 0.48971 0.90535 0.0
H2963 H 0.68893 0.38491 0.8749 0.0
H2964 H 0.91085 0.4609 0.15159 0.0
H2965 H 0.8677 0.48955 0.14566 0.0
H2966 H 0.9186 0.56658 0.14928 0.0
H2967 H 0.96108 0.53814 0.15683 0.0
H2968 H 0.86735 0.57907 0.1599 0.0
H2969 H 0.91171 0.52579 0.09789 0.0
H2970 H 0.92835 0.48052 0.08085 0.0
H2971 H 0.84316 0.44651 0.08465 0.0
H2972 H 0.82606 0.49155 0.10173 0.0
H2973 H 0.82919 0.67114 0.07201 0.0
H2974 H 0.85504 0.63463 0.09323 0.0
H2975 H 0.78181 0.57869 0.0892 0.0
H2976 H 0.75585 0.61497 0.06768 0.0
H2977 H 0.83326 0.55089 0.08357 0.0
H2978 H 0.79327 0.62218 0.13443 0.0
H2979 H 0.78654 0.6702 0.15108 0.0
H2980 H 0.8763 0.67553 0.16543 0.0
H2981 H 0.88382 0.6282 0.14826 0.0
C2982 C 0.91241 0.48402 0.15207 0.0
C2983 C 0.93908 0.49754 0.15407 0.0
C2984 C 0.88788 0.50032 0.14862 0.0
C2985 C 0.89022 0.53005 0.14606 0.0
C2986 C 0.91633 0.54362 0.15093 0.0
C2987 C 0.94065 0.52739 0.15516 0.0
C2988 C 0.8678 0.54649 0.13428 0.0
C2989 C 0.85975 0.57298 0.14324 0.0
C2990 C 0.85784 0.53828 0.11259 0.0
C2991 C 0.86769 0.51183 0.10124 0.0
C2992 C 0.89654 0.50865 0.09499 0.0
C2993 C 0.90605 0.48305 0.08536 0.0
C2994 C 0.88683 0.46063 0.08177 0.0
C2995 C 0.858 0.46388 0.08747 0.0
C2996 C 0.84838 0.48944 0.09709 0.0
C2997 C 0.81884 0.65079 0.07516 0.0
C2998 C 0.79042 0.64598 0.06846 0.0
C2999 C 0.8335 0.63014 0.08749 0.0
C3000 C 0.81984 0.60454 0.09342 0.0
C3001 C 0.79242 0.59861 0.08506 0.0
C3002 C 0.77776 0.61923 0.0726 0.0
C3003 C 0.83407 0.58424 0.10872 0.0
C3004 C 0.84025 0.55687 0.10043 0.0
C3005 C 0.84374 0.59245 0.1305 0.0
C3006 C 0.83907 0.62151 0.14003 0.0
C3007 C 0.81161 0.63372 0.1409 0.0
C3008 C 0.80768 0.66084 0.15043 0.0
C3009 C 0.83097 0.67576 0.15939 0.0
C3010 C 0.85829 0.66389 0.15854 0.0
C3011 C 0.86239 0.63697 0.14887 0.0
H3012 H 0.82796 0.69645 0.16715 0.0
H3013 H 0.89428 0.44072 0.07465 0.0
H3014 H 0.58461 0.57303 0.33343 0.0
H3015 H 0.62234 0.59726 0.35451 0.0
H3016 H 0.67825 0.52499 0.34432 0.0
H3017 H 0.64068 0.50068 0.32288 0.0
H3018 H 0.64594 0.5777 0.3943 0.0
H3019 H 0.74503 0.54853 0.34524 0.0
H3020 H 0.76048 0.53602 0.30651 0.0
H3021 H 0.69527 0.59043 0.27893 0.0
H3022 H 0.67946 0.60317 0.3175 0.0
H3023 H 0.79575 0.65794 0.40419 0.0
H3024 H 0.7685 0.61383 0.3995 0.0
H3025 H 0.68997 0.66189 0.4058 0.0
H3026 H 0.71738 0.70563 0.41153 0.0
H3027 H 0.73991 0.60785 0.36363 0.0
H3028 H 0.6331 0.62276 0.41486 0.0
H3029 H 0.61842 0.63562 0.45358 0.0
H3030 H 0.70063 0.61014 0.47881 0.0
H3031 H 0.71571 0.59667 0.44031 0.0
C3032 C 0.60513 0.56253 0.33528 0.0
C3033 C 0.6097 0.53495 0.32661 0.0
C3034 C 0.62654 0.57627 0.34748 0.0
C3035 C 0.65283 0.5627 0.35119 0.0
C3036 C 0.65805 0.53577 0.34159 0.0
C3037 C 0.63664 0.52203 0.32923 0.0
C3038 C 0.67432 0.57678 0.36561 0.0
C3039 C 0.66655 0.58442 0.38773 0.0
C3040 C 0.70166 0.58399 0.35735 0.0
C3041 C 0.71097 0.57657 0.33416 0.0
C3042 C 0.73405 0.55781 0.33088 0.0
C3043 C 0.74283 0.55066 0.30898 0.0
C3044 C 0.72882 0.56238 0.29028 0.0
C3045 C 0.70602 0.58128 0.29343 0.0
C3046 C 0.69709 0.58841 0.31529 0.0
C3047 C 0.77271 0.65875 0.40545 0.0
C3048 C 0.75852 0.68498 0.40785 0.0
C3049 C 0.75716 0.6336 0.40281 0.0
C3050 C 0.72719 0.6345 0.40215 0.0
C3051 C 0.71306 0.66045 0.40666 0.0
C3052 C 0.7287 0.68554 0.40977 0.0
C3053 C 0.71104 0.61043 0.39216 0.0
C3054 C 0.7198 0.60058 0.37077 0.0
C3055 C 0.68469 0.60106 0.40127 0.0
C3056 C 0.67559 0.60877 0.42459 0.0
C3057 C 0.648 0.61966 0.42866 0.0
C3058 C 0.63962 0.62712 0.45059 0.0
C3059 C 0.65859 0.62374 0.46864 0.0
C3060 C 0.68597 0.61282 0.46481 0.0
C3061 C 0.69447 0.60531 0.44292 0.0
H3062 H 0.65206 0.62956 0.4856 0.0
H3063 H 0.73567 0.55684 0.27334 0.0
H3064 H 0.33674 0.71673 0.43069 0.0
H3065 H 0.36859 0.68209 0.41273 0.0
H3066 H 0.29872 0.62209 0.40749 0.0
H3067 H 0.2671 0.65629 0.42649 0.0
H3068 H 0.34575 0.59368 0.41406 0.0
H3069 H 0.31816 0.66751 0.36294 0.0
H3070 H 0.31142 0.71702 0.34974 0.0
H3071 H 0.40203 0.7313 0.35277 0.0
H3072 H 0.40932 0.68195 0.36636 0.0
H3073 H 0.40691 0.51299 0.32486 0.0
H3074 H 0.37538 0.54522 0.34561 0.0
H3075 H 0.44612 0.60246 0.35761 0.0
H3076 H 0.47786 0.57048 0.33652 0.0
H3077 H 0.39765 0.63139 0.34716 0.0
H3078 H 0.4231 0.55475 0.39896 0.0
H3079 H 0.42694 0.50418 0.41042 0.0
H3080 H 0.3362 0.49391 0.40263 0.0
H3081 H 0.33183 0.54441 0.39113 0.0
C3082 C 0.32838 0.69587 0.42623 0.0
C3083 C 0.29943 0.68926 0.42989 0.0
C3084 C 0.34651 0.67616 0.41575 0.0
C3085 C 0.33587 0.64979 0.40803 0.0
C3086 C 0.30742 0.64237 0.41308 0.0
C3087 C 0.28937 0.66189 0.42404 0.0
C3088 C 0.35391 0.63088 0.39357 0.0
C3089 C 0.35684 0.6019 0.39931 0.0
C3090 C 0.36851 0.64149 0.37426 0.0
C3091 C 0.36426 0.6711 0.36587 0.0
C3092 C 0.33664 0.68125 0.36093 0.0
C3093 C 0.33272 0.70929 0.35336 0.0
C3094 C 0.35626 0.72732 0.35046 0.0
C3095 C 0.3838 0.71732 0.35506 0.0
C3096 C 0.38785 0.68931 0.36268 0.0
C3097 C 0.41578 0.53259 0.33165 0.0
C3098 C 0.44503 0.53904 0.3291 0.0
C3099 C 0.39771 0.55091 0.34369 0.0
C3100 C 0.40849 0.57594 0.35363 0.0
C3101 C 0.43736 0.58314 0.35023 0.0
C3102 C 0.45548 0.56486 0.3381 0.0
C3103 C 0.38981 0.59439 0.36787 0.0
C3104 C 0.38664 0.62326 0.36198 0.0
C3105 C 0.37457 0.58353 0.38674 0.0
C3106 C 0.37718 0.55329 0.39402 0.0
C3107 C 0.40399 0.54167 0.39962 0.0
C3108 C 0.40625 0.51302 0.40615 0.0
C3109 C 0.38184 0.49581 0.40721 0.0
C3110 C 0.35509 0.50725 0.40184 0.0
C3111 C 0.35269 0.5359 0.39537 0.0
H3112 H 0.38365 0.47362 0.41223 0.0
H3113 H 0.35315 0.74902 0.3446 0.0
H3114 H 0.11617 0.50765 0.17026 0.0
H3115 H 0.14633 0.54528 0.15458 0.0
H3116 H 0.07486 0.60353 0.15563 0.0
H3117 H 0.04453 0.56576 0.17191 0.0
H3118 H 0.09961 0.6019 0.11425 0.0
H3119 H 0.1339 0.61356 0.19022 0.0
H3120 H 0.15307 0.5973 0.22687 0.0
H3121 H 0.22748 0.56369 0.19361 0.0
H3122 H 0.20859 0.57942 0.15671 0.0
H3123 H 0.1836 0.72217 0.07974 0.0
H3124 H 0.15246 0.68848 0.09958 0.0
H3125 H 0.21935 0.62507 0.09815 0.0
H3126 H 0.25067 0.65862 0.07821 0.0
H3127 H 0.1961 0.63101 0.14049 0.0
H3128 H 0.16262 0.61668 0.06522 0.0
H3129 H 0.14421 0.63035 0.02769 0.0
H3130 H 0.06919 0.66623 0.05851 0.0
H3131 H 0.08736 0.65315 0.09629 0.0
C3132 C 0.10707 0.52873 0.16774 0.0
C3133 C 0.07807 0.53387 0.17243 0.0
C3134 C 0.12432 0.55021 0.15864 0.0
C3135 C 0.11291 0.57725 0.1537 0.0
C3136 C 0.08416 0.58283 0.15925 0.0
C3137 C 0.06693 0.56137 0.16878 0.0
C3138 C 0.1305 0.59863 0.14116 0.0
C3139 C 0.12043 0.60877 0.12025 0.0
C3140 C 0.15818 0.60676 0.14849 0.0
C3141 C 0.16975 0.59755 0.17069 0.0
C3142 C 0.15428 0.60256 0.19071 0.0
C3143 C 0.16511 0.59346 0.21153 0.0
C3144 C 0.19146 0.57945 0.21257 0.0
C3145 C 0.20708 0.57456 0.19278 0.0
C3146 C 0.19634 0.58361 0.17191 0.0
C3147 C 0.1916 0.70093 0.08335 0.0
C3148 C 0.21967 0.69313 0.07732 0.0
C3149 C 0.17373 0.68167 0.0947 0.0
C3150 C 0.18353 0.65421 0.10037 0.0
C3151 C 0.21133 0.64615 0.094 0.0
C3152 C 0.22915 0.66532 0.08245 0.0
C3153 C 0.16513 0.63435 0.11367 0.0
C3154 C 0.17512 0.6244 0.13464 0.0
C3155 C 0.1375 0.6262 0.1063 0.0
C3156 C 0.12653 0.63425 0.08363 0.0
C3157 C 0.14234 0.62776 0.06403 0.0
C3158 C 0.13191 0.63534 0.0427 0.0
C3159 C 0.10559 0.64924 0.04072 0.0
C3160 C 0.08961 0.65552 0.06007 0.0
C3161 C 0.09995 0.64801 0.08145 0.0
H3162 H 0.09755 0.65507 0.02419 0.0
H3163 H 0.19979 0.5724 0.2287 0.0
H3164 H 0.21333 0.34014 0.93625 0.0
H3165 H 0.18108 0.37239 0.91612 0.0
H3166 H 0.14823 0.30133 0.87749 0.0
H3167 H 0.18066 0.26899 0.89729 0.0
H3168 H 0.16193 0.34434 0.85033 0.0
H3169 H 0.10887 0.33464 0.91927 0.0
H3170 H 0.10029 0.33599 0.96039 0.0
H3171 H 0.11962 0.42576 0.96153 0.0
H3172 H 0.12887 0.42485 0.92047 0.0
H3173 H 0.03951 0.42107 0.80475 0.0
H3174 H 0.07085 0.38661 0.82402 0.0
H3175 H 0.11659 0.45612 0.85544 0.0
H3176 H 0.08619 0.49049 0.83596 0.0
H3177 H 0.09528 0.4134 0.88604 0.0
H3178 H 0.14956 0.42332 0.81815 0.0
H3179 H 0.15919 0.42285 0.77718 0.0
H3180 H 0.13848 0.33345 0.77435 0.0
H3181 H 0.12806 0.33353 0.81525 0.0
C3182 C 0.19891 0.33125 0.92375 0.0
C3183 C 0.19962 0.30191 0.91843 0.0
C3184 C 0.18042 0.34975 0.91225 0.0
C3185 C 0.16209 0.33931 0.89532 0.0
C3186 C 0.16218 0.30992 0.89045 0.0
C3187 C 0.18065 0.29141 0.90191 0.0
C3188 C 0.14401 0.35918 0.88181 0.0
C3189 C 0.14695 0.35906 0.85814 0.0
C3190 C 0.12512 0.37906 0.89201 0.0
C3191 C 0.11991 0.37958 0.91679 0.0
C3192 C 0.11162 0.3546 0.92831 0.0
C3193 C 0.10658 0.3553 0.95162 0.0
C3194 C 0.10951 0.38092 0.96358 0.0
C3195 C 0.11744 0.40591 0.95225 0.0
C3196 C 0.12259 0.40531 0.92896 0.0
C3197 C 0.05661 0.42898 0.81541 0.0
C3198 C 0.06031 0.45853 0.81877 0.0
C3199 C 0.07444 0.4093 0.82643 0.0
C3200 C 0.09592 0.41886 0.84124 0.0
C3201 C 0.1001 0.44831 0.84414 0.0
C3202 C 0.08274 0.46792 0.83284 0.0
C3203 C 0.11314 0.39833 0.85467 0.0
C3204 C 0.11008 0.39844 0.87829 0.0
C3205 C 0.13197 0.37852 0.84445 0.0
C3206 C 0.13752 0.37856 0.81973 0.0
C3207 C 0.14657 0.40367 0.80875 0.0
C3208 C 0.15228 0.40345 0.78554 0.0
C3209 C 0.1493 0.37818 0.77314 0.0
C3210 C 0.14064 0.35305 0.78395 0.0
C3211 C 0.1348 0.35318 0.80714 0.0
H3212 H 0.15382 0.37803 0.75519 0.0
H3213 H 0.10555 0.38142 0.98161 0.0
H3214 H 0.32811 0.28758 0.55875 0.0
H3215 H 0.36335 0.31636 0.57954 0.0
H3216 H 0.29588 0.34996 0.62182 0.0
H3217 H 0.26084 0.32293 0.60035 0.0
H3218 H 0.32823 0.39049 0.61302 0.0
H3219 H 0.34579 0.29551 0.63899 0.0
H3220 H 0.35635 0.24404 0.6355 0.0
H3221 H 0.43676 0.26349 0.60391 0.0
H3222 H 0.42652 0.31511 0.60698 0.0
H3223 H 0.4212 0.45406 0.69394 0.0
H3224 H 0.38568 0.4221 0.67697 0.0
H3225 H 0.4493 0.39124 0.63003 0.0
H3226 H 0.48501 0.4221 0.64744 0.0
H3227 H 0.4179 0.34862 0.643 0.0
H3228 H 0.39586 0.44615 0.6174 0.0
H3229 H 0.38127 0.49655 0.62197 0.0
H3230 H 0.30519 0.47001 0.65688 0.0
H3231 H 0.31938 0.41951 0.6526 0.0
C3232 C 0.32092 0.30136 0.57234 0.0
C3233 C 0.29175 0.30321 0.57774 0.0
C3234 C 0.34105 0.31757 0.58439 0.0
C3235 C 0.33242 0.33509 0.60256 0.0
C3236 C 0.30321 0.33683 0.60785 0.0
C3237 C 0.28313 0.32133 0.59548 0.0
C3238 C 0.35345 0.35211 0.61591 0.0
C3239 C 0.34765 0.38114 0.61983 0.0
C3240 C 0.37893 0.34016 0.62475 0.0
C3241 C 0.38528 0.30916 0.62306 0.0
C3242 C 0.36566 0.2888 0.6312 0.0
C3243 C 0.3716 0.25961 0.62931 0.0
C3244 C 0.39719 0.2505 0.61945 0.0
C3245 C 0.41694 0.27058 0.61153 0.0
C3246 C 0.41109 0.29981 0.61336 0.0
C3247 C 0.4277 0.44014 0.68022 0.0
C3248 C 0.45596 0.44067 0.67207 0.0
C3249 C 0.40729 0.42207 0.67037 0.0
C3250 C 0.41459 0.40467 0.65184 0.0
C3251 C 0.44305 0.40446 0.64425 0.0
C3252 C 0.46352 0.42215 0.65429 0.0
C3253 C 0.39275 0.38702 0.6399 0.0
C3254 C 0.3984 0.35785 0.63626 0.0
C3255 C 0.36674 0.39867 0.63178 0.0
C3256 C 0.35885 0.42911 0.63491 0.0
C3257 C 0.37618 0.4511 0.62625 0.0
C3258 C 0.36794 0.47968 0.62875 0.0
C3259 C 0.34239 0.48647 0.63982 0.0
C3260 C 0.32501 0.46472 0.64839 0.0
C3261 C 0.33312 0.43615 0.64591 0.0
H3262 H 0.33592 0.50853 0.64168 0.0
H3263 H 0.40174 0.22788 0.61798 0.0
loop_
_geom_bond_atom_site_label_1
_geom_bond_atom_site_label_2
_geom_bond_distance
_geom_bond_site_symmetry_2
_ccdc_geom_bond_type
O0 Tb1 2.292 . S
O0 C3 1.255 . S
Tb1 O0 2.292 . S
Tb1 O17 2.326 . S
Tb1 O19 2.500 . S
Tb1 O20 2.473 . S
Tb1 O23 2.324 1_455 S
Eu2 O6 2.292 . S
Eu2 C7 2.852 . S
Eu2 O18 2.324 1_655 S
Eu2 O22 2.326 . S
Eu2 O24 2.500 . S
Eu2 O25 2.473 1_655 S
C3 O0 1.255 . S
C3 O4 1.247 . S
O4 C3 1.247 . S
C5 O17 1.242 . S
C5 O18 1.258 . S
O6 Eu2 2.292 . S
O6 C8 1.255 . S
C7 Eu2 2.852 . S
C7 C11 1.503 . S
C7 O24 1.273 . S
C7 O25 1.257 1_655 S
C8 O6 1.255 . S
C8 O9 1.247 . S
O9 C8 1.247 . S
C10 O22 1.242 . S
C10 O23 1.258 . S
C11 C7 1.503 . S
C11 C12 1.379 1_655 S
C11 C16 1.392 . S
C12 C11 1.379 1_455 S
C12 C13 1.404 . S
C12 H26 0.929 . S
C13 C12 1.404 . S
C13 C14 1.389 1_455 S
C14 C13 1.389 1_655 S
C14 C15 1.399 . S
C14 H27 0.931 . S
C15 C14 1.399 . S
C15 C16 1.390 . S
C16 C11 1.392 . S
C16 C15 1.390 . S
C16 H28 0.929 . S
O17 Tb1 2.326 . S
O17 C5 1.242 . S
O18 Eu2 2.324 1_455 S
O18 C5 1.258 . S
O19 Tb1 2.500 . S
O19 C21 1.273 . S
O20 Tb1 2.473 . S
O20 C21 1.257 . S
C21 O19 1.273 . S
C21 O20 1.257 . S
O22 Eu2 2.326 . S
O22 C10 1.242 . S
O23 Tb1 2.324 1_655 S
O23 C10 1.258 . S
O24 Eu2 2.500 . S
O24 C7 1.273 . S
O25 Eu2 2.473 1_455 S
O25 C7 1.257 1_455 S
H26 C12 0.929 . S
H27 C14 0.931 . S
H28 C16 0.929 . S
O29 Tb30 2.292 . S
O29 C32 1.255 . S
Tb30 O29 2.292 . S
Tb30 O46 2.326 . S
Tb30 O48 2.500 . S
Tb30 O49 2.473 . S
Tb30 O52 2.324 . S
Eu31 O35 2.292 . S
Eu31 C36 2.852 . S
Eu31 O47 2.324 . S
Eu31 O51 2.326 . S
Eu31 O53 2.500 . S
Eu31 O54 2.473 . S
C32 O29 1.255 . S
C32 O33 1.247 . S
O33 C32 1.247 . S
C34 O46 1.242 . S
C34 O47 1.258 . S
O35 Eu31 2.292 . S
O35 C37 1.255 . S
C36 Eu31 2.852 . S
C36 C40 1.503 . S
C36 O53 1.273 . S
C36 O54 1.257 . S
C37 O35 1.255 . S
C37 O38 1.247 . S
O38 C37 1.247 . S
C39 O51 1.242 . S
C39 O52 1.258 . S
C40 C36 1.503 . S
C40 C41 1.379 . S
C40 C45 1.392 . S
C41 C40 1.379 . S
C41 C42 1.404 . S
C41 H55 0.929 . S
C42 C41 1.404 . S
C42 C43 1.389 . S
C43 C42 1.389 . S
C43 C44 1.399 . S
C43 H56 0.931 . S
C44 C43 1.399 . S
C44 C45 1.390 . S
C45 C40 1.392 . S
C45 C44 1.390 . S
C45 H57 0.929 . S
O46 Tb30 2.326 . S
O46 C34 1.242 . S
O47 Eu31 2.324 . S
O47 C34 1.258 . S
O48 Tb30 2.500 . S
O48 C50 1.273 . S
O49 Tb30 2.473 . S
O49 C50 1.257 . S
C50 O48 1.273 . S
C50 O49 1.257 . S
O51 Eu31 2.326 . S
O51 C39 1.242 . S
O52 Tb30 2.324 . S
O52 C39 1.258 . S
O53 Eu31 2.500 . S
O53 C36 1.273 . S
O54 Eu31 2.473 . S
O54 C36 1.257 . S
H55 C41 0.929 . S
H56 C43 0.931 . S
H57 C45 0.929 . S
O58 Tb59 2.292 . S
O58 C61 1.255 . S
Tb59 O58 2.292 . S
Tb59 O75 2.326 . S
Tb59 O77 2.500 . S
Tb59 O78 2.473 . S
Tb59 O81 2.324 . S
Eu60 O64 2.292 . S
Eu60 C65 2.852 . S
Eu60 O76 2.324 . S
Eu60 O80 2.326 . S
Eu60 O82 2.500 . S
Eu60 O83 2.473 . S
C61 O58 1.255 . S
C61 O62 1.247 . S
O62 C61 1.247 . S
C63 O75 1.242 . S
C63 O76 1.258 . S
O64 Eu60 2.292 . S
O64 C66 1.255 . S
C65 Eu60 2.852 . S
C65 C69 1.503 . S
C65 O82 1.273 . S
C65 O83 1.257 . S
C66 O64 1.255 . S
C66 O67 1.247 . S
O67 C66 1.247 . S
C68 O80 1.242 . S
C68 O81 1.258 . S
C69 C65 1.503 . S
C69 C70 1.379 . S
C69 C74 1.392 . S
C70 C69 1.379 . S
C70 C71 1.404 . S
C70 H84 0.929 . S
C71 C70 1.404 . S
C71 C72 1.389 . S
C72 C71 1.389 . S
C72 C73 1.399 . S
C72 H85 0.931 . S
C73 C72 1.399 . S
C73 C74 1.390 . S
C74 C69 1.392 . S
C74 C73 1.390 . S
C74 H86 0.929 . S
O75 Tb59 2.326 . S
O75 C63 1.242 . S
O76 Eu60 2.324 . S
O76 C63 1.258 . S
O77 Tb59 2.500 . S
O77 C79 1.273 . S
O78 Tb59 2.473 . S
O78 C79 1.257 . S
C79 O77 1.273 . S
C79 O78 1.257 . S
O80 Eu60 2.326 . S
O80 C68 1.242 . S
O81 Tb59 2.324 . S
O81 C68 1.258 . S
O82 Eu60 2.500 . S
O82 C65 1.273 . S
O83 Eu60 2.473 . S
O83 C65 1.257 . S
H84 C70 0.929 . S
H85 C72 0.931 . S
H86 C74 0.929 . S
O87 Tb88 2.292 . S
O87 C90 1.255 . S
Tb88 O87 2.292 . S
Tb88 O104 2.326 . S
Tb88 O106 2.500 . S
Tb88 O107 2.473 . S
Tb88 O110 2.324 . S
Eu89 O93 2.292 . S
Eu89 C94 2.852 . S
Eu89 O105 2.324 . S
Eu89 O109 2.326 . S
Eu89 O111 2.500 . S
Eu89 O112 2.473 . S
C90 O87 1.255 . S
C90 O91 1.247 . S
O91 C90 1.247 . S
C92 O104 1.242 . S
C92 O105 1.258 . S
O93 Eu89 2.292 . S
O93 C95 1.255 . S
C94 Eu89 2.852 . S
C94 C98 1.503 1_556 S
C94 O111 1.273 . S
C94 O112 1.257 . S
C95 O93 1.255 . S
C95 O96 1.247 . S
O96 C95 1.247 . S
C97 O109 1.242 . S
C97 O110 1.258 . S
C98 C94 1.503 1_554 S
C98 C99 1.379 . S
C98 C103 1.392 . S
C99 C98 1.379 . S
C99 C100 1.404 . S
C99 H113 0.939 . S
C100 C99 1.404 . S
C100 C101 1.389 . S
C101 C100 1.389 . S
C101 C102 1.399 . S
C101 H114 0.931 . S
C102 C101 1.399 . S
C102 C103 1.390 . S
C103 C98 1.392 . S
C103 C102 1.390 . S
C103 H115 0.929 . S
O104 Tb88 2.326 . S
O104 C92 1.242 . S
O105 Eu89 2.324 . S
O105 C92 1.258 . S
O106 Tb88 2.500 . S
O106 C108 1.273 . S
O107 Tb88 2.473 . S
O107 C108 1.257 . S
C108 O106 1.273 . S
C108 O107 1.257 . S
O109 Eu89 2.326 . S
O109 C97 1.242 . S
O110 Tb88 2.324 . S
O110 C97 1.258 . S
O111 Eu89 2.500 . S
O111 C94 1.273 . S
O112 Eu89 2.473 . S
O112 C94 1.257 . S
H113 C99 0.939 . S
H114 C101 0.931 . S
H115 C103 0.929 . S
O116 Tb117 2.292 . S
O116 C119 1.255 . S
Tb117 O116 2.292 . S
Tb117 O133 2.326 . S
Tb117 O135 2.500 . S
Tb117 O136 2.473 . S
Tb117 O139 2.324 1_455 S
Eu118 O122 2.292 . S
Eu118 C123 2.852 . S
Eu118 O134 2.324 1_655 S
Eu118 O138 2.326 . S
Eu118 O140 2.500 . S
Eu118 O141 2.473 1_655 S
C119 O116 1.255 . S
C119 O120 1.247 . S
O120 C119 1.247 . S
C121 O133 1.242 . S
C121 O134 1.258 . S
O122 Eu118 2.292 . S
O122 C124 1.255 . S
C123 Eu118 2.852 . S
C123 C127 1.503 . S
C123 O140 1.273 . S
C123 O141 1.257 1_655 S
C124 O122 1.255 . S
C124 O125 1.247 . S
O125 C124 1.247 . S
C126 O138 1.242 . S
C126 O139 1.258 . S
C127 C123 1.503 . S
C127 C128 1.379 1_655 S
C127 C132 1.392 . S
C128 C127 1.379 1_455 S
C128 C129 1.404 . S
C128 H142 0.929 . S
C129 C128 1.404 . S
C129 C130 1.389 1_455 S
C130 C129 1.389 1_655 S
C130 C131 1.399 . S
C130 H143 0.931 . S
C131 C130 1.399 . S
C131 C132 1.390 . S
C132 C127 1.392 . S
C132 C131 1.390 . S
C132 H144 0.929 . S
O133 Tb117 2.326 . S
O133 C121 1.242 . S
O134 Eu118 2.324 1_455 S
O134 C121 1.258 . S
O135 Tb117 2.500 . S
O135 C137 1.273 . S
O136 Tb117 2.473 . S
O136 C137 1.257 . S
C137 O135 1.273 . S
C137 O136 1.257 . S
O138 Eu118 2.326 . S
O138 C126 1.242 . S
O139 Tb117 2.324 1_655 S
O139 C126 1.258 . S
O140 Eu118 2.500 . S
O140 C123 1.273 . S
O141 Eu118 2.473 1_455 S
O141 C123 1.257 1_455 S
H142 C128 0.929 . S
H143 C130 0.931 . S
H144 C132 0.929 . S
O145 Tb146 2.292 . S
O145 C148 1.255 . S
Tb146 O145 2.292 . S
Tb146 O162 2.326 . S
Tb146 O164 2.500 . S
Tb146 O165 2.473 . S
Tb146 O168 2.324 . S
Eu147 O151 2.292 . S
Eu147 C152 2.852 . S
Eu147 O163 2.324 . S
Eu147 O167 2.326 . S
Eu147 O169 2.500 . S
Eu147 O170 2.473 . S
C148 O145 1.255 . S
C148 O149 1.247 . S
O149 C148 1.247 . S
C150 O162 1.242 . S
C150 O163 1.258 . S
O151 Eu147 2.292 . S
O151 C153 1.255 . S
C152 Eu147 2.852 . S
C152 C156 1.503 1_554 S
C152 O169 1.273 . S
C152 O170 1.257 . S
C153 O151 1.255 . S
C153 O154 1.247 . S
O154 C153 1.247 . S
C155 O167 1.242 . S
C155 O168 1.258 . S
C156 C152 1.503 1_556 S
C156 C157 1.379 . S
C156 C161 1.392 . S
C157 C156 1.379 . S
C157 C158 1.404 . S
C157 H171 0.939 . S
C158 C157 1.404 . S
C158 C159 1.389 . S
C159 C158 1.389 . S
C159 C160 1.399 . S
C159 H172 0.931 . S
C160 C159 1.399 . S
C160 C161 1.390 . S
C161 C156 1.392 . S
C161 C160 1.390 . S
C161 H173 0.929 . S
O162 Tb146 2.326 . S
O162 C150 1.242 . S
O163 Eu147 2.324 . S
O163 C150 1.258 . S
O164 Tb146 2.500 . S
O164 C166 1.273 . S
O165 Tb146 2.473 . S
O165 C166 1.257 . S
C166 O164 1.273 . S
C166 O165 1.257 . S
O167 Eu147 2.326 . S
O167 C155 1.242 . S
O168 Tb146 2.324 . S
O168 C155 1.258 . S
O169 Eu147 2.500 . S
O169 C152 1.273 . S
O170 Eu147 2.473 . S
O170 C152 1.257 . S
H171 C157 0.939 . S
H172 C159 0.931 . S
H173 C161 0.929 . S
O174 Tb175 2.292 . S
O174 C177 1.255 . S
Tb175 O174 2.292 . S
Tb175 O191 2.326 . S
Tb175 O193 2.500 . S
Tb175 O194 2.473 . S
Tb175 O197 2.324 . S
Eu176 O180 2.292 . S
Eu176 C181 2.852 . S
Eu176 O192 2.324 . S
Eu176 O196 2.326 . S
Eu176 O198 2.500 . S
Eu176 O199 2.473 . S
C177 O174 1.255 . S
C177 O178 1.247 . S
O178 C177 1.247 . S
C179 O191 1.242 . S
C179 O192 1.258 . S
O180 Eu176 2.292 . S
O180 C182 1.255 . S
C181 Eu176 2.852 . S
C181 C185 1.503 . S
C181 O198 1.273 . S
C181 O199 1.257 . S
C182 O180 1.255 . S
C182 O183 1.247 . S
O183 C182 1.247 . S
C184 O196 1.242 . S
C184 O197 1.258 . S
C185 C181 1.503 . S
C185 C186 1.379 . S
C185 C190 1.392 . S
C186 C185 1.379 . S
C186 C187 1.404 . S
C186 H200 0.929 . S
C187 C186 1.404 . S
C187 C188 1.389 . S
C188 C187 1.389 . S
C188 C189 1.399 . S
C188 H201 0.931 . S
C189 C188 1.399 . S
C189 C190 1.390 . S
C190 C185 1.392 . S
C190 C189 1.390 . S
C190 H202 0.929 . S
O191 Tb175 2.326 . S
O191 C179 1.242 . S
O192 Eu176 2.324 . S
O192 C179 1.258 . S
O193 Tb175 2.500 . S
O193 C195 1.273 . S
O194 Tb175 2.473 . S
O194 C195 1.257 . S
C195 O193 1.273 . S
C195 O194 1.257 . S
O196 Eu176 2.326 . S
O196 C184 1.242 . S
O197 Tb175 2.324 . S
O197 C184 1.258 . S
O198 Eu176 2.500 . S
O198 C181 1.273 . S
O199 Eu176 2.473 . S
O199 C181 1.257 . S
H200 C186 0.929 . S
H201 C188 0.931 . S
H202 C190 0.929 . S
O203 Tb204 2.292 . S
O203 C206 1.255 . S
Tb204 O203 2.292 . S
Tb204 O220 2.326 . S
Tb204 O222 2.500 . S
Tb204 O223 2.473 . S
Tb204 O226 2.324 . S
Eu205 O209 2.292 . S
Eu205 C210 2.852 . S
Eu205 O221 2.324 . S
Eu205 O225 2.326 . S
Eu205 O227 2.500 . S
Eu205 O228 2.473 . S
C206 O203 1.255 . S
C206 O207 1.247 . S
O207 C206 1.247 . S
C208 O220 1.242 . S
C208 O221 1.258 . S
O209 Eu205 2.292 . S
O209 C211 1.255 . S
C210 Eu205 2.852 . S
C210 C214 1.503 . S
C210 O227 1.273 . S
C210 O228 1.257 . S
C211 O209 1.255 . S
C211 O212 1.247 . S
O212 C211 1.247 . S
C213 O225 1.242 . S
C213 O226 1.258 . S
C214 C210 1.503 . S
C214 C215 1.379 . S
C214 C219 1.392 . S
C215 C214 1.379 . S
C215 C216 1.404 . S
C215 H229 0.929 . S
C216 C215 1.404 . S
C216 C217 1.389 . S
C217 C216 1.389 . S
C217 C218 1.399 . S
C217 H230 0.931 . S
C218 C217 1.399 . S
C218 C219 1.390 . S
C219 C214 1.392 . S
C219 C218 1.390 . S
C219 H231 0.929 . S
O220 Tb204 2.326 . S
O220 C208 1.242 . S
O221 Eu205 2.324 . S
O221 C208 1.258 . S
O222 Tb204 2.500 . S
O222 C224 1.273 . S
O223 Tb204 2.473 . S
O223 C224 1.257 . S
C224 O222 1.273 . S
C224 O223 1.257 . S
O225 Eu205 2.326 . S
O225 C213 1.242 . S
O226 Tb204 2.324 . S
O226 C213 1.258 . S
O227 Eu205 2.500 . S
O227 C210 1.273 . S
O228 Eu205 2.473 . S
O228 C210 1.257 . S
H229 C215 0.929 . S
H230 C217 0.931 . S
H231 C219 0.929 . S
O232 Tb233 2.292 . S
O232 C235 1.255 . S
Tb233 O232 2.292 . S
Tb233 O249 2.326 . S
Tb233 O251 2.500 . S
Tb233 O252 2.473 . S
Tb233 O255 2.324 . S
Eu234 O238 2.292 . S
Eu234 C239 2.852 . S
Eu234 O250 2.324 . S
Eu234 O254 2.326 . S
Eu234 O256 2.500 . S
Eu234 O257 2.473 . S
C235 O232 1.255 . S
C235 O236 1.247 . S
O236 C235 1.247 . S
C237 O249 1.242 . S
C237 O250 1.258 . S
O238 Eu234 2.292 . S
O238 C240 1.255 . S
C239 Eu234 2.852 . S
C239 C243 1.503 . S
C239 O256 1.273 . S
C239 O257 1.257 . S
C240 O238 1.255 . S
C240 O241 1.247 . S
O241 C240 1.247 . S
C242 O254 1.242 . S
C242 O255 1.258 . S
C243 C239 1.503 . S
C243 C244 1.379 . S
C243 C248 1.392 . S
C244 C243 1.379 . S
C244 C245 1.404 . S
C244 H258 0.929 . S
C245 C244 1.404 . S
C245 C246 1.389 . S
C246 C245 1.389 . S
C246 C247 1.399 . S
C246 H259 0.931 . S
C247 C246 1.399 . S
C247 C248 1.390 . S
C248 C243 1.392 . S
C248 C247 1.390 . S
C248 H260 0.929 . S
O249 Tb233 2.326 . S
O249 C237 1.242 . S
O250 Eu234 2.324 . S
O250 C237 1.258 . S
O251 Tb233 2.500 . S
O251 C253 1.273 . S
O252 Tb233 2.473 . S
O252 C253 1.257 . S
C253 O251 1.273 . S
C253 O252 1.257 . S
O254 Eu234 2.326 . S
O254 C242 1.242 . S
O255 Tb233 2.324 . S
O255 C242 1.258 . S
O256 Eu234 2.500 . S
O256 C239 1.273 . S
O257 Eu234 2.473 . S
O257 C239 1.257 . S
H258 C244 0.929 . S
H259 C246 0.931 . S
H260 C248 0.929 . S
O261 Tb262 2.292 . S
O261 C264 1.255 . S
Tb262 O261 2.292 . S
Tb262 O278 2.326 . S
Tb262 O280 2.500 . S
Tb262 O281 2.473 . S
Tb262 O284 2.324 . S
Eu263 O267 2.292 . S
Eu263 C268 2.852 . S
Eu263 O279 2.324 . S
Eu263 O283 2.326 . S
Eu263 O285 2.500 . S
Eu263 O286 2.473 . S
C264 O261 1.255 . S
C264 O265 1.247 . S
O265 C264 1.247 . S
C266 O278 1.242 . S
C266 O279 1.258 . S
O267 Eu263 2.292 . S
O267 C269 1.255 . S
C268 Eu263 2.852 . S
C268 C272 1.503 1_554 S
C268 O285 1.273 . S
C268 O286 1.257 . S
C269 O267 1.255 . S
C269 O270 1.247 . S
O270 C269 1.247 . S
C271 O283 1.242 . S
C271 O284 1.258 . S
C272 C268 1.503 1_556 S
C272 C273 1.379 . S
C272 C277 1.392 . S
C273 C272 1.379 . S
C273 C274 1.404 . S
C273 H287 0.939 . S
C274 C273 1.404 . S
C274 C275 1.389 . S
C275 C274 1.389 . S
C275 C276 1.399 . S
C275 H288 0.931 . S
C276 C275 1.399 . S
C276 C277 1.390 . S
C277 C272 1.392 . S
C277 C276 1.390 . S
C277 H289 0.929 . S
O278 Tb262 2.326 . S
O278 C266 1.242 . S
O279 Eu263 2.324 . S
O279 C266 1.258 . S
O280 Tb262 2.500 . S
O280 C282 1.273 . S
O281 Tb262 2.473 . S
O281 C282 1.257 . S
C282 O280 1.273 . S
C282 O281 1.257 . S
O283 Eu263 2.326 . S
O283 C271 1.242 . S
O284 Tb262 2.324 . S
O284 C271 1.258 . S
O285 Eu263 2.500 . S
O285 C268 1.273 . S
O286 Eu263 2.473 . S
O286 C268 1.257 . S
H287 C273 0.939 . S
H288 C275 0.931 . S
H289 C277 0.929 . S
O290 Tb291 2.292 . S
O290 C293 1.255 . S
Tb291 O290 2.292 . S
Tb291 O307 2.326 . S
Tb291 O309 2.500 . S
Tb291 O310 2.473 . S
Tb291 O313 2.324 . S
Eu292 O296 2.292 . S
Eu292 C297 2.852 . S
Eu292 O308 2.324 . S
Eu292 O312 2.326 . S
Eu292 O314 2.500 . S
Eu292 O315 2.473 . S
C293 O290 1.255 . S
C293 O294 1.247 . S
O294 C293 1.247 . S
C295 O307 1.242 . S
C295 O308 1.258 . S
O296 Eu292 2.292 . S
O296 C298 1.255 . S
C297 Eu292 2.852 . S
C297 C301 1.503 1_556 S
C297 O314 1.273 . S
C297 O315 1.257 . S
C298 O296 1.255 . S
C298 O299 1.247 . S
O299 C298 1.247 . S
C300 O312 1.242 . S
C300 O313 1.258 . S
C301 C297 1.503 1_554 S
C301 C302 1.379 . S
C301 C306 1.392 . S
C302 C301 1.379 . S
C302 C303 1.404 . S
C302 H316 0.939 . S
C303 C302 1.404 . S
C303 C304 1.389 . S
C304 C303 1.389 . S
C304 C305 1.399 . S
C304 H317 0.931 . S
C305 C304 1.399 . S
C305 C306 1.390 . S
C306 C301 1.392 . S
C306 C305 1.390 . S
C306 H318 0.929 . S
O307 Tb291 2.326 . S
O307 C295 1.242 . S
O308 Eu292 2.324 . S
O308 C295 1.258 . S
O309 Tb291 2.500 . S
O309 C311 1.273 . S
O310 Tb291 2.473 . S
O310 C311 1.257 . S
C311 O309 1.273 . S
C311 O310 1.257 . S
O312 Eu292 2.326 . S
O312 C300 1.242 . S
O313 Tb291 2.324 . S
O313 C300 1.258 . S
O314 Eu292 2.500 . S
O314 C297 1.273 . S
O315 Eu292 2.473 . S
O315 C297 1.257 . S
H316 C302 0.939 . S
H317 C304 0.931 . S
H318 C306 0.929 . S
O319 Tb320 2.292 . S
O319 C322 1.255 . S
Tb320 O319 2.292 . S
Tb320 O336 2.326 . S
Tb320 O338 2.500 . S
Tb320 O339 2.473 . S
Tb320 O342 2.324 . S
Eu321 O325 2.292 . S
Eu321 C326 2.852 . S
Eu321 O337 2.324 . S
Eu321 O341 2.326 . S
Eu321 O343 2.500 . S
Eu321 O344 2.473 . S
C322 O319 1.255 . S
C322 O323 1.247 . S
O323 C322 1.247 . S
C324 O336 1.242 . S
C324 O337 1.258 . S
O325 Eu321 2.292 . S
O325 C327 1.255 . S
C326 Eu321 2.852 . S
C326 C330 1.503 . S
C326 O343 1.273 . S
C326 O344 1.257 . S
C327 O325 1.255 . S
C327 O328 1.247 . S
O328 C327 1.247 . S
C329 O341 1.242 . S
C329 O342 1.258 . S
C330 C326 1.503 . S
C330 C331 1.379 . S
C330 C335 1.392 . S
C331 C330 1.379 . S
C331 C332 1.404 . S
C331 H345 0.929 . S
C332 C331 1.404 . S
C332 C333 1.389 . S
C333 C332 1.389 . S
C333 C334 1.399 . S
C333 H346 0.931 . S
C334 C333 1.399 . S
C334 C335 1.390 . S
C335 C330 1.392 . S
C335 C334 1.390 . S
C335 H347 0.929 . S
O336 Tb320 2.326 . S
O336 C324 1.242 . S
O337 Eu321 2.324 . S
O337 C324 1.258 . S
O338 Tb320 2.500 . S
O338 C340 1.273 . S
O339 Tb320 2.473 . S
O339 C340 1.257 . S
C340 O338 1.273 . S
C340 O339 1.257 . S
O341 Eu321 2.326 . S
O341 C329 1.242 . S
O342 Tb320 2.324 . S
O342 C329 1.258 . S
O343 Eu321 2.500 . S
O343 C326 1.273 . S
O344 Eu321 2.473 . S
O344 C326 1.257 . S
H345 C331 0.929 . S
H346 C333 0.931 . S
H347 C335 0.929 . S
O348 Tb349 2.292 . S
O348 C351 1.255 . S
Tb349 O348 2.292 . S
Tb349 O365 2.326 . S
Tb349 O367 2.500 . S
Tb349 O368 2.473 . S
Tb349 O371 2.324 . S
Eu350 O354 2.292 . S
Eu350 C355 2.852 . S
Eu350 O366 2.324 . S
Eu350 O370 2.326 . S
Eu350 O372 2.500 . S
Eu350 O373 2.473 . S
C351 O348 1.255 . S
C351 O352 1.247 . S
O352 C351 1.247 . S
C353 O365 1.242 . S
C353 O366 1.258 . S
O354 Eu350 2.292 . S
O354 C356 1.255 . S
C355 Eu350 2.852 . S
C355 C359 1.503 . S
C355 O372 1.273 . S
C355 O373 1.257 . S
C356 O354 1.255 . S
C356 O357 1.247 . S
O357 C356 1.247 . S
C358 O370 1.242 . S
C358 O371 1.258 . S
C359 C355 1.503 . S
C359 C360 1.379 . S
C359 C364 1.392 . S
C360 C359 1.379 . S
C360 C361 1.404 . S
C360 H374 0.929 . S
C361 C360 1.404 . S
C361 C362 1.389 . S
C362 C361 1.389 . S
C362 C363 1.399 . S
C362 H375 0.931 . S
C363 C362 1.399 . S
C363 C364 1.390 . S
C364 C359 1.392 . S
C364 C363 1.390 . S
C364 H376 0.929 . S
O365 Tb349 2.326 . S
O365 C353 1.242 . S
O366 Eu350 2.324 . S
O366 C353 1.258 . S
O367 Tb349 2.500 . S
O367 C369 1.273 . S
O368 Tb349 2.473 . S
O368 C369 1.257 . S
C369 O367 1.273 . S
C369 O368 1.257 . S
O370 Eu350 2.326 . S
O370 C358 1.242 . S
O371 Tb349 2.324 . S
O371 C358 1.258 . S
O372 Eu350 2.500 . S
O372 C355 1.273 . S
O373 Eu350 2.473 . S
O373 C355 1.257 . S
H374 C360 0.929 . S
H375 C362 0.931 . S
H376 C364 0.929 . S
O377 Tb378 2.292 . S
O377 C380 1.255 . S
Tb378 O377 2.292 . S
Tb378 O394 2.326 . S
Tb378 O396 2.500 . S
Tb378 O397 2.473 1_655 S
Tb378 O400 2.324 1_655 S
Eu379 O383 2.292 . S
Eu379 C384 2.852 . S
Eu379 O395 2.324 1_455 S
Eu379 O399 2.326 . S
Eu379 O401 2.500 . S
Eu379 O402 2.473 1_455 S
C380 O377 1.255 . S
C380 O381 1.247 . S
O381 C380 1.247 . S
C382 O394 1.242 . S
C382 O395 1.258 . S
O383 Eu379 2.292 . S
O383 C385 1.255 . S
C384 Eu379 2.852 . S
C384 C388 1.503 . S
C384 O401 1.273 . S
C384 O402 1.257 1_455 S
C385 O383 1.255 . S
C385 O386 1.247 . S
O386 C385 1.247 . S
C387 O399 1.242 . S
C387 O400 1.258 . S
C388 C384 1.503 . S
C388 C389 1.379 1_455 S
C388 C393 1.392 . S
C389 C388 1.379 1_655 S
C389 C390 1.404 . S
C389 H403 0.929 . S
C390 C389 1.404 . S
C390 C391 1.389 1_655 S
C391 C390 1.389 1_455 S
C391 C392 1.399 . S
C391 H404 0.931 . S
C392 C391 1.399 . S
C392 C393 1.390 . S
C393 C388 1.392 . S
C393 C392 1.390 . S
C393 H405 0.929 . S
O394 Tb378 2.326 . S
O394 C382 1.242 . S
O395 Eu379 2.324 1_655 S
O395 C382 1.258 . S
O396 Tb378 2.500 . S
O396 C398 1.273 . S
O397 Tb378 2.473 1_455 S
O397 C398 1.257 1_455 S
C398 O396 1.273 . S
C398 O397 1.257 1_655 S
O399 Eu379 2.326 . S
O399 C387 1.242 . S
O400 Tb378 2.324 1_455 S
O400 C387 1.258 . S
O401 Eu379 2.500 . S
O401 C384 1.273 . S
O402 Eu379 2.473 1_655 S
O402 C384 1.257 1_655 S
H403 C389 0.929 . S
H404 C391 0.931 . S
H405 C393 0.929 . S
O406 Tb407 2.292 . S
O406 C409 1.255 . S
Tb407 O406 2.292 . S
Tb407 O423 2.326 . S
Tb407 O425 2.500 . S
Tb407 O426 2.473 . S
Tb407 O429 2.324 . S
Eu408 O412 2.292 . S
Eu408 C413 2.852 . S
Eu408 O424 2.324 . S
Eu408 O428 2.326 . S
Eu408 O430 2.500 . S
Eu408 O431 2.473 . S
C409 O406 1.255 . S
C409 O410 1.247 . S
O410 C409 1.247 . S
C411 O423 1.242 . S
C411 O424 1.258 . S
O412 Eu408 2.292 . S
O412 C414 1.255 . S
C413 Eu408 2.852 . S
C413 C417 1.503 . S
C413 O430 1.273 . S
C413 O431 1.257 . S
C414 O412 1.255 . S
C414 O415 1.247 . S
O415 C414 1.247 . S
C416 O428 1.242 . S
C416 O429 1.258 . S
C417 C413 1.503 . S
C417 C418 1.379 . S
C417 C422 1.392 . S
C418 C417 1.379 . S
C418 C419 1.404 . S
C418 H432 0.929 . S
C419 C418 1.404 . S
C419 C420 1.389 . S
C420 C419 1.389 . S
C420 C421 1.399 . S
C420 H433 0.931 . S
C421 C420 1.399 . S
C421 C422 1.390 . S
C422 C417 1.392 . S
C422 C421 1.390 . S
C422 H434 0.929 . S
O423 Tb407 2.326 . S
O423 C411 1.242 . S
O424 Eu408 2.324 . S
O424 C411 1.258 . S
O425 Tb407 2.500 . S
O425 C427 1.273 . S
O426 Tb407 2.473 . S
O426 C427 1.257 . S
C427 O425 1.273 . S
C427 O426 1.257 . S
O428 Eu408 2.326 . S
O428 C416 1.242 . S
O429 Tb407 2.324 . S
O429 C416 1.258 . S
O430 Eu408 2.500 . S
O430 C413 1.273 . S
O431 Eu408 2.473 . S
O431 C413 1.257 . S
H432 C418 0.929 . S
H433 C420 0.931 . S
H434 C422 0.929 . S
O435 Tb436 2.292 . S
O435 C438 1.255 . S
Tb436 O435 2.292 . S
Tb436 O452 2.326 . S
Tb436 O454 2.500 . S
Tb436 O455 2.473 1_655 S
Tb436 O458 2.324 1_655 S
Eu437 O441 2.292 . S
Eu437 C442 2.852 . S
Eu437 O453 2.324 1_455 S
Eu437 O457 2.326 . S
Eu437 O459 2.500 . S
Eu437 O460 2.473 1_455 S
C438 O435 1.255 . S
C438 O439 1.247 . S
O439 C438 1.247 . S
C440 O452 1.242 . S
C440 O453 1.258 . S
O441 Eu437 2.292 . S
O441 C443 1.255 . S
C442 Eu437 2.852 . S
C442 C446 1.503 . S
C442 O459 1.273 . S
C442 O460 1.257 1_455 S
C443 O441 1.255 . S
C443 O444 1.247 . S
O444 C443 1.247 . S
C445 O457 1.242 . S
C445 O458 1.258 . S
C446 C442 1.503 . S
C446 C447 1.379 1_455 S
C446 C451 1.392 . S
C447 C446 1.379 1_655 S
C447 C448 1.404 . S
C447 H461 0.929 . S
C448 C447 1.404 . S
C448 C449 1.389 1_655 S
C449 C448 1.389 1_455 S
C449 C450 1.399 . S
C449 H462 0.931 . S
C450 C449 1.399 . S
C450 C451 1.390 . S
C451 C446 1.392 . S
C451 C450 1.390 . S
C451 H463 0.929 . S
O452 Tb436 2.326 . S
O452 C440 1.242 . S
O453 Eu437 2.324 1_655 S
O453 C440 1.258 . S
O454 Tb436 2.500 . S
O454 C456 1.273 . S
O455 Tb436 2.473 1_455 S
O455 C456 1.257 1_455 S
C456 O454 1.273 . S
C456 O455 1.257 1_655 S
O457 Eu437 2.326 . S
O457 C445 1.242 . S
O458 Tb436 2.324 1_455 S
O458 C445 1.258 . S
O459 Eu437 2.500 . S
O459 C442 1.273 . S
O460 Eu437 2.473 1_655 S
O460 C442 1.257 1_655 S
H461 C447 0.929 . S
H462 C449 0.931 . S
H463 C451 0.929 . S
H464 C482 0.951 1_655 S
H465 C484 0.951 1_655 S
H466 C486 0.950 . S
H467 C487 0.950 . S
H468 C489 0.950 . S
H469 C492 0.950 . S
H470 C493 0.950 . S
H471 C495 0.950 . S
H472 C496 0.980 . S
H473 C497 0.951 . S
H474 C499 0.951 . S
H475 C501 0.950 1_655 S
H476 C502 0.950 1_655 S
H477 C504 0.950 . S
H478 C507 0.950 . S
H479 C508 0.950 . S
H480 C510 0.950 . S
H481 C511 0.980 . S
C482 H464 0.951 1_455 S
C482 C483 1.366 . S
C482 C484 1.388 . S
C483 C482 1.366 . S
C483 C487 1.385 . S
C484 H465 0.951 1_455 S
C484 C482 1.388 . S
C484 C485 1.366 . S
C485 C484 1.366 . S
C485 C486 1.414 . S
C485 C488 1.499 . S
C486 H466 0.950 . S
C486 C485 1.414 . S
C486 C487 1.374 . S
C487 H467 0.950 . S
C487 C483 1.385 . S
C487 C486 1.374 . S
C488 C485 1.499 . S
C488 C489 1.373 . S
C488 C490 1.389 1_455 S
C489 H468 0.950 . S
C489 C488 1.373 . S
C489 C505 1.377 1_566 S
C490 C488 1.389 1_655 S
C490 C491 1.524 1_565 S
C490 C504 1.377 1_566 S
C491 C490 1.524 1_545 S
C491 C492 1.397 . S
C491 C496 1.363 1_545 S
C492 H469 0.950 . S
C492 C491 1.397 . S
C492 C493 1.334 . S
C493 H470 0.950 . S
C493 C492 1.334 . S
C493 C494 1.287 . S
C494 C493 1.287 . S
C494 C495 1.524 1_545 S
C494 H513 0.913 . S
C495 H471 0.950 . S
C495 C494 1.524 1_565 S
C495 C496 1.415 . S
C496 H472 0.980 . S
C496 C491 1.363 1_565 S
C496 C495 1.415 . S
C497 H473 0.951 . S
C497 C498 1.366 . S
C497 C499 1.388 . S
C498 C497 1.366 . S
C498 C502 1.385 . S
C499 H474 0.951 . S
C499 C497 1.388 . S
C499 C500 1.366 . S
C500 C499 1.366 . S
C500 C501 1.414 . S
C500 C503 1.499 . S
C501 H475 0.950 1_455 S
C501 C500 1.414 . S
C501 C502 1.374 . S
C502 H476 0.950 1_455 S
C502 C498 1.385 . S
C502 C501 1.374 . S
C503 C500 1.499 . S
C503 C504 1.373 1_455 S
C503 C505 1.389 . S
C504 H477 0.950 . S
C504 C490 1.377 1_544 S
C504 C503 1.373 1_655 S
C505 C489 1.377 1_544 S
C505 C503 1.389 . S
C505 C506 1.524 1_545 S
C506 C505 1.524 1_565 S
C506 C507 1.397 . S
C506 C511 1.363 1_565 S
C507 H478 0.950 . S
C507 C506 1.397 . S
C507 C508 1.334 . S
C508 H479 0.950 . S
C508 C507 1.334 . S
C508 C509 1.287 . S
C509 C508 1.287 . S
C509 C510 1.524 1_565 S
C509 H512 0.999 . S
C510 H480 0.950 . S
C510 C509 1.524 1_545 S
C510 C511 1.415 . S
C511 H481 0.980 . S
C511 C506 1.363 1_545 S
C511 C510 1.415 . S
H512 C509 0.999 . S
H513 C494 0.913 . S
H514 C532 0.951 . S
H515 C534 0.951 . S
H516 C536 0.950 . S
H517 C537 0.950 . S
H518 C539 0.950 . S
H519 C542 0.950 . S
H520 C543 0.950 . S
H521 C545 0.950 . S
H522 C546 0.950 . S
H523 C547 0.951 . S
H524 C549 0.951 . S
H525 C551 0.950 . S
H526 C552 0.950 . S
H527 C554 0.950 . S
H528 C557 0.950 . S
H529 C558 0.950 . S
H530 C560 0.950 . S
H531 C561 0.950 . S
C532 H514 0.951 . S
C532 C533 1.366 . S
C532 C534 1.388 . S
C533 C532 1.366 . S
C533 C537 1.385 . S
C534 H515 0.951 . S
C534 C532 1.388 . S
C534 C535 1.366 . S
C535 C534 1.366 . S
C535 C536 1.414 . S
C535 C538 1.499 . S
C536 H516 0.950 . S
C536 C535 1.414 . S
C536 C537 1.374 . S
C537 H517 0.950 . S
C537 C533 1.385 . S
C537 C536 1.374 . S
C538 C535 1.499 . S
C538 C539 1.373 . S
C538 C540 1.389 . S
C539 H518 0.950 . S
C539 C538 1.373 . S
C539 C555 1.377 . S
C540 C538 1.389 . S
C540 C541 1.524 . S
C540 C554 1.377 . S
C541 C540 1.524 . S
C541 C542 1.397 . S
C541 C546 1.363 . S
C542 H519 0.950 . S
C542 C541 1.397 . S
C542 C543 1.334 . S
C543 H520 0.950 . S
C543 C542 1.334 . S
C543 C544 1.287 . S
C544 C543 1.287 . S
C544 C545 1.524 . S
C544 H563 0.913 . S
C545 H521 0.950 . S
C545 C544 1.524 . S
C545 C546 1.415 . S
C546 H522 0.950 . S
C546 C541 1.363 . S
C546 C545 1.415 . S
C547 H523 0.951 . S
C547 C548 1.366 . S
C547 C549 1.388 . S
C548 C547 1.366 . S
C548 C552 1.385 . S
C549 H524 0.951 . S
C549 C547 1.388 . S
C549 C550 1.366 . S
C550 C549 1.366 . S
C550 C551 1.414 . S
C550 C553 1.499 . S
C551 H525 0.950 . S
C551 C550 1.414 . S
C551 C552 1.374 . S
C552 H526 0.950 . S
C552 C548 1.385 . S
C552 C551 1.374 . S
C553 C550 1.499 . S
C553 C554 1.373 . S
C553 C555 1.389 . S
C554 H527 0.950 . S
C554 C540 1.377 . S
C554 C553 1.373 . S
C555 C539 1.377 . S
C555 C553 1.389 . S
C555 C556 1.524 . S
C556 C555 1.524 . S
C556 C557 1.397 . S
C556 C561 1.363 . S
C557 H528 0.950 . S
C557 C556 1.397 . S
C557 C558 1.334 . S
C558 H529 0.950 . S
C558 C557 1.334 . S
C558 C559 1.287 . S
C559 C558 1.287 . S
C559 C560 1.524 . S
C559 H562 0.999 . S
C560 H530 0.950 . S
C560 C559 1.524 . S
C560 C561 1.415 . S
C561 H531 0.950 . S
C561 C556 1.363 . S
C561 C560 1.415 . S
H562 C559 0.999 . S
H563 C544 0.913 . S
H564 C582 0.951 . S
H565 C584 0.951 . S
H566 C586 0.950 . S
H567 C587 0.950 . S
H568 C589 0.950 . S
H569 C592 0.950 . S
H570 C593 0.950 . S
H571 C595 0.950 . S
H572 C596 0.950 . S
H573 C597 0.951 . S
H574 C599 0.951 . S
H575 C601 0.950 . S
H576 C602 0.950 . S
H577 C604 0.950 . S
H578 C607 0.950 . S
H579 C608 0.950 . S
H580 C610 0.950 . S
H581 C611 0.950 . S
C582 H564 0.951 . S
C582 C583 1.366 . S
C582 C584 1.388 . S
C583 C582 1.366 . S
C583 C587 1.385 . S
C584 H565 0.951 . S
C584 C582 1.388 . S
C584 C585 1.366 . S
C585 C584 1.366 . S
C585 C586 1.414 . S
C585 C588 1.499 . S
C586 H566 0.950 . S
C586 C585 1.414 . S
C586 C587 1.374 . S
C587 H567 0.950 . S
C587 C583 1.385 . S
C587 C586 1.374 . S
C588 C585 1.499 . S
C588 C589 1.373 1_545 S
C588 C590 1.389 . S
C589 H568 0.950 . S
C589 C588 1.373 1_565 S
C589 C605 1.377 . S
C590 C588 1.389 . S
C590 C591 1.524 . S
C590 C604 1.377 . S
C591 C590 1.524 . S
C591 C592 1.397 . S
C591 C596 1.363 . S
C592 H569 0.950 . S
C592 C591 1.397 . S
C592 C593 1.334 . S
C593 H570 0.950 . S
C593 C592 1.334 . S
C593 C594 1.287 . S
C594 C593 1.287 . S
C594 C595 1.524 . S
C594 H613 0.913 . S
C595 H571 0.950 . S
C595 C594 1.524 . S
C595 C596 1.415 . S
C596 H572 0.950 . S
C596 C591 1.363 . S
C596 C595 1.415 . S
C597 H573 0.951 . S
C597 C598 1.366 . S
C597 C599 1.388 . S
C598 C597 1.366 . S
C598 C602 1.385 . S
C599 H574 0.951 . S
C599 C597 1.388 . S
C599 C600 1.366 . S
C600 C599 1.366 . S
C600 C601 1.414 . S
C600 C603 1.499 . S
C601 H575 0.950 . S
C601 C600 1.414 . S
C601 C602 1.374 . S
C602 H576 0.950 . S
C602 C598 1.385 . S
C602 C601 1.374 . S
C603 C600 1.499 . S
C603 C604 1.373 1_565 S
C603 C605 1.389 . S
C604 H577 0.950 . S
C604 C590 1.377 . S
C604 C603 1.373 1_545 S
C605 C589 1.377 . S
C605 C603 1.389 . S
C605 C606 1.524 . S
C606 C605 1.524 . S
C606 C607 1.397 . S
C606 C611 1.363 . S
C607 H578 0.950 . S
C607 C606 1.397 . S
C607 C608 1.334 . S
C608 H579 0.950 . S
C608 C607 1.334 . S
C608 C609 1.287 . S
C609 C608 1.287 . S
C609 C610 1.524 . S
C609 H612 0.999 . S
C610 H580 0.950 . S
C610 C609 1.524 . S
C610 C611 1.415 . S
C611 H581 0.950 . S
C611 C606 1.363 . S
C611 C610 1.415 . S
H612 C609 0.999 . S
H613 C594 0.913 . S
H614 C632 0.951 . S
H615 C634 0.951 . S
H616 C636 0.950 . S
H617 C637 0.950 . S
H618 C639 0.950 . S
H619 C642 0.950 . S
H620 C643 0.950 . S
H621 C645 0.950 . S
H622 C646 0.950 . S
H623 C647 0.951 . S
H624 C649 0.951 . S
H625 C651 0.950 . S
H626 C652 0.950 . S
H627 C654 0.950 . S
H628 C657 0.950 . S
H629 C658 0.950 . S
H630 C660 0.950 . S
H631 C661 0.950 . S
C632 H614 0.951 . S
C632 C633 1.366 . S
C632 C634 1.388 . S
C633 C632 1.366 . S
C633 C637 1.385 . S
C634 H615 0.951 . S
C634 C632 1.388 . S
C634 C635 1.366 . S
C635 C634 1.366 . S
C635 C636 1.414 . S
C635 C638 1.499 . S
C636 H616 0.950 . S
C636 C635 1.414 . S
C636 C637 1.374 . S
C637 H617 0.950 . S
C637 C633 1.385 . S
C637 C636 1.374 . S
C638 C635 1.499 . S
C638 C639 1.373 . S
C638 C640 1.389 . S
C639 H618 0.950 . S
C639 C638 1.373 . S
C639 C655 1.377 . S
C640 C638 1.389 . S
C640 C641 1.524 . S
C640 C654 1.377 . S
C641 C640 1.524 . S
C641 C642 1.397 . S
C641 C646 1.363 . S
C642 H619 0.950 . S
C642 C641 1.397 . S
C642 C643 1.334 . S
C643 H620 0.950 . S
C643 C642 1.334 . S
C643 C644 1.287 . S
C644 C643 1.287 . S
C644 C645 1.524 . S
C644 H663 0.913 . S
C645 H621 0.950 . S
C645 C644 1.524 . S
C645 C646 1.415 . S
C646 H622 0.950 . S
C646 C641 1.363 . S
C646 C645 1.415 . S
C647 H623 0.951 . S
C647 C648 1.366 . S
C647 C649 1.388 . S
C648 C647 1.366 . S
C648 C652 1.385 . S
C649 H624 0.951 . S
C649 C647 1.388 . S
C649 C650 1.366 . S
C650 C649 1.366 . S
C650 C651 1.414 . S
C650 C653 1.499 . S
C651 H625 0.950 . S
C651 C650 1.414 . S
C651 C652 1.374 . S
C652 H626 0.950 . S
C652 C648 1.385 . S
C652 C651 1.374 . S
C653 C650 1.499 . S
C653 C654 1.373 . S
C653 C655 1.389 . S
C654 H627 0.950 . S
C654 C640 1.377 . S
C654 C653 1.373 . S
C655 C639 1.377 . S
C655 C653 1.389 . S
C655 C656 1.524 . S
C656 C655 1.524 . S
C656 C657 1.397 . S
C656 C661 1.363 . S
C657 H628 0.950 . S
C657 C656 1.397 . S
C657 C658 1.334 . S
C658 H629 0.950 . S
C658 C657 1.334 . S
C658 C659 1.287 . S
C659 C658 1.287 . S
C659 C660 1.524 . S
C659 H662 0.999 . S
C660 H630 0.950 . S
C660 C659 1.524 . S
C660 C661 1.415 . S
C661 H631 0.950 . S
C661 C656 1.363 . S
C661 C660 1.415 . S
H662 C659 0.999 . S
H663 C644 0.913 . S
H664 C682 0.951 . S
H665 C684 0.951 . S
H666 C686 0.950 . S
H667 C687 0.950 . S
H668 C689 0.950 . S
H669 C692 0.950 . S
H670 C693 0.950 . S
H671 C695 0.950 . S
H672 C696 0.950 . S
H673 C697 0.951 . S
H674 C699 0.951 . S
H675 C701 0.950 . S
H676 C702 0.950 . S
H677 C704 0.950 . S
H678 C707 0.950 . S
H679 C708 0.950 . S
H680 C710 0.950 . S
H681 C711 0.950 . S
C682 H664 0.951 . S
C682 C683 1.366 . S
C682 C684 1.388 . S
C683 C682 1.366 . S
C683 C687 1.385 . S
C684 H665 0.951 . S
C684 C682 1.388 . S
C684 C685 1.366 . S
C685 C684 1.366 . S
C685 C686 1.414 . S
C685 C688 1.499 . S
C686 H666 0.950 . S
C686 C685 1.414 . S
C686 C687 1.374 . S
C687 H667 0.950 . S
C687 C683 1.385 . S
C687 C686 1.374 . S
C688 C685 1.499 . S
C688 C689 1.373 . S
C688 C690 1.389 . S
C689 H668 0.950 . S
C689 C688 1.373 . S
C689 C705 1.377 . S
C690 C688 1.389 . S
C690 C691 1.524 . S
C690 C704 1.377 . S
C691 C690 1.524 . S
C691 C692 1.397 . S
C691 C696 1.363 . S
C692 H669 0.950 . S
C692 C691 1.397 . S
C692 C693 1.334 . S
C693 H670 0.950 . S
C693 C692 1.334 . S
C693 C694 1.287 . S
C694 C693 1.287 . S
C694 C695 1.524 . S
C694 H713 0.913 . S
C695 H671 0.950 . S
C695 C694 1.524 . S
C695 C696 1.415 . S
C696 H672 0.950 . S
C696 C691 1.363 . S
C696 C695 1.415 . S
C697 H673 0.951 . S
C697 C698 1.366 . S
C697 C699 1.388 . S
C698 C697 1.366 . S
C698 C702 1.385 . S
C699 H674 0.951 . S
C699 C697 1.388 . S
C699 C700 1.366 . S
C700 C699 1.366 . S
C700 C701 1.414 . S
C700 C703 1.499 . S
C701 H675 0.950 . S
C701 C700 1.414 . S
C701 C702 1.374 . S
C702 H676 0.950 . S
C702 C698 1.385 . S
C702 C701 1.374 . S
C703 C700 1.499 . S
C703 C704 1.373 . S
C703 C705 1.389 . S
C704 H677 0.950 . S
C704 C690 1.377 . S
C704 C703 1.373 . S
C705 C689 1.377 . S
C705 C703 1.389 . S
C705 C706 1.524 . S
C706 C705 1.524 . S
C706 C707 1.397 . S
C706 C711 1.363 . S
C707 H678 0.950 . S
C707 C706 1.397 . S
C707 C708 1.334 . S
C708 H679 0.950 . S
C708 C707 1.334 . S
C708 C709 1.287 . S
C709 C708 1.287 . S
C709 C710 1.524 . S
C709 H712 0.999 . S
C710 H680 0.950 . S
C710 C709 1.524 . S
C710 C711 1.415 . S
C711 H681 0.950 . S
C711 C706 1.363 . S
C711 C710 1.415 . S
H712 C709 0.999 . S
H713 C694 0.913 . S
H714 C732 0.951 . S
H715 C734 0.951 . S
H716 C736 0.950 . S
H717 C737 0.950 . S
H718 C739 0.950 . S
H719 C742 0.950 . S
H720 C743 0.950 . S
H721 C745 0.950 . S
H722 C746 0.950 . S
H723 C747 0.951 . S
H724 C749 0.951 . S
H725 C751 0.950 . S
H726 C752 0.950 . S
H727 C754 0.950 . S
H728 C757 0.950 . S
H729 C758 0.950 . S
H730 C760 0.950 . S
H731 C761 0.950 . S
C732 H714 0.951 . S
C732 C733 1.366 . S
C732 C734 1.388 . S
C733 C732 1.366 . S
C733 C737 1.385 . S
C734 H715 0.951 . S
C734 C732 1.388 . S
C734 C735 1.366 . S
C735 C734 1.366 . S
C735 C736 1.414 . S
C735 C738 1.499 . S
C736 H716 0.950 . S
C736 C735 1.414 . S
C736 C737 1.374 . S
C737 H717 0.950 . S
C737 C733 1.385 . S
C737 C736 1.374 . S
C738 C735 1.499 . S
C738 C739 1.373 . S
C738 C740 1.389 . S
C739 H718 0.950 . S
C739 C738 1.373 . S
C739 C755 1.377 . S
C740 C738 1.389 . S
C740 C741 1.524 . S
C740 C754 1.377 . S
C741 C740 1.524 . S
C741 C742 1.397 . S
C741 C746 1.363 . S
C742 H719 0.950 . S
C742 C741 1.397 . S
C742 C743 1.334 . S
C743 H720 0.950 . S
C743 C742 1.334 . S
C743 C744 1.287 . S
C744 C743 1.287 . S
C744 C745 1.524 . S
C744 H763 0.913 . S
C745 H721 0.950 . S
C745 C744 1.524 . S
C745 C746 1.415 . S
C746 H722 0.950 . S
C746 C741 1.363 . S
C746 C745 1.415 . S
C747 H723 0.951 . S
C747 C748 1.366 . S
C747 C749 1.388 . S
C748 C747 1.366 . S
C748 C752 1.385 . S
C749 H724 0.951 . S
C749 C747 1.388 . S
C749 C750 1.366 . S
C750 C749 1.366 . S
C750 C751 1.414 . S
C750 C753 1.499 . S
C751 H725 0.950 . S
C751 C750 1.414 . S
C751 C752 1.374 . S
C752 H726 0.950 . S
C752 C748 1.385 . S
C752 C751 1.374 . S
C753 C750 1.499 . S
C753 C754 1.373 . S
C753 C755 1.389 . S
C754 H727 0.950 . S
C754 C740 1.377 . S
C754 C753 1.373 . S
C755 C739 1.377 . S
C755 C753 1.389 . S
C755 C756 1.524 . S
C756 C755 1.524 . S
C756 C757 1.397 . S
C756 C761 1.363 . S
C757 H728 0.950 . S
C757 C756 1.397 . S
C757 C758 1.334 . S
C758 H729 0.950 . S
C758 C757 1.334 . S
C758 C759 1.287 . S
C759 C758 1.287 . S
C759 C760 1.524 . S
C759 H762 0.999 . S
C760 H730 0.950 . S
C760 C759 1.524 . S
C760 C761 1.415 . S
C761 H731 0.950 . S
C761 C756 1.363 . S
C761 C760 1.415 . S
H762 C759 0.999 . S
H763 C744 0.913 . S
H764 C782 0.951 . S
H765 C784 0.951 . S
H766 C786 0.950 . S
H767 C787 0.950 . S
H768 C789 0.950 . S
H769 C792 0.950 . S
H770 C793 0.950 . S
H771 C795 0.950 . S
H772 C796 0.950 . S
H773 C797 0.951 . S
H774 C799 0.951 . S
H775 C801 0.950 . S
H776 C802 0.950 . S
H777 C804 0.950 . S
H778 C807 0.950 . S
H779 C808 0.950 . S
H780 C810 0.950 . S
H781 C811 0.950 . S
C782 H764 0.951 . S
C782 C783 1.366 . S
C782 C784 1.388 . S
C783 C782 1.366 . S
C783 C787 1.385 . S
C784 H765 0.951 . S
C784 C782 1.388 . S
C784 C785 1.366 . S
C785 C784 1.366 . S
C785 C786 1.414 . S
C785 C788 1.499 . S
C786 H766 0.950 . S
C786 C785 1.414 . S
C786 C787 1.374 . S
C787 H767 0.950 . S
C787 C783 1.385 . S
C787 C786 1.374 . S
C788 C785 1.499 . S
C788 C789 1.373 . S
C788 C790 1.389 . S
C789 H768 0.950 . S
C789 C788 1.373 . S
C789 C805 1.377 . S
C790 C788 1.389 . S
C790 C791 1.524 . S
C790 C804 1.377 . S
C791 C790 1.524 . S
C791 C792 1.397 . S
C791 C796 1.363 . S
C792 H769 0.950 . S
C792 C791 1.397 . S
C792 C793 1.334 . S
C793 H770 0.950 . S
C793 C792 1.334 . S
C793 C794 1.287 . S
C794 C793 1.287 . S
C794 C795 1.524 . S
C794 H813 0.913 . S
C795 H771 0.950 . S
C795 C794 1.524 . S
C795 C796 1.415 . S
C796 H772 0.950 . S
C796 C791 1.363 . S
C796 C795 1.415 . S
C797 H773 0.951 . S
C797 C798 1.366 . S
C797 C799 1.388 . S
C798 C797 1.366 . S
C798 C802 1.385 . S
C799 H774 0.951 . S
C799 C797 1.388 . S
C799 C800 1.366 . S
C800 C799 1.366 . S
C800 C801 1.414 . S
C800 C803 1.499 . S
C801 H775 0.950 . S
C801 C800 1.414 . S
C801 C802 1.374 . S
C802 H776 0.950 . S
C802 C798 1.385 . S
C802 C801 1.374 . S
C803 C800 1.499 . S
C803 C804 1.373 . S
C803 C805 1.389 . S
C804 H777 0.950 . S
C804 C790 1.377 . S
C804 C803 1.373 . S
C805 C789 1.377 . S
C805 C803 1.389 . S
C805 C806 1.524 . S
C806 C805 1.524 . S
C806 C807 1.397 . S
C806 C811 1.363 . S
C807 H778 0.950 . S
C807 C806 1.397 . S
C807 C808 1.334 . S
C808 H779 0.950 . S
C808 C807 1.334 . S
C808 C809 1.287 . S
C809 C808 1.287 . S
C809 C810 1.524 . S
C809 H812 0.999 . S
C810 H780 0.950 . S
C810 C809 1.524 . S
C810 C811 1.415 . S
C811 H781 0.950 . S
C811 C806 1.363 . S
C811 C810 1.415 . S
H812 C809 0.999 . S
H813 C794 0.913 . S
H814 C832 0.951 . S
H815 C834 0.951 . S
H816 C836 0.950 . S
H817 C837 0.950 . S
H818 C839 0.950 . S
H819 C842 0.950 . S
H820 C843 0.950 . S
H821 C845 0.950 . S
H822 C846 0.942 1_556 S
H823 C847 0.951 . S
H824 C849 0.951 . S
H825 C851 0.950 . S
H826 C852 0.950 . S
H827 C854 0.950 . S
H828 C857 0.950 1_655 S
H829 C858 0.950 . S
H830 C860 0.950 . S
H831 C861 0.942 1_554 S
C832 H814 0.951 . S
C832 C833 1.366 . S
C832 C834 1.388 . S
C833 C832 1.366 . S
C833 C837 1.385 1_655 S
C834 H815 0.951 . S
C834 C832 1.388 . S
C834 C835 1.366 . S
C835 C834 1.366 . S
C835 C836 1.414 1_655 S
C835 C838 1.499 . S
C836 H816 0.950 . S
C836 C835 1.414 1_455 S
C836 C837 1.374 . S
C837 H817 0.950 . S
C837 C833 1.385 1_455 S
C837 C836 1.374 . S
C838 C835 1.499 . S
C838 C839 1.373 1_655 S
C838 C840 1.389 . S
C839 H818 0.950 . S
C839 C838 1.373 1_455 S
C839 C855 1.377 1_554 S
C840 C838 1.389 . S
C840 C841 1.524 . S
C840 C854 1.377 1_554 S
C841 C840 1.524 . S
C841 C842 1.397 . S
C841 C846 1.363 . S
C842 H819 0.950 . S
C842 C841 1.397 . S
C842 C843 1.334 . S
C843 H820 0.950 . S
C843 C842 1.334 . S
C843 C844 1.287 . S
C844 C843 1.287 . S
C844 C845 1.524 . S
C844 H863 0.913 . S
C845 H821 0.950 . S
C845 C844 1.524 . S
C845 C846 1.415 . S
C846 H822 0.942 1_554 S
C846 C841 1.363 . S
C846 C845 1.415 . S
C847 H823 0.951 . S
C847 C848 1.366 1_455 S
C847 C849 1.388 . S
C848 C847 1.366 1_655 S
C848 C852 1.385 . S
C849 H824 0.951 . S
C849 C847 1.388 . S
C849 C850 1.366 1_455 S
C850 C849 1.366 1_655 S
C850 C851 1.414 . S
C850 C853 1.499 . S
C851 H825 0.950 . S
C851 C850 1.414 . S
C851 C852 1.374 . S
C852 H826 0.950 . S
C852 C848 1.385 . S
C852 C851 1.374 . S
C853 C850 1.499 . S
C853 C854 1.373 . S
C853 C855 1.389 1_655 S
C854 H827 0.950 . S
C854 C840 1.377 1_556 S
C854 C853 1.373 . S
C855 C839 1.377 1_556 S
C855 C853 1.389 1_455 S
C855 C856 1.524 . S
C856 C855 1.524 . S
C856 C857 1.397 . S
C856 C861 1.363 . S
C857 H828 0.950 1_455 S
C857 C856 1.397 . S
C857 C858 1.334 . S
C858 H829 0.950 . S
C858 C857 1.334 . S
C858 C859 1.287 . S
C859 C858 1.287 . S
C859 C860 1.524 . S
C859 H862 0.999 . S
C860 H830 0.950 . S
C860 C859 1.524 . S
C860 C861 1.415 . S
C861 H831 0.942 1_556 S
C861 C856 1.363 . S
C861 C860 1.415 . S
H862 C859 0.999 . S
H863 C844 0.913 . S
H864 C882 0.951 . S
H865 C884 0.951 . S
H866 C886 0.950 . S
H867 C887 0.950 . S
H868 C889 0.950 . S
H869 C892 0.950 . S
H870 C893 0.950 . S
H871 C895 0.950 . S
H872 C896 0.950 . S
H873 C897 0.951 . S
H874 C899 0.951 . S
H875 C901 0.950 . S
H876 C902 0.950 . S
H877 C904 0.950 . S
H878 C907 0.950 . S
H879 C908 0.950 . S
H880 C910 0.950 . S
H881 C911 0.950 . S
C882 H864 0.951 . S
C882 C883 1.366 . S
C882 C884 1.388 . S
C883 C882 1.366 . S
C883 C887 1.385 . S
C884 H865 0.951 . S
C884 C882 1.388 . S
C884 C885 1.366 . S
C885 C884 1.366 . S
C885 C886 1.414 . S
C885 C888 1.499 . S
C886 H866 0.950 . S
C886 C885 1.414 . S
C886 C887 1.374 . S
C887 H867 0.950 . S
C887 C883 1.385 . S
C887 C886 1.374 . S
C888 C885 1.499 . S
C888 C889 1.373 . S
C888 C890 1.389 . S
C889 H868 0.950 . S
C889 C888 1.373 . S
C889 C905 1.377 . S
C890 C888 1.389 . S
C890 C891 1.524 . S
C890 C904 1.377 . S
C891 C890 1.524 . S
C891 C892 1.397 . S
C891 C896 1.363 . S
C892 H869 0.950 . S
C892 C891 1.397 . S
C892 C893 1.334 . S
C893 H870 0.950 . S
C893 C892 1.334 . S
C893 C894 1.287 . S
C894 C893 1.287 . S
C894 C895 1.524 . S
C894 H913 0.913 1_554 S
C895 H871 0.950 . S
C895 C894 1.524 . S
C895 C896 1.415 . S
C896 H872 0.950 . S
C896 C891 1.363 . S
C896 C895 1.415 . S
C897 H873 0.951 . S
C897 C898 1.366 . S
C897 C899 1.388 . S
C898 C897 1.366 . S
C898 C902 1.385 . S
C899 H874 0.951 . S
C899 C897 1.388 . S
C899 C900 1.366 . S
C900 C899 1.366 . S
C900 C901 1.414 . S
C900 C903 1.499 . S
C901 H875 0.950 . S
C901 C900 1.414 . S
C901 C902 1.374 . S
C902 H876 0.950 . S
C902 C898 1.385 . S
C902 C901 1.374 . S
C903 C900 1.499 . S
C903 C904 1.373 . S
C903 C905 1.389 . S
C904 H877 0.950 . S
C904 C890 1.377 . S
C904 C903 1.373 . S
C905 C889 1.377 . S
C905 C903 1.389 . S
C905 C906 1.524 . S
C906 C905 1.524 . S
C906 C907 1.397 . S
C906 C911 1.363 . S
C907 H878 0.950 . S
C907 C906 1.397 . S
C907 C908 1.334 . S
C908 H879 0.950 . S
C908 C907 1.334 . S
C908 C909 1.287 . S
C909 C908 1.287 . S
C909 C910 1.524 . S
C909 H912 0.999 . S
C910 H880 0.950 . S
C910 C909 1.524 . S
C910 C911 1.415 . S
C911 H881 0.950 . S
C911 C906 1.363 . S
C911 C910 1.415 . S
H912 C909 0.999 . S
H913 C894 0.913 1_556 S
H914 C932 0.951 . S
H915 C934 0.951 . S
H916 C936 0.950 . S
H917 C937 0.950 . S
H918 C939 0.950 . S
H919 C942 0.950 . S
H920 C943 0.950 . S
H921 C945 0.950 . S
H922 C946 0.950 . S
H923 C947 0.951 . S
H924 C949 0.951 . S
H925 C951 0.950 . S
H926 C952 0.950 . S
H927 C954 0.950 . S
H928 C957 0.950 . S
H929 C958 0.950 . S
H930 C960 0.950 . S
H931 C961 0.950 . S
C932 H914 0.951 . S
C932 C933 1.366 . S
C932 C934 1.388 . S
C933 C932 1.366 . S
C933 C937 1.385 . S
C934 H915 0.951 . S
C934 C932 1.388 . S
C934 C935 1.366 . S
C935 C934 1.366 . S
C935 C936 1.414 . S
C935 C938 1.499 . S
C936 H916 0.950 . S
C936 C935 1.414 . S
C936 C937 1.374 . S
C937 H917 0.950 . S
C937 C933 1.385 . S
C937 C936 1.374 . S
C938 C935 1.499 . S
C938 C939 1.373 . S
C938 C940 1.389 . S
C939 H918 0.950 . S
C939 C938 1.373 . S
C939 C955 1.377 . S
C940 C938 1.389 . S
C940 C941 1.524 . S
C940 C954 1.377 . S
C941 C940 1.524 . S
C941 C942 1.397 . S
C941 C946 1.363 . S
C942 H919 0.950 . S
C942 C941 1.397 . S
C942 C943 1.334 . S
C943 H920 0.950 . S
C943 C942 1.334 . S
C943 C944 1.287 . S
C944 C943 1.287 . S
C944 C945 1.524 . S
C944 H963 0.913 . S
C945 H921 0.950 . S
C945 C944 1.524 . S
C945 C946 1.415 . S
C946 H922 0.950 . S
C946 C941 1.363 . S
C946 C945 1.415 . S
C947 H923 0.951 . S
C947 C948 1.366 . S
C947 C949 1.388 . S
C948 C947 1.366 . S
C948 C952 1.385 . S
C949 H924 0.951 . S
C949 C947 1.388 . S
C949 C950 1.366 . S
C950 C949 1.366 . S
C950 C951 1.414 . S
C950 C953 1.499 . S
C951 H925 0.950 . S
C951 C950 1.414 . S
C951 C952 1.374 . S
C952 H926 0.950 . S
C952 C948 1.385 . S
C952 C951 1.374 . S
C953 C950 1.499 . S
C953 C954 1.373 . S
C953 C955 1.389 . S
C954 H927 0.950 . S
C954 C940 1.377 . S
C954 C953 1.373 . S
C955 C939 1.377 . S
C955 C953 1.389 . S
C955 C956 1.524 . S
C956 C955 1.524 . S
C956 C957 1.397 . S
C956 C961 1.363 . S
C957 H928 0.950 . S
C957 C956 1.397 . S
C957 C958 1.334 . S
C958 H929 0.950 . S
C958 C957 1.334 . S
C958 C959 1.287 . S
C959 C958 1.287 . S
C959 C960 1.524 . S
C959 H962 0.999 . S
C960 H930 0.950 . S
C960 C959 1.524 . S
C960 C961 1.415 . S
C961 H931 0.950 . S
C961 C956 1.363 . S
C961 C960 1.415 . S
H962 C959 0.999 . S
H963 C944 0.913 . S
H964 C982 0.951 . S
H965 C984 0.951 . S
H966 C986 0.950 . S
H967 C987 0.950 . S
H968 C989 0.950 . S
H969 C992 0.950 . S
H970 C993 0.950 . S
H971 C995 0.950 . S
H972 C996 0.950 . S
H973 C997 0.951 . S
H974 C999 0.951 . S
H975 C1001 0.950 . S
H976 C1002 0.950 . S
H977 C1004 0.950 . S
H978 C1007 0.950 . S
H979 C1008 0.950 . S
H980 C1010 0.950 . S
H981 C1011 0.950 . S
C982 H964 0.951 . S
C982 C983 1.366 . S
C982 C984 1.388 . S
C983 C982 1.366 . S
C983 C987 1.385 . S
C984 H965 0.951 . S
C984 C982 1.388 . S
C984 C985 1.366 . S
C985 C984 1.366 . S
C985 C986 1.414 . S
C985 C988 1.499 . S
C986 H966 0.950 . S
C986 C985 1.414 . S
C986 C987 1.374 . S
C987 H967 0.950 . S
C987 C983 1.385 . S
C987 C986 1.374 . S
C988 C985 1.499 . S
C988 C989 1.373 . S
C988 C990 1.389 . S
C989 H968 0.950 . S
C989 C988 1.373 . S
C989 C1005 1.377 . S
C990 C988 1.389 . S
C990 C991 1.524 . S
C990 C1004 1.377 . S
C991 C990 1.524 . S
C991 C992 1.397 . S
C991 C996 1.363 . S
C992 H969 0.950 . S
C992 C991 1.397 . S
C992 C993 1.334 . S
C993 H970 0.950 . S
C993 C992 1.334 . S
C993 C994 1.287 . S
C994 C993 1.287 . S
C994 C995 1.524 . S
C994 H1013 0.913 . S
C995 H971 0.950 . S
C995 C994 1.524 . S
C995 C996 1.415 . S
C996 H972 0.950 . S
C996 C991 1.363 . S
C996 C995 1.415 . S
C997 H973 0.951 . S
C997 C998 1.366 . S
C997 C999 1.388 . S
C998 C997 1.366 . S
C998 C1002 1.385 . S
C999 H974 0.951 . S
C999 C997 1.388 . S
C999 C1000 1.366 . S
C1000 C999 1.366 . S
C1000 C1001 1.414 . S
C1000 C1003 1.499 . S
C1001 H975 0.950 . S
C1001 C1000 1.414 . S
C1001 C1002 1.374 . S
C1002 H976 0.950 . S
C1002 C998 1.385 . S
C1002 C1001 1.374 . S
C1003 C1000 1.499 . S
C1003 C1004 1.373 . S
C1003 C1005 1.389 . S
C1004 H977 0.950 . S
C1004 C990 1.377 . S
C1004 C1003 1.373 . S
C1005 C989 1.377 . S
C1005 C1003 1.389 . S
C1005 C1006 1.524 . S
C1006 C1005 1.524 . S
C1006 C1007 1.397 . S
C1006 C1011 1.363 . S
C1007 H978 0.950 . S
C1007 C1006 1.397 . S
C1007 C1008 1.334 . S
C1008 H979 0.950 . S
C1008 C1007 1.334 . S
C1008 C1009 1.287 . S
C1009 C1008 1.287 . S
C1009 C1010 1.524 . S
C1009 H1012 0.999 . S
C1010 H980 0.950 . S
C1010 C1009 1.524 . S
C1010 C1011 1.415 . S
C1011 H981 0.950 . S
C1011 C1006 1.363 . S
C1011 C1010 1.415 . S
H1012 C1009 0.999 . S
H1013 C994 0.913 . S
H1014 C1032 0.951 . S
H1015 C1034 0.951 . S
H1016 C1036 0.950 . S
H1017 C1037 0.950 . S
H1018 C1039 0.950 . S
H1019 C1042 0.950 . S
H1020 C1043 0.950 . S
H1021 C1045 0.950 . S
H1022 C1046 0.950 . S
H1023 C1047 0.951 . S
H1024 C1049 0.951 . S
H1025 C1051 0.950 . S
H1026 C1052 0.950 . S
H1027 C1054 0.950 . S
H1028 C1057 0.950 . S
H1029 C1058 0.950 . S
H1030 C1060 0.950 . S
H1031 C1061 0.950 . S
C1032 H1014 0.951 . S
C1032 C1033 1.366 . S
C1032 C1034 1.388 . S
C1033 C1032 1.366 . S
C1033 C1037 1.385 . S
C1034 H1015 0.951 . S
C1034 C1032 1.388 . S
C1034 C1035 1.366 . S
C1035 C1034 1.366 . S
C1035 C1036 1.414 . S
C1035 C1038 1.499 . S
C1036 H1016 0.950 . S
C1036 C1035 1.414 . S
C1036 C1037 1.374 . S
C1037 H1017 0.950 . S
C1037 C1033 1.385 . S
C1037 C1036 1.374 . S
C1038 C1035 1.499 . S
C1038 C1039 1.373 . S
C1038 C1040 1.389 . S
C1039 H1018 0.950 . S
C1039 C1038 1.373 . S
C1039 C1055 1.377 . S
C1040 C1038 1.389 . S
C1040 C1041 1.524 . S
C1040 C1054 1.377 . S
C1041 C1040 1.524 . S
C1041 C1042 1.397 . S
C1041 C1046 1.363 . S
C1042 H1019 0.950 . S
C1042 C1041 1.397 . S
C1042 C1043 1.334 . S
C1043 H1020 0.950 . S
C1043 C1042 1.334 . S
C1043 C1044 1.287 . S
C1044 C1043 1.287 . S
C1044 C1045 1.524 . S
C1044 H1063 0.913 . S
C1045 H1021 0.950 . S
C1045 C1044 1.524 . S
C1045 C1046 1.415 . S
C1046 H1022 0.950 . S
C1046 C1041 1.363 . S
C1046 C1045 1.415 . S
C1047 H1023 0.951 . S
C1047 C1048 1.366 . S
C1047 C1049 1.388 . S
C1048 C1047 1.366 . S
C1048 C1052 1.385 . S
C1049 H1024 0.951 . S
C1049 C1047 1.388 . S
C1049 C1050 1.366 . S
C1050 C1049 1.366 . S
C1050 C1051 1.414 . S
C1050 C1053 1.499 . S
C1051 H1025 0.950 . S
C1051 C1050 1.414 . S
C1051 C1052 1.374 . S
C1052 H1026 0.950 . S
C1052 C1048 1.385 . S
C1052 C1051 1.374 . S
C1053 C1050 1.499 . S
C1053 C1054 1.373 . S
C1053 C1055 1.389 . S
C1054 H1027 0.950 . S
C1054 C1040 1.377 . S
C1054 C1053 1.373 . S
C1055 C1039 1.377 . S
C1055 C1053 1.389 . S
C1055 C1056 1.524 . S
C1056 C1055 1.524 . S
C1056 C1057 1.397 . S
C1056 C1061 1.363 . S
C1057 H1028 0.950 . S
C1057 C1056 1.397 . S
C1057 C1058 1.334 1_545 S
C1058 H1029 0.950 . S
C1058 C1057 1.334 1_565 S
C1058 C1059 1.287 . S
C1059 C1058 1.287 . S
C1059 C1060 1.524 1_565 S
C1059 H1062 0.999 . S
C1060 H1030 0.950 . S
C1060 C1059 1.524 1_545 S
C1060 C1061 1.415 . S
C1061 H1031 0.950 . S
C1061 C1056 1.363 . S
C1061 C1060 1.415 . S
H1062 C1059 0.999 . S
H1063 C1044 0.913 . S
H1064 C1082 0.951 . S
H1065 C1084 0.951 . S
H1066 C1086 0.950 . S
H1067 C1087 0.950 . S
H1068 C1089 0.950 . S
H1069 C1092 0.950 . S
H1070 C1093 0.950 . S
H1071 C1095 0.950 . S
H1072 C1096 0.950 . S
H1073 C1097 0.951 . S
H1074 C1099 0.951 . S
H1075 C1101 0.950 . S
H1076 C1102 0.950 . S
H1077 C1104 0.950 . S
H1078 C1107 0.950 . S
H1079 C1108 0.950 . S
H1080 C1110 0.950 . S
H1081 C1111 0.950 . S
C1082 H1064 0.951 . S
C1082 C1083 1.366 . S
C1082 C1084 1.388 . S
C1083 C1082 1.366 . S
C1083 C1087 1.385 . S
C1084 H1065 0.951 . S
C1084 C1082 1.388 . S
C1084 C1085 1.366 . S
C1085 C1084 1.366 . S
C1085 C1086 1.414 . S
C1085 C1088 1.499 . S
C1086 H1066 0.950 . S
C1086 C1085 1.414 . S
C1086 C1087 1.374 . S
C1087 H1067 0.950 . S
C1087 C1083 1.385 . S
C1087 C1086 1.374 . S
C1088 C1085 1.499 . S
C1088 C1089 1.373 . S
C1088 C1090 1.389 . S
C1089 H1068 0.950 . S
C1089 C1088 1.373 . S
C1089 C1105 1.377 . S
C1090 C1088 1.389 . S
C1090 C1091 1.524 . S
C1090 C1104 1.377 . S
C1091 C1090 1.524 . S
C1091 C1092 1.397 . S
C1091 C1096 1.363 . S
C1092 H1069 0.950 . S
C1092 C1091 1.397 . S
C1092 C1093 1.334 . S
C1093 H1070 0.950 . S
C1093 C1092 1.334 . S
C1093 C1094 1.287 . S
C1094 C1093 1.287 . S
C1094 C1095 1.524 . S
C1094 H1113 0.913 . S
C1095 H1071 0.950 . S
C1095 C1094 1.524 . S
C1095 C1096 1.415 . S
C1096 H1072 0.950 . S
C1096 C1091 1.363 . S
C1096 C1095 1.415 . S
C1097 H1073 0.951 . S
C1097 C1098 1.366 . S
C1097 C1099 1.388 . S
C1098 C1097 1.366 . S
C1098 C1102 1.385 . S
C1099 H1074 0.951 . S
C1099 C1097 1.388 . S
C1099 C1100 1.366 . S
C1100 C1099 1.366 . S
C1100 C1101 1.414 . S
C1100 C1103 1.499 . S
C1101 H1075 0.950 . S
C1101 C1100 1.414 . S
C1101 C1102 1.374 . S
C1102 H1076 0.950 . S
C1102 C1098 1.385 . S
C1102 C1101 1.374 . S
C1103 C1100 1.499 . S
C1103 C1104 1.373 . S
C1103 C1105 1.389 . S
C1104 H1077 0.950 . S
C1104 C1090 1.377 . S
C1104 C1103 1.373 . S
C1105 C1089 1.377 . S
C1105 C1103 1.389 . S
C1105 C1106 1.524 . S
C1106 C1105 1.524 . S
C1106 C1107 1.397 . S
C1106 C1111 1.363 . S
C1107 H1078 0.950 . S
C1107 C1106 1.397 . S
C1107 C1108 1.334 . S
C1108 H1079 0.950 . S
C1108 C1107 1.334 . S
C1108 C1109 1.287 . S
C1109 C1108 1.287 . S
C1109 C1110 1.524 . S
C1109 H1112 0.999 . S
C1110 H1080 0.950 . S
C1110 C1109 1.524 . S
C1110 C1111 1.415 . S
C1111 H1081 0.950 . S
C1111 C1106 1.363 . S
C1111 C1110 1.415 . S
H1112 C1109 0.999 . S
H1113 C1094 0.913 . S
H1114 C1132 0.951 . S
H1115 C1134 0.951 . S
H1116 C1136 0.950 . S
H1117 C1137 0.950 . S
H1118 C1139 0.950 . S
H1119 C1142 0.950 . S
H1120 C1143 0.946 1_545 S
H1121 C1145 0.950 . S
H1122 C1146 0.950 . S
H1123 C1147 0.951 . S
H1124 C1149 0.951 . S
H1125 C1151 0.950 . S
H1126 C1152 0.950 . S
H1127 C1154 0.950 . S
H1128 C1157 0.950 . S
H1129 C1158 0.950 . S
H1130 C1160 0.950 . S
H1131 C1161 0.950 . S
C1132 H1114 0.951 . S
C1132 C1133 1.366 . S
C1132 C1134 1.388 . S
C1133 C1132 1.366 . S
C1133 C1137 1.385 . S
C1134 H1115 0.951 . S
C1134 C1132 1.388 . S
C1134 C1135 1.366 . S
C1135 C1134 1.366 . S
C1135 C1136 1.414 . S
C1135 C1138 1.499 . S
C1136 H1116 0.950 . S
C1136 C1135 1.414 . S
C1136 C1137 1.374 . S
C1137 H1117 0.950 . S
C1137 C1133 1.385 . S
C1137 C1136 1.374 . S
C1138 C1135 1.499 . S
C1138 C1139 1.373 . S
C1138 C1140 1.389 . S
C1139 H1118 0.950 . S
C1139 C1138 1.373 . S
C1139 C1155 1.377 . S
C1140 C1138 1.389 . S
C1140 C1141 1.524 . S
C1140 C1154 1.377 . S
C1141 C1140 1.524 . S
C1141 C1142 1.397 . S
C1141 C1146 1.363 . S
C1142 H1119 0.950 . S
C1142 C1141 1.397 . S
C1142 C1143 1.338 . S
C1143 H1120 0.946 1_565 S
C1143 C1142 1.338 . S
C1143 C1144 1.288 . S
C1144 C1143 1.288 . S
C1144 C1145 1.524 . S
C1144 H1163 0.913 1_565 S
C1145 H1121 0.950 . S
C1145 C1144 1.524 . S
C1145 C1146 1.415 . S
C1146 H1122 0.950 . S
C1146 C1141 1.363 . S
C1146 C1145 1.415 . S
C1147 H1123 0.951 . S
C1147 C1148 1.366 . S
C1147 C1149 1.388 . S
C1148 C1147 1.366 . S
C1148 C1152 1.385 . S
C1149 H1124 0.951 . S
C1149 C1147 1.388 . S
C1149 C1150 1.366 . S
C1150 C1149 1.366 . S
C1150 C1151 1.414 . S
C1150 C1153 1.499 . S
C1151 H1125 0.950 . S
C1151 C1150 1.414 . S
C1151 C1152 1.374 . S
C1152 H1126 0.950 . S
C1152 C1148 1.385 . S
C1152 C1151 1.374 . S
C1153 C1150 1.499 . S
C1153 C1154 1.373 . S
C1153 C1155 1.389 . S
C1154 H1127 0.950 . S
C1154 C1140 1.377 . S
C1154 C1153 1.373 . S
C1155 C1139 1.377 . S
C1155 C1153 1.389 . S
C1155 C1156 1.524 . S
C1156 C1155 1.524 . S
C1156 C1157 1.397 . S
C1156 C1161 1.363 . S
C1157 H1128 0.950 . S
C1157 C1156 1.397 . S
C1157 C1158 1.334 . S
C1158 H1129 0.950 . S
C1158 C1157 1.334 . S
C1158 C1159 1.287 . S
C1159 C1158 1.287 . S
C1159 C1160 1.524 . S
C1159 H1162 0.999 . S
C1160 H1130 0.950 . S
C1160 C1159 1.524 . S
C1160 C1161 1.415 . S
C1161 H1131 0.950 . S
C1161 C1156 1.363 . S
C1161 C1160 1.415 . S
H1162 C1159 0.999 . S
H1163 C1144 0.913 1_545 S
H1164 C1182 0.951 . S
H1165 C1184 0.951 . S
H1166 C1186 0.950 . S
H1167 C1187 0.950 . S
H1168 C1189 0.950 . S
H1169 C1192 0.950 . S
H1170 C1193 0.950 . S
H1171 C1195 0.950 . S
H1172 C1196 0.950 . S
H1173 C1197 0.951 . S
H1174 C1199 0.951 . S
H1175 C1201 0.950 . S
H1176 C1202 0.950 . S
H1177 C1204 0.950 . S
H1178 C1207 0.950 . S
H1179 C1208 0.950 . S
H1180 C1210 0.950 . S
H1181 C1211 0.950 . S
C1182 H1164 0.951 . S
C1182 C1183 1.366 . S
C1182 C1184 1.388 . S
C1183 C1182 1.366 . S
C1183 C1187 1.385 . S
C1184 H1165 0.951 . S
C1184 C1182 1.388 . S
C1184 C1185 1.366 . S
C1185 C1184 1.366 . S
C1185 C1186 1.414 . S
C1185 C1188 1.499 . S
C1186 H1166 0.950 . S
C1186 C1185 1.414 . S
C1186 C1187 1.374 . S
C1187 H1167 0.950 . S
C1187 C1183 1.385 . S
C1187 C1186 1.374 . S
C1188 C1185 1.499 . S
C1188 C1189 1.373 . S
C1188 C1190 1.389 . S
C1189 H1168 0.950 . S
C1189 C1188 1.373 . S
C1189 C1205 1.377 . S
C1190 C1188 1.389 . S
C1190 C1191 1.524 . S
C1190 C1204 1.377 . S
C1191 C1190 1.524 . S
C1191 C1192 1.397 . S
C1191 C1196 1.363 . S
C1192 H1169 0.950 . S
C1192 C1191 1.397 . S
C1192 C1193 1.334 . S
C1193 H1170 0.950 . S
C1193 C1192 1.334 . S
C1193 C1194 1.287 . S
C1194 C1193 1.287 . S
C1194 C1195 1.524 . S
C1194 H1213 0.913 . S
C1195 H1171 0.950 . S
C1195 C1194 1.524 . S
C1195 C1196 1.415 . S
C1196 H1172 0.950 . S
C1196 C1191 1.363 . S
C1196 C1195 1.415 . S
C1197 H1173 0.951 . S
C1197 C1198 1.366 . S
C1197 C1199 1.388 . S
C1198 C1197 1.366 . S
C1198 C1202 1.385 . S
C1199 H1174 0.951 . S
C1199 C1197 1.388 . S
C1199 C1200 1.366 . S
C1200 C1199 1.366 . S
C1200 C1201 1.414 . S
C1200 C1203 1.499 . S
C1201 H1175 0.950 . S
C1201 C1200 1.414 . S
C1201 C1202 1.374 . S
C1202 H1176 0.950 . S
C1202 C1198 1.385 . S
C1202 C1201 1.374 . S
C1203 C1200 1.499 . S
C1203 C1204 1.373 . S
C1203 C1205 1.389 . S
C1204 H1177 0.950 . S
C1204 C1190 1.377 . S
C1204 C1203 1.373 . S
C1205 C1189 1.377 . S
C1205 C1203 1.389 . S
C1205 C1206 1.524 . S
C1206 C1205 1.524 . S
C1206 C1207 1.397 . S
C1206 C1211 1.363 . S
C1207 H1178 0.950 . S
C1207 C1206 1.397 . S
C1207 C1208 1.334 . S
C1208 H1179 0.950 . S
C1208 C1207 1.334 . S
C1208 C1209 1.287 . S
C1209 C1208 1.287 . S
C1209 C1210 1.524 . S
C1209 H1212 0.999 . S
C1210 H1180 0.950 . S
C1210 C1209 1.524 . S
C1210 C1211 1.415 . S
C1211 H1181 0.950 . S
C1211 C1206 1.363 . S
C1211 C1210 1.415 . S
H1212 C1209 0.999 . S
H1213 C1194 0.913 . S
H1214 C1232 0.951 . S
H1215 C1234 0.951 . S
H1216 C1236 0.950 . S
H1217 C1237 0.950 1_565 S
H1218 C1239 0.950 . S
H1219 C1242 0.950 . S
H1220 C1243 0.950 . S
H1221 C1245 0.950 . S
H1222 C1246 0.950 . S
H1223 C1247 0.951 . S
H1224 C1249 0.951 . S
H1225 C1251 0.950 . S
H1226 C1252 0.950 . S
H1227 C1254 0.950 . S
H1228 C1257 0.950 . S
H1229 C1258 0.950 . S
H1230 C1260 0.950 . S
H1231 C1261 0.950 . S
C1232 H1214 0.951 . S
C1232 C1233 1.366 . S
C1232 C1234 1.388 . S
C1233 C1232 1.366 . S
C1233 C1237 1.385 . S
C1234 H1215 0.951 . S
C1234 C1232 1.388 . S
C1234 C1235 1.366 . S
C1235 C1234 1.366 . S
C1235 C1236 1.414 . S
C1235 C1238 1.499 . S
C1236 H1216 0.950 . S
C1236 C1235 1.414 . S
C1236 C1237 1.374 . S
C1237 H1217 0.950 1_545 S
C1237 C1233 1.385 . S
C1237 C1236 1.374 . S
C1238 C1235 1.499 . S
C1238 C1239 1.373 . S
C1238 C1240 1.389 . S
C1239 H1218 0.950 . S
C1239 C1238 1.373 . S
C1239 C1255 1.377 . S
C1240 C1238 1.389 . S
C1240 C1241 1.524 . S
C1240 C1254 1.377 . S
C1241 C1240 1.524 . S
C1241 C1242 1.397 . S
C1241 C1246 1.363 . S
C1242 H1219 0.950 . S
C1242 C1241 1.397 . S
C1242 C1243 1.334 1_455 S
C1243 H1220 0.950 . S
C1243 C1242 1.334 1_655 S
C1243 C1244 1.287 . S
C1244 C1243 1.287 . S
C1244 C1245 1.524 . S
C1244 H1263 0.913 . S
C1245 H1221 0.950 . S
C1245 C1244 1.524 . S
C1245 C1246 1.415 1_655 S
C1246 H1222 0.950 . S
C1246 C1241 1.363 . S
C1246 C1245 1.415 1_455 S
C1247 H1223 0.951 . S
C1247 C1248 1.366 . S
C1247 C1249 1.388 . S
C1248 C1247 1.366 . S
C1248 C1252 1.385 . S
C1249 H1224 0.951 . S
C1249 C1247 1.388 . S
C1249 C1250 1.366 . S
C1250 C1249 1.366 . S
C1250 C1251 1.414 . S
C1250 C1253 1.499 . S
C1251 H1225 0.950 . S
C1251 C1250 1.414 . S
C1251 C1252 1.374 . S
C1252 H1226 0.950 . S
C1252 C1248 1.385 . S
C1252 C1251 1.374 . S
C1253 C1250 1.499 . S
C1253 C1254 1.373 . S
C1253 C1255 1.389 . S
C1254 H1227 0.950 . S
C1254 C1240 1.377 . S
C1254 C1253 1.373 . S
C1255 C1239 1.377 . S
C1255 C1253 1.389 . S
C1255 C1256 1.524 . S
C1256 C1255 1.524 . S
C1256 C1257 1.397 . S
C1256 C1261 1.363 . S
C1257 H1228 0.950 . S
C1257 C1256 1.397 . S
C1257 C1258 1.334 . S
C1258 H1229 0.950 . S
C1258 C1257 1.334 . S
C1258 C1259 1.287 . S
C1259 C1258 1.287 . S
C1259 C1260 1.524 . S
C1259 H1262 0.999 . S
C1260 H1230 0.950 . S
C1260 C1259 1.524 . S
C1260 C1261 1.415 . S
C1261 H1231 0.950 . S
C1261 C1256 1.363 . S
C1261 C1260 1.415 . S
H1262 C1259 0.999 . S
H1263 C1244 0.913 . S
H1264 C1282 0.951 . S
H1265 C1284 0.951 . S
H1266 C1286 0.950 . S
H1267 C1287 0.950 . S
H1268 C1289 0.950 . S
H1269 C1292 0.950 . S
H1270 C1293 0.950 . S
H1271 C1295 0.950 . S
H1272 C1296 0.950 . S
H1273 C1297 0.951 . S
H1274 C1299 0.951 . S
H1275 C1301 0.950 . S
H1276 C1302 0.950 . S
H1277 C1304 0.950 . S
H1278 C1307 0.950 . S
H1279 C1308 0.950 . S
H1280 C1310 0.950 . S
H1281 C1311 0.950 . S
C1282 H1264 0.951 . S
C1282 C1283 1.366 . S
C1282 C1284 1.388 . S
C1283 C1282 1.366 . S
C1283 C1287 1.385 . S
C1284 H1265 0.951 . S
C1284 C1282 1.388 . S
C1284 C1285 1.366 . S
C1285 C1284 1.366 . S
C1285 C1286 1.414 . S
C1285 C1288 1.499 . S
C1286 H1266 0.950 . S
C1286 C1285 1.414 . S
C1286 C1287 1.374 . S
C1287 H1267 0.950 . S
C1287 C1283 1.385 . S
C1287 C1286 1.374 . S
C1288 C1285 1.499 . S
C1288 C1289 1.373 . S
C1288 C1290 1.389 . S
C1289 H1268 0.950 . S
C1289 C1288 1.373 . S
C1289 C1305 1.377 . S
C1290 C1288 1.389 . S
C1290 C1291 1.524 . S
C1290 C1304 1.377 . S
C1291 C1290 1.524 . S
C1291 C1292 1.397 . S
C1291 C1296 1.363 . S
C1292 H1269 0.950 . S
C1292 C1291 1.397 . S
C1292 C1293 1.334 . S
C1293 H1270 0.950 . S
C1293 C1292 1.334 . S
C1293 C1294 1.287 . S
C1294 C1293 1.287 . S
C1294 C1295 1.524 . S
C1294 H1313 0.913 . S
C1295 H1271 0.950 . S
C1295 C1294 1.524 . S
C1295 C1296 1.415 . S
C1296 H1272 0.950 . S
C1296 C1291 1.363 . S
C1296 C1295 1.415 . S
C1297 H1273 0.951 . S
C1297 C1298 1.366 . S
C1297 C1299 1.388 . S
C1298 C1297 1.366 . S
C1298 C1302 1.385 . S
C1299 H1274 0.951 . S
C1299 C1297 1.388 . S
C1299 C1300 1.366 . S
C1300 C1299 1.366 . S
C1300 C1301 1.414 . S
C1300 C1303 1.499 . S
C1301 H1275 0.950 . S
C1301 C1300 1.414 . S
C1301 C1302 1.374 . S
C1302 H1276 0.950 . S
C1302 C1298 1.385 . S
C1302 C1301 1.374 . S
C1303 C1300 1.499 . S
C1303 C1304 1.373 . S
C1303 C1305 1.389 . S
C1304 H1277 0.950 . S
C1304 C1290 1.377 . S
C1304 C1303 1.373 . S
C1305 C1289 1.377 . S
C1305 C1303 1.389 . S
C1305 C1306 1.524 . S
C1306 C1305 1.524 . S
C1306 C1307 1.397 . S
C1306 C1311 1.363 . S
C1307 H1278 0.950 . S
C1307 C1306 1.397 . S
C1307 C1308 1.334 . S
C1308 H1279 0.950 . S
C1308 C1307 1.334 . S
C1308 C1309 1.287 . S
C1309 C1308 1.287 . S
C1309 C1310 1.524 . S
C1309 H1312 0.999 . S
C1310 H1280 0.950 . S
C1310 C1309 1.524 . S
C1310 C1311 1.415 . S
C1311 H1281 0.950 . S
C1311 C1306 1.363 . S
C1311 C1310 1.415 . S
H1312 C1309 0.999 . S
H1313 C1294 0.913 . S
H1314 C1332 0.951 . S
H1315 C1334 0.951 . S
H1316 C1336 0.950 . S
H1317 C1337 0.950 . S
H1318 C1339 0.950 . S
H1319 C1342 0.950 . S
H1320 C1343 0.950 . S
H1321 C1345 0.950 . S
H1322 C1346 0.950 . S
H1323 C1347 0.951 . S
H1324 C1349 0.951 . S
H1325 C1351 0.950 . S
H1326 C1352 0.950 . S
H1327 C1354 0.950 . S
H1328 C1357 0.950 . S
H1329 C1358 0.950 1_565 S
H1330 C1360 0.950 . S
H1331 C1361 0.950 . S
C1332 H1314 0.951 . S
C1332 C1333 1.366 . S
C1332 C1334 1.388 . S
C1333 C1332 1.366 . S
C1333 C1337 1.385 . S
C1334 H1315 0.951 . S
C1334 C1332 1.388 . S
C1334 C1335 1.366 . S
C1335 C1334 1.366 . S
C1335 C1336 1.414 . S
C1335 C1338 1.499 . S
C1336 H1316 0.950 . S
C1336 C1335 1.414 . S
C1336 C1337 1.374 . S
C1337 H1317 0.950 . S
C1337 C1333 1.385 . S
C1337 C1336 1.374 . S
C1338 C1335 1.499 . S
C1338 C1339 1.373 . S
C1338 C1340 1.389 . S
C1339 H1318 0.950 . S
C1339 C1338 1.373 . S
C1339 C1355 1.377 . S
C1340 C1338 1.389 . S
C1340 C1341 1.524 . S
C1340 C1354 1.377 . S
C1341 C1340 1.524 . S
C1341 C1342 1.397 . S
C1341 C1346 1.363 . S
C1342 H1319 0.950 . S
C1342 C1341 1.397 . S
C1342 C1343 1.334 . S
C1343 H1320 0.950 . S
C1343 C1342 1.334 . S
C1343 C1344 1.287 . S
C1344 C1343 1.287 . S
C1344 C1345 1.524 . S
C1344 H1363 0.913 . S
C1345 H1321 0.950 . S
C1345 C1344 1.524 . S
C1345 C1346 1.415 . S
C1346 H1322 0.950 . S
C1346 C1341 1.363 . S
C1346 C1345 1.415 . S
C1347 H1323 0.951 . S
C1347 C1348 1.366 1_545 S
C1347 C1349 1.388 . S
C1348 C1347 1.366 1_565 S
C1348 C1352 1.385 . S
C1349 H1324 0.951 . S
C1349 C1347 1.388 . S
C1349 C1350 1.366 . S
C1350 C1349 1.366 . S
C1350 C1351 1.414 1_545 S
C1350 C1353 1.499 . S
C1351 H1325 0.950 . S
C1351 C1350 1.414 1_565 S
C1351 C1352 1.374 . S
C1352 H1326 0.950 . S
C1352 C1348 1.385 . S
C1352 C1351 1.374 . S
C1353 C1350 1.499 . S
C1353 C1354 1.373 . S
C1353 C1355 1.389 . S
C1354 H1327 0.950 . S
C1354 C1340 1.377 . S
C1354 C1353 1.373 . S
C1355 C1339 1.377 . S
C1355 C1353 1.389 . S
C1355 C1356 1.524 . S
C1356 C1355 1.524 . S
C1356 C1357 1.397 . S
C1356 C1361 1.363 . S
C1357 H1328 0.950 . S
C1357 C1356 1.397 . S
C1357 C1358 1.334 1_655 S
C1358 H1329 0.950 1_545 S
C1358 C1357 1.334 1_455 S
C1358 C1359 1.287 . S
C1359 C1358 1.287 . S
C1359 C1360 1.524 . S
C1359 H1362 0.999 . S
C1360 H1330 0.950 . S
C1360 C1359 1.524 . S
C1360 C1361 1.415 1_455 S
C1361 H1331 0.950 . S
C1361 C1356 1.363 . S
C1361 C1360 1.415 1_655 S
H1362 C1359 0.999 . S
H1363 C1344 0.913 . S
H1364 C1382 0.951 . S
H1365 C1384 0.951 . S
H1366 C1386 0.950 . S
H1367 C1387 0.950 . S
H1368 C1389 0.950 . S
H1369 C1392 0.950 . S
H1370 C1393 0.950 . S
H1371 C1395 0.950 . S
H1372 C1396 0.950 . S
H1373 C1397 0.951 . S
H1374 C1399 0.951 . S
H1375 C1401 0.950 . S
H1376 C1402 0.950 . S
H1377 C1404 0.950 . S
H1378 C1407 0.950 . S
H1379 C1408 0.950 . S
H1380 C1410 0.950 . S
H1381 C1411 0.950 . S
C1382 H1364 0.951 . S
C1382 C1383 1.366 . S
C1382 C1384 1.388 . S
C1383 C1382 1.366 . S
C1383 C1387 1.385 . S
C1384 H1365 0.951 . S
C1384 C1382 1.388 . S
C1384 C1385 1.366 . S
C1385 C1384 1.366 . S
C1385 C1386 1.414 . S
C1385 C1388 1.499 . S
C1386 H1366 0.950 . S
C1386 C1385 1.414 . S
C1386 C1387 1.374 . S
C1387 H1367 0.950 . S
C1387 C1383 1.385 . S
C1387 C1386 1.374 . S
C1388 C1385 1.499 . S
C1388 C1389 1.373 . S
C1388 C1390 1.389 . S
C1389 H1368 0.950 . S
C1389 C1388 1.373 . S
C1389 C1405 1.377 . S
C1390 C1388 1.389 . S
C1390 C1391 1.524 . S
C1390 C1404 1.377 . S
C1391 C1390 1.524 . S
C1391 C1392 1.397 . S
C1391 C1396 1.363 . S
C1392 H1369 0.950 . S
C1392 C1391 1.397 . S
C1392 C1393 1.334 . S
C1393 H1370 0.950 . S
C1393 C1392 1.334 . S
C1393 C1394 1.287 . S
C1394 C1393 1.287 . S
C1394 C1395 1.524 . S
C1394 H1413 0.913 . S
C1395 H1371 0.950 . S
C1395 C1394 1.524 . S
C1395 C1396 1.415 . S
C1396 H1372 0.950 . S
C1396 C1391 1.363 . S
C1396 C1395 1.415 . S
C1397 H1373 0.951 . S
C1397 C1398 1.366 . S
C1397 C1399 1.388 . S
C1398 C1397 1.366 . S
C1398 C1402 1.385 . S
C1399 H1374 0.951 . S
C1399 C1397 1.388 . S
C1399 C1400 1.366 . S
C1400 C1399 1.366 . S
C1400 C1401 1.414 . S
C1400 C1403 1.499 . S
C1401 H1375 0.950 . S
C1401 C1400 1.414 . S
C1401 C1402 1.374 . S
C1402 H1376 0.950 . S
C1402 C1398 1.385 . S
C1402 C1401 1.374 . S
C1403 C1400 1.499 . S
C1403 C1404 1.373 . S
C1403 C1405 1.389 . S
C1404 H1377 0.950 . S
C1404 C1390 1.377 . S
C1404 C1403 1.373 . S
C1405 C1389 1.377 . S
C1405 C1403 1.389 . S
C1405 C1406 1.524 . S
C1406 C1405 1.524 . S
C1406 C1407 1.397 . S
C1406 C1411 1.363 . S
C1407 H1378 0.950 . S
C1407 C1406 1.397 . S
C1407 C1408 1.334 . S
C1408 H1379 0.950 . S
C1408 C1407 1.334 . S
C1408 C1409 1.287 . S
C1409 C1408 1.287 . S
C1409 C1410 1.524 . S
C1409 H1412 0.999 . S
C1410 H1380 0.950 . S
C1410 C1409 1.524 . S
C1410 C1411 1.415 . S
C1411 H1381 0.950 . S
C1411 C1406 1.363 . S
C1411 C1410 1.415 . S
H1412 C1409 0.999 . S
H1413 C1394 0.913 . S
H1414 C1432 0.951 . S
H1415 C1434 0.951 . S
H1416 C1436 0.950 . S
H1417 C1437 0.950 . S
H1418 C1439 0.950 . S
H1419 C1442 0.950 . S
H1420 C1443 0.950 . S
H1421 C1445 0.950 . S
H1422 C1446 0.950 . S
H1423 C1447 0.951 . S
H1424 C1449 0.951 . S
H1425 C1451 0.950 . S
H1426 C1452 0.950 . S
H1427 C1454 0.950 . S
H1428 C1457 0.950 . S
H1429 C1458 0.950 . S
H1430 C1460 0.950 . S
H1431 C1461 0.950 . S
C1432 H1414 0.951 . S
C1432 C1433 1.366 . S
C1432 C1434 1.388 . S
C1433 C1432 1.366 . S
C1433 C1437 1.385 . S
C1434 H1415 0.951 . S
C1434 C1432 1.388 . S
C1434 C1435 1.366 . S
C1435 C1434 1.366 . S
C1435 C1436 1.414 . S
C1435 C1438 1.499 . S
C1436 H1416 0.950 . S
C1436 C1435 1.414 . S
C1436 C1437 1.374 . S
C1437 H1417 0.950 . S
C1437 C1433 1.385 . S
C1437 C1436 1.374 . S
C1438 C1435 1.499 . S
C1438 C1439 1.373 . S
C1438 C1440 1.389 . S
C1439 H1418 0.950 . S
C1439 C1438 1.373 . S
C1439 C1455 1.377 . S
C1440 C1438 1.389 . S
C1440 C1441 1.524 . S
C1440 C1454 1.377 . S
C1441 C1440 1.524 . S
C1441 C1442 1.397 . S
C1441 C1446 1.363 . S
C1442 H1419 0.950 . S
C1442 C1441 1.397 . S
C1442 C1443 1.334 . S
C1443 H1420 0.950 . S
C1443 C1442 1.334 . S
C1443 C1444 1.287 . S
C1444 C1443 1.287 . S
C1444 C1445 1.524 . S
C1444 H1463 0.913 . S
C1445 H1421 0.950 . S
C1445 C1444 1.524 . S
C1445 C1446 1.415 . S
C1446 H1422 0.950 . S
C1446 C1441 1.363 . S
C1446 C1445 1.415 . S
C1447 H1423 0.951 . S
C1447 C1448 1.366 . S
C1447 C1449 1.388 . S
C1448 C1447 1.366 . S
C1448 C1452 1.385 1_545 S
C1449 H1424 0.951 . S
C1449 C1447 1.388 . S
C1449 C1450 1.366 1_545 S
C1450 C1449 1.366 1_565 S
C1450 C1451 1.414 . S
C1450 C1453 1.499 . S
C1451 H1425 0.950 . S
C1451 C1450 1.414 . S
C1451 C1452 1.374 . S
C1452 H1426 0.950 . S
C1452 C1448 1.385 1_565 S
C1452 C1451 1.374 . S
C1453 C1450 1.499 . S
C1453 C1454 1.373 . S
C1453 C1455 1.389 . S
C1454 H1427 0.950 . S
C1454 C1440 1.377 . S
C1454 C1453 1.373 . S
C1455 C1439 1.377 . S
C1455 C1453 1.389 . S
C1455 C1456 1.524 . S
C1456 C1455 1.524 . S
C1456 C1457 1.397 . S
C1456 C1461 1.363 . S
C1457 H1428 0.950 . S
C1457 C1456 1.397 . S
C1457 C1458 1.334 . S
C1458 H1429 0.950 . S
C1458 C1457 1.334 . S
C1458 C1459 1.287 . S
C1459 C1458 1.287 . S
C1459 C1460 1.524 . S
C1459 H1462 0.999 . S
C1460 H1430 0.950 . S
C1460 C1459 1.524 . S
C1460 C1461 1.415 . S
C1461 H1431 0.950 . S
C1461 C1456 1.363 . S
C1461 C1460 1.415 . S
H1462 C1459 0.999 . S
H1463 C1444 0.913 . S
H1464 C1482 0.951 . S
H1465 C1484 0.951 . S
H1466 C1486 0.950 . S
H1467 C1487 0.950 . S
H1468 C1489 0.950 . S
H1469 C1492 0.950 . S
H1470 C1493 0.950 . S
H1471 C1495 0.950 . S
H1472 C1496 0.950 . S
H1473 C1497 0.951 . S
H1474 C1499 0.951 . S
H1475 C1501 0.950 . S
H1476 C1502 0.950 . S
H1477 C1504 0.950 . S
H1478 C1507 0.950 . S
H1479 C1508 0.950 . S
H1480 C1510 0.950 . S
H1481 C1511 0.950 . S
C1482 H1464 0.951 . S
C1482 C1483 1.366 . S
C1482 C1484 1.388 . S
C1483 C1482 1.366 . S
C1483 C1487 1.385 . S
C1484 H1465 0.951 . S
C1484 C1482 1.388 . S
C1484 C1485 1.366 . S
C1485 C1484 1.366 . S
C1485 C1486 1.414 . S
C1485 C1488 1.499 . S
C1486 H1466 0.950 . S
C1486 C1485 1.414 . S
C1486 C1487 1.374 . S
C1487 H1467 0.950 . S
C1487 C1483 1.385 . S
C1487 C1486 1.374 . S
C1488 C1485 1.499 . S
C1488 C1489 1.373 . S
C1488 C1490 1.389 . S
C1489 H1468 0.950 . S
C1489 C1488 1.373 . S
C1489 C1505 1.377 . S
C1490 C1488 1.389 . S
C1490 C1491 1.524 . S
C1490 C1504 1.377 . S
C1491 C1490 1.524 . S
C1491 C1492 1.397 . S
C1491 C1496 1.363 . S
C1492 H1469 0.950 . S
C1492 C1491 1.397 . S
C1492 C1493 1.334 . S
C1493 H1470 0.950 . S
C1493 C1492 1.334 . S
C1493 C1494 1.287 . S
C1494 C1493 1.287 . S
C1494 C1495 1.524 . S
C1494 H1513 0.913 . S
C1495 H1471 0.950 . S
C1495 C1494 1.524 . S
C1495 C1496 1.415 . S
C1496 H1472 0.950 . S
C1496 C1491 1.363 . S
C1496 C1495 1.415 . S
C1497 H1473 0.951 . S
C1497 C1498 1.366 . S
C1497 C1499 1.388 . S
C1498 C1497 1.366 . S
C1498 C1502 1.385 . S
C1499 H1474 0.951 . S
C1499 C1497 1.388 . S
C1499 C1500 1.366 . S
C1500 C1499 1.366 . S
C1500 C1501 1.414 . S
C1500 C1503 1.499 . S
C1501 H1475 0.950 . S
C1501 C1500 1.414 . S
C1501 C1502 1.374 . S
C1502 H1476 0.950 . S
C1502 C1498 1.385 . S
C1502 C1501 1.374 . S
C1503 C1500 1.499 . S
C1503 C1504 1.373 . S
C1503 C1505 1.389 . S
C1504 H1477 0.950 . S
C1504 C1490 1.377 . S
C1504 C1503 1.373 . S
C1505 C1489 1.377 . S
C1505 C1503 1.389 . S
C1505 C1506 1.524 . S
C1506 C1505 1.524 . S
C1506 C1507 1.397 . S
C1506 C1511 1.363 . S
C1507 H1478 0.950 . S
C1507 C1506 1.397 . S
C1507 C1508 1.334 . S
C1508 H1479 0.950 . S
C1508 C1507 1.334 . S
C1508 C1509 1.287 . S
C1509 C1508 1.287 . S
C1509 C1510 1.524 . S
C1509 H1512 0.999 . S
C1510 H1480 0.950 . S
C1510 C1509 1.524 . S
C1510 C1511 1.415 . S
C1511 H1481 0.950 . S
C1511 C1506 1.363 . S
C1511 C1510 1.415 . S
H1512 C1509 0.999 . S
H1513 C1494 0.913 . S
H1514 C1532 0.951 . S
H1515 C1534 0.951 . S
H1516 C1536 0.950 . S
H1517 C1537 0.950 . S
H1518 C1539 0.950 . S
H1519 C1542 0.950 . S
H1520 C1543 0.950 . S
H1521 C1545 0.950 . S
H1522 C1546 0.950 . S
H1523 C1547 0.951 . S
H1524 C1549 0.951 . S
H1525 C1551 0.950 . S
H1526 C1552 0.950 . S
H1527 C1554 0.950 . S
H1528 C1557 0.950 . S
H1529 C1558 0.950 . S
H1530 C1560 0.950 . S
H1531 C1561 0.950 . S
C1532 H1514 0.951 . S
C1532 C1533 1.366 . S
C1532 C1534 1.388 . S
C1533 C1532 1.366 . S
C1533 C1537 1.385 1_565 S
C1534 H1515 0.951 . S
C1534 C1532 1.388 . S
C1534 C1535 1.366 1_565 S
C1535 C1534 1.366 1_545 S
C1535 C1536 1.414 . S
C1535 C1538 1.499 . S
C1536 H1516 0.950 . S
C1536 C1535 1.414 . S
C1536 C1537 1.374 . S
C1537 H1517 0.950 . S
C1537 C1533 1.385 1_545 S
C1537 C1536 1.374 . S
C1538 C1535 1.499 . S
C1538 C1539 1.373 . S
C1538 C1540 1.389 . S
C1539 H1518 0.950 . S
C1539 C1538 1.373 . S
C1539 C1555 1.377 . S
C1540 C1538 1.389 . S
C1540 C1541 1.524 . S
C1540 C1554 1.377 . S
C1541 C1540 1.524 . S
C1541 C1542 1.397 . S
C1541 C1546 1.363 . S
C1542 H1519 0.950 . S
C1542 C1541 1.397 . S
C1542 C1543 1.334 . S
C1543 H1520 0.950 . S
C1543 C1542 1.334 . S
C1543 C1544 1.287 . S
C1544 C1543 1.287 . S
C1544 C1545 1.524 . S
C1544 H1563 0.913 . S
C1545 H1521 0.950 . S
C1545 C1544 1.524 . S
C1545 C1546 1.415 . S
C1546 H1522 0.950 . S
C1546 C1541 1.363 . S
C1546 C1545 1.415 . S
C1547 H1523 0.951 . S
C1547 C1548 1.366 . S
C1547 C1549 1.388 . S
C1548 C1547 1.366 . S
C1548 C1552 1.385 . S
C1549 H1524 0.951 . S
C1549 C1547 1.388 . S
C1549 C1550 1.366 . S
C1550 C1549 1.366 . S
C1550 C1551 1.414 . S
C1550 C1553 1.499 . S
C1551 H1525 0.950 . S
C1551 C1550 1.414 . S
C1551 C1552 1.374 . S
C1552 H1526 0.950 . S
C1552 C1548 1.385 . S
C1552 C1551 1.374 . S
C1553 C1550 1.499 . S
C1553 C1554 1.373 . S
C1553 C1555 1.389 . S
C1554 H1527 0.950 . S
C1554 C1540 1.377 . S
C1554 C1553 1.373 . S
C1555 C1539 1.377 . S
C1555 C1553 1.389 . S
C1555 C1556 1.524 . S
C1556 C1555 1.524 . S
C1556 C1557 1.397 . S
C1556 C1561 1.363 . S
C1557 H1528 0.950 . S
C1557 C1556 1.397 . S
C1557 C1558 1.334 . S
C1558 H1529 0.950 . S
C1558 C1557 1.334 . S
C1558 C1559 1.287 . S
C1559 C1558 1.287 . S
C1559 C1560 1.524 . S
C1559 H1562 0.999 . S
C1560 H1530 0.950 . S
C1560 C1559 1.524 . S
C1560 C1561 1.415 . S
C1561 H1531 0.950 . S
C1561 C1556 1.363 . S
C1561 C1560 1.415 . S
H1562 C1559 0.999 . S
H1563 C1544 0.913 . S
H1564 C1582 0.951 . S
H1565 C1584 0.951 . S
H1566 C1586 0.950 . S
H1567 C1587 0.950 . S
H1568 C1589 0.950 . S
H1569 C1592 0.950 . S
H1570 C1593 0.950 . S
H1571 C1595 0.950 . S
H1572 C1596 0.950 . S
H1573 C1597 0.951 . S
H1574 C1599 0.951 . S
H1575 C1601 0.950 . S
H1576 C1602 0.950 . S
H1577 C1604 0.950 . S
H1578 C1607 0.950 . S
H1579 C1608 0.950 . S
H1580 C1610 0.950 . S
H1581 C1611 0.950 . S
C1582 H1564 0.951 . S
C1582 C1583 1.366 . S
C1582 C1584 1.388 . S
C1583 C1582 1.366 . S
C1583 C1587 1.385 . S
C1584 H1565 0.951 . S
C1584 C1582 1.388 . S
C1584 C1585 1.366 . S
C1585 C1584 1.366 . S
C1585 C1586 1.414 . S
C1585 C1588 1.499 . S
C1586 H1566 0.950 . S
C1586 C1585 1.414 . S
C1586 C1587 1.374 . S
C1587 H1567 0.950 . S
C1587 C1583 1.385 . S
C1587 C1586 1.374 . S
C1588 C1585 1.499 . S
C1588 C1589 1.373 . S
C1588 C1590 1.389 . S
C1589 H1568 0.950 . S
C1589 C1588 1.373 . S
C1589 C1605 1.377 . S
C1590 C1588 1.389 . S
C1590 C1591 1.524 . S
C1590 C1604 1.377 . S
C1591 C1590 1.524 . S
C1591 C1592 1.397 . S
C1591 C1596 1.363 . S
C1592 H1569 0.950 . S
C1592 C1591 1.397 . S
C1592 C1593 1.334 . S
C1593 H1570 0.950 . S
C1593 C1592 1.334 . S
C1593 C1594 1.287 . S
C1594 C1593 1.287 . S
C1594 C1595 1.524 . S
C1594 H1613 0.913 . S
C1595 H1571 0.950 . S
C1595 C1594 1.524 . S
C1595 C1596 1.415 . S
C1596 H1572 0.950 . S
C1596 C1591 1.363 . S
C1596 C1595 1.415 . S
C1597 H1573 0.951 . S
C1597 C1598 1.366 . S
C1597 C1599 1.388 . S
C1598 C1597 1.366 . S
C1598 C1602 1.385 . S
C1599 H1574 0.951 . S
C1599 C1597 1.388 . S
C1599 C1600 1.366 . S
C1600 C1599 1.366 . S
C1600 C1601 1.414 . S
C1600 C1603 1.499 . S
C1601 H1575 0.950 . S
C1601 C1600 1.414 . S
C1601 C1602 1.374 . S
C1602 H1576 0.950 . S
C1602 C1598 1.385 . S
C1602 C1601 1.374 . S
C1603 C1600 1.499 . S
C1603 C1604 1.373 . S
C1603 C1605 1.389 . S
C1604 H1577 0.950 . S
C1604 C1590 1.377 . S
C1604 C1603 1.373 . S
C1605 C1589 1.377 . S
C1605 C1603 1.389 . S
C1605 C1606 1.524 . S
C1606 C1605 1.524 . S
C1606 C1607 1.397 . S
C1606 C1611 1.363 . S
C1607 H1578 0.950 . S
C1607 C1606 1.397 . S
C1607 C1608 1.334 . S
C1608 H1579 0.950 . S
C1608 C1607 1.334 . S
C1608 C1609 1.287 . S
C1609 C1608 1.287 . S
C1609 C1610 1.524 . S
C1609 H1612 0.999 . S
C1610 H1580 0.950 . S
C1610 C1609 1.524 . S
C1610 C1611 1.415 . S
C1611 H1581 0.950 . S
C1611 C1606 1.363 . S
C1611 C1610 1.415 . S
H1612 C1609 0.999 . S
H1613 C1594 0.913 . S
H1614 C1632 0.951 . S
H1615 C1634 0.951 . S
H1616 C1636 0.950 . S
H1617 C1637 0.950 . S
H1618 C1639 0.950 . S
H1619 C1642 0.950 . S
H1620 C1643 0.950 . S
H1621 C1645 0.949 1_455 S
H1622 C1646 0.950 . S
H1623 C1647 0.951 . S
H1624 C1649 0.951 . S
H1625 C1651 0.950 . S
H1626 C1652 0.950 . S
H1627 C1654 0.950 . S
H1628 C1657 0.950 . S
H1629 C1658 0.950 . S
H1630 C1660 0.950 . S
H1631 C1661 0.950 . S
C1632 H1614 0.951 . S
C1632 C1633 1.366 . S
C1632 C1634 1.388 . S
C1633 C1632 1.366 . S
C1633 C1637 1.385 1_545 S
C1634 H1615 0.951 . S
C1634 C1632 1.388 . S
C1634 C1635 1.366 1_545 S
C1635 C1634 1.366 1_565 S
C1635 C1636 1.414 . S
C1635 C1638 1.499 . S
C1636 H1616 0.950 . S
C1636 C1635 1.414 . S
C1636 C1637 1.374 . S
C1637 H1617 0.950 . S
C1637 C1633 1.385 1_565 S
C1637 C1636 1.374 . S
C1638 C1635 1.499 . S
C1638 C1639 1.373 . S
C1638 C1640 1.389 . S
C1639 H1618 0.950 . S
C1639 C1638 1.373 . S
C1639 C1655 1.377 . S
C1640 C1638 1.389 . S
C1640 C1641 1.524 . S
C1640 C1654 1.377 . S
C1641 C1640 1.524 . S
C1641 C1642 1.397 . S
C1641 C1646 1.363 . S
C1642 H1619 0.950 . S
C1642 C1641 1.397 . S
C1642 C1643 1.334 1_655 S
C1643 H1620 0.950 . S
C1643 C1642 1.334 1_455 S
C1643 C1644 1.287 . S
C1644 C1643 1.287 . S
C1644 C1645 1.524 1_455 S
C1644 H1663 0.913 . S
C1645 H1621 0.949 1_655 S
C1645 C1644 1.524 1_655 S
C1645 C1646 1.415 . S
C1646 H1622 0.950 . S
C1646 C1641 1.363 . S
C1646 C1645 1.415 . S
C1647 H1623 0.951 . S
C1647 C1648 1.366 . S
C1647 C1649 1.388 . S
C1648 C1647 1.366 . S
C1648 C1652 1.385 . S
C1649 H1624 0.951 . S
C1649 C1647 1.388 . S
C1649 C1650 1.366 . S
C1650 C1649 1.366 . S
C1650 C1651 1.414 . S
C1650 C1653 1.499 . S
C1651 H1625 0.950 . S
C1651 C1650 1.414 . S
C1651 C1652 1.374 . S
C1652 H1626 0.950 . S
C1652 C1648 1.385 . S
C1652 C1651 1.374 . S
C1653 C1650 1.499 . S
C1653 C1654 1.373 . S
C1653 C1655 1.389 . S
C1654 H1627 0.950 . S
C1654 C1640 1.377 . S
C1654 C1653 1.373 . S
C1655 C1639 1.377 . S
C1655 C1653 1.389 . S
C1655 C1656 1.524 . S
C1656 C1655 1.524 . S
C1656 C1657 1.397 . S
C1656 C1661 1.363 . S
C1657 H1628 0.950 . S
C1657 C1656 1.397 . S
C1657 C1658 1.334 . S
C1658 H1629 0.950 . S
C1658 C1657 1.334 . S
C1658 C1659 1.287 . S
C1659 C1658 1.287 . S
C1659 C1660 1.524 . S
C1659 H1662 0.999 . S
C1660 H1630 0.950 . S
C1660 C1659 1.524 . S
C1660 C1661 1.415 . S
C1661 H1631 0.950 . S
C1661 C1656 1.363 . S
C1661 C1660 1.415 . S
H1662 C1659 0.999 . S
H1663 C1644 0.913 . S
H1664 C1682 0.951 . S
H1665 C1684 0.951 . S
H1666 C1686 0.950 . S
H1667 C1687 0.950 . S
H1668 C1689 0.950 . S
H1669 C1692 0.950 . S
H1670 C1693 0.950 . S
H1671 C1695 0.950 . S
H1672 C1696 0.950 . S
H1673 C1697 0.951 . S
H1674 C1699 0.951 . S
H1675 C1701 0.950 . S
H1676 C1702 0.950 . S
H1677 C1704 0.950 . S
H1678 C1707 0.950 . S
H1679 C1708 0.950 . S
H1680 C1710 0.950 . S
H1681 C1711 0.950 . S
C1682 H1664 0.951 . S
C1682 C1683 1.366 . S
C1682 C1684 1.388 . S
C1683 C1682 1.366 . S
C1683 C1687 1.385 . S
C1684 H1665 0.951 . S
C1684 C1682 1.388 . S
C1684 C1685 1.366 . S
C1685 C1684 1.366 . S
C1685 C1686 1.414 . S
C1685 C1688 1.499 . S
C1686 H1666 0.950 . S
C1686 C1685 1.414 . S
C1686 C1687 1.374 . S
C1687 H1667 0.950 . S
C1687 C1683 1.385 . S
C1687 C1686 1.374 . S
C1688 C1685 1.499 . S
C1688 C1689 1.373 . S
C1688 C1690 1.389 . S
C1689 H1668 0.950 . S
C1689 C1688 1.373 . S
C1689 C1705 1.377 . S
C1690 C1688 1.389 . S
C1690 C1691 1.524 . S
C1690 C1704 1.377 . S
C1691 C1690 1.524 . S
C1691 C1692 1.397 . S
C1691 C1696 1.363 . S
C1692 H1669 0.950 . S
C1692 C1691 1.397 . S
C1692 C1693 1.334 . S
C1693 H1670 0.950 . S
C1693 C1692 1.334 . S
C1693 C1694 1.287 . S
C1694 C1693 1.287 . S
C1694 C1695 1.524 . S
C1694 H1713 0.913 . S
C1695 H1671 0.950 . S
C1695 C1694 1.524 . S
C1695 C1696 1.415 . S
C1696 H1672 0.950 . S
C1696 C1691 1.363 . S
C1696 C1695 1.415 . S
C1697 H1673 0.951 . S
C1697 C1698 1.366 . S
C1697 C1699 1.388 . S
C1698 C1697 1.366 . S
C1698 C1702 1.385 . S
C1699 H1674 0.951 . S
C1699 C1697 1.388 . S
C1699 C1700 1.366 . S
C1700 C1699 1.366 . S
C1700 C1701 1.414 . S
C1700 C1703 1.499 . S
C1701 H1675 0.950 . S
C1701 C1700 1.414 . S
C1701 C1702 1.374 . S
C1702 H1676 0.950 . S
C1702 C1698 1.385 . S
C1702 C1701 1.374 . S
C1703 C1700 1.499 . S
C1703 C1704 1.373 . S
C1703 C1705 1.389 . S
C1704 H1677 0.950 . S
C1704 C1690 1.377 . S
C1704 C1703 1.373 . S
C1705 C1689 1.377 . S
C1705 C1703 1.389 . S
C1705 C1706 1.524 . S
C1706 C1705 1.524 . S
C1706 C1707 1.397 . S
C1706 C1711 1.363 . S
C1707 H1678 0.950 . S
C1707 C1706 1.397 . S
C1707 C1708 1.334 . S
C1708 H1679 0.950 . S
C1708 C1707 1.334 . S
C1708 C1709 1.287 . S
C1709 C1708 1.287 . S
C1709 C1710 1.524 . S
C1709 H1712 0.999 . S
C1710 H1680 0.950 . S
C1710 C1709 1.524 . S
C1710 C1711 1.415 . S
C1711 H1681 0.950 . S
C1711 C1706 1.363 . S
C1711 C1710 1.415 . S
H1712 C1709 0.999 . S
H1713 C1694 0.913 . S
H1714 C1732 0.951 . S
H1715 C1734 0.951 . S
H1716 C1736 0.950 . S
H1717 C1737 0.950 . S
H1718 C1739 0.950 . S
H1719 C1742 0.950 . S
H1720 C1743 0.950 . S
H1721 C1745 0.950 . S
H1722 C1746 0.950 . S
H1723 C1747 0.951 . S
H1724 C1749 0.951 . S
H1725 C1751 0.950 . S
H1726 C1752 0.950 . S
H1727 C1754 0.950 . S
H1728 C1757 0.950 . S
H1729 C1758 0.950 . S
H1730 C1760 0.950 . S
H1731 C1761 0.950 . S
C1732 H1714 0.951 . S
C1732 C1733 1.366 . S
C1732 C1734 1.388 . S
C1733 C1732 1.366 . S
C1733 C1737 1.385 . S
C1734 H1715 0.951 . S
C1734 C1732 1.388 . S
C1734 C1735 1.366 . S
C1735 C1734 1.366 . S
C1735 C1736 1.414 . S
C1735 C1738 1.499 . S
C1736 H1716 0.950 . S
C1736 C1735 1.414 . S
C1736 C1737 1.374 . S
C1737 H1717 0.950 . S
C1737 C1733 1.385 . S
C1737 C1736 1.374 . S
C1738 C1735 1.499 . S
C1738 C1739 1.373 . S
C1738 C1740 1.389 . S
C1739 H1718 0.950 . S
C1739 C1738 1.373 . S
C1739 C1755 1.377 . S
C1740 C1738 1.389 . S
C1740 C1741 1.524 . S
C1740 C1754 1.377 . S
C1741 C1740 1.524 . S
C1741 C1742 1.397 . S
C1741 C1746 1.363 . S
C1742 H1719 0.950 . S
C1742 C1741 1.397 . S
C1742 C1743 1.334 . S
C1743 H1720 0.950 . S
C1743 C1742 1.334 . S
C1743 C1744 1.287 . S
C1744 C1743 1.287 . S
C1744 C1745 1.524 . S
C1744 H1763 0.913 . S
C1745 H1721 0.950 . S
C1745 C1744 1.524 . S
C1745 C1746 1.415 . S
C1746 H1722 0.950 . S
C1746 C1741 1.363 . S
C1746 C1745 1.415 . S
C1747 H1723 0.951 . S
C1747 C1748 1.366 . S
C1747 C1749 1.388 . S
C1748 C1747 1.366 . S
C1748 C1752 1.385 . S
C1749 H1724 0.951 . S
C1749 C1747 1.388 . S
C1749 C1750 1.366 . S
C1750 C1749 1.366 . S
C1750 C1751 1.414 . S
C1750 C1753 1.499 . S
C1751 H1725 0.950 . S
C1751 C1750 1.414 . S
C1751 C1752 1.374 . S
C1752 H1726 0.950 . S
C1752 C1748 1.385 . S
C1752 C1751 1.374 . S
C1753 C1750 1.499 . S
C1753 C1754 1.373 . S
C1753 C1755 1.389 . S
C1754 H1727 0.950 . S
C1754 C1740 1.377 . S
C1754 C1753 1.373 . S
C1755 C1739 1.377 . S
C1755 C1753 1.389 . S
C1755 C1756 1.524 . S
C1756 C1755 1.524 . S
C1756 C1757 1.397 . S
C1756 C1761 1.363 . S
C1757 H1728 0.950 . S
C1757 C1756 1.397 . S
C1757 C1758 1.334 . S
C1758 H1729 0.950 . S
C1758 C1757 1.334 . S
C1758 C1759 1.287 . S
C1759 C1758 1.287 . S
C1759 C1760 1.524 . S
C1759 H1762 0.999 . S
C1760 H1730 0.950 . S
C1760 C1759 1.524 . S
C1760 C1761 1.415 . S
C1761 H1731 0.950 . S
C1761 C1756 1.363 . S
C1761 C1760 1.415 . S
H1762 C1759 0.999 . S
H1763 C1744 0.913 . S
H1764 C1782 0.951 . S
H1765 C1784 0.951 . S
H1766 C1786 0.950 . S
H1767 C1787 0.950 . S
H1768 C1789 0.950 . S
H1769 C1792 0.950 . S
H1770 C1793 0.950 . S
H1771 C1795 0.950 . S
H1772 C1796 0.950 . S
H1773 C1797 0.951 . S
H1774 C1799 0.951 . S
H1775 C1801 0.950 . S
H1776 C1802 0.950 . S
H1777 C1804 0.950 . S
H1778 C1807 0.950 . S
H1779 C1808 0.950 . S
H1780 C1810 0.950 . S
H1781 C1811 0.950 . S
C1782 H1764 0.951 . S
C1782 C1783 1.366 . S
C1782 C1784 1.388 . S
C1783 C1782 1.366 . S
C1783 C1787 1.385 . S
C1784 H1765 0.951 . S
C1784 C1782 1.388 . S
C1784 C1785 1.366 . S
C1785 C1784 1.366 . S
C1785 C1786 1.414 . S
C1785 C1788 1.499 . S
C1786 H1766 0.950 . S
C1786 C1785 1.414 . S
C1786 C1787 1.374 . S
C1787 H1767 0.950 . S
C1787 C1783 1.385 . S
C1787 C1786 1.374 . S
C1788 C1785 1.499 . S
C1788 C1789 1.373 . S
C1788 C1790 1.389 . S
C1789 H1768 0.950 . S
C1789 C1788 1.373 . S
C1789 C1805 1.377 . S
C1790 C1788 1.389 . S
C1790 C1791 1.524 . S
C1790 C1804 1.377 . S
C1791 C1790 1.524 . S
C1791 C1792 1.397 . S
C1791 C1796 1.363 . S
C1792 H1769 0.950 . S
C1792 C1791 1.397 . S
C1792 C1793 1.334 . S
C1793 H1770 0.950 . S
C1793 C1792 1.334 . S
C1793 C1794 1.287 . S
C1794 C1793 1.287 . S
C1794 C1795 1.524 . S
C1794 H1813 0.913 . S
C1795 H1771 0.950 . S
C1795 C1794 1.524 . S
C1795 C1796 1.415 . S
C1796 H1772 0.950 . S
C1796 C1791 1.363 . S
C1796 C1795 1.415 . S
C1797 H1773 0.951 . S
C1797 C1798 1.366 . S
C1797 C1799 1.388 . S
C1798 C1797 1.366 . S
C1798 C1802 1.385 . S
C1799 H1774 0.951 . S
C1799 C1797 1.388 . S
C1799 C1800 1.366 . S
C1800 C1799 1.366 . S
C1800 C1801 1.414 . S
C1800 C1803 1.499 . S
C1801 H1775 0.950 . S
C1801 C1800 1.414 . S
C1801 C1802 1.374 . S
C1802 H1776 0.950 . S
C1802 C1798 1.385 . S
C1802 C1801 1.374 . S
C1803 C1800 1.499 . S
C1803 C1804 1.373 . S
C1803 C1805 1.389 . S
C1804 H1777 0.950 . S
C1804 C1790 1.377 . S
C1804 C1803 1.373 . S
C1805 C1789 1.377 . S
C1805 C1803 1.389 . S
C1805 C1806 1.524 . S
C1806 C1805 1.524 . S
C1806 C1807 1.397 . S
C1806 C1811 1.363 . S
C1807 H1778 0.950 . S
C1807 C1806 1.397 . S
C1807 C1808 1.334 . S
C1808 H1779 0.950 . S
C1808 C1807 1.334 . S
C1808 C1809 1.287 . S
C1809 C1808 1.287 . S
C1809 C1810 1.524 . S
C1809 H1812 0.999 . S
C1810 H1780 0.950 . S
C1810 C1809 1.524 . S
C1810 C1811 1.415 . S
C1811 H1781 0.950 . S
C1811 C1806 1.363 . S
C1811 C1810 1.415 . S
H1812 C1809 0.999 . S
H1813 C1794 0.913 . S
H1814 C1832 0.951 . S
H1815 C1834 0.951 . S
H1816 C1836 0.950 . S
H1817 C1837 0.950 . S
H1818 C1839 0.950 . S
H1819 C1842 0.950 . S
H1820 C1843 0.950 . S
H1821 C1845 0.950 . S
H1822 C1846 0.950 . S
H1823 C1847 0.951 . S
H1824 C1849 0.951 . S
H1825 C1851 0.950 . S
H1826 C1852 0.950 . S
H1827 C1854 0.950 . S
H1828 C1857 0.950 . S
H1829 C1858 0.950 . S
H1830 C1860 0.950 . S
H1831 C1861 0.950 . S
C1832 H1814 0.951 . S
C1832 C1833 1.366 . S
C1832 C1834 1.388 . S
C1833 C1832 1.366 . S
C1833 C1837 1.385 . S
C1834 H1815 0.951 . S
C1834 C1832 1.388 . S
C1834 C1835 1.366 . S
C1835 C1834 1.366 . S
C1835 C1836 1.414 . S
C1835 C1838 1.499 . S
C1836 H1816 0.950 . S
C1836 C1835 1.414 . S
C1836 C1837 1.374 . S
C1837 H1817 0.950 . S
C1837 C1833 1.385 . S
C1837 C1836 1.374 . S
C1838 C1835 1.499 . S
C1838 C1839 1.373 . S
C1838 C1840 1.389 . S
C1839 H1818 0.950 . S
C1839 C1838 1.373 . S
C1839 C1855 1.377 . S
C1840 C1838 1.389 . S
C1840 C1841 1.524 . S
C1840 C1854 1.377 . S
C1841 C1840 1.524 . S
C1841 C1842 1.397 . S
C1841 C1846 1.363 . S
C1842 H1819 0.950 . S
C1842 C1841 1.397 . S
C1842 C1843 1.334 . S
C1843 H1820 0.950 . S
C1843 C1842 1.334 . S
C1843 C1844 1.287 . S
C1844 C1843 1.287 . S
C1844 C1845 1.524 . S
C1844 H1863 0.913 . S
C1845 H1821 0.950 . S
C1845 C1844 1.524 . S
C1845 C1846 1.415 . S
C1846 H1822 0.950 . S
C1846 C1841 1.363 . S
C1846 C1845 1.415 . S
C1847 H1823 0.951 . S
C1847 C1848 1.366 . S
C1847 C1849 1.388 . S
C1848 C1847 1.366 . S
C1848 C1852 1.385 . S
C1849 H1824 0.951 . S
C1849 C1847 1.388 . S
C1849 C1850 1.366 . S
C1850 C1849 1.366 . S
C1850 C1851 1.414 . S
C1850 C1853 1.499 . S
C1851 H1825 0.950 . S
C1851 C1850 1.414 . S
C1851 C1852 1.374 . S
C1852 H1826 0.950 . S
C1852 C1848 1.385 . S
C1852 C1851 1.374 . S
C1853 C1850 1.499 . S
C1853 C1854 1.373 . S
C1853 C1855 1.389 . S
C1854 H1827 0.950 . S
C1854 C1840 1.377 . S
C1854 C1853 1.373 . S
C1855 C1839 1.377 . S
C1855 C1853 1.389 . S
C1855 C1856 1.524 . S
C1856 C1855 1.524 . S
C1856 C1857 1.397 . S
C1856 C1861 1.363 . S
C1857 H1828 0.950 . S
C1857 C1856 1.397 . S
C1857 C1858 1.334 1_655 S
C1858 H1829 0.950 . S
C1858 C1857 1.334 1_455 S
C1858 C1859 1.287 . S
C1859 C1858 1.287 . S
C1859 C1860 1.524 1_455 S
C1859 H1862 0.999 . S
C1860 H1830 0.950 . S
C1860 C1859 1.524 1_655 S
C1860 C1861 1.415 . S
C1861 H1831 0.950 . S
C1861 C1856 1.363 . S
C1861 C1860 1.415 . S
H1862 C1859 0.999 . S
H1863 C1844 0.913 . S
H1864 C1882 0.951 . S
H1865 C1884 0.951 . S
H1866 C1886 0.950 . S
H1867 C1887 0.950 . S
H1868 C1889 0.950 . S
H1869 C1892 0.950 . S
H1870 C1893 0.950 . S
H1871 C1895 0.950 . S
H1872 C1896 0.950 . S
H1873 C1897 0.951 . S
H1874 C1899 0.951 . S
H1875 C1901 0.950 . S
H1876 C1902 0.950 . S
H1877 C1904 0.950 . S
H1878 C1907 0.950 . S
H1879 C1908 0.950 . S
H1880 C1910 0.950 . S
H1881 C1911 0.950 . S
C1882 H1864 0.951 . S
C1882 C1883 1.366 . S
C1882 C1884 1.388 . S
C1883 C1882 1.366 . S
C1883 C1887 1.385 . S
C1884 H1865 0.951 . S
C1884 C1882 1.388 . S
C1884 C1885 1.366 . S
C1885 C1884 1.366 . S
C1885 C1886 1.414 . S
C1885 C1888 1.499 . S
C1886 H1866 0.950 . S
C1886 C1885 1.414 . S
C1886 C1887 1.374 . S
C1887 H1867 0.950 . S
C1887 C1883 1.385 . S
C1887 C1886 1.374 . S
C1888 C1885 1.499 . S
C1888 C1889 1.373 . S
C1888 C1890 1.389 . S
C1889 H1868 0.950 . S
C1889 C1888 1.373 . S
C1889 C1905 1.377 . S
C1890 C1888 1.389 . S
C1890 C1891 1.524 . S
C1890 C1904 1.377 . S
C1891 C1890 1.524 . S
C1891 C1892 1.397 . S
C1891 C1896 1.363 . S
C1892 H1869 0.950 . S
C1892 C1891 1.397 . S
C1892 C1893 1.334 . S
C1893 H1870 0.950 . S
C1893 C1892 1.334 . S
C1893 C1894 1.287 . S
C1894 C1893 1.287 . S
C1894 C1895 1.524 . S
C1894 H1913 0.913 . S
C1895 H1871 0.950 . S
C1895 C1894 1.524 . S
C1895 C1896 1.415 . S
C1896 H1872 0.950 . S
C1896 C1891 1.363 . S
C1896 C1895 1.415 . S
C1897 H1873 0.951 . S
C1897 C1898 1.366 . S
C1897 C1899 1.388 . S
C1898 C1897 1.366 . S
C1898 C1902 1.385 . S
C1899 H1874 0.951 . S
C1899 C1897 1.388 . S
C1899 C1900 1.366 . S
C1900 C1899 1.366 . S
C1900 C1901 1.414 . S
C1900 C1903 1.499 . S
C1901 H1875 0.950 . S
C1901 C1900 1.414 . S
C1901 C1902 1.374 . S
C1902 H1876 0.950 . S
C1902 C1898 1.385 . S
C1902 C1901 1.374 . S
C1903 C1900 1.499 . S
C1903 C1904 1.373 . S
C1903 C1905 1.389 . S
C1904 H1877 0.950 . S
C1904 C1890 1.377 . S
C1904 C1903 1.373 . S
C1905 C1889 1.377 . S
C1905 C1903 1.389 . S
C1905 C1906 1.524 . S
C1906 C1905 1.524 . S
C1906 C1907 1.397 . S
C1906 C1911 1.363 . S
C1907 H1878 0.950 . S
C1907 C1906 1.397 . S
C1907 C1908 1.334 . S
C1908 H1879 0.950 . S
C1908 C1907 1.334 . S
C1908 C1909 1.287 . S
C1909 C1908 1.287 . S
C1909 C1910 1.524 . S
C1909 H1912 0.999 . S
C1910 H1880 0.950 . S
C1910 C1909 1.524 . S
C1910 C1911 1.415 . S
C1911 H1881 0.950 . S
C1911 C1906 1.363 . S
C1911 C1910 1.415 . S
H1912 C1909 0.999 . S
H1913 C1894 0.913 . S
H1914 C1932 0.951 . S
H1915 C1934 0.951 . S
H1916 C1936 0.950 . S
H1917 C1937 0.950 . S
H1918 C1939 0.950 . S
H1919 C1942 0.950 . S
H1920 C1943 0.950 . S
H1921 C1945 0.950 . S
H1922 C1946 0.950 . S
H1923 C1947 0.951 . S
H1924 C1949 0.951 . S
H1925 C1951 0.950 . S
H1926 C1952 0.950 . S
H1927 C1954 0.950 . S
H1928 C1957 0.950 . S
H1929 C1958 0.950 . S
H1930 C1960 0.950 . S
H1931 C1961 0.950 . S
C1932 H1914 0.951 . S
C1932 C1933 1.366 . S
C1932 C1934 1.388 . S
C1933 C1932 1.366 . S
C1933 C1937 1.385 . S
C1934 H1915 0.951 . S
C1934 C1932 1.388 . S
C1934 C1935 1.366 . S
C1935 C1934 1.366 . S
C1935 C1936 1.414 . S
C1935 C1938 1.499 . S
C1936 H1916 0.950 . S
C1936 C1935 1.414 . S
C1936 C1937 1.374 . S
C1937 H1917 0.950 . S
C1937 C1933 1.385 . S
C1937 C1936 1.374 . S
C1938 C1935 1.499 . S
C1938 C1939 1.373 . S
C1938 C1940 1.389 . S
C1939 H1918 0.950 . S
C1939 C1938 1.373 . S
C1939 C1955 1.377 . S
C1940 C1938 1.389 . S
C1940 C1941 1.524 . S
C1940 C1954 1.377 . S
C1941 C1940 1.524 . S
C1941 C1942 1.397 . S
C1941 C1946 1.363 . S
C1942 H1919 0.950 . S
C1942 C1941 1.397 . S
C1942 C1943 1.334 . S
C1943 H1920 0.950 . S
C1943 C1942 1.334 . S
C1943 C1944 1.287 . S
C1944 C1943 1.287 . S
C1944 C1945 1.524 . S
C1944 H1963 0.913 . S
C1945 H1921 0.950 . S
C1945 C1944 1.524 . S
C1945 C1946 1.415 . S
C1946 H1922 0.950 . S
C1946 C1941 1.363 . S
C1946 C1945 1.415 . S
C1947 H1923 0.951 . S
C1947 C1948 1.366 . S
C1947 C1949 1.388 . S
C1948 C1947 1.366 . S
C1948 C1952 1.385 . S
C1949 H1924 0.951 . S
C1949 C1947 1.388 . S
C1949 C1950 1.366 . S
C1950 C1949 1.366 . S
C1950 C1951 1.414 . S
C1950 C1953 1.499 . S
C1951 H1925 0.950 . S
C1951 C1950 1.414 . S
C1951 C1952 1.374 . S
C1952 H1926 0.950 . S
C1952 C1948 1.385 . S
C1952 C1951 1.374 . S
C1953 C1950 1.499 . S
C1953 C1954 1.373 . S
C1953 C1955 1.389 . S
C1954 H1927 0.950 . S
C1954 C1940 1.377 . S
C1954 C1953 1.373 . S
C1955 C1939 1.377 . S
C1955 C1953 1.389 . S
C1955 C1956 1.524 . S
C1956 C1955 1.524 . S
C1956 C1957 1.397 . S
C1956 C1961 1.363 . S
C1957 H1928 0.950 . S
C1957 C1956 1.397 . S
C1957 C1958 1.334 . S
C1958 H1929 0.950 . S
C1958 C1957 1.334 . S
C1958 C1959 1.287 . S
C1959 C1958 1.287 . S
C1959 C1960 1.524 . S
C1959 H1962 0.999 . S
C1960 H1930 0.950 . S
C1960 C1959 1.524 . S
C1960 C1961 1.415 . S
C1961 H1931 0.950 . S
C1961 C1956 1.363 . S
C1961 C1960 1.415 . S
H1962 C1959 0.999 . S
H1963 C1944 0.913 . S
H1964 C1982 0.951 . S
H1965 C1984 0.951 . S
H1966 C1986 0.950 . S
H1967 C1987 0.950 . S
H1968 C1989 0.950 . S
H1969 C1992 0.950 . S
H1970 C1993 0.950 . S
H1971 C1995 0.950 . S
H1972 C1996 0.950 . S
H1973 C1997 0.951 . S
H1974 C1999 0.951 . S
H1975 C2001 0.950 . S
H1976 C2002 0.950 . S
H1977 C2004 0.950 . S
H1978 C2007 0.950 . S
H1979 C2008 0.950 . S
H1980 C2010 0.950 . S
H1981 C2011 0.950 . S
C1982 H1964 0.951 . S
C1982 C1983 1.366 . S
C1982 C1984 1.388 . S
C1983 C1982 1.366 . S
C1983 C1987 1.385 . S
C1984 H1965 0.951 . S
C1984 C1982 1.388 . S
C1984 C1985 1.366 . S
C1985 C1984 1.366 . S
C1985 C1986 1.414 . S
C1985 C1988 1.499 . S
C1986 H1966 0.950 . S
C1986 C1985 1.414 . S
C1986 C1987 1.374 . S
C1987 H1967 0.950 . S
C1987 C1983 1.385 . S
C1987 C1986 1.374 . S
C1988 C1985 1.499 . S
C1988 C1989 1.373 . S
C1988 C1990 1.389 . S
C1989 H1968 0.950 . S
C1989 C1988 1.373 . S
C1989 C2005 1.377 . S
C1990 C1988 1.389 . S
C1990 C1991 1.524 . S
C1990 C2004 1.377 . S
C1991 C1990 1.524 . S
C1991 C1992 1.397 . S
C1991 C1996 1.363 . S
C1992 H1969 0.950 . S
C1992 C1991 1.397 . S
C1992 C1993 1.334 . S
C1993 H1970 0.950 . S
C1993 C1992 1.334 . S
C1993 C1994 1.287 . S
C1994 C1993 1.287 . S
C1994 C1995 1.524 . S
C1994 H2013 0.913 . S
C1995 H1971 0.950 . S
C1995 C1994 1.524 . S
C1995 C1996 1.415 . S
C1996 H1972 0.950 . S
C1996 C1991 1.363 . S
C1996 C1995 1.415 . S
C1997 H1973 0.951 . S
C1997 C1998 1.366 . S
C1997 C1999 1.388 . S
C1998 C1997 1.366 . S
C1998 C2002 1.385 . S
C1999 H1974 0.951 . S
C1999 C1997 1.388 . S
C1999 C2000 1.366 . S
C2000 C1999 1.366 . S
C2000 C2001 1.414 . S
C2000 C2003 1.499 . S
C2001 H1975 0.950 . S
C2001 C2000 1.414 . S
C2001 C2002 1.374 . S
C2002 H1976 0.950 . S
C2002 C1998 1.385 . S
C2002 C2001 1.374 . S
C2003 C2000 1.499 . S
C2003 C2004 1.373 . S
C2003 C2005 1.389 . S
C2004 H1977 0.950 . S
C2004 C1990 1.377 . S
C2004 C2003 1.373 . S
C2005 C1989 1.377 . S
C2005 C2003 1.389 . S
C2005 C2006 1.524 . S
C2006 C2005 1.524 . S
C2006 C2007 1.397 . S
C2006 C2011 1.363 . S
C2007 H1978 0.950 . S
C2007 C2006 1.397 . S
C2007 C2008 1.334 . S
C2008 H1979 0.950 . S
C2008 C2007 1.334 . S
C2008 C2009 1.287 . S
C2009 C2008 1.287 . S
C2009 C2010 1.524 . S
C2009 H2012 0.999 . S
C2010 H1980 0.950 . S
C2010 C2009 1.524 . S
C2010 C2011 1.415 . S
C2011 H1981 0.950 . S
C2011 C2006 1.363 . S
C2011 C2010 1.415 . S
H2012 C2009 0.999 . S
H2013 C1994 0.913 . S
H2014 C2032 0.951 . S
H2015 C2034 0.951 . S
H2016 C2036 0.950 . S
H2017 C2037 0.950 . S
H2018 C2039 0.950 . S
H2019 C2042 0.950 . S
H2020 C2043 0.950 . S
H2021 C2045 0.950 . S
H2022 C2046 0.950 . S
H2023 C2047 0.951 . S
H2024 C2049 0.951 . S
H2025 C2051 0.950 . S
H2026 C2052 0.950 . S
H2027 C2054 0.950 . S
H2028 C2057 0.950 . S
H2029 C2058 0.950 . S
H2030 C2060 0.950 . S
H2031 C2061 0.950 . S
C2032 H2014 0.951 . S
C2032 C2033 1.366 . S
C2032 C2034 1.388 . S
C2033 C2032 1.366 . S
C2033 C2037 1.385 . S
C2034 H2015 0.951 . S
C2034 C2032 1.388 . S
C2034 C2035 1.366 . S
C2035 C2034 1.366 . S
C2035 C2036 1.414 . S
C2035 C2038 1.499 . S
C2036 H2016 0.950 . S
C2036 C2035 1.414 . S
C2036 C2037 1.374 . S
C2037 H2017 0.950 . S
C2037 C2033 1.385 . S
C2037 C2036 1.374 . S
C2038 C2035 1.499 . S
C2038 C2039 1.373 . S
C2038 C2040 1.389 . S
C2039 H2018 0.950 . S
C2039 C2038 1.373 . S
C2039 C2055 1.377 . S
C2040 C2038 1.389 . S
C2040 C2041 1.524 . S
C2040 C2054 1.377 . S
C2041 C2040 1.524 . S
C2041 C2042 1.397 . S
C2041 C2046 1.363 . S
C2042 H2019 0.950 . S
C2042 C2041 1.397 . S
C2042 C2043 1.334 . S
C2043 H2020 0.950 . S
C2043 C2042 1.334 . S
C2043 C2044 1.287 . S
C2044 C2043 1.287 . S
C2044 C2045 1.524 . S
C2044 H2063 0.913 . S
C2045 H2021 0.950 . S
C2045 C2044 1.524 . S
C2045 C2046 1.415 . S
C2046 H2022 0.950 . S
C2046 C2041 1.363 . S
C2046 C2045 1.415 . S
C2047 H2023 0.951 . S
C2047 C2048 1.366 . S
C2047 C2049 1.388 . S
C2048 C2047 1.366 . S
C2048 C2052 1.385 . S
C2049 H2024 0.951 . S
C2049 C2047 1.388 . S
C2049 C2050 1.366 . S
C2050 C2049 1.366 . S
C2050 C2051 1.414 . S
C2050 C2053 1.499 . S
C2051 H2025 0.950 . S
C2051 C2050 1.414 . S
C2051 C2052 1.374 . S
C2052 H2026 0.950 . S
C2052 C2048 1.385 . S
C2052 C2051 1.374 . S
C2053 C2050 1.499 . S
C2053 C2054 1.373 . S
C2053 C2055 1.389 . S
C2054 H2027 0.950 . S
C2054 C2040 1.377 . S
C2054 C2053 1.373 . S
C2055 C2039 1.377 . S
C2055 C2053 1.389 . S
C2055 C2056 1.524 . S
C2056 C2055 1.524 . S
C2056 C2057 1.397 . S
C2056 C2061 1.363 . S
C2057 H2028 0.950 . S
C2057 C2056 1.397 . S
C2057 C2058 1.334 . S
C2058 H2029 0.950 . S
C2058 C2057 1.334 . S
C2058 C2059 1.287 . S
C2059 C2058 1.287 . S
C2059 C2060 1.524 . S
C2059 H2062 0.999 . S
C2060 H2030 0.950 . S
C2060 C2059 1.524 . S
C2060 C2061 1.415 . S
C2061 H2031 0.950 . S
C2061 C2056 1.363 . S
C2061 C2060 1.415 . S
H2062 C2059 0.999 . S
H2063 C2044 0.913 . S
H2064 C2082 0.951 . S
H2065 C2084 0.951 . S
H2066 C2086 0.950 . S
H2067 C2087 0.950 . S
H2068 C2089 0.950 . S
H2069 C2092 0.950 . S
H2070 C2093 0.950 . S
H2071 C2095 0.950 . S
H2072 C2096 0.950 . S
H2073 C2097 0.951 . S
H2074 C2099 0.951 . S
H2075 C2101 0.950 . S
H2076 C2102 0.950 . S
H2077 C2104 0.950 . S
H2078 C2107 0.950 . S
H2079 C2108 0.950 . S
H2080 C2110 0.950 . S
H2081 C2111 0.950 . S
C2082 H2064 0.951 . S
C2082 C2083 1.366 . S
C2082 C2084 1.388 . S
C2083 C2082 1.366 . S
C2083 C2087 1.385 . S
C2084 H2065 0.951 . S
C2084 C2082 1.388 . S
C2084 C2085 1.366 . S
C2085 C2084 1.366 . S
C2085 C2086 1.414 . S
C2085 C2088 1.499 . S
C2086 H2066 0.950 . S
C2086 C2085 1.414 . S
C2086 C2087 1.374 . S
C2087 H2067 0.950 . S
C2087 C2083 1.385 . S
C2087 C2086 1.374 . S
C2088 C2085 1.499 . S
C2088 C2089 1.373 . S
C2088 C2090 1.389 . S
C2089 H2068 0.950 . S
C2089 C2088 1.373 . S
C2089 C2105 1.377 . S
C2090 C2088 1.389 . S
C2090 C2091 1.524 . S
C2090 C2104 1.377 . S
C2091 C2090 1.524 . S
C2091 C2092 1.397 . S
C2091 C2096 1.363 . S
C2092 H2069 0.950 . S
C2092 C2091 1.397 . S
C2092 C2093 1.334 . S
C2093 H2070 0.950 . S
C2093 C2092 1.334 . S
C2093 C2094 1.287 . S
C2094 C2093 1.287 . S
C2094 C2095 1.524 . S
C2094 H2113 0.913 . S
C2095 H2071 0.950 . S
C2095 C2094 1.524 . S
C2095 C2096 1.415 . S
C2096 H2072 0.950 . S
C2096 C2091 1.363 . S
C2096 C2095 1.415 . S
C2097 H2073 0.951 . S
C2097 C2098 1.366 . S
C2097 C2099 1.388 . S
C2098 C2097 1.366 . S
C2098 C2102 1.385 . S
C2099 H2074 0.951 . S
C2099 C2097 1.388 . S
C2099 C2100 1.366 . S
C2100 C2099 1.366 . S
C2100 C2101 1.414 . S
C2100 C2103 1.499 . S
C2101 H2075 0.950 . S
C2101 C2100 1.414 . S
C2101 C2102 1.374 . S
C2102 H2076 0.950 . S
C2102 C2098 1.385 . S
C2102 C2101 1.374 . S
C2103 C2100 1.499 . S
C2103 C2104 1.373 . S
C2103 C2105 1.389 . S
C2104 H2077 0.950 . S
C2104 C2090 1.377 . S
C2104 C2103 1.373 . S
C2105 C2089 1.377 . S
C2105 C2103 1.389 . S
C2105 C2106 1.524 . S
C2106 C2105 1.524 . S
C2106 C2107 1.397 . S
C2106 C2111 1.363 . S
C2107 H2078 0.950 . S
C2107 C2106 1.397 . S
C2107 C2108 1.334 . S
C2108 H2079 0.950 . S
C2108 C2107 1.334 . S
C2108 C2109 1.287 . S
C2109 C2108 1.287 . S
C2109 C2110 1.524 . S
C2109 H2112 0.999 . S
C2110 H2080 0.950 . S
C2110 C2109 1.524 . S
C2110 C2111 1.415 . S
C2111 H2081 0.950 . S
C2111 C2106 1.363 . S
C2111 C2110 1.415 . S
H2112 C2109 0.999 . S
H2113 C2094 0.913 . S
H2114 C2132 0.951 . S
H2115 C2134 0.951 . S
H2116 C2136 0.950 . S
H2117 C2137 0.950 . S
H2118 C2139 0.950 . S
H2119 C2142 0.950 . S
H2120 C2143 0.950 . S
H2121 C2145 0.950 . S
H2122 C2146 0.950 . S
H2123 C2147 0.951 . S
H2124 C2149 0.951 . S
H2125 C2151 0.950 . S
H2126 C2152 0.950 . S
H2127 C2154 0.950 . S
H2128 C2157 0.950 . S
H2129 C2158 0.950 . S
H2130 C2160 0.950 . S
H2131 C2161 0.950 . S
C2132 H2114 0.951 . S
C2132 C2133 1.366 . S
C2132 C2134 1.388 . S
C2133 C2132 1.366 . S
C2133 C2137 1.385 . S
C2134 H2115 0.951 . S
C2134 C2132 1.388 . S
C2134 C2135 1.366 . S
C2135 C2134 1.366 . S
C2135 C2136 1.414 . S
C2135 C2138 1.499 . S
C2136 H2116 0.950 . S
C2136 C2135 1.414 . S
C2136 C2137 1.374 . S
C2137 H2117 0.950 . S
C2137 C2133 1.385 . S
C2137 C2136 1.374 . S
C2138 C2135 1.499 . S
C2138 C2139 1.373 . S
C2138 C2140 1.389 . S
C2139 H2118 0.950 . S
C2139 C2138 1.373 . S
C2139 C2155 1.377 . S
C2140 C2138 1.389 . S
C2140 C2141 1.524 . S
C2140 C2154 1.377 . S
C2141 C2140 1.524 . S
C2141 C2142 1.397 . S
C2141 C2146 1.363 . S
C2142 H2119 0.950 . S
C2142 C2141 1.397 . S
C2142 C2143 1.334 . S
C2143 H2120 0.950 . S
C2143 C2142 1.334 . S
C2143 C2144 1.287 . S
C2144 C2143 1.287 . S
C2144 C2145 1.524 . S
C2144 H2163 0.913 . S
C2145 H2121 0.950 . S
C2145 C2144 1.524 . S
C2145 C2146 1.415 . S
C2146 H2122 0.950 . S
C2146 C2141 1.363 . S
C2146 C2145 1.415 . S
C2147 H2123 0.951 . S
C2147 C2148 1.366 . S
C2147 C2149 1.388 . S
C2148 C2147 1.366 . S
C2148 C2152 1.385 . S
C2149 H2124 0.951 . S
C2149 C2147 1.388 . S
C2149 C2150 1.366 . S
C2150 C2149 1.366 . S
C2150 C2151 1.414 . S
C2150 C2153 1.499 . S
C2151 H2125 0.950 . S
C2151 C2150 1.414 . S
C2151 C2152 1.374 . S
C2152 H2126 0.950 . S
C2152 C2148 1.385 . S
C2152 C2151 1.374 . S
C2153 C2150 1.499 . S
C2153 C2154 1.373 . S
C2153 C2155 1.389 . S
C2154 H2127 0.950 . S
C2154 C2140 1.377 . S
C2154 C2153 1.373 . S
C2155 C2139 1.377 . S
C2155 C2153 1.389 . S
C2155 C2156 1.524 . S
C2156 C2155 1.524 . S
C2156 C2157 1.397 . S
C2156 C2161 1.363 . S
C2157 H2128 0.950 . S
C2157 C2156 1.397 . S
C2157 C2158 1.334 . S
C2158 H2129 0.950 . S
C2158 C2157 1.334 . S
C2158 C2159 1.287 . S
C2159 C2158 1.287 . S
C2159 C2160 1.524 . S
C2159 H2162 0.999 . S
C2160 H2130 0.950 . S
C2160 C2159 1.524 . S
C2160 C2161 1.415 . S
C2161 H2131 0.950 . S
C2161 C2156 1.363 . S
C2161 C2160 1.415 . S
H2162 C2159 0.999 . S
H2163 C2144 0.913 . S
H2164 C2182 0.951 . S
H2165 C2184 0.951 . S
H2166 C2186 0.950 . S
H2167 C2187 0.950 . S
H2168 C2189 0.950 . S
H2169 C2192 0.950 . S
H2170 C2193 0.950 . S
H2171 C2195 0.950 . S
H2172 C2196 0.950 . S
H2173 C2197 0.951 . S
H2174 C2199 0.951 . S
H2175 C2201 0.950 . S
H2176 C2202 0.950 . S
H2177 C2204 0.950 . S
H2178 C2207 0.950 . S
H2179 C2208 0.950 . S
H2180 C2210 0.950 . S
H2181 C2211 0.950 . S
C2182 H2164 0.951 . S
C2182 C2183 1.366 . S
C2182 C2184 1.388 . S
C2183 C2182 1.366 . S
C2183 C2187 1.385 . S
C2184 H2165 0.951 . S
C2184 C2182 1.388 . S
C2184 C2185 1.366 . S
C2185 C2184 1.366 . S
C2185 C2186 1.414 . S
C2185 C2188 1.499 . S
C2186 H2166 0.950 . S
C2186 C2185 1.414 . S
C2186 C2187 1.374 . S
C2187 H2167 0.950 . S
C2187 C2183 1.385 . S
C2187 C2186 1.374 . S
C2188 C2185 1.499 . S
C2188 C2189 1.373 . S
C2188 C2190 1.389 . S
C2189 H2168 0.950 . S
C2189 C2188 1.373 . S
C2189 C2205 1.377 . S
C2190 C2188 1.389 . S
C2190 C2191 1.524 . S
C2190 C2204 1.377 . S
C2191 C2190 1.524 . S
C2191 C2192 1.397 . S
C2191 C2196 1.363 . S
C2192 H2169 0.950 . S
C2192 C2191 1.397 . S
C2192 C2193 1.334 . S
C2193 H2170 0.950 . S
C2193 C2192 1.334 . S
C2193 C2194 1.287 . S
C2194 C2193 1.287 . S
C2194 C2195 1.524 . S
C2194 H2213 0.913 . S
C2195 H2171 0.950 . S
C2195 C2194 1.524 . S
C2195 C2196 1.415 . S
C2196 H2172 0.950 . S
C2196 C2191 1.363 . S
C2196 C2195 1.415 . S
C2197 H2173 0.951 . S
C2197 C2198 1.366 . S
C2197 C2199 1.388 . S
C2198 C2197 1.366 . S
C2198 C2202 1.385 . S
C2199 H2174 0.951 . S
C2199 C2197 1.388 . S
C2199 C2200 1.366 . S
C2200 C2199 1.366 . S
C2200 C2201 1.414 . S
C2200 C2203 1.499 . S
C2201 H2175 0.950 . S
C2201 C2200 1.414 . S
C2201 C2202 1.374 . S
C2202 H2176 0.950 . S
C2202 C2198 1.385 . S
C2202 C2201 1.374 . S
C2203 C2200 1.499 . S
C2203 C2204 1.373 . S
C2203 C2205 1.389 . S
C2204 H2177 0.950 . S
C2204 C2190 1.377 . S
C2204 C2203 1.373 . S
C2205 C2189 1.377 . S
C2205 C2203 1.389 . S
C2205 C2206 1.524 . S
C2206 C2205 1.524 . S
C2206 C2207 1.397 . S
C2206 C2211 1.363 . S
C2207 H2178 0.950 . S
C2207 C2206 1.397 . S
C2207 C2208 1.334 . S
C2208 H2179 0.950 . S
C2208 C2207 1.334 . S
C2208 C2209 1.287 . S
C2209 C2208 1.287 . S
C2209 C2210 1.524 . S
C2209 H2212 0.999 . S
C2210 H2180 0.950 . S
C2210 C2209 1.524 . S
C2210 C2211 1.415 . S
C2211 H2181 0.950 . S
C2211 C2206 1.363 . S
C2211 C2210 1.415 . S
H2212 C2209 0.999 . S
H2213 C2194 0.913 . S
H2214 C2232 0.951 . S
H2215 C2234 0.951 . S
H2216 C2236 0.950 . S
H2217 C2237 0.950 . S
H2218 C2239 0.950 . S
H2219 C2242 0.950 . S
H2220 C2243 0.950 . S
H2221 C2245 0.950 . S
H2222 C2246 0.950 . S
H2223 C2247 0.951 . S
H2224 C2249 0.951 . S
H2225 C2251 0.950 . S
H2226 C2252 0.950 . S
H2227 C2254 0.950 . S
H2228 C2257 0.950 . S
H2229 C2258 0.950 . S
H2230 C2260 0.950 . S
H2231 C2261 0.950 . S
C2232 H2214 0.951 . S
C2232 C2233 1.366 . S
C2232 C2234 1.388 . S
C2233 C2232 1.366 . S
C2233 C2237 1.385 . S
C2234 H2215 0.951 . S
C2234 C2232 1.388 . S
C2234 C2235 1.366 . S
C2235 C2234 1.366 . S
C2235 C2236 1.414 . S
C2235 C2238 1.499 . S
C2236 H2216 0.950 . S
C2236 C2235 1.414 . S
C2236 C2237 1.374 . S
C2237 H2217 0.950 . S
C2237 C2233 1.385 . S
C2237 C2236 1.374 . S
C2238 C2235 1.499 . S
C2238 C2239 1.373 . S
C2238 C2240 1.389 . S
C2239 H2218 0.950 . S
C2239 C2238 1.373 . S
C2239 C2255 1.377 . S
C2240 C2238 1.389 . S
C2240 C2241 1.524 . S
C2240 C2254 1.377 . S
C2241 C2240 1.524 . S
C2241 C2242 1.397 . S
C2241 C2246 1.363 . S
C2242 H2219 0.950 . S
C2242 C2241 1.397 . S
C2242 C2243 1.334 . S
C2243 H2220 0.950 . S
C2243 C2242 1.334 . S
C2243 C2244 1.287 . S
C2244 C2243 1.287 . S
C2244 C2245 1.524 . S
C2244 H2263 0.913 . S
C2245 H2221 0.950 . S
C2245 C2244 1.524 . S
C2245 C2246 1.415 . S
C2246 H2222 0.950 . S
C2246 C2241 1.363 . S
C2246 C2245 1.415 . S
C2247 H2223 0.951 . S
C2247 C2248 1.366 . S
C2247 C2249 1.388 . S
C2248 C2247 1.366 . S
C2248 C2252 1.385 . S
C2249 H2224 0.951 . S
C2249 C2247 1.388 . S
C2249 C2250 1.366 . S
C2250 C2249 1.366 . S
C2250 C2251 1.414 . S
C2250 C2253 1.499 . S
C2251 H2225 0.950 . S
C2251 C2250 1.414 . S
C2251 C2252 1.374 . S
C2252 H2226 0.950 . S
C2252 C2248 1.385 . S
C2252 C2251 1.374 . S
C2253 C2250 1.499 . S
C2253 C2254 1.373 . S
C2253 C2255 1.389 . S
C2254 H2227 0.950 . S
C2254 C2240 1.377 . S
C2254 C2253 1.373 . S
C2255 C2239 1.377 . S
C2255 C2253 1.389 . S
C2255 C2256 1.524 . S
C2256 C2255 1.524 . S
C2256 C2257 1.397 . S
C2256 C2261 1.363 . S
C2257 H2228 0.950 . S
C2257 C2256 1.397 . S
C2257 C2258 1.334 1_455 S
C2258 H2229 0.950 . S
C2258 C2257 1.334 1_655 S
C2258 C2259 1.287 . S
C2259 C2258 1.287 . S
C2259 C2260 1.524 1_655 S
C2259 H2262 0.999 . S
C2260 H2230 0.950 . S
C2260 C2259 1.524 1_455 S
C2260 C2261 1.415 . S
C2261 H2231 0.950 . S
C2261 C2256 1.363 . S
C2261 C2260 1.415 . S
H2262 C2259 0.999 . S
H2263 C2244 0.913 . S
H2264 C2282 0.951 . S
H2265 C2284 0.951 . S
H2266 C2286 0.950 . S
H2267 C2287 0.950 . S
H2268 C2289 0.950 . S
H2269 C2292 0.950 . S
H2270 C2293 0.950 . S
H2271 C2295 0.950 . S
H2272 C2296 0.950 . S
H2273 C2297 0.951 . S
H2274 C2299 0.951 . S
H2275 C2301 0.950 . S
H2276 C2302 0.950 . S
H2277 C2304 0.950 . S
H2278 C2307 0.950 . S
H2279 C2308 0.950 . S
H2280 C2310 0.950 . S
H2281 C2311 0.950 . S
C2282 H2264 0.951 . S
C2282 C2283 1.366 . S
C2282 C2284 1.388 . S
C2283 C2282 1.366 . S
C2283 C2287 1.385 . S
C2284 H2265 0.951 . S
C2284 C2282 1.388 . S
C2284 C2285 1.366 . S
C2285 C2284 1.366 . S
C2285 C2286 1.414 . S
C2285 C2288 1.499 . S
C2286 H2266 0.950 . S
C2286 C2285 1.414 . S
C2286 C2287 1.374 . S
C2287 H2267 0.950 . S
C2287 C2283 1.385 . S
C2287 C2286 1.374 . S
C2288 C2285 1.499 . S
C2288 C2289 1.373 . S
C2288 C2290 1.389 . S
C2289 H2268 0.950 . S
C2289 C2288 1.373 . S
C2289 C2305 1.377 . S
C2290 C2288 1.389 . S
C2290 C2291 1.524 . S
C2290 C2304 1.377 . S
C2291 C2290 1.524 . S
C2291 C2292 1.397 . S
C2291 C2296 1.363 . S
C2292 H2269 0.950 . S
C2292 C2291 1.397 . S
C2292 C2293 1.334 . S
C2293 H2270 0.950 . S
C2293 C2292 1.334 . S
C2293 C2294 1.287 . S
C2294 C2293 1.287 . S
C2294 C2295 1.524 . S
C2294 H2313 0.913 . S
C2295 H2271 0.950 . S
C2295 C2294 1.524 . S
C2295 C2296 1.415 . S
C2296 H2272 0.950 . S
C2296 C2291 1.363 . S
C2296 C2295 1.415 . S
C2297 H2273 0.951 . S
C2297 C2298 1.366 . S
C2297 C2299 1.388 . S
C2298 C2297 1.366 . S
C2298 C2302 1.385 . S
C2299 H2274 0.951 . S
C2299 C2297 1.388 . S
C2299 C2300 1.366 . S
C2300 C2299 1.366 . S
C2300 C2301 1.414 . S
C2300 C2303 1.499 . S
C2301 H2275 0.950 . S
C2301 C2300 1.414 . S
C2301 C2302 1.374 . S
C2302 H2276 0.950 . S
C2302 C2298 1.385 . S
C2302 C2301 1.374 . S
C2303 C2300 1.499 . S
C2303 C2304 1.373 . S
C2303 C2305 1.389 . S
C2304 H2277 0.950 . S
C2304 C2290 1.377 . S
C2304 C2303 1.373 . S
C2305 C2289 1.377 . S
C2305 C2303 1.389 . S
C2305 C2306 1.524 . S
C2306 C2305 1.524 . S
C2306 C2307 1.397 . S
C2306 C2311 1.363 . S
C2307 H2278 0.950 . S
C2307 C2306 1.397 . S
C2307 C2308 1.334 . S
C2308 H2279 0.950 . S
C2308 C2307 1.334 . S
C2308 C2309 1.287 . S
C2309 C2308 1.287 . S
C2309 C2310 1.524 . S
C2309 H2312 0.999 . S
C2310 H2280 0.950 . S
C2310 C2309 1.524 . S
C2310 C2311 1.415 . S
C2311 H2281 0.950 . S
C2311 C2306 1.363 . S
C2311 C2310 1.415 . S
H2312 C2309 0.999 . S
H2313 C2294 0.913 . S
H2314 C2332 0.951 . S
H2315 C2334 0.951 . S
H2316 C2336 0.950 . S
H2317 C2337 0.950 . S
H2318 C2339 0.950 . S
H2319 C2342 0.950 . S
H2320 C2343 0.950 . S
H2321 C2345 0.950 . S
H2322 C2346 0.950 . S
H2323 C2347 0.951 . S
H2324 C2349 0.951 . S
H2325 C2351 0.950 . S
H2326 C2352 0.950 . S
H2327 C2354 0.950 . S
H2328 C2357 0.950 . S
H2329 C2358 0.950 1_655 S
H2330 C2360 0.950 . S
H2331 C2361 0.950 . S
C2332 H2314 0.951 . S
C2332 C2333 1.366 . S
C2332 C2334 1.388 . S
C2333 C2332 1.366 . S
C2333 C2337 1.385 . S
C2334 H2315 0.951 . S
C2334 C2332 1.388 . S
C2334 C2335 1.366 . S
C2335 C2334 1.366 . S
C2335 C2336 1.414 . S
C2335 C2338 1.499 . S
C2336 H2316 0.950 . S
C2336 C2335 1.414 . S
C2336 C2337 1.374 . S
C2337 H2317 0.950 . S
C2337 C2333 1.385 . S
C2337 C2336 1.374 . S
C2338 C2335 1.499 . S
C2338 C2339 1.373 . S
C2338 C2340 1.389 . S
C2339 H2318 0.950 . S
C2339 C2338 1.373 . S
C2339 C2355 1.377 . S
C2340 C2338 1.389 . S
C2340 C2341 1.524 . S
C2340 C2354 1.377 . S
C2341 C2340 1.524 . S
C2341 C2342 1.397 . S
C2341 C2346 1.363 . S
C2342 H2319 0.950 . S
C2342 C2341 1.397 . S
C2342 C2343 1.334 . S
C2343 H2320 0.950 . S
C2343 C2342 1.334 . S
C2343 C2344 1.287 . S
C2344 C2343 1.287 . S
C2344 C2345 1.524 . S
C2344 H2363 0.913 . S
C2345 H2321 0.950 . S
C2345 C2344 1.524 . S
C2345 C2346 1.415 . S
C2346 H2322 0.950 . S
C2346 C2341 1.363 . S
C2346 C2345 1.415 . S
C2347 H2323 0.951 . S
C2347 C2348 1.366 . S
C2347 C2349 1.388 . S
C2348 C2347 1.366 . S
C2348 C2352 1.385 . S
C2349 H2324 0.951 . S
C2349 C2347 1.388 . S
C2349 C2350 1.366 . S
C2350 C2349 1.366 . S
C2350 C2351 1.414 . S
C2350 C2353 1.499 . S
C2351 H2325 0.950 . S
C2351 C2350 1.414 . S
C2351 C2352 1.374 . S
C2352 H2326 0.950 . S
C2352 C2348 1.385 . S
C2352 C2351 1.374 . S
C2353 C2350 1.499 . S
C2353 C2354 1.373 . S
C2353 C2355 1.389 . S
C2354 H2327 0.950 . S
C2354 C2340 1.377 . S
C2354 C2353 1.373 . S
C2355 C2339 1.377 . S
C2355 C2353 1.389 . S
C2355 C2356 1.524 . S
C2356 C2355 1.524 . S
C2356 C2357 1.397 . S
C2356 C2361 1.363 . S
C2357 H2328 0.950 . S
C2357 C2356 1.397 . S
C2357 C2358 1.334 . S
C2358 H2329 0.950 1_455 S
C2358 C2357 1.334 . S
C2358 C2359 1.287 . S
C2359 C2358 1.287 . S
C2359 C2360 1.524 . S
C2359 H2362 0.999 1_455 S
C2360 H2330 0.950 . S
C2360 C2359 1.524 . S
C2360 C2361 1.415 . S
C2361 H2331 0.950 . S
C2361 C2356 1.363 . S
C2361 C2360 1.415 . S
H2362 C2359 0.999 1_655 S
H2363 C2344 0.913 . S
H2364 C2382 0.951 . S
H2365 C2384 0.951 . S
H2366 C2386 0.950 . S
H2367 C2387 0.950 . S
H2368 C2389 0.950 . S
H2369 C2392 0.950 . S
H2370 C2393 0.950 . S
H2371 C2395 0.950 . S
H2372 C2396 0.950 . S
H2373 C2397 0.951 . S
H2374 C2399 0.951 . S
H2375 C2401 0.950 . S
H2376 C2402 0.950 . S
H2377 C2404 0.950 . S
H2378 C2407 0.950 . S
H2379 C2408 0.950 . S
H2380 C2410 0.950 . S
H2381 C2411 0.950 . S
C2382 H2364 0.951 . S
C2382 C2383 1.366 . S
C2382 C2384 1.388 . S
C2383 C2382 1.366 . S
C2383 C2387 1.385 . S
C2384 H2365 0.951 . S
C2384 C2382 1.388 . S
C2384 C2385 1.366 . S
C2385 C2384 1.366 . S
C2385 C2386 1.414 . S
C2385 C2388 1.499 . S
C2386 H2366 0.950 . S
C2386 C2385 1.414 . S
C2386 C2387 1.374 . S
C2387 H2367 0.950 . S
C2387 C2383 1.385 . S
C2387 C2386 1.374 . S
C2388 C2385 1.499 . S
C2388 C2389 1.373 . S
C2388 C2390 1.389 . S
C2389 H2368 0.950 . S
C2389 C2388 1.373 . S
C2389 C2405 1.377 . S
C2390 C2388 1.389 . S
C2390 C2391 1.524 . S
C2390 C2404 1.377 . S
C2391 C2390 1.524 . S
C2391 C2392 1.397 . S
C2391 C2396 1.363 . S
C2392 H2369 0.950 . S
C2392 C2391 1.397 . S
C2392 C2393 1.334 . S
C2393 H2370 0.950 . S
C2393 C2392 1.334 . S
C2393 C2394 1.287 . S
C2394 C2393 1.287 . S
C2394 C2395 1.524 . S
C2394 H2413 0.913 . S
C2395 H2371 0.950 . S
C2395 C2394 1.524 . S
C2395 C2396 1.415 . S
C2396 H2372 0.950 . S
C2396 C2391 1.363 . S
C2396 C2395 1.415 . S
C2397 H2373 0.951 . S
C2397 C2398 1.366 . S
C2397 C2399 1.388 . S
C2398 C2397 1.366 . S
C2398 C2402 1.385 . S
C2399 H2374 0.951 . S
C2399 C2397 1.388 . S
C2399 C2400 1.366 . S
C2400 C2399 1.366 . S
C2400 C2401 1.414 . S
C2400 C2403 1.499 . S
C2401 H2375 0.950 . S
C2401 C2400 1.414 . S
C2401 C2402 1.374 . S
C2402 H2376 0.950 . S
C2402 C2398 1.385 . S
C2402 C2401 1.374 . S
C2403 C2400 1.499 . S
C2403 C2404 1.373 . S
C2403 C2405 1.389 . S
C2404 H2377 0.950 . S
C2404 C2390 1.377 . S
C2404 C2403 1.373 . S
C2405 C2389 1.377 . S
C2405 C2403 1.389 . S
C2405 C2406 1.524 . S
C2406 C2405 1.524 . S
C2406 C2407 1.397 . S
C2406 C2411 1.363 . S
C2407 H2378 0.950 . S
C2407 C2406 1.397 . S
C2407 C2408 1.334 . S
C2408 H2379 0.950 . S
C2408 C2407 1.334 . S
C2408 C2409 1.287 . S
C2409 C2408 1.287 . S
C2409 C2410 1.524 . S
C2409 H2412 0.999 . S
C2410 H2380 0.950 . S
C2410 C2409 1.524 . S
C2410 C2411 1.415 . S
C2411 H2381 0.950 . S
C2411 C2406 1.363 . S
C2411 C2410 1.415 . S
H2412 C2409 0.999 . S
H2413 C2394 0.913 . S
H2414 C2432 0.951 . S
H2415 C2434 0.951 . S
H2416 C2436 0.950 . S
H2417 C2437 0.950 . S
H2418 C2439 0.950 . S
H2419 C2442 0.950 . S
H2420 C2443 0.950 . S
H2421 C2445 0.950 . S
H2422 C2446 0.950 . S
H2423 C2447 0.951 . S
H2424 C2449 0.951 . S
H2425 C2451 0.950 . S
H2426 C2452 0.950 . S
H2427 C2454 0.950 . S
H2428 C2457 0.950 . S
H2429 C2458 0.950 . S
H2430 C2460 0.950 . S
H2431 C2461 0.950 . S
C2432 H2414 0.951 . S
C2432 C2433 1.366 . S
C2432 C2434 1.388 . S
C2433 C2432 1.366 . S
C2433 C2437 1.385 . S
C2434 H2415 0.951 . S
C2434 C2432 1.388 . S
C2434 C2435 1.366 . S
C2435 C2434 1.366 . S
C2435 C2436 1.414 . S
C2435 C2438 1.499 . S
C2436 H2416 0.950 . S
C2436 C2435 1.414 . S
C2436 C2437 1.374 . S
C2437 H2417 0.950 . S
C2437 C2433 1.385 . S
C2437 C2436 1.374 . S
C2438 C2435 1.499 . S
C2438 C2439 1.373 . S
C2438 C2440 1.389 . S
C2439 H2418 0.950 . S
C2439 C2438 1.373 . S
C2439 C2455 1.377 . S
C2440 C2438 1.389 . S
C2440 C2441 1.524 . S
C2440 C2454 1.377 . S
C2441 C2440 1.524 . S
C2441 C2442 1.397 . S
C2441 C2446 1.363 . S
C2442 H2419 0.950 . S
C2442 C2441 1.397 . S
C2442 C2443 1.334 . S
C2443 H2420 0.950 . S
C2443 C2442 1.334 . S
C2443 C2444 1.287 . S
C2444 C2443 1.287 . S
C2444 C2445 1.524 . S
C2444 H2463 0.913 . S
C2445 H2421 0.950 . S
C2445 C2444 1.524 . S
C2445 C2446 1.415 . S
C2446 H2422 0.950 . S
C2446 C2441 1.363 . S
C2446 C2445 1.415 . S
C2447 H2423 0.951 . S
C2447 C2448 1.366 . S
C2447 C2449 1.388 . S
C2448 C2447 1.366 . S
C2448 C2452 1.385 . S
C2449 H2424 0.951 . S
C2449 C2447 1.388 . S
C2449 C2450 1.366 . S
C2450 C2449 1.366 . S
C2450 C2451 1.414 . S
C2450 C2453 1.499 . S
C2451 H2425 0.950 . S
C2451 C2450 1.414 . S
C2451 C2452 1.374 . S
C2452 H2426 0.950 . S
C2452 C2448 1.385 . S
C2452 C2451 1.374 . S
C2453 C2450 1.499 . S
C2453 C2454 1.373 . S
C2453 C2455 1.389 . S
C2454 H2427 0.950 . S
C2454 C2440 1.377 . S
C2454 C2453 1.373 . S
C2455 C2439 1.377 . S
C2455 C2453 1.389 . S
C2455 C2456 1.524 . S
C2456 C2455 1.524 . S
C2456 C2457 1.397 . S
C2456 C2461 1.363 . S
C2457 H2428 0.950 . S
C2457 C2456 1.397 . S
C2457 C2458 1.334 . S
C2458 H2429 0.950 . S
C2458 C2457 1.334 . S
C2458 C2459 1.287 . S
C2459 C2458 1.287 . S
C2459 C2460 1.524 . S
C2459 H2462 0.999 . S
C2460 H2430 0.950 . S
C2460 C2459 1.524 . S
C2460 C2461 1.415 . S
C2461 H2431 0.950 . S
C2461 C2456 1.363 . S
C2461 C2460 1.415 . S
H2462 C2459 0.999 . S
H2463 C2444 0.913 . S
H2464 C2482 0.951 . S
H2465 C2484 0.951 . S
H2466 C2486 0.950 . S
H2467 C2487 0.950 . S
H2468 C2489 0.950 . S
H2469 C2492 0.950 . S
H2470 C2493 0.950 . S
H2471 C2495 0.950 . S
H2472 C2496 0.950 . S
H2473 C2497 0.951 . S
H2474 C2499 0.951 . S
H2475 C2501 0.959 . S
H2476 C2502 0.950 . S
H2477 C2504 0.950 . S
H2478 C2507 0.950 . S
H2479 C2508 0.950 . S
H2480 C2510 0.950 . S
H2481 C2511 0.950 . S
C2482 H2464 0.951 . S
C2482 C2483 1.366 . S
C2482 C2484 1.388 . S
C2483 C2482 1.366 . S
C2483 C2487 1.385 . S
C2484 H2465 0.951 . S
C2484 C2482 1.388 . S
C2484 C2485 1.366 . S
C2485 C2484 1.366 . S
C2485 C2486 1.414 . S
C2485 C2488 1.499 . S
C2486 H2466 0.950 . S
C2486 C2485 1.414 . S
C2486 C2487 1.374 . S
C2487 H2467 0.950 . S
C2487 C2483 1.385 . S
C2487 C2486 1.374 . S
C2488 C2485 1.499 . S
C2488 C2489 1.373 . S
C2488 C2490 1.389 . S
C2489 H2468 0.950 . S
C2489 C2488 1.373 . S
C2489 C2505 1.377 . S
C2490 C2488 1.389 . S
C2490 C2491 1.524 . S
C2490 C2504 1.377 . S
C2491 C2490 1.524 . S
C2491 C2492 1.397 . S
C2491 C2496 1.363 . S
C2492 H2469 0.950 . S
C2492 C2491 1.397 . S
C2492 C2493 1.334 . S
C2493 H2470 0.950 . S
C2493 C2492 1.334 . S
C2493 C2494 1.287 . S
C2494 C2493 1.287 . S
C2494 C2495 1.524 . S
C2494 H2513 0.913 . S
C2495 H2471 0.950 . S
C2495 C2494 1.524 . S
C2495 C2496 1.415 . S
C2496 H2472 0.950 . S
C2496 C2491 1.363 . S
C2496 C2495 1.415 . S
C2497 H2473 0.951 . S
C2497 C2498 1.366 1_565 S
C2497 C2499 1.388 . S
C2498 C2497 1.366 1_545 S
C2498 C2502 1.385 . S
C2499 H2474 0.951 . S
C2499 C2497 1.388 . S
C2499 C2500 1.366 . S
C2500 C2499 1.366 . S
C2500 C2501 1.391 1_565 S
C2500 C2503 1.499 . S
C2501 H2475 0.959 . S
C2501 C2500 1.391 1_545 S
C2501 C2502 1.388 . S
C2502 H2476 0.950 . S
C2502 C2498 1.385 . S
C2502 C2501 1.388 . S
C2503 C2500 1.499 . S
C2503 C2504 1.373 . S
C2503 C2505 1.389 . S
C2504 H2477 0.950 . S
C2504 C2490 1.377 . S
C2504 C2503 1.373 . S
C2505 C2489 1.377 . S
C2505 C2503 1.389 . S
C2505 C2506 1.524 . S
C2506 C2505 1.524 . S
C2506 C2507 1.397 . S
C2506 C2511 1.363 . S
C2507 H2478 0.950 . S
C2507 C2506 1.397 . S
C2507 C2508 1.334 . S
C2508 H2479 0.950 . S
C2508 C2507 1.334 . S
C2508 C2509 1.287 . S
C2509 C2508 1.287 . S
C2509 C2510 1.524 . S
C2509 H2512 0.999 . S
C2510 H2480 0.950 . S
C2510 C2509 1.524 . S
C2510 C2511 1.415 . S
C2511 H2481 0.950 . S
C2511 C2506 1.363 . S
C2511 C2510 1.415 . S
H2512 C2509 0.999 . S
H2513 C2494 0.913 . S
H2514 C2532 0.951 . S
H2515 C2534 0.951 . S
H2516 C2536 0.956 . S
H2517 C2537 0.950 . S
H2518 C2539 0.950 . S
H2519 C2542 0.950 . S
H2520 C2543 0.950 . S
H2521 C2545 0.950 . S
H2522 C2546 0.950 . S
H2523 C2547 0.951 . S
H2524 C2549 0.951 . S
H2525 C2551 0.950 . S
H2526 C2552 0.950 . S
H2527 C2554 0.950 . S
H2528 C2557 0.950 . S
H2529 C2558 0.950 . S
H2530 C2560 0.950 . S
H2531 C2561 0.950 . S
C2532 H2514 0.951 . S
C2532 C2533 1.366 1_565 S
C2532 C2534 1.388 . S
C2533 C2532 1.366 1_545 S
C2533 C2537 1.385 . S
C2534 H2515 0.951 . S
C2534 C2532 1.388 . S
C2534 C2535 1.366 . S
C2535 C2534 1.366 . S
C2535 C2536 1.399 1_565 S
C2535 C2538 1.499 . S
C2536 H2516 0.956 . S
C2536 C2535 1.399 1_545 S
C2536 C2537 1.383 . S
C2537 H2517 0.950 . S
C2537 C2533 1.385 . S
C2537 C2536 1.383 . S
C2538 C2535 1.499 . S
C2538 C2539 1.373 . S
C2538 C2540 1.389 . S
C2539 H2518 0.950 . S
C2539 C2538 1.373 . S
C2539 C2555 1.377 . S
C2540 C2538 1.389 . S
C2540 C2541 1.524 . S
C2540 C2554 1.377 . S
C2541 C2540 1.524 . S
C2541 C2542 1.397 . S
C2541 C2546 1.363 . S
C2542 H2519 0.950 . S
C2542 C2541 1.397 . S
C2542 C2543 1.334 . S
C2543 H2520 0.950 . S
C2543 C2542 1.334 . S
C2543 C2544 1.287 . S
C2544 C2543 1.287 . S
C2544 C2545 1.524 . S
C2544 H2563 0.913 . S
C2545 H2521 0.950 . S
C2545 C2544 1.524 . S
C2545 C2546 1.415 . S
C2546 H2522 0.950 . S
C2546 C2541 1.363 . S
C2546 C2545 1.415 . S
C2547 H2523 0.951 . S
C2547 C2548 1.366 . S
C2547 C2549 1.388 . S
C2548 C2547 1.366 . S
C2548 C2552 1.385 . S
C2549 H2524 0.951 . S
C2549 C2547 1.388 . S
C2549 C2550 1.366 . S
C2550 C2549 1.366 . S
C2550 C2551 1.414 . S
C2550 C2553 1.499 . S
C2551 H2525 0.950 . S
C2551 C2550 1.414 . S
C2551 C2552 1.374 . S
C2552 H2526 0.950 . S
C2552 C2548 1.385 . S
C2552 C2551 1.374 . S
C2553 C2550 1.499 . S
C2553 C2554 1.373 . S
C2553 C2555 1.389 . S
C2554 H2527 0.950 . S
C2554 C2540 1.377 . S
C2554 C2553 1.373 . S
C2555 C2539 1.377 . S
C2555 C2553 1.389 . S
C2555 C2556 1.524 . S
C2556 C2555 1.524 . S
C2556 C2557 1.397 . S
C2556 C2561 1.363 . S
C2557 H2528 0.950 . S
C2557 C2556 1.397 . S
C2557 C2558 1.334 . S
C2558 H2529 0.950 . S
C2558 C2557 1.334 . S
C2558 C2559 1.287 . S
C2559 C2558 1.287 . S
C2559 C2560 1.524 . S
C2559 H2562 0.999 . S
C2560 H2530 0.950 . S
C2560 C2559 1.524 . S
C2560 C2561 1.415 . S
C2561 H2531 0.950 . S
C2561 C2556 1.363 . S
C2561 C2560 1.415 . S
H2562 C2559 0.999 . S
H2563 C2544 0.913 . S
H2564 C2582 0.951 . S
H2565 C2584 0.951 . S
H2566 C2586 0.950 . S
H2567 C2587 0.950 . S
H2568 C2589 0.950 . S
H2569 C2592 0.950 . S
H2570 C2593 0.950 . S
H2571 C2595 0.950 1_565 S
H2572 C2596 0.950 . S
H2573 C2597 0.951 . S
H2574 C2599 0.951 . S
H2575 C2601 0.950 . S
H2576 C2602 0.950 . S
H2577 C2604 0.950 . S
H2578 C2607 0.950 . S
H2579 C2608 0.950 . S
H2580 C2610 0.950 . S
H2581 C2611 0.950 . S
C2582 H2564 0.951 . S
C2582 C2583 1.366 . S
C2582 C2584 1.388 . S
C2583 C2582 1.366 . S
C2583 C2587 1.385 . S
C2584 H2565 0.951 . S
C2584 C2582 1.388 . S
C2584 C2585 1.366 . S
C2585 C2584 1.366 . S
C2585 C2586 1.414 . S
C2585 C2588 1.499 . S
C2586 H2566 0.950 . S
C2586 C2585 1.414 . S
C2586 C2587 1.374 . S
C2587 H2567 0.950 . S
C2587 C2583 1.385 . S
C2587 C2586 1.374 . S
C2588 C2585 1.499 . S
C2588 C2589 1.373 . S
C2588 C2590 1.389 . S
C2589 H2568 0.950 . S
C2589 C2588 1.373 . S
C2589 C2605 1.377 . S
C2590 C2588 1.389 . S
C2590 C2591 1.524 . S
C2590 C2604 1.377 . S
C2591 C2590 1.524 . S
C2591 C2592 1.397 . S
C2591 C2596 1.363 . S
C2592 H2569 0.950 . S
C2592 C2591 1.397 . S
C2592 C2593 1.334 . S
C2593 H2570 0.950 . S
C2593 C2592 1.334 . S
C2593 C2594 1.287 . S
C2594 C2593 1.287 . S
C2594 C2595 1.524 . S
C2594 H2613 0.913 . S
C2595 H2571 0.950 1_545 S
C2595 C2594 1.524 . S
C2595 C2596 1.415 . S
C2596 H2572 0.950 . S
C2596 C2591 1.363 . S
C2596 C2595 1.415 . S
C2597 H2573 0.951 . S
C2597 C2598 1.366 1_545 S
C2597 C2599 1.388 . S
C2598 C2597 1.366 1_565 S
C2598 C2602 1.385 . S
C2599 H2574 0.951 . S
C2599 C2597 1.388 . S
C2599 C2600 1.366 . S
C2600 C2599 1.366 . S
C2600 C2601 1.414 . S
C2600 C2603 1.499 . S
C2601 H2575 0.950 . S
C2601 C2600 1.414 . S
C2601 C2602 1.374 1_545 S
C2602 H2576 0.950 . S
C2602 C2598 1.385 . S
C2602 C2601 1.374 1_565 S
C2603 C2600 1.499 . S
C2603 C2604 1.373 . S
C2603 C2605 1.389 . S
C2604 H2577 0.950 . S
C2604 C2590 1.377 . S
C2604 C2603 1.373 . S
C2605 C2589 1.377 . S
C2605 C2603 1.389 . S
C2605 C2606 1.524 . S
C2606 C2605 1.524 . S
C2606 C2607 1.397 . S
C2606 C2611 1.363 . S
C2607 H2578 0.950 . S
C2607 C2606 1.397 . S
C2607 C2608 1.334 . S
C2608 H2579 0.950 . S
C2608 C2607 1.334 . S
C2608 C2609 1.287 . S
C2609 C2608 1.287 . S
C2609 C2610 1.524 . S
C2609 H2612 0.999 . S
C2610 H2580 0.950 . S
C2610 C2609 1.524 . S
C2610 C2611 1.415 . S
C2611 H2581 0.950 . S
C2611 C2606 1.363 . S
C2611 C2610 1.415 . S
H2612 C2609 0.999 . S
H2613 C2594 0.913 . S
H2614 C2632 0.951 . S
H2615 C2634 0.951 . S
H2616 C2636 0.950 . S
H2617 C2637 0.950 . S
H2618 C2639 0.950 . S
H2619 C2642 0.950 . S
H2620 C2643 0.950 . S
H2621 C2645 0.958 . S
H2622 C2646 0.950 . S
H2623 C2647 0.951 . S
H2624 C2649 0.951 . S
H2625 C2651 0.950 . S
H2626 C2652 0.950 . S
H2627 C2654 0.950 . S
H2628 C2657 0.950 . S
H2629 C2658 0.950 . S
H2630 C2660 0.950 . S
H2631 C2661 0.950 . S
C2632 H2614 0.951 . S
C2632 C2633 1.366 . S
C2632 C2634 1.388 . S
C2633 C2632 1.366 . S
C2633 C2637 1.385 . S
C2634 H2615 0.951 . S
C2634 C2632 1.388 . S
C2634 C2635 1.366 . S
C2635 C2634 1.366 . S
C2635 C2636 1.414 . S
C2635 C2638 1.499 . S
C2636 H2616 0.950 . S
C2636 C2635 1.414 . S
C2636 C2637 1.374 . S
C2637 H2617 0.950 . S
C2637 C2633 1.385 . S
C2637 C2636 1.374 . S
C2638 C2635 1.499 . S
C2638 C2639 1.373 . S
C2638 C2640 1.389 . S
C2639 H2618 0.950 . S
C2639 C2638 1.373 . S
C2639 C2655 1.377 . S
C2640 C2638 1.389 . S
C2640 C2641 1.524 . S
C2640 C2654 1.377 . S
C2641 C2640 1.524 . S
C2641 C2642 1.397 . S
C2641 C2646 1.363 . S
C2642 H2619 0.950 . S
C2642 C2641 1.397 . S
C2642 C2643 1.334 . S
C2643 H2620 0.950 . S
C2643 C2642 1.334 . S
C2643 C2644 1.287 . S
C2644 C2643 1.287 . S
C2644 C2645 1.524 . S
C2644 H2663 0.913 . S
C2645 H2621 0.958 . S
C2645 C2644 1.524 . S
C2645 C2646 1.415 . S
C2646 H2622 0.950 . S
C2646 C2641 1.363 . S
C2646 C2645 1.415 . S
C2647 H2623 0.951 . S
C2647 C2648 1.366 1_545 S
C2647 C2649 1.388 . S
C2648 C2647 1.366 1_565 S
C2648 C2652 1.385 . S
C2649 H2624 0.951 . S
C2649 C2647 1.388 . S
C2649 C2650 1.366 . S
C2650 C2649 1.366 . S
C2650 C2651 1.414 . S
C2650 C2653 1.499 . S
C2651 H2625 0.950 . S
C2651 C2650 1.414 . S
C2651 C2652 1.374 1_545 S
C2652 H2626 0.950 . S
C2652 C2648 1.385 . S
C2652 C2651 1.374 1_565 S
C2653 C2650 1.499 . S
C2653 C2654 1.373 . S
C2653 C2655 1.389 . S
C2654 H2627 0.950 . S
C2654 C2640 1.377 . S
C2654 C2653 1.373 . S
C2655 C2639 1.377 . S
C2655 C2653 1.389 . S
C2655 C2656 1.524 . S
C2656 C2655 1.524 . S
C2656 C2657 1.397 . S
C2656 C2661 1.363 . S
C2657 H2628 0.950 . S
C2657 C2656 1.397 . S
C2657 C2658 1.334 . S
C2658 H2629 0.950 . S
C2658 C2657 1.334 . S
C2658 C2659 1.287 . S
C2659 C2658 1.287 . S
C2659 C2660 1.524 . S
C2659 H2662 0.999 . S
C2660 H2630 0.950 . S
C2660 C2659 1.524 . S
C2660 C2661 1.415 . S
C2661 H2631 0.950 . S
C2661 C2656 1.363 . S
C2661 C2660 1.415 . S
H2662 C2659 0.999 . S
H2663 C2644 0.913 . S
H2664 C2682 0.951 . S
H2665 C2684 0.951 . S
H2666 C2686 0.950 . S
H2667 C2687 0.950 1_565 S
H2668 C2689 0.950 . S
H2669 C2692 0.950 . S
H2670 C2693 0.950 . S
H2671 C2695 0.950 . S
H2672 C2696 0.950 . S
H2673 C2697 0.951 . S
H2674 C2699 0.951 . S
H2675 C2701 0.950 . S
H2676 C2702 0.950 . S
H2677 C2704 0.950 . S
H2678 C2707 0.950 . S
H2679 C2708 0.950 . S
H2680 C2710 0.950 . S
H2681 C2711 0.950 . S
C2682 H2664 0.951 . S
C2682 C2683 1.366 . S
C2682 C2684 1.388 . S
C2683 C2682 1.366 . S
C2683 C2687 1.385 . S
C2684 H2665 0.951 . S
C2684 C2682 1.388 . S
C2684 C2685 1.366 . S
C2685 C2684 1.366 . S
C2685 C2686 1.414 . S
C2685 C2688 1.499 . S
C2686 H2666 0.950 . S
C2686 C2685 1.414 . S
C2686 C2687 1.374 . S
C2687 H2667 0.950 1_545 S
C2687 C2683 1.385 . S
C2687 C2686 1.374 . S
C2688 C2685 1.499 . S
C2688 C2689 1.373 . S
C2688 C2690 1.389 . S
C2689 H2668 0.950 . S
C2689 C2688 1.373 . S
C2689 C2705 1.377 . S
C2690 C2688 1.389 . S
C2690 C2691 1.524 . S
C2690 C2704 1.377 . S
C2691 C2690 1.524 . S
C2691 C2692 1.397 . S
C2691 C2696 1.363 . S
C2692 H2669 0.950 . S
C2692 C2691 1.397 . S
C2692 C2693 1.334 . S
C2693 H2670 0.950 . S
C2693 C2692 1.334 . S
C2693 C2694 1.287 . S
C2694 C2693 1.287 . S
C2694 C2695 1.524 . S
C2694 H2713 0.913 . S
C2695 H2671 0.950 . S
C2695 C2694 1.524 . S
C2695 C2696 1.415 . S
C2696 H2672 0.950 . S
C2696 C2691 1.363 . S
C2696 C2695 1.415 . S
C2697 H2673 0.951 . S
C2697 C2698 1.366 . S
C2697 C2699 1.388 . S
C2698 C2697 1.366 . S
C2698 C2702 1.385 . S
C2699 H2674 0.951 . S
C2699 C2697 1.388 . S
C2699 C2700 1.366 . S
C2700 C2699 1.366 . S
C2700 C2701 1.414 . S
C2700 C2703 1.499 . S
C2701 H2675 0.950 . S
C2701 C2700 1.414 . S
C2701 C2702 1.374 . S
C2702 H2676 0.950 . S
C2702 C2698 1.385 . S
C2702 C2701 1.374 . S
C2703 C2700 1.499 . S
C2703 C2704 1.373 . S
C2703 C2705 1.389 . S
C2704 H2677 0.950 . S
C2704 C2690 1.377 . S
C2704 C2703 1.373 . S
C2705 C2689 1.377 . S
C2705 C2703 1.389 . S
C2705 C2706 1.524 . S
C2706 C2705 1.524 . S
C2706 C2707 1.397 . S
C2706 C2711 1.363 . S
C2707 H2678 0.950 . S
C2707 C2706 1.397 . S
C2707 C2708 1.334 . S
C2708 H2679 0.950 . S
C2708 C2707 1.334 . S
C2708 C2709 1.287 . S
C2709 C2708 1.287 . S
C2709 C2710 1.524 . S
C2709 H2712 0.999 . S
C2710 H2680 0.950 . S
C2710 C2709 1.524 . S
C2710 C2711 1.415 . S
C2711 H2681 0.950 . S
C2711 C2706 1.363 . S
C2711 C2710 1.415 . S
H2712 C2709 0.999 . S
H2713 C2694 0.913 . S
H2714 C2732 0.951 . S
H2715 C2734 0.951 . S
H2716 C2736 0.950 . S
H2717 C2737 0.950 . S
H2718 C2739 0.950 . S
H2719 C2742 0.950 . S
H2720 C2743 0.950 . S
H2721 C2745 0.950 . S
H2722 C2746 0.950 . S
H2723 C2747 0.951 1_565 S
H2724 C2749 0.951 . S
H2725 C2751 0.950 . S
H2726 C2752 0.950 . S
H2727 C2754 0.950 . S
H2728 C2757 0.950 . S
H2729 C2758 0.950 . S
H2730 C2760 0.950 . S
H2731 C2761 0.950 . S
C2732 H2714 0.951 . S
C2732 C2733 1.366 . S
C2732 C2734 1.388 . S
C2733 C2732 1.366 . S
C2733 C2737 1.385 . S
C2734 H2715 0.951 . S
C2734 C2732 1.388 . S
C2734 C2735 1.366 . S
C2735 C2734 1.366 . S
C2735 C2736 1.414 . S
C2735 C2738 1.499 . S
C2736 H2716 0.950 . S
C2736 C2735 1.414 . S
C2736 C2737 1.374 . S
C2737 H2717 0.950 . S
C2737 C2733 1.385 . S
C2737 C2736 1.374 . S
C2738 C2735 1.499 . S
C2738 C2739 1.373 . S
C2738 C2740 1.389 . S
C2739 H2718 0.950 . S
C2739 C2738 1.373 . S
C2739 C2755 1.377 . S
C2740 C2738 1.389 . S
C2740 C2741 1.524 . S
C2740 C2754 1.377 . S
C2741 C2740 1.524 . S
C2741 C2742 1.397 . S
C2741 C2746 1.363 . S
C2742 H2719 0.950 . S
C2742 C2741 1.397 . S
C2742 C2743 1.334 . S
C2743 H2720 0.950 . S
C2743 C2742 1.334 . S
C2743 C2744 1.287 . S
C2744 C2743 1.287 . S
C2744 C2745 1.524 . S
C2744 H2763 0.913 . S
C2745 H2721 0.950 . S
C2745 C2744 1.524 . S
C2745 C2746 1.415 . S
C2746 H2722 0.950 . S
C2746 C2741 1.363 . S
C2746 C2745 1.415 . S
C2747 H2723 0.951 1_545 S
C2747 C2748 1.366 . S
C2747 C2749 1.388 . S
C2748 C2747 1.366 . S
C2748 C2752 1.385 . S
C2749 H2724 0.951 . S
C2749 C2747 1.388 . S
C2749 C2750 1.366 . S
C2750 C2749 1.366 . S
C2750 C2751 1.414 . S
C2750 C2753 1.499 . S
C2751 H2725 0.950 . S
C2751 C2750 1.414 . S
C2751 C2752 1.374 . S
C2752 H2726 0.950 . S
C2752 C2748 1.385 . S
C2752 C2751 1.374 . S
C2753 C2750 1.499 . S
C2753 C2754 1.373 . S
C2753 C2755 1.389 . S
C2754 H2727 0.950 . S
C2754 C2740 1.377 . S
C2754 C2753 1.373 . S
C2755 C2739 1.377 . S
C2755 C2753 1.389 . S
C2755 C2756 1.524 . S
C2756 C2755 1.524 . S
C2756 C2757 1.397 . S
C2756 C2761 1.363 . S
C2757 H2728 0.950 . S
C2757 C2756 1.397 . S
C2757 C2758 1.334 . S
C2758 H2729 0.950 . S
C2758 C2757 1.334 . S
C2758 C2759 1.287 . S
C2759 C2758 1.287 . S
C2759 C2760 1.524 . S
C2759 H2762 0.999 . S
C2760 H2730 0.950 . S
C2760 C2759 1.524 . S
C2760 C2761 1.415 . S
C2761 H2731 0.950 . S
C2761 C2756 1.363 . S
C2761 C2760 1.415 . S
H2762 C2759 0.999 . S
H2763 C2744 0.913 . S
H2764 C2782 0.951 . S
H2765 C2784 0.951 . S
H2766 C2786 0.950 . S
H2767 C2787 0.950 . S
H2768 C2789 0.950 . S
H2769 C2792 0.950 . S
H2770 C2793 0.950 . S
H2771 C2795 0.950 . S
H2772 C2796 0.950 . S
H2773 C2797 0.951 . S
H2774 C2799 0.951 . S
H2775 C2801 0.950 . S
H2776 C2802 0.950 . S
H2777 C2804 0.950 . S
H2778 C2807 0.950 . S
H2779 C2808 0.950 . S
H2780 C2810 0.956 . S
H2781 C2811 0.950 . S
C2782 H2764 0.951 . S
C2782 C2783 1.366 . S
C2782 C2784 1.388 . S
C2783 C2782 1.366 . S
C2783 C2787 1.385 . S
C2784 H2765 0.951 . S
C2784 C2782 1.388 . S
C2784 C2785 1.366 . S
C2785 C2784 1.366 . S
C2785 C2786 1.414 . S
C2785 C2788 1.499 . S
C2786 H2766 0.950 . S
C2786 C2785 1.414 . S
C2786 C2787 1.374 . S
C2787 H2767 0.950 . S
C2787 C2783 1.385 . S
C2787 C2786 1.374 . S
C2788 C2785 1.499 . S
C2788 C2789 1.373 . S
C2788 C2790 1.389 . S
C2789 H2768 0.950 . S
C2789 C2788 1.373 . S
C2789 C2805 1.377 . S
C2790 C2788 1.389 . S
C2790 C2791 1.524 . S
C2790 C2804 1.377 . S
C2791 C2790 1.524 . S
C2791 C2792 1.397 . S
C2791 C2796 1.363 . S
C2792 H2769 0.950 . S
C2792 C2791 1.397 . S
C2792 C2793 1.334 . S
C2793 H2770 0.950 . S
C2793 C2792 1.334 . S
C2793 C2794 1.287 . S
C2794 C2793 1.287 . S
C2794 C2795 1.524 . S
C2794 H2813 0.913 . S
C2795 H2771 0.950 . S
C2795 C2794 1.524 . S
C2795 C2796 1.415 . S
C2796 H2772 0.950 . S
C2796 C2791 1.363 . S
C2796 C2795 1.415 . S
C2797 H2773 0.951 . S
C2797 C2798 1.366 . S
C2797 C2799 1.388 . S
C2798 C2797 1.366 . S
C2798 C2802 1.385 . S
C2799 H2774 0.951 . S
C2799 C2797 1.388 . S
C2799 C2800 1.366 . S
C2800 C2799 1.366 . S
C2800 C2801 1.414 . S
C2800 C2803 1.499 . S
C2801 H2775 0.950 . S
C2801 C2800 1.414 . S
C2801 C2802 1.374 . S
C2802 H2776 0.950 . S
C2802 C2798 1.385 . S
C2802 C2801 1.374 . S
C2803 C2800 1.499 . S
C2803 C2804 1.373 . S
C2803 C2805 1.389 . S
C2804 H2777 0.950 . S
C2804 C2790 1.377 . S
C2804 C2803 1.373 . S
C2805 C2789 1.377 . S
C2805 C2803 1.389 . S
C2805 C2806 1.524 . S
C2806 C2805 1.524 . S
C2806 C2807 1.397 . S
C2806 C2811 1.363 . S
C2807 H2778 0.950 . S
C2807 C2806 1.397 . S
C2807 C2808 1.334 1_565 S
C2808 H2779 0.950 . S
C2808 C2807 1.334 1_545 S
C2808 C2809 1.287 . S
C2809 C2808 1.287 . S
C2809 C2810 1.543 . S
C2809 H2812 0.999 . S
C2810 H2780 0.956 . S
C2810 C2809 1.543 . S
C2810 C2811 1.390 1_545 S
C2811 H2781 0.950 . S
C2811 C2806 1.363 . S
C2811 C2810 1.390 1_565 S
H2812 C2809 0.999 . S
H2813 C2794 0.913 . S
H2814 C2832 0.951 . S
H2815 C2834 0.951 . S
H2816 C2836 0.950 . S
H2817 C2837 0.950 . S
H2818 C2839 0.950 . S
H2819 C2842 0.950 . S
H2820 C2843 0.950 . S
H2821 C2845 0.950 . S
H2822 C2846 0.950 . S
H2823 C2847 0.951 . S
H2824 C2849 0.951 . S
H2825 C2851 0.950 . S
H2826 C2852 0.950 . S
H2827 C2854 0.950 . S
H2828 C2857 0.950 . S
H2829 C2858 0.950 . S
H2830 C2860 0.950 . S
H2831 C2861 0.950 . S
C2832 H2814 0.951 . S
C2832 C2833 1.366 . S
C2832 C2834 1.388 . S
C2833 C2832 1.366 . S
C2833 C2837 1.385 . S
C2834 H2815 0.951 . S
C2834 C2832 1.388 . S
C2834 C2835 1.366 . S
C2835 C2834 1.366 . S
C2835 C2836 1.414 . S
C2835 C2838 1.499 . S
C2836 H2816 0.950 . S
C2836 C2835 1.414 . S
C2836 C2837 1.374 . S
C2837 H2817 0.950 . S
C2837 C2833 1.385 . S
C2837 C2836 1.374 . S
C2838 C2835 1.499 . S
C2838 C2839 1.373 . S
C2838 C2840 1.389 . S
C2839 H2818 0.950 . S
C2839 C2838 1.373 . S
C2839 C2855 1.377 . S
C2840 C2838 1.389 . S
C2840 C2841 1.524 . S
C2840 C2854 1.377 . S
C2841 C2840 1.524 . S
C2841 C2842 1.397 . S
C2841 C2846 1.363 . S
C2842 H2819 0.950 . S
C2842 C2841 1.397 . S
C2842 C2843 1.334 1_565 S
C2843 H2820 0.950 . S
C2843 C2842 1.334 1_545 S
C2843 C2844 1.287 . S
C2844 C2843 1.287 . S
C2844 C2845 1.524 . S
C2844 H2863 0.913 . S
C2845 H2821 0.950 . S
C2845 C2844 1.524 . S
C2845 C2846 1.415 1_545 S
C2846 H2822 0.950 . S
C2846 C2841 1.363 . S
C2846 C2845 1.415 1_565 S
C2847 H2823 0.951 . S
C2847 C2848 1.366 . S
C2847 C2849 1.388 . S
C2848 C2847 1.366 . S
C2848 C2852 1.385 . S
C2849 H2824 0.951 . S
C2849 C2847 1.388 . S
C2849 C2850 1.366 . S
C2850 C2849 1.366 . S
C2850 C2851 1.414 . S
C2850 C2853 1.499 . S
C2851 H2825 0.950 . S
C2851 C2850 1.414 . S
C2851 C2852 1.374 . S
C2852 H2826 0.950 . S
C2852 C2848 1.385 . S
C2852 C2851 1.374 . S
C2853 C2850 1.499 . S
C2853 C2854 1.373 . S
C2853 C2855 1.389 . S
C2854 H2827 0.950 . S
C2854 C2840 1.377 . S
C2854 C2853 1.373 . S
C2855 C2839 1.377 . S
C2855 C2853 1.389 . S
C2855 C2856 1.524 . S
C2856 C2855 1.524 . S
C2856 C2857 1.397 . S
C2856 C2861 1.363 . S
C2857 H2828 0.950 . S
C2857 C2856 1.397 . S
C2857 C2858 1.334 . S
C2858 H2829 0.950 . S
C2858 C2857 1.334 . S
C2858 C2859 1.287 . S
C2859 C2858 1.287 . S
C2859 C2860 1.524 . S
C2859 H2862 0.999 . S
C2860 H2830 0.950 . S
C2860 C2859 1.524 . S
C2860 C2861 1.415 . S
C2861 H2831 0.950 . S
C2861 C2856 1.363 . S
C2861 C2860 1.415 . S
H2862 C2859 0.999 . S
H2863 C2844 0.913 . S
H2864 C2882 0.951 . S
H2865 C2884 0.951 . S
H2866 C2886 0.950 . S
H2867 C2887 0.950 . S
H2868 C2889 0.950 . S
H2869 C2892 0.950 . S
H2870 C2893 0.950 . S
H2871 C2895 0.950 . S
H2872 C2896 0.950 . S
H2873 C2897 0.951 . S
H2874 C2899 0.951 . S
H2875 C2901 0.950 . S
H2876 C2902 0.950 . S
H2877 C2904 0.950 . S
H2878 C2907 0.950 . S
H2879 C2908 0.950 . S
H2880 C2910 0.950 . S
H2881 C2911 0.950 . S
C2882 H2864 0.951 . S
C2882 C2883 1.366 . S
C2882 C2884 1.388 . S
C2883 C2882 1.366 . S
C2883 C2887 1.385 . S
C2884 H2865 0.951 . S
C2884 C2882 1.388 . S
C2884 C2885 1.366 . S
C2885 C2884 1.366 . S
C2885 C2886 1.414 . S
C2885 C2888 1.499 . S
C2886 H2866 0.950 . S
C2886 C2885 1.414 . S
C2886 C2887 1.374 . S
C2887 H2867 0.950 . S
C2887 C2883 1.385 . S
C2887 C2886 1.374 . S
C2888 C2885 1.499 . S
C2888 C2889 1.373 . S
C2888 C2890 1.389 . S
C2889 H2868 0.950 . S
C2889 C2888 1.373 . S
C2889 C2905 1.377 . S
C2890 C2888 1.389 . S
C2890 C2891 1.524 . S
C2890 C2904 1.377 . S
C2891 C2890 1.524 . S
C2891 C2892 1.397 . S
C2891 C2896 1.363 . S
C2892 H2869 0.950 . S
C2892 C2891 1.397 . S
C2892 C2893 1.334 . S
C2893 H2870 0.950 . S
C2893 C2892 1.334 . S
C2893 C2894 1.287 . S
C2894 C2893 1.287 . S
C2894 C2895 1.524 . S
C2894 H2913 0.913 . S
C2895 H2871 0.950 . S
C2895 C2894 1.524 . S
C2895 C2896 1.415 . S
C2896 H2872 0.950 . S
C2896 C2891 1.363 . S
C2896 C2895 1.415 . S
C2897 H2873 0.951 . S
C2897 C2898 1.366 . S
C2897 C2899 1.388 . S
C2898 C2897 1.366 . S
C2898 C2902 1.385 . S
C2899 H2874 0.951 . S
C2899 C2897 1.388 . S
C2899 C2900 1.366 . S
C2900 C2899 1.366 . S
C2900 C2901 1.414 . S
C2900 C2903 1.499 . S
C2901 H2875 0.950 . S
C2901 C2900 1.414 . S
C2901 C2902 1.374 . S
C2902 H2876 0.950 . S
C2902 C2898 1.385 . S
C2902 C2901 1.374 . S
C2903 C2900 1.499 . S
C2903 C2904 1.373 . S
C2903 C2905 1.389 . S
C2904 H2877 0.950 . S
C2904 C2890 1.377 . S
C2904 C2903 1.373 . S
C2905 C2889 1.377 . S
C2905 C2903 1.389 . S
C2905 C2906 1.524 . S
C2906 C2905 1.524 . S
C2906 C2907 1.397 . S
C2906 C2911 1.363 . S
C2907 H2878 0.950 . S
C2907 C2906 1.397 . S
C2907 C2908 1.334 . S
C2908 H2879 0.950 . S
C2908 C2907 1.334 . S
C2908 C2909 1.287 . S
C2909 C2908 1.287 . S
C2909 C2910 1.524 . S
C2909 H2912 0.999 . S
C2910 H2880 0.950 . S
C2910 C2909 1.524 . S
C2910 C2911 1.415 . S
C2911 H2881 0.950 . S
C2911 C2906 1.363 . S
C2911 C2910 1.415 . S
H2912 C2909 0.999 . S
H2913 C2894 0.913 . S
H2914 C2932 0.951 . S
H2915 C2934 0.951 . S
H2916 C2936 0.950 . S
H2917 C2937 0.950 . S
H2918 C2939 0.950 . S
H2919 C2942 0.950 . S
H2920 C2943 0.950 . S
H2921 C2945 0.950 . S
H2922 C2946 0.950 . S
H2923 C2947 0.951 . S
H2924 C2949 0.951 . S
H2925 C2951 0.950 . S
H2926 C2952 0.950 . S
H2927 C2954 0.950 . S
H2928 C2957 0.950 . S
H2929 C2958 0.950 . S
H2930 C2960 0.950 . S
H2931 C2961 0.950 . S
C2932 H2914 0.951 . S
C2932 C2933 1.366 . S
C2932 C2934 1.388 . S
C2933 C2932 1.366 . S
C2933 C2937 1.385 . S
C2934 H2915 0.951 . S
C2934 C2932 1.388 . S
C2934 C2935 1.366 . S
C2935 C2934 1.366 . S
C2935 C2936 1.414 . S
C2935 C2938 1.499 . S
C2936 H2916 0.950 . S
C2936 C2935 1.414 . S
C2936 C2937 1.374 . S
C2937 H2917 0.950 . S
C2937 C2933 1.385 . S
C2937 C2936 1.374 . S
C2938 C2935 1.499 . S
C2938 C2939 1.373 . S
C2938 C2940 1.389 . S
C2939 H2918 0.950 . S
C2939 C2938 1.373 . S
C2939 C2955 1.377 . S
C2940 C2938 1.389 . S
C2940 C2941 1.524 . S
C2940 C2954 1.377 . S
C2941 C2940 1.524 . S
C2941 C2942 1.397 . S
C2941 C2946 1.363 . S
C2942 H2919 0.950 . S
C2942 C2941 1.397 . S
C2942 C2943 1.334 . S
C2943 H2920 0.950 . S
C2943 C2942 1.334 . S
C2943 C2944 1.287 . S
C2944 C2943 1.287 . S
C2944 C2945 1.524 . S
C2944 H2963 0.913 . S
C2945 H2921 0.950 . S
C2945 C2944 1.524 . S
C2945 C2946 1.415 . S
C2946 H2922 0.950 . S
C2946 C2941 1.363 . S
C2946 C2945 1.415 . S
C2947 H2923 0.951 . S
C2947 C2948 1.366 . S
C2947 C2949 1.388 . S
C2948 C2947 1.366 . S
C2948 C2952 1.385 . S
C2949 H2924 0.951 . S
C2949 C2947 1.388 . S
C2949 C2950 1.366 . S
C2950 C2949 1.366 . S
C2950 C2951 1.414 . S
C2950 C2953 1.499 . S
C2951 H2925 0.950 . S
C2951 C2950 1.414 . S
C2951 C2952 1.374 . S
C2952 H2926 0.950 . S
C2952 C2948 1.385 . S
C2952 C2951 1.374 . S
C2953 C2950 1.499 . S
C2953 C2954 1.373 . S
C2953 C2955 1.389 . S
C2954 H2927 0.950 . S
C2954 C2940 1.377 . S
C2954 C2953 1.373 . S
C2955 C2939 1.377 . S
C2955 C2953 1.389 . S
C2955 C2956 1.524 . S
C2956 C2955 1.524 . S
C2956 C2957 1.397 . S
C2956 C2961 1.363 . S
C2957 H2928 0.950 . S
C2957 C2956 1.397 . S
C2957 C2958 1.334 . S
C2958 H2929 0.950 . S
C2958 C2957 1.334 . S
C2958 C2959 1.287 . S
C2959 C2958 1.287 . S
C2959 C2960 1.524 . S
C2959 H2962 0.999 . S
C2960 H2930 0.950 . S
C2960 C2959 1.524 . S
C2960 C2961 1.415 . S
C2961 H2931 0.950 . S
C2961 C2956 1.363 . S
C2961 C2960 1.415 . S
H2962 C2959 0.999 . S
H2963 C2944 0.913 . S
H2964 C2982 0.951 . S
H2965 C2984 0.951 . S
H2966 C2986 0.950 . S
H2967 C2987 0.950 . S
H2968 C2989 0.950 . S
H2969 C2992 0.950 . S
H2970 C2993 0.950 . S
H2971 C2995 0.950 . S
H2972 C2996 0.950 . S
H2973 C2997 0.951 . S
H2974 C2999 0.951 . S
H2975 C3001 0.950 . S
H2976 C3002 0.950 . S
H2977 C3004 0.950 . S
H2978 C3007 0.950 . S
H2979 C3008 0.950 . S
H2980 C3010 0.950 . S
H2981 C3011 0.950 . S
C2982 H2964 0.951 . S
C2982 C2983 1.366 . S
C2982 C2984 1.388 . S
C2983 C2982 1.366 . S
C2983 C2987 1.385 . S
C2984 H2965 0.951 . S
C2984 C2982 1.388 . S
C2984 C2985 1.366 . S
C2985 C2984 1.366 . S
C2985 C2986 1.414 . S
C2985 C2988 1.499 . S
C2986 H2966 0.950 . S
C2986 C2985 1.414 . S
C2986 C2987 1.374 . S
C2987 H2967 0.950 . S
C2987 C2983 1.385 . S
C2987 C2986 1.374 . S
C2988 C2985 1.499 . S
C2988 C2989 1.373 . S
C2988 C2990 1.389 . S
C2989 H2968 0.950 . S
C2989 C2988 1.373 . S
C2989 C3005 1.377 . S
C2990 C2988 1.389 . S
C2990 C2991 1.524 . S
C2990 C3004 1.377 . S
C2991 C2990 1.524 . S
C2991 C2992 1.397 . S
C2991 C2996 1.363 . S
C2992 H2969 0.950 . S
C2992 C2991 1.397 . S
C2992 C2993 1.334 . S
C2993 H2970 0.950 . S
C2993 C2992 1.334 . S
C2993 C2994 1.287 . S
C2994 C2993 1.287 . S
C2994 C2995 1.524 . S
C2994 H3013 0.913 . S
C2995 H2971 0.950 . S
C2995 C2994 1.524 . S
C2995 C2996 1.415 . S
C2996 H2972 0.950 . S
C2996 C2991 1.363 . S
C2996 C2995 1.415 . S
C2997 H2973 0.951 . S
C2997 C2998 1.366 . S
C2997 C2999 1.388 . S
C2998 C2997 1.366 . S
C2998 C3002 1.385 . S
C2999 H2974 0.951 . S
C2999 C2997 1.388 . S
C2999 C3000 1.366 . S
C3000 C2999 1.366 . S
C3000 C3001 1.414 . S
C3000 C3003 1.499 . S
C3001 H2975 0.950 . S
C3001 C3000 1.414 . S
C3001 C3002 1.374 . S
C3002 H2976 0.950 . S
C3002 C2998 1.385 . S
C3002 C3001 1.374 . S
C3003 C3000 1.499 . S
C3003 C3004 1.373 . S
C3003 C3005 1.389 . S
C3004 H2977 0.950 . S
C3004 C2990 1.377 . S
C3004 C3003 1.373 . S
C3005 C2989 1.377 . S
C3005 C3003 1.389 . S
C3005 C3006 1.524 . S
C3006 C3005 1.524 . S
C3006 C3007 1.397 . S
C3006 C3011 1.363 . S
C3007 H2978 0.950 . S
C3007 C3006 1.397 . S
C3007 C3008 1.334 . S
C3008 H2979 0.950 . S
C3008 C3007 1.334 . S
C3008 C3009 1.287 . S
C3009 C3008 1.287 . S
C3009 C3010 1.524 . S
C3009 H3012 0.999 . S
C3010 H2980 0.950 . S
C3010 C3009 1.524 . S
C3010 C3011 1.415 . S
C3011 H2981 0.950 . S
C3011 C3006 1.363 . S
C3011 C3010 1.415 . S
H3012 C3009 0.999 . S
H3013 C2994 0.913 . S
H3014 C3032 0.951 . S
H3015 C3034 0.951 . S
H3016 C3036 0.950 . S
H3017 C3037 0.950 . S
H3018 C3039 0.950 . S
H3019 C3042 0.950 . S
H3020 C3043 0.950 . S
H3021 C3045 0.950 . S
H3022 C3046 0.950 . S
H3023 C3047 0.951 . S
H3024 C3049 0.951 . S
H3025 C3051 0.950 . S
H3026 C3052 0.950 . S
H3027 C3054 0.950 . S
H3028 C3057 0.950 . S
H3029 C3058 0.950 . S
H3030 C3060 0.950 . S
H3031 C3061 0.950 . S
C3032 H3014 0.951 . S
C3032 C3033 1.366 . S
C3032 C3034 1.388 . S
C3033 C3032 1.366 . S
C3033 C3037 1.385 . S
C3034 H3015 0.951 . S
C3034 C3032 1.388 . S
C3034 C3035 1.366 . S
C3035 C3034 1.366 . S
C3035 C3036 1.414 . S
C3035 C3038 1.499 . S
C3036 H3016 0.950 . S
C3036 C3035 1.414 . S
C3036 C3037 1.374 . S
C3037 H3017 0.950 . S
C3037 C3033 1.385 . S
C3037 C3036 1.374 . S
C3038 C3035 1.499 . S
C3038 C3039 1.373 . S
C3038 C3040 1.389 . S
C3039 H3018 0.950 . S
C3039 C3038 1.373 . S
C3039 C3055 1.377 . S
C3040 C3038 1.389 . S
C3040 C3041 1.524 . S
C3040 C3054 1.377 . S
C3041 C3040 1.524 . S
C3041 C3042 1.397 . S
C3041 C3046 1.363 . S
C3042 H3019 0.950 . S
C3042 C3041 1.397 . S
C3042 C3043 1.334 . S
C3043 H3020 0.950 . S
C3043 C3042 1.334 . S
C3043 C3044 1.287 . S
C3044 C3043 1.287 . S
C3044 C3045 1.524 . S
C3044 H3063 0.913 . S
C3045 H3021 0.950 . S
C3045 C3044 1.524 . S
C3045 C3046 1.415 . S
C3046 H3022 0.950 . S
C3046 C3041 1.363 . S
C3046 C3045 1.415 . S
C3047 H3023 0.951 . S
C3047 C3048 1.366 . S
C3047 C3049 1.388 . S
C3048 C3047 1.366 . S
C3048 C3052 1.385 . S
C3049 H3024 0.951 . S
C3049 C3047 1.388 . S
C3049 C3050 1.366 . S
C3050 C3049 1.366 . S
C3050 C3051 1.414 . S
C3050 C3053 1.499 . S
C3051 H3025 0.950 . S
C3051 C3050 1.414 . S
C3051 C3052 1.374 . S
C3052 H3026 0.950 . S
C3052 C3048 1.385 . S
C3052 C3051 1.374 . S
C3053 C3050 1.499 . S
C3053 C3054 1.373 . S
C3053 C3055 1.389 . S
C3054 H3027 0.950 . S
C3054 C3040 1.377 . S
C3054 C3053 1.373 . S
C3055 C3039 1.377 . S
C3055 C3053 1.389 . S
C3055 C3056 1.524 . S
C3056 C3055 1.524 . S
C3056 C3057 1.397 . S
C3056 C3061 1.363 . S
C3057 H3028 0.950 . S
C3057 C3056 1.397 . S
C3057 C3058 1.334 . S
C3058 H3029 0.950 . S
C3058 C3057 1.334 . S
C3058 C3059 1.287 . S
C3059 C3058 1.287 . S
C3059 C3060 1.524 . S
C3059 H3062 0.999 . S
C3060 H3030 0.950 . S
C3060 C3059 1.524 . S
C3060 C3061 1.415 . S
C3061 H3031 0.950 . S
C3061 C3056 1.363 . S
C3061 C3060 1.415 . S
H3062 C3059 0.999 . S
H3063 C3044 0.913 . S
H3064 C3082 0.951 . S
H3065 C3084 0.951 . S
H3066 C3086 0.950 . S
H3067 C3087 0.950 . S
H3068 C3089 0.950 . S
H3069 C3092 0.950 . S
H3070 C3093 0.950 . S
H3071 C3095 0.950 . S
H3072 C3096 0.950 . S
H3073 C3097 0.951 . S
H3074 C3099 0.951 . S
H3075 C3101 0.950 . S
H3076 C3102 0.950 . S
H3077 C3104 0.950 . S
H3078 C3107 0.950 . S
H3079 C3108 0.950 . S
H3080 C3110 0.950 . S
H3081 C3111 0.950 . S
C3082 H3064 0.951 . S
C3082 C3083 1.366 . S
C3082 C3084 1.388 . S
C3083 C3082 1.366 . S
C3083 C3087 1.385 . S
C3084 H3065 0.951 . S
C3084 C3082 1.388 . S
C3084 C3085 1.366 . S
C3085 C3084 1.366 . S
C3085 C3086 1.414 . S
C3085 C3088 1.499 . S
C3086 H3066 0.950 . S
C3086 C3085 1.414 . S
C3086 C3087 1.374 . S
C3087 H3067 0.950 . S
C3087 C3083 1.385 . S
C3087 C3086 1.374 . S
C3088 C3085 1.499 . S
C3088 C3089 1.373 . S
C3088 C3090 1.389 . S
C3089 H3068 0.950 . S
C3089 C3088 1.373 . S
C3089 C3105 1.377 . S
C3090 C3088 1.389 . S
C3090 C3091 1.524 . S
C3090 C3104 1.377 . S
C3091 C3090 1.524 . S
C3091 C3092 1.397 . S
C3091 C3096 1.363 . S
C3092 H3069 0.950 . S
C3092 C3091 1.397 . S
C3092 C3093 1.334 . S
C3093 H3070 0.950 . S
C3093 C3092 1.334 . S
C3093 C3094 1.287 . S
C3094 C3093 1.287 . S
C3094 C3095 1.524 . S
C3094 H3113 0.913 . S
C3095 H3071 0.950 . S
C3095 C3094 1.524 . S
C3095 C3096 1.415 . S
C3096 H3072 0.950 . S
C3096 C3091 1.363 . S
C3096 C3095 1.415 . S
C3097 H3073 0.951 . S
C3097 C3098 1.366 . S
C3097 C3099 1.388 . S
C3098 C3097 1.366 . S
C3098 C3102 1.385 . S
C3099 H3074 0.951 . S
C3099 C3097 1.388 . S
C3099 C3100 1.366 . S
C3100 C3099 1.366 . S
C3100 C3101 1.414 . S
C3100 C3103 1.499 . S
C3101 H3075 0.950 . S
C3101 C3100 1.414 . S
C3101 C3102 1.374 . S
C3102 H3076 0.950 . S
C3102 C3098 1.385 . S
C3102 C3101 1.374 . S
C3103 C3100 1.499 . S
C3103 C3104 1.373 . S
C3103 C3105 1.389 . S
C3104 H3077 0.950 . S
C3104 C3090 1.377 . S
C3104 C3103 1.373 . S
C3105 C3089 1.377 . S
C3105 C3103 1.389 . S
C3105 C3106 1.524 . S
C3106 C3105 1.524 . S
C3106 C3107 1.397 . S
C3106 C3111 1.363 . S
C3107 H3078 0.950 . S
C3107 C3106 1.397 . S
C3107 C3108 1.334 . S
C3108 H3079 0.950 . S
C3108 C3107 1.334 . S
C3108 C3109 1.287 . S
C3109 C3108 1.287 . S
C3109 C3110 1.524 . S
C3109 H3112 0.999 . S
C3110 H3080 0.950 . S
C3110 C3109 1.524 . S
C3110 C3111 1.415 . S
C3111 H3081 0.950 . S
C3111 C3106 1.363 . S
C3111 C3110 1.415 . S
H3112 C3109 0.999 . S
H3113 C3094 0.913 . S
H3114 C3132 0.951 . S
H3115 C3134 0.951 . S
H3116 C3136 0.950 . S
H3117 C3137 0.950 . S
H3118 C3139 0.950 . S
H3119 C3142 0.950 . S
H3120 C3143 0.950 . S
H3121 C3145 0.950 . S
H3122 C3146 0.950 . S
H3123 C3147 0.951 . S
H3124 C3149 0.951 . S
H3125 C3151 0.950 . S
H3126 C3152 0.950 . S
H3127 C3154 0.950 . S
H3128 C3157 0.950 . S
H3129 C3158 0.950 . S
H3130 C3160 0.950 . S
H3131 C3161 0.950 . S
C3132 H3114 0.951 . S
C3132 C3133 1.366 . S
C3132 C3134 1.388 . S
C3133 C3132 1.366 . S
C3133 C3137 1.385 . S
C3134 H3115 0.951 . S
C3134 C3132 1.388 . S
C3134 C3135 1.366 . S
C3135 C3134 1.366 . S
C3135 C3136 1.414 . S
C3135 C3138 1.499 . S
C3136 H3116 0.950 . S
C3136 C3135 1.414 . S
C3136 C3137 1.374 . S
C3137 H3117 0.950 . S
C3137 C3133 1.385 . S
C3137 C3136 1.374 . S
C3138 C3135 1.499 . S
C3138 C3139 1.373 . S
C3138 C3140 1.389 . S
C3139 H3118 0.950 . S
C3139 C3138 1.373 . S
C3139 C3155 1.377 . S
C3140 C3138 1.389 . S
C3140 C3141 1.524 . S
C3140 C3154 1.377 . S
C3141 C3140 1.524 . S
C3141 C3142 1.397 . S
C3141 C3146 1.363 . S
C3142 H3119 0.950 . S
C3142 C3141 1.397 . S
C3142 C3143 1.334 . S
C3143 H3120 0.950 . S
C3143 C3142 1.334 . S
C3143 C3144 1.287 . S
C3144 C3143 1.287 . S
C3144 C3145 1.524 . S
C3144 H3163 0.913 . S
C3145 H3121 0.950 . S
C3145 C3144 1.524 . S
C3145 C3146 1.415 . S
C3146 H3122 0.950 . S
C3146 C3141 1.363 . S
C3146 C3145 1.415 . S
C3147 H3123 0.951 . S
C3147 C3148 1.366 . S
C3147 C3149 1.388 . S
C3148 C3147 1.366 . S
C3148 C3152 1.385 . S
C3149 H3124 0.951 . S
C3149 C3147 1.388 . S
C3149 C3150 1.366 . S
C3150 C3149 1.366 . S
C3150 C3151 1.414 . S
C3150 C3153 1.499 . S
C3151 H3125 0.950 . S
C3151 C3150 1.414 . S
C3151 C3152 1.374 . S
C3152 H3126 0.950 . S
C3152 C3148 1.385 . S
C3152 C3151 1.374 . S
C3153 C3150 1.499 . S
C3153 C3154 1.373 . S
C3153 C3155 1.389 . S
C3154 H3127 0.950 . S
C3154 C3140 1.377 . S
C3154 C3153 1.373 . S
C3155 C3139 1.377 . S
C3155 C3153 1.389 . S
C3155 C3156 1.524 . S
C3156 C3155 1.524 . S
C3156 C3157 1.397 . S
C3156 C3161 1.363 . S
C3157 H3128 0.950 . S
C3157 C3156 1.397 . S
C3157 C3158 1.334 . S
C3158 H3129 0.950 . S
C3158 C3157 1.334 . S
C3158 C3159 1.287 . S
C3159 C3158 1.287 . S
C3159 C3160 1.524 . S
C3159 H3162 0.999 . S
C3160 H3130 0.950 . S
C3160 C3159 1.524 . S
C3160 C3161 1.415 . S
C3161 H3131 0.950 . S
C3161 C3156 1.363 . S
C3161 C3160 1.415 . S
H3162 C3159 0.999 . S
H3163 C3144 0.913 . S
H3164 C3182 0.951 . S
H3165 C3184 0.951 . S
H3166 C3186 0.950 . S
H3167 C3187 0.950 . S
H3168 C3189 0.950 . S
H3169 C3192 0.950 . S
H3170 C3193 0.950 . S
H3171 C3195 0.950 . S
H3172 C3196 0.950 . S
H3173 C3197 0.951 . S
H3174 C3199 0.951 . S
H3175 C3201 0.950 . S
H3176 C3202 0.950 . S
H3177 C3204 0.950 . S
H3178 C3207 0.950 . S
H3179 C3208 0.950 . S
H3180 C3210 0.950 . S
H3181 C3211 0.950 . S
C3182 H3164 0.951 . S
C3182 C3183 1.366 . S
C3182 C3184 1.388 . S
C3183 C3182 1.366 . S
C3183 C3187 1.385 . S
C3184 H3165 0.951 . S
C3184 C3182 1.388 . S
C3184 C3185 1.366 . S
C3185 C3184 1.366 . S
C3185 C3186 1.414 . S
C3185 C3188 1.499 . S
C3186 H3166 0.950 . S
C3186 C3185 1.414 . S
C3186 C3187 1.374 . S
C3187 H3167 0.950 . S
C3187 C3183 1.385 . S
C3187 C3186 1.374 . S
C3188 C3185 1.499 . S
C3188 C3189 1.373 . S
C3188 C3190 1.389 . S
C3189 H3168 0.950 . S
C3189 C3188 1.373 . S
C3189 C3205 1.377 . S
C3190 C3188 1.389 . S
C3190 C3191 1.524 . S
C3190 C3204 1.377 . S
C3191 C3190 1.524 . S
C3191 C3192 1.397 . S
C3191 C3196 1.363 . S
C3192 H3169 0.950 . S
C3192 C3191 1.397 . S
C3192 C3193 1.334 . S
C3193 H3170 0.950 . S
C3193 C3192 1.334 . S
C3193 C3194 1.287 . S
C3194 C3193 1.287 . S
C3194 C3195 1.524 . S
C3194 H3213 0.913 . S
C3195 H3171 0.950 . S
C3195 C3194 1.524 . S
C3195 C3196 1.415 . S
C3196 H3172 0.950 . S
C3196 C3191 1.363 . S
C3196 C3195 1.415 . S
C3197 H3173 0.951 . S
C3197 C3198 1.366 . S
C3197 C3199 1.388 . S
C3198 C3197 1.366 . S
C3198 C3202 1.385 . S
C3199 H3174 0.951 . S
C3199 C3197 1.388 . S
C3199 C3200 1.366 . S
C3200 C3199 1.366 . S
C3200 C3201 1.414 . S
C3200 C3203 1.499 . S
C3201 H3175 0.950 . S
C3201 C3200 1.414 . S
C3201 C3202 1.374 . S
C3202 H3176 0.950 . S
C3202 C3198 1.385 . S
C3202 C3201 1.374 . S
C3203 C3200 1.499 . S
C3203 C3204 1.373 . S
C3203 C3205 1.389 . S
C3204 H3177 0.950 . S
C3204 C3190 1.377 . S
C3204 C3203 1.373 . S
C3205 C3189 1.377 . S
C3205 C3203 1.389 . S
C3205 C3206 1.524 . S
C3206 C3205 1.524 . S
C3206 C3207 1.397 . S
C3206 C3211 1.363 . S
C3207 H3178 0.950 . S
C3207 C3206 1.397 . S
C3207 C3208 1.334 . S
C3208 H3179 0.950 . S
C3208 C3207 1.334 . S
C3208 C3209 1.287 . S
C3209 C3208 1.287 . S
C3209 C3210 1.524 . S
C3209 H3212 0.999 . S
C3210 H3180 0.950 . S
C3210 C3209 1.524 . S
C3210 C3211 1.415 . S
C3211 H3181 0.950 . S
C3211 C3206 1.363 . S
C3211 C3210 1.415 . S
H3212 C3209 0.999 . S
H3213 C3194 0.913 . S
H3214 C3232 0.951 . S
H3215 C3234 0.951 . S
H3216 C3236 0.950 . S
H3217 C3237 0.950 . S
H3218 C3239 0.950 . S
H3219 C3242 0.950 . S
H3220 C3243 0.950 . S
H3221 C3245 0.950 . S
H3222 C3246 0.950 . S
H3223 C3247 0.951 . S
H3224 C3249 0.951 . S
H3225 C3251 0.950 . S
H3226 C3252 0.950 . S
H3227 C3254 0.950 . S
H3228 C3257 0.950 . S
H3229 C3258 0.950 . S
H3230 C3260 0.950 . S
H3231 C3261 0.950 . S
C3232 H3214 0.951 . S
C3232 C3233 1.366 . S
C3232 C3234 1.388 . S
C3233 C3232 1.366 . S
C3233 C3237 1.385 . S
C3234 H3215 0.951 . S
C3234 C3232 1.388 . S
C3234 C3235 1.366 . S
C3235 C3234 1.366 . S
C3235 C3236 1.414 . S
C3235 C3238 1.499 . S
C3236 H3216 0.950 . S
C3236 C3235 1.414 . S
C3236 C3237 1.374 . S
C3237 H3217 0.950 . S
C3237 C3233 1.385 . S
C3237 C3236 1.374 . S
C3238 C3235 1.499 . S
C3238 C3239 1.373 . S
C3238 C3240 1.389 . S
C3239 H3218 0.950 . S
C3239 C3238 1.373 . S
C3239 C3255 1.377 . S
C3240 C3238 1.389 . S
C3240 C3241 1.524 . S
C3240 C3254 1.377 . S
C3241 C3240 1.524 . S
C3241 C3242 1.397 . S
C3241 C3246 1.363 . S
C3242 H3219 0.950 . S
C3242 C3241 1.397 . S
C3242 C3243 1.334 . S
C3243 H3220 0.950 . S
C3243 C3242 1.334 . S
C3243 C3244 1.287 . S
C3244 C3243 1.287 . S
C3244 C3245 1.524 . S
C3244 H3263 0.913 . S
C3245 H3221 0.950 . S
C3245 C3244 1.524 . S
C3245 C3246 1.415 . S
C3246 H3222 0.950 . S
C3246 C3241 1.363 . S
C3246 C3245 1.415 . S
C3247 H3223 0.951 . S
C3247 C3248 1.366 . S
C3247 C3249 1.388 . S
C3248 C3247 1.366 . S
C3248 C3252 1.385 . S
C3249 H3224 0.951 . S
C3249 C3247 1.388 . S
C3249 C3250 1.366 . S
C3250 C3249 1.366 . S
C3250 C3251 1.414 . S
C3250 C3253 1.499 . S
C3251 H3225 0.950 . S
C3251 C3250 1.414 . S
C3251 C3252 1.374 . S
C3252 H3226 0.950 . S
C3252 C3248 1.385 . S
C3252 C3251 1.374 . S
C3253 C3250 1.499 . S
C3253 C3254 1.373 . S
C3253 C3255 1.389 . S
C3254 H3227 0.950 . S
C3254 C3240 1.377 . S
C3254 C3253 1.373 . S
C3255 C3239 1.377 . S
C3255 C3253 1.389 . S
C3255 C3256 1.524 . S
C3256 C3255 1.524 . S
C3256 C3257 1.397 . S
C3256 C3261 1.363 . S
C3257 H3228 0.950 . S
C3257 C3256 1.397 . S
C3257 C3258 1.334 . S
C3258 H3229 0.950 . S
C3258 C3257 1.334 . S
C3258 C3259 1.287 . S
C3259 C3258 1.287 . S
C3259 C3260 1.524 . S
C3259 H3262 0.999 . S
C3260 H3230 0.950 . S
C3260 C3259 1.524 . S
C3260 C3261 1.415 . S
C3261 H3231 0.950 . S
C3261 C3256 1.363 . S
C3261 C3260 1.415 . S
H3262 C3259 0.999 . S
H3263 C3244 0.913 . S
C483 C137 1.533 . S
C498 C21 1.533 . S
C533 C50 1.532 . S
C548 C166 1.532 . S
C583 C195 1.532 . S
C598 C79 1.532 . S
C633 C224 1.534 . S
C648 C108 1.534 . S
C683 C311 1.533 . S
C698 C253 1.533 . S
C733 C282 1.533 . S
C748 C340 1.533 . S
C783 C427 1.532 . S
C798 C369 1.532 . S
C833 C398 1.532 . S
C848 C456 1.532 . S
C883 C100 1.828 . S
C898 C5 1.846 . S
C933 C13 1.828 1_565 S
C948 C34 1.846 . S
C983 C42 1.828 . S
C998 C63 1.846 . S
C1033 C92 1.847 . S
C1048 C71 1.828 1_545 S
C1083 C158 1.829 . S
C1098 C121 1.846 . S
C1133 C187 1.829 1_565 S
C1148 C150 1.847 . S
C1183 C216 1.829 . S
C1198 C179 1.846 . S
C1233 C129 1.829 1_545 S
C1248 C208 1.846 . S
C1283 C124 1.110 . S
C1298 C276 1.195 . S
C1333 C240 1.111 . S
C1348 C131 1.196 . S
C1383 C182 1.110 . S
C1398 C247 1.195 . S
C1433 C269 1.109 . S
C1448 C189 1.196 . S
C1483 C305 1.195 . S
C1498 C8 1.110 . S
C1533 C73 1.197 . S
C1548 C298 1.110 . S
C1583 C334 1.197 . S
C1598 C66 1.109 . S
C1633 C15 1.197 . S
C1648 C327 1.110 . S
C1683 C332 1.828 . S
C1698 C353 1.846 . S
C1733 C361 1.829 . S
C1748 C295 1.847 . S
C1783 C382 1.846 . S
C1798 C303 1.828 . S
C1833 C324 1.846 . S
C1848 C390 1.829 . S
C1883 C411 1.847 . S
C1898 C245 1.829 . S
C1933 C448 1.828 . S
C1948 C237 1.846 . S
C1983 C274 1.829 . S
C1998 C440 1.846 . S
C2033 C419 1.829 . S
C2048 C266 1.846 . S
C2083 C218 1.195 . S
C2098 C414 1.110 . S
C2133 C421 1.195 . S
C2148 C153 1.111 . S
C2183 C443 1.109 . S
C2198 C160 1.197 . S
C2233 C211 1.110 . S
C2248 C450 1.197 . S
C2283 C44 1.195 . S
C2298 C356 1.111 . S
C2333 C37 1.109 . S
C2348 C392 1.197 . S
C2383 C385 1.110 . S
C2398 C102 1.197 . S
C2433 C363 1.197 . S
C2448 C95 1.109 . S
C2483 C148 0.592 . S
C2498 C3 0.594 . S
C2533 C177 0.593 . S
C2548 C32 0.593 . S
C2583 C206 0.592 . S
C2598 C61 0.594 . S
C2633 C90 0.592 . S
C2648 C119 0.594 . S
C2683 C126 2.959 1_545 S
C2698 C300 2.959 . S
C2733 C242 2.959 . S
C2748 C68 2.959 1_545 S
C2783 C329 2.959 . S
C2798 C184 2.959 1_565 S
C2833 C10 2.959 1_565 S
C2848 C271 2.959 . S
C2883 C351 0.593 . S
C2898 C235 0.593 . S
C2933 C293 0.592 . S
C2948 C438 0.594 . S
C2983 C380 0.592 . S
C2998 C264 0.594 . S
C3033 C409 0.592 . S
C3048 C322 0.594 . S
C3083 C39 2.959 . S
C3098 C416 2.959 . S
C3133 C387 2.958 . S
C3148 C155 2.959 . S
C3183 C97 2.959 . S
C3198 C445 2.958 . S
C3233 C213 2.959 . S
C3248 C358 2.958 . S
