# Generated by pormake.
# Topology une, (4)-cn, num edge types: 1
# Building blocks:
#     Node 0, Type 0, BuildingBlock: KUFVIS_clean_sbu_0, # of connection points: 4
#     Node 1, Type 0, BuildingBlock: KUFVIS_clean_sbu_0, # of connection points: 4
#     Node 2, Type 0, BuildingBlock: KUFVIS_clean_sbu_0, # of connection points: 4
#     Node 3, Type 0, BuildingBlock: KUFVIS_clean_sbu_0, # of connection points: 4
#     Node 4, Type 0, BuildingBlock: KUFVIS_clean_sbu_0, # of connection points: 4
#     Node 5, Type 0, BuildingBlock: KUFVIS_clean_sbu_0, # of connection points: 4
#     Node 6, Type 0, BuildingBlock: KUFVIS_clean_sbu_0, # of connection points: 4
#     Node 7, Type 0, BuildingBlock: KUFVIS_clean_sbu_0, # of connection points: 4
#     Node 8, Type 0, BuildingBlock: KUFVIS_clean_sbu_0, # of connection points: 4
#     Node 9, Type 0, BuildingBlock: KUFVIS_clean_sbu_0, # of connection points: 4
#     Node 10, Type 0, BuildingBlock: KUFVIS_clean_sbu_0, # of connection points: 4
#     Node 11, Type 0, BuildingBlock: KUFVIS_clean_sbu_0, # of connection points: 4
#     Node 12, Type 0, BuildingBlock: KUFVIS_clean_sbu_0, # of connection points: 4
#     Node 13, Type 0, BuildingBlock: KUFVIS_clean_sbu_0, # of connection points: 4
#     Node 14, Type 0, BuildingBlock: KUFVIS_clean_sbu_0, # of connection points: 4
#     Node 15, Type 0, BuildingBlock: KUFVIS_clean_sbu_0, # of connection points: 4
#     Node 16, Type 0, BuildingBlock: KUFVIS_clean_sbu_0, # of connection points: 4
#     Node 17, Type 0, BuildingBlock: KUFVIS_clean_sbu_0, # of connection points: 4
#     Edge 18, Type (0, 0), BuildingBlock: XIVTED_clean_linker_0, # of connection points: 2
#     Edge 19, Type (0, 0), BuildingBlock: XIVTED_clean_linker_0, # of connection points: 2
#     Edge 20, Type (0, 0), BuildingBlock: XIVTED_clean_linker_0, # of connection points: 2
#     Edge 21, Type (0, 0), BuildingBlock: XIVTED_clean_linker_0, # of connection points: 2
#     Edge 22, Type (0, 0), BuildingBlock: XIVTED_clean_linker_0, # of connection points: 2
#     Edge 23, Type (0, 0), BuildingBlock: XIVTED_clean_linker_0, # of connection points: 2
#     Edge 24, Type (0, 0), BuildingBlock: XIVTED_clean_linker_0, # of connection points: 2
#     Edge 25, Type (0, 0), BuildingBlock: XIVTED_clean_linker_0, # of connection points: 2
#     Edge 26, Type (0, 0), BuildingBlock: XIVTED_clean_linker_0, # of connection points: 2
#     Edge 27, Type (0, 0), BuildingBlock: XIVTED_clean_linker_0, # of connection points: 2
#     Edge 28, Type (0, 0), BuildingBlock: XIVTED_clean_linker_0, # of connection points: 2
#     Edge 29, Type (0, 0), BuildingBlock: XIVTED_clean_linker_0, # of connection points: 2
#     Edge 30, Type (0, 0), BuildingBlock: XIVTED_clean_linker_0, # of connection points: 2
#     Edge 31, Type (0, 0), BuildingBlock: XIVTED_clean_linker_0, # of connection points: 2
#     Edge 32, Type (0, 0), BuildingBlock: XIVTED_clean_linker_0, # of connection points: 2
#     Edge 33, Type (0, 0), BuildingBlock: XIVTED_clean_linker_0, # of connection points: 2
#     Edge 34, Type (0, 0), BuildingBlock: XIVTED_clean_linker_0, # of connection points: 2
#     Edge 35, Type (0, 0), BuildingBlock: XIVTED_clean_linker_0, # of connection points: 2
#     Edge 36, Type (0, 0), BuildingBlock: XIVTED_clean_linker_0, # of connection points: 2
#     Edge 37, Type (0, 0), BuildingBlock: XIVTED_clean_linker_0, # of connection points: 2
#     Edge 38, Type (0, 0), BuildingBlock: XIVTED_clean_linker_0, # of connection points: 2
#     Edge 39, Type (0, 0), BuildingBlock: XIVTED_clean_linker_0, # of connection points: 2
#     Edge 40, Type (0, 0), BuildingBlock: XIVTED_clean_linker_0, # of connection points: 2
#     Edge 41, Type (0, 0), BuildingBlock: XIVTED_clean_linker_0, # of connection points: 2
#     Edge 42, Type (0, 0), BuildingBlock: XIVTED_clean_linker_0, # of connection points: 2
#     Edge 43, Type (0, 0), BuildingBlock: XIVTED_clean_linker_0, # of connection points: 2
#     Edge 44, Type (0, 0), BuildingBlock: XIVTED_clean_linker_0, # of connection points: 2
#     Edge 45, Type (0, 0), BuildingBlock: XIVTED_clean_linker_0, # of connection points: 2
#     Edge 46, Type (0, 0), BuildingBlock: XIVTED_clean_linker_0, # of connection points: 2
#     Edge 47, Type (0, 0), BuildingBlock: XIVTED_clean_linker_0, # of connection points: 2
#     Edge 48, Type (0, 0), BuildingBlock: XIVTED_clean_linker_0, # of connection points: 2
#     Edge 49, Type (0, 0), BuildingBlock: XIVTED_clean_linker_0, # of connection points: 2
#     Edge 50, Type (0, 0), BuildingBlock: XIVTED_clean_linker_0, # of connection points: 2
#     Edge 51, Type (0, 0), BuildingBlock: XIVTED_clean_linker_0, # of connection points: 2
#     Edge 52, Type (0, 0), BuildingBlock: XIVTED_clean_linker_0, # of connection points: 2
#     Edge 53, Type (0, 0), BuildingBlock: XIVTED_clean_linker_0, # of connection points: 2
# Relax obj value: 0.248
# Max RMSD: 0.168
# Mean RMSD: 0.159
data_MOF--net-une--node1-KUFVIS_clean_sbu_0--edge1-XIVTED_clean_linker_0
_symmetry_space_group_name_H-M    P1
_symmetry_Int_Tables_number       1
_symmetry_cell_setting            triclinic
loop_
_symmetry_equiv_pos_as_xyz
'x, y, z'
_cell_length_a     37.887028
_cell_length_b     38.750125
_cell_length_c     53.088004
_cell_angle_alpha  89.545462
_cell_angle_beta   89.204073
_cell_angle_gamma 119.69032
loop_
_atom_site_label
_atom_site_type_symbol
_atom_site_fract_x
_atom_site_fract_y
_atom_site_fract_z
_atom_type_partial_charge
Mn0 Mn 0.4016 0.09723 0.07359 0.0
Mn1 Mn 0.41978 0.11633 0.01096 0.0
C2 C 0.37403 0.12974 0.05207 0.0
C3 C 0.41181 0.11723 0.11552 0.0
C4 C 0.35779 0.03629 0.0327 0.0
O5 O 0.44932 0.08666 0.06733 0.0
O6 O 0.45773 0.10084 0.02554 0.0
C7 C 0.50035 0.18871 0.01428 0.0
N8 N 0.46144 0.17035 1.00605 0.0
C9 C 0.47218 0.23012 0.98502 0.0
C10 C 0.51246 0.24963 0.99314 0.0
C11 C 0.52656 0.22884 0.00789 0.0
C12 C 0.44752 0.19009 0.99193 0.0
H13 H 0.51125 0.17281 0.02564 0.0
C14 C 0.4667 0.08922 0.04587 0.0
O15 O 0.3921 0.07978 0.10987 0.0
O16 O 0.43152 0.14185 0.09712 0.0
N17 N 0.38525 0.13153 0.99397 0.0
C18 C 0.34522 0.10872 0.98841 0.0
C19 C 0.32608 0.12536 0.9743 0.0
C20 C 0.34844 0.165 0.96571 0.0
C21 C 0.38982 0.1876 0.97121 0.0
C22 C 0.40726 0.1694 0.98531 0.0
H23 H 0.32795 0.07821 0.99491 0.0
O24 O 0.3581 0.11142 0.07316 0.0
O25 O 0.40645 0.12933 0.04402 0.0
O26 O 0.36421 0.04541 0.05587 0.0
O27 O 0.37624 0.06055 0.01439 0.0
C28 C 0.41429 0.22765 0.96362 0.0
C29 C 0.4554 0.24894 0.97059 0.0
H30 H 0.53274 0.28061 0.9883 0.0
H31 H 0.55756 0.24373 0.01431 0.0
H32 H 0.29416 0.1077 0.97008 0.0
H33 H 0.3335 0.17782 0.955 0.0
H34 H 0.40168 0.24251 0.95266 0.0
H35 H 0.47376 0.27986 0.96491 0.0
Mn36 Mn 0.89749 0.31324 0.05401 0.0
Mn37 Mn 0.86219 0.30466 0.99479 0.0
C38 C 0.85076 0.25194 0.03901 0.0
C39 C 0.89115 0.31348 0.09758 0.0
C40 C 0.94169 0.30924 1.00642 0.0
O41 O 0.91716 0.37199 0.04458 0.0
O42 O 0.89342 0.36092 1.00503 0.0
C43 C 0.80354 0.33185 0.00712 0.0
N44 N 0.81135 0.3037 0.99763 0.0
C45 C 0.74068 0.26058 0.98887 0.0
C46 C 0.73192 0.28922 0.99839 0.0
C47 C 0.76349 0.32498 0.00759 0.0
C48 C 0.78116 0.26907 0.98892 0.0
H49 H 0.82766 0.35926 0.01434 0.0
C50 C 0.9133 0.38435 0.02281 0.0
O51 O 0.92628 0.32479 0.08675 0.0
O52 O 0.86261 0.31072 0.08303 0.0
N53 N 0.83142 0.25221 0.98183 0.0
C54 C 0.84527 0.22846 0.97228 0.0
C55 C 0.81757 0.1916 0.96216 0.0
C56 C 0.77611 0.17999 0.96141 0.0
C57 C 0.76283 0.20565 0.97042 0.0
C58 C 0.79188 0.24206 0.98022 0.0
H59 H 0.87715 0.23736 0.9727 0.0
O60 O 0.87346 0.25506 0.05769 0.0
O61 O 0.85476 0.28496 0.02968 0.0
O62 O 0.94033 0.31452 0.03 0.0
O63 O 0.91399 0.30442 0.99103 0.0
C64 C 0.72192 0.19649 0.97013 0.0
C65 C 0.71083 0.22388 0.97942 0.0
H66 H 0.70107 0.28403 0.99879 0.0
H67 H 0.75695 0.34716 0.01506 0.0
H68 H 0.82813 0.17216 0.95501 0.0
H69 H 0.7548 0.15142 0.95375 0.0
H70 H 0.69873 0.16843 0.96284 0.0
H71 H 0.67926 0.21646 0.97917 0.0
Mn72 Mn 0.69123 0.5833 0.07005 0.0
Mn73 Mn 0.68888 0.57011 0.00697 0.0
C74 C 0.75048 0.61007 0.04624 0.0
C75 C 0.70375 0.571 0.11115 0.0
C76 C 0.67247 0.63081 0.03162 0.0
O77 O 0.63204 0.538 0.06539 0.0
O78 O 0.63608 0.53329 0.02315 0.0
C79 C 0.68062 0.49005 0.00847 0.0
N80 N 0.70065 0.5285 1.00009 0.0
C81 C 0.74794 0.51736 0.97567 0.0
C82 C 0.72765 0.47754 0.98389 0.0
C83 C 0.69393 0.46388 1.00044 0.0
C84 C 0.73332 0.54204 0.98436 0.0
H85 H 0.65475 0.4795 0.02122 0.0
C86 C 0.61625 0.52307 0.04409 0.0
O87 O 0.68503 0.59084 0.10671 0.0
O88 O 0.70763 0.55203 0.09224 0.0
N89 N 0.73785 0.60385 0.98837 0.0
C90 C 0.75476 0.64338 0.98291 0.0
C91 C 0.78898 0.66185 0.96675 0.0
C92 C 0.80509 0.6394 0.9561 0.0
C93 C 0.78692 0.59868 0.96179 0.0
C94 C 0.75268 0.58184 0.97786 0.0
H95 H 0.74221 0.66066 0.99086 0.0
O96 O 0.74938 0.62474 0.06778 0.0
O97 O 0.71693 0.57961 0.039 0.0
O98 O 0.67591 0.62212 0.05432 0.0
O99 O 0.67725 0.61377 0.01241 0.0
C100 C 0.80169 0.57422 0.95238 0.0
C101 C 0.78236 0.53364 0.95944 0.0
H102 H 0.73785 0.45727 0.97775 0.0
H103 H 0.67824 0.43324 0.00696 0.0
H104 H 0.8027 0.69325 0.96241 0.0
H105 H 0.83138 0.65367 0.94356 0.0
H106 H 0.82816 0.58641 0.93993 0.0
H107 H 0.79432 0.51526 0.95235 0.0
Mn108 Mn 0.64457 0.91145 0.95688 0.0
Mn109 Mn 0.59999 0.88511 0.01415 0.0
C110 C 0.65397 0.86769 0.98193 0.0
C111 C 0.64501 0.89841 0.91401 0.0
C112 C 0.67123 0.96671 1.00026 0.0
O113 O 0.60395 0.93292 0.95821 0.0
O114 O 0.5657 0.89592 0.99138 0.0
C115 C 0.52584 0.80906 1.00364 0.0
N116 N 0.56111 0.82969 0.01634 0.0
C117 C 0.55009 0.77048 0.03828 0.0
C118 C 0.51353 0.74864 0.02554 0.0
C119 C 0.50139 0.76803 0.00813 0.0
C120 C 0.57304 0.81136 0.03318 0.0
H121 H 0.51653 0.82381 0.99012 0.0
C122 C 0.57526 0.92345 0.97479 0.0
O123 O 0.66798 0.93385 0.92267 0.0
O124 O 0.61745 0.8728 0.92945 0.0
N125 N 0.63111 0.87313 0.03715 0.0
C126 C 0.66826 0.89801 0.0468 0.0
C127 C 0.68529 0.88305 0.06407 0.0
C128 C 0.66397 0.84271 0.07127 0.0
C129 C 0.6257 0.81771 0.06119 0.0
C130 C 0.61004 0.83439 0.04428 0.0
H131 H 0.68484 0.92902 0.04135 0.0
O132 O 0.67846 0.88573 0.96307 0.0
O133 O 0.62436 0.87494 0.98491 0.0
O134 O 0.68045 0.95702 0.97937 0.0
O135 O 0.64025 0.94304 0.01388 0.0
C136 C 0.60285 0.77673 0.06687 0.0
C137 C 0.5651 0.75313 0.05541 0.0
H138 H 0.49474 0.71693 0.0288 0.0
H139 H 0.47332 0.75134 0.99812 0.0
H140 H 0.71487 0.90253 0.07174 0.0
H141 H 0.6774 0.8312 0.08439 0.0
H142 H 0.61429 0.76297 0.07978 0.0
H143 H 0.54807 0.72156 0.05967 0.0
Mn144 Mn 0.0765 0.71645 0.94409 0.0
Mn145 Mn 0.04374 0.78292 0.93922 0.0
C146 C 0.02397 0.71167 0.96915 0.0
C147 C 0.06693 0.65256 0.93873 0.0
C148 C 0.11961 0.79937 0.96663 0.0
O149 O 0.1015 0.74297 0.90947 0.0
O150 O 0.07873 0.78719 0.9099 0.0
C151 C 0.99078 0.74691 0.89549 0.0
N152 N 0.99559 0.75975 0.91965 0.0
C153 C 0.92491 0.74092 0.92354 0.0
C154 C 0.91937 0.72807 0.89856 0.0
C155 C 0.95243 0.73091 0.88451 0.0
C156 C 0.96384 0.75661 0.93345 0.0
H157 H 0.01595 0.74863 0.88474 0.0
C158 C 0.09913 0.77238 0.89988 0.0
O159 O 0.10158 0.68137 0.94615 0.0
O160 O 0.04154 0.66279 0.93016 0.0
N161 N 0.00926 0.78172 0.96635 0.0
C162 C 0.01939 0.79444 0.99041 0.0
C163 C 0.98946 0.79258 0.00716 0.0
C164 C 0.94952 0.77798 0.99897 0.0
C165 C 0.93997 0.76569 0.97402 0.0
C166 C 0.97113 0.76849 0.95813 0.0
H167 H 0.04995 0.80544 0.99684 0.0
O168 O 0.04549 0.69628 0.97662 0.0
O169 O 0.03409 0.73007 0.94754 0.0
O170 O 0.11867 0.76693 0.96115 0.0
O171 O 0.09247 0.80801 0.96021 0.0
C172 C 0.9007 0.75058 0.96433 0.0
C173 C 0.89323 0.73835 0.93908 0.0
H174 H 0.8898 0.7156 0.89007 0.0
H175 H 0.94833 0.72069 0.8653 0.0
H176 H -0.00289 0.80219 0.02638 0.0
H177 H 0.92644 0.77628 0.01201 0.0
H178 H 0.87599 0.74806 0.97618 0.0
H179 H 0.86294 0.72679 0.9318 0.0
Mn180 Mn 0.27001 0.35451 0.94382 0.0
Mn181 Mn 0.26002 0.37456 1.00436 0.0
C182 C 0.2071 0.33349 0.96219 0.0
C183 C 0.26452 0.36173 0.90072 0.0
C184 C 0.27747 0.30996 0.98933 0.0
O185 O 0.3285 0.39884 0.95095 0.0
O186 O 0.31714 0.40589 0.9921 0.0
C187 C 0.27815 0.45726 0.99523 0.0
N188 N 0.25244 0.41981 1.00413 0.0
C189 C 0.20196 0.43753 0.01586 0.0
C190 C 0.22801 0.47637 0.00696 0.0
C191 C 0.26626 0.48626 0.99659 0.0
C192 C 0.21555 0.40997 0.01412 0.0
H193 H 0.30743 0.46491 0.98707 0.0
C194 C 0.34087 0.41367 0.97285 0.0
O195 O 0.28106 0.34153 0.90918 0.0
O196 O 0.25982 0.38414 0.91685 0.0
N197 N 0.20611 0.34614 0.01849 0.0
C198 C 0.18459 0.30734 0.02613 0.0
C199 C 0.14555 0.29258 0.03687 0.0
C200 C 0.12921 0.31793 0.03981 0.0
C201 C 0.15228 0.35794 0.03227 0.0
C202 C 0.19118 0.37105 0.02195 0.0
H203 H 0.19697 0.28773 0.0238 0.0
O204 O 0.21103 0.31464 0.94343 0.0
O205 O 0.2401 0.36359 0.97018 0.0
O206 O 0.28104 0.31793 0.9658 0.0
O207 O 0.26683 0.32719 1.00576 0.0
C208 C 0.13806 0.38522 0.03434 0.0
C209 C 0.16285 0.42498 0.0261 0.0
H210 H 0.21887 0.49877 0.00786 0.0
H211 H 0.28646 0.51612 0.98958 0.0
H212 H 0.12799 0.2617 0.04272 0.0
H213 H 0.09893 0.30635 0.04786 0.0
H214 H 0.10799 0.37587 0.04207 0.0
H215 H 0.15147 0.44561 0.02762 0.0
Mn216 Mn 0.07173 0.4359 0.40712 0.0
Mn217 Mn 0.09351 0.45952 0.34524 0.0
C218 C 0.04824 0.47275 0.38656 0.0
C219 C 0.08176 0.45301 0.44951 0.0
C220 C 0.02765 0.37917 0.36425 0.0
O221 O 0.11713 0.42217 0.40057 0.0
O222 O 0.12855 0.43996 0.35932 0.0
C223 C 0.17544 0.52889 0.35164 0.0
N224 N 0.13705 0.51315 0.34276 0.0
C225 C 0.1508 0.57675 0.32629 0.0
C226 C 0.19057 0.59361 0.33512 0.0
C227 C 0.20292 0.56957 0.34787 0.0
C228 C 0.12482 0.53602 0.33055 0.0
H229 H 0.18493 0.51053 0.36157 0.0
C230 C 0.13503 0.42525 0.37924 0.0
O231 O 0.06011 0.41611 0.44292 0.0
O232 O 0.10301 0.47823 0.43174 0.0
N233 N 0.06171 0.47865 0.32886 0.0
C234 C 0.02245 0.45764 0.32132 0.0
C235 C 0.00533 0.47729 0.30829 0.0
C236 C 0.02888 0.51816 0.30285 0.0
C237 C 0.06956 0.53889 0.31017 0.0
C238 C 0.08506 0.51765 0.32291 0.0
H239 H 0.00424 0.42621 0.32546 0.0
O240 O 0.03072 0.45354 0.40713 0.0
O241 O 0.07971 0.47063 0.37861 0.0
O242 O 0.0331 0.38646 0.38772 0.0
O243 O 0.04793 0.40436 0.34667 0.0
C244 C 0.09524 0.57987 0.30553 0.0
C245 C 0.1358 0.59881 0.31365 0.0
H246 H 0.21182 0.625 0.33233 0.0
H247 H 0.23351 0.58241 0.35483 0.0
H248 H 0.974 0.46101 0.30256 0.0
H249 H 0.01545 0.5333 0.29303 0.0
H250 H 0.08403 0.59715 0.29588 0.0
H251 H 0.15517 0.63038 0.31012 0.0
Mn252 Mn 0.56653 0.65117 0.38964 0.0
Mn253 Mn 0.54419 0.64342 0.32763 0.0
C254 C 0.52861 0.58956 0.37198 0.0
C255 C 0.5494 0.64815 0.43218 0.0
C256 C 0.62387 0.65616 0.34692 0.0
O257 O 0.58279 0.70914 0.38033 0.0
O258 O 0.56763 0.69882 0.33916 0.0
C259 C 0.4771 0.66136 0.33294 0.0
N260 N 0.49092 0.63676 0.32503 0.0
C261 C 0.42539 0.5902 0.309 0.0
C262 C 0.4105 0.61516 0.31682 0.0
C263 C 0.43646 0.65086 0.32889 0.0
C264 C 0.46615 0.60224 0.31355 0.0
H265 H 0.49694 0.68874 0.34229 0.0
C266 C 0.58213 0.72177 0.35799 0.0
O267 O 0.58708 0.66266 0.42481 0.0
O268 O 0.52373 0.64331 0.41476 0.0
N269 N 0.52164 0.5919 0.31314 0.0
C270 C 0.54087 0.57136 0.30659 0.0
C271 C 0.51909 0.53479 0.29449 0.0
C272 C 0.47806 0.52017 0.28875 0.0
C273 C 0.4593 0.54247 0.29494 0.0
C274 C 0.48259 0.57878 0.3069 0.0
H275 H 0.57247 0.5826 0.31086 0.0
O276 O 0.54741 0.59376 0.39276 0.0
O277 O 0.53091 0.62157 0.36208 0.0
O278 O 0.61656 0.65878 0.37014 0.0
O279 O 0.59879 0.6494 0.32924 0.0
C280 C 0.41827 0.52987 0.29 0.0
C281 C 0.4013 0.55368 0.29708 0.0
H282 H 0.37915 0.60714 0.31377 0.0
H283 H 0.42515 0.67021 0.33507 0.0
H284 H 0.53387 0.51788 0.28963 0.0
H285 H 0.46128 0.49181 0.27959 0.0
H286 H 0.39943 0.50182 0.28091 0.0
H287 H 0.36965 0.54357 0.29332 0.0
Mn288 Mn 0.36779 0.92036 0.39718 0.0
Mn289 Mn 0.37125 0.90599 0.33463 0.0
C290 C 0.42902 0.94685 0.37545 0.0
C291 C 0.37759 0.91046 0.43934 0.0
C292 C 0.35529 0.96873 0.35588 0.0
O293 O 0.30947 0.87454 0.39173 0.0
O294 O 0.31641 0.87263 0.34955 0.0
C295 C 0.35656 0.82364 0.33966 0.0
N296 N 0.37927 0.86138 0.33032 0.0
C297 C 0.42419 0.84429 0.30816 0.0
C298 C 0.40106 0.80513 0.31735 0.0
C299 C 0.36722 0.79483 0.33327 0.0
C300 C 0.41224 0.87173 0.31532 0.0
H301 H 0.33056 0.81562 0.3519 0.0
C302 C 0.29503 0.86147 0.3699 0.0
O303 O 0.35875 0.92955 0.43312 0.0
O304 O 0.38303 0.89072 0.42153 0.0
N305 N 0.42194 0.93579 0.31686 0.0
C306 C 0.4415 0.97497 0.31012 0.0
C307 C 0.47555 0.99009 0.29389 0.0
C308 C 0.48908 0.96476 0.28457 0.0
C309 C 0.46861 0.92451 0.29186 0.0
C310 C 0.43437 0.91101 0.30777 0.0
H311 H 0.43126 0.99455 0.31714 0.0
O312 O 0.42561 0.96229 0.39614 0.0
O313 O 0.39651 0.9157 0.36765 0.0
O314 O 0.35266 0.95772 0.37887 0.0
O315 O 0.36421 0.95294 0.33762 0.0
C316 C 0.4808 0.89727 0.28402 0.0
C317 C 0.45877 0.85724 0.29231 0.0
H318 H 0.40913 0.78281 0.31243 0.0
H319 H 0.34934 0.76474 0.34056 0.0
H320 H 0.49092 0.02112 0.28847 0.0
H321 H 0.51516 0.97656 0.27182 0.0
H322 H 0.50727 0.90687 0.2718 0.0
H323 H 0.46869 0.83666 0.28639 0.0
Mn324 Mn 0.30883 0.24225 0.29028 0.0
Mn325 Mn 0.29274 0.22833 0.35323 0.0
C326 C 0.33154 0.20636 0.31313 0.0
C327 C 0.2991 0.22104 0.2486 0.0
C328 C 0.35597 0.30535 0.32949 0.0
O329 O 0.26287 0.25565 0.2956 0.0
O330 O 0.25826 0.24786 0.33813 0.0
C331 C 0.20837 0.1611 0.35225 0.0
N332 N 0.24752 0.17645 0.35964 0.0
C333 C 0.23191 0.11535 0.38099 0.0
C334 C 0.19133 0.099 0.37379 0.0
C335 C 0.17954 0.12197 0.35933 0.0
C336 C 0.25919 0.15465 0.37362 0.0
H337 H 0.19925 0.17853 0.34097 0.0
C338 C 0.24844 0.25761 0.31734 0.0
O339 O 0.31976 0.25855 0.2539 0.0
O340 O 0.27826 0.19713 0.26708 0.0
N341 N 0.32433 0.20923 0.36991 0.0
C342 C 0.36512 0.22851 0.3738 0.0
C343 C 0.3822 0.20907 0.3871 0.0
C344 C 0.35716 0.17016 0.39637 0.0
C345 C 0.31521 0.15109 0.39233 0.0
C346 C 0.29987 0.17206 0.37912 0.0
H347 H 0.38448 0.25832 0.36655 0.0
O348 O 0.35004 0.22461 0.29246 0.0
O349 O 0.30137 0.21094 0.32052 0.0
O350 O 0.34664 0.29469 0.30684 0.0
O351 O 0.34001 0.2822 0.34859 0.0
C352 C 0.28817 0.11177 0.40038 0.0
C353 C 0.24656 0.0939 0.3947 0.0
H354 H 0.16908 0.06871 0.37902 0.0
H355 H 0.14834 0.10947 0.35355 0.0
H356 H 0.41461 0.22395 0.39008 0.0
H357 H 0.3705 0.15511 0.40639 0.0
H358 H 0.29916 0.09479 0.41061 0.0
H359 H 0.22618 0.06344 0.40065 0.0
Mn360 Mn 0.75545 0.05136 0.2754 0.0
Mn361 Mn 0.72237 0.11692 0.26731 0.0
C362 C 0.70363 0.04887 0.30012 0.0
C363 C 0.74454 0.98661 0.27209 0.0
C364 C 0.79827 0.13594 0.29549 0.0
O365 O 0.78026 0.075 0.24023 0.0
O366 O 0.75795 0.11946 0.23891 0.0
C367 C 0.67045 0.07687 0.22382 0.0
N368 N 0.67461 0.09155 0.24747 0.0
C369 C 0.60363 0.07177 0.25021 0.0
C370 C 0.59871 0.05694 0.22573 0.0
C371 C 0.63225 0.05933 0.21253 0.0
C372 C 0.64237 0.08868 0.26053 0.0
H373 H 0.69601 0.07831 0.21371 0.0
C374 C 0.77823 0.104 0.22973 0.0
O375 O 0.77946 0.01543 0.27917 0.0
O376 O 0.71975 0.99699 0.26281 0.0
N377 N 0.68724 0.11754 0.29337 0.0
C378 C 0.69712 0.13353 0.31672 0.0
C379 C 0.66693 0.1334 0.33243 0.0
C380 C 0.62702 0.11728 0.32386 0.0
C381 C 0.61771 0.10161 0.29959 0.0
C382 C 0.64913 0.10279 0.28474 0.0
H383 H 0.72771 0.14596 0.32338 0.0
O384 O 0.72511 0.03388 0.30828 0.0
O385 O 0.71308 0.06514 0.27786 0.0
O386 O 0.79789 0.10339 0.29105 0.0
O387 O 0.77071 0.14368 0.28851 0.0
C388 C 0.5786 0.08523 0.28947 0.0
C389 C 0.57159 0.07033 0.26478 0.0
H390 H 0.56929 0.04345 0.21697 0.0
H391 H 0.62866 0.04765 0.19371 0.0
H392 H 0.6744 0.1457 0.3511 0.0
H393 H 0.60384 0.11733 0.336 0.0
H394 H 0.55375 0.08403 0.30051 0.0
H395 H 0.5415 0.05795 0.25708 0.0
Mn396 Mn 0.94545 0.69098 0.27497 0.0
Mn397 Mn 0.95101 0.73176 0.33196 0.0
C398 C 0.88783 0.68079 0.2963 0.0
C399 C 0.93468 0.68847 0.23166 0.0
C400 C 0.95935 0.65894 0.32428 0.0
O401 O 0.00667 0.73229 0.2768 0.0
O402 O 0.00463 0.75782 0.3147 0.0
C403 C 0.96717 0.81062 0.31355 0.0
N404 N 0.9438 0.77681 0.32734 0.0
C405 C 0.89773 0.79976 0.33979 0.0
C406 C 0.92143 0.83495 0.32584 0.0
C407 C 0.95627 0.84037 0.31264 0.0
C408 C 0.91016 0.77124 0.34004 0.0
H409 H 0.99383 0.81475 0.30327 0.0
C410 C 0.0239 0.75569 0.29532 0.0
O411 O 0.94861 0.66726 0.24214 0.0
O412 O 0.93479 0.71603 0.24539 0.0
N413 N 0.90102 0.70903 0.35096 0.0
C414 C 0.88152 0.67339 0.36349 0.0
C415 C 0.84598 0.66326 0.37763 0.0
C416 C 0.83115 0.69002 0.37894 0.0
C417 C 0.85229 0.72691 0.36636 0.0
C418 C 0.88775 0.73552 0.35279 0.0
H419 H 0.89285 0.65275 0.36254 0.0
O420 O 0.88569 0.6563 0.27925 0.0
O421 O 0.9235 0.71081 0.30038 0.0
O422 O 0.95477 0.65704 0.30048 0.0
O423 O 0.95803 0.6852 0.33808 0.0
C424 C 0.83937 0.75531 0.36655 0.0
C425 C 0.86201 0.79167 0.35322 0.0
H426 H 0.91306 0.85791 0.32502 0.0
H427 H 0.97462 0.86737 0.30175 0.0
H428 H 0.82996 0.63482 0.38739 0.0
H429 H 0.80352 0.68195 0.38965 0.0
H430 H 0.81189 0.74937 0.37673 0.0
H431 H 0.8516 0.81315 0.35334 0.0
Mn432 Mn 0.73468 0.76958 0.73639 0.0
Mn433 Mn 0.74985 0.78858 0.67365 0.0
C434 C 0.70704 0.80303 0.7161 0.0
C435 C 0.74776 0.7896 0.77822 0.0
C436 C 0.68821 0.70881 0.6959 0.0
O437 O 0.78131 0.75803 0.72873 0.0
O438 O 0.78805 0.77237 0.68697 0.0
C439 C 0.83112 0.86031 0.67572 0.0
N440 N 0.79176 0.8424 0.66835 0.0
C441 C 0.80216 0.90248 0.64794 0.0
C442 C 0.84289 0.92154 0.65518 0.0
C443 C 0.8574 0.90038 0.66919 0.0
C444 C 0.77745 0.86249 0.65494 0.0
H445 H 0.84233 0.84412 0.6865 0.0
C446 C 0.79752 0.76028 0.70691 0.0
O447 O 0.72705 0.75217 0.77262 0.0
O448 O 0.76659 0.81409 0.75962 0.0
N449 N 0.71486 0.80439 0.6579 0.0
C450 C 0.67444 0.78203 0.65324 0.0
C451 C 0.6549 0.7991 0.63998 0.0
C452 C 0.67722 0.8387 0.63133 0.0
C453 C 0.71897 0.86085 0.63592 0.0
C454 C 0.7368 0.84224 0.6492 0.0
H455 H 0.6572 0.75154 0.6598 0.0
O456 O 0.69189 0.78478 0.73732 0.0
O457 O 0.73862 0.80186 0.7072 0.0
O458 O 0.6957 0.71792 0.71902 0.0
O459 O 0.70603 0.733 0.67747 0.0
C460 C 0.74345 0.90085 0.62823 0.0
C461 C 0.78497 0.92169 0.63431 0.0
H462 H 0.86323 0.95247 0.65024 0.0
H463 H 0.88875 0.91493 0.67493 0.0
H464 H 0.62269 0.78178 0.63647 0.0
H465 H 0.66198 0.85185 0.62128 0.0
H466 H 0.73054 0.91601 0.61787 0.0
H467 H 0.80335 0.95259 0.62857 0.0
Mn468 Mn 0.22989 0.9834 0.72277 0.0
Mn469 Mn 0.19871 0.9754 0.66253 0.0
C470 C 0.18825 0.92186 0.70607 0.0
C471 C 0.21854 0.98125 0.76612 0.0
C472 C 0.27994 0.98557 0.67645 0.0
O473 O 0.24651 0.04169 0.71396 0.0
O474 O 0.22524 0.03116 0.67384 0.0
C475 C 0.13429 0.99551 0.67362 0.0
N476 N 0.1457 0.96984 0.66418 0.0
C477 C 0.07667 0.92257 0.65408 0.0
C478 C 0.06422 0.94864 0.66351 0.0
C479 C 0.09316 0.98524 0.67336 0.0
C480 C 0.11805 0.9344 0.65489 0.0
H481 H 0.15637 0.02352 0.68139 0.0
C482 C 0.24286 0.05423 0.69222 0.0
O483 O 0.25507 0.99477 0.7568 0.0
O484 O 0.19101 0.97713 0.75028 0.0
N485 N 0.17256 0.92346 0.64846 0.0
C486 C 0.18996 0.90294 0.63861 0.0
C487 C 0.16527 0.86584 0.62771 0.0
C488 C 0.12313 0.8507 0.6265 0.0
C489 C 0.10618 0.87323 0.6357 0.0
C490 C 0.13235 0.91007 0.64626 0.0
H491 H 0.22237 0.91455 0.6394 0.0
O492 O 0.20947 0.92563 0.72566 0.0
O493 O 0.19032 0.9542 0.697 0.0
O494 O 0.27623 0.98894 0.70011 0.0
O495 O 0.25286 0.97983 0.6603 0.0
C496 C 0.0644 0.86068 0.63471 0.0
C497 C 0.04963 0.88528 0.64397 0.0
H498 H 0.03253 0.94082 0.66334 0.0
H499 H 0.08377 0.00544 0.68077 0.0
H500 H 0.17868 0.8489 0.62032 0.0
H501 H 0.10415 0.82197 0.61822 0.0
H502 H 0.04338 0.83221 0.62681 0.0
H503 H 0.01744 0.8753 0.64312 0.0
Mn504 Mn 0.02172 0.25171 0.74035 0.0
Mn505 Mn 0.02379 0.23989 0.67729 0.0
C506 C 0.08242 0.27963 0.71817 0.0
C507 C 0.03224 0.23894 0.7817 0.0
C508 C 0.00528 0.29979 0.7011 0.0
O509 O 0.96314 0.20632 0.73423 0.0
O510 O 0.97003 0.20243 0.69214 0.0
C511 C 0.01633 0.16017 0.6792 0.0
N512 N 0.03665 0.1988 0.67118 0.0
C513 C 0.08683 0.18902 0.64909 0.0
C514 C 0.06627 0.14903 0.65695 0.0
C515 C 0.03093 0.13458 0.67213 0.0
C516 C 0.07081 0.21306 0.65671 0.0
H517 H 0.98927 0.14904 0.69094 0.0
C518 C 0.94886 0.19178 0.71259 0.0
O519 O 0.01322 0.25837 0.77682 0.0
O520 O 0.037 0.22017 0.76299 0.0
N521 N 0.07386 0.2743 0.65993 0.0
C522 C 0.09047 0.31378 0.65444 0.0
C523 C 0.12616 0.33297 0.63959 0.0
C524 C 0.14412 0.31133 0.63025 0.0
C525 C 0.12598 0.27055 0.63572 0.0
C526 C 0.09018 0.25294 0.65044 0.0
H527 H 0.0767 0.33052 0.66145 0.0
O528 O 0.07967 0.29357 0.73964 0.0
O529 O 0.04967 0.24909 0.71008 0.0
O530 O 0.00716 0.2906 0.72395 0.0
O531 O 0.01133 0.28318 0.68211 0.0
C532 C 0.14234 0.2468 0.62751 0.0
C533 C 0.12286 0.20609 0.63427 0.0
H534 H 0.07749 0.12923 0.6516 0.0
H535 H 0.01502 0.10381 0.67838 0.0
H536 H 0.13962 0.36435 0.63535 0.0
H537 H 0.17181 0.32626 0.61894 0.0
H538 H 0.17015 0.25965 0.61625 0.0
H539 H 0.13598 0.18823 0.62809 0.0
Mn540 Mn 0.97698 0.5793 0.62452 0.0
Mn541 Mn 0.94012 0.55703 0.68434 0.0
C542 C 0.98865 0.53724 0.64956 0.0
C543 C 0.97528 0.5631 0.58207 0.0
C544 C 0.01225 0.63603 0.66825 0.0
O545 O 0.93455 0.5982 0.62543 0.0
O546 O 0.90958 0.57701 0.66509 0.0
C547 C 0.85924 0.4886 0.67391 0.0
N548 N 0.89546 0.5039 0.68575 0.0
C549 C 0.87675 0.4405 0.70492 0.0
C550 C 0.83912 0.42409 0.69306 0.0
C551 C 0.83036 0.44825 0.67747 0.0
C552 C 0.90422 0.48094 0.70078 0.0
H553 H 0.85256 0.50705 0.66177 0.0
C554 C 0.91079 0.59432 0.64417 0.0
O555 O -0.002 0.59934 0.58954 0.0
O556 O 0.94904 0.53832 0.59843 0.0
N557 N 0.96756 0.53736 0.70495 0.0
C558 C 0.00576 0.55752 0.71427 0.0
C559 C 0.01958 0.5375 0.72995 0.0
C560 C 0.99396 0.49707 0.73592 0.0
C561 C 0.95458 0.47711 0.72636 0.0
C562 C 0.9423 0.49874 0.7111 0.0
H563 H 0.02558 0.58855 0.70964 0.0
O564 O 0.01255 0.55563 0.63054 0.0
O565 O 0.95893 0.54418 0.65344 0.0
O566 O 0.0137 0.62731 0.64532 0.0
O567 O 0.98623 0.61217 0.68454 0.0
C568 C 0.92725 0.43646 0.73103 0.0
C569 C 0.88838 0.41816 0.72029 0.0
H570 H 0.81686 0.39293 0.69563 0.0
H571 H 0.80147 0.43576 0.66815 0.0
H572 H 0.05 0.55312 0.73727 0.0
H573 H 0.0049 0.48161 0.74777 0.0
H574 H 0.93598 0.4189 0.74263 0.0
H575 H 0.86782 0.38679 0.72379 0.0
Mn576 Mn 0.40396 0.38599 0.61158 0.0
Mn577 Mn 0.37147 0.45269 0.60695 0.0
C578 C 0.35339 0.38278 0.63788 0.0
C579 C 0.39318 0.32149 0.60688 0.0
C580 C 0.44873 0.46975 0.63285 0.0
O581 O 0.42709 0.41103 0.57635 0.0
O582 O 0.40472 0.4555 0.57707 0.0
C583 C 0.31603 0.41477 0.56452 0.0
N584 N 0.32234 0.42912 0.58834 0.0
C585 C 0.25239 0.41242 0.59318 0.0
C586 C 0.24535 0.39821 0.56851 0.0
C587 C 0.27727 0.39916 0.55418 0.0
C588 C 0.29164 0.42759 0.60248 0.0
H589 H 0.3403 0.41496 0.55359 0.0
C590 C 0.42436 0.44019 0.56668 0.0
O591 O 0.42849 0.35037 0.61333 0.0
O592 O 0.36765 0.33182 0.59874 0.0
N593 N 0.3386 0.45308 0.63455 0.0
C594 C 0.35001 0.46659 0.65834 0.0
C595 C 0.32121 0.46623 0.67544 0.0
C596 C 0.28111 0.45242 0.66783 0.0
C597 C 0.27026 0.43932 0.64313 0.0
C598 C 0.3003 0.4405 0.6269 0.0
H599 H 0.38069 0.47701 0.66432 0.0
O600 O 0.37515 0.36739 0.64484 0.0
O601 O 0.36191 0.40009 0.61591 0.0
O602 O 0.44748 0.43712 0.62746 0.0
O603 O 0.42127 0.47822 0.62693 0.0
C604 C 0.23077 0.42501 0.634 0.0
C605 C 0.22189 0.4117 0.60901 0.0
H606 H 0.21546 0.38607 0.5605 0.0
H607 H 0.27198 0.38779 0.53523 0.0
H608 H 0.32985 0.47643 0.69447 0.0
H609 H 0.25891 0.45195 0.68112 0.0
H610 H 0.20697 0.42394 0.6461 0.0
H611 H 0.19141 0.40061 0.60218 0.0
Mn612 Mn 0.60682 0.02949 0.6083 0.0
Mn613 Mn 0.5998 0.05451 0.66823 0.0
C614 C 0.54485 0.01093 0.62732 0.0
C615 C 0.60072 0.03382 0.56492 0.0
C616 C 0.61514 0.98789 0.65515 0.0
O617 O 0.666 0.07347 0.61417 0.0
O618 O 0.65638 0.08411 0.65496 0.0
C619 C 0.61879 0.13681 0.65645 0.0
N620 N 0.59314 0.10025 0.66666 0.0
C621 C 0.54441 0.1202 0.67852 0.0
C622 C 0.57042 0.15815 0.66827 0.0
C623 C 0.60775 0.16646 0.65716 0.0
C624 C 0.55709 0.0919 0.67731 0.0
H625 H 0.64737 0.14324 0.64775 0.0
C626 C 0.67929 0.08993 0.63557 0.0
O627 O 0.61668 0.01363 0.57425 0.0
O628 O 0.59647 0.05745 0.58025 0.0
N629 N 0.54659 0.02796 0.68345 0.0
C630 C 0.52511 0.98993 0.69255 0.0
C631 C 0.48703 0.97682 0.70431 0.0
C632 C 0.47166 0.00302 0.7068 0.0
C633 C 0.49472 0.04225 0.69776 0.0
C634 C 0.53264 0.05374 0.68646 0.0
H635 H 0.53682 0.9697 0.69067 0.0
O636 O 0.54752 0.99053 0.60905 0.0
O637 O 0.57846 0.04122 0.6344 0.0
O638 O 0.61772 0.994 0.63142 0.0
O639 O 0.60576 0.00674 0.67107 0.0
C640 C 0.48143 0.07031 0.69933 0.0
C641 C 0.50621 0.10923 0.68966 0.0
H642 H 0.56197 0.18106 0.66871 0.0
H643 H 0.62792 0.19562 0.64911 0.0
H644 H 0.4695 0.94654 0.71134 0.0
H645 H 0.44215 0.99272 0.71571 0.0
H646 H 0.4521 0.06219 0.7078 0.0
H647 H 0.49556 0.13047 0.69082 0.0
H648 H 0.454 0.01771 0.06398 0.0
H649 H 0.61017 0.0042 0.96639 0.0
H650 H 0.535 0.11683 0.01615 0.0
H651 H 0.5017 0.90278 0.99647 0.0
H652 H 0.5891 0.04804 0.98687 0.0
H653 H 0.48065 0.97783 0.04454 0.0
C654 C 0.47862 0.03162 0.05018 0.0
C655 C 0.49251 0.07078 0.04186 0.0
C656 C 0.56965 0.01615 0.98861 0.0
C657 C 0.52209 0.02485 0.01875 0.0
C658 C 0.58125 0.99109 0.97649 0.0
C659 C 0.55751 0.94961 0.97945 0.0
C660 C 0.53435 -0.00037 1.00405 0.0
C661 C 0.52095 0.9345 0.99354 0.0
C662 C 0.49319 0.00857 0.03864 0.0
C663 C 0.52366 0.08682 0.02326 0.0
N664 N 0.51083 0.95937 1.00551 0.0
N665 N 0.53715 0.06377 0.01219 0.0
H666 H 0.99015 0.44305 0.03654 0.0
H667 H -0.00138 0.58648 0.92349 0.0
H668 H 0.88898 0.4227 0.99051 0.0
H669 H 0.09647 0.62367 0.9758 0.0
H670 H 0.96184 0.52301 0.94602 0.0
H671 H 0.03165 0.50785 0.01479 0.0
C672 C 0.9763 0.45264 0.02245 0.0
C673 C 0.93586 0.42734 0.01548 0.0
C674 C 0.99157 0.54475 0.9525 0.0
C675 C 0.98355 0.50061 0.98985 0.0
C676 C 0.01294 0.58094 0.93935 0.0
C677 C 0.05089 0.61067 0.94761 0.0
C678 C 0.00795 0.53779 0.97431 0.0
C679 C 0.06752 0.6016 0.96853 0.0
C680 C 0.00019 0.48935 0.00975 0.0
C681 C 0.91993 0.44104 0.99658 0.0
N682 N 0.04582 0.56617 0.98131 0.0
N683 N 0.94375 0.47628 0.98439 0.0
H684 H 0.40121 0.39886 0.95659 0.0
H685 H 0.55589 0.53565 0.06279 0.0
H686 H 0.3791 0.47524 1.00496 0.0
H687 H 0.57661 0.45711 0.01574 0.0
H688 H 0.48919 0.51111 0.04363 0.0
H689 H 0.46642 0.42098 0.97729 0.0
C690 C 0.41073 0.42137 0.97089 0.0
C691 C 0.38482 0.43557 0.97879 0.0
C692 C 0.50795 0.49858 0.03786 0.0
C693 C 0.45861 0.45974 1.00344 0.0
C694 C 0.54566 0.51195 0.04928 0.0
C695 C 0.57171 0.49807 0.04113 0.0
C696 C 0.49629 0.47128 0.01805 0.0
C697 C 0.55733 0.46833 0.0228 0.0
C698 C 0.44758 0.43338 0.98312 0.0
C699 C 0.39824 0.46374 0.9981 0.0
N700 N 0.52098 0.45635 0.01169 0.0
N701 N 0.43388 0.47461 0.00983 0.0
H702 H 0.1232 0.35546 0.40072 0.0
H703 H 0.26116 0.32724 0.2953 0.0
H704 H 0.1978 0.4459 0.34572 0.0
H705 H 0.18392 0.23622 0.34917 0.0
H706 H 0.23657 0.37047 0.3123 0.0
H707 H 0.14739 0.31233 0.38319 0.0
C708 C 0.14573 0.3668 0.38555 0.0
C709 C 0.1586 0.40448 0.3748 0.0
C710 C 0.22441 0.34075 0.3201 0.0
C711 C 0.1852 0.35463 0.35386 0.0
C712 C 0.23782 0.31576 0.30999 0.0
C713 C 0.22422 0.27786 0.3206 0.0
C714 C 0.19736 0.32778 0.34103 0.0
C715 C 0.19496 0.26509 0.34027 0.0
C716 C 0.15894 0.34185 0.37517 0.0
C717 C 0.18708 0.41709 0.35466 0.0
N718 N 0.18287 0.29003 0.34998 0.0
N719 N 0.19907 0.39219 0.34473 0.0
H720 H 0.65643 0.7808 0.37447 0.0
H721 H 0.67742 0.9204 0.25598 0.0
H722 H 0.55982 0.75982 0.32409 0.0
H723 H 0.76997 0.95887 0.31213 0.0
H724 H 0.63759 0.8582 0.27943 0.0
H725 H 0.7001 0.84499 0.35266 0.0
C726 C 0.6439 0.79028 0.35947 0.0
C727 C 0.60418 0.76494 0.35129 0.0
C728 C 0.66682 0.87992 0.28658 0.0
C729 C 0.65452 0.83741 0.3255 0.0
C730 C 0.68997 0.91534 0.27291 0.0
C731 C 0.72733 0.94507 0.28192 0.0
C732 C 0.6808 0.87375 0.30966 0.0
C733 C 0.74161 0.93671 0.30424 0.0
C734 C 0.6691 0.8266 0.34671 0.0
C735 C 0.59009 0.77836 0.33118 0.0
N736 N 0.7182 0.90203 0.31746 0.0
N737 N 0.61521 0.8132 0.31892 0.0
H738 H 0.07544 0.7264 0.28597 0.0
H739 H 0.23558 0.87794 0.38416 0.0
H740 H 0.07228 0.82824 0.31527 0.0
H741 H 0.25584 0.7937 0.34309 0.0
H742 H 0.1708 0.85396 0.36268 0.0
H743 H 0.14008 0.74804 0.30729 0.0
C744 C 0.08919 0.75422 0.29594 0.0
C745 C 0.06855 0.77574 0.29858 0.0
C746 C 0.189 0.84011 0.35873 0.0
C747 C 0.1413 0.79949 0.32425 0.0
C748 C 0.2255 0.85313 0.37151 0.0
C749 C 0.25082 0.83732 0.36576 0.0
C750 C 0.1777 0.81101 0.34008 0.0
C751 C 0.23691 0.80626 0.34837 0.0
C752 C 0.12564 0.76609 0.30863 0.0
C753 C 0.08727 0.81089 0.31254 0.0
N754 N 0.20156 0.79436 0.33602 0.0
N755 N 0.12209 0.82128 0.32511 0.0
H756 H 0.93751 0.67088 0.62788 0.0
H757 H 0.78682 0.69035 0.72681 0.0
H758 H 0.83688 0.57128 0.66581 0.0
H759 H 0.86185 0.78452 0.67407 0.0
H760 H 0.81225 0.64904 0.70803 0.0
H761 H 0.91371 0.71466 0.64512 0.0
C762 C 0.90945 0.65793 0.6389 0.0
C763 C 0.88899 0.61725 0.64521 0.0
C764 C 0.82366 0.679 0.70081 0.0
C765 C 0.86292 0.66742 0.66618 0.0
C766 C 0.80982 0.7029 0.71195 0.0
C767 C 0.82245 0.74108 0.70217 0.0
C768 C 0.85056 0.69342 0.67984 0.0
C769 C 0.85149 0.75532 0.6823 0.0
C770 C 0.89638 0.68307 0.64922 0.0
C771 C 0.85349 0.60241 0.66033 0.0
N772 N 0.86434 0.73147 0.6717 0.0
N773 N 0.84203 0.62747 0.6706 0.0
H774 H 0.42663 0.29292 0.64166 0.0
H775 H 0.21341 0.09228 0.66374 0.0
H776 H 0.32116 0.25585 0.59581 0.0
H777 H 0.32075 0.11321 0.7031 0.0
H778 H 0.25255 0.15616 0.64199 0.0
H779 H 0.39024 0.22963 0.66542 0.0
C780 C 0.39633 0.27111 0.63606 0.0
C781 C 0.37711 0.27991 0.61652 0.0
C782 C 0.26768 0.14726 0.6556 0.0
C783 C 0.33468 0.20794 0.64437 0.0
C784 C 0.24508 0.11092 0.66836 0.0
C785 C 0.2636 0.09739 0.68554 0.0
C786 C 0.30955 0.17065 0.6597 0.0
C787 C 0.305 0.12272 0.6904 0.0
C788 C 0.37534 0.23519 0.64992 0.0
C789 C 0.33743 0.2506 0.61059 0.0
N790 N 0.3267 0.15797 0.67737 0.0
N791 N 0.31758 0.2164 0.62455 0.0
H792 H 0.72072 0.15757 0.66216 0.0
H793 H 0.91007 0.12398 0.68575 0.0
H794 H 0.73601 0.06759 0.6246 0.0
H795 H 0.88886 0.2076 0.7268 0.0
H796 H 0.84563 0.10105 0.66432 0.0
H797 H 0.78394 0.17814 0.6844 0.0
C798 C 0.73825 0.1431 0.65789 0.0
C799 C 0.72331 0.11124 0.6411 0.0
C800 C 0.8545 0.12379 0.67841 0.0
C801 C 0.79512 0.13344 0.66758 0.0
C802 C 0.89093 0.13632 0.69107 0.0
C803 C 0.90461 0.16728 0.70849 0.0
C804 C 0.83162 0.14271 0.68287 0.0
C805 C 0.87912 0.18302 0.71401 0.0
C806 C 0.77399 0.15435 0.671 0.0
C807 C 0.74682 0.09291 0.63685 0.0
N808 N 0.84423 0.17101 0.70099 0.0
N809 N 0.78129 0.10397 0.65019 0.0
H810 H 0.44369 0.1943 0.13071 0.0
H811 H 0.26823 0.14318 0.23501 0.0
H812 H 0.35309 0.07457 0.15189 0.0
H813 H 0.35648 0.26253 0.21144 0.0
H814 H 0.2979 0.11741 0.2044 0.0
H815 H 0.41389 0.21952 0.16152 0.0
C816 C 0.41813 0.1732 0.14226 0.0
C817 C 0.40107 0.13211 0.13861 0.0
C818 C 0.31052 0.14924 0.2057 0.0
C819 C 0.36581 0.16107 0.17366 0.0
C820 C 0.29321 0.16404 0.223 0.0
C821 C 0.30967 0.20523 0.22588 0.0
C822 C 0.3448 0.1757 0.19113 0.0
C823 C 0.34247 0.2306 0.20988 0.0
C824 C 0.40075 0.18771 0.15967 0.0
C825 C 0.36759 0.10643 0.15407 0.0
N826 N 0.3591 0.21548 0.19343 0.0
N827 N 0.3509 0.1213 0.1707 0.0
H828 H 0.94004 0.30022 0.12993 0.0
H829 H 0.74926 0.10135 0.18302 0.0
H830 H 0.81504 0.26824 0.11826 0.0
H831 H 0.85926 0.15756 0.22543 0.0
H832 H 0.7798 0.15597 0.15216 0.0
H833 H 0.91673 0.24497 0.16071 0.0
C834 C 0.90784 0.28239 0.13427 0.0
C835 C 0.87954 0.28915 0.12134 0.0
C836 C 0.7977 0.15596 0.16789 0.0
C837 C 0.85276 0.22473 0.15558 0.0
C838 C 0.78054 0.12431 0.18525 0.0
C839 C 0.80191 0.12449 0.20665 0.0
C840 C 0.83668 0.18825 0.17184 0.0
C841 C 0.84211 0.15574 0.20886 0.0
C842 C 0.8946 0.25054 0.15159 0.0
C843 C 0.83815 0.26451 0.12763 0.0
N844 N 0.85814 0.18663 0.19181 0.0
N845 N 0.82609 0.23316 0.14386 0.0
H846 H 0.91183 0.62063 0.20408 0.0
H847 H 0.71972 0.62673 0.14741 0.0
H848 H 0.8915 0.72037 0.21055 0.0
H849 H 0.75463 0.5417 0.12306 0.0
H850 H 0.77843 0.65621 0.17484 0.0
H851 H 0.85311 0.58854 0.17637 0.0
C852 C 0.89578 0.6363 0.19921 0.0
C853 C 0.90697 0.67346 0.20973 0.0
C854 C 0.77305 0.63081 0.16371 0.0
C855 C 0.83853 0.63602 0.17875 0.0
C856 C 0.73904 0.61349 0.14828 0.0
C857 C 0.73192 0.58151 0.13278 0.0
C858 C 0.80032 0.61607 0.16391 0.0
C859 C 0.75865 0.56618 0.13467 0.0
C860 C 0.86187 0.61767 0.18362 0.0
C861 C 0.88435 0.69185 0.20293 0.0
N862 N 0.7917 0.58369 0.14976 0.0
N863 N 0.85112 0.67281 0.18823 0.0
H864 H 0.70905 0.94176 0.88091 0.0
H865 H 0.69137 0.74743 0.81569 0.0
H866 H 0.6107 0.82277 0.8958 0.0
H867 H 0.78185 0.86682 0.79372 0.0
H868 H 0.66506 0.77457 0.8476 0.0
H869 H 0.7373 0.91535 0.84966 0.0
C870 C 0.69285 0.91021 0.87725 0.0
C871 C 0.65723 0.88458 0.89105 0.0
C872 C 0.69099 0.79486 0.83601 0.0
C873 C 0.6903 0.85385 0.85574 0.0
C874 C 0.70647 0.77932 0.81798 0.0
C875 C 0.73902 0.80477 0.80189 0.0
C876 C 0.70811 0.83625 0.8381 0.0
C877 C 0.75681 0.84594 0.80567 0.0
C878 C 0.70931 0.89506 0.85958 0.0
C879 C 0.63805 0.84383 0.88561 0.0
N880 N 0.74098 0.86034 0.82317 0.0
N881 N 0.65495 0.82977 0.86862 0.0
H882 H 0.06884 0.77305 0.85407 0.0
H883 H 0.26512 0.96691 0.79984 0.0
H884 H 0.18064 0.8245 0.89471 0.0
H885 H 0.14152 0.93767 0.7858 0.0
H886 H 0.23947 0.91227 0.83122 0.0
H887 H 0.1005 0.82728 0.82303 0.0
C888 C 0.1006 0.79495 0.85592 0.0
C889 C 0.12227 0.79378 0.87681 0.0
C890 C 0.21814 0.91829 0.82146 0.0
C891 C 0.1585 0.85724 0.84176 0.0
C892 C 0.23274 0.94983 0.80377 0.0
C893 C 0.20553 0.95715 0.79001 0.0
C894 C 0.17603 0.89342 0.82505 0.0
C895 C 0.16383 0.93343 0.7958 0.0
C896 C 0.11849 0.82639 0.83844 0.0
C897 C 0.16318 0.82368 0.87852 0.0
N898 N 0.15045 0.90243 0.81247 0.0
N899 N 0.17995 0.85441 0.86135 0.0
H900 H 0.24667 0.29832 0.86986 0.0
H901 H 0.04719 0.29518 0.81752 0.0
H902 H 0.21758 0.3914 0.88222 0.0
H903 H 0.0849 0.21195 0.79376 0.0
H904 H 0.10665 0.32699 0.84426 0.0
H905 H 0.18769 0.26524 0.84257 0.0
C906 C 0.22868 0.31248 0.86631 0.0
C907 C 0.23743 0.3479 0.87847 0.0
C908 C 0.10173 0.30148 0.83342 0.0
C909 C 0.16862 0.30917 0.8479 0.0
C910 C 0.06729 0.28281 0.8184 0.0
C911 C 0.0607 0.25064 0.80324 0.0
C912 C 0.13003 0.28798 0.83349 0.0
C913 C 0.08844 0.23651 0.8051 0.0
C914 C 0.19455 0.29319 0.85099 0.0
C915 C 0.21233 0.36427 0.87332 0.0
N916 N 0.12192 0.25539 0.81971 0.0
N917 N 0.17898 0.34461 0.85877 0.0
H918 H 0.1202 0.52879 0.46758 0.0
H919 H 0.93801 0.48704 0.56432 0.0
H920 H 0.01898 0.41187 0.48374 0.0
H921 H 0.04075 0.60359 0.54953 0.0
H922 H 0.96628 0.45934 0.53418 0.0
H923 H 0.09291 0.55629 0.49853 0.0
C924 C 0.09277 0.50868 0.47809 0.0
C925 C 0.07201 0.46781 0.47297 0.0
C926 C 0.98249 0.49104 0.53731 0.0
C927 C 0.03971 0.49952 0.50808 0.0
C928 C 0.96607 0.50703 0.55433 0.0
C929 C 0.98687 0.54787 0.55952 0.0
C930 C 0.02017 0.51592 0.5253 0.0
C931 C 0.0234 0.57203 0.5461 0.0
C932 C 0.07689 0.52454 0.49558 0.0
C933 C 0.03631 0.44346 0.4871 0.0
N934 N 0.03897 0.55569 0.52981 0.0
N935 N 0.02113 0.4597 0.50375 0.0
H936 H 0.47128 0.60862 0.45059 0.0
H937 H 0.50671 0.48472 0.55875 0.0
H938 H 0.59161 0.6299 0.46692 0.0
H939 H 0.39236 0.44789 0.52311 0.0
H940 H 0.54014 0.53924 0.52734 0.0
H941 H 0.44311 0.55423 0.48147 0.0
C942 C 0.49198 0.6026 0.46112 0.0
C943 C 0.53399 0.62408 0.45597 0.0
C944 C 0.50789 0.51861 0.52607 0.0
C945 C 0.50154 0.56054 0.49119 0.0
C946 C 0.48896 0.48698 0.54366 0.0
C947 C 0.44674 0.46118 0.54329 0.0
C948 C 0.48421 0.52481 0.50834 0.0
C949 C 0.42497 0.46665 0.52397 0.0
C950 C 0.47574 0.57099 0.47853 0.0
C951 C 0.55906 0.61441 0.47028 0.0
N952 N 0.44375 0.49798 0.50757 0.0
N953 N 0.54247 0.5832 0.48708 0.0
H954 H 0.58514 0.97071 0.53438 0.0
H955 H 0.39013 0.96749 0.47409 0.0
H956 H 0.55395 0.06272 0.54495 0.0
H957 H 0.42921 0.88371 0.45432 0.0
H958 H 0.4472 0.99939 0.50268 0.0
H959 H 0.52836 0.93772 0.50547 0.0
C960 C 0.56713 0.98462 0.53015 0.0
C961 C 0.57467 0.01976 0.54221 0.0
C962 C 0.44308 0.97375 0.4923 0.0
C963 C 0.50837 0.98115 0.5097 0.0
C964 C 0.41 0.95506 0.47621 0.0
C965 C 0.40453 0.92266 0.46167 0.0
C966 C 0.47114 0.96006 0.49405 0.0
C967 C 0.43192 0.90844 0.46514 0.0
C968 C 0.53427 0.9654 0.51387 0.0
C969 C 0.54963 0.03583 0.53614 0.0
N970 N 0.46408 0.92734 0.48076 0.0
N971 N 0.51751 0.01626 0.52063 0.0
H972 H 0.35531 0.99226 0.99235 0.0
H973 H 0.12154 0.85421 0.99932 0.0
H974 H 0.28698 0.98981 0.05871 0.0
H975 H 0.19745 0.81289 0.96491 0.0
H976 H 0.18137 0.90715 0.01938 0.0
H977 H 0.29772 0.92886 0.97969 0.0
C978 C 0.32831 0.97809 1.00435 0.0
C979 C 0.32559 0.99618 0.02649 0.0
C980 C 0.18473 0.88609 0.00773 0.0
C981 C 0.25988 0.92458 0.01198 0.0
C982 C 0.15074 0.85608 0.99618 0.0
C983 C 0.15469 0.82929 0.98042 0.0
C984 C 0.22298 0.88993 1.00286 0.0
C985 C 0.1932 0.83295 0.97701 0.0
C986 C 0.29569 0.94195 0.99722 0.0
C987 C 0.29016 0.97667 0.04152 0.0
N988 N 0.22613 0.86327 0.9878 0.0
N989 N 0.25824 0.94217 0.03373 0.0
H990 H 0.97456 0.26756 0.02627 0.0
H991 H 0.18544 0.39003 0.96 0.0
H992 H 0.98948 0.34856 0.96553 0.0
H993 H 0.13822 0.26514 0.975 0.0
H994 H 0.11721 0.38087 0.96745 0.0
H995 H 0.03833 0.27067 0.01303 0.0
C996 C 0.99122 0.28567 0.00999 0.0
C997 C 0.97723 0.30788 0.99686 0.0
C998 C 0.12188 0.35553 0.969 0.0
C999 C 0.04974 0.31216 0.98217 0.0
C1000 C 0.16061 0.3608 0.96514 0.0
C1001 C 0.16711 0.32844 0.96785 0.0
C1002 C 0.08993 0.31776 0.97579 0.0
C1003 C 0.13413 0.29082 0.97346 0.0
C1004 C 0.02727 0.28729 1.00245 0.0
C1005 C -0.00051 0.33091 0.97592 0.0
N1006 N 0.09679 0.28654 0.9778 0.0
N1007 N 0.03533 0.33309 0.96941 0.0
H1008 H 0.62911 0.63858 0.99374 0.0
H1009 H 0.71321 0.86625 0.00953 0.0
H1010 H 0.69826 0.69782 0.05919 0.0
H1011 H 0.5948 0.7915 0.9789 0.0
H1012 H 0.71362 0.80649 0.02522 0.0
H1013 H 0.62068 0.69615 0.98477 0.0
C1014 C 0.64227 0.66365 1.00627 0.0
C1015 C 0.66445 0.66369 0.02717 0.0
C1016 C 0.68734 0.80333 0.01541 0.0
C1017 C 0.65559 0.72942 0.01684 0.0
C1018 C 0.68718 0.83719 1.00648 0.0
C1019 C 0.65352 0.83331 0.99359 0.0
C1020 C 0.65435 0.7657 0.01033 0.0
C1021 C 0.62083 0.79535 0.98934 0.0
C1022 C 0.63729 0.69626 1.00125 0.0
C1023 C 0.68079 0.69671 0.04295 0.0
N1024 N 0.62217 0.7628 0.99751 0.0
N1025 N 0.6766 0.72869 0.03723 0.0
H1026 H 0.64855 0.00984 0.03036 0.0
H1027 H 0.7681 0.21752 0.03675 0.0
H1028 H 0.74984 0.01859 0.98681 0.0
H1029 H 0.86789 0.19543 0.02509 0.0
H1030 H 0.72035 0.14729 0.02815 0.0
H1031 H 0.68885 0.08074 0.03947 0.0
C1032 C 0.67936 0.02664 0.02289 0.0
C1033 C 0.69599 0.00837 0.00788 0.0
C1034 C 0.75266 0.15775 0.0276 0.0
C1035 C 0.74165 0.0894 0.01754 0.0
C1036 C 0.77976 0.19784 0.032 0.0
C1037 C 0.82167 0.21205 0.03074 0.0
C1038 C 0.76798 0.13204 0.02234 0.0
C1039 C 0.83565 0.18548 0.02559 0.0
C1040 C 0.70205 0.06723 0.02771 0.0
C1041 C 0.73581 0.03152 0.99841 0.0
N1042 N 0.80886 0.14681 0.02131 0.0
N1043 N 0.75734 0.07077 1.00352 0.0
H1044 H 0.78123 0.56477 0.0284 0.0
H1045 H 0.95279 0.67332 0.94539 0.0
H1046 H 0.81 0.68615 0.03859 0.0
H1047 H 0.00446 0.71515 0.01826 0.0
H1048 H 0.8846 0.64558 0.96449 0.0
H1049 H 0.84892 0.58892 0.0088 0.0
C1050 C 0.80161 0.59642 0.02605 0.0
C1051 C 0.78979 0.62371 0.03373 0.0
C1052 C 0.91096 0.66117 0.97612 0.0
C1053 C 0.86682 0.65095 0.01331 0.0
C1054 C 0.94957 0.67708 0.96534 0.0
C1055 C 0.98373 0.69729 0.98034 0.0
C1056 C 0.90693 0.6661 1.00185 0.0
C1057 C 0.97848 0.70033 1.0062 0.0
C1058 C 0.84003 0.61001 0.01528 0.0
C1059 C 0.81791 0.66442 0.03201 0.0
N1060 N 0.94044 0.68545 0.01622 0.0
N1061 N 0.85545 0.67701 0.02186 0.0
H1062 H 0.34259 0.30559 0.97251 0.0
H1063 H 0.29572 0.1098 0.04515 0.0
H1064 H 0.24225 0.2521 0.02604 0.0
H1065 H 0.41844 0.20715 0.03731 0.0
H1066 H 0.27053 0.15369 0.03017 0.0
H1067 H 0.36632 0.26106 0.98787 0.0
C1068 C 0.32535 0.28407 0.9873 0.0
C1069 C 0.29039 0.28212 0.99804 0.0
C1070 C 0.30295 0.16516 0.03153 0.0
C1071 C 0.31696 0.23124 0.01522 0.0
C1072 C 0.31726 0.14028 0.03985 0.0
C1073 C 0.35915 0.15471 0.0412 0.0
C1074 C 0.33088 0.20451 0.02465 0.0
C1075 C 0.38602 0.19464 0.03518 0.0
C1076 C 0.33902 0.25901 0.99609 0.0
C1077 C 0.26937 0.25431 0.01739 0.0
N1078 N 0.37143 0.21819 0.02675 0.0
N1079 N 0.28279 0.22945 0.02527 0.0
H1080 H 0.95674 0.33058 0.38962 0.0
H1081 H 0.87763 0.15433 0.29192 0.0
H1082 H 0.02562 0.33811 0.32231 0.0
H1083 H 0.79783 0.18859 0.32895 0.0
H1084 H 0.93595 0.21088 0.3113 0.0
H1085 H 0.9014 0.2667 0.37556 0.0
C1086 C 0.96037 0.31852 0.37206 0.0
C1087 C 0.99546 0.33965 0.35693 0.0
C1088 C 0.90552 0.20553 0.31532 0.0
C1089 C 0.93303 0.26687 0.34113 0.0
C1090 C 0.87239 0.17334 0.30444 0.0
C1091 C 0.83304 0.1671 0.30879 0.0
C1092 C 0.89889 0.23075 0.33105 0.0
C1093 C 0.82772 0.19263 0.32498 0.0
C1094 C 0.92887 0.28229 0.36407 0.0
C1095 C -0.00127 0.32287 0.33431 0.0
N1096 N 0.86034 0.22338 0.33561 0.0
N1097 N 0.96782 0.28729 0.32706 0.0
H1098 H 0.86679 0.73739 0.29049 0.0
H1099 H 0.66747 0.63123 0.37406 0.0
H1100 H 0.82402 0.61912 0.32022 0.0
H1101 H 0.66974 0.69138 0.30474 0.0
H1102 H 0.73353 0.63819 0.36218 0.0
H1103 H 0.80173 0.73237 0.30317 0.0
C1104 C 0.84377 0.71068 0.30004 0.0
C1105 C 0.8506 0.67905 0.30522 0.0
C1106 C 0.71939 0.64982 0.34969 0.0
C1107 C 0.77724 0.67305 0.31927 0.0
C1108 C 0.68207 0.64608 0.35644 0.0
C1109 C 0.66344 0.66065 0.34022 0.0
C1110 C 0.73829 0.66909 0.32696 0.0
C1111 C 0.68321 0.6795 0.31756 0.0
C1112 C 0.80686 0.70772 0.30699 0.0
C1113 C 0.81975 0.64434 0.31661 0.0
N1114 N 0.71999 0.68353 0.31162 0.0
N1115 N 0.78432 0.64241 0.32371 0.0
H1116 H 0.40181 0.20435 0.31873 0.0
H1117 H 0.30513 0.9903 0.37995 0.0
H1118 H 0.27151 0.13221 0.32546 0.0
H1119 H 0.39424 0.02581 0.31947 0.0
H1120 H 0.29968 0.04994 0.37126 0.0
H1121 H 0.4078 0.14585 0.33046 0.0
C1122 C 0.37464 0.1764 0.32321 0.0
C1123 C 0.33623 0.17316 0.32226 0.0
C1124 C 0.32049 0.04447 0.36009 0.0
C1125 C 0.34276 0.10712 0.33541 0.0
C1126 C 0.32359 0.01066 0.36495 0.0
C1127 C 0.35015 0.00319 0.35035 0.0
C1128 C 0.34512 0.07133 0.34113 0.0
C1129 C 0.37336 0.03035 0.3311 0.0
C1130 C 0.37804 0.14329 0.32979 0.0
C1131 C 0.30171 0.13617 0.3273 0.0
N1132 N 0.37068 0.06358 0.32721 0.0
N1133 N 0.30574 0.1045 0.334 0.0
H1134 H 0.55367 0.53615 0.36652 0.0
H1135 H 0.35772 0.36756 0.30473 0.0
H1136 H 0.44893 0.55099 0.35837 0.0
H1137 H 0.41558 0.33898 0.36445 0.0
H1138 H 0.40041 0.43838 0.31384 0.0
H1139 H 0.51218 0.46603 0.35547 0.0
C1140 C 0.52207 0.52468 0.36187 0.0
C1141 C 0.50485 0.54941 0.36223 0.0
C1142 C 0.40377 0.41647 0.32477 0.0
C1143 C 0.45767 0.46993 0.35001 0.0
C1144 C 0.37987 0.37631 0.31951 0.0
C1145 C 0.38352 0.34769 0.33384 0.0
C1146 C 0.43211 0.42789 0.34398 0.0
C1147 C 0.41204 0.36031 0.35303 0.0
C1148 C 0.49856 0.48488 0.35577 0.0
C1149 C 0.46355 0.53311 0.35707 0.0
N1150 N 0.43569 0.39972 0.35742 0.0
N1151 N 0.44126 0.49425 0.3508 0.0
H1152 H 0.63208 0.0031 0.27833 0.0
H1153 H 0.4875 0.02359 0.36994 0.0
H1154 H 0.68539 0.06115 0.34781 0.0
H1155 H 0.46299 0.90386 0.35799 0.0
H1156 H 0.55679 0.04869 0.35299 0.0
H1157 H 0.56452 0.97485 0.29833 0.0
C1158 C 0.62926 0.01053 0.29762 0.0
C1159 C 0.66367 0.03522 0.31142 0.0
C1160 C 0.53594 0.017 0.35395 0.0
C1161 C 0.58746 0.00443 0.33367 0.0
C1162 C 0.49668 0.00273 0.36341 0.0
C1163 C 0.46939 0.96178 0.36416 0.0
C1164 C 0.54744 0.99003 0.34517 0.0
C1165 C 0.48277 0.93569 0.3564 0.0
C1166 C 0.591 0.99444 0.3089 0.0
C1167 C 0.6591 0.04291 0.33659 0.0
N1168 N 0.52091 0.95031 0.34665 0.0
N1169 N 0.62128 0.02827 0.3469 0.0
H1170 H 0.00805 0.67196 0.36446 0.0
H1171 H 0.09627 0.55234 0.3805 0.0
H1172 H 0.93563 0.58312 0.31037 0.0
H1173 H 0.97356 0.45657 0.37222 0.0
H1174 H 0.0745 0.59974 0.36728 0.0
H1175 H 0.03178 0.6277 0.38062 0.0
C1176 C -0.00322 0.64294 0.35624 0.0
C1177 C 0.97 0.63104 0.33605 0.0
C1178 C 0.0524 0.56835 0.36847 0.0
C1179 C -0.00279 0.58102 0.3541 0.0
C1180 C 0.06489 0.54145 0.37555 0.0
C1181 C 0.03674 0.50078 0.37652 0.0
C1182 C 0.01156 0.55412 0.36249 0.0
C1183 C 0.99611 0.48782 0.37101 0.0
C1184 C 0.01073 0.61808 0.36521 0.0
C1185 C 0.95651 0.59337 0.32587 0.0
N1186 N 0.98474 0.51445 0.36376 0.0
N1187 N 0.97011 0.56946 0.33514 0.0
H1188 H 0.45147 0.52455 0.6658 0.0
H1189 H 0.68452 0.66487 0.65524 0.0
H1190 H 0.52689 0.48414 0.62963 0.0
H1191 H 0.61842 0.66195 0.72283 0.0
H1192 H 0.62695 0.601 0.64324 0.0
H1193 H 0.51177 0.57806 0.685 0.0
C1194 C 0.48067 0.52674 0.66209 0.0
C1195 C 0.48432 0.50002 0.64609 0.0
C1196 C 0.62541 0.61411 0.66088 0.0
C1197 C 0.5532 0.56139 0.66757 0.0
C1198 C 0.658 0.65053 0.66764 0.0
C1199 C 0.65589 0.66861 0.68994 0.0
C1200 C 0.59022 0.59642 0.6762 0.0
C1201 C 0.62111 0.64884 0.70549 0.0
C1202 C 0.51496 0.55709 0.67316 0.0
C1203 C 0.52288 0.50414 0.64194 0.0
N1204 N 0.58918 0.61404 0.69808 0.0
N1205 N 0.55609 0.53482 0.65227 0.0
H1206 H 0.52315 0.0674 0.6242 0.0
H1207 H 0.31772 0.94968 0.69811 0.0
H1208 H 0.47695 0.94379 0.64304 0.0
H1209 H 0.32635 0.02445 0.63497 0.0
H1210 H 0.3816 0.9537 0.68413 0.0
H1211 H 0.45584 0.05928 0.63387 0.0
C1212 C 0.49875 0.03869 0.63061 0.0
C1213 C 0.50532 0.00644 0.63377 0.0
C1214 C 0.36928 0.96899 0.67333 0.0
C1215 C 0.42927 0.99697 0.64437 0.0
C1216 C 0.33321 0.96693 0.68131 0.0
C1217 C 0.31723 0.98689 0.6676 0.0
C1218 C 0.38981 0.99206 0.65198 0.0
C1219 C 0.33794 0.00862 0.64588 0.0
C1220 C 0.46054 0.034 0.63578 0.0
C1221 C 0.47284 0.96941 0.64108 0.0
N1222 N 0.37377 0.0112 0.63887 0.0
N1223 N 0.43611 0.96576 0.6467 0.0
H1224 H 0.0313 0.36653 0.72882 0.0
H1225 H 0.92679 0.46192 0.64833 0.0
H1226 H 0.9642 0.30914 0.66235 0.0
H1227 H 0.05003 0.53315 0.67286 0.0
H1228 H 0.92727 0.40196 0.66314 0.0
H1229 H 0.0249 0.42499 0.71828 0.0
C1230 C 0.01472 0.36606 0.71224 0.0
C1231 C -0.00165 0.33325 0.6963 0.0
C1232 C 0.95397 0.4308 0.66548 0.0
C1233 C 0.99075 0.39919 0.68451 0.0
C1234 C 0.95366 0.46479 0.65724 0.0
C1235 C 0.98811 0.50214 0.6601 0.0
C1236 C 0.98887 0.43455 0.67675 0.0
C1237 C 0.02274 0.50468 0.67089 0.0
C1238 C 0.01138 0.39935 0.70622 0.0
C1239 C 0.97745 0.33408 0.67495 0.0
N1240 N 0.02215 0.47116 0.67918 0.0
N1241 N 0.97406 0.36661 0.66968 0.0
H1242 H 0.21325 0.87178 0.69011 0.0
H1243 H -0.00334 0.68012 0.70162 0.0
H1244 H 0.10565 0.88063 0.70361 0.0
H1245 H 0.08889 0.68621 0.65019 0.0
H1246 H 0.03911 0.7515 0.70905 0.0
H1247 H 0.17043 0.80116 0.68093 0.0
C1248 C 0.18048 0.85879 0.69062 0.0
C1249 C 0.16264 0.88191 0.69658 0.0
C1250 C 0.04999 0.73703 0.69625 0.0
C1251 C 0.11385 0.80135 0.68755 0.0
C1252 C 0.02616 0.69636 0.69228 0.0
C1253 C 0.03957 0.67737 0.67543 0.0
C1254 C 0.0877 0.75846 0.68367 0.0
C1255 C 0.0776 0.69982 0.66338 0.0
C1256 C 0.1562 0.81869 0.68552 0.0
C1257 C 0.12024 0.86379 0.69812 0.0
N1258 N 0.10053 0.73924 0.66786 0.0
N1259 N 0.09707 0.82427 0.69374 0.0
H1260 H 0.11693 0.2366 0.70237 0.0
H1261 H 0.3404 0.38867 0.68772 0.0
H1262 H 0.1396 0.35648 0.71041 0.0
H1263 H 0.27926 0.34612 0.61733 0.0
H1264 H 0.27365 0.36357 0.70913 0.0
H1265 H 0.18552 0.26308 0.68357 0.0
C1266 C 0.13627 0.26839 0.69983 0.0
C1267 C 0.12247 0.29457 0.70654 0.0
C1268 C 0.27528 0.3601 0.68899 0.0
C1269 C 0.20025 0.32445 0.68691 0.0
C1270 C 0.31289 0.37429 0.67689 0.0
C1271 C 0.31475 0.37038 0.6508 0.0
C1272 C 0.23999 0.34063 0.67487 0.0
C1273 C 0.27867 0.35063 0.63741 0.0
C1274 C 0.17516 0.28331 0.68952 0.0
C1275 C 0.14912 0.33559 0.70452 0.0
N1276 N 0.24241 0.33619 0.64968 0.0
N1277 N 0.18702 0.3495 0.69461 0.0
H1278 H 0.62912 0.78574 0.71082 0.0
H1279 H 0.68136 0.98448 0.63995 0.0
H1280 H 0.75297 0.88045 0.70185 0.0
H1281 H 0.57871 0.92991 0.69172 0.0
H1282 H 0.70427 0.93951 0.6556 0.0
H1283 H 0.60556 0.83154 0.69712 0.0
C1284 C 0.65123 0.81608 0.70558 0.0
C1285 C 0.69292 0.82919 0.70617 0.0
C1286 C 0.67669 0.93733 0.66343 0.0
C1287 C 0.66653 0.88121 0.69115 0.0
C1288 C 0.66351 0.96269 0.65448 0.0
C1289 C 0.62806 0.96045 0.66456 0.0
C1290 C 0.65361 0.90893 0.68204 0.0
C1291 C 0.60621 0.9323 0.68358 0.0
C1292 C 0.63785 0.84207 0.69801 0.0
C1293 C 0.7206 0.86895 0.70027 0.0
N1294 N 0.61911 0.90706 0.69157 0.0
N1295 N 0.70691 0.8936 0.69259 0.0
loop_
_geom_bond_atom_site_label_1
_geom_bond_atom_site_label_2
_geom_bond_distance
_geom_bond_site_symmetry_2
_ccdc_geom_bond_type
Mn0 O5 2.095 . S
Mn0 O15 2.162 . S
Mn0 O16 2.297 . S
Mn0 O24 2.385 . S
Mn0 O25 2.209 . S
Mn0 O26 2.094 1_545 S
Mn1 O6 2.107 1_556 S
Mn1 N8 2.275 . S
Mn1 N17 2.299 . S
Mn1 O25 2.194 1_556 S
Mn1 O27 2.106 1_546 S
C2 O24 1.234 . S
C2 O25 1.283 . S
C3 O15 1.281 . S
C3 O16 1.236 . S
C4 O26 1.240 . S
C4 O27 1.264 . S
O5 Mn0 2.095 . S
O5 C14 1.250 . S
O6 Mn1 2.107 1_554 S
O6 C14 1.258 . S
C7 N8 1.326 . S
C7 C11 1.460 . S
C7 H13 0.929 . S
N8 Mn1 2.275 . S
N8 C7 1.326 . S
N8 C12 1.362 . S
C9 C10 1.258 . S
C9 C12 1.431 . S
C9 C29 1.449 . S
C10 C9 1.258 . S
C10 C11 1.477 . S
C10 H30 0.931 . S
C11 C7 1.460 . S
C11 C10 1.477 . S
C11 H31 0.930 . S
C12 N8 1.362 . S
C12 C9 1.431 . S
C12 C22 1.476 . S
H13 C7 0.929 . S
C14 O5 1.250 . S
C14 O6 1.258 . S
O15 Mn0 2.162 . S
O15 C3 1.281 . S
O16 Mn0 2.297 . S
O16 C3 1.236 . S
N17 Mn1 2.299 . S
N17 C18 1.328 . S
N17 C22 1.318 . S
C18 N17 1.328 . S
C18 C19 1.457 . S
C18 H23 0.929 . S
C19 C18 1.457 . S
C19 C20 1.291 . S
C19 H32 0.931 . S
C20 C19 1.291 . S
C20 C21 1.373 . S
C20 H33 0.929 . S
C21 C20 1.373 . S
C21 C22 1.396 . S
C21 C28 1.403 . S
C22 C12 1.476 . S
C22 N17 1.318 . S
C22 C21 1.396 . S
H23 C18 0.929 . S
O24 Mn0 2.385 . S
O24 C2 1.234 . S
O25 Mn0 2.209 . S
O25 Mn1 2.194 1_554 S
O25 C2 1.283 . S
O26 Mn0 2.094 1_565 S
O26 C4 1.240 . S
O27 Mn1 2.106 1_564 S
O27 C4 1.264 . S
C28 C21 1.403 . S
C28 C29 1.399 . S
C28 H34 0.929 . S
C29 C9 1.449 . S
C29 C28 1.399 . S
C29 H35 0.930 . S
H30 C10 0.931 . S
H31 C11 0.930 . S
H32 C19 0.931 . S
H33 C20 0.929 . S
H34 C28 0.929 . S
H35 C29 0.930 . S
Mn36 O41 2.095 . S
Mn36 O51 2.162 . S
Mn36 O52 2.297 . S
Mn36 O60 2.385 . S
Mn36 O61 2.209 . S
Mn36 O62 2.094 1_655 S
Mn37 O42 2.103 1_556 S
Mn37 N44 2.280 . S
Mn37 N53 2.304 . S
Mn37 O61 2.189 1_556 S
Mn37 O63 2.103 1_656 S
C38 O60 1.234 . S
C38 O61 1.283 . S
C39 O51 1.281 . S
C39 O52 1.236 . S
C40 O62 1.240 . S
C40 O63 1.264 . S
O41 Mn36 2.095 . S
O41 C50 1.250 . S
O42 Mn37 2.103 1_554 S
O42 C50 1.258 . S
C43 N44 1.326 . S
C43 C47 1.460 . S
C43 H49 0.929 . S
N44 Mn37 2.280 . S
N44 C43 1.326 . S
N44 C48 1.362 . S
C45 C46 1.258 . S
C45 C48 1.431 . S
C45 C65 1.449 . S
C46 C45 1.258 . S
C46 C47 1.477 . S
C46 H66 0.931 . S
C47 C43 1.460 . S
C47 C46 1.477 . S
C47 H67 0.930 . S
C48 N44 1.362 . S
C48 C45 1.431 . S
C48 C58 1.476 . S
H49 C43 0.929 . S
C50 O41 1.250 . S
C50 O42 1.258 . S
O51 Mn36 2.162 . S
O51 C39 1.281 . S
O52 Mn36 2.297 . S
O52 C39 1.236 . S
N53 Mn37 2.304 . S
N53 C54 1.328 . S
N53 C58 1.318 . S
C54 N53 1.328 . S
C54 C55 1.457 . S
C54 H59 0.929 . S
C55 C54 1.457 . S
C55 C56 1.291 . S
C55 H68 0.931 . S
C56 C55 1.291 . S
C56 C57 1.373 . S
C56 H69 0.929 . S
C57 C56 1.373 . S
C57 C58 1.396 . S
C57 C64 1.403 . S
C58 C48 1.476 . S
C58 N53 1.318 . S
C58 C57 1.396 . S
H59 C54 0.929 . S
O60 Mn36 2.385 . S
O60 C38 1.234 . S
O61 Mn36 2.209 . S
O61 Mn37 2.189 1_554 S
O61 C38 1.283 . S
O62 Mn36 2.094 1_455 S
O62 C40 1.240 . S
O63 Mn37 2.103 1_454 S
O63 C40 1.264 . S
C64 C57 1.403 . S
C64 C65 1.399 . S
C64 H70 0.929 . S
C65 C45 1.449 . S
C65 C64 1.399 . S
C65 H71 0.930 . S
H66 C46 0.931 . S
H67 C47 0.930 . S
H68 C55 0.931 . S
H69 C56 0.929 . S
H70 C64 0.929 . S
H71 C65 0.930 . S
Mn72 O77 2.095 . S
Mn72 O87 2.162 . S
Mn72 O88 2.297 . S
Mn72 O96 2.385 . S
Mn72 O97 2.209 . S
Mn72 O98 2.094 . S
Mn73 O78 2.121 1_556 S
Mn73 N80 2.257 . S
Mn73 N89 2.282 . S
Mn73 O97 2.215 1_556 S
Mn73 O99 2.117 1_556 S
C74 O96 1.234 . S
C74 O97 1.283 . S
C75 O87 1.281 . S
C75 O88 1.236 . S
C76 O98 1.240 . S
C76 O99 1.264 . S
O77 Mn72 2.095 . S
O77 C86 1.250 . S
O78 Mn73 2.121 1_554 S
O78 C86 1.258 . S
C79 N80 1.326 . S
C79 C83 1.460 . S
C79 H85 0.929 . S
N80 Mn73 2.257 . S
N80 C79 1.326 . S
N80 C84 1.362 . S
C81 C82 1.258 . S
C81 C84 1.431 . S
C81 C101 1.449 . S
C82 C81 1.258 . S
C82 C83 1.477 . S
C82 H102 0.931 . S
C83 C79 1.460 . S
C83 C82 1.477 . S
C83 H103 0.930 . S
C84 N80 1.362 . S
C84 C81 1.431 . S
C84 C94 1.476 . S
H85 C79 0.929 . S
C86 O77 1.250 . S
C86 O78 1.258 . S
O87 Mn72 2.162 . S
O87 C75 1.281 . S
O88 Mn72 2.297 . S
O88 C75 1.236 . S
N89 Mn73 2.282 . S
N89 C90 1.328 . S
N89 C94 1.318 . S
C90 N89 1.328 . S
C90 C91 1.457 . S
C90 H95 0.929 . S
C91 C90 1.457 . S
C91 C92 1.291 . S
C91 H104 0.931 . S
C92 C91 1.291 . S
C92 C93 1.373 . S
C92 H105 0.929 . S
C93 C92 1.373 . S
C93 C94 1.396 . S
C93 C100 1.403 . S
C94 C84 1.476 . S
C94 N89 1.318 . S
C94 C93 1.396 . S
H95 C90 0.929 . S
O96 Mn72 2.385 . S
O96 C74 1.234 . S
O97 Mn72 2.209 . S
O97 Mn73 2.215 1_554 S
O97 C74 1.283 . S
O98 Mn72 2.094 . S
O98 C76 1.240 . S
O99 Mn73 2.117 1_554 S
O99 C76 1.264 . S
C100 C93 1.403 . S
C100 C101 1.399 . S
C100 H106 0.929 . S
C101 C81 1.449 . S
C101 C100 1.399 . S
C101 H107 0.930 . S
H102 C82 0.931 . S
H103 C83 0.930 . S
H104 C91 0.931 . S
H105 C92 0.929 . S
H106 C100 0.929 . S
H107 C101 0.930 . S
Mn108 O113 2.095 . S
Mn108 O123 2.162 . S
Mn108 O124 2.297 . S
Mn108 O132 2.385 . S
Mn108 O133 2.209 . S
Mn108 O134 2.094 1_565 S
Mn109 O114 2.121 1_554 S
Mn109 N116 2.257 . S
Mn109 N125 2.282 . S
Mn109 O133 2.215 1_554 S
Mn109 O135 2.117 1_564 S
C110 O132 1.234 . S
C110 O133 1.283 . S
C111 O123 1.281 . S
C111 O124 1.236 . S
C112 O134 1.240 . S
C112 O135 1.264 . S
O113 Mn108 2.095 . S
O113 C122 1.250 . S
O114 Mn109 2.121 1_556 S
O114 C122 1.258 . S
C115 N116 1.326 . S
C115 C119 1.460 . S
C115 H121 0.929 . S
N116 Mn109 2.257 . S
N116 C115 1.326 . S
N116 C120 1.362 . S
C117 C118 1.258 . S
C117 C120 1.431 . S
C117 C137 1.449 . S
C118 C117 1.258 . S
C118 C119 1.477 . S
C118 H138 0.931 . S
C119 C115 1.460 . S
C119 C118 1.477 . S
C119 H139 0.930 . S
C120 N116 1.362 . S
C120 C117 1.431 . S
C120 C130 1.476 . S
H121 C115 0.929 . S
C122 O113 1.250 . S
C122 O114 1.258 . S
O123 Mn108 2.162 . S
O123 C111 1.281 . S
O124 Mn108 2.297 . S
O124 C111 1.236 . S
N125 Mn109 2.282 . S
N125 C126 1.328 . S
N125 C130 1.318 . S
C126 N125 1.328 . S
C126 C127 1.457 . S
C126 H131 0.929 . S
C127 C126 1.457 . S
C127 C128 1.291 . S
C127 H140 0.931 . S
C128 C127 1.291 . S
C128 C129 1.373 . S
C128 H141 0.929 . S
C129 C128 1.373 . S
C129 C130 1.396 . S
C129 C136 1.403 . S
C130 C120 1.476 . S
C130 N125 1.318 . S
C130 C129 1.396 . S
H131 C126 0.929 . S
O132 Mn108 2.385 . S
O132 C110 1.234 . S
O133 Mn108 2.209 . S
O133 Mn109 2.215 1_556 S
O133 C110 1.283 . S
O134 Mn108 2.094 1_545 S
O134 C112 1.240 . S
O135 Mn109 2.117 1_546 S
O135 C112 1.264 . S
C136 C129 1.403 . S
C136 C137 1.399 . S
C136 H142 0.929 . S
C137 C117 1.449 . S
C137 C136 1.399 . S
C137 H143 0.930 . S
H138 C118 0.931 . S
H139 C119 0.930 . S
H140 C127 0.931 . S
H141 C128 0.929 . S
H142 C136 0.929 . S
H143 C137 0.930 . S
Mn144 O149 2.095 . S
Mn144 O159 2.162 . S
Mn144 O160 2.297 1_455 S
Mn144 O168 2.385 1_455 S
Mn144 O169 2.209 1_455 S
Mn144 O170 2.094 . S
Mn145 O150 2.121 . S
Mn145 N152 2.257 1_455 S
Mn145 N161 2.282 1_455 S
Mn145 O169 2.215 1_455 S
Mn145 O171 2.117 . S
C146 O168 1.234 . S
C146 O169 1.283 . S
C147 O159 1.281 . S
C147 O160 1.236 1_455 S
C148 O170 1.240 . S
C148 O171 1.264 . S
O149 Mn144 2.095 . S
O149 C158 1.250 . S
O150 Mn145 2.121 . S
O150 C158 1.258 . S
C151 N152 1.326 . S
C151 C155 1.460 . S
C151 H157 0.929 . S
N152 Mn145 2.257 1_655 S
N152 C151 1.326 . S
N152 C156 1.362 . S
C153 C154 1.258 . S
C153 C156 1.431 . S
C153 C173 1.449 . S
C154 C153 1.258 . S
C154 C155 1.477 . S
C154 H174 0.931 . S
C155 C151 1.460 . S
C155 C154 1.477 . S
C155 H175 0.930 . S
C156 N152 1.362 . S
C156 C153 1.431 . S
C156 C166 1.476 . S
H157 C151 0.929 . S
C158 O149 1.250 . S
C158 O150 1.258 . S
O159 Mn144 2.162 . S
O159 C147 1.281 . S
O160 Mn144 2.297 1_655 S
O160 C147 1.236 1_655 S
N161 Mn145 2.282 1_655 S
N161 C162 1.328 . S
N161 C166 1.318 . S
C162 N161 1.328 . S
C162 C163 1.438 1_556 S
C162 H167 0.929 1_655 S
C163 C162 1.438 1_554 S
C163 C164 1.278 1_554 S
C163 H176 0.963 . S
C164 C163 1.278 1_556 S
C164 C165 1.373 . S
C164 H177 0.929 1_556 S
C165 C164 1.373 . S
C165 C166 1.396 . S
C165 C172 1.403 . S
C166 C156 1.476 . S
C166 N161 1.318 . S
C166 C165 1.396 . S
H167 C162 0.929 1_455 S
O168 Mn144 2.385 1_655 S
O168 C146 1.234 . S
O169 Mn144 2.209 1_655 S
O169 Mn145 2.215 1_655 S
O169 C146 1.283 . S
O170 Mn144 2.094 . S
O170 C148 1.240 . S
O171 Mn145 2.117 . S
O171 C148 1.264 . S
C172 C165 1.403 . S
C172 C173 1.399 . S
C172 H178 0.929 . S
C173 C153 1.449 . S
C173 C172 1.399 . S
C173 H179 0.930 . S
H174 C154 0.931 . S
H175 C155 0.930 . S
H176 C163 0.963 . S
H177 C164 0.929 1_554 S
H178 C172 0.929 . S
H179 C173 0.930 . S
Mn180 O185 2.095 . S
Mn180 O195 2.162 . S
Mn180 O196 2.297 . S
Mn180 O204 2.385 . S
Mn180 O205 2.209 . S
Mn180 O206 2.094 . S
Mn181 O186 2.141 . S
Mn181 N188 2.231 1_556 S
Mn181 N197 2.259 1_556 S
Mn181 O205 2.246 . S
Mn181 O207 2.134 . S
C182 O204 1.234 . S
C182 O205 1.283 . S
C183 O195 1.281 . S
C183 O196 1.236 . S
C184 O206 1.240 . S
C184 O207 1.264 . S
O185 Mn180 2.095 . S
O185 C194 1.250 . S
O186 Mn181 2.141 . S
O186 C194 1.258 . S
C187 N188 1.326 . S
C187 C191 1.460 . S
C187 H193 0.929 . S
N188 Mn181 2.231 1_554 S
N188 C187 1.326 . S
N188 C192 1.362 . S
C189 C190 1.258 . S
C189 C192 1.431 . S
C189 C209 1.449 . S
C190 C189 1.258 . S
C190 C191 1.477 . S
C190 H210 0.931 . S
C191 C187 1.460 . S
C191 C190 1.477 . S
C191 H211 0.930 . S
C192 N188 1.362 . S
C192 C189 1.431 . S
C192 C202 1.476 . S
H193 C187 0.929 . S
C194 O185 1.250 . S
C194 O186 1.258 . S
O195 Mn180 2.162 . S
O195 C183 1.281 . S
O196 Mn180 2.297 . S
O196 C183 1.236 . S
N197 Mn181 2.259 1_554 S
N197 C198 1.328 . S
N197 C202 1.318 . S
C198 N197 1.328 . S
C198 C199 1.457 . S
C198 H203 0.929 . S
C199 C198 1.457 . S
C199 C200 1.291 . S
C199 H212 0.931 . S
C200 C199 1.291 . S
C200 C201 1.373 . S
C200 H213 0.929 . S
C201 C200 1.373 . S
C201 C202 1.396 . S
C201 C208 1.403 . S
C202 C192 1.476 . S
C202 N197 1.318 . S
C202 C201 1.396 . S
H203 C198 0.929 . S
O204 Mn180 2.385 . S
O204 C182 1.234 . S
O205 Mn180 2.209 . S
O205 Mn181 2.246 . S
O205 C182 1.283 . S
O206 Mn180 2.094 . S
O206 C184 1.240 . S
O207 Mn181 2.134 . S
O207 C184 1.264 . S
C208 C201 1.403 . S
C208 C209 1.399 . S
C208 H214 0.929 . S
C209 C189 1.449 . S
C209 C208 1.399 . S
C209 H215 0.930 . S
H210 C190 0.931 . S
H211 C191 0.930 . S
H212 C199 0.931 . S
H213 C200 0.929 . S
H214 C208 0.929 . S
H215 C209 0.930 . S
Mn216 O221 2.095 1_655 S
Mn216 O231 2.162 . S
Mn216 O232 2.297 1_655 S
Mn216 O240 2.385 . S
Mn216 O241 2.209 1_655 S
Mn216 O242 2.094 . S
Mn217 O222 2.121 . S
Mn217 N224 2.257 . S
Mn217 N233 2.282 1_455 S
Mn217 O241 2.215 . S
Mn217 O243 2.117 1_455 S
C218 O240 1.234 . S
C218 O241 1.283 1_655 S
C219 O231 1.281 1_455 S
C219 O232 1.236 . S
C220 O242 1.240 . S
C220 O243 1.264 . S
O221 Mn216 2.095 1_455 S
O221 C230 1.250 . S
O222 Mn217 2.121 . S
O222 C230 1.258 . S
C223 N224 1.326 . S
C223 C227 1.460 . S
C223 H229 0.929 . S
N224 Mn217 2.257 . S
N224 C223 1.326 . S
N224 C228 1.362 . S
C225 C226 1.258 . S
C225 C228 1.431 . S
C225 C245 1.449 . S
C226 C225 1.258 . S
C226 C227 1.477 . S
C226 H246 0.931 . S
C227 C223 1.460 . S
C227 C226 1.477 . S
C227 H247 0.930 . S
C228 N224 1.362 . S
C228 C225 1.431 . S
C228 C238 1.476 1_455 S
H229 C223 0.929 . S
C230 O221 1.250 . S
C230 O222 1.258 . S
O231 Mn216 2.162 . S
O231 C219 1.281 1_655 S
O232 Mn216 2.297 1_455 S
O232 C219 1.236 . S
N233 Mn217 2.282 1_655 S
N233 C234 1.328 . S
N233 C238 1.318 . S
C234 N233 1.328 . S
C234 C235 1.457 . S
C234 H239 0.929 . S
C235 C234 1.457 . S
C235 C236 1.291 . S
C235 H248 0.931 . S
C236 C235 1.291 . S
C236 C237 1.373 . S
C236 H249 0.929 . S
C237 C236 1.373 . S
C237 C238 1.396 . S
C237 C244 1.403 . S
C238 C228 1.476 1_655 S
C238 N233 1.318 . S
C238 C237 1.396 . S
H239 C234 0.929 . S
O240 Mn216 2.385 . S
O240 C218 1.234 . S
O241 Mn216 2.209 1_455 S
O241 Mn217 2.215 . S
O241 C218 1.283 1_455 S
O242 Mn216 2.094 . S
O242 C220 1.240 . S
O243 Mn217 2.117 1_655 S
O243 C220 1.264 . S
C244 C237 1.403 . S
C244 C245 1.399 1_655 S
C244 H250 0.929 . S
C245 C225 1.449 . S
C245 C244 1.399 1_455 S
C245 H251 0.930 . S
H246 C226 0.931 . S
H247 C227 0.930 . S
H248 C235 0.931 . S
H249 C236 0.929 . S
H250 C244 0.929 . S
H251 C245 0.930 . S
Mn252 O257 2.095 . S
Mn252 O267 2.162 . S
Mn252 O268 2.297 . S
Mn252 O276 2.385 . S
Mn252 O277 2.209 . S
Mn252 O278 2.094 . S
Mn253 O258 2.121 . S
Mn253 N260 2.257 . S
Mn253 N269 2.282 . S
Mn253 O277 2.215 . S
Mn253 O279 2.117 . S
C254 O276 1.234 . S
C254 O277 1.283 . S
C255 O267 1.281 . S
C255 O268 1.236 . S
C256 O278 1.240 . S
C256 O279 1.264 . S
O257 Mn252 2.095 . S
O257 C266 1.250 . S
O258 Mn253 2.121 . S
O258 C266 1.258 . S
C259 N260 1.326 . S
C259 C263 1.460 . S
C259 H265 0.929 . S
N260 Mn253 2.257 . S
N260 C259 1.326 . S
N260 C264 1.362 . S
C261 C262 1.258 . S
C261 C264 1.431 . S
C261 C281 1.449 . S
C262 C261 1.258 . S
C262 C263 1.477 . S
C262 H282 0.931 . S
C263 C259 1.460 . S
C263 C262 1.477 . S
C263 H283 0.930 . S
C264 N260 1.362 . S
C264 C261 1.431 . S
C264 C274 1.476 . S
H265 C259 0.929 . S
C266 O257 1.250 . S
C266 O258 1.258 . S
O267 Mn252 2.162 . S
O267 C255 1.281 . S
O268 Mn252 2.297 . S
O268 C255 1.236 . S
N269 Mn253 2.282 . S
N269 C270 1.328 . S
N269 C274 1.318 . S
C270 N269 1.328 . S
C270 C271 1.457 . S
C270 H275 0.929 . S
C271 C270 1.457 . S
C271 C272 1.291 . S
C271 H284 0.931 . S
C272 C271 1.291 . S
C272 C273 1.373 . S
C272 H285 0.929 . S
C273 C272 1.373 . S
C273 C274 1.396 . S
C273 C280 1.403 . S
C274 C264 1.476 . S
C274 N269 1.318 . S
C274 C273 1.396 . S
H275 C270 0.929 . S
O276 Mn252 2.385 . S
O276 C254 1.234 . S
O277 Mn252 2.209 . S
O277 Mn253 2.215 . S
O277 C254 1.283 . S
O278 Mn252 2.094 . S
O278 C256 1.240 . S
O279 Mn253 2.117 . S
O279 C256 1.264 . S
C280 C273 1.403 . S
C280 C281 1.399 . S
C280 H286 0.929 . S
C281 C261 1.449 . S
C281 C280 1.399 . S
C281 H287 0.930 . S
H282 C262 0.931 . S
H283 C263 0.930 . S
H284 C271 0.931 . S
H285 C272 0.929 . S
H286 C280 0.929 . S
H287 C281 0.930 . S
Mn288 O293 2.095 1_545 S
Mn288 O303 2.162 . S
Mn288 O304 2.297 1_545 S
Mn288 O312 2.385 . S
Mn288 O313 2.209 1_545 S
Mn288 O314 2.094 . S
Mn289 O294 2.121 . S
Mn289 N296 2.257 . S
Mn289 N305 2.282 1_565 S
Mn289 O313 2.215 . S
Mn289 O315 2.117 1_565 S
C290 O312 1.234 . S
C290 O313 1.283 1_545 S
C291 O303 1.281 1_565 S
C291 O304 1.236 . S
C292 O314 1.240 . S
C292 O315 1.264 . S
O293 Mn288 2.095 1_565 S
O293 C302 1.250 . S
O294 Mn289 2.121 . S
O294 C302 1.258 . S
C295 N296 1.326 . S
C295 C299 1.460 . S
C295 H301 0.929 . S
N296 Mn289 2.257 . S
N296 C295 1.326 . S
N296 C300 1.362 . S
C297 C298 1.258 . S
C297 C300 1.431 . S
C297 C317 1.449 . S
C298 C297 1.258 . S
C298 C299 1.477 . S
C298 H318 0.931 . S
C299 C295 1.460 . S
C299 C298 1.477 . S
C299 H319 0.930 . S
C300 N296 1.362 . S
C300 C297 1.431 . S
C300 C310 1.476 1_565 S
H301 C295 0.929 . S
C302 O293 1.250 . S
C302 O294 1.258 . S
O303 Mn288 2.162 . S
O303 C291 1.281 1_545 S
O304 Mn288 2.297 1_565 S
O304 C291 1.236 . S
N305 Mn289 2.282 1_545 S
N305 C306 1.328 . S
N305 C310 1.318 . S
C306 N305 1.328 . S
C306 C307 1.457 . S
C306 H311 0.929 . S
C307 C306 1.457 . S
C307 C308 1.291 . S
C307 H320 0.931 . S
C308 C307 1.291 . S
C308 C309 1.373 . S
C308 H321 0.929 . S
C309 C308 1.373 . S
C309 C310 1.396 . S
C309 C316 1.403 . S
C310 C300 1.476 1_545 S
C310 N305 1.318 . S
C310 C309 1.396 . S
H311 C306 0.929 . S
O312 Mn288 2.385 . S
O312 C290 1.234 . S
O313 Mn288 2.209 1_565 S
O313 Mn289 2.215 . S
O313 C290 1.283 1_565 S
O314 Mn288 2.094 . S
O314 C292 1.240 . S
O315 Mn289 2.117 1_545 S
O315 C292 1.264 . S
C316 C309 1.403 . S
C316 C317 1.399 1_545 S
C316 H322 0.929 . S
C317 C297 1.449 . S
C317 C316 1.399 1_565 S
C317 H323 0.930 . S
H318 C298 0.931 . S
H319 C299 0.930 . S
H320 C307 0.931 . S
H321 C308 0.929 . S
H322 C316 0.929 . S
H323 C317 0.930 . S
Mn324 O329 2.095 . S
Mn324 O339 2.162 . S
Mn324 O340 2.297 . S
Mn324 O348 2.385 . S
Mn324 O349 2.209 . S
Mn324 O350 2.094 . S
Mn325 O330 2.121 . S
Mn325 N332 2.257 . S
Mn325 N341 2.282 . S
Mn325 O349 2.215 . S
Mn325 O351 2.117 . S
C326 O348 1.234 . S
C326 O349 1.283 . S
C327 O339 1.281 . S
C327 O340 1.236 . S
C328 O350 1.240 . S
C328 O351 1.264 . S
O329 Mn324 2.095 . S
O329 C338 1.250 . S
O330 Mn325 2.121 . S
O330 C338 1.258 . S
C331 N332 1.326 . S
C331 C335 1.460 . S
C331 H337 0.929 . S
N332 Mn325 2.257 . S
N332 C331 1.326 . S
N332 C336 1.362 . S
C333 C334 1.258 . S
C333 C336 1.431 . S
C333 C353 1.449 . S
C334 C333 1.258 . S
C334 C335 1.477 . S
C334 H354 0.931 . S
C335 C331 1.460 . S
C335 C334 1.477 . S
C335 H355 0.930 . S
C336 N332 1.362 . S
C336 C333 1.431 . S
C336 C346 1.476 . S
H337 C331 0.929 . S
C338 O329 1.250 . S
C338 O330 1.258 . S
O339 Mn324 2.162 . S
O339 C327 1.281 . S
O340 Mn324 2.297 . S
O340 C327 1.236 . S
N341 Mn325 2.282 . S
N341 C342 1.328 . S
N341 C346 1.318 . S
C342 N341 1.328 . S
C342 C343 1.457 . S
C342 H347 0.929 . S
C343 C342 1.457 . S
C343 C344 1.291 . S
C343 H356 0.931 . S
C344 C343 1.291 . S
C344 C345 1.373 . S
C344 H357 0.929 . S
C345 C344 1.373 . S
C345 C346 1.396 . S
C345 C352 1.403 . S
C346 C336 1.476 . S
C346 N341 1.318 . S
C346 C345 1.396 . S
H347 C342 0.929 . S
O348 Mn324 2.385 . S
O348 C326 1.234 . S
O349 Mn324 2.209 . S
O349 Mn325 2.215 . S
O349 C326 1.283 . S
O350 Mn324 2.094 . S
O350 C328 1.240 . S
O351 Mn325 2.117 . S
O351 C328 1.264 . S
C352 C345 1.403 . S
C352 C353 1.399 . S
C352 H358 0.929 . S
C353 C333 1.449 . S
C353 C352 1.399 . S
C353 H359 0.930 . S
H354 C334 0.931 . S
H355 C335 0.930 . S
H356 C343 0.931 . S
H357 C344 0.929 . S
H358 C352 0.929 . S
H359 C353 0.930 . S
Mn360 O365 2.095 . S
Mn360 O375 2.162 1_545 S
Mn360 O376 2.297 1_545 S
Mn360 O384 2.385 . S
Mn360 O385 2.209 . S
Mn360 O386 2.094 . S
Mn361 O366 2.121 . S
Mn361 N368 2.257 . S
Mn361 N377 2.282 . S
Mn361 O385 2.215 . S
Mn361 O387 2.117 . S
C362 O384 1.234 . S
C362 O385 1.283 . S
C363 O375 1.281 . S
C363 O376 1.236 . S
C364 O386 1.240 . S
C364 O387 1.264 . S
O365 Mn360 2.095 . S
O365 C374 1.250 . S
O366 Mn361 2.121 . S
O366 C374 1.258 . S
C367 N368 1.326 . S
C367 C371 1.460 . S
C367 H373 0.929 . S
N368 Mn361 2.257 . S
N368 C367 1.326 . S
N368 C372 1.362 . S
C369 C370 1.258 . S
C369 C372 1.431 . S
C369 C389 1.449 . S
C370 C369 1.258 . S
C370 C371 1.477 . S
C370 H390 0.931 . S
C371 C367 1.460 . S
C371 C370 1.477 . S
C371 H391 0.930 . S
C372 N368 1.362 . S
C372 C369 1.431 . S
C372 C382 1.476 . S
H373 C367 0.929 . S
C374 O365 1.250 . S
C374 O366 1.258 . S
O375 Mn360 2.162 1_565 S
O375 C363 1.281 . S
O376 Mn360 2.297 1_565 S
O376 C363 1.236 . S
N377 Mn361 2.282 . S
N377 C378 1.328 . S
N377 C382 1.318 . S
C378 N377 1.328 . S
C378 C379 1.457 . S
C378 H383 0.929 . S
C379 C378 1.457 . S
C379 C380 1.291 . S
C379 H392 0.931 . S
C380 C379 1.291 . S
C380 C381 1.373 . S
C380 H393 0.929 . S
C381 C380 1.373 . S
C381 C382 1.396 . S
C381 C388 1.403 . S
C382 C372 1.476 . S
C382 N377 1.318 . S
C382 C381 1.396 . S
H383 C378 0.929 . S
O384 Mn360 2.385 . S
O384 C362 1.234 . S
O385 Mn360 2.209 . S
O385 Mn361 2.215 . S
O385 C362 1.283 . S
O386 Mn360 2.094 . S
O386 C364 1.240 . S
O387 Mn361 2.117 . S
O387 C364 1.264 . S
C388 C381 1.403 . S
C388 C389 1.399 . S
C388 H394 0.929 . S
C389 C369 1.449 . S
C389 C388 1.399 . S
C389 H395 0.930 . S
H390 C370 0.931 . S
H391 C371 0.930 . S
H392 C379 0.931 . S
H393 C380 0.929 . S
H394 C388 0.929 . S
H395 C389 0.930 . S
Mn396 O401 2.095 1_655 S
Mn396 O411 2.162 . S
Mn396 O412 2.297 . S
Mn396 O420 2.385 . S
Mn396 O421 2.209 . S
Mn396 O422 2.094 . S
Mn397 O402 2.121 1_655 S
Mn397 N404 2.257 . S
Mn397 N413 2.282 . S
Mn397 O421 2.215 . S
Mn397 O423 2.117 . S
C398 O420 1.234 . S
C398 O421 1.283 . S
C399 O411 1.281 . S
C399 O412 1.236 . S
C400 O422 1.240 . S
C400 O423 1.264 . S
O401 Mn396 2.095 1_455 S
O401 C410 1.250 . S
O402 Mn397 2.121 1_455 S
O402 C410 1.258 . S
C403 N404 1.326 . S
C403 C407 1.460 . S
C403 H409 0.914 1_655 S
N404 Mn397 2.257 . S
N404 C403 1.326 . S
N404 C408 1.362 . S
C405 C406 1.258 . S
C405 C408 1.431 . S
C405 C425 1.449 . S
C406 C405 1.258 . S
C406 C407 1.477 . S
C406 H426 0.931 . S
C407 C403 1.460 . S
C407 C406 1.477 . S
C407 H427 0.930 . S
C408 N404 1.362 . S
C408 C405 1.431 . S
C408 C418 1.476 . S
H409 C403 0.914 1_455 S
C410 O401 1.250 . S
C410 O402 1.258 . S
O411 Mn396 2.162 . S
O411 C399 1.281 . S
O412 Mn396 2.297 . S
O412 C399 1.236 . S
N413 Mn397 2.282 . S
N413 C414 1.328 . S
N413 C418 1.318 . S
C414 N413 1.328 . S
C414 C415 1.457 . S
C414 H419 0.929 . S
C415 C414 1.457 . S
C415 C416 1.291 . S
C415 H428 0.931 . S
C416 C415 1.291 . S
C416 C417 1.373 . S
C416 H429 0.929 . S
C417 C416 1.373 . S
C417 C418 1.396 . S
C417 C424 1.403 . S
C418 C408 1.476 . S
C418 N413 1.318 . S
C418 C417 1.396 . S
H419 C414 0.929 . S
O420 Mn396 2.385 . S
O420 C398 1.234 . S
O421 Mn396 2.209 . S
O421 Mn397 2.215 . S
O421 C398 1.283 . S
O422 Mn396 2.094 . S
O422 C400 1.240 . S
O423 Mn397 2.117 . S
O423 C400 1.264 . S
C424 C417 1.403 . S
C424 C425 1.399 . S
C424 H430 0.929 . S
C425 C405 1.449 . S
C425 C424 1.399 . S
C425 H431 0.930 . S
H426 C406 0.931 . S
H427 C407 0.930 . S
H428 C415 0.931 . S
H429 C416 0.929 . S
H430 C424 0.929 . S
H431 C425 0.930 . S
Mn432 O437 2.095 . S
Mn432 O447 2.162 . S
Mn432 O448 2.297 . S
Mn432 O456 2.385 . S
Mn432 O457 2.209 . S
Mn432 O458 2.094 . S
Mn433 O438 2.121 . S
Mn433 N440 2.257 . S
Mn433 N449 2.282 . S
Mn433 O457 2.215 . S
Mn433 O459 2.117 . S
C434 O456 1.234 . S
C434 O457 1.283 . S
C435 O447 1.281 . S
C435 O448 1.236 . S
C436 O458 1.240 . S
C436 O459 1.264 . S
O437 Mn432 2.095 . S
O437 C446 1.250 . S
O438 Mn433 2.121 . S
O438 C446 1.258 . S
C439 N440 1.326 . S
C439 C443 1.460 . S
C439 H445 0.929 . S
N440 Mn433 2.257 . S
N440 C439 1.326 . S
N440 C444 1.362 . S
C441 C442 1.258 . S
C441 C444 1.431 . S
C441 C461 1.449 . S
C442 C441 1.258 . S
C442 C443 1.477 . S
C442 H462 0.931 . S
C443 C439 1.460 . S
C443 C442 1.477 . S
C443 H463 0.930 . S
C444 N440 1.362 . S
C444 C441 1.431 . S
C444 C454 1.476 . S
H445 C439 0.929 . S
C446 O437 1.250 . S
C446 O438 1.258 . S
O447 Mn432 2.162 . S
O447 C435 1.281 . S
O448 Mn432 2.297 . S
O448 C435 1.236 . S
N449 Mn433 2.282 . S
N449 C450 1.328 . S
N449 C454 1.318 . S
C450 N449 1.328 . S
C450 C451 1.457 . S
C450 H455 0.929 . S
C451 C450 1.457 . S
C451 C452 1.291 . S
C451 H464 0.931 . S
C452 C451 1.291 . S
C452 C453 1.373 . S
C452 H465 0.929 . S
C453 C452 1.373 . S
C453 C454 1.396 . S
C453 C460 1.403 . S
C454 C444 1.476 . S
C454 N449 1.318 . S
C454 C453 1.396 . S
H455 C450 0.929 . S
O456 Mn432 2.385 . S
O456 C434 1.234 . S
O457 Mn432 2.209 . S
O457 Mn433 2.215 . S
O457 C434 1.283 . S
O458 Mn432 2.094 . S
O458 C436 1.240 . S
O459 Mn433 2.117 . S
O459 C436 1.264 . S
C460 C453 1.403 . S
C460 C461 1.399 . S
C460 H466 0.929 . S
C461 C441 1.449 . S
C461 C460 1.399 . S
C461 H467 0.930 . S
H462 C442 0.931 . S
H463 C443 0.930 . S
H464 C451 0.931 . S
H465 C452 0.929 . S
H466 C460 0.929 . S
H467 C461 0.930 . S
Mn468 O473 2.095 1_565 S
Mn468 O483 2.162 . S
Mn468 O484 2.297 . S
Mn468 O492 2.385 . S
Mn468 O493 2.209 . S
Mn468 O494 2.094 . S
Mn469 O474 2.121 1_565 S
Mn469 N476 2.257 . S
Mn469 N485 2.282 . S
Mn469 O493 2.215 . S
Mn469 O495 2.117 . S
C470 O492 1.234 . S
C470 O493 1.283 . S
C471 O483 1.281 . S
C471 O484 1.236 . S
C472 O494 1.240 . S
C472 O495 1.264 . S
O473 Mn468 2.095 1_545 S
O473 C482 1.250 . S
O474 Mn469 2.121 1_545 S
O474 C482 1.258 . S
C475 N476 1.326 . S
C475 C479 1.460 . S
C475 H481 0.929 . S
N476 Mn469 2.257 . S
N476 C475 1.326 . S
N476 C480 1.362 . S
C477 C478 1.258 . S
C477 C480 1.431 . S
C477 C497 1.449 . S
C478 C477 1.258 . S
C478 C479 1.477 . S
C478 H498 0.931 . S
C479 C475 1.460 . S
C479 C478 1.477 . S
C479 H499 0.930 . S
C480 N476 1.362 . S
C480 C477 1.431 . S
C480 C490 1.476 . S
H481 C475 0.929 . S
C482 O473 1.250 . S
C482 O474 1.258 . S
O483 Mn468 2.162 . S
O483 C471 1.281 . S
O484 Mn468 2.297 . S
O484 C471 1.236 . S
N485 Mn469 2.282 . S
N485 C486 1.328 . S
N485 C490 1.318 . S
C486 N485 1.328 . S
C486 C487 1.457 . S
C486 H491 0.929 . S
C487 C486 1.457 . S
C487 C488 1.291 . S
C487 H500 0.931 . S
C488 C487 1.291 . S
C488 C489 1.373 . S
C488 H501 0.929 . S
C489 C488 1.373 . S
C489 C490 1.396 . S
C489 C496 1.403 . S
C490 C480 1.476 . S
C490 N485 1.318 . S
C490 C489 1.396 . S
H491 C486 0.929 . S
O492 Mn468 2.385 . S
O492 C470 1.234 . S
O493 Mn468 2.209 . S
O493 Mn469 2.215 . S
O493 C470 1.283 . S
O494 Mn468 2.094 . S
O494 C472 1.240 . S
O495 Mn469 2.117 . S
O495 C472 1.264 . S
C496 C489 1.403 . S
C496 C497 1.399 . S
C496 H502 0.929 . S
C497 C477 1.449 . S
C497 C496 1.399 . S
C497 H503 0.930 . S
H498 C478 0.931 . S
H499 C479 0.930 . S
H500 C487 0.931 . S
H501 C488 0.929 . S
H502 C496 0.929 . S
H503 C497 0.930 . S
Mn504 O509 2.095 1_455 S
Mn504 O519 2.162 . S
Mn504 O520 2.297 . S
Mn504 O528 2.385 . S
Mn504 O529 2.209 . S
Mn504 O530 2.094 . S
Mn505 O510 2.121 1_455 S
Mn505 N512 2.257 . S
Mn505 N521 2.282 . S
Mn505 O529 2.215 . S
Mn505 O531 2.117 . S
C506 O528 1.234 . S
C506 O529 1.283 . S
C507 O519 1.281 . S
C507 O520 1.236 . S
C508 O530 1.240 . S
C508 O531 1.264 . S
O509 Mn504 2.095 1_655 S
O509 C518 1.250 . S
O510 Mn505 2.121 1_655 S
O510 C518 1.258 . S
C511 N512 1.326 . S
C511 C515 1.460 . S
C511 H517 0.929 1_455 S
N512 Mn505 2.257 . S
N512 C511 1.326 . S
N512 C516 1.362 . S
C513 C514 1.258 . S
C513 C516 1.431 . S
C513 C533 1.449 . S
C514 C513 1.258 . S
C514 C515 1.477 . S
C514 H534 0.931 . S
C515 C511 1.460 . S
C515 C514 1.477 . S
C515 H535 0.930 . S
C516 N512 1.362 . S
C516 C513 1.431 . S
C516 C526 1.476 . S
H517 C511 0.929 1_655 S
C518 O509 1.250 . S
C518 O510 1.258 . S
O519 Mn504 2.162 . S
O519 C507 1.281 . S
O520 Mn504 2.297 . S
O520 C507 1.236 . S
N521 Mn505 2.282 . S
N521 C522 1.328 . S
N521 C526 1.318 . S
C522 N521 1.328 . S
C522 C523 1.457 . S
C522 H527 0.929 . S
C523 C522 1.457 . S
C523 C524 1.291 . S
C523 H536 0.931 . S
C524 C523 1.291 . S
C524 C525 1.373 . S
C524 H537 0.929 . S
C525 C524 1.373 . S
C525 C526 1.396 . S
C525 C532 1.403 . S
C526 C516 1.476 . S
C526 N521 1.318 . S
C526 C525 1.396 . S
H527 C522 0.929 . S
O528 Mn504 2.385 . S
O528 C506 1.234 . S
O529 Mn504 2.209 . S
O529 Mn505 2.215 . S
O529 C506 1.283 . S
O530 Mn504 2.094 . S
O530 C508 1.240 . S
O531 Mn505 2.117 . S
O531 C508 1.264 . S
C532 C525 1.403 . S
C532 C533 1.399 . S
C532 H538 0.929 . S
C533 C513 1.449 . S
C533 C532 1.399 . S
C533 H539 0.930 . S
H534 C514 0.931 . S
H535 C515 0.930 . S
H536 C523 0.931 . S
H537 C524 0.929 . S
H538 C532 0.929 . S
H539 C533 0.930 . S
Mn540 O545 2.095 1_455 S
Mn540 O555 2.162 . S
Mn540 O556 2.297 1_455 S
Mn540 O564 2.385 . S
Mn540 O565 2.209 1_455 S
Mn540 O566 2.094 . S
Mn541 O546 2.121 . S
Mn541 N548 2.257 . S
Mn541 N557 2.282 1_655 S
Mn541 O565 2.215 . S
Mn541 O567 2.117 1_655 S
C542 O564 1.234 . S
C542 O565 1.283 1_455 S
C543 O555 1.281 1_655 S
C543 O556 1.236 . S
C544 O566 1.240 . S
C544 O567 1.264 . S
O545 Mn540 2.095 1_655 S
O545 C554 1.250 . S
O546 Mn541 2.121 . S
O546 C554 1.258 . S
C547 N548 1.326 . S
C547 C551 1.460 . S
C547 H553 0.929 . S
N548 Mn541 2.257 . S
N548 C547 1.326 . S
N548 C552 1.362 . S
C549 C550 1.258 . S
C549 C552 1.431 . S
C549 C569 1.449 . S
C550 C549 1.258 . S
C550 C551 1.477 . S
C550 H570 0.931 . S
C551 C547 1.460 . S
C551 C550 1.477 . S
C551 H571 0.930 . S
C552 N548 1.362 . S
C552 C549 1.431 . S
C552 C562 1.476 1_655 S
H553 C547 0.929 . S
C554 O545 1.250 . S
C554 O546 1.258 . S
O555 Mn540 2.162 . S
O555 C543 1.281 1_455 S
O556 Mn540 2.297 1_655 S
O556 C543 1.236 . S
N557 Mn541 2.282 1_455 S
N557 C558 1.328 . S
N557 C562 1.318 . S
C558 N557 1.328 . S
C558 C559 1.457 . S
C558 H563 0.929 . S
C559 C558 1.457 . S
C559 C560 1.291 . S
C559 H572 0.931 . S
C560 C559 1.291 . S
C560 C561 1.373 . S
C560 H573 0.929 . S
C561 C560 1.373 . S
C561 C562 1.396 . S
C561 C568 1.403 . S
C562 C552 1.476 1_455 S
C562 N557 1.318 . S
C562 C561 1.396 . S
H563 C558 0.929 . S
O564 Mn540 2.385 . S
O564 C542 1.234 . S
O565 Mn540 2.209 1_655 S
O565 Mn541 2.215 . S
O565 C542 1.283 1_655 S
O566 Mn540 2.094 . S
O566 C544 1.240 . S
O567 Mn541 2.117 1_455 S
O567 C544 1.264 . S
C568 C561 1.403 . S
C568 C569 1.399 1_455 S
C568 H574 0.929 . S
C569 C549 1.449 . S
C569 C568 1.399 1_655 S
C569 H575 0.930 . S
H570 C550 0.931 . S
H571 C551 0.930 . S
H572 C559 0.931 . S
H573 C560 0.929 . S
H574 C568 0.929 . S
H575 C569 0.930 . S
Mn576 O581 2.095 . S
Mn576 O591 2.162 . S
Mn576 O592 2.297 . S
Mn576 O600 2.385 . S
Mn576 O601 2.209 . S
Mn576 O602 2.094 . S
Mn577 O582 2.121 . S
Mn577 N584 2.257 . S
Mn577 N593 2.282 . S
Mn577 O601 2.215 . S
Mn577 O603 2.117 . S
C578 O600 1.234 . S
C578 O601 1.283 . S
C579 O591 1.281 . S
C579 O592 1.236 . S
C580 O602 1.240 . S
C580 O603 1.264 . S
O581 Mn576 2.095 . S
O581 C590 1.250 . S
O582 Mn577 2.121 . S
O582 C590 1.258 . S
C583 N584 1.326 . S
C583 C587 1.460 . S
C583 H589 0.929 . S
N584 Mn577 2.257 . S
N584 C583 1.326 . S
N584 C588 1.362 . S
C585 C586 1.258 . S
C585 C588 1.431 . S
C585 C605 1.449 . S
C586 C585 1.258 . S
C586 C587 1.477 . S
C586 H606 0.931 . S
C587 C583 1.460 . S
C587 C586 1.477 . S
C587 H607 0.930 . S
C588 N584 1.362 . S
C588 C585 1.431 . S
C588 C598 1.476 . S
H589 C583 0.929 . S
C590 O581 1.250 . S
C590 O582 1.258 . S
O591 Mn576 2.162 . S
O591 C579 1.281 . S
O592 Mn576 2.297 . S
O592 C579 1.236 . S
N593 Mn577 2.282 . S
N593 C594 1.328 . S
N593 C598 1.318 . S
C594 N593 1.328 . S
C594 C595 1.457 . S
C594 H599 0.929 . S
C595 C594 1.457 . S
C595 C596 1.291 . S
C595 H608 0.931 . S
C596 C595 1.291 . S
C596 C597 1.373 . S
C596 H609 0.929 . S
C597 C596 1.373 . S
C597 C598 1.396 . S
C597 C604 1.403 . S
C598 C588 1.476 . S
C598 N593 1.318 . S
C598 C597 1.396 . S
H599 C594 0.929 . S
O600 Mn576 2.385 . S
O600 C578 1.234 . S
O601 Mn576 2.209 . S
O601 Mn577 2.215 . S
O601 C578 1.283 . S
O602 Mn576 2.094 . S
O602 C580 1.240 . S
O603 Mn577 2.117 . S
O603 C580 1.264 . S
C604 C597 1.403 . S
C604 C605 1.399 . S
C604 H610 0.929 . S
C605 C585 1.449 . S
C605 C604 1.399 . S
C605 H611 0.930 . S
H606 C586 0.931 . S
H607 C587 0.930 . S
H608 C595 0.931 . S
H609 C596 0.929 . S
H610 C604 0.929 . S
H611 C605 0.930 . S
Mn612 O617 2.095 1_565 S
Mn612 O627 2.162 . S
Mn612 O628 2.297 1_565 S
Mn612 O636 2.385 . S
Mn612 O637 2.209 1_565 S
Mn612 O638 2.094 . S
Mn613 O618 2.121 . S
Mn613 N620 2.257 . S
Mn613 N629 2.282 1_545 S
Mn613 O637 2.215 . S
Mn613 O639 2.117 1_545 S
C614 O636 1.234 . S
C614 O637 1.283 1_565 S
C615 O627 1.281 1_545 S
C615 O628 1.236 . S
C616 O638 1.240 . S
C616 O639 1.264 . S
O617 Mn612 2.095 1_545 S
O617 C626 1.250 . S
O618 Mn613 2.121 . S
O618 C626 1.258 . S
C619 N620 1.326 . S
C619 C623 1.460 . S
C619 H625 0.929 . S
N620 Mn613 2.257 . S
N620 C619 1.326 . S
N620 C624 1.362 . S
C621 C622 1.258 . S
C621 C624 1.431 . S
C621 C641 1.449 . S
C622 C621 1.258 . S
C622 C623 1.477 . S
C622 H642 0.931 . S
C623 C619 1.460 . S
C623 C622 1.477 . S
C623 H643 0.930 . S
C624 N620 1.362 . S
C624 C621 1.431 . S
C624 C634 1.476 1_545 S
H625 C619 0.929 . S
C626 O617 1.250 . S
C626 O618 1.258 . S
O627 Mn612 2.162 . S
O627 C615 1.281 1_565 S
O628 Mn612 2.297 1_545 S
O628 C615 1.236 . S
N629 Mn613 2.282 1_565 S
N629 C630 1.328 . S
N629 C634 1.318 . S
C630 N629 1.328 . S
C630 C631 1.457 . S
C630 H635 0.929 . S
C631 C630 1.457 . S
C631 C632 1.291 . S
C631 H644 0.931 . S
C632 C631 1.291 . S
C632 C633 1.373 . S
C632 H645 0.929 . S
C633 C632 1.373 . S
C633 C634 1.396 . S
C633 C640 1.403 . S
C634 C624 1.476 1_565 S
C634 N629 1.318 . S
C634 C633 1.396 . S
H635 C630 0.929 . S
O636 Mn612 2.385 . S
O636 C614 1.234 . S
O637 Mn612 2.209 1_545 S
O637 Mn613 2.215 . S
O637 C614 1.283 1_545 S
O638 Mn612 2.094 . S
O638 C616 1.240 . S
O639 Mn613 2.117 1_565 S
O639 C616 1.264 . S
C640 C633 1.403 . S
C640 C641 1.399 1_565 S
C640 H646 0.929 . S
C641 C621 1.449 . S
C641 C640 1.399 1_545 S
C641 H647 0.930 . S
H642 C622 0.931 . S
H643 C623 0.930 . S
H644 C631 0.931 . S
H645 C632 0.929 . S
H646 C640 0.929 . S
H647 C641 0.930 . S
H648 C654 0.930 . S
H649 C658 0.930 . S
H650 C663 0.929 . S
H651 C661 0.929 . S
H652 C656 0.929 . S
H653 C662 0.929 . S
C654 H648 0.930 . S
C654 C655 1.367 1_565 S
C654 C662 1.378 . S
C655 C654 1.367 1_545 S
C655 C663 1.433 . S
C656 H652 0.929 . S
C656 C658 1.378 . S
C656 C660 1.352 . S
C657 C660 1.465 1_554 S
C657 C662 1.350 1_545 S
C657 N665 1.427 . S
C658 H649 0.930 . S
C658 C656 1.378 . S
C658 C659 1.367 1_545 S
C659 C658 1.367 1_565 S
C659 C661 1.433 . S
C660 C656 1.352 . S
C660 C657 1.465 1_556 S
C660 N664 1.422 1_545 S
C661 H651 0.929 . S
C661 C659 1.433 . S
C661 N664 1.384 . S
C662 H653 0.929 . S
C662 C654 1.378 . S
C662 C657 1.350 1_565 S
C663 H650 0.929 . S
C663 C655 1.433 . S
C663 N665 1.384 . S
N664 C660 1.422 1_565 S
N664 C661 1.384 . S
N665 C657 1.427 . S
N665 C663 1.384 . S
H666 C672 0.932 . S
H667 C676 0.930 . S
H668 C681 0.929 . S
H669 C679 0.929 . S
H670 C674 0.926 1_554 S
H671 C680 0.929 1_556 S
C672 H666 0.932 . S
C672 C673 1.366 1_455 S
C672 C680 1.377 . S
C673 C672 1.366 1_655 S
C673 C681 1.433 . S
C674 H670 0.926 1_556 S
C674 C676 1.379 . S
C674 C678 1.350 . S
C675 C678 1.463 1_554 S
C675 C680 1.350 1_655 S
C675 N683 1.427 . S
C676 H667 0.930 . S
C676 C674 1.379 . S
C676 C677 1.367 1_655 S
C677 C676 1.367 1_455 S
C677 C679 1.433 . S
C678 C674 1.350 . S
C678 C675 1.463 1_556 S
C678 N682 1.427 1_655 S
C679 H669 0.929 . S
C679 C677 1.433 . S
C679 N682 1.384 . S
C680 H671 0.929 1_554 S
C680 C672 1.377 . S
C680 C675 1.350 1_455 S
C681 H668 0.929 . S
C681 C673 1.433 . S
C681 N683 1.384 . S
N682 C678 1.427 1_455 S
N682 C679 1.384 . S
N683 C675 1.427 . S
N683 C681 1.384 . S
H684 C690 0.930 . S
H685 C694 0.930 . S
H686 C699 0.929 . S
H687 C697 0.929 . S
H688 C692 0.929 . S
H689 C698 0.926 1_554 S
C690 H684 0.930 . S
C690 C691 1.367 . S
C690 C698 1.379 . S
C691 C690 1.367 . S
C691 C699 1.433 . S
C692 H688 0.929 . S
C692 C694 1.378 1_556 S
C692 C696 1.350 1_556 S
C693 C696 1.463 1_556 S
C693 C698 1.351 . S
C693 N701 1.427 . S
C694 H685 0.930 . S
C694 C692 1.378 1_554 S
C694 C695 1.367 . S
C695 C694 1.367 . S
C695 C697 1.433 . S
C696 C692 1.350 1_554 S
C696 C693 1.463 1_554 S
C696 N700 1.427 . S
C697 H687 0.929 . S
C697 C695 1.433 . S
C697 N700 1.384 . S
C698 H689 0.926 1_556 S
C698 C690 1.379 . S
C698 C693 1.351 . S
C699 H686 0.929 . S
C699 C691 1.433 . S
C699 N701 1.384 . S
N700 C696 1.427 . S
N700 C697 1.384 . S
N701 C693 1.427 . S
N701 C699 1.384 . S
H702 C708 0.930 . S
H703 C712 0.930 . S
H704 C717 0.929 . S
H705 C715 0.929 . S
H706 C710 0.929 . S
H707 C716 0.929 . S
C708 H702 0.930 . S
C708 C709 1.367 . S
C708 C716 1.378 . S
C709 C708 1.367 . S
C709 C717 1.433 . S
C710 H706 0.929 . S
C710 C712 1.378 . S
C710 C714 1.350 . S
C711 C714 1.463 . S
C711 C716 1.350 . S
C711 N719 1.427 . S
C712 H703 0.930 . S
C712 C710 1.378 . S
C712 C713 1.367 . S
C713 C712 1.367 . S
C713 C715 1.433 . S
C714 C710 1.350 . S
C714 C711 1.463 . S
C714 N718 1.427 . S
C715 H705 0.929 . S
C715 C713 1.433 . S
C715 N718 1.384 . S
C716 H707 0.929 . S
C716 C708 1.378 . S
C716 C711 1.350 . S
C717 H704 0.929 . S
C717 C709 1.433 . S
C717 N719 1.384 . S
N718 C714 1.427 . S
N718 C715 1.384 . S
N719 C711 1.427 . S
N719 C717 1.384 . S
H720 C726 0.930 . S
H721 C730 0.930 . S
H722 C735 0.929 . S
H723 C733 0.929 . S
H724 C728 0.929 . S
H725 C734 0.929 . S
C726 H720 0.930 . S
C726 C727 1.367 . S
C726 C734 1.378 . S
C727 C726 1.367 . S
C727 C735 1.433 . S
C728 H724 0.929 . S
C728 C730 1.378 . S
C728 C732 1.350 . S
C729 C732 1.463 . S
C729 C734 1.350 . S
C729 N737 1.427 . S
C730 H721 0.930 . S
C730 C728 1.378 . S
C730 C731 1.367 . S
C731 C730 1.367 . S
C731 C733 1.433 . S
C732 C728 1.350 . S
C732 C729 1.463 . S
C732 N736 1.427 . S
C733 H723 0.929 . S
C733 C731 1.433 . S
C733 N736 1.384 . S
C734 H725 0.929 . S
C734 C726 1.378 . S
C734 C729 1.350 . S
C735 H722 0.929 . S
C735 C727 1.433 . S
C735 N737 1.384 . S
N736 C732 1.427 . S
N736 C733 1.384 . S
N737 C729 1.427 . S
N737 C735 1.384 . S
H738 C744 0.930 . S
H739 C748 0.930 . S
H740 C753 0.929 . S
H741 C751 0.929 . S
H742 C746 0.929 . S
H743 C752 0.929 . S
C744 H738 0.930 . S
C744 C745 1.367 . S
C744 C752 1.378 . S
C745 C744 1.367 . S
C745 C753 1.433 . S
C746 H742 0.929 . S
C746 C748 1.378 . S
C746 C750 1.350 . S
C747 C750 1.463 . S
C747 C752 1.350 . S
C747 N755 1.427 . S
C748 H739 0.930 . S
C748 C746 1.378 . S
C748 C749 1.367 . S
C749 C748 1.367 . S
C749 C751 1.433 . S
C750 C746 1.350 . S
C750 C747 1.463 . S
C750 N754 1.427 . S
C751 H741 0.929 . S
C751 C749 1.433 . S
C751 N754 1.384 . S
C752 H743 0.929 . S
C752 C744 1.378 . S
C752 C747 1.350 . S
C753 H740 0.929 . S
C753 C745 1.433 . S
C753 N755 1.384 . S
N754 C750 1.427 . S
N754 C751 1.384 . S
N755 C747 1.427 . S
N755 C753 1.384 . S
H756 C762 0.930 . S
H757 C766 0.930 . S
H758 C771 0.929 . S
H759 C769 0.929 . S
H760 C764 0.929 . S
H761 C770 0.929 . S
C762 H756 0.930 . S
C762 C763 1.367 . S
C762 C770 1.378 . S
C763 C762 1.367 . S
C763 C771 1.433 . S
C764 H760 0.929 . S
C764 C766 1.378 . S
C764 C768 1.350 . S
C765 C768 1.463 . S
C765 C770 1.350 . S
C765 N773 1.427 . S
C766 H757 0.930 . S
C766 C764 1.378 . S
C766 C767 1.367 . S
C767 C766 1.367 . S
C767 C769 1.433 . S
C768 C764 1.350 . S
C768 C765 1.463 . S
C768 N772 1.427 . S
C769 H759 0.929 . S
C769 C767 1.433 . S
C769 N772 1.384 . S
C770 H761 0.929 . S
C770 C762 1.378 . S
C770 C765 1.350 . S
C771 H758 0.929 . S
C771 C763 1.433 . S
C771 N773 1.384 . S
N772 C768 1.427 . S
N772 C769 1.384 . S
N773 C765 1.427 . S
N773 C771 1.384 . S
H774 C780 0.930 . S
H775 C784 0.930 . S
H776 C789 0.929 . S
H777 C787 0.929 . S
H778 C782 0.929 . S
H779 C788 0.929 . S
C780 H774 0.930 . S
C780 C781 1.367 . S
C780 C788 1.378 . S
C781 C780 1.367 . S
C781 C789 1.433 . S
C782 H778 0.929 . S
C782 C784 1.378 . S
C782 C786 1.350 . S
C783 C786 1.463 . S
C783 C788 1.350 . S
C783 N791 1.427 . S
C784 H775 0.930 . S
C784 C782 1.378 . S
C784 C785 1.367 . S
C785 C784 1.367 . S
C785 C787 1.433 . S
C786 C782 1.350 . S
C786 C783 1.463 . S
C786 N790 1.427 . S
C787 H777 0.929 . S
C787 C785 1.433 . S
C787 N790 1.384 . S
C788 H779 0.929 . S
C788 C780 1.378 . S
C788 C783 1.350 . S
C789 H776 0.929 . S
C789 C781 1.433 . S
C789 N791 1.384 . S
N790 C786 1.427 . S
N790 C787 1.384 . S
N791 C783 1.427 . S
N791 C789 1.384 . S
H792 C798 0.930 . S
H793 C802 0.930 . S
H794 C807 0.929 . S
H795 C805 0.929 . S
H796 C800 0.929 . S
H797 C806 0.929 . S
C798 H792 0.930 . S
C798 C799 1.367 . S
C798 C806 1.378 . S
C799 C798 1.367 . S
C799 C807 1.433 . S
C800 H796 0.929 . S
C800 C802 1.378 . S
C800 C804 1.350 . S
C801 C804 1.463 . S
C801 C806 1.350 . S
C801 N809 1.427 . S
C802 H793 0.930 . S
C802 C800 1.378 . S
C802 C803 1.367 . S
C803 C802 1.367 . S
C803 C805 1.433 . S
C804 C800 1.350 . S
C804 C801 1.463 . S
C804 N808 1.427 . S
C805 H795 0.929 . S
C805 C803 1.433 . S
C805 N808 1.384 . S
C806 H797 0.929 . S
C806 C798 1.378 . S
C806 C801 1.350 . S
C807 H794 0.929 . S
C807 C799 1.433 . S
C807 N809 1.384 . S
N808 C804 1.427 . S
N808 C805 1.384 . S
N809 C801 1.427 . S
N809 C807 1.384 . S
H810 C816 0.930 . S
H811 C820 0.930 . S
H812 C825 0.929 . S
H813 C823 0.929 . S
H814 C818 0.929 . S
H815 C824 0.929 . S
C816 H810 0.930 . S
C816 C817 1.367 . S
C816 C824 1.378 . S
C817 C816 1.367 . S
C817 C825 1.433 . S
C818 H814 0.929 . S
C818 C820 1.378 . S
C818 C822 1.350 . S
C819 C822 1.463 . S
C819 C824 1.350 . S
C819 N827 1.427 . S
C820 H811 0.930 . S
C820 C818 1.378 . S
C820 C821 1.367 . S
C821 C820 1.367 . S
C821 C823 1.433 . S
C822 C818 1.350 . S
C822 C819 1.463 . S
C822 N826 1.427 . S
C823 H813 0.929 . S
C823 C821 1.433 . S
C823 N826 1.384 . S
C824 H815 0.929 . S
C824 C816 1.378 . S
C824 C819 1.350 . S
C825 H812 0.929 . S
C825 C817 1.433 . S
C825 N827 1.384 . S
N826 C822 1.427 . S
N826 C823 1.384 . S
N827 C819 1.427 . S
N827 C825 1.384 . S
H828 C834 0.930 . S
H829 C838 0.930 . S
H830 C843 0.929 . S
H831 C841 0.929 . S
H832 C836 0.929 . S
H833 C842 0.929 . S
C834 H828 0.930 . S
C834 C835 1.367 . S
C834 C842 1.378 . S
C835 C834 1.367 . S
C835 C843 1.433 . S
C836 H832 0.929 . S
C836 C838 1.378 . S
C836 C840 1.350 . S
C837 C840 1.463 . S
C837 C842 1.350 . S
C837 N845 1.427 . S
C838 H829 0.930 . S
C838 C836 1.378 . S
C838 C839 1.367 . S
C839 C838 1.367 . S
C839 C841 1.433 . S
C840 C836 1.350 . S
C840 C837 1.463 . S
C840 N844 1.427 . S
C841 H831 0.929 . S
C841 C839 1.433 . S
C841 N844 1.384 . S
C842 H833 0.929 . S
C842 C834 1.378 . S
C842 C837 1.350 . S
C843 H830 0.929 . S
C843 C835 1.433 . S
C843 N845 1.384 . S
N844 C840 1.427 . S
N844 C841 1.384 . S
N845 C837 1.427 . S
N845 C843 1.384 . S
H846 C852 0.930 . S
H847 C856 0.930 . S
H848 C861 0.929 . S
H849 C859 0.929 . S
H850 C854 0.929 . S
H851 C860 0.929 . S
C852 H846 0.930 . S
C852 C853 1.367 . S
C852 C860 1.378 . S
C853 C852 1.367 . S
C853 C861 1.433 . S
C854 H850 0.929 . S
C854 C856 1.378 . S
C854 C858 1.350 . S
C855 C858 1.463 . S
C855 C860 1.350 . S
C855 N863 1.427 . S
C856 H847 0.930 . S
C856 C854 1.378 . S
C856 C857 1.367 . S
C857 C856 1.367 . S
C857 C859 1.433 . S
C858 C854 1.350 . S
C858 C855 1.463 . S
C858 N862 1.427 . S
C859 H849 0.929 . S
C859 C857 1.433 . S
C859 N862 1.384 . S
C860 H851 0.929 . S
C860 C852 1.378 . S
C860 C855 1.350 . S
C861 H848 0.929 . S
C861 C853 1.433 . S
C861 N863 1.384 . S
N862 C858 1.427 . S
N862 C859 1.384 . S
N863 C855 1.427 . S
N863 C861 1.384 . S
H864 C870 0.930 . S
H865 C874 0.930 . S
H866 C879 0.929 . S
H867 C877 0.929 . S
H868 C872 0.929 . S
H869 C878 0.929 . S
C870 H864 0.930 . S
C870 C871 1.367 . S
C870 C878 1.378 . S
C871 C870 1.367 . S
C871 C879 1.433 . S
C872 H868 0.929 . S
C872 C874 1.378 . S
C872 C876 1.350 . S
C873 C876 1.463 . S
C873 C878 1.350 . S
C873 N881 1.427 . S
C874 H865 0.930 . S
C874 C872 1.378 . S
C874 C875 1.367 . S
C875 C874 1.367 . S
C875 C877 1.433 . S
C876 C872 1.350 . S
C876 C873 1.463 . S
C876 N880 1.427 . S
C877 H867 0.929 . S
C877 C875 1.433 . S
C877 N880 1.384 . S
C878 H869 0.929 . S
C878 C870 1.378 . S
C878 C873 1.350 . S
C879 H866 0.929 . S
C879 C871 1.433 . S
C879 N881 1.384 . S
N880 C876 1.427 . S
N880 C877 1.384 . S
N881 C873 1.427 . S
N881 C879 1.384 . S
H882 C888 0.930 . S
H883 C892 0.930 . S
H884 C897 0.929 . S
H885 C895 0.929 . S
H886 C890 0.929 . S
H887 C896 0.929 . S
C888 H882 0.930 . S
C888 C889 1.367 . S
C888 C896 1.378 . S
C889 C888 1.367 . S
C889 C897 1.433 . S
C890 H886 0.929 . S
C890 C892 1.378 . S
C890 C894 1.350 . S
C891 C894 1.463 . S
C891 C896 1.350 . S
C891 N899 1.427 . S
C892 H883 0.930 . S
C892 C890 1.378 . S
C892 C893 1.367 . S
C893 C892 1.367 . S
C893 C895 1.433 . S
C894 C890 1.350 . S
C894 C891 1.463 . S
C894 N898 1.427 . S
C895 H885 0.929 . S
C895 C893 1.433 . S
C895 N898 1.384 . S
C896 H887 0.929 . S
C896 C888 1.378 . S
C896 C891 1.350 . S
C897 H884 0.929 . S
C897 C889 1.433 . S
C897 N899 1.384 . S
N898 C894 1.427 . S
N898 C895 1.384 . S
N899 C891 1.427 . S
N899 C897 1.384 . S
H900 C906 0.930 . S
H901 C910 0.930 . S
H902 C915 0.929 . S
H903 C913 0.929 . S
H904 C908 0.929 . S
H905 C914 0.929 . S
C906 H900 0.930 . S
C906 C907 1.367 . S
C906 C914 1.378 . S
C907 C906 1.367 . S
C907 C915 1.433 . S
C908 H904 0.929 . S
C908 C910 1.378 . S
C908 C912 1.350 . S
C909 C912 1.463 . S
C909 C914 1.350 . S
C909 N917 1.427 . S
C910 H901 0.930 . S
C910 C908 1.378 . S
C910 C911 1.367 . S
C911 C910 1.367 . S
C911 C913 1.433 . S
C912 C908 1.350 . S
C912 C909 1.463 . S
C912 N916 1.427 . S
C913 H903 0.929 . S
C913 C911 1.433 . S
C913 N916 1.384 . S
C914 H905 0.929 . S
C914 C906 1.378 . S
C914 C909 1.350 . S
C915 H902 0.929 . S
C915 C907 1.433 . S
C915 N917 1.384 . S
N916 C912 1.427 . S
N916 C913 1.384 . S
N917 C909 1.427 . S
N917 C915 1.384 . S
H918 C924 0.930 . S
H919 C928 0.930 . S
H920 C933 0.929 . S
H921 C931 0.929 . S
H922 C926 0.929 . S
H923 C932 0.929 . S
C924 H918 0.930 . S
C924 C925 1.367 1_655 S
C924 C932 1.378 . S
C925 C924 1.367 1_455 S
C925 C933 1.433 . S
C926 H922 0.929 . S
C926 C928 1.378 . S
C926 C930 1.335 1_455 S
C927 C930 1.451 1_455 S
C927 C932 1.350 1_455 S
C927 N935 1.427 . S
C928 H919 0.930 . S
C928 C926 1.378 . S
C928 C929 1.367 1_455 S
C929 C928 1.367 1_655 S
C929 C931 1.433 . S
C930 C926 1.335 1_655 S
C930 C927 1.451 1_655 S
C930 N934 1.455 . S
C931 H921 0.929 . S
C931 C929 1.433 . S
C931 N934 1.384 . S
C932 H923 0.929 . S
C932 C924 1.378 . S
C932 C927 1.350 1_655 S
C933 H920 0.929 . S
C933 C925 1.433 . S
C933 N935 1.384 . S
N934 C930 1.455 . S
N934 C931 1.384 . S
N935 C927 1.427 . S
N935 C933 1.384 . S
H936 C942 0.930 . S
H937 C946 0.930 . S
H938 C951 0.929 . S
H939 C949 0.929 . S
H940 C944 0.929 . S
H941 C950 0.929 . S
C942 H936 0.930 . S
C942 C943 1.367 . S
C942 C950 1.378 . S
C943 C942 1.367 . S
C943 C951 1.433 . S
C944 H940 0.929 . S
C944 C946 1.378 . S
C944 C948 1.350 . S
C945 C948 1.463 . S
C945 C950 1.350 . S
C945 N953 1.427 . S
C946 H937 0.930 . S
C946 C944 1.378 . S
C946 C947 1.367 . S
C947 C946 1.367 . S
C947 C949 1.433 . S
C948 C944 1.350 . S
C948 C945 1.463 . S
C948 N952 1.427 . S
C949 H939 0.929 . S
C949 C947 1.433 . S
C949 N952 1.384 . S
C950 H941 0.929 . S
C950 C942 1.378 . S
C950 C945 1.350 . S
C951 H938 0.929 . S
C951 C943 1.433 . S
C951 N953 1.384 . S
N952 C948 1.427 . S
N952 C949 1.384 . S
N953 C945 1.427 . S
N953 C951 1.384 . S
H954 C960 0.930 . S
H955 C964 0.930 . S
H956 C969 0.929 . S
H957 C967 0.929 . S
H958 C962 0.929 . S
H959 C968 0.929 . S
C960 H954 0.930 . S
C960 C961 1.367 1_565 S
C960 C968 1.378 . S
C961 C960 1.367 1_545 S
C961 C969 1.433 . S
C962 H958 0.929 . S
C962 C964 1.378 . S
C962 C966 1.350 1_545 S
C963 C966 1.463 1_545 S
C963 C968 1.350 1_545 S
C963 N971 1.427 . S
C964 H955 0.930 . S
C964 C962 1.378 . S
C964 C965 1.367 1_545 S
C965 C964 1.367 1_565 S
C965 C967 1.433 . S
C966 C962 1.350 1_565 S
C966 C963 1.463 1_565 S
C966 N970 1.427 . S
C967 H957 0.929 . S
C967 C965 1.433 . S
C967 N970 1.384 . S
C968 H959 0.929 . S
C968 C960 1.378 . S
C968 C963 1.350 1_565 S
C969 H956 0.929 . S
C969 C961 1.433 . S
C969 N971 1.384 . S
N970 C966 1.427 . S
N970 C967 1.384 . S
N971 C963 1.427 . S
N971 C969 1.384 . S
H972 C978 0.930 . S
H973 C982 0.930 . S
H974 C987 0.929 . S
H975 C985 0.929 . S
H976 C980 0.929 1_554 S
H977 C986 0.929 . S
C978 H972 0.930 . S
C978 C979 1.367 . S
C978 C986 1.378 . S
C979 C978 1.367 . S
C979 C987 1.433 . S
C980 H976 0.929 1_556 S
C980 C982 1.378 . S
C980 C984 1.350 1_556 S
C981 C984 1.463 . S
C981 C986 1.350 . S
C981 N989 1.427 . S
C982 H973 0.930 . S
C982 C980 1.378 . S
C982 C983 1.367 . S
C983 C982 1.367 . S
C983 C985 1.433 . S
C984 C980 1.350 1_554 S
C984 C981 1.463 . S
C984 N988 1.427 1_554 S
C985 H975 0.929 . S
C985 C983 1.433 . S
C985 N988 1.384 . S
C986 H977 0.929 . S
C986 C978 1.378 . S
C986 C981 1.350 . S
C987 H974 0.929 . S
C987 C979 1.433 . S
C987 N989 1.384 . S
N988 C984 1.427 1_556 S
N988 C985 1.384 . S
N989 C981 1.427 . S
N989 C987 1.384 . S
H990 C996 0.930 . S
H991 C1000 0.930 . S
H992 C1005 0.929 . S
H993 C1003 0.929 . S
H994 C998 0.929 . S
H995 C1004 0.939 . S
C996 H990 0.930 . S
C996 C997 1.367 . S
C996 C1004 1.372 1_554 S
C997 C996 1.367 . S
C997 C1005 1.433 . S
C998 H994 0.929 . S
C998 C1000 1.378 1_554 S
C998 C1002 1.350 1_554 S
C999 C1002 1.463 1_554 S
C999 C1004 1.345 1_554 S
C999 N1007 1.427 . S
C1000 H991 0.930 . S
C1000 C998 1.378 1_556 S
C1000 C1001 1.367 . S
C1001 C1000 1.367 . S
C1001 C1003 1.433 . S
C1002 C998 1.350 1_556 S
C1002 C999 1.463 1_556 S
C1002 N1006 1.427 . S
C1003 H993 0.929 . S
C1003 C1001 1.433 . S
C1003 N1006 1.384 . S
C1004 H995 0.939 . S
C1004 C996 1.372 1_556 S
C1004 C999 1.345 1_556 S
C1005 H992 0.929 . S
C1005 C997 1.433 . S
C1005 N1007 1.384 . S
N1006 C1002 1.427 . S
N1006 C1003 1.384 . S
N1007 C999 1.427 . S
N1007 C1005 1.384 . S
H1008 C1014 0.930 1_556 S
H1009 C1018 0.930 1_554 S
H1010 C1023 0.929 . S
H1011 C1021 0.929 . S
H1012 C1016 0.929 . S
H1013 C1022 0.929 . S
C1014 H1008 0.930 1_554 S
C1014 C1015 1.367 . S
C1014 C1022 1.378 1_554 S
C1015 C1014 1.367 . S
C1015 C1023 1.433 . S
C1016 H1012 0.929 . S
C1016 C1018 1.378 1_554 S
C1016 C1020 1.350 1_554 S
C1017 C1020 1.463 1_554 S
C1017 C1022 1.350 1_554 S
C1017 N1025 1.427 . S
C1018 H1009 0.930 1_556 S
C1018 C1016 1.378 1_556 S
C1018 C1019 1.367 . S
C1019 C1018 1.367 . S
C1019 C1021 1.433 . S
C1020 C1016 1.350 1_556 S
C1020 C1017 1.463 1_556 S
C1020 N1024 1.427 . S
C1021 H1011 0.929 . S
C1021 C1019 1.433 . S
C1021 N1024 1.384 . S
C1022 H1013 0.929 . S
C1022 C1014 1.378 1_556 S
C1022 C1017 1.350 1_556 S
C1023 H1010 0.929 . S
C1023 C1015 1.433 . S
C1023 N1025 1.384 . S
N1024 C1020 1.427 . S
N1024 C1021 1.384 . S
N1025 C1017 1.427 . S
N1025 C1023 1.384 . S
H1026 C1032 0.930 1_554 S
H1027 C1036 0.930 1_556 S
H1028 C1041 0.929 . S
H1029 C1039 0.929 . S
H1030 C1034 0.929 . S
H1031 C1040 0.929 . S
C1032 H1026 0.930 1_556 S
C1032 C1033 1.367 . S
C1032 C1040 1.378 1_556 S
C1033 C1032 1.367 . S
C1033 C1041 1.433 . S
C1034 H1030 0.929 . S
C1034 C1036 1.378 1_556 S
C1034 C1038 1.350 1_556 S
C1035 C1038 1.463 1_556 S
C1035 C1040 1.350 1_556 S
C1035 N1043 1.427 . S
C1036 H1027 0.930 1_554 S
C1036 C1034 1.378 1_554 S
C1036 C1037 1.367 . S
C1037 C1036 1.367 . S
C1037 C1039 1.433 . S
C1038 C1034 1.350 1_554 S
C1038 C1035 1.463 1_554 S
C1038 N1042 1.427 . S
C1039 H1029 0.929 . S
C1039 C1037 1.433 . S
C1039 N1042 1.384 . S
C1040 H1031 0.929 . S
C1040 C1032 1.378 1_554 S
C1040 C1035 1.350 1_554 S
C1041 H1028 0.929 . S
C1041 C1033 1.433 . S
C1041 N1043 1.384 . S
N1042 C1038 1.427 . S
N1042 C1039 1.384 . S
N1043 C1035 1.427 . S
N1043 C1041 1.384 . S
H1044 C1050 0.930 . S
H1045 C1054 0.930 . S
H1046 C1059 0.929 . S
H1047 C1057 0.929 . S
H1048 C1052 0.929 . S
H1049 C1058 0.929 . S
C1050 H1044 0.930 . S
C1050 C1051 1.367 . S
C1050 C1058 1.378 . S
C1051 C1050 1.367 . S
C1051 C1059 1.433 1_554 S
C1052 H1048 0.929 . S
C1052 C1054 1.378 . S
C1052 C1056 1.350 . S
C1053 C1056 1.463 1_554 S
C1053 C1058 1.350 . S
C1053 N1061 1.427 1_554 S
C1054 H1045 0.930 . S
C1054 C1052 1.378 . S
C1054 C1055 1.367 . S
C1055 C1054 1.367 . S
C1055 C1057 1.433 . S
C1056 C1052 1.350 . S
C1056 C1053 1.463 1_556 S
C1056 N1060 1.409 1_556 S
C1057 H1047 0.929 . S
C1057 C1055 1.433 . S
C1057 N1060 1.368 1_556 S
C1058 H1049 0.929 . S
C1058 C1050 1.378 . S
C1058 C1053 1.350 . S
C1059 H1046 0.929 . S
C1059 C1051 1.433 1_556 S
C1059 N1061 1.384 . S
N1060 C1056 1.409 1_554 S
N1060 C1057 1.368 1_554 S
N1061 C1053 1.427 1_556 S
N1061 C1059 1.384 . S
H1062 C1068 0.930 . S
H1063 C1072 0.930 . S
H1064 C1077 0.929 . S
H1065 C1075 0.929 . S
H1066 C1070 0.919 1_556 S
H1067 C1076 0.929 . S
C1068 H1062 0.930 . S
C1068 C1069 1.367 . S
C1068 C1076 1.378 . S
C1069 C1068 1.367 . S
C1069 C1077 1.433 . S
C1070 H1066 0.919 1_554 S
C1070 C1072 1.378 . S
C1070 C1074 1.350 . S
C1071 C1074 1.463 1_556 S
C1071 C1076 1.350 . S
C1071 N1079 1.427 . S
C1072 H1063 0.930 . S
C1072 C1070 1.378 . S
C1072 C1073 1.367 . S
C1073 C1072 1.367 . S
C1073 C1075 1.433 . S
C1074 C1070 1.350 . S
C1074 C1071 1.463 1_554 S
C1074 N1078 1.427 . S
C1075 H1065 0.929 . S
C1075 C1073 1.433 . S
C1075 N1078 1.384 . S
C1076 H1067 0.929 . S
C1076 C1068 1.378 . S
C1076 C1071 1.350 . S
C1077 H1064 0.929 . S
C1077 C1069 1.433 . S
C1077 N1079 1.384 . S
N1078 C1074 1.427 . S
N1078 C1075 1.384 . S
N1079 C1071 1.427 . S
N1079 C1077 1.384 . S
H1080 C1086 0.930 . S
H1081 C1090 0.930 . S
H1082 C1095 0.929 . S
H1083 C1093 0.929 . S
H1084 C1088 0.929 . S
H1085 C1094 0.929 . S
C1086 H1080 0.930 . S
C1086 C1087 1.367 . S
C1086 C1094 1.378 . S
C1087 C1086 1.367 . S
C1087 C1095 1.433 . S
C1088 H1084 0.929 . S
C1088 C1090 1.378 . S
C1088 C1092 1.350 . S
C1089 C1092 1.463 . S
C1089 C1094 1.350 . S
C1089 N1097 1.427 . S
C1090 H1081 0.930 . S
C1090 C1088 1.378 . S
C1090 C1091 1.367 . S
C1091 C1090 1.367 . S
C1091 C1093 1.433 . S
C1092 C1088 1.350 . S
C1092 C1089 1.463 . S
C1092 N1096 1.427 . S
C1093 H1083 0.929 . S
C1093 C1091 1.433 . S
C1093 N1096 1.384 . S
C1094 H1085 0.929 . S
C1094 C1086 1.378 . S
C1094 C1089 1.350 . S
C1095 H1082 0.929 . S
C1095 C1087 1.433 . S
C1095 N1097 1.384 . S
N1096 C1092 1.427 . S
N1096 C1093 1.384 . S
N1097 C1089 1.427 . S
N1097 C1095 1.384 . S
H1098 C1104 0.930 . S
H1099 C1108 0.930 . S
H1100 C1113 0.929 . S
H1101 C1111 0.929 . S
H1102 C1106 0.929 . S
H1103 C1112 0.929 . S
C1104 H1098 0.930 . S
C1104 C1105 1.367 . S
C1104 C1112 1.378 . S
C1105 C1104 1.367 . S
C1105 C1113 1.433 . S
C1106 H1102 0.929 . S
C1106 C1108 1.378 . S
C1106 C1110 1.350 . S
C1107 C1110 1.463 . S
C1107 C1112 1.350 . S
C1107 N1115 1.427 . S
C1108 H1099 0.930 . S
C1108 C1106 1.378 . S
C1108 C1109 1.367 . S
C1109 C1108 1.367 . S
C1109 C1111 1.433 . S
C1110 C1106 1.350 . S
C1110 C1107 1.463 . S
C1110 N1114 1.427 . S
C1111 H1101 0.929 . S
C1111 C1109 1.433 . S
C1111 N1114 1.384 . S
C1112 H1103 0.929 . S
C1112 C1104 1.378 . S
C1112 C1107 1.350 . S
C1113 H1100 0.929 . S
C1113 C1105 1.433 . S
C1113 N1115 1.384 . S
N1114 C1110 1.427 . S
N1114 C1111 1.384 . S
N1115 C1107 1.427 . S
N1115 C1113 1.384 . S
H1116 C1122 0.930 . S
H1117 C1126 0.930 . S
H1118 C1131 0.929 . S
H1119 C1129 0.929 . S
H1120 C1124 0.929 . S
H1121 C1130 0.929 . S
C1122 H1116 0.930 . S
C1122 C1123 1.367 . S
C1122 C1130 1.378 . S
C1123 C1122 1.367 . S
C1123 C1131 1.433 . S
C1124 H1120 0.929 . S
C1124 C1126 1.378 . S
C1124 C1128 1.350 . S
C1125 C1128 1.463 . S
C1125 C1130 1.350 . S
C1125 N1133 1.427 . S
C1126 H1117 0.930 . S
C1126 C1124 1.378 . S
C1126 C1127 1.367 . S
C1127 C1126 1.367 . S
C1127 C1129 1.433 . S
C1128 C1124 1.350 . S
C1128 C1125 1.463 . S
C1128 N1132 1.427 . S
C1129 H1119 0.929 . S
C1129 C1127 1.433 . S
C1129 N1132 1.384 . S
C1130 H1121 0.929 . S
C1130 C1122 1.378 . S
C1130 C1125 1.350 . S
C1131 H1118 0.929 . S
C1131 C1123 1.433 . S
C1131 N1133 1.384 . S
N1132 C1128 1.427 . S
N1132 C1129 1.384 . S
N1133 C1125 1.427 . S
N1133 C1131 1.384 . S
H1134 C1140 0.930 . S
H1135 C1144 0.930 . S
H1136 C1149 0.929 . S
H1137 C1147 0.929 . S
H1138 C1142 0.929 . S
H1139 C1148 0.929 . S
C1140 H1134 0.930 . S
C1140 C1141 1.367 . S
C1140 C1148 1.378 . S
C1141 C1140 1.367 . S
C1141 C1149 1.433 . S
C1142 H1138 0.929 . S
C1142 C1144 1.378 . S
C1142 C1146 1.350 . S
C1143 C1146 1.463 . S
C1143 C1148 1.350 . S
C1143 N1151 1.427 . S
C1144 H1135 0.930 . S
C1144 C1142 1.378 . S
C1144 C1145 1.367 . S
C1145 C1144 1.367 . S
C1145 C1147 1.433 . S
C1146 C1142 1.350 . S
C1146 C1143 1.463 . S
C1146 N1150 1.427 . S
C1147 H1137 0.929 . S
C1147 C1145 1.433 . S
C1147 N1150 1.384 . S
C1148 H1139 0.929 . S
C1148 C1140 1.378 . S
C1148 C1143 1.350 . S
C1149 H1136 0.929 . S
C1149 C1141 1.433 . S
C1149 N1151 1.384 . S
N1150 C1146 1.427 . S
N1150 C1147 1.384 . S
N1151 C1143 1.427 . S
N1151 C1149 1.384 . S
H1152 C1158 0.930 . S
H1153 C1162 0.930 . S
H1154 C1167 0.929 . S
H1155 C1165 0.929 . S
H1156 C1160 0.929 . S
H1157 C1166 0.929 . S
C1158 H1152 0.930 . S
C1158 C1159 1.367 1_565 S
C1158 C1166 1.378 . S
C1159 C1158 1.367 1_545 S
C1159 C1167 1.433 . S
C1160 H1156 0.929 . S
C1160 C1162 1.378 . S
C1160 C1164 1.350 . S
C1161 C1164 1.463 . S
C1161 C1166 1.350 1_545 S
C1161 N1169 1.427 . S
C1162 H1153 0.930 . S
C1162 C1160 1.378 . S
C1162 C1163 1.367 . S
C1163 C1162 1.367 . S
C1163 C1165 1.433 1_545 S
C1164 C1160 1.350 . S
C1164 C1161 1.463 . S
C1164 N1168 1.427 1_545 S
C1165 H1155 0.929 . S
C1165 C1163 1.433 1_565 S
C1165 N1168 1.384 . S
C1166 H1157 0.929 . S
C1166 C1158 1.378 . S
C1166 C1161 1.350 1_565 S
C1167 H1154 0.929 . S
C1167 C1159 1.433 . S
C1167 N1169 1.384 . S
N1168 C1164 1.427 1_565 S
N1168 C1165 1.384 . S
N1169 C1161 1.427 . S
N1169 C1167 1.384 . S
H1170 C1176 0.930 . S
H1171 C1180 0.930 . S
H1172 C1185 0.929 . S
H1173 C1183 0.929 . S
H1174 C1178 0.929 . S
H1175 C1184 0.929 . S
C1176 H1170 0.930 . S
C1176 C1177 1.367 . S
C1176 C1184 1.378 . S
C1177 C1176 1.367 . S
C1177 C1185 1.433 . S
C1178 H1174 0.929 . S
C1178 C1180 1.378 . S
C1178 C1182 1.350 . S
C1179 C1182 1.463 . S
C1179 C1184 1.350 . S
C1179 N1187 1.427 . S
C1180 H1171 0.930 . S
C1180 C1178 1.378 . S
C1180 C1181 1.367 . S
C1181 C1180 1.367 . S
C1181 C1183 1.433 . S
C1182 C1178 1.350 . S
C1182 C1179 1.463 . S
C1182 N1186 1.427 . S
C1183 H1173 0.929 . S
C1183 C1181 1.433 . S
C1183 N1186 1.384 . S
C1184 H1175 0.929 . S
C1184 C1176 1.378 . S
C1184 C1179 1.350 . S
C1185 H1172 0.929 . S
C1185 C1177 1.433 . S
C1185 N1187 1.384 . S
N1186 C1182 1.427 . S
N1186 C1183 1.384 . S
N1187 C1179 1.427 . S
N1187 C1185 1.384 . S
H1188 C1194 0.930 . S
H1189 C1198 0.930 . S
H1190 C1203 0.929 . S
H1191 C1201 0.929 . S
H1192 C1196 0.929 . S
H1193 C1202 0.929 . S
C1194 H1188 0.930 . S
C1194 C1195 1.367 . S
C1194 C1202 1.378 . S
C1195 C1194 1.367 . S
C1195 C1203 1.433 . S
C1196 H1192 0.929 . S
C1196 C1198 1.378 . S
C1196 C1200 1.350 . S
C1197 C1200 1.463 . S
C1197 C1202 1.350 . S
C1197 N1205 1.427 . S
C1198 H1189 0.930 . S
C1198 C1196 1.378 . S
C1198 C1199 1.367 . S
C1199 C1198 1.367 . S
C1199 C1201 1.433 . S
C1200 C1196 1.350 . S
C1200 C1197 1.463 . S
C1200 N1204 1.427 . S
C1201 H1191 0.929 . S
C1201 C1199 1.433 . S
C1201 N1204 1.384 . S
C1202 H1193 0.929 . S
C1202 C1194 1.378 . S
C1202 C1197 1.350 . S
C1203 H1190 0.929 . S
C1203 C1195 1.433 . S
C1203 N1205 1.384 . S
N1204 C1200 1.427 . S
N1204 C1201 1.384 . S
N1205 C1197 1.427 . S
N1205 C1203 1.384 . S
H1206 C1212 0.930 . S
H1207 C1216 0.930 . S
H1208 C1221 0.929 . S
H1209 C1219 0.929 1_545 S
H1210 C1214 0.929 . S
H1211 C1220 0.929 . S
C1212 H1206 0.930 . S
C1212 C1213 1.367 1_545 S
C1212 C1220 1.378 . S
C1213 C1212 1.367 1_565 S
C1213 C1221 1.433 . S
C1214 H1210 0.929 . S
C1214 C1216 1.378 . S
C1214 C1218 1.350 . S
C1215 C1218 1.463 . S
C1215 C1220 1.350 1_565 S
C1215 N1223 1.427 . S
C1216 H1207 0.930 . S
C1216 C1214 1.378 . S
C1216 C1217 1.367 . S
C1217 C1216 1.367 . S
C1217 C1219 1.433 . S
C1218 C1214 1.350 . S
C1218 C1215 1.463 . S
C1218 N1222 1.427 1_565 S
C1219 H1209 0.929 1_565 S
C1219 C1217 1.433 . S
C1219 N1222 1.384 1_565 S
C1220 H1211 0.929 . S
C1220 C1212 1.378 . S
C1220 C1215 1.350 1_545 S
C1221 H1208 0.929 . S
C1221 C1213 1.433 . S
C1221 N1223 1.384 . S
N1222 C1218 1.427 1_545 S
N1222 C1219 1.384 1_545 S
N1223 C1215 1.427 . S
N1223 C1221 1.384 . S
H1224 C1230 0.930 . S
H1225 C1234 0.930 . S
H1226 C1239 0.929 . S
H1227 C1237 0.929 . S
H1228 C1232 0.929 . S
H1229 C1238 0.929 . S
C1230 H1224 0.930 . S
C1230 C1231 1.367 . S
C1230 C1238 1.378 . S
C1231 C1230 1.367 . S
C1231 C1239 1.433 1_455 S
C1232 H1228 0.929 . S
C1232 C1234 1.378 . S
C1232 C1236 1.350 1_655 S
C1233 C1236 1.463 . S
C1233 C1238 1.350 . S
C1233 N1241 1.427 1_455 S
C1234 H1225 0.930 . S
C1234 C1232 1.378 . S
C1234 C1235 1.367 1_655 S
C1235 C1234 1.367 1_455 S
C1235 C1237 1.433 . S
C1236 C1232 1.350 1_455 S
C1236 C1233 1.463 . S
C1236 N1240 1.427 . S
C1237 H1227 0.929 . S
C1237 C1235 1.433 . S
C1237 N1240 1.384 . S
C1238 H1229 0.929 . S
C1238 C1230 1.378 . S
C1238 C1233 1.350 . S
C1239 H1226 0.929 . S
C1239 C1231 1.433 1_655 S
C1239 N1241 1.384 . S
N1240 C1236 1.427 . S
N1240 C1237 1.384 . S
N1241 C1233 1.427 1_655 S
N1241 C1239 1.384 . S
H1242 C1248 0.930 . S
H1243 C1252 0.930 . S
H1244 C1257 0.929 . S
H1245 C1255 0.929 . S
H1246 C1250 0.929 . S
H1247 C1256 0.929 . S
C1248 H1242 0.930 . S
C1248 C1249 1.367 . S
C1248 C1256 1.378 . S
C1249 C1248 1.367 . S
C1249 C1257 1.433 . S
C1250 H1246 0.929 . S
C1250 C1252 1.378 . S
C1250 C1254 1.350 . S
C1251 C1254 1.463 . S
C1251 C1256 1.350 . S
C1251 N1259 1.427 . S
C1252 H1243 0.930 . S
C1252 C1250 1.378 . S
C1252 C1253 1.367 . S
C1253 C1252 1.367 . S
C1253 C1255 1.433 . S
C1254 C1250 1.350 . S
C1254 C1251 1.463 . S
C1254 N1258 1.427 . S
C1255 H1245 0.929 . S
C1255 C1253 1.433 . S
C1255 N1258 1.384 . S
C1256 H1247 0.929 . S
C1256 C1248 1.378 . S
C1256 C1251 1.350 . S
C1257 H1244 0.929 . S
C1257 C1249 1.433 . S
C1257 N1259 1.384 . S
N1258 C1254 1.427 . S
N1258 C1255 1.384 . S
N1259 C1251 1.427 . S
N1259 C1257 1.384 . S
H1260 C1266 0.930 . S
H1261 C1270 0.930 . S
H1262 C1275 0.929 . S
H1263 C1273 0.929 . S
H1264 C1268 0.929 . S
H1265 C1274 0.929 . S
C1266 H1260 0.930 . S
C1266 C1267 1.367 . S
C1266 C1274 1.378 . S
C1267 C1266 1.367 . S
C1267 C1275 1.433 . S
C1268 H1264 0.929 . S
C1268 C1270 1.378 . S
C1268 C1272 1.350 . S
C1269 C1272 1.463 . S
C1269 C1274 1.350 . S
C1269 N1277 1.427 . S
C1270 H1261 0.930 . S
C1270 C1268 1.378 . S
C1270 C1271 1.367 . S
C1271 C1270 1.367 . S
C1271 C1273 1.433 . S
C1272 C1268 1.350 . S
C1272 C1269 1.463 . S
C1272 N1276 1.427 . S
C1273 H1263 0.929 . S
C1273 C1271 1.433 . S
C1273 N1276 1.384 . S
C1274 H1265 0.929 . S
C1274 C1266 1.378 . S
C1274 C1269 1.350 . S
C1275 H1262 0.929 . S
C1275 C1267 1.433 . S
C1275 N1277 1.384 . S
N1276 C1272 1.427 . S
N1276 C1273 1.384 . S
N1277 C1269 1.427 . S
N1277 C1275 1.384 . S
H1278 C1284 0.930 . S
H1279 C1288 0.930 . S
H1280 C1293 0.929 . S
H1281 C1291 0.929 . S
H1282 C1286 0.929 . S
H1283 C1292 0.929 . S
C1284 H1278 0.930 . S
C1284 C1285 1.367 . S
C1284 C1292 1.378 . S
C1285 C1284 1.367 . S
C1285 C1293 1.433 . S
C1286 H1282 0.929 . S
C1286 C1288 1.378 . S
C1286 C1290 1.350 . S
C1287 C1290 1.463 . S
C1287 C1292 1.350 . S
C1287 N1295 1.427 . S
C1288 H1279 0.930 . S
C1288 C1286 1.378 . S
C1288 C1289 1.367 . S
C1289 C1288 1.367 . S
C1289 C1291 1.433 . S
C1290 C1286 1.350 . S
C1290 C1287 1.463 . S
C1290 N1294 1.427 . S
C1291 H1281 0.929 . S
C1291 C1289 1.433 . S
C1291 N1294 1.384 . S
C1292 H1283 0.929 . S
C1292 C1284 1.378 . S
C1292 C1287 1.350 . S
C1293 H1280 0.929 . S
C1293 C1285 1.433 . S
C1293 N1295 1.384 . S
N1294 C1290 1.427 . S
N1294 C1291 1.384 . S
N1295 C1287 1.427 . S
N1295 C1293 1.384 . S
C655 C14 1.791 . S
C659 C122 1.791 . S
C673 C50 1.860 . S
C677 C147 2.012 . S
C691 C194 1.901 . S
C695 C86 1.903 . S
C709 C230 1.766 . S
C713 C338 1.767 . S
C727 C266 1.868 . S
C731 C363 2.011 . S
C745 C410 1.894 . S
C749 C302 1.894 . S
C763 C554 1.766 . S
C767 C446 1.765 . S
C781 C579 2.011 . S
C785 C482 1.869 . S
C799 C626 1.895 . S
C803 C518 1.896 . S
C817 C3 1.662 . S
C821 C327 1.659 . S
C835 C39 1.719 . S
C839 C374 1.548 . S
C853 C399 1.765 . S
C857 C75 1.763 . S
C871 C111 1.662 . S
C875 C435 1.664 . S
C889 C158 1.549 . S
C893 C471 1.720 . S
C907 C183 1.761 . S
C911 C507 1.760 . S
C925 C219 1.681 . S
C929 C543 1.681 . S
C943 C255 1.717 . S
C947 C590 1.544 . S
C961 C615 1.747 . S
C965 C291 1.743 . S
C979 C4 0.538 . S
C983 C148 0.522 . S
C997 C40 0.545 . S
C1001 C182 0.556 . S
C1015 C76 0.547 . S
C1019 C110 0.553 . S
C1033 C112 0.448 . S
C1037 C38 0.448 . S
C1051 C74 0.478 . S
C1055 C146 0.513 . S
C1069 C184 0.520 . S
C1073 C2 0.499 . S
C1087 C220 0.569 . S
C1091 C364 0.555 . S
C1105 C398 0.558 . S
C1109 C256 0.550 . S
C1123 C326 0.566 . S
C1127 C292 0.590 . S
C1141 C254 0.449 . S
C1145 C328 0.450 . S
C1159 C362 0.509 . S
C1163 C290 0.486 . S
C1177 C400 0.491 . S
C1181 C218 0.494 . S
C1195 C580 0.521 . S
C1199 C436 0.548 . S
C1213 C614 0.561 . S
C1217 C472 0.564 . S
C1231 C508 0.544 . S
C1235 C542 0.535 . S
C1249 C470 0.474 . S
C1253 C544 0.478 . S
C1267 C506 0.494 . S
C1271 C578 0.491 . S
C1285 C434 0.518 . S
C1289 C616 0.552 . S
