# Generated by pormake.
# Topology noy, (5)-cn, num edge types: 1
# Building blocks:
#     Node 0, Type 0, BuildingBlock: XOMCOT_clean_sbu_1, # of connection points: 5
#     Node 1, Type 0, BuildingBlock: XOMCOT_clean_sbu_1, # of connection points: 5
#     Node 2, Type 0, BuildingBlock: XOMCOT_clean_sbu_1, # of connection points: 5
#     Node 3, Type 0, BuildingBlock: XOMCOT_clean_sbu_1, # of connection points: 5
#     Node 4, Type 0, BuildingBlock: XOMCOT_clean_sbu_1, # of connection points: 5
#     Node 5, Type 0, BuildingBlock: XOMCOT_clean_sbu_1, # of connection points: 5
#     Node 6, Type 0, BuildingBlock: XOMCOT_clean_sbu_1, # of connection points: 5
#     Node 7, Type 0, BuildingBlock: XOMCOT_clean_sbu_1, # of connection points: 5
#     Edge 8, Type (0, 0), BuildingBlock: KIFKEQ_clean_linker_1, # of connection points: 2
#     Edge 9, Type (0, 0), BuildingBlock: KIFKEQ_clean_linker_1, # of connection points: 2
#     Edge 10, Type (0, 0), BuildingBlock: KIFKEQ_clean_linker_1, # of connection points: 2
#     Edge 11, Type (0, 0), BuildingBlock: KIFKEQ_clean_linker_1, # of connection points: 2
#     Edge 12, Type (0, 0), BuildingBlock: KIFKEQ_clean_linker_1, # of connection points: 2
#     Edge 13, Type (0, 0), BuildingBlock: KIFKEQ_clean_linker_1, # of connection points: 2
#     Edge 14, Type (0, 0), BuildingBlock: KIFKEQ_clean_linker_1, # of connection points: 2
#     Edge 15, Type (0, 0), BuildingBlock: KIFKEQ_clean_linker_1, # of connection points: 2
#     Edge 16, Type (0, 0), BuildingBlock: KIFKEQ_clean_linker_1, # of connection points: 2
#     Edge 17, Type (0, 0), BuildingBlock: KIFKEQ_clean_linker_1, # of connection points: 2
#     Edge 18, Type (0, 0), BuildingBlock: KIFKEQ_clean_linker_1, # of connection points: 2
#     Edge 19, Type (0, 0), BuildingBlock: KIFKEQ_clean_linker_1, # of connection points: 2
#     Edge 20, Type (0, 0), BuildingBlock: KIFKEQ_clean_linker_1, # of connection points: 2
#     Edge 21, Type (0, 0), BuildingBlock: KIFKEQ_clean_linker_1, # of connection points: 2
#     Edge 22, Type (0, 0), BuildingBlock: KIFKEQ_clean_linker_1, # of connection points: 2
#     Edge 23, Type (0, 0), BuildingBlock: KIFKEQ_clean_linker_1, # of connection points: 2
#     Edge 24, Type (0, 0), BuildingBlock: KIFKEQ_clean_linker_1, # of connection points: 2
#     Edge 25, Type (0, 0), BuildingBlock: KIFKEQ_clean_linker_1, # of connection points: 2
#     Edge 26, Type (0, 0), BuildingBlock: KIFKEQ_clean_linker_1, # of connection points: 2
#     Edge 27, Type (0, 0), BuildingBlock: KIFKEQ_clean_linker_1, # of connection points: 2
# Relax obj value: 0.152
# Max RMSD: 0.180
# Mean RMSD: 0.180
data_MOF--net-noy--node1-XOMCOT_clean_sbu_1--edge1-KIFKEQ_clean_linker_1
_symmetry_space_group_name_H-M    P1
_symmetry_Int_Tables_number       1
_symmetry_cell_setting            triclinic
loop_
_symmetry_equiv_pos_as_xyz
'x, y, z'
_cell_length_a     50.484866
_cell_length_b     46.396318
_cell_length_c     20.393806
_cell_angle_alpha  89.92928
_cell_angle_beta   89.987282
_cell_angle_gamma 90.020893
loop_
_atom_site_label
_atom_site_type_symbol
_atom_site_fract_x
_atom_site_fract_y
_atom_site_fract_z
_atom_type_partial_charge
C0 C 0.33291 0.39409 0.2098 0.0
C1 C 0.33436 0.41219 0.15665 0.0
N2 N 0.32114 0.4366 0.17096 0.0
N3 N 0.31875 0.40681 0.25771 0.0
C4 C 0.31169 0.43274 0.23247 0.0
H5 H 0.3426 0.37341 0.21423 0.0
Co6 Co 0.31542 0.39091 0.34171 0.0
C7 C 0.27878 0.4299 0.41175 0.0
O8 O 0.26456 0.4076 0.43024 0.0
N9 N 0.31277 0.37458 0.42678 0.0
C10 C 0.3161 0.36969 0.53505 0.0
C11 C 0.32006 0.38788 0.48279 0.0
C12 C 0.3046 0.34811 0.44657 0.0
N13 N 0.3064 0.34453 0.51239 0.0
O14 O 0.28228 0.37347 0.31521 0.0
H15 H 0.32765 0.40965 0.4856 0.0
H16 H 0.29774 0.33159 0.41345 0.0
O17 O 0.2986 0.42614 0.37384 0.0
C18 C 0.28945 0.34978 0.28853 0.0
O19 O 0.3145 0.34237 0.2938 0.0
N20 N 0.34892 0.40512 0.36161 0.0
C21 C 0.40234 0.41893 0.35378 0.0
C22 C 0.3833 0.44082 0.35888 0.0
C23 C 0.35641 0.43343 0.36211 0.0
C24 C 0.36732 0.38371 0.36112 0.0
C25 C 0.39418 0.39014 0.35712 0.0
H26 H 0.34175 0.45036 0.36029 0.0
H27 H 0.36096 0.36147 0.35913 0.0
H28 H 0.30115 0.4491 0.25975 0.0
H29 H 0.34493 0.40797 0.11149 0.0
H30 H 0.31965 0.37494 0.58596 0.0
H31 H 0.38902 0.46329 0.35575 0.0
H32 H 0.4084 0.37273 0.35332 0.0
C33 C 0.66541 0.6548 0.69113 0.0
C34 C 0.66554 0.63774 0.63612 0.0
N35 N 0.681 0.61464 0.64793 0.0
N36 N 0.68065 0.6426 0.73771 0.0
C37 C 0.69011 0.61822 0.70982 0.0
H38 H 0.65427 0.67449 0.69762 0.0
Co39 Co 0.68333 0.65766 0.82226 0.0
C40 C 0.71633 0.61552 0.89649 0.0
O41 O 0.73032 0.63638 0.92285 0.0
N42 N 0.68551 0.67372 0.90754 0.0
C43 C 0.68153 0.68045 1.01527 0.0
C44 C 0.67661 0.66191 0.96398 0.0
C45 C 0.69547 0.69958 0.92599 0.0
N46 N 0.69348 0.70421 0.99132 0.0
O47 O 0.71761 0.67289 0.79966 0.0
H48 H 0.6674 0.64092 0.96777 0.0
H49 H 0.70391 0.71496 0.89224 0.0
O50 O 0.69829 0.62147 0.85471 0.0
C51 C 0.71448 0.69719 0.77124 0.0
O52 O 0.69053 0.7081 0.76738 0.0
N53 N 0.649 0.64447 0.83937 0.0
C54 C 0.59543 0.63061 0.83158 0.0
C55 C 0.61477 0.60904 0.82668 0.0
C56 C 0.64154 0.61639 0.83102 0.0
C57 C 0.63046 0.66552 0.84712 0.0
C58 C 0.60349 0.65899 0.84425 0.0
H59 H 0.65617 0.59981 0.8227 0.0
H60 H 0.63667 0.68775 0.85156 0.0
H61 H 0.70246 0.60278 0.73522 0.0
H62 H 0.65479 0.64187 0.59117 0.0
H63 H 0.67727 0.67633 0.06643 0.0
H64 H 0.60926 0.58691 0.81672 0.0
H65 H 0.58915 0.6763 0.84736 0.0
C66 C 0.33742 0.65611 0.84954 0.0
C67 C 0.33855 0.63864 0.90384 0.0
N68 N 0.32352 0.61516 0.89268 0.0
N69 N 0.32168 0.64389 0.80404 0.0
C70 C 0.31328 0.61899 0.83194 0.0
H71 H 0.34835 0.67592 0.8425 0.0
Co72 Co 0.31809 0.65888 0.71923 0.0
C73 C 0.28023 0.61995 0.65316 0.0
O74 O 0.2661 0.64235 0.63498 0.0
N75 N 0.31502 0.67438 0.63352 0.0
C76 C 0.31712 0.67833 0.52489 0.0
C77 C 0.32127 0.66042 0.57757 0.0
C78 C 0.30733 0.70093 0.61329 0.0
N79 N 0.30838 0.70395 0.54723 0.0
O80 O 0.28543 0.67716 0.74607 0.0
H81 H 0.32827 0.63841 0.57516 0.0
H82 H 0.30136 0.71791 0.64627 0.0
O83 O 0.30048 0.62365 0.68969 0.0
C84 C 0.29277 0.70092 0.77216 0.0
O85 O 0.31792 0.70799 0.76728 0.0
N86 N 0.35121 0.64351 0.69834 0.0
C87 C 0.40442 0.62809 0.70276 0.0
C88 C 0.38461 0.60715 0.71058 0.0
C89 C 0.35795 0.61529 0.70762 0.0
C90 C 0.37019 0.66383 0.68749 0.0
C91 C 0.39696 0.65649 0.68853 0.0
H92 H 0.34293 0.59933 0.71797 0.0
H93 H 0.36458 0.68621 0.6824 0.0
H94 H 0.30125 0.60315 0.80689 0.0
H95 H 0.35017 0.64259 0.94751 0.0
H96 H 0.31988 0.67257 0.47396 0.0
H97 H 0.3897 0.58502 0.72192 0.0
H98 H 0.41168 0.67333 0.68324 0.0
C99 C 0.69235 0.38968 0.35338 0.0
C100 C 0.69644 0.41016 0.40071 0.0
N101 N 0.69565 0.43641 0.3723 0.0
N102 N 0.6891 0.40268 0.29491 0.0
C103 C 0.69111 0.43122 0.30781 0.0
H104 H 0.69094 0.3667 0.36147 0.0
Co105 Co 0.68062 0.38165 0.2202 0.0
C106 C 0.68664 0.42044 0.10513 0.0
O107 O 0.6669 0.40627 0.07837 0.0
N108 N 0.67194 0.35862 0.14537 0.0
C109 C 0.65133 0.33003 0.07388 0.0
C110 C 0.64817 0.34785 0.12711 0.0
C111 C 0.68918 0.34685 0.10186 0.0
N112 N 0.67722 0.32916 0.05809 0.0
O113 O 0.71468 0.36294 0.22633 0.0
H114 H 0.62951 0.3521 0.15087 0.0
H115 H 0.71032 0.35053 0.10375 0.0
O116 O 0.69476 0.41305 0.1625 0.0
C117 C 0.7117 0.33729 0.24822 0.0
O118 O 0.68753 0.32722 0.25526 0.0
N119 N 0.64652 0.39786 0.22315 0.0
C120 C 0.59527 0.41551 0.25501 0.0
C121 C 0.61209 0.43358 0.2188 0.0
C122 C 0.63798 0.42466 0.2048 0.0
C123 C 0.63063 0.38056 0.26017 0.0
C124 C 0.60491 0.38878 0.2761 0.0
H125 H 0.65112 0.43992 0.1819 0.0
H126 H 0.63815 0.3601 0.27755 0.0
H127 H 0.68875 0.44781 0.27093 0.0
H128 H 0.69861 0.40595 0.45262 0.0
H129 H 0.63563 0.31849 0.04912 0.0
H130 H 0.60557 0.45479 0.20344 0.0
H131 H 0.59261 0.37421 0.30438 0.0
C132 C 0.83931 0.8924 0.20052 0.0
C133 C 0.84048 0.90936 0.14532 0.0
N134 N 0.82253 0.93065 0.15143 0.0
N135 N 0.82082 0.90297 0.24166 0.0
C136 C 0.81069 0.92617 0.21009 0.0
H137 H 0.85196 0.8742 0.21138 0.0
Co138 Co 0.81576 0.88867 0.32665 0.0
C139 C 0.77923 0.93071 0.39046 0.0
O140 O 0.76456 0.90982 0.41448 0.0
N141 N 0.81125 0.87386 0.41249 0.0
C142 C 0.81254 0.87012 0.52119 0.0
C143 C 0.81713 0.88791 0.46854 0.0
C144 C 0.80337 0.84734 0.4326 0.0
N145 N 0.80394 0.84445 0.49874 0.0
O146 O 0.78305 0.87104 0.29798 0.0
H147 H 0.82439 0.90983 0.47102 0.0
H148 H 0.79781 0.83027 0.3994 0.0
O149 O 0.79876 0.92472 0.35306 0.0
C150 C 0.79059 0.84745 0.27145 0.0
O151 O 0.81573 0.84042 0.27702 0.0
N152 N 0.84895 0.90338 0.34973 0.0
C153 C 0.90253 0.91751 0.35114 0.0
C154 C 0.88336 0.93877 0.3392 0.0
C155 C 0.8565 0.93129 0.33918 0.0
C156 C 0.86724 0.88277 0.36419 0.0
C157 C 0.89413 0.88946 0.36611 0.0
H158 H 0.84206 0.94741 0.32561 0.0
H159 H 0.86105 0.8606 0.3701 0.0
H160 H 0.79604 0.94046 0.23109 0.0
H161 H 0.854 0.90669 0.10456 0.0
H162 H 0.81506 0.87593 0.57216 0.0
H163 H 0.88915 0.96062 0.32711 0.0
H164 H 0.90833 0.87234 0.37442 0.0
C165 C 0.1695 0.15643 0.70264 0.0
C166 C 0.16864 0.13779 0.65044 0.0
N167 N 0.18047 0.11298 0.66828 0.0
N168 N 0.18177 0.14354 0.75347 0.0
C169 C 0.18842 0.11705 0.73096 0.0
H170 H 0.16077 0.17769 0.70437 0.0
Co171 Co 0.18359 0.16053 0.83621 0.0
C172 C 0.21596 0.12067 0.91561 0.0
O173 O 0.23049 0.14251 0.9353 0.0
N174 N 0.18474 0.1783 0.91985 0.0
C175 C 0.179 0.18647 0.02655 0.0
C176 C 0.17463 0.16743 0.976 0.0
C177 C 0.19496 0.20414 0.93774 0.0
N178 N 0.19186 0.20963 1.00249 0.0
O179 O 0.21849 0.17448 0.81513 0.0
H180 H 0.16501 0.14668 0.98022 0.0
H181 H 0.20448 0.21881 0.90411 0.0
O182 O 0.19737 0.12488 0.87427 0.0
C183 C 0.21624 0.19858 0.78536 0.0
O184 O 0.19262 0.21016 0.77952 0.0
N185 N 0.1488 0.149 0.85125 0.0
C186 C 0.09484 0.13769 0.84185 0.0
C187 C 0.11287 0.11513 0.85211 0.0
C188 C 0.14 0.12122 0.85595 0.0
C189 C 0.13143 0.17122 0.84476 0.0
C190 C 0.10433 0.16607 0.83994 0.0
H191 H 0.15382 0.1035 0.85886 0.0
H192 H 0.13886 0.19298 0.83963 0.0
H193 H 0.19762 0.10054 0.76072 0.0
H194 H 0.15949 0.14195 0.60338 0.0
H195 H 0.17381 0.18304 0.07745 0.0
H196 H 0.10624 0.09293 0.85316 0.0
H197 H 0.09098 0.18405 0.83249 0.0
C198 C 0.80286 0.15444 0.85548 0.0
C199 C 0.80172 0.13382 0.90366 0.0
N200 N 0.80388 0.10778 0.87524 0.0
N201 N 0.8058 0.14158 0.79671 0.0
C202 C 0.80623 0.11297 0.81018 0.0
H203 H 0.80301 0.17748 0.86321 0.0
Co204 Co 0.81343 0.16301 0.72185 0.0
C205 C 0.80785 0.12428 0.60639 0.0
O206 O 0.82688 0.1393 0.57875 0.0
N207 N 0.82138 0.18641 0.64706 0.0
C208 C 0.84165 0.21515 0.57512 0.0
C209 C 0.84503 0.19741 0.62845 0.0
C210 C 0.80396 0.19803 0.60376 0.0
N211 N 0.81573 0.21578 0.55964 0.0
O212 O 0.77886 0.18069 0.72859 0.0
H213 H 0.86378 0.19328 0.65188 0.0
H214 H 0.78287 0.19411 0.6059 0.0
O215 O 0.79998 0.13118 0.66427 0.0
C216 C 0.78144 0.20636 0.75058 0.0
O217 O 0.80546 0.21685 0.75765 0.0
N218 N 0.84799 0.14805 0.72427 0.0
C219 C 0.90023 0.13325 0.75356 0.0
C220 C 0.88433 0.11481 0.71589 0.0
C221 C 0.85793 0.12226 0.70313 0.0
C222 C 0.863 0.16561 0.76277 0.0
C223 C 0.88916 0.1588 0.77757 0.0
H224 H 0.84564 0.10672 0.67855 0.0
H225 H 0.85446 0.18527 0.78187 0.0
H226 H 0.81004 0.09647 0.77391 0.0
H227 H 0.80048 0.13766 0.95593 0.0
H228 H 0.85725 0.22671 0.54999 0.0
H229 H 0.89201 0.09447 0.69815 0.0
H230 H 0.90073 0.17362 0.80696 0.0
C231 C 0.16887 0.89005 0.35959 0.0
C232 C 0.168 0.90801 0.41304 0.0
N233 N 0.18066 0.93267 0.39764 0.0
N234 N 0.18195 0.90324 0.31042 0.0
C235 C 0.18915 0.92916 0.33522 0.0
H236 H 0.15959 0.86911 0.35578 0.0
Co237 Co 0.18411 0.88739 0.2265 0.0
C238 C 0.21637 0.9285 0.15066 0.0
O239 O 0.23142 0.90701 0.13143 0.0
N240 N 0.18579 0.87072 0.14168 0.0
C241 C 0.18071 0.86364 0.03434 0.0
C242 C 0.17582 0.88205 0.08585 0.0
C243 C 0.19649 0.84529 0.12262 0.0
N244 N 0.1938 0.84048 0.05752 0.0
O245 O 0.2191 0.87369 0.24728 0.0
H246 H 0.1659 0.90266 0.08259 0.0
H247 H 0.20605 0.8304 0.15563 0.0
O248 O 0.19743 0.92374 0.19077 0.0
C249 C 0.21693 0.84924 0.27557 0.0
O250 O 0.19336 0.83741 0.2803 0.0
N251 N 0.14914 0.89872 0.21164 0.0
C252 C 0.09501 0.9087 0.22649 0.0
C253 C 0.11308 0.93176 0.22647 0.0
C254 C 0.14018 0.92631 0.21886 0.0
C255 C 0.13182 0.87633 0.20747 0.0
C256 C 0.10466 0.88088 0.21373 0.0
H257 H 0.15397 0.94396 0.22407 0.0
H258 H 0.13927 0.85455 0.20323 0.0
H259 H 0.19906 0.94576 0.3071 0.0
H260 H 0.15822 0.90353 0.45918 0.0
H261 H 0.17572 0.86749 0.98348 0.0
H262 H 0.10666 0.95355 0.23675 0.0
H263 H 0.09149 0.86248 0.21174 0.0
H264 H 0.4382 0.45068 0.4243 0.0
H265 H 0.42901 0.40154 0.24634 0.0
H266 H 0.48569 0.45666 0.40036 0.0
H267 H 0.47598 0.40761 0.22208 0.0
H268 H 0.57054 0.41264 0.37377 0.0
H269 H 0.52355 0.42007 0.39684 0.0
H270 H 0.51078 0.44496 0.19523 0.0
H271 H 0.55787 0.43737 0.17208 0.0
C272 C 0.44631 0.44162 0.37968 0.0
C273 C 0.4302 0.42547 0.33737 0.0
C274 C 0.47337 0.44493 0.36606 0.0
C275 C 0.48449 0.43264 0.30929 0.0
C276 C 0.46796 0.41763 0.26573 0.0
C277 C 0.44115 0.41394 0.27984 0.0
C278 C 0.55773 0.42009 0.33465 0.0
C279 C 0.56773 0.4241 0.27095 0.0
C280 C 0.53091 0.42461 0.34801 0.0
C281 C 0.5135 0.43294 0.29775 0.0
C282 C 0.52375 0.43836 0.23478 0.0
C283 C 0.55067 0.43416 0.22161 0.0
H284 H 0.57616 0.60238 0.72498 0.0
H285 H 0.55149 0.6456 0.90207 0.0
H286 H 0.52978 0.59687 0.69222 0.0
H287 H 0.50504 0.63976 0.86965 0.0
H288 H 0.42402 0.60248 0.81243 0.0
H289 H 0.47053 0.59867 0.84552 0.0
H290 H 0.49451 0.63605 0.66088 0.0
H291 H 0.44796 0.64024 0.62819 0.0
C292 C 0.56077 0.61013 0.75752 0.0
C293 C 0.56734 0.62434 0.81616 0.0
C294 C 0.53431 0.60716 0.73855 0.0
C295 C 0.51391 0.61788 0.77842 0.0
C296 C 0.52042 0.63108 0.8383 0.0
C297 C 0.54692 0.63454 0.85671 0.0
C298 C 0.43929 0.60925 0.77838 0.0
C299 C 0.43249 0.62155 0.71766 0.0
C300 C 0.46582 0.60731 0.79754 0.0
C301 C 0.48603 0.61714 0.75581 0.0
C302 C 0.47929 0.62813 0.69376 0.0
C303 C 0.45273 0.63058 0.67511 0.0
H304 H 0.06184 0.95427 0.19746 0.0
H305 H 0.0644 0.87318 0.30185 0.0
H306 H 0.01624 0.96143 0.23414 0.0
H307 H 0.01875 0.87939 0.3346 0.0
H308 H 0.94391 0.90402 0.43154 0.0
H309 H 0.991 0.90582 0.40503 0.0
H310 H 0.97239 0.94366 0.21673 0.0
H311 H 0.92542 0.9428 0.24472 0.0
C312 C 0.05271 0.93793 0.22795 0.0
C313 C 0.06683 0.91302 0.24605 0.0
C314 C 0.02647 0.94192 0.24856 0.0
C315 C 0.01375 0.92107 0.2877 0.0
C316 C 0.02793 0.89622 0.30562 0.0
C317 C 0.05408 0.89235 0.28553 0.0
C318 C 0.95002 0.91324 0.3851 0.0
C319 C 0.93107 0.92319 0.34014 0.0
C320 C 0.97696 0.91405 0.36953 0.0
C321 C 0.98555 0.92436 0.3081 0.0
C322 C 0.96661 0.93577 0.26462 0.0
C323 C 0.93966 0.9353 0.28063 0.0
H324 H 0.06603 0.15792 0.73956 0.0
H325 H 0.06012 0.10412 0.91177 0.0
H326 H 0.01899 0.15087 0.71781 0.0
H327 H 0.01269 0.09702 0.88999 0.0
H328 H 0.92548 0.13528 0.87165 0.0
H329 H 0.97301 0.1311 0.89221 0.0
H330 H 0.986 0.11209 0.68749 0.0
H331 H 0.93837 0.11641 0.6669 0.0
C332 C 0.05461 0.14449 0.77263 0.0
C333 C 0.06657 0.13182 0.82775 0.0
C334 C 0.02777 0.14019 0.75978 0.0
C335 C 0.0122 0.12334 0.80211 0.0
C336 C 0.02425 0.11018 0.85667 0.0
C337 C 0.0513 0.11416 0.86904 0.0
C338 C 0.93849 0.12981 0.83128 0.0
C339 C 0.92834 0.12645 0.76756 0.0
C340 C 0.96563 0.12719 0.84314 0.0
C341 C 0.9832 0.12147 0.79137 0.0
C342 C 0.9729 0.11675 0.7282 0.0
C343 C 0.94568 0.11903 0.71648 0.0
H344 H 0.28204 0.5781 0.90445 0.0
H345 H 0.36136 0.59458 0.9739 0.0
H346 H 0.27998 0.53468 0.97349 0.0
H347 H 0.35922 0.5518 0.04267 0.0
H348 H 0.35883 0.45557 0.08733 0.0
H349 H 0.35779 0.49878 1.01978 0.0
H350 H 0.28063 0.52012 0.09693 0.0
H351 H 0.28159 0.47628 0.16481 0.0
C352 C 0.29896 0.57249 0.93443 0.0
C353 C 0.32181 0.58985 0.93381 0.0
C354 C 0.29771 0.54782 0.9743 0.0
C355 C 0.31947 0.53982 1.01338 0.0
C356 C 0.3422 0.55727 1.0128 0.0
C357 C 0.34333 0.58197 0.97376 0.0
C358 C 0.34149 0.46925 0.08958 0.0
C359 C 0.32022 0.4624 0.1313 0.0
C360 C 0.34101 0.49418 0.05124 0.0
C361 C 0.31917 0.5129 0.05313 0.0
C362 C 0.29767 0.50599 0.09421 0.0
C363 C 0.2983 0.48108 0.1334 0.0
H364 H 0.71891 0.44719 0.48963 0.0
H365 H 0.67544 0.48807 0.33264 0.0
H366 H 0.71651 0.4911 0.55343 0.0
H367 H 0.67443 0.53283 0.3951 0.0
H368 H 0.64651 0.59358 0.5584 0.0
H369 H 0.65242 0.55205 0.48752 0.0
H370 H 0.73074 0.53891 0.56787 0.0
H371 H 0.72434 0.58026 0.64024 0.0
C372 C 0.70899 0.46562 0.46834 0.0
C373 C 0.69695 0.46376 0.40621 0.0
C374 C 0.70796 0.49108 0.50476 0.0
C375 C 0.6951 0.51565 0.47994 0.0
C376 C 0.68407 0.51423 0.41651 0.0
C377 C 0.68494 0.4886 0.38016 0.0
C378 C 0.66511 0.58204 0.56048 0.0
C379 C 0.68497 0.59027 0.60502 0.0
C380 C 0.66857 0.5582 0.51949 0.0
C381 C 0.69211 0.54201 0.52145 0.0
C382 C 0.71216 0.55052 0.56552 0.0
C383 C 0.70855 0.57425 0.60705 0.0
H384 H 0.70452 0.56502 0.83459 0.0
H385 H 0.73121 0.59893 1.01996 0.0
H386 H 0.70233 0.51694 0.88187 0.0
H387 H 0.72728 0.55118 0.06916 0.0
H388 H 0.72782 0.45741 0.13855 0.0
H389 H 0.7396 0.50309 0.08511 0.0
H390 H 0.67495 0.49136 0.94859 0.0
H391 H 0.66451 0.44589 0.99862 0.0
C392 C 0.70998 0.56214 0.88555 0.0
C393 C 0.71795 0.58581 0.92348 0.0
C394 C 0.70844 0.53455 0.91318 0.0
C395 C 0.71399 0.5299 0.98024 0.0
C396 C 0.72301 0.55354 1.01743 0.0
C397 C 0.72518 0.58107 0.98923 0.0
C398 C 0.71647 0.46453 0.09649 0.0
C399 C 0.69534 0.44773 0.07285 0.0
C400 C 0.72305 0.49087 0.066 0.0
C401 C 0.70844 0.50118 1.01168 0.0
C402 C 0.68736 0.48415 0.98863 0.0
C403 C 0.68113 0.45789 1.01815 0.0
H404 H 0.29449 0.48324 0.36866 0.0
H405 H 0.25582 0.44047 0.5307 0.0
H406 H 0.29211 0.52909 0.4281 0.0
H407 H 0.25417 0.48614 0.59058 0.0
H408 H 0.25604 0.60931 0.53579 0.0
H409 H 0.25372 0.5636 0.47624 0.0
H410 H 0.293 0.52068 0.63671 0.0
H411 H 0.29605 0.56659 0.6958 0.0
C412 C 0.28527 0.48367 0.41662 0.0
C413 C 0.27519 0.45822 0.4447 0.0
C414 C 0.2839 0.5099 0.4506 0.0
C415 C 0.27303 0.51114 0.51405 0.0
C416 C 0.26274 0.48579 0.54188 0.0
C417 C 0.26352 0.4597 0.50731 0.0
C418 C 0.26388 0.59008 0.55885 0.0
C419 C 0.27614 0.59159 0.62076 0.0
C420 C 0.26271 0.56397 0.52445 0.0
C421 C 0.2732 0.53862 0.55178 0.0
C422 C 0.28464 0.53987 0.61461 0.0
C423 C 0.28639 0.56614 0.64839 0.0
H424 H 0.83605 0.09799 0.97754 0.0
H425 H 0.77892 0.05723 0.85096 0.0
H426 H 0.8401 0.05355 0.04141 0.0
H427 H 0.78243 1.01254 0.91625 0.0
H428 H 0.77687 0.95813 0.11995 0.0
H429 H 0.77201 1.00002 0.04669 0.0
H430 H 0.85638 1.00018 1.01321 0.0
H431 H 0.86115 0.95834 0.08513 0.0
C432 C 0.82439 0.0794 0.9635 0.0
C433 C 0.80719 0.0809 0.90952 0.0
C434 C 0.82673 0.05402 0.99985 0.0
C435 C 0.8115 0.02971 0.98387 0.0
C436 C 0.79428 0.03108 0.9297 0.0
C437 C 0.79241 0.05642 0.8922 0.0
C438 C 0.79428 0.96712 0.0966 0.0
C439 C 0.81936 0.95496 0.10803 0.0
C440 C 0.79149 0.99085 0.05441 0.0
C441 C 0.81383 1.00319 1.02422 0.0
C442 C 0.83885 0.99103 0.03576 0.0
C443 C 0.84155 0.96704 0.07669 0.0
H444 H 0.21996 0.0733 0.66562 0.0
H445 H 0.1432 0.0934 0.58473 0.0
H446 H 0.22148 0.02911 0.59902 0.0
H447 H 0.14461 0.04956 0.51903 0.0
H448 H 0.14305 0.95199 0.4807 0.0
H449 H 0.14434 0.99548 0.54759 0.0
H450 H 0.22198 1.01558 0.47172 0.0
H451 H 0.22062 0.97174 0.40398 0.0
C452 C 0.20345 0.06822 0.63381 0.0
C453 C 0.18152 0.08683 0.63017 0.0
C454 C 0.20439 0.04313 0.59542 0.0
C455 C 0.18315 0.03594 0.55389 0.0
C456 C 0.16121 0.05448 0.55077 0.0
C457 C 0.16049 0.07968 0.58807 0.0
C458 C 0.16051 0.96552 0.47862 0.0
C459 C 0.18179 0.9584 0.43722 0.0
C460 C 0.16116 0.99052 0.5166 0.0
C461 C 0.18325 1.0089 0.51487 0.0
C462 C 0.20477 1.00168 0.47426 0.0
C463 C 0.20392 0.97679 0.43522 0.0
H464 H 0.23732 0.10912 0.03591 0.0
H465 H 0.19973 0.0679 0.87051 0.0
H466 H 0.23846 0.06292 0.09395 0.0
H467 H 0.20157 1.02153 0.92817 0.0
H468 H 0.23891 0.94075 0.03211 0.0
H469 H 0.2399 0.98702 0.9745 0.0
H470 H 0.20033 0.02735 0.13785 0.0
H471 H 0.19866 0.98084 0.19509 0.0
C472 C 0.22964 0.09014 1.01153 0.0
C473 C 0.21852 0.09218 0.94842 0.0
C474 C 0.23014 0.06375 0.04502 0.0
C475 C 0.22009 0.03867 1.01561 0.0
C476 C 0.20957 0.04052 0.95188 0.0
C477 C 0.2085 0.06705 0.91895 0.0
C478 C 0.23061 0.9595 0.05609 0.0
C479 C 0.21878 0.95711 0.11835 0.0
C480 C 0.23103 0.98594 1.02283 0.0
C481 C 0.22017 1.01075 0.05165 0.0
C482 C 0.20896 1.00858 0.11461 0.0
C483 C 0.20798 0.98197 0.1473 0.0
H484 H 0.76569 0.08778 0.63522 0.0
H485 H 0.83225 0.09806 0.50424 0.0
H486 H 0.75417 0.04251 0.57974 0.0
H487 H 0.82195 0.05303 0.45223 0.0
H488 H 0.79299 0.98138 0.33164 0.0
H489 H 0.79524 0.02903 0.38095 0.0
H490 H 0.76549 0.99407 0.56339 0.0
H491 H 0.76158 0.94681 0.51198 0.0
C492 C 0.77784 0.08044 0.59479 0.0
C493 C 0.79972 0.09684 0.57399 0.0
C494 C 0.77137 0.05436 0.56308 0.0
C495 C 0.78686 0.04392 0.51041 0.0
C496 C 0.80885 0.06042 0.49068 0.0
C497 C 0.81497 0.08642 0.52134 0.0
C498 C 0.78644 0.98405 0.38187 0.0
C499 C 0.77716 0.96031 0.41782 0.0
C500 C 0.78803 1.01137 0.41072 0.0
C501 C 0.78121 1.01563 0.47718 0.0
C502 C 0.7708 0.99199 0.5122 0.0
C503 C 0.7686 0.96475 0.4827 0.0
H504 H 0.23489 0.35332 0.26832 0.0
H505 H 0.30447 0.30445 0.21458 0.0
H506 H 0.20801 0.32234 0.19568 0.0
H507 H 0.27818 0.27446 0.14352 0.0
H508 H 0.2336 0.24386 0.97062 0.0
H509 H 0.25373 0.28116 0.03782 0.0
H510 H 0.19441 0.26766 0.18706 0.0
H511 H 0.17366 0.2306 0.11886 0.0
C512 C 0.24442 0.33611 0.24134 0.0
C513 C 0.27185 0.33147 0.24745 0.0
C514 C 0.22908 0.31841 0.19988 0.0
C515 C 0.24109 0.29623 0.16311 0.0
C516 C 0.26838 0.29166 0.16999 0.0
C517 C 0.28345 0.30887 0.21149 0.0
C518 C 0.2244 0.24914 1.01697 0.0
C519 C 0.20214 0.23381 0.03946 0.0
C520 C 0.23607 0.27047 0.05578 0.0
C521 C 0.22583 0.27715 0.11812 0.0
C522 C 0.20273 0.26306 0.13924 0.0
C523 C 0.19106 0.24155 0.10043 0.0
H524 H 0.74389 0.68252 0.66453 0.0
H525 H 0.7319 0.74972 0.8071 0.0
H526 H 0.77034 0.71577 0.59711 0.0
H527 H 0.7584 0.78278 0.7409 0.0
H528 H 0.81878 0.83245 0.62416 0.0
H529 H 0.80296 0.7934 0.69356 0.0
H530 H 0.75679 0.76011 0.53253 0.0
H531 H 0.77214 0.79956 0.46305 0.0
C532 C 0.7479 0.70403 0.68264 0.0
C533 C 0.73639 0.71351 0.74142 0.0
C534 C 0.76266 0.72317 0.64372 0.0
C535 C 0.76636 0.75197 0.66347 0.0
C536 C 0.7562 0.76072 0.72452 0.0
C537 C 0.74112 0.74178 0.76265 0.0
C538 C 0.8052 0.81695 0.60325 0.0
C539 C 0.79645 0.81965 0.53791 0.0
C540 C 0.79627 0.7944 0.64313 0.0
C541 C 0.77854 0.77369 0.61873 0.0
C542 C 0.7707 0.77552 0.55265 0.0
C543 C 0.77948 0.79825 0.51278 0.0
H544 H 0.23659 0.80764 0.08756 0.0
H545 H 0.17576 0.81953 0.94107 0.0
H546 H 0.25731 0.77103 1.01941 0.0
H547 H 0.197 0.78301 0.87206 0.0
H548 H 0.23843 0.69672 0.79417 0.0
H549 H 0.21144 0.72803 0.86572 0.0
H550 H 0.28094 0.77828 0.91142 0.0
H551 H 0.30738 0.74797 0.84115 0.0
C552 C 0.22734 0.80217 0.04137 0.0
C553 C 0.20461 0.81686 1.01969 0.0
C554 C 0.23934 0.78126 1.00205 0.0
C555 C 0.22891 0.77431 0.94008 0.0
C556 C 0.20544 0.78784 0.91962 0.0
C557 C 0.19348 0.80899 0.95887 0.0
C558 C 0.24779 0.71456 0.81935 0.0
C559 C 0.2751 0.7197 0.81189 0.0
C560 C 0.23239 0.73244 0.8602 0.0
C561 C 0.2442 0.75534 0.89496 0.0
C562 C 0.27133 0.76053 0.88645 0.0
C563 C 0.28647 0.74312 0.8455 0.0
H564 H 0.71835 0.27972 0.24049 0.0
H565 H 0.75292 0.35631 0.32403 0.0
H566 H 0.74631 0.24976 0.30995 0.0
H567 H 0.78037 0.3264 0.39596 0.0
H568 H 0.83582 0.2633 0.4982 0.0
H569 H 0.81499 0.29207 0.41304 0.0
H570 H 0.74571 0.23754 0.42242 0.0
H571 H 0.76707 0.20785 0.50493 0.0
C572 C 0.73246 0.29011 0.27281 0.0
C573 C 0.73359 0.32029 0.2767 0.0
C574 C 0.74821 0.27296 0.31343 0.0
C575 C 0.76518 0.28555 0.35999 0.0
C576 C 0.76763 0.31586 0.36066 0.0
C577 C 0.75204 0.33308 0.31915 0.0
C578 C 0.81632 0.25705 0.48155 0.0
C579 C 0.80327 0.23296 0.50882 0.0
C580 C 0.80422 0.27387 0.43298 0.0
C581 C 0.77866 0.2672 0.41028 0.0
C582 C 0.76561 0.24313 0.43753 0.0
C583 C 0.77775 0.22624 0.48585 0.0
H584 H 0.73342 0.74031 0.95611 0.0
H585 H 0.67718 0.72333 0.11114 0.0
H586 H 0.75339 0.77813 1.0219 0.0
H587 H 0.69784 0.76096 0.17793 0.0
H588 H 0.73567 0.84807 0.25718 0.0
H589 H 0.70896 0.81597 0.18674 0.0
H590 H 0.78035 0.77308 0.12341 0.0
H591 H 0.80651 0.80427 0.19222 0.0
C592 C 0.72499 0.74484 1.00375 0.0
C593 C 0.70379 0.72838 0.02834 0.0
C594 C 0.7366 0.76648 0.04177 0.0
C595 C 0.72738 0.77237 0.10546 0.0
C596 C 0.70535 0.757 0.12901 0.0
C597 C 0.69375 0.73518 0.09097 0.0
C598 C 0.74551 0.83177 0.22808 0.0
C599 C 0.77323 0.8288 0.23055 0.0
C600 C 0.73027 0.81339 0.18795 0.0
C601 C 0.74261 0.79221 0.14887 0.0
C602 C 0.77023 0.78944 0.15181 0.0
C603 C 0.78524 0.80732 0.19199 0.0
H604 H 0.24302 0.18383 0.67495 0.0
H605 H 0.23736 0.24907 0.82441 0.0
H606 H 0.26973 0.21657 0.60709 0.0
H607 H 0.26408 0.28171 0.75758 0.0
H608 H 0.32325 0.33064 0.63522 0.0
H609 H 0.30747 0.2915 0.70449 0.0
H610 H 0.25694 0.26195 0.54773 0.0
H611 H 0.2723 0.30143 0.47853 0.0
C612 C 0.24854 0.20471 0.69439 0.0
C613 C 0.23873 0.21381 0.75534 0.0
C614 C 0.26343 0.22361 0.65524 0.0
C615 C 0.26889 0.25184 0.67671 0.0
C616 C 0.26051 0.26007 0.73978 0.0
C617 C 0.24534 0.24136 0.77831 0.0
C618 C 0.30874 0.31593 0.61527 0.0
C619 C 0.29881 0.31967 0.55123 0.0
C620 C 0.29981 0.29333 0.65505 0.0
C621 C 0.28089 0.27363 0.63181 0.0
C622 C 0.27179 0.27653 0.56692 0.0
C623 C 0.28058 0.29929 0.52718 0.0
H624 H 0.77373 0.26363 0.73938 0.0
H625 H 0.74071 0.18731 0.82825 0.0
H626 H 0.74561 0.29378 0.80783 0.0
H627 H 0.71304 0.21747 0.89912 0.0
H628 H 0.65716 0.28104 0.99938 0.0
H629 H 0.67792 0.25165 0.91516 0.0
H630 H 0.74677 0.30691 0.91992 0.0
H631 H 0.72552 0.3371 1.00157 0.0
C632 C 0.75989 0.25332 0.77261 0.0
C633 C 0.75927 0.22317 0.7783 0.0
C634 C 0.74406 0.2706 0.81266 0.0
C635 C 0.72748 0.25819 0.86042 0.0
C636 C 0.72547 0.22786 0.86287 0.0
C637 C 0.74118 0.2105 0.82197 0.0
C638 C 0.67654 0.28729 0.98187 0.0
C639 C 0.68953 0.31171 1.00762 0.0
C640 C 0.6886 0.27013 0.93386 0.0
C641 C 0.71402 0.27684 0.91016 0.0
C642 C 0.72697 0.30126 0.93584 0.0
C643 C 0.7149 0.31845 0.98365 0.0
H644 H 0.23599 0.7976 0.23838 0.0
H645 H 0.24613 0.86474 0.38195 0.0
H646 H 0.26324 0.76518 0.30423 0.0
H647 H 0.27336 0.83216 0.44898 0.0
H648 H 0.276 0.7484 0.58239 0.0
H649 H 0.26047 0.78765 0.51281 0.0
H650 H 0.3076 0.75517 0.35261 0.0
H651 H 0.3236 0.71626 0.4222 0.0
C652 C 0.245 0.80572 0.28292 0.0
C653 C 0.23949 0.83375 0.30459 0.0
C654 C 0.26051 0.78714 0.32086 0.0
C655 C 0.27034 0.79601 0.38215 0.0
C656 C 0.26594 0.82466 0.40219 0.0
C657 C 0.25073 0.84344 0.36349 0.0
C658 C 0.28353 0.74985 0.53285 0.0
C659 C 0.30083 0.72871 0.508 0.0
C660 C 0.27464 0.77248 0.4929 0.0
C661 C 0.2827 0.77447 0.42701 0.0
C662 C 0.30076 0.75404 0.40289 0.0
C663 C 0.30979 0.73157 0.44287 0.0
loop_
_geom_bond_atom_site_label_1
_geom_bond_atom_site_label_2
_geom_bond_distance
_geom_bond_site_symmetry_2
_ccdc_geom_bond_type
C0 C1 1.351 . S
C0 N3 1.368 . S
C0 H5 0.931 . S
C1 C0 1.351 . S
C1 N2 1.373 . S
C1 H29 0.930 . S
N2 C1 1.373 . S
N2 C4 1.340 . S
N3 C0 1.368 . S
N3 C4 1.321 . S
N3 Co6 2.135 . S
C4 N2 1.340 . S
C4 N3 1.321 . S
C4 H28 0.930 . S
H5 C0 0.931 . S
Co6 N3 2.135 . S
Co6 N9 2.121 . S
Co6 O14 2.055 . S
Co6 O17 2.039 . S
Co6 N20 2.140 . S
C7 O8 1.227 . S
C7 O17 1.265 . S
O8 C7 1.227 . S
N9 Co6 2.121 . S
N9 C11 1.375 . S
N9 C12 1.313 . S
C10 C11 1.338 . S
C10 N13 1.377 . S
C10 H30 0.930 . S
C11 N9 1.375 . S
C11 C10 1.338 . S
C11 H15 0.931 . S
C12 N9 1.313 . S
C12 N13 1.344 . S
C12 H16 0.930 . S
N13 C10 1.377 . S
N13 C12 1.344 . S
O14 Co6 2.055 . S
O14 C18 1.253 . S
H15 C11 0.931 . S
H16 C12 0.930 . S
O17 Co6 2.039 . S
O17 C7 1.265 . S
C18 O14 1.253 . S
C18 O19 1.227 . S
O19 C18 1.227 . S
N20 Co6 2.140 . S
N20 C23 1.346 . S
N20 C24 1.345 . S
C21 C22 1.387 . S
C21 C25 1.391 . S
C22 C21 1.387 . S
C22 C23 1.369 . S
C22 H31 0.929 . S
C23 N20 1.346 . S
C23 C22 1.369 . S
C23 H26 0.928 . S
C24 N20 1.345 . S
C24 C25 1.371 . S
C24 H27 0.931 . S
C25 C21 1.391 . S
C25 C24 1.371 . S
C25 H32 0.930 . S
H26 C23 0.928 . S
H27 C24 0.931 . S
H28 C4 0.930 . S
H29 C1 0.930 . S
H30 C10 0.930 . S
H31 C22 0.929 . S
H32 C25 0.930 . S
C33 C34 1.351 . S
C33 N36 1.368 . S
C33 H38 0.931 . S
C34 C33 1.351 . S
C34 N35 1.373 . S
C34 H62 0.930 . S
N35 C34 1.373 . S
N35 C37 1.340 . S
N36 C33 1.368 . S
N36 C37 1.321 . S
N36 Co39 2.135 . S
C37 N35 1.340 . S
C37 N36 1.321 . S
C37 H61 0.930 . S
H38 C33 0.931 . S
Co39 N36 2.135 . S
Co39 N42 2.121 . S
Co39 O47 2.055 . S
Co39 O50 2.039 . S
Co39 N53 2.140 . S
C40 O41 1.227 . S
C40 O50 1.265 . S
O41 C40 1.227 . S
N42 Co39 2.121 . S
N42 C44 1.375 . S
N42 C45 1.313 . S
C43 C44 1.338 . S
C43 N46 1.377 . S
C43 H63 0.930 1_556 S
C44 N42 1.375 . S
C44 C43 1.338 . S
C44 H48 0.931 . S
C45 N42 1.313 . S
C45 N46 1.344 . S
C45 H49 0.930 . S
N46 C43 1.377 . S
N46 C45 1.344 . S
O47 Co39 2.055 . S
O47 C51 1.253 . S
H48 C44 0.931 . S
H49 C45 0.930 . S
O50 Co39 2.039 . S
O50 C40 1.265 . S
C51 O47 1.253 . S
C51 O52 1.227 . S
O52 C51 1.227 . S
N53 Co39 2.140 . S
N53 C56 1.346 . S
N53 C57 1.345 . S
C54 C55 1.387 . S
C54 C58 1.391 . S
C55 C54 1.387 . S
C55 C56 1.369 . S
C55 H64 0.929 . S
C56 N53 1.346 . S
C56 C55 1.369 . S
C56 H59 0.928 . S
C57 N53 1.345 . S
C57 C58 1.371 . S
C57 H60 0.931 . S
C58 C54 1.391 . S
C58 C57 1.371 . S
C58 H65 0.930 . S
H59 C56 0.928 . S
H60 C57 0.931 . S
H61 C37 0.930 . S
H62 C34 0.930 . S
H63 C43 0.930 1_554 S
H64 C55 0.929 . S
H65 C58 0.930 . S
C66 C67 1.351 . S
C66 N69 1.368 . S
C66 H71 0.931 . S
C67 C66 1.351 . S
C67 N68 1.373 . S
C67 H95 0.930 . S
N68 C67 1.373 . S
N68 C70 1.340 . S
N69 C66 1.368 . S
N69 C70 1.321 . S
N69 Co72 2.135 . S
C70 N68 1.340 . S
C70 N69 1.321 . S
C70 H94 0.930 . S
H71 C66 0.931 . S
Co72 N69 2.135 . S
Co72 N75 2.121 . S
Co72 O80 2.055 . S
Co72 O83 2.039 . S
Co72 N86 2.140 . S
C73 O74 1.227 . S
C73 O83 1.265 . S
O74 C73 1.227 . S
N75 Co72 2.121 . S
N75 C77 1.375 . S
N75 C78 1.313 . S
C76 C77 1.338 . S
C76 N79 1.377 . S
C76 H96 0.930 . S
C77 N75 1.375 . S
C77 C76 1.338 . S
C77 H81 0.931 . S
C78 N75 1.313 . S
C78 N79 1.344 . S
C78 H82 0.930 . S
N79 C76 1.377 . S
N79 C78 1.344 . S
O80 Co72 2.055 . S
O80 C84 1.253 . S
H81 C77 0.931 . S
H82 C78 0.930 . S
O83 Co72 2.039 . S
O83 C73 1.265 . S
C84 O80 1.253 . S
C84 O85 1.227 . S
O85 C84 1.227 . S
N86 Co72 2.140 . S
N86 C89 1.346 . S
N86 C90 1.345 . S
C87 C88 1.387 . S
C87 C91 1.391 . S
C88 C87 1.387 . S
C88 C89 1.369 . S
C88 H97 0.929 . S
C89 N86 1.346 . S
C89 C88 1.369 . S
C89 H92 0.928 . S
C90 N86 1.345 . S
C90 C91 1.371 . S
C90 H93 0.931 . S
C91 C87 1.391 . S
C91 C90 1.371 . S
C91 H98 0.930 . S
H92 C89 0.928 . S
H93 C90 0.931 . S
H94 C70 0.930 . S
H95 C67 0.930 . S
H96 C76 0.930 . S
H97 C88 0.929 . S
H98 C91 0.930 . S
C99 C100 1.351 . S
C99 N102 1.368 . S
C99 H104 0.931 . S
C100 C99 1.351 . S
C100 N101 1.373 . S
C100 H128 0.930 . S
N101 C100 1.373 . S
N101 C103 1.340 . S
N102 C99 1.368 . S
N102 C103 1.321 . S
N102 Co105 2.135 . S
C103 N101 1.340 . S
C103 N102 1.321 . S
C103 H127 0.930 . S
H104 C99 0.931 . S
Co105 N102 2.135 . S
Co105 N108 2.121 . S
Co105 O113 2.055 . S
Co105 O116 2.039 . S
Co105 N119 2.140 . S
C106 O107 1.227 . S
C106 O116 1.265 . S
O107 C106 1.227 . S
N108 Co105 2.121 . S
N108 C110 1.375 . S
N108 C111 1.313 . S
C109 C110 1.338 . S
C109 N112 1.377 . S
C109 H129 0.930 1_554 S
C110 N108 1.375 . S
C110 C109 1.338 . S
C110 H114 0.931 . S
C111 N108 1.313 . S
C111 N112 1.344 . S
C111 H115 0.930 . S
N112 C109 1.377 . S
N112 C111 1.344 . S
O113 Co105 2.055 . S
O113 C117 1.253 . S
H114 C110 0.931 . S
H115 C111 0.930 . S
O116 Co105 2.039 . S
O116 C106 1.265 . S
C117 O113 1.253 . S
C117 O118 1.227 . S
O118 C117 1.227 . S
N119 Co105 2.140 . S
N119 C122 1.346 . S
N119 C123 1.345 . S
C120 C121 1.387 . S
C120 C124 1.391 . S
C121 C120 1.387 . S
C121 C122 1.369 . S
C121 H130 0.929 . S
C122 N119 1.346 . S
C122 C121 1.369 . S
C122 H125 0.928 . S
C123 N119 1.345 . S
C123 C124 1.371 . S
C123 H126 0.931 . S
C124 C120 1.391 . S
C124 C123 1.371 . S
C124 H131 0.930 . S
H125 C122 0.928 . S
H126 C123 0.931 . S
H127 C103 0.930 . S
H128 C100 0.930 . S
H129 C109 0.930 1_556 S
H130 C121 0.929 . S
H131 C124 0.930 . S
C132 C133 1.351 . S
C132 N135 1.368 . S
C132 H137 0.931 . S
C133 C132 1.351 . S
C133 N134 1.373 . S
C133 H161 0.930 . S
N134 C133 1.373 . S
N134 C136 1.340 . S
N135 C132 1.368 . S
N135 C136 1.321 . S
N135 Co138 2.135 . S
C136 N134 1.340 . S
C136 N135 1.321 . S
C136 H160 0.930 . S
H137 C132 0.931 . S
Co138 N135 2.135 . S
Co138 N141 2.121 . S
Co138 O146 2.055 . S
Co138 O149 2.039 . S
Co138 N152 2.140 . S
C139 O140 1.227 . S
C139 O149 1.265 . S
O140 C139 1.227 . S
N141 Co138 2.121 . S
N141 C143 1.375 . S
N141 C144 1.313 . S
C142 C143 1.338 . S
C142 N145 1.377 . S
C142 H162 0.930 . S
C143 N141 1.375 . S
C143 C142 1.338 . S
C143 H147 0.931 . S
C144 N141 1.313 . S
C144 N145 1.344 . S
C144 H148 0.930 . S
N145 C142 1.377 . S
N145 C144 1.344 . S
O146 Co138 2.055 . S
O146 C150 1.253 . S
H147 C143 0.931 . S
H148 C144 0.930 . S
O149 Co138 2.039 . S
O149 C139 1.265 . S
C150 O146 1.253 . S
C150 O151 1.227 . S
O151 C150 1.227 . S
N152 Co138 2.140 . S
N152 C155 1.346 . S
N152 C156 1.345 . S
C153 C154 1.387 . S
C153 C157 1.391 . S
C154 C153 1.387 . S
C154 C155 1.369 . S
C154 H163 0.929 . S
C155 N152 1.346 . S
C155 C154 1.369 . S
C155 H158 0.928 . S
C156 N152 1.345 . S
C156 C157 1.371 . S
C156 H159 0.931 . S
C157 C153 1.391 . S
C157 C156 1.371 . S
C157 H164 0.930 . S
H158 C155 0.928 . S
H159 C156 0.931 . S
H160 C136 0.930 . S
H161 C133 0.930 . S
H162 C142 0.930 . S
H163 C154 0.929 . S
H164 C157 0.930 . S
C165 C166 1.351 . S
C165 N168 1.368 . S
C165 H170 0.931 . S
C166 C165 1.351 . S
C166 N167 1.373 . S
C166 H194 0.930 . S
N167 C166 1.373 . S
N167 C169 1.340 . S
N168 C165 1.368 . S
N168 C169 1.321 . S
N168 Co171 2.135 . S
C169 N167 1.340 . S
C169 N168 1.321 . S
C169 H193 0.930 . S
H170 C165 0.931 . S
Co171 N168 2.135 . S
Co171 N174 2.121 . S
Co171 O179 2.055 . S
Co171 O182 2.039 . S
Co171 N185 2.140 . S
C172 O173 1.227 . S
C172 O182 1.265 . S
O173 C172 1.227 . S
N174 Co171 2.121 . S
N174 C176 1.375 . S
N174 C177 1.313 . S
C175 C176 1.338 . S
C175 N178 1.377 . S
C175 H195 0.930 1_556 S
C176 N174 1.375 . S
C176 C175 1.338 . S
C176 H180 0.931 . S
C177 N174 1.313 . S
C177 N178 1.344 . S
C177 H181 0.930 . S
N178 C175 1.377 . S
N178 C177 1.344 . S
O179 Co171 2.055 . S
O179 C183 1.253 . S
H180 C176 0.931 . S
H181 C177 0.930 . S
O182 Co171 2.039 . S
O182 C172 1.265 . S
C183 O179 1.253 . S
C183 O184 1.227 . S
O184 C183 1.227 . S
N185 Co171 2.140 . S
N185 C188 1.346 . S
N185 C189 1.345 . S
C186 C187 1.387 . S
C186 C190 1.391 . S
C187 C186 1.387 . S
C187 C188 1.369 . S
C187 H196 0.929 . S
C188 N185 1.346 . S
C188 C187 1.369 . S
C188 H191 0.928 . S
C189 N185 1.345 . S
C189 C190 1.371 . S
C189 H192 0.931 . S
C190 C186 1.391 . S
C190 C189 1.371 . S
C190 H197 0.930 . S
H191 C188 0.928 . S
H192 C189 0.931 . S
H193 C169 0.930 . S
H194 C166 0.930 . S
H195 C175 0.930 1_554 S
H196 C187 0.929 . S
H197 C190 0.930 . S
C198 C199 1.351 . S
C198 N201 1.368 . S
C198 H203 0.931 . S
C199 C198 1.351 . S
C199 N200 1.373 . S
C199 H227 0.930 . S
N200 C199 1.373 . S
N200 C202 1.340 . S
N201 C198 1.368 . S
N201 C202 1.321 . S
N201 Co204 2.135 . S
C202 N200 1.340 . S
C202 N201 1.321 . S
C202 H226 0.930 . S
H203 C198 0.931 . S
Co204 N201 2.135 . S
Co204 N207 2.121 . S
Co204 O212 2.055 . S
Co204 O215 2.039 . S
Co204 N218 2.140 . S
C205 O206 1.227 . S
C205 O215 1.265 . S
O206 C205 1.227 . S
N207 Co204 2.121 . S
N207 C209 1.375 . S
N207 C210 1.313 . S
C208 C209 1.338 . S
C208 N211 1.377 . S
C208 H228 0.930 . S
C209 N207 1.375 . S
C209 C208 1.338 . S
C209 H213 0.931 . S
C210 N207 1.313 . S
C210 N211 1.344 . S
C210 H214 0.930 . S
N211 C208 1.377 . S
N211 C210 1.344 . S
O212 Co204 2.055 . S
O212 C216 1.253 . S
H213 C209 0.931 . S
H214 C210 0.930 . S
O215 Co204 2.039 . S
O215 C205 1.265 . S
C216 O212 1.253 . S
C216 O217 1.227 . S
O217 C216 1.227 . S
N218 Co204 2.140 . S
N218 C221 1.346 . S
N218 C222 1.345 . S
C219 C220 1.387 . S
C219 C223 1.391 . S
C220 C219 1.387 . S
C220 C221 1.369 . S
C220 H229 0.929 . S
C221 N218 1.346 . S
C221 C220 1.369 . S
C221 H224 0.928 . S
C222 N218 1.345 . S
C222 C223 1.371 . S
C222 H225 0.931 . S
C223 C219 1.391 . S
C223 C222 1.371 . S
C223 H230 0.930 . S
H224 C221 0.928 . S
H225 C222 0.931 . S
H226 C202 0.930 . S
H227 C199 0.930 . S
H228 C208 0.930 . S
H229 C220 0.929 . S
H230 C223 0.930 . S
C231 C232 1.351 . S
C231 N234 1.368 . S
C231 H236 0.931 . S
C232 C231 1.351 . S
C232 N233 1.373 . S
C232 H260 0.930 . S
N233 C232 1.373 . S
N233 C235 1.340 . S
N234 C231 1.368 . S
N234 C235 1.321 . S
N234 Co237 2.135 . S
C235 N233 1.340 . S
C235 N234 1.321 . S
C235 H259 0.930 . S
H236 C231 0.931 . S
Co237 N234 2.135 . S
Co237 N240 2.121 . S
Co237 O245 2.055 . S
Co237 O248 2.039 . S
Co237 N251 2.140 . S
C238 O239 1.227 . S
C238 O248 1.265 . S
O239 C238 1.227 . S
N240 Co237 2.121 . S
N240 C242 1.375 . S
N240 C243 1.313 . S
C241 C242 1.338 . S
C241 N244 1.377 . S
C241 H261 0.930 1_554 S
C242 N240 1.375 . S
C242 C241 1.338 . S
C242 H246 0.931 . S
C243 N240 1.313 . S
C243 N244 1.344 . S
C243 H247 0.930 . S
N244 C241 1.377 . S
N244 C243 1.344 . S
O245 Co237 2.055 . S
O245 C249 1.253 . S
H246 C242 0.931 . S
H247 C243 0.930 . S
O248 Co237 2.039 . S
O248 C238 1.265 . S
C249 O245 1.253 . S
C249 O250 1.227 . S
O250 C249 1.227 . S
N251 Co237 2.140 . S
N251 C254 1.346 . S
N251 C255 1.345 . S
C252 C253 1.387 . S
C252 C256 1.391 . S
C253 C252 1.387 . S
C253 C254 1.369 . S
C253 H262 0.929 . S
C254 N251 1.346 . S
C254 C253 1.369 . S
C254 H257 0.928 . S
C255 N251 1.345 . S
C255 C256 1.371 . S
C255 H258 0.931 . S
C256 C252 1.391 . S
C256 C255 1.371 . S
C256 H263 0.930 . S
H257 C254 0.928 . S
H258 C255 0.931 . S
H259 C235 0.930 . S
H260 C232 0.930 . S
H261 C241 0.930 1_556 S
H262 C253 0.929 . S
H263 C256 0.930 . S
H264 C272 0.950 . S
H265 C277 0.950 . S
H266 C274 0.950 . S
H267 C276 0.950 . S
H268 C278 0.950 . S
H269 C280 0.950 . S
H270 C282 0.950 . S
H271 C283 0.950 . S
C272 H264 0.950 . S
C272 C273 1.386 . S
C272 C274 1.391 . S
C273 C272 1.386 . S
C273 C277 1.393 . S
C274 H266 0.950 . S
C274 C272 1.391 . S
C274 C275 1.400 . S
C275 C274 1.400 . S
C275 C276 1.398 . S
C275 C281 1.491 . S
C276 H267 0.950 . S
C276 C275 1.398 . S
C276 C277 1.391 . S
C277 H265 0.950 . S
C277 C273 1.393 . S
C277 C276 1.391 . S
C278 H268 0.950 . S
C278 C279 1.386 . S
C278 C280 1.391 . S
C279 C278 1.386 . S
C279 C283 1.393 . S
C280 H269 0.950 . S
C280 C278 1.391 . S
C280 C281 1.400 . S
C281 C275 1.491 . S
C281 C280 1.400 . S
C281 C282 1.398 . S
C282 H270 0.950 . S
C282 C281 1.398 . S
C282 C283 1.391 . S
C283 H271 0.950 . S
C283 C279 1.393 . S
C283 C282 1.391 . S
H284 C292 0.950 . S
H285 C297 0.950 . S
H286 C294 0.950 . S
H287 C296 0.950 . S
H288 C298 0.950 . S
H289 C300 0.950 . S
H290 C302 0.950 . S
H291 C303 0.950 . S
C292 H284 0.950 . S
C292 C293 1.386 . S
C292 C294 1.391 . S
C293 C292 1.386 . S
C293 C297 1.393 . S
C294 H286 0.950 . S
C294 C292 1.391 . S
C294 C295 1.400 . S
C295 C294 1.400 . S
C295 C296 1.398 . S
C295 C301 1.491 . S
C296 H287 0.950 . S
C296 C295 1.398 . S
C296 C297 1.391 . S
C297 H285 0.950 . S
C297 C293 1.393 . S
C297 C296 1.391 . S
C298 H288 0.950 . S
C298 C299 1.386 . S
C298 C300 1.391 . S
C299 C298 1.386 . S
C299 C303 1.393 . S
C300 H289 0.950 . S
C300 C298 1.391 . S
C300 C301 1.400 . S
C301 C295 1.491 . S
C301 C300 1.400 . S
C301 C302 1.398 . S
C302 H290 0.950 . S
C302 C301 1.398 . S
C302 C303 1.391 . S
C303 H291 0.950 . S
C303 C299 1.393 . S
C303 C302 1.391 . S
H304 C312 0.950 . S
H305 C317 0.950 . S
H306 C314 0.950 . S
H307 C316 0.950 . S
H308 C318 0.950 . S
H309 C320 0.950 . S
H310 C322 0.950 . S
H311 C323 0.950 . S
C312 H304 0.950 . S
C312 C313 1.386 . S
C312 C314 1.391 . S
C313 C312 1.386 . S
C313 C317 1.393 . S
C314 H306 0.950 . S
C314 C312 1.391 . S
C314 C315 1.400 . S
C315 C314 1.400 . S
C315 C316 1.398 . S
C315 C321 1.491 1_455 S
C316 H307 0.950 . S
C316 C315 1.398 . S
C316 C317 1.391 . S
C317 H305 0.950 . S
C317 C313 1.393 . S
C317 C316 1.391 . S
C318 H308 0.950 . S
C318 C319 1.386 . S
C318 C320 1.391 . S
C319 C318 1.386 . S
C319 C323 1.393 . S
C320 H309 0.950 . S
C320 C318 1.391 . S
C320 C321 1.400 . S
C321 C315 1.491 1_655 S
C321 C320 1.400 . S
C321 C322 1.398 . S
C322 H310 0.950 . S
C322 C321 1.398 . S
C322 C323 1.391 . S
C323 H311 0.950 . S
C323 C319 1.393 . S
C323 C322 1.391 . S
H324 C332 0.950 . S
H325 C337 0.950 . S
H326 C334 0.950 . S
H327 C336 0.950 . S
H328 C338 0.950 . S
H329 C340 0.950 . S
H330 C342 0.950 . S
H331 C343 0.950 . S
C332 H324 0.950 . S
C332 C333 1.386 . S
C332 C334 1.391 . S
C333 C332 1.386 . S
C333 C337 1.393 . S
C334 H326 0.950 . S
C334 C332 1.391 . S
C334 C335 1.400 . S
C335 C334 1.400 . S
C335 C336 1.398 . S
C335 C341 1.491 1_455 S
C336 H327 0.950 . S
C336 C335 1.398 . S
C336 C337 1.391 . S
C337 H325 0.950 . S
C337 C333 1.393 . S
C337 C336 1.391 . S
C338 H328 0.950 . S
C338 C339 1.386 . S
C338 C340 1.391 . S
C339 C338 1.386 . S
C339 C343 1.393 . S
C340 H329 0.950 . S
C340 C338 1.391 . S
C340 C341 1.400 . S
C341 C335 1.491 1_655 S
C341 C340 1.400 . S
C341 C342 1.398 . S
C342 H330 0.950 . S
C342 C341 1.398 . S
C342 C343 1.391 . S
C343 H331 0.950 . S
C343 C339 1.393 . S
C343 C342 1.391 . S
H344 C352 0.950 . S
H345 C357 0.950 . S
H346 C354 0.950 . S
H347 C356 0.950 . S
H348 C358 0.950 . S
H349 C360 0.950 . S
H350 C362 0.950 . S
H351 C363 0.950 . S
C352 H344 0.950 . S
C352 C353 1.386 . S
C352 C354 1.391 . S
C353 C352 1.386 . S
C353 C357 1.393 . S
C354 H346 0.950 . S
C354 C352 1.391 . S
C354 C355 1.400 . S
C355 C354 1.400 . S
C355 C356 1.398 . S
C355 C361 1.491 1_556 S
C356 H347 0.950 . S
C356 C355 1.398 . S
C356 C357 1.391 . S
C357 H345 0.950 . S
C357 C353 1.393 . S
C357 C356 1.391 . S
C358 H348 0.950 . S
C358 C359 1.386 . S
C358 C360 1.391 . S
C359 C358 1.386 . S
C359 C363 1.393 . S
C360 H349 0.950 . S
C360 C358 1.391 . S
C360 C361 1.400 . S
C361 C355 1.491 1_554 S
C361 C360 1.400 . S
C361 C362 1.398 . S
C362 H350 0.950 . S
C362 C361 1.398 . S
C362 C363 1.391 . S
C363 H351 0.950 . S
C363 C359 1.393 . S
C363 C362 1.391 . S
H364 C372 0.950 . S
H365 C377 0.950 . S
H366 C374 0.950 . S
H367 C376 0.950 . S
H368 C378 0.950 . S
H369 C380 0.950 . S
H370 C382 0.950 . S
H371 C383 0.950 . S
C372 H364 0.950 . S
C372 C373 1.386 . S
C372 C374 1.391 . S
C373 C372 1.386 . S
C373 C377 1.393 . S
C374 H366 0.950 . S
C374 C372 1.391 . S
C374 C375 1.400 . S
C375 C374 1.400 . S
C375 C376 1.398 . S
C375 C381 1.491 . S
C376 H367 0.950 . S
C376 C375 1.398 . S
C376 C377 1.391 . S
C377 H365 0.950 . S
C377 C373 1.393 . S
C377 C376 1.391 . S
C378 H368 0.950 . S
C378 C379 1.386 . S
C378 C380 1.391 . S
C379 C378 1.386 . S
C379 C383 1.393 . S
C380 H369 0.950 . S
C380 C378 1.391 . S
C380 C381 1.400 . S
C381 C375 1.491 . S
C381 C380 1.400 . S
C381 C382 1.398 . S
C382 H370 0.950 . S
C382 C381 1.398 . S
C382 C383 1.391 . S
C383 H371 0.950 . S
C383 C379 1.393 . S
C383 C382 1.391 . S
H384 C392 0.950 . S
H385 C397 0.950 . S
H386 C394 0.950 . S
H387 C396 0.950 . S
H388 C398 0.950 . S
H389 C400 0.950 . S
H390 C402 0.950 . S
H391 C403 0.950 . S
C392 H384 0.950 . S
C392 C393 1.386 . S
C392 C394 1.391 . S
C393 C392 1.386 . S
C393 C397 1.393 . S
C394 H386 0.950 . S
C394 C392 1.391 . S
C394 C395 1.400 . S
C395 C394 1.400 . S
C395 C396 1.398 . S
C395 C401 1.491 1_556 S
C396 H387 0.950 . S
C396 C395 1.398 . S
C396 C397 1.391 . S
C397 H385 0.950 . S
C397 C393 1.393 . S
C397 C396 1.391 . S
C398 H388 0.950 . S
C398 C399 1.386 . S
C398 C400 1.391 . S
C399 C398 1.386 . S
C399 C403 1.393 . S
C400 H389 0.950 . S
C400 C398 1.391 . S
C400 C401 1.400 . S
C401 C395 1.491 1_554 S
C401 C400 1.400 . S
C401 C402 1.398 . S
C402 H390 0.950 . S
C402 C401 1.398 . S
C402 C403 1.391 . S
C403 H391 0.950 . S
C403 C399 1.393 . S
C403 C402 1.391 . S
H404 C412 0.950 . S
H405 C417 0.950 . S
H406 C414 0.950 . S
H407 C416 0.950 . S
H408 C418 0.950 . S
H409 C420 0.950 . S
H410 C422 0.950 . S
H411 C423 0.950 . S
C412 H404 0.950 . S
C412 C413 1.386 . S
C412 C414 1.391 . S
C413 C412 1.386 . S
C413 C417 1.393 . S
C414 H406 0.950 . S
C414 C412 1.391 . S
C414 C415 1.400 . S
C415 C414 1.400 . S
C415 C416 1.398 . S
C415 C421 1.491 . S
C416 H407 0.950 . S
C416 C415 1.398 . S
C416 C417 1.391 . S
C417 H405 0.950 . S
C417 C413 1.393 . S
C417 C416 1.391 . S
C418 H408 0.950 . S
C418 C419 1.386 . S
C418 C420 1.391 . S
C419 C418 1.386 . S
C419 C423 1.393 . S
C420 H409 0.950 . S
C420 C418 1.391 . S
C420 C421 1.400 . S
C421 C415 1.491 . S
C421 C420 1.400 . S
C421 C422 1.398 . S
C422 H410 0.950 . S
C422 C421 1.398 . S
C422 C423 1.391 . S
C423 H411 0.950 . S
C423 C419 1.393 . S
C423 C422 1.391 . S
H424 C432 0.950 . S
H425 C437 0.950 . S
H426 C434 0.950 1_554 S
H427 C436 0.978 . S
H428 C438 0.950 . S
H429 C440 0.950 1_556 S
H430 C442 0.978 . S
H431 C443 0.950 . S
C432 H424 0.950 . S
C432 C433 1.386 . S
C432 C434 1.391 . S
C433 C432 1.386 . S
C433 C437 1.393 . S
C434 H426 0.950 1_556 S
C434 C432 1.391 . S
C434 C435 1.400 . S
C435 C434 1.400 . S
C435 C436 1.398 . S
C435 C441 1.491 1_546 S
C436 H427 0.978 . S
C436 C435 1.398 . S
C436 C437 1.391 . S
C437 H425 0.950 . S
C437 C433 1.393 . S
C437 C436 1.391 . S
C438 H428 0.950 . S
C438 C439 1.386 . S
C438 C440 1.391 . S
C439 C438 1.386 . S
C439 C443 1.393 . S
C440 H429 0.950 1_554 S
C440 C438 1.391 . S
C440 C441 1.400 . S
C441 C435 1.491 1_564 S
C441 C440 1.400 . S
C441 C442 1.398 . S
C442 H430 0.978 . S
C442 C441 1.398 . S
C442 C443 1.391 . S
C443 H431 0.950 . S
C443 C439 1.393 . S
C443 C442 1.391 . S
H444 C452 0.950 . S
H445 C457 0.950 . S
H446 C454 0.950 . S
H447 C456 0.950 . S
H448 C458 0.950 . S
H449 C460 0.950 . S
H450 C462 0.950 . S
H451 C463 0.950 . S
C452 H444 0.950 . S
C452 C453 1.386 . S
C452 C454 1.391 . S
C453 C452 1.386 . S
C453 C457 1.393 . S
C454 H446 0.950 . S
C454 C452 1.391 . S
C454 C455 1.400 . S
C455 C454 1.400 . S
C455 C456 1.398 . S
C455 C461 1.491 1_545 S
C456 H447 0.950 . S
C456 C455 1.398 . S
C456 C457 1.391 . S
C457 H445 0.950 . S
C457 C453 1.393 . S
C457 C456 1.391 . S
C458 H448 0.950 . S
C458 C459 1.386 . S
C458 C460 1.391 . S
C459 C458 1.386 . S
C459 C463 1.393 . S
C460 H449 0.950 . S
C460 C458 1.391 . S
C460 C461 1.400 . S
C461 C455 1.491 1_565 S
C461 C460 1.400 . S
C461 C462 1.398 . S
C462 H450 0.950 . S
C462 C461 1.398 . S
C462 C463 1.391 . S
C463 H451 0.950 . S
C463 C459 1.393 . S
C463 C462 1.391 . S
H464 C472 0.950 . S
H465 C477 0.950 . S
H466 C474 0.950 . S
H467 C476 0.950 1_565 S
H468 C478 0.950 . S
H469 C480 0.950 . S
H470 C482 0.950 1_545 S
H471 C483 0.950 . S
C472 H464 0.950 . S
C472 C473 1.386 . S
C472 C474 1.391 1_556 S
C473 C472 1.386 . S
C473 C477 1.393 . S
C474 H466 0.950 . S
C474 C472 1.391 1_554 S
C474 C475 1.400 1_554 S
C475 C474 1.400 1_556 S
C475 C476 1.398 . S
C475 C481 1.491 1_546 S
C476 H467 0.950 1_545 S
C476 C475 1.398 . S
C476 C477 1.391 . S
C477 H465 0.950 . S
C477 C473 1.393 . S
C477 C476 1.391 . S
C478 H468 0.950 . S
C478 C479 1.386 . S
C478 C480 1.391 1_554 S
C479 C478 1.386 . S
C479 C483 1.393 . S
C480 H469 0.950 . S
C480 C478 1.391 1_556 S
C480 C481 1.400 1_556 S
C481 C475 1.491 1_564 S
C481 C480 1.400 1_554 S
C481 C482 1.398 . S
C482 H470 0.950 1_565 S
C482 C481 1.398 . S
C482 C483 1.391 . S
C483 H471 0.950 . S
C483 C479 1.393 . S
C483 C482 1.391 . S
H484 C492 0.950 . S
H485 C497 0.950 . S
H486 C494 0.950 1_565 S
H487 C496 0.950 . S
H488 C498 0.950 . S
H489 C500 0.950 1_545 S
H490 C502 0.950 . S
H491 C503 0.950 . S
C492 H484 0.950 . S
C492 C493 1.386 . S
C492 C494 1.391 . S
C493 C492 1.386 . S
C493 C497 1.393 . S
C494 H486 0.950 1_545 S
C494 C492 1.391 . S
C494 C495 1.400 . S
C495 C494 1.400 . S
C495 C496 1.398 . S
C495 C501 1.491 1_545 S
C496 H487 0.950 . S
C496 C495 1.398 . S
C496 C497 1.391 . S
C497 H485 0.950 . S
C497 C493 1.393 . S
C497 C496 1.391 . S
C498 H488 0.950 . S
C498 C499 1.386 . S
C498 C500 1.391 . S
C499 C498 1.386 . S
C499 C503 1.393 . S
C500 H489 0.950 1_565 S
C500 C498 1.391 . S
C500 C501 1.400 . S
C501 C495 1.491 1_565 S
C501 C500 1.400 . S
C501 C502 1.398 . S
C502 H490 0.950 . S
C502 C501 1.398 . S
C502 C503 1.391 . S
C503 H491 0.950 . S
C503 C499 1.393 . S
C503 C502 1.391 . S
H504 C512 0.950 . S
H505 C517 0.950 . S
H506 C514 0.950 . S
H507 C516 0.950 . S
H508 C518 0.950 . S
H509 C520 0.949 1_556 S
H510 C522 0.950 . S
H511 C523 0.950 . S
C512 H504 0.950 . S
C512 C513 1.386 . S
C512 C514 1.391 . S
C513 C512 1.386 . S
C513 C517 1.393 . S
C514 H506 0.950 . S
C514 C512 1.391 . S
C514 C515 1.400 . S
C515 C514 1.400 . S
C515 C516 1.398 . S
C515 C521 1.491 . S
C516 H507 0.950 . S
C516 C515 1.398 . S
C516 C517 1.391 . S
C517 H505 0.950 . S
C517 C513 1.393 . S
C517 C516 1.391 . S
C518 H508 0.950 . S
C518 C519 1.386 . S
C518 C520 1.391 1_556 S
C519 C518 1.386 . S
C519 C523 1.393 1_556 S
C520 H509 0.949 1_554 S
C520 C518 1.391 1_554 S
C520 C521 1.400 . S
C521 C515 1.491 . S
C521 C520 1.400 . S
C521 C522 1.398 . S
C522 H510 0.950 . S
C522 C521 1.398 . S
C522 C523 1.391 . S
C523 H511 0.950 . S
C523 C519 1.393 1_554 S
C523 C522 1.391 . S
H524 C532 0.950 . S
H525 C537 0.950 . S
H526 C534 0.950 . S
H527 C536 0.950 . S
H528 C538 0.950 . S
H529 C540 0.950 . S
H530 C542 0.950 . S
H531 C543 0.950 . S
C532 H524 0.950 . S
C532 C533 1.386 . S
C532 C534 1.391 . S
C533 C532 1.386 . S
C533 C537 1.393 . S
C534 H526 0.950 . S
C534 C532 1.391 . S
C534 C535 1.400 . S
C535 C534 1.400 . S
C535 C536 1.398 . S
C535 C541 1.491 . S
C536 H527 0.950 . S
C536 C535 1.398 . S
C536 C537 1.391 . S
C537 H525 0.950 . S
C537 C533 1.393 . S
C537 C536 1.391 . S
C538 H528 0.950 . S
C538 C539 1.386 . S
C538 C540 1.391 . S
C539 C538 1.386 . S
C539 C543 1.393 . S
C540 H529 0.950 . S
C540 C538 1.391 . S
C540 C541 1.400 . S
C541 C535 1.491 . S
C541 C540 1.400 . S
C541 C542 1.398 . S
C542 H530 0.950 . S
C542 C541 1.398 . S
C542 C543 1.391 . S
C543 H531 0.950 . S
C543 C539 1.393 . S
C543 C542 1.391 . S
H544 C552 0.950 . S
H545 C557 0.950 . S
H546 C554 0.950 . S
H547 C556 0.950 . S
H548 C558 0.950 . S
H549 C560 0.950 . S
H550 C562 0.950 . S
H551 C563 0.950 . S
C552 H544 0.950 . S
C552 C553 1.386 . S
C552 C554 1.391 1_554 S
C553 C552 1.386 . S
C553 C557 1.393 . S
C554 H546 0.950 . S
C554 C552 1.391 1_556 S
C554 C555 1.400 . S
C555 C554 1.400 . S
C555 C556 1.398 . S
C555 C561 1.491 . S
C556 H547 0.950 . S
C556 C555 1.398 . S
C556 C557 1.391 1_556 S
C557 H545 0.950 . S
C557 C553 1.393 . S
C557 C556 1.391 1_554 S
C558 H548 0.950 . S
C558 C559 1.386 . S
C558 C560 1.391 . S
C559 C558 1.386 . S
C559 C563 1.393 . S
C560 H549 0.950 . S
C560 C558 1.391 . S
C560 C561 1.400 . S
C561 C555 1.491 . S
C561 C560 1.400 . S
C561 C562 1.398 . S
C562 H550 0.950 . S
C562 C561 1.398 . S
C562 C563 1.391 . S
C563 H551 0.950 . S
C563 C559 1.393 . S
C563 C562 1.391 . S
H564 C572 0.950 . S
H565 C577 0.950 . S
H566 C574 0.950 . S
H567 C576 0.950 . S
H568 C578 0.950 . S
H569 C580 0.950 . S
H570 C582 0.950 . S
H571 C583 0.950 . S
C572 H564 0.950 . S
C572 C573 1.386 . S
C572 C574 1.391 . S
C573 C572 1.386 . S
C573 C577 1.393 . S
C574 H566 0.950 . S
C574 C572 1.391 . S
C574 C575 1.400 . S
C575 C574 1.400 . S
C575 C576 1.398 . S
C575 C581 1.491 . S
C576 H567 0.950 . S
C576 C575 1.398 . S
C576 C577 1.391 . S
C577 H565 0.950 . S
C577 C573 1.393 . S
C577 C576 1.391 . S
C578 H568 0.950 . S
C578 C579 1.386 . S
C578 C580 1.391 . S
C579 C578 1.386 . S
C579 C583 1.393 . S
C580 H569 0.950 . S
C580 C578 1.391 . S
C580 C581 1.400 . S
C581 C575 1.491 . S
C581 C580 1.400 . S
C581 C582 1.398 . S
C582 H570 0.950 . S
C582 C581 1.398 . S
C582 C583 1.391 . S
C583 H571 0.950 . S
C583 C579 1.393 . S
C583 C582 1.391 . S
H584 C592 0.950 . S
H585 C597 0.950 . S
H586 C594 0.950 . S
H587 C596 0.950 . S
H588 C598 0.950 . S
H589 C600 0.950 . S
H590 C602 0.950 . S
H591 C603 0.950 . S
C592 H584 0.950 . S
C592 C593 1.386 . S
C592 C594 1.391 1_556 S
C593 C592 1.386 . S
C593 C597 1.393 . S
C594 H586 0.950 . S
C594 C592 1.391 1_554 S
C594 C595 1.400 . S
C595 C594 1.400 . S
C595 C596 1.398 . S
C595 C601 1.491 . S
C596 H587 0.950 . S
C596 C595 1.398 . S
C596 C597 1.391 1_554 S
C597 H585 0.950 . S
C597 C593 1.393 . S
C597 C596 1.391 1_556 S
C598 H588 0.950 . S
C598 C599 1.386 . S
C598 C600 1.391 . S
C599 C598 1.386 . S
C599 C603 1.393 . S
C600 H589 0.950 . S
C600 C598 1.391 . S
C600 C601 1.400 . S
C601 C595 1.491 . S
C601 C600 1.400 . S
C601 C602 1.398 . S
C602 H590 0.950 . S
C602 C601 1.398 . S
C602 C603 1.391 . S
C603 H591 0.950 . S
C603 C599 1.393 . S
C603 C602 1.391 . S
H604 C612 0.950 . S
H605 C617 0.950 . S
H606 C614 0.950 . S
H607 C616 0.950 . S
H608 C618 0.950 . S
H609 C620 0.950 . S
H610 C622 0.950 . S
H611 C623 0.950 . S
C612 H604 0.950 . S
C612 C613 1.386 . S
C612 C614 1.391 . S
C613 C612 1.386 . S
C613 C617 1.393 . S
C614 H606 0.950 . S
C614 C612 1.391 . S
C614 C615 1.400 . S
C615 C614 1.400 . S
C615 C616 1.398 . S
C615 C621 1.491 . S
C616 H607 0.950 . S
C616 C615 1.398 . S
C616 C617 1.391 . S
C617 H605 0.950 . S
C617 C613 1.393 . S
C617 C616 1.391 . S
C618 H608 0.950 . S
C618 C619 1.386 . S
C618 C620 1.391 . S
C619 C618 1.386 . S
C619 C623 1.393 . S
C620 H609 0.950 . S
C620 C618 1.391 . S
C620 C621 1.400 . S
C621 C615 1.491 . S
C621 C620 1.400 . S
C621 C622 1.398 . S
C622 H610 0.950 . S
C622 C621 1.398 . S
C622 C623 1.391 . S
C623 H611 0.950 . S
C623 C619 1.393 . S
C623 C622 1.391 . S
H624 C632 0.950 . S
H625 C637 0.950 . S
H626 C634 0.950 . S
H627 C636 0.950 . S
H628 C638 0.950 . S
H629 C640 0.950 . S
H630 C642 0.950 . S
H631 C643 0.950 . S
C632 H624 0.950 . S
C632 C633 1.386 . S
C632 C634 1.391 . S
C633 C632 1.386 . S
C633 C637 1.393 . S
C634 H626 0.950 . S
C634 C632 1.391 . S
C634 C635 1.400 . S
C635 C634 1.400 . S
C635 C636 1.398 . S
C635 C641 1.491 . S
C636 H627 0.950 . S
C636 C635 1.398 . S
C636 C637 1.391 . S
C637 H625 0.950 . S
C637 C633 1.393 . S
C637 C636 1.391 . S
C638 H628 0.950 . S
C638 C639 1.386 . S
C638 C640 1.394 . S
C639 C638 1.386 . S
C639 C643 1.393 1_554 S
C640 H629 0.950 . S
C640 C638 1.394 . S
C640 C641 1.397 1_554 S
C641 C635 1.491 . S
C641 C640 1.397 1_556 S
C641 C642 1.398 . S
C642 H630 0.950 . S
C642 C641 1.398 . S
C642 C643 1.391 . S
C643 H631 0.950 . S
C643 C639 1.393 1_556 S
C643 C642 1.391 . S
H644 C652 0.950 . S
H645 C657 0.950 . S
H646 C654 0.950 . S
H647 C656 0.950 . S
H648 C658 0.950 . S
H649 C660 0.950 . S
H650 C662 0.950 . S
H651 C663 0.950 . S
C652 H644 0.950 . S
C652 C653 1.386 . S
C652 C654 1.391 . S
C653 C652 1.386 . S
C653 C657 1.393 . S
C654 H646 0.950 . S
C654 C652 1.391 . S
C654 C655 1.400 . S
C655 C654 1.400 . S
C655 C656 1.398 . S
C655 C661 1.491 . S
C656 H647 0.950 . S
C656 C655 1.398 . S
C656 C657 1.391 . S
C657 H645 0.950 . S
C657 C653 1.393 . S
C657 C656 1.391 . S
C658 H648 0.950 . S
C658 C659 1.386 . S
C658 C660 1.391 . S
C659 C658 1.386 . S
C659 C663 1.393 . S
C660 H649 0.950 . S
C660 C658 1.391 . S
C660 C661 1.400 . S
C661 C655 1.491 . S
C661 C660 1.400 . S
C661 C662 1.398 . S
C662 H650 0.950 . S
C662 C661 1.398 . S
C662 C663 1.391 . S
C663 H651 0.950 . S
C663 C659 1.393 . S
C663 C662 1.391 . S
C273 C21 1.501 . S
C279 C120 1.501 . S
C293 C54 1.495 . S
C299 C87 1.502 . S
C313 C252 1.502 . S
C319 C153 1.495 . S
C333 C186 1.496 . S
C339 C219 1.502 . S
C353 N68 1.122 . S
C359 N2 1.118 . S
C373 N101 1.105 . S
C379 N35 1.120 . S
C393 C40 1.553 . S
C399 C106 1.545 . S
C413 C7 1.548 . S
C419 C73 1.549 . S
C433 N200 1.089 . S
C439 N134 1.099 . S
C453 N167 1.118 . S
C459 N233 1.122 . S
C473 C172 1.543 . S
C479 C238 1.558 . S
C493 C205 1.562 . S
C499 C139 1.543 . S
C513 C18 1.392 . S
C519 N178 1.359 . S
C533 C51 1.388 . S
C539 N145 1.382 . S
C553 N244 1.377 . S
C559 C84 1.396 . S
C573 C117 1.392 . S
C579 N211 1.381 . S
C593 N46 1.379 . S
C599 C150 1.395 . S
C613 C183 1.385 . S
C619 N13 1.379 . S
C633 C216 1.398 . S
C639 N112 1.373 . S
C653 C249 1.395 . S
C659 N79 1.359 . S
