# Generated by pormake.
# Topology neb, (4)-cn, num edge types: 1
# Building blocks:
#     Node 0, Type 0, BuildingBlock: KUFVIS_clean_sbu_0, # of connection points: 4
#     Node 1, Type 0, BuildingBlock: KUFVIS_clean_sbu_0, # of connection points: 4
#     Node 2, Type 0, BuildingBlock: KUFVIS_clean_sbu_0, # of connection points: 4
#     Node 3, Type 0, BuildingBlock: KUFVIS_clean_sbu_0, # of connection points: 4
#     Node 4, Type 0, BuildingBlock: KUFVIS_clean_sbu_0, # of connection points: 4
#     Node 5, Type 0, BuildingBlock: KUFVIS_clean_sbu_0, # of connection points: 4
#     Node 6, Type 0, BuildingBlock: KUFVIS_clean_sbu_0, # of connection points: 4
#     Node 7, Type 0, BuildingBlock: KUFVIS_clean_sbu_0, # of connection points: 4
#     Node 8, Type 0, BuildingBlock: KUFVIS_clean_sbu_0, # of connection points: 4
#     Node 9, Type 0, BuildingBlock: KUFVIS_clean_sbu_0, # of connection points: 4
#     Node 10, Type 0, BuildingBlock: KUFVIS_clean_sbu_0, # of connection points: 4
#     Node 11, Type 0, BuildingBlock: KUFVIS_clean_sbu_0, # of connection points: 4
#     Node 12, Type 0, BuildingBlock: KUFVIS_clean_sbu_0, # of connection points: 4
#     Node 13, Type 0, BuildingBlock: KUFVIS_clean_sbu_0, # of connection points: 4
#     Node 14, Type 0, BuildingBlock: KUFVIS_clean_sbu_0, # of connection points: 4
#     Node 15, Type 0, BuildingBlock: KUFVIS_clean_sbu_0, # of connection points: 4
#     Edge 16, Type (0, 0), BuildingBlock: XIVTED_clean_linker_0, # of connection points: 2
#     Edge 17, Type (0, 0), BuildingBlock: XIVTED_clean_linker_0, # of connection points: 2
#     Edge 18, Type (0, 0), BuildingBlock: XIVTED_clean_linker_0, # of connection points: 2
#     Edge 19, Type (0, 0), BuildingBlock: XIVTED_clean_linker_0, # of connection points: 2
#     Edge 20, Type (0, 0), BuildingBlock: XIVTED_clean_linker_0, # of connection points: 2
#     Edge 21, Type (0, 0), BuildingBlock: XIVTED_clean_linker_0, # of connection points: 2
#     Edge 22, Type (0, 0), BuildingBlock: XIVTED_clean_linker_0, # of connection points: 2
#     Edge 23, Type (0, 0), BuildingBlock: XIVTED_clean_linker_0, # of connection points: 2
#     Edge 24, Type (0, 0), BuildingBlock: XIVTED_clean_linker_0, # of connection points: 2
#     Edge 25, Type (0, 0), BuildingBlock: XIVTED_clean_linker_0, # of connection points: 2
#     Edge 26, Type (0, 0), BuildingBlock: XIVTED_clean_linker_0, # of connection points: 2
#     Edge 27, Type (0, 0), BuildingBlock: XIVTED_clean_linker_0, # of connection points: 2
#     Edge 28, Type (0, 0), BuildingBlock: XIVTED_clean_linker_0, # of connection points: 2
#     Edge 29, Type (0, 0), BuildingBlock: XIVTED_clean_linker_0, # of connection points: 2
#     Edge 30, Type (0, 0), BuildingBlock: XIVTED_clean_linker_0, # of connection points: 2
#     Edge 31, Type (0, 0), BuildingBlock: XIVTED_clean_linker_0, # of connection points: 2
#     Edge 32, Type (0, 0), BuildingBlock: XIVTED_clean_linker_0, # of connection points: 2
#     Edge 33, Type (0, 0), BuildingBlock: XIVTED_clean_linker_0, # of connection points: 2
#     Edge 34, Type (0, 0), BuildingBlock: XIVTED_clean_linker_0, # of connection points: 2
#     Edge 35, Type (0, 0), BuildingBlock: XIVTED_clean_linker_0, # of connection points: 2
#     Edge 36, Type (0, 0), BuildingBlock: XIVTED_clean_linker_0, # of connection points: 2
#     Edge 37, Type (0, 0), BuildingBlock: XIVTED_clean_linker_0, # of connection points: 2
#     Edge 38, Type (0, 0), BuildingBlock: XIVTED_clean_linker_0, # of connection points: 2
#     Edge 39, Type (0, 0), BuildingBlock: XIVTED_clean_linker_0, # of connection points: 2
#     Edge 40, Type (0, 0), BuildingBlock: XIVTED_clean_linker_0, # of connection points: 2
#     Edge 41, Type (0, 0), BuildingBlock: XIVTED_clean_linker_0, # of connection points: 2
#     Edge 42, Type (0, 0), BuildingBlock: XIVTED_clean_linker_0, # of connection points: 2
#     Edge 43, Type (0, 0), BuildingBlock: XIVTED_clean_linker_0, # of connection points: 2
#     Edge 44, Type (0, 0), BuildingBlock: XIVTED_clean_linker_0, # of connection points: 2
#     Edge 45, Type (0, 0), BuildingBlock: XIVTED_clean_linker_0, # of connection points: 2
#     Edge 46, Type (0, 0), BuildingBlock: XIVTED_clean_linker_0, # of connection points: 2
#     Edge 47, Type (0, 0), BuildingBlock: XIVTED_clean_linker_0, # of connection points: 2
# Relax obj value: 0.012
# Max RMSD: 0.059
# Mean RMSD: 0.059
data_MOF--net-neb--node1-KUFVIS_clean_sbu_0--edge1-XIVTED_clean_linker_0
_symmetry_space_group_name_H-M    P1
_symmetry_Int_Tables_number       1
_symmetry_cell_setting            triclinic
loop_
_symmetry_equiv_pos_as_xyz
'x, y, z'
_cell_length_a     41.515179
_cell_length_b     23.074002
_cell_length_c     76.248441
_cell_angle_alpha  93.787641
_cell_angle_beta   89.936025
_cell_angle_gamma 89.947324
loop_
_atom_site_label
_atom_site_type_symbol
_atom_site_fract_x
_atom_site_fract_y
_atom_site_fract_z
_atom_type_partial_charge
Mn0 Mn 0.12908 0.12088 0.44071 0.0
Mn1 Mn 0.19554 0.12446 0.4151 0.0
C2 C 0.13447 0.05776 0.41597 0.0
C3 C 0.09869 0.08598 0.46361 0.0
C4 C 0.14161 0.21179 0.414 0.0
O5 O 0.16146 0.16316 0.45715 0.0
O6 O 0.20384 0.16386 0.43862 0.0
C7 C 0.23943 0.05152 0.43492 0.0
N8 N 0.22415 0.06245 0.41968 0.0
C9 C 0.25372 0.9867 0.40358 0.0
C10 C 0.26989 0.97471 0.41907 0.0
C11 C 0.2625 0.00695 0.43484 0.0
C12 C 0.23067 0.031 0.40451 0.0
H13 H 0.23428 0.07694 0.447 0.0
C14 C 0.19068 0.17581 0.45365 0.0
O15 O 0.09272 0.13598 0.45747 0.0
O16 O 0.12348 0.05767 0.45713 0.0
N17 N 0.19128 0.08709 0.39209 0.0
C18 C 0.17218 0.1018 0.37856 0.0
C19 C 0.17498 0.07101 0.36212 0.0
C20 C 0.19789 0.02639 0.35966 0.0
C21 C 0.21753 0.01258 0.37374 0.0
C22 C 0.21319 0.04395 0.38991 0.0
H23 H 0.15483 0.13648 0.38033 0.0
O24 O 0.10617 0.07172 0.42217 0.0
O25 O 0.15893 0.08172 0.42422 0.0
O26 O 0.12461 0.19259 0.42624 0.0
O27 O 0.16823 0.1894 0.40879 0.0
C28 C 0.24134 0.96911 0.37236 0.0
C29 C 0.25969 0.95664 0.38723 0.0
H30 H 0.28791 0.94071 0.41902 0.0
H31 H 0.27482 -0.00208 0.44686 0.0
H32 H 0.15972 0.08199 0.35132 0.0
H33 H 0.20017 0.003 0.34693 0.0
H34 H 0.24573 0.9453 0.35988 0.0
H35 H 0.27829 0.92375 0.38602 0.0
Mn36 Mn 0.12628 0.12797 0.81393 0.0
Mn37 Mn 0.19445 0.13891 0.83805 0.0
C38 C 0.13052 0.19747 0.83708 0.0
C39 C 0.09408 0.15421 0.79059 0.0
C40 C 0.14393 0.04675 0.84272 0.0
O41 O 0.15887 0.08431 0.79794 0.0
O42 O 0.20277 0.09499 0.81519 0.0
C43 C 0.23356 0.21166 0.81559 0.0
N44 N 0.22002 0.20261 0.83146 0.0
C45 C 0.2476 0.28502 0.84526 0.0
C46 C 0.26198 0.29516 0.8291 0.0
C47 C 0.2547 0.2586 0.81416 0.0
C48 C 0.22641 0.23813 0.84583 0.0
H49 H 0.2285 0.183 0.80416 0.0
C50 C 0.18885 0.07674 0.80089 0.0
O51 O 0.08953 0.1058 0.79801 0.0
O52 O 0.1184 0.1856 0.79608 0.0
N53 N 0.19033 0.18099 0.86039 0.0
C54 C 0.17264 0.1678 0.87466 0.0
C55 C 0.17558 0.20236 0.89043 0.0
C56 C 0.19706 0.24943 0.89145 0.0
C57 C 0.21501 0.26204 0.87659 0.0
C58 C 0.21069 0.22666 0.86116 0.0
H59 H 0.15607 0.13178 0.87392 0.0
O60 O 0.10254 0.17925 0.83157 0.0
O61 O 0.15547 0.17452 0.82894 0.0
O62 O 0.12503 0.06086 0.83051 0.0
O63 O 0.17027 0.07307 0.84637 0.0
C64 C 0.23705 0.30825 0.87648 0.0
C65 C 0.25357 0.31941 0.86085 0.0
H66 H 0.27852 0.33103 0.82799 0.0
H67 H 0.26564 0.26618 0.80163 0.0
H68 H 0.16144 0.19257 0.90179 0.0
H69 H 0.19944 0.27579 0.90367 0.0
H70 H 0.24145 0.33521 0.88838 0.0
H71 H 0.27082 0.3545 0.8609 0.0
Mn72 Mn 0.90636 0.85379 0.56079 0.0
Mn73 Mn 0.83938 0.84785 0.58588 0.0
C74 C 0.9005 0.91412 0.58614 0.0
C75 C 0.93736 0.89083 0.53847 0.0
C76 C 0.89299 0.75982 0.58637 0.0
O77 O 0.87422 0.81351 0.54373 0.0
O78 O 0.83156 0.81139 0.562 0.0
C79 C 0.796 0.92335 0.56666 0.0
N80 N 0.81106 0.91072 0.5818 0.0
C81 C 0.78053 0.98347 0.5986 0.0
C82 C 0.76459 -0.00276 0.58321 0.0
C83 C 0.77261 0.96744 0.56713 0.0
C84 C 0.8041 0.94011 0.59725 0.0
H85 H 0.8015 0.89954 0.55435 0.0
C86 C 0.84488 0.80088 0.54697 0.0
O87 O 0.94304 0.84011 0.54418 0.0
O88 O 0.91256 0.91885 0.54507 0.0
N89 N 0.84323 0.88244 0.60926 0.0
C90 C 0.86177 0.86557 0.62275 0.0
C91 C 0.8583 0.89385 0.63953 0.0
C92 C 0.83518 0.93797 0.64235 0.0
C93 C 0.81606 0.95389 0.6283 0.0
C94 C 0.82123 0.9253 0.61178 0.0
H95 H 0.87913 0.83099 0.62071 0.0
O96 O 0.92892 0.90086 0.57999 0.0
O97 O 0.87624 0.89134 0.57746 0.0
O98 O 0.91038 0.78038 0.57452 0.0
O99 O 0.86631 0.78182 0.59161 0.0
C100 C 0.79172 -0.00366 0.63007 0.0
C101 C 0.77366 0.01052 0.61526 0.0
H102 H 0.74621 0.03066 0.58358 0.0
H103 H 0.76044 0.9778 0.55519 0.0
H104 H 0.87311 0.88116 0.6503 0.0
H105 H 0.83223 0.95917 0.65535 0.0
H106 H 0.78657 0.01786 0.64281 0.0
H107 H 0.75456 0.04239 0.61677 0.0
Mn108 Mn 0.90119 0.87002 0.19268 0.0
Mn109 Mn 0.83459 0.87494 0.16736 0.0
C110 C 0.89583 0.80896 0.16748 0.0
C111 C 0.93202 0.83392 0.21519 0.0
C112 C 0.88797 0.96324 0.16683 0.0
O113 O 0.86873 0.91099 0.20952 0.0
O114 O 0.82623 0.91188 0.19114 0.0
C115 C 0.79125 0.79921 0.18653 0.0
N116 N 0.80656 0.81172 0.17143 0.0
C117 C 0.77714 0.73753 0.15467 0.0
C118 C 0.76097 0.72385 0.17001 0.0
C119 C 0.7683 0.75446 0.18605 0.0
C120 C 0.80026 0.78159 0.15603 0.0
H121 H 0.79623 0.82361 0.1988 0.0
C122 C 0.8394 0.92332 0.20616 0.0
O123 O 0.93759 0.88445 0.20933 0.0
O124 O 0.90731 0.80557 0.20868 0.0
N125 N 0.83907 0.84001 0.14406 0.0
C126 C 0.85761 0.8572 0.13059 0.0
C127 C 0.85469 0.82848 0.11386 0.0
C128 C 0.83211 0.78355 0.11104 0.0
C129 C 0.81295 0.76734 0.12506 0.0
C130 C 0.81756 0.79645 0.14154 0.0
H131 H 0.87456 0.89239 0.13262 0.0
O132 O 0.92413 0.82237 0.17371 0.0
O133 O 0.87141 0.83194 0.17602 0.0
O134 O 0.90534 0.94283 0.1787 0.0
O135 O 0.8613 0.94123 0.16164 0.0
C136 C 0.78909 0.72415 0.12327 0.0
C137 C 0.77091 0.70977 0.13803 0.0
H138 H 0.74292 0.68991 0.16963 0.0
H139 H 0.75594 0.74418 0.19795 0.0
H140 H 0.86951 0.84142 0.1031 0.0
H141 H 0.82959 0.76198 0.09806 0.0
H142 H 0.78438 0.70229 0.11054 0.0
H143 H 0.75214 0.67734 0.1365 0.0
Mn144 Mn 0.12509 0.61945 0.94183 0.0
Mn145 Mn 0.19049 0.62223 0.91542 0.0
C146 C 0.12946 0.55585 0.91714 0.0
C147 C 0.09524 0.58555 0.96509 0.0
C148 C 0.13649 0.70932 0.9146 0.0
O149 O 0.15807 0.66172 0.95785 0.0
O150 O 0.19941 0.66302 0.93867 0.0
C151 C 0.23519 0.55086 0.93526 0.0
N152 N 0.21951 0.56091 0.92007 0.0
C153 C 0.24923 0.48521 0.90404 0.0
C154 C 0.2658 0.47412 0.91948 0.0
C155 C 0.25853 0.50676 0.93519 0.0
C156 C 0.22589 0.52903 0.90496 0.0
H157 H 0.23014 0.57661 0.94729 0.0
C158 C 0.18697 0.67499 0.95388 0.0
O159 O 0.08937 0.63546 0.95888 0.0
O160 O 0.1197 0.5566 0.95846 0.0
N161 N 0.18575 0.58364 0.89261 0.0
C162 C 0.1662 0.59733 0.87915 0.0
C163 C 0.16887 0.56608 0.86278 0.0
C164 C 0.19213 0.52207 0.86031 0.0
C165 C 0.21221 0.50925 0.87432 0.0
C166 C 0.20797 0.54102 0.89042 0.0
H167 H 0.14859 0.63155 0.88095 0.0
O168 O 0.10143 0.57028 0.92361 0.0
O169 O 0.1543 0.57964 0.92508 0.0
O170 O 0.1203 0.69102 0.9273 0.0
O171 O 0.1627 0.68635 0.909 0.0
C172 C 0.23635 0.46639 0.87292 0.0
C173 C 0.25506 0.45475 0.88774 0.0
H174 H 0.28404 0.44051 0.91943 0.0
H175 H 0.27118 0.49843 0.94718 0.0
H176 H 0.15326 0.57627 0.85205 0.0
H177 H 0.19433 0.49834 0.84762 0.0
H178 H 0.2407 0.44241 0.86046 0.0
H179 H 0.27382 0.42214 0.88653 0.0
Mn180 Mn 0.13274 0.6297 0.31288 0.0
Mn181 Mn 0.20124 0.64014 0.33675 0.0
C182 C 0.13763 0.69962 0.33593 0.0
C183 C 0.10039 0.65658 0.28966 0.0
C184 C 0.15059 0.54817 0.34152 0.0
O185 O 0.16509 0.58551 0.29681 0.0
O186 O 0.20933 0.59673 0.3138 0.0
C187 C 0.24021 0.71351 0.3144 0.0
N188 N 0.22677 0.70405 0.33026 0.0
C189 C 0.25387 0.78692 0.34412 0.0
C190 C 0.26814 0.7975 0.32796 0.0
C191 C 0.26107 0.76087 0.31301 0.0
C192 C 0.23304 0.7395 0.34467 0.0
H193 H 0.23525 0.68489 0.30294 0.0
C194 C 0.19516 0.57825 0.2996 0.0
O195 O 0.09561 0.60825 0.29708 0.0
O196 O 0.12503 0.6873 0.29504 0.0
N197 N 0.19714 0.6818 0.35915 0.0
C198 C 0.17941 0.66837 0.37338 0.0
C199 C 0.18218 0.70284 0.38918 0.0
C200 C 0.20348 0.75018 0.39025 0.0
C201 C 0.22143 0.76309 0.37542 0.0
C202 C 0.21736 0.72768 0.35998 0.0
H203 H 0.16293 0.63221 0.37259 0.0
O204 O 0.10947 0.68172 0.33059 0.0
O205 O 0.16229 0.67593 0.32773 0.0
O206 O 0.13137 0.56276 0.32952 0.0
O207 O 0.17714 0.57407 0.34496 0.0
C208 C 0.24314 0.80981 0.37533 0.0
C209 C 0.25954 0.82148 0.35972 0.0
H210 H 0.28441 0.83376 0.32687 0.0
H211 H 0.27193 0.76879 0.30048 0.0
H212 H 0.16803 0.69283 0.40051 0.0
H213 H 0.20568 0.77655 0.40248 0.0
H214 H 0.24729 0.83683 0.38725 0.0
H215 H 0.27642 0.85716 0.35978 0.0
Mn216 Mn 0.89867 0.37953 0.06519 0.0
Mn217 Mn 0.82968 0.39192 0.08864 0.0
C218 C 0.89367 0.44958 0.0882 0.0
C219 C 0.93147 0.40568 0.04201 0.0
C220 C 0.87959 0.2989 0.09387 0.0
O221 O 0.86642 0.33554 0.04904 0.0
O222 O 0.82186 0.34822 0.06577 0.0
C223 C 0.79209 0.46582 0.06583 0.0
N224 N 0.80508 0.45654 0.0818 0.0
C225 C 0.77889 0.54123 0.09519 0.0
C226 C 0.76508 0.55167 0.07891 0.0
C227 C 0.77193 0.51403 0.06414 0.0
C228 C 0.79914 0.49306 0.09602 0.0
H229 H 0.79684 0.43641 0.05451 0.0
C230 C 0.83625 0.32893 0.0517 0.0
O231 O 0.936 0.35738 0.0495 0.0
O232 O 0.90687 0.43678 0.04731 0.0
N233 N 0.83347 0.43386 0.11101 0.0
C234 C 0.84997 0.41936 0.12554 0.0
C235 C 0.84708 0.45435 0.14123 0.0
C236 C 0.82684 0.50323 0.14191 0.0
C237 C 0.80993 0.51693 0.12682 0.0
C238 C 0.81415 0.48102 0.11149 0.0
H239 H 0.86558 0.38193 0.12508 0.0
O240 O 0.92186 0.43138 0.08296 0.0
O241 O 0.8691 0.4264 0.07986 0.0
O242 O 0.89927 0.31293 0.08198 0.0
O243 O 0.85307 0.32535 0.09708 0.0
C244 C 0.7889 0.5646 0.12643 0.0
C245 C 0.77317 0.57648 0.11065 0.0
H246 H 0.74928 0.58851 0.07761 0.0
H247 H 0.76142 0.52181 0.05153 0.0
H248 H 0.86032 0.44356 0.15279 0.0
H249 H 0.82452 0.53 0.15407 0.0
H250 H 0.7846 0.59195 0.13827 0.0
H251 H 0.75659 0.61258 0.11048 0.0
Mn252 Mn 0.89731 0.34476 0.68803 0.0
Mn253 Mn 0.82992 0.33144 0.66336 0.0
C254 C 0.89388 0.27365 0.66531 0.0
C255 C 0.92871 0.32045 0.7119 0.0
C256 C 0.88038 0.42356 0.65851 0.0
O257 O 0.86414 0.38967 0.70333 0.0
O258 O 0.8207 0.37708 0.68581 0.0
C259 C 0.79075 0.25977 0.68609 0.0
N260 N 0.8047 0.26771 0.67026 0.0
C261 C 0.7795 0.18178 0.65711 0.0
C262 C 0.76471 0.17274 0.67325 0.0
C263 C 0.77056 0.2117 0.68784 0.0
C264 C 0.79966 0.23 0.65622 0.0
H265 H 0.79481 0.2901 0.69727 0.0
C266 C 0.83425 0.39687 0.70005 0.0
O267 O 0.93352 0.36824 0.70419 0.0
O268 O 0.90453 0.28872 0.7064 0.0
N269 N 0.83499 0.28773 0.64135 0.0
C270 C 0.85245 0.30087 0.62699 0.0
C271 C 0.8506 0.26449 0.61153 0.0
C272 C 0.83042 0.21561 0.61089 0.0
C273 C 0.8125 0.20332 0.62579 0.0
C274 C 0.81565 0.24066 0.6409 0.0
H275 H 0.86803 0.33829 0.62743 0.0
O276 O 0.92169 0.29221 0.67099 0.0
O277 O 0.86869 0.29715 0.67306 0.0
O278 O 0.89903 0.41025 0.67093 0.0
O279 O 0.85409 0.39702 0.65483 0.0
C280 C 0.79159 0.15555 0.62623 0.0
C281 C 0.77493 0.145 0.64186 0.0
H282 H 0.74893 0.13593 0.6746 0.0
H283 H 0.7593 0.20498 0.70035 0.0
H284 H 0.86462 0.27419 0.60011 0.0
H285 H 0.82895 0.1877 0.59892 0.0
H286 H 0.78817 0.12704 0.61456 0.0
H287 H 0.75856 0.10865 0.64209 0.0
Mn288 Mn 0.63388 0.11038 0.93928 0.0
Mn289 Mn 0.70414 0.09487 0.91717 0.0
C290 C 0.63967 0.03875 0.91669 0.0
C291 C 0.59988 0.08577 0.96213 0.0
C292 C 0.65567 0.18968 0.9109 0.0
O293 O 0.66567 0.15475 0.95574 0.0
O294 O 0.71132 0.13736 0.94023 0.0
C295 C 0.73921 0.01807 0.9402 0.0
N296 N 0.72728 0.02872 0.9241 0.0
C297 C 0.75243 0.94287 0.91079 0.0
C298 C 0.76514 0.93097 0.92721 0.0
C299 C 0.75828 0.96853 0.94201 0.0
C300 C 0.73327 -0.00761 0.90984 0.0
H301 H 0.73441 0.04738 0.95154 0.0
C302 C 0.69622 0.1588 0.9538 0.0
O303 O 0.59585 0.13368 0.95435 0.0
O304 O 0.62461 0.05431 0.95731 0.0
N305 N 0.70076 0.05403 0.89462 0.0
C306 C 0.68529 0.07007 0.87994 0.0
C307 C 0.68841 0.03562 0.86416 0.0
C308 C 0.7078 0.98565 0.86357 0.0
C309 C 0.72358 0.97029 0.87884 0.0
C310 C 0.71927 0.00586 0.89423 0.0
H311 H 0.67045 0.10852 0.8803 0.0
O312 O 0.61132 0.05765 0.92138 0.0
O313 O 0.66382 0.06219 0.9253 0.0
O314 O 0.6345 0.17591 0.92206 0.0
O315 O 0.68236 0.16288 0.90869 0.0
C316 C 0.74356 0.92123 0.87936 0.0
C317 C 0.75815 0.90772 0.89531 0.0
H318 H 0.78007 0.89304 0.92861 0.0
H319 H 0.76795 0.95962 0.95473 0.0
H320 H 0.67605 0.04772 0.85245 0.0
H321 H 0.71034 0.95934 0.85134 0.0
H322 H 0.74785 0.89406 0.8675 0.0
H323 H 0.77389 0.87046 0.89561 0.0
Mn324 Mn 0.62446 0.12535 0.31266 0.0
Mn325 Mn 0.68907 0.1236 0.33956 0.0
C326 C 0.62819 0.19029 0.33695 0.0
C327 C 0.59558 0.15865 0.28901 0.0
C328 C 0.6345 0.03796 0.34079 0.0
O329 O 0.65761 0.08171 0.29714 0.0
O330 O 0.69821 0.07992 0.3167 0.0
C331 C 0.73453 0.19138 0.31904 0.0
N332 N 0.71868 0.18339 0.33434 0.0
C333 C 0.74848 0.26044 0.3496 0.0
C334 C 0.76527 0.26936 0.33404 0.0
C335 C 0.75806 0.23497 0.31865 0.0
C336 C 0.72505 0.21688 0.34913 0.0
H337 H 0.72948 0.16443 0.30725 0.0
C338 C 0.68617 0.06755 0.30144 0.0
O339 O 0.58915 0.10918 0.29538 0.0
O340 O 0.62006 0.1872 0.29568 0.0
N341 N 0.68436 0.16493 0.362 0.0
C342 C 0.6644 0.15366 0.37555 0.0
C343 C 0.66701 0.18683 0.39159 0.0
C344 C 0.69055 0.23039 0.39365 0.0
C345 C 0.71098 0.24085 0.37955 0.0
C346 C 0.70688 0.20708 0.36379 0.0
H347 H 0.64642 0.12013 0.37403 0.0
O348 O 0.60033 0.17566 0.33036 0.0
O349 O 0.6533 0.16591 0.32937 0.0
O350 O 0.6191 0.05483 0.32761 0.0
O351 O 0.66048 0.06135 0.34656 0.0
C352 C 0.73519 0.28354 0.3805 0.0
C353 C 0.75411 0.293 0.36556 0.0
H354 H 0.78359 0.30266 0.33373 0.0
H355 H 0.77085 0.24164 0.30658 0.0
H356 H 0.65105 0.17859 0.40238 0.0
H357 H 0.69263 0.25571 0.40608 0.0
H358 H 0.73935 0.3092 0.39268 0.0
H359 H 0.77284 0.32564 0.3664 0.0
Mn360 Mn 0.40318 0.87356 0.06072 0.0
Mn361 Mn 0.33757 0.8708 0.08696 0.0
C362 C 0.39868 0.93677 0.08546 0.0
C363 C 0.43324 0.90741 0.03753 0.0
C364 C 0.39157 0.78378 0.08791 0.0
O365 O 0.3703 0.8313 0.0446 0.0
O366 O 0.3288 0.83018 0.06367 0.0
C367 C 0.29308 0.94233 0.06705 0.0
N368 N 0.30876 0.93238 0.08224 0.0
C369 C 0.27901 0.00809 0.09824 0.0
C370 C 0.26243 0.0191 0.08279 0.0
C371 C 0.26974 0.98642 0.06708 0.0
C372 C 0.30244 0.96445 0.09732 0.0
H373 H 0.29808 0.91645 0.05503 0.0
C374 C 0.34135 0.81813 0.0485 0.0
O375 O 0.43899 0.85747 0.04376 0.0
O376 O 0.40874 0.93643 0.0441 0.0
N377 N 0.34216 0.90922 0.1098 0.0
C378 C 0.36122 0.89476 0.12339 0.0
C379 C 0.35839 0.92584 0.13977 0.0
C380 C 0.33539 0.97033 0.14215 0.0
C381 C 0.3157 0.98372 0.12805 0.0
C382 C 0.32018 0.95226 0.11191 0.0
H383 H 0.37855 0.86004 0.12169 0.0
O384 O 0.42675 0.92258 0.079 0.0
O385 O 0.37388 0.91326 0.07742 0.0
O386 O 0.4079 0.8021 0.07528 0.0
O387 O 0.36522 0.80654 0.0934 0.0
C388 C 0.29153 0.02652 0.12942 0.0
C389 C 0.27294 0.03824 0.11456 0.0
H390 H 0.24412 0.05258 0.08283 0.0
H391 H 0.25708 -0.00535 0.0551 0.0
H392 H 0.37364 0.9151 0.1506 0.0
H393 H 0.33299 -0.0062 0.15487 0.0
H394 H 0.28696 0.0502 0.14189 0.0
H395 H 0.25401 0.07052 0.11577 0.0
Mn396 Mn 0.39832 0.86128 0.69174 0.0
Mn397 Mn 0.32988 0.85094 0.66783 0.0
C398 C 0.39346 0.79135 0.6687 0.0
C399 C 0.43051 0.83422 0.71501 0.0
C400 C 0.3806 0.94286 0.66309 0.0
O401 O 0.36597 0.90565 0.70777 0.0
O402 O 0.32173 0.89428 0.69079 0.0
C403 C 0.29085 0.77748 0.69013 0.0
N404 N 0.30432 0.78701 0.67428 0.0
C405 C 0.27728 0.70415 0.66038 0.0
C406 C 0.26297 0.69351 0.67652 0.0
C407 C 0.26999 0.7301 0.69149 0.0
C408 C 0.2981 0.75159 0.65986 0.0
H409 H 0.29578 0.80607 0.7016 0.0
C410 C 0.33589 0.91284 0.70499 0.0
O411 O 0.43543 0.88252 0.7076 0.0
O412 O 0.40584 0.80366 0.7096 0.0
N413 N 0.33404 0.80935 0.64542 0.0
C414 C 0.35183 0.82279 0.63122 0.0
C415 C 0.34911 0.78835 0.61541 0.0
C416 C 0.32783 0.741 0.61431 0.0
C417 C 0.30982 0.72806 0.62912 0.0
C418 C 0.31383 0.76346 0.64457 0.0
H419 H 0.3683 0.85896 0.63203 0.0
O420 O 0.42161 0.80916 0.67407 0.0
O421 O 0.36878 0.81512 0.67687 0.0
O422 O 0.39982 0.92819 0.67508 0.0
O423 O 0.35402 0.91705 0.65966 0.0
C424 C 0.28812 0.68131 0.62917 0.0
C425 C 0.27167 0.66961 0.64477 0.0
H426 H 0.24671 0.65723 0.67759 0.0
H427 H 0.25911 0.72213 0.70401 0.0
H428 H 0.36331 0.79838 0.6041 0.0
H429 H 0.32568 0.71463 0.60208 0.0
H430 H 0.28403 0.6543 0.61725 0.0
H431 H 0.25479 0.63392 0.64469 0.0
Mn432 Mn 0.62563 0.61723 0.44041 0.0
Mn433 Mn 0.69233 0.60839 0.4149 0.0
C434 C 0.62933 0.54785 0.41721 0.0
C435 C 0.59478 0.58968 0.46417 0.0
C436 C 0.64044 0.69871 0.41121 0.0
O437 O 0.65881 0.66105 0.45588 0.0
O438 O 0.70136 0.65327 0.43748 0.0
C439 C 0.73392 0.53815 0.43685 0.0
N440 N 0.71943 0.54623 0.42118 0.0
C441 C 0.74784 0.46516 0.40706 0.0
C442 C 0.76322 0.45605 0.42301 0.0
C443 C 0.75601 0.49243 0.43801 0.0
C444 C 0.7258 0.51092 0.40675 0.0
H445 H 0.72889 0.56664 0.44834 0.0
C446 C 0.68834 0.67021 0.45218 0.0
O447 O 0.58948 0.63824 0.45697 0.0
O448 O 0.61917 0.55909 0.45827 0.0
N449 N 0.68761 0.56535 0.39275 0.0
C450 C 0.66858 0.57674 0.37884 0.0
C451 C 0.67125 0.54194 0.36309 0.0
C452 C 0.69377 0.49641 0.36174 0.0
C453 C 0.71301 0.48549 0.37626 0.0
C454 C 0.70896 0.52109 0.39168 0.0
H455 H 0.65115 0.61145 0.37987 0.0
O456 O 0.60146 0.5656 0.42311 0.0
O457 O 0.65449 0.57155 0.42488 0.0
O458 O 0.62286 0.68471 0.42401 0.0
O459 O 0.66657 0.6727 0.40683 0.0
C460 C 0.73593 0.44051 0.37608 0.0
C461 C 0.75354 0.43067 0.39144 0.0
H462 H 0.78044 0.42109 0.42392 0.0
H463 H 0.76771 0.48563 0.45039 0.0
H464 H 0.65608 0.55032 0.35201 0.0
H465 H 0.69589 0.4698 0.34954 0.0
H466 H 0.74009 0.41332 0.36418 0.0
H467 H 0.77131 0.39633 0.3912 0.0
Mn468 Mn 0.62987 0.61937 0.81176 0.0
Mn469 Mn 0.69823 0.6145 0.83559 0.0
C470 C 0.63685 0.68097 0.83676 0.0
C471 C 0.59839 0.65545 0.7895 0.0
C472 C 0.64551 0.52449 0.83644 0.0
O473 O 0.66145 0.57687 0.79453 0.0
O474 O 0.70619 0.58209 0.81135 0.0
C475 C 0.74005 0.69557 0.81753 0.0
N476 N 0.7252 0.67983 0.83242 0.0
C477 C 0.75438 0.75175 0.85022 0.0
C478 C 0.77006 0.76881 0.8351 0.0
C479 C 0.7626 0.74098 0.81865 0.0
C480 C 0.73163 0.7072 0.84824 0.0
H481 H 0.73501 0.67314 0.80495 0.0
C482 C 0.69163 0.56829 0.79688 0.0
O483 O 0.59262 0.60539 0.79564 0.0
O484 O 0.62358 0.68329 0.79562 0.0
N485 N 0.69368 0.64523 0.85934 0.0
C486 C 0.67523 0.62543 0.87248 0.0
C487 C 0.67803 0.65156 0.88957 0.0
C488 C 0.70032 0.69662 0.89304 0.0
C489 C 0.71927 0.71566 0.87932 0.0
C490 C 0.71478 0.68913 0.86248 0.0
H491 H 0.6585 0.5901 0.86992 0.0
O492 O 0.60816 0.66838 0.83095 0.0
O493 O 0.66059 0.65715 0.82785 0.0
O494 O 0.62586 0.54751 0.82616 0.0
O495 O 0.67315 0.54524 0.84029 0.0
C496 C 0.74281 0.75926 0.88172 0.0
C497 C 0.76072 0.7766 0.86721 0.0
H498 H 0.78781 0.80327 0.83595 0.0
H499 H 0.77461 0.75386 0.80692 0.0
H500 H 0.66334 0.6365 0.90008 0.0
H501 H 0.70275 0.71616 0.90629 0.0
H502 H 0.74749 0.77917 0.89472 0.0
H503 H 0.77937 0.80907 0.8692 0.0
Mn504 Mn 0.40217 0.37029 0.56389 0.0
Mn505 Mn 0.33566 0.36661 0.58944 0.0
C506 C 0.39673 0.43333 0.58863 0.0
C507 C 0.43269 0.40508 0.54101 0.0
C508 C 0.38957 0.27928 0.59058 0.0
O509 O 0.36984 0.32805 0.54741 0.0
O510 O 0.32743 0.32724 0.56591 0.0
C511 C 0.29183 0.43959 0.5696 0.0
N512 N 0.30707 0.42863 0.58485 0.0
C513 C 0.27749 0.50441 0.60093 0.0
C514 C 0.26136 0.51642 0.58543 0.0
C515 C 0.26878 0.48418 0.56966 0.0
C516 C 0.30052 0.46008 0.60001 0.0
H517 H 0.297 0.41417 0.55753 0.0
C518 C 0.34062 0.31533 0.55089 0.0
O519 O 0.43855 0.35509 0.54718 0.0
O520 O 0.40791 0.43355 0.54745 0.0
N521 N 0.33987 0.40395 0.61246 0.0
C522 C 0.35893 0.3892 0.62601 0.0
C523 C 0.35609 0.41998 0.64245 0.0
C524 C 0.33319 0.46462 0.64489 0.0
C525 C 0.31359 0.47846 0.63079 0.0
C526 C 0.31796 0.4471 0.61463 0.0
H527 H 0.37626 0.35451 0.62424 0.0
O528 O 0.42505 0.41938 0.58246 0.0
O529 O 0.37229 0.40941 0.58036 0.0
O530 O 0.40659 0.29852 0.57835 0.0
O531 O 0.36294 0.30165 0.59577 0.0
C532 C 0.2898 0.52197 0.63216 0.0
C533 C 0.2715 0.53447 0.61728 0.0
H534 H 0.24336 0.55045 0.58547 0.0
H535 H 0.25649 0.49323 0.55764 0.0
H536 H 0.37132 0.40897 0.65325 0.0
H537 H 0.33088 0.48801 0.65762 0.0
H538 H 0.28538 0.54577 0.64464 0.0
H539 H 0.25291 0.56739 0.61847 0.0
Mn540 Mn 0.40041 0.36473 0.18834 0.0
Mn541 Mn 0.33197 0.35382 0.16448 0.0
C542 C 0.39582 0.29527 0.16519 0.0
C543 C 0.43237 0.33728 0.21165 0.0
C544 C 0.38253 0.44587 0.15959 0.0
O545 O 0.36803 0.40881 0.20439 0.0
O546 O 0.32387 0.39755 0.18737 0.0
C547 C 0.29316 0.28079 0.187 0.0
N548 N 0.30659 0.28992 0.17111 0.0
C549 C 0.27919 0.20722 0.15736 0.0
C550 C 0.26494 0.19697 0.17355 0.0
C551 C 0.27218 0.23365 0.18847 0.0
C552 C 0.30025 0.25428 0.15676 0.0
H553 H 0.29819 0.30956 0.19841 0.0
C554 C 0.33799 0.41611 0.20158 0.0
O555 O 0.43746 0.3857 0.20431 0.0
O556 O 0.40775 0.30688 0.20611 0.0
N557 N 0.33595 0.3119 0.1421 0.0
C558 C 0.35341 0.32534 0.12778 0.0
C559 C 0.35045 0.29077 0.11201 0.0
C560 C 0.32918 0.2434 0.11106 0.0
C561 C 0.31143 0.23059 0.12597 0.0
C562 C 0.3158 0.26594 0.14139 0.0
H563 H 0.36991 0.36146 0.12849 0.0
O564 O 0.4239 0.31311 0.17066 0.0
O565 O 0.37103 0.31842 0.17341 0.0
O566 O 0.40177 0.43179 0.17167 0.0
O567 O 0.35605 0.41971 0.15618 0.0
C568 C 0.2895 0.18423 0.12612 0.0
C569 C 0.27318 0.17283 0.14178 0.0
H570 H 0.2485 0.16097 0.17469 0.0
H571 H 0.26132 0.226 0.20102 0.0
H572 H 0.36444 0.30074 0.10062 0.0
H573 H 0.32681 0.21697 0.09885 0.0
H574 H 0.28502 0.15744 0.11419 0.0
H575 H 0.25602 0.13758 0.14176 0.0
H576 H 0.27935 0.27349 0.554 0.0
H577 H 0.25201 0.21736 0.45052 0.0
H578 H 0.35298 0.30045 0.51531 0.0
H579 H 0.17834 0.19086 0.48923 0.0
H580 H 0.28891 0.24889 0.47401 0.0
H581 H 0.24249 0.24191 0.53051 0.0
C582 C 0.28795 0.27238 0.54057 0.0
C583 C 0.31948 0.2899 0.53669 0.0
C584 C 0.26465 0.23644 0.47739 0.0
C585 C 0.27689 0.25403 0.50958 0.0
C586 C 0.24341 0.21857 0.46396 0.0
C587 C 0.21186 0.2012 0.46784 0.0
C588 C 0.25448 0.23699 0.49494 0.0
C589 C 0.20231 0.20395 0.48555 0.0
C590 C 0.26673 0.25447 0.52713 0.0
C591 C 0.32902 0.28725 0.51898 0.0
N592 N 0.22358 0.22122 0.49843 0.0
N593 N 0.30777 0.26994 0.50609 0.0
H594 H 0.99208 0.8434 0.52345 0.0
H595 H 0.04397 0.13388 0.47857 0.0
H596 H 0.93496 8e-05 0.52631 0.0
H597 H 0.10156 0.97778 0.47641 0.0
H598 H 1.00415 0.08621 0.49636 0.0
H599 H 0.03203 0.89152 0.50589 0.0
C600 C 0.98777 0.88779 0.52025 0.0
C601 C 0.96006 0.9177 0.52636 0.0
C602 C 0.02557 0.06244 0.49208 0.0
C603 C 1.00603 0.97345 0.50639 0.0
C604 C 0.04843 0.08976 0.48198 0.0
C605 C 0.0762 0.05982 0.47598 0.0
C606 C 0.0304 0.0046 0.49619 0.0
C607 C 0.08056 0.00261 0.48077 0.0
C608 C 1.01071 0.91537 0.51029 0.0
C609 C 0.95589 0.97526 0.52185 0.0
N610 N 0.05786 0.97683 0.49051 0.0
N611 N 0.97866 0.00128 0.51219 0.0
H612 H 0.35279 0.94963 0.73891 0.0
H613 H 0.17214 0.03955 0.767 0.0
H614 H 0.27156 0.93825 0.70348 0.0
H615 H 0.25327 0.05178 0.80249 0.0
H616 H 0.20818 0.00118 0.74361 0.0
H617 H 0.31682 0.98803 0.76237 0.0
C618 C 0.32752 0.95558 0.736 0.0
C619 C 0.31532 0.94056 0.71914 0.0
C620 C 0.21804 0.01211 0.75655 0.0
C621 C 0.27389 0.98397 0.746 0.0
C622 C 0.19741 0.03379 0.76995 0.0
C623 C 0.20956 0.04904 0.7868 0.0
C624 C 0.25109 0.00561 0.75999 0.0
C625 C 0.24267 0.04076 0.78974 0.0
C626 C 0.30694 0.97727 0.74942 0.0
C627 C 0.28222 0.94906 0.71623 0.0
N628 N 0.26221 0.01982 0.7765 0.0
N629 N 0.26274 0.96998 0.7295 0.0
H630 H 0.03835 0.10231 0.77833 0.0
H631 H 0.98426 0.37286 0.72426 0.0
H632 H 0.09596 0.25647 0.77435 0.0
H633 H 0.9264 0.21918 0.72862 0.0
H634 H 0.02506 0.33175 0.74299 0.0
H635 H 0.99736 0.14389 0.75984 0.0
C636 C 0.04255 0.14464 0.77342 0.0
C637 C 0.07067 0.17589 0.77789 0.0
C638 C 1.00336 0.30714 0.73993 0.0
C639 C 0.0236 0.2242 0.75689 0.0
C640 C 0.97995 0.33077 0.72931 0.0
C641 C 0.95184 0.29946 0.72486 0.0
C642 C 0.9987 0.25168 0.74611 0.0
C643 C 0.94767 0.24494 0.73172 0.0
C644 C 0.01903 0.16854 0.76294 0.0
C645 C 0.07469 0.23074 0.77122 0.0
N646 N 0.97087 0.22273 0.74193 0.0
N647 N 0.0514 0.25319 0.76112 0.0
H648 H 0.85724 0.78903 0.51128 0.0
H649 H 0.67582 0.6932 0.48741 0.0
H650 H 0.78329 0.761 0.54972 0.0
H651 H 0.75092 0.70521 0.44856 0.0
H652 H 0.7145 0.72397 0.51029 0.0
H653 H 0.81867 0.76082 0.48791 0.0
C654 C 0.8331 0.77637 0.51483 0.0
C655 C 0.8236 0.77759 0.53253 0.0
C656 C 0.72246 0.72014 0.49674 0.0
C657 C 0.77921 0.74623 0.50588 0.0
C658 C 0.70027 0.70301 0.48364 0.0
C659 C 0.71004 0.69632 0.466 0.0
C660 C 0.75468 0.7308 0.4922 0.0
C661 C 0.74222 0.70943 0.46197 0.0
C662 C 0.81102 0.76066 0.50149 0.0
C663 C 0.79184 0.76107 0.5363 0.0
N664 N 0.76337 0.72575 0.47496 0.0
N665 N 0.77086 0.74641 0.52313 0.0
H666 H 0.74738 0.02595 0.30577 0.0
H667 H 0.77895 0.96776 0.20272 0.0
H668 H 0.67546 0.04868 0.2659 0.0
H669 H 0.85049 0.93517 0.24199 0.0
H670 H 0.74153 -0.00052 0.22588 0.0
H671 H 0.78537 -0.00772 0.2829 0.0
C672 C 0.73939 0.02338 0.29223 0.0
C673 C 0.70802 0.04042 0.28781 0.0
C674 C 0.76541 0.98559 0.22949 0.0
C675 C 0.75182 0.00234 0.26148 0.0
C676 C 0.78697 0.96757 0.21623 0.0
C677 C 0.81807 0.94846 0.22035 0.0
C678 C 0.77477 0.98469 0.24712 0.0
C679 C 0.82687 0.94965 0.23816 0.0
C680 C 0.76123 0.0043 0.27916 0.0
C681 C 0.69926 0.03599 0.27 0.0
N682 N 0.80527 0.96723 0.25089 0.0
N683 N 0.72108 0.01771 0.25751 0.0
H684 H 0.92947 0.72591 0.22838 0.0
H685 H 0.10366 0.75816 0.2733 0.0
H686 H 0.98738 0.88127 0.22912 0.0
H687 H 0.04315 0.608 0.27802 0.0
H688 H 0.06214 0.80103 0.25563 0.0
H689 H 0.97085 0.68028 0.24583 0.0
C690 C 0.9507 0.75064 0.23236 0.0
C691 C 0.95492 0.80757 0.22729 0.0
C692 C 0.05792 0.75858 0.26045 0.0
C693 C 1.00257 0.75531 0.24701 0.0
C694 C 0.08176 0.73385 0.27047 0.0
C695 C 0.07691 0.67936 0.27719 0.0
C696 C 0.02887 0.72873 0.25706 0.0
C697 C 0.04795 0.65007 0.27309 0.0
C698 C 0.97439 0.72445 0.24225 0.0
C699 C 0.98302 0.83737 0.23273 0.0
N700 N 0.02496 0.6752 0.26334 0.0
N701 N 1.00576 0.81084 0.2422 0.0
H702 H 0.28078 0.77441 0.05264 0.0
H703 H 0.24762 0.71841 0.94969 0.0
H704 H 0.35175 0.80371 0.01272 0.0
H705 H 0.17663 0.68971 0.98965 0.0
H706 H 0.28564 0.7508 0.97252 0.0
H707 H 0.24281 0.74204 0.02979 0.0
C708 C 0.28857 0.77364 0.03907 0.0
C709 C 0.31966 0.79207 0.03465 0.0
C710 C 0.26173 0.73769 0.97632 0.0
C711 C 0.27579 0.7553 0.00829 0.0
C712 C 0.23984 0.71932 0.96326 0.0
C713 C 0.20872 0.70105 0.9677 0.0
C714 C 0.25264 0.73783 0.99404 0.0
C715 C 0.20024 0.70348 0.98556 0.0
C716 C 0.26671 0.75528 0.026 0.0
C717 C 0.32816 0.7898 0.01679 0.0
N718 N 0.22213 0.72123 0.99807 0.0
N719 N 0.30629 0.77205 0.00427 0.0
H720 H 0.04125 0.63535 0.98004 0.0
H721 H 0.9881 0.35531 0.02991 0.0
H722 H 0.09757 0.47781 0.97851 0.0
H723 H 0.92904 0.50788 0.02596 0.0
H724 H 0.02914 0.39891 0.01171 0.0
H725 H 1.00132 0.59006 0.99818 0.0
C726 C 0.04541 0.59136 0.98366 0.0
C727 C 0.07285 0.56038 0.97771 0.0
C728 C 1.00711 0.42263 0.01475 0.0
C729 C 0.02682 0.50773 0.99842 0.0
C730 C 0.98359 0.39764 0.02507 0.0
C731 C 0.95504 0.42794 0.02947 0.0
C732 C 1.00209 0.47844 0.00889 0.0
C733 C 0.95062 0.48283 0.02291 0.0
C734 C 0.02245 0.56533 0.99396 0.0
C735 C 0.07681 0.50338 0.98282 0.0
N736 N 0.9739 0.50632 0.01305 0.0
N737 N 0.05401 0.47882 0.99283 0.0
H738 H 0.27405 0.44433 0.19975 0.0
H739 H 0.25909 0.55003 0.30139 0.0
H740 H 0.35439 0.45002 0.23579 0.0
H741 H 0.17874 0.54458 0.26536 0.0
H742 H 0.29401 0.51262 0.27763 0.0
H743 H 0.23911 0.48186 0.22349 0.0
C744 C 0.2845 0.4538 0.21263 0.0
C745 C 0.31738 0.4438 0.21571 0.0
C746 C 0.26874 0.51938 0.27491 0.0
C747 C 0.27706 0.48663 0.24313 0.0
C748 C 0.24864 0.54064 0.28851 0.0
C749 C 0.21575 0.55066 0.28544 0.0
C750 C 0.25606 0.50796 0.258 0.0
C751 C 0.20384 0.53748 0.26841 0.0
C752 C 0.26439 0.47513 0.22622 0.0
C753 C 0.32929 0.45709 0.23273 0.0
N754 N 0.22401 0.51702 0.25533 0.0
N755 N 0.30911 0.47761 0.2458 0.0
H756 H 0.76026 0.18537 0.95256 0.0
H757 H 0.772 0.30284 0.05326 0.0
H758 H 0.67836 0.19612 0.98764 0.0
H759 H 0.85342 0.29145 0.01785 0.0
H760 H 0.73759 0.26326 0.02961 0.0
H761 H 0.79428 0.22494 0.97629 0.0
C762 C 0.74928 0.19626 0.96525 0.0
C763 C 0.71621 0.18711 0.96806 0.0
C764 C 0.76298 0.26922 0.02701 0.0
C765 C 0.75555 0.23253 0.99549 0.0
C766 C 0.7828 0.29174 0.04054 0.0
C767 C 0.81585 0.30068 0.03761 0.0
C768 C 0.77612 0.25544 0.01031 0.0
C769 C 0.82819 0.28529 0.02079 0.0
C770 C 0.76888 0.21885 0.97884 0.0
C771 C 0.70362 0.20246 0.98482 0.0
N772 N 0.8083 0.26361 0.00778 0.0
N773 N 0.72334 0.22423 0.99792 0.0
H774 H 0.75568 0.54226 0.79801 0.0
H775 H 0.76998 0.42306 0.69761 0.0
H776 H 0.67465 0.53626 0.7624 0.0
H777 H 0.85019 0.43763 0.73367 0.0
H778 H 0.73479 0.46522 0.7207 0.0
H779 H 0.79001 0.50386 0.77436 0.0
C780 C 0.74492 0.53277 0.78521 0.0
C781 C 0.71196 0.54267 0.78228 0.0
C782 C 0.7601 0.45944 0.72353 0.0
C783 C 0.75183 0.49833 0.75486 0.0
C784 C 0.78034 0.43543 0.71034 0.0
C785 C 0.81327 0.42655 0.71365 0.0
C786 C 0.77274 0.47466 0.74024 0.0
C787 C 0.82507 0.44357 0.73044 0.0
C788 C 0.76476 0.51084 0.77164 0.0
C789 C 0.69981 0.52929 0.76531 0.0
N790 N 0.80481 0.46654 0.74309 0.0
N791 N 0.71977 0.50778 0.75222 0.0
H792 H 0.54257 0.13639 0.97318 0.0
H793 H 0.48715 0.85714 0.02272 0.0
H794 H 0.6016 0.98463 0.97868 0.0
H795 H 0.43147 0.01543 0.02424 0.0
H796 H 0.5276 0.90227 0.0049 0.0
H797 H 0.50065 0.09324 0.99095 0.0
C798 C 0.54688 0.09436 0.97828 0.0
C799 C 0.57568 0.06412 0.97443 0.0
C800 C 0.50651 0.92721 0.00905 0.0
C801 C 0.52766 0.01415 0.99449 0.0
C802 C 0.48324 0.90127 0.01916 0.0
C803 C 0.45584 0.93252 0.02502 0.0
C804 C 0.50249 0.985 0.00469 0.0
C805 C 0.4522 0.98967 0.01998 0.0
C806 C 0.52287 0.06963 0.98834 0.0
C807 C 0.57984 0.00963 0.98129 0.0
N808 N 0.47531 0.01417 0.01015 0.0
N809 N 0.5561 0.98638 0.99088 0.0
H810 H 0.42754 0.23647 0.22825 0.0
H811 H 0.6005 0.26438 0.27464 0.0
H812 H 0.49003 0.38396 0.22346 0.0
H813 H 0.5402 0.11215 0.27474 0.0
H814 H 0.56061 0.31001 0.25628 0.0
H815 H 0.46799 0.19274 0.24639 0.0
C816 C 0.44967 0.26001 0.23116 0.0
C817 C 0.45537 0.31404 0.2243 0.0
C818 C 0.55622 0.2665 0.26024 0.0
C819 C 0.50218 0.26363 0.24499 0.0
C820 C 0.57906 0.24027 0.27064 0.0
C821 C 0.57371 0.18428 0.27624 0.0
C822 C 0.52773 0.23665 0.25547 0.0
C823 C 0.54541 0.1553 0.27073 0.0
C824 C 0.47289 0.23478 0.24145 0.0
C825 C 0.48458 0.34231 0.2285 0.0
N826 N 0.52347 0.18189 0.26075 0.0
N827 N 0.50695 0.31669 0.23853 0.0
H828 H 0.42666 0.73312 0.73159 0.0
H829 H 0.60162 0.76248 0.77576 0.0
H830 H 0.48806 0.88191 0.72651 0.0
H831 H 0.54211 0.60937 0.77632 0.0
H832 H 0.56034 0.80845 0.75834 0.0
H833 H 0.46795 0.68985 0.74933 0.0
C834 C 0.44871 0.75705 0.73436 0.0
C835 C 0.45387 0.81127 0.72752 0.0
C836 C 0.55641 0.7647 0.76221 0.0
C837 C 0.50165 0.76142 0.74772 0.0
C838 C 0.58004 0.7383 0.77208 0.0
C839 C 0.57536 0.68191 0.7775 0.0
C840 C 0.52782 0.73459 0.7578 0.0
C841 C 0.54683 0.65283 0.77243 0.0
C842 C 0.47241 0.7321 0.74442 0.0
C843 C 0.48301 0.84007 0.73154 0.0
N844 N 0.52416 0.67955 0.76295 0.0
N845 N 0.50586 0.8147 0.74131 0.0
H846 H 0.48751 0.35676 0.5265 0.0
H847 H 0.53888 0.63939 0.47738 0.0
H848 H 0.42994 0.51278 0.52769 0.0
H849 H 0.59812 0.4863 0.47964 0.0
H850 H 0.49861 0.59463 0.49572 0.0
H851 H 0.52743 0.40318 0.50857 0.0
C852 C 0.48309 0.40064 0.52285 0.0
C853 C 0.45527 0.43087 0.52861 0.0
C854 C 0.52051 0.571 0.49229 0.0
C855 C 0.50124 0.48476 0.50818 0.0
C856 C 0.54361 0.59668 0.4819 0.0
C857 C 0.57196 0.56659 0.47696 0.0
C858 C 0.52573 0.51471 0.49773 0.0
C859 C 0.57667 0.5112 0.48312 0.0
C860 C 0.50603 0.4273 0.51268 0.0
C861 C 0.45097 0.48776 0.52351 0.0
N862 N 0.55377 0.48702 0.49309 0.0
N863 N 0.47375 0.51292 0.51363 0.0
H864 H 0.17647 0.79321 0.33242 0.0
H865 H 0.1774 0.96915 0.41717 0.0
H866 H 0.10244 0.72727 0.36539 0.0
H867 H 0.0977 0.02947 0.38707 0.0
H868 H 0.18132 0.88236 0.39673 0.0
H869 H 0.17876 0.8826 0.35196 0.0
C870 C 0.1612 0.7972 0.34396 0.0
C871 C 0.1402 0.75219 0.34783 0.0
C872 C 0.16329 0.91511 0.39458 0.0
C873 C 0.14142 0.85435 0.3693 0.0
C874 C 0.16125 0.96466 0.40602 0.0
C875 C 0.13804 0.00733 0.40329 0.0
C876 C 0.14127 0.90769 0.38076 0.0
C877 C 0.11635 -0.00201 0.38932 0.0
C878 C 0.16225 0.84816 0.35487 0.0
C879 C 0.11946 0.76061 0.36228 0.0
N880 N 0.11841 0.94882 0.37852 0.0
N881 N 0.12059 0.81091 0.37259 0.0
H882 H 0.14348 0.32374 0.42716 0.0
H883 H 0.10821 0.45697 0.33463 0.0
H884 H 0.11751 0.21643 0.38098 0.0
H885 H 0.17313 0.53099 0.37425 0.0
H886 H 0.0972 0.37682 0.35365 0.0
H887 H 0.13831 0.41003 0.41017 0.0
C888 C 0.13576 0.31869 0.41357 0.0
C889 C 0.13095 0.26341 0.40537 0.0
C890 C 0.11352 0.41123 0.35815 0.0
C891 C 0.12555 0.36096 0.38585 0.0
C892 C 0.11981 0.45682 0.34734 0.0
C893 C 0.14179 0.50062 0.35277 0.0
C894 C 0.12876 0.41049 0.37459 0.0
C895 C 0.15614 0.49824 0.3694 0.0
C896 C 0.1331 0.36765 0.40385 0.0
C897 C 0.12154 0.25863 0.38767 0.0
N898 N 0.14936 0.45412 0.37968 0.0
N899 N 0.11936 0.30686 0.3784 0.0
H900 H 0.09449 0.22199 0.86638 0.0
H901 H 0.17289 0.46768 0.91757 0.0
H902 H 0.16901 0.29221 0.83459 0.0
H903 H 0.09077 0.52659 0.88909 0.0
H904 H 0.17567 0.38053 0.89723 0.0
H905 H 0.09564 0.31199 0.88566 0.0
C906 C 0.11135 0.25605 0.86364 0.0
C907 C 0.13254 0.24923 0.84934 0.0
C908 C 0.15738 0.41309 0.89539 0.0
C909 C 0.13358 0.35109 0.87094 0.0
C910 C 0.15598 0.46286 0.90677 0.0
C911 C 0.1324 0.50524 0.90447 0.0
C912 C 0.13429 0.40501 0.88213 0.0
C913 C 0.10972 0.49536 0.891 0.0
C914 C 0.11192 0.30698 0.87454 0.0
C915 C 0.15334 0.29509 0.84597 0.0
N916 N 0.1111 0.44588 0.8803 0.0
N917 N 0.1536 0.34426 0.85682 0.0
H918 H 0.13541 0.82111 0.92811 0.0
H919 H 0.10275 0.9542 0.83529 0.0
H920 H 0.11415 0.71365 0.88122 0.0
H921 H 0.16496 0.03075 0.87583 0.0
H922 H 0.09181 0.8736 0.85413 0.0
H923 H 0.12953 0.90764 0.91126 0.0
C924 C 0.12858 0.816 0.91439 0.0
C925 C 0.1254 0.76065 0.90594 0.0
C926 C 0.10749 0.90868 0.85888 0.0
C927 C 0.11908 0.85849 0.88662 0.0
C928 C 0.11374 0.95453 0.84817 0.0
C929 C 0.13499 -0.00087 0.85391 0.0
C930 C 0.12201 0.90846 0.87553 0.0
C931 C 0.14857 -0.00265 0.87075 0.0
C932 C 0.1255 0.86511 0.90475 0.0
C933 C 0.11703 0.75585 0.88809 0.0
N934 N 0.14184 0.95292 0.88092 0.0
N935 N 0.11438 0.80423 0.87893 0.0
H936 H 0.92801 0.2502 0.63531 0.0
H937 H 0.93484 0.93662 0.61626 0.0
H938 H 0.85795 0.17659 0.66917 0.0
H939 H 0.85898 0.00474 0.58496 0.0
H940 H 0.93117 0.02457 0.63642 0.0
H941 H 0.92767 0.15901 0.61656 0.0
C942 C 0.91236 0.21502 0.63864 0.0
C943 C 0.89221 0.2211 0.65339 0.0
C944 C 0.91503 0.01931 0.62528 0.0
C945 C 0.89239 0.11767 0.63252 0.0
C946 C 0.91712 0.96964 0.61384 0.0
C947 C 0.8966 0.96316 0.59928 0.0
C948 C 0.89276 0.06271 0.62182 0.0
C949 C 0.87447 0.00754 0.5964 0.0
C950 C 0.91221 0.16345 0.62803 0.0
C951 C 0.87293 0.17395 0.65752 0.0
N952 N 0.87318 0.05586 0.60756 0.0
N953 N 0.8734 0.12384 0.64707 0.0
H954 H 0.92345 0.51358 0.6653 0.0
H955 H 0.8878 0.64848 0.57307 0.0
H956 H 0.85823 0.44063 0.62566 0.0
H957 H 0.91941 0.75286 0.61872 0.0
H958 H 0.89199 0.56159 0.58984 0.0
H959 H 0.93545 0.5928 0.64617 0.0
C960 C 0.91195 0.5138 0.65256 0.0
C961 C 0.8896 0.47059 0.64717 0.0
C962 C 0.89866 0.60337 0.59609 0.0
C963 C 0.90369 0.55984 0.62521 0.0
C964 C 0.89658 0.65264 0.58647 0.0
C965 C 0.90335 0.70733 0.59461 0.0
C966 C 0.90745 0.60918 0.61393 0.0
C967 C 0.91402 0.71109 0.61208 0.0
C968 C 0.91881 0.55888 0.64168 0.0
C969 C 0.87544 0.47301 0.63049 0.0
N970 N 0.91549 0.66261 0.62127 0.0
N971 N 0.88272 0.51675 0.62016 0.0
H972 H 0.92457 0.47167 0.1193 0.0
H973 H 0.92941 0.78776 0.137 0.0
H974 H 0.85866 0.54712 0.08355 0.0
H975 H 0.85566 0.71674 0.16913 0.0
H976 H 0.92631 0.69962 0.1169 0.0
H977 H 0.92249 0.56235 0.13828 0.0
C978 C 0.90948 0.50717 0.11559 0.0
C979 C 0.89102 0.5018 0.10021 0.0
C980 C 0.91054 0.7042 0.12823 0.0
C981 C 0.88935 0.6047 0.12132 0.0
C982 C 0.9123 0.75398 0.13963 0.0
C983 C 0.89221 0.75968 0.15441 0.0
C984 C 0.88918 0.65974 0.13201 0.0
C985 C 0.87086 0.71439 0.15756 0.0
C986 C 0.90832 0.55842 0.12634 0.0
C987 C 0.87239 0.54929 0.09564 0.0
N988 N 0.87002 0.66582 0.14648 0.0
N989 N 0.87203 0.5992 0.10618 0.0
H990 H 0.88083 0.07479 0.17953 0.0
H991 H 0.92369 0.20945 0.08811 0.0
H992 H 0.91642 0.96955 0.13491 0.0
H993 H 0.85407 0.28019 0.12588 0.0
H994 H 0.93417 0.13005 0.10747 0.0
H995 H 0.88574 0.16108 0.16258 0.0
C996 C 0.89059 0.07034 0.16632 0.0
C997 C 0.89835 0.01559 0.15853 0.0
C998 C 0.91689 0.16354 0.11149 0.0
C999 C 0.90329 0.11307 0.13897 0.0
C1000 C 0.91089 0.20871 0.10048 0.0
C1001 C 0.88781 0.25143 0.10528 0.0
C1002 C 0.90018 0.16208 0.1275 0.0
C1003 C 0.87195 0.2483 0.12149 0.0
C1004 C 0.8931 0.11927 0.1566 0.0
C1005 C 0.9103 0.01143 0.14129 0.0
N1006 N 0.87846 0.20461 0.13197 0.0
N1007 N 0.91218 0.0596 0.13197 0.0
H1008 H 0.6776 0.77196 0.83433 0.0
H1009 H 0.67363 0.94125 0.92277 0.0
H1010 H 0.60505 0.70372 0.86779 0.0
H1011 H 0.611 0.01461 0.88498 0.0
H1012 H 0.67639 0.85062 0.90375 0.0
H1013 H 0.68168 0.85889 0.85469 0.0
C1014 C 0.66313 0.77477 0.84618 0.0
C1015 C 0.64157 0.73027 0.84972 0.0
C1016 C 0.6623 0.88693 0.89968 0.0
C1017 C 0.64552 0.82928 0.87249 0.0
C1018 C 0.66091 0.93845 0.91034 0.0
C1019 C 0.64283 0.98564 0.90507 0.0
C1020 C 0.64523 0.88295 0.88384 0.0
C1021 C 0.62564 0.97935 0.88927 0.0
C1022 C 0.66529 0.82433 0.85761 0.0
C1023 C 0.62226 0.73692 0.86481 0.0
N1024 N 0.62744 0.92887 0.87907 0.0
N1025 N 0.62468 0.78575 0.87574 0.0
H1026 H 0.68893 0.21146 0.88138 0.0
H1027 H 0.6018 0.50745 0.86249 0.0
H1028 H 0.60778 0.27448 0.91268 0.0
H1029 H 0.67247 0.42002 0.82886 0.0
H1030 H 0.59919 0.42137 0.87999 0.0
H1031 H 0.67985 0.28638 0.86147 0.0
C1032 C 0.66906 0.24113 0.88414 0.0
C1033 C 0.64921 0.23653 0.89891 0.0
C1034 C 0.61463 0.42055 0.86853 0.0
C1035 C 0.63871 0.32412 0.87579 0.0
C1036 C 0.61588 0.46928 0.85848 0.0
C1037 C 0.63715 0.47005 0.8442 0.0
C1038 C 0.63504 0.37304 0.86421 0.0
C1039 C 0.6556 0.42063 0.83972 0.0
C1040 C 0.66379 0.28408 0.8726 0.0
C1041 C 0.62377 0.2765 0.90151 0.0
N1042 N 0.65429 0.37439 0.84976 0.0
N1043 N 0.61942 0.31917 0.89014 0.0
H1044 H 0.67204 0.27768 0.33683 0.0
H1045 H 0.6705 0.45669 0.41916 0.0
H1046 H 0.58798 0.22131 0.36421 0.0
H1047 H 0.59054 0.5176 0.38939 0.0
H1048 H 0.67285 0.36835 0.39923 0.0
H1049 H 0.6749 0.36428 0.35737 0.0
C1050 C 0.65466 0.28301 0.34741 0.0
C1051 C 0.63068 0.24127 0.34946 0.0
C1052 C 0.655 0.40144 0.39711 0.0
C1053 C 0.63249 0.34109 0.37189 0.0
C1054 C 0.65391 0.45186 0.40822 0.0
C1055 C 0.63134 0.49537 0.40527 0.0
C1056 C 0.63244 0.3939 0.38355 0.0
C1057 C 0.60884 0.48555 0.39171 0.0
C1058 C 0.65609 0.33249 0.35888 0.0
C1059 C 0.60732 0.25194 0.36257 0.0
N1060 N 0.6099 0.43553 0.38128 0.0
N1061 N 0.6087 0.3012 0.37333 0.0
H1062 H 0.60295 0.79473 0.42063 0.0
H1063 H 0.62507 0.92758 0.32687 0.0
H1064 H 0.65524 0.7114 0.37694 0.0
H1065 H 0.61848 0.03425 0.37529 0.0
H1066 H 0.61757 0.84094 0.34355 0.0
H1067 H 0.59147 0.87677 0.40244 0.0
C1068 C 0.6115 0.79317 0.40718 0.0
C1069 C 0.63031 0.74637 0.40036 0.0
C1070 C 0.6171 0.88351 0.35044 0.0
C1071 C 0.6167 0.83868 0.37952 0.0
C1072 C 0.62114 0.93274 0.34093 0.0
C1073 C 0.62277 0.9877 0.34981 0.0
C1074 C 0.61433 0.88973 0.36886 0.0
C1075 C 0.61789 -0.00761 0.36806 0.0
C1076 C 0.60498 0.83983 0.39685 0.0
C1077 C 0.64083 0.74656 0.38283 0.0
N1078 N 0.61411 0.94394 0.37704 0.0
N1079 N 0.63392 0.79192 0.37306 0.0
H1080 H 0.42996 0.27247 0.13516 0.0
H1081 H 0.43514 0.96086 0.11467 0.0
H1082 H 0.35852 0.19944 0.16832 0.0
H1083 H 0.35709 0.02756 0.08463 0.0
H1084 H 0.43253 0.04931 0.13464 0.0
H1085 H 0.4289 0.18225 0.11597 0.0
C1086 C 0.4138 0.2377 0.13822 0.0
C1087 C 0.39354 0.24364 0.15293 0.0
C1088 C 0.41573 0.04368 0.1238 0.0
C1089 C 0.39278 0.14141 0.13152 0.0
C1090 C 0.4172 -0.00627 0.11248 0.0
C1091 C 0.39568 0.98661 0.09837 0.0
C1092 C 0.393 0.08669 0.12071 0.0
C1093 C 0.37331 0.03083 0.09575 0.0
C1094 C 0.41324 0.1867 0.12736 0.0
C1095 C 0.37358 0.197 0.1567 0.0
N1096 N 0.37251 0.07936 0.10685 0.0
N1097 N 0.3736 0.14749 0.14599 0.0
H1098 H 0.35974 0.46116 0.12682 0.0
H1099 H 0.41588 0.78115 0.12093 0.0
H1100 H 0.42468 0.53804 0.16597 0.0
H1101 H 0.39071 0.67125 0.07516 0.0
H1102 H 0.42138 0.6948 0.13784 0.0
H1103 H 0.37156 0.53879 0.10803 0.0
C1104 C 0.37678 0.49413 0.13147 0.0
C1105 C 0.39123 0.49285 0.1481 0.0
C1106 C 0.41548 0.68945 0.124 0.0
C1107 C 0.40443 0.58336 0.12649 0.0
C1108 C 0.41229 0.7386 0.11438 0.0
C1109 C 0.40275 0.73285 0.09672 0.0
C1110 C 0.40823 0.63461 0.11594 0.0
C1111 C 0.39828 0.67714 0.08875 0.0
C1112 C 0.38363 0.5385 0.12061 0.0
C1113 C 0.41299 0.53731 0.15328 0.0
N1114 N 0.40049 0.63012 0.09852 0.0
N1115 N 0.41854 0.58149 0.14261 0.0
H1116 H 0.35459 0.69779 0.67219 0.0
H1117 H 0.35384 0.52197 0.58741 0.0
H1118 H 0.42867 0.76373 0.63925 0.0
H1119 H 0.43341 0.46152 0.61757 0.0
H1120 H 0.34988 0.60873 0.60785 0.0
H1121 H 0.35233 0.60839 0.65265 0.0
C1122 C 0.36988 0.6938 0.66065 0.0
C1123 C 0.39088 0.7388 0.6568 0.0
C1124 C 0.36788 0.57595 0.61001 0.0
C1125 C 0.38969 0.63665 0.63532 0.0
C1126 C 0.36995 0.52642 0.59857 0.0
C1127 C 0.39313 0.48373 0.60132 0.0
C1128 C 0.38986 0.58332 0.62386 0.0
C1129 C 0.41477 0.49302 0.61531 0.0
C1130 C 0.36883 0.64284 0.64975 0.0
C1131 C 0.41164 0.73039 0.64235 0.0
N1132 N 0.41269 0.54216 0.62612 0.0
N1133 N 0.41052 0.68009 0.63204 0.0
H1134 H 0.3876 0.1673 0.57743 0.0
H1135 H 0.42306 0.03401 0.66994 0.0
H1136 H 0.41373 0.27461 0.62358 0.0
H1137 H 0.35801 0.9601 0.63037 0.0
H1138 H 0.43404 0.11416 0.65092 0.0
H1139 H 0.39277 0.08102 0.59443 0.0
C1140 C 0.39535 0.17235 0.59102 0.0
C1141 C 0.40021 0.22763 0.59921 0.0
C1142 C 0.4177 0.07977 0.64643 0.0
C1143 C 0.40561 0.13008 0.61874 0.0
C1144 C 0.41143 0.03418 0.65724 0.0
C1145 C 0.38941 0.99041 0.65183 0.0
C1146 C 0.40241 0.08055 0.63 0.0
C1147 C 0.37502 -0.00718 0.63521 0.0
C1148 C 0.39801 0.12339 0.60074 0.0
C1149 C 0.40967 0.23241 0.6169 0.0
N1150 N 0.38179 0.03693 0.62493 0.0
N1151 N 0.41184 0.18418 0.62617 0.0
loop_
_geom_bond_atom_site_label_1
_geom_bond_atom_site_label_2
_geom_bond_distance
_geom_bond_site_symmetry_2
_ccdc_geom_bond_type
Mn0 O5 2.095 . S
Mn0 O15 2.162 . S
Mn0 O16 2.297 . S
Mn0 O24 2.385 . S
Mn0 O25 2.209 . S
Mn0 O26 2.094 . S
Mn1 O6 2.121 . S
Mn1 N8 2.257 . S
Mn1 N17 2.282 . S
Mn1 O25 2.215 . S
Mn1 O27 2.117 . S
C2 O24 1.234 . S
C2 O25 1.283 . S
C3 O15 1.281 . S
C3 O16 1.236 . S
C4 O26 1.240 . S
C4 O27 1.264 . S
O5 Mn0 2.095 . S
O5 C14 1.250 . S
O6 Mn1 2.121 . S
O6 C14 1.258 . S
C7 N8 1.326 . S
C7 C11 1.447 1_545 S
C7 H13 0.929 . S
N8 Mn1 2.257 . S
N8 C7 1.326 . S
N8 C12 1.362 . S
C9 C10 1.258 . S
C9 C12 1.431 1_565 S
C9 C29 1.449 . S
C10 C9 1.258 . S
C10 C11 1.484 . S
C10 H30 0.931 . S
C11 C7 1.447 1_565 S
C11 C10 1.484 . S
C11 H31 0.936 . S
C12 N8 1.362 . S
C12 C9 1.431 1_545 S
C12 C22 1.476 . S
H13 C7 0.929 . S
C14 O5 1.250 . S
C14 O6 1.258 . S
O15 Mn0 2.162 . S
O15 C3 1.281 . S
O16 Mn0 2.297 . S
O16 C3 1.236 . S
N17 Mn1 2.282 . S
N17 C18 1.328 . S
N17 C22 1.318 . S
C18 N17 1.328 . S
C18 C19 1.457 . S
C18 H23 0.929 . S
C19 C18 1.457 . S
C19 C20 1.291 . S
C19 H32 0.931 . S
C20 C19 1.291 . S
C20 C21 1.373 . S
C20 H33 0.929 . S
C21 C20 1.373 . S
C21 C22 1.396 . S
C21 C28 1.403 1_545 S
C22 C12 1.476 . S
C22 N17 1.318 . S
C22 C21 1.396 . S
H23 C18 0.929 . S
O24 Mn0 2.385 . S
O24 C2 1.234 . S
O25 Mn0 2.209 . S
O25 Mn1 2.215 . S
O25 C2 1.283 . S
O26 Mn0 2.094 . S
O26 C4 1.240 . S
O27 Mn1 2.117 . S
O27 C4 1.264 . S
C28 C21 1.403 1_565 S
C28 C29 1.399 . S
C28 H34 0.929 . S
C29 C9 1.449 . S
C29 C28 1.399 . S
C29 H35 0.930 . S
H30 C10 0.931 . S
H31 C11 0.936 . S
H32 C19 0.931 . S
H33 C20 0.929 . S
H34 C28 0.929 . S
H35 C29 0.930 . S
Mn36 O41 2.095 . S
Mn36 O51 2.162 . S
Mn36 O52 2.297 . S
Mn36 O60 2.385 . S
Mn36 O61 2.209 . S
Mn36 O62 2.094 . S
Mn37 O42 2.121 . S
Mn37 N44 2.257 . S
Mn37 N53 2.282 . S
Mn37 O61 2.215 . S
Mn37 O63 2.117 . S
C38 O60 1.234 . S
C38 O61 1.283 . S
C39 O51 1.281 . S
C39 O52 1.236 . S
C40 O62 1.240 . S
C40 O63 1.264 . S
O41 Mn36 2.095 . S
O41 C50 1.250 . S
O42 Mn37 2.121 . S
O42 C50 1.258 . S
C43 N44 1.326 . S
C43 C47 1.460 . S
C43 H49 0.929 . S
N44 Mn37 2.257 . S
N44 C43 1.326 . S
N44 C48 1.362 . S
C45 C46 1.258 . S
C45 C48 1.431 . S
C45 C65 1.449 . S
C46 C45 1.258 . S
C46 C47 1.477 . S
C46 H66 0.931 . S
C47 C43 1.460 . S
C47 C46 1.477 . S
C47 H67 0.930 . S
C48 N44 1.362 . S
C48 C45 1.431 . S
C48 C58 1.476 . S
H49 C43 0.929 . S
C50 O41 1.250 . S
C50 O42 1.258 . S
O51 Mn36 2.162 . S
O51 C39 1.281 . S
O52 Mn36 2.297 . S
O52 C39 1.236 . S
N53 Mn37 2.282 . S
N53 C54 1.328 . S
N53 C58 1.318 . S
C54 N53 1.328 . S
C54 C55 1.457 . S
C54 H59 0.929 . S
C55 C54 1.457 . S
C55 C56 1.291 . S
C55 H68 0.931 . S
C56 C55 1.291 . S
C56 C57 1.373 . S
C56 H69 0.929 . S
C57 C56 1.373 . S
C57 C58 1.396 . S
C57 C64 1.403 . S
C58 C48 1.476 . S
C58 N53 1.318 . S
C58 C57 1.396 . S
H59 C54 0.929 . S
O60 Mn36 2.385 . S
O60 C38 1.234 . S
O61 Mn36 2.209 . S
O61 Mn37 2.215 . S
O61 C38 1.283 . S
O62 Mn36 2.094 . S
O62 C40 1.240 . S
O63 Mn37 2.117 . S
O63 C40 1.264 . S
C64 C57 1.403 . S
C64 C65 1.399 . S
C64 H70 0.929 . S
C65 C45 1.449 . S
C65 C64 1.399 . S
C65 H71 0.930 . S
H66 C46 0.931 . S
H67 C47 0.930 . S
H68 C55 0.931 . S
H69 C56 0.929 . S
H70 C64 0.929 . S
H71 C65 0.930 . S
Mn72 O77 2.095 . S
Mn72 O87 2.162 . S
Mn72 O88 2.297 . S
Mn72 O96 2.385 . S
Mn72 O97 2.209 . S
Mn72 O98 2.094 . S
Mn73 O78 2.121 . S
Mn73 N80 2.257 . S
Mn73 N89 2.282 . S
Mn73 O97 2.215 . S
Mn73 O99 2.117 . S
C74 O96 1.234 . S
C74 O97 1.283 . S
C75 O87 1.281 . S
C75 O88 1.236 . S
C76 O98 1.240 . S
C76 O99 1.264 . S
O77 Mn72 2.095 . S
O77 C86 1.250 . S
O78 Mn73 2.121 . S
O78 C86 1.258 . S
C79 N80 1.326 . S
C79 C83 1.447 1_565 S
C79 H85 0.929 . S
N80 Mn73 2.257 . S
N80 C79 1.326 . S
N80 C84 1.362 . S
C81 C82 1.258 . S
C81 C84 1.431 1_545 S
C81 C101 1.449 . S
C82 C81 1.258 . S
C82 C83 1.484 . S
C82 H102 0.931 . S
C83 C79 1.447 1_545 S
C83 C82 1.484 . S
C83 H103 0.936 . S
C84 N80 1.362 . S
C84 C81 1.431 1_565 S
C84 C94 1.476 . S
H85 C79 0.929 . S
C86 O77 1.250 . S
C86 O78 1.258 . S
O87 Mn72 2.162 . S
O87 C75 1.281 . S
O88 Mn72 2.297 . S
O88 C75 1.236 . S
N89 Mn73 2.282 . S
N89 C90 1.328 . S
N89 C94 1.318 . S
C90 N89 1.328 . S
C90 C91 1.457 . S
C90 H95 0.929 . S
C91 C90 1.457 . S
C91 C92 1.291 . S
C91 H104 0.931 . S
C92 C91 1.291 . S
C92 C93 1.373 . S
C92 H105 0.929 . S
C93 C92 1.373 . S
C93 C94 1.396 . S
C93 C100 1.403 1_565 S
C94 C84 1.476 . S
C94 N89 1.318 . S
C94 C93 1.396 . S
H95 C90 0.929 . S
O96 Mn72 2.385 . S
O96 C74 1.234 . S
O97 Mn72 2.209 . S
O97 Mn73 2.215 . S
O97 C74 1.283 . S
O98 Mn72 2.094 . S
O98 C76 1.240 . S
O99 Mn73 2.117 . S
O99 C76 1.264 . S
C100 C93 1.403 1_545 S
C100 C101 1.399 . S
C100 H106 0.929 . S
C101 C81 1.449 . S
C101 C100 1.399 . S
C101 H107 0.930 . S
H102 C82 0.931 . S
H103 C83 0.936 . S
H104 C91 0.931 . S
H105 C92 0.929 . S
H106 C100 0.929 . S
H107 C101 0.930 . S
Mn108 O113 2.095 . S
Mn108 O123 2.162 . S
Mn108 O124 2.297 . S
Mn108 O132 2.385 . S
Mn108 O133 2.209 . S
Mn108 O134 2.094 . S
Mn109 O114 2.121 . S
Mn109 N116 2.257 . S
Mn109 N125 2.282 . S
Mn109 O133 2.215 . S
Mn109 O135 2.117 . S
C110 O132 1.234 . S
C110 O133 1.283 . S
C111 O123 1.281 . S
C111 O124 1.236 . S
C112 O134 1.240 . S
C112 O135 1.264 . S
O113 Mn108 2.095 . S
O113 C122 1.250 . S
O114 Mn109 2.121 . S
O114 C122 1.258 . S
C115 N116 1.326 . S
C115 C119 1.460 . S
C115 H121 0.929 . S
N116 Mn109 2.257 . S
N116 C115 1.326 . S
N116 C120 1.362 . S
C117 C118 1.258 . S
C117 C120 1.431 . S
C117 C137 1.449 . S
C118 C117 1.258 . S
C118 C119 1.477 . S
C118 H138 0.931 . S
C119 C115 1.460 . S
C119 C118 1.477 . S
C119 H139 0.930 . S
C120 N116 1.362 . S
C120 C117 1.431 . S
C120 C130 1.476 . S
H121 C115 0.929 . S
C122 O113 1.250 . S
C122 O114 1.258 . S
O123 Mn108 2.162 . S
O123 C111 1.281 . S
O124 Mn108 2.297 . S
O124 C111 1.236 . S
N125 Mn109 2.282 . S
N125 C126 1.328 . S
N125 C130 1.318 . S
C126 N125 1.328 . S
C126 C127 1.457 . S
C126 H131 0.929 . S
C127 C126 1.457 . S
C127 C128 1.291 . S
C127 H140 0.931 . S
C128 C127 1.291 . S
C128 C129 1.373 . S
C128 H141 0.929 . S
C129 C128 1.373 . S
C129 C130 1.396 . S
C129 C136 1.403 . S
C130 C120 1.476 . S
C130 N125 1.318 . S
C130 C129 1.396 . S
H131 C126 0.929 . S
O132 Mn108 2.385 . S
O132 C110 1.234 . S
O133 Mn108 2.209 . S
O133 Mn109 2.215 . S
O133 C110 1.283 . S
O134 Mn108 2.094 . S
O134 C112 1.240 . S
O135 Mn109 2.117 . S
O135 C112 1.264 . S
C136 C129 1.403 . S
C136 C137 1.399 . S
C136 H142 0.929 . S
C137 C117 1.449 . S
C137 C136 1.399 . S
C137 H143 0.930 . S
H138 C118 0.931 . S
H139 C119 0.930 . S
H140 C127 0.931 . S
H141 C128 0.929 . S
H142 C136 0.929 . S
H143 C137 0.930 . S
Mn144 O149 2.095 . S
Mn144 O159 2.162 . S
Mn144 O160 2.297 . S
Mn144 O168 2.385 . S
Mn144 O169 2.209 . S
Mn144 O170 2.094 . S
Mn145 O150 2.121 . S
Mn145 N152 2.257 . S
Mn145 N161 2.282 . S
Mn145 O169 2.215 . S
Mn145 O171 2.117 . S
C146 O168 1.234 . S
C146 O169 1.283 . S
C147 O159 1.281 . S
C147 O160 1.236 . S
C148 O170 1.240 . S
C148 O171 1.264 . S
O149 Mn144 2.095 . S
O149 C158 1.250 . S
O150 Mn145 2.121 . S
O150 C158 1.258 . S
C151 N152 1.326 . S
C151 C155 1.460 . S
C151 H157 0.929 . S
N152 Mn145 2.257 . S
N152 C151 1.326 . S
N152 C156 1.362 . S
C153 C154 1.258 . S
C153 C156 1.431 . S
C153 C173 1.449 . S
C154 C153 1.258 . S
C154 C155 1.477 . S
C154 H174 0.931 . S
C155 C151 1.460 . S
C155 C154 1.477 . S
C155 H175 0.930 . S
C156 N152 1.362 . S
C156 C153 1.431 . S
C156 C166 1.476 . S
H157 C151 0.929 . S
C158 O149 1.250 . S
C158 O150 1.258 . S
O159 Mn144 2.162 . S
O159 C147 1.281 . S
O160 Mn144 2.297 . S
O160 C147 1.236 . S
N161 Mn145 2.282 . S
N161 C162 1.328 . S
N161 C166 1.318 . S
C162 N161 1.328 . S
C162 C163 1.457 . S
C162 H167 0.929 . S
C163 C162 1.457 . S
C163 C164 1.291 . S
C163 H176 0.931 . S
C164 C163 1.291 . S
C164 C165 1.373 . S
C164 H177 0.929 . S
C165 C164 1.373 . S
C165 C166 1.396 . S
C165 C172 1.403 . S
C166 C156 1.476 . S
C166 N161 1.318 . S
C166 C165 1.396 . S
H167 C162 0.929 . S
O168 Mn144 2.385 . S
O168 C146 1.234 . S
O169 Mn144 2.209 . S
O169 Mn145 2.215 . S
O169 C146 1.283 . S
O170 Mn144 2.094 . S
O170 C148 1.240 . S
O171 Mn145 2.117 . S
O171 C148 1.264 . S
C172 C165 1.403 . S
C172 C173 1.399 . S
C172 H178 0.929 . S
C173 C153 1.449 . S
C173 C172 1.399 . S
C173 H179 0.930 . S
H174 C154 0.931 . S
H175 C155 0.930 . S
H176 C163 0.931 . S
H177 C164 0.929 . S
H178 C172 0.929 . S
H179 C173 0.930 . S
Mn180 O185 2.095 . S
Mn180 O195 2.162 . S
Mn180 O196 2.297 . S
Mn180 O204 2.385 . S
Mn180 O205 2.209 . S
Mn180 O206 2.094 . S
Mn181 O186 2.121 . S
Mn181 N188 2.257 . S
Mn181 N197 2.282 . S
Mn181 O205 2.215 . S
Mn181 O207 2.117 . S
C182 O204 1.234 . S
C182 O205 1.283 . S
C183 O195 1.281 . S
C183 O196 1.236 . S
C184 O206 1.240 . S
C184 O207 1.264 . S
O185 Mn180 2.095 . S
O185 C194 1.250 . S
O186 Mn181 2.121 . S
O186 C194 1.258 . S
C187 N188 1.326 . S
C187 C191 1.460 . S
C187 H193 0.929 . S
N188 Mn181 2.257 . S
N188 C187 1.326 . S
N188 C192 1.362 . S
C189 C190 1.258 . S
C189 C192 1.431 . S
C189 C209 1.449 . S
C190 C189 1.258 . S
C190 C191 1.477 . S
C190 H210 0.931 . S
C191 C187 1.460 . S
C191 C190 1.477 . S
C191 H211 0.930 . S
C192 N188 1.362 . S
C192 C189 1.431 . S
C192 C202 1.476 . S
H193 C187 0.929 . S
C194 O185 1.250 . S
C194 O186 1.258 . S
O195 Mn180 2.162 . S
O195 C183 1.281 . S
O196 Mn180 2.297 . S
O196 C183 1.236 . S
N197 Mn181 2.282 . S
N197 C198 1.328 . S
N197 C202 1.318 . S
C198 N197 1.328 . S
C198 C199 1.457 . S
C198 H203 0.929 . S
C199 C198 1.457 . S
C199 C200 1.291 . S
C199 H212 0.931 . S
C200 C199 1.291 . S
C200 C201 1.373 . S
C200 H213 0.929 . S
C201 C200 1.373 . S
C201 C202 1.396 . S
C201 C208 1.403 . S
C202 C192 1.476 . S
C202 N197 1.318 . S
C202 C201 1.396 . S
H203 C198 0.929 . S
O204 Mn180 2.385 . S
O204 C182 1.234 . S
O205 Mn180 2.209 . S
O205 Mn181 2.215 . S
O205 C182 1.283 . S
O206 Mn180 2.094 . S
O206 C184 1.240 . S
O207 Mn181 2.117 . S
O207 C184 1.264 . S
C208 C201 1.403 . S
C208 C209 1.399 . S
C208 H214 0.929 . S
C209 C189 1.449 . S
C209 C208 1.399 . S
C209 H215 0.930 . S
H210 C190 0.931 . S
H211 C191 0.930 . S
H212 C199 0.931 . S
H213 C200 0.929 . S
H214 C208 0.929 . S
H215 C209 0.930 . S
Mn216 O221 2.095 . S
Mn216 O231 2.162 . S
Mn216 O232 2.297 . S
Mn216 O240 2.385 . S
Mn216 O241 2.209 . S
Mn216 O242 2.094 . S
Mn217 O222 2.121 . S
Mn217 N224 2.257 . S
Mn217 N233 2.282 . S
Mn217 O241 2.215 . S
Mn217 O243 2.117 . S
C218 O240 1.234 . S
C218 O241 1.283 . S
C219 O231 1.281 . S
C219 O232 1.236 . S
C220 O242 1.240 . S
C220 O243 1.264 . S
O221 Mn216 2.095 . S
O221 C230 1.250 . S
O222 Mn217 2.121 . S
O222 C230 1.258 . S
C223 N224 1.326 . S
C223 C227 1.460 . S
C223 H229 0.929 . S
N224 Mn217 2.257 . S
N224 C223 1.326 . S
N224 C228 1.362 . S
C225 C226 1.258 . S
C225 C228 1.431 . S
C225 C245 1.449 . S
C226 C225 1.258 . S
C226 C227 1.477 . S
C226 H246 0.931 . S
C227 C223 1.460 . S
C227 C226 1.477 . S
C227 H247 0.930 . S
C228 N224 1.362 . S
C228 C225 1.431 . S
C228 C238 1.476 . S
H229 C223 0.929 . S
C230 O221 1.250 . S
C230 O222 1.258 . S
O231 Mn216 2.162 . S
O231 C219 1.281 . S
O232 Mn216 2.297 . S
O232 C219 1.236 . S
N233 Mn217 2.282 . S
N233 C234 1.328 . S
N233 C238 1.318 . S
C234 N233 1.328 . S
C234 C235 1.457 . S
C234 H239 0.929 . S
C235 C234 1.457 . S
C235 C236 1.291 . S
C235 H248 0.931 . S
C236 C235 1.291 . S
C236 C237 1.373 . S
C236 H249 0.929 . S
C237 C236 1.373 . S
C237 C238 1.396 . S
C237 C244 1.403 . S
C238 C228 1.476 . S
C238 N233 1.318 . S
C238 C237 1.396 . S
H239 C234 0.929 . S
O240 Mn216 2.385 . S
O240 C218 1.234 . S
O241 Mn216 2.209 . S
O241 Mn217 2.215 . S
O241 C218 1.283 . S
O242 Mn216 2.094 . S
O242 C220 1.240 . S
O243 Mn217 2.117 . S
O243 C220 1.264 . S
C244 C237 1.403 . S
C244 C245 1.399 . S
C244 H250 0.929 . S
C245 C225 1.449 . S
C245 C244 1.399 . S
C245 H251 0.930 . S
H246 C226 0.931 . S
H247 C227 0.930 . S
H248 C235 0.931 . S
H249 C236 0.929 . S
H250 C244 0.929 . S
H251 C245 0.930 . S
Mn252 O257 2.095 . S
Mn252 O267 2.162 . S
Mn252 O268 2.297 . S
Mn252 O276 2.385 . S
Mn252 O277 2.209 . S
Mn252 O278 2.094 . S
Mn253 O258 2.121 . S
Mn253 N260 2.257 . S
Mn253 N269 2.282 . S
Mn253 O277 2.215 . S
Mn253 O279 2.117 . S
C254 O276 1.234 . S
C254 O277 1.283 . S
C255 O267 1.281 . S
C255 O268 1.236 . S
C256 O278 1.240 . S
C256 O279 1.264 . S
O257 Mn252 2.095 . S
O257 C266 1.250 . S
O258 Mn253 2.121 . S
O258 C266 1.258 . S
C259 N260 1.326 . S
C259 C263 1.460 . S
C259 H265 0.929 . S
N260 Mn253 2.257 . S
N260 C259 1.326 . S
N260 C264 1.362 . S
C261 C262 1.258 . S
C261 C264 1.431 . S
C261 C281 1.449 . S
C262 C261 1.258 . S
C262 C263 1.477 . S
C262 H282 0.931 . S
C263 C259 1.460 . S
C263 C262 1.477 . S
C263 H283 0.930 . S
C264 N260 1.362 . S
C264 C261 1.431 . S
C264 C274 1.476 . S
H265 C259 0.929 . S
C266 O257 1.250 . S
C266 O258 1.258 . S
O267 Mn252 2.162 . S
O267 C255 1.281 . S
O268 Mn252 2.297 . S
O268 C255 1.236 . S
N269 Mn253 2.282 . S
N269 C270 1.328 . S
N269 C274 1.318 . S
C270 N269 1.328 . S
C270 C271 1.457 . S
C270 H275 0.929 . S
C271 C270 1.457 . S
C271 C272 1.291 . S
C271 H284 0.931 . S
C272 C271 1.291 . S
C272 C273 1.373 . S
C272 H285 0.929 . S
C273 C272 1.373 . S
C273 C274 1.396 . S
C273 C280 1.403 . S
C274 C264 1.476 . S
C274 N269 1.318 . S
C274 C273 1.396 . S
H275 C270 0.929 . S
O276 Mn252 2.385 . S
O276 C254 1.234 . S
O277 Mn252 2.209 . S
O277 Mn253 2.215 . S
O277 C254 1.283 . S
O278 Mn252 2.094 . S
O278 C256 1.240 . S
O279 Mn253 2.117 . S
O279 C256 1.264 . S
C280 C273 1.403 . S
C280 C281 1.399 . S
C280 H286 0.929 . S
C281 C261 1.449 . S
C281 C280 1.399 . S
C281 H287 0.930 . S
H282 C262 0.931 . S
H283 C263 0.930 . S
H284 C271 0.931 . S
H285 C272 0.929 . S
H286 C280 0.929 . S
H287 C281 0.930 . S
Mn288 O293 2.095 . S
Mn288 O303 2.162 . S
Mn288 O304 2.297 . S
Mn288 O312 2.385 . S
Mn288 O313 2.209 . S
Mn288 O314 2.094 . S
Mn289 O294 2.121 . S
Mn289 N296 2.257 . S
Mn289 N305 2.282 . S
Mn289 O313 2.215 . S
Mn289 O315 2.117 . S
C290 O312 1.234 . S
C290 O313 1.283 . S
C291 O303 1.281 . S
C291 O304 1.236 . S
C292 O314 1.240 . S
C292 O315 1.264 . S
O293 Mn288 2.095 . S
O293 C302 1.250 . S
O294 Mn289 2.121 . S
O294 C302 1.258 . S
C295 N296 1.326 . S
C295 C299 1.447 1_545 S
C295 H301 0.929 . S
N296 Mn289 2.257 . S
N296 C295 1.326 . S
N296 C300 1.362 . S
C297 C298 1.258 . S
C297 C300 1.431 1_565 S
C297 C317 1.449 . S
C298 C297 1.258 . S
C298 C299 1.484 . S
C298 H318 0.931 . S
C299 C295 1.447 1_565 S
C299 C298 1.484 . S
C299 H319 0.936 . S
C300 N296 1.362 . S
C300 C297 1.431 1_545 S
C300 C310 1.476 . S
H301 C295 0.929 . S
C302 O293 1.250 . S
C302 O294 1.258 . S
O303 Mn288 2.162 . S
O303 C291 1.281 . S
O304 Mn288 2.297 . S
O304 C291 1.236 . S
N305 Mn289 2.282 . S
N305 C306 1.328 . S
N305 C310 1.318 . S
C306 N305 1.328 . S
C306 C307 1.457 . S
C306 H311 0.929 . S
C307 C306 1.457 . S
C307 C308 1.291 . S
C307 H320 0.931 . S
C308 C307 1.291 . S
C308 C309 1.373 . S
C308 H321 0.929 . S
C309 C308 1.373 . S
C309 C310 1.396 . S
C309 C316 1.403 1_545 S
C310 C300 1.476 . S
C310 N305 1.318 . S
C310 C309 1.396 . S
H311 C306 0.929 . S
O312 Mn288 2.385 . S
O312 C290 1.234 . S
O313 Mn288 2.209 . S
O313 Mn289 2.215 . S
O313 C290 1.283 . S
O314 Mn288 2.094 . S
O314 C292 1.240 . S
O315 Mn289 2.117 . S
O315 C292 1.264 . S
C316 C309 1.403 1_565 S
C316 C317 1.399 . S
C316 H322 0.929 . S
C317 C297 1.449 . S
C317 C316 1.399 . S
C317 H323 0.930 . S
H318 C298 0.931 . S
H319 C299 0.936 . S
H320 C307 0.931 . S
H321 C308 0.929 . S
H322 C316 0.929 . S
H323 C317 0.930 . S
Mn324 O329 2.095 . S
Mn324 O339 2.162 . S
Mn324 O340 2.297 . S
Mn324 O348 2.385 . S
Mn324 O349 2.209 . S
Mn324 O350 2.094 . S
Mn325 O330 2.121 . S
Mn325 N332 2.257 . S
Mn325 N341 2.282 . S
Mn325 O349 2.215 . S
Mn325 O351 2.117 . S
C326 O348 1.234 . S
C326 O349 1.283 . S
C327 O339 1.281 . S
C327 O340 1.236 . S
C328 O350 1.240 . S
C328 O351 1.264 . S
O329 Mn324 2.095 . S
O329 C338 1.250 . S
O330 Mn325 2.121 . S
O330 C338 1.258 . S
C331 N332 1.326 . S
C331 C335 1.460 . S
C331 H337 0.929 . S
N332 Mn325 2.257 . S
N332 C331 1.326 . S
N332 C336 1.362 . S
C333 C334 1.258 . S
C333 C336 1.431 . S
C333 C353 1.449 . S
C334 C333 1.258 . S
C334 C335 1.477 . S
C334 H354 0.931 . S
C335 C331 1.460 . S
C335 C334 1.477 . S
C335 H355 0.930 . S
C336 N332 1.362 . S
C336 C333 1.431 . S
C336 C346 1.476 . S
H337 C331 0.929 . S
C338 O329 1.250 . S
C338 O330 1.258 . S
O339 Mn324 2.162 . S
O339 C327 1.281 . S
O340 Mn324 2.297 . S
O340 C327 1.236 . S
N341 Mn325 2.282 . S
N341 C342 1.328 . S
N341 C346 1.318 . S
C342 N341 1.328 . S
C342 C343 1.457 . S
C342 H347 0.929 . S
C343 C342 1.457 . S
C343 C344 1.291 . S
C343 H356 0.931 . S
C344 C343 1.291 . S
C344 C345 1.373 . S
C344 H357 0.929 . S
C345 C344 1.373 . S
C345 C346 1.396 . S
C345 C352 1.403 . S
C346 C336 1.476 . S
C346 N341 1.318 . S
C346 C345 1.396 . S
H347 C342 0.929 . S
O348 Mn324 2.385 . S
O348 C326 1.234 . S
O349 Mn324 2.209 . S
O349 Mn325 2.215 . S
O349 C326 1.283 . S
O350 Mn324 2.094 . S
O350 C328 1.240 . S
O351 Mn325 2.117 . S
O351 C328 1.264 . S
C352 C345 1.403 . S
C352 C353 1.399 . S
C352 H358 0.929 . S
C353 C333 1.449 . S
C353 C352 1.399 . S
C353 H359 0.930 . S
H354 C334 0.931 . S
H355 C335 0.930 . S
H356 C343 0.931 . S
H357 C344 0.929 . S
H358 C352 0.929 . S
H359 C353 0.930 . S
Mn360 O365 2.095 . S
Mn360 O375 2.162 . S
Mn360 O376 2.297 . S
Mn360 O384 2.385 . S
Mn360 O385 2.209 . S
Mn360 O386 2.094 . S
Mn361 O366 2.121 . S
Mn361 N368 2.257 . S
Mn361 N377 2.282 . S
Mn361 O385 2.215 . S
Mn361 O387 2.117 . S
C362 O384 1.234 . S
C362 O385 1.283 . S
C363 O375 1.281 . S
C363 O376 1.236 . S
C364 O386 1.240 . S
C364 O387 1.264 . S
O365 Mn360 2.095 . S
O365 C374 1.250 . S
O366 Mn361 2.121 . S
O366 C374 1.258 . S
C367 N368 1.326 . S
C367 C371 1.447 1_565 S
C367 H373 0.929 . S
N368 Mn361 2.257 . S
N368 C367 1.326 . S
N368 C372 1.362 . S
C369 C370 1.258 . S
C369 C372 1.431 1_545 S
C369 C389 1.449 . S
C370 C369 1.258 . S
C370 C371 1.484 . S
C370 H390 0.931 . S
C371 C367 1.447 1_545 S
C371 C370 1.484 . S
C371 H391 0.936 . S
C372 N368 1.362 . S
C372 C369 1.431 1_565 S
C372 C382 1.476 . S
H373 C367 0.929 . S
C374 O365 1.250 . S
C374 O366 1.258 . S
O375 Mn360 2.162 . S
O375 C363 1.281 . S
O376 Mn360 2.297 . S
O376 C363 1.236 . S
N377 Mn361 2.282 . S
N377 C378 1.328 . S
N377 C382 1.318 . S
C378 N377 1.328 . S
C378 C379 1.457 . S
C378 H383 0.929 . S
C379 C378 1.457 . S
C379 C380 1.291 . S
C379 H392 0.931 . S
C380 C379 1.291 . S
C380 C381 1.373 . S
C380 H393 0.929 . S
C381 C380 1.373 . S
C381 C382 1.396 . S
C381 C388 1.403 1_565 S
C382 C372 1.476 . S
C382 N377 1.318 . S
C382 C381 1.396 . S
H383 C378 0.929 . S
O384 Mn360 2.385 . S
O384 C362 1.234 . S
O385 Mn360 2.209 . S
O385 Mn361 2.215 . S
O385 C362 1.283 . S
O386 Mn360 2.094 . S
O386 C364 1.240 . S
O387 Mn361 2.117 . S
O387 C364 1.264 . S
C388 C381 1.403 1_545 S
C388 C389 1.399 . S
C388 H394 0.929 . S
C389 C369 1.449 . S
C389 C388 1.399 . S
C389 H395 0.930 . S
H390 C370 0.931 . S
H391 C371 0.936 . S
H392 C379 0.931 . S
H393 C380 0.929 . S
H394 C388 0.929 . S
H395 C389 0.930 . S
Mn396 O401 2.095 . S
Mn396 O411 2.162 . S
Mn396 O412 2.297 . S
Mn396 O420 2.385 . S
Mn396 O421 2.209 . S
Mn396 O422 2.094 . S
Mn397 O402 2.121 . S
Mn397 N404 2.257 . S
Mn397 N413 2.282 . S
Mn397 O421 2.215 . S
Mn397 O423 2.117 . S
C398 O420 1.234 . S
C398 O421 1.283 . S
C399 O411 1.281 . S
C399 O412 1.236 . S
C400 O422 1.240 . S
C400 O423 1.264 . S
O401 Mn396 2.095 . S
O401 C410 1.250 . S
O402 Mn397 2.121 . S
O402 C410 1.258 . S
C403 N404 1.326 . S
C403 C407 1.460 . S
C403 H409 0.929 . S
N404 Mn397 2.257 . S
N404 C403 1.326 . S
N404 C408 1.362 . S
C405 C406 1.258 . S
C405 C408 1.431 . S
C405 C425 1.449 . S
C406 C405 1.258 . S
C406 C407 1.477 . S
C406 H426 0.931 . S
C407 C403 1.460 . S
C407 C406 1.477 . S
C407 H427 0.930 . S
C408 N404 1.362 . S
C408 C405 1.431 . S
C408 C418 1.476 . S
H409 C403 0.929 . S
C410 O401 1.250 . S
C410 O402 1.258 . S
O411 Mn396 2.162 . S
O411 C399 1.281 . S
O412 Mn396 2.297 . S
O412 C399 1.236 . S
N413 Mn397 2.282 . S
N413 C414 1.328 . S
N413 C418 1.318 . S
C414 N413 1.328 . S
C414 C415 1.457 . S
C414 H419 0.929 . S
C415 C414 1.457 . S
C415 C416 1.291 . S
C415 H428 0.931 . S
C416 C415 1.291 . S
C416 C417 1.373 . S
C416 H429 0.929 . S
C417 C416 1.373 . S
C417 C418 1.396 . S
C417 C424 1.403 . S
C418 C408 1.476 . S
C418 N413 1.318 . S
C418 C417 1.396 . S
H419 C414 0.929 . S
O420 Mn396 2.385 . S
O420 C398 1.234 . S
O421 Mn396 2.209 . S
O421 Mn397 2.215 . S
O421 C398 1.283 . S
O422 Mn396 2.094 . S
O422 C400 1.240 . S
O423 Mn397 2.117 . S
O423 C400 1.264 . S
C424 C417 1.403 . S
C424 C425 1.399 . S
C424 H430 0.929 . S
C425 C405 1.449 . S
C425 C424 1.399 . S
C425 H431 0.930 . S
H426 C406 0.931 . S
H427 C407 0.930 . S
H428 C415 0.931 . S
H429 C416 0.929 . S
H430 C424 0.929 . S
H431 C425 0.930 . S
Mn432 O437 2.095 . S
Mn432 O447 2.162 . S
Mn432 O448 2.297 . S
Mn432 O456 2.385 . S
Mn432 O457 2.209 . S
Mn432 O458 2.094 . S
Mn433 O438 2.121 . S
Mn433 N440 2.257 . S
Mn433 N449 2.282 . S
Mn433 O457 2.215 . S
Mn433 O459 2.117 . S
C434 O456 1.234 . S
C434 O457 1.283 . S
C435 O447 1.281 . S
C435 O448 1.236 . S
C436 O458 1.240 . S
C436 O459 1.264 . S
O437 Mn432 2.095 . S
O437 C446 1.250 . S
O438 Mn433 2.121 . S
O438 C446 1.258 . S
C439 N440 1.326 . S
C439 C443 1.460 . S
C439 H445 0.929 . S
N440 Mn433 2.257 . S
N440 C439 1.326 . S
N440 C444 1.362 . S
C441 C442 1.258 . S
C441 C444 1.431 . S
C441 C461 1.449 . S
C442 C441 1.258 . S
C442 C443 1.477 . S
C442 H462 0.931 . S
C443 C439 1.460 . S
C443 C442 1.477 . S
C443 H463 0.930 . S
C444 N440 1.362 . S
C444 C441 1.431 . S
C444 C454 1.476 . S
H445 C439 0.929 . S
C446 O437 1.250 . S
C446 O438 1.258 . S
O447 Mn432 2.162 . S
O447 C435 1.281 . S
O448 Mn432 2.297 . S
O448 C435 1.236 . S
N449 Mn433 2.282 . S
N449 C450 1.328 . S
N449 C454 1.318 . S
C450 N449 1.328 . S
C450 C451 1.457 . S
C450 H455 0.929 . S
C451 C450 1.457 . S
C451 C452 1.291 . S
C451 H464 0.931 . S
C452 C451 1.291 . S
C452 C453 1.373 . S
C452 H465 0.929 . S
C453 C452 1.373 . S
C453 C454 1.396 . S
C453 C460 1.403 . S
C454 C444 1.476 . S
C454 N449 1.318 . S
C454 C453 1.396 . S
H455 C450 0.929 . S
O456 Mn432 2.385 . S
O456 C434 1.234 . S
O457 Mn432 2.209 . S
O457 Mn433 2.215 . S
O457 C434 1.283 . S
O458 Mn432 2.094 . S
O458 C436 1.240 . S
O459 Mn433 2.117 . S
O459 C436 1.264 . S
C460 C453 1.403 . S
C460 C461 1.399 . S
C460 H466 0.929 . S
C461 C441 1.449 . S
C461 C460 1.399 . S
C461 H467 0.930 . S
H462 C442 0.931 . S
H463 C443 0.930 . S
H464 C451 0.931 . S
H465 C452 0.929 . S
H466 C460 0.929 . S
H467 C461 0.930 . S
Mn468 O473 2.095 . S
Mn468 O483 2.162 . S
Mn468 O484 2.297 . S
Mn468 O492 2.385 . S
Mn468 O493 2.209 . S
Mn468 O494 2.094 . S
Mn469 O474 2.121 . S
Mn469 N476 2.257 . S
Mn469 N485 2.282 . S
Mn469 O493 2.215 . S
Mn469 O495 2.117 . S
C470 O492 1.234 . S
C470 O493 1.283 . S
C471 O483 1.281 . S
C471 O484 1.236 . S
C472 O494 1.240 . S
C472 O495 1.264 . S
O473 Mn468 2.095 . S
O473 C482 1.250 . S
O474 Mn469 2.121 . S
O474 C482 1.258 . S
C475 N476 1.326 . S
C475 C479 1.460 . S
C475 H481 0.929 . S
N476 Mn469 2.257 . S
N476 C475 1.326 . S
N476 C480 1.362 . S
C477 C478 1.258 . S
C477 C480 1.431 . S
C477 C497 1.449 . S
C478 C477 1.258 . S
C478 C479 1.477 . S
C478 H498 0.931 . S
C479 C475 1.460 . S
C479 C478 1.477 . S
C479 H499 0.930 . S
C480 N476 1.362 . S
C480 C477 1.431 . S
C480 C490 1.476 . S
H481 C475 0.929 . S
C482 O473 1.250 . S
C482 O474 1.258 . S
O483 Mn468 2.162 . S
O483 C471 1.281 . S
O484 Mn468 2.297 . S
O484 C471 1.236 . S
N485 Mn469 2.282 . S
N485 C486 1.328 . S
N485 C490 1.318 . S
C486 N485 1.328 . S
C486 C487 1.457 . S
C486 H491 0.929 . S
C487 C486 1.457 . S
C487 C488 1.291 . S
C487 H500 0.931 . S
C488 C487 1.291 . S
C488 C489 1.373 . S
C488 H501 0.929 . S
C489 C488 1.373 . S
C489 C490 1.396 . S
C489 C496 1.403 . S
C490 C480 1.476 . S
C490 N485 1.318 . S
C490 C489 1.396 . S
H491 C486 0.929 . S
O492 Mn468 2.385 . S
O492 C470 1.234 . S
O493 Mn468 2.209 . S
O493 Mn469 2.215 . S
O493 C470 1.283 . S
O494 Mn468 2.094 . S
O494 C472 1.240 . S
O495 Mn469 2.117 . S
O495 C472 1.264 . S
C496 C489 1.403 . S
C496 C497 1.399 . S
C496 H502 0.929 . S
C497 C477 1.449 . S
C497 C496 1.399 . S
C497 H503 0.930 . S
H498 C478 0.931 . S
H499 C479 0.930 . S
H500 C487 0.931 . S
H501 C488 0.929 . S
H502 C496 0.929 . S
H503 C497 0.930 . S
Mn504 O509 2.095 . S
Mn504 O519 2.162 . S
Mn504 O520 2.297 . S
Mn504 O528 2.385 . S
Mn504 O529 2.209 . S
Mn504 O530 2.094 . S
Mn505 O510 2.121 . S
Mn505 N512 2.257 . S
Mn505 N521 2.282 . S
Mn505 O529 2.215 . S
Mn505 O531 2.117 . S
C506 O528 1.234 . S
C506 O529 1.283 . S
C507 O519 1.281 . S
C507 O520 1.236 . S
C508 O530 1.240 . S
C508 O531 1.264 . S
O509 Mn504 2.095 . S
O509 C518 1.250 . S
O510 Mn505 2.121 . S
O510 C518 1.258 . S
C511 N512 1.326 . S
C511 C515 1.460 . S
C511 H517 0.929 . S
N512 Mn505 2.257 . S
N512 C511 1.326 . S
N512 C516 1.362 . S
C513 C514 1.258 . S
C513 C516 1.431 . S
C513 C533 1.449 . S
C514 C513 1.258 . S
C514 C515 1.477 . S
C514 H534 0.931 . S
C515 C511 1.460 . S
C515 C514 1.477 . S
C515 H535 0.930 . S
C516 N512 1.362 . S
C516 C513 1.431 . S
C516 C526 1.476 . S
H517 C511 0.929 . S
C518 O509 1.250 . S
C518 O510 1.258 . S
O519 Mn504 2.162 . S
O519 C507 1.281 . S
O520 Mn504 2.297 . S
O520 C507 1.236 . S
N521 Mn505 2.282 . S
N521 C522 1.328 . S
N521 C526 1.318 . S
C522 N521 1.328 . S
C522 C523 1.457 . S
C522 H527 0.929 . S
C523 C522 1.457 . S
C523 C524 1.291 . S
C523 H536 0.931 . S
C524 C523 1.291 . S
C524 C525 1.373 . S
C524 H537 0.929 . S
C525 C524 1.373 . S
C525 C526 1.396 . S
C525 C532 1.403 . S
C526 C516 1.476 . S
C526 N521 1.318 . S
C526 C525 1.396 . S
H527 C522 0.929 . S
O528 Mn504 2.385 . S
O528 C506 1.234 . S
O529 Mn504 2.209 . S
O529 Mn505 2.215 . S
O529 C506 1.283 . S
O530 Mn504 2.094 . S
O530 C508 1.240 . S
O531 Mn505 2.117 . S
O531 C508 1.264 . S
C532 C525 1.403 . S
C532 C533 1.399 . S
C532 H538 0.929 . S
C533 C513 1.449 . S
C533 C532 1.399 . S
C533 H539 0.930 . S
H534 C514 0.931 . S
H535 C515 0.930 . S
H536 C523 0.931 . S
H537 C524 0.929 . S
H538 C532 0.929 . S
H539 C533 0.930 . S
Mn540 O545 2.095 . S
Mn540 O555 2.162 . S
Mn540 O556 2.297 . S
Mn540 O564 2.385 . S
Mn540 O565 2.209 . S
Mn540 O566 2.094 . S
Mn541 O546 2.121 . S
Mn541 N548 2.257 . S
Mn541 N557 2.282 . S
Mn541 O565 2.215 . S
Mn541 O567 2.117 . S
C542 O564 1.234 . S
C542 O565 1.283 . S
C543 O555 1.281 . S
C543 O556 1.236 . S
C544 O566 1.240 . S
C544 O567 1.264 . S
O545 Mn540 2.095 . S
O545 C554 1.250 . S
O546 Mn541 2.121 . S
O546 C554 1.258 . S
C547 N548 1.326 . S
C547 C551 1.460 . S
C547 H553 0.929 . S
N548 Mn541 2.257 . S
N548 C547 1.326 . S
N548 C552 1.362 . S
C549 C550 1.258 . S
C549 C552 1.431 . S
C549 C569 1.449 . S
C550 C549 1.258 . S
C550 C551 1.477 . S
C550 H570 0.931 . S
C551 C547 1.460 . S
C551 C550 1.477 . S
C551 H571 0.930 . S
C552 N548 1.362 . S
C552 C549 1.431 . S
C552 C562 1.476 . S
H553 C547 0.929 . S
C554 O545 1.250 . S
C554 O546 1.258 . S
O555 Mn540 2.162 . S
O555 C543 1.281 . S
O556 Mn540 2.297 . S
O556 C543 1.236 . S
N557 Mn541 2.282 . S
N557 C558 1.328 . S
N557 C562 1.318 . S
C558 N557 1.328 . S
C558 C559 1.457 . S
C558 H563 0.929 . S
C559 C558 1.457 . S
C559 C560 1.291 . S
C559 H572 0.931 . S
C560 C559 1.291 . S
C560 C561 1.373 . S
C560 H573 0.929 . S
C561 C560 1.373 . S
C561 C562 1.396 . S
C561 C568 1.403 . S
C562 C552 1.476 . S
C562 N557 1.318 . S
C562 C561 1.396 . S
H563 C558 0.929 . S
O564 Mn540 2.385 . S
O564 C542 1.234 . S
O565 Mn540 2.209 . S
O565 Mn541 2.215 . S
O565 C542 1.283 . S
O566 Mn540 2.094 . S
O566 C544 1.240 . S
O567 Mn541 2.117 . S
O567 C544 1.264 . S
C568 C561 1.403 . S
C568 C569 1.399 . S
C568 H574 0.929 . S
C569 C549 1.449 . S
C569 C568 1.399 . S
C569 H575 0.930 . S
H570 C550 0.931 . S
H571 C551 0.930 . S
H572 C559 0.931 . S
H573 C560 0.929 . S
H574 C568 0.929 . S
H575 C569 0.930 . S
H576 C582 0.930 . S
H577 C586 0.930 . S
H578 C591 0.929 . S
H579 C589 0.929 . S
H580 C584 0.929 . S
H581 C590 0.929 . S
C582 H576 0.930 . S
C582 C583 1.367 . S
C582 C590 1.378 . S
C583 C582 1.367 . S
C583 C591 1.433 . S
C584 H580 0.929 . S
C584 C586 1.378 . S
C584 C588 1.350 . S
C585 C588 1.463 . S
C585 C590 1.350 . S
C585 N593 1.427 . S
C586 H577 0.930 . S
C586 C584 1.378 . S
C586 C587 1.367 . S
C587 C586 1.367 . S
C587 C589 1.433 . S
C588 C584 1.350 . S
C588 C585 1.463 . S
C588 N592 1.427 . S
C589 H579 0.929 . S
C589 C587 1.433 . S
C589 N592 1.384 . S
C590 H581 0.929 . S
C590 C582 1.378 . S
C590 C585 1.350 . S
C591 H578 0.929 . S
C591 C583 1.433 . S
C591 N593 1.384 . S
N592 C588 1.427 . S
N592 C589 1.384 . S
N593 C585 1.427 . S
N593 C591 1.384 . S
H594 C600 0.930 . S
H595 C604 0.930 . S
H596 C609 0.928 1_545 S
H597 C607 0.928 1_565 S
H598 C602 0.929 . S
H599 C608 0.929 . S
C600 H594 0.930 . S
C600 C601 1.367 . S
C600 C608 1.378 . S
C601 C600 1.367 . S
C601 C609 1.433 . S
C602 H598 0.929 . S
C602 C604 1.378 . S
C602 C606 1.350 . S
C603 C606 1.463 1_665 S
C603 C608 1.350 . S
C603 N611 1.427 1_565 S
C604 H595 0.930 . S
C604 C602 1.378 . S
C604 C605 1.367 . S
C605 C604 1.367 . S
C605 C607 1.433 . S
C606 C602 1.350 . S
C606 C603 1.463 1_445 S
C606 N610 1.427 1_545 S
C607 H597 0.928 1_545 S
C607 C605 1.433 . S
C607 N610 1.384 1_545 S
C608 H599 0.929 . S
C608 C600 1.378 . S
C608 C603 1.350 . S
C609 H596 0.928 1_565 S
C609 C601 1.433 . S
C609 N611 1.384 1_565 S
N610 C606 1.427 1_565 S
N610 C607 1.384 1_565 S
N611 C603 1.427 1_545 S
N611 C609 1.384 1_545 S
H612 C618 0.930 . S
H613 C622 0.930 . S
H614 C627 0.921 1_545 S
H615 C625 0.921 1_565 S
H616 C620 0.929 . S
H617 C626 0.929 . S
C618 H612 0.930 . S
C618 C619 1.367 . S
C618 C626 1.378 . S
C619 C618 1.367 . S
C619 C627 1.433 . S
C620 H616 0.929 . S
C620 C622 1.378 . S
C620 C624 1.350 . S
C621 C624 1.463 1_565 S
C621 C626 1.350 . S
C621 N629 1.427 1_565 S
C622 H613 0.930 . S
C622 C620 1.378 . S
C622 C623 1.367 . S
C623 C622 1.367 . S
C623 C625 1.433 . S
C624 C620 1.350 . S
C624 C621 1.463 1_545 S
C624 N628 1.427 1_545 S
C625 H615 0.921 1_545 S
C625 C623 1.433 . S
C625 N628 1.384 1_545 S
C626 H617 0.929 . S
C626 C618 1.378 . S
C626 C621 1.350 . S
C627 H614 0.921 1_565 S
C627 C619 1.433 . S
C627 N629 1.384 1_565 S
N628 C624 1.427 1_565 S
N628 C625 1.384 1_565 S
N629 C621 1.427 1_545 S
N629 C627 1.384 1_545 S
H630 C636 0.930 . S
H631 C640 0.930 . S
H632 C645 0.929 . S
H633 C643 0.929 . S
H634 C638 0.929 1_455 S
H635 C644 0.929 1_655 S
C636 H630 0.930 . S
C636 C637 1.367 . S
C636 C644 1.378 . S
C637 C636 1.367 . S
C637 C645 1.433 . S
C638 H634 0.929 1_655 S
C638 C640 1.378 . S
C638 C642 1.350 . S
C639 C642 1.463 1_455 S
C639 C644 1.350 . S
C639 N647 1.427 . S
C640 H631 0.930 . S
C640 C638 1.378 . S
C640 C641 1.367 . S
C641 C640 1.367 . S
C641 C643 1.433 . S
C642 C638 1.350 . S
C642 C639 1.463 1_655 S
C642 N646 1.427 . S
C643 H633 0.929 . S
C643 C641 1.433 . S
C643 N646 1.384 . S
C644 H635 0.929 1_455 S
C644 C636 1.378 . S
C644 C639 1.350 . S
C645 H632 0.929 . S
C645 C637 1.433 . S
C645 N647 1.384 . S
N646 C642 1.427 . S
N646 C643 1.384 . S
N647 C639 1.427 . S
N647 C645 1.384 . S
H648 C654 0.930 . S
H649 C658 0.930 . S
H650 C663 0.929 . S
H651 C661 0.929 . S
H652 C656 0.929 . S
H653 C662 0.929 . S
C654 H648 0.930 . S
C654 C655 1.367 . S
C654 C662 1.378 . S
C655 C654 1.367 . S
C655 C663 1.433 . S
C656 H652 0.929 . S
C656 C658 1.378 . S
C656 C660 1.350 . S
C657 C660 1.463 . S
C657 C662 1.350 . S
C657 N665 1.427 . S
C658 H649 0.930 . S
C658 C656 1.378 . S
C658 C659 1.367 . S
C659 C658 1.367 . S
C659 C661 1.433 . S
C660 C656 1.350 . S
C660 C657 1.463 . S
C660 N664 1.427 . S
C661 H651 0.929 . S
C661 C659 1.433 . S
C661 N664 1.384 . S
C662 H653 0.929 . S
C662 C654 1.378 . S
C662 C657 1.350 . S
C663 H650 0.929 . S
C663 C655 1.433 . S
C663 N665 1.384 . S
N664 C660 1.427 . S
N664 C661 1.384 . S
N665 C657 1.427 . S
N665 C663 1.384 . S
H666 C672 0.930 . S
H667 C676 0.930 . S
H668 C681 0.929 . S
H669 C679 0.929 . S
H670 C674 0.929 . S
H671 C680 0.929 . S
C672 H666 0.930 . S
C672 C673 1.367 . S
C672 C680 1.378 1_545 S
C673 C672 1.367 . S
C673 C681 1.433 . S
C674 H670 0.929 . S
C674 C676 1.378 1_545 S
C674 C678 1.350 1_545 S
C675 C678 1.463 1_545 S
C675 C680 1.350 1_545 S
C675 N683 1.427 . S
C676 H667 0.930 . S
C676 C674 1.378 1_565 S
C676 C677 1.367 . S
C677 C676 1.367 . S
C677 C679 1.433 . S
C678 C674 1.350 1_565 S
C678 C675 1.463 1_565 S
C678 N682 1.427 . S
C679 H669 0.929 . S
C679 C677 1.433 . S
C679 N682 1.384 . S
C680 H671 0.929 . S
C680 C672 1.378 1_565 S
C680 C675 1.350 1_565 S
C681 H668 0.929 . S
C681 C673 1.433 . S
C681 N683 1.384 . S
N682 C678 1.427 . S
N682 C679 1.384 . S
N683 C675 1.427 . S
N683 C681 1.384 . S
H684 C690 0.930 . S
H685 C694 0.930 . S
H686 C699 0.929 . S
H687 C697 0.929 . S
H688 C692 0.930 . S
H689 C698 0.929 . S
C690 H684 0.930 . S
C690 C691 1.367 . S
C690 C698 1.378 . S
C691 C690 1.367 . S
C691 C699 1.433 . S
C692 H688 0.930 . S
C692 C694 1.378 . S
C692 C696 1.350 . S
C693 C696 1.463 1_655 S
C693 C698 1.350 . S
C693 N701 1.427 . S
C694 H685 0.930 . S
C694 C692 1.378 . S
C694 C695 1.367 . S
C695 C694 1.367 . S
C695 C697 1.433 . S
C696 C692 1.350 . S
C696 C693 1.463 1_455 S
C696 N700 1.427 . S
C697 H687 0.929 . S
C697 C695 1.433 . S
C697 N700 1.384 . S
C698 H689 0.929 . S
C698 C690 1.378 . S
C698 C693 1.350 . S
C699 H686 0.929 . S
C699 C691 1.433 . S
C699 N701 1.384 . S
N700 C696 1.427 . S
N700 C697 1.384 . S
N701 C693 1.427 . S
N701 C699 1.384 . S
H702 C708 0.930 . S
H703 C712 0.930 . S
H704 C717 0.929 . S
H705 C715 0.929 . S
H706 C710 0.929 . S
H707 C716 0.929 . S
C708 H702 0.930 . S
C708 C709 1.367 . S
C708 C716 1.378 . S
C709 C708 1.367 . S
C709 C717 1.433 . S
C710 H706 0.929 . S
C710 C712 1.378 . S
C710 C714 1.350 . S
C711 C714 1.463 1_554 S
C711 C716 1.350 . S
C711 N719 1.428 . S
C712 H703 0.930 . S
C712 C710 1.378 . S
C712 C713 1.367 . S
C713 C712 1.367 . S
C713 C715 1.433 . S
C714 C710 1.350 . S
C714 C711 1.463 1_556 S
C714 N718 1.428 . S
C715 H705 0.929 . S
C715 C713 1.433 . S
C715 N718 1.385 . S
C716 H707 0.929 . S
C716 C708 1.378 . S
C716 C711 1.350 . S
C717 H704 0.929 . S
C717 C709 1.433 . S
C717 N719 1.385 . S
N718 C714 1.428 . S
N718 C715 1.385 . S
N719 C711 1.428 . S
N719 C717 1.385 . S
H720 C726 0.930 . S
H721 C730 0.930 . S
H722 C735 0.929 . S
H723 C733 0.929 . S
H724 C728 0.929 1_455 S
H725 C734 0.929 1_655 S
C726 H720 0.930 . S
C726 C727 1.367 . S
C726 C734 1.378 . S
C727 C726 1.367 . S
C727 C735 1.433 . S
C728 H724 0.929 1_655 S
C728 C730 1.378 . S
C728 C732 1.350 . S
C729 C732 1.463 1_456 S
C729 C734 1.350 . S
C729 N737 1.427 . S
C730 H721 0.930 . S
C730 C728 1.378 . S
C730 C731 1.367 . S
C731 C730 1.367 . S
C731 C733 1.433 . S
C732 C728 1.350 . S
C732 C729 1.463 1_654 S
C732 N736 1.427 . S
C733 H723 0.929 . S
C733 C731 1.433 . S
C733 N736 1.384 . S
C734 H725 0.929 1_455 S
C734 C726 1.378 . S
C734 C729 1.350 . S
C735 H722 0.929 . S
C735 C727 1.433 . S
C735 N737 1.384 . S
N736 C732 1.427 . S
N736 C733 1.384 . S
N737 C729 1.427 . S
N737 C735 1.384 . S
H738 C744 0.930 . S
H739 C748 0.930 . S
H740 C753 0.929 . S
H741 C751 0.929 . S
H742 C746 0.929 . S
H743 C752 0.929 . S
C744 H738 0.930 . S
C744 C745 1.367 . S
C744 C752 1.378 . S
C745 C744 1.367 . S
C745 C753 1.433 . S
C746 H742 0.929 . S
C746 C748 1.378 . S
C746 C750 1.350 . S
C747 C750 1.463 . S
C747 C752 1.350 . S
C747 N755 1.427 . S
C748 H739 0.930 . S
C748 C746 1.378 . S
C748 C749 1.367 . S
C749 C748 1.367 . S
C749 C751 1.433 . S
C750 C746 1.350 . S
C750 C747 1.463 . S
C750 N754 1.427 . S
C751 H741 0.929 . S
C751 C749 1.433 . S
C751 N754 1.384 . S
C752 H743 0.929 . S
C752 C744 1.378 . S
C752 C747 1.350 . S
C753 H740 0.929 . S
C753 C745 1.433 . S
C753 N755 1.384 . S
N754 C750 1.427 . S
N754 C751 1.384 . S
N755 C747 1.427 . S
N755 C753 1.384 . S
H756 C762 0.930 . S
H757 C766 0.930 . S
H758 C771 0.929 . S
H759 C769 0.929 . S
H760 C764 0.929 . S
H761 C770 0.929 . S
C762 H756 0.930 . S
C762 C763 1.367 . S
C762 C770 1.378 . S
C763 C762 1.367 . S
C763 C771 1.433 . S
C764 H760 0.929 . S
C764 C766 1.378 . S
C764 C768 1.350 . S
C765 C768 1.463 1_556 S
C765 C770 1.350 . S
C765 N773 1.427 . S
C766 H757 0.930 . S
C766 C764 1.378 . S
C766 C767 1.367 . S
C767 C766 1.367 . S
C767 C769 1.433 . S
C768 C764 1.350 . S
C768 C765 1.463 1_554 S
C768 N772 1.427 . S
C769 H759 0.929 . S
C769 C767 1.433 . S
C769 N772 1.384 . S
C770 H761 0.929 . S
C770 C762 1.378 . S
C770 C765 1.350 . S
C771 H758 0.929 . S
C771 C763 1.433 . S
C771 N773 1.384 . S
N772 C768 1.427 . S
N772 C769 1.384 . S
N773 C765 1.427 . S
N773 C771 1.384 . S
H774 C780 0.930 . S
H775 C784 0.930 . S
H776 C789 0.929 . S
H777 C787 0.929 . S
H778 C782 0.929 . S
H779 C788 0.929 . S
C780 H774 0.930 . S
C780 C781 1.367 . S
C780 C788 1.378 . S
C781 C780 1.367 . S
C781 C789 1.433 . S
C782 H778 0.929 . S
C782 C784 1.378 . S
C782 C786 1.350 . S
C783 C786 1.463 . S
C783 C788 1.350 . S
C783 N791 1.427 . S
C784 H775 0.930 . S
C784 C782 1.378 . S
C784 C785 1.367 . S
C785 C784 1.367 . S
C785 C787 1.433 . S
C786 C782 1.350 . S
C786 C783 1.463 . S
C786 N790 1.427 . S
C787 H777 0.929 . S
C787 C785 1.433 . S
C787 N790 1.384 . S
C788 H779 0.929 . S
C788 C780 1.378 . S
C788 C783 1.350 . S
C789 H776 0.929 . S
C789 C781 1.433 . S
C789 N791 1.384 . S
N790 C786 1.427 . S
N790 C787 1.384 . S
N791 C783 1.427 . S
N791 C789 1.384 . S
H792 C798 0.930 . S
H793 C802 0.930 . S
H794 C807 0.929 1_565 S
H795 C805 0.929 1_545 S
H796 C800 0.929 . S
H797 C806 0.929 . S
C798 H792 0.930 . S
C798 C799 1.367 . S
C798 C806 1.378 . S
C799 C798 1.367 . S
C799 C807 1.433 . S
C800 H796 0.929 . S
C800 C802 1.378 . S
C800 C804 1.350 . S
C801 C804 1.463 1_546 S
C801 C806 1.350 . S
C801 N809 1.427 1_545 S
C802 H793 0.930 . S
C802 C800 1.378 . S
C802 C803 1.367 . S
C803 C802 1.367 . S
C803 C805 1.433 . S
C804 C800 1.350 . S
C804 C801 1.463 1_564 S
C804 N808 1.427 1_565 S
C805 H795 0.929 1_565 S
C805 C803 1.433 . S
C805 N808 1.384 1_565 S
C806 H797 0.929 . S
C806 C798 1.378 . S
C806 C801 1.350 . S
C807 H794 0.929 1_545 S
C807 C799 1.433 . S
C807 N809 1.384 1_545 S
N808 C804 1.427 1_545 S
N808 C805 1.384 1_545 S
N809 C801 1.427 1_565 S
N809 C807 1.384 1_565 S
H810 C816 0.930 . S
H811 C820 0.930 . S
H812 C825 0.929 . S
H813 C823 0.929 . S
H814 C818 0.929 . S
H815 C824 0.929 . S
C816 H810 0.930 . S
C816 C817 1.367 . S
C816 C824 1.378 . S
C817 C816 1.367 . S
C817 C825 1.433 . S
C818 H814 0.929 . S
C818 C820 1.378 . S
C818 C822 1.350 . S
C819 C822 1.463 . S
C819 C824 1.350 . S
C819 N827 1.427 . S
C820 H811 0.930 . S
C820 C818 1.378 . S
C820 C821 1.367 . S
C821 C820 1.367 . S
C821 C823 1.433 . S
C822 C818 1.350 . S
C822 C819 1.463 . S
C822 N826 1.427 . S
C823 H813 0.929 . S
C823 C821 1.433 . S
C823 N826 1.384 . S
C824 H815 0.929 . S
C824 C816 1.378 . S
C824 C819 1.350 . S
C825 H812 0.929 . S
C825 C817 1.433 . S
C825 N827 1.384 . S
N826 C822 1.427 . S
N826 C823 1.384 . S
N827 C819 1.427 . S
N827 C825 1.384 . S
H828 C834 0.930 . S
H829 C838 0.930 . S
H830 C843 0.929 . S
H831 C841 0.929 . S
H832 C836 0.929 . S
H833 C842 0.929 . S
C834 H828 0.930 . S
C834 C835 1.367 . S
C834 C842 1.378 . S
C835 C834 1.367 . S
C835 C843 1.433 . S
C836 H832 0.929 . S
C836 C838 1.378 . S
C836 C840 1.350 . S
C837 C840 1.463 . S
C837 C842 1.350 . S
C837 N845 1.427 . S
C838 H829 0.930 . S
C838 C836 1.378 . S
C838 C839 1.367 . S
C839 C838 1.367 . S
C839 C841 1.433 . S
C840 C836 1.350 . S
C840 C837 1.463 . S
C840 N844 1.427 . S
C841 H831 0.929 . S
C841 C839 1.433 . S
C841 N844 1.384 . S
C842 H833 0.929 . S
C842 C834 1.378 . S
C842 C837 1.350 . S
C843 H830 0.929 . S
C843 C835 1.433 . S
C843 N845 1.384 . S
N844 C840 1.427 . S
N844 C841 1.384 . S
N845 C837 1.427 . S
N845 C843 1.384 . S
H846 C852 0.930 . S
H847 C856 0.930 . S
H848 C861 0.929 . S
H849 C859 0.929 . S
H850 C854 0.929 . S
H851 C860 0.929 . S
C852 H846 0.930 . S
C852 C853 1.367 . S
C852 C860 1.378 . S
C853 C852 1.367 . S
C853 C861 1.433 . S
C854 H850 0.929 . S
C854 C856 1.378 . S
C854 C858 1.350 . S
C855 C858 1.463 . S
C855 C860 1.350 . S
C855 N863 1.427 . S
C856 H847 0.930 . S
C856 C854 1.378 . S
C856 C857 1.367 . S
C857 C856 1.367 . S
C857 C859 1.433 . S
C858 C854 1.350 . S
C858 C855 1.463 . S
C858 N862 1.427 . S
C859 H849 0.929 . S
C859 C857 1.433 . S
C859 N862 1.384 . S
C860 H851 0.929 . S
C860 C852 1.378 . S
C860 C855 1.350 . S
C861 H848 0.929 . S
C861 C853 1.433 . S
C861 N863 1.384 . S
N862 C858 1.427 . S
N862 C859 1.384 . S
N863 C855 1.427 . S
N863 C861 1.384 . S
H864 C870 0.930 . S
H865 C874 0.930 . S
H866 C879 0.929 . S
H867 C877 0.929 1_545 S
H868 C872 0.929 . S
H869 C878 0.929 . S
C870 H864 0.930 . S
C870 C871 1.367 . S
C870 C878 1.378 . S
C871 C870 1.367 . S
C871 C879 1.433 . S
C872 H868 0.929 . S
C872 C874 1.378 . S
C872 C876 1.350 . S
C873 C876 1.463 . S
C873 C878 1.350 . S
C873 N881 1.427 . S
C874 H865 0.930 . S
C874 C872 1.378 . S
C874 C875 1.367 . S
C875 C874 1.367 . S
C875 C877 1.433 . S
C876 C872 1.350 . S
C876 C873 1.463 . S
C876 N880 1.427 . S
C877 H867 0.929 1_565 S
C877 C875 1.433 . S
C877 N880 1.384 . S
C878 H869 0.929 . S
C878 C870 1.378 . S
C878 C873 1.350 . S
C879 H866 0.929 . S
C879 C871 1.433 . S
C879 N881 1.384 . S
N880 C876 1.427 . S
N880 C877 1.384 . S
N881 C873 1.427 . S
N881 C879 1.384 . S
H882 C888 0.930 . S
H883 C892 0.930 . S
H884 C897 0.929 . S
H885 C895 0.929 . S
H886 C890 0.929 . S
H887 C896 0.929 . S
C888 H882 0.930 . S
C888 C889 1.367 . S
C888 C896 1.378 . S
C889 C888 1.367 . S
C889 C897 1.433 . S
C890 H886 0.929 . S
C890 C892 1.378 . S
C890 C894 1.350 . S
C891 C894 1.463 . S
C891 C896 1.350 . S
C891 N899 1.427 . S
C892 H883 0.930 . S
C892 C890 1.378 . S
C892 C893 1.367 . S
C893 C892 1.367 . S
C893 C895 1.433 . S
C894 C890 1.350 . S
C894 C891 1.463 . S
C894 N898 1.427 . S
C895 H885 0.929 . S
C895 C893 1.433 . S
C895 N898 1.384 . S
C896 H887 0.929 . S
C896 C888 1.378 . S
C896 C891 1.350 . S
C897 H884 0.929 . S
C897 C889 1.433 . S
C897 N899 1.384 . S
N898 C894 1.427 . S
N898 C895 1.384 . S
N899 C891 1.427 . S
N899 C897 1.384 . S
H900 C906 0.930 . S
H901 C910 0.930 . S
H902 C915 0.929 . S
H903 C913 0.929 . S
H904 C908 0.929 . S
H905 C914 0.929 . S
C906 H900 0.930 . S
C906 C907 1.367 . S
C906 C914 1.378 . S
C907 C906 1.367 . S
C907 C915 1.433 . S
C908 H904 0.929 . S
C908 C910 1.378 . S
C908 C912 1.350 . S
C909 C912 1.463 . S
C909 C914 1.350 . S
C909 N917 1.427 . S
C910 H901 0.930 . S
C910 C908 1.378 . S
C910 C911 1.367 . S
C911 C910 1.367 . S
C911 C913 1.433 . S
C912 C908 1.350 . S
C912 C909 1.463 . S
C912 N916 1.427 . S
C913 H903 0.929 . S
C913 C911 1.433 . S
C913 N916 1.384 . S
C914 H905 0.929 . S
C914 C906 1.378 . S
C914 C909 1.350 . S
C915 H902 0.929 . S
C915 C907 1.433 . S
C915 N917 1.384 . S
N916 C912 1.427 . S
N916 C913 1.384 . S
N917 C909 1.427 . S
N917 C915 1.384 . S
H918 C924 0.930 . S
H919 C928 0.930 . S
H920 C933 0.929 . S
H921 C931 0.929 1_545 S
H922 C926 0.929 . S
H923 C932 0.929 . S
C924 H918 0.930 . S
C924 C925 1.367 . S
C924 C932 1.378 . S
C925 C924 1.367 . S
C925 C933 1.433 . S
C926 H922 0.929 . S
C926 C928 1.378 . S
C926 C930 1.350 . S
C927 C930 1.463 . S
C927 C932 1.350 . S
C927 N935 1.427 . S
C928 H919 0.930 . S
C928 C926 1.378 . S
C928 C929 1.367 . S
C929 C928 1.367 . S
C929 C931 1.433 . S
C930 C926 1.350 . S
C930 C927 1.463 . S
C930 N934 1.427 . S
C931 H921 0.929 1_565 S
C931 C929 1.433 . S
C931 N934 1.384 . S
C932 H923 0.929 . S
C932 C924 1.378 . S
C932 C927 1.350 . S
C933 H920 0.929 . S
C933 C925 1.433 . S
C933 N935 1.384 . S
N934 C930 1.427 . S
N934 C931 1.384 . S
N935 C927 1.427 . S
N935 C933 1.384 . S
H936 C942 0.930 . S
H937 C946 0.930 . S
H938 C951 0.929 . S
H939 C949 0.929 . S
H940 C944 0.929 . S
H941 C950 0.929 . S
C942 H936 0.930 . S
C942 C943 1.367 . S
C942 C950 1.378 . S
C943 C942 1.367 . S
C943 C951 1.433 . S
C944 H940 0.929 . S
C944 C946 1.378 1_545 S
C944 C948 1.350 . S
C945 C948 1.463 . S
C945 C950 1.350 . S
C945 N953 1.427 . S
C946 H937 0.930 . S
C946 C944 1.378 1_565 S
C946 C947 1.367 1_565 S
C947 C946 1.367 1_545 S
C947 C949 1.433 . S
C948 C944 1.350 . S
C948 C945 1.463 . S
C948 N952 1.427 . S
C949 H939 0.929 . S
C949 C947 1.433 . S
C949 N952 1.384 . S
C950 H941 0.929 . S
C950 C942 1.378 . S
C950 C945 1.350 . S
C951 H938 0.929 . S
C951 C943 1.433 . S
C951 N953 1.384 . S
N952 C948 1.427 . S
N952 C949 1.384 . S
N953 C945 1.427 . S
N953 C951 1.384 . S
H954 C960 0.930 . S
H955 C964 0.930 . S
H956 C969 0.929 . S
H957 C967 0.929 . S
H958 C962 0.929 . S
H959 C968 0.929 . S
C960 H954 0.930 . S
C960 C961 1.367 . S
C960 C968 1.378 . S
C961 C960 1.367 . S
C961 C969 1.433 . S
C962 H958 0.929 . S
C962 C964 1.378 . S
C962 C966 1.350 . S
C963 C966 1.463 . S
C963 C968 1.350 . S
C963 N971 1.427 . S
C964 H955 0.930 . S
C964 C962 1.378 . S
C964 C965 1.367 . S
C965 C964 1.367 . S
C965 C967 1.433 . S
C966 C962 1.350 . S
C966 C963 1.463 . S
C966 N970 1.427 . S
C967 H957 0.929 . S
C967 C965 1.433 . S
C967 N970 1.384 . S
C968 H959 0.929 . S
C968 C960 1.378 . S
C968 C963 1.350 . S
C969 H956 0.929 . S
C969 C961 1.433 . S
C969 N971 1.384 . S
N970 C966 1.427 . S
N970 C967 1.384 . S
N971 C963 1.427 . S
N971 C969 1.384 . S
H972 C978 0.930 . S
H973 C982 0.930 . S
H974 C987 0.929 . S
H975 C985 0.929 . S
H976 C980 0.929 . S
H977 C986 0.929 . S
C978 H972 0.930 . S
C978 C979 1.367 . S
C978 C986 1.378 . S
C979 C978 1.367 . S
C979 C987 1.433 . S
C980 H976 0.929 . S
C980 C982 1.378 . S
C980 C984 1.350 . S
C981 C984 1.463 . S
C981 C986 1.350 . S
C981 N989 1.427 . S
C982 H973 0.930 . S
C982 C980 1.378 . S
C982 C983 1.367 . S
C983 C982 1.367 . S
C983 C985 1.433 . S
C984 C980 1.350 . S
C984 C981 1.463 . S
C984 N988 1.427 . S
C985 H975 0.929 . S
C985 C983 1.433 . S
C985 N988 1.384 . S
C986 H977 0.929 . S
C986 C978 1.378 . S
C986 C981 1.350 . S
C987 H974 0.929 . S
C987 C979 1.433 . S
C987 N989 1.384 . S
N988 C984 1.427 . S
N988 C985 1.384 . S
N989 C981 1.427 . S
N989 C987 1.384 . S
H990 C996 0.930 . S
H991 C1000 0.930 . S
H992 C1005 0.929 . S
H993 C1003 0.929 . S
H994 C998 0.929 . S
H995 C1004 0.929 . S
C996 H990 0.930 . S
C996 C997 1.367 . S
C996 C1004 1.378 . S
C997 C996 1.367 . S
C997 C1005 1.433 . S
C998 H994 0.929 . S
C998 C1000 1.378 . S
C998 C1002 1.350 . S
C999 C1002 1.463 . S
C999 C1004 1.350 . S
C999 N1007 1.427 . S
C1000 H991 0.930 . S
C1000 C998 1.378 . S
C1000 C1001 1.367 . S
C1001 C1000 1.367 . S
C1001 C1003 1.433 . S
C1002 C998 1.350 . S
C1002 C999 1.463 . S
C1002 N1006 1.427 . S
C1003 H993 0.929 . S
C1003 C1001 1.433 . S
C1003 N1006 1.384 . S
C1004 H995 0.929 . S
C1004 C996 1.378 . S
C1004 C999 1.350 . S
C1005 H992 0.929 . S
C1005 C997 1.433 . S
C1005 N1007 1.384 . S
N1006 C1002 1.427 . S
N1006 C1003 1.384 . S
N1007 C999 1.427 . S
N1007 C1005 1.384 . S
H1008 C1014 0.930 . S
H1009 C1018 0.930 . S
H1010 C1023 0.929 . S
H1011 C1021 0.929 . S
H1012 C1016 0.929 . S
H1013 C1022 0.929 . S
C1014 H1008 0.930 . S
C1014 C1015 1.367 . S
C1014 C1022 1.378 . S
C1015 C1014 1.367 . S
C1015 C1023 1.433 . S
C1016 H1012 0.929 . S
C1016 C1018 1.378 . S
C1016 C1020 1.350 . S
C1017 C1020 1.463 . S
C1017 C1022 1.350 . S
C1017 N1025 1.427 . S
C1018 H1009 0.930 . S
C1018 C1016 1.378 . S
C1018 C1019 1.367 . S
C1019 C1018 1.367 . S
C1019 C1021 1.433 1_565 S
C1020 C1016 1.350 . S
C1020 C1017 1.463 . S
C1020 N1024 1.427 . S
C1021 H1011 0.929 . S
C1021 C1019 1.433 1_545 S
C1021 N1024 1.384 1_545 S
C1022 H1013 0.929 . S
C1022 C1014 1.378 . S
C1022 C1017 1.350 . S
C1023 H1010 0.929 . S
C1023 C1015 1.433 . S
C1023 N1025 1.384 . S
N1024 C1020 1.427 . S
N1024 C1021 1.384 1_565 S
N1025 C1017 1.427 . S
N1025 C1023 1.384 . S
H1026 C1032 0.930 . S
H1027 C1036 0.930 . S
H1028 C1041 0.929 . S
H1029 C1039 0.929 . S
H1030 C1034 0.929 . S
H1031 C1040 0.929 . S
C1032 H1026 0.930 . S
C1032 C1033 1.367 . S
C1032 C1040 1.378 . S
C1033 C1032 1.367 . S
C1033 C1041 1.433 . S
C1034 H1030 0.929 . S
C1034 C1036 1.378 . S
C1034 C1038 1.350 . S
C1035 C1038 1.463 . S
C1035 C1040 1.350 . S
C1035 N1043 1.427 . S
C1036 H1027 0.930 . S
C1036 C1034 1.378 . S
C1036 C1037 1.367 . S
C1037 C1036 1.367 . S
C1037 C1039 1.433 . S
C1038 C1034 1.350 . S
C1038 C1035 1.463 . S
C1038 N1042 1.427 . S
C1039 H1029 0.929 . S
C1039 C1037 1.433 . S
C1039 N1042 1.384 . S
C1040 H1031 0.929 . S
C1040 C1032 1.378 . S
C1040 C1035 1.350 . S
C1041 H1028 0.929 . S
C1041 C1033 1.433 . S
C1041 N1043 1.384 . S
N1042 C1038 1.427 . S
N1042 C1039 1.384 . S
N1043 C1035 1.427 . S
N1043 C1041 1.384 . S
H1044 C1050 0.930 . S
H1045 C1054 0.930 . S
H1046 C1059 0.929 . S
H1047 C1057 0.929 . S
H1048 C1052 0.929 . S
H1049 C1058 0.929 . S
C1050 H1044 0.930 . S
C1050 C1051 1.367 . S
C1050 C1058 1.378 . S
C1051 C1050 1.367 . S
C1051 C1059 1.433 . S
C1052 H1048 0.929 . S
C1052 C1054 1.378 . S
C1052 C1056 1.350 . S
C1053 C1056 1.463 . S
C1053 C1058 1.350 . S
C1053 N1061 1.427 . S
C1054 H1045 0.930 . S
C1054 C1052 1.378 . S
C1054 C1055 1.367 . S
C1055 C1054 1.367 . S
C1055 C1057 1.433 . S
C1056 C1052 1.350 . S
C1056 C1053 1.463 . S
C1056 N1060 1.427 . S
C1057 H1047 0.929 . S
C1057 C1055 1.433 . S
C1057 N1060 1.384 . S
C1058 H1049 0.929 . S
C1058 C1050 1.378 . S
C1058 C1053 1.350 . S
C1059 H1046 0.929 . S
C1059 C1051 1.433 . S
C1059 N1061 1.384 . S
N1060 C1056 1.427 . S
N1060 C1057 1.384 . S
N1061 C1053 1.427 . S
N1061 C1059 1.384 . S
H1062 C1068 0.930 . S
H1063 C1072 0.930 . S
H1064 C1077 0.929 . S
H1065 C1075 0.933 . S
H1066 C1070 0.929 . S
H1067 C1076 0.929 . S
C1068 H1062 0.930 . S
C1068 C1069 1.367 . S
C1068 C1076 1.378 . S
C1069 C1068 1.367 . S
C1069 C1077 1.433 . S
C1070 H1066 0.929 . S
C1070 C1072 1.378 . S
C1070 C1074 1.350 . S
C1071 C1074 1.463 . S
C1071 C1076 1.350 . S
C1071 N1079 1.427 . S
C1072 H1063 0.930 . S
C1072 C1070 1.378 . S
C1072 C1073 1.367 . S
C1073 C1072 1.367 . S
C1073 C1075 1.432 1_565 S
C1074 C1070 1.350 . S
C1074 C1071 1.463 . S
C1074 N1078 1.427 . S
C1075 H1065 0.933 . S
C1075 C1073 1.432 1_545 S
C1075 N1078 1.380 1_545 S
C1076 H1067 0.929 . S
C1076 C1068 1.378 . S
C1076 C1071 1.350 . S
C1077 H1064 0.929 . S
C1077 C1069 1.433 . S
C1077 N1079 1.384 . S
N1078 C1074 1.427 . S
N1078 C1075 1.380 1_565 S
N1079 C1071 1.427 . S
N1079 C1077 1.384 . S
H1080 C1086 0.930 . S
H1081 C1090 0.930 1_565 S
H1082 C1095 0.929 . S
H1083 C1093 0.929 . S
H1084 C1088 0.929 . S
H1085 C1094 0.929 . S
C1086 H1080 0.930 . S
C1086 C1087 1.367 . S
C1086 C1094 1.378 . S
C1087 C1086 1.367 . S
C1087 C1095 1.433 . S
C1088 H1084 0.929 . S
C1088 C1090 1.378 . S
C1088 C1092 1.350 . S
C1089 C1092 1.463 . S
C1089 C1094 1.350 . S
C1089 N1097 1.427 . S
C1090 H1081 0.930 1_545 S
C1090 C1088 1.378 . S
C1090 C1091 1.367 . S
C1091 C1090 1.367 . S
C1091 C1093 1.433 . S
C1092 C1088 1.350 . S
C1092 C1089 1.463 . S
C1092 N1096 1.427 . S
C1093 H1083 0.929 . S
C1093 C1091 1.433 . S
C1093 N1096 1.384 . S
C1094 H1085 0.929 . S
C1094 C1086 1.378 . S
C1094 C1089 1.350 . S
C1095 H1082 0.929 . S
C1095 C1087 1.433 . S
C1095 N1097 1.384 . S
N1096 C1092 1.427 . S
N1096 C1093 1.384 . S
N1097 C1089 1.427 . S
N1097 C1095 1.384 . S
H1098 C1104 0.930 . S
H1099 C1108 0.930 . S
H1100 C1113 0.929 . S
H1101 C1111 0.929 . S
H1102 C1106 0.929 . S
H1103 C1112 0.929 . S
C1104 H1098 0.930 . S
C1104 C1105 1.367 . S
C1104 C1112 1.378 . S
C1105 C1104 1.367 . S
C1105 C1113 1.433 . S
C1106 H1102 0.929 . S
C1106 C1108 1.378 . S
C1106 C1110 1.350 . S
C1107 C1110 1.463 . S
C1107 C1112 1.350 . S
C1107 N1115 1.427 . S
C1108 H1099 0.930 . S
C1108 C1106 1.378 . S
C1108 C1109 1.367 . S
C1109 C1108 1.367 . S
C1109 C1111 1.433 . S
C1110 C1106 1.350 . S
C1110 C1107 1.463 . S
C1110 N1114 1.427 . S
C1111 H1101 0.929 . S
C1111 C1109 1.433 . S
C1111 N1114 1.384 . S
C1112 H1103 0.929 . S
C1112 C1104 1.378 . S
C1112 C1107 1.350 . S
C1113 H1100 0.929 . S
C1113 C1105 1.433 . S
C1113 N1115 1.384 . S
N1114 C1110 1.427 . S
N1114 C1111 1.384 . S
N1115 C1107 1.427 . S
N1115 C1113 1.384 . S
H1116 C1122 0.930 . S
H1117 C1126 0.930 . S
H1118 C1131 0.929 . S
H1119 C1129 0.929 . S
H1120 C1124 0.929 . S
H1121 C1130 0.929 . S
C1122 H1116 0.930 . S
C1122 C1123 1.367 . S
C1122 C1130 1.378 . S
C1123 C1122 1.367 . S
C1123 C1131 1.433 . S
C1124 H1120 0.929 . S
C1124 C1126 1.378 . S
C1124 C1128 1.350 . S
C1125 C1128 1.463 . S
C1125 C1130 1.350 . S
C1125 N1133 1.427 . S
C1126 H1117 0.930 . S
C1126 C1124 1.378 . S
C1126 C1127 1.367 . S
C1127 C1126 1.367 . S
C1127 C1129 1.433 . S
C1128 C1124 1.350 . S
C1128 C1125 1.463 . S
C1128 N1132 1.427 . S
C1129 H1119 0.929 . S
C1129 C1127 1.433 . S
C1129 N1132 1.384 . S
C1130 H1121 0.929 . S
C1130 C1122 1.378 . S
C1130 C1125 1.350 . S
C1131 H1118 0.929 . S
C1131 C1123 1.433 . S
C1131 N1133 1.384 . S
N1132 C1128 1.427 . S
N1132 C1129 1.384 . S
N1133 C1125 1.427 . S
N1133 C1131 1.384 . S
H1134 C1140 0.930 . S
H1135 C1144 0.930 . S
H1136 C1149 0.929 . S
H1137 C1147 0.929 1_565 S
H1138 C1142 0.929 . S
H1139 C1148 0.929 . S
C1140 H1134 0.930 . S
C1140 C1141 1.367 . S
C1140 C1148 1.378 . S
C1141 C1140 1.367 . S
C1141 C1149 1.433 . S
C1142 H1138 0.929 . S
C1142 C1144 1.378 . S
C1142 C1146 1.350 . S
C1143 C1146 1.463 . S
C1143 C1148 1.350 . S
C1143 N1151 1.427 . S
C1144 H1135 0.930 . S
C1144 C1142 1.378 . S
C1144 C1145 1.367 . S
C1145 C1144 1.367 . S
C1145 C1147 1.433 . S
C1146 C1142 1.350 . S
C1146 C1143 1.463 . S
C1146 N1150 1.427 . S
C1147 H1137 0.929 1_545 S
C1147 C1145 1.433 . S
C1147 N1150 1.384 . S
C1148 H1139 0.929 . S
C1148 C1140 1.378 . S
C1148 C1143 1.350 . S
C1149 H1136 0.929 . S
C1149 C1141 1.433 . S
C1149 N1151 1.384 . S
N1150 C1146 1.427 . S
N1150 C1147 1.384 . S
N1151 C1143 1.427 . S
N1151 C1149 1.384 . S
C583 C518 1.448 . S
C587 C14 1.448 . S
C601 C75 1.499 . S
C605 C3 1.499 . S
C619 C410 1.459 . S
C623 C50 1.459 . S
C637 C39 1.500 . S
C641 C255 1.500 . S
C655 C86 1.455 . S
C659 C446 1.455 . S
C673 C338 1.446 . S
C677 C122 1.446 . S
C691 C111 1.499 . S
C695 C183 1.499 . S
C709 C374 1.447 . S
C713 C158 1.447 . S
C727 C147 1.500 . S
C731 C219 1.500 . S
C745 C554 1.447 . S
C749 C194 1.447 . S
C763 C302 1.447 . S
C767 C230 1.447 . S
C781 C482 1.453 . S
C785 C266 1.453 . S
C799 C291 1.500 . S
C803 C363 1.500 . S
C817 C543 1.499 . S
C821 C327 1.499 . S
C835 C399 1.499 . S
C839 C471 1.499 . S
C853 C507 1.500 . S
C857 C435 1.500 . S
C871 C182 1.326 . S
C875 C2 1.331 1_565 S
C889 C4 1.383 . S
C893 C184 1.388 . S
C907 C38 1.325 . S
C911 C146 1.331 . S
C925 C148 1.384 . S
C929 C40 1.388 1_565 S
C943 C254 1.323 . S
C947 C74 1.326 1_545 S
C961 C256 1.388 . S
C965 C76 1.386 . S
C979 C218 1.323 . S
C983 C110 1.325 . S
C997 C112 1.382 1_545 S
C1001 C220 1.388 . S
C1015 C470 1.328 . S
C1019 C290 1.329 1_565 S
C1033 C292 1.380 . S
C1037 C472 1.384 . S
C1051 C326 1.326 . S
C1055 C434 1.331 . S
C1069 C436 1.387 . S
C1073 C328 1.387 1_565 S
C1087 C542 1.322 . S
C1091 C362 1.327 1_545 S
C1105 C544 1.382 . S
C1109 C364 1.381 . S
C1123 C398 1.331 . S
C1127 C506 1.326 . S
C1141 C508 1.384 . S
C1145 C400 1.388 1_545 S
