# Generated by pormake.
# Topology uki, (4)-cn, num edge types: 1
# Building blocks:
#     Node 0, Type 0, BuildingBlock: QUQFOY_clean_sbu_3, # of connection points: 4
#     Node 1, Type 0, BuildingBlock: QUQFOY_clean_sbu_3, # of connection points: 4
#     Node 2, Type 0, BuildingBlock: QUQFOY_clean_sbu_3, # of connection points: 4
#     Node 3, Type 0, BuildingBlock: QUQFOY_clean_sbu_3, # of connection points: 4
#     Node 4, Type 0, BuildingBlock: QUQFOY_clean_sbu_3, # of connection points: 4
#     Node 5, Type 0, BuildingBlock: QUQFOY_clean_sbu_3, # of connection points: 4
#     Node 6, Type 0, BuildingBlock: QUQFOY_clean_sbu_3, # of connection points: 4
#     Node 7, Type 0, BuildingBlock: QUQFOY_clean_sbu_3, # of connection points: 4
#     Node 8, Type 0, BuildingBlock: QUQFOY_clean_sbu_3, # of connection points: 4
#     Node 9, Type 0, BuildingBlock: QUQFOY_clean_sbu_3, # of connection points: 4
#     Node 10, Type 0, BuildingBlock: QUQFOY_clean_sbu_3, # of connection points: 4
#     Node 11, Type 0, BuildingBlock: QUQFOY_clean_sbu_3, # of connection points: 4
#     Node 12, Type 0, BuildingBlock: QUQFOY_clean_sbu_3, # of connection points: 4
#     Node 13, Type 0, BuildingBlock: QUQFOY_clean_sbu_3, # of connection points: 4
#     Node 14, Type 0, BuildingBlock: QUQFOY_clean_sbu_3, # of connection points: 4
#     Node 15, Type 0, BuildingBlock: QUQFOY_clean_sbu_3, # of connection points: 4
#     Edge 16, Type (0, 0), BuildingBlock: KIFKEQ_clean_linker_1, # of connection points: 2
#     Edge 17, Type (0, 0), BuildingBlock: KIFKEQ_clean_linker_1, # of connection points: 2
#     Edge 18, Type (0, 0), BuildingBlock: KIFKEQ_clean_linker_1, # of connection points: 2
#     Edge 19, Type (0, 0), BuildingBlock: KIFKEQ_clean_linker_1, # of connection points: 2
#     Edge 20, Type (0, 0), BuildingBlock: KIFKEQ_clean_linker_1, # of connection points: 2
#     Edge 21, Type (0, 0), BuildingBlock: KIFKEQ_clean_linker_1, # of connection points: 2
#     Edge 22, Type (0, 0), BuildingBlock: KIFKEQ_clean_linker_1, # of connection points: 2
#     Edge 23, Type (0, 0), BuildingBlock: KIFKEQ_clean_linker_1, # of connection points: 2
#     Edge 24, Type (0, 0), BuildingBlock: KIFKEQ_clean_linker_1, # of connection points: 2
#     Edge 25, Type (0, 0), BuildingBlock: KIFKEQ_clean_linker_1, # of connection points: 2
#     Edge 26, Type (0, 0), BuildingBlock: KIFKEQ_clean_linker_1, # of connection points: 2
#     Edge 27, Type (0, 0), BuildingBlock: KIFKEQ_clean_linker_1, # of connection points: 2
#     Edge 28, Type (0, 0), BuildingBlock: KIFKEQ_clean_linker_1, # of connection points: 2
#     Edge 29, Type (0, 0), BuildingBlock: KIFKEQ_clean_linker_1, # of connection points: 2
#     Edge 30, Type (0, 0), BuildingBlock: KIFKEQ_clean_linker_1, # of connection points: 2
#     Edge 31, Type (0, 0), BuildingBlock: KIFKEQ_clean_linker_1, # of connection points: 2
#     Edge 32, Type (0, 0), BuildingBlock: KIFKEQ_clean_linker_1, # of connection points: 2
#     Edge 33, Type (0, 0), BuildingBlock: KIFKEQ_clean_linker_1, # of connection points: 2
#     Edge 34, Type (0, 0), BuildingBlock: KIFKEQ_clean_linker_1, # of connection points: 2
#     Edge 35, Type (0, 0), BuildingBlock: KIFKEQ_clean_linker_1, # of connection points: 2
#     Edge 36, Type (0, 0), BuildingBlock: KIFKEQ_clean_linker_1, # of connection points: 2
#     Edge 37, Type (0, 0), BuildingBlock: KIFKEQ_clean_linker_1, # of connection points: 2
#     Edge 38, Type (0, 0), BuildingBlock: KIFKEQ_clean_linker_1, # of connection points: 2
#     Edge 39, Type (0, 0), BuildingBlock: KIFKEQ_clean_linker_1, # of connection points: 2
#     Edge 40, Type (0, 0), BuildingBlock: KIFKEQ_clean_linker_1, # of connection points: 2
#     Edge 41, Type (0, 0), BuildingBlock: KIFKEQ_clean_linker_1, # of connection points: 2
#     Edge 42, Type (0, 0), BuildingBlock: KIFKEQ_clean_linker_1, # of connection points: 2
#     Edge 43, Type (0, 0), BuildingBlock: KIFKEQ_clean_linker_1, # of connection points: 2
#     Edge 44, Type (0, 0), BuildingBlock: KIFKEQ_clean_linker_1, # of connection points: 2
#     Edge 45, Type (0, 0), BuildingBlock: KIFKEQ_clean_linker_1, # of connection points: 2
#     Edge 46, Type (0, 0), BuildingBlock: KIFKEQ_clean_linker_1, # of connection points: 2
#     Edge 47, Type (0, 0), BuildingBlock: KIFKEQ_clean_linker_1, # of connection points: 2
# Relax obj value: 0.096
# Max RMSD: 0.201
# Mean RMSD: 0.199
data_MOF--net-uki--node1-QUQFOY_clean_sbu_3--edge1-KIFKEQ_clean_linker_1
_symmetry_space_group_name_H-M    P1
_symmetry_Int_Tables_number       1
_symmetry_cell_setting            triclinic
loop_
_symmetry_equiv_pos_as_xyz
'x, y, z'
_cell_length_a     31.957733
_cell_length_b     31.692913
_cell_length_c     75.709182
_cell_angle_alpha  89.972788
_cell_angle_beta   89.899803
_cell_angle_gamma 89.891906
loop_
_atom_site_label
_atom_site_type_symbol
_atom_site_fract_x
_atom_site_fract_y
_atom_site_fract_z
_atom_type_partial_charge
C0 C 0.07912 0.12055 0.25803 0.0
O1 O 0.08918 0.13573 0.24312 0.0
Cd2 Cd 0.09495 0.21096 0.24083 0.0
O3 O 0.08107 0.14341 0.27182 0.0
Cd4 Cd 0.10329 0.21423 0.28136 0.0
C5 C 0.00811 0.23525 0.26668 0.0
O6 O 0.1493 0.24178 0.25815 0.0
O7 O 0.11278 0.28717 0.27305 0.0
O8 O 0.15988 0.18782 0.29964 0.0
C9 C 0.14163 0.28013 0.26189 0.0
O10 O 0.02617 0.23277 0.25168 0.0
C11 C 0.14718 0.20464 0.3139 0.0
O12 O 0.02842 0.22848 0.28087 0.0
O13 O 0.11291 0.22507 0.31322 0.0
C14 C 0.21357 0.80636 0.75613 0.0
O15 O 0.18956 0.82676 0.76649 0.0
Cd16 Cd 0.13055 0.87038 0.75759 0.0
O17 O 0.20889 0.80821 0.73944 0.0
Cd18 Cd 0.16695 0.8418 0.71639 0.0
C19 C 0.18784 0.94094 0.73279 0.0
O20 O 0.10142 0.83897 0.73213 0.0
O21 O 0.09912 0.86528 0.70598 0.0
O22 O 0.17276 0.78037 0.69714 0.0
C23 C 0.08044 0.85827 0.72044 0.0
O24 O 0.16415 0.93299 0.74593 0.0
C25 C 0.18829 0.80071 0.68421 0.0
O26 O 0.19617 0.91298 0.72114 0.0
O27 O 0.1951 0.83983 0.68655 0.0
C28 C 0.90299 0.8576 0.25826 0.0
O29 O 0.89216 0.84305 0.24335 0.0
Cd30 Cd 0.88618 0.76799 0.24083 0.0
O31 O 0.90104 0.83439 0.27196 0.0
Cd32 Cd 0.87704 0.76381 0.28131 0.0
C33 C 0.97232 0.7431 0.26699 0.0
O34 O 0.83117 0.73725 0.25781 0.0
O35 O 0.86762 0.69145 0.27244 0.0
O36 O 0.82398 0.79442 0.30059 0.0
C37 C 0.83903 0.69877 0.26125 0.0
O38 O 0.9546 0.74582 0.25195 0.0
C39 C 0.83359 0.77257 0.31406 0.0
O40 O 0.95175 0.74974 0.28115 0.0
O41 O 0.86445 0.74745 0.31249 0.0
C42 C 0.77053 0.17331 0.74891 0.0
O43 O 0.79524 0.15486 0.75959 0.0
Cd44 Cd 0.85095 0.10619 0.75113 0.0
O45 O 0.7742 0.16812 0.73231 0.0
Cd46 Cd 0.81386 0.13238 0.70918 0.0
C47 C 0.78803 0.03704 0.72757 0.0
O48 O 0.87989 0.12806 0.72406 0.0
O49 O 0.87697 0.09909 0.69848 0.0
O50 O 0.8143 0.19396 0.69005 0.0
C51 C 0.89556 0.10193 0.71319 0.0
O52 O 0.8123 0.04578 0.74041 0.0
C53 C 0.79557 0.17579 0.67733 0.0
O54 O 0.78032 0.06364 0.71528 0.0
O55 O 0.78443 0.13769 0.6797 0.0
C56 C 0.0907 0.36327 0.9817 0.0
O57 O 0.10421 0.35138 -0.00336 0.0
Cd58 Cd 0.10516 0.27688 0.00088 0.0
O59 O 0.08958 0.33736 0.96886 0.0
Cd60 Cd 0.11241 0.26495 0.96109 0.0
C61 C 0.01689 0.25183 0.9759 0.0
O62 O 0.15908 0.24107 0.98485 0.0
O63 O 0.12122 0.19383 0.97184 0.0
O64 O 0.16507 0.29316 0.9411 0.0
C65 C 0.1506 0.20231 0.98249 0.0
O66 O 0.0347 0.25888 0.99066 0.0
C67 C 0.15543 0.26987 0.92809 0.0
O68 O 0.03774 0.2515 0.96156 0.0
O69 O 0.12485 0.24475 0.93024 0.0
C70 C 0.2741 0.81015 0.98953 0.0
O71 O 0.29712 0.83047 0.97875 0.0
Cd72 Cd 0.35779 0.87331 0.98603 0.0
O73 O 0.28096 0.81124 0.00609 0.0
Cd74 Cd 0.3262 0.84339 0.02839 0.0
C75 C 0.30522 0.94383 0.01265 0.0
O76 O 0.38926 0.84294 0.01114 0.0
O77 O 0.39626 0.86321 0.03791 0.0
O78 O 0.32039 0.7826 0.04805 0.0
C79 C 0.41169 0.8616 0.02251 0.0
O80 O 0.3266 0.93582 -0.00119 0.0
C81 C 0.30566 0.80377 0.06094 0.0
O82 O 0.29825 0.91571 0.0244 0.0
O83 O 0.29971 0.84301 0.05842 0.0
C84 C 0.90831 0.62185 0.9813 0.0
O85 O 0.89672 0.63568 -0.00375 0.0
Cd86 Cd 0.88627 0.71007 -0.00072 0.0
O87 O 0.9058 0.64532 0.9677 0.0
Cd88 Cd 0.87952 0.71554 0.95893 0.0
C89 C 0.97263 0.7409 0.97442 0.0
O90 O 0.83006 0.73764 0.98204 0.0
O91 O 0.865 0.78661 0.96863 0.0
O92 O 0.82951 0.68301 0.939 0.0
C93 C 0.83563 0.77672 0.97912 0.0
O94 O 0.95403 0.73687 0.98924 0.0
C95 C 0.8381 0.7063 0.92583 0.0
O96 O 0.95347 0.73339 0.96002 0.0
O97 O 0.86722 0.73317 0.92783 0.0
C98 C 0.71796 0.16702 0.9912 0.0
O99 O 0.69607 0.15137 0.97879 0.0
Cd100 Cd 0.63306 0.10911 0.98246 0.0
O101 O 0.70738 0.16222 0.00731 0.0
Cd102 Cd 0.65584 0.13081 0.02725 0.0
C103 C 0.67628 0.03226 0.00945 0.0
O104 O 0.59878 0.13779 0.00723 0.0
O105 O 0.58075 0.12292 0.03363 0.0
O106 O 0.67172 0.18889 0.04721 0.0
C107 C 0.57068 0.1238 0.01747 0.0
O108 O 0.65962 0.04364 0.9949 0.0
C109 C 0.67399 0.16558 0.06088 0.0
O110 O 0.68041 0.05781 0.02239 0.0
O111 O 0.66842 0.12617 0.05876 0.0
C112 C 0.58164 0.61862 0.7639 0.0
O113 O 0.5921 0.63265 0.74883 0.0
Cd114 Cd 0.59907 0.70738 0.74527 0.0
O115 O 0.58386 0.64228 0.77744 0.0
Cd116 Cd 0.6078 0.71309 0.78621 0.0
C117 C 0.51306 0.73456 0.77135 0.0
O118 O 0.6533 0.73847 0.76233 0.0
O119 O 0.61772 0.78499 0.777 0.0
O120 O 0.66124 0.68276 0.80522 0.0
C121 C 0.64553 0.7771 0.76549 0.0
O122 O 0.53117 0.73098 0.75639 0.0
C123 C 0.652 0.70474 0.8187 0.0
O124 O 0.53305 0.72799 0.78564 0.0
O125 O 0.62107 0.72983 0.81729 0.0
C126 C 0.70765 0.30356 0.25322 0.0
O127 O 0.68458 0.32464 0.26373 0.0
Cd128 Cd 0.62717 0.37135 0.25569 0.0
O129 O 0.70261 0.30571 0.23655 0.0
Cd130 Cd 0.66136 0.34058 0.21355 0.0
C131 C 0.68753 0.43849 0.2303 0.0
O132 O 0.59715 0.34408 0.22983 0.0
O133 O 0.59352 0.36517 0.20309 0.0
O134 O 0.66885 0.27856 0.19465 0.0
C135 C 0.57814 0.36638 0.21849 0.0
O136 O 0.66414 0.43135 0.24363 0.0
C137 C 0.68068 0.29963 0.18122 0.0
O138 O 0.69415 0.41051 0.21845 0.0
O139 O 0.68472 0.33927 0.18314 0.0
C140 C 0.40077 0.35982 0.76517 0.0
O141 O 0.3868 0.34789 0.75033 0.0
Cd142 Cd 0.38893 0.27338 0.7466 0.0
O143 O 0.40256 0.33388 0.778 0.0
Cd144 Cd 0.38025 0.26152 0.78617 0.0
C145 C 0.47684 0.25192 0.7726 0.0
O146 O 0.33486 0.23687 0.7622 0.0
O147 O 0.37283 0.19004 0.77551 0.0
O148 O 0.32645 0.29035 0.80551 0.0
C149 C 0.34364 0.19821 0.7647 0.0
O150 O 0.4596 0.25902 0.75772 0.0
C151 C 0.33537 0.26732 0.8187 0.0
O152 O 0.45525 0.24968 0.7867 0.0
O153 O 0.36605 0.24204 0.81696 0.0
C154 C 0.27326 0.67537 0.25447 0.0
O155 O 0.29662 0.65514 0.26513 0.0
Cd156 Cd 0.35561 0.61061 0.25703 0.0
O157 O 0.27866 0.67289 0.23783 0.0
Cd158 Cd 0.3213 0.63808 0.21528 0.0
C159 C 0.29867 0.53975 0.23237 0.0
O160 O 0.38598 0.64065 0.2315 0.0
O161 O 0.38967 0.61433 0.20541 0.0
O162 O 0.31599 0.69868 0.19553 0.0
C163 C 0.40748 0.62094 0.22007 0.0
O164 O 0.32185 0.54789 0.24562 0.0
C165 C 0.30113 0.6777 0.18266 0.0
O166 O 0.29125 0.56736 0.22047 0.0
O167 O 0.29452 0.63864 0.18525 0.0
C168 C 0.58482 0.86667 0.476 0.0
O169 O 0.5998 0.85576 0.49082 0.0
Cd170 Cd 0.60111 0.7814 0.49524 0.0
O171 O 0.58345 0.84024 0.46336 0.0
Cd172 Cd 0.60768 0.76845 0.4555 0.0
C173 C 0.5124 0.75602 0.47041 0.0
O174 O 0.65498 0.74572 0.47917 0.0
O175 O 0.61728 0.69772 0.46656 0.0
O176 O 0.65977 0.79804 0.43562 0.0
C177 C 0.64681 0.70683 0.47705 0.0
O178 O 0.5305 0.76381 0.48504 0.0
C179 C 0.65104 0.77434 0.42263 0.0
O180 O 0.53301 0.75458 0.45602 0.0
O181 O 0.62114 0.74836 0.42472 0.0
C182 C 0.76609 0.31421 0.48689 0.0
O183 O 0.78918 0.33164 0.47527 0.0
Cd184 Cd 0.8504 0.37521 0.48137 0.0
O185 O 0.7742 0.31803 0.50327 0.0
Cd186 Cd 0.82148 0.34977 0.52473 0.0
C187 C 0.80089 0.44887 0.50792 0.0
O188 O 0.88295 0.34663 0.50664 0.0
O189 O 0.89306 0.36645 0.53333 0.0
O190 O 0.81378 0.28896 0.54409 0.0
C191 C 0.90726 0.36377 0.51774 0.0
O192 O 0.82041 0.43904 0.4938 0.0
C193 C 0.80143 0.31044 0.55733 0.0
O194 O 0.79497 0.42217 0.52033 0.0
O195 O 0.79774 0.35009 0.55518 0.0
C196 C 0.39557 0.1194 0.477 0.0
O197 O 0.38393 0.13225 0.4921 0.0
Cd198 Cd 0.38326 0.20698 0.49569 0.0
O199 O 0.39521 0.14447 0.46387 0.0
Cd200 Cd 0.37272 0.21628 0.45538 0.0
C201 C 0.46947 0.22997 0.46892 0.0
O202 O 0.32884 0.24166 0.47965 0.0
O203 O 0.36423 0.28843 0.46506 0.0
O204 O 0.31465 0.19111 0.4377 0.0
C205 C 0.33655 0.28031 0.4766 0.0
O206 O 0.45281 0.22345 0.48398 0.0
C207 C 0.32636 0.20834 0.42339 0.0
O208 O 0.44757 0.23012 0.45489 0.0
O209 O 0.36055 0.22883 0.42378 0.0
C210 C 0.21611 0.67416 0.49191 0.0
O211 O 0.19239 0.6573 0.48043 0.0
Cd212 Cd 0.13234 0.61254 0.4869 0.0
O213 O 0.20913 0.66922 0.50835 0.0
Cd214 Cd 0.16325 0.63546 0.52993 0.0
C215 C 0.18546 0.53832 0.51176 0.0
O216 O 0.10014 0.63879 0.51274 0.0
O217 O 0.09349 0.61354 0.53886 0.0
O218 O 0.16911 0.6953 0.54994 0.0
C219 C 0.07765 0.61861 0.52368 0.0
O220 O 0.16434 0.54854 0.49813 0.0
C221 C 0.18309 0.67358 0.5628 0.0
O222 O 0.19195 0.56435 0.52434 0.0
O223 O 0.18852 0.63432 0.56015 0.0
H224 H 0.21675 0.27781 0.24454 0.0
H225 H 0.11645 0.36186 0.25983 0.0
H226 H 0.25613 0.33806 0.23287 0.0
H227 H 0.15543 0.42159 0.24805 0.0
H228 H 0.32637 0.46663 0.247 0.0
H229 H 0.28825 0.40047 0.2499 0.0
H230 H 0.18645 0.45251 0.21939 0.0
H231 H 0.22489 0.51896 0.21631 0.0
C232 C 0.20287 0.30899 0.24513 0.0
C233 C 0.1638 0.31529 0.25324 0.0
C234 C 0.22536 0.34335 0.23848 0.0
C235 C 0.20871 0.38435 0.23954 0.0
C236 C 0.16876 0.39026 0.24687 0.0
C237 C 0.14666 0.35612 0.25376 0.0
C238 C 0.29619 0.4637 0.24063 0.0
C239 C 0.27833 0.49805 0.23161 0.0
C240 C 0.27455 0.42572 0.24217 0.0
C241 C 0.23438 0.42154 0.23493 0.0
C242 C 0.21736 0.45511 0.22514 0.0
C243 C 0.23936 0.49298 0.22334 0.0
H244 H 0.45962 0.73639 0.79999 0.0
H245 H 0.46352 0.7531 0.7433 0.0
H246 H 0.38341 0.74634 0.79944 0.0
H247 H 0.38853 0.76311 0.74286 0.0
H248 H 0.25508 0.74059 0.74133 0.0
H249 H 0.32635 0.71833 0.74778 0.0
H250 H 0.33003 0.80374 0.79218 0.0
H251 H 0.25796 0.82536 0.78596 0.0
C252 C 0.44437 0.74241 0.78747 0.0
C253 C 0.46764 0.74365 0.77167 0.0
C254 C 0.40083 0.74799 0.78717 0.0
C255 C 0.38 0.75454 0.77107 0.0
C256 C 0.40352 0.75688 0.75542 0.0
C257 C 0.44668 0.75151 0.75571 0.0
C258 C 0.27066 0.75372 0.75277 0.0
C259 C 0.25133 0.7852 0.76296 0.0
C260 C 0.31151 0.74117 0.75641 0.0
C261 C 0.33405 0.76022 0.77017 0.0
C262 C 0.3134 0.78866 0.78145 0.0
C263 C 0.27216 0.80099 0.7779 0.0
H264 H 0.76307 0.45822 0.21534 0.0
H265 H 0.65732 0.51262 0.24275 0.0
H266 H 0.80069 0.52527 0.21814 0.0
H267 H 0.69461 0.57918 0.24549 0.0
H268 H 0.86523 0.61743 0.25917 0.0
H269 H 0.82825 0.55774 0.24646 0.0
H270 H 0.72863 0.64077 0.22968 0.0
H271 H 0.76598 0.70103 0.2424 0.0
C272 C 0.74757 0.48476 0.22157 0.0
C273 C 0.70768 0.48015 0.2291 0.0
C274 C 0.76906 0.52298 0.22322 0.0
C275 C 0.75061 0.55726 0.23213 0.0
C276 C 0.70949 0.55344 0.23845 0.0
C277 C 0.68834 0.5152 0.23704 0.0
C278 C 0.8357 0.62311 0.25256 0.0
C279 C 0.81818 0.66377 0.25196 0.0
C280 C 0.81477 0.58897 0.24511 0.0
C281 C 0.77563 0.59466 0.23707 0.0
C282 C 0.75878 0.63558 0.23584 0.0
C283 C 0.78008 0.66997 0.24311 0.0
H284 H 0.5246 0.19496 0.79081 0.0
H285 H 0.53194 0.30235 0.75594 0.0
H286 H 0.60021 0.18437 0.78794 0.0
H287 H 0.60746 0.29396 0.75396 0.0
H288 H 0.7167 0.22115 0.72972 0.0
H289 H 0.64867 0.24644 0.7385 0.0
H290 H 0.67142 0.20454 0.79202 0.0
H291 H 0.73972 0.17715 0.78288 0.0
C292 C 0.54269 0.21688 0.78291 0.0
C293 C 0.52269 0.24879 0.77326 0.0
C294 C 0.58602 0.21113 0.78136 0.0
C295 C 0.60997 0.23785 0.77043 0.0
C296 C 0.58996 0.27193 0.76202 0.0
C297 C 0.54673 0.27689 0.76319 0.0
C298 C 0.70767 0.21786 0.74345 0.0
C299 C 0.73347 0.19655 0.75553 0.0
C300 C 0.66854 0.2328 0.74857 0.0
C301 C 0.6542 0.22737 0.766 0.0
C302 C 0.68116 0.20859 0.77842 0.0
C303 C 0.72049 0.1933 0.77323 0.0
H304 H 0.33392 0.01687 -0.00158 0.0
H305 H 0.23345 0.96599 0.03014 0.0
H306 H 0.29671 0.08371 -0.00388 0.0
H307 H 0.19597 0.03327 0.02776 0.0
H308 H 0.12446 0.12165 0.98708 0.0
H309 H 0.16342 0.06309 -0.00019 0.0
H310 H 0.26561 0.14707 0.01205 0.0
H311 H 0.22626 0.20619 -0.00068 0.0
C312 C 0.30423 0.02031 0.00521 0.0
C313 C 0.28621 0.98609 0.01422 0.0
C314 C 0.28312 0.05873 0.00402 0.0
C315 C 0.24336 0.06351 0.01166 0.0
C316 C 0.22652 0.03021 0.02167 0.0
C317 C 0.24798 -0.00815 0.02307 0.0
C318 C 0.15498 0.1278 0.99272 0.0
C319 C 0.1726 0.16833 0.99202 0.0
C320 C 0.17708 0.09433 0.00019 0.0
C321 C 0.21749 0.10058 0.00692 0.0
C322 C 0.23449 0.14147 0.00691 0.0
C323 C 0.21204 0.1752 -0.00035 0.0
H324 H 0.22962 0.82763 0.95947 0.0
H325 H 0.22963 0.74866 0.00601 0.0
H326 H 0.15691 0.80801 0.95372 0.0
H327 H 0.15762 0.72848 6e-05 0.0
H328 H 0.02038 0.76321 0.00256 0.0
H329 H 0.09537 0.77366 0.00348 0.0
H330 H 0.10335 0.75142 0.9473 0.0
H331 H 0.02734 0.74116 0.94626 0.0
C332 C 0.21458 0.80503 0.96813 0.0
C333 C 0.235 0.79026 0.98338 0.0
C334 C 0.17295 0.79385 0.96484 0.0
C335 C 0.15134 0.76762 0.97671 0.0
C336 C 0.17318 0.74972 0.99096 0.0
C337 C 0.21449 0.76105 0.99431 0.0
C338 C 0.03788 0.76063 0.99033 0.0
C339 C 0.01781 0.75104 0.97434 0.0
C340 C 0.08102 0.76625 0.99091 0.0
C341 C 0.10535 0.7624 0.97553 0.0
C342 C 0.08533 0.75431 0.95937 0.0
C343 C 0.04187 0.74855 0.95878 0.0
H344 H 0.75704 0.77061 0.99328 0.0
H345 H 0.85979 0.8571 0.98561 0.0
H346 H 0.71465 0.82833 0.00557 0.0
H347 H 0.81799 0.9141 -0.00191 0.0
H348 H 0.65064 0.96258 0.99163 0.0
H349 H 0.68753 0.89544 0.989 0.0
H350 H 0.77949 0.93814 0.02664 0.0
H351 H 0.74224 0.00542 0.02947 0.0
C352 C 0.77076 0.80169 0.99455 0.0
C353 C 0.81143 0.80962 0.98834 0.0
C354 C 0.7466 0.83457 0.00156 0.0
C355 C 0.7632 0.87549 0.00283 0.0
C356 C 0.80463 0.88273 -0.00253 0.0
C357 C 0.82838 0.85021 0.99017 0.0
C358 C 0.67818 0.95725 -0.00034 0.0
C359 C 0.69397 0.98935 0.01056 0.0
C360 C 0.69906 0.91871 -0.00174 0.0
C361 C 0.73642 0.91184 0.00754 0.0
C362 C 0.75076 0.94286 0.01932 0.0
C363 C 0.72943 0.98122 0.02095 0.0
H364 H 0.77433 0.19698 0.01489 0.0
H365 H 0.75402 0.1825 0.95876 0.0
H366 H 0.84438 0.2217 0.00933 0.0
H367 H 0.82446 0.20942 0.95308 0.0
H368 H 0.97072 0.20182 0.95382 0.0
H369 H 0.89569 0.18715 0.95592 0.0
H370 H 0.88542 0.27676 -0.00119 0.0
H371 H 0.96029 0.28916 -0.00267 0.0
C372 C 0.78449 0.19991 0.00129 0.0
C373 C 0.75852 0.18747 0.98728 0.0
C374 C 0.8248 0.2145 -0.00193 0.0
C375 C 0.84024 0.21772 0.98072 0.0
C376 C 0.81377 0.20681 0.96661 0.0
C377 C 0.7733 0.19172 0.96986 0.0
C378 C 0.95215 0.21841 0.96359 0.0
C379 C 0.97124 0.24584 0.97567 0.0
C380 C 0.90916 0.21034 0.96473 0.0
C381 C 0.88453 0.23025 0.97775 0.0
C382 C 0.90353 0.25982 0.989 0.0
C383 C 0.94643 0.26707 0.98813 0.0
H384 H 0.71667 0.77435 0.74529 0.0
H385 H 0.6176 0.85766 0.7626 0.0
H386 H 0.75134 0.834 0.73074 0.0
H387 H 0.65189 0.91669 0.7481 0.0
H388 H 0.71159 0.01456 0.71429 0.0
H389 H 0.67582 0.94693 0.71873 0.0
H390 H 0.78557 0.89765 0.74488 0.0
H391 H 0.821 0.96474 0.7405 0.0
C392 C 0.70204 0.80519 0.74574 0.0
C393 C 0.66482 0.81156 0.75527 0.0
C394 C 0.72179 0.83921 0.73742 0.0
C395 C 0.7042 0.87987 0.73827 0.0
C396 C 0.66587 0.88562 0.74702 0.0
C397 C 0.64652 0.85189 0.75551 0.0
C398 C 0.72824 0.98888 0.72061 0.0
C399 C 0.76864 -0.00504 0.72736 0.0
C400 C 0.70784 0.95034 0.72318 0.0
C401 C 0.7279 0.91724 0.73224 0.0
C402 C 0.76946 0.92245 0.73774 0.0
C403 C 0.78954 0.96101 0.73541 0.0
H404 H 0.95542 0.2357 0.29555 0.0
H405 H 0.95727 0.25219 0.23884 0.0
H406 H 0.87904 0.24385 0.29541 0.0
H407 H 0.88205 0.26051 0.23879 0.0
H408 H 0.7487 0.23797 0.23793 0.0
H409 H 0.82029 0.21586 0.24388 0.0
H410 H 0.82481 0.29984 0.28875 0.0
H411 H 0.75252 0.32124 0.28305 0.0
C412 C 0.93967 0.24127 0.28311 0.0
C413 C 0.96246 0.24309 0.26719 0.0
C414 C 0.89602 0.24581 0.28304 0.0
C415 C 0.87454 0.25189 0.26705 0.0
C416 C 0.89754 0.25462 0.25127 0.0
C417 C 0.94084 0.25029 0.25134 0.0
C418 C 0.76453 0.25075 0.24939 0.0
C419 C 0.74536 0.28185 0.25984 0.0
C420 C 0.80558 0.23832 0.25273 0.0
C421 C 0.82847 0.2571 0.26646 0.0
C422 C 0.80795 0.28497 0.27803 0.0
C423 C 0.76655 0.29717 0.27478 0.0
H424 H 0.26146 0.9623 0.71657 0.0
H425 H 0.15948 0.01396 0.7473 0.0
H426 H 0.29962 0.02883 0.71976 0.0
H427 H 0.19739 0.08009 0.75038 0.0
H428 H 0.26876 0.20216 0.7473 0.0
H429 H 0.2297 0.14308 0.73456 0.0
H430 H 0.33073 0.05846 0.74813 0.0
H431 H 0.36944 0.11703 0.76089 0.0
C432 C 0.24681 0.98815 0.72362 0.0
C433 C 0.20783 0.98281 0.73192 0.0
C434 C 0.26866 0.02608 0.72549 0.0
C435 C 0.25151 0.05942 0.7354 0.0
C436 C 0.21122 0.05505 0.74256 0.0
C437 C 0.18971 0.01705 0.74093 0.0
C438 C 0.2828 0.17103 0.74729 0.0
C439 C 0.32185 0.16402 0.75526 0.0
C440 C 0.2605 0.13732 0.74002 0.0
C441 C 0.27727 0.09629 0.74035 0.0
C442 C 0.31728 0.08982 0.74749 0.0
C443 C 0.33923 0.1233 0.75496 0.0
H444 H 0.0237 0.7259 0.23929 0.0
H445 H 0.02432 0.74266 0.29599 0.0
H446 H 0.09893 0.7175 0.23945 0.0
H447 H 0.10068 0.73447 0.29605 0.0
H448 H 0.22763 0.65734 0.28412 0.0
H449 H 0.15509 0.67845 0.28958 0.0
H450 H 0.16044 0.76239 0.24467 0.0
H451 H 0.23225 0.74055 0.23896 0.0
C452 C 0.03987 0.72784 0.25183 0.0
C453 C 0.01792 0.73515 0.26762 0.0
C454 C 0.08315 0.72346 0.25188 0.0
C455 C 0.10579 0.72627 0.26772 0.0
C456 C 0.08397 0.73243 0.28364 0.0
C457 C 0.04034 0.73701 0.28359 0.0
C458 C 0.21369 0.68132 0.27579 0.0
C459 C 0.23517 0.69673 0.26091 0.0
C460 C 0.17216 0.69336 0.2789 0.0
C461 C 0.15185 0.72115 0.26725 0.0
C462 C 0.175 0.73999 0.25357 0.0
C463 C 0.21617 0.72771 0.25037 0.0
H464 H 0.73203 0.47393 0.52672 0.0
H465 H 0.82862 0.51994 0.4917 0.0
H466 H 0.69533 0.54158 0.52415 0.0
H467 H 0.79221 0.58726 0.48925 0.0
H468 H 0.72392 0.71128 0.49258 0.0
H469 H 0.76396 0.65267 0.50537 0.0
H470 H 0.65989 0.56893 0.49603 0.0
H471 H 0.62029 0.62692 0.48317 0.0
C472 C 0.74593 0.49883 0.51887 0.0
C473 C 0.78274 0.49155 0.50917 0.0
C474 C 0.72493 0.53741 0.51737 0.0
C475 C 0.74087 0.56944 0.50643 0.0
C476 C 0.77939 0.56324 0.49788 0.0
C477 C 0.8 0.52457 0.49915 0.0
C478 C 0.70946 0.68048 0.49357 0.0
C479 C 0.66929 0.67341 0.4867 0.0
C480 C 0.7323 0.64707 0.50087 0.0
C481 C 0.71492 0.6064 0.5017 0.0
C482 C 0.67384 0.60006 0.49576 0.0
C483 C 0.65137 0.63316 0.48822 0.0
H484 H 0.73119 0.30666 0.45375 0.0
H485 H 0.71118 0.27443 0.50861 0.0
H486 H 0.66164 0.27934 0.44661 0.0
H487 H 0.64207 0.24928 0.50173 0.0
H488 H 0.52693 0.18556 0.48712 0.0
H489 H 0.60198 0.19724 0.48841 0.0
H490 H 0.58984 0.29916 0.45072 0.0
H491 H 0.51461 0.28523 0.44865 0.0
C492 C 0.71224 0.29335 0.46423 0.0
C493 C 0.72672 0.29295 0.48177 0.0
C494 C 0.67226 0.27805 0.46017 0.0
C495 C 0.64607 0.26215 0.47357 0.0
C496 C 0.66142 0.26044 0.49095 0.0
C497 C 0.70119 0.27532 0.49496 0.0
C498 C 0.5405 0.21009 0.47894 0.0
C499 C 0.51515 0.23504 0.46802 0.0
C500 C 0.58346 0.21695 0.47972 0.0
C501 C 0.60195 0.24986 0.47001 0.0
C502 C 0.57677 0.27341 0.45832 0.0
C503 C 0.53368 0.26573 0.45721 0.0
H504 H 0.2584 0.51443 0.52775 0.0
H505 H 0.1559 0.46712 0.49639 0.0
H506 H 0.29565 0.44743 0.52363 0.0
H507 H 0.19275 0.40038 0.49249 0.0
H508 H 0.26282 0.27652 0.49489 0.0
H509 H 0.22483 0.3356 0.50838 0.0
H510 H 0.32528 0.41978 0.4939 0.0
H511 H 0.36285 0.36124 0.48027 0.0
C512 C 0.24341 0.48935 0.5204 0.0
C513 C 0.2046 0.49603 0.51218 0.0
C514 C 0.26471 0.45119 0.51801 0.0
C515 C 0.24706 0.41896 0.50769 0.0
C516 C 0.2069 0.42459 0.50062 0.0
C517 C 0.18599 0.46289 0.50273 0.0
C518 C 0.27697 0.30756 0.49484 0.0
C519 C 0.31549 0.3145 0.48637 0.0
C520 C 0.2553 0.34123 0.50255 0.0
C521 C 0.27226 0.38209 0.5022 0.0
C522 C 0.31177 0.38849 0.49454 0.0
C523 C 0.33304 0.35507 0.48659 0.0
H524 H 0.45692 0.79992 0.48999 0.0
H525 H 0.465 0.70178 0.45065 0.0
H526 H 0.38189 0.78913 0.49234 0.0
H527 H 0.38981 0.68876 0.45375 0.0
H528 H 0.24887 0.68334 0.45843 0.0
H529 H 0.31828 0.7101 0.45066 0.0
H530 H 0.34152 0.73734 0.50574 0.0
H531 H 0.27249 0.71275 0.51327 0.0
C532 C 0.44246 0.77586 0.48188 0.0
C533 C 0.46664 0.7511 0.47039 0.0
C534 C 0.39949 0.76953 0.48325 0.0
C535 C 0.37981 0.73739 0.47355 0.0
C536 C 0.4038 0.71396 0.46136 0.0
C537 C 0.44688 0.7211 0.45966 0.0
C538 C 0.26857 0.69596 0.46878 0.0
C539 C 0.25517 0.69566 0.48649 0.0
C540 C 0.30849 0.71092 0.46435 0.0
C541 C 0.3357 0.72575 0.47756 0.0
C542 C 0.32138 0.72695 0.49512 0.0
C543 C 0.28166 0.71242 0.4995 0.0
H544 H 0.34728 0.23256 0.38981 0.0
H545 H 0.24678 0.17827 0.42052 0.0
H546 H 0.30334 0.22985 0.36342 0.0
H547 H 0.20297 0.17574 0.39418 0.0
H548 H 0.12492 0.22948 0.34726 0.0
H549 H 0.16851 0.22887 0.37379 0.0
H550 H 0.27023 0.1744 0.34385 0.0
H551 H 0.22681 0.17483 0.31738 0.0
C552 C 0.31591 0.21994 0.39091 0.0
C553 C 0.30052 0.20562 0.40724 0.0
C554 C 0.29084 0.21823 0.37581 0.0
C555 C 0.24973 0.20264 0.37677 0.0
C556 C 0.23439 0.18825 0.39308 0.0
C557 C 0.2596 0.18949 0.40813 0.0
C558 C 0.15648 0.21712 0.34638 0.0
C559 C 0.17241 0.20221 0.33023 0.0
C560 C 0.18137 0.21666 0.36156 0.0
C561 C 0.22281 0.20175 0.36084 0.0
C562 C 0.23856 0.18648 0.34474 0.0
C563 C 0.21357 0.18648 0.32963 0.0
H564 H 0.16976 0.75527 0.57285 0.0
H565 H 0.21332 0.63488 0.59242 0.0
H566 H 0.17658 0.78515 0.60234 0.0
H567 H 0.22106 0.66505 0.62186 0.0
H568 H 0.22104 0.83657 0.65444 0.0
H569 H 0.22591 0.80561 0.62502 0.0
H570 H 0.17467 0.68898 0.64514 0.0
H571 H 0.1707 0.7196 0.6746 0.0
C572 C 0.18135 0.73534 0.5834 0.0
C573 C 0.19074 0.69266 0.58032 0.0
C574 C 0.18551 0.75253 0.60029 0.0
C575 C 0.19925 0.72745 0.61449 0.0
C576 C 0.20983 0.68506 0.61127 0.0
C577 C 0.2056 0.66785 0.59438 0.0
C578 C 0.21133 0.80413 0.65262 0.0
C579 C 0.19528 0.78059 0.66683 0.0
C580 C 0.21386 0.78649 0.63574 0.0
C581 C 0.20036 0.74494 0.63269 0.0
C582 C 0.18575 0.72092 0.64705 0.0
C583 C 0.18328 0.73854 0.66394 0.0
H584 H 0.70181 0.83783 0.4112 0.0
H585 H 0.65723 0.71372 0.39713 0.0
H586 H 0.74648 0.83845 0.38492 0.0
H587 H 0.70257 0.71415 0.37103 0.0
H588 H 0.83025 0.71473 0.34073 0.0
H589 H 0.78475 0.71588 0.36677 0.0
H590 H 0.73476 0.83628 0.35042 0.0
H591 H 0.77963 0.83489 0.32419 0.0
C592 C 0.70144 0.81078 0.40246 0.0
C593 C 0.67601 0.77574 0.40619 0.0
C594 C 0.72692 0.81121 0.38743 0.0
C595 C 0.72806 0.77626 0.37606 0.0
C596 C 0.70245 0.74133 0.3797 0.0
C597 C 0.67634 0.74124 0.39454 0.0
C598 C 0.80976 0.74157 0.34276 0.0
C599 C 0.80847 0.77473 0.33044 0.0
C600 C 0.78356 0.74205 0.35757 0.0
C601 C 0.75619 0.77607 0.3605 0.0
C602 C 0.75568 0.80975 0.34845 0.0
C603 C 0.78128 0.8089 0.33346 0.0
H604 H 0.75873 0.144 0.64765 0.0
H605 H 0.81881 0.25571 0.66817 0.0
H606 H 0.75414 0.17705 0.61861 0.0
H607 H 0.81497 0.28836 0.63909 0.0
H608 H 0.77533 0.34866 0.58775 0.0
H609 H 0.76772 0.31687 0.61692 0.0
H610 H 0.80364 0.1958 0.59542 0.0
H611 H 0.81042 0.22738 0.56621 0.0
C612 C 0.77067 0.17572 0.646 0.0
C613 C 0.78933 0.19718 0.66018 0.0
C614 C 0.76826 0.19454 0.62933 0.0
C615 C 0.78442 0.23522 0.62651 0.0
C616 C 0.8018 0.25718 0.64086 0.0
C617 C 0.80422 0.23837 0.65751 0.0
C618 C 0.78118 0.31516 0.58922 0.0
C619 C 0.79369 0.29056 0.57469 0.0
C620 C 0.77703 0.29701 0.60595 0.0
C621 C 0.78529 0.25387 0.60851 0.0
C622 C 0.79657 0.22903 0.59386 0.0
C623 C 0.8007 0.24718 0.57713 0.0
H624 H 0.20771 0.33203 0.91662 0.0
H625 H 0.15915 0.20959 0.90236 0.0
H626 H 0.25139 0.33202 0.89006 0.0
H627 H 0.20353 0.20936 0.87595 0.0
H628 H 0.33053 0.20789 0.84476 0.0
H629 H 0.2855 0.20895 0.87096 0.0
H630 H 0.23817 0.33127 0.85574 0.0
H631 H 0.28253 0.33 0.82938 0.0
C632 C 0.20628 0.30521 0.90778 0.0
C633 C 0.18 0.27082 0.91154 0.0
C634 C 0.23119 0.30527 0.89259 0.0
C635 C 0.2309 0.27061 0.88106 0.0
C636 C 0.2045 0.23631 0.88474 0.0
C637 C 0.17896 0.23659 0.89976 0.0
C638 C 0.31066 0.23507 0.84706 0.0
C639 C 0.31004 0.26888 0.83504 0.0
C640 C 0.28474 0.23552 0.86196 0.0
C641 C 0.25835 0.27012 0.86529 0.0
C642 C 0.25836 0.30429 0.85348 0.0
C643 C 0.28366 0.3035 0.83841 0.0
H644 H 0.31708 0.75898 0.17273 0.0
H645 H 0.27065 0.6402 0.15286 0.0
H646 H 0.31302 0.7889 0.14315 0.0
H647 H 0.26572 0.67043 0.1233 0.0
H648 H 0.32108 0.72239 0.07102 0.0
H649 H 0.31464 0.69234 0.10053 0.0
H650 H 0.26595 0.81098 0.11985 0.0
H651 H 0.27326 0.8413 0.09041 0.0
C652 C 0.30539 0.73945 0.1621 0.0
C653 C 0.29443 0.69716 0.16513 0.0
C654 C 0.30285 0.75667 0.14514 0.0
C655 C 0.28923 0.73199 0.13083 0.0
C656 C 0.27694 0.69009 0.13399 0.0
C657 C 0.27952 0.67286 0.15095 0.0
C658 C 0.30861 0.74192 0.08152 0.0
C659 C 0.29795 0.78429 0.0784 0.0
C660 C 0.30469 0.72464 0.09843 0.0
C661 C 0.28996 0.74933 0.11258 0.0
C662 C 0.27801 0.79131 0.1093 0.0
C663 C 0.28198 0.8086 0.0924 0.0
H664 H 0.7883 0.64167 0.91482 0.0
H665 H 0.8313 0.76591 0.89996 0.0
H666 H 0.74291 0.64008 0.88884 0.0
H667 H 0.78528 0.76448 0.87416 0.0
H668 H 0.65631 0.76292 0.84519 0.0
H669 H 0.70309 0.76229 0.87075 0.0
H670 H 0.75263 0.64179 0.85427 0.0
H671 H 0.70645 0.64264 0.82852 0.0
C672 C 0.78824 0.66849 0.90595 0.0
C673 C 0.81335 0.70391 0.9094 0.0
C674 C 0.76234 0.66752 0.8911 0.0
C675 C 0.76046 0.70227 0.87962 0.0
C676 C 0.78593 0.73746 0.88292 0.0
C677 C 0.81245 0.73811 0.89759 0.0
C678 C 0.67695 0.73616 0.8471 0.0
C679 C 0.67774 0.70282 0.83488 0.0
C680 C 0.7039 0.73598 0.86163 0.0
C681 C 0.73154 0.70211 0.86437 0.0
C682 C 0.73153 0.66822 0.85244 0.0
C683 C 0.70516 0.66877 0.83772 0.0
H684 H 0.71043 0.24082 0.06911 0.0
H685 H 0.65304 0.13106 0.09257 0.0
H686 H 0.71909 0.27183 0.09831 0.0
H687 H 0.65895 0.1629 0.12163 0.0
H688 H 0.69526 0.21633 0.17406 0.0
H689 H 0.70031 0.18298 0.14512 0.0
H690 H 0.68103 0.30445 0.12024 0.0
H691 H 0.67883 0.33767 0.14908 0.0
C692 C 0.69951 0.22345 0.08055 0.0
C693 C 0.68098 0.18363 0.0786 0.0
C694 C 0.70415 0.24131 0.09731 0.0
C695 C 0.68941 0.22019 0.11247 0.0
C696 C 0.67145 0.17995 0.11042 0.0
C697 C 0.66771 0.16173 0.09371 0.0
C698 C 0.69269 0.23582 0.16235 0.0
C699 C 0.68664 0.27954 0.16381 0.0
C700 C 0.69521 0.21672 0.14573 0.0
C701 C 0.69073 0.24081 0.13019 0.0
C702 C 0.68545 0.28476 0.13178 0.0
C703 C 0.68388 0.3039 0.14836 0.0
H704 H 0.91009 0.91796 0.23248 0.0
H705 H 0.94602 0.88973 0.28622 0.0
H706 H 0.95443 0.98047 0.23297 0.0
H707 H 0.9915 0.95087 0.28646 0.0
H708 H 0.03899 0.08633 0.2864 0.0
H709 H -0.00597 0.02485 0.2868 0.0
H710 H 0.02686 -0.00151 0.23249 0.0
H711 H 0.07066 0.06138 0.23186 0.0
C712 C 0.92713 0.92528 0.24444 0.0
C713 C 0.92445 0.89885 0.2593 0.0
C714 C 0.95302 0.96079 0.24465 0.0
C715 C 0.9771 0.97042 0.25966 0.0
C716 C 0.97321 0.94474 0.27471 0.0
C717 C 0.94702 0.90957 0.27458 0.0
C718 C 0.0372 0.06713 0.2746 0.0
C719 C 0.05835 0.07892 0.25906 0.0
C720 C 0.01131 0.03174 0.27483 0.0
C721 C 0.00632 0.0069 0.25961 0.0
C722 C 0.02912 0.01751 0.24432 0.0
C723 C 0.05471 0.05324 0.24403 0.0
H724 H 0.96951 0.09496 0.73155 0.0
H725 H 0.86803 0.02255 0.70948 0.0
H726 H 0.0072 0.02895 0.73809 0.0
H727 H 0.90409 0.95741 0.71667 0.0
H728 H 0.01644 0.87422 0.69849 0.0
H729 H 0.96569 0.93086 0.70121 0.0
H730 H 0.01057 0.95802 0.7538 0.0
H731 H 0.06157 0.90054 0.75102 0.0
C732 C 0.95499 0.06499 0.72851 0.0
C733 C 0.91663 0.06364 0.7196 0.0
C734 C 0.97619 0.02729 0.73238 0.0
C735 C 0.95876 0.98808 0.72761 0.0
C736 C 0.91867 0.9871 0.72015 0.0
C737 C 0.8981 0.02442 0.71601 0.0
C738 C 0.0144 0.89125 0.71087 0.0
C739 C 0.04282 0.8831 0.72451 0.0
C740 C 0.98537 0.92376 0.71247 0.0
C741 C 0.98442 0.94914 0.72769 0.0
C742 C 0.01093 0.93915 0.74188 0.0
C743 C 0.03973 0.90597 0.74036 0.0
H744 H 0.04602 0.39275 0.95357 0.0
H745 H 0.08585 0.42655 0.00624 0.0
H746 H -0.00013 0.45372 0.95292 0.0
H747 H 0.04056 0.48843 0.00534 0.0
H748 H 0.92004 0.56314 0.00738 0.0
H749 H 0.96631 0.502 0.00655 0.0
H750 H -0.00389 0.52895 0.952 0.0
H751 H 0.94896 0.58917 0.95264 0.0
C752 C 0.04572 0.41374 0.96486 0.0
C753 C 0.06945 0.40457 0.98002 0.0
C754 C 0.01916 0.44874 0.96448 0.0
C755 C 0.01596 0.47556 0.97919 0.0
C756 C 0.04147 0.46774 0.99396 0.0
C757 C 0.06786 0.43257 0.99439 0.0
C758 C 0.93592 0.55561 0.99512 0.0
C759 C 0.93086 0.58114 0.9801 0.0
C760 C 0.96288 0.52088 0.99471 0.0
C761 C 0.98552 0.51103 0.9793 0.0
C762 C 0.97907 0.53552 0.96407 0.0
C763 C 0.95194 0.57008 0.96444 0.0
H764 H 0.46461 0.9021 0.0445 0.0
H765 H 0.42882 0.89536 0.98956 0.0
H766 H 0.49822 0.96952 0.0391 0.0
H767 H 0.46208 0.96388 0.98426 0.0
H768 H 0.57134 0.07193 0.98832 0.0
H769 H 0.53422 0.00489 0.98643 0.0
H770 H 0.46042 0.03952 0.03197 0.0
H771 H 0.49812 0.10602 0.03412 0.0
C772 C 0.46457 0.91462 0.03117 0.0
C773 C 0.44274 0.89409 0.0176 0.0
C774 C 0.48336 0.95349 0.02814 0.0
C775 C 0.48099 0.97262 0.01145 0.0
C776 C 0.46338 0.95011 -0.00265 0.0
C777 C 0.44443 0.91089 0.0004 0.0
C778 C 0.54614 0.0661 -0.00251 0.0
C779 C 0.53828 0.09384 0.01163 0.0
C780 C 0.52501 0.02751 -0.00356 0.0
C781 C 0.49563 0.0166 0.00943 0.0
C782 C 0.4839 0.0468 0.02209 0.0
C783 C 0.50508 0.08506 0.02319 0.0
H784 H 0.4043 0.42323 0.74063 0.0
H785 H 0.44705 0.38888 0.79286 0.0
H786 H 0.4498 0.48481 0.7411 0.0
H787 H 0.49341 0.4495 0.79306 0.0
H788 H 0.54369 0.58503 0.79299 0.0
H789 H 0.49718 0.52458 0.79406 0.0
H790 H 0.52392 0.49833 0.73917 0.0
H791 H 0.56951 0.5598 0.73792 0.0
C792 C 0.42298 0.42907 0.75229 0.0
C793 C 0.42212 0.40102 0.76667 0.0
C794 C 0.4495 0.46405 0.75247 0.0
C795 C 0.47588 0.47162 0.76698 0.0
C796 C 0.47345 0.44472 0.7817 0.0
C797 C 0.44675 0.40993 0.78158 0.0
C798 C 0.54022 0.56604 0.7812 0.0
C799 C 0.56015 0.57746 0.76533 0.0
C800 C 0.51346 0.53132 0.78182 0.0
C801 C 0.50625 0.50701 0.76662 0.0
C802 C 0.52793 0.51709 0.75099 0.0
C803 C 0.55451 0.55199 0.75034 0.0
H804 H 0.60941 0.44302 0.2118 0.0
H805 H 0.50574 0.38071 0.23735 0.0
H806 H 0.57783 0.51126 0.21755 0.0
H807 H 0.47221 0.44976 0.24223 0.0
H808 H 0.42517 0.58235 0.25169 0.0
H809 H 0.473 0.52266 0.25568 0.0
H810 H 0.5179 0.53979 0.20228 0.0
H811 H 0.47038 0.59871 0.19838 0.0
C812 C 0.57987 0.4441 0.21882 0.0
C813 C 0.5595 0.40677 0.22388 0.0
C814 C 0.56177 0.48318 0.22208 0.0
C815 C 0.52221 0.48586 0.23002 0.0
C816 C 0.50289 0.44863 0.23615 0.0
C817 C 0.52168 0.40918 0.23321 0.0
C818 C 0.4463 0.57418 0.24107 0.0
C819 C 0.44395 0.59485 0.22466 0.0
C820 C 0.47333 0.53975 0.24329 0.0
C821 C 0.49885 0.52624 0.22925 0.0
C822 C 0.49895 0.54952 0.21343 0.0
C823 C 0.47172 0.58334 0.21116 0.0
H824 H 0.43468 0.08736 0.44786 0.0
H825 H 0.40687 0.05918 0.50252 0.0
H826 H 0.48281 0.02801 0.4468 0.0
H827 H 0.45419 -0.0011 0.50126 0.0
H828 H 0.57772 0.9297 0.50055 0.0
H829 H 0.52939 0.98921 0.49987 0.0
H830 H 0.4893 0.95271 0.44759 0.0
H831 H 0.53838 0.89409 0.44802 0.0
C832 C 0.43801 0.0679 0.45954 0.0
C833 C 0.41717 0.07828 0.47533 0.0
C834 C 0.46571 0.03385 0.45892 0.0
C835 C 0.47297 0.00924 0.47404 0.0
C836 C 0.45014 0.018 0.48952 0.0
C837 C 0.42257 0.05219 0.49017 0.0
C838 C 0.55921 0.93485 0.48877 0.0
C839 C 0.56182 0.907 0.47438 0.0
C840 C 0.53107 0.96861 0.48848 0.0
C841 C 0.50486 0.97515 0.47382 0.0
C842 C 0.50905 0.94861 0.45907 0.0
C843 C 0.53731 0.915 0.45932 0.0
H844 H 0.97582 0.38286 0.53667 0.0
H845 H 0.91234 0.41361 0.48805 0.0
H846 H 0.01522 0.44836 0.53467 0.0
H847 H 0.95137 0.47981 0.48623 0.0
H848 H 0.06427 0.58303 0.49088 0.0
H849 H 0.02659 0.51694 0.48564 0.0
H850 H 0.97917 0.52077 0.53902 0.0
H851 H 0.0172 0.58587 0.54436 0.0
C852 C 0.9714 0.40291 0.52522 0.0
C853 C 0.94062 0.39342 0.51267 0.0
C854 C -0.0065 0.44061 0.52419 0.0
C855 C 0.98511 0.46965 0.51062 0.0
C856 C 0.95797 0.45808 0.49691 0.0
C857 C 0.93585 0.42 0.49791 0.0
C858 C 0.04495 0.57038 0.50132 0.0
C859 C 0.04459 0.58896 0.5182 0.0
C860 C 0.02353 0.53247 0.49832 0.0
C861 C 0.00144 0.51311 0.51216 0.0
C862 C -0.00278 0.5344 0.52832 0.0
C863 C 0.01855 0.57191 0.53131 0.0
loop_
_geom_bond_atom_site_label_1
_geom_bond_atom_site_label_2
_geom_bond_distance
_geom_bond_site_symmetry_2
_ccdc_geom_bond_type
C0 O1 1.306 . S
C0 O3 1.160 . S
O1 C0 1.306 . S
O1 Cd2 2.228 . S
Cd2 O1 2.228 . S
Cd2 O6 2.273 . S
Cd2 O10 2.277 . S
O3 C0 1.160 . S
O3 Cd4 2.203 . S
Cd4 O3 2.203 . S
Cd4 O6 2.411 . S
Cd4 O7 2.333 . S
Cd4 O8 2.352 . S
Cd4 O12 2.277 . S
Cd4 O13 2.356 . S
C5 O10 1.209 . S
C5 O12 1.226 . S
O6 Cd2 2.273 . S
O6 Cd4 2.411 . S
O6 C9 1.320 . S
O7 Cd4 2.333 . S
O7 C9 1.214 . S
O8 Cd4 2.352 . S
O8 C11 1.258 . S
C9 O6 1.320 . S
C9 O7 1.214 . S
O10 Cd2 2.277 . S
O10 C5 1.209 . S
C11 O8 1.258 . S
C11 O13 1.282 . S
O12 Cd4 2.277 . S
O12 C5 1.226 . S
O13 Cd4 2.356 . S
O13 C11 1.282 . S
C14 O15 1.306 . S
C14 O17 1.160 . S
O15 C14 1.306 . S
O15 Cd16 2.228 . S
Cd16 O15 2.228 . S
Cd16 O20 2.273 . S
Cd16 O24 2.277 . S
O17 C14 1.160 . S
O17 Cd18 2.203 . S
Cd18 O17 2.203 . S
Cd18 O20 2.411 . S
Cd18 O21 2.333 . S
Cd18 O22 2.352 . S
Cd18 O26 2.277 . S
Cd18 O27 2.356 . S
C19 O24 1.209 . S
C19 O26 1.226 . S
O20 Cd16 2.273 . S
O20 Cd18 2.411 . S
O20 C23 1.320 . S
O21 Cd18 2.333 . S
O21 C23 1.214 . S
O22 Cd18 2.352 . S
O22 C25 1.258 . S
C23 O20 1.320 . S
C23 O21 1.214 . S
O24 Cd16 2.277 . S
O24 C19 1.209 . S
C25 O22 1.258 . S
C25 O27 1.282 . S
O26 Cd18 2.277 . S
O26 C19 1.226 . S
O27 Cd18 2.356 . S
O27 C25 1.282 . S
C28 O29 1.306 . S
C28 O31 1.160 . S
O29 C28 1.306 . S
O29 Cd30 2.228 . S
Cd30 O29 2.228 . S
Cd30 O34 2.273 . S
Cd30 O38 2.277 . S
O31 C28 1.160 . S
O31 Cd32 2.203 . S
Cd32 O31 2.203 . S
Cd32 O34 2.411 . S
Cd32 O35 2.333 . S
Cd32 O36 2.352 . S
Cd32 O40 2.277 . S
Cd32 O41 2.356 . S
C33 O38 1.209 . S
C33 O40 1.226 . S
O34 Cd30 2.273 . S
O34 Cd32 2.411 . S
O34 C37 1.320 . S
O35 Cd32 2.333 . S
O35 C37 1.214 . S
O36 Cd32 2.352 . S
O36 C39 1.258 . S
C37 O34 1.320 . S
C37 O35 1.214 . S
O38 Cd30 2.277 . S
O38 C33 1.209 . S
C39 O36 1.258 . S
C39 O41 1.282 . S
O40 Cd32 2.277 . S
O40 C33 1.226 . S
O41 Cd32 2.356 . S
O41 C39 1.282 . S
C42 O43 1.306 . S
C42 O45 1.160 . S
O43 C42 1.306 . S
O43 Cd44 2.228 . S
Cd44 O43 2.228 . S
Cd44 O48 2.273 . S
Cd44 O52 2.277 . S
O45 C42 1.160 . S
O45 Cd46 2.203 . S
Cd46 O45 2.203 . S
Cd46 O48 2.411 . S
Cd46 O49 2.333 . S
Cd46 O50 2.352 . S
Cd46 O54 2.277 . S
Cd46 O55 2.356 . S
C47 O52 1.209 . S
C47 O54 1.226 . S
O48 Cd44 2.273 . S
O48 Cd46 2.411 . S
O48 C51 1.320 . S
O49 Cd46 2.333 . S
O49 C51 1.214 . S
O50 Cd46 2.352 . S
O50 C53 1.258 . S
C51 O48 1.320 . S
C51 O49 1.214 . S
O52 Cd44 2.277 . S
O52 C47 1.209 . S
C53 O50 1.258 . S
C53 O55 1.282 . S
O54 Cd46 2.277 . S
O54 C47 1.226 . S
O55 Cd46 2.356 . S
O55 C53 1.282 . S
C56 O57 1.306 . S
C56 O59 1.160 . S
O57 C56 1.306 . S
O57 Cd58 2.228 1_556 S
Cd58 O57 2.228 1_554 S
Cd58 O62 2.273 1_554 S
Cd58 O66 2.277 1_554 S
O59 C56 1.160 . S
O59 Cd60 2.203 . S
Cd60 O59 2.203 . S
Cd60 O62 2.411 . S
Cd60 O63 2.333 . S
Cd60 O64 2.352 . S
Cd60 O68 2.277 . S
Cd60 O69 2.356 . S
C61 O66 1.209 . S
C61 O68 1.226 . S
O62 Cd58 2.273 1_556 S
O62 Cd60 2.411 . S
O62 C65 1.320 . S
O63 Cd60 2.333 . S
O63 C65 1.214 . S
O64 Cd60 2.352 . S
O64 C67 1.258 . S
C65 O62 1.320 . S
C65 O63 1.214 . S
O66 Cd58 2.277 1_556 S
O66 C61 1.209 . S
C67 O64 1.258 . S
C67 O69 1.282 . S
O68 Cd60 2.277 . S
O68 C61 1.226 . S
O69 Cd60 2.356 . S
O69 C67 1.282 . S
C70 O71 1.306 . S
C70 O73 1.160 . S
O71 C70 1.306 . S
O71 Cd72 2.228 1_554 S
Cd72 O71 2.228 1_556 S
Cd72 O76 2.273 1_556 S
Cd72 O80 2.277 1_556 S
O73 C70 1.160 . S
O73 Cd74 2.203 . S
Cd74 O73 2.203 . S
Cd74 O76 2.411 . S
Cd74 O77 2.333 . S
Cd74 O78 2.352 . S
Cd74 O82 2.277 . S
Cd74 O83 2.356 . S
C75 O80 1.209 . S
C75 O82 1.226 . S
O76 Cd72 2.273 1_554 S
O76 Cd74 2.411 . S
O76 C79 1.320 . S
O77 Cd74 2.333 . S
O77 C79 1.214 . S
O78 Cd74 2.352 . S
O78 C81 1.258 . S
C79 O76 1.320 . S
C79 O77 1.214 . S
O80 Cd72 2.277 1_554 S
O80 C75 1.209 . S
C81 O78 1.258 . S
C81 O83 1.282 . S
O82 Cd74 2.277 . S
O82 C75 1.226 . S
O83 Cd74 2.356 . S
O83 C81 1.282 . S
C84 O85 1.306 . S
C84 O87 1.160 . S
O85 C84 1.306 . S
O85 Cd86 2.228 1_556 S
Cd86 O85 2.228 1_554 S
Cd86 O90 2.273 1_554 S
Cd86 O94 2.277 1_554 S
O87 C84 1.160 . S
O87 Cd88 2.203 . S
Cd88 O87 2.203 . S
Cd88 O90 2.411 . S
Cd88 O91 2.333 . S
Cd88 O92 2.352 . S
Cd88 O96 2.277 . S
Cd88 O97 2.356 . S
C89 O94 1.209 . S
C89 O96 1.226 . S
O90 Cd86 2.273 1_556 S
O90 Cd88 2.411 . S
O90 C93 1.320 . S
O91 Cd88 2.333 . S
O91 C93 1.214 . S
O92 Cd88 2.352 . S
O92 C95 1.258 . S
C93 O90 1.320 . S
C93 O91 1.214 . S
O94 Cd86 2.277 1_556 S
O94 C89 1.209 . S
C95 O92 1.258 . S
C95 O97 1.282 . S
O96 Cd88 2.277 . S
O96 C89 1.226 . S
O97 Cd88 2.356 . S
O97 C95 1.282 . S
C98 O99 1.306 . S
C98 O101 1.160 . S
O99 C98 1.306 . S
O99 Cd100 2.228 1_554 S
Cd100 O99 2.228 1_556 S
Cd100 O104 2.273 1_556 S
Cd100 O108 2.277 1_556 S
O101 C98 1.160 . S
O101 Cd102 2.203 . S
Cd102 O101 2.203 . S
Cd102 O104 2.411 . S
Cd102 O105 2.333 . S
Cd102 O106 2.352 . S
Cd102 O110 2.277 . S
Cd102 O111 2.356 . S
C103 O108 1.209 . S
C103 O110 1.226 . S
O104 Cd100 2.273 1_554 S
O104 Cd102 2.411 . S
O104 C107 1.320 . S
O105 Cd102 2.333 . S
O105 C107 1.214 . S
O106 Cd102 2.352 . S
O106 C109 1.258 . S
C107 O104 1.320 . S
C107 O105 1.214 . S
O108 Cd100 2.277 1_554 S
O108 C103 1.209 . S
C109 O106 1.258 . S
C109 O111 1.282 . S
O110 Cd102 2.277 . S
O110 C103 1.226 . S
O111 Cd102 2.356 . S
O111 C109 1.282 . S
C112 O113 1.306 . S
C112 O115 1.160 . S
O113 C112 1.306 . S
O113 Cd114 2.228 . S
Cd114 O113 2.228 . S
Cd114 O118 2.273 . S
Cd114 O122 2.277 . S
O115 C112 1.160 . S
O115 Cd116 2.203 . S
Cd116 O115 2.203 . S
Cd116 O118 2.411 . S
Cd116 O119 2.333 . S
Cd116 O120 2.352 . S
Cd116 O124 2.277 . S
Cd116 O125 2.356 . S
C117 O122 1.209 . S
C117 O124 1.226 . S
O118 Cd114 2.273 . S
O118 Cd116 2.411 . S
O118 C121 1.320 . S
O119 Cd116 2.333 . S
O119 C121 1.214 . S
O120 Cd116 2.352 . S
O120 C123 1.258 . S
C121 O118 1.320 . S
C121 O119 1.214 . S
O122 Cd114 2.277 . S
O122 C117 1.209 . S
C123 O120 1.258 . S
C123 O125 1.282 . S
O124 Cd116 2.277 . S
O124 C117 1.226 . S
O125 Cd116 2.356 . S
O125 C123 1.282 . S
C126 O127 1.306 . S
C126 O129 1.160 . S
O127 C126 1.306 . S
O127 Cd128 2.228 . S
Cd128 O127 2.228 . S
Cd128 O132 2.273 . S
Cd128 O136 2.277 . S
O129 C126 1.160 . S
O129 Cd130 2.203 . S
Cd130 O129 2.203 . S
Cd130 O132 2.411 . S
Cd130 O133 2.333 . S
Cd130 O134 2.352 . S
Cd130 O138 2.277 . S
Cd130 O139 2.356 . S
C131 O136 1.209 . S
C131 O138 1.226 . S
O132 Cd128 2.273 . S
O132 Cd130 2.411 . S
O132 C135 1.320 . S
O133 Cd130 2.333 . S
O133 C135 1.214 . S
O134 Cd130 2.352 . S
O134 C137 1.258 . S
C135 O132 1.320 . S
C135 O133 1.214 . S
O136 Cd128 2.277 . S
O136 C131 1.209 . S
C137 O134 1.258 . S
C137 O139 1.282 . S
O138 Cd130 2.277 . S
O138 C131 1.226 . S
O139 Cd130 2.356 . S
O139 C137 1.282 . S
C140 O141 1.306 . S
C140 O143 1.160 . S
O141 C140 1.306 . S
O141 Cd142 2.228 . S
Cd142 O141 2.228 . S
Cd142 O146 2.273 . S
Cd142 O150 2.277 . S
O143 C140 1.160 . S
O143 Cd144 2.203 . S
Cd144 O143 2.203 . S
Cd144 O146 2.411 . S
Cd144 O147 2.333 . S
Cd144 O148 2.352 . S
Cd144 O152 2.277 . S
Cd144 O153 2.356 . S
C145 O150 1.209 . S
C145 O152 1.226 . S
O146 Cd142 2.273 . S
O146 Cd144 2.411 . S
O146 C149 1.320 . S
O147 Cd144 2.333 . S
O147 C149 1.214 . S
O148 Cd144 2.352 . S
O148 C151 1.258 . S
C149 O146 1.320 . S
C149 O147 1.214 . S
O150 Cd142 2.277 . S
O150 C145 1.209 . S
C151 O148 1.258 . S
C151 O153 1.282 . S
O152 Cd144 2.277 . S
O152 C145 1.226 . S
O153 Cd144 2.356 . S
O153 C151 1.282 . S
C154 O155 1.306 . S
C154 O157 1.160 . S
O155 C154 1.306 . S
O155 Cd156 2.228 . S
Cd156 O155 2.228 . S
Cd156 O160 2.273 . S
Cd156 O164 2.277 . S
O157 C154 1.160 . S
O157 Cd158 2.203 . S
Cd158 O157 2.203 . S
Cd158 O160 2.411 . S
Cd158 O161 2.333 . S
Cd158 O162 2.352 . S
Cd158 O166 2.277 . S
Cd158 O167 2.356 . S
C159 O164 1.209 . S
C159 O166 1.226 . S
O160 Cd156 2.273 . S
O160 Cd158 2.411 . S
O160 C163 1.320 . S
O161 Cd158 2.333 . S
O161 C163 1.214 . S
O162 Cd158 2.352 . S
O162 C165 1.258 . S
C163 O160 1.320 . S
C163 O161 1.214 . S
O164 Cd156 2.277 . S
O164 C159 1.209 . S
C165 O162 1.258 . S
C165 O167 1.282 . S
O166 Cd158 2.277 . S
O166 C159 1.226 . S
O167 Cd158 2.356 . S
O167 C165 1.282 . S
C168 O169 1.306 . S
C168 O171 1.160 . S
O169 C168 1.306 . S
O169 Cd170 2.228 . S
Cd170 O169 2.228 . S
Cd170 O174 2.273 . S
Cd170 O178 2.277 . S
O171 C168 1.160 . S
O171 Cd172 2.203 . S
Cd172 O171 2.203 . S
Cd172 O174 2.411 . S
Cd172 O175 2.333 . S
Cd172 O176 2.352 . S
Cd172 O180 2.277 . S
Cd172 O181 2.356 . S
C173 O178 1.209 . S
C173 O180 1.226 . S
O174 Cd170 2.273 . S
O174 Cd172 2.411 . S
O174 C177 1.320 . S
O175 Cd172 2.333 . S
O175 C177 1.214 . S
O176 Cd172 2.352 . S
O176 C179 1.258 . S
C177 O174 1.320 . S
C177 O175 1.214 . S
O178 Cd170 2.277 . S
O178 C173 1.209 . S
C179 O176 1.258 . S
C179 O181 1.282 . S
O180 Cd172 2.277 . S
O180 C173 1.226 . S
O181 Cd172 2.356 . S
O181 C179 1.282 . S
C182 O183 1.306 . S
C182 O185 1.160 . S
O183 C182 1.306 . S
O183 Cd184 2.228 . S
Cd184 O183 2.228 . S
Cd184 O188 2.273 . S
Cd184 O192 2.277 . S
O185 C182 1.160 . S
O185 Cd186 2.203 . S
Cd186 O185 2.203 . S
Cd186 O188 2.411 . S
Cd186 O189 2.333 . S
Cd186 O190 2.352 . S
Cd186 O194 2.277 . S
Cd186 O195 2.356 . S
C187 O192 1.209 . S
C187 O194 1.226 . S
O188 Cd184 2.273 . S
O188 Cd186 2.411 . S
O188 C191 1.320 . S
O189 Cd186 2.333 . S
O189 C191 1.214 . S
O190 Cd186 2.352 . S
O190 C193 1.258 . S
C191 O188 1.320 . S
C191 O189 1.214 . S
O192 Cd184 2.277 . S
O192 C187 1.209 . S
C193 O190 1.258 . S
C193 O195 1.282 . S
O194 Cd186 2.277 . S
O194 C187 1.226 . S
O195 Cd186 2.356 . S
O195 C193 1.282 . S
C196 O197 1.306 . S
C196 O199 1.160 . S
O197 C196 1.306 . S
O197 Cd198 2.228 . S
Cd198 O197 2.228 . S
Cd198 O202 2.273 . S
Cd198 O206 2.277 . S
O199 C196 1.160 . S
O199 Cd200 2.203 . S
Cd200 O199 2.203 . S
Cd200 O202 2.411 . S
Cd200 O203 2.333 . S
Cd200 O204 2.352 . S
Cd200 O208 2.277 . S
Cd200 O209 2.356 . S
C201 O206 1.209 . S
C201 O208 1.226 . S
O202 Cd198 2.273 . S
O202 Cd200 2.411 . S
O202 C205 1.320 . S
O203 Cd200 2.333 . S
O203 C205 1.214 . S
O204 Cd200 2.352 . S
O204 C207 1.258 . S
C205 O202 1.320 . S
C205 O203 1.214 . S
O206 Cd198 2.277 . S
O206 C201 1.209 . S
C207 O204 1.258 . S
C207 O209 1.282 . S
O208 Cd200 2.277 . S
O208 C201 1.226 . S
O209 Cd200 2.356 . S
O209 C207 1.282 . S
C210 O211 1.306 . S
C210 O213 1.160 . S
O211 C210 1.306 . S
O211 Cd212 2.228 . S
Cd212 O211 2.228 . S
Cd212 O216 2.273 . S
Cd212 O220 2.277 . S
O213 C210 1.160 . S
O213 Cd214 2.203 . S
Cd214 O213 2.203 . S
Cd214 O216 2.411 . S
Cd214 O217 2.333 . S
Cd214 O218 2.352 . S
Cd214 O222 2.277 . S
Cd214 O223 2.356 . S
C215 O220 1.209 . S
C215 O222 1.226 . S
O216 Cd212 2.273 . S
O216 Cd214 2.411 . S
O216 C219 1.320 . S
O217 Cd214 2.333 . S
O217 C219 1.214 . S
O218 Cd214 2.352 . S
O218 C221 1.258 . S
C219 O216 1.320 . S
C219 O217 1.214 . S
O220 Cd212 2.277 . S
O220 C215 1.209 . S
C221 O218 1.258 . S
C221 O223 1.282 . S
O222 Cd214 2.277 . S
O222 C215 1.226 . S
O223 Cd214 2.356 . S
O223 C221 1.282 . S
H224 C232 0.950 . S
H225 C237 0.950 . S
H226 C234 0.950 . S
H227 C236 0.950 . S
H228 C238 0.950 . S
H229 C240 0.950 . S
H230 C242 0.950 . S
H231 C243 0.950 . S
C232 H224 0.950 . S
C232 C233 1.386 . S
C232 C234 1.391 . S
C233 C232 1.386 . S
C233 C237 1.393 . S
C234 H226 0.950 . S
C234 C232 1.391 . S
C234 C235 1.400 . S
C235 C234 1.400 . S
C235 C236 1.398 . S
C235 C241 1.491 . S
C236 H227 0.950 . S
C236 C235 1.398 . S
C236 C237 1.391 . S
C237 H225 0.950 . S
C237 C233 1.393 . S
C237 C236 1.391 . S
C238 H228 0.950 . S
C238 C239 1.386 . S
C238 C240 1.391 . S
C239 C238 1.386 . S
C239 C243 1.393 . S
C240 H229 0.950 . S
C240 C238 1.391 . S
C240 C241 1.400 . S
C241 C235 1.491 . S
C241 C240 1.400 . S
C241 C242 1.398 . S
C242 H230 0.950 . S
C242 C241 1.398 . S
C242 C243 1.391 . S
C243 H231 0.950 . S
C243 C239 1.393 . S
C243 C242 1.391 . S
H244 C252 0.950 . S
H245 C257 0.950 . S
H246 C254 0.950 . S
H247 C256 0.950 . S
H248 C258 0.950 . S
H249 C260 0.950 . S
H250 C262 0.950 . S
H251 C263 0.950 . S
C252 H244 0.950 . S
C252 C253 1.386 . S
C252 C254 1.391 . S
C253 C252 1.386 . S
C253 C257 1.393 . S
C254 H246 0.950 . S
C254 C252 1.391 . S
C254 C255 1.400 . S
C255 C254 1.400 . S
C255 C256 1.398 . S
C255 C261 1.491 . S
C256 H247 0.950 . S
C256 C255 1.398 . S
C256 C257 1.391 . S
C257 H245 0.950 . S
C257 C253 1.393 . S
C257 C256 1.391 . S
C258 H248 0.950 . S
C258 C259 1.386 . S
C258 C260 1.391 . S
C259 C258 1.386 . S
C259 C263 1.393 . S
C260 H249 0.950 . S
C260 C258 1.391 . S
C260 C261 1.400 . S
C261 C255 1.491 . S
C261 C260 1.400 . S
C261 C262 1.398 . S
C262 H250 0.950 . S
C262 C261 1.398 . S
C262 C263 1.391 . S
C263 H251 0.950 . S
C263 C259 1.393 . S
C263 C262 1.391 . S
H264 C272 0.950 . S
H265 C277 0.950 . S
H266 C274 0.950 . S
H267 C276 0.950 . S
H268 C278 0.950 . S
H269 C280 0.950 . S
H270 C282 0.950 . S
H271 C283 0.950 . S
C272 H264 0.950 . S
C272 C273 1.386 . S
C272 C274 1.391 . S
C273 C272 1.386 . S
C273 C277 1.393 . S
C274 H266 0.950 . S
C274 C272 1.391 . S
C274 C275 1.400 . S
C275 C274 1.400 . S
C275 C276 1.398 . S
C275 C281 1.491 . S
C276 H267 0.950 . S
C276 C275 1.398 . S
C276 C277 1.391 . S
C277 H265 0.950 . S
C277 C273 1.393 . S
C277 C276 1.391 . S
C278 H268 0.950 . S
C278 C279 1.386 . S
C278 C280 1.391 . S
C279 C278 1.386 . S
C279 C283 1.393 . S
C280 H269 0.950 . S
C280 C278 1.391 . S
C280 C281 1.400 . S
C281 C275 1.491 . S
C281 C280 1.400 . S
C281 C282 1.398 . S
C282 H270 0.950 . S
C282 C281 1.398 . S
C282 C283 1.391 . S
C283 H271 0.950 . S
C283 C279 1.393 . S
C283 C282 1.391 . S
H284 C292 0.950 . S
H285 C297 0.950 . S
H286 C294 0.950 . S
H287 C296 0.950 . S
H288 C298 0.950 . S
H289 C300 0.950 . S
H290 C302 0.950 . S
H291 C303 0.950 . S
C292 H284 0.950 . S
C292 C293 1.386 . S
C292 C294 1.391 . S
C293 C292 1.386 . S
C293 C297 1.393 . S
C294 H286 0.950 . S
C294 C292 1.391 . S
C294 C295 1.400 . S
C295 C294 1.400 . S
C295 C296 1.398 . S
C295 C301 1.491 . S
C296 H287 0.950 . S
C296 C295 1.398 . S
C296 C297 1.391 . S
C297 H285 0.950 . S
C297 C293 1.393 . S
C297 C296 1.391 . S
C298 H288 0.950 . S
C298 C299 1.386 . S
C298 C300 1.391 . S
C299 C298 1.386 . S
C299 C303 1.393 . S
C300 H289 0.950 . S
C300 C298 1.391 . S
C300 C301 1.400 . S
C301 C295 1.491 . S
C301 C300 1.400 . S
C301 C302 1.398 . S
C302 H290 0.950 . S
C302 C301 1.398 . S
C302 C303 1.391 . S
C303 H291 0.950 . S
C303 C299 1.393 . S
C303 C302 1.391 . S
H304 C312 0.950 . S
H305 C317 0.950 . S
H306 C314 0.950 1_556 S
H307 C316 0.950 . S
H308 C318 0.950 . S
H309 C320 0.950 . S
H310 C322 0.950 . S
H311 C323 0.950 . S
C312 H304 0.950 . S
C312 C313 1.386 . S
C312 C314 1.391 . S
C313 C312 1.386 . S
C313 C317 1.393 . S
C314 H306 0.950 1_554 S
C314 C312 1.391 . S
C314 C315 1.400 . S
C315 C314 1.400 . S
C315 C316 1.398 . S
C315 C321 1.491 . S
C316 H307 0.950 . S
C316 C315 1.398 . S
C316 C317 1.391 . S
C317 H305 0.950 . S
C317 C313 1.393 . S
C317 C316 1.391 . S
C318 H308 0.950 . S
C318 C319 1.386 1_554 S
C318 C320 1.391 . S
C319 C318 1.386 1_556 S
C319 C323 1.393 . S
C320 H309 0.950 . S
C320 C318 1.391 . S
C320 C321 1.400 . S
C321 C315 1.491 . S
C321 C320 1.400 . S
C321 C322 1.398 1_554 S
C322 H310 0.950 . S
C322 C321 1.398 1_556 S
C322 C323 1.391 . S
C323 H311 0.950 . S
C323 C319 1.393 . S
C323 C322 1.391 . S
H324 C332 0.950 . S
H325 C337 0.950 . S
H326 C334 0.950 . S
H327 C336 0.950 . S
H328 C338 0.965 1_655 S
H329 C340 0.950 1_554 S
H330 C342 0.950 . S
H331 C343 0.950 . S
C332 H324 0.950 . S
C332 C333 1.386 1_556 S
C332 C334 1.391 . S
C333 C332 1.386 1_554 S
C333 C337 1.393 . S
C334 H326 0.950 . S
C334 C332 1.391 . S
C334 C335 1.400 . S
C335 C334 1.400 . S
C335 C336 1.398 1_556 S
C335 C341 1.491 . S
C336 H327 0.950 . S
C336 C335 1.398 1_554 S
C336 C337 1.391 . S
C337 H325 0.950 . S
C337 C333 1.393 . S
C337 C336 1.391 . S
C338 H328 0.965 1_455 S
C338 C339 1.386 . S
C338 C340 1.391 . S
C339 C338 1.386 . S
C339 C343 1.393 . S
C340 H329 0.950 1_556 S
C340 C338 1.391 . S
C340 C341 1.400 . S
C341 C335 1.491 . S
C341 C340 1.400 . S
C341 C342 1.398 . S
C342 H330 0.950 . S
C342 C341 1.398 . S
C342 C343 1.391 . S
C343 H331 0.950 . S
C343 C339 1.393 . S
C343 C342 1.391 . S
H344 C352 0.957 . S
H345 C357 0.950 . S
H346 C354 0.950 . S
H347 C356 0.950 . S
H348 C358 0.950 1_545 S
H349 C360 0.979 . S
H350 C362 0.950 . S
H351 C363 0.950 . S
C352 H344 0.957 . S
C352 C353 1.386 . S
C352 C354 1.391 1_556 S
C353 C352 1.386 . S
C353 C357 1.393 . S
C354 H346 0.950 . S
C354 C352 1.391 1_554 S
C354 C355 1.400 . S
C355 C354 1.400 . S
C355 C356 1.398 1_554 S
C355 C361 1.491 . S
C356 H347 0.950 . S
C356 C355 1.398 1_556 S
C356 C357 1.391 . S
C357 H345 0.950 . S
C357 C353 1.393 . S
C357 C356 1.391 . S
C358 H348 0.950 1_565 S
C358 C359 1.386 . S
C358 C360 1.391 . S
C359 C358 1.386 . S
C359 C363 1.393 . S
C360 H349 0.979 . S
C360 C358 1.391 . S
C360 C361 1.400 . S
C361 C355 1.491 . S
C361 C360 1.400 . S
C361 C362 1.398 . S
C362 H350 0.950 . S
C362 C361 1.398 . S
C362 C363 1.391 . S
C363 H351 0.950 . S
C363 C359 1.393 . S
C363 C362 1.391 . S
H364 C372 0.950 . S
H365 C377 0.950 . S
H366 C374 0.950 . S
H367 C376 0.950 . S
H368 C378 0.950 . S
H369 C380 0.950 . S
H370 C382 0.950 1_554 S
H371 C383 0.950 . S
C372 H364 0.950 . S
C372 C373 1.386 . S
C372 C374 1.391 . S
C373 C372 1.386 . S
C373 C377 1.393 1_554 S
C374 H366 0.950 . S
C374 C372 1.391 . S
C374 C375 1.400 1_554 S
C375 C374 1.400 1_556 S
C375 C376 1.398 . S
C375 C381 1.491 . S
C376 H367 0.950 . S
C376 C375 1.398 . S
C376 C377 1.391 . S
C377 H365 0.950 . S
C377 C373 1.393 1_556 S
C377 C376 1.391 . S
C378 H368 0.950 . S
C378 C379 1.386 . S
C378 C380 1.391 . S
C379 C378 1.386 . S
C379 C383 1.393 . S
C380 H369 0.950 . S
C380 C378 1.391 . S
C380 C381 1.400 . S
C381 C375 1.491 . S
C381 C380 1.400 . S
C381 C382 1.398 . S
C382 H370 0.950 1_556 S
C382 C381 1.398 . S
C382 C383 1.391 . S
C383 H371 0.950 . S
C383 C379 1.393 . S
C383 C382 1.391 . S
H384 C392 0.950 . S
H385 C397 0.950 . S
H386 C394 0.950 . S
H387 C396 0.950 . S
H388 C398 0.950 . S
H389 C400 0.950 . S
H390 C402 0.950 . S
H391 C403 0.950 . S
C392 H384 0.950 . S
C392 C393 1.386 . S
C392 C394 1.391 . S
C393 C392 1.386 . S
C393 C397 1.393 . S
C394 H386 0.950 . S
C394 C392 1.391 . S
C394 C395 1.400 . S
C395 C394 1.400 . S
C395 C396 1.398 . S
C395 C401 1.491 . S
C396 H387 0.950 . S
C396 C395 1.398 . S
C396 C397 1.391 . S
C397 H385 0.950 . S
C397 C393 1.393 . S
C397 C396 1.391 . S
C398 H388 0.950 . S
C398 C399 1.386 . S
C398 C400 1.391 . S
C399 C398 1.386 . S
C399 C403 1.393 . S
C400 H389 0.950 . S
C400 C398 1.391 . S
C400 C401 1.400 . S
C401 C395 1.491 . S
C401 C400 1.400 . S
C401 C402 1.398 . S
C402 H390 0.950 . S
C402 C401 1.398 . S
C402 C403 1.391 . S
C403 H391 0.950 . S
C403 C399 1.393 . S
C403 C402 1.391 . S
H404 C412 0.950 . S
H405 C417 0.950 1_455 S
H406 C414 0.950 . S
H407 C416 0.950 . S
H408 C418 0.950 . S
H409 C420 0.950 . S
H410 C422 0.950 . S
H411 C423 0.950 . S
C412 H404 0.950 . S
C412 C413 1.386 . S
C412 C414 1.391 . S
C413 C412 1.386 . S
C413 C417 1.393 . S
C414 H406 0.950 . S
C414 C412 1.391 . S
C414 C415 1.400 . S
C415 C414 1.400 . S
C415 C416 1.398 . S
C415 C421 1.491 . S
C416 H407 0.950 . S
C416 C415 1.398 . S
C416 C417 1.391 . S
C417 H405 0.950 1_655 S
C417 C413 1.393 . S
C417 C416 1.391 . S
C418 H408 0.950 . S
C418 C419 1.386 . S
C418 C420 1.391 . S
C419 C418 1.386 . S
C419 C423 1.393 . S
C420 H409 0.950 . S
C420 C418 1.391 . S
C420 C421 1.400 . S
C421 C415 1.491 . S
C421 C420 1.400 . S
C421 C422 1.398 . S
C422 H410 0.950 . S
C422 C421 1.398 . S
C422 C423 1.391 . S
C423 H411 0.950 . S
C423 C419 1.393 . S
C423 C422 1.391 . S
H424 C432 0.950 . S
H425 C437 0.950 . S
H426 C434 0.950 . S
H427 C436 0.950 . S
H428 C438 0.950 . S
H429 C440 0.950 . S
H430 C442 0.950 . S
H431 C443 0.950 . S
C432 H424 0.950 . S
C432 C433 1.386 . S
C432 C434 1.391 . S
C433 C432 1.386 . S
C433 C437 1.393 . S
C434 H426 0.950 . S
C434 C432 1.391 . S
C434 C435 1.400 . S
C435 C434 1.400 . S
C435 C436 1.398 . S
C435 C441 1.491 . S
C436 H427 0.950 . S
C436 C435 1.398 . S
C436 C437 1.391 . S
C437 H425 0.950 . S
C437 C433 1.393 . S
C437 C436 1.391 . S
C438 H428 0.950 . S
C438 C439 1.386 . S
C438 C440 1.391 . S
C439 C438 1.386 . S
C439 C443 1.393 . S
C440 H429 0.950 . S
C440 C438 1.391 . S
C440 C441 1.400 . S
C441 C435 1.491 . S
C441 C440 1.400 . S
C441 C442 1.398 . S
C442 H430 0.950 . S
C442 C441 1.398 . S
C442 C443 1.391 . S
C443 H431 0.950 . S
C443 C439 1.393 . S
C443 C442 1.391 . S
H444 C452 0.950 1_655 S
H445 C457 0.950 . S
H446 C454 0.950 . S
H447 C456 0.950 . S
H448 C458 0.950 . S
H449 C460 0.950 . S
H450 C462 0.950 . S
H451 C463 0.950 . S
C452 H444 0.950 1_455 S
C452 C453 1.386 . S
C452 C454 1.391 . S
C453 C452 1.386 . S
C453 C457 1.393 . S
C454 H446 0.950 . S
C454 C452 1.391 . S
C454 C455 1.400 . S
C455 C454 1.400 . S
C455 C456 1.398 . S
C455 C461 1.491 . S
C456 H447 0.950 . S
C456 C455 1.398 . S
C456 C457 1.391 . S
C457 H445 0.950 . S
C457 C453 1.393 . S
C457 C456 1.391 . S
C458 H448 0.950 . S
C458 C459 1.386 . S
C458 C460 1.391 . S
C459 C458 1.386 . S
C459 C463 1.393 . S
C460 H449 0.950 . S
C460 C458 1.391 . S
C460 C461 1.400 . S
C461 C455 1.491 . S
C461 C460 1.400 . S
C461 C462 1.398 . S
C462 H450 0.950 . S
C462 C461 1.398 . S
C462 C463 1.391 . S
C463 H451 0.950 . S
C463 C459 1.393 . S
C463 C462 1.391 . S
H464 C472 0.950 . S
H465 C477 0.950 . S
H466 C474 0.950 . S
H467 C476 0.950 . S
H468 C478 0.950 . S
H469 C480 0.950 . S
H470 C482 0.950 . S
H471 C483 0.950 . S
C472 H464 0.950 . S
C472 C473 1.386 . S
C472 C474 1.391 . S
C473 C472 1.386 . S
C473 C477 1.393 . S
C474 H466 0.950 . S
C474 C472 1.391 . S
C474 C475 1.400 . S
C475 C474 1.400 . S
C475 C476 1.398 . S
C475 C481 1.491 . S
C476 H467 0.950 . S
C476 C475 1.398 . S
C476 C477 1.391 . S
C477 H465 0.950 . S
C477 C473 1.393 . S
C477 C476 1.391 . S
C478 H468 0.950 . S
C478 C479 1.386 . S
C478 C480 1.391 . S
C479 C478 1.386 . S
C479 C483 1.393 . S
C480 H469 0.950 . S
C480 C478 1.391 . S
C480 C481 1.400 . S
C481 C475 1.491 . S
C481 C480 1.400 . S
C481 C482 1.398 . S
C482 H470 0.950 . S
C482 C481 1.398 . S
C482 C483 1.391 . S
C483 H471 0.950 . S
C483 C479 1.393 . S
C483 C482 1.391 . S
H484 C492 0.950 . S
H485 C497 0.950 . S
H486 C494 0.950 . S
H487 C496 0.950 . S
H488 C498 0.950 . S
H489 C500 0.950 . S
H490 C502 0.950 . S
H491 C503 0.950 . S
C492 H484 0.950 . S
C492 C493 1.386 . S
C492 C494 1.391 . S
C493 C492 1.386 . S
C493 C497 1.393 . S
C494 H486 0.950 . S
C494 C492 1.391 . S
C494 C495 1.400 . S
C495 C494 1.400 . S
C495 C496 1.398 . S
C495 C501 1.491 . S
C496 H487 0.950 . S
C496 C495 1.398 . S
C496 C497 1.391 . S
C497 H485 0.950 . S
C497 C493 1.393 . S
C497 C496 1.391 . S
C498 H488 0.950 . S
C498 C499 1.386 . S
C498 C500 1.391 . S
C499 C498 1.386 . S
C499 C503 1.393 . S
C500 H489 0.950 . S
C500 C498 1.391 . S
C500 C501 1.400 . S
C501 C495 1.491 . S
C501 C500 1.400 . S
C501 C502 1.398 . S
C502 H490 0.950 . S
C502 C501 1.398 . S
C502 C503 1.391 . S
C503 H491 0.950 . S
C503 C499 1.393 . S
C503 C502 1.391 . S
H504 C512 0.950 . S
H505 C517 0.950 . S
H506 C514 0.950 . S
H507 C516 0.950 . S
H508 C518 0.950 . S
H509 C520 0.950 . S
H510 C522 0.950 . S
H511 C523 0.950 . S
C512 H504 0.950 . S
C512 C513 1.386 . S
C512 C514 1.391 . S
C513 C512 1.386 . S
C513 C517 1.393 . S
C514 H506 0.950 . S
C514 C512 1.391 . S
C514 C515 1.400 . S
C515 C514 1.400 . S
C515 C516 1.398 . S
C515 C521 1.491 . S
C516 H507 0.950 . S
C516 C515 1.398 . S
C516 C517 1.391 . S
C517 H505 0.950 . S
C517 C513 1.393 . S
C517 C516 1.391 . S
C518 H508 0.950 . S
C518 C519 1.386 . S
C518 C520 1.391 . S
C519 C518 1.386 . S
C519 C523 1.393 . S
C520 H509 0.950 . S
C520 C518 1.391 . S
C520 C521 1.400 . S
C521 C515 1.491 . S
C521 C520 1.400 . S
C521 C522 1.398 . S
C522 H510 0.950 . S
C522 C521 1.398 . S
C522 C523 1.391 . S
C523 H511 0.950 . S
C523 C519 1.393 . S
C523 C522 1.391 . S
H524 C532 0.950 . S
H525 C537 0.950 . S
H526 C534 0.950 . S
H527 C536 0.950 . S
H528 C538 0.950 . S
H529 C540 0.950 . S
H530 C542 0.950 . S
H531 C543 0.950 . S
C532 H524 0.950 . S
C532 C533 1.386 . S
C532 C534 1.391 . S
C533 C532 1.386 . S
C533 C537 1.393 . S
C534 H526 0.950 . S
C534 C532 1.391 . S
C534 C535 1.400 . S
C535 C534 1.400 . S
C535 C536 1.398 . S
C535 C541 1.491 . S
C536 H527 0.950 . S
C536 C535 1.398 . S
C536 C537 1.391 . S
C537 H525 0.950 . S
C537 C533 1.393 . S
C537 C536 1.391 . S
C538 H528 0.950 . S
C538 C539 1.386 . S
C538 C540 1.391 . S
C539 C538 1.386 . S
C539 C543 1.393 . S
C540 H529 0.950 . S
C540 C538 1.391 . S
C540 C541 1.400 . S
C541 C535 1.491 . S
C541 C540 1.400 . S
C541 C542 1.398 . S
C542 H530 0.950 . S
C542 C541 1.398 . S
C542 C543 1.391 . S
C543 H531 0.950 . S
C543 C539 1.393 . S
C543 C542 1.391 . S
H544 C552 0.950 . S
H545 C557 0.950 . S
H546 C554 0.950 . S
H547 C556 0.950 . S
H548 C558 0.950 . S
H549 C560 0.950 . S
H550 C562 0.950 . S
H551 C563 0.950 . S
C552 H544 0.950 . S
C552 C553 1.386 . S
C552 C554 1.391 . S
C553 C552 1.386 . S
C553 C557 1.393 . S
C554 H546 0.950 . S
C554 C552 1.391 . S
C554 C555 1.400 . S
C555 C554 1.400 . S
C555 C556 1.398 . S
C555 C561 1.491 . S
C556 H547 0.950 . S
C556 C555 1.398 . S
C556 C557 1.391 . S
C557 H545 0.950 . S
C557 C553 1.393 . S
C557 C556 1.391 . S
C558 H548 0.950 . S
C558 C559 1.386 . S
C558 C560 1.391 . S
C559 C558 1.386 . S
C559 C563 1.393 . S
C560 H549 0.950 . S
C560 C558 1.391 . S
C560 C561 1.400 . S
C561 C555 1.491 . S
C561 C560 1.400 . S
C561 C562 1.398 . S
C562 H550 0.950 . S
C562 C561 1.398 . S
C562 C563 1.391 . S
C563 H551 0.950 . S
C563 C559 1.393 . S
C563 C562 1.391 . S
H564 C572 0.950 . S
H565 C577 0.950 . S
H566 C574 0.950 . S
H567 C576 0.950 . S
H568 C578 0.950 . S
H569 C580 0.950 . S
H570 C582 0.950 . S
H571 C583 0.950 . S
C572 H564 0.950 . S
C572 C573 1.386 . S
C572 C574 1.391 . S
C573 C572 1.386 . S
C573 C577 1.393 . S
C574 H566 0.950 . S
C574 C572 1.391 . S
C574 C575 1.400 . S
C575 C574 1.400 . S
C575 C576 1.398 . S
C575 C581 1.491 . S
C576 H567 0.950 . S
C576 C575 1.398 . S
C576 C577 1.391 . S
C577 H565 0.950 . S
C577 C573 1.393 . S
C577 C576 1.391 . S
C578 H568 0.950 . S
C578 C579 1.386 . S
C578 C580 1.391 . S
C579 C578 1.386 . S
C579 C583 1.393 . S
C580 H569 0.950 . S
C580 C578 1.391 . S
C580 C581 1.400 . S
C581 C575 1.491 . S
C581 C580 1.400 . S
C581 C582 1.398 . S
C582 H570 0.950 . S
C582 C581 1.398 . S
C582 C583 1.391 . S
C583 H571 0.950 . S
C583 C579 1.393 . S
C583 C582 1.391 . S
H584 C592 0.950 . S
H585 C597 0.950 . S
H586 C594 0.950 . S
H587 C596 0.950 . S
H588 C598 0.950 . S
H589 C600 0.950 . S
H590 C602 0.950 . S
H591 C603 0.950 . S
C592 H584 0.950 . S
C592 C593 1.386 . S
C592 C594 1.391 . S
C593 C592 1.386 . S
C593 C597 1.393 . S
C594 H586 0.950 . S
C594 C592 1.391 . S
C594 C595 1.400 . S
C595 C594 1.400 . S
C595 C596 1.398 . S
C595 C601 1.491 . S
C596 H587 0.950 . S
C596 C595 1.398 . S
C596 C597 1.391 . S
C597 H585 0.950 . S
C597 C593 1.393 . S
C597 C596 1.391 . S
C598 H588 0.950 . S
C598 C599 1.386 . S
C598 C600 1.391 . S
C599 C598 1.386 . S
C599 C603 1.393 . S
C600 H589 0.950 . S
C600 C598 1.391 . S
C600 C601 1.400 . S
C601 C595 1.491 . S
C601 C600 1.400 . S
C601 C602 1.398 . S
C602 H590 0.950 . S
C602 C601 1.398 . S
C602 C603 1.391 . S
C603 H591 0.950 . S
C603 C599 1.393 . S
C603 C602 1.391 . S
H604 C612 0.950 . S
H605 C617 0.950 . S
H606 C614 0.950 . S
H607 C616 0.950 . S
H608 C618 0.950 . S
H609 C620 0.950 . S
H610 C622 0.950 . S
H611 C623 0.950 . S
C612 H604 0.950 . S
C612 C613 1.386 . S
C612 C614 1.391 . S
C613 C612 1.386 . S
C613 C617 1.393 . S
C614 H606 0.950 . S
C614 C612 1.391 . S
C614 C615 1.400 . S
C615 C614 1.400 . S
C615 C616 1.398 . S
C615 C621 1.491 . S
C616 H607 0.950 . S
C616 C615 1.398 . S
C616 C617 1.391 . S
C617 H605 0.950 . S
C617 C613 1.393 . S
C617 C616 1.391 . S
C618 H608 0.950 . S
C618 C619 1.386 . S
C618 C620 1.391 . S
C619 C618 1.386 . S
C619 C623 1.393 . S
C620 H609 0.950 . S
C620 C618 1.391 . S
C620 C621 1.400 . S
C621 C615 1.491 . S
C621 C620 1.400 . S
C621 C622 1.398 . S
C622 H610 0.950 . S
C622 C621 1.398 . S
C622 C623 1.391 . S
C623 H611 0.950 . S
C623 C619 1.393 . S
C623 C622 1.391 . S
H624 C632 0.950 . S
H625 C637 0.950 . S
H626 C634 0.950 . S
H627 C636 0.950 . S
H628 C638 0.950 . S
H629 C640 0.950 . S
H630 C642 0.950 . S
H631 C643 0.950 . S
C632 H624 0.950 . S
C632 C633 1.386 . S
C632 C634 1.391 . S
C633 C632 1.386 . S
C633 C637 1.393 . S
C634 H626 0.950 . S
C634 C632 1.391 . S
C634 C635 1.400 . S
C635 C634 1.400 . S
C635 C636 1.398 . S
C635 C641 1.491 . S
C636 H627 0.950 . S
C636 C635 1.398 . S
C636 C637 1.391 . S
C637 H625 0.950 . S
C637 C633 1.393 . S
C637 C636 1.391 . S
C638 H628 0.950 . S
C638 C639 1.386 . S
C638 C640 1.391 . S
C639 C638 1.386 . S
C639 C643 1.393 . S
C640 H629 0.950 . S
C640 C638 1.391 . S
C640 C641 1.400 . S
C641 C635 1.491 . S
C641 C640 1.400 . S
C641 C642 1.398 . S
C642 H630 0.950 . S
C642 C641 1.398 . S
C642 C643 1.391 . S
C643 H631 0.950 . S
C643 C639 1.393 . S
C643 C642 1.391 . S
H644 C652 0.950 . S
H645 C657 0.950 . S
H646 C654 0.950 . S
H647 C656 0.950 . S
H648 C658 0.950 . S
H649 C660 0.950 . S
H650 C662 0.950 . S
H651 C663 0.950 . S
C652 H644 0.950 . S
C652 C653 1.386 . S
C652 C654 1.391 . S
C653 C652 1.386 . S
C653 C657 1.393 . S
C654 H646 0.950 . S
C654 C652 1.391 . S
C654 C655 1.400 . S
C655 C654 1.400 . S
C655 C656 1.398 . S
C655 C661 1.491 . S
C656 H647 0.950 . S
C656 C655 1.398 . S
C656 C657 1.391 . S
C657 H645 0.950 . S
C657 C653 1.393 . S
C657 C656 1.391 . S
C658 H648 0.950 . S
C658 C659 1.386 . S
C658 C660 1.391 . S
C659 C658 1.386 . S
C659 C663 1.393 . S
C660 H649 0.950 . S
C660 C658 1.391 . S
C660 C661 1.400 . S
C661 C655 1.491 . S
C661 C660 1.400 . S
C661 C662 1.398 . S
C662 H650 0.950 . S
C662 C661 1.398 . S
C662 C663 1.391 . S
C663 H651 0.950 . S
C663 C659 1.393 . S
C663 C662 1.391 . S
H664 C672 0.950 . S
H665 C677 0.950 . S
H666 C674 0.950 . S
H667 C676 0.950 . S
H668 C678 0.950 . S
H669 C680 0.950 . S
H670 C682 0.950 . S
H671 C683 0.950 . S
C672 H664 0.950 . S
C672 C673 1.386 . S
C672 C674 1.391 . S
C673 C672 1.386 . S
C673 C677 1.393 . S
C674 H666 0.950 . S
C674 C672 1.391 . S
C674 C675 1.400 . S
C675 C674 1.400 . S
C675 C676 1.398 . S
C675 C681 1.491 . S
C676 H667 0.950 . S
C676 C675 1.398 . S
C676 C677 1.391 . S
C677 H665 0.950 . S
C677 C673 1.393 . S
C677 C676 1.391 . S
C678 H668 0.950 . S
C678 C679 1.386 . S
C678 C680 1.391 . S
C679 C678 1.386 . S
C679 C683 1.393 . S
C680 H669 0.950 . S
C680 C678 1.391 . S
C680 C681 1.400 . S
C681 C675 1.491 . S
C681 C680 1.400 . S
C681 C682 1.398 . S
C682 H670 0.950 . S
C682 C681 1.398 . S
C682 C683 1.391 . S
C683 H671 0.950 . S
C683 C679 1.393 . S
C683 C682 1.391 . S
H684 C692 0.950 . S
H685 C697 0.950 . S
H686 C694 0.950 . S
H687 C696 0.950 . S
H688 C698 0.950 . S
H689 C700 0.950 . S
H690 C702 0.950 . S
H691 C703 0.950 . S
C692 H684 0.950 . S
C692 C693 1.386 . S
C692 C694 1.391 . S
C693 C692 1.386 . S
C693 C697 1.393 . S
C694 H686 0.950 . S
C694 C692 1.391 . S
C694 C695 1.400 . S
C695 C694 1.400 . S
C695 C696 1.398 . S
C695 C701 1.491 . S
C696 H687 0.950 . S
C696 C695 1.398 . S
C696 C697 1.391 . S
C697 H685 0.950 . S
C697 C693 1.393 . S
C697 C696 1.391 . S
C698 H688 0.950 . S
C698 C699 1.386 . S
C698 C700 1.391 . S
C699 C698 1.386 . S
C699 C703 1.393 . S
C700 H689 0.950 . S
C700 C698 1.391 . S
C700 C701 1.400 . S
C701 C695 1.491 . S
C701 C700 1.400 . S
C701 C702 1.398 . S
C702 H690 0.950 . S
C702 C701 1.398 . S
C702 C703 1.391 . S
C703 H691 0.950 . S
C703 C699 1.393 . S
C703 C702 1.391 . S
H704 C712 0.950 . S
H705 C717 0.950 . S
H706 C714 0.950 1_455 S
H707 C716 0.950 1_545 S
H708 C718 0.950 . S
H709 C720 0.950 1_655 S
H710 C722 0.950 1_565 S
H711 C723 0.950 . S
C712 H704 0.950 . S
C712 C713 1.386 . S
C712 C714 1.391 . S
C713 C712 1.386 . S
C713 C717 1.393 . S
C714 H706 0.950 1_655 S
C714 C712 1.391 . S
C714 C715 1.400 . S
C715 C714 1.400 . S
C715 C716 1.398 . S
C715 C721 1.491 1_665 S
C716 H707 0.950 1_565 S
C716 C715 1.398 . S
C716 C717 1.391 . S
C717 H705 0.950 . S
C717 C713 1.393 . S
C717 C716 1.391 . S
C718 H708 0.950 . S
C718 C719 1.386 . S
C718 C720 1.391 . S
C719 C718 1.386 . S
C719 C723 1.393 . S
C720 H709 0.950 1_455 S
C720 C718 1.391 . S
C720 C721 1.400 . S
C721 C715 1.491 1_445 S
C721 C720 1.400 . S
C721 C722 1.398 . S
C722 H710 0.950 1_545 S
C722 C721 1.398 . S
C722 C723 1.391 . S
C723 H711 0.950 . S
C723 C719 1.393 . S
C723 C722 1.391 . S
H724 C732 0.950 . S
H725 C737 0.950 . S
H726 C734 0.950 . S
H727 C736 0.950 1_565 S
H728 C738 0.950 . S
H729 C740 0.950 . S
H730 C742 0.950 1_545 S
H731 C743 0.950 . S
C732 H724 0.950 . S
C732 C733 1.386 . S
C732 C734 1.391 . S
C733 C732 1.386 . S
C733 C737 1.393 . S
C734 H726 0.950 . S
C734 C732 1.391 . S
C734 C735 1.400 . S
C735 C734 1.400 . S
C735 C736 1.398 . S
C735 C741 1.491 1_645 S
C736 H727 0.950 1_545 S
C736 C735 1.398 . S
C736 C737 1.391 . S
C737 H725 0.950 . S
C737 C733 1.393 . S
C737 C736 1.391 . S
C738 H728 0.950 . S
C738 C739 1.386 . S
C738 C740 1.391 . S
C739 C738 1.386 . S
C739 C743 1.393 . S
C740 H729 0.950 . S
C740 C738 1.391 . S
C740 C741 1.400 . S
C741 C735 1.491 1_465 S
C741 C740 1.400 . S
C741 C742 1.398 . S
C742 H730 0.950 1_565 S
C742 C741 1.398 . S
C742 C743 1.391 . S
C743 H731 0.950 . S
C743 C739 1.393 . S
C743 C742 1.391 . S
H744 C752 0.950 . S
H745 C757 0.950 . S
H746 C754 0.950 . S
H747 C756 0.950 . S
H748 C758 0.950 . S
H749 C760 0.950 . S
H750 C762 0.950 . S
H751 C763 0.950 . S
C752 H744 0.950 . S
C752 C753 1.386 . S
C752 C754 1.391 . S
C753 C752 1.386 . S
C753 C757 1.393 . S
C754 H746 0.950 . S
C754 C752 1.391 . S
C754 C755 1.400 . S
C755 C754 1.400 . S
C755 C756 1.398 . S
C755 C761 1.491 1_455 S
C756 H747 0.950 . S
C756 C755 1.398 . S
C756 C757 1.391 . S
C757 H745 0.950 . S
C757 C753 1.393 . S
C757 C756 1.391 . S
C758 H748 0.950 . S
C758 C759 1.386 . S
C758 C760 1.391 . S
C759 C758 1.386 . S
C759 C763 1.393 . S
C760 H749 0.950 . S
C760 C758 1.391 . S
C760 C761 1.400 . S
C761 C755 1.491 1_655 S
C761 C760 1.400 . S
C761 C762 1.398 . S
C762 H750 0.950 . S
C762 C761 1.398 . S
C762 C763 1.391 . S
C763 H751 0.950 . S
C763 C759 1.393 . S
C763 C762 1.391 . S
H764 C772 0.950 . S
H765 C777 0.950 . S
H766 C774 0.950 1_545 S
H767 C776 0.950 . S
H768 C778 0.950 . S
H769 C780 0.950 1_565 S
H770 C782 0.950 . S
H771 C783 0.950 . S
C772 H764 0.950 . S
C772 C773 1.386 . S
C772 C774 1.391 . S
C773 C772 1.386 . S
C773 C777 1.393 . S
C774 H766 0.950 1_565 S
C774 C772 1.391 . S
C774 C775 1.400 . S
C775 C774 1.400 . S
C775 C776 1.398 . S
C775 C781 1.491 1_565 S
C776 H767 0.950 . S
C776 C775 1.398 . S
C776 C777 1.391 . S
C777 H765 0.950 . S
C777 C773 1.393 . S
C777 C776 1.391 . S
C778 H768 0.950 . S
C778 C779 1.386 . S
C778 C780 1.391 . S
C779 C778 1.386 . S
C779 C783 1.393 . S
C780 H769 0.950 1_545 S
C780 C778 1.391 . S
C780 C781 1.400 . S
C781 C775 1.491 1_545 S
C781 C780 1.400 . S
C781 C782 1.398 . S
C782 H770 0.950 . S
C782 C781 1.398 . S
C782 C783 1.391 . S
C783 H771 0.950 . S
C783 C779 1.393 . S
C783 C782 1.391 . S
H784 C792 0.950 . S
H785 C797 0.950 . S
H786 C794 0.950 . S
H787 C796 0.950 . S
H788 C798 0.950 . S
H789 C800 0.950 . S
H790 C802 0.950 . S
H791 C803 0.950 . S
C792 H784 0.950 . S
C792 C793 1.386 . S
C792 C794 1.391 . S
C793 C792 1.386 . S
C793 C797 1.393 . S
C794 H786 0.950 . S
C794 C792 1.391 . S
C794 C795 1.400 . S
C795 C794 1.400 . S
C795 C796 1.398 . S
C795 C801 1.491 . S
C796 H787 0.950 . S
C796 C795 1.398 . S
C796 C797 1.391 . S
C797 H785 0.950 . S
C797 C793 1.393 . S
C797 C796 1.391 . S
C798 H788 0.950 . S
C798 C799 1.386 . S
C798 C800 1.391 . S
C799 C798 1.386 . S
C799 C803 1.393 . S
C800 H789 0.950 . S
C800 C798 1.391 . S
C800 C801 1.400 . S
C801 C795 1.491 . S
C801 C800 1.400 . S
C801 C802 1.398 . S
C802 H790 0.950 . S
C802 C801 1.398 . S
C802 C803 1.391 . S
C803 H791 0.950 . S
C803 C799 1.393 . S
C803 C802 1.391 . S
H804 C812 0.950 . S
H805 C817 0.950 . S
H806 C814 0.950 . S
H807 C816 0.950 . S
H808 C818 0.950 . S
H809 C820 0.950 . S
H810 C822 0.950 . S
H811 C823 0.950 . S
C812 H804 0.950 . S
C812 C813 1.386 . S
C812 C814 1.391 . S
C813 C812 1.386 . S
C813 C817 1.393 . S
C814 H806 0.950 . S
C814 C812 1.391 . S
C814 C815 1.400 . S
C815 C814 1.400 . S
C815 C816 1.398 . S
C815 C821 1.491 . S
C816 H807 0.950 . S
C816 C815 1.398 . S
C816 C817 1.391 . S
C817 H805 0.950 . S
C817 C813 1.393 . S
C817 C816 1.391 . S
C818 H808 0.950 . S
C818 C819 1.386 . S
C818 C820 1.391 . S
C819 C818 1.386 . S
C819 C823 1.393 . S
C820 H809 0.950 . S
C820 C818 1.391 . S
C820 C821 1.400 . S
C821 C815 1.491 . S
C821 C820 1.400 . S
C821 C822 1.398 . S
C822 H810 0.950 . S
C822 C821 1.398 . S
C822 C823 1.391 . S
C823 H811 0.950 . S
C823 C819 1.393 . S
C823 C822 1.391 . S
H824 C832 0.950 . S
H825 C837 0.950 . S
H826 C834 0.950 . S
H827 C836 0.950 1_565 S
H828 C838 0.950 . S
H829 C840 0.950 . S
H830 C842 0.950 1_545 S
H831 C843 0.950 . S
C832 H824 0.950 . S
C832 C833 1.386 . S
C832 C834 1.391 . S
C833 C832 1.386 . S
C833 C837 1.393 . S
C834 H826 0.950 . S
C834 C832 1.391 . S
C834 C835 1.400 . S
C835 C834 1.400 . S
C835 C836 1.398 . S
C835 C841 1.491 1_545 S
C836 H827 0.950 1_545 S
C836 C835 1.398 . S
C836 C837 1.391 . S
C837 H825 0.950 . S
C837 C833 1.393 . S
C837 C836 1.391 . S
C838 H828 0.950 . S
C838 C839 1.386 . S
C838 C840 1.391 . S
C839 C838 1.386 . S
C839 C843 1.393 . S
C840 H829 0.950 . S
C840 C838 1.391 . S
C840 C841 1.400 . S
C841 C835 1.491 1_565 S
C841 C840 1.400 . S
C841 C842 1.398 . S
C842 H830 0.950 1_565 S
C842 C841 1.398 . S
C842 C843 1.391 . S
C843 H831 0.950 . S
C843 C839 1.393 . S
C843 C842 1.391 . S
H844 C852 0.950 . S
H845 C857 0.950 . S
H846 C854 0.950 . S
H847 C856 0.950 . S
H848 C858 0.950 . S
H849 C860 0.950 . S
H850 C862 0.950 . S
H851 C863 0.950 . S
C852 H844 0.950 . S
C852 C853 1.386 . S
C852 C854 1.391 . S
C853 C852 1.386 . S
C853 C857 1.393 . S
C854 H846 0.950 . S
C854 C852 1.391 . S
C854 C855 1.400 . S
C855 C854 1.400 . S
C855 C856 1.398 . S
C855 C861 1.491 1_655 S
C856 H847 0.950 . S
C856 C855 1.398 . S
C856 C857 1.391 . S
C857 H845 0.950 . S
C857 C853 1.393 . S
C857 C856 1.391 . S
C858 H848 0.950 . S
C858 C859 1.386 . S
C858 C860 1.391 . S
C859 C858 1.386 . S
C859 C863 1.393 . S
C860 H849 0.950 . S
C860 C858 1.391 . S
C860 C861 1.400 . S
C861 C855 1.491 1_455 S
C861 C860 1.400 . S
C861 C862 1.398 . S
C862 H850 0.950 . S
C862 C861 1.398 . S
C862 C863 1.391 . S
C863 H851 0.950 . S
C863 C859 1.393 . S
C863 C862 1.391 . S
C233 C9 1.176 . S
C239 C159 1.198 . S
C253 C117 1.222 . S
C259 C14 1.202 . S
C273 C131 1.199 . S
C279 C37 1.172 . S
C293 C145 1.216 . S
C299 C42 1.206 . S
C313 C75 1.201 1_545 S
C319 C65 1.186 . S
C333 C70 1.204 . S
C339 C89 1.222 1_455 S
C353 C93 1.178 . S
C359 C103 1.198 1_565 S
C373 C98 1.182 . S
C379 C61 1.218 1_655 S
C393 C121 1.185 . S
C399 C47 1.199 1_565 S
C413 C5 1.222 1_655 S
C419 C126 1.204 . S
C433 C19 1.204 1_545 S
C439 C149 1.158 . S
C453 C33 1.215 1_455 S
C459 C154 1.182 . S
C473 C187 1.207 . S
C479 C177 1.158 . S
C493 C182 1.207 . S
C499 C201 1.217 . S
C513 C215 1.202 . S
C519 C205 1.161 . S
C533 C173 1.219 . S
C539 C210 1.184 . S
C553 C207 1.552 . S
C559 C11 1.549 . S
C573 C221 1.597 . S
C579 C25 1.597 . S
C593 C179 1.550 . S
C599 C39 1.550 . S
C613 C53 1.595 . S
C619 C193 1.597 . S
C633 C67 1.552 . S
C639 C151 1.549 . S
C653 C165 1.595 . S
C659 C81 1.594 . S
C673 C95 1.550 . S
C679 C123 1.550 . S
C693 C109 1.597 . S
C699 C137 1.597 . S
C713 C28 1.229 . S
C719 C0 1.229 . S
C733 C51 1.240 . S
C739 C23 1.232 . S
C753 C56 1.206 . S
C759 C84 1.206 . S
C773 C79 1.251 . S
C779 C107 1.262 . S
C793 C140 1.224 . S
C799 C112 1.224 . S
C813 C135 1.245 . S
C819 C163 1.261 . S
C833 C196 1.212 . S
C839 C168 1.212 . S
C853 C191 1.257 . S
C859 C219 1.260 . S
