# Generated by pormake.
# Topology vby, (6)-cn, num edge types: 1
# Building blocks:
#     Node 0, Type 0, BuildingBlock: BETFAJ_clean_sbu_0, # of connection points: 6
#     Node 1, Type 0, BuildingBlock: BETFAJ_clean_sbu_0, # of connection points: 6
#     Node 2, Type 0, BuildingBlock: BETFAJ_clean_sbu_0, # of connection points: 6
#     Node 3, Type 0, BuildingBlock: BETFAJ_clean_sbu_0, # of connection points: 6
#     Node 4, Type 0, BuildingBlock: BETFAJ_clean_sbu_0, # of connection points: 6
#     Node 5, Type 0, BuildingBlock: BETFAJ_clean_sbu_0, # of connection points: 6
#     Node 6, Type 0, BuildingBlock: BETFAJ_clean_sbu_0, # of connection points: 6
#     Node 7, Type 0, BuildingBlock: BETFAJ_clean_sbu_0, # of connection points: 6
#     Edge 8, Type (0, 0), BuildingBlock: KIFKEQ_clean_linker_1, # of connection points: 2
#     Edge 9, Type (0, 0), BuildingBlock: KIFKEQ_clean_linker_1, # of connection points: 2
#     Edge 10, Type (0, 0), BuildingBlock: KIFKEQ_clean_linker_1, # of connection points: 2
#     Edge 11, Type (0, 0), BuildingBlock: KIFKEQ_clean_linker_1, # of connection points: 2
#     Edge 12, Type (0, 0), BuildingBlock: KIFKEQ_clean_linker_1, # of connection points: 2
#     Edge 13, Type (0, 0), BuildingBlock: KIFKEQ_clean_linker_1, # of connection points: 2
#     Edge 14, Type (0, 0), BuildingBlock: KIFKEQ_clean_linker_1, # of connection points: 2
#     Edge 15, Type (0, 0), BuildingBlock: KIFKEQ_clean_linker_1, # of connection points: 2
#     Edge 16, Type (0, 0), BuildingBlock: KIFKEQ_clean_linker_1, # of connection points: 2
#     Edge 17, Type (0, 0), BuildingBlock: KIFKEQ_clean_linker_1, # of connection points: 2
#     Edge 18, Type (0, 0), BuildingBlock: KIFKEQ_clean_linker_1, # of connection points: 2
#     Edge 19, Type (0, 0), BuildingBlock: KIFKEQ_clean_linker_1, # of connection points: 2
#     Edge 20, Type (0, 0), BuildingBlock: KIFKEQ_clean_linker_1, # of connection points: 2
#     Edge 21, Type (0, 0), BuildingBlock: KIFKEQ_clean_linker_1, # of connection points: 2
#     Edge 22, Type (0, 0), BuildingBlock: KIFKEQ_clean_linker_1, # of connection points: 2
#     Edge 23, Type (0, 0), BuildingBlock: KIFKEQ_clean_linker_1, # of connection points: 2
#     Edge 24, Type (0, 0), BuildingBlock: KIFKEQ_clean_linker_1, # of connection points: 2
#     Edge 25, Type (0, 0), BuildingBlock: KIFKEQ_clean_linker_1, # of connection points: 2
#     Edge 26, Type (0, 0), BuildingBlock: KIFKEQ_clean_linker_1, # of connection points: 2
#     Edge 27, Type (0, 0), BuildingBlock: KIFKEQ_clean_linker_1, # of connection points: 2
#     Edge 28, Type (0, 0), BuildingBlock: KIFKEQ_clean_linker_1, # of connection points: 2
#     Edge 29, Type (0, 0), BuildingBlock: KIFKEQ_clean_linker_1, # of connection points: 2
#     Edge 30, Type (0, 0), BuildingBlock: KIFKEQ_clean_linker_1, # of connection points: 2
#     Edge 31, Type (0, 0), BuildingBlock: KIFKEQ_clean_linker_1, # of connection points: 2
# Relax obj value: 0.202
# Max RMSD: 0.217
# Mean RMSD: 0.217
data_MOF--net-vby--node1-BETFAJ_clean_sbu_0--edge1-KIFKEQ_clean_linker_1
_symmetry_space_group_name_H-M    P1
_symmetry_Int_Tables_number       1
_symmetry_cell_setting            triclinic
loop_
_symmetry_equiv_pos_as_xyz
'x, y, z'
_cell_length_a     15.804928
_cell_length_b     104.05535
_cell_length_c     29.596793
_cell_angle_alpha  90.00847
_cell_angle_beta   85.826957
_cell_angle_gamma 90.029271
loop_
_atom_site_label
_atom_site_type_symbol
_atom_site_fract_x
_atom_site_fract_y
_atom_site_fract_z
_atom_type_partial_charge
Sm0 Sm 0.06091 0.40659 0.01386 0.0
Sm1 Sm 0.05902 0.37653 0.03572 0.0
C2 C 1.03556 0.43038 0.98535 0.0
C3 C 0.05134 0.44427 0.99117 0.0
C4 C 0.04795 0.4524 0.95356 0.0
C5 C 0.0505 0.46576 0.9587 0.0
C6 C 0.05658 0.47133 1.00168 0.0
C7 C 0.06349 0.46313 0.03915 0.0
C8 C 0.06057 0.44973 0.03398 0.0
C9 C 0.07204 0.39992 0.10363 0.0
C10 C 0.88106 0.39051 0.02026 0.0
C11 C 0.06478 0.3537 0.07523 0.0
C12 C 0.10157 0.34075 0.06652 0.0
C13 C 0.13954 0.33425 0.10135 0.0
C14 C 0.1715 0.32178 0.0946 0.0
C15 C 0.16585 0.31547 0.05283 0.0
C16 C 0.12863 0.32208 0.01777 0.0
C17 C 0.0971 0.33458 0.02448 0.0
C18 C 0.07426 0.38023 0.94233 0.0
C19 C 0.24044 0.39218 0.01876 0.0
O20 O 0.09721 0.42309 0.96793 0.0
O21 O 0.98717 0.42465 0.01699 0.0
O22 O 1.02548 0.3945 0.07645 0.0
O23 O 0.1115 0.40964 0.08435 0.0
O24 O 0.92584 0.39993 1.00032 0.0
O25 O 0.91693 0.38122 0.0425 0.0
O26 O 0.11757 0.36304 0.08301 0.0
O27 O 1.00358 0.35728 0.05039 0.0
O28 O 0.0693 0.38868 0.97269 0.0
O29 O 0.07397 0.36903 0.96148 0.0
O30 O 0.19818 0.38277 0.04045 0.0
O31 O 0.20175 0.4017 0.99896 0.0
H32 H 0.04053 0.44841 0.92025 0.0
H33 H 0.04653 0.47175 0.92899 0.0
H34 H 0.06779 0.46708 0.07277 0.0
H35 H 0.06285 0.44365 0.06358 0.0
H36 H 0.14354 0.33878 0.1341 0.0
H37 H 0.19892 0.31697 0.1225 0.0
H38 H 0.12429 0.31761 0.98497 0.0
H39 H 0.0687 0.33938 0.99684 0.0
Sm40 Sm 1.01535 0.66351 0.01418 0.0
Sm41 Sm 1.01381 0.63345 0.03513 0.0
C42 C 1.00952 0.68647 0.97552 0.0
C43 C 0.97187 0.69944 0.98431 0.0
C44 C 0.90061 0.70338 0.96207 0.0
C45 C 0.86716 0.71578 0.9685 0.0
C46 C 0.90434 0.72462 0.99719 0.0
C47 C 0.97556 0.72064 0.0195 0.0
C48 C 1.00895 0.70825 0.0131 0.0
C49 C 0.99859 0.65965 0.10743 0.0
C50 C 0.83423 0.6479 0.03109 0.0
C51 C 0.03794 0.60941 0.06165 0.0
C52 C 1.0252 0.59558 0.05172 0.0
C53 C 0.98743 0.58754 0.08556 0.0
C54 C 0.98512 0.57419 0.0794 0.0
C55 C 1.02113 0.56851 0.03928 0.0
C56 C 0.05658 0.57664 1.00483 0.0
C57 C 0.05857 0.58999 0.01094 0.0
C58 C 1.00383 0.64039 0.94544 0.0
C59 C 0.19319 0.64957 0.03051 0.0
O60 O 0.95791 0.67705 0.96678 0.0
O61 O 0.07049 0.68285 1.00048 0.0
O62 O 1.0042 0.65122 0.077 0.0
O63 O 0.99896 0.67088 0.08848 0.0
O64 O 0.87636 0.65725 0.00901 0.0
O65 O 0.87327 0.63844 0.05106 0.0
O66 O 0.09172 0.61581 0.03448 0.0
O67 O 0.97261 0.61631 0.07693 0.0
O68 O 0.04994 0.64566 0.97307 0.0
O69 O 0.96444 0.63059 0.96415 0.0
O70 O 0.14816 0.64013 0.05013 0.0
O71 O 0.15758 0.65887 1.00812 0.0
H72 H 0.8709 0.69689 0.93937 0.0
H73 H 0.81173 0.71841 0.95113 0.0
H74 H 1.00686 0.72721 0.04126 0.0
H75 H 0.06455 0.70565 0.03038 0.0
H76 H 0.9617 0.59157 0.11742 0.0
H77 H 0.95585 0.56832 0.10639 0.0
H78 H 0.08576 0.57267 0.97366 0.0
H79 H 0.08869 0.59589 0.98423 0.0
Sm80 Sm 0.04958 0.66387 0.53648 0.0
Sm81 Sm 0.05097 0.63378 0.51578 0.0
C82 C 0.05599 0.68682 0.57506 0.0
C83 C 0.0938 0.69977 0.56622 0.0
C84 C 0.15179 0.70477 0.59546 0.0
C85 C 0.18486 0.7172 0.58908 0.0
C86 C 0.16025 0.725 0.55343 0.0
C87 C 0.10275 0.71992 0.52392 0.0
C88 C 0.07002 0.70747 0.53018 0.0
C89 C 0.0627 0.65996 0.44326 0.0
C90 C 0.23142 0.64832 0.5178 0.0
C91 C 1.02478 0.6097 0.49032 0.0
C92 C 0.03863 0.59588 0.50004 0.0
C93 C 0.07655 0.58791 0.46601 0.0
C94 C 0.07963 0.57455 0.47202 0.0
C95 C 0.0441 0.56882 0.51213 0.0
C96 C 1.00859 0.57686 0.54676 0.0
C97 C 1.00595 0.59022 0.54084 0.0
C98 C 0.06297 0.64083 0.60527 0.0
C99 C 0.87208 0.64987 0.52143 0.0
O100 O 0.10768 0.67742 0.58377 0.0
O101 O 0.9949 0.68322 0.55013 0.0
O102 O 0.05861 0.65154 0.47375 0.0
O103 O 0.0619 0.67121 0.46211 0.0
O104 O 0.18993 0.65798 0.53845 0.0
O105 O 0.192 0.63847 0.50028 0.0
O106 O 0.08877 0.61663 0.4733 0.0
O107 O 0.97315 0.61611 0.51865 0.0
O108 O 1.01617 0.64604 0.57789 0.0
O109 O 0.10207 0.63103 0.58641 0.0
O110 O 0.91737 0.64073 0.50012 0.0
O111 O 0.90795 0.65887 0.54506 0.0
H112 H 0.17077 0.69911 0.62374 0.0
H113 H 0.22822 0.72081 0.61278 0.0
H114 H 0.08321 0.72556 0.49574 0.0
H115 H 1.02556 0.70395 0.5069 0.0
H116 H 0.10131 0.59197 0.43403 0.0
H117 H 0.10684 0.56867 0.44448 0.0
H118 H 0.98184 0.57282 0.57835 0.0
H119 H 0.97614 0.59605 0.5678 0.0
Sm120 Sm 1.02841 0.40674 0.5341 0.0
Sm121 Sm 1.03028 0.37666 0.51231 0.0
C122 C 0.05291 0.43061 0.56222 0.0
C123 C 1.03507 0.44443 0.55601 0.0
C124 C 0.03793 0.4527 0.59324 0.0
C125 C 1.03184 0.46602 0.58774 0.0
C126 C 1.02262 0.47142 0.54473 0.0
C127 C 1.01725 0.46303 0.5076 0.0
C128 C 1.02352 0.44967 0.51317 0.0
C129 C 1.01762 0.4 0.44437 0.0
C130 C 0.20823 0.39068 0.52805 0.0
C131 C 1.0254 0.35389 0.47213 0.0
C132 C 0.9865 0.34108 0.4798 0.0
C133 C 0.98281 0.33255 0.44334 0.0
C134 C 0.94878 0.3202 0.45 0.0
C135 C 0.91759 0.31608 0.49341 0.0
C136 C 0.9208 0.32474 0.52989 0.0
C137 C 0.95479 0.33712 0.52314 0.0
C138 C 1.01454 0.38038 0.60565 0.0
C139 C 0.84876 0.39225 0.52943 0.0
O140 O 0.99236 0.4232 0.5802 0.0
O141 O 0.10109 0.42492 0.5304 0.0
O142 O 0.06414 0.39462 0.47164 0.0
O143 O 0.97783 0.4097 0.46357 0.0
O144 O 0.16351 0.40014 0.54773 0.0
O145 O 0.17239 0.38134 0.50593 0.0
O146 O 0.97438 0.36337 0.46348 0.0
O147 O 0.08387 0.35721 0.4991 0.0
O148 O 1.01973 0.38884 0.57529 0.0
O149 O 1.01469 0.36918 0.58652 0.0
O150 O 0.89088 0.38279 0.50801 0.0
O151 O 0.88753 0.40184 0.54887 0.0
H152 H 0.04772 0.44888 0.62652 0.0
H153 H 1.0375 0.4721 0.61706 0.0
H154 H 1.00886 0.46679 0.4741 0.0
H155 H 1.02127 0.44348 0.48386 0.0
H156 H 1.00719 0.33539 0.40965 0.0
H157 H 0.94854 0.31379 0.42119 0.0
H158 H 0.89642 0.32201 0.56366 0.0
H159 H 0.95669 0.34357 0.55178 0.0
Sm160 Sm 0.57134 0.90765 0.01982 0.0
Sm161 Sm 0.56849 0.87728 0.03006 0.0
C162 C 0.55243 0.93264 1.00822 0.0
C163 C 0.53937 0.9467 1.00323 0.0
C164 C 0.58843 0.9539 0.97078 0.0
C165 C 0.58095 0.96734 0.96926 0.0
C166 C 0.52408 0.97389 1.00011 0.0
C167 C 0.47368 0.9666 0.03179 0.0
C168 C 0.48126 0.95321 0.03333 0.0
C169 C 0.58309 0.89787 0.10588 0.0
C170 C 0.39071 0.89209 0.01874 0.0
C171 C 0.57249 0.85368 0.0637 0.0
C172 C 0.61187 0.84092 0.0547 0.0
C173 C 0.64153 0.8339 0.0908 0.0
C174 C 0.67473 0.82152 0.08392 0.0
C175 C 0.6789 0.8158 0.04067 0.0
C176 C 0.65046 0.82297 1.00431 0.0
C177 C 0.61737 0.83539 0.01123 0.0
C178 C 0.58391 0.88336 0.93877 0.0
C179 C 0.75075 0.89292 0.01696 0.0
O180 O 0.60243 0.92574 0.98041 0.0
O181 O 0.51153 0.92614 0.04077 0.0
O182 O 0.53454 0.8938 0.07718 0.0
O183 O 0.62758 0.90751 0.08967 0.0
O184 O 0.43517 0.90223 1.00402 0.0
O185 O 0.42646 0.88198 0.03652 0.0
O186 O 0.62187 0.86296 0.07623 0.0
O187 O 0.51595 0.85755 0.0364 0.0
O188 O 0.5793 0.89119 0.97127 0.0
O189 O 0.58387 0.87171 0.95436 0.0
O190 O 0.70893 0.88288 0.03476 0.0
O191 O 0.71161 0.90313 1.002 0.0
H192 H 0.63391 0.94918 0.94717 0.0
H193 H 0.62007 0.9726 0.94403 0.0
H194 H 0.43007 0.97126 0.05651 0.0
H195 H 0.44273 0.94799 0.05894 0.0
H196 H 0.63818 0.83797 0.1246 0.0
H197 H 0.69736 0.81644 0.1126 0.0
H198 H 0.65185 0.81888 0.97062 0.0
H199 H 0.59504 0.84058 0.9827 0.0
Sm200 Sm 0.5222 0.1637 0.01539 0.0
Sm201 Sm 0.516 0.13538 0.03572 0.0
C202 C 0.51007 0.18751 0.98353 0.0
C203 C 0.46395 0.19976 0.99122 0.0
C204 C 0.46512 0.20882 0.95614 0.0
C205 C 0.42762 0.22091 0.96329 0.0
C206 C 0.38791 0.22423 1.00583 0.0
C207 C 0.38552 0.21499 0.04078 0.0
C208 C 0.42315 0.20288 0.03354 0.0
C209 C 0.53331 0.15818 0.10589 0.0
C210 C 0.33525 0.14922 0.03181 0.0
C211 C 0.53966 0.11133 0.06283 0.0
C212 C 0.52151 0.0977 0.05297 0.0
C213 C 0.51206 0.08892 0.08892 0.0
C214 C 0.50449 0.07573 0.08054 0.0
C215 C 0.50646 0.071 0.03588 0.0
C216 C 0.51358 0.0799 0.99989 0.0
C217 C 0.52093 0.09311 1.00833 0.0
C218 C 0.50542 0.14108 0.9452 0.0
C219 C 0.69693 0.14992 0.02334 0.0
O220 O 0.46841 0.17777 0.96816 0.0
O221 O 0.56172 0.18416 0.01395 0.0
O222 O 0.48428 0.15261 0.08036 0.0
O223 O 0.57397 0.16745 0.08482 0.0
O224 O 0.37853 0.15941 0.01659 0.0
O225 O 0.37333 0.13884 0.04581 0.0
O226 O 0.59115 0.11741 0.03364 0.0
O227 O 0.47756 0.11857 0.0798 0.0
O228 O 0.5544 0.14652 0.97103 0.0
O229 O 0.46418 0.13183 0.96622 0.0
O230 O 0.65062 0.14212 0.05012 0.0
O231 O 0.65975 0.15788 0.99641 0.0
H232 H 0.49677 0.20664 0.92332 0.0
H233 H 0.43197 0.22777 0.93574 0.0
H234 H 0.35458 0.21712 0.07378 0.0
H235 H 0.42144 0.19602 0.06112 0.0
H236 H 0.51307 0.09222 0.1236 0.0
H237 H 0.50016 0.06921 0.10911 0.0
H238 H 0.51409 0.07664 0.96512 0.0
H239 H 0.52804 0.09969 0.97996 0.0
Sm240 Sm 0.56034 0.16377 0.53379 0.0
Sm241 Sm 0.56613 0.13548 0.51424 0.0
C242 C 0.57491 0.18776 0.56361 0.0
C243 C 0.61867 0.20017 0.55299 0.0
C244 C 0.66809 0.20585 0.58514 0.0
C245 C 0.70363 0.21809 0.57769 0.0
C246 C 0.69011 0.225 0.53795 0.0
C247 C 0.64201 0.21917 0.50534 0.0
C248 C 0.6068 0.20691 0.51272 0.0
C249 C 0.54894 0.15811 0.44336 0.0
C250 C 0.74703 0.14919 0.51818 0.0
C251 C 0.54142 0.11139 0.48775 0.0
C252 C 0.55906 0.09773 0.49752 0.0
C253 C 0.56883 0.08898 0.46147 0.0
C254 C 0.57565 0.07578 0.46969 0.0
C255 C 0.57262 0.071 0.51429 0.0
C256 C 0.56524 0.07985 0.5504 0.0
C257 C 0.55861 0.09308 0.54212 0.0
C258 C 0.57775 0.14131 0.60463 0.0
C259 C 0.38546 0.15001 0.52695 0.0
O260 O 0.61996 0.1782 0.57764 0.0
O261 O 0.51712 0.18404 0.53702 0.0
O262 O 0.59797 0.15258 0.46894 0.0
O263 O 0.5086 0.16742 0.46429 0.0
O264 O 0.70373 0.15936 0.53349 0.0
O265 O 0.70888 0.13884 0.50392 0.0
O266 O 0.49063 0.11753 0.5171 0.0
O267 O 0.60349 0.11857 0.47037 0.0
O268 O 0.52846 0.14673 0.57893 0.0
O269 O 0.61876 0.13205 0.58357 0.0
O270 O 0.43155 0.14223 0.50001 0.0
O271 O 0.42303 0.15796 0.55376 0.0
H272 H 0.67764 0.20094 0.61665 0.0
H273 H 0.73951 0.2223 0.60377 0.0
H274 H 0.63129 0.2241 0.47405 0.0
H275 H 0.56913 0.20283 0.48715 0.0
H276 H 0.56857 0.09233 0.42681 0.0
H277 H 0.58022 0.06929 0.44101 0.0
H278 H 0.56393 0.07655 0.58515 0.0
H279 H 0.55122 0.09963 0.57059 0.0
Sm280 Sm 0.50046 0.90761 0.52899 0.0
Sm281 Sm 0.50289 0.87722 0.51877 0.0
C282 C 0.51995 0.93259 0.54058 0.0
C283 C 0.53337 0.94665 0.54558 0.0
C284 C 0.48435 0.95388 0.57794 0.0
C285 C 0.49234 0.96732 0.5795 0.0
C286 C 0.54971 0.97383 0.5488 0.0
C287 C 0.60001 0.96651 0.51719 0.0
C288 C 0.59192 0.95313 0.51559 0.0
C289 C 0.48875 0.89782 0.44293 0.0
C290 C 0.68085 0.892 0.53016 0.0
C291 C 0.49867 0.85361 0.48506 0.0
C292 C 0.4583 0.84093 0.49405 0.0
C293 C 0.44205 0.83296 0.45747 0.0
C294 C 0.40712 0.82069 0.46487 0.0
C295 C 0.38761 0.81609 0.50916 0.0
C296 C 0.40321 0.82419 0.54583 0.0
C297 C 0.43802 0.83649 0.53836 0.0
C298 C 0.48735 0.88333 0.61003 0.0
C299 C 0.32084 0.89289 0.53181 0.0
O300 O 0.46974 0.92571 0.56838 0.0
O301 O 0.56069 0.92607 0.50804 0.0
O302 O 0.53717 0.89374 0.47167 0.0
O303 O 0.44441 0.90747 0.45911 0.0
O304 O 0.63649 0.90215 0.54484 0.0
O305 O 0.64501 0.88189 0.51239 0.0
O306 O 0.45 0.86293 0.47226 0.0
O307 O 0.55442 0.85742 0.51292 0.0
O308 O 0.49215 0.89114 0.57748 0.0
O309 O 0.48724 0.87168 0.59449 0.0
O310 O 0.36254 0.88283 0.51409 0.0
O311 O 0.36007 0.90311 0.5467 0.0
H312 H 0.43855 0.94919 0.60146 0.0
H313 H 0.45326 0.9726 0.60468 0.0
H314 H 0.64399 0.97114 0.49257 0.0
H315 H 0.63044 0.94788 0.49005 0.0
H316 H 0.45745 0.83616 0.42301 0.0
H317 H 0.39717 0.81471 0.43579 0.0
H318 H 0.38799 0.82107 0.58037 0.0
H319 H 0.44957 0.84249 0.56719 0.0
H320 H 0.35461 0.40533 0.96174 0.0
H321 H 0.33888 0.37871 0.07399 0.0
H322 H 0.50912 0.40458 0.9598 0.0
H323 H 0.49245 0.3784 0.07356 0.0
H324 H 0.76986 0.37062 0.03728 0.0
H325 H 0.61628 0.37089 0.03449 0.0
H326 H 0.62704 0.41112 0.99776 0.0
H327 H 0.78075 0.41063 0.99851 0.0
C328 C 0.38413 0.39941 0.98626 0.0
C329 C 0.33437 0.39205 0.01787 0.0
C330 C 0.47285 0.39902 0.98535 0.0
C331 C 0.51394 0.39139 0.01646 0.0
C332 C 0.46368 0.38415 0.04836 0.0
C333 C 0.37524 0.38441 0.04883 0.0
C334 C 0.73938 0.37951 0.02846 0.0
C335 C 0.78762 0.3906 0.01814 0.0
C336 C 0.65106 0.3797 0.02713 0.0
C337 C 0.60853 0.39105 0.01613 0.0
C338 C 0.65718 0.40213 1.00563 0.0
C339 C 0.74556 0.40188 1.00634 0.0
H340 H 0.29351 0.62948 0.05271 0.0
H341 H 0.30443 0.66947 0.0137 0.0
H342 H 0.44727 0.629 0.05341 0.0
H343 H 0.45799 0.6692 0.01643 0.0
H344 H 0.73507 0.66138 0.97624 0.0
H345 H 0.58147 0.6617 0.97715 0.0
H346 H 0.56594 0.63549 0.09083 0.0
H347 H 0.72052 0.63474 0.08842 0.0
C348 C 0.3287 0.63823 0.04485 0.0
C349 C 0.28662 0.6495 0.03294 0.0
C350 C 0.41712 0.63798 0.04552 0.0
C351 C 0.46582 0.64905 0.03486 0.0
C352 C 0.42323 0.6604 0.02387 0.0
C353 C 0.33489 0.66059 0.02259 0.0
C354 C 0.69897 0.65568 1.00149 0.0
C355 C 0.74022 0.64803 0.03228 0.0
C356 C 0.61049 0.65594 1.00224 0.0
C357 C 0.5605 0.6487 0.03426 0.0
C358 C 0.60196 0.64106 0.0652 0.0
C359 C 0.69074 0.64067 0.06402 0.0
H360 H 0.77813 0.63608 0.46414 0.0
H361 H 0.75408 0.66351 0.57387 0.0
H362 H 0.62455 0.63587 0.461 0.0
H363 H 0.60052 0.66293 0.57203 0.0
H364 H 0.3338 0.66886 0.53146 0.0
H365 H 0.48756 0.66939 0.53006 0.0
H366 H 0.49664 0.62877 0.49945 0.0
H367 H 0.34232 0.62838 0.49909 0.0
C368 C 0.74004 0.64202 0.48778 0.0
C369 C 0.77855 0.64985 0.51918 0.0
C370 C 0.65172 0.64183 0.48619 0.0
C371 C 0.59951 0.64937 0.51626 0.0
C372 C 0.63835 0.65718 0.54771 0.0
C373 C 0.72665 0.65746 0.54897 0.0
C374 C 0.36851 0.66003 0.52429 0.0
C375 C 0.32555 0.64856 0.51552 0.0
C376 C 0.45697 0.66032 0.52379 0.0
C377 C 0.50512 0.6491 0.51504 0.0
C378 C 0.46208 0.63764 0.50575 0.0
C379 C 0.3734 0.6374 0.50575 0.0
H380 H 0.75 0.37863 0.47475 0.0
H381 H 0.73495 0.40554 0.58616 0.0
H382 H 0.59642 0.37833 0.4753 0.0
H383 H 0.58042 0.40482 0.58822 0.0
H384 H 0.30887 0.41083 0.54927 0.0
H385 H 0.4626 0.41128 0.55007 0.0
H386 H 0.47254 0.37096 0.51468 0.0
H387 H 0.31898 0.37072 0.51183 0.0
C388 C 0.71378 0.38439 0.49976 0.0
C389 C 0.75484 0.39211 0.53044 0.0
C390 C 0.62535 0.38415 0.5003 0.0
C391 C 0.57528 0.39148 0.53198 0.0
C392 C 0.61655 0.39918 0.56283 0.0
C393 C 0.70528 0.39956 0.56186 0.0
C394 C 0.34389 0.40205 0.54175 0.0
C395 C 0.30163 0.39075 0.53029 0.0
C396 C 0.43227 0.40228 0.54249 0.0
C397 C 0.48069 0.39117 0.53236 0.0
C398 C 0.43794 0.37979 0.52173 0.0
C399 C 0.34964 0.37961 0.52037 0.0
H400 H 0.85123 0.87727 0.06397 0.0
H401 H 0.86282 0.90828 0.96667 0.0
H402 H 1.00484 0.87722 0.06329 0.0
H403 H 1.01739 0.90786 0.96433 0.0
H404 H 0.28791 0.9128 1.00729 0.0
H405 H 0.13406 0.91302 1.00598 0.0
H406 H 0.1294 0.87166 0.02038 0.0
H407 H 0.2827 0.87156 0.02378 0.0
C408 C 0.88669 0.88399 0.04196 0.0
C409 C 0.84467 0.89278 0.01536 0.0
C410 C 0.97513 0.88391 0.04132 0.0
C411 C 1.02418 0.89249 0.01357 0.0
C412 C 0.98197 0.90124 0.98668 0.0
C413 C 0.89325 0.90143 0.98779 0.0
C414 C 0.25397 0.90375 0.01007 0.0
C415 C 0.29752 0.89217 0.01592 0.0
C416 C 0.16561 0.90386 0.00904 0.0
C417 C 0.11869 0.89237 0.01324 0.0
C418 C 0.16283 0.88075 0.01807 0.0
C419 C 0.25099 0.88067 0.01975 0.0
H420 H 0.22455 0.12928 0.04909 0.0
H421 H 0.23346 0.16968 0.01511 0.0
H422 H 0.07094 0.12949 0.04652 0.0
H423 H 0.07967 0.16997 0.01384 0.0
H424 H 0.81431 0.16267 0.96731 0.0
H425 H 0.96822 0.16246 0.96976 0.0
H426 H 0.9442 0.13729 0.08618 0.0
H427 H 0.7909 0.13721 0.08288 0.0
C428 C 0.19373 0.13824 0.04152 0.0
C429 C 0.24145 0.14946 0.03226 0.0
C430 C 0.10548 0.13837 0.04023 0.0
C431 C 0.06273 0.14974 0.02991 0.0
C432 C 0.11051 0.16099 0.02115 0.0
C433 C 0.19877 0.16084 0.0222 0.0
C434 C 0.84195 0.15709 0.99339 0.0
C435 C 0.79034 0.14993 0.02479 0.0
C436 C 0.9302 0.15702 0.99498 0.0
C437 C 0.9688 0.14986 0.02818 0.0
C438 C 0.9169 0.14275 0.05969 0.0
C439 C 0.82882 0.14276 0.05794 0.0
H440 H 0.29126 0.1373 0.46752 0.0
H441 H 0.26818 0.16268 0.58331 0.0
H442 H 0.13798 0.13733 0.46441 0.0
H443 H 0.11416 0.16241 0.58108 0.0
H444 H 0.84872 0.16961 0.53565 0.0
H445 H 1.00243 0.16991 0.53726 0.0
H446 H 1.01134 0.12947 0.50385 0.0
H447 H 0.85778 0.12926 0.5009 0.0
C448 C 0.25341 0.14282 0.49256 0.0
C449 C 0.29199 0.14999 0.5257 0.0
C450 C 0.16531 0.14278 0.49092 0.0
C451 C 0.11345 0.14984 0.52255 0.0
C452 C 0.15214 0.157 0.55577 0.0
C453 C 0.24044 0.15711 0.55724 0.0
C454 C 0.88343 0.16078 0.52847 0.0
C455 C 0.84081 0.14941 0.51805 0.0
C456 C 0.97166 0.16094 0.52974 0.0
C457 C 1.01948 0.14971 0.52084 0.0
C458 C 0.97678 0.13835 0.51025 0.0
C459 C 0.88856 0.13821 0.50873 0.0
H460 H 0.7888 0.87147 0.52514 0.0
H461 H 0.78373 0.91272 0.54154 0.0
H462 H 0.94212 0.8716 0.5285 0.0
H463 H 0.93757 0.91296 0.54282 0.0
H464 H 0.20885 0.90826 0.58205 0.0
H465 H 0.05428 0.90783 0.58443 0.0
H466 H 0.06666 0.87716 0.48557 0.0
H467 H 0.22027 0.87723 0.48484 0.0
C468 C 0.82054 0.88059 0.52915 0.0
C469 C 0.77404 0.89208 0.53296 0.0
C470 C 0.90871 0.88068 0.5308 0.0
C471 C 0.95289 0.8923 0.53561 0.0
C472 C 0.906 0.9038 0.53978 0.0
C473 C 0.81764 0.90367 0.53877 0.0
C474 C 0.17839 0.90141 0.56096 0.0
C475 C 0.22692 0.89275 0.5334 0.0
C476 C 0.08966 0.9012 0.56209 0.0
C477 C 0.04741 0.89244 0.53524 0.0
C478 C 0.09641 0.88385 0.5075 0.0
C479 C 0.18485 0.88395 0.50684 0.0
H480 H 0.049 0.55032 0.10394 0.0
H481 H 1.00196 0.55412 0.96259 0.0
H482 H 0.05591 0.52707 0.0954 0.0
H483 H 1.01347 0.53093 0.95349 0.0
H484 H 0.95111 0.48818 0.96235 0.0
H485 H 0.94165 0.51137 0.97174 0.0
H486 H 0.14221 0.51012 0.06337 0.0
H487 H 0.15061 0.48682 0.0544 0.0
C488 C 0.03975 0.54622 0.07103 0.0
C489 C 1.0245 0.5542 0.03403 0.0
C490 C 0.04505 0.53285 0.06596 0.0
C491 C 1.03555 0.52702 0.0237 0.0
C492 C 1.02017 0.53499 0.98672 0.0
C493 C 1.01458 0.54837 0.99182 0.0
C494 C 0.99381 0.49285 0.9842 0.0
C495 C 0.05196 0.48559 1.00743 0.0
C496 C 0.98844 0.5062 0.98957 0.0
C497 C 0.04131 0.51273 0.01822 0.0
C498 C 0.09948 0.50546 0.04153 0.0
C499 C 0.10453 0.49207 0.03632 0.0
H500 H 0.94843 0.48971 0.60188 0.0
H501 H 0.096 0.48567 0.474 0.0
H502 H 0.95537 0.51298 0.5945 0.0
H503 H 0.0991 0.50895 0.46544 0.0
H504 H 0.16827 0.55116 0.48733 0.0
H505 H 0.16153 0.52781 0.49454 0.0
H506 H 0.90451 0.53074 0.55421 0.0
H507 H 0.91195 0.55404 0.54761 0.0
C508 C 0.98216 0.49376 0.57206 0.0
C509 C 1.02192 0.48572 0.53866 0.0
C510 C 0.98527 0.50716 0.56753 0.0
C511 C 1.02795 0.51295 0.52937 0.0
C512 C 0.06666 0.5049 0.49563 0.0
C513 C 0.06375 0.49149 0.50023 0.0
C514 C 0.11023 0.54681 0.50185 0.0
C515 C 0.04084 0.55452 0.51707 0.0
C516 C 0.10618 0.53339 0.50586 0.0
C517 C 1.03241 0.52729 0.52497 0.0
C518 C 0.96299 0.53504 0.54008 0.0
C519 C 0.96723 0.54844 0.53628 0.0
H520 H 0.38248 0.98913 0.01396 0.0
H521 H 0.65456 0.99131 0.98792 0.0
H522 H 0.37552 1.01247 0.0199 0.0
H523 H 0.64752 1.01466 0.99373 0.0
H524 H 0.59889 0.05726 0.97019 0.0
H525 H 0.60012 0.03407 0.95796 0.0
H526 H 0.41353 0.02937 0.07078 0.0
H527 H 0.41008 0.05258 0.08197 0.0
C528 C 0.44093 0.99457 0.00959 0.0
C529 C 0.51915 0.98826 1.00064 0.0
C530 C 0.43691 1.00799 0.01303 0.0
C531 C 0.51097 1.01551 1.00754 0.0
C532 C 0.58899 1.00923 0.99758 0.0
C533 C 0.59303 0.9958 0.99419 0.0
C534 C 0.55709 0.05131 0.99196 0.0
C535 C 0.50439 0.05685 0.02711 0.0
C536 C 0.55859 0.03797 0.98528 0.0
C537 C 0.50719 0.02978 0.01346 0.0
C538 C 0.45342 0.03535 0.0481 0.0
C539 C 0.45211 0.04868 0.05486 0.0
H540 H 0.47862 0.05726 0.57944 0.0
H541 H 0.66864 0.05252 0.46828 0.0
H542 H 0.47605 0.03405 0.59132 0.0
H543 H 0.66383 0.0293 0.47909 0.0
H544 H 0.6921 0.98895 0.53537 0.0
H545 H 0.70027 1.01229 0.52972 0.0
H546 H 0.42825 1.01473 0.55529 0.0
H547 H 0.42002 0.99138 0.56084 0.0
C548 C 0.5204 0.05129 0.55773 0.0
C549 C 0.57385 0.05682 0.52286 0.0
C550 C 0.51813 0.03794 0.5642 0.0
C551 C 0.56946 0.02974 0.53609 0.0
C552 C 0.62396 0.03529 0.50172 0.0
C553 C 0.62605 0.04863 0.49518 0.0
C554 C 0.6339 0.99444 0.53967 0.0
C555 C 0.55532 0.9882 0.54838 0.0
C556 C 0.63861 1.00786 0.53639 0.0
C557 C 0.56491 1.01545 0.54179 0.0
C558 C 0.48653 1.00924 0.5515 0.0
C559 C 0.4818 0.99581 0.55474 0.0
H560 H 0.3119 0.3048 0.08116 0.0
H561 H 0.09148 0.29558 0.00943 0.0
H562 H 0.36309 0.28283 0.07052 0.0
H563 H 0.14202 0.27357 0.99918 0.0
H564 H 0.30057 0.23902 0.94788 0.0
H565 H 0.24839 0.26088 0.95905 0.0
H566 H 0.33699 0.26107 0.09372 0.0
H567 H 0.39277 0.23941 0.08171 0.0
C568 C 0.27391 0.29806 0.06345 0.0
C569 C 0.19755 0.30201 0.0461 0.0
C570 C 0.3032 0.28541 0.05741 0.0
C571 C 0.25683 0.27633 0.034 0.0
C572 C 0.18034 0.2803 0.01673 0.0
C573 C 0.15123 0.29295 0.02262 0.0
C574 C 0.30959 0.24374 0.97978 0.0
C575 C 0.35139 0.23739 0.01378 0.0
C576 C 0.27865 0.25627 0.98643 0.0
C577 C 0.28838 0.26284 0.02731 0.0
C578 C 0.32921 0.25643 0.06155 0.0
C579 C 0.36024 0.2439 0.05488 0.0
H580 H 0.65271 0.79502 0.09718 0.0
H581 H 0.77858 0.80601 0.96855 0.0
H582 H 0.70594 0.77319 0.08658 0.0
H583 H 0.83162 0.78412 0.95787 0.0
H584 H 0.8426 0.7406 0.93326 0.0
H585 H 0.78675 0.76233 0.94351 0.0
H586 H 0.83529 0.76087 0.08513 0.0
H587 H 0.88795 0.73897 0.07531 0.0
C588 C 0.69245 0.79284 0.06679 0.0
C589 C 0.71145 0.80237 0.03384 0.0
C590 C 0.723 0.78028 0.06069 0.0
C591 C 0.77339 0.77684 0.02139 0.0
C592 C 0.79205 0.78634 0.98828 0.0
C593 C 0.76156 0.79893 0.99442 0.0
C594 C 0.84048 0.74484 0.96674 0.0
C595 C 0.86984 0.73795 1.00345 0.0
C596 C 0.80937 0.75739 0.97249 0.0
C597 C 0.80651 0.76343 0.01515 0.0
C598 C 0.8356 0.75653 0.05188 0.0
C599 C 0.86681 0.74398 0.04611 0.0
H600 H 0.07317 0.74665 0.53124 0.0
H601 H 0.3222 0.73384 0.56225 0.0
H602 H 0.12644 0.76853 0.52169 0.0
H603 H 0.37579 0.75573 0.55238 0.0
H604 H 0.42581 0.79852 0.57404 0.0
H605 H 0.36987 0.77683 0.58572 0.0
H606 H 0.21621 0.78169 0.47208 0.0
H607 H 0.26947 0.80354 0.46161 0.0
C608 C 0.13956 0.74846 0.53558 0.0
C609 C 0.19331 0.73842 0.54744 0.0
C610 C 0.17022 0.76105 0.53008 0.0
C611 C 0.25564 0.76398 0.53617 0.0
C612 C 0.30937 0.75393 0.54811 0.0
C613 C 0.27862 0.74134 0.55371 0.0
C614 C 0.37926 0.79503 0.55189 0.0
C615 C 0.35232 0.80284 0.51685 0.0
C616 C 0.34791 0.7825 0.55823 0.0
C617 C 0.28854 0.77741 0.52979 0.0
C618 C 0.26113 0.78527 0.49499 0.0
C619 C 0.29253 0.79779 0.48863 0.0
H620 H 0.81834 0.30228 0.43828 0.0
H621 H 0.93804 0.29964 0.56455 0.0
H622 H 0.76575 0.28039 0.44843 0.0
H623 H 0.88238 0.27792 0.57567 0.0
H624 H 0.84562 0.2345 0.5577 0.0
H625 H 0.89966 0.25635 0.5473 0.0
H626 H 0.66457 0.2677 0.49297 0.0
H627 H 0.61097 0.24585 0.50306 0.0
C628 C 0.83352 0.29704 0.46826 0.0
C629 C 0.88282 0.30278 0.5005 0.0
C630 C 0.8024 0.2845 0.47437 0.0
C631 C 0.8196 0.2773 0.51292 0.0
C632 C 0.86856 0.28306 0.54529 0.0
C633 C 0.89964 0.29562 0.53919 0.0
C634 C 0.80525 0.24167 0.54376 0.0
C635 C 0.72393 0.23835 0.53111 0.0
C636 C 0.83621 0.25424 0.53786 0.0
C637 C 0.78666 0.26387 0.51926 0.0
C638 C 0.7053 0.26053 0.50665 0.0
C639 C 0.67446 0.24797 0.51244 0.0
H640 H 0.94572 0.38784 0.15582 0.0
H641 H 0.18611 0.40712 0.16336 0.0
H642 H 0.93111 0.38625 0.23881 0.0
H643 H 0.17267 0.40517 0.24609 0.0
H644 H 0.90344 0.40706 0.38456 0.0
H645 H 0.91705 0.40507 0.30185 0.0
H646 H 0.1592 0.38639 0.30931 0.0
H647 H 0.14442 0.38801 0.3923 0.0
C648 C 0.99603 0.39154 0.17516 0.0
C649 C 0.0669 0.39766 0.1532 0.0
C650 C 0.98751 0.39067 0.22258 0.0
C651 C 0.05077 0.39559 0.24884 0.0
C652 C 0.12324 0.40122 0.22669 0.0
C653 C 0.13076 0.40238 0.17941 0.0
C654 C 0.95896 0.40236 0.36856 0.0
C655 C 1.02292 0.39772 0.39481 0.0
C656 C 0.96659 0.40118 0.32128 0.0
C657 C 0.03926 0.3956 0.29919 0.0
C658 C 0.10264 0.39076 0.32549 0.0
C659 C 0.09403 0.39165 0.37291 0.0
H660 H 0.95146 0.67682 0.1724 0.0
H661 H 0.04708 0.63819 0.15417 0.0
H662 H 0.96692 0.67537 0.25317 0.0
H663 H 0.06549 0.63682 0.236 0.0
H664 H 1.01607 0.63828 0.39697 0.0
H665 H 0.99635 0.63674 0.31529 0.0
H666 H 0.08768 0.67568 0.29741 0.0
H667 H 0.10452 0.67728 0.37799 0.0
C668 C 0.9755 0.66796 0.18583 0.0
C669 C 0.99878 0.65767 0.15695 0.0
C670 C 0.98509 0.66716 0.23218 0.0
C671 C 1.01959 0.6561 0.25109 0.0
C672 C 0.03898 0.64549 0.22256 0.0
C673 C 1.02851 0.64627 0.17578 0.0
C674 C 1.03267 0.64641 0.37524 0.0
C675 C 0.06091 0.65795 0.39381 0.0
C676 C 1.02145 0.64554 0.32855 0.0
C677 C 0.03853 0.65619 0.29986 0.0
C678 C 0.07127 0.66742 0.31853 0.0
C679 C 0.08166 0.66831 0.36478 0.0
H680 H 0.13059 0.65268 0.89435 0.0
H681 H 0.89078 0.63337 0.88501 0.0
H682 H 0.14645 0.65453 0.81144 0.0
H683 H 0.90546 0.63557 0.80238 0.0
H684 H 0.17653 0.63383 0.66542 0.0
H685 H 0.16179 0.63581 0.74812 0.0
H686 H 0.9198 0.65448 0.73975 0.0
H687 H 0.9357 0.65287 0.65678 0.0
C688 C 0.08067 0.64904 0.87463 0.0
C689 C 1.00963 0.64282 0.89602 0.0
C690 C 0.08988 0.65006 0.82727 0.0
C691 C 1.02716 0.64519 0.80056 0.0
C692 C 0.95447 0.63948 0.82216 0.0
C693 C 0.94624 0.63818 0.86937 0.0
C694 C 0.12084 0.63854 0.68123 0.0
C695 C 0.0572 0.64317 0.65475 0.0
C696 C 0.11257 0.63971 0.72848 0.0
C697 C 0.03959 0.64527 0.75028 0.0
C698 C 0.9766 0.65013 0.72375 0.0
C699 C 0.98585 0.64924 0.67636 0.0
H700 H 0.96913 0.36306 0.67042 0.0
H701 H 0.06174 0.40187 0.65279 0.0
H702 H 0.98404 0.36448 0.75124 0.0
H703 H 0.07965 0.40323 0.73467 0.0
H704 H 1.02862 0.40182 0.89534 0.0
H705 H 1.01059 0.40327 0.8135 0.0
H706 H 0.10246 0.36433 0.79665 0.0
H707 H 0.11751 0.36283 0.87743 0.0
C708 C 0.99247 0.37195 0.68398 0.0
C709 C 1.01493 0.38231 0.65524 0.0
C710 C 1.00179 0.37274 0.73039 0.0
C711 C 1.03518 0.38385 0.74954 0.0
C712 C 0.05397 0.39451 0.7211 0.0
C713 C 0.04378 0.39374 0.67427 0.0
C714 C 0.0457 0.39367 0.87382 0.0
C715 C 0.07357 0.38216 0.89276 0.0
C716 C 1.03545 0.39449 0.827 0.0
C717 C 0.05317 0.38381 0.7985 0.0
C718 C 0.08554 0.37262 0.81756 0.0
C719 C 0.09493 0.37178 0.86395 0.0
H720 H 0.69209 0.90358 0.16997 0.0
H721 H 0.4512 0.88543 0.15192 0.0
H722 H 0.66825 0.90093 0.25207 0.0
H723 H 0.42656 0.88303 0.23424 0.0
H724 H 0.62083 0.88543 0.39688 0.0
H725 H 0.64558 0.88307 0.31454 0.0
H726 H 0.4037 0.90088 0.29674 0.0
H727 H 0.37976 0.90349 0.37885 0.0
C728 C 0.63462 0.89887 0.18357 0.0
C729 C 0.57332 0.89477 0.15469 0.0
C730 C 0.62115 0.89731 0.23049 0.0
C731 C 0.54541 0.89183 0.24946 0.0
C732 C 0.48529 0.88734 0.22046 0.0
C733 C 0.49956 0.88867 0.17343 0.0
C734 C 0.57246 0.88866 0.37537 0.0
C735 C 0.49861 0.89473 0.39411 0.0
C736 C 0.58679 0.88735 0.32833 0.0
C737 C 0.52665 0.89182 0.29934 0.0
C738 C 0.45083 0.89726 0.31832 0.0
C739 C 0.43729 0.89881 0.36524 0.0
H740 H 0.41548 0.14614 0.16388 0.0
H741 H 0.66023 0.16473 0.15806 0.0
H742 H 0.41866 0.144 0.24646 0.0
H743 H 0.66431 0.16232 0.24003 0.0
H744 H 0.42192 0.16457 0.39122 0.0
H745 H 0.41799 0.1622 0.30923 0.0
H746 H 0.66414 0.14408 0.3027 0.0
H747 H 0.66716 0.14617 0.38532 0.0
C748 C 0.47035 0.14958 0.18018 0.0
C749 C 0.53724 0.15571 0.15481 0.0
C750 C 0.47215 0.14838 0.22729 0.0
C751 C 0.54183 0.15298 0.24952 0.0
C752 C 0.61022 0.15859 0.22373 0.0
C753 C 0.60756 0.16005 0.17692 0.0
C754 C 0.47473 0.15994 0.37233 0.0
C755 C 0.54513 0.15564 0.39443 0.0
C756 C 0.47217 0.1585 0.32551 0.0
C757 C 0.54074 0.15297 0.29969 0.0
C758 C 0.61052 0.1484 0.3219 0.0
C759 C 0.61222 0.14957 0.36903 0.0
H760 H 0.57821 0.16062 0.89382 0.0
H761 H 0.44874 0.12427 0.88408 0.0
H762 H 0.59575 0.16181 0.81059 0.0
H763 H 0.46818 0.12533 0.80159 0.0
H764 H 0.6347 0.12446 0.66548 0.0
H765 H 0.6152 0.1254 0.74797 0.0
H766 H 0.48719 0.16183 0.73959 0.0
H767 H 0.5048 0.16077 0.65634 0.0
C768 C 0.55333 0.15294 0.87392 0.0
C769 C 0.51252 0.14233 0.89533 0.0
C770 C 0.56309 0.15364 0.82648 0.0
C771 C 0.53371 0.14362 0.79991 0.0
C772 C 0.49184 0.13314 0.8214 0.0
C773 C 0.48059 0.13256 0.86857 0.0
C774 C 0.60275 0.13271 0.68112 0.0
C775 C 0.5707 0.1425 0.65452 0.0
C776 C 0.59146 0.13322 0.7283 0.0
C777 C 0.54943 0.14365 0.74996 0.0
C778 C 0.51995 0.1537 0.72356 0.0
C779 C 0.52976 0.15307 0.67611 0.0
H780 H 0.54534 0.90526 0.65069 0.0
H781 H 0.43641 0.86783 0.67914 0.0
H782 H 0.57303 0.90757 0.73136 0.0
H783 H 0.4626 0.87016 0.75852 0.0
H784 H 0.63413 0.86779 0.86971 0.0
H785 H 0.60793 0.87011 0.79034 0.0
H786 H 0.49887 0.9076 0.81735 0.0
H787 H 0.52657 0.90531 0.89803 0.0
C788 C 0.52544 0.89771 0.67432 0.0
C789 C 0.48971 0.8863 0.65873 0.0
C790 C 0.54135 0.89902 0.72031 0.0
C791 C 0.52165 0.88891 0.75094 0.0
C792 C 0.48028 0.87798 0.73555 0.0
C793 C 0.4649 0.87667 0.69008 0.0
C794 C 0.60593 0.87665 0.85874 0.0
C795 C 0.58152 0.8863 0.89006 0.0
C796 C 0.59054 0.87795 0.81328 0.0
C797 C 0.54956 0.88891 0.79785 0.0
C798 C 0.53024 0.89904 0.82843 0.0
C799 C 0.54617 0.89774 0.87443 0.0
loop_
_geom_bond_atom_site_label_1
_geom_bond_atom_site_label_2
_geom_bond_distance
_geom_bond_site_symmetry_2
_ccdc_geom_bond_type
Sm0 C2 2.846 1_455 S
Sm0 O20 2.543 1_554 S
Sm0 O21 2.450 . S
Sm0 O22 2.681 . S
Sm0 O23 2.464 . S
Sm0 O24 2.396 1_455 S
Sm0 O28 2.386 1_554 S
Sm0 O31 2.408 . S
Sm1 C11 2.846 . S
Sm1 O22 2.386 . S
Sm1 O25 2.408 1_455 S
Sm1 O26 2.543 . S
Sm1 O27 2.450 1_554 S
Sm1 O28 2.681 1_554 S
Sm1 O29 2.464 1_554 S
Sm1 O30 2.396 1_554 S
C2 Sm0 2.846 1_655 S
C2 C3 1.506 . S
C2 O20 1.261 1_654 S
C2 O21 1.242 1_655 S
C3 C2 1.506 . S
C3 C4 1.358 1_554 S
C3 C8 1.382 . S
C4 C3 1.358 1_556 S
C4 C5 1.385 . S
C4 H32 0.930 . S
C5 C4 1.385 . S
C5 C6 1.395 1_556 S
C5 H33 0.929 . S
C6 C5 1.395 1_554 S
C6 C7 1.335 . S
C7 C6 1.335 . S
C7 C8 1.398 . S
C7 H34 0.930 . S
C8 C3 1.382 . S
C8 C7 1.398 . S
C8 H35 0.929 . S
C9 O22 1.271 . S
C9 O23 1.251 . S
C10 O24 1.252 . S
C10 O25 1.272 . S
C11 Sm1 2.846 . S
C11 C12 1.506 . S
C11 O26 1.261 . S
C11 O27 1.242 1_554 S
C12 C11 1.506 . S
C12 C13 1.358 . S
C12 C17 1.382 1_554 S
C13 C12 1.358 . S
C13 C14 1.385 . S
C13 H36 0.930 . S
C14 C13 1.385 . S
C14 C15 1.395 . S
C14 H37 0.929 . S
C15 C14 1.395 . S
C15 C16 1.335 1_554 S
C16 C15 1.335 1_556 S
C16 C17 1.398 . S
C16 H38 0.930 . S
C17 C12 1.382 1_556 S
C17 C16 1.398 . S
C17 H39 0.929 . S
C18 O28 1.271 . S
C18 O29 1.251 . S
C19 O30 1.252 1_554 S
C19 O31 1.272 . S
O20 Sm0 2.543 1_556 S
O20 C2 1.261 1_456 S
O21 Sm0 2.450 . S
O21 C2 1.242 1_455 S
O22 Sm0 2.681 . S
O22 Sm1 2.386 . S
O22 C9 1.271 . S
O23 Sm0 2.464 . S
O23 C9 1.251 . S
O24 Sm0 2.396 1_655 S
O24 C10 1.252 . S
O25 Sm1 2.408 1_655 S
O25 C10 1.272 . S
O26 Sm1 2.543 . S
O26 C11 1.261 . S
O27 Sm1 2.450 1_556 S
O27 C11 1.242 1_556 S
O28 Sm0 2.386 1_556 S
O28 Sm1 2.681 1_556 S
O28 C18 1.271 . S
O29 Sm1 2.464 1_556 S
O29 C18 1.251 . S
O30 Sm1 2.396 1_556 S
O30 C19 1.252 1_556 S
O31 Sm0 2.408 . S
O31 C19 1.272 . S
H32 C4 0.930 . S
H33 C5 0.929 . S
H34 C7 0.930 . S
H35 C8 0.929 . S
H36 C13 0.930 . S
H37 C14 0.929 . S
H38 C16 0.930 . S
H39 C17 0.929 . S
Sm40 C42 2.846 . S
Sm40 O60 2.543 1_554 S
Sm40 O61 2.450 . S
Sm40 O62 2.681 . S
Sm40 O63 2.464 . S
Sm40 O64 2.396 . S
Sm40 O68 2.386 1_554 S
Sm40 O71 2.408 1_655 S
Sm41 C51 2.846 1_655 S
Sm41 O62 2.386 . S
Sm41 O65 2.408 . S
Sm41 O66 2.543 . S
Sm41 O67 2.450 1_554 S
Sm41 O68 2.681 1_554 S
Sm41 O69 2.464 1_554 S
Sm41 O70 2.396 1_654 S
C42 Sm40 2.846 . S
C42 C43 1.506 . S
C42 O60 1.261 1_554 S
C42 O61 1.242 . S
C43 C42 1.506 . S
C43 C44 1.358 1_554 S
C43 C48 1.382 . S
C44 C43 1.358 1_556 S
C44 C45 1.385 . S
C44 H72 0.930 . S
C45 C44 1.385 . S
C45 C46 1.395 1_556 S
C45 H73 0.929 . S
C46 C45 1.395 1_554 S
C46 C47 1.335 . S
C47 C46 1.335 . S
C47 C48 1.398 . S
C47 H74 0.930 . S
C48 C43 1.382 . S
C48 C47 1.398 . S
C48 H75 0.929 . S
C49 O62 1.271 . S
C49 O63 1.251 . S
C50 O64 1.252 . S
C50 O65 1.272 . S
C51 Sm41 2.846 1_455 S
C51 C52 1.506 . S
C51 O66 1.261 1_455 S
C51 O67 1.242 1_454 S
C52 C51 1.506 . S
C52 C53 1.358 . S
C52 C57 1.382 1_554 S
C53 C52 1.358 . S
C53 C54 1.385 . S
C53 H76 0.930 . S
C54 C53 1.385 . S
C54 C55 1.395 . S
C54 H77 0.929 . S
C55 C54 1.395 . S
C55 C56 1.335 1_554 S
C56 C55 1.335 1_556 S
C56 C57 1.398 . S
C56 H78 0.930 . S
C57 C52 1.382 1_556 S
C57 C56 1.398 . S
C57 H79 0.929 . S
C58 O68 1.271 . S
C58 O69 1.251 . S
C59 O70 1.252 1_554 S
C59 O71 1.272 . S
O60 Sm40 2.543 1_556 S
O60 C42 1.261 1_556 S
O61 Sm40 2.450 . S
O61 C42 1.242 . S
O62 Sm40 2.681 . S
O62 Sm41 2.386 . S
O62 C49 1.271 . S
O63 Sm40 2.464 . S
O63 C49 1.251 . S
O64 Sm40 2.396 . S
O64 C50 1.252 . S
O65 Sm41 2.408 . S
O65 C50 1.272 . S
O66 Sm41 2.543 . S
O66 C51 1.261 1_655 S
O67 Sm41 2.450 1_556 S
O67 C51 1.242 1_656 S
O68 Sm40 2.386 1_556 S
O68 Sm41 2.681 1_556 S
O68 C58 1.271 . S
O69 Sm41 2.464 1_556 S
O69 C58 1.251 . S
O70 Sm41 2.396 1_456 S
O70 C59 1.252 1_556 S
O71 Sm40 2.408 1_455 S
O71 C59 1.272 . S
H72 C44 0.930 . S
H73 C45 0.929 . S
H74 C47 0.930 . S
H75 C48 0.929 . S
H76 C53 0.930 . S
H77 C54 0.929 . S
H78 C56 0.930 . S
H79 C57 0.929 . S
Sm80 C82 2.846 . S
Sm80 O100 2.543 . S
Sm80 O101 2.450 . S
Sm80 O102 2.681 . S
Sm80 O103 2.464 . S
Sm80 O104 2.396 . S
Sm80 O108 2.386 . S
Sm80 O111 2.408 1_455 S
Sm81 C91 2.846 1_455 S
Sm81 O102 2.386 . S
Sm81 O105 2.408 . S
Sm81 O106 2.543 . S
Sm81 O107 2.450 . S
Sm81 O108 2.681 . S
Sm81 O109 2.464 . S
Sm81 O110 2.396 1_455 S
C82 Sm80 2.846 . S
C82 C83 1.506 . S
C82 O100 1.261 . S
C82 O101 1.242 . S
C83 C82 1.506 . S
C83 C84 1.358 . S
C83 C88 1.382 . S
C84 C83 1.358 . S
C84 C85 1.385 . S
C84 H112 0.930 . S
C85 C84 1.385 . S
C85 C86 1.395 . S
C85 H113 0.929 . S
C86 C85 1.395 . S
C86 C87 1.335 . S
C87 C86 1.335 . S
C87 C88 1.398 . S
C87 H114 0.930 . S
C88 C83 1.382 . S
C88 C87 1.398 . S
C88 H115 0.929 . S
C89 O102 1.271 . S
C89 O103 1.251 . S
C90 O104 1.252 . S
C90 O105 1.272 . S
C91 Sm81 2.846 1_655 S
C91 C92 1.506 . S
C91 O106 1.261 1_655 S
C91 O107 1.242 1_655 S
C92 C91 1.506 . S
C92 C93 1.358 . S
C92 C97 1.382 . S
C93 C92 1.358 . S
C93 C94 1.385 . S
C93 H116 0.930 . S
C94 C93 1.385 . S
C94 C95 1.395 . S
C94 H117 0.929 . S
C95 C94 1.395 . S
C95 C96 1.335 . S
C96 C95 1.335 . S
C96 C97 1.398 . S
C96 H118 0.930 . S
C97 C92 1.382 . S
C97 C96 1.398 . S
C97 H119 0.929 . S
C98 O108 1.271 . S
C98 O109 1.251 . S
C99 O110 1.252 . S
C99 O111 1.272 . S
O100 Sm80 2.543 . S
O100 C82 1.261 . S
O101 Sm80 2.450 . S
O101 C82 1.242 . S
O102 Sm80 2.681 . S
O102 Sm81 2.386 . S
O102 C89 1.271 . S
O103 Sm80 2.464 . S
O103 C89 1.251 . S
O104 Sm80 2.396 . S
O104 C90 1.252 . S
O105 Sm81 2.408 . S
O105 C90 1.272 . S
O106 Sm81 2.543 . S
O106 C91 1.261 1_455 S
O107 Sm81 2.450 . S
O107 C91 1.242 1_455 S
O108 Sm80 2.386 . S
O108 Sm81 2.681 . S
O108 C98 1.271 . S
O109 Sm81 2.464 . S
O109 C98 1.251 . S
O110 Sm81 2.396 1_655 S
O110 C99 1.252 . S
O111 Sm80 2.408 1_655 S
O111 C99 1.272 . S
H112 C84 0.930 . S
H113 C85 0.929 . S
H114 C87 0.930 . S
H115 C88 0.929 . S
H116 C93 0.930 . S
H117 C94 0.929 . S
H118 C96 0.930 . S
H119 C97 0.929 . S
Sm120 C122 2.846 1_655 S
Sm120 O140 2.543 . S
Sm120 O141 2.450 . S
Sm120 O142 2.681 . S
Sm120 O143 2.464 . S
Sm120 O144 2.396 1_655 S
Sm120 O148 2.386 . S
Sm120 O151 2.408 . S
Sm121 C131 2.846 . S
Sm121 O142 2.386 . S
Sm121 O145 2.408 1_655 S
Sm121 O146 2.543 . S
Sm121 O147 2.450 . S
Sm121 O148 2.681 . S
Sm121 O149 2.464 . S
Sm121 O150 2.396 . S
C122 Sm120 2.846 1_455 S
C122 C123 1.506 . S
C122 O140 1.261 1_455 S
C122 O141 1.242 1_455 S
C123 C122 1.506 . S
C123 C124 1.358 . S
C123 C128 1.382 . S
C124 C123 1.358 . S
C124 C125 1.385 . S
C124 H152 0.930 . S
C125 C124 1.385 . S
C125 C126 1.395 . S
C125 H153 0.929 . S
C126 C125 1.395 . S
C126 C127 1.335 . S
C127 C126 1.335 . S
C127 C128 1.398 . S
C127 H154 0.930 . S
C128 C123 1.382 . S
C128 C127 1.398 . S
C128 H155 0.929 . S
C129 O142 1.271 . S
C129 O143 1.251 . S
C130 O144 1.252 . S
C130 O145 1.272 . S
C131 Sm121 2.846 . S
C131 C132 1.506 . S
C131 O146 1.261 . S
C131 O147 1.242 . S
C132 C131 1.506 . S
C132 C133 1.358 . S
C132 C137 1.382 . S
C133 C132 1.358 . S
C133 C134 1.385 . S
C133 H156 0.930 . S
C134 C133 1.385 . S
C134 C135 1.395 . S
C134 H157 0.929 . S
C135 C134 1.395 . S
C135 C136 1.335 . S
C136 C135 1.335 . S
C136 C137 1.398 . S
C136 H158 0.930 . S
C137 C132 1.382 . S
C137 C136 1.398 . S
C137 H159 0.929 . S
C138 O148 1.271 . S
C138 O149 1.251 . S
C139 O150 1.252 . S
C139 O151 1.272 . S
O140 Sm120 2.543 . S
O140 C122 1.261 1_655 S
O141 Sm120 2.450 . S
O141 C122 1.242 1_655 S
O142 Sm120 2.681 . S
O142 Sm121 2.386 . S
O142 C129 1.271 . S
O143 Sm120 2.464 . S
O143 C129 1.251 . S
O144 Sm120 2.396 1_455 S
O144 C130 1.252 . S
O145 Sm121 2.408 1_455 S
O145 C130 1.272 . S
O146 Sm121 2.543 . S
O146 C131 1.261 . S
O147 Sm121 2.450 . S
O147 C131 1.242 . S
O148 Sm120 2.386 . S
O148 Sm121 2.681 . S
O148 C138 1.271 . S
O149 Sm121 2.464 . S
O149 C138 1.251 . S
O150 Sm121 2.396 . S
O150 C139 1.252 . S
O151 Sm120 2.408 . S
O151 C139 1.272 . S
H152 C124 0.930 . S
H153 C125 0.929 . S
H154 C127 0.930 . S
H155 C128 0.929 . S
H156 C133 0.930 . S
H157 C134 0.929 . S
H158 C136 0.930 . S
H159 C137 0.929 . S
Sm160 C162 2.846 . S
Sm160 O180 2.543 1_554 S
Sm160 O181 2.450 . S
Sm160 O182 2.681 . S
Sm160 O183 2.464 . S
Sm160 O184 2.396 . S
Sm160 O188 2.386 1_554 S
Sm160 O191 2.408 . S
Sm161 C171 2.846 . S
Sm161 O182 2.386 . S
Sm161 O185 2.408 . S
Sm161 O186 2.543 . S
Sm161 O187 2.450 1_554 S
Sm161 O188 2.681 1_554 S
Sm161 O189 2.464 1_554 S
Sm161 O190 2.396 1_554 S
C162 Sm160 2.846 . S
C162 C163 1.506 . S
C162 O180 1.261 1_554 S
C162 O181 1.242 . S
C163 C162 1.506 . S
C163 C164 1.358 1_554 S
C163 C168 1.382 . S
C164 C163 1.358 1_556 S
C164 C165 1.385 . S
C164 H192 0.930 . S
C165 C164 1.385 . S
C165 C166 1.395 1_556 S
C165 H193 0.929 . S
C166 C165 1.395 1_554 S
C166 C167 1.335 . S
C167 C166 1.335 . S
C167 C168 1.398 . S
C167 H194 0.930 . S
C168 C163 1.382 . S
C168 C167 1.398 . S
C168 H195 0.929 . S
C169 O182 1.271 . S
C169 O183 1.251 . S
C170 O184 1.252 . S
C170 O185 1.272 . S
C171 Sm161 2.846 . S
C171 C172 1.506 . S
C171 O186 1.261 . S
C171 O187 1.242 1_554 S
C172 C171 1.506 . S
C172 C173 1.358 . S
C172 C177 1.382 1_554 S
C173 C172 1.358 . S
C173 C174 1.385 . S
C173 H196 0.930 . S
C174 C173 1.385 . S
C174 C175 1.395 . S
C174 H197 0.929 . S
C175 C174 1.395 . S
C175 C176 1.335 1_554 S
C176 C175 1.335 1_556 S
C176 C177 1.398 . S
C176 H198 0.930 . S
C177 C172 1.382 1_556 S
C177 C176 1.398 . S
C177 H199 0.929 . S
C178 O188 1.271 . S
C178 O189 1.251 . S
C179 O190 1.252 1_554 S
C179 O191 1.272 . S
O180 Sm160 2.543 1_556 S
O180 C162 1.261 1_556 S
O181 Sm160 2.450 . S
O181 C162 1.242 . S
O182 Sm160 2.681 . S
O182 Sm161 2.386 . S
O182 C169 1.271 . S
O183 Sm160 2.464 . S
O183 C169 1.251 . S
O184 Sm160 2.396 . S
O184 C170 1.252 . S
O185 Sm161 2.408 . S
O185 C170 1.272 . S
O186 Sm161 2.543 . S
O186 C171 1.261 . S
O187 Sm161 2.450 1_556 S
O187 C171 1.242 1_556 S
O188 Sm160 2.386 1_556 S
O188 Sm161 2.681 1_556 S
O188 C178 1.271 . S
O189 Sm161 2.464 1_556 S
O189 C178 1.251 . S
O190 Sm161 2.396 1_556 S
O190 C179 1.252 1_556 S
O191 Sm160 2.408 . S
O191 C179 1.272 . S
H192 C164 0.930 . S
H193 C165 0.929 . S
H194 C167 0.930 . S
H195 C168 0.929 . S
H196 C173 0.930 . S
H197 C174 0.929 . S
H198 C176 0.930 . S
H199 C177 0.929 . S
Sm200 C202 2.846 . S
Sm200 O220 2.543 1_554 S
Sm200 O221 2.450 . S
Sm200 O222 2.681 . S
Sm200 O223 2.464 . S
Sm200 O224 2.396 . S
Sm200 O228 2.386 1_554 S
Sm200 O231 2.408 . S
Sm201 C211 2.846 . S
Sm201 O222 2.386 . S
Sm201 O225 2.408 . S
Sm201 O226 2.543 . S
Sm201 O227 2.450 1_554 S
Sm201 O228 2.681 1_554 S
Sm201 O229 2.464 1_554 S
Sm201 O230 2.396 1_554 S
C202 Sm200 2.846 . S
C202 C203 1.506 . S
C202 O220 1.261 1_554 S
C202 O221 1.242 . S
C203 C202 1.506 . S
C203 C204 1.358 1_554 S
C203 C208 1.382 . S
C204 C203 1.358 1_556 S
C204 C205 1.385 . S
C204 H232 0.930 . S
C205 C204 1.385 . S
C205 C206 1.395 1_556 S
C205 H233 0.929 . S
C206 C205 1.395 1_554 S
C206 C207 1.335 . S
C207 C206 1.335 . S
C207 C208 1.398 . S
C207 H234 0.930 . S
C208 C203 1.382 . S
C208 C207 1.398 . S
C208 H235 0.929 . S
C209 O222 1.271 . S
C209 O223 1.251 . S
C210 O224 1.252 . S
C210 O225 1.272 . S
C211 Sm201 2.846 . S
C211 C212 1.506 . S
C211 O226 1.261 . S
C211 O227 1.242 1_554 S
C212 C211 1.506 . S
C212 C213 1.358 . S
C212 C217 1.382 1_554 S
C213 C212 1.358 . S
C213 C214 1.385 . S
C213 H236 0.930 . S
C214 C213 1.385 . S
C214 C215 1.395 . S
C214 H237 0.929 . S
C215 C214 1.395 . S
C215 C216 1.335 1_554 S
C216 C215 1.335 1_556 S
C216 C217 1.398 . S
C216 H238 0.930 . S
C217 C212 1.382 1_556 S
C217 C216 1.398 . S
C217 H239 0.929 . S
C218 O228 1.271 . S
C218 O229 1.251 . S
C219 O230 1.252 1_554 S
C219 O231 1.272 . S
O220 Sm200 2.543 1_556 S
O220 C202 1.261 1_556 S
O221 Sm200 2.450 . S
O221 C202 1.242 . S
O222 Sm200 2.681 . S
O222 Sm201 2.386 . S
O222 C209 1.271 . S
O223 Sm200 2.464 . S
O223 C209 1.251 . S
O224 Sm200 2.396 . S
O224 C210 1.252 . S
O225 Sm201 2.408 . S
O225 C210 1.272 . S
O226 Sm201 2.543 . S
O226 C211 1.261 . S
O227 Sm201 2.450 1_556 S
O227 C211 1.242 1_556 S
O228 Sm200 2.386 1_556 S
O228 Sm201 2.681 1_556 S
O228 C218 1.271 . S
O229 Sm201 2.464 1_556 S
O229 C218 1.251 . S
O230 Sm201 2.396 1_556 S
O230 C219 1.252 1_556 S
O231 Sm200 2.408 . S
O231 C219 1.272 . S
H232 C204 0.930 . S
H233 C205 0.929 . S
H234 C207 0.930 . S
H235 C208 0.929 . S
H236 C213 0.930 . S
H237 C214 0.929 . S
H238 C216 0.930 . S
H239 C217 0.929 . S
Sm240 C242 2.846 . S
Sm240 O260 2.543 . S
Sm240 O261 2.450 . S
Sm240 O262 2.681 . S
Sm240 O263 2.464 . S
Sm240 O264 2.396 . S
Sm240 O268 2.386 . S
Sm240 O271 2.408 . S
Sm241 C251 2.846 . S
Sm241 O262 2.386 . S
Sm241 O265 2.408 . S
Sm241 O266 2.543 . S
Sm241 O267 2.450 . S
Sm241 O268 2.681 . S
Sm241 O269 2.464 . S
Sm241 O270 2.396 . S
C242 Sm240 2.846 . S
C242 C243 1.506 . S
C242 O260 1.261 . S
C242 O261 1.242 . S
C243 C242 1.506 . S
C243 C244 1.358 . S
C243 C248 1.382 . S
C244 C243 1.358 . S
C244 C245 1.385 . S
C244 H272 0.930 . S
C245 C244 1.385 . S
C245 C246 1.395 . S
C245 H273 0.929 . S
C246 C245 1.395 . S
C246 C247 1.335 . S
C247 C246 1.335 . S
C247 C248 1.398 . S
C247 H274 0.930 . S
C248 C243 1.382 . S
C248 C247 1.398 . S
C248 H275 0.929 . S
C249 O262 1.271 . S
C249 O263 1.251 . S
C250 O264 1.252 . S
C250 O265 1.272 . S
C251 Sm241 2.846 . S
C251 C252 1.506 . S
C251 O266 1.261 . S
C251 O267 1.242 . S
C252 C251 1.506 . S
C252 C253 1.358 . S
C252 C257 1.382 . S
C253 C252 1.358 . S
C253 C254 1.385 . S
C253 H276 0.930 . S
C254 C253 1.385 . S
C254 C255 1.395 . S
C254 H277 0.929 . S
C255 C254 1.395 . S
C255 C256 1.335 . S
C256 C255 1.335 . S
C256 C257 1.398 . S
C256 H278 0.930 . S
C257 C252 1.382 . S
C257 C256 1.398 . S
C257 H279 0.929 . S
C258 O268 1.271 . S
C258 O269 1.251 . S
C259 O270 1.252 . S
C259 O271 1.272 . S
O260 Sm240 2.543 . S
O260 C242 1.261 . S
O261 Sm240 2.450 . S
O261 C242 1.242 . S
O262 Sm240 2.681 . S
O262 Sm241 2.386 . S
O262 C249 1.271 . S
O263 Sm240 2.464 . S
O263 C249 1.251 . S
O264 Sm240 2.396 . S
O264 C250 1.252 . S
O265 Sm241 2.408 . S
O265 C250 1.272 . S
O266 Sm241 2.543 . S
O266 C251 1.261 . S
O267 Sm241 2.450 . S
O267 C251 1.242 . S
O268 Sm240 2.386 . S
O268 Sm241 2.681 . S
O268 C258 1.271 . S
O269 Sm241 2.464 . S
O269 C258 1.251 . S
O270 Sm241 2.396 . S
O270 C259 1.252 . S
O271 Sm240 2.408 . S
O271 C259 1.272 . S
H272 C244 0.930 . S
H273 C245 0.929 . S
H274 C247 0.930 . S
H275 C248 0.929 . S
H276 C253 0.930 . S
H277 C254 0.929 . S
H278 C256 0.930 . S
H279 C257 0.929 . S
Sm280 C282 2.846 . S
Sm280 O300 2.543 . S
Sm280 O301 2.450 . S
Sm280 O302 2.681 . S
Sm280 O303 2.464 . S
Sm280 O304 2.396 . S
Sm280 O308 2.386 . S
Sm280 O311 2.408 . S
Sm281 C291 2.846 . S
Sm281 O302 2.386 . S
Sm281 O305 2.408 . S
Sm281 O306 2.543 . S
Sm281 O307 2.450 . S
Sm281 O308 2.681 . S
Sm281 O309 2.464 . S
Sm281 O310 2.396 . S
C282 Sm280 2.846 . S
C282 C283 1.506 . S
C282 O300 1.261 . S
C282 O301 1.242 . S
C283 C282 1.506 . S
C283 C284 1.358 . S
C283 C288 1.382 . S
C284 C283 1.358 . S
C284 C285 1.385 . S
C284 H312 0.930 . S
C285 C284 1.385 . S
C285 C286 1.395 . S
C285 H313 0.929 . S
C286 C285 1.395 . S
C286 C287 1.335 . S
C287 C286 1.335 . S
C287 C288 1.398 . S
C287 H314 0.930 . S
C288 C283 1.382 . S
C288 C287 1.398 . S
C288 H315 0.929 . S
C289 O302 1.271 . S
C289 O303 1.251 . S
C290 O304 1.252 . S
C290 O305 1.272 . S
C291 Sm281 2.846 . S
C291 C292 1.506 . S
C291 O306 1.261 . S
C291 O307 1.242 . S
C292 C291 1.506 . S
C292 C293 1.358 . S
C292 C297 1.382 . S
C293 C292 1.358 . S
C293 C294 1.385 . S
C293 H316 0.930 . S
C294 C293 1.385 . S
C294 C295 1.395 . S
C294 H317 0.929 . S
C295 C294 1.395 . S
C295 C296 1.335 . S
C296 C295 1.335 . S
C296 C297 1.398 . S
C296 H318 0.930 . S
C297 C292 1.382 . S
C297 C296 1.398 . S
C297 H319 0.929 . S
C298 O308 1.271 . S
C298 O309 1.251 . S
C299 O310 1.252 . S
C299 O311 1.272 . S
O300 Sm280 2.543 . S
O300 C282 1.261 . S
O301 Sm280 2.450 . S
O301 C282 1.242 . S
O302 Sm280 2.681 . S
O302 Sm281 2.386 . S
O302 C289 1.271 . S
O303 Sm280 2.464 . S
O303 C289 1.251 . S
O304 Sm280 2.396 . S
O304 C290 1.252 . S
O305 Sm281 2.408 . S
O305 C290 1.272 . S
O306 Sm281 2.543 . S
O306 C291 1.261 . S
O307 Sm281 2.450 . S
O307 C291 1.242 . S
O308 Sm280 2.386 . S
O308 Sm281 2.681 . S
O308 C298 1.271 . S
O309 Sm281 2.464 . S
O309 C298 1.251 . S
O310 Sm281 2.396 . S
O310 C299 1.252 . S
O311 Sm280 2.408 . S
O311 C299 1.272 . S
H312 C284 0.930 . S
H313 C285 0.929 . S
H314 C287 0.930 . S
H315 C288 0.929 . S
H316 C293 0.930 . S
H317 C294 0.929 . S
H318 C296 0.930 . S
H319 C297 0.929 . S
H320 C328 0.950 . S
H321 C333 0.950 . S
H322 C330 0.950 . S
H323 C332 0.950 . S
H324 C334 0.950 . S
H325 C336 0.950 . S
H326 C338 0.950 1_556 S
H327 C339 0.950 . S
C328 H320 0.950 . S
C328 C329 1.386 . S
C328 C330 1.391 . S
C329 C328 1.386 . S
C329 C333 1.393 . S
C330 H322 0.950 . S
C330 C328 1.391 . S
C330 C331 1.400 . S
C331 C330 1.400 . S
C331 C332 1.398 . S
C331 C337 1.491 . S
C332 H323 0.950 . S
C332 C331 1.398 . S
C332 C333 1.391 . S
C333 H321 0.950 . S
C333 C329 1.393 . S
C333 C332 1.391 . S
C334 H324 0.950 . S
C334 C335 1.386 . S
C334 C336 1.391 . S
C335 C334 1.386 . S
C335 C339 1.393 . S
C336 H325 0.950 . S
C336 C334 1.391 . S
C336 C337 1.400 . S
C337 C331 1.491 . S
C337 C336 1.400 . S
C337 C338 1.398 . S
C338 H326 0.950 1_554 S
C338 C337 1.398 . S
C338 C339 1.391 . S
C339 H327 0.950 . S
C339 C335 1.393 . S
C339 C338 1.391 . S
H340 C348 0.950 . S
H341 C353 0.950 . S
H342 C350 0.950 . S
H343 C352 0.950 . S
H344 C354 0.950 . S
H345 C356 0.950 . S
H346 C358 0.950 . S
H347 C359 0.950 . S
C348 H340 0.950 . S
C348 C349 1.386 . S
C348 C350 1.391 . S
C349 C348 1.386 . S
C349 C353 1.393 1_554 S
C350 H342 0.950 . S
C350 C348 1.391 . S
C350 C351 1.400 . S
C351 C350 1.400 . S
C351 C352 1.398 1_554 S
C351 C357 1.491 . S
C352 H343 0.950 . S
C352 C351 1.398 1_556 S
C352 C353 1.391 . S
C353 H341 0.950 . S
C353 C349 1.393 1_556 S
C353 C352 1.391 . S
C354 H344 0.950 . S
C354 C355 1.386 1_556 S
C354 C356 1.391 . S
C355 C354 1.386 1_554 S
C355 C359 1.393 . S
C356 H345 0.950 . S
C356 C354 1.391 . S
C356 C357 1.400 1_556 S
C357 C351 1.491 . S
C357 C356 1.400 1_554 S
C357 C358 1.398 . S
C358 H346 0.950 . S
C358 C357 1.398 . S
C358 C359 1.391 . S
C359 H347 0.950 . S
C359 C355 1.393 . S
C359 C358 1.391 . S
H360 C368 0.950 . S
H361 C373 0.950 . S
H362 C370 0.950 . S
H363 C372 0.950 . S
H364 C374 0.950 . S
H365 C376 0.950 . S
H366 C378 0.950 . S
H367 C379 0.950 . S
C368 H360 0.950 . S
C368 C369 1.386 . S
C368 C370 1.391 . S
C369 C368 1.386 . S
C369 C373 1.393 . S
C370 H362 0.950 . S
C370 C368 1.391 . S
C370 C371 1.400 . S
C371 C370 1.400 . S
C371 C372 1.398 . S
C371 C377 1.491 . S
C372 H363 0.950 . S
C372 C371 1.398 . S
C372 C373 1.391 . S
C373 H361 0.950 . S
C373 C369 1.393 . S
C373 C372 1.391 . S
C374 H364 0.950 . S
C374 C375 1.386 . S
C374 C376 1.391 . S
C375 C374 1.386 . S
C375 C379 1.393 . S
C376 H365 0.950 . S
C376 C374 1.391 . S
C376 C377 1.400 . S
C377 C371 1.491 . S
C377 C376 1.400 . S
C377 C378 1.398 . S
C378 H366 0.950 . S
C378 C377 1.398 . S
C378 C379 1.391 . S
C379 H367 0.950 . S
C379 C375 1.393 . S
C379 C378 1.391 . S
H380 C388 0.950 . S
H381 C393 0.950 . S
H382 C390 0.950 . S
H383 C392 0.950 . S
H384 C394 0.950 . S
H385 C396 0.950 . S
H386 C398 0.950 . S
H387 C399 0.950 . S
C388 H380 0.950 . S
C388 C389 1.386 . S
C388 C390 1.391 . S
C389 C388 1.386 . S
C389 C393 1.393 . S
C390 H382 0.950 . S
C390 C388 1.391 . S
C390 C391 1.400 . S
C391 C390 1.400 . S
C391 C392 1.398 . S
C391 C397 1.491 . S
C392 H383 0.950 . S
C392 C391 1.398 . S
C392 C393 1.391 . S
C393 H381 0.950 . S
C393 C389 1.393 . S
C393 C392 1.391 . S
C394 H384 0.950 . S
C394 C395 1.386 . S
C394 C396 1.391 . S
C395 C394 1.386 . S
C395 C399 1.393 . S
C396 H385 0.950 . S
C396 C394 1.391 . S
C396 C397 1.400 . S
C397 C391 1.491 . S
C397 C396 1.400 . S
C397 C398 1.398 . S
C398 H386 0.950 . S
C398 C397 1.398 . S
C398 C399 1.391 . S
C399 H387 0.950 . S
C399 C395 1.393 . S
C399 C398 1.391 . S
H400 C408 0.950 . S
H401 C413 0.950 . S
H402 C410 0.950 1_455 S
H403 C412 0.950 . S
H404 C414 0.950 . S
H405 C416 0.950 . S
H406 C418 0.950 . S
H407 C419 0.950 . S
C408 H400 0.950 . S
C408 C409 1.386 1_556 S
C408 C410 1.391 . S
C409 C408 1.386 1_554 S
C409 C413 1.393 . S
C410 H402 0.950 1_655 S
C410 C408 1.391 . S
C410 C411 1.400 1_656 S
C411 C410 1.400 1_454 S
C411 C412 1.398 1_455 S
C411 C417 1.491 . S
C412 H403 0.950 . S
C412 C411 1.398 1_655 S
C412 C413 1.391 . S
C413 H401 0.950 . S
C413 C409 1.393 . S
C413 C412 1.391 . S
C414 H404 0.950 . S
C414 C415 1.386 . S
C414 C416 1.391 . S
C415 C414 1.386 . S
C415 C419 1.393 1_554 S
C416 H405 0.950 . S
C416 C414 1.391 . S
C416 C417 1.400 . S
C417 C411 1.491 . S
C417 C416 1.400 . S
C417 C418 1.398 1_554 S
C418 H406 0.950 . S
C418 C417 1.398 1_556 S
C418 C419 1.391 . S
C419 H407 0.950 . S
C419 C415 1.393 1_556 S
C419 C418 1.391 . S
H420 C428 0.950 . S
H421 C433 0.950 . S
H422 C430 0.950 . S
H423 C432 0.950 1_655 S
H424 C434 0.950 . S
H425 C436 0.950 . S
H426 C438 0.950 . S
H427 C439 0.950 . S
C428 H420 0.950 . S
C428 C429 1.386 . S
C428 C430 1.391 . S
C429 C428 1.386 . S
C429 C433 1.393 1_554 S
C430 H422 0.950 . S
C430 C428 1.391 . S
C430 C431 1.400 1_455 S
C431 C430 1.400 1_655 S
C431 C432 1.398 1_654 S
C431 C437 1.491 . S
C432 H423 0.950 1_455 S
C432 C431 1.398 1_456 S
C432 C433 1.391 . S
C433 H421 0.950 . S
C433 C429 1.393 1_556 S
C433 C432 1.391 . S
C434 H424 0.950 . S
C434 C435 1.386 1_556 S
C434 C436 1.391 . S
C435 C434 1.386 1_554 S
C435 C439 1.393 . S
C436 H425 0.950 . S
C436 C434 1.391 . S
C436 C437 1.400 1_556 S
C437 C431 1.491 . S
C437 C436 1.400 1_554 S
C437 C438 1.398 . S
C438 H426 0.950 . S
C438 C437 1.398 . S
C438 C439 1.391 . S
C439 H427 0.950 . S
C439 C435 1.393 . S
C439 C438 1.391 . S
H440 C448 0.950 . S
H441 C453 0.950 . S
H442 C450 0.950 . S
H443 C452 0.950 . S
H444 C454 0.950 . S
H445 C456 0.950 1_455 S
H446 C458 0.950 1_455 S
H447 C459 0.950 . S
C448 H440 0.950 . S
C448 C449 1.386 . S
C448 C450 1.391 . S
C449 C448 1.386 . S
C449 C453 1.393 . S
C450 H442 0.950 . S
C450 C448 1.391 . S
C450 C451 1.400 . S
C451 C450 1.400 . S
C451 C452 1.398 . S
C451 C457 1.491 . S
C452 H443 0.950 . S
C452 C451 1.398 . S
C452 C453 1.391 . S
C453 H441 0.950 . S
C453 C449 1.393 . S
C453 C452 1.391 . S
C454 H444 0.950 . S
C454 C455 1.386 . S
C454 C456 1.391 . S
C455 C454 1.386 . S
C455 C459 1.393 . S
C456 H445 0.950 1_655 S
C456 C454 1.391 . S
C456 C457 1.400 1_655 S
C457 C451 1.491 . S
C457 C456 1.400 1_455 S
C457 C458 1.398 1_455 S
C458 H446 0.950 1_655 S
C458 C457 1.398 1_655 S
C458 C459 1.391 . S
C459 H447 0.950 . S
C459 C455 1.393 . S
C459 C458 1.391 . S
H460 C468 0.950 . S
H461 C473 0.950 . S
H462 C470 0.950 . S
H463 C472 0.950 . S
H464 C474 0.950 . S
H465 C476 0.950 1_655 S
H466 C478 0.950 1_655 S
H467 C479 0.950 . S
C468 H460 0.950 . S
C468 C469 1.386 . S
C468 C470 1.391 . S
C469 C468 1.386 . S
C469 C473 1.393 . S
C470 H462 0.950 . S
C470 C468 1.391 . S
C470 C471 1.400 . S
C471 C470 1.400 . S
C471 C472 1.398 . S
C471 C477 1.491 . S
C472 H463 0.950 . S
C472 C471 1.398 . S
C472 C473 1.391 . S
C473 H461 0.950 . S
C473 C469 1.393 . S
C473 C472 1.391 . S
C474 H464 0.950 . S
C474 C475 1.386 . S
C474 C476 1.391 . S
C475 C474 1.386 . S
C475 C479 1.393 . S
C476 H465 0.950 1_455 S
C476 C474 1.391 . S
C476 C477 1.400 1_455 S
C477 C471 1.491 . S
C477 C476 1.400 1_655 S
C477 C478 1.398 1_655 S
C478 H466 0.950 1_455 S
C478 C477 1.398 1_455 S
C478 C479 1.391 . S
C479 H467 0.950 . S
C479 C475 1.393 . S
C479 C478 1.391 . S
H480 C488 0.950 . S
H481 C493 0.951 1_656 S
H482 C490 0.950 . S
H483 C492 0.950 1_556 S
H484 C494 0.950 . S
H485 C496 0.950 . S
H486 C498 0.950 . S
H487 C499 0.950 1_455 S
C488 H480 0.950 . S
C488 C489 1.386 . S
C488 C490 1.391 . S
C489 C488 1.386 . S
C489 C493 1.393 . S
C490 H482 0.950 . S
C490 C488 1.391 . S
C490 C491 1.400 . S
C491 C490 1.400 . S
C491 C492 1.398 1_455 S
C491 C497 1.491 1_455 S
C492 H483 0.950 1_554 S
C492 C491 1.398 1_655 S
C492 C493 1.391 1_655 S
C493 H481 0.951 1_454 S
C493 C489 1.393 . S
C493 C492 1.391 1_455 S
C494 H484 0.950 . S
C494 C495 1.386 1_556 S
C494 C496 1.391 . S
C495 C494 1.386 1_554 S
C495 C499 1.393 . S
C496 H485 0.950 . S
C496 C494 1.391 . S
C496 C497 1.400 1_556 S
C497 C491 1.491 1_655 S
C497 C496 1.400 1_554 S
C497 C498 1.398 1_655 S
C498 H486 0.950 . S
C498 C497 1.398 1_455 S
C498 C499 1.391 1_455 S
C499 H487 0.950 1_655 S
C499 C495 1.393 . S
C499 C498 1.391 1_655 S
H500 C508 0.950 . S
H501 C513 0.950 . S
H502 C510 0.950 . S
H503 C512 0.950 . S
H504 C514 0.950 . S
H505 C516 0.950 . S
H506 C518 0.950 . S
H507 C519 0.950 . S
C508 H500 0.950 . S
C508 C509 1.386 . S
C508 C510 1.391 . S
C509 C508 1.386 . S
C509 C513 1.393 . S
C510 H502 0.950 . S
C510 C508 1.391 . S
C510 C511 1.400 . S
C511 C510 1.400 . S
C511 C512 1.398 . S
C511 C517 1.491 1_455 S
C512 H503 0.950 . S
C512 C511 1.398 . S
C512 C513 1.391 . S
C513 H501 0.950 . S
C513 C509 1.393 . S
C513 C512 1.391 . S
C514 H504 0.950 . S
C514 C515 1.386 . S
C514 C516 1.391 . S
C515 C514 1.386 . S
C515 C519 1.393 . S
C516 H505 0.950 . S
C516 C514 1.391 . S
C516 C517 1.400 . S
C517 C511 1.491 1_655 S
C517 C516 1.400 . S
C517 C518 1.398 . S
C518 H506 0.950 . S
C518 C517 1.398 . S
C518 C519 1.391 . S
C519 H507 0.950 . S
C519 C515 1.393 . S
C519 C518 1.391 . S
H520 C528 0.950 . S
H521 C533 0.950 . S
H522 C530 0.950 . S
H523 C532 0.950 . S
H524 C534 0.950 . S
H525 C536 0.950 . S
H526 C538 0.950 . S
H527 C539 0.950 . S
C528 H520 0.950 . S
C528 C529 1.386 . S
C528 C530 1.391 . S
C529 C528 1.386 . S
C529 C533 1.393 1_554 S
C530 H522 0.950 . S
C530 C528 1.391 . S
C530 C531 1.400 . S
C531 C530 1.400 . S
C531 C532 1.398 1_554 S
C531 C537 1.491 1_565 S
C532 H523 0.950 . S
C532 C531 1.398 1_556 S
C532 C533 1.391 . S
C533 H521 0.950 . S
C533 C529 1.393 1_556 S
C533 C532 1.391 . S
C534 H524 0.950 . S
C534 C535 1.386 1_556 S
C534 C536 1.391 . S
C535 C534 1.386 1_554 S
C535 C539 1.393 . S
C536 H525 0.950 . S
C536 C534 1.391 . S
C536 C537 1.400 1_556 S
C537 C531 1.491 1_545 S
C537 C536 1.400 1_554 S
C537 C538 1.398 . S
C538 H526 0.950 . S
C538 C537 1.398 . S
C538 C539 1.391 . S
C539 H527 0.950 . S
C539 C535 1.393 . S
C539 C538 1.391 . S
H540 C548 0.950 . S
H541 C553 0.950 . S
H542 C550 0.950 . S
H543 C552 0.950 . S
H544 C554 0.950 . S
H545 C556 0.950 . S
H546 C558 0.950 . S
H547 C559 0.950 . S
C548 H540 0.950 . S
C548 C549 1.386 . S
C548 C550 1.391 . S
C549 C548 1.386 . S
C549 C553 1.393 . S
C550 H542 0.950 . S
C550 C548 1.391 . S
C550 C551 1.400 . S
C551 C550 1.400 . S
C551 C552 1.398 . S
C551 C557 1.491 1_545 S
C552 H543 0.950 . S
C552 C551 1.398 . S
C552 C553 1.391 . S
C553 H541 0.950 . S
C553 C549 1.393 . S
C553 C552 1.391 . S
C554 H544 0.950 . S
C554 C555 1.386 . S
C554 C556 1.391 . S
C555 C554 1.386 . S
C555 C559 1.393 . S
C556 H545 0.950 . S
C556 C554 1.391 . S
C556 C557 1.400 . S
C557 C551 1.491 1_565 S
C557 C556 1.400 . S
C557 C558 1.398 . S
C558 H546 0.950 . S
C558 C557 1.398 . S
C558 C559 1.391 . S
C559 H547 0.950 . S
C559 C555 1.393 . S
C559 C558 1.391 . S
H560 C568 0.950 . S
H561 C573 0.950 . S
H562 C570 0.950 . S
H563 C572 0.950 . S
H564 C574 0.950 . S
H565 C576 0.950 . S
H566 C578 0.950 . S
H567 C579 0.950 . S
C568 H560 0.950 . S
C568 C569 1.386 . S
C568 C570 1.391 . S
C569 C568 1.386 . S
C569 C573 1.393 1_554 S
C570 H562 0.950 . S
C570 C568 1.391 . S
C570 C571 1.400 . S
C571 C570 1.400 . S
C571 C572 1.398 1_554 S
C571 C577 1.491 . S
C572 H563 0.950 . S
C572 C571 1.398 1_556 S
C572 C573 1.391 . S
C573 H561 0.950 . S
C573 C569 1.393 1_556 S
C573 C572 1.391 . S
C574 H564 0.950 . S
C574 C575 1.386 1_556 S
C574 C576 1.391 . S
C575 C574 1.386 1_554 S
C575 C579 1.393 . S
C576 H565 0.950 . S
C576 C574 1.391 . S
C576 C577 1.400 1_556 S
C577 C571 1.491 . S
C577 C576 1.400 1_554 S
C577 C578 1.398 . S
C578 H566 0.950 . S
C578 C577 1.398 . S
C578 C579 1.391 . S
C579 H567 0.950 . S
C579 C575 1.393 . S
C579 C578 1.391 . S
H580 C588 0.950 . S
H581 C593 0.950 . S
H582 C590 0.950 . S
H583 C592 0.950 . S
H584 C594 0.950 . S
H585 C596 0.950 . S
H586 C598 0.950 . S
H587 C599 0.950 . S
C588 H580 0.950 . S
C588 C589 1.386 . S
C588 C590 1.391 . S
C589 C588 1.386 . S
C589 C593 1.393 1_554 S
C590 H582 0.950 . S
C590 C588 1.391 . S
C590 C591 1.400 . S
C591 C590 1.400 . S
C591 C592 1.398 1_554 S
C591 C597 1.491 . S
C592 H583 0.950 . S
C592 C591 1.398 1_556 S
C592 C593 1.391 . S
C593 H581 0.950 . S
C593 C589 1.393 1_556 S
C593 C592 1.391 . S
C594 H584 0.950 . S
C594 C595 1.386 1_556 S
C594 C596 1.391 . S
C595 C594 1.386 1_554 S
C595 C599 1.393 . S
C596 H585 0.950 . S
C596 C594 1.391 . S
C596 C597 1.400 1_556 S
C597 C591 1.491 . S
C597 C596 1.400 1_554 S
C597 C598 1.398 . S
C598 H586 0.950 . S
C598 C597 1.398 . S
C598 C599 1.391 . S
C599 H587 0.950 . S
C599 C595 1.393 . S
C599 C598 1.391 . S
H600 C608 0.950 . S
H601 C613 0.950 . S
H602 C610 0.950 . S
H603 C612 0.950 . S
H604 C614 0.950 . S
H605 C616 0.950 . S
H606 C618 0.950 . S
H607 C619 0.950 . S
C608 H600 0.950 . S
C608 C609 1.386 . S
C608 C610 1.391 . S
C609 C608 1.386 . S
C609 C613 1.393 . S
C610 H602 0.950 . S
C610 C608 1.391 . S
C610 C611 1.400 . S
C611 C610 1.400 . S
C611 C612 1.398 . S
C611 C617 1.491 . S
C612 H603 0.950 . S
C612 C611 1.398 . S
C612 C613 1.391 . S
C613 H601 0.950 . S
C613 C609 1.393 . S
C613 C612 1.391 . S
C614 H604 0.950 . S
C614 C615 1.386 . S
C614 C616 1.391 . S
C615 C614 1.386 . S
C615 C619 1.393 . S
C616 H605 0.950 . S
C616 C614 1.391 . S
C616 C617 1.400 . S
C617 C611 1.491 . S
C617 C616 1.400 . S
C617 C618 1.398 . S
C618 H606 0.950 . S
C618 C617 1.398 . S
C618 C619 1.391 . S
C619 H607 0.950 . S
C619 C615 1.393 . S
C619 C618 1.391 . S
H620 C628 0.950 . S
H621 C633 0.950 . S
H622 C630 0.950 . S
H623 C632 0.950 . S
H624 C634 0.950 . S
H625 C636 0.950 . S
H626 C638 0.950 . S
H627 C639 0.950 . S
C628 H620 0.950 . S
C628 C629 1.386 . S
C628 C630 1.391 . S
C629 C628 1.386 . S
C629 C633 1.393 . S
C630 H622 0.950 . S
C630 C628 1.391 . S
C630 C631 1.400 . S
C631 C630 1.400 . S
C631 C632 1.398 . S
C631 C637 1.491 . S
C632 H623 0.950 . S
C632 C631 1.398 . S
C632 C633 1.391 . S
C633 H621 0.950 . S
C633 C629 1.393 . S
C633 C632 1.391 . S
C634 H624 0.950 . S
C634 C635 1.386 . S
C634 C636 1.391 . S
C635 C634 1.386 . S
C635 C639 1.393 . S
C636 H625 0.950 . S
C636 C634 1.391 . S
C636 C637 1.400 . S
C637 C631 1.491 . S
C637 C636 1.400 . S
C637 C638 1.398 . S
C638 H626 0.950 . S
C638 C637 1.398 . S
C638 C639 1.391 . S
C639 H627 0.950 . S
C639 C635 1.393 . S
C639 C638 1.391 . S
H640 C648 0.950 . S
H641 C653 0.950 . S
H642 C650 0.950 . S
H643 C652 0.950 . S
H644 C654 0.950 . S
H645 C656 0.950 . S
H646 C658 0.950 . S
H647 C659 0.950 . S
C648 H640 0.950 . S
C648 C649 1.386 1_655 S
C648 C650 1.391 . S
C649 C648 1.386 1_455 S
C649 C653 1.393 . S
C650 H642 0.950 . S
C650 C648 1.391 . S
C650 C651 1.400 1_655 S
C651 C650 1.400 1_455 S
C651 C652 1.398 . S
C651 C657 1.491 1_455 S
C652 H643 0.950 . S
C652 C651 1.398 . S
C652 C653 1.391 . S
C653 H641 0.950 . S
C653 C649 1.393 . S
C653 C652 1.391 . S
C654 H644 0.950 . S
C654 C655 1.386 1_455 S
C654 C656 1.391 . S
C655 C654 1.386 1_655 S
C655 C659 1.393 . S
C656 H645 0.950 . S
C656 C654 1.391 . S
C656 C657 1.400 1_455 S
C657 C651 1.491 1_655 S
C657 C656 1.400 1_655 S
C657 C658 1.398 . S
C658 H646 0.950 . S
C658 C657 1.398 . S
C658 C659 1.391 . S
C659 H647 0.950 . S
C659 C655 1.393 . S
C659 C658 1.391 . S
H660 C668 0.950 . S
H661 C673 0.950 . S
H662 C670 0.950 1_455 S
H663 C672 0.950 . S
H664 C674 0.950 . S
H665 C676 0.950 1_655 S
H666 C678 0.950 . S
H667 C679 0.950 . S
C668 H660 0.950 . S
C668 C669 1.386 . S
C668 C670 1.391 . S
C669 C668 1.386 . S
C669 C673 1.393 . S
C670 H662 0.950 1_655 S
C670 C668 1.391 . S
C670 C671 1.400 . S
C671 C670 1.400 . S
C671 C672 1.398 . S
C671 C677 1.491 1_655 S
C672 H663 0.950 . S
C672 C671 1.398 . S
C672 C673 1.391 . S
C673 H661 0.950 . S
C673 C669 1.393 . S
C673 C672 1.391 . S
C674 H664 0.950 . S
C674 C675 1.386 . S
C674 C676 1.391 . S
C675 C674 1.386 . S
C675 C679 1.393 . S
C676 H665 0.950 1_455 S
C676 C674 1.391 . S
C676 C677 1.400 . S
C677 C671 1.491 1_455 S
C677 C676 1.400 . S
C677 C678 1.398 . S
C678 H666 0.950 . S
C678 C677 1.398 . S
C678 C679 1.391 . S
C679 H667 0.950 . S
C679 C675 1.393 . S
C679 C678 1.391 . S
H680 C688 0.950 . S
H681 C693 0.950 . S
H682 C690 0.950 . S
H683 C692 0.950 . S
H684 C694 0.950 . S
H685 C696 0.950 . S
H686 C698 0.950 . S
H687 C699 0.950 . S
C688 H680 0.950 . S
C688 C689 1.386 1_455 S
C688 C690 1.391 . S
C689 C688 1.386 1_655 S
C689 C693 1.393 . S
C690 H682 0.950 . S
C690 C688 1.391 . S
C690 C691 1.400 1_455 S
C691 C690 1.400 1_655 S
C691 C692 1.398 . S
C691 C697 1.491 1_655 S
C692 H683 0.950 . S
C692 C691 1.398 . S
C692 C693 1.391 . S
C693 H681 0.950 . S
C693 C689 1.393 . S
C693 C692 1.391 . S
C694 H684 0.950 . S
C694 C695 1.386 1_655 S
C694 C696 1.391 . S
C695 C694 1.386 1_455 S
C695 C699 1.393 . S
C696 H685 0.950 . S
C696 C694 1.391 . S
C696 C697 1.400 1_655 S
C697 C691 1.491 1_455 S
C697 C696 1.400 1_455 S
C697 C698 1.398 . S
C698 H686 0.950 . S
C698 C697 1.398 . S
C698 C699 1.391 . S
C699 H687 0.950 . S
C699 C695 1.393 . S
C699 C698 1.391 . S
H700 C708 0.950 . S
H701 C713 0.950 . S
H702 C710 0.950 . S
H703 C712 0.950 . S
H704 C714 0.950 . S
H705 C716 0.950 . S
H706 C718 0.950 . S
H707 C719 0.950 . S
C708 H700 0.950 . S
C708 C709 1.386 . S
C708 C710 1.391 . S
C709 C708 1.386 . S
C709 C713 1.393 . S
C710 H702 0.950 . S
C710 C708 1.391 . S
C710 C711 1.400 . S
C711 C710 1.400 . S
C711 C712 1.398 . S
C711 C717 1.491 1_655 S
C712 H703 0.950 . S
C712 C711 1.398 . S
C712 C713 1.391 . S
C713 H701 0.950 . S
C713 C709 1.393 . S
C713 C712 1.391 . S
C714 H704 0.950 . S
C714 C715 1.386 . S
C714 C716 1.391 . S
C715 C714 1.386 . S
C715 C719 1.393 . S
C716 H705 0.950 . S
C716 C714 1.391 . S
C716 C717 1.400 . S
C717 C711 1.491 1_455 S
C717 C716 1.400 . S
C717 C718 1.398 . S
C718 H706 0.950 . S
C718 C717 1.398 . S
C718 C719 1.391 . S
C719 H707 0.950 . S
C719 C715 1.393 . S
C719 C718 1.391 . S
H720 C728 0.950 . S
H721 C733 0.950 . S
H722 C730 0.950 . S
H723 C732 0.950 . S
H724 C734 0.950 . S
H725 C736 0.950 . S
H726 C738 0.950 . S
H727 C739 0.950 . S
C728 H720 0.950 . S
C728 C729 1.386 . S
C728 C730 1.391 . S
C729 C728 1.386 . S
C729 C733 1.393 . S
C730 H722 0.950 . S
C730 C728 1.391 . S
C730 C731 1.400 . S
C731 C730 1.400 . S
C731 C732 1.398 . S
C731 C737 1.491 . S
C732 H723 0.950 . S
C732 C731 1.398 . S
C732 C733 1.391 . S
C733 H721 0.950 . S
C733 C729 1.393 . S
C733 C732 1.391 . S
C734 H724 0.950 . S
C734 C735 1.386 . S
C734 C736 1.391 . S
C735 C734 1.386 . S
C735 C739 1.393 . S
C736 H725 0.950 . S
C736 C734 1.391 . S
C736 C737 1.400 . S
C737 C731 1.491 . S
C737 C736 1.400 . S
C737 C738 1.398 . S
C738 H726 0.950 . S
C738 C737 1.398 . S
C738 C739 1.391 . S
C739 H727 0.950 . S
C739 C735 1.393 . S
C739 C738 1.391 . S
H740 C748 0.950 . S
H741 C753 0.950 . S
H742 C750 0.950 . S
H743 C752 0.950 . S
H744 C754 0.950 . S
H745 C756 0.950 . S
H746 C758 0.950 . S
H747 C759 0.950 . S
C748 H740 0.950 . S
C748 C749 1.386 . S
C748 C750 1.391 . S
C749 C748 1.386 . S
C749 C753 1.393 . S
C750 H742 0.950 . S
C750 C748 1.391 . S
C750 C751 1.400 . S
C751 C750 1.400 . S
C751 C752 1.398 . S
C751 C757 1.491 . S
C752 H743 0.950 . S
C752 C751 1.398 . S
C752 C753 1.391 . S
C753 H741 0.950 . S
C753 C749 1.393 . S
C753 C752 1.391 . S
C754 H744 0.950 . S
C754 C755 1.386 . S
C754 C756 1.391 . S
C755 C754 1.386 . S
C755 C759 1.393 . S
C756 H745 0.950 . S
C756 C754 1.391 . S
C756 C757 1.400 . S
C757 C751 1.491 . S
C757 C756 1.400 . S
C757 C758 1.398 . S
C758 H746 0.950 . S
C758 C757 1.398 . S
C758 C759 1.391 . S
C759 H747 0.950 . S
C759 C755 1.393 . S
C759 C758 1.391 . S
H760 C768 0.950 . S
H761 C773 0.950 . S
H762 C770 0.950 . S
H763 C772 0.950 . S
H764 C774 0.950 . S
H765 C776 0.950 . S
H766 C778 0.950 . S
H767 C779 0.950 . S
C768 H760 0.950 . S
C768 C769 1.386 . S
C768 C770 1.391 . S
C769 C768 1.386 . S
C769 C773 1.393 . S
C770 H762 0.950 . S
C770 C768 1.391 . S
C770 C771 1.400 . S
C771 C770 1.400 . S
C771 C772 1.398 . S
C771 C777 1.491 . S
C772 H763 0.950 . S
C772 C771 1.398 . S
C772 C773 1.391 . S
C773 H761 0.950 . S
C773 C769 1.393 . S
C773 C772 1.391 . S
C774 H764 0.950 . S
C774 C775 1.386 . S
C774 C776 1.391 . S
C775 C774 1.386 . S
C775 C779 1.393 . S
C776 H765 0.950 . S
C776 C774 1.391 . S
C776 C777 1.400 . S
C777 C771 1.491 . S
C777 C776 1.400 . S
C777 C778 1.398 . S
C778 H766 0.950 . S
C778 C777 1.398 . S
C778 C779 1.391 . S
C779 H767 0.950 . S
C779 C775 1.393 . S
C779 C778 1.391 . S
H780 C788 0.950 . S
H781 C793 0.950 . S
H782 C790 0.950 . S
H783 C792 0.950 . S
H784 C794 0.950 . S
H785 C796 0.950 . S
H786 C798 0.950 . S
H787 C799 0.950 . S
C788 H780 0.950 . S
C788 C789 1.386 . S
C788 C790 1.391 . S
C789 C788 1.386 . S
C789 C793 1.393 . S
C790 H782 0.950 . S
C790 C788 1.391 . S
C790 C791 1.400 . S
C791 C790 1.400 . S
C791 C792 1.398 . S
C791 C797 1.491 . S
C792 H783 0.950 . S
C792 C791 1.398 . S
C792 C793 1.391 . S
C793 H781 0.950 . S
C793 C789 1.393 . S
C793 C792 1.391 . S
C794 H784 0.950 . S
C794 C795 1.386 . S
C794 C796 1.391 . S
C795 C794 1.386 . S
C795 C799 1.393 . S
C796 H785 0.950 . S
C796 C794 1.391 . S
C796 C797 1.400 . S
C797 C791 1.491 . S
C797 C796 1.400 . S
C797 C798 1.398 . S
C798 H786 0.950 . S
C798 C797 1.398 . S
C798 C799 1.391 . S
C799 H787 0.950 . S
C799 C795 1.393 . S
C799 C798 1.391 . S
C329 C19 2.319 . S
C335 C10 2.319 . S
C349 C59 2.317 . S
C355 C50 2.317 . S
C369 C99 2.321 . S
C375 C90 2.321 . S
C389 C139 2.320 . S
C395 C130 2.320 . S
C409 C179 2.309 . S
C415 C170 2.309 . S
C429 C210 2.318 . S
C435 C219 2.318 . S
C449 C259 2.320 . S
C455 C250 2.320 . S
C469 C290 2.322 . S
C475 C299 2.322 . S
C489 C55 2.616 . S
C495 C6 2.616 . S
C509 C126 2.631 . S
C515 C95 2.631 . S
C529 C166 2.608 . S
C535 C215 2.608 . S
C549 C255 2.631 . S
C555 C286 2.631 . S
C569 C15 1.826 . S
C575 C206 1.826 . S
C589 C175 1.823 . S
C595 C46 1.823 . S
C609 C86 1.836 . S
C615 C295 1.836 . S
C629 C135 1.834 . S
C635 C246 1.834 . S
C649 C9 1.488 . S
C655 C129 1.471 . S
C669 C49 1.595 . S
C675 C89 1.596 . S
C689 C58 1.467 . S
C695 C98 1.486 . S
C709 C138 1.582 . S
C715 C18 1.580 . S
C729 C169 1.485 . S
C735 C289 1.466 . S
C749 C209 1.586 . S
C755 C249 1.578 . S
C769 C218 1.470 . S
C775 C258 1.480 . S
C789 C298 1.587 . S
C795 C178 1.602 . S
