# Generated by pormake.
# Topology unl, (4)-cn, num edge types: 1
# Building blocks:
#     Node 0, Type 0, BuildingBlock: AZAVOO_clean_sbu_0, # of connection points: 4
#     Node 1, Type 0, BuildingBlock: AZAVOO_clean_sbu_0, # of connection points: 4
#     Node 2, Type 0, BuildingBlock: AZAVOO_clean_sbu_0, # of connection points: 4
#     Node 3, Type 0, BuildingBlock: AZAVOO_clean_sbu_0, # of connection points: 4
#     Node 4, Type 0, BuildingBlock: AZAVOO_clean_sbu_0, # of connection points: 4
#     Node 5, Type 0, BuildingBlock: AZAVOO_clean_sbu_0, # of connection points: 4
#     Node 6, Type 0, BuildingBlock: AZAVOO_clean_sbu_0, # of connection points: 4
#     Node 7, Type 0, BuildingBlock: AZAVOO_clean_sbu_0, # of connection points: 4
#     Node 8, Type 0, BuildingBlock: AZAVOO_clean_sbu_0, # of connection points: 4
#     Node 9, Type 0, BuildingBlock: AZAVOO_clean_sbu_0, # of connection points: 4
#     Node 10, Type 0, BuildingBlock: AZAVOO_clean_sbu_0, # of connection points: 4
#     Node 11, Type 0, BuildingBlock: AZAVOO_clean_sbu_0, # of connection points: 4
#     Node 12, Type 0, BuildingBlock: AZAVOO_clean_sbu_0, # of connection points: 4
#     Node 13, Type 0, BuildingBlock: AZAVOO_clean_sbu_0, # of connection points: 4
#     Node 14, Type 0, BuildingBlock: AZAVOO_clean_sbu_0, # of connection points: 4
#     Node 15, Type 0, BuildingBlock: AZAVOO_clean_sbu_0, # of connection points: 4
#     Node 16, Type 0, BuildingBlock: AZAVOO_clean_sbu_0, # of connection points: 4
#     Node 17, Type 0, BuildingBlock: AZAVOO_clean_sbu_0, # of connection points: 4
#     Node 18, Type 0, BuildingBlock: AZAVOO_clean_sbu_0, # of connection points: 4
#     Node 19, Type 0, BuildingBlock: AZAVOO_clean_sbu_0, # of connection points: 4
#     Node 20, Type 0, BuildingBlock: AZAVOO_clean_sbu_0, # of connection points: 4
#     Node 21, Type 0, BuildingBlock: AZAVOO_clean_sbu_0, # of connection points: 4
#     Node 22, Type 0, BuildingBlock: AZAVOO_clean_sbu_0, # of connection points: 4
#     Node 23, Type 0, BuildingBlock: AZAVOO_clean_sbu_0, # of connection points: 4
#     Node 24, Type 0, BuildingBlock: AZAVOO_clean_sbu_0, # of connection points: 4
#     Node 25, Type 0, BuildingBlock: AZAVOO_clean_sbu_0, # of connection points: 4
#     Node 26, Type 0, BuildingBlock: AZAVOO_clean_sbu_0, # of connection points: 4
#     Node 27, Type 0, BuildingBlock: AZAVOO_clean_sbu_0, # of connection points: 4
#     Node 28, Type 0, BuildingBlock: AZAVOO_clean_sbu_0, # of connection points: 4
#     Node 29, Type 0, BuildingBlock: AZAVOO_clean_sbu_0, # of connection points: 4
#     Node 30, Type 0, BuildingBlock: AZAVOO_clean_sbu_0, # of connection points: 4
#     Node 31, Type 0, BuildingBlock: AZAVOO_clean_sbu_0, # of connection points: 4
#     Node 32, Type 0, BuildingBlock: AZAVOO_clean_sbu_0, # of connection points: 4
#     Node 33, Type 0, BuildingBlock: AZAVOO_clean_sbu_0, # of connection points: 4
#     Node 34, Type 0, BuildingBlock: AZAVOO_clean_sbu_0, # of connection points: 4
#     Node 35, Type 0, BuildingBlock: AZAVOO_clean_sbu_0, # of connection points: 4
#     Edge 36, Type (0, 0), BuildingBlock: ZUJKAS_clean_linker_0, # of connection points: 2
#     Edge 37, Type (0, 0), BuildingBlock: ZUJKAS_clean_linker_0, # of connection points: 2
#     Edge 38, Type (0, 0), BuildingBlock: ZUJKAS_clean_linker_0, # of connection points: 2
#     Edge 39, Type (0, 0), BuildingBlock: ZUJKAS_clean_linker_0, # of connection points: 2
#     Edge 40, Type (0, 0), BuildingBlock: ZUJKAS_clean_linker_0, # of connection points: 2
#     Edge 41, Type (0, 0), BuildingBlock: ZUJKAS_clean_linker_0, # of connection points: 2
#     Edge 42, Type (0, 0), BuildingBlock: ZUJKAS_clean_linker_0, # of connection points: 2
#     Edge 43, Type (0, 0), BuildingBlock: ZUJKAS_clean_linker_0, # of connection points: 2
#     Edge 44, Type (0, 0), BuildingBlock: ZUJKAS_clean_linker_0, # of connection points: 2
#     Edge 45, Type (0, 0), BuildingBlock: ZUJKAS_clean_linker_0, # of connection points: 2
#     Edge 46, Type (0, 0), BuildingBlock: ZUJKAS_clean_linker_0, # of connection points: 2
#     Edge 47, Type (0, 0), BuildingBlock: ZUJKAS_clean_linker_0, # of connection points: 2
#     Edge 48, Type (0, 0), BuildingBlock: ZUJKAS_clean_linker_0, # of connection points: 2
#     Edge 49, Type (0, 0), BuildingBlock: ZUJKAS_clean_linker_0, # of connection points: 2
#     Edge 50, Type (0, 0), BuildingBlock: ZUJKAS_clean_linker_0, # of connection points: 2
#     Edge 51, Type (0, 0), BuildingBlock: ZUJKAS_clean_linker_0, # of connection points: 2
#     Edge 52, Type (0, 0), BuildingBlock: ZUJKAS_clean_linker_0, # of connection points: 2
#     Edge 53, Type (0, 0), BuildingBlock: ZUJKAS_clean_linker_0, # of connection points: 2
#     Edge 54, Type (0, 0), BuildingBlock: ZUJKAS_clean_linker_0, # of connection points: 2
#     Edge 55, Type (0, 0), BuildingBlock: ZUJKAS_clean_linker_0, # of connection points: 2
#     Edge 56, Type (0, 0), BuildingBlock: ZUJKAS_clean_linker_0, # of connection points: 2
#     Edge 57, Type (0, 0), BuildingBlock: ZUJKAS_clean_linker_0, # of connection points: 2
#     Edge 58, Type (0, 0), BuildingBlock: ZUJKAS_clean_linker_0, # of connection points: 2
#     Edge 59, Type (0, 0), BuildingBlock: ZUJKAS_clean_linker_0, # of connection points: 2
#     Edge 60, Type (0, 0), BuildingBlock: ZUJKAS_clean_linker_0, # of connection points: 2
#     Edge 61, Type (0, 0), BuildingBlock: ZUJKAS_clean_linker_0, # of connection points: 2
#     Edge 62, Type (0, 0), BuildingBlock: ZUJKAS_clean_linker_0, # of connection points: 2
#     Edge 63, Type (0, 0), BuildingBlock: ZUJKAS_clean_linker_0, # of connection points: 2
#     Edge 64, Type (0, 0), BuildingBlock: ZUJKAS_clean_linker_0, # of connection points: 2
#     Edge 65, Type (0, 0), BuildingBlock: ZUJKAS_clean_linker_0, # of connection points: 2
#     Edge 66, Type (0, 0), BuildingBlock: ZUJKAS_clean_linker_0, # of connection points: 2
#     Edge 67, Type (0, 0), BuildingBlock: ZUJKAS_clean_linker_0, # of connection points: 2
#     Edge 68, Type (0, 0), BuildingBlock: ZUJKAS_clean_linker_0, # of connection points: 2
#     Edge 69, Type (0, 0), BuildingBlock: ZUJKAS_clean_linker_0, # of connection points: 2
#     Edge 70, Type (0, 0), BuildingBlock: ZUJKAS_clean_linker_0, # of connection points: 2
#     Edge 71, Type (0, 0), BuildingBlock: ZUJKAS_clean_linker_0, # of connection points: 2
#     Edge 72, Type (0, 0), BuildingBlock: ZUJKAS_clean_linker_0, # of connection points: 2
#     Edge 73, Type (0, 0), BuildingBlock: ZUJKAS_clean_linker_0, # of connection points: 2
#     Edge 74, Type (0, 0), BuildingBlock: ZUJKAS_clean_linker_0, # of connection points: 2
#     Edge 75, Type (0, 0), BuildingBlock: ZUJKAS_clean_linker_0, # of connection points: 2
#     Edge 76, Type (0, 0), BuildingBlock: ZUJKAS_clean_linker_0, # of connection points: 2
#     Edge 77, Type (0, 0), BuildingBlock: ZUJKAS_clean_linker_0, # of connection points: 2
#     Edge 78, Type (0, 0), BuildingBlock: ZUJKAS_clean_linker_0, # of connection points: 2
#     Edge 79, Type (0, 0), BuildingBlock: ZUJKAS_clean_linker_0, # of connection points: 2
#     Edge 80, Type (0, 0), BuildingBlock: ZUJKAS_clean_linker_0, # of connection points: 2
#     Edge 81, Type (0, 0), BuildingBlock: ZUJKAS_clean_linker_0, # of connection points: 2
#     Edge 82, Type (0, 0), BuildingBlock: ZUJKAS_clean_linker_0, # of connection points: 2
#     Edge 83, Type (0, 0), BuildingBlock: ZUJKAS_clean_linker_0, # of connection points: 2
#     Edge 84, Type (0, 0), BuildingBlock: ZUJKAS_clean_linker_0, # of connection points: 2
#     Edge 85, Type (0, 0), BuildingBlock: ZUJKAS_clean_linker_0, # of connection points: 2
#     Edge 86, Type (0, 0), BuildingBlock: ZUJKAS_clean_linker_0, # of connection points: 2
#     Edge 87, Type (0, 0), BuildingBlock: ZUJKAS_clean_linker_0, # of connection points: 2
#     Edge 88, Type (0, 0), BuildingBlock: ZUJKAS_clean_linker_0, # of connection points: 2
#     Edge 89, Type (0, 0), BuildingBlock: ZUJKAS_clean_linker_0, # of connection points: 2
#     Edge 90, Type (0, 0), BuildingBlock: ZUJKAS_clean_linker_0, # of connection points: 2
#     Edge 91, Type (0, 0), BuildingBlock: ZUJKAS_clean_linker_0, # of connection points: 2
#     Edge 92, Type (0, 0), BuildingBlock: ZUJKAS_clean_linker_0, # of connection points: 2
#     Edge 93, Type (0, 0), BuildingBlock: ZUJKAS_clean_linker_0, # of connection points: 2
#     Edge 94, Type (0, 0), BuildingBlock: ZUJKAS_clean_linker_0, # of connection points: 2
#     Edge 95, Type (0, 0), BuildingBlock: ZUJKAS_clean_linker_0, # of connection points: 2
#     Edge 96, Type (0, 0), BuildingBlock: ZUJKAS_clean_linker_0, # of connection points: 2
#     Edge 97, Type (0, 0), BuildingBlock: ZUJKAS_clean_linker_0, # of connection points: 2
#     Edge 98, Type (0, 0), BuildingBlock: ZUJKAS_clean_linker_0, # of connection points: 2
#     Edge 99, Type (0, 0), BuildingBlock: ZUJKAS_clean_linker_0, # of connection points: 2
#     Edge 100, Type (0, 0), BuildingBlock: ZUJKAS_clean_linker_0, # of connection points: 2
#     Edge 101, Type (0, 0), BuildingBlock: ZUJKAS_clean_linker_0, # of connection points: 2
#     Edge 102, Type (0, 0), BuildingBlock: ZUJKAS_clean_linker_0, # of connection points: 2
#     Edge 103, Type (0, 0), BuildingBlock: ZUJKAS_clean_linker_0, # of connection points: 2
#     Edge 104, Type (0, 0), BuildingBlock: ZUJKAS_clean_linker_0, # of connection points: 2
#     Edge 105, Type (0, 0), BuildingBlock: ZUJKAS_clean_linker_0, # of connection points: 2
#     Edge 106, Type (0, 0), BuildingBlock: ZUJKAS_clean_linker_0, # of connection points: 2
#     Edge 107, Type (0, 0), BuildingBlock: ZUJKAS_clean_linker_0, # of connection points: 2
# Relax obj value: 0.207
# Max RMSD: 0.223
# Mean RMSD: 0.217
data_MOF--net-unl--node1-AZAVOO_clean_sbu_0--edge1-ZUJKAS_clean_linker_0
_symmetry_space_group_name_H-M    P1
_symmetry_Int_Tables_number       1
_symmetry_cell_setting            triclinic
loop_
_symmetry_equiv_pos_as_xyz
'x, y, z'
_cell_length_a     83.075436
_cell_length_b     82.367118
_cell_length_c     48.784669
_cell_angle_alpha  90.673716
_cell_angle_beta   89.995085
_cell_angle_gamma 120.29006
loop_
_atom_site_label
_atom_site_type_symbol
_atom_site_fract_x
_atom_site_fract_y
_atom_site_fract_z
_atom_type_partial_charge
Mg0 Mg 0.20458 0.10177 0.08366 0.0
O1 O 0.18346 0.09673 0.11777 0.0
O2 O 0.15528 0.08387 0.0981 0.0
Mg3 Mg 0.1581 0.08079 0.05225 0.0
C4 C 0.16585 0.08995 0.11922 0.0
C5 C 0.2428 0.12227 0.10922 0.0
O6 O 0.24396 0.131 0.08629 0.0
O7 O 0.19509 0.07039 0.08091 0.0
O8 O 0.16716 0.05933 0.06089 0.0
O9 O 0.20778 0.12995 0.07594 0.0
O10 O 0.18721 0.10375 0.05476 0.0
C11 C 0.17994 0.05687 0.07098 0.0
C12 C 0.19403 0.12151 0.05878 0.0
O13 O 0.22725 0.10799 0.11532 0.0
Mg14 Mg 0.92538 0.11253 0.17313 0.0
O15 O 0.90358 0.08579 0.15037 0.0
O16 O 0.88279 0.06627 0.1806 0.0
Mg17 Mg 0.89061 0.08112 0.22242 0.0
C18 C 0.88904 0.07019 0.1562 0.0
C19 C 0.95463 0.13488 0.12986 0.0
O20 O 0.96458 0.13522 0.15103 0.0
O21 O 0.90443 0.1227 0.1749 0.0
O22 O 0.8841 0.10311 0.20554 0.0
O23 O 0.94131 0.09806 0.18181 0.0
O24 O 0.91978 0.0974 0.20921 0.0
C25 C 0.8896 0.11683 0.18904 0.0
C26 C 0.93079 0.09118 0.20308 0.0
O27 O 0.93701 0.1267 0.1322 0.0
Mg28 Mg 0.91066 0.81628 0.14503 0.0
O29 O 0.93101 0.81511 0.11453 0.0
O30 O 0.94889 0.80622 0.13629 0.0
Mg31 Mg 0.93933 0.80093 0.18098 0.0
C32 C 0.94412 0.81129 0.1146 0.0
C33 C 0.88172 0.82285 0.11406 0.0
O34 O 0.8772 0.82382 0.13959 0.0
O35 O 0.89276 0.78422 0.14396 0.0
O36 O 0.91081 0.77631 0.16757 0.0
O37 O 0.93221 0.84581 0.15678 0.0
O38 O 0.92879 0.82051 0.17727 0.0
C39 C 0.89569 0.77185 0.15471 0.0
C40 C 0.93799 0.83849 0.17487 0.0
O41 O 0.89475 0.81938 0.10936 0.0
Mg42 Mg 0.09009 0.18177 0.35259 0.0
O43 O 0.11074 0.1815 0.38352 0.0
O44 O 0.13786 0.19079 0.36253 0.0
Mg45 Mg 0.13484 0.19796 0.31838 0.0
C46 C 0.12758 0.18504 0.38376 0.0
C47 C 0.05319 0.16524 0.38463 0.0
O48 O 0.0478 0.15517 0.36185 0.0
O49 O 0.10459 0.21376 0.3562 0.0
O50 O 0.13112 0.22229 0.33384 0.0
O51 O 0.0821 0.15257 0.33883 0.0
O52 O 0.10463 0.17848 0.32047 0.0
C53 C 0.12027 0.22641 0.34685 0.0
C54 C 0.09571 0.16043 0.32161 0.0
O55 O 0.07022 0.17789 0.38741 0.0
Mg56 Mg 0.81431 0.88644 0.3374 0.0
O57 O 0.81731 0.91232 0.36029 0.0
O58 O 0.81628 0.93196 0.33007 0.0
Mg59 Mg 0.81093 0.91768 0.28786 0.0
C60 C 0.81796 0.92774 0.3546 0.0
C61 C 0.82035 0.86349 0.38056 0.0
O62 O 0.82977 0.86284 0.35935 0.0
O63 O 0.78302 0.87502 0.33361 0.0
O64 O 0.7823 0.89461 0.30294 0.0
O65 O 0.845 0.90221 0.33045 0.0
O66 O 0.82424 0.90198 0.30179 0.0
C67 C 0.77404 0.88057 0.31889 0.0
C68 C 0.84143 0.90875 0.30872 0.0
O69 O 0.81128 0.87205 0.37825 0.0
Mg70 Mg 0.10362 0.89669 0.41213 0.0
O71 O 0.08726 0.90235 0.37929 0.0
O72 O 0.07095 0.91357 0.40042 0.0
Mg73 Mg 0.07627 0.91464 0.4464 0.0
C74 C 0.076 0.90863 0.37868 0.0
C75 C 0.1123 0.88055 0.36025 0.0
O76 O 0.09401 0.87188 0.35937 0.0
O77 O 0.12454 0.92821 0.41773 0.0
O78 O 0.10674 0.93726 0.43995 0.0
O79 O 0.07935 0.86768 0.418 0.0
O80 O 0.08373 0.89268 0.44143 0.0
C81 C 0.12233 0.94083 0.42973 0.0
C82 C 0.07345 0.87498 0.43621 0.0
O83 O 0.12088 0.89274 0.3791 0.0
Mg84 Mg 0.79739 0.9163 0.8794 0.0
O85 O 0.80492 0.89684 0.90239 0.0
O86 O 0.8011 0.87324 0.87504 0.0
Mg87 Mg 0.7891 0.8766 0.83476 0.0
C88 C 0.80584 0.88203 0.89801 0.0
C89 C 0.81591 0.93834 0.93186 0.0
O90 O 0.82842 0.93499 0.92093 0.0
O91 O 0.76625 0.89527 0.88533 0.0
O92 O 0.76303 0.87188 0.85772 0.0
O93 O 0.82623 0.93139 0.86229 0.0
O94 O 0.80225 0.90709 0.84196 0.0
C95 C 0.75634 0.87888 0.8746 0.0
C96 C 0.81984 0.91903 0.8426 0.0
O97 O 0.80026 0.93197 0.91976 0.0
Mg98 Mg 0.09022 0.88405 0.83973 0.0
O99 O 0.10918 0.90476 0.87305 0.0
O100 O 0.13575 0.9263 0.8537 0.0
Mg101 Mg 0.1335 0.91973 0.80763 0.0
C102 C 0.12544 0.91932 0.87472 0.0
C103 C 0.05428 0.85873 0.87136 0.0
O104 O 0.048 0.86314 0.84965 0.0
O105 O 0.10861 0.87069 0.83886 0.0
O106 O 0.1337 0.89272 0.81712 0.0
O107 O 0.07785 0.90217 0.83158 0.0
O108 O 0.10298 0.90537 0.81102 0.0
C109 C 0.12468 0.87664 0.82832 0.0
C110 C 0.09179 0.91164 0.81543 0.0
O111 O 0.07159 0.86443 0.87307 0.0
Mg112 Mg 0.08817 0.19978 0.84076 0.0
O113 O 0.06609 0.19533 0.87256 0.0
O114 O 0.04389 0.19884 0.85259 0.0
Mg115 Mg 0.05223 0.20603 0.80763 0.0
C116 C 0.05076 0.19538 0.8736 0.0
C117 C 0.11799 0.19472 0.87012 0.0
O118 O 0.11832 0.18876 0.84513 0.0
O119 O 0.09982 0.23134 0.8426 0.0
O120 O 0.07791 0.23432 0.82045 0.0
O121 O 0.07182 0.1694 0.82918 0.0
O122 O 0.0685 0.19161 0.80953 0.0
C123 C 0.09365 0.24149 0.83281 0.0
C124 C 0.06299 0.174 0.81195 0.0
O125 O 0.10717 0.20106 0.8752 0.0
Mg126 Mg 0.90001 0.80576 0.66147 0.0
O127 O 0.87974 0.80841 0.63289 0.0
O128 O 0.85487 0.80434 0.6561 0.0
Mg129 Mg 0.85902 0.79773 0.70028 0.0
C130 C 0.86408 0.80774 0.63388 0.0
C131 C 0.92323 0.79502 0.6213 0.0
O132 O 0.92097 0.78319 0.64081 0.0
O133 O 0.88141 0.7739 0.66092 0.0
O134 O 0.85717 0.77011 0.68583 0.0
O135 O 0.91269 0.8362 0.67244 0.0
O136 O 0.88952 0.81304 0.69503 0.0
C137 C 0.86564 0.76337 0.67214 0.0
C138 C 0.90035 0.8308 0.69165 0.0
O139 O 0.91611 0.80544 0.624 0.0
Mg140 Mg 0.20119 0.11241 0.66139 0.0
O141 O 0.19907 0.08972 0.63144 0.0
O142 O 0.20502 0.06999 0.65446 0.0
Mg143 Mg 0.20993 0.0795 0.69948 0.0
C144 C 0.20112 0.07538 0.63226 0.0
C145 C 0.18927 0.1351 0.6264 0.0
O146 O 0.17927 0.1318 0.6487 0.0
O147 O 0.23301 0.1262 0.6613 0.0
O148 O 0.2368 0.10591 0.68664 0.0
O149 O 0.171 0.09425 0.67142 0.0
O150 O 0.19386 0.09376 0.69375 0.0
C151 C 0.24348 0.12114 0.67314 0.0
C152 C 0.17623 0.08671 0.68993 0.0
O153 O 0.20097 0.12948 0.62516 0.0
Mg154 Mg 0.87809 0.08455 0.62377 0.0
O155 O 0.90449 0.1025 0.59866 0.0
O156 O 0.92483 0.12698 0.62424 0.0
Mg157 Mg 0.91095 0.12527 0.6654 0.0
C158 C 0.92034 0.11741 0.60193 0.0
C159 C 0.85603 0.05009 0.58651 0.0
O160 O 0.85593 0.0427 0.61028 0.0
O161 O 0.86851 0.10588 0.61705 0.0
O162 O 0.88886 0.1296 0.64391 0.0
O163 O 0.89156 0.06926 0.64113 0.0
O164 O 0.89338 0.09464 0.66005 0.0
C165 C 0.87487 0.12232 0.62754 0.0
C166 C 0.89851 0.08228 0.65991 0.0
O167 O 0.86366 0.06786 0.58498 0.0
Mg168 Mg 0.86945 0.43384 0.40792 0.0
O169 O 0.84859 0.42871 0.44237 0.0
O170 O 0.8205 0.41723 0.42288 0.0
Mg171 Mg 0.82328 0.41565 0.37664 0.0
C172 C 0.83107 0.42242 0.44401 0.0
C173 C 0.90758 0.45198 0.43324 0.0
O174 O 0.90917 0.46121 0.41066 0.0
O175 O 0.8587 0.40233 0.40279 0.0
O176 O 0.83132 0.39309 0.38212 0.0
O177 O 0.87417 0.46281 0.40249 0.0
O178 O 0.85275 0.43777 0.37999 0.0
C179 C 0.84359 0.3896 0.39154 0.0
C180 C 0.86041 0.45551 0.38519 0.0
O181 O 0.89171 0.4381 0.43913 0.0
Mg182 Mg 0.59281 0.44666 0.50362 0.0
O183 O 0.57093 0.42052 0.47997 0.0
O184 O 0.55014 0.40021 0.50945 0.0
Mg185 Mg 0.55797 0.41423 0.55194 0.0
C186 C 0.55641 0.40476 0.48515 0.0
C187 C 0.62193 0.46961 0.46045 0.0
O188 O 0.63201 0.46957 0.48118 0.0
O189 O 0.572 0.45694 0.50673 0.0
O190 O 0.55156 0.43668 0.53668 0.0
O191 O 0.6086 0.43184 0.51118 0.0
O192 O 0.58717 0.43096 0.53907 0.0
C193 C 0.55716 0.4508 0.52093 0.0
C194 C 0.59824 0.42488 0.53258 0.0
O195 O 0.60435 0.46151 0.46312 0.0
Mg196 Mg 0.57766 0.152 0.4889 0.0
O197 O 0.59867 0.15134 0.45905 0.0
O198 O 0.61578 0.14185 0.48164 0.0
Mg199 Mg 0.60558 0.13622 0.52596 0.0
C200 C 0.61165 0.14734 0.45976 0.0
C201 C 0.57012 0.16931 0.43766 0.0
O202 O 0.58783 0.18151 0.44218 0.0
O203 O 0.55996 0.11997 0.48686 0.0
O204 O 0.57741 0.1117 0.51127 0.0
O205 O 0.5989 0.18144 0.50147 0.0
O206 O 0.59531 0.15596 0.52162 0.0
C207 C 0.56263 0.10744 0.49763 0.0
C208 C 0.60452 0.17396 0.51953 0.0
O209 O 0.56182 0.15515 0.45315 0.0
Mg210 Mg 0.76419 0.5204 0.67939 0.0
O211 O 0.78444 0.51874 0.70961 0.0
O212 O 0.81119 0.52712 0.68807 0.0
Mg213 Mg 0.80818 0.53447 0.64402 0.0
C214 C 0.80104 0.52159 0.70945 0.0
C215 C 0.73833 0.50271 0.72926 0.0
O216 O 0.74334 0.49022 0.72394 0.0
O217 O 0.78019 0.55247 0.68313 0.0
O218 O 0.80604 0.55966 0.65972 0.0
O219 O 0.75452 0.49088 0.66533 0.0
O220 O 0.7778 0.51615 0.64678 0.0
C221 C 0.79595 0.56455 0.67324 0.0
C222 C 0.76806 0.49812 0.64794 0.0
O223 O 0.7449 0.51739 0.71472 0.0
Mg224 Mg 0.48272 0.22089 0.66644 0.0
O225 O 0.48644 0.24742 0.68821 0.0
O226 O 0.48529 0.26666 0.6574 0.0
Mg227 Mg 0.47957 0.25164 0.61574 0.0
C228 C 0.4872 0.26282 0.68204 0.0
C229 C 0.47024 0.18999 0.71235 0.0
O230 O 0.46061 0.17855 0.69205 0.0
O231 O 0.45148 0.20991 0.66295 0.0
O232 O 0.4509 0.22913 0.63149 0.0
O233 O 0.5133 0.236 0.6592 0.0
O234 O 0.49269 0.23585 0.63031 0.0
C235 C 0.44257 0.2154 0.64793 0.0
C236 C 0.50987 0.24253 0.63735 0.0
O237 O 0.47981 0.20755 0.70809 0.0
Mg238 Mg 0.7692 0.22822 0.75594 0.0
O239 O 0.75343 0.2346 0.72297 0.0
O240 O 0.73726 0.246 0.74404 0.0
Mg241 Mg 0.7421 0.24654 0.79004 0.0
C242 C 0.74241 0.24116 0.72231 0.0
C243 C 0.77782 0.21243 0.70371 0.0
O244 O 0.75957 0.20435 0.70236 0.0
O245 O 0.79046 0.25962 0.76203 0.0
O246 O 0.77268 0.26881 0.78398 0.0
O247 O 0.74457 0.19934 0.76099 0.0
O248 O 0.74904 0.22423 0.78482 0.0
C249 C 0.7883 0.27229 0.77399 0.0
C250 C 0.73858 0.20663 0.77909 0.0
O251 O 0.78646 0.22416 0.72306 0.0
Mg252 Mg 0.46376 0.24729 0.21438 0.0
O253 O 0.47307 0.2296 0.23857 0.0
O254 O 0.46861 0.2052 0.21246 0.0
Mg255 Mg 0.45531 0.20652 0.17231 0.0
C256 C 0.47412 0.21479 0.23473 0.0
C257 C 0.47709 0.28185 0.25187 0.0
O258 O 0.4844 0.28919 0.22808 0.0
O259 O 0.433 0.22588 0.22229 0.0
O260 O 0.42946 0.20187 0.19585 0.0
O261 O 0.49208 0.26267 0.19558 0.0
O262 O 0.46818 0.23714 0.17754 0.0
C263 C 0.42302 0.2092 0.21258 0.0
C264 C 0.48563 0.24961 0.17685 0.0
O265 O 0.4667 0.26411 0.25338 0.0
Mg266 Mg 0.7468 0.21429 0.16807 0.0
O267 O 0.76866 0.23774 0.19573 0.0
O268 O 0.7933 0.25736 0.1708 0.0
Mg269 Mg 0.78699 0.24642 0.12649 0.0
C270 C 0.78486 0.25224 0.1937 0.0
C271 C 0.72701 0.20766 0.22304 0.0
O272 O 0.73212 0.22516 0.21737 0.0
O273 O 0.765 0.20071 0.16736 0.0
O274 O 0.78828 0.22067 0.14053 0.0
O275 O 0.73431 0.23207 0.15867 0.0
O276 O 0.75688 0.23224 0.13457 0.0
C277 C 0.7803 0.20577 0.15484 0.0
C278 C 0.74649 0.23941 0.13936 0.0
O279 O 0.73115 0.19839 0.2063 0.0
Mg280 Mg 0.75569 0.53299 0.17293 0.0
O281 O 0.73309 0.52854 0.20361 0.0
O282 O 0.71121 0.53223 0.18296 0.0
Mg283 Mg 0.72045 0.53965 0.13832 0.0
C284 C 0.71779 0.52865 0.2042 0.0
C285 C 0.79116 0.5425 0.20931 0.0
O286 O 0.80045 0.55307 0.18852 0.0
O287 O 0.76756 0.5646 0.17501 0.0
O288 O 0.74605 0.56775 0.15197 0.0
O289 O 0.73942 0.50273 0.16098 0.0
O290 O 0.73662 0.5251 0.14081 0.0
C291 C 0.7616 0.57484 0.16486 0.0
C292 C 0.73097 0.50746 0.14325 0.0
O293 O 0.77346 0.53355 0.20863 0.0
Mg294 Mg 0.55551 0.13346 0.98906 0.0
O295 O 0.53556 0.13632 0.95979 0.0
O296 O 0.51038 0.13153 0.98294 0.0
Mg297 Mg 0.51458 0.12599 0.02755 0.0
C298 C 0.51965 0.13514 0.96074 0.0
C299 C 0.58007 0.12312 0.95128 0.0
O300 O 0.57816 0.11205 0.97171 0.0
O301 O 0.53656 0.10163 0.98882 0.0
O302 O 0.51265 0.09815 0.01424 0.0
O303 O 0.56895 0.16392 0.99964 0.0
O304 O 0.54505 0.14147 0.02196 0.0
C305 C 0.52095 0.09123 0.00051 0.0
C306 C 0.55641 0.15915 0.01845 0.0
O307 O 0.57202 0.13275 0.95239 0.0
Mg308 Mg 0.86268 0.44558 0.99955 0.0
O309 O 0.86175 0.42263 0.97135 0.0
O310 O 0.86715 0.40319 0.9961 0.0
Mg311 Mg 0.87119 0.41359 0.04065 0.0
C312 C 0.86382 0.40835 0.97323 0.0
C313 C 0.84953 0.45279 0.94498 0.0
O314 O 0.83716 0.43521 0.95025 0.0
O315 O 0.89447 0.45969 0.00084 0.0
O316 O 0.89812 0.43983 0.02743 0.0
O317 O 0.83238 0.42732 0.00839 0.0
O318 O 0.8548 0.42728 0.03263 0.0
C319 C 0.90487 0.45485 0.01342 0.0
C320 C 0.83724 0.41995 0.02763 0.0
O321 O 0.86297 0.46185 0.96176 0.0
Mg322 Mg 0.55148 0.42224 0.94795 0.0
O323 O 0.57905 0.44032 0.92532 0.0
O324 O 0.59887 0.4636 0.95313 0.0
Mg325 Mg 0.5836 0.46106 0.99314 0.0
C326 C 0.595 0.45477 0.93021 0.0
C327 C 0.52588 0.38987 0.90855 0.0
O328 O 0.52015 0.38203 0.93259 0.0
O329 O 0.54297 0.44445 0.94179 0.0
O330 O 0.56304 0.46705 0.97043 0.0
O331 O 0.56345 0.40559 0.96541 0.0
O332 O 0.56536 0.4307 0.98548 0.0
C333 C 0.54962 0.46068 0.95311 0.0
C334 C 0.56998 0.41796 0.98511 0.0
O335 O 0.53837 0.40714 0.90765 0.0
Mg336 Mg 0.53564 0.77042 0.75045 0.0
O337 O 0.51512 0.76337 0.7861 0.0
O338 O 0.48647 0.75025 0.76799 0.0
Mg339 Mg 0.48845 0.74921 0.72152 0.0
C340 C 0.49748 0.75592 0.78864 0.0
C341 C 0.57425 0.79126 0.77446 0.0
O342 O 0.57451 0.80066 0.75272 0.0
O343 O 0.5271 0.73944 0.74415 0.0
O344 O 0.49884 0.72836 0.72527 0.0
O345 O 0.53767 0.79841 0.74639 0.0
O346 O 0.51729 0.77274 0.72393 0.0
C347 C 0.51215 0.72605 0.73347 0.0
C348 C 0.52366 0.79024 0.72961 0.0
O349 O 0.55918 0.77631 0.78027 0.0
Mg350 Mg 0.26269 0.77485 0.83001 0.0
O351 O 0.24013 0.74877 0.80698 0.0
O352 O 0.21914 0.72915 0.83689 0.0
Mg353 Mg 0.22764 0.74345 0.87902 0.0
C354 C 0.2253 0.73335 0.81249 0.0
C355 C 0.28054 0.8063 0.78453 0.0
O356 O 0.28043 0.81721 0.8043 0.0
O357 O 0.24251 0.78596 0.83298 0.0
O358 O 0.22207 0.76635 0.86346 0.0
O359 O 0.27811 0.75969 0.83786 0.0
O360 O 0.25687 0.7592 0.86566 0.0
C361 C 0.22786 0.78034 0.84744 0.0
C362 C 0.26773 0.75282 0.85926 0.0
O363 O 0.274 0.78892 0.78899 0.0
Mg364 Mg 0.24115 0.48354 0.81968 0.0
O365 O 0.26237 0.48308 0.79002 0.0
O366 O 0.27964 0.47393 0.81297 0.0
Mg367 Mg 0.26929 0.4682 0.85717 0.0
C368 C 0.27551 0.47931 0.79097 0.0
C369 C 0.23354 0.50065 0.76829 0.0
O370 O 0.25118 0.51299 0.77305 0.0
O371 O 0.22359 0.45146 0.81794 0.0
O372 O 0.24121 0.44352 0.84254 0.0
O373 O 0.26223 0.51309 0.83204 0.0
O374 O 0.25884 0.48779 0.85252 0.0
C375 C 0.22639 0.43907 0.82889 0.0
C376 C 0.26799 0.50578 0.85018 0.0
O377 O 0.22528 0.48644 0.78371 0.0
Mg378 Mg 0.42756 0.84951 0.02268 0.0
O379 O 0.44948 0.85109 0.05296 0.0
O380 O 0.4761 0.86075 0.03023 0.0
Mg381 Mg 0.47109 0.86466 0.98532 0.0
C382 C 0.46661 0.8556 0.05226 0.0
C383 C 0.40232 0.83282 0.07373 0.0
O384 O 0.4076 0.82041 0.06948 0.0
O385 O 0.44173 0.88163 0.02285 0.0
O386 O 0.46721 0.88931 0.99815 0.0
O387 O 0.41948 0.81982 0.01165 0.0
O388 O 0.44118 0.84487 0.99049 0.0
C389 C 0.45678 0.89388 0.01136 0.0
C390 C 0.43247 0.82693 0.99337 0.0
O391 O 0.40854 0.847 0.0582 0.0
Mg392 Mg 0.14397 0.55391 0.99874 0.0
O393 O 0.14958 0.58062 0.02247 0.0
O394 O 0.14761 0.6001 0.99293 0.0
Mg395 Mg 0.14036 0.58582 0.9508 0.0
C396 C 0.1504 0.59617 0.01707 0.0
C397 C 0.1504 0.53042 0.04072 0.0
O398 O 0.15963 0.52989 0.01917 0.0
O399 O 0.11295 0.54414 0.99788 0.0
O400 O 0.11188 0.5637 0.96755 0.0
O401 O 0.17418 0.5675 0.98904 0.0
O402 O 0.15353 0.56952 0.96294 0.0
C403 C 0.10384 0.54997 0.98405 0.0
C404 C 0.17074 0.57488 0.9682 0.0
O405 O 0.14144 0.53913 0.03907 0.0
Mg406 Mg 0.43418 0.56392 0.08486 0.0
O407 O 0.41992 0.57098 0.05041 0.0
O408 O 0.4049 0.58422 0.06989 0.0
Mg409 Mg 0.40908 0.58541 0.11614 0.0
C410 C 0.40971 0.57845 0.04875 0.0
C411 C 0.44865 0.54148 0.05527 0.0
O412 O 0.43742 0.53033 0.07424 0.0
O413 O 0.45688 0.59484 0.09058 0.0
O414 O 0.44023 0.60602 0.11093 0.0
O415 O 0.40816 0.53604 0.0898 0.0
O416 O 0.41413 0.56174 0.11275 0.0
C417 C 0.45563 0.60827 0.1018 0.0
C418 C 0.40279 0.54426 0.10724 0.0
O419 O 0.4511 0.55797 0.05353 0.0
Mg420 Mg 0.12638 0.57689 0.54348 0.0
O421 O 0.13631 0.5596 0.5674 0.0
O422 O 0.13299 0.53586 0.54077 0.0
Mg423 Mg 0.11986 0.53722 0.50046 0.0
C424 C 0.13798 0.54517 0.5633 0.0
C425 C 0.13821 0.61078 0.58132 0.0
O426 O 0.1449 0.61831 0.55737 0.0
O427 O 0.09583 0.55458 0.55059 0.0
O428 O 0.09342 0.5313 0.52353 0.0
O429 O 0.15481 0.5934 0.52553 0.0
O430 O 0.13173 0.56767 0.5065 0.0
C431 C 0.08639 0.53799 0.54037 0.0
C432 C 0.14902 0.58063 0.5064 0.0
O433 O 0.12849 0.59298 0.58283 0.0
Mg434 Mg 0.41749 0.55228 0.50623 0.0
O435 O 0.43903 0.57611 0.53389 0.0
O436 O 0.46377 0.59546 0.50887 0.0
Mg437 Mg 0.45781 0.58418 0.46473 0.0
C438 C 0.45522 0.59062 0.53172 0.0
C439 C 0.39687 0.54545 0.5607 0.0
O440 O 0.40187 0.56293 0.55512 0.0
O441 O 0.43584 0.53888 0.50647 0.0
O442 O 0.45919 0.55863 0.47956 0.0
O443 O 0.40481 0.56975 0.49577 0.0
O444 O 0.42766 0.56991 0.47246 0.0
C445 C 0.4512 0.54387 0.49415 0.0
C446 C 0.41708 0.57694 0.47654 0.0
O447 O 0.40151 0.53643 0.54427 0.0
Mg448 Mg 0.42198 0.86789 0.50776 0.0
O449 O 0.39934 0.86539 0.53709 0.0
O450 O 0.37845 0.86946 0.51408 0.0
Mg451 Mg 0.38804 0.87469 0.46935 0.0
C452 C 0.38444 0.86627 0.53629 0.0
C453 C 0.43229 0.85692 0.56228 0.0
O454 O 0.41468 0.8439 0.55924 0.0
O455 O 0.43464 0.8996 0.5071 0.0
O456 O 0.41394 0.90283 0.48198 0.0
O457 O 0.40503 0.83729 0.49813 0.0
O458 O 0.40317 0.85933 0.47527 0.0
C459 C 0.42927 0.90987 0.49542 0.0
C460 C 0.39697 0.84172 0.47934 0.0
O461 O 0.43985 0.86959 0.54428 0.0
Mg462 Mg 0.2205 0.46477 0.32686 0.0
O463 O 0.20228 0.4687 0.2956 0.0
O464 O 0.17706 0.46579 0.31644 0.0
Mg465 Mg 0.17913 0.45941 0.36152 0.0
C466 C 0.18695 0.46877 0.29503 0.0
C467 C 0.25462 0.4692 0.29626 0.0
O468 O 0.26133 0.47545 0.32099 0.0
O469 O 0.20052 0.43326 0.32653 0.0
O470 O 0.1761 0.43079 0.34949 0.0
O471 O 0.23485 0.49533 0.33705 0.0
O472 O 0.20977 0.47362 0.3583 0.0
C473 C 0.1844 0.42335 0.33706 0.0
C474 C 0.22185 0.49114 0.35493 0.0
O475 O 0.23738 0.46279 0.29181 0.0
Mg476 Mg 0.53297 0.77949 0.32881 0.0
O477 O 0.5316 0.75613 0.30125 0.0
O478 O 0.53646 0.73657 0.32657 0.0
Mg479 Mg 0.54051 0.74735 0.37095 0.0
C480 C 0.53335 0.74167 0.30351 0.0
C481 C 0.53654 0.81188 0.29052 0.0
O482 O 0.54069 0.82142 0.31375 0.0
O483 O 0.56471 0.79312 0.33044 0.0
O484 O 0.56778 0.77321 0.35773 0.0
O485 O 0.50259 0.76171 0.33727 0.0
O486 O 0.5247 0.76159 0.36228 0.0
C487 C 0.57484 0.78814 0.34346 0.0
C488 C 0.5072 0.75445 0.35701 0.0
O489 O 0.53363 0.79519 0.29041 0.0
Mg490 Mg 0.21461 0.75326 0.28984 0.0
O491 O 0.24225 0.77183 0.26762 0.0
O492 O 0.26139 0.79583 0.29491 0.0
Mg493 Mg 0.24555 0.79313 0.33452 0.0
C494 C 0.25791 0.78667 0.27231 0.0
C495 C 0.2111 0.73039 0.23823 0.0
O496 O 0.22677 0.7335 0.24956 0.0
O497 O 0.20538 0.77476 0.28197 0.0
O498 O 0.22434 0.79778 0.31094 0.0
O499 O 0.227 0.73745 0.30871 0.0
O500 O 0.22827 0.76258 0.32759 0.0
C501 C 0.21115 0.7909 0.29319 0.0
C502 C 0.23329 0.75013 0.32797 0.0
O503 O 0.20203 0.73723 0.24971 0.0
H504 H 0.20423 0.04903 0.04546 0.0
H505 H 0.19547 0.01936 0.02161 0.0
H506 H 0.14207 0.99308 0.06174 0.0
H507 H 0.15042 0.02304 0.08433 0.0
H508 H 0.1813 0.98117 0.02845 0.0
H509 H 0.12828 0.99535 0.98298 0.0
H510 H 0.14646 0.01189 0.00557 0.0
H511 H 0.12615 0.99182 0.0193 0.0
C512 C 0.19096 0.03669 0.05008 0.0
C513 C 0.17789 0.03826 0.06642 0.0
C514 C 0.18592 0.01976 0.03636 0.0
C515 C 0.16787 0.00422 0.03921 0.0
C516 C 0.15586 0.00508 0.05866 0.0
H517 H 0.10598 0.91195 0.92271 0.0
H518 H 0.11642 0.92968 0.9659 0.0
C519 C 0.1607 0.02211 0.07178 0.0
C520 C 0.16064 0.9887 0.01862 0.0
H521 H 0.12899 0.969 0.96629 0.0
C522 C 0.16975 0.97836 0.01503 0.0
C523 C 0.14572 0.98525 0.00079 0.0
C524 C 0.13618 0.99675 0.00209 0.0
C525 C 0.16435 0.96473 0.994 0.0
C526 C 0.14956 0.96146 0.97621 0.0
C527 C 0.1402 0.97144 0.98022 0.0
C528 C 0.14433 0.94891 0.95185 0.0
C529 C 0.17457 0.95404 0.99075 0.0
C530 C 0.15663 0.95383 0.92972 0.0
C531 C 0.15067 0.94387 0.90488 0.0
C532 C 0.13227 0.92881 0.90173 0.0
C533 C 0.12022 0.92348 0.92436 0.0
C534 C 0.12617 0.93353 0.94912 0.0
H535 H 0.18231 0.95473 0.00972 0.0
H536 H 0.16474 0.93906 0.98538 0.0
H537 H 0.18477 0.96026 0.97386 0.0
H538 H 0.17058 0.9659 0.93124 0.0
H539 H 0.16034 0.94832 0.88794 0.0
H540 H 0.93851 0.13673 0.08171 0.0
H541 H 0.95382 0.148 0.03731 0.0
H542 H 0.0066 0.16189 0.07368 0.0
H543 H 0.99157 0.15077 0.11797 0.0
H544 H 0.98733 0.1857 0.02393 0.0
H545 H 0.99734 0.12445 0.00763 0.0
H546 H 0.98038 0.12402 0.03124 0.0
H547 H 0.00463 0.13605 0.04052 0.0
C548 C 0.9534 0.1423 0.08029 0.0
C549 C 0.9638 0.14274 0.10335 0.0
C550 C 0.9621 0.14874 0.05494 0.0
C551 C 0.98127 0.15555 0.05225 0.0
C552 C 0.99175 0.15648 0.07534 0.0
H553 H 0.06252 0.19083 0.92381 0.0
H554 H 0.04513 0.18199 0.96663 0.0
C555 C 0.98312 0.15015 0.10065 0.0
C556 C 0.99039 0.16129 0.02524 0.0
H557 H 0.01249 0.1496 0.9767 0.0
C558 C 0.99273 0.17778 0.01341 0.0
C559 C 0.9974 0.15089 0.01173 0.0
C560 C 0.99473 0.13278 0.02324 0.0
C561 C 0.00249 0.1845 0.98873 0.0
C562 C 0.0097 0.1742 0.97535 0.0
C563 C 0.00703 0.15752 0.98702 0.0
C564 C 0.02041 0.18056 0.9495 0.0
C565 C 0.00553 0.20288 0.97771 0.0
C566 C 0.01229 0.18269 0.9256 0.0
C567 C 0.02225 0.18785 0.90104 0.0
C568 C 0.04045 0.19077 0.89986 0.0
C569 C 0.04854 0.18868 0.92391 0.0
C570 C 0.03862 0.18362 0.94844 0.0
H571 H 0.00347 0.21133 0.99377 0.0
H572 H 0.01979 0.21139 0.96926 0.0
H573 H 0.99536 0.19995 0.96095 0.0
H574 H 0.99811 0.17998 0.92579 0.0
H575 H 0.01553 0.1892 0.88289 0.0
H576 H 0.808 0.84987 0.89804 0.0
H577 H 0.81999 0.83865 0.93452 0.0
H578 H 0.83161 0.88689 0.98457 0.0
H579 H 0.81975 0.89832 0.94826 0.0
H580 H 0.86151 0.87936 0.98073 0.0
H581 H 0.79458 0.81604 0.00876 0.0
H582 H 0.8002 0.81818 0.97291 0.0
H583 H 0.79562 0.83506 0.98929 0.0
C584 C 0.81303 0.85809 0.91683 0.0
C585 C 0.81284 0.87499 0.9202 0.0
C586 C 0.81979 0.85158 0.93771 0.0
C587 C 0.82647 0.86183 0.96233 0.0
C588 C 0.82642 0.87874 0.96574 0.0
H589 H 0.85339 0.83059 0.11711 0.0
H590 H 0.8399 0.83954 0.07975 0.0
C591 C 0.81961 0.88522 0.94495 0.0
C592 C 0.83399 0.85522 0.98431 0.0
H593 H 0.82197 0.81979 0.02987 0.0
C594 C 0.85289 0.86634 0.99148 0.0
C595 C 0.82264 0.83832 0.99843 0.0
C596 C 0.80209 0.82624 0.9922 0.0
C597 C 0.86081 0.86091 0.01228 0.0
C598 C 0.84954 0.84382 0.02604 0.0
C599 C 0.83059 0.83279 0.01907 0.0
C600 C 0.85712 0.83745 0.04827 0.0
C601 C 0.88107 0.87366 0.01974 0.0
C602 C 0.87099 0.83293 0.0428 0.0
C603 C 0.87872 0.82779 0.06408 0.0
C604 C 0.87269 0.82705 0.09123 0.0
C605 C 0.85841 0.83109 0.09648 0.0
C606 C 0.85066 0.83618 0.07516 0.0
H607 H 0.88664 0.88804 0.01153 0.0
H608 H 0.88306 0.87472 0.04234 0.0
H609 H 0.88939 0.86774 0.01101 0.0
H610 H 0.87595 0.83354 0.02208 0.0
H611 H 0.88963 0.82468 0.05929 0.0
H612 H 0.91582 0.10131 0.55089 0.0
H613 H 0.93893 0.11089 0.51441 0.0
H614 H 0.97895 0.15689 0.56504 0.0
H615 H 0.95606 0.14739 0.60177 0.0
H616 H 0.95848 0.1461 0.48733 0.0
H617 H 0.00641 0.12881 0.54238 0.0
H618 H 0.98268 0.12019 0.55308 0.0
H619 H 0.00039 0.14402 0.56076 0.0
C620 C 0.92954 0.11349 0.55434 0.0
C621 C 0.93409 0.12353 0.57938 0.0
C622 C 0.9427 0.11893 0.53342 0.0
C623 C 0.9607 0.13442 0.5372 0.0
C624 C 0.96522 0.14468 0.56192 0.0
H625 H 0.05956 0.18346 0.43428 0.0
H626 H 0.03708 0.17695 0.47102 0.0
C627 C 0.95207 0.13928 0.58285 0.0
C628 C 0.97469 0.13987 0.51515 0.0
H629 H 0.01655 0.14374 0.49962 0.0
C630 C 0.97118 0.14558 0.48996 0.0
C631 C 0.99125 0.13922 0.51875 0.0
C632 C 0.99542 0.13259 0.5451 0.0
C633 C 0.98389 0.15082 0.46827 0.0
C634 C 0.00035 0.14995 0.47175 0.0
C635 C 0.00394 0.14442 0.49704 0.0
C636 C 0.0138 0.15424 0.44917 0.0
C637 C 0.9797 0.1575 0.44199 0.0
C638 C 0.00819 0.1435 0.42484 0.0
C639 C 0.02096 0.1472 0.40381 0.0
C640 C 0.03965 0.16161 0.4068 0.0
C641 C 0.04526 0.17229 0.43129 0.0
C642 C 0.03245 0.16859 0.45231 0.0
H643 H 0.9696 0.16241 0.44527 0.0
H644 H 0.99261 0.16912 0.433 0.0
H645 H 0.97347 0.14568 0.42693 0.0
H646 H 0.99396 0.13208 0.42223 0.0
H647 H 0.01619 0.13862 0.38531 0.0
H648 H 0.80331 0.8629 0.42911 0.0
H649 H 0.80783 0.85229 0.47379 0.0
H650 H 0.84497 0.83623 0.43686 0.0
H651 H 0.84055 0.84666 0.3923 0.0
H652 H 0.80371 0.81401 0.48862 0.0
H653 H 0.87479 0.87635 0.50063 0.0
H654 H 0.85742 0.87607 0.47802 0.0
H655 H 0.8697 0.86421 0.46808 0.0
C656 C 0.8123 0.85694 0.43046 0.0
C657 C 0.82168 0.85575 0.40718 0.0
C658 C 0.81483 0.85088 0.45596 0.0
C659 C 0.82686 0.84368 0.45855 0.0
C660 C 0.83575 0.84191 0.43524 0.0
H661 H 0.87769 0.8114 0.58197 0.0
H662 H 0.86694 0.81939 0.54056 0.0
C663 C 0.83317 0.84787 0.40979 0.0
C664 C 0.83088 0.83869 0.48569 0.0
H665 H 0.86601 0.85182 0.53236 0.0
C666 C 0.81724 0.82232 0.49842 0.0
C667 C 0.84855 0.84963 0.49827 0.0
C668 C 0.86347 0.86764 0.48574 0.0
C669 C 0.8211 0.81616 0.52302 0.0
C670 C 0.83894 0.82691 0.53531 0.0
C671 C 0.85237 0.84356 0.52286 0.0
C672 C 0.84441 0.82085 0.56042 0.0
C673 C 0.80634 0.79787 0.53505 0.0
C674 C 0.83525 0.81892 0.58539 0.0
C675 C 0.84132 0.81424 0.60923 0.0
C676 C 0.8568 0.81161 0.60853 0.0
C677 C 0.86578 0.81337 0.58336 0.0
C678 C 0.85965 0.81794 0.55961 0.0
H679 H 0.79513 0.78925 0.51996 0.0
H680 H 0.81251 0.78948 0.54244 0.0
H681 H 0.79988 0.8009 0.55281 0.0
H682 H 0.82369 0.82147 0.5866 0.0
H683 H 0.83416 0.81312 0.62828 0.0
H684 H 0.12331 0.97421 0.43349 0.0
H685 H 0.14607 0.00177 0.45956 0.0
H686 H 0.18028 0.97657 0.46947 0.0
H687 H 0.15754 0.94892 0.44303 0.0
H688 H 0.16481 0.98232 0.51829 0.0
H689 H 0.19984 0.04749 0.45753 0.0
H690 H 0.17531 0.0331 0.45056 0.0
H691 H 0.19065 0.02432 0.44234 0.0
C692 C 0.1361 0.97492 0.44013 0.0
C693 C 0.13861 0.95939 0.43645 0.0
C694 C 0.14916 0.99073 0.45493 0.0
C695 C 0.16487 0.99122 0.46643 0.0
C696 C 0.1683 0.97651 0.46055 0.0
H697 H 0.21506 0.0523 0.62064 0.0
H698 H 0.20998 0.03334 0.57913 0.0
C699 C 0.15534 0.96075 0.44535 0.0
C700 C 0.17494 0.0047 0.48912 0.0
H701 H 0.19767 0.0514 0.50609 0.0
C702 C 0.1724 0.99744 0.51564 0.0
C703 C 0.18451 0.02436 0.48555 0.0
C704 C 0.1879 0.03282 0.45742 0.0
C705 C 0.17817 0.00927 0.53886 0.0
C706 C 0.18736 0.029 0.53541 0.0
C707 C 0.19064 0.03629 0.50876 0.0
C708 C 0.19239 0.04212 0.55921 0.0
C709 C 0.17319 0.00039 0.5668 0.0
C710 C 0.18502 0.05413 0.56123 0.0
C711 C 0.18823 0.0653 0.58469 0.0
C712 C 0.19871 0.0645 0.6067 0.0
C713 C 0.20662 0.05295 0.60424 0.0
C714 C 0.20369 0.04207 0.58056 0.0
H715 H 0.16203 0.98537 0.56559 0.0
H716 H 0.18566 0.00101 0.57618 0.0
H717 H 0.16843 0.00793 0.58059 0.0
H718 H 0.1763 0.05446 0.54498 0.0
H719 H 0.18201 0.0741 0.58592 0.0
H720 H 0.85655 0.03629 0.15962 0.0
H721 H 0.84088 0.01281 0.1232 0.0
H722 H 0.88367 0.04835 0.06634 0.0
H723 H 0.89928 0.0721 0.10242 0.0
H724 H 0.84799 0.03267 0.04451 0.0
H725 H 0.85893 0.97832 0.0933 0.0
H726 H 0.84709 0.98704 0.11426 0.0
H727 H 0.87093 0.00254 0.10477 0.0
C728 C 0.86265 0.03916 0.13937 0.0
C729 C 0.87927 0.05607 0.13402 0.0
C730 C 0.8537 0.02566 0.11861 0.0
C731 C 0.86127 0.02872 0.0922 0.0
C732 C 0.87763 0.0457 0.08664 0.0
H733 H 0.84825 0.95373 0.96124 0.0
H734 H 0.85717 0.97486 0.00084 0.0
C735 C 0.88655 0.05924 0.10732 0.0
C736 C 0.85233 0.01419 0.07032 0.0
H737 H 0.84149 0.96963 0.05213 0.0
C738 C 0.84645 0.01884 0.04619 0.0
C739 C 0.85051 0.99622 0.07255 0.0
C740 C 0.85733 0.99072 0.09749 0.0
C741 C 0.83904 0.0061 0.02402 0.0
C742 C 0.83718 0.98812 0.02628 0.0
C743 C 0.84278 0.98337 0.05059 0.0
C744 C 0.83105 0.97466 0.00284 0.0
C745 C 0.83398 0.01226 0.99798 0.0
C746 C 0.81324 0.96726 0.99106 0.0
C747 C 0.80808 0.95516 0.9682 0.0
C748 C 0.82064 0.95023 0.95691 0.0
C749 C 0.83825 0.95729 0.9693 0.0
C750 C 0.84338 0.96936 0.99201 0.0
H751 H 0.83984 0.02772 0.99763 0.0
H752 H 0.83908 0.00805 0.97974 0.0
H753 H 0.81859 0.00537 0.99632 0.0
H754 H 0.80339 0.9709 0.99945 0.0
H755 H 0.79438 0.94986 0.95923 0.0
H756 H 0.9765 0.81052 0.10784 0.0
H757 H 0.99447 0.8161 0.06576 0.0
H758 H 0.95297 0.82194 0.02096 0.0
H759 H 0.93511 0.81681 0.06294 0.0
H760 H 0.98605 0.79779 0.01539 0.0
H761 H 0.0004 0.87087 0.00459 0.0
H762 H 0.99093 0.85763 0.03549 0.0
H763 H 0.97601 0.85382 0.00647 0.0
C764 C 0.97115 0.81294 0.08903 0.0
C765 C 0.95446 0.81344 0.08886 0.0
C766 C 0.98144 0.8161 0.06499 0.0
C767 C 0.97524 0.8198 0.04037 0.0
C768 C 0.95824 0.81958 0.0399 0.0
H769 H 0.01743 0.8478 0.87561 0.0
H770 H 0.9979 0.83641 0.91632 0.0
C771 C 0.94801 0.81656 0.06392 0.0
C772 C 0.98671 0.82427 0.01528 0.0
H773 H 0.00871 0.85808 0.96703 0.0
C774 C 0.99108 0.81099 0.00486 0.0
C775 C 0.99336 0.84157 0.0017 0.0
C776 C 0.99011 0.85688 0.01275 0.0
C777 C 0.00158 0.81441 0.98082 0.0
C778 C 0.00791 0.83156 0.96705 0.0
C779 C 0.00366 0.84486 0.97756 0.0
C780 C 0.01911 0.8362 0.94173 0.0
C781 C 0.00556 0.79957 0.96999 0.0
C782 C 0.03744 0.8396 0.94248 0.0
C783 C 0.04871 0.8462 0.91924 0.0
C784 C 0.04181 0.84953 0.8949 0.0
C785 C 0.0232 0.84541 0.894 0.0
C786 C 0.012 0.8389 0.91724 0.0
H787 H 0.99668 0.78577 0.97985 0.0
H788 H 0.00328 0.79779 0.94746 0.0
H789 H 0.02037 0.80405 0.97413 0.0
H790 H 0.04326 0.83785 0.96133 0.0
H791 H 0.06299 0.84927 0.92064 0.0
H792 H 0.14046 0.1795 0.86637 0.0
H793 H 0.15493 0.17199 0.90387 0.0
H794 H 0.13409 0.19672 0.96196 0.0
H795 H 0.11923 0.20404 0.92453 0.0
H796 H 0.18092 0.19387 0.94469 0.0
H797 H 0.11201 0.1425 0.98843 0.0
H798 H 0.11432 0.15226 0.95478 0.0
H799 H 0.11652 0.16611 0.98476 0.0
C800 C 0.13906 0.18351 0.88707 0.0
C801 C 0.12849 0.19216 0.8925 0.0
C802 C 0.14739 0.17924 0.90848 0.0
C803 C 0.14532 0.18353 0.93569 0.0
C804 C 0.13556 0.19299 0.94112 0.0
H805 H 0.20362 0.15844 0.06533 0.0
H806 H 0.19201 0.17561 0.03883 0.0
C807 C 0.12715 0.19723 0.9197 0.0
C808 C 0.15257 0.17707 0.95823 0.0
H809 H 0.13857 0.14519 0.0098 0.0
C810 C 0.17173 0.18341 0.95921 0.0
C811 C 0.14047 0.16331 0.97693 0.0
C812 C 0.11966 0.15549 0.97618 0.0
C813 C 0.17906 0.17591 0.97782 0.0
C814 C 0.16689 0.16189 0.99615 0.0
C815 C 0.14784 0.15603 0.99581 0.0
C816 C 0.17325 0.15162 0.01362 0.0
C817 C 0.19956 0.1823 0.97677 0.0
C818 C 0.16615 0.13238 0.00872 0.0
C819 C 0.17264 0.12255 0.02383 0.0
C820 C 0.18633 0.13177 0.04426 0.0
C821 C 0.19311 0.15097 0.04965 0.0
C822 C 0.18657 0.16082 0.03448 0.0
H823 H 0.20636 0.19079 0.95832 0.0
H824 H 0.20664 0.19107 0.99519 0.0
H825 H 0.20169 0.17002 0.97681 0.0
H826 H 0.15587 0.12503 0.99269 0.0
H827 H 0.16721 0.10783 0.01899 0.0
H828 H 0.93062 0.81833 0.57794 0.0
H829 H 0.95337 0.82543 0.54181 0.0
H830 H 0.96617 0.78477 0.57448 0.0
H831 H 0.94355 0.77776 0.61118 0.0
H832 H 0.99695 0.81871 0.5679 0.0
H833 H 0.9551 0.79896 0.47249 0.0
H834 H 0.95032 0.81376 0.49412 0.0
H835 H 0.94473 0.79083 0.50574 0.0
C836 C 0.93803 0.81064 0.57724 0.0
C837 C 0.93536 0.79756 0.59758 0.0
C838 C 0.95092 0.8146 0.55636 0.0
C839 C 0.96127 0.80543 0.55518 0.0
C840 C 0.9582 0.79189 0.57489 0.0
H841 H 0.04787 0.83751 0.42875 0.0
H842 H 0.02005 0.81818 0.45641 0.0
C843 C 0.94529 0.78792 0.59586 0.0
C844 C 0.97681 0.81174 0.53545 0.0
H845 H 0.9879 0.82223 0.46806 0.0
C846 C 0.99492 0.81913 0.54601 0.0
C847 C 0.97417 0.81211 0.50685 0.0
C848 C 0.95499 0.80329 0.49411 0.0
C849 C 0.01052 0.8279 0.52896 0.0
C850 C 0.00794 0.82958 0.50072 0.0
C851 C 0.98982 0.82117 0.48982 0.0
C852 C 0.02394 0.8412 0.48277 0.0
C853 C 0.02969 0.83572 0.54145 0.0
C854 C 0.03494 0.86056 0.48802 0.0
C855 C 0.05073 0.87158 0.47237 0.0
C856 C 0.05578 0.86347 0.451 0.0
C857 C 0.04436 0.84416 0.44512 0.0
C858 C 0.02849 0.8331 0.46085 0.0
H859 H 0.02916 0.82871 0.56103 0.0
H860 H 0.03919 0.83406 0.52717 0.0
H861 H 0.03566 0.85094 0.54589 0.0
H862 H 0.03146 0.86711 0.50458 0.0
H863 H 0.05921 0.88637 0.47754 0.0
H864 H 0.16055 0.1855 0.39048 0.0
H865 H 0.17232 0.1786 0.43203 0.0
H866 H 0.12416 0.17101 0.47641 0.0
H867 H 0.11204 0.17745 0.43488 0.0
H868 H 0.1815 0.19562 0.48288 0.0
H869 H 0.12309 0.12212 0.49074 0.0
H870 H 0.12694 0.13598 0.46049 0.0
H871 H 0.11554 0.13903 0.48981 0.0
C872 C 0.15245 0.18238 0.40908 0.0
C873 C 0.13524 0.18184 0.40925 0.0
C874 C 0.15922 0.17846 0.43281 0.0
C875 C 0.14894 0.17394 0.45716 0.0
C876 C 0.13208 0.174 0.45765 0.0
H877 H 0.16286 0.14529 0.62141 0.0
H878 H 0.15447 0.15612 0.58035 0.0
C879 C 0.12522 0.17778 0.4339 0.0
C880 C 0.15579 0.16902 0.48198 0.0
H881 H 0.14385 0.13437 0.52885 0.0
C882 C 0.17333 0.18219 0.49286 0.0
C883 C 0.14514 0.15144 0.49485 0.0
C884 C 0.12672 0.13625 0.48324 0.0
C885 C 0.1803 0.1784 0.51668 0.0
C886 C 0.16947 0.16099 0.52977 0.0
C887 C 0.15203 0.14777 0.51879 0.0
C888 C 0.17583 0.15612 0.55504 0.0
C889 C 0.19898 0.19314 0.52805 0.0
C890 C 0.19074 0.15268 0.55439 0.0
C891 C 0.19555 0.14639 0.57783 0.0
C892 C 0.18549 0.14343 0.60226 0.0
C893 C 0.17091 0.14742 0.60296 0.0
C894 C 0.16607 0.1536 0.57953 0.0
H895 H 0.20409 0.20703 0.51837 0.0
H896 H 0.19816 0.19475 0.55056 0.0
H897 H 0.20934 0.18864 0.52425 0.0
H898 H 0.19828 0.15432 0.53554 0.0
H899 H 0.20683 0.14341 0.5766 0.0
H900 H 0.85553 0.06075 0.53359 0.0
H901 H 0.84632 0.04084 0.49223 0.0
H902 H 0.83237 0.99248 0.54169 0.0
H903 H 0.84114 0.01209 0.583 0.0
H904 H 0.86212 0.02081 0.47336 0.0
H905 H 0.78708 0.9724 0.49227 0.0
H906 H 0.80059 0.99406 0.51145 0.0
H907 H 0.8014 0.97334 0.52045 0.0
C908 C 0.85021 0.04582 0.53569 0.0
C909 C 0.84903 0.03801 0.56161 0.0
C910 C 0.84498 0.03448 0.51204 0.0
C911 C 0.8384 0.01513 0.51391 0.0
C912 C 0.83696 0.00728 0.53979 0.0
H913 H 0.81886 0.92248 0.40977 0.0
H914 H 0.8235 0.94456 0.44699 0.0
C915 C 0.84212 0.01856 0.5634 0.0
C916 C 0.83434 0.00333 0.4888 0.0
H917 H 0.80131 0.96236 0.45837 0.0
C918 C 0.84874 0.00818 0.46984 0.0
C919 C 0.81687 0.98685 0.48428 0.0
C920 C 0.80055 0.98145 0.50306 0.0
C921 C 0.84637 0.99658 0.44708 0.0
C922 C 0.82911 0.97982 0.44309 0.0
C923 C 0.81456 0.97519 0.46163 0.0
C924 C 0.82611 0.96654 0.42032 0.0
C925 C 0.86256 0.00196 0.42801 0.0
C926 C 0.8259 0.97157 0.39302 0.0
C927 C 0.82322 0.95897 0.37164 0.0
C928 C 0.82072 0.94111 0.37722 0.0
C929 C 0.82082 0.93612 0.40468 0.0
C930 C 0.82341 0.94869 0.42601 0.0
H931 H 0.87586 0.01348 0.43669 0.0
H932 H 0.86422 0.98964 0.42349 0.0
H933 H 0.85981 0.00678 0.40834 0.0
H934 H 0.82774 0.98522 0.38827 0.0
H935 H 0.82318 0.96328 0.35077 0.0
H936 H 0.82188 0.27785 0.2014 0.0
H937 H 0.83688 0.29701 0.24233 0.0
H938 H 0.78367 0.2717 0.28301 0.0
H939 H 0.76874 0.252 0.24265 0.0
H940 H 0.83135 0.3228 0.26286 0.0
H941 H 0.8149 0.27084 0.34414 0.0
H942 H 0.81162 0.26432 0.30824 0.0
H943 H 0.79401 0.26644 0.32691 0.0
C944 C 0.81341 0.2762 0.2192 0.0
C945 C 0.7941 0.26343 0.21874 0.0
C946 C 0.82202 0.2871 0.24264 0.0
C947 C 0.8115 0.28556 0.26602 0.0
C948 C 0.79224 0.27271 0.26565 0.0
H949 H 0.81099 0.35651 0.38613 0.0
H950 H 0.80643 0.32893 0.36033 0.0
C951 C 0.78366 0.2616 0.24238 0.0
C952 C 0.82018 0.2989 0.28948 0.0
H953 H 0.82159 0.30194 0.35949 0.0
C954 C 0.82965 0.31821 0.28395 0.0
C955 C 0.81801 0.29295 0.31705 0.0
C956 C 0.80925 0.27249 0.32439 0.0
C957 C 0.8359 0.33168 0.30514 0.0
C958 C 0.8327 0.32569 0.33267 0.0
C959 C 0.82404 0.30645 0.33834 0.0
C960 C 0.83585 0.3392 0.35511 0.0
C961 C 0.84486 0.35221 0.29793 0.0
C962 C 0.85394 0.3535 0.36224 0.0
C963 C 0.8566 0.3693 0.37718 0.0
C964 C 0.84117 0.37097 0.38482 0.0
C965 C 0.82312 0.35565 0.38027 0.0
C966 C 0.82049 0.33985 0.3656 0.0
H967 H 0.84458 0.35432 0.27552 0.0
H968 H 0.83764 0.35873 0.30852 0.0
H969 H 0.85961 0.35973 0.30491 0.0
H970 H 0.86596 0.35316 0.35435 0.0
H971 H 0.87067 0.38091 0.38035 0.0
H972 H 0.6587 0.48517 0.44761 0.0
H973 H 0.67327 0.49633 0.40305 0.0
H974 H 0.62028 0.48333 0.36843 0.0
H975 H 0.60545 0.47205 0.41308 0.0
H976 H 0.66062 0.47232 0.35321 0.0
H977 H 0.65882 0.53873 0.34385 0.0
H978 H 0.65761 0.52816 0.37661 0.0
H979 H 0.63774 0.51794 0.35412 0.0
C980 C 0.65012 0.48484 0.43064 0.0
C981 C 0.63089 0.47767 0.4339 0.0
C982 C 0.6585 0.49123 0.40519 0.0
C983 C 0.64786 0.49075 0.38257 0.0
C984 C 0.62874 0.48401 0.38578 0.0
H985 H 0.68241 0.52237 0.21272 0.0
H986 H 0.66457 0.51286 0.25535 0.0
C987 C 0.6203 0.47751 0.41126 0.0
C988 C 0.6567 0.49621 0.35533 0.0
H989 H 0.67144 0.53024 0.30679 0.0
C990 C 0.66295 0.48495 0.34299 0.0
C991 C 0.65951 0.51258 0.34204 0.0
C992 C 0.65319 0.52519 0.35477 0.0
C993 C 0.67212 0.48971 0.31771 0.0
C994 C 0.67555 0.50645 0.30479 0.0
C995 C 0.66888 0.51748 0.31682 0.0
C996 C 0.68656 0.51296 0.27924 0.0
C997 C 0.6779 0.47665 0.30497 0.0
C998 C 0.70497 0.5166 0.27874 0.0
C999 C 0.71515 0.52192 0.25447 0.0
C1000 C 0.7072 0.52393 0.2302 0.0
C1001 C 0.68895 0.5209 0.23099 0.0
C1002 C 0.67872 0.51547 0.25533 0.0
H1003 H 0.6695 0.46214 0.31292 0.0
H1004 H 0.67643 0.4761 0.2823 0.0
H1005 H 0.69274 0.4818 0.31011 0.0
H1006 H 0.71145 0.51521 0.29714 0.0
H1007 H 0.72924 0.52435 0.25474 0.0
H1008 H 0.53338 0.14711 0.42307 0.0
H1009 H 0.51618 0.15322 0.38785 0.0
H1010 H 0.56604 0.20511 0.36802 0.0
H1011 H 0.5834 0.19901 0.40281 0.0
H1012 H 0.51038 0.18338 0.38471 0.0
H1013 H 0.54803 0.17985 0.29307 0.0
H1014 H 0.54993 0.17124 0.32606 0.0
H1015 H 0.56314 0.19598 0.31902 0.0
C1016 C 0.54073 0.15974 0.41105 0.0
C1017 C 0.55979 0.17254 0.41569 0.0
C1018 C 0.53087 0.16323 0.39098 0.0
C1019 C 0.53989 0.17949 0.37509 0.0
C1020 C 0.5589 0.19228 0.37965 0.0
H1021 H 0.49076 0.23317 0.28288 0.0
H1022 H 0.50585 0.22389 0.31731 0.0
C1023 C 0.56877 0.1888 0.39967 0.0
C1024 C 0.52929 0.18347 0.35444 0.0
H1025 H 0.52807 0.19248 0.28659 0.0
C1026 C 0.51416 0.18526 0.36322 0.0
C1027 C 0.53411 0.18568 0.32637 0.0
C1028 C 0.54957 0.18291 0.31546 0.0
C1029 C 0.50397 0.18963 0.34477 0.0
C1030 C 0.50928 0.1926 0.31691 0.0
C1031 C 0.52414 0.19039 0.30802 0.0
C1032 C 0.4996 0.19797 0.29654 0.0
C1033 C 0.48748 0.19079 0.35523 0.0
C1034 C 0.49137 0.18666 0.27317 0.0
C1035 C 0.48287 0.19199 0.25332 0.0
C1036 C 0.48249 0.20881 0.25639 0.0
C1037 C 0.49067 0.22006 0.27993 0.0
C1038 C 0.49923 0.21474 0.29974 0.0
H1039 H 0.48215 0.18311 0.37476 0.0
H1040 H 0.4918 0.20575 0.35917 0.0
H1041 H 0.47594 0.18495 0.33994 0.0
H1042 H 0.49156 0.1737 0.27026 0.0
H1043 H 0.47673 0.18297 0.23548 0.0
H1044 H 0.59345 0.43786 0.88076 0.0
H1045 H 0.61838 0.44738 0.84721 0.0
H1046 H 0.65464 0.4955 0.89777 0.0
H1047 H 0.62996 0.48596 0.93169 0.0
H1048 H 0.63783 0.48003 0.81757 0.0
H1049 H 0.68541 0.47005 0.8861 0.0
H1050 H 0.66121 0.46122 0.89414 0.0
H1051 H 0.67812 0.48564 0.89977 0.0
C1052 C 0.60671 0.45049 0.88477 0.0
C1053 C 0.60972 0.46106 0.90907 0.0
C1054 C 0.62094 0.45591 0.86554 0.0
C1055 C 0.63845 0.47195 0.87023 0.0
C1056 C 0.64136 0.48283 0.89404 0.0
H1057 H 0.72497 0.52559 0.746 0.0
H1058 H 0.70111 0.51892 0.78055 0.0
C1059 C 0.62717 0.4774 0.91334 0.0
C1060 C 0.65367 0.47724 0.8502 0.0
H1061 H 0.69753 0.48399 0.84313 0.0
C1062 C 0.6509 0.48091 0.82312 0.0
C1063 C 0.6706 0.47814 0.85746 0.0
C1064 C 0.67401 0.47339 0.88587 0.0
C1065 C 0.66464 0.48557 0.8031 0.0
C1066 C 0.68174 0.48691 0.81053 0.0
C1067 C 0.68448 0.48315 0.83758 0.0
C1068 C 0.69668 0.49139 0.79026 0.0
C1069 C 0.66052 0.4885 0.77404 0.0
C1070 C 0.70254 0.47841 0.78494 0.0
C1071 C 0.71628 0.48224 0.76543 0.0
C1072 C 0.72446 0.49917 0.75088 0.0
C1073 C 0.71886 0.51236 0.7567 0.0
C1074 C 0.70514 0.50852 0.77631 0.0
H1075 H 0.64534 0.48243 0.77039 0.0
H1076 H 0.66753 0.5038 0.77003 0.0
H1077 H 0.66585 0.48207 0.75912 0.0
H1078 H 0.69627 0.46514 0.79558 0.0
H1079 H 0.72029 0.4718 0.76153 0.0
H1080 H 0.45175 0.15331 0.72903 0.0
H1081 H 0.45547 0.14103 0.77261 0.0
H1082 H 0.49549 0.19736 0.79957 0.0
H1083 H 0.49156 0.20974 0.75658 0.0
H1084 H 0.48646 0.14293 0.79263 0.0
H1085 H 0.46275 0.178 0.86595 0.0
H1086 H 0.45841 0.17712 0.82956 0.0
H1087 H 0.4805 0.19467 0.84386 0.0
C1088 C 0.46113 0.1631 0.74442 0.0
C1089 C 0.47133 0.18251 0.73933 0.0
C1090 C 0.46325 0.15606 0.76929 0.0
C1091 C 0.47554 0.1683 0.78954 0.0
C1092 C 0.48557 0.18768 0.78459 0.0
H1093 H 0.53744 0.14897 0.91209 0.0
H1094 H 0.52496 0.1551 0.87077 0.0
C1095 C 0.48339 0.19473 0.75985 0.0
C1096 C 0.47898 0.16083 0.81504 0.0
H1097 H 0.4821 0.1667 0.8846 0.0
C1098 C 0.48525 0.14792 0.81277 0.0
C1099 C 0.47709 0.16707 0.84136 0.0
C1100 C 0.46912 0.17982 0.84537 0.0
C1101 C 0.49053 0.14177 0.836 0.0
C1102 C 0.48995 0.1491 0.86214 0.0
C1103 C 0.48283 0.1613 0.86453 0.0
C1104 C 0.49731 0.14487 0.88712 0.0
C1105 C 0.49666 0.12749 0.83224 0.0
C1106 C 0.4861 0.13762 0.91042 0.0
C1107 C 0.4933 0.13437 0.93432 0.0
C1108 C 0.51186 0.13831 0.93536 0.0
C1109 C 0.52304 0.14559 0.91195 0.0
C1110 C 0.51587 0.14897 0.88819 0.0
H1111 H 0.49047 0.11883 0.81337 0.0
H1112 H 0.51205 0.13493 0.83009 0.0
H1113 H 0.49272 0.11798 0.85005 0.0
H1114 H 0.47177 0.13448 0.91013 0.0
H1115 H 0.4843 0.12876 0.95195 0.0
H1116 H 0.87594 0.38331 0.96559 0.0
H1117 H 0.87249 0.36451 0.92454 0.0
H1118 H 0.84429 0.38931 0.88339 0.0
H1119 H 0.84832 0.40866 0.92393 0.0
H1120 H 0.84143 0.3385 0.90339 0.0
H1121 H 0.87732 0.39106 0.82292 0.0
H1122 H 0.88013 0.39736 0.8589 0.0
H1123 H 0.86046 0.39504 0.83985 0.0
C1124 C 0.86921 0.38493 0.94768 0.0
C1125 C 0.86235 0.39744 0.94806 0.0
C1126 C 0.86733 0.37424 0.92416 0.0
C1127 C 0.85845 0.37573 0.90062 0.0
C1128 C 0.85175 0.38834 0.9009 0.0
H1129 H 0.78909 0.30553 0.77839 0.0
H1130 H 0.81189 0.33303 0.80455 0.0
C1131 C 0.85386 0.39924 0.92426 0.0
C1132 C 0.85422 0.36255 0.87706 0.0
H1133 H 0.85349 0.35988 0.80704 0.0
C1134 C 0.84453 0.34321 0.88237 0.0
C1135 C 0.85827 0.36866 0.84958 0.0
C1136 C 0.8698 0.38918 0.84252 0.0
C1137 C 0.83771 0.32984 0.86103 0.0
C1138 C 0.84078 0.33596 0.83356 0.0
C1139 C 0.85122 0.35525 0.82813 0.0
C1140 C 0.83075 0.32252 0.81086 0.0
C1141 C 0.82622 0.30925 0.86801 0.0
C1142 C 0.8345 0.30813 0.80416 0.0
C1143 C 0.82149 0.29237 0.78899 0.0
C1144 C 0.80458 0.29086 0.78068 0.0
C1145 C 0.80196 0.30629 0.78475 0.0
C1146 C 0.81499 0.32203 0.79964 0.0
H1147 H 0.82345 0.30703 0.89033 0.0
H1148 H 0.81266 0.30261 0.8569 0.0
H1149 H 0.83374 0.30193 0.86149 0.0
H1150 H 0.84668 0.30835 0.81256 0.0
H1151 H 0.82383 0.28066 0.78621 0.0
H1152 H 0.5265 0.36889 0.48791 0.0
H1153 H 0.51035 0.34693 0.44989 0.0
H1154 H 0.54763 0.3882 0.39252 0.0
H1155 H 0.56384 0.41032 0.43027 0.0
H1156 H 0.50829 0.36995 0.37868 0.0
H1157 H 0.53172 0.31932 0.4038 0.0
H1158 H 0.52129 0.32553 0.43123 0.0
H1159 H 0.5432 0.34305 0.41743 0.0
C1160 C 0.53131 0.37332 0.46723 0.0
C1161 C 0.54654 0.39138 0.4622 0.0
C1162 C 0.52209 0.36071 0.44554 0.0
C1163 C 0.52794 0.3659 0.41847 0.0
C1164 C 0.54296 0.38394 0.41331 0.0
H1165 H 0.50074 0.31975 0.25537 0.0
H1166 H 0.51116 0.33952 0.29656 0.0
C1167 C 0.55223 0.39653 0.43495 0.0
C1168 C 0.51837 0.35262 0.39539 0.0
H1169 H 0.51125 0.31164 0.36619 0.0
C1170 C 0.50887 0.35716 0.37595 0.0
C1171 C 0.51905 0.33591 0.39207 0.0
C1172 C 0.52946 0.33064 0.41208 0.0
C1173 C 0.50009 0.34544 0.35311 0.0
C1174 C 0.50123 0.32899 0.34933 0.0
C1175 C 0.51038 0.32425 0.36913 0.0
C1176 C 0.49396 0.31705 0.32426 0.0
C1177 C 0.48958 0.35075 0.33335 0.0
C1178 C 0.48105 0.29774 0.32615 0.0
C1179 C 0.47517 0.2863 0.30258 0.0
C1180 C 0.48219 0.29399 0.27672 0.0
C1181 C 0.49495 0.31338 0.27491 0.0
C1182 C 0.50085 0.32476 0.29845 0.0
H1183 H 0.48497 0.35988 0.3434 0.0
H1184 H 0.49889 0.35873 0.31618 0.0
H1185 H 0.47717 0.33809 0.32472 0.0
H1186 H 0.47567 0.29148 0.34591 0.0
H1187 H 0.46537 0.27141 0.30468 0.0
H1188 H 0.7185 0.22493 0.26369 0.0
H1189 H 0.69955 0.21078 0.30414 0.0
H1190 H 0.6918 0.15675 0.27998 0.0
H1191 H 0.71075 0.17083 0.23901 0.0
H1192 H 0.65854 0.15604 0.29467 0.0
H1193 H 0.71346 0.19301 0.37369 0.0
H1194 H 0.71247 0.20874 0.3495 0.0
H1195 H 0.71873 0.19182 0.33805 0.0
C1196 C 0.7129 0.21005 0.26698 0.0
C1197 C 0.71616 0.199 0.24812 0.0
C1198 C 0.70215 0.20202 0.29024 0.0
C1199 C 0.69451 0.18279 0.29526 0.0
C1200 C 0.6977 0.17166 0.27654 0.0
H1201 H 0.63976 0.13949 0.45254 0.0
H1202 H 0.6591 0.14524 0.412 0.0
C1203 C 0.70854 0.17972 0.2532 0.0
C1204 C 0.68253 0.17437 0.31949 0.0
H1205 H 0.68185 0.17923 0.38896 0.0
C1206 C 0.66366 0.16088 0.31535 0.0
C1207 C 0.6893 0.18052 0.34645 0.0
C1208 C 0.70965 0.19418 0.35227 0.0
C1209 C 0.65119 0.15407 0.33738 0.0
C1210 C 0.65774 0.16118 0.36413 0.0
C1211 C 0.67679 0.17395 0.3684 0.0
C1212 C 0.64501 0.15626 0.38783 0.0
C1213 C 0.63109 0.13945 0.33178 0.0
C1214 C 0.63067 0.16055 0.3877 0.0
C1215 C 0.61956 0.15727 0.41082 0.0
C1216 C 0.62269 0.14977 0.43466 0.0
C1217 C 0.63694 0.14528 0.43458 0.0
C1218 C 0.64802 0.14854 0.41142 0.0
H1219 H 0.62961 0.13138 0.31261 0.0
H1220 H 0.6251 0.12946 0.34899 0.0
H1221 H 0.62285 0.14655 0.32926 0.0
H1222 H 0.62838 0.16694 0.36996 0.0
H1223 H 0.60878 0.16099 0.41017 0.0
H1224 H 0.87448 0.49346 0.39061 0.0
H1225 H 0.86546 0.51287 0.36443 0.0
H1226 H 0.82283 0.46323 0.32271 0.0
H1227 H 0.83201 0.44388 0.34807 0.0
H1228 H 0.84572 0.49144 0.28763 0.0
H1229 H 0.81955 0.51898 0.3704 0.0
H1230 H 0.84258 0.52263 0.37549 0.0
H1231 H 0.82288 0.49916 0.3752 0.0
C1232 C 0.86302 0.48666 0.37611 0.0
C1233 C 0.85391 0.4671 0.37151 0.0
C1234 C 0.85784 0.49777 0.36127 0.0
C1235 C 0.84337 0.48945 0.34182 0.0
C1236 C 0.83401 0.46991 0.33768 0.0
H1237 H 0.77564 0.52072 0.25422 0.0
H1238 H 0.79092 0.51116 0.28769 0.0
C1239 C 0.83922 0.45884 0.35234 0.0
C1240 C 0.83858 0.50102 0.32439 0.0
H1241 H 0.8199 0.52964 0.32556 0.0
C1242 C 0.84021 0.49992 0.2959 0.0
C1243 C 0.83137 0.51201 0.33533 0.0
C1244 C 0.82882 0.51322 0.36576 0.0
C1245 C 0.83427 0.50902 0.27792 0.0
C1246 C 0.82692 0.51992 0.2888 0.0
C1247 C 0.82574 0.52145 0.31735 0.0
C1248 C 0.81851 0.52802 0.27077 0.0
C1249 C 0.83507 0.50611 0.24744 0.0
C1250 C 0.82909 0.54122 0.25073 0.0
C1251 C 0.82035 0.54663 0.23131 0.0
C1252 C 0.80093 0.539 0.23182 0.0
C1253 C 0.7906 0.52673 0.25304 0.0
C1254 C 0.79932 0.5213 0.27231 0.0
H1255 H 0.83756 0.49433 0.2427 0.0
H1256 H 0.82189 0.50314 0.23725 0.0
H1257 H 0.84663 0.51908 0.2385 0.0
H1258 H 0.84399 0.54684 0.24954 0.0
H1259 H 0.82872 0.55625 0.2154 0.0
H1260 H 0.60165 0.10692 0.94384 0.0
H1261 H 0.62649 0.11562 0.9102 0.0
H1262 H 0.6137 0.15564 0.87506 0.0
H1263 H 0.58868 0.14679 0.90805 0.0
H1264 H 0.62262 0.13674 0.83571 0.0
H1265 H 0.67499 0.16575 0.92035 0.0
H1266 H 0.65777 0.14126 0.92284 0.0
H1267 H 0.65084 0.15865 0.9255 0.0
C1268 C 0.60394 0.11737 0.92869 0.0
C1269 C 0.59337 0.12637 0.9289 0.0
C1270 C 0.61819 0.12237 0.90956 0.0
C1271 C 0.62217 0.13655 0.89053 0.0
C1272 C 0.61092 0.14473 0.88966 0.0
H1273 H 0.72319 0.21825 0.81845 0.0
H1274 H 0.69423 0.19936 0.84307 0.0
C1275 C 0.59665 0.13969 0.90864 0.0
C1276 C 0.63888 0.14406 0.87291 0.0
H1277 H 0.68641 0.1692 0.87557 0.0
C1278 C 0.63659 0.14367 0.84434 0.0
C1279 C 0.65706 0.15329 0.88433 0.0
C1280 C 0.66042 0.15496 0.91492 0.0
C1281 C 0.65203 0.15268 0.82689 0.0
C1282 C 0.67018 0.16205 0.83838 0.0
C1283 C 0.67245 0.16194 0.86686 0.0
C1284 C 0.68702 0.17338 0.82167 0.0
C1285 C 0.64879 0.15283 0.79649 0.0
C1286 C 0.69251 0.16507 0.80124 0.0
C1287 C 0.70907 0.17595 0.78681 0.0
C1288 C 0.72042 0.19526 0.79277 0.0
C1289 C 0.71472 0.2035 0.81307 0.0
C1290 C 0.69819 0.19269 0.82731 0.0
H1291 H 0.63403 0.14823 0.79161 0.0
H1292 H 0.65782 0.16711 0.78814 0.0
H1293 H 0.65238 0.14309 0.7859 0.0
H1294 H 0.68425 0.15013 0.79691 0.0
H1295 H 0.71315 0.16915 0.77142 0.0
H1296 H 0.87138 0.48937 0.92849 0.0
H1297 H 0.86648 0.50412 0.88839 0.0
H1298 H 0.81753 0.45148 0.86635 0.0
H1299 H 0.8224 0.43662 0.90588 0.0
H1300 H 0.84097 0.4692 0.82232 0.0
H1301 H 0.82554 0.51806 0.88096 0.0
H1302 H 0.84729 0.51939 0.88904 0.0
H1303 H 0.82573 0.49843 0.89669 0.0
C1304 C 0.8596 0.48094 0.91505 0.0
C1305 C 0.84723 0.46184 0.92045 0.0
C1306 C 0.85677 0.48942 0.89226 0.0
C1307 C 0.84149 0.47894 0.87465 0.0
C1308 C 0.82936 0.45983 0.87975 0.0
H1309 H 0.78286 0.50696 0.75771 0.0
H1310 H 0.79446 0.49829 0.79767 0.0
C1311 C 0.83217 0.45137 0.90241 0.0
C1312 C 0.83795 0.48765 0.85074 0.0
H1313 H 0.82512 0.5195 0.83273 0.0
C1314 C 0.83766 0.48031 0.82453 0.0
C1315 C 0.83343 0.50199 0.85381 0.0
C1316 C 0.83284 0.50988 0.88162 0.0
C1317 C 0.83266 0.48669 0.80129 0.0
C1318 C 0.82817 0.50105 0.80433 0.0
C1319 C 0.82871 0.50859 0.83049 0.0
C1320 C 0.82179 0.50759 0.78078 0.0
C1321 C 0.83154 0.47749 0.77386 0.0
C1322 C 0.83347 0.51609 0.75829 0.0
C1323 C 0.82687 0.52098 0.73532 0.0
C1324 C 0.80848 0.5176 0.73451 0.0
C1325 C 0.79706 0.50971 0.75755 0.0
C1326 C 0.80367 0.50477 0.78046 0.0
H1327 H 0.83136 0.46399 0.77603 0.0
H1328 H 0.81885 0.47476 0.76237 0.0
H1329 H 0.84388 0.48703 0.76149 0.0
H1330 H 0.84762 0.5187 0.75837 0.0
H1331 H 0.83611 0.52719 0.71808 0.0
H1332 H 0.49911 0.3528 0.90345 0.0
H1333 H 0.49154 0.3326 0.8627 0.0
H1334 H 0.53101 0.38007 0.81566 0.0
H1335 H 0.53876 0.40043 0.85632 0.0
H1336 H 0.47919 0.33553 0.80773 0.0
H1337 H 0.54857 0.3406 0.81034 0.0
H1338 H 0.53941 0.34716 0.83927 0.0
H1339 H 0.54875 0.36252 0.81052 0.0
C1340 C 0.50605 0.35901 0.88438 0.0
C1341 C 0.51967 0.3782 0.8832 0.0
C1342 C 0.50167 0.34745 0.86112 0.0
C1343 C 0.51091 0.35482 0.83635 0.0
C1344 C 0.52391 0.3741 0.83474 0.0
H1345 H 0.48729 0.29608 0.67816 0.0
H1346 H 0.49265 0.31873 0.71498 0.0
C1347 C 0.52826 0.38571 0.85796 0.0
C1348 C 0.50761 0.3421 0.81266 0.0
H1349 H 0.52826 0.3229 0.77408 0.0
C1350 C 0.48991 0.33282 0.80023 0.0
C1351 C 0.5216 0.33846 0.80325 0.0
C1352 C 0.54063 0.34756 0.81659 0.0
C1353 C 0.48586 0.31998 0.77846 0.0
C1354 C 0.49991 0.31648 0.76891 0.0
C1355 C 0.51758 0.32575 0.78139 0.0
C1356 C 0.4964 0.30272 0.74661 0.0
C1357 C 0.46648 0.3099 0.76626 0.0
C1358 C 0.49701 0.28638 0.75218 0.0
C1359 C 0.49396 0.27341 0.73125 0.0
C1360 C 0.4904 0.27661 0.70423 0.0
C1361 C 0.48994 0.29312 0.69871 0.0
C1362 C 0.49291 0.30605 0.71973 0.0
H1363 H 0.45637 0.3115 0.77925 0.0
H1364 H 0.46676 0.3158 0.74581 0.0
H1365 H 0.46149 0.29469 0.76342 0.0
H1366 H 0.49977 0.28363 0.7728 0.0
H1367 H 0.49448 0.2609 0.73627 0.0
H1368 H 0.43879 0.59178 0.57969 0.0
H1369 H 0.4537 0.6122 0.61959 0.0
H1370 H 0.50726 0.63523 0.58045 0.0
H1371 H 0.49235 0.61542 0.54 0.0
H1372 H 0.48036 0.61676 0.65583 0.0
H1373 H 0.50519 0.68202 0.59579 0.0
H1374 H 0.48918 0.65907 0.58175 0.0
H1375 H 0.51371 0.6671 0.58372 0.0
C1376 C 0.45375 0.60119 0.57957 0.0
C1377 C 0.46435 0.60222 0.55649 0.0
C1378 C 0.46227 0.61279 0.60245 0.0
C1379 C 0.48156 0.62552 0.60282 0.0
C1380 C 0.4923 0.62591 0.58033 0.0
H1381 H 0.54026 0.72048 0.71616 0.0
H1382 H 0.53614 0.69342 0.6889 0.0
C1383 C 0.48375 0.61455 0.55725 0.0
C1384 C 0.49015 0.63892 0.62619 0.0
H1385 H 0.51278 0.68571 0.64255 0.0
C1386 C 0.48762 0.63184 0.65291 0.0
C1387 C 0.49964 0.65862 0.6224 0.0
C1388 C 0.50197 0.6672 0.59443 0.0
C1389 C 0.49384 0.64394 0.67593 0.0
C1390 C 0.50281 0.66356 0.67209 0.0
C1391 C 0.50611 0.67064 0.64539 0.0
C1392 C 0.50633 0.67697 0.69492 0.0
C1393 C 0.49039 0.63566 0.70419 0.0
C1394 C 0.49107 0.67629 0.70833 0.0
C1395 C 0.49336 0.69174 0.72363 0.0
C1396 C 0.51096 0.70809 0.72588 0.0
C1397 C 0.52657 0.70799 0.71496 0.0
C1398 C 0.52422 0.69258 0.69929 0.0
H1399 H 0.4888 0.62144 0.70375 0.0
H1400 H 0.50192 0.64485 0.71848 0.0
H1401 H 0.47729 0.63431 0.7123 0.0
H1402 H 0.47711 0.66454 0.70489 0.0
H1403 H 0.48111 0.69147 0.73184 0.0
H1404 H 0.354 0.87034 0.54482 0.0
H1405 H 0.33568 0.8639 0.58673 0.0
H1406 H 0.37148 0.84758 0.62698 0.0
H1407 H 0.39011 0.85443 0.58562 0.0
H1408 H 0.31579 0.83132 0.61276 0.0
H1409 H 0.36999 0.88267 0.68357 0.0
H1410 H 0.37314 0.88353 0.6469 0.0
H1411 H 0.37726 0.86785 0.66723 0.0
C1412 C 0.3581 0.86557 0.56268 0.0
C1413 C 0.37359 0.86298 0.56184 0.0
C1414 C 0.3476 0.8619 0.58662 0.0
C1415 C 0.3524 0.85559 0.61017 0.0
C1416 C 0.36781 0.85295 0.60935 0.0
H1417 H 0.28505 0.78781 0.74108 0.0
H1418 H 0.3012 0.80109 0.69826 0.0
C1419 C 0.37838 0.85674 0.58554 0.0
C1420 C 0.3407 0.85067 0.63511 0.0
H1421 H 0.34295 0.85715 0.70456 0.0
C1422 C 0.32168 0.83717 0.63279 0.0
C1423 C 0.34827 0.85854 0.66119 0.0
C1424 C 0.36824 0.8741 0.66486 0.0
C1425 C 0.31024 0.83066 0.65598 0.0
C1426 C 0.31815 0.83751 0.68225 0.0
C1427 C 0.33694 0.8517 0.68445 0.0
C1428 C 0.30749 0.82944 0.70778 0.0
C1429 C 0.28982 0.81643 0.65206 0.0
C1430 C 0.30597 0.84103 0.72771 0.0
C1431 C 0.29689 0.83349 0.75248 0.0
C1432 C 0.28925 0.81424 0.75779 0.0
C1433 C 0.29066 0.80267 0.73764 0.0
C1434 C 0.29978 0.81022 0.713 0.0
H1435 H 0.28484 0.81748 0.63138 0.0
H1436 H 0.2877 0.80206 0.65393 0.0
H1437 H 0.28116 0.81829 0.66772 0.0
H1438 H 0.31194 0.85593 0.72418 0.0
H1439 H 0.29608 0.84279 0.76758 0.0
H1440 H 0.1415 0.51387 0.56372 0.0
H1441 H 0.15625 0.5047 0.59877 0.0
H1442 H 0.16883 0.5541 0.64667 0.0
H1443 H 0.1538 0.56326 0.61197 0.0
H1444 H 0.19239 0.52376 0.6163 0.0
H1445 H 0.14502 0.51277 0.70313 0.0
H1446 H 0.13921 0.51486 0.66819 0.0
H1447 H 0.15456 0.53554 0.68805 0.0
C1448 C 0.14726 0.52274 0.5818 0.0
C1449 C 0.14639 0.53929 0.58503 0.0
C1450 C 0.1557 0.51747 0.60181 0.0
C1451 C 0.16342 0.52857 0.6255 0.0
C1452 C 0.1626 0.54509 0.62884 0.0
H1453 H 0.24674 0.53048 0.73372 0.0
H1454 H 0.22946 0.53637 0.69855 0.0
C1455 C 0.15408 0.55036 0.60888 0.0
C1456 C 0.17302 0.52327 0.6461 0.0
H1457 H 0.17343 0.51361 0.71389 0.0
C1458 C 0.18818 0.52143 0.63761 0.0
C1459 C 0.16735 0.51998 0.67381 0.0
C1460 C 0.15053 0.52069 0.68383 0.0
C1461 C 0.19809 0.51681 0.6562 0.0
C1462 C 0.19292 0.51431 0.68412 0.0
C1463 C 0.17749 0.51571 0.6925 0.0
C1464 C 0.20347 0.51048 0.70506 0.0
C1465 C 0.21389 0.51445 0.64568 0.0
C1466 C 0.1945 0.49412 0.72078 0.0
C1467 C 0.20431 0.49076 0.74109 0.0
C1468 C 0.22326 0.50376 0.74612 0.0
C1469 C 0.2322 0.52011 0.73027 0.0
C1470 C 0.22237 0.52347 0.71004 0.0
H1471 H 0.21262 0.51149 0.62326 0.0
H1472 H 0.22729 0.52765 0.64951 0.0
H1473 H 0.21438 0.50286 0.65631 0.0
H1474 H 0.17989 0.48396 0.71734 0.0
H1475 H 0.19699 0.47805 0.75296 0.0
H1476 H 0.38474 0.80277 0.10772 0.0
H1477 H 0.3606 0.79661 0.14136 0.0
H1478 H 0.36451 0.8495 0.12252 0.0
H1479 H 0.38847 0.85565 0.08838 0.0
H1480 H 0.36136 0.81638 0.18755 0.0
H1481 H 0.30894 0.81218 0.11281 0.0
H1482 H 0.32967 0.81195 0.10241 0.0
H1483 H 0.33095 0.83374 0.11186 0.0
C1484 C 0.3805 0.81313 0.11071 0.0
C1485 C 0.38844 0.82965 0.09519 0.0
C1486 C 0.3667 0.80958 0.12998 0.0
C1487 C 0.36053 0.82244 0.13412 0.0
C1488 C 0.36877 0.83919 0.11922 0.0
H1489 H 0.29253 0.81842 0.27339 0.0
H1490 H 0.31747 0.82788 0.23988 0.0
C1491 C 0.38255 0.84273 0.09984 0.0
C1492 C 0.34549 0.81822 0.1541 0.0
H1493 H 0.30126 0.81072 0.15982 0.0
C1494 C 0.34823 0.81517 0.18152 0.0
C1495 C 0.32827 0.8164 0.14608 0.0
C1496 C 0.32414 0.81856 0.11665 0.0
C1497 C 0.33425 0.8104 0.20118 0.0
C1498 C 0.31719 0.809 0.19329 0.0
C1499 C 0.31442 0.81199 0.16586 0.0
C1500 C 0.3018 0.80379 0.21302 0.0
C1501 C 0.33769 0.80638 0.23003 0.0
C1502 C 0.28448 0.78745 0.20856 0.0
C1503 C 0.27011 0.78207 0.22754 0.0
C1504 C 0.27278 0.79296 0.25138 0.0
C1505 C 0.29002 0.8096 0.2554 0.0
C1506 C 0.30435 0.815 0.23634 0.0
H1507 H 0.34929 0.80337 0.23097 0.0
H1508 H 0.34149 0.81886 0.24329 0.0
H1509 H 0.32498 0.79423 0.23856 0.0
H1510 H 0.28219 0.77865 0.19062 0.0
H1511 H 0.25703 0.7692 0.2237 0.0
H1512 H 0.13311 0.52881 0.08942 0.0
H1513 H 0.13716 0.51701 0.13333 0.0
H1514 H 0.17454 0.50177 0.09513 0.0
H1515 H 0.17062 0.51342 0.0513 0.0
H1516 H 0.13208 0.47878 0.146 0.0
H1517 H 0.20415 0.53894 0.16093 0.0
H1518 H 0.18757 0.53986 0.13799 0.0
H1519 H 0.19916 0.52733 0.12797 0.0
C1520 C 0.14209 0.52283 0.09033 0.0
C1521 C 0.15165 0.52218 0.0669 0.0
C1522 C 0.14435 0.51608 0.11539 0.0
C1523 C 0.1563 0.50874 0.11743 0.0
C1524 C 0.16542 0.50758 0.09397 0.0
H1525 H 0.2023 0.4723 0.24428 0.0
H1526 H 0.19342 0.481 0.20166 0.0
C1527 C 0.16312 0.51422 0.06893 0.0
C1528 C 0.15978 0.50278 0.14419 0.0
H1529 H 0.19391 0.5138 0.19189 0.0
C1530 C 0.14553 0.48645 0.15621 0.0
C1531 C 0.17736 0.51288 0.15731 0.0
C1532 C 0.19294 0.53082 0.14558 0.0
C1533 C 0.1486 0.4796 0.18073 0.0
C1534 C 0.16628 0.4896 0.19373 0.0
C1535 C 0.1804 0.50611 0.18184 0.0
C1536 C 0.17067 0.48312 0.21942 0.0
C1537 C 0.13312 0.4614 0.19199 0.0
C1538 C 0.1608 0.48137 0.2436 0.0
C1539 C 0.16578 0.47629 0.26807 0.0
C1540 C 0.18088 0.47307 0.26886 0.0
C1541 C 0.19062 0.4747 0.24449 0.0
C1542 C 0.18557 0.47968 0.22007 0.0
H1543 H 0.12238 0.45309 0.17615 0.0
H1544 H 0.13866 0.45265 0.20021 0.0
H1545 H 0.12622 0.46458 0.20899 0.0
H1546 H 0.14951 0.48437 0.24372 0.0
H1547 H 0.15805 0.4753 0.28646 0.0
H1548 H 0.54396 0.71533 0.29696 0.0
H1549 H 0.54048 0.69639 0.25602 0.0
H1550 H 0.51508 0.72337 0.21309 0.0
H1551 H 0.51911 0.74278 0.25351 0.0
H1552 H 0.50933 0.67139 0.23331 0.0
H1553 H 0.54891 0.72407 0.15456 0.0
H1554 H 0.55117 0.73006 0.19063 0.0
H1555 H 0.53243 0.72902 0.17059 0.0
C1556 C 0.53784 0.71739 0.27869 0.0
C1557 C 0.53178 0.73054 0.27853 0.0
C1558 C 0.53594 0.70662 0.25525 0.0
C1559 C 0.52788 0.7087 0.23123 0.0
C1560 C 0.52193 0.72192 0.231 0.0
H1561 H 0.4591 0.64276 0.10608 0.0
H1562 H 0.4826 0.66917 0.13325 0.0
C1563 C 0.52404 0.73287 0.25429 0.0
C1564 C 0.52365 0.69561 0.20757 0.0
H1565 H 0.52417 0.69362 0.13756 0.0
C1566 C 0.51302 0.67625 0.21244 0.0
C1567 C 0.52851 0.70192 0.1803 0.0
C1568 C 0.54106 0.72241 0.17377 0.0
C1569 C 0.506 0.66312 0.19078 0.0
C1570 C 0.50985 0.66952 0.16347 0.0
C1571 C 0.52129 0.68878 0.15854 0.0
C1572 C 0.49962 0.6566 0.14033 0.0
C1573 C 0.49345 0.64258 0.19725 0.0
C1574 C 0.50215 0.6414 0.13373 0.0
C1575 C 0.48873 0.62626 0.11799 0.0
C1576 C 0.47262 0.62618 0.109 0.0
C1577 C 0.47132 0.64241 0.11297 0.0
C1578 C 0.48476 0.65753 0.12845 0.0
H1579 H 0.49022 0.64024 0.21945 0.0
H1580 H 0.48014 0.63672 0.18563 0.0
H1581 H 0.50036 0.63459 0.19098 0.0
H1582 H 0.51364 0.64053 0.14261 0.0
H1583 H 0.49006 0.61392 0.1153 0.0
H1584 H 0.16166 0.64871 0.58489 0.0
H1585 H 0.17354 0.66811 0.62631 0.0
H1586 H 0.13927 0.61974 0.67585 0.0
H1587 H 0.12758 0.60003 0.63439 0.0
H1588 H 0.1565 0.67617 0.66807 0.0
H1589 H 0.19105 0.63815 0.7073 0.0
H1590 H 0.18186 0.63474 0.67288 0.0
H1591 H 0.16644 0.62365 0.70118 0.0
C1592 C 0.15653 0.64217 0.60455 0.0
C1593 C 0.1438 0.62277 0.60635 0.0
C1594 C 0.16334 0.6533 0.62823 0.0
C1595 C 0.15757 0.6453 0.65417 0.0
C1596 C 0.14424 0.62611 0.65604 0.0
H1597 H 0.19571 0.6974 0.81619 0.0
H1598 H 0.1781 0.67571 0.77856 0.0
C1599 C 0.13747 0.6149 0.63233 0.0
C1600 C 0.16596 0.6571 0.67909 0.0
H1601 H 0.19308 0.66277 0.7351 0.0
C1602 C 0.16444 0.6732 0.68279 0.0
C1603 C 0.17636 0.65321 0.69822 0.0
C1604 C 0.17921 0.63661 0.69467 0.0
C1605 C 0.17312 0.68559 0.70501 0.0
C1606 C 0.18372 0.68183 0.72385 0.0
C1607 C 0.18491 0.66554 0.72056 0.0
C1608 C 0.19426 0.69503 0.74656 0.0
C1609 C 0.17091 0.7026 0.70821 0.0
C1610 C 0.20933 0.71295 0.74094 0.0
C1611 C 0.2195 0.72535 0.76233 0.0
C1612 C 0.21476 0.72005 0.78979 0.0
C1613 C 0.1997 0.70198 0.79531 0.0
C1614 C 0.18962 0.68956 0.77386 0.0
H1615 H 0.15893 0.70113 0.69605 0.0
H1616 H 0.16892 0.70504 0.73007 0.0
H1617 H 0.18374 0.7152 0.70092 0.0
H1618 H 0.21331 0.71729 0.71996 0.0
H1619 H 0.23101 0.73912 0.75731 0.0
H1620 H 0.27301 0.49324 0.74139 0.0
H1621 H 0.29356 0.50038 0.70204 0.0
H1622 H 0.32447 0.4792 0.7448 0.0
H1623 H 0.30418 0.47223 0.78447 0.0
H1624 H 0.34698 0.51398 0.72365 0.0
H1625 H 0.29752 0.46673 0.64395 0.0
H1626 H 0.28973 0.48104 0.66069 0.0
H1627 H 0.29208 0.46387 0.68005 0.0
C1628 C 0.28401 0.48985 0.74235 0.0
C1629 C 0.28694 0.48218 0.76618 0.0
C1630 C 0.29568 0.49383 0.71972 0.0
C1631 C 0.31039 0.49008 0.72034 0.0
C1632 C 0.31313 0.48211 0.74384 0.0
H1633 H 0.38082 0.50853 0.57604 0.0
H1634 H 0.36073 0.49372 0.61574 0.0
C1635 C 0.30151 0.47814 0.76651 0.0
C1636 C 0.32376 0.49588 0.69736 0.0
H1637 H 0.32667 0.49209 0.62798 0.0
C1638 C 0.34258 0.509 0.70279 0.0
C1639 C 0.31807 0.48919 0.67021 0.0
C1640 C 0.29828 0.47428 0.66337 0.0
C1641 C 0.35569 0.51626 0.68163 0.0
C1642 C 0.34976 0.51044 0.65428 0.0
C1643 C 0.33113 0.49667 0.64896 0.0
C1644 C 0.3624 0.51934 0.63083 0.0
C1645 C 0.37575 0.53023 0.68871 0.0
C1646 C 0.36986 0.53858 0.62613 0.0
C1647 C 0.38127 0.54704 0.60359 0.0
C1648 C 0.38539 0.53641 0.58515 0.0
C1649 C 0.37796 0.51711 0.58993 0.0
C1650 C 0.36647 0.50863 0.61254 0.0
H1651 H 0.37903 0.52894 0.71037 0.0
H1652 H 0.38542 0.52832 0.67515 0.0
H1653 H 0.37829 0.54469 0.68595 0.0
H1654 H 0.36661 0.54702 0.63971 0.0
H1655 H 0.3867 0.56191 0.60049 0.0
H1656 H 0.49667 0.77742 0.69019 0.0
H1657 H 0.48438 0.79492 0.66687 0.0
H1658 H 0.51952 0.84396 0.71654 0.0
H1659 H 0.53194 0.82643 0.74033 0.0
H1660 H 0.47985 0.83411 0.70863 0.0
H1661 H 0.5171 0.83836 0.61221 0.0
H1662 H 0.50454 0.81515 0.62625 0.0
H1663 H 0.5239 0.83359 0.64497 0.0
C1664 C 0.50167 0.79184 0.69646 0.0
C1665 C 0.5153 0.80055 0.7171 0.0
C1666 C 0.4947 0.80185 0.68298 0.0
C1667 C 0.50125 0.82075 0.68978 0.0
C1668 C 0.5144 0.82938 0.71096 0.0
H1669 H 0.46976 0.87947 0.57214 0.0
H1670 H 0.48848 0.87503 0.60678 0.0
C1671 C 0.52146 0.81937 0.72447 0.0
C1672 C 0.49447 0.83136 0.67409 0.0
H1673 H 0.4916 0.84395 0.60879 0.0
C1674 C 0.48264 0.83661 0.6869 0.0
C1675 C 0.49845 0.83488 0.64591 0.0
C1676 C 0.51184 0.83038 0.63152 0.0
C1677 C 0.47368 0.84419 0.67174 0.0
C1678 C 0.4765 0.8463 0.64309 0.0
C1679 C 0.48932 0.84221 0.63071 0.0
C1680 C 0.46503 0.85084 0.62502 0.0
C1681 C 0.46099 0.8495 0.68642 0.0
C1682 C 0.44564 0.83883 0.62398 0.0
C1683 C 0.43493 0.8413 0.60425 0.0
C1684 C 0.44344 0.85574 0.58498 0.0
C1685 C 0.46279 0.86819 0.58667 0.0
C1686 C 0.47351 0.8657 0.60646 0.0
H1687 H 0.46525 0.8533 0.70822 0.0
H1688 H 0.4609 0.8615 0.67641 0.0
H1689 H 0.44657 0.83729 0.68609 0.0
H1690 H 0.43885 0.82699 0.63763 0.0
H1691 H 0.42006 0.83147 0.60354 0.0
H1692 H 0.29234 0.48448 0.29864 0.0
H1693 H 0.31375 0.49217 0.26031 0.0
H1694 H 0.26727 0.46726 0.20377 0.0
H1695 H 0.24567 0.45974 0.24206 0.0
H1696 H 0.3173 0.47043 0.2186 0.0
H1697 H 0.29871 0.52169 0.17749 0.0
H1698 H 0.29186 0.51184 0.21122 0.0
H1699 H 0.27981 0.49799 0.18143 0.0
C1700 C 0.28662 0.48045 0.27811 0.0
C1701 C 0.26732 0.47171 0.27338 0.0
C1702 C 0.29888 0.48482 0.25622 0.0
C1703 C 0.29209 0.48055 0.22921 0.0
C1704 C 0.27279 0.47097 0.22446 0.0
H1705 H 0.37515 0.50772 0.09847 0.0
H1706 H 0.34606 0.49013 0.12413 0.0
C1707 C 0.26048 0.46662 0.24637 0.0
C1708 C 0.30545 0.48718 0.20623 0.0
H1709 H 0.32267 0.51961 0.15532 0.0
C1710 C 0.31834 0.48097 0.20445 0.0
C1711 C 0.30679 0.50105 0.18802 0.0
C1712 C 0.29368 0.50869 0.18962 0.0
C1713 C 0.33301 0.48878 0.18559 0.0
C1714 C 0.3346 0.50296 0.16782 0.0
C1715 C 0.32128 0.50864 0.16888 0.0
C1716 C 0.35117 0.51363 0.1504 0.0
C1717 C 0.34728 0.48257 0.18586 0.0
C1718 C 0.3633 0.53277 0.15609 0.0
C1719 C 0.3798 0.54284 0.14147 0.0
C1720 C 0.38447 0.53396 0.12076 0.0
C1721 C 0.37197 0.51493 0.11439 0.0
C1722 C 0.3554 0.50484 0.12908 0.0
H1723 H 0.34572 0.47379 0.20391 0.0
H1724 H 0.34562 0.47414 0.16706 0.0
H1725 H 0.36162 0.49494 0.18601 0.0
H1726 H 0.36026 0.5398 0.17248 0.0
H1727 H 0.38913 0.55743 0.14701 0.0
H1728 H 0.52172 0.79332 0.24215 0.0
H1729 H 0.5134 0.80487 0.20202 0.0
H1730 H 0.53546 0.85933 0.24103 0.0
H1731 H 0.54331 0.84764 0.28189 0.0
H1732 H 0.50218 0.84815 0.21951 0.0
H1733 H 0.54443 0.83796 0.14134 0.0
H1734 H 0.52994 0.8165 0.15906 0.0
H1735 H 0.54787 0.83658 0.17757 0.0
C1736 C 0.52506 0.80784 0.24213 0.0
C1737 C 0.53323 0.81958 0.26524 0.0
C1738 C 0.5204 0.81447 0.21902 0.0
C1739 C 0.52412 0.83308 0.21825 0.0
C1740 C 0.53256 0.84495 0.2411 0.0
H1741 H 0.50393 0.87241 0.06327 0.0
H1742 H 0.51891 0.86957 0.10459 0.0
C1743 C 0.53707 0.83826 0.26441 0.0
C1744 C 0.51799 0.83961 0.1943 0.0
H1745 H 0.5183 0.8401 0.12438 0.0
C1746 C 0.50593 0.84666 0.19872 0.0
C1747 C 0.52313 0.83801 0.16717 0.0
C1748 C 0.53722 0.83205 0.16103 0.0
C1749 C 0.49822 0.85136 0.17672 0.0
C1750 C 0.50223 0.84837 0.14954 0.0
C1751 C 0.51495 0.84212 0.14518 0.0
C1752 C 0.49307 0.8511 0.12531 0.0
C1753 C 0.48595 0.85956 0.18293 0.0
C1754 C 0.47353 0.84166 0.12314 0.0
C1755 C 0.46493 0.84349 0.0997 0.0
C1756 C 0.47569 0.85443 0.07767 0.0
C1757 C 0.49524 0.86382 0.07984 0.0
C1758 C 0.50383 0.86222 0.10346 0.0
H1759 H 0.48952 0.86693 0.20315 0.0
H1760 H 0.48717 0.86962 0.16697 0.0
H1761 H 0.47121 0.84802 0.18378 0.0
H1762 H 0.4649 0.83253 0.1393 0.0
H1763 H 0.44984 0.8359 0.09854 0.0
H1764 H 0.22833 0.71544 0.20848 0.0
H1765 H 0.21601 0.69398 0.16923 0.0
H1766 H 0.16528 0.6962 0.17232 0.0
H1767 H 0.17746 0.71766 0.21207 0.0
H1768 H 0.15942 0.65958 0.16841 0.0
H1769 H 0.20949 0.70546 0.09003 0.0
H1770 H 0.22071 0.7037 0.12036 0.0
H1771 H 0.20652 0.71446 0.12241 0.0
C1772 C 0.2146 0.71153 0.20074 0.0
C1773 C 0.20388 0.71829 0.2134 0.0
C1774 C 0.20763 0.69933 0.17817 0.0
C1775 C 0.18986 0.69372 0.16764 0.0
C1776 C 0.1791 0.70048 0.18007 0.0
H1777 H 0.15149 0.62987 0.01412 0.0
H1778 H 0.15926 0.65324 0.05061 0.0
C1779 C 0.18609 0.71276 0.20271 0.0
C1780 C 0.18231 0.68008 0.14447 0.0
H1781 H 0.19196 0.67256 0.07912 0.0
C1782 C 0.16638 0.66247 0.14876 0.0
C1783 C 0.1913 0.68398 0.11877 0.0
C1784 C 0.20784 0.703 0.11247 0.0
C1785 C 0.15962 0.64837 0.12835 0.0
C1786 C 0.16924 0.65192 0.1032 0.0
C1787 C 0.18473 0.66978 0.09855 0.0
C1788 C 0.16369 0.63726 0.08153 0.0
C1789 C 0.14224 0.62982 0.13389 0.0
C1790 C 0.16372 0.62055 0.08677 0.0
C1791 C 0.15924 0.6071 0.06595 0.0
C1792 C 0.15481 0.61019 0.03941 0.0
C1793 C 0.15483 0.62699 0.03428 0.0
C1794 C 0.15926 0.64039 0.05512 0.0
H1795 H 0.13368 0.63123 0.15023 0.0
H1796 H 0.13355 0.62403 0.11508 0.0
H1797 H 0.14627 0.61958 0.14088 0.0
H1798 H 0.16753 0.61805 0.10685 0.0
H1799 H 0.15947 0.59439 0.07061 0.0
H1800 H 0.08324 0.12253 0.32349 0.0
H1801 H 0.09271 0.10459 0.29362 0.0
H1802 H 0.13067 0.15551 0.2516 0.0
H1803 H 0.12114 0.17331 0.28063 0.0
H1804 H 0.10577 0.1249 0.21729 0.0
H1805 H 0.1436 0.10529 0.29203 0.0
H1806 H 0.12057 0.10049 0.3009 0.0
H1807 H 0.13924 0.12437 0.29856 0.0
C1808 C 0.09368 0.12988 0.30797 0.0
C1809 C 0.10153 0.14937 0.30455 0.0
C1810 C 0.09914 0.11965 0.29109 0.0
C1811 C 0.11253 0.1288 0.27065 0.0
C1812 C 0.12041 0.14822 0.26738 0.0
H1813 H 0.18342 0.11226 0.16406 0.0
H1814 H 0.16857 0.1179 0.20346 0.0
C1815 C 0.11498 0.15839 0.28411 0.0
C1816 C 0.11781 0.11833 0.25137 0.0
H1817 H 0.14351 0.09663 0.24578 0.0
C1818 C 0.1138 0.11847 0.2235 0.0
C1819 C 0.12839 0.11014 0.25967 0.0
C1820 C 0.13336 0.11007 0.28938 0.0
C1821 C 0.12067 0.11127 0.20349 0.0
C1822 C 0.13151 0.10328 0.21167 0.0
C1823 C 0.13507 0.10262 0.23965 0.0
C1824 C 0.14049 0.09713 0.19111 0.0
C1825 C 0.1171 0.1132 0.17367 0.0
C1826 C 0.12966 0.08297 0.17187 0.0
C1827 C 0.13806 0.0799 0.14918 0.0
C1828 C 0.15747 0.09074 0.14558 0.0
C1829 C 0.16843 0.10374 0.16618 0.0
C1830 C 0.15998 0.10695 0.18874 0.0
H1831 H 0.112 0.12322 0.17084 0.0
H1832 H 0.12996 0.11809 0.16142 0.0
H1833 H 0.10631 0.09931 0.16538 0.0
H1834 H 0.11463 0.07496 0.17368 0.0
H1835 H 0.12927 0.06956 0.13388 0.0
H1836 H 0.84132 0.91925 0.25631 0.0
H1837 H 0.86234 0.94981 0.23626 0.0
H1838 H 0.89456 0.96762 0.31129 0.0
H1839 H 0.87396 0.93674 0.33101 0.0
H1840 H 0.86444 0.98044 0.25582 0.0
H1841 H 0.93563 0.99074 0.2559 0.0
H1842 H 0.91509 0.96798 0.26053 0.0
H1843 H 0.92488 0.98429 0.28893 0.0
C1844 C 0.85322 0.92951 0.26821 0.0
C1845 C 0.85602 0.9257 0.29519 0.0
C1846 C 0.86522 0.94695 0.25676 0.0
C1847 C 0.8801 0.96101 0.2722 0.0
C1848 C 0.88347 0.95689 0.29872 0.0
H1849 H 0.91633 0.07812 0.2534 0.0
H1850 H 0.90654 0.04695 0.27146 0.0
C1851 C 0.87162 0.93927 0.31004 0.0
C1852 C 0.89019 0.98056 0.26203 0.0
H1853 H 0.9334 0.01859 0.25101 0.0
C1854 C 0.87952 0.98867 0.25452 0.0
C1855 C 0.90986 0.99131 0.26022 0.0
C1856 C 0.92202 0.98307 0.26656 0.0
C1857 C 0.8879 0.00725 0.24564 0.0
C1858 C 0.90757 0.01828 0.24509 0.0
C1859 C 0.91833 0.01015 0.25196 0.0
C1860 C 0.91692 0.03822 0.23701 0.0
C1861 C 0.87558 0.01484 0.23666 0.0
C1862 C 0.92702 0.04398 0.21253 0.0
C1863 C 0.93283 0.06189 0.2023 0.0
C1864 C 0.92846 0.07415 0.21639 0.0
C1865 C 0.91963 0.06884 0.24194 0.0
C1866 C 0.91402 0.05106 0.25226 0.0
H1867 H 0.86123 0.00335 0.23154 0.0
H1868 H 0.87457 0.0234 0.25358 0.0
H1869 H 0.88143 0.02394 0.21848 0.0
H1870 H 0.92944 0.03427 0.20055 0.0
H1871 H 0.93962 0.06563 0.18256 0.0
H1872 H 0.95055 0.82688 0.21749 0.0
H1873 H 0.97741 0.84575 0.247 0.0
H1874 H 0.9903 0.8953 0.20126 0.0
H1875 H 0.9633 0.87632 0.17106 0.0
H1876 H 0.02224 0.88963 0.21543 0.0
H1877 H 0.97818 0.88468 0.30387 0.0
H1878 H 0.97116 0.8624 0.28755 0.0
H1879 H 0.96964 0.88031 0.26894 0.0
C1880 C 0.95915 0.84173 0.21339 0.0
C1881 C 0.95478 0.85009 0.19188 0.0
C1882 C 0.97445 0.85252 0.23041 0.0
C1883 C 0.98566 0.8719 0.22644 0.0
C1884 C 0.98172 0.88033 0.20464 0.0
H1885 H 0.05855 0.92823 0.36632 0.0
H1886 H 0.03964 0.92437 0.32577 0.0
C1887 C 0.96629 0.8695 0.1875 0.0
C1888 C 0.00113 0.88312 0.24585 0.0
H1889 H 0.00951 0.89271 0.31413 0.0
C1890 C 0.01957 0.89068 0.23696 0.0
C1891 C 0.99757 0.88474 0.27376 0.0
C1892 C 0.97807 0.87777 0.28411 0.0
C1893 C 0.03454 0.89878 0.25571 0.0
C1894 C 0.03082 0.89896 0.28401 0.0
C1895 C 0.01243 0.89247 0.2925 0.0
C1896 C 0.04529 0.90424 0.30558 0.0
C1897 C 0.0541 0.90679 0.24506 0.0
C1898 C 0.05521 0.89463 0.3074 0.0
C1899 C 0.06621 0.89697 0.33045 0.0
C1900 C 0.06716 0.90866 0.35237 0.0
C1901 C 0.05797 0.91899 0.34989 0.0
C1902 C 0.04719 0.91683 0.32668 0.0
H1903 H 0.05522 0.91192 0.22379 0.0
H1904 H 0.06438 0.91855 0.25825 0.0
H1905 H 0.05778 0.89557 0.24461 0.0
H1906 H 0.05361 0.88447 0.29177 0.0
H1907 H 0.07304 0.88874 0.33179 0.0
H1908 H 0.9054 0.86475 0.67544 0.0
H1909 H 0.89589 0.88454 0.70043 0.0
H1910 H 0.87955 0.84701 0.76914 0.0
H1911 H 0.88804 0.82679 0.74369 0.0
H1912 H 0.85258 0.85208 0.7551 0.0
H1913 H 0.91661 0.92213 0.7621 0.0
H1914 H 0.91074 0.9134 0.72752 0.0
H1915 H 0.91703 0.90123 0.75182 0.0
C1916 C 0.90009 0.86099 0.69608 0.0
C1917 C 0.89732 0.84425 0.70766 0.0
C1918 C 0.89479 0.87236 0.71043 0.0
C1919 C 0.88716 0.86738 0.73681 0.0
C1920 C 0.88536 0.85113 0.74881 0.0
H1921 H 0.85512 0.92617 0.85329 0.0
H1922 H 0.87292 0.91565 0.82561 0.0
C1923 C 0.8902 0.83959 0.73428 0.0
C1924 C 0.87902 0.87763 0.75083 0.0
H1925 H 0.88798 0.92079 0.77374 0.0
C1926 C 0.86041 0.86709 0.75929 0.0
C1927 C 0.88924 0.8972 0.75645 0.0
C1928 C 0.90956 0.90912 0.74925 0.0
C1929 C 0.85173 0.87546 0.77334 0.0
C1930 C 0.86166 0.89514 0.77801 0.0
C1931 C 0.88032 0.90576 0.76971 0.0
C1932 C 0.85285 0.90461 0.79227 0.0
C1933 C 0.83215 0.86296 0.78372 0.0
C1934 C 0.83618 0.9027 0.78208 0.0
C1935 C 0.82586 0.90827 0.79805 0.0
C1936 C 0.83234 0.91641 0.82409 0.0
C1937 C 0.84986 0.91994 0.83324 0.0
C1938 C 0.86002 0.91395 0.81746 0.0
H1939 H 0.82874 0.84812 0.78547 0.0
H1940 H 0.8302 0.86784 0.80411 0.0
H1941 H 0.82206 0.86323 0.7691 0.0
H1942 H 0.83066 0.89598 0.76236 0.0
H1943 H 0.81248 0.90563 0.79045 0.0
H1944 H 0.18312 0.06973 0.73219 0.0
H1945 H 0.16143 0.04022 0.75392 0.0
H1946 H 0.11661 0.03566 0.70354 0.0
H1947 H 0.13852 0.06508 0.68087 0.0
H1948 H 0.12908 0.02914 0.78307 0.0
H1949 H 0.11505 0.98613 0.68748 0.0
H1950 H 0.13381 0.01022 0.68994 0.0
H1951 H 0.11015 0.00502 0.68646 0.0
C1952 C 0.16869 0.06245 0.72554 0.0
C1953 C 0.16262 0.06956 0.7044 0.0
C1954 C 0.15626 0.04564 0.73818 0.0
C1955 C 0.13747 0.0356 0.73007 0.0
C1956 C 0.13114 0.04301 0.70973 0.0
H1957 H 0.06661 0.92122 0.79737 0.0
H1958 H 0.07343 0.95136 0.77728 0.0
C1959 C 0.14364 0.05985 0.69692 0.0
C1960 C 0.12502 0.01708 0.74245 0.0
H1961 H 0.10346 0.96994 0.72853 0.0
C1962 C 0.12312 0.01619 0.77109 0.0
C1963 C 0.11722 0.0002 0.72675 0.0
C1964 C 0.11919 0.0003 0.69598 0.0
C1965 C 0.11467 0.9989 0.78455 0.0
C1966 C 0.10796 0.98217 0.76896 0.0
C1967 C 0.1086 0.9829 0.74028 0.0
C1968 C 0.1033 0.9643 0.78209 0.0
C1969 C 0.11387 0.99862 0.81542 0.0
C1970 C 0.11785 0.96179 0.79131 0.0
C1971 C 0.11405 0.9447 0.80233 0.0
C1972 C 0.09561 0.92982 0.80442 0.0
C1973 C 0.08096 0.93249 0.79584 0.0
C1974 C 0.08481 0.94961 0.78441 0.0
H1975 H 0.11594 0.01207 0.82414 0.0
H1976 H 0.10029 0.98689 0.82249 0.0
H1977 H 0.12503 0.99631 0.82356 0.0
H1978 H 0.13222 0.97303 0.78967 0.0
H1979 H 0.12557 0.94331 0.80955 0.0
H1980 H 0.91227 0.10523 0.70467 0.0
H1981 H 0.93981 0.11243 0.73156 0.0
H1982 H 0.94631 0.07136 0.68476 0.0
H1983 H 0.91885 0.06441 0.65699 0.0
H1984 H 0.95004 0.0914 0.76367 0.0
H1985 H 0.99542 0.12032 0.67195 0.0
H1986 H 0.9714 0.11457 0.67171 0.0
H1987 H 0.97699 0.09618 0.67011 0.0
C1988 C 0.91949 0.09766 0.70008 0.0
C1989 C 0.91365 0.08456 0.67831 0.0
C1990 C 0.93515 0.10168 0.71564 0.0
C1991 C 0.94526 0.09265 0.70986 0.0
C1992 C 0.93886 0.07871 0.68921 0.0
H1993 H 0.04527 0.13564 0.81682 0.0
H1994 H 0.01736 0.11209 0.79187 0.0
C1995 C 0.92314 0.0747 0.67349 0.0
C1996 C 0.96323 0.09919 0.72425 0.0
H1997 H 0.01015 0.1262 0.71465 0.0
C1998 C 0.96324 0.09866 0.753 0.0
C1999 C 0.98037 0.10872 0.71016 0.0
C2000 C 0.9812 0.11015 0.6793 0.0
C2001 C 0.97988 0.10849 0.76815 0.0
C2002 C 0.99692 0.11881 0.75406 0.0
C2003 C 0.99702 0.11824 0.72531 0.0
C2004 C 0.01429 0.13252 0.76844 0.0
C2005 C 0.97897 0.10889 0.79903 0.0
C2006 C 0.022 0.15171 0.76302 0.0
C2007 C 0.0379 0.1651 0.777 0.0
C2008 C 0.04642 0.15959 0.79678 0.0
C2009 C 0.03892 0.14032 0.80183 0.0
C2010 C 0.02296 0.12686 0.78771 0.0
H2011 H 0.96441 0.10229 0.80655 0.0
H2012 H 0.98545 0.10114 0.80773 0.0
H2013 H 0.98686 0.12359 0.80694 0.0
H2014 H 0.01553 0.15636 0.74818 0.0
H2015 H 0.04346 0.17978 0.77229 0.0
H2016 H 0.75363 0.4599 0.65001 0.0
H2017 H 0.76144 0.44069 0.62003 0.0
H2018 H 0.8011 0.49056 0.57741 0.0
H2019 H 0.79322 0.50965 0.60659 0.0
H2020 H 0.77477 0.46044 0.54353 0.0
H2021 H 0.81063 0.43808 0.61768 0.0
H2022 H 0.78817 0.43471 0.62692 0.0
H2023 H 0.80773 0.45808 0.62423 0.0
C2024 C 0.76409 0.46674 0.63433 0.0
C2025 C 0.77289 0.48631 0.63077 0.0
C2026 C 0.7686 0.45578 0.61739 0.0
C2027 C 0.78198 0.46427 0.59676 0.0
C2028 C 0.79082 0.48377 0.59335 0.0
H2029 H 0.84927 0.44352 0.48946 0.0
H2030 H 0.83509 0.44954 0.52931 0.0
C2031 C 0.78633 0.49468 0.61015 0.0
C2032 C 0.78626 0.45305 0.57741 0.0
H2033 H 0.80975 0.42908 0.57141 0.0
C2034 C 0.78217 0.45332 0.54961 0.0
C2035 C 0.79603 0.44396 0.58555 0.0
C2036 C 0.80105 0.44368 0.61518 0.0
C2037 C 0.78825 0.44542 0.52949 0.0
C2038 C 0.79831 0.43656 0.53749 0.0
C2039 C 0.80189 0.43573 0.56543 0.0
C2040 C 0.80671 0.42984 0.51678 0.0
C2041 C 0.78473 0.44758 0.49973 0.0
C2042 C 0.79547 0.41608 0.49731 0.0
C2043 C 0.80351 0.41281 0.47432 0.0
C2044 C 0.82294 0.42303 0.4707 0.0
C2045 C 0.83425 0.43549 0.49158 0.0
C2046 C 0.82618 0.43892 0.5144 0.0
H2047 H 0.7803 0.45814 0.49702 0.0
H2048 H 0.79744 0.45189 0.48733 0.0
H2049 H 0.77347 0.43391 0.49151 0.0
H2050 H 0.78043 0.40863 0.49911 0.0
H2051 H 0.79444 0.40289 0.4588 0.0
H2052 H 0.54339 0.26905 0.65925 0.0
H2053 H 0.56407 0.30059 0.64141 0.0
H2054 H 0.53011 0.2863 0.56837 0.0
H2055 H 0.50922 0.25494 0.58623 0.0
H2056 H 0.58465 0.31691 0.5914 0.0
H2057 H 0.52494 0.32845 0.60696 0.0
H2058 H 0.52543 0.30848 0.62073 0.0
H2059 H 0.51966 0.30861 0.58523 0.0
C2060 C 0.54062 0.27248 0.63907 0.0
C2061 C 0.52453 0.2597 0.62429 0.0
C2062 C 0.55243 0.29048 0.62894 0.0
C2063 C 0.54835 0.29582 0.60386 0.0
C2064 C 0.53327 0.2825 0.58799 0.0
H2065 H 0.60477 0.39802 0.5109 0.0
H2066 H 0.59552 0.36736 0.53057 0.0
C2067 C 0.52137 0.26461 0.59821 0.0
C2068 C 0.55832 0.31577 0.59582 0.0
H2069 H 0.55107 0.35226 0.58386 0.0
C2070 C 0.57741 0.32474 0.58984 0.0
C2071 C 0.54887 0.326 0.59447 0.0
C2072 C 0.52864 0.31749 0.60244 0.0
C2073 C 0.58721 0.34364 0.58172 0.0
C2074 C 0.57751 0.35359 0.57915 0.0
C2075 C 0.55851 0.34464 0.58575 0.0
C2076 C 0.58638 0.37315 0.56917 0.0
C2077 C 0.60783 0.3528 0.57631 0.0
C2078 C 0.5845 0.38668 0.58436 0.0
C2079 C 0.58936 0.40398 0.57292 0.0
C2080 C 0.59643 0.40818 0.5462 0.0
C2081 C 0.59952 0.39519 0.53166 0.0
C2082 C 0.59434 0.3777 0.54296 0.0
H2083 H 0.61411 0.34559 0.58736 0.0
H2084 H 0.61003 0.35187 0.55405 0.0
H2085 H 0.61527 0.36787 0.58257 0.0
H2086 H 0.5784 0.38349 0.60462 0.0
H2087 H 0.58692 0.4138 0.5846 0.0
H2088 H 0.61656 0.16221 0.56261 0.0
H2089 H 0.64366 0.18084 0.59184 0.0
H2090 H 0.65759 0.23031 0.54518 0.0
H2091 H 0.63035 0.21158 0.51528 0.0
H2092 H 0.6889 0.22352 0.55924 0.0
H2093 H 0.64606 0.22102 0.64795 0.0
H2094 H 0.63824 0.19845 0.63204 0.0
H2095 H 0.63732 0.21657 0.61312 0.0
C2096 C 0.62543 0.177 0.55828 0.0
C2097 C 0.62131 0.18542 0.53659 0.0
C2098 C 0.64087 0.18764 0.57513 0.0
C2099 C 0.65246 0.20693 0.57078 0.0
C2100 C 0.64871 0.21542 0.54884 0.0
H2101 H 0.72648 0.26214 0.70975 0.0
H2102 H 0.70794 0.25907 0.66911 0.0
C2103 C 0.63315 0.20473 0.53189 0.0
C2104 C 0.66815 0.21801 0.58987 0.0
H2105 H 0.67713 0.22806 0.65794 0.0
C2106 C 0.68646 0.2249 0.58076 0.0
C2107 C 0.66489 0.22006 0.61775 0.0
C2108 C 0.64557 0.2138 0.62831 0.0
C2109 C 0.70154 0.23274 0.59931 0.0
C2110 C 0.69806 0.23331 0.62762 0.0
C2111 C 0.67985 0.22752 0.6363 0.0
C2112 C 0.71253 0.23819 0.64904 0.0
C2113 C 0.72095 0.24 0.58844 0.0
C2114 C 0.72178 0.22791 0.65092 0.0
C2115 C 0.73259 0.2298 0.67402 0.0
C2116 C 0.73398 0.2417 0.69591 0.0
C2117 C 0.72553 0.25272 0.69333 0.0
C2118 C 0.71496 0.25102 0.67008 0.0
H2119 H 0.72214 0.24508 0.56712 0.0
H2120 H 0.73157 0.25164 0.60145 0.0
H2121 H 0.72407 0.22839 0.58803 0.0
H2122 H 0.71975 0.21756 0.63535 0.0
H2123 H 0.73884 0.22106 0.67545 0.0
H2124 H 0.57457 0.19724 0.01072 0.0
H2125 H 0.57052 0.22059 0.03676 0.0
H2126 H 0.52959 0.17656 0.08747 0.0
H2127 H 0.53375 0.15333 0.06205 0.0
H2128 H 0.53823 0.22212 0.04241 0.0
H2129 H 0.5636 0.21568 0.14399 0.0
H2130 H 0.56858 0.20694 0.1129 0.0
H2131 H 0.54676 0.19306 0.1303 0.0
C2132 C 0.56484 0.19259 0.02759 0.0
C2133 C 0.55443 0.17343 0.03428 0.0
C2134 C 0.56257 0.20593 0.04242 0.0
C2135 C 0.55002 0.20034 0.06434 0.0
C2136 C 0.53968 0.18124 0.07105 0.0
H2137 H 0.47546 0.22717 0.13142 0.0
H2138 H 0.49521 0.22046 0.10228 0.0
C2139 C 0.54191 0.16794 0.05627 0.0
C2140 C 0.54657 0.21403 0.07923 0.0
H2141 H 0.54131 0.22657 0.14398 0.0
C2142 C 0.53931 0.22348 0.06458 0.0
C2143 C 0.54842 0.21619 0.10805 0.0
C2144 C 0.55747 0.20758 0.12467 0.0
C2145 C 0.53229 0.23366 0.07825 0.0
C2146 C 0.53226 0.23404 0.10725 0.0
C2147 C 0.54108 0.22604 0.12174 0.0
C2148 C 0.52097 0.24021 0.1229 0.0
C2149 C 0.52436 0.24331 0.06153 0.0
C2150 C 0.52885 0.25344 0.14442 0.0
C2151 C 0.51748 0.25717 0.16143 0.0
C2152 C 0.49806 0.2475 0.15734 0.0
C2153 C 0.49035 0.23474 0.13524 0.0
C2154 C 0.50167 0.23107 0.1183 0.0
H2155 H 0.53154 0.24784 0.04148 0.0
H2156 H 0.50939 0.23328 0.05728 0.0
H2157 H 0.52561 0.25577 0.07253 0.0
H2158 H 0.5437 0.2605 0.14848 0.0
H2159 H 0.52381 0.26706 0.17835 0.0
H2160 H 0.79993 0.3983 0.01613 0.0
H2161 H 0.77764 0.36809 0.03631 0.0
H2162 H 0.82111 0.37156 0.08878 0.0
H2163 H 0.84311 0.40197 0.06973 0.0
H2164 H 0.7783 0.33651 0.03372 0.0
H2165 H 0.77992 0.35525 0.14282 0.0
H2166 H 0.78952 0.37282 0.1165 0.0
H2167 H 0.80319 0.3636 0.13107 0.0
C2168 C 0.80464 0.39277 0.03233 0.0
C2169 C 0.82335 0.40245 0.04114 0.0
C2170 C 0.79189 0.3755 0.0438 0.0
C2171 C 0.79761 0.36766 0.06435 0.0
C2172 C 0.8162 0.37751 0.07348 0.0
H2173 H 0.76985 0.25696 0.09663 0.0
H2174 H 0.7784 0.28739 0.07753 0.0
C2175 C 0.82888 0.3948 0.06222 0.0
C2176 C 0.78479 0.34847 0.07456 0.0
H2177 H 0.7717 0.32284 0.13313 0.0
C2178 C 0.77652 0.33356 0.05547 0.0
C2179 C 0.78201 0.34457 0.10289 0.0
C2180 C 0.78897 0.35997 0.12443 0.0
C2181 C 0.76677 0.3148 0.06397 0.0
C2182 C 0.76577 0.31087 0.09228 0.0
C2183 C 0.77277 0.3258 0.11139 0.0
C2184 C 0.7592 0.29163 0.10243 0.0
C2185 C 0.75797 0.29941 0.04246 0.0
C2186 C 0.7458 0.28397 0.12322 0.0
C2187 C 0.7412 0.26668 0.13471 0.0
C2188 C 0.75 0.25682 0.12568 0.0
C2189 C 0.76298 0.26427 0.10431 0.0
C2190 C 0.76767 0.28158 0.09303 0.0
H2191 H 0.75362 0.30427 0.02422 0.0
H2192 H 0.76834 0.29556 0.03553 0.0
H2193 H 0.74561 0.28667 0.05052 0.0
H2194 H 0.73918 0.29154 0.13092 0.0
H2195 H 0.73112 0.2613 0.15113 0.0
H2196 H 0.58219 0.439 0.03181 0.0
H2197 H 0.60904 0.44536 0.05977 0.0
H2198 H 0.61692 0.40598 0.01081 0.0
H2199 H 0.59018 0.39993 0.98194 0.0
H2200 H 0.61918 0.42401 0.09083 0.0
H2201 H 0.66584 0.45544 0.00093 0.0
H2202 H 0.64173 0.44932 0.00011 0.0
H2203 H 0.64772 0.43123 0.99792 0.0
C2204 C 0.58954 0.4316 0.027 0.0
C2205 C 0.58436 0.41931 0.00429 0.0
C2206 C 0.6048 0.43512 0.04318 0.0
C2207 C 0.61516 0.4264 0.03706 0.0
C2208 C 0.60929 0.41312 0.01553 0.0
H2209 H 0.71358 0.46908 0.14717 0.0
H2210 H 0.68623 0.4456 0.12118 0.0
C2211 C 0.59398 0.40961 0.99918 0.0
C2212 C 0.63294 0.43279 0.05192 0.0
H2213 H 0.67992 0.46074 0.04403 0.0
C2214 C 0.63253 0.43169 0.08064 0.0
C2215 C 0.65028 0.44287 0.03845 0.0
C2216 C 0.65157 0.44495 0.00769 0.0
C2217 C 0.64889 0.44152 0.09638 0.0
C2218 C 0.6661 0.45241 0.08293 0.0
C2219 C 0.66666 0.45236 0.05419 0.0
C2220 C 0.68314 0.46612 0.09801 0.0
C2221 C 0.64748 0.44133 0.12724 0.0
C2222 C 0.69068 0.48535 0.09308 0.0
C2223 C 0.70629 0.49871 0.10763 0.0
C2224 C 0.71468 0.49313 0.12752 0.0
C2225 C 0.70733 0.47382 0.13212 0.0
C2226 C 0.69168 0.4604 0.1174 0.0
H2227 H 0.63278 0.4344 0.13425 0.0
H2228 H 0.65399 0.43358 0.13582 0.0
H2229 H 0.65506 0.45589 0.13574 0.0
H2230 H 0.6843 0.49005 0.07815 0.0
H2231 H 0.71174 0.51342 0.10327 0.0
H2232 H 0.45599 0.83788 0.94996 0.0
H2233 H 0.4639 0.81862 0.92115 0.0
H2234 H 0.42854 0.77 0.96949 0.0
H2235 H 0.42055 0.78936 0.99893 0.0
H2236 H 0.46726 0.77699 0.95395 0.0
H2237 H 0.42394 0.777 0.86742 0.0
H2238 H 0.43884 0.79979 0.88262 0.0
H2239 H 0.42038 0.78177 0.90246 0.0
C2240 C 0.45001 0.82316 0.95478 0.0
C2241 C 0.43764 0.81515 0.97678 0.0
C2242 C 0.45451 0.81216 0.93819 0.0
C2243 C 0.44669 0.79292 0.94314 0.0
C2244 C 0.43466 0.78486 0.96541 0.0
H2245 H 0.46131 0.73434 0.80475 0.0
H2246 H 0.44724 0.73815 0.84648 0.0
C2247 C 0.43009 0.7959 0.98209 0.0
C2248 C 0.4508 0.78143 0.92412 0.0
H2249 H 0.44745 0.76949 0.85647 0.0
C2250 C 0.46267 0.77496 0.93273 0.0
C2251 C 0.44453 0.77857 0.89664 0.0
C2252 C 0.43107 0.78448 0.88671 0.0
C2253 C 0.4694 0.76672 0.91397 0.0
C2254 C 0.46432 0.76528 0.88596 0.0
C2255 C 0.45147 0.77067 0.87788 0.0
C2256 C 0.47326 0.75994 0.8641 0.0
C2257 C 0.48211 0.75998 0.92426 0.0
C2258 C 0.49267 0.77046 0.86053 0.0
C2259 C 0.50078 0.76817 0.83678 0.0
C2260 C 0.48958 0.7556 0.81594 0.0
C2261 C 0.4703 0.74428 0.82032 0.0
C2262 C 0.46224 0.7464 0.84419 0.0
H2263 H 0.4791 0.75559 0.94599 0.0
H2264 H 0.48072 0.748 0.91172 0.0
H2265 H 0.49677 0.77167 0.92326 0.0
H2266 H 0.50144 0.78132 0.87522 0.0
H2267 H 0.51566 0.77717 0.83398 0.0
H2268 H 0.2834 0.73155 0.84458 0.0
H2269 H 0.276 0.70111 0.86337 0.0
H2270 H 0.23965 0.70542 0.92253 0.0
H2271 H 0.24808 0.73624 0.90541 0.0
H2272 H 0.25603 0.68909 0.94466 0.0
H2273 H 0.22824 0.65531 0.84275 0.0
H2274 H 0.25271 0.67221 0.84381 0.0
H2275 H 0.23602 0.67972 0.84938 0.0
C2276 C 0.27411 0.72614 0.86194 0.0
C2277 C 0.2658 0.73601 0.87292 0.0
C2278 C 0.26974 0.70864 0.87246 0.0
C2279 C 0.25671 0.70062 0.89368 0.0
C2280 C 0.24954 0.71114 0.90588 0.0
H2281 H 0.16797 0.59432 0.92518 0.0
H2282 H 0.19234 0.62383 0.90689 0.0
C2283 C 0.25419 0.72872 0.89581 0.0
C2284 C 0.24932 0.68088 0.90229 0.0
H2285 H 0.22281 0.63547 0.87961 0.0
C2286 C 0.24894 0.67732 0.93043 0.0
C2287 C 0.24006 0.66555 0.88364 0.0
C2288 C 0.23909 0.6683 0.85325 0.0
C2289 C 0.23836 0.65906 0.94069 0.0
C2290 C 0.22862 0.64378 0.92209 0.0
C2291 C 0.23026 0.6472 0.89381 0.0
C2292 C 0.21452 0.62473 0.93147 0.0
C2293 C 0.23656 0.65663 0.97139 0.0
C2294 C 0.21887 0.61495 0.95071 0.0
C2295 C 0.20472 0.5983 0.96201 0.0
C2296 C 0.18605 0.59094 0.95375 0.0
C2297 C 0.18204 0.5999 0.93277 0.0
C2298 C 0.19607 0.61672 0.92199 0.0
H2299 H 0.24161 0.67023 0.98248 0.0
H2300 H 0.22184 0.64701 0.97724 0.0
H2301 H 0.24504 0.65052 0.97845 0.0
H2302 H 0.2331 0.62046 0.9576 0.0
H2303 H 0.20834 0.59151 0.97776 0.0
H2304 H 0.39484 0.60002 0.03376 0.0
H2305 H 0.37492 0.59505 0.99394 0.0
H2306 H 0.38462 0.5512 0.96434 0.0
H2307 H 0.405 0.55645 0.00363 0.0
H2308 H 0.38052 0.57168 0.9219 0.0
H2309 H 0.32369 0.54777 0.99871 0.0
H2310 H 0.34227 0.57166 0.00285 0.0
H2311 H 0.34679 0.55271 0.00765 0.0
C2312 C 0.39309 0.58963 0.01843 0.0
C2313 C 0.40119 0.57836 0.0221 0.0
C2314 C 0.38168 0.58679 0.99573 0.0
C2315 C 0.37791 0.57242 0.97664 0.0
C2316 C 0.38727 0.56229 0.97896 0.0
H2317 H 0.28079 0.49434 0.89271 0.0
H2318 H 0.30851 0.51309 0.92068 0.0
C2319 C 0.3989 0.5653 0.00147 0.0
C2320 C 0.36249 0.56619 0.95652 0.0
H2321 H 0.31508 0.54477 0.95249 0.0
C2322 C 0.36622 0.56602 0.92847 0.0
C2323 C 0.34383 0.55861 0.96529 0.0
C2324 C 0.3388 0.5575 0.99525 0.0
C2325 C 0.35169 0.55799 0.909 0.0
C2326 C 0.33307 0.55014 0.91792 0.0
C2327 C 0.32942 0.55093 0.9458 0.0
C2328 C 0.31697 0.53905 0.89942 0.0
C2329 C 0.35621 0.55709 0.87928 0.0
C2330 C 0.31255 0.54748 0.87813 0.0
C2331 C 0.29665 0.5367 0.86186 0.0
C2332 C 0.28499 0.51739 0.86676 0.0
C2333 C 0.28956 0.5091 0.8881 0.0
C2334 C 0.30538 0.51981 0.90422 0.0
H2335 H 0.37115 0.5616 0.87629 0.0
H2336 H 0.34752 0.54256 0.87102 0.0
H2337 H 0.35297 0.56642 0.86719 0.0
H2338 H 0.3212 0.56239 0.8744 0.0
H2339 H 0.29344 0.54349 0.84561 0.0
H2340 H 0.18721 0.59934 0.50923 0.0
H2341 H 0.20825 0.594 0.48016 0.0
H2342 H 0.1612 0.55338 0.43201 0.0
H2343 H 0.14031 0.55888 0.46038 0.0
H2344 H 0.20691 0.56067 0.47628 0.0
H2345 H 0.19854 0.58137 0.37269 0.0
H2346 H 0.1917 0.58905 0.40312 0.0
H2347 H 0.17611 0.56649 0.38748 0.0
C2348 C 0.18144 0.5896 0.49204 0.0
C2349 C 0.1621 0.57938 0.48722 0.0
C2350 C 0.19347 0.58658 0.47547 0.0
C2351 C 0.18633 0.57351 0.45367 0.0
C2352 C 0.1671 0.56389 0.44825 0.0
H2353 H 0.1987 0.48643 0.39732 0.0
H2354 H 0.19507 0.51044 0.42137 0.0
C2355 C 0.15512 0.56685 0.46476 0.0
C2356 C 0.19825 0.56779 0.43883 0.0
H2357 H 0.20522 0.55556 0.37477 0.0
C2358 C 0.20702 0.56005 0.45407 0.0
C2359 C 0.19875 0.56729 0.40986 0.0
C2360 C 0.19093 0.57671 0.3924 0.0
C2361 C 0.21462 0.55019 0.44112 0.0
C2362 C 0.2131 0.54778 0.41232 0.0
C2363 C 0.20604 0.55712 0.39692 0.0
C2364 C 0.21632 0.53367 0.39831 0.0
C2365 C 0.22343 0.54169 0.45849 0.0
C2366 C 0.22918 0.53873 0.3769 0.0
C2367 C 0.2312 0.52494 0.36288 0.0
C2368 C 0.22018 0.50589 0.36988 0.0
C2369 C 0.20734 0.50094 0.39134 0.0
C2370 C 0.20539 0.51468 0.40533 0.0
H2371 H 0.22936 0.54995 0.47775 0.0
H2372 H 0.21263 0.52723 0.46422 0.0
H2373 H 0.23465 0.54091 0.44724 0.0
H2374 H 0.23758 0.5533 0.371 0.0
H2375 H 0.24119 0.52916 0.34638 0.0
H2376 H 0.40109 0.59851 0.4864 0.0
H2377 H 0.40863 0.62812 0.46451 0.0
H2378 H 0.4485 0.62375 0.41291 0.0
H2379 H 0.4405 0.59395 0.43369 0.0
H2380 H 0.44083 0.65982 0.46588 0.0
H2381 H 0.42326 0.63876 0.35755 0.0
H2382 H 0.41541 0.62176 0.38468 0.0
H2383 H 0.43821 0.63062 0.36995 0.0
C2384 C 0.41121 0.6037 0.47002 0.0
C2385 C 0.42035 0.59397 0.46197 0.0
C2386 C 0.41551 0.62063 0.45756 0.0
C2387 C 0.42893 0.62804 0.43677 0.0
C2388 C 0.43774 0.61811 0.42837 0.0
H2389 H 0.51258 0.73719 0.40049 0.0
H2390 H 0.49028 0.70729 0.42054 0.0
C2391 C 0.43336 0.60117 0.44063 0.0
C2392 C 0.4352 0.64697 0.42561 0.0
H2393 H 0.44781 0.67131 0.36586 0.0
C2394 C 0.44197 0.6623 0.44399 0.0
C2395 C 0.43627 0.65027 0.39708 0.0
C2396 C 0.42768 0.63441 0.37625 0.0
C2397 C 0.45113 0.68085 0.43462 0.0
C2398 C 0.45405 0.68414 0.40616 0.0
C2399 C 0.44592 0.66882 0.38772 0.0
C2400 C 0.46701 0.70308 0.39526 0.0
C2401 C 0.45791 0.6967 0.45539 0.0
C2402 C 0.46152 0.71055 0.3739 0.0
C2403 C 0.47444 0.72755 0.36188 0.0
C2404 C 0.4931 0.73727 0.37094 0.0
C2405 C 0.4984 0.72998 0.39279 0.0
C2406 C 0.48555 0.71298 0.40461 0.0
H2407 H 0.44872 0.69236 0.47362 0.0
H2408 H 0.47209 0.7005 0.46252 0.0
H2409 H 0.45851 0.70936 0.44656 0.0
H2410 H 0.44731 0.70308 0.36621 0.0
H2411 H 0.46992 0.73281 0.34509 0.0
H2412 H 0.37724 0.80382 0.48862 0.0
H2413 H 0.3493 0.78001 0.46406 0.0
H2414 H 0.35142 0.82306 0.41212 0.0
H2415 H 0.37935 0.84673 0.43602 0.0
H2416 H 0.31548 0.77842 0.45972 0.0
H2417 H 0.34483 0.78283 0.35678 0.0
H2418 H 0.3593 0.79219 0.38709 0.0
H2419 H 0.35098 0.80574 0.36963 0.0
C2420 C 0.37184 0.80815 0.47177 0.0
C2421 C 0.38045 0.82716 0.4643 0.0
C2422 C 0.35591 0.79455 0.45779 0.0
C2423 C 0.34852 0.79974 0.43598 0.0
C2424 C 0.35716 0.81868 0.42847 0.0
H2425 H 0.2458 0.77236 0.37369 0.0
H2426 H 0.27258 0.77904 0.40208 0.0
C2427 C 0.37301 0.83224 0.44239 0.0
C2428 C 0.33103 0.78581 0.42208 0.0
H2429 H 0.31172 0.77229 0.35831 0.0
C2430 C 0.31467 0.77668 0.4376 0.0
C2431 C 0.33004 0.78315 0.39331 0.0
C2432 C 0.34728 0.79135 0.3758 0.0
C2433 C 0.29716 0.76637 0.42482 0.0
C2434 C 0.29606 0.76552 0.39586 0.0
C2435 C 0.31253 0.77318 0.38052 0.0
C2436 C 0.27829 0.75921 0.38103 0.0
C2437 C 0.27999 0.75704 0.44246 0.0
C2438 C 0.27261 0.7459 0.35957 0.0
C2439 C 0.25739 0.74224 0.34295 0.0
C2440 C 0.24777 0.75201 0.3474 0.0
C2441 C 0.25303 0.76474 0.36958 0.0
C2442 C 0.2682 0.76838 0.3861 0.0
H2443 H 0.28307 0.75268 0.46233 0.0
H2444 H 0.27529 0.76722 0.44704 0.0
H2445 H 0.26844 0.74451 0.43204 0.0
H2446 H 0.28032 0.7388 0.35515 0.0
H2447 H 0.25365 0.73236 0.32599 0.0
H2448 H 0.27769 0.15139 0.09964 0.0
H2449 H 0.30549 0.16257 0.12806 0.0
H2450 H 0.27378 0.12026 0.18789 0.0
H2451 H 0.24558 0.10883 0.15938 0.0
H2452 H 0.30064 0.16035 0.20853 0.0
H2453 H 0.3314 0.13001 0.13821 0.0
H2454 H 0.32248 0.14318 0.12138 0.0
H2455 H 0.30673 0.12189 0.13882 0.0
C2456 C 0.27652 0.14443 0.11885 0.0
C2457 C 0.25942 0.1291 0.12713 0.0
C2458 C 0.29245 0.15087 0.13507 0.0
C2459 C 0.29167 0.14215 0.15991 0.0
C2460 C 0.2746 0.12713 0.16871 0.0
H2461 H 0.40138 0.17153 0.21914 0.0
H2462 H 0.36746 0.15298 0.21504 0.0
C2463 C 0.25856 0.12059 0.15237 0.0
C2464 C 0.30905 0.14853 0.17579 0.0
H2465 H 0.35224 0.15386 0.16937 0.0
C2466 C 0.31187 0.15868 0.20036 0.0
C2467 C 0.32351 0.14606 0.16525 0.0
C2468 C 0.32089 0.13454 0.13959 0.0
C2469 C 0.32927 0.16736 0.21389 0.0
C2470 C 0.34418 0.16605 0.20218 0.0
C2471 C 0.3409 0.15498 0.17841 0.0
C2472 C 0.36369 0.17709 0.2125 0.0
C2473 C 0.33152 0.17799 0.24031 0.0
C2474 C 0.37283 0.19684 0.21397 0.0
C2475 C 0.39224 0.20747 0.21694 0.0
C2476 C 0.40279 0.1985 0.21778 0.0
C2477 C 0.39354 0.17878 0.21843 0.0
C2478 C 0.37416 0.16818 0.21604 0.0
H2479 H 0.31808 0.17202 0.25144 0.0
H2480 H 0.34209 0.17776 0.25398 0.0
H2481 H 0.33605 0.19283 0.23562 0.0
H2482 H 0.36519 0.2041 0.21065 0.0
H2483 H 0.39907 0.22266 0.21605 0.0
H2484 H 0.77121 0.17578 0.18853 0.0
H2485 H 0.78892 0.15962 0.19529 0.0
H2486 H 0.8285 0.1947 0.13448 0.0
H2487 H 0.81117 0.21092 0.12765 0.0
H2488 H 0.79984 0.14035 0.15584 0.0
H2489 H 0.86059 0.20259 0.20367 0.0
H2490 H 0.83803 0.20064 0.20021 0.0
H2491 H 0.8534 0.20714 0.17133 0.0
C2492 C 0.78362 0.17997 0.17649 0.0
C2493 C 0.78986 0.19478 0.15776 0.0
C2494 C 0.79371 0.17074 0.1804 0.0
C2495 C 0.81019 0.17626 0.16576 0.0
C2496 C 0.81604 0.19053 0.14639 0.0
H2497 H 0.89567 0.14598 0.15561 0.0
H2498 H 0.87582 0.15984 0.15007 0.0
C2499 C 0.80603 0.19973 0.14247 0.0
C2500 C 0.82151 0.16733 0.17067 0.0
H2501 H 0.86483 0.17705 0.19096 0.0
C2502 C 0.81399 0.14828 0.16375 0.0
C2503 C 0.83997 0.1778 0.18091 0.0
C2504 C 0.84846 0.19814 0.18971 0.0
C2505 C 0.82468 0.13952 0.16607 0.0
C2506 C 0.84323 0.15007 0.17598 0.0
C2507 C 0.85065 0.16906 0.18321 0.0
C2508 C 0.85515 0.14162 0.17927 0.0
C2509 C 0.81623 0.11921 0.15721 0.0
C2510 C 0.85022 0.12703 0.19785 0.0
C2511 C 0.86149 0.11912 0.2011 0.0
C2512 C 0.87801 0.1257 0.18592 0.0
C2513 C 0.88305 0.14054 0.16758 0.0
C2514 C 0.87173 0.14847 0.16437 0.0
H2515 H 0.80376 0.11456 0.14391 0.0
H2516 H 0.82654 0.1169 0.14595 0.0
H2517 H 0.81185 0.11022 0.17562 0.0
H2518 H 0.83768 0.12183 0.20996 0.0
H2519 H 0.85719 0.10778 0.21553 0.0
H2520 H 0.75365 0.60125 0.14611 0.0
H2521 H 0.77447 0.63527 0.14473 0.0
H2522 H 0.81756 0.62958 0.18489 0.0
H2523 H 0.7968 0.59552 0.18669 0.0
H2524 H 0.81323 0.6595 0.20549 0.0
H2525 H 0.81879 0.66064 0.09182 0.0
H2526 H 0.79548 0.64976 0.10499 0.0
H2527 H 0.8095 0.6392 0.11105 0.0
C2528 C 0.76751 0.6072 0.15483 0.0
C2529 C 0.7736 0.59559 0.16629 0.0
C2530 C 0.77941 0.62665 0.15387 0.0
C2531 C 0.79764 0.63486 0.1642 0.0
C2532 C 0.80355 0.62346 0.17661 0.0
H2533 H 0.89771 0.74192 0.17387 0.0
H2534 H 0.8729 0.70919 0.17577 0.0
C2535 C 0.79166 0.60399 0.17763 0.0
C2536 C 0.81072 0.65531 0.16172 0.0
H2537 H 0.83449 0.68992 0.1151 0.0
C2538 C 0.81784 0.66617 0.18575 0.0
C2539 C 0.81662 0.66396 0.13589 0.0
C2540 C 0.80986 0.65282 0.10942 0.0
C2541 C 0.83084 0.68548 0.18466 0.0
C2542 C 0.83708 0.69403 0.15886 0.0
C2543 C 0.82963 0.68328 0.13482 0.0
C2544 C 0.85215 0.71385 0.15654 0.0
C2545 C 0.83779 0.69658 0.21114 0.0
C2546 C 0.84887 0.72721 0.14411 0.0
C2547 C 0.86311 0.74604 0.14284 0.0
C2548 C 0.88088 0.75176 0.15384 0.0
C2549 C 0.88418 0.73812 0.1654 0.0
C2550 C 0.86998 0.71938 0.16667 0.0
H2551 H 0.82806 0.68937 0.22831 0.0
H2552 H 0.85147 0.69813 0.21658 0.0
H2553 H 0.8397 0.71085 0.20904 0.0
H2554 H 0.8352 0.72312 0.13592 0.0
H2555 H 0.86009 0.75615 0.13373 0.0
H2556 H 0.199 0.40226 0.31731 0.0
H2557 H 0.18571 0.3683 0.32077 0.0
H2558 H 0.13694 0.36341 0.35982 0.0
H2559 H 0.15 0.39736 0.35638 0.0
H2560 H 0.17549 0.34864 0.37223 0.0
H2561 H 0.11592 0.32192 0.29882 0.0
H2562 H 0.13541 0.34571 0.2979 0.0
H2563 H 0.1179 0.33911 0.32375 0.0
C2564 C 0.18533 0.39398 0.3263 0.0
C2565 C 0.1756 0.40259 0.33663 0.0
C2566 C 0.17779 0.37458 0.3283 0.0
C2567 C 0.16033 0.36339 0.34041 0.0
C2568 C 0.15033 0.3718 0.35009 0.0
H2569 H 0.09975 0.24161 0.36707 0.0
H2570 H 0.10882 0.27494 0.36875 0.0
C2571 C 0.15788 0.39122 0.34818 0.0
C2572 C 0.15316 0.34312 0.34434 0.0
H2573 H 0.11909 0.29931 0.32379 0.0
C2574 C 0.16314 0.33783 0.36171 0.0
C2575 C 0.13692 0.32912 0.33083 0.0
C2576 C 0.12592 0.33415 0.31161 0.0
C2577 C 0.15744 0.31886 0.36567 0.0
C2578 C 0.14156 0.30485 0.35144 0.0
C2579 C 0.13125 0.31011 0.33468 0.0
C2580 C 0.1363 0.28482 0.352 0.0
C2581 C 0.16848 0.31399 0.38505 0.0
C2582 C 0.14873 0.2794 0.34198 0.0
C2583 C 0.14364 0.26049 0.34102 0.0
C2584 C 0.12592 0.24652 0.34987 0.0
C2585 C 0.11353 0.252 0.36021 0.0
C2586 C 0.11865 0.27101 0.36111 0.0
H2587 H 0.17631 0.32542 0.40037 0.0
H2588 H 0.15927 0.30077 0.39608 0.0
H2589 H 0.17876 0.31199 0.37317 0.0
H2590 H 0.16226 0.2898 0.33433 0.0
H2591 H 0.15355 0.25684 0.33286 0.0
H2592 H 0.60031 0.78313 0.37165 0.0
H2593 H 0.63403 0.80007 0.36662 0.0
H2594 H 0.63005 0.83521 0.30535 0.0
H2595 H 0.59606 0.81839 0.3104 0.0
H2596 H 0.65322 0.80253 0.31815 0.0
H2597 H 0.67075 0.8731 0.35832 0.0
H2598 H 0.64853 0.85224 0.36444 0.0
H2599 H 0.6533 0.86345 0.33171 0.0
C2600 C 0.60653 0.79455 0.35722 0.0
C2601 C 0.59542 0.79937 0.34138 0.0
C2602 C 0.62584 0.80421 0.35439 0.0
C2603 C 0.63452 0.81894 0.33577 0.0
C2604 C 0.6236 0.82404 0.32015 0.0
H2605 H 0.75051 0.8884 0.29033 0.0
H2606 H 0.71669 0.87308 0.29373 0.0
C2607 C 0.60419 0.81438 0.323 0.0
C2608 C 0.65494 0.82827 0.33204 0.0
H2609 H 0.69553 0.87008 0.3402 0.0
C2610 C 0.66249 0.8173 0.32297 0.0
C2611 C 0.66693 0.84753 0.33831 0.0
C2612 C 0.65956 0.8598 0.34895 0.0
C2613 C 0.68178 0.82509 0.31988 0.0
C2614 C 0.6938 0.84429 0.3265 0.0
C2615 C 0.68624 0.85534 0.33525 0.0
C2616 C 0.7143 0.85323 0.32434 0.0
C2617 C 0.68909 0.81279 0.30919 0.0
C2618 C 0.72417 0.84717 0.34058 0.0
C2619 C 0.74357 0.85588 0.33868 0.0
C2620 C 0.75343 0.87087 0.3206 0.0
C2621 C 0.74342 0.87688 0.30444 0.0
C2622 C 0.72407 0.86818 0.30636 0.0
H2623 H 0.67802 0.79995 0.29866 0.0
H2624 H 0.70073 0.82058 0.29467 0.0
H2625 H 0.69444 0.80829 0.32662 0.0
H2626 H 0.71689 0.83585 0.35495 0.0
H2627 H 0.75083 0.85096 0.35155 0.0
H2628 H 0.22172 0.82665 0.30977 0.0
H2629 H 0.20341 0.84215 0.30822 0.0
H2630 H 0.16028 0.79515 0.26255 0.0
H2631 H 0.1784 0.77916 0.26458 0.0
H2632 H 0.18771 0.85332 0.26786 0.0
H2633 H 0.13335 0.79644 0.33172 0.0
H2634 H 0.15574 0.79854 0.32577 0.0
H2635 H 0.13817 0.78921 0.29936 0.0
C2636 C 0.20844 0.81961 0.29909 0.0
C2637 C 0.20138 0.80146 0.28776 0.0
C2638 C 0.19802 0.82858 0.29811 0.0
C2639 C 0.18032 0.81965 0.28578 0.0
C2640 C 0.17375 0.80212 0.27268 0.0
H2641 H 0.09768 0.85312 0.32048 0.0
H2642 H 0.11353 0.8392 0.29593 0.0
C2643 C 0.18419 0.79305 0.27371 0.0
C2644 C 0.16837 0.82815 0.28908 0.0
H2645 H 0.13008 0.82249 0.32335 0.0
C2646 C 0.17494 0.84648 0.27963 0.0
C2647 C 0.15174 0.81923 0.30452 0.0
C2648 C 0.14433 0.79984 0.31615 0.0
C2649 C 0.16566 0.85634 0.28596 0.0
C2650 C 0.14953 0.8477 0.30243 0.0
C2651 C 0.14245 0.82906 0.3107 0.0
C2652 C 0.14068 0.85813 0.31355 0.0
C2653 C 0.17338 0.87601 0.27539 0.0
C2654 C 0.15075 0.87362 0.33126 0.0
C2655 C 0.14173 0.8816 0.3454 0.0
C2656 C 0.12243 0.87413 0.34224 0.0
C2657 C 0.11255 0.85919 0.32347 0.0
C2658 C 0.12158 0.85121 0.30938 0.0
H2659 H 0.18172 0.87824 0.25654 0.0
H2660 H 0.16205 0.87902 0.27086 0.0
H2661 H 0.1827 0.88623 0.29121 0.0
H2662 H 0.16541 0.87894 0.33526 0.0
H2663 H 0.14975 0.89307 0.35971 0.0
H2664 H 0.73228 0.89222 0.87943 0.0
H2665 H 0.69839 0.87375 0.87366 0.0
H2666 H 0.70075 0.8226 0.87383 0.0
H2667 H 0.73464 0.84106 0.87848 0.0
H2668 H 0.68561 0.82524 0.82845 0.0
H2669 H 0.65139 0.83992 0.91458 0.0
H2670 H 0.66939 0.8612 0.89978 0.0
H2671 H 0.67537 0.84549 0.9163 0.0
C2672 C 0.72547 0.87702 0.87927 0.0
C2673 C 0.73604 0.86805 0.87916 0.0
C2674 C 0.70606 0.86643 0.87608 0.0
C2675 C 0.69696 0.84674 0.87337 0.0
C2676 C 0.70744 0.83776 0.87582 0.0
H2677 H 0.57878 0.77662 0.8224 0.0
H2678 H 0.6076 0.78841 0.84953 0.0
C2679 C 0.72679 0.84831 0.8785 0.0
C2680 C 0.67744 0.83591 0.86309 0.0
H2681 H 0.63351 0.82868 0.87223 0.0
C2682 C 0.67418 0.8257 0.83842 0.0
C2683 C 0.66244 0.83641 0.87603 0.0
C2684 C 0.66478 0.84619 0.90329 0.0
C2685 C 0.65663 0.81678 0.82571 0.0
C2686 C 0.64198 0.81832 0.83769 0.0
C2687 C 0.64487 0.82769 0.86301 0.0
C2688 C 0.62422 0.81168 0.82275 0.0
C2689 C 0.654 0.8062 0.79906 0.0
C2690 C 0.62409 0.82102 0.79903 0.0
C2691 C 0.60781 0.81438 0.78357 0.0
C2692 C 0.59127 0.79822 0.79153 0.0
C2693 C 0.59132 0.78904 0.81566 0.0
C2694 C 0.60771 0.79578 0.83123 0.0
H2695 H 0.665 0.80245 0.79605 0.0
H2696 H 0.64015 0.79313 0.79829 0.0
H2697 H 0.65471 0.81517 0.78176 0.0
H2698 H 0.63671 0.83338 0.79227 0.0
H2699 H 0.60828 0.82187 0.76521 0.0
H2700 H 0.23528 0.81109 0.8167 0.0
H2701 H 0.21663 0.82646 0.81366 0.0
H2702 H 0.1768 0.78637 0.86997 0.0
H2703 H 0.19531 0.77112 0.8735 0.0
H2704 H 0.17919 0.81063 0.79672 0.0
H2705 H 0.18907 0.8369 0.9043 0.0
H2706 H 0.20353 0.82877 0.88884 0.0
H2707 H 0.18065 0.81215 0.90098 0.0
C2708 C 0.22261 0.80561 0.82856 0.0
C2709 C 0.21688 0.78994 0.84548 0.0
C2710 C 0.21197 0.81439 0.82677 0.0
C2711 C 0.19551 0.80771 0.84193 0.0
C2712 C 0.18967 0.79199 0.85857 0.0
H2713 H 0.11325 0.8438 0.85632 0.0
H2714 H 0.12917 0.82558 0.85881 0.0
C2715 C 0.20026 0.78324 0.86043 0.0
C2716 C 0.18414 0.81686 0.83992 0.0
H2717 H 0.16678 0.83971 0.87758 0.0
C2718 C 0.17651 0.81705 0.81436 0.0
C2719 C 0.18059 0.82508 0.86305 0.0
C2720 C 0.18901 0.8259 0.89081 0.0
C2721 C 0.1653 0.82517 0.81132 0.0
C2722 C 0.16189 0.83352 0.83439 0.0
C2723 C 0.16934 0.83316 0.86001 0.0
C2724 C 0.15169 0.84385 0.83199 0.0
C2725 C 0.15709 0.82464 0.7835 0.0
C2726 C 0.15918 0.86016 0.81627 0.0
C2727 C 0.15022 0.87057 0.81487 0.0
C2728 C 0.13357 0.86494 0.82927 0.0
C2729 C 0.12599 0.84848 0.8449 0.0
C2730 C 0.13507 0.83808 0.84638 0.0
H2731 H 0.15669 0.81344 0.77008 0.0
H2732 H 0.14274 0.82226 0.78538 0.0
H2733 H 0.16582 0.83833 0.77335 0.0
H2734 H 0.17218 0.86503 0.80545 0.0
H2735 H 0.1565 0.88316 0.80263 0.0
H2736 H 0.19124 0.42335 0.80621 0.0
H2737 H 0.16657 0.39018 0.80696 0.0
H2738 H 0.20376 0.3762 0.84828 0.0
H2739 H 0.22835 0.40907 0.84784 0.0
H2740 H 0.1666 0.35748 0.78583 0.0
H2741 H 0.15782 0.35523 0.89868 0.0
H2742 H 0.16973 0.377 0.88012 0.0
H2743 H 0.18151 0.36433 0.88803 0.0
C2744 C 0.1942 0.41321 0.81534 0.0
C2745 C 0.21175 0.41894 0.82719 0.0
C2746 C 0.18008 0.39429 0.81578 0.0
C2747 C 0.18327 0.38087 0.8282 0.0
C2748 C 0.20091 0.38643 0.83917 0.0
H2749 H 0.12867 0.26231 0.85518 0.0
H2750 H 0.14916 0.29642 0.85402 0.0
C2751 C 0.21499 0.40525 0.83875 0.0
C2752 C 0.16829 0.36096 0.8297 0.0
H2753 H 0.1438 0.32567 0.875 0.0
C2754 C 0.16141 0.35054 0.80527 0.0
C2755 C 0.1616 0.35201 0.85515 0.0
C2756 C 0.1679 0.36274 0.882 0.0
C2757 C 0.14853 0.33115 0.80563 0.0
C2758 C 0.14221 0.32211 0.83112 0.0
C2759 C 0.14875 0.33265 0.85552 0.0
C2760 C 0.12932 0.30159 0.8329 0.0
C2761 C 0.14236 0.32037 0.77881 0.0
C2762 C 0.11122 0.29329 0.82203 0.0
C2763 C 0.09945 0.2738 0.82264 0.0
C2764 C 0.10555 0.26225 0.83426 0.0
C2765 C 0.12351 0.27073 0.84599 0.0
C2766 C 0.13526 0.29023 0.84534 0.0
H2767 H 0.15152 0.32855 0.76159 0.0
H2768 H 0.14226 0.30687 0.78022 0.0
H2769 H 0.12798 0.3171 0.77393 0.0
H2770 H 0.10625 0.30188 0.81283 0.0
H2771 H 0.08568 0.2678 0.81359 0.0
H2772 H 0.83169 0.73653 0.69141 0.0
H2773 H 0.81907 0.70261 0.69274 0.0
H2774 H 0.86778 0.7092 0.65119 0.0
H2775 H 0.88069 0.74324 0.64991 0.0
H2776 H 0.81141 0.67611 0.6495 0.0
H2777 H 0.8652 0.68098 0.72218 0.0
H2778 H 0.86133 0.70036 0.71635 0.0
H2779 H 0.87427 0.69499 0.692 0.0
C2780 C 0.83973 0.73082 0.68242 0.0
C2781 C 0.85731 0.74267 0.67077 0.0
C2782 C 0.83246 0.71141 0.6832 0.0
C2783 C 0.84265 0.70349 0.67251 0.0
C2784 C 0.85988 0.71514 0.66001 0.0
H2785 H 0.82928 0.59385 0.65675 0.0
H2786 H 0.8395 0.62722 0.65814 0.0
C2787 C 0.86717 0.73457 0.65916 0.0
C2788 C 0.83532 0.68305 0.67479 0.0
H2789 H 0.8447 0.65091 0.70275 0.0
C2790 C 0.81859 0.67055 0.66126 0.0
C2791 C 0.84471 0.67592 0.69031 0.0
C2792 C 0.86229 0.68872 0.70627 0.0
C2793 C 0.8113 0.65104 0.66208 0.0
C2794 C 0.82085 0.64392 0.67727 0.0
C2795 C 0.83741 0.65644 0.69117 0.0
C2796 C 0.81454 0.62361 0.67763 0.0
C2797 C 0.79381 0.63825 0.64595 0.0
C2798 C 0.79723 0.61052 0.68869 0.0
C2799 C 0.79126 0.59129 0.68791 0.0
C2800 C 0.80257 0.5849 0.67613 0.0
C2801 C 0.82014 0.5982 0.66585 0.0
C2802 C 0.82605 0.61732 0.66663 0.0
H2803 H 0.79045 0.64611 0.63083 0.0
H2804 H 0.79521 0.62717 0.63488 0.0
H2805 H 0.7819 0.63122 0.66024 0.0
H2806 H 0.7883 0.61515 0.69776 0.0
H2807 H 0.7777 0.58146 0.69612 0.0
H2808 H 0.26949 0.11646 0.70029 0.0
H2809 H 0.3032 0.13447 0.69571 0.0
H2810 H 0.29817 0.17029 0.63677 0.0
H2811 H 0.26409 0.15213 0.64102 0.0
H2812 H 0.32156 0.1557 0.62057 0.0
H2813 H 0.33973 0.18777 0.72475 0.0
H2814 H 0.32415 0.16278 0.72463 0.0
H2815 H 0.3166 0.17786 0.71026 0.0
C2816 C 0.27545 0.12823 0.68644 0.0
C2817 C 0.26403 0.13284 0.67102 0.0
C2818 C 0.29478 0.13859 0.68401 0.0
C2819 C 0.30316 0.15386 0.66624 0.0
C2820 C 0.29191 0.15861 0.65079 0.0
H2821 H 0.41931 0.22372 0.61964 0.0
H2822 H 0.38559 0.20905 0.62352 0.0
C2823 C 0.27247 0.14825 0.65327 0.0
C2824 C 0.32364 0.16411 0.66296 0.0
H2825 H 0.36451 0.18872 0.6987 0.0
C2826 C 0.33099 0.16313 0.63752 0.0
C2827 C 0.33585 0.17366 0.68521 0.0
C2828 C 0.32872 0.17576 0.71269 0.0
C2829 C 0.35026 0.17093 0.63396 0.0
C2830 C 0.36244 0.18022 0.65634 0.0
C2831 C 0.3551 0.18147 0.68165 0.0
C2832 C 0.3829 0.18891 0.65385 0.0
C2833 C 0.35736 0.16865 0.60654 0.0
C2834 C 0.39263 0.18268 0.67007 0.0
C2835 C 0.41201 0.19111 0.66805 0.0
C2836 C 0.42199 0.20601 0.64986 0.0
C2837 C 0.41212 0.21221 0.63375 0.0
C2838 C 0.39279 0.20379 0.63581 0.0
H2839 H 0.34612 0.15722 0.59395 0.0
H2840 H 0.36289 0.18194 0.59503 0.0
H2841 H 0.36882 0.16556 0.60916 0.0
H2842 H 0.38521 0.17126 0.68425 0.0
H2843 H 0.41915 0.18602 0.68082 0.0
H2844 H 0.84025 0.10954 0.60438 0.0
H2845 H 0.82245 0.12591 0.60389 0.0
H2846 H 0.86918 0.1749 0.64067 0.0
H2847 H 0.88706 0.15897 0.64072 0.0
H2848 H 0.81303 0.13701 0.6502 0.0
H2849 H 0.85248 0.19924 0.58544 0.0
H2850 H 0.85623 0.17947 0.5843 0.0
H2851 H 0.86749 0.19758 0.61023 0.0
C2852 C 0.8469 0.12398 0.61164 0.0
C2853 C 0.86503 0.13288 0.62279 0.0
C2854 C 0.8367 0.13331 0.61138 0.0
C2855 C 0.84455 0.15173 0.62194 0.0
C2856 C 0.86295 0.1609 0.63178 0.0
H2857 H 0.81487 0.22317 0.7045 0.0
H2858 H 0.82986 0.20856 0.6793 0.0
C2859 C 0.87311 0.15164 0.63207 0.0
C2860 C 0.83291 0.16048 0.62647 0.0
H2861 H 0.83325 0.20196 0.62078 0.0
C2862 C 0.81716 0.15102 0.64319 0.0
C2863 C 0.83837 0.17881 0.61743 0.0
C2864 C 0.85447 0.18926 0.59812 0.0
C2865 C 0.80745 0.15983 0.65254 0.0
C2866 C 0.81351 0.1785 0.64465 0.0
C2867 C 0.82871 0.18767 0.6269 0.0
C2868 C 0.80506 0.18909 0.65648 0.0
C2869 C 0.79144 0.14946 0.67209 0.0
C2870 C 0.78635 0.18343 0.65122 0.0
C2871 C 0.77773 0.19171 0.66563 0.0
C2872 C 0.78769 0.20582 0.68552 0.0
C2873 C 0.80676 0.21227 0.68946 0.0
C2874 C 0.81537 0.20397 0.67503 0.0
H2875 H 0.79058 0.1364 0.67977 0.0
H2876 H 0.79281 0.15858 0.68992 0.0
H2877 H 0.77815 0.14551 0.6614 0.0
H2878 H 0.77825 0.17215 0.63668 0.0
H2879 H 0.76306 0.18653 0.66189 0.0
H2880 H 0.06159 0.55033 0.54471 0.0
H2881 H 0.02783 0.53112 0.53864 0.0
H2882 H 0.03172 0.48082 0.54027 0.0
H2883 H 0.06556 0.50007 0.54501 0.0
H2884 H 0.01652 0.48205 0.49502 0.0
H2885 H 0.98067 0.49725 0.57789 0.0
H2886 H 0.99839 0.51868 0.56312 0.0
H2887 H 0.00485 0.50362 0.58061 0.0
C2888 C 0.05514 0.53516 0.54483 0.0
C2889 C 0.06614 0.52667 0.54508 0.0
C2890 C 0.03578 0.52414 0.5415 0.0
C2891 C 0.02714 0.50446 0.53907 0.0
C2892 C 0.03804 0.49596 0.54202 0.0
H2893 H 0.90948 0.43755 0.48301 0.0
H2894 H 0.93732 0.44798 0.512 0.0
C2895 C 0.05737 0.50696 0.54476 0.0
C2896 C 0.00775 0.49323 0.52833 0.0
H2897 H 0.96386 0.48665 0.53423 0.0
C2898 C 0.00494 0.48273 0.50407 0.0
C2899 C 0.99252 0.49393 0.54007 0.0
C2900 C 0.99423 0.50382 0.56703 0.0
C2901 C 0.98772 0.4739 0.49042 0.0
C2902 C 0.97298 0.4759 0.50094 0.0
C2903 C 0.97531 0.48536 0.52604 0.0
C2904 C 0.95587 0.4699 0.48455 0.0
C2905 C 0.98562 0.463 0.46427 0.0
C2906 C 0.95713 0.47895 0.45984 0.0
C2907 C 0.94141 0.47308 0.44335 0.0
C2908 C 0.92403 0.45801 0.45124 0.0
C2909 C 0.9227 0.44912 0.4763 0.0
C2910 C 0.93853 0.45509 0.49291 0.0
H2911 H 0.99604 0.45833 0.46314 0.0
H2912 H 0.97143 0.45047 0.46249 0.0
H2913 H 0.98783 0.47215 0.44648 0.0
H2914 H 0.97037 0.49055 0.45321 0.0
H2915 H 0.94296 0.48033 0.4243 0.0
H2916 H 0.44099 0.51295 0.52639 0.0
H2917 H 0.45808 0.49612 0.53286 0.0
H2918 H 0.49966 0.53287 0.47547 0.0
H2919 H 0.48297 0.54975 0.46897 0.0
H2920 H 0.46919 0.47776 0.49241 0.0
H2921 H 0.52983 0.53714 0.54521 0.0
H2922 H 0.50769 0.53607 0.54138 0.0
H2923 H 0.52373 0.54331 0.51325 0.0
C2924 C 0.45374 0.51741 0.51511 0.0
C2925 C 0.46067 0.53281 0.49735 0.0
C2926 C 0.46347 0.50779 0.51884 0.0
C2927 C 0.48028 0.51352 0.50502 0.0
C2928 C 0.48692 0.52851 0.48676 0.0
H2929 H 0.56386 0.48125 0.49008 0.0
H2930 H 0.54452 0.49581 0.48663 0.0
C2931 C 0.47727 0.53808 0.48301 0.0
C2932 C 0.49103 0.50391 0.50935 0.0
H2933 H 0.53369 0.51177 0.52985 0.0
C2934 C 0.48321 0.48508 0.50087 0.0
C2935 C 0.50933 0.51359 0.52031 0.0
C2936 C 0.51811 0.5336 0.53081 0.0
C2937 C 0.49349 0.47583 0.50222 0.0
C2938 C 0.51192 0.48564 0.51272 0.0
C2939 C 0.5196 0.50436 0.52163 0.0
C2940 C 0.52349 0.47671 0.51471 0.0
C2941 C 0.48476 0.45585 0.49165 0.0
C2942 C 0.51817 0.46136 0.53193 0.0
C2943 C 0.52916 0.45303 0.53399 0.0
C2944 C 0.54576 0.45996 0.51893 0.0
C2945 C 0.55116 0.47552 0.50191 0.0
C2946 C 0.54013 0.48386 0.4999 0.0
H2947 H 0.47242 0.45193 0.4784 0.0
H2948 H 0.495 0.45376 0.47979 0.0
H2949 H 0.48013 0.44615 0.50927 0.0
H2950 H 0.50556 0.45588 0.54394 0.0
H2951 H 0.52458 0.44113 0.54741 0.0
H2952 H 0.52813 0.092 0.47289 0.0
H2953 H 0.50346 0.05881 0.47218 0.0
H2954 H 0.53928 0.04438 0.51654 0.0
H2955 H 0.56386 0.07725 0.51754 0.0
H2956 H 0.50463 0.02647 0.45131 0.0
H2957 H 0.49139 0.02255 0.56318 0.0
H2958 H 0.50382 0.04459 0.54537 0.0
H2959 H 0.51548 0.03202 0.55451 0.0
C2960 C 0.53077 0.08175 0.48242 0.0
C2961 C 0.54794 0.08735 0.49547 0.0
C2962 C 0.51666 0.06283 0.48201 0.0
C2963 C 0.51947 0.04927 0.49478 0.0
C2964 C 0.53672 0.05472 0.50709 0.0
H2965 H 0.46364 0.93038 0.51986 0.0
H2966 H 0.48443 0.96445 0.5192 0.0
C2967 C 0.5508 0.07354 0.50749 0.0
C2968 C 0.50452 0.02932 0.4952 0.0
H2969 H 0.47834 0.99337 0.53868 0.0
C2970 C 0.49868 0.01924 0.47033 0.0
C2971 C 0.49685 0.02 0.52011 0.0
C2972 C 0.50205 0.03036 0.54731 0.0
C2973 C 0.48587 -0.00017 0.46981 0.0
C2974 C 0.47855 0.99043 0.49479 0.0
C2975 C 0.48406 0.00063 0.51959 0.0
C2976 C 0.46559 0.96989 0.49573 0.0
C2977 C 0.48084 0.98943 0.44264 0.0
C2978 C 0.44798 0.96174 0.48323 0.0
C2979 C 0.43605 0.94227 0.48352 0.0
C2980 C 0.4415 0.9306 0.49648 0.0
C2981 C 0.459 0.93891 0.50962 0.0
C2982 C 0.47091 0.95838 0.50928 0.0
H2983 H 0.49075 0.99783 0.42625 0.0
H2984 H 0.4806 0.97587 0.44433 0.0
H2985 H 0.46672 0.98629 0.43633 0.0
H2986 H 0.44347 0.97044 0.47315 0.0
H2987 H 0.42263 0.93639 0.47336 0.0
H2988 H 0.53553 0.0708 0.97791 0.0
H2989 H 0.5224 0.03675 0.97927 0.0
H2990 H 0.47422 0.03069 0.02187 0.0
H2991 H 0.48727 0.06467 0.02098 0.0
H2992 H 0.49 0.0119 0.04667 0.0
H2993 H 0.47914 0.99499 0.93544 0.0
H2994 H 0.5024 0.01318 0.9441 0.0
H2995 H 0.48322 0.01712 0.94955 0.0
C2996 C 0.52204 0.06223 0.98729 0.0
C2997 C 0.51248 0.07051 0.99934 0.0
C2998 C 0.51452 0.04275 0.98793 0.0
C2999 C 0.49724 0.03119 0.00039 0.0
C3000 C 0.48754 0.03936 0.01208 0.0
H3001 H 0.43704 0.90984 0.03214 0.0
H3002 H 0.44571 0.94303 0.03054 0.0
C3003 C 0.49505 0.05881 0.0115 0.0
C3004 C 0.48974 0.0107 0.00253 0.0
H3005 H 0.47701 0.97093 0.96457 0.0
C3006 C 0.48696 0.00288 0.02874 0.0
C3007 C 0.48575 0.999 0.97909 0.0
C3008 C 0.4876 0.00644 0.95045 0.0
C3009 C 0.48096 0.98375 0.03215 0.0
C3010 C 0.47741 0.97217 0.0087 0.0
C3011 C 0.47979 0.9799 0.9825 0.0
C3012 C 0.4722 0.9522 0.01078 0.0
C3013 C 0.4791 0.97624 0.06075 0.0
C3014 C 0.48417 0.94641 9e-05 0.0
C3015 C 0.47928 0.92756 0.00088 0.0
C3016 C 0.46222 0.91402 0.01228 0.0
C3017 C 0.45031 0.9199 0.02334 0.0
C3018 C 0.45525 0.93885 0.02251 0.0
H3019 H 0.48587 0.98772 0.07633 0.0
H3020 H 0.46411 0.9676 0.06588 0.0
H3021 H 0.48536 0.96713 0.06208 0.0
H3022 H 0.49732 0.95651 0.99098 0.0
H3023 H 0.48884 0.92361 0.99221 0.0
H3024 H 0.92555 0.48598 0.98157 0.0
H3025 H 0.95952 0.50328 0.97587 0.0
H3026 H 0.96451 0.4671 0.03416 0.0
H3027 H 0.93085 0.44974 0.03992 0.0
H3028 H 0.98886 0.52207 0.01665 0.0
H3029 H 0.99068 0.4627 0.96466 0.0
H3030 H 0.96952 0.46364 0.96818 0.0
H3031 H 0.97836 0.45669 0.9966 0.0
C3032 C 0.93388 0.48176 0.99327 0.0
C3033 C 0.92542 0.46634 0.011 0.0
C3034 C 0.95327 0.49165 0.98997 0.0
C3035 C 0.96441 0.4862 0.00422 0.0
C3036 C 0.95608 0.47126 0.02256 0.0
H3037 H 0.08099 0.51993 0.01625 0.0
H3038 H 0.04716 0.50515 0.02129 0.0
C3039 C 0.93681 0.4614 0.02587 0.0
C3040 C 0.98479 0.49594 1e-05 0.0
H3041 H 0.0198 0.48851 0.97918 0.0
C3042 C 0.99566 0.51483 0.00824 0.0
C3043 C 0.99353 0.48637 0.98909 0.0
C3044 C 0.98244 0.46628 0.97888 0.0
C3045 C 0.01518 0.52429 0.00657 0.0
C3046 C 0.02394 0.51463 0.996 0.0
C3047 C 0.01303 0.49581 0.98745 0.0
C3048 C 0.04442 0.52383 0.99334 0.0
C3049 C 0.02631 0.54436 0.01682 0.0
C3050 C 0.05398 0.53905 0.97571 0.0
C3051 C 0.07325 0.5475 0.97275 0.0
C3052 C 0.08336 0.54082 0.98727 0.0
C3053 C 0.07368 0.52545 0.0048 0.0
C3054 C 0.05436 0.51699 0.00772 0.0
H3055 H 0.01792 0.54816 0.03034 0.0
H3056 H 0.0389 0.54678 0.02827 0.0
H3057 H 0.03096 0.55394 0.99905 0.0
H3058 H 0.0465 0.54428 0.96402 0.0
H3059 H 0.08019 0.55925 0.95898 0.0
H3060 H 0.56514 0.49861 0.95752 0.0
H3061 H 0.54854 0.51578 0.96438 0.0
H3062 H 0.49625 0.46489 0.94876 0.0
H3063 H 0.51282 0.44761 0.94135 0.0
H3064 H 0.4989 0.50103 0.93079 0.0
H3065 H 0.51985 0.50029 0.03899 0.0
H3066 H 0.53853 0.51041 0.01466 0.0
H3067 H 0.52154 0.48577 0.0125 0.0
C3068 C 0.55016 0.4912 0.95465 0.0
C3069 C 0.54023 0.47171 0.94937 0.0
C3070 C 0.54071 0.50103 0.95856 0.0
C3071 C 0.52119 0.4915 0.95759 0.0
C3072 C 0.51134 0.47246 0.94962 0.0
H3073 H 0.44449 0.50658 0.05359 0.0
H3074 H 0.46195 0.49575 0.0265 0.0
C3075 C 0.52082 0.46262 0.94538 0.0
C3076 C 0.51111 0.50045 0.96941 0.0
H3077 H 0.50244 0.51498 0.03059 0.0
C3078 C 0.49974 0.50424 0.95255 0.0
C3079 C 0.51212 0.50438 0.99789 0.0
C3080 C 0.52353 0.4999 0.01719 0.0
C3081 C 0.48927 0.51186 0.96358 0.0
C3082 C 0.4903 0.51572 0.99203 0.0
C3083 C 0.50182 0.5121 0.00874 0.0
C3084 C 0.47849 0.52207 0.00562 0.0
C3085 C 0.47673 0.5152 0.94506 0.0
C3086 C 0.48193 0.54049 0.00264 0.0
C3087 C 0.47196 0.54683 0.01828 0.0
C3088 C 0.45851 0.53483 0.03717 0.0
C3089 C 0.45482 0.51625 0.0394 0.0
C3090 C 0.46473 0.50998 0.02385 0.0
H3091 H 0.47596 0.50957 0.92399 0.0
H3092 H 0.46245 0.50854 0.95365 0.0
H3093 H 0.48208 0.53053 0.94382 0.0
H3094 H 0.49269 0.5501 0.98891 0.0
H3095 H 0.47511 0.5612 0.01609 0.0
loop_
_geom_bond_atom_site_label_1
_geom_bond_atom_site_label_2
_geom_bond_distance
_geom_bond_site_symmetry_2
_ccdc_geom_bond_type
Mg0 O1 2.028 . S
Mg0 O7 1.986 . S
Mg0 O9 2.114 . S
Mg0 O10 2.251 . S
Mg0 O13 2.010 . S
O1 Mg0 2.028 . S
O1 C4 1.250 . S
O2 Mg3 2.028 . S
O2 C4 1.248 . S
Mg3 O2 2.028 . S
Mg3 O8 2.032 . S
Mg3 O10 2.079 . S
C4 O1 1.250 . S
C4 O2 1.248 . S
C5 O6 1.264 . S
C5 O13 1.249 . S
O6 C5 1.264 . S
O7 Mg0 1.986 . S
O7 C11 1.246 . S
O8 Mg3 2.032 . S
O8 C11 1.259 . S
O9 Mg0 2.114 . S
O9 C12 1.252 . S
O10 Mg0 2.251 . S
O10 Mg3 2.079 . S
O10 C12 1.273 . S
C11 O7 1.246 . S
C11 O8 1.259 . S
C12 O9 1.252 . S
C12 O10 1.273 . S
O13 Mg0 2.010 . S
O13 C5 1.249 . S
Mg14 O15 2.028 . S
Mg14 O21 1.986 . S
Mg14 O23 2.114 . S
Mg14 O24 2.251 . S
Mg14 O27 2.010 . S
O15 Mg14 2.028 . S
O15 C18 1.250 . S
O16 Mg17 2.028 . S
O16 C18 1.248 . S
Mg17 O16 2.028 . S
Mg17 O22 2.032 . S
Mg17 O24 2.079 . S
C18 O15 1.250 . S
C18 O16 1.248 . S
C19 O20 1.264 . S
C19 O27 1.249 . S
O20 C19 1.264 . S
O21 Mg14 1.986 . S
O21 C25 1.246 . S
O22 Mg17 2.032 . S
O22 C25 1.259 . S
O23 Mg14 2.114 . S
O23 C26 1.252 . S
O24 Mg14 2.251 . S
O24 Mg17 2.079 . S
O24 C26 1.273 . S
C25 O21 1.246 . S
C25 O22 1.259 . S
C26 O23 1.252 . S
C26 O24 1.273 . S
O27 Mg14 2.010 . S
O27 C19 1.249 . S
Mg28 O29 2.028 . S
Mg28 O35 1.986 . S
Mg28 O37 2.114 . S
Mg28 O38 2.251 . S
Mg28 O41 2.010 . S
O29 Mg28 2.028 . S
O29 C32 1.250 . S
O30 Mg31 2.028 . S
O30 C32 1.248 . S
Mg31 O30 2.028 . S
Mg31 O36 2.032 . S
Mg31 O38 2.079 . S
C32 O29 1.250 . S
C32 O30 1.248 . S
C33 O34 1.264 . S
C33 O41 1.249 . S
O34 C33 1.264 . S
O35 Mg28 1.986 . S
O35 C39 1.246 . S
O36 Mg31 2.032 . S
O36 C39 1.259 . S
O37 Mg28 2.114 . S
O37 C40 1.252 . S
O38 Mg28 2.251 . S
O38 Mg31 2.079 . S
O38 C40 1.273 . S
C39 O35 1.246 . S
C39 O36 1.259 . S
C40 O37 1.252 . S
C40 O38 1.273 . S
O41 Mg28 2.010 . S
O41 C33 1.249 . S
Mg42 O43 2.028 . S
Mg42 O49 1.986 . S
Mg42 O51 2.114 . S
Mg42 O52 2.251 . S
Mg42 O55 2.010 . S
O43 Mg42 2.028 . S
O43 C46 1.250 . S
O44 Mg45 2.028 . S
O44 C46 1.248 . S
Mg45 O44 2.028 . S
Mg45 O50 2.032 . S
Mg45 O52 2.079 . S
C46 O43 1.250 . S
C46 O44 1.248 . S
C47 O48 1.264 . S
C47 O55 1.249 . S
O48 C47 1.264 . S
O49 Mg42 1.986 . S
O49 C53 1.246 . S
O50 Mg45 2.032 . S
O50 C53 1.259 . S
O51 Mg42 2.114 . S
O51 C54 1.252 . S
O52 Mg42 2.251 . S
O52 Mg45 2.079 . S
O52 C54 1.273 . S
C53 O49 1.246 . S
C53 O50 1.259 . S
C54 O51 1.252 . S
C54 O52 1.273 . S
O55 Mg42 2.010 . S
O55 C47 1.249 . S
Mg56 O57 2.028 . S
Mg56 O63 1.986 . S
Mg56 O65 2.114 . S
Mg56 O66 2.251 . S
Mg56 O69 2.010 . S
O57 Mg56 2.028 . S
O57 C60 1.250 . S
O58 Mg59 2.028 . S
O58 C60 1.248 . S
Mg59 O58 2.028 . S
Mg59 O64 2.032 . S
Mg59 O66 2.079 . S
C60 O57 1.250 . S
C60 O58 1.248 . S
C61 O62 1.264 . S
C61 O69 1.249 . S
O62 C61 1.264 . S
O63 Mg56 1.986 . S
O63 C67 1.246 . S
O64 Mg59 2.032 . S
O64 C67 1.259 . S
O65 Mg56 2.114 . S
O65 C68 1.252 . S
O66 Mg56 2.251 . S
O66 Mg59 2.079 . S
O66 C68 1.273 . S
C67 O63 1.246 . S
C67 O64 1.259 . S
C68 O65 1.252 . S
C68 O66 1.273 . S
O69 Mg56 2.010 . S
O69 C61 1.249 . S
Mg70 O71 2.028 . S
Mg70 O77 1.986 . S
Mg70 O79 2.114 . S
Mg70 O80 2.251 . S
Mg70 O83 2.010 . S
O71 Mg70 2.028 . S
O71 C74 1.250 . S
O72 Mg73 2.028 . S
O72 C74 1.248 . S
Mg73 O72 2.028 . S
Mg73 O78 2.032 . S
Mg73 O80 2.079 . S
C74 O71 1.250 . S
C74 O72 1.248 . S
C75 O76 1.264 . S
C75 O83 1.249 . S
O76 C75 1.264 . S
O77 Mg70 1.986 . S
O77 C81 1.246 . S
O78 Mg73 2.032 . S
O78 C81 1.259 . S
O79 Mg70 2.114 . S
O79 C82 1.252 . S
O80 Mg70 2.251 . S
O80 Mg73 2.079 . S
O80 C82 1.273 . S
C81 O77 1.246 . S
C81 O78 1.259 . S
C82 O79 1.252 . S
C82 O80 1.273 . S
O83 Mg70 2.010 . S
O83 C75 1.249 . S
Mg84 O85 2.028 . S
Mg84 O91 1.986 . S
Mg84 O93 2.114 . S
Mg84 O94 2.251 . S
Mg84 O97 2.010 . S
O85 Mg84 2.028 . S
O85 C88 1.250 . S
O86 Mg87 2.028 . S
O86 C88 1.248 . S
Mg87 O86 2.028 . S
Mg87 O92 2.032 . S
Mg87 O94 2.079 . S
C88 O85 1.250 . S
C88 O86 1.248 . S
C89 O90 1.264 . S
C89 O97 1.249 . S
O90 C89 1.264 . S
O91 Mg84 1.986 . S
O91 C95 1.246 . S
O92 Mg87 2.032 . S
O92 C95 1.259 . S
O93 Mg84 2.114 . S
O93 C96 1.252 . S
O94 Mg84 2.251 . S
O94 Mg87 2.079 . S
O94 C96 1.273 . S
C95 O91 1.246 . S
C95 O92 1.259 . S
C96 O93 1.252 . S
C96 O94 1.273 . S
O97 Mg84 2.010 . S
O97 C89 1.249 . S
Mg98 O99 2.028 . S
Mg98 O105 1.986 . S
Mg98 O107 2.114 . S
Mg98 O108 2.251 . S
Mg98 O111 2.010 . S
O99 Mg98 2.028 . S
O99 C102 1.250 . S
O100 Mg101 2.028 . S
O100 C102 1.248 . S
Mg101 O100 2.028 . S
Mg101 O106 2.032 . S
Mg101 O108 2.079 . S
C102 O99 1.250 . S
C102 O100 1.248 . S
C103 O104 1.264 . S
C103 O111 1.249 . S
O104 C103 1.264 . S
O105 Mg98 1.986 . S
O105 C109 1.246 . S
O106 Mg101 2.032 . S
O106 C109 1.259 . S
O107 Mg98 2.114 . S
O107 C110 1.252 . S
O108 Mg98 2.251 . S
O108 Mg101 2.079 . S
O108 C110 1.273 . S
C109 O105 1.246 . S
C109 O106 1.259 . S
C110 O107 1.252 . S
C110 O108 1.273 . S
O111 Mg98 2.010 . S
O111 C103 1.249 . S
Mg112 O113 2.028 . S
Mg112 O119 1.986 . S
Mg112 O121 2.114 . S
Mg112 O122 2.251 . S
Mg112 O125 2.010 . S
O113 Mg112 2.028 . S
O113 C116 1.250 . S
O114 Mg115 2.028 . S
O114 C116 1.248 . S
Mg115 O114 2.028 . S
Mg115 O120 2.032 . S
Mg115 O122 2.079 . S
C116 O113 1.250 . S
C116 O114 1.248 . S
C117 O118 1.264 . S
C117 O125 1.249 . S
O118 C117 1.264 . S
O119 Mg112 1.986 . S
O119 C123 1.246 . S
O120 Mg115 2.032 . S
O120 C123 1.259 . S
O121 Mg112 2.114 . S
O121 C124 1.252 . S
O122 Mg112 2.251 . S
O122 Mg115 2.079 . S
O122 C124 1.273 . S
C123 O119 1.246 . S
C123 O120 1.259 . S
C124 O121 1.252 . S
C124 O122 1.273 . S
O125 Mg112 2.010 . S
O125 C117 1.249 . S
Mg126 O127 2.028 . S
Mg126 O133 1.986 . S
Mg126 O135 2.114 . S
Mg126 O136 2.251 . S
Mg126 O139 2.010 . S
O127 Mg126 2.028 . S
O127 C130 1.250 . S
O128 Mg129 2.028 . S
O128 C130 1.248 . S
Mg129 O128 2.028 . S
Mg129 O134 2.032 . S
Mg129 O136 2.079 . S
C130 O127 1.250 . S
C130 O128 1.248 . S
C131 O132 1.264 . S
C131 O139 1.249 . S
O132 C131 1.264 . S
O133 Mg126 1.986 . S
O133 C137 1.246 . S
O134 Mg129 2.032 . S
O134 C137 1.259 . S
O135 Mg126 2.114 . S
O135 C138 1.252 . S
O136 Mg126 2.251 . S
O136 Mg129 2.079 . S
O136 C138 1.273 . S
C137 O133 1.246 . S
C137 O134 1.259 . S
C138 O135 1.252 . S
C138 O136 1.273 . S
O139 Mg126 2.010 . S
O139 C131 1.249 . S
Mg140 O141 2.028 . S
Mg140 O147 1.986 . S
Mg140 O149 2.114 . S
Mg140 O150 2.251 . S
Mg140 O153 2.010 . S
O141 Mg140 2.028 . S
O141 C144 1.250 . S
O142 Mg143 2.028 . S
O142 C144 1.248 . S
Mg143 O142 2.028 . S
Mg143 O148 2.032 . S
Mg143 O150 2.079 . S
C144 O141 1.250 . S
C144 O142 1.248 . S
C145 O146 1.264 . S
C145 O153 1.249 . S
O146 C145 1.264 . S
O147 Mg140 1.986 . S
O147 C151 1.246 . S
O148 Mg143 2.032 . S
O148 C151 1.259 . S
O149 Mg140 2.114 . S
O149 C152 1.252 . S
O150 Mg140 2.251 . S
O150 Mg143 2.079 . S
O150 C152 1.273 . S
C151 O147 1.246 . S
C151 O148 1.259 . S
C152 O149 1.252 . S
C152 O150 1.273 . S
O153 Mg140 2.010 . S
O153 C145 1.249 . S
Mg154 O155 2.028 . S
Mg154 O161 1.986 . S
Mg154 O163 2.114 . S
Mg154 O164 2.251 . S
Mg154 O167 2.010 . S
O155 Mg154 2.028 . S
O155 C158 1.250 . S
O156 Mg157 2.028 . S
O156 C158 1.248 . S
Mg157 O156 2.028 . S
Mg157 O162 2.032 . S
Mg157 O164 2.079 . S
C158 O155 1.250 . S
C158 O156 1.248 . S
C159 O160 1.264 . S
C159 O167 1.249 . S
O160 C159 1.264 . S
O161 Mg154 1.986 . S
O161 C165 1.246 . S
O162 Mg157 2.032 . S
O162 C165 1.259 . S
O163 Mg154 2.114 . S
O163 C166 1.252 . S
O164 Mg154 2.251 . S
O164 Mg157 2.079 . S
O164 C166 1.273 . S
C165 O161 1.246 . S
C165 O162 1.259 . S
C166 O163 1.252 . S
C166 O164 1.273 . S
O167 Mg154 2.010 . S
O167 C159 1.249 . S
Mg168 O169 2.028 . S
Mg168 O175 1.986 . S
Mg168 O177 2.114 . S
Mg168 O178 2.251 . S
Mg168 O181 2.010 . S
O169 Mg168 2.028 . S
O169 C172 1.250 . S
O170 Mg171 2.028 . S
O170 C172 1.248 . S
Mg171 O170 2.028 . S
Mg171 O176 2.032 . S
Mg171 O178 2.079 . S
C172 O169 1.250 . S
C172 O170 1.248 . S
C173 O174 1.264 . S
C173 O181 1.249 . S
O174 C173 1.264 . S
O175 Mg168 1.986 . S
O175 C179 1.246 . S
O176 Mg171 2.032 . S
O176 C179 1.259 . S
O177 Mg168 2.114 . S
O177 C180 1.252 . S
O178 Mg168 2.251 . S
O178 Mg171 2.079 . S
O178 C180 1.273 . S
C179 O175 1.246 . S
C179 O176 1.259 . S
C180 O177 1.252 . S
C180 O178 1.273 . S
O181 Mg168 2.010 . S
O181 C173 1.249 . S
Mg182 O183 2.028 . S
Mg182 O189 1.986 . S
Mg182 O191 2.114 . S
Mg182 O192 2.251 . S
Mg182 O195 2.010 . S
O183 Mg182 2.028 . S
O183 C186 1.250 . S
O184 Mg185 2.028 . S
O184 C186 1.248 . S
Mg185 O184 2.028 . S
Mg185 O190 2.032 . S
Mg185 O192 2.079 . S
C186 O183 1.250 . S
C186 O184 1.248 . S
C187 O188 1.264 . S
C187 O195 1.249 . S
O188 C187 1.264 . S
O189 Mg182 1.986 . S
O189 C193 1.246 . S
O190 Mg185 2.032 . S
O190 C193 1.259 . S
O191 Mg182 2.114 . S
O191 C194 1.252 . S
O192 Mg182 2.251 . S
O192 Mg185 2.079 . S
O192 C194 1.273 . S
C193 O189 1.246 . S
C193 O190 1.259 . S
C194 O191 1.252 . S
C194 O192 1.273 . S
O195 Mg182 2.010 . S
O195 C187 1.249 . S
Mg196 O197 2.028 . S
Mg196 O203 1.986 . S
Mg196 O205 2.114 . S
Mg196 O206 2.251 . S
Mg196 O209 2.010 . S
O197 Mg196 2.028 . S
O197 C200 1.250 . S
O198 Mg199 2.028 . S
O198 C200 1.248 . S
Mg199 O198 2.028 . S
Mg199 O204 2.032 . S
Mg199 O206 2.079 . S
C200 O197 1.250 . S
C200 O198 1.248 . S
C201 O202 1.264 . S
C201 O209 1.249 . S
O202 C201 1.264 . S
O203 Mg196 1.986 . S
O203 C207 1.246 . S
O204 Mg199 2.032 . S
O204 C207 1.259 . S
O205 Mg196 2.114 . S
O205 C208 1.252 . S
O206 Mg196 2.251 . S
O206 Mg199 2.079 . S
O206 C208 1.273 . S
C207 O203 1.246 . S
C207 O204 1.259 . S
C208 O205 1.252 . S
C208 O206 1.273 . S
O209 Mg196 2.010 . S
O209 C201 1.249 . S
Mg210 O211 2.028 . S
Mg210 O217 1.986 . S
Mg210 O219 2.114 . S
Mg210 O220 2.251 . S
Mg210 O223 2.010 . S
O211 Mg210 2.028 . S
O211 C214 1.250 . S
O212 Mg213 2.028 . S
O212 C214 1.248 . S
Mg213 O212 2.028 . S
Mg213 O218 2.032 . S
Mg213 O220 2.079 . S
C214 O211 1.250 . S
C214 O212 1.248 . S
C215 O216 1.264 . S
C215 O223 1.249 . S
O216 C215 1.264 . S
O217 Mg210 1.986 . S
O217 C221 1.246 . S
O218 Mg213 2.032 . S
O218 C221 1.259 . S
O219 Mg210 2.114 . S
O219 C222 1.252 . S
O220 Mg210 2.251 . S
O220 Mg213 2.079 . S
O220 C222 1.273 . S
C221 O217 1.246 . S
C221 O218 1.259 . S
C222 O219 1.252 . S
C222 O220 1.273 . S
O223 Mg210 2.010 . S
O223 C215 1.249 . S
Mg224 O225 2.028 . S
Mg224 O231 1.986 . S
Mg224 O233 2.114 . S
Mg224 O234 2.251 . S
Mg224 O237 2.010 . S
O225 Mg224 2.028 . S
O225 C228 1.250 . S
O226 Mg227 2.028 . S
O226 C228 1.248 . S
Mg227 O226 2.028 . S
Mg227 O232 2.032 . S
Mg227 O234 2.079 . S
C228 O225 1.250 . S
C228 O226 1.248 . S
C229 O230 1.264 . S
C229 O237 1.249 . S
O230 C229 1.264 . S
O231 Mg224 1.986 . S
O231 C235 1.246 . S
O232 Mg227 2.032 . S
O232 C235 1.259 . S
O233 Mg224 2.114 . S
O233 C236 1.252 . S
O234 Mg224 2.251 . S
O234 Mg227 2.079 . S
O234 C236 1.273 . S
C235 O231 1.246 . S
C235 O232 1.259 . S
C236 O233 1.252 . S
C236 O234 1.273 . S
O237 Mg224 2.010 . S
O237 C229 1.249 . S
Mg238 O239 2.028 . S
Mg238 O245 1.986 . S
Mg238 O247 2.114 . S
Mg238 O248 2.251 . S
Mg238 O251 2.010 . S
O239 Mg238 2.028 . S
O239 C242 1.250 . S
O240 Mg241 2.028 . S
O240 C242 1.248 . S
Mg241 O240 2.028 . S
Mg241 O246 2.032 . S
Mg241 O248 2.079 . S
C242 O239 1.250 . S
C242 O240 1.248 . S
C243 O244 1.264 . S
C243 O251 1.249 . S
O244 C243 1.264 . S
O245 Mg238 1.986 . S
O245 C249 1.246 . S
O246 Mg241 2.032 . S
O246 C249 1.259 . S
O247 Mg238 2.114 . S
O247 C250 1.252 . S
O248 Mg238 2.251 . S
O248 Mg241 2.079 . S
O248 C250 1.273 . S
C249 O245 1.246 . S
C249 O246 1.259 . S
C250 O247 1.252 . S
C250 O248 1.273 . S
O251 Mg238 2.010 . S
O251 C243 1.249 . S
Mg252 O253 2.028 . S
Mg252 O259 1.986 . S
Mg252 O261 2.114 . S
Mg252 O262 2.251 . S
Mg252 O265 2.010 . S
O253 Mg252 2.028 . S
O253 C256 1.250 . S
O254 Mg255 2.028 . S
O254 C256 1.248 . S
Mg255 O254 2.028 . S
Mg255 O260 2.032 . S
Mg255 O262 2.079 . S
C256 O253 1.250 . S
C256 O254 1.248 . S
C257 O258 1.264 . S
C257 O265 1.249 . S
O258 C257 1.264 . S
O259 Mg252 1.986 . S
O259 C263 1.246 . S
O260 Mg255 2.032 . S
O260 C263 1.259 . S
O261 Mg252 2.114 . S
O261 C264 1.252 . S
O262 Mg252 2.251 . S
O262 Mg255 2.079 . S
O262 C264 1.273 . S
C263 O259 1.246 . S
C263 O260 1.259 . S
C264 O261 1.252 . S
C264 O262 1.273 . S
O265 Mg252 2.010 . S
O265 C257 1.249 . S
Mg266 O267 2.028 . S
Mg266 O273 1.986 . S
Mg266 O275 2.114 . S
Mg266 O276 2.251 . S
Mg266 O279 2.010 . S
O267 Mg266 2.028 . S
O267 C270 1.250 . S
O268 Mg269 2.028 . S
O268 C270 1.248 . S
Mg269 O268 2.028 . S
Mg269 O274 2.032 . S
Mg269 O276 2.079 . S
C270 O267 1.250 . S
C270 O268 1.248 . S
C271 O272 1.264 . S
C271 O279 1.249 . S
O272 C271 1.264 . S
O273 Mg266 1.986 . S
O273 C277 1.246 . S
O274 Mg269 2.032 . S
O274 C277 1.259 . S
O275 Mg266 2.114 . S
O275 C278 1.252 . S
O276 Mg266 2.251 . S
O276 Mg269 2.079 . S
O276 C278 1.273 . S
C277 O273 1.246 . S
C277 O274 1.259 . S
C278 O275 1.252 . S
C278 O276 1.273 . S
O279 Mg266 2.010 . S
O279 C271 1.249 . S
Mg280 O281 2.028 . S
Mg280 O287 1.986 . S
Mg280 O289 2.114 . S
Mg280 O290 2.251 . S
Mg280 O293 2.010 . S
O281 Mg280 2.028 . S
O281 C284 1.250 . S
O282 Mg283 2.028 . S
O282 C284 1.248 . S
Mg283 O282 2.028 . S
Mg283 O288 2.032 . S
Mg283 O290 2.079 . S
C284 O281 1.250 . S
C284 O282 1.248 . S
C285 O286 1.264 . S
C285 O293 1.249 . S
O286 C285 1.264 . S
O287 Mg280 1.986 . S
O287 C291 1.246 . S
O288 Mg283 2.032 . S
O288 C291 1.259 . S
O289 Mg280 2.114 . S
O289 C292 1.252 . S
O290 Mg280 2.251 . S
O290 Mg283 2.079 . S
O290 C292 1.273 . S
C291 O287 1.246 . S
C291 O288 1.259 . S
C292 O289 1.252 . S
C292 O290 1.273 . S
O293 Mg280 2.010 . S
O293 C285 1.249 . S
Mg294 O295 2.028 . S
Mg294 O301 1.986 . S
Mg294 O303 2.114 . S
Mg294 O304 2.251 . S
Mg294 O307 2.010 . S
O295 Mg294 2.028 . S
O295 C298 1.250 . S
O296 Mg297 2.028 . S
O296 C298 1.248 . S
Mg297 O296 2.028 . S
Mg297 O302 2.032 . S
Mg297 O304 2.079 . S
C298 O295 1.250 . S
C298 O296 1.248 . S
C299 O300 1.264 . S
C299 O307 1.249 . S
O300 C299 1.264 . S
O301 Mg294 1.986 . S
O301 C305 1.246 . S
O302 Mg297 2.032 . S
O302 C305 1.259 . S
O303 Mg294 2.114 . S
O303 C306 1.272 . S
O304 Mg294 2.251 . S
O304 Mg297 2.079 . S
O304 C306 1.283 . S
C305 O301 1.246 . S
C305 O302 1.259 . S
C306 O303 1.272 . S
C306 O304 1.283 . S
O307 Mg294 2.010 . S
O307 C299 1.249 . S
Mg308 O309 2.028 . S
Mg308 O315 1.986 . S
Mg308 O317 2.114 . S
Mg308 O318 2.251 . S
Mg308 O321 2.010 . S
O309 Mg308 2.028 . S
O309 C312 1.250 . S
O310 Mg311 2.028 . S
O310 C312 1.248 . S
Mg311 O310 2.028 . S
Mg311 O316 2.032 . S
Mg311 O318 2.079 . S
C312 O309 1.250 . S
C312 O310 1.248 . S
C313 O314 1.264 . S
C313 O321 1.249 . S
O314 C313 1.264 . S
O315 Mg308 1.986 . S
O315 C319 1.246 . S
O316 Mg311 2.032 . S
O316 C319 1.259 . S
O317 Mg308 2.114 . S
O317 C320 1.252 . S
O318 Mg308 2.251 . S
O318 Mg311 2.079 . S
O318 C320 1.273 . S
C319 O315 1.246 . S
C319 O316 1.259 . S
C320 O317 1.252 . S
C320 O318 1.273 . S
O321 Mg308 2.010 . S
O321 C313 1.249 . S
Mg322 O323 2.028 . S
Mg322 O329 1.986 . S
Mg322 O331 2.114 . S
Mg322 O332 2.251 . S
Mg322 O335 2.010 . S
O323 Mg322 2.028 . S
O323 C326 1.250 . S
O324 Mg325 2.028 . S
O324 C326 1.248 . S
Mg325 O324 2.028 . S
Mg325 O330 2.032 . S
Mg325 O332 2.079 . S
C326 O323 1.250 . S
C326 O324 1.248 . S
C327 O328 1.264 . S
C327 O335 1.249 . S
O328 C327 1.264 . S
O329 Mg322 1.986 . S
O329 C333 1.246 . S
O330 Mg325 2.032 . S
O330 C333 1.259 . S
O331 Mg322 2.114 . S
O331 C334 1.252 . S
O332 Mg322 2.251 . S
O332 Mg325 2.079 . S
O332 C334 1.273 . S
C333 O329 1.246 . S
C333 O330 1.259 . S
C334 O331 1.252 . S
C334 O332 1.273 . S
O335 Mg322 2.010 . S
O335 C327 1.249 . S
Mg336 O337 2.028 . S
Mg336 O343 1.986 . S
Mg336 O345 2.114 . S
Mg336 O346 2.251 . S
Mg336 O349 2.010 . S
O337 Mg336 2.028 . S
O337 C340 1.250 . S
O338 Mg339 2.028 . S
O338 C340 1.248 . S
Mg339 O338 2.028 . S
Mg339 O344 2.032 . S
Mg339 O346 2.079 . S
C340 O337 1.250 . S
C340 O338 1.248 . S
C341 O342 1.264 . S
C341 O349 1.249 . S
O342 C341 1.264 . S
O343 Mg336 1.986 . S
O343 C347 1.246 . S
O344 Mg339 2.032 . S
O344 C347 1.259 . S
O345 Mg336 2.114 . S
O345 C348 1.252 . S
O346 Mg336 2.251 . S
O346 Mg339 2.079 . S
O346 C348 1.273 . S
C347 O343 1.246 . S
C347 O344 1.259 . S
C348 O345 1.252 . S
C348 O346 1.273 . S
O349 Mg336 2.010 . S
O349 C341 1.249 . S
Mg350 O351 2.028 . S
Mg350 O357 1.986 . S
Mg350 O359 2.114 . S
Mg350 O360 2.251 . S
Mg350 O363 2.010 . S
O351 Mg350 2.028 . S
O351 C354 1.250 . S
O352 Mg353 2.028 . S
O352 C354 1.248 . S
Mg353 O352 2.028 . S
Mg353 O358 2.032 . S
Mg353 O360 2.079 . S
C354 O351 1.250 . S
C354 O352 1.248 . S
C355 O356 1.264 . S
C355 O363 1.249 . S
O356 C355 1.264 . S
O357 Mg350 1.986 . S
O357 C361 1.246 . S
O358 Mg353 2.032 . S
O358 C361 1.259 . S
O359 Mg350 2.114 . S
O359 C362 1.252 . S
O360 Mg350 2.251 . S
O360 Mg353 2.079 . S
O360 C362 1.273 . S
C361 O357 1.246 . S
C361 O358 1.259 . S
C362 O359 1.252 . S
C362 O360 1.273 . S
O363 Mg350 2.010 . S
O363 C355 1.249 . S
Mg364 O365 2.028 . S
Mg364 O371 1.986 . S
Mg364 O373 2.114 . S
Mg364 O374 2.251 . S
Mg364 O377 2.010 . S
O365 Mg364 2.028 . S
O365 C368 1.250 . S
O366 Mg367 2.028 . S
O366 C368 1.248 . S
Mg367 O366 2.028 . S
Mg367 O372 2.032 . S
Mg367 O374 2.079 . S
C368 O365 1.250 . S
C368 O366 1.248 . S
C369 O370 1.264 . S
C369 O377 1.249 . S
O370 C369 1.264 . S
O371 Mg364 1.986 . S
O371 C375 1.246 . S
O372 Mg367 2.032 . S
O372 C375 1.259 . S
O373 Mg364 2.114 . S
O373 C376 1.252 . S
O374 Mg364 2.251 . S
O374 Mg367 2.079 . S
O374 C376 1.273 . S
C375 O371 1.246 . S
C375 O372 1.259 . S
C376 O373 1.252 . S
C376 O374 1.273 . S
O377 Mg364 2.010 . S
O377 C369 1.249 . S
Mg378 O379 2.028 . S
Mg378 O385 1.986 . S
Mg378 O387 2.114 . S
Mg378 O388 2.251 . S
Mg378 O391 2.010 . S
O379 Mg378 2.028 . S
O379 C382 1.250 . S
O380 Mg381 2.028 . S
O380 C382 1.248 . S
Mg381 O380 2.028 . S
Mg381 O386 2.032 . S
Mg381 O388 2.079 . S
C382 O379 1.250 . S
C382 O380 1.248 . S
C383 O384 1.264 . S
C383 O391 1.249 . S
O384 C383 1.264 . S
O385 Mg378 1.986 . S
O385 C389 1.246 . S
O386 Mg381 2.032 . S
O386 C389 1.259 . S
O387 Mg378 2.114 . S
O387 C390 1.252 1_554 S
O388 Mg378 2.251 . S
O388 Mg381 2.079 . S
O388 C390 1.273 1_554 S
C389 O385 1.246 . S
C389 O386 1.259 . S
C390 O387 1.252 1_556 S
C390 O388 1.273 1_556 S
O391 Mg378 2.010 . S
O391 C383 1.249 . S
Mg392 O393 2.028 . S
Mg392 O399 1.986 . S
Mg392 O401 2.114 . S
Mg392 O402 2.251 . S
Mg392 O405 2.010 . S
O393 Mg392 2.028 . S
O393 C396 1.250 . S
O394 Mg395 2.028 . S
O394 C396 1.248 . S
Mg395 O394 2.028 . S
Mg395 O400 2.032 . S
Mg395 O402 2.079 . S
C396 O393 1.250 . S
C396 O394 1.248 . S
C397 O398 1.264 . S
C397 O405 1.249 . S
O398 C397 1.264 . S
O399 Mg392 1.986 . S
O399 C403 1.246 . S
O400 Mg395 2.032 . S
O400 C403 1.259 . S
O401 Mg392 2.114 . S
O401 C404 1.252 . S
O402 Mg392 2.251 . S
O402 Mg395 2.079 . S
O402 C404 1.273 . S
C403 O399 1.246 . S
C403 O400 1.259 . S
C404 O401 1.252 . S
C404 O402 1.273 . S
O405 Mg392 2.010 . S
O405 C397 1.249 . S
Mg406 O407 2.028 . S
Mg406 O413 1.986 . S
Mg406 O415 2.114 . S
Mg406 O416 2.251 . S
Mg406 O419 2.010 . S
O407 Mg406 2.028 . S
O407 C410 1.250 . S
O408 Mg409 2.028 . S
O408 C410 1.248 . S
Mg409 O408 2.028 . S
Mg409 O414 2.032 . S
Mg409 O416 2.079 . S
C410 O407 1.250 . S
C410 O408 1.248 . S
C411 O412 1.264 . S
C411 O419 1.249 . S
O412 C411 1.264 . S
O413 Mg406 1.986 . S
O413 C417 1.246 . S
O414 Mg409 2.032 . S
O414 C417 1.259 . S
O415 Mg406 2.114 . S
O415 C418 1.252 . S
O416 Mg406 2.251 . S
O416 Mg409 2.079 . S
O416 C418 1.273 . S
C417 O413 1.246 . S
C417 O414 1.259 . S
C418 O415 1.252 . S
C418 O416 1.273 . S
O419 Mg406 2.010 . S
O419 C411 1.249 . S
Mg420 O421 2.028 . S
Mg420 O427 1.986 . S
Mg420 O429 2.114 . S
Mg420 O430 2.251 . S
Mg420 O433 2.010 . S
O421 Mg420 2.028 . S
O421 C424 1.250 . S
O422 Mg423 2.028 . S
O422 C424 1.248 . S
Mg423 O422 2.028 . S
Mg423 O428 2.032 . S
Mg423 O430 2.079 . S
C424 O421 1.250 . S
C424 O422 1.248 . S
C425 O426 1.264 . S
C425 O433 1.249 . S
O426 C425 1.264 . S
O427 Mg420 1.986 . S
O427 C431 1.246 . S
O428 Mg423 2.032 . S
O428 C431 1.259 . S
O429 Mg420 2.114 . S
O429 C432 1.252 . S
O430 Mg420 2.251 . S
O430 Mg423 2.079 . S
O430 C432 1.273 . S
C431 O427 1.246 . S
C431 O428 1.259 . S
C432 O429 1.252 . S
C432 O430 1.273 . S
O433 Mg420 2.010 . S
O433 C425 1.249 . S
Mg434 O435 2.028 . S
Mg434 O441 1.986 . S
Mg434 O443 2.114 . S
Mg434 O444 2.251 . S
Mg434 O447 2.010 . S
O435 Mg434 2.028 . S
O435 C438 1.250 . S
O436 Mg437 2.028 . S
O436 C438 1.248 . S
Mg437 O436 2.028 . S
Mg437 O442 2.032 . S
Mg437 O444 2.079 . S
C438 O435 1.250 . S
C438 O436 1.248 . S
C439 O440 1.264 . S
C439 O447 1.249 . S
O440 C439 1.264 . S
O441 Mg434 1.986 . S
O441 C445 1.246 . S
O442 Mg437 2.032 . S
O442 C445 1.259 . S
O443 Mg434 2.114 . S
O443 C446 1.252 . S
O444 Mg434 2.251 . S
O444 Mg437 2.079 . S
O444 C446 1.273 . S
C445 O441 1.246 . S
C445 O442 1.259 . S
C446 O443 1.252 . S
C446 O444 1.273 . S
O447 Mg434 2.010 . S
O447 C439 1.249 . S
Mg448 O449 2.028 . S
Mg448 O455 1.986 . S
Mg448 O457 2.114 . S
Mg448 O458 2.251 . S
Mg448 O461 2.010 . S
O449 Mg448 2.028 . S
O449 C452 1.250 . S
O450 Mg451 2.028 . S
O450 C452 1.248 . S
Mg451 O450 2.028 . S
Mg451 O456 2.032 . S
Mg451 O458 2.079 . S
C452 O449 1.250 . S
C452 O450 1.248 . S
C453 O454 1.264 . S
C453 O461 1.249 . S
O454 C453 1.264 . S
O455 Mg448 1.986 . S
O455 C459 1.246 . S
O456 Mg451 2.032 . S
O456 C459 1.259 . S
O457 Mg448 2.114 . S
O457 C460 1.252 . S
O458 Mg448 2.251 . S
O458 Mg451 2.079 . S
O458 C460 1.273 . S
C459 O455 1.246 . S
C459 O456 1.259 . S
C460 O457 1.252 . S
C460 O458 1.273 . S
O461 Mg448 2.010 . S
O461 C453 1.249 . S
Mg462 O463 2.028 . S
Mg462 O469 1.986 . S
Mg462 O471 2.114 . S
Mg462 O472 2.251 . S
Mg462 O475 2.010 . S
O463 Mg462 2.028 . S
O463 C466 1.250 . S
O464 Mg465 2.028 . S
O464 C466 1.248 . S
Mg465 O464 2.028 . S
Mg465 O470 2.032 . S
Mg465 O472 2.079 . S
C466 O463 1.250 . S
C466 O464 1.248 . S
C467 O468 1.264 . S
C467 O475 1.249 . S
O468 C467 1.264 . S
O469 Mg462 1.986 . S
O469 C473 1.246 . S
O470 Mg465 2.032 . S
O470 C473 1.259 . S
O471 Mg462 2.114 . S
O471 C474 1.252 . S
O472 Mg462 2.251 . S
O472 Mg465 2.079 . S
O472 C474 1.273 . S
C473 O469 1.246 . S
C473 O470 1.259 . S
C474 O471 1.252 . S
C474 O472 1.273 . S
O475 Mg462 2.010 . S
O475 C467 1.249 . S
Mg476 O477 2.028 . S
Mg476 O483 1.986 . S
Mg476 O485 2.114 . S
Mg476 O486 2.251 . S
Mg476 O489 2.010 . S
O477 Mg476 2.028 . S
O477 C480 1.250 . S
O478 Mg479 2.028 . S
O478 C480 1.248 . S
Mg479 O478 2.028 . S
Mg479 O484 2.032 . S
Mg479 O486 2.079 . S
C480 O477 1.250 . S
C480 O478 1.248 . S
C481 O482 1.264 . S
C481 O489 1.249 . S
O482 C481 1.264 . S
O483 Mg476 1.986 . S
O483 C487 1.246 . S
O484 Mg479 2.032 . S
O484 C487 1.259 . S
O485 Mg476 2.114 . S
O485 C488 1.252 . S
O486 Mg476 2.251 . S
O486 Mg479 2.079 . S
O486 C488 1.273 . S
C487 O483 1.246 . S
C487 O484 1.259 . S
C488 O485 1.252 . S
C488 O486 1.273 . S
O489 Mg476 2.010 . S
O489 C481 1.249 . S
Mg490 O491 2.028 . S
Mg490 O497 1.986 . S
Mg490 O499 2.114 . S
Mg490 O500 2.251 . S
Mg490 O503 2.010 . S
O491 Mg490 2.028 . S
O491 C494 1.250 . S
O492 Mg493 2.028 . S
O492 C494 1.248 . S
Mg493 O492 2.028 . S
Mg493 O498 2.032 . S
Mg493 O500 2.079 . S
C494 O491 1.250 . S
C494 O492 1.248 . S
C495 O496 1.264 . S
C495 O503 1.249 . S
O496 C495 1.264 . S
O497 Mg490 1.986 . S
O497 C501 1.246 . S
O498 Mg493 2.032 . S
O498 C501 1.259 . S
O499 Mg490 2.114 . S
O499 C502 1.252 . S
O500 Mg490 2.251 . S
O500 Mg493 2.079 . S
O500 C502 1.273 . S
C501 O497 1.246 . S
C501 O498 1.259 . S
C502 O499 1.252 . S
C502 O500 1.273 . S
O503 Mg490 2.010 . S
O503 C495 1.249 . S
H504 C512 0.929 . S
H505 C514 0.930 . S
H506 C516 0.930 . S
H507 C519 0.929 . S
H508 C522 0.930 . S
H509 C524 0.960 1_556 S
H510 C524 0.957 1_556 S
H511 C524 0.960 . S
C512 H504 0.929 . S
C512 C513 1.377 . S
C512 C514 1.384 . S
C513 C512 1.377 . S
C513 C519 1.390 . S
C514 H505 0.930 . S
C514 C512 1.384 . S
C514 C515 1.372 . S
C515 C514 1.372 . S
C515 C516 1.400 . S
C515 C520 1.490 . S
C516 H506 0.930 . S
C516 C515 1.400 . S
C516 C519 1.386 . S
H517 C533 0.930 . S
H518 C534 0.931 . S
C519 H507 0.929 . S
C519 C513 1.390 . S
C519 C516 1.386 . S
C520 C515 1.490 . S
C520 C522 1.395 1_545 S
C520 C523 1.403 . S
H521 C527 0.930 . S
C522 H508 0.930 . S
C522 C520 1.395 1_565 S
C522 C525 1.403 . S
C523 C520 1.403 . S
C523 C524 1.524 . S
C523 C527 1.400 1_544 S
C524 H509 0.960 1_554 S
C524 H510 0.957 1_554 S
C524 H511 0.960 . S
C524 C523 1.524 . S
C525 C522 1.403 . S
C525 C526 1.392 1_554 S
C525 C529 1.495 . S
C526 C525 1.392 1_556 S
C526 C527 1.385 . S
C526 C528 1.478 . S
C527 H521 0.930 . S
C527 C523 1.400 1_566 S
C527 C526 1.385 . S
C528 C526 1.478 . S
C528 C530 1.381 . S
C528 C534 1.383 . S
C529 C525 1.495 . S
C529 H535 0.959 . S
C529 H536 0.961 . S
C529 H537 0.960 . S
C530 C528 1.381 . S
C530 C531 1.394 . S
C530 H538 0.930 . S
C531 C530 1.394 . S
C531 C532 1.383 . S
C531 H539 0.929 . S
C532 C531 1.383 . S
C532 C533 1.377 . S
C533 H517 0.930 . S
C533 C532 1.377 . S
C533 C534 1.379 . S
C534 H518 0.931 . S
C534 C528 1.383 . S
C534 C533 1.379 . S
H535 C529 0.959 . S
H536 C529 0.961 . S
H537 C529 0.960 . S
H538 C530 0.930 . S
H539 C531 0.929 . S
H540 C548 0.929 . S
H541 C550 0.930 . S
H542 C552 0.930 . S
H543 C555 0.929 . S
H544 C558 0.930 . S
H545 C560 0.960 . S
H546 C560 0.960 . S
H547 C560 0.960 . S
C548 H540 0.929 . S
C548 C549 1.377 . S
C548 C550 1.384 . S
C549 C548 1.377 . S
C549 C555 1.390 . S
C550 H541 0.930 . S
C550 C548 1.384 . S
C550 C551 1.372 . S
C551 C550 1.372 . S
C551 C552 1.400 . S
C551 C556 1.490 . S
C552 H542 0.930 . S
C552 C551 1.400 . S
C552 C555 1.386 . S
H553 C569 0.930 . S
H554 C570 0.931 . S
C555 H543 0.929 . S
C555 C549 1.390 . S
C555 C552 1.386 . S
C556 C551 1.490 . S
C556 C558 1.395 . S
C556 C559 1.403 1_655 S
H557 C563 0.930 . S
C558 H544 0.930 . S
C558 C556 1.395 . S
C558 C561 1.403 1_654 S
C559 C556 1.403 1_455 S
C559 C560 1.524 . S
C559 C563 1.400 . S
C560 H545 0.960 . S
C560 H546 0.960 . S
C560 H547 0.960 . S
C560 C559 1.524 . S
C561 C558 1.403 1_456 S
C561 C562 1.392 . S
C561 C565 1.495 1_455 S
C562 C561 1.392 . S
C562 C563 1.385 1_556 S
C562 C564 1.478 . S
C563 H557 0.930 . S
C563 C559 1.400 . S
C563 C562 1.385 1_554 S
C564 C562 1.478 . S
C564 C566 1.381 . S
C564 C570 1.383 . S
C565 C561 1.495 1_655 S
C565 H571 0.959 . S
C565 H572 0.961 1_655 S
C565 H573 0.960 . S
C566 C564 1.381 . S
C566 C567 1.394 . S
C566 H574 0.930 . S
C567 C566 1.394 . S
C567 C568 1.383 . S
C567 H575 0.929 . S
C568 C567 1.383 . S
C568 C569 1.377 . S
C569 H553 0.930 . S
C569 C568 1.377 . S
C569 C570 1.379 . S
C570 H554 0.931 . S
C570 C564 1.383 . S
C570 C569 1.379 . S
H571 C565 0.959 . S
H572 C565 0.961 1_455 S
H573 C565 0.960 . S
H574 C566 0.930 . S
H575 C567 0.929 . S
H576 C584 0.929 . S
H577 C586 0.930 . S
H578 C588 0.935 . S
H579 C591 0.929 . S
H580 C594 0.930 1_556 S
H581 C596 0.969 . S
H582 C596 0.945 1_556 S
H583 C596 0.963 . S
C584 H576 0.929 . S
C584 C585 1.377 . S
C584 C586 1.384 . S
C585 C584 1.377 . S
C585 C591 1.390 . S
C586 H577 0.930 . S
C586 C584 1.384 . S
C586 C587 1.372 . S
C587 C586 1.372 . S
C587 C588 1.400 . S
C587 C592 1.490 . S
C588 H578 0.935 . S
C588 C587 1.400 . S
C588 C591 1.386 . S
H589 C605 0.930 . S
H590 C606 0.931 . S
C591 H579 0.929 . S
C591 C585 1.390 . S
C591 C588 1.386 . S
C592 C587 1.490 . S
C592 C594 1.395 1_556 S
C592 C595 1.403 1_556 S
H593 C599 0.930 . S
C594 H580 0.930 1_554 S
C594 C592 1.395 1_554 S
C594 C597 1.403 . S
C595 C592 1.403 1_554 S
C595 C596 1.527 . S
C595 C599 1.400 . S
C596 H581 0.969 . S
C596 H582 0.945 1_554 S
C596 H583 0.963 . S
C596 C595 1.527 . S
C597 C594 1.403 . S
C597 C598 1.392 . S
C597 C601 1.495 . S
C598 C597 1.392 . S
C598 C599 1.385 . S
C598 C600 1.478 . S
C599 H593 0.930 . S
C599 C595 1.400 . S
C599 C598 1.385 . S
C600 C598 1.478 . S
C600 C602 1.381 . S
C600 C606 1.383 . S
C601 C597 1.495 . S
C601 H607 0.959 . S
C601 H608 0.961 . S
C601 H609 0.960 . S
C602 C600 1.381 . S
C602 C603 1.394 . S
C602 H610 0.930 . S
C603 C602 1.394 . S
C603 C604 1.383 . S
C603 H611 0.929 . S
C604 C603 1.383 . S
C604 C605 1.377 . S
C605 H589 0.930 . S
C605 C604 1.377 . S
C605 C606 1.379 . S
C606 H590 0.931 . S
C606 C600 1.383 . S
C606 C605 1.379 . S
H607 C601 0.959 . S
H608 C601 0.961 . S
H609 C601 0.960 . S
H610 C602 0.930 . S
H611 C603 0.929 . S
H612 C620 0.929 . S
H613 C622 0.930 . S
H614 C624 0.930 . S
H615 C627 0.929 . S
H616 C630 0.930 . S
H617 C632 0.960 . S
H618 C632 0.960 1_655 S
H619 C632 0.948 1_655 S
C620 H612 0.929 . S
C620 C621 1.377 . S
C620 C622 1.384 . S
C621 C620 1.377 . S
C621 C627 1.390 . S
C622 H613 0.930 . S
C622 C620 1.384 . S
C622 C623 1.372 . S
C623 C622 1.372 . S
C623 C624 1.400 . S
C623 C628 1.490 . S
C624 H614 0.930 . S
C624 C623 1.400 . S
C624 C627 1.386 . S
H625 C641 0.930 . S
H626 C642 0.931 . S
C627 H615 0.929 . S
C627 C621 1.390 . S
C627 C624 1.386 . S
C628 C623 1.490 . S
C628 C630 1.395 . S
C628 C631 1.403 . S
H629 C635 0.930 . S
C630 H616 0.930 . S
C630 C628 1.395 . S
C630 C633 1.403 . S
C631 C628 1.403 . S
C631 C632 1.524 1_655 S
C631 C635 1.400 1_655 S
C632 H617 0.960 . S
C632 H618 0.960 1_455 S
C632 H619 0.948 1_455 S
C632 C631 1.524 1_455 S
C633 C630 1.403 . S
C633 C634 1.392 1_655 S
C633 C637 1.495 . S
C634 C633 1.392 1_455 S
C634 C635 1.385 . S
C634 C636 1.478 . S
C635 H629 0.930 . S
C635 C631 1.400 1_455 S
C635 C634 1.385 . S
C636 C634 1.478 . S
C636 C638 1.381 . S
C636 C642 1.383 . S
C637 C633 1.495 . S
C637 H643 0.959 . S
C637 H644 0.961 . S
C637 H645 0.960 . S
C638 C636 1.381 . S
C638 C639 1.394 . S
C638 H646 0.930 . S
C639 C638 1.394 . S
C639 C640 1.383 . S
C639 H647 0.929 . S
C640 C639 1.383 . S
C640 C641 1.377 . S
C641 H625 0.930 . S
C641 C640 1.377 . S
C641 C642 1.379 . S
C642 H626 0.931 . S
C642 C636 1.383 . S
C642 C641 1.379 . S
H643 C637 0.959 . S
H644 C637 0.961 . S
H645 C637 0.960 . S
H646 C638 0.930 . S
H647 C639 0.929 . S
H648 C656 0.929 . S
H649 C658 0.930 . S
H650 C660 0.930 . S
H651 C663 0.929 . S
H652 C666 0.930 . S
H653 C668 0.960 . S
H654 C668 0.960 . S
H655 C668 0.960 . S
C656 H648 0.929 . S
C656 C657 1.377 . S
C656 C658 1.384 . S
C657 C656 1.377 . S
C657 C663 1.390 . S
C658 H649 0.930 . S
C658 C656 1.384 . S
C658 C659 1.372 . S
C659 C658 1.372 . S
C659 C660 1.400 . S
C659 C664 1.490 . S
C660 H650 0.930 . S
C660 C659 1.400 . S
C660 C663 1.386 . S
H661 C677 0.930 . S
H662 C678 0.931 . S
C663 H651 0.929 . S
C663 C657 1.390 . S
C663 C660 1.386 . S
C664 C659 1.490 . S
C664 C666 1.395 . S
C664 C667 1.403 . S
H665 C671 0.930 . S
C666 H652 0.930 . S
C666 C664 1.395 . S
C666 C669 1.403 . S
C667 C664 1.403 . S
C667 C668 1.524 . S
C667 C671 1.400 . S
C668 H653 0.960 . S
C668 H654 0.960 . S
C668 H655 0.960 . S
C668 C667 1.524 . S
C669 C666 1.403 . S
C669 C670 1.392 . S
C669 C673 1.495 . S
C670 C669 1.392 . S
C670 C671 1.385 . S
C670 C672 1.478 . S
C671 H665 0.930 . S
C671 C667 1.400 . S
C671 C670 1.385 . S
C672 C670 1.478 . S
C672 C674 1.381 . S
C672 C678 1.383 . S
C673 C669 1.495 . S
C673 H679 0.959 . S
C673 H680 0.961 . S
C673 H681 0.960 . S
C674 C672 1.381 . S
C674 C675 1.394 . S
C674 H682 0.930 . S
C675 C674 1.394 . S
C675 C676 1.383 . S
C675 H683 0.929 . S
C676 C675 1.383 . S
C676 C677 1.377 . S
C677 H661 0.930 . S
C677 C676 1.377 . S
C677 C678 1.379 . S
C678 H662 0.931 . S
C678 C672 1.383 . S
C678 C677 1.379 . S
H679 C673 0.959 . S
H680 C673 0.961 . S
H681 C673 0.960 . S
H682 C674 0.930 . S
H683 C675 0.929 . S
H684 C692 0.929 . S
H685 C694 0.930 . S
H686 C696 0.930 . S
H687 C699 0.929 . S
H688 C702 0.930 . S
H689 C704 0.960 . S
H690 C704 0.960 . S
H691 C704 0.960 . S
C692 H684 0.929 . S
C692 C693 1.377 . S
C692 C694 1.384 . S
C693 C692 1.377 . S
C693 C699 1.390 . S
C694 H685 0.930 . S
C694 C692 1.384 . S
C694 C695 1.372 . S
C695 C694 1.372 . S
C695 C696 1.400 . S
C695 C700 1.490 . S
C696 H686 0.930 . S
C696 C695 1.400 . S
C696 C699 1.386 . S
H697 C713 0.930 . S
H698 C714 0.931 . S
C699 H687 0.929 . S
C699 C693 1.390 . S
C699 C696 1.386 . S
C700 C695 1.490 . S
C700 C702 1.395 . S
C700 C703 1.403 1_565 S
H701 C707 0.930 . S
C702 H688 0.930 . S
C702 C700 1.395 . S
C702 C705 1.403 . S
C703 C700 1.403 1_545 S
C703 C704 1.524 . S
C703 C707 1.400 . S
C704 H689 0.960 . S
C704 H690 0.960 . S
C704 H691 0.960 . S
C704 C703 1.524 . S
C705 C702 1.403 . S
C705 C706 1.392 1_565 S
C705 C709 1.495 . S
C706 C705 1.392 1_545 S
C706 C707 1.385 . S
C706 C708 1.478 . S
C707 H701 0.930 . S
C707 C703 1.400 . S
C707 C706 1.385 . S
C708 C706 1.478 . S
C708 C710 1.381 . S
C708 C714 1.383 . S
C709 C705 1.495 . S
C709 H715 0.959 . S
C709 H716 0.961 . S
C709 H717 0.960 . S
C710 C708 1.381 . S
C710 C711 1.394 . S
C710 H718 0.930 . S
C711 C710 1.394 . S
C711 C712 1.383 . S
C711 H719 0.929 . S
C712 C711 1.383 . S
C712 C713 1.377 . S
C713 H697 0.930 . S
C713 C712 1.377 . S
C713 C714 1.379 . S
C714 H698 0.931 . S
C714 C708 1.383 . S
C714 C713 1.379 . S
H715 C709 0.959 . S
H716 C709 0.961 . S
H717 C709 0.960 . S
H718 C710 0.930 . S
H719 C711 0.929 . S
H720 C728 0.929 . S
H721 C730 0.930 . S
H722 C732 0.930 . S
H723 C735 0.929 . S
H724 C738 0.930 . S
H725 C740 1.001 . S
H726 C740 0.938 1_545 S
H727 C740 0.958 1_545 S
C728 H720 0.929 . S
C728 C729 1.377 . S
C728 C730 1.384 . S
C729 C728 1.377 . S
C729 C735 1.390 . S
C730 H721 0.930 . S
C730 C728 1.384 . S
C730 C731 1.372 . S
C731 C730 1.372 . S
C731 C732 1.400 . S
C731 C736 1.490 . S
C732 H722 0.930 . S
C732 C731 1.400 . S
C732 C735 1.386 . S
H733 C749 0.930 . S
H734 C750 0.931 . S
C735 H723 0.929 . S
C735 C729 1.390 . S
C735 C732 1.386 . S
C736 C731 1.490 . S
C736 C738 1.395 1_554 S
C736 C739 1.403 . S
H737 C743 0.930 . S
C738 H724 0.930 . S
C738 C736 1.395 1_556 S
C738 C741 1.403 . S
C739 C736 1.403 . S
C739 C740 1.509 1_545 S
C739 C743 1.400 1_545 S
C740 H725 1.001 . S
C740 H726 0.938 1_565 S
C740 H727 0.958 1_565 S
C740 C739 1.509 1_565 S
C741 C738 1.403 . S
C741 C742 1.392 1_545 S
C741 C745 1.495 . S
C742 C741 1.392 1_565 S
C742 C743 1.385 1_556 S
C742 C744 1.478 . S
C743 H737 0.930 . S
C743 C739 1.400 1_565 S
C743 C742 1.385 1_554 S
C744 C742 1.478 . S
C744 C746 1.381 . S
C744 C750 1.383 . S
C745 C741 1.495 . S
C745 H751 0.959 . S
C745 H752 0.961 . S
C745 H753 0.960 . S
C746 C744 1.381 . S
C746 C747 1.394 . S
C746 H754 0.930 . S
C747 C746 1.394 . S
C747 C748 1.383 . S
C747 H755 0.929 . S
C748 C747 1.383 . S
C748 C749 1.377 . S
C749 H733 0.930 . S
C749 C748 1.377 . S
C749 C750 1.379 . S
C750 H734 0.931 . S
C750 C744 1.383 . S
C750 C749 1.379 . S
H751 C745 0.959 . S
H752 C745 0.961 . S
H753 C745 0.960 . S
H754 C746 0.930 . S
H755 C747 0.929 . S
H756 C764 0.929 . S
H757 C766 0.930 . S
H758 C768 0.930 . S
H759 C771 0.929 . S
H760 C774 0.930 . S
H761 C776 0.960 . S
H762 C776 0.960 1_554 S
H763 C776 0.960 . S
C764 H756 0.929 . S
C764 C765 1.377 . S
C764 C766 1.384 . S
C765 C764 1.377 . S
C765 C771 1.390 . S
C766 H757 0.930 . S
C766 C764 1.384 . S
C766 C767 1.372 . S
C767 C766 1.372 . S
C767 C768 1.400 . S
C767 C772 1.490 . S
C768 H758 0.930 . S
C768 C767 1.400 . S
C768 C771 1.386 . S
H769 C785 0.930 . S
H770 C786 0.931 . S
C771 H759 0.929 . S
C771 C765 1.390 . S
C771 C768 1.386 . S
C772 C767 1.490 . S
C772 C774 1.395 . S
C772 C775 1.403 1_554 S
H773 C779 0.930 . S
C774 H760 0.930 . S
C774 C772 1.395 . S
C774 C777 1.403 1_655 S
C775 C772 1.403 1_556 S
C775 C776 1.524 . S
C775 C779 1.400 . S
C776 H761 0.960 . S
C776 H762 0.960 1_556 S
C776 H763 0.960 . S
C776 C775 1.524 . S
C777 C774 1.403 1_455 S
C777 C778 1.392 1_554 S
C777 C781 1.495 . S
C778 C777 1.392 1_556 S
C778 C779 1.385 1_455 S
C778 C780 1.478 . S
C779 H773 0.930 . S
C779 C775 1.400 . S
C779 C778 1.385 1_655 S
C780 C778 1.478 . S
C780 C782 1.381 . S
C780 C786 1.383 . S
C781 C777 1.495 . S
C781 H787 0.959 . S
C781 H788 0.961 1_554 S
C781 H789 0.960 . S
C782 C780 1.381 . S
C782 C783 1.394 . S
C782 H790 0.930 . S
C783 C782 1.394 . S
C783 C784 1.383 . S
C783 H791 0.929 . S
C784 C783 1.383 . S
C784 C785 1.377 . S
C785 H769 0.930 . S
C785 C784 1.377 . S
C785 C786 1.379 . S
C786 H770 0.931 . S
C786 C780 1.383 . S
C786 C785 1.379 . S
H787 C781 0.959 . S
H788 C781 0.961 1_556 S
H789 C781 0.960 . S
H790 C782 0.930 . S
H791 C783 0.929 . S
H792 C800 0.929 . S
H793 C802 0.930 . S
H794 C804 0.930 . S
H795 C807 0.929 . S
H796 C810 0.930 . S
H797 C812 0.960 1_554 S
H798 C812 0.960 . S
H799 C812 0.960 . S
C800 H792 0.929 . S
C800 C801 1.377 . S
C800 C802 1.384 . S
C801 C800 1.377 . S
C801 C807 1.390 . S
C802 H793 0.930 . S
C802 C800 1.384 . S
C802 C803 1.372 . S
C803 C802 1.372 . S
C803 C804 1.400 . S
C803 C808 1.490 . S
C804 H794 0.930 . S
C804 C803 1.400 . S
C804 C807 1.386 . S
H805 C821 0.930 . S
H806 C822 0.931 . S
C807 H795 0.929 . S
C807 C801 1.390 . S
C807 C804 1.386 . S
C808 C803 1.490 . S
C808 C810 1.395 . S
C808 C811 1.403 . S
H809 C815 0.930 . S
C810 H796 0.930 . S
C810 C808 1.395 . S
C810 C813 1.403 . S
C811 C808 1.403 . S
C811 C812 1.524 . S
C811 C815 1.400 1_556 S
C812 H797 0.960 1_556 S
C812 H798 0.960 . S
C812 H799 0.960 . S
C812 C811 1.524 . S
C813 C810 1.403 . S
C813 C814 1.392 1_556 S
C813 C817 1.495 . S
C814 C813 1.392 1_554 S
C814 C815 1.385 . S
C814 C816 1.478 . S
C815 H809 0.930 . S
C815 C811 1.400 1_554 S
C815 C814 1.385 . S
C816 C814 1.478 . S
C816 C818 1.381 . S
C816 C822 1.383 . S
C817 C813 1.495 . S
C817 H823 0.959 . S
C817 H824 0.943 1_556 S
C817 H825 0.960 . S
C818 C816 1.381 . S
C818 C819 1.394 . S
C818 H826 0.929 1_554 S
C819 C818 1.394 . S
C819 C820 1.383 . S
C819 H827 0.929 . S
C820 C819 1.383 . S
C820 C821 1.377 . S
C821 H805 0.930 . S
C821 C820 1.377 . S
C821 C822 1.379 . S
C822 H806 0.931 . S
C822 C816 1.383 . S
C822 C821 1.379 . S
H823 C817 0.959 . S
H824 C817 0.943 1_554 S
H825 C817 0.960 . S
H826 C818 0.929 1_556 S
H827 C819 0.929 . S
H828 C836 0.929 . S
H829 C838 0.930 . S
H830 C840 0.930 . S
H831 C843 0.929 . S
H832 C846 0.930 . S
H833 C848 0.960 . S
H834 C848 0.960 . S
H835 C848 0.960 . S
C836 H828 0.929 . S
C836 C837 1.377 . S
C836 C838 1.384 . S
C837 C836 1.377 . S
C837 C843 1.390 . S
C838 H829 0.930 . S
C838 C836 1.384 . S
C838 C839 1.372 . S
C839 C838 1.372 . S
C839 C840 1.400 . S
C839 C844 1.490 . S
C840 H830 0.930 . S
C840 C839 1.400 . S
C840 C843 1.386 . S
H841 C857 0.930 . S
H842 C858 0.931 . S
C843 H831 0.929 . S
C843 C837 1.390 . S
C843 C840 1.386 . S
C844 C839 1.490 . S
C844 C846 1.395 . S
C844 C847 1.403 . S
H845 C851 0.930 . S
C846 H832 0.930 . S
C846 C844 1.395 . S
C846 C849 1.403 1_655 S
C847 C844 1.403 . S
C847 C848 1.524 . S
C847 C851 1.400 1_655 S
C848 H833 0.960 . S
C848 H834 0.960 . S
C848 H835 0.960 . S
C848 C847 1.524 . S
C849 C846 1.403 1_455 S
C849 C850 1.392 . S
C849 C853 1.495 . S
C850 C849 1.392 . S
C850 C851 1.385 . S
C850 C852 1.478 . S
C851 H845 0.930 . S
C851 C847 1.400 1_455 S
C851 C850 1.385 . S
C852 C850 1.478 . S
C852 C854 1.381 . S
C852 C858 1.383 . S
C853 C849 1.495 . S
C853 H859 0.959 . S
C853 H860 0.961 . S
C853 H861 0.960 . S
C854 C852 1.381 . S
C854 C855 1.394 . S
C854 H862 0.930 . S
C855 C854 1.394 . S
C855 C856 1.383 . S
C855 H863 0.929 . S
C856 C855 1.383 . S
C856 C857 1.377 . S
C857 H841 0.930 . S
C857 C856 1.377 . S
C857 C858 1.379 . S
C858 H842 0.931 . S
C858 C852 1.383 . S
C858 C857 1.379 . S
H859 C853 0.959 . S
H860 C853 0.961 . S
H861 C853 0.960 . S
H862 C854 0.930 . S
H863 C855 0.929 . S
H864 C872 0.929 . S
H865 C874 0.930 . S
H866 C876 0.930 . S
H867 C879 0.929 . S
H868 C882 0.930 . S
H869 C884 0.960 . S
H870 C884 0.960 . S
H871 C884 0.960 . S
C872 H864 0.929 . S
C872 C873 1.377 . S
C872 C874 1.384 . S
C873 C872 1.377 . S
C873 C879 1.390 . S
C874 H865 0.930 . S
C874 C872 1.384 . S
C874 C875 1.372 . S
C875 C874 1.372 . S
C875 C876 1.400 . S
C875 C880 1.490 . S
C876 H866 0.930 . S
C876 C875 1.400 . S
C876 C879 1.386 . S
H877 C893 0.930 . S
H878 C894 0.931 . S
C879 H867 0.929 . S
C879 C873 1.390 . S
C879 C876 1.386 . S
C880 C875 1.490 . S
C880 C882 1.395 . S
C880 C883 1.403 . S
H881 C887 0.930 . S
C882 H868 0.930 . S
C882 C880 1.395 . S
C882 C885 1.403 . S
C883 C880 1.403 . S
C883 C884 1.524 . S
C883 C887 1.400 . S
C884 H869 0.960 . S
C884 H870 0.960 . S
C884 H871 0.960 . S
C884 C883 1.524 . S
C885 C882 1.403 . S
C885 C886 1.392 . S
C885 C889 1.495 . S
C886 C885 1.392 . S
C886 C887 1.385 . S
C886 C888 1.478 . S
C887 H881 0.930 . S
C887 C883 1.400 . S
C887 C886 1.385 . S
C888 C886 1.478 . S
C888 C890 1.381 . S
C888 C894 1.383 . S
C889 C885 1.495 . S
C889 H895 0.959 . S
C889 H896 0.961 . S
C889 H897 0.960 . S
C890 C888 1.381 . S
C890 C891 1.394 . S
C890 H898 0.930 . S
C891 C890 1.394 . S
C891 C892 1.383 . S
C891 H899 0.929 . S
C892 C891 1.383 . S
C892 C893 1.377 . S
C893 H877 0.930 . S
C893 C892 1.377 . S
C893 C894 1.379 . S
C894 H878 0.931 . S
C894 C888 1.383 . S
C894 C893 1.379 . S
H895 C889 0.959 . S
H896 C889 0.961 . S
H897 C889 0.960 . S
H898 C890 0.930 . S
H899 C891 0.929 . S
H900 C908 0.929 . S
H901 C910 0.930 . S
H902 C912 0.930 . S
H903 C915 0.929 . S
H904 C918 0.930 . S
H905 C920 0.960 . S
H906 C920 0.960 1_545 S
H907 C920 0.960 . S
C908 H900 0.929 . S
C908 C909 1.377 . S
C908 C910 1.384 . S
C909 C908 1.377 . S
C909 C915 1.390 . S
C910 H901 0.930 . S
C910 C908 1.384 . S
C910 C911 1.372 . S
C911 C910 1.372 . S
C911 C912 1.400 . S
C911 C916 1.490 . S
C912 H902 0.930 . S
C912 C911 1.400 . S
C912 C915 1.386 . S
H913 C929 0.930 . S
H914 C930 0.931 . S
C915 H903 0.929 . S
C915 C909 1.390 . S
C915 C912 1.386 . S
C916 C911 1.490 . S
C916 C918 1.395 . S
C916 C919 1.403 1_545 S
H917 C923 0.930 . S
C918 H904 0.930 . S
C918 C916 1.395 . S
C918 C921 1.403 1_545 S
C919 C916 1.403 1_565 S
C919 C920 1.524 . S
C919 C923 1.400 . S
C920 H905 0.960 . S
C920 H906 0.960 1_565 S
C920 H907 0.960 . S
C920 C919 1.524 . S
C921 C918 1.403 1_565 S
C921 C922 1.392 . S
C921 C925 1.495 . S
C922 C921 1.392 . S
C922 C923 1.385 . S
C922 C924 1.478 . S
C923 H917 0.930 . S
C923 C919 1.400 . S
C923 C922 1.385 . S
C924 C922 1.478 . S
C924 C926 1.381 . S
C924 C930 1.383 . S
C925 C921 1.495 . S
C925 H931 0.966 . S
C925 H932 0.961 . S
C925 H933 0.960 . S
C926 C924 1.381 . S
C926 C927 1.394 . S
C926 H934 0.930 . S
C927 C926 1.394 . S
C927 C928 1.383 . S
C927 H935 0.929 . S
C928 C927 1.383 . S
C928 C929 1.377 . S
C929 H913 0.930 . S
C929 C928 1.377 . S
C929 C930 1.379 . S
C930 H914 0.931 . S
C930 C924 1.383 . S
C930 C929 1.379 . S
H931 C925 0.966 . S
H932 C925 0.961 . S
H933 C925 0.960 . S
H934 C926 0.930 . S
H935 C927 0.929 . S
H936 C944 0.929 . S
H937 C946 0.930 . S
H938 C948 0.930 . S
H939 C951 0.929 . S
H940 C954 0.930 . S
H941 C956 0.960 . S
H942 C956 0.960 . S
H943 C956 0.960 . S
C944 H936 0.929 . S
C944 C945 1.377 . S
C944 C946 1.384 . S
C945 C944 1.377 . S
C945 C951 1.390 . S
C946 H937 0.930 . S
C946 C944 1.384 . S
C946 C947 1.372 . S
C947 C946 1.372 . S
C947 C948 1.400 . S
C947 C952 1.490 . S
C948 H938 0.930 . S
C948 C947 1.400 . S
C948 C951 1.386 . S
H949 C965 0.930 . S
H950 C966 0.931 . S
C951 H939 0.929 . S
C951 C945 1.390 . S
C951 C948 1.386 . S
C952 C947 1.490 . S
C952 C954 1.395 . S
C952 C955 1.403 . S
H953 C959 0.930 . S
C954 H940 0.930 . S
C954 C952 1.395 . S
C954 C957 1.403 . S
C955 C952 1.403 . S
C955 C956 1.524 . S
C955 C959 1.400 . S
C956 H941 0.960 . S
C956 H942 0.960 . S
C956 H943 0.960 . S
C956 C955 1.524 . S
C957 C954 1.403 . S
C957 C958 1.392 . S
C957 C961 1.495 . S
C958 C957 1.392 . S
C958 C959 1.385 . S
C958 C960 1.478 . S
C959 H953 0.930 . S
C959 C955 1.400 . S
C959 C958 1.385 . S
C960 C958 1.478 . S
C960 C962 1.381 . S
C960 C966 1.383 . S
C961 C957 1.495 . S
C961 H967 0.959 . S
C961 H968 0.961 . S
C961 H969 0.960 . S
C962 C960 1.381 . S
C962 C963 1.394 . S
C962 H970 0.930 . S
C963 C962 1.394 . S
C963 C964 1.383 . S
C963 H971 0.929 . S
C964 C963 1.383 . S
C964 C965 1.377 . S
C965 H949 0.930 . S
C965 C964 1.377 . S
C965 C966 1.379 . S
C966 H950 0.931 . S
C966 C960 1.383 . S
C966 C965 1.379 . S
H967 C961 0.959 . S
H968 C961 0.961 . S
H969 C961 0.960 . S
H970 C962 0.930 . S
H971 C963 0.929 . S
H972 C980 0.929 . S
H973 C982 0.930 . S
H974 C984 0.930 . S
H975 C987 0.929 . S
H976 C990 0.930 . S
H977 C992 0.960 . S
H978 C992 0.960 . S
H979 C992 0.960 . S
C980 H972 0.929 . S
C980 C981 1.377 . S
C980 C982 1.384 . S
C981 C980 1.377 . S
C981 C987 1.390 . S
C982 H973 0.930 . S
C982 C980 1.384 . S
C982 C983 1.372 . S
C983 C982 1.372 . S
C983 C984 1.400 . S
C983 C988 1.490 . S
C984 H974 0.930 . S
C984 C983 1.400 . S
C984 C987 1.386 . S
H985 C1001 0.930 . S
H986 C1002 0.931 . S
C987 H975 0.929 . S
C987 C981 1.390 . S
C987 C984 1.386 . S
C988 C983 1.490 . S
C988 C990 1.395 . S
C988 C991 1.403 . S
H989 C995 0.930 . S
C990 H976 0.930 . S
C990 C988 1.395 . S
C990 C993 1.403 . S
C991 C988 1.403 . S
C991 C992 1.524 . S
C991 C995 1.400 . S
C992 H977 0.960 . S
C992 H978 0.960 . S
C992 H979 0.960 . S
C992 C991 1.524 . S
C993 C990 1.403 . S
C993 C994 1.392 . S
C993 C997 1.495 . S
C994 C993 1.392 . S
C994 C995 1.385 . S
C994 C996 1.478 . S
C995 H989 0.930 . S
C995 C991 1.400 . S
C995 C994 1.385 . S
C996 C994 1.478 . S
C996 C998 1.381 . S
C996 C1002 1.383 . S
C997 C993 1.495 . S
C997 H1003 0.959 . S
C997 H1004 0.961 . S
C997 H1005 0.960 . S
C998 C996 1.381 . S
C998 C999 1.394 . S
C998 H1006 0.930 . S
C999 C998 1.394 . S
C999 C1000 1.383 . S
C999 H1007 0.929 . S
C1000 C999 1.383 . S
C1000 C1001 1.377 . S
C1001 H985 0.930 . S
C1001 C1000 1.377 . S
C1001 C1002 1.379 . S
C1002 H986 0.931 . S
C1002 C996 1.383 . S
C1002 C1001 1.379 . S
H1003 C997 0.959 . S
H1004 C997 0.961 . S
H1005 C997 0.960 . S
H1006 C998 0.930 . S
H1007 C999 0.929 . S
H1008 C1016 0.929 . S
H1009 C1018 0.930 . S
H1010 C1020 0.930 . S
H1011 C1023 0.929 . S
H1012 C1026 0.930 . S
H1013 C1028 0.960 . S
H1014 C1028 0.960 . S
H1015 C1028 0.960 . S
C1016 H1008 0.929 . S
C1016 C1017 1.377 . S
C1016 C1018 1.384 . S
C1017 C1016 1.377 . S
C1017 C1023 1.390 . S
C1018 H1009 0.930 . S
C1018 C1016 1.384 . S
C1018 C1019 1.372 . S
C1019 C1018 1.372 . S
C1019 C1020 1.400 . S
C1019 C1024 1.490 . S
C1020 H1010 0.930 . S
C1020 C1019 1.400 . S
C1020 C1023 1.386 . S
H1021 C1037 0.930 . S
H1022 C1038 0.931 . S
C1023 H1011 0.929 . S
C1023 C1017 1.390 . S
C1023 C1020 1.386 . S
C1024 C1019 1.490 . S
C1024 C1026 1.395 . S
C1024 C1027 1.403 . S
H1025 C1031 0.930 . S
C1026 H1012 0.930 . S
C1026 C1024 1.395 . S
C1026 C1029 1.403 . S
C1027 C1024 1.403 . S
C1027 C1028 1.524 . S
C1027 C1031 1.400 . S
C1028 H1013 0.960 . S
C1028 H1014 0.960 . S
C1028 H1015 0.960 . S
C1028 C1027 1.524 . S
C1029 C1026 1.403 . S
C1029 C1030 1.392 . S
C1029 C1033 1.495 . S
C1030 C1029 1.392 . S
C1030 C1031 1.385 . S
C1030 C1032 1.478 . S
C1031 H1025 0.930 . S
C1031 C1027 1.400 . S
C1031 C1030 1.385 . S
C1032 C1030 1.478 . S
C1032 C1034 1.381 . S
C1032 C1038 1.383 . S
C1033 C1029 1.495 . S
C1033 H1039 0.959 . S
C1033 H1040 0.961 . S
C1033 H1041 0.960 . S
C1034 C1032 1.381 . S
C1034 C1035 1.394 . S
C1034 H1042 0.930 . S
C1035 C1034 1.394 . S
C1035 C1036 1.383 . S
C1035 H1043 0.929 . S
C1036 C1035 1.383 . S
C1036 C1037 1.377 . S
C1037 H1021 0.930 . S
C1037 C1036 1.377 . S
C1037 C1038 1.379 . S
C1038 H1022 0.931 . S
C1038 C1032 1.383 . S
C1038 C1037 1.379 . S
H1039 C1033 0.959 . S
H1040 C1033 0.961 . S
H1041 C1033 0.960 . S
H1042 C1034 0.930 . S
H1043 C1035 0.929 . S
H1044 C1052 0.929 . S
H1045 C1054 0.930 . S
H1046 C1056 0.930 . S
H1047 C1059 0.929 . S
H1048 C1062 0.930 . S
H1049 C1064 0.960 . S
H1050 C1064 0.960 . S
H1051 C1064 0.960 . S
C1052 H1044 0.929 . S
C1052 C1053 1.377 . S
C1052 C1054 1.384 . S
C1053 C1052 1.377 . S
C1053 C1059 1.390 . S
C1054 H1045 0.930 . S
C1054 C1052 1.384 . S
C1054 C1055 1.372 . S
C1055 C1054 1.372 . S
C1055 C1056 1.400 . S
C1055 C1060 1.490 . S
C1056 H1046 0.930 . S
C1056 C1055 1.400 . S
C1056 C1059 1.386 . S
H1057 C1073 0.930 . S
H1058 C1074 0.931 . S
C1059 H1047 0.929 . S
C1059 C1053 1.390 . S
C1059 C1056 1.386 . S
C1060 C1055 1.490 . S
C1060 C1062 1.395 . S
C1060 C1063 1.403 . S
H1061 C1067 0.930 . S
C1062 H1048 0.930 . S
C1062 C1060 1.395 . S
C1062 C1065 1.403 . S
C1063 C1060 1.403 . S
C1063 C1064 1.524 . S
C1063 C1067 1.400 . S
C1064 H1049 0.960 . S
C1064 H1050 0.960 . S
C1064 H1051 0.960 . S
C1064 C1063 1.524 . S
C1065 C1062 1.403 . S
C1065 C1066 1.392 . S
C1065 C1069 1.495 . S
C1066 C1065 1.392 . S
C1066 C1067 1.385 . S
C1066 C1068 1.478 . S
C1067 H1061 0.930 . S
C1067 C1063 1.400 . S
C1067 C1066 1.385 . S
C1068 C1066 1.478 . S
C1068 C1070 1.381 . S
C1068 C1074 1.383 . S
C1069 C1065 1.495 . S
C1069 H1075 0.959 . S
C1069 H1076 0.961 . S
C1069 H1077 0.960 . S
C1070 C1068 1.381 . S
C1070 C1071 1.394 . S
C1070 H1078 0.930 . S
C1071 C1070 1.394 . S
C1071 C1072 1.383 . S
C1071 H1079 0.929 . S
C1072 C1071 1.383 . S
C1072 C1073 1.377 . S
C1073 H1057 0.930 . S
C1073 C1072 1.377 . S
C1073 C1074 1.379 . S
C1074 H1058 0.931 . S
C1074 C1068 1.383 . S
C1074 C1073 1.379 . S
H1075 C1069 0.959 . S
H1076 C1069 0.961 . S
H1077 C1069 0.960 . S
H1078 C1070 0.930 . S
H1079 C1071 0.929 . S
H1080 C1088 0.929 . S
H1081 C1090 0.930 . S
H1082 C1092 0.930 . S
H1083 C1095 0.929 . S
H1084 C1098 0.930 . S
H1085 C1100 0.960 . S
H1086 C1100 0.960 . S
H1087 C1100 0.960 . S
C1088 H1080 0.929 . S
C1088 C1089 1.377 . S
C1088 C1090 1.384 . S
C1089 C1088 1.377 . S
C1089 C1095 1.390 . S
C1090 H1081 0.930 . S
C1090 C1088 1.384 . S
C1090 C1091 1.372 . S
C1091 C1090 1.372 . S
C1091 C1092 1.400 . S
C1091 C1096 1.490 . S
C1092 H1082 0.930 . S
C1092 C1091 1.400 . S
C1092 C1095 1.386 . S
H1093 C1109 0.930 . S
H1094 C1110 0.931 . S
C1095 H1083 0.929 . S
C1095 C1089 1.390 . S
C1095 C1092 1.386 . S
C1096 C1091 1.490 . S
C1096 C1098 1.395 . S
C1096 C1099 1.403 . S
H1097 C1103 0.930 . S
C1098 H1084 0.930 . S
C1098 C1096 1.395 . S
C1098 C1101 1.403 . S
C1099 C1096 1.403 . S
C1099 C1100 1.524 . S
C1099 C1103 1.400 . S
C1100 H1085 0.960 . S
C1100 H1086 0.960 . S
C1100 H1087 0.960 . S
C1100 C1099 1.524 . S
C1101 C1098 1.403 . S
C1101 C1102 1.392 . S
C1101 C1105 1.495 . S
C1102 C1101 1.392 . S
C1102 C1103 1.385 . S
C1102 C1104 1.478 . S
C1103 H1097 0.930 . S
C1103 C1099 1.400 . S
C1103 C1102 1.385 . S
C1104 C1102 1.478 . S
C1104 C1106 1.381 . S
C1104 C1110 1.383 . S
C1105 C1101 1.495 . S
C1105 H1111 0.959 . S
C1105 H1112 0.961 . S
C1105 H1113 0.960 . S
C1106 C1104 1.381 . S
C1106 C1107 1.394 . S
C1106 H1114 0.930 . S
C1107 C1106 1.394 . S
C1107 C1108 1.383 . S
C1107 H1115 0.929 . S
C1108 C1107 1.383 . S
C1108 C1109 1.377 . S
C1109 H1093 0.930 . S
C1109 C1108 1.377 . S
C1109 C1110 1.379 . S
C1110 H1094 0.931 . S
C1110 C1104 1.383 . S
C1110 C1109 1.379 . S
H1111 C1105 0.959 . S
H1112 C1105 0.961 . S
H1113 C1105 0.960 . S
H1114 C1106 0.930 . S
H1115 C1107 0.929 . S
H1116 C1124 0.929 . S
H1117 C1126 0.930 . S
H1118 C1128 0.930 . S
H1119 C1131 0.929 . S
H1120 C1134 0.930 . S
H1121 C1136 0.960 . S
H1122 C1136 0.960 . S
H1123 C1136 0.960 . S
C1124 H1116 0.929 . S
C1124 C1125 1.377 . S
C1124 C1126 1.384 . S
C1125 C1124 1.377 . S
C1125 C1131 1.390 . S
C1126 H1117 0.930 . S
C1126 C1124 1.384 . S
C1126 C1127 1.372 . S
C1127 C1126 1.372 . S
C1127 C1128 1.400 . S
C1127 C1132 1.490 . S
C1128 H1118 0.930 . S
C1128 C1127 1.400 . S
C1128 C1131 1.386 . S
H1129 C1145 0.930 . S
H1130 C1146 0.931 . S
C1131 H1119 0.929 . S
C1131 C1125 1.390 . S
C1131 C1128 1.386 . S
C1132 C1127 1.490 . S
C1132 C1134 1.395 . S
C1132 C1135 1.403 . S
H1133 C1139 0.930 . S
C1134 H1120 0.930 . S
C1134 C1132 1.395 . S
C1134 C1137 1.403 . S
C1135 C1132 1.403 . S
C1135 C1136 1.524 . S
C1135 C1139 1.400 . S
C1136 H1121 0.960 . S
C1136 H1122 0.960 . S
C1136 H1123 0.960 . S
C1136 C1135 1.524 . S
C1137 C1134 1.403 . S
C1137 C1138 1.392 . S
C1137 C1141 1.495 . S
C1138 C1137 1.392 . S
C1138 C1139 1.385 . S
C1138 C1140 1.478 . S
C1139 H1133 0.930 . S
C1139 C1135 1.400 . S
C1139 C1138 1.385 . S
C1140 C1138 1.478 . S
C1140 C1142 1.381 . S
C1140 C1146 1.383 . S
C1141 C1137 1.495 . S
C1141 H1147 0.959 . S
C1141 H1148 0.961 . S
C1141 H1149 0.960 . S
C1142 C1140 1.381 . S
C1142 C1143 1.394 . S
C1142 H1150 0.930 . S
C1143 C1142 1.394 . S
C1143 C1144 1.383 . S
C1143 H1151 0.929 . S
C1144 C1143 1.383 . S
C1144 C1145 1.377 . S
C1145 H1129 0.930 . S
C1145 C1144 1.377 . S
C1145 C1146 1.379 . S
C1146 H1130 0.931 . S
C1146 C1140 1.383 . S
C1146 C1145 1.379 . S
H1147 C1141 0.959 . S
H1148 C1141 0.961 . S
H1149 C1141 0.960 . S
H1150 C1142 0.930 . S
H1151 C1143 0.929 . S
H1152 C1160 0.929 . S
H1153 C1162 0.930 . S
H1154 C1164 0.930 . S
H1155 C1167 0.929 . S
H1156 C1170 0.930 . S
H1157 C1172 0.960 . S
H1158 C1172 0.960 . S
H1159 C1172 0.960 . S
C1160 H1152 0.929 . S
C1160 C1161 1.377 . S
C1160 C1162 1.384 . S
C1161 C1160 1.377 . S
C1161 C1167 1.390 . S
C1162 H1153 0.930 . S
C1162 C1160 1.384 . S
C1162 C1163 1.372 . S
C1163 C1162 1.372 . S
C1163 C1164 1.400 . S
C1163 C1168 1.490 . S
C1164 H1154 0.930 . S
C1164 C1163 1.400 . S
C1164 C1167 1.386 . S
H1165 C1181 0.930 . S
H1166 C1182 0.931 . S
C1167 H1155 0.929 . S
C1167 C1161 1.390 . S
C1167 C1164 1.386 . S
C1168 C1163 1.490 . S
C1168 C1170 1.395 . S
C1168 C1171 1.403 . S
H1169 C1175 0.930 . S
C1170 H1156 0.930 . S
C1170 C1168 1.395 . S
C1170 C1173 1.403 . S
C1171 C1168 1.403 . S
C1171 C1172 1.524 . S
C1171 C1175 1.400 . S
C1172 H1157 0.960 . S
C1172 H1158 0.960 . S
C1172 H1159 0.960 . S
C1172 C1171 1.524 . S
C1173 C1170 1.403 . S
C1173 C1174 1.392 . S
C1173 C1177 1.495 . S
C1174 C1173 1.392 . S
C1174 C1175 1.385 . S
C1174 C1176 1.478 . S
C1175 H1169 0.930 . S
C1175 C1171 1.400 . S
C1175 C1174 1.385 . S
C1176 C1174 1.478 . S
C1176 C1178 1.381 . S
C1176 C1182 1.383 . S
C1177 C1173 1.495 . S
C1177 H1183 0.959 . S
C1177 H1184 0.961 . S
C1177 H1185 0.960 . S
C1178 C1176 1.381 . S
C1178 C1179 1.394 . S
C1178 H1186 0.930 . S
C1179 C1178 1.394 . S
C1179 C1180 1.383 . S
C1179 H1187 0.929 . S
C1180 C1179 1.383 . S
C1180 C1181 1.377 . S
C1181 H1165 0.930 . S
C1181 C1180 1.377 . S
C1181 C1182 1.379 . S
C1182 H1166 0.931 . S
C1182 C1176 1.383 . S
C1182 C1181 1.379 . S
H1183 C1177 0.959 . S
H1184 C1177 0.961 . S
H1185 C1177 0.960 . S
H1186 C1178 0.930 . S
H1187 C1179 0.929 . S
H1188 C1196 0.929 . S
H1189 C1198 0.930 . S
H1190 C1200 0.930 . S
H1191 C1203 0.929 . S
H1192 C1206 0.930 . S
H1193 C1208 0.960 . S
H1194 C1208 0.960 . S
H1195 C1208 0.960 . S
C1196 H1188 0.929 . S
C1196 C1197 1.377 . S
C1196 C1198 1.384 . S
C1197 C1196 1.377 . S
C1197 C1203 1.390 . S
C1198 H1189 0.930 . S
C1198 C1196 1.384 . S
C1198 C1199 1.372 . S
C1199 C1198 1.372 . S
C1199 C1200 1.400 . S
C1199 C1204 1.490 . S
C1200 H1190 0.930 . S
C1200 C1199 1.400 . S
C1200 C1203 1.386 . S
H1201 C1217 0.930 . S
H1202 C1218 0.931 . S
C1203 H1191 0.929 . S
C1203 C1197 1.390 . S
C1203 C1200 1.386 . S
C1204 C1199 1.490 . S
C1204 C1206 1.395 . S
C1204 C1207 1.403 . S
H1205 C1211 0.930 . S
C1206 H1192 0.930 . S
C1206 C1204 1.395 . S
C1206 C1209 1.403 . S
C1207 C1204 1.403 . S
C1207 C1208 1.524 . S
C1207 C1211 1.400 . S
C1208 H1193 0.960 . S
C1208 H1194 0.960 . S
C1208 H1195 0.960 . S
C1208 C1207 1.524 . S
C1209 C1206 1.403 . S
C1209 C1210 1.392 . S
C1209 C1213 1.495 . S
C1210 C1209 1.392 . S
C1210 C1211 1.385 . S
C1210 C1212 1.478 . S
C1211 H1205 0.930 . S
C1211 C1207 1.400 . S
C1211 C1210 1.385 . S
C1212 C1210 1.478 . S
C1212 C1214 1.381 . S
C1212 C1218 1.383 . S
C1213 C1209 1.495 . S
C1213 H1219 0.959 . S
C1213 H1220 0.961 . S
C1213 H1221 0.960 . S
C1214 C1212 1.381 . S
C1214 C1215 1.394 . S
C1214 H1222 0.930 . S
C1215 C1214 1.394 . S
C1215 C1216 1.383 . S
C1215 H1223 0.929 . S
C1216 C1215 1.383 . S
C1216 C1217 1.377 . S
C1217 H1201 0.930 . S
C1217 C1216 1.377 . S
C1217 C1218 1.379 . S
C1218 H1202 0.931 . S
C1218 C1212 1.383 . S
C1218 C1217 1.379 . S
H1219 C1213 0.959 . S
H1220 C1213 0.961 . S
H1221 C1213 0.960 . S
H1222 C1214 0.930 . S
H1223 C1215 0.929 . S
H1224 C1232 0.929 . S
H1225 C1234 0.930 . S
H1226 C1236 0.930 . S
H1227 C1239 0.929 . S
H1228 C1242 0.930 . S
H1229 C1244 0.960 . S
H1230 C1244 0.960 . S
H1231 C1244 0.960 . S
C1232 H1224 0.929 . S
C1232 C1233 1.377 . S
C1232 C1234 1.384 . S
C1233 C1232 1.377 . S
C1233 C1239 1.390 . S
C1234 H1225 0.930 . S
C1234 C1232 1.384 . S
C1234 C1235 1.372 . S
C1235 C1234 1.372 . S
C1235 C1236 1.400 . S
C1235 C1240 1.490 . S
C1236 H1226 0.930 . S
C1236 C1235 1.400 . S
C1236 C1239 1.386 . S
H1237 C1253 0.930 . S
H1238 C1254 0.931 . S
C1239 H1227 0.929 . S
C1239 C1233 1.390 . S
C1239 C1236 1.386 . S
C1240 C1235 1.490 . S
C1240 C1242 1.395 . S
C1240 C1243 1.403 . S
H1241 C1247 0.930 . S
C1242 H1228 0.930 . S
C1242 C1240 1.395 . S
C1242 C1245 1.403 . S
C1243 C1240 1.403 . S
C1243 C1244 1.524 . S
C1243 C1247 1.400 . S
C1244 H1229 0.960 . S
C1244 H1230 0.960 . S
C1244 H1231 0.960 . S
C1244 C1243 1.524 . S
C1245 C1242 1.403 . S
C1245 C1246 1.392 . S
C1245 C1249 1.495 . S
C1246 C1245 1.392 . S
C1246 C1247 1.385 . S
C1246 C1248 1.478 . S
C1247 H1241 0.930 . S
C1247 C1243 1.400 . S
C1247 C1246 1.385 . S
C1248 C1246 1.478 . S
C1248 C1250 1.381 . S
C1248 C1254 1.383 . S
C1249 C1245 1.495 . S
C1249 H1255 0.959 . S
C1249 H1256 0.961 . S
C1249 H1257 0.960 . S
C1250 C1248 1.381 . S
C1250 C1251 1.394 . S
C1250 H1258 0.930 . S
C1251 C1250 1.394 . S
C1251 C1252 1.383 . S
C1251 H1259 0.929 . S
C1252 C1251 1.383 . S
C1252 C1253 1.377 . S
C1253 H1237 0.930 . S
C1253 C1252 1.377 . S
C1253 C1254 1.379 . S
C1254 H1238 0.931 . S
C1254 C1248 1.383 . S
C1254 C1253 1.379 . S
H1255 C1249 0.959 . S
H1256 C1249 0.961 . S
H1257 C1249 0.960 . S
H1258 C1250 0.930 . S
H1259 C1251 0.929 . S
H1260 C1268 0.929 . S
H1261 C1270 0.930 . S
H1262 C1272 0.930 . S
H1263 C1275 0.929 . S
H1264 C1278 0.930 . S
H1265 C1280 0.960 . S
H1266 C1280 0.960 . S
H1267 C1280 0.960 . S
C1268 H1260 0.929 . S
C1268 C1269 1.377 . S
C1268 C1270 1.384 . S
C1269 C1268 1.377 . S
C1269 C1275 1.390 . S
C1270 H1261 0.930 . S
C1270 C1268 1.384 . S
C1270 C1271 1.372 . S
C1271 C1270 1.372 . S
C1271 C1272 1.400 . S
C1271 C1276 1.490 . S
C1272 H1262 0.930 . S
C1272 C1271 1.400 . S
C1272 C1275 1.386 . S
H1273 C1289 0.930 . S
H1274 C1290 0.931 . S
C1275 H1263 0.929 . S
C1275 C1269 1.390 . S
C1275 C1272 1.386 . S
C1276 C1271 1.490 . S
C1276 C1278 1.395 . S
C1276 C1279 1.403 . S
H1277 C1283 0.930 . S
C1278 H1264 0.930 . S
C1278 C1276 1.395 . S
C1278 C1281 1.403 . S
C1279 C1276 1.403 . S
C1279 C1280 1.524 . S
C1279 C1283 1.400 . S
C1280 H1265 0.960 . S
C1280 H1266 0.960 . S
C1280 H1267 0.960 . S
C1280 C1279 1.524 . S
C1281 C1278 1.403 . S
C1281 C1282 1.392 . S
C1281 C1285 1.495 . S
C1282 C1281 1.392 . S
C1282 C1283 1.385 . S
C1282 C1284 1.478 . S
C1283 H1277 0.930 . S
C1283 C1279 1.400 . S
C1283 C1282 1.385 . S
C1284 C1282 1.478 . S
C1284 C1286 1.381 . S
C1284 C1290 1.383 . S
C1285 C1281 1.495 . S
C1285 H1291 0.959 . S
C1285 H1292 0.961 . S
C1285 H1293 0.960 . S
C1286 C1284 1.381 . S
C1286 C1287 1.394 . S
C1286 H1294 0.930 . S
C1287 C1286 1.394 . S
C1287 C1288 1.383 . S
C1287 H1295 0.929 . S
C1288 C1287 1.383 . S
C1288 C1289 1.377 . S
C1289 H1273 0.930 . S
C1289 C1288 1.377 . S
C1289 C1290 1.379 . S
C1290 H1274 0.931 . S
C1290 C1284 1.383 . S
C1290 C1289 1.379 . S
H1291 C1285 0.959 . S
H1292 C1285 0.961 . S
H1293 C1285 0.960 . S
H1294 C1286 0.930 . S
H1295 C1287 0.929 . S
H1296 C1304 0.929 . S
H1297 C1306 0.930 . S
H1298 C1308 0.930 . S
H1299 C1311 0.929 . S
H1300 C1314 0.930 . S
H1301 C1316 0.960 . S
H1302 C1316 0.960 . S
H1303 C1316 0.960 . S
C1304 H1296 0.929 . S
C1304 C1305 1.377 . S
C1304 C1306 1.384 . S
C1305 C1304 1.377 . S
C1305 C1311 1.390 . S
C1306 H1297 0.930 . S
C1306 C1304 1.384 . S
C1306 C1307 1.372 . S
C1307 C1306 1.372 . S
C1307 C1308 1.400 . S
C1307 C1312 1.490 . S
C1308 H1298 0.930 . S
C1308 C1307 1.400 . S
C1308 C1311 1.386 . S
H1309 C1325 0.930 . S
H1310 C1326 0.931 . S
C1311 H1299 0.929 . S
C1311 C1305 1.390 . S
C1311 C1308 1.386 . S
C1312 C1307 1.490 . S
C1312 C1314 1.395 . S
C1312 C1315 1.403 . S
H1313 C1319 0.930 . S
C1314 H1300 0.930 . S
C1314 C1312 1.395 . S
C1314 C1317 1.403 . S
C1315 C1312 1.403 . S
C1315 C1316 1.524 . S
C1315 C1319 1.400 . S
C1316 H1301 0.960 . S
C1316 H1302 0.960 . S
C1316 H1303 0.960 . S
C1316 C1315 1.524 . S
C1317 C1314 1.403 . S
C1317 C1318 1.392 . S
C1317 C1321 1.495 . S
C1318 C1317 1.392 . S
C1318 C1319 1.385 . S
C1318 C1320 1.478 . S
C1319 H1313 0.930 . S
C1319 C1315 1.400 . S
C1319 C1318 1.385 . S
C1320 C1318 1.478 . S
C1320 C1322 1.381 . S
C1320 C1326 1.383 . S
C1321 C1317 1.495 . S
C1321 H1327 0.959 . S
C1321 H1328 0.961 . S
C1321 H1329 0.960 . S
C1322 C1320 1.381 . S
C1322 C1323 1.394 . S
C1322 H1330 0.930 . S
C1323 C1322 1.394 . S
C1323 C1324 1.383 . S
C1323 H1331 0.929 . S
C1324 C1323 1.383 . S
C1324 C1325 1.377 . S
C1325 H1309 0.930 . S
C1325 C1324 1.377 . S
C1325 C1326 1.379 . S
C1326 H1310 0.931 . S
C1326 C1320 1.383 . S
C1326 C1325 1.379 . S
H1327 C1321 0.959 . S
H1328 C1321 0.961 . S
H1329 C1321 0.960 . S
H1330 C1322 0.930 . S
H1331 C1323 0.929 . S
H1332 C1340 0.929 . S
H1333 C1342 0.930 . S
H1334 C1344 0.930 . S
H1335 C1347 0.929 . S
H1336 C1350 0.930 . S
H1337 C1352 0.960 . S
H1338 C1352 0.960 . S
H1339 C1352 0.960 . S
C1340 H1332 0.929 . S
C1340 C1341 1.377 . S
C1340 C1342 1.384 . S
C1341 C1340 1.377 . S
C1341 C1347 1.390 . S
C1342 H1333 0.930 . S
C1342 C1340 1.384 . S
C1342 C1343 1.372 . S
C1343 C1342 1.372 . S
C1343 C1344 1.400 . S
C1343 C1348 1.490 . S
C1344 H1334 0.930 . S
C1344 C1343 1.400 . S
C1344 C1347 1.386 . S
H1345 C1361 0.930 . S
H1346 C1362 0.931 . S
C1347 H1335 0.929 . S
C1347 C1341 1.390 . S
C1347 C1344 1.386 . S
C1348 C1343 1.490 . S
C1348 C1350 1.395 . S
C1348 C1351 1.403 . S
H1349 C1355 0.930 . S
C1350 H1336 0.930 . S
C1350 C1348 1.395 . S
C1350 C1353 1.403 . S
C1351 C1348 1.403 . S
C1351 C1352 1.524 . S
C1351 C1355 1.400 . S
C1352 H1337 0.960 . S
C1352 H1338 0.960 . S
C1352 H1339 0.960 . S
C1352 C1351 1.524 . S
C1353 C1350 1.403 . S
C1353 C1354 1.392 . S
C1353 C1357 1.495 . S
C1354 C1353 1.392 . S
C1354 C1355 1.385 . S
C1354 C1356 1.478 . S
C1355 H1349 0.930 . S
C1355 C1351 1.400 . S
C1355 C1354 1.385 . S
C1356 C1354 1.478 . S
C1356 C1358 1.381 . S
C1356 C1362 1.383 . S
C1357 C1353 1.495 . S
C1357 H1363 0.959 . S
C1357 H1364 0.961 . S
C1357 H1365 0.960 . S
C1358 C1356 1.381 . S
C1358 C1359 1.394 . S
C1358 H1366 0.930 . S
C1359 C1358 1.394 . S
C1359 C1360 1.383 . S
C1359 H1367 0.929 . S
C1360 C1359 1.383 . S
C1360 C1361 1.377 . S
C1361 H1345 0.930 . S
C1361 C1360 1.377 . S
C1361 C1362 1.379 . S
C1362 H1346 0.931 . S
C1362 C1356 1.383 . S
C1362 C1361 1.379 . S
H1363 C1357 0.959 . S
H1364 C1357 0.961 . S
H1365 C1357 0.960 . S
H1366 C1358 0.930 . S
H1367 C1359 0.929 . S
H1368 C1376 0.929 . S
H1369 C1378 0.930 . S
H1370 C1380 0.930 . S
H1371 C1383 0.929 . S
H1372 C1386 0.930 . S
H1373 C1388 0.960 . S
H1374 C1388 0.960 . S
H1375 C1388 0.960 . S
C1376 H1368 0.929 . S
C1376 C1377 1.377 . S
C1376 C1378 1.384 . S
C1377 C1376 1.377 . S
C1377 C1383 1.390 . S
C1378 H1369 0.930 . S
C1378 C1376 1.384 . S
C1378 C1379 1.372 . S
C1379 C1378 1.372 . S
C1379 C1380 1.400 . S
C1379 C1384 1.490 . S
C1380 H1370 0.930 . S
C1380 C1379 1.400 . S
C1380 C1383 1.386 . S
H1381 C1397 0.930 . S
H1382 C1398 0.931 . S
C1383 H1371 0.929 . S
C1383 C1377 1.390 . S
C1383 C1380 1.386 . S
C1384 C1379 1.490 . S
C1384 C1386 1.395 . S
C1384 C1387 1.403 . S
H1385 C1391 0.930 . S
C1386 H1372 0.930 . S
C1386 C1384 1.395 . S
C1386 C1389 1.403 . S
C1387 C1384 1.403 . S
C1387 C1388 1.524 . S
C1387 C1391 1.400 . S
C1388 H1373 0.960 . S
C1388 H1374 0.960 . S
C1388 H1375 0.960 . S
C1388 C1387 1.524 . S
C1389 C1386 1.403 . S
C1389 C1390 1.392 . S
C1389 C1393 1.495 . S
C1390 C1389 1.392 . S
C1390 C1391 1.385 . S
C1390 C1392 1.478 . S
C1391 H1385 0.930 . S
C1391 C1387 1.400 . S
C1391 C1390 1.385 . S
C1392 C1390 1.478 . S
C1392 C1394 1.381 . S
C1392 C1398 1.383 . S
C1393 C1389 1.495 . S
C1393 H1399 0.959 . S
C1393 H1400 0.961 . S
C1393 H1401 0.960 . S
C1394 C1392 1.381 . S
C1394 C1395 1.394 . S
C1394 H1402 0.930 . S
C1395 C1394 1.394 . S
C1395 C1396 1.383 . S
C1395 H1403 0.929 . S
C1396 C1395 1.383 . S
C1396 C1397 1.377 . S
C1397 H1381 0.930 . S
C1397 C1396 1.377 . S
C1397 C1398 1.379 . S
C1398 H1382 0.931 . S
C1398 C1392 1.383 . S
C1398 C1397 1.379 . S
H1399 C1393 0.959 . S
H1400 C1393 0.961 . S
H1401 C1393 0.960 . S
H1402 C1394 0.930 . S
H1403 C1395 0.929 . S
H1404 C1412 0.929 . S
H1405 C1414 0.930 . S
H1406 C1416 0.930 . S
H1407 C1419 0.929 . S
H1408 C1422 0.930 . S
H1409 C1424 0.960 . S
H1410 C1424 0.960 . S
H1411 C1424 0.960 . S
C1412 H1404 0.929 . S
C1412 C1413 1.377 . S
C1412 C1414 1.384 . S
C1413 C1412 1.377 . S
C1413 C1419 1.390 . S
C1414 H1405 0.930 . S
C1414 C1412 1.384 . S
C1414 C1415 1.372 . S
C1415 C1414 1.372 . S
C1415 C1416 1.400 . S
C1415 C1420 1.490 . S
C1416 H1406 0.930 . S
C1416 C1415 1.400 . S
C1416 C1419 1.386 . S
H1417 C1433 0.930 . S
H1418 C1434 0.931 . S
C1419 H1407 0.929 . S
C1419 C1413 1.390 . S
C1419 C1416 1.386 . S
C1420 C1415 1.490 . S
C1420 C1422 1.395 . S
C1420 C1423 1.403 . S
H1421 C1427 0.930 . S
C1422 H1408 0.930 . S
C1422 C1420 1.395 . S
C1422 C1425 1.403 . S
C1423 C1420 1.403 . S
C1423 C1424 1.524 . S
C1423 C1427 1.400 . S
C1424 H1409 0.960 . S
C1424 H1410 0.960 . S
C1424 H1411 0.960 . S
C1424 C1423 1.524 . S
C1425 C1422 1.403 . S
C1425 C1426 1.392 . S
C1425 C1429 1.495 . S
C1426 C1425 1.392 . S
C1426 C1427 1.385 . S
C1426 C1428 1.478 . S
C1427 H1421 0.930 . S
C1427 C1423 1.400 . S
C1427 C1426 1.385 . S
C1428 C1426 1.478 . S
C1428 C1430 1.381 . S
C1428 C1434 1.383 . S
C1429 C1425 1.495 . S
C1429 H1435 0.959 . S
C1429 H1436 0.961 . S
C1429 H1437 0.960 . S
C1430 C1428 1.381 . S
C1430 C1431 1.394 . S
C1430 H1438 0.930 . S
C1431 C1430 1.394 . S
C1431 C1432 1.383 . S
C1431 H1439 0.929 . S
C1432 C1431 1.383 . S
C1432 C1433 1.377 . S
C1433 H1417 0.930 . S
C1433 C1432 1.377 . S
C1433 C1434 1.379 . S
C1434 H1418 0.931 . S
C1434 C1428 1.383 . S
C1434 C1433 1.379 . S
H1435 C1429 0.959 . S
H1436 C1429 0.961 . S
H1437 C1429 0.960 . S
H1438 C1430 0.930 . S
H1439 C1431 0.929 . S
H1440 C1448 0.929 . S
H1441 C1450 0.930 . S
H1442 C1452 0.930 . S
H1443 C1455 0.929 . S
H1444 C1458 0.930 . S
H1445 C1460 0.960 . S
H1446 C1460 0.960 . S
H1447 C1460 0.960 . S
C1448 H1440 0.929 . S
C1448 C1449 1.377 . S
C1448 C1450 1.384 . S
C1449 C1448 1.377 . S
C1449 C1455 1.390 . S
C1450 H1441 0.930 . S
C1450 C1448 1.384 . S
C1450 C1451 1.372 . S
C1451 C1450 1.372 . S
C1451 C1452 1.400 . S
C1451 C1456 1.490 . S
C1452 H1442 0.930 . S
C1452 C1451 1.400 . S
C1452 C1455 1.386 . S
H1453 C1469 0.930 . S
H1454 C1470 0.931 . S
C1455 H1443 0.929 . S
C1455 C1449 1.390 . S
C1455 C1452 1.386 . S
C1456 C1451 1.490 . S
C1456 C1458 1.395 . S
C1456 C1459 1.403 . S
H1457 C1463 0.930 . S
C1458 H1444 0.930 . S
C1458 C1456 1.395 . S
C1458 C1461 1.403 . S
C1459 C1456 1.403 . S
C1459 C1460 1.524 . S
C1459 C1463 1.400 . S
C1460 H1445 0.960 . S
C1460 H1446 0.960 . S
C1460 H1447 0.960 . S
C1460 C1459 1.524 . S
C1461 C1458 1.403 . S
C1461 C1462 1.392 . S
C1461 C1465 1.495 . S
C1462 C1461 1.392 . S
C1462 C1463 1.385 . S
C1462 C1464 1.478 . S
C1463 H1457 0.930 . S
C1463 C1459 1.400 . S
C1463 C1462 1.385 . S
C1464 C1462 1.478 . S
C1464 C1466 1.381 . S
C1464 C1470 1.383 . S
C1465 C1461 1.495 . S
C1465 H1471 0.959 . S
C1465 H1472 0.961 . S
C1465 H1473 0.960 . S
C1466 C1464 1.381 . S
C1466 C1467 1.394 . S
C1466 H1474 0.930 . S
C1467 C1466 1.394 . S
C1467 C1468 1.383 . S
C1467 H1475 0.929 . S
C1468 C1467 1.383 . S
C1468 C1469 1.377 . S
C1469 H1453 0.930 . S
C1469 C1468 1.377 . S
C1469 C1470 1.379 . S
C1470 H1454 0.931 . S
C1470 C1464 1.383 . S
C1470 C1469 1.379 . S
H1471 C1465 0.959 . S
H1472 C1465 0.961 . S
H1473 C1465 0.960 . S
H1474 C1466 0.930 . S
H1475 C1467 0.929 . S
H1476 C1484 0.929 . S
H1477 C1486 0.930 . S
H1478 C1488 0.930 . S
H1479 C1491 0.929 . S
H1480 C1494 0.930 . S
H1481 C1496 0.960 . S
H1482 C1496 0.960 . S
H1483 C1496 0.960 . S
C1484 H1476 0.929 . S
C1484 C1485 1.377 . S
C1484 C1486 1.384 . S
C1485 C1484 1.377 . S
C1485 C1491 1.390 . S
C1486 H1477 0.930 . S
C1486 C1484 1.384 . S
C1486 C1487 1.372 . S
C1487 C1486 1.372 . S
C1487 C1488 1.400 . S
C1487 C1492 1.490 . S
C1488 H1478 0.930 . S
C1488 C1487 1.400 . S
C1488 C1491 1.386 . S
H1489 C1505 0.930 . S
H1490 C1506 0.931 . S
C1491 H1479 0.929 . S
C1491 C1485 1.390 . S
C1491 C1488 1.386 . S
C1492 C1487 1.490 . S
C1492 C1494 1.395 . S
C1492 C1495 1.403 . S
H1493 C1499 0.930 . S
C1494 H1480 0.930 . S
C1494 C1492 1.395 . S
C1494 C1497 1.403 . S
C1495 C1492 1.403 . S
C1495 C1496 1.524 . S
C1495 C1499 1.400 . S
C1496 H1481 0.960 . S
C1496 H1482 0.960 . S
C1496 H1483 0.960 . S
C1496 C1495 1.524 . S
C1497 C1494 1.403 . S
C1497 C1498 1.392 . S
C1497 C1501 1.495 . S
C1498 C1497 1.392 . S
C1498 C1499 1.385 . S
C1498 C1500 1.478 . S
C1499 H1493 0.930 . S
C1499 C1495 1.400 . S
C1499 C1498 1.385 . S
C1500 C1498 1.478 . S
C1500 C1502 1.381 . S
C1500 C1506 1.383 . S
C1501 C1497 1.495 . S
C1501 H1507 0.959 . S
C1501 H1508 0.961 . S
C1501 H1509 0.960 . S
C1502 C1500 1.381 . S
C1502 C1503 1.394 . S
C1502 H1510 0.930 . S
C1503 C1502 1.394 . S
C1503 C1504 1.383 . S
C1503 H1511 0.929 . S
C1504 C1503 1.383 . S
C1504 C1505 1.377 . S
C1505 H1489 0.930 . S
C1505 C1504 1.377 . S
C1505 C1506 1.379 . S
C1506 H1490 0.931 . S
C1506 C1500 1.383 . S
C1506 C1505 1.379 . S
H1507 C1501 0.959 . S
H1508 C1501 0.961 . S
H1509 C1501 0.960 . S
H1510 C1502 0.930 . S
H1511 C1503 0.929 . S
H1512 C1520 0.929 . S
H1513 C1522 0.930 . S
H1514 C1524 0.930 . S
H1515 C1527 0.929 . S
H1516 C1530 0.930 . S
H1517 C1532 0.960 . S
H1518 C1532 0.960 . S
H1519 C1532 0.960 . S
C1520 H1512 0.929 . S
C1520 C1521 1.377 . S
C1520 C1522 1.384 . S
C1521 C1520 1.377 . S
C1521 C1527 1.390 . S
C1522 H1513 0.930 . S
C1522 C1520 1.384 . S
C1522 C1523 1.372 . S
C1523 C1522 1.372 . S
C1523 C1524 1.400 . S
C1523 C1528 1.490 . S
C1524 H1514 0.930 . S
C1524 C1523 1.400 . S
C1524 C1527 1.386 . S
H1525 C1541 0.930 . S
H1526 C1542 0.931 . S
C1527 H1515 0.929 . S
C1527 C1521 1.390 . S
C1527 C1524 1.386 . S
C1528 C1523 1.490 . S
C1528 C1530 1.395 . S
C1528 C1531 1.403 . S
H1529 C1535 0.930 . S
C1530 H1516 0.930 . S
C1530 C1528 1.395 . S
C1530 C1533 1.403 . S
C1531 C1528 1.403 . S
C1531 C1532 1.524 . S
C1531 C1535 1.400 . S
C1532 H1517 0.960 . S
C1532 H1518 0.960 . S
C1532 H1519 0.960 . S
C1532 C1531 1.524 . S
C1533 C1530 1.403 . S
C1533 C1534 1.392 . S
C1533 C1537 1.495 . S
C1534 C1533 1.392 . S
C1534 C1535 1.385 . S
C1534 C1536 1.478 . S
C1535 H1529 0.930 . S
C1535 C1531 1.400 . S
C1535 C1534 1.385 . S
C1536 C1534 1.478 . S
C1536 C1538 1.381 . S
C1536 C1542 1.383 . S
C1537 C1533 1.495 . S
C1537 H1543 0.959 . S
C1537 H1544 0.961 . S
C1537 H1545 0.960 . S
C1538 C1536 1.381 . S
C1538 C1539 1.394 . S
C1538 H1546 0.930 . S
C1539 C1538 1.394 . S
C1539 C1540 1.383 . S
C1539 H1547 0.929 . S
C1540 C1539 1.383 . S
C1540 C1541 1.377 . S
C1541 H1525 0.930 . S
C1541 C1540 1.377 . S
C1541 C1542 1.379 . S
C1542 H1526 0.931 . S
C1542 C1536 1.383 . S
C1542 C1541 1.379 . S
H1543 C1537 0.959 . S
H1544 C1537 0.961 . S
H1545 C1537 0.960 . S
H1546 C1538 0.930 . S
H1547 C1539 0.929 . S
H1548 C1556 0.929 . S
H1549 C1558 0.930 . S
H1550 C1560 0.930 . S
H1551 C1563 0.929 . S
H1552 C1566 0.930 . S
H1553 C1568 0.960 . S
H1554 C1568 0.960 . S
H1555 C1568 0.960 . S
C1556 H1548 0.929 . S
C1556 C1557 1.377 . S
C1556 C1558 1.384 . S
C1557 C1556 1.377 . S
C1557 C1563 1.390 . S
C1558 H1549 0.930 . S
C1558 C1556 1.384 . S
C1558 C1559 1.372 . S
C1559 C1558 1.372 . S
C1559 C1560 1.400 . S
C1559 C1564 1.490 . S
C1560 H1550 0.930 . S
C1560 C1559 1.400 . S
C1560 C1563 1.386 . S
H1561 C1577 0.930 . S
H1562 C1578 0.931 . S
C1563 H1551 0.929 . S
C1563 C1557 1.390 . S
C1563 C1560 1.386 . S
C1564 C1559 1.490 . S
C1564 C1566 1.395 . S
C1564 C1567 1.403 . S
H1565 C1571 0.930 . S
C1566 H1552 0.930 . S
C1566 C1564 1.395 . S
C1566 C1569 1.403 . S
C1567 C1564 1.403 . S
C1567 C1568 1.524 . S
C1567 C1571 1.400 . S
C1568 H1553 0.960 . S
C1568 H1554 0.960 . S
C1568 H1555 0.960 . S
C1568 C1567 1.524 . S
C1569 C1566 1.403 . S
C1569 C1570 1.392 . S
C1569 C1573 1.495 . S
C1570 C1569 1.392 . S
C1570 C1571 1.385 . S
C1570 C1572 1.478 . S
C1571 H1565 0.930 . S
C1571 C1567 1.400 . S
C1571 C1570 1.385 . S
C1572 C1570 1.478 . S
C1572 C1574 1.381 . S
C1572 C1578 1.383 . S
C1573 C1569 1.495 . S
C1573 H1579 0.959 . S
C1573 H1580 0.961 . S
C1573 H1581 0.960 . S
C1574 C1572 1.381 . S
C1574 C1575 1.394 . S
C1574 H1582 0.930 . S
C1575 C1574 1.394 . S
C1575 C1576 1.383 . S
C1575 H1583 0.929 . S
C1576 C1575 1.383 . S
C1576 C1577 1.377 . S
C1577 H1561 0.930 . S
C1577 C1576 1.377 . S
C1577 C1578 1.379 . S
C1578 H1562 0.931 . S
C1578 C1572 1.383 . S
C1578 C1577 1.379 . S
H1579 C1573 0.959 . S
H1580 C1573 0.961 . S
H1581 C1573 0.960 . S
H1582 C1574 0.930 . S
H1583 C1575 0.929 . S
H1584 C1592 0.929 . S
H1585 C1594 0.930 . S
H1586 C1596 0.930 . S
H1587 C1599 0.929 . S
H1588 C1602 0.930 . S
H1589 C1604 0.960 . S
H1590 C1604 0.960 . S
H1591 C1604 0.960 . S
C1592 H1584 0.929 . S
C1592 C1593 1.377 . S
C1592 C1594 1.384 . S
C1593 C1592 1.377 . S
C1593 C1599 1.390 . S
C1594 H1585 0.930 . S
C1594 C1592 1.384 . S
C1594 C1595 1.372 . S
C1595 C1594 1.372 . S
C1595 C1596 1.400 . S
C1595 C1600 1.490 . S
C1596 H1586 0.930 . S
C1596 C1595 1.400 . S
C1596 C1599 1.386 . S
H1597 C1613 0.930 . S
H1598 C1614 0.931 . S
C1599 H1587 0.929 . S
C1599 C1593 1.390 . S
C1599 C1596 1.386 . S
C1600 C1595 1.490 . S
C1600 C1602 1.395 . S
C1600 C1603 1.403 . S
H1601 C1607 0.930 . S
C1602 H1588 0.930 . S
C1602 C1600 1.395 . S
C1602 C1605 1.403 . S
C1603 C1600 1.403 . S
C1603 C1604 1.524 . S
C1603 C1607 1.400 . S
C1604 H1589 0.960 . S
C1604 H1590 0.960 . S
C1604 H1591 0.960 . S
C1604 C1603 1.524 . S
C1605 C1602 1.403 . S
C1605 C1606 1.392 . S
C1605 C1609 1.495 . S
C1606 C1605 1.392 . S
C1606 C1607 1.385 . S
C1606 C1608 1.478 . S
C1607 H1601 0.930 . S
C1607 C1603 1.400 . S
C1607 C1606 1.385 . S
C1608 C1606 1.478 . S
C1608 C1610 1.381 . S
C1608 C1614 1.383 . S
C1609 C1605 1.495 . S
C1609 H1615 0.959 . S
C1609 H1616 0.961 . S
C1609 H1617 0.960 . S
C1610 C1608 1.381 . S
C1610 C1611 1.394 . S
C1610 H1618 0.930 . S
C1611 C1610 1.394 . S
C1611 C1612 1.383 . S
C1611 H1619 0.929 . S
C1612 C1611 1.383 . S
C1612 C1613 1.377 . S
C1613 H1597 0.930 . S
C1613 C1612 1.377 . S
C1613 C1614 1.379 . S
C1614 H1598 0.931 . S
C1614 C1608 1.383 . S
C1614 C1613 1.379 . S
H1615 C1609 0.959 . S
H1616 C1609 0.961 . S
H1617 C1609 0.960 . S
H1618 C1610 0.930 . S
H1619 C1611 0.929 . S
H1620 C1628 0.929 . S
H1621 C1630 0.930 . S
H1622 C1632 0.930 . S
H1623 C1635 0.929 . S
H1624 C1638 0.930 . S
H1625 C1640 0.960 . S
H1626 C1640 0.960 . S
H1627 C1640 0.960 . S
C1628 H1620 0.929 . S
C1628 C1629 1.377 . S
C1628 C1630 1.384 . S
C1629 C1628 1.377 . S
C1629 C1635 1.390 . S
C1630 H1621 0.930 . S
C1630 C1628 1.384 . S
C1630 C1631 1.372 . S
C1631 C1630 1.372 . S
C1631 C1632 1.400 . S
C1631 C1636 1.490 . S
C1632 H1622 0.930 . S
C1632 C1631 1.400 . S
C1632 C1635 1.386 . S
H1633 C1649 0.930 . S
H1634 C1650 0.931 . S
C1635 H1623 0.929 . S
C1635 C1629 1.390 . S
C1635 C1632 1.386 . S
C1636 C1631 1.490 . S
C1636 C1638 1.395 . S
C1636 C1639 1.403 . S
H1637 C1643 0.930 . S
C1638 H1624 0.930 . S
C1638 C1636 1.395 . S
C1638 C1641 1.403 . S
C1639 C1636 1.403 . S
C1639 C1640 1.524 . S
C1639 C1643 1.400 . S
C1640 H1625 0.960 . S
C1640 H1626 0.960 . S
C1640 H1627 0.960 . S
C1640 C1639 1.524 . S
C1641 C1638 1.403 . S
C1641 C1642 1.392 . S
C1641 C1645 1.495 . S
C1642 C1641 1.392 . S
C1642 C1643 1.385 . S
C1642 C1644 1.478 . S
C1643 H1637 0.930 . S
C1643 C1639 1.400 . S
C1643 C1642 1.385 . S
C1644 C1642 1.478 . S
C1644 C1646 1.381 . S
C1644 C1650 1.383 . S
C1645 C1641 1.495 . S
C1645 H1651 0.959 . S
C1645 H1652 0.961 . S
C1645 H1653 0.960 . S
C1646 C1644 1.381 . S
C1646 C1647 1.394 . S
C1646 H1654 0.930 . S
C1647 C1646 1.394 . S
C1647 C1648 1.383 . S
C1647 H1655 0.929 . S
C1648 C1647 1.383 . S
C1648 C1649 1.377 . S
C1649 H1633 0.930 . S
C1649 C1648 1.377 . S
C1649 C1650 1.379 . S
C1650 H1634 0.931 . S
C1650 C1644 1.383 . S
C1650 C1649 1.379 . S
H1651 C1645 0.959 . S
H1652 C1645 0.961 . S
H1653 C1645 0.960 . S
H1654 C1646 0.930 . S
H1655 C1647 0.929 . S
H1656 C1664 0.929 . S
H1657 C1666 0.930 . S
H1658 C1668 0.930 . S
H1659 C1671 0.929 . S
H1660 C1674 0.930 . S
H1661 C1676 0.960 . S
H1662 C1676 0.960 . S
H1663 C1676 0.960 . S
C1664 H1656 0.929 . S
C1664 C1665 1.377 . S
C1664 C1666 1.384 . S
C1665 C1664 1.377 . S
C1665 C1671 1.390 . S
C1666 H1657 0.930 . S
C1666 C1664 1.384 . S
C1666 C1667 1.372 . S
C1667 C1666 1.372 . S
C1667 C1668 1.400 . S
C1667 C1672 1.490 . S
C1668 H1658 0.930 . S
C1668 C1667 1.400 . S
C1668 C1671 1.386 . S
H1669 C1685 0.930 . S
H1670 C1686 0.931 . S
C1671 H1659 0.929 . S
C1671 C1665 1.390 . S
C1671 C1668 1.386 . S
C1672 C1667 1.490 . S
C1672 C1674 1.395 . S
C1672 C1675 1.403 . S
H1673 C1679 0.930 . S
C1674 H1660 0.930 . S
C1674 C1672 1.395 . S
C1674 C1677 1.403 . S
C1675 C1672 1.403 . S
C1675 C1676 1.524 . S
C1675 C1679 1.400 . S
C1676 H1661 0.960 . S
C1676 H1662 0.960 . S
C1676 H1663 0.960 . S
C1676 C1675 1.524 . S
C1677 C1674 1.403 . S
C1677 C1678 1.392 . S
C1677 C1681 1.495 . S
C1678 C1677 1.392 . S
C1678 C1679 1.385 . S
C1678 C1680 1.478 . S
C1679 H1673 0.930 . S
C1679 C1675 1.400 . S
C1679 C1678 1.385 . S
C1680 C1678 1.478 . S
C1680 C1682 1.381 . S
C1680 C1686 1.383 . S
C1681 C1677 1.495 . S
C1681 H1687 0.959 . S
C1681 H1688 0.961 . S
C1681 H1689 0.960 . S
C1682 C1680 1.381 . S
C1682 C1683 1.394 . S
C1682 H1690 0.930 . S
C1683 C1682 1.394 . S
C1683 C1684 1.383 . S
C1683 H1691 0.929 . S
C1684 C1683 1.383 . S
C1684 C1685 1.377 . S
C1685 H1669 0.930 . S
C1685 C1684 1.377 . S
C1685 C1686 1.379 . S
C1686 H1670 0.931 . S
C1686 C1680 1.383 . S
C1686 C1685 1.379 . S
H1687 C1681 0.959 . S
H1688 C1681 0.961 . S
H1689 C1681 0.960 . S
H1690 C1682 0.930 . S
H1691 C1683 0.929 . S
H1692 C1700 0.929 . S
H1693 C1702 0.930 . S
H1694 C1704 0.930 . S
H1695 C1707 0.929 . S
H1696 C1710 0.930 . S
H1697 C1712 0.960 . S
H1698 C1712 0.960 . S
H1699 C1712 0.960 . S
C1700 H1692 0.929 . S
C1700 C1701 1.377 . S
C1700 C1702 1.384 . S
C1701 C1700 1.377 . S
C1701 C1707 1.390 . S
C1702 H1693 0.930 . S
C1702 C1700 1.384 . S
C1702 C1703 1.372 . S
C1703 C1702 1.372 . S
C1703 C1704 1.400 . S
C1703 C1708 1.490 . S
C1704 H1694 0.930 . S
C1704 C1703 1.400 . S
C1704 C1707 1.386 . S
H1705 C1721 0.930 . S
H1706 C1722 0.931 . S
C1707 H1695 0.929 . S
C1707 C1701 1.390 . S
C1707 C1704 1.386 . S
C1708 C1703 1.490 . S
C1708 C1710 1.395 . S
C1708 C1711 1.403 . S
H1709 C1715 0.930 . S
C1710 H1696 0.930 . S
C1710 C1708 1.395 . S
C1710 C1713 1.403 . S
C1711 C1708 1.403 . S
C1711 C1712 1.524 . S
C1711 C1715 1.400 . S
C1712 H1697 0.960 . S
C1712 H1698 0.960 . S
C1712 H1699 0.960 . S
C1712 C1711 1.524 . S
C1713 C1710 1.403 . S
C1713 C1714 1.392 . S
C1713 C1717 1.495 . S
C1714 C1713 1.392 . S
C1714 C1715 1.385 . S
C1714 C1716 1.478 . S
C1715 H1709 0.930 . S
C1715 C1711 1.400 . S
C1715 C1714 1.385 . S
C1716 C1714 1.478 . S
C1716 C1718 1.381 . S
C1716 C1722 1.383 . S
C1717 C1713 1.495 . S
C1717 H1723 0.959 . S
C1717 H1724 0.961 . S
C1717 H1725 0.960 . S
C1718 C1716 1.381 . S
C1718 C1719 1.394 . S
C1718 H1726 0.930 . S
C1719 C1718 1.394 . S
C1719 C1720 1.383 . S
C1719 H1727 0.929 . S
C1720 C1719 1.383 . S
C1720 C1721 1.377 . S
C1721 H1705 0.930 . S
C1721 C1720 1.377 . S
C1721 C1722 1.379 . S
C1722 H1706 0.931 . S
C1722 C1716 1.383 . S
C1722 C1721 1.379 . S
H1723 C1717 0.959 . S
H1724 C1717 0.961 . S
H1725 C1717 0.960 . S
H1726 C1718 0.930 . S
H1727 C1719 0.929 . S
H1728 C1736 0.929 . S
H1729 C1738 0.930 . S
H1730 C1740 0.930 . S
H1731 C1743 0.929 . S
H1732 C1746 0.930 . S
H1733 C1748 0.960 . S
H1734 C1748 0.960 . S
H1735 C1748 0.960 . S
C1736 H1728 0.929 . S
C1736 C1737 1.377 . S
C1736 C1738 1.384 . S
C1737 C1736 1.377 . S
C1737 C1743 1.390 . S
C1738 H1729 0.930 . S
C1738 C1736 1.384 . S
C1738 C1739 1.372 . S
C1739 C1738 1.372 . S
C1739 C1740 1.400 . S
C1739 C1744 1.490 . S
C1740 H1730 0.930 . S
C1740 C1739 1.400 . S
C1740 C1743 1.386 . S
H1741 C1757 0.930 . S
H1742 C1758 0.931 . S
C1743 H1731 0.929 . S
C1743 C1737 1.390 . S
C1743 C1740 1.386 . S
C1744 C1739 1.490 . S
C1744 C1746 1.395 . S
C1744 C1747 1.403 . S
H1745 C1751 0.930 . S
C1746 H1732 0.930 . S
C1746 C1744 1.395 . S
C1746 C1749 1.403 . S
C1747 C1744 1.403 . S
C1747 C1748 1.524 . S
C1747 C1751 1.400 . S
C1748 H1733 0.960 . S
C1748 H1734 0.960 . S
C1748 H1735 0.960 . S
C1748 C1747 1.524 . S
C1749 C1746 1.403 . S
C1749 C1750 1.392 . S
C1749 C1753 1.495 . S
C1750 C1749 1.392 . S
C1750 C1751 1.385 . S
C1750 C1752 1.478 . S
C1751 H1745 0.930 . S
C1751 C1747 1.400 . S
C1751 C1750 1.385 . S
C1752 C1750 1.478 . S
C1752 C1754 1.381 . S
C1752 C1758 1.383 . S
C1753 C1749 1.495 . S
C1753 H1759 0.959 . S
C1753 H1760 0.961 . S
C1753 H1761 0.960 . S
C1754 C1752 1.381 . S
C1754 C1755 1.394 . S
C1754 H1762 0.930 . S
C1755 C1754 1.394 . S
C1755 C1756 1.383 . S
C1755 H1763 0.929 . S
C1756 C1755 1.383 . S
C1756 C1757 1.377 . S
C1757 H1741 0.930 . S
C1757 C1756 1.377 . S
C1757 C1758 1.379 . S
C1758 H1742 0.931 . S
C1758 C1752 1.383 . S
C1758 C1757 1.379 . S
H1759 C1753 0.959 . S
H1760 C1753 0.961 . S
H1761 C1753 0.960 . S
H1762 C1754 0.930 . S
H1763 C1755 0.929 . S
H1764 C1772 0.929 . S
H1765 C1774 0.930 . S
H1766 C1776 0.930 . S
H1767 C1779 0.929 . S
H1768 C1782 0.930 . S
H1769 C1784 0.960 . S
H1770 C1784 0.960 . S
H1771 C1784 0.960 . S
C1772 H1764 0.929 . S
C1772 C1773 1.377 . S
C1772 C1774 1.384 . S
C1773 C1772 1.377 . S
C1773 C1779 1.390 . S
C1774 H1765 0.930 . S
C1774 C1772 1.384 . S
C1774 C1775 1.372 . S
C1775 C1774 1.372 . S
C1775 C1776 1.400 . S
C1775 C1780 1.490 . S
C1776 H1766 0.930 . S
C1776 C1775 1.400 . S
C1776 C1779 1.386 . S
H1777 C1793 0.930 . S
H1778 C1794 0.931 . S
C1779 H1767 0.929 . S
C1779 C1773 1.390 . S
C1779 C1776 1.386 . S
C1780 C1775 1.490 . S
C1780 C1782 1.395 . S
C1780 C1783 1.403 . S
H1781 C1787 0.930 . S
C1782 H1768 0.930 . S
C1782 C1780 1.395 . S
C1782 C1785 1.403 . S
C1783 C1780 1.403 . S
C1783 C1784 1.524 . S
C1783 C1787 1.400 . S
C1784 H1769 0.960 . S
C1784 H1770 0.960 . S
C1784 H1771 0.960 . S
C1784 C1783 1.524 . S
C1785 C1782 1.403 . S
C1785 C1786 1.392 . S
C1785 C1789 1.495 . S
C1786 C1785 1.392 . S
C1786 C1787 1.385 . S
C1786 C1788 1.478 . S
C1787 H1781 0.930 . S
C1787 C1783 1.400 . S
C1787 C1786 1.385 . S
C1788 C1786 1.478 . S
C1788 C1790 1.381 . S
C1788 C1794 1.383 . S
C1789 C1785 1.495 . S
C1789 H1795 0.959 . S
C1789 H1796 0.961 . S
C1789 H1797 0.960 . S
C1790 C1788 1.381 . S
C1790 C1791 1.394 . S
C1790 H1798 0.930 . S
C1791 C1790 1.394 . S
C1791 C1792 1.383 . S
C1791 H1799 0.929 . S
C1792 C1791 1.383 . S
C1792 C1793 1.377 . S
C1793 H1777 0.930 . S
C1793 C1792 1.377 . S
C1793 C1794 1.379 . S
C1794 H1778 0.931 . S
C1794 C1788 1.383 . S
C1794 C1793 1.379 . S
H1795 C1789 0.959 . S
H1796 C1789 0.961 . S
H1797 C1789 0.960 . S
H1798 C1790 0.930 . S
H1799 C1791 0.929 . S
H1800 C1808 0.929 . S
H1801 C1810 0.930 . S
H1802 C1812 0.930 . S
H1803 C1815 0.929 . S
H1804 C1818 0.930 . S
H1805 C1820 0.960 . S
H1806 C1820 0.960 . S
H1807 C1820 0.960 . S
C1808 H1800 0.929 . S
C1808 C1809 1.377 . S
C1808 C1810 1.384 . S
C1809 C1808 1.377 . S
C1809 C1815 1.390 . S
C1810 H1801 0.930 . S
C1810 C1808 1.384 . S
C1810 C1811 1.372 . S
C1811 C1810 1.372 . S
C1811 C1812 1.400 . S
C1811 C1816 1.490 . S
C1812 H1802 0.930 . S
C1812 C1811 1.400 . S
C1812 C1815 1.386 . S
H1813 C1829 0.930 . S
H1814 C1830 0.931 . S
C1815 H1803 0.929 . S
C1815 C1809 1.390 . S
C1815 C1812 1.386 . S
C1816 C1811 1.490 . S
C1816 C1818 1.395 . S
C1816 C1819 1.403 . S
H1817 C1823 0.930 . S
C1818 H1804 0.930 . S
C1818 C1816 1.395 . S
C1818 C1821 1.403 . S
C1819 C1816 1.403 . S
C1819 C1820 1.524 . S
C1819 C1823 1.400 . S
C1820 H1805 0.960 . S
C1820 H1806 0.960 . S
C1820 H1807 0.960 . S
C1820 C1819 1.524 . S
C1821 C1818 1.403 . S
C1821 C1822 1.392 . S
C1821 C1825 1.495 . S
C1822 C1821 1.392 . S
C1822 C1823 1.385 . S
C1822 C1824 1.478 . S
C1823 H1817 0.930 . S
C1823 C1819 1.400 . S
C1823 C1822 1.385 . S
C1824 C1822 1.478 . S
C1824 C1826 1.381 . S
C1824 C1830 1.383 . S
C1825 C1821 1.495 . S
C1825 H1831 0.959 . S
C1825 H1832 0.961 . S
C1825 H1833 0.960 . S
C1826 C1824 1.381 . S
C1826 C1827 1.394 . S
C1826 H1834 0.930 . S
C1827 C1826 1.394 . S
C1827 C1828 1.383 . S
C1827 H1835 0.929 . S
C1828 C1827 1.383 . S
C1828 C1829 1.377 . S
C1829 H1813 0.930 . S
C1829 C1828 1.377 . S
C1829 C1830 1.379 . S
C1830 H1814 0.931 . S
C1830 C1824 1.383 . S
C1830 C1829 1.379 . S
H1831 C1825 0.959 . S
H1832 C1825 0.961 . S
H1833 C1825 0.960 . S
H1834 C1826 0.930 . S
H1835 C1827 0.929 . S
H1836 C1844 0.929 . S
H1837 C1846 0.930 . S
H1838 C1848 0.930 . S
H1839 C1851 0.929 . S
H1840 C1854 0.930 . S
H1841 C1856 0.960 . S
H1842 C1856 0.960 . S
H1843 C1856 0.960 . S
C1844 H1836 0.929 . S
C1844 C1845 1.377 . S
C1844 C1846 1.384 . S
C1845 C1844 1.377 . S
C1845 C1851 1.390 . S
C1846 H1837 0.930 . S
C1846 C1844 1.384 . S
C1846 C1847 1.372 . S
C1847 C1846 1.372 . S
C1847 C1848 1.400 . S
C1847 C1852 1.490 . S
C1848 H1838 0.930 . S
C1848 C1847 1.400 . S
C1848 C1851 1.386 . S
H1849 C1865 0.930 . S
H1850 C1866 0.931 . S
C1851 H1839 0.929 . S
C1851 C1845 1.390 . S
C1851 C1848 1.386 . S
C1852 C1847 1.490 . S
C1852 C1854 1.395 . S
C1852 C1855 1.403 . S
H1853 C1859 0.930 . S
C1854 H1840 0.930 . S
C1854 C1852 1.395 . S
C1854 C1857 1.403 1_565 S
C1855 C1852 1.403 . S
C1855 C1856 1.524 . S
C1855 C1859 1.400 1_565 S
C1856 H1841 0.960 . S
C1856 H1842 0.960 . S
C1856 H1843 0.960 . S
C1856 C1855 1.524 . S
C1857 C1854 1.403 1_545 S
C1857 C1858 1.392 . S
C1857 C1861 1.495 . S
C1858 C1857 1.392 . S
C1858 C1859 1.385 . S
C1858 C1860 1.478 . S
C1859 H1853 0.930 . S
C1859 C1855 1.400 1_545 S
C1859 C1858 1.385 . S
C1860 C1858 1.478 . S
C1860 C1862 1.381 . S
C1860 C1866 1.383 . S
C1861 C1857 1.495 . S
C1861 H1867 0.959 . S
C1861 H1868 0.961 . S
C1861 H1869 0.960 . S
C1862 C1860 1.381 . S
C1862 C1863 1.394 . S
C1862 H1870 0.930 . S
C1863 C1862 1.394 . S
C1863 C1864 1.383 . S
C1863 H1871 0.929 . S
C1864 C1863 1.383 . S
C1864 C1865 1.377 . S
C1865 H1849 0.930 . S
C1865 C1864 1.377 . S
C1865 C1866 1.379 . S
C1866 H1850 0.931 . S
C1866 C1860 1.383 . S
C1866 C1865 1.379 . S
H1867 C1861 0.959 . S
H1868 C1861 0.961 . S
H1869 C1861 0.960 . S
H1870 C1862 0.930 . S
H1871 C1863 0.929 . S
H1872 C1880 0.929 . S
H1873 C1882 0.930 . S
H1874 C1884 0.930 . S
H1875 C1887 0.929 . S
H1876 C1890 0.923 . S
H1877 C1892 0.960 . S
H1878 C1892 0.960 . S
H1879 C1892 0.960 . S
C1880 H1872 0.929 . S
C1880 C1881 1.377 . S
C1880 C1882 1.384 . S
C1881 C1880 1.377 . S
C1881 C1887 1.390 . S
C1882 H1873 0.930 . S
C1882 C1880 1.384 . S
C1882 C1883 1.372 . S
C1883 C1882 1.372 . S
C1883 C1884 1.400 . S
C1883 C1888 1.490 . S
C1884 H1874 0.930 . S
C1884 C1883 1.400 . S
C1884 C1887 1.386 . S
H1885 C1901 0.930 . S
H1886 C1902 0.931 . S
C1887 H1875 0.929 . S
C1887 C1881 1.390 . S
C1887 C1884 1.386 . S
C1888 C1883 1.490 . S
C1888 C1890 1.395 1_655 S
C1888 C1891 1.403 . S
H1889 C1895 0.930 . S
C1890 H1876 0.923 . S
C1890 C1888 1.395 1_455 S
C1890 C1893 1.403 . S
C1891 C1888 1.403 . S
C1891 C1892 1.524 . S
C1891 C1895 1.400 1_655 S
C1892 H1877 0.960 . S
C1892 H1878 0.960 . S
C1892 H1879 0.960 . S
C1892 C1891 1.524 . S
C1893 C1890 1.403 . S
C1893 C1894 1.392 . S
C1893 C1897 1.495 . S
C1894 C1893 1.392 . S
C1894 C1895 1.385 . S
C1894 C1896 1.478 . S
C1895 H1889 0.930 . S
C1895 C1891 1.400 1_455 S
C1895 C1894 1.385 . S
C1896 C1894 1.478 . S
C1896 C1898 1.381 . S
C1896 C1902 1.383 . S
C1897 C1893 1.495 . S
C1897 H1903 0.959 . S
C1897 H1904 0.961 . S
C1897 H1905 0.960 . S
C1898 C1896 1.381 . S
C1898 C1899 1.394 . S
C1898 H1906 0.930 . S
C1899 C1898 1.394 . S
C1899 C1900 1.383 . S
C1899 H1907 0.929 . S
C1900 C1899 1.383 . S
C1900 C1901 1.377 . S
C1901 H1885 0.930 . S
C1901 C1900 1.377 . S
C1901 C1902 1.379 . S
C1902 H1886 0.931 . S
C1902 C1896 1.383 . S
C1902 C1901 1.379 . S
H1903 C1897 0.959 . S
H1904 C1897 0.961 . S
H1905 C1897 0.960 . S
H1906 C1898 0.930 . S
H1907 C1899 0.929 . S
H1908 C1916 0.929 . S
H1909 C1918 0.930 . S
H1910 C1920 0.930 . S
H1911 C1923 0.929 . S
H1912 C1926 0.930 . S
H1913 C1928 0.960 . S
H1914 C1928 0.960 . S
H1915 C1928 0.960 . S
C1916 H1908 0.929 . S
C1916 C1917 1.377 . S
C1916 C1918 1.384 . S
C1917 C1916 1.377 . S
C1917 C1923 1.390 . S
C1918 H1909 0.930 . S
C1918 C1916 1.384 . S
C1918 C1919 1.372 . S
C1919 C1918 1.372 . S
C1919 C1920 1.400 . S
C1919 C1924 1.490 . S
C1920 H1910 0.930 . S
C1920 C1919 1.400 . S
C1920 C1923 1.386 . S
H1921 C1937 0.930 . S
H1922 C1938 0.931 . S
C1923 H1911 0.929 . S
C1923 C1917 1.390 . S
C1923 C1920 1.386 . S
C1924 C1919 1.490 . S
C1924 C1926 1.395 . S
C1924 C1927 1.403 . S
H1925 C1931 0.930 . S
C1926 H1912 0.930 . S
C1926 C1924 1.395 . S
C1926 C1929 1.403 . S
C1927 C1924 1.403 . S
C1927 C1928 1.524 . S
C1927 C1931 1.400 . S
C1928 H1913 0.960 . S
C1928 H1914 0.960 . S
C1928 H1915 0.960 . S
C1928 C1927 1.524 . S
C1929 C1926 1.403 . S
C1929 C1930 1.392 . S
C1929 C1933 1.495 . S
C1930 C1929 1.392 . S
C1930 C1931 1.385 . S
C1930 C1932 1.478 . S
C1931 H1925 0.930 . S
C1931 C1927 1.400 . S
C1931 C1930 1.385 . S
C1932 C1930 1.478 . S
C1932 C1934 1.381 . S
C1932 C1938 1.383 . S
C1933 C1929 1.495 . S
C1933 H1939 0.959 . S
C1933 H1940 0.961 . S
C1933 H1941 0.960 . S
C1934 C1932 1.381 . S
C1934 C1935 1.394 . S
C1934 H1942 0.930 . S
C1935 C1934 1.394 . S
C1935 C1936 1.383 . S
C1935 H1943 0.929 . S
C1936 C1935 1.383 . S
C1936 C1937 1.377 . S
C1937 H1921 0.930 . S
C1937 C1936 1.377 . S
C1937 C1938 1.379 . S
C1938 H1922 0.931 . S
C1938 C1932 1.383 . S
C1938 C1937 1.379 . S
H1939 C1933 0.959 . S
H1940 C1933 0.961 . S
H1941 C1933 0.960 . S
H1942 C1934 0.930 . S
H1943 C1935 0.929 . S
H1944 C1952 0.929 . S
H1945 C1954 0.930 . S
H1946 C1956 0.930 . S
H1947 C1959 0.929 . S
H1948 C1962 0.930 . S
H1949 C1964 0.960 . S
H1950 C1964 0.960 . S
H1951 C1964 0.960 . S
C1952 H1944 0.929 . S
C1952 C1953 1.377 . S
C1952 C1954 1.384 . S
C1953 C1952 1.377 . S
C1953 C1959 1.390 . S
C1954 H1945 0.930 . S
C1954 C1952 1.384 . S
C1954 C1955 1.372 . S
C1955 C1954 1.372 . S
C1955 C1956 1.400 . S
C1955 C1960 1.490 . S
C1956 H1946 0.930 . S
C1956 C1955 1.400 . S
C1956 C1959 1.386 . S
H1957 C1973 0.930 . S
H1958 C1974 0.931 . S
C1959 H1947 0.929 . S
C1959 C1953 1.390 . S
C1959 C1956 1.386 . S
C1960 C1955 1.490 . S
C1960 C1962 1.395 . S
C1960 C1963 1.403 1_545 S
H1961 C1967 0.930 . S
C1962 H1948 0.930 . S
C1962 C1960 1.395 . S
C1962 C1965 1.403 . S
C1963 C1960 1.403 1_565 S
C1963 C1964 1.524 . S
C1963 C1967 1.400 . S
C1964 H1949 0.960 . S
C1964 H1950 0.960 . S
C1964 H1951 0.960 . S
C1964 C1963 1.524 . S
C1965 C1962 1.403 . S
C1965 C1966 1.392 1_545 S
C1965 C1969 1.495 . S
C1966 C1965 1.392 1_565 S
C1966 C1967 1.385 . S
C1966 C1968 1.478 . S
C1967 H1961 0.930 . S
C1967 C1963 1.400 . S
C1967 C1966 1.385 . S
C1968 C1966 1.478 . S
C1968 C1970 1.381 . S
C1968 C1974 1.383 . S
C1969 C1965 1.495 . S
C1969 H1975 0.959 . S
C1969 H1976 0.961 . S
C1969 H1977 0.960 . S
C1970 C1968 1.381 . S
C1970 C1971 1.394 . S
C1970 H1978 0.930 . S
C1971 C1970 1.394 . S
C1971 C1972 1.383 . S
C1971 H1979 0.929 . S
C1972 C1971 1.383 . S
C1972 C1973 1.377 . S
C1973 H1957 0.930 . S
C1973 C1972 1.377 . S
C1973 C1974 1.379 . S
C1974 H1958 0.931 . S
C1974 C1968 1.383 . S
C1974 C1973 1.379 . S
H1975 C1969 0.959 . S
H1976 C1969 0.961 . S
H1977 C1969 0.960 . S
H1978 C1970 0.930 . S
H1979 C1971 0.929 . S
H1980 C1988 0.929 . S
H1981 C1990 0.930 . S
H1982 C1992 0.930 . S
H1983 C1995 0.929 . S
H1984 C1998 0.930 . S
H1985 C2000 0.960 . S
H1986 C2000 0.960 . S
H1987 C2000 0.960 1_655 S
C1988 H1980 0.929 . S
C1988 C1989 1.377 . S
C1988 C1990 1.384 . S
C1989 C1988 1.377 . S
C1989 C1995 1.390 . S
C1990 H1981 0.930 . S
C1990 C1988 1.384 . S
C1990 C1991 1.372 . S
C1991 C1990 1.372 . S
C1991 C1992 1.400 . S
C1991 C1996 1.490 . S
C1992 H1982 0.930 . S
C1992 C1991 1.400 . S
C1992 C1995 1.386 . S
H1993 C2009 0.930 . S
H1994 C2010 0.931 . S
C1995 H1983 0.929 . S
C1995 C1989 1.390 . S
C1995 C1992 1.386 . S
C1996 C1991 1.490 . S
C1996 C1998 1.395 . S
C1996 C1999 1.435 . S
H1997 C2003 0.930 . S
C1998 H1984 0.930 . S
C1998 C1996 1.395 . S
C1998 C2001 1.403 . S
C1999 C1996 1.435 . S
C1999 C2000 1.511 1_655 S
C1999 C2003 1.380 1_655 S
C2000 H1985 0.960 . S
C2000 H1986 0.960 . S
C2000 H1987 0.960 1_455 S
C2000 C1999 1.511 1_455 S
C2001 C1998 1.403 . S
C2001 C2002 1.392 1_655 S
C2001 C2005 1.495 . S
C2002 C2001 1.392 1_455 S
C2002 C2003 1.385 . S
C2002 C2004 1.478 . S
C2003 H1997 0.930 . S
C2003 C1999 1.380 1_455 S
C2003 C2002 1.385 . S
C2004 C2002 1.478 . S
C2004 C2006 1.381 . S
C2004 C2010 1.383 . S
C2005 C2001 1.495 . S
C2005 H2011 0.959 . S
C2005 H2012 0.961 . S
C2005 H2013 0.960 1_655 S
C2006 C2004 1.381 . S
C2006 C2007 1.394 . S
C2006 H2014 0.930 . S
C2007 C2006 1.394 . S
C2007 C2008 1.383 . S
C2007 H2015 0.929 . S
C2008 C2007 1.383 . S
C2008 C2009 1.377 . S
C2009 H1993 0.930 . S
C2009 C2008 1.377 . S
C2009 C2010 1.379 . S
C2010 H1994 0.931 . S
C2010 C2004 1.383 . S
C2010 C2009 1.379 . S
H2011 C2005 0.959 . S
H2012 C2005 0.961 . S
H2013 C2005 0.960 1_455 S
H2014 C2006 0.930 . S
H2015 C2007 0.929 . S
H2016 C2024 0.929 . S
H2017 C2026 0.930 . S
H2018 C2028 0.930 . S
H2019 C2031 0.929 . S
H2020 C2034 0.930 . S
H2021 C2036 0.960 . S
H2022 C2036 0.960 . S
H2023 C2036 0.960 . S
C2024 H2016 0.929 . S
C2024 C2025 1.377 . S
C2024 C2026 1.384 . S
C2025 C2024 1.377 . S
C2025 C2031 1.390 . S
C2026 H2017 0.930 . S
C2026 C2024 1.384 . S
C2026 C2027 1.372 . S
C2027 C2026 1.372 . S
C2027 C2028 1.400 . S
C2027 C2032 1.490 . S
C2028 H2018 0.930 . S
C2028 C2027 1.400 . S
C2028 C2031 1.386 . S
H2029 C2045 0.930 . S
H2030 C2046 0.931 . S
C2031 H2019 0.929 . S
C2031 C2025 1.390 . S
C2031 C2028 1.386 . S
C2032 C2027 1.490 . S
C2032 C2034 1.395 . S
C2032 C2035 1.403 . S
H2033 C2039 0.930 . S
C2034 H2020 0.930 . S
C2034 C2032 1.395 . S
C2034 C2037 1.403 . S
C2035 C2032 1.403 . S
C2035 C2036 1.524 . S
C2035 C2039 1.400 . S
C2036 H2021 0.960 . S
C2036 H2022 0.960 . S
C2036 H2023 0.960 . S
C2036 C2035 1.524 . S
C2037 C2034 1.403 . S
C2037 C2038 1.392 . S
C2037 C2041 1.495 . S
C2038 C2037 1.392 . S
C2038 C2039 1.385 . S
C2038 C2040 1.478 . S
C2039 H2033 0.930 . S
C2039 C2035 1.400 . S
C2039 C2038 1.385 . S
C2040 C2038 1.478 . S
C2040 C2042 1.381 . S
C2040 C2046 1.383 . S
C2041 C2037 1.495 . S
C2041 H2047 0.959 . S
C2041 H2048 0.961 . S
C2041 H2049 0.960 . S
C2042 C2040 1.381 . S
C2042 C2043 1.394 . S
C2042 H2050 0.930 . S
C2043 C2042 1.394 . S
C2043 C2044 1.383 . S
C2043 H2051 0.929 . S
C2044 C2043 1.383 . S
C2044 C2045 1.377 . S
C2045 H2029 0.930 . S
C2045 C2044 1.377 . S
C2045 C2046 1.379 . S
C2046 H2030 0.931 . S
C2046 C2040 1.383 . S
C2046 C2045 1.379 . S
H2047 C2041 0.959 . S
H2048 C2041 0.961 . S
H2049 C2041 0.960 . S
H2050 C2042 0.930 . S
H2051 C2043 0.929 . S
H2052 C2060 0.929 . S
H2053 C2062 0.930 . S
H2054 C2064 0.930 . S
H2055 C2067 0.929 . S
H2056 C2070 0.930 . S
H2057 C2072 0.960 . S
H2058 C2072 0.960 . S
H2059 C2072 0.960 . S
C2060 H2052 0.929 . S
C2060 C2061 1.377 . S
C2060 C2062 1.384 . S
C2061 C2060 1.377 . S
C2061 C2067 1.390 . S
C2062 H2053 0.930 . S
C2062 C2060 1.384 . S
C2062 C2063 1.372 . S
C2063 C2062 1.372 . S
C2063 C2064 1.400 . S
C2063 C2068 1.490 . S
C2064 H2054 0.930 . S
C2064 C2063 1.400 . S
C2064 C2067 1.386 . S
H2065 C2081 0.930 . S
H2066 C2082 0.931 . S
C2067 H2055 0.929 . S
C2067 C2061 1.390 . S
C2067 C2064 1.386 . S
C2068 C2063 1.490 . S
C2068 C2070 1.395 . S
C2068 C2071 1.403 . S
H2069 C2075 0.930 . S
C2070 H2056 0.930 . S
C2070 C2068 1.395 . S
C2070 C2073 1.403 . S
C2071 C2068 1.403 . S
C2071 C2072 1.524 . S
C2071 C2075 1.400 . S
C2072 H2057 0.960 . S
C2072 H2058 0.960 . S
C2072 H2059 0.960 . S
C2072 C2071 1.524 . S
C2073 C2070 1.403 . S
C2073 C2074 1.392 . S
C2073 C2077 1.495 . S
C2074 C2073 1.392 . S
C2074 C2075 1.385 . S
C2074 C2076 1.478 . S
C2075 H2069 0.930 . S
C2075 C2071 1.400 . S
C2075 C2074 1.385 . S
C2076 C2074 1.478 . S
C2076 C2078 1.381 . S
C2076 C2082 1.383 . S
C2077 C2073 1.495 . S
C2077 H2083 0.959 . S
C2077 H2084 0.961 . S
C2077 H2085 0.960 . S
C2078 C2076 1.381 . S
C2078 C2079 1.394 . S
C2078 H2086 0.930 . S
C2079 C2078 1.394 . S
C2079 C2080 1.383 . S
C2079 H2087 0.929 . S
C2080 C2079 1.383 . S
C2080 C2081 1.377 . S
C2081 H2065 0.930 . S
C2081 C2080 1.377 . S
C2081 C2082 1.379 . S
C2082 H2066 0.931 . S
C2082 C2076 1.383 . S
C2082 C2081 1.379 . S
H2083 C2077 0.959 . S
H2084 C2077 0.961 . S
H2085 C2077 0.960 . S
H2086 C2078 0.930 . S
H2087 C2079 0.929 . S
H2088 C2096 0.929 . S
H2089 C2098 0.930 . S
H2090 C2100 0.930 . S
H2091 C2103 0.929 . S
H2092 C2106 0.930 . S
H2093 C2108 0.960 . S
H2094 C2108 0.960 . S
H2095 C2108 0.960 . S
C2096 H2088 0.929 . S
C2096 C2097 1.377 . S
C2096 C2098 1.384 . S
C2097 C2096 1.377 . S
C2097 C2103 1.390 . S
C2098 H2089 0.930 . S
C2098 C2096 1.384 . S
C2098 C2099 1.372 . S
C2099 C2098 1.372 . S
C2099 C2100 1.400 . S
C2099 C2104 1.490 . S
C2100 H2090 0.930 . S
C2100 C2099 1.400 . S
C2100 C2103 1.386 . S
H2101 C2117 0.930 . S
H2102 C2118 0.931 . S
C2103 H2091 0.929 . S
C2103 C2097 1.390 . S
C2103 C2100 1.386 . S
C2104 C2099 1.490 . S
C2104 C2106 1.395 . S
C2104 C2107 1.403 . S
H2105 C2111 0.930 . S
C2106 H2092 0.930 . S
C2106 C2104 1.395 . S
C2106 C2109 1.403 . S
C2107 C2104 1.403 . S
C2107 C2108 1.524 . S
C2107 C2111 1.400 . S
C2108 H2093 0.960 . S
C2108 H2094 0.960 . S
C2108 H2095 0.960 . S
C2108 C2107 1.524 . S
C2109 C2106 1.403 . S
C2109 C2110 1.392 . S
C2109 C2113 1.495 . S
C2110 C2109 1.392 . S
C2110 C2111 1.385 . S
C2110 C2112 1.478 . S
C2111 H2105 0.930 . S
C2111 C2107 1.400 . S
C2111 C2110 1.385 . S
C2112 C2110 1.478 . S
C2112 C2114 1.381 . S
C2112 C2118 1.383 . S
C2113 C2109 1.495 . S
C2113 H2119 0.959 . S
C2113 H2120 0.961 . S
C2113 H2121 0.960 . S
C2114 C2112 1.381 . S
C2114 C2115 1.394 . S
C2114 H2122 0.930 . S
C2115 C2114 1.394 . S
C2115 C2116 1.383 . S
C2115 H2123 0.929 . S
C2116 C2115 1.383 . S
C2116 C2117 1.377 . S
C2117 H2101 0.930 . S
C2117 C2116 1.377 . S
C2117 C2118 1.379 . S
C2118 H2102 0.931 . S
C2118 C2112 1.383 . S
C2118 C2117 1.379 . S
H2119 C2113 0.959 . S
H2120 C2113 0.961 . S
H2121 C2113 0.960 . S
H2122 C2114 0.930 . S
H2123 C2115 0.929 . S
H2124 C2132 0.929 1_556 S
H2125 C2134 0.930 . S
H2126 C2136 0.930 . S
H2127 C2139 0.929 . S
H2128 C2142 0.930 . S
H2129 C2144 0.960 . S
H2130 C2144 0.960 . S
H2131 C2144 0.960 . S
C2132 H2124 0.929 1_554 S
C2132 C2133 1.377 . S
C2132 C2134 1.384 . S
C2133 C2132 1.377 . S
C2133 C2139 1.390 . S
C2134 H2125 0.930 . S
C2134 C2132 1.384 . S
C2134 C2135 1.372 . S
C2135 C2134 1.372 . S
C2135 C2136 1.400 . S
C2135 C2140 1.490 . S
C2136 H2126 0.930 . S
C2136 C2135 1.400 . S
C2136 C2139 1.386 . S
H2137 C2153 0.930 . S
H2138 C2154 0.931 . S
C2139 H2127 0.929 . S
C2139 C2133 1.390 . S
C2139 C2136 1.386 . S
C2140 C2135 1.490 . S
C2140 C2142 1.395 . S
C2140 C2143 1.403 . S
H2141 C2147 0.930 . S
C2142 H2128 0.930 . S
C2142 C2140 1.395 . S
C2142 C2145 1.403 . S
C2143 C2140 1.403 . S
C2143 C2144 1.524 . S
C2143 C2147 1.400 . S
C2144 H2129 0.960 . S
C2144 H2130 0.960 . S
C2144 H2131 0.960 . S
C2144 C2143 1.524 . S
C2145 C2142 1.403 . S
C2145 C2146 1.392 . S
C2145 C2149 1.495 . S
C2146 C2145 1.392 . S
C2146 C2147 1.385 . S
C2146 C2148 1.478 . S
C2147 H2141 0.930 . S
C2147 C2143 1.400 . S
C2147 C2146 1.385 . S
C2148 C2146 1.478 . S
C2148 C2150 1.381 . S
C2148 C2154 1.383 . S
C2149 C2145 1.495 . S
C2149 H2155 0.959 . S
C2149 H2156 0.961 . S
C2149 H2157 0.960 . S
C2150 C2148 1.381 . S
C2150 C2151 1.394 . S
C2150 H2158 0.930 . S
C2151 C2150 1.394 . S
C2151 C2152 1.383 . S
C2151 H2159 0.929 . S
C2152 C2151 1.383 . S
C2152 C2153 1.377 . S
C2153 H2137 0.930 . S
C2153 C2152 1.377 . S
C2153 C2154 1.379 . S
C2154 H2138 0.931 . S
C2154 C2148 1.383 . S
C2154 C2153 1.379 . S
H2155 C2149 0.959 . S
H2156 C2149 0.961 . S
H2157 C2149 0.960 . S
H2158 C2150 0.930 . S
H2159 C2151 0.929 . S
H2160 C2168 0.929 . S
H2161 C2170 0.930 . S
H2162 C2172 0.930 . S
H2163 C2175 0.929 . S
H2164 C2178 0.930 . S
H2165 C2180 0.960 . S
H2166 C2180 0.960 . S
H2167 C2180 0.960 . S
C2168 H2160 0.929 . S
C2168 C2169 1.377 . S
C2168 C2170 1.384 . S
C2169 C2168 1.377 . S
C2169 C2175 1.390 . S
C2170 H2161 0.930 . S
C2170 C2168 1.384 . S
C2170 C2171 1.372 . S
C2171 C2170 1.372 . S
C2171 C2172 1.400 . S
C2171 C2176 1.490 . S
C2172 H2162 0.930 . S
C2172 C2171 1.400 . S
C2172 C2175 1.386 . S
H2173 C2189 0.930 . S
H2174 C2190 0.931 . S
C2175 H2163 0.929 . S
C2175 C2169 1.390 . S
C2175 C2172 1.386 . S
C2176 C2171 1.490 . S
C2176 C2178 1.395 . S
C2176 C2179 1.403 . S
H2177 C2183 0.930 . S
C2178 H2164 0.930 . S
C2178 C2176 1.395 . S
C2178 C2181 1.403 . S
C2179 C2176 1.403 . S
C2179 C2180 1.524 . S
C2179 C2183 1.400 . S
C2180 H2165 0.960 . S
C2180 H2166 0.960 . S
C2180 H2167 0.960 . S
C2180 C2179 1.524 . S
C2181 C2178 1.403 . S
C2181 C2182 1.392 . S
C2181 C2185 1.495 . S
C2182 C2181 1.392 . S
C2182 C2183 1.385 . S
C2182 C2184 1.478 . S
C2183 H2177 0.930 . S
C2183 C2179 1.400 . S
C2183 C2182 1.385 . S
C2184 C2182 1.478 . S
C2184 C2186 1.381 . S
C2184 C2190 1.383 . S
C2185 C2181 1.495 . S
C2185 H2191 0.959 . S
C2185 H2192 0.961 . S
C2185 H2193 0.960 . S
C2186 C2184 1.381 . S
C2186 C2187 1.394 . S
C2186 H2194 0.930 . S
C2187 C2186 1.394 . S
C2187 C2188 1.383 . S
C2187 H2195 0.929 . S
C2188 C2187 1.383 . S
C2188 C2189 1.377 . S
C2189 H2173 0.930 . S
C2189 C2188 1.377 . S
C2189 C2190 1.379 . S
C2190 H2174 0.931 . S
C2190 C2184 1.383 . S
C2190 C2189 1.379 . S
H2191 C2185 0.959 . S
H2192 C2185 0.961 . S
H2193 C2185 0.960 . S
H2194 C2186 0.930 . S
H2195 C2187 0.929 . S
H2196 C2204 0.929 . S
H2197 C2206 0.930 . S
H2198 C2208 0.930 . S
H2199 C2211 0.929 . S
H2200 C2214 0.930 . S
H2201 C2216 0.960 . S
H2202 C2216 0.960 . S
H2203 C2216 0.960 . S
C2204 H2196 0.929 . S
C2204 C2205 1.377 . S
C2204 C2206 1.384 . S
C2205 C2204 1.377 . S
C2205 C2211 1.390 . S
C2206 H2197 0.930 . S
C2206 C2204 1.384 . S
C2206 C2207 1.372 . S
C2207 C2206 1.372 . S
C2207 C2208 1.400 . S
C2207 C2212 1.490 . S
C2208 H2198 0.930 . S
C2208 C2207 1.400 . S
C2208 C2211 1.386 . S
H2209 C2225 0.930 . S
H2210 C2226 0.931 . S
C2211 H2199 0.929 . S
C2211 C2205 1.390 . S
C2211 C2208 1.386 . S
C2212 C2207 1.490 . S
C2212 C2214 1.395 . S
C2212 C2215 1.403 . S
H2213 C2219 0.930 . S
C2214 H2200 0.930 . S
C2214 C2212 1.395 . S
C2214 C2217 1.403 . S
C2215 C2212 1.403 . S
C2215 C2216 1.524 . S
C2215 C2219 1.400 . S
C2216 H2201 0.960 . S
C2216 H2202 0.960 . S
C2216 H2203 0.960 . S
C2216 C2215 1.524 . S
C2217 C2214 1.403 . S
C2217 C2218 1.392 . S
C2217 C2221 1.495 . S
C2218 C2217 1.392 . S
C2218 C2219 1.385 . S
C2218 C2220 1.478 . S
C2219 H2213 0.930 . S
C2219 C2215 1.400 . S
C2219 C2218 1.385 . S
C2220 C2218 1.478 . S
C2220 C2222 1.381 . S
C2220 C2226 1.383 . S
C2221 C2217 1.495 . S
C2221 H2227 0.959 . S
C2221 H2228 0.961 . S
C2221 H2229 0.960 . S
C2222 C2220 1.381 . S
C2222 C2223 1.394 . S
C2222 H2230 0.930 . S
C2223 C2222 1.394 . S
C2223 C2224 1.383 . S
C2223 H2231 0.929 . S
C2224 C2223 1.383 . S
C2224 C2225 1.377 . S
C2225 H2209 0.930 . S
C2225 C2224 1.377 . S
C2225 C2226 1.379 . S
C2226 H2210 0.931 . S
C2226 C2220 1.383 . S
C2226 C2225 1.379 . S
H2227 C2221 0.959 . S
H2228 C2221 0.961 . S
H2229 C2221 0.960 . S
H2230 C2222 0.930 . S
H2231 C2223 0.929 . S
H2232 C2240 0.929 . S
H2233 C2242 0.930 . S
H2234 C2244 0.930 . S
H2235 C2247 0.929 . S
H2236 C2250 0.930 . S
H2237 C2252 0.960 . S
H2238 C2252 0.960 . S
H2239 C2252 0.960 . S
C2240 H2232 0.929 . S
C2240 C2241 1.377 . S
C2240 C2242 1.384 . S
C2241 C2240 1.377 . S
C2241 C2247 1.390 . S
C2242 H2233 0.930 . S
C2242 C2240 1.384 . S
C2242 C2243 1.372 . S
C2243 C2242 1.372 . S
C2243 C2244 1.400 . S
C2243 C2248 1.490 . S
C2244 H2234 0.930 . S
C2244 C2243 1.400 . S
C2244 C2247 1.386 . S
H2245 C2261 0.930 . S
H2246 C2262 0.931 . S
C2247 H2235 0.929 . S
C2247 C2241 1.390 . S
C2247 C2244 1.386 . S
C2248 C2243 1.490 . S
C2248 C2250 1.395 . S
C2248 C2251 1.403 . S
H2249 C2255 0.930 . S
C2250 H2236 0.930 . S
C2250 C2248 1.395 . S
C2250 C2253 1.403 . S
C2251 C2248 1.403 . S
C2251 C2252 1.524 . S
C2251 C2255 1.400 . S
C2252 H2237 0.960 . S
C2252 H2238 0.960 . S
C2252 H2239 0.960 . S
C2252 C2251 1.524 . S
C2253 C2250 1.403 . S
C2253 C2254 1.392 . S
C2253 C2257 1.495 . S
C2254 C2253 1.392 . S
C2254 C2255 1.385 . S
C2254 C2256 1.478 . S
C2255 H2249 0.930 . S
C2255 C2251 1.400 . S
C2255 C2254 1.385 . S
C2256 C2254 1.478 . S
C2256 C2258 1.381 . S
C2256 C2262 1.383 . S
C2257 C2253 1.495 . S
C2257 H2263 0.959 . S
C2257 H2264 0.961 . S
C2257 H2265 0.960 . S
C2258 C2256 1.381 . S
C2258 C2259 1.394 . S
C2258 H2266 0.930 . S
C2259 C2258 1.394 . S
C2259 C2260 1.383 . S
C2259 H2267 0.929 . S
C2260 C2259 1.383 . S
C2260 C2261 1.377 . S
C2261 H2245 0.930 . S
C2261 C2260 1.377 . S
C2261 C2262 1.379 . S
C2262 H2246 0.931 . S
C2262 C2256 1.383 . S
C2262 C2261 1.379 . S
H2263 C2257 0.959 . S
H2264 C2257 0.961 . S
H2265 C2257 0.960 . S
H2266 C2258 0.930 . S
H2267 C2259 0.929 . S
H2268 C2276 0.929 . S
H2269 C2278 0.930 . S
H2270 C2280 0.930 . S
H2271 C2283 0.929 . S
H2272 C2286 0.930 . S
H2273 C2288 0.960 . S
H2274 C2288 0.960 . S
H2275 C2288 0.960 . S
C2276 H2268 0.929 . S
C2276 C2277 1.377 . S
C2276 C2278 1.384 . S
C2277 C2276 1.377 . S
C2277 C2283 1.390 . S
C2278 H2269 0.930 . S
C2278 C2276 1.384 . S
C2278 C2279 1.372 . S
C2279 C2278 1.372 . S
C2279 C2280 1.400 . S
C2279 C2284 1.490 . S
C2280 H2270 0.930 . S
C2280 C2279 1.400 . S
C2280 C2283 1.386 . S
H2281 C2297 0.930 . S
H2282 C2298 0.931 . S
C2283 H2271 0.929 . S
C2283 C2277 1.390 . S
C2283 C2280 1.386 . S
C2284 C2279 1.490 . S
C2284 C2286 1.395 . S
C2284 C2287 1.403 . S
H2285 C2291 0.930 . S
C2286 H2272 0.930 . S
C2286 C2284 1.395 . S
C2286 C2289 1.403 . S
C2287 C2284 1.403 . S
C2287 C2288 1.524 . S
C2287 C2291 1.400 . S
C2288 H2273 0.960 . S
C2288 H2274 0.960 . S
C2288 H2275 0.960 . S
C2288 C2287 1.524 . S
C2289 C2286 1.403 . S
C2289 C2290 1.392 . S
C2289 C2293 1.495 . S
C2290 C2289 1.392 . S
C2290 C2291 1.385 . S
C2290 C2292 1.478 . S
C2291 H2285 0.930 . S
C2291 C2287 1.400 . S
C2291 C2290 1.385 . S
C2292 C2290 1.478 . S
C2292 C2294 1.381 . S
C2292 C2298 1.383 . S
C2293 C2289 1.495 . S
C2293 H2299 0.959 . S
C2293 H2300 0.961 . S
C2293 H2301 0.960 . S
C2294 C2292 1.381 . S
C2294 C2295 1.394 . S
C2294 H2302 0.930 . S
C2295 C2294 1.394 . S
C2295 C2296 1.383 . S
C2295 H2303 0.929 . S
C2296 C2295 1.383 . S
C2296 C2297 1.377 . S
C2297 H2281 0.930 . S
C2297 C2296 1.377 . S
C2297 C2298 1.379 . S
C2298 H2282 0.931 . S
C2298 C2292 1.383 . S
C2298 C2297 1.379 . S
H2299 C2293 0.959 . S
H2300 C2293 0.961 . S
H2301 C2293 0.960 . S
H2302 C2294 0.930 . S
H2303 C2295 0.929 . S
H2304 C2312 0.929 . S
H2305 C2314 0.930 . S
H2306 C2316 0.930 . S
H2307 C2319 0.929 1_554 S
H2308 C2322 0.930 . S
H2309 C2324 0.960 . S
H2310 C2324 0.960 . S
H2311 C2324 0.960 . S
C2312 H2304 0.929 . S
C2312 C2313 1.377 . S
C2312 C2314 1.384 . S
C2313 C2312 1.377 . S
C2313 C2319 1.390 . S
C2314 H2305 0.930 . S
C2314 C2312 1.384 . S
C2314 C2315 1.372 . S
C2315 C2314 1.372 . S
C2315 C2316 1.400 . S
C2315 C2320 1.490 . S
C2316 H2306 0.930 . S
C2316 C2315 1.400 . S
C2316 C2319 1.386 . S
H2317 C2333 0.930 . S
H2318 C2334 0.931 . S
C2319 H2307 0.929 1_556 S
C2319 C2313 1.390 . S
C2319 C2316 1.386 . S
C2320 C2315 1.490 . S
C2320 C2322 1.395 . S
C2320 C2323 1.403 . S
H2321 C2327 0.930 . S
C2322 H2308 0.930 . S
C2322 C2320 1.395 . S
C2322 C2325 1.403 . S
C2323 C2320 1.403 . S
C2323 C2324 1.524 . S
C2323 C2327 1.400 . S
C2324 H2309 0.960 . S
C2324 H2310 0.960 . S
C2324 H2311 0.960 . S
C2324 C2323 1.524 . S
C2325 C2322 1.403 . S
C2325 C2326 1.392 . S
C2325 C2329 1.495 . S
C2326 C2325 1.392 . S
C2326 C2327 1.385 . S
C2326 C2328 1.478 . S
C2327 H2321 0.930 . S
C2327 C2323 1.400 . S
C2327 C2326 1.385 . S
C2328 C2326 1.478 . S
C2328 C2330 1.381 . S
C2328 C2334 1.383 . S
C2329 C2325 1.495 . S
C2329 H2335 0.959 . S
C2329 H2336 0.961 . S
C2329 H2337 0.960 . S
C2330 C2328 1.381 . S
C2330 C2331 1.394 . S
C2330 H2338 0.930 . S
C2331 C2330 1.394 . S
C2331 C2332 1.383 . S
C2331 H2339 0.929 . S
C2332 C2331 1.383 . S
C2332 C2333 1.377 . S
C2333 H2317 0.930 . S
C2333 C2332 1.377 . S
C2333 C2334 1.379 . S
C2334 H2318 0.931 . S
C2334 C2328 1.383 . S
C2334 C2333 1.379 . S
H2335 C2329 0.959 . S
H2336 C2329 0.961 . S
H2337 C2329 0.960 . S
H2338 C2330 0.930 . S
H2339 C2331 0.929 . S
H2340 C2348 0.929 . S
H2341 C2350 0.930 . S
H2342 C2352 0.930 . S
H2343 C2355 0.929 . S
H2344 C2358 0.930 . S
H2345 C2360 0.960 . S
H2346 C2360 0.960 . S
H2347 C2360 0.960 . S
C2348 H2340 0.929 . S
C2348 C2349 1.377 . S
C2348 C2350 1.384 . S
C2349 C2348 1.377 . S
C2349 C2355 1.390 . S
C2350 H2341 0.930 . S
C2350 C2348 1.384 . S
C2350 C2351 1.372 . S
C2351 C2350 1.372 . S
C2351 C2352 1.400 . S
C2351 C2356 1.490 . S
C2352 H2342 0.930 . S
C2352 C2351 1.400 . S
C2352 C2355 1.386 . S
H2353 C2369 0.930 . S
H2354 C2370 0.931 . S
C2355 H2343 0.929 . S
C2355 C2349 1.390 . S
C2355 C2352 1.386 . S
C2356 C2351 1.490 . S
C2356 C2358 1.395 . S
C2356 C2359 1.403 . S
H2357 C2363 0.930 . S
C2358 H2344 0.930 . S
C2358 C2356 1.395 . S
C2358 C2361 1.403 . S
C2359 C2356 1.403 . S
C2359 C2360 1.524 . S
C2359 C2363 1.400 . S
C2360 H2345 0.960 . S
C2360 H2346 0.960 . S
C2360 H2347 0.960 . S
C2360 C2359 1.524 . S
C2361 C2358 1.403 . S
C2361 C2362 1.392 . S
C2361 C2365 1.495 . S
C2362 C2361 1.392 . S
C2362 C2363 1.385 . S
C2362 C2364 1.478 . S
C2363 H2357 0.930 . S
C2363 C2359 1.400 . S
C2363 C2362 1.385 . S
C2364 C2362 1.478 . S
C2364 C2366 1.381 . S
C2364 C2370 1.383 . S
C2365 C2361 1.495 . S
C2365 H2371 0.959 . S
C2365 H2372 0.961 . S
C2365 H2373 0.960 . S
C2366 C2364 1.381 . S
C2366 C2367 1.394 . S
C2366 H2374 0.930 . S
C2367 C2366 1.394 . S
C2367 C2368 1.383 . S
C2367 H2375 0.929 . S
C2368 C2367 1.383 . S
C2368 C2369 1.377 . S
C2369 H2353 0.930 . S
C2369 C2368 1.377 . S
C2369 C2370 1.379 . S
C2370 H2354 0.931 . S
C2370 C2364 1.383 . S
C2370 C2369 1.379 . S
H2371 C2365 0.959 . S
H2372 C2365 0.961 . S
H2373 C2365 0.960 . S
H2374 C2366 0.930 . S
H2375 C2367 0.929 . S
H2376 C2384 0.929 . S
H2377 C2386 0.930 . S
H2378 C2388 0.930 . S
H2379 C2391 0.929 . S
H2380 C2394 0.930 . S
H2381 C2396 0.960 . S
H2382 C2396 0.960 . S
H2383 C2396 0.960 . S
C2384 H2376 0.929 . S
C2384 C2385 1.377 . S
C2384 C2386 1.384 . S
C2385 C2384 1.377 . S
C2385 C2391 1.390 . S
C2386 H2377 0.930 . S
C2386 C2384 1.384 . S
C2386 C2387 1.372 . S
C2387 C2386 1.372 . S
C2387 C2388 1.400 . S
C2387 C2392 1.490 . S
C2388 H2378 0.930 . S
C2388 C2387 1.400 . S
C2388 C2391 1.386 . S
H2389 C2405 0.930 . S
H2390 C2406 0.931 . S
C2391 H2379 0.929 . S
C2391 C2385 1.390 . S
C2391 C2388 1.386 . S
C2392 C2387 1.490 . S
C2392 C2394 1.395 . S
C2392 C2395 1.403 . S
H2393 C2399 0.930 . S
C2394 H2380 0.930 . S
C2394 C2392 1.395 . S
C2394 C2397 1.403 . S
C2395 C2392 1.403 . S
C2395 C2396 1.524 . S
C2395 C2399 1.400 . S
C2396 H2381 0.960 . S
C2396 H2382 0.960 . S
C2396 H2383 0.960 . S
C2396 C2395 1.524 . S
C2397 C2394 1.403 . S
C2397 C2398 1.392 . S
C2397 C2401 1.495 . S
C2398 C2397 1.392 . S
C2398 C2399 1.385 . S
C2398 C2400 1.478 . S
C2399 H2393 0.930 . S
C2399 C2395 1.400 . S
C2399 C2398 1.385 . S
C2400 C2398 1.478 . S
C2400 C2402 1.381 . S
C2400 C2406 1.383 . S
C2401 C2397 1.495 . S
C2401 H2407 0.959 . S
C2401 H2408 0.961 . S
C2401 H2409 0.960 . S
C2402 C2400 1.381 . S
C2402 C2403 1.394 . S
C2402 H2410 0.930 . S
C2403 C2402 1.394 . S
C2403 C2404 1.383 . S
C2403 H2411 0.929 . S
C2404 C2403 1.383 . S
C2404 C2405 1.377 . S
C2405 H2389 0.930 . S
C2405 C2404 1.377 . S
C2405 C2406 1.379 . S
C2406 H2390 0.931 . S
C2406 C2400 1.383 . S
C2406 C2405 1.379 . S
H2407 C2401 0.959 . S
H2408 C2401 0.961 . S
H2409 C2401 0.960 . S
H2410 C2402 0.930 . S
H2411 C2403 0.929 . S
H2412 C2420 0.929 . S
H2413 C2422 0.930 . S
H2414 C2424 0.930 . S
H2415 C2427 0.929 . S
H2416 C2430 0.930 . S
H2417 C2432 0.960 . S
H2418 C2432 0.960 . S
H2419 C2432 0.960 . S
C2420 H2412 0.929 . S
C2420 C2421 1.377 . S
C2420 C2422 1.384 . S
C2421 C2420 1.377 . S
C2421 C2427 1.390 . S
C2422 H2413 0.930 . S
C2422 C2420 1.384 . S
C2422 C2423 1.372 . S
C2423 C2422 1.372 . S
C2423 C2424 1.400 . S
C2423 C2428 1.490 . S
C2424 H2414 0.930 . S
C2424 C2423 1.400 . S
C2424 C2427 1.386 . S
H2425 C2441 0.930 . S
H2426 C2442 0.931 . S
C2427 H2415 0.929 . S
C2427 C2421 1.390 . S
C2427 C2424 1.386 . S
C2428 C2423 1.490 . S
C2428 C2430 1.395 . S
C2428 C2431 1.403 . S
H2429 C2435 0.930 . S
C2430 H2416 0.930 . S
C2430 C2428 1.395 . S
C2430 C2433 1.403 . S
C2431 C2428 1.403 . S
C2431 C2432 1.524 . S
C2431 C2435 1.400 . S
C2432 H2417 0.960 . S
C2432 H2418 0.960 . S
C2432 H2419 0.960 . S
C2432 C2431 1.524 . S
C2433 C2430 1.403 . S
C2433 C2434 1.392 . S
C2433 C2437 1.495 . S
C2434 C2433 1.392 . S
C2434 C2435 1.385 . S
C2434 C2436 1.478 . S
C2435 H2429 0.930 . S
C2435 C2431 1.400 . S
C2435 C2434 1.385 . S
C2436 C2434 1.478 . S
C2436 C2438 1.381 . S
C2436 C2442 1.383 . S
C2437 C2433 1.495 . S
C2437 H2443 0.959 . S
C2437 H2444 0.961 . S
C2437 H2445 0.960 . S
C2438 C2436 1.381 . S
C2438 C2439 1.394 . S
C2438 H2446 0.930 . S
C2439 C2438 1.394 . S
C2439 C2440 1.383 . S
C2439 H2447 0.929 . S
C2440 C2439 1.383 . S
C2440 C2441 1.377 . S
C2441 H2425 0.930 . S
C2441 C2440 1.377 . S
C2441 C2442 1.379 . S
C2442 H2426 0.931 . S
C2442 C2436 1.383 . S
C2442 C2441 1.379 . S
H2443 C2437 0.959 . S
H2444 C2437 0.961 . S
H2445 C2437 0.960 . S
H2446 C2438 0.930 . S
H2447 C2439 0.929 . S
H2448 C2456 0.929 . S
H2449 C2458 0.930 . S
H2450 C2460 0.930 . S
H2451 C2463 0.929 . S
H2452 C2466 0.930 . S
H2453 C2468 0.960 . S
H2454 C2468 0.960 . S
H2455 C2468 0.960 . S
C2456 H2448 0.929 . S
C2456 C2457 1.377 . S
C2456 C2458 1.384 . S
C2457 C2456 1.377 . S
C2457 C2463 1.390 . S
C2458 H2449 0.930 . S
C2458 C2456 1.384 . S
C2458 C2459 1.372 . S
C2459 C2458 1.372 . S
C2459 C2460 1.400 . S
C2459 C2464 1.490 . S
C2460 H2450 0.930 . S
C2460 C2459 1.400 . S
C2460 C2463 1.386 . S
H2461 C2477 0.930 . S
H2462 C2478 0.931 . S
C2463 H2451 0.929 . S
C2463 C2457 1.390 . S
C2463 C2460 1.386 . S
C2464 C2459 1.490 . S
C2464 C2466 1.395 . S
C2464 C2467 1.403 . S
H2465 C2471 0.930 . S
C2466 H2452 0.930 . S
C2466 C2464 1.395 . S
C2466 C2469 1.403 . S
C2467 C2464 1.403 . S
C2467 C2468 1.524 . S
C2467 C2471 1.400 . S
C2468 H2453 0.960 . S
C2468 H2454 0.960 . S
C2468 H2455 0.960 . S
C2468 C2467 1.524 . S
C2469 C2466 1.403 . S
C2469 C2470 1.392 . S
C2469 C2473 1.495 . S
C2470 C2469 1.392 . S
C2470 C2471 1.385 . S
C2470 C2472 1.478 . S
C2471 H2465 0.930 . S
C2471 C2467 1.400 . S
C2471 C2470 1.385 . S
C2472 C2470 1.478 . S
C2472 C2474 1.381 . S
C2472 C2478 1.383 . S
C2473 C2469 1.495 . S
C2473 H2479 0.959 . S
C2473 H2480 0.961 . S
C2473 H2481 0.960 . S
C2474 C2472 1.381 . S
C2474 C2475 1.394 . S
C2474 H2482 0.930 . S
C2475 C2474 1.394 . S
C2475 C2476 1.383 . S
C2475 H2483 0.929 . S
C2476 C2475 1.383 . S
C2476 C2477 1.377 . S
C2477 H2461 0.930 . S
C2477 C2476 1.377 . S
C2477 C2478 1.379 . S
C2478 H2462 0.931 . S
C2478 C2472 1.383 . S
C2478 C2477 1.379 . S
H2479 C2473 0.959 . S
H2480 C2473 0.961 . S
H2481 C2473 0.960 . S
H2482 C2474 0.930 . S
H2483 C2475 0.929 . S
H2484 C2492 0.929 . S
H2485 C2494 0.930 . S
H2486 C2496 0.930 . S
H2487 C2499 0.929 . S
H2488 C2502 0.930 . S
H2489 C2504 0.960 . S
H2490 C2504 0.960 . S
H2491 C2504 0.960 . S
C2492 H2484 0.929 . S
C2492 C2493 1.377 . S
C2492 C2494 1.384 . S
C2493 C2492 1.377 . S
C2493 C2499 1.390 . S
C2494 H2485 0.930 . S
C2494 C2492 1.384 . S
C2494 C2495 1.372 . S
C2495 C2494 1.372 . S
C2495 C2496 1.400 . S
C2495 C2500 1.490 . S
C2496 H2486 0.930 . S
C2496 C2495 1.400 . S
C2496 C2499 1.386 . S
H2497 C2513 0.930 . S
H2498 C2514 0.931 . S
C2499 H2487 0.929 . S
C2499 C2493 1.390 . S
C2499 C2496 1.386 . S
C2500 C2495 1.490 . S
C2500 C2502 1.395 . S
C2500 C2503 1.403 . S
H2501 C2507 0.930 . S
C2502 H2488 0.930 . S
C2502 C2500 1.395 . S
C2502 C2505 1.403 . S
C2503 C2500 1.403 . S
C2503 C2504 1.524 . S
C2503 C2507 1.400 . S
C2504 H2489 0.960 . S
C2504 H2490 0.960 . S
C2504 H2491 0.960 . S
C2504 C2503 1.524 . S
C2505 C2502 1.403 . S
C2505 C2506 1.392 . S
C2505 C2509 1.495 . S
C2506 C2505 1.392 . S
C2506 C2507 1.385 . S
C2506 C2508 1.478 . S
C2507 H2501 0.930 . S
C2507 C2503 1.400 . S
C2507 C2506 1.385 . S
C2508 C2506 1.478 . S
C2508 C2510 1.381 . S
C2508 C2514 1.383 . S
C2509 C2505 1.495 . S
C2509 H2515 0.959 . S
C2509 H2516 0.961 . S
C2509 H2517 0.960 . S
C2510 C2508 1.381 . S
C2510 C2511 1.394 . S
C2510 H2518 0.930 . S
C2511 C2510 1.394 . S
C2511 C2512 1.383 . S
C2511 H2519 0.929 . S
C2512 C2511 1.383 . S
C2512 C2513 1.377 . S
C2513 H2497 0.930 . S
C2513 C2512 1.377 . S
C2513 C2514 1.379 . S
C2514 H2498 0.931 . S
C2514 C2508 1.383 . S
C2514 C2513 1.379 . S
H2515 C2509 0.959 . S
H2516 C2509 0.961 . S
H2517 C2509 0.960 . S
H2518 C2510 0.930 . S
H2519 C2511 0.929 . S
H2520 C2528 0.929 . S
H2521 C2530 0.930 . S
H2522 C2532 0.930 . S
H2523 C2535 0.929 . S
H2524 C2538 0.930 . S
H2525 C2540 0.960 . S
H2526 C2540 0.960 . S
H2527 C2540 0.960 . S
C2528 H2520 0.929 . S
C2528 C2529 1.377 . S
C2528 C2530 1.384 . S
C2529 C2528 1.377 . S
C2529 C2535 1.390 . S
C2530 H2521 0.930 . S
C2530 C2528 1.384 . S
C2530 C2531 1.372 . S
C2531 C2530 1.372 . S
C2531 C2532 1.400 . S
C2531 C2536 1.490 . S
C2532 H2522 0.930 . S
C2532 C2531 1.400 . S
C2532 C2535 1.386 . S
H2533 C2549 0.930 . S
H2534 C2550 0.931 . S
C2535 H2523 0.929 . S
C2535 C2529 1.390 . S
C2535 C2532 1.386 . S
C2536 C2531 1.490 . S
C2536 C2538 1.395 . S
C2536 C2539 1.403 . S
H2537 C2543 0.930 . S
C2538 H2524 0.930 . S
C2538 C2536 1.395 . S
C2538 C2541 1.403 . S
C2539 C2536 1.403 . S
C2539 C2540 1.524 . S
C2539 C2543 1.400 . S
C2540 H2525 0.960 . S
C2540 H2526 0.960 . S
C2540 H2527 0.960 . S
C2540 C2539 1.524 . S
C2541 C2538 1.403 . S
C2541 C2542 1.392 . S
C2541 C2545 1.495 . S
C2542 C2541 1.392 . S
C2542 C2543 1.385 . S
C2542 C2544 1.478 . S
C2543 H2537 0.930 . S
C2543 C2539 1.400 . S
C2543 C2542 1.385 . S
C2544 C2542 1.478 . S
C2544 C2546 1.381 . S
C2544 C2550 1.383 . S
C2545 C2541 1.495 . S
C2545 H2551 0.959 . S
C2545 H2552 0.961 . S
C2545 H2553 0.960 . S
C2546 C2544 1.381 . S
C2546 C2547 1.394 . S
C2546 H2554 0.930 . S
C2547 C2546 1.394 . S
C2547 C2548 1.383 . S
C2547 H2555 0.929 . S
C2548 C2547 1.383 . S
C2548 C2549 1.377 . S
C2549 H2533 0.930 . S
C2549 C2548 1.377 . S
C2549 C2550 1.379 . S
C2550 H2534 0.931 . S
C2550 C2544 1.383 . S
C2550 C2549 1.379 . S
H2551 C2545 0.959 . S
H2552 C2545 0.961 . S
H2553 C2545 0.960 . S
H2554 C2546 0.930 . S
H2555 C2547 0.929 . S
H2556 C2564 0.929 . S
H2557 C2566 0.930 . S
H2558 C2568 0.930 . S
H2559 C2571 0.929 . S
H2560 C2574 0.930 . S
H2561 C2576 0.960 . S
H2562 C2576 0.960 . S
H2563 C2576 0.960 . S
C2564 H2556 0.929 . S
C2564 C2565 1.377 . S
C2564 C2566 1.384 . S
C2565 C2564 1.377 . S
C2565 C2571 1.390 . S
C2566 H2557 0.930 . S
C2566 C2564 1.384 . S
C2566 C2567 1.372 . S
C2567 C2566 1.372 . S
C2567 C2568 1.400 . S
C2567 C2572 1.490 . S
C2568 H2558 0.930 . S
C2568 C2567 1.400 . S
C2568 C2571 1.386 . S
H2569 C2585 0.930 . S
H2570 C2586 0.931 . S
C2571 H2559 0.929 . S
C2571 C2565 1.390 . S
C2571 C2568 1.386 . S
C2572 C2567 1.490 . S
C2572 C2574 1.395 . S
C2572 C2575 1.403 . S
H2573 C2579 0.930 . S
C2574 H2560 0.930 . S
C2574 C2572 1.395 . S
C2574 C2577 1.403 . S
C2575 C2572 1.403 . S
C2575 C2576 1.524 . S
C2575 C2579 1.400 . S
C2576 H2561 0.960 . S
C2576 H2562 0.960 . S
C2576 H2563 0.960 . S
C2576 C2575 1.524 . S
C2577 C2574 1.403 . S
C2577 C2578 1.392 . S
C2577 C2581 1.495 . S
C2578 C2577 1.392 . S
C2578 C2579 1.385 . S
C2578 C2580 1.478 . S
C2579 H2573 0.930 . S
C2579 C2575 1.400 . S
C2579 C2578 1.385 . S
C2580 C2578 1.478 . S
C2580 C2582 1.381 . S
C2580 C2586 1.383 . S
C2581 C2577 1.495 . S
C2581 H2587 0.959 . S
C2581 H2588 0.961 . S
C2581 H2589 0.960 . S
C2582 C2580 1.381 . S
C2582 C2583 1.394 . S
C2582 H2590 0.930 . S
C2583 C2582 1.394 . S
C2583 C2584 1.383 . S
C2583 H2591 0.929 . S
C2584 C2583 1.383 . S
C2584 C2585 1.377 . S
C2585 H2569 0.930 . S
C2585 C2584 1.377 . S
C2585 C2586 1.379 . S
C2586 H2570 0.931 . S
C2586 C2580 1.383 . S
C2586 C2585 1.379 . S
H2587 C2581 0.959 . S
H2588 C2581 0.961 . S
H2589 C2581 0.960 . S
H2590 C2582 0.930 . S
H2591 C2583 0.929 . S
H2592 C2600 0.929 . S
H2593 C2602 0.930 . S
H2594 C2604 0.930 . S
H2595 C2607 0.929 . S
H2596 C2610 0.930 . S
H2597 C2612 0.960 . S
H2598 C2612 0.960 . S
H2599 C2612 0.960 . S
C2600 H2592 0.929 . S
C2600 C2601 1.377 . S
C2600 C2602 1.384 . S
C2601 C2600 1.377 . S
C2601 C2607 1.390 . S
C2602 H2593 0.930 . S
C2602 C2600 1.384 . S
C2602 C2603 1.372 . S
C2603 C2602 1.372 . S
C2603 C2604 1.400 . S
C2603 C2608 1.490 . S
C2604 H2594 0.930 . S
C2604 C2603 1.400 . S
C2604 C2607 1.386 . S
H2605 C2621 0.930 . S
H2606 C2622 0.931 . S
C2607 H2595 0.929 . S
C2607 C2601 1.390 . S
C2607 C2604 1.386 . S
C2608 C2603 1.490 . S
C2608 C2610 1.395 . S
C2608 C2611 1.403 . S
H2609 C2615 0.930 . S
C2610 H2596 0.930 . S
C2610 C2608 1.395 . S
C2610 C2613 1.403 . S
C2611 C2608 1.403 . S
C2611 C2612 1.524 . S
C2611 C2615 1.400 . S
C2612 H2597 0.960 . S
C2612 H2598 0.960 . S
C2612 H2599 0.960 . S
C2612 C2611 1.524 . S
C2613 C2610 1.403 . S
C2613 C2614 1.392 . S
C2613 C2617 1.495 . S
C2614 C2613 1.392 . S
C2614 C2615 1.385 . S
C2614 C2616 1.478 . S
C2615 H2609 0.930 . S
C2615 C2611 1.400 . S
C2615 C2614 1.385 . S
C2616 C2614 1.478 . S
C2616 C2618 1.381 . S
C2616 C2622 1.383 . S
C2617 C2613 1.495 . S
C2617 H2623 0.959 . S
C2617 H2624 0.961 . S
C2617 H2625 0.960 . S
C2618 C2616 1.381 . S
C2618 C2619 1.394 . S
C2618 H2626 0.930 . S
C2619 C2618 1.394 . S
C2619 C2620 1.383 . S
C2619 H2627 0.929 . S
C2620 C2619 1.383 . S
C2620 C2621 1.377 . S
C2621 H2605 0.930 . S
C2621 C2620 1.377 . S
C2621 C2622 1.379 . S
C2622 H2606 0.931 . S
C2622 C2616 1.383 . S
C2622 C2621 1.379 . S
H2623 C2617 0.959 . S
H2624 C2617 0.961 . S
H2625 C2617 0.960 . S
H2626 C2618 0.930 . S
H2627 C2619 0.929 . S
H2628 C2636 0.929 . S
H2629 C2638 0.930 . S
H2630 C2640 0.930 . S
H2631 C2643 0.929 . S
H2632 C2646 0.930 . S
H2633 C2648 0.960 . S
H2634 C2648 0.960 . S
H2635 C2648 0.960 . S
C2636 H2628 0.929 . S
C2636 C2637 1.377 . S
C2636 C2638 1.384 . S
C2637 C2636 1.377 . S
C2637 C2643 1.390 . S
C2638 H2629 0.930 . S
C2638 C2636 1.384 . S
C2638 C2639 1.372 . S
C2639 C2638 1.372 . S
C2639 C2640 1.400 . S
C2639 C2644 1.490 . S
C2640 H2630 0.930 . S
C2640 C2639 1.400 . S
C2640 C2643 1.386 . S
H2641 C2657 0.930 . S
H2642 C2658 0.931 . S
C2643 H2631 0.929 . S
C2643 C2637 1.390 . S
C2643 C2640 1.386 . S
C2644 C2639 1.490 . S
C2644 C2646 1.395 . S
C2644 C2647 1.403 . S
H2645 C2651 0.930 . S
C2646 H2632 0.930 . S
C2646 C2644 1.395 . S
C2646 C2649 1.403 . S
C2647 C2644 1.403 . S
C2647 C2648 1.524 . S
C2647 C2651 1.400 . S
C2648 H2633 0.960 . S
C2648 H2634 0.960 . S
C2648 H2635 0.960 . S
C2648 C2647 1.524 . S
C2649 C2646 1.403 . S
C2649 C2650 1.392 . S
C2649 C2653 1.495 . S
C2650 C2649 1.392 . S
C2650 C2651 1.385 . S
C2650 C2652 1.478 . S
C2651 H2645 0.930 . S
C2651 C2647 1.400 . S
C2651 C2650 1.385 . S
C2652 C2650 1.478 . S
C2652 C2654 1.381 . S
C2652 C2658 1.383 . S
C2653 C2649 1.495 . S
C2653 H2659 0.959 . S
C2653 H2660 0.961 . S
C2653 H2661 0.960 . S
C2654 C2652 1.381 . S
C2654 C2655 1.394 . S
C2654 H2662 0.930 . S
C2655 C2654 1.394 . S
C2655 C2656 1.383 . S
C2655 H2663 0.929 . S
C2656 C2655 1.383 . S
C2656 C2657 1.377 . S
C2657 H2641 0.930 . S
C2657 C2656 1.377 . S
C2657 C2658 1.379 . S
C2658 H2642 0.931 . S
C2658 C2652 1.383 . S
C2658 C2657 1.379 . S
H2659 C2653 0.959 . S
H2660 C2653 0.961 . S
H2661 C2653 0.960 . S
H2662 C2654 0.930 . S
H2663 C2655 0.929 . S
H2664 C2672 0.929 . S
H2665 C2674 0.930 . S
H2666 C2676 0.930 . S
H2667 C2679 0.929 . S
H2668 C2682 0.930 . S
H2669 C2684 0.960 . S
H2670 C2684 0.960 . S
H2671 C2684 0.960 . S
C2672 H2664 0.929 . S
C2672 C2673 1.377 . S
C2672 C2674 1.384 . S
C2673 C2672 1.377 . S
C2673 C2679 1.390 . S
C2674 H2665 0.930 . S
C2674 C2672 1.384 . S
C2674 C2675 1.372 . S
C2675 C2674 1.372 . S
C2675 C2676 1.400 . S
C2675 C2680 1.490 . S
C2676 H2666 0.930 . S
C2676 C2675 1.400 . S
C2676 C2679 1.386 . S
H2677 C2693 0.930 . S
H2678 C2694 0.931 . S
C2679 H2667 0.929 . S
C2679 C2673 1.390 . S
C2679 C2676 1.386 . S
C2680 C2675 1.490 . S
C2680 C2682 1.395 . S
C2680 C2683 1.403 . S
H2681 C2687 0.930 . S
C2682 H2668 0.930 . S
C2682 C2680 1.395 . S
C2682 C2685 1.403 . S
C2683 C2680 1.403 . S
C2683 C2684 1.524 . S
C2683 C2687 1.400 . S
C2684 H2669 0.960 . S
C2684 H2670 0.960 . S
C2684 H2671 0.960 . S
C2684 C2683 1.524 . S
C2685 C2682 1.403 . S
C2685 C2686 1.392 . S
C2685 C2689 1.495 . S
C2686 C2685 1.392 . S
C2686 C2687 1.385 . S
C2686 C2688 1.478 . S
C2687 H2681 0.930 . S
C2687 C2683 1.400 . S
C2687 C2686 1.385 . S
C2688 C2686 1.478 . S
C2688 C2690 1.381 . S
C2688 C2694 1.383 . S
C2689 C2685 1.495 . S
C2689 H2695 0.959 . S
C2689 H2696 0.961 . S
C2689 H2697 0.960 . S
C2690 C2688 1.381 . S
C2690 C2691 1.394 . S
C2690 H2698 0.930 . S
C2691 C2690 1.394 . S
C2691 C2692 1.383 . S
C2691 H2699 0.929 . S
C2692 C2691 1.383 . S
C2692 C2693 1.377 . S
C2693 H2677 0.930 . S
C2693 C2692 1.377 . S
C2693 C2694 1.379 . S
C2694 H2678 0.931 . S
C2694 C2688 1.383 . S
C2694 C2693 1.379 . S
H2695 C2689 0.959 . S
H2696 C2689 0.961 . S
H2697 C2689 0.960 . S
H2698 C2690 0.930 . S
H2699 C2691 0.929 . S
H2700 C2708 0.929 . S
H2701 C2710 0.930 . S
H2702 C2712 0.930 . S
H2703 C2715 0.929 . S
H2704 C2718 0.930 . S
H2705 C2720 0.960 . S
H2706 C2720 0.960 . S
H2707 C2720 0.960 . S
C2708 H2700 0.929 . S
C2708 C2709 1.377 . S
C2708 C2710 1.384 . S
C2709 C2708 1.377 . S
C2709 C2715 1.390 . S
C2710 H2701 0.930 . S
C2710 C2708 1.384 . S
C2710 C2711 1.372 . S
C2711 C2710 1.372 . S
C2711 C2712 1.400 . S
C2711 C2716 1.490 . S
C2712 H2702 0.930 . S
C2712 C2711 1.400 . S
C2712 C2715 1.386 . S
H2713 C2729 0.930 . S
H2714 C2730 0.931 . S
C2715 H2703 0.929 . S
C2715 C2709 1.390 . S
C2715 C2712 1.386 . S
C2716 C2711 1.490 . S
C2716 C2718 1.395 . S
C2716 C2719 1.403 . S
H2717 C2723 0.930 . S
C2718 H2704 0.930 . S
C2718 C2716 1.395 . S
C2718 C2721 1.403 . S
C2719 C2716 1.403 . S
C2719 C2720 1.524 . S
C2719 C2723 1.400 . S
C2720 H2705 0.960 . S
C2720 H2706 0.960 . S
C2720 H2707 0.960 . S
C2720 C2719 1.524 . S
C2721 C2718 1.403 . S
C2721 C2722 1.392 . S
C2721 C2725 1.495 . S
C2722 C2721 1.392 . S
C2722 C2723 1.385 . S
C2722 C2724 1.478 . S
C2723 H2717 0.930 . S
C2723 C2719 1.400 . S
C2723 C2722 1.385 . S
C2724 C2722 1.478 . S
C2724 C2726 1.381 . S
C2724 C2730 1.383 . S
C2725 C2721 1.495 . S
C2725 H2731 0.959 . S
C2725 H2732 0.961 . S
C2725 H2733 0.960 . S
C2726 C2724 1.381 . S
C2726 C2727 1.394 . S
C2726 H2734 0.930 . S
C2727 C2726 1.394 . S
C2727 C2728 1.383 . S
C2727 H2735 0.929 . S
C2728 C2727 1.383 . S
C2728 C2729 1.377 . S
C2729 H2713 0.930 . S
C2729 C2728 1.377 . S
C2729 C2730 1.379 . S
C2730 H2714 0.931 . S
C2730 C2724 1.383 . S
C2730 C2729 1.379 . S
H2731 C2725 0.959 . S
H2732 C2725 0.961 . S
H2733 C2725 0.960 . S
H2734 C2726 0.930 . S
H2735 C2727 0.929 . S
H2736 C2744 0.929 . S
H2737 C2746 0.930 . S
H2738 C2748 0.930 . S
H2739 C2751 0.929 . S
H2740 C2754 0.930 . S
H2741 C2756 0.960 . S
H2742 C2756 0.960 . S
H2743 C2756 0.960 . S
C2744 H2736 0.929 . S
C2744 C2745 1.377 . S
C2744 C2746 1.384 . S
C2745 C2744 1.377 . S
C2745 C2751 1.390 . S
C2746 H2737 0.930 . S
C2746 C2744 1.384 . S
C2746 C2747 1.372 . S
C2747 C2746 1.372 . S
C2747 C2748 1.400 . S
C2747 C2752 1.490 . S
C2748 H2738 0.930 . S
C2748 C2747 1.400 . S
C2748 C2751 1.386 . S
H2749 C2765 0.930 . S
H2750 C2766 0.931 . S
C2751 H2739 0.929 . S
C2751 C2745 1.390 . S
C2751 C2748 1.386 . S
C2752 C2747 1.490 . S
C2752 C2754 1.395 . S
C2752 C2755 1.403 . S
H2753 C2759 0.930 . S
C2754 H2740 0.930 . S
C2754 C2752 1.395 . S
C2754 C2757 1.403 . S
C2755 C2752 1.403 . S
C2755 C2756 1.524 . S
C2755 C2759 1.400 . S
C2756 H2741 0.960 . S
C2756 H2742 0.960 . S
C2756 H2743 0.960 . S
C2756 C2755 1.524 . S
C2757 C2754 1.403 . S
C2757 C2758 1.392 . S
C2757 C2761 1.495 . S
C2758 C2757 1.392 . S
C2758 C2759 1.385 . S
C2758 C2760 1.478 . S
C2759 H2753 0.930 . S
C2759 C2755 1.400 . S
C2759 C2758 1.385 . S
C2760 C2758 1.478 . S
C2760 C2762 1.381 . S
C2760 C2766 1.383 . S
C2761 C2757 1.495 . S
C2761 H2767 0.959 . S
C2761 H2768 0.961 . S
C2761 H2769 0.960 . S
C2762 C2760 1.381 . S
C2762 C2763 1.394 . S
C2762 H2770 0.930 . S
C2763 C2762 1.394 . S
C2763 C2764 1.383 . S
C2763 H2771 0.929 . S
C2764 C2763 1.383 . S
C2764 C2765 1.377 . S
C2765 H2749 0.930 . S
C2765 C2764 1.377 . S
C2765 C2766 1.379 . S
C2766 H2750 0.931 . S
C2766 C2760 1.383 . S
C2766 C2765 1.379 . S
H2767 C2761 0.959 . S
H2768 C2761 0.961 . S
H2769 C2761 0.960 . S
H2770 C2762 0.930 . S
H2771 C2763 0.929 . S
H2772 C2780 0.929 . S
H2773 C2782 0.930 . S
H2774 C2784 0.930 . S
H2775 C2787 0.929 . S
H2776 C2790 0.930 . S
H2777 C2792 0.960 . S
H2778 C2792 0.960 . S
H2779 C2792 0.960 . S
C2780 H2772 0.929 . S
C2780 C2781 1.377 . S
C2780 C2782 1.384 . S
C2781 C2780 1.377 . S
C2781 C2787 1.390 . S
C2782 H2773 0.930 . S
C2782 C2780 1.384 . S
C2782 C2783 1.372 . S
C2783 C2782 1.372 . S
C2783 C2784 1.400 . S
C2783 C2788 1.490 . S
C2784 H2774 0.930 . S
C2784 C2783 1.400 . S
C2784 C2787 1.386 . S
H2785 C2801 0.930 . S
H2786 C2802 0.931 . S
C2787 H2775 0.929 . S
C2787 C2781 1.390 . S
C2787 C2784 1.386 . S
C2788 C2783 1.490 . S
C2788 C2790 1.395 . S
C2788 C2791 1.403 . S
H2789 C2795 0.930 . S
C2790 H2776 0.930 . S
C2790 C2788 1.395 . S
C2790 C2793 1.403 . S
C2791 C2788 1.403 . S
C2791 C2792 1.524 . S
C2791 C2795 1.400 . S
C2792 H2777 0.960 . S
C2792 H2778 0.960 . S
C2792 H2779 0.960 . S
C2792 C2791 1.524 . S
C2793 C2790 1.403 . S
C2793 C2794 1.392 . S
C2793 C2797 1.495 . S
C2794 C2793 1.392 . S
C2794 C2795 1.385 . S
C2794 C2796 1.478 . S
C2795 H2789 0.930 . S
C2795 C2791 1.400 . S
C2795 C2794 1.385 . S
C2796 C2794 1.478 . S
C2796 C2798 1.381 . S
C2796 C2802 1.383 . S
C2797 C2793 1.495 . S
C2797 H2803 0.959 . S
C2797 H2804 0.961 . S
C2797 H2805 0.960 . S
C2798 C2796 1.381 . S
C2798 C2799 1.394 . S
C2798 H2806 0.930 . S
C2799 C2798 1.394 . S
C2799 C2800 1.383 . S
C2799 H2807 0.929 . S
C2800 C2799 1.383 . S
C2800 C2801 1.377 . S
C2801 H2785 0.930 . S
C2801 C2800 1.377 . S
C2801 C2802 1.379 . S
C2802 H2786 0.931 . S
C2802 C2796 1.383 . S
C2802 C2801 1.379 . S
H2803 C2797 0.959 . S
H2804 C2797 0.961 . S
H2805 C2797 0.960 . S
H2806 C2798 0.930 . S
H2807 C2799 0.929 . S
H2808 C2816 0.929 . S
H2809 C2818 0.930 . S
H2810 C2820 0.930 . S
H2811 C2823 0.929 . S
H2812 C2826 0.930 . S
H2813 C2828 0.960 . S
H2814 C2828 0.960 . S
H2815 C2828 0.960 . S
C2816 H2808 0.929 . S
C2816 C2817 1.377 . S
C2816 C2818 1.384 . S
C2817 C2816 1.377 . S
C2817 C2823 1.390 . S
C2818 H2809 0.930 . S
C2818 C2816 1.384 . S
C2818 C2819 1.372 . S
C2819 C2818 1.372 . S
C2819 C2820 1.400 . S
C2819 C2824 1.490 . S
C2820 H2810 0.930 . S
C2820 C2819 1.400 . S
C2820 C2823 1.386 . S
H2821 C2837 0.930 . S
H2822 C2838 0.931 . S
C2823 H2811 0.929 . S
C2823 C2817 1.390 . S
C2823 C2820 1.386 . S
C2824 C2819 1.490 . S
C2824 C2826 1.395 . S
C2824 C2827 1.403 . S
H2825 C2831 0.930 . S
C2826 H2812 0.930 . S
C2826 C2824 1.395 . S
C2826 C2829 1.403 . S
C2827 C2824 1.403 . S
C2827 C2828 1.524 . S
C2827 C2831 1.400 . S
C2828 H2813 0.960 . S
C2828 H2814 0.960 . S
C2828 H2815 0.960 . S
C2828 C2827 1.524 . S
C2829 C2826 1.403 . S
C2829 C2830 1.392 . S
C2829 C2833 1.495 . S
C2830 C2829 1.392 . S
C2830 C2831 1.385 . S
C2830 C2832 1.478 . S
C2831 H2825 0.930 . S
C2831 C2827 1.400 . S
C2831 C2830 1.385 . S
C2832 C2830 1.478 . S
C2832 C2834 1.381 . S
C2832 C2838 1.383 . S
C2833 C2829 1.495 . S
C2833 H2839 0.959 . S
C2833 H2840 0.961 . S
C2833 H2841 0.960 . S
C2834 C2832 1.381 . S
C2834 C2835 1.394 . S
C2834 H2842 0.930 . S
C2835 C2834 1.394 . S
C2835 C2836 1.383 . S
C2835 H2843 0.929 . S
C2836 C2835 1.383 . S
C2836 C2837 1.377 . S
C2837 H2821 0.930 . S
C2837 C2836 1.377 . S
C2837 C2838 1.379 . S
C2838 H2822 0.931 . S
C2838 C2832 1.383 . S
C2838 C2837 1.379 . S
H2839 C2833 0.959 . S
H2840 C2833 0.961 . S
H2841 C2833 0.960 . S
H2842 C2834 0.930 . S
H2843 C2835 0.929 . S
H2844 C2852 0.929 . S
H2845 C2854 0.930 . S
H2846 C2856 0.930 . S
H2847 C2859 0.929 . S
H2848 C2862 0.930 . S
H2849 C2864 0.960 . S
H2850 C2864 0.960 . S
H2851 C2864 0.960 . S
C2852 H2844 0.929 . S
C2852 C2853 1.377 . S
C2852 C2854 1.384 . S
C2853 C2852 1.377 . S
C2853 C2859 1.390 . S
C2854 H2845 0.930 . S
C2854 C2852 1.384 . S
C2854 C2855 1.372 . S
C2855 C2854 1.372 . S
C2855 C2856 1.400 . S
C2855 C2860 1.490 . S
C2856 H2846 0.930 . S
C2856 C2855 1.400 . S
C2856 C2859 1.386 . S
H2857 C2873 0.930 . S
H2858 C2874 0.931 . S
C2859 H2847 0.929 . S
C2859 C2853 1.390 . S
C2859 C2856 1.386 . S
C2860 C2855 1.490 . S
C2860 C2862 1.395 . S
C2860 C2863 1.403 . S
H2861 C2867 0.930 . S
C2862 H2848 0.930 . S
C2862 C2860 1.395 . S
C2862 C2865 1.403 . S
C2863 C2860 1.403 . S
C2863 C2864 1.524 . S
C2863 C2867 1.400 . S
C2864 H2849 0.960 . S
C2864 H2850 0.960 . S
C2864 H2851 0.960 . S
C2864 C2863 1.524 . S
C2865 C2862 1.403 . S
C2865 C2866 1.392 . S
C2865 C2869 1.495 . S
C2866 C2865 1.392 . S
C2866 C2867 1.385 . S
C2866 C2868 1.478 . S
C2867 H2861 0.930 . S
C2867 C2863 1.400 . S
C2867 C2866 1.385 . S
C2868 C2866 1.478 . S
C2868 C2870 1.381 . S
C2868 C2874 1.383 . S
C2869 C2865 1.495 . S
C2869 H2875 0.959 . S
C2869 H2876 0.961 . S
C2869 H2877 0.960 . S
C2870 C2868 1.381 . S
C2870 C2871 1.394 . S
C2870 H2878 0.930 . S
C2871 C2870 1.394 . S
C2871 C2872 1.383 . S
C2871 H2879 0.929 . S
C2872 C2871 1.383 . S
C2872 C2873 1.377 . S
C2873 H2857 0.930 . S
C2873 C2872 1.377 . S
C2873 C2874 1.379 . S
C2874 H2858 0.931 . S
C2874 C2868 1.383 . S
C2874 C2873 1.379 . S
H2875 C2869 0.959 . S
H2876 C2869 0.961 . S
H2877 C2869 0.960 . S
H2878 C2870 0.930 . S
H2879 C2871 0.929 . S
H2880 C2888 0.929 . S
H2881 C2890 0.930 . S
H2882 C2892 0.930 . S
H2883 C2895 0.929 . S
H2884 C2898 0.930 . S
H2885 C2900 0.960 . S
H2886 C2900 0.960 . S
H2887 C2900 0.960 . S
C2888 H2880 0.929 . S
C2888 C2889 1.377 . S
C2888 C2890 1.384 . S
C2889 C2888 1.377 . S
C2889 C2895 1.390 . S
C2890 H2881 0.930 . S
C2890 C2888 1.384 . S
C2890 C2891 1.372 . S
C2891 C2890 1.372 . S
C2891 C2892 1.400 . S
C2891 C2896 1.490 . S
C2892 H2882 0.930 . S
C2892 C2891 1.400 . S
C2892 C2895 1.386 . S
H2893 C2909 0.930 . S
H2894 C2910 0.931 . S
C2895 H2883 0.929 . S
C2895 C2889 1.390 . S
C2895 C2892 1.386 . S
C2896 C2891 1.490 . S
C2896 C2898 1.395 . S
C2896 C2899 1.403 . S
H2897 C2903 0.930 . S
C2898 H2884 0.930 . S
C2898 C2896 1.395 . S
C2898 C2901 1.403 1_455 S
C2899 C2896 1.403 . S
C2899 C2900 1.524 . S
C2899 C2903 1.400 1_455 S
C2900 H2885 0.960 . S
C2900 H2886 0.960 . S
C2900 H2887 0.960 . S
C2900 C2899 1.524 . S
C2901 C2898 1.403 1_655 S
C2901 C2902 1.392 . S
C2901 C2905 1.495 . S
C2902 C2901 1.392 . S
C2902 C2903 1.385 . S
C2902 C2904 1.478 . S
C2903 H2897 0.930 . S
C2903 C2899 1.400 1_655 S
C2903 C2902 1.385 . S
C2904 C2902 1.478 . S
C2904 C2906 1.381 . S
C2904 C2910 1.383 . S
C2905 C2901 1.495 . S
C2905 H2911 0.959 1_655 S
C2905 H2912 0.961 . S
C2905 H2913 0.960 . S
C2906 C2904 1.381 . S
C2906 C2907 1.394 . S
C2906 H2914 0.930 . S
C2907 C2906 1.394 . S
C2907 C2908 1.383 . S
C2907 H2915 0.929 . S
C2908 C2907 1.383 . S
C2908 C2909 1.377 . S
C2909 H2893 0.930 . S
C2909 C2908 1.377 . S
C2909 C2910 1.379 . S
C2910 H2894 0.931 . S
C2910 C2904 1.383 . S
C2910 C2909 1.379 . S
H2911 C2905 0.959 1_455 S
H2912 C2905 0.961 . S
H2913 C2905 0.960 . S
H2914 C2906 0.930 . S
H2915 C2907 0.929 . S
H2916 C2924 0.929 . S
H2917 C2926 0.930 . S
H2918 C2928 0.930 . S
H2919 C2931 0.929 . S
H2920 C2934 0.930 . S
H2921 C2936 0.960 . S
H2922 C2936 0.960 . S
H2923 C2936 0.960 . S
C2924 H2916 0.929 . S
C2924 C2925 1.377 . S
C2924 C2926 1.384 . S
C2925 C2924 1.377 . S
C2925 C2931 1.390 . S
C2926 H2917 0.930 . S
C2926 C2924 1.384 . S
C2926 C2927 1.372 . S
C2927 C2926 1.372 . S
C2927 C2928 1.400 . S
C2927 C2932 1.490 . S
C2928 H2918 0.930 . S
C2928 C2927 1.400 . S
C2928 C2931 1.386 . S
H2929 C2945 0.930 . S
H2930 C2946 0.931 . S
C2931 H2919 0.929 . S
C2931 C2925 1.390 . S
C2931 C2928 1.386 . S
C2932 C2927 1.490 . S
C2932 C2934 1.395 . S
C2932 C2935 1.403 . S
H2933 C2939 0.930 . S
C2934 H2920 0.930 . S
C2934 C2932 1.395 . S
C2934 C2937 1.403 . S
C2935 C2932 1.403 . S
C2935 C2936 1.524 . S
C2935 C2939 1.400 . S
C2936 H2921 0.960 . S
C2936 H2922 0.960 . S
C2936 H2923 0.960 . S
C2936 C2935 1.524 . S
C2937 C2934 1.403 . S
C2937 C2938 1.392 . S
C2937 C2941 1.495 . S
C2938 C2937 1.392 . S
C2938 C2939 1.385 . S
C2938 C2940 1.478 . S
C2939 H2933 0.930 . S
C2939 C2935 1.400 . S
C2939 C2938 1.385 . S
C2940 C2938 1.478 . S
C2940 C2942 1.381 . S
C2940 C2946 1.383 . S
C2941 C2937 1.495 . S
C2941 H2947 0.959 . S
C2941 H2948 0.961 . S
C2941 H2949 0.960 . S
C2942 C2940 1.381 . S
C2942 C2943 1.394 . S
C2942 H2950 0.930 . S
C2943 C2942 1.394 . S
C2943 C2944 1.383 . S
C2943 H2951 0.929 . S
C2944 C2943 1.383 . S
C2944 C2945 1.377 . S
C2945 H2929 0.930 . S
C2945 C2944 1.377 . S
C2945 C2946 1.379 . S
C2946 H2930 0.931 . S
C2946 C2940 1.383 . S
C2946 C2945 1.379 . S
H2947 C2941 0.959 . S
H2948 C2941 0.961 . S
H2949 C2941 0.960 . S
H2950 C2942 0.930 . S
H2951 C2943 0.929 . S
H2952 C2960 0.929 . S
H2953 C2962 0.930 . S
H2954 C2964 0.930 . S
H2955 C2967 0.929 . S
H2956 C2970 0.930 . S
H2957 C2972 0.960 . S
H2958 C2972 0.960 . S
H2959 C2972 0.960 . S
C2960 H2952 0.929 . S
C2960 C2961 1.377 . S
C2960 C2962 1.384 . S
C2961 C2960 1.377 . S
C2961 C2967 1.390 . S
C2962 H2953 0.930 . S
C2962 C2960 1.384 . S
C2962 C2963 1.372 . S
C2963 C2962 1.372 . S
C2963 C2964 1.400 . S
C2963 C2968 1.490 . S
C2964 H2954 0.930 . S
C2964 C2963 1.400 . S
C2964 C2967 1.386 . S
H2965 C2981 0.930 . S
H2966 C2982 0.931 . S
C2967 H2955 0.929 . S
C2967 C2961 1.390 . S
C2967 C2964 1.386 . S
C2968 C2963 1.490 . S
C2968 C2970 1.395 . S
C2968 C2971 1.403 . S
H2969 C2975 0.930 . S
C2970 H2956 0.930 . S
C2970 C2968 1.395 . S
C2970 C2973 1.403 1_545 S
C2971 C2968 1.403 . S
C2971 C2972 1.524 . S
C2971 C2975 1.400 1_545 S
C2972 H2957 0.960 . S
C2972 H2958 0.960 . S
C2972 H2959 0.960 . S
C2972 C2971 1.524 . S
C2973 C2970 1.403 1_565 S
C2973 C2974 1.392 . S
C2973 C2977 1.495 . S
C2974 C2973 1.392 . S
C2974 C2975 1.385 . S
C2974 C2976 1.478 . S
C2975 H2969 0.930 . S
C2975 C2971 1.400 1_565 S
C2975 C2974 1.385 . S
C2976 C2974 1.478 . S
C2976 C2978 1.381 . S
C2976 C2982 1.383 . S
C2977 C2973 1.495 . S
C2977 H2983 0.959 1_565 S
C2977 H2984 0.961 . S
C2977 H2985 0.960 . S
C2978 C2976 1.381 . S
C2978 C2979 1.394 . S
C2978 H2986 0.930 . S
C2979 C2978 1.394 . S
C2979 C2980 1.383 . S
C2979 H2987 0.929 . S
C2980 C2979 1.383 . S
C2980 C2981 1.377 . S
C2981 H2965 0.930 . S
C2981 C2980 1.377 . S
C2981 C2982 1.379 . S
C2982 H2966 0.931 . S
C2982 C2976 1.383 . S
C2982 C2981 1.379 . S
H2983 C2977 0.959 1_545 S
H2984 C2977 0.961 . S
H2985 C2977 0.960 . S
H2986 C2978 0.930 . S
H2987 C2979 0.929 . S
H2988 C2996 0.940 . S
H2989 C2998 0.930 1_554 S
H2990 C3000 0.930 . S
H2991 C3003 0.929 . S
H2992 C3006 0.930 . S
H2993 C3008 0.960 1_565 S
H2994 C3008 0.960 . S
H2995 C3008 0.960 . S
C2996 H2988 0.940 . S
C2996 C2997 1.377 . S
C2996 C2998 1.384 . S
C2997 C2996 1.377 . S
C2997 C3003 1.390 . S
C2998 H2989 0.930 1_556 S
C2998 C2996 1.384 . S
C2998 C2999 1.372 . S
C2999 C2998 1.372 . S
C2999 C3000 1.400 . S
C2999 C3004 1.490 . S
C3000 H2990 0.930 . S
C3000 C2999 1.400 . S
C3000 C3003 1.386 . S
H3001 C3017 0.930 . S
H3002 C3018 0.931 1_556 S
C3003 H2991 0.929 . S
C3003 C2997 1.390 . S
C3003 C3000 1.386 . S
C3004 C2999 1.490 . S
C3004 C3006 1.395 1_556 S
C3004 C3007 1.403 . S
H3005 C3011 0.930 . S
C3006 H2992 0.930 . S
C3006 C3004 1.395 1_554 S
C3006 C3009 1.403 1_545 S
C3007 C3004 1.403 . S
C3007 C3008 1.524 . S
C3007 C3011 1.400 1_545 S
C3008 H2993 0.960 1_545 S
C3008 H2994 0.960 . S
C3008 H2995 0.960 . S
C3008 C3007 1.524 . S
C3009 C3006 1.403 1_565 S
C3009 C3010 1.392 . S
C3009 C3013 1.495 . S
C3010 C3009 1.392 . S
C3010 C3011 1.385 1_554 S
C3010 C3012 1.478 . S
C3011 H3005 0.930 . S
C3011 C3007 1.400 1_565 S
C3011 C3010 1.385 1_556 S
C3012 C3010 1.478 . S
C3012 C3014 1.381 . S
C3012 C3018 1.383 . S
C3013 C3009 1.495 . S
C3013 H3019 0.937 1_565 S
C3013 H3020 0.961 . S
C3013 H3021 0.960 . S
C3014 C3012 1.381 . S
C3014 C3015 1.394 . S
C3014 H3022 0.930 . S
C3015 C3014 1.394 . S
C3015 C3016 1.383 . S
C3015 H3023 0.929 . S
C3016 C3015 1.383 . S
C3016 C3017 1.377 . S
C3017 H3001 0.930 . S
C3017 C3016 1.377 . S
C3017 C3018 1.379 . S
C3018 H3002 0.931 1_554 S
C3018 C3012 1.383 . S
C3018 C3017 1.379 . S
H3019 C3013 0.937 1_545 S
H3020 C3013 0.961 . S
H3021 C3013 0.960 . S
H3022 C3014 0.930 . S
H3023 C3015 0.929 . S
H3024 C3032 0.929 . S
H3025 C3034 0.930 . S
H3026 C3036 0.930 . S
H3027 C3039 0.929 . S
H3028 C3042 0.930 . S
H3029 C3044 0.960 . S
H3030 C3044 0.960 . S
H3031 C3044 0.960 . S
C3032 H3024 0.929 . S
C3032 C3033 1.377 . S
C3032 C3034 1.384 . S
C3033 C3032 1.377 . S
C3033 C3039 1.390 . S
C3034 H3025 0.930 . S
C3034 C3032 1.384 . S
C3034 C3035 1.372 . S
C3035 C3034 1.372 . S
C3035 C3036 1.400 . S
C3035 C3040 1.490 . S
C3036 H3026 0.930 . S
C3036 C3035 1.400 . S
C3036 C3039 1.386 . S
H3037 C3053 0.930 . S
H3038 C3054 0.931 . S
C3039 H3027 0.929 . S
C3039 C3033 1.390 . S
C3039 C3036 1.386 . S
C3040 C3035 1.490 . S
C3040 C3042 1.395 1_556 S
C3040 C3043 1.403 . S
H3041 C3047 0.930 . S
C3042 H3028 0.930 . S
C3042 C3040 1.395 1_554 S
C3042 C3045 1.403 1_655 S
C3043 C3040 1.403 . S
C3043 C3044 1.524 . S
C3043 C3047 1.400 1_655 S
C3044 H3029 0.960 . S
C3044 H3030 0.960 . S
C3044 H3031 0.960 . S
C3044 C3043 1.524 . S
C3045 C3042 1.403 1_455 S
C3045 C3046 1.392 . S
C3045 C3049 1.495 . S
C3046 C3045 1.392 . S
C3046 C3047 1.385 1_554 S
C3046 C3048 1.478 . S
C3047 H3041 0.930 . S
C3047 C3043 1.400 1_455 S
C3047 C3046 1.385 1_556 S
C3048 C3046 1.478 . S
C3048 C3050 1.381 . S
C3048 C3054 1.383 . S
C3049 C3045 1.495 . S
C3049 H3055 0.937 1_455 S
C3049 H3056 0.961 . S
C3049 H3057 0.960 . S
C3050 C3048 1.381 . S
C3050 C3051 1.394 . S
C3050 H3058 0.930 1_554 S
C3051 C3050 1.394 . S
C3051 C3052 1.383 . S
C3051 H3059 0.929 . S
C3052 C3051 1.383 . S
C3052 C3053 1.377 . S
C3053 H3037 0.930 . S
C3053 C3052 1.377 . S
C3053 C3054 1.379 . S
C3054 H3038 0.931 . S
C3054 C3048 1.383 . S
C3054 C3053 1.379 . S
H3055 C3049 0.937 1_655 S
H3056 C3049 0.961 . S
H3057 C3049 0.960 . S
H3058 C3050 0.930 1_556 S
H3059 C3051 0.929 . S
H3060 C3068 0.929 . S
H3061 C3070 0.930 . S
H3062 C3072 0.930 . S
H3063 C3075 0.929 . S
H3064 C3078 0.930 . S
H3065 C3080 0.960 . S
H3066 C3080 0.960 . S
H3067 C3080 0.960 . S
C3068 H3060 0.929 . S
C3068 C3069 1.377 . S
C3068 C3070 1.384 . S
C3069 C3068 1.377 . S
C3069 C3075 1.390 . S
C3070 H3061 0.930 . S
C3070 C3068 1.384 . S
C3070 C3071 1.372 . S
C3071 C3070 1.372 . S
C3071 C3072 1.400 . S
C3071 C3076 1.490 . S
C3072 H3062 0.930 . S
C3072 C3071 1.400 . S
C3072 C3075 1.386 . S
H3073 C3089 0.930 . S
H3074 C3090 0.931 . S
C3075 H3063 0.929 . S
C3075 C3069 1.390 . S
C3075 C3072 1.386 . S
C3076 C3071 1.490 . S
C3076 C3078 1.395 . S
C3076 C3079 1.403 1_556 S
H3077 C3083 0.930 . S
C3078 H3064 0.930 . S
C3078 C3076 1.395 . S
C3078 C3081 1.403 . S
C3079 C3076 1.403 1_554 S
C3079 C3080 1.524 . S
C3079 C3083 1.400 . S
C3080 H3065 0.960 . S
C3080 H3066 0.960 . S
C3080 H3067 0.960 . S
C3080 C3079 1.524 . S
C3081 C3078 1.403 . S
C3081 C3082 1.392 . S
C3081 C3085 1.495 . S
C3082 C3081 1.392 . S
C3082 C3083 1.385 1_556 S
C3082 C3084 1.478 1_556 S
C3083 H3077 0.930 . S
C3083 C3079 1.400 . S
C3083 C3082 1.385 1_554 S
C3084 C3082 1.478 1_554 S
C3084 C3086 1.381 . S
C3084 C3090 1.383 . S
C3085 C3081 1.495 . S
C3085 H3091 0.959 . S
C3085 H3092 0.961 . S
C3085 H3093 0.960 . S
C3086 C3084 1.381 . S
C3086 C3087 1.394 . S
C3086 H3094 0.930 1_554 S
C3087 C3086 1.394 . S
C3087 C3088 1.383 . S
C3087 H3095 0.929 . S
C3088 C3087 1.383 . S
C3088 C3089 1.377 . S
C3089 H3073 0.930 . S
C3089 C3088 1.377 . S
C3089 C3090 1.379 . S
C3090 H3074 0.931 . S
C3090 C3084 1.383 . S
C3090 C3089 1.379 . S
H3091 C3085 0.959 . S
H3092 C3085 0.961 . S
H3093 C3085 0.960 . S
H3094 C3086 0.930 1_556 S
H3095 C3087 0.929 . S
C513 C11 0.918 . S
C532 C102 0.950 . S
C549 C19 0.998 . S
C568 C116 1.017 . S
C585 C88 0.979 . S
C604 C33 0.970 . S
C621 C158 0.985 . S
C640 C47 0.879 . S
C657 C61 1.000 . S
C676 C130 1.025 . S
C693 C81 0.919 . S
C712 C144 0.912 . S
C729 C18 0.853 . S
C748 C89 0.773 . S
C765 C32 0.986 . S
C784 C103 0.942 . S
C801 C117 0.849 . S
C820 C12 0.899 . S
C837 C131 0.860 . S
C856 C82 0.867 . S
C873 C46 0.985 . S
C892 C145 0.931 . S
C909 C159 0.835 . S
C928 C60 0.854 . S
C945 C270 0.940 . S
C964 C179 0.881 . S
C981 C187 0.978 . S
C1000 C284 1.053 . S
C1017 C201 0.938 . S
C1036 C256 1.007 . S
C1053 C326 0.980 . S
C1072 C215 0.925 . S
C1089 C229 0.984 . S
C1108 C298 1.062 . S
C1125 C312 0.943 . S
C1144 C249 0.900 . S
C1161 C186 0.855 . S
C1180 C257 0.789 . S
C1197 C271 0.954 . S
C1216 C200 1.010 . S
C1233 C180 0.887 . S
C1252 C285 0.857 . S
C1269 C299 0.843 . S
C1288 C250 0.900 . S
C1305 C313 0.931 . S
C1324 C214 0.959 . S
C1341 C327 0.829 . S
C1360 C228 0.852 . S
C1377 C438 0.938 . S
C1396 C347 0.944 . S
C1413 C452 1.044 . S
C1432 C355 0.985 . S
C1449 C424 0.990 . S
C1468 C369 0.939 . S
C1485 C383 0.936 . S
C1504 C494 0.961 . S
C1521 C397 0.998 . S
C1540 C466 1.044 . S
C1557 C480 0.940 . S
C1576 C417 0.880 . S
C1593 C425 0.844 . S
C1612 C354 0.884 . S
C1629 C368 0.992 . S
C1648 C439 0.997 . S
C1665 C348 0.885 . S
C1684 C453 0.899 . S
C1701 C467 0.858 . S
C1720 C418 0.890 . S
C1737 C481 0.952 . S
C1756 C382 1.006 . S
C1773 C495 0.848 . S
C1792 C396 0.890 . S
C1809 C54 1.368 . S
C1828 C4 1.272 . S
C1845 C68 1.351 . S
C1864 C26 1.340 . S
C1881 C40 1.373 . S
C1900 C74 1.341 . S
C1917 C138 1.296 . S
C1936 C96 1.290 . S
C1953 C152 1.379 . S
C1972 C110 1.363 . S
C1989 C166 1.290 . S
C2008 C124 1.272 . S
C2025 C222 1.367 . S
C2044 C172 1.275 . S
C2061 C236 1.342 . S
C2080 C194 1.338 . S
C2097 C208 1.373 . S
C2116 C242 1.343 . S
C2133 C306 1.270 1_554 S
C2152 C264 1.305 . S
C2169 C320 1.387 1_554 S
C2188 C278 1.402 . S
C2205 C334 1.290 1_554 S
C2224 C292 1.272 . S
C2241 C390 1.369 . S
C2260 C340 1.344 . S
C2277 C362 1.342 . S
C2296 C404 1.336 1_556 S
C2313 C410 1.307 1_556 S
C2332 C376 1.346 . S
C2349 C432 1.299 . S
C2368 C474 1.314 . S
C2385 C446 1.387 . S
C2404 C488 1.399 . S
C2421 C460 1.301 . S
C2440 C502 1.313 . S
C2457 C5 1.199 . S
C2476 C263 1.379 . S
C2493 C277 1.389 . S
C2512 C25 1.370 . S
C2529 C291 1.392 . S
C2548 C39 1.368 . S
C2565 C473 1.398 . S
C2584 C53 1.401 . S
C2601 C487 1.386 . S
C2620 C67 1.403 . S
C2637 C501 1.362 . S
C2656 C75 1.260 . S
C2673 C95 1.371 . S
C2692 C341 1.153 . S
C2709 C361 1.386 . S
C2728 C109 1.361 . S
C2745 C375 1.389 . S
C2764 C123 1.373 . S
C2781 C137 1.390 . S
C2800 C221 1.387 . S
C2817 C151 1.383 . S
C2836 C235 1.367 . S
C2853 C165 1.371 . S
C2872 C243 1.153 . S
C2889 C431 1.369 . S
C2908 C173 1.165 . S
C2925 C445 1.389 . S
C2944 C193 1.374 . S
C2961 C207 1.388 . S
C2980 C459 1.375 . S
C2997 C305 1.398 . S
C3016 C389 1.409 . S
C3033 C319 1.390 . S
C3052 C403 1.378 . S
C3069 C333 1.362 . S
C3088 C411 1.261 . S
