# Generated by pormake.
# Topology rhr, (4)-cn, num edge types: 1
# Building blocks:
#     Node 0, Type 0, BuildingBlock: MUDLON_clean_sbu_0, # of connection points: 4
#     Node 1, Type 0, BuildingBlock: MUDLON_clean_sbu_0, # of connection points: 4
#     Node 2, Type 0, BuildingBlock: MUDLON_clean_sbu_0, # of connection points: 4
#     Node 3, Type 0, BuildingBlock: MUDLON_clean_sbu_0, # of connection points: 4
#     Node 4, Type 0, BuildingBlock: MUDLON_clean_sbu_0, # of connection points: 4
#     Node 5, Type 0, BuildingBlock: MUDLON_clean_sbu_0, # of connection points: 4
#     Node 6, Type 0, BuildingBlock: MUDLON_clean_sbu_0, # of connection points: 4
#     Node 7, Type 0, BuildingBlock: MUDLON_clean_sbu_0, # of connection points: 4
#     Node 8, Type 0, BuildingBlock: MUDLON_clean_sbu_0, # of connection points: 4
#     Node 9, Type 0, BuildingBlock: MUDLON_clean_sbu_0, # of connection points: 4
#     Node 10, Type 0, BuildingBlock: MUDLON_clean_sbu_0, # of connection points: 4
#     Node 11, Type 0, BuildingBlock: MUDLON_clean_sbu_0, # of connection points: 4
#     Node 12, Type 0, BuildingBlock: MUDLON_clean_sbu_0, # of connection points: 4
#     Node 13, Type 0, BuildingBlock: MUDLON_clean_sbu_0, # of connection points: 4
#     Node 14, Type 0, BuildingBlock: MUDLON_clean_sbu_0, # of connection points: 4
#     Node 15, Type 0, BuildingBlock: MUDLON_clean_sbu_0, # of connection points: 4
#     Node 16, Type 0, BuildingBlock: MUDLON_clean_sbu_0, # of connection points: 4
#     Node 17, Type 0, BuildingBlock: MUDLON_clean_sbu_0, # of connection points: 4
#     Node 18, Type 0, BuildingBlock: MUDLON_clean_sbu_0, # of connection points: 4
#     Node 19, Type 0, BuildingBlock: MUDLON_clean_sbu_0, # of connection points: 4
#     Node 20, Type 0, BuildingBlock: MUDLON_clean_sbu_0, # of connection points: 4
#     Node 21, Type 0, BuildingBlock: MUDLON_clean_sbu_0, # of connection points: 4
#     Node 22, Type 0, BuildingBlock: MUDLON_clean_sbu_0, # of connection points: 4
#     Node 23, Type 0, BuildingBlock: MUDLON_clean_sbu_0, # of connection points: 4
#     Edge 24, Type (0, 0), None
#     Edge 25, Type (0, 0), None
#     Edge 26, Type (0, 0), None
#     Edge 27, Type (0, 0), None
#     Edge 28, Type (0, 0), None
#     Edge 29, Type (0, 0), None
#     Edge 30, Type (0, 0), None
#     Edge 31, Type (0, 0), None
#     Edge 32, Type (0, 0), None
#     Edge 33, Type (0, 0), None
#     Edge 34, Type (0, 0), None
#     Edge 35, Type (0, 0), None
#     Edge 36, Type (0, 0), None
#     Edge 37, Type (0, 0), None
#     Edge 38, Type (0, 0), None
#     Edge 39, Type (0, 0), None
#     Edge 40, Type (0, 0), None
#     Edge 41, Type (0, 0), None
#     Edge 42, Type (0, 0), None
#     Edge 43, Type (0, 0), None
#     Edge 44, Type (0, 0), None
#     Edge 45, Type (0, 0), None
#     Edge 46, Type (0, 0), None
#     Edge 47, Type (0, 0), None
#     Edge 48, Type (0, 0), None
#     Edge 49, Type (0, 0), None
#     Edge 50, Type (0, 0), None
#     Edge 51, Type (0, 0), None
#     Edge 52, Type (0, 0), None
#     Edge 53, Type (0, 0), None
#     Edge 54, Type (0, 0), None
#     Edge 55, Type (0, 0), None
#     Edge 56, Type (0, 0), None
#     Edge 57, Type (0, 0), None
#     Edge 58, Type (0, 0), None
#     Edge 59, Type (0, 0), None
#     Edge 60, Type (0, 0), None
#     Edge 61, Type (0, 0), None
#     Edge 62, Type (0, 0), None
#     Edge 63, Type (0, 0), None
#     Edge 64, Type (0, 0), None
#     Edge 65, Type (0, 0), None
#     Edge 66, Type (0, 0), None
#     Edge 67, Type (0, 0), None
#     Edge 68, Type (0, 0), None
#     Edge 69, Type (0, 0), None
#     Edge 70, Type (0, 0), None
#     Edge 71, Type (0, 0), None
# Relax obj value: 0.018
# Max RMSD: 0.033
# Mean RMSD: 0.029
data_MOF--net-rhr--node1-MUDLON_clean_sbu_0--edge1-none
_symmetry_space_group_name_H-M    P1
_symmetry_Int_Tables_number       1
_symmetry_cell_setting            triclinic
loop_
_symmetry_equiv_pos_as_xyz
'x, y, z'
_cell_length_a     24.562621
_cell_length_b     23.56564
_cell_length_c     23.381462
_cell_angle_alpha  89.161369
_cell_angle_beta   89.264924
_cell_angle_gamma 90.260714
loop_
_atom_site_label
_atom_site_type_symbol
_atom_site_fract_x
_atom_site_fract_y
_atom_site_fract_z
_atom_type_partial_charge
Mg0 Mg 0.35552 0.08672 0.37365 0.0
C1 C 0.40687 0.96897 0.36888 0.0
O2 O 0.35583 0.95232 0.36779 0.0
C3 C 0.33572 0.17792 0.46619 0.0
O4 O 0.33037 0.21317 0.42263 0.0
C5 C 0.3866 0.12596 0.25434 0.0
O6 O 0.38555 0.07109 0.24536 0.0
O7 O 0.3739 0.14462 0.30355 0.0
O8 O 0.41804 1.02153 0.37382 0.0
O9 O 0.28057 0.04185 0.35963 0.0
C10 C 0.24086 0.04933 0.39378 0.0
O11 O 0.24097 0.09388 0.42685 0.0
O12 O 0.34901 0.12661 0.45724 0.0
Mg13 Mg 0.01661 0.34223 0.37878 0.0
C14 C 0.9296 0.44056 0.40206 0.0
O15 O 0.95674 0.45883 0.44622 0.0
C16 C 0.09828 0.29904 0.45676 0.0
O17 O 0.09649 0.26086 0.41644 0.0
C18 C 0.10765 0.40593 0.32241 0.0
O19 O 0.11014 0.41964 0.37651 0.0
O20 O 0.07174 0.36977 0.30743 0.0
O21 O 0.94764 0.39944 0.37305 0.0
O22 O 0.96893 0.26307 0.38534 0.0
C23 C 0.96189 0.24091 0.43515 0.0
O24 O 0.99375 0.25642 0.47665 0.0
O25 O 0.06734 0.34213 0.45383 0.0
Mg26 Mg 0.67174 0.07345 0.34105 0.0
C27 C 0.5895 0.18362 0.31664 0.0
O28 O 0.59068 0.20108 0.36962 0.0
C29 C 0.78083 1.01675 0.38335 0.0
O30 O 0.80113 0.06244 0.35816 0.0
C31 C 0.60645 1.01253 0.24014 0.0
O32 O 0.61374 0.06028 0.21138 0.0
O33 O 0.62724 1.00601 0.28947 0.0
O34 O 0.61584 0.1399 0.30127 0.0
O35 O 0.71245 0.13672 0.39708 0.0
C36 C 0.72106 0.18638 0.41484 0.0
O37 O 0.69658 0.23061 0.3924 0.0
O38 O 0.72965 1.00726 0.38151 0.0
Mg39 Mg 0.03301 0.71863 0.33984 0.0
C40 C 0.08813 0.82631 0.38515 0.0
O41 O 0.04798 0.84626 0.35435 0.0
C42 C 0.96826 0.61605 0.27846 0.0
O43 O 0.01147 0.58424 0.28534 0.0
C44 C 0.92341 0.78599 0.36072 0.0
O45 O 0.92437 0.78739 0.30456 0.0
O46 O 0.9626 0.76299 0.38744 0.0
O47 O 0.09571 0.773 0.38744 0.0
O48 O 0.10174 0.66935 0.29502 0.0
C49 C 0.10319 0.6552 0.24265 0.0
O50 O 0.06515 0.67304 0.20786 0.0
O51 O 0.96824 0.66716 0.29488 0.0
Mg52 Mg 0.37205 0.03209 0.69811 0.0
C53 C 0.45809 0.12166 0.72432 0.0
O54 O 0.41531 0.1548 0.72658 0.0
C55 C 0.33596 0.95334 0.602 0.0
O56 O 0.33192 0.91577 0.6439 0.0
C57 C 0.38908 0.97052 0.80943 0.0
O58 O 0.40916 1.02046 0.8221 0.0
O59 O 0.36715 0.96369 0.76101 0.0
O60 O 0.45233 0.07042 0.70875 0.0
O61 O 0.31197 0.0972 0.71271 0.0
C62 C 0.26689 0.09507 0.68679 0.0
O63 O 0.25398 0.04897 0.65904 0.0
O64 O 0.35596 1.00212 0.61189 0.0
Mg65 Mg 0.00622 0.40499 0.69651 0.0
C66 C 0.91114 0.35653 0.63772 0.0
O67 O 0.90082 0.34439 0.69176 0.0
C68 C 0.08064 0.47796 0.75287 0.0
O69 O 0.06652 0.43759 0.78951 0.0
C70 C 0.11105 0.33949 0.68552 0.0
O71 O 0.12928 0.39068 0.67314 0.0
O72 O 0.06134 0.33263 0.70074 0.0
O73 O 0.95286 0.38683 0.62479 0.0
O74 O 0.95418 0.42093 0.76916 0.0
C75 C 0.91918 0.46025 0.76365 0.0
O76 O 0.91021 0.48254 0.71287 0.0
O77 O 0.0601 0.47807 0.70297 0.0
Mg78 Mg 0.67383 0.98424 0.71253 0.0
C79 C 0.59446 0.89101 0.74508 0.0
O80 O 0.64031 0.86708 0.76037 0.0
C81 C 0.73458 0.07447 0.64543 0.0
O82 O 0.77313 0.05168 0.67651 0.0
C83 C 0.64058 0.03 0.82909 0.0
O84 O 0.60175 0.99191 0.82509 0.0
O85 O 0.68005 0.02976 0.79312 0.0
O86 O 0.5962 0.93848 0.71806 0.0
O87 O 0.73769 0.92602 0.68921 0.0
C88 C 0.73067 0.89396 0.64649 0.0
O89 O 0.6818 0.88877 0.62501 0.0
O90 O 0.68619 0.05424 0.64962 0.0
Mg91 Mg 0.02653 0.76905 0.72022 0.0
C92 C 0.134 0.71385 0.76942 0.0
O93 O 0.1495 0.71345 0.7155 0.0
C94 C 0.95777 0.84174 0.62484 0.0
O95 O 0.98634 0.88686 0.63738 0.0
C96 C 0.96149 0.70195 0.8233 0.0
O97 O 0.00753 0.70214 0.85107 0.0
O98 O 0.95804 0.72679 0.77464 0.0
O99 O 0.08935 0.73719 0.78355 0.0
O100 O 0.09345 0.80342 0.66259 0.0
C101 C 0.1075 0.85478 0.65508 0.0
O102 O 0.08502 0.89495 0.68555 0.0
O103 O 0.96454 0.79502 0.65195 0.0
Mg104 Mg 0.35644 0.38163 0.9793 0.0
C105 C 0.41701 0.27037 0.95588 0.0
O106 O 0.43517 0.27802 1.00778 0.0
C107 C 0.24613 0.41354 1.03073 0.0
O108 O 0.24767 0.45172 0.98929 0.0
C109 C 0.41551 0.39679 0.09176 0.0
O110 O 0.36546 0.39773 0.11207 0.0
O111 O 0.42336 0.39808 0.03774 0.0
O112 O 0.38129 0.30402 0.93567 0.0
O113 O 0.34044 0.44691 0.91419 0.0
C114 C 0.31862 0.43105 0.86789 0.0
O115 O 0.31334 0.37649 0.85863 0.0
O116 O 0.28313 0.37582 0.03317 0.0
Mg117 Mg 0.72964 0.32664 0.03342 0.0
C118 C 0.62408 0.2631 0.08693 0.0
O119 O 0.60421 0.26416 0.03517 0.0
C120 C 0.81914 0.41539 0.9851 0.0
O121 O 0.83746 0.41813 0.03742 0.0
C122 C 0.65232 0.31636 0.92811 0.0
O123 O 0.64443 0.36982 0.94081 0.0
O124 O 0.68673 0.2876 0.95653 0.0
O125 O 0.67268 0.27949 0.09557 0.0
O126 O 0.77012 0.36766 0.11061 0.0
C127 C 0.7399 0.39316 0.14631 0.0
O128 O 0.68696 0.3931 0.13921 0.0
O129 O 0.78126 0.38085 0.97274 0.0
Mg130 Mg 0.68123 0.69969 0.08554 0.0
C131 C 0.73364 0.62697 0.18964 0.0
O132 O 0.68496 0.62559 0.21344 0.0
C133 C 0.60706 0.79154 1.01639 0.0
O134 O 0.62733 0.83207 0.04774 0.0
C135 C 0.70256 0.62115 0.97597 0.0
O136 O 0.65312 0.60166 0.98589 0.0
O137 O 0.72264 0.6583 1.00858 0.0
O138 O 0.74199 0.65464 0.14322 0.0
O139 O 0.64432 0.74778 0.16057 0.0
C140 C 0.60407 0.73691 0.19379 0.0
O141 O 0.57683 0.68918 0.18907 0.0
O142 O 0.62086 0.74018 1.02463 0.0
Mg143 Mg 0.33902 0.68399 0.07902 0.0
C144 C 0.24953 0.63231 1.01169 0.0
O145 O 0.27735 0.58661 1.0249 0.0
C146 C 0.37867 0.79319 0.13417 0.0
O147 O 0.39931 0.80284 0.08289 0.0
C148 C 0.34275 0.56648 0.15269 0.0
O149 O 0.3726 0.52499 0.17319 0.0
O150 O 0.36604 0.60487 0.12163 0.0
O151 O 0.26243 0.67915 0.03419 0.0
O152 O 0.39362 0.71285 1.00976 0.0
C153 C 0.39845 0.69512 0.95873 0.0
O154 O 0.37267 0.6491 0.94302 0.0
O155 O 0.34768 0.75022 0.14295 0.0
Mg156 Mg 0.85602 0.57037 0.89354 0.0
C157 C 0.90011 0.48939 0.81471 0.0
O158 O 0.92748 0.48255 0.86216 0.0
C159 C 0.73837 0.59375 0.93396 0.0
O160 O 0.72826 0.54147 0.91862 0.0
C161 C 0.91617 0.66601 0.84387 0.0
O162 O 0.87136 0.66368 0.81393 0.0
O163 O 0.92214 0.6314 0.88566 0.0
O164 O 0.8624 0.52635 0.81274 0.0
O165 O 0.86109 0.50285 0.95707 0.0
C166 C 0.83301 0.45972 0.94335 0.0
O167 O 0.80827 0.45969 0.89392 0.0
O168 O 0.78424 0.61649 0.92184 0.0
Mg169 Mg 0.49186 0.84778 0.89185 0.0
C170 C 0.54356 0.87389 0.77469 0.0
O171 O 0.50113 0.90704 0.76975 0.0
C172 C 0.43059 0.72921 0.91713 0.0
O173 O 0.45278 0.70609 0.87178 0.0
C174 C 0.40511 0.92036 0.84293 0.0
O175 O 0.38961 0.86988 0.82625 0.0
O176 O 0.44521 0.92431 0.87655 0.0
O177 O 0.54551 0.83849 0.81649 0.0
O178 O 0.54933 0.85298 0.96137 0.0
C179 C 0.5693 0.80392 0.96991 0.0
O180 O 0.55505 0.76245 0.93622 0.0
O181 O 0.43883 0.78126 0.92784 0.0
Mg182 Mg 0.20885 0.56946 0.84724 0.0
C183 C 0.15888 0.67459 0.81035 0.0
O184 O 0.13065 0.65884 0.85601 0.0
C185 C 0.28496 0.4711 0.83502 0.0
O186 O 0.24365 0.45091 0.80647 0.0
C187 C 0.12251 0.51885 0.76942 0.0
O188 O 0.14044 0.55754 0.73278 0.0
O189 O 0.14328 0.51474 0.81902 0.0
O190 O 0.20085 0.64633 0.79644 0.0
O191 O 0.2043 0.5855 0.93819 0.0
C192 C 0.21913 0.63282 0.95829 0.0
O193 O 0.22491 0.67683 0.92365 0.0
O194 O 0.28538 0.52332 0.84772 0.0
Mg195 Mg 0.54918 0.17853 0.86943 0.0
C196 C 0.50744 0.13747 0.75541 0.0
O197 O 0.54528 0.09907 0.7628 0.0
C198 C 0.61219 0.28655 0.8932 0.0
O199 O 0.56446 0.3098 0.88448 0.0
C200 C 0.62855 0.08305 0.85904 0.0
O201 O 0.66126 0.12666 0.85055 0.0
O202 O 0.57985 0.0919 0.87613 0.0
O203 O 0.50596 0.18025 0.78806 0.0
O204 O 0.48934 0.20686 0.93342 0.0
C205 C 0.4464 0.23226 0.91692 0.0
O206 O 0.43512 0.23403 0.86222 0.0
O207 O 0.61856 0.23411 0.88346 0.0
Mg208 Mg 0.83662 0.497 0.26056 0.0
C209 C 0.91606 0.59014 0.26485 0.0
O210 O 0.87139 0.61432 0.28365 0.0
C211 C 0.76328 0.42606 0.19294 0.0
O212 O 0.73047 0.44888 0.23084 0.0
C213 C 0.88521 0.47414 0.37729 0.0
O214 O 0.88752 0.52965 0.38035 0.0
O215 O 0.85642 0.45125 0.33885 0.0
O216 O 0.91371 0.53999 0.24588 0.0
O217 O 0.77224 0.5603 0.25612 0.0
C218 C 0.77643 0.58853 0.20941 0.0
O219 O 0.81791 0.57863 0.17499 0.0
O220 O 0.81406 0.4369 0.1948 0.0
Mg221 Mg 0.49338 0.86303 0.252 0.0
C222 C 0.40227 0.82215 0.18337 0.0
O223 O 0.38955 0.80397 0.23523 0.0
C224 C 0.56745 0.96994 0.22034 0.0
O225 O 0.53884 0.97878 0.17404 0.0
C226 C 0.58175 0.78411 0.22682 0.0
O227 O 0.60489 0.83405 0.22007 0.0
O228 O 0.53437 0.78112 0.24945 0.0
O229 O 0.44349 0.85475 0.17636 0.0
O230 O 0.43738 0.88743 0.32034 0.0
C231 C 0.44998 0.93053 0.34977 0.0
O232 O 0.50035 0.94927 0.34847 0.0
O233 O 0.55657 0.92807 0.25326 0.0
Mg234 Mg 0.1758 0.50131 0.17181 0.0
C235 C 0.28333 0.56418 0.16231 0.0
O236 O 0.25195 0.60301 0.13946 0.0
C237 C 0.14278 0.43779 0.28108 0.0
O238 O 0.17836 0.47412 0.3008 0.0
C239 C 0.21262 0.42412 0.08202 0.0
O240 O 0.22291 0.39543 0.12921 0.0
O241 O 0.18514 0.4697 0.0854 0.0
O242 O 0.26177 0.52023 0.18611 0.0
O243 O 0.13046 0.5803 0.18113 0.0
C244 C 0.14035 0.60975 0.22508 0.0
O245 O 0.17879 0.59325 0.26003 0.0
O246 O 0.13494 0.4367 0.22748 0.0
Mg247 Mg 0.48521 0.27255 0.20209 0.0
C248 C 0.58705 0.25979 0.1362 0.0
O249 O 0.60349 0.28077 0.18473 0.0
C250 C 0.41408 0.16426 0.21325 0.0
O251 O 0.44385 0.1435 0.17152 0.0
C252 C 0.45898 0.37432 0.12833 0.0
O253 O 0.50544 0.3604 0.10412 0.0
O254 O 0.44572 0.35157 0.17634 0.0
O255 O 0.53676 0.2485 0.13003 0.0
O256 O 0.53571 0.25992 0.27742 0.0
C257 C 0.55272 0.20894 0.27485 0.0
O258 O 0.53912 0.17817 0.2309 0.0
O259 O 0.41981 0.21566 0.22727 0.0
Mg260 Mg 0.83677 0.8736 0.49881 0.0
C261 C 0.77833 0.88046 0.61103 0.0
O262 O 0.82367 0.90771 0.62148 0.0
C263 C 0.88195 0.81846 0.39203 0.0
O264 O 0.86068 0.86352 0.36763 0.0
C265 C 0.81696 0.97853 0.41577 0.0
O266 O 0.86988 0.98668 0.41473 0.0
O267 O 0.79658 0.93839 0.446 0.0
O268 O 0.77301 0.85574 0.56315 0.0
O269 O 0.90689 0.88993 0.55193 0.0
C270 C 0.91703 0.84427 0.57974 0.0
O271 O 0.88766 0.79876 0.57006 0.0
O272 O 0.87238 0.80816 0.44479 0.0
Mg273 Mg 0.19237 0.91498 0.50576 0.0
C274 C 0.11912 0.86557 0.42088 0.0
O275 O 0.10148 0.91772 0.42658 0.0
C276 C 0.30299 0.94625 0.55041 0.0
O277 O 0.29455 0.99083 0.51745 0.0
C278 C 0.14404 0.86842 0.60734 0.0
O279 O 0.17667 0.829 0.58771 0.0
O280 O 0.13945 0.91465 0.57943 0.0
O281 O 0.16066 0.84984 0.44893 0.0
O282 O 0.19308 0.99679 0.46361 0.0
C283 C 0.21033 0.99892 0.41228 0.0
O284 O 0.21793 0.95126 0.38491 0.0
O285 O 0.27106 0.90369 0.54719 0.0
Mg286 Mg 0.2108 0.23217 0.58299 0.0
C287 C 0.14334 0.29055 0.66756 0.0
O288 O 0.1196 0.24066 0.66451 0.0
C289 C 0.31146 0.19167 0.52217 0.0
O290 O 0.30528 0.15044 0.56002 0.0
C291 C 0.13333 0.28983 0.50579 0.0
O292 O 0.15114 0.33345 0.53447 0.0
O293 O 0.14925 0.23997 0.51863 0.0
O294 O 0.18873 0.29873 0.64162 0.0
O295 O 0.21163 0.15106 0.62734 0.0
C296 C 0.24004 0.1486 0.67231 0.0
O297 O 0.2589 0.19597 0.69359 0.0
O298 O 0.28328 0.23659 0.52755 0.0
Mg299 Mg 0.82488 0.2178 0.55291 0.0
C300 C 0.75895 0.19146 0.46176 0.0
O301 O 0.78789 0.14684 0.47626 0.0
C302 C 0.88198 0.32495 0.59363 0.0
O303 O 0.89957 0.32701 0.54039 0.0
C304 C 0.74783 0.12414 0.60821 0.0
O305 O 0.70891 0.15062 0.58081 0.0
O306 O 0.79693 0.14248 0.60401 0.0
O307 O 0.76427 0.23665 0.48988 0.0
O308 O 0.90098 0.20504 0.50502 0.0
C309 C 0.90866 0.21709 0.45207 0.0
O310 O 0.86679 0.22721 0.41926 0.0
O311 O 0.84706 0.28728 0.60905 0.0
loop_
_geom_bond_atom_site_label_1
_geom_bond_atom_site_label_2
_geom_bond_distance
_geom_bond_site_symmetry_2
_ccdc_geom_bond_type
Mg0 O7 2.141 . S
Mg0 O8 2.048 1_545 S
Mg0 O9 2.048 1_545 S
Mg0 O12 2.141 . S
C1 O2 1.313 . S
C1 O8 1.195 . S
O2 C1 1.313 . S
C3 O4 1.245 . S
C3 O12 1.289 . S
O4 C3 1.245 . S
C5 O6 1.245 . S
C5 O7 1.289 . S
O6 C5 1.245 . S
O7 Mg0 2.141 . S
O7 C5 1.289 . S
O8 Mg0 2.048 1_565 S
O8 C1 1.195 . S
O9 Mg0 2.048 1_565 S
O9 C10 1.195 . S
C10 O9 1.195 . S
C10 O11 1.313 . S
O11 C10 1.313 . S
O12 Mg0 2.141 . S
O12 C3 1.289 . S
Mg13 O20 2.141 . S
Mg13 O21 2.048 1_455 S
Mg13 O22 2.048 1_455 S
Mg13 O25 2.141 . S
C14 O15 1.313 . S
C14 O21 1.195 . S
O15 C14 1.313 . S
C16 O17 1.245 . S
C16 O25 1.289 . S
O17 C16 1.245 . S
C18 O19 1.245 . S
C18 O20 1.289 . S
O19 C18 1.245 . S
O20 Mg13 2.141 . S
O20 C18 1.289 . S
O21 Mg13 2.048 1_655 S
O21 C14 1.195 . S
O22 Mg13 2.048 1_655 S
O22 C23 1.195 . S
C23 O22 1.195 . S
C23 O24 1.313 . S
O24 C23 1.313 . S
O25 Mg13 2.141 . S
O25 C16 1.289 . S
Mg26 O33 2.141 1_545 S
Mg26 O34 2.048 . S
Mg26 O35 2.048 . S
Mg26 O38 2.141 1_545 S
C27 O28 1.313 . S
C27 O34 1.195 . S
O28 C27 1.313 . S
C29 O30 1.245 . S
C29 O38 1.289 . S
O30 C29 1.245 . S
C31 O32 1.245 . S
C31 O33 1.289 . S
O32 C31 1.245 . S
O33 Mg26 2.141 1_565 S
O33 C31 1.289 . S
O34 Mg26 2.048 . S
O34 C27 1.195 . S
O35 Mg26 2.048 . S
O35 C36 1.195 . S
C36 O35 1.195 . S
C36 O37 1.313 . S
O37 C36 1.313 . S
O38 Mg26 2.141 1_565 S
O38 C29 1.289 . S
Mg39 O46 2.141 1_455 S
Mg39 O47 2.048 . S
Mg39 O48 2.048 . S
Mg39 O51 2.141 1_455 S
C40 O41 1.313 . S
C40 O47 1.195 . S
O41 C40 1.313 . S
C42 O43 1.245 . S
C42 O51 1.289 . S
O43 C42 1.245 . S
C44 O45 1.245 . S
C44 O46 1.289 . S
O45 C44 1.245 . S
O46 Mg39 2.141 1_655 S
O46 C44 1.289 . S
O47 Mg39 2.048 . S
O47 C40 1.195 . S
O48 Mg39 2.048 . S
O48 C49 1.195 . S
C49 O48 1.195 . S
C49 O50 1.313 . S
O50 C49 1.313 . S
O51 Mg39 2.141 1_655 S
O51 C42 1.289 . S
Mg52 O59 2.141 1_545 S
Mg52 O60 2.048 . S
Mg52 O61 2.048 . S
Mg52 O64 2.141 1_545 S
C53 O54 1.313 . S
C53 O60 1.195 . S
O54 C53 1.313 . S
C55 O56 1.245 . S
C55 O64 1.289 . S
O56 C55 1.245 . S
C57 O58 1.245 . S
C57 O59 1.289 . S
O58 C57 1.245 . S
O59 Mg52 2.141 1_565 S
O59 C57 1.289 . S
O60 Mg52 2.048 . S
O60 C53 1.195 . S
O61 Mg52 2.048 . S
O61 C62 1.195 . S
C62 O61 1.195 . S
C62 O63 1.313 . S
O63 C62 1.313 . S
O64 Mg52 2.141 1_565 S
O64 C55 1.289 . S
Mg65 O72 2.141 . S
Mg65 O73 2.048 1_455 S
Mg65 O74 2.048 1_455 S
Mg65 O77 2.141 . S
C66 O67 1.313 . S
C66 O73 1.195 . S
O67 C66 1.313 . S
C68 O69 1.245 . S
C68 O77 1.289 . S
O69 C68 1.245 . S
C70 O71 1.245 . S
C70 O72 1.289 . S
O71 C70 1.245 . S
O72 Mg65 2.141 . S
O72 C70 1.289 . S
O73 Mg65 2.048 1_655 S
O73 C66 1.195 . S
O74 Mg65 2.048 1_655 S
O74 C75 1.195 . S
C75 O74 1.195 . S
C75 O76 1.313 . S
O76 C75 1.313 . S
O77 Mg65 2.141 . S
O77 C68 1.289 . S
Mg78 O85 2.141 . S
Mg78 O86 2.048 1_545 S
Mg78 O87 2.048 1_545 S
Mg78 O90 2.141 . S
C79 O80 1.313 . S
C79 O86 1.195 . S
O80 C79 1.313 . S
C81 O82 1.245 . S
C81 O90 1.289 . S
O82 C81 1.245 . S
C83 O84 1.245 . S
C83 O85 1.289 . S
O84 C83 1.245 . S
O85 Mg78 2.141 . S
O85 C83 1.289 . S
O86 Mg78 2.048 1_565 S
O86 C79 1.195 . S
O87 Mg78 2.048 1_565 S
O87 C88 1.195 . S
C88 O87 1.195 . S
C88 O89 1.313 . S
O89 C88 1.313 . S
O90 Mg78 2.141 . S
O90 C81 1.289 . S
Mg91 O98 2.141 1_455 S
Mg91 O99 2.048 . S
Mg91 O100 2.048 . S
Mg91 O103 2.141 1_455 S
C92 O93 1.313 . S
C92 O99 1.195 . S
O93 C92 1.313 . S
C94 O95 1.245 . S
C94 O103 1.289 . S
O95 C94 1.245 . S
C96 O97 1.245 . S
C96 O98 1.289 . S
O97 C96 1.245 . S
O98 Mg91 2.141 1_655 S
O98 C96 1.289 . S
O99 Mg91 2.048 . S
O99 C92 1.195 . S
O100 Mg91 2.048 . S
O100 C101 1.195 . S
C101 O100 1.195 . S
C101 O102 1.313 . S
O102 C101 1.313 . S
O103 Mg91 2.141 1_655 S
O103 C94 1.289 . S
Mg104 O111 2.141 . S
Mg104 O112 2.048 1_554 S
Mg104 O113 2.048 1_554 S
Mg104 O116 2.141 . S
C105 O106 1.313 . S
C105 O112 1.195 . S
O106 C105 1.313 . S
C107 O108 1.245 . S
C107 O116 1.289 . S
O108 C107 1.245 . S
C109 O110 1.245 . S
C109 O111 1.289 . S
O110 C109 1.245 . S
O111 Mg104 2.141 . S
O111 C109 1.289 . S
O112 Mg104 2.048 1_556 S
O112 C105 1.195 . S
O113 Mg104 2.048 1_556 S
O113 C114 1.195 . S
C114 O113 1.195 . S
C114 O115 1.313 . S
O115 C114 1.313 . S
O116 Mg104 2.141 . S
O116 C107 1.289 . S
Mg117 O124 2.141 1_554 S
Mg117 O125 2.048 . S
Mg117 O126 2.048 . S
Mg117 O129 2.141 1_554 S
C118 O119 1.313 . S
C118 O125 1.195 . S
O119 C118 1.313 . S
C120 O121 1.245 . S
C120 O129 1.289 . S
O121 C120 1.245 . S
C122 O123 1.245 . S
C122 O124 1.289 . S
O123 C122 1.245 . S
O124 Mg117 2.141 1_556 S
O124 C122 1.289 . S
O125 Mg117 2.048 . S
O125 C118 1.195 . S
O126 Mg117 2.048 . S
O126 C127 1.195 . S
C127 O126 1.195 . S
C127 O128 1.313 . S
O128 C127 1.313 . S
O129 Mg117 2.141 1_556 S
O129 C120 1.289 . S
Mg130 O137 2.141 1_554 S
Mg130 O138 2.048 . S
Mg130 O139 2.048 . S
Mg130 O142 2.141 1_554 S
C131 O132 1.313 . S
C131 O138 1.195 . S
O132 C131 1.313 . S
C133 O134 1.245 . S
C133 O142 1.289 . S
O134 C133 1.245 . S
C135 O136 1.245 . S
C135 O137 1.289 . S
O136 C135 1.245 . S
O137 Mg130 2.141 1_556 S
O137 C135 1.289 . S
O138 Mg130 2.048 . S
O138 C131 1.195 . S
O139 Mg130 2.048 . S
O139 C140 1.195 . S
C140 O139 1.195 . S
C140 O141 1.313 . S
O141 C140 1.313 . S
O142 Mg130 2.141 1_556 S
O142 C133 1.289 . S
Mg143 O150 2.141 . S
Mg143 O151 2.048 1_554 S
Mg143 O152 2.048 1_554 S
Mg143 O155 2.141 . S
C144 O145 1.313 . S
C144 O151 1.195 . S
O145 C144 1.313 . S
C146 O147 1.245 . S
C146 O155 1.289 . S
O147 C146 1.245 . S
C148 O149 1.245 . S
C148 O150 1.289 . S
O149 C148 1.245 . S
O150 Mg143 2.141 . S
O150 C148 1.289 . S
O151 Mg143 2.048 1_556 S
O151 C144 1.195 . S
O152 Mg143 2.048 1_556 S
O152 C153 1.195 . S
C153 O152 1.195 . S
C153 O154 1.313 . S
O154 C153 1.313 . S
O155 Mg143 2.141 . S
O155 C146 1.289 . S
Mg156 O163 2.141 . S
Mg156 O164 2.048 . S
Mg156 O165 2.048 . S
Mg156 O168 2.141 . S
C157 O158 1.313 . S
C157 O164 1.195 . S
O158 C157 1.313 . S
C159 O160 1.245 . S
C159 O168 1.289 . S
O160 C159 1.245 . S
C161 O162 1.245 . S
C161 O163 1.289 . S
O162 C161 1.245 . S
O163 Mg156 2.141 . S
O163 C161 1.289 . S
O164 Mg156 2.048 . S
O164 C157 1.195 . S
O165 Mg156 2.048 . S
O165 C166 1.195 . S
C166 O165 1.195 . S
C166 O167 1.313 . S
O167 C166 1.313 . S
O168 Mg156 2.141 . S
O168 C159 1.289 . S
Mg169 O176 2.141 . S
Mg169 O177 2.048 . S
Mg169 O178 2.048 . S
Mg169 O181 2.141 . S
C170 O171 1.313 . S
C170 O177 1.195 . S
O171 C170 1.313 . S
C172 O173 1.245 . S
C172 O181 1.289 . S
O173 C172 1.245 . S
C174 O175 1.245 . S
C174 O176 1.289 . S
O175 C174 1.245 . S
O176 Mg169 2.141 . S
O176 C174 1.289 . S
O177 Mg169 2.048 . S
O177 C170 1.195 . S
O178 Mg169 2.048 . S
O178 C179 1.195 . S
C179 O178 1.195 . S
C179 O180 1.313 . S
O180 C179 1.313 . S
O181 Mg169 2.141 . S
O181 C172 1.289 . S
Mg182 O189 2.141 . S
Mg182 O190 2.048 . S
Mg182 O191 2.048 . S
Mg182 O194 2.141 . S
C183 O184 1.313 . S
C183 O190 1.195 . S
O184 C183 1.313 . S
C185 O186 1.245 . S
C185 O194 1.289 . S
O186 C185 1.245 . S
C187 O188 1.245 . S
C187 O189 1.289 . S
O188 C187 1.245 . S
O189 Mg182 2.141 . S
O189 C187 1.289 . S
O190 Mg182 2.048 . S
O190 C183 1.195 . S
O191 Mg182 2.048 . S
O191 C192 1.195 . S
C192 O191 1.195 . S
C192 O193 1.313 . S
O193 C192 1.313 . S
O194 Mg182 2.141 . S
O194 C185 1.289 . S
Mg195 O202 2.141 . S
Mg195 O203 2.048 . S
Mg195 O204 2.048 . S
Mg195 O207 2.141 . S
C196 O197 1.313 . S
C196 O203 1.195 . S
O197 C196 1.313 . S
C198 O199 1.245 . S
C198 O207 1.289 . S
O199 C198 1.245 . S
C200 O201 1.245 . S
C200 O202 1.289 . S
O201 C200 1.245 . S
O202 Mg195 2.141 . S
O202 C200 1.289 . S
O203 Mg195 2.048 . S
O203 C196 1.195 . S
O204 Mg195 2.048 . S
O204 C205 1.195 . S
C205 O204 1.195 . S
C205 O206 1.313 . S
O206 C205 1.313 . S
O207 Mg195 2.141 . S
O207 C198 1.289 . S
Mg208 O215 2.141 . S
Mg208 O216 2.048 . S
Mg208 O217 2.048 . S
Mg208 O220 2.141 . S
C209 O210 1.313 . S
C209 O216 1.195 . S
O210 C209 1.313 . S
C211 O212 1.245 . S
C211 O220 1.289 . S
O212 C211 1.245 . S
C213 O214 1.245 . S
C213 O215 1.289 . S
O214 C213 1.245 . S
O215 Mg208 2.141 . S
O215 C213 1.289 . S
O216 Mg208 2.048 . S
O216 C209 1.195 . S
O217 Mg208 2.048 . S
O217 C218 1.195 . S
C218 O217 1.195 . S
C218 O219 1.313 . S
O219 C218 1.313 . S
O220 Mg208 2.141 . S
O220 C211 1.289 . S
Mg221 O228 2.141 . S
Mg221 O229 2.048 . S
Mg221 O230 2.048 . S
Mg221 O233 2.141 . S
C222 O223 1.313 . S
C222 O229 1.195 . S
O223 C222 1.313 . S
C224 O225 1.245 . S
C224 O233 1.289 . S
O225 C224 1.245 . S
C226 O227 1.245 . S
C226 O228 1.289 . S
O227 C226 1.245 . S
O228 Mg221 2.141 . S
O228 C226 1.289 . S
O229 Mg221 2.048 . S
O229 C222 1.195 . S
O230 Mg221 2.048 . S
O230 C231 1.195 . S
C231 O230 1.195 . S
C231 O232 1.313 . S
O232 C231 1.313 . S
O233 Mg221 2.141 . S
O233 C224 1.289 . S
Mg234 O241 2.141 . S
Mg234 O242 2.048 . S
Mg234 O243 2.048 . S
Mg234 O246 2.141 . S
C235 O236 1.313 . S
C235 O242 1.195 . S
O236 C235 1.313 . S
C237 O238 1.245 . S
C237 O246 1.289 . S
O238 C237 1.245 . S
C239 O240 1.245 . S
C239 O241 1.289 . S
O240 C239 1.245 . S
O241 Mg234 2.141 . S
O241 C239 1.289 . S
O242 Mg234 2.048 . S
O242 C235 1.195 . S
O243 Mg234 2.048 . S
O243 C244 1.195 . S
C244 O243 1.195 . S
C244 O245 1.313 . S
O245 C244 1.313 . S
O246 Mg234 2.141 . S
O246 C237 1.289 . S
Mg247 O254 2.141 . S
Mg247 O255 2.048 . S
Mg247 O256 2.048 . S
Mg247 O259 2.141 . S
C248 O249 1.313 . S
C248 O255 1.195 . S
O249 C248 1.313 . S
C250 O251 1.245 . S
C250 O259 1.289 . S
O251 C250 1.245 . S
C252 O253 1.245 . S
C252 O254 1.289 . S
O253 C252 1.245 . S
O254 Mg247 2.141 . S
O254 C252 1.289 . S
O255 Mg247 2.048 . S
O255 C248 1.195 . S
O256 Mg247 2.048 . S
O256 C257 1.195 . S
C257 O256 1.195 . S
C257 O258 1.313 . S
O258 C257 1.313 . S
O259 Mg247 2.141 . S
O259 C250 1.289 . S
Mg260 O267 2.141 . S
Mg260 O268 2.048 . S
Mg260 O269 2.048 . S
Mg260 O272 2.141 . S
C261 O262 1.313 . S
C261 O268 1.195 . S
O262 C261 1.313 . S
C263 O264 1.245 . S
C263 O272 1.289 . S
O264 C263 1.245 . S
C265 O266 1.245 . S
C265 O267 1.289 . S
O266 C265 1.245 . S
O267 Mg260 2.141 . S
O267 C265 1.289 . S
O268 Mg260 2.048 . S
O268 C261 1.195 . S
O269 Mg260 2.048 . S
O269 C270 1.195 . S
C270 O269 1.195 . S
C270 O271 1.313 . S
O271 C270 1.313 . S
O272 Mg260 2.141 . S
O272 C263 1.289 . S
Mg273 O280 2.141 . S
Mg273 O281 2.048 . S
Mg273 O282 2.048 . S
Mg273 O285 2.141 . S
C274 O275 1.313 . S
C274 O281 1.195 . S
O275 C274 1.313 . S
C276 O277 1.245 . S
C276 O285 1.289 . S
O277 C276 1.245 . S
C278 O279 1.245 . S
C278 O280 1.289 . S
O279 C278 1.245 . S
O280 Mg273 2.141 . S
O280 C278 1.289 . S
O281 Mg273 2.048 . S
O281 C274 1.195 . S
O282 Mg273 2.048 . S
O282 C283 1.195 . S
C283 O282 1.195 . S
C283 O284 1.313 . S
O284 C283 1.313 . S
O285 Mg273 2.141 . S
O285 C276 1.289 . S
Mg286 O293 2.141 . S
Mg286 O294 2.048 . S
Mg286 O295 2.048 . S
Mg286 O298 2.141 . S
C287 O288 1.313 . S
C287 O294 1.195 . S
O288 C287 1.313 . S
C289 O290 1.245 . S
C289 O298 1.289 . S
O290 C289 1.245 . S
C291 O292 1.245 . S
C291 O293 1.289 . S
O292 C291 1.245 . S
O293 Mg286 2.141 . S
O293 C291 1.289 . S
O294 Mg286 2.048 . S
O294 C287 1.195 . S
O295 Mg286 2.048 . S
O295 C296 1.195 . S
C296 O295 1.195 . S
C296 O297 1.313 . S
O297 C296 1.313 . S
O298 Mg286 2.141 . S
O298 C289 1.289 . S
Mg299 O306 2.141 . S
Mg299 O307 2.048 . S
Mg299 O308 2.048 . S
Mg299 O311 2.141 . S
C300 O301 1.313 . S
C300 O307 1.195 . S
O301 C300 1.313 . S
C302 O303 1.245 . S
C302 O311 1.289 . S
O303 C302 1.245 . S
C304 O305 1.245 . S
C304 O306 1.289 . S
O305 C304 1.245 . S
O306 Mg299 2.141 . S
O306 C304 1.289 . S
O307 Mg299 2.048 . S
O307 C300 1.195 . S
O308 Mg299 2.048 . S
O308 C309 1.195 . S
C309 O308 1.195 . S
C309 O310 1.313 . S
O310 C309 1.313 . S
O311 Mg299 2.141 . S
O311 C302 1.289 . S
C289 C3 2.222 . S
C23 C309 1.864 . S
C265 C29 2.002 . S
C274 C40 2.263 . S
C276 C55 2.316 . S
C70 C287 1.937 . S
C304 C81 2.044 . S
C94 C270 1.993 . S
C109 C252 1.776 . S
C211 C127 2.107 . S
C140 C226 1.800 . S
C235 C148 1.962 . S
C153 C172 2.053 . S
C114 C185 2.049 . S
C198 C122 2.033 . S
C135 C159 1.963 . S
C18 C237 1.966 . S
C183 C92 2.159 . S
C53 C196 2.172 . S
C157 C75 1.977 . S
C79 C170 2.179 . S
C42 C209 2.298 . S
C1 C231 1.991 . S
C27 C257 1.964 . S
C88 C261 1.971 . S
C278 C101 2.244 . S
C296 C62 2.122 . S
C302 C66 1.885 . S
C36 C300 2.040 . S
C44 C263 1.983 . S
C10 C283 2.171 . S
C291 C16 1.954 . S
C133 C179 2.001 . S
C144 C192 2.107 . S
C105 C205 1.971 . S
C120 C166 1.943 . S
C118 C248 1.858 . S
C218 C131 2.049 . S
C146 C222 1.865 . S
C107 C239 1.937 . S
C161 C96 2.230 . S
C213 C14 2.002 . S
C31 C224 2.047 . S
C244 C49 2.160 . S
C250 C5 2.053 . S
C68 C187 2.084 . S
C200 C83 2.257 . S
C174 C57 2.230 . S
