# Generated by pormake.
# Topology tfs, (6)-cn, num edge types: 1
# Building blocks:
#     Node 0, Type 0, BuildingBlock: CIFDUS_clean_sbu_1, # of connection points: 6
#     Node 1, Type 0, BuildingBlock: CIFDUS_clean_sbu_1, # of connection points: 6
#     Node 2, Type 0, BuildingBlock: CIFDUS_clean_sbu_1, # of connection points: 6
#     Node 3, Type 0, BuildingBlock: CIFDUS_clean_sbu_1, # of connection points: 6
#     Node 4, Type 0, BuildingBlock: CIFDUS_clean_sbu_1, # of connection points: 6
#     Node 5, Type 0, BuildingBlock: CIFDUS_clean_sbu_1, # of connection points: 6
#     Edge 6, Type (0, 0), BuildingBlock: FUNLAD_clean_linker_1, # of connection points: 2
#     Edge 7, Type (0, 0), BuildingBlock: FUNLAD_clean_linker_1, # of connection points: 2
#     Edge 8, Type (0, 0), BuildingBlock: FUNLAD_clean_linker_1, # of connection points: 2
#     Edge 9, Type (0, 0), BuildingBlock: FUNLAD_clean_linker_1, # of connection points: 2
#     Edge 10, Type (0, 0), BuildingBlock: FUNLAD_clean_linker_1, # of connection points: 2
#     Edge 11, Type (0, 0), BuildingBlock: FUNLAD_clean_linker_1, # of connection points: 2
#     Edge 12, Type (0, 0), BuildingBlock: FUNLAD_clean_linker_1, # of connection points: 2
#     Edge 13, Type (0, 0), BuildingBlock: FUNLAD_clean_linker_1, # of connection points: 2
#     Edge 14, Type (0, 0), BuildingBlock: FUNLAD_clean_linker_1, # of connection points: 2
#     Edge 15, Type (0, 0), BuildingBlock: FUNLAD_clean_linker_1, # of connection points: 2
#     Edge 16, Type (0, 0), BuildingBlock: FUNLAD_clean_linker_1, # of connection points: 2
#     Edge 17, Type (0, 0), BuildingBlock: FUNLAD_clean_linker_1, # of connection points: 2
#     Edge 18, Type (0, 0), BuildingBlock: FUNLAD_clean_linker_1, # of connection points: 2
#     Edge 19, Type (0, 0), BuildingBlock: FUNLAD_clean_linker_1, # of connection points: 2
#     Edge 20, Type (0, 0), BuildingBlock: FUNLAD_clean_linker_1, # of connection points: 2
#     Edge 21, Type (0, 0), BuildingBlock: FUNLAD_clean_linker_1, # of connection points: 2
#     Edge 22, Type (0, 0), BuildingBlock: FUNLAD_clean_linker_1, # of connection points: 2
#     Edge 23, Type (0, 0), BuildingBlock: FUNLAD_clean_linker_1, # of connection points: 2
# Relax obj value: 0.214
# Max RMSD: 0.172
# Mean RMSD: 0.172
data_MOF--net-tfs--node1-CIFDUS_clean_sbu_1--edge1-FUNLAD_clean_linker_1
_symmetry_space_group_name_H-M    P1
_symmetry_Int_Tables_number       1
_symmetry_cell_setting            triclinic
loop_
_symmetry_equiv_pos_as_xyz
'x, y, z'
_cell_length_a     43.912351
_cell_length_b     43.799646
_cell_length_c     16.571173
_cell_angle_alpha  90.133202
_cell_angle_beta   89.838783
_cell_angle_gamma 119.91842
loop_
_atom_site_label
_atom_site_type_symbol
_atom_site_fract_x
_atom_site_fract_y
_atom_site_fract_z
_atom_type_partial_charge
O0 O 0.20581 0.41183 0.87845 0.0
Mn1 Mn 0.20835 0.4242 0.00433 0.0
O2 O 0.16486 0.42268 0.8251 0.0
Mn3 Mn 0.15004 0.43241 0.92141 0.0
O4 O 0.21018 0.43636 0.13198 0.0
O5 O 0.22992 0.39275 0.0293 0.0
Mn6 Mn 0.26454 0.41969 0.09808 0.0
O7 O 0.25665 0.46901 0.98269 0.0
O8 O 0.24171 0.41551 0.1935 0.0
O9 O 0.15812 0.37924 0.02291 0.0
O10 O 0.11836 0.39351 0.9784 0.0
O11 O 0.27814 0.39097 0.05256 0.0
O12 O 0.29433 0.4657 0.0667 0.0
C13 C 0.18151 0.48193 0.97883 0.0
C14 C 0.18812 0.41358 0.81778 0.0
C15 C 0.22118 0.42809 0.19686 0.0
C16 C 0.25078 0.3809 0.00732 0.0
C17 C 0.28701 0.48195 0.01434 0.0
C18 C 0.1262 0.3724 0.01244 0.0
O19 O 0.18751 0.45573 0.98253 0.0
O20 O 0.15366 0.47541 0.93862 0.0
O21 O 0.79655 0.21194 0.88173 0.0
Mn22 Mn 0.78605 0.20476 0.00754 0.0
O23 O 0.74965 0.16783 0.81873 0.0
Mn24 Mn 0.72499 0.14503 0.91057 0.0
O25 O 0.77445 0.19623 0.13347 0.0
O26 O 0.83977 0.23301 0.02953 0.0
Mn27 Mn 0.84117 0.2631 0.1052 0.0
O28 O 0.78196 0.25065 0.00277 0.0
O29 O 0.81895 0.24083 0.19879 0.0
O30 O 0.78799 0.15724 0.01071 0.0
O31 O 0.73662 0.1148 0.95902 0.0
O32 O 0.88605 0.27454 0.09626 0.0
O33 O 0.82956 0.29423 0.06143 0.0
C34 C 0.70142 0.16968 0.97724 0.0
C35 C 0.77945 0.19586 0.81731 0.0
C36 C 0.79017 0.21206 0.1992 0.0
C37 C 0.87396 0.25021 0.0412 0.0
C38 C 0.80174 0.28323 0.02076 0.0
C39 C 0.76553 0.12465 0.99511 0.0
O40 O 0.73411 0.17818 0.98258 0.0
O41 O 0.68291 0.14298 0.93057 0.0
O42 O 0.58656 0.79553 0.87698 0.0
Mn43 Mn 0.57959 0.78405 1.00107 0.0
O44 O 0.57567 0.74579 0.81297 0.0
Mn45 Mn 0.57135 0.72038 0.90433 0.0
O46 O 0.57315 0.77239 0.12595 0.0
O47 O 0.60973 0.83824 0.02027 0.0
Mn48 Mn 0.58209 0.84324 0.09228 0.0
O49 O 0.53225 0.78515 0.99335 0.0
O50 O 0.57843 0.82038 0.18652 0.0
O51 O 0.62591 0.77989 0.00827 0.0
O52 O 0.61243 0.72815 0.94934 0.0
O53 O 0.61804 0.88675 0.08573 0.0
O54 O 0.54095 0.83557 0.04699 0.0
C55 C 0.52481 0.69877 0.9747 0.0
C56 C 0.58366 0.77796 0.81243 0.0
C57 C 0.5742 0.78966 0.18975 0.0
C58 C 0.62882 0.87252 0.0323 0.0
C59 C 0.52199 0.80725 0.00926 0.0
C60 C 0.63317 0.75557 0.98871 0.0
O61 O 0.54948 0.7316 0.97798 0.0
O62 O 0.53088 0.67942 0.92529 0.0
O63 O 0.79583 0.58624 0.87903 0.0
Mn64 Mn 0.79945 0.5799 0.00291 0.0
O65 O 0.83466 0.57441 0.81891 0.0
Mn66 Mn 0.85499 0.57082 0.91196 0.0
O67 O 0.80308 0.57438 0.12954 0.0
O68 O 0.7762 0.61134 0.02104 0.0
Mn69 Mn 0.74328 0.58153 0.09084 0.0
O70 O 0.75276 0.53141 0.99308 0.0
O71 O 0.76603 0.58965 0.18579 0.0
O72 O 0.84991 0.62719 0.00857 0.0
O73 O 0.88783 0.61205 0.95621 0.0
O74 O 0.72378 0.60487 0.05002 0.0
O75 O 0.71352 0.53498 0.06903 0.0
C76 C 0.83014 0.52467 0.98127 0.0
C77 C 0.81073 0.58263 0.81598 0.0
C78 C 0.79006 0.58171 0.19177 0.0
C79 C 0.75157 0.61933 0.00482 0.0
C80 C 0.72206 0.51769 0.02318 0.0
C81 C 0.88159 0.63417 0.99091 0.0
O82 O 0.82164 0.54922 0.98389 0.0
O83 O 0.85615 0.53095 0.93374 0.0
O84 O 0.20522 0.79109 0.88156 0.0
Mn85 Mn 0.21526 0.79455 0.00632 0.0
O86 O 0.25555 0.83124 0.82276 0.0
Mn87 Mn 0.27878 0.85038 0.9173 0.0
O88 O 0.22442 0.79805 0.13267 0.0
O89 O 0.1626 0.77394 0.02627 0.0
Mn90 Mn 0.15238 0.74349 0.1064 0.0
O91 O 0.21146 0.74439 1.00202 0.0
O92 O 0.17096 0.7742 0.19049 0.0
O93 O 0.21962 0.84524 0.01463 0.0
O94 O 0.27209 0.88443 0.96367 0.0
O95 O 0.11195 0.72739 0.04895 0.0
O96 O 0.17121 0.71433 0.09668 0.0
C97 C 0.30172 0.8255 0.97929 0.0
C98 C 0.224 0.80619 0.81881 0.0
C99 C 0.20432 0.79277 0.19449 0.0
C100 C 0.13104 0.75274 0.99983 0.0
C101 C 0.19436 0.71709 0.04702 0.0
C102 C 0.24388 0.87717 0.99974 0.0
O103 O 0.26832 0.81555 0.98627 0.0
O104 O 0.32018 0.85243 0.93301 0.0
O105 O 0.42097 0.20858 0.8778 0.0
Mn106 Mn 0.42552 0.2209 1.00144 0.0
O107 O 0.41901 0.25325 0.81676 0.0
Mn108 Mn 0.42701 0.27954 0.90912 0.0
O109 O 0.42985 0.23399 0.12668 0.0
O110 O 0.39734 0.16679 0.02363 0.0
Mn111 Mn 0.42323 0.16381 0.10312 0.0
O112 O 0.4739 0.22145 0.99954 0.0
O113 O 0.4218 0.18627 0.19407 0.0
O114 O 0.37612 0.2203 0.00285 0.0
O115 O 0.38853 0.27362 0.96171 0.0
O116 O 0.3893 0.11927 0.09198 0.0
O117 O 0.46736 0.17513 0.07001 0.0
C118 C 0.4768 0.30797 0.95605 0.0
C119 C 0.41803 0.22378 0.8144 0.0
C120 C 0.42676 0.21726 0.19302 0.0
C121 C 0.37883 0.13247 0.03567 0.0
C122 C 0.48584 0.20214 0.02741 0.0
C123 C 0.36709 0.2438 0.98978 0.0
O124 O 0.45635 0.27426 0.973 0.0
O125 O 0.46383 0.32293 0.91135 0.0
H126 H 0.31691 0.22519 0.05788 0.0
C127 C 0.33102 0.23779 0.00284 0.0
H128 H 0.33424 0.26634 0.89763 0.0
H129 H 0.20227 0.28112 0.88244 0.0
H130 H 0.19222 0.2423 0.76834 0.0
H131 H 0.22811 0.21388 0.74928 0.0
H132 H 0.27424 0.22397 0.84409 0.0
C133 C 0.32025 0.25551 0.95406 0.0
C134 C 0.29466 0.2674 0.97556 0.0
C135 C 0.26677 0.26029 0.92156 0.0
C136 C 0.246 0.27678 0.93239 0.0
C137 C 0.21898 0.26961 0.87642 0.0
C138 C 0.21286 0.24729 0.8109 0.0
C139 C 0.23306 0.23127 0.80018 0.0
C140 C 0.25956 0.23741 0.85489 0.0
H141 H 0.2519 0.3503 0.90567 0.0
C142 C 0.23926 0.34743 0.96381 0.0
H143 H 0.22082 0.31704 0.06849 0.0
H144 H 0.35228 0.29615 0.0764 0.0
H145 H 0.36412 0.33706 0.18491 0.0
H146 H 0.32316 0.35853 0.21628 0.0
H147 H 0.271 0.34021 0.13666 0.0
C148 C 0.23213 0.31892 0.009 0.0
C149 C 0.25253 0.29995 0.99821 0.0
C150 C 0.28025 0.3068 0.05291 0.0
C151 C 0.30239 0.29208 0.03906 0.0
C152 C 0.33305 0.30416 0.08694 0.0
C153 C 0.3405 0.32812 0.14941 0.0
C154 C 0.31758 0.34036 0.16672 0.0
C155 C 0.28774 0.32977 0.11971 0.0
H156 H 0.08133 0.33679 0.08633 0.0
C157 C 0.09598 0.33777 0.03249 0.0
H158 H 0.0931 0.31854 0.91531 0.0
H159 H 0.93182 0.22156 0.08313 0.0
H160 H 0.95843 0.19953 0.17692 0.0
H161 H 0.02213 0.22108 0.1728 0.0
H162 H 0.05968 0.26527 0.07499 0.0
C163 C 0.07872 0.31574 0.97089 0.0
C164 C 0.03952 0.29798 0.96521 0.0
C165 C 0.01759 0.27081 0.01947 0.0
C166 C 0.98066 0.25794 0.02082 0.0
C167 C 0.95985 0.23225 0.07892 0.0
C168 C 0.97481 0.21924 0.13304 0.0
C169 C 0.01068 0.23138 0.13074 0.0
C170 C 0.03194 0.2568 0.07457 0.0
H171 H 0.89288 0.21986 0.96744 0.0
C172 C 0.89984 0.24524 0.99373 0.0
H173 H 0.93851 0.29811 0.01454 0.0
H174 H 0.07321 0.3493 0.84948 0.0
H175 H 0.0462 0.37082 0.75591 0.0
H176 H 0.98198 0.34626 0.75481 0.0
H177 H 0.94441 0.30003 0.84907 0.0
C178 C 0.93325 0.27255 0.99226 0.0
C179 C 0.96566 0.27213 0.96747 0.0
C180 C 0.98715 0.29684 0.90827 0.0
C181 C 0.02409 0.31024 0.90768 0.0
C182 C 0.04495 0.33729 0.85191 0.0
C183 C 0.02978 0.35008 0.79774 0.0
C184 C 0.99364 0.33633 0.79725 0.0
C185 C 0.97246 0.31001 0.8517 0.0
H186 H 0.75636 0.08327 0.07813 0.0
C187 C 0.77063 0.09571 0.02306 0.0
H188 H 0.78771 0.08823 0.91124 0.0
H189 H 0.69816 0.93017 0.1039 0.0
H190 H 0.73731 0.95606 0.21638 0.0
H191 H 0.78478 0.01806 0.21271 0.0
H192 H 0.79253 0.0547 0.09627 0.0
C193 C 0.77432 0.0755 0.96693 0.0
C194 C 0.74969 0.03639 0.96424 0.0
C195 C 0.74785 0.01415 0.02856 0.0
C196 C 0.72148 0.97776 0.0287 0.0
C197 C 0.71808 0.95745 0.0982 0.0
C198 C 0.74051 0.97206 0.16384 0.0
C199 C 0.76716 0.00697 0.16185 0.0
C200 C 0.77114 0.02777 0.09486 0.0
H201 H 0.68124 0.89136 0.97456 0.0
C202 C 0.66003 0.89692 0.98444 0.0
H203 H 0.64167 0.93298 0.97906 0.0
H204 H 0.74182 0.07144 0.83458 0.0
H205 H 0.7011 0.04574 0.72446 0.0
H206 H 0.66019 0.98169 0.71805 0.0
H207 H 0.65942 0.94311 0.82408 0.0
C208 C 0.66434 0.92937 0.97208 0.0
C209 C 0.69817 0.96304 0.96206 0.0
C210 C 0.70109 0.98496 0.89625 0.0
C211 C 0.72595 0.02169 0.89822 0.0
C212 C 0.725 0.04319 0.83534 0.0
C213 C 0.7014 0.0288 0.77156 0.0
C214 C 0.67829 0.99279 0.7681 0.0
C215 C 0.67804 0.97101 0.82944 0.0
H216 H 0.7861 0.67606 0.97549 0.0
C217 C 0.75949 0.65397 0.9712 0.0
H218 H 0.70578 0.63672 0.95452 0.0
H219 H 0.70424 0.75823 0.14614 0.0
H220 H 0.69181 0.71696 0.25656 0.0
H221 H 0.69712 0.66393 0.23664 0.0
H222 H 0.71726 0.65346 0.10906 0.0
C223 C 0.73215 0.65944 0.95752 0.0
C224 C 0.73312 0.69361 0.97216 0.0
C225 C 0.72066 0.69907 0.04692 0.0
C226 C 0.71421 0.72766 0.05638 0.0
C227 C 0.70611 0.7349 0.13433 0.0
C228 C 0.69945 0.71177 0.19822 0.0
C229 C 0.70254 0.68202 0.18708 0.0
C230 C 0.7138 0.67608 0.11307 0.0
H231 H 0.65367 0.7307 0.06245 0.0
C232 C 0.66276 0.75372 0.02442 0.0
H233 H 0.70031 0.78766 0.9439 0.0
H234 H 0.76287 0.69446 0.82796 0.0
H235 H 0.77367 0.7347 0.71673 0.0
H236 H 0.75849 0.78165 0.72858 0.0
H237 H 0.7332 0.78923 0.85064 0.0
C238 C 0.69417 0.76689 0.98704 0.0
C239 C 0.71515 0.7478 0.98811 0.0
C240 C 0.7314 0.74479 0.91592 0.0
C241 C 0.74045 0.71772 0.90854 0.0
C242 C 0.75553 0.71449 0.83586 0.0
C243 C 0.7619 0.73739 0.77181 0.0
C244 C 0.75329 0.76379 0.7785 0.0
C245 C 0.73825 0.76757 0.84929 0.0
H246 H 0.09841 0.74476 0.89719 0.0
C247 C 0.11147 0.76348 0.94582 0.0
H248 H 0.10629 0.79589 0.03029 0.0
H249 H 0.94712 0.70474 0.8513 0.0
H250 H 0.97465 0.73725 0.72862 0.0
H251 H 0.03841 0.77921 0.72366 0.0
H252 H 0.07516 0.7888 0.84131 0.0
C253 C 0.09329 0.7772 0.98159 0.0
C254 C 0.05387 0.75565 0.98677 0.0
C255 C 0.03255 0.75124 0.91868 0.0
C256 C 0.99565 0.72716 0.9217 0.0
C257 C 0.97523 0.72259 0.85199 0.0
C258 C 0.99067 0.74115 0.78141 0.0
C259 C 0.02659 0.76477 0.77864 0.0
C260 C 0.04739 0.76997 0.84638 0.0
H261 H 0.91084 0.69028 0.03481 0.0
C262 C 0.91336 0.66914 0.00723 0.0
H263 H 0.94765 0.6529 0.95687 0.0
H264 H 0.08548 0.75966 0.13321 0.0
H265 H 0.05862 0.7227 0.24933 0.0
H266 H 0.99554 0.67833 0.25016 0.0
H267 H 0.95875 0.6716 0.13485 0.0
C268 C 0.9454 0.67414 0.98488 0.0
C269 C 0.97994 0.70709 0.99227 0.0
C270 C 1.00101 0.71199 0.06095 0.0
C271 C 0.03772 0.73686 0.05916 0.0
C272 C 0.05777 0.74076 0.12936 0.0
C273 C 0.04263 0.71971 0.19704 0.0
C274 C 0.00713 0.69477 0.19756 0.0
C275 C 0.98636 0.6911 0.13086 0.0
H276 H 0.25708 0.92111 0.08002 0.0
C277 C 0.24145 0.90795 0.02704 0.0
H278 H 0.22217 0.91426 0.91718 0.0
H279 H 0.30738 0.07354 0.10685 0.0
H280 H 0.26863 0.04668 0.22048 0.0
H281 H 0.22346 0.98375 0.21831 0.0
H282 H 0.2174 0.94716 0.1024 0.0
C283 C 0.23644 0.92749 0.97159 0.0
C284 C 0.25952 0.96694 0.96863 0.0
C285 C 0.26082 0.98877 0.03364 0.0
C286 C 0.28614 0.02552 0.03355 0.0
C287 C 0.28854 0.04581 0.10247 0.0
C288 C 0.2663 0.03069 0.16837 0.0
C289 C 0.24091 0.99525 0.16719 0.0
C290 C 0.23788 0.9745 0.10052 0.0
H291 H 0.32757 0.11303 0.97197 0.0
C292 C 0.34815 0.1072 0.98718 0.0
H293 H 0.36543 0.07021 0.99168 0.0
H294 H 0.26644 0.93357 0.834 0.0
H295 H 0.30542 0.96084 0.72125 0.0
H296 H 0.34537 0.02512 0.71696 0.0
H297 H 0.34684 0.06242 0.82762 0.0
C298 C 0.34342 0.07431 0.97912 0.0
C299 C 0.30943 0.04087 0.96707 0.0
C300 C 0.30644 0.01954 0.89984 0.0
C301 C 0.28223 0.98259 0.90109 0.0
C302 C 0.28284 0.96187 0.83574 0.0
C303 C 0.30543 0.97719 0.77041 0.0
C304 C 0.32802 0.01334 0.76812 0.0
C305 C 0.32869 0.03438 0.83199 0.0
H306 H 0.18245 0.66489 0.08625 0.0
C307 C 0.19871 0.68568 0.04372 0.0
H308 H 0.23534 0.69857 0.94814 0.0
H309 H 0.25409 0.5715 0.10115 0.0
H310 H 0.31007 0.62211 0.13763 0.0
H311 H 0.32293 0.6825 0.1065 0.0
H312 H 0.27963 0.69267 0.03929 0.0
C313 C 0.21815 0.67901 0.99167 0.0
C314 C 0.21399 0.64279 0.99253 0.0
C315 C 0.23997 0.63697 0.02823 0.0
C316 C 0.23282 0.60193 0.04439 0.0
C317 C 0.25851 0.59731 0.08503 0.0
C318 C 0.29066 0.62618 0.10686 0.0
C319 C 0.29788 0.6602 0.08951 0.0
C320 C 0.27286 0.66569 0.05102 0.0
H321 H 0.23056 0.53294 0.97841 0.0
C322 C 0.2051 0.51826 0.00762 0.0
H323 H 0.16471 0.51942 0.07164 0.0
H324 H 0.15996 0.64433 0.91482 0.0
H325 H 0.10355 0.59423 0.87977 0.0
H326 H 0.09082 0.53368 0.90696 0.0
H327 H 0.13412 0.52285 0.96886 0.0
C328 C 0.19027 0.53541 0.04341 0.0
C329 C 0.19989 0.57257 0.02279 0.0
C330 C 0.17434 0.5785 0.98411 0.0
C331 C 0.18151 0.61346 0.96863 0.0
C332 C 0.15554 0.61841 0.92985 0.0
C333 C 0.12313 0.58987 0.90872 0.0
C334 C 0.11599 0.55581 0.92399 0.0
C335 C 0.14122 0.55003 0.96032 0.0
H336 H 0.53115 0.21539 0.94756 0.0
C337 C 0.52204 0.21047 0.00969 0.0
H338 H 0.5317 0.20347 0.13019 0.0
H339 H 0.62827 0.13819 0.08486 0.0
H340 H 0.58043 0.09485 0.16601 0.0
H341 H 0.52857 0.1008 0.19528 0.0
H342 H 0.5244 0.15017 0.14438 0.0
C343 C 0.54172 0.20788 0.06872 0.0
C344 C 0.57391 0.20534 0.05289 0.0
C345 C 0.57583 0.17605 0.08391 0.0
C346 C 0.60534 0.17206 0.06563 0.0
C347 C 0.60644 0.14246 0.09643 0.0
C348 C 0.57912 0.1173 0.14318 0.0
C349 C 0.54998 0.12071 0.15976 0.0
C350 C 0.54811 0.14952 0.13046 0.0
H351 H 0.69559 0.2041 0.0683 0.0
C352 C 0.68566 0.18963 0.01222 0.0
H353 H 0.64811 0.1731 0.91865 0.0
H354 H 0.58354 0.26899 1.00014 0.0
H355 H 0.63016 0.3098 0.91195 0.0
H356 H 0.67608 0.29802 0.86411 0.0
H357 H 0.67896 0.24729 0.91279 0.0
C358 C 0.65671 0.18654 0.9764 0.0
C359 C 0.63221 0.19646 0.01408 0.0
C360 C 0.63068 0.2259 0.98447 0.0
C361 C 0.60223 0.23112 0.00637 0.0
C362 C 0.60304 0.26231 0.98094 0.0
C363 C 0.62968 0.28611 0.93056 0.0
C364 C 0.65603 0.27975 0.90466 0.0
C365 C 0.65709 0.25036 0.93225 0.0
H366 H 0.47981 0.70055 0.03274 0.0
C367 C 0.49016 0.68363 0.01469 0.0
H368 H 0.48111 0.63187 0.9997 0.0
H369 H 0.34023 0.53848 0.17176 0.0
H370 H 0.37865 0.54582 0.28365 0.0
H371 H 0.4412 0.59186 0.28071 0.0
H372 H 0.46568 0.63089 0.16517 0.0
C373 C 0.46985 0.64823 0.01591 0.0
C374 C 0.43112 0.62872 0.02683 0.0
C375 C 0.4167 0.6075 0.09635 0.0
C376 C 0.38056 0.58122 0.09831 0.0
C377 C 0.36737 0.5592 0.16714 0.0
C378 C 0.38916 0.56306 0.23188 0.0
C379 C 0.42438 0.58894 0.23016 0.0
C380 C 0.43811 0.61106 0.16348 0.0
H381 H 0.33543 0.51664 0.94879 0.0
C382 C 0.31554 0.51636 0.98849 0.0
H383 H 0.30397 0.54434 0.07499 0.0
H384 H 0.45033 0.66408 0.88241 0.0
H385 H 0.41286 0.65385 0.76684 0.0
H386 H 0.34995 0.60892 0.77133 0.0
H387 H 0.32423 0.5738 0.89192 0.0
C388 C 0.32249 0.5455 0.02969 0.0
C389 C 0.35887 0.57612 0.03048 0.0
C390 C 0.37303 0.59781 0.96155 0.0
C391 C 0.40921 0.62408 0.95955 0.0
C392 C 0.42302 0.64403 0.88802 0.0
C393 C 0.40176 0.63843 0.82103 0.0
C394 C 0.36636 0.61312 0.82354 0.0
C395 C 0.35196 0.59309 0.89297 0.0
H396 H 0.78384 0.48053 0.04285 0.0
C397 C 0.81004 0.4896 0.01905 0.0
H398 H 0.85009 0.47772 0.99186 0.0
H399 H 0.8116 0.3415 0.16855 0.0
H400 H 0.85146 0.3829 0.2671 0.0
H401 H 0.8689 0.44581 0.26068 0.0
H402 H 0.84652 0.46763 0.15501 0.0
C403 C 0.82342 0.46784 0.01374 0.0
C404 C 0.80396 0.4295 0.03024 0.0
C405 C 0.81515 0.41663 0.09528 0.0
C406 C 0.80465 0.3803 0.09955 0.0
C407 C 0.81813 0.36869 0.16276 0.0
C408 C 0.84118 0.39223 0.21979 0.0
C409 C 0.85105 0.42764 0.2161 0.0
C410 C 0.83813 0.43982 0.155 0.0
H411 H 0.81004 0.3276 0.94583 0.0
C412 C 0.79328 0.30979 0.9928 0.0
H413 H 0.76118 0.30362 0.09261 0.0
H414 H 0.77882 0.44569 0.89526 0.0
H415 H 0.74447 0.40561 0.78823 0.0
H416 H 0.72685 0.34275 0.79472 0.0
H417 H 0.74233 0.31917 0.91038 0.0
C418 C 0.77499 0.31962 0.04042 0.0
C419 C 0.78276 0.35678 0.03866 0.0
C420 C 0.77153 0.36961 0.97345 0.0
C421 C 0.78199 0.406 0.96942 0.0
C422 C 0.77164 0.41837 0.90176 0.0
C423 C 0.75189 0.39562 0.83977 0.0
C424 C 0.74185 0.36017 0.84361 0.0
C425 C 0.75108 0.34705 0.91001 0.0
H426 H 0.3036 0.78275 0.04911 0.0
C427 C 0.31874 0.80673 0.01445 0.0
H428 H 0.36809 0.84383 0.96533 0.0
H429 H 0.48021 0.83035 0.14553 0.0
H430 H 0.48268 0.87955 0.21877 0.0
H431 H 0.43517 0.8938 0.20592 0.0
H432 H 0.3848 0.85875 0.11985 0.0
C433 C 0.35319 0.81936 0.99858 0.0
C434 C 0.37444 0.8034 0.02442 0.0
C435 C 0.40276 0.82288 0.0781 0.0
C436 C 0.43007 0.81464 0.08558 0.0
C437 C 0.45871 0.83546 0.13744 0.0
C438 C 0.46046 0.86377 0.17994 0.0
C439 C 0.43374 0.87181 0.17266 0.0
C440 C 0.40508 0.8516 0.1228 0.0
H441 H 0.48399 0.81547 0.94132 0.0
C442 C 0.48652 0.79951 0.98811 0.0
H443 H 0.46348 0.76857 0.09173 0.0
H444 H 0.32396 0.76058 0.91612 0.0
H445 H 0.32332 0.71353 0.83729 0.0
H446 H 0.37052 0.69889 0.85164 0.0
H447 H 0.41887 0.73151 0.94472 0.0
C448 C 0.45993 0.78162 0.03985 0.0
C449 C 0.4291 0.78698 0.03898 0.0
C450 C 0.40026 0.76666 0.98751 0.0
C451 C 0.37285 0.77489 0.98004 0.0
C452 C 0.34529 0.75531 0.92486 0.0
C453 C 0.34461 0.72821 0.87922 0.0
C454 C 0.37119 0.71997 0.88726 0.0
C455 C 0.39875 0.73886 0.94079 0.0
H456 H 0.70333 0.46063 0.01005 0.0
C457 C 0.69558 0.48061 0.0078 0.0
H458 H 0.65507 0.49259 0.99793 0.0
H459 H 0.56996 0.31966 0.92139 0.0
H460 H 0.60861 0.333 0.80573 0.0
H461 H 0.65962 0.39239 0.78692 0.0
H462 H 0.67108 0.43932 0.88034 0.0
C463 C 0.66157 0.47168 1.00127 0.0
C464 C 0.63162 0.43515 0.01274 0.0
C465 C 0.62593 0.40758 0.95914 0.0
C466 C 0.59585 0.37345 0.9689 0.0
C467 C 0.59118 0.34649 0.91448 0.0
C468 C 0.61342 0.35368 0.84839 0.0
C469 C 0.64219 0.38708 0.83787 0.0
C470 C 0.64865 0.41373 0.89265 0.0
H471 H 0.52784 0.34405 0.90866 0.0
C472 C 0.51535 0.32748 0.96107 0.0
H473 H 0.52228 0.32057 0.08355 0.0
H474 H 0.63431 0.48227 0.12622 0.0
H475 H 0.58884 0.47311 0.22141 0.0
H476 H 0.53452 0.41556 0.23144 0.0
H477 H 0.5256 0.36679 0.1471 0.0
C478 C 0.53469 0.33432 0.02802 0.0
C479 C 0.57022 0.36731 0.02945 0.0
C480 C 0.57566 0.3954 0.08169 0.0
C481 C 0.6065 0.42904 0.07402 0.0
C482 C 0.611 0.45651 0.12704 0.0
C483 C 0.58516 0.45159 0.18266 0.0
C484 C 0.55464 0.41919 0.1884 0.0
C485 C 0.54993 0.3913 0.13933 0.0
H486 H 0.1667 0.38158 0.70895 0.0
C487 C 0.19114 0.40194 0.73518 0.0
H488 H 0.24076 0.44492 0.70924 0.0
H489 H 0.18606 0.35702 0.35395 0.0
H490 H 0.18185 0.3066 0.42212 0.0
H491 H 0.19235 0.30795 0.5684 0.0
H492 H 0.20716 0.36012 0.64743 0.0
C493 C 0.21745 0.42252 0.68423 0.0
C494 C 0.21187 0.42125 0.59372 0.0
C495 C 0.20348 0.39069 0.54741 0.0
C496 C 0.19741 0.38997 0.4623 0.0
C497 C 0.18995 0.35914 0.41849 0.0
C498 C 0.18777 0.32989 0.45683 0.0
C499 C 0.19368 0.33066 0.53917 0.0
C500 C 0.20183 0.36072 0.584 0.0
H501 H 0.24118 0.46249 0.30235 0.0
C502 C 0.21754 0.44004 0.27866 0.0
H503 H 0.1707 0.39442 0.30791 0.0
H504 H 0.22672 0.48421 0.66214 0.0
H505 H 0.23006 0.53449 0.59481 0.0
H506 H 0.21815 0.53284 0.44918 0.0
H507 H 0.20283 0.48064 0.36996 0.0
C508 C 0.19311 0.41801 0.33186 0.0
C509 C 0.19964 0.41983 0.42222 0.0
C510 C 0.2079 0.45038 0.46876 0.0
C511 C 0.21433 0.45117 0.55376 0.0
C512 C 0.22216 0.48203 0.5978 0.0
C513 C 0.22393 0.51118 0.55996 0.0
C514 C 0.21725 0.51023 0.47796 0.0
C515 C 0.20891 0.48018 0.43289 0.0
H516 H 0.77608 0.22681 0.71949 0.0
C517 C 0.7898 0.21306 0.73763 0.0
H518 H 0.81613 0.18704 0.69948 0.0
H519 H 0.74119 0.13789 0.36299 0.0
H520 H 0.73722 0.08523 0.4196 0.0
H521 H 0.7606 0.08601 0.55501 0.0
H522 H 0.78699 0.1388 0.63495 0.0
C523 C 0.80409 0.20222 0.6802 0.0
C524 C 0.79738 0.20411 0.59125 0.0
C525 C 0.78283 0.17287 0.54347 0.0
C526 C 0.77116 0.1728 0.46285 0.0
C527 C 0.75339 0.1403 0.42094 0.0
C528 C 0.75021 0.10959 0.45352 0.0
C529 C 0.76322 0.11 0.52984 0.0
C530 C 0.77863 0.14088 0.57511 0.0
H531 H 0.79276 0.17909 0.29326 0.0
C532 C 0.78003 0.19415 0.27836 0.0
H533 H 0.75664 0.22221 0.32159 0.0
H534 H 0.83134 0.27024 0.65706 0.0
H535 H 0.83647 0.3233 0.5998 0.0
H536 H 0.81497 0.3232 0.46261 0.0
H537 H 0.78909 0.27069 0.38184 0.0
C538 C 0.76802 0.20616 0.33864 0.0
C539 C 0.77627 0.20453 0.42686 0.0
C540 C 0.79141 0.23595 0.47438 0.0
C541 C 0.80261 0.23584 0.55537 0.0
C542 C 0.81996 0.26816 0.59815 0.0
C543 C 0.82374 0.29906 0.56537 0.0
C544 C 0.81175 0.29902 0.48809 0.0
C545 C 0.79649 0.26823 0.4424 0.0
H546 H 0.57836 0.81237 0.72222 0.0
C547 C 0.58821 0.79435 0.73255 0.0
H548 H 0.60962 0.76481 0.68317 0.0
H549 H 0.52613 0.72339 0.36148 0.0
H550 H 0.49758 0.66834 0.43493 0.0
H551 H 0.51124 0.66597 0.57825 0.0
H552 H 0.55333 0.71858 0.6488 0.0
C553 C 0.59969 0.78266 0.67092 0.0
C554 C 0.59127 0.78523 0.58556 0.0
C555 C 0.5669 0.75395 0.54464 0.0
C556 C 0.55929 0.75519 0.4618 0.0
C557 C 0.53374 0.72386 0.4236 0.0
C558 C 0.5169 0.69205 0.46528 0.0
C559 C 0.52458 0.69071 0.54592 0.0
C560 C 0.54904 0.72119 0.58557 0.0
H561 H 0.58213 0.75658 0.2794 0.0
C562 C 0.57355 0.77574 0.27127 0.0
H563 H 0.55815 0.80953 0.32585 0.0
H564 H 0.63995 0.84951 0.64594 0.0
H565 H 0.66905 0.90472 0.5725 0.0
H566 H 0.65693 0.90695 0.42801 0.0
H567 H 0.61561 0.85414 0.3563 0.0
C568 C 0.56679 0.79047 0.33553 0.0
C569 C 0.57651 0.78763 0.41983 0.0
C570 C 0.60116 0.81888 0.46076 0.0
C571 C 0.6084 0.81768 0.54389 0.0
C572 C 0.63323 0.84909 0.58306 0.0
C573 C 0.65024 0.88094 0.54154 0.0
C574 C 0.64339 0.88219 0.46023 0.0
C575 C 0.61936 0.85164 0.41992 0.0
H576 H 0.7743 0.58559 0.72786 0.0
C577 C 0.7997 0.58734 0.73565 0.0
H578 H 0.84575 0.59334 0.67963 0.0
H579 H 0.77385 0.51812 0.35886 0.0
H580 H 0.76844 0.4678 0.43237 0.0
H581 H 0.78098 0.47187 0.5783 0.0
H582 H 0.79899 0.52628 0.65141 0.0
C583 C 0.82034 0.59154 0.67187 0.0
C584 C 0.80794 0.58805 0.58832 0.0
C585 C 0.79785 0.55615 0.5466 0.0
C586 C 0.7907 0.55382 0.4628 0.0
C587 C 0.77996 0.52146 0.42255 0.0
C588 C 0.77667 0.49233 0.46406 0.0
C589 C 0.78375 0.49462 0.54618 0.0
C590 C 0.79422 0.52607 0.58732 0.0
H591 H 0.82563 0.57892 0.28329 0.0
C592 C 0.80167 0.57993 0.274 0.0
H593 H 0.75851 0.5814 0.32774 0.0
H594 H 0.82486 0.65215 0.65311 0.0
H595 H 0.82866 0.70214 0.5808 0.0
H596 H 0.81702 0.69856 0.43445 0.0
H597 H 0.80142 0.64502 0.35972 0.0
C598 C 0.78249 0.5804 0.33709 0.0
C599 C 0.79379 0.5835 0.42163 0.0
C600 C 0.8031 0.61516 0.46392 0.0
C601 C 0.81009 0.61739 0.54779 0.0
C602 C 0.81939 0.6492 0.58906 0.0
C603 C 0.82164 0.67805 0.54833 0.0
C604 C 0.81503 0.67601 0.46598 0.0
C605 C 0.80594 0.64505 0.4239 0.0
H606 H 0.24634 0.80861 0.28577 0.0
C607 C 0.2196 0.80304 0.27581 0.0
H608 H 0.1723 0.79526 0.32775 0.0
H609 H 0.17881 0.734 0.65942 0.0
H610 H 0.13134 0.68316 0.59383 0.0
H611 H 0.11903 0.68475 0.44925 0.0
H612 H 0.15408 0.73721 0.36968 0.0
C613 C 0.19912 0.80116 0.33845 0.0
C614 C 0.20868 0.80009 0.42369 0.0
C615 C 0.18775 0.7691 0.4695 0.0
C616 C 0.19465 0.76818 0.55291 0.0
C617 C 0.17409 0.73657 0.59652 0.0
C618 C 0.1469 0.70701 0.55939 0.0
C619 C 0.13998 0.70791 0.47803 0.0
C620 C 0.1602 0.73837 0.43319 0.0
H621 H 0.18209 0.78787 0.72622 0.0
C622 C 0.20928 0.79524 0.7374 0.0
H623 H 0.25783 0.8049 0.68995 0.0
H624 H 0.25314 0.86398 0.35365 0.0
H625 H 0.30096 0.91459 0.41884 0.0
H626 H 0.31293 0.91325 0.56371 0.0
H627 H 0.2773 0.86125 0.64383 0.0
C628 C 0.23088 0.79795 0.67656 0.0
C629 C 0.22226 0.79839 0.59029 0.0
C630 C 0.24351 0.82923 0.5442 0.0
C631 C 0.23668 0.83008 0.46072 0.0
C632 C 0.25764 0.86148 0.41673 0.0
C633 C 0.28508 0.89092 0.45358 0.0
C634 C 0.29182 0.89016 0.53508 0.0
C635 C 0.27123 0.85992 0.58028 0.0
H636 H 0.43632 0.20086 0.72065 0.0
C637 C 0.41757 0.20954 0.73356 0.0
H638 H 0.38073 0.22246 0.68935 0.0
H639 H 0.45401 0.28916 0.36221 0.0
H640 H 0.45172 0.33691 0.42967 0.0
H641 H 0.43069 0.33055 0.57001 0.0
H642 H 0.41245 0.2768 0.64373 0.0
C643 C 0.39955 0.21414 0.67365 0.0
C644 C 0.4097 0.21629 0.58684 0.0
C645 C 0.41981 0.24803 0.54368 0.0
C646 C 0.43098 0.25144 0.46171 0.0
C647 C 0.44325 0.28426 0.42253 0.0
C648 C 0.44262 0.3122 0.46106 0.0
C649 C 0.43087 0.30864 0.54008 0.0
C650 C 0.42011 0.27729 0.58154 0.0
H651 H 0.40867 0.242 0.2832 0.0
C652 C 0.42668 0.23216 0.273 0.0
H653 H 0.46027 0.21586 0.32154 0.0
H654 H 0.38834 0.15063 0.64859 0.0
H655 H 0.39062 0.10276 0.58154 0.0
H656 H 0.41005 0.10837 0.43998 0.0
H657 H 0.42702 0.16159 0.36482 0.0
C658 C 0.44223 0.22537 0.33543 0.0
C659 C 0.43083 0.22271 0.42171 0.0
C660 C 0.42052 0.19085 0.46499 0.0
C661 C 0.40975 0.18762 0.54725 0.0
C662 C 0.39834 0.15515 0.58753 0.0
C663 C 0.39903 0.12719 0.54937 0.0
C664 C 0.40993 0.13035 0.46969 0.0
C665 C 0.42002 0.16142 0.4274 0.0
loop_
_geom_bond_atom_site_label_1
_geom_bond_atom_site_label_2
_geom_bond_distance
_geom_bond_site_symmetry_2
_ccdc_geom_bond_type
O0 Mn1 2.163 1_556 S
O0 C14 1.244 . S
Mn1 O0 2.163 1_554 S
Mn1 O4 2.160 . S
Mn1 O5 2.221 . S
Mn1 O7 2.163 . S
Mn1 O9 2.160 . S
Mn1 O19 2.221 1_554 S
O2 Mn3 2.087 . S
O2 C14 1.256 . S
Mn3 O2 2.087 . S
Mn3 O10 2.089 . S
Mn3 O19 2.290 . S
Mn3 O20 2.251 . S
O4 Mn1 2.160 . S
O4 C15 1.239 . S
O5 Mn1 2.221 . S
O5 Mn6 2.290 . S
O5 C16 1.278 1_554 S
Mn6 O5 2.290 . S
Mn6 O8 2.089 . S
Mn6 O11 2.251 . S
Mn6 O12 2.087 . S
O7 Mn1 2.163 . S
O7 C17 1.244 . S
O8 Mn6 2.089 . S
O8 C15 1.256 . S
O9 Mn1 2.160 . S
O9 C18 1.239 1_554 S
O10 Mn3 2.089 . S
O10 C18 1.256 . S
O11 Mn6 2.251 . S
O11 C16 1.241 1_554 S
O12 Mn6 2.087 . S
O12 C17 1.256 . S
C13 O19 1.278 . S
C13 O20 1.241 . S
C14 O0 1.244 . S
C14 O2 1.256 . S
C15 O4 1.239 . S
C15 O8 1.256 . S
C16 O5 1.278 1_556 S
C16 O11 1.241 1_556 S
C17 O7 1.244 . S
C17 O12 1.256 . S
C18 O9 1.239 1_556 S
C18 O10 1.256 . S
O19 Mn1 2.221 1_556 S
O19 Mn3 2.290 . S
O19 C13 1.278 . S
O20 Mn3 2.251 . S
O20 C13 1.241 . S
O21 Mn22 2.163 1_556 S
O21 C35 1.244 . S
Mn22 O21 2.163 1_554 S
Mn22 O25 2.160 . S
Mn22 O26 2.221 . S
Mn22 O28 2.163 . S
Mn22 O30 2.160 . S
Mn22 O40 2.221 1_554 S
O23 Mn24 2.087 . S
O23 C35 1.256 . S
Mn24 O23 2.087 . S
Mn24 O31 2.089 . S
Mn24 O40 2.290 . S
Mn24 O41 2.251 . S
O25 Mn22 2.160 . S
O25 C36 1.239 . S
O26 Mn22 2.221 . S
O26 Mn27 2.290 . S
O26 C37 1.278 1_554 S
Mn27 O26 2.290 . S
Mn27 O29 2.089 . S
Mn27 O32 2.251 . S
Mn27 O33 2.087 . S
O28 Mn22 2.163 . S
O28 C38 1.244 . S
O29 Mn27 2.089 . S
O29 C36 1.256 . S
O30 Mn22 2.160 . S
O30 C39 1.239 1_554 S
O31 Mn24 2.089 . S
O31 C39 1.256 . S
O32 Mn27 2.251 . S
O32 C37 1.241 1_554 S
O33 Mn27 2.087 . S
O33 C38 1.256 . S
C34 O40 1.278 . S
C34 O41 1.241 . S
C35 O21 1.244 . S
C35 O23 1.256 . S
C36 O25 1.239 . S
C36 O29 1.256 . S
C37 O26 1.278 1_556 S
C37 O32 1.241 1_556 S
C38 O28 1.244 . S
C38 O33 1.256 . S
C39 O30 1.239 1_556 S
C39 O31 1.256 . S
O40 Mn22 2.221 1_556 S
O40 Mn24 2.290 . S
O40 C34 1.278 . S
O41 Mn24 2.251 . S
O41 C34 1.241 . S
O42 Mn43 2.163 1_556 S
O42 C56 1.244 . S
Mn43 O42 2.163 1_554 S
Mn43 O46 2.160 . S
Mn43 O47 2.221 . S
Mn43 O49 2.163 . S
Mn43 O51 2.160 . S
Mn43 O61 2.221 1_554 S
O44 Mn45 2.087 . S
O44 C56 1.256 . S
Mn45 O44 2.087 . S
Mn45 O52 2.089 . S
Mn45 O61 2.290 . S
Mn45 O62 2.251 . S
O46 Mn43 2.160 . S
O46 C57 1.239 . S
O47 Mn43 2.221 . S
O47 Mn48 2.290 . S
O47 C58 1.278 1_554 S
Mn48 O47 2.290 . S
Mn48 O50 2.089 . S
Mn48 O53 2.251 . S
Mn48 O54 2.087 . S
O49 Mn43 2.163 . S
O49 C59 1.244 . S
O50 Mn48 2.089 . S
O50 C57 1.256 . S
O51 Mn43 2.160 . S
O51 C60 1.239 1_554 S
O52 Mn45 2.089 . S
O52 C60 1.256 . S
O53 Mn48 2.251 . S
O53 C58 1.241 1_554 S
O54 Mn48 2.087 . S
O54 C59 1.256 . S
C55 O61 1.278 . S
C55 O62 1.241 . S
C56 O42 1.244 . S
C56 O44 1.256 . S
C57 O46 1.239 . S
C57 O50 1.256 . S
C58 O47 1.278 1_556 S
C58 O53 1.241 1_556 S
C59 O49 1.244 . S
C59 O54 1.256 . S
C60 O51 1.239 1_556 S
C60 O52 1.256 . S
O61 Mn43 2.221 1_556 S
O61 Mn45 2.290 . S
O61 C55 1.278 . S
O62 Mn45 2.251 . S
O62 C55 1.241 . S
O63 Mn64 2.163 1_556 S
O63 C77 1.244 . S
Mn64 O63 2.163 1_554 S
Mn64 O67 2.160 . S
Mn64 O68 2.221 . S
Mn64 O70 2.163 . S
Mn64 O72 2.160 . S
Mn64 O82 2.221 1_554 S
O65 Mn66 2.087 . S
O65 C77 1.256 . S
Mn66 O65 2.087 . S
Mn66 O73 2.089 . S
Mn66 O82 2.290 . S
Mn66 O83 2.251 . S
O67 Mn64 2.160 . S
O67 C78 1.239 . S
O68 Mn64 2.221 . S
O68 Mn69 2.290 . S
O68 C79 1.278 1_554 S
Mn69 O68 2.290 . S
Mn69 O71 2.089 . S
Mn69 O74 2.251 . S
Mn69 O75 2.087 . S
O70 Mn64 2.163 . S
O70 C80 1.244 . S
O71 Mn69 2.089 . S
O71 C78 1.256 . S
O72 Mn64 2.160 . S
O72 C81 1.239 1_554 S
O73 Mn66 2.089 . S
O73 C81 1.256 . S
O74 Mn69 2.251 . S
O74 C79 1.241 1_554 S
O75 Mn69 2.087 . S
O75 C80 1.256 . S
C76 O82 1.278 . S
C76 O83 1.241 . S
C77 O63 1.244 . S
C77 O65 1.256 . S
C78 O67 1.239 . S
C78 O71 1.256 . S
C79 O68 1.278 1_556 S
C79 O74 1.241 1_556 S
C80 O70 1.244 . S
C80 O75 1.256 . S
C81 O72 1.239 1_556 S
C81 O73 1.256 . S
O82 Mn64 2.221 1_556 S
O82 Mn66 2.290 . S
O82 C76 1.278 . S
O83 Mn66 2.251 . S
O83 C76 1.241 . S
O84 Mn85 2.163 1_556 S
O84 C98 1.244 . S
Mn85 O84 2.163 1_554 S
Mn85 O88 2.160 . S
Mn85 O89 2.221 . S
Mn85 O91 2.163 . S
Mn85 O93 2.160 . S
Mn85 O103 2.221 1_554 S
O86 Mn87 2.087 . S
O86 C98 1.256 . S
Mn87 O86 2.087 . S
Mn87 O94 2.089 . S
Mn87 O103 2.290 . S
Mn87 O104 2.251 . S
O88 Mn85 2.160 . S
O88 C99 1.239 . S
O89 Mn85 2.221 . S
O89 Mn90 2.290 . S
O89 C100 1.278 1_554 S
Mn90 O89 2.290 . S
Mn90 O92 2.089 . S
Mn90 O95 2.251 . S
Mn90 O96 2.087 . S
O91 Mn85 2.163 . S
O91 C101 1.244 . S
O92 Mn90 2.089 . S
O92 C99 1.256 . S
O93 Mn85 2.160 . S
O93 C102 1.239 1_554 S
O94 Mn87 2.089 . S
O94 C102 1.256 . S
O95 Mn90 2.251 . S
O95 C100 1.241 1_554 S
O96 Mn90 2.087 . S
O96 C101 1.256 . S
C97 O103 1.278 . S
C97 O104 1.241 . S
C98 O84 1.244 . S
C98 O86 1.256 . S
C99 O88 1.239 . S
C99 O92 1.256 . S
C100 O89 1.278 1_556 S
C100 O95 1.241 1_556 S
C101 O91 1.244 . S
C101 O96 1.256 . S
C102 O93 1.239 1_556 S
C102 O94 1.256 . S
O103 Mn85 2.221 1_556 S
O103 Mn87 2.290 . S
O103 C97 1.278 . S
O104 Mn87 2.251 . S
O104 C97 1.241 . S
O105 Mn106 2.163 1_556 S
O105 C119 1.244 . S
Mn106 O105 2.163 1_554 S
Mn106 O109 2.160 . S
Mn106 O110 2.221 . S
Mn106 O112 2.163 . S
Mn106 O114 2.160 . S
Mn106 O124 2.221 1_554 S
O107 Mn108 2.087 . S
O107 C119 1.256 . S
Mn108 O107 2.087 . S
Mn108 O115 2.089 . S
Mn108 O124 2.290 . S
Mn108 O125 2.251 . S
O109 Mn106 2.160 . S
O109 C120 1.239 . S
O110 Mn106 2.221 . S
O110 Mn111 2.290 . S
O110 C121 1.278 1_554 S
Mn111 O110 2.290 . S
Mn111 O113 2.089 . S
Mn111 O116 2.251 . S
Mn111 O117 2.087 . S
O112 Mn106 2.163 . S
O112 C122 1.244 . S
O113 Mn111 2.089 . S
O113 C120 1.256 . S
O114 Mn106 2.160 . S
O114 C123 1.239 1_554 S
O115 Mn108 2.089 . S
O115 C123 1.256 . S
O116 Mn111 2.251 . S
O116 C121 1.241 1_554 S
O117 Mn111 2.087 . S
O117 C122 1.256 . S
C118 O124 1.278 . S
C118 O125 1.241 . S
C119 O105 1.244 . S
C119 O107 1.256 . S
C120 O109 1.239 . S
C120 O113 1.256 . S
C121 O110 1.278 1_556 S
C121 O116 1.241 1_556 S
C122 O112 1.244 . S
C122 O117 1.256 . S
C123 O114 1.239 1_556 S
C123 O115 1.256 . S
O124 Mn106 2.221 1_556 S
O124 Mn108 2.290 . S
O124 C118 1.278 . S
O125 Mn108 2.251 . S
O125 C118 1.241 . S
H126 C127 0.951 1_554 S
C127 H126 0.951 1_556 S
C127 C133 1.265 . S
H128 C133 0.950 . S
H129 C137 0.949 . S
H130 C138 0.950 . S
H131 C139 0.951 . S
H132 C140 0.951 . S
C133 C127 1.265 . S
C133 H128 0.950 . S
C133 C134 1.478 . S
C134 C133 1.478 . S
C134 C135 1.397 . S
C134 C151 1.394 1_556 S
C135 C134 1.397 . S
C135 C136 1.438 . S
C135 C140 1.429 . S
C136 C135 1.438 . S
C136 C137 1.428 . S
C136 C149 1.394 . S
C137 H129 0.949 . S
C137 C136 1.428 . S
C137 C138 1.345 . S
C138 H130 0.950 . S
C138 C137 1.345 . S
C138 C139 1.424 . S
C139 H131 0.951 . S
C139 C138 1.424 . S
C139 C140 1.347 . S
C140 H132 0.951 . S
C140 C135 1.429 . S
C140 C139 1.347 . S
H141 C142 0.951 . S
C142 H141 0.951 . S
C142 C148 1.265 1_556 S
H143 C148 0.950 . S
H144 C152 0.949 . S
H145 C153 0.950 . S
H146 C154 0.951 . S
H147 C155 0.951 . S
C148 C142 1.265 1_554 S
C148 H143 0.950 . S
C148 C149 1.478 1_554 S
C149 C136 1.394 . S
C149 C148 1.478 1_556 S
C149 C150 1.397 1_556 S
C150 C149 1.397 1_554 S
C150 C151 1.438 . S
C150 C155 1.429 . S
C151 C134 1.394 1_554 S
C151 C150 1.438 . S
C151 C152 1.428 . S
C152 H144 0.949 . S
C152 C151 1.428 . S
C152 C153 1.345 . S
C153 H145 0.950 . S
C153 C152 1.345 . S
C153 C154 1.424 . S
C154 H146 0.951 . S
C154 C153 1.424 . S
C154 C155 1.347 . S
C155 H147 0.951 . S
C155 C150 1.429 . S
C155 C154 1.347 . S
H156 C157 0.952 . S
C157 H156 0.952 . S
C157 C163 1.265 . S
H158 C163 0.950 . S
H159 C167 0.949 . S
H160 C168 0.950 . S
H161 C169 0.951 1_455 S
H162 C170 0.951 . S
C163 C157 1.265 . S
C163 H158 0.950 . S
C163 C164 1.478 . S
C164 C163 1.478 . S
C164 C165 1.397 1_556 S
C164 C181 1.394 . S
C165 C164 1.397 1_554 S
C165 C166 1.438 1_455 S
C165 C170 1.429 . S
C166 C165 1.438 1_655 S
C166 C167 1.428 . S
C166 C179 1.394 1_554 S
C167 H159 0.949 . S
C167 C166 1.428 . S
C167 C168 1.345 . S
C168 H160 0.950 . S
C168 C167 1.345 . S
C168 C169 1.424 . S
C169 H161 0.951 1_655 S
C169 C168 1.424 . S
C169 C170 1.347 1_655 S
C170 H162 0.951 . S
C170 C165 1.429 . S
C170 C169 1.347 1_455 S
H171 C172 0.951 . S
C172 H171 0.951 . S
C172 C178 1.265 . S
H173 C178 0.950 . S
H174 C182 0.949 . S
H175 C183 0.950 . S
H176 C184 0.951 . S
H177 C185 0.951 . S
C178 C172 1.265 . S
C178 H173 0.950 . S
C178 C179 1.478 . S
C179 C166 1.394 1_556 S
C179 C178 1.478 . S
C179 C180 1.397 . S
C180 C179 1.397 . S
C180 C181 1.438 1_655 S
C180 C185 1.429 . S
C181 C164 1.394 . S
C181 C180 1.438 1_455 S
C181 C182 1.428 . S
C182 H174 0.949 . S
C182 C181 1.428 . S
C182 C183 1.345 . S
C183 H175 0.950 . S
C183 C182 1.345 . S
C183 C184 1.424 1_455 S
C184 H176 0.951 . S
C184 C183 1.424 1_655 S
C184 C185 1.347 . S
C185 H177 0.951 . S
C185 C180 1.429 . S
C185 C184 1.347 . S
H186 C187 0.951 . S
C187 H186 0.951 . S
C187 C193 1.265 . S
H188 C193 0.950 . S
H189 C197 0.949 . S
H190 C198 0.950 . S
H191 C199 0.951 1_545 S
H192 C200 0.951 . S
C193 C187 1.265 . S
C193 H188 0.950 . S
C193 C194 1.478 . S
C194 C193 1.478 . S
C194 C195 1.397 1_556 S
C194 C211 1.394 . S
C195 C194 1.397 1_554 S
C195 C196 1.438 1_545 S
C195 C200 1.429 . S
C196 C195 1.438 1_565 S
C196 C197 1.428 . S
C196 C209 1.394 1_554 S
C197 H189 0.949 . S
C197 C196 1.428 . S
C197 C198 1.345 . S
C198 H190 0.950 . S
C198 C197 1.345 . S
C198 C199 1.424 . S
C199 H191 0.951 1_565 S
C199 C198 1.424 . S
C199 C200 1.347 1_565 S
C200 H192 0.951 . S
C200 C195 1.429 . S
C200 C199 1.347 1_545 S
H201 C202 0.951 . S
C202 H201 0.951 . S
C202 C208 1.265 . S
H203 C208 0.950 . S
H204 C212 0.949 . S
H205 C213 0.950 . S
H206 C214 0.951 . S
H207 C215 0.951 . S
C208 C202 1.265 . S
C208 H203 0.950 . S
C208 C209 1.478 . S
C209 C196 1.394 1_556 S
C209 C208 1.478 . S
C209 C210 1.397 . S
C210 C209 1.397 . S
C210 C211 1.438 1_565 S
C210 C215 1.429 . S
C211 C194 1.394 . S
C211 C210 1.438 1_545 S
C211 C212 1.428 . S
C212 H204 0.949 . S
C212 C211 1.428 . S
C212 C213 1.345 . S
C213 H205 0.950 . S
C213 C212 1.345 . S
C213 C214 1.424 1_545 S
C214 H206 0.951 . S
C214 C213 1.424 1_565 S
C214 C215 1.347 . S
C215 H207 0.951 . S
C215 C210 1.429 . S
C215 C214 1.347 . S
H216 C217 0.951 . S
C217 H216 0.951 . S
C217 C223 1.265 . S
H218 C223 0.950 . S
H219 C227 0.949 . S
H220 C228 0.950 . S
H221 C229 0.951 . S
H222 C230 0.951 . S
C223 C217 1.265 . S
C223 H218 0.950 . S
C223 C224 1.478 . S
C224 C223 1.478 . S
C224 C225 1.397 1_556 S
C224 C241 1.394 . S
C225 C224 1.397 1_554 S
C225 C226 1.438 . S
C225 C230 1.429 . S
C226 C225 1.438 . S
C226 C227 1.428 . S
C226 C239 1.394 1_554 S
C227 H219 0.949 . S
C227 C226 1.428 . S
C227 C228 1.345 . S
C228 H220 0.950 . S
C228 C227 1.345 . S
C228 C229 1.424 . S
C229 H221 0.951 . S
C229 C228 1.424 . S
C229 C230 1.347 . S
C230 H222 0.951 . S
C230 C225 1.429 . S
C230 C229 1.347 . S
H231 C232 0.951 . S
C232 H231 0.951 . S
C232 C238 1.265 . S
H233 C238 0.950 . S
H234 C242 0.949 . S
H235 C243 0.950 . S
H236 C244 0.951 . S
H237 C245 0.951 . S
C238 C232 1.265 . S
C238 H233 0.950 . S
C238 C239 1.478 . S
C239 C226 1.394 1_556 S
C239 C238 1.478 . S
C239 C240 1.397 . S
C240 C239 1.397 . S
C240 C241 1.438 . S
C240 C245 1.429 . S
C241 C224 1.394 . S
C241 C240 1.438 . S
C241 C242 1.428 . S
C242 H234 0.949 . S
C242 C241 1.428 . S
C242 C243 1.345 . S
C243 H235 0.950 . S
C243 C242 1.345 . S
C243 C244 1.424 . S
C244 H236 0.951 . S
C244 C243 1.424 . S
C244 C245 1.347 . S
C245 H237 0.951 . S
C245 C240 1.429 . S
C245 C244 1.347 . S
H246 C247 0.951 . S
C247 H246 0.951 . S
C247 C253 1.265 . S
H248 C253 0.950 . S
H249 C257 0.949 . S
H250 C258 0.950 . S
H251 C259 0.951 . S
H252 C260 0.951 . S
C253 C247 1.265 . S
C253 H248 0.950 . S
C253 C254 1.478 . S
C254 C253 1.478 . S
C254 C255 1.397 . S
C254 C271 1.394 1_556 S
C255 C254 1.397 . S
C255 C256 1.438 1_455 S
C255 C260 1.429 . S
C256 C255 1.438 1_655 S
C256 C257 1.428 . S
C256 C269 1.394 . S
C257 H249 0.949 . S
C257 C256 1.428 . S
C257 C258 1.345 . S
C258 H250 0.950 . S
C258 C257 1.345 . S
C258 C259 1.424 1_655 S
C259 H251 0.951 . S
C259 C258 1.424 1_455 S
C259 C260 1.347 . S
C260 H252 0.951 . S
C260 C255 1.429 . S
C260 C259 1.347 . S
H261 C262 0.951 . S
C262 H261 0.951 . S
C262 C268 1.265 . S
H263 C268 0.950 . S
H264 C272 0.949 . S
H265 C273 0.950 . S
H266 C274 0.951 1_655 S
H267 C275 0.951 . S
C268 C262 1.265 . S
C268 H263 0.950 . S
C268 C269 1.478 . S
C269 C256 1.394 . S
C269 C268 1.478 . S
C269 C270 1.397 1_556 S
C270 C269 1.397 1_554 S
C270 C271 1.438 1_655 S
C270 C275 1.429 . S
C271 C254 1.394 1_554 S
C271 C270 1.438 1_455 S
C271 C272 1.428 . S
C272 H264 0.949 . S
C272 C271 1.428 . S
C272 C273 1.345 . S
C273 H265 0.950 . S
C273 C272 1.345 . S
C273 C274 1.424 . S
C274 H266 0.951 1_455 S
C274 C273 1.424 . S
C274 C275 1.347 1_455 S
C275 H267 0.951 . S
C275 C270 1.429 . S
C275 C274 1.347 1_655 S
H276 C277 0.951 . S
C277 H276 0.951 . S
C277 C283 1.265 . S
H278 C283 0.950 . S
H279 C287 0.949 . S
H280 C288 0.950 . S
H281 C289 0.951 1_565 S
H282 C290 0.951 . S
C283 C277 1.265 . S
C283 H278 0.950 . S
C283 C284 1.478 . S
C284 C283 1.478 . S
C284 C285 1.397 1_556 S
C284 C301 1.394 . S
C285 C284 1.397 1_554 S
C285 C286 1.438 1_565 S
C285 C290 1.429 . S
C286 C285 1.438 1_545 S
C286 C287 1.428 . S
C286 C299 1.394 1_554 S
C287 H279 0.949 . S
C287 C286 1.428 . S
C287 C288 1.345 . S
C288 H280 0.950 . S
C288 C287 1.345 . S
C288 C289 1.424 . S
C289 H281 0.951 1_545 S
C289 C288 1.424 . S
C289 C290 1.347 1_545 S
C290 H282 0.951 . S
C290 C285 1.429 . S
C290 C289 1.347 1_565 S
H291 C292 0.951 . S
C292 H291 0.951 . S
C292 C298 1.265 . S
H293 C298 0.950 . S
H294 C302 0.949 . S
H295 C303 0.950 . S
H296 C304 0.951 . S
H297 C305 0.951 . S
C298 C292 1.265 . S
C298 H293 0.950 . S
C298 C299 1.478 . S
C299 C286 1.394 1_556 S
C299 C298 1.478 . S
C299 C300 1.397 . S
C300 C299 1.397 . S
C300 C301 1.438 1_545 S
C300 C305 1.429 . S
C301 C284 1.394 . S
C301 C300 1.438 1_565 S
C301 C302 1.428 . S
C302 H294 0.949 . S
C302 C301 1.428 . S
C302 C303 1.345 . S
C303 H295 0.950 . S
C303 C302 1.345 . S
C303 C304 1.424 1_565 S
C304 H296 0.951 . S
C304 C303 1.424 1_545 S
C304 C305 1.347 . S
C305 H297 0.951 . S
C305 C300 1.429 . S
C305 C304 1.347 . S
H306 C307 0.951 . S
C307 H306 0.951 . S
C307 C313 1.263 1_554 S
H308 C313 0.953 . S
H309 C317 0.949 . S
H310 C318 0.950 . S
H311 C319 0.951 . S
H312 C320 0.951 . S
C313 C307 1.263 1_556 S
C313 H308 0.953 . S
C313 C314 1.478 1_556 S
C314 C313 1.478 1_554 S
C314 C315 1.397 . S
C314 C331 1.394 1_554 S
C315 C314 1.397 . S
C315 C316 1.438 . S
C315 C320 1.429 . S
C316 C315 1.438 . S
C316 C317 1.428 . S
C316 C329 1.394 . S
C317 H309 0.949 . S
C317 C316 1.428 . S
C317 C318 1.345 . S
C318 H310 0.950 . S
C318 C317 1.345 . S
C318 C319 1.424 . S
C319 H311 0.951 . S
C319 C318 1.424 . S
C319 C320 1.347 . S
C320 H312 0.951 . S
C320 C315 1.429 . S
C320 C319 1.347 . S
H321 C322 0.951 . S
C322 H321 0.951 . S
C322 C328 1.265 1_556 S
H323 C328 0.950 . S
H324 C332 0.949 . S
H325 C333 0.950 . S
H326 C334 0.951 . S
H327 C335 0.951 . S
C328 C322 1.265 1_554 S
C328 H323 0.950 . S
C328 C329 1.478 . S
C329 C316 1.394 . S
C329 C328 1.478 . S
C329 C330 1.397 1_554 S
C330 C329 1.397 1_556 S
C330 C331 1.438 . S
C330 C335 1.429 . S
C331 C314 1.394 1_556 S
C331 C330 1.438 . S
C331 C332 1.428 . S
C332 H324 0.949 . S
C332 C331 1.428 . S
C332 C333 1.345 . S
C333 H325 0.950 . S
C333 C332 1.345 . S
C333 C334 1.424 . S
C334 H326 0.951 . S
C334 C333 1.424 . S
C334 C335 1.347 . S
C335 H327 0.951 . S
C335 C330 1.429 . S
C335 C334 1.347 . S
H336 C337 0.951 1_556 S
C337 H336 0.951 1_554 S
C337 C343 1.265 . S
H338 C343 0.950 . S
H339 C347 0.949 . S
H340 C348 0.950 . S
H341 C349 0.951 . S
H342 C350 0.951 . S
C343 C337 1.265 . S
C343 H338 0.950 . S
C343 C344 1.478 . S
C344 C343 1.478 . S
C344 C345 1.397 . S
C344 C361 1.394 1_554 S
C345 C344 1.397 . S
C345 C346 1.438 . S
C345 C350 1.429 . S
C346 C345 1.438 . S
C346 C347 1.428 . S
C346 C359 1.394 1_554 S
C347 H339 0.949 . S
C347 C346 1.428 . S
C347 C348 1.345 . S
C348 H340 0.950 . S
C348 C347 1.345 . S
C348 C349 1.424 . S
C349 H341 0.951 . S
C349 C348 1.424 . S
C349 C350 1.347 . S
C350 H342 0.951 . S
C350 C345 1.429 . S
C350 C349 1.347 . S
H351 C352 0.951 . S
C352 H351 0.951 . S
C352 C358 1.265 1_554 S
H353 C358 0.950 . S
H354 C362 0.949 . S
H355 C363 0.950 . S
H356 C364 0.951 . S
H357 C365 0.951 . S
C358 C352 1.265 1_556 S
C358 H353 0.950 . S
C358 C359 1.478 . S
C359 C346 1.394 1_556 S
C359 C358 1.478 . S
C359 C360 1.397 . S
C360 C359 1.397 . S
C360 C361 1.438 . S
C360 C365 1.429 . S
C361 C344 1.394 1_556 S
C361 C360 1.438 . S
C361 C362 1.428 . S
C362 H354 0.949 . S
C362 C361 1.428 . S
C362 C363 1.345 . S
C363 H355 0.950 . S
C363 C362 1.345 . S
C363 C364 1.424 . S
C364 H356 0.951 . S
C364 C363 1.424 . S
C364 C365 1.347 . S
C365 H357 0.951 . S
C365 C360 1.429 . S
C365 C364 1.347 . S
H366 C367 0.952 . S
C367 H366 0.952 . S
C367 C373 1.265 . S
H368 C373 0.950 . S
H369 C377 0.949 . S
H370 C378 0.950 . S
H371 C379 0.951 . S
H372 C380 0.951 . S
C373 C367 1.265 . S
C373 H368 0.950 . S
C373 C374 1.478 . S
C374 C373 1.478 . S
C374 C375 1.397 . S
C374 C391 1.394 1_554 S
C375 C374 1.397 . S
C375 C376 1.438 . S
C375 C380 1.429 . S
C376 C375 1.438 . S
C376 C377 1.428 . S
C376 C389 1.394 . S
C377 H369 0.949 . S
C377 C376 1.428 . S
C377 C378 1.345 . S
C378 H370 0.950 . S
C378 C377 1.345 . S
C378 C379 1.424 . S
C379 H371 0.951 . S
C379 C378 1.424 . S
C379 C380 1.347 . S
C380 H372 0.951 . S
C380 C375 1.429 . S
C380 C379 1.347 . S
H381 C382 0.951 . S
C382 H381 0.951 . S
C382 C388 1.265 . S
H383 C388 0.950 . S
H384 C392 0.949 . S
H385 C393 0.950 . S
H386 C394 0.951 . S
H387 C395 0.951 . S
C388 C382 1.265 . S
C388 H383 0.950 . S
C388 C389 1.478 . S
C389 C376 1.394 . S
C389 C388 1.478 . S
C389 C390 1.397 1_554 S
C390 C389 1.397 1_556 S
C390 C391 1.438 . S
C390 C395 1.429 . S
C391 C374 1.394 1_556 S
C391 C390 1.438 . S
C391 C392 1.428 . S
C392 H384 0.949 . S
C392 C391 1.428 . S
C392 C393 1.345 . S
C393 H385 0.950 . S
C393 C392 1.345 . S
C393 C394 1.424 . S
C394 H386 0.951 . S
C394 C393 1.424 . S
C394 C395 1.347 . S
C395 H387 0.951 . S
C395 C390 1.429 . S
C395 C394 1.347 . S
H396 C397 0.951 . S
C397 H396 0.951 . S
C397 C403 1.265 . S
H398 C403 0.950 . S
H399 C407 0.949 . S
H400 C408 0.950 . S
H401 C409 0.951 . S
H402 C410 0.951 . S
C403 C397 1.265 . S
C403 H398 0.950 . S
C403 C404 1.478 . S
C404 C403 1.478 . S
C404 C405 1.397 . S
C404 C421 1.394 1_554 S
C405 C404 1.397 . S
C405 C406 1.438 . S
C405 C410 1.429 . S
C406 C405 1.438 . S
C406 C407 1.428 . S
C406 C419 1.394 . S
C407 H399 0.949 . S
C407 C406 1.428 . S
C407 C408 1.345 . S
C408 H400 0.950 . S
C408 C407 1.345 . S
C408 C409 1.424 . S
C409 H401 0.951 . S
C409 C408 1.424 . S
C409 C410 1.347 . S
C410 H402 0.951 . S
C410 C405 1.429 . S
C410 C409 1.347 . S
H411 C412 0.951 . S
C412 H411 0.951 . S
C412 C418 1.265 . S
H413 C418 0.950 . S
H414 C422 0.949 . S
H415 C423 0.950 . S
H416 C424 0.951 . S
H417 C425 0.951 . S
C418 C412 1.265 . S
C418 H413 0.950 . S
C418 C419 1.478 . S
C419 C406 1.394 . S
C419 C418 1.478 . S
C419 C420 1.397 1_554 S
C420 C419 1.397 1_556 S
C420 C421 1.438 . S
C420 C425 1.429 . S
C421 C404 1.394 1_556 S
C421 C420 1.438 . S
C421 C422 1.428 . S
C422 H414 0.949 . S
C422 C421 1.428 . S
C422 C423 1.345 . S
C423 H415 0.950 . S
C423 C422 1.345 . S
C423 C424 1.424 . S
C424 H416 0.951 . S
C424 C423 1.424 . S
C424 C425 1.347 . S
C425 H417 0.951 . S
C425 C420 1.429 . S
C425 C424 1.347 . S
H426 C427 0.951 . S
C427 H426 0.951 . S
C427 C433 1.265 1_554 S
H428 C433 0.950 . S
H429 C437 0.949 . S
H430 C438 0.950 . S
H431 C439 0.951 . S
H432 C440 0.951 . S
C433 C427 1.265 1_556 S
C433 H428 0.950 . S
C433 C434 1.478 1_556 S
C434 C433 1.478 1_554 S
C434 C435 1.397 . S
C434 C451 1.394 1_554 S
C435 C434 1.397 . S
C435 C436 1.438 . S
C435 C440 1.429 . S
C436 C435 1.438 . S
C436 C437 1.428 . S
C436 C449 1.394 . S
C437 H429 0.949 . S
C437 C436 1.428 . S
C437 C438 1.345 . S
C438 H430 0.950 . S
C438 C437 1.345 . S
C438 C439 1.424 . S
C439 H431 0.951 . S
C439 C438 1.424 . S
C439 C440 1.347 . S
C440 H432 0.951 . S
C440 C435 1.429 . S
C440 C439 1.347 . S
H441 C442 0.951 1_556 S
C442 H441 0.951 1_554 S
C442 C448 1.265 . S
H443 C448 0.950 . S
H444 C452 0.949 . S
H445 C453 0.950 . S
H446 C454 0.951 . S
H447 C455 0.951 . S
C448 C442 1.265 . S
C448 H443 0.950 . S
C448 C449 1.478 . S
C449 C436 1.394 . S
C449 C448 1.478 . S
C449 C450 1.397 1_554 S
C450 C449 1.397 1_556 S
C450 C451 1.438 . S
C450 C455 1.429 . S
C451 C434 1.394 1_556 S
C451 C450 1.438 . S
C451 C452 1.428 . S
C452 H444 0.949 . S
C452 C451 1.428 . S
C452 C453 1.345 . S
C453 H445 0.950 . S
C453 C452 1.345 . S
C453 C454 1.424 . S
C454 H446 0.951 . S
C454 C453 1.424 . S
C454 C455 1.347 . S
C455 H447 0.951 . S
C455 C450 1.429 . S
C455 C454 1.347 . S
H456 C457 0.951 . S
C457 H456 0.951 . S
C457 C463 1.265 1_554 S
H458 C463 0.950 . S
H459 C467 0.949 . S
H460 C468 0.950 . S
H461 C469 0.951 . S
H462 C470 0.951 . S
C463 C457 1.265 1_556 S
C463 H458 0.950 . S
C463 C464 1.478 1_556 S
C464 C463 1.478 1_554 S
C464 C465 1.397 1_554 S
C464 C481 1.394 . S
C465 C464 1.397 1_556 S
C465 C466 1.438 . S
C465 C470 1.429 . S
C466 C465 1.438 . S
C466 C467 1.428 . S
C466 C479 1.394 1_556 S
C467 H459 0.949 . S
C467 C466 1.428 . S
C467 C468 1.345 . S
C468 H460 0.950 . S
C468 C467 1.345 . S
C468 C469 1.424 . S
C469 H461 0.951 . S
C469 C468 1.424 . S
C469 C470 1.347 . S
C470 H462 0.951 . S
C470 C465 1.429 . S
C470 C469 1.347 . S
H471 C472 0.951 . S
C472 H471 0.951 . S
C472 C478 1.265 1_556 S
H473 C478 0.950 . S
H474 C482 0.949 . S
H475 C483 0.950 . S
H476 C484 0.951 . S
H477 C485 0.951 . S
C478 C472 1.265 1_554 S
C478 H473 0.950 . S
C478 C479 1.478 . S
C479 C466 1.394 1_554 S
C479 C478 1.478 . S
C479 C480 1.397 . S
C480 C479 1.397 . S
C480 C481 1.438 . S
C480 C485 1.429 . S
C481 C464 1.394 . S
C481 C480 1.438 . S
C481 C482 1.428 . S
C482 H474 0.949 . S
C482 C481 1.428 . S
C482 C483 1.345 . S
C483 H475 0.950 . S
C483 C482 1.345 . S
C483 C484 1.424 . S
C484 H476 0.951 . S
C484 C483 1.424 . S
C484 C485 1.347 . S
C485 H477 0.951 . S
C485 C480 1.429 . S
C485 C484 1.347 . S
H486 C487 0.951 . S
C487 H486 0.951 . S
C487 C493 1.265 . S
H488 C493 0.950 . S
H489 C497 0.949 . S
H490 C498 0.950 . S
H491 C499 0.951 . S
H492 C500 0.951 . S
C493 C487 1.265 . S
C493 H488 0.950 . S
C493 C494 1.478 . S
C494 C493 1.478 . S
C494 C495 1.397 . S
C494 C511 1.394 . S
C495 C494 1.397 . S
C495 C496 1.438 . S
C495 C500 1.429 . S
C496 C495 1.438 . S
C496 C497 1.428 . S
C496 C509 1.394 . S
C497 H489 0.949 . S
C497 C496 1.428 . S
C497 C498 1.345 . S
C498 H490 0.950 . S
C498 C497 1.345 . S
C498 C499 1.424 . S
C499 H491 0.951 . S
C499 C498 1.424 . S
C499 C500 1.347 . S
C500 H492 0.951 . S
C500 C495 1.429 . S
C500 C499 1.347 . S
H501 C502 0.951 . S
C502 H501 0.951 . S
C502 C508 1.265 . S
H503 C508 0.950 . S
H504 C512 0.949 . S
H505 C513 0.950 . S
H506 C514 0.951 . S
H507 C515 0.951 . S
C508 C502 1.265 . S
C508 H503 0.950 . S
C508 C509 1.478 . S
C509 C496 1.394 . S
C509 C508 1.478 . S
C509 C510 1.397 . S
C510 C509 1.397 . S
C510 C511 1.438 . S
C510 C515 1.429 . S
C511 C494 1.394 . S
C511 C510 1.438 . S
C511 C512 1.428 . S
C512 H504 0.949 . S
C512 C511 1.428 . S
C512 C513 1.345 . S
C513 H505 0.950 . S
C513 C512 1.345 . S
C513 C514 1.424 . S
C514 H506 0.951 . S
C514 C513 1.424 . S
C514 C515 1.347 . S
C515 H507 0.951 . S
C515 C510 1.429 . S
C515 C514 1.347 . S
H516 C517 0.951 . S
C517 H516 0.951 . S
C517 C523 1.265 . S
H518 C523 0.950 . S
H519 C527 0.949 . S
H520 C528 0.950 . S
H521 C529 0.951 . S
H522 C530 0.951 . S
C523 C517 1.265 . S
C523 H518 0.950 . S
C523 C524 1.478 . S
C524 C523 1.478 . S
C524 C525 1.397 . S
C524 C541 1.394 . S
C525 C524 1.397 . S
C525 C526 1.438 . S
C525 C530 1.429 . S
C526 C525 1.438 . S
C526 C527 1.428 . S
C526 C539 1.394 . S
C527 H519 0.949 . S
C527 C526 1.428 . S
C527 C528 1.345 . S
C528 H520 0.950 . S
C528 C527 1.345 . S
C528 C529 1.424 . S
C529 H521 0.951 . S
C529 C528 1.424 . S
C529 C530 1.347 . S
C530 H522 0.951 . S
C530 C525 1.429 . S
C530 C529 1.347 . S
H531 C532 0.951 . S
C532 H531 0.951 . S
C532 C538 1.265 . S
H533 C538 0.950 . S
H534 C542 0.949 . S
H535 C543 0.950 . S
H536 C544 0.951 . S
H537 C545 0.951 . S
C538 C532 1.265 . S
C538 H533 0.950 . S
C538 C539 1.478 . S
C539 C526 1.394 . S
C539 C538 1.478 . S
C539 C540 1.397 . S
C540 C539 1.397 . S
C540 C541 1.438 . S
C540 C545 1.429 . S
C541 C524 1.394 . S
C541 C540 1.438 . S
C541 C542 1.428 . S
C542 H534 0.949 . S
C542 C541 1.428 . S
C542 C543 1.345 . S
C543 H535 0.950 . S
C543 C542 1.345 . S
C543 C544 1.424 . S
C544 H536 0.951 . S
C544 C543 1.424 . S
C544 C545 1.347 . S
C545 H537 0.951 . S
C545 C540 1.429 . S
C545 C544 1.347 . S
H546 C547 0.951 . S
C547 H546 0.951 . S
C547 C553 1.265 . S
H548 C553 0.950 . S
H549 C557 0.949 . S
H550 C558 0.950 . S
H551 C559 0.951 . S
H552 C560 0.951 . S
C553 C547 1.265 . S
C553 H548 0.950 . S
C553 C554 1.478 . S
C554 C553 1.478 . S
C554 C555 1.397 . S
C554 C571 1.394 . S
C555 C554 1.397 . S
C555 C556 1.438 . S
C555 C560 1.429 . S
C556 C555 1.438 . S
C556 C557 1.428 . S
C556 C569 1.394 . S
C557 H549 0.949 . S
C557 C556 1.428 . S
C557 C558 1.345 . S
C558 H550 0.950 . S
C558 C557 1.345 . S
C558 C559 1.424 . S
C559 H551 0.951 . S
C559 C558 1.424 . S
C559 C560 1.347 . S
C560 H552 0.951 . S
C560 C555 1.429 . S
C560 C559 1.347 . S
H561 C562 0.951 . S
C562 H561 0.951 . S
C562 C568 1.265 . S
H563 C568 0.950 . S
H564 C572 0.949 . S
H565 C573 0.950 . S
H566 C574 0.951 . S
H567 C575 0.951 . S
C568 C562 1.265 . S
C568 H563 0.950 . S
C568 C569 1.478 . S
C569 C556 1.394 . S
C569 C568 1.478 . S
C569 C570 1.397 . S
C570 C569 1.397 . S
C570 C571 1.438 . S
C570 C575 1.429 . S
C571 C554 1.394 . S
C571 C570 1.438 . S
C571 C572 1.428 . S
C572 H564 0.949 . S
C572 C571 1.428 . S
C572 C573 1.345 . S
C573 H565 0.950 . S
C573 C572 1.345 . S
C573 C574 1.424 . S
C574 H566 0.951 . S
C574 C573 1.424 . S
C574 C575 1.347 . S
C575 H567 0.951 . S
C575 C570 1.429 . S
C575 C574 1.347 . S
H576 C577 0.951 . S
C577 H576 0.951 . S
C577 C583 1.265 . S
H578 C583 0.950 . S
H579 C587 0.949 . S
H580 C588 0.950 . S
H581 C589 0.951 . S
H582 C590 0.951 . S
C583 C577 1.265 . S
C583 H578 0.950 . S
C583 C584 1.478 . S
C584 C583 1.478 . S
C584 C585 1.397 . S
C584 C601 1.394 . S
C585 C584 1.397 . S
C585 C586 1.438 . S
C585 C590 1.429 . S
C586 C585 1.438 . S
C586 C587 1.428 . S
C586 C599 1.394 . S
C587 H579 0.949 . S
C587 C586 1.428 . S
C587 C588 1.345 . S
C588 H580 0.950 . S
C588 C587 1.345 . S
C588 C589 1.424 . S
C589 H581 0.951 . S
C589 C588 1.424 . S
C589 C590 1.347 . S
C590 H582 0.951 . S
C590 C585 1.429 . S
C590 C589 1.347 . S
H591 C592 0.951 . S
C592 H591 0.951 . S
C592 C598 1.265 . S
H593 C598 0.950 . S
H594 C602 0.949 . S
H595 C603 0.950 . S
H596 C604 0.951 . S
H597 C605 0.951 . S
C598 C592 1.265 . S
C598 H593 0.950 . S
C598 C599 1.478 . S
C599 C586 1.394 . S
C599 C598 1.478 . S
C599 C600 1.397 . S
C600 C599 1.397 . S
C600 C601 1.438 . S
C600 C605 1.429 . S
C601 C584 1.394 . S
C601 C600 1.438 . S
C601 C602 1.428 . S
C602 H594 0.949 . S
C602 C601 1.428 . S
C602 C603 1.345 . S
C603 H595 0.950 . S
C603 C602 1.345 . S
C603 C604 1.424 . S
C604 H596 0.951 . S
C604 C603 1.424 . S
C604 C605 1.347 . S
C605 H597 0.951 . S
C605 C600 1.429 . S
C605 C604 1.347 . S
H606 C607 0.951 . S
C607 H606 0.951 . S
C607 C613 1.265 . S
H608 C613 0.950 . S
H609 C617 0.949 . S
H610 C618 0.950 . S
H611 C619 0.951 . S
H612 C620 0.951 . S
C613 C607 1.265 . S
C613 H608 0.950 . S
C613 C614 1.478 . S
C614 C613 1.478 . S
C614 C615 1.397 . S
C614 C631 1.394 . S
C615 C614 1.397 . S
C615 C616 1.438 . S
C615 C620 1.429 . S
C616 C615 1.438 . S
C616 C617 1.428 . S
C616 C629 1.394 . S
C617 H609 0.949 . S
C617 C616 1.428 . S
C617 C618 1.345 . S
C618 H610 0.950 . S
C618 C617 1.345 . S
C618 C619 1.424 . S
C619 H611 0.951 . S
C619 C618 1.424 . S
C619 C620 1.347 . S
C620 H612 0.951 . S
C620 C615 1.429 . S
C620 C619 1.347 . S
H621 C622 0.951 . S
C622 H621 0.951 . S
C622 C628 1.265 . S
H623 C628 0.950 . S
H624 C632 0.949 . S
H625 C633 0.950 . S
H626 C634 0.951 . S
H627 C635 0.951 . S
C628 C622 1.265 . S
C628 H623 0.950 . S
C628 C629 1.478 . S
C629 C616 1.394 . S
C629 C628 1.478 . S
C629 C630 1.397 . S
C630 C629 1.397 . S
C630 C631 1.438 . S
C630 C635 1.429 . S
C631 C614 1.394 . S
C631 C630 1.438 . S
C631 C632 1.428 . S
C632 H624 0.949 . S
C632 C631 1.428 . S
C632 C633 1.345 . S
C633 H625 0.950 . S
C633 C632 1.345 . S
C633 C634 1.424 . S
C634 H626 0.951 . S
C634 C633 1.424 . S
C634 C635 1.347 . S
C635 H627 0.951 . S
C635 C630 1.429 . S
C635 C634 1.347 . S
H636 C637 0.951 . S
C637 H636 0.951 . S
C637 C643 1.265 . S
H638 C643 0.950 . S
H639 C647 0.949 . S
H640 C648 0.950 . S
H641 C649 0.951 . S
H642 C650 0.951 . S
C643 C637 1.265 . S
C643 H638 0.950 . S
C643 C644 1.478 . S
C644 C643 1.478 . S
C644 C645 1.397 . S
C644 C661 1.394 . S
C645 C644 1.397 . S
C645 C646 1.438 . S
C645 C650 1.429 . S
C646 C645 1.438 . S
C646 C647 1.428 . S
C646 C659 1.394 . S
C647 H639 0.949 . S
C647 C646 1.428 . S
C647 C648 1.345 . S
C648 H640 0.950 . S
C648 C647 1.345 . S
C648 C649 1.424 . S
C649 H641 0.951 . S
C649 C648 1.424 . S
C649 C650 1.347 . S
C650 H642 0.951 . S
C650 C645 1.429 . S
C650 C649 1.347 . S
H651 C652 0.951 . S
C652 H651 0.951 . S
C652 C658 1.265 . S
H653 C658 0.950 . S
H654 C662 0.949 . S
H655 C663 0.950 . S
H656 C664 0.951 . S
H657 C665 0.951 . S
C658 C652 1.265 . S
C658 H653 0.950 . S
C658 C659 1.478 . S
C659 C646 1.394 . S
C659 C658 1.478 . S
C659 C660 1.397 . S
C660 C659 1.397 . S
C660 C661 1.438 . S
C660 C665 1.429 . S
C661 C644 1.394 . S
C661 C660 1.438 . S
C661 C662 1.428 . S
C662 H654 0.949 . S
C662 C661 1.428 . S
C662 C663 1.345 . S
C663 H655 0.950 . S
C663 C662 1.345 . S
C663 C664 1.424 . S
C664 H656 0.951 . S
C664 C663 1.424 . S
C664 C665 1.347 . S
C665 H657 0.951 . S
C665 C660 1.429 . S
C665 C664 1.347 . S
C127 C123 1.338 . S
C142 C16 1.127 . S
C157 C18 1.229 . S
C172 C37 1.200 . S
C187 C39 1.219 . S
C202 C58 1.184 . S
C217 C79 1.179 . S
C232 C60 1.217 . S
C247 C100 1.005 . S
C262 C81 1.354 . S
C277 C102 1.218 . S
C292 C121 1.182 . S
C307 C101 1.510 . S
C322 C13 1.388 . S
C337 C122 1.526 . S
C352 C34 1.455 1_554 S
C367 C55 1.437 1_554 S
C382 C17 1.503 . S
C397 C76 1.446 1_554 S
C412 C38 1.503 . S
C427 C97 1.458 1_554 S
C442 C59 1.506 . S
C457 C80 1.539 . S
C472 C118 1.318 . S
C487 C14 1.422 . S
C502 C15 1.434 . S
C517 C35 1.411 . S
C532 C36 1.438 . S
C547 C56 1.478 . S
C562 C57 1.504 . S
C577 C77 1.502 . S
C592 C78 1.521 . S
C607 C99 1.520 . S
C622 C98 1.514 . S
C637 C119 1.447 . S
C652 C120 1.478 . S
