# Generated by pormake.
# Topology bcg, (8)-cn, num edge types: 1
# Building blocks:
#     Node 0, Type 0, BuildingBlock: EBIMEJ_clean_sbu_0, # of connection points: 8
#     Node 1, Type 0, BuildingBlock: EBIMEJ_clean_sbu_0, # of connection points: 8
#     Node 2, Type 0, BuildingBlock: EBIMEJ_clean_sbu_0, # of connection points: 8
#     Node 3, Type 0, BuildingBlock: EBIMEJ_clean_sbu_0, # of connection points: 8
#     Edge 4, Type (0, 0), BuildingBlock: ZUJKAS_clean_linker_0, # of connection points: 2
#     Edge 5, Type (0, 0), BuildingBlock: ZUJKAS_clean_linker_0, # of connection points: 2
#     Edge 6, Type (0, 0), BuildingBlock: ZUJKAS_clean_linker_0, # of connection points: 2
#     Edge 7, Type (0, 0), BuildingBlock: ZUJKAS_clean_linker_0, # of connection points: 2
#     Edge 8, Type (0, 0), BuildingBlock: ZUJKAS_clean_linker_0, # of connection points: 2
#     Edge 9, Type (0, 0), BuildingBlock: ZUJKAS_clean_linker_0, # of connection points: 2
#     Edge 10, Type (0, 0), BuildingBlock: ZUJKAS_clean_linker_0, # of connection points: 2
#     Edge 11, Type (0, 0), BuildingBlock: ZUJKAS_clean_linker_0, # of connection points: 2
#     Edge 12, Type (0, 0), BuildingBlock: ZUJKAS_clean_linker_0, # of connection points: 2
#     Edge 13, Type (0, 0), BuildingBlock: ZUJKAS_clean_linker_0, # of connection points: 2
#     Edge 14, Type (0, 0), BuildingBlock: ZUJKAS_clean_linker_0, # of connection points: 2
#     Edge 15, Type (0, 0), BuildingBlock: ZUJKAS_clean_linker_0, # of connection points: 2
#     Edge 16, Type (0, 0), BuildingBlock: ZUJKAS_clean_linker_0, # of connection points: 2
#     Edge 17, Type (0, 0), BuildingBlock: ZUJKAS_clean_linker_0, # of connection points: 2
#     Edge 18, Type (0, 0), BuildingBlock: ZUJKAS_clean_linker_0, # of connection points: 2
#     Edge 19, Type (0, 0), BuildingBlock: ZUJKAS_clean_linker_0, # of connection points: 2
# Relax obj value: 0.042
# Max RMSD: 0.091
# Mean RMSD: 0.091
data_MOF--net-bcg--node1-EBIMEJ_clean_sbu_0--edge1-ZUJKAS_clean_linker_0
_symmetry_space_group_name_H-M    P1
_symmetry_Int_Tables_number       1
_symmetry_cell_setting            triclinic
loop_
_symmetry_equiv_pos_as_xyz
'x, y, z'
_cell_length_a     20.954217
_cell_length_b     35.915461
_cell_length_c     42.469122
_cell_angle_alpha  82.196305
_cell_angle_beta   90.030827
_cell_angle_gamma 89.979011
loop_
_atom_site_label
_atom_site_type_symbol
_atom_site_fract_x
_atom_site_fract_y
_atom_site_fract_z
_atom_type_partial_charge
Co0 Co 0.1839 0.24702 0.95411 0.0
Co1 Co 0.30992 0.24989 0.99875 0.0
Co2 Co 0.18096 0.256 0.02798 0.0
H3 H 0.19751 0.25808 0.9912 0.0
O4 O 0.22813 0.27373 0.98613 0.0
H5 H 0.29364 0.24698 0.03566 0.0
O6 O 0.26257 0.23158 0.04056 0.0
Co7 Co 0.30841 0.25664 0.07314 0.0
O8 O 0.39774 0.24055 0.06223 0.0
O9 O 0.39114 0.22566 0.01281 0.0
O10 O 0.23097 0.24832 0.1023 0.0
O11 O 0.14426 0.24529 0.07174 0.0
O12 O 0.11724 0.22623 0.92511 0.0
O13 O 0.18106 0.26736 0.90613 0.0
O14 O 0.31141 0.31081 0.05414 0.0
O15 O 0.3443 0.30094 1.00622 0.0
C16 C 0.07238 0.28177 0.98688 0.0
C17 C 0.32166 0.25241 0.92919 0.0
C18 C 0.35735 0.25867 0.12656 0.0
C19 C 0.15461 0.18253 1.00043 0.0
C20 C 0.42187 0.2274 0.03845 0.0
C21 C 0.17089 0.24432 0.09895 0.0
C22 C 0.13545 0.24659 0.90035 0.0
C23 C 0.33678 0.3226 0.02754 0.0
O24 O 0.09729 0.26895 0.9631 0.0
O25 O 0.10056 0.28082 0.01356 0.0
O26 O 0.34583 0.26117 0.95485 0.0
O27 O 0.26327 0.24287 0.9271 0.0
O28 O 0.37148 0.28069 0.10199 0.0
O29 O 0.31544 0.23551 0.12077 0.0
O30 O 0.18233 0.19333 0.97427 0.0
O31 O 0.1451 0.20514 0.02083 0.0
Co32 Co 0.68096 0.75152 0.95402 0.0
Co33 Co 0.80904 0.74771 0.99891 0.0
Co34 Co 0.68119 0.75717 0.02855 0.0
H35 H 0.69709 0.76021 0.99162 0.0
O36 O 0.72937 0.7747 0.98683 0.0
H37 H 0.79333 0.74523 0.03575 0.0
O38 O 0.76121 0.73067 0.04072 0.0
Co39 Co 0.80952 0.75458 0.0731 0.0
O40 O 0.89645 0.73432 0.06236 0.0
O41 O 0.88791 0.72055 1.01265 0.0
O42 O 0.73269 0.74544 0.10246 0.0
O43 O 0.64456 0.74617 0.07235 0.0
O44 O 0.60428 0.73746 0.92723 0.0
O45 O 0.68609 0.76028 0.90499 0.0
O46 O 0.81352 0.8086 0.05377 0.0
O47 O 0.84868 0.7974 1.00666 0.0
C48 C 0.5695 0.78165 0.98955 0.0
C49 C 0.81824 0.76371 0.92806 0.0
C50 C 0.8581 0.75864 0.12625 0.0
C51 C 0.65018 0.68564 0.99911 0.0
C52 C 0.91892 0.7206 0.03844 0.0
C53 C 0.67225 0.74308 0.09943 0.0
C54 C 0.63114 0.74778 0.90107 0.0
C55 C 0.84085 0.8196 0.02753 0.0
O56 O 0.59231 0.76798 0.96571 0.0
O57 O 0.60155 0.78363 0.01476 0.0
O58 O 0.84564 0.75813 0.95518 0.0
O59 O 0.75764 0.76326 0.9247 0.0
O60 O 0.88543 0.74485 0.10421 0.0
O61 O 0.80312 0.77016 0.11813 0.0
O62 O 0.67655 0.69725 0.97272 0.0
O63 O 0.64303 0.70724 0.02049 0.0
Co64 Co 0.1788 0.75675 0.5726 0.0
Co65 Co 0.30885 0.75609 0.5293 0.0
Co66 Co 0.18124 0.75063 0.49836 0.0
H67 H 0.19579 0.74722 0.53541 0.0
O68 O 0.2266 0.73171 0.5406 0.0
H69 H 0.29422 0.75969 0.49216 0.0
O70 O 0.2632 0.77511 0.48723 0.0
Co71 Co 0.31045 0.75158 0.45437 0.0
O72 O 0.38953 0.78098 0.46369 0.0
O73 O 0.39001 0.78128 0.51645 0.0
O74 O 0.23241 0.74933 0.426 0.0
O75 O 0.14692 0.7624 0.45421 0.0
O76 O 0.11444 0.77928 0.60165 0.0
O77 O 0.16937 0.73318 0.6196 0.0
O78 O 0.32011 0.69733 0.4718 0.0
O79 O 0.34462 0.70543 0.52141 0.0
C80 C 0.06494 0.73429 0.5344 0.0
C81 C 0.31512 0.7431 0.6002 0.0
C82 C 0.36148 0.75112 0.40128 0.0
C83 C 0.15267 0.82309 0.52715 0.0
C84 C 0.41502 0.78959 0.48905 0.0
C85 C 0.17303 0.75667 0.4281 0.0
C86 C 0.12728 0.75611 0.6257 0.0
C87 C 0.342 0.68485 0.49903 0.0
O88 O 0.088 0.74873 0.55781 0.0
O89 O 0.09929 0.72666 0.51139 0.0
O90 O 0.34324 0.74407 0.57338 0.0
O91 O 0.25492 0.74756 0.6027 0.0
O92 O 0.38411 0.73491 0.42696 0.0
O93 O 0.31016 0.76766 0.40582 0.0
O94 O 0.17664 0.81114 0.55406 0.0
O95 O 0.14638 0.80158 0.50566 0.0
Co96 Co 0.68461 0.25381 0.5738 0.0
Co97 Co 0.81066 0.25816 0.52731 0.0
Co98 Co 0.68137 0.24871 0.49915 0.0
H99 H 0.69897 0.24562 0.53589 0.0
O100 O 0.73151 0.2312 0.54026 0.0
H101 H 0.79315 0.26077 0.49059 0.0
O102 O 0.76081 0.2753 0.48607 0.0
Co103 Co 0.80746 0.25169 0.45294 0.0
O104 O 0.89662 0.26836 0.46365 0.0
O105 O 0.88941 0.28488 0.51251 0.0
O106 O 0.72941 0.2637 0.42457 0.0
O107 O 0.64261 0.25968 0.45586 0.0
O108 O 0.68316 0.27681 0.61589 0.0
O109 O 0.62106 0.2336 0.60915 0.0
O110 O 0.81224 0.19755 0.47209 0.0
O111 O 0.84875 0.20831 0.51914 0.0
C112 C 0.57187 0.22323 0.53954 0.0
C113 C 0.82292 0.24194 0.59818 0.0
C114 C 0.8543 0.24813 0.39929 0.0
C115 C 0.6507 0.31995 0.52935 0.0
C116 C 0.92032 0.28262 0.48701 0.0
C117 C 0.669 0.26488 0.42848 0.0
C118 C 0.63887 0.25587 0.6278 0.0
C119 C 0.83997 0.18629 0.49822 0.0
O120 O 0.5956 0.23676 0.56324 0.0
O121 O 0.60248 0.22206 0.51379 0.0
O122 O 0.84919 0.24761 0.57076 0.0
O123 O 0.76255 0.24233 0.60215 0.0
O124 O 0.88159 0.23642 0.42509 0.0
O125 O 0.8006 0.26186 0.40399 0.0
O126 O 0.67696 0.30807 0.55572 0.0
O127 O 0.644 0.29872 0.50764 0.0
H128 H 0.50957 0.24291 0.08245 0.0
H129 H 0.62362 0.25145 0.07292 0.0
H130 H 0.6055 0.2059 0.98449 0.0
H131 H 0.49113 0.1975 0.99347 0.0
H132 H 0.73073 0.20641 0.0553 0.0
H133 H 0.65239 0.31983 0.96056 0.0
H134 H 0.59881 0.29763 0.99069 0.0
H135 H 0.62125 0.27373 0.95788 0.0
C136 C 0.52999 0.23353 0.06146 0.0
C137 C 0.49109 0.22065 0.03819 0.0
C138 C 0.59514 0.23851 0.05607 0.0
C139 C 0.62183 0.23037 0.02758 0.0
C140 C 0.58485 0.21308 1.00627 0.0
H141 H 0.98601 0.26881 0.94144 0.0
H142 H 0.87107 0.26361 0.9495 0.0
C143 C 0.51967 0.2082 1.01153 0.0
C144 C 0.68575 0.24442 0.01841 0.0
H145 H 0.76352 0.31001 0.96663 0.0
C146 C 0.73814 0.22904 0.03598 0.0
C147 C 0.69437 0.27421 0.99333 0.0
C148 C 0.63878 0.29262 0.97462 0.0
C149 C 0.79982 0.24224 0.02864 0.0
C150 C 0.80847 0.27205 1.00356 0.0
C151 C 0.75608 0.28744 0.98599 0.0
C152 C 0.87253 0.28578 0.99436 0.0
C153 C 0.85538 0.2237 0.04731 0.0
C154 C 0.90977 0.30281 0.01575 0.0
C155 C 0.97547 0.30569 1.01137 0.0
C156 C 0.00419 0.29153 0.98552 0.0
C157 C 0.96539 0.27945 0.96185 0.0
C158 C 0.8997 0.2764 0.96638 0.0
H159 H 0.84163 0.19658 0.06146 0.0
H160 H 0.89516 0.21848 0.03119 0.0
H161 H 0.87327 0.2426 0.06396 0.0
H162 H 0.88883 0.31085 0.03715 0.0
H163 H 0.00407 0.31589 0.02966 0.0
H164 H 0.00705 0.72681 0.08504 0.0
H165 H 0.12176 0.73297 0.07673 0.0
H166 H 0.10129 0.69994 0.98339 0.0
H167 H 0.98635 0.6938 0.99118 0.0
H168 H 0.22884 0.68799 0.05179 0.0
H169 H 0.14891 0.81668 0.97336 0.0
H170 H 0.09717 0.79082 1.00248 0.0
H171 H 0.11431 0.77285 0.96598 0.0
C172 C 0.02694 0.71954 0.06316 0.0
C173 C 0.98733 0.71114 0.0383 0.0
C174 C 0.09256 0.72304 0.05852 0.0
C175 C 0.11897 0.71789 0.02917 0.0
C176 C 0.08099 0.70457 1.006 0.0
H177 H 0.48158 0.77357 0.94334 0.0
H178 H 0.36759 0.76332 0.95214 0.0
C179 C 0.01538 0.70108 1.01056 0.0
C180 C 0.18297 0.73248 0.02093 0.0
H181 H 0.25979 0.80575 0.97722 0.0
C182 C 0.23588 0.71365 0.03549 0.0
C183 C 0.19112 0.76621 0.99986 0.0
C184 C 0.13499 0.7881 0.98462 0.0
C185 C 0.29757 0.72749 0.02906 0.0
C186 C 0.30568 0.76127 1.00807 0.0
C187 C 0.25279 0.78003 0.99344 0.0
C188 C 0.36949 0.77651 1.00031 0.0
C189 C 0.35374 0.70568 0.04435 0.0
C190 C 0.40647 0.78993 0.0238 0.0
C191 C 0.47156 0.79587 0.01893 0.0
C192 C 0.50018 0.78816 0.99055 0.0
C193 C 0.46121 0.77917 0.96566 0.0
C194 C 0.3961 0.77325 0.9706 0.0
H195 H 0.34003 0.67689 0.05518 0.0
H196 H 0.39207 0.70352 0.02664 0.0
H197 H 0.3736 0.72067 0.06335 0.0
H198 H 0.38591 0.79319 0.04667 0.0
H199 H 0.50003 0.80338 0.03842 0.0
H200 H 0.49267 0.80153 0.43682 0.0
H201 H 0.60893 0.8042 0.4383 0.0
H202 H 0.6028 0.81264 0.53854 0.0
H203 H 0.48677 0.81045 0.53746 0.0
H204 H 0.71356 0.84936 0.5015 0.0
H205 H 0.66579 0.69938 0.48846 0.0
H206 H 0.63457 0.73442 0.4581 0.0
H207 H 0.60351 0.73077 0.49779 0.0
C208 C 0.5158 0.80546 0.45894 0.0
C209 C 0.48073 0.8043 0.48731 0.0
C210 C 0.58221 0.80708 0.45967 0.0
C211 C 0.61379 0.80759 0.48868 0.0
C212 C 0.57883 0.81192 0.51601 0.0
H213 H 0.97436 0.7501 0.57693 0.0
H214 H 0.86342 0.76709 0.56462 0.0
C215 C 0.5125 0.81041 0.51534 0.0
C216 C 0.6804 0.79518 0.4923 0.0
H217 H 0.77133 0.7158 0.49813 0.0
C218 C 0.72664 0.82033 0.50042 0.0
C219 C 0.69646 0.7571 0.49118 0.0
C220 C 0.64759 0.72866 0.48363 0.0
C221 C 0.78919 0.80824 0.50759 0.0
C222 C 0.80466 0.76992 0.50732 0.0
C223 C 0.75875 0.74505 0.49848 0.0
C224 C 0.86845 0.75504 0.51613 0.0
C225 C 0.83813 0.83652 0.51528 0.0
C226 C 0.90579 0.73994 0.49364 0.0
C227 C 0.96876 0.72962 0.50068 0.0
C228 C 0.99518 0.7345 0.53032 0.0
C229 C 0.95566 0.74646 0.55375 0.0
C230 C 0.89259 0.75661 0.54668 0.0
H231 H 0.82325 0.86578 0.50645 0.0
H232 H 0.84393 0.8342 0.54144 0.0
H233 H 0.88525 0.83117 0.5048 0.0
H234 H 0.88724 0.73793 0.4701 0.0
H235 H -0.00227 0.72031 0.48212 0.0
H236 H 0.00771 0.26859 0.44234 0.0
H237 H 0.12183 0.25993 0.45151 0.0
H238 H 0.10456 0.3033 0.54094 0.0
H239 H 0.99004 0.31169 0.53238 0.0
H240 H 0.2292 0.30378 0.46929 0.0
H241 H 0.15188 0.18959 0.56346 0.0
H242 H 0.09783 0.21236 0.53379 0.0
H243 H 0.12118 0.23561 0.56685 0.0
C244 C 0.02828 0.27745 0.46352 0.0
C245 C 0.98953 0.28967 0.48715 0.0
C246 C 0.09352 0.27242 0.46869 0.0
C247 C 0.12053 0.27987 0.49732 0.0
C248 C 0.0837 0.29661 0.51904 0.0
H249 H 0.48402 0.2366 0.5842 0.0
H250 H 0.36966 0.24397 0.57506 0.0
C251 C 0.01841 0.30152 0.514 0.0
C252 C 0.1846 0.26561 0.50615 0.0
H253 H 0.26291 0.19942 0.55723 0.0
C254 C 0.23681 0.28099 0.48846 0.0
C255 C 0.19353 0.23557 0.531 0.0
C256 C 0.13818 0.21701 0.54976 0.0
C257 C 0.29857 0.2676 0.49548 0.0
C258 C 0.30753 0.23761 0.52038 0.0
C259 C 0.2553 0.22218 0.53803 0.0
C260 C 0.37169 0.22367 0.52941 0.0
C261 C 0.35388 0.28616 0.47669 0.0
C262 C 0.40907 0.20709 0.50779 0.0
C263 C 0.4745 0.20296 0.5128 0.0
C264 C 0.50293 0.21538 0.53952 0.0
C265 C 0.46376 0.22732 0.56312 0.0
C266 C 0.39838 0.2316 0.55797 0.0
H267 H 0.3401 0.31349 0.46286 0.0
H268 H 0.39415 0.29099 0.49266 0.0
H269 H 0.37107 0.26747 0.45971 0.0
H270 H 0.3885 0.20006 0.48594 0.0
H271 H 0.50324 0.19295 0.49448 0.0
H272 H 0.6541 0.63294 0.95808 0.0
H273 H 0.60051 0.57215 0.96292 0.0
H274 H 0.52605 0.58978 0.0543 0.0
H275 H 0.58015 0.65087 0.04983 0.0
H276 H 0.57395 0.51648 0.05285 0.0
H277 H 0.4086 0.55706 0.95199 0.0
H278 H 0.49131 0.5647 0.94215 0.0
H279 H 0.45409 0.59114 0.97017 0.0
C280 C 0.62667 0.62399 0.97937 0.0
C281 C 0.62146 0.64715 1.00352 0.0
C282 C 0.59553 0.58919 0.98195 0.0
C283 C 0.55803 0.57658 1.00866 0.0
C284 C 0.55426 0.59898 0.03332 0.0
H285 H 0.33134 0.3756 0.06825 0.0
H286 H 0.38403 0.43666 0.06326 0.0
C287 C 0.58539 0.63393 0.03075 0.0
C288 C 0.52316 0.54001 1.01077 0.0
H289 H 0.41063 0.49244 0.97339 0.0
C290 C 0.53797 0.51132 0.03558 0.0
C291 C 0.47629 0.53309 0.98818 0.0
C292 C 0.45607 0.56319 0.96177 0.0
C293 C 0.50827 0.47584 0.03807 0.0
C294 C 0.46142 0.46891 0.01547 0.0
C295 C 0.44658 0.4976 0.99066 0.0
C296 C 0.42667 0.43229 0.01755 0.0
C297 C 0.5285 0.44574 0.06448 0.0
C298 C 0.43073 0.40986 0.99293 0.0
C299 C 0.40011 0.37475 0.99558 0.0
C300 C 0.36427 0.36139 0.02285 0.0
C301 C 0.35861 0.38465 0.04693 0.0
C302 C 0.38923 0.4196 0.04426 0.0
H303 H 0.57593 0.4519 0.07429 0.0
H304 H 0.49321 0.44419 0.08408 0.0
H305 H 0.53058 0.4178 0.05607 0.0
H306 H 0.45889 0.41913 0.97194 0.0
H307 H 0.40572 0.35774 0.97656 0.0
H308 H 0.59424 0.35897 0.47597 0.0
H309 H 0.54344 0.4211 0.47089 0.0
H310 H 0.58917 0.42951 0.56865 0.0
H311 H 0.64111 0.36835 0.5737 0.0
H312 H 0.44165 0.44485 0.50222 0.0
H313 H 0.65169 0.52973 0.52702 0.0
H314 H 0.65882 0.48189 0.51889 0.0
H315 H 0.63688 0.49156 0.55795 0.0
C316 C 0.59426 0.37426 0.49627 0.0
C317 C 0.62255 0.35858 0.52514 0.0
C318 C 0.56497 0.4098 0.49336 0.0
C319 C 0.56335 0.43054 0.5192 0.0
C320 C 0.59125 0.41481 0.54804 0.0
H321 H 0.39502 0.64545 0.55327 0.0
H322 H 0.44588 0.58327 0.5589 0.0
C323 C 0.62079 0.37953 0.55091 0.0
C324 C 0.53023 0.46779 0.51658 0.0
H325 H 0.55042 0.55978 0.52757 0.0
C326 C 0.46565 0.47001 0.50755 0.0
C327 C 0.56113 0.50077 0.52373 0.0
C328 C 0.6311 0.50104 0.53214 0.0
C329 C 0.43102 0.50385 0.50602 0.0
C330 C 0.4619 0.53681 0.51319 0.0
C331 C 0.52645 0.5346 0.52226 0.0
C332 C 0.42886 0.57408 0.51027 0.0
C333 C 0.36117 0.50371 0.49738 0.0
C334 C 0.40259 0.58992 0.48109 0.0
C335 C 0.37317 0.62523 0.47787 0.0
C336 C 0.36974 0.64609 0.50367 0.0
C337 C 0.39625 0.63024 0.53294 0.0
C338 C 0.42559 0.59468 0.53616 0.0
H339 H 0.34048 0.47502 0.50221 0.0
H340 H 0.33332 0.52273 0.51071 0.0
H341 H 0.35573 0.51351 0.47159 0.0
H342 H 0.40589 0.57526 0.46049 0.0
H343 H 0.35423 0.63648 0.4548 0.0
H344 H 0.16537 0.12746 0.96191 0.0
H345 H 0.11175 0.06667 0.96696 0.0
H346 H 0.02662 0.08829 0.05506 0.0
H347 H 0.07942 0.14973 0.04995 0.0
H348 H 0.11659 0.00475 1.01226 0.0
H349 H 0.87106 0.06318 1.00472 0.0
H350 H 0.94074 0.09207 0.99537 0.0
H351 H 0.91839 0.07778 0.03609 0.0
C352 C 0.13554 0.11938 0.98252 0.0
C353 C 0.12666 0.14386 1.00545 0.0
C354 C 0.10479 0.08445 0.98534 0.0
C355 C 0.06399 0.07301 1.01105 0.0
C356 C 0.05659 0.09675 0.03458 0.0
H357 H 0.83176 0.87428 0.06652 0.0
H358 H 0.88587 0.93493 0.06152 0.0
C359 C 0.0874 0.13181 0.03178 0.0
C360 C 0.02939 0.03632 0.01294 0.0
H361 H 0.88036 0.99696 0.01595 0.0
C362 C 0.06492 1.00309 0.01297 0.0
C363 C 0.96187 0.03398 0.01375 0.0
C364 C 0.92063 0.06864 1.01219 0.0
C365 C 0.03507 0.96773 0.01443 0.0
C366 C 0.96756 0.9654 0.01529 0.0
C367 C 0.93203 0.99862 0.01524 0.0
C368 C 0.93294 0.92871 0.01724 0.0
C369 C 0.07627 0.93307 0.01589 0.0
C370 C 0.93988 0.90507 0.99361 0.0
C371 C 0.90877 0.8701 0.99636 0.0
C372 C 0.86971 0.85804 0.02277 0.0
C373 C 0.86145 0.88238 0.04586 0.0
C374 C 0.89246 0.91722 0.04306 0.0
H375 H 0.12595 0.93853 0.0232 0.0
H376 H 0.05632 0.90966 0.03279 0.0
H377 H 0.07815 0.92389 0.99199 0.0
H378 H 0.96965 0.91356 0.97306 0.0
H379 H 0.91626 0.85229 0.97806 0.0
H380 H 0.91122 0.15222 0.54871 0.0
H381 H 0.96345 0.09063 0.55398 0.0
H382 H 0.88635 0.07151 0.46344 0.0
H383 H 0.83326 0.13255 0.45816 0.0
H384 H 0.87755 0.00859 0.50809 0.0
H385 H 0.12322 0.0664 0.50638 0.0
H386 H 0.07333 0.08063 0.53696 0.0
H387 H 0.05425 0.09557 0.49589 0.0
C388 C 0.90496 0.13485 0.52998 0.0
C389 C 0.86808 0.14767 0.50293 0.0
C390 C 0.93538 0.09969 0.53292 0.0
C391 C 0.93003 0.0766 0.50881 0.0
C392 C 0.89166 0.0888 0.48229 0.0
H393 H 0.08199 0.85691 0.47638 0.0
H394 H 0.02842 0.9181 0.4711 0.0
C395 C 0.86125 0.12386 0.47933 0.0
C396 C 0.96449 0.03986 0.51096 0.0
H397 H 0.11329 1.00017 0.51692 0.0
C398 C 0.92911 0.00678 0.50992 0.0
C399 C 0.03188 0.03736 0.51323 0.0
C400 C 0.07307 0.07187 0.51289 0.0
C401 C 0.95898 0.97138 0.51176 0.0
C402 C 0.02636 0.9689 0.5141 0.0
C403 C 0.06172 1.00197 0.5151 0.0
C404 C 0.06103 0.93224 0.51638 0.0
C405 C 0.9179 0.93682 0.51201 0.0
C406 C 0.09932 0.92025 0.54297 0.0
C407 C 0.13051 0.88544 0.54593 0.0
C408 C 0.12461 0.8617 0.52224 0.0
C409 C 0.08777 0.8743 0.49512 0.0
C410 C 0.05648 0.9092 0.4922 0.0
H411 H 0.8676 0.94227 0.51829 0.0
H412 H 0.91811 0.92795 0.48798 0.0
H413 H 0.93652 0.91317 0.52912 0.0
H414 H 0.10402 0.93753 0.56186 0.0
H415 H 0.15834 0.87686 0.56718 0.0
H416 H 0.54939 0.23649 0.4202 0.0
H417 H 0.49244 0.23591 0.36972 0.0
H418 H 0.64037 0.30442 0.32078 0.0
H419 H 0.69846 0.30372 0.37067 0.0
H420 H 0.44138 0.28627 0.3253 0.0
H421 H 0.64261 0.21868 0.2706 0.0
H422 H 0.64139 0.22382 0.31222 0.0
H423 H 0.66603 0.26235 0.28309 0.0
C424 C 0.56931 0.25178 0.3987 0.0
C425 C 0.62884 0.26975 0.39938 0.0
C426 C 0.53687 0.25131 0.36982 0.0
C427 C 0.56306 0.26907 0.34114 0.0
C428 C 0.62027 0.28923 0.34226 0.0
H429 H 0.45409 0.30382 0.14215 0.0
H430 H 0.50125 0.30595 0.19476 0.0
C431 C 0.65318 0.28914 0.37091 0.0
C432 C 0.53149 0.26609 0.31003 0.0
H433 H 0.55936 0.24348 0.2355 0.0
C434 C 0.4671 0.27664 0.30577 0.0
C435 C 0.56468 0.25314 0.28447 0.0
C436 C 0.63224 0.23848 0.2879 0.0
C437 C 0.43582 0.27575 0.27651 0.0
C438 C 0.46969 0.26394 0.2508 0.0
C439 C 0.53367 0.25292 0.25513 0.0
C440 C 0.43985 0.26294 0.2191 0.0
C441 C 0.36713 0.28822 0.27306 0.0
C442 C 0.39012 0.23776 0.21522 0.0
C443 C 0.36338 0.23631 0.18515 0.0
C444 C 0.38579 0.26009 0.15838 0.0
C445 C 0.43567 0.28523 0.16232 0.0
C446 C 0.46266 0.28647 0.19235 0.0
H447 H 0.35177 0.30355 0.2928 0.0
H448 H 0.35962 0.30662 0.25015 0.0
H449 H 0.33612 0.26316 0.27317 0.0
H450 H 0.37247 0.21889 0.2354 0.0
H451 H 0.32522 0.21653 0.18286 0.0
H452 H 0.54447 0.75856 0.10669 0.0
H453 H 0.48681 0.76013 0.15687 0.0
H454 H 0.65513 0.72012 0.20935 0.0
H455 H 0.7131 0.71925 0.15981 0.0
H456 H 0.45805 0.70762 0.20817 0.0
H457 H 0.61841 0.81529 0.24662 0.0
H458 H 0.61935 0.80335 0.20671 0.0
H459 H 0.66123 0.77458 0.23815 0.0
C460 C 0.56895 0.74971 0.12893 0.0
C461 C 0.6337 0.73919 0.12914 0.0
C462 C 0.536 0.75076 0.15761 0.0
C463 C 0.56715 0.74128 0.18696 0.0
C464 C 0.63058 0.72874 0.1871 0.0
H465 H 0.47738 0.72223 0.38751 0.0
H466 H 0.52442 0.72026 0.33484 0.0
C467 C 0.66356 0.72798 0.15863 0.0
C468 C 0.53421 0.7448 0.21754 0.0
H469 H 0.54926 0.78383 0.28632 0.0
C470 C 0.47764 0.72456 0.22512 0.0
C471 C 0.5595 0.76712 0.23967 0.0
C472 C 0.61757 0.79162 0.23227 0.0
C473 C 0.44712 0.72496 0.25462 0.0
C474 C 0.47358 0.74637 0.27704 0.0
C475 C 0.52939 0.76713 0.26924 0.0
C476 C 0.44444 0.74739 0.30886 0.0
C477 C 0.38775 0.70167 0.26197 0.0
C478 C 0.38425 0.76377 0.31177 0.0
C479 C 0.35752 0.76517 0.34182 0.0
C480 C 0.3904 0.75012 0.36955 0.0
C481 C 0.45081 0.73392 0.36659 0.0
C482 C 0.47772 0.73279 0.33653 0.0
H483 H 0.38083 0.68099 0.24505 0.0
H484 H 0.38979 0.68638 0.2865 0.0
H485 H 0.34553 0.72049 0.26037 0.0
H486 H 0.35816 0.77576 0.29079 0.0
H487 H 0.31099 0.77795 0.34332 0.0
H488 H 0.2717 0.72795 0.66136 0.0
H489 H 0.33235 0.72638 0.71049 0.0
H490 H 0.50609 0.74683 0.65665 0.0
H491 H 0.44553 0.74861 0.60697 0.0
H492 H 0.43873 0.67979 0.73395 0.0
H493 H 0.49932 0.832 0.71425 0.0
H494 H 0.4369 0.8122 0.69235 0.0
H495 H 0.51905 0.80541 0.68262 0.0
C496 C 0.32285 0.73191 0.65977 0.0
C497 C 0.35353 0.7386 0.63002 0.0
C498 C 0.35749 0.73096 0.68801 0.0
C499 C 0.4236 0.737 0.68728 0.0
C500 C 0.45492 0.74262 0.65775 0.0
H501 H 0.6871 0.76383 0.84273 0.0
H502 H 0.63941 0.75962 0.79063 0.0
C503 C 0.42026 0.74335 0.62938 0.0
C504 C 0.45895 0.73791 0.71756 0.0
H505 H 0.53838 0.79662 0.76105 0.0
C506 C 0.46078 0.70527 0.73985 0.0
C507 C 0.4877 0.77118 0.72521 0.0
C508 C 0.4855 0.80735 0.70254 0.0
C509 C 0.49069 0.70495 0.76955 0.0
C510 C 0.51818 0.73847 0.77755 0.0
C511 C 0.51723 0.77096 0.755 0.0
C512 C 0.5472 0.7406 0.80933 0.0
C513 C 0.4933 0.66851 0.79186 0.0
C514 C 0.51112 0.73183 0.83726 0.0
C515 C 0.5384 0.73401 0.86708 0.0
C516 C 0.60211 0.74547 0.86955 0.0
C517 C 0.63791 0.75482 0.84159 0.0
C518 C 0.61069 0.75245 0.81179 0.0
H519 H 0.48823 0.64383 0.77885 0.0
H520 H 0.5388 0.66581 0.80539 0.0
H521 H 0.45332 0.66774 0.80906 0.0
H522 H 0.46157 0.7236 0.83601 0.0
H523 H 0.50946 0.72697 0.88818 0.0
H524 H 0.43466 0.29036 0.91415 0.0
H525 H 0.49402 0.29446 0.86382 0.0
H526 H 0.35919 0.21896 0.82909 0.0
H527 H 0.29896 0.21583 0.87829 0.0
H528 H 0.55377 0.24344 0.83248 0.0
H529 H 0.35264 0.30461 0.75851 0.0
H530 H 0.35135 0.30057 0.80131 0.0
H531 H 0.33074 0.26093 0.78147 0.0
C532 C 0.41781 0.27466 0.89574 0.0
C533 C 0.36148 0.25325 0.9001 0.0
C534 C 0.45171 0.27704 0.86698 0.0
C535 C 0.43006 0.2579 0.8422 0.0
C536 C 0.37566 0.23512 0.84726 0.0
H537 H 0.5399 0.21437 0.65548 0.0
H538 H 0.4936 0.21639 0.70815 0.0
C539 C 0.34144 0.23316 0.87561 0.0
C540 C 0.4638 0.26133 0.81102 0.0
H541 H 0.4383 0.27907 0.73084 0.0
C542 C 0.52876 0.25169 0.81027 0.0
C543 C 0.43136 0.27233 0.78192 0.0
C544 C 0.36289 0.28557 0.78082 0.0
C545 C 0.56122 0.25111 0.78129 0.0
C546 C 0.52797 0.26073 0.75228 0.0
C547 C 0.4636 0.27134 0.75306 0.0
C548 C 0.55819 0.25897 0.72079 0.0
C549 C 0.63019 0.23897 0.78191 0.0
C550 C 0.60973 0.28241 0.71024 0.0
C551 C 0.63626 0.28132 0.68007 0.0
C552 C 0.61157 0.25687 0.65987 0.0
C553 C 0.56004 0.23346 0.6705 0.0
C554 C 0.53351 0.2346 0.70059 0.0
H555 H 0.64473 0.22478 0.80572 0.0
H556 H 0.63909 0.21962 0.7641 0.0
H557 H 0.66095 0.26406 0.77585 0.0
H558 H 0.62883 0.30194 0.72513 0.0
H559 H 0.67584 0.29977 0.67249 0.0
H560 H 0.21181 0.74116 0.36984 0.0
H561 H 0.14959 0.74283 0.32141 0.0
H562 H 0.98272 0.77571 0.37019 0.0
H563 H 0.04529 0.77466 0.41926 0.0
H564 H 0.04055 0.70056 0.31172 0.0
H565 H 0.99107 0.85411 0.28949 0.0
H566 H 0.05196 0.83431 0.31689 0.0
H567 H 0.96937 0.83037 0.32802 0.0
C568 C 0.16204 0.74913 0.37047 0.0
C569 C 0.13389 0.75811 0.39863 0.0
C570 C 0.12641 0.7499 0.34262 0.0
C571 C 0.06167 0.75978 0.34199 0.0
C572 C 0.03294 0.76862 0.36997 0.0
H573 H 0.80014 0.78007 0.17864 0.0
H574 H 0.84562 0.77952 0.23196 0.0
C575 C 0.06872 0.76782 0.39805 0.0
C576 C 0.02483 0.75974 0.31202 0.0
H577 H 0.94916 0.81704 0.25265 0.0
C578 C 0.02026 0.726 0.29889 0.0
C579 C -0.00184 0.7929 0.29534 0.0
C580 C 0.00307 0.83011 0.30791 0.0
C581 C 0.99041 0.72455 0.26945 0.0
C582 C 0.96554 0.75794 0.25223 0.0
C583 C 0.96848 0.7915 0.26576 0.0
C584 C 0.93809 0.75874 0.21978 0.0
C585 C 0.98551 0.68713 0.25718 0.0
C586 C 0.97519 0.74788 0.195 0.0
C587 C 0.94928 0.74804 0.1646 0.0
C588 C 0.88592 0.7595 0.15823 0.0
C589 C 0.84916 0.77112 0.18284 0.0
C590 C 0.87506 0.77081 0.21331 0.0
H591 H 0.98866 0.66335 0.27681 0.0
H592 H 0.94003 0.68474 0.24418 0.0
H593 H 0.02561 0.68434 0.24061 0.0
H594 H 0.02439 0.73934 0.19916 0.0
H595 H 0.97891 0.73919 0.14608 0.0
H596 H 0.97357 0.22466 0.38485 0.0
H597 H 0.01926 0.22259 0.33199 0.0
H598 H 0.8423 0.26439 0.28882 0.0
H599 H 0.7969 0.26725 0.34157 0.0
H600 H 0.98227 0.18324 0.28443 0.0
H601 H 0.96976 0.3362 0.24189 0.0
H602 H 0.95798 0.31721 0.28302 0.0
H603 H 0.89455 0.31556 0.2547 0.0
C604 C 0.94452 0.23353 0.36407 0.0
C605 C 0.88182 0.24635 0.36736 0.0
C606 C 0.97063 0.2323 0.33386 0.0
C607 C 0.93468 0.24392 0.30631 0.0
C608 C 0.87161 0.25614 0.30961 0.0
H609 H 0.04072 0.25331 0.10433 0.0
H610 H 0.97822 0.25115 0.15353 0.0
C611 C 0.84557 0.25755 0.33981 0.0
C612 C 0.96308 0.24257 0.27428 0.0
H613 H 0.00271 0.29688 0.20448 0.0
C614 C 0.98662 0.20811 0.26697 0.0
C615 C 0.96864 0.27497 0.25134 0.0
C616 C 0.94696 0.31316 0.25813 0.0
C617 C 0.01573 0.20521 0.23757 0.0
C618 C 0.02211 0.23767 0.21488 0.0
C619 C -0.0026 0.27197 0.22182 0.0
C620 C 0.05861 0.23714 0.1849 0.0
C621 C 0.03957 0.1674 0.23099 0.0
C622 C 0.12441 0.23002 0.1862 0.0
C623 C 0.16013 0.23138 0.1583 0.0
C624 C 0.13101 0.23989 0.12827 0.0
C625 C 0.06469 0.24639 0.12698 0.0
C626 C 0.02894 0.24533 0.15506 0.0
H627 H 0.01662 0.14402 0.2468 0.0
H628 H 0.03059 0.16346 0.20588 0.0
H629 H 0.09183 0.16569 0.2352 0.0
H630 H 0.14853 0.22418 0.2089 0.0
H631 H 0.21094 0.22621 0.16037 0.0
H632 H 0.03381 0.20528 0.88459 0.0
H633 H 0.98735 0.20384 0.8318 0.0
H634 H 0.12646 0.28481 0.79106 0.0
H635 H 0.17357 0.28609 0.8438 0.0
H636 H 0.93495 0.26447 0.7908 0.0
H637 H 0.13994 0.20167 0.73378 0.0
H638 H 0.13363 0.20032 0.77634 0.0
H639 H 0.15774 0.2428 0.75197 0.0
C640 C 0.05468 0.22266 0.86436 0.0
C641 C 0.10741 0.24576 0.86835 0.0
C642 C 0.02808 0.22182 0.8342 0.0
C643 C 0.05389 0.2438 0.80734 0.0
C644 C 0.10645 0.26703 0.81128 0.0
H645 H 0.94316 0.26987 0.60608 0.0
H646 H 0.00062 0.2707 0.65638 0.0
C647 C 0.13304 0.26794 0.84148 0.0
C648 C 0.02411 0.2433 0.77551 0.0
H649 H 0.05125 0.22056 0.70101 0.0
C650 C 0.96034 0.2548 0.77118 0.0
C651 C 0.0575 0.23116 0.74976 0.0
C652 C 0.12585 0.21799 0.7531 0.0
C653 C 0.92904 0.25466 0.7419 0.0
C654 C 0.96169 0.24138 0.71634 0.0
C655 C 0.02593 0.23045 0.72054 0.0
C656 C 0.92966 0.23832 0.68534 0.0
C657 C 0.86169 0.26968 0.73858 0.0
C658 C 0.872 0.21853 0.68449 0.0
C659 C 0.83873 0.21853 0.65594 0.0
C660 C 0.8632 0.23738 0.62728 0.0
C661 C 0.9231 0.25499 0.62771 0.0
C662 C 0.95587 0.2556 0.6565 0.0
H663 H 0.85196 0.28974 0.75575 0.0
H664 H 0.85236 0.28413 0.71422 0.0
H665 H 0.82756 0.24602 0.74373 0.0
H666 H 0.85184 0.20368 0.70609 0.0
H667 H 0.79309 0.2043 0.6564 0.0
H668 H 0.03134 0.80146 0.64166 0.0
H669 H 0.98393 0.80303 0.69422 0.0
H670 H 0.10938 0.71367 0.73403 0.0
H671 H 0.15693 0.71187 0.68147 0.0
H672 H 0.92363 0.74071 0.73451 0.0
H673 H 0.13406 0.79762 0.79205 0.0
H674 H 0.12575 0.80131 0.74938 0.0
H675 H 0.14778 0.75732 0.77203 0.0
C676 C 0.0489 0.78218 0.66161 0.0
C677 C 0.09804 0.75663 0.65745 0.0
C678 C 0.02177 0.78311 0.69163 0.0
C679 C 0.04366 0.75883 0.71814 0.0
C680 C 0.09245 0.73309 0.71402 0.0
H681 H 0.93663 0.73416 0.91928 0.0
H682 H 0.99222 0.7327 0.86864 0.0
C683 C 0.11935 0.73197 0.68395 0.0
C684 C 0.01417 0.75991 0.74988 0.0
H685 H 0.04382 0.78192 0.82434 0.0
C686 C 0.94982 0.74976 0.75417 0.0
C687 C 0.04866 0.77127 0.77559 0.0
C688 C 0.1178 0.78278 0.77218 0.0
C689 C 0.91901 0.75041 0.78349 0.0
C690 C 0.95285 0.76294 0.80905 0.0
C691 C 0.0176 0.77262 0.80482 0.0
C692 C 0.92176 0.76625 0.8402 0.0
C693 C 0.85095 0.73663 0.78689 0.0
C694 C 0.86502 0.78687 0.84145 0.0
C695 C 0.83278 0.78724 0.87023 0.0
C696 C 0.85744 0.76792 0.89867 0.0
C697 C 0.91648 0.74943 0.89781 0.0
C698 C 0.94817 0.74846 0.86883 0.0
H699 H 0.8398 0.71691 0.76962 0.0
H700 H 0.84135 0.72216 0.81122 0.0
H701 H 0.81801 0.76092 0.78197 0.0
H702 H 0.84481 0.80212 0.82002 0.0
H703 H 0.78783 0.80217 0.87013 0.0
loop_
_geom_bond_atom_site_label_1
_geom_bond_atom_site_label_2
_geom_bond_distance
_geom_bond_site_symmetry_2
_ccdc_geom_bond_type
Co0 H3 2.400 . S
Co0 O4 2.009 . S
Co0 O12 2.115 . S
Co0 O13 2.315 . S
Co0 O24 2.053 . S
Co0 O27 2.094 . S
Co0 O30 2.122 . S
Co1 O4 2.126 . S
Co1 H5 2.388 1_556 S
Co1 O6 2.053 1_556 S
Co1 O9 2.047 . S
Co1 O15 2.113 . S
Co1 O26 2.063 . S
Co2 H3 2.388 1_554 S
Co2 O4 2.053 1_554 S
Co2 O6 2.126 . S
Co2 O11 2.063 . S
Co2 O25 2.047 . S
Co2 O31 2.113 . S
H3 Co0 2.400 . S
H3 Co2 2.388 1_556 S
H3 O4 0.760 . S
O4 Co0 2.009 . S
O4 Co1 2.126 . S
O4 Co2 2.053 1_556 S
O4 H3 0.760 . S
H5 Co1 2.388 1_554 S
H5 O6 0.760 . S
H5 Co7 2.400 . S
O6 Co1 2.053 1_554 S
O6 Co2 2.126 . S
O6 H5 0.760 . S
O6 Co7 2.009 . S
Co7 H5 2.400 . S
Co7 O6 2.009 . S
Co7 O8 2.053 . S
Co7 O10 2.094 . S
Co7 O14 2.122 . S
Co7 O28 2.115 . S
Co7 O29 2.315 . S
O8 Co7 2.053 . S
O8 C20 1.259 . S
O9 Co1 2.047 . S
O9 C20 1.257 1_556 S
O10 Co7 2.094 . S
O10 C21 1.253 . S
O11 Co2 2.063 . S
O11 C21 1.268 . S
O12 Co0 2.115 . S
O12 C22 1.281 . S
O13 Co0 2.315 . S
O13 C22 1.252 . S
O14 Co7 2.122 . S
O14 C23 1.272 . S
O15 Co1 2.113 . S
O15 C23 1.245 1_556 S
C16 O24 1.259 . S
C16 O25 1.257 1_556 S
C17 O26 1.268 . S
C17 O27 1.253 . S
C18 O28 1.281 . S
C18 O29 1.252 . S
C19 O30 1.272 . S
C19 O31 1.245 1_556 S
C20 O8 1.259 . S
C20 O9 1.257 1_554 S
C21 O10 1.253 . S
C21 O11 1.268 . S
C22 O12 1.281 . S
C22 O13 1.252 . S
C23 O14 1.272 . S
C23 O15 1.245 1_554 S
O24 Co0 2.053 . S
O24 C16 1.259 . S
O25 Co2 2.047 . S
O25 C16 1.257 1_554 S
O26 Co1 2.063 . S
O26 C17 1.268 . S
O27 Co0 2.094 . S
O27 C17 1.253 . S
O28 Co7 2.115 . S
O28 C18 1.281 . S
O29 Co7 2.315 . S
O29 C18 1.252 . S
O30 Co0 2.122 . S
O30 C19 1.272 . S
O31 Co2 2.113 . S
O31 C19 1.245 1_554 S
Co32 H35 2.400 . S
Co32 O36 2.009 . S
Co32 O44 2.115 . S
Co32 O45 2.315 . S
Co32 O56 2.053 . S
Co32 O59 2.094 . S
Co32 O62 2.122 . S
Co33 O36 2.126 . S
Co33 H37 2.388 1_556 S
Co33 O38 2.053 1_556 S
Co33 O41 2.047 . S
Co33 O47 2.113 . S
Co33 O58 2.063 . S
Co34 H35 2.388 1_554 S
Co34 O36 2.053 1_554 S
Co34 O38 2.126 . S
Co34 O43 2.063 . S
Co34 O57 2.047 . S
Co34 O63 2.113 . S
H35 Co32 2.400 . S
H35 Co34 2.388 1_556 S
H35 O36 0.760 . S
O36 Co32 2.009 . S
O36 Co33 2.126 . S
O36 Co34 2.053 1_556 S
O36 H35 0.760 . S
H37 Co33 2.388 1_554 S
H37 O38 0.760 . S
H37 Co39 2.400 . S
O38 Co33 2.053 1_554 S
O38 Co34 2.126 . S
O38 H37 0.760 . S
O38 Co39 2.009 . S
Co39 H37 2.400 . S
Co39 O38 2.009 . S
Co39 O40 2.053 . S
Co39 O42 2.094 . S
Co39 O46 2.122 . S
Co39 O60 2.115 . S
Co39 O61 2.315 . S
O40 Co39 2.053 . S
O40 C52 1.259 . S
O41 Co33 2.047 . S
O41 C52 1.257 1_556 S
O42 Co39 2.094 . S
O42 C53 1.253 . S
O43 Co34 2.063 . S
O43 C53 1.268 . S
O44 Co32 2.115 . S
O44 C54 1.281 . S
O45 Co32 2.315 . S
O45 C54 1.252 . S
O46 Co39 2.122 . S
O46 C55 1.272 . S
O47 Co33 2.113 . S
O47 C55 1.245 1_556 S
C48 O56 1.259 . S
C48 O57 1.257 1_556 S
C49 O58 1.268 . S
C49 O59 1.253 . S
C50 O60 1.281 . S
C50 O61 1.252 . S
C51 O62 1.272 . S
C51 O63 1.245 1_556 S
C52 O40 1.259 . S
C52 O41 1.257 1_554 S
C53 O42 1.253 . S
C53 O43 1.268 . S
C54 O44 1.281 . S
C54 O45 1.252 . S
C55 O46 1.272 . S
C55 O47 1.245 1_554 S
O56 Co32 2.053 . S
O56 C48 1.259 . S
O57 Co34 2.047 . S
O57 C48 1.257 1_554 S
O58 Co33 2.063 . S
O58 C49 1.268 . S
O59 Co32 2.094 . S
O59 C49 1.253 . S
O60 Co39 2.115 . S
O60 C50 1.281 . S
O61 Co39 2.315 . S
O61 C50 1.252 . S
O62 Co32 2.122 . S
O62 C51 1.272 . S
O63 Co34 2.113 . S
O63 C51 1.245 1_554 S
Co64 H67 2.400 . S
Co64 O68 2.009 . S
Co64 O76 2.115 . S
Co64 O77 2.315 . S
Co64 O88 2.053 . S
Co64 O91 2.094 . S
Co64 O94 2.122 . S
Co65 O68 2.126 . S
Co65 H69 2.388 . S
Co65 O70 2.053 . S
Co65 O73 2.047 . S
Co65 O79 2.113 . S
Co65 O90 2.063 . S
Co66 H67 2.388 . S
Co66 O68 2.053 . S
Co66 O70 2.126 . S
Co66 O75 2.063 . S
Co66 O89 2.047 . S
Co66 O95 2.113 . S
H67 Co64 2.400 . S
H67 Co66 2.388 . S
H67 O68 0.760 . S
O68 Co64 2.009 . S
O68 Co65 2.126 . S
O68 Co66 2.053 . S
O68 H67 0.760 . S
H69 Co65 2.388 . S
H69 O70 0.760 . S
H69 Co71 2.400 . S
O70 Co65 2.053 . S
O70 Co66 2.126 . S
O70 H69 0.760 . S
O70 Co71 2.009 . S
Co71 H69 2.400 . S
Co71 O70 2.009 . S
Co71 O72 2.053 . S
Co71 O74 2.094 . S
Co71 O78 2.122 . S
Co71 O92 2.115 . S
Co71 O93 2.315 . S
O72 Co71 2.053 . S
O72 C84 1.259 . S
O73 Co65 2.047 . S
O73 C84 1.257 . S
O74 Co71 2.094 . S
O74 C85 1.253 . S
O75 Co66 2.063 . S
O75 C85 1.268 . S
O76 Co64 2.115 . S
O76 C86 1.281 . S
O77 Co64 2.315 . S
O77 C86 1.252 . S
O78 Co71 2.122 . S
O78 C87 1.272 . S
O79 Co65 2.113 . S
O79 C87 1.245 . S
C80 O88 1.259 . S
C80 O89 1.257 . S
C81 O90 1.268 . S
C81 O91 1.253 . S
C82 O92 1.281 . S
C82 O93 1.252 . S
C83 O94 1.272 . S
C83 O95 1.245 . S
C84 O72 1.259 . S
C84 O73 1.257 . S
C85 O74 1.253 . S
C85 O75 1.268 . S
C86 O76 1.281 . S
C86 O77 1.252 . S
C87 O78 1.272 . S
C87 O79 1.245 . S
O88 Co64 2.053 . S
O88 C80 1.259 . S
O89 Co66 2.047 . S
O89 C80 1.257 . S
O90 Co65 2.063 . S
O90 C81 1.268 . S
O91 Co64 2.094 . S
O91 C81 1.253 . S
O92 Co71 2.115 . S
O92 C82 1.281 . S
O93 Co71 2.315 . S
O93 C82 1.252 . S
O94 Co64 2.122 . S
O94 C83 1.272 . S
O95 Co66 2.113 . S
O95 C83 1.245 . S
Co96 H99 2.400 . S
Co96 O100 2.009 . S
Co96 O108 2.115 . S
Co96 O109 2.315 . S
Co96 O120 2.053 . S
Co96 O123 2.094 . S
Co96 O126 2.122 . S
Co97 O100 2.126 . S
Co97 H101 2.388 . S
Co97 O102 2.053 . S
Co97 O105 2.047 . S
Co97 O111 2.113 . S
Co97 O122 2.063 . S
Co98 H99 2.388 . S
Co98 O100 2.053 . S
Co98 O102 2.126 . S
Co98 O107 2.063 . S
Co98 O121 2.047 . S
Co98 O127 2.113 . S
H99 Co96 2.400 . S
H99 Co98 2.388 . S
H99 O100 0.760 . S
O100 Co96 2.009 . S
O100 Co97 2.126 . S
O100 Co98 2.053 . S
O100 H99 0.760 . S
H101 Co97 2.388 . S
H101 O102 0.760 . S
H101 Co103 2.400 . S
O102 Co97 2.053 . S
O102 Co98 2.126 . S
O102 H101 0.760 . S
O102 Co103 2.009 . S
Co103 H101 2.400 . S
Co103 O102 2.009 . S
Co103 O104 2.053 . S
Co103 O106 2.094 . S
Co103 O110 2.122 . S
Co103 O124 2.115 . S
Co103 O125 2.315 . S
O104 Co103 2.053 . S
O104 C116 1.259 . S
O105 Co97 2.047 . S
O105 C116 1.257 . S
O106 Co103 2.094 . S
O106 C117 1.253 . S
O107 Co98 2.063 . S
O107 C117 1.268 . S
O108 Co96 2.115 . S
O108 C118 1.281 . S
O109 Co96 2.315 . S
O109 C118 1.252 . S
O110 Co103 2.122 . S
O110 C119 1.272 . S
O111 Co97 2.113 . S
O111 C119 1.245 . S
C112 O120 1.259 . S
C112 O121 1.257 . S
C113 O122 1.268 . S
C113 O123 1.253 . S
C114 O124 1.281 . S
C114 O125 1.252 . S
C115 O126 1.272 . S
C115 O127 1.245 . S
C116 O104 1.259 . S
C116 O105 1.257 . S
C117 O106 1.253 . S
C117 O107 1.268 . S
C118 O108 1.281 . S
C118 O109 1.252 . S
C119 O110 1.272 . S
C119 O111 1.245 . S
O120 Co96 2.053 . S
O120 C112 1.259 . S
O121 Co98 2.047 . S
O121 C112 1.257 . S
O122 Co97 2.063 . S
O122 C113 1.268 . S
O123 Co96 2.094 . S
O123 C113 1.253 . S
O124 Co103 2.115 . S
O124 C114 1.281 . S
O125 Co103 2.315 . S
O125 C114 1.252 . S
O126 Co96 2.122 . S
O126 C115 1.272 . S
O127 Co98 2.113 . S
O127 C115 1.245 . S
H128 C136 0.929 . S
H129 C138 0.930 . S
H130 C140 0.917 1_556 S
H131 C143 0.933 . S
H132 C146 0.930 . S
H133 C148 0.960 . S
H134 C148 0.960 . S
H135 C148 0.960 . S
C136 H128 0.929 . S
C136 C137 1.377 . S
C136 C138 1.384 . S
C137 C136 1.377 . S
C137 C143 1.390 . S
C138 H129 0.930 . S
C138 C136 1.384 . S
C138 C139 1.372 . S
C139 C138 1.372 . S
C139 C140 1.410 . S
C139 C144 1.490 . S
C140 H130 0.917 1_554 S
C140 C139 1.410 . S
C140 C143 1.389 . S
H141 C157 0.930 1_455 S
H142 C158 0.931 . S
C143 H131 0.933 . S
C143 C137 1.390 . S
C143 C140 1.389 . S
C144 C139 1.490 . S
C144 C146 1.395 . S
C144 C147 1.403 1_554 S
H145 C151 0.930 . S
C146 H132 0.930 . S
C146 C144 1.395 . S
C146 C149 1.403 . S
C147 C144 1.403 1_556 S
C147 C148 1.524 . S
C147 C151 1.400 . S
C148 H133 0.960 . S
C148 H134 0.960 . S
C148 H135 0.960 . S
C148 C147 1.524 . S
C149 C146 1.403 . S
C149 C150 1.392 . S
C149 C153 1.495 . S
C150 C149 1.392 . S
C150 C151 1.385 1_554 S
C150 C152 1.476 1_554 S
C151 H145 0.930 . S
C151 C147 1.400 . S
C151 C150 1.385 1_556 S
C152 C150 1.476 1_556 S
C152 C154 1.379 1_556 S
C152 C158 1.386 . S
C153 C149 1.495 . S
C153 H159 0.959 . S
C153 H160 0.961 . S
C153 H161 0.960 . S
C154 C152 1.379 1_554 S
C154 C155 1.394 1_554 S
C154 H162 0.930 . S
C155 C154 1.394 1_556 S
C155 C156 1.383 1_655 S
C155 H163 0.929 1_655 S
C156 C155 1.383 1_455 S
C156 C157 1.377 1_455 S
C157 H141 0.930 1_655 S
C157 C156 1.377 1_655 S
C157 C158 1.379 . S
C158 H142 0.931 . S
C158 C152 1.386 . S
C158 C157 1.379 . S
H159 C153 0.959 . S
H160 C153 0.961 . S
H161 C153 0.960 . S
H162 C154 0.930 . S
H163 C155 0.929 1_455 S
H164 C172 0.929 1_655 S
H165 C174 0.930 . S
H166 C176 0.930 . S
H167 C179 0.929 1_655 S
H168 C182 0.930 . S
H169 C184 0.960 . S
H170 C184 0.960 . S
H171 C184 0.960 . S
C172 H164 0.929 1_455 S
C172 C173 1.377 1_455 S
C172 C174 1.384 . S
C173 C172 1.377 1_655 S
C173 C179 1.390 1_654 S
C174 H165 0.930 . S
C174 C172 1.384 . S
C174 C175 1.372 . S
C175 C174 1.372 . S
C175 C176 1.400 1_554 S
C175 C180 1.490 . S
C176 H166 0.930 . S
C176 C175 1.400 1_556 S
C176 C179 1.386 . S
H177 C193 0.930 . S
H178 C194 0.931 . S
C179 H167 0.929 1_455 S
C179 C173 1.390 1_456 S
C179 C176 1.386 . S
C180 C175 1.490 . S
C180 C182 1.395 . S
C180 C183 1.403 1_554 S
H181 C187 0.930 . S
C182 H168 0.930 . S
C182 C180 1.395 . S
C182 C185 1.403 . S
C183 C180 1.403 1_556 S
C183 C184 1.524 . S
C183 C187 1.400 . S
C184 H169 0.960 . S
C184 H170 0.960 . S
C184 H171 0.960 . S
C184 C183 1.524 . S
C185 C182 1.403 . S
C185 C186 1.392 . S
C185 C189 1.495 . S
C186 C185 1.392 . S
C186 C187 1.385 1_554 S
C186 C188 1.478 1_554 S
C187 H181 0.930 . S
C187 C183 1.400 . S
C187 C186 1.385 1_556 S
C188 C186 1.478 1_556 S
C188 C190 1.381 1_556 S
C188 C194 1.383 . S
C189 C185 1.495 . S
C189 H195 0.959 . S
C189 H196 0.961 . S
C189 H197 0.960 . S
C190 C188 1.381 1_554 S
C190 C191 1.394 . S
C190 H198 0.930 . S
C191 C190 1.394 . S
C191 C192 1.383 1_554 S
C191 H199 0.929 . S
C192 C191 1.383 1_556 S
C192 C193 1.377 . S
C193 H177 0.930 . S
C193 C192 1.377 . S
C193 C194 1.379 . S
C194 H178 0.931 . S
C194 C188 1.383 . S
C194 C193 1.379 . S
H195 C189 0.959 . S
H196 C189 0.961 . S
H197 C189 0.960 . S
H198 C190 0.930 . S
H199 C191 0.929 . S
H200 C208 0.929 . S
H201 C210 0.930 . S
H202 C212 0.930 . S
H203 C215 0.929 . S
H204 C218 0.930 . S
H205 C220 0.960 . S
H206 C220 0.960 . S
H207 C220 0.960 . S
C208 H200 0.929 . S
C208 C209 1.377 . S
C208 C210 1.384 . S
C209 C208 1.377 . S
C209 C215 1.390 . S
C210 H201 0.930 . S
C210 C208 1.384 . S
C210 C211 1.372 . S
C211 C210 1.372 . S
C211 C212 1.400 . S
C211 C216 1.490 . S
C212 H202 0.930 . S
C212 C211 1.400 . S
C212 C215 1.386 . S
H213 C229 0.930 1_455 S
H214 C230 0.931 . S
C215 H203 0.929 . S
C215 C209 1.390 . S
C215 C212 1.386 . S
C216 C211 1.490 . S
C216 C218 1.395 . S
C216 C219 1.403 . S
H217 C223 0.930 . S
C218 H204 0.930 . S
C218 C216 1.395 . S
C218 C221 1.403 . S
C219 C216 1.403 . S
C219 C220 1.524 . S
C219 C223 1.400 . S
C220 H205 0.960 . S
C220 H206 0.960 . S
C220 H207 0.960 . S
C220 C219 1.524 . S
C221 C218 1.403 . S
C221 C222 1.392 . S
C221 C225 1.495 . S
C222 C221 1.392 . S
C222 C223 1.385 . S
C222 C224 1.478 . S
C223 H217 0.930 . S
C223 C219 1.400 . S
C223 C222 1.385 . S
C224 C222 1.478 . S
C224 C226 1.381 . S
C224 C230 1.383 . S
C225 C221 1.495 . S
C225 H231 0.959 . S
C225 H232 0.961 . S
C225 H233 0.960 . S
C226 C224 1.381 . S
C226 C227 1.394 . S
C226 H234 0.930 . S
C227 C226 1.394 . S
C227 C228 1.383 1_655 S
C227 H235 0.929 1_655 S
C228 C227 1.383 1_455 S
C228 C229 1.377 1_455 S
C229 H213 0.930 1_655 S
C229 C228 1.377 1_655 S
C229 C230 1.379 . S
C230 H214 0.931 . S
C230 C224 1.383 . S
C230 C229 1.379 . S
H231 C225 0.959 . S
H232 C225 0.961 . S
H233 C225 0.960 . S
H234 C226 0.930 . S
H235 C227 0.929 1_455 S
H236 C244 0.929 1_655 S
H237 C246 0.930 . S
H238 C248 0.930 . S
H239 C251 0.929 1_655 S
H240 C254 0.930 . S
H241 C256 0.960 . S
H242 C256 0.960 . S
H243 C256 0.960 . S
C244 H236 0.929 1_455 S
C244 C245 1.377 1_455 S
C244 C246 1.384 . S
C245 C244 1.377 1_655 S
C245 C251 1.390 1_655 S
C246 H237 0.930 . S
C246 C244 1.384 . S
C246 C247 1.372 . S
C247 C246 1.372 . S
C247 C248 1.400 . S
C247 C252 1.490 . S
C248 H238 0.930 . S
C248 C247 1.400 . S
C248 C251 1.386 . S
H249 C265 0.930 . S
H250 C266 0.931 . S
C251 H239 0.929 1_455 S
C251 C245 1.390 1_455 S
C251 C248 1.386 . S
C252 C247 1.490 . S
C252 C254 1.395 . S
C252 C255 1.403 . S
H253 C259 0.930 . S
C254 H240 0.930 . S
C254 C252 1.395 . S
C254 C257 1.403 . S
C255 C252 1.403 . S
C255 C256 1.524 . S
C255 C259 1.400 . S
C256 H241 0.960 . S
C256 H242 0.960 . S
C256 H243 0.960 . S
C256 C255 1.524 . S
C257 C254 1.403 . S
C257 C258 1.392 . S
C257 C261 1.495 . S
C258 C257 1.392 . S
C258 C259 1.385 . S
C258 C260 1.478 . S
C259 H253 0.930 . S
C259 C255 1.400 . S
C259 C258 1.385 . S
C260 C258 1.478 . S
C260 C262 1.381 . S
C260 C266 1.383 . S
C261 C257 1.495 . S
C261 H267 0.959 . S
C261 H268 0.961 . S
C261 H269 0.960 . S
C262 C260 1.381 . S
C262 C263 1.394 . S
C262 H270 0.930 . S
C263 C262 1.394 . S
C263 C264 1.383 . S
C263 H271 0.929 . S
C264 C263 1.383 . S
C264 C265 1.377 . S
C265 H249 0.930 . S
C265 C264 1.377 . S
C265 C266 1.379 . S
C266 H250 0.931 . S
C266 C260 1.383 . S
C266 C265 1.379 . S
H267 C261 0.959 . S
H268 C261 0.961 . S
H269 C261 0.960 . S
H270 C262 0.930 . S
H271 C263 0.929 . S
H272 C280 0.929 . S
H273 C282 0.930 . S
H274 C284 0.930 . S
H275 C287 0.929 . S
H276 C290 0.930 . S
H277 C292 0.960 . S
H278 C292 0.960 . S
H279 C292 0.960 . S
C280 H272 0.929 . S
C280 C281 1.377 1_556 S
C280 C282 1.384 . S
C281 C280 1.377 1_554 S
C281 C287 1.390 . S
C282 H273 0.930 . S
C282 C280 1.384 . S
C282 C283 1.371 1_556 S
C283 C282 1.371 1_554 S
C283 C284 1.402 . S
C283 C288 1.492 . S
C284 H274 0.930 . S
C284 C283 1.402 . S
C284 C287 1.386 . S
H285 C301 0.930 . S
H286 C302 0.931 . S
C287 H275 0.929 . S
C287 C281 1.390 . S
C287 C284 1.386 . S
C288 C283 1.492 . S
C288 C290 1.413 . S
C288 C291 1.381 1_554 S
H289 C295 0.930 . S
C290 H276 0.930 . S
C290 C288 1.413 . S
C290 C293 1.403 . S
C291 C288 1.381 1_556 S
C291 C292 1.524 . S
C291 C295 1.400 . S
C292 H277 0.960 . S
C292 H278 0.960 . S
C292 H279 0.960 . S
C292 C291 1.524 . S
C293 C290 1.403 . S
C293 C294 1.392 . S
C293 C297 1.495 . S
C294 C293 1.392 . S
C294 C295 1.385 1_554 S
C294 C296 1.478 . S
C295 H289 0.930 . S
C295 C291 1.400 . S
C295 C294 1.385 1_556 S
C296 C294 1.478 . S
C296 C298 1.381 1_554 S
C296 C302 1.383 . S
C297 C293 1.495 . S
C297 H303 0.959 . S
C297 H304 0.961 . S
C297 H305 0.960 . S
C298 C296 1.381 1_556 S
C298 C299 1.394 . S
C298 H306 0.930 . S
C299 C298 1.394 . S
C299 C300 1.381 1_556 S
C299 H307 0.929 . S
C300 C299 1.381 1_554 S
C300 C301 1.382 . S
C301 H285 0.930 . S
C301 C300 1.382 . S
C301 C302 1.379 . S
C302 H286 0.931 . S
C302 C296 1.383 . S
C302 C301 1.379 . S
H303 C297 0.959 . S
H304 C297 0.961 . S
H305 C297 0.960 . S
H306 C298 0.930 . S
H307 C299 0.929 . S
H308 C316 0.929 . S
H309 C318 0.930 . S
H310 C320 0.930 . S
H311 C323 0.929 . S
H312 C326 0.930 . S
H313 C328 0.960 . S
H314 C328 0.960 . S
H315 C328 0.960 . S
C316 H308 0.929 . S
C316 C317 1.377 . S
C316 C318 1.384 . S
C317 C316 1.377 . S
C317 C323 1.390 . S
C318 H309 0.930 . S
C318 C316 1.384 . S
C318 C319 1.372 . S
C319 C318 1.372 . S
C319 C320 1.400 . S
C319 C324 1.490 . S
C320 H310 0.930 . S
C320 C319 1.400 . S
C320 C323 1.386 . S
H321 C337 0.930 . S
H322 C338 0.931 . S
C323 H311 0.929 . S
C323 C317 1.390 . S
C323 C320 1.386 . S
C324 C319 1.490 . S
C324 C326 1.395 . S
C324 C327 1.403 . S
H325 C331 0.930 . S
C326 H312 0.930 . S
C326 C324 1.395 . S
C326 C329 1.403 . S
C327 C324 1.403 . S
C327 C328 1.524 . S
C327 C331 1.400 . S
C328 H313 0.960 . S
C328 H314 0.960 . S
C328 H315 0.960 . S
C328 C327 1.524 . S
C329 C326 1.403 . S
C329 C330 1.392 . S
C329 C333 1.495 . S
C330 C329 1.392 . S
C330 C331 1.385 . S
C330 C332 1.478 . S
C331 H325 0.930 . S
C331 C327 1.400 . S
C331 C330 1.385 . S
C332 C330 1.478 . S
C332 C334 1.381 . S
C332 C338 1.383 . S
C333 C329 1.495 . S
C333 H339 0.959 . S
C333 H340 0.961 . S
C333 H341 0.960 . S
C334 C332 1.381 . S
C334 C335 1.394 . S
C334 H342 0.930 . S
C335 C334 1.394 . S
C335 C336 1.383 . S
C335 H343 0.929 . S
C336 C335 1.383 . S
C336 C337 1.377 . S
C337 H321 0.930 . S
C337 C336 1.377 . S
C337 C338 1.379 . S
C338 H322 0.931 . S
C338 C332 1.383 . S
C338 C337 1.379 . S
H339 C333 0.959 . S
H340 C333 0.961 . S
H341 C333 0.960 . S
H342 C334 0.930 . S
H343 C335 0.929 . S
H344 C352 0.929 . S
H345 C354 0.930 . S
H346 C356 0.930 . S
H347 C359 0.929 . S
H348 C362 0.930 . S
H349 C364 0.960 . S
H350 C364 0.960 . S
H351 C364 0.960 1_554 S
C352 H344 0.929 . S
C352 C353 1.377 1_556 S
C352 C354 1.384 . S
C353 C352 1.377 1_554 S
C353 C359 1.390 . S
C354 H345 0.930 . S
C354 C352 1.384 . S
C354 C355 1.387 . S
C355 C354 1.387 . S
C355 C356 1.381 1_556 S
C355 C360 1.488 . S
C356 H346 0.930 . S
C356 C355 1.381 1_554 S
C356 C359 1.386 . S
H357 C373 0.930 . S
H358 C374 0.931 . S
C359 H347 0.929 . S
C359 C353 1.390 . S
C359 C356 1.386 . S
C360 C355 1.488 . S
C360 C362 1.396 1_546 S
C360 C363 1.407 1_455 S
H361 C367 0.930 . S
C362 H348 0.930 . S
C362 C360 1.396 1_564 S
C362 C365 1.403 . S
C363 C360 1.407 1_655 S
C363 C364 1.524 . S
C363 C367 1.400 1_545 S
C364 H349 0.960 . S
C364 H350 0.960 . S
C364 H351 0.960 1_556 S
C364 C363 1.524 . S
C365 C362 1.403 . S
C365 C366 1.391 1_454 S
C365 C369 1.495 . S
C366 C365 1.391 1_656 S
C366 C367 1.385 . S
C366 C368 1.480 . S
C367 H361 0.930 . S
C367 C363 1.400 1_565 S
C367 C366 1.385 . S
C368 C366 1.480 . S
C368 C370 1.380 . S
C368 C374 1.384 1_556 S
C369 C365 1.495 . S
C369 H375 0.959 . S
C369 H376 0.961 . S
C369 H377 0.960 1_554 S
C370 C368 1.380 . S
C370 C371 1.394 . S
C370 H378 0.930 . S
C371 C370 1.394 . S
C371 C372 1.383 . S
C371 H379 0.929 . S
C372 C371 1.383 . S
C372 C373 1.377 1_556 S
C373 H357 0.930 . S
C373 C372 1.377 1_554 S
C373 C374 1.379 . S
C374 H358 0.931 . S
C374 C368 1.384 1_554 S
C374 C373 1.379 . S
H375 C369 0.959 . S
H376 C369 0.961 . S
H377 C369 0.960 1_556 S
H378 C370 0.930 . S
H379 C371 0.929 . S
H380 C388 0.929 . S
H381 C390 0.930 . S
H382 C392 0.930 . S
H383 C395 0.929 . S
H384 C398 0.930 1_545 S
H385 C400 0.960 . S
H386 C400 0.960 . S
H387 C400 0.960 . S
C388 H380 0.929 . S
C388 C389 1.377 . S
C388 C390 1.384 . S
C389 C388 1.377 . S
C389 C395 1.390 . S
C390 H381 0.930 . S
C390 C388 1.384 . S
C390 C391 1.372 . S
C391 C390 1.372 . S
C391 C392 1.400 . S
C391 C396 1.490 . S
C392 H382 0.930 . S
C392 C391 1.400 . S
C392 C395 1.386 . S
H393 C409 0.930 . S
H394 C410 0.931 . S
C395 H383 0.929 . S
C395 C389 1.390 . S
C395 C392 1.386 . S
C396 C391 1.490 . S
C396 C398 1.395 1_545 S
C396 C399 1.403 1_655 S
H397 C403 0.930 . S
C398 H384 0.930 1_565 S
C398 C396 1.395 1_565 S
C398 C401 1.403 . S
C399 C396 1.403 1_455 S
C399 C400 1.524 . S
C399 C403 1.400 1_545 S
C400 H385 0.960 . S
C400 H386 0.960 . S
C400 H387 0.960 . S
C400 C399 1.524 . S
C401 C398 1.403 . S
C401 C402 1.392 1_655 S
C401 C405 1.495 . S
C402 C401 1.392 1_455 S
C402 C403 1.385 . S
C402 C404 1.478 . S
C403 H397 0.930 . S
C403 C399 1.400 1_565 S
C403 C402 1.385 . S
C404 C402 1.478 . S
C404 C406 1.381 . S
C404 C410 1.383 . S
C405 C401 1.495 . S
C405 H411 0.959 . S
C405 H412 0.961 . S
C405 H413 0.960 . S
C406 C404 1.381 . S
C406 C407 1.394 . S
C406 H414 0.930 . S
C407 C406 1.394 . S
C407 C408 1.383 . S
C407 H415 0.929 . S
C408 C407 1.383 . S
C408 C409 1.377 . S
C409 H393 0.930 . S
C409 C408 1.377 . S
C409 C410 1.379 . S
C410 H394 0.931 . S
C410 C404 1.383 . S
C410 C409 1.379 . S
H411 C405 0.959 . S
H412 C405 0.961 . S
H413 C405 0.960 . S
H414 C406 0.930 . S
H415 C407 0.929 . S
H416 C424 0.929 . S
H417 C426 0.930 . S
H418 C428 0.930 . S
H419 C431 0.929 . S
H420 C434 0.930 . S
H421 C436 0.960 . S
H422 C436 0.960 . S
H423 C436 0.960 . S
C424 H416 0.929 . S
C424 C425 1.377 . S
C424 C426 1.384 . S
C425 C424 1.377 . S
C425 C431 1.390 . S
C426 H417 0.930 . S
C426 C424 1.384 . S
C426 C427 1.372 . S
C427 C426 1.372 . S
C427 C428 1.400 . S
C427 C432 1.490 . S
C428 H418 0.930 . S
C428 C427 1.400 . S
C428 C431 1.386 . S
H429 C445 0.930 . S
H430 C446 0.931 . S
C431 H419 0.929 . S
C431 C425 1.390 . S
C431 C428 1.386 . S
C432 C427 1.490 . S
C432 C434 1.395 . S
C432 C435 1.403 . S
H433 C439 0.930 . S
C434 H420 0.930 . S
C434 C432 1.395 . S
C434 C437 1.403 . S
C435 C432 1.403 . S
C435 C436 1.524 . S
C435 C439 1.400 . S
C436 H421 0.960 . S
C436 H422 0.960 . S
C436 H423 0.960 . S
C436 C435 1.524 . S
C437 C434 1.403 . S
C437 C438 1.392 . S
C437 C441 1.495 . S
C438 C437 1.392 . S
C438 C439 1.385 . S
C438 C440 1.478 . S
C439 H433 0.930 . S
C439 C435 1.400 . S
C439 C438 1.385 . S
C440 C438 1.478 . S
C440 C442 1.381 . S
C440 C446 1.383 . S
C441 C437 1.495 . S
C441 H447 0.959 . S
C441 H448 0.961 . S
C441 H449 0.960 . S
C442 C440 1.381 . S
C442 C443 1.394 . S
C442 H450 0.930 . S
C443 C442 1.394 . S
C443 C444 1.383 . S
C443 H451 0.929 . S
C444 C443 1.383 . S
C444 C445 1.377 . S
C445 H429 0.930 . S
C445 C444 1.377 . S
C445 C446 1.379 . S
C446 H430 0.931 . S
C446 C440 1.383 . S
C446 C445 1.379 . S
H447 C441 0.959 . S
H448 C441 0.961 . S
H449 C441 0.960 . S
H450 C442 0.930 . S
H451 C443 0.929 . S
H452 C460 0.929 . S
H453 C462 0.930 . S
H454 C464 0.930 . S
H455 C467 0.929 . S
H456 C470 0.930 . S
H457 C472 0.960 . S
H458 C472 0.960 . S
H459 C472 0.960 . S
C460 H452 0.929 . S
C460 C461 1.377 . S
C460 C462 1.384 . S
C461 C460 1.377 . S
C461 C467 1.390 . S
C462 H453 0.930 . S
C462 C460 1.384 . S
C462 C463 1.372 . S
C463 C462 1.372 . S
C463 C464 1.400 . S
C463 C468 1.490 . S
C464 H454 0.930 . S
C464 C463 1.400 . S
C464 C467 1.386 . S
H465 C481 0.930 . S
H466 C482 0.931 . S
C467 H455 0.929 . S
C467 C461 1.390 . S
C467 C464 1.386 . S
C468 C463 1.490 . S
C468 C470 1.395 . S
C468 C471 1.403 . S
H469 C475 0.930 . S
C470 H456 0.930 . S
C470 C468 1.395 . S
C470 C473 1.403 . S
C471 C468 1.403 . S
C471 C472 1.524 . S
C471 C475 1.400 . S
C472 H457 0.960 . S
C472 H458 0.960 . S
C472 H459 0.960 . S
C472 C471 1.524 . S
C473 C470 1.403 . S
C473 C474 1.392 . S
C473 C477 1.495 . S
C474 C473 1.392 . S
C474 C475 1.385 . S
C474 C476 1.478 . S
C475 H469 0.930 . S
C475 C471 1.400 . S
C475 C474 1.385 . S
C476 C474 1.478 . S
C476 C478 1.381 . S
C476 C482 1.383 . S
C477 C473 1.495 . S
C477 H483 0.959 . S
C477 H484 0.961 . S
C477 H485 0.960 . S
C478 C476 1.381 . S
C478 C479 1.394 . S
C478 H486 0.930 . S
C479 C478 1.394 . S
C479 C480 1.383 . S
C479 H487 0.929 . S
C480 C479 1.383 . S
C480 C481 1.377 . S
C481 H465 0.930 . S
C481 C480 1.377 . S
C481 C482 1.379 . S
C482 H466 0.931 . S
C482 C476 1.383 . S
C482 C481 1.379 . S
H483 C477 0.959 . S
H484 C477 0.961 . S
H485 C477 0.960 . S
H486 C478 0.930 . S
H487 C479 0.929 . S
H488 C496 0.929 . S
H489 C498 0.930 . S
H490 C500 0.930 . S
H491 C503 0.929 . S
H492 C506 0.930 . S
H493 C508 0.960 . S
H494 C508 0.960 . S
H495 C508 0.960 . S
C496 H488 0.929 . S
C496 C497 1.377 . S
C496 C498 1.384 . S
C497 C496 1.377 . S
C497 C503 1.390 . S
C498 H489 0.930 . S
C498 C496 1.384 . S
C498 C499 1.372 . S
C499 C498 1.372 . S
C499 C500 1.400 . S
C499 C504 1.490 . S
C500 H490 0.930 . S
C500 C499 1.400 . S
C500 C503 1.386 . S
H501 C517 0.930 . S
H502 C518 0.931 . S
C503 H491 0.929 . S
C503 C497 1.390 . S
C503 C500 1.386 . S
C504 C499 1.490 . S
C504 C506 1.395 . S
C504 C507 1.403 . S
H505 C511 0.930 . S
C506 H492 0.930 . S
C506 C504 1.395 . S
C506 C509 1.403 . S
C507 C504 1.403 . S
C507 C508 1.524 . S
C507 C511 1.400 . S
C508 H493 0.960 . S
C508 H494 0.960 . S
C508 H495 0.960 . S
C508 C507 1.524 . S
C509 C506 1.403 . S
C509 C510 1.392 . S
C509 C513 1.495 . S
C510 C509 1.392 . S
C510 C511 1.385 . S
C510 C512 1.478 . S
C511 H505 0.930 . S
C511 C507 1.400 . S
C511 C510 1.385 . S
C512 C510 1.478 . S
C512 C514 1.381 . S
C512 C518 1.383 . S
C513 C509 1.495 . S
C513 H519 0.959 . S
C513 H520 0.961 . S
C513 H521 0.960 . S
C514 C512 1.381 . S
C514 C515 1.394 . S
C514 H522 0.930 . S
C515 C514 1.394 . S
C515 C516 1.383 . S
C515 H523 0.929 . S
C516 C515 1.383 . S
C516 C517 1.377 . S
C517 H501 0.930 . S
C517 C516 1.377 . S
C517 C518 1.379 . S
C518 H502 0.931 . S
C518 C512 1.383 . S
C518 C517 1.379 . S
H519 C513 0.959 . S
H520 C513 0.961 . S
H521 C513 0.960 . S
H522 C514 0.930 . S
H523 C515 0.929 . S
H524 C532 0.929 . S
H525 C534 0.930 . S
H526 C536 0.930 . S
H527 C539 0.929 . S
H528 C542 0.930 . S
H529 C544 0.960 . S
H530 C544 0.960 . S
H531 C544 0.960 . S
C532 H524 0.929 . S
C532 C533 1.377 . S
C532 C534 1.384 . S
C533 C532 1.377 . S
C533 C539 1.390 . S
C534 H525 0.930 . S
C534 C532 1.384 . S
C534 C535 1.372 . S
C535 C534 1.372 . S
C535 C536 1.400 . S
C535 C540 1.490 . S
C536 H526 0.930 . S
C536 C535 1.400 . S
C536 C539 1.386 . S
H537 C553 0.930 . S
H538 C554 0.931 . S
C539 H527 0.929 . S
C539 C533 1.390 . S
C539 C536 1.386 . S
C540 C535 1.490 . S
C540 C542 1.395 . S
C540 C543 1.403 . S
H541 C547 0.930 . S
C542 H528 0.930 . S
C542 C540 1.395 . S
C542 C545 1.403 . S
C543 C540 1.403 . S
C543 C544 1.524 . S
C543 C547 1.400 . S
C544 H529 0.960 . S
C544 H530 0.960 . S
C544 H531 0.960 . S
C544 C543 1.524 . S
C545 C542 1.403 . S
C545 C546 1.392 . S
C545 C549 1.495 . S
C546 C545 1.392 . S
C546 C547 1.385 . S
C546 C548 1.478 . S
C547 H541 0.930 . S
C547 C543 1.400 . S
C547 C546 1.385 . S
C548 C546 1.478 . S
C548 C550 1.381 . S
C548 C554 1.383 . S
C549 C545 1.495 . S
C549 H555 0.959 . S
C549 H556 0.961 . S
C549 H557 0.960 . S
C550 C548 1.381 . S
C550 C551 1.394 . S
C550 H558 0.930 . S
C551 C550 1.394 . S
C551 C552 1.383 . S
C551 H559 0.929 . S
C552 C551 1.383 . S
C552 C553 1.377 . S
C553 H537 0.930 . S
C553 C552 1.377 . S
C553 C554 1.379 . S
C554 H538 0.931 . S
C554 C548 1.383 . S
C554 C553 1.379 . S
H555 C549 0.959 . S
H556 C549 0.961 . S
H557 C549 0.960 . S
H558 C550 0.930 . S
H559 C551 0.929 . S
H560 C568 0.929 . S
H561 C570 0.930 . S
H562 C572 0.930 . S
H563 C575 0.929 . S
H564 C578 0.930 . S
H565 C580 0.960 . S
H566 C580 0.960 . S
H567 C580 0.960 . S
C568 H560 0.929 . S
C568 C569 1.377 . S
C568 C570 1.384 . S
C569 C568 1.377 . S
C569 C575 1.390 . S
C570 H561 0.930 . S
C570 C568 1.384 . S
C570 C571 1.372 . S
C571 C570 1.372 . S
C571 C572 1.400 . S
C571 C576 1.490 . S
C572 H562 0.930 . S
C572 C571 1.400 . S
C572 C575 1.386 . S
H573 C589 0.930 . S
H574 C590 0.931 . S
C575 H563 0.929 . S
C575 C569 1.390 . S
C575 C572 1.386 . S
C576 C571 1.490 . S
C576 C578 1.395 . S
C576 C579 1.403 . S
H577 C583 0.928 1_655 S
C578 H564 0.930 . S
C578 C576 1.395 . S
C578 C581 1.403 . S
C579 C576 1.403 . S
C579 C580 1.524 . S
C579 C583 1.402 . S
C580 H565 0.960 . S
C580 H566 0.960 . S
C580 H567 0.960 . S
C580 C579 1.524 . S
C581 C578 1.403 . S
C581 C582 1.391 1_455 S
C581 C585 1.495 . S
C582 C581 1.391 1_655 S
C582 C583 1.385 1_655 S
C582 C584 1.479 . S
C583 H577 0.928 1_455 S
C583 C579 1.402 . S
C583 C582 1.385 1_455 S
C584 C582 1.479 . S
C584 C586 1.381 . S
C584 C590 1.383 . S
C585 C581 1.495 . S
C585 H591 0.959 . S
C585 H592 0.961 1_455 S
C585 H593 0.960 . S
C586 C584 1.381 . S
C586 C587 1.394 . S
C586 H594 0.930 1_655 S
C587 C586 1.394 . S
C587 C588 1.383 . S
C587 H595 0.929 . S
C588 C587 1.383 . S
C588 C589 1.377 . S
C589 H573 0.930 . S
C589 C588 1.377 . S
C589 C590 1.379 . S
C590 H574 0.931 . S
C590 C584 1.383 . S
C590 C589 1.379 . S
H591 C585 0.959 . S
H592 C585 0.961 1_655 S
H593 C585 0.960 . S
H594 C586 0.930 1_455 S
H595 C587 0.929 . S
H596 C604 0.929 . S
H597 C606 0.930 1_455 S
H598 C608 0.930 . S
H599 C611 0.929 . S
H600 C614 0.930 1_655 S
H601 C616 0.960 . S
H602 C616 0.960 . S
H603 C616 0.960 1_655 S
C604 H596 0.929 . S
C604 C605 1.377 . S
C604 C606 1.384 . S
C605 C604 1.377 . S
C605 C611 1.390 . S
C606 H597 0.930 1_655 S
C606 C604 1.384 . S
C606 C607 1.372 . S
C607 C606 1.372 . S
C607 C608 1.400 . S
C607 C612 1.490 . S
C608 H598 0.930 . S
C608 C607 1.400 . S
C608 C611 1.386 . S
H609 C625 0.930 . S
H610 C626 0.931 . S
C611 H599 0.929 . S
C611 C605 1.390 . S
C611 C608 1.386 . S
C612 C607 1.490 . S
C612 C614 1.395 1_655 S
C612 C615 1.403 1_655 S
H613 C619 0.930 . S
C614 H600 0.930 1_455 S
C614 C612 1.395 1_455 S
C614 C617 1.403 . S
C615 C612 1.403 1_455 S
C615 C616 1.524 . S
C615 C619 1.400 . S
C616 H601 0.960 . S
C616 H602 0.960 . S
C616 H603 0.960 1_455 S
C616 C615 1.524 . S
C617 C614 1.403 . S
C617 C618 1.392 . S
C617 C621 1.495 . S
C618 C617 1.392 . S
C618 C619 1.385 . S
C618 C620 1.478 . S
C619 H613 0.930 . S
C619 C615 1.400 . S
C619 C618 1.385 . S
C620 C618 1.478 . S
C620 C622 1.381 . S
C620 C626 1.383 . S
C621 C617 1.495 . S
C621 H627 0.959 . S
C621 H628 0.961 . S
C621 H629 0.960 . S
C622 C620 1.381 . S
C622 C623 1.394 . S
C622 H630 0.930 . S
C623 C622 1.394 . S
C623 C624 1.383 . S
C623 H631 0.929 . S
C624 C623 1.383 . S
C624 C625 1.377 . S
C625 H609 0.930 . S
C625 C624 1.377 . S
C625 C626 1.379 . S
C626 H610 0.931 . S
C626 C620 1.383 . S
C626 C625 1.379 . S
H627 C621 0.959 . S
H628 C621 0.961 . S
H629 C621 0.960 . S
H630 C622 0.930 . S
H631 C623 0.929 . S
H632 C640 0.929 . S
H633 C642 0.930 . S
H634 C644 0.930 . S
H635 C647 0.929 . S
H636 C650 0.930 . S
H637 C652 0.960 . S
H638 C652 0.960 . S
H639 C652 0.960 . S
C640 H632 0.929 . S
C640 C641 1.377 . S
C640 C642 1.384 . S
C641 C640 1.377 . S
C641 C647 1.390 . S
C642 H633 0.930 . S
C642 C640 1.384 . S
C642 C643 1.372 . S
C643 C642 1.372 . S
C643 C644 1.400 . S
C643 C648 1.490 . S
C644 H634 0.930 . S
C644 C643 1.400 . S
C644 C647 1.386 . S
H645 C661 0.930 . S
H646 C662 0.931 . S
C647 H635 0.929 . S
C647 C641 1.390 . S
C647 C644 1.386 . S
C648 C643 1.490 . S
C648 C650 1.395 1_455 S
C648 C651 1.403 . S
H649 C655 0.930 1_455 S
C650 H636 0.930 . S
C650 C648 1.395 1_655 S
C650 C653 1.403 . S
C651 C648 1.403 . S
C651 C652 1.524 . S
C651 C655 1.400 1_455 S
C652 H637 0.960 . S
C652 H638 0.960 . S
C652 H639 0.960 . S
C652 C651 1.524 . S
C653 C650 1.403 . S
C653 C654 1.392 . S
C653 C657 1.495 . S
C654 C653 1.392 . S
C654 C655 1.385 . S
C654 C656 1.478 . S
C655 H649 0.930 1_655 S
C655 C651 1.400 1_655 S
C655 C654 1.385 . S
C656 C654 1.478 . S
C656 C658 1.381 . S
C656 C662 1.383 . S
C657 C653 1.495 . S
C657 H663 0.959 . S
C657 H664 0.961 . S
C657 H665 0.960 . S
C658 C656 1.381 . S
C658 C659 1.394 . S
C658 H666 0.930 . S
C659 C658 1.394 . S
C659 C660 1.383 . S
C659 H667 0.929 . S
C660 C659 1.383 . S
C660 C661 1.377 . S
C661 H645 0.930 . S
C661 C660 1.377 . S
C661 C662 1.379 . S
C662 H646 0.931 . S
C662 C656 1.383 . S
C662 C661 1.379 . S
H663 C657 0.959 . S
H664 C657 0.961 . S
H665 C657 0.960 . S
H666 C658 0.930 . S
H667 C659 0.929 . S
H668 C676 0.929 . S
H669 C678 0.930 . S
H670 C680 0.930 . S
H671 C683 0.929 . S
H672 C686 0.930 . S
H673 C688 0.960 . S
H674 C688 0.960 . S
H675 C688 0.960 . S
C676 H668 0.929 . S
C676 C677 1.377 . S
C676 C678 1.384 . S
C677 C676 1.377 . S
C677 C683 1.390 . S
C678 H669 0.930 . S
C678 C676 1.384 . S
C678 C679 1.372 . S
C679 C678 1.372 . S
C679 C680 1.400 . S
C679 C684 1.490 . S
C680 H670 0.930 . S
C680 C679 1.400 . S
C680 C683 1.386 . S
H681 C697 0.930 . S
H682 C698 0.931 . S
C683 H671 0.929 . S
C683 C677 1.390 . S
C683 C680 1.386 . S
C684 C679 1.490 . S
C684 C686 1.395 1_455 S
C684 C687 1.403 . S
H685 C691 0.930 1_455 S
C686 H672 0.930 . S
C686 C684 1.395 1_655 S
C686 C689 1.403 . S
C687 C684 1.403 . S
C687 C688 1.524 . S
C687 C691 1.400 1_455 S
C688 H673 0.960 . S
C688 H674 0.960 . S
C688 H675 0.960 . S
C688 C687 1.524 . S
C689 C686 1.403 . S
C689 C690 1.392 . S
C689 C693 1.495 . S
C690 C689 1.392 . S
C690 C691 1.385 . S
C690 C692 1.478 . S
C691 H685 0.930 1_655 S
C691 C687 1.400 1_655 S
C691 C690 1.385 . S
C692 C690 1.478 . S
C692 C694 1.381 . S
C692 C698 1.383 . S
C693 C689 1.495 . S
C693 H699 0.959 . S
C693 H700 0.961 . S
C693 H701 0.960 . S
C694 C692 1.381 . S
C694 C695 1.394 . S
C694 H702 0.930 . S
C695 C694 1.394 . S
C695 C696 1.383 . S
C695 H703 0.929 . S
C696 C695 1.383 . S
C696 C697 1.377 . S
C697 H681 0.930 . S
C697 C696 1.377 . S
C697 C698 1.379 . S
C698 H682 0.931 . S
C698 C692 1.383 . S
C698 C697 1.379 . S
H699 C693 0.959 . S
H700 C693 0.961 . S
H701 C693 0.960 . S
H702 C694 0.930 . S
H703 C695 0.929 . S
C137 C20 0.704 . S
C156 C16 0.703 . S
C173 C52 0.705 . S
C192 C48 0.703 . S
C209 C84 0.705 . S
C228 C80 0.706 . S
C245 C116 0.704 . S
C264 C112 0.704 . S
C281 C51 1.453 1_554 S
C300 C23 1.427 . S
C317 C115 1.460 . S
C336 C87 1.450 . S
C353 C19 1.450 1_554 S
C372 C55 1.433 1_556 S
C389 C119 1.458 . S
C408 C83 1.439 . S
C425 C117 1.773 . S
C444 C18 1.754 . S
C461 C53 1.773 . S
C480 C82 1.742 . S
C497 C81 1.773 . S
C516 C54 1.742 . S
C533 C17 1.774 . S
C552 C118 1.762 . S
C569 C85 1.774 . S
C588 C50 1.746 . S
C605 C114 1.747 . S
C624 C21 1.768 . S
C641 C22 1.749 . S
C660 C113 1.775 . S
C677 C86 1.749 . S
C696 C49 1.776 . S
