# Generated by pormake.
# Topology una, (4)-cn, num edge types: 1
# Building blocks:
#     Node 0, Type 0, BuildingBlock: AZAVOO_clean_sbu_0, # of connection points: 4
#     Node 1, Type 0, BuildingBlock: AZAVOO_clean_sbu_0, # of connection points: 4
#     Node 2, Type 0, BuildingBlock: AZAVOO_clean_sbu_0, # of connection points: 4
#     Node 3, Type 0, BuildingBlock: AZAVOO_clean_sbu_0, # of connection points: 4
#     Node 4, Type 0, BuildingBlock: AZAVOO_clean_sbu_0, # of connection points: 4
#     Node 5, Type 0, BuildingBlock: AZAVOO_clean_sbu_0, # of connection points: 4
#     Node 6, Type 0, BuildingBlock: AZAVOO_clean_sbu_0, # of connection points: 4
#     Node 7, Type 0, BuildingBlock: AZAVOO_clean_sbu_0, # of connection points: 4
#     Node 8, Type 0, BuildingBlock: AZAVOO_clean_sbu_0, # of connection points: 4
#     Node 9, Type 0, BuildingBlock: AZAVOO_clean_sbu_0, # of connection points: 4
#     Node 10, Type 0, BuildingBlock: AZAVOO_clean_sbu_0, # of connection points: 4
#     Node 11, Type 0, BuildingBlock: AZAVOO_clean_sbu_0, # of connection points: 4
#     Edge 12, Type (0, 0), BuildingBlock: KIFKEQ_clean_linker_1, # of connection points: 2
#     Edge 13, Type (0, 0), BuildingBlock: KIFKEQ_clean_linker_1, # of connection points: 2
#     Edge 14, Type (0, 0), BuildingBlock: KIFKEQ_clean_linker_1, # of connection points: 2
#     Edge 15, Type (0, 0), BuildingBlock: KIFKEQ_clean_linker_1, # of connection points: 2
#     Edge 16, Type (0, 0), BuildingBlock: KIFKEQ_clean_linker_1, # of connection points: 2
#     Edge 17, Type (0, 0), BuildingBlock: KIFKEQ_clean_linker_1, # of connection points: 2
#     Edge 18, Type (0, 0), BuildingBlock: KIFKEQ_clean_linker_1, # of connection points: 2
#     Edge 19, Type (0, 0), BuildingBlock: KIFKEQ_clean_linker_1, # of connection points: 2
#     Edge 20, Type (0, 0), BuildingBlock: KIFKEQ_clean_linker_1, # of connection points: 2
#     Edge 21, Type (0, 0), BuildingBlock: KIFKEQ_clean_linker_1, # of connection points: 2
#     Edge 22, Type (0, 0), BuildingBlock: KIFKEQ_clean_linker_1, # of connection points: 2
#     Edge 23, Type (0, 0), BuildingBlock: KIFKEQ_clean_linker_1, # of connection points: 2
#     Edge 24, Type (0, 0), BuildingBlock: KIFKEQ_clean_linker_1, # of connection points: 2
#     Edge 25, Type (0, 0), BuildingBlock: KIFKEQ_clean_linker_1, # of connection points: 2
#     Edge 26, Type (0, 0), BuildingBlock: KIFKEQ_clean_linker_1, # of connection points: 2
#     Edge 27, Type (0, 0), BuildingBlock: KIFKEQ_clean_linker_1, # of connection points: 2
#     Edge 28, Type (0, 0), BuildingBlock: KIFKEQ_clean_linker_1, # of connection points: 2
#     Edge 29, Type (0, 0), BuildingBlock: KIFKEQ_clean_linker_1, # of connection points: 2
#     Edge 30, Type (0, 0), BuildingBlock: KIFKEQ_clean_linker_1, # of connection points: 2
#     Edge 31, Type (0, 0), BuildingBlock: KIFKEQ_clean_linker_1, # of connection points: 2
#     Edge 32, Type (0, 0), BuildingBlock: KIFKEQ_clean_linker_1, # of connection points: 2
#     Edge 33, Type (0, 0), BuildingBlock: KIFKEQ_clean_linker_1, # of connection points: 2
#     Edge 34, Type (0, 0), BuildingBlock: KIFKEQ_clean_linker_1, # of connection points: 2
#     Edge 35, Type (0, 0), BuildingBlock: KIFKEQ_clean_linker_1, # of connection points: 2
# Relax obj value: 0.178
# Max RMSD: 0.208
# Mean RMSD: 0.204
data_MOF--net-una--node1-AZAVOO_clean_sbu_0--edge1-KIFKEQ_clean_linker_1
_symmetry_space_group_name_H-M    P1
_symmetry_Int_Tables_number       1
_symmetry_cell_setting            triclinic
loop_
_symmetry_equiv_pos_as_xyz
'x, y, z'
_cell_length_a     58.624047
_cell_length_b     56.141094
_cell_length_c     22.618777
_cell_angle_alpha  90.078571
_cell_angle_beta   89.895873
_cell_angle_gamma 121.76185
loop_
_atom_site_label
_atom_site_type_symbol
_atom_site_fract_x
_atom_site_fract_y
_atom_site_fract_z
_atom_type_partial_charge
Mg0 Mg 0.14201 0.42503 0.04256 0.0
O1 O 0.14619 0.46195 0.09635 0.0
O2 O 0.18246 0.478 0.15346 0.0
Mg3 Mg 0.20143 0.45194 0.13746 0.0
C4 C 0.16243 0.47905 0.13504 0.0
C5 C 0.08727 0.41684 0.00413 0.0
O6 O 0.08292 0.41123 0.06086 0.0
O7 O 0.17692 0.45606 0.98378 0.0
O8 O 0.21214 0.46931 0.04334 0.0
O9 O 0.11905 0.39489 0.11693 0.0
O10 O 0.16304 0.41763 0.10493 0.0
C11 C 0.20223 0.46992 -0.00651 0.0
C12 C 0.14233 0.40085 0.13558 0.0
O13 O 0.11031 0.42464 0.98313 0.0
Mg14 Mg 0.69663 0.11254 0.22514 0.0
O15 O 0.71168 0.13859 0.14073 0.0
O16 O 0.68453 0.11402 0.06612 0.0
Mg17 Mg 0.65102 0.07226 0.10407 0.0
C18 C 0.70516 0.1361 0.08634 0.0
C19 C 0.75029 0.16696 0.26492 0.0
O20 O 0.75974 0.16038 0.21919 0.0
O21 O 0.66301 0.12187 0.23295 0.0
O22 O 0.63624 0.09599 0.1586 0.0
O23 O 0.71967 0.09214 0.20018 0.0
O24 O 0.67728 0.07561 0.17691 0.0
C25 C 0.64172 0.11275 0.20202 0.0
C26 C 0.69807 0.07361 0.17305 0.0
O27 O 0.72555 0.15151 0.27807 0.0
Mg28 Mg 0.55966 0.70388 0.3037 0.0
O29 O 0.51664 0.66622 0.31943 0.0
O30 O 0.49105 0.68433 0.33527 0.0
Mg31 Mg 0.51691 0.73187 0.33878 0.0
C32 C 0.49385 0.66343 0.32892 0.0
C33 C 0.57487 0.65794 0.2943 0.0
O34 O 0.5683 0.65506 0.35055 0.0
O35 O 0.54848 0.71309 0.21277 0.0
O36 O 0.52492 0.73225 0.24034 0.0
O37 O 0.56921 0.70731 0.40151 0.0
O38 O 0.5522 0.72918 0.35638 0.0
C39 C 0.53554 0.72502 0.20046 0.0
C40 C 0.56041 0.72414 0.40451 0.0
O41 O 0.57258 0.67546 0.26336 0.0
Mg42 Mg 0.86702 0.58199 0.53025 0.0
O43 O 0.86256 0.54508 0.58391 0.0
O44 O 0.82475 0.52693 0.63653 0.0
Mg45 Mg 0.80533 0.55243 0.61874 0.0
C46 C 0.84563 0.52697 0.62022 0.0
C47 C 0.92179 0.60867 0.4723 0.0
O48 O 0.92128 0.62942 0.49789 0.0
O49 O 0.83404 0.55084 0.46772 0.0
O50 O 0.7974 0.5361 0.52374 0.0
O51 O 0.88743 0.61175 0.60655 0.0
O52 O 0.84377 0.58804 0.58949 0.0
C53 C 0.80854 0.53626 0.47499 0.0
C54 C 0.86356 0.60531 0.62183 0.0
O55 O 0.90112 0.58412 0.47623 0.0
Mg56 Mg 0.32059 0.90907 0.74662 0.0
O57 O 0.3044 0.88085 0.66605 0.0
O58 O 0.32915 0.90322 0.58687 0.0
Mg59 Mg 0.36237 0.9467 0.61865 0.0
C60 C 0.30952 0.88158 0.61116 0.0
C61 C 0.26832 0.85771 0.79908 0.0
O62 O 0.25724 0.86785 0.76521 0.0
O63 O 0.35546 0.90159 0.75203 0.0
O64 O 0.37994 0.92576 0.67352 0.0
O65 O 0.29543 0.92692 0.72178 0.0
O66 O 0.3376 0.94474 0.69408 0.0
C67 C 0.37603 0.9104 0.71868 0.0
C68 C 0.31598 0.94524 0.69141 0.0
O69 O 0.29375 0.87034 0.80202 0.0
Mg70 Mg 0.45324 0.30853 0.81087 0.0
O71 O 0.49701 0.34464 0.8271 0.0
O72 O 0.52028 0.32449 0.84799 0.0
Mg73 Mg 0.4929 0.27713 0.84747 0.0
C74 C 0.51903 0.34626 0.84001 0.0
C75 C 0.41941 0.33392 0.78982 0.0
O76 O 0.40543 0.31312 0.82679 0.0
O77 O 0.46421 0.29896 0.71997 0.0
O78 O 0.48645 0.27853 0.74873 0.0
O79 O 0.44343 0.30533 0.90862 0.0
O80 O 0.45864 0.28171 0.86331 0.0
C81 C 0.47678 0.28653 0.70832 0.0
C82 C 0.45087 0.28735 0.91145 0.0
O83 O 0.44212 0.33875 0.77259 0.0
Mg84 Mg 0.59526 0.90877 0.79234 0.0
O85 O 0.58334 0.87769 0.86791 0.0
O86 O 0.57999 0.89702 0.95112 0.0
Mg87 Mg 0.59041 0.94139 0.92809 0.0
C88 C 0.57847 0.87648 0.92305 0.0
C89 C 0.59528 0.85875 0.73241 0.0
O90 O 0.61475 0.86631 0.77071 0.0
O91 O 0.55263 0.90072 0.79008 0.0
O92 O 0.55191 0.92231 0.87261 0.0
O93 O 0.63864 0.92663 0.81517 0.0
O94 O 0.61364 0.9422 0.85072 0.0
C95 C 0.54064 0.90833 0.82567 0.0
C96 C 0.63607 0.94327 0.85036 0.0
O97 O 0.58372 0.87255 0.72945 0.0
Mg98 Mg 0.721 0.57661 0.03805 0.0
O99 O 0.69138 0.54093 0.97725 0.0
O100 O 0.71242 0.52124 0.93754 0.0
Mg101 Mg 0.75554 0.54428 0.97174 0.0
C102 C 0.69151 0.52261 0.94404 0.0
C103 C 0.68762 0.58665 0.13014 0.0
O104 O 0.70773 0.59025 0.16275 0.0
O105 O 0.71616 0.54444 0.1069 0.0
O106 O 0.73966 0.52789 0.06455 0.0
O107 O 0.73806 0.60712 0.96152 0.0
O108 O 0.75369 0.58122 -0.00697 0.0
C109 C 0.72595 0.52874 0.10761 0.0
C110 C 0.75539 0.59956 0.95677 0.0
O111 O 0.68668 0.57997 0.07608 0.0
Mg112 Mg 0.1542 0.7055 0.22769 0.0
O113 O 0.15764 0.66653 0.21658 0.0
O114 O 0.20044 0.68292 0.19292 0.0
Mg115 Mg 0.22352 0.73025 0.18278 0.0
C116 C 0.17676 0.66264 0.2045 0.0
C117 C 0.09204 0.66245 0.25248 0.0
O118 O 0.09152 0.65719 0.19572 0.0
O119 O 0.17778 0.71771 0.31486 0.0
O120 O 0.21958 0.735 0.28156 0.0
O121 O 0.14504 0.70589 0.13021 0.0
O122 O 0.18547 0.728 0.16892 0.0
C123 C 0.20304 0.72975 0.32364 0.0
C124 C 0.17072 0.72195 0.12284 0.0
O125 O 0.11428 0.67996 0.2767 0.0
Mg126 Mg 0.41974 0.10471 0.29749 0.0
O127 O 0.43134 0.13501 0.37425 0.0
O128 O 0.43642 0.11595 0.45569 0.0
Mg129 Mg 0.42773 0.07243 0.4296 0.0
C130 C 0.43679 0.13618 0.42899 0.0
C131 C 0.41784 0.1547 0.24141 0.0
O132 O 0.3987 0.14699 0.2808 0.0
O133 O 0.46297 0.11484 0.29152 0.0
O134 O 0.46582 0.09361 0.37225 0.0
O135 O 0.37648 0.08506 0.32368 0.0
O136 O 0.40305 0.07059 0.35421 0.0
C137 C 0.47613 0.10808 0.32535 0.0
C138 C 0.38012 0.0684 0.35626 0.0
O139 O 0.42947 0.14102 0.23677 0.0
Mg140 Mg 0.29126 0.4382 0.54621 0.0
O141 O 0.32095 0.47435 0.48579 0.0
O142 O 0.30037 0.49626 0.45606 0.0
Mg143 Mg 0.25736 0.47317 0.49069 0.0
C144 C 0.32093 0.49402 0.45753 0.0
C145 C 0.32529 0.42782 0.63484 0.0
O146 O 0.3076 0.42824 0.66987 0.0
O147 O 0.2977 0.4696 0.61903 0.0
O148 O 0.27383 0.48715 0.58391 0.0
O149 O 0.27237 0.4086 0.46868 0.0
O150 O 0.25865 0.43543 0.50493 0.0
C151 C 0.28801 0.48529 0.62435 0.0
C152 C 0.25566 0.41706 0.46699 0.0
O153 O 0.32475 0.43233 0.57993 0.0
Mg154 Mg 0.86832 0.30854 0.69204 0.0
O155 O 0.86056 0.34465 0.6831 0.0
O156 O 0.81882 0.32584 0.64839 0.0
Mg157 Mg 0.80043 0.2792 0.63134 0.0
C158 C 0.84087 0.34686 0.66677 0.0
C159 C 0.92701 0.33697 0.73518 0.0
O160 O 0.92712 0.32302 0.68859 0.0
O161 O 0.84072 0.29134 0.77332 0.0
O162 O 0.80036 0.2722 0.73072 0.0
O163 O 0.88314 0.31413 0.59744 0.0
O164 O 0.84097 0.28699 0.62544 0.0
C165 C 0.81508 0.2774 0.77632 0.0
C166 C 0.85821 0.29741 0.58344 0.0
O167 O 0.9054 0.33577 0.749 0.0
H168 H 0.15143 0.35941 0.15755 0.0
H169 H 0.14591 0.42537 0.24018 0.0
H170 H 0.17427 0.35624 0.2448 0.0
H171 H 0.16958 0.42332 0.32634 0.0
H172 H 0.20841 0.41354 0.48212 0.0
H173 H 0.17324 0.40079 0.4098 0.0
H174 H 0.2188 0.3858 0.28059 0.0
H175 H 0.25347 0.39725 0.35469 0.0
C176 C 0.15415 0.37238 0.19565 0.0
C177 C 0.14649 0.39217 0.19327 0.0
C178 C 0.16766 0.37098 0.24507 0.0
C179 C 0.17417 0.38979 0.29232 0.0
C180 C 0.16464 0.40819 0.29132 0.0
C181 C 0.1509 0.40934 0.24216 0.0
C182 C 0.21074 0.40719 0.43838 0.0
C183 C 0.23381 0.40678 0.4235 0.0
C184 C 0.1906 0.39993 0.3969 0.0
C185 C 0.19328 0.39265 0.33904 0.0
C186 C 0.21587 0.39099 0.32493 0.0
C187 C 0.23588 0.39777 0.36707 0.0
H188 H 0.81807 0.29888 0.52839 0.0
H189 H 0.87704 0.27608 0.50251 0.0
H190 H 0.79418 0.27252 0.44031 0.0
H191 H 0.85269 0.24871 0.41529 0.0
H192 H 0.80436 0.2042 0.25121 0.0
H193 H 0.83424 0.24294 0.31669 0.0
H194 H 0.76678 0.22295 0.42926 0.0
H195 H 0.73709 0.18502 0.36362 0.0
C196 C 0.82621 0.28869 0.50287 0.0
C197 C 0.84914 0.28917 0.52222 0.0
C198 C 0.81245 0.27341 0.45274 0.0
C199 C 0.82106 0.2578 0.42171 0.0
C200 C 0.84548 0.26047 0.43805 0.0
C201 C 0.8595 0.27619 0.4879 0.0
C202 C 0.79592 0.20832 0.28966 0.0
C203 C 0.76835 0.19142 0.30236 0.0
C204 C 0.81306 0.23047 0.32722 0.0
C205 C 0.80295 0.2362 0.37812 0.0
C206 C 0.77526 0.21961 0.38985 0.0
C207 C 0.7582 0.19759 0.35243 0.0
H208 H 0.57636 0.71905 0.51596 0.0
H209 H 0.54685 0.76319 0.4171 0.0
H210 H 0.58166 0.7476 0.60311 0.0
H211 H 0.5525 0.79154 0.50222 0.0
H212 H 0.62276 0.83295 0.70667 0.0
H213 H 0.61089 0.79601 0.63406 0.0
H214 H 0.53672 0.79236 0.59808 0.0
H215 H 0.54912 0.82998 0.66866 0.0
C216 C 0.57064 0.73447 0.51303 0.0
C217 C 0.56097 0.73864 0.45967 0.0
C218 C 0.57383 0.75094 0.56273 0.0
C219 C 0.5674 0.77182 0.55979 0.0
C220 C 0.55708 0.77529 0.50677 0.0
C221 C 0.55388 0.75895 0.45756 0.0
C222 C 0.60384 0.82409 0.68348 0.0
C223 C 0.58711 0.83473 0.69247 0.0
C224 C 0.59692 0.80273 0.64226 0.0
C225 C 0.57299 0.79141 0.60971 0.0
C226 C 0.5556 0.80105 0.62135 0.0
C227 C 0.56268 0.8226 0.66186 0.0
H228 H 0.86446 0.58891 0.73368 0.0
H229 H 0.8476 0.64213 0.62985 0.0
H230 H 0.8419 0.59448 0.81836 0.0
H231 H 0.82602 0.64903 0.71506 0.0
H232 H 0.75175 0.61134 0.84077 0.0
H233 H 0.78421 0.62031 0.76257 0.0
H234 H 0.83879 0.62165 0.89296 0.0
H235 H 0.80577 0.6112 0.9698 0.0
C236 C 0.85704 0.60292 0.73015 0.0
C237 C 0.858 0.61546 0.67612 0.0
C238 C 0.84401 0.60612 0.77849 0.0
C239 C 0.83186 0.62205 0.77348 0.0
C240 C 0.83468 0.63622 0.72021 0.0
C241 C 0.84738 0.63267 0.67176 0.0
C242 C 0.77092 0.61412 0.85244 0.0
C243 C 0.77621 0.61023 0.91079 0.0
C244 C 0.78962 0.61938 0.80786 0.0
C245 C 0.81405 0.6213 0.82133 0.0
C246 C 0.81997 0.61955 0.88069 0.0
C247 C 0.80113 0.61375 0.92475 0.0
H248 H 0.28258 0.82277 0.8458 0.0
H249 H 0.21598 0.83505 0.83237 0.0
H250 H 0.25652 0.78342 0.91221 0.0
H251 H 0.19021 0.79638 0.9012 0.0
H252 H 0.14599 0.719 0.01698 0.0
H253 H 0.16755 0.7468 0.9277 0.0
H254 H 0.24488 0.78309 0.01248 0.0
H255 H 0.22385 0.75574 0.09933 0.0
C256 C 0.26232 0.817 0.85702 0.0
C257 C 0.25149 0.83232 0.83489 0.0
C258 C 0.24736 0.79445 0.89508 0.0
C259 C 0.22142 0.78703 0.91294 0.0
C260 C 0.21003 0.80137 0.8881 0.0
C261 C 0.22489 0.82371 0.84911 0.0
C262 C 0.16764 0.73245 0.0157 0.0
C263 C 0.18316 0.73492 0.06533 0.0
C264 C 0.17997 0.7485 0.96482 0.0
C265 C 0.20799 0.76713 0.96276 0.0
C266 C 0.22337 0.76857 0.01163 0.0
C267 C 0.21117 0.75276 0.06199 0.0
H268 H 0.46348 0.18358 0.17616 0.0
H269 H 0.39 0.18041 0.2181 0.0
H270 H 0.47499 0.22063 0.1049 0.0
H271 H 0.4011 0.21698 0.14487 0.0
H272 H 0.43639 0.29407 0.02356 0.0
H273 H 0.43119 0.26599 0.11155 0.0
H274 H 0.45638 0.21866 0.00952 0.0
H275 H 0.46164 0.24624 0.92348 0.0
C276 C 0.44978 0.19083 0.17018 0.0
C277 C 0.4256 0.17873 0.20188 0.0
C278 C 0.45638 0.21208 0.12933 0.0
C279 C 0.43875 0.22144 0.11851 0.0
C280 C 0.41518 0.21035 0.15242 0.0
C281 C 0.40871 0.18924 0.19397 0.0
C282 C 0.4412 0.27794 0.0205 0.0
C283 C 0.44979 0.27269 0.96665 0.0
C284 C 0.43809 0.2618 0.07067 0.0
C285 C 0.44363 0.24027 0.06768 0.0
C286 C 0.4526 0.2355 0.01399 0.0
C287 C 0.45561 0.25143 0.96432 0.0
H288 H 0.18919 0.51555 0.22545 0.0
H289 H 0.12903 0.4955 0.09181 0.0
H290 H 0.18929 0.55772 0.25063 0.0
H291 H 0.12953 0.53814 0.11662 0.0
H292 H 0.1283 0.61236 0.20106 0.0
H293 H 0.12112 0.56529 0.19275 0.0
H294 H 0.20685 0.60129 0.19507 0.0
H295 H 0.21401 0.64774 0.20383 0.0
C296 C 0.17577 0.51995 0.20179 0.0
C297 C 0.15944 0.50234 0.15589 0.0
C298 C 0.17589 0.54419 0.21618 0.0
C299 C 0.15976 0.55151 0.18496 0.0
C300 C 0.14214 0.53303 0.14162 0.0
C301 C 0.14196 0.50865 0.12724 0.0
C302 C 0.14555 0.61011 0.20038 0.0
C303 C 0.17172 0.63384 0.20288 0.0
C304 C 0.14144 0.58321 0.19535 0.0
C305 C 0.16341 0.57956 0.19355 0.0
C306 C 0.18946 0.60328 0.1973 0.0
C307 C 0.19356 0.63001 0.2018 0.0
H308 H 0.63803 0.13664 0.30505 0.0
H309 H 0.59969 0.10523 0.13564 0.0
H310 H 0.60113 0.14242 0.33544 0.0
H311 H 0.56291 0.11047 0.16625 0.0
H312 H 0.50393 0.13329 0.22322 0.0
H313 H 0.54767 0.14172 0.19347 0.0
H314 H 0.55436 0.10877 0.36062 0.0
H315 H 0.51117 0.10087 0.39079 0.0
C316 C 0.622 0.13138 0.274 0.0
C317 C 0.62165 0.12011 0.21824 0.0
C318 C 0.60079 0.13453 0.29151 0.0
C319 C 0.57895 0.12668 0.25345 0.0
C320 C 0.57948 0.11698 0.19652 0.0
C321 C 0.60052 0.11371 0.17917 0.0
C322 C 0.51491 0.12823 0.25395 0.0
C323 C 0.50381 0.11604 0.30907 0.0
C324 C 0.53994 0.13298 0.23682 0.0
C325 C 0.55445 0.12575 0.27451 0.0
C326 C 0.54392 0.11488 0.33073 0.0
C327 C 0.51894 0.11008 0.34777 0.0
H328 H 0.36636 0.49324 0.43079 0.0
H329 H 0.33251 0.54536 0.421 0.0
H330 H 0.40836 0.5313 0.38914 0.0
H331 H 0.3744 0.5835 0.38273 0.0
H332 H 0.44486 0.64532 0.28286 0.0
H333 H 0.40315 0.60148 0.30321 0.0
H334 H 0.44626 0.57513 0.41313 0.0
H335 H 0.48831 0.61845 0.38888 0.0
C336 C 0.36785 0.51278 0.41966 0.0
C337 C 0.34602 0.5162 0.42907 0.0
C338 C 0.392 0.53468 0.39613 0.0
C339 C 0.39494 0.56061 0.38219 0.0
C340 C 0.37289 0.56374 0.39122 0.0
C341 C 0.34876 0.54182 0.41376 0.0
C342 C 0.44539 0.62984 0.31041 0.0
C343 C 0.46965 0.63525 0.33475 0.0
C344 C 0.42146 0.6048 0.32266 0.0
C345 C 0.42105 0.58491 0.36121 0.0
C346 C 0.44567 0.58977 0.38304 0.0
C347 C 0.4698 0.61463 0.3694 0.0
H348 H 0.88433 0.51613 0.58659 0.0
H349 H 0.81385 0.48449 0.69691 0.0
H350 H 0.88507 0.47381 0.60603 0.0
H351 H 0.8149 0.44249 0.71673 0.0
H352 H 0.801 0.35773 0.65408 0.0
H353 H 0.80483 0.40289 0.65203 0.0
H354 H 0.8902 0.44435 0.68142 0.0
H355 H 0.88646 0.3988 0.68304 0.0
C356 C 0.86931 0.50046 0.61587 0.0
C357 C 0.84879 0.50358 0.63942 0.0
C358 C 0.86982 0.47624 0.62721 0.0
C359 C 0.84982 0.45465 0.66224 0.0
C360 C 0.83029 0.45854 0.68864 0.0
C361 C 0.82979 0.4827 0.67743 0.0
C362 C 0.82062 0.37639 0.66041 0.0
C363 C 0.84344 0.37458 0.66847 0.0
C364 C 0.82277 0.40232 0.65976 0.0
C365 C 0.8478 0.4272 0.66689 0.0
C366 C 0.87066 0.42552 0.67557 0.0
C367 C 0.86848 0.39944 0.67671 0.0
H368 H 0.41823 0.91955 0.65009 0.0
H369 H 0.38099 0.88629 0.81984 0.0
H370 H 0.45494 0.9135 0.6765 0.0
H371 H 0.41782 0.87975 0.84593 0.0
H372 H 0.50758 0.91678 0.89589 0.0
H373 H 0.46512 0.91175 0.86968 0.0
H374 H 0.4687 0.88033 0.69767 0.0
H375 H 0.51169 0.88586 0.7235 0.0
C376 C 0.41766 0.9106 0.69287 0.0
C377 C 0.39676 0.90374 0.73316 0.0
C378 C 0.43866 0.90687 0.70776 0.0
C379 C 0.43939 0.89622 0.76339 0.0
C380 C 0.41798 0.88831 0.80292 0.0
C381 C 0.39682 0.89194 0.7879 0.0
C382 C 0.49927 0.90853 0.85259 0.0
C383 C 0.51331 0.90209 0.81149 0.0
C384 C 0.47472 0.90539 0.8378 0.0
C385 C 0.46355 0.89578 0.78148 0.0
C386 C 0.47696 0.88815 0.7412 0.0
C387 C 0.50155 0.89121 0.75608 0.0
H388 H 0.56948 0.35693 0.85826 0.0
H389 H 0.52551 0.39861 0.83744 0.0
H390 H 0.6104 0.40164 0.8743 0.0
H391 H 0.5671 0.4439 0.85258 0.0
H392 H 0.64049 0.51043 0.96696 0.0
H393 H 0.59848 0.46961 0.93368 0.0
H394 H 0.64282 0.44432 0.82506 0.0
H395 H 0.68479 0.48465 0.85936 0.0
C396 C 0.56853 0.37567 0.85655 0.0
C397 C 0.54407 0.37407 0.84679 0.0
C398 C 0.59216 0.40143 0.86522 0.0
C399 C 0.59211 0.42642 0.86432 0.0
C400 C 0.56776 0.42499 0.85384 0.0
C401 C 0.54398 0.39907 0.84496 0.0
C402 C 0.64129 0.49642 0.93522 0.0
C403 C 0.66605 0.50058 0.91661 0.0
C404 C 0.61716 0.47306 0.91594 0.0
C405 C 0.61729 0.45345 0.87744 0.0
C406 C 0.64203 0.45868 0.85581 0.0
C407 C 0.6661 0.48189 0.87531 0.0
H408 H 0.27543 0.52467 0.64864 0.0
H409 H 0.30103 0.47332 0.73192 0.0
H410 H 0.261 0.53211 0.7442 0.0
H411 H 0.28659 0.48083 0.82732 0.0
H412 H 0.19035 0.4775 0.88059 0.0
H413 H 0.22029 0.49331 0.7956 0.0
H414 H 0.28674 0.51139 0.90896 0.0
H415 H 0.2569 0.49563 -0.00575 0.0
C416 C 0.27881 0.51572 0.68756 0.0
C417 C 0.28858 0.49764 0.6825 0.0
C418 C 0.27049 0.51998 0.74222 0.0
C419 C 0.27202 0.50646 0.79276 0.0
C420 C 0.28509 0.49148 0.78899 0.0
C421 C 0.29335 0.48712 0.73421 0.0
C422 C 0.21144 0.48547 0.88772 0.0
C423 C 0.22105 0.48472 0.94405 0.0
C424 C 0.22868 0.49477 0.83905 0.0
C425 C 0.25583 0.50336 0.84573 0.0
C426 C 0.26587 0.50464 0.90259 0.0
C427 C 0.2487 0.49559 0.95136 0.0
H428 H 0.69583 0.14075 0.96987 0.0
H429 H 0.75291 0.1847 0.11033 0.0
H430 H 0.72366 0.179 0.90254 0.0
H431 H 0.7807 0.22321 0.04256 0.0
H432 H 0.76373 0.25968 0.807 0.0
H433 H 0.73783 0.22834 0.88758 0.0
H434 H 0.80884 0.23189 0.95212 0.0
H435 H 0.83504 0.26374 0.87145 0.0
C436 C 0.71424 0.1586 -0.01347 0.0
C437 C 0.72208 0.15959 0.04557 0.0
C438 C 0.73011 0.18066 0.948 0.0
C439 C 0.75426 0.20424 0.96743 0.0
C440 C 0.76224 0.20527 0.02634 0.0
C441 C 0.74625 0.18323 0.06512 0.0
C442 C 0.77398 0.25424 0.83899 0.0
C443 C 0.80135 0.26383 0.83235 0.0
C444 C 0.75909 0.23614 0.88495 0.0
C445 C 0.77116 0.22713 0.92528 0.0
C446 C 0.79899 0.23845 0.92158 0.0
C447 C 0.814 0.25672 0.87547 0.0
H448 H 0.5762 0.74416 0.11952 0.0
H449 H 0.49767 0.73145 0.14776 0.0
H450 H 0.58445 0.7775 0.04041 0.0
H451 H 0.50585 0.76453 0.06883 0.0
H452 H 0.58423 0.8332 0.88758 0.0
H453 H 0.57025 0.78961 0.94088 0.0
H454 H 0.5399 0.81676 0.083 0.0
H455 H 0.55392 0.86015 0.03053 0.0
C456 C 0.56024 0.74745 0.10696 0.0
C457 C 0.5365 0.73566 0.14038 0.0
C458 C 0.56501 0.76665 0.0619 0.0
C459 C 0.54604 0.7741 0.04986 0.0
C460 C 0.52102 0.75958 0.07826 0.0
C461 C 0.51628 0.74052 0.1231 0.0
C462 C 0.57448 0.82978 0.93015 0.0
C463 C 0.57021 0.85016 0.95496 0.0
C464 C 0.56652 0.80487 0.96049 0.0
C465 C 0.55369 0.79969 0.01554 0.0
C466 C 0.5493 0.81998 0.04004 0.0
C467 C 0.55758 0.84497 0.01027 0.0
H468 H 0.75369 0.50652 0.47269 0.0
H469 H 0.82314 0.5333 0.36126 0.0
H470 H 0.72517 0.49219 0.38553 0.0
H471 H 0.79448 0.51884 0.27436 0.0
H472 H 0.71103 0.53561 0.21815 0.0
H473 H 0.72509 0.52542 0.3109 0.0
H474 H 0.7555 0.48096 0.21634 0.0
H475 H 0.74141 0.49101 0.12337 0.0
C476 C 0.76285 0.50875 0.42978 0.0
C477 C 0.79087 0.52174 0.42382 0.0
C478 C 0.74642 0.50048 0.37995 0.0
C479 C 0.75762 0.5047 0.3233 0.0
C480 C 0.78523 0.51516 0.31759 0.0
C481 C 0.80173 0.52366 0.36741 0.0
C482 C 0.71976 0.52274 0.21718 0.0
C483 C 0.72588 0.51491 0.16326 0.0
C484 C 0.72777 0.51682 0.27044 0.0
C485 C 0.74197 0.50297 0.27051 0.0
C486 C 0.74506 0.49214 0.21729 0.0
C487 C 0.73695 0.49792 0.16412 0.0
H488 H 0.18131 0.74654 0.4093 0.0
H489 H 0.25156 0.74328 0.36736 0.0
H490 H 0.20641 0.78072 0.48725 0.0
H491 H 0.27644 0.77721 0.44512 0.0
H492 H 0.31912 0.87034 0.49947 0.0
H493 H 0.29139 0.82822 0.44115 0.0
H494 H 0.23345 0.79303 0.58298 0.0
H495 H 0.26121 0.83528 0.64178 0.0
C496 C 0.20174 0.75227 0.41818 0.0
C497 C 0.21463 0.74265 0.38152 0.0
C498 C 0.21614 0.77193 0.46263 0.0
C499 C 0.24355 0.78213 0.47098 0.0
C500 C 0.25551 0.77021 0.43854 0.0
C501 C 0.2412 0.75065 0.39433 0.0
C502 C 0.3005 0.85367 0.51834 0.0
C503 C 0.29242 0.8562 0.57525 0.0
C504 C 0.28473 0.82942 0.48517 0.0
C505 C 0.26042 0.80723 0.50791 0.0
C506 C 0.25212 0.8098 0.5645 0.0
C507 C 0.26806 0.83398 0.59805 0.0
H508 H 0.43676 0.26755 0.62617 0.0
H509 H 0.51514 0.2804 0.65702 0.0
H510 H 0.42911 0.23426 0.54726 0.0
H511 H 0.5076 0.24742 0.57819 0.0
H512 H 0.46094 0.1523 0.53695 0.0
H513 H 0.47423 0.19535 0.59034 0.0
H514 H 0.44345 0.2222 0.44905 0.0
H515 H 0.43013 0.17898 0.395 0.0
C516 C 0.45284 0.26432 0.61417 0.0
C517 C 0.47636 0.27614 0.64823 0.0
C518 C 0.4484 0.24513 0.56927 0.0
C519 C 0.46748 0.23772 0.55799 0.0
C520 C 0.49232 0.25229 0.58706 0.0
C521 C 0.49671 0.27133 0.63178 0.0
C522 C 0.45701 0.16733 0.51711 0.0
C523 C 0.44446 0.16217 0.46179 0.0
C524 C 0.46488 0.19214 0.54739 0.0
C525 C 0.46019 0.21227 0.52336 0.0
C526 C 0.4474 0.20708 0.46835 0.0
C527 C 0.43981 0.18235 0.43757 0.0
H528 H 0.08873 0.42439 0.88419 0.0
H529 H 0.03463 0.39472 0.03362 0.0
H530 H 0.05077 0.40902 0.81765 0.0
H531 H 0.99671 0.37874 0.96712 0.0
H532 H 0.93393 0.36784 0.83514 0.0
H533 H 0.97351 0.39156 0.89848 0.0
H534 H 0.01445 0.3645 0.78318 0.0
H535 H 0.97529 0.34148 0.71939 0.0
C536 C 0.06878 0.41481 0.90292 0.0
C537 C 0.06472 0.41057 0.96422 0.0
C538 C 0.04699 0.40582 0.86472 0.0
C539 C 0.02062 0.39235 0.8869 0.0
C540 C 0.01672 0.38925 0.94845 0.0
C541 C 0.0385 0.39829 -0.01337 0.0
C542 C 0.95147 0.36717 0.82309 0.0
C543 C 0.95138 0.35264 0.77232 0.0
C544 C 0.97413 0.38066 0.85955 0.0
C545 C 0.99719 0.37993 0.84606 0.0
C546 C 0.99723 0.3659 0.79454 0.0
C547 C 0.97465 0.35247 0.75812 0.0
H548 H 0.64395 0.92632 0.95601 0.0
H549 H 0.6716 0.999 0.84557 0.0
H550 H 0.66721 0.95675 0.04089 0.0
H551 H 0.69502 0.02952 0.92989 0.0
H552 H 0.65734 0.02018 0.16272 0.0
H553 H 0.65094 0.98673 0.08621 0.0
H554 H 0.72949 0.0457 0.01557 0.0
H555 H 0.73612 0.07925 0.09393 0.0
C556 C 0.65608 0.94879 0.94948 0.0
C557 C 0.65636 0.9605 0.89462 0.0
C558 C 0.66923 0.96618 -0.00207 0.0
C559 C 0.68283 0.99549 -0.00801 0.0
C560 C 0.68503 0.00705 0.93564 0.0
C561 C 0.67162 0.98964 0.88742 0.0
C562 C 0.67357 0.02565 0.13194 0.0
C563 C 0.69717 0.05218 0.13396 0.0
C564 C 0.67 0.00644 0.08835 0.0
C565 C 0.68975 0.01358 0.04499 0.0
C566 C 0.71401 0.03967 0.04866 0.0
C567 C 0.71784 0.05876 0.09343 0.0
H568 H 0.6851 0.60275 0.24273 0.0
H569 H 0.6451 0.58419 0.07356 0.0
H570 H 0.65495 0.61654 0.28137 0.0
H571 H 0.61452 0.59749 0.11273 0.0
H572 H 0.59306 0.66133 0.18127 0.0
H573 H 0.6175 0.64068 0.14197 0.0
H574 H 0.60904 0.59994 0.30953 0.0
H575 H 0.58503 0.62107 0.34933 0.0
C576 C 0.66965 0.60126 0.21395 0.0
C577 C 0.66766 0.59256 0.15489 0.0
C578 C 0.65222 0.609 0.23628 0.0
C579 C 0.63235 0.60822 0.20012 0.0
C580 C 0.62984 0.59871 0.14153 0.0
C581 C 0.64728 0.59094 0.11918 0.0
C582 C 0.59617 0.64775 0.20962 0.0
C583 C 0.58727 0.64306 0.26864 0.0
C584 C 0.61006 0.63576 0.18693 0.0
C585 C 0.61538 0.61876 0.22268 0.0
C586 C 0.60564 0.61327 0.28108 0.0
C587 C 0.59174 0.62527 0.30379 0.0
H588 H 0.0405 0.62644 0.21421 0.0
H589 H 0.0863 0.6715 0.36873 0.0
H590 H 0.99889 0.61106 0.26858 0.0
H591 H 0.04486 0.65593 0.42283 0.0
H592 H 0.96974 0.65798 0.46646 0.0
H593 H 0.01021 0.66798 0.41496 0.0
H594 H 0.97034 0.58224 0.3546 0.0
H595 H 0.92935 0.57211 0.40628 0.0
C596 C 0.04172 0.63277 0.25993 0.0
C597 C 0.06676 0.65048 0.28687 0.0
C598 C 0.01787 0.62384 0.29112 0.0
C599 C 0.0186 0.63255 0.34976 0.0
C600 C 0.04363 0.64927 0.37736 0.0
C601 C 0.0674 0.65808 0.34637 0.0
C602 C 0.96949 0.64116 0.44236 0.0
C603 C 0.94627 0.61421 0.44059 0.0
C604 C 0.99281 0.64688 0.41313 0.0
C605 C 0.99358 0.62586 0.38109 0.0
C606 C 0.97032 0.59889 0.37879 0.0
C607 C 0.94691 0.59308 0.40853 0.0
H608 H 0.36096 0.01332 0.36656 0.0
H609 H 0.35558 0.0805 0.44355 0.0
H610 H 0.33534 0.98283 0.44905 0.0
H611 H 0.33055 0.05015 0.52788 0.0
H612 H 0.28293 0.93008 0.59625 0.0
H613 H 0.28957 0.95983 0.51029 0.0
H614 H 0.35302 0.03135 0.60295 0.0
H615 H 0.34691 1.00151 0.68754 0.0
C616 C 0.35353 0.0212 0.40044 0.0
C617 C 0.35999 0.04904 0.39892 0.0
C618 C 0.33878 1.00377 0.44743 0.0
C619 C 0.33089 0.01413 0.49461 0.0
C620 C 0.33622 0.04164 0.49169 0.0
C621 C 0.35042 0.05892 0.44361 0.0
C622 C 0.29748 0.95238 0.59886 0.0
C623 C 0.31432 0.96372 0.64822 0.0
C624 C 0.30136 0.96932 0.5498 0.0
C625 C 0.32173 0.99786 0.55023 0.0
C626 C 0.33692 0.00954 0.60181 0.0
C627 C 0.3335 0.99251 0.65009 0.0
H628 H 0.35844 0.41598 0.57279 0.0
H629 H 0.33304 0.41984 0.75014 0.0
H630 H 0.38373 0.39602 0.61135 0.0
H631 H 0.3587 0.40054 0.78862 0.0
H632 H 0.37222 0.32866 0.82174 0.0
H633 H 0.35266 0.35456 0.78497 0.0
H634 H 0.42166 0.4034 0.67246 0.0
H635 H 0.44123 0.37693 0.7088 0.0
C636 C 0.35861 0.41302 0.62006 0.0
C637 C 0.34342 0.41915 0.6583 0.0
C638 C 0.37321 0.4017 0.64219 0.0
C639 C 0.37294 0.39633 0.703 0.0
C640 C 0.35886 0.40384 0.7414 0.0
C641 C 0.34424 0.41505 0.71934 0.0
C642 C 0.38336 0.34498 0.78934 0.0
C643 C 0.4083 0.35069 0.76819 0.0
C644 C 0.3722 0.36001 0.76855 0.0
C645 C 0.38566 0.38121 0.72604 0.0
C646 C 0.41071 0.38708 0.70495 0.0
C647 C 0.42196 0.37201 0.72595 0.0
loop_
_geom_bond_atom_site_label_1
_geom_bond_atom_site_label_2
_geom_bond_distance
_geom_bond_site_symmetry_2
_ccdc_geom_bond_type
Mg0 O1 2.028 . S
Mg0 O7 1.986 1_554 S
Mg0 O9 2.114 . S
Mg0 O10 2.251 . S
Mg0 O13 2.010 . S
O1 Mg0 2.028 . S
O1 C4 1.250 . S
O2 Mg3 2.028 . S
O2 C4 1.248 . S
Mg3 O2 2.028 . S
Mg3 O8 2.032 1_554 S
Mg3 O10 2.079 . S
C4 O1 1.250 . S
C4 O2 1.248 . S
C5 O6 1.263 1_554 S
C5 O13 1.250 . S
O6 C5 1.263 1_556 S
O7 Mg0 1.986 1_556 S
O7 C11 1.246 . S
O8 Mg3 2.032 1_556 S
O8 C11 1.259 . S
O9 Mg0 2.114 . S
O9 C12 1.252 . S
O10 Mg0 2.251 . S
O10 Mg3 2.079 . S
O10 C12 1.273 . S
C11 O7 1.246 . S
C11 O8 1.259 . S
C12 O9 1.252 . S
C12 O10 1.273 . S
O13 Mg0 2.010 . S
O13 C5 1.250 . S
Mg14 O15 2.028 . S
Mg14 O21 1.986 . S
Mg14 O23 2.114 . S
Mg14 O24 2.251 . S
Mg14 O27 2.010 . S
O15 Mg14 2.028 . S
O15 C18 1.250 . S
O16 Mg17 2.028 . S
O16 C18 1.248 . S
Mg17 O16 2.028 . S
Mg17 O22 2.032 . S
Mg17 O24 2.079 . S
C18 O15 1.250 . S
C18 O16 1.248 . S
C19 O20 1.264 . S
C19 O27 1.249 . S
O20 C19 1.264 . S
O21 Mg14 1.986 . S
O21 C25 1.246 . S
O22 Mg17 2.032 . S
O22 C25 1.259 . S
O23 Mg14 2.114 . S
O23 C26 1.252 . S
O24 Mg14 2.251 . S
O24 Mg17 2.079 . S
O24 C26 1.273 . S
C25 O21 1.246 . S
C25 O22 1.259 . S
C26 O23 1.252 . S
C26 O24 1.273 . S
O27 Mg14 2.010 . S
O27 C19 1.249 . S
Mg28 O29 2.028 . S
Mg28 O35 1.986 . S
Mg28 O37 2.114 . S
Mg28 O38 2.251 . S
Mg28 O41 2.010 . S
O29 Mg28 2.028 . S
O29 C32 1.250 . S
O30 Mg31 2.028 . S
O30 C32 1.248 . S
Mg31 O30 2.028 . S
Mg31 O36 2.032 . S
Mg31 O38 2.079 . S
C32 O29 1.250 . S
C32 O30 1.248 . S
C33 O34 1.264 . S
C33 O41 1.249 . S
O34 C33 1.264 . S
O35 Mg28 1.986 . S
O35 C39 1.246 . S
O36 Mg31 2.032 . S
O36 C39 1.259 . S
O37 Mg28 2.114 . S
O37 C40 1.252 . S
O38 Mg28 2.251 . S
O38 Mg31 2.079 . S
O38 C40 1.273 . S
C39 O35 1.246 . S
C39 O36 1.259 . S
C40 O37 1.252 . S
C40 O38 1.273 . S
O41 Mg28 2.010 . S
O41 C33 1.249 . S
Mg42 O43 2.028 . S
Mg42 O49 1.986 . S
Mg42 O51 2.114 . S
Mg42 O52 2.251 . S
Mg42 O55 2.010 . S
O43 Mg42 2.028 . S
O43 C46 1.250 . S
O44 Mg45 2.028 . S
O44 C46 1.248 . S
Mg45 O44 2.028 . S
Mg45 O50 2.032 . S
Mg45 O52 2.079 . S
C46 O43 1.250 . S
C46 O44 1.248 . S
C47 O48 1.264 . S
C47 O55 1.249 . S
O48 C47 1.264 . S
O49 Mg42 1.986 . S
O49 C53 1.246 . S
O50 Mg45 2.032 . S
O50 C53 1.259 . S
O51 Mg42 2.114 . S
O51 C54 1.252 . S
O52 Mg42 2.251 . S
O52 Mg45 2.079 . S
O52 C54 1.273 . S
C53 O49 1.246 . S
C53 O50 1.259 . S
C54 O51 1.252 . S
C54 O52 1.273 . S
O55 Mg42 2.010 . S
O55 C47 1.249 . S
Mg56 O57 2.028 . S
Mg56 O63 1.986 . S
Mg56 O65 2.114 . S
Mg56 O66 2.251 . S
Mg56 O69 2.010 . S
O57 Mg56 2.028 . S
O57 C60 1.250 . S
O58 Mg59 2.028 . S
O58 C60 1.248 . S
Mg59 O58 2.028 . S
Mg59 O64 2.032 . S
Mg59 O66 2.079 . S
C60 O57 1.250 . S
C60 O58 1.248 . S
C61 O62 1.264 . S
C61 O69 1.249 . S
O62 C61 1.264 . S
O63 Mg56 1.986 . S
O63 C67 1.246 . S
O64 Mg59 2.032 . S
O64 C67 1.259 . S
O65 Mg56 2.114 . S
O65 C68 1.252 . S
O66 Mg56 2.251 . S
O66 Mg59 2.079 . S
O66 C68 1.273 . S
C67 O63 1.246 . S
C67 O64 1.259 . S
C68 O65 1.252 . S
C68 O66 1.273 . S
O69 Mg56 2.010 . S
O69 C61 1.249 . S
Mg70 O71 2.028 . S
Mg70 O77 1.986 . S
Mg70 O79 2.114 . S
Mg70 O80 2.251 . S
Mg70 O83 2.010 . S
O71 Mg70 2.028 . S
O71 C74 1.250 . S
O72 Mg73 2.028 . S
O72 C74 1.248 . S
Mg73 O72 2.028 . S
Mg73 O78 2.032 . S
Mg73 O80 2.079 . S
C74 O71 1.250 . S
C74 O72 1.248 . S
C75 O76 1.264 . S
C75 O83 1.249 . S
O76 C75 1.264 . S
O77 Mg70 1.986 . S
O77 C81 1.246 . S
O78 Mg73 2.032 . S
O78 C81 1.259 . S
O79 Mg70 2.114 . S
O79 C82 1.252 . S
O80 Mg70 2.251 . S
O80 Mg73 2.079 . S
O80 C82 1.273 . S
C81 O77 1.246 . S
C81 O78 1.259 . S
C82 O79 1.252 . S
C82 O80 1.273 . S
O83 Mg70 2.010 . S
O83 C75 1.249 . S
Mg84 O85 2.028 . S
Mg84 O91 1.986 . S
Mg84 O93 2.114 . S
Mg84 O94 2.251 . S
Mg84 O97 2.010 . S
O85 Mg84 2.028 . S
O85 C88 1.250 . S
O86 Mg87 2.028 . S
O86 C88 1.248 . S
Mg87 O86 2.028 . S
Mg87 O92 2.032 . S
Mg87 O94 2.079 . S
C88 O85 1.250 . S
C88 O86 1.248 . S
C89 O90 1.264 . S
C89 O97 1.249 . S
O90 C89 1.264 . S
O91 Mg84 1.986 . S
O91 C95 1.246 . S
O92 Mg87 2.032 . S
O92 C95 1.259 . S
O93 Mg84 2.114 . S
O93 C96 1.252 . S
O94 Mg84 2.251 . S
O94 Mg87 2.079 . S
O94 C96 1.273 . S
C95 O91 1.246 . S
C95 O92 1.259 . S
C96 O93 1.252 . S
C96 O94 1.273 . S
O97 Mg84 2.010 . S
O97 C89 1.249 . S
Mg98 O99 2.028 . S
Mg98 O105 1.986 . S
Mg98 O107 2.114 1_554 S
Mg98 O108 2.251 1_554 S
Mg98 O111 2.010 . S
O99 Mg98 2.028 . S
O99 C102 1.250 . S
O100 Mg101 2.028 . S
O100 C102 1.248 . S
Mg101 O100 2.028 . S
Mg101 O106 2.032 . S
Mg101 O108 2.079 1_554 S
C102 O99 1.250 . S
C102 O100 1.248 . S
C103 O104 1.264 . S
C103 O111 1.249 . S
O104 C103 1.264 . S
O105 Mg98 1.986 . S
O105 C109 1.246 . S
O106 Mg101 2.032 . S
O106 C109 1.259 . S
O107 Mg98 2.114 1_556 S
O107 C110 1.252 . S
O108 Mg98 2.251 1_556 S
O108 Mg101 2.079 1_556 S
O108 C110 1.273 . S
C109 O105 1.246 . S
C109 O106 1.259 . S
C110 O107 1.252 . S
C110 O108 1.273 . S
O111 Mg98 2.010 . S
O111 C103 1.249 . S
Mg112 O113 2.028 . S
Mg112 O119 1.986 . S
Mg112 O121 2.114 . S
Mg112 O122 2.251 . S
Mg112 O125 2.010 . S
O113 Mg112 2.028 . S
O113 C116 1.250 . S
O114 Mg115 2.028 . S
O114 C116 1.248 . S
Mg115 O114 2.028 . S
Mg115 O120 2.032 . S
Mg115 O122 2.079 . S
C116 O113 1.250 . S
C116 O114 1.248 . S
C117 O118 1.264 . S
C117 O125 1.249 . S
O118 C117 1.264 . S
O119 Mg112 1.986 . S
O119 C123 1.246 . S
O120 Mg115 2.032 . S
O120 C123 1.259 . S
O121 Mg112 2.114 . S
O121 C124 1.252 . S
O122 Mg112 2.251 . S
O122 Mg115 2.079 . S
O122 C124 1.273 . S
C123 O119 1.246 . S
C123 O120 1.259 . S
C124 O121 1.252 . S
C124 O122 1.273 . S
O125 Mg112 2.010 . S
O125 C117 1.249 . S
Mg126 O127 2.028 . S
Mg126 O133 1.986 . S
Mg126 O135 2.114 . S
Mg126 O136 2.251 . S
Mg126 O139 2.010 . S
O127 Mg126 2.028 . S
O127 C130 1.250 . S
O128 Mg129 2.028 . S
O128 C130 1.248 . S
Mg129 O128 2.028 . S
Mg129 O134 2.032 . S
Mg129 O136 2.079 . S
C130 O127 1.250 . S
C130 O128 1.248 . S
C131 O132 1.264 . S
C131 O139 1.249 . S
O132 C131 1.264 . S
O133 Mg126 1.986 . S
O133 C137 1.246 . S
O134 Mg129 2.032 . S
O134 C137 1.259 . S
O135 Mg126 2.114 . S
O135 C138 1.252 . S
O136 Mg126 2.251 . S
O136 Mg129 2.079 . S
O136 C138 1.273 . S
C137 O133 1.246 . S
C137 O134 1.259 . S
C138 O135 1.252 . S
C138 O136 1.273 . S
O139 Mg126 2.010 . S
O139 C131 1.249 . S
Mg140 O141 2.028 . S
Mg140 O147 1.986 . S
Mg140 O149 2.114 . S
Mg140 O150 2.251 . S
Mg140 O153 2.010 . S
O141 Mg140 2.028 . S
O141 C144 1.250 . S
O142 Mg143 2.028 . S
O142 C144 1.248 . S
Mg143 O142 2.028 . S
Mg143 O148 2.032 . S
Mg143 O150 2.079 . S
C144 O141 1.250 . S
C144 O142 1.248 . S
C145 O146 1.264 . S
C145 O153 1.249 . S
O146 C145 1.264 . S
O147 Mg140 1.986 . S
O147 C151 1.246 . S
O148 Mg143 2.032 . S
O148 C151 1.259 . S
O149 Mg140 2.114 . S
O149 C152 1.252 . S
O150 Mg140 2.251 . S
O150 Mg143 2.079 . S
O150 C152 1.273 . S
C151 O147 1.246 . S
C151 O148 1.259 . S
C152 O149 1.252 . S
C152 O150 1.273 . S
O153 Mg140 2.010 . S
O153 C145 1.249 . S
Mg154 O155 2.028 . S
Mg154 O161 1.986 . S
Mg154 O163 2.114 . S
Mg154 O164 2.251 . S
Mg154 O167 2.010 . S
O155 Mg154 2.028 . S
O155 C158 1.250 . S
O156 Mg157 2.028 . S
O156 C158 1.248 . S
Mg157 O156 2.028 . S
Mg157 O162 2.032 . S
Mg157 O164 2.079 . S
C158 O155 1.250 . S
C158 O156 1.248 . S
C159 O160 1.264 . S
C159 O167 1.249 . S
O160 C159 1.264 . S
O161 Mg154 1.986 . S
O161 C165 1.246 . S
O162 Mg157 2.032 . S
O162 C165 1.259 . S
O163 Mg154 2.114 . S
O163 C166 1.252 . S
O164 Mg154 2.251 . S
O164 Mg157 2.079 . S
O164 C166 1.273 . S
C165 O161 1.246 . S
C165 O162 1.259 . S
C166 O163 1.252 . S
C166 O164 1.273 . S
O167 Mg154 2.010 . S
O167 C159 1.249 . S
H168 C176 0.950 . S
H169 C181 0.950 . S
H170 C178 0.950 . S
H171 C180 0.950 . S
H172 C182 0.950 . S
H173 C184 0.950 . S
H174 C186 0.950 . S
H175 C187 0.950 . S
C176 H168 0.950 . S
C176 C177 1.386 . S
C176 C178 1.391 . S
C177 C176 1.386 . S
C177 C181 1.393 . S
C178 H170 0.950 . S
C178 C176 1.391 . S
C178 C179 1.400 . S
C179 C178 1.400 . S
C179 C180 1.398 . S
C179 C185 1.491 . S
C180 H171 0.950 . S
C180 C179 1.398 . S
C180 C181 1.391 . S
C181 H169 0.950 . S
C181 C177 1.393 . S
C181 C180 1.391 . S
C182 H172 0.950 . S
C182 C183 1.386 . S
C182 C184 1.391 . S
C183 C182 1.386 . S
C183 C187 1.393 . S
C184 H173 0.950 . S
C184 C182 1.391 . S
C184 C185 1.400 . S
C185 C179 1.491 . S
C185 C184 1.400 . S
C185 C186 1.398 . S
C186 H174 0.950 . S
C186 C185 1.398 . S
C186 C187 1.391 . S
C187 H175 0.950 . S
C187 C183 1.393 . S
C187 C186 1.391 . S
H188 C196 0.950 . S
H189 C201 0.950 . S
H190 C198 0.950 . S
H191 C200 0.950 . S
H192 C202 0.950 . S
H193 C204 0.950 . S
H194 C206 0.950 . S
H195 C207 0.950 . S
C196 H188 0.950 . S
C196 C197 1.386 . S
C196 C198 1.391 . S
C197 C196 1.386 . S
C197 C201 1.393 . S
C198 H190 0.950 . S
C198 C196 1.391 . S
C198 C199 1.400 . S
C199 C198 1.400 . S
C199 C200 1.398 . S
C199 C205 1.491 . S
C200 H191 0.950 . S
C200 C199 1.398 . S
C200 C201 1.391 . S
C201 H189 0.950 . S
C201 C197 1.393 . S
C201 C200 1.391 . S
C202 H192 0.950 . S
C202 C203 1.386 . S
C202 C204 1.391 . S
C203 C202 1.386 . S
C203 C207 1.393 . S
C204 H193 0.950 . S
C204 C202 1.391 . S
C204 C205 1.400 . S
C205 C199 1.491 . S
C205 C204 1.400 . S
C205 C206 1.398 . S
C206 H194 0.950 . S
C206 C205 1.398 . S
C206 C207 1.391 . S
C207 H195 0.950 . S
C207 C203 1.393 . S
C207 C206 1.391 . S
H208 C216 0.950 . S
H209 C221 0.950 . S
H210 C218 0.950 . S
H211 C220 0.950 . S
H212 C222 0.950 . S
H213 C224 0.950 . S
H214 C226 0.950 . S
H215 C227 0.950 . S
C216 H208 0.950 . S
C216 C217 1.386 . S
C216 C218 1.391 . S
C217 C216 1.386 . S
C217 C221 1.393 . S
C218 H210 0.950 . S
C218 C216 1.391 . S
C218 C219 1.400 . S
C219 C218 1.400 . S
C219 C220 1.398 . S
C219 C225 1.491 . S
C220 H211 0.950 . S
C220 C219 1.398 . S
C220 C221 1.391 . S
C221 H209 0.950 . S
C221 C217 1.393 . S
C221 C220 1.391 . S
C222 H212 0.950 . S
C222 C223 1.386 . S
C222 C224 1.391 . S
C223 C222 1.386 . S
C223 C227 1.393 . S
C224 H213 0.950 . S
C224 C222 1.391 . S
C224 C225 1.400 . S
C225 C219 1.491 . S
C225 C224 1.400 . S
C225 C226 1.398 . S
C226 H214 0.950 . S
C226 C225 1.398 . S
C226 C227 1.391 . S
C227 H215 0.950 . S
C227 C223 1.393 . S
C227 C226 1.391 . S
H228 C236 0.950 . S
H229 C241 0.950 . S
H230 C238 0.950 . S
H231 C240 0.950 . S
H232 C242 0.950 . S
H233 C244 0.950 . S
H234 C246 0.950 . S
H235 C247 0.950 . S
C236 H228 0.950 . S
C236 C237 1.386 . S
C236 C238 1.391 . S
C237 C236 1.386 . S
C237 C241 1.393 . S
C238 H230 0.950 . S
C238 C236 1.391 . S
C238 C239 1.400 . S
C239 C238 1.400 . S
C239 C240 1.398 . S
C239 C245 1.491 . S
C240 H231 0.950 . S
C240 C239 1.398 . S
C240 C241 1.391 . S
C241 H229 0.950 . S
C241 C237 1.393 . S
C241 C240 1.391 . S
C242 H232 0.950 . S
C242 C243 1.386 . S
C242 C244 1.391 . S
C243 C242 1.386 . S
C243 C247 1.393 . S
C244 H233 0.950 . S
C244 C242 1.391 . S
C244 C245 1.400 . S
C245 C239 1.491 . S
C245 C244 1.400 . S
C245 C246 1.398 . S
C246 H234 0.950 . S
C246 C245 1.398 . S
C246 C247 1.391 . S
C247 H235 0.950 . S
C247 C243 1.393 . S
C247 C246 1.391 . S
H248 C256 0.950 . S
H249 C261 0.950 . S
H250 C258 0.950 1_554 S
H251 C260 0.950 . S
H252 C262 0.950 . S
H253 C264 0.950 . S
H254 C266 0.950 . S
H255 C267 0.950 . S
C256 H248 0.950 . S
C256 C257 1.386 . S
C256 C258 1.391 . S
C257 C256 1.386 . S
C257 C261 1.393 . S
C258 H250 0.950 1_556 S
C258 C256 1.391 . S
C258 C259 1.400 . S
C259 C258 1.400 . S
C259 C260 1.398 . S
C259 C265 1.491 1_556 S
C260 H251 0.950 . S
C260 C259 1.398 . S
C260 C261 1.391 . S
C261 H249 0.950 . S
C261 C257 1.393 . S
C261 C260 1.391 . S
C262 H252 0.950 . S
C262 C263 1.386 . S
C262 C264 1.391 1_554 S
C263 C262 1.386 . S
C263 C267 1.393 . S
C264 H253 0.950 . S
C264 C262 1.391 1_556 S
C264 C265 1.400 1_556 S
C265 C259 1.491 1_554 S
C265 C264 1.400 1_554 S
C265 C266 1.398 . S
C266 H254 0.950 . S
C266 C265 1.398 . S
C266 C267 1.391 . S
C267 H255 0.950 . S
C267 C263 1.393 . S
C267 C266 1.391 . S
H268 C276 0.950 . S
H269 C281 0.950 . S
H270 C278 0.950 . S
H271 C280 0.950 . S
H272 C282 0.950 . S
H273 C284 0.950 . S
H274 C286 0.950 . S
H275 C287 0.950 . S
C276 H268 0.950 . S
C276 C277 1.386 . S
C276 C278 1.391 . S
C277 C276 1.386 . S
C277 C281 1.393 . S
C278 H270 0.950 . S
C278 C276 1.391 . S
C278 C279 1.400 . S
C279 C278 1.400 . S
C279 C280 1.398 . S
C279 C285 1.491 . S
C280 H271 0.950 . S
C280 C279 1.398 . S
C280 C281 1.391 . S
C281 H269 0.950 . S
C281 C277 1.393 . S
C281 C280 1.391 . S
C282 H272 0.950 . S
C282 C283 1.386 1_554 S
C282 C284 1.391 . S
C283 C282 1.386 1_556 S
C283 C287 1.393 . S
C284 H273 0.950 . S
C284 C282 1.391 . S
C284 C285 1.400 . S
C285 C279 1.491 . S
C285 C284 1.400 . S
C285 C286 1.398 . S
C286 H274 0.950 . S
C286 C285 1.398 . S
C286 C287 1.391 1_554 S
C287 H275 0.950 . S
C287 C283 1.393 . S
C287 C286 1.391 1_556 S
H288 C296 0.950 . S
H289 C301 0.957 . S
H290 C298 0.950 . S
H291 C300 0.950 . S
H292 C302 0.950 . S
H293 C304 0.950 . S
H294 C306 0.950 . S
H295 C307 0.950 . S
C296 H288 0.950 . S
C296 C297 1.386 . S
C296 C298 1.391 . S
C297 C296 1.386 . S
C297 C301 1.393 . S
C298 H290 0.950 . S
C298 C296 1.391 . S
C298 C299 1.400 . S
C299 C298 1.400 . S
C299 C300 1.398 . S
C299 C305 1.491 . S
C300 H291 0.950 . S
C300 C299 1.398 . S
C300 C301 1.391 . S
C301 H289 0.957 . S
C301 C297 1.393 . S
C301 C300 1.391 . S
C302 H292 0.950 . S
C302 C303 1.386 . S
C302 C304 1.391 . S
C303 C302 1.386 . S
C303 C307 1.393 . S
C304 H293 0.950 . S
C304 C302 1.391 . S
C304 C305 1.400 . S
C305 C299 1.491 . S
C305 C304 1.400 . S
C305 C306 1.398 . S
C306 H294 0.950 . S
C306 C305 1.398 . S
C306 C307 1.391 . S
C307 H295 0.950 . S
C307 C303 1.393 . S
C307 C306 1.391 . S
H308 C316 0.950 . S
H309 C321 0.950 . S
H310 C318 0.950 . S
H311 C320 0.950 . S
H312 C322 0.950 . S
H313 C324 0.950 . S
H314 C326 0.950 . S
H315 C327 0.950 . S
C316 H308 0.950 . S
C316 C317 1.386 . S
C316 C318 1.391 . S
C317 C316 1.386 . S
C317 C321 1.393 . S
C318 H310 0.950 . S
C318 C316 1.391 . S
C318 C319 1.400 . S
C319 C318 1.400 . S
C319 C320 1.398 . S
C319 C325 1.491 . S
C320 H311 0.950 . S
C320 C319 1.398 . S
C320 C321 1.391 . S
C321 H309 0.950 . S
C321 C317 1.393 . S
C321 C320 1.391 . S
C322 H312 0.950 . S
C322 C323 1.386 . S
C322 C324 1.391 . S
C323 C322 1.386 . S
C323 C327 1.393 . S
C324 H313 0.950 . S
C324 C322 1.391 . S
C324 C325 1.400 . S
C325 C319 1.491 . S
C325 C324 1.400 . S
C325 C326 1.398 . S
C326 H314 0.950 . S
C326 C325 1.398 . S
C326 C327 1.391 . S
C327 H315 0.950 . S
C327 C323 1.393 . S
C327 C326 1.391 . S
H328 C336 0.950 . S
H329 C341 0.950 . S
H330 C338 0.950 . S
H331 C340 0.950 . S
H332 C342 0.950 . S
H333 C344 0.950 . S
H334 C346 0.950 . S
H335 C347 0.950 . S
C336 H328 0.950 . S
C336 C337 1.386 . S
C336 C338 1.391 . S
C337 C336 1.386 . S
C337 C341 1.393 . S
C338 H330 0.950 . S
C338 C336 1.391 . S
C338 C339 1.400 . S
C339 C338 1.400 . S
C339 C340 1.398 . S
C339 C345 1.491 . S
C340 H331 0.950 . S
C340 C339 1.398 . S
C340 C341 1.391 . S
C341 H329 0.950 . S
C341 C337 1.393 . S
C341 C340 1.391 . S
C342 H332 0.950 . S
C342 C343 1.386 . S
C342 C344 1.391 . S
C343 C342 1.386 . S
C343 C347 1.393 . S
C344 H333 0.950 . S
C344 C342 1.391 . S
C344 C345 1.400 . S
C345 C339 1.491 . S
C345 C344 1.400 . S
C345 C346 1.398 . S
C346 H334 0.950 . S
C346 C345 1.398 . S
C346 C347 1.391 . S
C347 H335 0.950 . S
C347 C343 1.393 . S
C347 C346 1.391 . S
H348 C356 0.950 . S
H349 C361 0.950 . S
H350 C358 0.950 . S
H351 C360 0.950 . S
H352 C362 0.950 . S
H353 C364 0.950 . S
H354 C366 0.950 . S
H355 C367 0.950 . S
C356 H348 0.950 . S
C356 C357 1.386 . S
C356 C358 1.391 . S
C357 C356 1.386 . S
C357 C361 1.393 . S
C358 H350 0.950 . S
C358 C356 1.391 . S
C358 C359 1.400 . S
C359 C358 1.400 . S
C359 C360 1.398 . S
C359 C365 1.491 . S
C360 H351 0.950 . S
C360 C359 1.398 . S
C360 C361 1.391 . S
C361 H349 0.950 . S
C361 C357 1.393 . S
C361 C360 1.391 . S
C362 H352 0.950 . S
C362 C363 1.386 . S
C362 C364 1.391 . S
C363 C362 1.386 . S
C363 C367 1.393 . S
C364 H353 0.950 . S
C364 C362 1.391 . S
C364 C365 1.400 . S
C365 C359 1.491 . S
C365 C364 1.400 . S
C365 C366 1.398 . S
C366 H354 0.950 . S
C366 C365 1.398 . S
C366 C367 1.391 . S
C367 H355 0.950 . S
C367 C363 1.393 . S
C367 C366 1.391 . S
H368 C376 0.950 . S
H369 C381 0.950 . S
H370 C378 0.950 . S
H371 C380 0.950 . S
H372 C382 0.950 . S
H373 C384 0.950 . S
H374 C386 0.950 . S
H375 C387 0.950 . S
C376 H368 0.950 . S
C376 C377 1.386 . S
C376 C378 1.391 . S
C377 C376 1.386 . S
C377 C381 1.393 . S
C378 H370 0.950 . S
C378 C376 1.391 . S
C378 C379 1.400 . S
C379 C378 1.400 . S
C379 C380 1.398 . S
C379 C385 1.491 . S
C380 H371 0.950 . S
C380 C379 1.398 . S
C380 C381 1.391 . S
C381 H369 0.950 . S
C381 C377 1.393 . S
C381 C380 1.391 . S
C382 H372 0.950 . S
C382 C383 1.386 . S
C382 C384 1.391 . S
C383 C382 1.386 . S
C383 C387 1.393 . S
C384 H373 0.950 . S
C384 C382 1.391 . S
C384 C385 1.400 . S
C385 C379 1.491 . S
C385 C384 1.400 . S
C385 C386 1.398 . S
C386 H374 0.950 . S
C386 C385 1.398 . S
C386 C387 1.391 . S
C387 H375 0.950 . S
C387 C383 1.393 . S
C387 C386 1.391 . S
H388 C396 0.950 . S
H389 C401 0.950 . S
H390 C398 0.950 . S
H391 C400 0.950 . S
H392 C402 0.950 . S
H393 C404 0.950 . S
H394 C406 0.950 . S
H395 C407 0.950 . S
C396 H388 0.950 . S
C396 C397 1.386 . S
C396 C398 1.391 . S
C397 C396 1.386 . S
C397 C401 1.393 . S
C398 H390 0.950 . S
C398 C396 1.391 . S
C398 C399 1.400 . S
C399 C398 1.400 . S
C399 C400 1.398 . S
C399 C405 1.491 . S
C400 H391 0.950 . S
C400 C399 1.398 . S
C400 C401 1.391 . S
C401 H389 0.950 . S
C401 C397 1.393 . S
C401 C400 1.391 . S
C402 H392 0.950 . S
C402 C403 1.386 . S
C402 C404 1.391 . S
C403 C402 1.386 . S
C403 C407 1.393 1_554 S
C404 H393 0.950 . S
C404 C402 1.391 . S
C404 C405 1.400 1_554 S
C405 C399 1.491 . S
C405 C404 1.400 1_556 S
C405 C406 1.398 . S
C406 H394 0.950 . S
C406 C405 1.398 . S
C406 C407 1.391 . S
C407 H395 0.950 . S
C407 C403 1.393 1_556 S
C407 C406 1.391 . S
H408 C416 0.950 . S
H409 C421 0.950 . S
H410 C418 0.950 . S
H411 C420 0.950 . S
H412 C422 0.950 . S
H413 C424 0.950 . S
H414 C426 0.950 . S
H415 C427 0.950 . S
C416 H408 0.950 . S
C416 C417 1.386 . S
C416 C418 1.391 . S
C417 C416 1.386 . S
C417 C421 1.393 . S
C418 H410 0.950 . S
C418 C416 1.391 . S
C418 C419 1.400 . S
C419 C418 1.400 . S
C419 C420 1.398 . S
C419 C425 1.491 . S
C420 H411 0.950 . S
C420 C419 1.398 . S
C420 C421 1.391 . S
C421 H409 0.950 . S
C421 C417 1.393 . S
C421 C420 1.391 . S
C422 H412 0.950 . S
C422 C423 1.386 . S
C422 C424 1.391 . S
C423 C422 1.386 . S
C423 C427 1.393 . S
C424 H413 0.950 . S
C424 C422 1.391 . S
C424 C425 1.400 . S
C425 C419 1.491 . S
C425 C424 1.400 . S
C425 C426 1.398 . S
C426 H414 0.950 . S
C426 C425 1.398 . S
C426 C427 1.391 . S
C427 H415 0.950 . S
C427 C423 1.393 . S
C427 C426 1.391 . S
H428 C436 0.950 . S
H429 C441 0.950 . S
H430 C438 0.950 1_556 S
H431 C440 0.950 . S
H432 C442 0.950 . S
H433 C444 0.950 1_554 S
H434 C446 0.950 . S
H435 C447 0.950 . S
C436 H428 0.950 . S
C436 C437 1.386 . S
C436 C438 1.391 . S
C437 C436 1.386 . S
C437 C441 1.393 . S
C438 H430 0.950 1_554 S
C438 C436 1.391 . S
C438 C439 1.400 . S
C439 C438 1.400 . S
C439 C440 1.398 . S
C439 C445 1.491 1_554 S
C440 H431 0.950 . S
C440 C439 1.398 . S
C440 C441 1.391 . S
C441 H429 0.950 . S
C441 C437 1.393 . S
C441 C440 1.391 . S
C442 H432 0.950 . S
C442 C443 1.386 . S
C442 C444 1.391 . S
C443 C442 1.386 . S
C443 C447 1.393 . S
C444 H433 0.950 1_556 S
C444 C442 1.391 . S
C444 C445 1.400 . S
C445 C439 1.491 1_556 S
C445 C444 1.400 . S
C445 C446 1.398 . S
C446 H434 0.950 . S
C446 C445 1.398 . S
C446 C447 1.391 . S
C447 H435 0.950 . S
C447 C443 1.393 . S
C447 C446 1.391 . S
H448 C456 0.950 . S
H449 C461 0.950 . S
H450 C458 0.950 . S
H451 C460 0.950 . S
H452 C462 0.950 . S
H453 C464 0.950 . S
H454 C466 0.950 . S
H455 C467 0.950 . S
C456 H448 0.950 . S
C456 C457 1.386 . S
C456 C458 1.391 . S
C457 C456 1.386 . S
C457 C461 1.393 . S
C458 H450 0.950 . S
C458 C456 1.391 . S
C458 C459 1.400 . S
C459 C458 1.400 . S
C459 C460 1.398 . S
C459 C465 1.491 . S
C460 H451 0.950 . S
C460 C459 1.398 . S
C460 C461 1.391 . S
C461 H449 0.950 . S
C461 C457 1.393 . S
C461 C460 1.391 . S
C462 H452 0.950 . S
C462 C463 1.386 . S
C462 C464 1.391 1_556 S
C463 C462 1.386 . S
C463 C467 1.393 1_556 S
C464 H453 0.950 . S
C464 C462 1.391 1_554 S
C464 C465 1.400 . S
C465 C459 1.491 . S
C465 C464 1.400 . S
C465 C466 1.398 . S
C466 H454 0.950 . S
C466 C465 1.398 . S
C466 C467 1.391 . S
C467 H455 0.950 . S
C467 C463 1.393 1_554 S
C467 C466 1.391 . S
H468 C476 0.950 . S
H469 C481 0.950 . S
H470 C478 0.950 . S
H471 C480 0.950 . S
H472 C482 0.950 . S
H473 C484 0.950 . S
H474 C486 0.950 . S
H475 C487 0.950 . S
C476 H468 0.950 . S
C476 C477 1.386 . S
C476 C478 1.391 . S
C477 C476 1.386 . S
C477 C481 1.393 . S
C478 H470 0.950 . S
C478 C476 1.391 . S
C478 C479 1.400 . S
C479 C478 1.400 . S
C479 C480 1.398 . S
C479 C485 1.491 . S
C480 H471 0.950 . S
C480 C479 1.398 . S
C480 C481 1.391 . S
C481 H469 0.950 . S
C481 C477 1.393 . S
C481 C480 1.391 . S
C482 H472 0.950 . S
C482 C483 1.386 . S
C482 C484 1.391 . S
C483 C482 1.386 . S
C483 C487 1.393 . S
C484 H473 0.950 . S
C484 C482 1.391 . S
C484 C485 1.400 . S
C485 C479 1.491 . S
C485 C484 1.400 . S
C485 C486 1.398 . S
C486 H474 0.950 . S
C486 C485 1.398 . S
C486 C487 1.391 . S
C487 H475 0.950 . S
C487 C483 1.393 . S
C487 C486 1.391 . S
H488 C496 0.950 . S
H489 C501 0.950 . S
H490 C498 0.950 . S
H491 C500 0.950 . S
H492 C502 0.950 . S
H493 C504 0.950 . S
H494 C506 0.950 . S
H495 C507 0.950 . S
C496 H488 0.950 . S
C496 C497 1.386 . S
C496 C498 1.391 . S
C497 C496 1.386 . S
C497 C501 1.393 . S
C498 H490 0.950 . S
C498 C496 1.391 . S
C498 C499 1.400 . S
C499 C498 1.400 . S
C499 C500 1.398 . S
C499 C505 1.491 . S
C500 H491 0.950 . S
C500 C499 1.398 . S
C500 C501 1.391 . S
C501 H489 0.950 . S
C501 C497 1.393 . S
C501 C500 1.391 . S
C502 H492 0.950 . S
C502 C503 1.386 . S
C502 C504 1.391 . S
C503 C502 1.386 . S
C503 C507 1.393 . S
C504 H493 0.950 . S
C504 C502 1.391 . S
C504 C505 1.400 . S
C505 C499 1.491 . S
C505 C504 1.400 . S
C505 C506 1.398 . S
C506 H494 0.950 . S
C506 C505 1.398 . S
C506 C507 1.391 . S
C507 H495 0.950 . S
C507 C503 1.393 . S
C507 C506 1.391 . S
H508 C516 0.950 . S
H509 C521 0.950 . S
H510 C518 0.950 . S
H511 C520 0.950 . S
H512 C522 0.950 . S
H513 C524 0.950 . S
H514 C526 0.950 . S
H515 C527 0.950 . S
C516 H508 0.950 . S
C516 C517 1.386 . S
C516 C518 1.391 . S
C517 C516 1.386 . S
C517 C521 1.393 . S
C518 H510 0.950 . S
C518 C516 1.391 . S
C518 C519 1.400 . S
C519 C518 1.400 . S
C519 C520 1.398 . S
C519 C525 1.491 . S
C520 H511 0.950 . S
C520 C519 1.398 . S
C520 C521 1.391 . S
C521 H509 0.950 . S
C521 C517 1.393 . S
C521 C520 1.391 . S
C522 H512 0.950 . S
C522 C523 1.386 . S
C522 C524 1.391 . S
C523 C522 1.386 . S
C523 C527 1.393 . S
C524 H513 0.950 . S
C524 C522 1.391 . S
C524 C525 1.400 . S
C525 C519 1.491 . S
C525 C524 1.400 . S
C525 C526 1.398 . S
C526 H514 0.950 . S
C526 C525 1.398 . S
C526 C527 1.391 . S
C527 H515 0.950 . S
C527 C523 1.393 . S
C527 C526 1.391 . S
H528 C536 0.950 . S
H529 C541 0.950 . S
H530 C538 0.950 . S
H531 C540 0.976 . S
H532 C542 0.950 . S
H533 C544 0.950 . S
H534 C546 0.950 1_455 S
H535 C547 0.950 . S
C536 H528 0.950 . S
C536 C537 1.386 . S
C536 C538 1.391 . S
C537 C536 1.386 . S
C537 C541 1.393 1_556 S
C538 H530 0.950 . S
C538 C536 1.391 . S
C538 C539 1.400 . S
C539 C538 1.400 . S
C539 C540 1.398 . S
C539 C545 1.491 1_455 S
C540 H531 0.976 . S
C540 C539 1.398 . S
C540 C541 1.391 1_556 S
C541 H529 0.950 . S
C541 C537 1.393 1_554 S
C541 C540 1.391 1_554 S
C542 H532 0.950 . S
C542 C543 1.386 . S
C542 C544 1.391 . S
C543 C542 1.386 . S
C543 C547 1.393 . S
C544 H533 0.950 . S
C544 C542 1.391 . S
C544 C545 1.400 . S
C545 C539 1.491 1_655 S
C545 C544 1.400 . S
C545 C546 1.398 . S
C546 H534 0.950 1_655 S
C546 C545 1.398 . S
C546 C547 1.391 . S
C547 H535 0.950 . S
C547 C543 1.393 . S
C547 C546 1.391 . S
H548 C556 0.950 . S
H549 C561 0.950 . S
H550 C558 0.950 . S
H551 C560 0.950 1_545 S
H552 C562 0.950 . S
H553 C564 0.950 . S
H554 C566 0.950 1_565 S
H555 C567 0.950 . S
C556 H548 0.950 . S
C556 C557 1.386 . S
C556 C558 1.391 1_556 S
C557 C556 1.386 . S
C557 C561 1.393 . S
C558 H550 0.950 . S
C558 C556 1.391 1_554 S
C558 C559 1.400 . S
C559 C558 1.400 . S
C559 C560 1.398 1_554 S
C559 C565 1.491 1_565 S
C560 H551 0.950 1_565 S
C560 C559 1.398 1_556 S
C560 C561 1.391 . S
C561 H549 0.950 . S
C561 C557 1.393 . S
C561 C560 1.391 . S
C562 H552 0.950 . S
C562 C563 1.386 . S
C562 C564 1.391 . S
C563 C562 1.386 . S
C563 C567 1.393 . S
C564 H553 0.950 . S
C564 C562 1.391 . S
C564 C565 1.400 . S
C565 C559 1.491 1_545 S
C565 C564 1.400 . S
C565 C566 1.398 . S
C566 H554 0.950 1_545 S
C566 C565 1.398 . S
C566 C567 1.391 . S
C567 H555 0.950 . S
C567 C563 1.393 . S
C567 C566 1.391 . S
H568 C576 0.950 . S
H569 C581 0.950 . S
H570 C578 0.950 . S
H571 C580 0.950 . S
H572 C582 0.950 . S
H573 C584 0.950 . S
H574 C586 0.950 . S
H575 C587 0.950 . S
C576 H568 0.950 . S
C576 C577 1.386 . S
C576 C578 1.391 . S
C577 C576 1.386 . S
C577 C581 1.393 . S
C578 H570 0.950 . S
C578 C576 1.391 . S
C578 C579 1.400 . S
C579 C578 1.400 . S
C579 C580 1.398 . S
C579 C585 1.491 . S
C580 H571 0.950 . S
C580 C579 1.398 . S
C580 C581 1.391 . S
C581 H569 0.950 . S
C581 C577 1.393 . S
C581 C580 1.391 . S
C582 H572 0.950 . S
C582 C583 1.386 . S
C582 C584 1.391 . S
C583 C582 1.386 . S
C583 C587 1.393 . S
C584 H573 0.950 . S
C584 C582 1.391 . S
C584 C585 1.400 . S
C585 C579 1.491 . S
C585 C584 1.400 . S
C585 C586 1.398 . S
C586 H574 0.950 . S
C586 C585 1.398 . S
C586 C587 1.391 . S
C587 H575 0.950 . S
C587 C583 1.393 . S
C587 C586 1.391 . S
H588 C596 0.950 . S
H589 C601 0.950 . S
H590 C598 0.950 1_655 S
H591 C600 0.950 . S
H592 C602 0.950 . S
H593 C604 0.963 . S
H594 C606 0.950 . S
H595 C607 0.950 . S
C596 H588 0.950 . S
C596 C597 1.386 . S
C596 C598 1.391 . S
C597 C596 1.386 . S
C597 C601 1.393 . S
C598 H590 0.950 1_455 S
C598 C596 1.391 . S
C598 C599 1.400 . S
C599 C598 1.400 . S
C599 C600 1.398 . S
C599 C605 1.491 1_455 S
C600 H591 0.950 . S
C600 C599 1.398 . S
C600 C601 1.391 . S
C601 H589 0.950 . S
C601 C597 1.393 . S
C601 C600 1.391 . S
C602 H592 0.950 . S
C602 C603 1.386 . S
C602 C604 1.391 . S
C603 C602 1.386 . S
C603 C607 1.393 . S
C604 H593 0.963 . S
C604 C602 1.391 . S
C604 C605 1.400 . S
C605 C599 1.491 1_655 S
C605 C604 1.400 . S
C605 C606 1.398 . S
C606 H594 0.950 . S
C606 C605 1.398 . S
C606 C607 1.391 . S
C607 H595 0.950 . S
C607 C603 1.393 . S
C607 C606 1.391 . S
H608 C616 0.950 . S
H609 C621 0.950 . S
H610 C618 0.950 . S
H611 C620 0.950 . S
H612 C622 0.950 . S
H613 C624 0.950 . S
H614 C626 0.950 . S
H615 C627 0.950 . S
C616 H608 0.950 . S
C616 C617 1.386 . S
C616 C618 1.391 . S
C617 C616 1.386 . S
C617 C621 1.393 . S
C618 H610 0.950 . S
C618 C616 1.391 . S
C618 C619 1.400 . S
C619 C618 1.400 . S
C619 C620 1.398 . S
C619 C625 1.491 1_545 S
C620 H611 0.950 . S
C620 C619 1.398 . S
C620 C621 1.391 . S
C621 H609 0.950 . S
C621 C617 1.393 . S
C621 C620 1.391 . S
C622 H612 0.950 . S
C622 C623 1.386 . S
C622 C624 1.391 . S
C623 C622 1.386 . S
C623 C627 1.393 . S
C624 H613 0.950 . S
C624 C622 1.391 . S
C624 C625 1.400 . S
C625 C619 1.491 1_565 S
C625 C624 1.400 . S
C625 C626 1.398 . S
C626 H614 0.950 . S
C626 C625 1.398 . S
C626 C627 1.391 . S
C627 H615 0.950 . S
C627 C623 1.393 . S
C627 C626 1.391 . S
H628 C636 0.950 . S
H629 C641 0.950 . S
H630 C638 0.950 . S
H631 C640 0.950 . S
H632 C642 0.950 . S
H633 C644 0.950 . S
H634 C646 0.950 . S
H635 C647 0.950 . S
C636 H628 0.950 . S
C636 C637 1.386 . S
C636 C638 1.391 . S
C637 C636 1.386 . S
C637 C641 1.393 . S
C638 H630 0.950 . S
C638 C636 1.391 . S
C638 C639 1.400 . S
C639 C638 1.400 . S
C639 C640 1.398 . S
C639 C645 1.491 . S
C640 H631 0.950 . S
C640 C639 1.398 . S
C640 C641 1.391 . S
C641 H629 0.950 . S
C641 C637 1.393 . S
C641 C640 1.391 . S
C642 H632 0.950 . S
C642 C643 1.386 . S
C642 C644 1.391 . S
C643 C642 1.386 . S
C643 C647 1.393 . S
C644 H633 0.950 . S
C644 C642 1.391 . S
C644 C645 1.400 . S
C645 C639 1.491 . S
C645 C644 1.400 . S
C645 C646 1.398 . S
C646 H634 0.950 . S
C646 C645 1.398 . S
C646 C647 1.391 . S
C647 H635 0.950 . S
C647 C643 1.393 . S
C647 C646 1.391 . S
C177 C12 1.232 . S
C183 C152 1.243 . S
C197 C166 1.187 . S
C203 C19 1.052 . S
C217 C40 1.186 . S
C223 C89 1.059 . S
C237 C54 1.245 . S
C243 C110 1.236 . S
C257 C61 1.077 . S
C263 C124 1.171 . S
C277 C131 1.065 . S
C283 C82 1.175 . S
C297 C4 1.553 . S
C303 C116 1.558 . S
C317 C25 1.509 . S
C323 C137 1.504 . S
C337 C144 1.550 . S
C343 C32 1.541 . S
C357 C46 1.547 . S
C363 C158 1.548 . S
C377 C67 1.496 . S
C383 C95 1.500 . S
C397 C74 1.557 . S
C403 C102 1.552 . S
C417 C151 0.853 . S
C423 C11 0.849 . S
C437 C18 0.927 . S
C443 C165 0.951 . S
C457 C39 0.955 . S
C463 C88 0.920 . S
C477 C53 0.849 . S
C483 C109 0.850 . S
C497 C123 0.950 . S
C503 C60 0.924 . S
C517 C81 0.953 . S
C523 C130 0.920 . S
C537 C5 1.289 1_556 S
C543 C159 1.352 . S
C557 C96 1.445 . S
C563 C26 1.438 . S
C577 C103 1.303 . S
C583 C33 1.348 . S
C597 C117 1.349 . S
C603 C47 1.284 . S
C617 C138 1.425 . S
C623 C68 1.424 . S
C637 C145 1.294 . S
C643 C75 1.325 . S
