# Generated by pormake.
# Topology qtz-a, (4)-cn, num edge types: 1
# Building blocks:
#     Node 0, Type 0, BuildingBlock: UXUYUI_clean_sbu_0, # of connection points: 4
#     Node 1, Type 0, BuildingBlock: UXUYUI_clean_sbu_0, # of connection points: 4
#     Node 2, Type 0, BuildingBlock: UXUYUI_clean_sbu_0, # of connection points: 4
#     Node 3, Type 0, BuildingBlock: UXUYUI_clean_sbu_0, # of connection points: 4
#     Node 4, Type 0, BuildingBlock: UXUYUI_clean_sbu_0, # of connection points: 4
#     Node 5, Type 0, BuildingBlock: UXUYUI_clean_sbu_0, # of connection points: 4
#     Node 6, Type 0, BuildingBlock: UXUYUI_clean_sbu_0, # of connection points: 4
#     Node 7, Type 0, BuildingBlock: UXUYUI_clean_sbu_0, # of connection points: 4
#     Node 8, Type 0, BuildingBlock: UXUYUI_clean_sbu_0, # of connection points: 4
#     Node 9, Type 0, BuildingBlock: UXUYUI_clean_sbu_0, # of connection points: 4
#     Node 10, Type 0, BuildingBlock: UXUYUI_clean_sbu_0, # of connection points: 4
#     Node 11, Type 0, BuildingBlock: UXUYUI_clean_sbu_0, # of connection points: 4
#     Edge 12, Type (0, 0), BuildingBlock: XUDNAN_clean_linker_2, # of connection points: 2
#     Edge 13, Type (0, 0), BuildingBlock: XUDNAN_clean_linker_2, # of connection points: 2
#     Edge 14, Type (0, 0), BuildingBlock: XUDNAN_clean_linker_2, # of connection points: 2
#     Edge 15, Type (0, 0), BuildingBlock: XUDNAN_clean_linker_2, # of connection points: 2
#     Edge 16, Type (0, 0), BuildingBlock: XUDNAN_clean_linker_2, # of connection points: 2
#     Edge 17, Type (0, 0), BuildingBlock: XUDNAN_clean_linker_2, # of connection points: 2
#     Edge 18, Type (0, 0), BuildingBlock: XUDNAN_clean_linker_2, # of connection points: 2
#     Edge 19, Type (0, 0), BuildingBlock: XUDNAN_clean_linker_2, # of connection points: 2
#     Edge 20, Type (0, 0), BuildingBlock: XUDNAN_clean_linker_2, # of connection points: 2
#     Edge 21, Type (0, 0), BuildingBlock: XUDNAN_clean_linker_2, # of connection points: 2
#     Edge 22, Type (0, 0), BuildingBlock: XUDNAN_clean_linker_2, # of connection points: 2
#     Edge 23, Type (0, 0), BuildingBlock: XUDNAN_clean_linker_2, # of connection points: 2
#     Edge 24, Type (0, 0), BuildingBlock: XUDNAN_clean_linker_2, # of connection points: 2
#     Edge 25, Type (0, 0), BuildingBlock: XUDNAN_clean_linker_2, # of connection points: 2
#     Edge 26, Type (0, 0), BuildingBlock: XUDNAN_clean_linker_2, # of connection points: 2
#     Edge 27, Type (0, 0), BuildingBlock: XUDNAN_clean_linker_2, # of connection points: 2
#     Edge 28, Type (0, 0), BuildingBlock: XUDNAN_clean_linker_2, # of connection points: 2
#     Edge 29, Type (0, 0), BuildingBlock: XUDNAN_clean_linker_2, # of connection points: 2
#     Edge 30, Type (0, 0), BuildingBlock: XUDNAN_clean_linker_2, # of connection points: 2
#     Edge 31, Type (0, 0), BuildingBlock: XUDNAN_clean_linker_2, # of connection points: 2
#     Edge 32, Type (0, 0), BuildingBlock: XUDNAN_clean_linker_2, # of connection points: 2
#     Edge 33, Type (0, 0), BuildingBlock: XUDNAN_clean_linker_2, # of connection points: 2
#     Edge 34, Type (0, 0), BuildingBlock: XUDNAN_clean_linker_2, # of connection points: 2
#     Edge 35, Type (0, 0), BuildingBlock: XUDNAN_clean_linker_2, # of connection points: 2
# Relax obj value: 0.910
# Max RMSD: 0.301
# Mean RMSD: 0.301
data_MOF--net-qtz-a--node1-UXUYUI_clean_sbu_0--edge1-XUDNAN_clean_linker_2
_symmetry_space_group_name_H-M    P1
_symmetry_Int_Tables_number       1
_symmetry_cell_setting            triclinic
loop_
_symmetry_equiv_pos_as_xyz
'x, y, z'
_cell_length_a     74.25867
_cell_length_b     74.265018
_cell_length_c     42.346731
_cell_angle_alpha  90.010892
_cell_angle_beta   89.98257
_cell_angle_gamma 119.98492
loop_
_atom_site_label
_atom_site_type_symbol
_atom_site_fract_x
_atom_site_fract_y
_atom_site_fract_z
_atom_type_partial_charge
Li0 Li 0.42491 0.06719 0.17916 0.0
Li1 Li 0.44558 0.10214 0.20557 0.0
Li2 Li 0.46324 0.08657 0.17519 0.0
Li3 Li 0.44663 0.0722 0.2246 0.0
C4 C 0.43778 0.10019 0.13271 0.0
N5 N 0.42555 0.11057 0.07718 0.0
C6 C 0.42885 0.1129 0.13334 0.0
C7 C 0.44074 0.09302 0.10372 0.0
C8 C 0.42272 0.11791 0.10505 0.0
C9 C 0.43437 0.09835 0.07594 0.0
C10 C 0.41306 0.06678 0.25019 0.0
C11 C 0.41017 0.06842 0.30667 0.0
N12 N 0.39717 0.04748 0.30737 0.0
C13 C 0.39963 0.0453 0.2514 0.0
C14 C 0.41836 0.07849 0.27795 0.0
C15 C 0.39178 0.03582 0.28058 0.0
C16 C 0.39407 0.02918 0.15278 0.0
N17 N 0.40026 0.04969 0.15589 0.0
C18 C 0.37622 0.04709 0.11626 0.0
C19 C 0.39082 0.05843 0.13955 0.0
C20 C 0.37092 0.02642 0.11056 0.0
C21 C 0.37926 0.01713 0.13008 0.0
H22 H 0.40161 0.02253 0.16645 0.0
H23 H 0.39537 0.0745 0.14339 0.0
C24 C 0.46546 0.14444 0.20256 0.0
N25 N 0.44726 0.12787 0.21202 0.0
C26 C 0.46734 0.164 0.20028 0.0
C27 C 0.43187 0.14915 0.21869 0.0
C28 C 0.43069 0.1298 0.22072 0.0
C29 C 0.45024 0.16645 0.20763 0.0
H30 H 0.47814 0.1422 0.19513 0.0
H31 H 0.4163 0.11617 0.22759 0.0
C32 C 0.44817 0.04478 0.16489 0.0
N33 N 0.45614 0.02108 0.12294 0.0
C34 C 0.45786 0.03384 0.17529 0.0
C35 C 0.44243 0.04354 0.13321 0.0
C36 C 0.46179 0.02199 0.1537 0.0
C37 C 0.44661 0.0315 0.11236 0.0
C38 C 0.48925 0.10328 0.22735 0.0
C39 C 0.49322 0.08677 0.22651 0.0
C40 C 0.50446 0.12262 0.23878 0.0
C41 C 0.51236 0.08987 0.2372 0.0
C42 C 0.52344 0.12513 0.24919 0.0
N43 N 0.52695 0.10883 0.24822 0.0
C44 C 0.49085 0.10995 0.12694 0.0
C45 C 0.49723 0.08396 0.14744 0.0
C46 C 0.50652 0.11558 0.10449 0.0
N47 N 0.48615 0.09404 0.1473 0.0
C48 C 0.51336 0.08941 0.12584 0.0
C49 C 0.51787 0.10516 0.10374 0.0
H50 H 0.48225 0.11814 0.12789 0.0
H51 H 0.49352 0.07159 0.16407 0.0
C52 C 0.44337 0.03845 0.25766 0.0
N53 N 0.44952 0.05888 0.26107 0.0
C54 C 0.45048 0.02888 0.27848 0.0
C55 C 0.46807 0.0609 0.30823 0.0
C56 C 0.46078 0.06995 0.2865 0.0
C57 C 0.4639 0.04042 0.30336 0.0
H58 H 0.43435 0.03006 0.23721 0.0
H59 H 0.46546 0.08623 0.28855 0.0
O60 O 0.4438 0.09506 0.16029 0.0
O61 O 0.42136 0.07623 0.22201 0.0
O62 O 0.4444 0.05667 0.18566 0.0
O63 O 0.47052 0.10058 0.21746 0.0
H64 H 0.42641 0.11862 0.15544 0.0
H65 H 0.44809 0.08364 0.10254 0.0
H66 H 0.41566 0.12761 0.10526 0.0
H67 H 0.43652 0.09284 0.05339 0.0
H68 H 0.41419 0.07725 0.3284 0.0
H69 H 0.39551 0.03604 0.23006 0.0
H70 H 0.42883 0.09513 0.27733 0.0
H71 H 0.38145 0.01919 0.28194 0.0
H72 H 0.36987 0.05465 0.10187 0.0
H73 H 0.37557 0.00123 0.12626 0.0
H74 H 0.48164 0.17677 0.19107 0.0
H75 H 0.41838 0.15044 0.22472 0.0
H76 H 0.46252 0.03465 0.19968 0.0
H77 H 0.4347 0.05164 0.12483 0.0
H78 H 0.46937 0.01354 0.16141 0.0
H79 H 0.44224 0.03043 0.08777 0.0
H80 H 0.48161 0.07169 0.21792 0.0
H81 H 0.5016 0.13555 0.23964 0.0
H82 H 0.51558 0.07719 0.23679 0.0
H83 H 0.53535 0.14002 0.2581 0.0
H84 H 0.50978 0.12796 0.08793 0.0
H85 H 0.52183 0.08103 0.12582 0.0
H86 H 0.44692 0.01318 0.27323 0.0
H87 H 0.47799 0.07029 0.32737 0.0
Li88 Li 0.37613 0.44405 0.56419 0.0
Li89 Li 0.38061 0.462 0.51431 0.0
Li90 Li 0.3458 0.44315 0.53961 0.0
Li91 Li 0.36133 0.42454 0.51495 0.0
C92 C 0.38567 0.48704 0.56714 0.0
N93 N 0.41399 0.52562 0.59118 0.0
C94 C 0.40651 0.49262 0.57082 0.0
C95 C 0.3792 0.50107 0.57589 0.0
C96 C 0.4206 0.51217 0.58298 0.0
C97 C 0.39377 0.52052 0.58791 0.0
C98 C 0.41051 0.45179 0.51279 0.0
C99 C 0.43278 0.46184 0.46689 0.0
N100 N 0.44976 0.47034 0.48602 0.0
C101 C 0.42823 0.46049 0.53196 0.0
C102 C 0.41285 0.45237 0.47997 0.0
C103 C 0.44791 0.46984 0.518 0.0
C104 C 0.40087 0.4351 0.60343 0.0
N105 N 0.38992 0.44525 0.60271 0.0
C106 C 0.40874 0.46609 0.6469 0.0
C107 C 0.3924 0.45931 0.62535 0.0
C108 C 0.42201 0.45775 0.64551 0.0
C109 C 0.41711 0.44109 0.62498 0.0
H110 H 0.39854 0.424 0.58508 0.0
H111 H 0.38321 0.46689 0.62459 0.0
C112 C 0.38793 0.48848 0.46327 0.0
N113 N 0.39765 0.4857 0.48844 0.0
C114 C 0.39923 0.50392 0.44106 0.0
C115 C 0.43021 0.51445 0.47213 0.0
C116 C 0.41834 0.49859 0.49355 0.0
C117 C 0.42069 0.51691 0.44517 0.0
H118 H 0.37141 0.47843 0.46004 0.0
H119 H 0.42587 0.49624 0.51359 0.0
C120 C 0.33753 0.41362 0.58601 0.0
N121 N 0.31739 0.40263 0.64363 0.0
C122 C 0.32666 0.39278 0.59527 0.0
C123 C 0.33814 0.42888 0.60606 0.0
C124 C 0.31658 0.38753 0.62449 0.0
C125 C 0.32787 0.42301 0.63509 0.0
C126 C 0.34309 0.43453 0.46778 0.0
C127 C 0.32138 0.4242 0.46677 0.0
C128 C 0.3542 0.43533 0.44062 0.0
C129 C 0.31113 0.4145 0.43881 0.0
C130 C 0.34339 0.42537 0.41316 0.0
N131 N 0.32225 0.41523 0.41283 0.0
C132 C 0.32349 0.46349 0.53931 0.0
C133 C 0.30238 0.42756 0.55066 0.0
C134 C 0.30621 0.46613 0.53951 0.0
N135 N 0.32129 0.44449 0.54481 0.0
C136 C 0.28454 0.42942 0.55059 0.0
C137 C 0.28641 0.44891 0.54479 0.0
H138 H 0.33866 0.47647 0.5337 0.0
H139 H 0.30107 0.41254 0.5543 0.0
C140 C 0.37169 0.40024 0.47668 0.0
N141 N 0.35531 0.40108 0.48924 0.0
C142 C 0.36895 0.38813 0.45003 0.0
C143 C 0.33208 0.3759 0.45215 0.0
C144 C 0.33557 0.38828 0.47889 0.0
C145 C 0.34912 0.37671 0.43643 0.0
H146 H 0.38712 0.41004 0.48596 0.0
H147 H 0.32277 0.38906 0.48964 0.0
O148 O 0.37154 0.46783 0.55562 0.0
O149 O 0.39104 0.44267 0.52602 0.0
O150 O 0.34744 0.41888 0.55742 0.0
O151 O 0.3534 0.44386 0.49515 0.0
H152 H 0.41169 0.48185 0.5647 0.0
H153 H 0.36309 0.49698 0.57366 0.0
H154 H 0.43677 0.51661 0.586 0.0
H155 H 0.38897 0.53153 0.59474 0.0
H156 H 0.43475 0.46249 0.44153 0.0
H157 H 0.42693 0.46024 0.55736 0.0
H158 H 0.39942 0.44569 0.46472 0.0
H159 H 0.46171 0.47674 0.5326 0.0
H160 H 0.4121 0.47897 0.66248 0.0
H161 H 0.42715 0.43445 0.62306 0.0
H162 H 0.39133 0.50556 0.42072 0.0
H163 H 0.44679 0.52413 0.47594 0.0
H164 H 0.32602 0.38078 0.57999 0.0
H165 H 0.34637 0.44508 0.59932 0.0
H166 H 0.3081 0.37145 0.63196 0.0
H167 H 0.32821 0.43466 0.65082 0.0
H168 H 0.31249 0.42346 0.48742 0.0
H169 H 0.37097 0.44351 0.44072 0.0
H170 H 0.29433 0.40632 0.4378 0.0
H171 H 0.3518 0.42569 0.3921 0.0
H172 H 0.30821 0.4813 0.5343 0.0
H173 H 0.26948 0.4158 0.55463 0.0
H174 H 0.3824 0.38871 0.43902 0.0
H175 H 0.31654 0.36721 0.44245 0.0
Li176 Li 0.92626 0.37637 0.83891 0.0
Li177 Li 0.9388 0.37718 0.89032 0.0
Li178 Li 0.95026 0.36272 0.8499 0.0
Li179 Li 0.91327 0.34438 0.87063 0.0
C180 C 0.96907 0.4034 0.82875 0.0
N181 N 0.9956 0.42627 0.78018 0.0
C182 C 0.98627 0.42299 0.83475 0.0
C183 C 0.96532 0.39557 0.79796 0.0
C184 C -0.0005 0.43429 0.80989 0.0
C185 C 0.97892 0.4073 0.77376 0.0
C186 C 0.90519 0.38409 0.88502 0.0
C187 C 0.88147 0.39507 0.90356 0.0
N188 N 0.89636 0.41524 0.89888 0.0
C189 C 0.92025 0.40495 0.88034 0.0
C190 C 0.88564 0.37911 0.8967 0.0
C191 C 0.91549 0.42045 0.88752 0.0
C192 C 0.89931 0.37776 0.79284 0.0
N193 N 0.91798 0.38946 0.80727 0.0
C194 C 0.92624 0.41777 0.77216 0.0
C195 C 0.93087 0.40955 0.79851 0.0
C196 C 0.90792 0.40533 0.75504 0.0
C197 C 0.89402 0.38532 0.76636 0.0
H198 H 0.88865 0.3624 0.8015 0.0
H199 H 0.94511 0.41909 0.81128 0.0
C200 C 0.96818 0.41011 0.92656 0.0
N201 N 0.94811 0.39446 0.92691 0.0
C202 C 0.97505 0.42629 0.94832 0.0
C203 C 0.94087 0.40908 0.9721 0.0
C204 C 0.93465 0.39319 0.94975 0.0
C205 C 0.96109 0.42637 0.97073 0.0
H206 H 0.97852 0.41064 0.90816 0.0
H207 H 0.91874 0.38052 0.94945 0.0
C208 C 0.91319 0.33953 0.7996 0.0
N209 N 0.89209 0.31814 0.74585 0.0
C210 C 0.89144 0.32839 0.79909 0.0
C211 C 0.92415 0.3397 0.77259 0.0
C212 C 0.88107 0.31769 0.77178 0.0
C213 C 0.91322 0.32885 0.74569 0.0
C214 C 0.94746 0.35318 0.92189 0.0
C215 C 0.96897 0.3637 0.92644 0.0
C216 C 0.93414 0.34612 0.94794 0.0
C217 C 0.97684 0.36715 0.95718 0.0
C218 C 0.94262 0.34987 0.9783 0.0
N219 N 0.96361 0.36023 0.98225 0.0
C220 C 0.98985 0.37309 0.82455 0.0
C221 C 0.96242 0.33862 0.81602 0.0
C222 C 0.00136 0.37113 0.8001 0.0
N223 N 0.97017 0.35744 0.83029 0.0
C224 C 0.97348 0.33589 0.79164 0.0
C225 C 0.99257 0.35278 0.78211 0.0
H226 H 0.99581 0.38777 0.8367 0.0
H227 H 0.94671 0.32647 0.82116 0.0
C228 C 0.8711 0.31464 0.88192 0.0
N229 N 0.89021 0.31751 0.87481 0.0
C230 C 0.85333 0.29586 0.87429 0.0
C231 C 0.87546 0.2831 0.85447 0.0
C232 C 0.89276 0.30201 0.86266 0.0
C233 C 0.85547 0.28025 0.85895 0.0
H234 H 0.86962 0.32748 0.89081 0.0
H235 H 0.90819 0.30503 0.85666 0.0
O236 O 0.95619 0.39204 0.85305 0.0
O237 O 0.90949 0.36855 0.87861 0.0
O238 O 0.92365 0.34957 0.82661 0.0
O239 O 0.93949 0.35019 0.89207 0.0
H240 H 0.9894 0.42941 0.85836 0.0
H241 H 0.95197 0.38068 0.7928 0.0
H242 H 0.01288 0.44945 0.81424 0.0
H243 H 0.97618 0.40134 0.74987 0.0
H244 H 0.8664 0.39142 0.91265 0.0
H245 H 0.93551 0.4092 0.87151 0.0
H246 H 0.87381 0.36306 0.90053 0.0
H247 H 0.92702 0.43664 0.88411 0.0
H248 H 0.93735 0.43337 0.76451 0.0
H249 H 0.87936 0.37547 0.75457 0.0
H250 H 0.99068 0.43934 0.94591 0.0
H251 H 0.92967 0.40836 0.98917 0.0
H252 H 0.88257 0.32827 0.81936 0.0
H253 H 0.94094 0.34807 0.7722 0.0
H254 H 0.86426 0.30907 0.77119 0.0
H255 H 0.92156 0.32891 0.7247 0.0
H256 H 0.97945 0.36934 0.90643 0.0
H257 H 0.91744 0.33803 0.94471 0.0
H258 H 0.99346 0.37538 0.96111 0.0
H259 H 0.93252 0.34461 0.99873 0.0
H260 H 0.01618 0.38441 0.7936 0.0
H261 H 0.96616 0.32154 0.77826 0.0
H262 H 0.83816 0.29428 0.87786 0.0
H263 H 0.87768 0.27133 0.84293 0.0
Li264 Li 0.53388 0.90959 0.16724 0.0
Li265 Li 0.54921 0.92952 0.2155 0.0
Li266 Li 0.57125 0.93256 0.17021 0.0
Li267 Li 0.55512 0.90166 0.20298 0.0
C268 C 0.55915 0.9593 0.15966 0.0
N269 N 0.58192 0.99854 0.13372 0.0
C270 C 0.56957 0.97667 0.17925 0.0
C271 C 0.56026 0.96189 0.12687 0.0
C272 C 0.58098 0.99639 0.16567 0.0
C273 C 0.57189 0.98186 0.11422 0.0
C274 C 0.51356 0.89681 0.23309 0.0
C275 C 0.50255 0.89365 0.28737 0.0
N276 N 0.48487 0.89325 0.2778 0.0
C277 C 0.49521 0.89619 0.22375 0.0
C278 C 0.51721 0.89536 0.26511 0.0
C279 C 0.48092 0.89444 0.24674 0.0
C280 C 0.49856 0.87797 0.13482 0.0
N281 N 0.51036 0.89877 0.14008 0.0
C282 C 0.49181 0.90588 0.10068 0.0
C283 C 0.50683 0.91264 0.12435 0.0
C284 C 0.48042 0.88465 0.09312 0.0
C285 C 0.48358 0.87053 0.11093 0.0
H286 H 0.50153 0.86727 0.14805 0.0
H287 H 0.51618 0.92904 0.12943 0.0
C288 C 0.55383 0.95136 0.27448 0.0
N289 N 0.54326 0.944 0.24689 0.0
C290 C 0.54804 0.96207 0.29571 0.0
C291 C 0.52056 0.95693 0.25976 0.0
C292 C 0.52706 0.94675 0.23917 0.0
C293 C 0.53109 0.96478 0.28841 0.0
H294 H 0.56681 0.94912 0.27984 0.0
H295 H 0.51924 0.94105 0.21679 0.0
C296 C 0.54747 0.88904 0.1325 0.0
N297 N 0.52877 0.85981 0.08506 0.0
C298 C 0.5419 0.86829 0.13773 0.0
C299 C 0.54346 0.89485 0.10303 0.0
C300 C 0.53251 0.85378 0.11347 0.0
C301 C 0.534 0.87986 0.07941 0.0
C302 C 0.58959 0.92733 0.23367 0.0
C303 C 0.60885 0.93177 0.22139 0.0
C304 C 0.58392 0.91917 0.26412 0.0
C305 C 0.62206 0.92771 0.23972 0.0
C306 C 0.59755 0.9153 0.28168 0.0
N307 N 0.61617 0.9196 0.26921 0.0
C308 C 0.61062 0.969 0.15568 0.0
C309 C 0.59418 0.94441 0.11479 0.0
C310 C 0.62609 0.98257 0.13476 0.0
N311 N 0.59485 0.95051 0.14514 0.0
C312 C 0.60884 0.95759 0.09301 0.0
C313 C 0.62504 0.97718 0.10259 0.0
H314 H 0.61084 0.97345 0.18007 0.0
H315 H 0.58173 0.92961 0.10709 0.0
C316 C 0.54188 0.86303 0.23198 0.0
N317 N 0.55823 0.87939 0.21765 0.0
C318 C 0.54171 0.84428 0.23565 0.0
C319 C 0.57582 0.86012 0.21168 0.0
C320 C 0.57524 0.87847 0.20819 0.0
C321 C 0.55852 0.84245 0.22432 0.0
H322 H 0.52833 0.86405 0.23845 0.0
H323 H 0.58768 0.89148 0.19586 0.0
O324 O 0.5485 0.9398 0.17246 0.0
O325 O 0.52797 0.89901 0.21102 0.0
O326 O 0.55673 0.90353 0.15603 0.0
O327 O 0.57641 0.9311 0.21603 0.0
H328 H 0.56908 0.97494 0.20465 0.0
H329 H 0.55257 0.94858 0.11135 0.0
H330 H 0.58919 0.00996 0.18054 0.0
H331 H 0.57304 0.98407 0.0889 0.0
H332 H 0.50524 0.89267 0.31225 0.0
H333 H 0.49214 0.8973 0.19907 0.0
H334 H 0.5313 0.89573 0.27269 0.0
H335 H 0.46672 0.8941 0.23989 0.0
H336 H 0.48987 0.91726 0.0874 0.0
H337 H 0.47493 0.85402 0.10593 0.0
H338 H 0.55666 0.96814 0.31746 0.0
H339 H 0.50777 0.95919 0.25287 0.0
H340 H 0.54469 0.86333 0.16023 0.0
H341 H 0.54699 0.91063 0.09868 0.0
H342 H 0.52814 0.83769 0.11727 0.0
H343 H 0.53062 0.88414 0.05667 0.0
H344 H 0.61346 0.9381 0.19785 0.0
H345 H 0.56911 0.91574 0.27398 0.0
H346 H 0.63696 0.93095 0.23047 0.0
H347 H 0.59332 0.90887 0.30522 0.0
H348 H 0.6384 0.99726 0.14363 0.0
H349 H 0.6067 0.95262 0.06863 0.0
H350 H 0.52792 0.83099 0.24511 0.0
H351 H 0.58919 0.85945 0.20295 0.0
Li352 Li 0.63747 0.57833 0.50151 0.0
Li353 Li 0.6488 0.55554 0.52299 0.0
Li354 Li 0.61767 0.5407 0.48982 0.0
Li355 Li 0.6177 0.55274 0.54569 0.0
C356 C 0.65517 0.57 0.45083 0.0
N357 N 0.67344 0.58935 0.39458 0.0
C358 C 0.67672 0.57961 0.44712 0.0
C359 C 0.64289 0.57008 0.42588 0.0
C360 C 0.68566 0.58934 0.4185 0.0
C361 C 0.65243 0.58001 0.39766 0.0
C362 C 0.66068 0.58577 0.56951 0.0
C363 C 0.67083 0.5855 0.62352 0.0
N364 N 0.68977 0.60232 0.61737 0.0
C365 C 0.68017 0.60316 0.56377 0.0
C366 C 0.65588 0.57694 0.59966 0.0
C367 C 0.6947 0.61126 0.58827 0.0
C368 C 0.63189 0.60765 0.46727 0.0
N369 N 0.64645 0.60431 0.48107 0.0
C370 C 0.6732 0.63064 0.44924 0.0
C371 C 0.66696 0.61626 0.4739 0.0
C372 C 0.65812 0.6325 0.43169 0.0
C373 C 0.63737 0.62163 0.44222 0.0
H374 H 0.61577 0.59821 0.47385 0.0
H375 H 0.67823 0.61322 0.48514 0.0
C376 C 0.67333 0.54036 0.50353 0.0
N377 N 0.67242 0.55199 0.52762 0.0
C378 C 0.6892 0.53561 0.50219 0.0
C379 C 0.70352 0.5554 0.55011 0.0
C380 C 0.68698 0.55937 0.55095 0.0
C381 C 0.70456 0.5433 0.52553 0.0
H382 H 0.66155 0.53464 0.48535 0.0
H383 H 0.68585 0.56822 0.57022 0.0
C384 C 0.58737 0.55231 0.49399 0.0
N385 N 0.54788 0.53869 0.47043 0.0
C386 C 0.5699 0.54053 0.51292 0.0
C387 C 0.5847 0.55709 0.463 0.0
C388 C 0.55009 0.53382 0.5006 0.0
C389 C 0.56463 0.55007 0.45155 0.0
C390 C 0.62767 0.51626 0.54068 0.0
C391 C 0.62624 0.50054 0.52087 0.0
C392 C 0.6361 0.51858 0.57091 0.0
C393 C 0.63362 0.4876 0.53148 0.0
C394 C 0.64332 0.50534 0.58064 0.0
N395 N 0.64196 0.49027 0.56087 0.0
C396 C 0.61652 0.51698 0.43876 0.0
C397 C 0.58314 0.51182 0.45071 0.0
C398 C 0.60879 0.50426 0.41223 0.0
N399 N 0.60381 0.52091 0.45696 0.0
C400 C 0.57483 0.49947 0.42384 0.0
C401 C 0.58777 0.49576 0.40378 0.0
H402 H 0.63281 0.52397 0.44466 0.0
H403 H 0.57309 0.51441 0.46607 0.0
C404 C 0.5949 0.56001 0.59355 0.0
N405 N 0.6002 0.54633 0.5815 0.0
C406 C 0.57889 0.55334 0.61584 0.0
C407 C 0.57504 0.51905 0.61391 0.0
C408 C 0.59102 0.52635 0.59176 0.0
C409 C 0.56829 0.53241 0.62556 0.0
H410 H 0.60233 0.57576 0.58464 0.0
H411 H 0.59524 0.51569 0.58134 0.0
O412 O 0.64619 0.5608 0.47893 0.0
O413 O 0.64615 0.57786 0.54602 0.0
O414 O 0.60692 0.55924 0.50582 0.0
O415 O 0.62109 0.52948 0.53038 0.0
H416 H 0.68644 0.57976 0.46627 0.0
H417 H 0.6262 0.56265 0.42835 0.0
H418 H 0.70233 0.59694 0.41533 0.0
H419 H 0.64315 0.58033 0.37823 0.0
H420 H 0.66736 0.57878 0.64694 0.0
H421 H 0.68407 0.61028 0.54065 0.0
H422 H 0.64077 0.56367 0.60463 0.0
H423 H 0.70988 0.62465 0.58414 0.0
H424 H 0.68944 0.63905 0.44258 0.0
H425 H 0.62509 0.6224 0.42962 0.0
H426 H 0.68967 0.52632 0.48282 0.0
H427 H 0.71519 0.56146 0.56854 0.0
H428 H 0.57153 0.53651 0.53683 0.0
H429 H 0.59793 0.56591 0.44777 0.0
H430 H 0.53646 0.5247 0.51502 0.0
H431 H 0.56237 0.55362 0.4276 0.0
H432 H 0.61967 0.49847 0.49746 0.0
H433 H 0.63729 0.53064 0.58654 0.0
H434 H 0.63275 0.47547 0.51632 0.0
H435 H 0.65005 0.50707 0.60387 0.0
H436 H 0.61932 0.50132 0.39842 0.0
H437 H 0.55856 0.49345 0.41856 0.0
H438 H 0.57427 0.56419 0.62432 0.0
H439 H 0.56712 0.50272 0.62007 0.0
Li440 Li 0.05534 0.63357 0.85031 0.0
Li441 Li 0.09003 0.65279 0.87375 0.0
Li442 Li 0.07865 0.61936 0.84401 0.0
Li443 Li 0.06529 0.61916 0.89703 0.0
C444 C 0.08182 0.65581 0.80144 0.0
N445 N 0.0793 0.67525 0.74722 0.0
C446 C 0.09136 0.67749 0.80015 0.0
C447 C 0.07134 0.6441 0.77482 0.0
C448 C 0.08986 0.68701 0.7726 0.0
C449 C 0.07011 0.65417 0.74774 0.0
C450 C 0.06397 0.65837 0.91672 0.0
C451 C 0.07368 0.67282 0.96908 0.0
N452 N 0.06637 0.68595 0.96258 0.0
C453 C 0.0563 0.6718 0.91069 0.0
C454 C 0.07252 0.65869 0.94625 0.0
C455 C 0.05776 0.68571 0.93413 0.0
C456 C 0.0179 0.61954 0.8172 0.0
N457 N 0.03491 0.63684 0.82822 0.0
C458 C 0.02939 0.65831 0.79217 0.0
C459 C 0.03991 0.65611 0.81788 0.0
C460 C 0.0134 0.64046 0.77762 0.0
C461 C 0.00673 0.62103 0.79189 0.0
H462 H 0.01402 0.60444 0.82631 0.0
H463 H 0.0534 0.66963 0.8274 0.0
C464 C 0.13185 0.68196 0.87088 0.0
N465 N 0.11311 0.67991 0.87828 0.0
C466 C 0.14882 0.70154 0.8645 0.0
C467 C 0.12716 0.71663 0.87519 0.0
C468 C 0.11063 0.69676 0.88158 0.0
C469 C 0.14631 0.71906 0.86533 0.0
H470 H 0.13319 0.66824 0.86758 0.0
H471 H 0.09546 0.69471 0.88633 0.0
C472 C 0.03989 0.58554 0.84365 0.0
N473 N 0.02209 0.54727 0.81388 0.0
C474 C 0.0335 0.5674 0.86123 0.0
C475 C 0.03677 0.58409 0.81099 0.0
C476 C 0.02465 0.54823 0.84575 0.0
C477 C 0.02789 0.56465 0.79635 0.0
C478 C 0.10666 0.62816 0.9073 0.0
C479 C 0.11226 0.61278 0.90643 0.0
C480 C 0.11399 0.64279 0.93168 0.0
C481 C 0.12468 0.61196 0.93052 0.0
C482 C 0.12641 0.64147 0.9553 0.0
N483 N 0.13143 0.62619 0.95427 0.0
C484 C 0.09656 0.6145 0.78846 0.0
C485 C 0.08321 0.58555 0.82304 0.0
C486 C 0.10115 0.60376 0.7658 0.0
N487 N 0.08722 0.60508 0.81601 0.0
C488 C 0.08756 0.57423 0.80104 0.0
C489 C 0.09625 0.5832 0.7717 0.0
H490 H 0.10016 0.63025 0.78385 0.0
H491 H 0.07609 0.57857 0.84538 0.0
C492 C 0.04163 0.60285 0.95392 0.0
N493 N 0.05546 0.60215 0.93364 0.0
C494 C 0.03115 0.58693 0.97603 0.0
C495 C 0.05007 0.57053 0.95669 0.0
C496 C 0.06035 0.58685 0.93546 0.0
C497 C 0.0346 0.56992 0.97663 0.0
H498 H 0.03778 0.61504 0.95167 0.0
H499 H 0.07076 0.58621 0.91828 0.0
O500 O 0.08277 0.64619 0.82854 0.0
O501 O 0.06256 0.64461 0.89406 0.0
O502 O 0.04897 0.60454 0.85836 0.0
O503 O 0.09458 0.62922 0.8838 0.0
H504 H 0.09971 0.6869 0.82021 0.0
H505 H 0.06425 0.62742 0.77495 0.0
H506 H 0.09705 0.70375 0.77145 0.0
H507 H 0.06185 0.64523 0.72715 0.0
H508 H 0.08031 0.67328 0.99201 0.0
H509 H 0.04942 0.67157 0.88806 0.0
H510 H 0.07797 0.648 0.95163 0.0
H511 H 0.05203 0.69631 0.92971 0.0
H512 H 0.03507 0.67361 0.78209 0.0
H513 H 0.99402 0.60692 0.78206 0.0
H514 H 0.16325 0.70272 0.85662 0.0
H515 H 0.12466 0.72979 0.87618 0.0
H516 H 0.03519 0.56801 0.88655 0.0
H517 H 0.04112 0.59779 0.79706 0.0
H518 H 0.01976 0.53411 0.8591 0.0
H519 H 0.02557 0.56339 0.77105 0.0
H520 H 0.10693 0.60151 0.88746 0.0
H521 H 0.11035 0.65517 0.93219 0.0
H522 H 0.12899 0.60003 0.9303 0.0
H523 H 0.13215 0.65266 0.97438 0.0
H524 H 0.10828 0.61141 0.74376 0.0
H525 H 0.08348 0.55839 0.80651 0.0
H526 H 0.01965 0.58739 0.99118 0.0
H527 H 0.05304 0.5577 0.95531 0.0
Li528 Li 0.89939 0.55068 0.46947 0.0
Li529 Li 0.93489 0.57202 0.48523 0.0
Li530 Li 0.92508 0.54731 0.43884 0.0
Li531 Li 0.91705 0.53452 0.49504 0.0
C532 C 0.91456 0.58126 0.42356 0.0
N533 N 0.89883 0.59884 0.38245 0.0
C534 C 0.91284 0.59837 0.43302 0.0
C535 C 0.90849 0.57321 0.39311 0.0
C536 C 0.90479 0.607 0.41191 0.0
C537 C 0.90051 0.58229 0.3727 0.0
C538 C 0.91302 0.56598 0.53927 0.0
C539 C 0.92953 0.57893 0.58978 0.0
N540 N 0.91864 0.58904 0.59338 0.0
C541 C 0.90192 0.57644 0.54354 0.0
C542 C 0.92686 0.56714 0.56265 0.0
C543 C 0.90499 0.58802 0.57105 0.0
C544 C 0.86169 0.53673 0.49688 0.0
N545 N 0.87233 0.54775 0.47099 0.0
C546 C 0.84354 0.55161 0.45513 0.0
C547 C 0.86359 0.55497 0.44992 0.0
C548 C 0.83235 0.54028 0.48174 0.0
C549 C 0.84157 0.53266 0.50262 0.0
H550 H 0.86891 0.531 0.51312 0.0
H551 H 0.87196 0.56318 0.42907 0.0
C552 C 0.97323 0.59942 0.51275 0.0
N553 N 0.95479 0.59756 0.50405 0.0
C554 C 0.98467 0.61284 0.53721 0.0
C555 C 0.95925 0.62403 0.54042 0.0
C556 C 0.94847 0.61061 0.5155 0.0
C557 C 0.97677 0.62408 0.55303 0.0
H558 H 0.97807 0.58912 0.50283 0.0
H559 H 0.93378 0.60886 0.50799 0.0
C560 C 0.87894 0.51171 0.4498 0.0
N561 N 0.83722 0.48672 0.43627 0.0
C562 C 0.86578 0.49675 0.47156 0.0
C563 C 0.87098 0.51382 0.42103 0.0
C564 C 0.8447 0.4843 0.4643 0.0
C565 C 0.84981 0.50107 0.41467 0.0
C566 C 0.95644 0.54358 0.48423 0.0
C567 C 0.96107 0.5321 0.46287 0.0
C568 C 0.96366 0.54601 0.51531 0.0
C569 C 0.97272 0.52313 0.47301 0.0
C570 C 0.9752 0.53674 0.52457 0.0
N571 N 0.97946 0.52559 0.5034 0.0
C572 C 0.9525 0.55569 0.38762 0.0
C573 C 0.92401 0.52127 0.39091 0.0
C574 C 0.96243 0.54943 0.36582 0.0
N575 N 0.93406 0.54141 0.4005 0.0
C576 C 0.9334 0.51433 0.36936 0.0
C577 C 0.95337 0.52827 0.35775 0.0
H578 H 0.96027 0.57153 0.3962 0.0
H579 H 0.9096 0.51019 0.40215 0.0
C580 C 0.90437 0.51279 0.55207 0.0
N581 N 0.91328 0.51325 0.52383 0.0
C582 C 0.90145 0.49795 0.57468 0.0
C583 C 0.91603 0.48359 0.53823 0.0
C584 C 0.91869 0.49878 0.51627 0.0
C585 C 0.90751 0.48322 0.56804 0.0
H586 H 0.89937 0.52387 0.55703 0.0
H587 H 0.92515 0.49909 0.49328 0.0
O588 O 0.92279 0.57287 0.44362 0.0
O589 O 0.91043 0.55478 0.51225 0.0
O590 O 0.89947 0.52445 0.45686 0.0
O591 O 0.94504 0.55249 0.47475 0.0
H592 H 0.91759 0.60484 0.45644 0.0
H593 H 0.90994 0.56012 0.38532 0.0
H594 H 0.90327 0.62019 0.41894 0.0
H595 H 0.89568 0.57619 0.34911 0.0
H596 H 0.94031 0.58008 0.60794 0.0
H597 H 0.89128 0.57588 0.52561 0.0
H598 H 0.93553 0.55912 0.55982 0.0
H599 H 0.8966 0.59629 0.57457 0.0
H600 H 0.83673 0.55752 0.43838 0.0
H601 H 0.83341 0.52394 0.52347 0.0
H602 H 0.99851 0.61294 0.54554 0.0
H603 H 0.9526 0.63243 0.55178 0.0
H604 H 0.87173 0.49496 0.49396 0.0
H605 H 0.88099 0.52532 0.40396 0.0
H606 H 0.83429 0.47276 0.481 0.0
H607 H 0.84339 0.50263 0.3926 0.0
H608 H 0.95573 0.53004 0.43874 0.0
H609 H 0.96033 0.55488 0.53216 0.0
H610 H 0.97638 0.5142 0.45671 0.0
H611 H 0.98078 0.53842 0.54859 0.0
H612 H 0.97769 0.56075 0.35718 0.0
H613 H 0.92591 0.49785 0.36431 0.0
H614 H 0.89432 0.49788 0.59704 0.0
H615 H 0.92089 0.4725 0.53215 0.0
Li616 Li 0.3755 0.92147 0.78286 0.0
Li617 Li 0.371 0.90362 0.83332 0.0
Li618 Li 0.3402 0.89566 0.79862 0.0
Li619 Li 0.35789 0.92783 0.82923 0.0
C620 C 0.36846 0.88254 0.76513 0.0
N621 N 0.37732 0.86498 0.71419 0.0
C622 C 0.38525 0.87899 0.7664 0.0
C623 C 0.35591 0.87671 0.73822 0.0
C624 C 0.38956 0.87024 0.74033 0.0
C625 C 0.3607 0.86797 0.71265 0.0
C626 C 0.4053 0.94228 0.84193 0.0
C627 C 0.42346 0.9484 0.89158 0.0
N628 N 0.44193 0.95857 0.87605 0.0
C629 C 0.4245 0.95312 0.82658 0.0
C630 C 0.40482 0.94024 0.87478 0.0
C631 C 0.44282 0.96113 0.84418 0.0
C632 C 0.39354 0.94656 0.72764 0.0
N633 N 0.39496 0.93384 0.74932 0.0
C634 C 0.42875 0.94274 0.73063 0.0
C635 C 0.41181 0.93127 0.75045 0.0
C636 C 0.42832 0.9569 0.70899 0.0
C637 C 0.41 0.95807 0.70683 0.0
H638 H 0.38011 0.9486 0.72749 0.0
H639 H 0.41282 0.92157 0.76855 0.0
C640 C 0.37196 0.88263 0.88789 0.0
N641 N 0.38282 0.89247 0.86147 0.0
C642 C 0.38103 0.87643 0.91111 0.0
C643 C 0.41182 0.88938 0.87858 0.0
C644 C 0.40225 0.89562 0.85615 0.0
C645 C 0.4013 0.88007 0.90674 0.0
H646 H 0.35645 0.88006 0.89133 0.0
H647 H 0.41061 0.9037 0.83507 0.0
C648 C 0.33768 0.92515 0.76048 0.0
N649 N 0.31206 0.92597 0.71387 0.0
C650 C 0.32507 0.93377 0.76665 0.0
C651 C 0.33753 0.91728 0.73045 0.0
C652 C 0.31215 0.93395 0.74282 0.0
C653 C 0.3244 0.91775 0.70724 0.0
C654 C 0.3313 0.89832 0.87054 0.0
C655 C 0.30967 0.88858 0.86783 0.0
C656 C 0.3407 0.90762 0.89922 0.0
C657 C 0.2979 0.88871 0.89348 0.0
C658 C 0.32842 0.90748 0.92431 0.0
N659 N 0.30744 0.89813 0.92094 0.0
C660 C 0.31073 0.85431 0.78769 0.0
C661 C 0.29725 0.87718 0.78349 0.0
C662 C 0.29071 0.8371 0.78716 0.0
N663 N 0.31355 0.87383 0.78675 0.0
C664 C 0.27694 0.86042 0.78318 0.0
C665 C 0.27346 0.84008 0.78629 0.0
H666 H 0.32397 0.85213 0.79085 0.0
H667 H 0.29979 0.89279 0.78407 0.0
C668 C 0.36965 0.96172 0.87028 0.0
N669 N 0.35341 0.94669 0.85377 0.0
C670 C 0.36607 0.97192 0.89505 0.0
C671 C 0.32926 0.95205 0.88379 0.0
C672 C 0.33358 0.94238 0.85902 0.0
C673 C 0.34557 0.96644 0.90291 0.0
H674 H 0.38525 0.96481 0.86567 0.0
H675 H 0.32094 0.93022 0.84568 0.0
O676 O 0.36402 0.89111 0.79046 0.0
O677 O 0.38717 0.93415 0.82493 0.0
O678 O 0.35036 0.92479 0.78361 0.0
O679 O 0.34312 0.89869 0.84533 0.0
H680 H 0.39493 0.88307 0.78723 0.0
H681 H 0.34246 0.87869 0.73719 0.0
H682 H 0.40262 0.86759 0.7409 0.0
H683 H 0.35116 0.86347 0.69163 0.0
H684 H 0.42323 0.94665 0.91696 0.0
H685 H 0.42531 0.95569 0.80142 0.0
H686 H 0.39023 0.93223 0.88718 0.0
H687 H 0.45775 0.96947 0.83251 0.0
H688 H 0.44254 0.94153 0.73405 0.0
H689 H 0.40871 0.96847 0.69026 0.0
H690 H 0.37243 0.86915 0.93248 0.0
H691 H 0.42757 0.89262 0.87461 0.0
H692 H 0.32521 0.9402 0.78962 0.0
H693 H 0.34761 0.91112 0.72498 0.0
H694 H 0.30221 0.94045 0.74734 0.0
H695 H 0.32409 0.91166 0.68391 0.0
H696 H 0.30198 0.88098 0.84622 0.0
H697 H 0.3573 0.91505 0.90208 0.0
H698 H 0.28117 0.88132 0.89155 0.0
H699 H 0.33558 0.91486 0.94645 0.0
H700 H 0.28877 0.82169 0.78903 0.0
H701 H 0.26416 0.86352 0.783 0.0
H702 H 0.37909 0.98279 0.90935 0.0
H703 H 0.31326 0.94751 0.88901 0.0
Li704 Li 0.4542 0.37143 0.15017 0.0
Li705 Li 0.44163 0.37558 0.09834 0.0
Li706 Li 0.41651 0.35556 0.14376 0.0
Li707 Li 0.43577 0.34231 0.11586 0.0
C708 C 0.44634 0.40182 0.16081 0.0
N709 N 0.46454 0.43472 0.2026 0.0
C710 C 0.46074 0.42168 0.14999 0.0
C711 C 0.4411 0.39869 0.19284 0.0
C712 C 0.46979 0.43811 0.17151 0.0
C713 C 0.4505 0.41552 0.2136 0.0
C714 C 0.47646 0.36809 0.08662 0.0
C715 C 0.48587 0.366 0.03279 0.0
N716 N 0.5044 0.36865 0.04301 0.0
C717 C 0.49567 0.37098 0.09657 0.0
C718 C 0.47155 0.36572 0.05447 0.0
C719 C 0.50955 0.37113 0.07416 0.0
C720 C 0.4736 0.37987 0.21038 0.0
N721 N 0.47605 0.38597 0.17969 0.0
C722 C 0.50901 0.41572 0.19111 0.0
C723 C 0.49339 0.40336 0.16967 0.0
C724 C 0.50694 0.40989 0.22313 0.0
C725 C 0.48903 0.39144 0.23246 0.0
H726 H 0.45946 0.36624 0.21794 0.0
H727 H 0.49473 0.40799 0.14516 0.0
C728 C 0.43479 0.39891 0.05024 0.0
N729 N 0.44897 0.39602 0.06643 0.0
C730 C 0.44147 0.41616 0.03032 0.0
C731 C 0.47703 0.42637 0.04324 0.0
C732 C 0.46971 0.40929 0.06322 0.0
C733 C 0.46286 0.43023 0.02695 0.0
H734 H 0.41836 0.38833 0.05378 0.0
H735 H 0.48061 0.40713 0.07732 0.0
C736 C 0.44005 0.33265 0.17799 0.0
N737 N 0.45517 0.30981 0.20788 0.0
C738 C 0.4596 0.33554 0.17003 0.0
C739 C 0.42825 0.31821 0.20132 0.0
C740 C 0.46695 0.32383 0.18537 0.0
C741 C 0.43616 0.30681 0.21613 0.0
C742 C 0.40209 0.32991 0.08248 0.0
C743 C 0.38351 0.31492 0.09635 0.0
C744 C 0.4082 0.32579 0.05341 0.0
C745 C 0.37149 0.29587 0.08112 0.0
C746 C 0.39576 0.30655 0.03893 0.0
N747 N 0.37783 0.2921 0.05298 0.0
C748 C 0.38882 0.36617 0.17208 0.0
C749 C 0.38333 0.33271 0.18495 0.0
C750 C 0.37596 0.36515 0.19688 0.0
N751 N 0.39287 0.35042 0.16753 0.0
C752 C 0.37032 0.33101 0.20998 0.0
C753 C 0.36734 0.34782 0.21712 0.0
H754 H 0.3969 0.38019 0.15812 0.0
H755 H 0.38705 0.32056 0.1809 0.0
C756 C 0.45009 0.31506 0.09328 0.0
N757 N 0.434 0.31615 0.10661 0.0
C758 C 0.45263 0.298 0.09925 0.0
C759 C 0.42062 0.28233 0.12909 0.0
C760 C 0.41874 0.29973 0.12265 0.0
C761 C 0.43843 0.282 0.11894 0.0
H762 H 0.46205 0.32806 0.08057 0.0
H763 H 0.40639 0.30116 0.13371 0.0
O764 O 0.43778 0.3854 0.14029 0.0
O765 O 0.46279 0.36808 0.1083 0.0
O766 O 0.43213 0.34333 0.16235 0.0
O767 O 0.41419 0.34851 0.09733 0.0
H768 H 0.46501 0.42434 0.12529 0.0
H769 H 0.43017 0.38335 0.20165 0.0
H770 H 0.48104 0.45356 0.16351 0.0
H771 H 0.44671 0.41331 0.23849 0.0
H772 H 0.48226 0.36415 0.00784 0.0
H773 H 0.49981 0.37307 0.12135 0.0
H774 H 0.4569 0.3638 0.04634 0.0
H775 H 0.52444 0.37326 0.08153 0.0
H776 H 0.52221 0.42998 0.18274 0.0
H777 H 0.48679 0.38601 0.25663 0.0
H778 H 0.43009 0.41882 0.01842 0.0
H779 H 0.4936 0.43717 0.04207 0.0
H780 H 0.46893 0.34654 0.15199 0.0
H781 H 0.41309 0.31572 0.20779 0.0
H782 H 0.482 0.32584 0.17927 0.0
H783 H 0.42714 0.29552 0.23412 0.0
H784 H 0.3785 0.3179 0.11875 0.0
H785 H 0.42241 0.33727 0.04219 0.0
H786 H 0.35714 0.28407 0.09168 0.0
H787 H 0.40036 0.3031 0.01652 0.0
H788 H 0.37388 0.37835 0.20143 0.0
H789 H 0.36416 0.31746 0.22512 0.0
H790 H 0.46641 0.2981 0.09062 0.0
H791 H 0.40941 0.27034 0.14455 0.0
Li792 Li 0.06828 0.44853 0.44288 0.0
Li793 Li 0.07851 0.46167 0.49543 0.0
Li794 Li 0.09763 0.4472 0.46479 0.0
Li795 Li 0.06082 0.42372 0.48469 0.0
C796 C 0.10135 0.4913 0.44393 0.0
N797 N 0.11292 0.52972 0.41801 0.0
C798 C 0.09125 0.50207 0.45304 0.0
C799 C 0.11761 0.50025 0.42205 0.0
C800 C 0.09723 0.52142 0.43954 0.0
C801 C 0.12316 0.51964 0.40911 0.0
C802 C 0.03658 0.45018 0.48689 0.0
C803 C 0.01 0.4502 0.51975 0.0
N804 N 0.00984 0.46492 0.50084 0.0
C805 C 0.03618 0.4654 0.46789 0.0
C806 C 0.02339 0.44257 0.51311 0.0
C807 C 0.02254 0.4726 0.47528 0.0
C808 C 0.03523 0.44061 0.40269 0.0
N809 N 0.05628 0.45229 0.40505 0.0
C810 C 0.05748 0.47393 0.36245 0.0
C811 C 0.06755 0.46786 0.38421 0.0
C812 C 0.03568 0.46344 0.36171 0.0
C813 C 0.02454 0.4459 0.38094 0.0
H814 H 0.02665 0.42825 0.41949 0.0
H815 H 0.08426 0.47641 0.38564 0.0
C816 C 0.10273 0.48777 0.54321 0.0
N817 N 0.08424 0.48138 0.52849 0.0
C818 C 0.10783 0.49984 0.57052 0.0
C819 C 0.07527 0.49959 0.56614 0.0
C820 C 0.07079 0.48748 0.53892 0.0
C821 C 0.0938 0.50552 0.58273 0.0
H822 H 0.11324 0.48284 0.53427 0.0
H823 H 0.05636 0.48261 0.52679 0.0
C824 C 0.06816 0.41834 0.41222 0.0
N825 N 0.05708 0.40791 0.34984 0.0
C826 C 0.04812 0.40252 0.40457 0.0
C827 C 0.08261 0.42879 0.38825 0.0
C828 C 0.04281 0.39749 0.37285 0.0
C829 C 0.07669 0.4233 0.35682 0.0
C830 C 0.08547 0.43646 0.53971 0.0
C831 C 0.10022 0.43239 0.55325 0.0
C832 C 0.06915 0.43496 0.55813 0.0
C833 C 0.09831 0.42675 0.58508 0.0
C834 C 0.06778 0.42926 0.58984 0.0
N835 N 0.08226 0.4253 0.60255 0.0
C836 C 0.14105 0.46847 0.464 0.0
C837 C 0.12498 0.43188 0.46979 0.0
C838 C 0.16037 0.47083 0.47166 0.0
N839 N 0.12387 0.44927 0.46383 0.0
C840 C 0.14398 0.43352 0.4778 0.0
C841 C 0.16188 0.45328 0.47985 0.0
H842 H 0.13955 0.48205 0.46019 0.0
H843 H 0.11088 0.4169 0.47049 0.0
C844 C 0.0249 0.39297 0.51511 0.0
N845 N 0.04439 0.39814 0.50581 0.0
C846 C 0.01601 0.38012 0.5413 0.0
C847 C 0.04621 0.3759 0.54478 0.0
C848 C 0.05458 0.38897 0.51867 0.0
C849 C 0.02731 0.37247 0.5575 0.0
H850 H 0.01711 0.40034 0.50414 0.0
H851 H 0.07021 0.39366 0.51098 0.0
O852 O 0.09576 0.47232 0.45682 0.0
O853 O 0.0496 0.44261 0.47984 0.0
O854 O 0.07349 0.42388 0.44302 0.0
O855 O 0.08678 0.44148 0.50838 0.0
H856 H 0.07901 0.49566 0.47047 0.0
H857 H 0.12563 0.49213 0.41476 0.0
H858 H 0.08945 0.52987 0.44626 0.0
H859 H 0.13558 0.52666 0.39193 0.0
H860 H -0.00022 0.44447 0.54001 0.0
H861 H 0.04632 0.47175 0.44773 0.0
H862 H 0.02364 0.43111 0.52853 0.0
H863 H 0.0221 0.48435 0.46072 0.0
H864 H 0.06656 0.48744 0.34773 0.0
H865 H 0.0077 0.43754 0.38122 0.0
H866 H 0.12246 0.50439 0.58221 0.0
H867 H 0.06395 0.50354 0.57476 0.0
H868 H 0.03676 0.39438 0.42294 0.0
H869 H 0.09816 0.44115 0.39389 0.0
H870 H 0.02733 0.38536 0.36652 0.0
H871 H 0.08766 0.43132 0.33797 0.0
H872 H 0.11292 0.43345 0.53927 0.0
H873 H 0.0576 0.43802 0.54795 0.0
H874 H 0.10957 0.42348 0.59588 0.0
H875 H 0.05518 0.42796 0.60433 0.0
H876 H 0.17381 0.48631 0.47256 0.0
H877 H 0.14436 0.41962 0.48435 0.0
H878 H 0.00127 0.37759 0.55032 0.0
H879 H 0.05542 0.3704 0.5568 0.0
Li880 Li 0.65447 0.10692 0.79704 0.0
Li881 Li 0.64116 0.07312 0.82347 0.0
Li882 Li 0.62445 0.0781 0.77834 0.0
Li883 Li 0.62297 0.09319 0.82904 0.0
C884 C 0.65058 0.06907 0.75483 0.0
N885 N 0.64468 0.04405 0.70313 0.0
C886 C 0.64364 0.04794 0.75899 0.0
C887 C 0.65467 0.07755 0.72445 0.0
C888 C 0.64072 0.03553 0.73252 0.0
C889 C 0.65154 0.06462 0.69859 0.0
C890 C 0.65316 0.10077 0.87441 0.0
C891 C 0.64025 0.0849 0.92527 0.0
N892 N 0.65773 0.10028 0.93908 0.0
C893 C 0.67099 0.11641 0.88908 0.0
C894 C 0.63763 0.08488 0.89261 0.0
C895 C 0.67301 0.11589 0.92182 0.0
C896 C 0.68333 0.14873 0.80707 0.0
N897 N 0.67989 0.13167 0.79042 0.0
C898 C 0.71521 0.14855 0.7733 0.0
C899 C 0.69517 0.13132 0.77327 0.0
C900 C 0.71947 0.16621 0.7912 0.0
C901 C 0.70304 0.16636 0.80747 0.0
H902 H 0.67095 0.14831 0.82108 0.0
H903 H 0.69203 0.11731 0.7609 0.0
C904 C 0.63559 0.03936 0.86166 0.0
N905 N 0.64977 0.05778 0.84864 0.0
C906 C 0.64088 0.03188 0.88827 0.0
C907 C 0.67552 0.06183 0.88611 0.0
C908 C 0.66969 0.06852 0.85924 0.0
C909 C 0.66074 0.04376 0.90164 0.0
H910 H 0.61976 0.03146 0.85315 0.0
H911 H 0.68045 0.08335 0.84872 0.0
C912 C 0.63526 0.12542 0.77439 0.0
N913 N 0.65095 0.16509 0.75045 0.0
C914 C 0.63144 0.13978 0.78994 0.0
C915 C 0.64679 0.13114 0.74641 0.0
C916 C 0.63957 0.15978 0.77752 0.0
C917 C 0.65468 0.1513 0.73477 0.0
C918 C 0.5899 0.053 0.81662 0.0
C919 C 0.58021 0.06255 0.80115 0.0
C920 C 0.57778 0.03298 0.8289 0.0
C921 C 0.55858 0.05188 0.79823 0.0
C922 C 0.55618 0.02286 0.82558 0.0
N923 N 0.54711 0.03243 0.81041 0.0
C924 C 0.5952 0.04334 0.74369 0.0
C925 C 0.60466 0.07572 0.71987 0.0
C926 C 0.57792 0.03323 0.72398 0.0
N927 N 0.6074 0.06435 0.74248 0.0
C928 C 0.58788 0.06616 0.69905 0.0
C929 C 0.57341 0.04482 0.7023 0.0
H930 H 0.59771 0.03468 0.76199 0.0
H931 H 0.61455 0.09241 0.71942 0.0
C932 C 0.62138 0.12001 0.87372 0.0
N933 N 0.60945 0.10091 0.86052 0.0
C934 C 0.61463 0.12569 0.90076 0.0
C935 C 0.58293 0.09244 0.89919 0.0
C936 C 0.59045 0.08722 0.87262 0.0
C937 C 0.59529 0.11167 0.914 0.0
H938 H 0.63663 0.13043 0.86413 0.0
H939 H 0.58147 0.07184 0.86295 0.0
O940 O 0.65304 0.08132 0.78038 0.0
O941 O 0.65111 0.10094 0.84231 0.0
O942 O 0.62755 0.10581 0.78633 0.0
O943 O 0.61113 0.06273 0.81864 0.0
H944 H 0.64034 0.04116 0.78239 0.0
H945 H 0.66006 0.09389 0.72089 0.0
H946 H 0.63524 0.01912 0.73534 0.0
H947 H 0.65454 0.07092 0.67491 0.0
H948 H 0.6284 0.07268 0.93964 0.0
H949 H 0.68316 0.12878 0.87528 0.0
H950 H 0.62375 0.07261 0.88162 0.0
H951 H 0.68674 0.12788 0.93351 0.0
H952 H 0.72742 0.14758 0.7608 0.0
H953 H 0.7055 0.17971 0.82118 0.0
H954 H 0.629 0.01801 0.89993 0.0
H955 H 0.69093 0.0714 0.8959 0.0
H956 H 0.62226 0.13551 0.81132 0.0
H957 H 0.64989 0.12021 0.73408 0.0
H958 H 0.63682 0.17109 0.78939 0.0
H959 H 0.6638 0.15599 0.7133 0.0
H960 H 0.58923 0.07799 0.79137 0.0
H961 H 0.58498 0.02527 0.84072 0.0
H962 H 0.55091 0.05906 0.78622 0.0
H963 H 0.54663 0.00736 0.83497 0.0
H964 H 0.56732 0.01684 0.72787 0.0
H965 H 0.58551 0.07569 0.68211 0.0
H966 H 0.62463 0.14064 0.91168 0.0
H967 H 0.5681 0.08104 0.90914 0.0
Li968 Li 0.57766 0.64026 0.15423 0.0
Li969 Li 0.55262 0.65304 0.13724 0.0
Li970 Li 0.54009 0.62021 0.16744 0.0
Li971 Li 0.55077 0.62257 0.11402 0.0
C972 C 0.56248 0.65323 0.21092 0.0
N973 N 0.56569 0.66239 0.27463 0.0
C974 C 0.5586 0.6687 0.22202 0.0
C975 C 0.56804 0.64247 0.23221 0.0
C976 C 0.56026 0.67306 0.25432 0.0
C977 C 0.5696 0.64733 0.26432 0.0
C978 C 0.58093 0.6519 0.08233 0.0
C979 C 0.57628 0.65468 0.02658 0.0
N980 N 0.59123 0.64969 0.02038 0.0
C981 C 0.5963 0.64688 0.07547 0.0
C982 C 0.57087 0.65593 0.05778 0.0
C983 C 0.60127 0.64581 0.04396 0.0
C984 C 0.61195 0.63674 0.17628 0.0
N985 N 0.60398 0.64959 0.17295 0.0
C986 C 0.62731 0.67288 0.21169 0.0
C987 C 0.61204 0.6679 0.18882 0.0
C988 C 0.63434 0.65887 0.21807 0.0
C989 C 0.6273 0.64113 0.19891 0.0
H990 H 0.60518 0.62225 0.16334 0.0
H991 H 0.60532 0.67778 0.18566 0.0
C992 C 0.53127 0.67396 0.14764 0.0
N993 N 0.54984 0.67669 0.13757 0.0
C994 C 0.52965 0.69098 0.15755 0.0
C995 C 0.56598 0.71338 0.14459 0.0
C996 C 0.56694 0.69587 0.13512 0.0
C997 C 0.54734 0.71089 0.1571 0.0
H998 H 0.51815 0.6584 0.15019 0.0
H999 H 0.58163 0.69738 0.12798 0.0
C1000 C 0.5547 0.59144 0.16075 0.0
N1001 N 0.54746 0.55349 0.18363 0.0
C1002 C 0.54142 0.57306 0.14457 0.0
C1003 C 0.5644 0.59044 0.18847 0.0
C1004 C 0.53793 0.55406 0.15654 0.0
C1005 C 0.56052 0.57113 0.19968 0.0
C1006 C 0.50802 0.6105 0.12226 0.0
C1007 C 0.50172 0.58981 0.12928 0.0
C1008 C 0.49436 0.6153 0.10669 0.0
C1009 C 0.48194 0.57417 0.12017 0.0
C1010 C 0.47468 0.59923 0.09797 0.0
N1011 N 0.46894 0.57916 0.1048 0.0
C1012 C 0.51385 0.61747 0.21545 0.0
C1013 C 0.51657 0.58705 0.21261 0.0
C1014 C 0.50225 0.61049 0.24317 0.0
N1015 N 0.52136 0.6061 0.20141 0.0
C1016 C 0.50475 0.57931 0.24007 0.0
C1017 C 0.49793 0.59137 0.25611 0.0
H1018 H 0.51748 0.63235 0.20561 0.0
H1019 H 0.52218 0.57797 0.20079 0.0
C1020 C 0.55559 0.59649 0.07126 0.0
N1021 N 0.54486 0.60665 0.07611 0.0
C1022 C 0.54887 0.58082 0.04858 0.0
C1023 C 0.52128 0.58761 0.03445 0.0
C1024 C 0.52873 0.60336 0.05713 0.0
C1025 C 0.53089 0.57556 0.03096 0.0
H1026 H 0.56843 0.5995 0.08664 0.0
H1027 H 0.52086 0.6121 0.06077 0.0
O1028 O 0.56085 0.64869 0.17934 0.0
O1029 O 0.57547 0.65248 0.11294 0.0
O1030 O 0.55847 0.61026 0.14922 0.0
O1031 O 0.52745 0.62607 0.13044 0.0
H1032 H 0.55432 0.67723 0.2059 0.0
H1033 H 0.57111 0.6305 0.22403 0.0
H1034 H 0.55725 0.68496 0.26325 0.0
H1035 H 0.57392 0.63914 0.28104 0.0
H1036 H 0.56855 0.65764 0.0073 0.0
H1037 H 0.60414 0.64364 0.0943 0.0
H1038 H 0.55887 0.65974 0.06281 0.0
H1039 H 0.61306 0.64184 0.03825 0.0
H1040 H 0.63254 0.68683 0.22569 0.0
H1041 H 0.63222 0.62986 0.2032 0.0
H1042 H 0.51499 0.6885 0.16686 0.0
H1043 H 0.58001 0.72846 0.14423 0.0
H1044 H 0.53376 0.57337 0.12306 0.0
H1045 H 0.57476 0.60437 0.20136 0.0
H1046 H 0.52763 0.53975 0.14429 0.0
H1047 H 0.56787 0.57018 0.22116 0.0
H1048 H 0.51197 0.58589 0.1417 0.0
H1049 H 0.499 0.63127 0.10114 0.0
H1050 H 0.47691 0.55808 0.12534 0.0
H1051 H 0.46399 0.6027 0.08574 0.0
H1052 H 0.49695 0.62006 0.25458 0.0
H1053 H 0.50167 0.56444 0.24933 0.0
H1054 H 0.55662 0.57178 0.04682 0.0
H1055 H 0.50748 0.58411 0.02105 0.0
H1056 H 0.51252 0.10415 0.04013 0.0
H1057 H 0.55864 0.11652 0.11229 0.0
H1058 H 0.58486 0.12333 0.07078 0.0
H1059 H 0.52729 0.07591 0.99053 0.0
H1060 H 0.52223 0.0852 0.95417 0.0
H1061 H 0.50804 0.08392 0.98934 0.0
H1062 H 0.51997 0.12308 0.98374 0.0
H1063 H 0.53425 0.12449 0.94852 0.0
H1064 H 0.54733 0.1418 0.98107 0.0
H1065 H 0.6054 0.12719 0.02143 0.0
H1066 H 0.61786 0.1245 0.96841 0.0
H1067 H 0.55765 0.10776 0.92883 0.0
C1068 C 0.52828 0.10871 0.04706 0.0
C1069 C 0.53379 0.11014 0.0792 0.0
C1070 C 0.55429 0.11551 0.08766 0.0
C1071 C 0.56924 0.11949 0.0643 0.0
C1072 C 0.56329 0.11782 0.03271 0.0
C1073 C 0.54324 0.11237 0.02409 0.0
C1074 C 0.54026 0.1097 0.9887 0.0
C1075 C 0.52347 0.08736 0.9802 0.0
C1076 C 0.53516 0.12573 0.97469 0.0
C1077 C 0.56167 0.11414 0.97876 0.0
C1078 C 0.57485 0.11921 0.0044 0.0
C1079 C 0.59527 0.1234 0.00115 0.0
C1080 C 0.60224 0.12194 0.97098 0.0
C1081 C 0.58872 0.11604 0.94465 0.0
C1082 C 0.56829 0.11238 0.94861 0.0
H1083 H 0.46567 0.55288 0.27174 0.0
H1084 H 0.50649 0.61433 0.31002 0.0
H1085 H 0.49017 0.60247 0.36248 0.0
H1086 H 0.41992 0.54235 0.31808 0.0
H1087 H 0.41173 0.51522 0.32304 0.0
H1088 H 0.42602 0.52888 0.28827 0.0
H1089 H 0.45357 0.51808 0.30011 0.0
H1090 H 0.4394 0.50443 0.3349 0.0
H1091 H 0.46637 0.52426 0.33798 0.0
H1092 H 0.47125 0.58311 0.41154 0.0
H1093 H 0.44951 0.55807 0.45298 0.0
H1094 H 0.42044 0.50977 0.38208 0.0
C1095 C 0.47107 0.56384 0.29116 0.0
C1096 C 0.48727 0.58451 0.28693 0.0
C1097 C 0.4939 0.59848 0.31278 0.0
C1098 C 0.4848 0.59187 0.34264 0.0
C1099 C 0.46897 0.57132 0.34611 0.0
C1100 C 0.46201 0.55756 0.32101 0.0
C1101 C 0.44497 0.53624 0.33109 0.0
C1102 C 0.42445 0.53034 0.31411 0.0
C1103 C 0.45148 0.51979 0.32571 0.0
C1104 C 0.44371 0.54005 0.36589 0.0
C1105 C 0.45769 0.56036 0.37415 0.0
C1106 C 0.46005 0.56723 0.40532 0.0
C1107 C 0.44775 0.55295 0.42866 0.0
C1108 C 0.43322 0.53215 0.42055 0.0
C1109 C 0.43116 0.52571 0.38876 0.0
H1110 H 0.91615 0.48991 0.63118 0.0
H1111 H 0.89345 0.44162 0.55963 0.0
H1112 H 0.88947 0.41598 0.6003 0.0
H1113 H 0.94563 0.47277 0.67455 0.0
H1114 H 0.93953 0.47929 0.71257 0.0
H1115 H 0.93985 0.49356 0.67802 0.0
H1116 H 0.90205 0.48477 0.68974 0.0
H1117 H 0.9016 0.47044 0.72434 0.0
H1118 H 0.88199 0.45799 0.69428 0.0
H1119 H 0.88866 0.39587 0.64864 0.0
H1120 H 0.89254 0.38304 0.70049 0.0
H1121 H 0.91508 0.44448 0.74048 0.0
C1122 C 0.91009 0.47389 0.6241 0.0
C1123 C 0.90504 0.46773 0.59226 0.0
C1124 C 0.89758 0.44671 0.58385 0.0
C1125 C 0.89512 0.43202 0.60681 0.0
C1126 C 0.9002 0.43863 0.638 0.0
C1127 C 0.90758 0.45908 0.64664 0.0
C1128 C 0.91256 0.46235 0.68154 0.0
C1129 C 0.93577 0.47791 0.68697 0.0
C1130 C 0.89872 0.46929 0.69847 0.0
C1131 C 0.90704 0.44057 0.69117 0.0
C1132 C 0.89979 0.42709 0.66578 0.0
C1133 C 0.89417 0.40625 0.66875 0.0
C1134 C 0.89629 0.39908 0.69836 0.0
C1135 C 0.90403 0.41272 0.72462 0.0
C1136 C 0.90923 0.43368 0.72088 0.0
H1137 H 0.45114 0.89514 0.07721 0.0
H1138 H 0.47933 0.85937 0.0455 0.0
H1139 H 0.45989 0.8518 0.99524 0.0
H1140 H 0.39976 0.86217 0.03942 0.0
H1141 H 0.39703 0.88432 0.02976 0.0
H1142 H 0.41137 0.88486 0.06442 0.0
H1143 H 0.44335 0.91873 0.04432 0.0
H1144 H 0.4292 0.91823 0.00955 0.0
H1145 H 0.4538 0.91909 0.00574 0.0
H1146 H 0.44108 0.85223 0.9459 0.0
H1147 H 0.42191 0.85817 0.90299 0.0
H1148 H 0.40522 0.89258 0.9679 0.0
C1149 C 0.45288 0.88538 0.0599 0.0
C1150 C 0.46661 0.87773 0.06518 0.0
C1151 C 0.46861 0.86509 0.04203 0.0
C1152 C 0.45773 0.8608 0.01339 0.0
C1153 C 0.44471 0.86905 0.00856 0.0
C1154 C 0.44199 0.88079 0.0314 0.0
C1155 C 0.42789 0.88866 0.01987 0.0
C1156 C 0.40782 0.87945 0.03954 0.0
C1157 C 0.43925 0.91259 0.01987 0.0
C1158 C 0.42361 0.88006 0.98664 0.0
C1159 C 0.43342 0.86877 0.98051 0.0
C1160 C 0.43298 0.86067 0.95061 0.0
C1161 C 0.42219 0.86419 0.9264 0.0
C1162 C 0.4119 0.87553 0.93241 0.0
C1163 C 0.41254 0.88341 0.96296 0.0
H1164 H 0.54799 0.46359 0.39109 0.0
H1165 H 0.60882 0.50088 0.3478 0.0
H1166 H 0.59538 0.4814 0.29836 0.0
H1167 H 0.53268 0.41535 0.3511 0.0
H1168 H 0.50611 0.4092 0.34592 0.0
H1169 H 0.52094 0.42467 0.37913 0.0
H1170 H 0.51341 0.45389 0.36262 0.0
H1171 H 0.49846 0.43846 0.32951 0.0
H1172 H 0.51987 0.46441 0.32321 0.0
H1173 H 0.57524 0.458 0.25316 0.0
H1174 H 0.54932 0.43438 0.21465 0.0
H1175 H 0.5009 0.41601 0.2856 0.0
C1176 C 0.55857 0.46787 0.37131 0.0
C1177 C 0.57964 0.48371 0.37389 0.0
C1178 C 0.5928 0.48844 0.34713 0.0
C1179 C 0.58528 0.47756 0.31869 0.0
C1180 C 0.56445 0.46219 0.31707 0.0
C1181 C 0.55123 0.45753 0.34254 0.0
C1182 C 0.52919 0.44132 0.33398 0.0
C1183 C 0.52181 0.42146 0.35371 0.0
C1184 C 0.51436 0.45005 0.33753 0.0
C1185 C 0.53211 0.43766 0.29968 0.0
C1186 C 0.5526 0.44961 0.2905 0.0
C1187 C 0.55909 0.4487 0.25999 0.0
C1188 C 0.54417 0.43533 0.23817 0.0
C1189 C 0.5229 0.42331 0.24679 0.0
C1190 C 0.51697 0.42459 0.27812 0.0
H1191 H 0.08638 0.53712 0.59862 0.0
H1192 H 0.11006 0.49864 0.63641 0.0
H1193 H 0.11509 0.51563 0.6883 0.0
H1194 H 0.12033 0.58396 0.64329 0.0
H1195 H 0.1003 0.5906 0.64917 0.0
H1196 H 0.09995 0.57642 0.61443 0.0
H1197 H 0.06252 0.54733 0.62806 0.0
H1198 H 0.06276 0.56141 0.6628 0.0
H1199 H 0.05734 0.53497 0.66623 0.0
H1200 H 0.11545 0.53528 0.73701 0.0
H1201 H 0.11178 0.55672 0.77846 0.0
H1202 H 0.08724 0.58168 0.70882 0.0
C1203 C 0.0927 0.53231 0.61776 0.0
C1204 C 0.09793 0.51663 0.61337 0.0
C1205 C 0.10628 0.51088 0.63902 0.0
C1206 C 0.10908 0.52036 0.66865 0.0
C1207 C 0.10353 0.53559 0.67224 0.0
C1208 C 0.09559 0.54159 0.64746 0.0
C1209 C 0.09018 0.55782 0.65776 0.0
C1210 C 0.10349 0.57842 0.64011 0.0
C1211 C 0.06682 0.5499 0.65346 0.0
C1212 C 0.09602 0.55978 0.69232 0.0
C1213 C 0.10376 0.54689 0.70022 0.0
C1214 C 0.10954 0.54554 0.73107 0.0
C1215 C 0.10729 0.55767 0.75446 0.0
C1216 C 0.09935 0.57095 0.74683 0.0
C1217 C 0.09375 0.572 0.71528 0.0
H1218 H 0.38018 0.04081 0.05064 0.0
H1219 H 0.33689 0.98732 0.10558 0.0
H1220 H 0.32128 0.96781 0.05617 0.0
H1221 H 0.3455 0.03263 0.98082 0.0
H1222 H 0.3669 0.0407 0.95372 0.0
H1223 H 0.37143 0.05174 0.99283 0.0
H1224 H 0.39886 0.04051 0.00264 0.0
H1225 H 0.39437 0.02937 0.9638 0.0
H1226 H 0.39155 0.01358 0.99781 0.0
H1227 H 0.31378 0.95287 0.00157 0.0
H1228 H 0.31658 0.94277 0.94708 0.0
H1229 H 0.36576 0.00577 0.92789 0.0
C1230 C 0.36684 0.02528 0.05217 0.0
C1231 C 0.35935 0.01565 0.08173 0.0
C1232 C 0.34257 0.99499 0.08304 0.0
C1233 C 0.33359 0.98388 0.05514 0.0
C1234 C 0.3417 0.99367 0.02626 0.0
C1235 C 0.35799 0.01393 0.02463 0.0
C1236 C 0.36591 0.01991 0.99115 0.0
C1237 C 0.36221 0.03727 0.97891 0.0
C1238 C 0.38903 0.0262 0.98873 0.0
C1239 C 0.35212 -0.0004 0.97433 0.0
C1240 C 0.33789 0.98482 0.99481 0.0
C1241 C 0.32456 0.96443 0.98519 0.0
C1242 C 0.32619 0.95886 0.95413 0.0
C1243 C 0.34127 0.97356 0.93321 0.0
C1244 C 0.35399 0.99428 0.94332 0.0
H1245 H 0.3826 0.38047 0.25782 0.0
H1246 H 0.33269 0.31675 0.24707 0.0
H1247 H 0.32112 0.31737 0.30179 0.0
H1248 H 0.39585 0.37558 0.33426 0.0
H1249 H 0.40179 0.40114 0.34697 0.0
H1250 H 0.40449 0.39646 0.30603 0.0
H1251 H 0.37964 0.40995 0.28995 0.0
H1252 H 0.37709 0.41499 0.33085 0.0
H1253 H 0.35424 0.39869 0.30776 0.0
H1254 H 0.31659 0.32473 0.35947 0.0
H1255 H 0.31977 0.33809 0.41418 0.0
H1256 H 0.37312 0.3965 0.38559 0.0
C1257 C 0.3688 0.36684 0.26651 0.0
C1258 C 0.35833 0.34866 0.24801 0.0
C1259 C 0.34085 0.33088 0.26082 0.0
C1260 C 0.33417 0.33112 0.29181 0.0
C1261 C 0.34517 0.34923 0.30963 0.0
C1262 C 0.36206 0.36678 0.29727 0.0
C1263 C 0.3722 0.38383 0.32164 0.0
C1264 C 0.39492 0.38957 0.32757 0.0
C1265 C 0.37069 0.40299 0.31197 0.0
C1266 C 0.35865 0.37305 0.34989 0.0
C1267 C 0.34298 0.35319 0.34259 0.0
C1268 C 0.32877 0.34029 0.36536 0.0
C1269 C 0.33068 0.34796 0.39631 0.0
C1270 C 0.34687 0.36817 0.40414 0.0
C1271 C 0.36085 0.38081 0.38046 0.0
H1272 H 0.01881 0.39126 0.60521 0.0
H1273 H 0.0242 0.33708 0.58378 0.0
H1274 H 0.01735 0.32637 0.64012 0.0
H1275 H 0.04496 0.40249 0.67903 0.0
H1276 H 0.02872 0.4111 0.69758 0.0
H1277 H 0.03298 0.41389 0.65558 0.0
H1278 H 0.99331 0.39308 0.64531 0.0
H1279 H 0.98881 0.39066 0.68726 0.0
H1280 H 0.97795 0.36772 0.66283 0.0
H1281 H 0.00864 0.32141 0.69921 0.0
H1282 H -0.00045 0.32301 0.75521 0.0
H1283 H 0.00239 0.38177 0.73665 0.0
C1284 C 0.01816 0.37692 0.61225 0.0
C1285 C 0.02156 0.3647 0.59019 0.0
C1286 C 0.02134 0.34645 0.60041 0.0
C1287 C 0.01754 0.34033 0.63228 0.0
C1288 C 0.0144 0.35289 0.65352 0.0
C1289 C 0.01477 0.37084 0.64382 0.0
C1290 C 0.01152 0.38201 0.6711 0.0
C1291 C 0.03069 0.40365 0.67611 0.0
C1292 C 0.99172 0.38344 0.66634 0.0
C1293 C 0.009 0.36744 0.69776 0.0
C1294 C 0.01061 0.35066 0.68731 0.0
C1295 C 0.00763 0.33463 0.70769 0.0
C1296 C 0.00254 0.33566 0.73939 0.0
C1297 C 0.0008 0.35275 0.75031 0.0
C1298 C 0.00433 0.36888 0.72921 0.0
H1299 H 0.63765 0.96876 0.04571 0.0
H1300 H 0.64413 0.02007 0.10354 0.0
H1301 H 0.66187 0.04408 0.05971 0.0
H1302 H 0.68423 0.99823 0.9931 0.0
H1303 H 0.66968 0.98374 0.95899 0.0
H1304 H 0.66377 0.97159 0.99737 0.0
H1305 H 0.62534 0.96225 0.99095 0.0
H1306 H 0.63113 0.97438 0.95278 0.0
H1307 H 0.61953 0.98264 0.98271 0.0
H1308 H 0.67298 0.06158 0.00758 0.0
H1309 H 0.67356 0.07035 0.95127 0.0
H1310 H 0.65511 0.00698 0.92548 0.0
C1311 C 0.64298 0.98506 0.04957 0.0
C1312 C 0.6393 0.9923 0.07847 0.0
C1313 C 0.64704 0.01393 0.08219 0.0
C1314 C 0.65712 0.0278 0.05722 0.0
C1315 C 0.65925 0.01986 0.02852 0.0
C1316 C 0.6523 0.99894 0.02455 0.0
C1317 C 0.65271 0.99363 0.9901 0.0
C1318 C 0.66855 0.98637 0.98457 0.0
C1319 C 0.63089 0.97727 0.97847 0.0
C1320 C 0.65989 0.01462 0.9751 0.0
C1321 C 0.66439 0.02971 0.99777 0.0
C1322 C 0.6699 0.05 0.98966 0.0
C1323 C 0.67023 0.05485 0.95763 0.0
C1324 C 0.66458 0.03935 0.93419 0.0
C1325 C 0.65979 0.01913 0.94302 0.0
H1326 H 0.62641 0.66811 0.27675 0.0
H1327 H 0.66762 0.65268 0.22602 0.0
H1328 H 0.68285 0.65031 0.27675 0.0
H1329 H 0.66298 0.6976 0.34382 0.0
H1330 H 0.64183 0.68699 0.37175 0.0
H1331 H 0.63735 0.69167 0.33151 0.0
H1332 H 0.60809 0.65325 0.32655 0.0
H1333 H 0.61254 0.64837 0.36651 0.0
H1334 H 0.61383 0.63283 0.33485 0.0
H1335 H 0.68923 0.64397 0.33244 0.0
H1336 H 0.68579 0.63327 0.38796 0.0
H1337 H 0.6411 0.65395 0.40298 0.0
C1338 C 0.63929 0.66517 0.27619 0.0
C1339 C 0.64611 0.66093 0.24743 0.0
C1340 C 0.66231 0.65613 0.2478 0.0
C1341 C 0.67111 0.65488 0.27647 0.0
C1342 C 0.66359 0.65857 0.3045 0.0
C1343 C 0.64813 0.66377 0.30454 0.0
C1344 C 0.64087 0.66433 0.33777 0.0
C1345 C 0.64608 0.68647 0.34674 0.0
C1346 C 0.61746 0.64877 0.34162 0.0
C1347 C 0.65395 0.65767 0.35636 0.0
C1348 C 0.66725 0.65482 0.33682 0.0
C1349 C 0.67931 0.64668 0.3481 0.0
C1350 C 0.67731 0.64075 0.3799 0.0
C1351 C 0.66325 0.64285 0.40019 0.0
C1352 C 0.652 0.65211 0.38827 0.0
H1353 H 0.00616 0.61374 0.72898 0.0
H1354 H 0.00561 0.67035 0.75253 0.0
H1355 H 0.99742 0.67351 0.69674 0.0
H1356 H 0.02993 0.62942 0.65487 0.0
H1357 H 0.01465 0.60426 0.63675 0.0
H1358 H 0.0197 0.60618 0.67854 0.0
H1359 H 0.9801 0.58512 0.69021 0.0
H1360 H 0.97497 0.58273 0.64843 0.0
H1361 H 0.96323 0.5936 0.67357 0.0
H1362 H 0.98964 0.67023 0.63713 0.0
H1363 H 0.98168 0.66004 0.58085 0.0
H1364 H 0.98704 0.6054 0.59917 0.0
C1365 C 0.00379 0.62655 0.7228 0.0
C1366 C 0.00625 0.64165 0.74531 0.0
C1367 C 0.00377 0.65857 0.7357 0.0
C1368 C -0.00088 0.66049 0.70409 0.0
C1369 C 0.99705 0.64537 0.68249 0.0
C1370 C -0.00085 0.62866 0.69165 0.0
C1371 C 0.99643 0.61454 0.66423 0.0
C1372 C 0.01637 0.61356 0.65826 0.0
C1373 C 0.97756 0.59271 0.66943 0.0
C1374 C 0.99253 0.62591 0.63802 0.0
C1375 C 0.99293 0.64367 0.64878 0.0
C1376 C 0.98932 0.65635 0.62851 0.0
C1377 C 0.98484 0.65047 0.59662 0.0
C1378 C 0.98408 0.63211 0.58539 0.0
C1379 C 0.98815 0.61989 0.60656 0.0
H1380 H 0.49215 0.9542 0.30786 0.0
H1381 H 0.55633 0.00358 0.31244 0.0
H1382 H 0.54505 0.02756 0.33259 0.0
H1383 H 0.47368 0.98071 0.27458 0.0
H1384 H 0.44903 0.96991 0.29469 0.0
H1385 H 0.46192 0.95505 0.29168 0.0
H1386 H 0.46121 0.95119 0.35252 0.0
H1387 H 0.44801 0.96595 0.35579 0.0
H1388 H 0.47184 0.97402 0.37715 0.0
H1389 H 0.52711 0.04788 0.33551 0.0
H1390 H 0.50467 0.06226 0.32257 0.0
H1391 H 0.45123 -9e-05 0.31969 0.0
C1392 C 0.50381 0.96982 0.31462 0.0
C1393 C 0.52506 0.97709 0.3088 0.0
C1394 C 0.53999 0.99765 0.31726 0.0
C1395 C 0.53369 0.01137 0.32871 0.0
C1396 C 0.51244 0.00412 0.33216 0.0
C1397 C 0.49771 0.98362 0.32607 0.0
C1398 C 0.47593 0.9805 0.32632 0.0
C1399 C 0.46451 0.97101 0.29496 0.0
C1400 C 0.46352 0.96712 0.35464 0.0
C1401 C 0.48082 0.00275 0.33028 0.0
C1402 C 0.50189 0.01607 0.3346 0.0
C1403 C 0.51051 0.03758 0.33341 0.0
C1404 C 0.4975 0.04565 0.32615 0.0
C1405 C 0.47604 0.03225 0.32006 0.0
C1406 C 0.46754 0.0106 0.32411 0.0
H1407 H 0.53716 0.5416 0.61913 0.0
H1408 H 0.55435 0.50244 0.67199 0.0
H1409 H 0.51846 0.48213 0.6921 0.0
H1410 H 0.49687 0.53893 0.67834 0.0
H1411 H 0.48062 0.53856 0.64644 0.0
H1412 H 0.50853 0.55281 0.64229 0.0
H1413 H 0.50537 0.53225 0.59111 0.0
H1414 H 0.47763 0.51792 0.59524 0.0
H1415 H 0.49191 0.50423 0.59242 0.0
H1416 H 0.47966 0.46122 0.69519 0.0
H1417 H 0.44182 0.4434 0.68419 0.0
H1418 H 0.45028 0.49756 0.63313 0.0
C1419 C 0.53372 0.52946 0.63623 0.0
C1420 C 0.54861 0.52364 0.64394 0.0
C1421 C 0.54317 0.50711 0.66552 0.0
C1422 C 0.52284 0.49556 0.67727 0.0
C1423 C 0.50822 0.50102 0.6678 0.0
C1424 C 0.51355 0.51791 0.64832 0.0
C1425 C 0.49456 0.51905 0.63844 0.0
C1426 C 0.49518 0.53849 0.65222 0.0
C1427 C 0.49224 0.5183 0.60218 0.0
C1428 C 0.47762 0.49948 0.65375 0.0
C1429 C 0.48576 0.48937 0.67094 0.0
C1430 C 0.47307 0.46937 0.68294 0.0
C1431 C 0.45164 0.45933 0.6766 0.0
C1432 C 0.44319 0.46944 0.65878 0.0
C1433 C 0.45628 0.48994 0.6481 0.0
H1434 H 0.04325 0.54104 0.0027 0.0
H1435 H 0.99266 0.55335 0.98668 0.0
H1436 H 0.96755 0.51727 1.00003 0.0
H1437 H 0.0232 0.49883 0.96018 0.0
H1438 H 0.0315 0.48391 0.9833 0.0
H1439 H 0.04573 0.51171 0.98537 0.0
H1440 H 0.04071 0.51016 0.04605 0.0
H1441 H 0.02651 0.48214 0.04421 0.0
H1442 H 0.01491 0.49583 0.06249 0.0
H1443 H 0.94809 0.47922 0.99889 0.0
H1444 H 0.93649 0.44335 0.98264 0.0
H1445 H 0.99886 0.45391 0.99714 0.0
C1446 C 0.02691 0.53635 0.00301 0.0
C1447 C 0.02011 0.55023 0.99347 0.0
C1448 C 0.99854 0.54338 0.99444 0.0
C1449 C 0.98402 0.52272 0.00193 0.0
C1450 C 0.9912 0.50901 0.00855 0.0
C1451 C 0.01221 0.51561 0.00958 0.0
C1452 C 0.01589 0.49729 0.01074 0.0
C1453 C 0.02988 0.49799 0.98326 0.0
C1454 C 0.02505 0.4963 0.04279 0.0
C1455 C 0.99381 0.47945 0.00717 0.0
C1456 C 0.97973 0.48649 0.00727 0.0
C1457 C 0.95884 0.4734 0.99984 0.0
C1458 C 0.95235 0.45292 0.99071 0.0
C1459 C 0.96675 0.44572 0.98868 0.0
C1460 C 0.98749 0.45893 0.99858 0.0
H1461 H 0.99417 0.54085 0.3685 0.0
H1462 H 0.94058 0.49617 0.31485 0.0
H1463 H 0.95913 0.47735 0.30134 0.0
H1464 H 0.03539 0.53919 0.31674 0.0
H1465 H 0.05074 0.54166 0.35115 0.0
H1466 H 0.03517 0.55406 0.35025 0.0
H1467 H 0.01703 0.5351 0.40209 0.0
H1468 H 0.03224 0.52247 0.40299 0.0
H1469 H 0.00427 0.50713 0.40369 0.0
H1470 H 0.97997 0.45923 0.30456 0.0
H1471 H 0.00235 0.44496 0.32123 0.0
H1472 H 0.04299 0.50255 0.36987 0.0
C1473 C 0.98669 0.52778 0.35248 0.0
C1474 C 0.96593 0.52008 0.34263 0.0
C1475 C 0.95645 0.50234 0.32279 0.0
C1476 C 0.96693 0.49162 0.31483 0.0
C1477 C 0.98701 0.49905 0.32638 0.0
C1478 C 0.99695 0.51701 0.34425 0.0
C1479 C 0.01738 0.52037 0.35722 0.0
C1480 C 0.03576 0.53998 0.34298 0.0
C1481 C 0.01772 0.5213 0.39362 0.0
C1482 C 0.01689 0.50093 0.34534 0.0
C1483 C -0.00062 0.48889 0.32727 0.0
C1484 C 0.99411 0.46885 0.31766 0.0
C1485 C 0.00683 0.46083 0.32726 0.0
C1486 C 0.02464 0.47291 0.34603 0.0
C1487 C 0.02995 0.49336 0.35437 0.0
H1488 H 0.46038 0.95143 0.68734 0.0
H1489 H 0.44115 0.99771 0.69513 0.0
H1490 H 0.47604 0.02482 0.67964 0.0
H1491 H 0.50433 0.97864 0.72703 0.0
H1492 H 0.52028 0.97114 0.70491 0.0
H1493 H 0.49262 0.95434 0.70581 0.0
H1494 H 0.49134 0.95473 0.64468 0.0
H1495 H 0.51918 0.97151 0.64357 0.0
H1496 H 0.50252 0.97921 0.62403 0.0
H1497 H 0.51378 0.04765 0.6778 0.0
H1498 H 0.55082 0.06411 0.68995 0.0
H1499 H 0.54744 0.00409 0.68343 0.0
C1500 C 0.4633 0.96717 0.68492 0.0
C1501 C 0.44778 0.97224 0.69248 0.0
C1502 C 0.45239 0.9931 0.68885 0.0
C1503 C 0.47233 0.00876 0.68012 0.0
C1504 C 0.48759 0.00342 0.6749 0.0
C1505 C 0.48328 0.98306 0.6768 0.0
C1506 C 0.50309 0.98188 0.67565 0.0
C1507 C 0.50519 0.97087 0.7051 0.0
C1508 C 0.50408 0.9712 0.64515 0.0
C1509 C 0.51923 0.00482 0.6754 0.0
C1510 C 0.50993 0.01693 0.67395 0.0
C1511 C 0.52132 0.0384 0.67783 0.0
C1512 C 0.54256 0.04767 0.6846 0.0
C1513 C 0.55236 0.03552 0.68755 0.0
C1514 C 0.54057 0.01391 0.68141 0.0
H1515 H 0.44958 0.45805 0.03438 0.0
H1516 H 0.4949 0.44825 0.9846 0.0
H1517 H 0.51381 0.48522 0.96901 0.0
H1518 H 0.45335 0.50199 0.98058 0.0
H1519 H 0.45074 0.51513 0.01457 0.0
H1520 H 0.43748 0.48711 0.01349 0.0
H1521 H 0.45494 0.48699 0.06639 0.0
H1522 H 0.46832 0.51483 0.0675 0.0
H1523 H 0.48291 0.50142 0.06938 0.0
H1524 H 0.53229 0.5237 0.971 0.0
H1525 H 0.54803 0.56015 0.98902 0.0
H1526 H 0.49063 0.54532 0.03668 0.0
C1527 C 0.4628 0.46347 0.01868 0.0
C1528 C 0.47067 0.45033 0.01034 0.0
C1529 C 0.48856 0.4581 0.99098 0.0
C1530 C 0.49934 0.47905 0.98192 0.0
C1531 C 0.4919 0.49198 0.99214 0.0
C1532 C 0.47379 0.4844 0.00967 0.0
C1533 C 0.47094 0.50193 0.02215 0.0
C1534 C 0.452 0.50151 0.00677 0.0
C1535 C 0.4692 0.50124 0.05848 0.0
C1536 C 0.49099 0.52053 0.01099 0.0
C1537 C 0.50265 0.51452 0.99303 0.0
C1538 C 0.52302 0.52868 0.98407 0.0
C1539 C 0.53189 0.54932 0.99449 0.0
C1540 C 0.52038 0.55556 0.01368 0.0
C1541 C 0.49948 0.54112 0.021 0.0
H1542 H 0.41375 0.23959 0.12541 0.0
H1543 H 0.47528 0.29131 0.14576 0.0
H1544 H 0.4841 0.26767 0.17382 0.0
H1545 H 0.40625 0.21249 0.19913 0.0
H1546 H 0.39332 0.18698 0.18154 0.0
H1547 H 0.39153 0.20793 0.16324 0.0
H1548 H 0.40587 0.20198 0.11083 0.0
H1549 H 0.4074 0.18083 0.12885 0.0
H1550 H 0.43019 0.20207 0.11107 0.0
H1551 H 0.48618 0.23882 0.20024 0.0
H1552 H 0.48264 0.20572 0.21883 0.0
H1553 H 0.42022 0.1724 0.17997 0.0
C1554 C 0.42908 0.24585 0.13568 0.0
C1555 C 0.44391 0.2672 0.1332 0.0
C1556 C 0.46383 0.27491 0.1469 0.0
C1557 C 0.46891 0.26167 0.16319 0.0
C1558 C 0.45391 0.24074 0.16546 0.0
C1559 C 0.4345 0.23278 0.15178 0.0
C1560 C 0.42157 0.20952 0.15677 0.0
C1561 C 0.40201 0.20391 0.17634 0.0
C1562 C 0.41594 0.19792 0.12499 0.0
C1563 C 0.43679 0.20569 0.17526 0.0
C1564 C 0.45525 0.22396 0.18032 0.0
C1565 C 0.47182 0.22438 0.19636 0.0
C1566 C 0.46968 0.20551 0.20676 0.0
C1567 C 0.45119 0.18648 0.20081 0.0
C1568 C 0.43441 0.1867 0.18538 0.0
H1569 H 0.17962 0.42886 0.46953 0.0
H1570 H 0.18806 0.48296 0.52155 0.0
H1571 H 0.21991 0.48667 0.54566 0.0
H1572 H 0.19698 0.4079 0.53219 0.0
H1573 H 0.20989 0.39897 0.50573 0.0
H1574 H 0.18762 0.40043 0.49235 0.0
H1575 H 0.20917 0.424 0.44574 0.0
H1576 H 0.23143 0.42246 0.45883 0.0
H1577 H 0.23337 0.44747 0.45372 0.0
H1578 H 0.25109 0.48504 0.56339 0.0
H1579 H 0.28031 0.47864 0.57237 0.0
H1580 H 0.25118 0.42505 0.51033 0.0
C1581 C 0.18811 0.44142 0.48611 0.0
C1582 C 0.18142 0.45574 0.49338 0.0
C1583 C 0.19309 0.47206 0.51503 0.0
C1584 C 0.21109 0.47418 0.52915 0.0
C1585 C 0.21717 0.45977 0.52156 0.0
C1586 C 0.20609 0.44373 0.50053 0.0
C1587 C 0.21625 0.43058 0.49609 0.0
C1588 C 0.20182 0.40814 0.50726 0.0
C1589 C 0.22295 0.43118 0.46155 0.0
C1590 C 0.23487 0.44188 0.5177 0.0
C1591 C 0.23504 0.45862 0.53224 0.0
C1592 C 0.25108 0.47191 0.55232 0.0
C1593 C 0.26758 0.46818 0.55724 0.0
C1594 C 0.26786 0.45129 0.54222 0.0
C1595 C 0.25113 0.43782 0.52259 0.0
H1596 H 0.73779 0.18889 0.84471 0.0
H1597 H 0.75034 0.18287 0.74621 0.0
H1598 H 0.78685 0.2105 0.75357 0.0
H1599 H 0.76953 0.24486 0.84798 0.0
H1600 H 0.77791 0.24488 0.88794 0.0
H1601 H 0.7529 0.22442 0.87486 0.0
H1602 H 0.7629 0.19701 0.89176 0.0
H1603 H 0.78801 0.21738 0.90461 0.0
H1604 H 0.78619 0.19852 0.87608 0.0
H1605 H 0.82198 0.23838 0.77186 0.0
H1606 H 0.85284 0.26621 0.7988 0.0
H1607 H 0.81692 0.25481 0.8848 0.0
C1608 C 0.74806 0.19357 0.82446 0.0
C1609 C 0.74113 0.18366 0.79483 0.0
C1610 C 0.75531 0.19002 0.76923 0.0
C1611 C 0.77605 0.20575 0.77315 0.0
C1612 C 0.78233 0.21502 0.80274 0.0
C1613 C 0.76871 0.20931 0.82786 0.0
C1614 C 0.77929 0.22191 0.85711 0.0
C1615 C 0.76932 0.23478 0.86757 0.0
C1616 C 0.77908 0.20786 0.88397 0.0
C1617 C 0.80104 0.23565 0.84451 0.0
C1618 C 0.8025 0.2313 0.81317 0.0
C1619 C 0.82104 0.2419 0.7964 0.0
C1620 C 0.83851 0.25754 0.81198 0.0
C1621 C 0.83727 0.26248 0.84395 0.0
C1622 C 0.81828 0.25132 0.86037 0.0
H1623 H 0.56329 0.75064 0.13472 0.0
H1624 H 0.53083 0.71099 0.2146 0.0
H1625 H 0.53144 0.74071 0.2418 0.0
H1626 H 0.59684 0.79665 0.17934 0.0
H1627 H 0.59541 0.81414 0.15127 0.0
H1628 H 0.59255 0.78977 0.13809 0.0
H1629 H 0.55696 0.77984 0.1128 0.0
H1630 H 0.55984 0.80425 0.1256 0.0
H1631 H 0.53706 0.78023 0.13669 0.0
H1632 H 0.53585 0.77487 0.26043 0.0
H1633 H 0.54186 0.81051 0.26759 0.0
H1634 H 0.57069 0.82729 0.17495 0.0
C1635 C 0.55635 0.74826 0.15795 0.0
C1636 C 0.54692 0.72855 0.17252 0.0
C1637 C 0.53785 0.72593 0.20283 0.0
C1638 C 0.53828 0.74274 0.21858 0.0
C1639 C 0.54781 0.76201 0.20364 0.0
C1640 C 0.55653 0.76482 0.17391 0.0
C1641 C 0.56531 0.78698 0.16272 0.0
C1642 C 0.58893 0.7975 0.15756 0.0
C1643 C 0.55412 0.78787 0.13268 0.0
C1644 C 0.56015 0.79617 0.1908 0.0
C1645 C 0.55019 0.78159 0.21425 0.0
C1646 C 0.54364 0.78644 0.24222 0.0
C1647 C 0.54706 0.80668 0.24604 0.0
C1648 C 0.55686 0.82174 0.22196 0.0
C1649 C 0.56362 0.81634 0.19417 0.0
H1650 H 0.8198 0.56907 0.48586 0.0
H1651 H 0.79763 0.50301 0.49306 0.0
H1652 H 0.76256 0.49665 0.50708 0.0
H1653 H 0.79083 0.57161 0.55203 0.0
H1654 H 0.78558 0.59052 0.53409 0.0
H1655 H 0.80877 0.58986 0.52365 0.0
H1656 H 0.79839 0.58586 0.46454 0.0
H1657 H 0.77531 0.58674 0.47476 0.0
H1658 H 0.77321 0.56505 0.4526 0.0
H1659 H 0.72992 0.49744 0.51878 0.0
H1660 H 0.70171 0.50544 0.52806 0.0
H1661 H 0.7456 0.57113 0.51639 0.0
C1662 C 0.80746 0.55327 0.49006 0.0
C1663 C 0.81121 0.53647 0.48822 0.0
C1664 C 0.79491 0.51602 0.49439 0.0
C1665 C 0.77502 0.51229 0.50236 0.0
C1666 C 0.77185 0.52922 0.50441 0.0
C1667 C 0.7876 0.54931 0.49852 0.0
C1668 C 0.78016 0.56477 0.5029 0.0
C1669 C 0.79204 0.58009 0.52977 0.0
C1670 C 0.78186 0.57628 0.47185 0.0
C1671 C 0.75771 0.55021 0.51185 0.0
C1672 C 0.75322 0.52976 0.51248 0.0
C1673 C 0.73327 0.51339 0.51871 0.0
C1674 C 0.71742 0.51804 0.52401 0.0
C1675 C 0.72173 0.53886 0.52341 0.0
C1676 C 0.74213 0.55514 0.51764 0.0
H1677 H 0.18835 0.73861 0.87606 0.0
H1678 H 0.14112 0.74417 0.82376 0.0
H1679 H 0.16846 0.77557 0.79714 0.0
H1680 H 0.22348 0.79418 0.88685 0.0
H1681 H 0.24644 0.79198 0.88235 0.0
H1682 H 0.22299 0.77053 0.89813 0.0
H1683 H 0.22415 0.7465 0.85472 0.0
H1684 H 0.24742 0.76795 0.83852 0.0
H1685 H 0.22494 0.75349 0.81376 0.0
H1686 H 0.20109 0.80522 0.77403 0.0
H1687 H 0.23657 0.83268 0.75945 0.0
H1688 H 0.26214 0.80798 0.82796 0.0
C1689 C 0.18378 0.74657 0.85922 0.0
C1690 C 0.16264 0.73908 0.85212 0.0
C1691 C 0.15723 0.74989 0.82997 0.0
C1692 C 0.17264 0.7676 0.81451 0.0
C1693 C 0.19336 0.77435 0.8216 0.0
C1694 C 0.19894 0.76433 0.84372 0.0
C1695 C 0.2223 0.77472 0.84701 0.0
C1696 C 0.22921 0.78337 0.88058 0.0
C1697 C 0.23016 0.75977 0.83796 0.0
C1698 C 0.22898 0.79201 0.82305 0.0
C1699 C 0.21209 0.79151 0.80854 0.0
C1700 C 0.21445 0.80588 0.78541 0.0
C1701 C 0.23465 0.82142 0.77732 0.0
C1702 C 0.25219 0.8225 0.79244 0.0
C1703 C 0.24917 0.80742 0.81543 0.0
loop_
_geom_bond_atom_site_label_1
_geom_bond_atom_site_label_2
_geom_bond_distance
_geom_bond_site_symmetry_2
_ccdc_geom_bond_type
Li0 N17 1.990 . S
Li0 O60 1.956 . S
Li0 O61 1.970 . S
Li0 O62 1.961 . S
Li1 N25 1.990 . S
Li1 O60 1.970 . S
Li1 O61 1.956 . S
Li1 O63 1.961 . S
Li2 N47 1.990 . S
Li2 O60 1.961 . S
Li2 O62 1.956 . S
Li2 O63 1.970 . S
Li3 N53 1.990 . S
Li3 O61 1.961 . S
Li3 O62 1.970 . S
Li3 O63 1.956 . S
C4 C6 1.348 . S
C4 C7 1.356 . S
C4 O60 1.325 . S
N5 C8 1.314 . S
N5 C9 1.279 . S
C6 C4 1.348 . S
C6 C8 1.353 . S
C6 H64 0.929 . S
C7 C4 1.356 . S
C7 C9 1.358 . S
C7 H65 0.930 . S
C8 N5 1.314 . S
C8 C6 1.353 . S
C8 H66 0.930 . S
C9 N5 1.279 . S
C9 C7 1.358 . S
C9 H67 0.930 . S
C10 C13 1.348 . S
C10 C14 1.356 . S
C10 O61 1.325 . S
C11 N12 1.279 . S
C11 C14 1.358 . S
C11 H68 0.930 . S
N12 C11 1.279 . S
N12 C15 1.314 . S
C13 C10 1.348 . S
C13 C15 1.353 . S
C13 H69 0.929 . S
C14 C10 1.356 . S
C14 C11 1.358 . S
C14 H70 0.930 . S
C15 N12 1.314 . S
C15 C13 1.353 . S
C15 H71 0.930 . S
C16 N17 1.314 . S
C16 C21 1.353 . S
C16 H22 0.930 . S
N17 Li0 1.990 . S
N17 C16 1.314 . S
N17 C19 1.279 . S
C18 C19 1.358 . S
C18 C20 1.356 . S
C18 H72 0.930 . S
C19 N17 1.279 . S
C19 C18 1.358 . S
C19 H23 0.930 . S
C20 C18 1.356 . S
C20 C21 1.348 . S
C21 C16 1.353 . S
C21 C20 1.348 . S
C21 H73 0.929 1_545 S
H22 C16 0.930 . S
H23 C19 0.930 . S
C24 N25 1.314 . S
C24 C26 1.353 . S
C24 H30 0.930 . S
N25 Li1 1.990 . S
N25 C24 1.314 . S
N25 C28 1.279 . S
C26 C24 1.353 . S
C26 C29 1.348 . S
C26 H74 0.929 . S
C27 C28 1.358 . S
C27 C29 1.356 . S
C27 H75 0.930 . S
C28 N25 1.279 . S
C28 C27 1.358 . S
C28 H31 0.930 . S
C29 C26 1.348 . S
C29 C27 1.356 . S
H30 C24 0.930 . S
H31 C28 0.930 . S
C32 C34 1.348 . S
C32 C35 1.356 . S
C32 O62 1.325 . S
N33 C36 1.314 . S
N33 C37 1.279 . S
C34 C32 1.348 . S
C34 C36 1.353 . S
C34 H76 0.929 . S
C35 C32 1.356 . S
C35 C37 1.358 . S
C35 H77 0.930 . S
C36 N33 1.314 . S
C36 C34 1.353 . S
C36 H78 0.930 . S
C37 N33 1.279 . S
C37 C35 1.358 . S
C37 H79 0.930 . S
C38 C39 1.348 . S
C38 C40 1.356 . S
C38 O63 1.325 . S
C39 C38 1.348 . S
C39 C41 1.353 . S
C39 H80 0.929 . S
C40 C38 1.356 . S
C40 C42 1.358 . S
C40 H81 0.930 . S
C41 C39 1.353 . S
C41 N43 1.314 . S
C41 H82 0.930 . S
C42 C40 1.358 . S
C42 N43 1.279 . S
C42 H83 0.930 . S
N43 C41 1.314 . S
N43 C42 1.279 . S
C44 C46 1.353 . S
C44 N47 1.314 . S
C44 H50 0.930 . S
C45 N47 1.279 . S
C45 C48 1.358 . S
C45 H51 0.930 . S
C46 C44 1.353 . S
C46 C49 1.348 . S
C46 H84 0.929 . S
N47 Li2 1.990 . S
N47 C44 1.314 . S
N47 C45 1.279 . S
C48 C45 1.358 . S
C48 C49 1.356 . S
C48 H85 0.930 . S
C49 C46 1.348 . S
C49 C48 1.356 . S
H50 C44 0.930 . S
H51 C45 0.930 . S
C52 N53 1.314 . S
C52 C54 1.353 . S
C52 H58 0.930 . S
N53 Li3 1.990 . S
N53 C52 1.314 . S
N53 C56 1.279 . S
C54 C52 1.353 . S
C54 C57 1.348 . S
C54 H86 0.929 . S
C55 C56 1.358 . S
C55 C57 1.356 . S
C55 H87 0.930 . S
C56 N53 1.279 . S
C56 C55 1.358 . S
C56 H59 0.930 . S
C57 C54 1.348 . S
C57 C55 1.356 . S
H58 C52 0.930 . S
H59 C56 0.930 . S
O60 Li0 1.956 . S
O60 Li1 1.970 . S
O60 Li2 1.961 . S
O60 C4 1.325 . S
O61 Li0 1.970 . S
O61 Li1 1.956 . S
O61 Li3 1.961 . S
O61 C10 1.325 . S
O62 Li0 1.961 . S
O62 Li2 1.956 . S
O62 Li3 1.970 . S
O62 C32 1.325 . S
O63 Li1 1.961 . S
O63 Li2 1.970 . S
O63 Li3 1.956 . S
O63 C38 1.325 . S
H64 C6 0.929 . S
H65 C7 0.930 . S
H66 C8 0.930 . S
H67 C9 0.930 . S
H68 C11 0.930 . S
H69 C13 0.929 . S
H70 C14 0.930 . S
H71 C15 0.930 . S
H72 C18 0.930 . S
H73 C21 0.929 1_565 S
H74 C26 0.929 . S
H75 C27 0.930 . S
H76 C34 0.929 . S
H77 C35 0.930 . S
H78 C36 0.930 . S
H79 C37 0.930 . S
H80 C39 0.929 . S
H81 C40 0.930 . S
H82 C41 0.930 . S
H83 C42 0.930 . S
H84 C46 0.929 . S
H85 C48 0.930 . S
H86 C54 0.929 . S
H87 C55 0.930 . S
Li88 N105 1.990 . S
Li88 O148 1.956 . S
Li88 O149 1.970 . S
Li88 O150 1.961 . S
Li89 N113 1.990 . S
Li89 O148 1.970 . S
Li89 O149 1.956 . S
Li89 O151 1.961 . S
Li90 N135 1.990 . S
Li90 O148 1.961 . S
Li90 O150 1.956 . S
Li90 O151 1.970 . S
Li91 N141 1.990 . S
Li91 O149 1.961 . S
Li91 O150 1.970 . S
Li91 O151 1.956 . S
C92 C94 1.348 . S
C92 C95 1.356 . S
C92 O148 1.325 . S
N93 C96 1.314 . S
N93 C97 1.279 . S
C94 C92 1.348 . S
C94 C96 1.353 . S
C94 H152 0.929 . S
C95 C92 1.356 . S
C95 C97 1.358 . S
C95 H153 0.930 . S
C96 N93 1.314 . S
C96 C94 1.353 . S
C96 H154 0.930 . S
C97 N93 1.279 . S
C97 C95 1.358 . S
C97 H155 0.930 . S
C98 C101 1.348 . S
C98 C102 1.356 . S
C98 O149 1.325 . S
C99 N100 1.279 . S
C99 C102 1.358 . S
C99 H156 0.930 . S
N100 C99 1.279 . S
N100 C103 1.314 . S
C101 C98 1.348 . S
C101 C103 1.353 . S
C101 H157 0.929 . S
C102 C98 1.356 . S
C102 C99 1.358 . S
C102 H158 0.930 . S
C103 N100 1.314 . S
C103 C101 1.353 . S
C103 H159 0.930 . S
C104 N105 1.314 . S
C104 C109 1.353 . S
C104 H110 0.930 . S
N105 Li88 1.990 . S
N105 C104 1.314 . S
N105 C107 1.279 . S
C106 C107 1.358 . S
C106 C108 1.356 . S
C106 H160 0.930 . S
C107 N105 1.279 . S
C107 C106 1.358 . S
C107 H111 0.930 . S
C108 C106 1.356 . S
C108 C109 1.348 . S
C109 C104 1.353 . S
C109 C108 1.348 . S
C109 H161 0.929 . S
H110 C104 0.930 . S
H111 C107 0.930 . S
C112 N113 1.314 . S
C112 C114 1.353 . S
C112 H118 0.930 . S
N113 Li89 1.990 . S
N113 C112 1.314 . S
N113 C116 1.279 . S
C114 C112 1.353 . S
C114 C117 1.348 . S
C114 H162 0.929 . S
C115 C116 1.358 . S
C115 C117 1.356 . S
C115 H163 0.930 . S
C116 N113 1.279 . S
C116 C115 1.358 . S
C116 H119 0.930 . S
C117 C114 1.348 . S
C117 C115 1.356 . S
H118 C112 0.930 . S
H119 C116 0.930 . S
C120 C122 1.348 . S
C120 C123 1.356 . S
C120 O150 1.325 . S
N121 C124 1.314 . S
N121 C125 1.279 . S
C122 C120 1.348 . S
C122 C124 1.353 . S
C122 H164 0.929 . S
C123 C120 1.356 . S
C123 C125 1.358 . S
C123 H165 0.930 . S
C124 N121 1.314 . S
C124 C122 1.353 . S
C124 H166 0.930 . S
C125 N121 1.279 . S
C125 C123 1.358 . S
C125 H167 0.930 . S
C126 C127 1.348 . S
C126 C128 1.356 . S
C126 O151 1.325 . S
C127 C126 1.348 . S
C127 C129 1.353 . S
C127 H168 0.929 . S
C128 C126 1.356 . S
C128 C130 1.358 . S
C128 H169 0.930 . S
C129 C127 1.353 . S
C129 N131 1.314 . S
C129 H170 0.930 . S
C130 C128 1.358 . S
C130 N131 1.279 . S
C130 H171 0.930 . S
N131 C129 1.314 . S
N131 C130 1.279 . S
C132 C134 1.353 . S
C132 N135 1.314 . S
C132 H138 0.930 . S
C133 N135 1.279 . S
C133 C136 1.358 . S
C133 H139 0.930 . S
C134 C132 1.353 . S
C134 C137 1.348 . S
C134 H172 0.929 . S
N135 Li90 1.990 . S
N135 C132 1.314 . S
N135 C133 1.279 . S
C136 C133 1.358 . S
C136 C137 1.356 . S
C136 H173 0.930 . S
C137 C134 1.348 . S
C137 C136 1.356 . S
H138 C132 0.930 . S
H139 C133 0.930 . S
C140 N141 1.314 . S
C140 C142 1.353 . S
C140 H146 0.930 . S
N141 Li91 1.990 . S
N141 C140 1.314 . S
N141 C144 1.279 . S
C142 C140 1.353 . S
C142 C145 1.348 . S
C142 H174 0.929 . S
C143 C144 1.358 . S
C143 C145 1.356 . S
C143 H175 0.930 . S
C144 N141 1.279 . S
C144 C143 1.358 . S
C144 H147 0.930 . S
C145 C142 1.348 . S
C145 C143 1.356 . S
H146 C140 0.930 . S
H147 C144 0.930 . S
O148 Li88 1.956 . S
O148 Li89 1.970 . S
O148 Li90 1.961 . S
O148 C92 1.325 . S
O149 Li88 1.970 . S
O149 Li89 1.956 . S
O149 Li91 1.961 . S
O149 C98 1.325 . S
O150 Li88 1.961 . S
O150 Li90 1.956 . S
O150 Li91 1.970 . S
O150 C120 1.325 . S
O151 Li89 1.961 . S
O151 Li90 1.970 . S
O151 Li91 1.956 . S
O151 C126 1.325 . S
H152 C94 0.929 . S
H153 C95 0.930 . S
H154 C96 0.930 . S
H155 C97 0.930 . S
H156 C99 0.930 . S
H157 C101 0.929 . S
H158 C102 0.930 . S
H159 C103 0.930 . S
H160 C106 0.930 . S
H161 C109 0.929 . S
H162 C114 0.929 . S
H163 C115 0.930 . S
H164 C122 0.929 . S
H165 C123 0.930 . S
H166 C124 0.930 . S
H167 C125 0.930 . S
H168 C127 0.929 . S
H169 C128 0.930 . S
H170 C129 0.930 . S
H171 C130 0.930 . S
H172 C134 0.929 . S
H173 C136 0.930 . S
H174 C142 0.929 . S
H175 C143 0.930 . S
Li176 N193 1.990 . S
Li176 O236 1.956 . S
Li176 O237 1.970 . S
Li176 O238 1.961 . S
Li177 N201 1.990 . S
Li177 O236 1.970 . S
Li177 O237 1.956 . S
Li177 O239 1.961 . S
Li178 N223 1.990 . S
Li178 O236 1.961 . S
Li178 O238 1.956 . S
Li178 O239 1.970 . S
Li179 N229 1.990 . S
Li179 O237 1.961 . S
Li179 O238 1.970 . S
Li179 O239 1.956 . S
C180 C182 1.348 . S
C180 C183 1.356 . S
C180 O236 1.325 . S
N181 C184 1.314 . S
N181 C185 1.279 . S
C182 C180 1.348 . S
C182 C184 1.353 . S
C182 H240 0.929 . S
C183 C180 1.356 . S
C183 C185 1.358 . S
C183 H241 0.930 . S
C184 N181 1.314 . S
C184 C182 1.353 . S
C184 H242 0.930 . S
C185 N181 1.279 . S
C185 C183 1.358 . S
C185 H243 0.930 . S
C186 C189 1.348 . S
C186 C190 1.356 . S
C186 O237 1.325 . S
C187 N188 1.279 . S
C187 C190 1.358 . S
C187 H244 0.930 . S
N188 C187 1.279 . S
N188 C191 1.314 . S
C189 C186 1.348 . S
C189 C191 1.353 . S
C189 H245 0.929 . S
C190 C186 1.356 . S
C190 C187 1.358 . S
C190 H246 0.930 . S
C191 N188 1.314 . S
C191 C189 1.353 . S
C191 H247 0.930 . S
C192 N193 1.314 . S
C192 C197 1.353 . S
C192 H198 0.930 . S
N193 Li176 1.990 . S
N193 C192 1.314 . S
N193 C195 1.279 . S
C194 C195 1.358 . S
C194 C196 1.356 . S
C194 H248 0.930 . S
C195 N193 1.279 . S
C195 C194 1.358 . S
C195 H199 0.930 . S
C196 C194 1.356 . S
C196 C197 1.348 . S
C197 C192 1.353 . S
C197 C196 1.348 . S
C197 H249 0.929 . S
H198 C192 0.930 . S
H199 C195 0.930 . S
C200 N201 1.314 . S
C200 C202 1.353 . S
C200 H206 0.930 . S
N201 Li177 1.990 . S
N201 C200 1.314 . S
N201 C204 1.279 . S
C202 C200 1.353 . S
C202 C205 1.348 . S
C202 H250 0.929 . S
C203 C204 1.358 . S
C203 C205 1.356 . S
C203 H251 0.930 . S
C204 N201 1.279 . S
C204 C203 1.358 . S
C204 H207 0.930 . S
C205 C202 1.348 . S
C205 C203 1.356 . S
H206 C200 0.930 . S
H207 C204 0.930 . S
C208 C210 1.348 . S
C208 C211 1.356 . S
C208 O238 1.325 . S
N209 C212 1.314 . S
N209 C213 1.279 . S
C210 C208 1.348 . S
C210 C212 1.353 . S
C210 H252 0.929 . S
C211 C208 1.356 . S
C211 C213 1.358 . S
C211 H253 0.930 . S
C212 N209 1.314 . S
C212 C210 1.353 . S
C212 H254 0.930 . S
C213 N209 1.279 . S
C213 C211 1.358 . S
C213 H255 0.930 . S
C214 C215 1.348 . S
C214 C216 1.356 . S
C214 O239 1.325 . S
C215 C214 1.348 . S
C215 C217 1.353 . S
C215 H256 0.929 . S
C216 C214 1.356 . S
C216 C218 1.358 . S
C216 H257 0.930 . S
C217 C215 1.353 . S
C217 N219 1.314 . S
C217 H258 0.930 . S
C218 C216 1.358 . S
C218 N219 1.279 . S
C218 H259 0.930 . S
N219 C217 1.314 . S
N219 C218 1.279 . S
C220 C222 1.353 . S
C220 N223 1.314 . S
C220 H226 0.930 . S
C221 N223 1.279 . S
C221 C224 1.358 . S
C221 H227 0.930 . S
C222 C220 1.353 . S
C222 C225 1.348 . S
C222 H260 0.929 1_655 S
N223 Li178 1.990 . S
N223 C220 1.314 . S
N223 C221 1.279 . S
C224 C221 1.358 . S
C224 C225 1.356 . S
C224 H261 0.930 . S
C225 C222 1.348 . S
C225 C224 1.356 . S
H226 C220 0.930 . S
H227 C221 0.930 . S
C228 N229 1.314 . S
C228 C230 1.353 . S
C228 H234 0.930 . S
N229 Li179 1.990 . S
N229 C228 1.314 . S
N229 C232 1.279 . S
C230 C228 1.353 . S
C230 C233 1.348 . S
C230 H262 0.929 . S
C231 C232 1.358 . S
C231 C233 1.356 . S
C231 H263 0.930 . S
C232 N229 1.279 . S
C232 C231 1.358 . S
C232 H235 0.930 . S
C233 C230 1.348 . S
C233 C231 1.356 . S
H234 C228 0.930 . S
H235 C232 0.930 . S
O236 Li176 1.956 . S
O236 Li177 1.970 . S
O236 Li178 1.961 . S
O236 C180 1.325 . S
O237 Li176 1.970 . S
O237 Li177 1.956 . S
O237 Li179 1.961 . S
O237 C186 1.325 . S
O238 Li176 1.961 . S
O238 Li178 1.956 . S
O238 Li179 1.970 . S
O238 C208 1.325 . S
O239 Li177 1.961 . S
O239 Li178 1.970 . S
O239 Li179 1.956 . S
O239 C214 1.325 . S
H240 C182 0.929 . S
H241 C183 0.930 . S
H242 C184 0.930 . S
H243 C185 0.930 . S
H244 C187 0.930 . S
H245 C189 0.929 . S
H246 C190 0.930 . S
H247 C191 0.930 . S
H248 C194 0.930 . S
H249 C197 0.929 . S
H250 C202 0.929 . S
H251 C203 0.930 . S
H252 C210 0.929 . S
H253 C211 0.930 . S
H254 C212 0.930 . S
H255 C213 0.930 . S
H256 C215 0.929 . S
H257 C216 0.930 . S
H258 C217 0.930 . S
H259 C218 0.930 . S
H260 C222 0.929 1_455 S
H261 C224 0.930 . S
H262 C230 0.929 . S
H263 C231 0.930 . S
Li264 N281 1.990 . S
Li264 O324 1.956 . S
Li264 O325 1.970 . S
Li264 O326 1.961 . S
Li265 N289 1.990 . S
Li265 O324 1.970 . S
Li265 O325 1.956 . S
Li265 O327 1.961 . S
Li266 N311 1.990 . S
Li266 O324 1.961 . S
Li266 O326 1.956 . S
Li266 O327 1.970 . S
Li267 N317 1.990 . S
Li267 O325 1.961 . S
Li267 O326 1.970 . S
Li267 O327 1.956 . S
C268 C270 1.348 . S
C268 C271 1.356 . S
C268 O324 1.325 . S
N269 C272 1.314 . S
N269 C273 1.279 . S
C270 C268 1.348 . S
C270 C272 1.353 . S
C270 H328 0.929 . S
C271 C268 1.356 . S
C271 C273 1.358 . S
C271 H329 0.930 . S
C272 N269 1.314 . S
C272 C270 1.353 . S
C272 H330 0.930 . S
C273 N269 1.279 . S
C273 C271 1.358 . S
C273 H331 0.930 . S
C274 C277 1.348 . S
C274 C278 1.356 . S
C274 O325 1.325 . S
C275 N276 1.279 . S
C275 C278 1.358 . S
C275 H332 0.930 . S
N276 C275 1.279 . S
N276 C279 1.314 . S
C277 C274 1.348 . S
C277 C279 1.353 . S
C277 H333 0.929 . S
C278 C274 1.356 . S
C278 C275 1.358 . S
C278 H334 0.930 . S
C279 N276 1.314 . S
C279 C277 1.353 . S
C279 H335 0.930 . S
C280 N281 1.314 . S
C280 C285 1.353 . S
C280 H286 0.930 . S
N281 Li264 1.990 . S
N281 C280 1.314 . S
N281 C283 1.279 . S
C282 C283 1.358 . S
C282 C284 1.356 . S
C282 H336 0.930 . S
C283 N281 1.279 . S
C283 C282 1.358 . S
C283 H287 0.930 . S
C284 C282 1.356 . S
C284 C285 1.348 . S
C285 C280 1.353 . S
C285 C284 1.348 . S
C285 H337 0.929 . S
H286 C280 0.930 . S
H287 C283 0.930 . S
C288 N289 1.314 . S
C288 C290 1.353 . S
C288 H294 0.930 . S
N289 Li265 1.990 . S
N289 C288 1.314 . S
N289 C292 1.279 . S
C290 C288 1.353 . S
C290 C293 1.348 . S
C290 H338 0.929 . S
C291 C292 1.358 . S
C291 C293 1.356 . S
C291 H339 0.930 . S
C292 N289 1.279 . S
C292 C291 1.358 . S
C292 H295 0.930 . S
C293 C290 1.348 . S
C293 C291 1.356 . S
H294 C288 0.930 . S
H295 C292 0.930 . S
C296 C298 1.348 . S
C296 C299 1.356 . S
C296 O326 1.325 . S
N297 C300 1.314 . S
N297 C301 1.279 . S
C298 C296 1.348 . S
C298 C300 1.353 . S
C298 H340 0.929 . S
C299 C296 1.356 . S
C299 C301 1.358 . S
C299 H341 0.930 . S
C300 N297 1.314 . S
C300 C298 1.353 . S
C300 H342 0.930 . S
C301 N297 1.279 . S
C301 C299 1.358 . S
C301 H343 0.930 . S
C302 C303 1.348 . S
C302 C304 1.356 . S
C302 O327 1.325 . S
C303 C302 1.348 . S
C303 C305 1.353 . S
C303 H344 0.929 . S
C304 C302 1.356 . S
C304 C306 1.358 . S
C304 H345 0.930 . S
C305 C303 1.353 . S
C305 N307 1.314 . S
C305 H346 0.930 . S
C306 C304 1.358 . S
C306 N307 1.279 . S
C306 H347 0.930 . S
N307 C305 1.314 . S
N307 C306 1.279 . S
C308 C310 1.353 . S
C308 N311 1.314 . S
C308 H314 0.930 . S
C309 N311 1.279 . S
C309 C312 1.358 . S
C309 H315 0.930 . S
C310 C308 1.353 . S
C310 C313 1.348 . S
C310 H348 0.929 1_565 S
N311 Li266 1.990 . S
N311 C308 1.314 . S
N311 C309 1.279 . S
C312 C309 1.358 . S
C312 C313 1.356 . S
C312 H349 0.930 . S
C313 C310 1.348 . S
C313 C312 1.356 . S
H314 C308 0.930 . S
H315 C309 0.930 . S
C316 N317 1.314 . S
C316 C318 1.353 . S
C316 H322 0.930 . S
N317 Li267 1.990 . S
N317 C316 1.314 . S
N317 C320 1.279 . S
C318 C316 1.353 . S
C318 C321 1.348 . S
C318 H350 0.929 . S
C319 C320 1.358 . S
C319 C321 1.356 . S
C319 H351 0.930 . S
C320 N317 1.279 . S
C320 C319 1.358 . S
C320 H323 0.930 . S
C321 C318 1.348 . S
C321 C319 1.356 . S
H322 C316 0.930 . S
H323 C320 0.930 . S
O324 Li264 1.956 . S
O324 Li265 1.970 . S
O324 Li266 1.961 . S
O324 C268 1.325 . S
O325 Li264 1.970 . S
O325 Li265 1.956 . S
O325 Li267 1.961 . S
O325 C274 1.325 . S
O326 Li264 1.961 . S
O326 Li266 1.956 . S
O326 Li267 1.970 . S
O326 C296 1.325 . S
O327 Li265 1.961 . S
O327 Li266 1.970 . S
O327 Li267 1.956 . S
O327 C302 1.325 . S
H328 C270 0.929 . S
H329 C271 0.930 . S
H330 C272 0.930 . S
H331 C273 0.930 . S
H332 C275 0.930 . S
H333 C277 0.929 . S
H334 C278 0.930 . S
H335 C279 0.930 . S
H336 C282 0.930 . S
H337 C285 0.929 . S
H338 C290 0.929 . S
H339 C291 0.930 . S
H340 C298 0.929 . S
H341 C299 0.930 . S
H342 C300 0.930 . S
H343 C301 0.930 . S
H344 C303 0.929 . S
H345 C304 0.930 . S
H346 C305 0.930 . S
H347 C306 0.930 . S
H348 C310 0.929 1_545 S
H349 C312 0.930 . S
H350 C318 0.929 . S
H351 C319 0.930 . S
Li352 N369 1.990 . S
Li352 O412 1.956 . S
Li352 O413 1.970 . S
Li352 O414 1.961 . S
Li353 N377 1.990 . S
Li353 O412 1.970 . S
Li353 O413 1.956 . S
Li353 O415 1.961 . S
Li354 N399 1.990 . S
Li354 O412 1.961 . S
Li354 O414 1.956 . S
Li354 O415 1.970 . S
Li355 N405 1.990 . S
Li355 O413 1.961 . S
Li355 O414 1.970 . S
Li355 O415 1.956 . S
C356 C358 1.348 . S
C356 C359 1.356 . S
C356 O412 1.325 . S
N357 C360 1.314 . S
N357 C361 1.279 . S
C358 C356 1.348 . S
C358 C360 1.353 . S
C358 H416 0.929 . S
C359 C356 1.356 . S
C359 C361 1.358 . S
C359 H417 0.930 . S
C360 N357 1.314 . S
C360 C358 1.353 . S
C360 H418 0.930 . S
C361 N357 1.279 . S
C361 C359 1.358 . S
C361 H419 0.930 . S
C362 C365 1.348 . S
C362 C366 1.356 . S
C362 O413 1.325 . S
C363 N364 1.279 . S
C363 C366 1.358 . S
C363 H420 0.930 . S
N364 C363 1.279 . S
N364 C367 1.314 . S
C365 C362 1.348 . S
C365 C367 1.353 . S
C365 H421 0.929 . S
C366 C362 1.356 . S
C366 C363 1.358 . S
C366 H422 0.930 . S
C367 N364 1.314 . S
C367 C365 1.353 . S
C367 H423 0.930 . S
C368 N369 1.314 . S
C368 C373 1.353 . S
C368 H374 0.930 . S
N369 Li352 1.990 . S
N369 C368 1.314 . S
N369 C371 1.279 . S
C370 C371 1.358 . S
C370 C372 1.356 . S
C370 H424 0.930 . S
C371 N369 1.279 . S
C371 C370 1.358 . S
C371 H375 0.930 . S
C372 C370 1.356 . S
C372 C373 1.348 . S
C373 C368 1.353 . S
C373 C372 1.348 . S
C373 H425 0.929 . S
H374 C368 0.930 . S
H375 C371 0.930 . S
C376 N377 1.314 . S
C376 C378 1.353 . S
C376 H382 0.930 . S
N377 Li353 1.990 . S
N377 C376 1.314 . S
N377 C380 1.279 . S
C378 C376 1.353 . S
C378 C381 1.348 . S
C378 H426 0.929 . S
C379 C380 1.358 . S
C379 C381 1.356 . S
C379 H427 0.930 . S
C380 N377 1.279 . S
C380 C379 1.358 . S
C380 H383 0.930 . S
C381 C378 1.348 . S
C381 C379 1.356 . S
H382 C376 0.930 . S
H383 C380 0.930 . S
C384 C386 1.348 . S
C384 C387 1.356 . S
C384 O414 1.325 . S
N385 C388 1.314 . S
N385 C389 1.279 . S
C386 C384 1.348 . S
C386 C388 1.353 . S
C386 H428 0.929 . S
C387 C384 1.356 . S
C387 C389 1.358 . S
C387 H429 0.930 . S
C388 N385 1.314 . S
C388 C386 1.353 . S
C388 H430 0.930 . S
C389 N385 1.279 . S
C389 C387 1.358 . S
C389 H431 0.930 . S
C390 C391 1.348 . S
C390 C392 1.356 . S
C390 O415 1.325 . S
C391 C390 1.348 . S
C391 C393 1.353 . S
C391 H432 0.929 . S
C392 C390 1.356 . S
C392 C394 1.358 . S
C392 H433 0.930 . S
C393 C391 1.353 . S
C393 N395 1.314 . S
C393 H434 0.930 . S
C394 C392 1.358 . S
C394 N395 1.279 . S
C394 H435 0.930 . S
N395 C393 1.314 . S
N395 C394 1.279 . S
C396 C398 1.353 . S
C396 N399 1.314 . S
C396 H402 0.930 . S
C397 N399 1.279 . S
C397 C400 1.358 . S
C397 H403 0.930 . S
C398 C396 1.353 . S
C398 C401 1.348 . S
C398 H436 0.929 . S
N399 Li354 1.990 . S
N399 C396 1.314 . S
N399 C397 1.279 . S
C400 C397 1.358 . S
C400 C401 1.356 . S
C400 H437 0.930 . S
C401 C398 1.348 . S
C401 C400 1.356 . S
H402 C396 0.930 . S
H403 C397 0.930 . S
C404 N405 1.314 . S
C404 C406 1.353 . S
C404 H410 0.930 . S
N405 Li355 1.990 . S
N405 C404 1.314 . S
N405 C408 1.279 . S
C406 C404 1.353 . S
C406 C409 1.348 . S
C406 H438 0.929 . S
C407 C408 1.358 . S
C407 C409 1.356 . S
C407 H439 0.930 . S
C408 N405 1.279 . S
C408 C407 1.358 . S
C408 H411 0.930 . S
C409 C406 1.348 . S
C409 C407 1.356 . S
H410 C404 0.930 . S
H411 C408 0.930 . S
O412 Li352 1.956 . S
O412 Li353 1.970 . S
O412 Li354 1.961 . S
O412 C356 1.325 . S
O413 Li352 1.970 . S
O413 Li353 1.956 . S
O413 Li355 1.961 . S
O413 C362 1.325 . S
O414 Li352 1.961 . S
O414 Li354 1.956 . S
O414 Li355 1.970 . S
O414 C384 1.325 . S
O415 Li353 1.961 . S
O415 Li354 1.970 . S
O415 Li355 1.956 . S
O415 C390 1.325 . S
H416 C358 0.929 . S
H417 C359 0.930 . S
H418 C360 0.930 . S
H419 C361 0.930 . S
H420 C363 0.930 . S
H421 C365 0.929 . S
H422 C366 0.930 . S
H423 C367 0.930 . S
H424 C370 0.930 . S
H425 C373 0.929 . S
H426 C378 0.929 . S
H427 C379 0.930 . S
H428 C386 0.929 . S
H429 C387 0.930 . S
H430 C388 0.930 . S
H431 C389 0.930 . S
H432 C391 0.929 . S
H433 C392 0.930 . S
H434 C393 0.930 . S
H435 C394 0.930 . S
H436 C398 0.929 . S
H437 C400 0.930 . S
H438 C406 0.929 . S
H439 C407 0.930 . S
Li440 N457 1.990 . S
Li440 O500 1.956 . S
Li440 O501 1.970 . S
Li440 O502 1.961 . S
Li441 N465 1.990 . S
Li441 O500 1.970 . S
Li441 O501 1.956 . S
Li441 O503 1.961 . S
Li442 N487 1.990 . S
Li442 O500 1.961 . S
Li442 O502 1.956 . S
Li442 O503 1.970 . S
Li443 N493 1.990 . S
Li443 O501 1.961 . S
Li443 O502 1.970 . S
Li443 O503 1.956 . S
C444 C446 1.348 . S
C444 C447 1.356 . S
C444 O500 1.325 . S
N445 C448 1.314 . S
N445 C449 1.279 . S
C446 C444 1.348 . S
C446 C448 1.353 . S
C446 H504 0.929 . S
C447 C444 1.356 . S
C447 C449 1.358 . S
C447 H505 0.930 . S
C448 N445 1.314 . S
C448 C446 1.353 . S
C448 H506 0.930 . S
C449 N445 1.279 . S
C449 C447 1.358 . S
C449 H507 0.930 . S
C450 C453 1.348 . S
C450 C454 1.356 . S
C450 O501 1.325 . S
C451 N452 1.279 . S
C451 C454 1.358 . S
C451 H508 0.930 . S
N452 C451 1.279 . S
N452 C455 1.314 . S
C453 C450 1.348 . S
C453 C455 1.353 . S
C453 H509 0.929 . S
C454 C450 1.356 . S
C454 C451 1.358 . S
C454 H510 0.930 . S
C455 N452 1.314 . S
C455 C453 1.353 . S
C455 H511 0.930 . S
C456 N457 1.314 . S
C456 C461 1.353 . S
C456 H462 0.930 . S
N457 Li440 1.990 . S
N457 C456 1.314 . S
N457 C459 1.279 . S
C458 C459 1.358 . S
C458 C460 1.356 . S
C458 H512 0.930 . S
C459 N457 1.279 . S
C459 C458 1.358 . S
C459 H463 0.930 . S
C460 C458 1.356 . S
C460 C461 1.348 . S
C461 C456 1.353 . S
C461 C460 1.348 . S
C461 H513 0.929 1_455 S
H462 C456 0.930 . S
H463 C459 0.930 . S
C464 N465 1.314 . S
C464 C466 1.353 . S
C464 H470 0.930 . S
N465 Li441 1.990 . S
N465 C464 1.314 . S
N465 C468 1.279 . S
C466 C464 1.353 . S
C466 C469 1.348 . S
C466 H514 0.929 . S
C467 C468 1.358 . S
C467 C469 1.356 . S
C467 H515 0.930 . S
C468 N465 1.279 . S
C468 C467 1.358 . S
C468 H471 0.930 . S
C469 C466 1.348 . S
C469 C467 1.356 . S
H470 C464 0.930 . S
H471 C468 0.930 . S
C472 C474 1.348 . S
C472 C475 1.356 . S
C472 O502 1.325 . S
N473 C476 1.314 . S
N473 C477 1.279 . S
C474 C472 1.348 . S
C474 C476 1.353 . S
C474 H516 0.929 . S
C475 C472 1.356 . S
C475 C477 1.358 . S
C475 H517 0.930 . S
C476 N473 1.314 . S
C476 C474 1.353 . S
C476 H518 0.930 . S
C477 N473 1.279 . S
C477 C475 1.358 . S
C477 H519 0.930 . S
C478 C479 1.348 . S
C478 C480 1.356 . S
C478 O503 1.325 . S
C479 C478 1.348 . S
C479 C481 1.353 . S
C479 H520 0.929 . S
C480 C478 1.356 . S
C480 C482 1.358 . S
C480 H521 0.930 . S
C481 C479 1.353 . S
C481 N483 1.314 . S
C481 H522 0.930 . S
C482 C480 1.358 . S
C482 N483 1.279 . S
C482 H523 0.930 . S
N483 C481 1.314 . S
N483 C482 1.279 . S
C484 C486 1.353 . S
C484 N487 1.314 . S
C484 H490 0.930 . S
C485 N487 1.279 . S
C485 C488 1.358 . S
C485 H491 0.930 . S
C486 C484 1.353 . S
C486 C489 1.348 . S
C486 H524 0.929 . S
N487 Li442 1.990 . S
N487 C484 1.314 . S
N487 C485 1.279 . S
C488 C485 1.358 . S
C488 C489 1.356 . S
C488 H525 0.930 . S
C489 C486 1.348 . S
C489 C488 1.356 . S
H490 C484 0.930 . S
H491 C485 0.930 . S
C492 N493 1.314 . S
C492 C494 1.353 . S
C492 H498 0.930 . S
N493 Li443 1.990 . S
N493 C492 1.314 . S
N493 C496 1.279 . S
C494 C492 1.353 . S
C494 C497 1.348 . S
C494 H526 0.929 . S
C495 C496 1.358 . S
C495 C497 1.356 . S
C495 H527 0.930 . S
C496 N493 1.279 . S
C496 C495 1.358 . S
C496 H499 0.930 . S
C497 C494 1.348 . S
C497 C495 1.356 . S
H498 C492 0.930 . S
H499 C496 0.930 . S
O500 Li440 1.956 . S
O500 Li441 1.970 . S
O500 Li442 1.961 . S
O500 C444 1.325 . S
O501 Li440 1.970 . S
O501 Li441 1.956 . S
O501 Li443 1.961 . S
O501 C450 1.325 . S
O502 Li440 1.961 . S
O502 Li442 1.956 . S
O502 Li443 1.970 . S
O502 C472 1.325 . S
O503 Li441 1.961 . S
O503 Li442 1.970 . S
O503 Li443 1.956 . S
O503 C478 1.325 . S
H504 C446 0.929 . S
H505 C447 0.930 . S
H506 C448 0.930 . S
H507 C449 0.930 . S
H508 C451 0.930 . S
H509 C453 0.929 . S
H510 C454 0.930 . S
H511 C455 0.930 . S
H512 C458 0.930 . S
H513 C461 0.929 1_655 S
H514 C466 0.929 . S
H515 C467 0.930 . S
H516 C474 0.929 . S
H517 C475 0.930 . S
H518 C476 0.930 . S
H519 C477 0.930 . S
H520 C479 0.929 . S
H521 C480 0.930 . S
H522 C481 0.930 . S
H523 C482 0.930 . S
H524 C486 0.929 . S
H525 C488 0.930 . S
H526 C494 0.929 . S
H527 C495 0.930 . S
Li528 N545 1.990 . S
Li528 O588 1.956 . S
Li528 O589 1.970 . S
Li528 O590 1.961 . S
Li529 N553 1.990 . S
Li529 O588 1.970 . S
Li529 O589 1.956 . S
Li529 O591 1.961 . S
Li530 N575 1.990 . S
Li530 O588 1.961 . S
Li530 O590 1.956 . S
Li530 O591 1.970 . S
Li531 N581 1.990 . S
Li531 O589 1.961 . S
Li531 O590 1.970 . S
Li531 O591 1.956 . S
C532 C534 1.348 . S
C532 C535 1.356 . S
C532 O588 1.325 . S
N533 C536 1.314 . S
N533 C537 1.279 . S
C534 C532 1.348 . S
C534 C536 1.353 . S
C534 H592 0.929 . S
C535 C532 1.356 . S
C535 C537 1.358 . S
C535 H593 0.930 . S
C536 N533 1.314 . S
C536 C534 1.353 . S
C536 H594 0.930 . S
C537 N533 1.279 . S
C537 C535 1.358 . S
C537 H595 0.930 . S
C538 C541 1.348 . S
C538 C542 1.356 . S
C538 O589 1.325 . S
C539 N540 1.279 . S
C539 C542 1.358 . S
C539 H596 0.930 . S
N540 C539 1.279 . S
N540 C543 1.314 . S
C541 C538 1.348 . S
C541 C543 1.353 . S
C541 H597 0.929 . S
C542 C538 1.356 . S
C542 C539 1.358 . S
C542 H598 0.930 . S
C543 N540 1.314 . S
C543 C541 1.353 . S
C543 H599 0.930 . S
C544 N545 1.314 . S
C544 C549 1.353 . S
C544 H550 0.930 . S
N545 Li528 1.990 . S
N545 C544 1.314 . S
N545 C547 1.279 . S
C546 C547 1.358 . S
C546 C548 1.356 . S
C546 H600 0.930 . S
C547 N545 1.279 . S
C547 C546 1.358 . S
C547 H551 0.930 . S
C548 C546 1.356 . S
C548 C549 1.348 . S
C549 C544 1.353 . S
C549 C548 1.348 . S
C549 H601 0.929 . S
H550 C544 0.930 . S
H551 C547 0.930 . S
C552 N553 1.314 . S
C552 C554 1.353 . S
C552 H558 0.930 . S
N553 Li529 1.990 . S
N553 C552 1.314 . S
N553 C556 1.279 . S
C554 C552 1.353 . S
C554 C557 1.348 . S
C554 H602 0.929 1_655 S
C555 C556 1.358 . S
C555 C557 1.356 . S
C555 H603 0.930 . S
C556 N553 1.279 . S
C556 C555 1.358 . S
C556 H559 0.930 . S
C557 C554 1.348 . S
C557 C555 1.356 . S
H558 C552 0.930 . S
H559 C556 0.930 . S
C560 C562 1.348 . S
C560 C563 1.356 . S
C560 O590 1.325 . S
N561 C564 1.314 . S
N561 C565 1.279 . S
C562 C560 1.348 . S
C562 C564 1.353 . S
C562 H604 0.929 . S
C563 C560 1.356 . S
C563 C565 1.358 . S
C563 H605 0.930 . S
C564 N561 1.314 . S
C564 C562 1.353 . S
C564 H606 0.930 . S
C565 N561 1.279 . S
C565 C563 1.358 . S
C565 H607 0.930 . S
C566 C567 1.348 . S
C566 C568 1.356 . S
C566 O591 1.325 . S
C567 C566 1.348 . S
C567 C569 1.353 . S
C567 H608 0.929 . S
C568 C566 1.356 . S
C568 C570 1.358 . S
C568 H609 0.930 . S
C569 C567 1.353 . S
C569 N571 1.314 . S
C569 H610 0.930 . S
C570 C568 1.358 . S
C570 N571 1.279 . S
C570 H611 0.930 . S
N571 C569 1.314 . S
N571 C570 1.279 . S
C572 C574 1.353 . S
C572 N575 1.314 . S
C572 H578 0.930 . S
C573 N575 1.279 . S
C573 C576 1.358 . S
C573 H579 0.930 . S
C574 C572 1.353 . S
C574 C577 1.348 . S
C574 H612 0.929 . S
N575 Li530 1.990 . S
N575 C572 1.314 . S
N575 C573 1.279 . S
C576 C573 1.358 . S
C576 C577 1.356 . S
C576 H613 0.930 . S
C577 C574 1.348 . S
C577 C576 1.356 . S
H578 C572 0.930 . S
H579 C573 0.930 . S
C580 N581 1.314 . S
C580 C582 1.353 . S
C580 H586 0.930 . S
N581 Li531 1.990 . S
N581 C580 1.314 . S
N581 C584 1.279 . S
C582 C580 1.353 . S
C582 C585 1.348 . S
C582 H614 0.929 . S
C583 C584 1.358 . S
C583 C585 1.356 . S
C583 H615 0.930 . S
C584 N581 1.279 . S
C584 C583 1.358 . S
C584 H587 0.930 . S
C585 C582 1.348 . S
C585 C583 1.356 . S
H586 C580 0.930 . S
H587 C584 0.930 . S
O588 Li528 1.956 . S
O588 Li529 1.970 . S
O588 Li530 1.961 . S
O588 C532 1.325 . S
O589 Li528 1.970 . S
O589 Li529 1.956 . S
O589 Li531 1.961 . S
O589 C538 1.325 . S
O590 Li528 1.961 . S
O590 Li530 1.956 . S
O590 Li531 1.970 . S
O590 C560 1.325 . S
O591 Li529 1.961 . S
O591 Li530 1.970 . S
O591 Li531 1.956 . S
O591 C566 1.325 . S
H592 C534 0.929 . S
H593 C535 0.930 . S
H594 C536 0.930 . S
H595 C537 0.930 . S
H596 C539 0.930 . S
H597 C541 0.929 . S
H598 C542 0.930 . S
H599 C543 0.930 . S
H600 C546 0.930 . S
H601 C549 0.929 . S
H602 C554 0.929 1_455 S
H603 C555 0.930 . S
H604 C562 0.929 . S
H605 C563 0.930 . S
H606 C564 0.930 . S
H607 C565 0.930 . S
H608 C567 0.929 . S
H609 C568 0.930 . S
H610 C569 0.930 . S
H611 C570 0.930 . S
H612 C574 0.929 . S
H613 C576 0.930 . S
H614 C582 0.929 . S
H615 C583 0.930 . S
Li616 N633 1.990 . S
Li616 O676 1.956 . S
Li616 O677 1.970 . S
Li616 O678 1.961 . S
Li617 N641 1.990 . S
Li617 O676 1.970 . S
Li617 O677 1.956 . S
Li617 O679 1.961 . S
Li618 N663 1.990 . S
Li618 O676 1.961 . S
Li618 O678 1.956 . S
Li618 O679 1.970 . S
Li619 N669 1.990 . S
Li619 O677 1.961 . S
Li619 O678 1.970 . S
Li619 O679 1.956 . S
C620 C622 1.348 . S
C620 C623 1.356 . S
C620 O676 1.325 . S
N621 C624 1.314 . S
N621 C625 1.279 . S
C622 C620 1.348 . S
C622 C624 1.353 . S
C622 H680 0.929 . S
C623 C620 1.356 . S
C623 C625 1.358 . S
C623 H681 0.930 . S
C624 N621 1.314 . S
C624 C622 1.353 . S
C624 H682 0.930 . S
C625 N621 1.279 . S
C625 C623 1.358 . S
C625 H683 0.930 . S
C626 C629 1.348 . S
C626 C630 1.356 . S
C626 O677 1.325 . S
C627 N628 1.279 . S
C627 C630 1.358 . S
C627 H684 0.930 . S
N628 C627 1.279 . S
N628 C631 1.314 . S
C629 C626 1.348 . S
C629 C631 1.353 . S
C629 H685 0.929 . S
C630 C626 1.356 . S
C630 C627 1.358 . S
C630 H686 0.930 . S
C631 N628 1.314 . S
C631 C629 1.353 . S
C631 H687 0.930 . S
C632 N633 1.314 . S
C632 C637 1.353 . S
C632 H638 0.930 . S
N633 Li616 1.990 . S
N633 C632 1.314 . S
N633 C635 1.279 . S
C634 C635 1.358 . S
C634 C636 1.356 . S
C634 H688 0.930 . S
C635 N633 1.279 . S
C635 C634 1.358 . S
C635 H639 0.930 . S
C636 C634 1.356 . S
C636 C637 1.348 . S
C637 C632 1.353 . S
C637 C636 1.348 . S
C637 H689 0.929 . S
H638 C632 0.930 . S
H639 C635 0.930 . S
C640 N641 1.314 . S
C640 C642 1.353 . S
C640 H646 0.930 . S
N641 Li617 1.990 . S
N641 C640 1.314 . S
N641 C644 1.279 . S
C642 C640 1.353 . S
C642 C645 1.348 . S
C642 H690 0.929 . S
C643 C644 1.358 . S
C643 C645 1.356 . S
C643 H691 0.930 . S
C644 N641 1.279 . S
C644 C643 1.358 . S
C644 H647 0.930 . S
C645 C642 1.348 . S
C645 C643 1.356 . S
H646 C640 0.930 . S
H647 C644 0.930 . S
C648 C650 1.348 . S
C648 C651 1.356 . S
C648 O678 1.325 . S
N649 C652 1.314 . S
N649 C653 1.279 . S
C650 C648 1.348 . S
C650 C652 1.353 . S
C650 H692 0.929 . S
C651 C648 1.356 . S
C651 C653 1.358 . S
C651 H693 0.930 . S
C652 N649 1.314 . S
C652 C650 1.353 . S
C652 H694 0.930 . S
C653 N649 1.279 . S
C653 C651 1.358 . S
C653 H695 0.930 . S
C654 C655 1.348 . S
C654 C656 1.356 . S
C654 O679 1.325 . S
C655 C654 1.348 . S
C655 C657 1.353 . S
C655 H696 0.929 . S
C656 C654 1.356 . S
C656 C658 1.358 . S
C656 H697 0.930 . S
C657 C655 1.353 . S
C657 N659 1.314 . S
C657 H698 0.930 . S
C658 C656 1.358 . S
C658 N659 1.279 . S
C658 H699 0.930 . S
N659 C657 1.314 . S
N659 C658 1.279 . S
C660 C662 1.353 . S
C660 N663 1.314 . S
C660 H666 0.930 . S
C661 N663 1.279 . S
C661 C664 1.358 . S
C661 H667 0.930 . S
C662 C660 1.353 . S
C662 C665 1.348 . S
C662 H700 0.929 . S
N663 Li618 1.990 . S
N663 C660 1.314 . S
N663 C661 1.279 . S
C664 C661 1.358 . S
C664 C665 1.356 . S
C664 H701 0.930 . S
C665 C662 1.348 . S
C665 C664 1.356 . S
H666 C660 0.930 . S
H667 C661 0.930 . S
C668 N669 1.314 . S
C668 C670 1.353 . S
C668 H674 0.930 . S
N669 Li619 1.990 . S
N669 C668 1.314 . S
N669 C672 1.279 . S
C670 C668 1.353 . S
C670 C673 1.348 . S
C670 H702 0.929 1_565 S
C671 C672 1.358 . S
C671 C673 1.356 . S
C671 H703 0.930 . S
C672 N669 1.279 . S
C672 C671 1.358 . S
C672 H675 0.930 . S
C673 C670 1.348 . S
C673 C671 1.356 . S
H674 C668 0.930 . S
H675 C672 0.930 . S
O676 Li616 1.956 . S
O676 Li617 1.970 . S
O676 Li618 1.961 . S
O676 C620 1.325 . S
O677 Li616 1.970 . S
O677 Li617 1.956 . S
O677 Li619 1.961 . S
O677 C626 1.325 . S
O678 Li616 1.961 . S
O678 Li618 1.956 . S
O678 Li619 1.970 . S
O678 C648 1.325 . S
O679 Li617 1.961 . S
O679 Li618 1.970 . S
O679 Li619 1.956 . S
O679 C654 1.325 . S
H680 C622 0.929 . S
H681 C623 0.930 . S
H682 C624 0.930 . S
H683 C625 0.930 . S
H684 C627 0.930 . S
H685 C629 0.929 . S
H686 C630 0.930 . S
H687 C631 0.930 . S
H688 C634 0.930 . S
H689 C637 0.929 . S
H690 C642 0.929 . S
H691 C643 0.930 . S
H692 C650 0.929 . S
H693 C651 0.930 . S
H694 C652 0.930 . S
H695 C653 0.930 . S
H696 C655 0.929 . S
H697 C656 0.930 . S
H698 C657 0.930 . S
H699 C658 0.930 . S
H700 C662 0.929 . S
H701 C664 0.930 . S
H702 C670 0.929 1_545 S
H703 C671 0.930 . S
Li704 N721 1.990 . S
Li704 O764 1.956 . S
Li704 O765 1.970 . S
Li704 O766 1.961 . S
Li705 N729 1.990 . S
Li705 O764 1.970 . S
Li705 O765 1.956 . S
Li705 O767 1.961 . S
Li706 N751 1.990 . S
Li706 O764 1.961 . S
Li706 O766 1.956 . S
Li706 O767 1.970 . S
Li707 N757 1.990 . S
Li707 O765 1.961 . S
Li707 O766 1.970 . S
Li707 O767 1.956 . S
C708 C710 1.348 . S
C708 C711 1.356 . S
C708 O764 1.325 . S
N709 C712 1.314 . S
N709 C713 1.279 . S
C710 C708 1.348 . S
C710 C712 1.353 . S
C710 H768 0.929 . S
C711 C708 1.356 . S
C711 C713 1.358 . S
C711 H769 0.930 . S
C712 N709 1.314 . S
C712 C710 1.353 . S
C712 H770 0.930 . S
C713 N709 1.279 . S
C713 C711 1.358 . S
C713 H771 0.930 . S
C714 C717 1.348 . S
C714 C718 1.356 . S
C714 O765 1.325 . S
C715 N716 1.279 . S
C715 C718 1.358 . S
C715 H772 0.930 . S
N716 C715 1.279 . S
N716 C719 1.314 . S
C717 C714 1.348 . S
C717 C719 1.353 . S
C717 H773 0.929 . S
C718 C714 1.356 . S
C718 C715 1.358 . S
C718 H774 0.930 . S
C719 N716 1.314 . S
C719 C717 1.353 . S
C719 H775 0.930 . S
C720 N721 1.314 . S
C720 C725 1.353 . S
C720 H726 0.930 . S
N721 Li704 1.990 . S
N721 C720 1.314 . S
N721 C723 1.279 . S
C722 C723 1.358 . S
C722 C724 1.356 . S
C722 H776 0.930 . S
C723 N721 1.279 . S
C723 C722 1.358 . S
C723 H727 0.930 . S
C724 C722 1.356 . S
C724 C725 1.348 . S
C725 C720 1.353 . S
C725 C724 1.348 . S
C725 H777 0.929 . S
H726 C720 0.930 . S
H727 C723 0.930 . S
C728 N729 1.314 . S
C728 C730 1.353 . S
C728 H734 0.930 . S
N729 Li705 1.990 . S
N729 C728 1.314 . S
N729 C732 1.279 . S
C730 C728 1.353 . S
C730 C733 1.348 . S
C730 H778 0.929 . S
C731 C732 1.358 . S
C731 C733 1.356 . S
C731 H779 0.930 . S
C732 N729 1.279 . S
C732 C731 1.358 . S
C732 H735 0.930 . S
C733 C730 1.348 . S
C733 C731 1.356 . S
H734 C728 0.930 . S
H735 C732 0.930 . S
C736 C738 1.348 . S
C736 C739 1.356 . S
C736 O766 1.325 . S
N737 C740 1.314 . S
N737 C741 1.279 . S
C738 C736 1.348 . S
C738 C740 1.353 . S
C738 H780 0.929 . S
C739 C736 1.356 . S
C739 C741 1.358 . S
C739 H781 0.930 . S
C740 N737 1.314 . S
C740 C738 1.353 . S
C740 H782 0.930 . S
C741 N737 1.279 . S
C741 C739 1.358 . S
C741 H783 0.930 . S
C742 C743 1.348 . S
C742 C744 1.356 . S
C742 O767 1.325 . S
C743 C742 1.348 . S
C743 C745 1.353 . S
C743 H784 0.929 . S
C744 C742 1.356 . S
C744 C746 1.358 . S
C744 H785 0.930 . S
C745 C743 1.353 . S
C745 N747 1.314 . S
C745 H786 0.930 . S
C746 C744 1.358 . S
C746 N747 1.279 . S
C746 H787 0.930 . S
N747 C745 1.314 . S
N747 C746 1.279 . S
C748 C750 1.353 . S
C748 N751 1.314 . S
C748 H754 0.930 . S
C749 N751 1.279 . S
C749 C752 1.358 . S
C749 H755 0.930 . S
C750 C748 1.353 . S
C750 C753 1.348 . S
C750 H788 0.929 . S
N751 Li706 1.990 . S
N751 C748 1.314 . S
N751 C749 1.279 . S
C752 C749 1.358 . S
C752 C753 1.356 . S
C752 H789 0.930 . S
C753 C750 1.348 . S
C753 C752 1.356 . S
H754 C748 0.930 . S
H755 C749 0.930 . S
C756 N757 1.314 . S
C756 C758 1.353 . S
C756 H762 0.930 . S
N757 Li707 1.990 . S
N757 C756 1.314 . S
N757 C760 1.279 . S
C758 C756 1.353 . S
C758 C761 1.348 . S
C758 H790 0.929 . S
C759 C760 1.358 . S
C759 C761 1.356 . S
C759 H791 0.930 . S
C760 N757 1.279 . S
C760 C759 1.358 . S
C760 H763 0.930 . S
C761 C758 1.348 . S
C761 C759 1.356 . S
H762 C756 0.930 . S
H763 C760 0.930 . S
O764 Li704 1.956 . S
O764 Li705 1.970 . S
O764 Li706 1.961 . S
O764 C708 1.325 . S
O765 Li704 1.970 . S
O765 Li705 1.956 . S
O765 Li707 1.961 . S
O765 C714 1.325 . S
O766 Li704 1.961 . S
O766 Li706 1.956 . S
O766 Li707 1.970 . S
O766 C736 1.325 . S
O767 Li705 1.961 . S
O767 Li706 1.970 . S
O767 Li707 1.956 . S
O767 C742 1.325 . S
H768 C710 0.929 . S
H769 C711 0.930 . S
H770 C712 0.930 . S
H771 C713 0.930 . S
H772 C715 0.930 . S
H773 C717 0.929 . S
H774 C718 0.930 . S
H775 C719 0.930 . S
H776 C722 0.930 . S
H777 C725 0.929 . S
H778 C730 0.929 . S
H779 C731 0.930 . S
H780 C738 0.929 . S
H781 C739 0.930 . S
H782 C740 0.930 . S
H783 C741 0.930 . S
H784 C743 0.929 . S
H785 C744 0.930 . S
H786 C745 0.930 . S
H787 C746 0.930 . S
H788 C750 0.929 . S
H789 C752 0.930 . S
H790 C758 0.929 . S
H791 C759 0.930 . S
Li792 N809 1.990 . S
Li792 O852 1.956 . S
Li792 O853 1.970 . S
Li792 O854 1.961 . S
Li793 N817 1.990 . S
Li793 O852 1.970 . S
Li793 O853 1.956 . S
Li793 O855 1.961 . S
Li794 N839 1.990 . S
Li794 O852 1.961 . S
Li794 O854 1.956 . S
Li794 O855 1.970 . S
Li795 N845 1.990 . S
Li795 O853 1.961 . S
Li795 O854 1.970 . S
Li795 O855 1.956 . S
C796 C798 1.348 . S
C796 C799 1.356 . S
C796 O852 1.325 . S
N797 C800 1.314 . S
N797 C801 1.279 . S
C798 C796 1.348 . S
C798 C800 1.353 . S
C798 H856 0.929 . S
C799 C796 1.356 . S
C799 C801 1.358 . S
C799 H857 0.930 . S
C800 N797 1.314 . S
C800 C798 1.353 . S
C800 H858 0.930 . S
C801 N797 1.279 . S
C801 C799 1.358 . S
C801 H859 0.930 . S
C802 C805 1.348 . S
C802 C806 1.356 . S
C802 O853 1.325 . S
C803 N804 1.279 . S
C803 C806 1.358 . S
C803 H860 0.930 . S
N804 C803 1.279 . S
N804 C807 1.314 . S
C805 C802 1.348 . S
C805 C807 1.353 . S
C805 H861 0.929 . S
C806 C802 1.356 . S
C806 C803 1.358 . S
C806 H862 0.930 . S
C807 N804 1.314 . S
C807 C805 1.353 . S
C807 H863 0.930 . S
C808 N809 1.314 . S
C808 C813 1.353 . S
C808 H814 0.930 . S
N809 Li792 1.990 . S
N809 C808 1.314 . S
N809 C811 1.279 . S
C810 C811 1.358 . S
C810 C812 1.356 . S
C810 H864 0.930 . S
C811 N809 1.279 . S
C811 C810 1.358 . S
C811 H815 0.930 . S
C812 C810 1.356 . S
C812 C813 1.348 . S
C813 C808 1.353 . S
C813 C812 1.348 . S
C813 H865 0.929 . S
H814 C808 0.930 . S
H815 C811 0.930 . S
C816 N817 1.314 . S
C816 C818 1.353 . S
C816 H822 0.930 . S
N817 Li793 1.990 . S
N817 C816 1.314 . S
N817 C820 1.279 . S
C818 C816 1.353 . S
C818 C821 1.348 . S
C818 H866 0.929 . S
C819 C820 1.358 . S
C819 C821 1.356 . S
C819 H867 0.930 . S
C820 N817 1.279 . S
C820 C819 1.358 . S
C820 H823 0.930 . S
C821 C818 1.348 . S
C821 C819 1.356 . S
H822 C816 0.930 . S
H823 C820 0.930 . S
C824 C826 1.348 . S
C824 C827 1.356 . S
C824 O854 1.325 . S
N825 C828 1.314 . S
N825 C829 1.279 . S
C826 C824 1.348 . S
C826 C828 1.353 . S
C826 H868 0.929 . S
C827 C824 1.356 . S
C827 C829 1.358 . S
C827 H869 0.930 . S
C828 N825 1.314 . S
C828 C826 1.353 . S
C828 H870 0.930 . S
C829 N825 1.279 . S
C829 C827 1.358 . S
C829 H871 0.930 . S
C830 C831 1.348 . S
C830 C832 1.356 . S
C830 O855 1.325 . S
C831 C830 1.348 . S
C831 C833 1.353 . S
C831 H872 0.929 . S
C832 C830 1.356 . S
C832 C834 1.358 . S
C832 H873 0.930 . S
C833 C831 1.353 . S
C833 N835 1.314 . S
C833 H874 0.930 . S
C834 C832 1.358 . S
C834 N835 1.279 . S
C834 H875 0.930 . S
N835 C833 1.314 . S
N835 C834 1.279 . S
C836 C838 1.353 . S
C836 N839 1.314 . S
C836 H842 0.930 . S
C837 N839 1.279 . S
C837 C840 1.358 . S
C837 H843 0.930 . S
C838 C836 1.353 . S
C838 C841 1.348 . S
C838 H876 0.929 . S
N839 Li794 1.990 . S
N839 C836 1.314 . S
N839 C837 1.279 . S
C840 C837 1.358 . S
C840 C841 1.356 . S
C840 H877 0.930 . S
C841 C838 1.348 . S
C841 C840 1.356 . S
H842 C836 0.930 . S
H843 C837 0.930 . S
C844 N845 1.314 . S
C844 C846 1.353 . S
C844 H850 0.930 . S
N845 Li795 1.990 . S
N845 C844 1.314 . S
N845 C848 1.279 . S
C846 C844 1.353 . S
C846 C849 1.348 . S
C846 H878 0.929 1_455 S
C847 C848 1.358 . S
C847 C849 1.356 . S
C847 H879 0.930 . S
C848 N845 1.279 . S
C848 C847 1.358 . S
C848 H851 0.930 . S
C849 C846 1.348 . S
C849 C847 1.356 . S
H850 C844 0.930 . S
H851 C848 0.930 . S
O852 Li792 1.956 . S
O852 Li793 1.970 . S
O852 Li794 1.961 . S
O852 C796 1.325 . S
O853 Li792 1.970 . S
O853 Li793 1.956 . S
O853 Li795 1.961 . S
O853 C802 1.325 . S
O854 Li792 1.961 . S
O854 Li794 1.956 . S
O854 Li795 1.970 . S
O854 C824 1.325 . S
O855 Li793 1.961 . S
O855 Li794 1.970 . S
O855 Li795 1.956 . S
O855 C830 1.325 . S
H856 C798 0.929 . S
H857 C799 0.930 . S
H858 C800 0.930 . S
H859 C801 0.930 . S
H860 C803 0.930 . S
H861 C805 0.929 . S
H862 C806 0.930 . S
H863 C807 0.930 . S
H864 C810 0.930 . S
H865 C813 0.929 . S
H866 C818 0.929 . S
H867 C819 0.930 . S
H868 C826 0.929 . S
H869 C827 0.930 . S
H870 C828 0.930 . S
H871 C829 0.930 . S
H872 C831 0.929 . S
H873 C832 0.930 . S
H874 C833 0.930 . S
H875 C834 0.930 . S
H876 C838 0.929 . S
H877 C840 0.930 . S
H878 C846 0.929 1_655 S
H879 C847 0.930 . S
Li880 N897 1.990 . S
Li880 O940 1.956 . S
Li880 O941 1.970 . S
Li880 O942 1.961 . S
Li881 N905 1.990 . S
Li881 O940 1.970 . S
Li881 O941 1.956 . S
Li881 O943 1.961 . S
Li882 N927 1.990 . S
Li882 O940 1.961 . S
Li882 O942 1.956 . S
Li882 O943 1.970 . S
Li883 N933 1.990 . S
Li883 O941 1.961 . S
Li883 O942 1.970 . S
Li883 O943 1.956 . S
C884 C886 1.348 . S
C884 C887 1.356 . S
C884 O940 1.325 . S
N885 C888 1.314 . S
N885 C889 1.279 . S
C886 C884 1.348 . S
C886 C888 1.353 . S
C886 H944 0.929 . S
C887 C884 1.356 . S
C887 C889 1.358 . S
C887 H945 0.930 . S
C888 N885 1.314 . S
C888 C886 1.353 . S
C888 H946 0.930 . S
C889 N885 1.279 . S
C889 C887 1.358 . S
C889 H947 0.930 . S
C890 C893 1.348 . S
C890 C894 1.356 . S
C890 O941 1.325 . S
C891 N892 1.279 . S
C891 C894 1.358 . S
C891 H948 0.930 . S
N892 C891 1.279 . S
N892 C895 1.314 . S
C893 C890 1.348 . S
C893 C895 1.353 . S
C893 H949 0.929 . S
C894 C890 1.356 . S
C894 C891 1.358 . S
C894 H950 0.930 . S
C895 N892 1.314 . S
C895 C893 1.353 . S
C895 H951 0.930 . S
C896 N897 1.314 . S
C896 C901 1.353 . S
C896 H902 0.930 . S
N897 Li880 1.990 . S
N897 C896 1.314 . S
N897 C899 1.279 . S
C898 C899 1.358 . S
C898 C900 1.356 . S
C898 H952 0.930 . S
C899 N897 1.279 . S
C899 C898 1.358 . S
C899 H903 0.930 . S
C900 C898 1.356 . S
C900 C901 1.348 . S
C901 C896 1.353 . S
C901 C900 1.348 . S
C901 H953 0.929 . S
H902 C896 0.930 . S
H903 C899 0.930 . S
C904 N905 1.314 . S
C904 C906 1.353 . S
C904 H910 0.930 . S
N905 Li881 1.990 . S
N905 C904 1.314 . S
N905 C908 1.279 . S
C906 C904 1.353 . S
C906 C909 1.348 . S
C906 H954 0.929 1_545 S
C907 C908 1.358 . S
C907 C909 1.356 . S
C907 H955 0.930 . S
C908 N905 1.279 . S
C908 C907 1.358 . S
C908 H911 0.930 . S
C909 C906 1.348 . S
C909 C907 1.356 . S
H910 C904 0.930 . S
H911 C908 0.930 . S
C912 C914 1.348 . S
C912 C915 1.356 . S
C912 O942 1.325 . S
N913 C916 1.314 . S
N913 C917 1.279 . S
C914 C912 1.348 . S
C914 C916 1.353 . S
C914 H956 0.929 . S
C915 C912 1.356 . S
C915 C917 1.358 . S
C915 H957 0.930 . S
C916 N913 1.314 . S
C916 C914 1.353 . S
C916 H958 0.930 . S
C917 N913 1.279 . S
C917 C915 1.358 . S
C917 H959 0.930 . S
C918 C919 1.348 . S
C918 C920 1.356 . S
C918 O943 1.325 . S
C919 C918 1.348 . S
C919 C921 1.353 . S
C919 H960 0.929 . S
C920 C918 1.356 . S
C920 C922 1.358 . S
C920 H961 0.930 . S
C921 C919 1.353 . S
C921 N923 1.314 . S
C921 H962 0.930 . S
C922 C920 1.358 . S
C922 N923 1.279 . S
C922 H963 0.930 . S
N923 C921 1.314 . S
N923 C922 1.279 . S
C924 C926 1.353 . S
C924 N927 1.314 . S
C924 H930 0.930 . S
C925 N927 1.279 . S
C925 C928 1.358 . S
C925 H931 0.930 . S
C926 C924 1.353 . S
C926 C929 1.348 . S
C926 H964 0.929 . S
N927 Li882 1.990 . S
N927 C924 1.314 . S
N927 C925 1.279 . S
C928 C925 1.358 . S
C928 C929 1.356 . S
C928 H965 0.930 . S
C929 C926 1.348 . S
C929 C928 1.356 . S
H930 C924 0.930 . S
H931 C925 0.930 . S
C932 N933 1.314 . S
C932 C934 1.353 . S
C932 H938 0.930 . S
N933 Li883 1.990 . S
N933 C932 1.314 . S
N933 C936 1.279 . S
C934 C932 1.353 . S
C934 C937 1.348 . S
C934 H966 0.929 . S
C935 C936 1.358 . S
C935 C937 1.356 . S
C935 H967 0.930 . S
C936 N933 1.279 . S
C936 C935 1.358 . S
C936 H939 0.930 . S
C937 C934 1.348 . S
C937 C935 1.356 . S
H938 C932 0.930 . S
H939 C936 0.930 . S
O940 Li880 1.956 . S
O940 Li881 1.970 . S
O940 Li882 1.961 . S
O940 C884 1.325 . S
O941 Li880 1.970 . S
O941 Li881 1.956 . S
O941 Li883 1.961 . S
O941 C890 1.325 . S
O942 Li880 1.961 . S
O942 Li882 1.956 . S
O942 Li883 1.970 . S
O942 C912 1.325 . S
O943 Li881 1.961 . S
O943 Li882 1.970 . S
O943 Li883 1.956 . S
O943 C918 1.325 . S
H944 C886 0.929 . S
H945 C887 0.930 . S
H946 C888 0.930 . S
H947 C889 0.930 . S
H948 C891 0.930 . S
H949 C893 0.929 . S
H950 C894 0.930 . S
H951 C895 0.930 . S
H952 C898 0.930 . S
H953 C901 0.929 . S
H954 C906 0.929 1_565 S
H955 C907 0.930 . S
H956 C914 0.929 . S
H957 C915 0.930 . S
H958 C916 0.930 . S
H959 C917 0.930 . S
H960 C919 0.929 . S
H961 C920 0.930 . S
H962 C921 0.930 . S
H963 C922 0.930 . S
H964 C926 0.929 . S
H965 C928 0.930 . S
H966 C934 0.929 . S
H967 C935 0.930 . S
Li968 N985 1.990 . S
Li968 O1028 1.956 . S
Li968 O1029 1.970 . S
Li968 O1030 1.961 . S
Li969 N993 1.990 . S
Li969 O1028 1.970 . S
Li969 O1029 1.956 . S
Li969 O1031 1.961 . S
Li970 N1015 1.990 . S
Li970 O1028 1.961 . S
Li970 O1030 1.956 . S
Li970 O1031 1.970 . S
Li971 N1021 1.990 . S
Li971 O1029 1.961 . S
Li971 O1030 1.970 . S
Li971 O1031 1.956 . S
C972 C974 1.348 . S
C972 C975 1.356 . S
C972 O1028 1.325 . S
N973 C976 1.314 . S
N973 C977 1.279 . S
C974 C972 1.348 . S
C974 C976 1.353 . S
C974 H1032 0.929 . S
C975 C972 1.356 . S
C975 C977 1.358 . S
C975 H1033 0.930 . S
C976 N973 1.314 . S
C976 C974 1.353 . S
C976 H1034 0.930 . S
C977 N973 1.279 . S
C977 C975 1.358 . S
C977 H1035 0.930 . S
C978 C981 1.348 . S
C978 C982 1.356 . S
C978 O1029 1.325 . S
C979 N980 1.279 . S
C979 C982 1.358 . S
C979 H1036 0.930 . S
N980 C979 1.279 . S
N980 C983 1.314 . S
C981 C978 1.348 . S
C981 C983 1.353 . S
C981 H1037 0.929 . S
C982 C978 1.356 . S
C982 C979 1.358 . S
C982 H1038 0.930 . S
C983 N980 1.314 . S
C983 C981 1.353 . S
C983 H1039 0.930 . S
C984 N985 1.314 . S
C984 C989 1.353 . S
C984 H990 0.930 . S
N985 Li968 1.990 . S
N985 C984 1.314 . S
N985 C987 1.279 . S
C986 C987 1.358 . S
C986 C988 1.356 . S
C986 H1040 0.930 . S
C987 N985 1.279 . S
C987 C986 1.358 . S
C987 H991 0.930 . S
C988 C986 1.356 . S
C988 C989 1.348 . S
C989 C984 1.353 . S
C989 C988 1.348 . S
C989 H1041 0.929 . S
H990 C984 0.930 . S
H991 C987 0.930 . S
C992 N993 1.314 . S
C992 C994 1.353 . S
C992 H998 0.930 . S
N993 Li969 1.990 . S
N993 C992 1.314 . S
N993 C996 1.279 . S
C994 C992 1.353 . S
C994 C997 1.348 . S
C994 H1042 0.929 . S
C995 C996 1.358 . S
C995 C997 1.356 . S
C995 H1043 0.930 . S
C996 N993 1.279 . S
C996 C995 1.358 . S
C996 H999 0.930 . S
C997 C994 1.348 . S
C997 C995 1.356 . S
H998 C992 0.930 . S
H999 C996 0.930 . S
C1000 C1002 1.348 . S
C1000 C1003 1.356 . S
C1000 O1030 1.325 . S
N1001 C1004 1.314 . S
N1001 C1005 1.279 . S
C1002 C1000 1.348 . S
C1002 C1004 1.353 . S
C1002 H1044 0.929 . S
C1003 C1000 1.356 . S
C1003 C1005 1.358 . S
C1003 H1045 0.930 . S
C1004 N1001 1.314 . S
C1004 C1002 1.353 . S
C1004 H1046 0.930 . S
C1005 N1001 1.279 . S
C1005 C1003 1.358 . S
C1005 H1047 0.930 . S
C1006 C1007 1.348 . S
C1006 C1008 1.356 . S
C1006 O1031 1.325 . S
C1007 C1006 1.348 . S
C1007 C1009 1.353 . S
C1007 H1048 0.929 . S
C1008 C1006 1.356 . S
C1008 C1010 1.358 . S
C1008 H1049 0.930 . S
C1009 C1007 1.353 . S
C1009 N1011 1.314 . S
C1009 H1050 0.930 . S
C1010 C1008 1.358 . S
C1010 N1011 1.279 . S
C1010 H1051 0.930 . S
N1011 C1009 1.314 . S
N1011 C1010 1.279 . S
C1012 C1014 1.353 . S
C1012 N1015 1.314 . S
C1012 H1018 0.930 . S
C1013 N1015 1.279 . S
C1013 C1016 1.358 . S
C1013 H1019 0.930 . S
C1014 C1012 1.353 . S
C1014 C1017 1.348 . S
C1014 H1052 0.929 . S
N1015 Li970 1.990 . S
N1015 C1012 1.314 . S
N1015 C1013 1.279 . S
C1016 C1013 1.358 . S
C1016 C1017 1.356 . S
C1016 H1053 0.930 . S
C1017 C1014 1.348 . S
C1017 C1016 1.356 . S
H1018 C1012 0.930 . S
H1019 C1013 0.930 . S
C1020 N1021 1.314 . S
C1020 C1022 1.353 . S
C1020 H1026 0.930 . S
N1021 Li971 1.990 . S
N1021 C1020 1.314 . S
N1021 C1024 1.279 . S
C1022 C1020 1.353 . S
C1022 C1025 1.348 . S
C1022 H1054 0.929 . S
C1023 C1024 1.358 . S
C1023 C1025 1.356 . S
C1023 H1055 0.930 . S
C1024 N1021 1.279 . S
C1024 C1023 1.358 . S
C1024 H1027 0.930 . S
C1025 C1022 1.348 . S
C1025 C1023 1.356 . S
H1026 C1020 0.930 . S
H1027 C1024 0.930 . S
O1028 Li968 1.956 . S
O1028 Li969 1.970 . S
O1028 Li970 1.961 . S
O1028 C972 1.325 . S
O1029 Li968 1.970 . S
O1029 Li969 1.956 . S
O1029 Li971 1.961 . S
O1029 C978 1.325 . S
O1030 Li968 1.961 . S
O1030 Li970 1.956 . S
O1030 Li971 1.970 . S
O1030 C1000 1.325 . S
O1031 Li969 1.961 . S
O1031 Li970 1.970 . S
O1031 Li971 1.956 . S
O1031 C1006 1.325 . S
H1032 C974 0.929 . S
H1033 C975 0.930 . S
H1034 C976 0.930 . S
H1035 C977 0.930 . S
H1036 C979 0.930 . S
H1037 C981 0.929 . S
H1038 C982 0.930 . S
H1039 C983 0.930 . S
H1040 C986 0.930 . S
H1041 C989 0.929 . S
H1042 C994 0.929 . S
H1043 C995 0.930 . S
H1044 C1002 0.929 . S
H1045 C1003 0.930 . S
H1046 C1004 0.930 . S
H1047 C1005 0.930 . S
H1048 C1007 0.929 . S
H1049 C1008 0.930 . S
H1050 C1009 0.930 . S
H1051 C1010 0.930 . S
H1052 C1014 0.929 . S
H1053 C1016 0.930 . S
H1054 C1022 0.929 . S
H1055 C1023 0.930 . S
H1056 C1068 0.930 . S
H1057 C1070 0.930 . S
H1058 C1071 0.930 . S
H1059 C1075 0.959 . S
H1060 C1075 0.959 . S
H1061 C1075 0.961 . S
H1062 C1076 0.960 . S
H1063 C1076 0.961 1_556 S
H1064 C1076 0.959 . S
H1065 C1079 0.929 . S
H1066 C1080 0.931 . S
H1067 C1082 0.930 . S
C1068 H1056 0.930 . S
C1068 C1069 1.399 . S
C1068 C1073 1.399 . S
C1069 C1068 1.399 . S
C1069 C1070 1.376 . S
C1070 H1057 0.930 . S
C1070 C1069 1.376 . S
C1070 C1071 1.388 . S
C1071 H1058 0.930 . S
C1071 C1070 1.388 . S
C1071 C1072 1.390 . S
C1072 C1071 1.390 . S
C1072 C1073 1.394 . S
C1072 C1078 1.465 1_554 S
C1073 C1068 1.399 . S
C1073 C1072 1.394 . S
C1073 C1074 1.516 1_554 S
C1074 C1073 1.516 1_556 S
C1074 C1075 1.502 . S
C1074 C1076 1.561 1_556 S
C1074 C1077 1.526 . S
C1075 H1059 0.959 . S
C1075 H1060 0.959 . S
C1075 H1061 0.961 . S
C1075 C1074 1.502 . S
C1076 H1062 0.960 . S
C1076 H1063 0.961 1_554 S
C1076 H1064 0.959 . S
C1076 C1074 1.561 1_554 S
C1077 C1074 1.526 . S
C1077 C1078 1.396 . S
C1077 C1082 1.390 . S
C1078 C1072 1.465 1_556 S
C1078 C1077 1.396 . S
C1078 C1079 1.399 . S
C1079 H1065 0.929 . S
C1079 C1078 1.399 . S
C1079 C1080 1.385 . S
C1080 H1066 0.931 . S
C1080 C1079 1.385 . S
C1080 C1081 1.389 . S
C1081 C1080 1.389 . S
C1081 C1082 1.387 . S
C1082 H1067 0.930 . S
C1082 C1077 1.390 . S
C1082 C1081 1.387 . S
H1083 C1095 0.930 . S
H1084 C1097 0.930 . S
H1085 C1098 0.930 . S
H1086 C1102 0.959 . S
H1087 C1102 0.959 . S
H1088 C1102 0.961 . S
H1089 C1103 0.960 . S
H1090 C1103 0.961 . S
H1091 C1103 0.959 . S
H1092 C1106 0.929 . S
H1093 C1107 0.931 . S
H1094 C1109 0.930 . S
C1095 H1083 0.930 . S
C1095 C1096 1.399 . S
C1095 C1100 1.399 . S
C1096 C1095 1.399 . S
C1096 C1097 1.376 . S
C1097 H1084 0.930 . S
C1097 C1096 1.376 . S
C1097 C1098 1.388 . S
C1098 H1085 0.930 . S
C1098 C1097 1.388 . S
C1098 C1099 1.390 . S
C1099 C1098 1.390 . S
C1099 C1100 1.394 . S
C1099 C1105 1.465 . S
C1100 C1095 1.399 . S
C1100 C1099 1.394 . S
C1100 C1101 1.516 . S
C1101 C1100 1.516 . S
C1101 C1102 1.502 . S
C1101 C1103 1.561 . S
C1101 C1104 1.526 . S
C1102 H1086 0.959 . S
C1102 H1087 0.959 . S
C1102 H1088 0.961 . S
C1102 C1101 1.502 . S
C1103 H1089 0.960 . S
C1103 H1090 0.961 . S
C1103 H1091 0.959 . S
C1103 C1101 1.561 . S
C1104 C1101 1.526 . S
C1104 C1105 1.396 . S
C1104 C1109 1.390 . S
C1105 C1099 1.465 . S
C1105 C1104 1.396 . S
C1105 C1106 1.399 . S
C1106 H1092 0.929 . S
C1106 C1105 1.399 . S
C1106 C1107 1.385 . S
C1107 H1093 0.931 . S
C1107 C1106 1.385 . S
C1107 C1108 1.389 . S
C1108 C1107 1.389 . S
C1108 C1109 1.387 . S
C1109 H1094 0.930 . S
C1109 C1104 1.390 . S
C1109 C1108 1.387 . S
H1110 C1122 0.930 . S
H1111 C1124 0.930 . S
H1112 C1125 0.930 . S
H1113 C1129 0.959 . S
H1114 C1129 0.959 . S
H1115 C1129 0.961 . S
H1116 C1130 0.960 . S
H1117 C1130 0.961 . S
H1118 C1130 0.959 . S
H1119 C1133 0.929 . S
H1120 C1134 0.931 . S
H1121 C1136 0.930 . S
C1122 H1110 0.930 . S
C1122 C1123 1.399 . S
C1122 C1127 1.399 . S
C1123 C1122 1.399 . S
C1123 C1124 1.376 . S
C1124 H1111 0.930 . S
C1124 C1123 1.376 . S
C1124 C1125 1.388 . S
C1125 H1112 0.930 . S
C1125 C1124 1.388 . S
C1125 C1126 1.390 . S
C1126 C1125 1.390 . S
C1126 C1127 1.394 . S
C1126 C1132 1.465 . S
C1127 C1122 1.399 . S
C1127 C1126 1.394 . S
C1127 C1128 1.516 . S
C1128 C1127 1.516 . S
C1128 C1129 1.502 . S
C1128 C1130 1.561 . S
C1128 C1131 1.526 . S
C1129 H1113 0.959 . S
C1129 H1114 0.959 . S
C1129 H1115 0.961 . S
C1129 C1128 1.502 . S
C1130 H1116 0.960 . S
C1130 H1117 0.961 . S
C1130 H1118 0.959 . S
C1130 C1128 1.561 . S
C1131 C1128 1.526 . S
C1131 C1132 1.396 . S
C1131 C1136 1.390 . S
C1132 C1126 1.465 . S
C1132 C1131 1.396 . S
C1132 C1133 1.399 . S
C1133 H1119 0.929 . S
C1133 C1132 1.399 . S
C1133 C1134 1.385 . S
C1134 H1120 0.931 . S
C1134 C1133 1.385 . S
C1134 C1135 1.389 . S
C1135 C1134 1.389 . S
C1135 C1136 1.387 . S
C1136 H1121 0.930 . S
C1136 C1131 1.390 . S
C1136 C1135 1.387 . S
H1137 C1149 0.930 . S
H1138 C1151 0.930 . S
H1139 C1152 0.930 1_556 S
H1140 C1156 0.959 . S
H1141 C1156 0.959 . S
H1142 C1156 0.961 . S
H1143 C1157 0.960 . S
H1144 C1157 0.961 . S
H1145 C1157 0.959 . S
H1146 C1160 0.929 . S
H1147 C1161 0.931 . S
H1148 C1163 0.930 . S
C1149 H1137 0.930 . S
C1149 C1150 1.399 . S
C1149 C1154 1.399 . S
C1150 C1149 1.399 . S
C1150 C1151 1.376 . S
C1151 H1138 0.930 . S
C1151 C1150 1.376 . S
C1151 C1152 1.388 . S
C1152 H1139 0.930 1_554 S
C1152 C1151 1.388 . S
C1152 C1153 1.390 . S
C1153 C1152 1.390 . S
C1153 C1154 1.394 . S
C1153 C1159 1.465 1_554 S
C1154 C1149 1.399 . S
C1154 C1153 1.394 . S
C1154 C1155 1.516 . S
C1155 C1154 1.516 . S
C1155 C1156 1.502 . S
C1155 C1157 1.561 . S
C1155 C1158 1.526 1_554 S
C1156 H1140 0.959 . S
C1156 H1141 0.959 . S
C1156 H1142 0.961 . S
C1156 C1155 1.502 . S
C1157 H1143 0.960 . S
C1157 H1144 0.961 . S
C1157 H1145 0.959 . S
C1157 C1155 1.561 . S
C1158 C1155 1.526 1_556 S
C1158 C1159 1.396 . S
C1158 C1163 1.390 . S
C1159 C1153 1.465 1_556 S
C1159 C1158 1.396 . S
C1159 C1160 1.399 . S
C1160 H1146 0.929 . S
C1160 C1159 1.399 . S
C1160 C1161 1.385 . S
C1161 H1147 0.931 . S
C1161 C1160 1.385 . S
C1161 C1162 1.389 . S
C1162 C1161 1.389 . S
C1162 C1163 1.387 . S
C1163 H1148 0.930 . S
C1163 C1158 1.390 . S
C1163 C1162 1.387 . S
H1164 C1176 0.930 . S
H1165 C1178 0.930 . S
H1166 C1179 0.930 . S
H1167 C1183 0.959 . S
H1168 C1183 0.959 . S
H1169 C1183 0.961 . S
H1170 C1184 0.960 . S
H1171 C1184 0.961 . S
H1172 C1184 0.959 . S
H1173 C1187 0.929 . S
H1174 C1188 0.931 . S
H1175 C1190 0.930 . S
C1176 H1164 0.930 . S
C1176 C1177 1.399 . S
C1176 C1181 1.399 . S
C1177 C1176 1.399 . S
C1177 C1178 1.376 . S
C1178 H1165 0.930 . S
C1178 C1177 1.376 . S
C1178 C1179 1.388 . S
C1179 H1166 0.930 . S
C1179 C1178 1.388 . S
C1179 C1180 1.390 . S
C1180 C1179 1.390 . S
C1180 C1181 1.394 . S
C1180 C1186 1.465 . S
C1181 C1176 1.399 . S
C1181 C1180 1.394 . S
C1181 C1182 1.516 . S
C1182 C1181 1.516 . S
C1182 C1183 1.502 . S
C1182 C1184 1.561 . S
C1182 C1185 1.526 . S
C1183 H1167 0.959 . S
C1183 H1168 0.959 . S
C1183 H1169 0.961 . S
C1183 C1182 1.502 . S
C1184 H1170 0.960 . S
C1184 H1171 0.961 . S
C1184 H1172 0.959 . S
C1184 C1182 1.561 . S
C1185 C1182 1.526 . S
C1185 C1186 1.396 . S
C1185 C1190 1.390 . S
C1186 C1180 1.465 . S
C1186 C1185 1.396 . S
C1186 C1187 1.399 . S
C1187 H1173 0.929 . S
C1187 C1186 1.399 . S
C1187 C1188 1.385 . S
C1188 H1174 0.931 . S
C1188 C1187 1.385 . S
C1188 C1189 1.389 . S
C1189 C1188 1.389 . S
C1189 C1190 1.387 . S
C1190 H1175 0.930 . S
C1190 C1185 1.390 . S
C1190 C1189 1.387 . S
H1191 C1203 0.930 . S
H1192 C1205 0.930 . S
H1193 C1206 0.930 . S
H1194 C1210 0.959 . S
H1195 C1210 0.959 . S
H1196 C1210 0.961 . S
H1197 C1211 0.960 . S
H1198 C1211 0.961 . S
H1199 C1211 0.959 . S
H1200 C1214 0.929 . S
H1201 C1215 0.931 . S
H1202 C1217 0.930 . S
C1203 H1191 0.930 . S
C1203 C1204 1.399 . S
C1203 C1208 1.399 . S
C1204 C1203 1.399 . S
C1204 C1205 1.376 . S
C1205 H1192 0.930 . S
C1205 C1204 1.376 . S
C1205 C1206 1.388 . S
C1206 H1193 0.930 . S
C1206 C1205 1.388 . S
C1206 C1207 1.390 . S
C1207 C1206 1.390 . S
C1207 C1208 1.394 . S
C1207 C1213 1.465 . S
C1208 C1203 1.399 . S
C1208 C1207 1.394 . S
C1208 C1209 1.516 . S
C1209 C1208 1.516 . S
C1209 C1210 1.502 . S
C1209 C1211 1.561 . S
C1209 C1212 1.526 . S
C1210 H1194 0.959 . S
C1210 H1195 0.959 . S
C1210 H1196 0.961 . S
C1210 C1209 1.502 . S
C1211 H1197 0.960 . S
C1211 H1198 0.961 . S
C1211 H1199 0.959 . S
C1211 C1209 1.561 . S
C1212 C1209 1.526 . S
C1212 C1213 1.396 . S
C1212 C1217 1.390 . S
C1213 C1207 1.465 . S
C1213 C1212 1.396 . S
C1213 C1214 1.399 . S
C1214 H1200 0.929 . S
C1214 C1213 1.399 . S
C1214 C1215 1.385 . S
C1215 H1201 0.931 . S
C1215 C1214 1.385 . S
C1215 C1216 1.389 . S
C1216 C1215 1.389 . S
C1216 C1217 1.387 . S
C1217 H1202 0.930 . S
C1217 C1212 1.390 . S
C1217 C1216 1.387 . S
H1218 C1230 0.930 . S
H1219 C1232 0.930 . S
H1220 C1233 0.930 . S
H1221 C1237 0.959 . S
H1222 C1237 0.959 . S
H1223 C1237 0.961 1_554 S
H1224 C1238 0.960 1_554 S
H1225 C1238 0.961 . S
H1226 C1238 0.959 . S
H1227 C1241 0.929 . S
H1228 C1242 0.931 . S
H1229 C1244 0.930 . S
C1230 H1218 0.930 . S
C1230 C1231 1.399 . S
C1230 C1235 1.399 . S
C1231 C1230 1.399 . S
C1231 C1232 1.376 1_545 S
C1232 H1219 0.930 . S
C1232 C1231 1.376 1_565 S
C1232 C1233 1.388 . S
C1233 H1220 0.930 . S
C1233 C1232 1.388 . S
C1233 C1234 1.390 . S
C1234 C1233 1.390 . S
C1234 C1235 1.394 1_565 S
C1234 C1240 1.465 1_554 S
C1235 C1230 1.399 . S
C1235 C1234 1.394 1_545 S
C1235 C1236 1.516 1_554 S
C1236 C1235 1.516 1_556 S
C1236 C1237 1.502 . S
C1236 C1238 1.561 . S
C1236 C1239 1.526 . S
C1237 H1221 0.959 . S
C1237 H1222 0.959 . S
C1237 H1223 0.961 1_556 S
C1237 C1236 1.502 . S
C1238 H1224 0.960 1_556 S
C1238 H1225 0.961 . S
C1238 H1226 0.959 . S
C1238 C1236 1.561 . S
C1239 C1236 1.526 . S
C1239 C1240 1.396 1_545 S
C1239 C1244 1.390 . S
C1240 C1234 1.465 1_556 S
C1240 C1239 1.396 1_565 S
C1240 C1241 1.399 . S
C1241 H1227 0.929 . S
C1241 C1240 1.399 . S
C1241 C1242 1.385 . S
C1242 H1228 0.931 . S
C1242 C1241 1.385 . S
C1242 C1243 1.389 . S
C1243 C1242 1.389 . S
C1243 C1244 1.387 1_565 S
C1244 H1229 0.930 . S
C1244 C1239 1.390 . S
C1244 C1243 1.387 1_545 S
H1245 C1257 0.930 . S
H1246 C1259 0.930 . S
H1247 C1260 0.930 . S
H1248 C1264 0.959 . S
H1249 C1264 0.959 . S
H1250 C1264 0.961 . S
H1251 C1265 0.960 . S
H1252 C1265 0.961 . S
H1253 C1265 0.959 . S
H1254 C1268 0.929 . S
H1255 C1269 0.931 . S
H1256 C1271 0.930 . S
C1257 H1245 0.930 . S
C1257 C1258 1.399 . S
C1257 C1262 1.399 . S
C1258 C1257 1.399 . S
C1258 C1259 1.376 . S
C1259 H1246 0.930 . S
C1259 C1258 1.376 . S
C1259 C1260 1.388 . S
C1260 H1247 0.930 . S
C1260 C1259 1.388 . S
C1260 C1261 1.390 . S
C1261 C1260 1.390 . S
C1261 C1262 1.394 . S
C1261 C1267 1.465 . S
C1262 C1257 1.399 . S
C1262 C1261 1.394 . S
C1262 C1263 1.516 . S
C1263 C1262 1.516 . S
C1263 C1264 1.502 . S
C1263 C1265 1.561 . S
C1263 C1266 1.526 . S
C1264 H1248 0.959 . S
C1264 H1249 0.959 . S
C1264 H1250 0.961 . S
C1264 C1263 1.502 . S
C1265 H1251 0.960 . S
C1265 H1252 0.961 . S
C1265 H1253 0.959 . S
C1265 C1263 1.561 . S
C1266 C1263 1.526 . S
C1266 C1267 1.396 . S
C1266 C1271 1.390 . S
C1267 C1261 1.465 . S
C1267 C1266 1.396 . S
C1267 C1268 1.399 . S
C1268 H1254 0.929 . S
C1268 C1267 1.399 . S
C1268 C1269 1.385 . S
C1269 H1255 0.931 . S
C1269 C1268 1.385 . S
C1269 C1270 1.389 . S
C1270 C1269 1.389 . S
C1270 C1271 1.387 . S
C1271 H1256 0.930 . S
C1271 C1266 1.390 . S
C1271 C1270 1.387 . S
H1272 C1284 0.930 . S
H1273 C1286 0.930 . S
H1274 C1287 0.930 . S
H1275 C1291 0.959 . S
H1276 C1291 0.959 . S
H1277 C1291 0.961 . S
H1278 C1292 0.960 . S
H1279 C1292 0.961 . S
H1280 C1292 0.959 . S
H1281 C1295 0.929 . S
H1282 C1296 0.931 . S
H1283 C1298 0.930 . S
C1284 H1272 0.930 . S
C1284 C1285 1.399 . S
C1284 C1289 1.399 . S
C1285 C1284 1.399 . S
C1285 C1286 1.376 1_455 S
C1286 H1273 0.930 . S
C1286 C1285 1.376 1_655 S
C1286 C1287 1.388 . S
C1287 H1274 0.930 . S
C1287 C1286 1.388 . S
C1287 C1288 1.390 . S
C1288 C1287 1.390 . S
C1288 C1289 1.394 1_655 S
C1288 C1294 1.465 . S
C1289 C1284 1.399 . S
C1289 C1288 1.394 1_455 S
C1289 C1290 1.516 . S
C1290 C1289 1.516 . S
C1290 C1291 1.502 . S
C1290 C1292 1.561 . S
C1290 C1293 1.526 . S
C1291 H1275 0.959 . S
C1291 H1276 0.959 . S
C1291 H1277 0.961 . S
C1291 C1290 1.502 . S
C1292 H1278 0.960 . S
C1292 H1279 0.961 . S
C1292 H1280 0.959 . S
C1292 C1290 1.561 . S
C1293 C1290 1.526 . S
C1293 C1294 1.396 1_455 S
C1293 C1298 1.390 . S
C1294 C1288 1.465 . S
C1294 C1293 1.396 1_655 S
C1294 C1295 1.399 . S
C1295 H1281 0.929 . S
C1295 C1294 1.399 . S
C1295 C1296 1.385 . S
C1296 H1282 0.931 . S
C1296 C1295 1.385 . S
C1296 C1297 1.389 . S
C1297 C1296 1.389 . S
C1297 C1298 1.387 1_655 S
C1298 H1283 0.930 . S
C1298 C1293 1.390 . S
C1298 C1297 1.387 1_455 S
H1299 C1311 0.930 . S
H1300 C1313 0.930 . S
H1301 C1314 0.930 . S
H1302 C1318 0.959 . S
H1303 C1318 0.959 . S
H1304 C1318 0.961 1_554 S
H1305 C1319 0.960 1_554 S
H1306 C1319 0.961 . S
H1307 C1319 0.959 . S
H1308 C1322 0.929 . S
H1309 C1323 0.931 . S
H1310 C1325 0.930 . S
C1311 H1299 0.930 . S
C1311 C1312 1.399 . S
C1311 C1316 1.399 . S
C1312 C1311 1.399 . S
C1312 C1313 1.376 1_565 S
C1313 H1300 0.930 . S
C1313 C1312 1.376 1_545 S
C1313 C1314 1.388 . S
C1314 H1301 0.930 . S
C1314 C1313 1.388 . S
C1314 C1315 1.390 . S
C1315 C1314 1.390 . S
C1315 C1316 1.394 1_545 S
C1315 C1321 1.465 1_554 S
C1316 C1311 1.399 . S
C1316 C1315 1.394 1_565 S
C1316 C1317 1.516 1_554 S
C1317 C1316 1.516 1_556 S
C1317 C1318 1.502 . S
C1317 C1319 1.561 . S
C1317 C1320 1.526 . S
C1318 H1302 0.959 . S
C1318 H1303 0.959 . S
C1318 H1304 0.961 1_556 S
C1318 C1317 1.502 . S
C1319 H1305 0.960 1_556 S
C1319 H1306 0.961 . S
C1319 H1307 0.959 . S
C1319 C1317 1.561 . S
C1320 C1317 1.526 . S
C1320 C1321 1.396 1_565 S
C1320 C1325 1.390 . S
C1321 C1315 1.465 1_556 S
C1321 C1320 1.396 1_545 S
C1321 C1322 1.399 . S
C1322 H1308 0.929 . S
C1322 C1321 1.399 . S
C1322 C1323 1.385 . S
C1323 H1309 0.931 . S
C1323 C1322 1.385 . S
C1323 C1324 1.389 . S
C1324 C1323 1.389 . S
C1324 C1325 1.387 1_545 S
C1325 H1310 0.930 . S
C1325 C1320 1.390 . S
C1325 C1324 1.387 1_565 S
H1326 C1338 0.930 . S
H1327 C1340 0.930 . S
H1328 C1341 0.930 . S
H1329 C1345 0.959 . S
H1330 C1345 0.959 . S
H1331 C1345 0.961 . S
H1332 C1346 0.960 . S
H1333 C1346 0.961 . S
H1334 C1346 0.959 . S
H1335 C1349 0.929 . S
H1336 C1350 0.931 . S
H1337 C1352 0.930 . S
C1338 H1326 0.930 . S
C1338 C1339 1.399 . S
C1338 C1343 1.399 . S
C1339 C1338 1.399 . S
C1339 C1340 1.376 . S
C1340 H1327 0.930 . S
C1340 C1339 1.376 . S
C1340 C1341 1.388 . S
C1341 H1328 0.930 . S
C1341 C1340 1.388 . S
C1341 C1342 1.390 . S
C1342 C1341 1.390 . S
C1342 C1343 1.394 . S
C1342 C1348 1.465 . S
C1343 C1338 1.399 . S
C1343 C1342 1.394 . S
C1343 C1344 1.516 . S
C1344 C1343 1.516 . S
C1344 C1345 1.502 . S
C1344 C1346 1.561 . S
C1344 C1347 1.526 . S
C1345 H1329 0.959 . S
C1345 H1330 0.959 . S
C1345 H1331 0.961 . S
C1345 C1344 1.502 . S
C1346 H1332 0.960 . S
C1346 H1333 0.961 . S
C1346 H1334 0.959 . S
C1346 C1344 1.561 . S
C1347 C1344 1.526 . S
C1347 C1348 1.396 . S
C1347 C1352 1.390 . S
C1348 C1342 1.465 . S
C1348 C1347 1.396 . S
C1348 C1349 1.399 . S
C1349 H1335 0.929 . S
C1349 C1348 1.399 . S
C1349 C1350 1.385 . S
C1350 H1336 0.931 . S
C1350 C1349 1.385 . S
C1350 C1351 1.389 . S
C1351 C1350 1.389 . S
C1351 C1352 1.387 . S
C1352 H1337 0.930 . S
C1352 C1347 1.390 . S
C1352 C1351 1.387 . S
H1353 C1365 0.930 . S
H1354 C1367 0.930 . S
H1355 C1368 0.930 . S
H1356 C1372 0.959 . S
H1357 C1372 0.959 . S
H1358 C1372 0.961 . S
H1359 C1373 0.960 . S
H1360 C1373 0.961 . S
H1361 C1373 0.959 . S
H1362 C1376 0.929 . S
H1363 C1377 0.931 . S
H1364 C1379 0.930 . S
C1365 H1353 0.930 . S
C1365 C1366 1.399 . S
C1365 C1370 1.412 . S
C1366 C1365 1.399 . S
C1366 C1367 1.376 . S
C1367 H1354 0.930 . S
C1367 C1366 1.376 . S
C1367 C1368 1.388 . S
C1368 H1355 0.930 . S
C1368 C1367 1.388 . S
C1368 C1369 1.390 . S
C1369 C1368 1.390 . S
C1369 C1370 1.375 . S
C1369 C1375 1.465 1_455 S
C1370 C1365 1.412 . S
C1370 C1369 1.375 . S
C1370 C1371 1.520 1_455 S
C1371 C1370 1.520 1_655 S
C1371 C1372 1.502 1_655 S
C1371 C1373 1.561 . S
C1371 C1374 1.526 . S
C1372 H1356 0.959 . S
C1372 H1357 0.959 . S
C1372 H1358 0.961 . S
C1372 C1371 1.502 1_455 S
C1373 H1359 0.960 . S
C1373 H1360 0.961 . S
C1373 H1361 0.959 . S
C1373 C1371 1.561 . S
C1374 C1371 1.526 . S
C1374 C1375 1.396 . S
C1374 C1379 1.390 . S
C1375 C1369 1.465 1_655 S
C1375 C1374 1.396 . S
C1375 C1376 1.399 . S
C1376 H1362 0.929 . S
C1376 C1375 1.399 . S
C1376 C1377 1.385 . S
C1377 H1363 0.931 . S
C1377 C1376 1.385 . S
C1377 C1378 1.389 . S
C1378 C1377 1.389 . S
C1378 C1379 1.387 . S
C1379 H1364 0.930 . S
C1379 C1374 1.390 . S
C1379 C1378 1.387 . S
H1380 C1392 0.930 . S
H1381 C1394 0.930 . S
H1382 C1395 0.930 1_545 S
H1383 C1399 0.959 . S
H1384 C1399 0.959 . S
H1385 C1399 0.961 . S
H1386 C1400 0.960 . S
H1387 C1400 0.961 . S
H1388 C1400 0.959 . S
H1389 C1403 0.929 . S
H1390 C1404 0.931 . S
H1391 C1406 0.930 . S
C1392 H1380 0.930 . S
C1392 C1393 1.399 . S
C1392 C1397 1.399 . S
C1393 C1392 1.399 . S
C1393 C1394 1.376 . S
C1394 H1381 0.930 . S
C1394 C1393 1.376 . S
C1394 C1395 1.388 . S
C1395 H1382 0.930 1_565 S
C1395 C1394 1.388 . S
C1395 C1396 1.390 . S
C1396 C1395 1.390 . S
C1396 C1397 1.394 . S
C1396 C1402 1.465 1_565 S
C1397 C1392 1.399 . S
C1397 C1396 1.394 . S
C1397 C1398 1.516 . S
C1398 C1397 1.516 . S
C1398 C1399 1.502 . S
C1398 C1400 1.561 1_565 S
C1398 C1401 1.526 1_565 S
C1399 H1383 0.959 . S
C1399 H1384 0.959 . S
C1399 H1385 0.961 . S
C1399 C1398 1.502 . S
C1400 H1386 0.960 . S
C1400 H1387 0.961 . S
C1400 H1388 0.959 . S
C1400 C1398 1.561 1_545 S
C1401 C1398 1.526 1_545 S
C1401 C1402 1.396 . S
C1401 C1406 1.390 . S
C1402 C1396 1.465 1_545 S
C1402 C1401 1.396 . S
C1402 C1403 1.399 . S
C1403 H1389 0.929 . S
C1403 C1402 1.399 . S
C1403 C1404 1.385 . S
C1404 H1390 0.931 . S
C1404 C1403 1.385 . S
C1404 C1405 1.389 . S
C1405 C1404 1.389 . S
C1405 C1406 1.387 . S
C1406 H1391 0.930 . S
C1406 C1401 1.390 . S
C1406 C1405 1.387 . S
H1407 C1419 0.930 . S
H1408 C1421 0.930 . S
H1409 C1422 0.930 . S
H1410 C1426 0.959 . S
H1411 C1426 0.959 . S
H1412 C1426 0.961 . S
H1413 C1427 0.960 . S
H1414 C1427 0.961 . S
H1415 C1427 0.959 . S
H1416 C1430 0.929 . S
H1417 C1431 0.931 . S
H1418 C1433 0.930 . S
C1419 H1407 0.930 . S
C1419 C1420 1.399 . S
C1419 C1424 1.399 . S
C1420 C1419 1.399 . S
C1420 C1421 1.376 . S
C1421 H1408 0.930 . S
C1421 C1420 1.376 . S
C1421 C1422 1.388 . S
C1422 H1409 0.930 . S
C1422 C1421 1.388 . S
C1422 C1423 1.390 . S
C1423 C1422 1.390 . S
C1423 C1424 1.394 . S
C1423 C1429 1.465 . S
C1424 C1419 1.399 . S
C1424 C1423 1.394 . S
C1424 C1425 1.516 . S
C1425 C1424 1.516 . S
C1425 C1426 1.502 . S
C1425 C1427 1.561 . S
C1425 C1428 1.526 . S
C1426 H1410 0.959 . S
C1426 H1411 0.959 . S
C1426 H1412 0.961 . S
C1426 C1425 1.502 . S
C1427 H1413 0.960 . S
C1427 H1414 0.961 . S
C1427 H1415 0.959 . S
C1427 C1425 1.561 . S
C1428 C1425 1.526 . S
C1428 C1429 1.396 . S
C1428 C1433 1.390 . S
C1429 C1423 1.465 . S
C1429 C1428 1.396 . S
C1429 C1430 1.399 . S
C1430 H1416 0.929 . S
C1430 C1429 1.399 . S
C1430 C1431 1.385 . S
C1431 H1417 0.931 . S
C1431 C1430 1.385 . S
C1431 C1432 1.389 . S
C1432 C1431 1.389 . S
C1432 C1433 1.387 . S
C1433 H1418 0.930 . S
C1433 C1428 1.390 . S
C1433 C1432 1.387 . S
H1434 C1446 0.930 . S
H1435 C1448 0.930 . S
H1436 C1449 0.930 . S
H1437 C1453 0.959 . S
H1438 C1453 0.958 1_554 S
H1439 C1453 0.961 . S
H1440 C1454 0.960 . S
H1441 C1454 0.961 . S
H1442 C1454 0.959 1_655 S
H1443 C1457 0.929 . S
H1444 C1458 0.931 . S
H1445 C1460 0.930 . S
C1446 H1434 0.930 . S
C1446 C1447 1.399 . S
C1446 C1451 1.399 . S
C1447 C1446 1.399 . S
C1447 C1448 1.376 . S
C1448 H1435 0.930 . S
C1448 C1447 1.376 . S
C1448 C1449 1.388 1_455 S
C1449 H1436 0.930 . S
C1449 C1448 1.388 1_655 S
C1449 C1450 1.390 . S
C1450 C1449 1.390 . S
C1450 C1451 1.394 1_655 S
C1450 C1456 1.465 . S
C1451 C1446 1.399 . S
C1451 C1450 1.394 1_455 S
C1451 C1452 1.516 . S
C1452 C1451 1.516 . S
C1452 C1453 1.502 . S
C1452 C1454 1.561 1_556 S
C1452 C1455 1.526 1_455 S
C1453 H1437 0.959 . S
C1453 H1438 0.958 1_556 S
C1453 H1439 0.961 . S
C1453 C1452 1.502 . S
C1454 H1440 0.960 . S
C1454 H1441 0.961 . S
C1454 H1442 0.959 1_455 S
C1454 C1452 1.561 1_554 S
C1455 C1452 1.526 1_655 S
C1455 C1456 1.396 . S
C1455 C1460 1.390 . S
C1456 C1450 1.465 . S
C1456 C1455 1.396 . S
C1456 C1457 1.399 . S
C1457 H1443 0.929 . S
C1457 C1456 1.399 . S
C1457 C1458 1.385 . S
C1458 H1444 0.931 . S
C1458 C1457 1.385 . S
C1458 C1459 1.389 . S
C1459 C1458 1.389 . S
C1459 C1460 1.387 . S
C1460 H1445 0.930 . S
C1460 C1455 1.390 . S
C1460 C1459 1.387 . S
H1461 C1473 0.930 . S
H1462 C1475 0.930 . S
H1463 C1476 0.930 . S
H1464 C1480 0.959 . S
H1465 C1480 0.959 . S
H1466 C1480 0.961 . S
H1467 C1481 0.960 . S
H1468 C1481 0.961 . S
H1469 C1481 0.959 1_655 S
H1470 C1484 0.929 . S
H1471 C1485 0.931 . S
H1472 C1487 0.930 . S
C1473 H1461 0.930 . S
C1473 C1474 1.399 . S
C1473 C1478 1.399 . S
C1474 C1473 1.399 . S
C1474 C1475 1.376 . S
C1475 H1462 0.930 . S
C1475 C1474 1.376 . S
C1475 C1476 1.388 . S
C1476 H1463 0.930 . S
C1476 C1475 1.388 . S
C1476 C1477 1.390 . S
C1477 C1476 1.390 . S
C1477 C1478 1.394 . S
C1477 C1483 1.465 . S
C1478 C1473 1.399 . S
C1478 C1477 1.394 . S
C1478 C1479 1.516 1_655 S
C1479 C1478 1.516 1_455 S
C1479 C1480 1.502 . S
C1479 C1481 1.561 . S
C1479 C1482 1.526 . S
C1480 H1464 0.959 . S
C1480 H1465 0.959 . S
C1480 H1466 0.961 . S
C1480 C1479 1.502 . S
C1481 H1467 0.960 . S
C1481 H1468 0.961 . S
C1481 H1469 0.959 1_455 S
C1481 C1479 1.561 . S
C1482 C1479 1.526 . S
C1482 C1483 1.396 1_455 S
C1482 C1487 1.390 . S
C1483 C1477 1.465 . S
C1483 C1482 1.396 1_655 S
C1483 C1484 1.399 . S
C1484 H1470 0.929 . S
C1484 C1483 1.399 . S
C1484 C1485 1.385 1_655 S
C1485 H1471 0.931 . S
C1485 C1484 1.385 1_455 S
C1485 C1486 1.389 . S
C1486 C1485 1.389 . S
C1486 C1487 1.387 . S
C1487 H1472 0.930 . S
C1487 C1482 1.390 . S
C1487 C1486 1.387 . S
H1488 C1500 0.930 . S
H1489 C1502 0.930 . S
H1490 C1503 0.930 1_545 S
H1491 C1507 0.959 . S
H1492 C1507 0.959 . S
H1493 C1507 0.961 . S
H1494 C1508 0.960 . S
H1495 C1508 0.961 . S
H1496 C1508 0.959 . S
H1497 C1511 0.929 . S
H1498 C1512 0.931 . S
H1499 C1514 0.930 . S
C1500 H1488 0.930 . S
C1500 C1501 1.399 . S
C1500 C1505 1.399 . S
C1501 C1500 1.399 . S
C1501 C1502 1.376 . S
C1502 H1489 0.930 . S
C1502 C1501 1.376 . S
C1502 C1503 1.388 . S
C1503 H1490 0.930 1_565 S
C1503 C1502 1.388 . S
C1503 C1504 1.390 . S
C1504 C1503 1.390 . S
C1504 C1505 1.394 . S
C1504 C1510 1.465 1_565 S
C1505 C1500 1.399 . S
C1505 C1504 1.394 . S
C1505 C1506 1.516 . S
C1506 C1505 1.516 . S
C1506 C1507 1.502 . S
C1506 C1508 1.561 1_565 S
C1506 C1509 1.526 1_565 S
C1507 H1491 0.959 . S
C1507 H1492 0.959 . S
C1507 H1493 0.961 . S
C1507 C1506 1.502 . S
C1508 H1494 0.960 . S
C1508 H1495 0.961 . S
C1508 H1496 0.959 . S
C1508 C1506 1.561 1_545 S
C1509 C1506 1.526 1_545 S
C1509 C1510 1.396 . S
C1509 C1514 1.390 . S
C1510 C1504 1.465 1_545 S
C1510 C1509 1.396 . S
C1510 C1511 1.399 . S
C1511 H1497 0.929 . S
C1511 C1510 1.399 . S
C1511 C1512 1.385 . S
C1512 H1498 0.931 . S
C1512 C1511 1.385 . S
C1512 C1513 1.389 . S
C1513 C1512 1.389 . S
C1513 C1514 1.387 . S
C1514 H1499 0.930 . S
C1514 C1509 1.390 . S
C1514 C1513 1.387 . S
H1515 C1527 0.930 . S
H1516 C1529 0.918 1_556 S
H1517 C1530 0.930 1_556 S
H1518 C1534 0.959 . S
H1519 C1534 0.959 . S
H1520 C1534 0.961 . S
H1521 C1535 0.960 . S
H1522 C1535 0.961 . S
H1523 C1535 0.959 . S
H1524 C1538 0.929 1_556 S
H1525 C1539 0.931 1_556 S
H1526 C1541 0.930 . S
C1527 H1515 0.930 . S
C1527 C1528 1.399 . S
C1527 C1532 1.399 . S
C1528 C1527 1.399 . S
C1528 C1529 1.376 . S
C1529 H1516 0.918 1_554 S
C1529 C1528 1.376 . S
C1529 C1530 1.388 . S
C1530 H1517 0.930 1_554 S
C1530 C1529 1.388 . S
C1530 C1531 1.390 . S
C1531 C1530 1.390 . S
C1531 C1532 1.394 . S
C1531 C1537 1.465 . S
C1532 C1527 1.399 . S
C1532 C1531 1.394 . S
C1532 C1533 1.516 . S
C1533 C1532 1.516 . S
C1533 C1534 1.502 . S
C1533 C1535 1.561 . S
C1533 C1536 1.526 . S
C1534 H1518 0.959 . S
C1534 H1519 0.959 . S
C1534 H1520 0.961 . S
C1534 C1533 1.502 . S
C1535 H1521 0.960 . S
C1535 H1522 0.961 . S
C1535 H1523 0.959 . S
C1535 C1533 1.561 . S
C1536 C1533 1.526 . S
C1536 C1537 1.396 . S
C1536 C1541 1.390 . S
C1537 C1531 1.465 . S
C1537 C1536 1.396 . S
C1537 C1538 1.399 . S
C1538 H1524 0.929 1_554 S
C1538 C1537 1.399 . S
C1538 C1539 1.385 . S
C1539 H1525 0.931 1_554 S
C1539 C1538 1.385 . S
C1539 C1540 1.389 . S
C1540 C1539 1.389 . S
C1540 C1541 1.387 . S
C1541 H1526 0.930 . S
C1541 C1536 1.390 . S
C1541 C1540 1.387 . S
H1542 C1554 0.930 . S
H1543 C1556 0.930 . S
H1544 C1557 0.930 . S
H1545 C1561 0.959 . S
H1546 C1561 0.959 . S
H1547 C1561 0.961 . S
H1548 C1562 0.960 . S
H1549 C1562 0.961 . S
H1550 C1562 0.959 . S
H1551 C1565 0.929 . S
H1552 C1566 0.931 . S
H1553 C1568 0.930 . S
C1554 H1542 0.930 . S
C1554 C1555 1.399 . S
C1554 C1559 1.399 . S
C1555 C1554 1.399 . S
C1555 C1556 1.376 . S
C1556 H1543 0.930 . S
C1556 C1555 1.376 . S
C1556 C1557 1.388 . S
C1557 H1544 0.930 . S
C1557 C1556 1.388 . S
C1557 C1558 1.390 . S
C1558 C1557 1.390 . S
C1558 C1559 1.394 . S
C1558 C1564 1.465 . S
C1559 C1554 1.399 . S
C1559 C1558 1.394 . S
C1559 C1560 1.516 . S
C1560 C1559 1.516 . S
C1560 C1561 1.502 . S
C1560 C1562 1.561 . S
C1560 C1563 1.526 . S
C1561 H1545 0.959 . S
C1561 H1546 0.959 . S
C1561 H1547 0.961 . S
C1561 C1560 1.502 . S
C1562 H1548 0.960 . S
C1562 H1549 0.961 . S
C1562 H1550 0.959 . S
C1562 C1560 1.561 . S
C1563 C1560 1.526 . S
C1563 C1564 1.396 . S
C1563 C1568 1.390 . S
C1564 C1558 1.465 . S
C1564 C1563 1.396 . S
C1564 C1565 1.399 . S
C1565 H1551 0.929 . S
C1565 C1564 1.399 . S
C1565 C1566 1.385 . S
C1566 H1552 0.931 . S
C1566 C1565 1.385 . S
C1566 C1567 1.389 . S
C1567 C1566 1.389 . S
C1567 C1568 1.387 . S
C1568 H1553 0.930 . S
C1568 C1563 1.390 . S
C1568 C1567 1.387 . S
H1569 C1581 0.930 . S
H1570 C1583 0.930 . S
H1571 C1584 0.930 . S
H1572 C1588 0.959 . S
H1573 C1588 0.959 . S
H1574 C1588 0.961 . S
H1575 C1589 0.960 . S
H1576 C1589 0.961 . S
H1577 C1589 0.959 . S
H1578 C1592 0.929 . S
H1579 C1593 0.931 . S
H1580 C1595 0.930 . S
C1581 H1569 0.930 . S
C1581 C1582 1.399 . S
C1581 C1586 1.399 . S
C1582 C1581 1.399 . S
C1582 C1583 1.376 . S
C1583 H1570 0.930 . S
C1583 C1582 1.376 . S
C1583 C1584 1.388 . S
C1584 H1571 0.930 . S
C1584 C1583 1.388 . S
C1584 C1585 1.390 . S
C1585 C1584 1.390 . S
C1585 C1586 1.394 . S
C1585 C1591 1.465 . S
C1586 C1581 1.399 . S
C1586 C1585 1.394 . S
C1586 C1587 1.516 . S
C1587 C1586 1.516 . S
C1587 C1588 1.502 . S
C1587 C1589 1.561 . S
C1587 C1590 1.526 . S
C1588 H1572 0.959 . S
C1588 H1573 0.959 . S
C1588 H1574 0.961 . S
C1588 C1587 1.502 . S
C1589 H1575 0.960 . S
C1589 H1576 0.961 . S
C1589 H1577 0.959 . S
C1589 C1587 1.561 . S
C1590 C1587 1.526 . S
C1590 C1591 1.396 . S
C1590 C1595 1.390 . S
C1591 C1585 1.465 . S
C1591 C1590 1.396 . S
C1591 C1592 1.399 . S
C1592 H1578 0.929 . S
C1592 C1591 1.399 . S
C1592 C1593 1.385 . S
C1593 H1579 0.931 . S
C1593 C1592 1.385 . S
C1593 C1594 1.389 . S
C1594 C1593 1.389 . S
C1594 C1595 1.387 . S
C1595 H1580 0.930 . S
C1595 C1590 1.390 . S
C1595 C1594 1.387 . S
H1596 C1608 0.930 . S
H1597 C1610 0.930 . S
H1598 C1611 0.930 . S
H1599 C1615 0.959 . S
H1600 C1615 0.959 . S
H1601 C1615 0.961 . S
H1602 C1616 0.960 . S
H1603 C1616 0.961 . S
H1604 C1616 0.959 . S
H1605 C1619 0.929 . S
H1606 C1620 0.931 . S
H1607 C1622 0.930 . S
C1608 H1596 0.930 . S
C1608 C1609 1.399 . S
C1608 C1613 1.399 . S
C1609 C1608 1.399 . S
C1609 C1610 1.376 . S
C1610 H1597 0.930 . S
C1610 C1609 1.376 . S
C1610 C1611 1.388 . S
C1611 H1598 0.930 . S
C1611 C1610 1.388 . S
C1611 C1612 1.390 . S
C1612 C1611 1.390 . S
C1612 C1613 1.394 . S
C1612 C1618 1.465 . S
C1613 C1608 1.399 . S
C1613 C1612 1.394 . S
C1613 C1614 1.516 . S
C1614 C1613 1.516 . S
C1614 C1615 1.502 . S
C1614 C1616 1.561 . S
C1614 C1617 1.526 . S
C1615 H1599 0.959 . S
C1615 H1600 0.959 . S
C1615 H1601 0.961 . S
C1615 C1614 1.502 . S
C1616 H1602 0.960 . S
C1616 H1603 0.961 . S
C1616 H1604 0.959 . S
C1616 C1614 1.561 . S
C1617 C1614 1.526 . S
C1617 C1618 1.396 . S
C1617 C1622 1.390 . S
C1618 C1612 1.465 . S
C1618 C1617 1.396 . S
C1618 C1619 1.399 . S
C1619 H1605 0.929 . S
C1619 C1618 1.399 . S
C1619 C1620 1.385 . S
C1620 H1606 0.931 . S
C1620 C1619 1.385 . S
C1620 C1621 1.389 . S
C1621 C1620 1.389 . S
C1621 C1622 1.387 . S
C1622 H1607 0.930 . S
C1622 C1617 1.390 . S
C1622 C1621 1.387 . S
H1623 C1635 0.930 . S
H1624 C1637 0.930 . S
H1625 C1638 0.930 . S
H1626 C1642 0.959 . S
H1627 C1642 0.959 . S
H1628 C1642 0.961 . S
H1629 C1643 0.960 . S
H1630 C1643 0.961 . S
H1631 C1643 0.959 . S
H1632 C1646 0.929 . S
H1633 C1647 0.931 . S
H1634 C1649 0.930 . S
C1635 H1623 0.930 . S
C1635 C1636 1.399 . S
C1635 C1640 1.399 . S
C1636 C1635 1.399 . S
C1636 C1637 1.376 . S
C1637 H1624 0.930 . S
C1637 C1636 1.376 . S
C1637 C1638 1.388 . S
C1638 H1625 0.930 . S
C1638 C1637 1.388 . S
C1638 C1639 1.390 . S
C1639 C1638 1.390 . S
C1639 C1640 1.394 . S
C1639 C1645 1.465 . S
C1640 C1635 1.399 . S
C1640 C1639 1.394 . S
C1640 C1641 1.516 . S
C1641 C1640 1.516 . S
C1641 C1642 1.502 . S
C1641 C1643 1.561 . S
C1641 C1644 1.526 . S
C1642 H1626 0.959 . S
C1642 H1627 0.959 . S
C1642 H1628 0.961 . S
C1642 C1641 1.502 . S
C1643 H1629 0.960 . S
C1643 H1630 0.961 . S
C1643 H1631 0.959 . S
C1643 C1641 1.561 . S
C1644 C1641 1.526 . S
C1644 C1645 1.396 . S
C1644 C1649 1.390 . S
C1645 C1639 1.465 . S
C1645 C1644 1.396 . S
C1645 C1646 1.399 . S
C1646 H1632 0.929 . S
C1646 C1645 1.399 . S
C1646 C1647 1.385 . S
C1647 H1633 0.931 . S
C1647 C1646 1.385 . S
C1647 C1648 1.389 . S
C1648 C1647 1.389 . S
C1648 C1649 1.387 . S
C1649 H1634 0.930 . S
C1649 C1644 1.390 . S
C1649 C1648 1.387 . S
H1650 C1662 0.930 . S
H1651 C1664 0.930 . S
H1652 C1665 0.930 . S
H1653 C1669 0.959 . S
H1654 C1669 0.959 . S
H1655 C1669 0.961 . S
H1656 C1670 0.960 . S
H1657 C1670 0.961 . S
H1658 C1670 0.959 . S
H1659 C1673 0.929 . S
H1660 C1674 0.931 . S
H1661 C1676 0.930 . S
C1662 H1650 0.930 . S
C1662 C1663 1.399 . S
C1662 C1667 1.399 . S
C1663 C1662 1.399 . S
C1663 C1664 1.376 . S
C1664 H1651 0.930 . S
C1664 C1663 1.376 . S
C1664 C1665 1.388 . S
C1665 H1652 0.930 . S
C1665 C1664 1.388 . S
C1665 C1666 1.390 . S
C1666 C1665 1.390 . S
C1666 C1667 1.394 . S
C1666 C1672 1.465 . S
C1667 C1662 1.399 . S
C1667 C1666 1.394 . S
C1667 C1668 1.516 . S
C1668 C1667 1.516 . S
C1668 C1669 1.502 . S
C1668 C1670 1.561 . S
C1668 C1671 1.526 . S
C1669 H1653 0.959 . S
C1669 H1654 0.959 . S
C1669 H1655 0.961 . S
C1669 C1668 1.502 . S
C1670 H1656 0.960 . S
C1670 H1657 0.961 . S
C1670 H1658 0.959 . S
C1670 C1668 1.561 . S
C1671 C1668 1.526 . S
C1671 C1672 1.396 . S
C1671 C1676 1.390 . S
C1672 C1666 1.465 . S
C1672 C1671 1.396 . S
C1672 C1673 1.399 . S
C1673 H1659 0.929 . S
C1673 C1672 1.399 . S
C1673 C1674 1.385 . S
C1674 H1660 0.931 . S
C1674 C1673 1.385 . S
C1674 C1675 1.389 . S
C1675 C1674 1.389 . S
C1675 C1676 1.387 . S
C1676 H1661 0.930 . S
C1676 C1671 1.390 . S
C1676 C1675 1.387 . S
H1677 C1689 0.930 . S
H1678 C1691 0.930 . S
H1679 C1692 0.930 . S
H1680 C1696 0.959 . S
H1681 C1696 0.959 . S
H1682 C1696 0.961 . S
H1683 C1697 0.960 . S
H1684 C1697 0.961 . S
H1685 C1697 0.959 . S
H1686 C1700 0.929 . S
H1687 C1701 0.931 . S
H1688 C1703 0.930 . S
C1689 H1677 0.930 . S
C1689 C1690 1.399 . S
C1689 C1694 1.399 . S
C1690 C1689 1.399 . S
C1690 C1691 1.376 . S
C1691 H1678 0.930 . S
C1691 C1690 1.376 . S
C1691 C1692 1.388 . S
C1692 H1679 0.930 . S
C1692 C1691 1.388 . S
C1692 C1693 1.390 . S
C1693 C1692 1.390 . S
C1693 C1694 1.394 . S
C1693 C1699 1.465 . S
C1694 C1689 1.399 . S
C1694 C1693 1.394 . S
C1694 C1695 1.516 . S
C1695 C1694 1.516 . S
C1695 C1696 1.502 . S
C1695 C1697 1.561 . S
C1695 C1698 1.526 . S
C1696 H1680 0.959 . S
C1696 H1681 0.959 . S
C1696 H1682 0.961 . S
C1696 C1695 1.502 . S
C1697 H1683 0.960 . S
C1697 H1684 0.961 . S
C1697 H1685 0.959 . S
C1697 C1695 1.561 . S
C1698 C1695 1.526 . S
C1698 C1699 1.396 . S
C1698 C1703 1.390 . S
C1699 C1693 1.465 . S
C1699 C1698 1.396 . S
C1699 C1700 1.399 . S
C1700 H1686 0.929 . S
C1700 C1699 1.399 . S
C1700 C1701 1.385 . S
C1701 H1687 0.931 . S
C1701 C1700 1.385 . S
C1701 C1702 1.389 . S
C1702 C1701 1.389 . S
C1702 C1703 1.387 . S
C1703 H1688 0.930 . S
C1703 C1698 1.390 . S
C1703 C1702 1.387 . S
C1069 C49 0.431 . S
C1081 C937 0.290 . S
C1096 C1017 0.304 . S
C1108 C117 0.507 . S
C1123 C585 0.557 . S
C1135 C196 0.416 . S
C1150 C284 0.334 . S
C1162 C645 0.531 . S
C1177 C401 0.283 . S
C1189 C724 0.451 . S
C1204 C821 0.355 . S
C1216 C489 0.541 . S
C1231 C20 0.714 . S
C1243 C673 0.604 . S
C1258 C753 0.839 . S
C1270 C145 0.796 . S
C1285 C849 0.817 . S
C1297 C225 0.690 . S
C1312 C313 0.675 . S
C1324 C909 0.600 . S
C1339 C988 0.738 . S
C1351 C372 0.614 . S
C1366 C460 0.831 . S
C1378 C557 0.812 . S
C1393 C293 0.993 . S
C1405 C57 0.956 . S
C1420 C409 1.015 . S
C1432 C108 1.083 . S
C1447 C497 1.035 . S
C1459 C205 0.973 . S
C1474 C577 1.045 . S
C1486 C812 1.102 . S
C1501 C636 0.996 . S
C1513 C929 0.957 . S
C1528 C733 1.064 . S
C1540 C1025 1.111 . S
C1555 C761 1.762 . S
C1567 C29 1.805 . S
C1582 C841 1.752 . S
C1594 C137 1.813 . S
C1609 C900 1.829 . S
C1621 C233 1.739 . S
C1636 C997 1.778 . S
C1648 C321 1.790 . S
C1663 C548 1.805 . S
C1675 C381 1.761 . S
C1690 C469 1.738 . S
C1702 C665 1.828 . S
