# Generated by pormake.
# Topology wlg, (5)-cn, num edge types: 1
# Building blocks:
#     Node 0, Type 0, BuildingBlock: BEQFEK_clean_sbu_0, # of connection points: 5
#     Node 1, Type 0, BuildingBlock: BEQFEK_clean_sbu_0, # of connection points: 5
#     Node 2, Type 0, BuildingBlock: BEQFEK_clean_sbu_0, # of connection points: 5
#     Node 3, Type 0, BuildingBlock: BEQFEK_clean_sbu_0, # of connection points: 5
#     Node 4, Type 0, BuildingBlock: BEQFEK_clean_sbu_0, # of connection points: 5
#     Node 5, Type 0, BuildingBlock: BEQFEK_clean_sbu_0, # of connection points: 5
#     Node 6, Type 0, BuildingBlock: BEQFEK_clean_sbu_0, # of connection points: 5
#     Node 7, Type 0, BuildingBlock: BEQFEK_clean_sbu_0, # of connection points: 5
#     Node 8, Type 0, BuildingBlock: BEQFEK_clean_sbu_0, # of connection points: 5
#     Node 9, Type 0, BuildingBlock: BEQFEK_clean_sbu_0, # of connection points: 5
#     Node 10, Type 0, BuildingBlock: BEQFEK_clean_sbu_0, # of connection points: 5
#     Node 11, Type 0, BuildingBlock: BEQFEK_clean_sbu_0, # of connection points: 5
#     Node 12, Type 0, BuildingBlock: BEQFEK_clean_sbu_0, # of connection points: 5
#     Node 13, Type 0, BuildingBlock: BEQFEK_clean_sbu_0, # of connection points: 5
#     Node 14, Type 0, BuildingBlock: BEQFEK_clean_sbu_0, # of connection points: 5
#     Node 15, Type 0, BuildingBlock: BEQFEK_clean_sbu_0, # of connection points: 5
#     Node 16, Type 0, BuildingBlock: BEQFEK_clean_sbu_0, # of connection points: 5
#     Node 17, Type 0, BuildingBlock: BEQFEK_clean_sbu_0, # of connection points: 5
#     Node 18, Type 0, BuildingBlock: BEQFEK_clean_sbu_0, # of connection points: 5
#     Node 19, Type 0, BuildingBlock: BEQFEK_clean_sbu_0, # of connection points: 5
#     Node 20, Type 0, BuildingBlock: BEQFEK_clean_sbu_0, # of connection points: 5
#     Node 21, Type 0, BuildingBlock: BEQFEK_clean_sbu_0, # of connection points: 5
#     Node 22, Type 0, BuildingBlock: BEQFEK_clean_sbu_0, # of connection points: 5
#     Node 23, Type 0, BuildingBlock: BEQFEK_clean_sbu_0, # of connection points: 5
#     Node 24, Type 0, BuildingBlock: BEQFEK_clean_sbu_0, # of connection points: 5
#     Node 25, Type 0, BuildingBlock: BEQFEK_clean_sbu_0, # of connection points: 5
#     Node 26, Type 0, BuildingBlock: BEQFEK_clean_sbu_0, # of connection points: 5
#     Node 27, Type 0, BuildingBlock: BEQFEK_clean_sbu_0, # of connection points: 5
#     Node 28, Type 0, BuildingBlock: BEQFEK_clean_sbu_0, # of connection points: 5
#     Node 29, Type 0, BuildingBlock: BEQFEK_clean_sbu_0, # of connection points: 5
#     Node 30, Type 0, BuildingBlock: BEQFEK_clean_sbu_0, # of connection points: 5
#     Node 31, Type 0, BuildingBlock: BEQFEK_clean_sbu_0, # of connection points: 5
#     Node 32, Type 0, BuildingBlock: BEQFEK_clean_sbu_0, # of connection points: 5
#     Node 33, Type 0, BuildingBlock: BEQFEK_clean_sbu_0, # of connection points: 5
#     Node 34, Type 0, BuildingBlock: BEQFEK_clean_sbu_0, # of connection points: 5
#     Node 35, Type 0, BuildingBlock: BEQFEK_clean_sbu_0, # of connection points: 5
#     Edge 36, Type (0, 0), BuildingBlock: XUDNAN_clean_linker_2, # of connection points: 2
#     Edge 37, Type (0, 0), BuildingBlock: XUDNAN_clean_linker_2, # of connection points: 2
#     Edge 38, Type (0, 0), BuildingBlock: XUDNAN_clean_linker_2, # of connection points: 2
#     Edge 39, Type (0, 0), BuildingBlock: XUDNAN_clean_linker_2, # of connection points: 2
#     Edge 40, Type (0, 0), BuildingBlock: XUDNAN_clean_linker_2, # of connection points: 2
#     Edge 41, Type (0, 0), BuildingBlock: XUDNAN_clean_linker_2, # of connection points: 2
#     Edge 42, Type (0, 0), BuildingBlock: XUDNAN_clean_linker_2, # of connection points: 2
#     Edge 43, Type (0, 0), BuildingBlock: XUDNAN_clean_linker_2, # of connection points: 2
#     Edge 44, Type (0, 0), BuildingBlock: XUDNAN_clean_linker_2, # of connection points: 2
#     Edge 45, Type (0, 0), BuildingBlock: XUDNAN_clean_linker_2, # of connection points: 2
#     Edge 46, Type (0, 0), BuildingBlock: XUDNAN_clean_linker_2, # of connection points: 2
#     Edge 47, Type (0, 0), BuildingBlock: XUDNAN_clean_linker_2, # of connection points: 2
#     Edge 48, Type (0, 0), BuildingBlock: XUDNAN_clean_linker_2, # of connection points: 2
#     Edge 49, Type (0, 0), BuildingBlock: XUDNAN_clean_linker_2, # of connection points: 2
#     Edge 50, Type (0, 0), BuildingBlock: XUDNAN_clean_linker_2, # of connection points: 2
#     Edge 51, Type (0, 0), BuildingBlock: XUDNAN_clean_linker_2, # of connection points: 2
#     Edge 52, Type (0, 0), BuildingBlock: XUDNAN_clean_linker_2, # of connection points: 2
#     Edge 53, Type (0, 0), BuildingBlock: XUDNAN_clean_linker_2, # of connection points: 2
#     Edge 54, Type (0, 0), BuildingBlock: XUDNAN_clean_linker_2, # of connection points: 2
#     Edge 55, Type (0, 0), BuildingBlock: XUDNAN_clean_linker_2, # of connection points: 2
#     Edge 56, Type (0, 0), BuildingBlock: XUDNAN_clean_linker_2, # of connection points: 2
#     Edge 57, Type (0, 0), BuildingBlock: XUDNAN_clean_linker_2, # of connection points: 2
#     Edge 58, Type (0, 0), BuildingBlock: XUDNAN_clean_linker_2, # of connection points: 2
#     Edge 59, Type (0, 0), BuildingBlock: XUDNAN_clean_linker_2, # of connection points: 2
#     Edge 60, Type (0, 0), BuildingBlock: XUDNAN_clean_linker_2, # of connection points: 2
#     Edge 61, Type (0, 0), BuildingBlock: XUDNAN_clean_linker_2, # of connection points: 2
#     Edge 62, Type (0, 0), BuildingBlock: XUDNAN_clean_linker_2, # of connection points: 2
#     Edge 63, Type (0, 0), BuildingBlock: XUDNAN_clean_linker_2, # of connection points: 2
#     Edge 64, Type (0, 0), BuildingBlock: XUDNAN_clean_linker_2, # of connection points: 2
#     Edge 65, Type (0, 0), BuildingBlock: XUDNAN_clean_linker_2, # of connection points: 2
#     Edge 66, Type (0, 0), BuildingBlock: XUDNAN_clean_linker_2, # of connection points: 2
#     Edge 67, Type (0, 0), BuildingBlock: XUDNAN_clean_linker_2, # of connection points: 2
#     Edge 68, Type (0, 0), BuildingBlock: XUDNAN_clean_linker_2, # of connection points: 2
#     Edge 69, Type (0, 0), BuildingBlock: XUDNAN_clean_linker_2, # of connection points: 2
#     Edge 70, Type (0, 0), BuildingBlock: XUDNAN_clean_linker_2, # of connection points: 2
#     Edge 71, Type (0, 0), BuildingBlock: XUDNAN_clean_linker_2, # of connection points: 2
#     Edge 72, Type (0, 0), BuildingBlock: XUDNAN_clean_linker_2, # of connection points: 2
#     Edge 73, Type (0, 0), BuildingBlock: XUDNAN_clean_linker_2, # of connection points: 2
#     Edge 74, Type (0, 0), BuildingBlock: XUDNAN_clean_linker_2, # of connection points: 2
#     Edge 75, Type (0, 0), BuildingBlock: XUDNAN_clean_linker_2, # of connection points: 2
#     Edge 76, Type (0, 0), BuildingBlock: XUDNAN_clean_linker_2, # of connection points: 2
#     Edge 77, Type (0, 0), BuildingBlock: XUDNAN_clean_linker_2, # of connection points: 2
#     Edge 78, Type (0, 0), BuildingBlock: XUDNAN_clean_linker_2, # of connection points: 2
#     Edge 79, Type (0, 0), BuildingBlock: XUDNAN_clean_linker_2, # of connection points: 2
#     Edge 80, Type (0, 0), BuildingBlock: XUDNAN_clean_linker_2, # of connection points: 2
#     Edge 81, Type (0, 0), BuildingBlock: XUDNAN_clean_linker_2, # of connection points: 2
#     Edge 82, Type (0, 0), BuildingBlock: XUDNAN_clean_linker_2, # of connection points: 2
#     Edge 83, Type (0, 0), BuildingBlock: XUDNAN_clean_linker_2, # of connection points: 2
#     Edge 84, Type (0, 0), BuildingBlock: XUDNAN_clean_linker_2, # of connection points: 2
#     Edge 85, Type (0, 0), BuildingBlock: XUDNAN_clean_linker_2, # of connection points: 2
#     Edge 86, Type (0, 0), BuildingBlock: XUDNAN_clean_linker_2, # of connection points: 2
#     Edge 87, Type (0, 0), BuildingBlock: XUDNAN_clean_linker_2, # of connection points: 2
#     Edge 88, Type (0, 0), BuildingBlock: XUDNAN_clean_linker_2, # of connection points: 2
#     Edge 89, Type (0, 0), BuildingBlock: XUDNAN_clean_linker_2, # of connection points: 2
#     Edge 90, Type (0, 0), BuildingBlock: XUDNAN_clean_linker_2, # of connection points: 2
#     Edge 91, Type (0, 0), BuildingBlock: XUDNAN_clean_linker_2, # of connection points: 2
#     Edge 92, Type (0, 0), BuildingBlock: XUDNAN_clean_linker_2, # of connection points: 2
#     Edge 93, Type (0, 0), BuildingBlock: XUDNAN_clean_linker_2, # of connection points: 2
#     Edge 94, Type (0, 0), BuildingBlock: XUDNAN_clean_linker_2, # of connection points: 2
#     Edge 95, Type (0, 0), BuildingBlock: XUDNAN_clean_linker_2, # of connection points: 2
#     Edge 96, Type (0, 0), BuildingBlock: XUDNAN_clean_linker_2, # of connection points: 2
#     Edge 97, Type (0, 0), BuildingBlock: XUDNAN_clean_linker_2, # of connection points: 2
#     Edge 98, Type (0, 0), BuildingBlock: XUDNAN_clean_linker_2, # of connection points: 2
#     Edge 99, Type (0, 0), BuildingBlock: XUDNAN_clean_linker_2, # of connection points: 2
#     Edge 100, Type (0, 0), BuildingBlock: XUDNAN_clean_linker_2, # of connection points: 2
#     Edge 101, Type (0, 0), BuildingBlock: XUDNAN_clean_linker_2, # of connection points: 2
#     Edge 102, Type (0, 0), BuildingBlock: XUDNAN_clean_linker_2, # of connection points: 2
#     Edge 103, Type (0, 0), BuildingBlock: XUDNAN_clean_linker_2, # of connection points: 2
#     Edge 104, Type (0, 0), BuildingBlock: XUDNAN_clean_linker_2, # of connection points: 2
#     Edge 105, Type (0, 0), BuildingBlock: XUDNAN_clean_linker_2, # of connection points: 2
#     Edge 106, Type (0, 0), BuildingBlock: XUDNAN_clean_linker_2, # of connection points: 2
#     Edge 107, Type (0, 0), BuildingBlock: XUDNAN_clean_linker_2, # of connection points: 2
#     Edge 108, Type (0, 0), BuildingBlock: XUDNAN_clean_linker_2, # of connection points: 2
#     Edge 109, Type (0, 0), BuildingBlock: XUDNAN_clean_linker_2, # of connection points: 2
#     Edge 110, Type (0, 0), BuildingBlock: XUDNAN_clean_linker_2, # of connection points: 2
#     Edge 111, Type (0, 0), BuildingBlock: XUDNAN_clean_linker_2, # of connection points: 2
#     Edge 112, Type (0, 0), BuildingBlock: XUDNAN_clean_linker_2, # of connection points: 2
#     Edge 113, Type (0, 0), BuildingBlock: XUDNAN_clean_linker_2, # of connection points: 2
#     Edge 114, Type (0, 0), BuildingBlock: XUDNAN_clean_linker_2, # of connection points: 2
#     Edge 115, Type (0, 0), BuildingBlock: XUDNAN_clean_linker_2, # of connection points: 2
#     Edge 116, Type (0, 0), BuildingBlock: XUDNAN_clean_linker_2, # of connection points: 2
#     Edge 117, Type (0, 0), BuildingBlock: XUDNAN_clean_linker_2, # of connection points: 2
#     Edge 118, Type (0, 0), BuildingBlock: XUDNAN_clean_linker_2, # of connection points: 2
#     Edge 119, Type (0, 0), BuildingBlock: XUDNAN_clean_linker_2, # of connection points: 2
#     Edge 120, Type (0, 0), BuildingBlock: XUDNAN_clean_linker_2, # of connection points: 2
#     Edge 121, Type (0, 0), BuildingBlock: XUDNAN_clean_linker_2, # of connection points: 2
#     Edge 122, Type (0, 0), BuildingBlock: XUDNAN_clean_linker_2, # of connection points: 2
#     Edge 123, Type (0, 0), BuildingBlock: XUDNAN_clean_linker_2, # of connection points: 2
#     Edge 124, Type (0, 0), BuildingBlock: XUDNAN_clean_linker_2, # of connection points: 2
#     Edge 125, Type (0, 0), BuildingBlock: XUDNAN_clean_linker_2, # of connection points: 2
# Relax obj value: 0.281
# Max RMSD: 0.180
# Mean RMSD: 0.180
data_MOF--net-wlg--node1-BEQFEK_clean_sbu_0--edge1-XUDNAN_clean_linker_2
_symmetry_space_group_name_H-M    P1
_symmetry_Int_Tables_number       1
_symmetry_cell_setting            triclinic
loop_
_symmetry_equiv_pos_as_xyz
'x, y, z'
_cell_length_a     55.458379
_cell_length_b     55.457417
_cell_length_c     70.125159
_cell_angle_alpha  90.001808
_cell_angle_beta   90.003278
_cell_angle_gamma 120.00415
loop_
_atom_site_label
_atom_site_type_symbol
_atom_site_fract_x
_atom_site_fract_y
_atom_site_fract_z
_atom_type_partial_charge
Co0 Co 0.97109 0.1828 0.14788 0.0
Co1 Co 0.01964 0.16944 0.14883 0.0
C2 C 0.9618 0.12544 0.13978 0.0
O3 O 0.95363 0.14294 0.14184 0.0
O4 O 0.98728 0.13262 0.14194 0.0
C5 C 0.922 0.17797 0.13271 0.0
O6 O 0.9259 0.1628 0.12004 0.0
C7 C 0.05613 0.14828 0.13632 0.0
C8 C 0.09528 0.17596 0.15156 0.0
C9 C 0.08313 0.15374 0.139 0.0
N10 N 0.05238 0.16643 0.14684 0.0
N11 N 0.07584 0.18283 0.15599 0.0
C12 C 0.03477 0.12726 0.12312 0.0
H13 H 0.02289 0.13608 0.11619 0.0
H14 H 0.04457 0.12071 0.11201 0.0
H15 H 0.02002 0.10869 0.13146 0.0
C16 C 0.0101 0.22834 0.12307 0.0
N17 N 0.00222 0.20437 0.13245 0.0
N18 N 0.02281 0.199 0.13263 0.0
C19 C 0.04447 0.21941 0.12297 0.0
C20 C 0.03728 0.23883 0.11673 0.0
C21 C 0.99333 0.24272 0.12292 0.0
H22 H 0.9843 0.24133 0.13727 0.0
H23 H 0.97583 0.23189 0.11273 0.0
H24 H 0.00596 0.26492 0.11877 0.0
O25 O 0.98266 0.1891 0.1747 0.0
O26 O 0.01571 0.17755 0.17622 0.0
H27 H 0.0837 0.22785 0.13425 0.0
H28 H 0.08465 0.23635 0.10931 0.0
C29 C 0.07211 0.22117 0.12059 0.0
H30 H 0.06906 0.20045 0.11674 0.0
H31 H 0.07862 0.19884 0.16517 0.0
O32 O 0.9409 0.19155 0.14496 0.0
C33 C 0.00029 0.18567 0.18415 0.0
Co34 Co 0.82 0.78479 0.14383 0.0
Co35 Co 0.83032 0.84536 0.14714 0.0
C36 C 0.87238 0.83283 0.12926 0.0
O37 O 0.85598 0.80672 0.13074 0.0
O38 O 0.86542 0.85015 0.13537 0.0
C39 C 0.82776 0.73892 0.14459 0.0
O40 O 0.85384 0.75905 0.14396 0.0
C41 C 0.84858 0.90401 0.13843 0.0
C42 C 0.82006 0.91108 0.15652 0.0
C43 C 0.84198 0.92408 0.14381 0.0
N44 N 0.83136 0.88021 0.1476 0.0
N45 N 0.81443 0.88462 0.15843 0.0
C46 C 0.87 0.90696 0.12421 0.0
H47 H 0.86176 0.88778 0.11546 0.0
H48 H 0.87608 0.92512 0.11471 0.0
H49 H 0.88873 0.90983 0.13191 0.0
C50 C 0.76791 0.77571 0.12536 0.0
N51 N 0.79284 0.79222 0.13358 0.0
N52 N 0.79758 0.81795 0.1342 0.0
C53 C 0.77584 0.81865 0.12612 0.0
C54 C 0.7562 0.79189 0.12036 0.0
C55 C 0.75496 0.74478 0.12366 0.0
H56 H 0.76549 0.73995 0.11206 0.0
H57 H 0.73236 0.73458 0.12055 0.0
H58 H 0.75808 0.73618 0.13712 0.0
O59 O 0.82578 0.79339 0.17128 0.0
O60 O 0.82947 0.83487 0.17436 0.0
H61 H 0.76756 0.84977 0.13696 0.0
H62 H 0.75899 0.84174 0.11211 0.0
C63 C 0.77421 0.84457 0.1234 0.0
H64 H 0.79493 0.86214 0.11941 0.0
H65 H 0.7991 0.86956 0.1672 0.0
O66 O 0.80855 0.74494 0.14297 0.0
C67 C 0.82864 0.81345 0.18162 0.0
Co68 Co 0.2085 0.03214 0.14501 0.0
Co69 Co 0.14968 0.97876 0.14396 0.0
C70 C 0.16239 0.03501 0.12738 0.0
O71 O 0.18847 0.04605 0.12997 0.0
O72 O 0.14562 0.01007 0.13269 0.0
C73 C 0.25202 0.08594 0.15184 0.0
O74 O 0.23151 0.09116 0.1499 0.0
C75 C 0.0931 0.93968 0.12987 0.0
C76 C 0.08302 0.90127 0.14558 0.0
C77 C 0.07216 0.91244 0.13287 0.0
N78 N 0.11541 0.94448 0.14036 0.0
N79 N 0.10917 0.9214 0.14974 0.0
C80 C 0.09195 0.9607 0.11711 0.0
H81 H 0.11188 0.97249 0.10924 0.0
H82 H 0.07456 0.95061 0.10674 0.0
H83 H 0.0889 0.97555 0.12594 0.0
C84 C 0.22493 0.9946 0.12734 0.0
N85 N 0.20531 0.99971 0.13419 0.0
N86 N 0.18077 0.97694 0.13325 0.0
C87 C 0.18419 0.9564 0.12564 0.0
C88 C 0.21239 0.96692 0.12182 0.0
C89 C 0.25517 0.01607 0.12614 0.0
H90 H 0.25748 0.03597 0.12085 0.0
H91 H 0.26659 0.00935 0.11652 0.0
H92 H 0.26444 0.0198 0.14061 0.0
O93 O 0.1939 0.02572 0.17112 0.0
O94 O 0.15456 0.9852 0.17211 0.0
H95 H 0.15571 0.91712 0.13793 0.0
H96 H 0.16769 0.91454 0.11462 0.0
C97 C 0.16132 0.92684 0.1236 0.0
H98 H 0.14269 0.92623 0.11729 0.0
H99 H 0.12251 0.91959 0.15937 0.0
O100 O 0.2475 0.06148 0.14866 0.0
C101 C 0.17355 0.00683 0.18038 0.0
Co102 Co 0.17755 0.97621 0.35223 0.0
Co103 Co 0.17605 0.03131 0.36004 0.0
C104 C 0.12743 0.97563 0.369 0.0
O105 O 0.13996 0.96354 0.36244 0.0
O106 O 0.13911 0.00202 0.36939 0.0
C107 C 0.16534 0.92123 0.36034 0.0
O108 O 0.15096 0.92388 0.37423 0.0
C109 C 0.16134 0.07212 0.37424 0.0
C110 C 0.19342 0.111 0.36078 0.0
C111 C 0.16923 0.09986 0.37152 0.0
N112 N 0.17966 0.0669 0.36521 0.0
N113 N 0.19897 0.09035 0.35737 0.0
C114 C 0.13709 0.05103 0.3856 0.0
H115 H 0.14335 0.038 0.39387 0.0
H116 H 0.12941 0.06117 0.39562 0.0
H117 H 0.11998 0.03739 0.37575 0.0
C118 C 0.22759 0.00533 0.37704 0.0
N119 N 0.20564 0.00416 0.36796 0.0
N120 N 0.20509 0.02725 0.37136 0.0
C121 C 0.22668 0.0438 0.3828 0.0
C122 C 0.24175 0.03051 0.38676 0.0
C123 C 0.23525 0.98305 0.37579 0.0
H124 H 0.23251 0.97523 0.36094 0.0
H125 H 0.22106 0.96539 0.38507 0.0
H126 H 0.25708 0.99082 0.38035 0.0
O127 O 0.17888 0.99011 0.32617 0.0
O128 O 0.17715 0.02862 0.33172 0.0
H129 H 0.24181 0.08727 0.37937 0.0
H130 H 0.24573 0.0775 0.40322 0.0
C131 C 0.23186 0.07111 0.39058 0.0
H132 H 0.21183 0.06966 0.39458 0.0
H133 H 0.21528 0.09198 0.349 0.0
O134 O 0.18056 0.94215 0.34988 0.0
C135 C 0.17813 0.01137 0.32018 0.0
Co136 Co 0.03127 0.21945 0.36025 0.0
Co137 Co 0.98318 0.15713 0.3598 0.0
C138 C 0.04031 0.17145 0.3708 0.0
O139 O 0.0482 0.19692 0.36772 0.0
O140 O 0.01493 0.15263 0.36871 0.0
C141 C 0.07998 0.26501 0.37547 0.0
O142 O 0.07622 0.24682 0.38881 0.0
C143 C 0.94417 0.0956 0.36109 0.0
C144 C 0.90415 0.0943 0.35663 0.0
C145 C 0.91547 0.07728 0.35969 0.0
N146 N 0.94901 0.12194 0.35965 0.0
N147 N 0.92501 0.12082 0.35653 0.0
C148 C 0.96689 0.08849 0.36097 0.0
H149 H 0.98606 0.10564 0.35457 0.0
H150 H 0.97148 0.08514 0.37582 0.0
H151 H 0.9607 0.06937 0.3525 0.0
C152 C 0.99184 0.22628 0.38451 0.0
N153 N 0.99945 0.21019 0.37483 0.0
N154 N 0.97946 0.18395 0.37568 0.0
C155 C 0.95886 0.18259 0.3868 0.0
C156 C 0.96575 0.20936 0.39242 0.0
C157 C 0.00819 0.25744 0.38444 0.0
H158 H 0.0187 0.26505 0.37048 0.0
H159 H 0.02445 0.26457 0.39566 0.0
H160 H 0.99473 0.26656 0.38728 0.0
O161 O 0.0214 0.21402 0.3333 0.0
O162 O 0.98941 0.16916 0.33226 0.0
H163 H 0.91588 0.15152 0.38392 0.0
H164 H 0.92803 0.15881 0.40798 0.0
C165 C 0.93382 0.15625 0.39327 0.0
H166 H 0.938 0.13869 0.39299 0.0
H167 H 0.92295 0.13821 0.35384 0.0
O168 O 0.06128 0.25852 0.36286 0.0
C169 C 0.00466 0.19243 0.32398 0.0
Co170 Co 0.78741 0.81526 0.35134 0.0
Co171 Co 0.84832 0.82954 0.36136 0.0
C172 C 0.83205 0.87317 0.36274 0.0
O173 O 0.80778 0.85522 0.3573 0.0
O174 O 0.85046 0.86632 0.36564 0.0
C175 C 0.74065 0.81903 0.36027 0.0
O176 O 0.75671 0.8325 0.37481 0.0
C177 C 0.90679 0.856 0.37376 0.0
C178 C 0.91547 0.82128 0.37203 0.0
C179 C 0.92749 0.84924 0.37662 0.0
N180 N 0.88333 0.83285 0.3684 0.0
N181 N 0.88879 0.81226 0.3672 0.0
C182 C 0.91028 0.88458 0.37313 0.0
H183 H 0.90091 0.88702 0.35984 0.0
H184 H 0.89938 0.88728 0.3855 0.0
H185 H 0.93243 0.90121 0.3733 0.0
C186 C 0.77371 0.77069 0.3795 0.0
N187 N 0.79237 0.79363 0.37006 0.0
N188 N 0.81776 0.80017 0.37528 0.0
C189 C 0.81582 0.78199 0.38889 0.0
C190 C 0.78789 0.7625 0.39177 0.0
C191 C 0.74289 0.75709 0.37673 0.0
H192 H 0.7356 0.77101 0.38242 0.0
H193 H 0.73158 0.73675 0.38417 0.0
H194 H 0.738 0.75421 0.36127 0.0
O195 O 0.80059 0.81097 0.32643 0.0
O196 O 0.84385 0.82115 0.33327 0.0
H197 H 0.83449 0.77329 0.41298 0.0
H198 H 0.85774 0.80409 0.39958 0.0
C199 C 0.84013 0.78245 0.3985 0.0
H200 H 0.84665 0.76976 0.39009 0.0
H201 H 0.87451 0.79222 0.36255 0.0
O202 O 0.74842 0.8065 0.34879 0.0
C203 C 0.82411 0.81441 0.32134 0.0
Co204 Co 0.02769 0.81576 0.85103 0.0
Co205 Co 0.9748 0.82251 0.85475 0.0
C206 C 0.0313 0.86535 0.86999 0.0
O207 O 0.04251 0.8511 0.86509 0.0
O208 O 0.0056 0.8568 0.86689 0.0
C209 C 0.0814 0.82581 0.84375 0.0
O210 O 0.08622 0.85152 0.84427 0.0
C211 C 0.93451 0.83918 0.86809 0.0
C212 C 0.89657 0.80932 0.85252 0.0
C213 C 0.90704 0.83207 0.86465 0.0
N214 N 0.94003 0.82161 0.85827 0.0
N215 N 0.91718 0.80378 0.84907 0.0
C216 C 0.95495 0.86158 0.88099 0.0
H217 H 0.96682 0.85374 0.88908 0.0
H218 H 0.94436 0.8685 0.89121 0.0
H219 H 0.96989 0.87961 0.87227 0.0
C220 C 0.99087 0.7633 0.8714 0.0
N221 N 0.99544 0.78694 0.86282 0.0
N222 N 0.97349 0.7899 0.86509 0.0
C223 C 0.95445 0.76838 0.87561 0.0
C224 C 0.9647 0.75065 0.87973 0.0
C225 C 0.01216 0.75434 0.8728 0.0
H226 H 0.01802 0.75134 0.85823 0.0
H227 H 0.0312 0.77108 0.87972 0.0
H228 H 0.00431 0.73474 0.88104 0.0
O229 O 0.02019 0.82303 0.82513 0.0
O230 O 0.98145 0.82537 0.82647 0.0
H231 H 0.91294 0.75936 0.87012 0.0
H232 H 0.91783 0.74943 0.89362 0.0
C233 C 0.92753 0.7655 0.88234 0.0
H234 H 0.9311 0.78579 0.88782 0.0
H235 H 0.91586 0.78819 0.84004 0.0
O236 O 0.05711 0.80596 0.8476 0.0
C237 C 0.00149 0.82619 0.81707 0.0
Co238 Co 0.18053 0.20217 0.85387 0.0
Co239 Co 0.17414 0.14321 0.86157 0.0
C240 C 0.12783 0.15473 0.86937 0.0
O241 O 0.14165 0.1793 0.86286 0.0
O242 O 0.13826 0.13895 0.87017 0.0
C243 C 0.17477 0.24715 0.86572 0.0
O244 O 0.16486 0.231 0.88077 0.0
C245 C 0.15046 0.08452 0.87236 0.0
C246 C 0.18616 0.07744 0.8706 0.0
C247 C 0.15813 0.06452 0.87521 0.0
N248 N 0.17312 0.10859 0.86723 0.0
N249 N 0.19429 0.10402 0.86584 0.0
C250 C 0.12133 0.07957 0.87147 0.0
H251 H 0.11673 0.08724 0.88479 0.0
H252 H 0.1058 0.05718 0.86972 0.0
H253 H 0.11915 0.09084 0.85914 0.0
C254 C 0.22893 0.21915 0.87999 0.0
N255 N 0.20663 0.19952 0.8704 0.0
N256 N 0.20344 0.17481 0.87434 0.0
C257 C 0.22292 0.17798 0.88721 0.0
C258 C 0.23994 0.20617 0.891 0.0
C259 C 0.23868 0.24962 0.87916 0.0
H260 H 0.23815 0.25586 0.8642 0.0
H261 H 0.22433 0.25383 0.88766 0.0
H262 H 0.26002 0.26226 0.88501 0.0
O263 O 0.18269 0.19005 0.82786 0.0
O264 O 0.17828 0.14851 0.83325 0.0
H265 H 0.23824 0.14958 0.8863 0.0
H266 H 0.2356 0.16021 0.90989 0.0
C267 C 0.22531 0.15454 0.89576 0.0
H268 H 0.20441 0.13588 0.89734 0.0
H269 H 0.21416 0.11883 0.86124 0.0
O270 O 0.18573 0.2402 0.85245 0.0
C271 C 0.18131 0.16775 0.82184 0.0
Co272 Co 0.78649 0.96744 0.85121 0.0
Co273 Co 0.84769 0.01487 0.85923 0.0
C274 C 0.83065 0.95631 0.86791 0.0
O275 O 0.80648 0.94876 0.86144 0.0
O276 O 0.84924 0.9819 0.86863 0.0
C277 C 0.73831 0.91953 0.86306 0.0
O278 O 0.75396 0.92407 0.87821 0.0
C279 C 0.90654 0.0494 0.86995 0.0
C280 C 0.91438 0.09213 0.8653 0.0
C281 C 0.92698 0.07726 0.87122 0.0
N282 N 0.8827 0.0479 0.86417 0.0
N283 N 0.88763 0.07352 0.8612 0.0
C284 C 0.91046 0.02463 0.87138 0.0
H285 H 0.89974 0.01036 0.85928 0.0
H286 H 0.90109 0.01339 0.88488 0.0
H287 H 0.93273 0.03056 0.87091 0.0
C288 C 0.77348 0.00295 0.87565 0.0
N289 N 0.79177 0.99754 0.86673 0.0
N290 N 0.81735 0.01689 0.87113 0.0
C291 C 0.81593 0.03456 0.88378 0.0
C292 C 0.78814 0.02656 0.88676 0.0
C293 C 0.74254 0.98491 0.87429 0.0
H294 H 0.73648 0.97801 0.85934 0.0
H295 H 0.73585 0.96614 0.88326 0.0
H296 H 0.73173 0.99599 0.87934 0.0
O297 O 0.79956 0.98006 0.82515 0.0
O298 O 0.84388 0.01135 0.83076 0.0
H299 H 0.84797 0.0772 0.88467 0.0
H300 H 0.83473 0.06237 0.90764 0.0
C301 C 0.84049 0.05811 0.89341 0.0
H302 H 0.85751 0.05328 0.89502 0.0
H303 H 0.87289 0.07829 0.856 0.0
O304 O 0.74719 0.93748 0.84975 0.0
C305 C 0.82387 0.99732 0.81923 0.0
Co306 Co 0.81986 0.03565 0.65116 0.0
Co307 Co 0.83091 0.9883 0.63792 0.0
C308 C 0.87491 0.04711 0.63383 0.0
O309 O 0.85889 0.05436 0.64173 0.0
O310 O 0.86667 0.02163 0.63053 0.0
C311 C 0.82029 0.0839 0.64071 0.0
O312 O 0.82879 0.07794 0.62484 0.0
C313 C 0.85461 0.95447 0.62494 0.0
C314 C 0.81823 0.91197 0.62385 0.0
C315 C 0.84668 0.92709 0.62063 0.0
N316 N 0.83181 0.95572 0.62979 0.0
N317 N 0.81015 0.93017 0.62931 0.0
C318 C 0.88372 0.97826 0.6273 0.0
H319 H 0.88499 0.99031 0.64026 0.0
H320 H 0.88933 0.99215 0.6147 0.0
H321 H 0.899 0.97104 0.62879 0.0
C322 C 0.77067 0.00539 0.62677 0.0
N323 N 0.79451 0.00869 0.63407 0.0
N324 N 0.79967 0.98979 0.62697 0.0
C325 C 0.77988 0.97486 0.61378 0.0
C326 C 0.76055 0.98408 0.61329 0.0
C327 C 0.75676 0.02074 0.63415 0.0
H328 H 0.76212 0.0262 0.64938 0.0
H329 H 0.76423 0.04033 0.62597 0.0
H330 H 0.73379 0.008 0.63278 0.0
O331 O 0.81813 0.01865 0.67577 0.0
O332 O 0.82941 0.98706 0.66678 0.0
H333 H 0.76764 0.93288 0.60642 0.0
H334 H 0.77279 0.95505 0.58634 0.0
C335 C 0.78091 0.95415 0.60063 0.0
H336 H 0.80256 0.9583 0.5992 0.0
H337 H 0.78999 0.92503 0.63323 0.0
O338 O 0.81272 0.06678 0.6545 0.0
C339 C 0.82365 0.99957 0.67975 0.0
Co340 Co 0.96934 0.80026 0.64501 0.0
Co341 Co 0.02495 0.85655 0.63795 0.0
C342 C 0.96932 0.84953 0.62781 0.0
O343 O 0.95681 0.82485 0.63422 0.0
O344 O 0.99573 0.86408 0.628 0.0
C345 C 0.91454 0.75714 0.63703 0.0
O346 O 0.91681 0.77414 0.62321 0.0
C347 C 0.0656 0.91108 0.62223 0.0
C348 C 0.10388 0.92072 0.6379 0.0
C349 C 0.09288 0.93178 0.6252 0.0
N350 N 0.06046 0.88874 0.63277 0.0
N351 N 0.08356 0.89462 0.64201 0.0
C352 C 0.04461 0.91299 0.60993 0.0
H353 H 0.03095 0.91744 0.61905 0.0
H354 H 0.03166 0.89292 0.60244 0.0
H355 H 0.05488 0.92992 0.59925 0.0
C356 C 0.99991 0.77846 0.62288 0.0
N357 N 0.99773 0.79982 0.63001 0.0
N358 N 0.02138 0.82318 0.6273 0.0
C359 C 0.03954 0.81733 0.61854 0.0
C360 C 0.02658 0.78866 0.6155 0.0
C361 C 0.97683 0.7488 0.62349 0.0
H362 H 0.957 0.74763 0.61929 0.0
H363 H 0.98088 0.73543 0.61378 0.0
H364 H 0.97445 0.74088 0.6383 0.0
O365 O 0.98272 0.813 0.6712 0.0
O366 O 0.02173 0.85303 0.66619 0.0
H367 H 0.0797 0.8455 0.62975 0.0
H368 H 0.081 0.83001 0.60765 0.0
C369 C 0.06962 0.83842 0.61563 0.0
H370 H 0.07138 0.85674 0.60798 0.0
H371 H 0.08507 0.88138 0.65191 0.0
O372 O 0.93558 0.76313 0.64743 0.0
C373 C 0.00398 0.83479 0.67748 0.0
Co374 Co 0.21516 0.1817 0.64436 0.0
Co375 Co 0.15471 0.17305 0.647 0.0
C376 C 0.16627 0.13058 0.62879 0.0
O377 O 0.19224 0.14612 0.6315 0.0
O378 O 0.14895 0.13792 0.63431 0.0
C379 C 0.26182 0.17923 0.62981 0.0
O380 O 0.24465 0.16577 0.61575 0.0
C381 C 0.09666 0.15728 0.63704 0.0
C382 C 0.08921 0.18396 0.65673 0.0
C383 C 0.0765 0.16363 0.64285 0.0
N384 N 0.12009 0.17304 0.64711 0.0
N385 N 0.11541 0.18888 0.65887 0.0
C386 C 0.0942 0.13747 0.62166 0.0
H387 H 0.11414 0.14605 0.61376 0.0
H388 H 0.0772 0.13352 0.61156 0.0
H389 H 0.08972 0.11746 0.62824 0.0
C390 C 0.22644 0.23422 0.62611 0.0
N391 N 0.20886 0.20936 0.63395 0.0
N392 N 0.18368 0.20614 0.6349 0.0
C393 C 0.18469 0.22927 0.62778 0.0
C394 C 0.21177 0.24774 0.62193 0.0
C395 C 0.25709 0.24548 0.62408 0.0
H396 H 0.26603 0.24533 0.63821 0.0
H397 H 0.26067 0.23165 0.6145 0.0
H398 H 0.26788 0.26696 0.61825 0.0
O399 O 0.20618 0.17623 0.67174 0.0
O400 O 0.16437 0.17207 0.67437 0.0
H401 H 0.15604 0.23843 0.64173 0.0
H402 H 0.16498 0.25212 0.61783 0.0
C403 C 0.1605 0.23412 0.62711 0.0
H404 H 0.14182 0.21522 0.62171 0.0
H405 H 0.13006 0.20288 0.66851 0.0
O406 O 0.25431 0.19033 0.64262 0.0
C407 C 0.1857 0.17289 0.68184 0.0
Co408 Co 0.63471 0.51081 0.48001 0.0
Co409 Co 0.68582 0.50319 0.471 0.0
C410 C 0.62787 0.45772 0.46323 0.0
O411 O 0.61885 0.47335 0.46917 0.0
O412 O 0.65383 0.466 0.46312 0.0
C413 C 0.58394 0.50682 0.46993 0.0
O414 O 0.58838 0.49659 0.45428 0.0
C415 C 0.72513 0.48627 0.45617 0.0
C416 C 0.76496 0.51951 0.4679 0.0
C417 C 0.75332 0.49502 0.45751 0.0
N418 N 0.72037 0.50478 0.46539 0.0
N419 N 0.74429 0.52456 0.47236 0.0
C420 C 0.7031 0.46097 0.44618 0.0
H421 H 0.68897 0.46625 0.43836 0.0
H422 H 0.71234 0.45254 0.43599 0.0
H423 H 0.6906 0.44477 0.45691 0.0
C424 C 0.66794 0.56241 0.4581 0.0
N425 N 0.66324 0.53751 0.46439 0.0
N426 N 0.6843 0.53407 0.45962 0.0
C427 C 0.70283 0.55671 0.44965 0.0
C428 C 0.69315 0.57545 0.44849 0.0
C429 C 0.64957 0.57425 0.46259 0.0
H430 H 0.64586 0.57319 0.4782 0.0
H431 H 0.62911 0.56139 0.45555 0.0
H432 H 0.65873 0.59609 0.45762 0.0
O433 O 0.64866 0.5108 0.50578 0.0
O434 O 0.68542 0.50629 0.49936 0.0
H435 H 0.74578 0.57084 0.45474 0.0
H436 H 0.73822 0.57675 0.43086 0.0
C437 C 0.73055 0.56177 0.44291 0.0
H438 H 0.72907 0.54194 0.43834 0.0
H439 H 0.74638 0.54112 0.48065 0.0
O440 O 0.6028 0.51695 0.48262 0.0
C441 C 0.66949 0.50889 0.51126 0.0
Co442 Co 0.4961 0.12938 0.47297 0.0
Co443 Co 0.49285 0.18391 0.47731 0.0
C444 C 0.54389 0.18352 0.46184 0.0
O445 O 0.53231 0.1572 0.46278 0.0
O446 O 0.53106 0.19611 0.46702 0.0
C447 C 0.50778 0.08826 0.45829 0.0
O448 O 0.52232 0.10743 0.44552 0.0
C449 C 0.50143 0.2378 0.46475 0.0
C450 C 0.48139 0.24896 0.48753 0.0
C451 C 0.49763 0.25915 0.4713 0.0
N452 N 0.48839 0.21596 0.47661 0.0
N453 N 0.47602 0.22261 0.49006 0.0
C454 C 0.51802 0.23874 0.44771 0.0
H455 H 0.5404 0.25032 0.45144 0.0
H456 H 0.51205 0.21742 0.4429 0.0
H457 H 0.51476 0.2502 0.43593 0.0
C458 C 0.44294 0.11092 0.45283 0.0
N459 N 0.46611 0.13087 0.46132 0.0
N460 N 0.46416 0.15343 0.46332 0.0
C461 C 0.43937 0.14837 0.45632 0.0
C462 C 0.42495 0.1211 0.44949 0.0
C463 C 0.43797 0.08233 0.4486 0.0
H464 H 0.45702 0.08385 0.44229 0.0
H465 H 0.42035 0.07102 0.43857 0.0
H466 H 0.43347 0.07042 0.46211 0.0
O467 O 0.49689 0.13592 0.50064 0.0
O468 O 0.49233 0.17318 0.50459 0.0
H469 H 0.43005 0.17448 0.47351 0.0
H470 H 0.40668 0.15887 0.45355 0.0
C471 C 0.42859 0.16817 0.45835 0.0
H472 H 0.4419 0.18721 0.44991 0.0
H473 H 0.4652 0.20974 0.50153 0.0
O474 O 0.49344 0.09271 0.47043 0.0
C475 C 0.49512 0.15341 0.51143 0.0
Co476 Co 0.88565 0.37495 0.48036 0.0
Co477 Co 0.8245 0.32515 0.48224 0.0
C478 C 0.84013 0.38121 0.4644 0.0
O479 O 0.86616 0.39088 0.46627 0.0
O480 O 0.82266 0.35698 0.47042 0.0
C481 C 0.93533 0.42768 0.47728 0.0
O482 O 0.91837 0.43507 0.46966 0.0
C483 C 0.76926 0.28999 0.46635 0.0
C484 C 0.74859 0.25775 0.48848 0.0
C485 C 0.74372 0.2676 0.47157 0.0
N486 N 0.78815 0.29356 0.4797 0.0
N487 N 0.77576 0.27398 0.49277 0.0
C488 C 0.77587 0.30767 0.44887 0.0
H489 H 0.77369 0.32606 0.45209 0.0
H490 H 0.79769 0.31518 0.44437 0.0
H491 H 0.76142 0.2958 0.43707 0.0
C492 C 0.89376 0.33215 0.46021 0.0
N493 N 0.87783 0.34033 0.46955 0.0
N494 N 0.85219 0.31926 0.47061 0.0
C495 C 0.8511 0.29678 0.46238 0.0
C496 C 0.87742 0.30415 0.45534 0.0
C497 C 0.92355 0.35144 0.45499 0.0
H498 H 0.92713 0.37275 0.45261 0.0
H499 H 0.9294 0.34423 0.44194 0.0
H500 H 0.93706 0.35224 0.46692 0.0
O501 O 0.87381 0.37097 0.50753 0.0
O502 O 0.83212 0.33313 0.50975 0.0
H503 H 0.81521 0.26433 0.47638 0.0
H504 H 0.83065 0.25192 0.45923 0.0
C505 C 0.82559 0.26851 0.46229 0.0
H506 H 0.81084 0.26798 0.45138 0.0
H507 H 0.78553 0.27249 0.50507 0.0
O508 O 0.9261 0.40225 0.48152 0.0
C509 C 0.85303 0.35378 0.51743 0.0
Co510 Co 0.84661 0.314 0.68587 0.0
Co511 Co 0.84069 0.36524 0.69808 0.0
C512 C 0.79641 0.30578 0.7067 0.0
O513 O 0.80998 0.29581 0.69857 0.0
O514 O 0.80602 0.33195 0.70757 0.0
C515 C 0.8439 0.2611 0.68696 0.0
O516 O 0.82815 0.25667 0.70203 0.0
C517 C 0.81745 0.39936 0.71168 0.0
C518 C 0.85297 0.44225 0.70994 0.0
C519 C 0.82507 0.42697 0.71483 0.0
N520 N 0.84006 0.39818 0.7061 0.0
N521 N 0.86112 0.424 0.70477 0.0
C522 C 0.78835 0.37521 0.71047 0.0
H523 H 0.78654 0.3614 0.69847 0.0
H524 H 0.78324 0.36335 0.724 0.0
H525 H 0.77298 0.38213 0.70809 0.0
C526 C 0.89926 0.34526 0.70724 0.0
N527 N 0.87483 0.34217 0.70122 0.0
N528 N 0.87226 0.36325 0.70738 0.0
C529 C 0.89467 0.37974 0.71829 0.0
C530 C 0.9126 0.36908 0.71829 0.0
C531 C 0.90975 0.32596 0.7021 0.0
H532 H 0.89507 0.30485 0.70764 0.0
H533 H 0.93077 0.33304 0.70809 0.0
H534 H 0.91038 0.32446 0.68634 0.0
O535 O 0.84369 0.3293 0.66144 0.0
O536 O 0.84139 0.36675 0.66947 0.0
H537 H 0.91168 0.42376 0.71909 0.0
H538 H 0.91155 0.40864 0.74166 0.0
C539 C 0.89939 0.40546 0.7284 0.0
H540 H 0.87925 0.40395 0.73207 0.0
H541 H 0.88073 0.42928 0.69949 0.0
O542 O 0.85518 0.28474 0.67887 0.0
C543 C 0.84215 0.35061 0.65684 0.0
Co544 Co 0.69552 0.54592 0.68739 0.0
Co545 Co 0.64313 0.48591 0.68692 0.0
C546 C 0.69858 0.49912 0.70458 0.0
O547 O 0.71 0.52496 0.70091 0.0
O548 O 0.67337 0.4822 0.69999 0.0
C549 C 0.74969 0.59355 0.68794 0.0
O550 O 0.7571 0.57517 0.6924 0.0
C551 C 0.6039 0.43132 0.70243 0.0
C552 C 0.57494 0.41149 0.67839 0.0
C553 C 0.58215 0.4058 0.6961 0.0
N554 N 0.60967 0.45058 0.68887 0.0
N555 N 0.59189 0.43874 0.67469 0.0
C556 C 0.61914 0.43787 0.721 0.0
H557 H 0.62712 0.46002 0.72482 0.0
H558 H 0.60534 0.42419 0.73251 0.0
H559 H 0.63723 0.43467 0.71954 0.0
C560 C 0.65534 0.55852 0.70596 0.0
N561 N 0.66191 0.54033 0.69829 0.0
N562 N 0.63953 0.51543 0.69775 0.0
C563 C 0.61782 0.51717 0.70479 0.0
C564 C 0.6272 0.54452 0.71034 0.0
C565 C 0.67532 0.58911 0.70762 0.0
H566 H 0.68179 0.59809 0.69312 0.0
H567 H 0.69426 0.59251 0.71531 0.0
H568 H 0.66599 0.60004 0.71519 0.0
O569 O 0.69051 0.53424 0.66051 0.0
O570 O 0.65211 0.49286 0.65919 0.0
H571 H 0.5817 0.48481 0.69108 0.0
H572 H 0.57418 0.49949 0.71182 0.0
C573 C 0.58866 0.49322 0.70566 0.0
H574 H 0.58821 0.47637 0.71445 0.0
H575 H 0.59246 0.44881 0.66199 0.0
O576 O 0.72398 0.58575 0.68643 0.0
C577 C 0.67271 0.51332 0.65107 0.0
Co578 Co 0.46292 0.15378 0.6837 0.0
Co579 Co 0.52153 0.16002 0.6911 0.0
C580 C 0.50956 0.20621 0.70005 0.0
O581 O 0.48441 0.19196 0.6945 0.0
O582 O 0.52584 0.19624 0.69955 0.0
C583 C 0.41526 0.16132 0.6834 0.0
O584 O 0.43088 0.1833 0.69392 0.0
C585 C 0.57363 0.17481 0.71078 0.0
C586 C 0.59386 0.16053 0.69019 0.0
C587 C 0.59894 0.17595 0.70684 0.0
N588 N 0.55542 0.16043 0.69682 0.0
N589 N 0.56743 0.15142 0.68479 0.0
C590 C 0.566 0.18652 0.72739 0.0
H591 H 0.54301 0.1762 0.72881 0.0
H592 H 0.57488 0.18347 0.74074 0.0
H593 H 0.57421 0.20905 0.72507 0.0
C594 C 0.44548 0.10168 0.70603 0.0
N595 N 0.46517 0.12651 0.6991 0.0
N596 N 0.4899 0.12947 0.70239 0.0
C597 C 0.48677 0.10679 0.71161 0.0
C598 C 0.45849 0.0882 0.71415 0.0
C599 C 0.41497 0.08997 0.70272 0.0
H600 H 0.40807 0.10304 0.71028 0.0
H601 H 0.40253 0.06812 0.7077 0.0
H602 H 0.41118 0.09093 0.68727 0.0
O603 O 0.47713 0.15419 0.6578 0.0
O604 O 0.51794 0.1571 0.6629 0.0
H605 H 0.51973 0.09921 0.7041 0.0
H606 H 0.50375 0.08467 0.72692 0.0
C607 C 0.51051 0.10265 0.71714 0.0
H608 H 0.52685 0.12166 0.72429 0.0
H609 H 0.55816 0.14049 0.67228 0.0
O610 O 0.4241 0.14486 0.67902 0.0
C611 C 0.49917 0.15528 0.65158 0.0
Co612 Co 0.69793 0.15389 0.18877 0.0
Co613 Co 0.64546 0.16119 0.18904 0.0
C614 C 0.70117 0.20406 0.20593 0.0
O615 O 0.71237 0.18933 0.20264 0.0
O616 O 0.67596 0.19567 0.20133 0.0
C617 C 0.75224 0.164 0.18508 0.0
O618 O 0.75717 0.18956 0.18744 0.0
C619 C 0.60598 0.17456 0.20646 0.0
C620 C 0.57618 0.16628 0.18311 0.0
C621 C 0.58351 0.17774 0.20124 0.0
N622 N 0.612 0.16265 0.19195 0.0
N623 N 0.59377 0.15724 0.17816 0.0
C624 C 0.62139 0.18203 0.22499 0.0
H625 H 0.63888 0.2037 0.22422 0.0
H626 H 0.63024 0.16828 0.22769 0.0
H627 H 0.60745 0.18034 0.23691 0.0
C628 C 0.65762 0.10014 0.20696 0.0
N629 N 0.6645 0.12528 0.19974 0.0
N630 N 0.6424 0.12827 0.19984 0.0
C631 C 0.62066 0.10502 0.20702 0.0
C632 C 0.62954 0.08635 0.21181 0.0
C633 C 0.67716 0.08891 0.20756 0.0
H634 H 0.68601 0.09036 0.19313 0.0
H635 H 0.69473 0.10197 0.21726 0.0
H636 H 0.66671 0.06694 0.21241 0.0
O637 O 0.69212 0.16086 0.1621 0.0
O638 O 0.65317 0.16285 0.16114 0.0
H639 H 0.58358 0.10107 0.19476 0.0
H640 H 0.57769 0.08103 0.21642 0.0
C641 C 0.59196 0.10085 0.20908 0.0
H642 H 0.59295 0.11832 0.2174 0.0
H643 H 0.59429 0.1488 0.16496 0.0
O644 O 0.72742 0.14387 0.18663 0.0
C645 C 0.67391 0.16353 0.15283 0.0
Co646 Co 0.84216 0.53533 0.18771 0.0
Co647 Co 0.84095 0.47829 0.18615 0.0
C648 C 0.79245 0.48365 0.20077 0.0
O649 O 0.80548 0.50984 0.19856 0.0
O650 O 0.80373 0.46923 0.19655 0.0
C651 C 0.83064 0.57788 0.19854 0.0
O652 O 0.81387 0.55899 0.21078 0.0
C653 C 0.83079 0.4271 0.20378 0.0
C654 C 0.83726 0.40477 0.18012 0.0
C655 C 0.82689 0.40118 0.19856 0.0
N656 N 0.84194 0.44463 0.18898 0.0
N657 N 0.84638 0.43137 0.175 0.0
C658 C 0.8241 0.4355 0.22245 0.0
H659 H 0.8387 0.45793 0.22516 0.0
H660 H 0.82527 0.42281 0.23427 0.0
H661 H 0.80282 0.43247 0.22194 0.0
C662 C 0.89508 0.55196 0.20795 0.0
N663 N 0.87118 0.53255 0.19987 0.0
N664 N 0.87094 0.5087 0.19926 0.0
C665 C 0.89482 0.51226 0.20695 0.0
C666 C 0.91097 0.53985 0.21272 0.0
C667 C 0.90294 0.58184 0.21018 0.0
H668 H 0.88495 0.58313 0.21586 0.0
H669 H 0.92103 0.59307 0.21988 0.0
H670 H 0.90821 0.59204 0.19598 0.0
O671 O 0.84004 0.52603 0.16043 0.0
O672 O 0.84152 0.4868 0.15832 0.0
H673 H 0.89916 0.48065 0.19247 0.0
H674 H 0.9255 0.49927 0.21048 0.0
C675 C 0.9032 0.49046 0.20677 0.0
H676 H 0.8903 0.47398 0.21722 0.0
H677 H 0.8537 0.43983 0.16151 0.0
O678 O 0.84692 0.57316 0.1885 0.0
C679 C 0.84006 0.50682 0.15052 0.0
Co680 Co 0.45322 0.29777 0.19909 0.0
Co681 Co 0.5123 0.35101 0.19567 0.0
C682 C 0.50378 0.29671 0.21175 0.0
O683 O 0.4776 0.2847 0.20958 0.0
O684 O 0.51941 0.32212 0.20714 0.0
C685 C 0.40872 0.2463 0.21248 0.0
O686 O 0.42753 0.24809 0.22466 0.0
C687 C 0.56773 0.39099 0.20871 0.0
C688 C 0.58588 0.41832 0.18372 0.0
C689 C 0.59273 0.41177 0.20125 0.0
N690 N 0.54735 0.38491 0.19601 0.0
N691 N 0.5582 0.40182 0.18127 0.0
C692 C 0.56314 0.37674 0.22755 0.0
H693 H 0.54154 0.36917 0.23257 0.0
H694 H 0.57834 0.39104 0.23824 0.0
H695 H 0.56607 0.35857 0.22593 0.0
C696 C 0.44142 0.33812 0.2188 0.0
N697 N 0.45915 0.33136 0.2105 0.0
N698 N 0.48388 0.35381 0.20906 0.0
C699 C 0.48268 0.37563 0.21642 0.0
C700 C 0.45569 0.36648 0.22285 0.0
C701 C 0.41083 0.31824 0.22073 0.0
H702 H 0.40245 0.30751 0.20692 0.0
H703 H 0.40748 0.30211 0.23143 0.0
H704 H 0.39928 0.32886 0.22511 0.0
O705 O 0.46045 0.30247 0.17145 0.0
O706 O 0.50151 0.34103 0.16835 0.0
H707 H 0.51195 0.41276 0.20195 0.0
H708 H 0.50232 0.41876 0.22544 0.0
C709 C 0.50683 0.40475 0.21677 0.0
H710 H 0.52531 0.40473 0.22278 0.0
H711 H 0.54717 0.40067 0.16892 0.0
O712 O 0.41453 0.26676 0.20152 0.0
C713 C 0.48012 0.32029 0.16108 0.0
Co714 Co 0.48202 0.35646 0.98978 0.0
Co715 Co 0.49262 0.30712 0.98095 0.0
C716 C 0.53716 0.36567 0.97496 0.0
O717 O 0.52038 0.37321 0.98092 0.0
O718 O 0.52972 0.33996 0.97376 0.0
C719 C 0.48673 0.40696 0.97905 0.0
O720 O 0.49727 0.4019 0.96381 0.0
C721 C 0.51161 0.26971 0.9655 0.0
C722 C 0.48015 0.22932 0.97764 0.0
C723 C 0.50427 0.24186 0.96682 0.0
N724 N 0.49276 0.27342 0.97522 0.0
N725 N 0.47402 0.24915 0.9824 0.0
C726 C 0.53563 0.29231 0.95481 0.0
H727 H 0.55273 0.30488 0.96497 0.0
H728 H 0.5292 0.30622 0.94792 0.0
H729 H 0.54341 0.28358 0.94375 0.0
C730 C 0.43324 0.32359 0.96531 0.0
N731 N 0.45751 0.32845 0.97295 0.0
N732 N 0.46195 0.30788 0.96857 0.0
C733 C 0.44049 0.28938 0.95771 0.0
C734 C 0.42164 0.29874 0.95529 0.0
C735 C 0.42036 0.34125 0.96906 0.0
H736 H 0.42042 0.34492 0.98462 0.0
H737 H 0.43315 0.36179 0.9621 0.0
H738 H 0.39877 0.3315 0.96348 0.0
O739 O 0.48009 0.3417 0.01544 0.0
O740 O 0.48777 0.30677 0.00938 0.0
H741 H 0.42831 0.24698 0.96325 0.0
H742 H 0.42153 0.25348 0.93925 0.0
C743 C 0.43658 0.26197 0.95124 0.0
H744 H 0.45681 0.26434 0.94671 0.0
H745 H 0.45736 0.24626 0.99094 0.0
O746 O 0.47545 0.38818 0.99173 0.0
C747 C 0.48309 0.32158 0.02108 0.0
Co748 Co 0.6348 0.11999 0.98296 0.0
Co749 Co 0.68539 0.1785 0.97246 0.0
C750 C 0.62634 0.16379 0.9644 0.0
O751 O 0.617 0.13912 0.97057 0.0
O752 O 0.65232 0.18146 0.96458 0.0
C753 C 0.5811 0.07007 0.98262 0.0
O754 O 0.57478 0.08343 0.96992 0.0
C755 C 0.72205 0.23432 0.95605 0.0
C756 C 0.76302 0.24328 0.96708 0.0
C757 C 0.74994 0.25483 0.95683 0.0
N758 N 0.71883 0.21176 0.9655 0.0
N759 N 0.74345 0.21731 0.97202 0.0
C760 C 0.69884 0.23597 0.94642 0.0
H761 H 0.68647 0.23957 0.95732 0.0
H762 H 0.68491 0.216 0.93911 0.0
H763 H 0.70692 0.25312 0.93583 0.0
C764 C 0.66818 0.10115 0.96131 0.0
N765 N 0.66357 0.12146 0.96755 0.0
N766 N 0.68433 0.14582 0.96221 0.0
C767 C 0.70251 0.14156 0.95194 0.0
C768 C 0.69299 0.11313 0.95119 0.0
C769 C 0.6496 0.07094 0.96572 0.0
H770 H 0.6281 0.0644 0.961 0.0
H771 H 0.65678 0.0578 0.95857 0.0
H772 H 0.64905 0.06781 0.98138 0.0
O773 O 0.6493 0.13721 0.00805 0.0
O774 O 0.68642 0.17768 0.00081 0.0
H775 H 0.74546 0.1715 0.95583 0.0
H776 H 0.73708 0.15657 0.93236 0.0
C777 C 0.72963 0.16422 0.94433 0.0
H778 H 0.72735 0.18196 0.93937 0.0
H779 H 0.74672 0.20369 0.98044 0.0
O780 O 0.60583 0.08128 0.98901 0.0
C781 C 0.67027 0.16013 0.01309 0.0
Co782 Co 0.87508 0.50617 0.97896 0.0
Co783 Co 0.81699 0.50025 0.97004 0.0
C784 C 0.82824 0.45467 0.96049 0.0
O785 O 0.85283 0.46907 0.96698 0.0
O786 O 0.81132 0.46385 0.96069 0.0
C787 C 0.92133 0.49901 0.97167 0.0
O788 O 0.90606 0.4849 0.95701 0.0
C789 C 0.75741 0.48005 0.96496 0.0
C790 C 0.75607 0.51901 0.9626 0.0
C791 C 0.73913 0.49026 0.96263 0.0
N792 N 0.78368 0.50175 0.96534 0.0
N793 N 0.78258 0.52495 0.96445 0.0
C794 C 0.75031 0.45108 0.9703 0.0
H795 H 0.7676 0.45141 0.97844 0.0
H796 H 0.74665 0.43852 0.95718 0.0
H797 H 0.73139 0.44105 0.97937 0.0
C798 C 0.89471 0.55827 0.95717 0.0
N799 N 0.87401 0.53406 0.96402 0.0
N800 N 0.84982 0.53061 0.95832 0.0
C801 C 0.85483 0.55194 0.9465 0.0
C802 C 0.88331 0.57044 0.94578 0.0
C803 C 0.92482 0.56956 0.96174 0.0
H804 H 0.92745 0.5692 0.97741 0.0
H805 H 0.93184 0.55588 0.95522 0.0
H806 H 0.93795 0.59105 0.95625 0.0
O807 O 0.86117 0.50522 0.0048 0.0
O808 O 0.82056 0.50211 0.99851 0.0
H809 H 0.82954 0.5705 0.94197 0.0
H810 H 0.84103 0.56184 0.92065 0.0
C811 C 0.8333 0.55454 0.93531 0.0
H812 H 0.81373 0.53424 0.93441 0.0
H813 H 0.79969 0.54483 0.96623 0.0
O814 O 0.91319 0.51223 0.98217 0.0
C815 C 0.83868 0.50369 0.01039 0.0
Co816 Co 0.30054 0.84138 0.80629 0.0
Co817 Co 0.35711 0.84322 0.81391 0.0
C818 C 0.30541 0.79155 0.79943 0.0
O819 O 0.29094 0.8034 0.79829 0.0
O820 O 0.33037 0.80475 0.8054 0.0
C821 C 0.24636 0.82691 0.79297 0.0
O822 O 0.24884 0.80802 0.78326 0.0
C823 C 0.39845 0.83072 0.80035 0.0
C824 C 0.42393 0.83658 0.82592 0.0
C825 C 0.41854 0.82529 0.8077 0.0
N826 N 0.39169 0.84361 0.81376 0.0
N827 N 0.40747 0.84768 0.82889 0.0
C828 C 0.38524 0.82341 0.781 0.0
H829 H 0.3661 0.80276 0.78142 0.0
H830 H 0.37902 0.83873 0.77654 0.0
H831 H 0.39975 0.8228 0.77036 0.0
C832 C 0.33762 0.8905 0.78217 0.0
N833 N 0.3331 0.86938 0.7939 0.0
N834 N 0.35695 0.8704 0.79732 0.0
C835 C 0.37743 0.89234 0.78799 0.0
C836 C 0.3659 0.90579 0.77798 0.0
C837 C 0.31508 0.89537 0.77484 0.0
H838 H 0.29617 0.87515 0.77166 0.0
H839 H 0.3218 0.90851 0.76183 0.0
H840 H 0.30965 0.90597 0.78605 0.0
O841 O 0.30596 0.84369 0.83431 0.0
O842 O 0.34709 0.84767 0.84042 0.0
H843 H 0.41228 0.89691 0.80427 0.0
H844 H 0.42093 0.92391 0.78667 0.0
C845 C 0.40768 0.90135 0.78972 0.0
H846 H 0.41289 0.88954 0.77935 0.0
H847 H 0.40534 0.85584 0.84178 0.0
O848 O 0.26716 0.84519 0.80231 0.0
C849 C 0.3246 0.84633 0.8461 0.0
Co850 Co 0.14348 0.44762 0.82511 0.0
Co851 Co 0.16063 0.50952 0.8152 0.0
C852 C 0.20069 0.48854 0.81099 0.0
O853 O 0.18227 0.46448 0.81655 0.0
O854 O 0.1954 0.50835 0.80967 0.0
C855 C 0.14154 0.39559 0.82093 0.0
O856 O 0.15837 0.40834 0.80657 0.0
C857 C 0.18692 0.565 0.79759 0.0
C858 C 0.165 0.58387 0.812 0.0
C859 C 0.18715 0.59005 0.79992 0.0
N860 N 0.1662 0.54534 0.80818 0.0
N861 N 0.15287 0.55667 0.8165 0.0
C862 C 0.20575 0.55948 0.78539 0.0
H863 H 0.19445 0.53775 0.78002 0.0
H864 H 0.21374 0.57414 0.77316 0.0
H865 H 0.22359 0.56217 0.79411 0.0
C866 C 0.09856 0.43663 0.79751 0.0
N867 N 0.12167 0.45412 0.8073 0.0
N868 N 0.12929 0.47998 0.80264 0.0
C869 C 0.11144 0.47972 0.78949 0.0
C870 C 0.0913 0.45225 0.78588 0.0
C871 C 0.08451 0.4056 0.7989 0.0
H872 H 0.07866 0.3992 0.81396 0.0
H873 H 0.09938 0.39874 0.79456 0.0
H874 H 0.06573 0.39521 0.78972 0.0
O875 O 0.1436 0.4635 0.85018 0.0
O876 O 0.15445 0.50686 0.8433 0.0
H877 H 0.10999 0.51723 0.79266 0.0
H878 H 0.0973 0.50036 0.76992 0.0
C879 C 0.11318 0.50538 0.78117 0.0
H880 H 0.13429 0.51884 0.77515 0.0
H881 H 0.1364 0.54618 0.82604 0.0
O882 O 0.13049 0.40772 0.82969 0.0
C883 C 0.14829 0.48743 0.85533 0.0
Co884 Co 0.53613 0.69029 0.81477 0.0
Co885 Co 0.47824 0.63671 0.80829 0.0
C886 C 0.48636 0.69375 0.80184 0.0
O887 O 0.51195 0.70529 0.80652 0.0
O888 O 0.47086 0.66733 0.80173 0.0
C889 C 0.58276 0.7463 0.81327 0.0
O890 O 0.56632 0.75193 0.80307 0.0
C891 C 0.41898 0.59496 0.80344 0.0
C892 C 0.42033 0.55586 0.80216 0.0
C893 C 0.40215 0.56618 0.80168 0.0
N894 N 0.44573 0.60117 0.80411 0.0
N895 N 0.44628 0.57764 0.80377 0.0
C896 C 0.40998 0.61574 0.8078 0.0
H897 H 0.42579 0.63282 0.81673 0.0
H898 H 0.40761 0.62472 0.79427 0.0
H899 H 0.38992 0.60593 0.81563 0.0
C900 C 0.55332 0.6617 0.7865 0.0
N901 N 0.53391 0.66278 0.79746 0.0
N902 N 0.50929 0.64122 0.79355 0.0
C903 C 0.51215 0.6266 0.77919 0.0
C904 C 0.54019 0.63874 0.77453 0.0
C905 C 0.58359 0.68313 0.78693 0.0
H906 H 0.58611 0.70386 0.7837 0.0
H907 H 0.59571 0.67846 0.77647 0.0
H908 H 0.59186 0.68415 0.8015 0.0
O909 O 0.52532 0.67558 0.84074 0.0
O910 O 0.48514 0.63687 0.83615 0.0
H911 H 0.4864 0.58253 0.776 0.0
H912 H 0.49228 0.60136 0.75428 0.0
C913 C 0.48851 0.60184 0.76972 0.0
H914 H 0.46888 0.60225 0.77144 0.0
H915 H 0.46429 0.57635 0.80543 0.0
O916 O 0.57456 0.7213 0.8181 0.0
C917 C 0.50437 0.65382 0.84718 0.0
Co918 Co 0.51853 0.63433 0.02504 0.0
Co919 Co 0.50572 0.68308 0.02175 0.0
C920 C 0.46416 0.62576 0.03745 0.0
O921 O 0.48143 0.61707 0.03654 0.0
O922 O 0.47081 0.6502 0.03187 0.0
C923 C 0.51815 0.58338 0.03211 0.0
O924 O 0.49686 0.57778 0.04316 0.0
C925 C 0.48236 0.71714 0.03453 0.0
C926 C 0.49666 0.74955 0.01228 0.0
C927 C 0.47925 0.7391 0.028 0.0
N928 N 0.50012 0.71436 0.02295 0.0
N929 N 0.50897 0.7341 0.00985 0.0
C930 C 0.469 0.69912 0.05159 0.0
H931 H 0.48301 0.69221 0.05772 0.0
H932 H 0.46413 0.71049 0.06256 0.0
H933 H 0.44938 0.68035 0.04723 0.0
C934 C 0.56619 0.6765 0.04743 0.0
N935 N 0.54307 0.66847 0.03698 0.0
N936 N 0.53806 0.68924 0.03562 0.0
C937 C 0.55824 0.71143 0.04498 0.0
C938 C 0.57685 0.70413 0.05281 0.0
C939 C 0.57669 0.65735 0.05304 0.0
H940 H 0.58969 0.6565 0.04132 0.0
H941 H 0.55893 0.63603 0.05534 0.0
H942 H 0.58938 0.66457 0.06625 0.0
O943 O 0.51416 0.63915 0.99765 0.0
O944 O 0.5089 0.67599 0.99428 0.0
H945 H 0.55608 0.74468 0.03114 0.0
H946 H 0.58103 0.75587 0.05038 0.0
C947 C 0.56021 0.73933 0.04555 0.0
H948 H 0.54404 0.73837 0.05534 0.0
H949 H 0.52225 0.7361 0.99866 0.0
O950 O 0.53215 0.60755 0.02491 0.0
C951 C 0.51102 0.65604 0.98714 0.0
Co952 Co 0.35539 0.86817 0.01984 0.0
Co953 Co 0.29883 0.81246 0.02372 0.0
C954 C 0.35449 0.81582 0.02968 0.0
O955 O 0.3682 0.84189 0.02682 0.0
O956 O 0.32807 0.80257 0.02872 0.0
C957 C 0.40907 0.91067 0.03078 0.0
O958 O 0.40507 0.89274 0.04437 0.0
C959 C 0.26289 0.7623 0.0443 0.0
C960 C 0.22819 0.73912 0.02424 0.0
C961 C 0.23982 0.73615 0.041 0.0
N962 N 0.26516 0.77931 0.02992 0.0
N963 N 0.24401 0.76556 0.01816 0.0
C964 C 0.28283 0.77144 0.06072 0.0
H965 H 0.292 0.79411 0.06321 0.0
H966 H 0.2722 0.75972 0.07383 0.0
H967 H 0.30023 0.76777 0.05739 0.0
C968 C 0.32722 0.88617 0.04812 0.0
N969 N 0.32811 0.86665 0.03718 0.0
N970 N 0.30404 0.84335 0.03845 0.0
C971 C 0.2869 0.84742 0.04991 0.0
C972 C 0.30107 0.87467 0.05654 0.0
C973 C 0.35037 0.91573 0.04938 0.0
H974 H 0.3579 0.92391 0.03484 0.0
H975 H 0.36798 0.91644 0.05737 0.0
H976 H 0.34366 0.92917 0.05665 0.0
O977 O 0.34031 0.85954 0.99341 0.0
O978 O 0.29908 0.82094 0.99622 0.0
H979 H 0.2463 0.81635 0.04062 0.0
H980 H 0.24625 0.83402 0.06237 0.0
C981 C 0.25747 0.82558 0.05417 0.0
H982 H 0.25743 0.80868 0.06261 0.0
H983 H 0.24157 0.77351 0.00528 0.0
O984 O 0.38941 0.90525 0.01915 0.0
C985 C 0.31773 0.84046 0.9861 0.0
Co986 Co 0.12498 0.48838 0.03285 0.0
Co987 Co 0.18483 0.49603 0.02933 0.0
C988 C 0.17382 0.53982 0.04687 0.0
O989 O 0.14755 0.5249 0.04506 0.0
O990 O 0.19013 0.53122 0.04128 0.0
C991 C 0.07826 0.4958 0.03262 0.0
O992 O 0.09754 0.52196 0.03502 0.0
C993 C 0.24288 0.51291 0.03928 0.0
C994 C 0.25112 0.48615 0.02021 0.0
C995 C 0.2633 0.5069 0.03383 0.0
N996 N 0.21957 0.49647 0.02934 0.0
N997 N 0.22472 0.4806 0.01791 0.0
C998 C 0.24542 0.53373 0.05384 0.0
H999 H 0.22579 0.5254 0.06209 0.0
H1000 H 0.26302 0.53902 0.06372 0.0
H1001 H 0.24919 0.55296 0.0464 0.0
C1002 C 0.11513 0.43765 0.05365 0.0
N1003 N 0.13173 0.46111 0.04386 0.0
N1004 N 0.15678 0.46415 0.04246 0.0
C1005 C 0.15687 0.44258 0.05129 0.0
C1006 C 0.13044 0.42502 0.05869 0.0
C1007 C 0.08557 0.42841 0.05878 0.0
H1008 H 0.08358 0.44672 0.06266 0.0
H1009 H 0.07828 0.41344 0.07083 0.0
H1010 H 0.07214 0.41829 0.04619 0.0
O1011 O 0.13372 0.49306 0.00543 0.0
O1012 O 0.17454 0.4953 0.00209 0.0
H1013 H 0.18689 0.43618 0.03666 0.0
H1014 H 0.17706 0.41904 0.05932 0.0
C1015 C 0.18137 0.43816 0.05153 0.0
H1016 H 0.19948 0.45648 0.05807 0.0
H1017 H 0.21029 0.46621 0.00834 0.0
O1018 O 0.08514 0.47712 0.03313 0.0
C1019 C 0.15333 0.49507 0.99497 0.0
Co1020 Co 0.36103 0.48563 0.52247 0.0
Co1021 Co 0.3172 0.50339 0.53266 0.0
C1022 C 0.3778 0.54287 0.53796 0.0
O1023 O 0.38341 0.5249 0.53126 0.0
O1024 O 0.35269 0.53713 0.54015 0.0
C1025 C 0.41123 0.48341 0.52473 0.0
O1026 O 0.41764 0.5021 0.53821 0.0
C1027 C 0.28717 0.5322 0.54412 0.0
C1028 C 0.24321 0.49912 0.54121 0.0
C1029 C 0.26001 0.52683 0.54619 0.0
N1030 N 0.2864 0.50846 0.53898 0.0
N1031 N 0.26005 0.4889 0.53695 0.0
C1032 C 0.31315 0.56012 0.54362 0.0
H1033 H 0.3265 0.56092 0.5316 0.0
H1034 H 0.32472 0.56339 0.55717 0.0
H1035 H 0.30862 0.57728 0.54159 0.0
C1036 C 0.32738 0.44019 0.5496 0.0
N1037 N 0.33267 0.46337 0.54003 0.0
N1038 N 0.31424 0.47068 0.54479 0.0
C1039 C 0.29693 0.45251 0.55803 0.0
C1040 C 0.30446 0.43234 0.56133 0.0
C1041 C 0.345 0.42682 0.54812 0.0
H1042 H 0.36714 0.4428 0.55036 0.0
H1043 H 0.33898 0.40995 0.55874 0.0
H1044 H 0.34308 0.41828 0.53353 0.0
O1045 O 0.34543 0.48548 0.49731 0.0
O1046 O 0.31694 0.50143 0.5042 0.0
H1047 H 0.26735 0.44363 0.58101 0.0
H1048 H 0.27851 0.47594 0.56868 0.0
C1049 C 0.27313 0.45395 0.56693 0.0
H1050 H 0.25462 0.44301 0.5576 0.0
H1051 H 0.25355 0.46887 0.53193 0.0
O1052 O 0.38705 0.47189 0.51742 0.0
C1053 C 0.32868 0.49353 0.49211 0.0
Co1054 Co 0.52355 0.87829 0.50311 0.0
Co1055 Co 0.51184 0.82125 0.52019 0.0
C1056 C 0.47066 0.8402 0.52497 0.0
O1057 O 0.48722 0.8623 0.51596 0.0
O1058 O 0.47686 0.82125 0.52807 0.0
C1059 C 0.52494 0.93035 0.50327 0.0
O1060 O 0.51094 0.92079 0.51923 0.0
C1061 C 0.49095 0.76286 0.53202 0.0
C1062 C 0.53026 0.76297 0.53717 0.0
C1063 C 0.5016 0.74556 0.53699 0.0
N1064 N 0.51237 0.78907 0.5299 0.0
N1065 N 0.53576 0.7888 0.53277 0.0
C1066 C 0.4617 0.75437 0.52648 0.0
H1067 H 0.46131 0.77054 0.51739 0.0
H1068 H 0.44931 0.75177 0.53953 0.0
H1069 H 0.45198 0.73436 0.51856 0.0
C1070 C 0.57462 0.89941 0.52544 0.0
N1071 N 0.55047 0.87806 0.51921 0.0
N1072 N 0.54455 0.8553 0.5287 0.0
C1073 C 0.56412 0.8622 0.54247 0.0
C1074 C 0.58417 0.89041 0.5407 0.0
C1075 C 0.58851 0.92749 0.51614 0.0
H1076 H 0.58374 0.92529 0.50067 0.0
H1077 H 0.58039 0.94036 0.52248 0.0
H1078 H 0.61143 0.93825 0.51804 0.0
O1079 O 0.51861 0.85723 0.48019 0.0
O1080 O 0.51138 0.81675 0.49138 0.0
H1081 H 0.57559 0.83525 0.55673 0.0
H1082 H 0.56753 0.85577 0.57234 0.0
C1083 C 0.5614 0.84368 0.55885 0.0
H1084 H 0.53968 0.8262 0.5601 0.0
H1085 H 0.55557 0.80584 0.53055 0.0
O1086 O 0.53368 0.91611 0.4946 0.0
C1087 C 0.51371 0.83262 0.47746 0.0
Co1088 Co 0.13737 0.65257 0.51765 0.0
Co1089 Co 0.19329 0.70868 0.52509 0.0
C1090 C 0.18735 0.65367 0.53484 0.0
O1091 O 0.1629 0.64097 0.52802 0.0
O1092 O 0.20143 0.68008 0.53521 0.0
C1093 C 0.0953 0.59753 0.52666 0.0
O1094 O 0.11239 0.60107 0.54073 0.0
C1095 C 0.2524 0.74786 0.53003 0.0
C1096 C 0.25492 0.78839 0.53444 0.0
C1097 C 0.2712 0.77586 0.53362 0.0
N1098 N 0.2264 0.744 0.52977 0.0
N1099 N 0.22817 0.76849 0.53189 0.0
C1100 C 0.25897 0.72602 0.52358 0.0
H1101 H 0.24219 0.71071 0.5142 0.0
H1102 H 0.26076 0.71493 0.5362 0.0
H1103 H 0.27878 0.73543 0.51545 0.0
C1104 C 0.11503 0.67993 0.54232 0.0
N1105 N 0.13652 0.68028 0.53315 0.0
N1106 N 0.15973 0.70366 0.53712 0.0
C1107 C 0.15349 0.71846 0.54951 0.0
C1108 C 0.12502 0.70415 0.55287 0.0
C1109 C 0.08551 0.65677 0.54089 0.0
H1110 H 0.0803 0.6504 0.52577 0.0
H1111 H 0.0832 0.63856 0.54901 0.0
H1112 H 0.0708 0.663 0.54669 0.0
O1113 O 0.14913 0.66603 0.49163 0.0
O1114 O 0.18873 0.70549 0.49664 0.0
H1115 H 0.17668 0.76266 0.55248 0.0
H1116 H 0.16682 0.74419 0.5746 0.0
C1117 C 0.17428 0.74396 0.55994 0.0
H1118 H 0.19458 0.74469 0.56083 0.0
H1119 H 0.2114 0.77192 0.5308 0.0
O1120 O 0.10076 0.61789 0.51568 0.0
C1121 C 0.1705 0.68764 0.48536 0.0
Co1122 Co 0.15062 0.69982 0.30828 0.0
Co1123 Co 0.15973 0.64854 0.31064 0.0
C1124 C 0.20211 0.70408 0.29312 0.0
O1125 O 0.18604 0.71413 0.29475 0.0
O1126 O 0.19479 0.67963 0.29909 0.0
C1127 C 0.15805 0.75397 0.30828 0.0
O1128 O 0.184 0.76053 0.3053 0.0
C1129 C 0.17747 0.61044 0.29642 0.0
C1130 C 0.16501 0.57984 0.31978 0.0
C1131 C 0.17992 0.58791 0.30282 0.0
N1132 N 0.16263 0.61564 0.30924 0.0
N1133 N 0.15483 0.59699 0.32301 0.0
C1134 C 0.18838 0.62678 0.27838 0.0
H1135 H 0.20974 0.64443 0.28084 0.0
H1136 H 0.17512 0.63558 0.274 0.0
H1137 H 0.18889 0.61345 0.26676 0.0
C1138 C 0.10074 0.65961 0.28709 0.0
N1139 N 0.12347 0.66581 0.29748 0.0
N1140 N 0.12704 0.64407 0.29803 0.0
C1141 C 0.10633 0.62313 0.288 0.0
C1142 C 0.08904 0.63238 0.28064 0.0
C1143 C 0.09108 0.67992 0.283 0.0
H1144 H 0.08981 0.68958 0.29653 0.0
H1145 H 0.10657 0.69677 0.27372 0.0
H1146 H 0.0704 0.66977 0.27595 0.0
O1147 O 0.15742 0.69592 0.33531 0.0
O1148 O 0.15979 0.65736 0.33829 0.0
H1149 H 0.10576 0.58642 0.29799 0.0
H1150 H 0.08513 0.58116 0.27669 0.0
C1151 C 0.10462 0.59576 0.28427 0.0
H1152 H 0.12272 0.59922 0.27551 0.0
H1153 H 0.1438 0.59686 0.33511 0.0
O1154 O 0.13924 0.72843 0.30862 0.0
C1155 C 0.16017 0.67858 0.34558 0.0
Co1156 Co 0.30662 0.46253 0.31968 0.0
Co1157 Co 0.3588 0.52149 0.31368 0.0
C1158 C 0.30135 0.5089 0.30215 0.0
O1159 O 0.29004 0.4839 0.30812 0.0
O1160 O 0.32757 0.52507 0.30314 0.0
C1161 C 0.25164 0.41516 0.32019 0.0
O1162 O 0.24539 0.43115 0.31 0.0
C1163 C 0.3965 0.57058 0.29183 0.0
C1164 C 0.4293 0.59534 0.31283 0.0
C1165 C 0.41997 0.59655 0.29467 0.0
N1166 N 0.39189 0.55528 0.30767 0.0
N1167 N 0.41187 0.56997 0.32006 0.0
C1168 C 0.37881 0.5599 0.27433 0.0
H1169 H 0.36201 0.56507 0.27506 0.0
H1170 H 0.36889 0.53689 0.27353 0.0
H1171 H 0.39142 0.56956 0.26134 0.0
C1172 C 0.34077 0.44645 0.29541 0.0
N1173 N 0.33678 0.46531 0.30494 0.0
N1174 N 0.35916 0.49003 0.30317 0.0
C1175 C 0.37822 0.48764 0.2927 0.0
C1176 C 0.36718 0.45999 0.28723 0.0
C1177 C 0.3191 0.41641 0.29344 0.0
H1178 H 0.29811 0.4142 0.2926 0.0
H1179 H 0.32283 0.40704 0.28059 0.0
H1180 H 0.31972 0.40497 0.30624 0.0
O1181 O 0.31919 0.47674 0.34581 0.0
O1182 O 0.355 0.51943 0.34188 0.0
H1183 H 0.42132 0.50342 0.28494 0.0
H1184 H 0.40625 0.52384 0.27679 0.0
C1185 C 0.40698 0.51118 0.28877 0.0
H1186 H 0.41525 0.5247 0.30152 0.0
H1187 H 0.41278 0.56323 0.3338 0.0
O1188 O 0.27697 0.4236 0.32424 0.0
C1189 C 0.33807 0.49972 0.35263 0.0
Co1190 Co 0.54086 0.84001 0.30204 0.0
Co1191 Co 0.48079 0.83225 0.3035 0.0
C1192 C 0.4936 0.79072 0.28443 0.0
O1193 O 0.51959 0.80523 0.28765 0.0
O1194 O 0.47673 0.79865 0.28993 0.0
C1195 C 0.5875 0.83236 0.30199 0.0
O1196 O 0.5687 0.80702 0.29689 0.0
C1197 C 0.42311 0.81517 0.29226 0.0
C1198 C 0.41403 0.84211 0.31051 0.0
C1199 C 0.40242 0.82114 0.297 0.0
N1200 N 0.44605 0.83186 0.30247 0.0
N1201 N 0.44039 0.84783 0.31342 0.0
C1202 C 0.4212 0.79422 0.27804 0.0
H1203 H 0.41942 0.77594 0.28576 0.0
H1204 H 0.4404 0.8034 0.26924 0.0
H1205 H 0.40284 0.78722 0.26859 0.0
C1206 C 0.55251 0.89187 0.28218 0.0
N1207 N 0.53528 0.86846 0.2918 0.0
N1208 N 0.51017 0.86538 0.29225 0.0
C1209 C 0.51066 0.8869 0.2829 0.0
C1210 C 0.53755 0.90446 0.27619 0.0
C1211 C 0.58203 0.90043 0.27741 0.0
H1212 H 0.58351 0.88183 0.2735 0.0
H1213 H 0.59007 0.91561 0.26549 0.0
H1214 H 0.59521 0.91 0.29019 0.0
O1215 O 0.52918 0.8318 0.32888 0.0
O1216 O 0.48812 0.82925 0.33103 0.0
H1217 H 0.47856 0.89251 0.29503 0.0
H1218 H 0.49072 0.90959 0.27249 0.0
C1219 C 0.48587 0.89063 0.2807 0.0
H1220 H 0.46878 0.87204 0.27361 0.0
H1221 H 0.45442 0.86238 0.3231 0.0
O1222 O 0.58059 0.85096 0.30327 0.0
C1223 C 0.50844 0.8283 0.33869 0.0
H1224 H 0.06338 0.09775 0.1395 0.0
H1225 H 0.13364 0.17639 0.12174 0.0
H1226 H 0.15814 0.1519 0.11083 0.0
H1227 H 0.10256 0.07247 0.15985 0.0
H1228 H 0.08009 0.03654 0.1533 0.0
H1229 H 0.06591 0.05923 0.15597 0.0
H1230 H 0.04622 0.04731 0.1216 0.0
H1231 H 0.06056 0.02462 0.11881 0.0
H1232 H 0.06933 0.05239 0.10199 0.0
H1233 H 0.17706 0.12036 0.10556 0.0
H1234 H 0.19138 0.08519 0.10939 0.0
H1235 H 0.1096 0.02681 0.1318 0.0
C1236 C 0.08352 0.10957 0.13269 0.0
C1237 C 0.0965 0.13878 0.13099 0.0
C1238 C 0.12334 0.15392 0.12287 0.0
C1239 C 0.13726 0.14016 0.11653 0.0
C1240 C 0.12408 0.11131 0.11858 0.0
C1241 C 0.09787 0.09617 0.12659 0.0
C1242 C 0.09009 0.06608 0.12973 0.0
C1243 C 0.08435 0.05814 0.15097 0.0
C1244 C 0.06506 0.04644 0.11729 0.0
C1245 C 0.11648 0.06695 0.12299 0.0
C1246 C 0.13548 0.09306 0.11613 0.0
C1247 C 0.16222 0.09972 0.11061 0.0
C1248 C 0.17017 0.07957 0.11286 0.0
C1249 C 0.15156 0.05316 0.1208 0.0
C1250 C 0.12406 0.04652 0.12527 0.0
H1251 H 0.89798 0.96116 0.14285 0.0
H1252 H 0.81722 0.95399 0.13435 0.0
H1253 H 0.84005 0.0047 0.12862 0.0
H1254 H 0.92626 0.02211 0.16916 0.0
H1255 H 0.96101 0.03719 0.15962 0.0
H1256 H 0.93886 0.99998 0.16016 0.0
H1257 H 0.94536 0.99762 0.12375 0.0
H1258 H 0.96769 0.03491 0.12312 0.0
H1259 H 0.93752 0.01834 0.10786 0.0
H1260 H 0.87079 0.05591 0.12682 0.0
H1261 H 0.90723 0.10495 0.13031 0.0
H1262 H 0.96849 0.07944 0.14066 0.0
C1263 C 0.88524 0.97019 0.13911 0.0
C1264 C 0.85593 0.95375 0.13855 0.0
C1265 C 0.83975 0.96633 0.13457 0.0
C1266 C 0.85252 0.99502 0.13122 0.0
C1267 C 0.88148 0.01077 0.13206 0.0
C1268 C 0.89768 0.99886 0.13592 0.0
C1269 C 0.92812 0.02086 0.13794 0.0
C1270 C 0.93919 0.01997 0.15791 0.0
C1271 C 0.94571 0.01774 0.12223 0.0
C1272 C 0.92637 0.04702 0.13513 0.0
C1273 C 0.89932 0.04064 0.13146 0.0
C1274 C 0.89211 0.0612 0.12944 0.0
C1275 C 0.913 0.08902 0.13152 0.0
C1276 C 0.94079 0.09611 0.13572 0.0
C1277 C 0.94756 0.07476 0.13721 0.0
H1278 H 0.03577 0.93197 0.13503 0.0
H1279 H 0.04271 0.86092 0.11716 0.0
H1280 H 0.99253 0.8354 0.10912 0.0
H1281 H 0.97364 0.89387 0.1588 0.0
H1282 H 0.95932 0.91577 0.15276 0.0
H1283 H 0.99642 0.93026 0.15362 0.0
H1284 H 0.00053 0.94775 0.11886 0.0
H1285 H 0.9633 0.93323 0.11791 0.0
H1286 H 0.9805 0.92343 0.1003 0.0
H1287 H 0.94141 0.81596 0.10646 0.0
H1288 H 0.89234 0.80227 0.11181 0.0
H1289 H 0.91793 0.88544 0.13254 0.0
C1290 C 0.02684 0.91143 0.12876 0.0
C1291 C 0.04306 0.89855 0.12619 0.0
C1292 C 0.03057 0.87117 0.11889 0.0
C1293 C 0.00219 0.85664 0.1142 0.0
C1294 C 0.9866 0.86976 0.11709 0.0
C1295 C 0.99844 0.89651 0.12428 0.0
C1296 C 0.97645 0.90444 0.12841 0.0
C1297 C 0.97646 0.91148 0.14966 0.0
C1298 C 0.98044 0.92865 0.1156 0.0
C1299 C 0.95032 0.87762 0.12305 0.0
C1300 C 0.95673 0.85814 0.11615 0.0
C1301 C 0.93613 0.83115 0.11159 0.0
C1302 C 0.90827 0.82357 0.11471 0.0
C1303 C 0.9012 0.84279 0.12255 0.0
C1304 C 0.92256 0.87041 0.12622 0.0
H1305 H 0.11308 0.07911 0.36759 0.0
H1306 H 0.18978 0.15314 0.38393 0.0
H1307 H 0.1638 0.17821 0.38879 0.0
H1308 H 0.086 0.11286 0.34105 0.0
H1309 H 0.05022 0.09032 0.34789 0.0
H1310 H 0.07413 0.07731 0.34789 0.0
H1311 H 0.06257 0.06295 0.38333 0.0
H1312 H 0.03848 0.07583 0.38342 0.0
H1313 H 0.06623 0.08854 0.4007 0.0
H1314 H 0.13046 0.19604 0.38926 0.0
H1315 H 0.09256 0.20629 0.38439 0.0
H1316 H 0.03703 0.1203 0.36799 0.0
C1317 C 0.12424 0.10026 0.37289 0.0
C1318 C 0.15332 0.11401 0.37598 0.0
C1319 C 0.16744 0.14218 0.38181 0.0
C1320 C 0.15284 0.1565 0.38466 0.0
C1321 C 0.12416 0.14232 0.38152 0.0
C1322 C 0.10999 0.11482 0.37576 0.0
C1323 C 0.07959 0.10508 0.37183 0.0
C1324 C 0.07206 0.09587 0.35093 0.0
C1325 C 0.06059 0.08171 0.38565 0.0
C1326 C 0.07899 0.1316 0.37585 0.0
C1327 C 0.10487 0.15272 0.3816 0.0
C1328 C 0.11002 0.1796 0.38501 0.0
C1329 C 0.08832 0.1852 0.38215 0.0
C1330 C 0.06173 0.16406 0.37589 0.0
C1331 C 0.05695 0.13678 0.37307 0.0
H1332 H 0.92947 0.03841 0.37413 0.0
H1333 H 0.86254 0.04502 0.3468 0.0
H1334 H 0.83339 0.99421 0.34735 0.0
H1335 H 0.91901 0.97919 0.34622 0.0
H1336 H 0.92765 0.96338 0.36552 0.0
H1337 H 0.94286 0.00066 0.36459 0.0
H1338 H 0.92412 7e-05 0.39852 0.0
H1339 H 0.90858 0.96274 0.39945 0.0
H1340 H 0.88741 0.97855 0.40329 0.0
H1341 H 0.8113 0.94325 0.35035 0.0
H1342 H 0.79889 0.89426 0.35252 0.0
H1343 H 0.88125 0.91928 0.37488 0.0
C1344 C 0.90909 0.02945 0.36774 0.0
C1345 C 0.8988 0.04622 0.36003 0.0
C1346 C 0.8712 0.03298 0.35279 0.0
C1347 C 0.85433 0.00401 0.35303 0.0
C1348 C 0.86528 0.98825 0.36041 0.0
C1349 C 0.89209 0.00035 0.3674 0.0
C1350 C 0.8991 0.97825 0.37346 0.0
C1351 C 0.9236 0.98051 0.36174 0.0
C1352 C 0.90516 0.98002 0.39496 0.0
C1353 C 0.87206 0.95193 0.36856 0.0
C1354 C 0.85275 0.95836 0.36141 0.0
C1355 C 0.82625 0.9379 0.35586 0.0
C1356 C 0.81941 0.91004 0.3572 0.0
C1357 C 0.83913 0.90274 0.36377 0.0
C1358 C 0.86571 0.92408 0.36978 0.0
H1359 H 0.97272 0.84932 0.36131 0.0
H1360 H 0.94893 0.89148 0.40289 0.0
H1361 H 0.99841 0.9271 0.40738 0.0
H1362 H 0.03861 0.86404 0.3858 0.0
H1363 H 0.05638 0.86837 0.36346 0.0
H1364 H 0.0194 0.84474 0.36509 0.0
H1365 H 0.01131 0.87061 0.33724 0.0
H1366 H 0.04816 0.89442 0.33562 0.0
H1367 H 0.02462 0.90758 0.33907 0.0
H1368 H 0.0495 0.96144 0.40378 0.0
H1369 H 0.09913 0.98956 0.39472 0.0
H1370 H 0.08978 0.92331 0.35709 0.0
C1371 C 0.97801 0.86569 0.37168 0.0
C1372 C 0.95709 0.86819 0.38137 0.0
C1373 C 0.96471 0.88979 0.39488 0.0
C1374 C 0.99273 0.90994 0.39764 0.0
C1375 C 0.01285 0.90767 0.38718 0.0
C1376 C 0.0059 0.88576 0.37476 0.0
C1377 C 0.03135 0.88881 0.36461 0.0
C1378 C 0.03675 0.86508 0.37007 0.0
C1379 C 0.02869 0.89046 0.34285 0.0
C1380 C 0.05351 0.91635 0.37272 0.0
C1381 C 0.04247 0.92688 0.38575 0.0
C1382 C 0.05852 0.95315 0.3939 0.0
C1383 C 0.08661 0.96905 0.38858 0.0
C1384 C 0.0983 0.95851 0.37534 0.0
C1385 C 0.08154 0.93168 0.36754 0.0
H1386 H 0.88247 0.96137 0.86932 0.0
H1387 H 0.79464 0.90182 0.87687 0.0
H1388 H 0.80568 0.86418 0.88083 0.0
H1389 H 0.89659 0.91946 0.84069 0.0
H1390 H 0.93091 0.93071 0.84998 0.0
H1391 H 0.91682 0.95368 0.85099 0.0
H1392 H 0.92461 0.95861 0.88752 0.0
H1393 H 0.93886 0.93567 0.88664 0.0
H1394 H 0.91 0.92782 0.90222 0.0
H1395 H 0.82536 0.83227 0.87987 0.0
H1396 H 0.85234 0.8085 0.87417 0.0
H1397 H 0.92716 0.88856 0.86644 0.0
C1398 C 0.86565 0.9406 0.87243 0.0
C1399 C 0.83771 0.93463 0.87299 0.0
C1400 C 0.81621 0.90694 0.87649 0.0
C1401 C 0.82229 0.88542 0.87881 0.0
C1402 C 0.84997 0.89187 0.87762 0.0
C1403 C 0.87134 0.91882 0.87459 0.0
C1404 C 0.89893 0.91976 0.87194 0.0
C1405 C 0.91154 0.93159 0.85223 0.0
C1406 C 0.9193 0.93646 0.88804 0.0
C1407 C 0.88962 0.88905 0.8734 0.0
C1408 C 0.86136 0.87337 0.87694 0.0
C1409 C 0.84759 0.84437 0.87749 0.0
C1410 C 0.86305 0.83105 0.87418 0.0
C1411 C 0.89196 0.84668 0.8704 0.0
C1412 C 0.90536 0.87607 0.87013 0.0
H1413 H 0.08459 0.90133 0.85941 0.0
H1414 H 0.01798 0.89414 0.89565 0.0
H1415 H 0.04693 0.94379 0.90462 0.0
H1416 H 0.14471 0.95392 0.88786 0.0
H1417 H 0.16372 0.9719 0.86673 0.0
H1418 H 0.14005 0.93485 0.86605 0.0
H1419 H 0.11383 0.94139 0.83775 0.0
H1420 H 0.13729 0.97836 0.83836 0.0
H1421 H 0.10029 0.96477 0.84028 0.0
H1422 H 0.08154 0.99474 0.9076 0.0
H1423 H 0.11657 0.04399 0.90185 0.0
H1424 H 0.15879 0.01864 0.86139 0.0
C1425 C 0.07649 0.90999 0.86975 0.0
C1426 C 0.04933 0.89386 0.8772 0.0
C1427 C 0.03889 0.90614 0.89 0.0
C1428 C 0.05524 0.93424 0.89522 0.0
C1429 C 0.08178 0.94975 0.88731 0.0
C1430 C 0.09225 0.9381 0.87472 0.0
C1431 C 0.11968 0.95999 0.86621 0.0
C1432 C 0.14345 0.95485 0.87207 0.0
C1433 C 0.11763 0.96119 0.84437 0.0
C1434 C 0.1227 0.98594 0.8756 0.0
C1435 C 0.10097 0.97947 0.88807 0.0
C1436 C 0.0986 1.00003 0.89786 0.0
C1437 C 0.11845 0.02793 0.89436 0.0
C1438 C 0.13989 0.03506 0.88079 0.0
C1439 C 0.14257 0.01375 0.87181 0.0
H1440 H 0.09024 0.16733 0.85404 0.0
H1441 H 0.09948 0.11669 0.89731 0.0
H1442 H 0.04938 0.09489 0.90495 0.0
H1443 H 0.03603 0.1765 0.87858 0.0
H1444 H 0.01781 0.17351 0.85663 0.0
H1445 H 0.05503 0.1879 0.85646 0.0
H1446 H 0.04966 0.15128 0.83131 0.0
H1447 H 0.01251 0.13676 0.83144 0.0
H1448 H 0.02715 0.11479 0.83633 0.0
H1449 H 0.99803 0.07637 0.9063 0.0
H1450 H 0.94844 0.06017 0.89989 0.0
H1451 H 0.97218 0.12117 0.85461 0.0
C1452 C 0.08181 0.15216 0.86545 0.0
C1453 C 0.09863 0.14371 0.87518 0.0
C1454 C 0.08683 0.12328 0.88966 0.0
C1455 C 0.05849 0.11099 0.89419 0.0
C1456 C 0.04229 0.11933 0.88405 0.0
C1457 C 0.05348 0.1394 0.86994 0.0
C1458 C 0.03106 0.1426 0.85988 0.0
C1459 C 0.03524 0.17187 0.86309 0.0
C1460 C 0.03004 0.13595 0.83848 0.0
C1461 C 0.00544 0.12069 0.8702 0.0
C1462 C 0.01244 0.10788 0.88432 0.0
C1463 C 0.99229 0.08624 0.89529 0.0
C1464 C 0.96422 0.07701 0.89143 0.0
C1465 C 0.95658 0.089 0.87647 0.0
C1466 C 0.97749 0.11164 0.86612 0.0
H1467 H 0.91632 0.83449 0.63829 0.0
H1468 H 0.9848 0.89281 0.60273 0.0
H1469 H 0.95783 0.91556 0.59381 0.0
H1470 H 0.85885 0.82931 0.60833 0.0
H1471 H 0.83866 0.82802 0.62885 0.0
H1472 H 0.86176 0.81401 0.63028 0.0
H1473 H 0.88657 0.84576 0.65932 0.0
H1474 H 0.86362 0.85985 0.65798 0.0
H1475 H 0.90079 0.88285 0.65717 0.0
H1476 H 0.92504 0.9341 0.59082 0.0
H1477 H 0.89039 0.94913 0.5957 0.0
H1478 H 0.84413 0.87972 0.63416 0.0
C1479 C 0.9254 0.85164 0.62827 0.0
C1480 C 0.95263 0.86189 0.62114 0.0
C1481 C 0.96405 0.88477 0.60844 0.0
C1482 C 0.94878 0.89764 0.60316 0.0
C1483 C 0.92216 0.88733 0.61073 0.0
C1484 C 0.91058 0.86487 0.62305 0.0
C1485 C 0.88282 0.85957 0.6307 0.0
C1486 C 0.85912 0.83103 0.62414 0.0
C1487 C 0.88352 0.86218 0.65258 0.0
C1488 C 0.88093 0.88306 0.6212 0.0
C1489 C 0.90357 0.8985 0.60945 0.0
C1490 C 0.90718 0.9221 0.59991 0.0
C1491 C 0.88754 0.93058 0.60287 0.0
C1492 C 0.86496 0.91582 0.61555 0.0
C1493 C 0.86116 0.89128 0.62432 0.0
H1494 H 0.07207 0.96652 0.63067 0.0
H1495 H 0.14375 0.96379 0.60889 0.0
H1496 H 0.16732 0.01445 0.60234 0.0
H1497 H 0.07645 0.02258 0.59862 0.0
H1498 H 0.06668 0.03796 0.61757 0.0
H1499 H 0.05356 0.00093 0.61733 0.0
H1500 H 0.07321 0.0039 0.65131 0.0
H1501 H 0.08629 0.0408 0.65166 0.0
H1502 H 0.10964 0.02757 0.65581 0.0
H1503 H 0.18462 0.06528 0.60124 0.0
H1504 H 0.19682 0.11344 0.60848 0.0
H1505 H 0.11443 0.08382 0.63222 0.0
C1506 C 0.09233 0.97649 0.62389 0.0
C1507 C 0.10593 0.96134 0.61973 0.0
C1508 C 0.13295 0.97513 0.61181 0.0
C1509 C 0.14634 0.00378 0.60796 0.0
C1510 C 0.13244 0.01824 0.61232 0.0
C1511 C 0.10609 0.00511 0.62023 0.0
C1512 C 0.09724 0.02594 0.6259 0.0
C1513 C 0.07198 0.02159 0.61415 0.0
C1514 C 0.09127 0.02446 0.64745 0.0
C1515 C 0.12313 0.05296 0.62056 0.0
C1516 C 0.14288 0.04794 0.61233 0.0
C1517 C 0.16923 0.06947 0.60744 0.0
C1518 C 0.17596 0.09679 0.61167 0.0
C1519 C 0.15657 0.10243 0.62092 0.0
C1520 C 0.1295 0.08023 0.62484 0.0
H1521 H 0.9204 0.04005 0.63036 0.0
H1522 H 0.89594 0.10314 0.63003 0.0
H1523 H 0.94537 0.13981 0.62854 0.0
H1524 H 0.97589 0.07452 0.66114 0.0
H1525 H 0.99833 0.06394 0.64985 0.0
H1526 H 0.96115 0.04248 0.64777 0.0
H1527 H 0.96526 0.04439 0.61096 0.0
H1528 H 0.00257 0.06581 0.61291 0.0
H1529 H 0.98308 0.07768 0.59912 0.0
H1530 H 0.99694 0.16957 0.63128 0.0
H1531 H 0.04732 0.19041 0.63752 0.0
H1532 H 0.03864 0.10826 0.63638 0.0
C1533 C 0.92538 0.06151 0.62933 0.0
C1534 C 0.90424 0.06867 0.6301 0.0
C1535 C 0.91174 0.09712 0.62936 0.0
C1536 C 0.93978 0.11811 0.62845 0.0
C1537 C 0.96013 0.11038 0.62827 0.0
C1538 C 0.95331 0.08276 0.62857 0.0
C1539 C 0.97921 0.08015 0.63008 0.0
C1540 C 0.97859 0.06435 0.6483 0.0
C1541 C 0.98273 0.06618 0.6122 0.0
C1542 C 0.00156 0.1106 0.63115 0.0
C1543 C 0.9901 0.12767 0.62986 0.0
C1544 C 0.00624 0.15646 0.63191 0.0
C1545 C 0.03479 0.1681 0.63552 0.0
C1546 C 0.04699 0.15104 0.63696 0.0
C1547 C 0.03012 0.12193 0.6346 0.0
H1548 H 0.73613 0.43974 0.46231 0.0
H1549 H 0.80499 0.51757 0.44192 0.0
H1550 H 0.83287 0.49456 0.43695 0.0
H1551 H 0.77528 0.42083 0.48914 0.0
H1552 H 0.75515 0.38395 0.48452 0.0
H1553 H 0.73888 0.40494 0.48308 0.0
H1554 H 0.72313 0.388 0.44847 0.0
H1555 H 0.73929 0.36678 0.44985 0.0
H1556 H 0.74861 0.39193 0.43093 0.0
H1557 H 0.8551 0.46499 0.43821 0.0
H1558 H 0.87051 0.43155 0.44642 0.0
H1559 H 0.78713 0.37294 0.46624 0.0
C1560 C 0.7566 0.45159 0.45598 0.0
C1561 C 0.76819 0.48022 0.45195 0.0
C1562 C 0.79564 0.49549 0.44476 0.0
C1563 C 0.81156 0.48257 0.44183 0.0
C1564 C 0.7997 0.45438 0.44623 0.0
C1565 C 0.77279 0.43902 0.4531 0.0
C1566 C 0.76611 0.41 0.45887 0.0
C1567 C 0.75842 0.40464 0.48016 0.0
C1568 C 0.74291 0.38787 0.44627 0.0
C1569 C 0.79379 0.41178 0.45485 0.0
C1570 C 0.81273 0.43737 0.44727 0.0
C1571 C 0.84031 0.44469 0.44382 0.0
C1572 C 0.8489 0.42557 0.44859 0.0
C1573 C 0.83 0.3995 0.45684 0.0
C1574 C 0.80196 0.39241 0.45958 0.0
H1575 H 0.6315 0.41021 0.467 0.0
H1576 H 0.57647 0.44016 0.44852 0.0
H1577 H 0.53795 0.39186 0.44547 0.0
H1578 H 0.59976 0.34499 0.43724 0.0
H1579 H 0.60391 0.3252 0.45604 0.0
H1580 H 0.62843 0.3619 0.45371 0.0
H1581 H 0.61889 0.36946 0.48873 0.0
H1582 H 0.59413 0.33293 0.4911 0.0
H1583 H 0.5837 0.35828 0.49611 0.0
H1584 H 0.50371 0.34142 0.44947 0.0
H1585 H 0.47695 0.29122 0.45776 0.0
H1586 H 0.5537 0.29332 0.47286 0.0
C1587 C 0.61163 0.4065 0.46161 0.0
C1588 C 0.60701 0.4289 0.45786 0.0
C1589 C 0.58047 0.42329 0.45142 0.0
C1590 C 0.55844 0.39591 0.44962 0.0
C1591 C 0.56326 0.37428 0.45422 0.0
C1592 C 0.58926 0.37916 0.45984 0.0
C1593 C 0.5881 0.35226 0.46564 0.0
C1594 C 0.60612 0.3457 0.45236 0.0
C1595 C 0.59671 0.35331 0.48664 0.0
C1596 C 0.55736 0.33175 0.46283 0.0
C1597 C 0.5434 0.34487 0.45621 0.0
C1598 C 0.51447 0.33073 0.4542 0.0
C1599 C 0.49943 0.30238 0.459 0.0
C1600 C 0.51343 0.28858 0.4655 0.0
C1601 C 0.5427 0.30339 0.46735 0.0
H1602 H 0.6991 0.21507 0.46924 0.0
H1603 H 0.72475 0.30153 0.45814 0.0
H1604 H 0.67671 0.2881 0.44947 0.0
H1605 H 0.64327 0.18418 0.43151 0.0
H1606 H 0.62084 0.15537 0.4467 0.0
H1607 H 0.65812 0.17109 0.44866 0.0
H1608 H 0.65511 0.1796 0.48471 0.0
H1609 H 0.61796 0.16405 0.48285 0.0
H1610 H 0.63846 0.19885 0.49217 0.0
H1611 H 0.62514 0.26666 0.44733 0.0
H1612 H 0.57418 0.23837 0.45095 0.0
H1613 H 0.58161 0.16559 0.4627 0.0
C1614 C 0.69469 0.231 0.46436 0.0
C1615 C 0.71586 0.2592 0.46374 0.0
C1616 C 0.70923 0.27965 0.4579 0.0
C1617 C 0.68186 0.27224 0.4531 0.0
C1618 C 0.66136 0.24428 0.45411 0.0
C1619 C 0.66748 0.2239 0.4594 0.0
C1620 C 0.64127 0.19578 0.46113 0.0
C1621 C 0.64086 0.1754 0.4461 0.0
C1622 C 0.63802 0.1839 0.48142 0.0
C1623 C 0.61943 0.2038 0.45688 0.0
C1624 C 0.63144 0.2318 0.45266 0.0
C1625 C 0.61547 0.24456 0.45015 0.0
C1626 C 0.5865 0.22836 0.4523 0.0
C1627 C 0.5738 0.19972 0.45689 0.0
C1628 C 0.59056 0.18727 0.45874 0.0
H1629 H 0.82638 0.47343 0.70046 0.0
H1630 H 0.78223 0.40578 0.74058 0.0
H1631 H 0.74681 0.41987 0.74496 0.0
H1632 H 0.81057 0.52403 0.72538 0.0
H1633 H 0.80717 0.53815 0.70305 0.0
H1634 H 0.83086 0.5249 0.70503 0.0
H1635 H 0.80641 0.49187 0.67649 0.0
H1636 H 0.78256 0.5048 0.67452 0.0
H1637 H 0.76941 0.46801 0.67748 0.0
H1638 H 0.71241 0.43633 0.74073 0.0
H1639 H 0.68401 0.45714 0.73059 0.0
H1640 H 0.75205 0.51598 0.69507 0.0
C1641 C 0.80968 0.4621 0.71057 0.0
C1642 C 0.8066 0.43814 0.71984 0.0
C1643 C 0.78448 0.42376 0.73293 0.0
C1644 C 0.76442 0.43174 0.73564 0.0
C1645 C 0.76723 0.45464 0.72555 0.0
C1646 C 0.78964 0.47 0.71358 0.0
C1647 C 0.78689 0.49267 0.70353 0.0
C1648 C 0.81026 0.52166 0.70962 0.0
C1649 C 0.78627 0.4891 0.68172 0.0
C1650 C 0.75894 0.4869 0.7111 0.0
C1651 C 0.74794 0.46494 0.72383 0.0
C1652 C 0.72108 0.45399 0.73115 0.0
C1653 C 0.70501 0.46573 0.72522 0.0
C1654 C 0.71601 0.48827 0.71226 0.0
C1655 C 0.74346 0.49922 0.70541 0.0
H1656 H 0.53228 0.35875 0.68892 0.0
H1657 H 0.61084 0.38708 0.71831 0.0
H1658 H 0.59668 0.33921 0.72681 0.0
H1659 H 0.48829 0.29694 0.72021 0.0
H1660 H 0.46905 0.27584 0.70009 0.0
H1661 H 0.48254 0.31292 0.69964 0.0
H1662 H 0.50839 0.31644 0.66809 0.0
H1663 H 0.49514 0.2795 0.66849 0.0
H1664 H 0.53214 0.30317 0.66716 0.0
H1665 H 0.57788 0.28837 0.72815 0.0
H1666 H 0.55553 0.23804 0.72187 0.0
H1667 H 0.4896 0.24115 0.69068 0.0
C1668 C 0.54612 0.35497 0.6977 0.0
C1669 C 0.57224 0.37723 0.70363 0.0
C1670 C 0.59012 0.37112 0.71447 0.0
C1671 C 0.58237 0.34366 0.71921 0.0
C1672 C 0.55676 0.3223 0.71289 0.0
C1673 C 0.53881 0.32755 0.7024 0.0
C1674 C 0.51402 0.30063 0.69542 0.0
C1675 C 0.48686 0.29633 0.70438 0.0
C1676 C 0.51235 0.2999 0.6735 0.0
C1677 C 0.52149 0.27958 0.703 0.0
C1678 C 0.54602 0.29255 0.71328 0.0
C1679 C 0.5584 0.2779 0.72041 0.0
C1680 C 0.54564 0.2493 0.71668 0.0
C1681 C 0.52079 0.23559 0.70587 0.0
C1682 C 0.5083 0.25092 0.69931 0.0
H1683 H 0.64608 0.17435 0.69811 0.0
H1684 H 0.61797 0.22035 0.73302 0.0
H1685 H 0.66584 0.25376 0.74099 0.0
H1686 H 0.7103 0.19125 0.72671 0.0
H1687 H 0.72995 0.19515 0.70532 0.0
H1688 H 0.69307 0.17068 0.70592 0.0
H1689 H 0.68624 0.19446 0.67624 0.0
H1690 H 0.72292 0.21906 0.67565 0.0
H1691 H 0.69834 0.23128 0.6769 0.0
H1692 H 0.71678 0.28711 0.74095 0.0
H1693 H 0.76633 0.31696 0.73262 0.0
H1694 H 0.76209 0.25129 0.69668 0.0
C1695 C 0.64975 0.19089 0.70794 0.0
C1696 C 0.62743 0.19388 0.71501 0.0
C1697 C 0.63372 0.2164 0.72754 0.0
C1698 C 0.66131 0.23593 0.73221 0.0
C1699 C 0.68264 0.2329 0.7243 0.0
C1700 C 0.6772 0.21081 0.71252 0.0
C1701 C 0.70378 0.21431 0.7038 0.0
C1702 C 0.70962 0.19149 0.71087 0.0
C1703 C 0.70274 0.21482 0.68186 0.0
C1704 C 0.72479 0.2425 0.71179 0.0
C1705 C 0.71225 0.2526 0.7239 0.0
C1706 C 0.72692 0.27923 0.73173 0.0
C1707 C 0.755 0.29617 0.72676 0.0
C1708 C 0.76803 0.28657 0.7139 0.0
C1709 C 0.75284 0.25909 0.70676 0.0
H1710 H 0.48466 0.24202 0.20378 0.0
H1711 H 0.55197 0.31366 0.2319 0.0
H1712 H 0.57661 0.28748 0.23685 0.0
H1713 H 0.48916 0.18684 0.23251 0.0
H1714 H 0.48194 0.16503 0.2118 0.0
H1715 H 0.46713 0.1874 0.21382 0.0
H1716 H 0.48878 0.20979 0.18125 0.0
H1717 H 0.50375 0.1877 0.17916 0.0
H1718 H 0.52579 0.22497 0.17776 0.0
H1719 H 0.59711 0.25695 0.23398 0.0
H1720 H 0.61253 0.22491 0.22337 0.0
H1721 H 0.53173 0.17166 0.1976 0.0
C1722 C 0.50412 0.25184 0.21158 0.0
C1723 C 0.51646 0.2799 0.2175 0.0
C1724 C 0.54232 0.29234 0.22711 0.0
C1725 C 0.5563 0.27749 0.23016 0.0
C1726 C 0.54406 0.25016 0.22354 0.0
C1727 C 0.51846 0.23736 0.21454 0.0
C1728 C 0.51151 0.20913 0.20669 0.0
C1729 C 0.48591 0.18571 0.21682 0.0
C1730 C 0.50722 0.20785 0.18493 0.0
C1731 C 0.53775 0.20862 0.21195 0.0
C1732 C 0.55597 0.23224 0.222 0.0
C1733 C 0.58266 0.23788 0.22673 0.0
C1734 C 0.59116 0.21918 0.2208 0.0
C1735 C 0.573 0.19493 0.21029 0.0
C1736 C 0.54582 0.18955 0.20608 0.0
H1737 H 0.83123 0.35444 0.19527 0.0
H1738 H 0.7797 0.38459 0.22027 0.0
H1739 H 0.74595 0.33741 0.23043 0.0
H1740 H 0.77789 0.2975 0.17462 0.0
H1741 H 0.79117 0.27407 0.1782 0.0
H1742 H 0.81484 0.31093 0.17691 0.0
H1743 H 0.83522 0.3097 0.20992 0.0
H1744 H 0.8116 0.27266 0.21125 0.0
H1745 H 0.81226 0.29508 0.2301 0.0
H1746 H 0.71336 0.28666 0.23223 0.0
H1747 H 0.68526 0.23624 0.226 0.0
H1748 H 0.75684 0.23774 0.1999 0.0
C1749 C 0.81338 0.35122 0.20357 0.0
C1750 C 0.80894 0.37367 0.20764 0.0
C1751 C 0.78471 0.36839 0.21784 0.0
C1752 C 0.76505 0.34137 0.22352 0.0
C1753 C 0.76975 0.31967 0.2189 0.0
C1754 C 0.79345 0.32427 0.20928 0.0
C1755 C 0.79174 0.29699 0.20387 0.0
C1756 C 0.79403 0.29476 0.18212 0.0
C1757 C 0.81403 0.2934 0.21442 0.0
C1758 C 0.76281 0.27646 0.21105 0.0
C1759 C 0.75065 0.28996 0.21994 0.0
C1760 C 0.72289 0.27575 0.22576 0.0
C1761 C 0.707 0.24712 0.22207 0.0
C1762 C 0.71889 0.23298 0.21269 0.0
C1763 C 0.74738 0.2478 0.20761 0.0
H1764 H 0.75744 0.50495 0.1992 0.0
H1765 H 0.75994 0.43024 0.21402 0.0
H1766 H 0.70935 0.40569 0.22005 0.0
H1767 H 0.70088 0.4951 0.23242 0.0
H1768 H 0.68581 0.50774 0.21511 0.0
H1769 H 0.72283 0.52086 0.21515 0.0
H1770 H 0.72043 0.50677 0.1797 0.0
H1771 H 0.68349 0.49352 0.17953 0.0
H1772 H 0.69702 0.47122 0.17273 0.0
H1773 H 0.65837 0.3878 0.22075 0.0
H1774 H 0.61043 0.37695 0.21483 0.0
H1775 H 0.64007 0.46281 0.19883 0.0
C1776 C 0.74753 0.48367 0.20427 0.0
C1777 C 0.76279 0.46965 0.20647 0.0
C1778 C 0.74882 0.44152 0.21249 0.0
C1779 C 0.72007 0.42743 0.21599 0.0
C1780 C 0.70557 0.4417 0.21329 0.0
C1781 C 0.7188 0.46919 0.20752 0.0
C1782 C 0.69803 0.47877 0.20352 0.0
C1783 C 0.70214 0.50199 0.21738 0.0
C1784 C 0.69986 0.4881 0.18263 0.0
C1785 C 0.67096 0.45212 0.20742 0.0
C1786 C 0.67586 0.43119 0.2134 0.0
C1787 C 0.65424 0.4042 0.21662 0.0
C1788 C 0.62691 0.39832 0.21345 0.0
C1789 C 0.62131 0.41932 0.20716 0.0
C1790 C 0.6437 0.44657 0.20416 0.0
H1791 H 0.56074 0.26187 0.96804 0.0
H1792 H 0.4821 0.18951 0.95258 0.0
H1793 H 0.50642 0.16335 0.94588 0.0
H1794 H 0.60531 0.25023 0.9329 0.0
H1795 H 0.63352 0.26196 0.94975 0.0
H1796 H 0.61071 0.27637 0.95032 0.0
H1797 H 0.59994 0.26253 0.98589 0.0
H1798 H 0.62251 0.24798 0.98541 0.0
H1799 H 0.58676 0.22676 0.99277 0.0
H1800 H 0.53768 0.14329 0.94523 0.0
H1801 H 0.57384 0.13055 0.95067 0.0
H1802 H 0.6328 0.21614 0.96579 0.0
C1803 C 0.54883 0.24095 0.96242 0.0
C1804 C 0.51961 0.2279 0.96032 0.0
C1805 C 0.50454 0.19995 0.95401 0.0
C1806 C 0.51819 0.185 0.95009 0.0
C1807 C 0.54695 0.1983 0.95257 0.0
C1808 C 0.56217 0.22571 0.95847 0.0
C1809 C 0.5924 0.23417 0.96192 0.0
C1810 C 0.61162 0.25704 0.94788 0.0
C1811 C 0.60087 0.24339 0.98273 0.0
C1812 C 0.59153 0.20693 0.95773 0.0
C1813 C 0.56518 0.18662 0.95214 0.0
C1814 C 0.55853 0.15913 0.9492 0.0
C1815 C 0.57918 0.15207 0.95239 0.0
C1816 C 0.60619 0.17241 0.95844 0.0
C1817 C 0.61255 0.20031 0.96069 0.0
H1818 H 0.72996 0.29098 0.9608 0.0
H1819 H 0.80121 0.28558 0.94114 0.0
H1820 H 0.82699 0.33637 0.93559 0.0
H1821 H 0.73963 0.34919 0.92806 0.0
H1822 H 0.72898 0.36468 0.94641 0.0
H1823 H 0.7145 0.32744 0.94572 0.0
H1824 H 0.73036 0.32845 0.98059 0.0
H1825 H 0.74505 0.36559 0.98134 0.0
H1826 H 0.76653 0.35055 0.98672 0.0
H1827 H 0.84715 0.38754 0.93674 0.0
H1828 H 0.86043 0.43607 0.94418 0.0
H1829 H 0.77587 0.40887 0.96233 0.0
C1830 C 0.75049 0.3003 0.95448 0.0
C1831 C 0.76338 0.2843 0.95087 0.0
C1832 C 0.79088 0.29748 0.94369 0.0
C1833 C 0.80562 0.32626 0.94044 0.0
C1834 C 0.79252 0.34155 0.94444 0.0
C1835 C 0.76549 0.32905 0.95118 0.0
C1836 C 0.75735 0.35062 0.95628 0.0
C1837 C 0.73371 0.34781 0.94334 0.0
C1838 C 0.74937 0.34868 0.97749 0.0
C1839 C 0.78438 0.3772 0.95206 0.0
C1840 C 0.80426 0.37144 0.94504 0.0
C1841 C 0.83162 0.39236 0.94182 0.0
C1842 C 0.839 0.41985 0.94618 0.0
C1843 C 0.81911 0.42621 0.95363 0.0
C1844 C 0.7913 0.40465 0.95619 0.0
H1845 H 0.70067 0.43397 0.95501 0.0
H1846 H 0.70648 0.51315 0.96904 0.0
H1847 H 0.65558 0.49006 0.9702 0.0
H1848 H 0.63629 0.40393 0.92783 0.0
H1849 H 0.62298 0.36955 0.93768 0.0
H1850 H 0.66002 0.3925 0.93541 0.0
H1851 H 0.66636 0.38716 0.97146 0.0
H1852 H 0.6294 0.36406 0.9738 0.0
H1853 H 0.64675 0.39471 0.98856 0.0
H1854 H 0.60507 0.45919 0.97171 0.0
H1855 H 0.55706 0.42148 0.97581 0.0
H1856 H 0.5827 0.36053 0.96411 0.0
C1857 C 0.69156 0.44653 0.95878 0.0
C1858 C 0.70809 0.47548 0.96248 0.0
C1859 C 0.69461 0.49099 0.96625 0.0
C1860 C 0.66559 0.47808 0.96692 0.0
C1861 C 0.65011 0.44951 0.96389 0.0
C1862 C 0.66249 0.43379 0.96004 0.0
C1863 C 0.64083 0.40302 0.95885 0.0
C1864 C 0.63999 0.39159 0.93874 0.0
C1865 C 0.64616 0.38626 0.97408 0.0
C1866 C 0.61447 0.40401 0.96305 0.0
C1867 C 0.62047 0.43118 0.96549 0.0
C1868 C 0.60004 0.4378 0.96982 0.0
C1869 C 0.57275 0.41608 0.97215 0.0
C1870 C 0.56596 0.38786 0.97042 0.0
C1871 C 0.58714 0.38181 0.96549 0.0
H1872 H 0.46796 0.8265 0.81351 0.0
H1873 H 0.38617 0.77638 0.78826 0.0
H1874 H 0.39734 0.74013 0.78042 0.0
H1875 H 0.50641 0.80394 0.78082 0.0
H1876 H 0.52769 0.80306 0.79993 0.0
H1877 H 0.51526 0.82751 0.8007 0.0
H1878 H 0.49309 0.8083 0.83376 0.0
H1879 H 0.50527 0.78374 0.83304 0.0
H1880 H 0.46874 0.7716 0.83642 0.0
H1881 H 0.41433 0.70642 0.77914 0.0
H1882 H 0.43678 0.67812 0.78401 0.0
H1883 H 0.50756 0.74903 0.81039 0.0
C1884 C 0.45279 0.80827 0.80578 0.0
C1885 C 0.42666 0.80507 0.80073 0.0
C1886 C 0.40692 0.78038 0.7913 0.0
C1887 C 0.41294 0.75931 0.78699 0.0
C1888 C 0.43874 0.76301 0.7923 0.0
C1889 C 0.45846 0.78692 0.8014 0.0
C1890 C 0.48353 0.78448 0.80713 0.0
C1891 C 0.50978 0.80603 0.7965 0.0
C1892 C 0.48789 0.78718 0.82887 0.0
C1893 C 0.47434 0.75516 0.80038 0.0
C1894 C 0.44853 0.74326 0.79172 0.0
C1895 C 0.43477 0.71565 0.78559 0.0
C1896 C 0.44763 0.6997 0.78849 0.0
C1897 C 0.47401 0.71139 0.79744 0.0
C1898 C 0.48763 0.73963 0.80319 0.0
H1899 H 0.25004 0.75362 0.79347 0.0
H1900 H 0.33171 0.76106 0.79647 0.0
H1901 H 0.31027 0.71043 0.7923 0.0
H1902 H 0.21665 0.69444 0.82134 0.0
H1903 H 0.18421 0.67838 0.8084 0.0
H1904 H 0.20605 0.71564 0.80832 0.0
H1905 H 0.20712 0.71559 0.7714 0.0
H1906 H 0.18516 0.67824 0.77134 0.0
H1907 H 0.21818 0.69421 0.75913 0.0
H1908 H 0.28021 0.65914 0.79223 0.0
H1909 H 0.24369 0.61066 0.79676 0.0
H1910 H 0.18071 0.63515 0.79351 0.0
C1911 C 0.26349 0.74471 0.79272 0.0
C1912 C 0.29266 0.76149 0.79498 0.0
C1913 C 0.30941 0.74883 0.79447 0.0
C1914 C 0.29741 0.72002 0.79209 0.0
C1915 C 0.26859 0.70404 0.79028 0.0
C1916 C 0.25181 0.71588 0.79054 0.0
C1917 C 0.22125 0.6937 0.79029 0.0
C1918 C 0.20617 0.69566 0.80815 0.0
C1919 C 0.2071 0.69555 0.77194 0.0
C1920 C 0.22353 0.66757 0.79052 0.0
C1921 C 0.25104 0.67407 0.79019 0.0
C1922 C 0.25856 0.65369 0.79188 0.0
C1923 C 0.23746 0.62596 0.79419 0.0
C1924 C 0.20906 0.61869 0.79467 0.0
C1925 C 0.20215 0.6399 0.79266 0.0
H1926 H 0.24569 0.5356 0.7961 0.0
H1927 H 0.22045 0.45316 0.81823 0.0
H1928 H 0.26873 0.46297 0.81573 0.0
H1929 H 0.29886 0.53851 0.76248 0.0
H1930 H 0.32196 0.57512 0.76668 0.0
H1931 H 0.28482 0.56068 0.76845 0.0
H1932 H 0.2909 0.58037 0.80269 0.0
H1933 H 0.32797 0.59457 0.80116 0.0
H1934 H 0.30861 0.57117 0.82031 0.0
H1935 H 0.32006 0.48331 0.81455 0.0
H1936 H 0.3711 0.51218 0.81309 0.0
H1937 H 0.36308 0.58014 0.7892 0.0
C1938 C 0.25019 0.51946 0.80013 0.0
C1939 C 0.2292 0.49368 0.80743 0.0
C1940 C 0.23607 0.4731 0.81256 0.0
C1941 C 0.26348 0.47843 0.81119 0.0
C1942 C 0.28375 0.50428 0.8044 0.0
C1943 C 0.27744 0.52433 0.79866 0.0
C1944 C 0.30342 0.55079 0.79258 0.0
C1945 C 0.30219 0.55661 0.77128 0.0
C1946 C 0.30798 0.57568 0.80493 0.0
C1947 C 0.32536 0.54277 0.7965 0.0
C1948 C 0.31351 0.51582 0.80323 0.0
C1949 C 0.32959 0.50432 0.80903 0.0
C1950 C 0.35861 0.52094 0.80814 0.0
C1951 C 0.37132 0.5488 0.80152 0.0
C1952 C 0.35429 0.55942 0.79507 0.0
H1953 H 0.41088 0.8356 0.02784 0.0
H1954 H 0.33187 0.7607 0.03904 0.0
H1955 H 0.35627 0.73433 0.04352 0.0
H1956 H 0.4384 0.80286 0.99988 0.0
H1957 H 0.47372 0.82379 0.00817 0.0
H1958 H 0.45064 0.8378 0.00835 0.0
H1959 H 0.45978 0.84833 0.04445 0.0
H1960 H 0.48293 0.83433 0.0444 0.0
H1961 H 0.45389 0.82068 0.06067 0.0
H1962 H 0.3882 0.71506 0.04388 0.0
H1963 H 0.42517 0.7037 0.03884 0.0
H1964 H 0.484 0.79061 0.02708 0.0
C1965 C 0.39875 0.81378 0.03161 0.0
C1966 C 0.36943 0.80038 0.03341 0.0
C1967 C 0.35432 0.77162 0.0379 0.0
C1968 C 0.36802 0.75641 0.04048 0.0
C1969 C 0.39685 0.77018 0.03843 0.0
C1970 C 0.41207 0.79818 0.03403 0.0
C1971 C 0.44253 0.80736 0.03098 0.0
C1972 C 0.45186 0.8186 0.01064 0.0
C1973 C 0.46086 0.82895 0.04603 0.0
C1974 C 0.4419 0.77997 0.03391 0.0
C1975 C 0.4154 0.75892 0.03849 0.0
C1976 C 0.40919 0.73148 0.04078 0.0
C1977 C 0.43053 0.72528 0.03812 0.0
C1978 C 0.45784 0.74643 0.03328 0.0
C1979 C 0.4635 0.77414 0.03123 0.0
H1980 H 0.15005 0.57252 0.04463 0.0
H1981 H 0.22493 0.57307 0.06311 0.0
H1982 H 0.24753 0.6236 0.06905 0.0
H1983 H 0.18256 0.63146 0.01835 0.0
H1984 H 0.15938 0.64448 0.0238 0.0
H1985 H 0.14693 0.60775 0.02499 0.0
H1986 H 0.13159 0.60663 0.06001 0.0
H1987 H 0.14387 0.64347 0.05892 0.0
H1988 H 0.15649 0.62983 0.07728 0.0
H1989 H 0.26452 0.67409 0.06726 0.0
H1990 H 0.27515 0.72069 0.05792 0.0
H1991 H 0.18901 0.68866 0.04139 0.0
C1992 C 0.17083 0.58308 0.05062 0.0
C1993 C 0.18574 0.56886 0.05351 0.0
C1994 C 0.21319 0.58356 0.06076 0.0
C1995 C 0.22609 0.61224 0.06432 0.0
C1996 C 0.21118 0.62585 0.06064 0.0
C1997 C 0.18406 0.61174 0.05408 0.0
C1998 C 0.17393 0.63172 0.04888 0.0
C1999 C 0.16521 0.62867 0.02776 0.0
C2000 C 0.15005 0.62767 0.06207 0.0
C2001 C 0.20005 0.65933 0.05265 0.0
C2002 C 0.22106 0.65542 0.05981 0.0
C2003 C 0.24797 0.67753 0.06239 0.0
C2004 C 0.25374 0.70428 0.05723 0.0
C2005 C 0.23266 0.70891 0.04968 0.0
C2006 C 0.20538 0.68602 0.04767 0.0
H2007 H 0.41849 0.63281 0.03528 0.0
H2008 H 0.4437 0.57306 0.05153 0.0
H2009 H 0.39455 0.5372 0.05576 0.0
H2010 H 0.35662 0.60539 0.06805 0.0
H2011 H 0.33662 0.61194 0.05069 0.0
H2012 H 0.37392 0.63408 0.05164 0.0
H2013 H 0.37719 0.62421 0.01593 0.0
H2014 H 0.34004 0.60186 0.01487 0.0
H2015 H 0.36262 0.58871 0.00794 0.0
H2016 H 0.34326 0.50604 0.05289 0.0
H2017 H 0.29277 0.48272 0.04589 0.0
H2018 H 0.30037 0.56271 0.03327 0.0
C2019 C 0.41377 0.61249 0.04037 0.0
C2020 C 0.43507 0.60587 0.04312 0.0
C2021 C 0.42785 0.57874 0.04933 0.0
C2022 C 0.39994 0.55818 0.05182 0.0
C2023 C 0.37945 0.56511 0.04834 0.0
C2024 C 0.38598 0.59173 0.04307 0.0
C2025 C 0.35992 0.59316 0.03885 0.0
C2026 C 0.35658 0.61228 0.05316 0.0
C2027 C 0.35996 0.60253 0.01817 0.0
C2028 C 0.33784 0.56297 0.04182 0.0
C2029 C 0.34955 0.54716 0.04737 0.0
C2030 C 0.33372 0.51827 0.04908 0.0
C2031 C 0.30517 0.5052 0.04501 0.0
C2032 C 0.2928 0.52107 0.03955 0.0
C2033 C 0.30928 0.55029 0.03809 0.0
H2034 H 0.17202 0.60049 0.52493 0.0
H2035 H 0.23153 0.67001 0.55929 0.0
H2036 H 0.25359 0.6426 0.569 0.0
H2037 H 0.16565 0.5439 0.5556 0.0
H2038 H 0.16403 0.52286 0.53551 0.0
H2039 H 0.15085 0.54658 0.53336 0.0
H2040 H 0.18314 0.57004 0.5043 0.0
H2041 H 0.19637 0.54645 0.50634 0.0
H2042 H 0.22006 0.5835 0.50672 0.0
H2043 H 0.27008 0.60806 0.57385 0.0
H2044 H 0.28293 0.57151 0.57075 0.0
H2045 H 0.21466 0.52666 0.53114 0.0
C2046 C 0.18934 0.60978 0.53482 0.0
C2047 C 0.1999 0.63722 0.54156 0.0
C2048 C 0.22306 0.64893 0.55405 0.0
C2049 C 0.23558 0.63348 0.55972 0.0
C2050 C 0.22477 0.60651 0.55265 0.0
C2051 C 0.2023 0.59488 0.54034 0.0
C2052 C 0.19636 0.5667 0.5332 0.0
C2053 C 0.16751 0.54365 0.53982 0.0
C2054 C 0.19917 0.5667 0.51135 0.0
C2055 C 0.21937 0.56448 0.5431 0.0
C2056 C 0.23518 0.58735 0.55457 0.0
C2057 C 0.25798 0.59018 0.5648 0.0
C2058 C 0.26529 0.5695 0.56278 0.0
C2059 C 0.25036 0.54681 0.55019 0.0
C2060 C 0.22659 0.54389 0.54076 0.0
H2061 H 0.37435 0.58943 0.54724 0.0
H2062 H 0.43377 0.56199 0.53554 0.0
H2063 H 0.47193 0.61069 0.53645 0.0
H2064 H 0.40448 0.64778 0.51812 0.0
H2065 H 0.39815 0.66996 0.53362 0.0
H2066 H 0.37556 0.63279 0.53452 0.0
H2067 H 0.38503 0.6328 0.57066 0.0
H2068 H 0.40737 0.67008 0.56997 0.0
H2069 H 0.42042 0.6484 0.57909 0.0
H2070 H 0.50284 0.66209 0.53501 0.0
H2071 H 0.52505 0.71295 0.53269 0.0
H2072 H 0.44622 0.7077 0.54677 0.0
C2073 C 0.3954 0.59352 0.54532 0.0
C2074 C 0.40092 0.57171 0.54133 0.0
C2075 C 0.42888 0.5782 0.53866 0.0
C2076 C 0.45076 0.60585 0.53915 0.0
C2077 C 0.44446 0.62684 0.54249 0.0
C2078 C 0.41753 0.62105 0.54578 0.0
C2079 C 0.41632 0.64766 0.54796 0.0
C2080 C 0.39751 0.64965 0.53264 0.0
C2081 C 0.40672 0.64986 0.56813 0.0
C2082 C 0.44666 0.66929 0.54479 0.0
C2083 C 0.46248 0.65675 0.54178 0.0
C2084 C 0.49073 0.67217 0.53758 0.0
C2085 C 0.50315 0.70116 0.53629 0.0
C2086 C 0.48743 0.71468 0.53912 0.0
C2087 C 0.45885 0.69835 0.54384 0.0
H2088 H 0.30641 0.75483 0.54256 0.0
H2089 H 0.30681 0.83131 0.52831 0.0
H2090 H 0.358 0.85664 0.52888 0.0
H2091 H 0.36906 0.78493 0.57185 0.0
H2092 H 0.38079 0.76232 0.56241 0.0
H2093 H 0.34406 0.75052 0.56363 0.0
H2094 H 0.33923 0.73982 0.52742 0.0
H2095 H 0.37582 0.75131 0.52615 0.0
H2096 H 0.36118 0.76688 0.51089 0.0
H2097 H 0.40849 0.87322 0.52862 0.0
H2098 H 0.45535 0.87978 0.52498 0.0
H2099 H 0.42307 0.79186 0.53639 0.0
C2100 C 0.317 0.77672 0.53914 0.0
C2101 C 0.3022 0.79077 0.53483 0.0
C2102 C 0.31743 0.81989 0.53154 0.0
C2103 C 0.3466 0.83454 0.53186 0.0
C2104 C 0.3604 0.81985 0.53548 0.0
C2105 C 0.34619 0.79157 0.53892 0.0
C2106 C 0.36616 0.78042 0.54074 0.0
C2107 C 0.36494 0.76887 0.56086 0.0
C2108 C 0.36025 0.75831 0.52538 0.0
C2109 C 0.39378 0.8068 0.53729 0.0
C2110 C 0.38987 0.82934 0.53473 0.0
C2111 C 0.41185 0.85578 0.53067 0.0
C2112 C 0.43847 0.85924 0.5286 0.0
C2113 C 0.44303 0.83633 0.53033 0.0
C2114 C 0.42039 0.80985 0.53518 0.0
H2115 H 0.24621 0.49021 0.31033 0.0
H2116 H 0.31723 0.55455 0.27969 0.0
H2117 H 0.29095 0.57831 0.2726 0.0
H2118 H 0.19078 0.4914 0.27968 0.0
H2119 H 0.16892 0.48637 0.30004 0.0
H2120 H 0.19139 0.47156 0.29985 0.0
H2121 H 0.21368 0.49681 0.33157 0.0
H2122 H 0.1915 0.51183 0.33181 0.0
H2123 H 0.22875 0.53408 0.33301 0.0
H2124 H 0.26093 0.59926 0.27363 0.0
H2125 H 0.22864 0.61545 0.28165 0.0
H2126 H 0.17481 0.5371 0.31033 0.0
C2127 C 0.25586 0.50877 0.30157 0.0
C2128 C 0.28381 0.52042 0.29545 0.0
C2129 C 0.29594 0.54519 0.2845 0.0
C2130 C 0.28108 0.5588 0.28032 0.0
C2131 C 0.25396 0.54736 0.2871 0.0
C2132 C 0.24129 0.52277 0.29735 0.0
C2133 C 0.21299 0.51659 0.30463 0.0
C2134 C 0.18964 0.48989 0.2955 0.0
C2135 C 0.21168 0.51473 0.32655 0.0
C2136 C 0.21236 0.54214 0.29756 0.0
C2137 C 0.23606 0.55937 0.28726 0.0
C2138 C 0.24172 0.58549 0.281 0.0
C2139 C 0.22281 0.59441 0.28545 0.0
C2140 C 0.19817 0.57715 0.29588 0.0
C2141 C 0.19295 0.55053 0.30184 0.0
H2142 H 0.51621 0.75736 0.28787 0.0
H2143 H 0.44494 0.75964 0.26471 0.0
H2144 H 0.42206 0.70929 0.25797 0.0
H2145 H 0.51098 0.69833 0.25648 0.0
H2146 H 0.52077 0.68439 0.27633 0.0
H2147 H 0.53472 0.72145 0.2743 0.0
H2148 H 0.51653 0.72225 0.30817 0.0
H2149 H 0.50238 0.68537 0.31027 0.0
H2150 H 0.48005 0.70003 0.31342 0.0
H2151 H 0.40308 0.65867 0.2605 0.0
H2152 H 0.38883 0.6122 0.2726 0.0
H2153 H 0.47232 0.64143 0.294 0.0
C2154 C 0.49635 0.74751 0.28055 0.0
C2155 C 0.48238 0.76238 0.27667 0.0
C2156 C 0.45596 0.7486 0.26779 0.0
C2157 C 0.44295 0.72005 0.26376 0.0
C2158 C 0.45671 0.70565 0.26864 0.0
C2159 C 0.48297 0.71897 0.27672 0.0
C2160 C 0.49127 0.69825 0.28362 0.0
C2161 C 0.5159 0.70076 0.27198 0.0
C2162 C 0.49792 0.70168 0.30513 0.0
C2163 C 0.46485 0.67118 0.27934 0.0
C2164 C 0.44552 0.6759 0.27017 0.0
C2165 C 0.41836 0.65455 0.26698 0.0
C2166 C 0.41049 0.62788 0.2738 0.0
C2167 C 0.4297 0.62268 0.28371 0.0
C2168 C 0.4574 0.64456 0.28601 0.0
H2169 H 0.24699 0.69579 0.29559 0.0
H2170 H 0.22292 0.75533 0.27664 0.0
H2171 H 0.2722 0.79037 0.27182 0.0
H2172 H 0.30236 0.74079 0.32248 0.0
H2173 H 0.32497 0.72718 0.31677 0.0
H2174 H 0.28784 0.7049 0.31541 0.0
H2175 H 0.29189 0.69328 0.28021 0.0
H2176 H 0.32919 0.7153 0.28149 0.0
H2177 H 0.30976 0.72116 0.26327 0.0
H2178 H 0.32334 0.82134 0.27498 0.0
H2179 H 0.37355 0.84485 0.28293 0.0
H2180 H 0.3652 0.7654 0.29836 0.0
C2181 C 0.25201 0.71585 0.28975 0.0
C2182 C 0.23102 0.72275 0.2865 0.0
C2183 C 0.23857 0.74948 0.27925 0.0
C2184 C 0.26655 0.76957 0.27642 0.0
C2185 C 0.2868 0.76255 0.28062 0.0
C2186 C 0.27993 0.73618 0.28678 0.0
C2187 C 0.3058 0.73482 0.29187 0.0
C2188 C 0.30519 0.72644 0.31287 0.0
C2189 C 0.30937 0.71496 0.2784 0.0
C2190 C 0.3281 0.76482 0.28844 0.0
C2191 C 0.31669 0.78042 0.28183 0.0
C2192 C 0.33267 0.80922 0.27959 0.0
C2193 C 0.36106 0.82242 0.28421 0.0
C2194 C 0.37314 0.80677 0.29076 0.0
C2195 C 0.35652 0.77761 0.29273 0.0
H2196 H 0.00079 0.15598 0.29589 0.0
H2197 H 0.00542 0.23548 0.30538 0.0
H2198 H 0.00513 0.2423 0.27062 0.0
H2199 H 0.04755 0.17911 0.25579 0.0
H2200 H 0.02922 0.14666 0.24297 0.0
H2201 H 0.02792 0.14684 0.26864 0.0
H2202 H 0.97402 0.12097 0.26754 0.0
H2203 H 0.97515 0.12049 0.24187 0.0
H2204 H 0.95678 0.13536 0.25373 0.0
H2205 H 0.00309 0.24016 0.23532 0.0
H2206 H 0.00198 0.23036 0.20088 0.0
H2207 H 0.00318 0.15442 0.21356 0.0
C2208 C 0.00136 0.17459 0.29056 0.0
C2209 C 0.0028 0.1951 0.30321 0.0
C2210 C 0.0042 0.21953 0.29585 0.0
C2211 C 0.00404 0.22357 0.27617 0.0
C2212 C 0.003 0.20321 0.26404 0.0
C2213 C 0.00192 0.1793 0.27086 0.0
C2214 C 0.00227 0.16144 0.25459 0.0
C2215 C 0.02829 0.15834 0.25556 0.0
C2216 C 0.97546 0.13287 0.25443 0.0
C2217 C 0.00349 0.17897 0.23761 0.0
C2218 C 0.00359 0.20283 0.24346 0.0
C2219 C 0.00332 0.22173 0.23052 0.0
C2220 C 0.0027 0.21601 0.21104 0.0
C2221 C 0.0029 0.19191 0.20469 0.0
C2222 C 0.00361 0.1733 0.21812 0.0
H2223 H 0.80351 0.82985 0.29157 0.0
H2224 H 0.85586 0.79467 0.30515 0.0
H2225 H 0.86282 0.79054 0.2706 0.0
H2226 H 0.77039 0.78937 0.25015 0.0
H2227 H 0.77098 0.81778 0.23726 0.0
H2228 H 0.76972 0.81724 0.26292 0.0
H2229 H 0.81416 0.86594 0.26399 0.0
H2230 H 0.81557 0.86665 0.23832 0.0
H2231 H 0.8452 0.87138 0.25193 0.0
H2232 H 0.8613 0.78763 0.23459 0.0
H2233 H 0.85583 0.79073 0.19982 0.0
H2234 H 0.80824 0.83211 0.21006 0.0
C2235 C 0.81633 0.82114 0.28725 0.0
C2236 C 0.82888 0.81219 0.30091 0.0
C2237 C 0.84601 0.80151 0.29482 0.0
C2238 C 0.85 0.79905 0.27528 0.0
C2239 C 0.8372 0.80798 0.26215 0.0
C2240 C 0.82109 0.81924 0.2679 0.0
C2241 C 0.81053 0.82831 0.25102 0.0
C2242 C 0.77851 0.81221 0.2503 0.0
C2243 C 0.82206 0.85995 0.25134 0.0
C2244 C 0.82286 0.82003 0.23479 0.0
C2245 C 0.83788 0.80802 0.24151 0.0
C2246 C 0.84993 0.79735 0.22919 0.0
C2247 C 0.84663 0.7991 0.20951 0.0
C2248 C 0.83188 0.81191 0.20236 0.0
C2249 C 0.82001 0.82264 0.21519 0.0
H2250 H 0.15845 0.96888 0.20972 0.0
H2251 H 0.18652 0.05557 0.19727 0.0
H2252 H 0.18858 0.06562 0.23167 0.0
H2253 H 0.11713 0.96272 0.25254 0.0
H2254 H 0.12788 0.94123 0.265 0.0
H2255 H 0.12566 0.94007 0.23934 0.0
H2256 H 0.17706 0.95182 0.23733 0.0
H2257 H 0.1795 0.95323 0.26294 0.0
H2258 H 0.20373 0.98271 0.24893 0.0
H2259 H 0.18932 0.06692 0.26713 0.0
H2260 H 0.19026 0.05964 0.30179 0.0
H2261 H 0.16458 0.97281 0.29161 0.0
C2262 C 0.16442 0.98978 0.21431 0.0
C2263 C 0.17203 0.01142 0.20093 0.0
C2264 C 0.18051 0.03872 0.20737 0.0
C2265 C 0.18169 0.04462 0.22685 0.0
C2266 C 0.17464 0.02305 0.23974 0.0
C2267 C 0.16627 0.99619 0.23382 0.0
C2268 C 0.16185 0.9774 0.25074 0.0
C2269 C 0.13131 0.95397 0.25198 0.0
C2270 C 0.18172 0.9656 0.24993 0.0
C2271 C 0.1693 0.99798 0.267 0.0
C2272 C 0.17625 0.02409 0.26032 0.0
C2273 C 0.18388 0.04656 0.27257 0.0
C2274 C 0.18437 0.04223 0.29222 0.0
C2275 C 0.17766 0.01573 0.2994 0.0
C2276 C 0.17005 0.99338 0.28655 0.0
H2277 H 0.96572 0.80738 0.70593 0.0
H2278 H 0.05155 0.87177 0.69619 0.0
H2279 H 0.05891 0.87827 0.73092 0.0
H2280 H 0.95396 0.84082 0.74704 0.0
H2281 H 0.93251 0.80836 0.75927 0.0
H2282 H 0.9335 0.80928 0.73358 0.0
H2283 H 0.94777 0.77137 0.73327 0.0
H2284 H 0.94676 0.77028 0.75893 0.0
H2285 H 0.97799 0.77697 0.74654 0.0
H2286 H 0.05824 0.87532 0.7662 0.0
H2287 H 0.04911 0.86446 0.80045 0.0
H2288 H 0.96299 0.80398 0.78796 0.0
C2289 C 0.98604 0.82293 0.7111 0.0
C2290 C 0.00811 0.83903 0.69833 0.0
C2291 C 0.03433 0.85925 0.70567 0.0
C2292 C 0.03871 0.8631 0.72537 0.0
C2293 C 0.01657 0.84685 0.73753 0.0
C2294 C 0.99069 0.82732 0.73074 0.0
C2295 C 0.9706 0.81231 0.74698 0.0
C2296 C 0.9462 0.81805 0.7467 0.0
C2297 C 0.96018 0.78087 0.74639 0.0
C2298 C 0.98945 0.82607 0.76398 0.0
C2299 C 0.01588 0.84591 0.75812 0.0
C2300 C 0.03755 0.86018 0.77099 0.0
C2301 C 0.03218 0.85383 0.79037 0.0
C2302 C 0.00531 0.83367 0.79673 0.0
C2303 C 0.98353 0.8199 0.78342 0.0
H2304 H 0.16475 0.18932 0.79291 0.0
H2305 H 0.20201 0.13809 0.80407 0.0
H2306 H 0.20676 0.13358 0.76936 0.0
H2307 H 0.12469 0.14988 0.75168 0.0
H2308 H 0.12911 0.18024 0.73918 0.0
H2309 H 0.12894 0.17967 0.76487 0.0
H2310 H 0.17706 0.22485 0.76533 0.0
H2311 H 0.17742 0.22553 0.73965 0.0
H2312 H 0.20576 0.22592 0.7525 0.0
H2313 H 0.21042 0.13747 0.73374 0.0
H2314 H 0.20847 0.14532 0.69926 0.0
H2315 H 0.16508 0.1906 0.71099 0.0
C2316 C 0.17392 0.17717 0.78803 0.0
C2317 C 0.18326 0.16423 0.80113 0.0
C2318 C 0.19474 0.14814 0.79424 0.0
C2319 C 0.19758 0.14554 0.77459 0.0
C2320 C 0.18832 0.1587 0.76205 0.0
C2321 C 0.17632 0.17383 0.76846 0.0
C2322 C 0.16739 0.18527 0.75197 0.0
C2323 C 0.13565 0.17303 0.75193 0.0
C2324 C 0.18284 0.21729 0.75239 0.0
C2325 C 0.17667 0.17459 0.73525 0.0
C2326 C 0.18895 0.15956 0.74142 0.0
C2327 C 0.20052 0.14886 0.72873 0.0
C2328 C 0.19942 0.15353 0.7092 0.0
C2329 C 0.18643 0.16835 0.70252 0.0
C2330 C 0.17474 0.17884 0.71573 0.0
H2331 H 0.79016 0.99613 0.7904 0.0
H2332 H 0.8696 0.00152 0.80159 0.0
H2333 H 0.87643 0.99873 0.76693 0.0
H2334 H 0.7689 0.94935 0.7508 0.0
H2335 H 0.75422 0.96678 0.73754 0.0
H2336 H 0.75509 0.96829 0.76321 0.0
H2337 H 0.78191 0.02224 0.76206 0.0
H2338 H 0.78066 0.02089 0.73641 0.0
H2339 H 0.81367 0.04015 0.74845 0.0
H2340 H 0.873 0.99246 0.73103 0.0
H2341 H 0.86417 0.99261 0.69639 0.0
H2342 H 0.7893 0.99592 0.70876 0.0
C2343 C 0.80905 0.99689 0.7855 0.0
C2344 C 0.82934 0.99893 0.79856 0.0
C2345 C 0.85393 0.00015 0.79172 0.0
C2346 C 0.85784 0.99829 0.77211 0.0
C2347 C 0.83718 0.99577 0.75958 0.0
C2348 C 0.81362 0.99582 0.76597 0.0
C2349 C 0.79546 0.99478 0.74951 0.0
C2350 C 0.76672 0.96822 0.75032 0.0
C2351 C 0.79278 0.02108 0.74909 0.0
C2352 C 0.81241 0.99402 0.73285 0.0
C2353 C 0.83608 0.99394 0.73894 0.0
C2354 C 0.85464 0.99272 0.7261 0.0
C2355 C 0.84936 0.99254 0.70649 0.0
C2356 C 0.82608 0.99422 0.70003 0.0
C2357 C 0.80723 0.99457 0.71339 0.0
H2358 H 0.63217 0.49321 0.54067 0.0
H2359 H 0.71991 0.52669 0.52833 0.0
H2360 H 0.72994 0.53014 0.56289 0.0
H2361 H 0.63988 0.5344 0.58142 0.0
H2362 H 0.61143 0.50685 0.59445 0.0
H2363 H 0.61107 0.50662 0.56878 0.0
H2364 H 0.60535 0.4573 0.56875 0.0
H2365 H 0.60565 0.45735 0.59445 0.0
H2366 H 0.63017 0.45132 0.58142 0.0
H2367 H 0.73084 0.53349 0.59848 0.0
H2368 H 0.72222 0.53265 0.63308 0.0
H2369 H 0.63342 0.49335 0.62255 0.0
C2370 C 0.65348 0.50121 0.54526 0.0
C2371 C 0.67534 0.50988 0.53187 0.0
C2372 C 0.70289 0.51991 0.53838 0.0
C2373 C 0.70878 0.52199 0.55795 0.0
C2374 C 0.68679 0.51344 0.57078 0.0
C2375 C 0.65964 0.50286 0.56473 0.0
C2376 C 0.6398 0.4948 0.58148 0.0
C2377 C 0.62466 0.51168 0.58153 0.0
C2378 C 0.61902 0.46332 0.58153 0.0
C2379 C 0.66013 0.50304 0.59793 0.0
C2380 C 0.68714 0.51394 0.5914 0.0
C2381 C 0.70977 0.52461 0.60378 0.0
C2382 C 0.70468 0.52414 0.62337 0.0
C2383 C 0.67717 0.51268 0.6304 0.0
C2384 C 0.65459 0.50175 0.61752 0.0
H2385 H 0.47604 0.17068 0.62289 0.0
H2386 H 0.53021 0.13654 0.63343 0.0
H2387 H 0.53458 0.13216 0.5987 0.0
H2388 H 0.44002 0.12881 0.58245 0.0
H2389 H 0.43893 0.15648 0.56972 0.0
H2390 H 0.4398 0.15679 0.59539 0.0
H2391 H 0.48368 0.2059 0.59493 0.0
H2392 H 0.4829 0.2058 0.56925 0.0
H2393 H 0.51385 0.21156 0.58158 0.0
H2394 H 0.53096 0.12902 0.56325 0.0
H2395 H 0.52361 0.13158 0.52885 0.0
H2396 H 0.47449 0.17097 0.54086 0.0
C2397 C 0.48882 0.16229 0.61786 0.0
C2398 C 0.50267 0.15376 0.63081 0.0
C2399 C 0.51949 0.14323 0.62373 0.0
C2400 C 0.522 0.14057 0.60406 0.0
C2401 C 0.50794 0.14898 0.59169 0.0
C2402 C 0.49201 0.16001 0.59826 0.0
C2403 C 0.47973 0.1682 0.58186 0.0
C2404 C 0.44772 0.15157 0.58239 0.0
C2405 C 0.4907 0.19974 0.58191 0.0
C2406 C 0.491 0.15974 0.56503 0.0
C2407 C 0.50696 0.14843 0.57109 0.0
C2408 C 0.51874 0.13808 0.55832 0.0
C2409 C 0.51431 0.13951 0.53881 0.0
C2410 C 0.49856 0.15157 0.53219 0.0
C2411 C 0.48683 0.16189 0.54552 0.0
H2412 H 0.82246 0.31364 0.62738 0.0
H2413 H 0.86352 0.40195 0.64012 0.0
H2414 H 0.86963 0.41247 0.60553 0.0
H2415 H 0.86416 0.31697 0.58904 0.0
H2416 H 0.83629 0.29044 0.575 0.0
H2417 H 0.83353 0.28982 0.60059 0.0
H2418 H 0.78699 0.28996 0.59808 0.0
H2419 H 0.78941 0.29026 0.57245 0.0
H2420 H 0.78563 0.31688 0.58451 0.0
H2421 H 0.87612 0.41312 0.56984 0.0
H2422 H 0.87711 0.40402 0.53542 0.0
H2423 H 0.8286 0.31515 0.54596 0.0
C2424 C 0.83237 0.33519 0.62287 0.0
C2425 C 0.84263 0.35704 0.63636 0.0
C2426 C 0.85538 0.38495 0.62997 0.0
C2427 C 0.85904 0.39108 0.61039 0.0
C2428 C 0.84929 0.36903 0.59747 0.0
C2429 C 0.83567 0.34162 0.60344 0.0
C2430 C 0.8273 0.32174 0.58672 0.0
C2431 C 0.84115 0.30369 0.58792 0.0
C2432 C 0.79544 0.30365 0.58536 0.0
C2433 C 0.83897 0.34223 0.57037 0.0
C2434 C 0.85177 0.36941 0.57688 0.0
C2435 C 0.86572 0.39195 0.56456 0.0
C2436 C 0.86634 0.38657 0.54508 0.0
C2437 C 0.85275 0.3589 0.53807 0.0
C2438 C 0.8388 0.3365 0.55091 0.0
H2439 H 0.63445 0.14244 0.12445 0.0
H2440 H 0.72292 0.19546 0.13471 0.0
H2441 H 0.73122 0.2028 0.10005 0.0
H2442 H 0.64268 0.10817 0.08433 0.0
H2443 H 0.61317 0.10515 0.07143 0.0
H2444 H 0.61362 0.10643 0.09709 0.0
H2445 H 0.60559 0.1486 0.0961 0.0
H2446 H 0.60504 0.1474 0.07042 0.0
H2447 H 0.62903 0.1791 0.08258 0.0
H2448 H 0.73016 0.20383 0.06442 0.0
H2449 H 0.72027 0.19531 0.02993 0.0
H2450 H 0.63309 0.13871 0.04263 0.0
C2451 C 0.65545 0.15595 0.11934 0.0
C2452 C 0.67804 0.16867 0.13216 0.0
C2453 C 0.70536 0.18563 0.12504 0.0
C2454 C 0.71026 0.19001 0.10542 0.0
C2455 C 0.68765 0.17692 0.09309 0.0
C2456 C 0.66081 0.16002 0.09971 0.0
C2457 C 0.6406 0.14663 0.08332 0.0
C2458 C 0.62671 0.1147 0.0841 0.0
C2459 C 0.61878 0.156 0.0831 0.0
C2460 C 0.66032 0.15852 0.06652 0.0
C2461 C 0.68727 0.17632 0.07246 0.0
C2462 C 0.70913 0.18991 0.05956 0.0
C2463 C 0.70333 0.18499 0.04002 0.0
C2464 C 0.67599 0.16624 0.03364 0.0
C2465 C 0.65425 0.15298 0.04711 0.0
H2466 H 0.86143 0.48903 0.12168 0.0
H2467 H 0.80923 0.52531 0.13252 0.0
H2468 H 0.80144 0.5263 0.098 0.0
H2469 H 0.89488 0.53088 0.08043 0.0
H2470 H 0.89693 0.50369 0.06774 0.0
H2471 H 0.89693 0.5039 0.09342 0.0
H2472 H 0.85445 0.45385 0.09362 0.0
H2473 H 0.8543 0.45352 0.06793 0.0
H2474 H 0.82336 0.44662 0.0808 0.0
H2475 H 0.79869 0.52299 0.06251 0.0
H2476 H 0.80491 0.51974 0.02789 0.0
H2477 H 0.8616 0.48894 0.03962 0.0
C2478 C 0.8482 0.49694 0.11673 0.0
C2479 C 0.83581 0.50697 0.12974 0.0
C2480 C 0.81899 0.51762 0.12277 0.0
C2481 C 0.81431 0.51814 0.1032 0.0
C2482 C 0.82691 0.50829 0.09072 0.0
C2483 C 0.84379 0.49821 0.09713 0.0
C2484 C 0.85616 0.49054 0.08052 0.0
C2485 C 0.88812 0.50832 0.08053 0.0
C2486 C 0.84648 0.45927 0.08074 0.0
C2487 C 0.84359 0.49792 0.06388 0.0
C2488 C 0.82644 0.50771 0.0701 0.0
C2489 C 0.81216 0.51547 0.05742 0.0
C2490 C 0.81575 0.51348 0.03781 0.0
C2491 C 0.83385 0.50427 0.03108 0.0
C2492 C 0.84781 0.49629 0.04435 0.0
H2493 H 0.49869 0.35903 0.05025 0.0
H2494 H 0.46398 0.27103 0.03837 0.0
H2495 H 0.45942 0.26123 0.07305 0.0
H2496 H 0.53948 0.36045 0.09119 0.0
H2497 H 0.53416 0.38564 0.10394 0.0
H2498 H 0.53425 0.38555 0.07825 0.0
H2499 H 0.48545 0.38106 0.07806 0.0
H2500 H 0.48515 0.38102 0.10374 0.0
H2501 H 0.45725 0.35277 0.09079 0.0
H2502 H 0.45568 0.26088 0.10877 0.0
H2503 H 0.45784 0.27021 0.14333 0.0
H2504 H 0.49896 0.35897 0.13211 0.0
C2505 C 0.49012 0.33769 0.05497 0.0
C2506 C 0.48141 0.31569 0.04171 0.0
C2507 C 0.47074 0.28812 0.04836 0.0
C2508 C 0.468 0.28239 0.06798 0.0
C2509 C 0.47659 0.30455 0.08069 0.0
C2510 C 0.48788 0.3317 0.07448 0.0
C2511 C 0.49632 0.35182 0.09109 0.0
C2512 C 0.52793 0.37205 0.09111 0.0
C2513 C 0.48007 0.36759 0.09091 0.0
C2514 C 0.48762 0.33169 0.10768 0.0
C2515 C 0.47598 0.3045 0.10133 0.0
C2516 C 0.46507 0.28209 0.11391 0.0
C2517 C 0.46627 0.28759 0.13348 0.0
C2518 C 0.47872 0.3153 0.14033 0.0
C2519 C 0.48966 0.33762 0.12724 0.0
H2520 H 0.36171 0.86285 0.87617 0.0
H2521 H 0.27402 0.82811 0.86279 0.0
H2522 H 0.26301 0.824 0.89704 0.0
H2523 H 0.35304 0.82077 0.91662 0.0
H2524 H 0.38077 0.84811 0.93028 0.0
H2525 H 0.38214 0.84918 0.90463 0.0
H2526 H 0.38716 0.8982 0.90505 0.0
H2527 H 0.3859 0.89732 0.93073 0.0
H2528 H 0.36161 0.90337 0.91743 0.0
H2529 H 0.26077 0.81992 0.93254 0.0
H2530 H 0.26821 0.82026 0.96733 0.0
H2531 H 0.3574 0.86055 0.95804 0.0
C2532 C 0.34024 0.85459 0.88046 0.0
C2533 C 0.31875 0.84577 0.86676 0.0
C2534 C 0.2909 0.83515 0.87297 0.0
C2535 C 0.28438 0.83263 0.89242 0.0
C2536 C 0.30595 0.84121 0.90554 0.0
C2537 C 0.33337 0.85236 0.89988 0.0
C2538 C 0.35254 0.86008 0.91699 0.0
C2539 C 0.36802 0.84354 0.91713 0.0
C2540 C 0.37301 0.89162 0.91758 0.0
C2541 C 0.33153 0.85106 0.93309 0.0
C2542 C 0.30475 0.84005 0.92615 0.0
C2543 C 0.28167 0.82887 0.93819 0.0
C2544 C 0.28607 0.82906 0.95789 0.0
C2545 C 0.31335 0.84071 0.96534 0.0
C2546 C 0.33634 0.85197 0.95274 0.0
H2547 H 0.1648 0.46701 0.88472 0.0
H2548 H 0.13064 0.52049 0.87194 0.0
H2549 H 0.12857 0.52862 0.90651 0.0
H2550 H 0.12623 0.43563 0.92702 0.0
H2551 H 0.15489 0.43591 0.93935 0.0
H2552 H 0.15323 0.43406 0.91371 0.0
H2553 H 0.20228 0.4779 0.91164 0.0
H2554 H 0.20411 0.4799 0.93729 0.0
H2555 H 0.20882 0.50943 0.92355 0.0
H2556 H 0.12729 0.52807 0.94237 0.0
H2557 H 0.13134 0.52306 0.97706 0.0
H2558 H 0.17061 0.4736 0.96628 0.0
C2559 C 0.15681 0.48037 0.88924 0.0
C2560 C 0.14754 0.4929 0.8758 0.0
C2561 C 0.13774 0.51069 0.88211 0.0
C2562 C 0.13646 0.51535 0.90166 0.0
C2563 C 0.14566 0.50256 0.91458 0.0
C2564 C 0.15608 0.48581 0.90862 0.0
C2565 C 0.16555 0.47532 0.92534 0.0
C2566 C 0.14898 0.44333 0.92641 0.0
C2567 C 0.19706 0.4863 0.9244 0.0
C2568 C 0.15832 0.48835 0.94171 0.0
C2569 C 0.14661 0.50374 0.93519 0.0
C2570 C 0.1368 0.51644 0.94764 0.0
C2571 C 0.13909 0.51339 0.96728 0.0
C2572 C 0.15154 0.4982 0.97424 0.0
C2573 C 0.16145 0.48571 0.96128 0.0
H2574 H 0.52668 0.69409 0.95782 0.0
H2575 H 0.48781 0.60565 0.9698 0.0
H2576 H 0.48094 0.59541 0.93538 0.0
H2577 H 0.48425 0.68946 0.91745 0.0
H2578 H 0.51269 0.71654 0.90412 0.0
H2579 H 0.51362 0.71705 0.9298 0.0
H2580 H 0.56111 0.71863 0.92911 0.0
H2581 H 0.56033 0.71816 0.90343 0.0
H2582 H 0.56421 0.69214 0.91626 0.0
H2583 H 0.47645 0.59448 0.89986 0.0
H2584 H 0.47914 0.60335 0.86512 0.0
H2585 H 0.52447 0.69233 0.87588 0.0
C2586 C 0.51664 0.67261 0.95314 0.0
C2587 C 0.50764 0.65065 0.96642 0.0
C2588 C 0.49494 0.62279 0.95982 0.0
C2589 C 0.49082 0.61674 0.94032 0.0
C2590 C 0.49994 0.63881 0.92756 0.0
C2591 C 0.51295 0.6662 0.93363 0.0
C2592 C 0.52195 0.686 0.91682 0.0
C2593 C 0.50724 0.70328 0.91707 0.0
C2594 C 0.55379 0.70484 0.91638 0.0
C2595 C 0.51178 0.66542 0.90043 0.0
C2596 C 0.49879 0.6383 0.90695 0.0
C2597 C 0.48681 0.61563 0.89454 0.0
C2598 C 0.48836 0.62084 0.87488 0.0
C2599 C 0.50224 0.64846 0.86788 0.0
C2600 C 0.51408 0.67098 0.88086 0.0
H2601 H 0.3264 0.45973 0.4629 0.0
H2602 H 0.326 0.53619 0.47507 0.0
H2603 H 0.32942 0.54667 0.44055 0.0
H2604 H 0.37386 0.48388 0.42489 0.0
H2605 H 0.35587 0.45278 0.41063 0.0
H2606 H 0.35239 0.45062 0.43619 0.0
H2607 H 0.29871 0.42661 0.43315 0.0
H2608 H 0.30198 0.42822 0.40756 0.0
H2609 H 0.28351 0.44305 0.41932 0.0
H2610 H 0.33865 0.55139 0.40514 0.0
H2611 H 0.3435 0.54563 0.37057 0.0
H2612 H 0.33278 0.46382 0.38116 0.0
C2613 C 0.32651 0.4784 0.45822 0.0
C2614 C 0.32593 0.49718 0.47155 0.0
C2615 C 0.32613 0.52142 0.46501 0.0
C2616 C 0.32832 0.52765 0.44548 0.0
C2617 C 0.32961 0.50907 0.4327 0.0
C2618 C 0.32788 0.48452 0.43875 0.0
C2619 C 0.32896 0.46775 0.42205 0.0
C2620 C 0.35428 0.46352 0.42354 0.0
C2621 C 0.30166 0.43975 0.42043 0.0
C2622 C 0.33218 0.48698 0.4057 0.0
C2623 C 0.33301 0.51093 0.41219 0.0
C2624 C 0.33753 0.53252 0.39986 0.0
C2625 C 0.34053 0.52921 0.38032 0.0
C2626 C 0.33839 0.50428 0.37333 0.0
C2627 C 0.33428 0.48299 0.3862 0.0
H2628 H 0.48926 0.84561 0.44906 0.0
H2629 H 0.53075 0.79858 0.46094 0.0
H2630 H 0.53068 0.78907 0.42631 0.0
H2631 H 0.44541 0.80104 0.40916 0.0
H2632 H 0.4484 0.83062 0.39638 0.0
H2633 H 0.44919 0.83085 0.42208 0.0
H2634 H 0.49643 0.87701 0.4214 0.0
H2635 H 0.496 0.8768 0.39577 0.0
H2636 H 0.5252 0.8786 0.40835 0.0
H2637 H 0.5323 0.79123 0.39022 0.0
H2638 H 0.531 0.80012 0.35581 0.0
H2639 H 0.48558 0.84324 0.36787 0.0
C2640 C 0.49782 0.8328 0.4444 0.0
C2641 C 0.51011 0.82284 0.45755 0.0
C2642 C 0.52107 0.80617 0.45103 0.0
C2643 C 0.52119 0.80079 0.43143 0.0
C2644 C 0.50966 0.81173 0.41875 0.0
C2645 C 0.49763 0.82687 0.42505 0.0
C2646 C 0.4876 0.8373 0.40861 0.0
C2647 C 0.45576 0.82416 0.40909 0.0
C2648 C 0.50219 0.86932 0.40854 0.0
C2649 C 0.49676 0.82656 0.39193 0.0
C2650 C 0.50948 0.81188 0.39806 0.0
C2651 C 0.52183 0.80211 0.38528 0.0
C2652 C 0.52114 0.80742 0.36579 0.0
C2653 C 0.50793 0.82212 0.35923 0.0
C2654 C 0.4953 0.83147 0.37248 0.0
H2655 H 0.14379 0.64176 0.37574 0.0
H2656 H 0.18925 0.7297 0.36161 0.0
H2657 H 0.19894 0.74148 0.39569 0.0
H2658 H 0.11085 0.64986 0.41716 0.0
H2659 H 0.11218 0.62289 0.43066 0.0
H2660 H 0.11065 0.6211 0.40502 0.0
H2661 H 0.15565 0.61782 0.40433 0.0
H2662 H 0.15731 0.61962 0.42999 0.0
H2663 H 0.18658 0.64431 0.416 0.0
H2664 H 0.20396 0.74394 0.43119 0.0
H2665 H 0.20019 0.73692 0.46614 0.0
H2666 H 0.14863 0.64777 0.45752 0.0
C2667 C 0.15601 0.66343 0.37987 0.0
C2668 C 0.16593 0.68483 0.36608 0.0
C2669 C 0.18142 0.713 0.37199 0.0
C2670 C 0.18716 0.71991 0.39129 0.0
C2671 C 0.17694 0.69842 0.40458 0.0
C2672 C 0.16142 0.67076 0.39919 0.0
C2673 C 0.15137 0.65188 0.41649 0.0
C2674 C 0.11936 0.63547 0.41738 0.0
C2675 C 0.16346 0.63225 0.41671 0.0
C2676 C 0.16359 0.67326 0.43236 0.0
C2677 C 0.17864 0.69994 0.42516 0.0
C2678 C 0.19215 0.72314 0.43703 0.0
C2679 C 0.18996 0.71897 0.45683 0.0
C2680 C 0.17398 0.69187 0.46451 0.0
C2681 C 0.16078 0.66878 0.45205 0.0
H2682 H 0.08421 0.37411 0.05224 0.0
H2683 H 0.15485 0.41765 0.09017 0.0
H2684 H 0.13979 0.37411 0.10826 0.0
H2685 H 0.0354 0.33175 0.08872 0.0
H2686 H 0.01724 0.30162 0.07359 0.0
H2687 H 0.03413 0.336 0.06332 0.0
H2688 H 0.06238 0.32214 0.04092 0.0
H2689 H 0.0457 0.28777 0.05121 0.0
H2690 H 0.08315 0.30865 0.05102 0.0
H2691 H 0.11698 0.32616 0.12227 0.0
H2692 H 0.08658 0.27736 0.13238 0.0
H2693 H 0.03008 0.26484 0.08581 0.0
C2694 C 0.0964 0.3744 0.0644 0.0
C2695 C 0.12091 0.39903 0.06971 0.0
C2696 C 0.13633 0.39878 0.08569 0.0
C2697 C 0.12789 0.37422 0.09606 0.0
C2698 C 0.10381 0.35017 0.09034 0.0
C2699 C 0.08814 0.35008 0.07498 0.0
C2700 C 0.0627 0.32157 0.07216 0.0
C2701 C 0.03578 0.32282 0.0746 0.0
C2702 C 0.06355 0.30931 0.05267 0.0
C2703 C 0.06651 0.30566 0.08833 0.0
C2704 C 0.09045 0.32254 0.09857 0.0
C2705 C 0.09827 0.3127 0.1143 0.0
C2706 C 0.08102 0.28493 0.11985 0.0
C2707 C 0.05625 0.26738 0.10971 0.0
C2708 C 0.04902 0.27787 0.0937 0.0
H2709 H 0.6284 0.70948 0.04887 0.0
H2710 H 0.58187 0.73706 0.08336 0.0
H2711 H 0.62336 0.76411 0.10372 0.0
H2712 H 0.66409 0.69937 0.08764 0.0
H2713 H 0.69607 0.71098 0.07464 0.0
H2714 H 0.66336 0.69542 0.06209 0.0
H2715 H 0.68189 0.73911 0.04056 0.0
H2716 H 0.71469 0.7548 0.05302 0.0
H2717 H 0.69538 0.77294 0.05139 0.0
H2718 H 0.66951 0.78672 0.12098 0.0
H2719 H 0.71665 0.80287 0.13398 0.0
H2720 H 0.73262 0.75951 0.0887 0.0
C2721 C 0.62698 0.72125 0.0607 0.0
C2722 C 0.60203 0.72137 0.0645 0.0
C2723 C 0.60097 0.73711 0.08003 0.0
C2724 C 0.62435 0.75238 0.09172 0.0
C2725 C 0.64858 0.75158 0.0877 0.0
C2726 C 0.65004 0.7364 0.07257 0.0
C2727 C 0.6782 0.7382 0.07169 0.0
C2728 C 0.67524 0.70927 0.07417 0.0
C2729 C 0.69344 0.7521 0.05306 0.0
C2730 C 0.69235 0.75664 0.08877 0.0
C2731 C 0.67496 0.76425 0.09776 0.0
C2732 C 0.68333 0.781 0.11399 0.0
C2733 C 0.71013 0.79016 0.12123 0.0
C2734 C 0.72818 0.78248 0.11228 0.0
C2735 C 0.71914 0.76556 0.09583 0.0
H2736 H 0.20403 0.93596 0.08928 0.0
H2737 H 0.25385 0.96465 0.14073 0.0
H2738 H 0.2814 0.94334 0.12993 0.0
H2739 H 0.20288 0.86911 0.08603 0.0
H2740 H 0.20504 0.8702 0.06037 0.0
H2741 H 0.18842 0.8866 0.07259 0.0
H2742 H 0.22155 0.9332 0.05567 0.0
H2743 H 0.2384 0.91702 0.04352 0.0
H2744 H 0.25869 0.94775 0.05776 0.0
H2745 H 0.30534 0.92158 0.11273 0.0
H2746 H 0.32249 0.89833 0.09088 0.0
H2747 H 0.2566 0.88255 0.05093 0.0
C2748 C 0.22038 0.93719 0.0984 0.0
C2749 C 0.22684 0.9518 0.11586 0.0
C2750 C 0.2487 0.95356 0.12728 0.0
C2751 C 0.2644 0.94151 0.12128 0.0
C2752 C 0.25784 0.9276 0.10386 0.0
C2753 C 0.2362 0.92512 0.09264 0.0
C2754 C 0.23396 0.90957 0.07433 0.0
C2755 C 0.20591 0.88224 0.07328 0.0
C2756 C 0.23842 0.92799 0.05679 0.0
C2757 C 0.25791 0.90403 0.07693 0.0
C2758 C 0.27142 0.91464 0.09406 0.0
C2759 C 0.29476 0.91292 0.09937 0.0
C2760 C 0.30441 0.89982 0.0869 0.0
C2761 C 0.29065 0.88851 0.06944 0.0
C2762 C 0.26717 0.89071 0.06438 0.0
H2763 H 0.29082 0.08021 0.3846 0.0
H2764 H 0.24867 0.00301 0.41647 0.0
H2765 H 0.29035 0.01881 0.43683 0.0
H2766 H 0.35785 0.0858 0.38442 0.0
H2767 H 0.37698 0.12314 0.38696 0.0
H2768 H 0.34341 0.1064 0.37554 0.0
H2769 H 0.32599 0.12992 0.39947 0.0
H2770 H 0.35953 0.14673 0.411 0.0
H2771 H 0.32851 0.12541 0.42471 0.0
H2772 H 0.33648 0.04257 0.45338 0.0
H2773 H 0.38502 0.0719 0.4643 0.0
H2774 H 0.39832 0.13338 0.42119 0.0
C2775 C 0.29039 0.06683 0.39601 0.0
C2776 C 0.26663 0.04043 0.39908 0.0
C2777 C 0.26678 0.02324 0.41391 0.0
C2778 C 0.29028 0.0321 0.42557 0.0
C2779 C 0.31346 0.05819 0.42215 0.0
C2780 C 0.31379 0.07531 0.4077 0.0
C2781 C 0.34181 0.10191 0.40663 0.0
C2782 C 0.35584 0.10445 0.38724 0.0
C2783 C 0.33877 0.12751 0.4107 0.0
C2784 C 0.35725 0.09696 0.42262 0.0
C2785 C 0.34037 0.07171 0.43148 0.0
C2786 C 0.34991 0.06235 0.44653 0.0
C2787 C 0.37752 0.07906 0.45257 0.0
C2788 C 0.39539 0.10472 0.44348 0.0
C2789 C 0.385 0.1139 0.42844 0.0
H2790 H 0.92494 0.30053 0.4593 0.0
H2791 H 0.849 0.26855 0.42614 0.0
H2792 H 0.86199 0.23855 0.40805 0.0
H2793 H 0.96816 0.30457 0.41968 0.0
H2794 H 0.98946 0.29505 0.43359 0.0
H2795 H 0.97331 0.31266 0.44477 0.0
H2796 H 0.94995 0.27272 0.46948 0.0
H2797 H 0.96588 0.2549 0.45828 0.0
H2798 H 0.92863 0.23739 0.46128 0.0
H2799 H 0.88332 0.21246 0.39331 0.0
H2800 H 0.9133 0.19469 0.38115 0.0
H2801 H 0.97672 0.24515 0.42256 0.0
C2802 C 0.91112 0.28729 0.44818 0.0
C2803 C 0.88571 0.28653 0.44433 0.0
C2804 C 0.86819 0.26892 0.42968 0.0
C2805 C 0.87547 0.25192 0.41925 0.0
C2806 C 0.90054 0.25301 0.42348 0.0
C2807 C 0.91827 0.27046 0.43743 0.0
C2808 C 0.94464 0.26862 0.43847 0.0
C2809 C 0.97041 0.2969 0.43385 0.0
C2810 C 0.94742 0.25776 0.45804 0.0
C2811 C 0.93897 0.24746 0.42289 0.0
C2812 C 0.91326 0.23853 0.41457 0.0
C2813 C 0.90343 0.2192 0.39976 0.0
C2814 C 0.92048 0.20905 0.39306 0.0
C2815 C 0.94712 0.21834 0.40106 0.0
C2816 C 0.95636 0.23765 0.41626 0.0
H2817 H 0.75989 0.70847 0.37979 0.0
H2818 H 0.78919 0.75971 0.43053 0.0
H2819 H 0.76881 0.71723 0.45063 0.0
H2820 H 0.69479 0.65553 0.39903 0.0
H2821 H 0.69553 0.62729 0.38683 0.0
H2822 H 0.71277 0.66167 0.37658 0.0
H2823 H 0.75898 0.66072 0.37507 0.0
H2824 H 0.74188 0.62634 0.38534 0.0
H2825 H 0.7726 0.65396 0.39649 0.0
H2826 H 0.74398 0.66923 0.46508 0.0
H2827 H 0.7174 0.61894 0.47294 0.0
H2828 H 0.7051 0.59871 0.41279 0.0
C2829 C 0.76197 0.7106 0.39514 0.0
C2830 C 0.77606 0.73717 0.40373 0.0
C2831 C 0.77857 0.73942 0.42379 0.0
C2832 C 0.76703 0.71546 0.43526 0.0
C2833 C 0.75319 0.68948 0.42638 0.0
C2834 C 0.75071 0.68689 0.40677 0.0
C2835 C 0.73478 0.65654 0.4008 0.0
C2836 C 0.70787 0.64987 0.39018 0.0
C2837 C 0.75316 0.64895 0.38871 0.0
C2838 C 0.72852 0.64242 0.42012 0.0
C2839 C 0.73928 0.66183 0.43468 0.0
C2840 C 0.73562 0.65388 0.4538 0.0
C2841 C 0.72054 0.62538 0.45814 0.0
C2842 C 0.70948 0.60526 0.44344 0.0
C2843 C 0.7136 0.61384 0.42422 0.0
H2844 H 0.94081 0.69559 0.8702 0.0
H2845 H 0.96223 0.75163 0.9183 0.0
H2846 H 0.94434 0.7115 0.94048 0.0
H2847 H 0.87623 0.64027 0.89028 0.0
H2848 H 0.88053 0.6127 0.8803 0.0
H2849 H 0.8952 0.64581 0.86831 0.0
H2850 H 0.94384 0.64994 0.86904 0.0
H2851 H 0.92935 0.61691 0.88111 0.0
H2852 H 0.9582 0.64742 0.89152 0.0
H2853 H 0.92573 0.66565 0.9573 0.0
H2854 H 0.90439 0.61655 0.96777 0.0
H2855 H 0.89286 0.58966 0.90883 0.0
C2856 C 0.94152 0.69922 0.88541 0.0
C2857 C 0.95275 0.72646 0.89271 0.0
C2858 C 0.95353 0.73075 0.9126 0.0
C2859 C 0.94351 0.70815 0.92524 0.0
C2860 C 0.93262 0.68144 0.91767 0.0
C2861 C 0.93126 0.67681 0.89822 0.0
C2862 C 0.91806 0.64597 0.89384 0.0
C2863 C 0.89089 0.63558 0.88251 0.0
C2864 C 0.93859 0.6397 0.88325 0.0
C2865 C 0.91237 0.634 0.91385 0.0
C2866 C 0.92114 0.65489 0.92737 0.0
C2867 C 0.91865 0.64913 0.94685 0.0
C2868 C 0.90663 0.62129 0.95266 0.0
C2869 C 0.89709 0.59959 0.93908 0.0
C2870 C 0.89999 0.606 0.91944 0.0
H2871 H 0.29451 0.24097 0.88155 0.0
H2872 H 0.23977 0.20024 0.92949 0.0
H2873 H 0.28051 0.21926 0.95114 0.0
H2874 H 0.34972 0.2297 0.89634 0.0
H2875 H 0.37728 0.26305 0.88828 0.0
H2876 H 0.34386 0.24705 0.87664 0.0
H2877 H 0.34006 0.29105 0.88304 0.0
H2878 H 0.37359 0.30729 0.89455 0.0
H2879 H 0.3437 0.304 0.90706 0.0
H2880 H 0.32707 0.24169 0.96734 0.0
H2881 H 0.37656 0.26752 0.9773 0.0
H2882 H 0.40143 0.29387 0.91897 0.0
C2883 C 0.29123 0.23638 0.89665 0.0
C2884 C 0.26418 0.21915 0.90397 0.0
C2885 C 0.26045 0.21331 0.92372 0.0
C2886 C 0.28341 0.22402 0.93606 0.0
C2887 C 0.30993 0.2406 0.9284 0.0
C2888 C 0.31397 0.24693 0.90918 0.0
C2889 C 0.34468 0.26507 0.90461 0.0
C2890 C 0.35445 0.25033 0.89064 0.0
C2891 C 0.35087 0.29354 0.89686 0.0
C2892 C 0.35729 0.26779 0.92424 0.0
C2893 C 0.33682 0.25352 0.93775 0.0
C2894 C 0.34325 0.25294 0.9569 0.0
C2895 C 0.3713 0.26753 0.96242 0.0
C2896 C 0.39248 0.28236 0.94885 0.0
C2897 C 0.38545 0.28244 0.92953 0.0
H2898 H 0.70696 0.107 0.9147 0.0
H2899 H 0.71395 0.08828 0.97372 0.0
H2900 H 0.74032 0.06517 0.96379 0.0
H2901 H 0.69634 0.0421 0.8956 0.0
H2902 H 0.71601 0.05744 0.87415 0.0
H2903 H 0.69861 0.07331 0.88597 0.0
H2904 H 0.74531 0.11992 0.88812 0.0
H2905 H 0.76285 0.10417 0.87632 0.0
H2906 H 0.77494 0.12057 0.89923 0.0
H2907 H 0.76615 0.04439 0.94742 0.0
H2908 H 0.78748 0.02516 0.92552 0.0
H2909 H 0.76226 0.05571 0.87705 0.0
C2910 C 0.71421 0.0981 0.92546 0.0
C2911 C 0.70868 0.09941 0.94495 0.0
C2912 C 0.71812 0.08739 0.95872 0.0
C2913 C 0.73312 0.07433 0.95321 0.0
C2914 C 0.7383 0.07331 0.93386 0.0
C2915 C 0.72898 0.0847 0.92016 0.0
C2916 C 0.73659 0.07996 0.90029 0.0
C2917 C 0.71032 0.06214 0.8883 0.0
C2918 C 0.75608 0.10782 0.89041 0.0
C2919 C 0.75162 0.06417 0.90494 0.0
C2920 C 0.75258 0.06075 0.9244 0.0
C2921 C 0.76551 0.04693 0.93216 0.0
C2922 C 0.77761 0.03616 0.91969 0.0
C2923 C 0.77649 0.03914 0.89975 0.0
C2924 C 0.76337 0.0533 0.89229 0.0
H2925 H 0.62078 0.87598 0.5573 0.0
H2926 H 0.60364 0.94405 0.55256 0.0
H2927 H 0.64804 0.97529 0.56837 0.0
H2928 H 0.64922 0.89615 0.60615 0.0
H2929 H 0.67421 0.88477 0.60278 0.0
H2930 H 0.6416 0.86784 0.59008 0.0
H2931 H 0.66853 0.87804 0.55819 0.0
H2932 H 0.70122 0.8955 0.57076 0.0
H2933 H 0.69397 0.91343 0.55218 0.0
H2934 H 0.69659 0.0004 0.58085 0.0
H2935 H 0.74118 0.01598 0.5971 0.0
H2936 H 0.72286 0.93029 0.60097 0.0
C2937 C 0.62605 0.89728 0.55987 0.0
C2938 C 0.60912 0.90777 0.55282 0.0
C2939 C 0.61687 0.9358 0.55674 0.0
C2940 C 0.64199 0.95372 0.56593 0.0
C2941 C 0.6587 0.94307 0.57193 0.0
C2942 C 0.65065 0.9153 0.56978 0.0
C2943 C 0.67174 0.90902 0.57898 0.0
C2944 C 0.6584 0.88822 0.59548 0.0
C2945 C 0.68462 0.89837 0.56414 0.0
C2946 C 0.69308 0.93775 0.58624 0.0
C2947 C 0.68531 0.95709 0.58156 0.0
C2948 C 0.70241 0.98531 0.58528 0.0
C2949 C 0.72765 0.99392 0.59473 0.0
C2950 C 0.73521 0.97437 0.60115 0.0
C2951 C 0.7178 0.94588 0.59646 0.0
H2952 H 0.05794 0.79662 0.58324 0.0
H2953 H 0.02438 0.74367 0.633 0.0
H2954 H 0.04516 0.71567 0.62216 0.0
H2955 H 0.05093 0.74466 0.54988 0.0
H2956 H 0.08367 0.76677 0.53816 0.0
H2957 H 0.06505 0.78184 0.54936 0.0
H2958 H 0.10849 0.81363 0.5698 0.0
H2959 H 0.12727 0.7987 0.55862 0.0
H2960 H 0.12412 0.79819 0.58422 0.0
H2961 H 0.0685 0.69261 0.60535 0.0
H2962 H 0.09571 0.67831 0.5849 0.0
H2963 H 0.11813 0.74905 0.548 0.0
C2964 C 0.05524 0.77931 0.59194 0.0
C2965 C 0.0394 0.77218 0.6089 0.0
C2966 C 0.03601 0.74917 0.61978 0.0
C2967 C 0.04787 0.73326 0.6138 0.0
C2968 C 0.06349 0.74092 0.59706 0.0
C2969 C 0.0675 0.76361 0.5864 0.0
C2970 C 0.08605 0.76801 0.56935 0.0
C2971 C 0.07048 0.76514 0.55058 0.0
C2972 C 0.11309 0.79631 0.57058 0.0
C2973 C 0.09165 0.74413 0.572 0.0
C2974 C 0.07819 0.72856 0.58797 0.0
C2975 C 0.07936 0.7048 0.59293 0.0
C2976 C 0.09476 0.69681 0.58129 0.0
C2977 C 0.10903 0.71278 0.56512 0.0
C2978 C 0.10757 0.73676 0.56048 0.0
H2979 H 0.23241 0.27015 0.58688 0.0
H2980 H 0.21786 0.29092 0.64364 0.0
H2981 H 0.24055 0.34076 0.63454 0.0
H2982 H 0.29896 0.33051 0.57909 0.0
H2983 H 0.2928 0.33432 0.55433 0.0
H2984 H 0.27545 0.30039 0.56527 0.0
H2985 H 0.22755 0.29383 0.55525 0.0
H2986 H 0.24476 0.32765 0.54414 0.0
H2987 H 0.21846 0.31964 0.56202 0.0
H2988 H 0.26786 0.38856 0.6198 0.0
H2989 H 0.29305 0.4304 0.5995 0.0
H2990 H 0.28578 0.37812 0.55139 0.0
C2991 C 0.23388 0.28528 0.59727 0.0
C2992 C 0.22352 0.27701 0.61593 0.0
C2993 C 0.22566 0.2971 0.62926 0.0
C2994 C 0.23858 0.32535 0.62423 0.0
C2995 C 0.24886 0.33301 0.60574 0.0
C2996 C 0.24627 0.31351 0.59236 0.0
C2997 C 0.25851 0.32717 0.57334 0.0
C2998 C 0.28288 0.32284 0.56768 0.0
C2999 C 0.23597 0.31643 0.55777 0.0
C3000 C 0.26859 0.35739 0.57814 0.0
C3001 C 0.26312 0.36034 0.59696 0.0
C3002 C 0.27166 0.38643 0.60493 0.0
C3003 C 0.28571 0.41004 0.59327 0.0
C3004 C 0.29051 0.40738 0.57377 0.0
C3005 C 0.28206 0.3807 0.56622 0.0
H3006 H 0.03597 0.42351 0.79461 0.0
H3007 H 0.09365 0.45797 0.74734 0.0
H3008 H 0.05399 0.44015 0.72474 0.0
H3009 H 0.98461 0.36114 0.7712 0.0
H3010 H 0.95534 0.36157 0.78201 0.0
H3011 H 0.98823 0.3768 0.79433 0.0
H3012 H 0.98851 0.42355 0.79702 0.0
H3013 H 0.95562 0.40847 0.78472 0.0
H3014 H 0.98508 0.43984 0.77574 0.0
H3015 H 0.00818 0.41747 0.70741 0.0
H3016 H 0.95908 0.39356 0.69653 0.0
H3017 H 0.93107 0.37557 0.75515 0.0
C3018 C 0.04009 0.4272 0.77947 0.0
C3019 C 0.06763 0.44193 0.77254 0.0
C3020 C 0.07254 0.44669 0.75276 0.0
C3021 C 0.05021 0.43663 0.73989 0.0
C3022 C 0.0232 0.4221 0.74714 0.0
C3023 C 0.01803 0.41758 0.76647 0.0
C3024 C 0.98704 0.40184 0.77056 0.0
C3025 C 0.9783 0.37367 0.78009 0.0
C3026 C 0.97857 0.41948 0.78273 0.0
C3027 C 0.97556 0.39803 0.7505 0.0
C3028 C 0.99679 0.40974 0.7372 0.0
C3029 C 0.9914 0.40838 0.71769 0.0
C3030 C 0.96358 0.39479 0.71165 0.0
C3031 C 0.94164 0.38301 0.72506 0.0
C3032 C 0.94766 0.38465 0.7447 0.0
H3033 H 0.6278 0.56579 0.7455 0.0
H3034 H 0.59035 0.55219 0.68948 0.0
H3035 H 0.56587 0.57737 0.69925 0.0
H3036 H 0.56693 0.55559 0.77166 0.0
H3037 H 0.587 0.58175 0.78925 0.0
H3038 H 0.60163 0.56306 0.77759 0.0
H3039 H 0.64393 0.6099 0.76693 0.0
H3040 H 0.62923 0.62874 0.77832 0.0
H3041 H 0.63819 0.6342 0.75337 0.0
H3042 H 0.54743 0.60591 0.71476 0.0
H3043 H 0.53123 0.63043 0.73615 0.0
H3044 H 0.57819 0.62269 0.78277 0.0
C3045 C 0.61421 0.56798 0.73543 0.0
C3046 C 0.61071 0.55714 0.7168 0.0
C3047 C 0.59297 0.56029 0.70385 0.0
C3048 C 0.57922 0.57468 0.70924 0.0
C3049 C 0.58334 0.58551 0.72767 0.0
C3050 C 0.60004 0.58194 0.74067 0.0
C3051 C 0.6002 0.59479 0.75978 0.0
C3052 C 0.58822 0.57246 0.7755 0.0
C3053 C 0.62964 0.6183 0.76489 0.0
C3054 C 0.58099 0.60616 0.75551 0.0
C3055 C 0.57181 0.60093 0.73683 0.0
C3056 C 0.55416 0.60976 0.72948 0.0
C3057 C 0.54497 0.62352 0.74172 0.0
C3058 C 0.55301 0.62781 0.76112 0.0
C3059 C 0.57173 0.61958 0.76796 0.0
H3060 H 0.36398 0.95437 0.779 0.0
H3061 H 0.40122 0.91282 0.74892 0.0
H3062 H 0.42741 0.95432 0.7285 0.0
H3063 H 0.35746 0.99133 0.73788 0.0
H3064 H 0.36624 0.02237 0.75131 0.0
H3065 H 0.34934 0.98891 0.76295 0.0
H3066 H 0.38929 0.007 0.78773 0.0
H3067 H 0.40631 0.04048 0.77617 0.0
H3068 H 0.42474 0.02172 0.7796 0.0
H3069 H 0.45022 0.00035 0.7119 0.0
H3070 H 0.46945 0.04876 0.70066 0.0
H3071 H 0.41848 0.06147 0.74177 0.0
C3072 C 0.37739 0.95398 0.76793 0.0
C3073 C 0.3806 0.93045 0.76542 0.0
C3074 C 0.39865 0.93074 0.75106 0.0
C3075 C 0.41347 0.95414 0.73937 0.0
C3076 C 0.41005 0.97712 0.74225 0.0
C3077 C 0.39252 0.97731 0.75619 0.0
C3078 C 0.39354 0.00517 0.75677 0.0
C3079 C 0.36494 0.00173 0.75194 0.0
C3080 C 0.4041 0.01943 0.77622 0.0
C3081 C 0.41454 0.02067 0.74109 0.0
C3082 C 0.42362 0.00397 0.73284 0.0
C3083 C 0.44329 0.01362 0.71825 0.0
C3084 C 0.45418 0.04115 0.71203 0.0
C3085 C 0.44557 0.0588 0.72046 0.0
C3086 C 0.42529 0.04831 0.73505 0.0
H3087 H 0.6373 0.0625 0.24369 0.0
H3088 H 0.58315 0.04497 0.19485 0.0
H3089 H 0.55381 0.99635 0.20588 0.0
H3090 H 0.63419 0.99571 0.24502 0.0
H3091 H 0.63413 0.99407 0.27069 0.0
H3092 H 0.65099 0.02735 0.25883 0.0
H3093 H 0.62085 0.04243 0.27809 0.0
H3094 H 0.6039 0.0092 0.29 0.0
H3095 H 0.58345 0.02111 0.27743 0.0
H3096 H 0.53066 0.94973 0.22209 0.0
H3097 H 0.51462 0.90834 0.24276 0.0
H3098 H 0.58312 0.9562 0.28154 0.0
C3099 C 0.6193 0.04829 0.23534 0.0
C3100 C 0.6123 0.0573 0.21848 0.0
C3101 C 0.58861 0.03836 0.20789 0.0
C3102 C 0.57194 0.01076 0.21401 0.0
C3103 C 0.57929 0.00249 0.23076 0.0
C3104 C 0.60237 0.02067 0.2413 0.0
C3105 C 0.60542 0.00653 0.25891 0.0
C3106 C 0.63281 0.00588 0.25832 0.0
C3107 C 0.60327 0.02066 0.27719 0.0
C3108 C 0.58042 0.9776 0.25663 0.0
C3109 C 0.5657 0.9757 0.24025 0.0
C3110 C 0.54191 0.95102 0.23501 0.0
C3111 C 0.53287 0.9277 0.24687 0.0
C3112 C 0.54741 0.92929 0.26383 0.0
C3113 C 0.57159 0.95452 0.26867 0.0
H3114 H 0.93325 0.53046 0.24495 0.0
H3115 H 0.95469 0.58234 0.19453 0.0
H3116 H 0.00369 0.60886 0.20523 0.0
H3117 H 0.97569 0.58467 0.27685 0.0
H3118 H 0.98586 0.5642 0.29113 0.0
H3119 H 0.95309 0.54751 0.27866 0.0
H3120 H 0.96707 0.51468 0.26189 0.0
H3121 H 0.99995 0.53133 0.2743 0.0
H3122 H 0.99919 0.52935 0.24863 0.0
H3123 H 0.04924 0.63156 0.22212 0.0
H3124 H 0.08856 0.65033 0.24486 0.0
H3125 H 0.03835 0.58457 0.28487 0.0
C3126 C 0.94847 0.54714 0.2361 0.0
C3127 C 0.94043 0.55444 0.21891 0.0
C3128 C 0.9606 0.57659 0.20776 0.0
C3129 C 0.98843 0.59163 0.21367 0.0
C3130 C 0.99575 0.58423 0.2308 0.0
C3131 C 0.97641 0.56256 0.24191 0.0
C3132 C 0.98951 0.56021 0.26032 0.0
C3133 C 0.97518 0.56441 0.27777 0.0
C3134 C 0.98889 0.53223 0.26134 0.0
C3135 C 0.01905 0.58427 0.25798 0.0
C3136 C 0.02219 0.5976 0.24072 0.0
C3137 C 0.04712 0.62115 0.23558 0.0
C3138 C 0.0693 0.63166 0.24855 0.0
C3139 C 0.0664 0.61874 0.26645 0.0
C3140 C 0.04112 0.5945 0.27111 0.0
H3141 H 0.42518 0.35958 0.25528 0.0
H3142 H 0.45906 0.41178 0.20524 0.0
H3143 H 0.43897 0.44052 0.2159 0.0
H3144 H 0.36036 0.36074 0.25679 0.0
H3145 H 0.35941 0.36187 0.28245 0.0
H3146 H 0.37625 0.34522 0.27086 0.0
H3147 H 0.42177 0.37703 0.28936 0.0
H3148 H 0.40505 0.39369 0.30106 0.0
H3149 H 0.43693 0.4143 0.288 0.0
H3150 H 0.41554 0.4636 0.23193 0.0
H3151 H 0.39124 0.48051 0.25281 0.0
H3152 H 0.3724 0.41365 0.29271 0.0
C3153 C 0.42824 0.37704 0.2466 0.0
C3154 C 0.44378 0.38368 0.22952 0.0
C3155 C 0.4475 0.40666 0.21849 0.0
C3156 C 0.43603 0.42295 0.22437 0.0
C3157 C 0.42082 0.41592 0.24129 0.0
C3158 C 0.41691 0.39356 0.25229 0.0
C3159 C 0.40002 0.39081 0.27001 0.0
C3160 C 0.37237 0.363 0.27002 0.0
C3161 C 0.41696 0.39417 0.28818 0.0
C3162 C 0.39521 0.41522 0.26732 0.0
C3163 C 0.40731 0.42932 0.2506 0.0
C3164 C 0.40602 0.45277 0.24506 0.0
C3165 C 0.39229 0.46227 0.25703 0.0
C3166 C 0.38014 0.44847 0.27437 0.0
C3167 C 0.38136 0.42445 0.27945 0.0
H3168 H 0.90729 0.20982 0.15419 0.0
H3169 H 0.8729 0.13505 0.11947 0.0
H3170 H 0.82558 0.12248 0.12996 0.0
H3171 H 0.86255 0.18104 0.19324 0.0
H3172 H 0.85886 0.21099 0.19793 0.0
H3173 H 0.89004 0.21536 0.18678 0.0
H3174 H 0.88297 0.24086 0.15821 0.0
H3175 H 0.85213 0.23717 0.16949 0.0
H3176 H 0.85027 0.22439 0.14559 0.0
H3177 H 0.78255 0.11567 0.14679 0.0
H3178 H 0.74588 0.11926 0.16446 0.0
H3179 H 0.80829 0.19933 0.18707 0.0
C3180 C 0.88975 0.19111 0.14849 0.0
C3181 C 0.89376 0.17341 0.13603 0.0
C3182 C 0.87032 0.14905 0.1289 0.0
C3183 C 0.84336 0.14159 0.13491 0.0
C3184 C 0.84024 0.15893 0.1478 0.0
C3185 C 0.86271 0.18353 0.15413 0.0
C3186 C 0.85368 0.19851 0.1679 0.0
C3187 C 0.86708 0.20165 0.18762 0.0
C3188 C 0.86014 0.22691 0.15981 0.0
C3189 C 0.82268 0.17829 0.16852 0.0
C3190 C 0.81536 0.15543 0.15701 0.0
C3191 C 0.78796 0.13361 0.15569 0.0
C3192 C 0.76734 0.1357 0.16592 0.0
C3193 C 0.7743 0.15959 0.17707 0.0
C3194 C 0.80239 0.18086 0.1786 0.0
H3195 H 0.86552 0.62484 0.17825 0.0
H3196 H 0.78525 0.58293 0.20672 0.0
H3197 H 0.7746 0.61812 0.19421 0.0
H3198 H 0.87892 0.69519 0.18707 0.0
H3199 H 0.89588 0.70798 0.1644 0.0
H3200 H 0.89708 0.67958 0.1759 0.0
H3201 H 0.87639 0.64963 0.14547 0.0
H3202 H 0.87457 0.67775 0.13402 0.0
H3203 H 0.84367 0.64406 0.13619 0.0
H3204 H 0.77142 0.65604 0.17696 0.0
H3205 H 0.77912 0.69873 0.16057 0.0
H3206 H 0.86216 0.71691 0.14448 0.0
C3207 C 0.84586 0.62328 0.18204 0.0
C3208 C 0.82621 0.60116 0.19342 0.0
C3209 C 0.80072 0.59983 0.19813 0.0
C3210 C 0.79435 0.61956 0.19094 0.0
C3211 C 0.81382 0.64062 0.17929 0.0
C3212 C 0.8393 0.64298 0.17521 0.0
C3213 C 0.85687 0.66808 0.16279 0.0
C3214 C 0.88377 0.68894 0.17316 0.0
C3215 C 0.86324 0.65934 0.14347 0.0
C3216 C 0.83723 0.67939 0.16048 0.0
C3217 C 0.81235 0.66301 0.16986 0.0
C3218 C 0.79088 0.66916 0.16966 0.0
C3219 C 0.79537 0.69331 0.16018 0.0
C3220 C 0.82126 0.71112 0.1513 0.0
C3221 C 0.84216 0.70368 0.15115 0.0
H3222 H 0.3627 0.2356 0.19158 0.0
H3223 H 0.40058 0.19519 0.22254 0.0
H3224 H 0.36488 0.1497 0.20986 0.0
H3225 H 0.29001 0.17898 0.19815 0.0
H3226 H 0.27988 0.18416 0.17477 0.0
H3227 H 0.30729 0.21313 0.18749 0.0
H3228 H 0.34022 0.22291 0.15869 0.0
H3229 H 0.31315 0.19358 0.14606 0.0
H3230 H 0.34626 0.19573 0.15012 0.0
H3231 H 0.3286 0.10963 0.19093 0.0
H3232 H 0.28885 0.07608 0.17138 0.0
H3233 H 0.27328 0.1422 0.15397 0.0
C3234 C 0.36311 0.2171 0.19603 0.0
C3235 C 0.38441 0.21892 0.20801 0.0
C3236 C 0.38433 0.19428 0.21348 0.0
C3237 C 0.36427 0.16836 0.20624 0.0
C3238 C 0.34425 0.16745 0.19381 0.0
C3239 C 0.34306 0.19104 0.18913 0.0
C3240 C 0.31946 0.18436 0.17541 0.0
C3241 C 0.29788 0.19051 0.1845 0.0
C3242 C 0.33045 0.20008 0.15645 0.0
C3243 C 0.30791 0.15341 0.17284 0.0
C3244 C 0.32269 0.14413 0.18342 0.0
C3245 C 0.3166 0.11654 0.18278 0.0
C3246 C 0.29417 0.09772 0.1715 0.0
C3247 C 0.27799 0.10658 0.16124 0.0
C3248 C 0.28524 0.13486 0.16175 0.0
H3249 H 0.19725 0.90812 0.3374 0.0
H3250 H 0.1208 0.87126 0.37043 0.0
H3251 H 0.10896 0.82471 0.35866 0.0
H3252 H 0.1705 0.86312 0.29672 0.0
H3253 H 0.20146 0.8608 0.29317 0.0
H3254 H 0.20395 0.89149 0.30389 0.0
H3255 H 0.22877 0.8856 0.33336 0.0
H3256 H 0.22677 0.85519 0.32258 0.0
H3257 H 0.21255 0.85295 0.34606 0.0
H3258 H 0.10458 0.7824 0.3425 0.0
H3259 H 0.11127 0.74634 0.32678 0.0
H3260 H 0.19145 0.81046 0.30538 0.0
C3261 C 0.17811 0.89022 0.34223 0.0
C3262 C 0.15993 0.89329 0.35479 0.0
C3263 C 0.13514 0.86938 0.3609 0.0
C3264 C 0.12809 0.84287 0.35416 0.0
C3265 C 0.14619 0.84061 0.3415 0.0
C3266 C 0.17092 0.86355 0.33586 0.0
C3267 C 0.18727 0.85522 0.32281 0.0
C3268 C 0.191 0.86845 0.30297 0.0
C3269 C 0.21551 0.86267 0.33174 0.0
C3270 C 0.16788 0.82402 0.32206 0.0
C3271 C 0.14409 0.81608 0.33268 0.0
C3272 C 0.12316 0.78833 0.33419 0.0
C3273 C 0.12707 0.76802 0.3251 0.0
C3274 C 0.1519 0.7756 0.3149 0.0
C3275 C 0.17224 0.80403 0.31307 0.0
H3276 H 0.19535 0.39067 0.31449 0.0
H3277 H 0.25744 0.38443 0.34854 0.0
H3278 H 0.22009 0.34751 0.36791 0.0
H3279 H 0.14841 0.3807 0.35227 0.0
H3280 H 0.11743 0.35997 0.33836 0.0
H3281 H 0.14893 0.38562 0.32682 0.0
H3282 H 0.14738 0.34789 0.3042 0.0
H3283 H 0.11558 0.32227 0.3154 0.0
H3284 H 0.14497 0.3168 0.31419 0.0
H3285 H 0.17609 0.31266 0.3844 0.0
H3286 H 0.12837 0.27768 0.39399 0.0
H3287 H 0.09513 0.30632 0.34886 0.0
C3288 C 0.20112 0.38135 0.32588 0.0
C3289 C 0.22933 0.3905 0.33002 0.0
C3290 C 0.23597 0.37771 0.34504 0.0
C3291 C 0.21491 0.35687 0.35623 0.0
C3292 C 0.18736 0.34895 0.35213 0.0
C3293 C 0.18039 0.36043 0.33711 0.0
C3294 C 0.14916 0.34774 0.33542 0.0
C3295 C 0.14048 0.36983 0.3384 0.0
C3296 C 0.13866 0.33278 0.31617 0.0
C3297 C 0.13965 0.3273 0.35183 0.0
C3298 C 0.16201 0.32855 0.36143 0.0
C3299 C 0.1584 0.31142 0.37697 0.0
C3300 C 0.13119 0.29175 0.3824 0.0
C3301 C 0.108 0.28923 0.37217 0.0
C3302 C 0.1124 0.30778 0.35701 0.0
H3303 H 0.69887 0.78981 0.33437 0.0
H3304 H 0.7312 0.85974 0.37359 0.0
H3305 H 0.69731 0.87236 0.36137 0.0
H3306 H 0.68635 0.8227 0.29523 0.0
H3307 H 0.65421 0.79247 0.2881 0.0
H3308 H 0.68063 0.7883 0.30007 0.0
H3309 H 0.64525 0.75814 0.32619 0.0
H3310 H 0.61858 0.76174 0.31408 0.0
H3311 H 0.62616 0.77162 0.33879 0.0
H3312 H 0.66227 0.87929 0.34354 0.0
H3313 H 0.62269 0.87548 0.32505 0.0
H3314 H 0.61157 0.79986 0.29844 0.0
C3315 C 0.69856 0.80756 0.34055 0.0
C3316 C 0.71768 0.82382 0.3549 0.0
C3317 C 0.71662 0.84686 0.36267 0.0
C3318 C 0.69763 0.85436 0.35571 0.0
C3319 C 0.67964 0.83841 0.34116 0.0
C3320 C 0.67947 0.81513 0.33395 0.0
C3321 C 0.65735 0.80111 0.31874 0.0
C3322 C 0.67043 0.80116 0.29939 0.0
C3323 C 0.63554 0.7714 0.32482 0.0
C3324 C 0.64523 0.82024 0.3185 0.0
C3325 C 0.65869 0.84186 0.33132 0.0
C3326 C 0.6514 0.86235 0.33354 0.0
C3327 C 0.62904 0.86012 0.32286 0.0
C3328 C 0.61402 0.83733 0.31035 0.0
C3329 C 0.62266 0.81751 0.30789 0.0
H3330 H 0.23351 0.86377 0.80979 0.0
H3331 H 0.1961 0.78109 0.7849 0.0
H3332 H 0.14983 0.77159 0.79561 0.0
H3333 H 0.19211 0.84561 0.85089 0.0
H3334 H 0.18889 0.87638 0.85134 0.0
H3335 H 0.21904 0.87767 0.84067 0.0
H3336 H 0.20954 0.89547 0.80895 0.0
H3337 H 0.17966 0.89476 0.81964 0.0
H3338 H 0.17584 0.87603 0.7978 0.0
H3339 H 0.10841 0.76933 0.81184 0.0
H3340 H 0.07343 0.77709 0.82824 0.0
H3341 H 0.13744 0.86186 0.84128 0.0
C3342 C 0.21552 0.84386 0.80628 0.0
C3343 C 0.21844 0.82317 0.79654 0.0
C3344 C 0.19439 0.79735 0.79224 0.0
C3345 C 0.16802 0.79166 0.79838 0.0
C3346 C 0.166 0.81215 0.80854 0.0
C3347 C 0.18899 0.83795 0.81209 0.0
C3348 C 0.18112 0.8563 0.82335 0.0
C3349 C 0.19619 0.86446 0.84271 0.0
C3350 C 0.18688 0.88217 0.81174 0.0
C3351 C 0.15021 0.8366 0.82582 0.0
C3352 C 0.14194 0.81116 0.81734 0.0
C3353 C 0.11454 0.78928 0.81833 0.0
C3354 C 0.09489 0.79381 0.82781 0.0
C3355 C 0.10274 0.82009 0.83595 0.0
C3356 C 0.13082 0.8416 0.83509 0.0
H3357 H 0.18996 0.28348 0.83545 0.0
H3358 H 0.14485 0.26182 0.88913 0.0
H3359 H 0.12941 0.29565 0.88259 0.0
H3360 H 0.21308 0.35744 0.83753 0.0
H3361 H 0.2094 0.36009 0.8122 0.0
H3362 H 0.2173 0.33451 0.82138 0.0
H3363 H 0.17413 0.29577 0.80382 0.0
H3364 H 0.16582 0.32119 0.79486 0.0
H3365 H 0.14031 0.29176 0.80833 0.0
H3366 H 0.1172 0.3303 0.86972 0.0
H3367 H 0.11361 0.36758 0.85313 0.0
H3368 H 0.1671 0.36723 0.80801 0.0
C3369 C 0.17711 0.28608 0.84594 0.0
C3370 C 0.1686 0.26994 0.8628 0.0
C3371 C 0.15173 0.27396 0.87614 0.0
C3372 C 0.14268 0.29302 0.87251 0.0
C3373 C 0.15081 0.30801 0.85553 0.0
C3374 C 0.16798 0.30511 0.84259 0.0
C3375 C 0.17398 0.32409 0.82556 0.0
C3376 C 0.2053 0.34529 0.82409 0.0
C3377 C 0.16289 0.30719 0.80705 0.0
C3378 C 0.15746 0.33807 0.83096 0.0
C3379 C 0.14406 0.32831 0.84821 0.0
C3380 C 0.12768 0.3382 0.85622 0.0
C3381 C 0.12565 0.35929 0.84663 0.0
C3382 C 0.14009 0.37038 0.82927 0.0
C3383 C 0.15571 0.35914 0.8212 0.0
H3384 H 0.69858 0.90387 0.83505 0.0
H3385 H 0.72334 0.87216 0.88335 0.0
H3386 H 0.68695 0.82441 0.87522 0.0
H3387 H 0.62354 0.85443 0.83951 0.0
H3388 H 0.61824 0.85153 0.81407 0.0
H3389 H 0.64548 0.88339 0.82426 0.0
H3390 H 0.68144 0.88028 0.80234 0.0
H3391 H 0.65442 0.84814 0.79233 0.0
H3392 H 0.68464 0.84949 0.80301 0.0
H3393 H 0.6511 0.7801 0.86038 0.0
H3394 H 0.61276 0.74194 0.84257 0.0
H3395 H 0.60947 0.80215 0.80461 0.0
C3396 C 0.69603 0.88692 0.84409 0.0
C3397 C 0.71383 0.89173 0.85981 0.0
C3398 C 0.70987 0.86902 0.8713 0.0
C3399 C 0.68938 0.84178 0.86672 0.0
C3400 C 0.6728 0.83767 0.85078 0.0
C3401 C 0.67543 0.8596 0.83987 0.0
C3402 C 0.65474 0.84936 0.82355 0.0
C3403 C 0.63428 0.86032 0.82547 0.0
C3404 C 0.66972 0.85729 0.80416 0.0
C3405 C 0.64037 0.81823 0.82688 0.0
C3406 C 0.65134 0.81199 0.84255 0.0
C3407 C 0.64208 0.78469 0.8482 0.0
C3408 C 0.62042 0.76315 0.83788 0.0
C3409 C 0.60803 0.76906 0.82222 0.0
C3410 C 0.61846 0.79698 0.81654 0.0
H3411 H 0.80426 0.10302 0.67155 0.0
H3412 H 0.84523 0.12824 0.61645 0.0
H3413 H 0.85667 0.17654 0.62276 0.0
H3414 H 0.77487 0.14912 0.67083 0.0
H3415 H 0.78 0.15605 0.69606 0.0
H3416 H 0.77406 0.12323 0.68679 0.0
H3417 H 0.81984 0.13162 0.70267 0.0
H3418 H 0.82615 0.16467 0.71172 0.0
H3419 H 0.85205 0.16293 0.69719 0.0
H3420 H 0.86629 0.22236 0.63576 0.0
H3421 H 0.86892 0.26221 0.65313 0.0
H3422 H 0.82088 0.20715 0.69955 0.0
C3423 C 0.81531 0.11862 0.6607 0.0
C3424 C 0.8239 0.11188 0.64353 0.0
C3425 C 0.83835 0.13289 0.6297 0.0
C3426 C 0.84508 0.16042 0.63318 0.0
C3427 C 0.837 0.1665 0.65047 0.0
C3428 C 0.82205 0.14617 0.66389 0.0
C3429 C 0.81589 0.15831 0.68131 0.0
C3430 C 0.78433 0.14595 0.68389 0.0
C3431 C 0.82929 0.15413 0.69928 0.0
C3432 C 0.82997 0.18869 0.67564 0.0
C3433 C 0.84215 0.19296 0.65786 0.0
C3434 C 0.85666 0.21928 0.64965 0.0
C3435 C 0.85815 0.24181 0.65968 0.0
C3436 C 0.84504 0.2378 0.67768 0.0
C3437 C 0.83112 0.2109 0.68583 0.0
H3438 H 0.90272 0.71274 0.66022 0.0
H3439 H 0.86398 0.74944 0.62608 0.0
H3440 H 0.81773 0.7133 0.63733 0.0
H3441 H 0.8501 0.64133 0.65142 0.0
H3442 H 0.85226 0.6299 0.6751 0.0
H3443 H 0.88231 0.65905 0.66458 0.0
H3444 H 0.88589 0.68943 0.69373 0.0
H3445 H 0.85557 0.66046 0.7042 0.0
H3446 H 0.85637 0.69297 0.70024 0.0
H3447 H 0.77597 0.67439 0.65303 0.0
H3448 H 0.7407 0.63116 0.66861 0.0
H3449 H 0.80636 0.61859 0.69153 0.0
C3450 C 0.88448 0.71307 0.65504 0.0
C3451 C 0.88691 0.73389 0.64232 0.0
C3452 C 0.86259 0.73357 0.63575 0.0
C3453 C 0.83624 0.71329 0.64218 0.0
C3454 C 0.8346 0.69337 0.65502 0.0
C3455 C 0.85798 0.69278 0.66113 0.0
C3456 C 0.85031 0.66839 0.67433 0.0
C3457 C 0.85927 0.64849 0.66584 0.0
C3458 C 0.86278 0.67843 0.69431 0.0
C3459 C 0.81895 0.65533 0.6746 0.0
C3460 C 0.81037 0.67034 0.66361 0.0
C3461 C 0.78238 0.66237 0.66162 0.0
C3462 C 0.76253 0.63787 0.67062 0.0
C3463 C 0.7708 0.62146 0.68122 0.0
C3464 C 0.79942 0.63068 0.68352 0.0
H3465 H 0.38913 0.19143 0.69019 0.0
H3466 H 0.38555 0.12581 0.65436 0.0
H3467 H 0.34793 0.12557 0.63548 0.0
H3468 H 0.31466 0.16521 0.69077 0.0
H3469 H 0.31865 0.19952 0.69043 0.0
H3470 H 0.34512 0.19419 0.70115 0.0
H3471 H 0.38206 0.23219 0.67906 0.0
H3472 H 0.35559 0.23726 0.66802 0.0
H3473 H 0.37722 0.22879 0.65357 0.0
H3474 H 0.31228 0.13391 0.61958 0.0
H3475 H 0.27629 0.14548 0.61052 0.0
H3476 H 0.30223 0.20481 0.65718 0.0
C3477 C 0.38025 0.1768 0.6785 0.0
C3478 C 0.39036 0.15869 0.67374 0.0
C3479 C 0.37812 0.13983 0.65834 0.0
C3480 C 0.35688 0.13967 0.64742 0.0
C3481 C 0.34796 0.15833 0.65217 0.0
C3482 C 0.35888 0.17619 0.66754 0.0
C3483 C 0.34507 0.19365 0.6699 0.0
C3484 C 0.32997 0.18778 0.6892 0.0
C3485 C 0.36626 0.22482 0.66749 0.0
C3486 C 0.32466 0.18278 0.65345 0.0
C3487 C 0.32692 0.16269 0.64326 0.0
C3488 C 0.31021 0.14953 0.62748 0.0
C3489 C 0.28995 0.1564 0.62237 0.0
C3490 C 0.28639 0.17601 0.63315 0.0
C3491 C 0.30445 0.18977 0.64863 0.0
H3492 H 0.46664 0.50927 0.53404 0.0
H3493 H 0.40587 0.45091 0.49383 0.0
H3494 H 0.44371 0.45139 0.4751 0.0
H3495 H 0.51767 0.55046 0.50049 0.0
H3496 H 0.54697 0.55617 0.51491 0.0
H3497 H 0.51513 0.54985 0.52614 0.0
H3498 H 0.51235 0.50822 0.54486 0.0
H3499 H 0.5445 0.51476 0.53399 0.0
H3500 H 0.51387 0.48082 0.53206 0.0
H3501 H 0.48818 0.46115 0.45932 0.0
H3502 H 0.53615 0.47489 0.44972 0.0
H3503 H 0.56783 0.52637 0.50044 0.0
C3504 C 0.46121 0.49615 0.52152 0.0
C3505 C 0.43329 0.48011 0.5154 0.0
C3506 C 0.4271 0.46336 0.49884 0.0
C3507 C 0.44845 0.46358 0.48803 0.0
C3508 C 0.47581 0.48046 0.49407 0.0
C3509 C 0.48224 0.49604 0.5106 0.0
C3510 C 0.51339 0.51269 0.51378 0.0
C3511 C 0.52389 0.54415 0.51383 0.0
C3512 C 0.5215 0.50357 0.53227 0.0
C3513 C 0.52346 0.50426 0.49634 0.0
C3514 C 0.50147 0.48579 0.4851 0.0
C3515 C 0.50559 0.47542 0.46808 0.0
C3516 C 0.53293 0.48353 0.46267 0.0
C3517 C 0.55573 0.50168 0.47434 0.0
C3518 C 0.55085 0.51246 0.49122 0.0
H3519 H 0.48599 0.04854 0.4862 0.0
H3520 H 0.53866 0.07326 0.43588 0.0
H3521 H 0.54922 0.03563 0.44205 0.0
H3522 H 0.5291 0.03423 0.51526 0.0
H3523 H 0.50089 0.0047 0.52702 0.0
H3524 H 0.4958 0.0322 0.51794 0.0
H3525 H 0.45386 0.99658 0.49775 0.0
H3526 H 0.45853 0.96889 0.507 0.0
H3527 H 0.45832 0.97381 0.48161 0.0
H3528 H 0.55562 0.99664 0.4546 0.0
H3529 H 0.55529 0.95745 0.47157 0.0
H3530 H 0.49921 0.95938 0.51398 0.0
C3531 C 0.4994 0.04582 0.47628 0.0
C3532 C 0.51145 0.0638 0.46052 0.0
C3533 C 0.5291 0.05966 0.448 0.0
C3534 C 0.5353 0.03842 0.45142 0.0
C3535 C 0.52366 0.02157 0.4674 0.0
C3536 C 0.5059 0.02489 0.47952 0.0
C3537 C 0.49668 0.00453 0.49596 0.0
C3538 C 0.5062 0.01984 0.51518 0.0
C3539 C 0.46497 0.98478 0.49554 0.0
C3540 C 0.5122 0.98933 0.49127 0.0
C3541 C 0.52761 0.99942 0.47474 0.0
C3542 C 0.54357 0.98851 0.46753 0.0
C3543 C 0.54331 0.96633 0.47731 0.0
C3544 C 0.52728 0.9554 0.49412 0.0
C3545 C 0.51184 0.96737 0.50125 0.0
H3546 H 0.96122 0.48382 0.47075 0.0
H3547 H 0.97136 0.42053 0.50015 0.0
H3548 H 0.0136 0.45729 0.51591 0.0
H3549 H 0.03602 0.53311 0.46369 0.0
H3550 H 0.03184 0.56297 0.46742 0.0
H3551 H 0.00376 0.53154 0.45736 0.0
H3552 H 0.971 0.5306 0.48408 0.0
H3553 H 0.99907 0.5617 0.49443 0.0
H3554 H 0.98048 0.53067 0.50868 0.0
H3555 H 0.05187 0.50078 0.5308 0.0
H3556 H 0.08706 0.54813 0.54094 0.0
H3557 H 0.05252 0.58305 0.50128 0.0
C3558 C 0.97261 0.47764 0.48021 0.0
C3559 C 0.96294 0.44929 0.48424 0.0
C3560 C 0.9784 0.4421 0.49678 0.0
C3561 C 0.00235 0.46284 0.50587 0.0
C3562 C 0.0107 0.49059 0.5021 0.0
C3563 C 0.99661 0.49803 0.48931 0.0
C3564 C 0.00958 0.52936 0.48808 0.0
C3565 C 0.02098 0.53986 0.46794 0.0
C3566 C 0.98879 0.53861 0.49418 0.0
C3567 C 0.03288 0.53836 0.50245 0.0
C3568 C 0.03309 0.51568 0.51043 0.0
C3569 C 0.05212 0.51872 0.52451 0.0
C3570 C 0.07188 0.54571 0.53027 0.0
C3571 C 0.07255 0.56928 0.52188 0.0
C3572 C 0.05259 0.56544 0.50791 0.0
H3573 H 0.46603 0.42463 0.00802 0.0
H3574 H 0.52387 0.4544 0.96041 0.0
H3575 H 0.54071 0.50283 0.97048 0.0
H3576 H 0.44861 0.47959 0.00577 0.0
H3577 H 0.44596 0.4812 0.03131 0.0
H3578 H 0.43841 0.44897 0.02009 0.0
H3579 H 0.47495 0.44661 0.04187 0.0
H3580 H 0.48305 0.47918 0.05285 0.0
H3581 H 0.51031 0.47521 0.04197 0.0
H3582 H 0.55286 0.54776 0.98647 0.0
H3583 H 0.55439 0.58675 0.00433 0.0
H3584 H 0.4879 0.52787 0.04114 0.0
C3585 C 0.482 0.44135 0.99958 0.0
C3586 C 0.49366 0.43574 0.98345 0.0
C3587 C 0.5145 0.45818 0.97276 0.0
C3588 C 0.52441 0.48576 0.97846 0.0
C3589 C 0.5131 0.49053 0.99477 0.0
C3590 C 0.49198 0.46902 0.00497 0.0
C3591 C 0.48287 0.4799 0.02164 0.0
C3592 C 0.45214 0.47195 0.01957 0.0
C3593 C 0.48812 0.46961 0.04071 0.0
C3594 C 0.50217 0.51091 0.0192 0.0
C3595 C 0.51969 0.51655 0.00377 0.0
C3596 C 0.53917 0.54365 0.99853 0.0
C3597 C 0.53998 0.56566 0.00886 0.0
C3598 C 0.52119 0.56039 0.02411 0.0
C3599 C 0.50262 0.53261 0.02962 0.0
H3600 H 0.5254 0.042 0.97394 0.0
H3601 H 0.58659 0.03998 0.01156 0.0
H3602 H 0.54902 0.99977 0.02853 0.0
H3603 H 0.47315 0.02544 0.00891 0.0
H3604 H 0.44447 0.00386 0.99335 0.0
H3605 H 0.47617 0.03188 0.98358 0.0
H3606 H 0.48057 0.99734 0.96092 0.0
H3607 H 0.44866 0.96928 0.97043 0.0
H3608 H 0.47995 0.96698 0.97073 0.0
H3609 H 0.50471 0.96116 0.0423 0.0
H3610 H 0.45702 0.9241 0.05014 0.0
H3611 H 0.42483 0.95116 0.00338 0.0
C3612 C 0.53097 0.03293 0.9856 0.0
C3613 C 0.55895 0.04419 0.99143 0.0
C3614 C 0.56531 0.03172 0.00681 0.0
C3615 C 0.54411 0.00893 0.01659 0.0
C3616 C 0.5167 0.9988 0.01077 0.0
C3617 C 0.51009 0.01016 0.9955 0.0
C3618 C 0.47896 0.99533 0.99214 0.0
C3619 C 0.46753 0.01533 0.99465 0.0
C3620 C 0.47161 0.9814 0.97238 0.0
C3621 C 0.4691 0.97394 0.00797 0.0
C3622 C 0.49118 0.97638 0.01861 0.0
C3623 C 0.48725 0.95896 0.03403 0.0
C3624 C 0.46005 0.93806 0.03842 0.0
C3625 C 0.43717 0.9347 0.02738 0.0
C3626 C 0.44185 0.95319 0.01212 0.0
H3627 H 0.05407 0.52841 0.03345 0.0
H3628 H 0.04113 0.44857 0.01369 0.0
H3629 H 0.99984 0.4412 0.99563 0.0
H3630 H 0.97922 0.50584 0.03831 0.0
H3631 H 0.98448 0.53915 0.03062 0.0
H3632 H 0.01183 0.53709 0.04304 0.0
H3633 H 0.04545 0.56304 0.01505 0.0
H3634 H 0.01807 0.56463 0.00235 0.0
H3635 H 0.03625 0.54899 0.99127 0.0
H3636 H 0.96371 0.44504 0.97677 0.0
H3637 H 0.92949 0.45585 0.96264 0.0
H3638 H 0.96408 0.53194 0.99598 0.0
C3639 C 0.04219 0.50911 0.02566 0.0
C3640 C 0.05084 0.48911 0.02493 0.0
C3641 C 0.0348 0.46413 0.01455 0.0
C3642 C 0.01143 0.45982 0.00413 0.0
C3643 C 0.00414 0.48047 0.00453 0.0
C3644 C 0.01856 0.50428 0.01541 0.0
C3645 C 0.00633 0.5232 0.01331 0.0
C3646 C 0.99477 0.5265 0.03246 0.0
C3647 C 0.02781 0.55164 0.005 0.0
C3648 C 0.98318 0.50657 0.99922 0.0
C3649 C 0.98249 0.48213 0.99421 0.0
C3650 C 0.96375 0.46389 0.98079 0.0
C3651 C 0.94459 0.47037 0.9727 0.0
C3652 C 0.94412 0.49469 0.97827 0.0
C3653 C 0.9639 0.51314 0.99154 0.0
loop_
_geom_bond_atom_site_label_1
_geom_bond_atom_site_label_2
_geom_bond_distance
_geom_bond_site_symmetry_2
_ccdc_geom_bond_type
Co0 O3 1.970 . S
Co0 N17 2.010 . S
Co0 O25 1.967 . S
Co0 O32 1.920 . S
Co1 O4 1.966 1_455 S
Co1 N10 2.022 . S
Co1 N18 1.993 . S
Co1 O26 1.941 . S
C2 O3 1.258 . S
C2 O4 1.263 . S
O3 Co0 1.970 . S
O3 C2 1.258 . S
O4 Co1 1.966 1_655 S
O4 C2 1.263 . S
C5 O6 1.235 . S
C5 O32 1.289 . S
O6 C5 1.235 . S
C7 C9 1.400 . S
C7 N10 1.351 . S
C7 C12 1.501 . S
C8 C9 1.387 . S
C8 N11 1.341 . S
C9 C7 1.400 . S
C9 C8 1.387 . S
N10 Co1 2.022 . S
N10 C7 1.351 . S
N10 N11 1.365 . S
N11 C8 1.341 . S
N11 N10 1.365 . S
N11 H31 0.862 . S
C12 C7 1.501 . S
C12 H13 0.961 . S
C12 H14 0.961 . S
C12 H15 0.960 . S
H13 C12 0.961 . S
H14 C12 0.961 . S
H15 C12 0.960 . S
C16 N17 1.351 1_455 S
C16 C20 1.401 . S
C16 C21 1.499 1_455 S
N17 Co0 2.010 . S
N17 C16 1.351 1_655 S
N17 N18 1.349 1_655 S
N18 Co1 1.993 . S
N18 N17 1.349 1_455 S
N18 C19 1.346 . S
C19 N18 1.346 . S
C19 C20 1.396 . S
C19 C29 1.510 . S
C20 C16 1.401 . S
C20 C19 1.396 . S
C21 C16 1.499 1_655 S
C21 H22 0.959 . S
C21 H23 0.960 . S
C21 H24 0.961 . S
H22 C21 0.959 . S
H23 C21 0.960 . S
H24 C21 0.961 . S
O25 Co0 1.967 . S
O25 C33 1.218 1_655 S
O26 Co1 1.941 . S
O26 C33 1.308 . S
H27 C29 0.959 . S
H28 C29 0.961 . S
C29 C19 1.510 . S
C29 H27 0.959 . S
C29 H28 0.961 . S
C29 H30 0.960 . S
H30 C29 0.960 . S
H31 N11 0.862 . S
O32 Co0 1.920 . S
O32 C5 1.289 . S
C33 O25 1.218 1_455 S
C33 O26 1.308 . S
Co34 O37 1.970 . S
Co34 N51 1.989 . S
Co34 O59 1.967 . S
Co34 O66 1.920 . S
Co35 O38 1.966 . S
Co35 N44 2.022 . S
Co35 N52 1.993 . S
Co35 O60 1.941 . S
C36 O37 1.258 . S
C36 O38 1.263 . S
O37 Co34 1.970 . S
O37 C36 1.258 . S
O38 Co35 1.966 . S
O38 C36 1.263 . S
C39 O40 1.235 . S
C39 O66 1.289 . S
O40 C39 1.235 . S
C41 C43 1.400 . S
C41 N44 1.351 . S
C41 C46 1.501 . S
C42 C43 1.387 . S
C42 N45 1.341 . S
C43 C41 1.400 . S
C43 C42 1.387 . S
N44 Co35 2.022 . S
N44 C41 1.351 . S
N44 N45 1.365 . S
N45 C42 1.341 . S
N45 N44 1.365 . S
N45 H65 0.862 . S
C46 C41 1.501 . S
C46 H47 0.961 . S
C46 H48 0.961 . S
C46 H49 0.960 . S
H47 C46 0.961 . S
H48 C46 0.961 . S
H49 C46 0.960 . S
C50 N51 1.342 . S
C50 C54 1.401 . S
C50 C55 1.499 . S
N51 Co34 1.989 . S
N51 C50 1.342 . S
N51 N52 1.388 . S
N52 Co35 1.993 . S
N52 N51 1.388 . S
N52 C53 1.346 . S
C53 N52 1.346 . S
C53 C54 1.396 . S
C53 C63 1.510 . S
C54 C50 1.401 . S
C54 C53 1.396 . S
C55 C50 1.499 . S
C55 H56 0.959 . S
C55 H57 0.960 . S
C55 H58 0.961 . S
H56 C55 0.959 . S
H57 C55 0.960 . S
H58 C55 0.961 . S
O59 Co34 1.967 . S
O59 C67 1.258 . S
O60 Co35 1.941 . S
O60 C67 1.266 . S
H61 C63 0.959 . S
H62 C63 0.961 . S
C63 C53 1.510 . S
C63 H61 0.959 . S
C63 H62 0.961 . S
C63 H64 0.960 . S
H64 C63 0.960 . S
H65 N45 0.862 . S
O66 Co34 1.920 . S
O66 C39 1.289 . S
C67 O59 1.258 . S
C67 O60 1.266 . S
Co68 O71 1.970 . S
Co68 N85 2.021 . S
Co68 O93 1.967 . S
Co68 O100 1.920 . S
Co69 O72 1.966 1_565 S
Co69 N78 2.022 . S
Co69 N86 1.993 . S
Co69 O94 1.941 . S
C70 O71 1.258 . S
C70 O72 1.263 . S
O71 Co68 1.970 . S
O71 C70 1.258 . S
O72 Co69 1.966 1_545 S
O72 C70 1.263 . S
C73 O74 1.235 . S
C73 O100 1.289 . S
O74 C73 1.235 . S
C75 C77 1.400 . S
C75 N78 1.351 . S
C75 C80 1.501 . S
C76 C77 1.387 . S
C76 N79 1.341 . S
C77 C75 1.400 . S
C77 C76 1.387 . S
N78 Co69 2.022 . S
N78 C75 1.351 . S
N78 N79 1.365 . S
N79 C76 1.341 . S
N79 N78 1.365 . S
N79 H99 0.862 . S
C80 C75 1.501 . S
C80 H81 0.961 . S
C80 H82 0.961 . S
C80 H83 0.960 . S
H81 C80 0.961 . S
H82 C80 0.961 . S
H83 C80 0.960 . S
C84 N85 1.318 1_565 S
C84 C88 1.401 . S
C84 C89 1.499 1_565 S
N85 Co68 2.021 . S
N85 C84 1.318 1_545 S
N85 N86 1.375 1_545 S
N86 Co69 1.993 . S
N86 N85 1.375 1_565 S
N86 C87 1.346 . S
C87 N86 1.346 . S
C87 C88 1.396 . S
C87 C97 1.510 . S
C88 C84 1.401 . S
C88 C87 1.396 . S
C89 C84 1.499 1_545 S
C89 H90 0.959 . S
C89 H91 0.960 . S
C89 H92 0.961 . S
H90 C89 0.959 . S
H91 C89 0.960 . S
H92 C89 0.961 . S
O93 Co68 1.967 . S
O93 C101 1.236 1_545 S
O94 Co69 1.941 . S
O94 C101 1.286 . S
H95 C97 0.959 . S
H96 C97 0.961 . S
C97 C87 1.510 . S
C97 H95 0.959 . S
C97 H96 0.961 . S
C97 H98 0.960 . S
H98 C97 0.960 . S
H99 N79 0.862 . S
O100 Co68 1.920 . S
O100 C73 1.289 . S
C101 O93 1.236 1_565 S
C101 O94 1.286 . S
Co102 O105 1.970 . S
Co102 N119 2.010 . S
Co102 O127 1.967 . S
Co102 O134 1.920 . S
Co103 O106 1.966 1_545 S
Co103 N112 2.022 . S
Co103 N120 1.993 . S
Co103 O128 1.941 . S
C104 O105 1.258 . S
C104 O106 1.263 . S
O105 Co102 1.970 . S
O105 C104 1.258 . S
O106 Co103 1.966 1_565 S
O106 C104 1.263 . S
C107 O108 1.235 . S
C107 O134 1.289 . S
O108 C107 1.235 . S
C109 C111 1.400 . S
C109 N112 1.351 . S
C109 C114 1.501 . S
C110 C111 1.387 . S
C110 N113 1.341 . S
C111 C109 1.400 . S
C111 C110 1.387 . S
N112 Co103 2.022 . S
N112 C109 1.351 . S
N112 N113 1.365 . S
N113 C110 1.341 . S
N113 N112 1.365 . S
N113 H133 0.862 . S
C114 C109 1.501 . S
C114 H115 0.961 . S
C114 H116 0.961 . S
C114 H117 0.960 . S
H115 C114 0.961 . S
H116 C114 0.961 . S
H117 C114 0.960 . S
C118 N119 1.351 1_545 S
C118 C122 1.401 . S
C118 C123 1.499 1_545 S
N119 Co102 2.010 . S
N119 C118 1.351 1_565 S
N119 N120 1.349 1_565 S
N120 Co103 1.993 . S
N120 N119 1.349 1_545 S
N120 C121 1.346 . S
C121 N120 1.346 . S
C121 C122 1.396 . S
C121 C131 1.510 . S
C122 C118 1.401 . S
C122 C121 1.396 . S
C123 C118 1.499 1_565 S
C123 H124 0.959 . S
C123 H125 0.960 . S
C123 H126 0.961 . S
H124 C123 0.959 . S
H125 C123 0.960 . S
H126 C123 0.961 . S
O127 Co102 1.967 . S
O127 C135 1.218 1_565 S
O128 Co103 1.941 . S
O128 C135 1.308 . S
H129 C131 0.959 . S
H130 C131 0.961 . S
C131 C121 1.510 . S
C131 H129 0.959 . S
C131 H130 0.961 . S
C131 H132 0.960 . S
H132 C131 0.960 . S
H133 N113 0.862 . S
O134 Co102 1.920 . S
O134 C107 1.289 . S
C135 O127 1.218 1_545 S
C135 O128 1.308 . S
Co136 O139 1.970 . S
Co136 N153 2.021 . S
Co136 O161 1.967 . S
Co136 O168 1.920 . S
Co137 O140 1.966 1_655 S
Co137 N146 2.022 . S
Co137 N154 1.993 . S
Co137 O162 1.941 . S
C138 O139 1.258 . S
C138 O140 1.263 . S
O139 Co136 1.970 . S
O139 C138 1.258 . S
O140 Co137 1.966 1_455 S
O140 C138 1.263 . S
C141 O142 1.235 . S
C141 O168 1.289 . S
O142 C141 1.235 . S
C143 C145 1.400 . S
C143 N146 1.351 . S
C143 C148 1.501 . S
C144 C145 1.387 . S
C144 N147 1.341 . S
C145 C143 1.400 . S
C145 C144 1.387 . S
N146 Co137 2.022 . S
N146 C143 1.351 . S
N146 N147 1.365 . S
N147 C144 1.341 . S
N147 N146 1.365 . S
N147 H167 0.862 . S
C148 C143 1.501 . S
C148 H149 0.961 . S
C148 H150 0.961 . S
C148 H151 0.960 . S
H149 C148 0.961 . S
H150 C148 0.961 . S
H151 C148 0.960 . S
C152 N153 1.318 1_655 S
C152 C156 1.401 . S
C152 C157 1.499 1_655 S
N153 Co136 2.021 . S
N153 C152 1.318 1_455 S
N153 N154 1.375 1_455 S
N154 Co137 1.993 . S
N154 N153 1.375 1_655 S
N154 C155 1.346 . S
C155 N154 1.346 . S
C155 C156 1.396 . S
C155 C165 1.510 . S
C156 C152 1.401 . S
C156 C155 1.396 . S
C157 C152 1.499 1_455 S
C157 H158 0.959 . S
C157 H159 0.960 . S
C157 H160 0.961 . S
H158 C157 0.959 . S
H159 C157 0.960 . S
H160 C157 0.961 . S
O161 Co136 1.967 . S
O161 C169 1.236 1_455 S
O162 Co137 1.941 . S
O162 C169 1.286 . S
H163 C165 0.959 . S
H164 C165 0.961 . S
C165 C155 1.510 . S
C165 H163 0.959 . S
C165 H164 0.961 . S
C165 H166 0.960 . S
H166 C165 0.960 . S
H167 N147 0.862 . S
O168 Co136 1.920 . S
O168 C141 1.289 . S
C169 O161 1.236 1_655 S
C169 O162 1.286 . S
Co170 O173 1.970 . S
Co170 N187 1.989 . S
Co170 O195 1.967 . S
Co170 O202 1.920 . S
Co171 O174 1.966 . S
Co171 N180 2.022 . S
Co171 N188 1.993 . S
Co171 O196 1.941 . S
C172 O173 1.258 . S
C172 O174 1.263 . S
O173 Co170 1.970 . S
O173 C172 1.258 . S
O174 Co171 1.966 . S
O174 C172 1.263 . S
C175 O176 1.235 . S
C175 O202 1.289 . S
O176 C175 1.235 . S
C177 C179 1.400 . S
C177 N180 1.351 . S
C177 C182 1.501 . S
C178 C179 1.387 . S
C178 N181 1.341 . S
C179 C177 1.400 . S
C179 C178 1.387 . S
N180 Co171 2.022 . S
N180 C177 1.351 . S
N180 N181 1.365 . S
N181 C178 1.341 . S
N181 N180 1.365 . S
N181 H201 0.862 . S
C182 C177 1.501 . S
C182 H183 0.961 . S
C182 H184 0.961 . S
C182 H185 0.960 . S
H183 C182 0.961 . S
H184 C182 0.961 . S
H185 C182 0.960 . S
C186 N187 1.342 . S
C186 C190 1.401 . S
C186 C191 1.499 . S
N187 Co170 1.989 . S
N187 C186 1.342 . S
N187 N188 1.388 . S
N188 Co171 1.993 . S
N188 N187 1.388 . S
N188 C189 1.346 . S
C189 N188 1.346 . S
C189 C190 1.396 . S
C189 C199 1.510 . S
C190 C186 1.401 . S
C190 C189 1.396 . S
C191 C186 1.499 . S
C191 H192 0.959 . S
C191 H193 0.960 . S
C191 H194 0.961 . S
H192 C191 0.959 . S
H193 C191 0.960 . S
H194 C191 0.961 . S
O195 Co170 1.967 . S
O195 C203 1.258 . S
O196 Co171 1.941 . S
O196 C203 1.266 . S
H197 C199 0.959 . S
H198 C199 0.961 . S
C199 C189 1.510 . S
C199 H197 0.959 . S
C199 H198 0.961 . S
C199 H200 0.960 . S
H200 C199 0.960 . S
H201 N181 0.862 . S
O202 Co170 1.920 . S
O202 C175 1.289 . S
C203 O195 1.258 . S
C203 O196 1.266 . S
Co204 O207 1.970 . S
Co204 N221 2.010 . S
Co204 O229 1.967 . S
Co204 O236 1.920 . S
Co205 O208 1.966 1_655 S
Co205 N214 2.022 . S
Co205 N222 1.993 . S
Co205 O230 1.941 . S
C206 O207 1.258 . S
C206 O208 1.263 . S
O207 Co204 1.970 . S
O207 C206 1.258 . S
O208 Co205 1.966 1_455 S
O208 C206 1.263 . S
C209 O210 1.235 . S
C209 O236 1.289 . S
O210 C209 1.235 . S
C211 C213 1.400 . S
C211 N214 1.351 . S
C211 C216 1.501 . S
C212 C213 1.387 . S
C212 N215 1.341 . S
C213 C211 1.400 . S
C213 C212 1.387 . S
N214 Co205 2.022 . S
N214 C211 1.351 . S
N214 N215 1.365 . S
N215 C212 1.341 . S
N215 N214 1.365 . S
N215 H235 0.862 . S
C216 C211 1.501 . S
C216 H217 0.961 . S
C216 H218 0.961 . S
C216 H219 0.960 . S
H217 C216 0.961 . S
H218 C216 0.961 . S
H219 C216 0.960 . S
C220 N221 1.351 1_655 S
C220 C224 1.401 . S
C220 C225 1.499 1_655 S
N221 Co204 2.010 . S
N221 C220 1.351 1_455 S
N221 N222 1.349 1_455 S
N222 Co205 1.993 . S
N222 N221 1.349 1_655 S
N222 C223 1.346 . S
C223 N222 1.346 . S
C223 C224 1.396 . S
C223 C233 1.510 . S
C224 C220 1.401 . S
C224 C223 1.396 . S
C225 C220 1.499 1_455 S
C225 H226 0.959 . S
C225 H227 0.960 . S
C225 H228 0.961 . S
H226 C225 0.959 . S
H227 C225 0.960 . S
H228 C225 0.961 . S
O229 Co204 1.967 . S
O229 C237 1.218 1_455 S
O230 Co205 1.941 . S
O230 C237 1.308 . S
H231 C233 0.959 . S
H232 C233 0.961 . S
C233 C223 1.510 . S
C233 H231 0.959 . S
C233 H232 0.961 . S
C233 H234 0.960 . S
H234 C233 0.960 . S
H235 N215 0.862 . S
O236 Co204 1.920 . S
O236 C209 1.289 . S
C237 O229 1.218 1_655 S
C237 O230 1.308 . S
Co238 O241 1.970 . S
Co238 N255 1.989 . S
Co238 O263 1.967 . S
Co238 O270 1.920 . S
Co239 O242 1.966 . S
Co239 N248 2.022 . S
Co239 N256 1.993 . S
Co239 O264 1.941 . S
C240 O241 1.258 . S
C240 O242 1.263 . S
O241 Co238 1.970 . S
O241 C240 1.258 . S
O242 Co239 1.966 . S
O242 C240 1.263 . S
C243 O244 1.235 . S
C243 O270 1.289 . S
O244 C243 1.235 . S
C245 C247 1.400 . S
C245 N248 1.351 . S
C245 C250 1.501 . S
C246 C247 1.387 . S
C246 N249 1.341 . S
C247 C245 1.400 . S
C247 C246 1.387 . S
N248 Co239 2.022 . S
N248 C245 1.351 . S
N248 N249 1.365 . S
N249 C246 1.341 . S
N249 N248 1.365 . S
N249 H269 0.862 . S
C250 C245 1.501 . S
C250 H251 0.961 . S
C250 H252 0.961 . S
C250 H253 0.960 . S
H251 C250 0.961 . S
H252 C250 0.961 . S
H253 C250 0.960 . S
C254 N255 1.342 . S
C254 C258 1.401 . S
C254 C259 1.499 . S
N255 Co238 1.989 . S
N255 C254 1.342 . S
N255 N256 1.388 . S
N256 Co239 1.993 . S
N256 N255 1.388 . S
N256 C257 1.346 . S
C257 N256 1.346 . S
C257 C258 1.396 . S
C257 C267 1.510 . S
C258 C254 1.401 . S
C258 C257 1.396 . S
C259 C254 1.499 . S
C259 H260 0.959 . S
C259 H261 0.960 . S
C259 H262 0.961 . S
H260 C259 0.959 . S
H261 C259 0.960 . S
H262 C259 0.961 . S
O263 Co238 1.967 . S
O263 C271 1.258 . S
O264 Co239 1.941 . S
O264 C271 1.266 . S
H265 C267 0.959 . S
H266 C267 0.961 . S
C267 C257 1.510 . S
C267 H265 0.959 . S
C267 H266 0.961 . S
C267 H268 0.960 . S
H268 C267 0.960 . S
H269 N249 0.862 . S
O270 Co238 1.920 . S
O270 C243 1.289 . S
C271 O263 1.258 . S
C271 O264 1.266 . S
Co272 O275 1.970 . S
Co272 N289 2.021 . S
Co272 O297 1.967 . S
Co272 O304 1.920 . S
Co273 O276 1.966 1_545 S
Co273 N282 2.022 . S
Co273 N290 1.993 . S
Co273 O298 1.941 . S
C274 O275 1.258 . S
C274 O276 1.263 . S
O275 Co272 1.970 . S
O275 C274 1.258 . S
O276 Co273 1.966 1_565 S
O276 C274 1.263 . S
C277 O278 1.235 . S
C277 O304 1.289 . S
O278 C277 1.235 . S
C279 C281 1.400 . S
C279 N282 1.351 . S
C279 C284 1.501 . S
C280 C281 1.387 . S
C280 N283 1.341 . S
C281 C279 1.400 . S
C281 C280 1.387 . S
N282 Co273 2.022 . S
N282 C279 1.351 . S
N282 N283 1.365 . S
N283 C280 1.341 . S
N283 N282 1.365 . S
N283 H303 0.862 . S
C284 C279 1.501 . S
C284 H285 0.961 . S
C284 H286 0.961 . S
C284 H287 0.960 . S
H285 C284 0.961 . S
H286 C284 0.961 . S
H287 C284 0.960 . S
C288 N289 1.318 1_545 S
C288 C292 1.401 . S
C288 C293 1.499 1_545 S
N289 Co272 2.021 . S
N289 C288 1.318 1_565 S
N289 N290 1.375 1_565 S
N290 Co273 1.993 . S
N290 N289 1.375 1_545 S
N290 C291 1.346 . S
C291 N290 1.346 . S
C291 C292 1.396 . S
C291 C301 1.510 . S
C292 C288 1.401 . S
C292 C291 1.396 . S
C293 C288 1.499 1_565 S
C293 H294 0.959 . S
C293 H295 0.960 . S
C293 H296 0.961 . S
H294 C293 0.959 . S
H295 C293 0.960 . S
H296 C293 0.961 . S
O297 Co272 1.967 . S
O297 C305 1.236 1_565 S
O298 Co273 1.941 . S
O298 C305 1.286 . S
H299 C301 0.959 . S
H300 C301 0.961 . S
C301 C291 1.510 . S
C301 H299 0.959 . S
C301 H300 0.961 . S
C301 H302 0.960 . S
H302 C301 0.960 . S
H303 N283 0.862 . S
O304 Co272 1.920 . S
O304 C277 1.289 . S
C305 O297 1.236 1_545 S
C305 O298 1.286 . S
Co306 O309 1.970 . S
Co306 N323 2.010 . S
Co306 O331 1.967 . S
Co306 O338 1.920 . S
Co307 O310 1.966 1_565 S
Co307 N316 2.022 . S
Co307 N324 1.993 . S
Co307 O332 1.941 . S
C308 O309 1.258 . S
C308 O310 1.263 . S
O309 Co306 1.970 . S
O309 C308 1.258 . S
O310 Co307 1.966 1_545 S
O310 C308 1.263 . S
C311 O312 1.235 . S
C311 O338 1.289 . S
O312 C311 1.235 . S
C313 C315 1.400 . S
C313 N316 1.351 . S
C313 C318 1.501 . S
C314 C315 1.387 . S
C314 N317 1.341 . S
C315 C313 1.400 . S
C315 C314 1.387 . S
N316 Co307 2.022 . S
N316 C313 1.351 . S
N316 N317 1.365 . S
N317 C314 1.341 . S
N317 N316 1.365 . S
N317 H337 0.862 . S
C318 C313 1.501 . S
C318 H319 0.961 . S
C318 H320 0.961 . S
C318 H321 0.960 . S
H319 C318 0.961 . S
H320 C318 0.961 . S
H321 C318 0.960 . S
C322 N323 1.351 1_565 S
C322 C326 1.401 . S
C322 C327 1.499 1_565 S
N323 Co306 2.010 . S
N323 C322 1.351 1_545 S
N323 N324 1.349 1_545 S
N324 Co307 1.993 . S
N324 N323 1.349 1_565 S
N324 C325 1.346 . S
C325 N324 1.346 . S
C325 C326 1.396 . S
C325 C335 1.510 . S
C326 C322 1.401 . S
C326 C325 1.396 . S
C327 C322 1.499 1_545 S
C327 H328 0.959 . S
C327 H329 0.960 . S
C327 H330 0.961 . S
H328 C327 0.959 . S
H329 C327 0.960 . S
H330 C327 0.961 . S
O331 Co306 1.967 . S
O331 C339 1.218 1_545 S
O332 Co307 1.941 . S
O332 C339 1.308 . S
H333 C335 0.959 . S
H334 C335 0.961 . S
C335 C325 1.510 . S
C335 H333 0.959 . S
C335 H334 0.961 . S
C335 H336 0.960 . S
H336 C335 0.960 . S
H337 N317 0.862 . S
O338 Co306 1.920 . S
O338 C311 1.289 . S
C339 O331 1.218 1_565 S
C339 O332 1.308 . S
Co340 O343 1.970 . S
Co340 N357 2.021 . S
Co340 O365 1.967 . S
Co340 O372 1.920 . S
Co341 O344 1.966 1_455 S
Co341 N350 2.022 . S
Co341 N358 1.993 . S
Co341 O366 1.941 . S
C342 O343 1.258 . S
C342 O344 1.263 . S
O343 Co340 1.970 . S
O343 C342 1.258 . S
O344 Co341 1.966 1_655 S
O344 C342 1.263 . S
C345 O346 1.235 . S
C345 O372 1.289 . S
O346 C345 1.235 . S
C347 C349 1.400 . S
C347 N350 1.351 . S
C347 C352 1.501 . S
C348 C349 1.387 . S
C348 N351 1.341 . S
C349 C347 1.400 . S
C349 C348 1.387 . S
N350 Co341 2.022 . S
N350 C347 1.351 . S
N350 N351 1.365 . S
N351 C348 1.341 . S
N351 N350 1.365 . S
N351 H371 0.862 . S
C352 C347 1.501 . S
C352 H353 0.961 . S
C352 H354 0.961 . S
C352 H355 0.960 . S
H353 C352 0.961 . S
H354 C352 0.961 . S
H355 C352 0.960 . S
C356 N357 1.318 1_455 S
C356 C360 1.401 . S
C356 C361 1.499 1_455 S
N357 Co340 2.021 . S
N357 C356 1.318 1_655 S
N357 N358 1.375 1_655 S
N358 Co341 1.993 . S
N358 N357 1.375 1_455 S
N358 C359 1.346 . S
C359 N358 1.346 . S
C359 C360 1.396 . S
C359 C369 1.510 . S
C360 C356 1.401 . S
C360 C359 1.396 . S
C361 C356 1.499 1_655 S
C361 H362 0.959 . S
C361 H363 0.960 . S
C361 H364 0.961 . S
H362 C361 0.959 . S
H363 C361 0.960 . S
H364 C361 0.961 . S
O365 Co340 1.967 . S
O365 C373 1.236 1_655 S
O366 Co341 1.941 . S
O366 C373 1.286 . S
H367 C369 0.959 . S
H368 C369 0.961 . S
C369 C359 1.510 . S
C369 H367 0.959 . S
C369 H368 0.961 . S
C369 H370 0.960 . S
H370 C369 0.960 . S
H371 N351 0.862 . S
O372 Co340 1.920 . S
O372 C345 1.289 . S
C373 O365 1.236 1_455 S
C373 O366 1.286 . S
Co374 O377 1.970 . S
Co374 N391 1.989 . S
Co374 O399 1.967 . S
Co374 O406 1.920 . S
Co375 O378 1.966 . S
Co375 N384 2.022 . S
Co375 N392 1.993 . S
Co375 O400 1.941 . S
C376 O377 1.258 . S
C376 O378 1.263 . S
O377 Co374 1.970 . S
O377 C376 1.258 . S
O378 Co375 1.966 . S
O378 C376 1.263 . S
C379 O380 1.235 . S
C379 O406 1.289 . S
O380 C379 1.235 . S
C381 C383 1.400 . S
C381 N384 1.351 . S
C381 C386 1.501 . S
C382 C383 1.387 . S
C382 N385 1.341 . S
C383 C381 1.400 . S
C383 C382 1.387 . S
N384 Co375 2.022 . S
N384 C381 1.351 . S
N384 N385 1.365 . S
N385 C382 1.341 . S
N385 N384 1.365 . S
N385 H405 0.862 . S
C386 C381 1.501 . S
C386 H387 0.961 . S
C386 H388 0.961 . S
C386 H389 0.960 . S
H387 C386 0.961 . S
H388 C386 0.961 . S
H389 C386 0.960 . S
C390 N391 1.342 . S
C390 C394 1.401 . S
C390 C395 1.499 . S
N391 Co374 1.989 . S
N391 C390 1.342 . S
N391 N392 1.388 . S
N392 Co375 1.993 . S
N392 N391 1.388 . S
N392 C393 1.346 . S
C393 N392 1.346 . S
C393 C394 1.396 . S
C393 C403 1.510 . S
C394 C390 1.401 . S
C394 C393 1.396 . S
C395 C390 1.499 . S
C395 H396 0.959 . S
C395 H397 0.960 . S
C395 H398 0.961 . S
H396 C395 0.959 . S
H397 C395 0.960 . S
H398 C395 0.961 . S
O399 Co374 1.967 . S
O399 C407 1.258 . S
O400 Co375 1.941 . S
O400 C407 1.266 . S
H401 C403 0.959 . S
H402 C403 0.961 . S
C403 C393 1.510 . S
C403 H401 0.959 . S
C403 H402 0.961 . S
C403 H404 0.960 . S
H404 C403 0.960 . S
H405 N385 0.862 . S
O406 Co374 1.920 . S
O406 C379 1.289 . S
C407 O399 1.258 . S
C407 O400 1.266 . S
Co408 O411 1.970 . S
Co408 N425 1.989 . S
Co408 O433 1.967 . S
Co408 O440 1.920 . S
Co409 O412 1.966 . S
Co409 N418 2.022 . S
Co409 N426 1.993 . S
Co409 O434 1.941 . S
C410 O411 1.258 . S
C410 O412 1.263 . S
O411 Co408 1.970 . S
O411 C410 1.258 . S
O412 Co409 1.966 . S
O412 C410 1.263 . S
C413 O414 1.235 . S
C413 O440 1.289 . S
O414 C413 1.235 . S
C415 C417 1.400 . S
C415 N418 1.351 . S
C415 C420 1.501 . S
C416 C417 1.387 . S
C416 N419 1.341 . S
C417 C415 1.400 . S
C417 C416 1.387 . S
N418 Co409 2.022 . S
N418 C415 1.351 . S
N418 N419 1.365 . S
N419 C416 1.341 . S
N419 N418 1.365 . S
N419 H439 0.862 . S
C420 C415 1.501 . S
C420 H421 0.961 . S
C420 H422 0.961 . S
C420 H423 0.960 . S
H421 C420 0.961 . S
H422 C420 0.961 . S
H423 C420 0.960 . S
C424 N425 1.342 . S
C424 C428 1.401 . S
C424 C429 1.499 . S
N425 Co408 1.989 . S
N425 C424 1.342 . S
N425 N426 1.388 . S
N426 Co409 1.993 . S
N426 N425 1.388 . S
N426 C427 1.346 . S
C427 N426 1.346 . S
C427 C428 1.396 . S
C427 C437 1.510 . S
C428 C424 1.401 . S
C428 C427 1.396 . S
C429 C424 1.499 . S
C429 H430 0.959 . S
C429 H431 0.960 . S
C429 H432 0.961 . S
H430 C429 0.959 . S
H431 C429 0.960 . S
H432 C429 0.961 . S
O433 Co408 1.967 . S
O433 C441 1.258 . S
O434 Co409 1.941 . S
O434 C441 1.266 . S
H435 C437 0.959 . S
H436 C437 0.961 . S
C437 C427 1.510 . S
C437 H435 0.959 . S
C437 H436 0.961 . S
C437 H438 0.960 . S
H438 C437 0.960 . S
H439 N419 0.862 . S
O440 Co408 1.920 . S
O440 C413 1.289 . S
C441 O433 1.258 . S
C441 O434 1.266 . S
Co442 O445 1.970 . S
Co442 N459 1.989 . S
Co442 O467 1.967 . S
Co442 O474 1.920 . S
Co443 O446 1.966 . S
Co443 N452 2.022 . S
Co443 N460 1.993 . S
Co443 O468 1.941 . S
C444 O445 1.258 . S
C444 O446 1.263 . S
O445 Co442 1.970 . S
O445 C444 1.258 . S
O446 Co443 1.966 . S
O446 C444 1.263 . S
C447 O448 1.235 . S
C447 O474 1.289 . S
O448 C447 1.235 . S
C449 C451 1.400 . S
C449 N452 1.351 . S
C449 C454 1.501 . S
C450 C451 1.387 . S
C450 N453 1.341 . S
C451 C449 1.400 . S
C451 C450 1.387 . S
N452 Co443 2.022 . S
N452 C449 1.351 . S
N452 N453 1.365 . S
N453 C450 1.341 . S
N453 N452 1.365 . S
N453 H473 0.862 . S
C454 C449 1.501 . S
C454 H455 0.961 . S
C454 H456 0.961 . S
C454 H457 0.960 . S
H455 C454 0.961 . S
H456 C454 0.961 . S
H457 C454 0.960 . S
C458 N459 1.342 . S
C458 C462 1.401 . S
C458 C463 1.499 . S
N459 Co442 1.989 . S
N459 C458 1.342 . S
N459 N460 1.388 . S
N460 Co443 1.993 . S
N460 N459 1.388 . S
N460 C461 1.346 . S
C461 N460 1.346 . S
C461 C462 1.396 . S
C461 C471 1.510 . S
C462 C458 1.401 . S
C462 C461 1.396 . S
C463 C458 1.499 . S
C463 H464 0.959 . S
C463 H465 0.960 . S
C463 H466 0.961 . S
H464 C463 0.959 . S
H465 C463 0.960 . S
H466 C463 0.961 . S
O467 Co442 1.967 . S
O467 C475 1.258 . S
O468 Co443 1.941 . S
O468 C475 1.266 . S
H469 C471 0.959 . S
H470 C471 0.961 . S
C471 C461 1.510 . S
C471 H469 0.959 . S
C471 H470 0.961 . S
C471 H472 0.960 . S
H472 C471 0.960 . S
H473 N453 0.862 . S
O474 Co442 1.920 . S
O474 C447 1.289 . S
C475 O467 1.258 . S
C475 O468 1.266 . S
Co476 O479 1.970 . S
Co476 N493 1.989 . S
Co476 O501 1.967 . S
Co476 O508 1.920 . S
Co477 O480 1.966 . S
Co477 N486 2.022 . S
Co477 N494 1.993 . S
Co477 O502 1.941 . S
C478 O479 1.258 . S
C478 O480 1.263 . S
O479 Co476 1.970 . S
O479 C478 1.258 . S
O480 Co477 1.966 . S
O480 C478 1.263 . S
C481 O482 1.235 . S
C481 O508 1.289 . S
O482 C481 1.235 . S
C483 C485 1.400 . S
C483 N486 1.351 . S
C483 C488 1.501 . S
C484 C485 1.387 . S
C484 N487 1.341 . S
C485 C483 1.400 . S
C485 C484 1.387 . S
N486 Co477 2.022 . S
N486 C483 1.351 . S
N486 N487 1.365 . S
N487 C484 1.341 . S
N487 N486 1.365 . S
N487 H507 0.862 . S
C488 C483 1.501 . S
C488 H489 0.961 . S
C488 H490 0.961 . S
C488 H491 0.960 . S
H489 C488 0.961 . S
H490 C488 0.961 . S
H491 C488 0.960 . S
C492 N493 1.342 . S
C492 C496 1.401 . S
C492 C497 1.499 . S
N493 Co476 1.989 . S
N493 C492 1.342 . S
N493 N494 1.388 . S
N494 Co477 1.993 . S
N494 N493 1.388 . S
N494 C495 1.346 . S
C495 N494 1.346 . S
C495 C496 1.396 . S
C495 C505 1.510 . S
C496 C492 1.401 . S
C496 C495 1.396 . S
C497 C492 1.499 . S
C497 H498 0.959 . S
C497 H499 0.960 . S
C497 H500 0.961 . S
H498 C497 0.959 . S
H499 C497 0.960 . S
H500 C497 0.961 . S
O501 Co476 1.967 . S
O501 C509 1.258 . S
O502 Co477 1.941 . S
O502 C509 1.266 . S
H503 C505 0.959 . S
H504 C505 0.961 . S
C505 C495 1.510 . S
C505 H503 0.959 . S
C505 H504 0.961 . S
C505 H506 0.960 . S
H506 C505 0.960 . S
H507 N487 0.862 . S
O508 Co476 1.920 . S
O508 C481 1.289 . S
C509 O501 1.258 . S
C509 O502 1.266 . S
Co510 O513 1.970 . S
Co510 N527 1.989 . S
Co510 O535 1.967 . S
Co510 O542 1.920 . S
Co511 O514 1.966 . S
Co511 N520 2.022 . S
Co511 N528 1.993 . S
Co511 O536 1.941 . S
C512 O513 1.258 . S
C512 O514 1.263 . S
O513 Co510 1.970 . S
O513 C512 1.258 . S
O514 Co511 1.966 . S
O514 C512 1.263 . S
C515 O516 1.235 . S
C515 O542 1.289 . S
O516 C515 1.235 . S
C517 C519 1.400 . S
C517 N520 1.351 . S
C517 C522 1.501 . S
C518 C519 1.387 . S
C518 N521 1.341 . S
C519 C517 1.400 . S
C519 C518 1.387 . S
N520 Co511 2.022 . S
N520 C517 1.351 . S
N520 N521 1.365 . S
N521 C518 1.341 . S
N521 N520 1.365 . S
N521 H541 0.862 . S
C522 C517 1.501 . S
C522 H523 0.961 . S
C522 H524 0.961 . S
C522 H525 0.960 . S
H523 C522 0.961 . S
H524 C522 0.961 . S
H525 C522 0.960 . S
C526 N527 1.342 . S
C526 C530 1.401 . S
C526 C531 1.499 . S
N527 Co510 1.989 . S
N527 C526 1.342 . S
N527 N528 1.388 . S
N528 Co511 1.993 . S
N528 N527 1.388 . S
N528 C529 1.346 . S
C529 N528 1.346 . S
C529 C530 1.396 . S
C529 C539 1.510 . S
C530 C526 1.401 . S
C530 C529 1.396 . S
C531 C526 1.499 . S
C531 H532 0.959 . S
C531 H533 0.960 . S
C531 H534 0.961 . S
H532 C531 0.959 . S
H533 C531 0.960 . S
H534 C531 0.961 . S
O535 Co510 1.967 . S
O535 C543 1.258 . S
O536 Co511 1.941 . S
O536 C543 1.266 . S
H537 C539 0.959 . S
H538 C539 0.961 . S
C539 C529 1.510 . S
C539 H537 0.959 . S
C539 H538 0.961 . S
C539 H540 0.960 . S
H540 C539 0.960 . S
H541 N521 0.862 . S
O542 Co510 1.920 . S
O542 C515 1.289 . S
C543 O535 1.258 . S
C543 O536 1.266 . S
Co544 O547 1.970 . S
Co544 N561 1.989 . S
Co544 O569 1.967 . S
Co544 O576 1.920 . S
Co545 O548 1.966 . S
Co545 N554 2.022 . S
Co545 N562 1.993 . S
Co545 O570 1.941 . S
C546 O547 1.258 . S
C546 O548 1.263 . S
O547 Co544 1.970 . S
O547 C546 1.258 . S
O548 Co545 1.966 . S
O548 C546 1.263 . S
C549 O550 1.235 . S
C549 O576 1.289 . S
O550 C549 1.235 . S
C551 C553 1.400 . S
C551 N554 1.351 . S
C551 C556 1.501 . S
C552 C553 1.387 . S
C552 N555 1.341 . S
C553 C551 1.400 . S
C553 C552 1.387 . S
N554 Co545 2.022 . S
N554 C551 1.351 . S
N554 N555 1.365 . S
N555 C552 1.341 . S
N555 N554 1.365 . S
N555 H575 0.862 . S
C556 C551 1.501 . S
C556 H557 0.961 . S
C556 H558 0.961 . S
C556 H559 0.960 . S
H557 C556 0.961 . S
H558 C556 0.961 . S
H559 C556 0.960 . S
C560 N561 1.342 . S
C560 C564 1.401 . S
C560 C565 1.499 . S
N561 Co544 1.989 . S
N561 C560 1.342 . S
N561 N562 1.388 . S
N562 Co545 1.993 . S
N562 N561 1.388 . S
N562 C563 1.346 . S
C563 N562 1.346 . S
C563 C564 1.396 . S
C563 C573 1.510 . S
C564 C560 1.401 . S
C564 C563 1.396 . S
C565 C560 1.499 . S
C565 H566 0.959 . S
C565 H567 0.960 . S
C565 H568 0.961 . S
H566 C565 0.959 . S
H567 C565 0.960 . S
H568 C565 0.961 . S
O569 Co544 1.967 . S
O569 C577 1.258 . S
O570 Co545 1.941 . S
O570 C577 1.266 . S
H571 C573 0.959 . S
H572 C573 0.961 . S
C573 C563 1.510 . S
C573 H571 0.959 . S
C573 H572 0.961 . S
C573 H574 0.960 . S
H574 C573 0.960 . S
H575 N555 0.862 . S
O576 Co544 1.920 . S
O576 C549 1.289 . S
C577 O569 1.258 . S
C577 O570 1.266 . S
Co578 O581 1.970 . S
Co578 N595 1.989 . S
Co578 O603 1.967 . S
Co578 O610 1.920 . S
Co579 O582 1.966 . S
Co579 N588 2.022 . S
Co579 N596 1.993 . S
Co579 O604 1.941 . S
C580 O581 1.258 . S
C580 O582 1.263 . S
O581 Co578 1.970 . S
O581 C580 1.258 . S
O582 Co579 1.966 . S
O582 C580 1.263 . S
C583 O584 1.235 . S
C583 O610 1.289 . S
O584 C583 1.235 . S
C585 C587 1.400 . S
C585 N588 1.351 . S
C585 C590 1.501 . S
C586 C587 1.387 . S
C586 N589 1.341 . S
C587 C585 1.400 . S
C587 C586 1.387 . S
N588 Co579 2.022 . S
N588 C585 1.351 . S
N588 N589 1.365 . S
N589 C586 1.341 . S
N589 N588 1.365 . S
N589 H609 0.862 . S
C590 C585 1.501 . S
C590 H591 0.961 . S
C590 H592 0.961 . S
C590 H593 0.960 . S
H591 C590 0.961 . S
H592 C590 0.961 . S
H593 C590 0.960 . S
C594 N595 1.342 . S
C594 C598 1.401 . S
C594 C599 1.499 . S
N595 Co578 1.989 . S
N595 C594 1.342 . S
N595 N596 1.388 . S
N596 Co579 1.993 . S
N596 N595 1.388 . S
N596 C597 1.346 . S
C597 N596 1.346 . S
C597 C598 1.396 . S
C597 C607 1.510 . S
C598 C594 1.401 . S
C598 C597 1.396 . S
C599 C594 1.499 . S
C599 H600 0.959 . S
C599 H601 0.960 . S
C599 H602 0.961 . S
H600 C599 0.959 . S
H601 C599 0.960 . S
H602 C599 0.961 . S
O603 Co578 1.967 . S
O603 C611 1.258 . S
O604 Co579 1.941 . S
O604 C611 1.266 . S
H605 C607 0.959 . S
H606 C607 0.961 . S
C607 C597 1.510 . S
C607 H605 0.959 . S
C607 H606 0.961 . S
C607 H608 0.960 . S
H608 C607 0.960 . S
H609 N589 0.862 . S
O610 Co578 1.920 . S
O610 C583 1.289 . S
C611 O603 1.258 . S
C611 O604 1.266 . S
Co612 O615 1.970 . S
Co612 N629 1.989 . S
Co612 O637 1.967 . S
Co612 O644 1.920 . S
Co613 O616 1.966 . S
Co613 N622 2.022 . S
Co613 N630 1.993 . S
Co613 O638 1.941 . S
C614 O615 1.258 . S
C614 O616 1.263 . S
O615 Co612 1.970 . S
O615 C614 1.258 . S
O616 Co613 1.966 . S
O616 C614 1.263 . S
C617 O618 1.235 . S
C617 O644 1.289 . S
O618 C617 1.235 . S
C619 C621 1.400 . S
C619 N622 1.351 . S
C619 C624 1.501 . S
C620 C621 1.387 . S
C620 N623 1.341 . S
C621 C619 1.400 . S
C621 C620 1.387 . S
N622 Co613 2.022 . S
N622 C619 1.351 . S
N622 N623 1.365 . S
N623 C620 1.341 . S
N623 N622 1.365 . S
N623 H643 0.862 . S
C624 C619 1.501 . S
C624 H625 0.961 . S
C624 H626 0.961 . S
C624 H627 0.960 . S
H625 C624 0.961 . S
H626 C624 0.961 . S
H627 C624 0.960 . S
C628 N629 1.342 . S
C628 C632 1.401 . S
C628 C633 1.499 . S
N629 Co612 1.989 . S
N629 C628 1.342 . S
N629 N630 1.388 . S
N630 Co613 1.993 . S
N630 N629 1.388 . S
N630 C631 1.346 . S
C631 N630 1.346 . S
C631 C632 1.396 . S
C631 C641 1.510 . S
C632 C628 1.401 . S
C632 C631 1.396 . S
C633 C628 1.499 . S
C633 H634 0.959 . S
C633 H635 0.960 . S
C633 H636 0.961 . S
H634 C633 0.959 . S
H635 C633 0.960 . S
H636 C633 0.961 . S
O637 Co612 1.967 . S
O637 C645 1.258 . S
O638 Co613 1.941 . S
O638 C645 1.266 . S
H639 C641 0.959 . S
H640 C641 0.961 . S
C641 C631 1.510 . S
C641 H639 0.959 . S
C641 H640 0.961 . S
C641 H642 0.960 . S
H642 C641 0.960 . S
H643 N623 0.862 . S
O644 Co612 1.920 . S
O644 C617 1.289 . S
C645 O637 1.258 . S
C645 O638 1.266 . S
Co646 O649 1.970 . S
Co646 N663 1.989 . S
Co646 O671 1.967 . S
Co646 O678 1.920 . S
Co647 O650 1.966 . S
Co647 N656 2.022 . S
Co647 N664 1.993 . S
Co647 O672 1.941 . S
C648 O649 1.258 . S
C648 O650 1.263 . S
O649 Co646 1.970 . S
O649 C648 1.258 . S
O650 Co647 1.966 . S
O650 C648 1.263 . S
C651 O652 1.235 . S
C651 O678 1.289 . S
O652 C651 1.235 . S
C653 C655 1.400 . S
C653 N656 1.351 . S
C653 C658 1.501 . S
C654 C655 1.387 . S
C654 N657 1.341 . S
C655 C653 1.400 . S
C655 C654 1.387 . S
N656 Co647 2.022 . S
N656 C653 1.351 . S
N656 N657 1.365 . S
N657 C654 1.341 . S
N657 N656 1.365 . S
N657 H677 0.862 . S
C658 C653 1.501 . S
C658 H659 0.961 . S
C658 H660 0.961 . S
C658 H661 0.960 . S
H659 C658 0.961 . S
H660 C658 0.961 . S
H661 C658 0.960 . S
C662 N663 1.342 . S
C662 C666 1.401 . S
C662 C667 1.499 . S
N663 Co646 1.989 . S
N663 C662 1.342 . S
N663 N664 1.388 . S
N664 Co647 1.993 . S
N664 N663 1.388 . S
N664 C665 1.346 . S
C665 N664 1.346 . S
C665 C666 1.396 . S
C665 C675 1.510 . S
C666 C662 1.401 . S
C666 C665 1.396 . S
C667 C662 1.499 . S
C667 H668 0.959 . S
C667 H669 0.960 . S
C667 H670 0.961 . S
H668 C667 0.959 . S
H669 C667 0.960 . S
H670 C667 0.961 . S
O671 Co646 1.967 . S
O671 C679 1.258 . S
O672 Co647 1.941 . S
O672 C679 1.266 . S
H673 C675 0.959 . S
H674 C675 0.961 . S
C675 C665 1.510 . S
C675 H673 0.959 . S
C675 H674 0.961 . S
C675 H676 0.960 . S
H676 C675 0.960 . S
H677 N657 0.862 . S
O678 Co646 1.920 . S
O678 C651 1.289 . S
C679 O671 1.258 . S
C679 O672 1.266 . S
Co680 O683 1.970 . S
Co680 N697 1.989 . S
Co680 O705 1.967 . S
Co680 O712 1.920 . S
Co681 O684 1.966 . S
Co681 N690 2.022 . S
Co681 N698 1.993 . S
Co681 O706 1.941 . S
C682 O683 1.258 . S
C682 O684 1.263 . S
O683 Co680 1.970 . S
O683 C682 1.258 . S
O684 Co681 1.966 . S
O684 C682 1.263 . S
C685 O686 1.235 . S
C685 O712 1.289 . S
O686 C685 1.235 . S
C687 C689 1.400 . S
C687 N690 1.351 . S
C687 C692 1.501 . S
C688 C689 1.387 . S
C688 N691 1.341 . S
C689 C687 1.400 . S
C689 C688 1.387 . S
N690 Co681 2.022 . S
N690 C687 1.351 . S
N690 N691 1.365 . S
N691 C688 1.341 . S
N691 N690 1.365 . S
N691 H711 0.862 . S
C692 C687 1.501 . S
C692 H693 0.961 . S
C692 H694 0.961 . S
C692 H695 0.960 . S
H693 C692 0.961 . S
H694 C692 0.961 . S
H695 C692 0.960 . S
C696 N697 1.342 . S
C696 C700 1.401 . S
C696 C701 1.499 . S
N697 Co680 1.989 . S
N697 C696 1.342 . S
N697 N698 1.388 . S
N698 Co681 1.993 . S
N698 N697 1.388 . S
N698 C699 1.346 . S
C699 N698 1.346 . S
C699 C700 1.396 . S
C699 C709 1.510 . S
C700 C696 1.401 . S
C700 C699 1.396 . S
C701 C696 1.499 . S
C701 H702 0.959 . S
C701 H703 0.960 . S
C701 H704 0.961 . S
H702 C701 0.959 . S
H703 C701 0.960 . S
H704 C701 0.961 . S
O705 Co680 1.967 . S
O705 C713 1.258 . S
O706 Co681 1.941 . S
O706 C713 1.266 . S
H707 C709 0.959 . S
H708 C709 0.961 . S
C709 C699 1.510 . S
C709 H707 0.959 . S
C709 H708 0.961 . S
C709 H710 0.960 . S
H710 C709 0.960 . S
H711 N691 0.862 . S
O712 Co680 1.920 . S
O712 C685 1.289 . S
C713 O705 1.258 . S
C713 O706 1.266 . S
Co714 O717 1.970 . S
Co714 N731 1.989 . S
Co714 O739 1.967 1_556 S
Co714 O746 1.920 . S
Co715 O718 1.966 . S
Co715 N724 2.022 . S
Co715 N732 1.993 . S
Co715 O740 1.941 1_556 S
C716 O717 1.258 . S
C716 O718 1.263 . S
O717 Co714 1.970 . S
O717 C716 1.258 . S
O718 Co715 1.966 . S
O718 C716 1.263 . S
C719 O720 1.235 . S
C719 O746 1.289 . S
O720 C719 1.235 . S
C721 C723 1.400 . S
C721 N724 1.351 . S
C721 C726 1.501 . S
C722 C723 1.387 . S
C722 N725 1.341 . S
C723 C721 1.400 . S
C723 C722 1.387 . S
N724 Co715 2.022 . S
N724 C721 1.351 . S
N724 N725 1.365 . S
N725 C722 1.341 . S
N725 N724 1.365 . S
N725 H745 0.862 . S
C726 C721 1.501 . S
C726 H727 0.961 . S
C726 H728 0.961 . S
C726 H729 0.960 . S
H727 C726 0.961 . S
H728 C726 0.961 . S
H729 C726 0.960 . S
C730 N731 1.342 . S
C730 C734 1.401 . S
C730 C735 1.499 . S
N731 Co714 1.989 . S
N731 C730 1.342 . S
N731 N732 1.388 . S
N732 Co715 1.993 . S
N732 N731 1.388 . S
N732 C733 1.346 . S
C733 N732 1.346 . S
C733 C734 1.396 . S
C733 C743 1.510 . S
C734 C730 1.401 . S
C734 C733 1.396 . S
C735 C730 1.499 . S
C735 H736 0.959 . S
C735 H737 0.960 . S
C735 H738 0.961 . S
H736 C735 0.959 . S
H737 C735 0.960 . S
H738 C735 0.961 . S
O739 Co714 1.967 1_554 S
O739 C747 1.258 . S
O740 Co715 1.941 1_554 S
O740 C747 1.266 . S
H741 C743 0.959 . S
H742 C743 0.961 . S
C743 C733 1.510 . S
C743 H741 0.959 . S
C743 H742 0.961 . S
C743 H744 0.960 . S
H744 C743 0.960 . S
H745 N725 0.862 . S
O746 Co714 1.920 . S
O746 C719 1.289 . S
C747 O739 1.258 . S
C747 O740 1.266 . S
Co748 O751 1.970 . S
Co748 N765 1.989 . S
Co748 O773 1.967 1_556 S
Co748 O780 1.920 . S
Co749 O752 1.966 . S
Co749 N758 2.022 . S
Co749 N766 1.993 . S
Co749 O774 1.941 1_556 S
C750 O751 1.258 . S
C750 O752 1.263 . S
O751 Co748 1.970 . S
O751 C750 1.258 . S
O752 Co749 1.966 . S
O752 C750 1.263 . S
C753 O754 1.235 . S
C753 O780 1.289 . S
O754 C753 1.235 . S
C755 C757 1.400 . S
C755 N758 1.351 . S
C755 C760 1.501 . S
C756 C757 1.387 . S
C756 N759 1.341 . S
C757 C755 1.400 . S
C757 C756 1.387 . S
N758 Co749 2.022 . S
N758 C755 1.351 . S
N758 N759 1.365 . S
N759 C756 1.341 . S
N759 N758 1.365 . S
N759 H779 0.862 . S
C760 C755 1.501 . S
C760 H761 0.961 . S
C760 H762 0.961 . S
C760 H763 0.960 . S
H761 C760 0.961 . S
H762 C760 0.961 . S
H763 C760 0.960 . S
C764 N765 1.342 . S
C764 C768 1.401 . S
C764 C769 1.499 . S
N765 Co748 1.989 . S
N765 C764 1.342 . S
N765 N766 1.388 . S
N766 Co749 1.993 . S
N766 N765 1.388 . S
N766 C767 1.346 . S
C767 N766 1.346 . S
C767 C768 1.396 . S
C767 C777 1.510 . S
C768 C764 1.401 . S
C768 C767 1.396 . S
C769 C764 1.499 . S
C769 H770 0.959 . S
C769 H771 0.960 . S
C769 H772 0.961 . S
H770 C769 0.959 . S
H771 C769 0.960 . S
H772 C769 0.961 . S
O773 Co748 1.967 1_554 S
O773 C781 1.258 . S
O774 Co749 1.941 1_554 S
O774 C781 1.266 . S
H775 C777 0.959 . S
H776 C777 0.961 . S
C777 C767 1.510 . S
C777 H775 0.959 . S
C777 H776 0.961 . S
C777 H778 0.960 . S
H778 C777 0.960 . S
H779 N759 0.862 . S
O780 Co748 1.920 . S
O780 C753 1.289 . S
C781 O773 1.258 . S
C781 O774 1.266 . S
Co782 O785 1.970 . S
Co782 N799 1.989 . S
Co782 O807 1.967 1_556 S
Co782 O814 1.920 . S
Co783 O786 1.966 . S
Co783 N792 2.022 . S
Co783 N800 1.993 . S
Co783 O808 1.941 1_556 S
C784 O785 1.258 . S
C784 O786 1.263 . S
O785 Co782 1.970 . S
O785 C784 1.258 . S
O786 Co783 1.966 . S
O786 C784 1.263 . S
C787 O788 1.235 . S
C787 O814 1.289 . S
O788 C787 1.235 . S
C789 C791 1.400 . S
C789 N792 1.351 . S
C789 C794 1.501 . S
C790 C791 1.387 . S
C790 N793 1.341 . S
C791 C789 1.400 . S
C791 C790 1.387 . S
N792 Co783 2.022 . S
N792 C789 1.351 . S
N792 N793 1.365 . S
N793 C790 1.341 . S
N793 N792 1.365 . S
N793 H813 0.862 . S
C794 C789 1.501 . S
C794 H795 0.961 . S
C794 H796 0.961 . S
C794 H797 0.960 . S
H795 C794 0.961 . S
H796 C794 0.961 . S
H797 C794 0.960 . S
C798 N799 1.342 . S
C798 C802 1.401 . S
C798 C803 1.499 . S
N799 Co782 1.989 . S
N799 C798 1.342 . S
N799 N800 1.388 . S
N800 Co783 1.993 . S
N800 N799 1.388 . S
N800 C801 1.346 . S
C801 N800 1.346 . S
C801 C802 1.396 . S
C801 C811 1.510 . S
C802 C798 1.401 . S
C802 C801 1.396 . S
C803 C798 1.499 . S
C803 H804 0.959 . S
C803 H805 0.960 . S
C803 H806 0.961 . S
H804 C803 0.959 . S
H805 C803 0.960 . S
H806 C803 0.961 . S
O807 Co782 1.967 1_554 S
O807 C815 1.258 . S
O808 Co783 1.941 1_554 S
O808 C815 1.266 . S
H809 C811 0.959 . S
H810 C811 0.961 . S
C811 C801 1.510 . S
C811 H809 0.959 . S
C811 H810 0.961 . S
C811 H812 0.960 . S
H812 C811 0.960 . S
H813 N793 0.862 . S
O814 Co782 1.920 . S
O814 C787 1.289 . S
C815 O807 1.258 . S
C815 O808 1.266 . S
Co816 O819 1.970 . S
Co816 N833 1.989 . S
Co816 O841 1.967 . S
Co816 O848 1.920 . S
Co817 O820 1.966 . S
Co817 N826 2.022 . S
Co817 N834 1.993 . S
Co817 O842 1.941 . S
C818 O819 1.258 . S
C818 O820 1.263 . S
O819 Co816 1.970 . S
O819 C818 1.258 . S
O820 Co817 1.966 . S
O820 C818 1.263 . S
C821 O822 1.235 . S
C821 O848 1.289 . S
O822 C821 1.235 . S
C823 C825 1.400 . S
C823 N826 1.351 . S
C823 C828 1.501 . S
C824 C825 1.387 . S
C824 N827 1.341 . S
C825 C823 1.400 . S
C825 C824 1.387 . S
N826 Co817 2.022 . S
N826 C823 1.351 . S
N826 N827 1.365 . S
N827 C824 1.341 . S
N827 N826 1.365 . S
N827 H847 0.862 . S
C828 C823 1.501 . S
C828 H829 0.961 . S
C828 H830 0.961 . S
C828 H831 0.960 . S
H829 C828 0.961 . S
H830 C828 0.961 . S
H831 C828 0.960 . S
C832 N833 1.342 . S
C832 C836 1.401 . S
C832 C837 1.499 . S
N833 Co816 1.989 . S
N833 C832 1.342 . S
N833 N834 1.388 . S
N834 Co817 1.993 . S
N834 N833 1.388 . S
N834 C835 1.346 . S
C835 N834 1.346 . S
C835 C836 1.396 . S
C835 C845 1.510 . S
C836 C832 1.401 . S
C836 C835 1.396 . S
C837 C832 1.499 . S
C837 H838 0.959 . S
C837 H839 0.960 . S
C837 H840 0.961 . S
H838 C837 0.959 . S
H839 C837 0.960 . S
H840 C837 0.961 . S
O841 Co816 1.967 . S
O841 C849 1.258 . S
O842 Co817 1.941 . S
O842 C849 1.266 . S
H843 C845 0.959 . S
H844 C845 0.961 . S
C845 C835 1.510 . S
C845 H843 0.959 . S
C845 H844 0.961 . S
C845 H846 0.960 . S
H846 C845 0.960 . S
H847 N827 0.862 . S
O848 Co816 1.920 . S
O848 C821 1.289 . S
C849 O841 1.258 . S
C849 O842 1.266 . S
Co850 O853 1.970 . S
Co850 N867 1.989 . S
Co850 O875 1.967 . S
Co850 O882 1.920 . S
Co851 O854 1.966 . S
Co851 N860 2.022 . S
Co851 N868 1.993 . S
Co851 O876 1.941 . S
C852 O853 1.258 . S
C852 O854 1.263 . S
O853 Co850 1.970 . S
O853 C852 1.258 . S
O854 Co851 1.966 . S
O854 C852 1.263 . S
C855 O856 1.235 . S
C855 O882 1.289 . S
O856 C855 1.235 . S
C857 C859 1.400 . S
C857 N860 1.351 . S
C857 C862 1.501 . S
C858 C859 1.387 . S
C858 N861 1.341 . S
C859 C857 1.400 . S
C859 C858 1.387 . S
N860 Co851 2.022 . S
N860 C857 1.351 . S
N860 N861 1.365 . S
N861 C858 1.341 . S
N861 N860 1.365 . S
N861 H881 0.862 . S
C862 C857 1.501 . S
C862 H863 0.961 . S
C862 H864 0.961 . S
C862 H865 0.960 . S
H863 C862 0.961 . S
H864 C862 0.961 . S
H865 C862 0.960 . S
C866 N867 1.342 . S
C866 C870 1.401 . S
C866 C871 1.499 . S
N867 Co850 1.989 . S
N867 C866 1.342 . S
N867 N868 1.388 . S
N868 Co851 1.993 . S
N868 N867 1.388 . S
N868 C869 1.346 . S
C869 N868 1.346 . S
C869 C870 1.396 . S
C869 C879 1.510 . S
C870 C866 1.401 . S
C870 C869 1.396 . S
C871 C866 1.499 . S
C871 H872 0.959 . S
C871 H873 0.960 . S
C871 H874 0.961 . S
H872 C871 0.959 . S
H873 C871 0.960 . S
H874 C871 0.961 . S
O875 Co850 1.967 . S
O875 C883 1.258 . S
O876 Co851 1.941 . S
O876 C883 1.266 . S
H877 C879 0.959 . S
H878 C879 0.961 . S
C879 C869 1.510 . S
C879 H877 0.959 . S
C879 H878 0.961 . S
C879 H880 0.960 . S
H880 C879 0.960 . S
H881 N861 0.862 . S
O882 Co850 1.920 . S
O882 C855 1.289 . S
C883 O875 1.258 . S
C883 O876 1.266 . S
Co884 O887 1.970 . S
Co884 N901 1.989 . S
Co884 O909 1.967 . S
Co884 O916 1.920 . S
Co885 O888 1.966 . S
Co885 N894 2.022 . S
Co885 N902 1.993 . S
Co885 O910 1.941 . S
C886 O887 1.258 . S
C886 O888 1.263 . S
O887 Co884 1.970 . S
O887 C886 1.258 . S
O888 Co885 1.966 . S
O888 C886 1.263 . S
C889 O890 1.235 . S
C889 O916 1.289 . S
O890 C889 1.235 . S
C891 C893 1.400 . S
C891 N894 1.351 . S
C891 C896 1.501 . S
C892 C893 1.387 . S
C892 N895 1.341 . S
C893 C891 1.400 . S
C893 C892 1.387 . S
N894 Co885 2.022 . S
N894 C891 1.351 . S
N894 N895 1.365 . S
N895 C892 1.341 . S
N895 N894 1.365 . S
N895 H915 0.862 . S
C896 C891 1.501 . S
C896 H897 0.961 . S
C896 H898 0.961 . S
C896 H899 0.960 . S
H897 C896 0.961 . S
H898 C896 0.961 . S
H899 C896 0.960 . S
C900 N901 1.342 . S
C900 C904 1.401 . S
C900 C905 1.499 . S
N901 Co884 1.989 . S
N901 C900 1.342 . S
N901 N902 1.388 . S
N902 Co885 1.993 . S
N902 N901 1.388 . S
N902 C903 1.346 . S
C903 N902 1.346 . S
C903 C904 1.396 . S
C903 C913 1.510 . S
C904 C900 1.401 . S
C904 C903 1.396 . S
C905 C900 1.499 . S
C905 H906 0.959 . S
C905 H907 0.960 . S
C905 H908 0.961 . S
H906 C905 0.959 . S
H907 C905 0.960 . S
H908 C905 0.961 . S
O909 Co884 1.967 . S
O909 C917 1.258 . S
O910 Co885 1.941 . S
O910 C917 1.266 . S
H911 C913 0.959 . S
H912 C913 0.961 . S
C913 C903 1.510 . S
C913 H911 0.959 . S
C913 H912 0.961 . S
C913 H914 0.960 . S
H914 C913 0.960 . S
H915 N895 0.862 . S
O916 Co884 1.920 . S
O916 C889 1.289 . S
C917 O909 1.258 . S
C917 O910 1.266 . S
Co918 O921 1.970 . S
Co918 N935 1.989 . S
Co918 O943 1.967 1_554 S
Co918 O950 1.920 . S
Co919 O922 1.966 . S
Co919 N928 2.022 . S
Co919 N936 1.993 . S
Co919 O944 1.941 1_554 S
C920 O921 1.258 . S
C920 O922 1.263 . S
O921 Co918 1.970 . S
O921 C920 1.258 . S
O922 Co919 1.966 . S
O922 C920 1.263 . S
C923 O924 1.235 . S
C923 O950 1.289 . S
O924 C923 1.235 . S
C925 C927 1.400 . S
C925 N928 1.351 . S
C925 C930 1.501 . S
C926 C927 1.387 . S
C926 N929 1.341 . S
C927 C925 1.400 . S
C927 C926 1.387 . S
N928 Co919 2.022 . S
N928 C925 1.351 . S
N928 N929 1.365 . S
N929 C926 1.341 . S
N929 N928 1.365 . S
N929 H949 0.862 . S
C930 C925 1.501 . S
C930 H931 0.961 . S
C930 H932 0.961 . S
C930 H933 0.960 . S
H931 C930 0.961 . S
H932 C930 0.961 . S
H933 C930 0.960 . S
C934 N935 1.342 . S
C934 C938 1.401 . S
C934 C939 1.499 . S
N935 Co918 1.989 . S
N935 C934 1.342 . S
N935 N936 1.388 . S
N936 Co919 1.993 . S
N936 N935 1.388 . S
N936 C937 1.346 . S
C937 N936 1.346 . S
C937 C938 1.396 . S
C937 C947 1.510 . S
C938 C934 1.401 . S
C938 C937 1.396 . S
C939 C934 1.499 . S
C939 H940 0.959 . S
C939 H941 0.960 . S
C939 H942 0.961 . S
H940 C939 0.959 . S
H941 C939 0.960 . S
H942 C939 0.961 . S
O943 Co918 1.967 1_556 S
O943 C951 1.258 . S
O944 Co919 1.941 1_556 S
O944 C951 1.266 . S
H945 C947 0.959 . S
H946 C947 0.961 . S
C947 C937 1.510 . S
C947 H945 0.959 . S
C947 H946 0.961 . S
C947 H948 0.960 . S
H948 C947 0.960 . S
H949 N929 0.862 . S
O950 Co918 1.920 . S
O950 C923 1.289 . S
C951 O943 1.258 . S
C951 O944 1.266 . S
Co952 O955 1.970 . S
Co952 N969 1.989 . S
Co952 O977 1.967 1_554 S
Co952 O984 1.920 . S
Co953 O956 1.966 . S
Co953 N962 2.022 . S
Co953 N970 1.993 . S
Co953 O978 1.941 1_554 S
C954 O955 1.258 . S
C954 O956 1.263 . S
O955 Co952 1.970 . S
O955 C954 1.258 . S
O956 Co953 1.966 . S
O956 C954 1.263 . S
C957 O958 1.235 . S
C957 O984 1.289 . S
O958 C957 1.235 . S
C959 C961 1.400 . S
C959 N962 1.351 . S
C959 C964 1.501 . S
C960 C961 1.387 . S
C960 N963 1.341 . S
C961 C959 1.400 . S
C961 C960 1.387 . S
N962 Co953 2.022 . S
N962 C959 1.351 . S
N962 N963 1.365 . S
N963 C960 1.341 . S
N963 N962 1.365 . S
N963 H983 0.862 . S
C964 C959 1.501 . S
C964 H965 0.961 . S
C964 H966 0.961 . S
C964 H967 0.960 . S
H965 C964 0.961 . S
H966 C964 0.961 . S
H967 C964 0.960 . S
C968 N969 1.342 . S
C968 C972 1.401 . S
C968 C973 1.499 . S
N969 Co952 1.989 . S
N969 C968 1.342 . S
N969 N970 1.388 . S
N970 Co953 1.993 . S
N970 N969 1.388 . S
N970 C971 1.346 . S
C971 N970 1.346 . S
C971 C972 1.396 . S
C971 C981 1.510 . S
C972 C968 1.401 . S
C972 C971 1.396 . S
C973 C968 1.499 . S
C973 H974 0.959 . S
C973 H975 0.960 . S
C973 H976 0.961 . S
H974 C973 0.959 . S
H975 C973 0.960 . S
H976 C973 0.961 . S
O977 Co952 1.967 1_556 S
O977 C985 1.258 . S
O978 Co953 1.941 1_556 S
O978 C985 1.266 . S
H979 C981 0.959 . S
H980 C981 0.961 . S
C981 C971 1.510 . S
C981 H979 0.959 . S
C981 H980 0.961 . S
C981 H982 0.960 . S
H982 C981 0.960 . S
H983 N963 0.862 . S
O984 Co952 1.920 . S
O984 C957 1.289 . S
C985 O977 1.258 . S
C985 O978 1.266 . S
Co986 O989 1.970 . S
Co986 N1003 1.989 . S
Co986 O1011 1.967 1_554 S
Co986 O1018 1.920 . S
Co987 O990 1.966 . S
Co987 N996 2.022 . S
Co987 N1004 1.993 . S
Co987 O1012 1.941 1_554 S
C988 O989 1.258 . S
C988 O990 1.263 . S
O989 Co986 1.970 . S
O989 C988 1.258 . S
O990 Co987 1.966 . S
O990 C988 1.263 . S
C991 O992 1.235 . S
C991 O1018 1.289 . S
O992 C991 1.235 . S
C993 C995 1.400 . S
C993 N996 1.351 . S
C993 C998 1.501 . S
C994 C995 1.387 . S
C994 N997 1.341 . S
C995 C993 1.400 . S
C995 C994 1.387 . S
N996 Co987 2.022 . S
N996 C993 1.351 . S
N996 N997 1.365 . S
N997 C994 1.341 . S
N997 N996 1.365 . S
N997 H1017 0.862 . S
C998 C993 1.501 . S
C998 H999 0.961 . S
C998 H1000 0.961 . S
C998 H1001 0.960 . S
H999 C998 0.961 . S
H1000 C998 0.961 . S
H1001 C998 0.960 . S
C1002 N1003 1.342 . S
C1002 C1006 1.401 . S
C1002 C1007 1.499 . S
N1003 Co986 1.989 . S
N1003 C1002 1.342 . S
N1003 N1004 1.388 . S
N1004 Co987 1.993 . S
N1004 N1003 1.388 . S
N1004 C1005 1.346 . S
C1005 N1004 1.346 . S
C1005 C1006 1.396 . S
C1005 C1015 1.510 . S
C1006 C1002 1.401 . S
C1006 C1005 1.396 . S
C1007 C1002 1.499 . S
C1007 H1008 0.959 . S
C1007 H1009 0.960 . S
C1007 H1010 0.961 . S
H1008 C1007 0.959 . S
H1009 C1007 0.960 . S
H1010 C1007 0.961 . S
O1011 Co986 1.967 1_556 S
O1011 C1019 1.258 . S
O1012 Co987 1.941 1_556 S
O1012 C1019 1.266 . S
H1013 C1015 0.959 . S
H1014 C1015 0.961 . S
C1015 C1005 1.510 . S
C1015 H1013 0.959 . S
C1015 H1014 0.961 . S
C1015 H1016 0.960 . S
H1016 C1015 0.960 . S
H1017 N997 0.862 . S
O1018 Co986 1.920 . S
O1018 C991 1.289 . S
C1019 O1011 1.258 . S
C1019 O1012 1.266 . S
Co1020 O1023 1.970 . S
Co1020 N1037 1.989 . S
Co1020 O1045 1.967 . S
Co1020 O1052 1.920 . S
Co1021 O1024 1.966 . S
Co1021 N1030 2.022 . S
Co1021 N1038 1.993 . S
Co1021 O1046 1.941 . S
C1022 O1023 1.258 . S
C1022 O1024 1.263 . S
O1023 Co1020 1.970 . S
O1023 C1022 1.258 . S
O1024 Co1021 1.966 . S
O1024 C1022 1.263 . S
C1025 O1026 1.235 . S
C1025 O1052 1.289 . S
O1026 C1025 1.235 . S
C1027 C1029 1.400 . S
C1027 N1030 1.351 . S
C1027 C1032 1.501 . S
C1028 C1029 1.387 . S
C1028 N1031 1.341 . S
C1029 C1027 1.400 . S
C1029 C1028 1.387 . S
N1030 Co1021 2.022 . S
N1030 C1027 1.351 . S
N1030 N1031 1.365 . S
N1031 C1028 1.341 . S
N1031 N1030 1.365 . S
N1031 H1051 0.862 . S
C1032 C1027 1.501 . S
C1032 H1033 0.961 . S
C1032 H1034 0.961 . S
C1032 H1035 0.960 . S
H1033 C1032 0.961 . S
H1034 C1032 0.961 . S
H1035 C1032 0.960 . S
C1036 N1037 1.342 . S
C1036 C1040 1.401 . S
C1036 C1041 1.499 . S
N1037 Co1020 1.989 . S
N1037 C1036 1.342 . S
N1037 N1038 1.388 . S
N1038 Co1021 1.993 . S
N1038 N1037 1.388 . S
N1038 C1039 1.346 . S
C1039 N1038 1.346 . S
C1039 C1040 1.396 . S
C1039 C1049 1.510 . S
C1040 C1036 1.401 . S
C1040 C1039 1.396 . S
C1041 C1036 1.499 . S
C1041 H1042 0.959 . S
C1041 H1043 0.960 . S
C1041 H1044 0.961 . S
H1042 C1041 0.959 . S
H1043 C1041 0.960 . S
H1044 C1041 0.961 . S
O1045 Co1020 1.967 . S
O1045 C1053 1.258 . S
O1046 Co1021 1.941 . S
O1046 C1053 1.266 . S
H1047 C1049 0.959 . S
H1048 C1049 0.961 . S
C1049 C1039 1.510 . S
C1049 H1047 0.959 . S
C1049 H1048 0.961 . S
C1049 H1050 0.960 . S
H1050 C1049 0.960 . S
H1051 N1031 0.862 . S
O1052 Co1020 1.920 . S
O1052 C1025 1.289 . S
C1053 O1045 1.258 . S
C1053 O1046 1.266 . S
Co1054 O1057 1.970 . S
Co1054 N1071 1.989 . S
Co1054 O1079 1.967 . S
Co1054 O1086 1.920 . S
Co1055 O1058 1.966 . S
Co1055 N1064 2.022 . S
Co1055 N1072 1.993 . S
Co1055 O1080 1.941 . S
C1056 O1057 1.258 . S
C1056 O1058 1.263 . S
O1057 Co1054 1.970 . S
O1057 C1056 1.258 . S
O1058 Co1055 1.966 . S
O1058 C1056 1.263 . S
C1059 O1060 1.235 . S
C1059 O1086 1.289 . S
O1060 C1059 1.235 . S
C1061 C1063 1.400 . S
C1061 N1064 1.351 . S
C1061 C1066 1.501 . S
C1062 C1063 1.387 . S
C1062 N1065 1.341 . S
C1063 C1061 1.400 . S
C1063 C1062 1.387 . S
N1064 Co1055 2.022 . S
N1064 C1061 1.351 . S
N1064 N1065 1.365 . S
N1065 C1062 1.341 . S
N1065 N1064 1.365 . S
N1065 H1085 0.862 . S
C1066 C1061 1.501 . S
C1066 H1067 0.961 . S
C1066 H1068 0.961 . S
C1066 H1069 0.960 . S
H1067 C1066 0.961 . S
H1068 C1066 0.961 . S
H1069 C1066 0.960 . S
C1070 N1071 1.342 . S
C1070 C1074 1.401 . S
C1070 C1075 1.499 . S
N1071 Co1054 1.989 . S
N1071 C1070 1.342 . S
N1071 N1072 1.388 . S
N1072 Co1055 1.993 . S
N1072 N1071 1.388 . S
N1072 C1073 1.346 . S
C1073 N1072 1.346 . S
C1073 C1074 1.396 . S
C1073 C1083 1.510 . S
C1074 C1070 1.401 . S
C1074 C1073 1.396 . S
C1075 C1070 1.499 . S
C1075 H1076 0.959 . S
C1075 H1077 0.960 . S
C1075 H1078 0.961 . S
H1076 C1075 0.959 . S
H1077 C1075 0.960 . S
H1078 C1075 0.961 . S
O1079 Co1054 1.967 . S
O1079 C1087 1.258 . S
O1080 Co1055 1.941 . S
O1080 C1087 1.266 . S
H1081 C1083 0.959 . S
H1082 C1083 0.961 . S
C1083 C1073 1.510 . S
C1083 H1081 0.959 . S
C1083 H1082 0.961 . S
C1083 H1084 0.960 . S
H1084 C1083 0.960 . S
H1085 N1065 0.862 . S
O1086 Co1054 1.920 . S
O1086 C1059 1.289 . S
C1087 O1079 1.258 . S
C1087 O1080 1.266 . S
Co1088 O1091 1.970 . S
Co1088 N1105 1.989 . S
Co1088 O1113 1.967 . S
Co1088 O1120 1.920 . S
Co1089 O1092 1.966 . S
Co1089 N1098 2.022 . S
Co1089 N1106 1.993 . S
Co1089 O1114 1.941 . S
C1090 O1091 1.258 . S
C1090 O1092 1.263 . S
O1091 Co1088 1.970 . S
O1091 C1090 1.258 . S
O1092 Co1089 1.966 . S
O1092 C1090 1.263 . S
C1093 O1094 1.235 . S
C1093 O1120 1.289 . S
O1094 C1093 1.235 . S
C1095 C1097 1.400 . S
C1095 N1098 1.351 . S
C1095 C1100 1.501 . S
C1096 C1097 1.387 . S
C1096 N1099 1.341 . S
C1097 C1095 1.400 . S
C1097 C1096 1.387 . S
N1098 Co1089 2.022 . S
N1098 C1095 1.351 . S
N1098 N1099 1.365 . S
N1099 C1096 1.341 . S
N1099 N1098 1.365 . S
N1099 H1119 0.862 . S
C1100 C1095 1.501 . S
C1100 H1101 0.961 . S
C1100 H1102 0.961 . S
C1100 H1103 0.960 . S
H1101 C1100 0.961 . S
H1102 C1100 0.961 . S
H1103 C1100 0.960 . S
C1104 N1105 1.342 . S
C1104 C1108 1.401 . S
C1104 C1109 1.499 . S
N1105 Co1088 1.989 . S
N1105 C1104 1.342 . S
N1105 N1106 1.388 . S
N1106 Co1089 1.993 . S
N1106 N1105 1.388 . S
N1106 C1107 1.346 . S
C1107 N1106 1.346 . S
C1107 C1108 1.396 . S
C1107 C1117 1.510 . S
C1108 C1104 1.401 . S
C1108 C1107 1.396 . S
C1109 C1104 1.499 . S
C1109 H1110 0.959 . S
C1109 H1111 0.960 . S
C1109 H1112 0.961 . S
H1110 C1109 0.959 . S
H1111 C1109 0.960 . S
H1112 C1109 0.961 . S
O1113 Co1088 1.967 . S
O1113 C1121 1.258 . S
O1114 Co1089 1.941 . S
O1114 C1121 1.266 . S
H1115 C1117 0.959 . S
H1116 C1117 0.961 . S
C1117 C1107 1.510 . S
C1117 H1115 0.959 . S
C1117 H1116 0.961 . S
C1117 H1118 0.960 . S
H1118 C1117 0.960 . S
H1119 N1099 0.862 . S
O1120 Co1088 1.920 . S
O1120 C1093 1.289 . S
C1121 O1113 1.258 . S
C1121 O1114 1.266 . S
Co1122 O1125 1.970 . S
Co1122 N1139 1.989 . S
Co1122 O1147 1.967 . S
Co1122 O1154 1.920 . S
Co1123 O1126 1.966 . S
Co1123 N1132 2.022 . S
Co1123 N1140 1.993 . S
Co1123 O1148 1.941 . S
C1124 O1125 1.258 . S
C1124 O1126 1.263 . S
O1125 Co1122 1.970 . S
O1125 C1124 1.258 . S
O1126 Co1123 1.966 . S
O1126 C1124 1.263 . S
C1127 O1128 1.235 . S
C1127 O1154 1.289 . S
O1128 C1127 1.235 . S
C1129 C1131 1.400 . S
C1129 N1132 1.351 . S
C1129 C1134 1.501 . S
C1130 C1131 1.387 . S
C1130 N1133 1.341 . S
C1131 C1129 1.400 . S
C1131 C1130 1.387 . S
N1132 Co1123 2.022 . S
N1132 C1129 1.351 . S
N1132 N1133 1.365 . S
N1133 C1130 1.341 . S
N1133 N1132 1.365 . S
N1133 H1153 0.862 . S
C1134 C1129 1.501 . S
C1134 H1135 0.961 . S
C1134 H1136 0.961 . S
C1134 H1137 0.960 . S
H1135 C1134 0.961 . S
H1136 C1134 0.961 . S
H1137 C1134 0.960 . S
C1138 N1139 1.342 . S
C1138 C1142 1.401 . S
C1138 C1143 1.499 . S
N1139 Co1122 1.989 . S
N1139 C1138 1.342 . S
N1139 N1140 1.388 . S
N1140 Co1123 1.993 . S
N1140 N1139 1.388 . S
N1140 C1141 1.346 . S
C1141 N1140 1.346 . S
C1141 C1142 1.396 . S
C1141 C1151 1.510 . S
C1142 C1138 1.401 . S
C1142 C1141 1.396 . S
C1143 C1138 1.499 . S
C1143 H1144 0.959 . S
C1143 H1145 0.960 . S
C1143 H1146 0.961 . S
H1144 C1143 0.959 . S
H1145 C1143 0.960 . S
H1146 C1143 0.961 . S
O1147 Co1122 1.967 . S
O1147 C1155 1.258 . S
O1148 Co1123 1.941 . S
O1148 C1155 1.266 . S
H1149 C1151 0.959 . S
H1150 C1151 0.961 . S
C1151 C1141 1.510 . S
C1151 H1149 0.959 . S
C1151 H1150 0.961 . S
C1151 H1152 0.960 . S
H1152 C1151 0.960 . S
H1153 N1133 0.862 . S
O1154 Co1122 1.920 . S
O1154 C1127 1.289 . S
C1155 O1147 1.258 . S
C1155 O1148 1.266 . S
Co1156 O1159 1.970 . S
Co1156 N1173 1.989 . S
Co1156 O1181 1.967 . S
Co1156 O1188 1.920 . S
Co1157 O1160 1.966 . S
Co1157 N1166 2.022 . S
Co1157 N1174 1.993 . S
Co1157 O1182 1.941 . S
C1158 O1159 1.258 . S
C1158 O1160 1.263 . S
O1159 Co1156 1.970 . S
O1159 C1158 1.258 . S
O1160 Co1157 1.966 . S
O1160 C1158 1.263 . S
C1161 O1162 1.235 . S
C1161 O1188 1.289 . S
O1162 C1161 1.235 . S
C1163 C1165 1.400 . S
C1163 N1166 1.351 . S
C1163 C1168 1.501 . S
C1164 C1165 1.387 . S
C1164 N1167 1.341 . S
C1165 C1163 1.400 . S
C1165 C1164 1.387 . S
N1166 Co1157 2.022 . S
N1166 C1163 1.351 . S
N1166 N1167 1.365 . S
N1167 C1164 1.341 . S
N1167 N1166 1.365 . S
N1167 H1187 0.862 . S
C1168 C1163 1.501 . S
C1168 H1169 0.961 . S
C1168 H1170 0.961 . S
C1168 H1171 0.960 . S
H1169 C1168 0.961 . S
H1170 C1168 0.961 . S
H1171 C1168 0.960 . S
C1172 N1173 1.342 . S
C1172 C1176 1.401 . S
C1172 C1177 1.499 . S
N1173 Co1156 1.989 . S
N1173 C1172 1.342 . S
N1173 N1174 1.388 . S
N1174 Co1157 1.993 . S
N1174 N1173 1.388 . S
N1174 C1175 1.346 . S
C1175 N1174 1.346 . S
C1175 C1176 1.396 . S
C1175 C1185 1.510 . S
C1176 C1172 1.401 . S
C1176 C1175 1.396 . S
C1177 C1172 1.499 . S
C1177 H1178 0.959 . S
C1177 H1179 0.960 . S
C1177 H1180 0.961 . S
H1178 C1177 0.959 . S
H1179 C1177 0.960 . S
H1180 C1177 0.961 . S
O1181 Co1156 1.967 . S
O1181 C1189 1.258 . S
O1182 Co1157 1.941 . S
O1182 C1189 1.266 . S
H1183 C1185 0.959 . S
H1184 C1185 0.961 . S
C1185 C1175 1.510 . S
C1185 H1183 0.959 . S
C1185 H1184 0.961 . S
C1185 H1186 0.960 . S
H1186 C1185 0.960 . S
H1187 N1167 0.862 . S
O1188 Co1156 1.920 . S
O1188 C1161 1.289 . S
C1189 O1181 1.258 . S
C1189 O1182 1.266 . S
Co1190 O1193 1.970 . S
Co1190 N1207 1.989 . S
Co1190 O1215 1.967 . S
Co1190 O1222 1.920 . S
Co1191 O1194 1.966 . S
Co1191 N1200 2.022 . S
Co1191 N1208 1.993 . S
Co1191 O1216 1.941 . S
C1192 O1193 1.258 . S
C1192 O1194 1.263 . S
O1193 Co1190 1.970 . S
O1193 C1192 1.258 . S
O1194 Co1191 1.966 . S
O1194 C1192 1.263 . S
C1195 O1196 1.235 . S
C1195 O1222 1.289 . S
O1196 C1195 1.235 . S
C1197 C1199 1.400 . S
C1197 N1200 1.351 . S
C1197 C1202 1.501 . S
C1198 C1199 1.387 . S
C1198 N1201 1.341 . S
C1199 C1197 1.400 . S
C1199 C1198 1.387 . S
N1200 Co1191 2.022 . S
N1200 C1197 1.351 . S
N1200 N1201 1.365 . S
N1201 C1198 1.341 . S
N1201 N1200 1.365 . S
N1201 H1221 0.862 . S
C1202 C1197 1.501 . S
C1202 H1203 0.961 . S
C1202 H1204 0.961 . S
C1202 H1205 0.960 . S
H1203 C1202 0.961 . S
H1204 C1202 0.961 . S
H1205 C1202 0.960 . S
C1206 N1207 1.342 . S
C1206 C1210 1.401 . S
C1206 C1211 1.499 . S
N1207 Co1190 1.989 . S
N1207 C1206 1.342 . S
N1207 N1208 1.388 . S
N1208 Co1191 1.993 . S
N1208 N1207 1.388 . S
N1208 C1209 1.346 . S
C1209 N1208 1.346 . S
C1209 C1210 1.396 . S
C1209 C1219 1.510 . S
C1210 C1206 1.401 . S
C1210 C1209 1.396 . S
C1211 C1206 1.499 . S
C1211 H1212 0.959 . S
C1211 H1213 0.960 . S
C1211 H1214 0.961 . S
H1212 C1211 0.959 . S
H1213 C1211 0.960 . S
H1214 C1211 0.961 . S
O1215 Co1190 1.967 . S
O1215 C1223 1.258 . S
O1216 Co1191 1.941 . S
O1216 C1223 1.266 . S
H1217 C1219 0.959 . S
H1218 C1219 0.961 . S
C1219 C1209 1.510 . S
C1219 H1217 0.959 . S
C1219 H1218 0.961 . S
C1219 H1220 0.960 . S
H1220 C1219 0.960 . S
H1221 N1201 0.862 . S
O1222 Co1190 1.920 . S
O1222 C1195 1.289 . S
C1223 O1215 1.258 . S
C1223 O1216 1.266 . S
H1224 C1236 0.930 . S
H1225 C1238 0.930 . S
H1226 C1239 0.930 . S
H1227 C1243 0.959 . S
H1228 C1243 0.959 . S
H1229 C1243 0.961 . S
H1230 C1244 0.960 . S
H1231 C1244 0.961 . S
H1232 C1244 0.959 . S
H1233 C1247 0.929 . S
H1234 C1248 0.931 . S
H1235 C1250 0.930 . S
C1236 H1224 0.930 . S
C1236 C1237 1.399 . S
C1236 C1241 1.399 . S
C1237 C1236 1.399 . S
C1237 C1238 1.376 . S
C1238 H1225 0.930 . S
C1238 C1237 1.376 . S
C1238 C1239 1.388 . S
C1239 H1226 0.930 . S
C1239 C1238 1.388 . S
C1239 C1240 1.390 . S
C1240 C1239 1.390 . S
C1240 C1241 1.394 . S
C1240 C1246 1.465 . S
C1241 C1236 1.399 . S
C1241 C1240 1.394 . S
C1241 C1242 1.516 . S
C1242 C1241 1.516 . S
C1242 C1243 1.502 . S
C1242 C1244 1.561 . S
C1242 C1245 1.526 . S
C1243 H1227 0.959 . S
C1243 H1228 0.959 . S
C1243 H1229 0.961 . S
C1243 C1242 1.502 . S
C1244 H1230 0.960 . S
C1244 H1231 0.961 . S
C1244 H1232 0.959 . S
C1244 C1242 1.561 . S
C1245 C1242 1.526 . S
C1245 C1246 1.396 . S
C1245 C1250 1.390 . S
C1246 C1240 1.465 . S
C1246 C1245 1.396 . S
C1246 C1247 1.399 . S
C1247 H1233 0.929 . S
C1247 C1246 1.399 . S
C1247 C1248 1.385 . S
C1248 H1234 0.931 . S
C1248 C1247 1.385 . S
C1248 C1249 1.389 . S
C1249 C1248 1.389 . S
C1249 C1250 1.387 . S
C1250 H1235 0.930 . S
C1250 C1245 1.390 . S
C1250 C1249 1.387 . S
H1251 C1263 0.930 . S
H1252 C1265 0.930 . S
H1253 C1266 0.930 1_545 S
H1254 C1270 0.959 . S
H1255 C1270 0.959 . S
H1256 C1270 0.961 1_565 S
H1257 C1271 0.960 1_565 S
H1258 C1271 0.961 . S
H1259 C1271 0.959 . S
H1260 C1274 0.929 . S
H1261 C1275 0.931 . S
H1262 C1277 0.930 . S
C1263 H1251 0.930 . S
C1263 C1264 1.399 . S
C1263 C1268 1.399 . S
C1264 C1263 1.399 . S
C1264 C1265 1.376 . S
C1265 H1252 0.930 . S
C1265 C1264 1.376 . S
C1265 C1266 1.388 . S
C1266 H1253 0.930 1_565 S
C1266 C1265 1.388 . S
C1266 C1267 1.390 1_565 S
C1267 C1266 1.390 1_545 S
C1267 C1268 1.394 1_545 S
C1267 C1273 1.465 . S
C1268 C1263 1.399 . S
C1268 C1267 1.394 1_565 S
C1268 C1269 1.516 1_565 S
C1269 C1268 1.516 1_545 S
C1269 C1270 1.502 . S
C1269 C1271 1.561 . S
C1269 C1272 1.526 . S
C1270 H1254 0.959 . S
C1270 H1255 0.959 . S
C1270 H1256 0.961 1_545 S
C1270 C1269 1.502 . S
C1271 H1257 0.960 1_545 S
C1271 H1258 0.961 . S
C1271 H1259 0.959 . S
C1271 C1269 1.561 . S
C1272 C1269 1.526 . S
C1272 C1273 1.396 . S
C1272 C1277 1.390 . S
C1273 C1267 1.465 . S
C1273 C1272 1.396 . S
C1273 C1274 1.399 . S
C1274 H1260 0.929 . S
C1274 C1273 1.399 . S
C1274 C1275 1.385 . S
C1275 H1261 0.931 . S
C1275 C1274 1.385 . S
C1275 C1276 1.389 . S
C1276 C1275 1.389 . S
C1276 C1277 1.387 . S
C1277 H1262 0.930 . S
C1277 C1272 1.390 . S
C1277 C1276 1.387 . S
H1278 C1290 0.930 . S
H1279 C1292 0.930 . S
H1280 C1293 0.930 1_655 S
H1281 C1297 0.959 . S
H1282 C1297 0.959 . S
H1283 C1297 0.961 1_455 S
H1284 C1298 0.960 1_455 S
H1285 C1298 0.961 . S
H1286 C1298 0.959 . S
H1287 C1301 0.929 . S
H1288 C1302 0.931 . S
H1289 C1304 0.930 . S
C1290 H1278 0.930 . S
C1290 C1291 1.399 . S
C1290 C1295 1.399 . S
C1291 C1290 1.399 . S
C1291 C1292 1.376 . S
C1292 H1279 0.930 . S
C1292 C1291 1.376 . S
C1292 C1293 1.388 . S
C1293 H1280 0.930 1_455 S
C1293 C1292 1.388 . S
C1293 C1294 1.390 1_455 S
C1294 C1293 1.390 1_655 S
C1294 C1295 1.394 1_655 S
C1294 C1300 1.465 . S
C1295 C1290 1.399 . S
C1295 C1294 1.394 1_455 S
C1295 C1296 1.516 1_455 S
C1296 C1295 1.516 1_655 S
C1296 C1297 1.502 . S
C1296 C1298 1.561 . S
C1296 C1299 1.526 . S
C1297 H1281 0.959 . S
C1297 H1282 0.959 . S
C1297 H1283 0.961 1_655 S
C1297 C1296 1.502 . S
C1298 H1284 0.960 1_655 S
C1298 H1285 0.961 . S
C1298 H1286 0.959 . S
C1298 C1296 1.561 . S
C1299 C1296 1.526 . S
C1299 C1300 1.396 . S
C1299 C1304 1.390 . S
C1300 C1294 1.465 . S
C1300 C1299 1.396 . S
C1300 C1301 1.399 . S
C1301 H1287 0.929 . S
C1301 C1300 1.399 . S
C1301 C1302 1.385 . S
C1302 H1288 0.931 . S
C1302 C1301 1.385 . S
C1302 C1303 1.389 . S
C1303 C1302 1.389 . S
C1303 C1304 1.387 . S
C1304 H1289 0.930 . S
C1304 C1299 1.390 . S
C1304 C1303 1.387 . S
H1305 C1317 0.930 . S
H1306 C1319 0.930 . S
H1307 C1320 0.930 . S
H1308 C1324 0.959 . S
H1309 C1324 0.959 . S
H1310 C1324 0.961 . S
H1311 C1325 0.960 . S
H1312 C1325 0.961 . S
H1313 C1325 0.959 . S
H1314 C1328 0.929 . S
H1315 C1329 0.931 . S
H1316 C1331 0.930 . S
C1317 H1305 0.930 . S
C1317 C1318 1.399 . S
C1317 C1322 1.399 . S
C1318 C1317 1.399 . S
C1318 C1319 1.376 . S
C1319 H1306 0.930 . S
C1319 C1318 1.376 . S
C1319 C1320 1.388 . S
C1320 H1307 0.930 . S
C1320 C1319 1.388 . S
C1320 C1321 1.390 . S
C1321 C1320 1.390 . S
C1321 C1322 1.394 . S
C1321 C1327 1.465 . S
C1322 C1317 1.399 . S
C1322 C1321 1.394 . S
C1322 C1323 1.516 . S
C1323 C1322 1.516 . S
C1323 C1324 1.502 . S
C1323 C1325 1.561 . S
C1323 C1326 1.526 . S
C1324 H1308 0.959 . S
C1324 H1309 0.959 . S
C1324 H1310 0.961 . S
C1324 C1323 1.502 . S
C1325 H1311 0.960 . S
C1325 H1312 0.961 . S
C1325 H1313 0.959 . S
C1325 C1323 1.561 . S
C1326 C1323 1.526 . S
C1326 C1327 1.396 . S
C1326 C1331 1.390 . S
C1327 C1321 1.465 . S
C1327 C1326 1.396 . S
C1327 C1328 1.399 . S
C1328 H1314 0.929 . S
C1328 C1327 1.399 . S
C1328 C1329 1.385 . S
C1329 H1315 0.931 . S
C1329 C1328 1.385 . S
C1329 C1330 1.389 . S
C1330 C1329 1.389 . S
C1330 C1331 1.387 . S
C1331 H1316 0.930 . S
C1331 C1326 1.390 . S
C1331 C1330 1.387 . S
H1332 C1344 0.930 . S
H1333 C1346 0.930 . S
H1334 C1347 0.930 . S
H1335 C1351 0.959 . S
H1336 C1351 0.959 . S
H1337 C1351 0.961 . S
H1338 C1352 0.960 . S
H1339 C1352 0.961 . S
H1340 C1352 0.959 . S
H1341 C1355 0.929 . S
H1342 C1356 0.931 . S
H1343 C1358 0.930 . S
C1344 H1332 0.930 . S
C1344 C1345 1.399 . S
C1344 C1349 1.399 1_545 S
C1345 C1344 1.399 . S
C1345 C1346 1.376 . S
C1346 H1333 0.930 . S
C1346 C1345 1.376 . S
C1346 C1347 1.388 . S
C1347 H1334 0.930 . S
C1347 C1346 1.388 . S
C1347 C1348 1.390 1_545 S
C1348 C1347 1.390 1_565 S
C1348 C1349 1.394 . S
C1348 C1354 1.465 . S
C1349 C1344 1.399 1_565 S
C1349 C1348 1.394 . S
C1349 C1350 1.516 . S
C1350 C1349 1.516 . S
C1350 C1351 1.502 . S
C1350 C1352 1.561 . S
C1350 C1353 1.526 . S
C1351 H1335 0.959 . S
C1351 H1336 0.959 . S
C1351 H1337 0.961 . S
C1351 C1350 1.502 . S
C1352 H1338 0.960 . S
C1352 H1339 0.961 . S
C1352 H1340 0.959 . S
C1352 C1350 1.561 . S
C1353 C1350 1.526 . S
C1353 C1354 1.396 . S
C1353 C1358 1.390 . S
C1354 C1348 1.465 . S
C1354 C1353 1.396 . S
C1354 C1355 1.399 . S
C1355 H1341 0.929 . S
C1355 C1354 1.399 . S
C1355 C1356 1.385 . S
C1356 H1342 0.931 . S
C1356 C1355 1.385 . S
C1356 C1357 1.389 . S
C1357 C1356 1.389 . S
C1357 C1358 1.387 . S
C1358 H1343 0.930 . S
C1358 C1353 1.390 . S
C1358 C1357 1.387 . S
H1359 C1371 0.930 . S
H1360 C1373 0.930 . S
H1361 C1374 0.930 . S
H1362 C1378 0.959 . S
H1363 C1378 0.959 . S
H1364 C1378 0.961 . S
H1365 C1379 0.960 1_655 S
H1366 C1379 0.961 . S
H1367 C1379 0.959 . S
H1368 C1382 0.929 . S
H1369 C1383 0.931 . S
H1370 C1385 0.930 . S
C1371 H1359 0.930 . S
C1371 C1372 1.399 . S
C1371 C1376 1.399 . S
C1372 C1371 1.399 . S
C1372 C1373 1.376 . S
C1373 H1360 0.930 . S
C1373 C1372 1.376 . S
C1373 C1374 1.388 . S
C1374 H1361 0.930 . S
C1374 C1373 1.388 . S
C1374 C1375 1.390 1_655 S
C1375 C1374 1.390 1_455 S
C1375 C1376 1.394 1_455 S
C1375 C1381 1.465 . S
C1376 C1371 1.399 . S
C1376 C1375 1.394 1_655 S
C1376 C1377 1.516 1_655 S
C1377 C1376 1.516 1_455 S
C1377 C1378 1.502 . S
C1377 C1379 1.561 . S
C1377 C1380 1.526 . S
C1378 H1362 0.959 . S
C1378 H1363 0.959 . S
C1378 H1364 0.961 . S
C1378 C1377 1.502 . S
C1379 H1365 0.960 1_455 S
C1379 H1366 0.961 . S
C1379 H1367 0.959 . S
C1379 C1377 1.561 . S
C1380 C1377 1.526 . S
C1380 C1381 1.396 . S
C1380 C1385 1.390 . S
C1381 C1375 1.465 . S
C1381 C1380 1.396 . S
C1381 C1382 1.399 . S
C1382 H1368 0.929 . S
C1382 C1381 1.399 . S
C1382 C1383 1.385 . S
C1383 H1369 0.931 . S
C1383 C1382 1.385 . S
C1383 C1384 1.389 . S
C1384 C1383 1.389 . S
C1384 C1385 1.387 . S
C1385 H1370 0.930 . S
C1385 C1380 1.390 . S
C1385 C1384 1.387 . S
H1386 C1398 0.930 . S
H1387 C1400 0.930 . S
H1388 C1401 0.930 . S
H1389 C1405 0.959 . S
H1390 C1405 0.959 . S
H1391 C1405 0.961 . S
H1392 C1406 0.960 . S
H1393 C1406 0.961 . S
H1394 C1406 0.959 . S
H1395 C1409 0.929 . S
H1396 C1410 0.931 . S
H1397 C1412 0.930 . S
C1398 H1386 0.930 . S
C1398 C1399 1.399 . S
C1398 C1403 1.399 . S
C1399 C1398 1.399 . S
C1399 C1400 1.376 . S
C1400 H1387 0.930 . S
C1400 C1399 1.376 . S
C1400 C1401 1.388 . S
C1401 H1388 0.930 . S
C1401 C1400 1.388 . S
C1401 C1402 1.390 . S
C1402 C1401 1.390 . S
C1402 C1403 1.394 . S
C1402 C1408 1.465 . S
C1403 C1398 1.399 . S
C1403 C1402 1.394 . S
C1403 C1404 1.516 . S
C1404 C1403 1.516 . S
C1404 C1405 1.502 . S
C1404 C1406 1.561 . S
C1404 C1407 1.526 . S
C1405 H1389 0.959 . S
C1405 H1390 0.959 . S
C1405 H1391 0.961 . S
C1405 C1404 1.502 . S
C1406 H1392 0.960 . S
C1406 H1393 0.961 . S
C1406 H1394 0.959 . S
C1406 C1404 1.561 . S
C1407 C1404 1.526 . S
C1407 C1408 1.396 . S
C1407 C1412 1.390 . S
C1408 C1402 1.465 . S
C1408 C1407 1.396 . S
C1408 C1409 1.399 . S
C1409 H1395 0.929 . S
C1409 C1408 1.399 . S
C1409 C1410 1.385 . S
C1410 H1396 0.931 . S
C1410 C1409 1.385 . S
C1410 C1411 1.389 . S
C1411 C1410 1.389 . S
C1411 C1412 1.387 . S
C1412 H1397 0.930 . S
C1412 C1407 1.390 . S
C1412 C1411 1.387 . S
H1413 C1425 0.930 . S
H1414 C1427 0.930 . S
H1415 C1428 0.930 . S
H1416 C1432 0.959 . S
H1417 C1432 0.959 1_545 S
H1418 C1432 0.961 . S
H1419 C1433 0.960 . S
H1420 C1433 0.961 1_545 S
H1421 C1433 0.959 . S
H1422 C1436 0.929 1_565 S
H1423 C1437 0.931 . S
H1424 C1439 0.930 . S
C1425 H1413 0.930 . S
C1425 C1426 1.399 . S
C1425 C1430 1.399 . S
C1426 C1425 1.399 . S
C1426 C1427 1.376 . S
C1427 H1414 0.930 . S
C1427 C1426 1.376 . S
C1427 C1428 1.388 . S
C1428 H1415 0.930 . S
C1428 C1427 1.388 . S
C1428 C1429 1.390 . S
C1429 C1428 1.390 . S
C1429 C1430 1.394 . S
C1429 C1435 1.465 . S
C1430 C1425 1.399 . S
C1430 C1429 1.394 . S
C1430 C1431 1.516 . S
C1431 C1430 1.516 . S
C1431 C1432 1.502 . S
C1431 C1433 1.561 . S
C1431 C1434 1.526 1_565 S
C1432 H1416 0.959 . S
C1432 H1417 0.959 1_565 S
C1432 H1418 0.961 . S
C1432 C1431 1.502 . S
C1433 H1419 0.960 . S
C1433 H1420 0.961 1_565 S
C1433 H1421 0.959 . S
C1433 C1431 1.561 . S
C1434 C1431 1.526 1_545 S
C1434 C1435 1.396 1_545 S
C1434 C1439 1.390 . S
C1435 C1429 1.465 . S
C1435 C1434 1.396 1_565 S
C1435 C1436 1.399 1_565 S
C1436 H1422 0.929 1_545 S
C1436 C1435 1.399 1_545 S
C1436 C1437 1.385 . S
C1437 H1423 0.931 . S
C1437 C1436 1.385 . S
C1437 C1438 1.389 . S
C1438 C1437 1.389 . S
C1438 C1439 1.387 . S
C1439 H1424 0.930 . S
C1439 C1434 1.390 . S
C1439 C1438 1.387 . S
H1440 C1452 0.930 . S
H1441 C1454 0.930 . S
H1442 C1455 0.930 . S
H1443 C1459 0.959 . S
H1444 C1459 0.959 . S
H1445 C1459 0.961 . S
H1446 C1460 0.960 . S
H1447 C1460 0.961 . S
H1448 C1460 0.959 . S
H1449 C1463 0.929 . S
H1450 C1464 0.931 . S
H1451 C1466 0.930 . S
C1452 H1440 0.930 . S
C1452 C1453 1.399 . S
C1452 C1457 1.399 . S
C1453 C1452 1.399 . S
C1453 C1454 1.376 . S
C1454 H1441 0.930 . S
C1454 C1453 1.376 . S
C1454 C1455 1.388 . S
C1455 H1442 0.930 . S
C1455 C1454 1.388 . S
C1455 C1456 1.390 . S
C1456 C1455 1.390 . S
C1456 C1457 1.394 . S
C1456 C1462 1.465 . S
C1457 C1452 1.399 . S
C1457 C1456 1.394 . S
C1457 C1458 1.516 . S
C1458 C1457 1.516 . S
C1458 C1459 1.502 . S
C1458 C1460 1.561 . S
C1458 C1461 1.512 1_455 S
C1459 H1443 0.959 . S
C1459 H1444 0.959 . S
C1459 H1445 0.961 . S
C1459 C1458 1.502 . S
C1460 H1446 0.960 . S
C1460 H1447 0.961 . S
C1460 H1448 0.959 . S
C1460 C1458 1.561 . S
C1461 C1458 1.512 1_655 S
C1461 C1462 1.377 1_655 S
C1461 C1466 1.419 . S
C1462 C1456 1.465 . S
C1462 C1461 1.377 1_455 S
C1462 C1463 1.399 1_455 S
C1463 H1449 0.929 . S
C1463 C1462 1.399 1_655 S
C1463 C1464 1.385 . S
C1464 H1450 0.931 . S
C1464 C1463 1.385 . S
C1464 C1465 1.389 . S
C1465 C1464 1.389 . S
C1465 C1466 1.387 . S
C1466 H1451 0.930 . S
C1466 C1461 1.419 . S
C1466 C1465 1.387 . S
H1467 C1479 0.930 . S
H1468 C1481 0.930 . S
H1469 C1482 0.930 . S
H1470 C1486 0.959 . S
H1471 C1486 0.959 . S
H1472 C1486 0.961 . S
H1473 C1487 0.960 . S
H1474 C1487 0.961 . S
H1475 C1487 0.959 . S
H1476 C1490 0.929 . S
H1477 C1491 0.931 . S
H1478 C1493 0.930 . S
C1479 H1467 0.930 . S
C1479 C1480 1.399 . S
C1479 C1484 1.399 . S
C1480 C1479 1.399 . S
C1480 C1481 1.376 . S
C1481 H1468 0.930 . S
C1481 C1480 1.376 . S
C1481 C1482 1.388 . S
C1482 H1469 0.930 . S
C1482 C1481 1.388 . S
C1482 C1483 1.390 . S
C1483 C1482 1.390 . S
C1483 C1484 1.394 . S
C1483 C1489 1.465 . S
C1484 C1479 1.399 . S
C1484 C1483 1.394 . S
C1484 C1485 1.516 . S
C1485 C1484 1.516 . S
C1485 C1486 1.502 . S
C1485 C1487 1.561 . S
C1485 C1488 1.526 . S
C1486 H1470 0.959 . S
C1486 H1471 0.959 . S
C1486 H1472 0.961 . S
C1486 C1485 1.502 . S
C1487 H1473 0.960 . S
C1487 H1474 0.961 . S
C1487 H1475 0.959 . S
C1487 C1485 1.561 . S
C1488 C1485 1.526 . S
C1488 C1489 1.396 . S
C1488 C1493 1.390 . S
C1489 C1483 1.465 . S
C1489 C1488 1.396 . S
C1489 C1490 1.399 . S
C1490 H1476 0.929 . S
C1490 C1489 1.399 . S
C1490 C1491 1.385 . S
C1491 H1477 0.931 . S
C1491 C1490 1.385 . S
C1491 C1492 1.389 . S
C1492 C1491 1.389 . S
C1492 C1493 1.387 . S
C1493 H1478 0.930 . S
C1493 C1488 1.390 . S
C1493 C1492 1.387 . S
H1494 C1506 0.930 . S
H1495 C1508 0.930 . S
H1496 C1509 0.930 1_545 S
H1497 C1513 0.959 . S
H1498 C1513 0.959 . S
H1499 C1513 0.961 1_565 S
H1500 C1514 0.960 1_565 S
H1501 C1514 0.961 . S
H1502 C1514 0.959 . S
H1503 C1517 0.929 . S
H1504 C1518 0.931 . S
H1505 C1520 0.930 . S
C1506 H1494 0.930 . S
C1506 C1507 1.399 . S
C1506 C1511 1.399 . S
C1507 C1506 1.399 . S
C1507 C1508 1.376 . S
C1508 H1495 0.930 . S
C1508 C1507 1.376 . S
C1508 C1509 1.388 . S
C1509 H1496 0.930 1_565 S
C1509 C1508 1.388 . S
C1509 C1510 1.390 1_565 S
C1510 C1509 1.390 1_545 S
C1510 C1511 1.394 1_545 S
C1510 C1516 1.465 . S
C1511 C1506 1.399 . S
C1511 C1510 1.394 1_565 S
C1511 C1512 1.516 1_565 S
C1512 C1511 1.516 1_545 S
C1512 C1513 1.502 . S
C1512 C1514 1.561 . S
C1512 C1515 1.526 . S
C1513 H1497 0.959 . S
C1513 H1498 0.959 . S
C1513 H1499 0.961 1_545 S
C1513 C1512 1.502 . S
C1514 H1500 0.960 1_545 S
C1514 H1501 0.961 . S
C1514 H1502 0.959 . S
C1514 C1512 1.561 . S
C1515 C1512 1.526 . S
C1515 C1516 1.396 . S
C1515 C1520 1.390 . S
C1516 C1510 1.465 . S
C1516 C1515 1.396 . S
C1516 C1517 1.399 . S
C1517 H1503 0.929 . S
C1517 C1516 1.399 . S
C1517 C1518 1.385 . S
C1518 H1504 0.931 . S
C1518 C1517 1.385 . S
C1518 C1519 1.389 . S
C1519 C1518 1.389 . S
C1519 C1520 1.387 . S
C1520 H1505 0.930 . S
C1520 C1515 1.390 . S
C1520 C1519 1.387 . S
H1521 C1533 0.930 . S
H1522 C1535 0.930 . S
H1523 C1536 0.930 . S
H1524 C1540 0.959 . S
H1525 C1540 0.959 1_455 S
H1526 C1540 0.961 . S
H1527 C1541 0.960 . S
H1528 C1541 0.961 . S
H1529 C1541 0.959 . S
H1530 C1544 0.898 1_655 S
H1531 C1545 0.931 . S
H1532 C1547 0.930 . S
C1533 H1521 0.930 . S
C1533 C1534 1.399 . S
C1533 C1538 1.399 . S
C1534 C1533 1.399 . S
C1534 C1535 1.376 . S
C1535 H1522 0.930 . S
C1535 C1534 1.376 . S
C1535 C1536 1.388 . S
C1536 H1523 0.930 . S
C1536 C1535 1.388 . S
C1536 C1537 1.390 . S
C1537 C1536 1.390 . S
C1537 C1538 1.394 . S
C1537 C1543 1.465 . S
C1538 C1533 1.399 . S
C1538 C1537 1.394 . S
C1538 C1539 1.516 . S
C1539 C1538 1.516 . S
C1539 C1540 1.502 . S
C1539 C1541 1.561 . S
C1539 C1542 1.526 1_655 S
C1540 H1524 0.959 . S
C1540 H1525 0.959 1_655 S
C1540 H1526 0.961 . S
C1540 C1539 1.502 . S
C1541 H1527 0.960 . S
C1541 H1528 0.961 . S
C1541 H1529 0.959 . S
C1541 C1539 1.561 . S
C1542 C1539 1.526 1_455 S
C1542 C1543 1.396 1_455 S
C1542 C1547 1.390 . S
C1543 C1537 1.465 . S
C1543 C1542 1.396 1_655 S
C1543 C1544 1.399 1_655 S
C1544 H1530 0.898 1_455 S
C1544 C1543 1.399 1_455 S
C1544 C1545 1.385 . S
C1545 H1531 0.931 . S
C1545 C1544 1.385 . S
C1545 C1546 1.389 . S
C1546 C1545 1.389 . S
C1546 C1547 1.387 . S
C1547 H1532 0.930 . S
C1547 C1542 1.390 . S
C1547 C1546 1.387 . S
H1548 C1560 0.930 . S
H1549 C1562 0.930 . S
H1550 C1563 0.930 . S
H1551 C1567 0.959 . S
H1552 C1567 0.959 . S
H1553 C1567 0.961 . S
H1554 C1568 0.960 . S
H1555 C1568 0.961 . S
H1556 C1568 0.959 . S
H1557 C1571 0.929 . S
H1558 C1572 0.931 . S
H1559 C1574 0.930 . S
C1560 H1548 0.930 . S
C1560 C1561 1.399 . S
C1560 C1565 1.399 . S
C1561 C1560 1.399 . S
C1561 C1562 1.376 . S
C1562 H1549 0.930 . S
C1562 C1561 1.376 . S
C1562 C1563 1.388 . S
C1563 H1550 0.930 . S
C1563 C1562 1.388 . S
C1563 C1564 1.390 . S
C1564 C1563 1.390 . S
C1564 C1565 1.394 . S
C1564 C1570 1.465 . S
C1565 C1560 1.399 . S
C1565 C1564 1.394 . S
C1565 C1566 1.516 . S
C1566 C1565 1.516 . S
C1566 C1567 1.502 . S
C1566 C1568 1.561 . S
C1566 C1569 1.526 . S
C1567 H1551 0.959 . S
C1567 H1552 0.959 . S
C1567 H1553 0.961 . S
C1567 C1566 1.502 . S
C1568 H1554 0.960 . S
C1568 H1555 0.961 . S
C1568 H1556 0.959 . S
C1568 C1566 1.561 . S
C1569 C1566 1.526 . S
C1569 C1570 1.396 . S
C1569 C1574 1.390 . S
C1570 C1564 1.465 . S
C1570 C1569 1.396 . S
C1570 C1571 1.399 . S
C1571 H1557 0.929 . S
C1571 C1570 1.399 . S
C1571 C1572 1.385 . S
C1572 H1558 0.931 . S
C1572 C1571 1.385 . S
C1572 C1573 1.389 . S
C1573 C1572 1.389 . S
C1573 C1574 1.387 . S
C1574 H1559 0.930 . S
C1574 C1569 1.390 . S
C1574 C1573 1.387 . S
H1575 C1587 0.930 . S
H1576 C1589 0.930 . S
H1577 C1590 0.930 . S
H1578 C1594 0.959 . S
H1579 C1594 0.959 . S
H1580 C1594 0.961 . S
H1581 C1595 0.960 . S
H1582 C1595 0.961 . S
H1583 C1595 0.959 . S
H1584 C1598 0.929 . S
H1585 C1599 0.931 . S
H1586 C1601 0.930 . S
C1587 H1575 0.930 . S
C1587 C1588 1.399 . S
C1587 C1592 1.399 . S
C1588 C1587 1.399 . S
C1588 C1589 1.376 . S
C1589 H1576 0.930 . S
C1589 C1588 1.376 . S
C1589 C1590 1.388 . S
C1590 H1577 0.930 . S
C1590 C1589 1.388 . S
C1590 C1591 1.390 . S
C1591 C1590 1.390 . S
C1591 C1592 1.394 . S
C1591 C1597 1.465 . S
C1592 C1587 1.399 . S
C1592 C1591 1.394 . S
C1592 C1593 1.516 . S
C1593 C1592 1.516 . S
C1593 C1594 1.502 . S
C1593 C1595 1.561 . S
C1593 C1596 1.526 . S
C1594 H1578 0.959 . S
C1594 H1579 0.959 . S
C1594 H1580 0.961 . S
C1594 C1593 1.502 . S
C1595 H1581 0.960 . S
C1595 H1582 0.961 . S
C1595 H1583 0.959 . S
C1595 C1593 1.561 . S
C1596 C1593 1.526 . S
C1596 C1597 1.396 . S
C1596 C1601 1.390 . S
C1597 C1591 1.465 . S
C1597 C1596 1.396 . S
C1597 C1598 1.399 . S
C1598 H1584 0.929 . S
C1598 C1597 1.399 . S
C1598 C1599 1.385 . S
C1599 H1585 0.931 . S
C1599 C1598 1.385 . S
C1599 C1600 1.389 . S
C1600 C1599 1.389 . S
C1600 C1601 1.387 . S
C1601 H1586 0.930 . S
C1601 C1596 1.390 . S
C1601 C1600 1.387 . S
H1602 C1614 0.930 . S
H1603 C1616 0.930 . S
H1604 C1617 0.930 . S
H1605 C1621 0.959 . S
H1606 C1621 0.959 . S
H1607 C1621 0.961 . S
H1608 C1622 0.960 . S
H1609 C1622 0.961 . S
H1610 C1622 0.959 . S
H1611 C1625 0.929 . S
H1612 C1626 0.931 . S
H1613 C1628 0.930 . S
C1614 H1602 0.930 . S
C1614 C1615 1.399 . S
C1614 C1619 1.399 . S
C1615 C1614 1.399 . S
C1615 C1616 1.376 . S
C1616 H1603 0.930 . S
C1616 C1615 1.376 . S
C1616 C1617 1.388 . S
C1617 H1604 0.930 . S
C1617 C1616 1.388 . S
C1617 C1618 1.390 . S
C1618 C1617 1.390 . S
C1618 C1619 1.394 . S
C1618 C1624 1.465 . S
C1619 C1614 1.399 . S
C1619 C1618 1.394 . S
C1619 C1620 1.516 . S
C1620 C1619 1.516 . S
C1620 C1621 1.502 . S
C1620 C1622 1.561 . S
C1620 C1623 1.526 . S
C1621 H1605 0.959 . S
C1621 H1606 0.959 . S
C1621 H1607 0.961 . S
C1621 C1620 1.502 . S
C1622 H1608 0.960 . S
C1622 H1609 0.961 . S
C1622 H1610 0.959 . S
C1622 C1620 1.561 . S
C1623 C1620 1.526 . S
C1623 C1624 1.396 . S
C1623 C1628 1.390 . S
C1624 C1618 1.465 . S
C1624 C1623 1.396 . S
C1624 C1625 1.399 . S
C1625 H1611 0.929 . S
C1625 C1624 1.399 . S
C1625 C1626 1.385 . S
C1626 H1612 0.931 . S
C1626 C1625 1.385 . S
C1626 C1627 1.389 . S
C1627 C1626 1.389 . S
C1627 C1628 1.387 . S
C1628 H1613 0.930 . S
C1628 C1623 1.390 . S
C1628 C1627 1.387 . S
H1629 C1641 0.930 . S
H1630 C1643 0.930 . S
H1631 C1644 0.930 . S
H1632 C1648 0.959 . S
H1633 C1648 0.959 . S
H1634 C1648 0.961 . S
H1635 C1649 0.960 . S
H1636 C1649 0.961 . S
H1637 C1649 0.959 . S
H1638 C1652 0.929 . S
H1639 C1653 0.931 . S
H1640 C1655 0.930 . S
C1641 H1629 0.930 . S
C1641 C1642 1.399 . S
C1641 C1646 1.399 . S
C1642 C1641 1.399 . S
C1642 C1643 1.376 . S
C1643 H1630 0.930 . S
C1643 C1642 1.376 . S
C1643 C1644 1.388 . S
C1644 H1631 0.930 . S
C1644 C1643 1.388 . S
C1644 C1645 1.390 . S
C1645 C1644 1.390 . S
C1645 C1646 1.394 . S
C1645 C1651 1.465 . S
C1646 C1641 1.399 . S
C1646 C1645 1.394 . S
C1646 C1647 1.516 . S
C1647 C1646 1.516 . S
C1647 C1648 1.502 . S
C1647 C1649 1.561 . S
C1647 C1650 1.526 . S
C1648 H1632 0.959 . S
C1648 H1633 0.959 . S
C1648 H1634 0.961 . S
C1648 C1647 1.502 . S
C1649 H1635 0.960 . S
C1649 H1636 0.961 . S
C1649 H1637 0.959 . S
C1649 C1647 1.561 . S
C1650 C1647 1.526 . S
C1650 C1651 1.396 . S
C1650 C1655 1.390 . S
C1651 C1645 1.465 . S
C1651 C1650 1.396 . S
C1651 C1652 1.399 . S
C1652 H1638 0.929 . S
C1652 C1651 1.399 . S
C1652 C1653 1.385 . S
C1653 H1639 0.931 . S
C1653 C1652 1.385 . S
C1653 C1654 1.389 . S
C1654 C1653 1.389 . S
C1654 C1655 1.387 . S
C1655 H1640 0.930 . S
C1655 C1650 1.390 . S
C1655 C1654 1.387 . S
H1656 C1668 0.930 . S
H1657 C1670 0.930 . S
H1658 C1671 0.930 . S
H1659 C1675 0.959 . S
H1660 C1675 0.959 . S
H1661 C1675 0.961 . S
H1662 C1676 0.960 . S
H1663 C1676 0.961 . S
H1664 C1676 0.959 . S
H1665 C1679 0.929 . S
H1666 C1680 0.931 . S
H1667 C1682 0.930 . S
C1668 H1656 0.930 . S
C1668 C1669 1.399 . S
C1668 C1673 1.399 . S
C1669 C1668 1.399 . S
C1669 C1670 1.376 . S
C1670 H1657 0.930 . S
C1670 C1669 1.376 . S
C1670 C1671 1.388 . S
C1671 H1658 0.930 . S
C1671 C1670 1.388 . S
C1671 C1672 1.390 . S
C1672 C1671 1.390 . S
C1672 C1673 1.394 . S
C1672 C1678 1.465 . S
C1673 C1668 1.399 . S
C1673 C1672 1.394 . S
C1673 C1674 1.516 . S
C1674 C1673 1.516 . S
C1674 C1675 1.502 . S
C1674 C1676 1.561 . S
C1674 C1677 1.526 . S
C1675 H1659 0.959 . S
C1675 H1660 0.959 . S
C1675 H1661 0.961 . S
C1675 C1674 1.502 . S
C1676 H1662 0.960 . S
C1676 H1663 0.961 . S
C1676 H1664 0.959 . S
C1676 C1674 1.561 . S
C1677 C1674 1.526 . S
C1677 C1678 1.396 . S
C1677 C1682 1.390 . S
C1678 C1672 1.465 . S
C1678 C1677 1.396 . S
C1678 C1679 1.399 . S
C1679 H1665 0.929 . S
C1679 C1678 1.399 . S
C1679 C1680 1.385 . S
C1680 H1666 0.931 . S
C1680 C1679 1.385 . S
C1680 C1681 1.389 . S
C1681 C1680 1.389 . S
C1681 C1682 1.387 . S
C1682 H1667 0.930 . S
C1682 C1677 1.390 . S
C1682 C1681 1.387 . S
H1683 C1695 0.930 . S
H1684 C1697 0.930 . S
H1685 C1698 0.930 . S
H1686 C1702 0.959 . S
H1687 C1702 0.959 . S
H1688 C1702 0.961 . S
H1689 C1703 0.960 . S
H1690 C1703 0.961 . S
H1691 C1703 0.959 . S
H1692 C1706 0.929 . S
H1693 C1707 0.931 . S
H1694 C1709 0.930 . S
C1695 H1683 0.930 . S
C1695 C1696 1.399 . S
C1695 C1700 1.399 . S
C1696 C1695 1.399 . S
C1696 C1697 1.376 . S
C1697 H1684 0.930 . S
C1697 C1696 1.376 . S
C1697 C1698 1.388 . S
C1698 H1685 0.930 . S
C1698 C1697 1.388 . S
C1698 C1699 1.390 . S
C1699 C1698 1.390 . S
C1699 C1700 1.394 . S
C1699 C1705 1.465 . S
C1700 C1695 1.399 . S
C1700 C1699 1.394 . S
C1700 C1701 1.516 . S
C1701 C1700 1.516 . S
C1701 C1702 1.502 . S
C1701 C1703 1.561 . S
C1701 C1704 1.526 . S
C1702 H1686 0.959 . S
C1702 H1687 0.959 . S
C1702 H1688 0.961 . S
C1702 C1701 1.502 . S
C1703 H1689 0.960 . S
C1703 H1690 0.961 . S
C1703 H1691 0.959 . S
C1703 C1701 1.561 . S
C1704 C1701 1.526 . S
C1704 C1705 1.396 . S
C1704 C1709 1.390 . S
C1705 C1699 1.465 . S
C1705 C1704 1.396 . S
C1705 C1706 1.399 . S
C1706 H1692 0.929 . S
C1706 C1705 1.399 . S
C1706 C1707 1.385 . S
C1707 H1693 0.931 . S
C1707 C1706 1.385 . S
C1707 C1708 1.389 . S
C1708 C1707 1.389 . S
C1708 C1709 1.387 . S
C1709 H1694 0.930 . S
C1709 C1704 1.390 . S
C1709 C1708 1.387 . S
H1710 C1722 0.930 . S
H1711 C1724 0.930 . S
H1712 C1725 0.930 . S
H1713 C1729 0.959 . S
H1714 C1729 0.959 . S
H1715 C1729 0.961 . S
H1716 C1730 0.960 . S
H1717 C1730 0.961 . S
H1718 C1730 0.959 . S
H1719 C1733 0.929 . S
H1720 C1734 0.931 . S
H1721 C1736 0.930 . S
C1722 H1710 0.930 . S
C1722 C1723 1.399 . S
C1722 C1727 1.399 . S
C1723 C1722 1.399 . S
C1723 C1724 1.376 . S
C1724 H1711 0.930 . S
C1724 C1723 1.376 . S
C1724 C1725 1.388 . S
C1725 H1712 0.930 . S
C1725 C1724 1.388 . S
C1725 C1726 1.390 . S
C1726 C1725 1.390 . S
C1726 C1727 1.394 . S
C1726 C1732 1.465 . S
C1727 C1722 1.399 . S
C1727 C1726 1.394 . S
C1727 C1728 1.516 . S
C1728 C1727 1.516 . S
C1728 C1729 1.502 . S
C1728 C1730 1.561 . S
C1728 C1731 1.526 . S
C1729 H1713 0.959 . S
C1729 H1714 0.959 . S
C1729 H1715 0.961 . S
C1729 C1728 1.502 . S
C1730 H1716 0.960 . S
C1730 H1717 0.961 . S
C1730 H1718 0.959 . S
C1730 C1728 1.561 . S
C1731 C1728 1.526 . S
C1731 C1732 1.396 . S
C1731 C1736 1.390 . S
C1732 C1726 1.465 . S
C1732 C1731 1.396 . S
C1732 C1733 1.399 . S
C1733 H1719 0.929 . S
C1733 C1732 1.399 . S
C1733 C1734 1.385 . S
C1734 H1720 0.931 . S
C1734 C1733 1.385 . S
C1734 C1735 1.389 . S
C1735 C1734 1.389 . S
C1735 C1736 1.387 . S
C1736 H1721 0.930 . S
C1736 C1731 1.390 . S
C1736 C1735 1.387 . S
H1737 C1749 0.930 . S
H1738 C1751 0.930 . S
H1739 C1752 0.930 . S
H1740 C1756 0.959 . S
H1741 C1756 0.959 . S
H1742 C1756 0.961 . S
H1743 C1757 0.960 . S
H1744 C1757 0.961 . S
H1745 C1757 0.959 . S
H1746 C1760 0.929 . S
H1747 C1761 0.931 . S
H1748 C1763 0.930 . S
C1749 H1737 0.930 . S
C1749 C1750 1.399 . S
C1749 C1754 1.399 . S
C1750 C1749 1.399 . S
C1750 C1751 1.376 . S
C1751 H1738 0.930 . S
C1751 C1750 1.376 . S
C1751 C1752 1.388 . S
C1752 H1739 0.930 . S
C1752 C1751 1.388 . S
C1752 C1753 1.390 . S
C1753 C1752 1.390 . S
C1753 C1754 1.394 . S
C1753 C1759 1.465 . S
C1754 C1749 1.399 . S
C1754 C1753 1.394 . S
C1754 C1755 1.516 . S
C1755 C1754 1.516 . S
C1755 C1756 1.502 . S
C1755 C1757 1.561 . S
C1755 C1758 1.526 . S
C1756 H1740 0.959 . S
C1756 H1741 0.959 . S
C1756 H1742 0.961 . S
C1756 C1755 1.502 . S
C1757 H1743 0.960 . S
C1757 H1744 0.961 . S
C1757 H1745 0.959 . S
C1757 C1755 1.561 . S
C1758 C1755 1.526 . S
C1758 C1759 1.396 . S
C1758 C1763 1.390 . S
C1759 C1753 1.465 . S
C1759 C1758 1.396 . S
C1759 C1760 1.399 . S
C1760 H1746 0.929 . S
C1760 C1759 1.399 . S
C1760 C1761 1.385 . S
C1761 H1747 0.931 . S
C1761 C1760 1.385 . S
C1761 C1762 1.389 . S
C1762 C1761 1.389 . S
C1762 C1763 1.387 . S
C1763 H1748 0.930 . S
C1763 C1758 1.390 . S
C1763 C1762 1.387 . S
H1764 C1776 0.930 . S
H1765 C1778 0.930 . S
H1766 C1779 0.930 . S
H1767 C1783 0.959 . S
H1768 C1783 0.959 . S
H1769 C1783 0.961 . S
H1770 C1784 0.960 . S
H1771 C1784 0.961 . S
H1772 C1784 0.959 . S
H1773 C1787 0.929 . S
H1774 C1788 0.931 . S
H1775 C1790 0.930 . S
C1776 H1764 0.930 . S
C1776 C1777 1.399 . S
C1776 C1781 1.399 . S
C1777 C1776 1.399 . S
C1777 C1778 1.376 . S
C1778 H1765 0.930 . S
C1778 C1777 1.376 . S
C1778 C1779 1.388 . S
C1779 H1766 0.930 . S
C1779 C1778 1.388 . S
C1779 C1780 1.390 . S
C1780 C1779 1.390 . S
C1780 C1781 1.394 . S
C1780 C1786 1.465 . S
C1781 C1776 1.399 . S
C1781 C1780 1.394 . S
C1781 C1782 1.516 . S
C1782 C1781 1.516 . S
C1782 C1783 1.502 . S
C1782 C1784 1.561 . S
C1782 C1785 1.526 . S
C1783 H1767 0.959 . S
C1783 H1768 0.959 . S
C1783 H1769 0.961 . S
C1783 C1782 1.502 . S
C1784 H1770 0.960 . S
C1784 H1771 0.961 . S
C1784 H1772 0.959 . S
C1784 C1782 1.561 . S
C1785 C1782 1.526 . S
C1785 C1786 1.396 . S
C1785 C1790 1.390 . S
C1786 C1780 1.465 . S
C1786 C1785 1.396 . S
C1786 C1787 1.399 . S
C1787 H1773 0.929 . S
C1787 C1786 1.399 . S
C1787 C1788 1.385 . S
C1788 H1774 0.931 . S
C1788 C1787 1.385 . S
C1788 C1789 1.389 . S
C1789 C1788 1.389 . S
C1789 C1790 1.387 . S
C1790 H1775 0.930 . S
C1790 C1785 1.390 . S
C1790 C1789 1.387 . S
H1791 C1803 0.930 . S
H1792 C1805 0.930 . S
H1793 C1806 0.930 . S
H1794 C1810 0.959 . S
H1795 C1810 0.959 . S
H1796 C1810 0.961 . S
H1797 C1811 0.960 . S
H1798 C1811 0.961 . S
H1799 C1811 0.959 . S
H1800 C1814 0.929 . S
H1801 C1815 0.931 . S
H1802 C1817 0.930 . S
C1803 H1791 0.930 . S
C1803 C1804 1.399 . S
C1803 C1808 1.399 . S
C1804 C1803 1.399 . S
C1804 C1805 1.376 . S
C1805 H1792 0.930 . S
C1805 C1804 1.376 . S
C1805 C1806 1.388 . S
C1806 H1793 0.930 . S
C1806 C1805 1.388 . S
C1806 C1807 1.390 . S
C1807 C1806 1.390 . S
C1807 C1808 1.394 . S
C1807 C1813 1.465 . S
C1808 C1803 1.399 . S
C1808 C1807 1.394 . S
C1808 C1809 1.516 . S
C1809 C1808 1.516 . S
C1809 C1810 1.502 . S
C1809 C1811 1.561 1_556 S
C1809 C1812 1.526 . S
C1810 H1794 0.959 . S
C1810 H1795 0.959 . S
C1810 H1796 0.961 . S
C1810 C1809 1.502 . S
C1811 H1797 0.960 . S
C1811 H1798 0.961 . S
C1811 H1799 0.959 . S
C1811 C1809 1.561 1_554 S
C1812 C1809 1.526 . S
C1812 C1813 1.396 . S
C1812 C1817 1.390 . S
C1813 C1807 1.465 . S
C1813 C1812 1.396 . S
C1813 C1814 1.399 . S
C1814 H1800 0.929 . S
C1814 C1813 1.399 . S
C1814 C1815 1.385 . S
C1815 H1801 0.931 . S
C1815 C1814 1.385 . S
C1815 C1816 1.389 . S
C1816 C1815 1.389 . S
C1816 C1817 1.387 . S
C1817 H1802 0.930 . S
C1817 C1812 1.390 . S
C1817 C1816 1.387 . S
H1818 C1830 0.930 . S
H1819 C1832 0.930 . S
H1820 C1833 0.930 . S
H1821 C1837 0.959 . S
H1822 C1837 0.959 1_554 S
H1823 C1837 0.961 . S
H1824 C1838 0.960 . S
H1825 C1838 0.961 . S
H1826 C1838 0.960 1_556 S
H1827 C1841 0.929 . S
H1828 C1842 0.931 . S
H1829 C1844 0.930 . S
C1830 H1818 0.930 . S
C1830 C1831 1.399 . S
C1830 C1835 1.399 . S
C1831 C1830 1.399 . S
C1831 C1832 1.376 . S
C1832 H1819 0.930 . S
C1832 C1831 1.376 . S
C1832 C1833 1.388 . S
C1833 H1820 0.930 . S
C1833 C1832 1.388 . S
C1833 C1834 1.390 . S
C1834 C1833 1.390 . S
C1834 C1835 1.394 . S
C1834 C1840 1.465 . S
C1835 C1830 1.399 . S
C1835 C1834 1.394 . S
C1835 C1836 1.516 . S
C1836 C1835 1.516 . S
C1836 C1837 1.502 . S
C1836 C1838 1.561 1_556 S
C1836 C1839 1.526 . S
C1837 H1821 0.959 . S
C1837 H1822 0.959 1_556 S
C1837 H1823 0.961 . S
C1837 C1836 1.502 . S
C1838 H1824 0.960 . S
C1838 H1825 0.961 . S
C1838 H1826 0.960 1_554 S
C1838 C1836 1.561 1_554 S
C1839 C1836 1.526 . S
C1839 C1840 1.396 . S
C1839 C1844 1.390 . S
C1840 C1834 1.465 . S
C1840 C1839 1.396 . S
C1840 C1841 1.399 . S
C1841 H1827 0.929 . S
C1841 C1840 1.399 . S
C1841 C1842 1.385 . S
C1842 H1828 0.931 . S
C1842 C1841 1.385 . S
C1842 C1843 1.389 . S
C1843 C1842 1.389 . S
C1843 C1844 1.387 . S
C1844 H1829 0.930 . S
C1844 C1839 1.390 . S
C1844 C1843 1.387 . S
H1845 C1857 0.930 . S
H1846 C1859 0.930 . S
H1847 C1860 0.930 . S
H1848 C1864 0.959 . S
H1849 C1864 0.959 . S
H1850 C1864 0.961 . S
H1851 C1865 0.960 . S
H1852 C1865 0.961 . S
H1853 C1865 0.959 . S
H1854 C1868 0.929 . S
H1855 C1869 0.931 . S
H1856 C1871 0.930 . S
C1857 H1845 0.930 . S
C1857 C1858 1.399 . S
C1857 C1862 1.399 . S
C1858 C1857 1.399 . S
C1858 C1859 1.376 . S
C1859 H1846 0.930 . S
C1859 C1858 1.376 . S
C1859 C1860 1.388 . S
C1860 H1847 0.930 . S
C1860 C1859 1.388 . S
C1860 C1861 1.390 . S
C1861 C1860 1.390 . S
C1861 C1862 1.394 . S
C1861 C1867 1.465 . S
C1862 C1857 1.399 . S
C1862 C1861 1.394 . S
C1862 C1863 1.516 . S
C1863 C1862 1.516 . S
C1863 C1864 1.502 . S
C1863 C1865 1.561 . S
C1863 C1866 1.526 . S
C1864 H1848 0.959 . S
C1864 H1849 0.959 . S
C1864 H1850 0.961 . S
C1864 C1863 1.502 . S
C1865 H1851 0.960 . S
C1865 H1852 0.961 . S
C1865 H1853 0.959 . S
C1865 C1863 1.561 . S
C1866 C1863 1.526 . S
C1866 C1867 1.396 . S
C1866 C1871 1.390 . S
C1867 C1861 1.465 . S
C1867 C1866 1.396 . S
C1867 C1868 1.399 . S
C1868 H1854 0.929 . S
C1868 C1867 1.399 . S
C1868 C1869 1.385 . S
C1869 H1855 0.931 . S
C1869 C1868 1.385 . S
C1869 C1870 1.389 . S
C1870 C1869 1.389 . S
C1870 C1871 1.387 . S
C1871 H1856 0.930 . S
C1871 C1866 1.390 . S
C1871 C1870 1.387 . S
H1872 C1884 0.930 . S
H1873 C1886 0.930 . S
H1874 C1887 0.930 . S
H1875 C1891 0.959 . S
H1876 C1891 0.959 . S
H1877 C1891 0.961 . S
H1878 C1892 0.960 . S
H1879 C1892 0.961 . S
H1880 C1892 0.959 . S
H1881 C1895 0.929 . S
H1882 C1896 0.931 . S
H1883 C1898 0.930 . S
C1884 H1872 0.930 . S
C1884 C1885 1.399 . S
C1884 C1889 1.399 . S
C1885 C1884 1.399 . S
C1885 C1886 1.376 . S
C1886 H1873 0.930 . S
C1886 C1885 1.376 . S
C1886 C1887 1.388 . S
C1887 H1874 0.930 . S
C1887 C1886 1.388 . S
C1887 C1888 1.390 . S
C1888 C1887 1.390 . S
C1888 C1889 1.394 . S
C1888 C1894 1.465 . S
C1889 C1884 1.399 . S
C1889 C1888 1.394 . S
C1889 C1890 1.516 . S
C1890 C1889 1.516 . S
C1890 C1891 1.502 . S
C1890 C1892 1.561 . S
C1890 C1893 1.526 . S
C1891 H1875 0.959 . S
C1891 H1876 0.959 . S
C1891 H1877 0.961 . S
C1891 C1890 1.502 . S
C1892 H1878 0.960 . S
C1892 H1879 0.961 . S
C1892 H1880 0.959 . S
C1892 C1890 1.561 . S
C1893 C1890 1.526 . S
C1893 C1894 1.396 . S
C1893 C1898 1.390 . S
C1894 C1888 1.465 . S
C1894 C1893 1.396 . S
C1894 C1895 1.399 . S
C1895 H1881 0.929 . S
C1895 C1894 1.399 . S
C1895 C1896 1.385 . S
C1896 H1882 0.931 . S
C1896 C1895 1.385 . S
C1896 C1897 1.389 . S
C1897 C1896 1.389 . S
C1897 C1898 1.387 . S
C1898 H1883 0.930 . S
C1898 C1893 1.390 . S
C1898 C1897 1.387 . S
H1899 C1911 0.930 . S
H1900 C1913 0.930 . S
H1901 C1914 0.930 . S
H1902 C1918 0.959 . S
H1903 C1918 0.959 . S
H1904 C1918 0.961 . S
H1905 C1919 0.960 . S
H1906 C1919 0.961 . S
H1907 C1919 0.959 . S
H1908 C1922 0.929 . S
H1909 C1923 0.931 . S
H1910 C1925 0.930 . S
C1911 H1899 0.930 . S
C1911 C1912 1.399 . S
C1911 C1916 1.399 . S
C1912 C1911 1.399 . S
C1912 C1913 1.376 . S
C1913 H1900 0.930 . S
C1913 C1912 1.376 . S
C1913 C1914 1.388 . S
C1914 H1901 0.930 . S
C1914 C1913 1.388 . S
C1914 C1915 1.390 . S
C1915 C1914 1.390 . S
C1915 C1916 1.394 . S
C1915 C1921 1.465 . S
C1916 C1911 1.399 . S
C1916 C1915 1.394 . S
C1916 C1917 1.516 . S
C1917 C1916 1.516 . S
C1917 C1918 1.502 . S
C1917 C1919 1.561 . S
C1917 C1920 1.526 . S
C1918 H1902 0.959 . S
C1918 H1903 0.959 . S
C1918 H1904 0.961 . S
C1918 C1917 1.502 . S
C1919 H1905 0.960 . S
C1919 H1906 0.961 . S
C1919 H1907 0.959 . S
C1919 C1917 1.561 . S
C1920 C1917 1.526 . S
C1920 C1921 1.396 . S
C1920 C1925 1.390 . S
C1921 C1915 1.465 . S
C1921 C1920 1.396 . S
C1921 C1922 1.399 . S
C1922 H1908 0.929 . S
C1922 C1921 1.399 . S
C1922 C1923 1.385 . S
C1923 H1909 0.931 . S
C1923 C1922 1.385 . S
C1923 C1924 1.389 . S
C1924 C1923 1.389 . S
C1924 C1925 1.387 . S
C1925 H1910 0.930 . S
C1925 C1920 1.390 . S
C1925 C1924 1.387 . S
H1926 C1938 0.930 . S
H1927 C1940 0.930 . S
H1928 C1941 0.930 . S
H1929 C1945 0.959 . S
H1930 C1945 0.959 . S
H1931 C1945 0.961 . S
H1932 C1946 0.960 . S
H1933 C1946 0.961 . S
H1934 C1946 0.959 . S
H1935 C1949 0.929 . S
H1936 C1950 0.931 . S
H1937 C1952 0.930 . S
C1938 H1926 0.930 . S
C1938 C1939 1.399 . S
C1938 C1943 1.399 . S
C1939 C1938 1.399 . S
C1939 C1940 1.376 . S
C1940 H1927 0.930 . S
C1940 C1939 1.376 . S
C1940 C1941 1.388 . S
C1941 H1928 0.930 . S
C1941 C1940 1.388 . S
C1941 C1942 1.390 . S
C1942 C1941 1.390 . S
C1942 C1943 1.394 . S
C1942 C1948 1.465 . S
C1943 C1938 1.399 . S
C1943 C1942 1.394 . S
C1943 C1944 1.516 . S
C1944 C1943 1.516 . S
C1944 C1945 1.502 . S
C1944 C1946 1.561 . S
C1944 C1947 1.526 . S
C1945 H1929 0.959 . S
C1945 H1930 0.959 . S
C1945 H1931 0.961 . S
C1945 C1944 1.502 . S
C1946 H1932 0.960 . S
C1946 H1933 0.961 . S
C1946 H1934 0.959 . S
C1946 C1944 1.561 . S
C1947 C1944 1.526 . S
C1947 C1948 1.396 . S
C1947 C1952 1.390 . S
C1948 C1942 1.465 . S
C1948 C1947 1.396 . S
C1948 C1949 1.399 . S
C1949 H1935 0.929 . S
C1949 C1948 1.399 . S
C1949 C1950 1.385 . S
C1950 H1936 0.931 . S
C1950 C1949 1.385 . S
C1950 C1951 1.389 . S
C1951 C1950 1.389 . S
C1951 C1952 1.387 . S
C1952 H1937 0.930 . S
C1952 C1947 1.390 . S
C1952 C1951 1.387 . S
H1953 C1965 0.930 . S
H1954 C1967 0.930 . S
H1955 C1968 0.930 . S
H1956 C1972 0.959 . S
H1957 C1972 0.959 . S
H1958 C1972 0.961 . S
H1959 C1973 0.960 . S
H1960 C1973 0.961 . S
H1961 C1973 0.959 . S
H1962 C1976 0.929 . S
H1963 C1977 0.931 . S
H1964 C1979 0.930 . S
C1965 H1953 0.930 . S
C1965 C1966 1.399 . S
C1965 C1970 1.399 . S
C1966 C1965 1.399 . S
C1966 C1967 1.376 . S
C1967 H1954 0.930 . S
C1967 C1966 1.376 . S
C1967 C1968 1.388 . S
C1968 H1955 0.930 . S
C1968 C1967 1.388 . S
C1968 C1969 1.390 . S
C1969 C1968 1.390 . S
C1969 C1970 1.394 . S
C1969 C1975 1.465 . S
C1970 C1965 1.399 . S
C1970 C1969 1.394 . S
C1970 C1971 1.516 . S
C1971 C1970 1.516 . S
C1971 C1972 1.502 . S
C1971 C1973 1.561 . S
C1971 C1974 1.526 . S
C1972 H1956 0.959 . S
C1972 H1957 0.959 . S
C1972 H1958 0.961 . S
C1972 C1971 1.502 . S
C1973 H1959 0.960 . S
C1973 H1960 0.961 . S
C1973 H1961 0.959 . S
C1973 C1971 1.561 . S
C1974 C1971 1.526 . S
C1974 C1975 1.396 . S
C1974 C1979 1.390 . S
C1975 C1969 1.465 . S
C1975 C1974 1.396 . S
C1975 C1976 1.399 . S
C1976 H1962 0.929 . S
C1976 C1975 1.399 . S
C1976 C1977 1.385 . S
C1977 H1963 0.931 . S
C1977 C1976 1.385 . S
C1977 C1978 1.389 . S
C1978 C1977 1.389 . S
C1978 C1979 1.387 . S
C1979 H1964 0.930 . S
C1979 C1974 1.390 . S
C1979 C1978 1.387 . S
H1980 C1992 0.930 . S
H1981 C1994 0.930 . S
H1982 C1995 0.930 . S
H1983 C1999 0.959 . S
H1984 C1999 0.959 . S
H1985 C1999 0.961 . S
H1986 C2000 0.960 . S
H1987 C2000 0.961 . S
H1988 C2000 0.959 . S
H1989 C2003 0.929 . S
H1990 C2004 0.931 . S
H1991 C2006 0.930 . S
C1992 H1980 0.930 . S
C1992 C1993 1.399 . S
C1992 C1997 1.399 . S
C1993 C1992 1.399 . S
C1993 C1994 1.376 . S
C1994 H1981 0.930 . S
C1994 C1993 1.376 . S
C1994 C1995 1.388 . S
C1995 H1982 0.930 . S
C1995 C1994 1.388 . S
C1995 C1996 1.390 . S
C1996 C1995 1.390 . S
C1996 C1997 1.394 . S
C1996 C2002 1.465 . S
C1997 C1992 1.399 . S
C1997 C1996 1.394 . S
C1997 C1998 1.516 . S
C1998 C1997 1.516 . S
C1998 C1999 1.502 . S
C1998 C2000 1.561 . S
C1998 C2001 1.526 . S
C1999 H1983 0.959 . S
C1999 H1984 0.959 . S
C1999 H1985 0.961 . S
C1999 C1998 1.502 . S
C2000 H1986 0.960 . S
C2000 H1987 0.961 . S
C2000 H1988 0.959 . S
C2000 C1998 1.561 . S
C2001 C1998 1.526 . S
C2001 C2002 1.396 . S
C2001 C2006 1.390 . S
C2002 C1996 1.465 . S
C2002 C2001 1.396 . S
C2002 C2003 1.399 . S
C2003 H1989 0.929 . S
C2003 C2002 1.399 . S
C2003 C2004 1.385 . S
C2004 H1990 0.931 . S
C2004 C2003 1.385 . S
C2004 C2005 1.389 . S
C2005 C2004 1.389 . S
C2005 C2006 1.387 . S
C2006 H1991 0.930 . S
C2006 C2001 1.390 . S
C2006 C2005 1.387 . S
H2007 C2019 0.930 . S
H2008 C2021 0.930 . S
H2009 C2022 0.930 . S
H2010 C2026 0.959 . S
H2011 C2026 0.959 . S
H2012 C2026 0.961 . S
H2013 C2027 0.960 . S
H2014 C2027 0.961 . S
H2015 C2027 0.959 . S
H2016 C2030 0.929 . S
H2017 C2031 0.931 . S
H2018 C2033 0.930 . S
C2019 H2007 0.930 . S
C2019 C2020 1.399 . S
C2019 C2024 1.399 . S
C2020 C2019 1.399 . S
C2020 C2021 1.376 . S
C2021 H2008 0.930 . S
C2021 C2020 1.376 . S
C2021 C2022 1.388 . S
C2022 H2009 0.930 . S
C2022 C2021 1.388 . S
C2022 C2023 1.390 . S
C2023 C2022 1.390 . S
C2023 C2024 1.394 . S
C2023 C2029 1.465 . S
C2024 C2019 1.399 . S
C2024 C2023 1.394 . S
C2024 C2025 1.516 . S
C2025 C2024 1.516 . S
C2025 C2026 1.502 . S
C2025 C2027 1.561 . S
C2025 C2028 1.526 . S
C2026 H2010 0.959 . S
C2026 H2011 0.959 . S
C2026 H2012 0.961 . S
C2026 C2025 1.502 . S
C2027 H2013 0.960 . S
C2027 H2014 0.961 . S
C2027 H2015 0.959 . S
C2027 C2025 1.561 . S
C2028 C2025 1.526 . S
C2028 C2029 1.396 . S
C2028 C2033 1.390 . S
C2029 C2023 1.465 . S
C2029 C2028 1.396 . S
C2029 C2030 1.399 . S
C2030 H2016 0.929 . S
C2030 C2029 1.399 . S
C2030 C2031 1.385 . S
C2031 H2017 0.931 . S
C2031 C2030 1.385 . S
C2031 C2032 1.389 . S
C2032 C2031 1.389 . S
C2032 C2033 1.387 . S
C2033 H2018 0.930 . S
C2033 C2028 1.390 . S
C2033 C2032 1.387 . S
H2034 C2046 0.930 . S
H2035 C2048 0.930 . S
H2036 C2049 0.930 . S
H2037 C2053 0.959 . S
H2038 C2053 0.959 . S
H2039 C2053 0.961 . S
H2040 C2054 0.960 . S
H2041 C2054 0.961 . S
H2042 C2054 0.959 . S
H2043 C2057 0.929 . S
H2044 C2058 0.931 . S
H2045 C2060 0.930 . S
C2046 H2034 0.930 . S
C2046 C2047 1.399 . S
C2046 C2051 1.399 . S
C2047 C2046 1.399 . S
C2047 C2048 1.376 . S
C2048 H2035 0.930 . S
C2048 C2047 1.376 . S
C2048 C2049 1.388 . S
C2049 H2036 0.930 . S
C2049 C2048 1.388 . S
C2049 C2050 1.390 . S
C2050 C2049 1.390 . S
C2050 C2051 1.394 . S
C2050 C2056 1.465 . S
C2051 C2046 1.399 . S
C2051 C2050 1.394 . S
C2051 C2052 1.516 . S
C2052 C2051 1.516 . S
C2052 C2053 1.502 . S
C2052 C2054 1.561 . S
C2052 C2055 1.526 . S
C2053 H2037 0.959 . S
C2053 H2038 0.959 . S
C2053 H2039 0.961 . S
C2053 C2052 1.502 . S
C2054 H2040 0.960 . S
C2054 H2041 0.961 . S
C2054 H2042 0.959 . S
C2054 C2052 1.561 . S
C2055 C2052 1.526 . S
C2055 C2056 1.396 . S
C2055 C2060 1.390 . S
C2056 C2050 1.465 . S
C2056 C2055 1.396 . S
C2056 C2057 1.399 . S
C2057 H2043 0.929 . S
C2057 C2056 1.399 . S
C2057 C2058 1.385 . S
C2058 H2044 0.931 . S
C2058 C2057 1.385 . S
C2058 C2059 1.389 . S
C2059 C2058 1.389 . S
C2059 C2060 1.387 . S
C2060 H2045 0.930 . S
C2060 C2055 1.390 . S
C2060 C2059 1.387 . S
H2061 C2073 0.930 . S
H2062 C2075 0.930 . S
H2063 C2076 0.930 . S
H2064 C2080 0.959 . S
H2065 C2080 0.959 . S
H2066 C2080 0.961 . S
H2067 C2081 0.960 . S
H2068 C2081 0.961 . S
H2069 C2081 0.959 . S
H2070 C2084 0.929 . S
H2071 C2085 0.931 . S
H2072 C2087 0.930 . S
C2073 H2061 0.930 . S
C2073 C2074 1.399 . S
C2073 C2078 1.399 . S
C2074 C2073 1.399 . S
C2074 C2075 1.376 . S
C2075 H2062 0.930 . S
C2075 C2074 1.376 . S
C2075 C2076 1.388 . S
C2076 H2063 0.930 . S
C2076 C2075 1.388 . S
C2076 C2077 1.390 . S
C2077 C2076 1.390 . S
C2077 C2078 1.394 . S
C2077 C2083 1.465 . S
C2078 C2073 1.399 . S
C2078 C2077 1.394 . S
C2078 C2079 1.516 . S
C2079 C2078 1.516 . S
C2079 C2080 1.502 . S
C2079 C2081 1.561 . S
C2079 C2082 1.526 . S
C2080 H2064 0.959 . S
C2080 H2065 0.959 . S
C2080 H2066 0.961 . S
C2080 C2079 1.502 . S
C2081 H2067 0.960 . S
C2081 H2068 0.961 . S
C2081 H2069 0.959 . S
C2081 C2079 1.561 . S
C2082 C2079 1.526 . S
C2082 C2083 1.396 . S
C2082 C2087 1.390 . S
C2083 C2077 1.465 . S
C2083 C2082 1.396 . S
C2083 C2084 1.399 . S
C2084 H2070 0.929 . S
C2084 C2083 1.399 . S
C2084 C2085 1.385 . S
C2085 H2071 0.931 . S
C2085 C2084 1.385 . S
C2085 C2086 1.389 . S
C2086 C2085 1.389 . S
C2086 C2087 1.387 . S
C2087 H2072 0.930 . S
C2087 C2082 1.390 . S
C2087 C2086 1.387 . S
H2088 C2100 0.930 . S
H2089 C2102 0.930 . S
H2090 C2103 0.930 . S
H2091 C2107 0.959 . S
H2092 C2107 0.959 . S
H2093 C2107 0.961 . S
H2094 C2108 0.960 . S
H2095 C2108 0.961 . S
H2096 C2108 0.959 . S
H2097 C2111 0.929 . S
H2098 C2112 0.931 . S
H2099 C2114 0.930 . S
C2100 H2088 0.930 . S
C2100 C2101 1.399 . S
C2100 C2105 1.399 . S
C2101 C2100 1.399 . S
C2101 C2102 1.376 . S
C2102 H2089 0.930 . S
C2102 C2101 1.376 . S
C2102 C2103 1.388 . S
C2103 H2090 0.930 . S
C2103 C2102 1.388 . S
C2103 C2104 1.390 . S
C2104 C2103 1.390 . S
C2104 C2105 1.394 . S
C2104 C2110 1.465 . S
C2105 C2100 1.399 . S
C2105 C2104 1.394 . S
C2105 C2106 1.516 . S
C2106 C2105 1.516 . S
C2106 C2107 1.502 . S
C2106 C2108 1.561 . S
C2106 C2109 1.526 . S
C2107 H2091 0.959 . S
C2107 H2092 0.959 . S
C2107 H2093 0.961 . S
C2107 C2106 1.502 . S
C2108 H2094 0.960 . S
C2108 H2095 0.961 . S
C2108 H2096 0.959 . S
C2108 C2106 1.561 . S
C2109 C2106 1.526 . S
C2109 C2110 1.396 . S
C2109 C2114 1.390 . S
C2110 C2104 1.465 . S
C2110 C2109 1.396 . S
C2110 C2111 1.399 . S
C2111 H2097 0.929 . S
C2111 C2110 1.399 . S
C2111 C2112 1.385 . S
C2112 H2098 0.931 . S
C2112 C2111 1.385 . S
C2112 C2113 1.389 . S
C2113 C2112 1.389 . S
C2113 C2114 1.387 . S
C2114 H2099 0.930 . S
C2114 C2109 1.390 . S
C2114 C2113 1.387 . S
H2115 C2127 0.930 . S
H2116 C2129 0.930 . S
H2117 C2130 0.930 . S
H2118 C2134 0.959 . S
H2119 C2134 0.959 . S
H2120 C2134 0.961 . S
H2121 C2135 0.960 . S
H2122 C2135 0.961 . S
H2123 C2135 0.959 . S
H2124 C2138 0.929 . S
H2125 C2139 0.931 . S
H2126 C2141 0.930 . S
C2127 H2115 0.930 . S
C2127 C2128 1.399 . S
C2127 C2132 1.399 . S
C2128 C2127 1.399 . S
C2128 C2129 1.376 . S
C2129 H2116 0.930 . S
C2129 C2128 1.376 . S
C2129 C2130 1.388 . S
C2130 H2117 0.930 . S
C2130 C2129 1.388 . S
C2130 C2131 1.390 . S
C2131 C2130 1.390 . S
C2131 C2132 1.394 . S
C2131 C2137 1.465 . S
C2132 C2127 1.399 . S
C2132 C2131 1.394 . S
C2132 C2133 1.516 . S
C2133 C2132 1.516 . S
C2133 C2134 1.502 . S
C2133 C2135 1.561 . S
C2133 C2136 1.526 . S
C2134 H2118 0.959 . S
C2134 H2119 0.959 . S
C2134 H2120 0.961 . S
C2134 C2133 1.502 . S
C2135 H2121 0.960 . S
C2135 H2122 0.961 . S
C2135 H2123 0.959 . S
C2135 C2133 1.561 . S
C2136 C2133 1.526 . S
C2136 C2137 1.396 . S
C2136 C2141 1.390 . S
C2137 C2131 1.465 . S
C2137 C2136 1.396 . S
C2137 C2138 1.399 . S
C2138 H2124 0.929 . S
C2138 C2137 1.399 . S
C2138 C2139 1.385 . S
C2139 H2125 0.931 . S
C2139 C2138 1.385 . S
C2139 C2140 1.389 . S
C2140 C2139 1.389 . S
C2140 C2141 1.387 . S
C2141 H2126 0.930 . S
C2141 C2136 1.390 . S
C2141 C2140 1.387 . S
H2142 C2154 0.930 . S
H2143 C2156 0.930 . S
H2144 C2157 0.930 . S
H2145 C2161 0.959 . S
H2146 C2161 0.959 . S
H2147 C2161 0.961 . S
H2148 C2162 0.960 . S
H2149 C2162 0.961 . S
H2150 C2162 0.959 . S
H2151 C2165 0.929 . S
H2152 C2166 0.931 . S
H2153 C2168 0.930 . S
C2154 H2142 0.930 . S
C2154 C2155 1.399 . S
C2154 C2159 1.399 . S
C2155 C2154 1.399 . S
C2155 C2156 1.376 . S
C2156 H2143 0.930 . S
C2156 C2155 1.376 . S
C2156 C2157 1.388 . S
C2157 H2144 0.930 . S
C2157 C2156 1.388 . S
C2157 C2158 1.390 . S
C2158 C2157 1.390 . S
C2158 C2159 1.394 . S
C2158 C2164 1.465 . S
C2159 C2154 1.399 . S
C2159 C2158 1.394 . S
C2159 C2160 1.516 . S
C2160 C2159 1.516 . S
C2160 C2161 1.502 . S
C2160 C2162 1.561 . S
C2160 C2163 1.526 . S
C2161 H2145 0.959 . S
C2161 H2146 0.959 . S
C2161 H2147 0.961 . S
C2161 C2160 1.502 . S
C2162 H2148 0.960 . S
C2162 H2149 0.961 . S
C2162 H2150 0.959 . S
C2162 C2160 1.561 . S
C2163 C2160 1.526 . S
C2163 C2164 1.396 . S
C2163 C2168 1.390 . S
C2164 C2158 1.465 . S
C2164 C2163 1.396 . S
C2164 C2165 1.399 . S
C2165 H2151 0.929 . S
C2165 C2164 1.399 . S
C2165 C2166 1.385 . S
C2166 H2152 0.931 . S
C2166 C2165 1.385 . S
C2166 C2167 1.389 . S
C2167 C2166 1.389 . S
C2167 C2168 1.387 . S
C2168 H2153 0.930 . S
C2168 C2163 1.390 . S
C2168 C2167 1.387 . S
H2169 C2181 0.930 . S
H2170 C2183 0.930 . S
H2171 C2184 0.930 . S
H2172 C2188 0.959 . S
H2173 C2188 0.959 . S
H2174 C2188 0.961 . S
H2175 C2189 0.960 . S
H2176 C2189 0.961 . S
H2177 C2189 0.959 . S
H2178 C2192 0.929 . S
H2179 C2193 0.931 . S
H2180 C2195 0.930 . S
C2181 H2169 0.930 . S
C2181 C2182 1.399 . S
C2181 C2186 1.399 . S
C2182 C2181 1.399 . S
C2182 C2183 1.376 . S
C2183 H2170 0.930 . S
C2183 C2182 1.376 . S
C2183 C2184 1.388 . S
C2184 H2171 0.930 . S
C2184 C2183 1.388 . S
C2184 C2185 1.390 . S
C2185 C2184 1.390 . S
C2185 C2186 1.394 . S
C2185 C2191 1.465 . S
C2186 C2181 1.399 . S
C2186 C2185 1.394 . S
C2186 C2187 1.516 . S
C2187 C2186 1.516 . S
C2187 C2188 1.502 . S
C2187 C2189 1.561 . S
C2187 C2190 1.526 . S
C2188 H2172 0.959 . S
C2188 H2173 0.959 . S
C2188 H2174 0.961 . S
C2188 C2187 1.502 . S
C2189 H2175 0.960 . S
C2189 H2176 0.961 . S
C2189 H2177 0.959 . S
C2189 C2187 1.561 . S
C2190 C2187 1.526 . S
C2190 C2191 1.396 . S
C2190 C2195 1.390 . S
C2191 C2185 1.465 . S
C2191 C2190 1.396 . S
C2191 C2192 1.399 . S
C2192 H2178 0.929 . S
C2192 C2191 1.399 . S
C2192 C2193 1.385 . S
C2193 H2179 0.931 . S
C2193 C2192 1.385 . S
C2193 C2194 1.389 . S
C2194 C2193 1.389 . S
C2194 C2195 1.387 . S
C2195 H2180 0.930 . S
C2195 C2190 1.390 . S
C2195 C2194 1.387 . S
H2196 C2208 0.930 . S
H2197 C2210 0.918 . S
H2198 C2211 0.930 . S
H2199 C2215 0.959 . S
H2200 C2215 0.959 . S
H2201 C2215 0.961 . S
H2202 C2216 0.960 . S
H2203 C2216 0.961 . S
H2204 C2216 0.959 . S
H2205 C2219 0.929 . S
H2206 C2220 0.931 . S
H2207 C2222 0.930 . S
C2208 H2196 0.930 . S
C2208 C2209 1.399 . S
C2208 C2213 1.399 . S
C2209 C2208 1.399 . S
C2209 C2210 1.393 1_655 S
C2210 H2197 0.918 . S
C2210 C2209 1.393 1_455 S
C2210 C2211 1.386 . S
C2211 H2198 0.930 . S
C2211 C2210 1.386 . S
C2211 C2212 1.390 1_455 S
C2212 C2211 1.390 1_655 S
C2212 C2213 1.394 . S
C2212 C2218 1.465 . S
C2213 C2208 1.399 . S
C2213 C2212 1.394 . S
C2213 C2214 1.516 . S
C2214 C2213 1.516 . S
C2214 C2215 1.502 1_655 S
C2214 C2216 1.561 . S
C2214 C2217 1.526 . S
C2215 H2199 0.959 . S
C2215 H2200 0.959 . S
C2215 H2201 0.961 . S
C2215 C2214 1.502 1_455 S
C2216 H2202 0.960 . S
C2216 H2203 0.961 . S
C2216 H2204 0.959 . S
C2216 C2214 1.561 . S
C2217 C2214 1.526 . S
C2217 C2218 1.396 . S
C2217 C2222 1.390 . S
C2218 C2212 1.465 . S
C2218 C2217 1.396 . S
C2218 C2219 1.399 1_655 S
C2219 H2205 0.929 . S
C2219 C2218 1.399 1_455 S
C2219 C2220 1.385 . S
C2220 H2206 0.931 . S
C2220 C2219 1.385 . S
C2220 C2221 1.389 . S
C2221 C2220 1.389 . S
C2221 C2222 1.387 1_455 S
C2222 H2207 0.930 . S
C2222 C2217 1.390 . S
C2222 C2221 1.387 1_655 S
H2223 C2235 0.930 . S
H2224 C2237 0.930 . S
H2225 C2238 0.930 . S
H2226 C2242 0.959 . S
H2227 C2242 0.959 . S
H2228 C2242 0.961 . S
H2229 C2243 0.960 . S
H2230 C2243 0.961 . S
H2231 C2243 0.959 . S
H2232 C2246 0.929 . S
H2233 C2247 0.931 . S
H2234 C2249 0.930 . S
C2235 H2223 0.930 . S
C2235 C2236 1.399 . S
C2235 C2240 1.399 . S
C2236 C2235 1.399 . S
C2236 C2237 1.376 . S
C2237 H2224 0.930 . S
C2237 C2236 1.376 . S
C2237 C2238 1.388 . S
C2238 H2225 0.930 . S
C2238 C2237 1.388 . S
C2238 C2239 1.390 . S
C2239 C2238 1.390 . S
C2239 C2240 1.394 . S
C2239 C2245 1.465 . S
C2240 C2235 1.399 . S
C2240 C2239 1.394 . S
C2240 C2241 1.516 . S
C2241 C2240 1.516 . S
C2241 C2242 1.502 . S
C2241 C2243 1.561 . S
C2241 C2244 1.526 . S
C2242 H2226 0.959 . S
C2242 H2227 0.959 . S
C2242 H2228 0.961 . S
C2242 C2241 1.502 . S
C2243 H2229 0.960 . S
C2243 H2230 0.961 . S
C2243 H2231 0.959 . S
C2243 C2241 1.561 . S
C2244 C2241 1.526 . S
C2244 C2245 1.396 . S
C2244 C2249 1.390 . S
C2245 C2239 1.465 . S
C2245 C2244 1.396 . S
C2245 C2246 1.399 . S
C2246 H2232 0.929 . S
C2246 C2245 1.399 . S
C2246 C2247 1.385 . S
C2247 H2233 0.931 . S
C2247 C2246 1.385 . S
C2247 C2248 1.389 . S
C2248 C2247 1.389 . S
C2248 C2249 1.387 . S
C2249 H2234 0.930 . S
C2249 C2244 1.390 . S
C2249 C2248 1.387 . S
H2250 C2262 0.930 . S
H2251 C2264 0.930 . S
H2252 C2265 0.930 . S
H2253 C2269 0.959 . S
H2254 C2269 0.959 . S
H2255 C2269 0.961 . S
H2256 C2270 0.960 . S
H2257 C2270 0.961 . S
H2258 C2270 0.959 . S
H2259 C2273 0.929 . S
H2260 C2274 0.931 . S
H2261 C2276 0.930 . S
C2262 H2250 0.930 . S
C2262 C2263 1.377 1_565 S
C2262 C2267 1.399 . S
C2263 C2262 1.377 1_545 S
C2263 C2264 1.405 . S
C2264 H2251 0.930 . S
C2264 C2263 1.405 . S
C2264 C2265 1.388 . S
C2265 H2252 0.930 . S
C2265 C2264 1.388 . S
C2265 C2266 1.390 . S
C2266 C2265 1.390 . S
C2266 C2267 1.394 1_545 S
C2266 C2272 1.465 . S
C2267 C2262 1.399 . S
C2267 C2266 1.394 1_565 S
C2267 C2268 1.516 . S
C2268 C2267 1.516 . S
C2268 C2269 1.502 . S
C2268 C2270 1.561 . S
C2268 C2271 1.526 . S
C2269 H2253 0.959 . S
C2269 H2254 0.959 . S
C2269 H2255 0.961 . S
C2269 C2268 1.502 . S
C2270 H2256 0.960 . S
C2270 H2257 0.961 . S
C2270 H2258 0.959 . S
C2270 C2268 1.561 . S
C2271 C2268 1.526 . S
C2271 C2272 1.396 1_565 S
C2271 C2276 1.390 . S
C2272 C2266 1.465 . S
C2272 C2271 1.396 1_545 S
C2272 C2273 1.399 . S
C2273 H2259 0.929 . S
C2273 C2272 1.399 . S
C2273 C2274 1.385 . S
C2274 H2260 0.931 . S
C2274 C2273 1.385 . S
C2274 C2275 1.389 . S
C2275 C2274 1.389 . S
C2275 C2276 1.387 1_545 S
C2276 H2261 0.930 . S
C2276 C2271 1.390 . S
C2276 C2275 1.387 1_565 S
H2277 C2289 0.930 . S
H2278 C2291 0.930 . S
H2279 C2292 0.930 . S
H2280 C2296 0.959 . S
H2281 C2296 0.959 . S
H2282 C2296 0.961 . S
H2283 C2297 0.960 . S
H2284 C2297 0.961 . S
H2285 C2297 0.959 1_455 S
H2286 C2300 0.929 . S
H2287 C2301 0.931 . S
H2288 C2303 0.930 . S
C2289 H2277 0.930 . S
C2289 C2290 1.399 1_655 S
C2289 C2294 1.399 . S
C2290 C2289 1.399 1_455 S
C2290 C2291 1.376 . S
C2291 H2278 0.930 . S
C2291 C2290 1.376 . S
C2291 C2292 1.388 . S
C2292 H2279 0.930 . S
C2292 C2291 1.388 . S
C2292 C2293 1.390 . S
C2293 C2292 1.390 . S
C2293 C2294 1.394 1_455 S
C2293 C2299 1.465 . S
C2294 C2289 1.399 . S
C2294 C2293 1.394 1_655 S
C2294 C2295 1.516 . S
C2295 C2294 1.516 . S
C2295 C2296 1.502 . S
C2295 C2297 1.561 . S
C2295 C2298 1.526 . S
C2296 H2280 0.959 . S
C2296 H2281 0.959 . S
C2296 H2282 0.961 . S
C2296 C2295 1.502 . S
C2297 H2283 0.960 . S
C2297 H2284 0.961 . S
C2297 H2285 0.959 1_655 S
C2297 C2295 1.561 . S
C2298 C2295 1.526 . S
C2298 C2299 1.396 1_655 S
C2298 C2303 1.390 . S
C2299 C2293 1.465 . S
C2299 C2298 1.396 1_455 S
C2299 C2300 1.399 . S
C2300 H2286 0.929 . S
C2300 C2299 1.399 . S
C2300 C2301 1.385 . S
C2301 H2287 0.931 . S
C2301 C2300 1.385 . S
C2301 C2302 1.389 . S
C2302 C2301 1.389 . S
C2302 C2303 1.387 1_455 S
C2303 H2288 0.930 . S
C2303 C2298 1.390 . S
C2303 C2302 1.387 1_655 S
H2304 C2316 0.930 . S
H2305 C2318 0.930 . S
H2306 C2319 0.930 . S
H2307 C2323 0.959 . S
H2308 C2323 0.959 . S
H2309 C2323 0.961 . S
H2310 C2324 0.960 . S
H2311 C2324 0.961 . S
H2312 C2324 0.959 . S
H2313 C2327 0.929 . S
H2314 C2328 0.931 . S
H2315 C2330 0.930 . S
C2316 H2304 0.930 . S
C2316 C2317 1.399 . S
C2316 C2321 1.399 . S
C2317 C2316 1.399 . S
C2317 C2318 1.376 . S
C2318 H2305 0.930 . S
C2318 C2317 1.376 . S
C2318 C2319 1.388 . S
C2319 H2306 0.930 . S
C2319 C2318 1.388 . S
C2319 C2320 1.390 . S
C2320 C2319 1.390 . S
C2320 C2321 1.394 . S
C2320 C2326 1.465 . S
C2321 C2316 1.399 . S
C2321 C2320 1.394 . S
C2321 C2322 1.516 . S
C2322 C2321 1.516 . S
C2322 C2323 1.502 . S
C2322 C2324 1.561 . S
C2322 C2325 1.526 . S
C2323 H2307 0.959 . S
C2323 H2308 0.959 . S
C2323 H2309 0.961 . S
C2323 C2322 1.502 . S
C2324 H2310 0.960 . S
C2324 H2311 0.961 . S
C2324 H2312 0.959 . S
C2324 C2322 1.561 . S
C2325 C2322 1.526 . S
C2325 C2326 1.396 . S
C2325 C2330 1.390 . S
C2326 C2320 1.465 . S
C2326 C2325 1.396 . S
C2326 C2327 1.399 . S
C2327 H2313 0.929 . S
C2327 C2326 1.399 . S
C2327 C2328 1.385 . S
C2328 H2314 0.931 . S
C2328 C2327 1.385 . S
C2328 C2329 1.389 . S
C2329 C2328 1.389 . S
C2329 C2330 1.387 . S
C2330 H2315 0.930 . S
C2330 C2325 1.390 . S
C2330 C2329 1.387 . S
H2331 C2343 0.930 . S
H2332 C2345 0.930 . S
H2333 C2346 0.930 . S
H2334 C2350 0.959 . S
H2335 C2350 0.959 . S
H2336 C2350 0.961 . S
H2337 C2351 0.960 . S
H2338 C2351 0.961 . S
H2339 C2351 0.959 . S
H2340 C2354 0.929 . S
H2341 C2355 0.931 . S
H2342 C2357 0.930 . S
C2343 H2331 0.930 . S
C2343 C2344 1.399 1_565 S
C2343 C2348 1.399 . S
C2344 C2343 1.399 1_545 S
C2344 C2345 1.376 . S
C2345 H2332 0.930 . S
C2345 C2344 1.376 . S
C2345 C2346 1.388 . S
C2346 H2333 0.930 . S
C2346 C2345 1.388 . S
C2346 C2347 1.390 . S
C2347 C2346 1.390 . S
C2347 C2348 1.394 1_545 S
C2347 C2353 1.465 . S
C2348 C2343 1.399 . S
C2348 C2347 1.394 1_565 S
C2348 C2349 1.516 . S
C2349 C2348 1.516 . S
C2349 C2350 1.502 . S
C2349 C2351 1.561 . S
C2349 C2352 1.526 . S
C2350 H2334 0.959 . S
C2350 H2335 0.959 . S
C2350 H2336 0.961 . S
C2350 C2349 1.502 . S
C2351 H2337 0.960 . S
C2351 H2338 0.961 . S
C2351 H2339 0.959 . S
C2351 C2349 1.561 . S
C2352 C2349 1.526 . S
C2352 C2353 1.396 1_565 S
C2352 C2357 1.390 . S
C2353 C2347 1.465 . S
C2353 C2352 1.396 1_545 S
C2353 C2354 1.399 . S
C2354 H2340 0.929 . S
C2354 C2353 1.399 . S
C2354 C2355 1.385 . S
C2355 H2341 0.931 . S
C2355 C2354 1.385 . S
C2355 C2356 1.389 . S
C2356 C2355 1.389 . S
C2356 C2357 1.387 1_545 S
C2357 H2342 0.930 . S
C2357 C2352 1.390 . S
C2357 C2356 1.387 1_565 S
H2358 C2370 0.930 . S
H2359 C2372 0.930 . S
H2360 C2373 0.930 . S
H2361 C2377 0.959 . S
H2362 C2377 0.959 . S
H2363 C2377 0.961 . S
H2364 C2378 0.960 . S
H2365 C2378 0.961 . S
H2366 C2378 0.959 . S
H2367 C2381 0.929 . S
H2368 C2382 0.931 . S
H2369 C2384 0.930 . S
C2370 H2358 0.930 . S
C2370 C2371 1.399 . S
C2370 C2375 1.399 . S
C2371 C2370 1.399 . S
C2371 C2372 1.376 . S
C2372 H2359 0.930 . S
C2372 C2371 1.376 . S
C2372 C2373 1.388 . S
C2373 H2360 0.930 . S
C2373 C2372 1.388 . S
C2373 C2374 1.390 . S
C2374 C2373 1.390 . S
C2374 C2375 1.394 . S
C2374 C2380 1.465 . S
C2375 C2370 1.399 . S
C2375 C2374 1.394 . S
C2375 C2376 1.516 . S
C2376 C2375 1.516 . S
C2376 C2377 1.502 . S
C2376 C2378 1.561 . S
C2376 C2379 1.526 . S
C2377 H2361 0.959 . S
C2377 H2362 0.959 . S
C2377 H2363 0.961 . S
C2377 C2376 1.502 . S
C2378 H2364 0.960 . S
C2378 H2365 0.961 . S
C2378 H2366 0.959 . S
C2378 C2376 1.561 . S
C2379 C2376 1.526 . S
C2379 C2380 1.396 . S
C2379 C2384 1.390 . S
C2380 C2374 1.465 . S
C2380 C2379 1.396 . S
C2380 C2381 1.399 . S
C2381 H2367 0.929 . S
C2381 C2380 1.399 . S
C2381 C2382 1.385 . S
C2382 H2368 0.931 . S
C2382 C2381 1.385 . S
C2382 C2383 1.389 . S
C2383 C2382 1.389 . S
C2383 C2384 1.387 . S
C2384 H2369 0.930 . S
C2384 C2379 1.390 . S
C2384 C2383 1.387 . S
H2385 C2397 0.930 . S
H2386 C2399 0.930 . S
H2387 C2400 0.930 . S
H2388 C2404 0.959 . S
H2389 C2404 0.959 . S
H2390 C2404 0.961 . S
H2391 C2405 0.960 . S
H2392 C2405 0.961 . S
H2393 C2405 0.959 . S
H2394 C2408 0.929 . S
H2395 C2409 0.931 . S
H2396 C2411 0.930 . S
C2397 H2385 0.930 . S
C2397 C2398 1.399 . S
C2397 C2402 1.399 . S
C2398 C2397 1.399 . S
C2398 C2399 1.376 . S
C2399 H2386 0.930 . S
C2399 C2398 1.376 . S
C2399 C2400 1.388 . S
C2400 H2387 0.930 . S
C2400 C2399 1.388 . S
C2400 C2401 1.390 . S
C2401 C2400 1.390 . S
C2401 C2402 1.394 . S
C2401 C2407 1.465 . S
C2402 C2397 1.399 . S
C2402 C2401 1.394 . S
C2402 C2403 1.516 . S
C2403 C2402 1.516 . S
C2403 C2404 1.502 . S
C2403 C2405 1.561 . S
C2403 C2406 1.526 . S
C2404 H2388 0.959 . S
C2404 H2389 0.959 . S
C2404 H2390 0.961 . S
C2404 C2403 1.502 . S
C2405 H2391 0.960 . S
C2405 H2392 0.961 . S
C2405 H2393 0.959 . S
C2405 C2403 1.561 . S
C2406 C2403 1.526 . S
C2406 C2407 1.396 . S
C2406 C2411 1.390 . S
C2407 C2401 1.465 . S
C2407 C2406 1.396 . S
C2407 C2408 1.399 . S
C2408 H2394 0.929 . S
C2408 C2407 1.399 . S
C2408 C2409 1.385 . S
C2409 H2395 0.931 . S
C2409 C2408 1.385 . S
C2409 C2410 1.389 . S
C2410 C2409 1.389 . S
C2410 C2411 1.387 . S
C2411 H2396 0.930 . S
C2411 C2406 1.390 . S
C2411 C2410 1.387 . S
H2412 C2424 0.930 . S
H2413 C2426 0.930 . S
H2414 C2427 0.930 . S
H2415 C2431 0.959 . S
H2416 C2431 0.959 . S
H2417 C2431 0.961 . S
H2418 C2432 0.960 . S
H2419 C2432 0.961 . S
H2420 C2432 0.959 . S
H2421 C2435 0.929 . S
H2422 C2436 0.931 . S
H2423 C2438 0.930 . S
C2424 H2412 0.930 . S
C2424 C2425 1.399 . S
C2424 C2429 1.399 . S
C2425 C2424 1.399 . S
C2425 C2426 1.376 . S
C2426 H2413 0.930 . S
C2426 C2425 1.376 . S
C2426 C2427 1.388 . S
C2427 H2414 0.930 . S
C2427 C2426 1.388 . S
C2427 C2428 1.390 . S
C2428 C2427 1.390 . S
C2428 C2429 1.394 . S
C2428 C2434 1.465 . S
C2429 C2424 1.399 . S
C2429 C2428 1.394 . S
C2429 C2430 1.516 . S
C2430 C2429 1.516 . S
C2430 C2431 1.502 . S
C2430 C2432 1.561 . S
C2430 C2433 1.526 . S
C2431 H2415 0.959 . S
C2431 H2416 0.959 . S
C2431 H2417 0.961 . S
C2431 C2430 1.502 . S
C2432 H2418 0.960 . S
C2432 H2419 0.961 . S
C2432 H2420 0.959 . S
C2432 C2430 1.561 . S
C2433 C2430 1.526 . S
C2433 C2434 1.396 . S
C2433 C2438 1.390 . S
C2434 C2428 1.465 . S
C2434 C2433 1.396 . S
C2434 C2435 1.399 . S
C2435 H2421 0.929 . S
C2435 C2434 1.399 . S
C2435 C2436 1.385 . S
C2436 H2422 0.931 . S
C2436 C2435 1.385 . S
C2436 C2437 1.389 . S
C2437 C2436 1.389 . S
C2437 C2438 1.387 . S
C2438 H2423 0.930 . S
C2438 C2433 1.390 . S
C2438 C2437 1.387 . S
H2439 C2451 0.930 . S
H2440 C2453 0.930 . S
H2441 C2454 0.930 . S
H2442 C2458 0.959 . S
H2443 C2458 0.959 . S
H2444 C2458 0.961 . S
H2445 C2459 0.960 . S
H2446 C2459 0.961 . S
H2447 C2459 0.959 . S
H2448 C2462 0.929 . S
H2449 C2463 0.931 . S
H2450 C2465 0.930 . S
C2451 H2439 0.930 . S
C2451 C2452 1.399 . S
C2451 C2456 1.399 . S
C2452 C2451 1.399 . S
C2452 C2453 1.376 . S
C2453 H2440 0.930 . S
C2453 C2452 1.376 . S
C2453 C2454 1.388 . S
C2454 H2441 0.930 . S
C2454 C2453 1.388 . S
C2454 C2455 1.390 . S
C2455 C2454 1.390 . S
C2455 C2456 1.394 . S
C2455 C2461 1.465 . S
C2456 C2451 1.399 . S
C2456 C2455 1.394 . S
C2456 C2457 1.516 . S
C2457 C2456 1.516 . S
C2457 C2458 1.502 . S
C2457 C2459 1.561 . S
C2457 C2460 1.526 . S
C2458 H2442 0.959 . S
C2458 H2443 0.959 . S
C2458 H2444 0.961 . S
C2458 C2457 1.502 . S
C2459 H2445 0.960 . S
C2459 H2446 0.961 . S
C2459 H2447 0.959 . S
C2459 C2457 1.561 . S
C2460 C2457 1.526 . S
C2460 C2461 1.396 . S
C2460 C2465 1.390 . S
C2461 C2455 1.465 . S
C2461 C2460 1.396 . S
C2461 C2462 1.399 . S
C2462 H2448 0.929 . S
C2462 C2461 1.399 . S
C2462 C2463 1.385 . S
C2463 H2449 0.931 . S
C2463 C2462 1.385 . S
C2463 C2464 1.389 . S
C2464 C2463 1.389 . S
C2464 C2465 1.387 . S
C2465 H2450 0.930 . S
C2465 C2460 1.390 . S
C2465 C2464 1.387 . S
H2466 C2478 0.930 . S
H2467 C2480 0.930 . S
H2468 C2481 0.930 . S
H2469 C2485 0.959 . S
H2470 C2485 0.959 . S
H2471 C2485 0.961 . S
H2472 C2486 0.960 . S
H2473 C2486 0.961 . S
H2474 C2486 0.959 . S
H2475 C2489 0.929 . S
H2476 C2490 0.931 . S
H2477 C2492 0.930 . S
C2478 H2466 0.930 . S
C2478 C2479 1.399 . S
C2478 C2483 1.399 . S
C2479 C2478 1.399 . S
C2479 C2480 1.376 . S
C2480 H2467 0.930 . S
C2480 C2479 1.376 . S
C2480 C2481 1.388 . S
C2481 H2468 0.930 . S
C2481 C2480 1.388 . S
C2481 C2482 1.390 . S
C2482 C2481 1.390 . S
C2482 C2483 1.394 . S
C2482 C2488 1.465 . S
C2483 C2478 1.399 . S
C2483 C2482 1.394 . S
C2483 C2484 1.516 . S
C2484 C2483 1.516 . S
C2484 C2485 1.502 . S
C2484 C2486 1.561 . S
C2484 C2487 1.526 . S
C2485 H2469 0.959 . S
C2485 H2470 0.959 . S
C2485 H2471 0.961 . S
C2485 C2484 1.502 . S
C2486 H2472 0.960 . S
C2486 H2473 0.961 . S
C2486 H2474 0.959 . S
C2486 C2484 1.561 . S
C2487 C2484 1.526 . S
C2487 C2488 1.396 . S
C2487 C2492 1.390 . S
C2488 C2482 1.465 . S
C2488 C2487 1.396 . S
C2488 C2489 1.399 . S
C2489 H2475 0.929 . S
C2489 C2488 1.399 . S
C2489 C2490 1.385 . S
C2490 H2476 0.931 . S
C2490 C2489 1.385 . S
C2490 C2491 1.389 . S
C2491 C2490 1.389 . S
C2491 C2492 1.387 . S
C2492 H2477 0.930 . S
C2492 C2487 1.390 . S
C2492 C2491 1.387 . S
H2493 C2505 0.930 . S
H2494 C2507 0.930 . S
H2495 C2508 0.930 . S
H2496 C2512 0.959 . S
H2497 C2512 0.959 . S
H2498 C2512 0.961 . S
H2499 C2513 0.960 . S
H2500 C2513 0.961 . S
H2501 C2513 0.959 . S
H2502 C2516 0.929 . S
H2503 C2517 0.931 . S
H2504 C2519 0.930 . S
C2505 H2493 0.930 . S
C2505 C2506 1.399 . S
C2505 C2510 1.399 . S
C2506 C2505 1.399 . S
C2506 C2507 1.376 . S
C2507 H2494 0.930 . S
C2507 C2506 1.376 . S
C2507 C2508 1.388 . S
C2508 H2495 0.930 . S
C2508 C2507 1.388 . S
C2508 C2509 1.390 . S
C2509 C2508 1.390 . S
C2509 C2510 1.394 . S
C2509 C2515 1.465 . S
C2510 C2505 1.399 . S
C2510 C2509 1.394 . S
C2510 C2511 1.516 . S
C2511 C2510 1.516 . S
C2511 C2512 1.502 . S
C2511 C2513 1.561 . S
C2511 C2514 1.526 . S
C2512 H2496 0.959 . S
C2512 H2497 0.959 . S
C2512 H2498 0.961 . S
C2512 C2511 1.502 . S
C2513 H2499 0.960 . S
C2513 H2500 0.961 . S
C2513 H2501 0.959 . S
C2513 C2511 1.561 . S
C2514 C2511 1.526 . S
C2514 C2515 1.396 . S
C2514 C2519 1.390 . S
C2515 C2509 1.465 . S
C2515 C2514 1.396 . S
C2515 C2516 1.399 . S
C2516 H2502 0.929 . S
C2516 C2515 1.399 . S
C2516 C2517 1.385 . S
C2517 H2503 0.931 . S
C2517 C2516 1.385 . S
C2517 C2518 1.389 . S
C2518 C2517 1.389 . S
C2518 C2519 1.387 . S
C2519 H2504 0.930 . S
C2519 C2514 1.390 . S
C2519 C2518 1.387 . S
H2520 C2532 0.930 . S
H2521 C2534 0.930 . S
H2522 C2535 0.930 . S
H2523 C2539 0.959 . S
H2524 C2539 0.959 . S
H2525 C2539 0.961 . S
H2526 C2540 0.960 . S
H2527 C2540 0.961 . S
H2528 C2540 0.959 . S
H2529 C2543 0.929 . S
H2530 C2544 0.931 . S
H2531 C2546 0.930 . S
C2532 H2520 0.930 . S
C2532 C2533 1.399 . S
C2532 C2537 1.399 . S
C2533 C2532 1.399 . S
C2533 C2534 1.376 . S
C2534 H2521 0.930 . S
C2534 C2533 1.376 . S
C2534 C2535 1.388 . S
C2535 H2522 0.930 . S
C2535 C2534 1.388 . S
C2535 C2536 1.390 . S
C2536 C2535 1.390 . S
C2536 C2537 1.394 . S
C2536 C2542 1.465 . S
C2537 C2532 1.399 . S
C2537 C2536 1.394 . S
C2537 C2538 1.516 . S
C2538 C2537 1.516 . S
C2538 C2539 1.502 . S
C2538 C2540 1.561 . S
C2538 C2541 1.526 . S
C2539 H2523 0.959 . S
C2539 H2524 0.959 . S
C2539 H2525 0.961 . S
C2539 C2538 1.502 . S
C2540 H2526 0.960 . S
C2540 H2527 0.961 . S
C2540 H2528 0.959 . S
C2540 C2538 1.561 . S
C2541 C2538 1.526 . S
C2541 C2542 1.396 . S
C2541 C2546 1.390 . S
C2542 C2536 1.465 . S
C2542 C2541 1.396 . S
C2542 C2543 1.399 . S
C2543 H2529 0.929 . S
C2543 C2542 1.399 . S
C2543 C2544 1.385 . S
C2544 H2530 0.931 . S
C2544 C2543 1.385 . S
C2544 C2545 1.389 . S
C2545 C2544 1.389 . S
C2545 C2546 1.387 . S
C2546 H2531 0.930 . S
C2546 C2541 1.390 . S
C2546 C2545 1.387 . S
H2547 C2559 0.930 . S
H2548 C2561 0.930 . S
H2549 C2562 0.930 . S
H2550 C2566 0.959 . S
H2551 C2566 0.959 . S
H2552 C2566 0.961 . S
H2553 C2567 0.960 . S
H2554 C2567 0.961 . S
H2555 C2567 0.959 . S
H2556 C2570 0.929 . S
H2557 C2571 0.931 . S
H2558 C2573 0.930 . S
C2559 H2547 0.930 . S
C2559 C2560 1.399 . S
C2559 C2564 1.399 . S
C2560 C2559 1.399 . S
C2560 C2561 1.376 . S
C2561 H2548 0.930 . S
C2561 C2560 1.376 . S
C2561 C2562 1.388 . S
C2562 H2549 0.930 . S
C2562 C2561 1.388 . S
C2562 C2563 1.390 . S
C2563 C2562 1.390 . S
C2563 C2564 1.394 . S
C2563 C2569 1.465 . S
C2564 C2559 1.399 . S
C2564 C2563 1.394 . S
C2564 C2565 1.516 . S
C2565 C2564 1.516 . S
C2565 C2566 1.502 . S
C2565 C2567 1.561 . S
C2565 C2568 1.526 . S
C2566 H2550 0.959 . S
C2566 H2551 0.959 . S
C2566 H2552 0.961 . S
C2566 C2565 1.502 . S
C2567 H2553 0.960 . S
C2567 H2554 0.961 . S
C2567 H2555 0.959 . S
C2567 C2565 1.561 . S
C2568 C2565 1.526 . S
C2568 C2569 1.396 . S
C2568 C2573 1.390 . S
C2569 C2563 1.465 . S
C2569 C2568 1.396 . S
C2569 C2570 1.399 . S
C2570 H2556 0.929 . S
C2570 C2569 1.399 . S
C2570 C2571 1.385 . S
C2571 H2557 0.931 . S
C2571 C2570 1.385 . S
C2571 C2572 1.389 . S
C2572 C2571 1.389 . S
C2572 C2573 1.387 . S
C2573 H2558 0.930 . S
C2573 C2568 1.390 . S
C2573 C2572 1.387 . S
H2574 C2586 0.930 . S
H2575 C2588 0.930 . S
H2576 C2589 0.930 . S
H2577 C2593 0.959 . S
H2578 C2593 0.959 . S
H2579 C2593 0.961 . S
H2580 C2594 0.960 . S
H2581 C2594 0.961 . S
H2582 C2594 0.959 . S
H2583 C2597 0.929 . S
H2584 C2598 0.931 . S
H2585 C2600 0.930 . S
C2586 H2574 0.930 . S
C2586 C2587 1.399 . S
C2586 C2591 1.399 . S
C2587 C2586 1.399 . S
C2587 C2588 1.376 . S
C2588 H2575 0.930 . S
C2588 C2587 1.376 . S
C2588 C2589 1.388 . S
C2589 H2576 0.930 . S
C2589 C2588 1.388 . S
C2589 C2590 1.390 . S
C2590 C2589 1.390 . S
C2590 C2591 1.394 . S
C2590 C2596 1.465 . S
C2591 C2586 1.399 . S
C2591 C2590 1.394 . S
C2591 C2592 1.516 . S
C2592 C2591 1.516 . S
C2592 C2593 1.502 . S
C2592 C2594 1.561 . S
C2592 C2595 1.526 . S
C2593 H2577 0.959 . S
C2593 H2578 0.959 . S
C2593 H2579 0.961 . S
C2593 C2592 1.502 . S
C2594 H2580 0.960 . S
C2594 H2581 0.961 . S
C2594 H2582 0.959 . S
C2594 C2592 1.561 . S
C2595 C2592 1.526 . S
C2595 C2596 1.396 . S
C2595 C2600 1.390 . S
C2596 C2590 1.465 . S
C2596 C2595 1.396 . S
C2596 C2597 1.399 . S
C2597 H2583 0.929 . S
C2597 C2596 1.399 . S
C2597 C2598 1.385 . S
C2598 H2584 0.931 . S
C2598 C2597 1.385 . S
C2598 C2599 1.389 . S
C2599 C2598 1.389 . S
C2599 C2600 1.387 . S
C2600 H2585 0.930 . S
C2600 C2595 1.390 . S
C2600 C2599 1.387 . S
H2601 C2613 0.930 . S
H2602 C2615 0.930 . S
H2603 C2616 0.930 . S
H2604 C2620 0.959 . S
H2605 C2620 0.959 . S
H2606 C2620 0.961 . S
H2607 C2621 0.960 . S
H2608 C2621 0.961 . S
H2609 C2621 0.959 . S
H2610 C2624 0.929 . S
H2611 C2625 0.931 . S
H2612 C2627 0.930 . S
C2613 H2601 0.930 . S
C2613 C2614 1.399 . S
C2613 C2618 1.399 . S
C2614 C2613 1.399 . S
C2614 C2615 1.376 . S
C2615 H2602 0.930 . S
C2615 C2614 1.376 . S
C2615 C2616 1.388 . S
C2616 H2603 0.930 . S
C2616 C2615 1.388 . S
C2616 C2617 1.390 . S
C2617 C2616 1.390 . S
C2617 C2618 1.394 . S
C2617 C2623 1.465 . S
C2618 C2613 1.399 . S
C2618 C2617 1.394 . S
C2618 C2619 1.516 . S
C2619 C2618 1.516 . S
C2619 C2620 1.502 . S
C2619 C2621 1.561 . S
C2619 C2622 1.526 . S
C2620 H2604 0.959 . S
C2620 H2605 0.959 . S
C2620 H2606 0.961 . S
C2620 C2619 1.502 . S
C2621 H2607 0.960 . S
C2621 H2608 0.961 . S
C2621 H2609 0.959 . S
C2621 C2619 1.561 . S
C2622 C2619 1.526 . S
C2622 C2623 1.396 . S
C2622 C2627 1.390 . S
C2623 C2617 1.465 . S
C2623 C2622 1.396 . S
C2623 C2624 1.399 . S
C2624 H2610 0.929 . S
C2624 C2623 1.399 . S
C2624 C2625 1.385 . S
C2625 H2611 0.931 . S
C2625 C2624 1.385 . S
C2625 C2626 1.389 . S
C2626 C2625 1.389 . S
C2626 C2627 1.387 . S
C2627 H2612 0.930 . S
C2627 C2622 1.390 . S
C2627 C2626 1.387 . S
H2628 C2640 0.930 . S
H2629 C2642 0.930 . S
H2630 C2643 0.930 . S
H2631 C2647 0.959 . S
H2632 C2647 0.959 . S
H2633 C2647 0.961 . S
H2634 C2648 0.960 . S
H2635 C2648 0.961 . S
H2636 C2648 0.959 . S
H2637 C2651 0.929 . S
H2638 C2652 0.931 . S
H2639 C2654 0.930 . S
C2640 H2628 0.930 . S
C2640 C2641 1.399 . S
C2640 C2645 1.399 . S
C2641 C2640 1.399 . S
C2641 C2642 1.376 . S
C2642 H2629 0.930 . S
C2642 C2641 1.376 . S
C2642 C2643 1.388 . S
C2643 H2630 0.930 . S
C2643 C2642 1.388 . S
C2643 C2644 1.390 . S
C2644 C2643 1.390 . S
C2644 C2645 1.394 . S
C2644 C2650 1.465 . S
C2645 C2640 1.399 . S
C2645 C2644 1.394 . S
C2645 C2646 1.516 . S
C2646 C2645 1.516 . S
C2646 C2647 1.502 . S
C2646 C2648 1.561 . S
C2646 C2649 1.526 . S
C2647 H2631 0.959 . S
C2647 H2632 0.959 . S
C2647 H2633 0.961 . S
C2647 C2646 1.502 . S
C2648 H2634 0.960 . S
C2648 H2635 0.961 . S
C2648 H2636 0.959 . S
C2648 C2646 1.561 . S
C2649 C2646 1.526 . S
C2649 C2650 1.396 . S
C2649 C2654 1.390 . S
C2650 C2644 1.465 . S
C2650 C2649 1.396 . S
C2650 C2651 1.399 . S
C2651 H2637 0.929 . S
C2651 C2650 1.399 . S
C2651 C2652 1.385 . S
C2652 H2638 0.931 . S
C2652 C2651 1.385 . S
C2652 C2653 1.389 . S
C2653 C2652 1.389 . S
C2653 C2654 1.387 . S
C2654 H2639 0.930 . S
C2654 C2649 1.390 . S
C2654 C2653 1.387 . S
H2655 C2667 0.930 . S
H2656 C2669 0.930 . S
H2657 C2670 0.930 . S
H2658 C2674 0.959 . S
H2659 C2674 0.959 . S
H2660 C2674 0.961 . S
H2661 C2675 0.960 . S
H2662 C2675 0.961 . S
H2663 C2675 0.959 . S
H2664 C2678 0.929 . S
H2665 C2679 0.931 . S
H2666 C2681 0.930 . S
C2667 H2655 0.930 . S
C2667 C2668 1.399 . S
C2667 C2672 1.399 . S
C2668 C2667 1.399 . S
C2668 C2669 1.376 . S
C2669 H2656 0.930 . S
C2669 C2668 1.376 . S
C2669 C2670 1.388 . S
C2670 H2657 0.930 . S
C2670 C2669 1.388 . S
C2670 C2671 1.390 . S
C2671 C2670 1.390 . S
C2671 C2672 1.394 . S
C2671 C2677 1.465 . S
C2672 C2667 1.399 . S
C2672 C2671 1.394 . S
C2672 C2673 1.516 . S
C2673 C2672 1.516 . S
C2673 C2674 1.502 . S
C2673 C2675 1.561 . S
C2673 C2676 1.526 . S
C2674 H2658 0.959 . S
C2674 H2659 0.959 . S
C2674 H2660 0.961 . S
C2674 C2673 1.502 . S
C2675 H2661 0.960 . S
C2675 H2662 0.961 . S
C2675 H2663 0.959 . S
C2675 C2673 1.561 . S
C2676 C2673 1.526 . S
C2676 C2677 1.396 . S
C2676 C2681 1.390 . S
C2677 C2671 1.465 . S
C2677 C2676 1.396 . S
C2677 C2678 1.399 . S
C2678 H2664 0.929 . S
C2678 C2677 1.399 . S
C2678 C2679 1.385 . S
C2679 H2665 0.931 . S
C2679 C2678 1.385 . S
C2679 C2680 1.389 . S
C2680 C2679 1.389 . S
C2680 C2681 1.387 . S
C2681 H2666 0.930 . S
C2681 C2676 1.390 . S
C2681 C2680 1.387 . S
H2682 C2694 0.930 . S
H2683 C2696 0.930 . S
H2684 C2697 0.930 . S
H2685 C2701 0.959 . S
H2686 C2701 0.959 . S
H2687 C2701 0.961 . S
H2688 C2702 0.960 . S
H2689 C2702 0.961 . S
H2690 C2702 0.959 . S
H2691 C2705 0.929 . S
H2692 C2706 0.931 . S
H2693 C2708 0.930 . S
C2694 H2682 0.930 . S
C2694 C2695 1.399 . S
C2694 C2699 1.399 . S
C2695 C2694 1.399 . S
C2695 C2696 1.376 . S
C2696 H2683 0.930 . S
C2696 C2695 1.376 . S
C2696 C2697 1.388 . S
C2697 H2684 0.930 . S
C2697 C2696 1.388 . S
C2697 C2698 1.390 . S
C2698 C2697 1.390 . S
C2698 C2699 1.394 . S
C2698 C2704 1.465 . S
C2699 C2694 1.399 . S
C2699 C2698 1.394 . S
C2699 C2700 1.516 . S
C2700 C2699 1.516 . S
C2700 C2701 1.502 . S
C2700 C2702 1.561 . S
C2700 C2703 1.526 . S
C2701 H2685 0.959 . S
C2701 H2686 0.959 . S
C2701 H2687 0.961 . S
C2701 C2700 1.502 . S
C2702 H2688 0.960 . S
C2702 H2689 0.961 . S
C2702 H2690 0.959 . S
C2702 C2700 1.561 . S
C2703 C2700 1.526 . S
C2703 C2704 1.396 . S
C2703 C2708 1.390 . S
C2704 C2698 1.465 . S
C2704 C2703 1.396 . S
C2704 C2705 1.399 . S
C2705 H2691 0.929 . S
C2705 C2704 1.399 . S
C2705 C2706 1.385 . S
C2706 H2692 0.931 . S
C2706 C2705 1.385 . S
C2706 C2707 1.389 . S
C2707 C2706 1.389 . S
C2707 C2708 1.387 . S
C2708 H2693 0.930 . S
C2708 C2703 1.390 . S
C2708 C2707 1.387 . S
H2709 C2721 0.930 . S
H2710 C2723 0.930 . S
H2711 C2724 0.930 . S
H2712 C2728 0.959 . S
H2713 C2728 0.959 . S
H2714 C2728 0.961 . S
H2715 C2729 0.960 . S
H2716 C2729 0.961 . S
H2717 C2729 0.959 . S
H2718 C2732 0.929 . S
H2719 C2733 0.931 . S
H2720 C2735 0.930 . S
C2721 H2709 0.930 . S
C2721 C2722 1.399 . S
C2721 C2726 1.399 . S
C2722 C2721 1.399 . S
C2722 C2723 1.376 . S
C2723 H2710 0.930 . S
C2723 C2722 1.376 . S
C2723 C2724 1.388 . S
C2724 H2711 0.930 . S
C2724 C2723 1.388 . S
C2724 C2725 1.390 . S
C2725 C2724 1.390 . S
C2725 C2726 1.394 . S
C2725 C2731 1.465 . S
C2726 C2721 1.399 . S
C2726 C2725 1.394 . S
C2726 C2727 1.516 . S
C2727 C2726 1.516 . S
C2727 C2728 1.502 . S
C2727 C2729 1.561 . S
C2727 C2730 1.526 . S
C2728 H2712 0.959 . S
C2728 H2713 0.959 . S
C2728 H2714 0.961 . S
C2728 C2727 1.502 . S
C2729 H2715 0.960 . S
C2729 H2716 0.961 . S
C2729 H2717 0.959 . S
C2729 C2727 1.561 . S
C2730 C2727 1.526 . S
C2730 C2731 1.396 . S
C2730 C2735 1.390 . S
C2731 C2725 1.465 . S
C2731 C2730 1.396 . S
C2731 C2732 1.399 . S
C2732 H2718 0.929 . S
C2732 C2731 1.399 . S
C2732 C2733 1.385 . S
C2733 H2719 0.931 . S
C2733 C2732 1.385 . S
C2733 C2734 1.389 . S
C2734 C2733 1.389 . S
C2734 C2735 1.387 . S
C2735 H2720 0.930 . S
C2735 C2730 1.390 . S
C2735 C2734 1.387 . S
H2736 C2748 0.930 . S
H2737 C2750 0.930 . S
H2738 C2751 0.930 . S
H2739 C2755 0.959 . S
H2740 C2755 0.959 . S
H2741 C2755 0.961 . S
H2742 C2756 0.960 . S
H2743 C2756 0.961 . S
H2744 C2756 0.959 . S
H2745 C2759 0.929 . S
H2746 C2760 0.931 . S
H2747 C2762 0.930 . S
C2748 H2736 0.930 . S
C2748 C2749 1.399 . S
C2748 C2753 1.399 . S
C2749 C2748 1.399 . S
C2749 C2750 1.376 . S
C2750 H2737 0.930 . S
C2750 C2749 1.376 . S
C2750 C2751 1.388 . S
C2751 H2738 0.930 . S
C2751 C2750 1.388 . S
C2751 C2752 1.390 . S
C2752 C2751 1.390 . S
C2752 C2753 1.394 . S
C2752 C2758 1.465 . S
C2753 C2748 1.399 . S
C2753 C2752 1.394 . S
C2753 C2754 1.516 . S
C2754 C2753 1.516 . S
C2754 C2755 1.502 . S
C2754 C2756 1.561 . S
C2754 C2757 1.526 . S
C2755 H2739 0.959 . S
C2755 H2740 0.959 . S
C2755 H2741 0.961 . S
C2755 C2754 1.502 . S
C2756 H2742 0.960 . S
C2756 H2743 0.961 . S
C2756 H2744 0.959 . S
C2756 C2754 1.561 . S
C2757 C2754 1.526 . S
C2757 C2758 1.396 . S
C2757 C2762 1.390 . S
C2758 C2752 1.465 . S
C2758 C2757 1.396 . S
C2758 C2759 1.399 . S
C2759 H2745 0.929 . S
C2759 C2758 1.399 . S
C2759 C2760 1.385 . S
C2760 H2746 0.931 . S
C2760 C2759 1.385 . S
C2760 C2761 1.389 . S
C2761 C2760 1.389 . S
C2761 C2762 1.387 . S
C2762 H2747 0.930 . S
C2762 C2757 1.390 . S
C2762 C2761 1.387 . S
H2763 C2775 0.930 . S
H2764 C2777 0.930 . S
H2765 C2778 0.930 . S
H2766 C2782 0.959 . S
H2767 C2782 0.959 . S
H2768 C2782 0.961 . S
H2769 C2783 0.960 . S
H2770 C2783 0.961 . S
H2771 C2783 0.959 . S
H2772 C2786 0.929 . S
H2773 C2787 0.931 . S
H2774 C2789 0.930 . S
C2775 H2763 0.930 . S
C2775 C2776 1.399 . S
C2775 C2780 1.399 . S
C2776 C2775 1.399 . S
C2776 C2777 1.376 . S
C2777 H2764 0.930 . S
C2777 C2776 1.376 . S
C2777 C2778 1.388 . S
C2778 H2765 0.930 . S
C2778 C2777 1.388 . S
C2778 C2779 1.390 . S
C2779 C2778 1.390 . S
C2779 C2780 1.394 . S
C2779 C2785 1.465 . S
C2780 C2775 1.399 . S
C2780 C2779 1.394 . S
C2780 C2781 1.516 . S
C2781 C2780 1.516 . S
C2781 C2782 1.502 . S
C2781 C2783 1.561 . S
C2781 C2784 1.526 . S
C2782 H2766 0.959 . S
C2782 H2767 0.959 . S
C2782 H2768 0.961 . S
C2782 C2781 1.502 . S
C2783 H2769 0.960 . S
C2783 H2770 0.961 . S
C2783 H2771 0.959 . S
C2783 C2781 1.561 . S
C2784 C2781 1.526 . S
C2784 C2785 1.396 . S
C2784 C2789 1.390 . S
C2785 C2779 1.465 . S
C2785 C2784 1.396 . S
C2785 C2786 1.399 . S
C2786 H2772 0.929 . S
C2786 C2785 1.399 . S
C2786 C2787 1.385 . S
C2787 H2773 0.931 . S
C2787 C2786 1.385 . S
C2787 C2788 1.389 . S
C2788 C2787 1.389 . S
C2788 C2789 1.387 . S
C2789 H2774 0.930 . S
C2789 C2784 1.390 . S
C2789 C2788 1.387 . S
H2790 C2802 0.930 . S
H2791 C2804 0.930 . S
H2792 C2805 0.930 . S
H2793 C2809 0.959 . S
H2794 C2809 0.959 . S
H2795 C2809 0.961 . S
H2796 C2810 0.960 . S
H2797 C2810 0.961 . S
H2798 C2810 0.959 . S
H2799 C2813 0.929 . S
H2800 C2814 0.931 . S
H2801 C2816 0.930 . S
C2802 H2790 0.930 . S
C2802 C2803 1.399 . S
C2802 C2807 1.399 . S
C2803 C2802 1.399 . S
C2803 C2804 1.376 . S
C2804 H2791 0.930 . S
C2804 C2803 1.376 . S
C2804 C2805 1.388 . S
C2805 H2792 0.930 . S
C2805 C2804 1.388 . S
C2805 C2806 1.390 . S
C2806 C2805 1.390 . S
C2806 C2807 1.394 . S
C2806 C2812 1.465 . S
C2807 C2802 1.399 . S
C2807 C2806 1.394 . S
C2807 C2808 1.516 . S
C2808 C2807 1.516 . S
C2808 C2809 1.502 . S
C2808 C2810 1.561 . S
C2808 C2811 1.526 . S
C2809 H2793 0.959 . S
C2809 H2794 0.959 . S
C2809 H2795 0.961 . S
C2809 C2808 1.502 . S
C2810 H2796 0.960 . S
C2810 H2797 0.961 . S
C2810 H2798 0.959 . S
C2810 C2808 1.561 . S
C2811 C2808 1.526 . S
C2811 C2812 1.396 . S
C2811 C2816 1.390 . S
C2812 C2806 1.465 . S
C2812 C2811 1.396 . S
C2812 C2813 1.399 . S
C2813 H2799 0.929 . S
C2813 C2812 1.399 . S
C2813 C2814 1.385 . S
C2814 H2800 0.931 . S
C2814 C2813 1.385 . S
C2814 C2815 1.389 . S
C2815 C2814 1.389 . S
C2815 C2816 1.387 . S
C2816 H2801 0.930 . S
C2816 C2811 1.390 . S
C2816 C2815 1.387 . S
H2817 C2829 0.930 . S
H2818 C2831 0.930 . S
H2819 C2832 0.930 . S
H2820 C2836 0.959 . S
H2821 C2836 0.959 . S
H2822 C2836 0.961 . S
H2823 C2837 0.960 . S
H2824 C2837 0.961 . S
H2825 C2837 0.959 . S
H2826 C2840 0.929 . S
H2827 C2841 0.931 . S
H2828 C2843 0.930 . S
C2829 H2817 0.930 . S
C2829 C2830 1.399 . S
C2829 C2834 1.399 . S
C2830 C2829 1.399 . S
C2830 C2831 1.376 . S
C2831 H2818 0.930 . S
C2831 C2830 1.376 . S
C2831 C2832 1.388 . S
C2832 H2819 0.930 . S
C2832 C2831 1.388 . S
C2832 C2833 1.390 . S
C2833 C2832 1.390 . S
C2833 C2834 1.394 . S
C2833 C2839 1.465 . S
C2834 C2829 1.399 . S
C2834 C2833 1.394 . S
C2834 C2835 1.516 . S
C2835 C2834 1.516 . S
C2835 C2836 1.502 . S
C2835 C2837 1.561 . S
C2835 C2838 1.526 . S
C2836 H2820 0.959 . S
C2836 H2821 0.959 . S
C2836 H2822 0.961 . S
C2836 C2835 1.502 . S
C2837 H2823 0.960 . S
C2837 H2824 0.961 . S
C2837 H2825 0.959 . S
C2837 C2835 1.561 . S
C2838 C2835 1.526 . S
C2838 C2839 1.396 . S
C2838 C2843 1.390 . S
C2839 C2833 1.465 . S
C2839 C2838 1.396 . S
C2839 C2840 1.399 . S
C2840 H2826 0.929 . S
C2840 C2839 1.399 . S
C2840 C2841 1.385 . S
C2841 H2827 0.931 . S
C2841 C2840 1.385 . S
C2841 C2842 1.389 . S
C2842 C2841 1.389 . S
C2842 C2843 1.387 . S
C2843 H2828 0.930 . S
C2843 C2838 1.390 . S
C2843 C2842 1.387 . S
H2844 C2856 0.930 . S
H2845 C2858 0.930 . S
H2846 C2859 0.930 . S
H2847 C2863 0.959 . S
H2848 C2863 0.959 . S
H2849 C2863 0.961 . S
H2850 C2864 0.960 . S
H2851 C2864 0.961 . S
H2852 C2864 0.959 . S
H2853 C2867 0.929 . S
H2854 C2868 0.931 . S
H2855 C2870 0.930 . S
C2856 H2844 0.930 . S
C2856 C2857 1.399 . S
C2856 C2861 1.399 . S
C2857 C2856 1.399 . S
C2857 C2858 1.376 . S
C2858 H2845 0.930 . S
C2858 C2857 1.376 . S
C2858 C2859 1.388 . S
C2859 H2846 0.930 . S
C2859 C2858 1.388 . S
C2859 C2860 1.390 . S
C2860 C2859 1.390 . S
C2860 C2861 1.394 . S
C2860 C2866 1.465 . S
C2861 C2856 1.399 . S
C2861 C2860 1.394 . S
C2861 C2862 1.516 . S
C2862 C2861 1.516 . S
C2862 C2863 1.502 . S
C2862 C2864 1.561 . S
C2862 C2865 1.526 . S
C2863 H2847 0.959 . S
C2863 H2848 0.959 . S
C2863 H2849 0.961 . S
C2863 C2862 1.502 . S
C2864 H2850 0.960 . S
C2864 H2851 0.961 . S
C2864 H2852 0.959 . S
C2864 C2862 1.561 . S
C2865 C2862 1.526 . S
C2865 C2866 1.396 . S
C2865 C2870 1.390 . S
C2866 C2860 1.465 . S
C2866 C2865 1.396 . S
C2866 C2867 1.399 . S
C2867 H2853 0.929 . S
C2867 C2866 1.399 . S
C2867 C2868 1.385 . S
C2868 H2854 0.931 . S
C2868 C2867 1.385 . S
C2868 C2869 1.389 . S
C2869 C2868 1.389 . S
C2869 C2870 1.387 . S
C2870 H2855 0.930 . S
C2870 C2865 1.390 . S
C2870 C2869 1.387 . S
H2871 C2883 0.930 . S
H2872 C2885 0.930 . S
H2873 C2886 0.930 . S
H2874 C2890 0.959 . S
H2875 C2890 0.959 . S
H2876 C2890 0.961 . S
H2877 C2891 0.960 . S
H2878 C2891 0.961 . S
H2879 C2891 0.959 . S
H2880 C2894 0.929 . S
H2881 C2895 0.931 . S
H2882 C2897 0.930 . S
C2883 H2871 0.930 . S
C2883 C2884 1.399 . S
C2883 C2888 1.399 . S
C2884 C2883 1.399 . S
C2884 C2885 1.376 . S
C2885 H2872 0.930 . S
C2885 C2884 1.376 . S
C2885 C2886 1.388 . S
C2886 H2873 0.930 . S
C2886 C2885 1.388 . S
C2886 C2887 1.390 . S
C2887 C2886 1.390 . S
C2887 C2888 1.394 . S
C2887 C2893 1.465 . S
C2888 C2883 1.399 . S
C2888 C2887 1.394 . S
C2888 C2889 1.516 . S
C2889 C2888 1.516 . S
C2889 C2890 1.502 . S
C2889 C2891 1.561 . S
C2889 C2892 1.526 . S
C2890 H2874 0.959 . S
C2890 H2875 0.959 . S
C2890 H2876 0.961 . S
C2890 C2889 1.502 . S
C2891 H2877 0.960 . S
C2891 H2878 0.961 . S
C2891 H2879 0.959 . S
C2891 C2889 1.561 . S
C2892 C2889 1.526 . S
C2892 C2893 1.396 . S
C2892 C2897 1.390 . S
C2893 C2887 1.465 . S
C2893 C2892 1.396 . S
C2893 C2894 1.399 . S
C2894 H2880 0.929 . S
C2894 C2893 1.399 . S
C2894 C2895 1.385 . S
C2895 H2881 0.931 . S
C2895 C2894 1.385 . S
C2895 C2896 1.389 . S
C2896 C2895 1.389 . S
C2896 C2897 1.387 . S
C2897 H2882 0.930 . S
C2897 C2892 1.390 . S
C2897 C2896 1.387 . S
H2898 C2910 0.930 . S
H2899 C2912 0.930 . S
H2900 C2913 0.930 . S
H2901 C2917 0.959 . S
H2902 C2917 0.959 . S
H2903 C2917 0.961 . S
H2904 C2918 0.960 . S
H2905 C2918 0.961 . S
H2906 C2918 0.959 . S
H2907 C2921 0.929 . S
H2908 C2922 0.931 . S
H2909 C2924 0.930 . S
C2910 H2898 0.930 . S
C2910 C2911 1.399 . S
C2910 C2915 1.399 . S
C2911 C2910 1.399 . S
C2911 C2912 1.376 . S
C2912 H2899 0.930 . S
C2912 C2911 1.376 . S
C2912 C2913 1.388 . S
C2913 H2900 0.930 . S
C2913 C2912 1.388 . S
C2913 C2914 1.390 . S
C2914 C2913 1.390 . S
C2914 C2915 1.394 . S
C2914 C2920 1.465 . S
C2915 C2910 1.399 . S
C2915 C2914 1.394 . S
C2915 C2916 1.516 . S
C2916 C2915 1.516 . S
C2916 C2917 1.502 . S
C2916 C2918 1.561 . S
C2916 C2919 1.526 . S
C2917 H2901 0.959 . S
C2917 H2902 0.959 . S
C2917 H2903 0.961 . S
C2917 C2916 1.502 . S
C2918 H2904 0.960 . S
C2918 H2905 0.961 . S
C2918 H2906 0.959 . S
C2918 C2916 1.561 . S
C2919 C2916 1.526 . S
C2919 C2920 1.396 . S
C2919 C2924 1.390 . S
C2920 C2914 1.465 . S
C2920 C2919 1.396 . S
C2920 C2921 1.399 . S
C2921 H2907 0.929 . S
C2921 C2920 1.399 . S
C2921 C2922 1.385 . S
C2922 H2908 0.931 . S
C2922 C2921 1.385 . S
C2922 C2923 1.389 . S
C2923 C2922 1.389 . S
C2923 C2924 1.387 . S
C2924 H2909 0.930 . S
C2924 C2919 1.390 . S
C2924 C2923 1.387 . S
H2925 C2937 0.930 . S
H2926 C2939 0.930 . S
H2927 C2940 0.930 . S
H2928 C2944 0.959 . S
H2929 C2944 0.959 . S
H2930 C2944 0.961 . S
H2931 C2945 0.960 . S
H2932 C2945 0.961 . S
H2933 C2945 0.959 . S
H2934 C2948 0.929 . S
H2935 C2949 0.931 . S
H2936 C2951 0.930 . S
C2937 H2925 0.930 . S
C2937 C2938 1.399 . S
C2937 C2942 1.399 . S
C2938 C2937 1.399 . S
C2938 C2939 1.376 . S
C2939 H2926 0.930 . S
C2939 C2938 1.376 . S
C2939 C2940 1.388 . S
C2940 H2927 0.930 . S
C2940 C2939 1.388 . S
C2940 C2941 1.390 . S
C2941 C2940 1.390 . S
C2941 C2942 1.394 . S
C2941 C2947 1.465 . S
C2942 C2937 1.399 . S
C2942 C2941 1.394 . S
C2942 C2943 1.516 . S
C2943 C2942 1.516 . S
C2943 C2944 1.502 . S
C2943 C2945 1.561 . S
C2943 C2946 1.526 . S
C2944 H2928 0.959 . S
C2944 H2929 0.959 . S
C2944 H2930 0.961 . S
C2944 C2943 1.502 . S
C2945 H2931 0.960 . S
C2945 H2932 0.961 . S
C2945 H2933 0.959 . S
C2945 C2943 1.561 . S
C2946 C2943 1.526 . S
C2946 C2947 1.396 . S
C2946 C2951 1.390 . S
C2947 C2941 1.465 . S
C2947 C2946 1.396 . S
C2947 C2948 1.399 . S
C2948 H2934 0.929 . S
C2948 C2947 1.399 . S
C2948 C2949 1.385 . S
C2949 H2935 0.931 . S
C2949 C2948 1.385 . S
C2949 C2950 1.389 . S
C2950 C2949 1.389 . S
C2950 C2951 1.387 . S
C2951 H2936 0.930 . S
C2951 C2946 1.390 . S
C2951 C2950 1.387 . S
H2952 C2964 0.930 . S
H2953 C2966 0.930 . S
H2954 C2967 0.930 . S
H2955 C2971 0.959 . S
H2956 C2971 0.959 . S
H2957 C2971 0.961 . S
H2958 C2972 0.960 . S
H2959 C2972 0.961 . S
H2960 C2972 0.959 . S
H2961 C2975 0.929 . S
H2962 C2976 0.931 . S
H2963 C2978 0.930 . S
C2964 H2952 0.930 . S
C2964 C2965 1.399 . S
C2964 C2969 1.399 . S
C2965 C2964 1.399 . S
C2965 C2966 1.376 . S
C2966 H2953 0.930 . S
C2966 C2965 1.376 . S
C2966 C2967 1.388 . S
C2967 H2954 0.930 . S
C2967 C2966 1.388 . S
C2967 C2968 1.390 . S
C2968 C2967 1.390 . S
C2968 C2969 1.394 . S
C2968 C2974 1.465 . S
C2969 C2964 1.399 . S
C2969 C2968 1.394 . S
C2969 C2970 1.516 . S
C2970 C2969 1.516 . S
C2970 C2971 1.502 . S
C2970 C2972 1.561 . S
C2970 C2973 1.526 . S
C2971 H2955 0.959 . S
C2971 H2956 0.959 . S
C2971 H2957 0.961 . S
C2971 C2970 1.502 . S
C2972 H2958 0.960 . S
C2972 H2959 0.961 . S
C2972 H2960 0.959 . S
C2972 C2970 1.561 . S
C2973 C2970 1.526 . S
C2973 C2974 1.396 . S
C2973 C2978 1.390 . S
C2974 C2968 1.465 . S
C2974 C2973 1.396 . S
C2974 C2975 1.399 . S
C2975 H2961 0.929 . S
C2975 C2974 1.399 . S
C2975 C2976 1.385 . S
C2976 H2962 0.931 . S
C2976 C2975 1.385 . S
C2976 C2977 1.389 . S
C2977 C2976 1.389 . S
C2977 C2978 1.387 . S
C2978 H2963 0.930 . S
C2978 C2973 1.390 . S
C2978 C2977 1.387 . S
H2979 C2991 0.930 . S
H2980 C2993 0.930 . S
H2981 C2994 0.930 . S
H2982 C2998 0.959 . S
H2983 C2998 0.959 . S
H2984 C2998 0.961 . S
H2985 C2999 0.960 . S
H2986 C2999 0.961 . S
H2987 C2999 0.959 . S
H2988 C3002 0.929 . S
H2989 C3003 0.931 . S
H2990 C3005 0.930 . S
C2991 H2979 0.930 . S
C2991 C2992 1.399 . S
C2991 C2996 1.399 . S
C2992 C2991 1.399 . S
C2992 C2993 1.376 . S
C2993 H2980 0.930 . S
C2993 C2992 1.376 . S
C2993 C2994 1.388 . S
C2994 H2981 0.930 . S
C2994 C2993 1.388 . S
C2994 C2995 1.390 . S
C2995 C2994 1.390 . S
C2995 C2996 1.394 . S
C2995 C3001 1.465 . S
C2996 C2991 1.399 . S
C2996 C2995 1.394 . S
C2996 C2997 1.516 . S
C2997 C2996 1.516 . S
C2997 C2998 1.502 . S
C2997 C2999 1.561 . S
C2997 C3000 1.526 . S
C2998 H2982 0.959 . S
C2998 H2983 0.959 . S
C2998 H2984 0.961 . S
C2998 C2997 1.502 . S
C2999 H2985 0.960 . S
C2999 H2986 0.961 . S
C2999 H2987 0.959 . S
C2999 C2997 1.561 . S
C3000 C2997 1.526 . S
C3000 C3001 1.396 . S
C3000 C3005 1.390 . S
C3001 C2995 1.465 . S
C3001 C3000 1.396 . S
C3001 C3002 1.399 . S
C3002 H2988 0.929 . S
C3002 C3001 1.399 . S
C3002 C3003 1.385 . S
C3003 H2989 0.931 . S
C3003 C3002 1.385 . S
C3003 C3004 1.389 . S
C3004 C3003 1.389 . S
C3004 C3005 1.387 . S
C3005 H2990 0.930 . S
C3005 C3000 1.390 . S
C3005 C3004 1.387 . S
H3006 C3018 0.930 . S
H3007 C3020 0.930 . S
H3008 C3021 0.930 . S
H3009 C3025 0.959 . S
H3010 C3025 0.959 . S
H3011 C3025 0.961 . S
H3012 C3026 0.960 . S
H3013 C3026 0.961 . S
H3014 C3026 0.959 . S
H3015 C3029 0.929 . S
H3016 C3030 0.931 . S
H3017 C3032 0.930 . S
C3018 H3006 0.930 . S
C3018 C3019 1.399 . S
C3018 C3023 1.399 . S
C3019 C3018 1.399 . S
C3019 C3020 1.376 . S
C3020 H3007 0.930 . S
C3020 C3019 1.376 . S
C3020 C3021 1.388 . S
C3021 H3008 0.930 . S
C3021 C3020 1.388 . S
C3021 C3022 1.390 . S
C3022 C3021 1.390 . S
C3022 C3023 1.394 . S
C3022 C3028 1.465 1_455 S
C3023 C3018 1.399 . S
C3023 C3022 1.394 . S
C3023 C3024 1.516 1_455 S
C3024 C3023 1.516 1_655 S
C3024 C3025 1.502 . S
C3024 C3026 1.561 . S
C3024 C3027 1.526 . S
C3025 H3009 0.959 . S
C3025 H3010 0.959 . S
C3025 H3011 0.961 . S
C3025 C3024 1.502 . S
C3026 H3012 0.960 . S
C3026 H3013 0.961 . S
C3026 H3014 0.959 . S
C3026 C3024 1.561 . S
C3027 C3024 1.526 . S
C3027 C3028 1.396 . S
C3027 C3032 1.390 . S
C3028 C3022 1.465 1_655 S
C3028 C3027 1.396 . S
C3028 C3029 1.399 . S
C3029 H3015 0.929 . S
C3029 C3028 1.399 . S
C3029 C3030 1.385 . S
C3030 H3016 0.931 . S
C3030 C3029 1.385 . S
C3030 C3031 1.389 . S
C3031 C3030 1.389 . S
C3031 C3032 1.387 . S
C3032 H3017 0.930 . S
C3032 C3027 1.390 . S
C3032 C3031 1.387 . S
H3033 C3045 0.930 . S
H3034 C3047 0.930 . S
H3035 C3048 0.930 . S
H3036 C3052 0.959 . S
H3037 C3052 0.959 . S
H3038 C3052 0.961 . S
H3039 C3053 0.960 . S
H3040 C3053 0.961 . S
H3041 C3053 0.959 . S
H3042 C3056 0.929 . S
H3043 C3057 0.931 . S
H3044 C3059 0.930 . S
C3045 H3033 0.930 . S
C3045 C3046 1.399 . S
C3045 C3050 1.399 . S
C3046 C3045 1.399 . S
C3046 C3047 1.376 . S
C3047 H3034 0.930 . S
C3047 C3046 1.376 . S
C3047 C3048 1.388 . S
C3048 H3035 0.930 . S
C3048 C3047 1.388 . S
C3048 C3049 1.390 . S
C3049 C3048 1.390 . S
C3049 C3050 1.394 . S
C3049 C3055 1.465 . S
C3050 C3045 1.399 . S
C3050 C3049 1.394 . S
C3050 C3051 1.516 . S
C3051 C3050 1.516 . S
C3051 C3052 1.502 . S
C3051 C3053 1.561 . S
C3051 C3054 1.526 . S
C3052 H3036 0.959 . S
C3052 H3037 0.959 . S
C3052 H3038 0.961 . S
C3052 C3051 1.502 . S
C3053 H3039 0.960 . S
C3053 H3040 0.961 . S
C3053 H3041 0.959 . S
C3053 C3051 1.561 . S
C3054 C3051 1.526 . S
C3054 C3055 1.396 . S
C3054 C3059 1.390 . S
C3055 C3049 1.465 . S
C3055 C3054 1.396 . S
C3055 C3056 1.399 . S
C3056 H3042 0.929 . S
C3056 C3055 1.399 . S
C3056 C3057 1.385 . S
C3057 H3043 0.931 . S
C3057 C3056 1.385 . S
C3057 C3058 1.389 . S
C3058 C3057 1.389 . S
C3058 C3059 1.387 . S
C3059 H3044 0.930 . S
C3059 C3054 1.390 . S
C3059 C3058 1.387 . S
H3060 C3072 0.930 . S
H3061 C3074 0.930 . S
H3062 C3075 0.930 . S
H3063 C3079 0.959 . S
H3064 C3079 0.959 . S
H3065 C3079 0.961 . S
H3066 C3080 0.960 . S
H3067 C3080 0.961 . S
H3068 C3080 0.959 . S
H3069 C3083 0.929 . S
H3070 C3084 0.931 . S
H3071 C3086 0.930 . S
C3072 H3060 0.930 . S
C3072 C3073 1.399 . S
C3072 C3077 1.399 . S
C3073 C3072 1.399 . S
C3073 C3074 1.376 . S
C3074 H3061 0.930 . S
C3074 C3073 1.376 . S
C3074 C3075 1.388 . S
C3075 H3062 0.930 . S
C3075 C3074 1.388 . S
C3075 C3076 1.390 . S
C3076 C3075 1.390 . S
C3076 C3077 1.394 . S
C3076 C3082 1.465 1_565 S
C3077 C3072 1.399 . S
C3077 C3076 1.394 . S
C3077 C3078 1.516 1_565 S
C3078 C3077 1.516 1_545 S
C3078 C3079 1.502 . S
C3078 C3080 1.561 . S
C3078 C3081 1.526 . S
C3079 H3063 0.959 . S
C3079 H3064 0.959 . S
C3079 H3065 0.961 . S
C3079 C3078 1.502 . S
C3080 H3066 0.960 . S
C3080 H3067 0.961 . S
C3080 H3068 0.959 . S
C3080 C3078 1.561 . S
C3081 C3078 1.526 . S
C3081 C3082 1.396 . S
C3081 C3086 1.390 . S
C3082 C3076 1.465 1_545 S
C3082 C3081 1.396 . S
C3082 C3083 1.399 . S
C3083 H3069 0.929 . S
C3083 C3082 1.399 . S
C3083 C3084 1.385 . S
C3084 H3070 0.931 . S
C3084 C3083 1.385 . S
C3084 C3085 1.389 . S
C3085 C3084 1.389 . S
C3085 C3086 1.387 . S
C3086 H3071 0.930 . S
C3086 C3081 1.390 . S
C3086 C3085 1.387 . S
H3087 C3099 0.930 . S
H3088 C3101 0.930 . S
H3089 C3102 0.930 . S
H3090 C3106 0.959 . S
H3091 C3106 0.959 . S
H3092 C3106 0.961 . S
H3093 C3107 0.960 . S
H3094 C3107 0.961 . S
H3095 C3107 0.959 . S
H3096 C3110 0.929 . S
H3097 C3111 0.931 . S
H3098 C3113 0.930 . S
C3099 H3087 0.930 . S
C3099 C3100 1.399 . S
C3099 C3104 1.399 . S
C3100 C3099 1.399 . S
C3100 C3101 1.376 . S
C3101 H3088 0.930 . S
C3101 C3100 1.376 . S
C3101 C3102 1.388 . S
C3102 H3089 0.930 . S
C3102 C3101 1.388 . S
C3102 C3103 1.390 . S
C3103 C3102 1.390 . S
C3103 C3104 1.394 . S
C3103 C3109 1.465 1_545 S
C3104 C3099 1.399 . S
C3104 C3103 1.394 . S
C3104 C3105 1.516 . S
C3105 C3104 1.516 . S
C3105 C3106 1.502 . S
C3105 C3107 1.561 . S
C3105 C3108 1.526 1_545 S
C3106 H3090 0.959 . S
C3106 H3091 0.959 . S
C3106 H3092 0.961 . S
C3106 C3105 1.502 . S
C3107 H3093 0.960 . S
C3107 H3094 0.961 . S
C3107 H3095 0.959 . S
C3107 C3105 1.561 . S
C3108 C3105 1.526 1_565 S
C3108 C3109 1.396 . S
C3108 C3113 1.390 . S
C3109 C3103 1.465 1_565 S
C3109 C3108 1.396 . S
C3109 C3110 1.399 . S
C3110 H3096 0.929 . S
C3110 C3109 1.399 . S
C3110 C3111 1.385 . S
C3111 H3097 0.931 . S
C3111 C3110 1.385 . S
C3111 C3112 1.389 . S
C3112 C3111 1.389 . S
C3112 C3113 1.387 . S
C3113 H3098 0.930 . S
C3113 C3108 1.390 . S
C3113 C3112 1.387 . S
H3114 C3126 0.930 . S
H3115 C3128 0.930 . S
H3116 C3129 0.930 . S
H3117 C3133 0.959 . S
H3118 C3133 0.959 . S
H3119 C3133 0.961 . S
H3120 C3134 0.960 . S
H3121 C3134 0.963 . S
H3122 C3134 0.964 . S
H3123 C3137 0.929 . S
H3124 C3138 0.931 . S
H3125 C3140 0.930 . S
C3126 H3114 0.930 . S
C3126 C3127 1.399 . S
C3126 C3131 1.399 . S
C3127 C3126 1.399 . S
C3127 C3128 1.376 . S
C3128 H3115 0.930 . S
C3128 C3127 1.376 . S
C3128 C3129 1.388 . S
C3129 H3116 0.930 . S
C3129 C3128 1.388 . S
C3129 C3130 1.390 . S
C3130 C3129 1.390 . S
C3130 C3131 1.394 . S
C3130 C3136 1.465 1_655 S
C3131 C3126 1.399 . S
C3131 C3130 1.394 . S
C3131 C3132 1.516 . S
C3132 C3131 1.516 . S
C3132 C3133 1.502 . S
C3132 C3134 1.561 . S
C3132 C3135 1.526 1_655 S
C3133 H3117 0.959 . S
C3133 H3118 0.959 . S
C3133 H3119 0.961 . S
C3133 C3132 1.502 . S
C3134 H3120 0.960 . S
C3134 H3121 0.963 . S
C3134 H3122 0.964 . S
C3134 C3132 1.561 . S
C3135 C3132 1.526 1_455 S
C3135 C3136 1.396 . S
C3135 C3140 1.390 . S
C3136 C3130 1.465 1_455 S
C3136 C3135 1.396 . S
C3136 C3137 1.399 . S
C3137 H3123 0.929 . S
C3137 C3136 1.399 . S
C3137 C3138 1.385 . S
C3138 H3124 0.931 . S
C3138 C3137 1.385 . S
C3138 C3139 1.389 . S
C3139 C3138 1.389 . S
C3139 C3140 1.387 . S
C3140 H3125 0.930 . S
C3140 C3135 1.390 . S
C3140 C3139 1.387 . S
H3141 C3153 0.930 . S
H3142 C3155 0.930 . S
H3143 C3156 0.930 . S
H3144 C3160 0.959 . S
H3145 C3160 0.959 . S
H3146 C3160 0.961 . S
H3147 C3161 0.960 . S
H3148 C3161 0.961 . S
H3149 C3161 0.959 . S
H3150 C3164 0.929 . S
H3151 C3165 0.931 . S
H3152 C3167 0.930 . S
C3153 H3141 0.930 . S
C3153 C3154 1.399 . S
C3153 C3158 1.399 . S
C3154 C3153 1.399 . S
C3154 C3155 1.376 . S
C3155 H3142 0.930 . S
C3155 C3154 1.376 . S
C3155 C3156 1.388 . S
C3156 H3143 0.930 . S
C3156 C3155 1.388 . S
C3156 C3157 1.390 . S
C3157 C3156 1.390 . S
C3157 C3158 1.394 . S
C3157 C3163 1.465 . S
C3158 C3153 1.399 . S
C3158 C3157 1.394 . S
C3158 C3159 1.516 . S
C3159 C3158 1.516 . S
C3159 C3160 1.502 . S
C3159 C3161 1.561 . S
C3159 C3162 1.526 . S
C3160 H3144 0.959 . S
C3160 H3145 0.959 . S
C3160 H3146 0.961 . S
C3160 C3159 1.502 . S
C3161 H3147 0.960 . S
C3161 H3148 0.961 . S
C3161 H3149 0.959 . S
C3161 C3159 1.561 . S
C3162 C3159 1.526 . S
C3162 C3163 1.396 . S
C3162 C3167 1.390 . S
C3163 C3157 1.465 . S
C3163 C3162 1.396 . S
C3163 C3164 1.399 . S
C3164 H3150 0.929 . S
C3164 C3163 1.399 . S
C3164 C3165 1.385 . S
C3165 H3151 0.931 . S
C3165 C3164 1.385 . S
C3165 C3166 1.389 . S
C3166 C3165 1.389 . S
C3166 C3167 1.387 . S
C3167 H3152 0.930 . S
C3167 C3162 1.390 . S
C3167 C3166 1.387 . S
H3168 C3180 0.930 . S
H3169 C3182 0.930 . S
H3170 C3183 0.930 . S
H3171 C3187 0.959 . S
H3172 C3187 0.959 . S
H3173 C3187 0.961 . S
H3174 C3188 0.960 . S
H3175 C3188 0.961 . S
H3176 C3188 0.959 . S
H3177 C3191 0.929 . S
H3178 C3192 0.931 . S
H3179 C3194 0.930 . S
C3180 H3168 0.930 . S
C3180 C3181 1.399 . S
C3180 C3185 1.399 . S
C3181 C3180 1.399 . S
C3181 C3182 1.376 . S
C3182 H3169 0.930 . S
C3182 C3181 1.376 . S
C3182 C3183 1.388 . S
C3183 H3170 0.930 . S
C3183 C3182 1.388 . S
C3183 C3184 1.390 . S
C3184 C3183 1.390 . S
C3184 C3185 1.394 . S
C3184 C3190 1.465 . S
C3185 C3180 1.399 . S
C3185 C3184 1.394 . S
C3185 C3186 1.516 . S
C3186 C3185 1.516 . S
C3186 C3187 1.502 . S
C3186 C3188 1.561 . S
C3186 C3189 1.526 . S
C3187 H3171 0.959 . S
C3187 H3172 0.959 . S
C3187 H3173 0.961 . S
C3187 C3186 1.502 . S
C3188 H3174 0.960 . S
C3188 H3175 0.961 . S
C3188 H3176 0.959 . S
C3188 C3186 1.561 . S
C3189 C3186 1.526 . S
C3189 C3190 1.396 . S
C3189 C3194 1.390 . S
C3190 C3184 1.465 . S
C3190 C3189 1.396 . S
C3190 C3191 1.399 . S
C3191 H3177 0.929 . S
C3191 C3190 1.399 . S
C3191 C3192 1.385 . S
C3192 H3178 0.931 . S
C3192 C3191 1.385 . S
C3192 C3193 1.389 . S
C3193 C3192 1.389 . S
C3193 C3194 1.387 . S
C3194 H3179 0.930 . S
C3194 C3189 1.390 . S
C3194 C3193 1.387 . S
H3195 C3207 0.930 . S
H3196 C3209 0.930 . S
H3197 C3210 0.930 . S
H3198 C3214 0.959 . S
H3199 C3214 0.959 . S
H3200 C3214 0.961 . S
H3201 C3215 0.960 . S
H3202 C3215 0.961 . S
H3203 C3215 0.959 . S
H3204 C3218 0.929 . S
H3205 C3219 0.931 . S
H3206 C3221 0.930 . S
C3207 H3195 0.930 . S
C3207 C3208 1.399 . S
C3207 C3212 1.399 . S
C3208 C3207 1.399 . S
C3208 C3209 1.376 . S
C3209 H3196 0.930 . S
C3209 C3208 1.376 . S
C3209 C3210 1.388 . S
C3210 H3197 0.930 . S
C3210 C3209 1.388 . S
C3210 C3211 1.390 . S
C3211 C3210 1.390 . S
C3211 C3212 1.394 . S
C3211 C3217 1.465 . S
C3212 C3207 1.399 . S
C3212 C3211 1.394 . S
C3212 C3213 1.516 . S
C3213 C3212 1.516 . S
C3213 C3214 1.502 . S
C3213 C3215 1.561 . S
C3213 C3216 1.526 . S
C3214 H3198 0.959 . S
C3214 H3199 0.959 . S
C3214 H3200 0.961 . S
C3214 C3213 1.502 . S
C3215 H3201 0.960 . S
C3215 H3202 0.961 . S
C3215 H3203 0.959 . S
C3215 C3213 1.561 . S
C3216 C3213 1.526 . S
C3216 C3217 1.396 . S
C3216 C3221 1.390 . S
C3217 C3211 1.465 . S
C3217 C3216 1.396 . S
C3217 C3218 1.399 . S
C3218 H3204 0.929 . S
C3218 C3217 1.399 . S
C3218 C3219 1.385 . S
C3219 H3205 0.931 . S
C3219 C3218 1.385 . S
C3219 C3220 1.389 . S
C3220 C3219 1.389 . S
C3220 C3221 1.387 . S
C3221 H3206 0.930 . S
C3221 C3216 1.390 . S
C3221 C3220 1.387 . S
H3222 C3234 0.930 . S
H3223 C3236 0.930 . S
H3224 C3237 0.930 . S
H3225 C3241 0.959 . S
H3226 C3241 0.959 . S
H3227 C3241 0.961 . S
H3228 C3242 0.960 . S
H3229 C3242 0.961 . S
H3230 C3242 0.959 . S
H3231 C3245 0.929 . S
H3232 C3246 0.931 . S
H3233 C3248 0.930 . S
C3234 H3222 0.930 . S
C3234 C3235 1.399 . S
C3234 C3239 1.399 . S
C3235 C3234 1.399 . S
C3235 C3236 1.376 . S
C3236 H3223 0.930 . S
C3236 C3235 1.376 . S
C3236 C3237 1.388 . S
C3237 H3224 0.930 . S
C3237 C3236 1.388 . S
C3237 C3238 1.390 . S
C3238 C3237 1.390 . S
C3238 C3239 1.394 . S
C3238 C3244 1.465 . S
C3239 C3234 1.399 . S
C3239 C3238 1.394 . S
C3239 C3240 1.516 . S
C3240 C3239 1.516 . S
C3240 C3241 1.502 . S
C3240 C3242 1.561 . S
C3240 C3243 1.526 . S
C3241 H3225 0.959 . S
C3241 H3226 0.959 . S
C3241 H3227 0.961 . S
C3241 C3240 1.502 . S
C3242 H3228 0.960 . S
C3242 H3229 0.961 . S
C3242 H3230 0.959 . S
C3242 C3240 1.561 . S
C3243 C3240 1.526 . S
C3243 C3244 1.396 . S
C3243 C3248 1.390 . S
C3244 C3238 1.465 . S
C3244 C3243 1.396 . S
C3244 C3245 1.399 . S
C3245 H3231 0.929 . S
C3245 C3244 1.399 . S
C3245 C3246 1.385 . S
C3246 H3232 0.931 . S
C3246 C3245 1.385 . S
C3246 C3247 1.389 . S
C3247 C3246 1.389 . S
C3247 C3248 1.387 . S
C3248 H3233 0.930 . S
C3248 C3243 1.390 . S
C3248 C3247 1.387 . S
H3249 C3261 0.930 . S
H3250 C3263 0.930 . S
H3251 C3264 0.930 . S
H3252 C3268 0.959 . S
H3253 C3268 0.959 . S
H3254 C3268 0.961 . S
H3255 C3269 0.960 . S
H3256 C3269 0.961 . S
H3257 C3269 0.959 . S
H3258 C3272 0.929 . S
H3259 C3273 0.931 . S
H3260 C3275 0.930 . S
C3261 H3249 0.930 . S
C3261 C3262 1.399 . S
C3261 C3266 1.399 . S
C3262 C3261 1.399 . S
C3262 C3263 1.376 . S
C3263 H3250 0.930 . S
C3263 C3262 1.376 . S
C3263 C3264 1.388 . S
C3264 H3251 0.930 . S
C3264 C3263 1.388 . S
C3264 C3265 1.390 . S
C3265 C3264 1.390 . S
C3265 C3266 1.394 . S
C3265 C3271 1.465 . S
C3266 C3261 1.399 . S
C3266 C3265 1.394 . S
C3266 C3267 1.516 . S
C3267 C3266 1.516 . S
C3267 C3268 1.502 . S
C3267 C3269 1.561 . S
C3267 C3270 1.526 . S
C3268 H3252 0.959 . S
C3268 H3253 0.959 . S
C3268 H3254 0.961 . S
C3268 C3267 1.502 . S
C3269 H3255 0.960 . S
C3269 H3256 0.961 . S
C3269 H3257 0.959 . S
C3269 C3267 1.561 . S
C3270 C3267 1.526 . S
C3270 C3271 1.396 . S
C3270 C3275 1.390 . S
C3271 C3265 1.465 . S
C3271 C3270 1.396 . S
C3271 C3272 1.399 . S
C3272 H3258 0.929 . S
C3272 C3271 1.399 . S
C3272 C3273 1.385 . S
C3273 H3259 0.931 . S
C3273 C3272 1.385 . S
C3273 C3274 1.389 . S
C3274 C3273 1.389 . S
C3274 C3275 1.387 . S
C3275 H3260 0.930 . S
C3275 C3270 1.390 . S
C3275 C3274 1.387 . S
H3276 C3288 0.930 . S
H3277 C3290 0.930 . S
H3278 C3291 0.930 . S
H3279 C3295 0.959 . S
H3280 C3295 0.959 . S
H3281 C3295 0.961 . S
H3282 C3296 0.960 . S
H3283 C3296 0.961 . S
H3284 C3296 0.959 . S
H3285 C3299 0.929 . S
H3286 C3300 0.931 . S
H3287 C3302 0.930 . S
C3288 H3276 0.930 . S
C3288 C3289 1.399 . S
C3288 C3293 1.399 . S
C3289 C3288 1.399 . S
C3289 C3290 1.376 . S
C3290 H3277 0.930 . S
C3290 C3289 1.376 . S
C3290 C3291 1.388 . S
C3291 H3278 0.930 . S
C3291 C3290 1.388 . S
C3291 C3292 1.390 . S
C3292 C3291 1.390 . S
C3292 C3293 1.394 . S
C3292 C3298 1.465 . S
C3293 C3288 1.399 . S
C3293 C3292 1.394 . S
C3293 C3294 1.516 . S
C3294 C3293 1.516 . S
C3294 C3295 1.502 . S
C3294 C3296 1.561 . S
C3294 C3297 1.526 . S
C3295 H3279 0.959 . S
C3295 H3280 0.959 . S
C3295 H3281 0.961 . S
C3295 C3294 1.502 . S
C3296 H3282 0.960 . S
C3296 H3283 0.961 . S
C3296 H3284 0.959 . S
C3296 C3294 1.561 . S
C3297 C3294 1.526 . S
C3297 C3298 1.396 . S
C3297 C3302 1.390 . S
C3298 C3292 1.465 . S
C3298 C3297 1.396 . S
C3298 C3299 1.399 . S
C3299 H3285 0.929 . S
C3299 C3298 1.399 . S
C3299 C3300 1.385 . S
C3300 H3286 0.931 . S
C3300 C3299 1.385 . S
C3300 C3301 1.389 . S
C3301 C3300 1.389 . S
C3301 C3302 1.387 . S
C3302 H3287 0.930 . S
C3302 C3297 1.390 . S
C3302 C3301 1.387 . S
H3303 C3315 0.930 . S
H3304 C3317 0.930 . S
H3305 C3318 0.930 . S
H3306 C3322 0.959 . S
H3307 C3322 0.959 . S
H3308 C3322 0.961 . S
H3309 C3323 0.960 . S
H3310 C3323 0.961 . S
H3311 C3323 0.959 . S
H3312 C3326 0.929 . S
H3313 C3327 0.931 . S
H3314 C3329 0.930 . S
C3315 H3303 0.930 . S
C3315 C3316 1.399 . S
C3315 C3320 1.399 . S
C3316 C3315 1.399 . S
C3316 C3317 1.376 . S
C3317 H3304 0.930 . S
C3317 C3316 1.376 . S
C3317 C3318 1.388 . S
C3318 H3305 0.930 . S
C3318 C3317 1.388 . S
C3318 C3319 1.390 . S
C3319 C3318 1.390 . S
C3319 C3320 1.394 . S
C3319 C3325 1.465 . S
C3320 C3315 1.399 . S
C3320 C3319 1.394 . S
C3320 C3321 1.516 . S
C3321 C3320 1.516 . S
C3321 C3322 1.502 . S
C3321 C3323 1.561 . S
C3321 C3324 1.526 . S
C3322 H3306 0.959 . S
C3322 H3307 0.959 . S
C3322 H3308 0.961 . S
C3322 C3321 1.502 . S
C3323 H3309 0.960 . S
C3323 H3310 0.961 . S
C3323 H3311 0.959 . S
C3323 C3321 1.561 . S
C3324 C3321 1.526 . S
C3324 C3325 1.396 . S
C3324 C3329 1.390 . S
C3325 C3319 1.465 . S
C3325 C3324 1.396 . S
C3325 C3326 1.399 . S
C3326 H3312 0.929 . S
C3326 C3325 1.399 . S
C3326 C3327 1.385 . S
C3327 H3313 0.931 . S
C3327 C3326 1.385 . S
C3327 C3328 1.389 . S
C3328 C3327 1.389 . S
C3328 C3329 1.387 . S
C3329 H3314 0.930 . S
C3329 C3324 1.390 . S
C3329 C3328 1.387 . S
H3330 C3342 0.930 . S
H3331 C3344 0.930 . S
H3332 C3345 0.930 . S
H3333 C3349 0.959 . S
H3334 C3349 0.959 . S
H3335 C3349 0.961 . S
H3336 C3350 0.960 . S
H3337 C3350 0.961 . S
H3338 C3350 0.959 . S
H3339 C3353 0.929 . S
H3340 C3354 0.931 . S
H3341 C3356 0.930 . S
C3342 H3330 0.930 . S
C3342 C3343 1.399 . S
C3342 C3347 1.399 . S
C3343 C3342 1.399 . S
C3343 C3344 1.376 . S
C3344 H3331 0.930 . S
C3344 C3343 1.376 . S
C3344 C3345 1.388 . S
C3345 H3332 0.930 . S
C3345 C3344 1.388 . S
C3345 C3346 1.390 . S
C3346 C3345 1.390 . S
C3346 C3347 1.394 . S
C3346 C3352 1.465 . S
C3347 C3342 1.399 . S
C3347 C3346 1.394 . S
C3347 C3348 1.516 . S
C3348 C3347 1.516 . S
C3348 C3349 1.502 . S
C3348 C3350 1.561 . S
C3348 C3351 1.526 . S
C3349 H3333 0.959 . S
C3349 H3334 0.959 . S
C3349 H3335 0.961 . S
C3349 C3348 1.502 . S
C3350 H3336 0.960 . S
C3350 H3337 0.961 . S
C3350 H3338 0.959 . S
C3350 C3348 1.561 . S
C3351 C3348 1.526 . S
C3351 C3352 1.396 . S
C3351 C3356 1.390 . S
C3352 C3346 1.465 . S
C3352 C3351 1.396 . S
C3352 C3353 1.399 . S
C3353 H3339 0.929 . S
C3353 C3352 1.399 . S
C3353 C3354 1.385 . S
C3354 H3340 0.931 . S
C3354 C3353 1.385 . S
C3354 C3355 1.389 . S
C3355 C3354 1.389 . S
C3355 C3356 1.387 . S
C3356 H3341 0.930 . S
C3356 C3351 1.390 . S
C3356 C3355 1.387 . S
H3357 C3369 0.930 . S
H3358 C3371 0.930 . S
H3359 C3372 0.930 . S
H3360 C3376 0.959 . S
H3361 C3376 0.959 . S
H3362 C3376 0.961 . S
H3363 C3377 0.960 . S
H3364 C3377 0.961 . S
H3365 C3377 0.959 . S
H3366 C3380 0.929 . S
H3367 C3381 0.931 . S
H3368 C3383 0.930 . S
C3369 H3357 0.930 . S
C3369 C3370 1.399 . S
C3369 C3374 1.399 . S
C3370 C3369 1.399 . S
C3370 C3371 1.376 . S
C3371 H3358 0.930 . S
C3371 C3370 1.376 . S
C3371 C3372 1.388 . S
C3372 H3359 0.930 . S
C3372 C3371 1.388 . S
C3372 C3373 1.390 . S
C3373 C3372 1.390 . S
C3373 C3374 1.394 . S
C3373 C3379 1.465 . S
C3374 C3369 1.399 . S
C3374 C3373 1.394 . S
C3374 C3375 1.516 . S
C3375 C3374 1.516 . S
C3375 C3376 1.502 . S
C3375 C3377 1.561 . S
C3375 C3378 1.526 . S
C3376 H3360 0.959 . S
C3376 H3361 0.959 . S
C3376 H3362 0.961 . S
C3376 C3375 1.502 . S
C3377 H3363 0.960 . S
C3377 H3364 0.961 . S
C3377 H3365 0.959 . S
C3377 C3375 1.561 . S
C3378 C3375 1.526 . S
C3378 C3379 1.396 . S
C3378 C3383 1.390 . S
C3379 C3373 1.465 . S
C3379 C3378 1.396 . S
C3379 C3380 1.399 . S
C3380 H3366 0.929 . S
C3380 C3379 1.399 . S
C3380 C3381 1.385 . S
C3381 H3367 0.931 . S
C3381 C3380 1.385 . S
C3381 C3382 1.389 . S
C3382 C3381 1.389 . S
C3382 C3383 1.387 . S
C3383 H3368 0.930 . S
C3383 C3378 1.390 . S
C3383 C3382 1.387 . S
H3384 C3396 0.930 . S
H3385 C3398 0.930 . S
H3386 C3399 0.930 . S
H3387 C3403 0.959 . S
H3388 C3403 0.959 . S
H3389 C3403 0.961 . S
H3390 C3404 0.960 . S
H3391 C3404 0.961 . S
H3392 C3404 0.959 . S
H3393 C3407 0.929 . S
H3394 C3408 0.931 . S
H3395 C3410 0.930 . S
C3396 H3384 0.930 . S
C3396 C3397 1.399 . S
C3396 C3401 1.399 . S
C3397 C3396 1.399 . S
C3397 C3398 1.376 . S
C3398 H3385 0.930 . S
C3398 C3397 1.376 . S
C3398 C3399 1.388 . S
C3399 H3386 0.930 . S
C3399 C3398 1.388 . S
C3399 C3400 1.390 . S
C3400 C3399 1.390 . S
C3400 C3401 1.394 . S
C3400 C3406 1.465 . S
C3401 C3396 1.399 . S
C3401 C3400 1.394 . S
C3401 C3402 1.516 . S
C3402 C3401 1.516 . S
C3402 C3403 1.502 . S
C3402 C3404 1.561 . S
C3402 C3405 1.526 . S
C3403 H3387 0.959 . S
C3403 H3388 0.959 . S
C3403 H3389 0.961 . S
C3403 C3402 1.502 . S
C3404 H3390 0.960 . S
C3404 H3391 0.961 . S
C3404 H3392 0.959 . S
C3404 C3402 1.561 . S
C3405 C3402 1.526 . S
C3405 C3406 1.396 . S
C3405 C3410 1.390 . S
C3406 C3400 1.465 . S
C3406 C3405 1.396 . S
C3406 C3407 1.399 . S
C3407 H3393 0.929 . S
C3407 C3406 1.399 . S
C3407 C3408 1.385 . S
C3408 H3394 0.931 . S
C3408 C3407 1.385 . S
C3408 C3409 1.389 . S
C3409 C3408 1.389 . S
C3409 C3410 1.387 . S
C3410 H3395 0.930 . S
C3410 C3405 1.390 . S
C3410 C3409 1.387 . S
H3411 C3423 0.930 . S
H3412 C3425 0.930 . S
H3413 C3426 0.930 . S
H3414 C3430 0.959 . S
H3415 C3430 0.959 . S
H3416 C3430 0.961 . S
H3417 C3431 0.960 . S
H3418 C3431 0.961 . S
H3419 C3431 0.959 . S
H3420 C3434 0.929 . S
H3421 C3435 0.931 . S
H3422 C3437 0.930 . S
C3423 H3411 0.930 . S
C3423 C3424 1.399 . S
C3423 C3428 1.399 . S
C3424 C3423 1.399 . S
C3424 C3425 1.376 . S
C3425 H3412 0.930 . S
C3425 C3424 1.376 . S
C3425 C3426 1.388 . S
C3426 H3413 0.930 . S
C3426 C3425 1.388 . S
C3426 C3427 1.390 . S
C3427 C3426 1.390 . S
C3427 C3428 1.394 . S
C3427 C3433 1.465 . S
C3428 C3423 1.399 . S
C3428 C3427 1.394 . S
C3428 C3429 1.516 . S
C3429 C3428 1.516 . S
C3429 C3430 1.502 . S
C3429 C3431 1.561 . S
C3429 C3432 1.526 . S
C3430 H3414 0.959 . S
C3430 H3415 0.959 . S
C3430 H3416 0.961 . S
C3430 C3429 1.502 . S
C3431 H3417 0.960 . S
C3431 H3418 0.961 . S
C3431 H3419 0.959 . S
C3431 C3429 1.561 . S
C3432 C3429 1.526 . S
C3432 C3433 1.396 . S
C3432 C3437 1.390 . S
C3433 C3427 1.465 . S
C3433 C3432 1.396 . S
C3433 C3434 1.399 . S
C3434 H3420 0.929 . S
C3434 C3433 1.399 . S
C3434 C3435 1.385 . S
C3435 H3421 0.931 . S
C3435 C3434 1.385 . S
C3435 C3436 1.389 . S
C3436 C3435 1.389 . S
C3436 C3437 1.387 . S
C3437 H3422 0.930 . S
C3437 C3432 1.390 . S
C3437 C3436 1.387 . S
H3438 C3450 0.930 . S
H3439 C3452 0.930 . S
H3440 C3453 0.930 . S
H3441 C3457 0.959 . S
H3442 C3457 0.959 . S
H3443 C3457 0.961 . S
H3444 C3458 0.960 . S
H3445 C3458 0.961 . S
H3446 C3458 0.959 . S
H3447 C3461 0.929 . S
H3448 C3462 0.931 . S
H3449 C3464 0.930 . S
C3450 H3438 0.930 . S
C3450 C3451 1.399 . S
C3450 C3455 1.399 . S
C3451 C3450 1.399 . S
C3451 C3452 1.376 . S
C3452 H3439 0.930 . S
C3452 C3451 1.376 . S
C3452 C3453 1.388 . S
C3453 H3440 0.930 . S
C3453 C3452 1.388 . S
C3453 C3454 1.390 . S
C3454 C3453 1.390 . S
C3454 C3455 1.394 . S
C3454 C3460 1.465 . S
C3455 C3450 1.399 . S
C3455 C3454 1.394 . S
C3455 C3456 1.516 . S
C3456 C3455 1.516 . S
C3456 C3457 1.502 . S
C3456 C3458 1.561 . S
C3456 C3459 1.526 . S
C3457 H3441 0.959 . S
C3457 H3442 0.959 . S
C3457 H3443 0.961 . S
C3457 C3456 1.502 . S
C3458 H3444 0.960 . S
C3458 H3445 0.961 . S
C3458 H3446 0.959 . S
C3458 C3456 1.561 . S
C3459 C3456 1.526 . S
C3459 C3460 1.396 . S
C3459 C3464 1.390 . S
C3460 C3454 1.465 . S
C3460 C3459 1.396 . S
C3460 C3461 1.399 . S
C3461 H3447 0.929 . S
C3461 C3460 1.399 . S
C3461 C3462 1.385 . S
C3462 H3448 0.931 . S
C3462 C3461 1.385 . S
C3462 C3463 1.389 . S
C3463 C3462 1.389 . S
C3463 C3464 1.387 . S
C3464 H3449 0.930 . S
C3464 C3459 1.390 . S
C3464 C3463 1.387 . S
H3465 C3477 0.930 . S
H3466 C3479 0.930 . S
H3467 C3480 0.930 . S
H3468 C3484 0.959 . S
H3469 C3484 0.959 . S
H3470 C3484 0.961 . S
H3471 C3485 0.960 . S
H3472 C3485 0.961 . S
H3473 C3485 0.959 . S
H3474 C3488 0.929 . S
H3475 C3489 0.931 . S
H3476 C3491 0.930 . S
C3477 H3465 0.930 . S
C3477 C3478 1.399 . S
C3477 C3482 1.399 . S
C3478 C3477 1.399 . S
C3478 C3479 1.376 . S
C3479 H3466 0.930 . S
C3479 C3478 1.376 . S
C3479 C3480 1.388 . S
C3480 H3467 0.930 . S
C3480 C3479 1.388 . S
C3480 C3481 1.390 . S
C3481 C3480 1.390 . S
C3481 C3482 1.394 . S
C3481 C3487 1.465 . S
C3482 C3477 1.399 . S
C3482 C3481 1.394 . S
C3482 C3483 1.516 . S
C3483 C3482 1.516 . S
C3483 C3484 1.502 . S
C3483 C3485 1.561 . S
C3483 C3486 1.526 . S
C3484 H3468 0.959 . S
C3484 H3469 0.959 . S
C3484 H3470 0.961 . S
C3484 C3483 1.502 . S
C3485 H3471 0.960 . S
C3485 H3472 0.961 . S
C3485 H3473 0.959 . S
C3485 C3483 1.561 . S
C3486 C3483 1.526 . S
C3486 C3487 1.396 . S
C3486 C3491 1.390 . S
C3487 C3481 1.465 . S
C3487 C3486 1.396 . S
C3487 C3488 1.399 . S
C3488 H3474 0.929 . S
C3488 C3487 1.399 . S
C3488 C3489 1.385 . S
C3489 H3475 0.931 . S
C3489 C3488 1.385 . S
C3489 C3490 1.389 . S
C3490 C3489 1.389 . S
C3490 C3491 1.387 . S
C3491 H3476 0.930 . S
C3491 C3486 1.390 . S
C3491 C3490 1.387 . S
H3492 C3504 0.930 . S
H3493 C3506 0.930 . S
H3494 C3507 0.930 . S
H3495 C3511 0.959 . S
H3496 C3511 0.959 . S
H3497 C3511 0.961 . S
H3498 C3512 0.960 . S
H3499 C3512 0.961 . S
H3500 C3512 0.959 . S
H3501 C3515 0.929 . S
H3502 C3516 0.931 . S
H3503 C3518 0.930 . S
C3504 H3492 0.930 . S
C3504 C3505 1.399 . S
C3504 C3509 1.399 . S
C3505 C3504 1.399 . S
C3505 C3506 1.376 . S
C3506 H3493 0.930 . S
C3506 C3505 1.376 . S
C3506 C3507 1.388 . S
C3507 H3494 0.930 . S
C3507 C3506 1.388 . S
C3507 C3508 1.390 . S
C3508 C3507 1.390 . S
C3508 C3509 1.394 . S
C3508 C3514 1.465 . S
C3509 C3504 1.399 . S
C3509 C3508 1.394 . S
C3509 C3510 1.516 . S
C3510 C3509 1.516 . S
C3510 C3511 1.502 . S
C3510 C3512 1.561 . S
C3510 C3513 1.526 . S
C3511 H3495 0.959 . S
C3511 H3496 0.959 . S
C3511 H3497 0.961 . S
C3511 C3510 1.502 . S
C3512 H3498 0.960 . S
C3512 H3499 0.961 . S
C3512 H3500 0.959 . S
C3512 C3510 1.561 . S
C3513 C3510 1.526 . S
C3513 C3514 1.396 . S
C3513 C3518 1.390 . S
C3514 C3508 1.465 . S
C3514 C3513 1.396 . S
C3514 C3515 1.399 . S
C3515 H3501 0.929 . S
C3515 C3514 1.399 . S
C3515 C3516 1.385 . S
C3516 H3502 0.931 . S
C3516 C3515 1.385 . S
C3516 C3517 1.389 . S
C3517 C3516 1.389 . S
C3517 C3518 1.387 . S
C3518 H3503 0.930 . S
C3518 C3513 1.390 . S
C3518 C3517 1.387 . S
H3519 C3531 0.930 . S
H3520 C3533 0.930 . S
H3521 C3534 0.930 1_565 S
H3522 C3538 0.959 . S
H3523 C3538 0.959 . S
H3524 C3538 0.961 . S
H3525 C3539 0.980 . S
H3526 C3539 0.952 1_565 S
H3527 C3539 0.950 1_565 S
H3528 C3542 0.929 . S
H3529 C3543 0.931 . S
H3530 C3545 0.930 . S
C3531 H3519 0.930 . S
C3531 C3532 1.399 . S
C3531 C3536 1.399 . S
C3532 C3531 1.399 . S
C3532 C3533 1.376 . S
C3533 H3520 0.930 . S
C3533 C3532 1.376 . S
C3533 C3534 1.388 . S
C3534 H3521 0.930 1_545 S
C3534 C3533 1.388 . S
C3534 C3535 1.390 . S
C3535 C3534 1.390 . S
C3535 C3536 1.394 . S
C3535 C3541 1.465 1_545 S
C3536 C3531 1.399 . S
C3536 C3535 1.394 . S
C3536 C3537 1.516 . S
C3537 C3536 1.516 . S
C3537 C3538 1.502 . S
C3537 C3539 1.560 . S
C3537 C3540 1.526 1_545 S
C3538 H3522 0.959 . S
C3538 H3523 0.959 . S
C3538 H3524 0.961 . S
C3538 C3537 1.502 . S
C3539 H3525 0.980 . S
C3539 H3526 0.952 1_545 S
C3539 H3527 0.950 1_545 S
C3539 C3537 1.560 . S
C3540 C3537 1.526 1_565 S
C3540 C3541 1.396 . S
C3540 C3545 1.390 . S
C3541 C3535 1.465 1_565 S
C3541 C3540 1.396 . S
C3541 C3542 1.399 . S
C3542 H3528 0.929 . S
C3542 C3541 1.399 . S
C3542 C3543 1.385 . S
C3543 H3529 0.931 . S
C3543 C3542 1.385 . S
C3543 C3544 1.389 . S
C3544 C3543 1.389 . S
C3544 C3545 1.387 . S
C3545 H3530 0.930 . S
C3545 C3540 1.390 . S
C3545 C3544 1.387 . S
H3546 C3558 0.930 . S
H3547 C3560 0.930 . S
H3548 C3561 0.930 . S
H3549 C3565 0.959 . S
H3550 C3565 0.959 . S
H3551 C3565 0.961 1_655 S
H3552 C3566 0.960 . S
H3553 C3566 0.961 . S
H3554 C3566 0.959 . S
H3555 C3569 0.929 . S
H3556 C3570 0.931 . S
H3557 C3572 0.930 . S
C3558 H3546 0.930 . S
C3558 C3559 1.399 . S
C3558 C3563 1.399 . S
C3559 C3558 1.399 . S
C3559 C3560 1.376 . S
C3560 H3547 0.930 . S
C3560 C3559 1.376 . S
C3560 C3561 1.388 . S
C3561 H3548 0.930 . S
C3561 C3560 1.388 . S
C3561 C3562 1.390 . S
C3562 C3561 1.390 . S
C3562 C3563 1.394 . S
C3562 C3568 1.465 1_655 S
C3563 C3558 1.399 . S
C3563 C3562 1.394 . S
C3563 C3564 1.516 . S
C3564 C3563 1.516 . S
C3564 C3565 1.502 1_655 S
C3564 C3566 1.561 . S
C3564 C3567 1.526 1_655 S
C3565 H3549 0.959 . S
C3565 H3550 0.959 . S
C3565 H3551 0.961 1_455 S
C3565 C3564 1.502 1_455 S
C3566 H3552 0.960 . S
C3566 H3553 0.961 . S
C3566 H3554 0.959 . S
C3566 C3564 1.561 . S
C3567 C3564 1.526 1_455 S
C3567 C3568 1.396 . S
C3567 C3572 1.390 . S
C3568 C3562 1.465 1_455 S
C3568 C3567 1.396 . S
C3568 C3569 1.399 . S
C3569 H3555 0.929 . S
C3569 C3568 1.399 . S
C3569 C3570 1.385 . S
C3570 H3556 0.931 . S
C3570 C3569 1.385 . S
C3570 C3571 1.389 . S
C3571 C3570 1.389 . S
C3571 C3572 1.387 . S
C3572 H3557 0.930 . S
C3572 C3567 1.390 . S
C3572 C3571 1.387 . S
H3573 C3585 0.930 . S
H3574 C3587 0.930 . S
H3575 C3588 0.930 . S
H3576 C3592 0.959 . S
H3577 C3592 0.959 . S
H3578 C3592 0.961 . S
H3579 C3593 0.960 . S
H3580 C3593 0.961 . S
H3581 C3593 0.959 . S
H3582 C3596 0.929 . S
H3583 C3597 0.931 . S
H3584 C3599 0.930 . S
C3585 H3573 0.930 . S
C3585 C3586 1.399 . S
C3585 C3590 1.399 . S
C3586 C3585 1.399 . S
C3586 C3587 1.376 . S
C3587 H3574 0.930 . S
C3587 C3586 1.376 . S
C3587 C3588 1.388 . S
C3588 H3575 0.930 . S
C3588 C3587 1.388 . S
C3588 C3589 1.390 . S
C3589 C3588 1.390 . S
C3589 C3590 1.394 . S
C3589 C3595 1.465 1_556 S
C3590 C3585 1.399 . S
C3590 C3589 1.394 . S
C3590 C3591 1.516 1_556 S
C3591 C3590 1.516 1_554 S
C3591 C3592 1.502 1_554 S
C3591 C3593 1.561 . S
C3591 C3594 1.526 . S
C3592 H3576 0.959 . S
C3592 H3577 0.959 . S
C3592 H3578 0.961 . S
C3592 C3591 1.502 1_556 S
C3593 H3579 0.960 . S
C3593 H3580 0.961 . S
C3593 H3581 0.959 . S
C3593 C3591 1.561 . S
C3594 C3591 1.526 . S
C3594 C3595 1.396 . S
C3594 C3599 1.390 . S
C3595 C3589 1.465 1_554 S
C3595 C3594 1.396 . S
C3595 C3596 1.399 . S
C3596 H3582 0.929 . S
C3596 C3595 1.399 . S
C3596 C3597 1.385 . S
C3597 H3583 0.931 . S
C3597 C3596 1.385 . S
C3597 C3598 1.389 . S
C3598 C3597 1.389 . S
C3598 C3599 1.387 . S
C3599 H3584 0.930 . S
C3599 C3594 1.390 . S
C3599 C3598 1.387 . S
H3600 C3612 0.930 . S
H3601 C3614 0.930 . S
H3602 C3615 0.930 . S
H3603 C3619 0.959 . S
H3604 C3619 0.959 1_565 S
H3605 C3619 0.961 . S
H3606 C3620 0.960 . S
H3607 C3620 0.961 . S
H3608 C3620 0.959 . S
H3609 C3623 0.929 . S
H3610 C3624 0.931 . S
H3611 C3626 0.930 1_556 S
C3612 H3600 0.930 . S
C3612 C3613 1.399 . S
C3612 C3617 1.399 . S
C3613 C3612 1.399 . S
C3613 C3614 1.376 1_556 S
C3614 H3601 0.930 . S
C3614 C3613 1.376 1_554 S
C3614 C3615 1.388 . S
C3615 H3602 0.930 . S
C3615 C3614 1.388 . S
C3615 C3616 1.390 . S
C3616 C3615 1.390 . S
C3616 C3617 1.394 1_554 S
C3616 C3622 1.465 1_545 S
C3617 C3612 1.399 . S
C3617 C3616 1.394 1_556 S
C3617 C3618 1.516 1_545 S
C3618 C3617 1.516 1_565 S
C3618 C3619 1.502 1_565 S
C3618 C3620 1.561 . S
C3618 C3621 1.526 . S
C3619 H3603 0.959 . S
C3619 H3604 0.959 1_545 S
C3619 H3605 0.961 . S
C3619 C3618 1.502 1_545 S
C3620 H3606 0.960 . S
C3620 H3607 0.961 . S
C3620 H3608 0.959 . S
C3620 C3618 1.561 . S
C3621 C3618 1.526 . S
C3621 C3622 1.396 1_556 S
C3621 C3626 1.390 1_556 S
C3622 C3616 1.465 1_565 S
C3622 C3621 1.396 1_554 S
C3622 C3623 1.399 . S
C3623 H3609 0.929 . S
C3623 C3622 1.399 . S
C3623 C3624 1.385 . S
C3624 H3610 0.931 . S
C3624 C3623 1.385 . S
C3624 C3625 1.389 . S
C3625 C3624 1.389 . S
C3625 C3626 1.387 . S
C3626 H3611 0.930 1_554 S
C3626 C3621 1.390 1_554 S
C3626 C3625 1.387 . S
H3627 C3639 0.930 . S
H3628 C3641 0.930 . S
H3629 C3642 0.930 1_655 S
H3630 C3646 0.963 . S
H3631 C3646 0.959 . S
H3632 C3646 0.961 . S
H3633 C3647 0.959 1_554 S
H3634 C3647 0.961 . S
H3635 C3647 0.959 . S
H3636 C3650 0.929 . S
H3637 C3651 0.931 . S
H3638 C3653 0.930 . S
C3639 H3627 0.930 . S
C3639 C3640 1.399 . S
C3639 C3644 1.399 . S
C3640 C3639 1.399 . S
C3640 C3641 1.376 . S
C3641 H3628 0.930 . S
C3641 C3640 1.376 . S
C3641 C3642 1.388 1_554 S
C3642 H3629 0.930 1_455 S
C3642 C3641 1.388 1_556 S
C3642 C3643 1.390 . S
C3643 C3642 1.390 . S
C3643 C3644 1.394 1_556 S
C3643 C3649 1.465 1_455 S
C3644 C3639 1.399 . S
C3644 C3643 1.394 1_554 S
C3644 C3645 1.516 . S
C3645 C3644 1.516 . S
C3645 C3646 1.502 . S
C3645 C3647 1.561 1_554 S
C3645 C3648 1.526 1_454 S
C3646 H3630 0.963 . S
C3646 H3631 0.959 . S
C3646 H3632 0.961 . S
C3646 C3645 1.502 . S
C3647 H3633 0.959 1_556 S
C3647 H3634 0.961 . S
C3647 H3635 0.959 . S
C3647 C3645 1.561 1_556 S
C3648 C3645 1.526 1_656 S
C3648 C3649 1.396 . S
C3648 C3653 1.390 . S
C3649 C3643 1.465 1_655 S
C3649 C3648 1.396 . S
C3649 C3650 1.399 . S
C3650 H3636 0.929 . S
C3650 C3649 1.399 . S
C3650 C3651 1.385 . S
C3651 H3637 0.931 . S
C3651 C3650 1.385 . S
C3651 C3652 1.389 . S
C3652 C3651 1.389 . S
C3652 C3653 1.387 . S
C3653 H3638 0.930 . S
C3653 C3648 1.390 . S
C3653 C3652 1.387 . S
C1237 C9 1.269 . S
C1249 C70 1.398 . S
C1264 C43 1.319 . S
C1276 C2 1.391 . S
C1291 C77 1.330 . S
C1303 C36 1.381 . S
C1318 C111 1.303 . S
C1330 C138 1.391 . S
C1345 C145 1.222 . S
C1357 C172 1.399 . S
C1372 C179 1.299 . S
C1384 C104 1.398 . S
C1399 C274 1.390 . S
C1411 C213 1.264 . S
C1426 C206 1.396 . S
C1438 C247 1.332 . S
C1453 C240 1.401 . S
C1465 C281 1.275 . S
C1480 C342 1.399 . S
C1492 C315 1.319 . S
C1507 C349 1.307 . S
C1519 C376 1.380 . S
C1534 C308 1.392 . S
C1546 C383 1.262 . S
C1561 C417 1.263 . S
C1573 C478 1.393 . S
C1588 C410 1.381 . S
C1600 C451 1.328 . S
C1615 C485 1.228 . S
C1627 C444 1.399 . S
C1642 C519 1.306 . S
C1654 C546 1.391 . S
C1669 C553 1.204 . S
C1681 C580 1.408 . S
C1696 C587 1.197 . S
C1708 C512 1.408 . S
C1723 C682 1.399 . S
C1735 C621 1.305 . S
C1750 C655 1.216 . S
C1762 C614 1.408 . S
C1777 C648 1.409 . S
C1789 C689 1.223 . S
C1804 C723 1.305 . S
C1816 C750 1.382 . S
C1831 C757 1.316 . S
C1843 C784 1.381 . S
C1858 C791 1.207 . S
C1870 C716 1.398 . S
C1885 C825 1.276 . S
C1897 C886 1.397 . S
C1912 C818 1.407 . S
C1924 C859 1.207 . S
C1939 C852 1.400 . S
C1951 C893 1.233 . S
C1966 C954 1.405 . S
C1978 C927 1.223 . S
C1993 C988 1.397 . S
C2005 C961 1.262 . S
C2020 C920 1.398 . S
C2032 C995 1.237 . S
C2047 C1090 1.394 . S
C2059 C1029 1.314 . S
C2074 C1022 1.394 . S
C2086 C1063 1.220 . S
C2101 C1097 1.197 . S
C2113 C1056 1.404 . S
C2128 C1158 1.405 . S
C2140 C1131 1.200 . S
C2155 C1192 1.395 . S
C2167 C1165 1.317 . S
C2182 C1124 1.387 . S
C2194 C1199 1.330 . S
C2209 C169 1.185 . S
C2221 C33 1.174 . S
C2236 C203 1.176 . S
C2248 C67 1.171 . S
C2263 C101 1.174 1_545 S
C2275 C135 1.176 . S
C2290 C373 1.174 . S
C2302 C237 1.152 1_455 S
C2317 C271 1.172 . S
C2329 C407 1.161 . S
C2344 C305 1.186 . S
C2356 C339 1.162 1_545 S
C2371 C441 1.179 . S
C2383 C577 1.175 . S
C2398 C611 1.178 . S
C2410 C475 1.173 . S
C2425 C543 1.164 . S
C2437 C509 1.161 . S
C2452 C645 1.159 . S
C2464 C781 1.160 . S
C2479 C679 1.168 . S
C2491 C815 1.180 . S
C2506 C747 1.181 . S
C2518 C713 1.172 . S
C2533 C849 1.160 . S
C2545 C985 1.164 . S
C2560 C883 1.182 . S
C2572 C1019 1.181 . S
C2587 C951 1.177 . S
C2599 C917 1.181 . S
C2614 C1053 1.160 . S
C2626 C1189 1.159 . S
C2641 C1087 1.173 . S
C2653 C1223 1.162 . S
C2668 C1155 1.159 . S
C2680 C1121 1.170 . S
C2695 C1006 1.832 . S
C2707 C20 1.824 . S
C2722 C938 1.833 . S
C2734 C54 1.821 . S
C2749 C88 1.814 . S
C2761 C972 1.815 . S
C2776 C122 1.826 . S
C2788 C462 1.817 . S
C2803 C496 1.829 . S
C2815 C156 1.820 . S
C2830 C190 1.835 . S
C2842 C428 1.828 . S
C2857 C224 1.824 . S
C2869 C802 1.818 . S
C2884 C258 1.828 . S
C2896 C734 1.821 . S
C2911 C768 1.814 . S
C2923 C292 1.817 . S
C2938 C1074 1.817 . S
C2950 C326 1.819 . S
C2965 C360 1.816 . S
C2977 C1108 1.820 . S
C2992 C394 1.832 . S
C3004 C1040 1.835 . S
C3019 C870 1.836 . S
C3031 C530 1.824 . S
C3046 C564 1.832 . S
C3058 C904 1.839 . S
C3073 C836 1.837 . S
C3085 C598 1.829 . S
C3100 C632 1.831 . S
C3112 C1210 1.837 . S
C3127 C666 1.823 . S
C3139 C1142 1.831 . S
C3154 C700 1.837 . S
C3166 C1176 1.839 . S
C3181 C5 1.481 . S
C3193 C617 1.519 . S
C3208 C651 1.493 . S
C3220 C39 1.469 . S
C3235 C685 1.466 . S
C3247 C73 1.508 . S
C3262 C107 1.473 . S
C3274 C1127 1.525 . S
C3289 C1161 1.506 . S
C3301 C141 1.485 . S
C3316 C175 1.504 . S
C3328 C1195 1.475 . S
C3343 C821 1.510 . S
C3355 C209 1.491 . S
C3370 C243 1.482 . S
C3382 C855 1.479 . S
C3397 C277 1.472 . S
C3409 C889 1.501 . S
C3424 C311 1.464 . S
C3436 C515 1.528 . S
C3451 C345 1.459 . S
C3463 C549 1.519 . S
C3478 C583 1.491 . S
C3490 C379 1.471 . S
C3505 C1025 1.516 . S
C3517 C413 1.458 . S
C3532 C447 1.515 . S
C3544 C1059 1.473 . S
C3559 C481 1.486 . S
C3571 C1093 1.481 . S
C3586 C719 1.456 . S
C3598 C923 1.515 . S
C3613 C753 1.496 . S
C3625 C957 1.489 . S
C3640 C991 1.502 . S
C3652 C787 1.472 . S
