# Generated by pormake.
# Topology sxb, (6)-cn, num edge types: 1
# Building blocks:
#     Node 0, Type 0, BuildingBlock: BETFAJ_clean_sbu_0, # of connection points: 6
#     Node 1, Type 0, BuildingBlock: BETFAJ_clean_sbu_0, # of connection points: 6
#     Node 2, Type 0, BuildingBlock: BETFAJ_clean_sbu_0, # of connection points: 6
#     Node 3, Type 0, BuildingBlock: BETFAJ_clean_sbu_0, # of connection points: 6
#     Edge 4, Type (0, 0), BuildingBlock: ZUJKAS_clean_linker_0, # of connection points: 2
#     Edge 5, Type (0, 0), BuildingBlock: ZUJKAS_clean_linker_0, # of connection points: 2
#     Edge 6, Type (0, 0), BuildingBlock: ZUJKAS_clean_linker_0, # of connection points: 2
#     Edge 7, Type (0, 0), BuildingBlock: ZUJKAS_clean_linker_0, # of connection points: 2
#     Edge 8, Type (0, 0), BuildingBlock: ZUJKAS_clean_linker_0, # of connection points: 2
#     Edge 9, Type (0, 0), BuildingBlock: ZUJKAS_clean_linker_0, # of connection points: 2
#     Edge 10, Type (0, 0), BuildingBlock: ZUJKAS_clean_linker_0, # of connection points: 2
#     Edge 11, Type (0, 0), BuildingBlock: ZUJKAS_clean_linker_0, # of connection points: 2
#     Edge 12, Type (0, 0), BuildingBlock: ZUJKAS_clean_linker_0, # of connection points: 2
#     Edge 13, Type (0, 0), BuildingBlock: ZUJKAS_clean_linker_0, # of connection points: 2
#     Edge 14, Type (0, 0), BuildingBlock: ZUJKAS_clean_linker_0, # of connection points: 2
#     Edge 15, Type (0, 0), BuildingBlock: ZUJKAS_clean_linker_0, # of connection points: 2
# Relax obj value: 0.279
# Max RMSD: 0.111
# Mean RMSD: 0.070
data_MOF--net-sxb--node1-BETFAJ_clean_sbu_0--edge1-ZUJKAS_clean_linker_0
_symmetry_space_group_name_H-M    P1
_symmetry_Int_Tables_number       1
_symmetry_cell_setting            triclinic
loop_
_symmetry_equiv_pos_as_xyz
'x, y, z'
_cell_length_a     21.229118
_cell_length_b     43.195963
_cell_length_c     38.987235
_cell_angle_alpha  92.953604
_cell_angle_beta   92.759435
_cell_angle_gamma 70.126163
loop_
_atom_site_label
_atom_site_type_symbol
_atom_site_fract_x
_atom_site_fract_y
_atom_site_fract_z
_atom_type_partial_charge
Sm0 Sm 1.02636 0.05233 -0.00066 0.0
Sm1 Sm 0.14313 0.06409 0.00275 0.0
C2 C 0.90824 0.04832 0.01187 0.0
C3 C 0.89055 1.02984 0.03801 0.0
C4 C 0.941 1.00963 0.05959 0.0
C5 C 0.92466 0.9938 0.08637 0.0
C6 C 0.85741 0.99784 0.09185 0.0
C7 C 0.80714 1.01757 0.06951 0.0
C8 C 0.82361 1.0336 0.04293 0.0
C9 C 1.07144 0.04998 0.93302 0.0
C10 C 1.01879 0.13002 -0.00409 0.0
C11 C 0.26936 0.06068 0.00637 0.0
C12 C 0.3173 1.04155 0.03221 0.0
C13 C 0.38063 1.04445 0.03778 0.0
C14 C 0.42295 1.02757 0.06442 0.0
C15 C 0.40224 1.0077 0.08582 0.0
C16 C 0.33885 1.00475 0.07982 0.0
C17 C 0.29674 1.02162 0.05337 0.0
C18 C 0.09598 0.06536 0.0685 0.0
C19 C 0.15295 0.98671 0.0031 0.0
O20 O 0.94637 1.03056 0.98776 0.0
O21 O 0.92811 0.07227 0.02413 0.0
O22 O 1.07213 0.0717 0.95597 0.0
O23 O 1.0473 1.02905 0.94481 0.0
O24 O 0.98828 0.1101 0.00589 0.0
O25 O 1.08167 0.11698 0.9869 0.0
O26 O 0.24691 1.04323 0.98378 0.0
O27 O 0.22144 0.08573 0.01914 0.0
O28 O 0.09842 1.04362 0.04521 0.0
O29 O 0.11535 0.08789 0.05678 0.0
O30 O 0.18098 1.00689 0.9915 0.0
O31 O 1.09176 0.99965 0.01424 0.0
H32 H 0.993 1.00653 0.05599 0.0
H33 H 0.96448 0.97894 0.1031 0.0
H34 H 0.75491 1.02054 0.07245 0.0
H35 H 0.78414 0.04909 0.02644 0.0
H36 H 0.39697 0.05993 0.02187 0.0
H37 H 0.47205 1.0299 0.06814 0.0
H38 H 0.32124 0.98995 0.09601 0.0
H39 H 0.24739 1.01956 0.0498 0.0
Sm40 Sm 0.11631 1.02049 0.50797 0.0
Sm41 Sm 1.06029 0.08841 0.4933 0.0
C42 C 0.15031 0.961 0.53296 0.0
C43 C 0.1207 0.93492 0.53186 0.0
C44 C 1.05113 0.94277 0.53344 0.0
C45 C 1.02239 0.91842 0.52702 0.0
C46 C 1.06272 0.88587 0.51876 0.0
C47 C 0.13265 0.87777 0.51879 0.0
C48 C 0.16145 0.90219 0.52536 0.0
C49 C 0.10913 1.03104 0.43822 0.0
C50 C 0.94558 0.05348 0.49982 0.0
C51 C 1.026 0.14688 0.46583 0.0
C52 C 1.06164 0.16843 0.45594 0.0
C53 C 0.12965 0.15525 0.44823 0.0
C54 C 0.16593 0.17609 0.44366 0.0
C55 C 0.13465 0.21043 0.44671 0.0
C56 C 1.06547 0.22352 0.45232 0.0
C57 C 1.02923 0.20259 0.45702 0.0
C58 C 1.06564 0.07807 0.56293 0.0
C59 C 0.23035 0.05562 0.50216 0.0
O60 O 0.1191 0.988 0.55067 0.0
O61 O 0.17021 0.96667 0.5035 0.0
O62 O 1.06304 1.04447 0.45905 0.0
O63 O 0.16114 1.01114 0.45395 0.0
O64 O 0.99865 1.02792 0.50962 0.0
O65 O 0.95657 0.07998 0.4897 0.0
O66 O 1.03776 0.11933 0.44769 0.0
O67 O 1.02551 0.143 0.49881 0.0
O68 O 0.11254 0.06433 0.54251 0.0
O69 O 1.0143 0.09822 0.54684 0.0
O70 O 0.17796 0.07999 0.48965 0.0
O71 O 0.21839 1.03041 0.51498 0.0
H72 H 1.01867 0.96793 0.53817 0.0
H73 H 0.96827 0.9255 0.52667 0.0
H74 H 0.16479 0.85281 0.51272 0.0
H75 H 0.21527 0.8958 0.52395 0.0
H76 H 0.15542 0.12889 0.44716 0.0
H77 H 0.2193 0.16522 0.43986 0.0
H78 H 1.04004 0.2499 0.45444 0.0
H79 H 0.9766 0.21306 0.46283 0.0
Sm80 Sm 0.528 0.55392 0.00091 0.0
Sm81 Sm 0.64739 0.56527 0.00363 0.0
C82 C 0.4187 0.53805 -0.0048 0.0
C83 C 0.36837 0.54584 0.96664 0.0
C84 C 0.3381 0.57845 0.9562 0.0
C85 C 0.30279 0.58486 0.9247 0.0
C86 C 0.29831 0.55878 0.90285 0.0
C87 C 0.32661 0.52634 0.91373 0.0
C88 C 0.36088 0.51995 0.94546 0.0
C89 C 0.55847 0.56834 0.93599 0.0
C90 C 0.51423 0.62977 0.00612 0.0
C91 C 0.76237 0.5719 0.98946 0.0
C92 C 0.79954 0.56196 0.95773 0.0
C93 C 0.76671 0.55499 0.92774 0.0
C94 C 0.79949 0.54731 0.89667 0.0
C95 C 0.86609 0.54619 0.89521 0.0
C96 C 0.89928 0.55265 0.92553 0.0
C97 C 0.86615 0.56052 0.95659 0.0
C98 C 0.59969 0.57065 0.07004 0.0
C99 C 0.66162 0.48765 0.00257 0.0
O100 O 0.42283 0.56254 0.01538 0.0
O101 O 0.47727 0.51793 0.98623 0.0
O102 O 0.59863 0.54889 0.95645 0.0
O103 O 0.50181 0.5821 0.95029 0.0
O104 O 0.48951 0.60906 0.01949 0.0
O105 O 0.57248 0.61732 0.99126 0.0
O106 O 0.70459 0.5953 0.98574 0.0
O107 O 0.75902 0.54799 0.00768 0.0
O108 O 0.59862 0.54862 0.04767 0.0
O109 O 0.62693 0.59013 0.05782 0.0
O110 O 0.69348 0.50826 -0.00283 0.0
O111 O 0.59688 0.49956 0.0083 0.0
H112 H 0.34397 0.59894 0.97163 0.0
H113 H 0.2807 0.61011 0.91692 0.0
H114 H 0.3224 0.50589 0.8976 0.0
H115 H 0.38442 0.4946 0.95272 0.0
H116 H 0.71513 0.55613 0.9284 0.0
H117 H 0.77281 0.54234 0.87384 0.0
H118 H 0.95036 0.5525 0.92506 0.0
H119 H 0.89205 0.56599 0.97948 0.0
Sm120 Sm 0.61197 0.52769 0.50956 0.0
Sm121 Sm 0.55521 0.59635 0.49623 0.0
C122 C 0.64856 0.46831 0.53509 0.0
C123 C 0.61986 0.44229 0.53796 0.0
C124 C 0.55047 0.45 0.54018 0.0
C125 C 0.52304 0.42491 0.53919 0.0
C126 C 0.56459 0.3918 0.53577 0.0
C127 C 0.63431 0.38415 0.5348 0.0
C128 C 0.66176 0.40931 0.53593 0.0
C129 C 0.60682 0.53939 0.44012 0.0
C130 C 0.44113 0.56074 0.50249 0.0
C131 C 0.51869 0.65552 0.47018 0.0
C132 C 0.55321 0.6751 0.45481 0.0
C133 C 0.61926 0.6602 0.4443 0.0
C134 C 0.65494 0.67943 0.43346 0.0
C135 C 0.62491 0.71385 0.43287 0.0
C136 C 0.55727 0.72844 0.44143 0.0
C137 C 0.52172 0.70914 0.45249 0.0
C138 C 0.55986 0.58428 0.56537 0.0
C139 C 0.72532 0.56331 0.50349 0.0
O140 O 0.62128 0.49549 0.55331 0.0
O141 O 0.66151 0.47355 0.50395 0.0
O142 O 0.56029 0.55283 0.46078 0.0
O143 O 0.65755 0.5185 0.45581 0.0
O144 O 0.49455 0.53473 0.51087 0.0
O145 O 0.45148 0.58786 0.49381 0.0
O146 O 0.51851 0.62909 0.45241 0.0
O147 O 0.53175 0.65042 0.50291 0.0
O148 O 0.60692 0.57115 0.54489 0.0
O149 O 0.50859 0.60483 0.5496 0.0
O150 O 0.6726 0.58782 0.49147 0.0
O151 O 0.71397 0.53778 0.51593 0.0
H152 H 0.51732 0.47537 0.54156 0.0
H153 H 0.46904 0.43153 0.53942 0.0
H154 H 0.66732 0.3588 0.53232 0.0
H155 H 0.71548 0.40306 0.53416 0.0
H156 H 0.64406 0.63385 0.44568 0.0
H157 H 0.70719 0.66747 0.42752 0.0
H158 H 0.53269 0.75487 0.44084 0.0
H159 H 0.47048 0.72088 0.46031 0.0
H160 H 0.38825 0.66457 0.03068 0.0
H161 H 0.32725 0.72415 0.02994 0.0
H162 H 0.49426 0.73824 0.98261 0.0
H163 H 0.55458 0.6789 0.98263 0.0
H164 H 0.35006 0.77732 0.05917 0.0
H165 H 0.34713 0.78893 0.9185 0.0
H166 H 0.37224 0.74944 0.93808 0.0
H167 H 0.43043 0.77144 0.93643 0.0
C168 C 0.41202 0.68029 0.01998 0.0
C169 C 0.47658 0.66646 0.00651 0.0
C170 C 0.37692 0.71458 0.01959 0.0
C171 C 0.40491 0.73626 0.00554 0.0
C172 C 0.46994 0.72247 0.9927 0.0
H173 H 0.28086 0.95129 0.98197 0.0
H174 H 0.34042 0.89167 0.98335 0.0
C175 C 0.50492 0.68826 0.993 0.0
C176 C 0.36699 0.77309 0.0049 0.0
H177 H 0.31395 0.83907 0.9521 0.0
C178 C 0.3419 0.79065 0.03563 0.0
C179 C 0.35575 0.79116 0.97438 0.0
C180 C 0.37717 0.77426 0.93993 0.0
C181 C 0.30797 0.8252 0.03685 0.0
C182 C 0.2971 0.84326 0.00636 0.0
C183 C 0.32203 0.82571 0.97563 0.0
C184 C 0.2601 0.88015 0.00574 0.0
C185 C 0.28581 0.84217 0.07117 0.0
C186 C 0.19418 0.89428 0.0174 0.0
C187 C 0.15981 0.92856 0.01659 0.0
C188 C 0.18992 0.95001 0.0039 0.0
C189 C 0.25567 0.93584 0.99197 0.0
C190 C 0.28998 0.90152 0.99272 0.0
H191 H 0.31425 0.82723 0.09281 0.0
H192 H 0.29222 0.86667 0.07332 0.0
H193 H 0.23197 0.8458 0.07396 0.0
H194 H 0.16868 0.87872 0.02683 0.0
H195 H 0.10929 0.93824 0.02586 0.0
H196 H 0.79458 0.45365 0.98886 0.0
H197 H 0.85374 0.39398 0.98683 0.0
H198 H 0.67303 0.378 0.01376 0.0
H199 H 0.61335 0.43751 0.0151 0.0
H200 H 0.8835 0.34743 0.03345 0.0
H201 H 0.72171 0.31496 0.9328 0.0
H202 H 0.71618 0.35701 0.94285 0.0
H203 H 0.67546 0.33677 0.96903 0.0
C204 C 0.76712 0.43752 0.99424 0.0
C205 C 0.69859 0.45086 0.00195 0.0
C206 C 0.80128 0.40314 0.9931 0.0
C207 C 0.76818 0.38079 -0.00058 0.0
C208 C 0.7 0.39415 0.00773 0.0
H209 H 0.88742 0.16498 0.01139 0.0
H210 H 0.82926 0.22471 0.01222 0.0
C211 C 0.66577 0.42849 0.00879 0.0
C212 C 0.80517 0.34383 -0.00198 0.0
H213 H 0.79958 0.27029 0.96233 0.0
C214 C 0.86513 0.33071 0.01766 0.0
C215 C 0.78212 0.32137 0.97754 0.0
C216 C 0.72074 0.33321 0.95409 0.0
C217 C 0.90113 0.29639 0.01805 0.0
C218 C 0.87782 0.27394 -0.00225 0.0
C219 C 0.81799 0.28705 0.97805 0.0
C220 C 0.9142 0.23697 -0.00319 0.0
C221 C 0.96301 0.28444 0.04113 0.0
C222 C 0.98164 0.2231 0.98731 0.0
C223 C 1.01523 0.18868 0.98674 0.0
C224 C 0.98254 0.16683 -0.00447 0.0
C225 C 0.91476 0.18072 0.00452 0.0
C226 C 0.88116 0.21511 0.00498 0.0
H227 H 0.96368 0.30301 0.06183 0.0
H228 H 0.96659 0.26112 0.05314 0.0
H229 H 1.00804 0.27981 0.02566 0.0
H230 H 1.00847 0.23892 0.98002 0.0
H231 H 1.06712 0.17921 0.97948 0.0
H232 H 0.12438 0.26139 0.49246 0.0
H233 H 0.20479 0.29 0.50352 0.0
H234 H 0.32177 0.23516 0.41908 0.0
H235 H 0.24015 0.20698 0.40703 0.0
H236 H 0.34259 0.25213 0.51991 0.0
H237 H 0.31318 0.33209 0.40837 0.0
H238 H 0.248 0.31694 0.4202 0.0
H239 H 0.32032 0.28984 0.39889 0.0
C240 C 0.16581 0.25623 0.47541 0.0
C241 C 0.17608 0.23191 0.44889 0.0
C242 C 0.212 0.27237 0.482 0.0
C243 C 0.26893 0.26454 0.46213 0.0
C244 C 0.27767 0.24162 0.43447 0.0
H245 H 0.5969 0.34223 0.48686 0.0
H246 H 0.53434 0.30528 0.47028 0.0
C247 C 0.23134 0.22546 0.42778 0.0
C248 C 0.32197 0.27811 0.47265 0.0
H249 H 0.39859 0.33114 0.44964 0.0
C250 C 0.35518 0.26931 0.50453 0.0
C251 C 0.33836 0.30011 0.45223 0.0
C252 C 0.30298 0.31058 0.41808 0.0
C253 C 0.40383 0.28259 0.51696 0.0
C254 C 0.41864 0.30547 0.49709 0.0
C255 C 0.38699 0.31345 0.46469 0.0
C256 C 0.46265 0.32356 0.51045 0.0
C257 C 0.4386 0.27222 0.55127 0.0
C258 C 0.4436 0.34539 0.53898 0.0
C259 C 0.4793 0.36636 0.5486 0.0
C260 C 0.53426 0.36587 0.52967 0.0
C261 C 0.55522 0.3428 0.50216 0.0
C262 C 0.5194 0.32188 0.49252 0.0
H263 H 0.43645 0.24799 0.55825 0.0
H264 H 0.49189 0.27069 0.55119 0.0
H265 H 0.41324 0.29073 0.57145 0.0
H266 H 0.39922 0.34735 0.55277 0.0
H267 H 0.46243 0.38382 0.57001 0.0
H268 H 0.09486 0.84337 0.46303 0.0
H269 H 1.02951 0.81053 0.43724 0.0
H270 H 0.89197 0.84211 0.52018 0.0
H271 H 0.95752 0.8745 0.54653 0.0
H272 H 0.97472 0.76028 0.47287 0.0
H273 H 0.78944 0.87476 0.4217 0.0
H274 H 0.87568 0.87075 0.43219 0.0
H275 H 0.81723 0.87708 0.4658 0.0
C276 C 1.05183 0.84253 0.4763 0.0
C277 C 1.03081 0.86164 0.50664 0.0
C278 C 1.01448 0.82398 0.46141 0.0
C279 C 0.95584 0.82449 0.47669 0.0
C280 C 0.93696 0.84187 0.50799 0.0
H281 H 0.62259 0.76916 0.46998 0.0
H282 H 0.70548 0.79656 0.4709 0.0
C283 C 0.97425 0.86033 0.52292 0.0
C284 C 0.91129 0.80878 0.45909 0.0
H285 H 0.75555 0.82757 0.42124 0.0
C286 C 0.92737 0.77468 0.46084 0.0
C287 C 0.8501 0.82797 0.44341 0.0
C288 C 0.83196 0.86468 0.44033 0.0
C289 C 0.88115 0.75943 0.44939 0.0
C290 C 0.81821 0.77895 0.43541 0.0
C291 C 0.80405 0.81277 0.43179 0.0
C292 C 0.76292 0.7658 0.42984 0.0
C293 C 0.89799 0.72306 0.45458 0.0
C294 C 0.76637 0.74045 0.40531 0.0
C295 C 0.71858 0.72478 0.40454 0.0
C296 C 0.6669 0.7344 0.42827 0.0
C297 C 0.66117 0.76141 0.45106 0.0
C298 C 0.70877 0.77698 0.45179 0.0
H299 H 0.94546 0.71251 0.46983 0.0
H300 H 0.85701 0.71855 0.4679 0.0
H301 H 0.90343 0.70972 0.42921 0.0
H302 H 0.80738 0.73194 0.3878 0.0
H303 H 0.72356 0.70432 0.38637 0.0
H304 H 0.42733 0.94404 0.10415 0.0
H305 H 0.51434 0.91256 0.14467 0.0
H306 H 0.56586 0.99963 0.17048 0.0
H307 H 0.47807 1.03109 0.13133 0.0
H308 H 0.63566 0.90078 0.1308 0.0
H309 H 0.62261 0.95593 0.25925 0.0
H310 H 0.54743 0.96109 0.23285 0.0
H311 H 0.59112 0.99046 0.23224 0.0
C312 C 0.45567 0.95668 0.1195 0.0
C313 C 0.44704 0.98986 0.11405 0.0
C314 C 0.5051 0.93868 0.14283 0.0
C315 C 0.54646 0.95361 0.16113 0.0
C316 C 0.5338 0.98748 0.15762 0.0
H317 H 0.75192 1.02332 0.13378 0.0
H318 H 0.70614 0.99331 0.17031 0.0
C319 C 0.48456 1.0054 0.13445 0.0
C320 C 0.61279 0.93344 0.17566 0.0
H321 H 0.72787 0.95453 0.22589 0.0
C322 C 0.65622 0.91122 0.15262 0.0
C323 C 0.64072 0.94448 0.20543 0.0
C324 C 0.59753 0.96398 0.23399 0.0
C325 C 0.72419 0.908 0.15308 0.0
C326 C 0.74749 0.92775 0.17711 0.0
C327 C 0.70884 0.94119 0.20603 0.0
C328 C 0.78774 0.94673 0.16439 0.0
C329 C 0.76634 0.88849 0.1241 0.0
C330 C 0.85094 0.93138 0.15024 0.0
C331 C 0.87609 0.94848 0.12795 0.0
C332 C 0.83895 0.98133 0.12024 0.0
C333 C 0.78034 0.99768 0.13806 0.0
C334 C 0.75482 0.98056 0.15966 0.0
H335 H 0.74292 0.87178 0.11033 0.0
H336 H 0.77273 0.90551 0.10525 0.0
H337 H 0.81649 0.87331 0.1342 0.0
H338 H 0.87847 0.90565 0.15433 0.0
H339 H 0.92214 0.93531 0.11504 0.0
H340 H 0.28098 0.10382 0.48011 0.0
H341 H 0.39748 0.10328 0.48015 0.0
H342 H 0.46586 1.00677 0.52199 0.0
H343 H 0.35016 1.00768 0.52284 0.0
H344 H 0.51004 0.07176 0.45054 0.0
H345 H 0.57506 1.04131 0.58604 0.0
H346 H 0.54918 1.01033 0.56334 0.0
H347 H 0.49029 0.05155 0.56911 0.0
C348 C 0.32048 0.08248 0.48967 0.0
C349 C 0.30359 0.05596 0.50185 0.0
C350 C 0.38839 0.08211 0.48962 0.0
C351 C 0.44365 0.05532 0.50194 0.0
C352 C 0.42653 1.02862 0.51343 0.0
H353 H 0.89556 1.00417 0.51939 0.0
H354 H 0.77909 1.00463 0.51925 0.0
C355 C 0.35891 1.02902 0.51359 0.0
C356 C 0.51791 0.05493 0.50203 0.0
H357 H 0.66632 1.03695 0.55085 0.0
C358 C 0.54344 0.06432 0.47281 0.0
C359 C 0.56475 1.04525 0.53052 0.0
C360 C 0.54337 1.03687 0.56413 0.0
C361 C 0.61151 0.06357 0.47095 0.0
C362 C 0.65833 0.0538 0.4994 0.0
C363 C 0.63285 1.0444 0.5286 0.0
C364 C 0.73251 0.05344 0.4995 0.0
C365 C 0.63291 0.07227 0.4375 0.0
C366 C 0.74929 0.08061 0.48913 0.0
C367 C 0.81684 0.08034 0.48922 0.0
C368 C 0.87243 0.05298 0.4999 0.0
C369 C 0.85586 1.02589 0.51074 0.0
C370 C 0.788 1.02619 0.51072 0.0
H371 H 0.60094 0.06826 0.4155 0.0
H372 H 0.62768 0.09874 0.43871 0.0
H373 H 0.68588 0.05748 0.43238 0.0
H374 H 0.70973 0.10271 0.48131 0.0
H375 H 0.82534 0.10209 0.4809 0.0
H376 H 0.8168 0.57183 0.83258 0.0
H377 H 0.88125 0.56921 0.78144 0.0
H378 H 1.05801 0.5052 0.834 0.0
H379 H 0.99325 0.50622 0.88331 0.0
H380 H 0.96385 0.59633 0.7774 0.0
H381 H 0.11962 0.47407 0.74266 0.0
H382 H 1.04108 0.48026 0.76285 0.0
H383 H 0.11916 0.47 0.78796 0.0
C384 C 0.86879 0.55603 0.83238 0.0
C385 C 0.90052 0.5397 0.86211 0.0
C386 C 0.90568 0.55457 0.80313 0.0
C387 C 0.97488 0.53689 0.80327 0.0
C388 C 1.00465 0.51835 0.83214 0.0
H389 H 0.17145 0.59956 0.89183 0.0
H390 H 0.10131 0.60136 0.84096 0.0
C391 C 0.96784 0.51955 0.86101 0.0
C392 C 1.01944 0.54402 0.77876 0.0
H393 H 0.18801 0.51014 0.77594 0.0
C394 C 1.01254 0.57728 0.77535 0.0
C395 C 1.08214 0.52001 0.77143 0.0
C396 C 1.09021 0.48411 0.76597 0.0
C397 C 1.06968 0.58667 0.77623 0.0
C398 C 0.13286 0.56239 0.78265 0.0
C399 C 0.13935 0.52932 0.7746 0.0
C400 C 0.18043 0.56876 0.8092 0.0
C401 C 1.0613 0.62267 0.77527 0.0
C402 C 0.24919 0.55011 0.8092 0.0
C403 C 0.28895 0.54808 0.83928 0.0
C404 C 0.26094 0.56528 0.86956 0.0
C405 C 0.19425 0.58628 0.86873 0.0
C406 C 0.15425 0.58769 0.8391 0.0
H407 H 1.03115 0.6332 0.75193 0.0
H408 H 1.0329 0.63625 0.79775 0.0
H409 H 0.11026 0.62668 0.77501 0.0
H410 H 0.27111 0.5353 0.78672 0.0
H411 H 0.34077 0.53199 0.83933 0.0
H412 H 0.31974 0.60993 0.48604 0.0
H413 H 0.20428 0.60995 0.48654 0.0
H414 H 0.27706 0.50986 0.51893 0.0
H415 H 0.39277 0.51003 0.51904 0.0
H416 H 0.12814 0.58147 0.45384 0.0
H417 H 0.13446 0.54089 0.58613 0.0
H418 H 0.20188 0.55193 0.57011 0.0
H419 H 0.19659 0.51162 0.56035 0.0
C420 C 0.31186 0.58777 0.49353 0.0
C421 C 0.36812 0.56005 0.50273 0.0
C422 C 0.24447 0.58778 0.49374 0.0
C423 C 0.22849 0.5602 0.50349 0.0
C424 C 0.28487 0.53224 0.51225 0.0
H425 H 0.84637 0.51507 0.52247 0.0
H426 H 0.96182 0.51495 0.52154 0.0
C427 C 0.35248 0.5322 0.512 0.0
C428 C 0.15416 0.56077 0.50369 0.0
H429 H 1.03854 0.54254 0.55158 0.0
C430 C 0.10915 0.57302 0.47551 0.0
C431 C 0.12602 0.54993 0.53142 0.0
C432 C 0.16691 0.53816 0.56386 0.0
C433 C 1.04066 0.57393 0.47387 0.0
C434 C 1.0124 0.56317 0.50166 0.0
C435 C 1.05747 0.55094 0.52985 0.0
C436 C 0.938 0.56375 0.50194 0.0
C437 C 1.0002 0.58541 0.44125 0.0
C438 C 0.88169 0.59118 0.4918 0.0
C439 C 0.81413 0.59117 0.49205 0.0
C440 C 0.79834 0.56391 0.50299 0.0
C441 C 0.8544 0.53677 0.5137 0.0
C442 C 0.92181 0.53672 0.51325 0.0
H443 H 1.03298 0.58214 0.41901 0.0
H444 H 0.96483 0.57183 0.43517 0.0
H445 H 0.97114 0.61207 0.44431 0.0
H446 H 0.88943 0.61325 0.48402 0.0
H447 H 0.77394 0.61291 0.48383 0.0
H448 H 0.20989 1.01255 0.39263 0.0
H449 H 0.20206 1.01894 0.33043 0.0
H450 H 0.98717 0.06307 0.33529 0.0
H451 H 0.99546 0.05825 0.3979 0.0
H452 H 0.15009 0.9945 0.28019 0.0
H453 H 1.01977 0.12921 0.2793 0.0
H454 H 1.05248 0.10816 0.3184 0.0
H455 H 0.97244 0.10874 0.30016 0.0
C456 C 0.16097 1.02387 0.38047 0.0
C457 C 0.10335 1.03507 0.4003 0.0
C458 C 0.15646 1.02745 0.34477 0.0
C459 C 0.09411 1.04206 0.32773 0.0
C460 C 1.03623 0.05269 0.34755 0.0
H461 H 1.06231 1.01798 0.10071 0.0
H462 H 1.05665 1.01207 0.16261 0.0
C463 C 1.04089 0.04966 0.38343 0.0
C464 C 1.09023 1.04539 0.28934 0.0
H465 H 1.02856 0.10022 0.22535 0.0
C466 C 0.12362 1.01771 0.2683 0.0
C467 C 1.05658 0.07568 0.27338 0.0
C468 C 1.02393 0.10719 0.29399 0.0
C469 C 0.12466 1.01942 0.23227 0.0
C470 C 1.08901 0.04942 0.21622 0.0
C471 C 1.05535 0.07705 0.23726 0.0
C472 C 1.08903 0.05338 0.17806 0.0
C473 C 0.1664 0.98926 0.21209 0.0
C474 C 0.10591 0.0794 0.1655 0.0
C475 C 0.10689 0.08341 0.13009 0.0
C476 C 1.09166 0.06134 0.10604 0.0
C477 C 1.07414 1.03545 0.11844 0.0
C478 C 1.0719 1.03179 0.15399 0.0
H479 H 0.20582 0.97225 0.22863 0.0
H480 H 0.13364 0.97565 0.2013 0.0
H481 H 0.19102 0.99601 0.19059 0.0
H482 H 0.11928 0.09653 0.18315 0.0
H483 H 0.12069 0.10364 0.12156 0.0
H484 H 1.08785 0.10116 0.89902 0.0
H485 H 1.09059 0.10623 0.83655 0.0
H486 H 1.07493 1.00965 0.81982 0.0
H487 H 1.07066 1.00483 0.88177 0.0
H488 H 0.17356 0.07092 0.78596 0.0
H489 H 0.92042 0.06345 0.76005 0.0
H490 H 0.95174 0.06889 0.80294 0.0
H491 H 0.97531 1.02856 0.78217 0.0
C492 C 1.08515 0.081 0.88198 0.0
C493 C 1.07823 0.05275 0.89544 0.0
C494 C 1.08674 0.0839 0.84623 0.0
C495 C 1.08138 0.05865 0.82314 0.0
C496 C 1.07718 1.02993 0.83677 0.0
H497 H 0.16842 1.03695 0.60232 0.0
H498 H 0.17448 1.03219 0.66502 0.0
C499 C 1.07519 1.02711 0.87234 0.0
C500 C 1.07946 0.06226 0.78494 0.0
H501 H 0.98653 0.05914 0.71138 0.0
C502 C 0.13252 0.06846 0.76969 0.0
C503 C 1.02556 0.05957 0.76345 0.0
C504 C 0.96471 0.05509 0.77798 0.0
C505 C 0.13371 0.07141 0.73381 0.0
C506 C 1.08098 0.06746 0.71222 0.0
C507 C 1.02749 0.06179 0.72759 0.0
C508 C 1.07867 0.07026 0.67386 0.0
C509 C 0.19078 0.07953 0.71952 0.0
C510 C 1.02217 0.09248 0.6574 0.0
C511 C 1.0183 0.09489 0.62155 0.0
C512 C 1.07084 0.07515 0.60104 0.0
C513 C 0.12734 0.05274 0.61736 0.0
C514 C 0.13104 0.05019 0.65332 0.0
H515 H 0.21584 0.09094 0.73956 0.0
H516 H 0.22872 0.05651 0.70968 0.0
H517 H 0.17312 0.09659 0.69801 0.0
H518 H 0.98084 0.10818 0.67235 0.0
H519 H 0.97395 0.11235 0.6099 0.0
H520 H 0.50371 0.58117 0.40136 0.0
H521 H 0.49758 0.58735 0.33889 0.0
H522 H 0.69157 0.51186 0.33035 0.0
H523 H 0.69867 0.50639 0.39265 0.0
H524 H 0.68555 0.56118 0.29205 0.0
H525 H 0.45559 0.53015 0.26329 0.0
H526 H 0.44291 0.56422 0.29362 0.0
H527 H 0.49847 0.52395 0.30478 0.0
C528 C 0.54495 0.56585 0.38613 0.0
C529 C 0.60158 0.5432 0.4021 0.0
C530 C 0.54117 0.56919 0.35026 0.0
C531 C 0.59354 0.54964 0.32941 0.0
C532 C 0.65022 0.52719 0.34553 0.0
H533 H 0.58004 0.52066 0.10451 0.0
H534 H 0.57766 0.51586 0.16696 0.0
C535 C 0.65419 0.52402 0.38129 0.0
C536 C 0.59087 0.55308 0.29109 0.0
H537 H 0.49751 0.55083 0.21732 0.0
C538 C 0.64435 0.55885 0.2758 0.0
C539 C 0.53784 0.54957 0.26943 0.0
C540 C 0.48078 0.5413 0.28351 0.0
C541 C 0.64608 0.5615 0.23997 0.0
C542 C 0.5919 0.55921 0.21842 0.0
C543 C 0.53877 0.55302 0.23361 0.0
C544 C 0.59004 0.56281 0.18017 0.0
C545 C 0.70715 0.56583 0.22554 0.0
C546 C 0.59593 0.59112 0.16634 0.0
C547 C 0.59781 0.59376 0.13069 0.0
C548 C 0.59287 0.56839 0.10774 0.0
C549 C 0.58422 0.54062 0.12141 0.0
C550 C 0.58283 0.53787 0.15719 0.0
H551 H 0.75149 0.55711 0.24339 0.0
H552 H 0.71982 0.55226 0.20044 0.0
H553 H 0.69703 0.59238 0.22167 0.0
H554 H 0.59952 0.61123 0.18318 0.0
H555 H 0.60372 0.61567 0.12109 0.0
H556 H 0.6622 0.54196 0.60404 0.0
H557 H 0.66776 0.53558 0.66657 0.0
H558 H 0.47518 0.61219 0.67496 0.0
H559 H 0.46862 0.61788 0.61278 0.0
H560 H 0.6692 0.57663 0.72067 0.0
H561 H 0.44217 0.54229 0.72714 0.0
H562 H 0.47954 0.5437 0.68693 0.0
H563 H 0.42391 0.58084 0.70694 0.0
C564 C 0.62091 0.55727 0.61925 0.0
C565 C 0.56472 0.58026 0.60331 0.0
C566 C 0.62416 0.55366 0.65506 0.0
C567 C 0.57125 0.57289 0.67574 0.0
C568 C 0.51586 0.5963 0.65977 0.0
H569 H 0.47684 0.61086 0.89046 0.0
H570 H 0.48484 0.61022 0.82799 0.0
C571 C 0.51238 0.59973 0.62408 0.0
C572 C 0.57405 0.56915 0.71395 0.0
H573 H 0.48351 0.55932 0.78042 0.0
C574 C 0.62891 0.57247 0.73365 0.0
C575 C 0.52192 0.56342 0.73122 0.0
C576 C 0.46398 0.557 0.71192 0.0
C577 C 0.63158 0.57165 0.7699 0.0
C578 C 0.57814 0.56723 0.78712 0.0
C579 C 0.5242 0.56309 0.7674 0.0
C580 C 0.57575 0.56789 0.82553 0.0
C581 C 0.69065 0.57655 0.78955 0.0
C582 C 0.62394 0.54417 0.8453 0.0
C583 C 0.61922 0.5444 0.8812 0.0
C584 C 0.56645 0.56847 0.89817 0.0
C585 C 0.51843 0.59213 0.87831 0.0
C586 C 0.52291 0.59177 0.84251 0.0
H587 H 0.72024 0.58657 0.7733 0.0
H588 H 0.67393 0.59348 0.81228 0.0
H589 H 0.7242 0.55248 0.79888 0.0
H590 H 0.66441 0.52501 0.83289 0.0
H591 H 0.65607 0.5253 0.89555 0.0
loop_
_geom_bond_atom_site_label_1
_geom_bond_atom_site_label_2
_geom_bond_distance
_geom_bond_site_symmetry_2
_ccdc_geom_bond_type
Sm0 C2 2.846 . S
Sm0 O20 2.543 1_566 S
Sm0 O21 2.450 . S
Sm0 O22 2.681 1_655 S
Sm0 O23 2.464 . S
Sm0 O24 2.396 1_565 S
Sm0 O28 2.386 1_566 S
Sm0 O31 2.408 1_655 S
Sm1 C11 2.846 . S
Sm1 O22 2.386 1_544 S
Sm1 O25 2.408 1_455 S
Sm1 O26 2.543 1_544 S
Sm1 O27 2.450 . S
Sm1 O28 2.681 1_455 S
Sm1 O29 2.464 . S
Sm1 O30 2.396 1_545 S
C2 Sm0 2.846 . S
C2 C3 1.506 1_565 S
C2 O20 1.261 1_566 S
C2 O21 1.242 . S
C3 C2 1.506 1_545 S
C3 C4 1.358 1_556 S
C3 C8 1.382 . S
C4 C3 1.358 1_554 S
C4 C5 1.385 . S
C4 H32 0.930 . S
C5 C4 1.385 . S
C5 C6 1.395 1_554 S
C5 H33 0.929 . S
C6 C5 1.395 1_556 S
C6 C7 1.335 . S
C7 C6 1.335 . S
C7 C8 1.398 . S
C7 H34 0.930 . S
C8 C3 1.382 . S
C8 C7 1.398 . S
C8 H35 0.929 1_545 S
C9 O22 1.271 1_655 S
C9 O23 1.251 . S
C10 O24 1.252 . S
C10 O25 1.272 1_556 S
C11 Sm1 2.846 . S
C11 C12 1.506 1_545 S
C11 O26 1.261 1_544 S
C11 O27 1.242 . S
C12 C11 1.506 1_565 S
C12 C13 1.358 1_554 S
C12 C17 1.382 . S
C13 C12 1.358 1_556 S
C13 C14 1.385 . S
C13 H36 0.930 . S
C14 C13 1.385 . S
C14 C15 1.395 1_556 S
C14 H37 0.929 . S
C15 C14 1.395 1_554 S
C15 C16 1.335 . S
C16 C15 1.335 . S
C16 C17 1.398 . S
C16 H38 0.930 . S
C17 C12 1.382 . S
C17 C16 1.398 . S
C17 H39 0.929 1_565 S
C18 O28 1.271 1_455 S
C18 O29 1.251 . S
C19 O30 1.252 . S
C19 O31 1.272 1_554 S
O20 Sm0 2.543 1_544 S
O20 C2 1.261 1_544 S
O21 Sm0 2.450 . S
O21 C2 1.242 . S
O22 Sm0 2.681 1_455 S
O22 Sm1 2.386 1_566 S
O22 C9 1.271 1_455 S
O23 Sm0 2.464 . S
O23 C9 1.251 . S
O24 Sm0 2.396 1_545 S
O24 C10 1.252 . S
O25 Sm1 2.408 1_655 S
O25 C10 1.272 1_554 S
O26 Sm1 2.543 1_566 S
O26 C11 1.261 1_566 S
O27 Sm1 2.450 . S
O27 C11 1.242 . S
O28 Sm0 2.386 1_544 S
O28 Sm1 2.681 1_655 S
O28 C18 1.271 1_655 S
O29 Sm1 2.464 . S
O29 C18 1.251 . S
O30 Sm1 2.396 1_565 S
O30 C19 1.252 . S
O31 Sm0 2.408 1_455 S
O31 C19 1.272 1_556 S
H32 C4 0.930 . S
H33 C5 0.929 . S
H34 C7 0.930 . S
H35 C8 0.929 1_565 S
H36 C13 0.930 . S
H37 C14 0.929 . S
H38 C16 0.930 . S
H39 C17 0.929 1_545 S
Sm40 C42 2.846 1_455 S
Sm40 O60 2.543 1_455 S
Sm40 O61 2.450 1_455 S
Sm40 O62 2.681 1_565 S
Sm40 O63 2.464 . S
Sm40 O64 2.396 1_455 S
Sm40 O68 2.386 1_455 S
Sm40 O71 2.408 . S
Sm41 C51 2.846 1_655 S
Sm41 O62 2.386 1_655 S
Sm41 O65 2.408 . S
Sm41 O66 2.543 1_655 S
Sm41 O67 2.450 1_655 S
Sm41 O68 2.681 1_545 S
Sm41 O69 2.464 . S
Sm41 O70 2.396 1_655 S
C42 Sm40 2.846 1_655 S
C42 C43 1.506 . S
C42 O60 1.261 . S
C42 O61 1.242 . S
C43 C42 1.506 . S
C43 C44 1.358 . S
C43 C48 1.382 . S
C44 C43 1.358 . S
C44 C45 1.385 . S
C44 H72 0.930 . S
C45 C44 1.385 . S
C45 C46 1.395 . S
C45 H73 0.929 . S
C46 C45 1.395 . S
C46 C47 1.335 . S
C47 C46 1.335 . S
C47 C48 1.398 . S
C47 H74 0.930 . S
C48 C43 1.382 . S
C48 C47 1.398 . S
C48 H75 0.929 . S
C49 O62 1.271 1_565 S
C49 O63 1.251 . S
C50 O64 1.252 1_545 S
C50 O65 1.272 . S
C51 Sm41 2.846 1_455 S
C51 C52 1.506 . S
C51 O66 1.261 . S
C51 O67 1.242 . S
C52 C51 1.506 . S
C52 C53 1.358 . S
C52 C57 1.382 . S
C53 C52 1.358 . S
C53 C54 1.385 . S
C53 H76 0.930 . S
C54 C53 1.385 . S
C54 C55 1.395 . S
C54 H77 0.929 . S
C55 C54 1.395 . S
C55 C56 1.335 . S
C56 C55 1.335 . S
C56 C57 1.398 . S
C56 H78 0.930 . S
C57 C52 1.382 . S
C57 C56 1.398 . S
C57 H79 0.929 . S
C58 O68 1.274 1_545 S
C58 O69 1.247 . S
C59 O70 1.252 1_565 S
C59 O71 1.272 . S
O60 Sm40 2.543 1_655 S
O60 C42 1.261 . S
O61 Sm40 2.450 1_655 S
O61 C42 1.242 . S
O62 Sm40 2.681 1_545 S
O62 Sm41 2.386 1_455 S
O62 C49 1.271 1_545 S
O63 Sm40 2.464 . S
O63 C49 1.251 . S
O64 Sm40 2.396 1_655 S
O64 C50 1.252 1_565 S
O65 Sm41 2.408 . S
O65 C50 1.272 . S
O66 Sm41 2.543 1_455 S
O66 C51 1.261 . S
O67 Sm41 2.450 1_455 S
O67 C51 1.242 . S
O68 Sm40 2.386 1_655 S
O68 Sm41 2.681 1_565 S
O68 C58 1.274 1_565 S
O69 Sm41 2.464 . S
O69 C58 1.247 . S
O70 Sm41 2.396 1_455 S
O70 C59 1.252 1_545 S
O71 Sm40 2.408 . S
O71 C59 1.272 . S
H72 C44 0.930 . S
H73 C45 0.929 . S
H74 C47 0.930 . S
H75 C48 0.929 . S
H76 C53 0.930 . S
H77 C54 0.929 . S
H78 C56 0.930 . S
H79 C57 0.929 . S
Sm80 C82 2.846 . S
Sm80 O100 2.543 1_556 S
Sm80 O101 2.450 . S
Sm80 O102 2.681 . S
Sm80 O103 2.464 . S
Sm80 O104 2.396 . S
Sm80 O108 2.386 1_556 S
Sm80 O111 2.408 . S
Sm81 C91 2.846 . S
Sm81 O102 2.386 1_554 S
Sm81 O105 2.408 . S
Sm81 O106 2.543 1_554 S
Sm81 O107 2.450 . S
Sm81 O108 2.681 . S
Sm81 O109 2.464 . S
Sm81 O110 2.396 . S
C82 Sm80 2.846 . S
C82 C83 1.506 . S
C82 O100 1.261 1_556 S
C82 O101 1.242 . S
C83 C82 1.506 . S
C83 C84 1.358 1_556 S
C83 C88 1.382 . S
C84 C83 1.358 1_554 S
C84 C85 1.385 . S
C84 H112 0.930 . S
C85 C84 1.385 . S
C85 C86 1.395 1_554 S
C85 H113 0.929 . S
C86 C85 1.395 1_556 S
C86 C87 1.335 . S
C87 C86 1.335 . S
C87 C88 1.398 . S
C87 H114 0.930 . S
C88 C83 1.382 . S
C88 C87 1.398 . S
C88 H115 0.929 . S
C89 O102 1.271 . S
C89 O103 1.251 . S
C90 O104 1.252 . S
C90 O105 1.272 1_556 S
C91 Sm81 2.846 . S
C91 C92 1.506 . S
C91 O106 1.261 1_554 S
C91 O107 1.242 . S
C92 C91 1.506 . S
C92 C93 1.358 1_554 S
C92 C97 1.382 . S
C93 C92 1.358 1_556 S
C93 C94 1.385 . S
C93 H116 0.930 . S
C94 C93 1.385 . S
C94 C95 1.395 1_556 S
C94 H117 0.929 . S
C95 C94 1.395 1_554 S
C95 C96 1.335 . S
C96 C95 1.335 . S
C96 C97 1.398 . S
C96 H118 0.930 . S
C97 C92 1.382 . S
C97 C96 1.398 . S
C97 H119 0.929 . S
C98 O108 1.271 . S
C98 O109 1.251 . S
C99 O110 1.252 . S
C99 O111 1.272 1_554 S
O100 Sm80 2.543 1_554 S
O100 C82 1.261 1_554 S
O101 Sm80 2.450 . S
O101 C82 1.242 . S
O102 Sm80 2.681 . S
O102 Sm81 2.386 1_556 S
O102 C89 1.271 . S
O103 Sm80 2.464 . S
O103 C89 1.251 . S
O104 Sm80 2.396 . S
O104 C90 1.252 . S
O105 Sm81 2.408 . S
O105 C90 1.272 1_554 S
O106 Sm81 2.543 1_556 S
O106 C91 1.261 1_556 S
O107 Sm81 2.450 . S
O107 C91 1.242 . S
O108 Sm80 2.386 1_554 S
O108 Sm81 2.681 . S
O108 C98 1.271 . S
O109 Sm81 2.464 . S
O109 C98 1.251 . S
O110 Sm81 2.396 . S
O110 C99 1.252 . S
O111 Sm80 2.408 . S
O111 C99 1.272 1_556 S
H112 C84 0.930 . S
H113 C85 0.929 . S
H114 C87 0.930 . S
H115 C88 0.929 . S
H116 C93 0.930 . S
H117 C94 0.929 . S
H118 C96 0.930 . S
H119 C97 0.929 . S
Sm120 C122 2.846 . S
Sm120 O140 2.543 . S
Sm120 O141 2.450 . S
Sm120 O142 2.681 . S
Sm120 O143 2.464 . S
Sm120 O144 2.396 . S
Sm120 O148 2.386 . S
Sm120 O151 2.408 . S
Sm121 C131 2.846 . S
Sm121 O142 2.386 . S
Sm121 O145 2.408 . S
Sm121 O146 2.543 . S
Sm121 O147 2.450 . S
Sm121 O148 2.681 . S
Sm121 O149 2.464 . S
Sm121 O150 2.396 . S
C122 Sm120 2.846 . S
C122 C123 1.506 . S
C122 O140 1.261 . S
C122 O141 1.242 . S
C123 C122 1.506 . S
C123 C124 1.358 . S
C123 C128 1.382 . S
C124 C123 1.358 . S
C124 C125 1.385 . S
C124 H152 0.930 . S
C125 C124 1.385 . S
C125 C126 1.395 . S
C125 H153 0.929 . S
C126 C125 1.395 . S
C126 C127 1.335 . S
C127 C126 1.335 . S
C127 C128 1.398 . S
C127 H154 0.930 . S
C128 C123 1.382 . S
C128 C127 1.398 . S
C128 H155 0.929 . S
C129 O142 1.271 . S
C129 O143 1.251 . S
C130 O144 1.252 . S
C130 O145 1.272 . S
C131 Sm121 2.846 . S
C131 C132 1.506 . S
C131 O146 1.261 . S
C131 O147 1.242 . S
C132 C131 1.506 . S
C132 C133 1.358 . S
C132 C137 1.382 . S
C133 C132 1.358 . S
C133 C134 1.385 . S
C133 H156 0.930 . S
C134 C133 1.385 . S
C134 C135 1.395 . S
C134 H157 0.929 . S
C135 C134 1.395 . S
C135 C136 1.335 . S
C136 C135 1.335 . S
C136 C137 1.398 . S
C136 H158 0.930 . S
C137 C132 1.382 . S
C137 C136 1.398 . S
C137 H159 0.929 . S
C138 O148 1.271 . S
C138 O149 1.251 . S
C139 O150 1.252 . S
C139 O151 1.272 . S
O140 Sm120 2.543 . S
O140 C122 1.261 . S
O141 Sm120 2.450 . S
O141 C122 1.242 . S
O142 Sm120 2.681 . S
O142 Sm121 2.386 . S
O142 C129 1.271 . S
O143 Sm120 2.464 . S
O143 C129 1.251 . S
O144 Sm120 2.396 . S
O144 C130 1.252 . S
O145 Sm121 2.408 . S
O145 C130 1.272 . S
O146 Sm121 2.543 . S
O146 C131 1.261 . S
O147 Sm121 2.450 . S
O147 C131 1.242 . S
O148 Sm120 2.386 . S
O148 Sm121 2.681 . S
O148 C138 1.271 . S
O149 Sm121 2.464 . S
O149 C138 1.251 . S
O150 Sm121 2.396 . S
O150 C139 1.252 . S
O151 Sm120 2.408 . S
O151 C139 1.272 . S
H152 C124 0.930 . S
H153 C125 0.929 . S
H154 C127 0.930 . S
H155 C128 0.929 . S
H156 C133 0.930 . S
H157 C134 0.929 . S
H158 C136 0.930 . S
H159 C137 0.929 . S
H160 C168 0.929 . S
H161 C170 0.930 . S
H162 C172 0.930 . S
H163 C175 0.929 . S
H164 C178 0.930 . S
H165 C180 0.960 . S
H166 C180 0.960 . S
H167 C180 0.960 . S
C168 H160 0.929 . S
C168 C169 1.377 . S
C168 C170 1.384 . S
C169 C168 1.377 . S
C169 C175 1.390 1_554 S
C170 H161 0.930 . S
C170 C168 1.384 . S
C170 C171 1.372 . S
C171 C170 1.372 . S
C171 C172 1.400 1_554 S
C171 C176 1.490 . S
C172 H162 0.930 . S
C172 C171 1.400 1_556 S
C172 C175 1.386 . S
H173 C189 0.930 . S
H174 C190 0.931 . S
C175 H163 0.929 . S
C175 C169 1.390 1_556 S
C175 C172 1.386 . S
C176 C171 1.490 . S
C176 C178 1.395 . S
C176 C179 1.403 1_554 S
H177 C183 0.930 . S
C178 H164 0.930 . S
C178 C176 1.395 . S
C178 C181 1.403 . S
C179 C176 1.403 1_556 S
C179 C180 1.524 . S
C179 C183 1.400 . S
C180 H165 0.960 . S
C180 H166 0.960 . S
C180 H167 0.960 . S
C180 C179 1.524 . S
C181 C178 1.403 . S
C181 C182 1.392 . S
C181 C185 1.495 . S
C182 C181 1.392 . S
C182 C183 1.385 1_554 S
C182 C184 1.478 . S
C183 H177 0.930 . S
C183 C179 1.400 . S
C183 C182 1.385 1_556 S
C184 C182 1.478 . S
C184 C186 1.381 . S
C184 C190 1.383 1_554 S
C185 C181 1.495 . S
C185 H191 0.959 . S
C185 H192 0.961 . S
C185 H193 0.960 . S
C186 C184 1.381 . S
C186 C187 1.394 . S
C186 H194 0.930 . S
C187 C186 1.394 . S
C187 C188 1.393 . S
C187 H195 0.929 . S
C188 C187 1.393 . S
C188 C189 1.368 1_554 S
C189 H173 0.930 . S
C189 C188 1.368 1_556 S
C189 C190 1.379 . S
C190 H174 0.931 . S
C190 C184 1.383 1_556 S
C190 C189 1.379 . S
H191 C185 0.959 . S
H192 C185 0.961 . S
H193 C185 0.960 . S
H194 C186 0.930 . S
H195 C187 0.929 . S
H196 C204 0.929 . S
H197 C206 0.930 . S
H198 C208 0.928 . S
H199 C211 0.928 . S
H200 C214 0.930 . S
H201 C216 0.960 . S
H202 C216 0.960 . S
H203 C216 0.960 . S
C204 H196 0.929 . S
C204 C205 1.377 . S
C204 C206 1.384 . S
C205 C204 1.377 . S
C205 C211 1.393 . S
C206 H197 0.930 . S
C206 C204 1.384 . S
C206 C207 1.375 . S
C207 C206 1.375 . S
C207 C208 1.400 . S
C207 C212 1.490 1_556 S
C208 H198 0.928 . S
C208 C207 1.400 . S
C208 C211 1.386 . S
H209 C225 0.930 . S
H210 C226 0.931 . S
C211 H199 0.928 . S
C211 C205 1.393 . S
C211 C208 1.386 . S
C212 C207 1.490 1_554 S
C212 C214 1.407 . S
C212 C215 1.391 1_554 S
H213 C219 0.930 . S
C214 H200 0.930 . S
C214 C212 1.407 . S
C214 C217 1.403 . S
C215 C212 1.391 1_556 S
C215 C216 1.524 . S
C215 C219 1.400 . S
C216 H201 0.960 . S
C216 H202 0.960 . S
C216 H203 0.960 . S
C216 C215 1.524 . S
C217 C214 1.403 . S
C217 C218 1.392 . S
C217 C221 1.495 . S
C218 C217 1.392 . S
C218 C219 1.385 1_554 S
C218 C220 1.478 . S
C219 H213 0.930 . S
C219 C215 1.400 . S
C219 C218 1.385 1_556 S
C220 C218 1.478 . S
C220 C222 1.381 . S
C220 C226 1.383 . S
C221 C217 1.495 . S
C221 H227 0.959 . S
C221 H228 0.961 . S
C221 H229 0.960 . S
C222 C220 1.381 . S
C222 C223 1.395 . S
C222 H230 0.932 . S
C223 C222 1.395 . S
C223 C224 1.385 . S
C223 H231 0.927 1_554 S
C224 C223 1.385 . S
C224 C225 1.377 . S
C225 H209 0.930 . S
C225 C224 1.377 . S
C225 C226 1.379 . S
C226 H210 0.931 . S
C226 C220 1.383 . S
C226 C225 1.379 . S
H227 C221 0.959 . S
H228 C221 0.961 . S
H229 C221 0.960 . S
H230 C222 0.932 . S
H231 C223 0.927 1_556 S
H232 C240 0.929 . S
H233 C242 0.930 . S
H234 C244 0.930 . S
H235 C247 0.929 . S
H236 C250 0.930 . S
H237 C252 0.960 . S
H238 C252 0.960 . S
H239 C252 0.960 . S
C240 H232 0.929 . S
C240 C241 1.377 . S
C240 C242 1.384 . S
C241 C240 1.377 . S
C241 C247 1.390 . S
C242 H233 0.930 . S
C242 C240 1.384 . S
C242 C243 1.372 . S
C243 C242 1.372 . S
C243 C244 1.400 . S
C243 C248 1.490 . S
C244 H234 0.930 . S
C244 C243 1.400 . S
C244 C247 1.386 . S
H245 C261 0.930 . S
H246 C262 0.931 . S
C247 H235 0.929 . S
C247 C241 1.390 . S
C247 C244 1.386 . S
C248 C243 1.490 . S
C248 C250 1.395 . S
C248 C251 1.403 . S
H249 C255 0.930 . S
C250 H236 0.930 . S
C250 C248 1.395 . S
C250 C253 1.403 . S
C251 C248 1.403 . S
C251 C252 1.524 . S
C251 C255 1.400 . S
C252 H237 0.960 . S
C252 H238 0.960 . S
C252 H239 0.960 . S
C252 C251 1.524 . S
C253 C250 1.403 . S
C253 C254 1.392 . S
C253 C257 1.495 . S
C254 C253 1.392 . S
C254 C255 1.385 . S
C254 C256 1.478 . S
C255 H249 0.930 . S
C255 C251 1.400 . S
C255 C254 1.385 . S
C256 C254 1.478 . S
C256 C258 1.381 . S
C256 C262 1.383 . S
C257 C253 1.495 . S
C257 H263 0.959 . S
C257 H264 0.961 . S
C257 H265 0.960 . S
C258 C256 1.381 . S
C258 C259 1.394 . S
C258 H266 0.930 . S
C259 C258 1.394 . S
C259 C260 1.383 . S
C259 H267 0.929 . S
C260 C259 1.383 . S
C260 C261 1.377 . S
C261 H245 0.930 . S
C261 C260 1.377 . S
C261 C262 1.379 . S
C262 H246 0.931 . S
C262 C256 1.383 . S
C262 C261 1.379 . S
H263 C257 0.959 . S
H264 C257 0.961 . S
H265 C257 0.960 . S
H266 C258 0.930 . S
H267 C259 0.929 . S
H268 C276 0.929 . S
H269 C278 0.930 . S
H270 C280 0.930 . S
H271 C283 0.929 . S
H272 C286 0.930 . S
H273 C288 0.960 . S
H274 C288 0.960 . S
H275 C288 0.960 . S
C276 H268 0.929 . S
C276 C277 1.377 . S
C276 C278 1.384 . S
C277 C276 1.377 . S
C277 C283 1.390 . S
C278 H269 0.930 . S
C278 C276 1.384 . S
C278 C279 1.372 . S
C279 C278 1.372 . S
C279 C280 1.400 . S
C279 C284 1.490 . S
C280 H270 0.930 . S
C280 C279 1.400 . S
C280 C283 1.386 . S
H281 C297 0.930 . S
H282 C298 0.931 . S
C283 H271 0.929 . S
C283 C277 1.390 . S
C283 C280 1.386 . S
C284 C279 1.490 . S
C284 C286 1.395 . S
C284 C287 1.403 . S
H285 C291 0.930 . S
C286 H272 0.930 . S
C286 C284 1.395 . S
C286 C289 1.403 . S
C287 C284 1.403 . S
C287 C288 1.524 . S
C287 C291 1.400 . S
C288 H273 0.960 . S
C288 H274 0.960 . S
C288 H275 0.960 . S
C288 C287 1.524 . S
C289 C286 1.403 . S
C289 C290 1.392 . S
C289 C293 1.495 . S
C290 C289 1.392 . S
C290 C291 1.385 . S
C290 C292 1.478 . S
C291 H285 0.930 . S
C291 C287 1.400 . S
C291 C290 1.385 . S
C292 C290 1.478 . S
C292 C294 1.381 . S
C292 C298 1.383 . S
C293 C289 1.495 . S
C293 H299 0.959 . S
C293 H300 0.961 . S
C293 H301 0.960 . S
C294 C292 1.381 . S
C294 C295 1.394 . S
C294 H302 0.930 . S
C295 C294 1.394 . S
C295 C296 1.383 . S
C295 H303 0.929 . S
C296 C295 1.383 . S
C296 C297 1.377 . S
C297 H281 0.930 . S
C297 C296 1.377 . S
C297 C298 1.379 . S
C298 H282 0.931 . S
C298 C292 1.383 . S
C298 C297 1.379 . S
H299 C293 0.959 . S
H300 C293 0.961 . S
H301 C293 0.960 . S
H302 C294 0.930 . S
H303 C295 0.929 . S
H304 C312 0.929 . S
H305 C314 0.930 . S
H306 C316 0.930 . S
H307 C319 0.929 . S
H308 C322 0.930 . S
H309 C324 0.956 1_556 S
H310 C324 0.987 . S
H311 C324 0.938 1_556 S
C312 H304 0.929 . S
C312 C313 1.377 . S
C312 C314 1.384 . S
C313 C312 1.377 . S
C313 C319 1.390 1_554 S
C314 H305 0.930 . S
C314 C312 1.384 . S
C314 C315 1.372 . S
C315 C314 1.372 . S
C315 C316 1.400 1_554 S
C315 C320 1.490 . S
C316 H306 0.930 . S
C316 C315 1.400 1_556 S
C316 C319 1.386 . S
H317 C333 0.930 . S
H318 C334 0.931 . S
C319 H307 0.929 . S
C319 C313 1.390 1_556 S
C319 C316 1.386 . S
C320 C315 1.490 . S
C320 C322 1.395 . S
C320 C323 1.405 1_565 S
H321 C327 0.930 . S
C322 H308 0.930 . S
C322 C320 1.395 . S
C322 C325 1.403 . S
C323 C320 1.405 1_545 S
C323 C324 1.523 . S
C323 C327 1.397 1_554 S
C324 H309 0.956 1_554 S
C324 H310 0.987 . S
C324 H311 0.938 1_554 S
C324 C323 1.523 . S
C325 C322 1.403 . S
C325 C326 1.392 1_565 S
C325 C329 1.495 . S
C326 C325 1.392 1_545 S
C326 C327 1.385 1_554 S
C326 C328 1.477 . S
C327 H321 0.930 . S
C327 C323 1.397 1_556 S
C327 C326 1.385 1_556 S
C328 C326 1.477 . S
C328 C330 1.379 . S
C328 C334 1.386 1_554 S
C329 C325 1.495 . S
C329 H335 0.959 . S
C329 H336 0.961 1_554 S
C329 H337 0.960 . S
C330 C328 1.379 . S
C330 C331 1.394 . S
C330 H338 0.930 . S
C331 C330 1.394 . S
C331 C332 1.383 1_554 S
C331 H339 0.929 . S
C332 C331 1.383 1_556 S
C332 C333 1.377 . S
C333 H317 0.930 . S
C333 C332 1.377 . S
C333 C334 1.379 . S
C334 H318 0.931 . S
C334 C328 1.386 1_556 S
C334 C333 1.379 . S
H335 C329 0.959 . S
H336 C329 0.961 1_556 S
H337 C329 0.960 . S
H338 C330 0.930 . S
H339 C331 0.929 . S
H340 C348 0.929 . S
H341 C350 0.930 . S
H342 C352 0.930 . S
H343 C355 0.929 . S
H344 C358 0.930 . S
H345 C360 0.960 . S
H346 C360 0.960 . S
H347 C360 0.960 . S
C348 H340 0.929 . S
C348 C349 1.377 . S
C348 C350 1.384 . S
C349 C348 1.377 . S
C349 C355 1.390 1_565 S
C350 H341 0.930 . S
C350 C348 1.384 . S
C350 C351 1.372 . S
C351 C350 1.372 . S
C351 C352 1.400 1_565 S
C351 C356 1.490 1_565 S
C352 H342 0.930 . S
C352 C351 1.400 1_545 S
C352 C355 1.386 . S
H353 C369 0.930 . S
H354 C370 0.931 . S
C355 H343 0.929 . S
C355 C349 1.390 1_545 S
C355 C352 1.386 . S
C356 C351 1.490 1_545 S
C356 C358 1.394 . S
C356 C359 1.403 1_545 S
H357 C363 0.930 . S
C358 H344 0.930 . S
C358 C356 1.394 . S
C358 C361 1.403 . S
C359 C356 1.403 1_565 S
C359 C360 1.524 . S
C359 C363 1.400 . S
C360 H345 0.960 . S
C360 H346 0.960 . S
C360 H347 0.960 . S
C360 C359 1.524 . S
C361 C358 1.403 . S
C361 C362 1.392 . S
C361 C365 1.495 . S
C362 C361 1.392 . S
C362 C363 1.385 1_545 S
C362 C364 1.478 . S
C363 H357 0.930 . S
C363 C359 1.400 . S
C363 C362 1.385 1_565 S
C364 C362 1.478 . S
C364 C366 1.381 1_545 S
C364 C370 1.383 . S
C365 C361 1.495 . S
C365 H371 0.959 . S
C365 H372 0.961 . S
C365 H373 0.960 . S
C366 C364 1.381 1_565 S
C366 C367 1.394 . S
C366 H374 0.930 . S
C367 C366 1.394 . S
C367 C368 1.383 1_565 S
C367 H375 0.929 . S
C368 C367 1.383 1_545 S
C368 C369 1.377 . S
C369 H353 0.930 . S
C369 C368 1.377 . S
C369 C370 1.379 . S
C370 H354 0.931 . S
C370 C364 1.383 . S
C370 C369 1.379 . S
H371 C365 0.959 . S
H372 C365 0.961 . S
H373 C365 0.960 . S
H374 C366 0.930 . S
H375 C367 0.929 . S
H376 C384 0.929 . S
H377 C386 0.930 . S
H378 C388 0.930 . S
H379 C391 0.929 . S
H380 C394 0.930 . S
H381 C396 0.960 1_455 S
H382 C396 0.960 . S
H383 C396 0.960 . S
C384 H376 0.929 . S
C384 C385 1.365 1_556 S
C384 C386 1.384 . S
C385 C384 1.365 1_554 S
C385 C391 1.399 . S
C386 H377 0.930 . S
C386 C384 1.384 . S
C386 C387 1.385 . S
C387 C386 1.385 . S
C387 C388 1.384 1_556 S
C387 C392 1.491 . S
C388 H378 0.930 . S
C388 C387 1.384 1_554 S
C388 C391 1.386 . S
H389 C405 0.930 . S
H390 C406 0.931 . S
C391 H379 0.929 . S
C391 C385 1.399 . S
C391 C388 1.386 . S
C392 C387 1.491 . S
C392 C394 1.389 1_556 S
C392 C395 1.411 . S
H393 C399 0.930 . S
C394 H380 0.930 . S
C394 C392 1.389 1_554 S
C394 C397 1.403 . S
C395 C392 1.411 . S
C395 C396 1.524 . S
C395 C399 1.400 1_655 S
C396 H381 0.960 1_655 S
C396 H382 0.960 . S
C396 H383 0.960 . S
C396 C395 1.524 . S
C397 C394 1.403 . S
C397 C398 1.392 1_655 S
C397 C401 1.495 . S
C398 C397 1.392 1_455 S
C398 C399 1.385 1_554 S
C398 C400 1.478 . S
C399 H393 0.930 . S
C399 C395 1.400 1_455 S
C399 C398 1.385 1_556 S
C400 C398 1.478 . S
C400 C402 1.381 1_554 S
C400 C406 1.383 . S
C401 C397 1.495 . S
C401 H407 0.959 . S
C401 H408 0.961 1_655 S
C401 H409 0.960 1_655 S
C402 C400 1.381 1_556 S
C402 C403 1.394 . S
C402 H410 0.930 . S
C403 C402 1.394 . S
C403 C404 1.381 1_556 S
C403 H411 0.929 . S
C404 C403 1.381 1_554 S
C404 C405 1.380 . S
C405 H389 0.930 . S
C405 C404 1.380 . S
C405 C406 1.379 . S
C406 H390 0.931 . S
C406 C400 1.383 . S
C406 C405 1.379 . S
H407 C401 0.959 . S
H408 C401 0.961 1_455 S
H409 C401 0.960 1_455 S
H410 C402 0.930 . S
H411 C403 0.929 . S
H412 C420 0.929 . S
H413 C422 0.930 . S
H414 C424 0.930 . S
H415 C427 0.929 . S
H416 C430 0.930 . S
H417 C432 0.960 . S
H418 C432 0.960 . S
H419 C432 0.960 . S
C420 H412 0.929 . S
C420 C421 1.377 . S
C420 C422 1.384 . S
C421 C420 1.377 . S
C421 C427 1.390 . S
C422 H413 0.930 . S
C422 C420 1.384 . S
C422 C423 1.372 . S
C423 C422 1.372 . S
C423 C424 1.400 . S
C423 C428 1.490 . S
C424 H414 0.930 . S
C424 C423 1.400 . S
C424 C427 1.386 . S
H425 C441 0.930 . S
H426 C442 0.931 . S
C427 H415 0.929 . S
C427 C421 1.390 . S
C427 C424 1.386 . S
C428 C423 1.490 . S
C428 C430 1.395 . S
C428 C431 1.403 . S
H429 C435 0.930 . S
C430 H416 0.930 . S
C430 C428 1.395 . S
C430 C433 1.403 1_455 S
C431 C428 1.403 . S
C431 C432 1.524 . S
C431 C435 1.400 1_455 S
C432 H417 0.960 . S
C432 H418 0.960 . S
C432 H419 0.960 . S
C432 C431 1.524 . S
C433 C430 1.403 1_655 S
C433 C434 1.392 . S
C433 C437 1.495 . S
C434 C433 1.392 . S
C434 C435 1.385 . S
C434 C436 1.478 . S
C435 H429 0.930 . S
C435 C431 1.400 1_655 S
C435 C434 1.385 . S
C436 C434 1.478 . S
C436 C438 1.381 . S
C436 C442 1.383 . S
C437 C433 1.495 . S
C437 H443 0.959 . S
C437 H444 0.961 . S
C437 H445 0.960 . S
C438 C436 1.381 . S
C438 C439 1.394 . S
C438 H446 0.930 . S
C439 C438 1.394 . S
C439 C440 1.383 . S
C439 H447 0.929 . S
C440 C439 1.383 . S
C440 C441 1.377 . S
C441 H425 0.930 . S
C441 C440 1.377 . S
C441 C442 1.379 . S
C442 H426 0.931 . S
C442 C436 1.383 . S
C442 C441 1.379 . S
H443 C437 0.959 . S
H444 C437 0.961 . S
H445 C437 0.960 . S
H446 C438 0.930 . S
H447 C439 0.929 . S
H448 C456 0.929 . S
H449 C458 0.930 . S
H450 C460 0.930 . S
H451 C463 0.929 . S
H452 C466 0.930 . S
H453 C468 0.960 . S
H454 C468 0.960 . S
H455 C468 0.960 . S
C456 H448 0.929 . S
C456 C457 1.377 1_455 S
C456 C458 1.384 . S
C457 C456 1.377 1_655 S
C457 C463 1.390 1_545 S
C458 H449 0.930 . S
C458 C456 1.384 . S
C458 C459 1.372 . S
C459 C458 1.372 . S
C459 C460 1.400 1_445 S
C459 C464 1.490 . S
C460 H450 0.930 . S
C460 C459 1.400 1_665 S
C460 C463 1.386 . S
H461 C477 0.930 . S
H462 C478 0.931 . S
C463 H451 0.929 . S
C463 C457 1.390 1_565 S
C463 C460 1.386 . S
C464 C459 1.490 . S
C464 C466 1.374 1_545 S
C464 C467 1.425 1_455 S
H465 C471 0.930 . S
C466 H452 0.930 . S
C466 C464 1.374 1_565 S
C466 C469 1.403 . S
C467 C464 1.425 1_655 S
C467 C468 1.524 . S
C467 C471 1.400 . S
C468 H453 0.960 . S
C468 H454 0.960 . S
C468 H455 0.960 . S
C468 C467 1.524 . S
C469 C466 1.403 . S
C469 C470 1.392 . S
C469 C473 1.495 . S
C470 C469 1.392 . S
C470 C471 1.385 1_465 S
C470 C472 1.478 . S
C471 H465 0.930 . S
C471 C467 1.400 . S
C471 C470 1.385 1_645 S
C472 C470 1.478 . S
C472 C474 1.381 1_565 S
C472 C478 1.383 1_455 S
C473 C469 1.495 . S
C473 H479 0.959 . S
C473 H480 0.961 . S
C473 H481 0.960 . S
C474 C472 1.381 1_545 S
C474 C475 1.394 . S
C474 H482 0.930 . S
C475 C474 1.394 . S
C475 C476 1.377 1_545 S
C475 H483 0.929 . S
C476 C475 1.377 1_565 S
C476 C477 1.385 1_455 S
C477 H461 0.930 . S
C477 C476 1.385 1_655 S
C477 C478 1.379 . S
C478 H462 0.931 . S
C478 C472 1.383 1_655 S
C478 C477 1.379 . S
H479 C473 0.959 . S
H480 C473 0.961 . S
H481 C473 0.960 . S
H482 C474 0.930 . S
H483 C475 0.929 . S
H484 C492 0.929 . S
H485 C494 0.930 . S
H486 C496 0.930 . S
H487 C499 0.929 . S
H488 C502 0.930 . S
H489 C504 0.960 . S
H490 C504 0.960 1_655 S
H491 C504 0.960 . S
C492 H484 0.929 . S
C492 C493 1.374 1_645 S
C492 C494 1.384 . S
C493 C492 1.374 1_465 S
C493 C499 1.394 . S
C494 H485 0.930 . S
C494 C492 1.384 . S
C494 C495 1.369 1_545 S
C495 C494 1.369 1_565 S
C495 C496 1.404 1_655 S
C495 C500 1.488 1_565 S
C496 H486 0.930 . S
C496 C495 1.404 1_455 S
C496 C499 1.386 . S
H497 C513 0.930 . S
H498 C514 0.931 . S
C499 H487 0.929 . S
C499 C493 1.394 . S
C499 C496 1.386 . S
C500 C495 1.488 1_545 S
C500 C502 1.418 . S
C500 C503 1.381 1_645 S
H501 C507 0.930 . S
C502 H488 0.930 . S
C502 C500 1.418 . S
C502 C505 1.403 . S
C503 C500 1.381 1_465 S
C503 C504 1.524 . S
C503 C507 1.400 . S
C504 H489 0.960 . S
C504 H490 0.960 1_455 S
C504 H491 0.960 . S
C504 C503 1.524 . S
C505 C502 1.403 . S
C505 C506 1.392 . S
C505 C509 1.495 . S
C506 C505 1.392 . S
C506 C507 1.385 1_645 S
C506 C508 1.478 . S
C507 H501 0.930 . S
C507 C503 1.400 . S
C507 C506 1.385 1_465 S
C508 C506 1.478 . S
C508 C510 1.381 . S
C508 C514 1.383 1_645 S
C509 C505 1.495 . S
C509 H515 0.959 . S
C509 H516 0.961 1_655 S
C509 H517 0.960 . S
C510 C508 1.381 . S
C510 C511 1.394 . S
C510 H518 0.930 . S
C511 C510 1.394 . S
C511 C512 1.383 1_655 S
C511 H519 0.929 . S
C512 C511 1.383 1_455 S
C512 C513 1.377 1_545 S
C513 H497 0.930 . S
C513 C512 1.377 1_565 S
C513 C514 1.379 . S
C514 H498 0.931 . S
C514 C508 1.383 1_465 S
C514 C513 1.379 . S
H515 C509 0.959 . S
H516 C509 0.961 1_455 S
H517 C509 0.960 . S
H518 C510 0.930 . S
H519 C511 0.929 . S
H520 C528 0.929 . S
H521 C530 0.930 . S
H522 C532 0.930 . S
H523 C535 0.929 . S
H524 C538 0.930 . S
H525 C540 0.960 . S
H526 C540 0.960 . S
H527 C540 0.960 . S
C528 H520 0.929 . S
C528 C529 1.377 . S
C528 C530 1.384 . S
C529 C528 1.377 . S
C529 C535 1.390 . S
C530 H521 0.930 . S
C530 C528 1.384 . S
C530 C531 1.372 . S
C531 C530 1.372 . S
C531 C532 1.400 . S
C531 C536 1.490 . S
C532 H522 0.930 . S
C532 C531 1.400 . S
C532 C535 1.386 . S
H533 C549 0.930 . S
H534 C550 0.931 . S
C535 H523 0.929 . S
C535 C529 1.390 . S
C535 C532 1.386 . S
C536 C531 1.490 . S
C536 C538 1.395 . S
C536 C539 1.403 . S
H537 C543 0.930 . S
C538 H524 0.930 . S
C538 C536 1.395 . S
C538 C541 1.403 . S
C539 C536 1.403 . S
C539 C540 1.524 . S
C539 C543 1.400 . S
C540 H525 0.960 . S
C540 H526 0.960 . S
C540 H527 0.960 . S
C540 C539 1.524 . S
C541 C538 1.403 . S
C541 C542 1.392 . S
C541 C545 1.495 . S
C542 C541 1.392 . S
C542 C543 1.385 . S
C542 C544 1.478 . S
C543 H537 0.930 . S
C543 C539 1.400 . S
C543 C542 1.385 . S
C544 C542 1.478 . S
C544 C546 1.381 . S
C544 C550 1.383 . S
C545 C541 1.495 . S
C545 H551 0.959 . S
C545 H552 0.961 . S
C545 H553 0.960 . S
C546 C544 1.381 . S
C546 C547 1.394 . S
C546 H554 0.930 . S
C547 C546 1.394 . S
C547 C548 1.383 . S
C547 H555 0.929 . S
C548 C547 1.383 . S
C548 C549 1.377 . S
C549 H533 0.930 . S
C549 C548 1.377 . S
C549 C550 1.379 . S
C550 H534 0.931 . S
C550 C544 1.383 . S
C550 C549 1.379 . S
H551 C545 0.959 . S
H552 C545 0.961 . S
H553 C545 0.960 . S
H554 C546 0.930 . S
H555 C547 0.929 . S
H556 C564 0.929 . S
H557 C566 0.930 . S
H558 C568 0.930 . S
H559 C571 0.929 . S
H560 C574 0.930 . S
H561 C576 0.960 . S
H562 C576 0.960 . S
H563 C576 0.960 . S
C564 H556 0.929 . S
C564 C565 1.377 . S
C564 C566 1.384 . S
C565 C564 1.377 . S
C565 C571 1.390 . S
C566 H557 0.930 . S
C566 C564 1.384 . S
C566 C567 1.372 . S
C567 C566 1.372 . S
C567 C568 1.400 . S
C567 C572 1.490 . S
C568 H558 0.930 . S
C568 C567 1.400 . S
C568 C571 1.386 . S
H569 C585 0.930 . S
H570 C586 0.931 . S
C571 H559 0.929 . S
C571 C565 1.390 . S
C571 C568 1.386 . S
C572 C567 1.490 . S
C572 C574 1.395 . S
C572 C575 1.403 . S
H573 C579 0.930 . S
C574 H560 0.930 . S
C574 C572 1.395 . S
C574 C577 1.403 . S
C575 C572 1.403 . S
C575 C576 1.524 . S
C575 C579 1.400 . S
C576 H561 0.960 . S
C576 H562 0.960 . S
C576 H563 0.960 . S
C576 C575 1.524 . S
C577 C574 1.403 . S
C577 C578 1.392 . S
C577 C581 1.495 . S
C578 C577 1.392 . S
C578 C579 1.385 . S
C578 C580 1.478 . S
C579 H573 0.930 . S
C579 C575 1.400 . S
C579 C578 1.385 . S
C580 C578 1.478 . S
C580 C582 1.381 . S
C580 C586 1.383 . S
C581 C577 1.495 . S
C581 H587 0.959 . S
C581 H588 0.961 . S
C581 H589 0.960 . S
C582 C580 1.381 . S
C582 C583 1.394 . S
C582 H590 0.930 . S
C583 C582 1.394 . S
C583 C584 1.383 . S
C583 H591 0.929 . S
C584 C583 1.383 . S
C584 C585 1.377 . S
C585 H569 0.930 . S
C585 C584 1.377 . S
C585 C586 1.379 . S
C586 H570 0.931 . S
C586 C580 1.383 . S
C586 C585 1.379 . S
H587 C581 0.959 . S
H588 C581 0.961 . S
H589 C581 0.960 . S
H590 C582 0.930 . S
H591 C583 0.929 . S
C169 C90 3.504 1_554 S
C188 C19 3.501 . S
C205 C99 3.504 1_556 S
C224 C10 3.500 1_554 S
C241 C55 0.087 . S
C260 C126 0.155 . S
C277 C46 0.081 . S
C296 C135 0.130 . S
C313 C15 0.911 . S
C332 C6 0.886 . S
C349 C59 4.889 . S
C368 C50 4.882 . S
C385 C95 0.915 . S
C404 C86 0.961 1_554 S
C421 C130 4.890 . S
C440 C139 4.887 . S
C457 C49 1.456 1_645 S
C476 C18 1.441 1_565 S
C493 C9 1.448 1_455 S
C512 C58 1.428 1_455 S
C529 C129 1.455 . S
C548 C98 1.424 . S
C565 C138 1.456 . S
C584 C89 1.479 . S
