# Generated by pormake.
# Topology uki, (4)-cn, num edge types: 1
# Building blocks:
#     Node 0, Type 0, BuildingBlock: MUDLON_clean_sbu_0, # of connection points: 4
#     Node 1, Type 0, BuildingBlock: MUDLON_clean_sbu_0, # of connection points: 4
#     Node 2, Type 0, BuildingBlock: MUDLON_clean_sbu_0, # of connection points: 4
#     Node 3, Type 0, BuildingBlock: MUDLON_clean_sbu_0, # of connection points: 4
#     Node 4, Type 0, BuildingBlock: MUDLON_clean_sbu_0, # of connection points: 4
#     Node 5, Type 0, BuildingBlock: MUDLON_clean_sbu_0, # of connection points: 4
#     Node 6, Type 0, BuildingBlock: MUDLON_clean_sbu_0, # of connection points: 4
#     Node 7, Type 0, BuildingBlock: MUDLON_clean_sbu_0, # of connection points: 4
#     Node 8, Type 0, BuildingBlock: MUDLON_clean_sbu_0, # of connection points: 4
#     Node 9, Type 0, BuildingBlock: MUDLON_clean_sbu_0, # of connection points: 4
#     Node 10, Type 0, BuildingBlock: MUDLON_clean_sbu_0, # of connection points: 4
#     Node 11, Type 0, BuildingBlock: MUDLON_clean_sbu_0, # of connection points: 4
#     Node 12, Type 0, BuildingBlock: MUDLON_clean_sbu_0, # of connection points: 4
#     Node 13, Type 0, BuildingBlock: MUDLON_clean_sbu_0, # of connection points: 4
#     Node 14, Type 0, BuildingBlock: MUDLON_clean_sbu_0, # of connection points: 4
#     Node 15, Type 0, BuildingBlock: MUDLON_clean_sbu_0, # of connection points: 4
#     Edge 16, Type (0, 0), BuildingBlock: TEMPAE_clean_linker_10, # of connection points: 2
#     Edge 17, Type (0, 0), BuildingBlock: TEMPAE_clean_linker_10, # of connection points: 2
#     Edge 18, Type (0, 0), BuildingBlock: TEMPAE_clean_linker_10, # of connection points: 2
#     Edge 19, Type (0, 0), BuildingBlock: TEMPAE_clean_linker_10, # of connection points: 2
#     Edge 20, Type (0, 0), BuildingBlock: TEMPAE_clean_linker_10, # of connection points: 2
#     Edge 21, Type (0, 0), BuildingBlock: TEMPAE_clean_linker_10, # of connection points: 2
#     Edge 22, Type (0, 0), BuildingBlock: TEMPAE_clean_linker_10, # of connection points: 2
#     Edge 23, Type (0, 0), BuildingBlock: TEMPAE_clean_linker_10, # of connection points: 2
#     Edge 24, Type (0, 0), BuildingBlock: TEMPAE_clean_linker_10, # of connection points: 2
#     Edge 25, Type (0, 0), BuildingBlock: TEMPAE_clean_linker_10, # of connection points: 2
#     Edge 26, Type (0, 0), BuildingBlock: TEMPAE_clean_linker_10, # of connection points: 2
#     Edge 27, Type (0, 0), BuildingBlock: TEMPAE_clean_linker_10, # of connection points: 2
#     Edge 28, Type (0, 0), BuildingBlock: TEMPAE_clean_linker_10, # of connection points: 2
#     Edge 29, Type (0, 0), BuildingBlock: TEMPAE_clean_linker_10, # of connection points: 2
#     Edge 30, Type (0, 0), BuildingBlock: TEMPAE_clean_linker_10, # of connection points: 2
#     Edge 31, Type (0, 0), BuildingBlock: TEMPAE_clean_linker_10, # of connection points: 2
#     Edge 32, Type (0, 0), BuildingBlock: TEMPAE_clean_linker_10, # of connection points: 2
#     Edge 33, Type (0, 0), BuildingBlock: TEMPAE_clean_linker_10, # of connection points: 2
#     Edge 34, Type (0, 0), BuildingBlock: TEMPAE_clean_linker_10, # of connection points: 2
#     Edge 35, Type (0, 0), BuildingBlock: TEMPAE_clean_linker_10, # of connection points: 2
#     Edge 36, Type (0, 0), BuildingBlock: TEMPAE_clean_linker_10, # of connection points: 2
#     Edge 37, Type (0, 0), BuildingBlock: TEMPAE_clean_linker_10, # of connection points: 2
#     Edge 38, Type (0, 0), BuildingBlock: TEMPAE_clean_linker_10, # of connection points: 2
#     Edge 39, Type (0, 0), BuildingBlock: TEMPAE_clean_linker_10, # of connection points: 2
#     Edge 40, Type (0, 0), BuildingBlock: TEMPAE_clean_linker_10, # of connection points: 2
#     Edge 41, Type (0, 0), BuildingBlock: TEMPAE_clean_linker_10, # of connection points: 2
#     Edge 42, Type (0, 0), BuildingBlock: TEMPAE_clean_linker_10, # of connection points: 2
#     Edge 43, Type (0, 0), BuildingBlock: TEMPAE_clean_linker_10, # of connection points: 2
#     Edge 44, Type (0, 0), BuildingBlock: TEMPAE_clean_linker_10, # of connection points: 2
#     Edge 45, Type (0, 0), BuildingBlock: TEMPAE_clean_linker_10, # of connection points: 2
#     Edge 46, Type (0, 0), BuildingBlock: TEMPAE_clean_linker_10, # of connection points: 2
#     Edge 47, Type (0, 0), BuildingBlock: TEMPAE_clean_linker_10, # of connection points: 2
# Relax obj value: 0.065
# Max RMSD: 0.231
# Mean RMSD: 0.231
data_MOF--net-uki--node1-MUDLON_clean_sbu_0--edge1-TEMPAE_clean_linker_10
_symmetry_space_group_name_H-M    P1
_symmetry_Int_Tables_number       1
_symmetry_cell_setting            triclinic
loop_
_symmetry_equiv_pos_as_xyz
'x, y, z'
_cell_length_a     33.047267
_cell_length_b     33.192756
_cell_length_c     73.652969
_cell_angle_alpha  89.99005
_cell_angle_beta   89.997942
_cell_angle_gamma 89.944971
loop_
_atom_site_label
_atom_site_type_symbol
_atom_site_fract_x
_atom_site_fract_y
_atom_site_fract_z
_atom_type_partial_charge
Mg0 Mg 0.10622 0.23291 0.30131 0.0
C1 C 0.01622 0.25254 0.30523 0.0
O2 O 1.01337 0.21349 0.30783 0.0
C3 C 0.16238 0.25915 0.33188 0.0
O4 O 0.15999 0.2935 0.32308 0.0
C5 C 0.12311 0.28356 0.26848 0.0
O6 O 0.08404 0.27759 0.26656 0.0
O7 O 0.14156 0.26578 0.28136 0.0
O8 O 0.05108 0.26838 0.3037 0.0
O9 O 0.08907 0.17291 0.29212 0.0
C10 C 0.09389 0.14292 0.30266 0.0
O11 O 0.1112 0.14867 0.3185 0.0
O12 O 0.14195 0.22922 0.32621 0.0
Mg13 Mg 0.24025 0.92302 0.71326 0.0
C14 C 0.25727 1.01257 0.71283 0.0
O15 O 0.21894 0.0134 0.70812 0.0
C16 C 0.22971 0.85386 0.68854 0.0
O17 O 0.20978 0.84314 0.70321 0.0
C18 C 0.27632 0.90064 0.74993 0.0
O19 O 0.27048 0.93918 0.75306 0.0
O20 O 0.26426 0.88565 0.73498 0.0
O21 O 0.27494 0.97866 0.71434 0.0
O22 O 0.17694 0.93987 0.71622 0.0
C23 C 0.16204 0.95395 0.73082 0.0
O24 O 0.18453 0.95514 0.74551 0.0
O25 O 0.24693 0.88816 0.68834 0.0
Mg26 Mg 0.9291 0.79705 0.30462 0.0
C27 C 0.01963 0.78149 0.30986 0.0
O28 O 0.01969 0.81966 0.31459 0.0
C29 C 0.8881 0.77196 0.34104 0.0
O30 O 0.9125 0.74072 0.34047 0.0
C31 C 0.88867 0.7287 0.28745 0.0
O32 O 0.9004 0.71511 0.30335 0.0
O33 O 0.89627 0.76518 0.28341 0.0
O34 O 0.98594 0.7641 0.30697 0.0
O35 O 0.94345 0.85914 0.29765 0.0
C36 C 0.9704 0.86837 0.28604 0.0
O37 O 0.98806 0.83951 0.27674 0.0
O38 O 0.89028 0.79855 0.32864 0.0
Mg39 Mg 0.80287 0.10283 0.71381 0.0
C40 C 0.78132 0.02272 0.7263 0.0
O41 O 0.8119 0.03416 0.73646 0.0
C42 C 0.82231 0.16659 0.68616 0.0
O43 O 0.85091 0.17257 0.69824 0.0
C44 C 0.75933 0.16887 0.73471 0.0
O45 O 0.76324 0.1876 0.7191 0.0
O46 O 0.77606 0.13465 0.73673 0.0
O47 O 0.76917 0.04642 0.71384 0.0
O48 O 0.86508 0.08314 0.71791 0.0
C49 C 0.89496 0.10151 0.72491 0.0
O50 O 0.89079 0.13892 0.73042 0.0
O51 O 0.79705 0.13826 0.68885 0.0
Mg52 Mg 0.10557 0.2893 0.96565 0.0
C53 C 0.01647 0.26584 0.95971 0.0
O54 O 1.01262 0.30375 0.95492 0.0
C55 C 0.14902 0.26611 0.92961 0.0
O56 O 0.12661 0.23349 0.93032 0.0
C57 C 0.14747 0.22306 0.98364 0.0
O58 O 0.13446 0.20792 0.96824 0.0
O59 O 0.14009 0.25991 0.98705 0.0
O60 O 0.05153 0.25201 0.96323 0.0
O61 O 0.08653 0.35012 0.97269 0.0
C62 C 0.07597 0.37266 0.95955 0.0
O63 O 0.07861 0.35841 0.94294 0.0
O64 O 0.14494 0.29289 0.94184 0.0
Mg65 Mg 0.30377 0.92303 0.05143 0.0
C66 C 0.29497 0.01363 0.05392 0.0
O67 O 0.33432 1.01139 0.05164 0.0
C68 C 0.2742 0.86908 0.08254 0.0
O69 O 0.23859 0.87824 0.07575 0.0
C70 C 0.25691 0.85954 0.02922 0.0
O71 O 0.27525 0.83373 0.03996 0.0
O72 O 0.26518 0.8968 0.03061 0.0
O73 O 0.27505 0.98121 0.05614 0.0
O74 O 0.36495 0.93545 0.04187 0.0
C75 C 0.39419 0.93329 0.05307 0.0
O76 O 0.38701 0.92029 0.0696 0.0
O77 O 0.30577 0.88412 0.07534 0.0
Mg78 Mg 0.91834 0.72906 0.96696 0.0
C79 C 0.98722 0.77104 0.98266 0.0
O80 O 0.96479 0.75968 0.99647 0.0
C81 C 0.88033 0.7545 0.92983 0.0
O82 O 0.90329 0.78665 0.93121 0.0
C83 C 0.86169 0.78818 0.98353 0.0
O84 O 0.8613 0.79864 0.96634 0.0
O85 O 0.88195 0.75727 0.9882 0.0
O86 O 0.97462 0.76358 0.96667 0.0
O87 O 0.9361 0.66714 0.97311 0.0
C88 C 0.97194 0.65703 0.96865 0.0
O89 O 0.99553 0.68415 0.96115 0.0
O90 O 0.88232 0.72744 0.94204 0.0
Mg91 Mg 0.73959 0.10429 0.05391 0.0
C92 C 0.75615 0.01449 0.05898 0.0
O93 O 0.71962 0.01511 0.06602 0.0
C94 C 0.7199 0.16916 0.08034 0.0
O95 O 0.69561 0.17743 0.06671 0.0
C96 C 0.78235 0.12539 0.01859 0.0
O97 O 0.77392 0.0876 0.01491 0.0
O98 O 0.76946 0.14066 0.03335 0.0
O99 O 0.77258 0.04757 0.05434 0.0
O100 O 0.6766 0.08992 0.04795 0.0
C101 C 0.66771 0.06205 0.03678 0.0
O102 O 0.69695 0.04465 0.02757 0.0
O103 O 0.74268 0.13832 0.0792 0.0
Mg104 Mg 0.5925 0.7401 0.80935 0.0
C105 C 0.50221 0.7587 0.81356 0.0
O106 O 0.49963 0.71976 0.81654 0.0
C107 C 0.66904 0.7332 0.83053 0.0
O108 O 0.6803 0.7219 0.8142 0.0
C109 C 0.62439 0.80934 0.79013 0.0
O110 O 0.60696 0.82369 0.80481 0.0
O111 O 0.62416 0.77141 0.78765 0.0
O112 O 0.53693 0.77475 0.81185 0.0
O113 O 0.57423 0.67892 0.80252 0.0
C114 C 0.58495 0.64867 0.81196 0.0
O115 O 0.61053 0.65392 0.8254 0.0
O116 O 0.63208 0.74249 0.83312 0.0
Mg117 Mg 0.73729 0.42358 0.21433 0.0
C118 C 0.75023 0.51376 0.21576 0.0
O119 O 0.71051 0.51291 0.21561 0.0
C120 C 0.72234 0.35579 0.18907 0.0
O121 O 0.70513 0.34366 0.2042 0.0
C122 C 0.78148 0.39903 0.24912 0.0
O123 O 0.77071 0.43534 0.25435 0.0
O124 O 0.76968 0.38614 0.23374 0.0
O125 O 0.76959 0.48082 0.21401 0.0
O126 O 0.67476 0.43619 0.22203 0.0
C127 C 0.64895 0.44161 0.20944 0.0
O128 O 0.6604 0.43659 0.19251 0.0
O129 O 0.73887 0.39041 0.18877 0.0
Mg130 Mg 0.42935 0.29227 0.80614 0.0
C131 C 0.49762 0.24511 0.79098 0.0
O132 O 0.47098 0.24506 0.77776 0.0
C133 C 0.35771 0.29983 0.82998 0.0
O134 O 0.34564 0.3154 0.81448 0.0
C135 C 0.37703 0.22988 0.78996 0.0
O136 O 0.38164 0.2176 0.80679 0.0
O137 O 0.39297 0.26314 0.78524 0.0
O138 O 0.48822 0.26194 0.80594 0.0
O139 O 0.44349 0.35497 0.80015 0.0
C140 C 0.44063 0.38167 0.81247 0.0
O141 O 0.42567 0.37152 0.82834 0.0
O142 O 0.3941 0.2874 0.8312 0.0
Mg143 Mg 0.29788 0.61011 0.21515 0.0
C144 C 0.24643 0.5441 0.22958 0.0
O145 O 0.25025 0.56815 0.24362 0.0
C146 C 0.29932 0.68224 0.19072 0.0
O147 O 0.30859 0.69818 0.20651 0.0
C148 C 0.23619 0.66151 0.23247 0.0
O149 O 0.22203 0.65549 0.21602 0.0
O150 O 0.27058 0.64678 0.23655 0.0
O151 O 0.26301 0.55417 0.21464 0.0
O152 O 0.36119 0.59348 0.21979 0.0
C153 C 0.36946 0.55885 0.22627 0.0
O154 O 0.33957 0.53533 0.23131 0.0
O155 O 0.29327 0.6444 0.18985 0.0
Mg156 Mg 0.59949 0.78531 0.46107 0.0
C157 C 0.51031 0.76398 0.45654 0.0
O158 O 0.50747 0.80232 0.45229 0.0
C159 C 0.67468 0.79425 0.43929 0.0
O160 O 0.68568 0.80725 0.45541 0.0
C161 C 0.64485 0.72099 0.47833 0.0
O162 O 0.63578 0.70765 0.46203 0.0
O163 O 0.63361 0.75636 0.48268 0.0
O164 O 0.54512 0.74877 0.4593 0.0
O165 O 0.57963 0.84637 0.46736 0.0
C166 C 0.58745 0.87574 0.45684 0.0
O167 O 0.61069 0.86959 0.44264 0.0
O168 O 0.63816 0.78315 0.43701 0.0
Mg169 Mg 0.80295 0.42124 0.55205 0.0
C170 C 0.79037 0.51142 0.55055 0.0
O171 O 0.83002 0.5102 0.5495 0.0
C172 C 0.81348 0.35018 0.5764 0.0
O173 O 0.82722 0.33658 0.56082 0.0
C174 C 0.7363 0.37346 0.5364 0.0
O175 O 0.7248 0.37902 0.5533 0.0
O176 O 0.77041 0.38735 0.53143 0.0
O177 O 0.77114 0.47874 0.55321 0.0
O178 O 0.86517 0.43395 0.54405 0.0
C179 C 0.89372 0.43237 0.55561 0.0
O180 O 0.88576 0.41988 0.57215 0.0
O181 O 0.80094 0.38641 0.57722 0.0
Mg182 Mg 0.42886 0.23075 0.46149 0.0
C183 C 0.51947 0.24392 0.46173 0.0
O184 O 0.51887 0.20443 0.46062 0.0
C185 C 0.35466 0.23064 0.43824 0.0
O186 O 0.33963 0.22341 0.45443 0.0
C187 C 0.3809 0.29516 0.47879 0.0
O188 O 0.38521 0.30795 0.46202 0.0
O189 O 0.39572 0.26108 0.48308 0.0
O190 O 0.48619 0.26312 0.46069 0.0
O191 O 0.44355 0.16834 0.46794 0.0
C192 C 0.43795 0.14036 0.45642 0.0
O193 O 0.41942 0.14884 0.44111 0.0
O194 O 0.39279 0.23489 0.43662 0.0
Mg195 Mg 0.24213 0.60053 0.55396 0.0
C196 C 0.26199 0.51078 0.55709 0.0
O197 O 0.22545 0.50913 0.56408 0.0
C198 C 0.22607 0.66614 0.5803 0.0
O199 O 0.20216 0.67526 0.56665 0.0
C200 C 0.27932 0.62418 0.51771 0.0
O201 O 0.27049 0.58662 0.51373 0.0
O202 O 0.26856 0.63834 0.53301 0.0
O203 O 0.27708 0.54496 0.55321 0.0
O204 O 0.17878 0.58524 0.54937 0.0
C205 C 0.16874 0.558 0.53808 0.0
O206 O 0.1969 0.54137 0.52795 0.0
O207 O 0.24743 0.63429 0.57925 0.0
C208 C 0.18426 0.32525 0.26131 0.0
C209 C 0.14348 0.316 0.25807 0.0
C210 C 0.2019 0.36012 0.25398 0.0
C211 C 0.17818 0.38642 0.24319 0.0
C212 C 0.13789 0.37574 0.23881 0.0
C213 C 0.12105 0.34062 0.24627 0.0
C214 C 0.2451 0.37022 0.25885 0.0
C215 C 0.1116 0.40286 0.22732 0.0
C216 C 0.20401 0.49714 0.24778 0.0
C217 C 0.22635 0.50455 0.23194 0.0
C218 C 0.18752 0.4591 0.25132 0.0
C219 C 0.19357 0.42741 0.23875 0.0
C220 C 0.21514 0.43486 0.22247 0.0
C221 C 0.23124 0.47346 0.21922 0.0
C222 C 0.16441 0.45261 0.26879 0.0
C223 C 0.22216 0.40181 0.20875 0.0
H224 H 0.20196 0.30625 0.27028 0.0
H225 H 0.08959 0.33363 0.24356 0.0
H226 H 0.26221 0.37959 0.24661 0.0
H227 H 0.24542 0.3959 0.26849 0.0
H228 H 0.26099 0.34438 0.26527 0.0
H229 H 0.08323 0.38769 0.22301 0.0
H230 H 0.10343 0.43014 0.23523 0.0
H231 H 0.12818 0.41302 0.21506 0.0
H232 H 0.19981 0.52106 0.25763 0.0
H233 H 0.2486 0.47894 0.20698 0.0
H234 H 0.18022 0.42988 0.27727 0.0
H235 H 0.13376 0.44072 0.26581 0.0
H236 H 0.1612 0.48076 0.27682 0.0
H237 H 0.24149 0.37802 0.21483 0.0
H238 H 0.2371 0.4131 0.19624 0.0
H239 H 0.19303 0.3875 0.20497 0.0
C240 C 0.46949 0.818 0.79868 0.0
C241 C 0.46557 0.78199 0.80851 0.0
C242 C 0.43562 0.83709 0.79108 0.0
C243 C 0.39666 0.82033 0.7937 0.0
C244 C 0.39218 0.78549 0.80462 0.0
C245 C 0.42676 0.76644 0.81172 0.0
C246 C 0.44188 0.87387 0.77932 0.0
C247 C 0.35105 0.76738 0.80815 0.0
C248 C 0.31076 0.89015 0.77988 0.0
C249 C 0.30254 0.87673 0.7622 0.0
C250 C 0.33963 0.87056 0.79079 0.0
C251 C 0.36147 0.83742 0.78365 0.0
C252 C 0.35209 0.82278 0.76609 0.0
C253 C 0.32242 0.84232 0.75567 0.0
C254 C 0.34793 0.88634 0.80964 0.0
C255 C 0.37505 0.78792 0.75784 0.0
H256 H 0.49934 0.83023 0.79607 0.0
H257 H 0.42346 0.73878 0.81941 0.0
H258 H 0.43302 0.8669 0.76513 0.0
H259 H 0.42238 0.89897 0.78403 0.0
H260 H 0.47384 0.88424 0.77934 0.0
H261 H 0.35209 0.74386 0.81887 0.0
H262 H 0.32924 0.7911 0.81229 0.0
H263 H 0.33935 0.7535 0.7955 0.0
H264 H 0.29525 0.91654 0.78507 0.0
H265 H 0.31635 0.83181 0.742 0.0
H266 H 0.37793 0.90129 0.80992 0.0
H267 H 0.34891 0.86119 0.81955 0.0
H268 H 0.32471 0.90847 0.81409 0.0
H269 H 0.40729 0.7964 0.75606 0.0
H270 H 0.36267 0.77888 0.74442 0.0
H271 H 0.37418 0.76146 0.76702 0.0
C272 C 0.81396 0.5518 0.2227 0.0
C273 C 0.77161 0.55103 0.22136 0.0
C274 C 0.83395 0.5843 0.23098 0.0
C275 C 0.81103 0.61658 0.23825 0.0
C276 C 0.76856 0.61728 0.23579 0.0
C277 C 0.74939 0.58461 0.22729 0.0
C278 C 0.87937 0.58271 0.23306 0.0
C279 C 0.74294 0.65098 0.2434 0.0
C280 C 0.85242 0.66455 0.28108 0.0
C281 C 0.86777 0.70125 0.27466 0.0
C282 C 0.83368 0.63709 0.26935 0.0
C283 C 0.83054 0.64624 0.25063 0.0
C284 C 0.84581 0.68332 0.24401 0.0
C285 C 0.86406 0.71058 0.25615 0.0
C286 C 0.81734 0.59814 0.27705 0.0
C287 C 0.84335 0.69387 0.22412 0.0
H288 H 0.83143 0.52619 0.21799 0.0
H289 H 0.71668 0.58451 0.22623 0.0
H290 H 0.89306 0.61224 0.2296 0.0
H291 H 0.8871 0.57607 0.24741 0.0
H292 H 0.89321 0.5591 0.22435 0.0
H293 H 0.71133 0.64988 0.23828 0.0
H294 H 0.74222 0.64869 0.25843 0.0
H295 H 0.75611 0.68072 0.23993 0.0
H296 H 0.85493 0.65719 0.29537 0.0
H297 H 0.87607 0.73882 0.2511 0.0
H298 H 0.83282 0.57213 0.27062 0.0
H299 H 0.78459 0.59544 0.27397 0.0
H300 H 0.82149 0.59601 0.29198 0.0
H301 H 0.86002 0.67108 0.21601 0.0
H302 H 0.85618 0.72409 0.22116 0.0
H303 H 0.8114 0.69325 0.21952 0.0
C304 C 0.57232 0.24246 0.79768 0.0
C305 C 0.53901 0.2299 0.78731 0.0
C306 C 0.6121 0.23275 0.79233 0.0
C307 C 0.6185 0.20993 0.77632 0.0
C308 C 0.58481 0.19533 0.76645 0.0
C309 C 0.54561 0.20552 0.77205 0.0
C310 C 0.64722 0.2486 0.80329 0.0
C311 C 0.5901 0.17053 0.74941 0.0
C312 C 0.70942 0.22029 0.74545 0.0
C313 C 0.729 0.18325 0.74811 0.0
C314 C 0.67512 0.23085 0.75564 0.0
C315 C 0.65994 0.20367 0.76881 0.0
C316 C 0.68152 0.16778 0.77262 0.0
C317 C 0.71586 0.15801 0.76223 0.0
C318 C 0.65332 0.26966 0.75128 0.0
C319 C 0.66661 0.13816 0.78664 0.0
H320 H 0.56744 0.26136 0.80948 0.0
H321 H 0.52002 0.1953 0.76408 0.0
H322 H 0.66997 0.22454 0.8056 0.0
H323 H 0.6624 0.27308 0.79563 0.0
H324 H 0.63737 0.26075 0.81663 0.0
H325 H 0.56083 0.15933 0.74398 0.0
H326 H 0.60491 0.18904 0.73876 0.0
H327 H 0.61002 0.14429 0.75211 0.0
H328 H 0.71961 0.24025 0.73473 0.0
H329 H 0.73091 0.12942 0.76451 0.0
H330 H 0.64549 0.28608 0.76391 0.0
H331 H 0.62459 0.26273 0.74413 0.0
H332 H 0.67167 0.28977 0.74248 0.0
H333 H 0.65687 0.154 0.79917 0.0
H334 H 0.69015 0.11562 0.79024 0.0
H335 H 0.63992 0.12187 0.78121 0.0
C336 C 0.29479 0.08433 0.04221 0.0
C337 C 0.27338 0.05164 0.04953 0.0
C338 C 0.27443 0.11677 0.03406 0.0
C339 C 0.23163 0.11675 0.03342 0.0
C340 C 0.20985 0.08582 0.04236 0.0
C341 C 0.23099 0.05351 0.05025 0.0
C342 C 0.29887 0.14907 0.02468 0.0
C343 C 0.16418 0.08505 0.04229 0.0
C344 C 0.1767 0.20892 0.01458 0.0
C345 C 0.16969 0.19695 0.99658 0.0
C346 C 0.19662 0.18314 0.02688 0.0
C347 C 0.21016 0.14484 0.02092 0.0
C348 C 0.2035 0.13294 1.00271 0.0
C349 C 0.18324 0.159 0.99084 0.0
C350 C 0.20284 0.19664 0.04624 0.0
C351 C 0.21776 0.09254 0.99571 0.0
H352 H 0.32756 0.08343 0.04172 0.0
H353 H 0.21415 0.02866 0.05608 0.0
H354 H 0.29709 0.14463 0.00977 0.0
H355 H 0.28651 0.1794 0.02771 0.0
H356 H 0.33124 0.14825 0.02875 0.0
H357 H 0.15195 0.06334 0.05237 0.0
H358 H 0.15172 0.1154 0.04524 0.0
H359 H 0.15332 0.07608 0.02862 0.0
H360 H 0.16612 0.23814 0.01913 0.0
H361 H 0.17815 0.14954 0.97694 0.0
H362 H 0.23555 0.19638 0.04962 0.0
H363 H 0.18771 0.17531 0.05564 0.0
H364 H 0.19071 0.22737 0.04872 0.0
H365 H 0.25095 0.08963 0.9976 0.0
H366 H 0.21073 0.08816 0.98109 0.0
H367 H 0.20323 0.06793 1.00353 0.0
C368 C 0.19894 0.87515 1.00839 0.0
C369 C 0.22238 0.84651 0.01772 0.0
C370 C 0.16253 0.8643 0.99986 0.0
C371 C 0.14924 0.82381 1.0006 0.0
C372 C 0.17417 0.79428 1.00887 0.0
C373 C 0.21038 0.80599 0.01735 0.0
C374 C 0.13697 0.89671 0.99116 0.0
C375 C 0.16131 0.7507 0.00981 0.0
C376 C 0.03671 0.80294 1.00363 0.0
C377 C 0.02775 0.78844 0.98621 0.0
C378 C 0.07583 0.81547 1.00824 0.0
C379 C 0.10709 0.81335 0.99514 0.0
C380 C 0.09807 0.80003 0.9773 0.0
C381 C 0.05837 0.7878 0.97301 0.0
C382 C 0.08392 0.82989 0.02737 0.0
C383 C 0.13059 0.79737 0.96298 0.0
H384 H 0.20803 0.90652 1.00844 0.0
H385 H 0.22841 0.78356 0.02436 0.0
H386 H 0.12574 0.88671 0.9777 0.0
H387 H 0.11014 0.90275 0.9998 0.0
H388 H 0.15394 0.92533 0.98942 0.0
H389 H 0.18618 0.73077 0.01456 0.0
H390 H 0.13548 0.74769 0.01934 0.0
H391 H 0.15092 0.74008 0.99632 0.0
H392 H 1.01315 0.80383 0.01387 0.0
H393 H 0.05169 0.77643 0.95955 0.0
H394 H 0.09786 0.86027 0.02709 0.0
H395 H 0.10566 0.80929 0.03413 0.0
H396 H 0.05593 0.83131 0.0357 0.0
H397 H 0.14713 0.82635 0.96196 0.0
H398 H 0.11809 0.78968 0.94941 0.0
H399 H 0.15295 0.77396 0.96686 0.0
C400 C 0.85234 0.81158 0.01574 0.0
C401 C 0.84296 0.81513 0.99722 0.0
C402 C 0.83848 0.84029 0.02837 0.0
C403 C 0.81466 0.87313 0.0223 0.0
C404 C 0.8037 0.8758 1.00375 0.0
C405 C 0.81799 0.84684 0.99147 0.0
C406 C 0.85068 0.83638 0.04803 0.0
C407 C 0.7781 0.91016 0.9967 0.0
C408 C 0.7511 0.94047 0.05267 0.0
C409 C 0.77427 0.9759 0.05285 0.0
C410 C 0.76499 0.90568 0.04375 0.0
C411 C 0.80299 0.90631 0.03488 0.0
C412 C 0.82775 0.94099 0.03619 0.0
C413 C 0.81307 0.97538 0.04512 0.0
C414 C 0.73772 0.86929 0.04273 0.0
C415 C 0.86865 0.94283 0.02708 0.0
H416 H 0.87171 0.78721 0.02029 0.0
H417 H 0.81034 0.84968 0.97722 0.0
H418 H 0.8718 0.86108 0.05163 0.0
H419 H 0.82382 0.83932 0.05697 0.0
H420 H 0.86577 0.80714 0.0509 0.0
H421 H 0.77041 0.90663 0.98211 0.0
H422 H 0.74957 0.91239 1.00458 0.0
H423 H 0.79456 0.93902 0.99846 0.0
H424 H 0.72111 0.9405 0.05863 0.0
H425 H 0.83135 1.00248 0.04533 0.0
H426 H 0.75502 0.84131 0.0455 0.0
H427 H 0.72513 0.86674 0.02881 0.0
H428 H 0.71213 0.87129 0.05246 0.0
H429 H 0.8867 0.9156 0.03036 0.0
H430 H 0.88611 0.96992 0.03118 0.0
H431 H 0.86455 0.94356 0.01213 0.0
C432 C 0.82294 0.13313 0.99002 0.0
C433 C 0.81146 0.14795 1.00711 0.0
C434 C 0.85385 0.15176 0.97994 0.0
C435 C 0.87422 0.18555 0.98727 0.0
C436 C 0.86178 0.20145 1.00423 0.0
C437 C 0.83035 0.18269 0.01385 0.0
C438 C 0.86561 0.13446 0.96174 0.0
C439 C 0.88294 0.23721 0.01263 0.0
C440 C 0.98368 0.20697 0.97499 0.0
C441 C 0.98003 0.24179 0.96431 0.0
C442 C 0.94936 0.1875 0.98199 0.0
C443 C 0.91034 0.20277 0.97796 0.0
C444 C 0.90635 0.23637 0.96625 0.0
C445 C 0.94125 0.2557 0.95968 0.0
C446 C 0.95502 0.15196 0.99455 0.0
C447 C 0.86527 0.253 0.9613 0.0
H448 H 0.80832 0.10645 0.98465 0.0
H449 H 0.82178 0.19433 0.02705 0.0
H450 H 0.86707 0.15866 0.95136 0.0
H451 H 0.89619 0.1208 0.96265 0.0
H452 H 0.84405 0.111 0.95706 0.0
H453 H 0.86854 0.24691 0.02555 0.0
H454 H 0.91501 0.22943 0.01542 0.0
H455 H 0.88288 0.26302 1.00307 0.0
H456 H 1.01347 0.19598 0.97867 0.0
H457 H 0.93813 0.28241 0.95133 0.0
H458 H 0.93662 0.12604 0.98987 0.0
H459 H 0.94437 0.16001 1.00837 0.0
H460 H 0.98716 0.1423 0.99546 0.0
H461 H 0.84486 0.22838 0.95686 0.0
H462 H 0.8671 0.27589 0.95033 0.0
H463 H 0.85132 0.26723 0.97341 0.0
C464 C 0.66543 0.82325 0.76199 0.0
C465 C 0.64462 0.83733 0.77734 0.0
C466 C 0.68649 0.85007 0.75058 0.0
C467 C 0.6869 0.89175 0.75474 0.0
C468 C 0.6647 0.90616 0.76984 0.0
C469 C 0.64382 0.87886 0.78088 0.0
C470 C 0.70942 0.83369 0.73447 0.0
C471 C 0.66441 0.95032 0.77485 0.0
C472 C 0.77562 0.95949 0.74427 0.0
C473 C 0.75941 0.98519 0.731 0.0
C474 C 0.75323 0.92721 0.75123 0.0
C475 C 0.71362 0.92014 0.74469 0.0
C476 C 0.69816 0.94406 0.73033 0.0
C477 C 0.72124 0.97648 0.72366 0.0
C478 C 0.77094 0.90256 0.76655 0.0
C479 C 0.65631 0.93702 0.7228 0.0
H480 H 0.66595 0.79125 0.75907 0.0
H481 H 0.62755 0.89015 0.7926 0.0
H482 H 0.70282 0.85179 0.72216 0.0
H483 H 0.74241 0.83588 0.73706 0.0
H484 H 0.70185 0.80167 0.73171 0.0
H485 H 0.64371 0.95692 0.78636 0.0
H486 H 0.6954 0.95993 0.77871 0.0
H487 H 0.65503 0.96883 0.76303 0.0
H488 H 0.80535 0.96557 0.74985 0.0
H489 H 0.70862 0.99601 0.71331 0.0
H490 H 0.76756 0.86991 0.76377 0.0
H491 H 0.7543 0.90917 0.7793 0.0
H492 H 0.80351 0.90917 0.76879 0.0
H493 H 0.65093 0.9044 0.72058 0.0
H494 H 0.65148 0.95328 0.70979 0.0
H495 H 0.63345 0.94773 0.73272 0.0
C496 C 0.9833 0.31344 0.2917 0.0
C497 C 0.97958 0.27652 0.30084 0.0
C498 C 0.94914 0.33369 0.28497 0.0
C499 C 0.91016 0.31706 0.28772 0.0
C500 C 0.90601 0.28104 0.29786 0.0
C501 C 0.9408 0.26098 0.30415 0.0
C502 C 0.95501 0.37176 0.27405 0.0
C503 C 0.86495 0.2628 0.30143 0.0
C504 C 0.82165 0.38711 0.27757 0.0
C505 C 0.81135 0.37552 0.25983 0.0
C506 C 0.85267 0.3673 0.28715 0.0
C507 C 0.87435 0.33565 0.27867 0.0
C508 C 0.86332 0.32313 0.26097 0.0
C509 C 0.83177 0.34295 0.25185 0.0
C510 C 0.86298 0.38097 0.30613 0.0
C511 C 0.88594 0.28983 0.25133 0.0
H512 H 1.01311 0.32564 0.289 0.0
H513 H 0.93765 0.2326 0.3113 0.0
H514 H 0.94543 0.3665 0.2598 0.0
H515 H 0.93585 0.39635 0.27953 0.0
H516 H 0.98702 0.38198 0.274 0.0
H517 H 0.86647 0.23753 0.31129 0.0
H518 H 0.84382 0.286 0.30671 0.0
H519 H 0.85206 0.25128 0.28853 0.0
H520 H 0.80589 0.4121 0.28388 0.0
H521 H 0.82414 0.33382 0.23814 0.0
H522 H 0.89347 0.39491 0.30623 0.0
H523 H 0.86395 0.35479 0.31549 0.0
H524 H 0.84085 0.40328 0.31144 0.0
H525 H 0.91803 0.29873 0.24945 0.0
H526 H 0.87279 0.28282 0.23782 0.0
H527 H 0.88573 0.26201 0.25967 0.0
C528 C 0.25442 0.08501 0.72219 0.0
C529 C 0.27708 0.04962 0.71973 0.0
C530 C 0.2705 0.11806 0.73164 0.0
C531 C 0.31029 0.11581 0.73868 0.0
C532 C 0.33427 0.08131 0.73513 0.0
C533 C 0.31735 0.04857 0.72575 0.0
C534 C 0.24391 0.15425 0.73515 0.0
C535 C 0.377 0.07789 0.74222 0.0
C536 C 0.36247 0.2089 0.75784 0.0
C537 C 0.35709 0.20319 0.77657 0.0
C538 C 0.34684 0.18111 0.74524 0.0
C539 C 0.3251 0.14712 0.75154 0.0
C540 C 0.31844 0.14204 0.77039 0.0
C541 C 0.33462 0.17002 0.78265 0.0
C542 C 0.35465 0.18743 0.72525 0.0
C543 C 0.29504 0.10646 0.77769 0.0
H544 H 0.22332 0.08623 0.71755 0.0
H545 H 0.3352 0.02151 0.72379 0.0
H546 H 0.23532 0.15502 0.74971 0.0
H547 H 0.26047 0.18254 0.73216 0.0
H548 H 0.21579 0.15358 0.72689 0.0
H549 H 0.3932 0.05147 0.73646 0.0
H550 H 0.39442 0.10554 0.73901 0.0
H551 H 0.37635 0.07477 0.75722 0.0
H552 H 0.37998 0.23438 0.75305 0.0
H553 H 0.3301 0.16553 0.79709 0.0
H554 H 0.3258 0.1864 0.71756 0.0
H555 H 0.37406 0.16274 0.72002 0.0
H556 H 0.36983 0.21663 0.72247 0.0
H557 H 0.26472 0.10504 0.77126 0.0
H558 H 0.29104 0.10787 0.79266 0.0
H559 H 0.3111 0.07808 0.77429 0.0
C560 C 0.05753 0.72138 0.29825 0.0
C561 C 0.05765 0.76188 0.30371 0.0
C562 C 0.09067 0.7046 0.289 0.0
C563 C 0.12471 0.72896 0.285 0.0
C564 C 0.12625 0.76895 0.29166 0.0
C565 C 0.09277 0.78489 0.30099 0.0
C566 C 0.08796 0.66166 0.28236 0.0
C567 C 0.16194 0.79593 0.28773 0.0
C568 C 0.2177 0.67742 0.26483 0.0
C569 C 0.21043 0.6819 0.24617 0.0
C570 C 0.1906 0.69332 0.27775 0.0
C571 C 0.15571 0.71439 0.27182 0.0
C572 C 0.14917 0.72025 0.253 0.0
C573 C 0.17647 0.70383 0.24045 0.0
C574 C 0.19854 0.68637 0.29768 0.0
C575 C 0.11264 0.74292 0.24606 0.0
H576 H 0.03071 0.70322 0.30043 0.0
H577 H 0.09328 0.81619 0.30517 0.0
H578 H 0.0839 0.66153 0.2674 0.0
H579 H 0.11634 0.64511 0.28539 0.0
H580 H 0.0622 0.64521 0.28859 0.0
H581 H 0.16128 0.82386 0.29603 0.0
H582 H 0.19081 0.77986 0.29032 0.0
H583 H 0.1616 0.8046 0.27318 0.0
H584 H 0.24379 0.66033 0.26935 0.0
H585 H 0.17079 0.7077 0.22606 0.0
H586 H 0.17483 0.66633 0.30334 0.0
H587 H 0.19693 0.71524 0.30523 0.0
H588 H 0.22857 0.67234 0.30014 0.0
H589 H 0.08462 0.72662 0.2499 0.0
H590 H 0.11304 0.74654 0.23106 0.0
H591 H 0.11114 0.77324 0.25236 0.0
C592 C 0.72593 0.54932 0.54471 0.0
C593 C 0.76838 0.54846 0.54502 0.0
C594 C 0.70498 0.58117 0.53634 0.0
C595 C 0.72701 0.61269 0.52796 0.0
C596 C 0.76971 0.61346 0.52941 0.0
C597 C 0.78986 0.58145 0.538 0.0
C598 C 0.65939 0.57952 0.53533 0.0
C599 C 0.79439 0.64641 0.52064 0.0
C600 C 0.6815 0.65713 0.48517 0.0
C601 C 0.66663 0.69437 0.49123 0.0
C602 C 0.70119 0.63055 0.49701 0.0
C603 C 0.7061 0.64125 0.51548 0.0
C604 C 0.69136 0.67886 0.52175 0.0
C605 C 0.67186 0.7051 0.50951 0.0
C606 C 0.71667 0.59087 0.48971 0.0
C607 C 0.69591 0.69117 0.54136 0.0
H608 H 0.70903 0.52419 0.55025 0.0
H609 H 0.82265 0.58128 0.53827 0.0
H610 H 0.64606 0.60937 0.53852 0.0
H611 H 0.65006 0.57154 0.52131 0.0
H612 H 0.64658 0.55679 0.54479 0.0
H613 H 0.82653 0.64569 0.52506 0.0
H614 H 0.79347 0.64276 0.50567 0.0
H615 H 0.78155 0.67645 0.52385 0.0
H616 H 0.67774 0.64857 0.47107 0.0
H617 H 0.66034 0.73376 0.51431 0.0
H618 H 0.70207 0.56553 0.49701 0.0
H619 H 0.74975 0.58842 0.49204 0.0
H620 H 0.71075 0.5873 0.47495 0.0
H621 H 0.68064 0.6689 0.55025 0.0
H622 H 0.68293 0.72146 0.54408 0.0
H623 H 0.72838 0.69139 0.54519 0.0
C624 C 0.71628 0.35415 0.50461 0.0
C625 C 0.70865 0.35344 0.52336 0.0
C626 C 0.68867 0.33719 0.49223 0.0
C627 C 0.65282 0.31892 0.49878 0.0
C628 C 0.64543 0.31748 0.51771 0.0
C629 C 0.67332 0.33481 0.52972 0.0
C630 C 0.69749 0.33942 0.47215 0.0
C631 C 0.60775 0.29798 0.52531 0.0
C632 C 0.55657 0.30633 0.4713 0.0
C633 C 0.55679 0.26473 0.4679 0.0
C634 C 0.58904 0.325 0.48028 0.0
C635 C 0.62244 0.30149 0.48606 0.0
C636 C 0.6241 0.26009 0.48153 0.0
C637 C 0.59133 0.24224 0.47245 0.0
C638 C 0.5863 0.36935 0.48465 0.0
C639 C 0.65915 0.23394 0.48741 0.0
H640 H 0.74345 0.36861 0.49957 0.0
H641 H 0.66722 0.33394 0.54418 0.0
H642 H 0.69711 0.30878 0.46614 0.0
H643 H 0.67356 0.35718 0.46524 0.0
H644 H 0.72728 0.35353 0.46926 0.0
H645 H 0.60696 0.29861 0.54038 0.0
H646 H 0.58048 0.31371 0.5201 0.0
H647 H 0.6059 0.26616 0.52077 0.0
H648 H 0.53019 0.32406 0.46771 0.0
H649 H 0.592 0.21013 0.46979 0.0
H650 H 0.61513 0.38476 0.4813 0.0
H651 H 0.58101 0.37326 0.49943 0.0
H652 H 0.56128 0.38438 0.47718 0.0
H653 H 0.68838 0.24867 0.48417 0.0
H654 H 0.65847 0.20381 0.48085 0.0
H655 H 0.65803 0.22968 0.50235 0.0
C656 C 0.32172 0.47507 0.54376 0.0
C657 C 0.28181 0.4737 0.55022 0.0
C658 C 0.33855 0.44242 0.53429 0.0
C659 C 0.31477 0.4077 0.53101 0.0
C660 C 0.27536 0.40514 0.53847 0.0
C661 C 0.25942 0.4381 0.54807 0.0
C662 C 0.38091 0.44617 0.52678 0.0
C663 C 0.24894 0.36877 0.53522 0.0
C664 C 0.33815 0.35452 0.48666 0.0
C665 C 0.36131 0.32152 0.49245 0.0
C666 C 0.32187 0.38196 0.49915 0.0
C667 C 0.32926 0.37661 0.51793 0.0
C668 C 0.35175 0.34278 0.52394 0.0
C669 C 0.36734 0.31544 0.51111 0.0
C670 C 0.29758 0.41731 0.49216 0.0
C671 C 0.36045 0.33624 0.54383 0.0
H672 H 0.33934 0.50233 0.54549 0.0
H673 H 0.22854 0.43674 0.55299 0.0
H674 H 0.39872 0.41862 0.52979 0.0
H675 H 0.37951 0.44939 0.5118 0.0
H676 H 0.39713 0.47266 0.53242 0.0
H677 H 0.22139 0.36909 0.54386 0.0
H678 H 0.23938 0.36818 0.52078 0.0
H679 H 0.26597 0.34058 0.53788 0.0
H680 H 0.33307 0.35923 0.47228 0.0
H681 H 0.38534 0.29006 0.51566 0.0
H682 H 0.31349 0.44585 0.4954 0.0
H683 H 0.26764 0.41839 0.49896 0.0
H684 H 0.29274 0.41591 0.47725 0.0
H685 H 0.37989 0.36097 0.54897 0.0
H686 H 0.376 0.30709 0.5464 0.0
H687 H 0.33195 0.33699 0.55178 0.0
C688 C 0.47692 0.70504 0.47145 0.0
C689 C 0.47349 0.74081 0.4614 0.0
C690 C 0.44263 0.68605 0.47871 0.0
C691 C 0.4038 0.70277 0.47559 0.0
C692 C 0.39989 0.73741 0.4645 0.0
C693 C 0.43482 0.75625 0.45767 0.0
C694 C 0.44823 0.64937 0.4906 0.0
C695 C 0.35896 0.75559 0.4605 0.0
C696 C 0.31628 0.63397 0.48829 0.0
C697 C 0.30701 0.64751 0.50586 0.0
C698 C 0.34628 0.65301 0.47782 0.0
C699 C 0.36802 0.68585 0.48525 0.0
C700 C 0.35765 0.70063 0.50268 0.0
C701 C 0.32705 0.68153 0.51269 0.0
C702 C 0.35578 0.63699 0.45912 0.0
C703 C 0.38034 0.7353 0.51119 0.0
H704 H 0.50663 0.69285 0.47444 0.0
H705 H 0.43186 0.78371 0.44981 0.0
H706 H 0.43879 0.65656 0.5047 0.0
H707 H 0.42882 0.62433 0.48578 0.0
H708 H 0.48014 0.63882 0.49087 0.0
H709 H 0.36058 0.77918 0.44983 0.0
H710 H 0.33743 0.73192 0.45608 0.0
H711 H 0.3465 0.76938 0.47303 0.0
H712 H 0.30072 0.60789 0.48285 0.0
H713 H 0.32016 0.6922 0.52625 0.0
H714 H 0.38587 0.62216 0.45924 0.0
H715 H 0.35723 0.66202 0.44916 0.0
H716 H 0.33296 0.61474 0.45444 0.0
H717 H 0.41241 0.72657 0.51335 0.0
H718 H 0.36723 0.74448 0.52445 0.0
H719 H 0.38018 0.76174 0.50198 0.0
C720 C 0.28522 0.23819 0.42514 0.0
C721 C 0.32712 0.23469 0.42239 0.0
C722 C 0.25842 0.24228 0.41047 0.0
C723 C 0.27371 0.24242 0.39252 0.0
C724 C 0.31596 0.23868 0.38961 0.0
C725 C 0.34219 0.23513 0.40459 0.0
C726 C 0.21368 0.24669 0.41419 0.0
C727 C 0.33341 0.23826 0.37067 0.0
C728 C 0.19969 0.21663 0.3546 0.0
C729 C 0.19026 0.25485 0.3476 0.0
C730 C 0.22719 0.21211 0.36903 0.0
C731 C 0.24538 0.24664 0.37683 0.0
C732 C 0.23574 0.28531 0.36993 0.0
C733 C 0.20852 0.28892 0.35535 0.0
C734 C 0.2369 0.17033 0.37589 0.0
C735 C 0.25401 0.32292 0.37802 0.0
H736 H 0.27326 0.23812 0.43884 0.0
H737 H 0.37448 0.23231 0.40234 0.0
H738 H 0.20238 0.27533 0.40829 0.0
H739 H 0.19679 0.22182 0.4076 0.0
H740 H 0.20669 0.24646 0.42895 0.0
H741 H 0.36682 0.23455 0.37069 0.0
H742 H 0.31983 0.21332 0.36272 0.0
H743 H 0.3258 0.26677 0.36358 0.0
H744 H 0.18596 0.1901 0.34864 0.0
H745 H 0.2014 0.31857 0.35007 0.0
H746 H 0.2282 0.16765 0.39038 0.0
H747 H 0.26997 0.16483 0.37504 0.0
H748 H 0.22099 0.14651 0.36807 0.0
H749 H 0.24613 0.32498 0.39264 0.0
H750 H 0.24339 0.35075 0.37111 0.0
H751 H 0.28748 0.32158 0.37709 0.0
C752 C 0.25773 0.6875 0.60985 0.0
C753 C 0.22839 0.69326 0.59631 0.0
C754 C 0.26028 0.71367 0.62484 0.0
C755 C 0.23263 0.74615 0.62641 0.0
C756 C 0.203 0.75207 0.61279 0.0
C757 C 0.20134 0.7257 0.59792 0.0
C758 C 0.29243 0.70649 0.63903 0.0
C759 C 0.17269 0.78606 0.61403 0.0
C760 C 0.20962 0.79 0.67295 0.0
C761 C 0.23156 0.8262 0.6727 0.0
C762 C 0.21024 0.76349 0.65811 0.0
C763 C 0.23354 0.77318 0.6426 0.0
C764 C 0.25626 0.80937 0.64232 0.0
C765 C 0.2549 0.83554 0.65735 0.0
C766 C 0.18536 0.72537 0.65893 0.0
C767 C 0.28164 0.82066 0.62606 0.0
H768 H 0.27888 0.66266 0.60868 0.0
H769 H 0.17852 0.73043 0.58756 0.0
H770 H 0.31131 0.73388 0.64066 0.0
H771 H 0.27804 0.70037 0.65236 0.0
H772 H 0.31246 0.68073 0.63554 0.0
H773 H 0.15195 0.78694 0.60216 0.0
H774 H 0.1543 0.78276 0.62654 0.0
H775 H 0.18866 0.81536 0.61494 0.0
H776 H 0.19149 0.78243 0.68473 0.0
H777 H 0.27208 0.86333 0.65705 0.0
H778 H 0.20497 0.69872 0.65663 0.0
H779 H 0.16228 0.72566 0.64799 0.0
H780 H 0.16969 0.7217 0.67217 0.0
H781 H 0.30329 0.79608 0.62289 0.0
H782 H 0.29889 0.84895 0.62826 0.0
H783 H 0.26193 0.8246 0.61399 0.0
C784 C 0.74444 0.806 0.42719 0.0
C785 C 0.70497 0.79161 0.42442 0.0
C786 C 0.77405 0.80293 0.41359 0.0
C787 C 0.76416 0.78489 0.39676 0.0
C788 C 0.72434 0.77046 0.39381 0.0
C789 C 0.69519 0.77406 0.40766 0.0
C790 C 0.81605 0.81889 0.41728 0.0
C791 C 0.71262 0.75098 0.37605 0.0
C792 C 0.83133 0.80927 0.35623 0.0
C793 C 0.85676 0.77538 0.35546 0.0
C794 C 0.80091 0.81258 0.36948 0.0
C795 C 0.7956 0.78123 0.3823 0.0
C796 C 0.82108 0.74691 0.38159 0.0
C797 C 0.85137 0.74443 0.36821 0.0
C798 C 0.77456 0.84977 0.36982 0.0
C799 C 0.81638 0.71281 0.39499 0.0
H800 H 0.75236 0.81968 0.44007 0.0
H801 H 0.66484 0.76278 0.4054 0.0
H802 H 0.83852 0.79419 0.41605 0.0
H803 H 0.82408 0.84207 0.40705 0.0
H804 H 0.81878 0.83242 0.43102 0.0
H805 H 0.68041 0.74145 0.37585 0.0
H806 H 0.71781 0.77227 0.36468 0.0
H807 H 0.73193 0.72419 0.37355 0.0
H808 H 0.83515 0.83336 0.34645 0.0
H809 H 0.87069 0.71806 0.36771 0.0
H810 H 0.77798 0.86548 0.38303 0.0
H811 H 0.74227 0.84116 0.36851 0.0
H812 H 0.78218 0.87121 0.35876 0.0
H813 H 0.8212 0.7241 0.409 0.0
H814 H 0.83804 0.68785 0.3924 0.0
H815 H 0.78515 0.70064 0.39436 0.0
C816 C 0.78654 0.19063 0.65798 0.0
C817 C 0.81931 0.19337 0.67003 0.0
C818 C 0.78356 0.21637 0.64284 0.0
C819 C 0.81419 0.24536 0.63961 0.0
C820 C 0.84725 0.24828 0.65175 0.0
C821 C 0.84935 0.22239 0.6668 0.0
C822 C 0.74774 0.21243 0.63025 0.0
C823 C 0.8807 0.27855 0.64876 0.0
C824 C 0.83063 0.28504 0.59172 0.0
C825 C 0.81285 0.32342 0.59259 0.0
C826 C 0.83079 0.25923 0.60683 0.0
C827 C 0.8125 0.27189 0.62325 0.0
C828 C 0.79403 0.3104 0.62418 0.0
C829 C 0.79456 0.33577 0.60886 0.0
C830 C 0.8511 0.21859 0.60529 0.0
C831 C 0.77403 0.32491 0.6414 0.0
H832 H 0.7631 0.16846 0.6604 0.0
H833 H 0.87482 0.22481 0.676 0.0
H834 H 0.73171 0.24172 0.62918 0.0
H835 H 0.75825 0.20435 0.61642 0.0
H836 H 0.72592 0.18919 0.63492 0.0
H837 H 0.90405 0.2774 0.6596 0.0
H838 H 0.8956 0.27283 0.6355 0.0
H839 H 0.86796 0.30946 0.64825 0.0
H840 H 0.84487 0.27516 0.57924 0.0
H841 H 0.78058 0.36527 0.60964 0.0
H842 H 0.82935 0.19433 0.60875 0.0
H843 H 0.87645 0.2166 0.61513 0.0
H844 H 0.86316 0.21287 0.59145 0.0
H845 H 0.75059 0.30308 0.6458 0.0
H846 H 0.75966 0.35496 0.63972 0.0
H847 H 0.79675 0.32682 0.65246 0.0
C848 C 0.20494 0.30541 0.91483 0.0
C849 C 0.18018 0.27104 0.9152 0.0
C850 C 0.23502 0.31022 0.90151 0.0
C851 C 0.24056 0.27999 0.88817 0.0
C852 C 0.21581 0.24517 0.8885 0.0
C853 C 0.18596 0.24111 0.90199 0.0
C854 C 0.26067 0.34784 0.90163 0.0
C855 C 0.22065 0.2123 0.87449 0.0
C856 C 0.2887 0.30967 0.84322 0.0
C857 C 0.32852 0.29553 0.84522 0.0
C858 C 0.25997 0.30492 0.8571 0.0
C859 C 0.27116 0.28554 0.87346 0.0
C860 C 0.31139 0.27148 0.87567 0.0
C861 C 0.3396 0.27664 0.86153 0.0
C862 C 0.21748 0.32044 0.85417 0.0
C863 C 0.32451 0.25072 0.89293 0.0
H864 H 0.20087 0.32869 0.92498 0.0
H865 H 0.16713 0.2144 0.90216 0.0
H866 H 0.29319 0.33966 0.90238 0.0
H867 H 0.25616 0.3648 0.8888 0.0
H868 H 0.25333 0.36801 0.91321 0.0
H869 H 0.19975 0.18665 0.87688 0.0
H870 H 0.21481 0.22464 0.86074 0.0
H871 H 0.25219 0.20082 0.8746 0.0
H872 H 0.27974 0.32434 0.83071 0.0
H873 H 0.37024 0.26558 0.8632 0.0
H874 H 0.20958 0.34255 0.8649 0.0
H875 H 0.19557 0.29524 0.8552 0.0
H876 H 0.2137 0.33513 0.84072 0.0
H877 H 0.31937 0.27085 0.90474 0.0
H878 H 0.35695 0.24195 0.89263 0.0
H879 H 0.30601 0.22328 0.89513 0.0
C880 C 0.29558 0.75054 0.17644 0.0
C881 C 0.29523 0.70847 0.17447 0.0
C882 C 0.29172 0.77614 0.16136 0.0
C883 C 0.28777 0.7594 0.14378 0.0
C884 C 0.28744 0.71695 0.14165 0.0
C885 C 0.29096 0.69199 0.15703 0.0
C886 C 0.29184 0.82119 0.16427 0.0
C887 C 0.28359 0.69794 0.12312 0.0
C888 C 0.24285 0.82637 0.1069 0.0
C889 C 0.27765 0.84071 0.09809 0.0
C890 C 0.24566 0.79956 0.12163 0.0
C891 C 0.2842 0.78649 0.12766 0.0
C892 C 0.31942 0.80048 0.11871 0.0
C893 C 0.31574 0.82749 0.10409 0.0
C894 C 0.20739 0.78562 0.13089 0.0
C895 C 0.36106 0.78713 0.12465 0.0
H896 H 0.29863 0.76364 0.18985 0.0
H897 H 0.29073 0.65954 0.15536 0.0
H898 H 0.31739 0.835 0.15674 0.0
H899 H 0.26353 0.83454 0.15883 0.0
H900 H 0.29458 0.82942 0.17883 0.0
H901 H 0.28392 0.6645 0.12374 0.0
H902 H 0.255 0.7078 0.11658 0.0
H903 H 0.30881 0.70807 0.11429 0.0
H904 H 0.21328 0.83634 0.10238 0.0
H905 H 0.34282 0.83819 0.09734 0.0
H906 H 0.20765 0.79518 0.14533 0.0
H907 H 0.20574 0.75224 0.13073 0.0
H908 H 0.17973 0.79788 0.12432 0.0
H909 H 0.36665 0.79693 0.13883 0.0
H910 H 0.38533 0.7996 0.11587 0.0
H911 H 0.36307 0.75377 0.12443 0.0
C912 C 0.84432 0.78249 0.90252 0.0
C913 C 0.85002 0.75097 0.91497 0.0
C914 C 0.81455 0.78009 0.8889 0.0
C915 C 0.78992 0.74529 0.88763 0.0
C916 C 0.79572 0.71326 0.90007 0.0
C917 C 0.82559 0.71649 0.91357 0.0
C918 C 0.80936 0.81489 0.8759 0.0
C919 C 0.7703 0.67553 0.89912 0.0
C920 C 0.68932 0.75201 0.86238 0.0
C921 C 0.69943 0.73575 0.84538 0.0
C922 C 0.71845 0.7554 0.87624 0.0
C923 C 0.75859 0.74202 0.87309 0.0
C924 C 0.76884 0.72531 0.85602 0.0
C925 C 0.73924 0.72247 0.8424 0.0
C926 C 0.70634 0.77349 0.89424 0.0
C927 C 0.81117 0.71044 0.85211 0.0
H928 H 0.86288 0.8093 0.9035 0.0
H929 H 0.82967 0.69194 0.9231 0.0
H930 H 0.81432 0.8045 0.86176 0.0
H931 H 0.77796 0.82661 0.8767 0.0
H932 H 0.83065 0.83997 0.87879 0.0
H933 H 0.7785 0.65338 0.90982 0.0
H934 H 0.73782 0.68331 0.90061 0.0
H935 H 0.77401 0.66099 0.88566 0.0
H936 H 0.65871 0.76244 0.86481 0.0
H937 H 0.74742 0.70977 0.82934 0.0
H938 H 0.72516 0.8004 0.89713 0.0
H939 H 0.71186 0.75152 0.90532 0.0
H940 H 0.67396 0.78251 0.89455 0.0
H941 H 0.83311 0.73546 0.85372 0.0
H942 H 0.8142 0.69796 0.83818 0.0
H943 H 0.81968 0.68668 0.862 0.0
C944 C 0.69293 0.22764 0.09808 0.0
C945 C 0.72117 0.19623 0.0964 0.0
C946 C 0.69375 0.25403 0.11296 0.0
C947 C 0.72373 0.24919 0.12652 0.0
C948 C 0.75248 0.21769 0.1249 0.0
C949 C 0.75077 0.19148 0.1099 0.0
C950 C 0.6623 0.28696 0.11425 0.0
C951 C 0.78502 0.21165 0.13902 0.0
C952 C 0.74498 0.33903 0.15733 0.0
C953 C 0.72286 0.32891 0.17294 0.0
C954 C 0.74599 0.31316 0.1422 0.0
C955 C 0.72414 0.27645 0.14263 0.0
C956 C 0.70174 0.26615 0.15833 0.0
C957 C 0.70147 0.29239 0.17328 0.0
C958 C 0.77037 0.32513 0.12573 0.0
C959 C 0.67777 0.22748 0.15932 0.0
H960 H 0.66989 0.23157 0.08775 0.0
H961 H 0.77282 0.16744 0.10869 0.0
H962 H 0.64435 0.28324 0.12687 0.0
H963 H 0.67727 0.31681 0.115 0.0
H964 H 0.64126 0.28694 0.10249 0.0
H965 H 0.80571 0.18639 0.13557 0.0
H966 H 0.80315 0.23958 0.14049 0.0
H967 H 0.771 0.20539 0.15241 0.0
H968 H 0.76172 0.36708 0.15696 0.0
H969 H 0.68423 0.28426 0.18525 0.0
H970 H 0.7502 0.32788 0.11375 0.0
H971 H 0.79299 0.30142 0.12257 0.0
H972 H 0.78644 0.35418 0.12768 0.0
H973 H 0.65468 0.22697 0.14838 0.0
H974 H 0.66224 0.2237 0.17258 0.0
H975 H 0.69804 0.20128 0.15711 0.0
C976 C 0.96663 0.94113 0.29489 0.0
C977 C 0.98598 0.91025 0.28519 0.0
C978 C 0.98363 0.97979 0.29606 0.0
C979 C 0.02102 0.98779 0.28739 0.0
C980 C 0.03985 0.95728 0.27693 0.0
C981 C 0.02205 0.9189 0.27592 0.0
C982 C 0.96241 1.01158 0.30723 0.0
C983 C 0.07974 0.96459 0.2675 0.0
C984 C 0.05257 0.09763 0.2826 0.0
C985 C 0.07747 0.1027 0.29787 0.0
C986 C 0.03456 0.0602 0.27878 0.0
C987 C 0.04177 0.02706 0.29045 0.0
C988 C 0.06774 0.03176 0.30559 0.0
C989 C 0.08517 0.06948 0.30913 0.0
C990 C 1.00699 0.0564 0.26253 0.0
C991 C 0.07643 0.99712 0.31832 0.0
H992 H 0.93864 0.93483 0.30202 0.0
H993 H 0.03728 0.89526 0.2684 0.0
H994 H 0.98096 0.01895 0.31933 0.0
H995 H 0.9589 0.03971 0.29924 0.0
H996 H 0.93205 1.00162 0.31188 0.0
H997 H 0.08865 0.939 0.25864 0.0
H998 H 0.07815 0.99235 0.25915 0.0
H999 H 0.10381 0.96922 0.27779 0.0
H1000 H 0.04638 0.12313 0.27384 0.0
H1001 H 0.10449 0.07302 0.32092 0.0
H1002 H 0.97579 0.04942 0.26712 0.0
H1003 H 0.017 0.0311 0.25376 0.0
H1004 H 1.00614 0.08438 0.25426 0.0
H1005 H 0.048 0.98731 0.325 0.0
H1006 H 0.09867 1.00525 0.32902 0.0
H1007 H 0.08834 0.97098 0.3106 0.0
C1008 C 0.9704 0.10116 0.72883 0.0
C1009 C 0.93398 0.07997 0.72697 0.0
C1010 C 1.00757 0.08063 0.72998 0.0
C1011 C 1.00816 0.03793 0.72962 0.0
C1012 C 0.97134 0.01643 0.72823 0.0
C1013 C 0.93478 0.03769 0.72675 0.0
C1014 C 0.04628 0.10461 0.73116 0.0
C1015 C 0.97055 0.97093 0.72812 0.0
C1016 C 0.10348 0.98393 0.71405 0.0
C1017 C 0.12168 0.97349 0.73061 0.0
C1018 C 0.06674 1.00516 0.71356 0.0
C1019 C 0.04731 0.01566 0.73002 0.0
C1020 C 0.06509 1.00451 0.74679 0.0
C1021 C 0.10224 0.98385 0.74688 0.0
C1022 C 0.04902 0.01686 0.6954 0.0
C1023 C 0.04489 0.0145 0.76462 0.0
H1024 H 0.96996 0.13382 0.72895 0.0
H1025 H 0.90669 0.02108 0.72551 0.0
H1026 H 0.06351 0.09584 0.74347 0.0
H1027 H 0.06569 0.09783 0.71925 0.0
H1028 H 0.04063 0.13759 0.7316 0.0
H1029 H 0.93924 0.95877 0.72796 0.0
H1030 H 0.9868 0.95945 0.71599 0.0
H1031 H 0.98646 0.95901 0.74025 0.0
H1032 H 0.11845 0.97638 0.7014 0.0
H1033 H 0.11609 0.97584 0.75973 0.0
H1034 H 0.04531 0.05006 0.69468 0.0
H1035 H 0.01854 1.00336 0.69381 0.0
H1036 H 0.06823 1.00697 0.68385 0.0
H1037 H 0.04168 0.04762 0.76602 0.0
H1038 H 0.06216 1.00288 0.77646 0.0
H1039 H 1.01398 1.0015 0.76496 0.0
C1040 C 0.04298 0.43548 0.94816 0.0
C1041 C 0.05939 0.4136 0.9627 0.0
C1042 C 0.02727 0.47433 0.95067 0.0
C1043 C 0.02818 0.49203 0.96814 0.0
C1044 C 0.04424 0.46999 0.98296 0.0
C1045 C 0.05956 0.43095 0.98008 0.0
C1046 C 1.01027 0.49672 0.93451 0.0
C1047 C 0.04593 0.48797 1.00177 0.0
C1048 C 0.02754 0.60621 0.9675 0.0
C1049 C 0.98656 0.61499 0.97056 0.0
C1050 C 0.04175 0.5664 0.96749 0.0
C1051 C 1.0143 0.53441 0.97053 0.0
C1052 C 0.97317 0.54308 0.97435 0.0
C1053 C 0.95978 0.58334 0.97437 0.0
C1054 C 0.08589 0.55853 0.96348 0.0
C1055 C 0.943 0.50977 0.97764 0.0
H1056 H 0.04241 0.42226 0.9347 0.0
H1057 H 0.0721 0.41423 0.9914 0.0
H1058 H 0.97888 0.50672 0.93738 0.0
H1059 H 0.02856 0.52412 0.93187 0.0
H1060 H 1.01005 0.47801 0.922 0.0
H1061 H 0.05753 0.46625 0.012 0.0
H1062 H 0.06587 0.51484 1.00172 0.0
H1063 H 0.01539 0.4982 1.006 0.0
H1064 H 0.04857 0.63048 0.96472 0.0
H1065 H 0.92808 0.58987 0.97677 0.0
H1066 H 0.08878 0.54283 0.95024 0.0
H1067 H 0.09914 0.53853 0.97399 0.0
H1068 H 0.10389 0.58675 0.9629 0.0
H1069 H 0.93877 0.49219 0.96497 0.0
H1070 H 0.91308 0.52153 0.98204 0.0
H1071 H 0.95448 0.48867 0.98813 0.0
C1072 C 0.43998 0.97381 0.03291 0.0
C1073 C 0.43463 0.94966 0.04837 0.0
C1074 C 0.47726 0.99266 0.02937 0.0
C1075 C 0.51004 0.98693 0.04149 0.0
C1076 C 0.50515 0.96157 0.05679 0.0
C1077 C 0.46751 0.94341 0.06008 0.0
C1078 C 0.48121 0.01962 0.01296 0.0
C1079 C 0.53946 0.95431 0.06995 0.0
C1080 C 0.61852 1.00865 0.02733 0.0
C1081 C 0.6261 0.04527 0.03623 0.0
C1082 C 0.58051 0.98989 0.02844 0.0
C1083 C 0.54917 1.00832 0.03859 0.0
C1084 C 0.5561 0.04613 0.04695 0.0
C1085 C 0.5945 0.06407 0.04573 0.0
C1086 C 0.57442 0.94952 0.0194 0.0
C1087 C 0.52336 0.06697 0.05775 0.0
H1088 H 0.41468 0.97899 0.02384 0.0
H1089 H 0.46372 0.92469 0.07202 0.0
H1090 H 0.48727 0.05098 0.01739 0.0
H1091 H 0.50726 1.00995 1.00451 0.0
H1092 H 0.4535 0.01951 1.00442 0.0
H1093 H 0.5313 0.93234 0.08072 0.0
H1094 H 0.56643 0.94289 0.0626 0.0
H1095 H 0.54819 0.98311 0.07651 0.0
H1096 H 0.64272 0.9938 0.01998 0.0
H1097 H 0.6 0.09243 0.05259 0.0
H1098 H 0.54706 0.95016 0.01069 0.0
H1099 H 0.56951 0.92606 0.0299 0.0
H1100 H 0.60081 0.94057 0.01096 0.0
H1101 H 0.49534 0.06958 0.04954 0.0
H1102 H 0.53258 0.09756 0.06225 0.0
H1103 H 0.51591 0.04877 0.06994 0.0
C1104 C 0.45091 0.45292 0.82249 0.0
C1105 C 0.45849 0.42225 0.80984 0.0
C1106 C 0.47072 0.49023 0.82132 0.0
C1107 C 0.49922 0.49693 0.80728 0.0
C1108 C 0.50612 0.46656 0.79413 0.0
C1109 C 0.48549 0.42965 0.79551 0.0
C1110 C 0.46204 0.52204 0.83545 0.0
C1111 C 0.53645 0.47244 0.77904 0.0
C1112 C 0.53013 0.60567 0.79861 0.0
C1113 C 0.56526 0.60897 0.80923 0.0
C1114 C 0.50881 0.56913 0.79746 0.0
C1115 C 0.52319 0.53496 0.807 0.0
C1116 C 0.55951 0.5377 0.81714 0.0
C1117 C 0.57995 0.5747 0.81821 0.0
C1118 C 0.47009 0.56753 0.78661 0.0
C1119 C 0.57615 0.50183 0.82732 0.0
H1120 H 0.42992 0.44756 0.83354 0.0
H1121 H 0.49166 0.40607 0.78571 0.0
H1122 H 0.48962 0.5276 0.84367 0.0
H1123 H 0.45382 0.5509 0.8288 0.0
H1124 H 0.43712 0.51316 0.84475 0.0
H1125 H 0.53644 0.44697 0.76925 0.0
H1126 H 0.52995 0.50071 0.77155 0.0
H1127 H 0.56726 0.47534 0.78488 0.0
H1128 H 0.51844 0.63202 0.79166 0.0
H1129 H 0.60718 0.57691 0.82636 0.0
H1130 H 0.44418 0.56199 0.79586 0.0
H1131 H 0.47107 0.5422 0.7768 0.0
H1132 H 0.46438 0.59592 0.77904 0.0
H1133 H 0.55481 0.49302 0.83825 0.0
H1134 H 0.6061 0.50816 0.83354 0.0
H1135 H 0.57923 0.47565 0.81806 0.0
C1136 C 0.5984 0.47304 0.23065 0.0
C1137 C 0.60783 0.45725 0.21348 0.0
C1138 C 0.56037 0.49055 0.23411 0.0
C1139 C 0.53096 0.49192 0.22013 0.0
C1140 C 0.5401 0.47536 0.20289 0.0
C1141 C 0.57841 0.45842 0.19976 0.0
C1142 C 0.55186 0.50809 0.25263 0.0
C1143 C 0.50947 0.47576 0.18767 0.0
C1144 C 0.41915 0.50292 0.23114 0.0
C1145 C 0.41161 0.54321 0.22637 0.0
C1146 C 0.45805 0.4862 0.22968 0.0
C1147 C 0.49043 0.51036 0.22343 0.0
C1148 C 0.48342 0.55147 0.21926 0.0
C1149 C 0.44407 0.56737 0.22071 0.0
C1150 C 0.46414 0.4422 0.23417 0.0
C1151 C 0.51725 0.57834 0.21271 0.0
H1152 H 0.62104 0.47254 0.24129 0.0
H1153 H 0.58537 0.44622 0.18647 0.0
H1154 H 0.54483 0.54066 0.25136 0.0
H1155 H 0.52493 0.49337 0.25868 0.0
H1156 H 0.57783 0.50444 0.26206 0.0
H1157 H 0.52107 0.46108 0.17515 0.0
H1158 H 0.48149 0.46 0.19199 0.0
H1159 H 0.50097 0.50726 0.18436 0.0
H1160 H 0.39436 0.48394 0.23555 0.0
H1161 H 0.43862 0.59854 0.21706 0.0
H1162 H 0.48914 0.4386 0.24409 0.0
H1163 H 0.4729 0.42553 0.22172 0.0
H1164 H 0.43643 0.42814 0.23988 0.0
H1165 H 0.54326 0.5768 0.22221 0.0
H1166 H 0.50756 0.61026 0.21139 0.0
H1167 H 0.5281 0.56771 0.19929 0.0
C1168 C 0.44728 0.06826 0.44739 0.0
C1169 C 0.45681 0.1002 0.45909 0.0
C1170 C 0.46784 0.03129 0.44849 0.0
C1171 C 0.49904 0.02622 0.46148 0.0
C1172 C 0.50799 0.05792 0.4737 0.0
C1173 C 0.48662 0.09445 0.47242 0.0
C1174 C 0.45701 0.99807 0.43536 0.0
C1175 C 0.54121 0.05382 0.48765 0.0
C1176 C 0.53388 0.91897 0.47114 0.0
C1177 C 0.56709 0.91522 0.45937 0.0
C1178 C 0.51191 0.95517 0.47228 0.0
C1179 C 0.52367 0.98855 0.46154 0.0
C1180 C 0.55805 0.98538 0.45014 0.0
C1181 C 0.57918 0.94873 0.44912 0.0
C1182 C 0.47529 0.95726 0.48451 0.0
C1183 C 0.57191 0.02042 0.43864 0.0
H1184 H 0.42416 0.07236 0.43711 0.0
H1185 H 0.49434 0.11902 0.48147 0.0
H1186 H 0.48297 0.99208 0.42619 0.0
H1187 H 0.45063 0.96976 0.44284 0.0
H1188 H 0.43021 1.00576 0.42693 0.0
H1189 H 0.5427 0.08022 0.49689 0.0
H1190 H 0.53661 0.02625 0.49591 0.0
H1191 H 0.57082 0.05065 0.48069 0.0
H1192 H 0.5242 0.89319 0.47906 0.0
H1193 H 0.60492 0.94618 0.44007 0.0
H1194 H 0.44767 0.96174 0.47618 0.0
H1195 H 0.47769 0.98342 0.49381 0.0
H1196 H 0.47146 0.92947 0.49274 0.0
H1197 H 0.54831 0.02789 0.42846 0.0
H1198 H 0.60061 0.01387 0.43135 0.0
H1199 H 0.57637 0.04751 0.44722 0.0
C1200 C 0.9671 0.44163 0.56287 0.0
C1201 C 0.93439 0.44845 0.55113 0.0
C1202 C 1.00507 0.45914 0.5596 0.0
C1203 C 1.01041 0.48451 0.54432 0.0
C1204 C 0.97773 0.49096 0.53223 0.0
C1205 C 0.94017 0.47266 0.53572 0.0
C1206 C 0.0393 0.45105 0.57269 0.0
C1207 C 0.98211 0.51807 0.51589 0.0
C1208 C 0.09624 0.56031 0.54809 0.0
C1209 C 0.12709 0.54131 0.53819 0.0
C1210 C 0.05773 0.54277 0.5497 0.0
C1211 C 0.04995 0.50511 0.54136 0.0
C1212 C 0.08061 0.4863 0.53094 0.0
C1213 C 0.11873 0.50471 0.52941 0.0
C1214 C 0.02569 0.56403 0.56075 0.0
C1215 C 0.07364 0.44602 0.52196 0.0
H1216 H 0.96294 0.42284 0.57476 0.0
H1217 H 0.915 0.47831 0.52663 0.0
H1218 H 0.06598 0.43916 0.56528 0.0
H1219 H 0.04868 0.47959 0.5793 0.0
H1220 H 0.03076 0.42914 0.58343 0.0
H1221 H 0.95423 0.5189 0.50747 0.0
H1222 H 0.98918 0.54918 0.52039 0.0
H1223 H 1.00768 0.50779 0.5073 0.0
H1224 H 0.10237 0.58865 0.55486 0.0
H1225 H 0.14239 0.48968 0.52179 0.0
H1226 H 0.01808 0.5457 0.57288 0.0
H1227 H 0.99757 0.56744 0.55267 0.0
H1228 H 0.03565 0.59431 0.56536 0.0
H1229 H 0.06808 0.42274 0.53248 0.0
H1230 H 0.09984 0.43639 0.51355 0.0
H1231 H 0.04635 0.44727 0.51321 0.0
loop_
_geom_bond_atom_site_label_1
_geom_bond_atom_site_label_2
_geom_bond_distance
_geom_bond_site_symmetry_2
_ccdc_geom_bond_type
Mg0 O7 2.141 . S
Mg0 O8 2.048 . S
Mg0 O9 2.048 . S
Mg0 O12 2.141 . S
C1 O2 1.313 . S
C1 O8 1.195 . S
O2 C1 1.313 . S
C3 O4 1.245 . S
C3 O12 1.289 . S
O4 C3 1.245 . S
C5 O6 1.245 . S
C5 O7 1.289 . S
O6 C5 1.245 . S
O7 Mg0 2.141 . S
O7 C5 1.289 . S
O8 Mg0 2.048 . S
O8 C1 1.195 . S
O9 Mg0 2.048 . S
O9 C10 1.195 . S
C10 O9 1.195 . S
C10 O11 1.313 . S
O11 C10 1.313 . S
O12 Mg0 2.141 . S
O12 C3 1.289 . S
Mg13 O20 2.141 . S
Mg13 O21 2.048 . S
Mg13 O22 2.048 . S
Mg13 O25 2.141 . S
C14 O15 1.313 . S
C14 O21 1.195 . S
O15 C14 1.313 . S
C16 O17 1.245 . S
C16 O25 1.289 . S
O17 C16 1.245 . S
C18 O19 1.245 . S
C18 O20 1.289 . S
O19 C18 1.245 . S
O20 Mg13 2.141 . S
O20 C18 1.289 . S
O21 Mg13 2.048 . S
O21 C14 1.195 . S
O22 Mg13 2.048 . S
O22 C23 1.195 . S
C23 O22 1.195 . S
C23 O24 1.313 . S
O24 C23 1.313 . S
O25 Mg13 2.141 . S
O25 C16 1.289 . S
Mg26 O33 2.141 . S
Mg26 O34 2.048 . S
Mg26 O35 2.048 . S
Mg26 O38 2.141 . S
C27 O28 1.313 . S
C27 O34 1.195 . S
O28 C27 1.313 . S
C29 O30 1.245 . S
C29 O38 1.289 . S
O30 C29 1.245 . S
C31 O32 1.245 . S
C31 O33 1.289 . S
O32 C31 1.245 . S
O33 Mg26 2.141 . S
O33 C31 1.289 . S
O34 Mg26 2.048 . S
O34 C27 1.195 . S
O35 Mg26 2.048 . S
O35 C36 1.195 . S
C36 O35 1.195 . S
C36 O37 1.313 . S
O37 C36 1.313 . S
O38 Mg26 2.141 . S
O38 C29 1.289 . S
Mg39 O46 2.141 . S
Mg39 O47 2.048 . S
Mg39 O48 2.048 . S
Mg39 O51 2.141 . S
C40 O41 1.313 . S
C40 O47 1.195 . S
O41 C40 1.313 . S
C42 O43 1.245 . S
C42 O51 1.289 . S
O43 C42 1.245 . S
C44 O45 1.245 . S
C44 O46 1.289 . S
O45 C44 1.245 . S
O46 Mg39 2.141 . S
O46 C44 1.289 . S
O47 Mg39 2.048 . S
O47 C40 1.195 . S
O48 Mg39 2.048 . S
O48 C49 1.195 . S
C49 O48 1.195 . S
C49 O50 1.313 . S
O50 C49 1.313 . S
O51 Mg39 2.141 . S
O51 C42 1.289 . S
Mg52 O59 2.141 . S
Mg52 O60 2.048 . S
Mg52 O61 2.048 . S
Mg52 O64 2.141 . S
C53 O54 1.313 . S
C53 O60 1.195 . S
O54 C53 1.313 . S
C55 O56 1.245 . S
C55 O64 1.289 . S
O56 C55 1.245 . S
C57 O58 1.245 . S
C57 O59 1.289 . S
O58 C57 1.245 . S
O59 Mg52 2.141 . S
O59 C57 1.289 . S
O60 Mg52 2.048 . S
O60 C53 1.195 . S
O61 Mg52 2.048 . S
O61 C62 1.195 . S
C62 O61 1.195 . S
C62 O63 1.313 . S
O63 C62 1.313 . S
O64 Mg52 2.141 . S
O64 C55 1.289 . S
Mg65 O72 2.141 . S
Mg65 O73 2.048 . S
Mg65 O74 2.048 . S
Mg65 O77 2.141 . S
C66 O67 1.313 . S
C66 O73 1.195 . S
O67 C66 1.313 . S
C68 O69 1.245 . S
C68 O77 1.289 . S
O69 C68 1.245 . S
C70 O71 1.245 . S
C70 O72 1.289 . S
O71 C70 1.245 . S
O72 Mg65 2.141 . S
O72 C70 1.289 . S
O73 Mg65 2.048 . S
O73 C66 1.195 . S
O74 Mg65 2.048 . S
O74 C75 1.195 . S
C75 O74 1.195 . S
C75 O76 1.313 . S
O76 C75 1.313 . S
O77 Mg65 2.141 . S
O77 C68 1.289 . S
Mg78 O85 2.141 . S
Mg78 O86 2.048 . S
Mg78 O87 2.048 . S
Mg78 O90 2.141 . S
C79 O80 1.313 . S
C79 O86 1.195 . S
O80 C79 1.313 . S
C81 O82 1.245 . S
C81 O90 1.289 . S
O82 C81 1.245 . S
C83 O84 1.245 . S
C83 O85 1.289 . S
O84 C83 1.245 . S
O85 Mg78 2.141 . S
O85 C83 1.289 . S
O86 Mg78 2.048 . S
O86 C79 1.195 . S
O87 Mg78 2.048 . S
O87 C88 1.195 . S
C88 O87 1.195 . S
C88 O89 1.313 . S
O89 C88 1.313 . S
O90 Mg78 2.141 . S
O90 C81 1.289 . S
Mg91 O98 2.141 . S
Mg91 O99 2.048 . S
Mg91 O100 2.048 . S
Mg91 O103 2.141 . S
C92 O93 1.313 . S
C92 O99 1.195 . S
O93 C92 1.313 . S
C94 O95 1.245 . S
C94 O103 1.289 . S
O95 C94 1.245 . S
C96 O97 1.245 . S
C96 O98 1.289 . S
O97 C96 1.245 . S
O98 Mg91 2.141 . S
O98 C96 1.289 . S
O99 Mg91 2.048 . S
O99 C92 1.195 . S
O100 Mg91 2.048 . S
O100 C101 1.195 . S
C101 O100 1.195 . S
C101 O102 1.313 . S
O102 C101 1.313 . S
O103 Mg91 2.141 . S
O103 C94 1.289 . S
Mg104 O111 2.141 . S
Mg104 O112 2.048 . S
Mg104 O113 2.048 . S
Mg104 O116 2.141 . S
C105 O106 1.313 . S
C105 O112 1.195 . S
O106 C105 1.313 . S
C107 O108 1.245 . S
C107 O116 1.289 . S
O108 C107 1.245 . S
C109 O110 1.245 . S
C109 O111 1.289 . S
O110 C109 1.245 . S
O111 Mg104 2.141 . S
O111 C109 1.289 . S
O112 Mg104 2.048 . S
O112 C105 1.195 . S
O113 Mg104 2.048 . S
O113 C114 1.195 . S
C114 O113 1.195 . S
C114 O115 1.313 . S
O115 C114 1.313 . S
O116 Mg104 2.141 . S
O116 C107 1.289 . S
Mg117 O124 2.141 . S
Mg117 O125 2.048 . S
Mg117 O126 2.048 . S
Mg117 O129 2.141 . S
C118 O119 1.313 . S
C118 O125 1.195 . S
O119 C118 1.313 . S
C120 O121 1.245 . S
C120 O129 1.289 . S
O121 C120 1.245 . S
C122 O123 1.245 . S
C122 O124 1.289 . S
O123 C122 1.245 . S
O124 Mg117 2.141 . S
O124 C122 1.289 . S
O125 Mg117 2.048 . S
O125 C118 1.195 . S
O126 Mg117 2.048 . S
O126 C127 1.195 . S
C127 O126 1.195 . S
C127 O128 1.313 . S
O128 C127 1.313 . S
O129 Mg117 2.141 . S
O129 C120 1.289 . S
Mg130 O137 2.141 . S
Mg130 O138 2.048 . S
Mg130 O139 2.048 . S
Mg130 O142 2.141 . S
C131 O132 1.313 . S
C131 O138 1.195 . S
O132 C131 1.313 . S
C133 O134 1.245 . S
C133 O142 1.289 . S
O134 C133 1.245 . S
C135 O136 1.245 . S
C135 O137 1.289 . S
O136 C135 1.245 . S
O137 Mg130 2.141 . S
O137 C135 1.289 . S
O138 Mg130 2.048 . S
O138 C131 1.195 . S
O139 Mg130 2.048 . S
O139 C140 1.195 . S
C140 O139 1.195 . S
C140 O141 1.313 . S
O141 C140 1.313 . S
O142 Mg130 2.141 . S
O142 C133 1.289 . S
Mg143 O150 2.141 . S
Mg143 O151 2.048 . S
Mg143 O152 2.048 . S
Mg143 O155 2.141 . S
C144 O145 1.313 . S
C144 O151 1.195 . S
O145 C144 1.313 . S
C146 O147 1.245 . S
C146 O155 1.289 . S
O147 C146 1.245 . S
C148 O149 1.245 . S
C148 O150 1.289 . S
O149 C148 1.245 . S
O150 Mg143 2.141 . S
O150 C148 1.289 . S
O151 Mg143 2.048 . S
O151 C144 1.195 . S
O152 Mg143 2.048 . S
O152 C153 1.195 . S
C153 O152 1.195 . S
C153 O154 1.313 . S
O154 C153 1.313 . S
O155 Mg143 2.141 . S
O155 C146 1.289 . S
Mg156 O163 2.141 . S
Mg156 O164 2.048 . S
Mg156 O165 2.048 . S
Mg156 O168 2.141 . S
C157 O158 1.313 . S
C157 O164 1.195 . S
O158 C157 1.313 . S
C159 O160 1.245 . S
C159 O168 1.289 . S
O160 C159 1.245 . S
C161 O162 1.245 . S
C161 O163 1.289 . S
O162 C161 1.245 . S
O163 Mg156 2.141 . S
O163 C161 1.289 . S
O164 Mg156 2.048 . S
O164 C157 1.195 . S
O165 Mg156 2.048 . S
O165 C166 1.195 . S
C166 O165 1.195 . S
C166 O167 1.313 . S
O167 C166 1.313 . S
O168 Mg156 2.141 . S
O168 C159 1.289 . S
Mg169 O176 2.141 . S
Mg169 O177 2.048 . S
Mg169 O178 2.048 . S
Mg169 O181 2.141 . S
C170 O171 1.313 . S
C170 O177 1.195 . S
O171 C170 1.313 . S
C172 O173 1.245 . S
C172 O181 1.289 . S
O173 C172 1.245 . S
C174 O175 1.245 . S
C174 O176 1.289 . S
O175 C174 1.245 . S
O176 Mg169 2.141 . S
O176 C174 1.289 . S
O177 Mg169 2.048 . S
O177 C170 1.195 . S
O178 Mg169 2.048 . S
O178 C179 1.195 . S
C179 O178 1.195 . S
C179 O180 1.313 . S
O180 C179 1.313 . S
O181 Mg169 2.141 . S
O181 C172 1.289 . S
Mg182 O189 2.141 . S
Mg182 O190 2.048 . S
Mg182 O191 2.048 . S
Mg182 O194 2.141 . S
C183 O184 1.313 . S
C183 O190 1.195 . S
O184 C183 1.313 . S
C185 O186 1.245 . S
C185 O194 1.289 . S
O186 C185 1.245 . S
C187 O188 1.245 . S
C187 O189 1.289 . S
O188 C187 1.245 . S
O189 Mg182 2.141 . S
O189 C187 1.289 . S
O190 Mg182 2.048 . S
O190 C183 1.195 . S
O191 Mg182 2.048 . S
O191 C192 1.195 . S
C192 O191 1.195 . S
C192 O193 1.313 . S
O193 C192 1.313 . S
O194 Mg182 2.141 . S
O194 C185 1.289 . S
Mg195 O202 2.141 . S
Mg195 O203 2.048 . S
Mg195 O204 2.048 . S
Mg195 O207 2.141 . S
C196 O197 1.313 . S
C196 O203 1.195 . S
O197 C196 1.313 . S
C198 O199 1.245 . S
C198 O207 1.289 . S
O199 C198 1.245 . S
C200 O201 1.245 . S
C200 O202 1.289 . S
O201 C200 1.245 . S
O202 Mg195 2.141 . S
O202 C200 1.289 . S
O203 Mg195 2.048 . S
O203 C196 1.195 . S
O204 Mg195 2.048 . S
O204 C205 1.195 . S
C205 O204 1.195 . S
C205 O206 1.313 . S
O206 C205 1.313 . S
O207 Mg195 2.141 . S
O207 C198 1.289 . S
C208 C209 1.391 . S
C208 C210 1.394 . S
C208 H224 0.931 . S
C209 C208 1.391 . S
C209 C213 1.376 . S
C210 C208 1.394 . S
C210 C211 1.369 . S
C210 C214 1.531 . S
C211 C210 1.369 . S
C211 C212 1.410 . S
C211 C219 1.503 . S
C212 C211 1.410 . S
C212 C213 1.392 . S
C212 C215 1.511 . S
C213 C209 1.376 . S
C213 C212 1.392 . S
C213 H225 0.929 . S
C214 C210 1.531 . S
C214 H226 0.960 . S
C214 H227 0.962 . S
C214 H228 0.960 . S
C215 C212 1.511 . S
C215 H229 0.961 . S
C215 H230 0.961 . S
C215 H231 0.961 . S
C216 C217 1.370 . S
C216 C218 1.363 . S
C216 H232 0.931 . S
C217 C216 1.370 . S
C217 C221 1.408 . S
C218 C216 1.363 . S
C218 C219 1.370 . S
C218 C222 1.524 . S
C219 C211 1.503 . S
C219 C218 1.370 . S
C219 C220 1.403 . S
C220 C219 1.403 . S
C220 C221 1.404 . S
C220 C223 1.539 . S
C221 C217 1.408 . S
C221 C220 1.404 . S
C221 H233 0.930 . S
C222 C218 1.524 . S
C222 H234 0.956 . S
C222 H235 0.961 . S
C222 H236 0.961 . S
C223 C220 1.539 . S
C223 H237 0.958 . S
C223 H238 0.961 . S
C223 H239 0.960 . S
H224 C208 0.931 . S
H225 C213 0.929 . S
H226 C214 0.960 . S
H227 C214 0.962 . S
H228 C214 0.960 . S
H229 C215 0.961 . S
H230 C215 0.961 . S
H231 C215 0.961 . S
H232 C216 0.931 . S
H233 C221 0.930 . S
H234 C222 0.956 . S
H235 C222 0.961 . S
H236 C222 0.961 . S
H237 C223 0.958 . S
H238 C223 0.961 . S
H239 C223 0.960 . S
C240 C241 1.391 . S
C240 C242 1.394 . S
C240 H256 0.931 . S
C241 C240 1.391 . S
C241 C245 1.376 . S
C242 C240 1.394 . S
C242 C243 1.369 . S
C242 C246 1.531 . S
C243 C242 1.369 . S
C243 C244 1.410 . S
C243 C251 1.503 . S
C244 C243 1.410 . S
C244 C245 1.392 . S
C244 C247 1.511 . S
C245 C241 1.376 . S
C245 C244 1.392 . S
C245 H257 0.929 . S
C246 C242 1.531 . S
C246 H258 0.960 . S
C246 H259 0.962 . S
C246 H260 0.960 . S
C247 C244 1.511 . S
C247 H261 0.961 . S
C247 H262 0.961 . S
C247 H263 0.961 . S
C248 C249 1.370 . S
C248 C250 1.363 . S
C248 H264 0.931 . S
C249 C248 1.370 . S
C249 C253 1.408 . S
C250 C248 1.363 . S
C250 C251 1.370 . S
C250 C254 1.524 . S
C251 C243 1.503 . S
C251 C250 1.370 . S
C251 C252 1.403 . S
C252 C251 1.403 . S
C252 C253 1.404 . S
C252 C255 1.539 . S
C253 C249 1.408 . S
C253 C252 1.404 . S
C253 H265 0.930 . S
C254 C250 1.524 . S
C254 H266 0.956 . S
C254 H267 0.961 . S
C254 H268 0.961 . S
C255 C252 1.539 . S
C255 H269 0.958 . S
C255 H270 0.961 . S
C255 H271 0.960 . S
H256 C240 0.931 . S
H257 C245 0.929 . S
H258 C246 0.960 . S
H259 C246 0.962 . S
H260 C246 0.960 . S
H261 C247 0.961 . S
H262 C247 0.961 . S
H263 C247 0.961 . S
H264 C248 0.931 . S
H265 C253 0.930 . S
H266 C254 0.956 . S
H267 C254 0.961 . S
H268 C254 0.961 . S
H269 C255 0.958 . S
H270 C255 0.961 . S
H271 C255 0.960 . S
C272 C273 1.391 . S
C272 C274 1.394 . S
C272 H288 0.931 . S
C273 C272 1.391 . S
C273 C277 1.376 . S
C274 C272 1.394 . S
C274 C275 1.369 . S
C274 C278 1.531 . S
C275 C274 1.369 . S
C275 C276 1.410 . S
C275 C283 1.503 . S
C276 C275 1.410 . S
C276 C277 1.392 . S
C276 C279 1.511 . S
C277 C273 1.376 . S
C277 C276 1.392 . S
C277 H289 0.929 . S
C278 C274 1.531 . S
C278 H290 0.960 . S
C278 H291 0.962 . S
C278 H292 0.960 . S
C279 C276 1.511 . S
C279 H293 0.961 . S
C279 H294 0.961 . S
C279 H295 0.961 . S
C280 C281 1.370 . S
C280 C282 1.363 . S
C280 H296 0.931 . S
C281 C280 1.370 . S
C281 C285 1.408 . S
C282 C280 1.363 . S
C282 C283 1.370 . S
C282 C286 1.524 . S
C283 C275 1.503 . S
C283 C282 1.370 . S
C283 C284 1.403 . S
C284 C283 1.403 . S
C284 C285 1.404 . S
C284 C287 1.539 . S
C285 C281 1.408 . S
C285 C284 1.404 . S
C285 H297 0.930 . S
C286 C282 1.524 . S
C286 H298 0.956 . S
C286 H299 0.961 . S
C286 H300 0.961 . S
C287 C284 1.539 . S
C287 H301 0.958 . S
C287 H302 0.961 . S
C287 H303 0.960 . S
H288 C272 0.931 . S
H289 C277 0.929 . S
H290 C278 0.960 . S
H291 C278 0.962 . S
H292 C278 0.960 . S
H293 C279 0.961 . S
H294 C279 0.961 . S
H295 C279 0.961 . S
H296 C280 0.931 . S
H297 C285 0.930 . S
H298 C286 0.956 . S
H299 C286 0.961 . S
H300 C286 0.961 . S
H301 C287 0.958 . S
H302 C287 0.961 . S
H303 C287 0.960 . S
C304 C305 1.391 . S
C304 C306 1.394 . S
C304 H320 0.931 . S
C305 C304 1.391 . S
C305 C309 1.376 . S
C306 C304 1.394 . S
C306 C307 1.369 . S
C306 C310 1.531 . S
C307 C306 1.369 . S
C307 C308 1.410 . S
C307 C315 1.503 . S
C308 C307 1.410 . S
C308 C309 1.392 . S
C308 C311 1.511 . S
C309 C305 1.376 . S
C309 C308 1.392 . S
C309 H321 0.929 . S
C310 C306 1.531 . S
C310 H322 0.960 . S
C310 H323 0.962 . S
C310 H324 0.960 . S
C311 C308 1.511 . S
C311 H325 0.961 . S
C311 H326 0.961 . S
C311 H327 0.961 . S
C312 C313 1.370 . S
C312 C314 1.363 . S
C312 H328 0.931 . S
C313 C312 1.370 . S
C313 C317 1.408 . S
C314 C312 1.363 . S
C314 C315 1.370 . S
C314 C318 1.524 . S
C315 C307 1.503 . S
C315 C314 1.370 . S
C315 C316 1.403 . S
C316 C315 1.403 . S
C316 C317 1.404 . S
C316 C319 1.539 . S
C317 C313 1.408 . S
C317 C316 1.404 . S
C317 H329 0.930 . S
C318 C314 1.524 . S
C318 H330 0.956 . S
C318 H331 0.961 . S
C318 H332 0.961 . S
C319 C316 1.539 . S
C319 H333 0.958 . S
C319 H334 0.961 . S
C319 H335 0.960 . S
H320 C304 0.931 . S
H321 C309 0.929 . S
H322 C310 0.960 . S
H323 C310 0.962 . S
H324 C310 0.960 . S
H325 C311 0.961 . S
H326 C311 0.961 . S
H327 C311 0.961 . S
H328 C312 0.931 . S
H329 C317 0.930 . S
H330 C318 0.956 . S
H331 C318 0.961 . S
H332 C318 0.961 . S
H333 C319 0.958 . S
H334 C319 0.961 . S
H335 C319 0.960 . S
C336 C337 1.391 1_556 S
C336 C338 1.394 . S
C336 H352 0.931 . S
C337 C336 1.391 1_554 S
C337 C341 1.376 . S
C338 C336 1.394 . S
C338 C339 1.369 . S
C338 C342 1.531 . S
C339 C338 1.369 . S
C339 C340 1.410 1_556 S
C339 C347 1.503 . S
C340 C339 1.410 1_554 S
C340 C341 1.392 . S
C340 C343 1.511 . S
C341 C337 1.376 . S
C341 C340 1.392 . S
C341 H353 0.929 . S
C342 C338 1.531 . S
C342 H354 0.960 . S
C342 H355 0.962 . S
C342 H356 0.960 . S
C343 C340 1.511 . S
C343 H357 0.961 . S
C343 H358 0.961 . S
C343 H359 0.961 . S
C344 C345 1.370 . S
C344 C346 1.363 . S
C344 H360 0.931 . S
C345 C344 1.370 . S
C345 C349 1.408 . S
C346 C344 1.363 . S
C346 C347 1.370 . S
C346 C350 1.524 1_556 S
C347 C339 1.503 . S
C347 C346 1.370 . S
C347 C348 1.403 . S
C348 C347 1.403 . S
C348 C349 1.404 . S
C348 C351 1.539 . S
C349 C345 1.408 . S
C349 C348 1.404 . S
C349 H361 0.930 . S
C350 C346 1.524 1_554 S
C350 H362 0.956 . S
C350 H363 0.961 . S
C350 H364 0.961 . S
C351 C348 1.539 . S
C351 H365 0.958 . S
C351 H366 0.961 . S
C351 H367 0.960 . S
H352 C336 0.931 . S
H353 C341 0.929 . S
H354 C342 0.960 . S
H355 C342 0.962 . S
H356 C342 0.960 . S
H357 C343 0.961 . S
H358 C343 0.961 . S
H359 C343 0.961 . S
H360 C344 0.931 . S
H361 C349 0.930 . S
H362 C350 0.956 . S
H363 C350 0.961 . S
H364 C350 0.961 . S
H365 C351 0.958 . S
H366 C351 0.961 . S
H367 C351 0.960 . S
C368 C369 1.391 . S
C368 C370 1.394 . S
C368 H384 0.931 . S
C369 C368 1.391 . S
C369 C373 1.376 . S
C370 C368 1.394 . S
C370 C371 1.369 . S
C370 C374 1.531 . S
C371 C370 1.369 . S
C371 C372 1.410 . S
C371 C379 1.503 . S
C372 C371 1.410 . S
C372 C373 1.392 . S
C372 C375 1.511 1_554 S
C373 C369 1.376 . S
C373 C372 1.392 . S
C373 H385 0.929 . S
C374 C370 1.531 . S
C374 H386 0.960 . S
C374 H387 0.962 . S
C374 H388 0.960 . S
C375 C372 1.511 1_556 S
C375 H389 0.973 . S
C375 H390 0.961 . S
C375 H391 0.961 . S
C376 C377 1.370 1_554 S
C376 C378 1.363 . S
C376 H392 0.931 . S
C377 C376 1.370 1_556 S
C377 C381 1.408 . S
C378 C376 1.363 . S
C378 C379 1.370 . S
C378 C382 1.524 . S
C379 C371 1.503 . S
C379 C378 1.370 . S
C379 C380 1.403 1_554 S
C380 C379 1.403 1_556 S
C380 C381 1.404 . S
C380 C383 1.539 . S
C381 C377 1.408 . S
C381 C380 1.404 . S
C381 H393 0.930 . S
C382 C378 1.524 . S
C382 H394 0.956 . S
C382 H395 0.961 . S
C382 H396 0.961 . S
C383 C380 1.539 . S
C383 H397 0.958 . S
C383 H398 0.961 . S
C383 H399 0.960 . S
H384 C368 0.931 . S
H385 C373 0.929 . S
H386 C374 0.960 . S
H387 C374 0.962 . S
H388 C374 0.960 . S
H389 C375 0.973 . S
H390 C375 0.961 . S
H391 C375 0.961 . S
H392 C376 0.931 . S
H393 C381 0.930 . S
H394 C382 0.956 . S
H395 C382 0.961 . S
H396 C382 0.961 . S
H397 C383 0.958 . S
H398 C383 0.961 . S
H399 C383 0.960 . S
C400 C401 1.391 . S
C400 C402 1.394 . S
C400 H416 0.931 . S
C401 C400 1.391 . S
C401 C405 1.376 . S
C402 C400 1.394 . S
C402 C403 1.369 . S
C402 C406 1.531 1_556 S
C403 C402 1.369 . S
C403 C404 1.410 . S
C403 C411 1.503 . S
C404 C403 1.410 . S
C404 C405 1.392 . S
C404 C407 1.511 . S
C405 C401 1.376 . S
C405 C404 1.392 . S
C405 H417 0.929 . S
C406 C402 1.531 1_554 S
C406 H418 0.960 . S
C406 H419 0.962 1_554 S
C406 H420 0.960 . S
C407 C404 1.511 . S
C407 H421 0.961 . S
C407 H422 0.961 . S
C407 H423 0.961 . S
C408 C409 1.370 1_556 S
C408 C410 1.363 . S
C408 H424 0.931 . S
C409 C408 1.370 1_554 S
C409 C413 1.408 . S
C410 C408 1.363 . S
C410 C411 1.370 . S
C410 C414 1.524 . S
C411 C403 1.503 . S
C411 C410 1.370 . S
C411 C412 1.403 1_556 S
C412 C411 1.403 1_554 S
C412 C413 1.404 . S
C412 C415 1.539 . S
C413 C409 1.408 . S
C413 C412 1.404 . S
C413 H425 0.930 . S
C414 C410 1.524 . S
C414 H426 0.956 . S
C414 H427 0.961 . S
C414 H428 0.961 . S
C415 C412 1.539 . S
C415 H429 0.958 . S
C415 H430 0.961 . S
C415 H431 0.960 . S
H416 C400 0.931 . S
H417 C405 0.929 . S
H418 C406 0.960 . S
H419 C406 0.962 1_556 S
H420 C406 0.960 . S
H421 C407 0.961 . S
H422 C407 0.961 . S
H423 C407 0.961 . S
H424 C408 0.931 . S
H425 C413 0.930 . S
H426 C414 0.956 . S
H427 C414 0.961 . S
H428 C414 0.961 . S
H429 C415 0.958 . S
H430 C415 0.961 . S
H431 C415 0.960 . S
C432 C433 1.391 . S
C432 C434 1.394 . S
C432 H448 0.931 . S
C433 C432 1.391 . S
C433 C437 1.376 . S
C434 C432 1.394 . S
C434 C435 1.369 . S
C434 C438 1.531 1_554 S
C435 C434 1.369 . S
C435 C436 1.410 . S
C435 C443 1.503 . S
C436 C435 1.410 . S
C436 C437 1.392 . S
C436 C439 1.511 . S
C437 C433 1.376 . S
C437 C436 1.392 . S
C437 H449 0.929 . S
C438 C434 1.531 1_556 S
C438 H450 0.960 . S
C438 H451 0.962 . S
C438 H452 0.960 . S
C439 C436 1.511 . S
C439 H453 0.961 . S
C439 H454 0.961 . S
C439 H455 0.961 . S
C440 C441 1.370 1_554 S
C440 C442 1.363 . S
C440 H456 0.931 1_655 S
C441 C440 1.370 1_556 S
C441 C445 1.408 . S
C442 C440 1.363 . S
C442 C443 1.370 . S
C442 C446 1.524 . S
C443 C435 1.503 . S
C443 C442 1.370 . S
C443 C444 1.403 1_554 S
C444 C443 1.403 1_556 S
C444 C445 1.404 . S
C444 C447 1.539 . S
C445 C441 1.408 . S
C445 C444 1.404 . S
C445 H457 0.930 . S
C446 C442 1.524 . S
C446 H458 0.956 . S
C446 H459 0.961 . S
C446 H460 0.961 . S
C447 C444 1.539 . S
C447 H461 0.958 . S
C447 H462 0.961 . S
C447 H463 0.960 . S
H448 C432 0.931 . S
H449 C437 0.929 . S
H450 C438 0.960 . S
H451 C438 0.962 . S
H452 C438 0.960 . S
H453 C439 0.961 . S
H454 C439 0.961 . S
H455 C439 0.961 . S
H456 C440 0.931 1_455 S
H457 C445 0.930 . S
H458 C446 0.956 . S
H459 C446 0.961 . S
H460 C446 0.961 . S
H461 C447 0.958 . S
H462 C447 0.961 . S
H463 C447 0.960 . S
C464 C465 1.391 . S
C464 C466 1.394 . S
C464 H480 0.931 . S
C465 C464 1.391 . S
C465 C469 1.376 . S
C466 C464 1.394 . S
C466 C467 1.369 . S
C466 C470 1.531 . S
C467 C466 1.369 . S
C467 C468 1.410 . S
C467 C475 1.503 . S
C468 C467 1.410 . S
C468 C469 1.392 . S
C468 C471 1.511 . S
C469 C465 1.376 . S
C469 C468 1.392 . S
C469 H481 0.929 . S
C470 C466 1.531 . S
C470 H482 0.960 . S
C470 H483 0.962 . S
C470 H484 0.960 . S
C471 C468 1.511 . S
C471 H485 0.961 . S
C471 H486 0.961 . S
C471 H487 0.961 . S
C472 C473 1.370 . S
C472 C474 1.363 . S
C472 H488 0.931 1_565 S
C473 C472 1.370 . S
C473 C477 1.408 . S
C474 C472 1.363 . S
C474 C475 1.370 . S
C474 C478 1.524 . S
C475 C467 1.503 . S
C475 C474 1.370 . S
C475 C476 1.403 . S
C476 C475 1.403 . S
C476 C477 1.404 . S
C476 C479 1.539 . S
C477 C473 1.408 . S
C477 C476 1.404 . S
C477 H489 0.930 . S
C478 C474 1.524 . S
C478 H490 0.956 . S
C478 H491 0.961 . S
C478 H492 0.961 . S
C479 C476 1.539 . S
C479 H493 0.958 . S
C479 H494 0.961 . S
C479 H495 0.960 . S
H480 C464 0.931 . S
H481 C469 0.929 . S
H482 C470 0.960 . S
H483 C470 0.962 . S
H484 C470 0.960 . S
H485 C471 0.961 . S
H486 C471 0.961 . S
H487 C471 0.961 . S
H488 C472 0.931 1_545 S
H489 C477 0.930 . S
H490 C478 0.956 . S
H491 C478 0.961 . S
H492 C478 0.961 . S
H493 C479 0.958 . S
H494 C479 0.961 . S
H495 C479 0.960 . S
C496 C497 1.392 . S
C496 C498 1.399 . S
C496 H512 0.924 1_655 S
C497 C496 1.392 . S
C497 C501 1.376 . S
C498 C496 1.399 . S
C498 C499 1.369 . S
C498 C502 1.531 . S
C499 C498 1.369 . S
C499 C500 1.410 . S
C499 C507 1.503 . S
C500 C499 1.410 . S
C500 C501 1.392 . S
C500 C503 1.511 . S
C501 C497 1.376 . S
C501 C500 1.392 . S
C501 H513 0.929 . S
C502 C498 1.531 . S
C502 H514 0.960 . S
C502 H515 0.962 . S
C502 H516 0.960 . S
C503 C500 1.511 . S
C503 H517 0.961 . S
C503 H518 0.961 . S
C503 H519 0.961 . S
C504 C505 1.370 . S
C504 C506 1.363 . S
C504 H520 0.931 . S
C505 C504 1.370 . S
C505 C509 1.408 . S
C506 C504 1.363 . S
C506 C507 1.370 . S
C506 C510 1.524 . S
C507 C499 1.503 . S
C507 C506 1.370 . S
C507 C508 1.403 . S
C508 C507 1.403 . S
C508 C509 1.404 . S
C508 C511 1.539 . S
C509 C505 1.408 . S
C509 C508 1.404 . S
C509 H521 0.930 . S
C510 C506 1.524 . S
C510 H522 0.956 . S
C510 H523 0.961 . S
C510 H524 0.961 . S
C511 C508 1.539 . S
C511 H525 0.958 . S
C511 H526 0.961 . S
C511 H527 0.960 . S
H512 C496 0.924 1_455 S
H513 C501 0.929 . S
H514 C502 0.960 . S
H515 C502 0.962 . S
H516 C502 0.960 . S
H517 C503 0.961 . S
H518 C503 0.961 . S
H519 C503 0.961 . S
H520 C504 0.931 . S
H521 C509 0.930 . S
H522 C510 0.956 . S
H523 C510 0.961 . S
H524 C510 0.961 . S
H525 C511 0.958 . S
H526 C511 0.961 . S
H527 C511 0.960 . S
C528 C529 1.391 . S
C528 C530 1.394 . S
C528 H544 0.931 . S
C529 C528 1.391 . S
C529 C533 1.376 . S
C530 C528 1.394 . S
C530 C531 1.369 . S
C530 C534 1.531 . S
C531 C530 1.369 . S
C531 C532 1.410 . S
C531 C539 1.503 . S
C532 C531 1.410 . S
C532 C533 1.392 . S
C532 C535 1.511 . S
C533 C529 1.376 . S
C533 C532 1.392 . S
C533 H545 0.929 . S
C534 C530 1.531 . S
C534 H546 0.960 . S
C534 H547 0.962 . S
C534 H548 0.960 . S
C535 C532 1.511 . S
C535 H549 0.961 . S
C535 H550 0.961 . S
C535 H551 0.961 . S
C536 C537 1.370 . S
C536 C538 1.363 . S
C536 H552 0.931 . S
C537 C536 1.370 . S
C537 C541 1.408 . S
C538 C536 1.363 . S
C538 C539 1.370 . S
C538 C542 1.524 . S
C539 C531 1.503 . S
C539 C538 1.370 . S
C539 C540 1.403 . S
C540 C539 1.403 . S
C540 C541 1.404 . S
C540 C543 1.539 . S
C541 C537 1.408 . S
C541 C540 1.404 . S
C541 H553 0.930 . S
C542 C538 1.524 . S
C542 H554 0.956 . S
C542 H555 0.961 . S
C542 H556 0.961 . S
C543 C540 1.539 . S
C543 H557 0.958 . S
C543 H558 0.961 . S
C543 H559 0.960 . S
H544 C528 0.931 . S
H545 C533 0.929 . S
H546 C534 0.960 . S
H547 C534 0.962 . S
H548 C534 0.960 . S
H549 C535 0.961 . S
H550 C535 0.961 . S
H551 C535 0.961 . S
H552 C536 0.931 . S
H553 C541 0.930 . S
H554 C542 0.956 . S
H555 C542 0.961 . S
H556 C542 0.961 . S
H557 C543 0.958 . S
H558 C543 0.961 . S
H559 C543 0.960 . S
C560 C561 1.391 . S
C560 C562 1.394 . S
C560 H576 0.931 1_455 S
C561 C560 1.391 . S
C561 C565 1.376 . S
C562 C560 1.394 . S
C562 C563 1.369 . S
C562 C566 1.531 . S
C563 C562 1.369 . S
C563 C564 1.410 . S
C563 C571 1.503 . S
C564 C563 1.410 . S
C564 C565 1.392 . S
C564 C567 1.511 . S
C565 C561 1.376 . S
C565 C564 1.392 . S
C565 H577 0.929 . S
C566 C562 1.531 . S
C566 H578 0.960 . S
C566 H579 0.962 . S
C566 H580 0.960 . S
C567 C564 1.511 . S
C567 H581 0.961 . S
C567 H582 0.961 . S
C567 H583 0.961 . S
C568 C569 1.370 . S
C568 C570 1.363 . S
C568 H584 0.931 . S
C569 C568 1.370 . S
C569 C573 1.408 . S
C570 C568 1.363 . S
C570 C571 1.370 . S
C570 C574 1.524 . S
C571 C563 1.503 . S
C571 C570 1.370 . S
C571 C572 1.403 . S
C572 C571 1.403 . S
C572 C573 1.404 . S
C572 C575 1.539 . S
C573 C569 1.408 . S
C573 C572 1.404 . S
C573 H585 0.930 . S
C574 C570 1.524 . S
C574 H586 0.956 . S
C574 H587 0.961 . S
C574 H588 0.961 . S
C575 C572 1.539 . S
C575 H589 0.958 . S
C575 H590 0.961 . S
C575 H591 0.960 . S
H576 C560 0.931 1_655 S
H577 C565 0.929 . S
H578 C566 0.960 . S
H579 C566 0.962 . S
H580 C566 0.960 . S
H581 C567 0.961 . S
H582 C567 0.961 . S
H583 C567 0.961 . S
H584 C568 0.931 . S
H585 C573 0.930 . S
H586 C574 0.956 . S
H587 C574 0.961 . S
H588 C574 0.961 . S
H589 C575 0.958 . S
H590 C575 0.961 . S
H591 C575 0.960 . S
C592 C593 1.391 . S
C592 C594 1.394 . S
C592 H608 0.931 . S
C593 C592 1.391 . S
C593 C597 1.376 . S
C594 C592 1.394 . S
C594 C595 1.369 . S
C594 C598 1.531 . S
C595 C594 1.369 . S
C595 C596 1.410 . S
C595 C603 1.503 . S
C596 C595 1.410 . S
C596 C597 1.392 . S
C596 C599 1.511 . S
C597 C593 1.376 . S
C597 C596 1.392 . S
C597 H609 0.929 . S
C598 C594 1.531 . S
C598 H610 0.960 . S
C598 H611 0.962 . S
C598 H612 0.960 . S
C599 C596 1.511 . S
C599 H613 0.961 . S
C599 H614 0.961 . S
C599 H615 0.961 . S
C600 C601 1.370 . S
C600 C602 1.363 . S
C600 H616 0.931 . S
C601 C600 1.370 . S
C601 C605 1.408 . S
C602 C600 1.363 . S
C602 C603 1.370 . S
C602 C606 1.524 . S
C603 C595 1.503 . S
C603 C602 1.370 . S
C603 C604 1.403 . S
C604 C603 1.403 . S
C604 C605 1.404 . S
C604 C607 1.539 . S
C605 C601 1.408 . S
C605 C604 1.404 . S
C605 H617 0.930 . S
C606 C602 1.524 . S
C606 H618 0.956 . S
C606 H619 0.961 . S
C606 H620 0.961 . S
C607 C604 1.539 . S
C607 H621 0.958 . S
C607 H622 0.961 . S
C607 H623 0.960 . S
H608 C592 0.931 . S
H609 C597 0.929 . S
H610 C598 0.960 . S
H611 C598 0.962 . S
H612 C598 0.960 . S
H613 C599 0.961 . S
H614 C599 0.961 . S
H615 C599 0.961 . S
H616 C600 0.931 . S
H617 C605 0.930 . S
H618 C606 0.956 . S
H619 C606 0.961 . S
H620 C606 0.961 . S
H621 C607 0.958 . S
H622 C607 0.961 . S
H623 C607 0.960 . S
C624 C625 1.391 . S
C624 C626 1.394 . S
C624 H640 0.931 . S
C625 C624 1.391 . S
C625 C629 1.376 . S
C626 C624 1.394 . S
C626 C627 1.369 . S
C626 C630 1.531 . S
C627 C626 1.369 . S
C627 C628 1.410 . S
C627 C635 1.503 . S
C628 C627 1.410 . S
C628 C629 1.392 . S
C628 C631 1.511 . S
C629 C625 1.376 . S
C629 C628 1.392 . S
C629 H641 0.929 . S
C630 C626 1.531 . S
C630 H642 0.960 . S
C630 H643 0.962 . S
C630 H644 0.960 . S
C631 C628 1.511 . S
C631 H645 0.961 . S
C631 H646 0.961 . S
C631 H647 0.961 . S
C632 C633 1.370 . S
C632 C634 1.363 . S
C632 H648 0.931 . S
C633 C632 1.370 . S
C633 C637 1.408 . S
C634 C632 1.363 . S
C634 C635 1.370 . S
C634 C638 1.524 . S
C635 C627 1.503 . S
C635 C634 1.370 . S
C635 C636 1.403 . S
C636 C635 1.403 . S
C636 C637 1.404 . S
C636 C639 1.539 . S
C637 C633 1.408 . S
C637 C636 1.404 . S
C637 H649 0.930 . S
C638 C634 1.524 . S
C638 H650 0.956 . S
C638 H651 0.961 . S
C638 H652 0.961 . S
C639 C636 1.539 . S
C639 H653 0.958 . S
C639 H654 0.961 . S
C639 H655 0.960 . S
H640 C624 0.931 . S
H641 C629 0.929 . S
H642 C630 0.960 . S
H643 C630 0.962 . S
H644 C630 0.960 . S
H645 C631 0.961 . S
H646 C631 0.961 . S
H647 C631 0.961 . S
H648 C632 0.931 . S
H649 C637 0.930 . S
H650 C638 0.956 . S
H651 C638 0.961 . S
H652 C638 0.961 . S
H653 C639 0.958 . S
H654 C639 0.961 . S
H655 C639 0.960 . S
C656 C657 1.391 . S
C656 C658 1.394 . S
C656 H672 0.931 . S
C657 C656 1.391 . S
C657 C661 1.376 . S
C658 C656 1.394 . S
C658 C659 1.369 . S
C658 C662 1.531 . S
C659 C658 1.369 . S
C659 C660 1.410 . S
C659 C667 1.503 . S
C660 C659 1.410 . S
C660 C661 1.392 . S
C660 C663 1.511 . S
C661 C657 1.376 . S
C661 C660 1.392 . S
C661 H673 0.929 . S
C662 C658 1.531 . S
C662 H674 0.960 . S
C662 H675 0.962 . S
C662 H676 0.960 . S
C663 C660 1.511 . S
C663 H677 0.961 . S
C663 H678 0.961 . S
C663 H679 0.961 . S
C664 C665 1.370 . S
C664 C666 1.363 . S
C664 H680 0.931 . S
C665 C664 1.370 . S
C665 C669 1.408 . S
C666 C664 1.363 . S
C666 C667 1.370 . S
C666 C670 1.524 . S
C667 C659 1.503 . S
C667 C666 1.370 . S
C667 C668 1.403 . S
C668 C667 1.403 . S
C668 C669 1.404 . S
C668 C671 1.539 . S
C669 C665 1.408 . S
C669 C668 1.404 . S
C669 H681 0.930 . S
C670 C666 1.524 . S
C670 H682 0.956 . S
C670 H683 0.961 . S
C670 H684 0.961 . S
C671 C668 1.539 . S
C671 H685 0.958 . S
C671 H686 0.961 . S
C671 H687 0.960 . S
H672 C656 0.931 . S
H673 C661 0.929 . S
H674 C662 0.960 . S
H675 C662 0.962 . S
H676 C662 0.960 . S
H677 C663 0.961 . S
H678 C663 0.961 . S
H679 C663 0.961 . S
H680 C664 0.931 . S
H681 C669 0.930 . S
H682 C670 0.956 . S
H683 C670 0.961 . S
H684 C670 0.961 . S
H685 C671 0.958 . S
H686 C671 0.961 . S
H687 C671 0.960 . S
C688 C689 1.391 . S
C688 C690 1.394 . S
C688 H704 0.931 . S
C689 C688 1.391 . S
C689 C693 1.376 . S
C690 C688 1.394 . S
C690 C691 1.369 . S
C690 C694 1.531 . S
C691 C690 1.369 . S
C691 C692 1.410 . S
C691 C699 1.503 . S
C692 C691 1.410 . S
C692 C693 1.392 . S
C692 C695 1.511 . S
C693 C689 1.376 . S
C693 C692 1.392 . S
C693 H705 0.929 . S
C694 C690 1.531 . S
C694 H706 0.960 . S
C694 H707 0.962 . S
C694 H708 0.960 . S
C695 C692 1.511 . S
C695 H709 0.961 . S
C695 H710 0.961 . S
C695 H711 0.961 . S
C696 C697 1.370 . S
C696 C698 1.363 . S
C696 H712 0.931 . S
C697 C696 1.370 . S
C697 C701 1.408 . S
C698 C696 1.363 . S
C698 C699 1.370 . S
C698 C702 1.524 . S
C699 C691 1.503 . S
C699 C698 1.370 . S
C699 C700 1.403 . S
C700 C699 1.403 . S
C700 C701 1.404 . S
C700 C703 1.539 . S
C701 C697 1.408 . S
C701 C700 1.404 . S
C701 H713 0.930 . S
C702 C698 1.524 . S
C702 H714 0.956 . S
C702 H715 0.961 . S
C702 H716 0.961 . S
C703 C700 1.539 . S
C703 H717 0.958 . S
C703 H718 0.961 . S
C703 H719 0.960 . S
H704 C688 0.931 . S
H705 C693 0.929 . S
H706 C694 0.960 . S
H707 C694 0.962 . S
H708 C694 0.960 . S
H709 C695 0.961 . S
H710 C695 0.961 . S
H711 C695 0.961 . S
H712 C696 0.931 . S
H713 C701 0.930 . S
H714 C702 0.956 . S
H715 C702 0.961 . S
H716 C702 0.961 . S
H717 C703 0.958 . S
H718 C703 0.961 . S
H719 C703 0.960 . S
C720 C721 1.391 . S
C720 C722 1.394 . S
C720 H736 0.931 . S
C721 C720 1.391 . S
C721 C725 1.376 . S
C722 C720 1.394 . S
C722 C723 1.369 . S
C722 C726 1.531 . S
C723 C722 1.369 . S
C723 C724 1.410 . S
C723 C731 1.503 . S
C724 C723 1.410 . S
C724 C725 1.392 . S
C724 C727 1.511 . S
C725 C721 1.376 . S
C725 C724 1.392 . S
C725 H737 0.929 . S
C726 C722 1.531 . S
C726 H738 0.960 . S
C726 H739 0.962 . S
C726 H740 0.960 . S
C727 C724 1.511 . S
C727 H741 0.961 . S
C727 H742 0.961 . S
C727 H743 0.961 . S
C728 C729 1.370 . S
C728 C730 1.363 . S
C728 H744 0.931 . S
C729 C728 1.370 . S
C729 C733 1.408 . S
C730 C728 1.363 . S
C730 C731 1.370 . S
C730 C734 1.524 . S
C731 C723 1.503 . S
C731 C730 1.370 . S
C731 C732 1.403 . S
C732 C731 1.403 . S
C732 C733 1.404 . S
C732 C735 1.539 . S
C733 C729 1.408 . S
C733 C732 1.404 . S
C733 H745 0.930 . S
C734 C730 1.524 . S
C734 H746 0.956 . S
C734 H747 0.961 . S
C734 H748 0.961 . S
C735 C732 1.539 . S
C735 H749 0.958 . S
C735 H750 0.961 . S
C735 H751 0.960 . S
H736 C720 0.931 . S
H737 C725 0.929 . S
H738 C726 0.960 . S
H739 C726 0.962 . S
H740 C726 0.960 . S
H741 C727 0.961 . S
H742 C727 0.961 . S
H743 C727 0.961 . S
H744 C728 0.931 . S
H745 C733 0.930 . S
H746 C734 0.956 . S
H747 C734 0.961 . S
H748 C734 0.961 . S
H749 C735 0.958 . S
H750 C735 0.961 . S
H751 C735 0.960 . S
C752 C753 1.391 . S
C752 C754 1.394 . S
C752 H768 0.931 . S
C753 C752 1.391 . S
C753 C757 1.376 . S
C754 C752 1.394 . S
C754 C755 1.369 . S
C754 C758 1.531 . S
C755 C754 1.369 . S
C755 C756 1.410 . S
C755 C763 1.503 . S
C756 C755 1.410 . S
C756 C757 1.392 . S
C756 C759 1.511 . S
C757 C753 1.376 . S
C757 C756 1.392 . S
C757 H769 0.929 . S
C758 C754 1.531 . S
C758 H770 0.960 . S
C758 H771 0.962 . S
C758 H772 0.960 . S
C759 C756 1.511 . S
C759 H773 0.961 . S
C759 H774 0.961 . S
C759 H775 0.961 . S
C760 C761 1.370 . S
C760 C762 1.363 . S
C760 H776 0.931 . S
C761 C760 1.370 . S
C761 C765 1.408 . S
C762 C760 1.363 . S
C762 C763 1.370 . S
C762 C766 1.524 . S
C763 C755 1.503 . S
C763 C762 1.370 . S
C763 C764 1.403 . S
C764 C763 1.403 . S
C764 C765 1.404 . S
C764 C767 1.539 . S
C765 C761 1.408 . S
C765 C764 1.404 . S
C765 H777 0.930 . S
C766 C762 1.524 . S
C766 H778 0.956 . S
C766 H779 0.961 . S
C766 H780 0.961 . S
C767 C764 1.539 . S
C767 H781 0.958 . S
C767 H782 0.961 . S
C767 H783 0.960 . S
H768 C752 0.931 . S
H769 C757 0.929 . S
H770 C758 0.960 . S
H771 C758 0.962 . S
H772 C758 0.960 . S
H773 C759 0.961 . S
H774 C759 0.961 . S
H775 C759 0.961 . S
H776 C760 0.931 . S
H777 C765 0.930 . S
H778 C766 0.956 . S
H779 C766 0.961 . S
H780 C766 0.961 . S
H781 C767 0.958 . S
H782 C767 0.961 . S
H783 C767 0.960 . S
C784 C785 1.391 . S
C784 C786 1.394 . S
C784 H800 0.931 . S
C785 C784 1.391 . S
C785 C789 1.376 . S
C786 C784 1.394 . S
C786 C787 1.369 . S
C786 C790 1.531 . S
C787 C786 1.369 . S
C787 C788 1.410 . S
C787 C795 1.503 . S
C788 C787 1.410 . S
C788 C789 1.392 . S
C788 C791 1.511 . S
C789 C785 1.376 . S
C789 C788 1.392 . S
C789 H801 0.929 . S
C790 C786 1.531 . S
C790 H802 0.960 . S
C790 H803 0.962 . S
C790 H804 0.960 . S
C791 C788 1.511 . S
C791 H805 0.961 . S
C791 H806 0.961 . S
C791 H807 0.961 . S
C792 C793 1.370 . S
C792 C794 1.363 . S
C792 H808 0.931 . S
C793 C792 1.370 . S
C793 C797 1.408 . S
C794 C792 1.363 . S
C794 C795 1.370 . S
C794 C798 1.524 . S
C795 C787 1.503 . S
C795 C794 1.370 . S
C795 C796 1.403 . S
C796 C795 1.403 . S
C796 C797 1.404 . S
C796 C799 1.539 . S
C797 C793 1.408 . S
C797 C796 1.404 . S
C797 H809 0.930 . S
C798 C794 1.524 . S
C798 H810 0.956 . S
C798 H811 0.961 . S
C798 H812 0.961 . S
C799 C796 1.539 . S
C799 H813 0.958 . S
C799 H814 0.961 . S
C799 H815 0.960 . S
H800 C784 0.931 . S
H801 C789 0.929 . S
H802 C790 0.960 . S
H803 C790 0.962 . S
H804 C790 0.960 . S
H805 C791 0.961 . S
H806 C791 0.961 . S
H807 C791 0.961 . S
H808 C792 0.931 . S
H809 C797 0.930 . S
H810 C798 0.956 . S
H811 C798 0.961 . S
H812 C798 0.961 . S
H813 C799 0.958 . S
H814 C799 0.961 . S
H815 C799 0.960 . S
C816 C817 1.391 . S
C816 C818 1.394 . S
C816 H832 0.931 . S
C817 C816 1.391 . S
C817 C821 1.376 . S
C818 C816 1.394 . S
C818 C819 1.369 . S
C818 C822 1.531 . S
C819 C818 1.369 . S
C819 C820 1.410 . S
C819 C827 1.503 . S
C820 C819 1.410 . S
C820 C821 1.392 . S
C820 C823 1.511 . S
C821 C817 1.376 . S
C821 C820 1.392 . S
C821 H833 0.929 . S
C822 C818 1.531 . S
C822 H834 0.960 . S
C822 H835 0.962 . S
C822 H836 0.960 . S
C823 C820 1.511 . S
C823 H837 0.961 . S
C823 H838 0.961 . S
C823 H839 0.961 . S
C824 C825 1.370 . S
C824 C826 1.363 . S
C824 H840 0.931 . S
C825 C824 1.370 . S
C825 C829 1.408 . S
C826 C824 1.363 . S
C826 C827 1.370 . S
C826 C830 1.524 . S
C827 C819 1.503 . S
C827 C826 1.370 . S
C827 C828 1.403 . S
C828 C827 1.403 . S
C828 C829 1.404 . S
C828 C831 1.539 . S
C829 C825 1.408 . S
C829 C828 1.404 . S
C829 H841 0.930 . S
C830 C826 1.524 . S
C830 H842 0.956 . S
C830 H843 0.961 . S
C830 H844 0.961 . S
C831 C828 1.539 . S
C831 H845 0.958 . S
C831 H846 0.961 . S
C831 H847 0.960 . S
H832 C816 0.931 . S
H833 C821 0.929 . S
H834 C822 0.960 . S
H835 C822 0.962 . S
H836 C822 0.960 . S
H837 C823 0.961 . S
H838 C823 0.961 . S
H839 C823 0.961 . S
H840 C824 0.931 . S
H841 C829 0.930 . S
H842 C830 0.956 . S
H843 C830 0.961 . S
H844 C830 0.961 . S
H845 C831 0.958 . S
H846 C831 0.961 . S
H847 C831 0.960 . S
C848 C849 1.391 . S
C848 C850 1.394 . S
C848 H864 0.931 . S
C849 C848 1.391 . S
C849 C853 1.376 . S
C850 C848 1.394 . S
C850 C851 1.369 . S
C850 C854 1.531 . S
C851 C850 1.369 . S
C851 C852 1.410 . S
C851 C859 1.503 . S
C852 C851 1.410 . S
C852 C853 1.392 . S
C852 C855 1.511 . S
C853 C849 1.376 . S
C853 C852 1.392 . S
C853 H865 0.929 . S
C854 C850 1.531 . S
C854 H866 0.960 . S
C854 H867 0.962 . S
C854 H868 0.960 . S
C855 C852 1.511 . S
C855 H869 0.961 . S
C855 H870 0.961 . S
C855 H871 0.961 . S
C856 C857 1.370 . S
C856 C858 1.363 . S
C856 H872 0.931 . S
C857 C856 1.370 . S
C857 C861 1.408 . S
C858 C856 1.363 . S
C858 C859 1.370 . S
C858 C862 1.524 . S
C859 C851 1.503 . S
C859 C858 1.370 . S
C859 C860 1.403 . S
C860 C859 1.403 . S
C860 C861 1.404 . S
C860 C863 1.539 . S
C861 C857 1.408 . S
C861 C860 1.404 . S
C861 H873 0.930 . S
C862 C858 1.524 . S
C862 H874 0.956 . S
C862 H875 0.961 . S
C862 H876 0.961 . S
C863 C860 1.539 . S
C863 H877 0.958 . S
C863 H878 0.961 . S
C863 H879 0.960 . S
H864 C848 0.931 . S
H865 C853 0.929 . S
H866 C854 0.960 . S
H867 C854 0.962 . S
H868 C854 0.960 . S
H869 C855 0.961 . S
H870 C855 0.961 . S
H871 C855 0.961 . S
H872 C856 0.931 . S
H873 C861 0.930 . S
H874 C862 0.956 . S
H875 C862 0.961 . S
H876 C862 0.961 . S
H877 C863 0.958 . S
H878 C863 0.961 . S
H879 C863 0.960 . S
C880 C881 1.391 . S
C880 C882 1.394 . S
C880 H896 0.931 . S
C881 C880 1.391 . S
C881 C885 1.376 . S
C882 C880 1.394 . S
C882 C883 1.369 . S
C882 C886 1.531 . S
C883 C882 1.369 . S
C883 C884 1.410 . S
C883 C891 1.503 . S
C884 C883 1.410 . S
C884 C885 1.392 . S
C884 C887 1.511 . S
C885 C881 1.376 . S
C885 C884 1.392 . S
C885 H897 0.929 . S
C886 C882 1.531 . S
C886 H898 0.960 . S
C886 H899 0.962 . S
C886 H900 0.960 . S
C887 C884 1.511 . S
C887 H901 0.961 . S
C887 H902 0.961 . S
C887 H903 0.961 . S
C888 C889 1.370 . S
C888 C890 1.363 . S
C888 H904 0.931 . S
C889 C888 1.370 . S
C889 C893 1.408 . S
C890 C888 1.363 . S
C890 C891 1.370 . S
C890 C894 1.524 . S
C891 C883 1.503 . S
C891 C890 1.370 . S
C891 C892 1.403 . S
C892 C891 1.403 . S
C892 C893 1.404 . S
C892 C895 1.539 . S
C893 C889 1.408 . S
C893 C892 1.404 . S
C893 H905 0.930 . S
C894 C890 1.524 . S
C894 H906 0.956 . S
C894 H907 0.961 . S
C894 H908 0.961 . S
C895 C892 1.539 . S
C895 H909 0.958 . S
C895 H910 0.961 . S
C895 H911 0.960 . S
H896 C880 0.931 . S
H897 C885 0.929 . S
H898 C886 0.960 . S
H899 C886 0.962 . S
H900 C886 0.960 . S
H901 C887 0.961 . S
H902 C887 0.961 . S
H903 C887 0.961 . S
H904 C888 0.931 . S
H905 C893 0.930 . S
H906 C894 0.956 . S
H907 C894 0.961 . S
H908 C894 0.961 . S
H909 C895 0.958 . S
H910 C895 0.961 . S
H911 C895 0.960 . S
C912 C913 1.391 . S
C912 C914 1.394 . S
C912 H928 0.931 . S
C913 C912 1.391 . S
C913 C917 1.376 . S
C914 C912 1.394 . S
C914 C915 1.369 . S
C914 C918 1.531 . S
C915 C914 1.369 . S
C915 C916 1.410 . S
C915 C923 1.503 . S
C916 C915 1.410 . S
C916 C917 1.392 . S
C916 C919 1.511 . S
C917 C913 1.376 . S
C917 C916 1.392 . S
C917 H929 0.929 . S
C918 C914 1.531 . S
C918 H930 0.960 . S
C918 H931 0.962 . S
C918 H932 0.960 . S
C919 C916 1.511 . S
C919 H933 0.961 . S
C919 H934 0.961 . S
C919 H935 0.961 . S
C920 C921 1.370 . S
C920 C922 1.363 . S
C920 H936 0.931 . S
C921 C920 1.370 . S
C921 C925 1.408 . S
C922 C920 1.363 . S
C922 C923 1.370 . S
C922 C926 1.524 . S
C923 C915 1.503 . S
C923 C922 1.370 . S
C923 C924 1.403 . S
C924 C923 1.403 . S
C924 C925 1.404 . S
C924 C927 1.539 . S
C925 C921 1.408 . S
C925 C924 1.404 . S
C925 H937 0.930 . S
C926 C922 1.524 . S
C926 H938 0.956 . S
C926 H939 0.961 . S
C926 H940 0.961 . S
C927 C924 1.539 . S
C927 H941 0.958 . S
C927 H942 0.961 . S
C927 H943 0.960 . S
H928 C912 0.931 . S
H929 C917 0.929 . S
H930 C918 0.960 . S
H931 C918 0.962 . S
H932 C918 0.960 . S
H933 C919 0.961 . S
H934 C919 0.961 . S
H935 C919 0.961 . S
H936 C920 0.931 . S
H937 C925 0.930 . S
H938 C926 0.956 . S
H939 C926 0.961 . S
H940 C926 0.961 . S
H941 C927 0.958 . S
H942 C927 0.961 . S
H943 C927 0.960 . S
C944 C945 1.391 . S
C944 C946 1.394 . S
C944 H960 0.931 . S
C945 C944 1.391 . S
C945 C949 1.376 . S
C946 C944 1.394 . S
C946 C947 1.369 . S
C946 C950 1.531 . S
C947 C946 1.369 . S
C947 C948 1.410 . S
C947 C955 1.503 . S
C948 C947 1.410 . S
C948 C949 1.392 . S
C948 C951 1.511 . S
C949 C945 1.376 . S
C949 C948 1.392 . S
C949 H961 0.929 . S
C950 C946 1.531 . S
C950 H962 0.960 . S
C950 H963 0.962 . S
C950 H964 0.960 . S
C951 C948 1.511 . S
C951 H965 0.961 . S
C951 H966 0.961 . S
C951 H967 0.961 . S
C952 C953 1.370 . S
C952 C954 1.363 . S
C952 H968 0.931 . S
C953 C952 1.370 . S
C953 C957 1.408 . S
C954 C952 1.363 . S
C954 C955 1.370 . S
C954 C958 1.524 . S
C955 C947 1.503 . S
C955 C954 1.370 . S
C955 C956 1.403 . S
C956 C955 1.403 . S
C956 C957 1.404 . S
C956 C959 1.539 . S
C957 C953 1.408 . S
C957 C956 1.404 . S
C957 H969 0.930 . S
C958 C954 1.524 . S
C958 H970 0.956 . S
C958 H971 0.961 . S
C958 H972 0.961 . S
C959 C956 1.539 . S
C959 H973 0.958 . S
C959 H974 0.961 . S
C959 H975 0.960 . S
H960 C944 0.931 . S
H961 C949 0.929 . S
H962 C950 0.960 . S
H963 C950 0.962 . S
H964 C950 0.960 . S
H965 C951 0.961 . S
H966 C951 0.961 . S
H967 C951 0.961 . S
H968 C952 0.931 . S
H969 C957 0.930 . S
H970 C958 0.956 . S
H971 C958 0.961 . S
H972 C958 0.961 . S
H973 C959 0.958 . S
H974 C959 0.961 . S
H975 C959 0.960 . S
C976 C977 1.391 . S
C976 C978 1.394 . S
C976 H992 0.931 . S
C977 C976 1.391 . S
C977 C981 1.376 . S
C978 C976 1.394 . S
C978 C979 1.369 . S
C978 C982 1.531 1_565 S
C979 C978 1.369 . S
C979 C980 1.410 1_655 S
C979 C987 1.503 1_665 S
C980 C979 1.410 1_455 S
C980 C981 1.392 1_455 S
C980 C983 1.511 . S
C981 C977 1.376 . S
C981 C980 1.392 1_655 S
C981 H993 0.929 1_655 S
C982 C978 1.531 1_545 S
C982 H994 0.960 . S
C982 H995 0.962 . S
C982 H996 0.960 1_545 S
C983 C980 1.511 . S
C983 H997 0.961 . S
C983 H998 0.961 . S
C983 H999 0.961 . S
C984 C985 1.370 . S
C984 C986 1.363 . S
C984 H1000 0.931 . S
C985 C984 1.370 . S
C985 C989 1.408 . S
C986 C984 1.363 . S
C986 C987 1.370 . S
C986 C990 1.524 1_455 S
C987 C979 1.503 1_445 S
C987 C986 1.370 . S
C987 C988 1.403 . S
C988 C987 1.403 . S
C988 C989 1.404 . S
C988 C991 1.539 . S
C989 C985 1.408 . S
C989 C988 1.404 . S
C989 H1001 0.930 . S
C990 C986 1.524 1_655 S
C990 H1002 0.956 . S
C990 H1003 0.958 1_545 S
C990 H1004 0.961 . S
C991 C988 1.539 . S
C991 H1005 0.958 . S
C991 H1006 0.961 . S
C991 H1007 0.960 1_545 S
H992 C976 0.931 . S
H993 C981 0.929 1_455 S
H994 C982 0.960 . S
H995 C982 0.962 . S
H996 C982 0.960 1_565 S
H997 C983 0.961 . S
H998 C983 0.961 . S
H999 C983 0.961 . S
H1000 C984 0.931 . S
H1001 C989 0.930 . S
H1002 C990 0.956 . S
H1003 C990 0.958 1_565 S
H1004 C990 0.961 . S
H1005 C991 0.958 . S
H1006 C991 0.961 . S
H1007 C991 0.960 1_565 S
C1008 C1009 1.391 . S
C1008 C1010 1.394 . S
C1008 H1024 0.931 . S
C1009 C1008 1.391 . S
C1009 C1013 1.376 . S
C1010 C1008 1.394 . S
C1010 C1011 1.369 . S
C1010 C1014 1.531 1_655 S
C1011 C1010 1.369 . S
C1011 C1012 1.410 1_545 S
C1011 C1019 1.503 1_645 S
C1012 C1011 1.410 1_565 S
C1012 C1013 1.392 1_565 S
C1012 C1015 1.511 . S
C1013 C1009 1.376 . S
C1013 C1012 1.392 1_545 S
C1013 H1025 0.929 1_545 S
C1014 C1010 1.531 1_455 S
C1014 H1026 0.960 . S
C1014 H1027 0.962 . S
C1014 H1028 0.962 . S
C1015 C1012 1.511 . S
C1015 H1029 0.961 . S
C1015 H1030 0.961 . S
C1015 H1031 0.961 . S
C1016 C1017 1.370 . S
C1016 C1018 1.363 . S
C1016 H1032 0.931 . S
C1017 C1016 1.370 . S
C1017 C1021 1.408 . S
C1018 C1016 1.363 . S
C1018 C1019 1.370 . S
C1018 C1022 1.524 1_565 S
C1019 C1011 1.503 1_465 S
C1019 C1018 1.370 . S
C1019 C1020 1.403 . S
C1020 C1019 1.403 . S
C1020 C1021 1.404 . S
C1020 C1023 1.539 . S
C1021 C1017 1.408 . S
C1021 C1020 1.404 . S
C1021 H1033 0.930 . S
C1022 C1018 1.524 1_545 S
C1022 H1034 0.956 . S
C1022 H1035 0.955 1_445 S
C1022 H1036 0.961 . S
C1023 C1020 1.539 . S
C1023 H1037 0.958 . S
C1023 H1038 0.961 . S
C1023 H1039 0.960 1_455 S
H1024 C1008 0.931 . S
H1025 C1013 0.929 1_565 S
H1026 C1014 0.960 . S
H1027 C1014 0.962 . S
H1028 C1014 0.962 . S
H1029 C1015 0.961 . S
H1030 C1015 0.961 . S
H1031 C1015 0.961 . S
H1032 C1016 0.931 . S
H1033 C1021 0.930 . S
H1034 C1022 0.956 . S
H1035 C1022 0.955 1_665 S
H1036 C1022 0.961 . S
H1037 C1023 0.958 . S
H1038 C1023 0.961 . S
H1039 C1023 0.960 1_655 S
C1040 C1041 1.391 . S
C1040 C1042 1.394 1_455 S
C1040 H1056 0.931 1_455 S
C1041 C1040 1.391 . S
C1041 C1045 1.376 . S
C1042 C1040 1.394 1_655 S
C1042 C1043 1.369 1_655 S
C1042 C1046 1.531 . S
C1043 C1042 1.369 1_455 S
C1043 C1044 1.410 . S
C1043 C1051 1.503 1_455 S
C1044 C1043 1.410 . S
C1044 C1045 1.392 . S
C1044 C1047 1.511 . S
C1045 C1041 1.376 . S
C1045 C1044 1.392 . S
C1045 H1057 0.929 . S
C1046 C1042 1.531 . S
C1046 H1058 0.960 . S
C1046 H1059 0.962 . S
C1046 H1060 0.960 . S
C1047 C1044 1.511 . S
C1047 H1061 0.961 . S
C1047 H1062 0.961 . S
C1047 H1063 0.961 . S
C1048 C1049 1.370 . S
C1048 C1050 1.363 . S
C1048 H1064 0.931 . S
C1049 C1048 1.370 . S
C1049 C1053 1.408 . S
C1050 C1048 1.363 . S
C1050 C1051 1.370 . S
C1050 C1054 1.524 . S
C1051 C1043 1.503 1_655 S
C1051 C1050 1.370 . S
C1051 C1052 1.403 . S
C1052 C1051 1.403 . S
C1052 C1053 1.404 . S
C1052 C1055 1.539 . S
C1053 C1049 1.408 . S
C1053 C1052 1.404 . S
C1053 H1065 0.930 . S
C1054 C1050 1.524 . S
C1054 H1066 0.956 . S
C1054 H1067 0.961 1_655 S
C1054 H1068 0.961 . S
C1055 C1052 1.539 . S
C1055 H1069 0.958 . S
C1055 H1070 0.961 . S
C1055 H1071 0.960 1_655 S
H1056 C1040 0.931 1_655 S
H1057 C1045 0.929 . S
H1058 C1046 0.960 . S
H1059 C1046 0.962 . S
H1060 C1046 0.960 . S
H1061 C1047 0.961 . S
H1062 C1047 0.961 . S
H1063 C1047 0.961 . S
H1064 C1048 0.931 . S
H1065 C1053 0.930 . S
H1066 C1054 0.956 . S
H1067 C1054 0.961 1_455 S
H1068 C1054 0.961 . S
H1069 C1055 0.958 . S
H1070 C1055 0.961 . S
H1071 C1055 0.960 1_455 S
C1072 C1073 1.391 . S
C1072 C1074 1.394 1_565 S
C1072 H1088 0.943 . S
C1073 C1072 1.391 . S
C1073 C1077 1.376 . S
C1074 C1072 1.394 1_545 S
C1074 C1075 1.369 1_545 S
C1074 C1078 1.531 . S
C1075 C1074 1.369 1_565 S
C1075 C1076 1.410 . S
C1075 C1083 1.503 1_565 S
C1076 C1075 1.410 . S
C1076 C1077 1.392 . S
C1076 C1079 1.511 . S
C1077 C1073 1.376 . S
C1077 C1076 1.392 . S
C1077 H1089 0.929 . S
C1078 C1074 1.531 . S
C1078 H1090 0.960 . S
C1078 H1091 0.962 . S
C1078 H1092 0.960 . S
C1079 C1076 1.511 . S
C1079 H1093 0.961 . S
C1079 H1094 0.961 . S
C1079 H1095 0.961 . S
C1080 C1081 1.370 . S
C1080 C1082 1.363 . S
C1080 H1096 0.931 . S
C1081 C1080 1.370 . S
C1081 C1085 1.408 . S
C1082 C1080 1.363 . S
C1082 C1083 1.370 . S
C1082 C1086 1.524 . S
C1083 C1075 1.503 1_545 S
C1083 C1082 1.370 . S
C1083 C1084 1.403 1_545 S
C1084 C1083 1.403 1_565 S
C1084 C1085 1.404 1_565 S
C1084 C1087 1.539 . S
C1085 C1081 1.408 . S
C1085 C1084 1.404 1_545 S
C1085 H1097 0.930 . S
C1086 C1082 1.524 . S
C1086 H1098 0.956 . S
C1086 H1099 0.961 . S
C1086 H1100 0.961 . S
C1087 C1084 1.539 . S
C1087 H1101 0.958 . S
C1087 H1102 0.961 . S
C1087 H1103 0.960 . S
H1088 C1072 0.943 . S
H1089 C1077 0.929 . S
H1090 C1078 0.960 . S
H1091 C1078 0.962 . S
H1092 C1078 0.960 . S
H1093 C1079 0.961 . S
H1094 C1079 0.961 . S
H1095 C1079 0.961 . S
H1096 C1080 0.931 . S
H1097 C1085 0.930 . S
H1098 C1086 0.956 . S
H1099 C1086 0.961 . S
H1100 C1086 0.961 . S
H1101 C1087 0.958 . S
H1102 C1087 0.961 . S
H1103 C1087 0.960 . S
C1104 C1105 1.391 . S
C1104 C1106 1.394 . S
C1104 H1120 0.931 . S
C1105 C1104 1.391 . S
C1105 C1109 1.376 . S
C1106 C1104 1.394 . S
C1106 C1107 1.369 . S
C1106 C1110 1.531 . S
C1107 C1106 1.369 . S
C1107 C1108 1.410 . S
C1107 C1115 1.503 . S
C1108 C1107 1.410 . S
C1108 C1109 1.392 . S
C1108 C1111 1.511 . S
C1109 C1105 1.376 . S
C1109 C1108 1.392 . S
C1109 H1121 0.929 . S
C1110 C1106 1.531 . S
C1110 H1122 0.960 . S
C1110 H1123 0.962 . S
C1110 H1124 0.960 . S
C1111 C1108 1.511 . S
C1111 H1125 0.961 . S
C1111 H1126 0.961 . S
C1111 H1127 0.961 . S
C1112 C1113 1.370 . S
C1112 C1114 1.363 . S
C1112 H1128 0.931 . S
C1113 C1112 1.370 . S
C1113 C1117 1.408 . S
C1114 C1112 1.363 . S
C1114 C1115 1.370 . S
C1114 C1118 1.524 . S
C1115 C1107 1.503 . S
C1115 C1114 1.370 . S
C1115 C1116 1.403 . S
C1116 C1115 1.403 . S
C1116 C1117 1.404 . S
C1116 C1119 1.539 . S
C1117 C1113 1.408 . S
C1117 C1116 1.404 . S
C1117 H1129 0.930 . S
C1118 C1114 1.524 . S
C1118 H1130 0.956 . S
C1118 H1131 0.961 . S
C1118 H1132 0.961 . S
C1119 C1116 1.539 . S
C1119 H1133 0.958 . S
C1119 H1134 0.961 . S
C1119 H1135 0.960 . S
H1120 C1104 0.931 . S
H1121 C1109 0.929 . S
H1122 C1110 0.960 . S
H1123 C1110 0.962 . S
H1124 C1110 0.960 . S
H1125 C1111 0.961 . S
H1126 C1111 0.961 . S
H1127 C1111 0.961 . S
H1128 C1112 0.931 . S
H1129 C1117 0.930 . S
H1130 C1118 0.956 . S
H1131 C1118 0.961 . S
H1132 C1118 0.961 . S
H1133 C1119 0.958 . S
H1134 C1119 0.961 . S
H1135 C1119 0.960 . S
C1136 C1137 1.391 . S
C1136 C1138 1.394 . S
C1136 H1152 0.931 . S
C1137 C1136 1.391 . S
C1137 C1141 1.376 . S
C1138 C1136 1.394 . S
C1138 C1139 1.369 . S
C1138 C1142 1.531 . S
C1139 C1138 1.369 . S
C1139 C1140 1.410 . S
C1139 C1147 1.503 . S
C1140 C1139 1.410 . S
C1140 C1141 1.392 . S
C1140 C1143 1.511 . S
C1141 C1137 1.376 . S
C1141 C1140 1.392 . S
C1141 H1153 0.929 . S
C1142 C1138 1.531 . S
C1142 H1154 0.960 . S
C1142 H1155 0.962 . S
C1142 H1156 0.960 . S
C1143 C1140 1.511 . S
C1143 H1157 0.961 . S
C1143 H1158 0.961 . S
C1143 H1159 0.961 . S
C1144 C1145 1.370 . S
C1144 C1146 1.363 . S
C1144 H1160 0.931 . S
C1145 C1144 1.370 . S
C1145 C1149 1.408 . S
C1146 C1144 1.363 . S
C1146 C1147 1.370 . S
C1146 C1150 1.524 . S
C1147 C1139 1.503 . S
C1147 C1146 1.370 . S
C1147 C1148 1.403 . S
C1148 C1147 1.403 . S
C1148 C1149 1.404 . S
C1148 C1151 1.539 . S
C1149 C1145 1.408 . S
C1149 C1148 1.404 . S
C1149 H1161 0.930 . S
C1150 C1146 1.524 . S
C1150 H1162 0.956 . S
C1150 H1163 0.961 . S
C1150 H1164 0.961 . S
C1151 C1148 1.539 . S
C1151 H1165 0.958 . S
C1151 H1166 0.961 . S
C1151 H1167 0.960 . S
H1152 C1136 0.931 . S
H1153 C1141 0.929 . S
H1154 C1142 0.960 . S
H1155 C1142 0.962 . S
H1156 C1142 0.960 . S
H1157 C1143 0.961 . S
H1158 C1143 0.961 . S
H1159 C1143 0.961 . S
H1160 C1144 0.931 . S
H1161 C1149 0.930 . S
H1162 C1150 0.956 . S
H1163 C1150 0.961 . S
H1164 C1150 0.961 . S
H1165 C1151 0.958 . S
H1166 C1151 0.961 . S
H1167 C1151 0.960 . S
C1168 C1169 1.391 . S
C1168 C1170 1.394 . S
C1168 H1184 0.931 . S
C1169 C1168 1.391 . S
C1169 C1173 1.376 . S
C1170 C1168 1.394 . S
C1170 C1171 1.369 . S
C1170 C1174 1.541 . S
C1171 C1170 1.369 . S
C1171 C1172 1.410 . S
C1171 C1179 1.503 1_545 S
C1172 C1171 1.410 . S
C1172 C1173 1.392 . S
C1172 C1175 1.511 . S
C1173 C1169 1.376 . S
C1173 C1172 1.392 . S
C1173 H1185 0.929 . S
C1174 C1170 1.541 . S
C1174 H1186 0.951 1_545 S
C1174 H1187 0.953 1_545 S
C1174 H1188 0.968 . S
C1175 C1172 1.511 . S
C1175 H1189 0.961 . S
C1175 H1190 0.961 . S
C1175 H1191 0.961 . S
C1176 C1177 1.370 . S
C1176 C1178 1.363 . S
C1176 H1192 0.931 . S
C1177 C1176 1.370 . S
C1177 C1181 1.408 . S
C1178 C1176 1.363 . S
C1178 C1179 1.370 . S
C1178 C1182 1.524 . S
C1179 C1171 1.503 1_565 S
C1179 C1178 1.370 . S
C1179 C1180 1.403 . S
C1180 C1179 1.403 . S
C1180 C1181 1.404 . S
C1180 C1183 1.539 1_565 S
C1181 C1177 1.408 . S
C1181 C1180 1.404 . S
C1181 H1193 0.930 . S
C1182 C1178 1.524 . S
C1182 H1194 0.956 . S
C1182 H1195 0.961 . S
C1182 H1196 0.961 . S
C1183 C1180 1.539 1_545 S
C1183 H1197 0.958 . S
C1183 H1198 0.961 1_545 S
C1183 H1199 0.960 . S
H1184 C1168 0.931 . S
H1185 C1173 0.929 . S
H1186 C1174 0.951 1_565 S
H1187 C1174 0.953 1_565 S
H1188 C1174 0.968 . S
H1189 C1175 0.961 . S
H1190 C1175 0.961 . S
H1191 C1175 0.961 . S
H1192 C1176 0.931 . S
H1193 C1181 0.930 . S
H1194 C1182 0.956 . S
H1195 C1182 0.961 . S
H1196 C1182 0.961 . S
H1197 C1183 0.958 . S
H1198 C1183 0.961 1_565 S
H1199 C1183 0.960 . S
C1200 C1201 1.391 . S
C1200 C1202 1.394 . S
C1200 H1216 0.931 . S
C1201 C1200 1.391 . S
C1201 C1205 1.376 . S
C1202 C1200 1.394 . S
C1202 C1203 1.369 . S
C1202 C1206 1.531 1_655 S
C1203 C1202 1.369 . S
C1203 C1204 1.410 . S
C1203 C1211 1.503 1_655 S
C1204 C1203 1.410 . S
C1204 C1205 1.392 . S
C1204 C1207 1.511 . S
C1205 C1201 1.376 . S
C1205 C1204 1.392 . S
C1205 H1217 0.929 . S
C1206 C1202 1.531 1_455 S
C1206 H1218 0.960 . S
C1206 H1219 0.962 . S
C1206 H1220 0.960 1_455 S
C1207 C1204 1.511 . S
C1207 H1221 0.961 . S
C1207 H1222 0.961 . S
C1207 H1223 0.961 . S
C1208 C1209 1.370 . S
C1208 C1210 1.363 . S
C1208 H1224 0.931 . S
C1209 C1208 1.370 . S
C1209 C1213 1.408 . S
C1210 C1208 1.363 . S
C1210 C1211 1.370 . S
C1210 C1214 1.524 . S
C1211 C1203 1.503 1_455 S
C1211 C1210 1.370 . S
C1211 C1212 1.403 . S
C1212 C1211 1.403 . S
C1212 C1213 1.404 . S
C1212 C1215 1.539 . S
C1213 C1209 1.408 . S
C1213 C1212 1.404 . S
C1213 H1225 0.930 . S
C1214 C1210 1.524 . S
C1214 H1226 0.956 . S
C1214 H1227 0.936 1_455 S
C1214 H1228 0.961 . S
C1215 C1212 1.539 . S
C1215 H1229 0.958 . S
C1215 H1230 0.961 . S
C1215 H1231 0.960 1_455 S
H1216 C1200 0.931 . S
H1217 C1205 0.929 . S
H1218 C1206 0.960 . S
H1219 C1206 0.962 . S
H1220 C1206 0.960 1_655 S
H1221 C1207 0.961 . S
H1222 C1207 0.961 . S
H1223 C1207 0.961 . S
H1224 C1208 0.931 . S
H1225 C1213 0.930 . S
H1226 C1214 0.956 . S
H1227 C1214 0.936 1_655 S
H1228 C1214 0.961 . S
H1229 C1215 0.958 . S
H1230 C1215 0.961 . S
H1231 C1215 0.960 1_655 S
C209 C5 1.691 . S
C217 C144 1.683 . S
C241 C105 1.659 . S
C249 C18 1.657 . S
C273 C118 1.674 . S
C281 C31 1.693 . S
C305 C131 1.629 . S
C313 C44 1.666 . S
C337 C66 1.682 1_545 S
C345 C57 1.690 . S
C369 C70 1.646 . S
C377 C79 1.629 1_455 S
C401 C83 1.691 . S
C409 C92 1.683 1_565 S
C433 C96 1.633 . S
C441 C53 1.635 1_655 S
C465 C109 1.691 . S
C473 C40 1.685 1_565 S
C497 C1 1.662 1_655 S
C505 C122 1.661 . S
C529 C14 1.682 1_545 S
C537 C135 1.690 . S
C561 C27 1.642 1_455 S
C569 C148 1.651 . S
C593 C170 1.677 . S
C601 C161 1.693 . S
C625 C174 1.636 . S
C633 C183 1.631 . S
C657 C196 1.679 . S
C665 C187 1.693 . S
C689 C157 1.651 . S
C697 C200 1.653 . S
C721 C185 1.831 . S
C729 C3 1.797 . S
C753 C198 1.901 . S
C761 C16 1.897 . S
C785 C159 1.824 . S
C793 C29 1.793 . S
C817 C42 1.887 . S
C825 C172 1.893 . S
C849 C55 1.773 . S
C857 C133 1.805 . S
C881 C146 1.902 . S
C889 C68 1.898 . S
C913 C81 1.826 . S
C921 C107 1.807 . S
C945 C94 1.884 . S
C953 C120 1.898 . S
C977 C36 1.595 . S
C985 C10 1.600 . S
C1009 C49 1.545 . S
C1017 C23 1.560 . S
C1041 C62 1.585 . S
C1049 C88 1.593 . S
C1073 C75 1.579 . S
C1081 C101 1.577 . S
C1105 C140 1.593 . S
C1113 C114 1.600 . S
C1137 C127 1.584 . S
C1145 C153 1.578 . S
C1169 C192 1.591 . S
C1177 C166 1.600 . S
C1201 C179 1.546 . S
C1209 C205 1.560 . S
