# Generated by pormake.
# Topology smc, (6)-cn, num edge types: 1
# Building blocks:
#     Node 0, Type 0, BuildingBlock: BETDAH_clean_sbu_0, # of connection points: 6
#     Node 1, Type 0, BuildingBlock: BETDAH_clean_sbu_0, # of connection points: 6
#     Node 2, Type 0, BuildingBlock: BETDAH_clean_sbu_0, # of connection points: 6
#     Node 3, Type 0, BuildingBlock: BETDAH_clean_sbu_0, # of connection points: 6
#     Node 4, Type 0, BuildingBlock: BETDAH_clean_sbu_0, # of connection points: 6
#     Node 5, Type 0, BuildingBlock: BETDAH_clean_sbu_0, # of connection points: 6
#     Node 6, Type 0, BuildingBlock: BETDAH_clean_sbu_0, # of connection points: 6
#     Node 7, Type 0, BuildingBlock: BETDAH_clean_sbu_0, # of connection points: 6
#     Node 8, Type 0, BuildingBlock: BETDAH_clean_sbu_0, # of connection points: 6
#     Edge 9, Type (0, 0), BuildingBlock: AJUNOK_clean_linker_0, # of connection points: 2
#     Edge 10, Type (0, 0), BuildingBlock: AJUNOK_clean_linker_0, # of connection points: 2
#     Edge 11, Type (0, 0), BuildingBlock: AJUNOK_clean_linker_0, # of connection points: 2
#     Edge 12, Type (0, 0), BuildingBlock: AJUNOK_clean_linker_0, # of connection points: 2
#     Edge 13, Type (0, 0), BuildingBlock: AJUNOK_clean_linker_0, # of connection points: 2
#     Edge 14, Type (0, 0), BuildingBlock: AJUNOK_clean_linker_0, # of connection points: 2
#     Edge 15, Type (0, 0), BuildingBlock: AJUNOK_clean_linker_0, # of connection points: 2
#     Edge 16, Type (0, 0), BuildingBlock: AJUNOK_clean_linker_0, # of connection points: 2
#     Edge 17, Type (0, 0), BuildingBlock: AJUNOK_clean_linker_0, # of connection points: 2
#     Edge 18, Type (0, 0), BuildingBlock: AJUNOK_clean_linker_0, # of connection points: 2
#     Edge 19, Type (0, 0), BuildingBlock: AJUNOK_clean_linker_0, # of connection points: 2
#     Edge 20, Type (0, 0), BuildingBlock: AJUNOK_clean_linker_0, # of connection points: 2
#     Edge 21, Type (0, 0), BuildingBlock: AJUNOK_clean_linker_0, # of connection points: 2
#     Edge 22, Type (0, 0), BuildingBlock: AJUNOK_clean_linker_0, # of connection points: 2
#     Edge 23, Type (0, 0), BuildingBlock: AJUNOK_clean_linker_0, # of connection points: 2
#     Edge 24, Type (0, 0), BuildingBlock: AJUNOK_clean_linker_0, # of connection points: 2
#     Edge 25, Type (0, 0), BuildingBlock: AJUNOK_clean_linker_0, # of connection points: 2
#     Edge 26, Type (0, 0), BuildingBlock: AJUNOK_clean_linker_0, # of connection points: 2
#     Edge 27, Type (0, 0), BuildingBlock: AJUNOK_clean_linker_0, # of connection points: 2
#     Edge 28, Type (0, 0), BuildingBlock: AJUNOK_clean_linker_0, # of connection points: 2
#     Edge 29, Type (0, 0), BuildingBlock: AJUNOK_clean_linker_0, # of connection points: 2
#     Edge 30, Type (0, 0), BuildingBlock: AJUNOK_clean_linker_0, # of connection points: 2
#     Edge 31, Type (0, 0), BuildingBlock: AJUNOK_clean_linker_0, # of connection points: 2
#     Edge 32, Type (0, 0), BuildingBlock: AJUNOK_clean_linker_0, # of connection points: 2
#     Edge 33, Type (0, 0), BuildingBlock: AJUNOK_clean_linker_0, # of connection points: 2
#     Edge 34, Type (0, 0), BuildingBlock: AJUNOK_clean_linker_0, # of connection points: 2
#     Edge 35, Type (0, 0), BuildingBlock: AJUNOK_clean_linker_0, # of connection points: 2
# Relax obj value: 0.188
# Max RMSD: 0.337
# Mean RMSD: 0.337
data_MOF--net-smc--node1-BETDAH_clean_sbu_0--edge1-AJUNOK_clean_linker_0
_symmetry_space_group_name_H-M    P1
_symmetry_Int_Tables_number       1
_symmetry_cell_setting            triclinic
loop_
_symmetry_equiv_pos_as_xyz
'x, y, z'
_cell_length_a     31.34075
_cell_length_b     31.366462
_cell_length_c     28.146852
_cell_angle_alpha  90.080592
_cell_angle_beta   90.280129
_cell_angle_gamma 119.96958
loop_
_atom_site_label
_atom_site_type_symbol
_atom_site_fract_x
_atom_site_fract_y
_atom_site_fract_z
_atom_type_partial_charge
Ho0 Ho 0.07517 0.50274 1.00656 0.0
Ho1 Ho 1.0083 0.40372 0.03257 0.0
C2 C 0.12241 0.43935 0.99608 0.0
C3 C 0.1361 0.59523 1.00563 0.0
C4 C 0.1711 0.64831 1.00515 0.0
C5 C 0.19951 0.6722 0.0456 0.0
C6 C 0.23036 0.72325 0.04582 0.0
C7 C 0.23281 0.75113 1.00574 0.0
C8 C 0.2055 0.72669 0.9649 0.0
C9 C 0.17497 0.67581 0.96461 0.0
C10 C 1.02851 0.44382 0.93022 0.0
C11 C 0.97139 0.48248 0.03608 0.0
C12 C 0.94256 0.3115 0.03869 0.0
C13 C 0.88809 0.28407 0.03513 0.0
C14 C 0.86145 0.30483 1.01495 0.0
C15 C 0.80964 0.2793 1.01617 0.0
C16 C 0.78347 0.23269 0.03781 0.0
C17 C 0.81068 0.21199 0.05692 0.0
C18 C 0.86218 0.23766 0.05618 0.0
C19 C 0.06315 0.45411 0.10907 0.0
O20 O 0.123 0.478 0.97916 0.0
O21 O 0.08232 0.40447 1.01827 0.0
O22 O 0.10025 0.57391 0.97448 0.0
O23 O 0.13862 0.56598 0.0373 0.0
O24 O 0.07355 0.47981 0.93079 0.0
O25 O 1.00862 0.44345 0.96936 0.0
O26 O 0.95684 0.43557 0.02869 0.0
O27 O 1.01816 0.51415 0.03968 0.0
O28 O 0.96019 0.34092 0.07526 0.0
O29 O 0.9677 0.33124 0.99994 0.0
O30 O 1.01531 0.42941 0.10786 0.0
O31 O 0.07858 0.45757 0.06691 0.0
H32 H 0.19736 0.65159 0.07723 0.0
H33 H 0.25234 0.74076 0.07724 0.0
H34 H 0.20694 0.74704 0.93332 0.0
H35 H 0.1539 0.65808 0.93279 0.0
H36 H 0.88061 0.34103 0.99905 0.0
H37 H 0.79014 0.29652 1.00109 0.0
H38 H 0.79233 0.17558 0.07231 0.0
H39 H 0.88192 0.22126 0.07248 0.0
Ho40 Ho 0.57554 0.58923 1.00967 0.0
Ho41 Ho 0.67705 0.62512 0.03041 0.0
C42 C 0.63634 0.70106 1.00148 0.0
C43 C 0.48074 0.54078 1.00646 0.0
C44 C 0.43046 0.53264 1.00381 0.0
C45 C 0.41046 0.54658 0.04123 0.0
C46 C 0.35985 0.52895 0.04274 0.0
C47 C 0.32861 0.49682 1.00718 0.0
C48 C 0.34896 0.48474 0.96884 0.0
C49 C 0.3995 0.50245 0.96725 0.0
C50 C 0.63254 0.60296 0.93107 0.0
C51 C 0.60338 0.51047 0.04012 0.0
C52 C 0.76926 0.65152 0.03458 0.0
C53 C 0.79442 0.62201 0.03422 0.0
C54 C 0.78956 0.59075 0.99604 0.0
C55 C 0.81348 0.56313 0.99709 0.0
C56 C 0.84226 0.56594 0.03652 0.0
C57 C 0.84644 0.59622 0.07502 0.0
C58 C 0.82252 0.62376 0.07398 0.0
C59 C 0.62927 0.62926 0.11001 0.0
O60 O 0.59204 0.66518 1.01115 0.0
O61 O 0.67553 0.69452 1.00283 0.0
O62 O 0.50776 0.55177 0.96832 0.0
O63 O 0.50614 0.55853 0.04563 0.0
O64 O 0.59821 0.61434 0.93409 0.0
O65 O 0.63374 0.58288 0.96964 0.0
O66 O 0.64814 0.54281 0.02633 0.0
O67 O 0.57142 0.52485 0.04649 0.0
O68 O 0.74266 0.64575 0.07204 0.0
O69 O 0.74771 0.65365 0.99543 0.0
O70 O 0.65673 0.60931 0.10761 0.0
O71 O 0.62329 0.63934 0.06788 0.0
H72 H 0.43347 0.56948 0.07015 0.0
H73 H 0.34492 0.5394 0.07229 0.0
H74 H 0.32576 0.4614 0.94025 0.0
H75 H 0.41413 0.49087 0.93833 0.0
H76 H 0.76806 0.58806 0.96507 0.0
H77 H 0.81071 0.54071 0.96662 0.0
H78 H 0.8693 0.59953 0.10538 0.0
H79 H 0.82647 0.64699 0.10412 0.0
Ho80 Ho 0.49226 1.00776 1.00876 0.0
Ho81 Ho 0.45329 0.07066 0.03472 0.0
C82 C 0.37612 0.9557 1.00826 0.0
C83 C 0.51974 0.94358 0.99926 0.0
C84 C 0.53519 0.9065 0.99472 0.0
C85 C 0.53056 0.87629 0.0334 0.0
C86 C 0.55033 0.84512 0.03125 0.0
C87 C 0.57538 0.84378 0.99047 0.0
C88 C 0.5788 0.87312 0.95135 0.0
C89 C 0.5587 0.90404 0.95338 0.0
C90 C 0.47918 0.05952 0.93586 0.0
C91 C 0.56924 0.1112 0.03844 0.0
C92 C 0.42779 0.13718 0.03442 0.0
C93 C 0.4579 0.19198 0.03674 0.0
C94 C 0.47942 0.21974 0.99543 0.0
C95 C 0.50658 0.27123 0.99724 0.0
C96 C 0.51365 0.29648 0.04049 0.0
C97 C 0.49284 0.26873 0.08189 0.0
C98 C 0.46536 0.2172 0.08005 0.0
C99 C 0.45869 1.02412 0.11329 0.0
O100 O 0.41483 0.95152 0.99864 0.0
O101 O 0.38012 0.99775 0.02449 0.0
O102 O 0.51787 0.969 0.96336 0.0
O103 O 0.50542 0.95241 0.03975 0.0
O104 O 0.51914 0.05691 0.94062 0.0
O105 O 0.45207 0.03628 0.96921 0.0
O106 O 0.53586 0.12156 0.02225 0.0
O107 O 0.55609 0.06572 0.04776 0.0
O108 O 0.42589 0.11251 0.0726 0.0
O109 O 0.43231 0.11664 0.99583 0.0
O110 O 0.47947 0.0715 0.1087 0.0
O111 O 0.44648 1.00545 0.07204 0.0
H112 H 0.51257 0.87745 0.06575 0.0
H113 H 0.54641 0.82237 0.06169 0.0
H114 H 0.5984 0.87339 0.91967 0.0
H115 H 0.56312 0.92728 0.92321 0.0
H116 H 0.47468 0.20179 0.96134 0.0
H117 H 0.52078 0.29121 0.9644 0.0
H118 H 0.49762 0.28694 0.11584 0.0
H119 H 0.44966 0.19712 0.11257 0.0
Ho120 Ho 0.74182 0.83517 0.34123 0.0
Ho121 Ho 0.67502 0.7359 0.37002 0.0
C122 C 0.79042 0.77073 0.33775 0.0
C123 C 0.80013 0.92793 0.33529 0.0
C124 C 0.83547 0.98061 0.33327 0.0
C125 C 0.88131 0.99933 0.35565 0.0
C126 C 0.91469 0.04968 0.35515 0.0
C127 C 0.90146 0.08286 0.3353 0.0
C128 C 0.85586 0.06324 0.31137 0.0
C129 C 0.82357 1.01252 0.30966 0.0
C130 C 0.69718 0.77298 0.26649 0.0
C131 C 0.63655 0.81382 0.37052 0.0
C132 C 0.60788 0.64458 0.38041 0.0
C133 C 0.55313 0.61869 0.37673 0.0
C134 C 0.52849 0.62128 0.33583 0.0
C135 C 0.47692 0.59671 0.33379 0.0
C136 C 0.44864 0.56937 0.37278 0.0
C137 C 0.47323 0.5682 0.41422 0.0
C138 C 0.5248 0.59249 0.4161 0.0
C139 C 0.73184 0.78835 0.4461 0.0
O140 O 0.79803 0.81527 0.33308 0.0
O141 O 0.74577 0.73306 0.34895 0.0
O142 O 0.77153 0.90268 0.29975 0.0
O143 O 0.79607 0.90285 0.37377 0.0
O144 O 0.74241 0.80856 0.26736 0.0
O145 O 0.67613 0.77368 0.30466 0.0
O146 O 0.62296 0.76676 0.367 0.0
O147 O 0.68285 0.84753 0.36844 0.0
O148 O 0.62674 0.6756 0.41563 0.0
O149 O 0.6337 0.66152 0.34162 0.0
O150 O 0.68429 0.76207 0.44593 0.0
O151 O 0.74512 0.7912 0.40318 0.0
H152 H 0.89159 0.97492 0.37305 0.0
H153 H 0.95075 0.0619 0.37021 0.0
H154 H 0.84415 0.08693 0.29504 0.0
H155 H 0.78851 0.99843 0.29147 0.0
H156 H 0.54863 0.64232 0.3054 0.0
H157 H 0.45912 0.59931 0.30171 0.0
H158 H 0.45253 0.54757 0.44491 0.0
H159 H 0.54268 0.59069 0.44846 0.0
Ho160 Ho 0.24626 0.92574 0.33915 0.0
Ho161 Ho 0.34828 0.96456 0.36755 0.0
C162 C 0.30747 0.0403 0.34084 0.0
C163 C 0.15395 0.89715 0.33346 0.0
C164 C 0.10042 0.8783 0.33525 0.0
C165 C 0.07602 0.86402 0.37898 0.0
C166 C 1.02493 0.84189 0.38105 0.0
C167 C 0.99677 0.83464 0.33961 0.0
C168 C 1.02134 0.84943 0.29576 0.0
C169 C 0.07271 0.8708 0.29359 0.0
C170 C 0.31173 0.93788 0.26783 0.0
C171 C 0.27202 0.8484 0.3705 0.0
C172 C 0.44049 0.99087 0.3679 0.0
C173 C 0.46481 0.9603 0.36959 0.0
C174 C 0.46435 0.93283 0.32968 0.0
C175 C 0.48832 0.90528 0.331 0.0
C176 C 0.51311 0.90402 0.37227 0.0
C177 C 0.5126 0.93042 0.41254 0.0
C178 C 0.48861 0.95809 0.41123 0.0
C179 C 0.29618 0.95957 0.44514 0.0
O180 O 0.26814 1.00201 0.32344 0.0
O181 O 0.34417 0.03629 0.36133 0.0
O182 O 0.17921 0.90045 0.29538 0.0
O183 O 0.17964 0.91129 0.3728 0.0
O184 O 0.26854 0.89837 0.27127 0.0
O185 O 0.31551 0.96496 0.30147 0.0
O186 O 0.31678 0.88151 0.35668 0.0
O187 O 0.23999 0.86234 0.37774 0.0
O188 O 0.41748 0.992 0.40611 0.0
O189 O 0.41581 0.9875 0.32918 0.0
O190 O 0.32426 0.94021 0.44172 0.0
O191 O 0.28951 0.97122 0.40363 0.0
H192 H 0.09623 0.86866 0.41173 0.0
H193 H 1.00753 0.82958 0.4153 0.0
H194 H 1.00095 0.84471 0.26315 0.0
H195 H 0.09066 0.88103 0.25937 0.0
H196 H 0.44587 0.93286 0.29707 0.0
H197 H 0.48774 0.88511 0.29949 0.0
H198 H 0.53201 0.93094 0.44466 0.0
H199 H 0.48932 0.9784 0.44266 0.0
Ho200 Ho 0.15668 0.34375 0.3415 0.0
Ho201 Ho 0.11796 0.40802 0.36611 0.0
C202 C 1.04194 0.29053 0.34093 0.0
C203 C 0.18365 0.27916 0.33732 0.0
C204 C 0.19888 0.2419 0.33753 0.0
C205 C 0.20112 0.22109 0.38085 0.0
C206 C 0.22133 0.19057 0.38308 0.0
C207 C 0.23864 0.17909 0.34183 0.0
C208 C 0.23527 0.19889 0.29813 0.0
C209 C 0.21562 0.23027 0.29601 0.0
C210 C 0.14504 0.39475 0.26775 0.0
C211 C 0.23503 0.44821 0.36885 0.0
C212 C 0.09322 0.47499 0.36373 0.0
C213 C 0.12451 0.52965 0.36669 0.0
C214 C 0.15252 0.55726 0.32746 0.0
C215 C 0.18064 0.6087 0.3298 0.0
C216 C 0.18221 0.63401 0.37162 0.0
C217 C 0.15526 0.60632 0.41118 0.0
C218 C 0.12681 0.55488 0.40874 0.0
C219 C 0.12287 0.36325 0.44568 0.0
O220 O 0.08045 0.28695 0.3298 0.0
O221 O 0.04569 0.33281 0.35688 0.0
O222 O 0.17724 0.29863 0.29876 0.0
O223 O 0.17413 0.29417 0.37713 0.0
O224 O 0.18406 0.39048 0.27267 0.0
O225 O 0.1172 0.37273 0.30118 0.0
O226 O 0.20096 0.45895 0.35572 0.0
O227 O 0.22295 0.40272 0.37614 0.0
O228 O 0.08903 0.44965 0.40209 0.0
O229 O 0.09881 0.45445 0.32577 0.0
O230 O 0.14173 0.41045 0.44146 0.0
O231 O 0.11152 0.34406 0.40444 0.0
H232 H 0.18861 0.22949 0.4135 0.0
H233 H 0.22425 0.17674 0.41746 0.0
H234 H 0.24786 0.19018 0.26572 0.0
H235 H 0.21453 0.2462 0.26222 0.0
H236 H 0.15213 0.53929 0.29443 0.0
H237 H 0.19976 0.62863 0.29822 0.0
H238 H 0.15576 0.62451 0.44408 0.0
H239 H 0.1062 0.53486 0.4397 0.0
Ho240 Ho 0.41056 0.16886 0.67634 0.0
Ho241 Ho 0.3446 0.06712 0.70534 0.0
C242 C 0.46018 0.10303 0.68182 0.0
C243 C 0.4721 0.26129 0.67258 0.0
C244 C 0.50749 0.31441 0.67254 0.0
C245 C 0.52597 0.33998 0.7157 0.0
C246 C 0.55516 0.39125 0.71621 0.0
C247 C 0.56579 0.41756 0.67364 0.0
C248 C 0.54791 0.39197 0.63048 0.0
C249 C 0.51891 0.34078 0.62992 0.0
C250 C 0.35809 0.10324 0.60387 0.0
C251 C 0.30439 0.14271 0.70138 0.0
C252 C 0.27742 0.97549 0.70912 0.0
C253 C 0.22289 0.952 0.71185 0.0
C254 C 0.19542 0.95438 0.67311 0.0
C255 C 0.14407 0.93041 0.67469 0.0
C256 C 0.11869 0.90365 0.71501 0.0
C257 C 0.14601 0.90235 0.75427 0.0
C258 C 0.19761 0.92643 0.75273 0.0
C259 C 0.39272 0.1223 0.78241 0.0
O260 O 0.46678 0.14694 0.67236 0.0
O261 O 0.41696 0.06561 0.69638 0.0
O262 O 0.46079 0.23309 0.63476 0.0
O263 O 0.45179 0.23843 0.71208 0.0
O264 O 0.36541 0.14792 0.60559 0.0
O265 O 0.37903 0.09831 0.63911 0.0
O266 O 0.29299 0.09716 0.69155 0.0
O267 O 0.35013 0.17671 0.70674 0.0
O268 O 0.30339 0.99974 0.74638 0.0
O269 O 0.29679 0.99879 0.6698 0.0
O270 O 0.34519 0.09694 0.77773 0.0
O271 O 0.41055 0.12626 0.74133 0.0
H272 H 0.51776 0.32041 0.74911 0.0
H273 H 0.57038 0.41022 0.74957 0.0
H274 H 0.5572 0.41168 0.5971 0.0
H275 H 0.5048 0.32199 0.59628 0.0
H276 H 0.21338 0.97419 0.64107 0.0
H277 H 0.1241 0.93239 0.64402 0.0
H278 H 0.12749 0.88138 0.78559 0.0
H279 H 0.21772 0.92426 0.78316 0.0
Ho280 Ho 0.9126 0.2642 0.67283 0.0
Ho281 Ho 1.01079 0.29042 0.70434 0.0
C282 C 0.97873 0.37519 0.68078 0.0
C283 C 0.81829 0.22134 0.6651 0.0
C284 C 0.76863 0.21405 0.67231 0.0
C285 C 0.74324 0.19217 0.71437 0.0
C286 C 0.69239 0.17196 0.71657 0.0
C287 C 0.66573 0.17384 0.67708 0.0
C288 C 0.69193 0.19978 0.6365 0.0
C289 C 0.74277 0.21882 0.63382 0.0
C290 C 0.97709 0.28548 0.60016 0.0
C291 C 0.93098 0.17525 0.69782 0.0
C292 C 0.10187 0.31166 0.7133 0.0
C293 C 0.12649 0.28169 0.71252 0.0
C294 C 0.12386 0.25358 0.67233 0.0
C295 C 0.14952 0.22768 0.67138 0.0
C296 C 0.17807 0.2289 0.7106 0.0
C297 C 0.17986 0.2562 0.75104 0.0
C298 C 0.15419 0.28212 0.752 0.0
C299 C 0.95728 0.29191 0.78033 0.0
O300 O 0.93302 0.34012 0.68553 0.0
O301 O 1.01602 0.36561 0.68387 0.0
O302 O 0.84767 0.25163 0.63273 0.0
O303 O 0.84136 0.21661 0.70179 0.0
O304 O 0.94115 0.29462 0.59973 0.0
O305 O 0.97371 0.26038 0.63675 0.0
O306 O 0.97826 0.20747 0.70239 0.0
O307 O 0.8993 0.18984 0.69013 0.0
O308 O 0.07374 0.30594 0.74947 0.0
O309 O 0.08196 0.31423 0.67369 0.0
O310 O 0.98259 0.26957 0.77893 0.0
O311 O 0.95559 0.30476 0.73809 0.0
H312 H 0.76199 0.18758 0.74466 0.0
H313 H 0.67381 0.15262 0.74857 0.0
H314 H 0.67325 0.20448 0.60627 0.0
H315 H 0.76139 0.23521 0.60084 0.0
H316 H 0.10251 0.25197 0.6413 0.0
H317 H 0.14719 0.20681 0.6398 0.0
H318 H 0.20227 0.2588 0.78149 0.0
H319 H 0.15674 0.30333 0.78337 0.0
Ho320 Ho 0.82584 0.67579 0.67744 0.0
Ho321 Ho 0.78913 0.738 0.70614 0.0
C322 C 0.71532 0.62539 0.66362 0.0
C323 C 0.85818 0.61508 0.67336 0.0
C324 C 0.87698 0.58033 0.67083 0.0
C325 C 0.8555 0.53724 0.69812 0.0
C326 C 0.87563 0.50626 0.69838 0.0
C327 C 0.91843 0.51831 0.6722 0.0
C328 C 0.93838 0.56025 0.64321 0.0
C329 C 0.91785 0.59089 0.64247 0.0
C330 C 0.8123 0.72277 0.60191 0.0
C331 C 0.90613 0.77932 0.7115 0.0
C332 C 0.76257 0.80343 0.71615 0.0
C333 C 0.79063 0.8582 0.71309 0.0
C334 C 0.82019 0.88333 0.67382 0.0
C335 C 0.84626 0.93482 0.67238 0.0
C336 C 0.84482 0.96242 0.71091 0.0
C337 C 0.81708 0.93774 0.75099 0.0
C338 C 0.7902 0.88615 0.75199 0.0
C339 C 0.7846 0.68168 0.78137 0.0
O340 O 0.75506 0.6304 0.64509 0.0
O341 O 0.71758 0.66254 0.68933 0.0
O342 O 0.87574 0.65449 0.64686 0.0
O343 O 0.82298 0.60897 0.70238 0.0
O344 O 0.80605 0.67875 0.60115 0.0
O345 O 0.83009 0.7421 0.64214 0.0
O346 O 0.87186 0.79162 0.70591 0.0
O347 O 0.89488 0.73351 0.70941 0.0
O348 O 0.77546 0.78546 0.75148 0.0
O349 O 0.7542 0.77741 0.67717 0.0
O350 O 0.80693 0.72937 0.78148 0.0
O351 O 0.77525 0.66797 0.73815 0.0
H352 H 0.82348 0.52772 0.71975 0.0
H353 H 0.85777 0.47306 0.71944 0.0
H354 H 0.9709 0.57031 0.62222 0.0
H355 H 0.93486 0.62359 0.62064 0.0
H356 H 0.82369 0.86382 0.64421 0.0
H357 H 0.86731 0.95319 0.641 0.0
H358 H 0.81513 0.95838 0.78096 0.0
H359 H 0.76883 0.86798 0.78325 0.0
C360 C 0.25979 0.51319 1.01401 0.0
C361 C 0.27524 0.47882 1.00841 0.0
C362 C 0.21013 0.49859 1.01225 0.0
C363 C 0.17317 0.44882 1.00439 0.0
H364 H 0.28632 0.55197 1.01866 0.0
H365 H 0.20083 0.52731 1.0168 0.0
S366 S 0.1949 0.344 0.99275 0.0
N367 N 0.25065 0.39247 0.99855 0.0
N368 N 0.15588 0.36494 0.99506 0.0
C369 C 0.18793 0.41367 1.00111 0.0
C370 C 0.23928 0.42874 1.00277 0.0
C371 C 0.62606 0.81149 0.02869 0.0
C372 C 0.5987 0.81257 0.98931 0.0
C373 C 0.64505 0.77937 0.02996 0.0
C374 C 0.63835 0.74789 0.99158 0.0
H375 H 0.63114 0.8342 0.05961 0.0
H376 H 0.66113 0.7762 0.06283 0.0
S377 S 0.56627 0.73346 0.88198 0.0
N378 N 0.56392 0.77746 0.91203 0.0
N379 N 0.60047 0.71802 0.91436 0.0
C380 C 0.61215 0.74957 0.95166 0.0
C381 C 0.59218 0.78165 0.95049 0.0
C382 C 0.32506 0.87926 0.96446 0.0
C383 C 0.32953 0.9092 1.00365 0.0
C384 C 0.29352 0.82846 0.96545 0.0
C385 C 0.26447 0.80545 1.00544 0.0
H386 H 0.34917 0.89482 0.93414 0.0
H387 H 0.29362 0.80687 0.93541 0.0
S388 S 0.25915 0.86784 0.11543 0.0
N389 N 0.3009 0.91281 0.08254 0.0
N390 N 0.2392 0.81696 0.08378 0.0
C391 C 0.26661 0.83523 0.04393 0.0
C392 C 0.2994 0.88722 0.04304 0.0
C393 C 0.51968 0.37534 0.06824 0.0
C394 C 0.53995 0.35149 0.04218 0.0
C395 C 0.54175 0.42673 0.06872 0.0
C396 C 0.58536 0.45682 0.04343 0.0
H397 H 0.48552 0.35411 0.08737 0.0
H398 H 0.52374 0.44292 0.08846 0.0
S399 S 0.65413 0.4132 0.97028 0.0
N400 N 0.60726 0.36228 0.99138 0.0
N401 N 0.64813 0.45897 0.99167 0.0
C402 C 0.60661 0.43371 1.01785 0.0
C403 C 0.58401 0.38113 1.01725 0.0
C404 C 0.64758 0.1767 1.00156 0.0
C405 C 0.62249 0.14787 0.04111 0.0
C406 C 0.69947 0.2048 1.00105 0.0
C407 C 0.72818 0.20544 0.04022 0.0
H408 H 0.62717 0.17559 0.96996 0.0
H409 H 0.71719 0.22473 0.969 0.0
S410 S 0.67878 0.13963 0.15426 0.0
N411 N 0.62944 0.12302 0.12092 0.0
N412 N 0.72609 0.17783 0.12152 0.0
C413 C 0.70289 0.17825 0.08074 0.0
C414 C 0.65037 0.14897 0.08073 0.0
C415 C 0.88772 0.47411 0.04858 0.0
C416 C 0.93717 0.50237 0.03445 0.0
C417 C 0.85649 0.49446 0.04897 0.0
C418 C 0.87378 0.54336 0.03471 0.0
H419 H 0.87345 0.43656 0.06034 0.0
H420 H 0.81888 0.47212 0.06092 0.0
S421 S 0.998 0.63138 0.99006 0.0
N422 N 1.00041 0.5812 1.00245 0.0
N423 N 0.94166 0.61848 1.00373 0.0
C424 C 0.92236 0.57138 1.01923 0.0
C425 C 0.95408 0.55111 1.01889 0.0
C426 C 0.85899 0.75851 0.30959 0.0
C427 C 0.83722 0.77126 0.34626 0.0
C428 C 0.91044 0.77801 0.30819 0.0
C429 C 0.9421 0.81218 0.34263 0.0
H430 H 0.83661 0.73608 0.28015 0.0
H431 H 0.92561 0.7674 0.27902 0.0
S432 S 0.90361 0.86286 0.44236 0.0
N433 N 0.8517 0.82184 0.41675 0.0
N434 N 0.9475 0.86106 0.41195 0.0
C435 C 0.92062 0.82541 0.37929 0.0
C436 C 0.86853 0.80415 0.38175 0.0
C437 C 0.30322 0.15675 0.32112 0.0
C438 C 0.25933 0.14581 0.34487 0.0
C439 C 0.32255 0.12481 0.32347 0.0
C440 C 0.29869 0.08134 0.34996 0.0
H441 H 0.32224 0.18977 0.29991 0.0
H442 H 0.35447 0.13268 0.3024 0.0
S443 S 0.17947 0.03286 0.4136 0.0
N444 N 0.19084 0.08649 0.39248 0.0
N445 N 0.22656 1.02691 0.39694 0.0
C446 C 0.25462 0.0701 0.37362 0.0
C447 C 0.23505 0.10214 0.37105 0.0
C448 C 0.9664 0.22054 0.30689 0.0
C449 C 0.99792 0.24198 0.34596 0.0
C450 C 0.93553 0.16926 0.30369 0.0
C451 C 0.93412 0.13744 0.34002 0.0
H452 H 0.96838 0.2431 0.27692 0.0
H453 H 0.91424 0.15458 0.27137 0.0
S454 S 1.01532 0.17559 0.44684 0.0
N455 N 1.03283 0.22662 0.41679 0.0
N456 N 0.96805 0.13268 0.41682 0.0
C457 C 0.96528 0.15898 0.37973 0.0
C458 C 0.99881 0.21051 0.38116 0.0
C459 C 0.20713 0.764 0.39418 0.0
C460 C 0.2537 0.79452 0.37359 0.0
C461 C 0.18512 0.71272 0.39387 0.0
C462 C 0.20851 0.68907 0.37315 0.0
H463 H 0.18661 0.77969 0.41005 0.0
H464 H 0.14869 0.69141 0.40897 0.0
S465 S 0.3317 0.7515 0.31631 0.0
N466 N 0.32295 0.79712 0.33273 0.0
N467 N 0.28216 0.70036 0.33318 0.0
C468 C 0.25559 0.71896 0.35329 0.0
C469 C 0.27806 0.77163 0.35344 0.0
C470 C 0.31286 0.51603 0.40476 0.0
C471 C 0.28832 0.48421 0.36645 0.0
C472 C 0.36471 0.54394 0.40644 0.0
C473 C 0.39373 0.54099 0.3698 0.0
H474 H 0.29196 0.51805 0.43434 0.0
H475 H 0.38223 0.56768 0.43684 0.0
S476 S 0.34679 0.45988 0.26361 0.0
N477 N 0.29667 0.44927 0.29244 0.0
N478 N 0.39357 0.50166 0.29529 0.0
C479 C 0.36934 0.50901 0.33146 0.0
C480 C 0.31681 0.48054 0.32996 0.0
C481 C 0.57389 0.8851 0.33394 0.0
C482 C 0.54182 0.87769 0.3719 0.0
C483 C 0.60299 0.86269 0.33325 0.0
C484 C 0.6005 0.83111 0.36992 0.0
H485 H 0.57766 0.90961 0.30514 0.0
H486 H 0.62831 0.87075 0.30405 0.0
S487 S 0.52272 0.79884 0.47701 0.0
N488 N 0.5093 0.83595 0.44705 0.0
N489 N 0.564 0.7936 0.44512 0.0
C490 C 0.56826 0.8226 0.40761 0.0
C491 C 0.539 0.846 0.40878 0.0
C492 C 0.58735 0.14751 0.72125 0.0
C493 C 0.61091 0.14794 0.67866 0.0
C494 C 0.53611 0.12452 0.72386 0.0
C495 C 0.50618 0.10217 0.68393 0.0
H496 H 0.60855 0.16708 0.75241 0.0
H497 H 0.52012 0.12838 0.75625 0.0
S498 S 0.54806 0.09162 0.56421 0.0
N499 N 0.59921 0.1202 0.59611 0.0
N500 N 0.50289 0.08163 0.60065 0.0
C501 C 0.52871 0.10122 0.64149 0.0
C502 C 0.581 0.1232 0.63889 0.0
C503 C 0.97992 0.44392 0.63742 0.0
C504 C 0.98411 0.42445 0.68103 0.0
C505 C 0.9601 0.47546 0.63489 0.0
C506 C 0.94299 0.4881 0.67586 0.0
H507 H 0.98776 0.43115 0.60458 0.0
H508 H 0.95541 0.48757 0.60024 0.0
S509 S 0.94497 0.44599 0.79856 0.0
N510 N 0.96862 0.4195 0.76561 0.0
N511 N 0.9336 0.47995 0.76164 0.0
C512 C 0.94878 0.47033 0.71984 0.0
C513 C 0.96892 0.43845 0.72222 0.0
C514 C 0.62915 0.55754 0.68706 0.0
C515 C 0.67479 0.57264 0.66516 0.0
C516 C 0.59342 0.50702 0.69052 0.0
C517 C 0.60269 0.47041 0.67269 0.0
H518 H 0.62109 0.58468 0.70168 0.0
H519 H 0.55834 0.4965 0.70687 0.0
S520 S 0.71759 0.4876 0.61915 0.0
N521 N 0.7276 0.54355 0.62922 0.0
N522 N 0.661 0.45103 0.63747 0.0
C523 C 0.6483 0.48441 0.65282 0.0
C524 C 0.68419 0.53487 0.6486 0.0
C525 C 0.91161 0.04871 0.73165 0.0
C526 C 0.86787 1.01659 0.70702 0.0
C527 C 0.93318 0.10025 0.72758 0.0
C528 C 0.91112 0.12109 0.69938 0.0
H529 H 0.92918 0.03387 0.75412 0.0
H530 H 0.9665 0.12381 0.74749 0.0
S531 S 0.79605 0.05172 0.62781 0.0
N532 N 0.80362 1.00868 0.65348 0.0
N533 N 0.84293 0.1046 0.64589 0.0
C534 C 0.86727 0.08881 0.67456 0.0
C535 C 0.84596 0.03681 0.67838 0.0
C536 C 0.9879 0.81554 0.67358 0.0
C537 C 0.95896 0.81607 0.71134 0.0
C538 C 1.03932 0.84464 0.67483 0.0
C539 C 0.06386 0.87474 0.71434 0.0
H540 H 0.97064 0.79158 0.64321 0.0
H541 H 0.06008 0.8424 0.6452 0.0
S542 S 1.00428 0.88792 0.82263 0.0
N543 N 0.9578 0.84818 0.78921 0.0
N544 N 0.05479 0.90326 0.79205 0.0
C545 C 1.03513 0.87556 0.75229 0.0
C546 C 0.98258 0.84618 0.75064 0.0
C547 C 0.26605 0.18767 0.66509 0.0
C548 C 0.26726 0.15839 0.70223 0.0
C549 C 0.23641 0.20944 0.66777 0.0
C550 C 0.20763 0.2036 0.70817 0.0
H551 H 0.28905 0.19465 0.63416 0.0
H552 H 0.23721 0.23226 0.63853 0.0
S553 S 0.20021 0.13214 0.81593 0.0
N554 N 0.23896 0.12589 0.78099 0.0
N555 N 0.1828 0.16639 0.78633 0.0
C556 C 0.20891 0.17454 0.74569 0.0
C557 C 0.23886 0.15207 0.74265 0.0
C558 C 0.08061 0.40788 0.2287 0.0
C559 C 0.12837 0.41388 0.22713 0.0
C560 C 0.06166 0.42374 0.19182 0.0
C561 C 0.08884 0.44569 0.15049 0.0
H562 H 0.05673 0.38973 0.25857 0.0
H563 H 1.0244 0.41706 0.19527 0.0
S564 S 0.21624 0.4702 0.12854 0.0
N565 N 0.20283 0.44397 0.18127 0.0
N566 N 0.16732 0.47317 0.11103 0.0
C567 C 0.13703 0.45236 0.14852 0.0
C568 C 0.1566 0.43649 0.1868 0.0
C569 C 0.63445 0.69009 0.23013 0.0
C570 C 0.67522 0.73788 0.22528 0.0
C571 C 0.61853 0.65506 0.1927 0.0
C572 C 0.64195 0.66713 0.14824 0.0
H573 H 0.61569 0.67927 0.26338 0.0
H574 H 0.58829 0.61818 0.19884 0.0
S575 S 0.74807 0.78871 0.11547 0.0
N576 N 0.73669 0.79588 0.17115 0.0
N577 N 0.70704 0.73144 0.10118 0.0
C578 C 0.68141 0.71555 0.14232 0.0
C579 C 0.69786 0.75055 0.18054 0.0
C580 C 0.39085 0.94909 0.15767 0.0
C581 C 0.42327 1.00067 0.15435 0.0
C582 C 0.35437 0.92801 0.19378 0.0
C583 C 0.34785 0.95769 0.22727 0.0
H584 H 0.39341 0.92478 0.13194 0.0
H585 H 0.33143 0.88839 0.19561 0.0
S586 S 0.42046 0.09483 0.23301 0.0
N587 N 0.44455 0.08028 0.18838 0.0
N588 N 0.3764 0.04189 0.25325 0.0
C589 C 0.3796 1.00919 0.22373 0.0
C590 C 0.41693 0.03029 0.18815 0.0
C591 C 0.48885 0.11617 0.86553 0.0
C592 C 0.45953 0.07543 0.89469 0.0
C593 C 0.46722 0.1326 0.83064 0.0
C594 C 0.41555 0.10895 0.82329 0.0
H595 H 0.52846 0.13609 0.87036 0.0
H596 H 0.49115 0.16424 0.80928 0.0
S597 S 0.32269 0.99879 0.88935 0.0
N598 N 0.37597 1.01117 0.91262 0.0
N599 N 0.33637 0.04115 0.8485 0.0
C600 C 0.38631 0.06796 0.85234 0.0
C601 C 0.40801 0.0515 0.88741 0.0
C602 C 0.96089 0.36302 0.89378 0.0
C603 C 1.00792 0.40574 0.89139 0.0
C604 C 0.94382 0.32619 0.85781 0.0
C605 C 0.97309 0.33083 0.81814 0.0
H606 H 0.93726 0.35777 0.92372 0.0
H607 H 0.90776 0.29382 0.86127 0.0
S608 S 0.09735 0.43708 0.79309 0.0
N609 N 0.08198 0.45105 0.84427 0.0
N610 N 0.05062 0.38284 0.77813 0.0
C611 C 1.01968 0.37379 0.81521 0.0
C612 C 1.03677 0.41096 0.85128 0.0
C613 C 0.74552 0.62821 0.85492 0.0
C614 C 0.74392 0.65715 0.81739 0.0
C615 C 0.70881 0.60943 0.89081 0.0
C616 C 0.6697 0.61962 0.89134 0.0
H617 H 0.77552 0.62051 0.85691 0.0
H618 H 0.71098 0.5869 0.91852 0.0
S619 S 0.64711 0.69133 0.7998 0.0
N620 N 0.69764 0.69231 0.78193 0.0
N621 N 0.6311 0.6591 0.84929 0.0
C622 C 0.66732 0.64749 0.85333 0.0
C623 C 0.70376 0.66571 0.8166 0.0
C624 C 0.76914 0.79922 0.52908 0.0
C625 C 0.75802 0.77607 0.48422 0.0
C626 C 0.7887 0.78356 0.56642 0.0
C627 C 0.79745 0.74392 0.5611 0.0
H628 H 0.76171 0.82891 0.53572 0.0
H629 H 0.79541 0.80133 0.60016 0.0
S630 S 0.77546 0.67086 0.45075 0.0
N631 N 0.75772 0.71081 0.43725 0.0
N632 N 0.7947 0.68294 0.50631 0.0
C633 C 0.78736 0.72124 0.51617 0.0
C634 C 0.76759 0.73685 0.47826 0.0
C635 C 0.30595 0.03889 0.48299 0.0
C636 C 0.30603 0.99383 0.48705 0.0
C637 C 0.32128 0.07377 0.52065 0.0
C638 C 0.33995 0.06642 0.56348 0.0
H639 H 0.29638 0.04871 0.44984 0.0
H640 H 0.32004 0.10736 0.51551 0.0
S641 S 0.35619 0.95874 0.5898 0.0
N642 N 0.3288 0.94584 0.53743 0.0
N643 N 0.36365 1.01291 0.60461 0.0
C644 C 0.34277 1.02276 0.5669 0.0
C645 C 0.32455 0.98636 0.52982 0.0
C646 C 1.00303 0.28497 0.51583 0.0
C647 C 1.01596 0.3029 0.56251 0.0
C648 C 1.03749 0.3045 0.47853 0.0
C649 C 0.08768 0.3397 0.48647 0.0
H650 H 0.96529 0.25747 0.50756 0.0
H651 H 1.02356 0.29443 0.44286 0.0
S652 S 0.1362 0.41049 0.59794 0.0
N653 N 0.0784 0.36984 0.61013 0.0
N654 N 0.1453 0.39836 0.54311 0.0
C655 C 0.10023 0.35951 0.53247 0.0
C656 C 0.06411 0.34283 0.56961 0.0
loop_
_geom_bond_atom_site_label_1
_geom_bond_atom_site_label_2
_geom_bond_distance
_geom_bond_site_symmetry_2
_ccdc_geom_bond_type
Ho0 C3 2.811 . S
Ho0 O20 2.322 . S
Ho0 O22 2.378 . S
Ho0 O23 2.524 1_556 S
Ho0 O24 2.381 . S
Ho0 O25 2.669 1_455 S
Ho0 O27 2.346 1_456 S
Ho0 O31 2.305 1_556 S
Ho1 C12 2.811 . S
Ho1 O21 2.346 1_655 S
Ho1 O25 2.305 1_554 S
Ho1 O26 2.322 . S
Ho1 O28 2.378 . S
Ho1 O29 2.524 1_554 S
Ho1 O30 2.381 . S
Ho1 O31 2.669 1_655 S
C2 O20 1.259 . S
C2 O21 1.268 1_556 S
C3 Ho0 2.811 . S
C3 C4 1.488 . S
C3 O22 1.215 . S
C3 O23 1.289 1_556 S
C4 C3 1.488 . S
C4 C5 1.348 1_556 S
C4 C9 1.413 . S
C5 C4 1.348 1_554 S
C5 C6 1.442 . S
C5 H32 0.930 . S
C6 C5 1.442 . S
C6 C7 1.381 1_554 S
C6 H33 0.931 . S
C7 C6 1.381 1_556 S
C7 C8 1.321 . S
C8 C7 1.321 . S
C8 C9 1.403 . S
C8 H34 0.934 . S
C9 C4 1.413 . S
C9 C8 1.403 . S
C9 H35 0.930 . S
C10 O24 1.275 1_655 S
C10 O25 1.256 . S
C11 O26 1.259 . S
C11 O27 1.268 . S
C12 Ho1 2.811 . S
C12 C13 1.488 . S
C12 O28 1.215 . S
C12 O29 1.289 1_554 S
C13 C12 1.488 . S
C13 C14 1.348 1_554 S
C13 C18 1.413 . S
C14 C13 1.348 1_556 S
C14 C15 1.442 . S
C14 H36 0.930 . S
C15 C14 1.442 . S
C15 C16 1.381 1_556 S
C15 H37 0.931 . S
C16 C15 1.381 1_554 S
C16 C17 1.321 . S
C17 C16 1.321 . S
C17 C18 1.403 . S
C17 H38 0.934 . S
C18 C13 1.413 . S
C18 C17 1.403 . S
C18 H39 0.930 . S
C19 O30 1.275 1_455 S
C19 O31 1.256 . S
O20 Ho0 2.322 . S
O20 C2 1.259 . S
O21 Ho1 2.346 1_455 S
O21 C2 1.268 1_554 S
O22 Ho0 2.378 . S
O22 C3 1.215 . S
O23 Ho0 2.524 1_554 S
O23 C3 1.289 1_554 S
O24 Ho0 2.381 . S
O24 C10 1.275 1_455 S
O25 Ho0 2.669 1_655 S
O25 Ho1 2.305 1_556 S
O25 C10 1.256 . S
O26 Ho1 2.322 . S
O26 C11 1.259 . S
O27 Ho0 2.346 1_654 S
O27 C11 1.268 . S
O28 Ho1 2.378 . S
O28 C12 1.215 . S
O29 Ho1 2.524 1_556 S
O29 C12 1.289 1_556 S
O30 Ho1 2.381 . S
O30 C19 1.275 1_655 S
O31 Ho0 2.305 1_554 S
O31 Ho1 2.669 1_455 S
O31 C19 1.256 . S
H32 C5 0.930 . S
H33 C6 0.931 . S
H34 C8 0.934 . S
H35 C9 0.930 . S
H36 C14 0.930 . S
H37 C15 0.931 . S
H38 C17 0.934 . S
H39 C18 0.930 . S
Ho40 C43 2.811 . S
Ho40 O60 2.322 . S
Ho40 O62 2.378 . S
Ho40 O63 2.524 1_556 S
Ho40 O64 2.381 . S
Ho40 O65 2.669 . S
Ho40 O67 2.346 1_556 S
Ho40 O71 2.305 1_556 S
Ho41 C52 2.811 . S
Ho41 O61 2.346 . S
Ho41 O65 2.305 1_554 S
Ho41 O66 2.322 . S
Ho41 O68 2.378 . S
Ho41 O69 2.524 1_554 S
Ho41 O70 2.381 . S
Ho41 O71 2.669 . S
C42 O60 1.259 . S
C42 O61 1.268 1_556 S
C43 Ho40 2.811 . S
C43 C44 1.488 . S
C43 O62 1.215 . S
C43 O63 1.289 1_556 S
C44 C43 1.488 . S
C44 C45 1.348 1_556 S
C44 C49 1.413 . S
C45 C44 1.348 1_554 S
C45 C46 1.442 . S
C45 H72 0.930 . S
C46 C45 1.442 . S
C46 C47 1.381 1_554 S
C46 H73 0.931 . S
C47 C46 1.381 1_556 S
C47 C48 1.321 . S
C48 C47 1.321 . S
C48 C49 1.403 . S
C48 H74 0.934 . S
C49 C44 1.413 . S
C49 C48 1.403 . S
C49 H75 0.930 . S
C50 O64 1.275 . S
C50 O65 1.256 . S
C51 O66 1.259 . S
C51 O67 1.268 . S
C52 Ho41 2.811 . S
C52 C53 1.488 . S
C52 O68 1.215 . S
C52 O69 1.289 1_554 S
C53 C52 1.488 . S
C53 C54 1.348 1_554 S
C53 C58 1.413 . S
C54 C53 1.348 1_556 S
C54 C55 1.442 . S
C54 H76 0.930 . S
C55 C54 1.442 . S
C55 C56 1.381 1_556 S
C55 H77 0.931 . S
C56 C55 1.381 1_554 S
C56 C57 1.321 . S
C57 C56 1.321 . S
C57 C58 1.403 . S
C57 H78 0.934 . S
C58 C53 1.413 . S
C58 C57 1.403 . S
C58 H79 0.930 . S
C59 O70 1.275 . S
C59 O71 1.256 . S
O60 Ho40 2.322 . S
O60 C42 1.259 . S
O61 Ho41 2.346 . S
O61 C42 1.268 1_554 S
O62 Ho40 2.378 . S
O62 C43 1.215 . S
O63 Ho40 2.524 1_554 S
O63 C43 1.289 1_554 S
O64 Ho40 2.381 . S
O64 C50 1.275 . S
O65 Ho40 2.669 . S
O65 Ho41 2.305 1_556 S
O65 C50 1.256 . S
O66 Ho41 2.322 . S
O66 C51 1.259 . S
O67 Ho40 2.346 1_554 S
O67 C51 1.268 . S
O68 Ho41 2.378 . S
O68 C52 1.215 . S
O69 Ho41 2.524 1_556 S
O69 C52 1.289 1_556 S
O70 Ho41 2.381 . S
O70 C59 1.275 . S
O71 Ho40 2.305 1_554 S
O71 Ho41 2.669 . S
O71 C59 1.256 . S
H72 C45 0.930 . S
H73 C46 0.931 . S
H74 C48 0.934 . S
H75 C49 0.930 . S
H76 C54 0.930 . S
H77 C55 0.931 . S
H78 C57 0.934 . S
H79 C58 0.930 . S
Ho80 C83 2.811 . S
Ho80 O100 2.322 . S
Ho80 O102 2.378 . S
Ho80 O103 2.524 1_556 S
Ho80 O104 2.381 . S
Ho80 O105 2.669 1_565 S
Ho80 O107 2.346 1_566 S
Ho80 O111 2.305 1_556 S
Ho81 C92 2.811 . S
Ho81 O101 2.346 1_545 S
Ho81 O105 2.305 1_554 S
Ho81 O106 2.322 . S
Ho81 O108 2.378 . S
Ho81 O109 2.524 1_554 S
Ho81 O110 2.381 . S
Ho81 O111 2.669 1_545 S
C82 O100 1.259 . S
C82 O101 1.268 1_556 S
C83 Ho80 2.811 . S
C83 C84 1.488 . S
C83 O102 1.215 . S
C83 O103 1.289 1_556 S
C84 C83 1.488 . S
C84 C85 1.348 1_556 S
C84 C89 1.413 . S
C85 C84 1.348 1_554 S
C85 C86 1.442 . S
C85 H112 0.930 . S
C86 C85 1.442 . S
C86 C87 1.381 1_554 S
C86 H113 0.931 . S
C87 C86 1.381 1_556 S
C87 C88 1.321 . S
C88 C87 1.321 . S
C88 C89 1.403 . S
C88 H114 0.934 . S
C89 C84 1.413 . S
C89 C88 1.403 . S
C89 H115 0.930 . S
C90 O104 1.275 1_545 S
C90 O105 1.256 . S
C91 O106 1.259 . S
C91 O107 1.268 . S
C92 Ho81 2.811 . S
C92 C93 1.488 . S
C92 O108 1.215 . S
C92 O109 1.289 1_554 S
C93 C92 1.488 . S
C93 C94 1.348 1_554 S
C93 C98 1.413 . S
C94 C93 1.348 1_556 S
C94 C95 1.442 . S
C94 H116 0.930 . S
C95 C94 1.442 . S
C95 C96 1.381 1_556 S
C95 H117 0.931 . S
C96 C95 1.381 1_554 S
C96 C97 1.321 . S
C97 C96 1.321 . S
C97 C98 1.403 . S
C97 H118 0.934 . S
C98 C93 1.413 . S
C98 C97 1.403 . S
C98 H119 0.930 . S
C99 O110 1.275 1_565 S
C99 O111 1.256 . S
O100 Ho80 2.322 . S
O100 C82 1.259 . S
O101 Ho81 2.346 1_565 S
O101 C82 1.268 1_554 S
O102 Ho80 2.378 . S
O102 C83 1.215 . S
O103 Ho80 2.524 1_554 S
O103 C83 1.289 1_554 S
O104 Ho80 2.381 . S
O104 C90 1.275 1_565 S
O105 Ho80 2.669 1_545 S
O105 Ho81 2.305 1_556 S
O105 C90 1.256 . S
O106 Ho81 2.322 . S
O106 C91 1.259 . S
O107 Ho80 2.346 1_544 S
O107 C91 1.268 . S
O108 Ho81 2.378 . S
O108 C92 1.215 . S
O109 Ho81 2.524 1_556 S
O109 C92 1.289 1_556 S
O110 Ho81 2.381 . S
O110 C99 1.275 1_545 S
O111 Ho80 2.305 1_554 S
O111 Ho81 2.669 1_565 S
O111 C99 1.256 . S
H112 C85 0.930 . S
H113 C86 0.931 . S
H114 C88 0.934 . S
H115 C89 0.930 . S
H116 C94 0.930 . S
H117 C95 0.931 . S
H118 C97 0.934 . S
H119 C98 0.930 . S
Ho120 C123 2.811 . S
Ho120 O140 2.322 . S
Ho120 O142 2.378 . S
Ho120 O143 2.524 . S
Ho120 O144 2.381 . S
Ho120 O145 2.669 . S
Ho120 O147 2.346 . S
Ho120 O151 2.305 . S
Ho121 C132 2.811 . S
Ho121 O141 2.346 . S
Ho121 O145 2.305 . S
Ho121 O146 2.322 . S
Ho121 O148 2.378 . S
Ho121 O149 2.524 . S
Ho121 O150 2.381 . S
Ho121 O151 2.669 . S
C122 O140 1.259 . S
C122 O141 1.268 . S
C123 Ho120 2.811 . S
C123 C124 1.488 . S
C123 O142 1.215 . S
C123 O143 1.289 . S
C124 C123 1.488 . S
C124 C125 1.348 . S
C124 C129 1.413 . S
C125 C124 1.348 . S
C125 C126 1.442 1_565 S
C125 H152 0.930 . S
C126 C125 1.442 1_545 S
C126 C127 1.381 . S
C126 H153 0.931 . S
C127 C126 1.381 . S
C127 C128 1.321 . S
C128 C127 1.321 . S
C128 C129 1.403 1_545 S
C128 H154 0.934 . S
C129 C124 1.413 . S
C129 C128 1.403 1_565 S
C129 H155 0.930 . S
C130 O144 1.275 . S
C130 O145 1.256 . S
C131 O146 1.259 . S
C131 O147 1.268 . S
C132 Ho121 2.811 . S
C132 C133 1.488 . S
C132 O148 1.215 . S
C132 O149 1.289 . S
C133 C132 1.488 . S
C133 C134 1.348 . S
C133 C138 1.413 . S
C134 C133 1.348 . S
C134 C135 1.442 . S
C134 H156 0.930 . S
C135 C134 1.442 . S
C135 C136 1.381 . S
C135 H157 0.931 . S
C136 C135 1.381 . S
C136 C137 1.321 . S
C137 C136 1.321 . S
C137 C138 1.403 . S
C137 H158 0.934 . S
C138 C133 1.413 . S
C138 C137 1.403 . S
C138 H159 0.930 . S
C139 O150 1.275 . S
C139 O151 1.256 . S
O140 Ho120 2.322 . S
O140 C122 1.259 . S
O141 Ho121 2.346 . S
O141 C122 1.268 . S
O142 Ho120 2.378 . S
O142 C123 1.215 . S
O143 Ho120 2.524 . S
O143 C123 1.289 . S
O144 Ho120 2.381 . S
O144 C130 1.275 . S
O145 Ho120 2.669 . S
O145 Ho121 2.305 . S
O145 C130 1.256 . S
O146 Ho121 2.322 . S
O146 C131 1.259 . S
O147 Ho120 2.346 . S
O147 C131 1.268 . S
O148 Ho121 2.378 . S
O148 C132 1.215 . S
O149 Ho121 2.524 . S
O149 C132 1.289 . S
O150 Ho121 2.381 . S
O150 C139 1.275 . S
O151 Ho120 2.305 . S
O151 Ho121 2.669 . S
O151 C139 1.256 . S
H152 C125 0.930 . S
H153 C126 0.931 . S
H154 C128 0.934 . S
H155 C129 0.930 . S
H156 C134 0.930 . S
H157 C135 0.931 . S
H158 C137 0.934 . S
H159 C138 0.930 . S
Ho160 C163 2.811 . S
Ho160 O180 2.322 . S
Ho160 O182 2.378 . S
Ho160 O183 2.524 . S
Ho160 O184 2.381 . S
Ho160 O185 2.669 . S
Ho160 O187 2.346 . S
Ho160 O191 2.305 . S
Ho161 C172 2.811 . S
Ho161 O181 2.346 . S
Ho161 O185 2.305 . S
Ho161 O186 2.322 . S
Ho161 O188 2.378 . S
Ho161 O189 2.524 . S
Ho161 O190 2.381 . S
Ho161 O191 2.669 . S
C162 O180 1.259 . S
C162 O181 1.268 . S
C163 Ho160 2.811 . S
C163 C164 1.488 . S
C163 O182 1.215 . S
C163 O183 1.289 . S
C164 C163 1.488 . S
C164 C165 1.348 . S
C164 C169 1.413 . S
C165 C164 1.348 . S
C165 C166 1.454 . S
C165 H192 0.930 . S
C166 C165 1.454 . S
C166 C167 1.374 1_455 S
C166 H193 0.925 1_455 S
C167 C166 1.374 1_655 S
C167 C168 1.321 . S
C168 C167 1.321 . S
C168 C169 1.403 1_655 S
C168 H194 0.934 . S
C169 C164 1.413 . S
C169 C168 1.403 1_455 S
C169 H195 0.930 . S
C170 O184 1.275 . S
C170 O185 1.256 . S
C171 O186 1.259 . S
C171 O187 1.268 . S
C172 Ho161 2.811 . S
C172 C173 1.488 . S
C172 O188 1.215 . S
C172 O189 1.289 . S
C173 C172 1.488 . S
C173 C174 1.348 . S
C173 C178 1.413 . S
C174 C173 1.348 . S
C174 C175 1.442 . S
C174 H196 0.930 . S
C175 C174 1.442 . S
C175 C176 1.381 . S
C175 H197 0.931 . S
C176 C175 1.381 . S
C176 C177 1.321 . S
C177 C176 1.321 . S
C177 C178 1.403 . S
C177 H198 0.934 . S
C178 C173 1.413 . S
C178 C177 1.403 . S
C178 H199 0.930 . S
C179 O190 1.275 . S
C179 O191 1.256 . S
O180 Ho160 2.322 . S
O180 C162 1.259 . S
O181 Ho161 2.346 . S
O181 C162 1.268 . S
O182 Ho160 2.378 . S
O182 C163 1.215 . S
O183 Ho160 2.524 . S
O183 C163 1.289 . S
O184 Ho160 2.381 . S
O184 C170 1.275 . S
O185 Ho160 2.669 . S
O185 Ho161 2.305 . S
O185 C170 1.256 . S
O186 Ho161 2.322 . S
O186 C171 1.259 . S
O187 Ho160 2.346 . S
O187 C171 1.268 . S
O188 Ho161 2.378 . S
O188 C172 1.215 . S
O189 Ho161 2.524 . S
O189 C172 1.289 . S
O190 Ho161 2.381 . S
O190 C179 1.275 . S
O191 Ho160 2.305 . S
O191 Ho161 2.669 . S
O191 C179 1.256 . S
H192 C165 0.930 . S
H193 C166 0.925 1_655 S
H194 C168 0.934 . S
H195 C169 0.930 . S
H196 C174 0.930 . S
H197 C175 0.931 . S
H198 C177 0.934 . S
H199 C178 0.930 . S
Ho200 C203 2.811 . S
Ho200 O220 2.322 . S
Ho200 O222 2.378 . S
Ho200 O223 2.524 . S
Ho200 O224 2.381 . S
Ho200 O225 2.669 . S
Ho200 O227 2.346 . S
Ho200 O231 2.305 . S
Ho201 C212 2.811 . S
Ho201 O221 2.346 . S
Ho201 O225 2.305 . S
Ho201 O226 2.322 . S
Ho201 O228 2.378 . S
Ho201 O229 2.524 . S
Ho201 O230 2.381 . S
Ho201 O231 2.669 . S
C202 O220 1.259 . S
C202 O221 1.268 . S
C203 Ho200 2.811 . S
C203 C204 1.488 . S
C203 O222 1.215 . S
C203 O223 1.289 . S
C204 C203 1.488 . S
C204 C205 1.348 . S
C204 C209 1.413 . S
C205 C204 1.348 . S
C205 C206 1.442 . S
C205 H232 0.930 . S
C206 C205 1.442 . S
C206 C207 1.381 . S
C206 H233 0.931 . S
C207 C206 1.381 . S
C207 C208 1.321 . S
C208 C207 1.321 . S
C208 C209 1.403 . S
C208 H234 0.934 . S
C209 C204 1.413 . S
C209 C208 1.403 . S
C209 H235 0.930 . S
C210 O224 1.275 . S
C210 O225 1.256 . S
C211 O226 1.259 . S
C211 O227 1.268 . S
C212 Ho201 2.811 . S
C212 C213 1.488 . S
C212 O228 1.215 . S
C212 O229 1.289 . S
C213 C212 1.488 . S
C213 C214 1.348 . S
C213 C218 1.413 . S
C214 C213 1.348 . S
C214 C215 1.442 . S
C214 H236 0.930 . S
C215 C214 1.442 . S
C215 C216 1.381 . S
C215 H237 0.931 . S
C216 C215 1.381 . S
C216 C217 1.321 . S
C217 C216 1.321 . S
C217 C218 1.403 . S
C217 H238 0.934 . S
C218 C213 1.413 . S
C218 C217 1.403 . S
C218 H239 0.930 . S
C219 O230 1.275 . S
C219 O231 1.256 . S
O220 Ho200 2.322 . S
O220 C202 1.259 . S
O221 Ho201 2.346 . S
O221 C202 1.268 . S
O222 Ho200 2.378 . S
O222 C203 1.215 . S
O223 Ho200 2.524 . S
O223 C203 1.289 . S
O224 Ho200 2.381 . S
O224 C210 1.275 . S
O225 Ho200 2.669 . S
O225 Ho201 2.305 . S
O225 C210 1.256 . S
O226 Ho201 2.322 . S
O226 C211 1.259 . S
O227 Ho200 2.346 . S
O227 C211 1.268 . S
O228 Ho201 2.378 . S
O228 C212 1.215 . S
O229 Ho201 2.524 . S
O229 C212 1.289 . S
O230 Ho201 2.381 . S
O230 C219 1.275 . S
O231 Ho200 2.305 . S
O231 Ho201 2.669 . S
O231 C219 1.256 . S
H232 C205 0.930 . S
H233 C206 0.931 . S
H234 C208 0.934 . S
H235 C209 0.930 . S
H236 C214 0.930 . S
H237 C215 0.931 . S
H238 C217 0.934 . S
H239 C218 0.930 . S
Ho240 C243 2.811 . S
Ho240 O260 2.322 . S
Ho240 O262 2.378 . S
Ho240 O263 2.524 . S
Ho240 O264 2.381 . S
Ho240 O265 2.669 . S
Ho240 O267 2.346 . S
Ho240 O271 2.305 . S
Ho241 C252 2.811 1_545 S
Ho241 O261 2.346 . S
Ho241 O265 2.305 . S
Ho241 O266 2.322 . S
Ho241 O268 2.378 1_545 S
Ho241 O269 2.524 . S
Ho241 O270 2.381 . S
Ho241 O271 2.669 . S
C242 O260 1.259 . S
C242 O261 1.268 . S
C243 Ho240 2.811 . S
C243 C244 1.488 . S
C243 O262 1.215 . S
C243 O263 1.289 . S
C244 C243 1.488 . S
C244 C245 1.348 . S
C244 C249 1.413 . S
C245 C244 1.348 . S
C245 C246 1.442 . S
C245 H272 0.930 . S
C246 C245 1.442 . S
C246 C247 1.381 . S
C246 H273 0.931 . S
C247 C246 1.381 . S
C247 C248 1.321 . S
C248 C247 1.321 . S
C248 C249 1.403 . S
C248 H274 0.934 . S
C249 C244 1.413 . S
C249 C248 1.403 . S
C249 H275 0.930 . S
C250 O264 1.275 . S
C250 O265 1.256 . S
C251 O266 1.259 . S
C251 O267 1.268 . S
C252 Ho241 2.811 1_565 S
C252 C253 1.488 . S
C252 O268 1.215 . S
C252 O269 1.289 1_565 S
C253 C252 1.488 . S
C253 C254 1.348 . S
C253 C258 1.413 . S
C254 C253 1.348 . S
C254 C255 1.442 . S
C254 H276 0.930 . S
C255 C254 1.442 . S
C255 C256 1.381 . S
C255 H277 0.931 . S
C256 C255 1.381 . S
C256 C257 1.321 . S
C257 C256 1.321 . S
C257 C258 1.403 . S
C257 H278 0.934 . S
C258 C253 1.413 . S
C258 C257 1.403 . S
C258 H279 0.930 . S
C259 O270 1.275 . S
C259 O271 1.256 . S
O260 Ho240 2.322 . S
O260 C242 1.259 . S
O261 Ho241 2.346 . S
O261 C242 1.268 . S
O262 Ho240 2.378 . S
O262 C243 1.215 . S
O263 Ho240 2.524 . S
O263 C243 1.289 . S
O264 Ho240 2.381 . S
O264 C250 1.275 . S
O265 Ho240 2.669 . S
O265 Ho241 2.305 . S
O265 C250 1.256 . S
O266 Ho241 2.322 . S
O266 C251 1.259 . S
O267 Ho240 2.346 . S
O267 C251 1.268 . S
O268 Ho241 2.378 1_565 S
O268 C252 1.215 . S
O269 Ho241 2.524 . S
O269 C252 1.289 1_545 S
O270 Ho241 2.381 . S
O270 C259 1.275 . S
O271 Ho240 2.305 . S
O271 Ho241 2.669 . S
O271 C259 1.256 . S
H272 C245 0.930 . S
H273 C246 0.931 . S
H274 C248 0.934 . S
H275 C249 0.930 . S
H276 C254 0.930 . S
H277 C255 0.931 . S
H278 C257 0.934 . S
H279 C258 0.930 . S
Ho280 C283 2.811 . S
Ho280 O300 2.322 . S
Ho280 O302 2.378 . S
Ho280 O303 2.524 . S
Ho280 O304 2.381 . S
Ho280 O305 2.669 . S
Ho280 O307 2.346 . S
Ho280 O311 2.305 . S
Ho281 C292 2.811 1_655 S
Ho281 O301 2.346 . S
Ho281 O305 2.305 . S
Ho281 O306 2.322 . S
Ho281 O308 2.378 1_655 S
Ho281 O309 2.524 1_655 S
Ho281 O310 2.381 . S
Ho281 O311 2.669 . S
C282 O300 1.259 . S
C282 O301 1.268 . S
C283 Ho280 2.811 . S
C283 C284 1.488 . S
C283 O302 1.215 . S
C283 O303 1.289 . S
C284 C283 1.488 . S
C284 C285 1.348 . S
C284 C289 1.413 . S
C285 C284 1.348 . S
C285 C286 1.442 . S
C285 H312 0.930 . S
C286 C285 1.442 . S
C286 C287 1.381 . S
C286 H313 0.931 . S
C287 C286 1.381 . S
C287 C288 1.321 . S
C288 C287 1.321 . S
C288 C289 1.403 . S
C288 H314 0.934 . S
C289 C284 1.413 . S
C289 C288 1.403 . S
C289 H315 0.930 . S
C290 O304 1.275 . S
C290 O305 1.256 . S
C291 O306 1.259 . S
C291 O307 1.268 . S
C292 Ho281 2.811 1_455 S
C292 C293 1.488 . S
C292 O308 1.215 . S
C292 O309 1.289 . S
C293 C292 1.488 . S
C293 C294 1.348 . S
C293 C298 1.413 . S
C294 C293 1.348 . S
C294 C295 1.442 . S
C294 H316 0.930 . S
C295 C294 1.442 . S
C295 C296 1.381 . S
C295 H317 0.931 . S
C296 C295 1.381 . S
C296 C297 1.321 . S
C297 C296 1.321 . S
C297 C298 1.403 . S
C297 H318 0.934 . S
C298 C293 1.413 . S
C298 C297 1.403 . S
C298 H319 0.930 . S
C299 O310 1.275 . S
C299 O311 1.256 . S
O300 Ho280 2.322 . S
O300 C282 1.259 . S
O301 Ho281 2.346 . S
O301 C282 1.268 . S
O302 Ho280 2.378 . S
O302 C283 1.215 . S
O303 Ho280 2.524 . S
O303 C283 1.289 . S
O304 Ho280 2.381 . S
O304 C290 1.275 . S
O305 Ho280 2.669 . S
O305 Ho281 2.305 . S
O305 C290 1.256 . S
O306 Ho281 2.322 . S
O306 C291 1.259 . S
O307 Ho280 2.346 . S
O307 C291 1.268 . S
O308 Ho281 2.378 1_455 S
O308 C292 1.215 . S
O309 Ho281 2.524 1_455 S
O309 C292 1.289 . S
O310 Ho281 2.381 . S
O310 C299 1.275 . S
O311 Ho280 2.305 . S
O311 Ho281 2.669 . S
O311 C299 1.256 . S
H312 C285 0.930 . S
H313 C286 0.931 . S
H314 C288 0.934 . S
H315 C289 0.930 . S
H316 C294 0.930 . S
H317 C295 0.931 . S
H318 C297 0.934 . S
H319 C298 0.930 . S
Ho320 C323 2.811 . S
Ho320 O340 2.322 . S
Ho320 O342 2.378 . S
Ho320 O343 2.524 . S
Ho320 O344 2.381 . S
Ho320 O345 2.669 . S
Ho320 O347 2.346 . S
Ho320 O351 2.305 . S
Ho321 C332 2.811 . S
Ho321 O341 2.346 . S
Ho321 O345 2.305 . S
Ho321 O346 2.322 . S
Ho321 O348 2.378 . S
Ho321 O349 2.524 . S
Ho321 O350 2.381 . S
Ho321 O351 2.669 . S
C322 O340 1.259 . S
C322 O341 1.268 . S
C323 Ho320 2.811 . S
C323 C324 1.488 . S
C323 O342 1.215 . S
C323 O343 1.289 . S
C324 C323 1.488 . S
C324 C325 1.348 . S
C324 C329 1.413 . S
C325 C324 1.348 . S
C325 C326 1.442 . S
C325 H352 0.930 . S
C326 C325 1.442 . S
C326 C327 1.381 . S
C326 H353 0.931 . S
C327 C326 1.381 . S
C327 C328 1.321 . S
C328 C327 1.321 . S
C328 C329 1.403 . S
C328 H354 0.934 . S
C329 C324 1.413 . S
C329 C328 1.403 . S
C329 H355 0.930 . S
C330 O344 1.275 . S
C330 O345 1.256 . S
C331 O346 1.259 . S
C331 O347 1.268 . S
C332 Ho321 2.811 . S
C332 C333 1.488 . S
C332 O348 1.215 . S
C332 O349 1.289 . S
C333 C332 1.488 . S
C333 C334 1.348 . S
C333 C338 1.413 . S
C334 C333 1.348 . S
C334 C335 1.442 . S
C334 H356 0.930 . S
C335 C334 1.442 . S
C335 C336 1.381 . S
C335 H357 0.931 . S
C336 C335 1.381 . S
C336 C337 1.321 . S
C337 C336 1.321 . S
C337 C338 1.403 . S
C337 H358 0.934 . S
C338 C333 1.413 . S
C338 C337 1.403 . S
C338 H359 0.930 . S
C339 O350 1.275 . S
C339 O351 1.256 . S
O340 Ho320 2.322 . S
O340 C322 1.259 . S
O341 Ho321 2.346 . S
O341 C322 1.268 . S
O342 Ho320 2.378 . S
O342 C323 1.215 . S
O343 Ho320 2.524 . S
O343 C323 1.289 . S
O344 Ho320 2.381 . S
O344 C330 1.275 . S
O345 Ho320 2.669 . S
O345 Ho321 2.305 . S
O345 C330 1.256 . S
O346 Ho321 2.322 . S
O346 C331 1.259 . S
O347 Ho320 2.346 . S
O347 C331 1.268 . S
O348 Ho321 2.378 . S
O348 C332 1.215 . S
O349 Ho321 2.524 . S
O349 C332 1.289 . S
O350 Ho321 2.381 . S
O350 C339 1.275 . S
O351 Ho320 2.305 . S
O351 Ho321 2.669 . S
O351 C339 1.256 . S
H352 C325 0.930 . S
H353 C326 0.931 . S
H354 C328 0.934 . S
H355 C329 0.930 . S
H356 C334 0.930 . S
H357 C335 0.931 . S
H358 C337 0.934 . S
H359 C338 0.930 . S
C360 C361 1.369 . S
C360 C362 1.419 . S
C360 H364 0.930 . S
C361 C360 1.369 . S
C361 C370 1.429 . S
C362 C360 1.419 . S
C362 C363 1.363 . S
C362 H365 0.929 . S
C363 C362 1.363 . S
C363 C369 1.428 . S
H364 C360 0.930 . S
H365 C362 0.929 . S
S366 N367 1.613 . S
S366 N368 1.610 . S
N367 S366 1.613 . S
N367 C370 1.350 . S
N368 S366 1.610 . S
N368 C369 1.351 . S
C369 C363 1.428 . S
C369 N368 1.351 . S
C369 C370 1.434 . S
C370 C361 1.429 . S
C370 N367 1.350 . S
C370 C369 1.434 . S
C371 C372 1.369 1_554 S
C371 C373 1.419 . S
C371 H375 0.930 . S
C372 C371 1.369 1_556 S
C372 C381 1.429 . S
C373 C371 1.419 . S
C373 C374 1.363 1_554 S
C373 H376 0.929 . S
C374 C373 1.363 1_556 S
C374 C380 1.428 . S
H375 C371 0.930 . S
H376 C373 0.929 . S
S377 N378 1.613 . S
S377 N379 1.610 . S
N378 S377 1.613 . S
N378 C381 1.350 . S
N379 S377 1.610 . S
N379 C380 1.351 . S
C380 C374 1.428 . S
C380 N379 1.351 . S
C380 C381 1.434 . S
C381 C372 1.429 . S
C381 N378 1.350 . S
C381 C380 1.434 . S
C382 C383 1.369 . S
C382 C384 1.419 . S
C382 H386 0.930 . S
C383 C382 1.369 . S
C383 C392 1.429 1_556 S
C384 C382 1.419 . S
C384 C385 1.363 . S
C384 H387 0.929 . S
C385 C384 1.363 . S
C385 C391 1.428 1_556 S
H386 C382 0.930 . S
H387 C384 0.929 . S
S388 N389 1.613 . S
S388 N390 1.610 . S
N389 S388 1.613 . S
N389 C392 1.350 . S
N390 S388 1.610 . S
N390 C391 1.351 . S
C391 C385 1.428 1_554 S
C391 N390 1.351 . S
C391 C392 1.434 . S
C392 C383 1.429 1_554 S
C392 N389 1.350 . S
C392 C391 1.434 . S
C393 C394 1.369 . S
C393 C395 1.419 . S
C393 H397 0.930 . S
C394 C393 1.369 . S
C394 C403 1.429 1_554 S
C395 C393 1.419 . S
C395 C396 1.363 . S
C395 H398 0.929 . S
C396 C395 1.363 . S
C396 C402 1.428 1_554 S
H397 C393 0.930 . S
H398 C395 0.929 . S
S399 N400 1.613 . S
S399 N401 1.610 . S
N400 S399 1.613 . S
N400 C403 1.350 . S
N401 S399 1.610 . S
N401 C402 1.351 . S
C402 C396 1.428 1_556 S
C402 N401 1.351 . S
C402 C403 1.434 . S
C403 C394 1.429 1_556 S
C403 N400 1.350 . S
C403 C402 1.434 . S
C404 C405 1.369 1_556 S
C404 C406 1.419 . S
C404 H408 0.930 . S
C405 C404 1.369 1_554 S
C405 C414 1.429 . S
C406 C404 1.419 . S
C406 C407 1.363 1_556 S
C406 H409 0.929 . S
C407 C406 1.363 1_554 S
C407 C413 1.428 . S
H408 C404 0.930 . S
H409 C406 0.929 . S
S410 N411 1.613 . S
S410 N412 1.610 . S
N411 S410 1.613 . S
N411 C414 1.350 . S
N412 S410 1.610 . S
N412 C413 1.351 . S
C413 C407 1.428 . S
C413 N412 1.351 . S
C413 C414 1.434 . S
C414 C405 1.429 . S
C414 N411 1.350 . S
C414 C413 1.434 . S
C415 C416 1.369 . S
C415 C417 1.419 . S
C415 H419 0.930 . S
C416 C415 1.369 . S
C416 C425 1.426 1_554 S
C417 C415 1.419 . S
C417 C418 1.363 . S
C417 H420 0.929 . S
C418 C417 1.363 . S
C418 C424 1.428 . S
H419 C415 0.930 . S
H420 C417 0.929 . S
S421 N422 1.613 . S
S421 N423 1.610 . S
N422 S421 1.613 . S
N422 C425 1.353 . S
N423 S421 1.610 . S
N423 C424 1.351 1_556 S
C424 C418 1.428 . S
C424 N423 1.351 1_554 S
C424 C425 1.433 1_554 S
C425 C416 1.426 1_556 S
C425 N422 1.353 . S
C425 C424 1.433 1_556 S
C426 C427 1.369 . S
C426 C428 1.419 . S
C426 H430 0.930 . S
C427 C426 1.369 . S
C427 C436 1.429 . S
C428 C426 1.419 . S
C428 C429 1.363 . S
C428 H431 0.929 . S
C429 C428 1.363 . S
C429 C435 1.428 . S
H430 C426 0.930 . S
H431 C428 0.929 . S
S432 N433 1.613 . S
S432 N434 1.610 . S
N433 S432 1.613 . S
N433 C436 1.350 . S
N434 S432 1.610 . S
N434 C435 1.351 . S
C435 C429 1.428 . S
C435 N434 1.351 . S
C435 C436 1.434 . S
C436 C427 1.429 . S
C436 N433 1.350 . S
C436 C435 1.434 . S
C437 C438 1.369 . S
C437 C439 1.419 . S
C437 H441 0.930 . S
C438 C437 1.369 . S
C438 C447 1.429 . S
C439 C437 1.419 . S
C439 C440 1.363 . S
C439 H442 0.929 . S
C440 C439 1.363 . S
C440 C446 1.428 . S
H441 C437 0.930 . S
H442 C439 0.929 . S
S443 N444 1.613 . S
S443 N445 1.610 . S
N444 S443 1.613 . S
N444 C447 1.350 . S
N445 S443 1.610 . S
N445 C446 1.351 . S
C446 C440 1.428 . S
C446 N445 1.351 . S
C446 C447 1.434 . S
C447 C438 1.429 . S
C447 N444 1.350 . S
C447 C446 1.434 . S
C448 C449 1.371 1_655 S
C448 C450 1.414 . S
C448 H452 0.934 1_655 S
C449 C448 1.371 1_455 S
C449 C458 1.427 . S
C450 C448 1.414 . S
C450 C451 1.363 . S
C450 H453 0.929 . S
C451 C450 1.363 . S
C451 C457 1.428 . S
H452 C448 0.934 1_455 S
H453 C450 0.929 . S
S454 N455 1.613 1_655 S
S454 N456 1.610 . S
N455 S454 1.613 1_455 S
N455 C458 1.350 . S
N456 S454 1.610 . S
N456 C457 1.351 . S
C457 C451 1.428 . S
C457 N456 1.351 . S
C457 C458 1.436 1_655 S
C458 C449 1.427 . S
C458 N455 1.350 . S
C458 C457 1.436 1_455 S
C459 C460 1.369 . S
C459 C461 1.419 . S
C459 H463 0.930 . S
C460 C459 1.369 . S
C460 C469 1.429 . S
C461 C459 1.419 . S
C461 C462 1.363 . S
C461 H464 0.929 . S
C462 C461 1.363 . S
C462 C468 1.428 . S
H463 C459 0.930 . S
H464 C461 0.929 . S
S465 N466 1.613 . S
S465 N467 1.610 . S
N466 S465 1.613 . S
N466 C469 1.350 . S
N467 S465 1.610 . S
N467 C468 1.351 . S
C468 C462 1.428 . S
C468 N467 1.351 . S
C468 C469 1.434 . S
C469 C460 1.429 . S
C469 N466 1.350 . S
C469 C468 1.434 . S
C470 C471 1.369 . S
C470 C472 1.419 . S
C470 H474 0.930 . S
C471 C470 1.369 . S
C471 C480 1.429 . S
C472 C470 1.419 . S
C472 C473 1.363 . S
C472 H475 0.929 . S
C473 C472 1.363 . S
C473 C479 1.428 . S
H474 C470 0.930 . S
H475 C472 0.929 . S
S476 N477 1.613 . S
S476 N478 1.610 . S
N477 S476 1.613 . S
N477 C480 1.350 . S
N478 S476 1.610 . S
N478 C479 1.351 . S
C479 C473 1.428 . S
C479 N478 1.351 . S
C479 C480 1.434 . S
C480 C471 1.429 . S
C480 N477 1.350 . S
C480 C479 1.434 . S
C481 C482 1.369 . S
C481 C483 1.419 . S
C481 H485 0.930 . S
C482 C481 1.369 . S
C482 C491 1.429 . S
C483 C481 1.419 . S
C483 C484 1.363 . S
C483 H486 0.929 . S
C484 C483 1.363 . S
C484 C490 1.428 . S
H485 C481 0.930 . S
H486 C483 0.929 . S
S487 N488 1.613 . S
S487 N489 1.610 . S
N488 S487 1.613 . S
N488 C491 1.350 . S
N489 S487 1.610 . S
N489 C490 1.351 . S
C490 C484 1.428 . S
C490 N489 1.351 . S
C490 C491 1.434 . S
C491 C482 1.429 . S
C491 N488 1.350 . S
C491 C490 1.434 . S
C492 C493 1.369 . S
C492 C494 1.419 . S
C492 H496 0.930 . S
C493 C492 1.369 . S
C493 C502 1.429 . S
C494 C492 1.419 . S
C494 C495 1.363 . S
C494 H497 0.929 . S
C495 C494 1.363 . S
C495 C501 1.428 . S
H496 C492 0.930 . S
H497 C494 0.929 . S
S498 N499 1.613 . S
S498 N500 1.610 . S
N499 S498 1.613 . S
N499 C502 1.350 . S
N500 S498 1.610 . S
N500 C501 1.351 . S
C501 C495 1.428 . S
C501 N500 1.351 . S
C501 C502 1.434 . S
C502 C493 1.429 . S
C502 N499 1.350 . S
C502 C501 1.434 . S
C503 C504 1.369 . S
C503 C505 1.419 . S
C503 H507 0.930 . S
C504 C503 1.369 . S
C504 C513 1.429 . S
C505 C503 1.419 . S
C505 C506 1.363 . S
C505 H508 0.929 . S
C506 C505 1.363 . S
C506 C512 1.428 . S
H507 C503 0.930 . S
H508 C505 0.929 . S
S509 N510 1.613 . S
S509 N511 1.610 . S
N510 S509 1.613 . S
N510 C513 1.350 . S
N511 S509 1.610 . S
N511 C512 1.351 . S
C512 C506 1.428 . S
C512 N511 1.351 . S
C512 C513 1.434 . S
C513 C504 1.429 . S
C513 N510 1.350 . S
C513 C512 1.434 . S
C514 C515 1.369 . S
C514 C516 1.419 . S
C514 H518 0.930 . S
C515 C514 1.369 . S
C515 C524 1.429 . S
C516 C514 1.419 . S
C516 C517 1.363 . S
C516 H519 0.929 . S
C517 C516 1.363 . S
C517 C523 1.428 . S
H518 C514 0.930 . S
H519 C516 0.929 . S
S520 N521 1.613 . S
S520 N522 1.610 . S
N521 S520 1.613 . S
N521 C524 1.350 . S
N522 S520 1.610 . S
N522 C523 1.351 . S
C523 C517 1.428 . S
C523 N522 1.351 . S
C523 C524 1.434 . S
C524 C515 1.429 . S
C524 N521 1.350 . S
C524 C523 1.434 . S
C525 C526 1.369 1_545 S
C525 C527 1.419 . S
C525 H529 0.930 . S
C526 C525 1.369 1_565 S
C526 C535 1.429 1_565 S
C527 C525 1.419 . S
C527 C528 1.363 . S
C527 H530 0.929 . S
C528 C527 1.363 . S
C528 C534 1.428 . S
H529 C525 0.930 . S
H530 C527 0.929 . S
S531 N532 1.613 . S
S531 N533 1.610 . S
N532 S531 1.613 . S
N532 C535 1.350 . S
N533 S531 1.610 . S
N533 C534 1.351 . S
C534 C528 1.428 . S
C534 N533 1.351 . S
C534 C535 1.434 . S
C535 C526 1.429 1_545 S
C535 N532 1.350 . S
C535 C534 1.434 . S
C536 C537 1.369 . S
C536 C538 1.419 . S
C536 H540 0.930 . S
C537 C536 1.369 . S
C537 C546 1.429 . S
C538 C536 1.419 . S
C538 C539 1.363 1_655 S
C538 H541 0.929 1_655 S
C539 C538 1.363 1_455 S
C539 C545 1.428 1_455 S
H540 C536 0.930 . S
H541 C538 0.929 1_455 S
S542 N543 1.613 . S
S542 N544 1.610 1_655 S
N543 S542 1.613 . S
N543 C546 1.350 . S
N544 S542 1.610 1_455 S
N544 C545 1.351 1_455 S
C545 C539 1.428 1_655 S
C545 N544 1.351 1_655 S
C545 C546 1.434 . S
C546 C537 1.429 . S
C546 N543 1.350 . S
C546 C545 1.434 . S
C547 C548 1.369 . S
C547 C549 1.419 . S
C547 H551 0.930 . S
C548 C547 1.369 . S
C548 C557 1.429 . S
C549 C547 1.419 . S
C549 C550 1.363 . S
C549 H552 0.929 . S
C550 C549 1.363 . S
C550 C556 1.428 . S
H551 C547 0.930 . S
H552 C549 0.929 . S
S553 N554 1.613 . S
S553 N555 1.610 . S
N554 S553 1.613 . S
N554 C557 1.350 . S
N555 S553 1.610 . S
N555 C556 1.351 . S
C556 C550 1.428 . S
C556 N555 1.351 . S
C556 C557 1.434 . S
C557 C548 1.429 . S
C557 N554 1.350 . S
C557 C556 1.434 . S
C558 C559 1.369 . S
C558 C560 1.419 . S
C558 H562 0.930 . S
C559 C558 1.369 . S
C559 C568 1.429 . S
C560 C558 1.419 . S
C560 C561 1.363 . S
C560 H563 0.929 . S
C561 C560 1.363 . S
C561 C567 1.428 . S
H562 C558 0.930 . S
H563 C560 0.929 . S
S564 N565 1.613 . S
S564 N566 1.610 . S
N565 S564 1.613 . S
N565 C568 1.350 . S
N566 S564 1.610 . S
N566 C567 1.351 . S
C567 C561 1.428 . S
C567 N566 1.351 . S
C567 C568 1.434 . S
C568 C559 1.429 . S
C568 N565 1.350 . S
C568 C567 1.434 . S
C569 C570 1.369 . S
C569 C571 1.419 . S
C569 H573 0.930 . S
C570 C569 1.369 . S
C570 C579 1.429 . S
C571 C569 1.419 . S
C571 C572 1.363 . S
C571 H574 0.929 . S
C572 C571 1.363 . S
C572 C578 1.428 . S
H573 C569 0.930 . S
H574 C571 0.929 . S
S575 N576 1.613 . S
S575 N577 1.610 . S
N576 S575 1.613 . S
N576 C579 1.350 . S
N577 S575 1.610 . S
N577 C578 1.351 . S
C578 C572 1.428 . S
C578 N577 1.351 . S
C578 C579 1.434 . S
C579 C570 1.429 . S
C579 N576 1.350 . S
C579 C578 1.434 . S
C580 C581 1.369 . S
C580 C582 1.419 . S
C580 H584 0.930 . S
C581 C580 1.369 . S
C581 C590 1.429 . S
C582 C580 1.419 . S
C582 C583 1.363 . S
C582 H585 0.929 . S
C583 C582 1.363 . S
C583 C589 1.428 . S
H584 C580 0.930 . S
H585 C582 0.929 . S
S586 N587 1.613 . S
S586 N588 1.610 1_545 S
N587 S586 1.613 . S
N587 C590 1.350 1_545 S
N588 S586 1.610 1_565 S
N588 C589 1.351 . S
C589 C583 1.428 . S
C589 N588 1.351 . S
C589 C590 1.434 . S
C590 C581 1.429 . S
C590 N587 1.350 1_565 S
C590 C589 1.434 . S
C591 C592 1.369 . S
C591 C593 1.419 . S
C591 H595 0.930 . S
C592 C591 1.369 . S
C592 C601 1.429 . S
C593 C591 1.419 . S
C593 C594 1.363 . S
C593 H596 0.929 . S
C594 C593 1.363 . S
C594 C600 1.428 . S
H595 C591 0.930 . S
H596 C593 0.929 . S
S597 N598 1.613 . S
S597 N599 1.610 1_565 S
N598 S597 1.613 . S
N598 C601 1.350 1_565 S
N599 S597 1.610 1_545 S
N599 C600 1.351 . S
C600 C594 1.428 . S
C600 N599 1.351 . S
C600 C601 1.434 . S
C601 C592 1.429 . S
C601 N598 1.350 1_545 S
C601 C600 1.434 . S
C602 C603 1.369 . S
C602 C604 1.419 . S
C602 H606 0.930 . S
C603 C602 1.369 . S
C603 C612 1.429 . S
C604 C602 1.419 . S
C604 C605 1.363 . S
C604 H607 0.929 . S
C605 C604 1.363 . S
C605 C611 1.428 . S
H606 C602 0.930 . S
H607 C604 0.929 . S
S608 N609 1.613 . S
S608 N610 1.610 1_455 S
N609 S608 1.613 . S
N609 C612 1.350 1_455 S
N610 S608 1.610 1_655 S
N610 C611 1.351 . S
C611 C605 1.428 . S
C611 N610 1.351 . S
C611 C612 1.434 . S
C612 C603 1.429 . S
C612 N609 1.350 1_655 S
C612 C611 1.434 . S
C613 C614 1.369 . S
C613 C615 1.419 . S
C613 H617 0.930 . S
C614 C613 1.369 . S
C614 C623 1.429 . S
C615 C613 1.419 . S
C615 C616 1.363 . S
C615 H618 0.929 . S
C616 C615 1.363 . S
C616 C622 1.428 . S
H617 C613 0.930 . S
H618 C615 0.929 . S
S619 N620 1.613 . S
S619 N621 1.610 . S
N620 S619 1.613 . S
N620 C623 1.350 . S
N621 S619 1.610 . S
N621 C622 1.351 . S
C622 C616 1.428 . S
C622 N621 1.351 . S
C622 C623 1.434 . S
C623 C614 1.429 . S
C623 N620 1.350 . S
C623 C622 1.434 . S
C624 C625 1.369 . S
C624 C626 1.419 . S
C624 H628 0.930 . S
C625 C624 1.369 . S
C625 C634 1.429 . S
C626 C624 1.419 . S
C626 C627 1.363 . S
C626 H629 0.929 . S
C627 C626 1.363 . S
C627 C633 1.428 . S
H628 C624 0.930 . S
H629 C626 0.929 . S
S630 N631 1.613 . S
S630 N632 1.610 . S
N631 S630 1.613 . S
N631 C634 1.350 . S
N632 S630 1.610 . S
N632 C633 1.351 . S
C633 C627 1.428 . S
C633 N632 1.351 . S
C633 C634 1.434 . S
C634 C625 1.429 . S
C634 N631 1.350 . S
C634 C633 1.434 . S
C635 C636 1.369 . S
C635 C637 1.419 1_565 S
C635 H639 0.930 . S
C636 C635 1.369 . S
C636 C645 1.429 . S
C637 C635 1.419 1_545 S
C637 C638 1.363 . S
C637 H640 0.929 . S
C638 C637 1.363 . S
C638 C644 1.428 . S
H639 C635 0.930 . S
H640 C637 0.929 . S
S641 N642 1.613 . S
S641 N643 1.610 1_565 S
N642 S641 1.613 . S
N642 C645 1.350 . S
N643 S641 1.610 1_545 S
N643 C644 1.351 . S
C644 C638 1.428 . S
C644 N643 1.351 . S
C644 C645 1.434 1_545 S
C645 C636 1.429 . S
C645 N642 1.350 . S
C645 C644 1.434 1_565 S
C646 C647 1.369 . S
C646 C648 1.419 1_655 S
C646 H650 0.930 . S
C647 C646 1.369 . S
C647 C656 1.429 1_655 S
C648 C646 1.419 1_455 S
C648 C649 1.363 . S
C648 H651 0.929 . S
C649 C648 1.363 . S
C649 C655 1.428 . S
H650 C646 0.930 . S
H651 C648 0.929 . S
S652 N653 1.613 . S
S652 N654 1.610 . S
N653 S652 1.613 . S
N653 C656 1.350 . S
N654 S652 1.610 . S
N654 C655 1.351 . S
C655 C649 1.428 . S
C655 N654 1.351 . S
C655 C656 1.434 . S
C656 C647 1.429 1_455 S
C656 N653 1.350 . S
C656 C655 1.434 . S
C361 C47 1.692 . S
C363 C2 1.776 . S
C372 C87 1.702 . S
C374 C42 1.771 . S
C383 C82 1.776 . S
C385 C7 1.695 . S
C394 C96 1.576 . S
C396 C51 1.515 . S
C405 C91 1.509 . S
C407 C16 1.581 . S
C416 C11 1.504 . S
C418 C56 1.583 . S
C427 C122 1.771 . S
C429 C167 1.700 . S
C438 C207 1.695 . S
C440 C162 1.775 1_545 S
C449 C202 1.773 . S
C451 C127 1.698 . S
C460 C171 1.515 . S
C462 C216 1.578 . S
C471 C211 1.507 . S
C473 C136 1.582 . S
C482 C176 1.581 . S
C484 C131 1.510 . S
C493 C287 1.697 . S
C495 C242 1.773 . S
C504 C282 1.773 . S
C506 C327 1.698 . S
C515 C322 1.769 . S
C517 C247 1.702 . S
C526 C336 1.582 . S
C528 C291 1.508 . S
C537 C331 1.513 . S
C539 C256 1.579 . S
C548 C251 1.513 . S
C550 C296 1.579 . S
C559 C210 2.702 . S
C561 C19 2.345 . S
C570 C130 2.702 . S
C572 C59 2.343 . S
C581 C99 2.346 . S
C583 C170 2.699 . S
C592 C90 2.700 . S
C594 C259 2.343 . S
C603 C10 2.702 . S
C605 C299 2.342 . S
C614 C339 2.342 . S
C616 C50 2.700 . S
C625 C139 2.340 . S
C627 C330 2.701 . S
C636 C179 2.349 . S
C638 C250 2.698 . S
C647 C290 2.698 . S
C649 C219 2.349 . S
