# Generated by pormake.
# Topology wjh, (4)-cn, num edge types: 1
# Building blocks:
#     Node 0, Type 0, BuildingBlock: GALJAG_clean_sbu_0, # of connection points: 4
#     Node 1, Type 0, BuildingBlock: GALJAG_clean_sbu_0, # of connection points: 4
#     Node 2, Type 0, BuildingBlock: GALJAG_clean_sbu_0, # of connection points: 4
#     Node 3, Type 0, BuildingBlock: GALJAG_clean_sbu_0, # of connection points: 4
#     Node 4, Type 0, BuildingBlock: GALJAG_clean_sbu_0, # of connection points: 4
#     Node 5, Type 0, BuildingBlock: GALJAG_clean_sbu_0, # of connection points: 4
#     Node 6, Type 0, BuildingBlock: GALJAG_clean_sbu_0, # of connection points: 4
#     Node 7, Type 0, BuildingBlock: GALJAG_clean_sbu_0, # of connection points: 4
#     Node 8, Type 0, BuildingBlock: GALJAG_clean_sbu_0, # of connection points: 4
#     Node 9, Type 0, BuildingBlock: GALJAG_clean_sbu_0, # of connection points: 4
#     Node 10, Type 0, BuildingBlock: GALJAG_clean_sbu_0, # of connection points: 4
#     Node 11, Type 0, BuildingBlock: GALJAG_clean_sbu_0, # of connection points: 4
#     Edge 12, Type (0, 0), BuildingBlock: CIFDUS_clean_linker_0, # of connection points: 2
#     Edge 13, Type (0, 0), BuildingBlock: CIFDUS_clean_linker_0, # of connection points: 2
#     Edge 14, Type (0, 0), BuildingBlock: CIFDUS_clean_linker_0, # of connection points: 2
#     Edge 15, Type (0, 0), BuildingBlock: CIFDUS_clean_linker_0, # of connection points: 2
#     Edge 16, Type (0, 0), BuildingBlock: CIFDUS_clean_linker_0, # of connection points: 2
#     Edge 17, Type (0, 0), BuildingBlock: CIFDUS_clean_linker_0, # of connection points: 2
#     Edge 18, Type (0, 0), BuildingBlock: CIFDUS_clean_linker_0, # of connection points: 2
#     Edge 19, Type (0, 0), BuildingBlock: CIFDUS_clean_linker_0, # of connection points: 2
#     Edge 20, Type (0, 0), BuildingBlock: CIFDUS_clean_linker_0, # of connection points: 2
#     Edge 21, Type (0, 0), BuildingBlock: CIFDUS_clean_linker_0, # of connection points: 2
#     Edge 22, Type (0, 0), BuildingBlock: CIFDUS_clean_linker_0, # of connection points: 2
#     Edge 23, Type (0, 0), BuildingBlock: CIFDUS_clean_linker_0, # of connection points: 2
#     Edge 24, Type (0, 0), BuildingBlock: CIFDUS_clean_linker_0, # of connection points: 2
#     Edge 25, Type (0, 0), BuildingBlock: CIFDUS_clean_linker_0, # of connection points: 2
#     Edge 26, Type (0, 0), BuildingBlock: CIFDUS_clean_linker_0, # of connection points: 2
#     Edge 27, Type (0, 0), BuildingBlock: CIFDUS_clean_linker_0, # of connection points: 2
#     Edge 28, Type (0, 0), BuildingBlock: CIFDUS_clean_linker_0, # of connection points: 2
#     Edge 29, Type (0, 0), BuildingBlock: CIFDUS_clean_linker_0, # of connection points: 2
#     Edge 30, Type (0, 0), BuildingBlock: CIFDUS_clean_linker_0, # of connection points: 2
#     Edge 31, Type (0, 0), BuildingBlock: CIFDUS_clean_linker_0, # of connection points: 2
#     Edge 32, Type (0, 0), BuildingBlock: CIFDUS_clean_linker_0, # of connection points: 2
#     Edge 33, Type (0, 0), BuildingBlock: CIFDUS_clean_linker_0, # of connection points: 2
#     Edge 34, Type (0, 0), BuildingBlock: CIFDUS_clean_linker_0, # of connection points: 2
#     Edge 35, Type (0, 0), BuildingBlock: CIFDUS_clean_linker_0, # of connection points: 2
# Relax obj value: 0.053
# Max RMSD: 0.092
# Mean RMSD: 0.092
data_MOF--net-wjh--node1-GALJAG_clean_sbu_0--edge1-CIFDUS_clean_linker_0
_symmetry_space_group_name_H-M    P1
_symmetry_Int_Tables_number       1
_symmetry_cell_setting            triclinic
loop_
_symmetry_equiv_pos_as_xyz
'x, y, z'
_cell_length_a     52.70839
_cell_length_b     52.979816
_cell_length_c     24.370711
_cell_angle_alpha  90.111618
_cell_angle_beta   89.822626
_cell_angle_gamma 120.08404
loop_
_atom_site_label
_atom_site_type_symbol
_atom_site_fract_x
_atom_site_fract_y
_atom_site_fract_z
_atom_type_partial_charge
In0 In 0.5124 0.13589 0.04892 0.0
O1 O 0.55373 0.14786 0.99946 0.0
O2 O 0.51766 0.14617 0.95714 0.0
C3 C 0.52702 0.13155 0.15284 0.0
C4 C 0.47482 0.07894 0.03106 0.0
C5 C 0.50684 0.18252 0.07028 0.0
O6 O 0.54497 0.1381 0.11346 0.0
O7 O 0.50187 0.12663 0.13934 0.0
O8 O 0.48519 0.1587 0.05419 0.0
O9 O 0.53095 0.1829 0.0719 0.0
C10 C 0.54342 0.15029 0.9543 0.0
O11 O 0.46577 0.09694 0.03537 0.0
O12 O 0.50218 0.08993 0.03508 0.0
In13 In 0.36327 0.50504 0.22462 0.0
O14 O 0.38374 0.54249 0.16182 0.0
O15 O 0.35709 0.49908 0.13227 0.0
C16 C 0.37643 0.52789 0.32685 0.0
C17 C 0.39693 0.48027 0.22184 0.0
C18 C 0.30563 0.4839 0.23803 0.0
O19 O 0.38635 0.54403 0.28473 0.0
O20 O 0.36051 0.50111 0.31675 0.0
O21 O 0.3172 0.4682 0.24474 0.0
O22 O 0.32283 0.50964 0.22185 0.0
C23 C 0.3731 0.52579 0.1206 0.0
O24 O 0.36929 0.46509 0.21856 0.0
O25 O 0.40702 0.50737 0.22605 0.0
In26 In 0.84473 0.37741 0.38037 0.0
O27 O 0.83676 0.40338 0.3151 0.0
O28 O 0.84671 0.37094 0.28845 0.0
C29 C 0.83333 0.39591 0.47493 0.0
C30 C 0.9034 0.4037 0.38916 0.0
C31 C 0.79921 0.32302 0.3908 0.0
O32 O 0.83127 0.40583 0.42897 0.0
O33 O 0.841 0.37688 0.47265 0.0
O34 O 0.82511 0.32896 0.4019 0.0
O35 O 0.79699 0.34405 0.37227 0.0
C36 C 0.84098 0.39061 0.27521 0.0
O37 O 0.88806 0.37639 0.38173 0.0
O38 O 0.88905 0.41682 0.39157 0.0
In39 In 0.48076 0.85249 0.53525 0.0
O40 O 0.44612 0.84507 0.47127 0.0
O41 O 0.48583 0.84827 0.44311 0.0
C42 C 0.45224 0.8466 0.63009 0.0
C43 C 0.51817 0.91032 0.54074 0.0
C44 C 0.48728 0.80666 0.55859 0.0
O45 O 0.43989 0.84338 0.58406 0.0
O46 O 0.47877 0.85315 0.62776 0.0
O47 O 0.50922 0.83208 0.55391 0.0
O48 O 0.46289 0.80446 0.54753 0.0
C49 C 0.4611 0.84499 0.43082 0.0
O50 O 0.52736 0.89267 0.53267 0.0
O51 O 0.49073 0.89871 0.54434 0.0
In52 In 0.61976 0.48146 0.71449 0.0
O53 O 0.59576 0.43973 0.66432 0.0
O54 O 0.62502 0.47891 0.62203 0.0
C55 C 0.60284 0.46453 0.81834 0.0
C56 C 0.5894 0.5093 0.70181 0.0
C57 C 0.67527 0.49558 0.73411 0.0
O58 O 0.59422 0.44649 0.77896 0.0
O59 O 0.61932 0.49085 0.80487 0.0
O60 O 0.66942 0.51447 0.71574 0.0
O61 O 0.65366 0.4701 0.73852 0.0
C62 C 0.60664 0.45193 0.61891 0.0
O63 O 0.61712 0.52341 0.70553 0.0
O64 O 0.5779 0.48196 0.70367 0.0
In65 In 0.14007 0.61375 0.86856 0.0
O66 O 0.14759 0.5812 0.81918 0.0
O67 O 0.153 0.61874 0.77759 0.0
C68 C 0.1341 0.59236 0.97142 0.0
C69 C 0.08356 0.59703 0.85013 0.0
C70 C 0.18433 0.66756 0.8924 0.0
O71 O 0.15172 0.59149 0.93718 0.0
O72 O 0.11926 0.60316 0.95333 0.0
O73 O 0.16109 0.66381 0.86993 0.0
O74 O 0.18546 0.6446 0.8996 0.0
C75 C 0.15308 0.59499 0.77444 0.0
O76 O 0.10258 0.62357 0.85781 0.0
O77 O 0.09341 0.57968 0.85047 0.0
In78 In 0.85074 0.47674 0.87617 0.0
O79 O 0.8956 0.51928 0.87157 0.0
O80 O 0.89351 0.47833 0.86212 0.0
C81 C 0.80824 0.49043 0.87 0.0
C82 C 0.84666 0.45959 0.98132 0.0
C83 C 0.83581 0.44578 0.78256 0.0
O84 O 0.83426 0.50834 0.85524 0.0
O85 O 0.80446 0.46674 0.88949 0.0
O86 O 0.83435 0.43408 0.82858 0.0
O87 O 0.84443 0.47267 0.78436 0.0
C88 C 0.90932 0.50569 0.863 0.0
O89 O 0.84016 0.44209 0.94148 0.0
O90 O 0.85513 0.4857 0.96803 0.0
In91 In 0.37894 0.84833 0.03386 0.0
O92 O 0.37625 0.89056 0.03259 0.0
O93 O 0.41768 0.89303 0.02404 0.0
C94 C 0.32492 0.80191 0.02403 0.0
C95 C 0.39257 0.84439 0.13872 0.0
C96 C 0.39903 0.8399 0.93818 0.0
O97 O 0.3299 0.82747 0.01412 0.0
O98 O 0.34676 0.80038 0.04068 0.0
O99 O 0.40914 0.83766 0.98383 0.0
O100 O 0.37874 0.84592 0.94133 0.0
C101 C 0.40368 0.90653 0.02564 0.0
O102 O 0.4047 0.83947 0.09848 0.0
O103 O 0.37342 0.85104 0.12592 0.0
In104 In 0.52587 0.37812 0.21724 0.0
O105 O 0.47875 0.36852 0.23348 0.0
O106 O 0.51221 0.412 0.21591 0.0
C107 C 0.52217 0.32601 0.20645 0.0
C108 C 0.55511 0.39882 0.31238 0.0
C109 C 0.543 0.39453 0.11296 0.0
O110 O 0.49954 0.32855 0.20711 0.0
O111 O 0.54607 0.3494 0.2141 0.0
O112 O 0.55907 0.40841 0.15325 0.0
O113 O 0.51862 0.37278 0.12556 0.0
C114 C 0.48555 0.39484 0.2265 0.0
O115 O 0.56596 0.41021 0.26642 0.0
O116 O 0.52967 0.37672 0.31021 0.0
In117 In 0.13525 0.51426 0.36923 0.0
O118 O 0.09512 0.46807 0.37808 0.0
O119 O 0.08894 0.50462 0.38381 0.0
C120 C 0.16529 0.48883 0.33164 0.0
C121 C 0.15243 0.54368 0.46597 0.0
C122 C 0.1441 0.54753 0.2793 0.0
O123 O 0.144 0.48786 0.30649 0.0
O124 O 0.17053 0.50115 0.37799 0.0
O125 O 0.16504 0.54957 0.30774 0.0
O126 O 0.11897 0.53029 0.29842 0.0
C127 C 0.07735 0.47726 0.3844 0.0
O128 O 0.15348 0.55593 0.42095 0.0
O129 O 0.14383 0.51683 0.4619 0.0
In130 In 0.61271 0.13933 0.55189 0.0
O131 O 0.58563 0.15404 0.60159 0.0
O132 O 0.61788 0.14865 0.64386 0.0
C133 C 0.59342 0.1347 0.44822 0.0
C134 C 0.58943 0.08189 0.56952 0.0
C135 C 0.66655 0.18398 0.5304 0.0
O136 O 0.58309 0.1427 0.48717 0.0
O137 O 0.61285 0.12871 0.46202 0.0
O138 O 0.66292 0.16027 0.55012 0.0
O139 O 0.64345 0.18534 0.5253 0.0
C140 C 0.59753 0.15465 0.64693 0.0
O141 O 0.61675 0.09828 0.56239 0.0
O142 O 0.57472 0.09468 0.56844 0.0
In143 In 0.46172 0.61235 0.72456 0.0
O144 O 0.50904 0.62162 0.73248 0.0
O145 O 0.47464 0.5779 0.71962 0.0
C146 C 0.4657 0.66422 0.7092 0.0
C147 C 0.43953 0.59729 0.82764 0.0
C148 C 0.44181 0.5954 0.6213 0.0
O149 O 0.48826 0.66159 0.71181 0.0
O150 O 0.44165 0.64105 0.71779 0.0
O151 O 0.42574 0.58288 0.66275 0.0
O152 O 0.46736 0.61555 0.63258 0.0
C153 C 0.50178 0.59517 0.72547 0.0
O154 O 0.42576 0.58244 0.78598 0.0
O155 O 0.46396 0.61956 0.81692 0.0
H156 H 0.57525 0.13149 0.19197 0.0
H157 H 0.49645 0.13064 0.24352 0.0
H158 H 0.51002 0.13184 0.33956 0.0
H159 H 0.5447 0.13387 0.40922 0.0
H160 H 0.62237 0.13249 0.35768 0.0
H161 H 0.60886 0.13142 0.26164 0.0
C162 C 0.56106 0.1315 0.22429 0.0
C163 C 0.53498 0.13107 0.21071 0.0
C164 C 0.56881 0.13184 0.27951 0.0
C165 C 0.51665 0.13089 0.25295 0.0
C166 C 0.52441 0.13166 0.3079 0.0
C167 C 0.55861 0.13331 0.3769 0.0
C168 C 0.5845 0.13336 0.39044 0.0
C169 C 0.5505 0.13227 0.3217 0.0
C170 C 0.60225 0.13239 0.34825 0.0
C171 C 0.59459 0.13184 0.2933 0.0
H172 H 0.42272 0.57872 0.36466 0.0
H173 H 0.3452 0.50033 0.41777 0.0
H174 H 0.35753 0.51465 0.51351 0.0
H175 H 0.39173 0.54824 0.58291 0.0
H176 H 0.47044 0.62554 0.52983 0.0
H177 H 0.45635 0.61295 0.43415 0.0
C178 C 0.4084 0.56502 0.39724 0.0
C179 C 0.38314 0.53854 0.38413 0.0
C180 C 0.41597 0.57306 0.45252 0.0
C181 C 0.3649 0.5208 0.4268 0.0
C182 C 0.37192 0.52894 0.48164 0.0
C183 C 0.40567 0.56237 0.55037 0.0
C184 C 0.43212 0.58769 0.5636 0.0
C185 C 0.39764 0.55481 0.49511 0.0
C186 C 0.45001 0.60578 0.52088 0.0
C187 C 0.44196 0.59865 0.46602 0.0
H188 H 0.83023 0.46469 0.68284 0.0
H189 H 0.82917 0.39193 0.76433 0.0
H190 H 0.82619 0.36899 0.67553 0.0
H191 H 0.8281 0.37176 0.57494 0.0
H192 H 0.8291 0.4445 0.49346 0.0
H193 H 0.82765 0.46529 0.58235 0.0
C194 C 0.82904 0.44366 0.68117 0.0
C195 C 0.83024 0.43013 0.72991 0.0
C196 C 0.82749 0.43074 0.63011 0.0
C197 C 0.82835 0.40277 0.7273 0.0
C198 C 0.82677 0.38973 0.67658 0.0
C199 C 0.82773 0.39204 0.57665 0.0
C200 C 0.82905 0.4068 0.52786 0.0
C201 C 0.82699 0.40385 0.62775 0.0
C202 C 0.82819 0.43282 0.53053 0.0
C203 C 0.82746 0.44474 0.58129 0.0
H204 H 0.47117 0.84186 0.73036 0.0
H205 H 0.39947 0.84323 0.64824 0.0
H206 H 0.37589 0.83977 0.73679 0.0
H207 H 0.37693 0.83864 0.83747 0.0
H208 H 0.44838 0.83665 0.91938 0.0
H209 H 0.47074 0.83778 0.83066 0.0
C210 C 0.45035 0.84135 0.73185 0.0
C211 C 0.43718 0.84311 0.683 0.0
C212 C 0.43692 0.83921 0.78272 0.0
C213 C 0.41004 0.84202 0.68538 0.0
C214 C 0.39659 0.84007 0.73594 0.0
C215 C 0.3973 0.83825 0.83588 0.0
C216 C 0.41113 0.83776 0.88484 0.0
C217 C 0.41001 0.83897 0.78485 0.0
C218 C 0.43736 0.83703 0.88223 0.0
C219 C 0.45019 0.83779 0.83156 0.0
H220 H 0.5864 0.44648 0.07446 0.0
H221 H 0.51829 0.36137 0.02234 0.0
H222 H 0.53107 0.37522 0.92641 0.0
H223 H 0.56113 0.41179 0.85712 0.0
H224 H 0.62777 0.49763 0.90908 0.0
H225 H 0.61603 0.48329 0.00507 0.0
C226 C 0.5745 0.43097 0.04203 0.0
C227 C 0.55153 0.40298 0.05532 0.0
C228 C 0.5816 0.43925 0.98692 0.0
C229 C 0.53605 0.38312 0.01303 0.0
C230 C 0.54333 0.39099 0.95818 0.0
C231 C 0.57306 0.42731 0.88951 0.0
C232 C 0.59522 0.45568 0.87612 0.0
C233 C 0.56597 0.41904 0.94462 0.0
C234 C 0.61047 0.47566 0.91841 0.0
C235 C 0.60384 0.46748 0.97331 0.0
H236 H 0.10327 0.5505 0.21684 0.0
H237 H 0.19395 0.57264 0.21697 0.0
H238 H 0.19873 0.58742 0.12068 0.0
H239 H 0.1764 0.59226 0.03508 0.0
H240 H 0.08634 0.57212 0.03711 0.0
H241 H 0.0819 0.55799 0.13357 0.0
C242 C 0.12418 0.5589 0.19598 0.0
C243 C 0.14821 0.56048 0.22398 0.0
C244 C 0.12673 0.56727 0.1407 0.0
C245 C 0.17517 0.57143 0.19644 0.0
C246 C 0.17785 0.57964 0.14123 0.0
C247 C 0.15579 0.58455 0.05669 0.0
C248 C 0.13159 0.5828 0.02901 0.0
C249 C 0.15364 0.57723 0.11268 0.0
C250 C 0.10519 0.57344 0.0576 0.0
C251 C 0.10266 0.56546 0.11275 0.0
H252 H 0.47802 0.27815 0.15609 0.0
H253 H 0.56578 0.31371 0.21961 0.0
H254 H 0.56868 0.27263 0.18184 0.0
H255 H 0.54754 0.22821 0.12754 0.0
H256 H 0.45983 0.19141 0.0635 0.0
H257 H 0.45574 0.23167 0.10413 0.0
C258 C 0.49754 0.27658 0.16239 0.0
C259 C 0.52165 0.29889 0.19061 0.0
C260 C 0.49927 0.25307 0.13964 0.0
C261 C 0.54695 0.29681 0.19803 0.0
C262 C 0.5487 0.27342 0.1762 0.0
C263 C 0.52754 0.22902 0.12208 0.0
C264 C 0.50416 0.20712 0.09195 0.0
C265 C 0.52525 0.25178 0.14612 0.0
C266 C 0.47824 0.20823 0.08611 0.0
C267 C 0.47586 0.23113 0.10955 0.0
H268 H 0.2637 0.48972 0.1859 0.0
H269 H 0.2827 0.4604 0.33679 0.0
H270 H 0.23913 0.45722 0.37983 0.0
H271 H 0.19916 0.46892 0.37726 0.0
H272 H 0.1781 0.49425 0.2236 0.0
H273 H 0.21855 0.49245 0.17858 0.0
C274 C 0.25772 0.48186 0.22768 0.0
C275 C 0.27616 0.47536 0.25835 0.0
C276 C 0.23247 0.47967 0.25175 0.0
C277 C 0.26847 0.46521 0.31242 0.0
C278 C 0.24377 0.46367 0.33715 0.0
C279 C 0.20313 0.4734 0.33371 0.0
C280 C 0.18598 0.48199 0.30387 0.0
C281 C 0.22612 0.47175 0.3077 0.0
C282 C 0.19103 0.48751 0.24735 0.0
C283 C 0.21426 0.48668 0.22161 0.0
H284 H 0.67357 0.22257 0.45282 0.0
H285 H 0.72251 0.19678 0.55716 0.0
H286 H 0.7687 0.23634 0.51927 0.0
H287 H 0.79482 0.28011 0.45949 0.0
H288 H 0.74415 0.30386 0.35481 0.0
H289 H 0.6989 0.26279 0.38906 0.0
C290 C 0.69435 0.22564 0.46752 0.0
C291 C 0.69476 0.20726 0.50847 0.0
C292 C 0.72045 0.24787 0.44501 0.0
C293 C 0.72176 0.21096 0.52605 0.0
C294 C 0.74809 0.23348 0.50429 0.0
C295 C 0.77387 0.27588 0.4435 0.0
C296 C 0.77281 0.29509 0.40489 0.0
C297 C 0.7477 0.25227 0.46401 0.0
C298 C 0.74554 0.28949 0.38469 0.0
C299 C 0.71963 0.2661 0.40444 0.0
H300 H 0.44312 0.75948 0.60634 0.0
H301 H 0.5354 0.79987 0.56931 0.0
H302 H 0.53754 0.76005 0.61648 0.0
H303 H 0.51248 0.71314 0.66683 0.0
H304 H 0.4204 0.67463 0.70534 0.0
H305 H 0.41905 0.71482 0.65994 0.0
C306 C 0.46369 0.75947 0.60807 0.0
C307 C 0.48896 0.78222 0.58359 0.0
C308 C 0.46485 0.73711 0.63626 0.0
C309 C 0.51559 0.78233 0.58735 0.0
C310 C 0.51682 0.75969 0.61454 0.0
C311 C 0.49227 0.71384 0.666 0.0
C312 C 0.46656 0.69092 0.68934 0.0
C313 C 0.49155 0.73696 0.63923 0.0
C314 C 0.44048 0.69199 0.6877 0.0
C315 C 0.43962 0.71486 0.66145 0.0
H316 H 0.68381 0.47147 0.82234 0.0
H317 H 0.73066 0.53578 0.69728 0.0
H318 H 0.77749 0.54287 0.73299 0.0
H319 H 0.80411 0.52661 0.79492 0.0
H320 H 0.75536 0.46216 0.91928 0.0
H321 H 0.71019 0.45973 0.88946 0.0
C322 C 0.70432 0.48715 0.80297 0.0
C323 C 0.70397 0.50261 0.75663 0.0
C324 C 0.73072 0.49114 0.82388 0.0
C325 C 0.73056 0.52344 0.73274 0.0
C326 C 0.75722 0.52743 0.75315 0.0
C327 C 0.78369 0.51263 0.81622 0.0
C328 C 0.78296 0.49438 0.85892 0.0
C329 C 0.7575 0.5109 0.79809 0.0
C330 C 0.75639 0.47623 0.88608 0.0
C331 C 0.73053 0.4747 0.86891 0.0
H332 H 0.22435 0.67572 0.96834 0.0
H333 H 0.19594 0.72274 0.86491 0.0
H334 H 0.23575 0.76924 0.9005 0.0
H335 H 0.2805 0.79622 0.95776 0.0
H336 H 0.3073 0.74756 0.06078 0.0
H337 H 0.26582 0.70192 0.02933 0.0
C338 C 0.22686 0.69614 0.95339 0.0
C339 C 0.20764 0.6959 0.91339 0.0
C340 C 0.24935 0.72245 0.97438 0.0
C341 C 0.21073 0.72246 0.89536 0.0
C342 C 0.23341 0.74898 0.91578 0.0
C343 C 0.27686 0.77561 0.97399 0.0
C344 C 0.297 0.77522 0.01133 0.0
C345 C 0.25306 0.74923 0.95499 0.0
C346 C 0.29219 0.74841 0.03183 0.0
C347 C 0.26856 0.72229 0.0137 0.0
H348 H 0.61956 0.15683 0.74877 0.0
H349 H 0.55018 0.16153 0.66448 0.0
H350 H 0.52821 0.16243 0.75237 0.0
H351 H 0.52663 0.15809 0.85309 0.0
H352 H 0.596 0.15329 0.9372 0.0
H353 H 0.62007 0.1564 0.84965 0.0
C354 C 0.59983 0.15841 0.74963 0.0
C355 C 0.58644 0.15892 0.70009 0.0
C356 C 0.58717 0.1587 0.80035 0.0
C357 C 0.56093 0.16107 0.70197 0.0
C358 C 0.54827 0.16148 0.75225 0.0
C359 C 0.54717 0.15803 0.85228 0.0
C360 C 0.55936 0.15524 0.90161 0.0
C361 C 0.56087 0.15971 0.80169 0.0
C362 C 0.58608 0.15534 0.89986 0.0
C363 C 0.59984 0.15704 0.84976 0.0
H364 H 0.39274 0.54634 0.86432 0.0
H365 H 0.46245 0.62975 0.92008 0.0
H366 H 0.4471 0.61592 0.01513 0.0
H367 H 0.41527 0.57924 0.08331 0.0
H368 H 0.34675 0.49512 0.02786 0.0
H369 H 0.36004 0.51011 0.93247 0.0
C370 C 0.40441 0.56155 0.89726 0.0
C371 C 0.42875 0.58903 0.88494 0.0
C372 C 0.39571 0.55329 0.95218 0.0
C373 C 0.4437 0.60842 0.92826 0.0
C374 C 0.43494 0.60053 0.98276 0.0
C375 C 0.40307 0.56431 0.05033 0.0
C376 C 0.38004 0.5361 0.06286 0.0
C377 C 0.41117 0.5729 0.99534 0.0
C378 C 0.36461 0.51695 0.01951 0.0
C379 C 0.37222 0.52549 0.96483 0.0
H380 H 0.84077 0.40873 0.01922 0.0
H381 H 0.8485 0.48991 0.07305 0.0
H382 H 0.84607 0.47517 0.16878 0.0
H383 H 0.84284 0.43965 0.2373 0.0
H384 H 0.83776 0.35962 0.18355 0.0
H385 H 0.83797 0.37338 0.08778 0.0
C386 C 0.8418 0.42312 0.05194 0.0
C387 C 0.84475 0.45033 0.03911 0.0
C388 C 0.8409 0.41471 0.1069 0.0
C389 C 0.84629 0.46887 0.08189 0.0
C390 C 0.84488 0.46044 0.13663 0.0
C391 C 0.8416 0.42516 0.20458 0.0
C392 C 0.84019 0.39863 0.21743 0.0
C393 C 0.84232 0.43348 0.14963 0.0
C394 C 0.83889 0.38019 0.17467 0.0
C395 C 0.83901 0.38804 0.11992 0.0
H396 H 0.41319 0.84634 0.39414 0.0
H397 H 0.48664 0.83832 0.33865 0.0
H398 H 0.47129 0.83626 0.24341 0.0
H399 H 0.43784 0.8383 0.17567 0.0
H400 H 0.36543 0.84808 0.2312 0.0
H401 H 0.37948 0.84784 0.32654 0.0
C402 C 0.42573 0.84396 0.36121 0.0
C403 C 0.451 0.84247 0.37344 0.0
C404 C 0.41701 0.84321 0.30652 0.0
C405 C 0.46712 0.83955 0.33032 0.0
C406 C 0.45836 0.83839 0.27584 0.0
C407 C 0.42506 0.84022 0.20867 0.0
C408 C 0.40064 0.84321 0.19637 0.0
C409 C 0.43348 0.84043 0.26342 0.0
C410 C 0.38436 0.84582 0.23956 0.0
C411 C 0.39237 0.84567 0.2941 0.0
H412 H 0.62743 0.47299 0.5168 0.0
H413 H 0.56239 0.39621 0.60199 0.0
H414 H 0.54146 0.37243 0.51449 0.0
H415 H 0.53955 0.37467 0.41393 0.0
H416 H 0.60484 0.45119 0.32853 0.0
H417 H 0.6278 0.47376 0.41581 0.0
C418 C 0.60889 0.45093 0.51617 0.0
C419 C 0.59638 0.43648 0.56585 0.0
C420 C 0.59686 0.43741 0.46566 0.0
C421 C 0.57242 0.40785 0.56436 0.0
C422 C 0.56035 0.39426 0.51432 0.0
C423 C 0.55893 0.3962 0.41443 0.0
C424 C 0.57033 0.41133 0.36489 0.0
C425 C 0.57205 0.40903 0.46476 0.0
C426 C 0.5956 0.4391 0.36612 0.0
C427 C 0.60871 0.45206 0.41603 0.0
H428 H 0.15044 0.52152 0.5678 0.0
H429 H 0.16632 0.59997 0.48469 0.0
H430 H 0.16985 0.6235 0.57289 0.0
H431 H 0.16484 0.62061 0.67355 0.0
H432 H 0.14872 0.54208 0.75666 0.0
H433 H 0.14911 0.51994 0.66885 0.0
C434 C 0.15503 0.54389 0.569 0.0
C435 C 0.15794 0.55888 0.51962 0.0
C436 C 0.15682 0.55726 0.61998 0.0
C437 C 0.16393 0.58788 0.52199 0.0
C438 C 0.16587 0.60135 0.57248 0.0
C439 C 0.16174 0.59877 0.6725 0.0
C440 C 0.15658 0.58298 0.72167 0.0
C441 C 0.1618 0.58607 0.62172 0.0
C442 C 0.15268 0.55473 0.71951 0.0
C443 C 0.15282 0.542 0.66923 0.0
H444 H 0.4915 0.04064 1.00273 0.0
H445 H 0.41497 0.04596 0.04613 0.0
H446 H 0.38513 0.99242 0.04586 0.0
H447 H 0.38206 0.94393 0.03928 0.0
H448 H 0.4603 0.94106 0.9974 0.0
H449 H 0.48813 0.99377 0.99121 0.0
C450 C 0.46822 0.03015 0.01179 0.0
C451 C 0.45548 0.04713 0.0249 0.0
C452 C 0.45155 -0.00027 0.01226 0.0
C453 C 0.42525 0.03326 0.0359 0.0
C454 C 0.40826 0.00268 0.03604 0.0
C455 C 0.40513 0.95493 0.02849 0.0
C456 C 0.41912 0.93856 0.01943 0.0
C457 C 0.42133 0.98565 0.02526 0.0
C458 C 0.44901 0.95307 0.0052 0.0
C459 C 0.46502 0.98327 1.0015 0.0
H460 H 0.4981 0.45045 0.21934 0.0
H461 H 0.42553 0.36276 0.23792 0.0
H462 H 0.39114 0.38128 0.23718 0.0
H463 H 0.38207 0.4229 0.23027 0.0
H464 H 0.45595 0.51012 0.21274 0.0
H465 H 0.48946 0.49118 0.21368 0.0
C466 C 0.47476 0.4353 0.22335 0.0
C467 C 0.46434 0.4053 0.2286 0.0
C468 C 0.45535 0.44604 0.22279 0.0
C469 C 0.43405 0.386 0.23394 0.0
C470 C 0.41442 0.39658 0.23334 0.0
C471 C 0.40549 0.43765 0.22649 0.0
C472 C 0.4165 0.46785 0.22134 0.0
C473 C 0.42485 0.42661 0.22754 0.0
C474 C 0.4469 0.48679 0.21682 0.0
C475 C 0.46612 0.47601 0.21737 0.0
H476 H 0.038 0.49384 0.40715 0.0
H477 H 0.04477 0.41769 0.37157 0.0
H478 H 0.99108 0.38736 0.37185 0.0
H479 H 0.942 0.38334 0.37764 0.0
H480 H 0.93732 0.46092 0.41233 0.0
H481 H 0.99033 0.48973 0.41689 0.0
C482 C 0.02779 0.47057 0.39975 0.0
C483 C 0.04527 0.45804 0.38904 0.0
C484 C -0.00279 0.45352 0.3995 0.0
C485 C 0.03171 0.42783 0.37992 0.0
C486 C 0.00105 0.41053 0.37988 0.0
C487 C 0.95267 0.4065 0.38648 0.0
C488 C 0.93569 0.41995 0.39421 0.0
C489 C 0.98352 0.42323 0.38888 0.0
C490 C 0.94979 0.44998 0.40581 0.0
C491 C 0.98017 0.46656 0.40852 0.0
H492 H 0.50259 0.94745 0.58191 0.0
H493 H 0.57678 0.94431 0.51503 0.0
H494 H 0.60682 -0.00231 0.52231 0.0
H495 H 0.61052 0.04553 0.54247 0.0
H496 H 0.53496 0.04662 0.60853 0.0
H497 H 0.507 0.99365 0.6074 0.0
C498 C 0.52537 0.95838 0.56896 0.0
C499 C 0.53739 0.94211 0.54726 0.0
C500 C 0.54224 0.9887 0.5733 0.0
C501 C 0.56704 0.9565 0.53156 0.0
C502 C 0.58415 0.98696 0.53571 0.0
C503 C 0.58811 0.03406 0.55737 0.0
C504 C 0.57474 0.04993 0.57519 0.0
C505 C 0.57184 0.00335 0.55586 0.0
C506 C 0.54565 0.0349 0.59422 0.0
C507 C 0.5296 0.0046 0.59351 0.0
H508 H 0.60466 0.56611 0.72277 0.0
H509 H 0.53227 0.48247 0.67418 0.0
H510 H 0.49923 0.5019 0.67702 0.0
H511 H 0.49011 0.54148 0.69673 0.0
H512 H 0.56114 0.62571 0.74543 0.0
H513 H 0.5955 0.60724 0.7393 0.0
C514 C 0.58173 0.55235 0.71221 0.0
C515 C 0.57092 0.52288 0.69849 0.0
C516 C 0.56256 0.56362 0.71449 0.0
C517 C 0.54114 0.50519 0.68514 0.0
C518 C 0.52216 0.51623 0.68684 0.0
C519 C 0.51311 0.55588 0.7061 0.0
C520 C 0.52304 0.58481 0.72198 0.0
C521 C 0.53253 0.54522 0.70221 0.0
C522 C 0.55296 0.60325 0.73339 0.0
C523 C 0.57258 0.59271 0.72979 0.0
H524 H 0.04137 0.54198 0.82943 0.0
H525 H 0.05439 0.62751 0.86424 0.0
H526 H 0.0011 0.60716 0.86923 0.0
H527 H 0.95071 0.56397 0.86947 0.0
H528 H 0.93976 0.47889 0.83664 0.0
H529 H 0.99229 0.50019 0.82539 0.0
C530 C 0.03262 0.5563 0.83763 0.0
C531 C 0.05175 0.58614 0.84672 0.0
C532 C 0.00226 0.54444 0.84135 0.0
C533 C 0.04004 0.6044 0.85703 0.0
C534 C 0.00961 0.59275 0.86018 0.0
C535 C 0.9599 0.55022 0.85959 0.0
C536 C 0.94133 0.51987 0.85437 0.0
C537 C 0.99047 0.56264 0.85339 0.0
C538 C 0.95351 0.50229 0.84134 0.0
C539 C 0.9836 0.51442 0.83476 0.0
loop_
_geom_bond_atom_site_label_1
_geom_bond_atom_site_label_2
_geom_bond_distance
_geom_bond_site_symmetry_2
_ccdc_geom_bond_type
In0 O1 2.294 1_554 S
In0 O2 2.326 1_554 S
In0 O6 2.266 . S
In0 O7 2.326 . S
In0 O8 2.266 . S
In0 O9 2.326 . S
In0 O11 2.294 . S
In0 O12 2.326 . S
O1 In0 2.294 1_556 S
O1 C10 1.240 . S
O2 In0 2.326 1_556 S
O2 C10 1.252 . S
C3 O6 1.252 . S
C3 O7 1.260 . S
C4 O11 1.240 . S
C4 O12 1.252 . S
C5 O8 1.252 . S
C5 O9 1.260 . S
O6 In0 2.266 . S
O6 C3 1.252 . S
O7 In0 2.326 . S
O7 C3 1.260 . S
O8 In0 2.266 . S
O8 C5 1.252 . S
O9 In0 2.326 . S
O9 C5 1.260 . S
C10 O1 1.240 . S
C10 O2 1.252 . S
O11 In0 2.294 . S
O11 C4 1.240 . S
O12 In0 2.326 . S
O12 C4 1.252 . S
In13 O14 2.294 . S
In13 O15 2.326 . S
In13 O19 2.266 . S
In13 O20 2.326 . S
In13 O21 2.266 . S
In13 O22 2.326 . S
In13 O24 2.294 . S
In13 O25 2.326 . S
O14 In13 2.294 . S
O14 C23 1.240 . S
O15 In13 2.326 . S
O15 C23 1.252 . S
C16 O19 1.252 . S
C16 O20 1.260 . S
C17 O24 1.240 . S
C17 O25 1.252 . S
C18 O21 1.252 . S
C18 O22 1.260 . S
O19 In13 2.266 . S
O19 C16 1.252 . S
O20 In13 2.326 . S
O20 C16 1.260 . S
O21 In13 2.266 . S
O21 C18 1.252 . S
O22 In13 2.326 . S
O22 C18 1.260 . S
C23 O14 1.240 . S
C23 O15 1.252 . S
O24 In13 2.294 . S
O24 C17 1.240 . S
O25 In13 2.326 . S
O25 C17 1.252 . S
In26 O27 2.294 . S
In26 O28 2.326 . S
In26 O32 2.266 . S
In26 O33 2.326 . S
In26 O34 2.266 . S
In26 O35 2.326 . S
In26 O37 2.294 . S
In26 O38 2.326 . S
O27 In26 2.294 . S
O27 C36 1.240 . S
O28 In26 2.326 . S
O28 C36 1.252 . S
C29 O32 1.252 . S
C29 O33 1.260 . S
C30 O37 1.240 . S
C30 O38 1.252 . S
C31 O34 1.252 . S
C31 O35 1.260 . S
O32 In26 2.266 . S
O32 C29 1.252 . S
O33 In26 2.326 . S
O33 C29 1.260 . S
O34 In26 2.266 . S
O34 C31 1.252 . S
O35 In26 2.326 . S
O35 C31 1.260 . S
C36 O27 1.240 . S
C36 O28 1.252 . S
O37 In26 2.294 . S
O37 C30 1.240 . S
O38 In26 2.326 . S
O38 C30 1.252 . S
In39 O40 2.294 . S
In39 O41 2.326 . S
In39 O45 2.266 . S
In39 O46 2.326 . S
In39 O47 2.266 . S
In39 O48 2.326 . S
In39 O50 2.294 . S
In39 O51 2.326 . S
O40 In39 2.294 . S
O40 C49 1.240 . S
O41 In39 2.326 . S
O41 C49 1.252 . S
C42 O45 1.252 . S
C42 O46 1.260 . S
C43 O50 1.240 . S
C43 O51 1.252 . S
C44 O47 1.252 . S
C44 O48 1.260 . S
O45 In39 2.266 . S
O45 C42 1.252 . S
O46 In39 2.326 . S
O46 C42 1.260 . S
O47 In39 2.266 . S
O47 C44 1.252 . S
O48 In39 2.326 . S
O48 C44 1.260 . S
C49 O40 1.240 . S
C49 O41 1.252 . S
O50 In39 2.294 . S
O50 C43 1.240 . S
O51 In39 2.326 . S
O51 C43 1.252 . S
In52 O53 2.294 . S
In52 O54 2.326 . S
In52 O58 2.266 . S
In52 O59 2.326 . S
In52 O60 2.266 . S
In52 O61 2.326 . S
In52 O63 2.294 . S
In52 O64 2.326 . S
O53 In52 2.294 . S
O53 C62 1.240 . S
O54 In52 2.326 . S
O54 C62 1.252 . S
C55 O58 1.252 . S
C55 O59 1.260 . S
C56 O63 1.240 . S
C56 O64 1.252 . S
C57 O60 1.252 . S
C57 O61 1.260 . S
O58 In52 2.266 . S
O58 C55 1.252 . S
O59 In52 2.326 . S
O59 C55 1.260 . S
O60 In52 2.266 . S
O60 C57 1.252 . S
O61 In52 2.326 . S
O61 C57 1.260 . S
C62 O53 1.240 . S
C62 O54 1.252 . S
O63 In52 2.294 . S
O63 C56 1.240 . S
O64 In52 2.326 . S
O64 C56 1.252 . S
In65 O66 2.294 . S
In65 O67 2.326 . S
In65 O71 2.266 . S
In65 O72 2.326 . S
In65 O73 2.266 . S
In65 O74 2.326 . S
In65 O76 2.294 . S
In65 O77 2.326 . S
O66 In65 2.294 . S
O66 C75 1.240 . S
O67 In65 2.326 . S
O67 C75 1.252 . S
C68 O71 1.252 . S
C68 O72 1.260 . S
C69 O76 1.240 . S
C69 O77 1.252 . S
C70 O73 1.252 . S
C70 O74 1.260 . S
O71 In65 2.266 . S
O71 C68 1.252 . S
O72 In65 2.326 . S
O72 C68 1.260 . S
O73 In65 2.266 . S
O73 C70 1.252 . S
O74 In65 2.326 . S
O74 C70 1.260 . S
C75 O66 1.240 . S
C75 O67 1.252 . S
O76 In65 2.294 . S
O76 C69 1.240 . S
O77 In65 2.326 . S
O77 C69 1.252 . S
In78 O79 2.294 . S
In78 O80 2.326 . S
In78 O84 2.266 . S
In78 O85 2.326 . S
In78 O86 2.266 . S
In78 O87 2.326 . S
In78 O89 2.294 . S
In78 O90 2.326 . S
O79 In78 2.294 . S
O79 C88 1.240 . S
O80 In78 2.326 . S
O80 C88 1.252 . S
C81 O84 1.252 . S
C81 O85 1.260 . S
C82 O89 1.240 . S
C82 O90 1.252 . S
C83 O86 1.252 . S
C83 O87 1.260 . S
O84 In78 2.266 . S
O84 C81 1.252 . S
O85 In78 2.326 . S
O85 C81 1.260 . S
O86 In78 2.266 . S
O86 C83 1.252 . S
O87 In78 2.326 . S
O87 C83 1.260 . S
C88 O79 1.240 . S
C88 O80 1.252 . S
O89 In78 2.294 . S
O89 C82 1.240 . S
O90 In78 2.326 . S
O90 C82 1.252 . S
In91 O92 2.294 . S
In91 O93 2.326 . S
In91 O97 2.266 . S
In91 O98 2.326 . S
In91 O99 2.266 1_554 S
In91 O100 2.326 1_554 S
In91 O102 2.294 . S
In91 O103 2.326 . S
O92 In91 2.294 . S
O92 C101 1.240 . S
O93 In91 2.326 . S
O93 C101 1.252 . S
C94 O97 1.252 . S
C94 O98 1.260 . S
C95 O102 1.240 . S
C95 O103 1.252 . S
C96 O99 1.252 . S
C96 O100 1.260 . S
O97 In91 2.266 . S
O97 C94 1.252 . S
O98 In91 2.326 . S
O98 C94 1.260 . S
O99 In91 2.266 1_556 S
O99 C96 1.252 . S
O100 In91 2.326 1_556 S
O100 C96 1.260 . S
C101 O92 1.240 . S
C101 O93 1.252 . S
O102 In91 2.294 . S
O102 C95 1.240 . S
O103 In91 2.326 . S
O103 C95 1.252 . S
In104 O105 2.294 . S
In104 O106 2.326 . S
In104 O110 2.266 . S
In104 O111 2.326 . S
In104 O112 2.266 . S
In104 O113 2.326 . S
In104 O115 2.294 . S
In104 O116 2.326 . S
O105 In104 2.294 . S
O105 C114 1.240 . S
O106 In104 2.326 . S
O106 C114 1.252 . S
C107 O110 1.252 . S
C107 O111 1.260 . S
C108 O115 1.240 . S
C108 O116 1.252 . S
C109 O112 1.252 . S
C109 O113 1.260 . S
O110 In104 2.266 . S
O110 C107 1.252 . S
O111 In104 2.326 . S
O111 C107 1.260 . S
O112 In104 2.266 . S
O112 C109 1.252 . S
O113 In104 2.326 . S
O113 C109 1.260 . S
C114 O105 1.240 . S
C114 O106 1.252 . S
O115 In104 2.294 . S
O115 C108 1.240 . S
O116 In104 2.326 . S
O116 C108 1.252 . S
In117 O118 2.294 . S
In117 O119 2.326 . S
In117 O123 2.266 . S
In117 O124 2.326 . S
In117 O125 2.266 . S
In117 O126 2.326 . S
In117 O128 2.294 . S
In117 O129 2.326 . S
O118 In117 2.294 . S
O118 C127 1.240 . S
O119 In117 2.326 . S
O119 C127 1.252 . S
C120 O123 1.252 . S
C120 O124 1.260 . S
C121 O128 1.240 . S
C121 O129 1.252 . S
C122 O125 1.252 . S
C122 O126 1.260 . S
O123 In117 2.266 . S
O123 C120 1.252 . S
O124 In117 2.326 . S
O124 C120 1.260 . S
O125 In117 2.266 . S
O125 C122 1.252 . S
O126 In117 2.326 . S
O126 C122 1.260 . S
C127 O118 1.240 . S
C127 O119 1.252 . S
O128 In117 2.294 . S
O128 C121 1.240 . S
O129 In117 2.326 . S
O129 C121 1.252 . S
In130 O131 2.294 . S
In130 O132 2.326 . S
In130 O136 2.266 . S
In130 O137 2.326 . S
In130 O138 2.266 . S
In130 O139 2.326 . S
In130 O141 2.294 . S
In130 O142 2.326 . S
O131 In130 2.294 . S
O131 C140 1.240 . S
O132 In130 2.326 . S
O132 C140 1.252 . S
C133 O136 1.252 . S
C133 O137 1.260 . S
C134 O141 1.240 . S
C134 O142 1.252 . S
C135 O138 1.252 . S
C135 O139 1.260 . S
O136 In130 2.266 . S
O136 C133 1.252 . S
O137 In130 2.326 . S
O137 C133 1.260 . S
O138 In130 2.266 . S
O138 C135 1.252 . S
O139 In130 2.326 . S
O139 C135 1.260 . S
C140 O131 1.240 . S
C140 O132 1.252 . S
O141 In130 2.294 . S
O141 C134 1.240 . S
O142 In130 2.326 . S
O142 C134 1.252 . S
In143 O144 2.294 . S
In143 O145 2.326 . S
In143 O149 2.266 . S
In143 O150 2.326 . S
In143 O151 2.266 . S
In143 O152 2.326 . S
In143 O154 2.294 . S
In143 O155 2.326 . S
O144 In143 2.294 . S
O144 C153 1.240 . S
O145 In143 2.326 . S
O145 C153 1.252 . S
C146 O149 1.252 . S
C146 O150 1.260 . S
C147 O154 1.240 . S
C147 O155 1.252 . S
C148 O151 1.252 . S
C148 O152 1.260 . S
O149 In143 2.266 . S
O149 C146 1.252 . S
O150 In143 2.326 . S
O150 C146 1.260 . S
O151 In143 2.266 . S
O151 C148 1.252 . S
O152 In143 2.326 . S
O152 C148 1.260 . S
C153 O144 1.240 . S
C153 O145 1.252 . S
O154 In143 2.294 . S
O154 C147 1.240 . S
O155 In143 2.326 . S
O155 C147 1.252 . S
H156 C162 0.930 . S
H157 C165 0.930 . S
H158 C166 0.930 . S
H159 C167 0.930 . S
H160 C170 0.930 . S
H161 C171 0.930 . S
C162 H156 0.930 . S
C162 C163 1.355 . S
C162 C164 1.415 . S
C163 C162 1.355 . S
C163 C165 1.419 . S
C164 C162 1.415 . S
C164 C169 1.425 . S
C164 C171 1.409 . S
C165 H157 0.930 . S
C165 C163 1.419 . S
C165 C166 1.362 . S
C166 H158 0.930 . S
C166 C165 1.362 . S
C166 C169 1.409 . S
C167 H159 0.930 . S
C167 C168 1.355 . S
C167 C169 1.415 . S
C168 C167 1.355 . S
C168 C170 1.419 . S
C169 C164 1.425 . S
C169 C166 1.409 . S
C169 C167 1.415 . S
C170 H160 0.930 . S
C170 C168 1.419 . S
C170 C171 1.362 . S
C171 H161 0.930 . S
C171 C164 1.409 . S
C171 C170 1.362 . S
H172 C178 0.930 . S
H173 C181 0.930 . S
H174 C182 0.930 . S
H175 C183 0.930 . S
H176 C186 0.930 . S
H177 C187 0.930 . S
C178 H172 0.930 . S
C178 C179 1.355 . S
C178 C180 1.415 . S
C179 C178 1.355 . S
C179 C181 1.419 . S
C180 C178 1.415 . S
C180 C185 1.425 . S
C180 C187 1.409 . S
C181 H173 0.930 . S
C181 C179 1.419 . S
C181 C182 1.362 . S
C182 H174 0.930 . S
C182 C181 1.362 . S
C182 C185 1.409 . S
C183 H175 0.930 . S
C183 C184 1.355 . S
C183 C185 1.415 . S
C184 C183 1.355 . S
C184 C186 1.419 . S
C185 C180 1.425 . S
C185 C182 1.409 . S
C185 C183 1.415 . S
C186 H176 0.930 . S
C186 C184 1.419 . S
C186 C187 1.362 . S
C187 H177 0.930 . S
C187 C180 1.409 . S
C187 C186 1.362 . S
H188 C194 0.930 . S
H189 C197 0.930 . S
H190 C198 0.930 . S
H191 C199 0.930 . S
H192 C202 0.930 . S
H193 C203 0.930 . S
C194 H188 0.930 . S
C194 C195 1.355 . S
C194 C196 1.415 . S
C195 C194 1.355 . S
C195 C197 1.419 . S
C196 C194 1.415 . S
C196 C201 1.425 . S
C196 C203 1.409 . S
C197 H189 0.930 . S
C197 C195 1.419 . S
C197 C198 1.362 . S
C198 H190 0.930 . S
C198 C197 1.362 . S
C198 C201 1.409 . S
C199 H191 0.930 . S
C199 C200 1.355 . S
C199 C201 1.415 . S
C200 C199 1.355 . S
C200 C202 1.419 . S
C201 C196 1.425 . S
C201 C198 1.409 . S
C201 C199 1.415 . S
C202 H192 0.930 . S
C202 C200 1.419 . S
C202 C203 1.362 . S
C203 H193 0.930 . S
C203 C196 1.409 . S
C203 C202 1.362 . S
H204 C210 0.930 . S
H205 C213 0.930 . S
H206 C214 0.930 . S
H207 C215 0.930 . S
H208 C218 0.930 . S
H209 C219 0.930 . S
C210 H204 0.930 . S
C210 C211 1.355 . S
C210 C212 1.415 . S
C211 C210 1.355 . S
C211 C213 1.419 . S
C212 C210 1.415 . S
C212 C217 1.425 . S
C212 C219 1.409 . S
C213 H205 0.930 . S
C213 C211 1.419 . S
C213 C214 1.362 . S
C214 H206 0.930 . S
C214 C213 1.362 . S
C214 C217 1.409 . S
C215 H207 0.930 . S
C215 C216 1.355 . S
C215 C217 1.415 . S
C216 C215 1.355 . S
C216 C218 1.419 . S
C217 C212 1.425 . S
C217 C214 1.409 . S
C217 C215 1.415 . S
C218 H208 0.930 . S
C218 C216 1.419 . S
C218 C219 1.362 . S
C219 H209 0.930 . S
C219 C212 1.409 . S
C219 C218 1.362 . S
H220 C226 0.930 . S
H221 C229 0.930 . S
H222 C230 0.930 . S
H223 C231 0.930 . S
H224 C234 0.930 . S
H225 C235 0.930 . S
C226 H220 0.930 . S
C226 C227 1.355 . S
C226 C228 1.415 1_554 S
C227 C226 1.355 . S
C227 C229 1.419 . S
C228 C226 1.415 1_556 S
C228 C233 1.425 . S
C228 C235 1.409 . S
C229 H221 0.930 . S
C229 C227 1.419 . S
C229 C230 1.362 1_554 S
C230 H222 0.930 . S
C230 C229 1.362 1_556 S
C230 C233 1.409 . S
C231 H223 0.930 . S
C231 C232 1.355 . S
C231 C233 1.415 . S
C232 C231 1.355 . S
C232 C234 1.419 . S
C233 C228 1.425 . S
C233 C230 1.409 . S
C233 C231 1.415 . S
C234 H224 0.930 . S
C234 C232 1.419 . S
C234 C235 1.362 . S
C235 H225 0.930 . S
C235 C228 1.409 . S
C235 C234 1.362 . S
H236 C242 0.930 . S
H237 C245 0.930 . S
H238 C246 0.930 . S
H239 C247 0.930 . S
H240 C250 0.930 . S
H241 C251 0.930 . S
C242 H236 0.930 . S
C242 C243 1.355 . S
C242 C244 1.415 . S
C243 C242 1.355 . S
C243 C245 1.419 . S
C244 C242 1.415 . S
C244 C249 1.425 . S
C244 C251 1.409 . S
C245 H237 0.930 . S
C245 C243 1.419 . S
C245 C246 1.362 . S
C246 H238 0.930 . S
C246 C245 1.362 . S
C246 C249 1.409 . S
C247 H239 0.930 . S
C247 C248 1.355 . S
C247 C249 1.415 . S
C248 C247 1.355 . S
C248 C250 1.419 . S
C249 C244 1.425 . S
C249 C246 1.409 . S
C249 C247 1.415 . S
C250 H240 0.930 . S
C250 C248 1.419 . S
C250 C251 1.362 . S
C251 H241 0.930 . S
C251 C244 1.409 . S
C251 C250 1.362 . S
H252 C258 0.930 . S
H253 C261 0.930 . S
H254 C262 0.930 . S
H255 C263 0.930 . S
H256 C266 0.930 . S
H257 C267 0.930 . S
C258 H252 0.930 . S
C258 C259 1.355 . S
C258 C260 1.415 . S
C259 C258 1.355 . S
C259 C261 1.419 . S
C260 C258 1.415 . S
C260 C265 1.425 . S
C260 C267 1.409 . S
C261 H253 0.930 . S
C261 C259 1.419 . S
C261 C262 1.362 . S
C262 H254 0.930 . S
C262 C261 1.362 . S
C262 C265 1.409 . S
C263 H255 0.930 . S
C263 C264 1.355 . S
C263 C265 1.415 . S
C264 C263 1.355 . S
C264 C266 1.419 . S
C265 C260 1.425 . S
C265 C262 1.409 . S
C265 C263 1.415 . S
C266 H256 0.930 . S
C266 C264 1.419 . S
C266 C267 1.362 . S
C267 H257 0.930 . S
C267 C260 1.409 . S
C267 C266 1.362 . S
H268 C274 0.930 . S
H269 C277 0.930 . S
H270 C278 0.930 . S
H271 C279 0.930 . S
H272 C282 0.930 . S
H273 C283 0.930 . S
C274 H268 0.930 . S
C274 C275 1.355 . S
C274 C276 1.415 . S
C275 C274 1.355 . S
C275 C277 1.419 . S
C276 C274 1.415 . S
C276 C281 1.425 . S
C276 C283 1.409 . S
C277 H269 0.930 . S
C277 C275 1.419 . S
C277 C278 1.362 . S
C278 H270 0.930 . S
C278 C277 1.362 . S
C278 C281 1.409 . S
C279 H271 0.930 . S
C279 C280 1.355 . S
C279 C281 1.415 . S
C280 C279 1.355 . S
C280 C282 1.419 . S
C281 C276 1.425 . S
C281 C278 1.409 . S
C281 C279 1.415 . S
C282 H272 0.930 . S
C282 C280 1.419 . S
C282 C283 1.362 . S
C283 H273 0.930 . S
C283 C276 1.409 . S
C283 C282 1.362 . S
H284 C290 0.930 . S
H285 C293 0.930 . S
H286 C294 0.930 . S
H287 C295 0.930 . S
H288 C298 0.930 . S
H289 C299 0.930 . S
C290 H284 0.930 . S
C290 C291 1.355 . S
C290 C292 1.415 . S
C291 C290 1.355 . S
C291 C293 1.419 . S
C292 C290 1.415 . S
C292 C297 1.425 . S
C292 C299 1.409 . S
C293 H285 0.930 . S
C293 C291 1.419 . S
C293 C294 1.362 . S
C294 H286 0.930 . S
C294 C293 1.362 . S
C294 C297 1.409 . S
C295 H287 0.930 . S
C295 C296 1.355 . S
C295 C297 1.415 . S
C296 C295 1.355 . S
C296 C298 1.419 . S
C297 C292 1.425 . S
C297 C294 1.409 . S
C297 C295 1.415 . S
C298 H288 0.930 . S
C298 C296 1.419 . S
C298 C299 1.362 . S
C299 H289 0.930 . S
C299 C292 1.409 . S
C299 C298 1.362 . S
H300 C306 0.930 . S
H301 C309 0.930 . S
H302 C310 0.930 . S
H303 C311 0.930 . S
H304 C314 0.930 . S
H305 C315 0.930 . S
C306 H300 0.930 . S
C306 C307 1.355 . S
C306 C308 1.415 . S
C307 C306 1.355 . S
C307 C309 1.419 . S
C308 C306 1.415 . S
C308 C313 1.425 . S
C308 C315 1.409 . S
C309 H301 0.930 . S
C309 C307 1.419 . S
C309 C310 1.362 . S
C310 H302 0.930 . S
C310 C309 1.362 . S
C310 C313 1.409 . S
C311 H303 0.930 . S
C311 C312 1.355 . S
C311 C313 1.415 . S
C312 C311 1.355 . S
C312 C314 1.419 . S
C313 C308 1.425 . S
C313 C310 1.409 . S
C313 C311 1.415 . S
C314 H304 0.930 . S
C314 C312 1.419 . S
C314 C315 1.362 . S
C315 H305 0.930 . S
C315 C308 1.409 . S
C315 C314 1.362 . S
H316 C322 0.930 . S
H317 C325 0.930 . S
H318 C326 0.930 . S
H319 C327 0.930 . S
H320 C330 0.930 . S
H321 C331 0.930 . S
C322 H316 0.930 . S
C322 C323 1.355 . S
C322 C324 1.415 . S
C323 C322 1.355 . S
C323 C325 1.419 . S
C324 C322 1.415 . S
C324 C329 1.425 . S
C324 C331 1.409 . S
C325 H317 0.930 . S
C325 C323 1.419 . S
C325 C326 1.362 . S
C326 H318 0.930 . S
C326 C325 1.362 . S
C326 C329 1.409 . S
C327 H319 0.930 . S
C327 C328 1.355 . S
C327 C329 1.415 . S
C328 C327 1.355 . S
C328 C330 1.419 . S
C329 C324 1.425 . S
C329 C326 1.409 . S
C329 C327 1.415 . S
C330 H320 0.930 . S
C330 C328 1.419 . S
C330 C331 1.362 . S
C331 H321 0.930 . S
C331 C324 1.409 . S
C331 C330 1.362 . S
H332 C338 0.930 . S
H333 C341 0.930 . S
H334 C342 0.930 . S
H335 C343 0.930 . S
H336 C346 0.930 . S
H337 C347 0.930 . S
C338 H332 0.930 . S
C338 C339 1.355 . S
C338 C340 1.415 . S
C339 C338 1.355 . S
C339 C341 1.419 . S
C340 C338 1.415 . S
C340 C345 1.425 . S
C340 C347 1.409 . S
C341 H333 0.930 . S
C341 C339 1.419 . S
C341 C342 1.362 . S
C342 H334 0.930 . S
C342 C341 1.362 . S
C342 C345 1.409 . S
C343 H335 0.930 . S
C343 C344 1.355 . S
C343 C345 1.415 . S
C344 C343 1.355 . S
C344 C346 1.419 1_556 S
C345 C340 1.425 . S
C345 C342 1.409 . S
C345 C343 1.415 . S
C346 H336 0.930 . S
C346 C344 1.419 1_554 S
C346 C347 1.362 1_554 S
C347 H337 0.930 . S
C347 C340 1.409 . S
C347 C346 1.362 1_556 S
H348 C354 0.930 . S
H349 C357 0.930 . S
H350 C358 0.930 . S
H351 C359 0.930 . S
H352 C362 0.930 . S
H353 C363 0.930 . S
C354 H348 0.930 . S
C354 C355 1.355 . S
C354 C356 1.415 . S
C355 C354 1.355 . S
C355 C357 1.419 . S
C356 C354 1.415 . S
C356 C361 1.425 . S
C356 C363 1.409 . S
C357 H349 0.930 . S
C357 C355 1.419 . S
C357 C358 1.362 . S
C358 H350 0.930 . S
C358 C357 1.362 . S
C358 C361 1.409 . S
C359 H351 0.930 . S
C359 C360 1.355 . S
C359 C361 1.415 . S
C360 C359 1.355 . S
C360 C362 1.419 . S
C361 C356 1.425 . S
C361 C358 1.409 . S
C361 C359 1.415 . S
C362 H352 0.930 . S
C362 C360 1.419 . S
C362 C363 1.362 . S
C363 H353 0.930 . S
C363 C356 1.409 . S
C363 C362 1.362 . S
H364 C370 0.930 . S
H365 C373 0.930 . S
H366 C374 0.930 . S
H367 C375 0.930 . S
H368 C378 0.930 . S
H369 C379 0.930 . S
C370 H364 0.930 . S
C370 C371 1.355 . S
C370 C372 1.415 . S
C371 C370 1.355 . S
C371 C373 1.419 . S
C372 C370 1.415 . S
C372 C377 1.425 . S
C372 C379 1.409 . S
C373 H365 0.930 . S
C373 C371 1.419 . S
C373 C374 1.362 . S
C374 H366 0.930 . S
C374 C373 1.362 . S
C374 C377 1.409 . S
C375 H367 0.930 . S
C375 C376 1.355 . S
C375 C377 1.415 1_554 S
C376 C375 1.355 . S
C376 C378 1.419 . S
C377 C372 1.425 . S
C377 C374 1.409 . S
C377 C375 1.415 1_556 S
C378 H368 0.930 . S
C378 C376 1.419 . S
C378 C379 1.362 1_554 S
C379 H369 0.930 . S
C379 C372 1.409 . S
C379 C378 1.362 1_556 S
H380 C386 0.930 . S
H381 C389 0.930 . S
H382 C390 0.930 . S
H383 C391 0.930 . S
H384 C394 0.930 . S
H385 C395 0.930 . S
C386 H380 0.930 . S
C386 C387 1.355 . S
C386 C388 1.415 . S
C387 C386 1.355 . S
C387 C389 1.419 . S
C388 C386 1.415 . S
C388 C393 1.425 . S
C388 C395 1.409 . S
C389 H381 0.930 . S
C389 C387 1.419 . S
C389 C390 1.362 . S
C390 H382 0.930 . S
C390 C389 1.362 . S
C390 C393 1.409 . S
C391 H383 0.930 . S
C391 C392 1.355 . S
C391 C393 1.415 . S
C392 C391 1.355 . S
C392 C394 1.419 . S
C393 C388 1.425 . S
C393 C390 1.409 . S
C393 C391 1.415 . S
C394 H384 0.930 . S
C394 C392 1.419 . S
C394 C395 1.362 . S
C395 H385 0.930 . S
C395 C388 1.409 . S
C395 C394 1.362 . S
H396 C402 0.930 . S
H397 C405 0.930 . S
H398 C406 0.930 . S
H399 C407 0.930 . S
H400 C410 0.930 . S
H401 C411 0.930 . S
C402 H396 0.930 . S
C402 C403 1.355 . S
C402 C404 1.415 . S
C403 C402 1.355 . S
C403 C405 1.419 . S
C404 C402 1.415 . S
C404 C409 1.425 . S
C404 C411 1.409 . S
C405 H397 0.930 . S
C405 C403 1.419 . S
C405 C406 1.362 . S
C406 H398 0.930 . S
C406 C405 1.362 . S
C406 C409 1.409 . S
C407 H399 0.930 . S
C407 C408 1.355 . S
C407 C409 1.415 . S
C408 C407 1.355 . S
C408 C410 1.419 . S
C409 C404 1.425 . S
C409 C406 1.409 . S
C409 C407 1.415 . S
C410 H400 0.930 . S
C410 C408 1.419 . S
C410 C411 1.362 . S
C411 H401 0.930 . S
C411 C404 1.409 . S
C411 C410 1.362 . S
H412 C418 0.930 . S
H413 C421 0.930 . S
H414 C422 0.930 . S
H415 C423 0.930 . S
H416 C426 0.930 . S
H417 C427 0.930 . S
C418 H412 0.930 . S
C418 C419 1.355 . S
C418 C420 1.415 . S
C419 C418 1.355 . S
C419 C421 1.419 . S
C420 C418 1.415 . S
C420 C425 1.425 . S
C420 C427 1.409 . S
C421 H413 0.930 . S
C421 C419 1.419 . S
C421 C422 1.362 . S
C422 H414 0.930 . S
C422 C421 1.362 . S
C422 C425 1.409 . S
C423 H415 0.930 . S
C423 C424 1.355 . S
C423 C425 1.415 . S
C424 C423 1.355 . S
C424 C426 1.419 . S
C425 C420 1.425 . S
C425 C422 1.409 . S
C425 C423 1.415 . S
C426 H416 0.930 . S
C426 C424 1.419 . S
C426 C427 1.362 . S
C427 H417 0.930 . S
C427 C420 1.409 . S
C427 C426 1.362 . S
H428 C434 0.930 . S
H429 C437 0.930 . S
H430 C438 0.930 . S
H431 C439 0.930 . S
H432 C442 0.930 . S
H433 C443 0.930 . S
C434 H428 0.930 . S
C434 C435 1.355 . S
C434 C436 1.415 . S
C435 C434 1.355 . S
C435 C437 1.419 . S
C436 C434 1.415 . S
C436 C441 1.425 . S
C436 C443 1.409 . S
C437 H429 0.930 . S
C437 C435 1.419 . S
C437 C438 1.362 . S
C438 H430 0.930 . S
C438 C437 1.362 . S
C438 C441 1.409 . S
C439 H431 0.930 . S
C439 C440 1.355 . S
C439 C441 1.415 . S
C440 C439 1.355 . S
C440 C442 1.419 . S
C441 C436 1.425 . S
C441 C438 1.409 . S
C441 C439 1.415 . S
C442 H432 0.930 . S
C442 C440 1.419 . S
C442 C443 1.362 . S
C443 H433 0.930 . S
C443 C436 1.409 . S
C443 C442 1.362 . S
H444 C450 0.928 . S
H445 C453 0.930 . S
H446 C454 0.930 . S
H447 C455 0.930 . S
H448 C458 0.930 . S
H449 C459 0.930 . S
C450 H444 0.928 . S
C450 C451 1.355 1_556 S
C450 C452 1.415 1_556 S
C451 C450 1.355 1_554 S
C451 C453 1.419 . S
C452 C450 1.415 1_554 S
C452 C457 1.425 1_545 S
C452 C459 1.409 1_544 S
C453 H445 0.930 . S
C453 C451 1.419 . S
C453 C454 1.362 . S
C454 H446 0.930 . S
C454 C453 1.362 . S
C454 C457 1.409 1_545 S
C455 H447 0.930 . S
C455 C456 1.355 . S
C455 C457 1.415 . S
C456 C455 1.355 . S
C456 C458 1.419 1_554 S
C457 C452 1.425 1_565 S
C457 C454 1.409 1_565 S
C457 C455 1.415 . S
C458 H448 0.930 . S
C458 C456 1.419 1_556 S
C458 C459 1.362 . S
C459 H449 0.930 . S
C459 C452 1.409 1_566 S
C459 C458 1.362 . S
H460 C466 0.930 . S
H461 C469 0.930 . S
H462 C470 0.930 . S
H463 C471 0.930 . S
H464 C474 0.930 . S
H465 C475 0.930 . S
C466 H460 0.930 . S
C466 C467 1.355 . S
C466 C468 1.415 . S
C467 C466 1.355 . S
C467 C469 1.419 . S
C468 C466 1.415 . S
C468 C473 1.425 . S
C468 C475 1.409 . S
C469 H461 0.930 . S
C469 C467 1.419 . S
C469 C470 1.362 . S
C470 H462 0.930 . S
C470 C469 1.362 . S
C470 C473 1.409 . S
C471 H463 0.930 . S
C471 C472 1.355 . S
C471 C473 1.415 . S
C472 C471 1.355 . S
C472 C474 1.419 . S
C473 C468 1.425 . S
C473 C470 1.409 . S
C473 C471 1.415 . S
C474 H464 0.930 . S
C474 C472 1.419 . S
C474 C475 1.362 . S
C475 H465 0.930 . S
C475 C468 1.409 . S
C475 C474 1.362 . S
H476 C482 0.930 . S
H477 C485 0.930 . S
H478 C486 0.930 . S
H479 C487 0.930 . S
H480 C490 0.930 . S
H481 C491 0.930 . S
C482 H476 0.930 . S
C482 C483 1.355 . S
C482 C484 1.415 . S
C483 C482 1.355 . S
C483 C485 1.419 . S
C484 C482 1.415 . S
C484 C489 1.425 1_455 S
C484 C491 1.409 1_455 S
C485 H477 0.930 . S
C485 C483 1.419 . S
C485 C486 1.362 . S
C486 H478 0.930 . S
C486 C485 1.362 . S
C486 C489 1.409 1_455 S
C487 H479 0.930 . S
C487 C488 1.355 . S
C487 C489 1.415 . S
C488 C487 1.355 . S
C488 C490 1.419 . S
C489 C484 1.425 1_655 S
C489 C486 1.409 1_655 S
C489 C487 1.415 . S
C490 H480 0.930 . S
C490 C488 1.419 . S
C490 C491 1.362 . S
C491 H481 0.930 . S
C491 C484 1.409 1_655 S
C491 C490 1.362 . S
H492 C498 0.930 . S
H493 C501 0.930 . S
H494 C502 0.930 . S
H495 C503 0.930 . S
H496 C506 0.930 . S
H497 C507 0.930 . S
C498 H492 0.930 . S
C498 C499 1.355 . S
C498 C500 1.415 . S
C499 C498 1.355 . S
C499 C501 1.419 . S
C500 C498 1.415 . S
C500 C505 1.425 1_565 S
C500 C507 1.409 1_565 S
C501 H493 0.930 . S
C501 C499 1.419 . S
C501 C502 1.362 . S
C502 H494 0.930 . S
C502 C501 1.362 . S
C502 C505 1.409 1_565 S
C503 H495 0.930 . S
C503 C504 1.355 . S
C503 C505 1.415 . S
C504 C503 1.355 . S
C504 C506 1.419 . S
C505 C500 1.425 1_545 S
C505 C502 1.409 1_545 S
C505 C503 1.415 . S
C506 H496 0.930 . S
C506 C504 1.419 . S
C506 C507 1.362 . S
C507 H497 0.930 . S
C507 C500 1.409 1_545 S
C507 C506 1.362 . S
H508 C514 0.930 . S
H509 C517 0.930 . S
H510 C518 0.930 . S
H511 C519 0.930 . S
H512 C522 0.930 . S
H513 C523 0.930 . S
C514 H508 0.930 . S
C514 C515 1.355 . S
C514 C516 1.415 . S
C515 C514 1.355 . S
C515 C517 1.419 . S
C516 C514 1.415 . S
C516 C521 1.425 . S
C516 C523 1.409 . S
C517 H509 0.930 . S
C517 C515 1.419 . S
C517 C518 1.362 . S
C518 H510 0.930 . S
C518 C517 1.362 . S
C518 C521 1.409 . S
C519 H511 0.930 . S
C519 C520 1.355 . S
C519 C521 1.415 . S
C520 C519 1.355 . S
C520 C522 1.419 . S
C521 C516 1.425 . S
C521 C518 1.409 . S
C521 C519 1.415 . S
C522 H512 0.930 . S
C522 C520 1.419 . S
C522 C523 1.362 . S
C523 H513 0.930 . S
C523 C516 1.409 . S
C523 C522 1.362 . S
H524 C530 0.930 . S
H525 C533 0.930 . S
H526 C534 0.930 . S
H527 C535 0.930 . S
H528 C538 0.930 . S
H529 C539 0.930 . S
C530 H524 0.930 . S
C530 C531 1.355 . S
C530 C532 1.415 . S
C531 C530 1.355 . S
C531 C533 1.419 . S
C532 C530 1.415 . S
C532 C537 1.425 1_455 S
C532 C539 1.409 1_455 S
C533 H525 0.930 . S
C533 C531 1.419 . S
C533 C534 1.362 . S
C534 H526 0.930 . S
C534 C533 1.362 . S
C534 C537 1.409 1_455 S
C535 H527 0.930 . S
C535 C536 1.355 . S
C535 C537 1.415 . S
C536 C535 1.355 . S
C536 C538 1.419 . S
C537 C532 1.425 1_655 S
C537 C534 1.409 1_655 S
C537 C535 1.415 . S
C538 H528 0.930 . S
C538 C536 1.419 . S
C538 C539 1.362 . S
C539 H529 0.930 . S
C539 C532 1.409 1_655 S
C539 C538 1.362 . S
C163 C3 1.173 . S
C168 C133 1.166 . S
C179 C16 1.178 . S
C184 C148 1.164 . S
C195 C83 1.191 . S
C200 C29 1.174 . S
C211 C42 1.191 . S
C216 C96 1.181 . S
C227 C109 1.165 . S
C232 C55 1.173 . S
C243 C122 1.178 . S
C248 C68 1.164 1_554 S
C259 C107 1.374 . S
C264 C5 1.382 . S
C275 C18 1.348 . S
C280 C120 1.357 . S
C291 C135 1.356 . S
C296 C31 1.348 . S
C307 C44 1.369 . S
C312 C146 1.350 . S
C323 C57 1.376 . S
C328 C81 1.356 . S
C339 C70 1.375 . S
C344 C94 1.354 1_556 S
C355 C140 1.683 . S
C360 C10 1.671 . S
C371 C147 1.683 . S
C376 C23 1.673 . S
C387 C82 1.684 1_554 S
C392 C36 1.671 . S
C403 C49 1.681 . S
C408 C95 1.676 . S
C419 C62 1.680 . S
C424 C108 1.672 . S
C435 C121 1.670 . S
C440 C75 1.684 . S
C451 C4 1.437 . S
C456 C101 1.427 . S
C467 C114 1.454 . S
C472 C17 1.431 . S
C483 C127 1.455 . S
C488 C30 1.431 . S
C499 C43 1.456 . S
C504 C134 1.433 . S
C515 C56 1.429 . S
C520 C153 1.433 . S
C531 C69 1.457 . S
C536 C88 1.435 . S
