# Generated by pormake.
# Topology sma, (6)-cn, num edge types: 1
# Building blocks:
#     Node 0, Type 0, BuildingBlock: PAMTOO_clean_sbu_0, # of connection points: 6
#     Node 1, Type 0, BuildingBlock: PAMTOO_clean_sbu_0, # of connection points: 6
#     Node 2, Type 0, BuildingBlock: PAMTOO_clean_sbu_0, # of connection points: 6
#     Edge 3, Type (0, 0), BuildingBlock: KIFKEQ_clean_linker_1, # of connection points: 2
#     Edge 4, Type (0, 0), BuildingBlock: KIFKEQ_clean_linker_1, # of connection points: 2
#     Edge 5, Type (0, 0), BuildingBlock: KIFKEQ_clean_linker_1, # of connection points: 2
#     Edge 6, Type (0, 0), BuildingBlock: KIFKEQ_clean_linker_1, # of connection points: 2
#     Edge 7, Type (0, 0), BuildingBlock: KIFKEQ_clean_linker_1, # of connection points: 2
#     Edge 8, Type (0, 0), BuildingBlock: KIFKEQ_clean_linker_1, # of connection points: 2
#     Edge 9, Type (0, 0), BuildingBlock: KIFKEQ_clean_linker_1, # of connection points: 2
#     Edge 10, Type (0, 0), BuildingBlock: KIFKEQ_clean_linker_1, # of connection points: 2
#     Edge 11, Type (0, 0), BuildingBlock: KIFKEQ_clean_linker_1, # of connection points: 2
# Relax obj value: 0.152
# Max RMSD: 0.233
# Mean RMSD: 0.208
data_MOF--net-sma--node1-PAMTOO_clean_sbu_0--edge1-KIFKEQ_clean_linker_1
_symmetry_space_group_name_H-M    P1
_symmetry_Int_Tables_number       1
_symmetry_cell_setting            triclinic
loop_
_symmetry_equiv_pos_as_xyz
'x, y, z'
_cell_length_a     30.769803
_cell_length_b     40.699275
_cell_length_c     15.054334
_cell_angle_alpha  87.356733
_cell_angle_beta   100.22445
_cell_angle_gamma 96.683029
loop_
_atom_site_label
_atom_site_type_symbol
_atom_site_fract_x
_atom_site_fract_y
_atom_site_fract_z
_atom_type_partial_charge
Dy0 Dy 0.08466 0.57577 -0.01025 0.0
Dy1 Dy 0.06779 0.492 -0.01256 0.0
C2 C 0.06071 0.53652 0.80799 0.0
O3 O 1.01397 0.56238 0.00553 0.0
O4 O 0.99986 0.50833 -0.04119 0.0
O5 O 0.10726 0.62352 0.93462 0.0
O6 O 0.07719 0.62022 0.05516 0.0
O7 O 0.06437 0.50957 0.12235 0.0
O8 O 0.11452 0.55551 0.12236 0.0
O9 O 0.1409 0.50454 -0.00961 0.0
O10 O 0.14767 0.56099 -0.04069 0.0
O11 O 0.08594 0.44572 0.05014 0.0
O12 O 1.03373 0.44582 0.93237 0.0
C13 C 0.98641 0.53613 -0.02099 0.0
O14 O 1.0531 0.56208 0.85052 0.0
O15 O 0.07468 0.50963 0.84915 0.0
C16 C 0.13153 0.66531 0.04209 0.0
C17 C 0.19209 0.71679 0.12605 0.0
C18 C 0.16327 0.72276 0.04475 0.0
C19 C 0.13327 0.69726 0.00334 0.0
C20 C 0.16101 0.65887 0.12181 0.0
C21 C 0.19107 0.68443 0.16349 0.0
C22 C 0.09752 0.63956 0.00024 0.0
C23 C 0.09301 0.53221 0.16525 0.0
C24 C 0.16393 0.53231 -0.03042 0.0
C25 C 1.02719 0.40216 0.04044 0.0
C26 C 0.97765 0.35067 0.12387 0.0
C27 C 0.9941 0.38023 0.16923 0.0
C28 C 1.01849 0.4058 0.12777 0.0
C29 C 1.01037 0.37292 -0.00536 0.0
C30 C 0.98574 0.34745 0.03577 0.0
C31 C 1.05463 0.42803 -0.00308 0.0
H32 H 0.16377 0.74723 0.01317 0.0
H33 H 0.11091 0.70262 -0.05842 0.0
H34 H 0.16021 0.63427 0.15269 0.0
H35 H 0.21259 0.67903 0.22628 0.0
H36 H 0.98795 0.38364 0.23667 0.0
H37 H 1.03084 0.42828 0.16426 0.0
H38 H 1.01677 0.36961 0.9273 0.0
H39 H 0.97393 0.3249 -0.00066 0.0
Dy40 Dy 0.55175 0.03045 0.49119 0.0
Dy41 Dy 0.66092 0.05506 0.53431 0.0
C42 C 0.60602 0.02936 0.69097 0.0
O43 O 0.5586 0.08061 0.54934 0.0
O44 O 0.62548 0.10051 0.50856 0.0
O45 O 0.48709 1.01703 0.52866 0.0
O46 O 0.49505 1.01637 0.38886 0.0
O47 O 0.63982 0.04797 0.38774 0.0
O48 O 0.56924 0.06172 0.37585 0.0
O49 O 0.65365 1.00046 0.56343 0.0
O50 O 0.58799 0.98823 0.46596 0.0
O51 O 0.72696 0.05196 0.50726 0.0
O52 O 0.71632 0.08767 0.60131 0.0
C53 C 0.58878 0.10527 0.53733 0.0
O54 O 0.5734 1.01468 0.6332 0.0
O55 O 0.63932 0.04891 0.66732 0.0
C56 C 0.44135 0.97699 0.43531 0.0
C57 C 0.38981 0.91582 0.39576 0.0
C58 C 0.43568 0.91705 0.42938 0.0
C59 C 0.46124 0.94743 0.4491 0.0
C60 C 0.3956 0.97586 0.4039 0.0
C61 C 0.37001 0.94557 0.38442 0.0
C62 C 0.46828 1.00922 0.44667 0.0
C63 C 0.60382 0.05791 0.33979 0.0
C64 C 0.62366 0.97887 0.51809 0.0
C65 C 0.76912 0.10435 0.50852 0.0
C66 C 0.81522 0.15754 0.42424 0.0
C67 C 0.7748 0.14164 0.37911 0.0
C68 C 0.75185 0.11542 0.42106 0.0
C69 C 0.80953 0.11991 0.55354 0.0
C70 C 0.83238 0.14631 0.51188 0.0
C71 C 0.74408 0.07785 0.55472 0.0
H72 H 0.45185 0.89459 0.43972 0.0
H73 H 0.49662 0.94794 0.47332 0.0
H74 H 0.37983 0.9985 0.39219 0.0
H75 H 0.33496 0.94559 0.35742 0.0
H76 H 0.76039 0.14996 0.31211 0.0
H77 H 0.72033 0.10404 0.38566 0.0
H78 H 0.82322 0.11184 0.62128 0.0
H79 H 0.8636 0.15782 0.54811 0.0
Dy80 Dy 0.56466 0.58194 0.83261 0.0
Dy81 Dy 0.56149 0.49972 0.82003 0.0
C82 C 0.57683 0.53498 0.00664 0.0
O83 O 0.63614 0.5731 0.87085 0.0
O84 O 0.6321 0.51978 0.82059 0.0
O85 O 0.58547 0.6289 0.89843 0.0
O86 O 0.53783 0.62592 0.77295 0.0
O87 O 0.53457 0.52374 0.68982 0.0
O88 O 0.58323 0.57 0.70375 0.0
O89 O 0.49607 0.50703 0.85475 0.0
O90 O 0.49292 0.56097 0.80345 0.0
O91 O 0.57588 0.46215 0.73777 0.0
O92 O 0.54528 0.44765 0.85719 0.0
C93 C 0.65498 0.54745 0.85175 0.0
O94 O 0.55572 0.55908 -0.03493 0.0
O95 O 0.58933 0.51147 -0.03689 0.0
C96 C 0.57882 0.67797 0.80643 0.0
C97 C 0.60087 0.74204 0.73683 0.0
C98 C 0.57812 0.73742 0.81031 0.0
C99 C 0.56729 0.70571 0.84478 0.0
C100 C 0.60322 0.68238 0.73545 0.0
C101 C 0.61444 0.71431 0.70119 0.0
C102 C 0.56071 0.64505 0.83586 0.0
C103 C 0.56026 0.54644 0.65395 0.0
C104 C 0.47407 0.53281 0.83274 0.0
C105 C 0.56184 0.40327 0.76646 0.0
C106 C 0.56219 0.3372 0.71645 0.0
C107 C 0.5895 0.36305 0.68224 0.0
C108 C 0.58918 0.39565 0.70662 0.0
C109 C 0.5352 0.37753 0.80257 0.0
C110 C 0.53528 0.34477 0.77764 0.0
C111 C 0.56058 0.43813 0.788 0.0
H112 H 0.56777 0.75836 0.83987 0.0
H113 H 0.5484 0.70276 0.89947 0.0
H114 H 0.6122 0.66116 0.70472 0.0
H115 H 0.63189 0.71719 0.64435 0.0
H116 H 0.61144 0.35813 0.63676 0.0
H117 H 0.61042 0.41495 0.67833 0.0
H118 H 0.5137 0.38278 0.84863 0.0
H119 H 0.51359 0.32552 0.80481 0.0
H120 H 0.20376 0.47796 -0.06036 0.0
H121 H 0.22779 0.5843 -0.03974 0.0
H122 H 0.27725 0.47692 0.9011 0.0
H123 H 0.30164 0.58318 0.92497 0.0
H124 H 0.41325 0.57634 0.77171 0.0
H125 H 0.33816 0.57499 0.80327 0.0
H126 H 0.35455 0.4841 -0.04039 0.0
H127 H 0.42898 0.48484 0.92522 0.0
C128 C 0.22493 0.50107 -0.06282 0.0
C129 C 0.20979 0.53121 -0.04715 0.0
C130 C 0.26717 0.50048 0.91522 0.0
C131 C 0.29542 0.53 0.90917 0.0
C132 C 0.28052 0.56003 0.92685 0.0
C133 C 0.23821 0.56065 -0.05207 0.0
C134 C 0.40069 0.5559 0.81212 0.0
C135 C 0.42721 0.53073 0.84595 0.0
C136 C 0.3577 0.55526 0.83094 0.0
C137 C 0.34029 0.52962 0.88491 0.0
C138 C 0.36653 0.50405 0.91702 0.0
C139 C 0.40937 0.50453 0.89748 0.0
H140 H 0.85419 0.21598 0.49971 0.0
H141 H 0.82989 0.16355 0.2498 0.0
H142 H 0.89231 0.26297 0.42779 0.0
H143 H 0.8687 0.21024 0.17803 0.0
H144 H 0.9019 0.31193 0.05178 0.0
H145 H 0.86235 0.26584 0.12435 0.0
H146 H 0.95872 0.28026 0.36964 0.0
H147 H 0.99768 0.32669 0.29734 0.0
C148 C 0.85743 0.21436 0.42961 0.0
C149 C 0.83902 0.18601 0.38051 0.0
C150 C 0.87935 0.2413 0.3883 0.0
C151 C 0.88368 0.24051 0.29692 0.0
C152 C 0.86536 0.21204 0.24799 0.0
C153 C 0.8432 0.18519 0.28918 0.0
C154 C 0.91468 0.30517 0.12113 0.0
C155 C 0.95293 0.323 0.16877 0.0
C156 C 0.89208 0.27866 0.16275 0.0
C157 C 0.90732 0.26915 0.25297 0.0
C158 C 0.94552 0.28714 0.30064 0.0
C159 C 0.96795 0.31378 0.25916 0.0
H160 H 0.56718 0.92759 0.43807 0.0
H161 H 0.68694 0.94843 0.63471 0.0
H162 H 0.56492 0.86919 0.48142 0.0
H163 H 0.68456 0.88965 0.67775 0.0
H164 H 0.67718 0.7747 0.68956 0.0
H165 H 0.68713 0.8311 0.62482 0.0
H166 H 0.54879 0.84069 0.62436 0.0
H167 H 0.53896 0.78483 0.68816 0.0
C168 C 0.59343 0.91973 0.48966 0.0
C169 C 0.6269 0.94288 0.5338 0.0
C170 C 0.59202 0.8862 0.51462 0.0
C171 C 0.62422 0.8749 0.58381 0.0
C172 C 0.65936 0.89762 0.62399 0.0
C173 C 0.66062 0.93132 0.59943 0.0
C174 C 0.64896 0.78888 0.67481 0.0
C175 C 0.60739 0.77552 0.69445 0.0
C176 C 0.65468 0.82113 0.63829 0.0
C177 C 0.6187 0.84025 0.61921 0.0
C178 C 0.57703 0.82648 0.63725 0.0
C179 C 0.5715 0.7946 0.67465 0.0
H180 H 0.71609 0.58837 -0.03659 0.0
H181 H 0.70469 0.50901 0.7769 0.0
H182 H 0.79638 0.58602 -0.00024 0.0
H183 H 0.78447 0.50737 0.81058 0.0
H184 H 0.91876 0.48571 -0.04332 0.0
H185 H 0.83927 0.48995 0.9287 0.0
H186 H 0.86492 0.59643 -0.0564 0.0
H187 H 0.94449 0.59209 -0.0252 0.0
C188 C 0.7308 0.5708 0.9292 0.0
C189 C 0.704 0.54872 0.86786 0.0
C190 C 0.77681 0.56944 -0.05007 0.0
C191 C 0.79693 0.54616 0.90908 0.0
C192 C 0.7701 0.52497 0.84533 0.0
C193 C 0.72428 0.52611 0.82541 0.0
C194 C 0.90747 0.51002 -0.04545 0.0
C195 C 0.93804 0.53855 -0.03243 0.0
C196 C 0.86183 0.5125 -0.06216 0.0
C197 C 0.84555 0.54359 0.93264 0.0
C198 C 0.87616 0.57207 -0.05214 0.0
C199 C 0.92186 0.56957 -0.03455 0.0
H200 H 0.41281 0.86581 0.30384 0.0
H201 H 0.30572 0.894 0.42434 0.0
H202 H 0.36601 0.81623 0.24574 0.0
H203 H 0.25897 0.84442 0.36643 0.0
H204 H 0.17282 0.77946 0.14738 0.0
H205 H 0.22183 0.82556 0.2191 0.0
H206 H 0.32776 0.76292 0.28555 0.0
H207 H 0.27897 0.7169 0.21043 0.0
C208 C 0.37956 0.86112 0.31939 0.0
C209 C 0.36288 0.88401 0.36815 0.0
C210 C 0.35271 0.83269 0.28602 0.0
C211 C 0.30858 0.82651 0.30066 0.0
C212 C 0.2925 0.84879 0.35233 0.0
C213 C 0.31931 0.87719 0.38561 0.0
C214 C 0.20667 0.77553 0.17657 0.0
C215 C 0.22204 0.74453 0.1725 0.0
C216 C 0.23462 0.80187 0.21887 0.0
C217 C 0.2787 0.79792 0.25845 0.0
C218 C 0.29407 0.76685 0.25513 0.0
C219 C 0.26601 0.74041 0.21282 0.0
H220 H 0.56579 0.31628 0.54789 0.0
H221 H 0.55792 0.27973 0.8194 0.0
H222 H 0.57017 0.2603 0.50222 0.0
H223 H 0.56132 0.22352 0.77272 0.0
H224 H 0.5267 0.12378 0.62894 0.0
H225 H 0.51748 0.17955 0.67032 0.0
H226 H 0.62593 0.21925 0.53642 0.0
H227 H 0.63522 0.1636 0.49476 0.0
C228 C 0.56516 0.29636 0.59802 0.0
C229 C 0.56199 0.30264 0.68769 0.0
C230 C 0.56754 0.26426 0.57165 0.0
C231 C 0.56636 0.23757 0.63398 0.0
C232 C 0.56192 0.24359 0.72298 0.0
C233 C 0.55989 0.2758 0.74964 0.0
C234 C 0.54837 0.14442 0.60766 0.0
C235 C 0.58166 0.13923 0.55836 0.0
C236 C 0.54326 0.17632 0.63198 0.0
C237 C 0.57099 0.20374 0.60669 0.0
C238 C 0.60378 0.19862 0.55614 0.0
C239 C 0.60921 0.16671 0.53263 0.0
H240 H 1.02093 0.49226 0.68319 0.0
H241 H 0.09979 0.58706 0.71869 0.0
H242 H 1.02918 0.49334 0.52511 0.0
H243 H 0.11151 0.58724 0.56293 0.0
H244 H 0.09447 0.58809 0.25608 0.0
H245 H 0.08235 0.59143 0.41065 0.0
H246 H 0.08464 0.48532 0.44527 0.0
H247 H 0.09309 0.48205 0.28839 0.0
C248 C 1.03974 0.5134 0.65626 0.0
C249 C 1.05958 0.53963 0.71137 0.0
C250 C 1.04514 0.51387 0.56655 0.0
C251 C 0.07193 0.54002 0.53195 0.0
C252 C 0.09035 0.56689 0.58699 0.0
C253 C 0.0837 0.56686 0.67598 0.0
C254 C 0.093 0.56567 0.2977 0.0
C255 C 0.09455 0.53481 0.26162 0.0
C256 C 0.08605 0.56751 0.38605 0.0
C257 C 0.08173 0.53857 0.4399 0.0
C258 C 0.0862 0.50795 0.40468 0.0
C259 C 0.09177 0.50604 0.31562 0.0
H260 H 0.53267 0.03309 0.22115 0.0
H261 H 0.66593 0.0824 0.24124 0.0
H262 H 0.53119 1.02258 0.0629 0.0
H263 H 0.66361 0.07432 0.08116 0.0
H264 H 0.67189 1.02286 0.83319 0.0
H265 H 0.66827 0.03026 -0.00878 0.0
H266 H 0.52879 0.04384 0.9166 0.0
H267 H 0.53212 0.03387 0.76004 0.0
C268 C 0.561 0.04269 0.19037 0.0
C269 C 0.59947 0.0584 0.24215 0.0
C270 C 0.56025 0.03666 0.09993 0.0
C271 C 0.59764 0.04703 0.05987 0.0
C272 C 0.63488 0.06495 0.11084 0.0
C273 C 0.63606 0.07009 0.20183 0.0
C274 C 0.64037 1.02657 0.85166 0.0
C275 C 0.60227 0.02771 0.78587 0.0
C276 C 0.63833 0.03137 -0.05848 0.0
C277 C 0.59847 0.03849 -0.03387 0.0
C278 C 0.5599 0.03817 0.90015 0.0
C279 C 0.56171 0.0324 0.81064 0.0
H280 H 0.51815 0.50087 0.53124 0.0
H281 H 0.62189 0.58293 0.57106 0.0
H282 H 0.53224 0.49501 0.37867 0.0
H283 H 0.63651 0.57647 0.41974 0.0
H284 H 0.58703 0.58787 0.11188 0.0
H285 H 0.59027 0.58804 0.27367 0.0
H286 H 0.58884 0.48157 0.28695 0.0
H287 H 0.58501 0.48138 0.12266 0.0
C288 C 0.54407 0.51749 0.50759 0.0
C289 C 0.56833 0.54276 0.56211 0.0
C290 C 0.55256 0.5138 0.42097 0.0
C291 C 0.58547 0.53528 0.38797 0.0
C292 C 0.6107 0.5598 0.44365 0.0
C293 C 0.6021 0.5636 0.52988 0.0
C294 C 0.58791 0.5645 0.14937 0.0
C295 C 0.58506 0.53454 0.10524 0.0
C296 C 0.59025 0.56465 0.24208 0.0
C297 C 0.58966 0.5348 0.29238 0.0
C298 C 0.58901 0.50485 0.24903 0.0
C299 C 0.58705 0.50474 0.15565 0.0
loop_
_geom_bond_atom_site_label_1
_geom_bond_atom_site_label_2
_geom_bond_distance
_geom_bond_site_symmetry_2
_ccdc_geom_bond_type
Dy0 O3 2.307 1_455 S
Dy0 O5 2.395 . S
Dy0 O6 2.379 . S
Dy0 O8 2.339 . S
Dy0 O10 2.298 . S
Dy0 O14 2.275 . S
Dy0 C22 2.738 . S
Dy1 O4 2.298 1_455 S
Dy1 O7 2.275 . S
Dy1 O9 2.307 . S
Dy1 O11 2.395 1_455 S
Dy1 O12 2.379 1_455 S
Dy1 O15 2.339 1_554 S
Dy1 C31 2.738 1_455 S
C2 O14 1.254 1_556 S
C2 O15 1.257 . S
O3 Dy0 2.307 1_655 S
O3 C13 1.266 . S
O4 Dy1 2.298 1_655 S
O4 C13 1.236 . S
O5 Dy0 2.395 . S
O5 C22 1.255 . S
O6 Dy0 2.379 . S
O6 C22 1.249 . S
O7 Dy1 2.275 . S
O7 C23 1.254 . S
O8 Dy0 2.339 . S
O8 C23 1.257 . S
O9 Dy1 2.307 . S
O9 C24 1.266 . S
O10 Dy0 2.298 . S
O10 C24 1.236 . S
O11 Dy1 2.395 1_655 S
O11 C31 1.255 . S
O12 Dy1 2.379 1_655 S
O12 C31 1.249 . S
C13 O3 1.266 . S
C13 O4 1.236 . S
O14 Dy0 2.275 . S
O14 C2 1.254 1_554 S
O15 Dy1 2.339 1_556 S
O15 C2 1.257 . S
C16 C19 1.344 . S
C16 C20 1.328 . S
C16 C22 1.516 . S
C17 C18 1.304 . S
C17 C21 1.323 . S
C18 C17 1.304 . S
C18 C19 1.371 . S
C18 H32 0.930 1_554 S
C19 C16 1.344 . S
C19 C18 1.371 . S
C19 H33 0.931 1_554 S
C20 C16 1.328 . S
C20 C21 1.433 . S
C20 H34 0.931 . S
C21 C17 1.323 . S
C21 C20 1.433 . S
C21 H35 0.933 . S
C22 Dy0 2.738 . S
C22 O5 1.255 . S
C22 O6 1.249 . S
C22 C16 1.516 . S
C23 O7 1.254 . S
C23 O8 1.257 . S
C24 O9 1.266 . S
C24 O10 1.236 . S
C25 C28 1.344 . S
C25 C29 1.328 . S
C25 C31 1.516 . S
C26 C27 1.304 . S
C26 C30 1.323 . S
C27 C26 1.304 . S
C27 C28 1.371 . S
C27 H36 0.930 . S
C28 C25 1.344 . S
C28 C27 1.371 . S
C28 H37 0.931 . S
C29 C25 1.328 . S
C29 C30 1.433 . S
C29 H38 0.931 1_554 S
C30 C26 1.323 . S
C30 C29 1.433 . S
C30 H39 0.933 . S
C31 Dy1 2.738 1_655 S
C31 O11 1.255 . S
C31 O12 1.249 . S
C31 C25 1.516 . S
H32 C18 0.930 1_556 S
H33 C19 0.931 1_556 S
H34 C20 0.931 . S
H35 C21 0.933 . S
H36 C27 0.930 . S
H37 C28 0.931 . S
H38 C29 0.931 1_556 S
H39 C30 0.933 . S
Dy40 O43 2.307 1_565 S
Dy40 O45 2.395 . S
Dy40 O46 2.379 . S
Dy40 O48 2.339 1_565 S
Dy40 O50 2.298 . S
Dy40 O54 2.275 1_565 S
Dy40 C62 2.738 . S
Dy41 O44 2.298 . S
Dy41 O47 2.275 . S
Dy41 O49 2.307 1_545 S
Dy41 O51 2.395 . S
Dy41 O52 2.379 . S
Dy41 O55 2.339 . S
Dy41 C71 2.738 . S
C42 O54 1.254 . S
C42 O55 1.257 . S
O43 Dy40 2.307 1_545 S
O43 C53 1.266 . S
O44 Dy41 2.298 . S
O44 C53 1.236 . S
O45 Dy40 2.395 . S
O45 C62 1.255 . S
O46 Dy40 2.379 . S
O46 C62 1.249 . S
O47 Dy41 2.275 . S
O47 C63 1.254 . S
O48 Dy40 2.339 1_545 S
O48 C63 1.257 . S
O49 Dy41 2.307 1_565 S
O49 C64 1.266 . S
O50 Dy40 2.298 . S
O50 C64 1.236 . S
O51 Dy41 2.395 . S
O51 C71 1.255 . S
O52 Dy41 2.379 . S
O52 C71 1.249 . S
C53 O43 1.266 . S
C53 O44 1.236 . S
O54 Dy40 2.275 1_545 S
O54 C42 1.254 . S
O55 Dy41 2.339 . S
O55 C42 1.257 . S
C56 C59 1.344 . S
C56 C60 1.328 . S
C56 C62 1.516 . S
C57 C58 1.304 . S
C57 C61 1.323 . S
C58 C57 1.304 . S
C58 C59 1.371 . S
C58 H72 0.930 . S
C59 C56 1.344 . S
C59 C58 1.371 . S
C59 H73 0.931 . S
C60 C56 1.328 . S
C60 C61 1.433 . S
C60 H74 0.931 . S
C61 C57 1.323 . S
C61 C60 1.433 . S
C61 H75 0.933 . S
C62 Dy40 2.738 . S
C62 O45 1.255 . S
C62 O46 1.249 . S
C62 C56 1.516 . S
C63 O47 1.254 . S
C63 O48 1.257 . S
C64 O49 1.266 . S
C64 O50 1.236 . S
C65 C68 1.344 . S
C65 C69 1.328 . S
C65 C71 1.516 . S
C66 C67 1.304 . S
C66 C70 1.323 . S
C67 C66 1.304 . S
C67 C68 1.371 . S
C67 H76 0.930 . S
C68 C65 1.344 . S
C68 C67 1.371 . S
C68 H77 0.931 . S
C69 C65 1.328 . S
C69 C70 1.433 . S
C69 H78 0.931 . S
C70 C66 1.323 . S
C70 C69 1.433 . S
C70 H79 0.933 . S
C71 Dy41 2.738 . S
C71 O51 1.255 . S
C71 O52 1.249 . S
C71 C65 1.516 . S
H72 C58 0.930 . S
H73 C59 0.931 . S
H74 C60 0.931 . S
H75 C61 0.933 . S
H76 C67 0.930 . S
H77 C68 0.931 . S
H78 C69 0.931 . S
H79 C70 0.933 . S
Dy80 O83 2.307 . S
Dy80 O85 2.395 . S
Dy80 O86 2.379 . S
Dy80 O88 2.339 . S
Dy80 O90 2.298 . S
Dy80 O94 2.275 . S
Dy80 C102 2.738 . S
Dy81 O84 2.298 . S
Dy81 O87 2.275 . S
Dy81 O89 2.307 . S
Dy81 O91 2.395 . S
Dy81 O92 2.379 . S
Dy81 O95 2.339 1_556 S
Dy81 C111 2.738 . S
C82 O94 1.254 1_554 S
C82 O95 1.257 . S
O83 Dy80 2.307 . S
O83 C93 1.266 . S
O84 Dy81 2.298 . S
O84 C93 1.236 . S
O85 Dy80 2.395 . S
O85 C102 1.255 . S
O86 Dy80 2.379 . S
O86 C102 1.249 . S
O87 Dy81 2.275 . S
O87 C103 1.254 . S
O88 Dy80 2.339 . S
O88 C103 1.257 . S
O89 Dy81 2.307 . S
O89 C104 1.266 . S
O90 Dy80 2.298 . S
O90 C104 1.236 . S
O91 Dy81 2.395 . S
O91 C111 1.255 . S
O92 Dy81 2.379 . S
O92 C111 1.249 . S
C93 O83 1.266 . S
C93 O84 1.236 . S
O94 Dy80 2.275 . S
O94 C82 1.254 1_556 S
O95 Dy81 2.339 1_554 S
O95 C82 1.257 . S
C96 C99 1.344 . S
C96 C100 1.328 . S
C96 C102 1.516 . S
C97 C98 1.304 . S
C97 C101 1.323 . S
C98 C97 1.304 . S
C98 C99 1.371 . S
C98 H112 0.930 1_556 S
C99 C96 1.344 . S
C99 C98 1.371 . S
C99 H113 0.931 1_556 S
C100 C96 1.328 . S
C100 C101 1.433 . S
C100 H114 0.931 . S
C101 C97 1.323 . S
C101 C100 1.433 . S
C101 H115 0.933 . S
C102 Dy80 2.738 . S
C102 O85 1.255 . S
C102 O86 1.249 . S
C102 C96 1.516 . S
C103 O87 1.254 . S
C103 O88 1.257 . S
C104 O89 1.266 . S
C104 O90 1.236 . S
C105 C108 1.344 . S
C105 C109 1.328 . S
C105 C111 1.516 . S
C106 C107 1.304 . S
C106 C110 1.323 . S
C107 C106 1.304 . S
C107 C108 1.371 . S
C107 H116 0.930 . S
C108 C105 1.344 . S
C108 C107 1.371 . S
C108 H117 0.931 . S
C109 C105 1.328 . S
C109 C110 1.433 . S
C109 H118 0.931 . S
C110 C106 1.323 . S
C110 C109 1.433 . S
C110 H119 0.933 . S
C111 Dy81 2.738 . S
C111 O91 1.255 . S
C111 O92 1.249 . S
C111 C105 1.516 . S
H112 C98 0.930 1_554 S
H113 C99 0.931 1_554 S
H114 C100 0.931 . S
H115 C101 0.933 . S
H116 C107 0.930 . S
H117 C108 0.931 . S
H118 C109 0.931 . S
H119 C110 0.933 . S
H120 C128 0.950 . S
H121 C133 0.950 . S
H122 C130 0.950 . S
H123 C132 0.950 . S
H124 C134 0.950 . S
H125 C136 0.950 . S
H126 C138 0.950 1_554 S
H127 C139 0.950 . S
C128 H120 0.950 . S
C128 C129 1.386 . S
C128 C130 1.391 . S
C129 C128 1.386 . S
C129 C133 1.393 . S
C130 H122 0.950 . S
C130 C128 1.391 . S
C130 C131 1.400 . S
C131 C130 1.400 . S
C131 C132 1.398 1_554 S
C131 C137 1.491 1_554 S
C132 H123 0.950 . S
C132 C131 1.398 1_556 S
C132 C133 1.391 1_556 S
C133 H121 0.950 . S
C133 C129 1.393 . S
C133 C132 1.391 1_554 S
C134 H124 0.950 . S
C134 C135 1.386 . S
C134 C136 1.391 . S
C135 C134 1.386 . S
C135 C139 1.393 . S
C136 H125 0.950 . S
C136 C134 1.391 . S
C136 C137 1.400 . S
C137 C131 1.491 1_556 S
C137 C136 1.400 . S
C137 C138 1.398 . S
C138 H126 0.950 1_556 S
C138 C137 1.398 . S
C138 C139 1.391 . S
C139 H127 0.950 . S
C139 C135 1.393 . S
C139 C138 1.391 . S
H140 C148 0.950 . S
H141 C153 0.950 . S
H142 C150 0.950 . S
H143 C152 0.950 . S
H144 C154 0.950 . S
H145 C156 0.950 . S
H146 C158 0.950 . S
H147 C159 0.950 . S
C148 H140 0.950 . S
C148 C149 1.386 . S
C148 C150 1.391 . S
C149 C148 1.386 . S
C149 C153 1.393 . S
C150 H142 0.950 . S
C150 C148 1.391 . S
C150 C151 1.400 . S
C151 C150 1.400 . S
C151 C152 1.398 . S
C151 C157 1.491 . S
C152 H143 0.950 . S
C152 C151 1.398 . S
C152 C153 1.391 . S
C153 H141 0.950 . S
C153 C149 1.393 . S
C153 C152 1.391 . S
C154 H144 0.950 . S
C154 C155 1.386 . S
C154 C156 1.391 . S
C155 C154 1.386 . S
C155 C159 1.393 . S
C156 H145 0.950 . S
C156 C154 1.391 . S
C156 C157 1.400 . S
C157 C151 1.491 . S
C157 C156 1.400 . S
C157 C158 1.398 . S
C158 H146 0.950 . S
C158 C157 1.398 . S
C158 C159 1.391 . S
C159 H147 0.950 . S
C159 C155 1.393 . S
C159 C158 1.391 . S
H160 C168 0.950 . S
H161 C173 0.950 . S
H162 C170 0.950 . S
H163 C172 0.950 . S
H164 C174 0.950 . S
H165 C176 0.950 . S
H166 C178 0.950 . S
H167 C179 0.950 . S
C168 H160 0.950 . S
C168 C169 1.386 . S
C168 C170 1.391 . S
C169 C168 1.386 . S
C169 C173 1.393 . S
C170 H162 0.950 . S
C170 C168 1.391 . S
C170 C171 1.400 . S
C171 C170 1.400 . S
C171 C172 1.398 . S
C171 C177 1.491 . S
C172 H163 0.950 . S
C172 C171 1.398 . S
C172 C173 1.391 . S
C173 H161 0.950 . S
C173 C169 1.393 . S
C173 C172 1.391 . S
C174 H164 0.950 . S
C174 C175 1.386 . S
C174 C176 1.391 . S
C175 C174 1.386 . S
C175 C179 1.393 . S
C176 H165 0.950 . S
C176 C174 1.391 . S
C176 C177 1.400 . S
C177 C171 1.491 . S
C177 C176 1.400 . S
C177 C178 1.398 . S
C178 H166 0.950 . S
C178 C177 1.398 . S
C178 C179 1.391 . S
C179 H167 0.950 . S
C179 C175 1.393 . S
C179 C178 1.391 . S
H180 C188 0.950 . S
H181 C193 0.950 1_554 S
H182 C190 0.950 . S
H183 C192 0.950 . S
H184 C194 0.950 . S
H185 C196 0.950 . S
H186 C198 0.950 . S
H187 C199 0.950 . S
C188 H180 0.950 . S
C188 C189 1.386 . S
C188 C190 1.391 . S
C189 C188 1.386 . S
C189 C193 1.393 . S
C190 H182 0.950 . S
C190 C188 1.391 . S
C190 C191 1.400 . S
C191 C190 1.400 . S
C191 C192 1.398 1_556 S
C191 C197 1.491 1_556 S
C192 H183 0.950 . S
C192 C191 1.398 1_554 S
C192 C193 1.391 1_554 S
C193 H181 0.950 1_556 S
C193 C189 1.393 . S
C193 C192 1.391 1_556 S
C194 H184 0.950 . S
C194 C195 1.386 . S
C194 C196 1.391 . S
C195 C194 1.386 . S
C195 C199 1.393 1_554 S
C196 H185 0.950 . S
C196 C194 1.391 . S
C196 C197 1.400 . S
C197 C191 1.491 1_554 S
C197 C196 1.400 . S
C197 C198 1.398 1_554 S
C198 H186 0.950 . S
C198 C197 1.398 1_556 S
C198 C199 1.391 . S
C199 H187 0.950 . S
C199 C195 1.393 1_556 S
C199 C198 1.391 . S
H200 C208 0.950 . S
H201 C213 0.950 . S
H202 C210 0.950 . S
H203 C212 0.950 . S
H204 C214 0.950 . S
H205 C216 0.950 . S
H206 C218 0.950 . S
H207 C219 0.950 . S
C208 H200 0.950 . S
C208 C209 1.386 . S
C208 C210 1.391 . S
C209 C208 1.386 . S
C209 C213 1.393 . S
C210 H202 0.950 . S
C210 C208 1.391 . S
C210 C211 1.400 . S
C211 C210 1.400 . S
C211 C212 1.398 . S
C211 C217 1.491 . S
C212 H203 0.950 . S
C212 C211 1.398 . S
C212 C213 1.391 . S
C213 H201 0.950 . S
C213 C209 1.393 . S
C213 C212 1.391 . S
C214 H204 0.950 . S
C214 C215 1.386 . S
C214 C216 1.391 . S
C215 C214 1.386 . S
C215 C219 1.393 . S
C216 H205 0.950 . S
C216 C214 1.391 . S
C216 C217 1.400 . S
C217 C211 1.491 . S
C217 C216 1.400 . S
C217 C218 1.398 . S
C218 H206 0.950 . S
C218 C217 1.398 . S
C218 C219 1.391 . S
C219 H207 0.950 . S
C219 C215 1.393 . S
C219 C218 1.391 . S
H220 C228 0.950 . S
H221 C233 0.950 . S
H222 C230 0.950 . S
H223 C232 0.950 . S
H224 C234 0.950 . S
H225 C236 0.950 . S
H226 C238 0.950 . S
H227 C239 0.950 . S
C228 H220 0.950 . S
C228 C229 1.386 . S
C228 C230 1.391 . S
C229 C228 1.386 . S
C229 C233 1.393 . S
C230 H222 0.950 . S
C230 C228 1.391 . S
C230 C231 1.400 . S
C231 C230 1.400 . S
C231 C232 1.398 . S
C231 C237 1.491 . S
C232 H223 0.950 . S
C232 C231 1.398 . S
C232 C233 1.391 . S
C233 H221 0.950 . S
C233 C229 1.393 . S
C233 C232 1.391 . S
C234 H224 0.950 . S
C234 C235 1.386 . S
C234 C236 1.391 . S
C235 C234 1.386 . S
C235 C239 1.393 . S
C236 H225 0.950 . S
C236 C234 1.391 . S
C236 C237 1.400 . S
C237 C231 1.491 . S
C237 C236 1.400 . S
C237 C238 1.398 . S
C238 H226 0.950 . S
C238 C237 1.398 . S
C238 C239 1.391 . S
C239 H227 0.950 . S
C239 C235 1.393 . S
C239 C238 1.391 . S
H240 C248 0.950 . S
H241 C253 0.950 . S
H242 C250 0.950 . S
H243 C252 0.950 . S
H244 C254 0.950 . S
H245 C256 0.950 . S
H246 C258 0.950 . S
H247 C259 0.950 . S
C248 H240 0.950 . S
C248 C249 1.386 1_655 S
C248 C250 1.391 . S
C249 C248 1.386 1_455 S
C249 C253 1.393 . S
C250 H242 0.950 . S
C250 C248 1.391 . S
C250 C251 1.400 1_655 S
C251 C250 1.400 1_455 S
C251 C252 1.398 . S
C251 C257 1.491 . S
C252 H243 0.950 . S
C252 C251 1.398 . S
C252 C253 1.391 . S
C253 H241 0.950 . S
C253 C249 1.393 . S
C253 C252 1.391 . S
C254 H244 0.950 . S
C254 C255 1.386 . S
C254 C256 1.391 . S
C255 C254 1.386 . S
C255 C259 1.393 1_455 S
C256 H245 0.950 . S
C256 C254 1.391 . S
C256 C257 1.400 . S
C257 C251 1.491 . S
C257 C256 1.400 . S
C257 C258 1.398 1_455 S
C258 H246 0.950 . S
C258 C257 1.398 1_655 S
C258 C259 1.391 . S
C259 H247 0.950 . S
C259 C255 1.393 1_655 S
C259 C258 1.391 . S
H260 C268 0.950 . S
H261 C273 0.948 1_565 S
H262 C270 0.950 . S
H263 C272 0.950 . S
H264 C274 0.950 . S
H265 C276 0.950 . S
H266 C278 0.950 . S
H267 C279 0.950 . S
C268 H260 0.950 . S
C268 C269 1.386 . S
C268 C270 1.391 . S
C269 C268 1.386 . S
C269 C273 1.395 . S
C270 H262 0.950 . S
C270 C268 1.391 . S
C270 C271 1.400 . S
C271 C270 1.400 . S
C271 C272 1.398 1_545 S
C271 C277 1.491 1_554 S
C272 H263 0.950 . S
C272 C271 1.398 1_565 S
C272 C273 1.391 1_565 S
C273 H261 0.948 1_545 S
C273 C269 1.395 . S
C273 C272 1.391 1_545 S
C274 H264 0.950 . S
C274 C275 1.386 1_565 S
C274 C276 1.391 . S
C275 C274 1.386 1_545 S
C275 C279 1.393 . S
C276 H265 0.950 . S
C276 C274 1.391 . S
C276 C277 1.400 1_565 S
C277 C271 1.491 1_556 S
C277 C276 1.400 1_545 S
C277 C278 1.398 . S
C278 H266 0.950 . S
C278 C277 1.398 . S
C278 C279 1.391 . S
C279 H267 0.950 . S
C279 C275 1.393 . S
C279 C278 1.391 . S
H280 C288 0.950 . S
H281 C293 0.950 . S
H282 C290 0.950 . S
H283 C292 0.950 . S
H284 C294 0.950 . S
H285 C296 0.950 . S
H286 C298 0.950 . S
H287 C299 0.950 . S
C288 H280 0.950 . S
C288 C289 1.386 . S
C288 C290 1.391 . S
C289 C288 1.386 . S
C289 C293 1.393 . S
C290 H282 0.950 . S
C290 C288 1.391 . S
C290 C291 1.400 . S
C291 C290 1.400 . S
C291 C292 1.398 . S
C291 C297 1.491 . S
C292 H283 0.950 . S
C292 C291 1.398 . S
C292 C293 1.391 . S
C293 H281 0.950 . S
C293 C289 1.393 . S
C293 C292 1.391 . S
C294 H284 0.950 . S
C294 C295 1.386 . S
C294 C296 1.391 . S
C295 C294 1.386 . S
C295 C299 1.393 . S
C296 H285 0.950 . S
C296 C294 1.391 . S
C296 C297 1.400 . S
C297 C291 1.491 . S
C297 C296 1.400 . S
C297 C298 1.398 . S
C298 H286 0.950 . S
C298 C297 1.398 . S
C298 C299 1.391 . S
C299 H287 0.950 . S
C299 C295 1.393 . S
C299 C298 1.391 . S
C129 C24 2.964 . S
C135 C104 2.944 . S
C149 C66 1.484 . S
C155 C26 1.504 . S
C169 C64 2.446 . S
C175 C97 2.411 . S
C189 C93 2.497 . S
C195 C13 2.510 . S
C209 C57 1.418 . S
C215 C17 1.434 . S
C229 C106 1.955 . S
C235 C53 1.916 . S
C249 C2 0.555 . S
C255 C23 0.555 . S
C269 C63 0.572 . S
C275 C42 0.572 . S
C289 C103 0.566 . S
C295 C82 0.566 . S
