# Generated by pormake.
# Topology cbo, (4)-cn, num edge types: 1
# Building blocks:
#     Node 0, Type 0, BuildingBlock: TATPOV_clean_sbu_0, # of connection points: 4
#     Node 1, Type 0, BuildingBlock: TATPOV_clean_sbu_0, # of connection points: 4
#     Node 2, Type 0, BuildingBlock: TATPOV_clean_sbu_0, # of connection points: 4
#     Node 3, Type 0, BuildingBlock: TATPOV_clean_sbu_0, # of connection points: 4
#     Node 4, Type 0, BuildingBlock: TATPOV_clean_sbu_0, # of connection points: 4
#     Node 5, Type 0, BuildingBlock: TATPOV_clean_sbu_0, # of connection points: 4
#     Node 6, Type 0, BuildingBlock: TATPOV_clean_sbu_0, # of connection points: 4
#     Node 7, Type 0, BuildingBlock: TATPOV_clean_sbu_0, # of connection points: 4
#     Node 8, Type 0, BuildingBlock: TATPOV_clean_sbu_0, # of connection points: 4
#     Node 9, Type 0, BuildingBlock: TATPOV_clean_sbu_0, # of connection points: 4
#     Node 10, Type 0, BuildingBlock: TATPOV_clean_sbu_0, # of connection points: 4
#     Node 11, Type 0, BuildingBlock: TATPOV_clean_sbu_0, # of connection points: 4
#     Node 12, Type 0, BuildingBlock: TATPOV_clean_sbu_0, # of connection points: 4
#     Node 13, Type 0, BuildingBlock: TATPOV_clean_sbu_0, # of connection points: 4
#     Node 14, Type 0, BuildingBlock: TATPOV_clean_sbu_0, # of connection points: 4
#     Node 15, Type 0, BuildingBlock: TATPOV_clean_sbu_0, # of connection points: 4
#     Node 16, Type 0, BuildingBlock: TATPOV_clean_sbu_0, # of connection points: 4
#     Node 17, Type 0, BuildingBlock: TATPOV_clean_sbu_0, # of connection points: 4
#     Node 18, Type 0, BuildingBlock: TATPOV_clean_sbu_0, # of connection points: 4
#     Node 19, Type 0, BuildingBlock: TATPOV_clean_sbu_0, # of connection points: 4
#     Node 20, Type 0, BuildingBlock: TATPOV_clean_sbu_0, # of connection points: 4
#     Node 21, Type 0, BuildingBlock: TATPOV_clean_sbu_0, # of connection points: 4
#     Node 22, Type 0, BuildingBlock: TATPOV_clean_sbu_0, # of connection points: 4
#     Node 23, Type 0, BuildingBlock: TATPOV_clean_sbu_0, # of connection points: 4
#     Edge 24, Type (0, 0), BuildingBlock: OJICUG_clean_linker_0, # of connection points: 2
#     Edge 25, Type (0, 0), BuildingBlock: OJICUG_clean_linker_0, # of connection points: 2
#     Edge 26, Type (0, 0), BuildingBlock: OJICUG_clean_linker_0, # of connection points: 2
#     Edge 27, Type (0, 0), BuildingBlock: OJICUG_clean_linker_0, # of connection points: 2
#     Edge 28, Type (0, 0), BuildingBlock: OJICUG_clean_linker_0, # of connection points: 2
#     Edge 29, Type (0, 0), BuildingBlock: OJICUG_clean_linker_0, # of connection points: 2
#     Edge 30, Type (0, 0), BuildingBlock: OJICUG_clean_linker_0, # of connection points: 2
#     Edge 31, Type (0, 0), BuildingBlock: OJICUG_clean_linker_0, # of connection points: 2
#     Edge 32, Type (0, 0), BuildingBlock: OJICUG_clean_linker_0, # of connection points: 2
#     Edge 33, Type (0, 0), BuildingBlock: OJICUG_clean_linker_0, # of connection points: 2
#     Edge 34, Type (0, 0), BuildingBlock: OJICUG_clean_linker_0, # of connection points: 2
#     Edge 35, Type (0, 0), BuildingBlock: OJICUG_clean_linker_0, # of connection points: 2
#     Edge 36, Type (0, 0), BuildingBlock: OJICUG_clean_linker_0, # of connection points: 2
#     Edge 37, Type (0, 0), BuildingBlock: OJICUG_clean_linker_0, # of connection points: 2
#     Edge 38, Type (0, 0), BuildingBlock: OJICUG_clean_linker_0, # of connection points: 2
#     Edge 39, Type (0, 0), BuildingBlock: OJICUG_clean_linker_0, # of connection points: 2
#     Edge 40, Type (0, 0), BuildingBlock: OJICUG_clean_linker_0, # of connection points: 2
#     Edge 41, Type (0, 0), BuildingBlock: OJICUG_clean_linker_0, # of connection points: 2
#     Edge 42, Type (0, 0), BuildingBlock: OJICUG_clean_linker_0, # of connection points: 2
#     Edge 43, Type (0, 0), BuildingBlock: OJICUG_clean_linker_0, # of connection points: 2
#     Edge 44, Type (0, 0), BuildingBlock: OJICUG_clean_linker_0, # of connection points: 2
#     Edge 45, Type (0, 0), BuildingBlock: OJICUG_clean_linker_0, # of connection points: 2
#     Edge 46, Type (0, 0), BuildingBlock: OJICUG_clean_linker_0, # of connection points: 2
#     Edge 47, Type (0, 0), BuildingBlock: OJICUG_clean_linker_0, # of connection points: 2
#     Edge 48, Type (0, 0), BuildingBlock: OJICUG_clean_linker_0, # of connection points: 2
#     Edge 49, Type (0, 0), BuildingBlock: OJICUG_clean_linker_0, # of connection points: 2
#     Edge 50, Type (0, 0), BuildingBlock: OJICUG_clean_linker_0, # of connection points: 2
#     Edge 51, Type (0, 0), BuildingBlock: OJICUG_clean_linker_0, # of connection points: 2
#     Edge 52, Type (0, 0), BuildingBlock: OJICUG_clean_linker_0, # of connection points: 2
#     Edge 53, Type (0, 0), BuildingBlock: OJICUG_clean_linker_0, # of connection points: 2
#     Edge 54, Type (0, 0), BuildingBlock: OJICUG_clean_linker_0, # of connection points: 2
#     Edge 55, Type (0, 0), BuildingBlock: OJICUG_clean_linker_0, # of connection points: 2
#     Edge 56, Type (0, 0), BuildingBlock: OJICUG_clean_linker_0, # of connection points: 2
#     Edge 57, Type (0, 0), BuildingBlock: OJICUG_clean_linker_0, # of connection points: 2
#     Edge 58, Type (0, 0), BuildingBlock: OJICUG_clean_linker_0, # of connection points: 2
#     Edge 59, Type (0, 0), BuildingBlock: OJICUG_clean_linker_0, # of connection points: 2
#     Edge 60, Type (0, 0), BuildingBlock: OJICUG_clean_linker_0, # of connection points: 2
#     Edge 61, Type (0, 0), BuildingBlock: OJICUG_clean_linker_0, # of connection points: 2
#     Edge 62, Type (0, 0), BuildingBlock: OJICUG_clean_linker_0, # of connection points: 2
#     Edge 63, Type (0, 0), BuildingBlock: OJICUG_clean_linker_0, # of connection points: 2
#     Edge 64, Type (0, 0), BuildingBlock: OJICUG_clean_linker_0, # of connection points: 2
#     Edge 65, Type (0, 0), BuildingBlock: OJICUG_clean_linker_0, # of connection points: 2
#     Edge 66, Type (0, 0), BuildingBlock: OJICUG_clean_linker_0, # of connection points: 2
#     Edge 67, Type (0, 0), BuildingBlock: OJICUG_clean_linker_0, # of connection points: 2
#     Edge 68, Type (0, 0), BuildingBlock: OJICUG_clean_linker_0, # of connection points: 2
#     Edge 69, Type (0, 0), BuildingBlock: OJICUG_clean_linker_0, # of connection points: 2
#     Edge 70, Type (0, 0), BuildingBlock: OJICUG_clean_linker_0, # of connection points: 2
#     Edge 71, Type (0, 0), BuildingBlock: OJICUG_clean_linker_0, # of connection points: 2
# Relax obj value: 0.197
# Max RMSD: 0.251
# Mean RMSD: 0.242
data_MOF--net-cbo--node1-TATPOV_clean_sbu_0--edge1-OJICUG_clean_linker_0
_symmetry_space_group_name_H-M    P1
_symmetry_Int_Tables_number       1
_symmetry_cell_setting            triclinic
loop_
_symmetry_equiv_pos_as_xyz
'x, y, z'
_cell_length_a     37.437385
_cell_length_b     37.211182
_cell_length_c     36.987888
_cell_angle_alpha  89.947484
_cell_angle_beta   90.086267
_cell_angle_gamma 89.974286
loop_
_atom_site_label
_atom_site_type_symbol
_atom_site_fract_x
_atom_site_fract_y
_atom_site_fract_z
_atom_type_partial_charge
Zn0 Zn 0.17199 0.24865 0.39948 0.0
Zn1 Zn 0.13299 0.19901 0.36988 0.0
O2 O 0.12387 0.24611 0.34154 0.0
O3 O 0.15334 0.28926 0.36862 0.0
O4 O 0.09022 0.17002 0.3543 0.0
O5 O 0.1552 0.24094 0.45033 0.0
O6 O 0.12878 0.19427 0.4259 0.0
C7 C 0.13298 0.27901 0.34333 0.0
C8 C 0.21055 0.18969 0.36051 0.0
O9 O 0.17996 0.17714 0.35196 0.0
O10 O 0.21289 0.21765 0.38009 0.0
C11 C 0.07516 0.17349 0.32363 0.0
O12 O 0.09182 0.19092 0.29778 0.0
C13 C 0.1376 0.21218 0.45392 0.0
Zn14 Zn 0.32473 0.75215 0.90296 0.0
Zn15 Zn 0.3656 0.80038 0.87334 0.0
O16 O 0.37422 0.75271 0.84588 0.0
O17 O 0.34259 0.71098 0.87277 0.0
O18 O 0.40874 0.8287 0.8572 0.0
O19 O 0.34199 0.75943 0.95357 0.0
O20 O 0.37046 0.80507 0.92944 0.0
C21 C 0.36398 0.72016 0.84799 0.0
C22 C 0.28782 0.81142 0.86327 0.0
O23 O 0.31884 0.82291 0.85482 0.0
O24 O 0.28453 0.78385 0.88329 0.0
C25 C 0.42344 0.82467 0.82647 0.0
O26 O 0.40644 0.80676 0.80115 0.0
C27 C 0.36098 0.78725 0.95733 0.0
Zn28 Zn 0.66841 0.24585 0.60427 0.0
Zn29 Zn 0.62919 0.29591 0.63356 0.0
O30 O 0.61926 0.24907 0.66191 0.0
O31 O 0.64912 0.20588 0.63531 0.0
O32 O 0.58726 0.32615 0.64935 0.0
O33 O 0.65116 0.25322 0.55361 0.0
O34 O 0.62386 0.29965 0.57753 0.0
C35 C 0.62835 0.21615 0.66018 0.0
C36 C 0.7074 0.30439 0.6429 0.0
O37 O 0.67682 0.31711 0.65122 0.0
O38 O 0.70968 0.27639 0.62339 0.0
C39 C 0.57213 0.32267 0.67994 0.0
O40 O 0.58818 0.30402 0.70539 0.0
C41 C 0.63271 0.28141 0.54974 0.0
Zn42 Zn 0.84129 0.74867 0.09806 0.0
Zn43 Zn 0.87732 0.69711 0.12747 0.0
O44 O 0.88778 0.74347 0.15671 0.0
O45 O 0.86127 0.78833 0.12922 0.0
O46 O 0.91832 0.66593 0.14364 0.0
O47 O 0.85761 0.7407 0.04714 0.0
O48 O 0.88131 0.69238 0.07131 0.0
C49 C 0.88035 0.77682 0.155 0.0
C50 C 0.79967 0.69121 0.13605 0.0
O51 O 0.82955 0.67711 0.14467 0.0
O52 O 0.79876 0.71955 0.11686 0.0
C53 C 0.93269 0.66864 0.17471 0.0
O54 O 0.91626 0.6871 0.19997 0.0
C55 C 0.87343 0.71092 0.04335 0.0
Zn56 Zn 0.39344 0.21833 0.25404 0.0
Zn57 Zn 0.37306 0.17102 0.20613 0.0
O58 O 0.34177 0.1615 0.25147 0.0
O59 O 0.36145 0.19888 0.29282 0.0
O60 O 0.35991 0.1287 0.17489 0.0
O61 O 0.44492 0.20494 0.2518 0.0
O62 O 0.42875 0.16907 0.2075 0.0
C63 C 0.33991 0.17446 0.2833 0.0
C64 C 0.35683 0.24832 0.19065 0.0
O65 O 0.35403 0.2157 0.18059 0.0
O66 O 0.37317 0.25595 0.21973 0.0
C67 C 0.32724 0.12246 0.16796 0.0
O68 O 0.30303 0.14567 0.17876 0.0
C69 C 0.45319 0.1832 0.22696 0.0
Zn70 Zn 0.10374 0.78329 0.75938 0.0
Zn71 Zn 0.12495 0.82695 0.70848 0.0
O72 O 0.15694 0.83824 0.75311 0.0
O73 O 0.13606 0.80455 0.797 0.0
O74 O 0.13854 0.86722 0.67457 0.0
O75 O 0.05233 0.79694 0.75596 0.0
O76 O 0.06924 0.82967 0.70953 0.0
C77 C 0.15848 0.82742 0.7858 0.0
C78 C 0.13961 0.74854 0.69817 0.0
O79 O 0.14281 0.78036 0.68583 0.0
O80 O 0.12347 0.74315 0.72783 0.0
C81 C 0.17098 0.87197 0.66565 0.0
O82 O 0.19498 0.84848 0.6764 0.0
C83 C 0.04447 0.81707 0.72958 0.0
Zn84 Zn 0.89028 0.27355 0.74921 0.0
Zn85 Zn 0.87099 0.32055 0.79751 0.0
O86 O 0.8392 0.33079 0.75243 0.0
O87 O 0.85837 0.29369 0.71061 0.0
O88 O 0.85926 0.36318 0.82903 0.0
O89 O 0.94209 0.28559 0.7511 0.0
O90 O 0.92681 0.32128 0.79582 0.0
C91 C 0.83702 0.31814 0.72046 0.0
C92 C 0.85359 0.24346 0.81242 0.0
O93 O 0.85132 0.276 0.82289 0.0
O94 O 0.86965 0.23594 0.7832 0.0
C95 C 0.82702 0.36972 0.83753 0.0
O96 O 0.80216 0.34662 0.8281 0.0
C97 C 0.95091 0.30686 0.77617 0.0
Zn98 Zn 0.61594 0.72448 0.24154 0.0
Zn99 Zn 0.63829 0.67797 0.29091 0.0
O100 O 0.66856 0.66796 0.24527 0.0
O101 O 0.64813 0.70435 0.20329 0.0
O102 O 0.65604 0.63799 0.32336 0.0
O103 O 0.56532 0.70844 0.24551 0.0
O104 O 0.58286 0.67272 0.28958 0.0
C105 C 0.66987 0.68019 0.21311 0.0
C106 C 0.6521 0.75696 0.30343 0.0
O107 O 0.65552 0.72461 0.31426 0.0
O108 O 0.6355 0.76365 0.27427 0.0
C109 C 0.63749 0.61741 0.34338 0.0
O110 O 0.60294 0.62287 0.34612 0.0
C111 C 0.55796 0.68596 0.27003 0.0
Zn112 Zn 0.20673 0.40625 0.18482 0.0
Zn113 Zn 0.17284 0.36393 0.13819 0.0
O114 O 0.22444 0.34473 0.13935 0.0
O115 O 0.25309 0.38007 0.17707 0.0
O116 O 0.15165 0.33451 0.09776 0.0
O117 O 0.19584 0.44975 0.1556 0.0
O118 O 0.16594 0.41534 0.11769 0.0
C119 C 0.25304 0.35342 0.15584 0.0
C120 C 0.15053 0.36359 0.2176 0.0
O121 O 0.14667 0.35083 0.18577 0.0
O122 O 0.17306 0.38837 0.22332 0.0
C123 C 0.16129 0.30216 0.09266 0.0
O124 O 0.18071 0.2861 0.1175 0.0
C125 C 0.17723 0.44613 0.12734 0.0
Zn126 Zn 0.70237 0.08681 0.81603 0.0
Zn127 Zn 0.66893 0.12831 0.86356 0.0
O128 O 0.72068 0.14717 0.86247 0.0
O129 O 0.74906 0.1123 0.82419 0.0
O130 O 0.64847 0.15741 0.90448 0.0
O131 O 0.69087 0.04278 0.84403 0.0
O132 O 0.66131 0.07652 0.88278 0.0
C133 C 0.74919 0.13862 0.84583 0.0
C134 C 0.64593 0.13034 0.78452 0.0
O135 O 0.64232 0.1425 0.81659 0.0
O136 O 0.66852 0.10578 0.77816 0.0
C137 C 0.65793 0.18986 0.90919 0.0
O138 O 0.67667 0.20593 0.8839 0.0
C139 C 0.67215 0.04585 0.87223 0.0
Zn140 Zn 0.80709 0.91023 0.30743 0.0
Zn141 Zn 0.83708 0.86883 0.35761 0.0
O142 O 0.78491 0.85182 0.35482 0.0
O143 O 0.75899 0.88699 0.31493 0.0
O144 O 0.85486 0.84058 0.40085 0.0
O145 O 0.81995 0.95495 0.33363 0.0
O146 O 0.84479 0.92114 0.37569 0.0
C147 C 0.75724 0.8611 0.33707 0.0
C148 C 0.86228 0.86343 0.27907 0.0
O149 O 0.86471 0.85215 0.31167 0.0
O150 O 0.84083 0.88862 0.2713 0.0
C151 C 0.84336 0.80902 0.40704 0.0
O152 O 0.8245 0.79271 0.38197 0.0
C153 C 0.83649 0.95196 0.36326 0.0
Zn154 Zn 0.28879 0.58818 0.69455 0.0
Zn155 Zn 0.32132 0.63093 0.64659 0.0
O156 O 0.26963 0.64889 0.64954 0.0
O157 O 0.24161 0.61344 0.68757 0.0
O158 O 0.33845 0.66293 0.60628 0.0
O159 O 0.3008 0.54497 0.66516 0.0
O160 O 0.32918 0.57962 0.62626 0.0
C161 C 0.2413 0.64013 0.66635 0.0
C162 C 0.34555 0.63237 0.7252 0.0
O163 O 0.34874 0.64463 0.69309 0.0
O164 O 0.32319 0.60764 0.73179 0.0
C165 C 0.35996 0.65361 0.58144 0.0
O166 O 0.37679 0.62273 0.58412 0.0
C167 C 0.31892 0.54868 0.63662 0.0
Zn168 Zn 0.78475 0.74292 0.6157 0.0
Zn169 Zn 0.84477 0.77545 0.63745 0.0
O170 O 0.84718 0.72602 0.66255 0.0
O171 O 0.7996 0.69784 0.64223 0.0
O172 O 0.89148 0.79814 0.65238 0.0
O173 O 0.79755 0.75036 0.56331 0.0
O174 O 0.8463 0.77804 0.58141 0.0
C175 C 0.82718 0.69831 0.66211 0.0
C176 C 0.77245 0.80308 0.66382 0.0
O177 O 0.8064 0.80542 0.66269 0.0
O178 O 0.75648 0.77963 0.64491 0.0
C179 C 0.89811 0.80296 0.68574 0.0
O180 O 0.87357 0.79445 0.70963 0.0
C181 C 0.82619 0.76684 0.55593 0.0
Zn182 Zn 0.71206 0.25992 0.11684 0.0
Zn183 Zn 0.65277 0.22507 0.13784 0.0
O184 O 0.64913 0.27382 0.16364 0.0
O185 O 0.69589 0.30392 0.14428 0.0
O186 O 0.60663 0.20118 0.15216 0.0
O187 O 0.69921 0.25307 0.06437 0.0
O188 O 0.65145 0.22348 0.08204 0.0
C189 C 0.66826 0.30212 0.16394 0.0
C190 C 0.72558 0.19867 0.16369 0.0
O191 O 0.69171 0.19549 0.16246 0.0
O192 O 0.74093 0.22305 0.14544 0.0
C193 C 0.59991 0.19645 0.1855 0.0
O194 O 0.62413 0.20564 0.20953 0.0
C195 C 0.6711 0.23575 0.05676 0.0
Zn196 Zn 0.29409 0.73973 0.3829 0.0
Zn197 Zn 0.35487 0.71113 0.35769 0.0
O198 O 0.35455 0.76191 0.33569 0.0
O199 O 0.30651 0.78693 0.3588 0.0
O200 O 0.40239 0.69159 0.34186 0.0
O201 O 0.30846 0.72919 0.43448 0.0
O202 O 0.3575 0.70481 0.41296 0.0
C203 C 0.33349 0.7887 0.33822 0.0
C204 C 0.2837 0.68181 0.3311 0.0
O205 O 0.31772 0.68089 0.3313 0.0
O206 O 0.26723 0.70342 0.35171 0.0
C207 C 0.40989 0.68858 0.30853 0.0
O208 O 0.3855 0.697 0.28437 0.0
C209 C 0.33785 0.71319 0.43975 0.0
Zn210 Zn 0.21467 0.23631 0.88412 0.0
Zn211 Zn 0.15357 0.26775 0.86344 0.0
O212 O 0.15232 0.21877 0.8376 0.0
O213 O 0.20085 0.19146 0.85692 0.0
O214 O 0.10611 0.28947 0.84949 0.0
O215 O 0.20219 0.24223 0.93665 0.0
O216 O 0.15277 0.26934 0.91942 0.0
C217 C 0.17307 0.19161 0.83733 0.0
C218 C 0.22479 0.29787 0.83713 0.0
O219 O 0.1908 0.29921 0.83843 0.0
O220 O 0.24154 0.27449 0.8555 0.0
C221 C 0.09852 0.29355 0.81623 0.0
O222 O 0.12253 0.28487 0.79186 0.0
C223 C 0.17331 0.25805 0.94453 0.0
Zn224 Zn 0.71399 0.84336 0.87558 0.0
Zn225 Zn 0.64818 0.83352 0.85191 0.0
O226 O 0.66172 0.78543 0.87675 0.0
O227 O 0.71534 0.79468 0.89916 0.0
O228 O 0.59482 0.83018 0.84446 0.0
O229 O 0.70336 0.8881 0.90375 0.0
O230 O 0.65075 0.88206 0.8784 0.0
C231 C 0.68903 0.77396 0.89392 0.0
C232 C 0.70531 0.84276 0.79603 0.0
O233 O 0.67246 0.83631 0.80247 0.0
O234 O 0.72703 0.84741 0.82202 0.0
C235 C 0.57692 0.83544 0.81568 0.0
O236 O 0.59362 0.8416 0.7851 0.0
C237 C 0.67242 0.9003 0.89758 0.0
Zn238 Zn 0.78584 0.15322 0.37439 0.0
Zn239 Zn 0.85094 0.1669 0.35054 0.0
O240 O 0.83568 0.21366 0.37674 0.0
O241 O 0.78282 0.20133 0.39934 0.0
O242 O 0.90397 0.17231 0.34284 0.0
O243 O 0.79872 0.10764 0.40073 0.0
O244 O 0.85049 0.11729 0.37493 0.0
C245 C 0.80805 0.22344 0.39436 0.0
C246 C 0.79403 0.15708 0.29474 0.0
O247 O 0.82658 0.1648 0.30127 0.0
O248 O 0.77272 0.15055 0.32063 0.0
C249 C 0.92157 0.16362 0.31479 0.0
O250 O 0.9046 0.15274 0.28569 0.0
C251 C 0.83003 0.09713 0.39348 0.0
Zn252 Zn 0.22067 0.64786 0.11878 0.0
Zn253 Zn 0.15548 0.65609 0.14526 0.0
O254 O 0.16728 0.70502 0.12174 0.0
O255 O 0.21999 0.69752 0.09678 0.0
O256 O 0.10258 0.65833 0.15456 0.0
O257 O 0.20935 0.60329 0.09018 0.0
O258 O 0.15776 0.60848 0.11757 0.0
C259 C 0.19362 0.71761 0.10394 0.0
C260 C 0.21452 0.64597 0.19872 0.0
O261 O 0.18137 0.652 0.19359 0.0
O262 O 0.23543 0.64264 0.17191 0.0
C263 C 0.08562 0.65484 0.1841 0.0
O264 O 0.10323 0.65141 0.21465 0.0
C265 C 0.17881 0.59069 0.09736 0.0
Zn266 Zn 0.28247 0.34435 0.62622 0.0
Zn267 Zn 0.34832 0.33593 0.65018 0.0
O268 O 0.33621 0.28799 0.62436 0.0
O269 O 0.28262 0.29618 0.60147 0.0
O270 O 0.40163 0.3335 0.6582 0.0
O271 O 0.29187 0.39033 0.59952 0.0
O272 O 0.34446 0.38525 0.62516 0.0
C273 C 0.30942 0.27607 0.6067 0.0
C274 C 0.29066 0.34213 0.70578 0.0
O275 O 0.32372 0.33689 0.69942 0.0
O276 O 0.26893 0.34661 0.67976 0.0
C277 C 0.41887 0.33674 0.68767 0.0
O278 O 0.40145 0.34024 0.71827 0.0
C279 C 0.32227 0.40342 0.60644 0.0
Zn280 Zn 0.75197 0.57618 0.83021 0.0
Zn281 Zn 0.81065 0.59657 0.86585 0.0
O282 O 0.768 0.62644 0.88391 0.0
O283 O 0.71876 0.61049 0.8561 0.0
O284 O 0.84759 0.61369 0.90203 0.0
O285 O 0.75881 0.52497 0.84633 0.0
O286 O 0.81048 0.54094 0.86983 0.0
C287 C 0.73462 0.63048 0.87863 0.0
C288 C 0.80876 0.60968 0.78575 0.0
O289 O 0.82575 0.61376 0.81539 0.0
O290 O 0.77854 0.59418 0.78557 0.0
C291 C 0.8524 0.64749 0.90403 0.0
O292 O 0.83784 0.66808 0.87915 0.0
C293 C 0.78797 0.51652 0.86151 0.0
Zn294 Zn 0.25152 0.91508 0.17521 0.0
Zn295 Zn 0.31074 0.89652 0.13871 0.0
O296 O 0.26867 0.8665 0.12004 0.0
O297 O 0.21907 0.88067 0.14801 0.0
O298 O 0.34737 0.88056 0.10205 0.0
O299 O 0.25823 0.96683 0.1601 0.0
O300 O 0.30961 0.95188 0.13544 0.0
C301 C 0.23539 0.86164 0.125 0.0
C302 C 0.30952 0.88145 0.21847 0.0
O303 O 0.32646 0.87875 0.1887 0.0
O304 O 0.27885 0.89607 0.21917 0.0
C305 C 0.35178 0.84677 0.09936 0.0
O306 O 0.33798 0.82598 0.12446 0.0
C307 C 0.28699 0.97586 0.14457 0.0
Zn308 Zn 0.25109 0.07529 0.66614 0.0
Zn309 Zn 0.19201 0.0961 0.6314 0.0
O310 O 0.23445 0.12665 0.6142 0.0
O311 O 0.28418 0.11047 0.64092 0.0
O312 O 0.1554 0.11386 0.59532 0.0
O313 O 0.24411 0.02416 0.64948 0.0
O314 O 0.19213 0.04065 0.62707 0.0
C315 C 0.26782 0.13096 0.61917 0.0
C316 C 0.19375 0.10732 0.7114 0.0
O317 O 0.17659 0.11199 0.68195 0.0
O318 O 0.22421 0.09227 0.71107 0.0
C319 C 0.15131 0.14778 0.59375 0.0
O320 O 0.16573 0.16761 0.61928 0.0
C321 C 0.21456 0.016 0.63493 0.0
Zn322 Zn 0.73751 0.42164 0.33725 0.0
Zn323 Zn 0.67954 0.39654 0.37082 0.0
O324 O 0.72336 0.36801 0.38811 0.0
O325 O 0.7723 0.38804 0.36271 0.0
O326 O 0.64357 0.37697 0.40627 0.0
O327 O 0.72689 0.47215 0.35417 0.0
O328 O 0.67635 0.45163 0.37628 0.0
C329 C 0.757 0.36596 0.38361 0.0
C330 C 0.68277 0.38663 0.29075 0.0
O331 O 0.66553 0.38061 0.31984 0.0
O332 O 0.71229 0.40343 0.29177 0.0
C333 C 0.64121 0.34294 0.40844 0.0
O334 O 0.65681 0.32338 0.38346 0.0
C335 C 0.69688 0.47795 0.36884 0.0
C336 C 0.13868 0.36089 0.28395 0.0
C337 C 0.13445 0.34553 0.24944 0.0
H338 H 0.14101 0.35189 0.34102 0.0
C339 C 0.12152 0.31017 0.24692 0.0
H340 H 0.14799 0.38829 0.28693 0.0
C341 C 0.11725 0.28929 0.27817 0.0
C342 C 0.12604 0.3034 0.31237 0.0
H343 H 0.11776 0.29759 0.22079 0.0
H344 H 0.11022 0.26123 0.27513 0.0
C345 C 0.13466 0.34001 0.31507 0.0
C346 C 0.37967 0.70809 0.78328 0.0
C347 C 0.37101 0.69493 0.81787 0.0
H348 H 0.37875 0.69822 0.7262 0.0
C349 C 0.36242 0.65842 0.82173 0.0
H350 H 0.38666 0.73606 0.7794 0.0
C351 C 0.35821 0.63668 0.79129 0.0
C352 C 0.36214 0.65111 0.75634 0.0
H353 H 0.35621 0.6473 0.84806 0.0
H354 H 0.34886 0.6094 0.79514 0.0
C355 C 0.37517 0.68635 0.7527 0.0
C356 C 0.62863 0.15488 0.68767 0.0
C357 C 0.62089 0.19165 0.69084 0.0
H358 H 0.64144 0.1061 0.71518 0.0
C359 C 0.61281 0.20565 0.72523 0.0
H360 H 0.63437 0.14313 0.66152 0.0
C361 C 0.61712 0.1844 0.75622 0.0
C362 C 0.6294 0.14883 0.75318 0.0
H363 H 0.60648 0.23384 0.7286 0.0
H364 H 0.61407 0.19683 0.78251 0.0
C365 C 0.63269 0.13365 0.71851 0.0
C366 C 0.88247 0.8378 0.18307 0.0
C367 C 0.88751 0.80057 0.18638 0.0
H368 H 0.87188 0.88729 0.21018 0.0
C369 C 0.89265 0.78588 0.22113 0.0
H370 H 0.87896 0.85006 0.15673 0.0
C371 C 0.8883 0.80727 0.25203 0.0
C372 C 0.87892 0.84369 0.24858 0.0
H373 H 0.89676 0.75728 0.22464 0.0
H374 H 0.88903 0.79456 0.27838 0.0
C375 C 0.87841 0.85914 0.21382 0.0
C376 C 0.30867 0.17909 0.34253 0.0
C377 C 0.30857 0.16703 0.30657 0.0
H378 H 0.2775 0.19504 0.38808 0.0
C379 C 0.27619 0.15495 0.2914 0.0
H380 H 0.33319 0.18811 0.3552 0.0
C381 C 0.24401 0.15899 0.31038 0.0
C382 C 0.24387 0.17514 0.34471 0.0
H383 H 0.27522 0.14544 0.26374 0.0
H384 H 0.21913 0.15243 0.29693 0.0
C385 C 0.27669 0.18314 0.36136 0.0
C386 C 0.25516 0.84085 0.81168 0.0
C387 C 0.25499 0.82663 0.84689 0.0
H388 H 0.22408 0.8529 0.76439 0.0
C389 C 0.22203 0.82083 0.86407 0.0
H390 H 0.28016 0.84563 0.79778 0.0
C391 C 0.19005 0.82509 0.84514 0.0
C392 C 0.19028 0.83508 0.80851 0.0
H393 H 0.22102 0.81043 0.89142 0.0
H394 H 0.16533 0.81772 0.85842 0.0
C395 C 0.22297 0.84504 0.79257 0.0
C396 C 0.77326 0.33791 0.71264 0.0
C397 C 0.80559 0.32602 0.69731 0.0
H398 H 0.71617 0.34064 0.70708 0.0
C399 C 0.80558 0.31455 0.66115 0.0
H400 H 0.77236 0.34694 0.74046 0.0
C401 C 0.77355 0.31088 0.64221 0.0
C402 C 0.74077 0.31871 0.65893 0.0
H403 H 0.83005 0.30567 0.64834 0.0
H404 H 0.77428 0.29941 0.61531 0.0
C405 C 0.74101 0.33428 0.69354 0.0
C406 C 0.76489 0.661 0.18543 0.0
C407 C 0.76571 0.67801 0.15151 0.0
H408 H 0.73322 0.64777 0.23179 0.0
C409 C 0.73331 0.68801 0.13512 0.0
H410 H 0.78945 0.65288 0.19864 0.0
C411 C 0.70121 0.68499 0.15392 0.0
C412 C 0.70084 0.67208 0.18961 0.0
H413 H 0.73304 0.70058 0.10868 0.0
H414 H 0.67713 0.69545 0.14149 0.0
C415 C 0.73262 0.65807 0.20439 0.0
C416 C 0.3412 0.31292 0.18246 0.0
C417 C 0.33611 0.27689 0.17237 0.0
H418 H 0.31907 0.36577 0.18444 0.0
C419 C 0.30708 0.26813 0.1499 0.0
H420 H 0.36366 0.32067 0.19922 0.0
C421 C 0.28137 0.29411 0.14139 0.0
C422 C 0.28436 0.32917 0.15525 0.0
H423 H 0.30256 0.24064 0.14142 0.0
H424 H 0.25783 0.28592 0.12647 0.0
C425 C 0.31559 0.33881 0.17397 0.0
C426 C 0.83761 0.1789 0.82009 0.0
C427 C 0.83264 0.2149 0.83039 0.0
H428 H 0.81527 0.12618 0.81758 0.0
C429 C 0.80354 0.22366 0.85268 0.0
H430 H 0.86011 0.17114 0.80344 0.0
C431 C 0.77768 0.19774 0.86084 0.0
C432 C 0.7806 0.16274 0.84678 0.0
H433 H 0.7991 0.25112 0.86128 0.0
H434 H 0.75411 0.20595 0.87562 0.0
C435 C 0.81186 0.15308 0.8282 0.0
C436 C 0.72612 0.80386 0.3538 0.0
C437 C 0.72508 0.83797 0.33739 0.0
H438 H 0.70327 0.7512 0.35625 0.0
C439 C 0.69529 0.84723 0.31621 0.0
H440 H 0.74846 0.79601 0.37069 0.0
C441 C 0.66934 0.82159 0.30804 0.0
C442 C 0.6727 0.78616 0.32084 0.0
H443 H 0.6933 0.87349 0.3037 0.0
H444 H 0.64813 0.82887 0.28946 0.0
C445 C 0.70013 0.77813 0.34556 0.0
C446 C 0.18731 0.72522 0.65701 0.0
C447 C 0.15956 0.71846 0.68163 0.0
H448 H 0.23502 0.70531 0.63236 0.0
C449 C 0.15503 0.68337 0.695 0.0
H450 H 0.19136 0.75188 0.64599 0.0
C451 C 0.18004 0.65669 0.68724 0.0
C452 C 0.21011 0.66458 0.66599 0.0
H453 H 0.13354 0.67711 0.71355 0.0
H454 H 0.17712 0.63067 0.70006 0.0
C455 C 0.21241 0.69848 0.64926 0.0
C456 C 0.80512 0.61756 0.71884 0.0
C457 C 0.82149 0.62658 0.75183 0.0
H458 H 0.79496 0.63269 0.66405 0.0
C459 C 0.846 0.65519 0.75254 0.0
H460 H 0.7866 0.59525 0.71717 0.0
C461 C 0.85091 0.67674 0.72183 0.0
C462 C 0.83136 0.66997 0.69 0.0
H463 H 0.85923 0.66267 0.77748 0.0
H464 H 0.86766 0.70037 0.72405 0.0
C465 C 0.81002 0.63898 0.68827 0.0
C466 C 0.64297 0.32136 0.2236 0.0
C467 C 0.66313 0.32947 0.19254 0.0
H468 H 0.63327 0.33333 0.27943 0.0
C469 C 0.68412 0.36074 0.19237 0.0
H470 H 0.62642 0.29751 0.2246 0.0
C471 C 0.68812 0.38111 0.22375 0.0
C472 C 0.67116 0.3707 0.25599 0.0
H473 H 0.69962 0.36805 0.16876 0.0
H474 H 0.70638 0.40368 0.2233 0.0
C475 C 0.64698 0.34183 0.25512 0.0
C476 C 0.31215 0.8478 0.31458 0.0
C477 C 0.33568 0.81852 0.3117 0.0
H478 H 0.2858 0.89101 0.28741 0.0
C479 C 0.3558 0.8146 0.27981 0.0
H480 H 0.29657 0.8519 0.33889 0.0
C481 C 0.3495 0.83709 0.25006 0.0
C482 C 0.32301 0.86383 0.25176 0.0
H483 H 0.37425 0.79239 0.27671 0.0
H484 H 0.36341 0.83171 0.22498 0.0
C485 C 0.30586 0.87017 0.28494 0.0
C486 C 0.19739 0.11328 0.77847 0.0
C487 C 0.18069 0.12284 0.74578 0.0
H488 H 0.20715 0.12702 0.83366 0.0
C489 C 0.15523 0.15062 0.74594 0.0
H490 H 0.21661 0.09152 0.77946 0.0
C491 C 0.14967 0.17102 0.77727 0.0
C492 C 0.16953 0.1639 0.80883 0.0
H493 H 0.1417 0.15843 0.72125 0.0
H494 H 0.13217 0.19416 0.77575 0.0
C495 C 0.19184 0.13355 0.80966 0.0
C496 C 0.75497 0.851 0.75164 0.0
C497 C 0.7195 0.84075 0.7587 0.0
H498 H 0.79936 0.84806 0.71552 0.0
C499 C 0.69961 0.82444 0.73096 0.0
H500 H 0.77088 0.86419 0.7722 0.0
C501 C 0.71601 0.81515 0.69829 0.0
C502 C 0.75257 0.82212 0.69272 0.0
H503 H 0.67212 0.81652 0.73539 0.0
H504 H 0.70067 0.80022 0.67852 0.0
C505 C 0.77129 0.84191 0.71897 0.0
C506 C 0.72776 0.15841 0.21779 0.0
C507 C 0.74597 0.17931 0.19206 0.0
H508 H 0.72883 0.13478 0.27045 0.0
C509 C 0.78237 0.18694 0.19777 0.0
H510 H 0.69983 0.15171 0.21417 0.0
C511 C 0.79906 0.17719 0.2302 0.0
C512 C 0.77961 0.15975 0.25752 0.0
H513 H 0.79731 0.20272 0.17837 0.0
H514 H 0.82639 0.1856 0.2348 0.0
C515 C 0.74437 0.14885 0.25022 0.0
C516 C 0.22692 0.66906 0.29743 0.0
C517 C 0.26389 0.66349 0.30168 0.0
H518 H 0.18208 0.66761 0.26144 0.0
C519 C 0.28272 0.64599 0.27396 0.0
H520 H 0.21151 0.68219 0.31836 0.0
C521 C 0.26589 0.63787 0.24126 0.0
C522 C 0.22981 0.64686 0.23567 0.0
H523 H 0.31113 0.64094 0.27639 0.0
H524 H 0.28176 0.62651 0.21964 0.0
C525 C 0.21002 0.66077 0.26472 0.0
C526 C 0.29688 0.323 0.77055 0.0
C527 C 0.27643 0.33895 0.74299 0.0
H528 H 0.29665 0.29797 0.82266 0.0
C529 C 0.24058 0.34777 0.75007 0.0
H530 H 0.32467 0.31621 0.76611 0.0
C531 C 0.22456 0.33757 0.78257 0.0
C532 C 0.24398 0.3181 0.80858 0.0
H533 H 0.22423 0.36066 0.72965 0.0
H534 H 0.19627 0.34261 0.78602 0.0
C535 C 0.28078 0.31261 0.80304 0.0
C536 C 0.68354 0.67415 0.87872 0.0
C537 C 0.71674 0.66315 0.89278 0.0
H538 H 0.64811 0.71823 0.86867 0.0
C539 C 0.73585 0.68711 0.91492 0.0
H540 H 0.66789 0.65625 0.86191 0.0
C541 C 0.72448 0.72265 0.91882 0.0
C542 C 0.69377 0.73495 0.90067 0.0
H543 H 0.76124 0.67939 0.92671 0.0
H544 H 0.74146 0.74118 0.93347 0.0
C545 C 0.67212 0.70977 0.88266 0.0
C546 C 0.17515 0.78084 0.11795 0.0
C547 C 0.19737 0.75699 0.09886 0.0
H548 H 0.16954 0.83334 0.1409 0.0
C549 C 0.22763 0.77084 0.0812 0.0
H550 H 0.15143 0.77119 0.13158 0.0
C551 C 0.23801 0.8065 0.08654 0.0
C552 C 0.21835 0.82903 0.10966 0.0
H553 H 0.24505 0.75339 0.06578 0.0
H554 H 0.2631 0.81538 0.07501 0.0
C555 C 0.18558 0.81657 0.12333 0.0
C556 C 0.27569 0.22417 0.5807 0.0
C557 C 0.30583 0.23702 0.59937 0.0
H558 H 0.24034 0.18 0.57164 0.0
C559 C 0.328 0.21214 0.61725 0.0
H560 H 0.25832 0.24247 0.56616 0.0
C561 C 0.31761 0.17611 0.62046 0.0
C562 C 0.28493 0.1644 0.6058 0.0
H563 H 0.3516 0.22103 0.63165 0.0
H564 H 0.33357 0.15837 0.63719 0.0
C565 C 0.26535 0.18823 0.58387 0.0
C566 C 0.80955 0.32401 0.38206 0.0
C567 C 0.77605 0.33333 0.39648 0.0
H568 H 0.84655 0.28161 0.37065 0.0
C569 C 0.75782 0.30785 0.41765 0.0
H570 H 0.82449 0.34305 0.36589 0.0
C571 C 0.77046 0.27261 0.42037 0.0
C572 C 0.80163 0.26208 0.40201 0.0
H573 H 0.7322 0.31422 0.42965 0.0
H574 H 0.75419 0.25298 0.43437 0.0
C575 C 0.82225 0.28868 0.38483 0.0
C576 C 0.12918 0.14422 0.5296 0.0
C577 C 0.13912 0.16504 0.55971 0.0
H578 H 0.12026 0.14296 0.47236 0.0
C579 C 0.14239 0.20245 0.55543 0.0
H580 H 0.1262 0.11536 0.53199 0.0
C581 C 0.13923 0.2182 0.52127 0.0
C582 C 0.13239 0.19697 0.49063 0.0
H583 H 0.14969 0.21941 0.57804 0.0
H584 H 0.14411 0.24677 0.51863 0.0
C585 C 0.12571 0.16007 0.49539 0.0
C586 C 0.37189 0.85271 0.03475 0.0
C587 C 0.36312 0.8308 0.06447 0.0
H588 H 0.37869 0.85596 0.97727 0.0
C589 C 0.35994 0.79354 0.05909 0.0
H590 H 0.37476 0.88149 0.03798 0.0
C591 C 0.36191 0.77901 0.02436 0.0
C592 C 0.3675 0.80132 0.99422 0.0
H593 H 0.35354 0.77576 0.08136 0.0
H594 H 0.35708 0.75051 0.02094 0.0
C595 C 0.3742 0.83806 0.99993 0.0
C596 C 0.63514 0.28881 0.44801 0.0
C597 C 0.63009 0.32591 0.44291 0.0
H598 H 0.63956 0.24555 0.48582 0.0
C599 C 0.61967 0.34699 0.47265 0.0
H600 H 0.64285 0.27166 0.42569 0.0
C601 C 0.61761 0.33189 0.50728 0.0
C602 C 0.62615 0.29549 0.51281 0.0
H603 H 0.6153 0.37561 0.46962 0.0
H604 H 0.61178 0.3493 0.52997 0.0
C605 C 0.63333 0.27381 0.48258 0.0
C606 C 0.88121 0.65815 0.00174 0.0
C607 C 0.87702 0.69542 0.00656 0.0
H608 H 0.87692 0.61355 0.96533 0.0
C609 C 0.87072 0.71702 0.97601 0.0
H610 H 0.88615 0.64072 0.02469 0.0
C611 C 0.86559 0.70149 0.94202 0.0
C612 C 0.86638 0.66395 0.93777 0.0
H613 H 0.86771 0.74585 0.97867 0.0
H614 H 0.85879 0.71888 0.91953 0.0
C615 C 0.87582 0.64254 0.96768 0.0
C616 C 0.50188 0.17126 0.18218 0.0
C617 C 0.49136 0.17866 0.21785 0.0
H618 H 0.54471 0.17127 0.14378 0.0
C619 C 0.51764 0.18709 0.24364 0.0
H620 H 0.48221 0.16479 0.16169 0.0
C621 C 0.55338 0.19056 0.23349 0.0
C622 C 0.56352 0.18616 0.19722 0.0
H623 H 0.51035 0.19269 0.27141 0.0
H624 H 0.57265 0.1987 0.25376 0.0
C625 C 0.53765 0.17522 0.17189 0.0
C626 C 0.96084 0.8231 0.67255 0.0
C627 C 0.93451 0.81313 0.69775 0.0
H628 H 0.01645 0.83308 0.66306 0.0
C629 C 0.9441 0.80987 0.73434 0.0
H630 H 0.95423 0.82616 0.64419 0.0
C631 C 0.97967 0.81364 0.74506 0.0
C632 C 0.00641 0.82119 0.71952 0.0
H633 H 0.92447 0.80252 0.75452 0.0
H634 H 0.98648 0.809 0.77316 0.0
C635 C 0.99645 0.82732 0.68339 0.0
C636 C 0.03615 0.31405 0.83061 0.0
C637 C 0.06173 0.30316 0.80501 0.0
H638 H 0.98085 0.32466 0.84133 0.0
C639 C 0.05106 0.29858 0.76888 0.0
H640 H 0.0436 0.31811 0.85862 0.0
C641 C 0.01519 0.30209 0.75909 0.0
C642 C 0.98925 0.31075 0.7851 0.0
H643 H 0.07007 0.29045 0.74841 0.0
H644 H 0.00756 0.29652 0.73139 0.0
C645 C 1.00024 0.31806 0.82068 0.0
C646 C 0.45766 0.68741 0.26146 0.0
C647 C 0.44708 0.6811 0.29731 0.0
H648 H 0.50122 0.69352 0.22467 0.0
C649 C 0.47308 0.67097 0.3229 0.0
H650 H 0.43832 0.69498 0.24101 0.0
C651 C 0.50923 0.66969 0.31338 0.0
C652 C 0.51998 0.67897 0.27824 0.0
H653 H 0.4657 0.66557 0.35068 0.0
H654 H 0.52885 0.66374 0.3341 0.0
C655 C 0.49374 0.68657 0.25209 0.0
C656 C 0.19833 0.49303 0.08567 0.0
C657 C 0.1702 0.47828 0.10574 0.0
H658 H 0.22254 0.54099 0.0656 0.0
C659 C 0.14039 0.49949 0.11389 0.0
H660 H 0.22168 0.47699 0.07942 0.0
C661 C 0.14084 0.53626 0.1062 0.0
C662 C 0.17142 0.55216 0.09087 0.0
H663 H 0.1186 0.48854 0.12969 0.0
H664 H 0.11903 0.55268 0.11606 0.0
C665 C 0.19881 0.52974 0.07792 0.0
C666 C 0.63504 0.95514 0.88828 0.0
C667 C 0.66491 0.93872 0.90455 0.0
H668 H 0.61379 0.00368 0.86552 0.0
C669 C 0.69166 0.96065 0.91962 0.0
H670 H 0.61376 0.93909 0.87675 0.0
C671 C 0.6914 -0.00237 0.91332 0.0
C672 C 0.66416 0.0131 0.89247 0.0
H673 H 0.71479 0.94893 0.93274 0.0
H674 H 0.71441 0.01342 0.92131 0.0
C675 C 0.63485 0.99217 0.882 0.0
C676 C 0.8147 0.03492 0.41386 0.0
C677 C 0.83946 0.05877 0.39829 0.0
H678 H 0.7951 0.98082 0.41525 0.0
C679 C 0.86909 0.04452 0.37977 0.0
H680 H 0.79178 0.04495 0.42858 0.0
C681 C 0.87079 0.00782 0.3721 0.0
C682 C 0.84346 0.98487 0.38367 0.0
H683 H 0.88886 0.06205 0.3677 0.0
H684 H 0.89145 -0.00196 0.35412 0.0
C685 C 0.81667 -0.00185 0.40646 0.0
C686 C 0.30067 0.46404 0.58735 0.0
C687 C 0.32837 0.44238 0.60107 0.0
H688 H 0.27635 0.51618 0.58786 0.0
C689 C 0.35794 0.45909 0.61757 0.0
H690 H 0.2777 0.45214 0.57416 0.0
C691 C 0.35712 0.49587 0.62515 0.0
C692 C 0.32709 0.51632 0.61581 0.0
H693 H 0.3799 0.44328 0.62815 0.0
H694 H 0.37816 0.50744 0.64159 0.0
C695 C 0.29991 0.50077 0.59499 0.0
C696 C 0.8222 0.76529 0.45369 0.0
C697 C 0.84411 0.79453 0.44441 0.0
H698 H 0.79933 0.73377 0.4961 0.0
C699 C 0.86312 0.81224 0.472 0.0
H700 H 0.80721 0.75097 0.4332 0.0
C701 C 0.85875 0.80215 0.50824 0.0
C702 C 0.83496 0.77446 0.5176 0.0
H703 H 0.8803 0.83482 0.46576 0.0
H704 H 0.8727 0.81715 0.52899 0.0
C705 C 0.81751 0.75554 0.48984 0.0
C706 C 0.63609 0.18856 0.97327 0.0
C707 C 0.65553 0.20583 0.94576 0.0
H708 H 0.62544 0.18474 0.03005 0.0
C709 C 0.67659 0.23579 0.9547 0.0
H710 H 0.61948 0.16551 0.96723 0.0
C711 C 0.68034 0.24649 0.99068 0.0
C712 C 0.66276 0.22777 0.01847 0.0
H713 H 0.69185 0.24979 0.9342 0.0
H714 H 0.69809 0.26866 0.99683 0.0
C715 C 0.63952 0.19957 0.00927 0.0
C716 C 0.37419 0.67557 0.48253 0.0
C717 C 0.3479 0.70199 0.47681 0.0
H718 H 0.39892 0.63963 0.52031 0.0
C719 C 0.32923 0.71562 0.50673 0.0
H720 H 0.3892 0.66466 0.46006 0.0
C721 C 0.33507 0.7016 0.54125 0.0
C722 C 0.35944 0.6733 0.5466 0.0
H723 H 0.30914 0.73631 0.50333 0.0
H724 H 0.31907 0.71173 0.56338 0.0
C725 C 0.37981 0.66125 0.51709 0.0
C726 C 0.17972 0.25682 0.04651 0.0
C727 C 0.15846 0.28648 0.05597 0.0
H728 H 0.20111 0.22468 0.00382 0.0
C729 C 0.13848 0.30382 0.02881 0.0
H730 H 0.19538 0.24277 0.0667 0.0
C731 C 0.1416 0.29323 0.99264 0.0
C732 C 0.16508 0.26541 0.98295 0.0
H733 H 0.12171 0.32665 0.03525 0.0
H734 H 0.12715 0.30813 0.97213 0.0
C735 C 0.18318 0.24657 0.01038 0.0
C736 C 0.51651 0.83034 0.78625 0.0
C737 C 0.5374 0.83572 0.81738 0.0
H738 H 0.46385 0.82271 0.76462 0.0
C739 C 0.5202 0.84097 0.8507 0.0
H740 H 0.52902 0.82643 0.76017 0.0
C741 C 0.48302 0.83962 0.85314 0.0
C742 C 0.46209 0.83236 0.82241 0.0
H743 H 0.5355 0.84572 0.87511 0.0
H744 H 0.47084 0.84277 0.87949 0.0
C745 C 0.4792 0.82836 0.7888 0.0
C746 C 0.98162 0.16638 0.28456 0.0
C747 C 0.96105 0.16353 0.31618 0.0
H748 H 0.03415 0.1718 0.26203 0.0
C749 C 0.97852 0.16055 0.34967 0.0
H750 H 0.96882 0.16848 0.25836 0.0
C751 C 0.01572 0.16149 0.35171 0.0
C752 C 0.03638 0.16618 0.32035 0.0
H753 H 0.96342 0.15773 0.37448 0.0
H754 H 0.02814 0.16006 0.37814 0.0
C755 C 0.01898 0.1681 0.28666 0.0
C756 C 0.02597 0.66232 0.21433 0.0
C757 C 0.04612 0.65431 0.18336 0.0
H758 H 0.97394 0.67296 0.23603 0.0
C759 C 0.0282 0.64676 0.15084 0.0
H760 H 0.03906 0.66798 0.23983 0.0
C761 C 0.99107 0.64893 0.14879 0.0
C762 C 0.97093 0.65925 0.1791 0.0
H763 H 0.04295 0.63987 0.12664 0.0
H764 H 0.97837 0.64416 0.12291 0.0
C765 C 0.98868 0.66502 0.21216 0.0
C766 C 0.47652 0.34324 0.65437 0.0
C767 C 0.45842 0.33676 0.68699 0.0
H768 H 0.52656 0.34504 0.62681 0.0
C769 C 0.47845 0.3295 0.71832 0.0
H770 H 0.4619 0.34946 0.62985 0.0
C771 C 0.51574 0.32672 0.71655 0.0
C772 C 0.53371 0.33168 0.68353 0.0
H773 H 0.46525 0.32462 0.7439 0.0
H774 H 0.53036 0.31952 0.74079 0.0
C775 C 0.5137 0.34102 0.65272 0.0
C776 C 0.83367 0.46737 0.86571 0.0
C777 C 0.79766 0.47799 0.86407 0.0
H778 H 0.87132 0.42459 0.85864 0.0
C779 C 0.77129 0.45152 0.85924 0.0
H780 H 0.85463 0.48708 0.86943 0.0
C781 C 0.78082 0.41573 0.85319 0.0
C782 C 0.81695 0.40565 0.85152 0.0
H783 H 0.74328 0.45876 0.85819 0.0
H784 H 0.75985 0.39644 0.84769 0.0
C785 C 0.84324 0.43155 0.85934 0.0
C786 C 0.33208 0.02525 0.13825 0.0
C787 C 0.29632 0.01448 0.14228 0.0
H788 H 0.37002 0.06804 0.14313 0.0
C789 C 0.27027 0.04078 0.14935 0.0
H790 H 0.3528 0.00569 0.13271 0.0
C791 C 0.28011 0.07653 0.15516 0.0
C792 C 0.31625 0.08669 0.15434 0.0
H793 H 0.24243 0.03345 0.15227 0.0
H794 H 0.25955 0.09569 0.1624 0.0
C795 C 0.34198 0.06099 0.14437 0.0
C796 C 0.15695 0.9329 0.64002 0.0
C797 C 0.18234 0.90666 0.6496 0.0
H798 H 0.14731 0.98814 0.62694 0.0
C799 C 0.21879 0.91548 0.64774 0.0
H800 H 0.12866 0.92687 0.64076 0.0
C801 C 0.22947 0.95062 0.63991 0.0
C802 C 0.20395 0.97764 0.63349 0.0
H803 H 0.23909 0.89586 0.65454 0.0
H804 H 0.25767 0.95704 0.641 0.0
C805 C 0.16767 0.96802 0.63188 0.0
C806 C 0.64708 0.52219 0.37823 0.0
C807 C 0.68337 0.51537 0.37114 0.0
H808 H 0.60401 0.56001 0.37526 0.0
C809 C 0.70534 0.54416 0.36059 0.0
H810 H 0.62941 0.50069 0.38659 0.0
C811 C 0.69075 0.57809 0.35398 0.0
C812 C 0.65387 0.58406 0.35783 0.0
H813 H 0.73348 0.54002 0.35526 0.0
H814 H 0.70814 0.5991 0.34393 0.0
C815 C 0.63246 0.55622 0.37165 0.0
loop_
_geom_bond_atom_site_label_1
_geom_bond_atom_site_label_2
_geom_bond_distance
_geom_bond_site_symmetry_2
_ccdc_geom_bond_type
Zn0 O3 2.031 . S
Zn0 O5 2.049 . S
Zn0 O10 2.067 . S
Zn1 O2 1.962 . S
Zn1 O4 1.986 . S
Zn1 O6 1.996 . S
Zn1 O9 1.943 . S
O2 Zn1 1.962 . S
O2 C7 1.254 . S
O3 Zn0 2.031 . S
O3 C7 1.269 . S
O4 Zn1 1.986 . S
O4 C11 1.262 . S
O5 Zn0 2.049 . S
O5 C13 1.260 . S
O6 Zn1 1.996 . S
O6 C13 1.257 . S
C7 O2 1.254 . S
C7 O3 1.269 . S
C8 O9 1.249 . S
C8 O10 1.270 . S
O9 Zn1 1.943 . S
O9 C8 1.249 . S
O10 Zn0 2.067 . S
O10 C8 1.270 . S
C11 O4 1.262 . S
C11 O12 1.232 . S
O12 C11 1.232 . S
C13 O5 1.260 . S
C13 O6 1.257 . S
Zn14 O17 2.031 . S
Zn14 O19 2.049 . S
Zn14 O24 2.067 . S
Zn15 O16 1.962 . S
Zn15 O18 1.986 . S
Zn15 O20 1.996 . S
Zn15 O23 1.943 . S
O16 Zn15 1.962 . S
O16 C21 1.254 . S
O17 Zn14 2.031 . S
O17 C21 1.269 . S
O18 Zn15 1.986 . S
O18 C25 1.262 . S
O19 Zn14 2.049 . S
O19 C27 1.260 . S
O20 Zn15 1.996 . S
O20 C27 1.257 . S
C21 O16 1.254 . S
C21 O17 1.269 . S
C22 O23 1.249 . S
C22 O24 1.270 . S
O23 Zn15 1.943 . S
O23 C22 1.249 . S
O24 Zn14 2.067 . S
O24 C22 1.270 . S
C25 O18 1.262 . S
C25 O26 1.232 . S
O26 C25 1.232 . S
C27 O19 1.260 . S
C27 O20 1.257 . S
Zn28 O31 2.031 . S
Zn28 O33 2.049 . S
Zn28 O38 2.067 . S
Zn29 O30 1.962 . S
Zn29 O32 1.986 . S
Zn29 O34 1.996 . S
Zn29 O37 1.943 . S
O30 Zn29 1.962 . S
O30 C35 1.254 . S
O31 Zn28 2.031 . S
O31 C35 1.269 . S
O32 Zn29 1.986 . S
O32 C39 1.262 . S
O33 Zn28 2.049 . S
O33 C41 1.260 . S
O34 Zn29 1.996 . S
O34 C41 1.257 . S
C35 O30 1.254 . S
C35 O31 1.269 . S
C36 O37 1.249 . S
C36 O38 1.270 . S
O37 Zn29 1.943 . S
O37 C36 1.249 . S
O38 Zn28 2.067 . S
O38 C36 1.270 . S
C39 O32 1.262 . S
C39 O40 1.232 . S
O40 C39 1.232 . S
C41 O33 1.260 . S
C41 O34 1.257 . S
Zn42 O45 2.031 . S
Zn42 O47 2.049 . S
Zn42 O52 2.067 . S
Zn43 O44 1.962 . S
Zn43 O46 1.986 . S
Zn43 O48 1.996 . S
Zn43 O51 1.943 . S
O44 Zn43 1.962 . S
O44 C49 1.254 . S
O45 Zn42 2.031 . S
O45 C49 1.269 . S
O46 Zn43 1.986 . S
O46 C53 1.262 . S
O47 Zn42 2.049 . S
O47 C55 1.260 . S
O48 Zn43 1.996 . S
O48 C55 1.257 . S
C49 O44 1.254 . S
C49 O45 1.269 . S
C50 O51 1.249 . S
C50 O52 1.270 . S
O51 Zn43 1.943 . S
O51 C50 1.249 . S
O52 Zn42 2.067 . S
O52 C50 1.270 . S
C53 O46 1.262 . S
C53 O54 1.232 . S
O54 C53 1.232 . S
C55 O47 1.260 . S
C55 O48 1.257 . S
Zn56 O59 2.031 . S
Zn56 O61 2.049 . S
Zn56 O66 2.067 . S
Zn57 O58 1.962 . S
Zn57 O60 1.986 . S
Zn57 O62 1.996 . S
Zn57 O65 1.943 . S
O58 Zn57 1.962 . S
O58 C63 1.254 . S
O59 Zn56 2.031 . S
O59 C63 1.269 . S
O60 Zn57 1.986 . S
O60 C67 1.262 . S
O61 Zn56 2.049 . S
O61 C69 1.260 . S
O62 Zn57 1.996 . S
O62 C69 1.257 . S
C63 O58 1.254 . S
C63 O59 1.269 . S
C64 O65 1.249 . S
C64 O66 1.270 . S
O65 Zn57 1.943 . S
O65 C64 1.249 . S
O66 Zn56 2.067 . S
O66 C64 1.270 . S
C67 O60 1.262 . S
C67 O68 1.232 . S
O68 C67 1.232 . S
C69 O61 1.260 . S
C69 O62 1.257 . S
Zn70 O73 2.031 . S
Zn70 O75 2.049 . S
Zn70 O80 2.067 . S
Zn71 O72 1.962 . S
Zn71 O74 1.986 . S
Zn71 O76 1.996 . S
Zn71 O79 1.943 . S
O72 Zn71 1.962 . S
O72 C77 1.254 . S
O73 Zn70 2.031 . S
O73 C77 1.269 . S
O74 Zn71 1.986 . S
O74 C81 1.262 . S
O75 Zn70 2.049 . S
O75 C83 1.260 . S
O76 Zn71 1.996 . S
O76 C83 1.257 . S
C77 O72 1.254 . S
C77 O73 1.269 . S
C78 O79 1.249 . S
C78 O80 1.270 . S
O79 Zn71 1.943 . S
O79 C78 1.249 . S
O80 Zn70 2.067 . S
O80 C78 1.270 . S
C81 O74 1.262 . S
C81 O82 1.232 . S
O82 C81 1.232 . S
C83 O75 1.260 . S
C83 O76 1.257 . S
Zn84 O87 2.031 . S
Zn84 O89 2.049 . S
Zn84 O94 2.067 . S
Zn85 O86 1.962 . S
Zn85 O88 1.986 . S
Zn85 O90 1.996 . S
Zn85 O93 1.943 . S
O86 Zn85 1.962 . S
O86 C91 1.254 . S
O87 Zn84 2.031 . S
O87 C91 1.269 . S
O88 Zn85 1.986 . S
O88 C95 1.262 . S
O89 Zn84 2.049 . S
O89 C97 1.260 . S
O90 Zn85 1.996 . S
O90 C97 1.257 . S
C91 O86 1.254 . S
C91 O87 1.269 . S
C92 O93 1.249 . S
C92 O94 1.270 . S
O93 Zn85 1.943 . S
O93 C92 1.249 . S
O94 Zn84 2.067 . S
O94 C92 1.270 . S
C95 O88 1.262 . S
C95 O96 1.232 . S
O96 C95 1.232 . S
C97 O89 1.260 . S
C97 O90 1.257 . S
Zn98 O101 2.031 . S
Zn98 O103 2.049 . S
Zn98 O108 2.067 . S
Zn99 O100 1.962 . S
Zn99 O102 1.986 . S
Zn99 O104 1.996 . S
Zn99 O107 1.943 . S
O100 Zn99 1.962 . S
O100 C105 1.254 . S
O101 Zn98 2.031 . S
O101 C105 1.269 . S
O102 Zn99 1.986 . S
O102 C109 1.262 . S
O103 Zn98 2.049 . S
O103 C111 1.260 . S
O104 Zn99 1.996 . S
O104 C111 1.257 . S
C105 O100 1.254 . S
C105 O101 1.269 . S
C106 O107 1.249 . S
C106 O108 1.270 . S
O107 Zn99 1.943 . S
O107 C106 1.249 . S
O108 Zn98 2.067 . S
O108 C106 1.270 . S
C109 O102 1.262 . S
C109 O110 1.232 . S
O110 C109 1.232 . S
C111 O103 1.260 . S
C111 O104 1.257 . S
Zn112 O115 2.031 . S
Zn112 O117 2.049 . S
Zn112 O122 2.067 . S
Zn113 O114 1.962 . S
Zn113 O116 1.986 . S
Zn113 O118 1.996 . S
Zn113 O121 1.943 . S
O114 Zn113 1.962 . S
O114 C119 1.254 . S
O115 Zn112 2.031 . S
O115 C119 1.269 . S
O116 Zn113 1.986 . S
O116 C123 1.262 . S
O117 Zn112 2.049 . S
O117 C125 1.260 . S
O118 Zn113 1.996 . S
O118 C125 1.257 . S
C119 O114 1.254 . S
C119 O115 1.269 . S
C120 O121 1.249 . S
C120 O122 1.270 . S
O121 Zn113 1.943 . S
O121 C120 1.249 . S
O122 Zn112 2.067 . S
O122 C120 1.270 . S
C123 O116 1.262 . S
C123 O124 1.232 . S
O124 C123 1.232 . S
C125 O117 1.260 . S
C125 O118 1.257 . S
Zn126 O129 2.031 . S
Zn126 O131 2.049 . S
Zn126 O136 2.067 . S
Zn127 O128 1.962 . S
Zn127 O130 1.986 . S
Zn127 O132 1.996 . S
Zn127 O135 1.943 . S
O128 Zn127 1.962 . S
O128 C133 1.254 . S
O129 Zn126 2.031 . S
O129 C133 1.269 . S
O130 Zn127 1.986 . S
O130 C137 1.262 . S
O131 Zn126 2.049 . S
O131 C139 1.260 . S
O132 Zn127 1.996 . S
O132 C139 1.257 . S
C133 O128 1.254 . S
C133 O129 1.269 . S
C134 O135 1.249 . S
C134 O136 1.270 . S
O135 Zn127 1.943 . S
O135 C134 1.249 . S
O136 Zn126 2.067 . S
O136 C134 1.270 . S
C137 O130 1.262 . S
C137 O138 1.232 . S
O138 C137 1.232 . S
C139 O131 1.260 . S
C139 O132 1.257 . S
Zn140 O143 2.031 . S
Zn140 O145 2.049 . S
Zn140 O150 2.067 . S
Zn141 O142 1.962 . S
Zn141 O144 1.986 . S
Zn141 O146 1.996 . S
Zn141 O149 1.943 . S
O142 Zn141 1.962 . S
O142 C147 1.254 . S
O143 Zn140 2.031 . S
O143 C147 1.269 . S
O144 Zn141 1.986 . S
O144 C151 1.262 . S
O145 Zn140 2.049 . S
O145 C153 1.260 . S
O146 Zn141 1.996 . S
O146 C153 1.257 . S
C147 O142 1.254 . S
C147 O143 1.269 . S
C148 O149 1.249 . S
C148 O150 1.270 . S
O149 Zn141 1.943 . S
O149 C148 1.249 . S
O150 Zn140 2.067 . S
O150 C148 1.270 . S
C151 O144 1.262 . S
C151 O152 1.232 . S
O152 C151 1.232 . S
C153 O145 1.260 . S
C153 O146 1.257 . S
Zn154 O157 2.031 . S
Zn154 O159 2.049 . S
Zn154 O164 2.067 . S
Zn155 O156 1.962 . S
Zn155 O158 1.986 . S
Zn155 O160 1.996 . S
Zn155 O163 1.943 . S
O156 Zn155 1.962 . S
O156 C161 1.254 . S
O157 Zn154 2.031 . S
O157 C161 1.269 . S
O158 Zn155 1.986 . S
O158 C165 1.262 . S
O159 Zn154 2.049 . S
O159 C167 1.260 . S
O160 Zn155 1.996 . S
O160 C167 1.257 . S
C161 O156 1.254 . S
C161 O157 1.269 . S
C162 O163 1.249 . S
C162 O164 1.270 . S
O163 Zn155 1.943 . S
O163 C162 1.249 . S
O164 Zn154 2.067 . S
O164 C162 1.270 . S
C165 O158 1.262 . S
C165 O166 1.232 . S
O166 C165 1.232 . S
C167 O159 1.260 . S
C167 O160 1.257 . S
Zn168 O171 2.031 . S
Zn168 O173 2.049 . S
Zn168 O178 2.067 . S
Zn169 O170 1.962 . S
Zn169 O172 1.986 . S
Zn169 O174 1.996 . S
Zn169 O177 1.943 . S
O170 Zn169 1.962 . S
O170 C175 1.254 . S
O171 Zn168 2.031 . S
O171 C175 1.269 . S
O172 Zn169 1.986 . S
O172 C179 1.262 . S
O173 Zn168 2.049 . S
O173 C181 1.260 . S
O174 Zn169 1.996 . S
O174 C181 1.257 . S
C175 O170 1.254 . S
C175 O171 1.269 . S
C176 O177 1.249 . S
C176 O178 1.270 . S
O177 Zn169 1.943 . S
O177 C176 1.249 . S
O178 Zn168 2.067 . S
O178 C176 1.270 . S
C179 O172 1.262 . S
C179 O180 1.232 . S
O180 C179 1.232 . S
C181 O173 1.260 . S
C181 O174 1.257 . S
Zn182 O185 2.031 . S
Zn182 O187 2.049 . S
Zn182 O192 2.067 . S
Zn183 O184 1.962 . S
Zn183 O186 1.986 . S
Zn183 O188 1.996 . S
Zn183 O191 1.943 . S
O184 Zn183 1.962 . S
O184 C189 1.254 . S
O185 Zn182 2.031 . S
O185 C189 1.269 . S
O186 Zn183 1.986 . S
O186 C193 1.262 . S
O187 Zn182 2.049 . S
O187 C195 1.260 . S
O188 Zn183 1.996 . S
O188 C195 1.257 . S
C189 O184 1.254 . S
C189 O185 1.269 . S
C190 O191 1.249 . S
C190 O192 1.270 . S
O191 Zn183 1.943 . S
O191 C190 1.249 . S
O192 Zn182 2.067 . S
O192 C190 1.270 . S
C193 O186 1.262 . S
C193 O194 1.232 . S
O194 C193 1.232 . S
C195 O187 1.260 . S
C195 O188 1.257 . S
Zn196 O199 2.031 . S
Zn196 O201 2.049 . S
Zn196 O206 2.067 . S
Zn197 O198 1.962 . S
Zn197 O200 1.986 . S
Zn197 O202 1.996 . S
Zn197 O205 1.943 . S
O198 Zn197 1.962 . S
O198 C203 1.254 . S
O199 Zn196 2.031 . S
O199 C203 1.269 . S
O200 Zn197 1.986 . S
O200 C207 1.262 . S
O201 Zn196 2.049 . S
O201 C209 1.260 . S
O202 Zn197 1.996 . S
O202 C209 1.257 . S
C203 O198 1.254 . S
C203 O199 1.269 . S
C204 O205 1.249 . S
C204 O206 1.270 . S
O205 Zn197 1.943 . S
O205 C204 1.249 . S
O206 Zn196 2.067 . S
O206 C204 1.270 . S
C207 O200 1.262 . S
C207 O208 1.232 . S
O208 C207 1.232 . S
C209 O201 1.260 . S
C209 O202 1.257 . S
Zn210 O213 2.031 . S
Zn210 O215 2.049 . S
Zn210 O220 2.067 . S
Zn211 O212 1.962 . S
Zn211 O214 1.986 . S
Zn211 O216 1.996 . S
Zn211 O219 1.943 . S
O212 Zn211 1.962 . S
O212 C217 1.254 . S
O213 Zn210 2.031 . S
O213 C217 1.269 . S
O214 Zn211 1.986 . S
O214 C221 1.262 . S
O215 Zn210 2.049 . S
O215 C223 1.260 . S
O216 Zn211 1.996 . S
O216 C223 1.257 . S
C217 O212 1.254 . S
C217 O213 1.269 . S
C218 O219 1.249 . S
C218 O220 1.270 . S
O219 Zn211 1.943 . S
O219 C218 1.249 . S
O220 Zn210 2.067 . S
O220 C218 1.270 . S
C221 O214 1.262 . S
C221 O222 1.232 . S
O222 C221 1.232 . S
C223 O215 1.260 . S
C223 O216 1.257 . S
Zn224 O227 2.031 . S
Zn224 O229 2.049 . S
Zn224 O234 2.067 . S
Zn225 O226 1.962 . S
Zn225 O228 1.986 . S
Zn225 O230 1.996 . S
Zn225 O233 1.943 . S
O226 Zn225 1.962 . S
O226 C231 1.254 . S
O227 Zn224 2.031 . S
O227 C231 1.269 . S
O228 Zn225 1.986 . S
O228 C235 1.262 . S
O229 Zn224 2.049 . S
O229 C237 1.260 . S
O230 Zn225 1.996 . S
O230 C237 1.257 . S
C231 O226 1.254 . S
C231 O227 1.269 . S
C232 O233 1.249 . S
C232 O234 1.270 . S
O233 Zn225 1.943 . S
O233 C232 1.249 . S
O234 Zn224 2.067 . S
O234 C232 1.270 . S
C235 O228 1.262 . S
C235 O236 1.232 . S
O236 C235 1.232 . S
C237 O229 1.260 . S
C237 O230 1.257 . S
Zn238 O241 2.031 . S
Zn238 O243 2.049 . S
Zn238 O248 2.067 . S
Zn239 O240 1.962 . S
Zn239 O242 1.986 . S
Zn239 O244 1.996 . S
Zn239 O247 1.943 . S
O240 Zn239 1.962 . S
O240 C245 1.254 . S
O241 Zn238 2.031 . S
O241 C245 1.269 . S
O242 Zn239 1.986 . S
O242 C249 1.262 . S
O243 Zn238 2.049 . S
O243 C251 1.260 . S
O244 Zn239 1.996 . S
O244 C251 1.257 . S
C245 O240 1.254 . S
C245 O241 1.269 . S
C246 O247 1.249 . S
C246 O248 1.270 . S
O247 Zn239 1.943 . S
O247 C246 1.249 . S
O248 Zn238 2.067 . S
O248 C246 1.270 . S
C249 O242 1.262 . S
C249 O250 1.232 . S
O250 C249 1.232 . S
C251 O243 1.260 . S
C251 O244 1.257 . S
Zn252 O255 2.031 . S
Zn252 O257 2.049 . S
Zn252 O262 2.067 . S
Zn253 O254 1.962 . S
Zn253 O256 1.986 . S
Zn253 O258 1.996 . S
Zn253 O261 1.943 . S
O254 Zn253 1.962 . S
O254 C259 1.254 . S
O255 Zn252 2.031 . S
O255 C259 1.269 . S
O256 Zn253 1.986 . S
O256 C263 1.262 . S
O257 Zn252 2.049 . S
O257 C265 1.260 . S
O258 Zn253 1.996 . S
O258 C265 1.257 . S
C259 O254 1.254 . S
C259 O255 1.269 . S
C260 O261 1.249 . S
C260 O262 1.270 . S
O261 Zn253 1.943 . S
O261 C260 1.249 . S
O262 Zn252 2.067 . S
O262 C260 1.270 . S
C263 O256 1.262 . S
C263 O264 1.232 . S
O264 C263 1.232 . S
C265 O257 1.260 . S
C265 O258 1.257 . S
Zn266 O269 2.031 . S
Zn266 O271 2.049 . S
Zn266 O276 2.067 . S
Zn267 O268 1.962 . S
Zn267 O270 1.986 . S
Zn267 O272 1.996 . S
Zn267 O275 1.943 . S
O268 Zn267 1.962 . S
O268 C273 1.254 . S
O269 Zn266 2.031 . S
O269 C273 1.269 . S
O270 Zn267 1.986 . S
O270 C277 1.262 . S
O271 Zn266 2.049 . S
O271 C279 1.260 . S
O272 Zn267 1.996 . S
O272 C279 1.257 . S
C273 O268 1.254 . S
C273 O269 1.269 . S
C274 O275 1.249 . S
C274 O276 1.270 . S
O275 Zn267 1.943 . S
O275 C274 1.249 . S
O276 Zn266 2.067 . S
O276 C274 1.270 . S
C277 O270 1.262 . S
C277 O278 1.232 . S
O278 C277 1.232 . S
C279 O271 1.260 . S
C279 O272 1.257 . S
Zn280 O283 2.031 . S
Zn280 O285 2.049 . S
Zn280 O290 2.067 . S
Zn281 O282 1.962 . S
Zn281 O284 1.986 . S
Zn281 O286 1.996 . S
Zn281 O289 1.943 . S
O282 Zn281 1.962 . S
O282 C287 1.254 . S
O283 Zn280 2.031 . S
O283 C287 1.269 . S
O284 Zn281 1.986 . S
O284 C291 1.262 . S
O285 Zn280 2.049 . S
O285 C293 1.260 . S
O286 Zn281 1.996 . S
O286 C293 1.257 . S
C287 O282 1.254 . S
C287 O283 1.269 . S
C288 O289 1.249 . S
C288 O290 1.270 . S
O289 Zn281 1.943 . S
O289 C288 1.249 . S
O290 Zn280 2.067 . S
O290 C288 1.270 . S
C291 O284 1.262 . S
C291 O292 1.232 . S
O292 C291 1.232 . S
C293 O285 1.260 . S
C293 O286 1.257 . S
Zn294 O297 2.031 . S
Zn294 O299 2.049 . S
Zn294 O304 2.067 . S
Zn295 O296 1.962 . S
Zn295 O298 1.986 . S
Zn295 O300 1.996 . S
Zn295 O303 1.943 . S
O296 Zn295 1.962 . S
O296 C301 1.254 . S
O297 Zn294 2.031 . S
O297 C301 1.269 . S
O298 Zn295 1.986 . S
O298 C305 1.262 . S
O299 Zn294 2.049 . S
O299 C307 1.260 . S
O300 Zn295 1.996 . S
O300 C307 1.257 . S
C301 O296 1.254 . S
C301 O297 1.269 . S
C302 O303 1.249 . S
C302 O304 1.270 . S
O303 Zn295 1.943 . S
O303 C302 1.249 . S
O304 Zn294 2.067 . S
O304 C302 1.270 . S
C305 O298 1.262 . S
C305 O306 1.232 . S
O306 C305 1.232 . S
C307 O299 1.260 . S
C307 O300 1.257 . S
Zn308 O311 2.031 . S
Zn308 O313 2.049 . S
Zn308 O318 2.067 . S
Zn309 O310 1.962 . S
Zn309 O312 1.986 . S
Zn309 O314 1.996 . S
Zn309 O317 1.943 . S
O310 Zn309 1.962 . S
O310 C315 1.254 . S
O311 Zn308 2.031 . S
O311 C315 1.269 . S
O312 Zn309 1.986 . S
O312 C319 1.262 . S
O313 Zn308 2.049 . S
O313 C321 1.260 . S
O314 Zn309 1.996 . S
O314 C321 1.257 . S
C315 O310 1.254 . S
C315 O311 1.269 . S
C316 O317 1.249 . S
C316 O318 1.270 . S
O317 Zn309 1.943 . S
O317 C316 1.249 . S
O318 Zn308 2.067 . S
O318 C316 1.270 . S
C319 O312 1.262 . S
C319 O320 1.232 . S
O320 C319 1.232 . S
C321 O313 1.260 . S
C321 O314 1.257 . S
Zn322 O325 2.031 . S
Zn322 O327 2.049 . S
Zn322 O332 2.067 . S
Zn323 O324 1.962 . S
Zn323 O326 1.986 . S
Zn323 O328 1.996 . S
Zn323 O331 1.943 . S
O324 Zn323 1.962 . S
O324 C329 1.254 . S
O325 Zn322 2.031 . S
O325 C329 1.269 . S
O326 Zn323 1.986 . S
O326 C333 1.262 . S
O327 Zn322 2.049 . S
O327 C335 1.260 . S
O328 Zn323 1.996 . S
O328 C335 1.257 . S
C329 O324 1.254 . S
C329 O325 1.269 . S
C330 O331 1.249 . S
C330 O332 1.270 . S
O331 Zn323 1.943 . S
O331 C330 1.249 . S
O332 Zn322 2.067 . S
O332 C330 1.270 . S
C333 O326 1.262 . S
C333 O334 1.232 . S
O334 C333 1.232 . S
C335 O327 1.260 . S
C335 O328 1.257 . S
C336 C337 1.387 . S
C336 H340 0.950 . S
C336 C345 1.390 . S
C337 C336 1.387 . S
C337 C339 1.387 . S
H338 C345 0.950 . S
C339 C337 1.387 . S
C339 C341 1.390 . S
C339 H343 0.950 . S
H340 C336 0.950 . S
C341 C339 1.390 . S
C341 C342 1.387 . S
C341 H344 0.950 . S
C342 C341 1.387 . S
C342 C345 1.387 . S
H343 C339 0.950 . S
H344 C341 0.950 . S
C345 C336 1.390 . S
C345 H338 0.950 . S
C345 C342 1.387 . S
C346 C347 1.387 . S
C346 H350 0.950 . S
C346 C355 1.390 . S
C347 C346 1.387 . S
C347 C349 1.387 . S
H348 C355 0.950 . S
C349 C347 1.387 . S
C349 C351 1.390 . S
C349 H353 0.950 . S
H350 C346 0.950 . S
C351 C349 1.390 . S
C351 C352 1.387 . S
C351 H354 0.950 . S
C352 C351 1.387 . S
C352 C355 1.387 . S
H353 C349 0.950 . S
H354 C351 0.950 . S
C355 C346 1.390 . S
C355 H348 0.950 . S
C355 C352 1.387 . S
C356 C357 1.387 . S
C356 H360 0.950 . S
C356 C365 1.390 . S
C357 C356 1.387 . S
C357 C359 1.387 . S
H358 C365 0.950 . S
C359 C357 1.387 . S
C359 C361 1.390 . S
C359 H363 0.950 . S
H360 C356 0.950 . S
C361 C359 1.390 . S
C361 C362 1.387 . S
C361 H364 0.950 . S
C362 C361 1.387 . S
C362 C365 1.387 . S
H363 C359 0.950 . S
H364 C361 0.950 . S
C365 C356 1.390 . S
C365 H358 0.950 . S
C365 C362 1.387 . S
C366 C367 1.387 . S
C366 H370 0.950 . S
C366 C375 1.390 . S
C367 C366 1.387 . S
C367 C369 1.387 . S
H368 C375 0.950 . S
C369 C367 1.387 . S
C369 C371 1.390 . S
C369 H373 0.950 . S
H370 C366 0.950 . S
C371 C369 1.390 . S
C371 C372 1.387 . S
C371 H374 0.950 . S
C372 C371 1.387 . S
C372 C375 1.387 . S
H373 C369 0.950 . S
H374 C371 0.950 . S
C375 C366 1.390 . S
C375 H368 0.950 . S
C375 C372 1.387 . S
C376 C377 1.387 . S
C376 H380 0.950 . S
C376 C385 1.390 . S
C377 C376 1.387 . S
C377 C379 1.387 . S
H378 C385 0.950 . S
C379 C377 1.387 . S
C379 C381 1.390 . S
C379 H383 0.950 . S
H380 C376 0.950 . S
C381 C379 1.390 . S
C381 C382 1.387 . S
C381 H384 0.950 . S
C382 C381 1.387 . S
C382 C385 1.387 . S
H383 C379 0.950 . S
H384 C381 0.950 . S
C385 C376 1.390 . S
C385 H378 0.950 . S
C385 C382 1.387 . S
C386 C387 1.387 . S
C386 H390 0.950 . S
C386 C395 1.390 . S
C387 C386 1.387 . S
C387 C389 1.387 . S
H388 C395 0.950 . S
C389 C387 1.387 . S
C389 C391 1.390 . S
C389 H393 0.950 . S
H390 C386 0.950 . S
C391 C389 1.390 . S
C391 C392 1.387 . S
C391 H394 0.950 . S
C392 C391 1.387 . S
C392 C395 1.387 . S
H393 C389 0.950 . S
H394 C391 0.950 . S
C395 C386 1.390 . S
C395 H388 0.950 . S
C395 C392 1.387 . S
C396 C397 1.387 . S
C396 H400 0.950 . S
C396 C405 1.390 . S
C397 C396 1.387 . S
C397 C399 1.387 . S
H398 C405 0.950 . S
C399 C397 1.387 . S
C399 C401 1.390 . S
C399 H403 0.950 . S
H400 C396 0.950 . S
C401 C399 1.390 . S
C401 C402 1.387 . S
C401 H404 0.950 . S
C402 C401 1.387 . S
C402 C405 1.387 . S
H403 C399 0.950 . S
H404 C401 0.950 . S
C405 C396 1.390 . S
C405 H398 0.950 . S
C405 C402 1.387 . S
C406 C407 1.387 . S
C406 H410 0.950 . S
C406 C415 1.390 . S
C407 C406 1.387 . S
C407 C409 1.387 . S
H408 C415 0.950 . S
C409 C407 1.387 . S
C409 C411 1.390 . S
C409 H413 0.950 . S
H410 C406 0.950 . S
C411 C409 1.390 . S
C411 C412 1.387 . S
C411 H414 0.950 . S
C412 C411 1.387 . S
C412 C415 1.387 . S
H413 C409 0.950 . S
H414 C411 0.950 . S
C415 C406 1.390 . S
C415 H408 0.950 . S
C415 C412 1.387 . S
C416 C417 1.387 . S
C416 H420 0.950 . S
C416 C425 1.390 . S
C417 C416 1.387 . S
C417 C419 1.387 . S
H418 C425 0.950 . S
C419 C417 1.387 . S
C419 C421 1.390 . S
C419 H423 0.950 . S
H420 C416 0.950 . S
C421 C419 1.390 . S
C421 C422 1.387 . S
C421 H424 0.950 . S
C422 C421 1.387 . S
C422 C425 1.387 . S
H423 C419 0.950 . S
H424 C421 0.950 . S
C425 C416 1.390 . S
C425 H418 0.950 . S
C425 C422 1.387 . S
C426 C427 1.387 . S
C426 H430 0.950 . S
C426 C435 1.390 . S
C427 C426 1.387 . S
C427 C429 1.387 . S
H428 C435 0.950 . S
C429 C427 1.387 . S
C429 C431 1.390 . S
C429 H433 0.950 . S
H430 C426 0.950 . S
C431 C429 1.390 . S
C431 C432 1.387 . S
C431 H434 0.950 . S
C432 C431 1.387 . S
C432 C435 1.387 . S
H433 C429 0.950 . S
H434 C431 0.950 . S
C435 C426 1.390 . S
C435 H428 0.950 . S
C435 C432 1.387 . S
C436 C437 1.387 . S
C436 H440 0.950 . S
C436 C445 1.390 . S
C437 C436 1.387 . S
C437 C439 1.387 . S
H438 C445 0.950 . S
C439 C437 1.387 . S
C439 C441 1.390 . S
C439 H443 0.950 . S
H440 C436 0.950 . S
C441 C439 1.390 . S
C441 C442 1.387 . S
C441 H444 0.950 . S
C442 C441 1.387 . S
C442 C445 1.387 . S
H443 C439 0.950 . S
H444 C441 0.950 . S
C445 C436 1.390 . S
C445 H438 0.950 . S
C445 C442 1.387 . S
C446 C447 1.387 . S
C446 H450 0.950 . S
C446 C455 1.390 . S
C447 C446 1.387 . S
C447 C449 1.387 . S
H448 C455 0.950 . S
C449 C447 1.387 . S
C449 C451 1.390 . S
C449 H453 0.950 . S
H450 C446 0.950 . S
C451 C449 1.390 . S
C451 C452 1.387 . S
C451 H454 0.950 . S
C452 C451 1.387 . S
C452 C455 1.387 . S
H453 C449 0.950 . S
H454 C451 0.950 . S
C455 C446 1.390 . S
C455 H448 0.950 . S
C455 C452 1.387 . S
C456 C457 1.387 . S
C456 H460 0.950 . S
C456 C465 1.390 . S
C457 C456 1.387 . S
C457 C459 1.387 . S
H458 C465 0.950 . S
C459 C457 1.387 . S
C459 C461 1.390 . S
C459 H463 0.950 . S
H460 C456 0.950 . S
C461 C459 1.390 . S
C461 C462 1.387 . S
C461 H464 0.950 . S
C462 C461 1.387 . S
C462 C465 1.387 . S
H463 C459 0.950 . S
H464 C461 0.950 . S
C465 C456 1.390 . S
C465 H458 0.950 . S
C465 C462 1.387 . S
C466 C467 1.387 . S
C466 H470 0.950 . S
C466 C475 1.390 . S
C467 C466 1.387 . S
C467 C469 1.387 . S
H468 C475 0.950 . S
C469 C467 1.387 . S
C469 C471 1.390 . S
C469 H473 0.950 . S
H470 C466 0.950 . S
C471 C469 1.390 . S
C471 C472 1.387 . S
C471 H474 0.950 . S
C472 C471 1.387 . S
C472 C475 1.387 . S
H473 C469 0.950 . S
H474 C471 0.950 . S
C475 C466 1.390 . S
C475 H468 0.950 . S
C475 C472 1.387 . S
C476 C477 1.387 . S
C476 H480 0.950 . S
C476 C485 1.390 . S
C477 C476 1.387 . S
C477 C479 1.387 . S
H478 C485 0.950 . S
C479 C477 1.387 . S
C479 C481 1.390 . S
C479 H483 0.950 . S
H480 C476 0.950 . S
C481 C479 1.390 . S
C481 C482 1.387 . S
C481 H484 0.950 . S
C482 C481 1.387 . S
C482 C485 1.387 . S
H483 C479 0.950 . S
H484 C481 0.950 . S
C485 C476 1.390 . S
C485 H478 0.950 . S
C485 C482 1.387 . S
C486 C487 1.387 . S
C486 H490 0.950 . S
C486 C495 1.390 . S
C487 C486 1.387 . S
C487 C489 1.387 . S
H488 C495 0.950 . S
C489 C487 1.387 . S
C489 C491 1.390 . S
C489 H493 0.950 . S
H490 C486 0.950 . S
C491 C489 1.390 . S
C491 C492 1.387 . S
C491 H494 0.950 . S
C492 C491 1.387 . S
C492 C495 1.387 . S
H493 C489 0.950 . S
H494 C491 0.950 . S
C495 C486 1.390 . S
C495 H488 0.950 . S
C495 C492 1.387 . S
C496 C497 1.387 . S
C496 H500 0.950 . S
C496 C505 1.390 . S
C497 C496 1.387 . S
C497 C499 1.387 . S
H498 C505 0.950 . S
C499 C497 1.387 . S
C499 C501 1.390 . S
C499 H503 0.950 . S
H500 C496 0.950 . S
C501 C499 1.390 . S
C501 C502 1.387 . S
C501 H504 0.950 . S
C502 C501 1.387 . S
C502 C505 1.387 . S
H503 C499 0.950 . S
H504 C501 0.950 . S
C505 C496 1.390 . S
C505 H498 0.950 . S
C505 C502 1.387 . S
C506 C507 1.387 . S
C506 H510 0.950 . S
C506 C515 1.390 . S
C507 C506 1.387 . S
C507 C509 1.387 . S
H508 C515 0.950 . S
C509 C507 1.387 . S
C509 C511 1.390 . S
C509 H513 0.950 . S
H510 C506 0.950 . S
C511 C509 1.390 . S
C511 C512 1.387 . S
C511 H514 0.950 . S
C512 C511 1.387 . S
C512 C515 1.387 . S
H513 C509 0.950 . S
H514 C511 0.950 . S
C515 C506 1.390 . S
C515 H508 0.950 . S
C515 C512 1.387 . S
C516 C517 1.387 . S
C516 H520 0.950 . S
C516 C525 1.390 . S
C517 C516 1.387 . S
C517 C519 1.387 . S
H518 C525 0.950 . S
C519 C517 1.387 . S
C519 C521 1.390 . S
C519 H523 0.950 . S
H520 C516 0.950 . S
C521 C519 1.390 . S
C521 C522 1.387 . S
C521 H524 0.950 . S
C522 C521 1.387 . S
C522 C525 1.387 . S
H523 C519 0.950 . S
H524 C521 0.950 . S
C525 C516 1.390 . S
C525 H518 0.950 . S
C525 C522 1.387 . S
C526 C527 1.387 . S
C526 H530 0.950 . S
C526 C535 1.390 . S
C527 C526 1.387 . S
C527 C529 1.387 . S
H528 C535 0.950 . S
C529 C527 1.387 . S
C529 C531 1.390 . S
C529 H533 0.950 . S
H530 C526 0.950 . S
C531 C529 1.390 . S
C531 C532 1.387 . S
C531 H534 0.950 . S
C532 C531 1.387 . S
C532 C535 1.387 . S
H533 C529 0.950 . S
H534 C531 0.950 . S
C535 C526 1.390 . S
C535 H528 0.950 . S
C535 C532 1.387 . S
C536 C537 1.387 . S
C536 H540 0.950 . S
C536 C545 1.390 . S
C537 C536 1.387 . S
C537 C539 1.387 . S
H538 C545 0.950 . S
C539 C537 1.387 . S
C539 C541 1.390 . S
C539 H543 0.950 . S
H540 C536 0.950 . S
C541 C539 1.390 . S
C541 C542 1.387 . S
C541 H544 0.950 . S
C542 C541 1.387 . S
C542 C545 1.387 . S
H543 C539 0.950 . S
H544 C541 0.950 . S
C545 C536 1.390 . S
C545 H538 0.950 . S
C545 C542 1.387 . S
C546 C547 1.387 . S
C546 H550 0.950 . S
C546 C555 1.390 . S
C547 C546 1.387 . S
C547 C549 1.387 . S
H548 C555 0.950 . S
C549 C547 1.387 . S
C549 C551 1.390 . S
C549 H553 0.950 . S
H550 C546 0.950 . S
C551 C549 1.390 . S
C551 C552 1.387 . S
C551 H554 0.950 . S
C552 C551 1.387 . S
C552 C555 1.387 . S
H553 C549 0.950 . S
H554 C551 0.950 . S
C555 C546 1.390 . S
C555 H548 0.950 . S
C555 C552 1.387 . S
C556 C557 1.387 . S
C556 H560 0.950 . S
C556 C565 1.390 . S
C557 C556 1.387 . S
C557 C559 1.387 . S
H558 C565 0.950 . S
C559 C557 1.387 . S
C559 C561 1.390 . S
C559 H563 0.950 . S
H560 C556 0.950 . S
C561 C559 1.390 . S
C561 C562 1.387 . S
C561 H564 0.950 . S
C562 C561 1.387 . S
C562 C565 1.387 . S
H563 C559 0.950 . S
H564 C561 0.950 . S
C565 C556 1.390 . S
C565 H558 0.950 . S
C565 C562 1.387 . S
C566 C567 1.387 . S
C566 H570 0.950 . S
C566 C575 1.390 . S
C567 C566 1.387 . S
C567 C569 1.387 . S
H568 C575 0.950 . S
C569 C567 1.387 . S
C569 C571 1.390 . S
C569 H573 0.950 . S
H570 C566 0.950 . S
C571 C569 1.390 . S
C571 C572 1.387 . S
C571 H574 0.950 . S
C572 C571 1.387 . S
C572 C575 1.387 . S
H573 C569 0.950 . S
H574 C571 0.950 . S
C575 C566 1.390 . S
C575 H568 0.950 . S
C575 C572 1.387 . S
C576 C577 1.387 . S
C576 H580 0.950 . S
C576 C585 1.390 . S
C577 C576 1.387 . S
C577 C579 1.387 . S
H578 C585 0.950 . S
C579 C577 1.387 . S
C579 C581 1.390 . S
C579 H583 0.950 . S
H580 C576 0.950 . S
C581 C579 1.390 . S
C581 C582 1.387 . S
C581 H584 0.950 . S
C582 C581 1.387 . S
C582 C585 1.387 . S
H583 C579 0.950 . S
H584 C581 0.950 . S
C585 C576 1.390 . S
C585 H578 0.950 . S
C585 C582 1.387 . S
C586 C587 1.387 . S
C586 H590 0.950 . S
C586 C595 1.390 . S
C587 C586 1.387 . S
C587 C589 1.387 . S
H588 C595 0.950 . S
C589 C587 1.387 . S
C589 C591 1.390 . S
C589 H593 0.950 . S
H590 C586 0.950 . S
C591 C589 1.390 . S
C591 C592 1.387 . S
C591 H594 0.950 . S
C592 C591 1.387 . S
C592 C595 1.387 . S
H593 C589 0.950 . S
H594 C591 0.950 . S
C595 C586 1.390 . S
C595 H588 0.950 . S
C595 C592 1.387 . S
C596 C597 1.387 . S
C596 H600 0.950 . S
C596 C605 1.390 . S
C597 C596 1.387 . S
C597 C599 1.387 . S
H598 C605 0.950 . S
C599 C597 1.387 . S
C599 C601 1.390 . S
C599 H603 0.950 . S
H600 C596 0.950 . S
C601 C599 1.390 . S
C601 C602 1.387 . S
C601 H604 0.950 . S
C602 C601 1.387 . S
C602 C605 1.387 . S
H603 C599 0.950 . S
H604 C601 0.950 . S
C605 C596 1.390 . S
C605 H598 0.950 . S
C605 C602 1.387 . S
C606 C607 1.387 . S
C606 H610 0.950 . S
C606 C615 1.390 . S
C607 C606 1.387 . S
C607 C609 1.387 . S
H608 C615 0.950 . S
C609 C607 1.387 . S
C609 C611 1.390 . S
C609 H613 0.950 . S
H610 C606 0.950 . S
C611 C609 1.390 . S
C611 C612 1.387 . S
C611 H614 0.950 . S
C612 C611 1.387 . S
C612 C615 1.387 . S
H613 C609 0.950 . S
H614 C611 0.950 . S
C615 C606 1.390 . S
C615 H608 0.950 . S
C615 C612 1.387 . S
C616 C617 1.387 . S
C616 H620 0.950 . S
C616 C625 1.390 . S
C617 C616 1.387 . S
C617 C619 1.387 . S
H618 C625 0.950 . S
C619 C617 1.387 . S
C619 C621 1.390 . S
C619 H623 0.950 . S
H620 C616 0.950 . S
C621 C619 1.390 . S
C621 C622 1.387 . S
C621 H624 0.950 . S
C622 C621 1.387 . S
C622 C625 1.387 . S
H623 C619 0.950 . S
H624 C621 0.950 . S
C625 C616 1.390 . S
C625 H618 0.950 . S
C625 C622 1.387 . S
C626 C627 1.387 . S
C626 H630 0.950 . S
C626 C635 1.390 . S
C627 C626 1.387 . S
C627 C629 1.387 . S
H628 C635 0.950 . S
C629 C627 1.387 . S
C629 C631 1.390 . S
C629 H633 0.950 . S
H630 C626 0.950 . S
C631 C629 1.390 . S
C631 C632 1.387 . S
C631 H634 0.950 . S
C632 C631 1.387 . S
C632 C635 1.387 . S
H633 C629 0.950 . S
H634 C631 0.950 . S
C635 C626 1.390 . S
C635 H628 0.950 . S
C635 C632 1.387 . S
C636 C637 1.387 . S
C636 H640 0.950 . S
C636 C645 1.390 . S
C637 C636 1.387 . S
C637 C639 1.387 . S
H638 C645 0.950 . S
C639 C637 1.387 . S
C639 C641 1.390 . S
C639 H643 0.950 . S
H640 C636 0.950 . S
C641 C639 1.390 . S
C641 C642 1.387 . S
C641 H644 0.950 . S
C642 C641 1.387 . S
C642 C645 1.387 . S
H643 C639 0.950 . S
H644 C641 0.950 . S
C645 C636 1.390 . S
C645 H638 0.950 . S
C645 C642 1.387 . S
C646 C647 1.387 . S
C646 H650 0.950 . S
C646 C655 1.390 . S
C647 C646 1.387 . S
C647 C649 1.387 . S
H648 C655 0.950 . S
C649 C647 1.387 . S
C649 C651 1.390 . S
C649 H653 0.950 . S
H650 C646 0.950 . S
C651 C649 1.390 . S
C651 C652 1.387 . S
C651 H654 0.950 . S
C652 C651 1.387 . S
C652 C655 1.387 . S
H653 C649 0.950 . S
H654 C651 0.950 . S
C655 C646 1.390 . S
C655 H648 0.950 . S
C655 C652 1.387 . S
C656 C657 1.387 . S
C656 H660 0.950 . S
C656 C665 1.390 . S
C657 C656 1.387 . S
C657 C659 1.387 . S
H658 C665 0.950 . S
C659 C657 1.387 . S
C659 C661 1.390 . S
C659 H663 0.950 . S
H660 C656 0.950 . S
C661 C659 1.390 . S
C661 C662 1.387 . S
C661 H664 0.950 . S
C662 C661 1.387 . S
C662 C665 1.387 . S
H663 C659 0.950 . S
H664 C661 0.950 . S
C665 C656 1.390 . S
C665 H658 0.950 . S
C665 C662 1.387 . S
C666 C667 1.387 . S
C666 H670 0.950 . S
C666 C675 1.390 . S
C667 C666 1.387 . S
C667 C669 1.387 . S
H668 C675 0.950 . S
C669 C667 1.387 . S
C669 C671 1.390 . S
C669 H673 0.950 1_545 S
H670 C666 0.950 . S
C671 C669 1.390 . S
C671 C672 1.387 . S
C671 H674 0.950 . S
C672 C671 1.387 . S
C672 C675 1.387 . S
H673 C669 0.950 1_565 S
H674 C671 0.950 . S
C675 C666 1.390 . S
C675 H668 0.950 . S
C675 C672 1.387 . S
C676 C677 1.387 . S
C676 H680 0.950 1_565 S
C676 C685 1.390 . S
C677 C676 1.387 . S
C677 C679 1.387 . S
H678 C685 0.950 . S
C679 C677 1.387 . S
C679 C681 1.390 . S
C679 H683 0.950 . S
H680 C676 0.950 1_545 S
C681 C679 1.390 . S
C681 C682 1.387 . S
C681 H684 0.950 . S
C682 C681 1.387 . S
C682 C685 1.387 . S
H683 C679 0.950 . S
H684 C681 0.950 . S
C685 C676 1.390 . S
C685 H678 0.950 . S
C685 C682 1.387 . S
C686 C687 1.387 . S
C686 H690 0.950 . S
C686 C695 1.390 . S
C687 C686 1.387 . S
C687 C689 1.387 . S
H688 C695 0.950 . S
C689 C687 1.387 . S
C689 C691 1.390 . S
C689 H693 0.950 . S
H690 C686 0.950 . S
C691 C689 1.390 . S
C691 C692 1.387 . S
C691 H694 0.950 . S
C692 C691 1.387 . S
C692 C695 1.387 . S
H693 C689 0.950 . S
H694 C691 0.950 . S
C695 C686 1.390 . S
C695 H688 0.950 . S
C695 C692 1.387 . S
C696 C697 1.387 . S
C696 H700 0.950 . S
C696 C705 1.390 . S
C697 C696 1.387 . S
C697 C699 1.387 . S
H698 C705 0.950 . S
C699 C697 1.387 . S
C699 C701 1.390 . S
C699 H703 0.950 . S
H700 C696 0.950 . S
C701 C699 1.390 . S
C701 C702 1.387 . S
C701 H704 0.950 . S
C702 C701 1.387 . S
C702 C705 1.387 . S
H703 C699 0.950 . S
H704 C701 0.950 . S
C705 C696 1.390 . S
C705 H698 0.950 . S
C705 C702 1.387 . S
C706 C707 1.387 . S
C706 H710 0.950 . S
C706 C715 1.390 . S
C707 C706 1.387 . S
C707 C709 1.387 . S
H708 C715 0.950 . S
C709 C707 1.387 . S
C709 C711 1.390 . S
C709 H713 0.950 . S
H710 C706 0.950 . S
C711 C709 1.390 . S
C711 C712 1.387 . S
C711 H714 0.950 . S
C712 C711 1.387 . S
C712 C715 1.387 . S
H713 C709 0.950 . S
H714 C711 0.950 . S
C715 C706 1.390 . S
C715 H708 0.950 . S
C715 C712 1.387 . S
C716 C717 1.387 . S
C716 H720 0.950 . S
C716 C725 1.390 . S
C717 C716 1.387 . S
C717 C719 1.387 . S
H718 C725 0.950 . S
C719 C717 1.387 . S
C719 C721 1.390 . S
C719 H723 0.950 . S
H720 C716 0.950 . S
C721 C719 1.390 . S
C721 C722 1.387 . S
C721 H724 0.950 . S
C722 C721 1.387 . S
C722 C725 1.387 . S
H723 C719 0.950 . S
H724 C721 0.950 . S
C725 C716 1.390 . S
C725 H718 0.950 . S
C725 C722 1.387 . S
C726 C727 1.387 . S
C726 H730 0.950 . S
C726 C735 1.390 . S
C727 C726 1.387 . S
C727 C729 1.387 . S
H728 C735 0.950 . S
C729 C727 1.387 . S
C729 C731 1.390 . S
C729 H733 0.950 . S
H730 C726 0.950 . S
C731 C729 1.390 . S
C731 C732 1.387 . S
C731 H734 0.950 . S
C732 C731 1.387 . S
C732 C735 1.387 . S
H733 C729 0.950 . S
H734 C731 0.950 . S
C735 C726 1.390 . S
C735 H728 0.950 . S
C735 C732 1.387 . S
C736 C737 1.387 . S
C736 H740 0.950 . S
C736 C745 1.390 . S
C737 C736 1.387 . S
C737 C739 1.387 . S
H738 C745 0.950 . S
C739 C737 1.387 . S
C739 C741 1.390 . S
C739 H743 0.950 . S
H740 C736 0.950 . S
C741 C739 1.390 . S
C741 C742 1.387 . S
C741 H744 0.950 . S
C742 C741 1.387 . S
C742 C745 1.387 . S
H743 C739 0.950 . S
H744 C741 0.950 . S
C745 C736 1.390 . S
C745 H738 0.950 . S
C745 C742 1.387 . S
C746 C747 1.387 . S
C746 H750 0.950 . S
C746 C755 1.390 . S
C747 C746 1.387 . S
C747 C749 1.387 . S
H748 C755 0.950 . S
C749 C747 1.387 . S
C749 C751 1.390 . S
C749 H753 0.950 . S
H750 C746 0.950 . S
C751 C749 1.390 . S
C751 C752 1.387 . S
C751 H754 0.950 . S
C752 C751 1.387 . S
C752 C755 1.387 . S
H753 C749 0.950 . S
H754 C751 0.950 . S
C755 C746 1.390 . S
C755 H748 0.950 . S
C755 C752 1.387 . S
C756 C757 1.387 . S
C756 H760 0.950 . S
C756 C765 1.390 . S
C757 C756 1.387 . S
C757 C759 1.387 . S
H758 C765 0.950 . S
C759 C757 1.387 . S
C759 C761 1.390 . S
C759 H763 0.950 . S
H760 C756 0.950 . S
C761 C759 1.390 . S
C761 C762 1.387 . S
C761 H764 0.950 . S
C762 C761 1.387 . S
C762 C765 1.387 . S
H763 C759 0.950 . S
H764 C761 0.950 . S
C765 C756 1.390 . S
C765 H758 0.950 . S
C765 C762 1.387 . S
C766 C767 1.387 . S
C766 H770 0.950 . S
C766 C775 1.390 . S
C767 C766 1.387 . S
C767 C769 1.387 . S
H768 C775 0.950 . S
C769 C767 1.387 . S
C769 C771 1.390 . S
C769 H773 0.950 . S
H770 C766 0.950 . S
C771 C769 1.390 . S
C771 C772 1.387 . S
C771 H774 0.950 . S
C772 C771 1.387 . S
C772 C775 1.387 . S
H773 C769 0.950 . S
H774 C771 0.950 . S
C775 C766 1.390 . S
C775 H768 0.950 . S
C775 C772 1.387 . S
C776 C777 1.387 . S
C776 H780 0.950 . S
C776 C785 1.390 . S
C777 C776 1.387 . S
C777 C779 1.387 . S
H778 C785 0.950 . S
C779 C777 1.387 . S
C779 C781 1.390 . S
C779 H783 0.950 . S
H780 C776 0.950 . S
C781 C779 1.390 . S
C781 C782 1.387 . S
C781 H784 0.950 . S
C782 C781 1.387 . S
C782 C785 1.387 . S
H783 C779 0.950 . S
H784 C781 0.950 . S
C785 C776 1.390 . S
C785 H778 0.950 . S
C785 C782 1.387 . S
C786 C787 1.387 . S
C786 H790 0.950 . S
C786 C795 1.390 . S
C787 C786 1.387 . S
C787 C789 1.387 . S
H788 C795 0.950 . S
C789 C787 1.387 . S
C789 C791 1.390 . S
C789 H793 0.950 . S
H790 C786 0.950 . S
C791 C789 1.390 . S
C791 C792 1.387 . S
C791 H794 0.950 . S
C792 C791 1.387 . S
C792 C795 1.387 . S
H793 C789 0.950 . S
H794 C791 0.950 . S
C795 C786 1.390 . S
C795 H788 0.950 . S
C795 C792 1.387 . S
C796 C797 1.387 . S
C796 H800 0.950 . S
C796 C805 1.390 . S
C797 C796 1.387 . S
C797 C799 1.387 . S
H798 C805 0.950 . S
C799 C797 1.387 . S
C799 C801 1.390 . S
C799 H803 0.938 1_545 S
H800 C796 0.950 . S
C801 C799 1.390 . S
C801 C802 1.387 . S
C801 H804 0.950 . S
C802 C801 1.387 . S
C802 C805 1.387 . S
H803 C799 0.938 1_565 S
H804 C801 0.950 . S
C805 C796 1.390 . S
C805 H798 0.950 . S
C805 C802 1.387 . S
C806 C807 1.387 . S
C806 H810 0.950 . S
C806 C815 1.390 . S
C807 C806 1.387 . S
C807 C809 1.387 . S
H808 C815 0.950 . S
C809 C807 1.387 . S
C809 C811 1.390 . S
C809 H813 0.950 . S
H810 C806 0.950 . S
C811 C809 1.390 . S
C811 C812 1.387 . S
C811 H814 0.950 . S
C812 C811 1.387 . S
C812 C815 1.387 . S
H813 C809 0.950 . S
H814 C811 0.950 . S
C815 C806 1.390 . S
C815 H808 0.950 . S
C815 C812 1.387 . S
C337 C120 1.150 . S
C342 C7 1.200 . S
C347 C21 1.197 . S
C352 C162 1.153 . S
C357 C35 1.199 . S
C362 C134 1.150 . S
C367 C49 1.199 . S
C372 C148 1.150 . S
C377 C63 1.199 . S
C382 C8 1.140 . S
C387 C22 1.146 . S
C392 C77 1.199 . S
C397 C91 1.199 . S
C402 C36 1.146 . S
C407 C50 1.146 . S
C412 C105 1.199 . S
C417 C64 1.206 . S
C422 C119 1.252 . S
C427 C92 1.211 . S
C432 C133 1.255 . S
C437 C147 1.253 . S
C442 C106 1.211 . S
C447 C78 1.211 . S
C452 C161 1.255 . S
C457 C288 1.134 . S
C462 C175 1.203 . S
C467 C189 1.205 . S
C472 C330 1.132 . S
C477 C203 1.204 . S
C482 C302 1.137 . S
C487 C316 1.135 . S
C492 C217 1.203 . S
C497 C232 1.187 . S
C502 C176 1.206 . S
C507 C190 1.206 . S
C512 C246 1.187 . S
C517 C204 1.200 . S
C522 C260 1.182 . S
C527 C274 1.182 . S
C532 C218 1.200 . S
C537 C287 1.158 . S
C542 C231 1.213 . S
C547 C259 1.211 . S
C552 C301 1.156 . S
C557 C273 1.211 . S
C562 C315 1.157 . S
C567 C329 1.159 . S
C572 C245 1.212 . S
C577 C319 1.377 . S
C582 C13 1.324 . S
C587 C305 1.377 1_556 S
C592 C27 1.324 . S
C597 C333 1.379 . S
C602 C41 1.320 . S
C607 C55 1.324 . S
C612 C291 1.377 1_554 S
C617 C69 1.374 . S
C622 C193 1.424 . S
C627 C179 1.424 1_455 S
C632 C83 1.375 . S
C637 C221 1.425 1_655 S
C642 C97 1.374 . S
C647 C207 1.425 . S
C652 C111 1.371 . S
C657 C125 1.378 . S
C662 C265 1.341 . S
C667 C237 1.340 1_545 S
C672 C139 1.381 . S
C677 C251 1.344 1_565 S
C682 C153 1.380 . S
C687 C279 1.345 . S
C692 C167 1.380 . S
C697 C151 1.449 . S
C702 C181 1.375 . S
C707 C137 1.449 1_554 S
C712 C195 1.371 . S
C717 C209 1.372 . S
C722 C165 1.448 . S
C727 C123 1.448 1_556 S
C732 C223 1.375 . S
C737 C235 1.397 . S
C742 C25 1.432 . S
C747 C249 1.397 . S
C752 C11 1.433 1_655 S
C757 C263 1.397 . S
C762 C53 1.432 1_455 S
C767 C277 1.395 . S
C772 C39 1.433 . S
C777 C293 1.317 . S
C782 C95 1.382 . S
C787 C307 1.317 . S
C792 C67 1.382 1_565 S
C797 C81 1.383 1_545 S
C802 C321 1.315 . S
C807 C335 1.318 . S
C812 C109 1.381 . S
