# Generated by pormake.
# Topology qtz-x, (6)-cn, num edge types: 1
# Building blocks:
#     Node 0, Type 0, BuildingBlock: KUMBUR_clean_sbu_0, # of connection points: 6
#     Node 1, Type 0, BuildingBlock: KUMBUR_clean_sbu_0, # of connection points: 6
#     Node 2, Type 0, BuildingBlock: KUMBUR_clean_sbu_0, # of connection points: 6
#     Edge 3, Type (0, 0), BuildingBlock: XIVTED_clean_linker_0, # of connection points: 2
#     Edge 4, Type (0, 0), BuildingBlock: XIVTED_clean_linker_0, # of connection points: 2
#     Edge 5, Type (0, 0), BuildingBlock: XIVTED_clean_linker_0, # of connection points: 2
#     Edge 6, Type (0, 0), BuildingBlock: XIVTED_clean_linker_0, # of connection points: 2
#     Edge 7, Type (0, 0), BuildingBlock: XIVTED_clean_linker_0, # of connection points: 2
#     Edge 8, Type (0, 0), BuildingBlock: XIVTED_clean_linker_0, # of connection points: 2
#     Edge 9, Type (0, 0), BuildingBlock: XIVTED_clean_linker_0, # of connection points: 2
#     Edge 10, Type (0, 0), BuildingBlock: XIVTED_clean_linker_0, # of connection points: 2
#     Edge 11, Type (0, 0), BuildingBlock: XIVTED_clean_linker_0, # of connection points: 2
# Relax obj value: 0.164
# Max RMSD: 0.280
# Mean RMSD: 0.280
data_MOF--net-qtz-x--node1-KUMBUR_clean_sbu_0--edge1-XIVTED_clean_linker_0
_symmetry_space_group_name_H-M    P1
_symmetry_Int_Tables_number       1
_symmetry_cell_setting            triclinic
loop_
_symmetry_equiv_pos_as_xyz
'x, y, z'
_cell_length_a     15.171974
_cell_length_b     15.183839
_cell_length_c     51.288179
_cell_angle_alpha  89.953624
_cell_angle_beta   90.188318
_cell_angle_gamma 120.04963
loop_
_atom_site_label
_atom_site_type_symbol
_atom_site_fract_x
_atom_site_fract_y
_atom_site_fract_z
_atom_type_partial_charge
Tb0 Tb 0.25198 0.50138 0.1958 0.0
C1 C 0.81463 0.39285 0.15694 0.0
C2 C 0.69609 0.24584 0.18196 0.0
C3 C 0.63624 0.34609 0.15908 0.0
C4 C 0.79538 0.31128 0.17255 0.0
C5 C 0.73513 0.41077 0.14976 0.0
C6 C 0.61701 0.26457 0.17544 0.0
C7 C 0.8552 0.55044 0.12314 0.0
N8 N 0.91014 0.45102 0.1475 0.0
C9 C 0.93088 0.52814 0.13033 0.0
C10 C 0.75674 0.49126 0.13281 0.0
Tb11 Tb 0.0234 0.3967 0.15622 0.0
N12 N 0.8723 0.29199 0.17698 0.0
C13 C 0.85293 0.20492 0.18976 0.0
C14 C 0.67817 0.16074 0.19657 0.0
C15 C 0.75691 0.13988 0.20033 0.0
H16 H 0.0059 0.57323 0.12216 0.0
H17 H 0.74329 0.07261 0.21096 0.0
H18 H 0.54018 0.21486 0.18234 0.0
H19 H 0.87252 0.61224 0.10979 0.0
H20 H 0.9114 0.18514 0.19225 0.0
H21 H 0.51542 0.82349 0.13742 0.0
H22 H 0.60319 0.10894 0.20425 0.0
H23 H 0.28484 0.33629 0.23018 0.0
H24 H 0.35516 0.71432 0.16006 0.0
H25 H 0.42099 0.29616 0.23842 0.0
H26 H 0.5739 0.35784 0.15355 0.0
H27 H 0.65452 0.78354 0.13878 0.0
H28 H 0.72322 0.67713 0.15745 0.0
H29 H 0.69773 0.50733 0.12676 0.0
H30 H 0.69967 0.53786 0.18636 0.0
N31 N 0.39723 0.60622 0.17265 0.0
C32 C 0.41324 0.69337 0.16049 0.0
C33 C 0.58276 0.7332 0.14824 0.0
C34 C 0.56901 0.64822 0.16222 0.0
C35 C 0.50469 0.75627 0.14756 0.0
C36 C 0.47373 0.58463 0.174 0.0
H37 H 0.58654 0.39342 0.216 0.0
N38 N 0.36921 0.45015 0.20179 0.0
C39 C 0.43283 0.35474 0.22452 0.0
C40 C 0.45974 0.50452 0.18948 0.0
C41 C 0.35565 0.37752 0.2197 0.0
C42 C 0.52598 0.40947 0.21175 0.0
C43 C 0.54096 0.4865 0.19427 0.0
O44 O 0.26401 0.50803 0.23685 0.0
O45 O 0.08788 0.42991 0.19497 0.0
O46 O 0.03353 0.52913 0.17539 0.0
O47 O 0.20748 0.61426 0.18543 0.0
O48 O 0.15096 0.38096 0.22245 0.0
O49 O 0.32551 0.64485 0.21413 0.0
O50 O 0.02172 0.39041 0.11525 0.0
O51 O 0.187 0.46638 0.15728 0.0
O52 O 0.23645 0.3643 0.17786 0.0
O53 O 0.06284 0.28107 0.16739 0.0
O54 O 0.1269 0.51752 0.12987 0.0
O55 O 0.94758 0.25299 0.13805 0.0
C56 C 0.06631 0.36994 0.21397 0.0
C57 C 0.41365 0.64884 0.25282 0.0
C58 C 0.50128 0.69257 0.29516 0.0
C59 C 0.41132 0.65734 0.28018 0.0
C60 C 0.59203 0.71492 0.28218 0.0
C61 C 0.50664 0.67779 0.24053 0.0
C62 C 0.59469 0.70887 0.25514 0.0
C63 C 0.11982 0.61223 0.18177 0.0
C64 C 0.3188 0.60666 0.2373 0.0
C65 C 0.6357 0.54897 0.18247 0.0
C66 C 0.64925 0.62864 0.16612 0.0
C67 C 0.21065 0.52547 0.13805 0.0
C68 C 0.8751 0.25433 0.09684 0.0
C69 C 0.89315 0.27695 0.07014 0.0
C70 C 0.81184 0.24592 0.05241 0.0
C71 C 0.71154 0.19028 0.06187 0.0
C72 C 0.77443 0.19888 0.10585 0.0
C73 C 0.69327 0.16694 0.08838 0.0
C74 C 0.14959 0.2818 0.17146 0.0
C75 C 0.96293 0.29223 0.11473 0.0
H76 H 0.34005 0.63812 0.28956 0.0
H77 H 0.66185 0.73763 0.29285 0.0
H78 H 0.51156 0.6763 0.21964 0.0
H79 H 0.66548 0.72855 0.24544 0.0
H80 H 0.971 0.31903 0.06322 0.0
H81 H 0.64707 0.16657 0.0489 0.0
H82 H 0.75831 0.18061 0.12632 0.0
H83 H 0.6158 0.12473 0.09546 0.0
Tb84 Tb 0.58368 0.91445 0.53171 0.0
C85 C 0.90669 0.33394 0.48964 0.0
C86 C 0.87412 0.45356 0.51267 0.0
C87 C 0.0412 0.51036 0.49419 0.0
C88 C 0.84124 0.3543 0.50338 0.0
C89 C 0.00721 0.41193 0.48453 0.0
C90 C 0.97507 0.53094 0.50847 0.0
C91 C 0.02966 0.29223 0.45855 0.0
N92 N 0.86961 0.23904 0.4798 0.0
C93 C 0.92882 0.21807 0.46376 0.0
C94 C 0.06927 0.38954 0.46908 0.0
Tb95 Tb 0.70094 0.12458 0.48725 0.0
N96 N 0.7431 0.27879 0.5058 0.0
C97 C 0.67233 0.30021 0.51579 0.0
C98 C 0.80326 0.47329 0.52469 0.0
C99 C 0.70159 0.39647 0.52596 0.0
H100 H 0.89924 0.14369 0.45517 0.0
H101 H 0.64532 0.41165 0.53446 0.0
H102 H 0.00175 0.60764 0.51541 0.0
H103 H 0.07647 0.27446 0.44623 0.0
H104 H 0.59295 0.24291 0.51648 0.0
H105 H 0.65844 0.63756 0.48365 0.0
H106 H 0.82544 0.54837 0.53214 0.0
H107 H 0.38124 0.88036 0.56489 0.0
H108 H 0.70557 0.80211 0.50198 0.0
H109 H 0.20406 0.74384 0.57144 0.0
H110 H 0.11773 0.57159 0.49024 0.0
H111 H 0.47953 0.49882 0.48405 0.0
H112 H 0.30096 0.43443 0.49869 0.0
H113 H 0.14695 0.44727 0.46472 0.0
H114 H 0.17848 0.46191 0.52331 0.0
N115 N 0.55382 0.76364 0.51278 0.0
C116 C 0.62672 0.74479 0.50286 0.0
C117 C 0.4993 0.57237 0.49216 0.0
C118 C 0.42567 0.58893 0.50371 0.0
C119 C 0.60035 0.65025 0.49205 0.0
C120 C 0.45525 0.68639 0.51395 0.0
H121 H 0.1411 0.57692 0.55012 0.0
N122 N 0.4169 0.79455 0.53838 0.0
C123 C 0.25382 0.73136 0.55882 0.0
C124 C 0.38485 0.70221 0.52726 0.0
C125 C 0.35426 0.80882 0.5549 0.0
C126 C 0.21849 0.63738 0.54668 0.0
C127 C 0.28461 0.62112 0.53111 0.0
O128 O 0.68583 0.96299 0.56371 0.0
O129 O 0.66765 0.07702 0.52718 0.0
O130 O 0.82298 0.12016 0.5089 0.0
O131 O 0.73798 0.9492 0.52162 0.0
O132 O 0.54583 0.01944 0.5512 0.0
O133 O 0.5501 0.81953 0.56494 0.0
O134 O 0.70999 0.12756 0.4462 0.0
O135 O 0.60965 0.95997 0.49114 0.0
O136 O 0.45819 0.9224 0.51308 0.0
O137 O 0.54233 0.08418 0.49421 0.0
O138 O 0.72523 0.01692 0.4649 0.0
O139 O 0.62521 0.18581 0.46624 0.0
C140 C 0.62295 0.10309 0.54337 0.0
C141 C 0.61117 0.90559 0.60544 0.0
C142 C 0.61114 0.8763 0.65254 0.0
C143 C 0.62313 0.85261 0.62655 0.0
C144 C 0.5869 0.95296 0.65705 0.0
C145 C 0.58479 0.98002 0.61084 0.0
C146 C 0.57358 0.00406 0.63631 0.0
C147 C 0.82254 0.03696 0.51707 0.0
C148 C 0.62866 0.8849 0.57812 0.0
C149 C 0.25477 0.52524 0.52035 0.0
C150 C 0.32473 0.50949 0.50643 0.0
C151 C 0.65126 0.93403 0.47386 0.0
C152 C 0.70794 0.26783 0.42705 0.0
C153 C 0.71601 0.25558 0.4002 0.0
C154 C 0.76255 0.34055 0.3835 0.0
C155 C 0.79944 0.43826 0.39418 0.0
C156 C 0.74532 0.36608 0.43726 0.0
C157 C 0.79051 0.45061 0.42084 0.0
C158 C 0.45851 0.00065 0.50157 0.0
C159 C 0.66096 0.17712 0.44394 0.0
H160 H 0.64289 0.79438 0.6228 0.0
H161 H 0.57587 0.97196 0.67667 0.0
H162 H 0.57258 0.02026 0.59558 0.0
H163 H 0.55385 0.06229 0.63998 0.0
H164 H 0.6859 0.1795 0.39238 0.0
H165 H 0.83748 0.50551 0.38207 0.0
H166 H 0.73978 0.37781 0.45785 0.0
H167 H 0.8197 0.52615 0.42886 0.0
Tb168 Tb 0.69371 0.55988 0.86587 0.0
C169 C 0.78108 0.23124 0.82319 0.0
C170 C 0.93281 0.25973 0.8461 0.0
C171 C 0.82066 0.09492 0.82651 0.0
C172 C 0.86769 0.29482 0.83717 0.0
C173 C 0.75694 0.13076 0.81741 0.0
C174 C 0.9078 0.15889 0.8411 0.0
C175 C 0.61478 0.11215 0.79182 0.0
N176 N 0.72408 0.27012 0.8138 0.0
C177 C 0.6432 0.21299 0.79762 0.0
C178 C 0.67164 0.07064 0.80184 0.0
Tb179 Tb 0.78307 0.43917 0.82163 0.0
N180 N 0.89219 0.39322 0.84022 0.0
C181 C 0.98458 0.46196 0.8507 0.0
C182 C 0.02368 0.32842 0.85858 0.0
C183 C 0.05012 0.43029 0.86065 0.0
H184 H 0.59941 0.24438 0.78936 0.0
H185 H 0.12182 0.48493 0.86951 0.0
H186 H 0.95701 0.13065 0.8477 0.0
H187 H 0.54965 0.0669 0.77939 0.0
H188 H 0.00817 0.54162 0.85181 0.0
H189 H 0.34758 0.48903 0.81446 0.0
H190 H 0.07559 0.30446 0.86579 0.0
H191 H 0.86365 0.76204 0.89897 0.0
H192 H 0.46318 0.44046 0.83325 0.0
H193 H 0.90437 0.93893 0.90598 0.0
H194 H 0.80429 0.01851 0.82197 0.0
H195 H 0.386 0.66702 0.8165 0.0
H196 H 0.49766 0.84368 0.83283 0.0
H197 H 0.65041 0.99301 0.797 0.0
H198 H 0.64629 0.9647 0.85838 0.0
N199 N 0.57389 0.59064 0.84624 0.0
C200 C 0.48397 0.5189 0.83499 0.0
C201 C 0.43903 0.64665 0.82488 0.0
C202 C 0.52763 0.71909 0.83746 0.0
C203 C 0.41686 0.54612 0.82383 0.0
C204 C 0.59478 0.6889 0.84796 0.0
H205 H 0.79951 0.00187 0.88506 0.0
N206 N 0.74135 0.72667 0.87258 0.0
C207 C 0.84178 0.88935 0.89331 0.0
C208 C 0.68077 0.75878 0.86161 0.0
C209 C 0.8188 0.78912 0.88913 0.0
C210 C 0.78256 0.92463 0.88142 0.0
C211 C 0.69983 0.85877 0.86577 0.0
O212 O 0.64016 0.45886 0.89796 0.0
O213 O 0.76965 0.47313 0.86166 0.0
O214 O 0.65557 0.31901 0.843 0.0
O215 O 0.57241 0.40701 0.85536 0.0
O216 O 0.83618 0.59601 0.88548 0.0
O217 O 0.63196 0.59432 0.89876 0.0
O218 O 0.77523 0.43574 0.78065 0.0
O219 O 0.71492 0.53416 0.82562 0.0
O220 O 0.82939 0.68345 0.84776 0.0
O221 O 0.90406 0.5966 0.82875 0.0
O222 O 0.65371 0.42144 0.79864 0.0
O223 O 0.92006 0.50391 0.80056 0.0
C224 C 0.84089 0.51758 0.87791 0.0
C225 C 0.65836 0.53609 0.93939 0.0
C226 C 0.63026 0.54172 0.98626 0.0
C227 C 0.59405 0.52702 0.96026 0.0
C228 C 0.73116 0.56587 0.99104 0.0
C229 C 0.75919 0.5622 0.94498 0.0
C230 C 0.79504 0.57624 0.9705 0.0
C231 C 0.57379 0.32156 0.85095 0.0
C232 C 0.6194 0.51666 0.91214 0.0
C233 C 0.63361 0.88872 0.85512 0.0
C234 C 0.54859 0.81956 0.8407 0.0
C235 C 0.6495 0.49814 0.80763 0.0
C236 C 0.9056 0.42171 0.76007 0.0
C237 C 0.87821 0.41509 0.73369 0.0
C238 C 0.90463 0.36213 0.71578 0.0
C239 C 0.96037 0.3167 0.72469 0.0
C240 C 0.96101 0.37568 0.76861 0.0
C241 C 0.98832 0.32367 0.75093 0.0
C242 C 0.90619 0.68124 0.83618 0.0
C243 C 0.8731 0.47507 0.77819 0.0
H244 H 0.51605 0.50739 0.95635 0.0
H245 H 0.76148 0.57889 0.0107 0.0
H246 H 0.81125 0.57212 0.92988 0.0
H247 H 0.87299 0.59583 0.97435 0.0
H248 H 0.83613 0.45144 0.72714 0.0
H249 H 0.98059 0.27398 0.71152 0.0
H250 H 0.98295 0.37949 0.78886 0.0
H251 H 0.03056 0.28785 0.75762 0.0
H252 H 0.28646 0.80029 0.18852 0.0
H253 H 0.98067 0.09384 0.1668 0.0
H254 H 0.96045 0.64867 0.17683 0.0
H255 H 0.30791 0.24379 0.17541 0.0
H256 H 0.97174 0.93034 0.17046 0.0
H257 H 0.29428 0.96318 0.1853 0.0
C258 C 0.21622 0.80094 0.18531 0.0
C259 C 0.1227 0.71036 0.18241 0.0
C260 C 0.04549 -0.00103 0.1716 0.0
C261 C 0.13167 0.89746 0.17866 0.0
C262 C 0.0509 0.09267 0.16944 0.0
C263 C 0.14523 0.18298 0.17133 0.0
C264 C 0.13502 -0.00455 0.17559 0.0
C265 C 0.23343 0.17625 0.17443 0.0
C266 C 0.22102 0.89436 0.1834 0.0
C267 C 0.03441 0.71651 0.17865 0.0
N268 N 0.22609 0.08382 0.1766 0.0
N269 N 0.04116 0.80879 0.17674 0.0
H270 H 0.26492 0.84159 0.50907 0.0
H271 H 0.01651 0.19816 0.51 0.0
H272 H 0.43241 0.16354 0.49225 0.0
H273 H 0.85204 0.8768 0.52749 0.0
H274 H 0.17107 0.18852 0.50421 0.0
H275 H 0.11137 0.85263 0.51488 0.0
C276 C 0.26951 0.91458 0.50662 0.0
C277 C 0.36226 0.00221 0.50087 0.0
C278 C 0.10086 0.12003 0.50917 0.0
C279 C 0.18692 0.01548 0.50733 0.0
C280 C 0.01247 0.12544 0.51238 0.0
C281 C 0.91987 0.03718 0.51792 0.0
C282 C 0.09657 0.02588 0.51189 0.0
C283 C 0.92053 0.94615 0.52219 0.0
C284 C 0.1818 0.9209 0.50993 0.0
C285 C 0.36298 0.09417 0.49706 0.0
N286 N 0.00723 0.94267 0.51882 0.0
N287 N 0.27675 0.09857 0.50057 0.0
H288 H 0.09389 0.70408 0.82706 0.0
H289 H 0.38529 0.29617 0.86055 0.0
H290 H 0.94287 0.87534 0.84317 0.0
H291 H 0.53842 0.12681 0.84467 0.0
H292 H 0.22262 0.14131 0.85533 0.0
H293 H 0.25763 0.85888 0.83223 0.0
C294 C 0.09498 0.77431 0.83151 0.0
C295 C 0.00449 0.77641 0.83529 0.0
C296 C 0.29179 0.13803 0.85285 0.0
C297 C 0.19167 0.95346 0.84143 0.0
C298 C 0.38505 0.22661 0.85583 0.0
C299 C 0.47596 0.22548 0.85189 0.0
C300 C 0.28932 0.04738 0.84611 0.0
C301 C 0.47032 0.13206 0.84683 0.0
C302 C 0.18865 0.86256 0.83463 0.0
C303 C 0.01075 0.86979 0.84076 0.0
N304 N 0.37834 0.04667 0.84381 0.0
N305 N 0.10294 0.95463 0.84385 0.0
H306 H 0.60741 0.44347 0.03257 0.0
H307 H 0.27075 0.6553 0.0973 0.0
H308 H 0.50878 0.62679 0.9913 0.0
H309 H 0.3248 0.43066 0.13375 0.0
H310 H 0.37497 0.66139 0.0603 0.0
H311 H 0.51672 0.44903 0.07125 0.0
C312 C 0.56608 0.48447 0.03163 0.0
C313 C 0.56564 0.53489 1.00869 0.0
C314 C 0.36495 0.61151 0.07651 0.0
C315 C 0.46222 0.54213 0.05299 0.0
C316 C 0.30622 0.60862 0.0977 0.0
C317 C 0.28938 0.54263 0.11863 0.0
C318 C 0.40695 0.54753 0.0762 0.0
C319 C 0.33642 0.48325 0.11818 0.0
C320 C 0.51445 0.48768 0.05373 0.0
C321 C 0.51024 0.58611 1.00849 0.0
N322 N 0.39269 0.48673 0.0972 0.0
N323 N 0.46118 0.58889 0.03036 0.0
H324 H 0.7509 0.44726 0.34127 0.0
H325 H 0.98894 0.20854 0.24588 0.0
H326 H 0.80988 0.20519 0.36136 0.0
H327 H 0.958 0.46669 0.22501 0.0
H328 H 0.88538 0.18239 0.28447 0.0
H329 H 0.79446 0.43595 0.29592 0.0
C330 C 0.77233 0.39134 0.33618 0.0
C331 C 0.77779 0.3279 0.35536 0.0
C332 C 0.89942 0.24382 0.2713 0.0
C333 C 0.82607 0.31359 0.30338 0.0
C334 C 0.95793 0.25821 0.2492 0.0
C335 C 0.98217 0.34003 0.23246 0.0
C336 C 0.86715 0.31356 0.27714 0.0
C337 C 0.94061 0.40254 0.23749 0.0
C338 C 0.79637 0.38444 0.31023 0.0
C339 C 0.80368 0.2553 0.3474 0.0
N340 N 0.88657 0.38926 0.25975 0.0
N341 N 0.82764 0.25089 0.32215 0.0
H342 H 0.7416 0.70734 0.80369 0.0
H343 H 0.52688 0.67032 0.65882 0.0
H344 H 0.51301 0.42776 0.7682 0.0
H345 H 0.71339 0.95577 0.69839 0.0
H346 H 0.52602 0.58032 0.69858 0.0
H347 H 0.7305 0.80157 0.76615 0.0
C348 C 0.6874 0.66607 0.78831 0.0
C349 C 0.62831 0.55959 0.78897 0.0
C350 C 0.56724 0.6627 0.69857 0.0
C351 C 0.61782 0.66609 0.74561 0.0
C352 C 0.56878 0.71396 0.67576 0.0
C353 C 0.62013 0.82056 0.6753 0.0
C354 C 0.61812 0.71841 0.72105 0.0
C355 C 0.67206 0.87341 0.69798 0.0
C356 C 0.68182 0.71969 0.76674 0.0
C357 C 0.56017 0.50987 0.76836 0.0
N358 N 0.66975 0.82189 0.7199 0.0
N359 N 0.55771 0.56326 0.7474 0.0
H360 H 0.00254 0.59614 0.911 0.0
H361 H 0.71031 0.13098 1.0094 0.0
H362 H 0.73255 0.31495 0.89058 0.0
H363 H 0.95834 0.42664 0.0313 0.0
H364 H 0.73697 0.18457 0.96374 0.0
H365 H 0.01174 0.51988 0.95225 0.0
C366 C 0.94722 0.51718 0.91487 0.0
C367 C 0.86574 0.46235 0.89766 0.0
C368 C 0.78626 0.23729 0.97852 0.0
C369 C 0.87388 0.3754 0.94495 0.0
C370 C 0.77057 0.20703 1.00464 0.0
C371 C 0.83155 0.27458 0.02435 0.0
C372 C 0.86345 0.33595 0.97197 0.0
C373 C 0.90987 0.3715 0.01686 0.0
C374 C 0.95169 0.47399 0.93852 0.0
C375 C 0.79599 0.36029 0.90346 0.0
N376 N 0.92293 0.39945 0.99135 0.0
N377 N 0.80039 0.3207 0.92689 0.0
H378 H 0.35028 0.58573 0.33226 0.0
H379 H 0.73648 0.84263 0.44825 0.0
H380 H 0.65676 0.83949 0.32442 0.0
H381 H 0.45319 0.84165 0.45552 0.0
H382 H 0.68077 0.75899 0.40592 0.0
H383 H 0.36406 0.61366 0.37988 0.0
C384 C 0.42015 0.64708 0.34032 0.0
C385 C 0.50336 0.70882 0.32402 0.0
C386 C 0.62923 0.77373 0.4172 0.0
C387 C 0.51984 0.73787 0.37827 0.0
C388 C 0.66043 0.82041 0.44142 0.0
C389 C 0.59936 0.84899 0.45529 0.0
C390 C 0.53663 0.75621 0.40661 0.0
C391 C 0.50203 0.82002 0.44542 0.0
C392 C 0.4278 0.66222 0.36747 0.0
C393 C 0.59182 0.78687 0.33588 0.0
N394 N 0.47422 0.77702 0.42121 0.0
N395 N 0.59799 0.79805 0.36214 0.0
H396 H 0.72042 0.32658 0.69682 0.0
H397 H 0.82795 0.20842 0.55368 0.0
H398 H 0.01172 0.37252 0.67164 0.0
H399 H 0.54304 0.18077 0.57755 0.0
H400 H 0.90635 0.29941 0.59399 0.0
H401 H 0.66266 0.2987 0.6516 0.0
C402 C 0.7729 0.33238 0.68175 0.0
C403 C 0.87099 0.35128 0.68812 0.0
C404 C 0.82721 0.27544 0.59023 0.0
C405 C 0.80467 0.31825 0.63615 0.0
C406 C 0.78259 0.22424 0.56704 0.0
C407 C 0.67823 0.18507 0.56263 0.0
C408 C 0.76671 0.28674 0.60912 0.0
C409 C 0.62345 0.20861 0.58051 0.0
C410 C 0.7397 0.31618 0.65588 0.0
C411 C 0.93488 0.35631 0.66772 0.0
N412 N 0.66771 0.25593 0.6033 0.0
N413 N 0.90033 0.33903 0.6427 0.0
loop_
_geom_bond_atom_site_label_1
_geom_bond_atom_site_label_2
_geom_bond_distance
_geom_bond_site_symmetry_2
_ccdc_geom_bond_type
Tb0 N31 2.660 . S
Tb0 N38 2.600 . S
Tb0 O44 2.546 . S
Tb0 O45 2.610 1_455 S
Tb0 O47 2.320 . S
Tb0 O48 2.552 . S
Tb0 O49 2.413 . S
Tb0 O51 2.362 . S
Tb0 O52 2.421 . S
Tb0 C64 2.833 . S
C1 C4 1.432 . S
C1 C5 1.414 . S
C1 N8 1.359 . S
C2 C4 1.417 . S
C2 C6 1.432 . S
C2 C14 1.410 . S
C3 C5 1.444 . S
C3 C6 1.317 . S
C3 H26 0.929 . S
C4 C1 1.432 . S
C4 C2 1.417 . S
C4 N12 1.360 . S
C5 C1 1.414 . S
C5 C3 1.444 . S
C5 C10 1.385 . S
C6 C2 1.432 . S
C6 C3 1.317 . S
C6 H18 0.930 . S
C7 C9 1.392 . S
C7 C10 1.370 . S
C7 H19 0.931 . S
N8 C1 1.359 . S
N8 C9 1.327 . S
N8 Tb11 2.600 . S
C9 C7 1.392 . S
C9 N8 1.327 . S
C9 H16 0.930 . S
C10 C5 1.385 . S
C10 C7 1.370 . S
C10 H29 0.930 . S
Tb11 N8 2.600 . S
Tb11 N12 2.660 . S
Tb11 O45 2.362 . S
Tb11 O46 2.421 . S
Tb11 O50 2.546 . S
Tb11 O51 2.610 1_655 S
Tb11 O53 2.320 . S
Tb11 O54 2.552 . S
Tb11 O55 2.413 . S
Tb11 C75 2.833 . S
N12 C4 1.360 . S
N12 Tb11 2.660 . S
N12 C13 1.305 . S
C13 N12 1.305 . S
C13 C15 1.407 . S
C13 H20 0.930 . S
C14 C2 1.410 . S
C14 C15 1.345 . S
C14 H22 0.930 . S
C15 C13 1.407 . S
C15 C14 1.345 . S
C15 H17 0.930 . S
H16 C9 0.930 . S
H17 C15 0.930 . S
H18 C6 0.930 . S
H19 C7 0.931 . S
H20 C13 0.930 . S
H21 C35 0.930 . S
H22 C14 0.930 . S
H23 C41 0.930 . S
H24 C32 0.930 . S
H25 C39 0.931 . S
H26 C3 0.929 . S
H27 C33 0.930 . S
H28 C66 0.930 . S
H29 C10 0.930 . S
H30 C65 0.929 . S
N31 Tb0 2.660 . S
N31 C32 1.305 . S
N31 C36 1.360 . S
C32 H24 0.930 . S
C32 N31 1.305 . S
C32 C35 1.407 . S
C33 H27 0.930 . S
C33 C34 1.410 . S
C33 C35 1.345 . S
C34 C33 1.410 . S
C34 C36 1.417 . S
C34 C66 1.432 . S
C35 H21 0.930 . S
C35 C32 1.407 . S
C35 C33 1.345 . S
C36 N31 1.360 . S
C36 C34 1.417 . S
C36 C40 1.432 . S
H37 C42 0.930 . S
N38 Tb0 2.600 . S
N38 C40 1.359 . S
N38 C41 1.327 . S
C39 H25 0.931 . S
C39 C41 1.392 . S
C39 C42 1.370 . S
C40 C36 1.432 . S
C40 N38 1.359 . S
C40 C43 1.414 . S
C41 H23 0.930 . S
C41 N38 1.327 . S
C41 C39 1.392 . S
C42 H37 0.930 . S
C42 C39 1.370 . S
C42 C43 1.385 . S
C43 C40 1.414 . S
C43 C42 1.385 . S
C43 C65 1.444 . S
O44 Tb0 2.546 . S
O44 C64 1.251 . S
O45 Tb0 2.610 1_655 S
O45 Tb11 2.362 . S
O45 C56 1.283 . S
O46 Tb11 2.421 . S
O46 C63 1.262 1_655 S
O47 Tb0 2.320 . S
O47 C63 1.260 . S
O48 Tb0 2.552 . S
O48 C56 1.243 1_455 S
O49 Tb0 2.413 . S
O49 C64 1.256 . S
O50 Tb11 2.546 . S
O50 C75 1.251 . S
O51 Tb0 2.362 . S
O51 Tb11 2.610 1_455 S
O51 C67 1.283 . S
O52 Tb0 2.421 . S
O52 C74 1.262 1_455 S
O53 Tb11 2.320 . S
O53 C74 1.260 . S
O54 Tb11 2.552 . S
O54 C67 1.243 1_655 S
O55 Tb11 2.413 . S
O55 C75 1.256 . S
C56 O45 1.283 . S
C56 O48 1.243 1_655 S
C57 C59 1.382 . S
C57 C61 1.393 . S
C57 C64 1.500 . S
C58 C59 1.400 . S
C58 C60 1.384 . S
C59 C57 1.382 . S
C59 C58 1.400 . S
C59 H76 0.930 . S
C60 C58 1.384 . S
C60 C62 1.392 . S
C60 H77 0.931 . S
C61 C57 1.393 . S
C61 C62 1.401 . S
C61 H78 0.930 . S
C62 C60 1.392 . S
C62 C61 1.401 . S
C62 H79 0.930 . S
C63 O46 1.262 1_455 S
C63 O47 1.260 . S
C64 Tb0 2.833 . S
C64 O44 1.251 . S
C64 O49 1.256 . S
C64 C57 1.500 . S
C65 H30 0.929 . S
C65 C43 1.444 . S
C65 C66 1.317 . S
C66 H28 0.930 . S
C66 C34 1.432 . S
C66 C65 1.317 . S
C67 O51 1.283 . S
C67 O54 1.243 1_455 S
C68 C69 1.382 . S
C68 C72 1.393 . S
C68 C75 1.500 . S
C69 C68 1.382 . S
C69 C70 1.400 . S
C69 H80 0.930 . S
C70 C69 1.400 . S
C70 C71 1.384 . S
C71 C70 1.384 . S
C71 C73 1.392 . S
C71 H81 0.931 . S
C72 C68 1.393 . S
C72 C73 1.401 . S
C72 H82 0.930 . S
C73 C71 1.392 . S
C73 C72 1.401 . S
C73 H83 0.930 . S
C74 O52 1.262 1_655 S
C74 O53 1.260 . S
C75 Tb11 2.833 . S
C75 O50 1.251 . S
C75 O55 1.256 . S
C75 C68 1.500 . S
H76 C59 0.930 . S
H77 C60 0.931 . S
H78 C61 0.930 . S
H79 C62 0.930 . S
H80 C69 0.930 . S
H81 C71 0.931 . S
H82 C72 0.930 . S
H83 C73 0.930 . S
Tb84 N115 2.660 1_545 S
Tb84 N122 2.600 1_545 S
Tb84 O128 2.546 1_545 S
Tb84 O129 2.610 . S
Tb84 O131 2.320 . S
Tb84 O132 2.552 . S
Tb84 O133 2.413 1_545 S
Tb84 O135 2.362 . S
Tb84 O136 2.421 . S
Tb84 C148 2.833 1_545 S
C85 C88 1.432 1_455 S
C85 C89 1.414 . S
C85 N92 1.359 . S
C86 C88 1.417 . S
C86 C90 1.432 1_655 S
C86 C98 1.410 . S
C87 C89 1.444 . S
C87 C90 1.317 . S
C87 H110 0.929 . S
C88 C85 1.432 1_655 S
C88 C86 1.417 . S
C88 N96 1.360 . S
C89 C85 1.414 . S
C89 C87 1.444 . S
C89 C94 1.385 . S
C90 C86 1.432 1_455 S
C90 C87 1.317 . S
C90 H102 0.930 . S
C91 C93 1.392 . S
C91 C94 1.370 . S
C91 H103 0.931 . S
N92 C85 1.359 . S
N92 C93 1.327 . S
N92 Tb95 2.600 1_455 S
C93 C91 1.392 . S
C93 N92 1.327 . S
C93 H100 0.930 . S
C94 C89 1.385 . S
C94 C91 1.370 . S
C94 H113 0.930 . S
Tb95 N92 2.600 1_655 S
Tb95 N96 2.660 . S
Tb95 O129 2.362 . S
Tb95 O130 2.421 . S
Tb95 O134 2.546 . S
Tb95 O135 2.610 . S
Tb95 O137 2.320 . S
Tb95 O138 2.552 . S
Tb95 O139 2.413 . S
Tb95 C159 2.833 . S
N96 C88 1.360 . S
N96 Tb95 2.660 . S
N96 C97 1.305 . S
C97 N96 1.305 . S
C97 C99 1.407 . S
C97 H104 0.930 . S
C98 C86 1.410 . S
C98 C99 1.345 . S
C98 H106 0.930 . S
C99 C97 1.407 . S
C99 C98 1.345 . S
C99 H101 0.930 . S
H100 C93 0.930 . S
H101 C99 0.930 . S
H102 C90 0.930 . S
H103 C91 0.931 . S
H104 C97 0.930 . S
H105 C119 0.930 . S
H106 C98 0.930 . S
H107 C125 0.930 . S
H108 C116 0.930 . S
H109 C123 0.931 . S
H110 C87 0.929 . S
H111 C117 0.930 . S
H112 C150 0.930 . S
H113 C94 0.930 . S
H114 C149 0.929 . S
N115 Tb84 2.660 1_565 S
N115 C116 1.305 . S
N115 C120 1.360 . S
C116 H108 0.930 . S
C116 N115 1.305 . S
C116 C119 1.407 . S
C117 H111 0.930 . S
C117 C118 1.410 . S
C117 C119 1.345 . S
C118 C117 1.410 . S
C118 C120 1.417 . S
C118 C150 1.432 . S
C119 H105 0.930 . S
C119 C116 1.407 . S
C119 C117 1.345 . S
C120 N115 1.360 . S
C120 C118 1.417 . S
C120 C124 1.432 . S
H121 C126 0.930 . S
N122 Tb84 2.600 1_565 S
N122 C124 1.359 . S
N122 C125 1.327 . S
C123 H109 0.931 . S
C123 C125 1.392 . S
C123 C126 1.370 . S
C124 C120 1.432 . S
C124 N122 1.359 . S
C124 C127 1.414 . S
C125 H107 0.930 . S
C125 N122 1.327 . S
C125 C123 1.392 . S
C126 H121 0.930 . S
C126 C123 1.370 . S
C126 C127 1.385 . S
C127 C124 1.414 . S
C127 C126 1.385 . S
C127 C149 1.444 . S
O128 Tb84 2.546 1_565 S
O128 C148 1.251 . S
O129 Tb84 2.610 . S
O129 Tb95 2.362 . S
O129 C140 1.283 . S
O130 Tb95 2.421 . S
O130 C147 1.262 . S
O131 Tb84 2.320 . S
O131 C147 1.260 . S
O132 Tb84 2.552 . S
O132 C140 1.243 . S
O133 Tb84 2.413 1_565 S
O133 C148 1.256 . S
O134 Tb95 2.546 . S
O134 C159 1.251 . S
O135 Tb84 2.362 . S
O135 Tb95 2.610 . S
O135 C151 1.283 . S
O136 Tb84 2.421 . S
O136 C158 1.262 . S
O137 Tb95 2.320 . S
O137 C158 1.260 . S
O138 Tb95 2.552 . S
O138 C151 1.243 . S
O139 Tb95 2.413 . S
O139 C159 1.256 . S
C140 O129 1.283 . S
C140 O132 1.243 . S
C141 C143 1.382 . S
C141 C145 1.393 . S
C141 C148 1.500 . S
C142 C143 1.400 . S
C142 C144 1.384 . S
C143 C141 1.382 . S
C143 C142 1.400 . S
C143 H160 0.930 . S
C144 C142 1.384 . S
C144 C146 1.392 . S
C144 H161 0.931 . S
C145 C141 1.393 . S
C145 C146 1.401 . S
C145 H162 0.930 . S
C146 C144 1.392 . S
C146 C145 1.401 . S
C146 H163 0.930 . S
C147 O130 1.262 . S
C147 O131 1.260 . S
C148 Tb84 2.833 1_565 S
C148 O128 1.251 . S
C148 O133 1.256 . S
C148 C141 1.500 . S
C149 H114 0.929 . S
C149 C127 1.444 . S
C149 C150 1.317 . S
C150 H112 0.930 . S
C150 C118 1.432 . S
C150 C149 1.317 . S
C151 O135 1.283 . S
C151 O138 1.243 . S
C152 C153 1.382 . S
C152 C156 1.393 1_655 S
C152 C159 1.500 . S
C153 C152 1.382 . S
C153 C154 1.400 . S
C153 H164 0.930 . S
C154 C153 1.400 . S
C154 C155 1.384 . S
C155 C154 1.384 . S
C155 C157 1.392 1_655 S
C155 H165 0.931 . S
C156 C152 1.393 1_455 S
C156 C157 1.401 . S
C156 H166 0.930 . S
C157 C155 1.392 1_455 S
C157 C156 1.401 . S
C157 H167 0.930 . S
C158 O136 1.262 . S
C158 O137 1.260 . S
C159 Tb95 2.833 . S
C159 O134 1.251 . S
C159 O139 1.256 . S
C159 C152 1.500 . S
H160 C143 0.930 . S
H161 C144 0.931 . S
H162 C145 0.930 . S
H163 C146 0.930 . S
H164 C153 0.930 . S
H165 C155 0.931 . S
H166 C156 0.930 . S
H167 C157 0.930 . S
Tb168 N199 2.660 . S
Tb168 N206 2.600 . S
Tb168 O212 2.546 . S
Tb168 O213 2.610 . S
Tb168 O215 2.320 . S
Tb168 O216 2.552 . S
Tb168 O217 2.413 . S
Tb168 O219 2.362 . S
Tb168 O220 2.421 . S
Tb168 C232 2.833 . S
C169 C172 1.432 . S
C169 C173 1.414 . S
C169 N176 1.359 . S
C170 C172 1.417 1_455 S
C170 C174 1.432 . S
C170 C182 1.410 . S
C171 C173 1.444 . S
C171 C174 1.317 1_655 S
C171 H194 0.929 1_545 S
C172 C169 1.432 . S
C172 C170 1.417 1_655 S
C172 N180 1.360 . S
C173 C169 1.414 . S
C173 C171 1.444 . S
C173 C178 1.385 1_545 S
C174 C170 1.432 . S
C174 C171 1.317 1_455 S
C174 H186 0.930 . S
C175 C177 1.392 1_565 S
C175 C178 1.370 . S
C175 H187 0.931 . S
N176 C169 1.359 . S
N176 C177 1.327 . S
N176 Tb179 2.600 . S
C177 C175 1.392 1_545 S
C177 N176 1.327 . S
C177 H184 0.930 . S
C178 C173 1.385 1_565 S
C178 C175 1.370 . S
C178 H197 0.930 . S
Tb179 N176 2.600 . S
Tb179 N180 2.660 . S
Tb179 O213 2.362 . S
Tb179 O214 2.421 . S
Tb179 O218 2.546 . S
Tb179 O219 2.610 . S
Tb179 O221 2.320 . S
Tb179 O222 2.552 . S
Tb179 O223 2.413 . S
Tb179 C243 2.833 . S
N180 C172 1.360 . S
N180 Tb179 2.660 . S
N180 C181 1.305 1_655 S
C181 N180 1.305 1_455 S
C181 C183 1.407 . S
C181 H188 0.930 . S
C182 C170 1.410 . S
C182 C183 1.345 . S
C182 H190 0.930 . S
C183 C181 1.407 . S
C183 C182 1.345 . S
C183 H185 0.930 . S
H184 C177 0.930 . S
H185 C183 0.930 . S
H186 C174 0.930 . S
H187 C175 0.931 . S
H188 C181 0.930 . S
H189 C203 0.930 . S
H190 C182 0.930 . S
H191 C209 0.930 . S
H192 C200 0.930 . S
H193 C207 0.931 . S
H194 C171 0.929 1_565 S
H195 C201 0.930 . S
H196 C234 0.930 . S
H197 C178 0.930 . S
H198 C233 0.929 . S
N199 Tb168 2.660 . S
N199 C200 1.305 . S
N199 C204 1.360 . S
C200 H192 0.930 . S
C200 N199 1.305 . S
C200 C203 1.407 . S
C201 H195 0.930 . S
C201 C202 1.410 . S
C201 C203 1.345 . S
C202 C201 1.410 . S
C202 C204 1.417 . S
C202 C234 1.432 . S
C203 H189 0.930 . S
C203 C200 1.407 . S
C203 C201 1.345 . S
C204 N199 1.360 . S
C204 C202 1.417 . S
C204 C208 1.432 . S
H205 C210 0.930 . S
N206 Tb168 2.600 . S
N206 C208 1.359 . S
N206 C209 1.327 . S
C207 H193 0.931 . S
C207 C209 1.392 . S
C207 C210 1.370 . S
C208 C204 1.432 . S
C208 N206 1.359 . S
C208 C211 1.414 . S
C209 H191 0.930 . S
C209 N206 1.327 . S
C209 C207 1.392 . S
C210 H205 0.930 . S
C210 C207 1.370 . S
C210 C211 1.385 . S
C211 C208 1.414 . S
C211 C210 1.385 . S
C211 C233 1.444 . S
O212 Tb168 2.546 . S
O212 C232 1.251 . S
O213 Tb168 2.610 . S
O213 Tb179 2.362 . S
O213 C224 1.283 . S
O214 Tb179 2.421 . S
O214 C231 1.262 . S
O215 Tb168 2.320 . S
O215 C231 1.260 . S
O216 Tb168 2.552 . S
O216 C224 1.243 . S
O217 Tb168 2.413 . S
O217 C232 1.256 . S
O218 Tb179 2.546 . S
O218 C243 1.251 . S
O219 Tb168 2.362 . S
O219 Tb179 2.610 . S
O219 C235 1.283 . S
O220 Tb168 2.421 . S
O220 C242 1.262 . S
O221 Tb179 2.320 . S
O221 C242 1.260 . S
O222 Tb179 2.552 . S
O222 C235 1.243 . S
O223 Tb179 2.413 . S
O223 C243 1.256 . S
C224 O213 1.283 . S
C224 O216 1.243 . S
C225 C227 1.382 . S
C225 C229 1.393 . S
C225 C232 1.500 . S
C226 C227 1.400 . S
C226 C228 1.384 . S
C227 C225 1.382 . S
C227 C226 1.400 . S
C227 H244 0.930 . S
C228 C226 1.384 . S
C228 C230 1.392 . S
C228 H245 0.931 . S
C229 C225 1.393 . S
C229 C230 1.401 . S
C229 H246 0.930 . S
C230 C228 1.392 . S
C230 C229 1.401 . S
C230 H247 0.930 . S
C231 O214 1.262 . S
C231 O215 1.260 . S
C232 Tb168 2.833 . S
C232 O212 1.251 . S
C232 O217 1.256 . S
C232 C225 1.500 . S
C233 H198 0.929 . S
C233 C211 1.444 . S
C233 C234 1.317 . S
C234 H196 0.930 . S
C234 C202 1.432 . S
C234 C233 1.317 . S
C235 O219 1.283 . S
C235 O222 1.243 . S
C236 C237 1.382 1_655 S
C236 C240 1.393 . S
C236 C243 1.500 . S
C237 C236 1.382 1_455 S
C237 C238 1.400 . S
C237 H248 0.930 . S
C238 C237 1.400 . S
C238 C239 1.384 . S
C239 C238 1.384 . S
C239 C241 1.392 1_455 S
C239 H249 0.931 . S
C240 C236 1.393 . S
C240 C241 1.401 . S
C240 H250 0.930 . S
C241 C239 1.392 1_655 S
C241 C240 1.401 . S
C241 H251 0.930 . S
C242 O220 1.262 . S
C242 O221 1.260 . S
C243 Tb179 2.833 . S
C243 O218 1.251 . S
C243 O223 1.256 . S
C243 C236 1.500 . S
H244 C227 0.930 . S
H245 C228 0.931 . S
H246 C229 0.930 . S
H247 C230 0.930 . S
H248 C237 0.930 . S
H249 C239 0.931 . S
H250 C240 0.930 . S
H251 C241 0.930 . S
H252 C258 0.930 . S
H253 C262 0.930 . S
H254 C267 0.929 . S
H255 C265 0.929 . S
H256 C260 0.929 . S
H257 C266 0.929 . S
C258 H252 0.930 . S
C258 C259 1.367 . S
C258 C266 1.378 . S
C259 C258 1.367 . S
C259 C267 1.433 1_455 S
C260 H256 0.929 . S
C260 C262 1.378 1_565 S
C260 C264 1.350 . S
C261 C264 1.463 1_455 S
C261 C266 1.350 . S
C261 N269 1.427 1_455 S
C262 H253 0.930 . S
C262 C260 1.378 1_545 S
C262 C263 1.367 . S
C263 C262 1.367 . S
C263 C265 1.433 1_655 S
C264 C260 1.350 . S
C264 C261 1.463 1_655 S
C264 N268 1.427 1_665 S
C265 H255 0.929 . S
C265 C263 1.433 1_455 S
C265 N268 1.384 . S
C266 H257 0.929 . S
C266 C258 1.378 . S
C266 C261 1.350 . S
C267 H254 0.929 . S
C267 C259 1.433 1_655 S
C267 N269 1.384 . S
N268 C264 1.427 1_445 S
N268 C265 1.384 . S
N269 C261 1.427 1_655 S
N269 C267 1.384 . S
H270 C276 0.930 . S
H271 C280 0.930 . S
H272 C285 0.929 . S
H273 C283 0.929 1_655 S
H274 C278 0.929 . S
H275 C284 0.929 . S
C276 H270 0.930 . S
C276 C277 1.367 . S
C276 C284 1.378 . S
C277 C276 1.367 . S
C277 C285 1.433 . S
C278 H274 0.929 . S
C278 C280 1.378 . S
C278 C282 1.350 . S
C279 C282 1.463 . S
C279 C284 1.350 . S
C279 N287 1.427 . S
C280 H271 0.930 . S
C280 C278 1.378 . S
C280 C281 1.367 . S
C281 C280 1.367 . S
C281 C283 1.433 . S
C282 C278 1.350 . S
C282 C279 1.463 . S
C282 N286 1.427 . S
C283 H273 0.929 1_455 S
C283 C281 1.433 . S
C283 N286 1.384 . S
C284 H275 0.929 . S
C284 C276 1.378 . S
C284 C279 1.350 . S
C285 H272 0.929 . S
C285 C277 1.433 . S
C285 N287 1.384 . S
N286 C282 1.427 . S
N286 C283 1.384 . S
N287 C279 1.427 . S
N287 C285 1.384 . S
H288 C294 0.930 . S
H289 C298 0.930 . S
H290 C303 0.929 1_655 S
H291 C301 0.929 . S
H292 C296 0.929 . S
H293 C302 0.929 . S
C294 H288 0.930 . S
C294 C295 1.367 . S
C294 C302 1.378 . S
C295 C294 1.367 . S
C295 C303 1.433 . S
C296 H292 0.929 . S
C296 C298 1.378 . S
C296 C300 1.350 1_545 S
C297 C300 1.463 . S
C297 C302 1.350 . S
C297 N305 1.427 . S
C298 H289 0.930 . S
C298 C296 1.378 . S
C298 C299 1.367 . S
C299 C298 1.367 . S
C299 C301 1.433 . S
C300 C296 1.350 1_565 S
C300 C297 1.463 . S
C300 N304 1.427 . S
C301 H291 0.929 . S
C301 C299 1.433 . S
C301 N304 1.384 1_545 S
C302 H293 0.929 . S
C302 C294 1.378 . S
C302 C297 1.350 . S
C303 H290 0.929 1_455 S
C303 C295 1.433 . S
C303 N305 1.384 . S
N304 C300 1.427 . S
N304 C301 1.384 1_565 S
N305 C297 1.427 . S
N305 C303 1.384 . S
H306 C312 0.925 1_556 S
H307 C316 0.930 . S
H308 C321 0.929 . S
H309 C319 0.929 . S
H310 C314 0.929 . S
H311 C320 0.929 . S
C312 H306 0.925 1_554 S
C312 C313 1.358 1_554 S
C312 C320 1.392 . S
C313 C312 1.358 1_556 S
C313 C321 1.433 . S
C314 H310 0.929 . S
C314 C316 1.378 . S
C314 C318 1.350 . S
C315 C318 1.463 . S
C315 C320 1.350 . S
C315 N323 1.427 . S
C316 H307 0.930 . S
C316 C314 1.378 . S
C316 C317 1.367 . S
C317 C316 1.367 . S
C317 C319 1.433 . S
C318 C314 1.350 . S
C318 C315 1.463 . S
C318 N322 1.427 . S
C319 H309 0.929 . S
C319 C317 1.433 . S
C319 N322 1.384 . S
C320 H311 0.929 . S
C320 C312 1.392 . S
C320 C315 1.350 . S
C321 H308 0.929 . S
C321 C313 1.433 . S
C321 N323 1.384 1_556 S
N322 C318 1.427 . S
N322 C319 1.384 . S
N323 C315 1.427 . S
N323 C321 1.384 1_554 S
H324 C330 0.930 . S
H325 C334 0.930 . S
H326 C339 0.929 . S
H327 C337 0.929 1_455 S
H328 C332 0.929 . S
H329 C338 0.929 . S
C330 H324 0.930 . S
C330 C331 1.367 . S
C330 C338 1.378 . S
C331 C330 1.367 . S
C331 C339 1.433 . S
C332 H328 0.929 . S
C332 C334 1.378 . S
C332 C336 1.350 . S
C333 C336 1.463 . S
C333 C338 1.350 . S
C333 N341 1.427 . S
C334 H325 0.930 . S
C334 C332 1.378 . S
C334 C335 1.367 . S
C335 C334 1.367 . S
C335 C337 1.433 . S
C336 C332 1.350 . S
C336 C333 1.463 . S
C336 N340 1.427 . S
C337 H327 0.929 1_655 S
C337 C335 1.433 . S
C337 N340 1.384 . S
C338 H329 0.929 . S
C338 C330 1.378 . S
C338 C333 1.350 . S
C339 H326 0.929 . S
C339 C331 1.433 . S
C339 N341 1.384 . S
N340 C336 1.427 . S
N340 C337 1.384 . S
N341 C333 1.427 . S
N341 C339 1.384 . S
H342 C348 0.930 . S
H343 C352 0.930 . S
H344 C357 0.929 . S
H345 C355 0.929 . S
H346 C350 0.929 . S
H347 C356 0.929 . S
C348 H342 0.930 . S
C348 C349 1.367 . S
C348 C356 1.378 . S
C349 C348 1.367 . S
C349 C357 1.433 . S
C350 H346 0.929 . S
C350 C352 1.378 . S
C350 C354 1.350 . S
C351 C354 1.463 . S
C351 C356 1.350 . S
C351 N359 1.427 . S
C352 H343 0.930 . S
C352 C350 1.378 . S
C352 C353 1.367 . S
C353 C352 1.367 . S
C353 C355 1.433 . S
C354 C350 1.350 . S
C354 C351 1.463 . S
C354 N358 1.427 . S
C355 H345 0.929 . S
C355 C353 1.433 . S
C355 N358 1.384 . S
C356 H347 0.929 . S
C356 C348 1.378 . S
C356 C351 1.350 . S
C357 H344 0.929 . S
C357 C349 1.433 . S
C357 N359 1.384 . S
N358 C354 1.427 . S
N358 C355 1.384 . S
N359 C351 1.427 . S
N359 C357 1.384 . S
H360 C366 0.930 . S
H361 C370 0.930 1_564 S
H362 C375 0.929 . S
H363 C373 0.929 . S
H364 C368 0.929 . S
H365 C374 0.929 . S
C366 H360 0.930 . S
C366 C367 1.367 . S
C366 C374 1.378 . S
C367 C366 1.367 . S
C367 C375 1.433 . S
C368 H364 0.929 . S
C368 C370 1.378 . S
C368 C372 1.350 . S
C369 C372 1.463 . S
C369 C374 1.350 . S
C369 N377 1.427 . S
C370 H361 0.930 1_546 S
C370 C368 1.378 . S
C370 C371 1.366 1_556 S
C371 C370 1.366 1_554 S
C371 C373 1.433 . S
C372 C368 1.350 . S
C372 C369 1.463 . S
C372 N376 1.427 . S
C373 H363 0.929 . S
C373 C371 1.433 . S
C373 N376 1.384 1_554 S
C374 H365 0.929 . S
C374 C366 1.378 . S
C374 C369 1.350 . S
C375 H362 0.929 . S
C375 C367 1.433 . S
C375 N377 1.384 . S
N376 C372 1.427 . S
N376 C373 1.384 1_556 S
N377 C369 1.427 . S
N377 C375 1.384 . S
H378 C384 0.930 . S
H379 C388 0.930 . S
H380 C393 0.929 . S
H381 C391 0.929 . S
H382 C386 0.929 . S
H383 C392 0.929 . S
C384 H378 0.930 . S
C384 C385 1.367 . S
C384 C392 1.378 . S
C385 C384 1.367 . S
C385 C393 1.433 . S
C386 H382 0.929 . S
C386 C388 1.378 . S
C386 C390 1.350 1_545 S
C387 C390 1.463 . S
C387 C392 1.350 . S
C387 N395 1.427 . S
C388 H379 0.930 . S
C388 C386 1.378 . S
C388 C389 1.367 . S
C389 C388 1.367 . S
C389 C391 1.433 1_545 S
C390 C386 1.350 1_565 S
C390 C387 1.463 . S
C390 N394 1.427 . S
C391 H381 0.929 . S
C391 C389 1.433 1_565 S
C391 N394 1.384 . S
C392 H383 0.929 . S
C392 C384 1.378 . S
C392 C387 1.350 . S
C393 H380 0.929 . S
C393 C385 1.433 . S
C393 N395 1.384 . S
N394 C390 1.427 . S
N394 C391 1.384 . S
N395 C387 1.427 . S
N395 C393 1.384 . S
H396 C402 0.930 . S
H397 C406 0.930 1_455 S
H398 C411 0.929 . S
H399 C409 0.929 . S
H400 C404 0.929 . S
H401 C410 0.929 . S
C402 H396 0.930 . S
C402 C403 1.367 1_655 S
C402 C410 1.378 . S
C403 C402 1.367 1_455 S
C403 C411 1.433 . S
C404 H400 0.929 . S
C404 C406 1.378 1_455 S
C404 C408 1.350 1_455 S
C405 C408 1.461 1_455 S
C405 C410 1.348 1_455 S
C405 N413 1.431 . S
C406 H397 0.930 1_655 S
C406 C404 1.378 1_655 S
C406 C407 1.367 . S
C407 C406 1.367 . S
C407 C409 1.433 . S
C408 C404 1.350 1_655 S
C408 C405 1.461 1_655 S
C408 N412 1.427 . S
C409 H399 0.929 . S
C409 C407 1.433 . S
C409 N412 1.384 . S
C410 H401 0.929 . S
C410 C402 1.378 . S
C410 C405 1.348 1_655 S
C411 H398 0.929 . S
C411 C403 1.433 . S
C411 N413 1.384 . S
N412 C408 1.427 . S
N412 C409 1.384 . S
N413 C405 1.431 . S
N413 C411 1.384 . S
C259 C63 1.453 . S
C263 C74 1.453 . S
C277 C158 1.447 . S
C281 C147 1.447 1_455 S
C295 C242 1.442 1_455 S
C299 C231 1.442 . S
C313 C226 1.778 . S
C317 C67 1.920 . S
C331 C154 1.093 . S
C335 C56 1.246 . S
C349 C235 1.920 . S
C353 C142 1.759 . S
C367 C224 1.228 . S
C371 C70 1.119 . S
C385 C58 1.766 . S
C389 C151 1.913 . S
C403 C238 1.087 . S
C407 C140 1.247 . S
