# Generated by pormake.
# Topology nfa, (4)-cn, num edge types: 1
# Building blocks:
#     Node 0, Type 0, BuildingBlock: KOZSID_clean_sbu_0, # of connection points: 4
#     Node 1, Type 0, BuildingBlock: KOZSID_clean_sbu_0, # of connection points: 4
#     Node 2, Type 0, BuildingBlock: KOZSID_clean_sbu_0, # of connection points: 4
#     Node 3, Type 0, BuildingBlock: KOZSID_clean_sbu_0, # of connection points: 4
#     Node 4, Type 0, BuildingBlock: KOZSID_clean_sbu_0, # of connection points: 4
#     Node 5, Type 0, BuildingBlock: KOZSID_clean_sbu_0, # of connection points: 4
#     Node 6, Type 0, BuildingBlock: KOZSID_clean_sbu_0, # of connection points: 4
#     Node 7, Type 0, BuildingBlock: KOZSID_clean_sbu_0, # of connection points: 4
#     Node 8, Type 0, BuildingBlock: KOZSID_clean_sbu_0, # of connection points: 4
#     Node 9, Type 0, BuildingBlock: KOZSID_clean_sbu_0, # of connection points: 4
#     Node 10, Type 0, BuildingBlock: KOZSID_clean_sbu_0, # of connection points: 4
#     Node 11, Type 0, BuildingBlock: KOZSID_clean_sbu_0, # of connection points: 4
#     Node 12, Type 0, BuildingBlock: KOZSID_clean_sbu_0, # of connection points: 4
#     Node 13, Type 0, BuildingBlock: KOZSID_clean_sbu_0, # of connection points: 4
#     Node 14, Type 0, BuildingBlock: KOZSID_clean_sbu_0, # of connection points: 4
#     Node 15, Type 0, BuildingBlock: KOZSID_clean_sbu_0, # of connection points: 4
#     Node 16, Type 0, BuildingBlock: KOZSID_clean_sbu_0, # of connection points: 4
#     Node 17, Type 0, BuildingBlock: KOZSID_clean_sbu_0, # of connection points: 4
#     Node 18, Type 0, BuildingBlock: KOZSID_clean_sbu_0, # of connection points: 4
#     Node 19, Type 0, BuildingBlock: KOZSID_clean_sbu_0, # of connection points: 4
#     Node 20, Type 0, BuildingBlock: KOZSID_clean_sbu_0, # of connection points: 4
#     Node 21, Type 0, BuildingBlock: KOZSID_clean_sbu_0, # of connection points: 4
#     Node 22, Type 0, BuildingBlock: KOZSID_clean_sbu_0, # of connection points: 4
#     Node 23, Type 0, BuildingBlock: KOZSID_clean_sbu_0, # of connection points: 4
#     Edge 24, Type (0, 0), BuildingBlock: ZUJKAS_clean_linker_0, # of connection points: 2
#     Edge 25, Type (0, 0), BuildingBlock: ZUJKAS_clean_linker_0, # of connection points: 2
#     Edge 26, Type (0, 0), BuildingBlock: ZUJKAS_clean_linker_0, # of connection points: 2
#     Edge 27, Type (0, 0), BuildingBlock: ZUJKAS_clean_linker_0, # of connection points: 2
#     Edge 28, Type (0, 0), BuildingBlock: ZUJKAS_clean_linker_0, # of connection points: 2
#     Edge 29, Type (0, 0), BuildingBlock: ZUJKAS_clean_linker_0, # of connection points: 2
#     Edge 30, Type (0, 0), BuildingBlock: ZUJKAS_clean_linker_0, # of connection points: 2
#     Edge 31, Type (0, 0), BuildingBlock: ZUJKAS_clean_linker_0, # of connection points: 2
#     Edge 32, Type (0, 0), BuildingBlock: ZUJKAS_clean_linker_0, # of connection points: 2
#     Edge 33, Type (0, 0), BuildingBlock: ZUJKAS_clean_linker_0, # of connection points: 2
#     Edge 34, Type (0, 0), BuildingBlock: ZUJKAS_clean_linker_0, # of connection points: 2
#     Edge 35, Type (0, 0), BuildingBlock: ZUJKAS_clean_linker_0, # of connection points: 2
#     Edge 36, Type (0, 0), BuildingBlock: ZUJKAS_clean_linker_0, # of connection points: 2
#     Edge 37, Type (0, 0), BuildingBlock: ZUJKAS_clean_linker_0, # of connection points: 2
#     Edge 38, Type (0, 0), BuildingBlock: ZUJKAS_clean_linker_0, # of connection points: 2
#     Edge 39, Type (0, 0), BuildingBlock: ZUJKAS_clean_linker_0, # of connection points: 2
#     Edge 40, Type (0, 0), BuildingBlock: ZUJKAS_clean_linker_0, # of connection points: 2
#     Edge 41, Type (0, 0), BuildingBlock: ZUJKAS_clean_linker_0, # of connection points: 2
#     Edge 42, Type (0, 0), BuildingBlock: ZUJKAS_clean_linker_0, # of connection points: 2
#     Edge 43, Type (0, 0), BuildingBlock: ZUJKAS_clean_linker_0, # of connection points: 2
#     Edge 44, Type (0, 0), BuildingBlock: ZUJKAS_clean_linker_0, # of connection points: 2
#     Edge 45, Type (0, 0), BuildingBlock: ZUJKAS_clean_linker_0, # of connection points: 2
#     Edge 46, Type (0, 0), BuildingBlock: ZUJKAS_clean_linker_0, # of connection points: 2
#     Edge 47, Type (0, 0), BuildingBlock: ZUJKAS_clean_linker_0, # of connection points: 2
#     Edge 48, Type (0, 0), BuildingBlock: ZUJKAS_clean_linker_0, # of connection points: 2
#     Edge 49, Type (0, 0), BuildingBlock: ZUJKAS_clean_linker_0, # of connection points: 2
#     Edge 50, Type (0, 0), BuildingBlock: ZUJKAS_clean_linker_0, # of connection points: 2
#     Edge 51, Type (0, 0), BuildingBlock: ZUJKAS_clean_linker_0, # of connection points: 2
#     Edge 52, Type (0, 0), BuildingBlock: ZUJKAS_clean_linker_0, # of connection points: 2
#     Edge 53, Type (0, 0), BuildingBlock: ZUJKAS_clean_linker_0, # of connection points: 2
#     Edge 54, Type (0, 0), BuildingBlock: ZUJKAS_clean_linker_0, # of connection points: 2
#     Edge 55, Type (0, 0), BuildingBlock: ZUJKAS_clean_linker_0, # of connection points: 2
#     Edge 56, Type (0, 0), BuildingBlock: ZUJKAS_clean_linker_0, # of connection points: 2
#     Edge 57, Type (0, 0), BuildingBlock: ZUJKAS_clean_linker_0, # of connection points: 2
#     Edge 58, Type (0, 0), BuildingBlock: ZUJKAS_clean_linker_0, # of connection points: 2
#     Edge 59, Type (0, 0), BuildingBlock: ZUJKAS_clean_linker_0, # of connection points: 2
#     Edge 60, Type (0, 0), BuildingBlock: ZUJKAS_clean_linker_0, # of connection points: 2
#     Edge 61, Type (0, 0), BuildingBlock: ZUJKAS_clean_linker_0, # of connection points: 2
#     Edge 62, Type (0, 0), BuildingBlock: ZUJKAS_clean_linker_0, # of connection points: 2
#     Edge 63, Type (0, 0), BuildingBlock: ZUJKAS_clean_linker_0, # of connection points: 2
#     Edge 64, Type (0, 0), BuildingBlock: ZUJKAS_clean_linker_0, # of connection points: 2
#     Edge 65, Type (0, 0), BuildingBlock: ZUJKAS_clean_linker_0, # of connection points: 2
#     Edge 66, Type (0, 0), BuildingBlock: ZUJKAS_clean_linker_0, # of connection points: 2
#     Edge 67, Type (0, 0), BuildingBlock: ZUJKAS_clean_linker_0, # of connection points: 2
#     Edge 68, Type (0, 0), BuildingBlock: ZUJKAS_clean_linker_0, # of connection points: 2
#     Edge 69, Type (0, 0), BuildingBlock: ZUJKAS_clean_linker_0, # of connection points: 2
#     Edge 70, Type (0, 0), BuildingBlock: ZUJKAS_clean_linker_0, # of connection points: 2
#     Edge 71, Type (0, 0), BuildingBlock: ZUJKAS_clean_linker_0, # of connection points: 2
# Relax obj value: 0.043
# Max RMSD: 0.132
# Mean RMSD: 0.107
data_MOF--net-nfa--node1-KOZSID_clean_sbu_0--edge1-ZUJKAS_clean_linker_0
_symmetry_space_group_name_H-M    P1
_symmetry_Int_Tables_number       1
_symmetry_cell_setting            triclinic
loop_
_symmetry_equiv_pos_as_xyz
'x, y, z'
_cell_length_a     61.774126
_cell_length_b     62.78746
_cell_length_c     63.735341
_cell_angle_alpha  89.191494
_cell_angle_beta   88.300311
_cell_angle_gamma 87.483934
loop_
_atom_site_label
_atom_site_type_symbol
_atom_site_fract_x
_atom_site_fract_y
_atom_site_fract_z
_atom_type_partial_charge
C0 C 0.06024 0.37352 0.36805 0.0
C1 C 0.03987 0.37935 0.37636 0.0
C2 C 0.04243 0.3967 0.38856 0.0
C3 C 0.06413 0.40041 0.38698 0.0
N4 N 0.0755 0.38683 0.37407 0.0
Co5 Co 0.10766 0.38514 0.36857 0.0
N6 N 0.112 0.40883 0.38865 0.0
C7 C 0.09645 0.41998 0.39982 0.0
C8 C 0.10424 0.4361 0.4113 0.0
C9 C 0.12601 0.43551 0.40694 0.0
C10 C 0.13027 0.4189 0.39305 0.0
N11 N 0.13985 0.38303 0.36344 0.0
C12 C 0.15548 0.39524 0.37068 0.0
C13 C 0.17595 0.38844 0.36328 0.0
C14 C 0.17311 0.37161 0.35049 0.0
C15 C 0.15118 0.36904 0.3509 0.0
N16 N 0.10328 0.36177 0.34816 0.0
C17 C 0.1186 0.35155 0.33595 0.0
C18 C 0.11072 0.33568 0.32417 0.0
C19 C 0.08917 0.33546 0.32948 0.0
C20 C 0.08515 0.35129 0.34424 0.0
N21 N 0.10487 0.40655 0.34549 0.0
C22 C 0.10275 0.43818 0.31375 0.0
C23 C 0.11622 0.4199 0.31131 0.0
C24 C 0.11701 0.40441 0.32722 0.0
C25 C 0.09002 0.44016 0.33213 0.0
C26 C 0.09129 0.42429 0.34762 0.0
N27 N 0.11035 0.36374 0.39159 0.0
C28 C 0.12129 0.32836 0.40369 0.0
C29 C 0.11049 0.33178 0.42299 0.0
C30 C 0.10026 0.35173 0.42655 0.0
C31 C 0.10041 0.36734 0.41078 0.0
C32 C 0.12112 0.34447 0.38838 0.0
H33 H 0.09208 0.38208 0.41439 0.0
H34 H 0.12943 0.34078 0.37393 0.0
H35 H 0.12781 0.39103 0.32448 0.0
H36 H 0.08126 0.42688 0.36125 0.0
C37 C 0.07457 0.41546 0.39855 0.0
C38 C 0.06453 0.35443 0.35567 0.0
C39 C 0.15162 0.41417 0.38344 0.0
C40 C 0.14058 0.35512 0.33816 0.0
H41 H 0.02488 0.37142 0.37431 0.0
H42 H 0.03011 0.40506 0.39811 0.0
H43 H 0.09509 0.44734 0.42121 0.0
H44 H 0.13734 0.44643 0.4129 0.0
H45 H 0.19126 0.39538 0.36634 0.0
H46 H 0.18546 0.36282 0.34136 0.0
H47 H 0.1198 0.32475 0.31388 0.0
H48 H 0.07794 0.32426 0.32382 0.0
H49 H 0.12653 0.41773 0.29739 0.0
H50 H 0.07905 0.4539 0.33458 0.0
H51 H 0.1294 0.31313 0.40013 0.0
H52 H 0.09209 0.35533 0.44143 0.0
C53 C 0.88002 0.81358 0.62358 0.0
C54 C 0.87717 0.79353 0.6324 0.0
C55 C 0.85991 0.7956 0.64622 0.0
C56 C 0.85334 0.81671 0.64512 0.0
N57 N 0.86496 0.82814 0.63096 0.0
Co58 Co 0.86287 0.85978 0.62602 0.0
N59 N 0.83927 0.86342 0.64816 0.0
C60 C 0.83023 0.84795 0.66004 0.0
C61 C 0.813 0.85516 0.67243 0.0
C62 C 0.81048 0.8764 0.66775 0.0
C63 C 0.82646 0.88089 0.6528 0.0
N64 N 0.86143 0.89142 0.62159 0.0
C65 C 0.8471 0.90623 0.62963 0.0
C66 C 0.85141 0.92658 0.62236 0.0
C67 C 0.8688 0.92443 0.6087 0.0
C68 C 0.87411 0.90299 0.60851 0.0
N69 N 0.8858 0.85614 0.60336 0.0
C70 C 0.89375 0.8714 0.59046 0.0
C71 C 0.90982 0.86392 0.57682 0.0
C72 C 0.91262 0.84273 0.58164 0.0
C73 C 0.89808 0.8386 0.59804 0.0
N74 N 0.8403 0.85665 0.60496 0.0
C75 C 0.80709 0.85347 0.57609 0.0
C76 C 0.82322 0.86815 0.57287 0.0
C77 C 0.8396 0.8694 0.58734 0.0
C78 C 0.80798 0.84024 0.59382 0.0
C79 C 0.82455 0.84212 0.60795 0.0
N80 N 0.88551 0.86274 0.64705 0.0
C81 C 0.92173 0.87216 0.65549 0.0
C82 C 0.92012 0.86147 0.67479 0.0
C83 C 0.90054 0.85235 0.68039 0.0
C84 C 0.88357 0.85326 0.66646 0.0
C85 C 0.90429 0.87273 0.64202 0.0
H86 H 0.86928 0.84562 0.67153 0.0
H87 H 0.90659 0.88091 0.62743 0.0
H88 H 0.85142 0.88092 0.584 0.0
H89 H 0.82408 0.8318 0.6213 0.0
C90 C 0.83739 0.8266 0.65813 0.0
C91 C 0.89833 0.81857 0.60974 0.0
C92 C 0.82781 0.90144 0.64211 0.0
C93 C 0.88835 0.89296 0.59391 0.0
H94 H 0.88701 0.7791 0.62974 0.0
H95 H 0.85354 0.78338 0.65652 0.0
H96 H 0.8029 0.84591 0.68294 0.0
H97 H 0.79784 0.88717 0.67405 0.0
H98 H 0.84219 0.94125 0.62576 0.0
H99 H 0.87582 0.93683 0.59907 0.0
H100 H 0.91934 0.87303 0.56567 0.0
H101 H 0.92475 0.83179 0.57473 0.0
H102 H 0.82332 0.87855 0.55916 0.0
H103 H 0.79568 0.82876 0.59704 0.0
H104 H 0.93644 0.8799 0.65068 0.0
H105 H 0.8985 0.84385 0.69517 0.0
C106 C 0.44984 0.59748 0.90504 0.0
C107 C 0.46558 0.58713 0.91694 0.0
C108 C 0.45536 0.57183 0.92848 0.0
C109 C 0.43404 0.57385 0.92298 0.0
N110 N 0.4302 0.58904 0.90813 0.0
Co111 Co 0.4014 0.5997 0.89763 0.0
N112 N 0.3857 0.57968 0.91686 0.0
C113 C 0.39454 0.5652 0.9304 0.0
C114 C 0.37968 0.55237 0.93994 0.0
C115 C 0.3603 0.55858 0.93151 0.0
C116 C 0.36452 0.57496 0.91736 0.0
N117 N 0.37265 0.61108 0.88777 0.0
C118 C 0.35269 0.60382 0.89189 0.0
C119 C 0.3368 0.61579 0.88157 0.0
C120 C 0.34725 0.63091 0.87 0.0
C121 C 0.36882 0.62729 0.87399 0.0
N122 N 0.41707 0.61902 0.87776 0.0
C123 C 0.40836 0.63219 0.86299 0.0
C124 C 0.42341 0.64387 0.85223 0.0
C125 C 0.44275 0.6382 0.86105 0.0
C126 C 0.43831 0.62334 0.87673 0.0
N127 N 0.40219 0.57748 0.8757 0.0
C128 C 0.39977 0.54515 0.84577 0.0
C129 C 0.39208 0.56592 0.84144 0.0
C130 C 0.3936 0.58174 0.85642 0.0
C131 C 0.40926 0.54092 0.86508 0.0
C132 C 0.41024 0.55718 0.87973 0.0
N133 N 0.40056 0.6219 0.91954 0.0
C134 C 0.39875 0.65903 0.92931 0.0
C135 C 0.40177 0.65352 0.95034 0.0
C136 C 0.40393 0.63193 0.95575 0.0
C137 C 0.40336 0.61652 0.94023 0.0
C138 C 0.39806 0.6431 0.91431 0.0
H139 H 0.4055 0.60038 0.94534 0.0
H140 H 0.39566 0.64836 0.89856 0.0
H141 H 0.38741 0.59721 0.85211 0.0
H142 H 0.41724 0.55282 0.89431 0.0
C143 C 0.41699 0.56318 0.93273 0.0
C144 C 0.45379 0.61642 0.89245 0.0
C145 C 0.34849 0.58413 0.90319 0.0
C146 C 0.3859 0.63607 0.86236 0.0
H147 H 0.48246 0.59091 0.91777 0.0
H148 H 0.46239 0.56127 0.94024 0.0
H149 H 0.38272 0.53942 0.951 0.0
H150 H 0.34497 0.55133 0.93478 0.0
H151 H 0.31962 0.61305 0.88152 0.0
H152 H 0.34014 0.64217 0.85889 0.0
H153 H 0.42047 0.65621 0.8405 0.0
H154 H 0.4581 0.6452 0.85727 0.0
H155 H 0.38496 0.57001 0.82651 0.0
H156 H 0.41541 0.52501 0.86911 0.0
H157 H 0.39671 0.67558 0.92443 0.0
H158 H 0.40649 0.62692 0.97186 0.0
C159 C 0.61133 0.1776 0.1238 0.0
C160 C 0.61678 0.1976 0.13037 0.0
C161 C 0.6333 0.19438 0.14397 0.0
C162 C 0.63694 0.1727 0.14496 0.0
N163 N 0.62398 0.16188 0.13251 0.0
Co164 Co 0.62283 0.13014 0.12996 0.0
N165 N 0.64621 0.12533 0.15091 0.0
C166 C 0.65627 0.14026 0.16169 0.0
C167 C 0.67281 0.13203 0.17365 0.0
C168 C 0.67377 0.11065 0.16984 0.0
C169 C 0.65764 0.10712 0.15579 0.0
N170 N 0.62157 0.09846 0.12754 0.0
C171 C 0.63518 0.08295 0.13512 0.0
C172 C 0.62943 0.06284 0.12922 0.0
C173 C 0.6118 0.06582 0.11691 0.0
C174 C 0.60786 0.08748 0.11607 0.0
N175 N 0.59968 0.13485 0.1088 0.0
C176 C 0.58952 0.11979 0.09827 0.0
C177 C 0.5741 0.12799 0.085 0.0
C178 C 0.57417 0.14954 0.08745 0.0
C179 C 0.58965 0.15321 0.10217 0.0
N180 N 0.64535 0.1303 0.10715 0.0
C181 C 0.6784 0.12902 0.0757 0.0
C182 C 0.65975 0.11747 0.07375 0.0
C183 C 0.64356 0.11833 0.08952 0.0
C184 C 0.6801 0.14135 0.0936 0.0
C185 C 0.66353 0.1418 0.10895 0.0
N186 N 0.60023 0.13001 0.15287 0.0
C187 C 0.56484 0.12025 0.16611 0.0
C188 C 0.56721 0.13175 0.18443 0.0
C189 C 0.58653 0.14207 0.18683 0.0
C190 C 0.60266 0.14097 0.17103 0.0
C191 C 0.58139 0.11959 0.15069 0.0
H192 H 0.61685 0.14929 0.17388 0.0
H193 H 0.5784 0.11077 0.13706 0.0
H194 H 0.62983 0.10907 0.08719 0.0
H195 H 0.66591 0.15136 0.12226 0.0
C196 C 0.65152 0.162 0.15826 0.0
C197 C 0.59308 0.17423 0.11046 0.0
C198 C 0.65503 0.08672 0.14587 0.0
C199 C 0.59359 0.09807 0.10242 0.0
H200 H 0.60921 0.21288 0.12619 0.0
H201 H 0.64125 0.20638 0.15261 0.0
H202 H 0.68367 0.14069 0.18307 0.0
H203 H 0.68557 0.09913 0.17598 0.0
H204 H 0.63782 0.04774 0.13263 0.0
H205 H 0.60368 0.05374 0.10854 0.0
H206 H 0.56355 0.11931 0.07528 0.0
H207 H 0.56358 0.16123 0.07979 0.0
H208 H 0.65751 0.10791 0.06003 0.0
H209 H 0.69435 0.15037 0.096 0.0
H210 H 0.55008 0.11213 0.16342 0.0
H211 H 0.5893 0.1509 0.20091 0.0
C212 C 0.11757 0.61873 0.15466 0.0
C213 C 0.12581 0.62613 0.17307 0.0
C214 C 0.14093 0.64048 0.16726 0.0
C215 C 0.14104 0.64096 0.14574 0.0
N216 N 0.12652 0.62815 0.13748 0.0
Co217 Co 0.12231 0.62243 0.10707 0.0
N218 N 0.14573 0.64217 0.0984 0.0
C219 C 0.15825 0.65327 0.11101 0.0
C220 C 0.17151 0.66689 0.10029 0.0
C221 C 0.16663 0.66489 0.07967 0.0
C222 C 0.15071 0.65004 0.07907 0.0
N223 N 0.11846 0.61643 0.07671 0.0
C224 C 0.12656 0.62666 0.05963 0.0
C225 C 0.1192 0.61861 0.04115 0.0
C226 C 0.10541 0.60295 0.04684 0.0
C227 C 0.10518 0.60243 0.06839 0.0
N228 N 0.0985 0.60316 0.11558 0.0
C229 C 0.08591 0.59229 0.10282 0.0
C230 C 0.07132 0.57996 0.11344 0.0
C231 C 0.07512 0.58281 0.13419 0.0
C232 C 0.09188 0.59675 0.13498 0.0
N233 N 0.10083 0.64673 0.10533 0.0
C234 C 0.07124 0.68188 0.10145 0.0
C235 C 0.06719 0.66232 0.09249 0.0
C236 C 0.08211 0.64511 0.09456 0.0
C237 C 0.09023 0.68345 0.11258 0.0
C238 C 0.10463 0.66583 0.11435 0.0
N239 N 0.14384 0.59802 0.10891 0.0
C240 C 0.15298 0.56025 0.10605 0.0
C241 C 0.17308 0.56289 0.11483 0.0
C242 C 0.17853 0.5834 0.12017 0.0
C243 C 0.16378 0.60054 0.11718 0.0
C244 C 0.13881 0.57792 0.10304 0.0
H245 H 0.16881 0.61559 0.12207 0.0
H246 H 0.12381 0.57484 0.09618 0.0
H247 H 0.07832 0.63075 0.08704 0.0
H248 H 0.11879 0.66808 0.12302 0.0
C249 C 0.15544 0.65222 0.13287 0.0
C250 C 0.10264 0.60149 0.15422 0.0
C251 C 0.13874 0.64586 0.06039 0.0
C252 C 0.09 0.592 0.0811 0.0
H253 H 0.12178 0.62109 0.18897 0.0
H254 H 0.15118 0.64895 0.17748 0.0
H255 H 0.18247 0.67788 0.10679 0.0
H256 H 0.17323 0.67407 0.06669 0.0
H257 H 0.1225 0.62439 0.02535 0.0
H258 H 0.09551 0.59416 0.03657 0.0
H259 H 0.06006 0.56931 0.10688 0.0
H260 H 0.06717 0.57481 0.14725 0.0
H261 H 0.05279 0.66039 0.08354 0.0
H262 H 0.0939 0.69815 0.12014 0.0
H263 H 0.14823 0.54463 0.10142 0.0
H264 H 0.19391 0.58616 0.12716 0.0
C265 C 0.63413 0.8831 0.41816 0.0
C266 C 0.62577 0.88958 0.43762 0.0
C267 C 0.60991 0.90487 0.43389 0.0
C268 C 0.60957 0.90696 0.41247 0.0
N269 N 0.62401 0.89364 0.40229 0.0
Co270 Co 0.63024 0.89265 0.37131 0.0
N271 N 0.6063 0.91436 0.36577 0.0
C272 C 0.59296 0.92442 0.37999 0.0
C273 C 0.57653 0.93657 0.37112 0.0
C274 C 0.57915 0.93346 0.34998 0.0
C275 C 0.59715 0.91973 0.34733 0.0
N276 N 0.63708 0.8925 0.34048 0.0
C277 C 0.62557 0.90138 0.32466 0.0
C278 C 0.63558 0.89742 0.30527 0.0
C279 C 0.65389 0.88509 0.30905 0.0
C280 C 0.65396 0.88226 0.33044 0.0
N281 N 0.65326 0.86994 0.37648 0.0
C282 C 0.66609 0.85972 0.3619 0.0
C283 C 0.67984 0.84431 0.37022 0.0
C284 C 0.67563 0.84484 0.39136 0.0
C285 C 0.65962 0.86074 0.39472 0.0
N286 N 0.60925 0.87006 0.36819 0.0
C287 C 0.57936 0.83797 0.36374 0.0
C288 C 0.59845 0.83807 0.35142 0.0
C289 C 0.61311 0.8541 0.35394 0.0
C290 C 0.57544 0.8543 0.37821 0.0
C291 C 0.59043 0.87011 0.38011 0.0
N292 N 0.65146 0.91535 0.37447 0.0
C293 C 0.68828 0.92707 0.3718 0.0
C294 C 0.68178 0.94708 0.37952 0.0
C295 C 0.65989 0.95102 0.38466 0.0
C296 C 0.64516 0.93503 0.38218 0.0
C297 C 0.67301 0.91165 0.36929 0.0
H298 H 0.62883 0.93907 0.38674 0.0
H299 H 0.67917 0.8969 0.3631 0.0
H300 H 0.62746 0.85329 0.34417 0.0
H301 H 0.5864 0.88234 0.39121 0.0
C302 C 0.5954 0.92072 0.40147 0.0
C303 C 0.65244 0.86782 0.41554 0.0
C304 C 0.60358 0.91025 0.32735 0.0
C305 C 0.66648 0.86662 0.34092 0.0
H306 H 0.63079 0.88407 0.45295 0.0
H307 H 0.59991 0.91353 0.44542 0.0
H308 H 0.56356 0.94567 0.3791 0.0
H309 H 0.56857 0.93972 0.33792 0.0
H310 H 0.6296 0.90179 0.28996 0.0
H311 H 0.66479 0.8776 0.29746 0.0
H312 H 0.69203 0.83444 0.36198 0.0
H313 H 0.68393 0.83518 0.40309 0.0
H314 H 0.60227 0.82564 0.34012 0.0
H315 H 0.56071 0.85504 0.38789 0.0
H316 H 0.70508 0.9234 0.36735 0.0
H317 H 0.65416 0.96629 0.39088 0.0
C318 C 0.36466 0.37595 0.68354 0.0
C319 C 0.35411 0.36998 0.70211 0.0
C320 C 0.34124 0.35374 0.69733 0.0
C321 C 0.34452 0.3508 0.67621 0.0
N322 N 0.35893 0.36401 0.66719 0.0
Co323 Co 0.36732 0.36615 0.63656 0.0
N324 N 0.34778 0.34271 0.62946 0.0
C325 C 0.33493 0.33172 0.64291 0.0
C326 C 0.3245 0.31565 0.63367 0.0
C327 C 0.33138 0.3161 0.61315 0.0
C328 C 0.34559 0.33258 0.61104 0.0
N329 N 0.37543 0.36854 0.60594 0.0
C330 C 0.37019 0.35624 0.58973 0.0
C331 C 0.3794 0.36318 0.57086 0.0
C332 C 0.39136 0.38019 0.5754 0.0
C333 C 0.38867 0.38271 0.59666 0.0
N334 N 0.38721 0.38925 0.64365 0.0
C335 C 0.40043 0.39986 0.63023 0.0
C336 C 0.41233 0.41469 0.63973 0.0
C337 C 0.40621 0.41368 0.66044 0.0
C338 C 0.39072 0.39833 0.66234 0.0
N339 N 0.39129 0.34453 0.6404 0.0
C340 C 0.42438 0.31244 0.64372 0.0
C341 C 0.42775 0.33107 0.63206 0.0
C342 C 0.41114 0.34679 0.63064 0.0
C343 C 0.40433 0.31041 0.6541 0.0
C344 C 0.3882 0.32652 0.6523 0.0
N345 N 0.34328 0.38782 0.63276 0.0
C346 C 0.33057 0.42319 0.62198 0.0
C347 C 0.30988 0.41976 0.63043 0.0
C348 C 0.30601 0.39983 0.6394 0.0
C349 C 0.32276 0.38425 0.64036 0.0
C350 C 0.34687 0.40712 0.62325 0.0
H351 H 0.3187 0.36955 0.64757 0.0
H352 H 0.36232 0.41087 0.61677 0.0
H353 H 0.41464 0.36051 0.62136 0.0
H354 H 0.37324 0.32387 0.6604 0.0
C355 C 0.33394 0.33612 0.66434 0.0
C356 C 0.37918 0.39366 0.68204 0.0
C357 C 0.35767 0.33716 0.59161 0.0
C358 C 0.4002 0.39657 0.60861 0.0
H359 H 0.35524 0.37688 0.71747 0.0
H360 H 0.33044 0.34535 0.70792 0.0
H361 H 0.31373 0.30449 0.64112 0.0
H362 H 0.32689 0.30511 0.60128 0.0
H363 H 0.37814 0.35622 0.55553 0.0
H364 H 0.40153 0.38909 0.56463 0.0
H365 H 0.42371 0.42533 0.6324 0.0
H366 H 0.41213 0.42345 0.6727 0.0
H367 H 0.44314 0.33357 0.62401 0.0
H368 H 0.40081 0.29618 0.66316 0.0
H369 H 0.3344 0.43841 0.61492 0.0
H370 H 0.29011 0.39623 0.64576 0.0
C371 C 0.86518 0.1125 0.91512 0.0
C372 C 0.87062 0.10082 0.933 0.0
C373 C 0.88954 0.08968 0.92829 0.0
C374 C 0.89464 0.09527 0.90795 0.0
N375 N 0.88017 0.10941 0.89936 0.0
Co376 Co 0.88171 0.12233 0.8704 0.0
N377 N 0.90879 0.10483 0.86306 0.0
C378 C 0.91883 0.08982 0.87523 0.0
C379 C 0.93681 0.08013 0.86578 0.0
C380 C 0.93846 0.08959 0.84645 0.0
C381 C 0.9214 0.10468 0.84529 0.0
N382 N 0.88368 0.13576 0.84166 0.0
C383 C 0.89912 0.13325 0.82622 0.0
C384 C 0.89492 0.14667 0.80916 0.0
C385 C 0.87615 0.158 0.81395 0.0
C386 C 0.87005 0.15103 0.83361 0.0
N387 N 0.85422 0.13931 0.87751 0.0
C388 C 0.84332 0.15317 0.86478 0.0
C389 C 0.82435 0.16153 0.87354 0.0
C390 C 0.8229 0.15233 0.89299 0.0
C391 C 0.84126 0.13896 0.89505 0.0
N392 N 0.89928 0.14527 0.88118 0.0
C393 C 0.92531 0.17779 0.89488 0.0
C394 C 0.90599 0.18267 0.88464 0.0
C395 C 0.89337 0.16632 0.87793 0.0
C396 C 0.93105 0.15634 0.89862 0.0
C397 C 0.91787 0.1405 0.8918 0.0
N398 N 0.86409 0.09941 0.85968 0.0
C399 C 0.83428 0.08819 0.83934 0.0
C400 C 0.83652 0.0675 0.84758 0.0
C401 C 0.85336 0.06288 0.86128 0.0
C402 C 0.86688 0.07889 0.86699 0.0
C403 C 0.84818 0.10375 0.8455 0.0
H404 H 0.87914 0.07435 0.87773 0.0
H405 H 0.84549 0.11925 0.83884 0.0
H406 H 0.87904 0.17113 0.86997 0.0
H407 H 0.92328 0.12451 0.89504 0.0
C408 C 0.91197 0.08635 0.89602 0.0
C409 C 0.84539 0.12592 0.91375 0.0
C410 C 0.91825 0.11884 0.8272 0.0
C411 C 0.85149 0.15829 0.84479 0.0
H412 H 0.86168 0.1002 0.94785 0.0
H413 H 0.89829 0.07848 0.93835 0.0
H414 H 0.9477 0.068 0.87235 0.0
H415 H 0.95101 0.08601 0.83465 0.0
H416 H 0.90453 0.14827 0.7948 0.0
H417 H 0.86799 0.17 0.80431 0.0
H418 H 0.81288 0.17285 0.86655 0.0
H419 H 0.80969 0.15505 0.90429 0.0
H420 H 0.90061 0.19906 0.88168 0.0
H421 H 0.94599 0.15166 0.90626 0.0
H422 H 0.82171 0.09245 0.82836 0.0
H423 H 0.85569 0.04715 0.86827 0.0
C424 C 0.31392 0.11782 0.39911 0.0
C425 C 0.29286 0.12524 0.39546 0.0
C426 C 0.29384 0.13799 0.37798 0.0
C427 C 0.31535 0.13762 0.37201 0.0
N428 N 0.32814 0.12507 0.38437 0.0
Co429 Co 0.36053 0.121 0.38232 0.0
N430 N 0.36224 0.14103 0.35754 0.0
C431 C 0.34552 0.15157 0.34809 0.0
C432 C 0.35163 0.16309 0.33066 0.0
C433 C 0.37351 0.15938 0.32856 0.0
C434 C 0.37949 0.14582 0.34498 0.0
N435 N 0.39292 0.11731 0.38061 0.0
C436 C 0.40724 0.12484 0.36613 0.0
C437 C 0.42842 0.11848 0.37059 0.0
C438 C 0.42742 0.10604 0.38829 0.0
C439 C 0.40578 0.10562 0.39364 0.0
N440 N 0.35881 0.10058 0.40675 0.0
C441 C 0.37544 0.08935 0.41563 0.0
C442 C 0.36921 0.07693 0.43241 0.0
C443 C 0.34734 0.08065 0.43458 0.0
C444 C 0.3415 0.09521 0.41893 0.0
N445 N 0.35814 0.09695 0.36273 0.0
C446 C 0.35695 0.06414 0.33306 0.0
C447 C 0.37131 0.06267 0.3496 0.0
C448 C 0.3716 0.07907 0.36414 0.0
C449 C 0.34279 0.08207 0.33199 0.0
C450 C 0.34362 0.0981 0.34687 0.0
N451 N 0.36292 0.14509 0.40189 0.0
C452 C 0.376 0.15924 0.43404 0.0
C453 C 0.36447 0.17859 0.43078 0.0
C454 C 0.35249 0.181 0.41259 0.0
C455 C 0.35194 0.16422 0.39851 0.0
C456 C 0.37505 0.14289 0.41951 0.0
H457 H 0.34234 0.16707 0.3851 0.0
H458 H 0.38404 0.12852 0.42306 0.0
H459 H 0.38312 0.07708 0.37617 0.0
H460 H 0.33253 0.11139 0.34503 0.0
C461 C 0.32416 0.14951 0.35541 0.0
C462 C 0.3197 0.10473 0.41729 0.0
C463 C 0.40144 0.13681 0.34725 0.0
C464 C 0.3969 0.09259 0.40931 0.0
H465 H 0.27837 0.12208 0.40477 0.0
H466 H 0.28055 0.1469 0.3708 0.0
H467 H 0.34132 0.17254 0.32033 0.0
H468 H 0.38379 0.1655 0.31604 0.0
H469 H 0.443 0.12193 0.36156 0.0
H470 H 0.44078 0.09759 0.39583 0.0
H471 H 0.37947 0.06706 0.44242 0.0
H472 H 0.33698 0.07399 0.44675 0.0
H473 H 0.38274 0.04918 0.35104 0.0
H474 H 0.33107 0.08378 0.3197 0.0
H475 H 0.38535 0.15646 0.448 0.0
H476 H 0.34356 0.19581 0.40914 0.0
C477 C 0.17334 0.10981 0.61215 0.0
C478 C 0.19273 0.11899 0.61641 0.0
C479 C 0.18898 0.13087 0.63401 0.0
C480 C 0.16762 0.12824 0.63946 0.0
N481 N 0.15756 0.1151 0.6266 0.0
Co482 Co 0.12628 0.10766 0.62801 0.0
N483 N 0.12027 0.12657 0.65283 0.0
C484 C 0.1345 0.1387 0.66247 0.0
C485 C 0.12572 0.14953 0.67942 0.0
C486 C 0.10471 0.14373 0.68095 0.0
C487 C 0.10193 0.12957 0.66481 0.0
N488 N 0.09495 0.10037 0.6293 0.0
C489 C 0.079 0.10598 0.64349 0.0
C490 C 0.05962 0.09682 0.63905 0.0
C491 C 0.06349 0.08489 0.62151 0.0
C492 C 0.08491 0.08736 0.6163 0.0
N493 N 0.13236 0.08859 0.60331 0.0
C494 C 0.11822 0.07622 0.59388 0.0
C495 C 0.12699 0.06538 0.57693 0.0
C496 C 0.14792 0.0714 0.57522 0.0
C497 C 0.15068 0.08562 0.59131 0.0
N498 N 0.13323 0.0835 0.64739 0.0
C499 C 0.14023 0.05034 0.67695 0.0
C500 C 0.12792 0.04733 0.65928 0.0
C501 C 0.12464 0.06399 0.64484 0.0
C502 C 0.14964 0.06997 0.67912 0.0
C503 C 0.14607 0.08612 0.66424 0.0
N504 N 0.11939 0.13182 0.60862 0.0
C505 C 0.10425 0.1454 0.57628 0.0
C506 C 0.113 0.16524 0.57924 0.0
C507 C 0.12423 0.16829 0.59757 0.0
C508 C 0.12723 0.15153 0.61188 0.0
C509 C 0.10752 0.12908 0.59111 0.0
H510 H 0.13625 0.15486 0.62529 0.0
H511 H 0.10065 0.11428 0.58784 0.0
H512 H 0.11481 0.06077 0.63194 0.0
H513 H 0.1535 0.10072 0.66699 0.0
C514 C 0.15624 0.13887 0.65576 0.0
C515 C 0.17047 0.09699 0.59367 0.0
C516 C 0.08181 0.11879 0.66205 0.0
C517 C 0.09641 0.07641 0.60031 0.0
H518 H 0.20786 0.1176 0.60742 0.0
H519 H 0.2003 0.14073 0.64158 0.0
H520 H 0.13377 0.16001 0.68972 0.0
H521 H 0.09287 0.14898 0.69285 0.0
H522 H 0.0444 0.0981 0.64786 0.0
H523 H 0.05223 0.075 0.6139 0.0
H524 H 0.11892 0.05493 0.56661 0.0
H525 H 0.15963 0.06639 0.56311 0.0
H526 H 0.12063 0.03225 0.65666 0.0
H527 H 0.15917 0.07321 0.69262 0.0
H528 H 0.09546 0.14221 0.56229 0.0
H529 H 0.13086 0.18354 0.60086 0.0
C530 C 0.12014 0.91085 0.8701 0.0
C531 C 0.10848 0.93007 0.8728 0.0
C532 C 0.09349 0.92683 0.88855 0.0
C533 C 0.09692 0.90595 0.8946 0.0
N534 N 0.11336 0.8957 0.88381 0.0
Co535 Co 0.124 0.86528 0.88749 0.0
N536 N 0.10065 0.85994 0.9093 0.0
C537 C 0.08471 0.87387 0.9161 0.0
C538 C 0.07128 0.86565 0.93138 0.0
C539 C 0.07921 0.8453 0.93471 0.0
C540 C 0.09709 0.84231 0.92119 0.0
N541 N 0.13493 0.835 0.89148 0.0
C542 C 0.12824 0.8199 0.90528 0.0
C543 C 0.14054 0.80095 0.90323 0.0
C544 C 0.15582 0.80431 0.88781 0.0
C545 C 0.15196 0.82499 0.88134 0.0
N546 N 0.14707 0.87048 0.86537 0.0
C547 C 0.16251 0.85629 0.85802 0.0
C548 C 0.17536 0.86416 0.84212 0.0
C549 C 0.16752 0.88452 0.83886 0.0
C550 C 0.15032 0.88794 0.85314 0.0
N551 N 0.14348 0.87416 0.90962 0.0
C552 C 0.1711 0.8865 0.94111 0.0
C553 C 0.17912 0.87434 0.92422 0.0
C554 C 0.16511 0.86827 0.90885 0.0
C555 C 0.1491 0.89247 0.942 0.0
C556 C 0.13571 0.88629 0.92615 0.0
N557 N 0.10453 0.85653 0.8653 0.0
C558 C 0.09858 0.83732 0.83351 0.0
C559 C 0.07777 0.84672 0.83211 0.0
C560 C 0.07037 0.86064 0.84791 0.0
C561 C 0.08387 0.86523 0.86422 0.0
C562 C 0.11156 0.84234 0.85016 0.0
H563 H 0.07735 0.8762 0.87554 0.0
H564 H 0.12729 0.83476 0.85026 0.0
H565 H 0.17214 0.85865 0.89663 0.0
H566 H 0.11914 0.89144 0.92771 0.0
C567 C 0.0839 0.89509 0.9091 0.0
C568 C 0.13683 0.90756 0.85371 0.0
C569 C 0.11088 0.82293 0.92105 0.0
C570 C 0.16416 0.83549 0.86597 0.0
H571 H 0.11034 0.94476 0.86397 0.0
H572 H 0.08116 0.93817 0.89446 0.0
H573 H 0.05778 0.87371 0.9396 0.0
H574 H 0.0729 0.8341 0.94615 0.0
H575 H 0.13881 0.7863 0.91216 0.0
H576 H 0.1684 0.7931 0.88217 0.0
H577 H 0.18855 0.85591 0.83359 0.0
H578 H 0.17354 0.89539 0.82697 0.0
H579 H 0.19605 0.86906 0.92312 0.0
H580 H 0.14226 0.90196 0.95483 0.0
H581 H 0.10489 0.82619 0.82177 0.0
H582 H 0.05444 0.86854 0.84741 0.0
C583 C 0.3909 0.90366 0.15868 0.0
C584 C 0.40128 0.92244 0.15424 0.0
C585 C 0.41316 0.9192 0.13611 0.0
C586 C 0.40938 0.89873 0.13053 0.0
N587 N 0.39562 0.88873 0.14388 0.0
Co588 Co 0.38679 0.85844 0.14233 0.0
N589 N 0.40328 0.85412 0.11496 0.0
C590 C 0.41443 0.86887 0.10395 0.0
C591 C 0.42284 0.86177 0.08507 0.0
C592 C 0.41652 0.84131 0.08378 0.0
C593 C 0.40475 0.83703 0.10215 0.0
N594 N 0.37883 0.82787 0.1413 0.0
C595 C 0.38354 0.81291 0.12654 0.0
C596 C 0.37558 0.7933 0.13241 0.0
C597 C 0.36517 0.79605 0.15142 0.0
C598 C 0.3675 0.81704 0.15612 0.0
N599 N 0.36928 0.8631 0.16906 0.0
C600 C 0.35713 0.84872 0.17945 0.0
C601 C 0.34661 0.85659 0.1971 0.0
C602 C 0.35233 0.87728 0.19806 0.0
C603 C 0.36612 0.88081 0.18087 0.0
N604 N 0.36093 0.86738 0.12635 0.0
C605 C 0.32493 0.87865 0.10195 0.0
C606 C 0.3236 0.86304 0.11773 0.0
C607 C 0.34167 0.85768 0.12966 0.0
C608 C 0.34439 0.88897 0.09907 0.0
C609 C 0.36199 0.8832 0.1114 0.0
N610 N 0.41279 0.84965 0.15842 0.0
C611 C 0.42849 0.83826 0.19123 0.0
C612 C 0.44885 0.84471 0.18424 0.0
C613 C 0.45122 0.85166 0.16343 0.0
C614 C 0.43315 0.85406 0.15093 0.0
C615 C 0.41087 0.84055 0.17803 0.0
H616 H 0.43609 0.86019 0.13553 0.0
H617 H 0.39576 0.83557 0.18439 0.0
H618 H 0.33978 0.84547 0.14129 0.0
H619 H 0.37642 0.8915 0.10827 0.0
C620 C 0.41731 0.889 0.11215 0.0
C621 C 0.37662 0.90089 0.17705 0.0
C622 C 0.39508 0.8166 0.1066 0.0
C623 C 0.35742 0.8275 0.17318 0.0
H624 H 0.40027 0.93702 0.16314 0.0
H625 H 0.42313 0.93052 0.12782 0.0
H626 H 0.43239 0.87046 0.0736 0.0
H627 H 0.42012 0.83081 0.07071 0.0
H628 H 0.37688 0.7786 0.12371 0.0
H629 H 0.35643 0.7843 0.16045 0.0
H630 H 0.33644 0.84815 0.20823 0.0
H631 H 0.3473 0.88837 0.21028 0.0
H632 H 0.30875 0.85483 0.12077 0.0
H633 H 0.34634 0.90099 0.08689 0.0
H634 H 0.42579 0.8325 0.20715 0.0
H635 H 0.46685 0.85604 0.15697 0.0
C636 C 0.33804 0.37914 0.15501 0.0
C637 C 0.3217 0.37201 0.1684 0.0
C638 C 0.32523 0.35049 0.17054 0.0
C639 C 0.34337 0.34572 0.15829 0.0
N640 N 0.352 0.36299 0.14891 0.0
Co641 Co 0.37681 0.36329 0.12784 0.0
N642 N 0.37994 0.33138 0.12834 0.0
C643 C 0.36805 0.3177 0.13996 0.0
C644 C 0.37478 0.29674 0.13768 0.0
C645 C 0.39232 0.29709 0.12416 0.0
C646 C 0.39525 0.31833 0.119 0.0
N647 N 0.40123 0.36364 0.10639 0.0
C648 C 0.41417 0.34737 0.09885 0.0
C649 C 0.42966 0.3545 0.08449 0.0
C650 C 0.4266 0.37612 0.08317 0.0
C651 C 0.40952 0.38095 0.09673 0.0
N652 N 0.374 0.39516 0.12768 0.0
C653 C 0.38673 0.40894 0.11715 0.0
C654 C 0.38027 0.42992 0.11985 0.0
C655 C 0.36202 0.42947 0.13245 0.0
C656 C 0.3584 0.40815 0.13659 0.0
N657 N 0.39793 0.36406 0.15075 0.0
C658 C 0.42899 0.3638 0.18236 0.0
C659 C 0.4312 0.37652 0.16434 0.0
C660 C 0.41563 0.37645 0.14893 0.0
C661 C 0.41081 0.35138 0.18438 0.0
C662 C 0.39563 0.35175 0.16855 0.0
N663 N 0.35571 0.36255 0.10502 0.0
C664 C 0.34051 0.37785 0.07339 0.0
C665 C 0.32372 0.36365 0.07438 0.0
C666 C 0.32352 0.34856 0.09068 0.0
C667 C 0.33957 0.34824 0.10565 0.0
C668 C 0.35621 0.37701 0.08873 0.0
H669 H 0.33841 0.33646 0.11774 0.0
H670 H 0.36837 0.38849 0.08729 0.0
H671 H 0.41846 0.38637 0.13558 0.0
H672 H 0.38229 0.3418 0.17103 0.0
C673 C 0.35135 0.32511 0.15361 0.0
C674 C 0.33871 0.40094 0.14699 0.0
C675 C 0.41363 0.32538 0.1063 0.0
C676 C 0.40261 0.40159 0.10259 0.0
H677 H 0.30815 0.3812 0.17526 0.0
H678 H 0.31514 0.33949 0.17911 0.0
H679 H 0.36814 0.28292 0.14543 0.0
H680 H 0.40224 0.28336 0.11911 0.0
H681 H 0.44238 0.34515 0.07643 0.0
H682 H 0.43635 0.38711 0.07417 0.0
H683 H 0.38722 0.4438 0.11253 0.0
H684 H 0.35185 0.44315 0.13717 0.0
H685 H 0.44515 0.38622 0.16185 0.0
H686 H 0.40818 0.34146 0.19819 0.0
H687 H 0.34127 0.38995 0.06113 0.0
H688 H 0.31104 0.33697 0.0919 0.0
C689 C 0.91767 0.87844 0.09315 0.0
C690 C 0.93394 0.88236 0.0783 0.0
C691 C 0.92662 0.89923 0.06636 0.0
C692 C 0.90644 0.90467 0.07464 0.0
N693 N 0.90048 0.89241 0.09128 0.0
Co694 Co 0.87248 0.8947 0.10803 0.0
N695 N 0.86086 0.91816 0.08922 0.0
C696 C 0.87067 0.92622 0.07177 0.0
C697 C 0.85889 0.94251 0.06238 0.0
C698 C 0.84054 0.9452 0.07467 0.0
C699 C 0.84222 0.9303 0.09091 0.0
N700 N 0.84473 0.89742 0.12516 0.0
C701 C 0.82791 0.91189 0.12369 0.0
C702 C 0.81211 0.90874 0.13923 0.0
C703 C 0.81941 0.89194 0.15125 0.0
C704 C 0.83913 0.8858 0.14237 0.0
N705 N 0.88383 0.87084 0.12651 0.0
C706 C 0.87349 0.8619 0.14322 0.0
C707 C 0.88492 0.84512 0.15216 0.0
C708 C 0.90358 0.84294 0.14027 0.0
C709 C 0.90245 0.85868 0.12475 0.0
N710 N 0.88503 0.91604 0.12625 0.0
C711 C 0.89928 0.94806 0.15233 0.0
C712 C 0.89099 0.92941 0.16086 0.0
C713 C 0.884 0.91375 0.14765 0.0
C714 C 0.90108 0.9501 0.13053 0.0
C715 C 0.89408 0.93394 0.11787 0.0
N716 N 0.85988 0.87335 0.08981 0.0
C717 C 0.83929 0.84185 0.08568 0.0
C718 C 0.84443 0.84141 0.0642 0.0
C719 C 0.85696 0.85758 0.05569 0.0
C720 C 0.86434 0.87329 0.06863 0.0
C721 C 0.84711 0.85782 0.09808 0.0
H722 H 0.87393 0.885 0.06115 0.0
H723 H 0.84279 0.85707 0.11433 0.0
H724 H 0.87735 0.90019 0.15516 0.0
H725 H 0.89579 0.93648 0.10138 0.0
C726 C 0.89192 0.91978 0.06595 0.0
C727 C 0.91895 0.86074 0.10811 0.0
C728 C 0.82647 0.92925 0.10833 0.0
C729 C 0.85292 0.86948 0.15002 0.0
H730 H 0.9493 0.87359 0.07605 0.0
H731 H 0.93475 0.90624 0.05284 0.0
H732 H 0.8635 0.95192 0.04873 0.0
H733 H 0.82773 0.95723 0.07231 0.0
H734 H 0.79701 0.91788 0.1418 0.0
H735 H 0.81146 0.88522 0.16502 0.0
H736 H 0.8801 0.83538 0.1655 0.0
H737 H 0.91636 0.83087 0.14254 0.0
H738 H 0.88911 0.9272 0.1777 0.0
H739 H 0.90769 0.96419 0.12324 0.0
H740 H 0.82931 0.82991 0.09298 0.0
H741 H 0.86163 0.85786 0.03918 0.0
C742 C 0.14926 0.60746 0.65135 0.0
C743 C 0.16489 0.60823 0.66648 0.0
C744 C 0.1657 0.62907 0.67209 0.0
C745 C 0.15064 0.63978 0.66007 0.0
N746 N 0.13987 0.62697 0.64746 0.0
Co747 Co 0.11793 0.63589 0.62609 0.0
N748 N 0.12089 0.6668 0.63253 0.0
C749 C 0.13409 0.67512 0.64657 0.0
C750 C 0.13134 0.6968 0.6485 0.0
C751 C 0.11506 0.70262 0.63529 0.0
C752 C 0.10889 0.68407 0.62599 0.0
N753 N 0.09628 0.64475 0.60452 0.0
C754 C 0.0872 0.66427 0.60034 0.0
C755 C 0.0724 0.6637 0.58444 0.0
C756 C 0.07165 0.64287 0.57875 0.0
C757 C 0.08604 0.63202 0.59142 0.0
N758 N 0.1147 0.60502 0.61985 0.0
C759 C 0.10103 0.59666 0.60628 0.0
C760 C 0.10309 0.57488 0.60501 0.0
C761 C 0.11935 0.56902 0.61823 0.0
C762 C 0.12629 0.58766 0.62674 0.0
N763 N 0.09419 0.63476 0.64769 0.0
C764 C 0.05859 0.63892 0.67616 0.0
C765 C 0.05667 0.62881 0.65697 0.0
C766 C 0.07457 0.62685 0.64311 0.0
C767 C 0.07889 0.64587 0.68132 0.0
C768 C 0.09634 0.64353 0.66703 0.0
N769 N 0.14156 0.63726 0.60442 0.0
C770 C 0.15603 0.629 0.56969 0.0
C771 C 0.17465 0.64008 0.57328 0.0
C772 C 0.17658 0.64943 0.59284 0.0
C773 C 0.16001 0.6478 0.60806 0.0
C774 C 0.13986 0.62776 0.58535 0.0
H775 H 0.16256 0.65518 0.62263 0.0
H776 H 0.12612 0.61908 0.58162 0.0
H777 H 0.07195 0.61941 0.62856 0.0
H778 H 0.11126 0.64943 0.67182 0.0
C779 C 0.14747 0.66196 0.65901 0.0
C780 C 0.14513 0.58826 0.63983 0.0
C781 C 0.09036 0.68324 0.61251 0.0
C782 C 0.08839 0.60982 0.59314 0.0
H783 H 0.17519 0.59522 0.67231 0.0
H784 H 0.17662 0.63573 0.68297 0.0
H785 H 0.13951 0.70701 0.65897 0.0
H786 H 0.10801 0.71857 0.63332 0.0
H787 H 0.06247 0.67687 0.57832 0.0
H788 H 0.06106 0.6363 0.5675 0.0
H789 H 0.09455 0.5646 0.5949 0.0
H790 H 0.12599 0.55297 0.62071 0.0
H791 H 0.04126 0.62309 0.6523 0.0
H792 H 0.0813 0.65328 0.69627 0.0
H793 H 0.15371 0.62159 0.55473 0.0
H794 H 0.19092 0.65782 0.59652 0.0
C795 C 0.66018 0.82059 0.89578 0.0
C796 C 0.6754 0.80405 0.89231 0.0
C797 C 0.67765 0.80198 0.87103 0.0
C798 C 0.66367 0.81731 0.86284 0.0
N799 N 0.65318 0.82949 0.87761 0.0
Co800 Co 0.62951 0.85181 0.87333 0.0
N801 N 0.62985 0.84643 0.8424 0.0
C802 C 0.64271 0.83216 0.83156 0.0
C803 C 0.64021 0.83339 0.81026 0.0
C804 C 0.62535 0.84983 0.80728 0.0
C805 C 0.61966 0.85764 0.82702 0.0
N806 N 0.60544 0.87373 0.86915 0.0
C807 C 0.5973 0.88186 0.8511 0.0
C808 C 0.58122 0.89755 0.85493 0.0
C809 C 0.57947 0.89973 0.87621 0.0
C810 C 0.59454 0.88531 0.88411 0.0
N811 N 0.62958 0.85752 0.90417 0.0
C812 C 0.61761 0.8726 0.9148 0.0
C813 C 0.62047 0.87177 0.93604 0.0
C814 C 0.6346 0.85477 0.9392 0.0
C815 C 0.63956 0.8462 0.9196 0.0
N816 N 0.65112 0.87392 0.86822 0.0
C817 C 0.68112 0.90571 0.85972 0.0
C818 C 0.66261 0.90991 0.87236 0.0
C819 C 0.64794 0.89395 0.87634 0.0
C820 C 0.68432 0.88532 0.85141 0.0
C821 C 0.66932 0.86981 0.85587 0.0
N822 N 0.60799 0.82966 0.8785 0.0
C823 C 0.5782 0.81573 0.89918 0.0
C824 C 0.58039 0.79636 0.8887 0.0
C825 C 0.59621 0.7941 0.87273 0.0
C826 C 0.60974 0.81077 0.86796 0.0
C827 C 0.59192 0.83215 0.89369 0.0
H828 H 0.62179 0.80779 0.85599 0.0
H829 H 0.58942 0.84658 0.90218 0.0
H830 H 0.63413 0.89824 0.88597 0.0
H831 H 0.67275 0.85469 0.84898 0.0
C832 C 0.65816 0.81904 0.84172 0.0
C833 C 0.65103 0.82569 0.91646 0.0
C834 C 0.6062 0.87697 0.83024 0.0
C835 C 0.60115 0.88463 0.90492 0.0
H836 H 0.68315 0.79391 0.90401 0.0
H837 H 0.68732 0.78992 0.8626 0.0
H838 H 0.64889 0.82412 0.79827 0.0
H839 H 0.61996 0.85603 0.79229 0.0
H840 H 0.57243 0.90718 0.84353 0.0
H841 H 0.56941 0.91138 0.88479 0.0
H842 H 0.61205 0.88135 0.94796 0.0
H843 H 0.63959 0.8487 0.95434 0.0
H844 H 0.65952 0.92537 0.87944 0.0
H845 H 0.69825 0.88133 0.84126 0.0
H846 H 0.5659 0.81825 0.91147 0.0
H847 H 0.59854 0.77929 0.86427 0.0
C848 C 0.92851 0.15868 0.37639 0.0
C849 C 0.9491 0.15326 0.38345 0.0
C850 C 0.94796 0.13368 0.39286 0.0
C851 C 0.92683 0.12833 0.39108 0.0
N852 N 0.91444 0.14314 0.38079 0.0
Co853 Co 0.88247 0.14256 0.37601 0.0
N854 N 0.88048 0.11431 0.39097 0.0
C855 C 0.89696 0.1025 0.39947 0.0
C856 C 0.89092 0.08327 0.40758 0.0
C857 C 0.86934 0.08257 0.40383 0.0
C858 C 0.8634 0.1016 0.39374 0.0
N859 N 0.85046 0.14231 0.3717 0.0
C860 C 0.83609 0.12732 0.37703 0.0
C861 C 0.81515 0.13369 0.37161 0.0
C862 C 0.81642 0.15317 0.36204 0.0
C863 C 0.83791 0.15765 0.36233 0.0
N864 N 0.88452 0.17053 0.3606 0.0
C865 C 0.86836 0.18172 0.35095 0.0
C866 C 0.8747 0.2004 0.34179 0.0
C867 C 0.89614 0.20135 0.34604 0.0
C868 C 0.9016 0.18315 0.35767 0.0
N869 N 0.88816 0.12735 0.34919 0.0
C870 C 0.89533 0.10452 0.3117 0.0
C871 C 0.87951 0.12108 0.31309 0.0
C872 C 0.87625 0.13222 0.33182 0.0
C873 C 0.90773 0.09987 0.32927 0.0
C874 C 0.90393 0.11137 0.34765 0.0
N875 N 0.87695 0.15783 0.40278 0.0
C876 C 0.86301 0.18902 0.42138 0.0
C877 C 0.87438 0.1827 0.43919 0.0
C878 C 0.88586 0.16306 0.43893 0.0
C879 C 0.88683 0.15093 0.42075 0.0
C880 C 0.86442 0.17638 0.40351 0.0
H881 H 0.89618 0.13632 0.42147 0.0
H882 H 0.85581 0.18229 0.39027 0.0
H883 H 0.86386 0.14455 0.33191 0.0
H884 H 0.91377 0.10678 0.36046 0.0
C885 C 0.91802 0.10976 0.39929 0.0
C886 C 0.92289 0.17913 0.36647 0.0
C887 C 0.84158 0.1065 0.38633 0.0
C888 C 0.84701 0.17533 0.35258 0.0
H889 H 0.96336 0.16267 0.38226 0.0
H890 H 0.96088 0.12462 0.40047 0.0
H891 H 0.90108 0.07103 0.41498 0.0
H892 H 0.85928 0.06935 0.40778 0.0
H893 H 0.80054 0.12494 0.37393 0.0
H894 H 0.80332 0.16268 0.35521 0.0
H895 H 0.86474 0.21228 0.33365 0.0
H896 H 0.90647 0.21425 0.34157 0.0
H897 H 0.86963 0.12542 0.29981 0.0
H898 H 0.91997 0.08697 0.3291 0.0
H899 H 0.85384 0.20411 0.42083 0.0
H900 H 0.89448 0.15724 0.45257 0.0
C901 C 0.57367 0.11573 0.62576 0.0
C902 C 0.55367 0.11178 0.61761 0.0
C903 C 0.55701 0.09516 0.60417 0.0
C904 C 0.57875 0.08992 0.60491 0.0
N905 N 0.58944 0.10193 0.61834 0.0
Co906 Co 0.62132 0.10059 0.62354 0.0
N907 N 0.62649 0.07698 0.60286 0.0
C908 C 0.61166 0.06794 0.591 0.0
C909 C 0.61995 0.05102 0.57948 0.0
C910 C 0.64122 0.04877 0.5847 0.0
C911 C 0.64461 0.06454 0.5991 0.0
N912 N 0.65324 0.09948 0.62846 0.0
C913 C 0.66882 0.08518 0.62166 0.0
C914 C 0.68897 0.08952 0.6292 0.0
C915 C 0.68592 0.10698 0.64164 0.0
C916 C 0.66417 0.11224 0.64096 0.0
N917 N 0.61614 0.12387 0.64458 0.0
C918 C 0.63108 0.13271 0.65648 0.0
C919 C 0.62271 0.14871 0.66909 0.0
C920 C 0.6012 0.15043 0.66481 0.0
C921 C 0.59768 0.13526 0.64977 0.0
N922 N 0.6172 0.07892 0.64608 0.0
C923 C 0.61353 0.04655 0.6769 0.0
C924 C 0.62656 0.06382 0.6799 0.0
C925 C 0.62812 0.07972 0.66445 0.0
C926 C 0.60205 0.046 0.65838 0.0
C927 C 0.60407 0.06222 0.64335 0.0
N928 N 0.62544 0.1223 0.60092 0.0
C929 C 0.63852 0.15633 0.58908 0.0
C930 C 0.62909 0.15426 0.56963 0.0
C931 C 0.61816 0.13575 0.56595 0.0
C932 C 0.61652 0.12014 0.58166 0.0
C933 C 0.6366 0.14027 0.60432 0.0
H934 H 0.60768 0.10665 0.57791 0.0
H935 H 0.64413 0.1429 0.61878 0.0
H936 H 0.63844 0.09236 0.6676 0.0
H937 H 0.59511 0.0607 0.62949 0.0
C938 C 0.58974 0.07444 0.59256 0.0
C939 C 0.57702 0.13347 0.63961 0.0
C940 C 0.66479 0.06613 0.60997 0.0
C941 C 0.65313 0.12708 0.65395 0.0
H942 H 0.53836 0.12039 0.62073 0.0
H943 H 0.54511 0.0881 0.5946 0.0
H944 H 0.61133 0.04092 0.56927 0.0
H945 H 0.65276 0.0365 0.57915 0.0
H946 H 0.7041 0.08042 0.62672 0.0
H947 H 0.69789 0.11421 0.651 0.0
H948 H 0.63138 0.15856 0.67951 0.0
H949 H 0.58963 0.16205 0.67148 0.0
H950 H 0.6355 0.06516 0.69415 0.0
H951 H 0.59191 0.03285 0.6552 0.0
H952 H 0.64745 0.17027 0.59255 0.0
H953 H 0.6104 0.13349 0.55116 0.0
C954 C 0.14196 0.39589 0.91952 0.0
C955 C 0.1358 0.40674 0.93771 0.0
C956 C 0.11772 0.41899 0.93318 0.0
C957 C 0.11386 0.41489 0.9126 0.0
N958 N 0.12827 0.4006 0.90371 0.0
Co959 Co 0.1291 0.39054 0.87393 0.0
N960 N 0.10263 0.4088 0.86721 0.0
C961 C 0.09108 0.42204 0.88035 0.0
C962 C 0.07349 0.43214 0.87139 0.0
C963 C 0.07357 0.42471 0.85139 0.0
C964 C 0.09126 0.41037 0.84935 0.0
N965 N 0.13011 0.38073 0.84405 0.0
C966 C 0.11619 0.3851 0.82834 0.0
C967 C 0.1226 0.37444 0.81009 0.0
C968 C 0.14119 0.36293 0.8144 0.0
C969 C 0.14504 0.3671 0.83496 0.0
N970 N 0.15533 0.37196 0.88074 0.0
C971 C 0.1668 0.35868 0.8676 0.0
C972 C 0.18413 0.3482 0.87665 0.0
C973 C 0.18383 0.35527 0.89678 0.0
C974 C 0.16621 0.36969 0.89885 0.0
N975 N 0.11025 0.36687 0.88207 0.0
C976 C 0.08321 0.33338 0.89348 0.0
C977 C 0.10156 0.32979 0.88044 0.0
C978 C 0.1147 0.34663 0.87493 0.0
C979 C 0.07876 0.35401 0.90082 0.0
C980 C 0.09239 0.37034 0.89503 0.0
N981 N 0.14808 0.41423 0.86598 0.0
C982 C 0.18273 0.42621 0.85304 0.0
C983 C 0.17802 0.44657 0.86097 0.0
C984 C 0.15743 0.45088 0.86992 0.0
C985 C 0.14285 0.43464 0.87223 0.0
C986 C 0.16754 0.41046 0.85551 0.0
H987 H 0.12772 0.43892 0.87969 0.0
H988 H 0.17223 0.3952 0.84944 0.0
H989 H 0.12831 0.34289 0.86481 0.0
H990 H 0.08803 0.38567 0.9011 0.0
C991 C 0.09696 0.42433 0.90117 0.0
C992 C 0.16109 0.3815 0.91802 0.0
C993 C 0.09623 0.39832 0.8303 0.0
C994 C 0.16153 0.35719 0.84655 0.0
H995 H 0.14367 0.40599 0.95267 0.0
H996 H 0.10857 0.42972 0.9436 0.0
H997 H 0.06183 0.44335 0.87861 0.0
H998 H 0.0618 0.42914 0.83968 0.0
H999 H 0.11444 0.37452 0.7953 0.0
H1000 H 0.15043 0.35226 0.80399 0.0
H1001 H 0.19585 0.3371 0.86935 0.0
H1002 H 0.19553 0.35062 0.90848 0.0
H1003 H 0.10588 0.31404 0.87453 0.0
H1004 H 0.06454 0.35773 0.91066 0.0
H1005 H 0.19842 0.42208 0.84581 0.0
H1006 H 0.15272 0.46662 0.87566 0.0
C1007 C 0.36194 0.62932 0.41817 0.0
C1008 C 0.3682 0.62344 0.43823 0.0
C1009 C 0.38486 0.60857 0.4359 0.0
C1010 C 0.38778 0.60625 0.41463 0.0
N1011 N 0.37431 0.61913 0.40324 0.0
Co1012 Co 0.37199 0.62028 0.37197 0.0
N1013 N 0.39549 0.59752 0.3685 0.0
C1014 C 0.40632 0.58673 0.38373 0.0
C1015 C 0.42287 0.57342 0.37617 0.0
C1016 C 0.42304 0.57643 0.35489 0.0
C1017 C 0.40649 0.59137 0.35081 0.0
N1018 N 0.36949 0.62109 0.34071 0.0
C1019 C 0.38296 0.61215 0.32588 0.0
C1020 C 0.37635 0.61741 0.30579 0.0
C1021 C 0.35831 0.63066 0.30806 0.0
C1022 C 0.35501 0.63274 0.32932 0.0
N1023 N 0.34882 0.64342 0.37534 0.0
C1024 C 0.33812 0.65407 0.3599 0.0
C1025 C 0.32271 0.66872 0.36721 0.0
C1026 C 0.32334 0.66708 0.38857 0.0
C1027 C 0.33919 0.65146 0.39305 0.0
N1028 N 0.39426 0.6421 0.36983 0.0
C1029 C 0.42675 0.67212 0.36544 0.0
C1030 C 0.40821 0.67384 0.35341 0.0
C1031 C 0.39226 0.65886 0.35591 0.0
C1032 C 0.42869 0.65516 0.37979 0.0
C1033 C 0.41243 0.64042 0.38167 0.0
N1034 N 0.34964 0.59838 0.37407 0.0
C1035 C 0.31413 0.58653 0.3659 0.0
C1036 C 0.31751 0.56778 0.3776 0.0
C1037 C 0.33725 0.56464 0.38758 0.0
C1038 C 0.35292 0.57999 0.38563 0.0
C1039 C 0.33022 0.60144 0.36436 0.0
H1040 H 0.36751 0.5766 0.39369 0.0
H1041 H 0.32642 0.61539 0.35535 0.0
H1042 H 0.3785 0.6611 0.34632 0.0
H1043 H 0.41506 0.62764 0.39259 0.0
C1044 C 0.40228 0.59146 0.40491 0.0
C1045 C 0.34307 0.64329 0.41414 0.0
C1046 C 0.40367 0.60142 0.33038 0.0
C1047 C 0.34119 0.64822 0.33887 0.0
H1048 H 0.36097 0.62889 0.45299 0.0
H1049 H 0.39336 0.59998 0.44823 0.0
H1050 H 0.43432 0.56374 0.38513 0.0
H1051 H 0.43471 0.56942 0.3437 0.0
H1052 H 0.38437 0.61315 0.29104 0.0
H1053 H 0.34966 0.63903 0.29569 0.0
H1054 H 0.31161 0.67867 0.35811 0.0
H1055 H 0.31276 0.67579 0.39957 0.0
H1056 H 0.40583 0.68688 0.34229 0.0
H1057 H 0.44289 0.65302 0.3893 0.0
H1058 H 0.29896 0.58992 0.35815 0.0
H1059 H 0.34075 0.55027 0.39668 0.0
C1060 C 0.79033 0.62954 0.85445 0.0
C1061 C 0.76959 0.63561 0.84831 0.0
C1062 C 0.77182 0.65154 0.83368 0.0
C1063 C 0.7937 0.6543 0.83181 0.0
N1064 N 0.8056 0.64065 0.84393 0.0
Co1065 Co 0.8377 0.64012 0.84783 0.0
N1066 N 0.84079 0.66579 0.82911 0.0
C1067 C 0.82483 0.67735 0.81955 0.0
C1068 C 0.83236 0.69303 0.80639 0.0
C1069 C 0.85444 0.69095 0.80716 0.0
C1070 C 0.85904 0.67412 0.82084 0.0
N1071 N 0.86973 0.63959 0.85183 0.0
C1072 C 0.88496 0.65091 0.84159 0.0
C1073 C 0.90567 0.64519 0.84804 0.0
C1074 C 0.90348 0.62915 0.86256 0.0
C1075 C 0.88163 0.62607 0.86408 0.0
N1076 N 0.83468 0.61442 0.86643 0.0
C1077 C 0.85064 0.60274 0.87588 0.0
C1078 C 0.84314 0.58665 0.88854 0.0
C1079 C 0.82108 0.58857 0.88755 0.0
C1080 C 0.81647 0.60575 0.87429 0.0
N1081 N 0.84247 0.62157 0.82302 0.0
C1082 C 0.85092 0.59659 0.78711 0.0
C1083 C 0.86134 0.59179 0.80585 0.0
C1084 C 0.8569 0.60437 0.82346 0.0
C1085 C 0.83611 0.61401 0.78669 0.0
C1086 C 0.83214 0.62614 0.80467 0.0
N1087 N 0.83295 0.65871 0.87262 0.0
C1088 C 0.84009 0.66702 0.90863 0.0
C1089 C 0.82578 0.68485 0.90797 0.0
C1090 C 0.81492 0.6892 0.88938 0.0
C1091 C 0.81876 0.67609 0.87205 0.0
C1092 C 0.84334 0.65425 0.89097 0.0
H1093 H 0.80999 0.68033 0.85841 0.0
H1094 H 0.85433 0.64085 0.89257 0.0
H1095 H 0.86556 0.6 0.83715 0.0
H1096 H 0.82074 0.63922 0.80325 0.0
C1097 C 0.8033 0.67123 0.82104 0.0
C1098 C 0.79475 0.61515 0.87202 0.0
C1099 C 0.88077 0.665 0.82377 0.0
C1100 C 0.87213 0.60899 0.87465 0.0
H1101 H 0.75441 0.62986 0.85449 0.0
H1102 H 0.75895 0.66087 0.82628 0.0
H1103 H 0.82298 0.70381 0.79643 0.0
H1104 H 0.86588 0.70006 0.79797 0.0
H1105 H 0.92081 0.65121 0.84197 0.0
H1106 H 0.91636 0.61998 0.87011 0.0
H1107 H 0.85251 0.5757 0.89833 0.0
H1108 H 0.80959 0.57924 0.89646 0.0
H1109 H 0.87314 0.57856 0.80689 0.0
H1110 H 0.82736 0.61815 0.77262 0.0
H1111 H 0.84912 0.66307 0.92257 0.0
H1112 H 0.80339 0.70263 0.88816 0.0
C1113 C 0.61325 0.59327 0.13296 0.0
C1114 C 0.60166 0.57515 0.13002 0.0
C1115 C 0.586 0.58064 0.11604 0.0
C1116 C 0.58892 0.60169 0.11126 0.0
N1117 N 0.60577 0.6099 0.12105 0.0
Co1118 Co 0.61494 0.64014 0.11969 0.0
N1119 N 0.59181 0.64826 0.09928 0.0
C1120 C 0.57689 0.63558 0.09152 0.0
C1121 C 0.56452 0.64529 0.0763 0.0
C1122 C 0.57249 0.66513 0.07371 0.0
C1123 C 0.58926 0.6663 0.08758 0.0
N1124 N 0.62357 0.67054 0.11882 0.0
C1125 C 0.6173 0.68661 0.10568 0.0
C1126 C 0.62785 0.70515 0.10961 0.0
C1127 C 0.64164 0.70042 0.12553 0.0
C1128 C 0.63876 0.67937 0.13037 0.0
N1129 N 0.63867 0.63189 0.13941 0.0
C1130 C 0.65369 0.64469 0.1468 0.0
C1131 C 0.66781 0.63452 0.1602 0.0
C1132 C 0.66131 0.61405 0.16162 0.0
C1133 C 0.6435 0.61293 0.14895 0.0
N1134 N 0.63491 0.63358 0.09558 0.0
C1135 C 0.6613 0.62753 0.0593 0.0
C1136 C 0.66773 0.64035 0.07551 0.0
C1137 C 0.65447 0.64299 0.09348 0.0
C1138 C 0.6418 0.61725 0.06182 0.0
C1139 C 0.62895 0.62049 0.07993 0.0
N1140 N 0.59483 0.64674 0.14389 0.0
C1141 C 0.58864 0.6579 0.17986 0.0
C1142 C 0.56723 0.65168 0.17964 0.0
C1143 C 0.55963 0.64384 0.16098 0.0
C1144 C 0.57353 0.6416 0.14348 0.0
C1145 C 0.60201 0.65544 0.1619 0.0
H1146 H 0.56671 0.63511 0.13002 0.0
H1147 H 0.61818 0.66031 0.16319 0.0
H1148 H 0.66018 0.65299 0.10533 0.0
H1149 H 0.61403 0.61261 0.08071 0.0
C1150 C 0.57614 0.61415 0.09763 0.0
C1151 C 0.63072 0.59404 0.14776 0.0
C1152 C 0.60351 0.68409 0.08783 0.0
C1153 C 0.65268 0.66662 0.14261 0.0
H1154 H 0.6041 0.55967 0.13746 0.0
H1155 H 0.57377 0.57056 0.11025 0.0
H1156 H 0.55193 0.63842 0.06745 0.0
H1157 H 0.56724 0.6771 0.06235 0.0
H1158 H 0.62663 0.72018 0.10117 0.0
H1159 H 0.65347 0.71067 0.13176 0.0
H1160 H 0.68074 0.64138 0.16858 0.0
H1161 H 0.66843 0.60156 0.17141 0.0
H1162 H 0.68292 0.64833 0.07434 0.0
H1163 H 0.63615 0.60723 0.0496 0.0
H1164 H 0.59515 0.6644 0.19388 0.0
H1165 H 0.54322 0.63859 0.16004 0.0
C1166 C 0.69272 0.37334 0.36969 0.0
C1167 C 0.71257 0.36407 0.36322 0.0
C1168 C 0.70871 0.35177 0.34637 0.0
C1169 C 0.68684 0.35431 0.3435 0.0
N1170 N 0.67655 0.36785 0.3572 0.0
Co1171 Co 0.64468 0.37539 0.3594 0.0
N1172 N 0.63856 0.35546 0.33614 0.0
C1173 C 0.65318 0.34312 0.32503 0.0
C1174 C 0.6443 0.33192 0.3094 0.0
C1175 C 0.62274 0.33763 0.31033 0.0
C1176 C 0.6197 0.352 0.32663 0.0
N1177 N 0.61277 0.38271 0.36182 0.0
C1178 C 0.59636 0.37636 0.35009 0.0
C1179 C 0.57648 0.38522 0.35701 0.0
C1180 C 0.58052 0.39804 0.37341 0.0
C1181 C 0.60252 0.39618 0.37563 0.0
N1182 N 0.65084 0.39549 0.3825 0.0
C1183 C 0.63635 0.4085 0.39301 0.0
C1184 C 0.64522 0.41966 0.40869 0.0
C1185 C 0.66657 0.41315 0.40845 0.0
C1186 C 0.66954 0.39838 0.39249 0.0
N1187 N 0.64807 0.39876 0.33834 0.0
C1188 C 0.65026 0.43085 0.30699 0.0
C1189 C 0.63818 0.43426 0.32561 0.0
C1190 C 0.63736 0.41818 0.34094 0.0
C1191 C 0.66172 0.41132 0.30462 0.0
C1192 C 0.66045 0.39569 0.32034 0.0
N1193 N 0.64127 0.35205 0.3804 0.0
C1194 C 0.62854 0.33966 0.41448 0.0
C1195 C 0.63819 0.31942 0.41105 0.0
C1196 C 0.64914 0.31573 0.39187 0.0
C1197 C 0.65046 0.33211 0.3769 0.0
C1198 C 0.63023 0.35557 0.39908 0.0
H1199 H 0.65915 0.32829 0.36269 0.0
H1200 H 0.6227 0.37067 0.40277 0.0
H1201 H 0.62763 0.42173 0.35458 0.0
H1202 H 0.66942 0.38116 0.3174 0.0
C1203 C 0.6753 0.34318 0.329 0.0
C1204 C 0.68989 0.38623 0.38847 0.0
C1205 C 0.59889 0.36289 0.33168 0.0
C1206 C 0.61417 0.40797 0.38949 0.0
H1207 H 0.7281 0.36559 0.37035 0.0
H1208 H 0.72033 0.34165 0.33769 0.0
H1209 H 0.6526 0.32131 0.29826 0.0
H1210 H 0.61076 0.33222 0.29982 0.0
H1211 H 0.56074 0.38303 0.35052 0.0
H1212 H 0.5689 0.40799 0.38227 0.0
H1213 H 0.63692 0.43043 0.41968 0.0
H1214 H 0.67833 0.41816 0.41938 0.0
H1215 H 0.62887 0.44907 0.32816 0.0
H1216 H 0.67165 0.40805 0.29064 0.0
H1217 H 0.62007 0.34342 0.42918 0.0
H1218 H 0.6566 0.30021 0.3883 0.0
C1219 C 0.89136 0.44046 0.60766 0.0
C1220 C 0.90146 0.45677 0.59686 0.0
C1221 C 0.91622 0.44725 0.5832 0.0
C1222 C 0.91423 0.42577 0.58643 0.0
N1223 N 0.89887 0.42101 0.60113 0.0
Co1224 Co 0.89083 0.39194 0.6112 0.0
N1225 N 0.91408 0.37804 0.5929 0.0
C1226 C 0.92924 0.38769 0.58084 0.0
C1227 C 0.94237 0.37368 0.5694 0.0
C1228 C 0.9348 0.354 0.57409 0.0
C1229 C 0.91745 0.35723 0.58814 0.0
N1230 N 0.88237 0.36281 0.62073 0.0
C1231 C 0.88866 0.34356 0.6128 0.0
C1232 C 0.87775 0.32715 0.62259 0.0
C1233 C 0.86365 0.33644 0.63698 0.0
C1234 C 0.86671 0.35789 0.63505 0.0
N1235 N 0.86792 0.40584 0.62996 0.0
C1236 C 0.85399 0.39607 0.64335 0.0
C1237 C 0.84079 0.40993 0.65483 0.0
C1238 C 0.84695 0.42974 0.64873 0.0
C1239 C 0.86358 0.42676 0.63379 0.0
N1240 N 0.87006 0.39068 0.58815 0.0
C1241 C 0.84113 0.38713 0.55522 0.0
C1242 C 0.83429 0.38396 0.57605 0.0
C1243 C 0.84895 0.38565 0.59214 0.0
C1244 C 0.8626 0.39226 0.55112 0.0
C1245 C 0.87663 0.39412 0.56769 0.0
N1246 N 0.9117 0.39317 0.63429 0.0
C1247 C 0.92132 0.386 0.67033 0.0
C1248 C 0.94124 0.39533 0.667 0.0
C1249 C 0.94612 0.40362 0.64709 0.0
C1250 C 0.93131 0.40231 0.6311 0.0
C1251 C 0.90686 0.38522 0.65394 0.0
H1252 H 0.93616 0.40882 0.61631 0.0
H1253 H 0.89186 0.37819 0.65763 0.0
H1254 H 0.84289 0.38261 0.60766 0.0
H1255 H 0.89276 0.39821 0.56355 0.0
C1256 C 0.92825 0.40983 0.57788 0.0
C1257 C 0.87592 0.44417 0.625 0.0
C1258 C 0.90307 0.34051 0.59457 0.0
C1259 C 0.85402 0.37386 0.64511 0.0
H1260 H 0.89888 0.47375 0.59916 0.0
H1261 H 0.9277 0.45506 0.57286 0.0
H1262 H 0.95496 0.37744 0.55793 0.0
H1263 H 0.94055 0.33907 0.56718 0.0
H1264 H 0.87921 0.31033 0.61909 0.0
H1265 H 0.85185 0.3286 0.64693 0.0
H1266 H 0.82852 0.40609 0.66659 0.0
H1267 H 0.84036 0.44467 0.655 0.0
H1268 H 0.81779 0.37981 0.5799 0.0
H1269 H 0.8685 0.39508 0.53518 0.0
H1270 H 0.91673 0.37959 0.68561 0.0
H1271 H 0.96149 0.41082 0.64372 0.0
H1272 H 0.07594 0.3216 0.44847 0.0
H1273 H 0.07452 0.29337 0.47527 0.0
H1274 H 0.14105 0.27437 0.46043 0.0
H1275 H 0.14288 0.30291 0.43396 0.0
H1276 H 0.10787 0.24022 0.46295 0.0
H1277 H 0.10905 0.29329 0.53223 0.0
H1278 H 0.0904 0.30056 0.51188 0.0
H1279 H 0.11901 0.30134 0.50651 0.0
C1280 C 0.09037 0.31161 0.45109 0.0
C1281 C 0.10958 0.31459 0.43917 0.0
C1282 C 0.08947 0.29544 0.4663 0.0
C1283 C 0.10771 0.28197 0.46981 0.0
C1284 C 0.12681 0.28467 0.45785 0.0
H1285 H 0.14396 0.19271 0.5664 0.0
H1286 H 0.14108 0.22101 0.53984 0.0
C1287 C 0.12778 0.30091 0.4427 0.0
C1288 C 0.10691 0.265 0.48599 0.0
H1289 H 0.1061 0.25649 0.53899 0.0
C1290 C 0.10736 0.24371 0.47958 0.0
C1291 C 0.10636 0.26977 0.5076 0.0
C1292 C 0.1063 0.29245 0.51512 0.0
C1293 C 0.10734 0.22694 0.49435 0.0
C1294 C 0.10685 0.23171 0.51595 0.0
C1295 C 0.10633 0.253 0.52236 0.0
C1296 C 0.10813 0.21475 0.53214 0.0
C1297 C 0.10837 0.20422 0.48687 0.0
C1298 C 0.09043 0.20206 0.53663 0.0
C1299 C 0.0919 0.186 0.55201 0.0
C1300 C 0.11112 0.18243 0.56309 0.0
C1301 C 0.12878 0.19528 0.55846 0.0
C1302 C 0.12725 0.21136 0.5432 0.0
H1303 H 0.1113 0.20321 0.46962 0.0
H1304 H 0.12146 0.19484 0.49486 0.0
H1305 H 0.09282 0.19675 0.49094 0.0
H1306 H 0.07548 0.20465 0.52832 0.0
H1307 H 0.07792 0.17657 0.55537 0.0
H1308 H 0.91987 0.86489 0.71749 0.0
H1309 H 0.95036 0.85863 0.74071 0.0
H1310 H 0.99319 0.84674 0.68713 0.0
H1311 H 0.96265 0.8525 0.66369 0.0
H1312 H 0.97984 0.81794 0.74001 0.0
H1313 H 0.02069 0.89435 0.72467 0.0
H1314 H 0.9921 0.89195 0.72051 0.0
H1315 H 0.01169 0.87953 0.70278 0.0
C1316 C 0.93575 0.86088 0.71062 0.0
C1317 C 0.93886 0.85917 0.68876 0.0
C1318 C 0.95312 0.85738 0.7239 0.0
C1319 C 0.97391 0.85227 0.71556 0.0
C1320 C 0.97723 0.85083 0.69377 0.0
H1321 H 0.09034 0.84475 0.79064 0.0
H1322 H 0.06705 0.84219 0.76044 0.0
C1323 C 0.95982 0.85426 0.68044 0.0
C1324 C 0.99194 0.84815 0.72989 0.0
H1325 H 0.03515 0.87143 0.75061 0.0
C1326 C 0.99212 0.82948 0.74222 0.0
C1327 C 0.00797 0.86316 0.73244 0.0
C1328 C 0.00824 0.88346 0.71951 0.0
C1329 C 0.00763 0.82571 0.7576 0.0
C1330 C 0.02295 0.8413 0.761 0.0
C1331 C 0.02335 0.85952 0.74798 0.0
C1332 C 0.03739 0.84005 0.77912 0.0
C1333 C 0.00733 0.80518 0.77017 0.0
C1334 C 0.02842 0.83948 0.7996 0.0
C1335 C 0.04166 0.84077 0.81684 0.0
C1336 C 0.06411 0.8429 0.81392 0.0
C1337 C 0.07314 0.84286 0.7934 0.0
C1338 C 0.05987 0.84153 0.77614 0.0
H1339 H 0.00021 0.79231 0.76116 0.0
H1340 H 0.02388 0.79978 0.77481 0.0
H1341 H 0.99713 0.80771 0.78462 0.0
H1342 H 0.01107 0.83882 0.80226 0.0
H1343 H 0.03425 0.84056 0.83245 0.0
H1344 H 0.43116 0.79317 0.09405 0.0
H1345 H 0.43405 0.76572 0.06688 0.0
H1346 H 0.36535 0.77398 0.05699 0.0
H1347 H 0.36265 0.80181 0.08374 0.0
H1348 H 0.41453 0.72775 0.06465 0.0
H1349 H 0.39064 0.78016 0.99781 0.0
H1350 H 0.39765 0.79051 0.02288 0.0
H1351 H 0.37103 0.7809 0.01916 0.0
C1352 C 0.41678 0.78911 0.08592 0.0
C1353 C 0.39674 0.79958 0.09066 0.0
C1354 C 0.4184 0.77347 0.0705 0.0
C1355 C 0.39999 0.76811 0.05964 0.0
C1356 C 0.37985 0.77826 0.06479 0.0
H1357 H 0.38143 0.65429 0.98895 0.0
H1358 H 0.38232 0.68196 0.01549 0.0
C1359 C 0.37826 0.79397 0.08013 0.0
C1360 C 0.40177 0.75161 0.0432 0.0
H1361 H 0.39164 0.74272 0.99176 0.0
C1362 C 0.40966 0.73104 0.04868 0.0
C1363 C 0.39577 0.75604 0.02228 0.0
C1364 C 0.38851 0.77815 0.01509 0.0
C1365 C 0.41114 0.71461 0.03393 0.0
C1366 C 0.40411 0.71877 0.01329 0.0
C1367 C 0.39679 0.73949 0.00766 0.0
C1368 C 0.40392 0.70183 0.99735 0.0
C1369 C 0.42047 0.69302 0.04056 0.0
C1370 C 0.41531 0.70407 0.97811 0.0
C1371 C 0.41467 0.68836 0.96284 0.0
C1372 C 0.40258 0.67016 0.96654 0.0
C1373 C 0.39115 0.66799 0.9858 0.0
C1374 C 0.3917 0.68375 0.00099 0.0
H1375 H 0.43088 0.69416 0.05438 0.0
H1376 H 0.40702 0.68255 0.04502 0.0
H1377 H 0.4302 0.68536 0.02758 0.0
H1378 H 0.42478 0.71794 0.97495 0.0
H1379 H 0.4238 0.69035 0.94821 0.0
H1380 H 0.42455 0.17063 0.33376 0.0
H1381 H 0.45185 0.17129 0.30484 0.0
H1382 H 0.44163 0.10508 0.29272 0.0
H1383 H 0.4142 0.10458 0.32137 0.0
H1384 H 0.49013 0.14588 0.30116 0.0
H1385 H 0.43662 0.13304 0.23452 0.0
H1386 H 0.42624 0.14108 0.26011 0.0
H1387 H 0.43421 0.11365 0.25534 0.0
C1388 C 0.42806 0.15637 0.32467 0.0
C1389 C 0.41731 0.13763 0.32943 0.0
C1390 C 0.4436 0.15672 0.30828 0.0
C1391 C 0.44847 0.13833 0.29644 0.0
C1392 C 0.43775 0.11956 0.30134 0.0
H1393 H 0.54158 0.09992 0.199 0.0
H1394 H 0.51274 0.1023 0.22616 0.0
C1395 C 0.42224 0.11923 0.3177 0.0
C1396 C 0.46547 0.13844 0.27958 0.0
H1397 H 0.47466 0.12952 0.22729 0.0
C1398 C 0.48675 0.1425 0.28497 0.0
C1399 C 0.46096 0.13395 0.25851 0.0
C1400 C 0.43824 0.13038 0.25168 0.0
C1401 C 0.50379 0.14164 0.26991 0.0
C1402 C 0.49932 0.13692 0.24888 0.0
C1403 C 0.47801 0.13306 0.24346 0.0
C1404 C 0.51661 0.13569 0.23231 0.0
C1405 C 0.52653 0.14519 0.27673 0.0
C1406 C 0.52809 0.15376 0.22661 0.0
C1407 C 0.54451 0.15248 0.21107 0.0
C1408 C 0.54966 0.13311 0.20086 0.0
C1409 C 0.53789 0.11511 0.20643 0.0
C1410 C 0.52148 0.11641 0.22199 0.0
H1411 H 0.52794 0.14366 0.29403 0.0
H1412 H 0.53833 0.13366 0.26911 0.0
H1413 H 0.53105 0.16151 0.27197 0.0
H1414 H 0.52426 0.1689 0.2341 0.0
H1415 H 0.55297 0.16674 0.20686 0.0
H1416 H 0.08114 0.79229 0.92439 0.0
H1417 H 0.08048 0.76258 0.94997 0.0
H1418 H 0.13571 0.78716 0.98007 0.0
H1419 H 0.13611 0.81688 0.95471 0.0
H1420 H 0.11408 0.73282 0.95434 0.0
H1421 H 0.09572 0.77302 0.02995 0.0
H1422 H 0.09083 0.78587 0.0049 0.0
H1423 H 0.1176 0.78467 0.01535 0.0
C1424 C 0.09272 0.79149 0.93684 0.0
C1425 C 0.10855 0.80673 0.93791 0.0
C1426 C 0.09241 0.77459 0.95133 0.0
C1427 C 0.10786 0.77286 0.96706 0.0
C1428 C 0.12333 0.78848 0.96838 0.0
H1429 H 0.16417 0.66233 0.02898 0.0
H1430 H 0.155 0.69285 0.00582 0.0
C1431 C 0.12364 0.80534 0.95391 0.0
C1432 C 0.10931 0.7537 0.98077 0.0
H1433 H 0.11193 0.73759 0.032 0.0
C1434 C 0.11332 0.7338 0.97132 0.0
C1435 C 0.1081 0.75502 0.0029 0.0
C1436 C 0.1026 0.77577 0.01388 0.0
C1437 C 0.11702 0.71527 0.98344 0.0
C1438 C 0.1171 0.71681 0.00554 0.0
C1439 C 0.11218 0.73654 0.01502 0.0
C1440 C 0.12255 0.69818 0.01912 0.0
C1441 C 0.12085 0.69424 0.97247 0.0
C1442 C 0.10752 0.69141 0.03444 0.0
C1443 C 0.11282 0.67421 0.04766 0.0
C1444 C 0.13326 0.66366 0.04584 0.0
C1445 C 0.14832 0.67034 0.03054 0.0
C1446 C 0.14303 0.68759 0.01729 0.0
H1447 H 0.11418 0.69478 0.95646 0.0
H1448 H 0.13855 0.69054 0.9709 0.0
H1449 H 0.11338 0.6811 0.98156 0.0
H1450 H 0.09169 0.69945 0.03617 0.0
H1451 H 0.10106 0.66925 0.05945 0.0
H1452 H 0.57489 0.88033 0.33781 0.0
H1453 H 0.5497 0.86358 0.31481 0.0
H1454 H 0.56871 0.90586 0.2642 0.0
H1455 H 0.59435 0.92222 0.28718 0.0
H1456 H 0.51511 0.88048 0.29352 0.0
H1457 H 0.57788 0.84728 0.23786 0.0
H1458 H 0.58431 0.8575 0.26317 0.0
H1459 H 0.57984 0.87544 0.24129 0.0
C1460 C 0.57363 0.88596 0.32178 0.0
C1461 C 0.58671 0.90218 0.31402 0.0
C1462 C 0.5593 0.87643 0.30868 0.0
C1463 C 0.55781 0.88312 0.28768 0.0
C1464 C 0.57015 0.90005 0.2802 0.0
H1465 H 0.47787 0.87607 0.18546 0.0
H1466 H 0.50526 0.88094 0.21136 0.0
C1467 C 0.58461 0.90948 0.29329 0.0
C1468 C 0.54305 0.87269 0.27363 0.0
H1469 H 0.54125 0.84902 0.2259 0.0
C1470 C 0.52082 0.87324 0.27891 0.0
C1471 C 0.55066 0.86299 0.25475 0.0
C1472 C 0.57451 0.86054 0.24902 0.0
C1473 C 0.50582 0.86557 0.26511 0.0
C1474 C 0.51335 0.85711 0.24568 0.0
C1475 C 0.53563 0.85559 0.24084 0.0
C1476 C 0.49818 0.85241 0.22917 0.0
C1477 C 0.48194 0.86755 0.2708 0.0
C1478 C 0.48552 0.83443 0.23046 0.0
C1479 C 0.46995 0.83136 0.21542 0.0
C1480 C 0.46683 0.84631 0.19899 0.0
C1481 C 0.48008 0.86397 0.19758 0.0
C1482 C 0.49566 0.86691 0.21246 0.0
H1483 H 0.4787 0.87565 0.28603 0.0
H1484 H 0.47318 0.87664 0.25836 0.0
H1485 H 0.47525 0.85144 0.27186 0.0
H1486 H 0.48743 0.82304 0.24326 0.0
H1487 H 0.46019 0.81747 0.21682 0.0
H1488 H 0.32608 0.32805 0.56454 0.0
H1489 H 0.32819 0.30139 0.53657 0.0
H1490 H 0.39461 0.28531 0.5517 0.0
H1491 H 0.39227 0.31158 0.57995 0.0
H1492 H 0.35565 0.2981 0.50143 0.0
H1493 H 0.36722 0.22745 0.55393 0.0
H1494 H 0.35849 0.25339 0.56364 0.0
H1495 H 0.38663 0.24751 0.55717 0.0
C1496 C 0.34102 0.31866 0.56187 0.0
C1497 C 0.35892 0.32146 0.57442 0.0
C1498 C 0.34226 0.30355 0.54593 0.0
C1499 C 0.36142 0.2911 0.54233 0.0
C1500 C 0.37951 0.29438 0.55454 0.0
H1501 H 0.39868 0.19132 0.45334 0.0
H1502 H 0.39836 0.21918 0.47985 0.0
C1503 C 0.37824 0.30941 0.57053 0.0
C1504 C 0.36252 0.27479 0.52571 0.0
H1505 H 0.3711 0.22144 0.51734 0.0
C1506 C 0.35896 0.28133 0.5049 0.0
C1507 C 0.36686 0.25293 0.53031 0.0
C1508 C 0.36983 0.24482 0.55249 0.0
C1509 C 0.35985 0.26659 0.4885 0.0
C1510 C 0.36418 0.24476 0.49311 0.0
C1511 C 0.36787 0.23823 0.51388 0.0
C1512 C 0.36445 0.22833 0.47668 0.0
C1513 C 0.35646 0.2745 0.46633 0.0
C1514 C 0.34542 0.22416 0.4663 0.0
C1515 C 0.34548 0.20815 0.4513 0.0
C1516 C 0.36458 0.19595 0.44642 0.0
C1517 C 0.38364 0.20023 0.45688 0.0
C1518 C 0.38353 0.21621 0.47194 0.0
H1519 H 0.35841 0.29197 0.46479 0.0
H1520 H 0.36804 0.26622 0.45519 0.0
H1521 H 0.33979 0.27109 0.46173 0.0
H1522 H 0.33042 0.23306 0.47006 0.0
H1523 H 0.33043 0.20501 0.44387 0.0
H1524 H 0.04218 0.13969 0.66209 0.0
H1525 H 0.01421 0.14013 0.69035 0.0
H1526 H 0.05617 0.10003 0.72861 0.0
H1527 H 0.08386 0.09922 0.70014 0.0
H1528 H 0.01471 0.08624 0.72833 0.0
H1529 H 0.01402 0.17274 0.74511 0.0
H1530 H 0.00948 0.16695 0.71812 0.0
H1531 H 0.03514 0.15947 0.72932 0.0
C1532 C 0.0453 0.13103 0.67659 0.0
C1533 C 0.06496 0.11938 0.6791 0.0
C1534 C 0.02947 0.1314 0.69273 0.0
C1535 C 0.03325 0.12036 0.71169 0.0
C1536 C 0.05297 0.10872 0.71414 0.0
H1537 H 0.95868 0.13389 0.82877 0.0
H1538 H 0.98681 0.1338 0.80069 0.0
C1539 C 0.06873 0.10827 0.69797 0.0
C1540 C 0.01645 0.12041 0.72878 0.0
H1541 H 0.98608 0.15307 0.76162 0.0
C1542 C 0.00848 0.10084 0.73566 0.0
C1543 C 0.00857 0.13946 0.73849 0.0
C1544 C 0.01737 0.16084 0.73255 0.0
C1545 C 0.99262 0.09981 0.75183 0.0
C1546 C 0.98421 0.11891 0.76104 0.0
C1547 C 0.99239 0.13846 0.75436 0.0
C1548 C 0.96718 0.11894 0.77791 0.0
C1549 C 0.98534 0.07824 0.75915 0.0
C1550 C 0.9468 0.11082 0.77432 0.0
C1551 C 0.93087 0.11076 0.79035 0.0
C1552 C 0.93502 0.11906 0.81008 0.0
C1553 C 0.95526 0.12741 0.81362 0.0
C1554 C 0.97122 0.12739 0.79763 0.0
H1555 H 0.99731 0.06527 0.7546 0.0
H1556 H 0.98275 0.07772 0.77647 0.0
H1557 H 0.96977 0.07501 0.75182 0.0
H1558 H 0.9432 0.10462 0.75911 0.0
H1559 H 0.9153 0.10429 0.78739 0.0
H1560 H 0.16392 0.52471 0.13337 0.0
H1561 H 0.18954 0.49505 0.14173 0.0
H1562 H 0.24175 0.52975 0.11319 0.0
H1563 H 0.21635 0.55952 0.1052 0.0
H1564 H 0.21584 0.46961 0.1174 0.0
H1565 H 0.26531 0.51534 0.17024 0.0
H1566 H 0.23934 0.52539 0.16123 0.0
H1567 H 0.26339 0.52781 0.14484 0.0
C1568 C 0.18086 0.5259 0.1288 0.0
C1569 C 0.18823 0.54444 0.1188 0.0
C1570 C 0.19546 0.50902 0.13364 0.0
C1571 C 0.21762 0.51041 0.12852 0.0
C1572 C 0.22484 0.52861 0.11787 0.0
H1573 H 0.31739 0.41276 0.11203 0.0
H1574 H 0.28613 0.43786 0.10916 0.0
C1575 C 0.21032 0.54555 0.11323 0.0
C1576 C 0.23325 0.49277 0.13402 0.0
H1577 H 0.28144 0.48232 0.15769 0.0
C1578 C 0.23006 0.47231 0.12642 0.0
C1579 C 0.25152 0.49617 0.14622 0.0
C1580 C 0.25498 0.51732 0.1563 0.0
C1581 C 0.2452 0.45538 0.12987 0.0
C1582 C 0.26429 0.4592 0.14072 0.0
C1583 C 0.26695 0.47943 0.14914 0.0
C1584 C 0.28223 0.44287 0.14266 0.0
C1585 C 0.24053 0.43359 0.12186 0.0
C1586 C 0.29084 0.43777 0.16237 0.0
C1587 C 0.30898 0.42378 0.16394 0.0
C1588 C 0.31861 0.41459 0.14584 0.0
C1589 C 0.30994 0.41951 0.12618 0.0
C1590 C 0.29199 0.43366 0.12458 0.0
H1591 H 0.2228 0.43159 0.12088 0.0
H1592 H 0.24776 0.43172 0.10581 0.0
H1593 H 0.24747 0.42072 0.13209 0.0
H1594 H 0.28373 0.44489 0.17649 0.0
H1595 H 0.31573 0.42044 0.17919 0.0
H1596 H 0.84464 0.0249 0.84057 0.0
H1597 H 0.81803 0.99734 0.83839 0.0
H1598 H 0.76611 0.04541 0.84228 0.0
H1599 H 0.79251 0.07305 0.84495 0.0
H1600 H 0.7854 0.9926 0.87211 0.0
H1601 H 0.74961 0.00526 0.79359 0.0
H1602 H 0.77611 0.01419 0.79967 0.0
H1603 H 0.75219 0.02864 0.80919 0.0
C1604 C 0.82756 0.02964 0.84078 0.0
C1605 C 0.82069 0.05116 0.8431 0.0
C1606 C 0.81242 0.0139 0.83939 0.0
C1607 C 0.79018 0.01941 0.84004 0.0
C1608 C 0.78324 0.04092 0.8414 0.0
H1609 H 0.67323 0.94841 0.85212 0.0
H1610 H 0.69987 0.97588 0.84703 0.0
C1611 C 0.79837 0.05668 0.84289 0.0
C1612 C 0.77428 0.00255 0.84168 0.0
H1613 H 0.7326 0.9808 0.81672 0.0
C1614 C 0.77394 0.98988 0.85995 0.0
C1615 C 0.75924 -0.00065 0.82589 0.0
C1616 C 0.75928 0.01245 0.80587 0.0
C1617 C 0.7587 0.97417 0.86304 0.0
C1618 C 0.74381 0.97071 0.84712 0.0
C1619 C 0.74411 0.98345 0.82883 0.0
C1620 C 0.72775 0.95397 0.84932 0.0
C1621 C 0.75833 0.96186 0.88356 0.0
C1622 C 0.73463 0.93253 0.85192 0.0
C1623 C 0.7195 0.91687 0.85515 0.0
C1624 C 0.69715 0.92231 0.85557 0.0
C1625 C 0.69031 0.94374 0.8523 0.0
C1626 C 0.70549 0.95943 0.84918 0.0
H1627 H 0.76646 0.97039 0.89607 0.0
H1628 H 0.74146 0.95896 0.88898 0.0
H1629 H 0.76708 0.94621 0.88136 0.0
H1630 H 0.75174 0.92794 0.85168 0.0
H1631 H 0.72535 0.90057 0.85776 0.0
H1632 H 0.82547 0.08698 0.35288 0.0
H1633 H 0.7976 0.06032 0.35297 0.0
H1634 H 0.79379 0.06156 0.42069 0.0
H1635 H 0.8211 0.08887 0.42048 0.0
H1636 H 0.7978 0.02088 0.36934 0.0
H1637 H 0.73078 0.0699 0.40656 0.0
H1638 H 0.75564 0.08114 0.397 0.0
H1639 H 0.75455 0.06763 0.42208 0.0
C1640 C 0.81855 0.08155 0.36772 0.0
C1641 C 0.82529 0.08981 0.38667 0.0
C1642 C 0.80271 0.06636 0.3678 0.0
C1643 C 0.79337 0.05917 0.38682 0.0
C1644 C 0.80038 0.06722 0.40581 0.0
H1645 H 0.72147 0.94283 0.3972 0.0
H1646 H 0.74846 0.97 0.39986 0.0
C1647 C 0.81609 0.0826 0.40572 0.0
C1648 C 0.77667 0.04291 0.38668 0.0
H1649 H 0.72466 0.0331 0.40234 0.0
C1650 C 0.78179 0.02356 0.37653 0.0
C1651 C 0.75568 0.04656 0.39579 0.0
C1652 C 0.74872 0.06751 0.40579 0.0
C1653 C 0.76657 0.00772 0.37531 0.0
C1654 C 0.74583 0.01107 0.38506 0.0
C1655 C 0.74064 0.03047 0.39509 0.0
C1656 C 0.7291 0.99486 0.3845 0.0
C1657 C 0.7727 0.98782 0.36309 0.0
C1658 C 0.70889 5e-05 0.37579 0.0
C1659 C 0.69334 0.98464 0.37454 0.0
C1660 C 0.69777 0.96374 0.38189 0.0
C1661 C 0.7178 0.95872 0.39107 0.0
C1662 C 0.73324 0.9742 0.39253 0.0
H1663 H 0.78642 0.9904 0.3518 0.0
H1664 H 0.77785 0.9749 0.37415 0.0
H1665 H 0.75876 0.98239 0.35428 0.0
H1666 H 0.70532 0.01592 0.36958 0.0
H1667 H 0.67808 0.98892 0.36731 0.0
H1668 H 0.67943 0.08135 0.11033 0.0
H1669 H 0.70939 0.05503 0.1039 0.0
H1670 H 0.70272 0.03218 0.16785 0.0
H1671 H 0.67249 0.05836 0.17415 0.0
H1672 H 0.74902 0.04884 0.12406 0.0
H1673 H 0.69824 0.9782 0.13266 0.0
H1674 H 0.68678 0.00497 0.12956 0.0
H1675 H 0.69644 0.9959 0.1546 0.0
C1676 C 0.68451 0.07071 0.12297 0.0
C1677 C 0.6739 0.07171 0.14271 0.0
C1678 C 0.70155 0.05576 0.11932 0.0
C1679 C 0.70806 0.04152 0.13533 0.0
C1680 C 0.69769 0.04282 0.15522 0.0
H1681 H 0.82562 0.96047 0.13728 0.0
H1682 H 0.79712 0.98838 0.14349 0.0
C1683 C 0.68062 0.0578 0.15886 0.0
C1684 C 0.72556 0.02518 0.13106 0.0
H1685 H 0.7362 0.97144 0.12903 0.0
C1686 C 0.74626 0.03191 0.12513 0.0
C1687 C 0.72176 0.00314 0.13215 0.0
C1688 C 0.69957 0.99505 0.13739 0.0
C1689 C 0.76339 0.01712 0.12056 0.0
C1690 C 0.75973 0.99508 0.12225 0.0
C1691 C 0.73897 0.98837 0.12789 0.0
C1692 C 0.77722 0.97866 0.1182 0.0
C1693 C 0.78513 0.02522 0.1136 0.0
C1694 C 0.77525 0.96376 0.10222 0.0
C1695 C 0.79141 0.94782 0.09878 0.0
C1696 C 0.8097 0.94659 0.11132 0.0
C1697 C 0.81167 0.9614 0.12734 0.0
C1698 C 0.79551 0.97732 0.1308 0.0
H1699 H 0.78376 0.04201 0.10788 0.0
H1700 H 0.79608 0.02455 0.12711 0.0
H1701 H 0.79271 0.0152 0.10093 0.0
H1702 H 0.76118 0.96446 0.09244 0.0
H1703 H 0.78961 0.93635 0.08648 0.0
H1704 H 0.17313 0.57961 0.60736 0.0
H1705 H 0.20072 0.55029 0.60469 0.0
H1706 H 0.18208 0.52843 0.66687 0.0
H1707 H 0.15427 0.5576 0.66936 0.0
H1708 H 0.23577 0.54167 0.63083 0.0
H1709 H 0.18018 0.47454 0.63139 0.0
H1710 H 0.17104 0.50184 0.62659 0.0
H1711 H 0.17572 0.4925 0.65293 0.0
C1712 C 0.17498 0.56843 0.62037 0.0
C1713 C 0.16182 0.57067 0.63857 0.0
C1714 C 0.19066 0.55178 0.61886 0.0
C1715 C 0.19323 0.53707 0.63548 0.0
C1716 C 0.18008 0.5394 0.65374 0.0
H1717 H 0.28076 0.43012 0.66214 0.0
H1718 H 0.25258 0.45868 0.66249 0.0
C1719 C 0.16437 0.55606 0.65523 0.0
C1720 C 0.21009 0.51964 0.6339 0.0
H1721 H 0.2177 0.46547 0.63469 0.0
C1722 C 0.23185 0.525 0.63154 0.0
C1723 C 0.20485 0.49795 0.6348 0.0
C1724 C 0.18167 0.49129 0.63637 0.0
C1725 C 0.24861 0.5092 0.63056 0.0
C1726 C 0.24338 0.48751 0.63168 0.0
C1727 C 0.22161 0.48214 0.63387 0.0
C1728 C 0.26032 0.47011 0.63111 0.0
C1729 C 0.27179 0.51583 0.62891 0.0
C1730 C 0.2738 0.46696 0.61322 0.0
C1731 C 0.28987 0.45057 0.61291 0.0
C1732 C 0.29262 0.43698 0.63047 0.0
C1733 C 0.27888 0.44011 0.64826 0.0
C1734 C 0.26285 0.45647 0.64854 0.0
H1735 H 0.27324 0.53286 0.63294 0.0
H1736 H 0.28222 0.50587 0.63943 0.0
H1737 H 0.27805 0.51358 0.61256 0.0
H1738 H 0.27181 0.47709 0.59946 0.0
H1739 H 0.29997 0.44838 0.59886 0.0
H1740 H 0.16509 0.44034 0.35207 0.0
H1741 H 0.19374 0.46619 0.35291 0.0
H1742 H 0.20488 0.44929 0.41769 0.0
H1743 H 0.17642 0.42313 0.41667 0.0
H1744 H 0.19609 0.50135 0.37893 0.0
H1745 H 0.2657 0.44363 0.39036 0.0
H1746 H 0.23958 0.43553 0.38225 0.0
H1747 H 0.24373 0.44152 0.40928 0.0
C1748 C 0.17377 0.44219 0.36642 0.0
C1749 C 0.16871 0.42995 0.38432 0.0
C1750 C 0.19004 0.4569 0.36691 0.0
C1751 C 0.20159 0.45947 0.38529 0.0
C1752 C 0.19642 0.44728 0.40326 0.0
H1753 H 0.30521 0.54446 0.41235 0.0
H1754 H 0.27691 0.51833 0.41507 0.0
C1755 C 0.18014 0.43252 0.40274 0.0
C1756 C 0.21872 0.47524 0.38562 0.0
H1757 H 0.27307 0.48027 0.39124 0.0
C1758 C 0.21293 0.49675 0.38162 0.0
C1759 C 0.24064 0.46918 0.38922 0.0
C1760 C 0.24791 0.4462 0.39285 0.0
C1761 C 0.22848 0.51239 0.38111 0.0
C1762 C 0.25044 0.50629 0.38438 0.0
C1763 C 0.2562 0.48485 0.38874 0.0
C1764 C 0.26773 0.52186 0.38268 0.0
C1765 C 0.22127 0.53534 0.37723 0.0
C1766 C 0.27216 0.53219 0.36348 0.0
C1767 C 0.28837 0.54698 0.36182 0.0
C1768 C 0.30055 0.5517 0.37934 0.0
C1769 C 0.29628 0.54105 0.39851 0.0
C1770 C 0.28005 0.52621 0.40013 0.0
H1771 H 0.20358 0.53809 0.38039 0.0
H1772 H 0.23016 0.54619 0.38718 0.0
H1773 H 0.22475 0.53959 0.36055 0.0
H1774 H 0.26313 0.5287 0.34971 0.0
H1775 H 0.29152 0.55456 0.34673 0.0
H1776 H 0.34746 0.56175 0.86737 0.0
H1777 H 0.3181 0.54012 0.85547 0.0
H1778 H 0.28074 0.55558 0.91195 0.0
H1779 H 0.31003 0.57745 0.92366 0.0
H1780 H 0.30094 0.50486 0.87557 0.0
H1781 H 0.23778 0.5693 0.86545 0.0
H1782 H 0.26612 0.57451 0.86782 0.0
H1783 H 0.2496 0.56915 0.89085 0.0
C1784 C 0.33287 0.56053 0.8771 0.0
C1785 C 0.33076 0.57108 0.89635 0.0
C1786 C 0.31619 0.54825 0.87034 0.0
C1787 C 0.29714 0.54655 0.88268 0.0
C1788 C 0.29512 0.55707 0.90201 0.0
H1789 H 0.18557 0.47364 0.89273 0.0
H1790 H 0.21451 0.49858 0.89482 0.0
C1791 C 0.31182 0.56936 0.90876 0.0
C1792 C 0.27975 0.53302 0.87586 0.0
H1793 H 0.22562 0.53357 0.86658 0.0
C1794 C 0.28453 0.51114 0.87328 0.0
C1795 C 0.25844 0.54135 0.87277 0.0
C1796 C 0.25268 0.5649 0.87415 0.0
C1797 C 0.26825 0.49715 0.86875 0.0
C1798 C 0.24677 0.50539 0.86652 0.0
C1799 C 0.24214 0.52736 0.86835 0.0
C1800 C 0.22858 0.49121 0.86417 0.0
C1801 C 0.27392 0.47358 0.86736 0.0
C1802 C 0.22673 0.47911 0.84603 0.0
C1803 C 0.21002 0.4649 0.84468 0.0
C1804 C 0.1949 0.46266 0.86144 0.0
C1805 C 0.19664 0.47522 0.87937 0.0
C1806 C 0.21326 0.48941 0.88067 0.0
H1807 H 0.2906 0.4695 0.87261 0.0
H1808 H 0.26229 0.46435 0.87706 0.0
H1809 H 0.27279 0.46848 0.85085 0.0
H1810 H 0.2383 0.48053 0.83304 0.0
H1811 H 0.20897 0.45564 0.83056 0.0
H1812 H 0.62639 0.79142 0.91243 0.0
H1813 H 0.61857 0.76392 0.93894 0.0
H1814 H 0.6601 0.7939 0.982 0.0
H1815 H 0.66875 0.82074 0.95505 0.0
H1816 H 0.66541 0.75169 0.98427 0.0
H1817 H 0.57738 0.77378 0.98785 0.0
H1818 H 0.5871 0.76518 0.96244 0.0
H1819 H 0.59661 0.78932 0.97317 0.0
C1820 C 0.63399 0.7919 0.92752 0.0
C1821 C 0.64783 0.80827 0.93199 0.0
C1822 C 0.62936 0.77636 0.94269 0.0
C1823 C 0.63826 0.7772 0.96267 0.0
C1824 C 0.65287 0.79307 0.96678 0.0
H1825 H 0.59208 0.72592 0.08056 0.0
H1826 H 0.60051 0.74725 0.04902 0.0
C1827 C 0.65771 0.80844 0.95149 0.0
C1828 C 0.63216 0.76187 0.97952 0.0
H1829 H 0.58909 0.74424 0.00867 0.0
C1830 C 0.64872 0.75002 0.98959 0.0
C1831 C 0.61036 0.75985 0.98654 0.0
C1832 C 0.59186 0.77285 0.97708 0.0
C1833 C 0.64416 0.73645 0.00668 0.0
C1834 C 0.62236 0.73427 0.01355 0.0
C1835 C 0.60577 0.74586 0.00329 0.0
C1836 C 0.61652 0.72102 0.03212 0.0
C1837 C 0.66283 0.72523 0.01769 0.0
C1838 C 0.62228 0.69914 0.03288 0.0
C1839 C 0.61775 0.68711 0.05096 0.0
C1840 C 0.60718 0.69674 0.06839 0.0
C1841 C 0.60055 0.71835 0.06734 0.0
C1842 C 0.60526 0.73043 0.04935 0.0
H1843 H 0.67843 0.73281 0.01399 0.0
H1844 H 0.66002 0.72518 0.03498 0.0
H1845 H 0.66447 0.70844 0.01246 0.0
H1846 H 0.63044 0.69141 0.01958 0.0
H1847 H 0.62278 0.67035 0.05148 0.0
H1848 H 0.58409 0.39481 0.30619 0.0
H1849 H 0.55414 0.39421 0.28176 0.0
H1850 H 0.54374 0.32873 0.29936 0.0
H1851 H 0.57339 0.32958 0.32419 0.0
H1852 H 0.55037 0.36852 0.24773 0.0
H1853 H 0.48304 0.35613 0.30566 0.0
H1854 H 0.50944 0.36393 0.31325 0.0
H1855 H 0.50505 0.33659 0.30726 0.0
C1856 C 0.57526 0.38038 0.30484 0.0
C1857 C 0.58088 0.36223 0.31688 0.0
C1858 C 0.55824 0.38002 0.29094 0.0
C1859 C 0.54654 0.36151 0.28895 0.0
C1860 C 0.55226 0.3433 0.30096 0.0
H1861 H 0.44489 0.32922 0.20477 0.0
H1862 H 0.47317 0.32842 0.23091 0.0
C1863 C 0.56924 0.34371 0.31496 0.0
C1864 C 0.52884 0.36117 0.27378 0.0
H1865 H 0.47463 0.35401 0.26965 0.0
C1866 C 0.5338 0.36541 0.25253 0.0
C1867 C 0.50724 0.35709 0.2801 0.0
C1868 C 0.50077 0.35337 0.30283 0.0
C1869 C 0.51777 0.36554 0.2374 0.0
C1870 C 0.49621 0.3615 0.24373 0.0
C1871 C 0.49123 0.35706 0.26491 0.0
C1872 C 0.47855 0.36217 0.22854 0.0
C1873 C 0.52402 0.36975 0.2147 0.0
C1874 C 0.472 0.3815 0.2189 0.0
C1875 C 0.45573 0.38208 0.20413 0.0
C1876 C 0.4457 0.36331 0.19871 0.0
C1877 C 0.45208 0.34401 0.20873 0.0
C1878 C 0.46831 0.34348 0.22358 0.0
H1879 H 0.54184 0.36813 0.21182 0.0
H1880 H 0.51604 0.35863 0.20429 0.0
H1881 H 0.51855 0.38624 0.21031 0.0
H1882 H 0.47951 0.39615 0.2228 0.0
H1883 H 0.45093 0.39727 0.19703 0.0
H1884 H 0.88141 0.34484 0.55851 0.0
H1885 H 0.87434 0.317 0.53326 0.0
H1886 H 0.90869 0.27047 0.5718 0.0
H1887 H 0.91567 0.29841 0.59713 0.0
H1888 H 0.90584 0.29135 0.51141 0.0
H1889 H 0.85036 0.24299 0.5608 0.0
H1890 H 0.85626 0.27007 0.567 0.0
H1891 H 0.8755 0.24863 0.57265 0.0
C1892 C 0.88735 0.32862 0.56152 0.0
C1893 C 0.89896 0.32353 0.57961 0.0
C1894 C 0.8833 0.31279 0.5472 0.0
C1895 C 0.89073 0.29167 0.55087 0.0
C1896 C 0.90246 0.28661 0.56894 0.0
H1897 H 0.91016 0.19104 0.46112 0.0
H1898 H 0.91315 0.21698 0.48897 0.0
C1899 C 0.90654 0.30248 0.58328 0.0
C1900 C 0.88706 0.27518 0.53523 0.0
H1901 H 0.86263 0.22818 0.52817 0.0
C1902 C 0.89634 0.27757 0.51503 0.0
C1903 C 0.87444 0.2574 0.54001 0.0
C1904 C 0.86338 0.25462 0.56123 0.0
C1905 C 0.89371 0.26237 0.49955 0.0
C1906 C 0.88169 0.24425 0.50451 0.0
C1907 C 0.87199 0.24205 0.52455 0.0
C1908 C 0.8793 0.22734 0.48902 0.0
C1909 C 0.90371 0.26585 0.47794 0.0
C1910 C 0.85911 0.2242 0.48035 0.0
C1911 C 0.85729 0.20928 0.46449 0.0
C1912 C 0.87564 0.19719 0.45723 0.0
C1913 C 0.89568 0.19992 0.46653 0.0
C1914 C 0.89748 0.21485 0.4823 0.0
H1915 H 0.90825 0.28263 0.47536 0.0
H1916 H 0.9186 0.25542 0.47609 0.0
H1917 H 0.89237 0.26162 0.46561 0.0
H1918 H 0.8449 0.23368 0.48547 0.0
H1919 H 0.84161 0.20737 0.45776 0.0
H1920 H 0.9086 0.69604 0.81275 0.0
H1921 H 0.93745 0.69415 0.78526 0.0
H1922 H 0.91811 0.63143 0.76881 0.0
H1923 H 0.8892 0.63353 0.79597 0.0
H1924 H 0.97133 0.6638 0.78391 0.0
H1925 H 0.92386 0.66076 0.71162 0.0
H1926 H 0.91195 0.66932 0.73649 0.0
H1927 H 0.91636 0.64138 0.73118 0.0
C1928 C 0.91038 0.68211 0.80291 0.0
C1929 C 0.8968 0.665 0.80614 0.0
C1930 C 0.92678 0.68099 0.78733 0.0
C1931 C 0.92968 0.66278 0.7748 0.0
C1932 C 0.91584 0.64582 0.77793 0.0
H1933 H 0.0265 0.61156 0.68662 0.0
H1934 H 0.99506 0.61823 0.71034 0.0
C1935 C 0.89947 0.64695 0.79347 0.0
C1936 C 0.94822 0.66072 0.75963 0.0
H1937 H 0.96162 0.65097 0.7082 0.0
C1938 C 0.96923 0.66124 0.76731 0.0
C1939 C 0.94537 0.65723 0.73803 0.0
C1940 C 0.92317 0.65733 0.72877 0.0
C1941 C 0.98754 0.65779 0.75407 0.0
C1942 C 0.9847 0.65407 0.73251 0.0
C1943 C 0.96369 0.65377 0.72476 0.0
C1944 C 0.00339 0.65031 0.71781 0.0
C1945 C 0.00975 0.6575 0.76336 0.0
C1946 C 0.01824 0.66627 0.71396 0.0
C1947 C 0.03615 0.66252 0.70046 0.0
C1948 C 0.03948 0.64278 0.69045 0.0
C1949 C 0.02433 0.62696 0.69403 0.0
C1950 C 0.00641 0.63072 0.70759 0.0
H1951 H 0.00895 0.65553 0.78071 0.0
H1952 H 0.02035 0.64442 0.75665 0.0
H1953 H 0.01737 0.67282 0.7596 0.0
H1954 H 0.01592 0.68166 0.72137 0.0
H1955 H 0.04727 0.67519 0.69765 0.0
H1956 H 0.6036 0.30993 0.43691 0.0
H1957 H 0.60219 0.28252 0.4645 0.0
H1958 H 0.66841 0.26247 0.44937 0.0
H1959 H 0.67026 0.29035 0.42231 0.0
H1960 H 0.60799 0.23894 0.46131 0.0
H1961 H 0.66941 0.27119 0.51257 0.0
H1962 H 0.65744 0.28653 0.49138 0.0
H1963 H 0.67901 0.26702 0.48603 0.0
C1964 C 0.61796 0.29988 0.43962 0.0
C1965 C 0.63708 0.30242 0.42747 0.0
C1966 C 0.61708 0.28413 0.4553 0.0
C1967 C 0.6353 0.27069 0.45918 0.0
C1968 C 0.6543 0.27294 0.44689 0.0
H1969 H 0.63732 0.15002 0.52744 0.0
H1970 H 0.63847 0.17834 0.5007 0.0
C1971 C 0.65522 0.28871 0.43125 0.0
C1972 C 0.63427 0.25402 0.47582 0.0
H1973 H 0.65786 0.23636 0.52099 0.0
C1974 C 0.61883 0.2384 0.47441 0.0
C1975 C 0.64823 0.25355 0.49304 0.0
C1976 C 0.66432 0.27058 0.49602 0.0
C1977 C 0.61723 0.22207 0.48957 0.0
C1978 C 0.63175 0.22113 0.50635 0.0
C1979 C 0.64691 0.23698 0.50797 0.0
C1980 C 0.6313 0.20397 0.52252 0.0
C1981 C 0.59978 0.20618 0.48765 0.0
C1982 C 0.62751 0.20904 0.54372 0.0
C1983 C 0.62698 0.19292 0.55904 0.0
C1984 C 0.63027 0.17141 0.55342 0.0
C1985 C 0.63437 0.16641 0.5322 0.0
C1986 C 0.63499 0.18256 0.51691 0.0
H1987 H 0.58656 0.21239 0.47748 0.0
H1988 H 0.60695 0.19138 0.4805 0.0
H1989 H 0.59265 0.202 0.50329 0.0
H1990 H 0.62469 0.22548 0.54839 0.0
H1991 H 0.62357 0.19726 0.57523 0.0
H1992 H 0.10001 0.41669 0.79143 0.0
H1993 H 0.07343 0.4172 0.76339 0.0
H1994 H 0.03012 0.38165 0.8034 0.0
H1995 H 0.05677 0.38095 0.83132 0.0
H1996 H 0.05431 0.37894 0.74526 0.0
H1997 H 0.99408 0.43632 0.78237 0.0
H1998 H 0.02219 0.43446 0.78955 0.0
H1999 H 0.00397 0.41466 0.79876 0.0
C2000 C 0.0848 0.40898 0.7941 0.0
C2001 C 0.08031 0.3987 0.81332 0.0
C2002 C 0.0697 0.40929 0.77819 0.0
C2003 C 0.04981 0.3996 0.78146 0.0
C2004 C 0.0453 0.38939 0.80071 0.0
H2005 H 0.95329 0.36357 0.69456 0.0
H2006 H 0.97989 0.36492 0.72225 0.0
C2007 C 0.06046 0.38894 0.81655 0.0
C2008 C 0.0339 0.3998 0.76459 0.0
H2009 H 0.98365 0.41949 0.75142 0.0
C2010 C 0.03888 0.38783 0.74654 0.0
C2011 C 0.01391 0.41156 0.76634 0.0
C2012 C 0.00816 0.42514 0.78521 0.0
C2013 C 0.02412 0.38698 0.73028 0.0
C2014 C 0.00393 0.39836 0.73224 0.0
C2015 C 0.99912 0.41067 0.7501 0.0
C2016 C 0.98761 0.39768 0.7158 0.0
C2017 C 0.0302 0.37404 0.71106 0.0
C2018 C 0.98299 0.41577 0.70331 0.0
C2019 C 0.96787 0.41504 0.68749 0.0
C2020 C 0.95694 0.39626 0.68409 0.0
C2021 C 0.96135 0.37829 0.69692 0.0
C2022 C 0.97662 0.37898 0.71262 0.0
H2023 H 0.04774 0.36929 0.71033 0.0
H2024 H 0.02083 0.35935 0.71135 0.0
H2025 H 0.02608 0.3832 0.69658 0.0
H2026 H 0.99127 0.43037 0.70567 0.0
H2027 H 0.9646 0.42921 0.678 0.0
H2028 H 0.82377 0.67397 0.94987 0.0
H2029 H 0.82179 0.6981 0.97981 0.0
H2030 H 0.81887 0.7522 0.93744 0.0
H2031 H 0.82146 0.72839 0.90749 0.0
H2032 H 0.85305 0.73041 0.98584 0.0
H2033 H 0.76889 0.76457 0.98166 0.0
H2034 H 0.77751 0.73958 0.96966 0.0
H2035 H 0.78392 0.7644 0.95708 0.0
C2036 C 0.8227 0.69101 0.94692 0.0
C2037 C 0.82283 0.69924 0.92625 0.0
C2038 C 0.82139 0.70473 0.96404 0.0
C2039 C 0.81988 0.72687 0.96078 0.0
C2040 C 0.81954 0.73513 0.94025 0.0
H2041 H 0.83059 0.84404 0.02376 0.0
H2042 H 0.82311 0.81466 0.00071 0.0
C2043 C 0.821 0.72147 0.92314 0.0
C2044 C 0.82064 0.74151 0.97866 0.0
H2045 H 0.79315 0.78325 0.00254 0.0
C2046 C 0.83985 0.74176 0.98979 0.0
C2047 C 0.8034 0.75629 0.98359 0.0
C2048 C 0.78217 0.75615 0.97251 0.0
C2049 C 0.84275 0.75716 0.00506 0.0
C2050 C 0.8257 0.77234 0.00964 0.0
C2051 C 0.80618 0.7716 -0.001 0.0
C2052 C 0.82846 0.79003 0.02431 0.0
C2053 C 0.86444 0.7577 0.01531 0.0
C2054 C 0.83338 0.78595 0.04537 0.0
C2055 C 0.83803 0.80268 0.0585 0.0
C2056 C 0.83758 0.82384 0.05086 0.0
C2057 C 0.83156 0.82791 0.03002 0.0
C2058 C 0.82707 0.81116 0.01688 0.0
H2059 H 0.87724 0.74817 0.00658 0.0
H2060 H 0.86971 0.77432 0.01643 0.0
H2061 H 0.86305 0.75093 0.03145 0.0
H2062 H 0.83411 0.76978 0.05153 0.0
H2063 H 0.84271 0.79893 0.07442 0.0
H2064 H 0.43545 0.62694 0.34157 0.0
H2065 H 0.46685 0.63777 0.32024 0.0
H2066 H 0.44661 0.59925 0.26939 0.0
H2067 H 0.41567 0.5878 0.2911 0.0
H2068 H 0.48984 0.59492 0.27523 0.0
H2069 H 0.46404 0.68085 0.2726 0.0
H2070 H 0.46756 0.66991 0.2985 0.0
H2071 H 0.44646 0.66062 0.28257 0.0
C2072 C 0.43787 0.62075 0.32587 0.0
C2073 C 0.42311 0.60687 0.31772 0.0
C2074 C 0.45564 0.62706 0.31367 0.0
C2075 C 0.45876 0.61971 0.29307 0.0
C2076 C 0.44436 0.60526 0.28519 0.0
H2077 H 0.52415 0.66343 0.18339 0.0
H2078 H 0.49986 0.65746 0.21363 0.0
C2079 C 0.42669 0.59883 0.29747 0.0
C2080 C 0.47693 0.627 0.27956 0.0
H2081 H 0.49718 0.67097 0.25522 0.0
C2082 C 0.49156 0.61156 0.27096 0.0
C2083 C 0.47903 0.64874 0.27402 0.0
C2084 C 0.46335 0.666 0.28224 0.0
C2085 C 0.5079 0.61714 0.25645 0.0
C2086 C 0.50992 0.63885 0.25077 0.0
C2087 C 0.49566 0.65439 0.2598 0.0
C2088 C 0.52523 0.64535 0.23385 0.0
C2089 C 0.52215 0.59964 0.24657 0.0
C2090 C 0.54763 0.64133 0.23552 0.0
C2091 C 0.56154 0.64447 0.21817 0.0
C2092 C 0.55322 0.65184 0.19894 0.0
C2093 C 0.53097 0.65732 0.19785 0.0
C2094 C 0.5171 0.65409 0.21515 0.0
H2095 H 0.51562 0.58363 0.24951 0.0
H2096 H 0.52395 0.60224 0.22935 0.0
H2097 H 0.53851 0.59969 0.25331 0.0
H2098 H 0.55424 0.63495 0.24997 0.0
H2099 H 0.57859 0.64004 0.2195 0.0
H2100 H 0.81018 0.92839 0.67179 0.0
H2101 H 0.7796 0.95441 0.66765 0.0
H2102 H 0.77232 0.93345 0.60413 0.0
H2103 H 0.80257 0.90727 0.60845 0.0
H2104 H 0.77817 0.98736 0.6387 0.0
H2105 H 0.71011 0.93433 0.62756 0.0
H2106 H 0.73562 0.92487 0.63815 0.0
H2107 H 0.73306 0.92861 0.6103 0.0
C2108 C 0.80168 0.92916 0.65715 0.0
C2109 C 0.80834 0.91586 0.6405 0.0
C2110 C 0.78435 0.94399 0.65476 0.0
C2111 C 0.7735 0.94561 0.63569 0.0
C2112 C 0.78011 0.93211 0.61912 0.0
H2113 H 0.70114 0.05558 0.5866 0.0
H2114 H 0.72715 0.02549 0.59274 0.0
C2115 C 0.7974 0.9173 0.62153 0.0
C2116 C 0.75638 0.96249 0.63254 0.0
H2117 H 0.70375 0.97111 0.61854 0.0
C2118 C 0.76185 0.98381 0.63444 0.0
C2119 C 0.73507 0.95778 0.62715 0.0
C2120 C 0.72801 0.93515 0.62586 0.0
C2121 C 0.74672 0.00061 0.63063 0.0
C2122 C 0.72569 0.99592 0.62441 0.0
C2123 C 0.72001 0.97461 0.62302 0.0
C2124 C 0.7093 0.01304 0.61964 0.0
C2125 C 0.75332 0.02324 0.63345 0.0
C2126 C 0.69039 0.01546 0.63227 0.0
C2127 C 0.67558 0.03248 0.62868 0.0
C2128 C 0.67949 0.04713 0.61236 0.0
C2129 C 0.69798 0.04434 0.59926 0.0
C2130 C 0.7128 0.02733 0.60285 0.0
H2131 H 0.76796 0.02393 0.64309 0.0
H2132 H 0.7571 0.03043 0.61783 0.0
H2133 H 0.73997 0.03306 0.64102 0.0
H2134 H 0.6874 0.00455 0.64525 0.0
H2135 H 0.66135 0.03453 0.63894 0.0
H2136 H 0.13131 0.56832 0.1593 0.0
H2137 H 0.13087 0.54067 0.18694 0.0
H2138 H 0.07363 0.57156 0.21524 0.0
H2139 H 0.07399 0.59911 0.18737 0.0
H2140 H 0.13265 0.54524 0.23069 0.0
H2141 H 0.05641 0.50951 0.20723 0.0
H2142 H 0.07117 0.52744 0.19031 0.0
H2143 H 0.0543 0.53775 0.21159 0.0
C2144 C 0.11873 0.56912 0.17152 0.0
C2145 C 0.10265 0.58557 0.17144 0.0
C2146 C 0.11846 0.55342 0.18721 0.0
C2147 C 0.10206 0.55397 0.20292 0.0
C2148 C 0.08619 0.5707 0.20303 0.0
H2149 H 0.10209 0.48122 0.31963 0.0
H2150 H 0.10168 0.50942 0.29277 0.0
C2151 C 0.08645 0.58642 0.18729 0.0
C2152 C 0.1017 0.53703 0.21922 0.0
H2153 H 0.07182 0.49643 0.23877 0.0
C2154 C 0.11937 0.53455 0.23249 0.0
C2155 C 0.08446 0.52299 0.22126 0.0
C2156 C 0.06557 0.52436 0.20675 0.0
C2157 C 0.12016 0.51849 0.24798 0.0
C2158 C 0.10266 0.5048 0.25038 0.0
C2159 C 0.0851 0.50711 0.23696 0.0
C2160 C 0.10241 0.48778 0.26661 0.0
C2161 C 0.13987 0.51604 0.26139 0.0
C2162 C 0.10241 0.46634 0.26075 0.0
C2163 C 0.10244 0.4502 0.27605 0.0
C2164 C 0.10231 0.45527 0.29747 0.0
C2165 C 0.102 0.47681 0.30326 0.0
C2166 C 0.10199 0.49293 0.28796 0.0
H2167 H 0.1539 0.52429 0.25428 0.0
H2168 H 0.13603 0.52311 0.27699 0.0
H2169 H 0.14465 0.49895 0.26382 0.0
H2170 H 0.10258 0.4621 0.24432 0.0
H2171 H 0.10239 0.43376 0.27111 0.0
H2172 H 0.78363 0.88631 0.5581 0.0
H2173 H 0.75474 0.88405 0.53291 0.0
H2174 H 0.76128 0.81539 0.53547 0.0
H2175 H 0.79055 0.81752 0.5604 0.0
H2176 H 0.76117 0.83299 0.49456 0.0
H2177 H 0.69207 0.86548 0.54347 0.0
H2178 H 0.71513 0.88194 0.54301 0.0
H2179 H 0.71726 0.85563 0.5545 0.0
C2180 C 0.77895 0.87074 0.55325 0.0
C2181 C 0.78933 0.85209 0.56116 0.0
C2182 C 0.76228 0.86947 0.53909 0.0
C2183 C 0.75569 0.84955 0.53266 0.0
C2184 C 0.76603 0.83089 0.54047 0.0
H2185 H 0.64519 0.84175 0.44945 0.0
H2186 H 0.66969 0.83413 0.47872 0.0
C2187 C 0.78265 0.83214 0.55471 0.0
C2188 C 0.73889 0.84837 0.51679 0.0
H2189 H 0.687 0.86506 0.50627 0.0
C2190 C 0.74485 0.83969 0.4972 0.0
C2191 C 0.71755 0.85685 0.52043 0.0
C2192 C 0.71001 0.86531 0.54156 0.0
C2193 C 0.73033 0.84037 0.48071 0.0
C2194 C 0.70949 0.85016 0.48393 0.0
C2195 C 0.7031 0.85774 0.50386 0.0
C2196 C 0.69479 0.85424 0.46639 0.0
C2197 C 0.73753 0.83102 0.45983 0.0
C2198 C 0.70078 0.86824 0.45011 0.0
C2199 C 0.68687 0.87265 0.43366 0.0
C2200 C 0.66677 0.86316 0.43332 0.0
C2201 C 0.66067 0.84921 0.4496 0.0
C2202 C 0.67458 0.84486 0.46617 0.0
H2203 H 0.75121 0.81908 0.46154 0.0
H2204 H 0.72396 0.82333 0.45229 0.0
H2205 H 0.74312 0.84397 0.44924 0.0
H2206 H 0.71615 0.8759 0.45025 0.0
H2207 H 0.69174 0.8835 0.42119 0.0
H2208 H 0.36428 0.5366 0.82337 0.0
H2209 H 0.3612 0.50898 0.79698 0.0
H2210 H 0.42741 0.48745 0.80681 0.0
H2211 H 0.43068 0.51516 0.83315 0.0
H2212 H 0.41511 0.49566 0.7631 0.0
H2213 H 0.35956 0.44275 0.80736 0.0
H2214 H 0.35164 0.47067 0.80696 0.0
H2215 H 0.37575 0.46176 0.82012 0.0
C2216 C 0.37818 0.52598 0.81988 0.0
C2217 C 0.39774 0.52804 0.83026 0.0
C2218 C 0.37634 0.51013 0.80496 0.0
C2219 C 0.39402 0.4961 0.80014 0.0
C2220 C 0.41356 0.49807 0.81046 0.0
H2221 H 0.39879 0.38493 0.71917 0.0
H2222 H 0.40277 0.40943 0.74851 0.0
C2223 C 0.41537 0.51382 0.82552 0.0
C2224 C 0.39237 0.47998 0.78365 0.0
H2225 H 0.36631 0.43517 0.77129 0.0
C2226 C 0.40455 0.48236 0.76491 0.0
C2227 C 0.37865 0.46263 0.78617 0.0
C2228 C 0.36574 0.45909 0.80628 0.0
C2229 C 0.40297 0.46807 0.74836 0.0
C2230 C 0.38883 0.45105 0.75067 0.0
C2231 C 0.37704 0.44835 0.76959 0.0
C2232 C 0.38588 0.43611 0.7334 0.0
C2233 C 0.41637 0.47123 0.72847 0.0
C2234 C 0.37486 0.44303 0.71545 0.0
C2235 C 0.37245 0.42908 0.69889 0.0
C2236 C 0.38105 0.40806 0.70008 0.0
C2237 C 0.39195 0.40108 0.71809 0.0
C2238 C 0.39422 0.415 0.73474 0.0
H2239 H 0.42927 0.48273 0.73056 0.0
H2240 H 0.42398 0.45581 0.72314 0.0
H2241 H 0.40567 0.47745 0.71589 0.0
H2242 H 0.3682 0.45924 0.71425 0.0
H2243 H 0.36401 0.43471 0.68508 0.0
H2244 H 0.81949 0.09367 0.92535 0.0
H2245 H 0.79143 0.09374 0.95356 0.0
H2246 H 0.80662 0.15788 0.96935 0.0
H2247 H 0.83475 0.15775 0.94122 0.0
H2248 H 0.79657 0.10274 0.99871 0.0
H2249 H 0.73976 0.15962 0.95808 0.0
H2250 H 0.76143 0.14486 0.94432 0.0
H2251 H 0.76729 0.16753 0.95967 0.0
C2252 C 0.81681 0.10769 0.93496 0.0
C2253 C 0.829 0.12576 0.93121 0.0
C2254 C 0.80088 0.10773 0.95099 0.0
C2255 C 0.79686 0.1259 0.96331 0.0
C2256 C 0.80934 0.14382 0.9598 0.0
H2257 H 0.70233 0.16189 0.06063 0.0
H2258 H 0.73166 0.16044 0.03405 0.0
C2259 C 0.82535 0.14374 0.94385 0.0
C2260 C 0.77948 0.12618 0.97975 0.0
H2261 H 0.7301 0.1495 0.99282 0.0
C2262 C 0.78199 0.11289 0.99746 0.0
C2263 C 0.76057 0.13949 0.97798 0.0
C2264 C 0.7569 0.15361 0.95894 0.0
C2265 C 0.76617 0.11287 0.01374 0.0
C2266 C 0.74716 0.12613 0.01194 0.0
C2267 C 0.74468 0.13936 0.99416 0.0
C2268 C 0.72969 0.12669 0.02839 0.0
C2269 C 0.77023 0.09908 0.03293 0.0
C2270 C 0.71871 0.10823 0.03388 0.0
C2271 C 0.70209 0.10895 0.04925 0.0
C2272 C 0.69598 0.12821 0.05926 0.0
C2273 C 0.70686 0.14673 0.05349 0.0
C2274 C 0.72352 0.14596 0.0382 0.0
H2275 H 0.78772 0.09461 0.03442 0.0
H2276 H 0.76435 0.10732 0.04745 0.0
H2277 H 0.76139 0.08416 0.03166 0.0
H2278 H 0.72291 0.09328 0.02619 0.0
H2279 H 0.69419 0.09436 0.05343 0.0
H2280 H 0.31143 0.13408 0.44747 0.0
H2281 H 0.28633 0.13165 0.47797 0.0
H2282 H 0.26837 0.06963 0.45794 0.0
H2283 H 0.29341 0.0722 0.42732 0.0
H2284 H 0.23287 0.09764 0.46955 0.0
H2285 H 0.29564 0.09303 0.53021 0.0
H2286 H 0.29777 0.11518 0.51222 0.0
H2287 H 0.30189 0.08845 0.50273 0.0
C2288 C 0.30206 0.11998 0.4497 0.0
C2289 C 0.30422 0.10327 0.43534 0.0
C2290 C 0.2879 0.11854 0.46709 0.0
C2291 C 0.27579 0.10032 0.47035 0.0
C2292 C 0.2777 0.08375 0.45574 0.0
H2293 H 0.20251 0.06718 0.58434 0.0
H2294 H 0.22829 0.06735 0.55413 0.0
C2295 C 0.29191 0.08519 0.43835 0.0
C2296 C 0.26083 0.09876 0.48881 0.0
H2297 H 0.25903 0.09819 0.54241 0.0
C2298 C 0.23857 0.09766 0.48549 0.0
C2299 C 0.26839 0.09851 0.50955 0.0
C2300 C 0.29224 0.09866 0.51398 0.0
C2301 C 0.22356 0.09686 0.50241 0.0
C2302 C 0.23105 0.09743 0.52314 0.0
C2303 C 0.25336 0.09798 0.52647 0.0
C2304 C 0.21592 0.09756 0.54157 0.0
C2305 C 0.19983 0.09525 0.49798 0.0
C2306 C 0.2008 0.11466 0.54465 0.0
C2307 C 0.18622 0.11456 0.56181 0.0
C2308 C 0.18665 0.09741 0.57611 0.0
C2309 C 0.20202 0.08051 0.57336 0.0
C2310 C 0.21664 0.08061 0.55619 0.0
H2311 H 0.19737 0.08966 0.4818 0.0
H2312 H 0.19198 0.08418 0.5093 0.0
H2313 H 0.19156 0.11121 0.49963 0.0
H2314 H 0.20027 0.12805 0.53374 0.0
H2315 H 0.17446 0.12775 0.56383 0.0
H2316 H 0.17592 0.03912 0.69999 0.0
H2317 H 0.17794 0.01387 0.72957 0.0
H2318 H 0.11152 0.99842 0.72096 0.0
H2319 H 0.10904 0.02402 0.69186 0.0
H2320 H 0.14741 0.01667 0.76673 0.0
H2321 H 0.1474 0.93967 0.72469 0.0
H2322 H 0.15583 0.96408 0.71217 0.0
H2323 H 0.12754 0.95976 0.71671 0.0
C2324 C 0.16173 0.03035 0.70437 0.0
C2325 C 0.14229 0.03363 0.69356 0.0
C2326 C 0.16298 0.01587 0.72117 0.0
C2327 C 0.14494 0.00425 0.72723 0.0
C2328 C 0.1257 0.00706 0.71623 0.0
H2329 H 0.1078 0.91472 0.82321 0.0
H2330 H 0.11062 0.93914 0.79293 0.0
C2331 C 0.12437 0.02163 0.69955 0.0
C2332 C 0.14563 0.99016 0.74592 0.0
H2333 H 0.14199 0.93832 0.76167 0.0
C2334 C 0.14645 -0.00049 0.76571 0.0
C2335 C 0.14424 0.96787 0.74436 0.0
C2336 C 0.14386 0.95714 0.72335 0.0
C2337 C 0.14517 0.98713 0.78416 0.0
C2338 C 0.14354 0.96481 0.78263 0.0
C2339 C 0.14317 0.95545 0.76277 0.0
C2340 C 0.14159 0.95086 0.80142 0.0
C2341 C 0.14473 0.99816 0.80507 0.0
C2342 C 0.15802 0.94949 0.8162 0.0
C2343 C 0.15627 0.93578 0.83355 0.0
C2344 C 0.13826 0.92305 0.83609 0.0
C2345 C 0.12178 0.9245 0.82143 0.0
C2346 C 0.12344 0.93831 0.80419 0.0
H2347 H 0.1404 0.01546 0.80346 0.0
H2348 H 0.13297 0.99091 0.81626 0.0
H2349 H 0.16105 0.9965 0.81187 0.0
H2350 H 0.17234 0.95872 0.81412 0.0
H2351 H 0.16913 0.93475 0.84477 0.0
H2352 H 0.29834 0.85011 0.08525 0.0
H2353 H 0.27101 0.85696 0.05888 0.0
H2354 H 0.28372 0.92395 0.05887 0.0
H2355 H 0.31054 0.91741 0.08602 0.0
H2356 H 0.23943 0.91572 0.05649 0.0
H2357 H 0.28968 0.86982 0.99793 0.0
H2358 H 0.28418 0.85478 0.02149 0.0
H2359 H 0.30008 0.87806 0.02256 0.0
C2360 C 0.29502 0.86639 0.08004 0.0
C2361 C 0.30678 0.88319 0.08761 0.0
C2362 C 0.27957 0.87022 0.06478 0.0
C2363 C 0.27577 0.89087 0.05664 0.0
C2364 C 0.28664 0.90787 0.06484 0.0
H2365 H 0.21111 0.90308 0.93724 0.0
H2366 H 0.23639 0.90879 0.9653 0.0
C2367 C 0.30205 0.90407 0.08022 0.0
C2368 C 0.26112 0.8944 0.03892 0.0
H2369 H 0.25294 0.878 0.98917 0.0
C2370 C 0.24242 0.90768 0.04167 0.0
C2371 C 0.26542 0.88432 0.01945 0.0
C2372 C 0.28604 0.87113 0.01506 0.0
C2373 C 0.22731 0.9103 0.02572 0.0
C2374 C 0.23088 0.89899 0.00679 0.0
C2375 C 0.2501 0.88652 0.00376 0.0
C2376 C 0.21452 0.8987 0.99033 0.0
C2377 C 0.2077 0.92512 0.02931 0.0
C2378 C 0.19377 0.89141 0.99513 0.0
C2379 C 0.1793 0.8883 0.97917 0.0
C2380 C 0.1855 0.89206 0.95811 0.0
C2381 C 0.20604 0.8999 0.95336 0.0
C2382 C 0.22041 0.90325 0.96935 0.0
H2383 H 0.21102 0.93771 0.04071 0.0
H2384 H 0.20242 0.93286 0.01443 0.0
H2385 H 0.19416 0.91587 0.03596 0.0
H2386 H 0.18909 0.88721 0.01111 0.0
H2387 H 0.16366 0.88197 0.9832 0.0
H2388 H 0.35334 0.06968 0.29064 0.0
H2389 H 0.35456 0.04225 0.26373 0.0
H2390 H 0.36327 0.99352 0.31146 0.0
H2391 H 0.36134 0.02079 0.33856 0.0
H2392 H 0.3884 0.01341 0.25443 0.0
H2393 H 0.31401 0.97143 0.27748 0.0
H2394 H 0.31948 0.9975 0.28711 0.0
H2395 H 0.33238 0.97405 0.29852 0.0
C2396 C 0.35511 0.0531 0.29547 0.0
C2397 C 0.35713 0.04742 0.31678 0.0
C2398 C 0.35596 0.03746 0.28005 0.0
C2399 C 0.35872 0.01584 0.28562 0.0
C2400 C 0.36073 0.01009 0.30685 0.0
H2401 H 0.40508 0.91157 0.20633 0.0
H2402 H 0.40052 0.93999 0.2324 0.0
C2403 C 0.35988 0.02571 0.3223 0.0
C2404 C 0.36047 -0.00059 0.26912 0.0
H2405 H 0.33789 0.95422 0.25235 0.0
C2406 C 0.37729 0.00052 0.2539 0.0
C2407 C 0.3458 0.98279 0.26832 0.0
C2408 C 0.32677 0.98142 0.2836 0.0
C2409 C 0.38013 0.98518 0.23816 0.0
C2410 C 0.36598 0.96809 0.23785 0.0
C2411 C 0.34885 0.96724 0.25277 0.0
C2412 C 0.36873 0.95089 0.22221 0.0
C2413 C 0.39812 0.98753 0.22185 0.0
C2414 C 0.35217 0.94731 0.20821 0.0
C2415 C 0.35474 0.93105 0.19346 0.0
C2416 C 0.37384 0.91814 0.19263 0.0
C2417 C 0.39031 0.92154 0.20672 0.0
C2418 C 0.38774 0.93777 0.22147 0.0
H2419 H 0.40359 0.00415 0.22087 0.0
H2420 H 0.41221 0.97696 0.22614 0.0
H2421 H 0.39287 0.98287 0.2061 0.0
H2422 H 0.33735 0.95719 0.20861 0.0
H2423 H 0.34188 0.92854 0.18269 0.0
H2424 H 0.55497 0.17753 0.13223 0.0
H2425 H 0.52548 0.20458 0.128 0.0
H2426 H 0.56301 0.23554 0.07918 0.0
H2427 H 0.59269 0.20849 0.08367 0.0
H2428 H 0.5436 0.26378 0.10846 0.0
H2429 H 0.48408 0.20876 0.07896 0.0
H2430 H 0.49553 0.1999 0.1033 0.0
H2431 H 0.51268 0.20169 0.08009 0.0
C2432 C 0.55682 0.19018 0.12066 0.0
C2433 C 0.57587 0.19115 0.10825 0.0
C2434 C 0.54001 0.20548 0.11814 0.0
C2435 C 0.54194 0.2218 0.10301 0.0
C2436 C 0.56119 0.22297 0.09083 0.0
H2437 H 0.42874 0.30396 0.07154 0.0
H2438 H 0.46125 0.27995 0.06852 0.0
C2439 C 0.57806 0.20763 0.09338 0.0
C2440 C 0.52393 0.23783 0.1003 0.0
H2441 H 0.46989 0.24279 0.09069 0.0
C2442 C 0.52753 0.25927 0.10434 0.0
C2443 C 0.5031 0.23193 0.09455 0.0
C2444 C 0.49862 0.20935 0.08876 0.0
C2445 C 0.51055 0.27484 0.10375 0.0
C2446 C 0.48942 0.26869 0.09932 0.0
C2447 C 0.48606 0.24742 0.09432 0.0
C2448 C 0.4704 0.28382 0.10074 0.0
C2449 C 0.51538 0.29772 0.10795 0.0
C2450 C 0.46471 0.29368 0.11988 0.0
C2451 C 0.44631 0.30732 0.12155 0.0
C2452 C 0.43329 0.31118 0.10415 0.0
C2453 C 0.43878 0.30123 0.08505 0.0
C2454 C 0.45724 0.28759 0.08336 0.0
H2455 H 0.53273 0.30079 0.10465 0.0
H2456 H 0.50527 0.3089 0.09829 0.0
H2457 H 0.51175 0.30117 0.12475 0.0
H2458 H 0.47432 0.29057 0.13362 0.0
H2459 H 0.44213 0.31477 0.13644 0.0
H2460 H 0.94976 0.1801 0.93006 0.0
H2461 H 0.97635 0.20661 0.93749 0.0
H2462 H 0.96044 0.24043 0.88028 0.0
H2463 H 0.9344 0.21384 0.87238 0.0
H2464 H 0.01245 0.2157 0.90979 0.0
H2465 H 0.9594 0.28753 0.92552 0.0
H2466 H 0.94975 0.26078 0.92746 0.0
H2467 H 0.95271 0.27372 0.90225 0.0
C2468 C 0.95188 0.19321 0.91908 0.0
C2469 C 0.93994 0.19481 0.90059 0.0
C2470 C 0.96695 0.2084 0.92344 0.0
C2471 C 0.97009 0.22557 0.90957 0.0
C2472 C 0.95787 0.22752 0.8914 0.0
H2473 H 0.07071 0.30191 0.86782 0.0
H2474 H 0.04486 0.27448 0.87586 0.0
C2475 C 0.94295 0.2123 0.88694 0.0
C2476 C 0.98741 0.24054 0.91288 0.0
H2477 H 0.99652 0.29358 0.91559 0.0
C2478 C 0.00901 0.23269 0.91148 0.0
C2479 C 0.98283 0.26262 0.91532 0.0
C2480 C 0.95991 0.27168 0.91793 0.0
C2481 C 0.02618 0.24659 0.91105 0.0
C2482 C 0.02152 0.26879 0.9119 0.0
C2483 C -1e-05 0.27653 0.91473 0.0
C2484 C 0.03848 0.28431 0.90793 0.0
C2485 C 0.04914 0.23747 0.90908 0.0
C2486 C 0.04333 0.29896 0.9233 0.0
C2487 C 0.05828 0.31459 0.91882 0.0
C2488 C 0.06839 0.31598 0.89878 0.0
C2489 C 0.06358 0.30107 0.88352 0.0
C2490 C 0.04877 0.2854 0.88806 0.0
H2491 H 0.05034 0.22057 0.91449 0.0
H2492 H 0.05463 0.23808 0.89236 0.0
H2493 H 0.06027 0.24686 0.91828 0.0
H2494 H 0.03544 0.29838 0.93869 0.0
H2495 H 0.06182 0.32564 0.93102 0.0
H2496 H 0.02698 0.6822 0.10467 0.0
H2497 H 0.00151 0.71307 0.10291 0.0
H2498 H 0.05487 0.75447 0.093 0.0
H2499 H 0.0804 0.72361 0.09399 0.0
H2500 H -0.00025 0.74725 0.12954 0.0
H2501 H 0.01357 0.77424 0.04714 0.0
H2502 H 0.02268 0.74821 0.05655 0.0
H2503 H 0.03786 0.77121 0.06188 0.0
C2504 C 0.03327 0.69782 0.10171 0.0
C2505 C 0.05571 0.70046 0.09949 0.0
C2506 C 0.01871 0.71545 0.10084 0.0
C2507 C 0.02629 0.73601 0.0976 0.0
C2508 C 0.04865 0.7387 0.09515 0.0
H2509 H 0.9556 0.85422 0.13037 0.0
H2510 H 0.9825 0.82429 0.12721 0.0
C2511 C 0.06323 0.72108 0.09599 0.0
C2512 C 0.01088 0.75474 0.09807 0.0
H2513 H 0.99258 0.79787 0.06941 0.0
C2514 C 0.99812 0.75828 0.11637 0.0
C2515 C 0.00868 0.76898 0.08079 0.0
C2516 C 0.02127 0.76541 0.0604 0.0
C2517 C 0.98338 0.77584 0.11798 0.0
C2518 C 0.98166 0.79044 0.10096 0.0
C2519 C 0.99417 0.78676 0.08252 0.0
C2520 C 0.96649 0.80931 0.10187 0.0
C2521 C 0.96953 0.77844 0.13777 0.0
C2522 C 0.94909 0.81111 0.0882 0.0
C2523 C 0.93389 0.82818 0.08993 0.0
C2524 C 0.93599 0.84364 0.1053 0.0
C2525 C 0.95376 0.84229 0.1185 0.0
C2526 C 0.96897 0.82524 0.11676 0.0
H2527 H 0.96904 0.76337 0.14709 0.0
H2528 H 0.97636 0.79072 0.1477 0.0
H2529 H 0.95267 0.78376 0.13405 0.0
H2530 H 0.94697 0.79901 0.07657 0.0
H2531 H 0.92024 0.82908 0.07962 0.0
H2532 H 0.44362 0.68974 0.32926 0.0
H2533 H 0.47104 0.71677 0.326 0.0
H2534 H 0.47543 0.71765 0.39339 0.0
H2535 H 0.44811 0.69075 0.39677 0.0
H2536 H 0.4693 0.75777 0.34239 0.0
H2537 H 0.53875 0.70989 0.37389 0.0
H2538 H 0.51436 0.69803 0.36561 0.0
H2539 H 0.51519 0.70998 0.39105 0.0
C2540 C 0.45044 0.69573 0.34337 0.0
C2541 C 0.44376 0.68807 0.36328 0.0
C2542 C 0.46615 0.71108 0.34147 0.0
C2543 C 0.47551 0.71896 0.35943 0.0
C2544 C 0.46881 0.7114 0.3793 0.0
H2545 H 0.55873 0.81644 0.39539 0.0
H2546 H 0.53357 0.78771 0.3924 0.0
C2547 C 0.45318 0.69604 0.38121 0.0
C2548 C 0.49166 0.73573 0.3576 0.0
H2549 H 0.54248 0.74766 0.37199 0.0
C2550 C 0.48542 0.75551 0.3486 0.0
C2551 C 0.51268 0.73267 0.36564 0.0
C2552 C 0.52075 0.71142 0.3744 0.0
C2553 C 0.49932 0.77264 0.34829 0.0
C2554 C 0.52004 0.76978 0.35701 0.0
C2555 C 0.52651 0.74982 0.36544 0.0
C2556 C 0.53491 0.78753 0.35845 0.0
C2557 C 0.49145 0.7939 0.33939 0.0
C2558 C 0.54404 0.79689 0.34032 0.0
C2559 C 0.5584 0.81337 0.34198 0.0
C2560 C 0.56386 0.82074 0.36181 0.0
C2561 C 0.55463 0.81131 0.3799 0.0
C2562 C 0.54038 0.79481 0.37823 0.0
H2563 H 0.47371 0.79455 0.33691 0.0
H2564 H 0.49529 0.80702 0.34999 0.0
H2565 H 0.49983 0.79672 0.32403 0.0
H2566 H 0.54022 0.79131 0.32492 0.0
H2567 H 0.56513 0.82044 0.32776 0.0
H2568 H 0.08915 0.72369 0.59625 0.0
H2569 H 0.05827 0.74982 0.59746 0.0
H2570 H 0.02036 0.70468 0.63265 0.0
H2571 H 0.05134 0.67894 0.63191 0.0
H2572 H 0.01878 0.74554 0.58113 0.0
H2573 H 0.00948 0.7581 0.66675 0.0
H2574 H 0.03347 0.74531 0.65487 0.0
H2575 H 0.00963 0.73041 0.66019 0.0
C2576 C 0.07429 0.71966 0.60454 0.0
C2577 C 0.07248 0.6996 0.61421 0.0
C2578 C 0.05672 0.73445 0.60518 0.0
C2579 C 0.03716 0.72931 0.61547 0.0
C2580 C 0.03545 0.7092 0.62512 0.0
H2581 H 0.90776 0.77951 0.59283 0.0
H2582 H 0.94233 0.75869 0.59413 0.0
C2583 C 0.05303 0.69448 0.62457 0.0
C2584 C 0.01804 0.74434 0.61494 0.0
H2585 H 0.97898 0.76903 0.64609 0.0
C2586 C 0.01021 0.75088 0.59533 0.0
C2587 C 0.00706 0.75151 0.63349 0.0
C2588 C 0.01547 0.74615 0.655 0.0
C2589 C 0.99122 0.7638 0.59375 0.0
C2590 C 0.97954 0.76991 0.61228 0.0
C2591 C 0.9878 0.76403 0.6319 0.0
C2592 C 0.95862 0.78227 0.61165 0.0
C2593 C 0.98392 0.77086 0.57226 0.0
C2594 C 0.95618 0.80206 0.6216 0.0
C2595 C 0.93644 0.81372 0.6211 0.0
C2596 C 0.91887 0.80568 0.61076 0.0
C2597 C 0.92118 0.78585 0.60095 0.0
C2598 C 0.94091 0.77413 0.60152 0.0
H2599 H 0.9976 0.77027 0.56053 0.0
H2600 H 0.97154 0.76 0.56696 0.0
H2601 H 0.9766 0.78733 0.57254 0.0
H2602 H 0.96961 0.80856 0.62959 0.0
H2603 H 0.93487 0.82906 0.62872 0.0
H2604 H 0.03697 0.34158 0.32618 0.0
H2605 H 0.01261 0.31167 0.32895 0.0
H2606 H 0.03362 0.29836 0.39196 0.0
H2607 H 0.05827 0.32799 0.38897 0.0
H2608 H 0.03346 0.26232 0.36769 0.0
H2609 H 0.95544 0.30905 0.36246 0.0
H2610 H 0.97422 0.31403 0.34109 0.0
H2611 H 0.98071 0.32125 0.36729 0.0
C2612 C 0.03624 0.33222 0.34058 0.0
C2613 C 0.04935 0.33684 0.35736 0.0
C2614 C 0.02229 0.3153 0.34222 0.0
C2615 C 0.02112 0.30298 0.36076 0.0
C2616 C 0.03424 0.30771 0.37756 0.0
H2617 H 0.92208 0.21275 0.39268 0.0
H2618 H 0.94666 0.2425 0.39211 0.0
C2619 C 0.04821 0.32459 0.37588 0.0
C2620 C 0.00672 0.28474 0.36245 0.0
H2621 H 0.9539 0.27137 0.36002 0.0
C2622 C 0.01605 0.26429 0.3661 0.0
C2623 C 0.98399 0.28742 0.36065 0.0
C2624 C 0.97293 0.30914 0.35786 0.0
C2625 C 0.00329 0.24634 0.36762 0.0
C2626 C 0.98066 0.24892 0.36505 0.0
C2627 C 0.97129 0.26942 0.36179 0.0
C2628 C 0.96636 0.23057 0.36579 0.0
C2629 C 0.01412 0.22485 0.37228 0.0
C2630 C 0.96925 0.21411 0.35114 0.0
C2631 C 0.95533 0.19714 0.35155 0.0
C2632 C 0.93828 0.19654 0.36653 0.0
C2633 C 0.93529 0.21298 0.38112 0.0
C2634 C 0.94924 0.2299 0.38075 0.0
H2635 H 0.03017 0.22641 0.37939 0.0
H2636 H 0.00385 0.21529 0.38308 0.0
H2637 H 0.01672 0.21598 0.35742 0.0
H2638 H 0.98206 0.21456 0.33918 0.0
H2639 H 0.95764 0.18465 0.34004 0.0
H2640 H 0.4485 0.64252 0.92577 0.0
H2641 H 0.47056 0.67277 0.93398 0.0
H2642 H 0.51499 0.6557 0.8828 0.0
H2643 H 0.49304 0.62532 0.8748 0.0
H2644 H 0.53512 0.67076 0.92 0.0
H2645 H 0.46691 0.72403 0.89237 0.0
H2646 H 0.46084 0.7057 0.91344 0.0
H2647 H 0.46813 0.6957 0.88782 0.0
C2648 C 0.4633 0.64501 0.91668 0.0
C2649 C 0.46918 0.6319 0.89961 0.0
C2650 C 0.47579 0.66226 0.92129 0.0
C2651 C 0.49419 0.66658 0.90879 0.0
C2652 C 0.50082 0.65258 0.89261 0.0
H2653 H 0.55911 0.77175 0.86206 0.0
H2654 H 0.53758 0.74096 0.87089 0.0
C2655 C 0.48835 0.63532 0.88803 0.0
C2656 C 0.50528 0.68678 0.91089 0.0
H2657 H 0.49926 0.74005 0.89998 0.0
C2658 C 0.52723 0.686 0.91602 0.0
C2659 C 0.49488 0.70655 0.90551 0.0
C2660 C 0.47144 0.70819 0.89933 0.0
C2661 C 0.5393 0.70444 0.91518 0.0
C2662 C 0.52907 0.72403 0.90908 0.0
C2663 C 0.50693 0.72496 0.90477 0.0
C2664 C 0.54161 0.74308 0.90438 0.0
C2665 C 0.56316 0.70274 0.91968 0.0
C2666 C 0.55073 0.75456 0.92039 0.0
C2667 C 0.56301 0.77223 0.91537 0.0
C2668 C 0.5664 0.7785 0.89429 0.0
C2669 C 0.55693 0.76712 0.8784 0.0
C2670 C 0.54458 0.74962 0.88342 0.0
H2671 H 0.56903 0.68599 0.92248 0.0
H2672 H 0.57271 0.70952 0.90635 0.0
H2673 H 0.56627 0.71213 0.93382 0.0
H2674 H 0.54845 0.74978 0.93667 0.0
H2675 H 0.57027 0.78069 0.92789 0.0
H2676 H 0.63963 0.90102 0.81804 0.0
H2677 H 0.63984 0.92956 0.7913 0.0
H2678 H 0.57291 0.91902 0.77879 0.0
H2679 H 0.57275 0.89038 0.80557 0.0
H2680 H 0.62937 0.92656 0.74733 0.0
H2681 H 0.57477 0.98399 0.79153 0.0
H2682 H 0.58858 0.9615 0.80405 0.0
H2683 H 0.56516 0.95757 0.78879 0.0
C2684 C 0.62503 0.90485 0.80949 0.0
C2685 C 0.60612 0.89381 0.81379 0.0
C2686 C 0.62514 0.92107 0.7943 0.0
C2687 C 0.60631 0.92652 0.78331 0.0
C2688 C 0.58748 0.91524 0.78737 0.0
H2689 H 0.57762 0.02542 0.69012 0.0
H2690 H 0.57583 0.99569 0.71526 0.0
C2691 C 0.58739 0.89893 0.80254 0.0
C2692 C 0.60652 0.94396 0.76748 0.0
H2693 H 0.58593 0.99423 0.75724 0.0
C2694 C 0.61989 0.94137 0.74945 0.0
C2695 C 0.59407 0.96317 0.77035 0.0
C2696 C 0.57993 0.96692 0.78978 0.0
C2697 C 0.62102 0.9575 0.73405 0.0
C2698 C 0.60882 0.97688 0.73705 0.0
C2699 C 0.59529 0.97937 0.75501 0.0
C2700 C 0.61002 0.99485 0.72182 0.0
C2701 C 0.63498 0.9535 0.71455 0.0
C2702 C 0.62978 0.00443 0.71743 0.0
C2703 C 0.6309 0.02128 0.70296 0.0
C2704 C 0.61222 0.02902 0.69273 0.0
C2705 C 0.59236 0.01962 0.69747 0.0
C2706 C 0.59128 0.00274 0.71192 0.0
H2707 H 0.63826 0.93618 0.71195 0.0
H2708 H 0.62721 0.96058 0.70043 0.0
H2709 H 0.65078 0.96093 0.71631 0.0
H2710 H 0.64435 0.99887 0.72522 0.0
H2711 H 0.64647 0.02803 0.69954 0.0
H2712 H 0.16624 0.34879 0.94612 0.0
H2713 H 0.19255 0.34544 0.97433 0.0
H2714 H 0.21642 0.40701 0.957 0.0
H2715 H 0.18999 0.41038 0.92895 0.0
H2716 H 0.23774 0.34581 0.96965 0.0
H2717 H 0.20562 0.41145 0.02072 0.0
H2718 H 0.18996 0.40042 0.00034 0.0
H2719 H 0.21025 0.41926 0.9938 0.0
C2720 C 0.17702 0.36161 0.94858 0.0
C2721 C 0.17623 0.37985 0.93562 0.0
C2722 C 0.192 0.35971 0.96458 0.0
C2723 C 0.20623 0.37609 0.96789 0.0
C2724 C 0.2053 0.39439 0.95496 0.0
H2725 H 0.32797 0.36985 0.03187 0.0
H2726 H 0.29914 0.37237 0.00631 0.0
C2727 C 0.19034 0.39627 0.93895 0.0
C2728 C 0.2227 0.37365 0.98425 0.0
H2729 H 0.24058 0.39642 0.0285 0.0
C2730 C 0.23831 0.35679 0.98259 0.0
C2731 C 0.22323 0.38788 0.00121 0.0
C2732 C 0.20626 0.40567 0.00431 0.0
C2733 C 0.25478 0.35406 0.99721 0.0
C2734 C 0.25579 0.36875 0.01373 0.0
C2735 C 0.23987 0.38531 0.01568 0.0
C2736 C 0.27324 0.3672 0.02917 0.0
C2737 C 0.27085 0.33537 0.99496 0.0
C2738 C 0.26815 0.36393 0.05053 0.0
C2739 C 0.28455 0.36265 0.06518 0.0
C2740 C 0.30634 0.36478 0.05874 0.0
C2741 C 0.31134 0.36826 0.03733 0.0
C2742 C 0.29493 0.36949 0.02269 0.0
H2743 H 0.26468 0.32277 0.98493 0.0
H2744 H 0.2861 0.34091 0.98753 0.0
H2745 H 0.27472 0.32826 0.01053 0.0
H2746 H 0.25148 0.3623 0.05585 0.0
H2747 H 0.28014 0.36031 0.0816 0.0
H2748 H 0.86379 0.0898 0.28719 0.0
H2749 H 0.86837 0.06523 0.25785 0.0
H2750 H 0.93773 0.06424 0.26403 0.0
H2751 H 0.93337 0.0894 0.29302 0.0
H2752 H 0.92369 0.06576 0.22155 0.0
H2753 H 0.88598 0.00197 0.26942 0.0
H2754 H 0.8696 0.02624 0.26766 0.0
H2755 H 0.895 0.02612 0.28073 0.0
C2756 C 0.88005 0.08473 0.28205 0.0
C2757 C 0.89821 0.09139 0.29257 0.0
C2758 C 0.88262 0.07054 0.26541 0.0
C2759 C 0.90335 0.06267 0.25909 0.0
C2760 C 0.92158 0.07004 0.26883 0.0
H2761 H 0.9217 0.94551 0.18868 0.0
H2762 H 0.92623 0.97403 0.21376 0.0
C2763 C 0.91904 0.08427 0.28547 0.0
C2764 C 0.90588 0.04587 0.24309 0.0
H2765 H 0.89238 0.99498 0.23324 0.0
C2766 C 0.91697 0.05023 0.22408 0.0
C2767 C 0.89748 0.02551 0.24668 0.0
C2768 C 0.88653 0.01954 0.2673 0.0
C2769 C 0.91924 0.0349 0.20823 0.0
C2770 C 0.90992 0.01489 0.21148 0.0
C2771 C 0.89942 0.01038 0.23074 0.0
C2772 C 0.91006 0.99854 0.19497 0.0
C2773 C 0.93168 0.04021 0.18825 0.0
C2774 C 0.89977 0.00295 0.17596 0.0
C2775 C 0.8972 0.98671 0.16161 0.0
C2776 C 0.90465 0.96572 0.16617 0.0
C2777 C 0.91563 0.9615 0.18487 0.0
C2778 C 0.9183 0.97777 0.19914 0.0
H2779 H 0.94311 0.05306 0.1907 0.0
H2780 H 0.94095 0.02598 0.18207 0.0
H2781 H 0.9201 0.0459 0.1762 0.0
H2782 H 0.89281 0.01873 0.17264 0.0
H2783 H 0.88839 0.99036 0.14747 0.0
H2784 H 0.19772 0.67511 0.56279 0.0
H2785 H 0.22601 0.67811 0.53531 0.0
H2786 H 0.21864 0.61252 0.51881 0.0
H2787 H 0.19061 0.60923 0.54642 0.0
H2788 H 0.26567 0.65282 0.53073 0.0
H2789 H 0.21248 0.64604 0.46264 0.0
H2790 H 0.20204 0.65239 0.48869 0.0
H2791 H 0.20981 0.62532 0.48216 0.0
C2792 C 0.20224 0.66127 0.55342 0.0
C2793 C 0.19187 0.64194 0.55672 0.0
C2794 C 0.21829 0.66306 0.53767 0.0
C2795 C 0.22411 0.64564 0.52489 0.0
C2796 C 0.214 0.62627 0.52826 0.0
H2797 H 0.31578 0.61275 0.42613 0.0
H2798 H 0.28689 0.61487 0.45339 0.0
C2799 C 0.19799 0.62444 0.54401 0.0
C2800 C 0.24116 0.64747 0.50831 0.0
H2801 H 0.25052 0.64332 0.4555 0.0
C2802 C 0.26238 0.65097 0.51425 0.0
C2803 C 0.2367 0.64508 0.48688 0.0
C2804 C 0.21399 0.64219 0.47962 0.0
C2805 C 0.27951 0.65131 0.49931 0.0
C2806 C 0.27511 0.64845 0.47791 0.0
C2807 C 0.25379 0.64545 0.47194 0.0
C2808 C 0.29254 0.64748 0.46153 0.0
C2809 C 0.30225 0.6539 0.50661 0.0
C2810 C 0.30509 0.66519 0.45703 0.0
C2811 C 0.32159 0.66394 0.44155 0.0
C2812 C 0.32552 0.64505 0.43035 0.0
C2813 C 0.31288 0.62744 0.4347 0.0
C2814 C 0.29645 0.62866 0.45016 0.0
H2815 H 0.30346 0.65126 0.52382 0.0
H2816 H 0.31388 0.64262 0.49843 0.0
H2817 H 0.30718 0.67034 0.50288 0.0
H2818 H 0.30206 0.67995 0.46542 0.0
H2819 H 0.33128 0.67764 0.43831 0.0
H2820 H 0.68018 0.65895 0.03619 0.0
H2821 H 0.70159 0.65518 0.00338 0.0
H2822 H 0.69336 0.58731 0.00513 0.0
H2823 H 0.67217 0.59091 0.03812 0.0
H2824 H 0.7371 0.60029 0.9972 0.0
H2825 H 0.67754 0.64118 0.94493 0.0
H2826 H 0.68363 0.65566 0.96801 0.0
H2827 H 0.67013 0.63097 0.97068 0.0
C2828 C 0.68308 0.64322 0.02965 0.0
C2829 C 0.67455 0.62521 0.03968 0.0
C2830 C 0.69509 0.64112 0.01083 0.0
C2831 C 0.69876 0.62101 0.00177 0.0
C2832 C 0.69052 0.60298 0.01186 0.0
H2833 H 0.75639 0.59533 0.87711 0.0
H2834 H 0.73227 0.59555 0.90861 0.0
C2835 C 0.67839 0.60507 0.03061 0.0
C2836 C 0.71171 0.61874 0.98203 0.0
H2837 H 0.71286 0.63352 0.93028 0.0
C2838 C 0.73177 0.60742 0.98253 0.0
C2839 C 0.70452 0.62787 0.96292 0.0
C2840 C 0.68269 0.63946 0.96144 0.0
C2841 C 0.74521 0.60556 0.96447 0.0
C2842 C 0.73838 0.61539 0.94556 0.0
C2843 C 0.71803 0.62613 0.94489 0.0
C2844 C 0.75257 0.61535 0.92654 0.0
C2845 C 0.76664 0.59319 0.96573 0.0
C2846 C 0.77167 0.62664 0.92625 0.0
C2847 C 0.78522 0.62663 0.90838 0.0
C2848 C 0.77981 0.61539 0.89055 0.0
C2849 C 0.76066 0.6042 0.89072 0.0
C2850 C 0.74701 0.60429 0.90862 0.0
H2851 H 0.76727 0.58264 0.97986 0.0
H2852 H 0.76975 0.58333 0.95154 0.0
H2853 H 0.77986 0.60453 0.96657 0.0
H2854 H 0.77604 0.63549 0.93986 0.0
H2855 H 0.79995 0.63539 0.90845 0.0
H2856 H 0.64807 0.42464 0.26474 0.0
H2857 H 0.64713 0.45164 0.23673 0.0
H2858 H 0.65062 0.50112 0.2826 0.0
H2859 H 0.6523 0.47418 0.31067 0.0
H2860 H 0.61613 0.48422 0.23178 0.0
H2861 H 0.69765 0.51657 0.23916 0.0
H2862 H 0.69027 0.49157 0.25112 0.0
H2863 H 0.68193 0.51637 0.26332 0.0
C2864 C 0.64906 0.44124 0.26885 0.0
C2865 C 0.65037 0.44724 0.28995 0.0
C2866 C 0.64837 0.45665 0.25284 0.0
C2867 C 0.64908 0.47835 0.25757 0.0
C2868 C 0.65045 0.48443 0.27857 0.0
H2869 H 0.60571 0.58681 0.18249 0.0
H2870 H 0.61041 0.55808 0.20872 0.0
C2871 C 0.65115 0.46903 0.29462 0.0
C2872 C 0.6473 0.49466 0.24061 0.0
H2873 H 0.67294 0.53642 0.21758 0.0
C2874 C 0.6286 0.49556 0.22859 0.0
C2875 C 0.66372 0.50925 0.23632 0.0
C2876 C 0.68463 0.50833 0.24801 0.0
C2877 C 0.62564 0.511 0.21269 0.0
C2878 C 0.64165 0.52614 0.20898 0.0
C2879 C 0.6606 0.52491 0.22063 0.0
C2880 C 0.63889 0.54351 0.19322 0.0
C2881 C 0.60547 0.51087 0.1999 0.0
C2882 C 0.65363 0.54509 0.17612 0.0
C2883 C 0.651 0.56151 0.16125 0.0
C2884 C 0.6337 0.57661 0.16342 0.0
C2885 C 0.61908 0.57517 0.18057 0.0
C2886 C 0.6217 0.55878 0.19543 0.0
H2887 H 0.59791 0.49513 0.20077 0.0
H2888 H 0.59344 0.52301 0.20611 0.0
H2889 H 0.60913 0.51485 0.18318 0.0
H2890 H 0.66705 0.53351 0.1742 0.0
H2891 H 0.66241 0.56247 0.14806 0.0
H2892 H 0.80037 0.40518 0.55239 0.0
H2893 H 0.7756 0.40281 0.52336 0.0
H2894 H 0.8227 0.36213 0.49007 0.0
H2895 H 0.84779 0.36499 0.51888 0.0
H2896 H 0.80605 0.39174 0.46455 0.0
H2897 H 0.73882 0.35456 0.50866 0.0
H2898 H 0.7459 0.37901 0.52036 0.0
H2899 H 0.76529 0.35673 0.51946 0.0
C2900 C 0.80533 0.39558 0.53895 0.0
C2901 C 0.82593 0.38521 0.53787 0.0
C2902 C 0.79114 0.39414 0.52242 0.0
C2903 C 0.7971 0.38193 0.50471 0.0
C2904 C 0.81771 0.37157 0.50361 0.0
H2905 H 0.70172 0.3519 0.41239 0.0
H2906 H 0.72925 0.34956 0.43941 0.0
C2907 C 0.83203 0.37324 0.52003 0.0
C2908 C 0.78216 0.38068 0.48699 0.0
H2909 H 0.73027 0.36993 0.47515 0.0
C2910 C 0.78954 0.38678 0.46683 0.0
C2911 C 0.76074 0.37381 0.48986 0.0
C2912 C 0.7523 0.36544 0.51071 0.0
C2913 C 0.7759 0.38681 0.44959 0.0
C2914 C 0.75408 0.38122 0.45274 0.0
C2915 C 0.74691 0.37451 0.47278 0.0
C2916 C 0.73832 0.38236 0.43559 0.0
C2917 C 0.78515 0.39255 0.42818 0.0
C2918 C 0.73427 0.40154 0.42445 0.0
C2919 C 0.71882 0.40275 0.40885 0.0
C2920 C 0.70679 0.38498 0.40455 0.0
C2921 C 0.71083 0.3658 0.41559 0.0
C2922 C 0.72647 0.3645 0.43099 0.0
H2923 H 0.803 0.38945 0.42724 0.0
H2924 H 0.77772 0.38344 0.41565 0.0
H2925 H 0.78189 0.40981 0.4251 0.0
H2926 H 0.7428 0.41568 0.42804 0.0
H2927 H 0.71599 0.41764 0.40036 0.0
H2928 H 0.85539 0.55319 0.78547 0.0
H2929 H 0.86136 0.53113 0.7544 0.0
H2930 H 0.86101 0.58757 0.71503 0.0
H2931 H 0.85573 0.60986 0.74615 0.0
H2932 H 0.83374 0.52982 0.7206 0.0
H2933 H 0.9162 0.55363 0.69502 0.0
H2934 H 0.90491 0.55902 0.72095 0.0
H2935 H 0.89632 0.57508 0.69895 0.0
C2936 C 0.85696 0.56095 0.77025 0.0
C2937 C 0.85513 0.58327 0.76827 0.0
C2938 C 0.86022 0.54832 0.75251 0.0
C2939 C 0.86181 0.55775 0.73248 0.0
C2940 C 0.86013 0.58002 0.73039 0.0
H2941 H 0.84828 0.47895 0.62149 0.0
H2942 H 0.84522 0.50969 0.64511 0.0
C2943 C 0.85688 0.59269 0.74816 0.0
C2944 C 0.86427 0.54405 0.71381 0.0
H2945 H 0.89913 0.52948 0.67345 0.0
C2946 C 0.84795 0.52983 0.71018 0.0
C2947 C 0.8829 0.54411 0.70038 0.0
C2948 C 0.9012 0.55864 0.70402 0.0
C2949 C 0.84994 0.51528 0.6937 0.0
C2950 C 0.86857 0.51529 0.68026 0.0
C2951 C 0.88476 0.52975 0.68366 0.0
C2952 C 0.87234 0.499 0.6639 0.0
C2953 C 0.83249 0.49944 0.69134 0.0
C2954 C 0.88919 0.48348 0.66613 0.0
C2955 C 0.891 0.46616 0.65264 0.0
C2956 C 0.87605 0.46424 0.63674 0.0
C2957 C 0.85995 0.48032 0.63371 0.0
C2958 C 0.85815 0.4977 0.64719 0.0
H2959 H 0.82145 0.49885 0.7054 0.0
H2960 H 0.82263 0.50407 0.67761 0.0
H2961 H 0.83976 0.48318 0.6886 0.0
H2962 H 0.90027 0.48422 0.67894 0.0
H2963 H 0.90345 0.45376 0.65517 0.0
H2964 H 0.54985 0.14428 0.67262 0.0
H2965 H 0.52387 0.17503 0.6748 0.0
H2966 H 0.54148 0.19312 0.61117 0.0
H2967 H 0.56778 0.16269 0.60925 0.0
H2968 H 0.5409 0.22678 0.63865 0.0
H2969 H 0.46517 0.18255 0.6475 0.0
H2970 H 0.4852 0.17537 0.66649 0.0
H2971 H 0.49073 0.16987 0.6392 0.0
C2972 C 0.54798 0.15484 0.65915 0.0
C2973 C 0.56064 0.15136 0.6408 0.0
C2974 C 0.53313 0.17226 0.66033 0.0
C2975 C 0.53057 0.18618 0.64305 0.0
C2976 C 0.54317 0.18253 0.62465 0.0
H2977 H 0.45126 0.29783 0.61168 0.0
H2978 H 0.47797 0.26798 0.61258 0.0
C2979 C 0.55807 0.1652 0.62352 0.0
C2980 C 0.51531 0.20499 0.64429 0.0
H2981 H 0.46185 0.22005 0.65138 0.0
C2982 C 0.52361 0.22532 0.64139 0.0
C2983 C 0.49279 0.203 0.64792 0.0
C2984 C 0.48286 0.18153 0.65027 0.0
C2985 C 0.50996 0.24376 0.64211 0.0
C2986 C 0.48745 0.24175 0.64561 0.0
C2987 C 0.47917 0.22147 0.64876 0.0
C2988 C 0.4721 0.26047 0.64543 0.0
C2989 C 0.51972 0.26527 0.63933 0.0
C2990 C 0.4599 0.266 0.66358 0.0
C2991 C 0.44471 0.28315 0.66318 0.0
C2992 C 0.44133 0.29494 0.64452 0.0
C2993 C 0.45373 0.28937 0.62639 0.0
C2994 C 0.46896 0.27228 0.62685 0.0
H2995 H 0.53748 0.26439 0.64173 0.0
H2996 H 0.51692 0.27128 0.62313 0.0
H2997 H 0.51198 0.27697 0.65044 0.0
H2998 H 0.46211 0.25702 0.67806 0.0
H2999 H 0.43562 0.28717 0.67747 0.0
loop_
_geom_bond_atom_site_label_1
_geom_bond_atom_site_label_2
_geom_bond_distance
_geom_bond_site_symmetry_2
_ccdc_geom_bond_type
C0 C1 1.443 . S
C0 N4 1.376 . S
C0 C38 1.389 . S
C1 C0 1.443 . S
C1 C2 1.340 . S
C1 H41 0.951 . S
C2 C1 1.340 . S
C2 C3 1.439 . S
C2 H42 0.950 . S
C3 C2 1.439 . S
C3 N4 1.374 . S
C3 C37 1.395 . S
N4 C0 1.376 . S
N4 C3 1.374 . S
N4 Co5 2.008 . S
Co5 N4 2.008 . S
Co5 N6 1.995 . S
Co5 N11 2.008 . S
Co5 N16 1.995 . S
Co5 N21 2.282 . S
Co5 N27 2.282 . S
N6 Co5 1.995 . S
N6 C7 1.376 . S
N6 C10 1.383 . S
C7 N6 1.376 . S
C7 C8 1.446 . S
C7 C37 1.391 . S
C8 C7 1.446 . S
C8 C9 1.339 . S
C8 H43 0.949 . S
C9 C8 1.339 . S
C9 C10 1.439 . S
C9 H44 0.950 . S
C10 N6 1.383 . S
C10 C9 1.439 . S
C10 C39 1.392 . S
N11 Co5 2.008 . S
N11 C12 1.376 . S
N11 C15 1.374 . S
C12 N11 1.376 . S
C12 C13 1.443 . S
C12 C39 1.389 . S
C13 C12 1.443 . S
C13 C14 1.340 . S
C13 H45 0.951 . S
C14 C13 1.340 . S
C14 C15 1.439 . S
C14 H46 0.950 . S
C15 N11 1.374 . S
C15 C14 1.439 . S
C15 C40 1.395 . S
N16 Co5 1.995 . S
N16 C17 1.376 . S
N16 C20 1.383 . S
C17 N16 1.376 . S
C17 C18 1.446 . S
C17 C40 1.391 . S
C18 C17 1.446 . S
C18 C19 1.339 . S
C18 H47 0.949 . S
C19 C18 1.339 . S
C19 C20 1.439 . S
C19 H48 0.950 . S
C20 N16 1.383 . S
C20 C19 1.439 . S
C20 C38 1.392 . S
N21 Co5 2.282 . S
N21 C24 1.332 . S
N21 C26 1.332 . S
C22 C23 1.386 . S
C22 C25 1.388 . S
C23 C22 1.386 . S
C23 C24 1.382 . S
C23 H49 0.950 . S
C24 N21 1.332 . S
C24 C23 1.382 . S
C24 H35 0.952 . S
C25 C22 1.388 . S
C25 C26 1.382 . S
C25 H50 0.950 . S
C26 N21 1.332 . S
C26 C25 1.382 . S
C26 H36 0.948 . S
N27 Co5 2.282 . S
N27 C31 1.332 . S
N27 C32 1.332 . S
C28 C29 1.388 . S
C28 C32 1.382 . S
C28 H51 0.950 . S
C29 C28 1.388 . S
C29 C30 1.386 . S
C30 C29 1.386 . S
C30 C31 1.382 . S
C30 H52 0.950 . S
C31 N27 1.332 . S
C31 C30 1.382 . S
C31 H33 0.952 . S
C32 N27 1.332 . S
C32 C28 1.382 . S
C32 H34 0.948 . S
H33 C31 0.952 . S
H34 C32 0.948 . S
H35 C24 0.952 . S
H36 C26 0.948 . S
C37 C3 1.395 . S
C37 C7 1.391 . S
C38 C0 1.389 . S
C38 C20 1.392 . S
C39 C10 1.392 . S
C39 C12 1.389 . S
C40 C15 1.395 . S
C40 C17 1.391 . S
H41 C1 0.951 . S
H42 C2 0.950 . S
H43 C8 0.949 . S
H44 C9 0.950 . S
H45 C13 0.951 . S
H46 C14 0.950 . S
H47 C18 0.949 . S
H48 C19 0.950 . S
H49 C23 0.950 . S
H50 C25 0.950 . S
H51 C28 0.950 . S
H52 C30 0.950 . S
C53 C54 1.443 . S
C53 N57 1.376 . S
C53 C91 1.389 . S
C54 C53 1.443 . S
C54 C55 1.340 . S
C54 H94 0.951 . S
C55 C54 1.340 . S
C55 C56 1.439 . S
C55 H95 0.950 . S
C56 C55 1.439 . S
C56 N57 1.374 . S
C56 C90 1.395 . S
N57 C53 1.376 . S
N57 C56 1.374 . S
N57 Co58 2.008 . S
Co58 N57 2.008 . S
Co58 N59 1.995 . S
Co58 N64 2.008 . S
Co58 N69 1.995 . S
Co58 N74 2.282 . S
Co58 N80 2.282 . S
N59 Co58 1.995 . S
N59 C60 1.376 . S
N59 C63 1.383 . S
C60 N59 1.376 . S
C60 C61 1.446 . S
C60 C90 1.391 . S
C61 C60 1.446 . S
C61 C62 1.339 . S
C61 H96 0.949 . S
C62 C61 1.339 . S
C62 C63 1.439 . S
C62 H97 0.950 . S
C63 N59 1.383 . S
C63 C62 1.439 . S
C63 C92 1.392 . S
N64 Co58 2.008 . S
N64 C65 1.376 . S
N64 C68 1.374 . S
C65 N64 1.376 . S
C65 C66 1.443 . S
C65 C92 1.389 . S
C66 C65 1.443 . S
C66 C67 1.340 . S
C66 H98 0.951 . S
C67 C66 1.340 . S
C67 C68 1.439 . S
C67 H99 0.950 . S
C68 N64 1.374 . S
C68 C67 1.439 . S
C68 C93 1.395 . S
N69 Co58 1.995 . S
N69 C70 1.376 . S
N69 C73 1.383 . S
C70 N69 1.376 . S
C70 C71 1.446 . S
C70 C93 1.391 . S
C71 C70 1.446 . S
C71 C72 1.339 . S
C71 H100 0.949 . S
C72 C71 1.339 . S
C72 C73 1.439 . S
C72 H101 0.950 . S
C73 N69 1.383 . S
C73 C72 1.439 . S
C73 C91 1.392 . S
N74 Co58 2.282 . S
N74 C77 1.332 . S
N74 C79 1.332 . S
C75 C76 1.386 . S
C75 C78 1.388 . S
C76 C75 1.386 . S
C76 C77 1.382 . S
C76 H102 0.950 . S
C77 N74 1.332 . S
C77 C76 1.382 . S
C77 H88 0.952 . S
C78 C75 1.388 . S
C78 C79 1.382 . S
C78 H103 0.950 . S
C79 N74 1.332 . S
C79 C78 1.382 . S
C79 H89 0.948 . S
N80 Co58 2.282 . S
N80 C84 1.332 . S
N80 C85 1.332 . S
C81 C82 1.388 . S
C81 C85 1.382 . S
C81 H104 0.950 . S
C82 C81 1.388 . S
C82 C83 1.386 . S
C83 C82 1.386 . S
C83 C84 1.382 . S
C83 H105 0.950 . S
C84 N80 1.332 . S
C84 C83 1.382 . S
C84 H86 0.952 . S
C85 N80 1.332 . S
C85 C81 1.382 . S
C85 H87 0.948 . S
H86 C84 0.952 . S
H87 C85 0.948 . S
H88 C77 0.952 . S
H89 C79 0.948 . S
C90 C56 1.395 . S
C90 C60 1.391 . S
C91 C53 1.389 . S
C91 C73 1.392 . S
C92 C63 1.392 . S
C92 C65 1.389 . S
C93 C68 1.395 . S
C93 C70 1.391 . S
H94 C54 0.951 . S
H95 C55 0.950 . S
H96 C61 0.949 . S
H97 C62 0.950 . S
H98 C66 0.951 . S
H99 C67 0.950 . S
H100 C71 0.949 . S
H101 C72 0.950 . S
H102 C76 0.950 . S
H103 C78 0.950 . S
H104 C81 0.950 . S
H105 C83 0.950 . S
C106 C107 1.443 . S
C106 N110 1.376 . S
C106 C144 1.389 . S
C107 C106 1.443 . S
C107 C108 1.340 . S
C107 H147 0.951 . S
C108 C107 1.340 . S
C108 C109 1.439 . S
C108 H148 0.950 . S
C109 C108 1.439 . S
C109 N110 1.374 . S
C109 C143 1.395 . S
N110 C106 1.376 . S
N110 C109 1.374 . S
N110 Co111 2.008 . S
Co111 N110 2.008 . S
Co111 N112 1.995 . S
Co111 N117 2.008 . S
Co111 N122 1.995 . S
Co111 N127 2.282 . S
Co111 N133 2.282 . S
N112 Co111 1.995 . S
N112 C113 1.376 . S
N112 C116 1.383 . S
C113 N112 1.376 . S
C113 C114 1.446 . S
C113 C143 1.391 . S
C114 C113 1.446 . S
C114 C115 1.339 . S
C114 H149 0.949 . S
C115 C114 1.339 . S
C115 C116 1.439 . S
C115 H150 0.950 . S
C116 N112 1.383 . S
C116 C115 1.439 . S
C116 C145 1.392 . S
N117 Co111 2.008 . S
N117 C118 1.376 . S
N117 C121 1.374 . S
C118 N117 1.376 . S
C118 C119 1.443 . S
C118 C145 1.389 . S
C119 C118 1.443 . S
C119 C120 1.340 . S
C119 H151 0.951 . S
C120 C119 1.340 . S
C120 C121 1.439 . S
C120 H152 0.950 . S
C121 N117 1.374 . S
C121 C120 1.439 . S
C121 C146 1.395 . S
N122 Co111 1.995 . S
N122 C123 1.376 . S
N122 C126 1.383 . S
C123 N122 1.376 . S
C123 C124 1.446 . S
C123 C146 1.391 . S
C124 C123 1.446 . S
C124 C125 1.339 . S
C124 H153 0.949 . S
C125 C124 1.339 . S
C125 C126 1.439 . S
C125 H154 0.950 . S
C126 N122 1.383 . S
C126 C125 1.439 . S
C126 C144 1.392 . S
N127 Co111 2.282 . S
N127 C130 1.332 . S
N127 C132 1.332 . S
C128 C129 1.386 . S
C128 C131 1.388 . S
C129 C128 1.386 . S
C129 C130 1.382 . S
C129 H155 0.950 . S
C130 N127 1.332 . S
C130 C129 1.382 . S
C130 H141 0.952 . S
C131 C128 1.388 . S
C131 C132 1.382 . S
C131 H156 0.950 . S
C132 N127 1.332 . S
C132 C131 1.382 . S
C132 H142 0.948 . S
N133 Co111 2.282 . S
N133 C137 1.332 . S
N133 C138 1.332 . S
C134 C135 1.388 . S
C134 C138 1.382 . S
C134 H157 0.950 . S
C135 C134 1.388 . S
C135 C136 1.386 . S
C136 C135 1.386 . S
C136 C137 1.382 . S
C136 H158 0.950 . S
C137 N133 1.332 . S
C137 C136 1.382 . S
C137 H139 0.952 . S
C138 N133 1.332 . S
C138 C134 1.382 . S
C138 H140 0.948 . S
H139 C137 0.952 . S
H140 C138 0.948 . S
H141 C130 0.952 . S
H142 C132 0.948 . S
C143 C109 1.395 . S
C143 C113 1.391 . S
C144 C106 1.389 . S
C144 C126 1.392 . S
C145 C116 1.392 . S
C145 C118 1.389 . S
C146 C121 1.395 . S
C146 C123 1.391 . S
H147 C107 0.951 . S
H148 C108 0.950 . S
H149 C114 0.949 . S
H150 C115 0.950 . S
H151 C119 0.951 . S
H152 C120 0.950 . S
H153 C124 0.949 . S
H154 C125 0.950 . S
H155 C129 0.950 . S
H156 C131 0.950 . S
H157 C134 0.950 . S
H158 C136 0.950 . S
C159 C160 1.443 . S
C159 N163 1.376 . S
C159 C197 1.389 . S
C160 C159 1.443 . S
C160 C161 1.340 . S
C160 H200 0.951 . S
C161 C160 1.340 . S
C161 C162 1.439 . S
C161 H201 0.950 . S
C162 C161 1.439 . S
C162 N163 1.374 . S
C162 C196 1.395 . S
N163 C159 1.376 . S
N163 C162 1.374 . S
N163 Co164 2.008 . S
Co164 N163 2.008 . S
Co164 N165 1.995 . S
Co164 N170 2.008 . S
Co164 N175 1.995 . S
Co164 N180 2.282 . S
Co164 N186 2.282 . S
N165 Co164 1.995 . S
N165 C166 1.376 . S
N165 C169 1.383 . S
C166 N165 1.376 . S
C166 C167 1.446 . S
C166 C196 1.391 . S
C167 C166 1.446 . S
C167 C168 1.339 . S
C167 H202 0.949 . S
C168 C167 1.339 . S
C168 C169 1.439 . S
C168 H203 0.950 . S
C169 N165 1.383 . S
C169 C168 1.439 . S
C169 C198 1.392 . S
N170 Co164 2.008 . S
N170 C171 1.376 . S
N170 C174 1.374 . S
C171 N170 1.376 . S
C171 C172 1.443 . S
C171 C198 1.389 . S
C172 C171 1.443 . S
C172 C173 1.340 . S
C172 H204 0.951 . S
C173 C172 1.340 . S
C173 C174 1.439 . S
C173 H205 0.950 . S
C174 N170 1.374 . S
C174 C173 1.439 . S
C174 C199 1.395 . S
N175 Co164 1.995 . S
N175 C176 1.376 . S
N175 C179 1.383 . S
C176 N175 1.376 . S
C176 C177 1.446 . S
C176 C199 1.391 . S
C177 C176 1.446 . S
C177 C178 1.339 . S
C177 H206 0.949 . S
C178 C177 1.339 . S
C178 C179 1.439 . S
C178 H207 0.950 . S
C179 N175 1.383 . S
C179 C178 1.439 . S
C179 C197 1.392 . S
N180 Co164 2.282 . S
N180 C183 1.332 . S
N180 C185 1.332 . S
C181 C182 1.386 . S
C181 C184 1.388 . S
C182 C181 1.386 . S
C182 C183 1.382 . S
C182 H208 0.950 . S
C183 N180 1.332 . S
C183 C182 1.382 . S
C183 H194 0.952 . S
C184 C181 1.388 . S
C184 C185 1.382 . S
C184 H209 0.950 . S
C185 N180 1.332 . S
C185 C184 1.382 . S
C185 H195 0.948 . S
N186 Co164 2.282 . S
N186 C190 1.332 . S
N186 C191 1.332 . S
C187 C188 1.388 . S
C187 C191 1.382 . S
C187 H210 0.950 . S
C188 C187 1.388 . S
C188 C189 1.386 . S
C189 C188 1.386 . S
C189 C190 1.382 . S
C189 H211 0.950 . S
C190 N186 1.332 . S
C190 C189 1.382 . S
C190 H192 0.952 . S
C191 N186 1.332 . S
C191 C187 1.382 . S
C191 H193 0.948 . S
H192 C190 0.952 . S
H193 C191 0.948 . S
H194 C183 0.952 . S
H195 C185 0.948 . S
C196 C162 1.395 . S
C196 C166 1.391 . S
C197 C159 1.389 . S
C197 C179 1.392 . S
C198 C169 1.392 . S
C198 C171 1.389 . S
C199 C174 1.395 . S
C199 C176 1.391 . S
H200 C160 0.951 . S
H201 C161 0.950 . S
H202 C167 0.949 . S
H203 C168 0.950 . S
H204 C172 0.951 . S
H205 C173 0.950 . S
H206 C177 0.949 . S
H207 C178 0.950 . S
H208 C182 0.950 . S
H209 C184 0.950 . S
H210 C187 0.950 . S
H211 C189 0.950 . S
C212 C213 1.443 . S
C212 N216 1.376 . S
C212 C250 1.389 . S
C213 C212 1.443 . S
C213 C214 1.340 . S
C213 H253 0.951 . S
C214 C213 1.340 . S
C214 C215 1.439 . S
C214 H254 0.950 . S
C215 C214 1.439 . S
C215 N216 1.374 . S
C215 C249 1.395 . S
N216 C212 1.376 . S
N216 C215 1.374 . S
N216 Co217 2.008 . S
Co217 N216 2.008 . S
Co217 N218 1.995 . S
Co217 N223 2.008 . S
Co217 N228 1.995 . S
Co217 N233 2.282 . S
Co217 N239 2.282 . S
N218 Co217 1.995 . S
N218 C219 1.376 . S
N218 C222 1.383 . S
C219 N218 1.376 . S
C219 C220 1.446 . S
C219 C249 1.391 . S
C220 C219 1.446 . S
C220 C221 1.339 . S
C220 H255 0.949 . S
C221 C220 1.339 . S
C221 C222 1.439 . S
C221 H256 0.950 . S
C222 N218 1.383 . S
C222 C221 1.439 . S
C222 C251 1.392 . S
N223 Co217 2.008 . S
N223 C224 1.376 . S
N223 C227 1.374 . S
C224 N223 1.376 . S
C224 C225 1.443 . S
C224 C251 1.389 . S
C225 C224 1.443 . S
C225 C226 1.340 . S
C225 H257 0.951 . S
C226 C225 1.340 . S
C226 C227 1.439 . S
C226 H258 0.950 . S
C227 N223 1.374 . S
C227 C226 1.439 . S
C227 C252 1.395 . S
N228 Co217 1.995 . S
N228 C229 1.376 . S
N228 C232 1.383 . S
C229 N228 1.376 . S
C229 C230 1.446 . S
C229 C252 1.391 . S
C230 C229 1.446 . S
C230 C231 1.339 . S
C230 H259 0.949 . S
C231 C230 1.339 . S
C231 C232 1.439 . S
C231 H260 0.950 . S
C232 N228 1.383 . S
C232 C231 1.439 . S
C232 C250 1.392 . S
N233 Co217 2.282 . S
N233 C236 1.332 . S
N233 C238 1.332 . S
C234 C235 1.386 . S
C234 C237 1.388 . S
C235 C234 1.386 . S
C235 C236 1.382 . S
C235 H261 0.950 . S
C236 N233 1.332 . S
C236 C235 1.382 . S
C236 H247 0.952 . S
C237 C234 1.388 . S
C237 C238 1.382 . S
C237 H262 0.950 . S
C238 N233 1.332 . S
C238 C237 1.382 . S
C238 H248 0.948 . S
N239 Co217 2.282 . S
N239 C243 1.332 . S
N239 C244 1.332 . S
C240 C241 1.388 . S
C240 C244 1.382 . S
C240 H263 0.950 . S
C241 C240 1.388 . S
C241 C242 1.386 . S
C242 C241 1.386 . S
C242 C243 1.382 . S
C242 H264 0.950 . S
C243 N239 1.332 . S
C243 C242 1.382 . S
C243 H245 0.952 . S
C244 N239 1.332 . S
C244 C240 1.382 . S
C244 H246 0.948 . S
H245 C243 0.952 . S
H246 C244 0.948 . S
H247 C236 0.952 . S
H248 C238 0.948 . S
C249 C215 1.395 . S
C249 C219 1.391 . S
C250 C212 1.389 . S
C250 C232 1.392 . S
C251 C222 1.392 . S
C251 C224 1.389 . S
C252 C227 1.395 . S
C252 C229 1.391 . S
H253 C213 0.951 . S
H254 C214 0.950 . S
H255 C220 0.949 . S
H256 C221 0.950 . S
H257 C225 0.951 . S
H258 C226 0.950 . S
H259 C230 0.949 . S
H260 C231 0.950 . S
H261 C235 0.950 . S
H262 C237 0.950 . S
H263 C240 0.950 . S
H264 C242 0.950 . S
C265 C266 1.443 . S
C265 N269 1.376 . S
C265 C303 1.389 . S
C266 C265 1.443 . S
C266 C267 1.340 . S
C266 H306 0.951 . S
C267 C266 1.340 . S
C267 C268 1.439 . S
C267 H307 0.950 . S
C268 C267 1.439 . S
C268 N269 1.374 . S
C268 C302 1.395 . S
N269 C265 1.376 . S
N269 C268 1.374 . S
N269 Co270 2.008 . S
Co270 N269 2.008 . S
Co270 N271 1.995 . S
Co270 N276 2.008 . S
Co270 N281 1.995 . S
Co270 N286 2.282 . S
Co270 N292 2.282 . S
N271 Co270 1.995 . S
N271 C272 1.376 . S
N271 C275 1.383 . S
C272 N271 1.376 . S
C272 C273 1.446 . S
C272 C302 1.391 . S
C273 C272 1.446 . S
C273 C274 1.339 . S
C273 H308 0.949 . S
C274 C273 1.339 . S
C274 C275 1.439 . S
C274 H309 0.950 . S
C275 N271 1.383 . S
C275 C274 1.439 . S
C275 C304 1.392 . S
N276 Co270 2.008 . S
N276 C277 1.376 . S
N276 C280 1.374 . S
C277 N276 1.376 . S
C277 C278 1.443 . S
C277 C304 1.389 . S
C278 C277 1.443 . S
C278 C279 1.340 . S
C278 H310 0.951 . S
C279 C278 1.340 . S
C279 C280 1.439 . S
C279 H311 0.950 . S
C280 N276 1.374 . S
C280 C279 1.439 . S
C280 C305 1.395 . S
N281 Co270 1.995 . S
N281 C282 1.376 . S
N281 C285 1.383 . S
C282 N281 1.376 . S
C282 C283 1.446 . S
C282 C305 1.391 . S
C283 C282 1.446 . S
C283 C284 1.339 . S
C283 H312 0.949 . S
C284 C283 1.339 . S
C284 C285 1.439 . S
C284 H313 0.950 . S
C285 N281 1.383 . S
C285 C284 1.439 . S
C285 C303 1.392 . S
N286 Co270 2.282 . S
N286 C289 1.332 . S
N286 C291 1.332 . S
C287 C288 1.386 . S
C287 C290 1.388 . S
C288 C287 1.386 . S
C288 C289 1.382 . S
C288 H314 0.950 . S
C289 N286 1.332 . S
C289 C288 1.382 . S
C289 H300 0.952 . S
C290 C287 1.388 . S
C290 C291 1.382 . S
C290 H315 0.950 . S
C291 N286 1.332 . S
C291 C290 1.382 . S
C291 H301 0.948 . S
N292 Co270 2.282 . S
N292 C296 1.332 . S
N292 C297 1.332 . S
C293 C294 1.388 . S
C293 C297 1.382 . S
C293 H316 0.950 . S
C294 C293 1.388 . S
C294 C295 1.386 . S
C295 C294 1.386 . S
C295 C296 1.382 . S
C295 H317 0.950 . S
C296 N292 1.332 . S
C296 C295 1.382 . S
C296 H298 0.952 . S
C297 N292 1.332 . S
C297 C293 1.382 . S
C297 H299 0.948 . S
H298 C296 0.952 . S
H299 C297 0.948 . S
H300 C289 0.952 . S
H301 C291 0.948 . S
C302 C268 1.395 . S
C302 C272 1.391 . S
C303 C265 1.389 . S
C303 C285 1.392 . S
C304 C275 1.392 . S
C304 C277 1.389 . S
C305 C280 1.395 . S
C305 C282 1.391 . S
H306 C266 0.951 . S
H307 C267 0.950 . S
H308 C273 0.949 . S
H309 C274 0.950 . S
H310 C278 0.951 . S
H311 C279 0.950 . S
H312 C283 0.949 . S
H313 C284 0.950 . S
H314 C288 0.950 . S
H315 C290 0.950 . S
H316 C293 0.950 . S
H317 C295 0.950 . S
C318 C319 1.443 . S
C318 N322 1.376 . S
C318 C356 1.389 . S
C319 C318 1.443 . S
C319 C320 1.340 . S
C319 H359 0.951 . S
C320 C319 1.340 . S
C320 C321 1.439 . S
C320 H360 0.950 . S
C321 C320 1.439 . S
C321 N322 1.374 . S
C321 C355 1.395 . S
N322 C318 1.376 . S
N322 C321 1.374 . S
N322 Co323 2.008 . S
Co323 N322 2.008 . S
Co323 N324 1.995 . S
Co323 N329 2.008 . S
Co323 N334 1.995 . S
Co323 N339 2.282 . S
Co323 N345 2.282 . S
N324 Co323 1.995 . S
N324 C325 1.376 . S
N324 C328 1.383 . S
C325 N324 1.376 . S
C325 C326 1.446 . S
C325 C355 1.391 . S
C326 C325 1.446 . S
C326 C327 1.339 . S
C326 H361 0.949 . S
C327 C326 1.339 . S
C327 C328 1.439 . S
C327 H362 0.950 . S
C328 N324 1.383 . S
C328 C327 1.439 . S
C328 C357 1.392 . S
N329 Co323 2.008 . S
N329 C330 1.376 . S
N329 C333 1.374 . S
C330 N329 1.376 . S
C330 C331 1.443 . S
C330 C357 1.389 . S
C331 C330 1.443 . S
C331 C332 1.340 . S
C331 H363 0.951 . S
C332 C331 1.340 . S
C332 C333 1.439 . S
C332 H364 0.950 . S
C333 N329 1.374 . S
C333 C332 1.439 . S
C333 C358 1.395 . S
N334 Co323 1.995 . S
N334 C335 1.376 . S
N334 C338 1.383 . S
C335 N334 1.376 . S
C335 C336 1.446 . S
C335 C358 1.391 . S
C336 C335 1.446 . S
C336 C337 1.339 . S
C336 H365 0.949 . S
C337 C336 1.339 . S
C337 C338 1.439 . S
C337 H366 0.950 . S
C338 N334 1.383 . S
C338 C337 1.439 . S
C338 C356 1.392 . S
N339 Co323 2.282 . S
N339 C342 1.332 . S
N339 C344 1.332 . S
C340 C341 1.386 . S
C340 C343 1.388 . S
C341 C340 1.386 . S
C341 C342 1.382 . S
C341 H367 0.950 . S
C342 N339 1.332 . S
C342 C341 1.382 . S
C342 H353 0.952 . S
C343 C340 1.388 . S
C343 C344 1.382 . S
C343 H368 0.950 . S
C344 N339 1.332 . S
C344 C343 1.382 . S
C344 H354 0.948 . S
N345 Co323 2.282 . S
N345 C349 1.332 . S
N345 C350 1.332 . S
C346 C347 1.388 . S
C346 C350 1.382 . S
C346 H369 0.950 . S
C347 C346 1.388 . S
C347 C348 1.386 . S
C348 C347 1.386 . S
C348 C349 1.382 . S
C348 H370 0.950 . S
C349 N345 1.332 . S
C349 C348 1.382 . S
C349 H351 0.952 . S
C350 N345 1.332 . S
C350 C346 1.382 . S
C350 H352 0.948 . S
H351 C349 0.952 . S
H352 C350 0.948 . S
H353 C342 0.952 . S
H354 C344 0.948 . S
C355 C321 1.395 . S
C355 C325 1.391 . S
C356 C318 1.389 . S
C356 C338 1.392 . S
C357 C328 1.392 . S
C357 C330 1.389 . S
C358 C333 1.395 . S
C358 C335 1.391 . S
H359 C319 0.951 . S
H360 C320 0.950 . S
H361 C326 0.949 . S
H362 C327 0.950 . S
H363 C331 0.951 . S
H364 C332 0.950 . S
H365 C336 0.949 . S
H366 C337 0.950 . S
H367 C341 0.950 . S
H368 C343 0.950 . S
H369 C346 0.950 . S
H370 C348 0.950 . S
C371 C372 1.443 . S
C371 N375 1.376 . S
C371 C409 1.389 . S
C372 C371 1.443 . S
C372 C373 1.340 . S
C372 H412 0.951 . S
C373 C372 1.340 . S
C373 C374 1.439 . S
C373 H413 0.950 . S
C374 C373 1.439 . S
C374 N375 1.374 . S
C374 C408 1.395 . S
N375 C371 1.376 . S
N375 C374 1.374 . S
N375 Co376 2.008 . S
Co376 N375 2.008 . S
Co376 N377 1.995 . S
Co376 N382 2.008 . S
Co376 N387 1.995 . S
Co376 N392 2.282 . S
Co376 N398 2.282 . S
N377 Co376 1.995 . S
N377 C378 1.376 . S
N377 C381 1.383 . S
C378 N377 1.376 . S
C378 C379 1.446 . S
C378 C408 1.391 . S
C379 C378 1.446 . S
C379 C380 1.339 . S
C379 H414 0.949 . S
C380 C379 1.339 . S
C380 C381 1.439 . S
C380 H415 0.950 . S
C381 N377 1.383 . S
C381 C380 1.439 . S
C381 C410 1.392 . S
N382 Co376 2.008 . S
N382 C383 1.376 . S
N382 C386 1.374 . S
C383 N382 1.376 . S
C383 C384 1.443 . S
C383 C410 1.389 . S
C384 C383 1.443 . S
C384 C385 1.340 . S
C384 H416 0.951 . S
C385 C384 1.340 . S
C385 C386 1.439 . S
C385 H417 0.950 . S
C386 N382 1.374 . S
C386 C385 1.439 . S
C386 C411 1.395 . S
N387 Co376 1.995 . S
N387 C388 1.376 . S
N387 C391 1.383 . S
C388 N387 1.376 . S
C388 C389 1.446 . S
C388 C411 1.391 . S
C389 C388 1.446 . S
C389 C390 1.339 . S
C389 H418 0.949 . S
C390 C389 1.339 . S
C390 C391 1.439 . S
C390 H419 0.950 . S
C391 N387 1.383 . S
C391 C390 1.439 . S
C391 C409 1.392 . S
N392 Co376 2.282 . S
N392 C395 1.332 . S
N392 C397 1.332 . S
C393 C394 1.386 . S
C393 C396 1.388 . S
C394 C393 1.386 . S
C394 C395 1.382 . S
C394 H420 0.950 . S
C395 N392 1.332 . S
C395 C394 1.382 . S
C395 H406 0.952 . S
C396 C393 1.388 . S
C396 C397 1.382 . S
C396 H421 0.950 . S
C397 N392 1.332 . S
C397 C396 1.382 . S
C397 H407 0.948 . S
N398 Co376 2.282 . S
N398 C402 1.332 . S
N398 C403 1.332 . S
C399 C400 1.388 . S
C399 C403 1.382 . S
C399 H422 0.950 . S
C400 C399 1.388 . S
C400 C401 1.386 . S
C401 C400 1.386 . S
C401 C402 1.382 . S
C401 H423 0.950 . S
C402 N398 1.332 . S
C402 C401 1.382 . S
C402 H404 0.952 . S
C403 N398 1.332 . S
C403 C399 1.382 . S
C403 H405 0.948 . S
H404 C402 0.952 . S
H405 C403 0.948 . S
H406 C395 0.952 . S
H407 C397 0.948 . S
C408 C374 1.395 . S
C408 C378 1.391 . S
C409 C371 1.389 . S
C409 C391 1.392 . S
C410 C381 1.392 . S
C410 C383 1.389 . S
C411 C386 1.395 . S
C411 C388 1.391 . S
H412 C372 0.951 . S
H413 C373 0.950 . S
H414 C379 0.949 . S
H415 C380 0.950 . S
H416 C384 0.951 . S
H417 C385 0.950 . S
H418 C389 0.949 . S
H419 C390 0.950 . S
H420 C394 0.950 . S
H421 C396 0.950 . S
H422 C399 0.950 . S
H423 C401 0.950 . S
C424 C425 1.443 . S
C424 N428 1.376 . S
C424 C462 1.389 . S
C425 C424 1.443 . S
C425 C426 1.340 . S
C425 H465 0.951 . S
C426 C425 1.340 . S
C426 C427 1.439 . S
C426 H466 0.950 . S
C427 C426 1.439 . S
C427 N428 1.374 . S
C427 C461 1.395 . S
N428 C424 1.376 . S
N428 C427 1.374 . S
N428 Co429 2.008 . S
Co429 N428 2.008 . S
Co429 N430 1.995 . S
Co429 N435 2.008 . S
Co429 N440 1.995 . S
Co429 N445 2.282 . S
Co429 N451 2.282 . S
N430 Co429 1.995 . S
N430 C431 1.376 . S
N430 C434 1.383 . S
C431 N430 1.376 . S
C431 C432 1.446 . S
C431 C461 1.391 . S
C432 C431 1.446 . S
C432 C433 1.339 . S
C432 H467 0.949 . S
C433 C432 1.339 . S
C433 C434 1.439 . S
C433 H468 0.950 . S
C434 N430 1.383 . S
C434 C433 1.439 . S
C434 C463 1.392 . S
N435 Co429 2.008 . S
N435 C436 1.376 . S
N435 C439 1.374 . S
C436 N435 1.376 . S
C436 C437 1.443 . S
C436 C463 1.389 . S
C437 C436 1.443 . S
C437 C438 1.340 . S
C437 H469 0.951 . S
C438 C437 1.340 . S
C438 C439 1.439 . S
C438 H470 0.950 . S
C439 N435 1.374 . S
C439 C438 1.439 . S
C439 C464 1.395 . S
N440 Co429 1.995 . S
N440 C441 1.376 . S
N440 C444 1.383 . S
C441 N440 1.376 . S
C441 C442 1.446 . S
C441 C464 1.391 . S
C442 C441 1.446 . S
C442 C443 1.339 . S
C442 H471 0.949 . S
C443 C442 1.339 . S
C443 C444 1.439 . S
C443 H472 0.950 . S
C444 N440 1.383 . S
C444 C443 1.439 . S
C444 C462 1.392 . S
N445 Co429 2.282 . S
N445 C448 1.332 . S
N445 C450 1.332 . S
C446 C447 1.386 . S
C446 C449 1.388 . S
C447 C446 1.386 . S
C447 C448 1.382 . S
C447 H473 0.950 . S
C448 N445 1.332 . S
C448 C447 1.382 . S
C448 H459 0.952 . S
C449 C446 1.388 . S
C449 C450 1.382 . S
C449 H474 0.950 . S
C450 N445 1.332 . S
C450 C449 1.382 . S
C450 H460 0.948 . S
N451 Co429 2.282 . S
N451 C455 1.332 . S
N451 C456 1.332 . S
C452 C453 1.388 . S
C452 C456 1.382 . S
C452 H475 0.950 . S
C453 C452 1.388 . S
C453 C454 1.386 . S
C454 C453 1.386 . S
C454 C455 1.382 . S
C454 H476 0.950 . S
C455 N451 1.332 . S
C455 C454 1.382 . S
C455 H457 0.952 . S
C456 N451 1.332 . S
C456 C452 1.382 . S
C456 H458 0.948 . S
H457 C455 0.952 . S
H458 C456 0.948 . S
H459 C448 0.952 . S
H460 C450 0.948 . S
C461 C427 1.395 . S
C461 C431 1.391 . S
C462 C424 1.389 . S
C462 C444 1.392 . S
C463 C434 1.392 . S
C463 C436 1.389 . S
C464 C439 1.395 . S
C464 C441 1.391 . S
H465 C425 0.951 . S
H466 C426 0.950 . S
H467 C432 0.949 . S
H468 C433 0.950 . S
H469 C437 0.951 . S
H470 C438 0.950 . S
H471 C442 0.949 . S
H472 C443 0.950 . S
H473 C447 0.950 . S
H474 C449 0.950 . S
H475 C452 0.950 . S
H476 C454 0.950 . S
C477 C478 1.443 . S
C477 N481 1.376 . S
C477 C515 1.389 . S
C478 C477 1.443 . S
C478 C479 1.340 . S
C478 H518 0.951 . S
C479 C478 1.340 . S
C479 C480 1.439 . S
C479 H519 0.950 . S
C480 C479 1.439 . S
C480 N481 1.374 . S
C480 C514 1.395 . S
N481 C477 1.376 . S
N481 C480 1.374 . S
N481 Co482 2.008 . S
Co482 N481 2.008 . S
Co482 N483 1.995 . S
Co482 N488 2.008 . S
Co482 N493 1.995 . S
Co482 N498 2.282 . S
Co482 N504 2.282 . S
N483 Co482 1.995 . S
N483 C484 1.376 . S
N483 C487 1.383 . S
C484 N483 1.376 . S
C484 C485 1.446 . S
C484 C514 1.391 . S
C485 C484 1.446 . S
C485 C486 1.339 . S
C485 H520 0.949 . S
C486 C485 1.339 . S
C486 C487 1.439 . S
C486 H521 0.950 . S
C487 N483 1.383 . S
C487 C486 1.439 . S
C487 C516 1.392 . S
N488 Co482 2.008 . S
N488 C489 1.376 . S
N488 C492 1.374 . S
C489 N488 1.376 . S
C489 C490 1.443 . S
C489 C516 1.389 . S
C490 C489 1.443 . S
C490 C491 1.340 . S
C490 H522 0.951 . S
C491 C490 1.340 . S
C491 C492 1.439 . S
C491 H523 0.950 . S
C492 N488 1.374 . S
C492 C491 1.439 . S
C492 C517 1.395 . S
N493 Co482 1.995 . S
N493 C494 1.376 . S
N493 C497 1.383 . S
C494 N493 1.376 . S
C494 C495 1.446 . S
C494 C517 1.391 . S
C495 C494 1.446 . S
C495 C496 1.339 . S
C495 H524 0.949 . S
C496 C495 1.339 . S
C496 C497 1.439 . S
C496 H525 0.950 . S
C497 N493 1.383 . S
C497 C496 1.439 . S
C497 C515 1.392 . S
N498 Co482 2.282 . S
N498 C501 1.332 . S
N498 C503 1.332 . S
C499 C500 1.386 . S
C499 C502 1.388 . S
C500 C499 1.386 . S
C500 C501 1.382 . S
C500 H526 0.950 . S
C501 N498 1.332 . S
C501 C500 1.382 . S
C501 H512 0.952 . S
C502 C499 1.388 . S
C502 C503 1.382 . S
C502 H527 0.950 . S
C503 N498 1.332 . S
C503 C502 1.382 . S
C503 H513 0.948 . S
N504 Co482 2.282 . S
N504 C508 1.332 . S
N504 C509 1.332 . S
C505 C506 1.388 . S
C505 C509 1.382 . S
C505 H528 0.950 . S
C506 C505 1.388 . S
C506 C507 1.386 . S
C507 C506 1.386 . S
C507 C508 1.382 . S
C507 H529 0.950 . S
C508 N504 1.332 . S
C508 C507 1.382 . S
C508 H510 0.952 . S
C509 N504 1.332 . S
C509 C505 1.382 . S
C509 H511 0.948 . S
H510 C508 0.952 . S
H511 C509 0.948 . S
H512 C501 0.952 . S
H513 C503 0.948 . S
C514 C480 1.395 . S
C514 C484 1.391 . S
C515 C477 1.389 . S
C515 C497 1.392 . S
C516 C487 1.392 . S
C516 C489 1.389 . S
C517 C492 1.395 . S
C517 C494 1.391 . S
H518 C478 0.951 . S
H519 C479 0.950 . S
H520 C485 0.949 . S
H521 C486 0.950 . S
H522 C490 0.951 . S
H523 C491 0.950 . S
H524 C495 0.949 . S
H525 C496 0.950 . S
H526 C500 0.950 . S
H527 C502 0.950 . S
H528 C505 0.950 . S
H529 C507 0.950 . S
C530 C531 1.443 . S
C530 N534 1.376 . S
C530 C568 1.389 . S
C531 C530 1.443 . S
C531 C532 1.340 . S
C531 H571 0.951 . S
C532 C531 1.340 . S
C532 C533 1.439 . S
C532 H572 0.950 . S
C533 C532 1.439 . S
C533 N534 1.374 . S
C533 C567 1.395 . S
N534 C530 1.376 . S
N534 C533 1.374 . S
N534 Co535 2.008 . S
Co535 N534 2.008 . S
Co535 N536 1.995 . S
Co535 N541 2.008 . S
Co535 N546 1.995 . S
Co535 N551 2.282 . S
Co535 N557 2.282 . S
N536 Co535 1.995 . S
N536 C537 1.376 . S
N536 C540 1.383 . S
C537 N536 1.376 . S
C537 C538 1.446 . S
C537 C567 1.391 . S
C538 C537 1.446 . S
C538 C539 1.339 . S
C538 H573 0.949 . S
C539 C538 1.339 . S
C539 C540 1.439 . S
C539 H574 0.950 . S
C540 N536 1.383 . S
C540 C539 1.439 . S
C540 C569 1.392 . S
N541 Co535 2.008 . S
N541 C542 1.376 . S
N541 C545 1.374 . S
C542 N541 1.376 . S
C542 C543 1.443 . S
C542 C569 1.389 . S
C543 C542 1.443 . S
C543 C544 1.340 . S
C543 H575 0.951 . S
C544 C543 1.340 . S
C544 C545 1.439 . S
C544 H576 0.950 . S
C545 N541 1.374 . S
C545 C544 1.439 . S
C545 C570 1.395 . S
N546 Co535 1.995 . S
N546 C547 1.376 . S
N546 C550 1.383 . S
C547 N546 1.376 . S
C547 C548 1.446 . S
C547 C570 1.391 . S
C548 C547 1.446 . S
C548 C549 1.339 . S
C548 H577 0.949 . S
C549 C548 1.339 . S
C549 C550 1.439 . S
C549 H578 0.950 . S
C550 N546 1.383 . S
C550 C549 1.439 . S
C550 C568 1.392 . S
N551 Co535 2.282 . S
N551 C554 1.332 . S
N551 C556 1.332 . S
C552 C553 1.386 . S
C552 C555 1.388 . S
C553 C552 1.386 . S
C553 C554 1.382 . S
C553 H579 0.950 . S
C554 N551 1.332 . S
C554 C553 1.382 . S
C554 H565 0.952 . S
C555 C552 1.388 . S
C555 C556 1.382 . S
C555 H580 0.950 . S
C556 N551 1.332 . S
C556 C555 1.382 . S
C556 H566 0.948 . S
N557 Co535 2.282 . S
N557 C561 1.332 . S
N557 C562 1.332 . S
C558 C559 1.388 . S
C558 C562 1.382 . S
C558 H581 0.950 . S
C559 C558 1.388 . S
C559 C560 1.386 . S
C560 C559 1.386 . S
C560 C561 1.382 . S
C560 H582 0.950 . S
C561 N557 1.332 . S
C561 C560 1.382 . S
C561 H563 0.952 . S
C562 N557 1.332 . S
C562 C558 1.382 . S
C562 H564 0.948 . S
H563 C561 0.952 . S
H564 C562 0.948 . S
H565 C554 0.952 . S
H566 C556 0.948 . S
C567 C533 1.395 . S
C567 C537 1.391 . S
C568 C530 1.389 . S
C568 C550 1.392 . S
C569 C540 1.392 . S
C569 C542 1.389 . S
C570 C545 1.395 . S
C570 C547 1.391 . S
H571 C531 0.951 . S
H572 C532 0.950 . S
H573 C538 0.949 . S
H574 C539 0.950 . S
H575 C543 0.951 . S
H576 C544 0.950 . S
H577 C548 0.949 . S
H578 C549 0.950 . S
H579 C553 0.950 . S
H580 C555 0.950 . S
H581 C558 0.950 . S
H582 C560 0.950 . S
C583 C584 1.443 . S
C583 N587 1.376 . S
C583 C621 1.389 . S
C584 C583 1.443 . S
C584 C585 1.340 . S
C584 H624 0.951 . S
C585 C584 1.340 . S
C585 C586 1.439 . S
C585 H625 0.950 . S
C586 C585 1.439 . S
C586 N587 1.374 . S
C586 C620 1.395 . S
N587 C583 1.376 . S
N587 C586 1.374 . S
N587 Co588 2.008 . S
Co588 N587 2.008 . S
Co588 N589 1.995 . S
Co588 N594 2.008 . S
Co588 N599 1.995 . S
Co588 N604 2.282 . S
Co588 N610 2.282 . S
N589 Co588 1.995 . S
N589 C590 1.376 . S
N589 C593 1.383 . S
C590 N589 1.376 . S
C590 C591 1.446 . S
C590 C620 1.391 . S
C591 C590 1.446 . S
C591 C592 1.339 . S
C591 H626 0.949 . S
C592 C591 1.339 . S
C592 C593 1.439 . S
C592 H627 0.950 . S
C593 N589 1.383 . S
C593 C592 1.439 . S
C593 C622 1.392 . S
N594 Co588 2.008 . S
N594 C595 1.376 . S
N594 C598 1.374 . S
C595 N594 1.376 . S
C595 C596 1.443 . S
C595 C622 1.389 . S
C596 C595 1.443 . S
C596 C597 1.340 . S
C596 H628 0.951 . S
C597 C596 1.340 . S
C597 C598 1.439 . S
C597 H629 0.950 . S
C598 N594 1.374 . S
C598 C597 1.439 . S
C598 C623 1.395 . S
N599 Co588 1.995 . S
N599 C600 1.376 . S
N599 C603 1.383 . S
C600 N599 1.376 . S
C600 C601 1.446 . S
C600 C623 1.391 . S
C601 C600 1.446 . S
C601 C602 1.339 . S
C601 H630 0.949 . S
C602 C601 1.339 . S
C602 C603 1.439 . S
C602 H631 0.950 . S
C603 N599 1.383 . S
C603 C602 1.439 . S
C603 C621 1.392 . S
N604 Co588 2.282 . S
N604 C607 1.332 . S
N604 C609 1.332 . S
C605 C606 1.386 . S
C605 C608 1.388 . S
C606 C605 1.386 . S
C606 C607 1.382 . S
C606 H632 0.950 . S
C607 N604 1.332 . S
C607 C606 1.382 . S
C607 H618 0.952 . S
C608 C605 1.388 . S
C608 C609 1.382 . S
C608 H633 0.950 . S
C609 N604 1.332 . S
C609 C608 1.382 . S
C609 H619 0.948 . S
N610 Co588 2.282 . S
N610 C614 1.332 . S
N610 C615 1.332 . S
C611 C612 1.388 . S
C611 C615 1.382 . S
C611 H634 0.950 . S
C612 C611 1.388 . S
C612 C613 1.386 . S
C613 C612 1.386 . S
C613 C614 1.382 . S
C613 H635 0.950 . S
C614 N610 1.332 . S
C614 C613 1.382 . S
C614 H616 0.952 . S
C615 N610 1.332 . S
C615 C611 1.382 . S
C615 H617 0.948 . S
H616 C614 0.952 . S
H617 C615 0.948 . S
H618 C607 0.952 . S
H619 C609 0.948 . S
C620 C586 1.395 . S
C620 C590 1.391 . S
C621 C583 1.389 . S
C621 C603 1.392 . S
C622 C593 1.392 . S
C622 C595 1.389 . S
C623 C598 1.395 . S
C623 C600 1.391 . S
H624 C584 0.951 . S
H625 C585 0.950 . S
H626 C591 0.949 . S
H627 C592 0.950 . S
H628 C596 0.951 . S
H629 C597 0.950 . S
H630 C601 0.949 . S
H631 C602 0.950 . S
H632 C606 0.950 . S
H633 C608 0.950 . S
H634 C611 0.950 . S
H635 C613 0.950 . S
C636 C637 1.443 . S
C636 N640 1.376 . S
C636 C674 1.389 . S
C637 C636 1.443 . S
C637 C638 1.340 . S
C637 H677 0.951 . S
C638 C637 1.340 . S
C638 C639 1.439 . S
C638 H678 0.950 . S
C639 C638 1.439 . S
C639 N640 1.374 . S
C639 C673 1.395 . S
N640 C636 1.376 . S
N640 C639 1.374 . S
N640 Co641 2.008 . S
Co641 N640 2.008 . S
Co641 N642 1.995 . S
Co641 N647 2.008 . S
Co641 N652 1.995 . S
Co641 N657 2.282 . S
Co641 N663 2.282 . S
N642 Co641 1.995 . S
N642 C643 1.376 . S
N642 C646 1.383 . S
C643 N642 1.376 . S
C643 C644 1.446 . S
C643 C673 1.391 . S
C644 C643 1.446 . S
C644 C645 1.339 . S
C644 H679 0.949 . S
C645 C644 1.339 . S
C645 C646 1.439 . S
C645 H680 0.950 . S
C646 N642 1.383 . S
C646 C645 1.439 . S
C646 C675 1.392 . S
N647 Co641 2.008 . S
N647 C648 1.376 . S
N647 C651 1.374 . S
C648 N647 1.376 . S
C648 C649 1.443 . S
C648 C675 1.389 . S
C649 C648 1.443 . S
C649 C650 1.340 . S
C649 H681 0.951 . S
C650 C649 1.340 . S
C650 C651 1.439 . S
C650 H682 0.950 . S
C651 N647 1.374 . S
C651 C650 1.439 . S
C651 C676 1.395 . S
N652 Co641 1.995 . S
N652 C653 1.376 . S
N652 C656 1.383 . S
C653 N652 1.376 . S
C653 C654 1.446 . S
C653 C676 1.391 . S
C654 C653 1.446 . S
C654 C655 1.339 . S
C654 H683 0.949 . S
C655 C654 1.339 . S
C655 C656 1.439 . S
C655 H684 0.950 . S
C656 N652 1.383 . S
C656 C655 1.439 . S
C656 C674 1.392 . S
N657 Co641 2.282 . S
N657 C660 1.332 . S
N657 C662 1.332 . S
C658 C659 1.386 . S
C658 C661 1.388 . S
C659 C658 1.386 . S
C659 C660 1.382 . S
C659 H685 0.950 . S
C660 N657 1.332 . S
C660 C659 1.382 . S
C660 H671 0.952 . S
C661 C658 1.388 . S
C661 C662 1.382 . S
C661 H686 0.950 . S
C662 N657 1.332 . S
C662 C661 1.382 . S
C662 H672 0.948 . S
N663 Co641 2.282 . S
N663 C667 1.332 . S
N663 C668 1.332 . S
C664 C665 1.388 . S
C664 C668 1.382 . S
C664 H687 0.950 . S
C665 C664 1.388 . S
C665 C666 1.386 . S
C666 C665 1.386 . S
C666 C667 1.382 . S
C666 H688 0.950 . S
C667 N663 1.332 . S
C667 C666 1.382 . S
C667 H669 0.952 . S
C668 N663 1.332 . S
C668 C664 1.382 . S
C668 H670 0.948 . S
H669 C667 0.952 . S
H670 C668 0.948 . S
H671 C660 0.952 . S
H672 C662 0.948 . S
C673 C639 1.395 . S
C673 C643 1.391 . S
C674 C636 1.389 . S
C674 C656 1.392 . S
C675 C646 1.392 . S
C675 C648 1.389 . S
C676 C651 1.395 . S
C676 C653 1.391 . S
H677 C637 0.951 . S
H678 C638 0.950 . S
H679 C644 0.949 . S
H680 C645 0.950 . S
H681 C649 0.951 . S
H682 C650 0.950 . S
H683 C654 0.949 . S
H684 C655 0.950 . S
H685 C659 0.950 . S
H686 C661 0.950 . S
H687 C664 0.950 . S
H688 C666 0.950 . S
C689 C690 1.443 . S
C689 N693 1.376 . S
C689 C727 1.389 . S
C690 C689 1.443 . S
C690 C691 1.340 . S
C690 H730 0.951 . S
C691 C690 1.340 . S
C691 C692 1.439 . S
C691 H731 0.950 . S
C692 C691 1.439 . S
C692 N693 1.374 . S
C692 C726 1.395 . S
N693 C689 1.376 . S
N693 C692 1.374 . S
N693 Co694 2.008 . S
Co694 N693 2.008 . S
Co694 N695 1.995 . S
Co694 N700 2.008 . S
Co694 N705 1.995 . S
Co694 N710 2.282 . S
Co694 N716 2.282 . S
N695 Co694 1.995 . S
N695 C696 1.376 . S
N695 C699 1.383 . S
C696 N695 1.376 . S
C696 C697 1.446 . S
C696 C726 1.391 . S
C697 C696 1.446 . S
C697 C698 1.339 . S
C697 H732 0.949 . S
C698 C697 1.339 . S
C698 C699 1.439 . S
C698 H733 0.950 . S
C699 N695 1.383 . S
C699 C698 1.439 . S
C699 C728 1.392 . S
N700 Co694 2.008 . S
N700 C701 1.376 . S
N700 C704 1.374 . S
C701 N700 1.376 . S
C701 C702 1.443 . S
C701 C728 1.389 . S
C702 C701 1.443 . S
C702 C703 1.340 . S
C702 H734 0.951 . S
C703 C702 1.340 . S
C703 C704 1.439 . S
C703 H735 0.950 . S
C704 N700 1.374 . S
C704 C703 1.439 . S
C704 C729 1.395 . S
N705 Co694 1.995 . S
N705 C706 1.376 . S
N705 C709 1.383 . S
C706 N705 1.376 . S
C706 C707 1.446 . S
C706 C729 1.391 . S
C707 C706 1.446 . S
C707 C708 1.339 . S
C707 H736 0.949 . S
C708 C707 1.339 . S
C708 C709 1.439 . S
C708 H737 0.950 . S
C709 N705 1.383 . S
C709 C708 1.439 . S
C709 C727 1.392 . S
N710 Co694 2.282 . S
N710 C713 1.332 . S
N710 C715 1.332 . S
C711 C712 1.386 . S
C711 C714 1.388 . S
C712 C711 1.386 . S
C712 C713 1.382 . S
C712 H738 0.950 . S
C713 N710 1.332 . S
C713 C712 1.382 . S
C713 H724 0.952 . S
C714 C711 1.388 . S
C714 C715 1.382 . S
C714 H739 0.950 . S
C715 N710 1.332 . S
C715 C714 1.382 . S
C715 H725 0.948 . S
N716 Co694 2.282 . S
N716 C720 1.332 . S
N716 C721 1.332 . S
C717 C718 1.388 . S
C717 C721 1.382 . S
C717 H740 0.950 . S
C718 C717 1.388 . S
C718 C719 1.386 . S
C719 C718 1.386 . S
C719 C720 1.382 . S
C719 H741 0.950 . S
C720 N716 1.332 . S
C720 C719 1.382 . S
C720 H722 0.952 . S
C721 N716 1.332 . S
C721 C717 1.382 . S
C721 H723 0.948 . S
H722 C720 0.952 . S
H723 C721 0.948 . S
H724 C713 0.952 . S
H725 C715 0.948 . S
C726 C692 1.395 . S
C726 C696 1.391 . S
C727 C689 1.389 . S
C727 C709 1.392 . S
C728 C699 1.392 . S
C728 C701 1.389 . S
C729 C704 1.395 . S
C729 C706 1.391 . S
H730 C690 0.951 . S
H731 C691 0.950 . S
H732 C697 0.949 . S
H733 C698 0.950 . S
H734 C702 0.951 . S
H735 C703 0.950 . S
H736 C707 0.949 . S
H737 C708 0.950 . S
H738 C712 0.950 . S
H739 C714 0.950 . S
H740 C717 0.950 . S
H741 C719 0.950 . S
C742 C743 1.443 . S
C742 N746 1.376 . S
C742 C780 1.389 . S
C743 C742 1.443 . S
C743 C744 1.340 . S
C743 H783 0.951 . S
C744 C743 1.340 . S
C744 C745 1.439 . S
C744 H784 0.950 . S
C745 C744 1.439 . S
C745 N746 1.374 . S
C745 C779 1.395 . S
N746 C742 1.376 . S
N746 C745 1.374 . S
N746 Co747 2.008 . S
Co747 N746 2.008 . S
Co747 N748 1.995 . S
Co747 N753 2.008 . S
Co747 N758 1.995 . S
Co747 N763 2.282 . S
Co747 N769 2.282 . S
N748 Co747 1.995 . S
N748 C749 1.376 . S
N748 C752 1.383 . S
C749 N748 1.376 . S
C749 C750 1.446 . S
C749 C779 1.391 . S
C750 C749 1.446 . S
C750 C751 1.339 . S
C750 H785 0.949 . S
C751 C750 1.339 . S
C751 C752 1.439 . S
C751 H786 0.950 . S
C752 N748 1.383 . S
C752 C751 1.439 . S
C752 C781 1.392 . S
N753 Co747 2.008 . S
N753 C754 1.376 . S
N753 C757 1.374 . S
C754 N753 1.376 . S
C754 C755 1.443 . S
C754 C781 1.389 . S
C755 C754 1.443 . S
C755 C756 1.340 . S
C755 H787 0.951 . S
C756 C755 1.340 . S
C756 C757 1.439 . S
C756 H788 0.950 . S
C757 N753 1.374 . S
C757 C756 1.439 . S
C757 C782 1.395 . S
N758 Co747 1.995 . S
N758 C759 1.376 . S
N758 C762 1.383 . S
C759 N758 1.376 . S
C759 C760 1.446 . S
C759 C782 1.391 . S
C760 C759 1.446 . S
C760 C761 1.339 . S
C760 H789 0.949 . S
C761 C760 1.339 . S
C761 C762 1.439 . S
C761 H790 0.950 . S
C762 N758 1.383 . S
C762 C761 1.439 . S
C762 C780 1.392 . S
N763 Co747 2.282 . S
N763 C766 1.332 . S
N763 C768 1.332 . S
C764 C765 1.386 . S
C764 C767 1.388 . S
C765 C764 1.386 . S
C765 C766 1.382 . S
C765 H791 0.950 . S
C766 N763 1.332 . S
C766 C765 1.382 . S
C766 H777 0.952 . S
C767 C764 1.388 . S
C767 C768 1.382 . S
C767 H792 0.950 . S
C768 N763 1.332 . S
C768 C767 1.382 . S
C768 H778 0.948 . S
N769 Co747 2.282 . S
N769 C773 1.332 . S
N769 C774 1.332 . S
C770 C771 1.388 . S
C770 C774 1.382 . S
C770 H793 0.950 . S
C771 C770 1.388 . S
C771 C772 1.386 . S
C772 C771 1.386 . S
C772 C773 1.382 . S
C772 H794 0.950 . S
C773 N769 1.332 . S
C773 C772 1.382 . S
C773 H775 0.952 . S
C774 N769 1.332 . S
C774 C770 1.382 . S
C774 H776 0.948 . S
H775 C773 0.952 . S
H776 C774 0.948 . S
H777 C766 0.952 . S
H778 C768 0.948 . S
C779 C745 1.395 . S
C779 C749 1.391 . S
C780 C742 1.389 . S
C780 C762 1.392 . S
C781 C752 1.392 . S
C781 C754 1.389 . S
C782 C757 1.395 . S
C782 C759 1.391 . S
H783 C743 0.951 . S
H784 C744 0.950 . S
H785 C750 0.949 . S
H786 C751 0.950 . S
H787 C755 0.951 . S
H788 C756 0.950 . S
H789 C760 0.949 . S
H790 C761 0.950 . S
H791 C765 0.950 . S
H792 C767 0.950 . S
H793 C770 0.950 . S
H794 C772 0.950 . S
C795 C796 1.443 . S
C795 N799 1.376 . S
C795 C833 1.389 . S
C796 C795 1.443 . S
C796 C797 1.340 . S
C796 H836 0.951 . S
C797 C796 1.340 . S
C797 C798 1.439 . S
C797 H837 0.950 . S
C798 C797 1.439 . S
C798 N799 1.374 . S
C798 C832 1.395 . S
N799 C795 1.376 . S
N799 C798 1.374 . S
N799 Co800 2.008 . S
Co800 N799 2.008 . S
Co800 N801 1.995 . S
Co800 N806 2.008 . S
Co800 N811 1.995 . S
Co800 N816 2.282 . S
Co800 N822 2.282 . S
N801 Co800 1.995 . S
N801 C802 1.376 . S
N801 C805 1.383 . S
C802 N801 1.376 . S
C802 C803 1.446 . S
C802 C832 1.391 . S
C803 C802 1.446 . S
C803 C804 1.339 . S
C803 H838 0.949 . S
C804 C803 1.339 . S
C804 C805 1.439 . S
C804 H839 0.950 . S
C805 N801 1.383 . S
C805 C804 1.439 . S
C805 C834 1.392 . S
N806 Co800 2.008 . S
N806 C807 1.376 . S
N806 C810 1.374 . S
C807 N806 1.376 . S
C807 C808 1.443 . S
C807 C834 1.389 . S
C808 C807 1.443 . S
C808 C809 1.340 . S
C808 H840 0.951 . S
C809 C808 1.340 . S
C809 C810 1.439 . S
C809 H841 0.950 . S
C810 N806 1.374 . S
C810 C809 1.439 . S
C810 C835 1.395 . S
N811 Co800 1.995 . S
N811 C812 1.376 . S
N811 C815 1.383 . S
C812 N811 1.376 . S
C812 C813 1.446 . S
C812 C835 1.391 . S
C813 C812 1.446 . S
C813 C814 1.339 . S
C813 H842 0.949 . S
C814 C813 1.339 . S
C814 C815 1.439 . S
C814 H843 0.950 . S
C815 N811 1.383 . S
C815 C814 1.439 . S
C815 C833 1.392 . S
N816 Co800 2.282 . S
N816 C819 1.332 . S
N816 C821 1.332 . S
C817 C818 1.386 . S
C817 C820 1.388 . S
C818 C817 1.386 . S
C818 C819 1.382 . S
C818 H844 0.950 . S
C819 N816 1.332 . S
C819 C818 1.382 . S
C819 H830 0.952 . S
C820 C817 1.388 . S
C820 C821 1.382 . S
C820 H845 0.950 . S
C821 N816 1.332 . S
C821 C820 1.382 . S
C821 H831 0.948 . S
N822 Co800 2.282 . S
N822 C826 1.332 . S
N822 C827 1.332 . S
C823 C824 1.388 . S
C823 C827 1.382 . S
C823 H846 0.950 . S
C824 C823 1.388 . S
C824 C825 1.386 . S
C825 C824 1.386 . S
C825 C826 1.382 . S
C825 H847 0.950 . S
C826 N822 1.332 . S
C826 C825 1.382 . S
C826 H828 0.952 . S
C827 N822 1.332 . S
C827 C823 1.382 . S
C827 H829 0.948 . S
H828 C826 0.952 . S
H829 C827 0.948 . S
H830 C819 0.952 . S
H831 C821 0.948 . S
C832 C798 1.395 . S
C832 C802 1.391 . S
C833 C795 1.389 . S
C833 C815 1.392 . S
C834 C805 1.392 . S
C834 C807 1.389 . S
C835 C810 1.395 . S
C835 C812 1.391 . S
H836 C796 0.951 . S
H837 C797 0.950 . S
H838 C803 0.949 . S
H839 C804 0.950 . S
H840 C808 0.951 . S
H841 C809 0.950 . S
H842 C813 0.949 . S
H843 C814 0.950 . S
H844 C818 0.950 . S
H845 C820 0.950 . S
H846 C823 0.950 . S
H847 C825 0.950 . S
C848 C849 1.443 . S
C848 N852 1.376 . S
C848 C886 1.389 . S
C849 C848 1.443 . S
C849 C850 1.340 . S
C849 H889 0.951 . S
C850 C849 1.340 . S
C850 C851 1.439 . S
C850 H890 0.950 . S
C851 C850 1.439 . S
C851 N852 1.374 . S
C851 C885 1.395 . S
N852 C848 1.376 . S
N852 C851 1.374 . S
N852 Co853 2.008 . S
Co853 N852 2.008 . S
Co853 N854 1.995 . S
Co853 N859 2.008 . S
Co853 N864 1.995 . S
Co853 N869 2.282 . S
Co853 N875 2.282 . S
N854 Co853 1.995 . S
N854 C855 1.376 . S
N854 C858 1.383 . S
C855 N854 1.376 . S
C855 C856 1.446 . S
C855 C885 1.391 . S
C856 C855 1.446 . S
C856 C857 1.339 . S
C856 H891 0.949 . S
C857 C856 1.339 . S
C857 C858 1.439 . S
C857 H892 0.950 . S
C858 N854 1.383 . S
C858 C857 1.439 . S
C858 C887 1.392 . S
N859 Co853 2.008 . S
N859 C860 1.376 . S
N859 C863 1.374 . S
C860 N859 1.376 . S
C860 C861 1.443 . S
C860 C887 1.389 . S
C861 C860 1.443 . S
C861 C862 1.340 . S
C861 H893 0.951 . S
C862 C861 1.340 . S
C862 C863 1.439 . S
C862 H894 0.950 . S
C863 N859 1.374 . S
C863 C862 1.439 . S
C863 C888 1.395 . S
N864 Co853 1.995 . S
N864 C865 1.376 . S
N864 C868 1.383 . S
C865 N864 1.376 . S
C865 C866 1.446 . S
C865 C888 1.391 . S
C866 C865 1.446 . S
C866 C867 1.339 . S
C866 H895 0.949 . S
C867 C866 1.339 . S
C867 C868 1.439 . S
C867 H896 0.950 . S
C868 N864 1.383 . S
C868 C867 1.439 . S
C868 C886 1.392 . S
N869 Co853 2.282 . S
N869 C872 1.332 . S
N869 C874 1.332 . S
C870 C871 1.386 . S
C870 C873 1.388 . S
C871 C870 1.386 . S
C871 C872 1.382 . S
C871 H897 0.950 . S
C872 N869 1.332 . S
C872 C871 1.382 . S
C872 H883 0.952 . S
C873 C870 1.388 . S
C873 C874 1.382 . S
C873 H898 0.950 . S
C874 N869 1.332 . S
C874 C873 1.382 . S
C874 H884 0.948 . S
N875 Co853 2.282 . S
N875 C879 1.332 . S
N875 C880 1.332 . S
C876 C877 1.388 . S
C876 C880 1.382 . S
C876 H899 0.950 . S
C877 C876 1.388 . S
C877 C878 1.386 . S
C878 C877 1.386 . S
C878 C879 1.382 . S
C878 H900 0.950 . S
C879 N875 1.332 . S
C879 C878 1.382 . S
C879 H881 0.952 . S
C880 N875 1.332 . S
C880 C876 1.382 . S
C880 H882 0.948 . S
H881 C879 0.952 . S
H882 C880 0.948 . S
H883 C872 0.952 . S
H884 C874 0.948 . S
C885 C851 1.395 . S
C885 C855 1.391 . S
C886 C848 1.389 . S
C886 C868 1.392 . S
C887 C858 1.392 . S
C887 C860 1.389 . S
C888 C863 1.395 . S
C888 C865 1.391 . S
H889 C849 0.951 . S
H890 C850 0.950 . S
H891 C856 0.949 . S
H892 C857 0.950 . S
H893 C861 0.951 . S
H894 C862 0.950 . S
H895 C866 0.949 . S
H896 C867 0.950 . S
H897 C871 0.950 . S
H898 C873 0.950 . S
H899 C876 0.950 . S
H900 C878 0.950 . S
C901 C902 1.443 . S
C901 N905 1.376 . S
C901 C939 1.389 . S
C902 C901 1.443 . S
C902 C903 1.340 . S
C902 H942 0.951 . S
C903 C902 1.340 . S
C903 C904 1.439 . S
C903 H943 0.950 . S
C904 C903 1.439 . S
C904 N905 1.374 . S
C904 C938 1.395 . S
N905 C901 1.376 . S
N905 C904 1.374 . S
N905 Co906 2.008 . S
Co906 N905 2.008 . S
Co906 N907 1.995 . S
Co906 N912 2.008 . S
Co906 N917 1.995 . S
Co906 N922 2.282 . S
Co906 N928 2.282 . S
N907 Co906 1.995 . S
N907 C908 1.376 . S
N907 C911 1.383 . S
C908 N907 1.376 . S
C908 C909 1.446 . S
C908 C938 1.391 . S
C909 C908 1.446 . S
C909 C910 1.339 . S
C909 H944 0.949 . S
C910 C909 1.339 . S
C910 C911 1.439 . S
C910 H945 0.950 . S
C911 N907 1.383 . S
C911 C910 1.439 . S
C911 C940 1.392 . S
N912 Co906 2.008 . S
N912 C913 1.376 . S
N912 C916 1.374 . S
C913 N912 1.376 . S
C913 C914 1.443 . S
C913 C940 1.389 . S
C914 C913 1.443 . S
C914 C915 1.340 . S
C914 H946 0.951 . S
C915 C914 1.340 . S
C915 C916 1.439 . S
C915 H947 0.950 . S
C916 N912 1.374 . S
C916 C915 1.439 . S
C916 C941 1.395 . S
N917 Co906 1.995 . S
N917 C918 1.376 . S
N917 C921 1.383 . S
C918 N917 1.376 . S
C918 C919 1.446 . S
C918 C941 1.391 . S
C919 C918 1.446 . S
C919 C920 1.339 . S
C919 H948 0.949 . S
C920 C919 1.339 . S
C920 C921 1.439 . S
C920 H949 0.950 . S
C921 N917 1.383 . S
C921 C920 1.439 . S
C921 C939 1.392 . S
N922 Co906 2.282 . S
N922 C925 1.332 . S
N922 C927 1.332 . S
C923 C924 1.386 . S
C923 C926 1.388 . S
C924 C923 1.386 . S
C924 C925 1.382 . S
C924 H950 0.950 . S
C925 N922 1.332 . S
C925 C924 1.382 . S
C925 H936 0.952 . S
C926 C923 1.388 . S
C926 C927 1.382 . S
C926 H951 0.950 . S
C927 N922 1.332 . S
C927 C926 1.382 . S
C927 H937 0.948 . S
N928 Co906 2.282 . S
N928 C932 1.332 . S
N928 C933 1.332 . S
C929 C930 1.388 . S
C929 C933 1.382 . S
C929 H952 0.950 . S
C930 C929 1.388 . S
C930 C931 1.386 . S
C931 C930 1.386 . S
C931 C932 1.382 . S
C931 H953 0.950 . S
C932 N928 1.332 . S
C932 C931 1.382 . S
C932 H934 0.952 . S
C933 N928 1.332 . S
C933 C929 1.382 . S
C933 H935 0.948 . S
H934 C932 0.952 . S
H935 C933 0.948 . S
H936 C925 0.952 . S
H937 C927 0.948 . S
C938 C904 1.395 . S
C938 C908 1.391 . S
C939 C901 1.389 . S
C939 C921 1.392 . S
C940 C911 1.392 . S
C940 C913 1.389 . S
C941 C916 1.395 . S
C941 C918 1.391 . S
H942 C902 0.951 . S
H943 C903 0.950 . S
H944 C909 0.949 . S
H945 C910 0.950 . S
H946 C914 0.951 . S
H947 C915 0.950 . S
H948 C919 0.949 . S
H949 C920 0.950 . S
H950 C924 0.950 . S
H951 C926 0.950 . S
H952 C929 0.950 . S
H953 C931 0.950 . S
C954 C955 1.443 . S
C954 N958 1.376 . S
C954 C992 1.389 . S
C955 C954 1.443 . S
C955 C956 1.340 . S
C955 H995 0.951 . S
C956 C955 1.340 . S
C956 C957 1.439 . S
C956 H996 0.950 . S
C957 C956 1.439 . S
C957 N958 1.374 . S
C957 C991 1.395 . S
N958 C954 1.376 . S
N958 C957 1.374 . S
N958 Co959 2.008 . S
Co959 N958 2.008 . S
Co959 N960 1.995 . S
Co959 N965 2.008 . S
Co959 N970 1.995 . S
Co959 N975 2.282 . S
Co959 N981 2.282 . S
N960 Co959 1.995 . S
N960 C961 1.376 . S
N960 C964 1.383 . S
C961 N960 1.376 . S
C961 C962 1.446 . S
C961 C991 1.391 . S
C962 C961 1.446 . S
C962 C963 1.339 . S
C962 H997 0.949 . S
C963 C962 1.339 . S
C963 C964 1.439 . S
C963 H998 0.950 . S
C964 N960 1.383 . S
C964 C963 1.439 . S
C964 C993 1.392 . S
N965 Co959 2.008 . S
N965 C966 1.376 . S
N965 C969 1.374 . S
C966 N965 1.376 . S
C966 C967 1.443 . S
C966 C993 1.389 . S
C967 C966 1.443 . S
C967 C968 1.340 . S
C967 H999 0.951 . S
C968 C967 1.340 . S
C968 C969 1.439 . S
C968 H1000 0.950 . S
C969 N965 1.374 . S
C969 C968 1.439 . S
C969 C994 1.395 . S
N970 Co959 1.995 . S
N970 C971 1.376 . S
N970 C974 1.383 . S
C971 N970 1.376 . S
C971 C972 1.446 . S
C971 C994 1.391 . S
C972 C971 1.446 . S
C972 C973 1.339 . S
C972 H1001 0.949 . S
C973 C972 1.339 . S
C973 C974 1.439 . S
C973 H1002 0.950 . S
C974 N970 1.383 . S
C974 C973 1.439 . S
C974 C992 1.392 . S
N975 Co959 2.282 . S
N975 C978 1.332 . S
N975 C980 1.332 . S
C976 C977 1.386 . S
C976 C979 1.388 . S
C977 C976 1.386 . S
C977 C978 1.382 . S
C977 H1003 0.950 . S
C978 N975 1.332 . S
C978 C977 1.382 . S
C978 H989 0.952 . S
C979 C976 1.388 . S
C979 C980 1.382 . S
C979 H1004 0.950 . S
C980 N975 1.332 . S
C980 C979 1.382 . S
C980 H990 0.948 . S
N981 Co959 2.282 . S
N981 C985 1.332 . S
N981 C986 1.332 . S
C982 C983 1.388 . S
C982 C986 1.382 . S
C982 H1005 0.950 . S
C983 C982 1.388 . S
C983 C984 1.386 . S
C984 C983 1.386 . S
C984 C985 1.382 . S
C984 H1006 0.950 . S
C985 N981 1.332 . S
C985 C984 1.382 . S
C985 H987 0.952 . S
C986 N981 1.332 . S
C986 C982 1.382 . S
C986 H988 0.948 . S
H987 C985 0.952 . S
H988 C986 0.948 . S
H989 C978 0.952 . S
H990 C980 0.948 . S
C991 C957 1.395 . S
C991 C961 1.391 . S
C992 C954 1.389 . S
C992 C974 1.392 . S
C993 C964 1.392 . S
C993 C966 1.389 . S
C994 C969 1.395 . S
C994 C971 1.391 . S
H995 C955 0.951 . S
H996 C956 0.950 . S
H997 C962 0.949 . S
H998 C963 0.950 . S
H999 C967 0.951 . S
H1000 C968 0.950 . S
H1001 C972 0.949 . S
H1002 C973 0.950 . S
H1003 C977 0.950 . S
H1004 C979 0.950 . S
H1005 C982 0.950 . S
H1006 C984 0.950 . S
C1007 C1008 1.443 . S
C1007 N1011 1.376 . S
C1007 C1045 1.389 . S
C1008 C1007 1.443 . S
C1008 C1009 1.340 . S
C1008 H1048 0.951 . S
C1009 C1008 1.340 . S
C1009 C1010 1.439 . S
C1009 H1049 0.950 . S
C1010 C1009 1.439 . S
C1010 N1011 1.374 . S
C1010 C1044 1.395 . S
N1011 C1007 1.376 . S
N1011 C1010 1.374 . S
N1011 Co1012 2.008 . S
Co1012 N1011 2.008 . S
Co1012 N1013 1.995 . S
Co1012 N1018 2.008 . S
Co1012 N1023 1.995 . S
Co1012 N1028 2.282 . S
Co1012 N1034 2.282 . S
N1013 Co1012 1.995 . S
N1013 C1014 1.376 . S
N1013 C1017 1.383 . S
C1014 N1013 1.376 . S
C1014 C1015 1.446 . S
C1014 C1044 1.391 . S
C1015 C1014 1.446 . S
C1015 C1016 1.339 . S
C1015 H1050 0.949 . S
C1016 C1015 1.339 . S
C1016 C1017 1.439 . S
C1016 H1051 0.950 . S
C1017 N1013 1.383 . S
C1017 C1016 1.439 . S
C1017 C1046 1.392 . S
N1018 Co1012 2.008 . S
N1018 C1019 1.376 . S
N1018 C1022 1.374 . S
C1019 N1018 1.376 . S
C1019 C1020 1.443 . S
C1019 C1046 1.389 . S
C1020 C1019 1.443 . S
C1020 C1021 1.340 . S
C1020 H1052 0.951 . S
C1021 C1020 1.340 . S
C1021 C1022 1.439 . S
C1021 H1053 0.950 . S
C1022 N1018 1.374 . S
C1022 C1021 1.439 . S
C1022 C1047 1.395 . S
N1023 Co1012 1.995 . S
N1023 C1024 1.376 . S
N1023 C1027 1.383 . S
C1024 N1023 1.376 . S
C1024 C1025 1.446 . S
C1024 C1047 1.391 . S
C1025 C1024 1.446 . S
C1025 C1026 1.339 . S
C1025 H1054 0.949 . S
C1026 C1025 1.339 . S
C1026 C1027 1.439 . S
C1026 H1055 0.950 . S
C1027 N1023 1.383 . S
C1027 C1026 1.439 . S
C1027 C1045 1.392 . S
N1028 Co1012 2.282 . S
N1028 C1031 1.332 . S
N1028 C1033 1.332 . S
C1029 C1030 1.386 . S
C1029 C1032 1.388 . S
C1030 C1029 1.386 . S
C1030 C1031 1.382 . S
C1030 H1056 0.950 . S
C1031 N1028 1.332 . S
C1031 C1030 1.382 . S
C1031 H1042 0.952 . S
C1032 C1029 1.388 . S
C1032 C1033 1.382 . S
C1032 H1057 0.950 . S
C1033 N1028 1.332 . S
C1033 C1032 1.382 . S
C1033 H1043 0.948 . S
N1034 Co1012 2.282 . S
N1034 C1038 1.332 . S
N1034 C1039 1.332 . S
C1035 C1036 1.388 . S
C1035 C1039 1.382 . S
C1035 H1058 0.950 . S
C1036 C1035 1.388 . S
C1036 C1037 1.386 . S
C1037 C1036 1.386 . S
C1037 C1038 1.382 . S
C1037 H1059 0.950 . S
C1038 N1034 1.332 . S
C1038 C1037 1.382 . S
C1038 H1040 0.952 . S
C1039 N1034 1.332 . S
C1039 C1035 1.382 . S
C1039 H1041 0.948 . S
H1040 C1038 0.952 . S
H1041 C1039 0.948 . S
H1042 C1031 0.952 . S
H1043 C1033 0.948 . S
C1044 C1010 1.395 . S
C1044 C1014 1.391 . S
C1045 C1007 1.389 . S
C1045 C1027 1.392 . S
C1046 C1017 1.392 . S
C1046 C1019 1.389 . S
C1047 C1022 1.395 . S
C1047 C1024 1.391 . S
H1048 C1008 0.951 . S
H1049 C1009 0.950 . S
H1050 C1015 0.949 . S
H1051 C1016 0.950 . S
H1052 C1020 0.951 . S
H1053 C1021 0.950 . S
H1054 C1025 0.949 . S
H1055 C1026 0.950 . S
H1056 C1030 0.950 . S
H1057 C1032 0.950 . S
H1058 C1035 0.950 . S
H1059 C1037 0.950 . S
C1060 C1061 1.443 . S
C1060 N1064 1.376 . S
C1060 C1098 1.389 . S
C1061 C1060 1.443 . S
C1061 C1062 1.340 . S
C1061 H1101 0.951 . S
C1062 C1061 1.340 . S
C1062 C1063 1.439 . S
C1062 H1102 0.950 . S
C1063 C1062 1.439 . S
C1063 N1064 1.374 . S
C1063 C1097 1.395 . S
N1064 C1060 1.376 . S
N1064 C1063 1.374 . S
N1064 Co1065 2.008 . S
Co1065 N1064 2.008 . S
Co1065 N1066 1.995 . S
Co1065 N1071 2.008 . S
Co1065 N1076 1.995 . S
Co1065 N1081 2.282 . S
Co1065 N1087 2.282 . S
N1066 Co1065 1.995 . S
N1066 C1067 1.376 . S
N1066 C1070 1.383 . S
C1067 N1066 1.376 . S
C1067 C1068 1.446 . S
C1067 C1097 1.391 . S
C1068 C1067 1.446 . S
C1068 C1069 1.339 . S
C1068 H1103 0.949 . S
C1069 C1068 1.339 . S
C1069 C1070 1.439 . S
C1069 H1104 0.950 . S
C1070 N1066 1.383 . S
C1070 C1069 1.439 . S
C1070 C1099 1.392 . S
N1071 Co1065 2.008 . S
N1071 C1072 1.376 . S
N1071 C1075 1.374 . S
C1072 N1071 1.376 . S
C1072 C1073 1.443 . S
C1072 C1099 1.389 . S
C1073 C1072 1.443 . S
C1073 C1074 1.340 . S
C1073 H1105 0.951 . S
C1074 C1073 1.340 . S
C1074 C1075 1.439 . S
C1074 H1106 0.950 . S
C1075 N1071 1.374 . S
C1075 C1074 1.439 . S
C1075 C1100 1.395 . S
N1076 Co1065 1.995 . S
N1076 C1077 1.376 . S
N1076 C1080 1.383 . S
C1077 N1076 1.376 . S
C1077 C1078 1.446 . S
C1077 C1100 1.391 . S
C1078 C1077 1.446 . S
C1078 C1079 1.339 . S
C1078 H1107 0.949 . S
C1079 C1078 1.339 . S
C1079 C1080 1.439 . S
C1079 H1108 0.950 . S
C1080 N1076 1.383 . S
C1080 C1079 1.439 . S
C1080 C1098 1.392 . S
N1081 Co1065 2.282 . S
N1081 C1084 1.332 . S
N1081 C1086 1.332 . S
C1082 C1083 1.386 . S
C1082 C1085 1.388 . S
C1083 C1082 1.386 . S
C1083 C1084 1.382 . S
C1083 H1109 0.950 . S
C1084 N1081 1.332 . S
C1084 C1083 1.382 . S
C1084 H1095 0.952 . S
C1085 C1082 1.388 . S
C1085 C1086 1.382 . S
C1085 H1110 0.950 . S
C1086 N1081 1.332 . S
C1086 C1085 1.382 . S
C1086 H1096 0.948 . S
N1087 Co1065 2.282 . S
N1087 C1091 1.332 . S
N1087 C1092 1.332 . S
C1088 C1089 1.388 . S
C1088 C1092 1.382 . S
C1088 H1111 0.950 . S
C1089 C1088 1.388 . S
C1089 C1090 1.386 . S
C1090 C1089 1.386 . S
C1090 C1091 1.382 . S
C1090 H1112 0.950 . S
C1091 N1087 1.332 . S
C1091 C1090 1.382 . S
C1091 H1093 0.952 . S
C1092 N1087 1.332 . S
C1092 C1088 1.382 . S
C1092 H1094 0.948 . S
H1093 C1091 0.952 . S
H1094 C1092 0.948 . S
H1095 C1084 0.952 . S
H1096 C1086 0.948 . S
C1097 C1063 1.395 . S
C1097 C1067 1.391 . S
C1098 C1060 1.389 . S
C1098 C1080 1.392 . S
C1099 C1070 1.392 . S
C1099 C1072 1.389 . S
C1100 C1075 1.395 . S
C1100 C1077 1.391 . S
H1101 C1061 0.951 . S
H1102 C1062 0.950 . S
H1103 C1068 0.949 . S
H1104 C1069 0.950 . S
H1105 C1073 0.951 . S
H1106 C1074 0.950 . S
H1107 C1078 0.949 . S
H1108 C1079 0.950 . S
H1109 C1083 0.950 . S
H1110 C1085 0.950 . S
H1111 C1088 0.950 . S
H1112 C1090 0.950 . S
C1113 C1114 1.443 . S
C1113 N1117 1.376 . S
C1113 C1151 1.389 . S
C1114 C1113 1.443 . S
C1114 C1115 1.340 . S
C1114 H1154 0.951 . S
C1115 C1114 1.340 . S
C1115 C1116 1.439 . S
C1115 H1155 0.950 . S
C1116 C1115 1.439 . S
C1116 N1117 1.374 . S
C1116 C1150 1.395 . S
N1117 C1113 1.376 . S
N1117 C1116 1.374 . S
N1117 Co1118 2.008 . S
Co1118 N1117 2.008 . S
Co1118 N1119 1.995 . S
Co1118 N1124 2.008 . S
Co1118 N1129 1.995 . S
Co1118 N1134 2.282 . S
Co1118 N1140 2.282 . S
N1119 Co1118 1.995 . S
N1119 C1120 1.376 . S
N1119 C1123 1.383 . S
C1120 N1119 1.376 . S
C1120 C1121 1.446 . S
C1120 C1150 1.391 . S
C1121 C1120 1.446 . S
C1121 C1122 1.339 . S
C1121 H1156 0.949 . S
C1122 C1121 1.339 . S
C1122 C1123 1.439 . S
C1122 H1157 0.950 . S
C1123 N1119 1.383 . S
C1123 C1122 1.439 . S
C1123 C1152 1.392 . S
N1124 Co1118 2.008 . S
N1124 C1125 1.376 . S
N1124 C1128 1.374 . S
C1125 N1124 1.376 . S
C1125 C1126 1.443 . S
C1125 C1152 1.389 . S
C1126 C1125 1.443 . S
C1126 C1127 1.340 . S
C1126 H1158 0.951 . S
C1127 C1126 1.340 . S
C1127 C1128 1.439 . S
C1127 H1159 0.950 . S
C1128 N1124 1.374 . S
C1128 C1127 1.439 . S
C1128 C1153 1.395 . S
N1129 Co1118 1.995 . S
N1129 C1130 1.376 . S
N1129 C1133 1.383 . S
C1130 N1129 1.376 . S
C1130 C1131 1.446 . S
C1130 C1153 1.391 . S
C1131 C1130 1.446 . S
C1131 C1132 1.339 . S
C1131 H1160 0.949 . S
C1132 C1131 1.339 . S
C1132 C1133 1.439 . S
C1132 H1161 0.950 . S
C1133 N1129 1.383 . S
C1133 C1132 1.439 . S
C1133 C1151 1.392 . S
N1134 Co1118 2.282 . S
N1134 C1137 1.332 . S
N1134 C1139 1.332 . S
C1135 C1136 1.386 . S
C1135 C1138 1.388 . S
C1136 C1135 1.386 . S
C1136 C1137 1.382 . S
C1136 H1162 0.950 . S
C1137 N1134 1.332 . S
C1137 C1136 1.382 . S
C1137 H1148 0.952 . S
C1138 C1135 1.388 . S
C1138 C1139 1.382 . S
C1138 H1163 0.950 . S
C1139 N1134 1.332 . S
C1139 C1138 1.382 . S
C1139 H1149 0.948 . S
N1140 Co1118 2.282 . S
N1140 C1144 1.332 . S
N1140 C1145 1.332 . S
C1141 C1142 1.388 . S
C1141 C1145 1.382 . S
C1141 H1164 0.950 . S
C1142 C1141 1.388 . S
C1142 C1143 1.386 . S
C1143 C1142 1.386 . S
C1143 C1144 1.382 . S
C1143 H1165 0.950 . S
C1144 N1140 1.332 . S
C1144 C1143 1.382 . S
C1144 H1146 0.952 . S
C1145 N1140 1.332 . S
C1145 C1141 1.382 . S
C1145 H1147 0.948 . S
H1146 C1144 0.952 . S
H1147 C1145 0.948 . S
H1148 C1137 0.952 . S
H1149 C1139 0.948 . S
C1150 C1116 1.395 . S
C1150 C1120 1.391 . S
C1151 C1113 1.389 . S
C1151 C1133 1.392 . S
C1152 C1123 1.392 . S
C1152 C1125 1.389 . S
C1153 C1128 1.395 . S
C1153 C1130 1.391 . S
H1154 C1114 0.951 . S
H1155 C1115 0.950 . S
H1156 C1121 0.949 . S
H1157 C1122 0.950 . S
H1158 C1126 0.951 . S
H1159 C1127 0.950 . S
H1160 C1131 0.949 . S
H1161 C1132 0.950 . S
H1162 C1136 0.950 . S
H1163 C1138 0.950 . S
H1164 C1141 0.950 . S
H1165 C1143 0.950 . S
C1166 C1167 1.443 . S
C1166 N1170 1.376 . S
C1166 C1204 1.389 . S
C1167 C1166 1.443 . S
C1167 C1168 1.340 . S
C1167 H1207 0.951 . S
C1168 C1167 1.340 . S
C1168 C1169 1.439 . S
C1168 H1208 0.950 . S
C1169 C1168 1.439 . S
C1169 N1170 1.374 . S
C1169 C1203 1.395 . S
N1170 C1166 1.376 . S
N1170 C1169 1.374 . S
N1170 Co1171 2.008 . S
Co1171 N1170 2.008 . S
Co1171 N1172 1.995 . S
Co1171 N1177 2.008 . S
Co1171 N1182 1.995 . S
Co1171 N1187 2.282 . S
Co1171 N1193 2.282 . S
N1172 Co1171 1.995 . S
N1172 C1173 1.376 . S
N1172 C1176 1.383 . S
C1173 N1172 1.376 . S
C1173 C1174 1.446 . S
C1173 C1203 1.391 . S
C1174 C1173 1.446 . S
C1174 C1175 1.339 . S
C1174 H1209 0.949 . S
C1175 C1174 1.339 . S
C1175 C1176 1.439 . S
C1175 H1210 0.950 . S
C1176 N1172 1.383 . S
C1176 C1175 1.439 . S
C1176 C1205 1.392 . S
N1177 Co1171 2.008 . S
N1177 C1178 1.376 . S
N1177 C1181 1.374 . S
C1178 N1177 1.376 . S
C1178 C1179 1.443 . S
C1178 C1205 1.389 . S
C1179 C1178 1.443 . S
C1179 C1180 1.340 . S
C1179 H1211 0.951 . S
C1180 C1179 1.340 . S
C1180 C1181 1.439 . S
C1180 H1212 0.950 . S
C1181 N1177 1.374 . S
C1181 C1180 1.439 . S
C1181 C1206 1.395 . S
N1182 Co1171 1.995 . S
N1182 C1183 1.376 . S
N1182 C1186 1.383 . S
C1183 N1182 1.376 . S
C1183 C1184 1.446 . S
C1183 C1206 1.391 . S
C1184 C1183 1.446 . S
C1184 C1185 1.339 . S
C1184 H1213 0.949 . S
C1185 C1184 1.339 . S
C1185 C1186 1.439 . S
C1185 H1214 0.950 . S
C1186 N1182 1.383 . S
C1186 C1185 1.439 . S
C1186 C1204 1.392 . S
N1187 Co1171 2.282 . S
N1187 C1190 1.332 . S
N1187 C1192 1.332 . S
C1188 C1189 1.386 . S
C1188 C1191 1.388 . S
C1189 C1188 1.386 . S
C1189 C1190 1.382 . S
C1189 H1215 0.950 . S
C1190 N1187 1.332 . S
C1190 C1189 1.382 . S
C1190 H1201 0.952 . S
C1191 C1188 1.388 . S
C1191 C1192 1.382 . S
C1191 H1216 0.950 . S
C1192 N1187 1.332 . S
C1192 C1191 1.382 . S
C1192 H1202 0.948 . S
N1193 Co1171 2.282 . S
N1193 C1197 1.332 . S
N1193 C1198 1.332 . S
C1194 C1195 1.388 . S
C1194 C1198 1.382 . S
C1194 H1217 0.950 . S
C1195 C1194 1.388 . S
C1195 C1196 1.386 . S
C1196 C1195 1.386 . S
C1196 C1197 1.382 . S
C1196 H1218 0.950 . S
C1197 N1193 1.332 . S
C1197 C1196 1.382 . S
C1197 H1199 0.952 . S
C1198 N1193 1.332 . S
C1198 C1194 1.382 . S
C1198 H1200 0.948 . S
H1199 C1197 0.952 . S
H1200 C1198 0.948 . S
H1201 C1190 0.952 . S
H1202 C1192 0.948 . S
C1203 C1169 1.395 . S
C1203 C1173 1.391 . S
C1204 C1166 1.389 . S
C1204 C1186 1.392 . S
C1205 C1176 1.392 . S
C1205 C1178 1.389 . S
C1206 C1181 1.395 . S
C1206 C1183 1.391 . S
H1207 C1167 0.951 . S
H1208 C1168 0.950 . S
H1209 C1174 0.949 . S
H1210 C1175 0.950 . S
H1211 C1179 0.951 . S
H1212 C1180 0.950 . S
H1213 C1184 0.949 . S
H1214 C1185 0.950 . S
H1215 C1189 0.950 . S
H1216 C1191 0.950 . S
H1217 C1194 0.950 . S
H1218 C1196 0.950 . S
C1219 C1220 1.443 . S
C1219 N1223 1.376 . S
C1219 C1257 1.389 . S
C1220 C1219 1.443 . S
C1220 C1221 1.340 . S
C1220 H1260 0.951 . S
C1221 C1220 1.340 . S
C1221 C1222 1.439 . S
C1221 H1261 0.950 . S
C1222 C1221 1.439 . S
C1222 N1223 1.374 . S
C1222 C1256 1.395 . S
N1223 C1219 1.376 . S
N1223 C1222 1.374 . S
N1223 Co1224 2.008 . S
Co1224 N1223 2.008 . S
Co1224 N1225 1.995 . S
Co1224 N1230 2.008 . S
Co1224 N1235 1.995 . S
Co1224 N1240 2.282 . S
Co1224 N1246 2.282 . S
N1225 Co1224 1.995 . S
N1225 C1226 1.376 . S
N1225 C1229 1.383 . S
C1226 N1225 1.376 . S
C1226 C1227 1.446 . S
C1226 C1256 1.391 . S
C1227 C1226 1.446 . S
C1227 C1228 1.339 . S
C1227 H1262 0.949 . S
C1228 C1227 1.339 . S
C1228 C1229 1.439 . S
C1228 H1263 0.950 . S
C1229 N1225 1.383 . S
C1229 C1228 1.439 . S
C1229 C1258 1.392 . S
N1230 Co1224 2.008 . S
N1230 C1231 1.376 . S
N1230 C1234 1.374 . S
C1231 N1230 1.376 . S
C1231 C1232 1.443 . S
C1231 C1258 1.389 . S
C1232 C1231 1.443 . S
C1232 C1233 1.340 . S
C1232 H1264 0.951 . S
C1233 C1232 1.340 . S
C1233 C1234 1.439 . S
C1233 H1265 0.950 . S
C1234 N1230 1.374 . S
C1234 C1233 1.439 . S
C1234 C1259 1.395 . S
N1235 Co1224 1.995 . S
N1235 C1236 1.376 . S
N1235 C1239 1.383 . S
C1236 N1235 1.376 . S
C1236 C1237 1.446 . S
C1236 C1259 1.391 . S
C1237 C1236 1.446 . S
C1237 C1238 1.339 . S
C1237 H1266 0.949 . S
C1238 C1237 1.339 . S
C1238 C1239 1.439 . S
C1238 H1267 0.950 . S
C1239 N1235 1.383 . S
C1239 C1238 1.439 . S
C1239 C1257 1.392 . S
N1240 Co1224 2.282 . S
N1240 C1243 1.332 . S
N1240 C1245 1.332 . S
C1241 C1242 1.386 . S
C1241 C1244 1.388 . S
C1242 C1241 1.386 . S
C1242 C1243 1.382 . S
C1242 H1268 0.950 . S
C1243 N1240 1.332 . S
C1243 C1242 1.382 . S
C1243 H1254 0.952 . S
C1244 C1241 1.388 . S
C1244 C1245 1.382 . S
C1244 H1269 0.950 . S
C1245 N1240 1.332 . S
C1245 C1244 1.382 . S
C1245 H1255 0.948 . S
N1246 Co1224 2.282 . S
N1246 C1250 1.332 . S
N1246 C1251 1.332 . S
C1247 C1248 1.388 . S
C1247 C1251 1.382 . S
C1247 H1270 0.950 . S
C1248 C1247 1.388 . S
C1248 C1249 1.386 . S
C1249 C1248 1.386 . S
C1249 C1250 1.382 . S
C1249 H1271 0.950 . S
C1250 N1246 1.332 . S
C1250 C1249 1.382 . S
C1250 H1252 0.952 . S
C1251 N1246 1.332 . S
C1251 C1247 1.382 . S
C1251 H1253 0.948 . S
H1252 C1250 0.952 . S
H1253 C1251 0.948 . S
H1254 C1243 0.952 . S
H1255 C1245 0.948 . S
C1256 C1222 1.395 . S
C1256 C1226 1.391 . S
C1257 C1219 1.389 . S
C1257 C1239 1.392 . S
C1258 C1229 1.392 . S
C1258 C1231 1.389 . S
C1259 C1234 1.395 . S
C1259 C1236 1.391 . S
H1260 C1220 0.951 . S
H1261 C1221 0.950 . S
H1262 C1227 0.949 . S
H1263 C1228 0.950 . S
H1264 C1232 0.951 . S
H1265 C1233 0.950 . S
H1266 C1237 0.949 . S
H1267 C1238 0.950 . S
H1268 C1242 0.950 . S
H1269 C1244 0.950 . S
H1270 C1247 0.950 . S
H1271 C1249 0.950 . S
H1272 C1280 0.929 . S
H1273 C1282 0.930 . S
H1274 C1284 0.930 . S
H1275 C1287 0.929 . S
H1276 C1290 0.930 . S
H1277 C1292 0.960 . S
H1278 C1292 0.960 . S
H1279 C1292 0.960 . S
C1280 H1272 0.929 . S
C1280 C1281 1.377 . S
C1280 C1282 1.384 . S
C1281 C1280 1.377 . S
C1281 C1287 1.390 . S
C1282 H1273 0.930 . S
C1282 C1280 1.384 . S
C1282 C1283 1.372 . S
C1283 C1282 1.372 . S
C1283 C1284 1.400 . S
C1283 C1288 1.490 . S
C1284 H1274 0.930 . S
C1284 C1283 1.400 . S
C1284 C1287 1.386 . S
H1285 C1301 0.930 . S
H1286 C1302 0.931 . S
C1287 H1275 0.929 . S
C1287 C1281 1.390 . S
C1287 C1284 1.386 . S
C1288 C1283 1.490 . S
C1288 C1290 1.395 . S
C1288 C1291 1.403 . S
H1289 C1295 0.930 . S
C1290 H1276 0.930 . S
C1290 C1288 1.395 . S
C1290 C1293 1.403 . S
C1291 C1288 1.403 . S
C1291 C1292 1.524 . S
C1291 C1295 1.400 . S
C1292 H1277 0.960 . S
C1292 H1278 0.960 . S
C1292 H1279 0.960 . S
C1292 C1291 1.524 . S
C1293 C1290 1.403 . S
C1293 C1294 1.392 . S
C1293 C1297 1.495 . S
C1294 C1293 1.392 . S
C1294 C1295 1.385 . S
C1294 C1296 1.478 . S
C1295 H1289 0.930 . S
C1295 C1291 1.400 . S
C1295 C1294 1.385 . S
C1296 C1294 1.478 . S
C1296 C1298 1.381 . S
C1296 C1302 1.383 . S
C1297 C1293 1.495 . S
C1297 H1303 0.959 . S
C1297 H1304 0.961 . S
C1297 H1305 0.960 . S
C1298 C1296 1.381 . S
C1298 C1299 1.394 . S
C1298 H1306 0.930 . S
C1299 C1298 1.394 . S
C1299 C1300 1.383 . S
C1299 H1307 0.929 . S
C1300 C1299 1.383 . S
C1300 C1301 1.377 . S
C1301 H1285 0.930 . S
C1301 C1300 1.377 . S
C1301 C1302 1.379 . S
C1302 H1286 0.931 . S
C1302 C1296 1.383 . S
C1302 C1301 1.379 . S
H1303 C1297 0.959 . S
H1304 C1297 0.961 . S
H1305 C1297 0.960 . S
H1306 C1298 0.930 . S
H1307 C1299 0.929 . S
H1308 C1316 0.929 . S
H1309 C1318 0.930 . S
H1310 C1320 0.930 . S
H1311 C1323 0.929 . S
H1312 C1326 0.930 . S
H1313 C1328 0.960 1_455 S
H1314 C1328 0.960 . S
H1315 C1328 0.960 . S
C1316 H1308 0.929 . S
C1316 C1317 1.377 . S
C1316 C1318 1.384 . S
C1317 C1316 1.377 . S
C1317 C1323 1.390 . S
C1318 H1309 0.930 . S
C1318 C1316 1.384 . S
C1318 C1319 1.372 . S
C1319 C1318 1.372 . S
C1319 C1320 1.400 . S
C1319 C1324 1.490 . S
C1320 H1310 0.930 . S
C1320 C1319 1.400 . S
C1320 C1323 1.386 . S
H1321 C1337 0.930 . S
H1322 C1338 0.931 . S
C1323 H1311 0.929 . S
C1323 C1317 1.390 . S
C1323 C1320 1.386 . S
C1324 C1319 1.490 . S
C1324 C1326 1.395 . S
C1324 C1327 1.403 . S
H1325 C1331 0.930 . S
C1326 H1312 0.930 . S
C1326 C1324 1.395 . S
C1326 C1329 1.403 . S
C1327 C1324 1.403 . S
C1327 C1328 1.524 . S
C1327 C1331 1.400 1_655 S
C1328 H1313 0.960 1_655 S
C1328 H1314 0.960 . S
C1328 H1315 0.960 . S
C1328 C1327 1.524 . S
C1329 C1326 1.403 . S
C1329 C1330 1.392 1_655 S
C1329 C1333 1.495 . S
C1330 C1329 1.392 1_455 S
C1330 C1331 1.385 . S
C1330 C1332 1.478 . S
C1331 H1325 0.930 . S
C1331 C1327 1.400 1_455 S
C1331 C1330 1.385 . S
C1332 C1330 1.478 . S
C1332 C1334 1.381 . S
C1332 C1338 1.383 . S
C1333 C1329 1.495 . S
C1333 H1339 0.959 . S
C1333 H1340 0.961 1_655 S
C1333 H1341 0.960 . S
C1334 C1332 1.381 . S
C1334 C1335 1.394 . S
C1334 H1342 0.930 . S
C1335 C1334 1.394 . S
C1335 C1336 1.383 . S
C1335 H1343 0.929 . S
C1336 C1335 1.383 . S
C1336 C1337 1.377 . S
C1337 H1321 0.930 . S
C1337 C1336 1.377 . S
C1337 C1338 1.379 . S
C1338 H1322 0.931 . S
C1338 C1332 1.383 . S
C1338 C1337 1.379 . S
H1339 C1333 0.959 . S
H1340 C1333 0.961 1_455 S
H1341 C1333 0.960 . S
H1342 C1334 0.930 . S
H1343 C1335 0.929 . S
H1344 C1352 0.929 . S
H1345 C1354 0.930 . S
H1346 C1356 0.930 . S
H1347 C1359 0.929 . S
H1348 C1362 0.930 . S
H1349 C1364 0.960 . S
H1350 C1364 0.960 . S
H1351 C1364 0.960 . S
C1352 H1344 0.929 . S
C1352 C1353 1.377 . S
C1352 C1354 1.384 . S
C1353 C1352 1.377 . S
C1353 C1359 1.390 . S
C1354 H1345 0.930 . S
C1354 C1352 1.384 . S
C1354 C1355 1.372 . S
C1355 C1354 1.372 . S
C1355 C1356 1.400 . S
C1355 C1360 1.490 . S
C1356 H1346 0.930 . S
C1356 C1355 1.400 . S
C1356 C1359 1.386 . S
H1357 C1373 0.930 . S
H1358 C1374 0.928 . S
C1359 H1347 0.929 . S
C1359 C1353 1.390 . S
C1359 C1356 1.386 . S
C1360 C1355 1.490 . S
C1360 C1362 1.395 . S
C1360 C1363 1.403 . S
H1361 C1367 0.930 . S
C1362 H1348 0.930 . S
C1362 C1360 1.395 . S
C1362 C1365 1.403 . S
C1363 C1360 1.403 . S
C1363 C1364 1.524 . S
C1363 C1367 1.400 . S
C1364 H1349 0.960 . S
C1364 H1350 0.960 . S
C1364 H1351 0.960 . S
C1364 C1363 1.524 . S
C1365 C1362 1.403 . S
C1365 C1366 1.392 . S
C1365 C1369 1.495 . S
C1366 C1365 1.392 . S
C1366 C1367 1.385 . S
C1366 C1368 1.478 1_554 S
C1367 H1361 0.930 . S
C1367 C1363 1.400 . S
C1367 C1366 1.385 . S
C1368 C1366 1.478 1_556 S
C1368 C1370 1.381 . S
C1368 C1374 1.383 1_556 S
C1369 C1365 1.495 . S
C1369 H1375 0.959 . S
C1369 H1376 0.961 . S
C1369 H1377 0.960 . S
C1370 C1368 1.381 . S
C1370 C1371 1.394 . S
C1370 H1378 0.930 . S
C1371 C1370 1.394 . S
C1371 C1372 1.383 . S
C1371 H1379 0.929 . S
C1372 C1371 1.383 . S
C1372 C1373 1.377 . S
C1373 H1357 0.930 . S
C1373 C1372 1.377 . S
C1373 C1374 1.382 1_556 S
C1374 H1358 0.928 . S
C1374 C1368 1.383 1_554 S
C1374 C1373 1.382 1_554 S
H1375 C1369 0.959 . S
H1376 C1369 0.961 . S
H1377 C1369 0.960 . S
H1378 C1370 0.930 . S
H1379 C1371 0.929 . S
H1380 C1388 0.929 . S
H1381 C1390 0.930 . S
H1382 C1392 0.930 . S
H1383 C1395 0.929 . S
H1384 C1398 0.930 . S
H1385 C1400 0.960 . S
H1386 C1400 0.960 . S
H1387 C1400 0.960 . S
C1388 H1380 0.929 . S
C1388 C1389 1.377 . S
C1388 C1390 1.384 . S
C1389 C1388 1.377 . S
C1389 C1395 1.390 . S
C1390 H1381 0.930 . S
C1390 C1388 1.384 . S
C1390 C1391 1.372 . S
C1391 C1390 1.372 . S
C1391 C1392 1.400 . S
C1391 C1396 1.490 . S
C1392 H1382 0.930 . S
C1392 C1391 1.400 . S
C1392 C1395 1.386 . S
H1393 C1409 0.930 . S
H1394 C1410 0.931 . S
C1395 H1383 0.929 . S
C1395 C1389 1.390 . S
C1395 C1392 1.386 . S
C1396 C1391 1.490 . S
C1396 C1398 1.395 . S
C1396 C1399 1.403 . S
H1397 C1403 0.930 . S
C1398 H1384 0.930 . S
C1398 C1396 1.395 . S
C1398 C1401 1.403 . S
C1399 C1396 1.403 . S
C1399 C1400 1.524 . S
C1399 C1403 1.400 . S
C1400 H1385 0.960 . S
C1400 H1386 0.960 . S
C1400 H1387 0.960 . S
C1400 C1399 1.524 . S
C1401 C1398 1.403 . S
C1401 C1402 1.392 . S
C1401 C1405 1.495 . S
C1402 C1401 1.392 . S
C1402 C1403 1.385 . S
C1402 C1404 1.478 . S
C1403 H1397 0.930 . S
C1403 C1399 1.400 . S
C1403 C1402 1.385 . S
C1404 C1402 1.478 . S
C1404 C1406 1.381 . S
C1404 C1410 1.383 . S
C1405 C1401 1.495 . S
C1405 H1411 0.959 . S
C1405 H1412 0.961 . S
C1405 H1413 0.960 . S
C1406 C1404 1.381 . S
C1406 C1407 1.394 . S
C1406 H1414 0.930 . S
C1407 C1406 1.394 . S
C1407 C1408 1.383 . S
C1407 H1415 0.929 . S
C1408 C1407 1.383 . S
C1408 C1409 1.377 . S
C1409 H1393 0.930 . S
C1409 C1408 1.377 . S
C1409 C1410 1.379 . S
C1410 H1394 0.931 . S
C1410 C1404 1.383 . S
C1410 C1409 1.379 . S
H1411 C1405 0.959 . S
H1412 C1405 0.961 . S
H1413 C1405 0.960 . S
H1414 C1406 0.930 . S
H1415 C1407 0.929 . S
H1416 C1424 0.929 . S
H1417 C1426 0.930 . S
H1418 C1428 0.930 . S
H1419 C1431 0.929 . S
H1420 C1434 0.930 . S
H1421 C1436 0.960 . S
H1422 C1436 0.960 . S
H1423 C1436 0.960 1_556 S
C1424 H1416 0.929 . S
C1424 C1425 1.377 . S
C1424 C1426 1.384 . S
C1425 C1424 1.377 . S
C1425 C1431 1.390 . S
C1426 H1417 0.930 . S
C1426 C1424 1.384 . S
C1426 C1427 1.372 . S
C1427 C1426 1.372 . S
C1427 C1428 1.400 . S
C1427 C1432 1.490 . S
C1428 H1418 0.930 . S
C1428 C1427 1.400 . S
C1428 C1431 1.386 . S
H1429 C1445 0.930 . S
H1430 C1446 0.931 . S
C1431 H1419 0.929 . S
C1431 C1425 1.390 . S
C1431 C1428 1.386 . S
C1432 C1427 1.490 . S
C1432 C1434 1.395 . S
C1432 C1435 1.403 1_556 S
H1433 C1439 0.930 . S
C1434 H1420 0.930 . S
C1434 C1432 1.395 . S
C1434 C1437 1.403 . S
C1435 C1432 1.403 1_554 S
C1435 C1436 1.524 . S
C1435 C1439 1.400 . S
C1436 H1421 0.960 . S
C1436 H1422 0.960 . S
C1436 H1423 0.960 1_554 S
C1436 C1435 1.524 . S
C1437 C1434 1.403 . S
C1437 C1438 1.392 1_556 S
C1437 C1441 1.495 . S
C1438 C1437 1.392 1_554 S
C1438 C1439 1.385 . S
C1438 C1440 1.478 . S
C1439 H1433 0.930 . S
C1439 C1435 1.400 . S
C1439 C1438 1.385 . S
C1440 C1438 1.478 . S
C1440 C1442 1.381 . S
C1440 C1446 1.383 . S
C1441 C1437 1.495 . S
C1441 H1447 0.959 . S
C1441 H1448 0.961 . S
C1441 H1449 0.975 . S
C1442 C1440 1.381 . S
C1442 C1443 1.394 . S
C1442 H1450 0.930 . S
C1443 C1442 1.394 . S
C1443 C1444 1.383 . S
C1443 H1451 0.929 . S
C1444 C1443 1.383 . S
C1444 C1445 1.377 . S
C1445 H1429 0.930 . S
C1445 C1444 1.377 . S
C1445 C1446 1.379 . S
C1446 H1430 0.931 . S
C1446 C1440 1.383 . S
C1446 C1445 1.379 . S
H1447 C1441 0.959 . S
H1448 C1441 0.961 . S
H1449 C1441 0.975 . S
H1450 C1442 0.930 . S
H1451 C1443 0.929 . S
H1452 C1460 0.929 . S
H1453 C1462 0.930 . S
H1454 C1464 0.930 . S
H1455 C1467 0.929 . S
H1456 C1470 0.930 . S
H1457 C1472 0.960 . S
H1458 C1472 0.960 . S
H1459 C1472 0.960 . S
C1460 H1452 0.929 . S
C1460 C1461 1.377 . S
C1460 C1462 1.384 . S
C1461 C1460 1.377 . S
C1461 C1467 1.390 . S
C1462 H1453 0.930 . S
C1462 C1460 1.384 . S
C1462 C1463 1.372 . S
C1463 C1462 1.372 . S
C1463 C1464 1.400 . S
C1463 C1468 1.490 . S
C1464 H1454 0.930 . S
C1464 C1463 1.400 . S
C1464 C1467 1.386 . S
H1465 C1481 0.930 . S
H1466 C1482 0.931 . S
C1467 H1455 0.929 . S
C1467 C1461 1.390 . S
C1467 C1464 1.386 . S
C1468 C1463 1.490 . S
C1468 C1470 1.395 . S
C1468 C1471 1.403 . S
H1469 C1475 0.930 . S
C1470 H1456 0.930 . S
C1470 C1468 1.395 . S
C1470 C1473 1.403 . S
C1471 C1468 1.403 . S
C1471 C1472 1.524 . S
C1471 C1475 1.400 . S
C1472 H1457 0.960 . S
C1472 H1458 0.960 . S
C1472 H1459 0.960 . S
C1472 C1471 1.524 . S
C1473 C1470 1.403 . S
C1473 C1474 1.392 . S
C1473 C1477 1.495 . S
C1474 C1473 1.392 . S
C1474 C1475 1.385 . S
C1474 C1476 1.478 . S
C1475 H1469 0.930 . S
C1475 C1471 1.400 . S
C1475 C1474 1.385 . S
C1476 C1474 1.478 . S
C1476 C1478 1.381 . S
C1476 C1482 1.383 . S
C1477 C1473 1.495 . S
C1477 H1483 0.959 . S
C1477 H1484 0.961 . S
C1477 H1485 0.960 . S
C1478 C1476 1.381 . S
C1478 C1479 1.394 . S
C1478 H1486 0.930 . S
C1479 C1478 1.394 . S
C1479 C1480 1.383 . S
C1479 H1487 0.929 . S
C1480 C1479 1.383 . S
C1480 C1481 1.377 . S
C1481 H1465 0.930 . S
C1481 C1480 1.377 . S
C1481 C1482 1.379 . S
C1482 H1466 0.931 . S
C1482 C1476 1.383 . S
C1482 C1481 1.379 . S
H1483 C1477 0.959 . S
H1484 C1477 0.961 . S
H1485 C1477 0.960 . S
H1486 C1478 0.930 . S
H1487 C1479 0.929 . S
H1488 C1496 0.929 . S
H1489 C1498 0.930 . S
H1490 C1500 0.930 . S
H1491 C1503 0.929 . S
H1492 C1506 0.930 . S
H1493 C1508 0.960 . S
H1494 C1508 0.960 . S
H1495 C1508 0.960 . S
C1496 H1488 0.929 . S
C1496 C1497 1.377 . S
C1496 C1498 1.384 . S
C1497 C1496 1.377 . S
C1497 C1503 1.390 . S
C1498 H1489 0.930 . S
C1498 C1496 1.384 . S
C1498 C1499 1.372 . S
C1499 C1498 1.372 . S
C1499 C1500 1.400 . S
C1499 C1504 1.490 . S
C1500 H1490 0.930 . S
C1500 C1499 1.400 . S
C1500 C1503 1.386 . S
H1501 C1517 0.930 . S
H1502 C1518 0.931 . S
C1503 H1491 0.929 . S
C1503 C1497 1.390 . S
C1503 C1500 1.386 . S
C1504 C1499 1.490 . S
C1504 C1506 1.395 . S
C1504 C1507 1.403 . S
H1505 C1511 0.930 . S
C1506 H1492 0.930 . S
C1506 C1504 1.395 . S
C1506 C1509 1.403 . S
C1507 C1504 1.403 . S
C1507 C1508 1.524 . S
C1507 C1511 1.400 . S
C1508 H1493 0.960 . S
C1508 H1494 0.960 . S
C1508 H1495 0.960 . S
C1508 C1507 1.524 . S
C1509 C1506 1.403 . S
C1509 C1510 1.392 . S
C1509 C1513 1.495 . S
C1510 C1509 1.392 . S
C1510 C1511 1.385 . S
C1510 C1512 1.478 . S
C1511 H1505 0.930 . S
C1511 C1507 1.400 . S
C1511 C1510 1.385 . S
C1512 C1510 1.478 . S
C1512 C1514 1.381 . S
C1512 C1518 1.383 . S
C1513 C1509 1.495 . S
C1513 H1519 0.959 . S
C1513 H1520 0.961 . S
C1513 H1521 0.960 . S
C1514 C1512 1.381 . S
C1514 C1515 1.394 . S
C1514 H1522 0.930 . S
C1515 C1514 1.394 . S
C1515 C1516 1.383 . S
C1515 H1523 0.929 . S
C1516 C1515 1.383 . S
C1516 C1517 1.377 . S
C1517 H1501 0.930 . S
C1517 C1516 1.377 . S
C1517 C1518 1.379 . S
C1518 H1502 0.931 . S
C1518 C1512 1.383 . S
C1518 C1517 1.379 . S
H1519 C1513 0.959 . S
H1520 C1513 0.961 . S
H1521 C1513 0.960 . S
H1522 C1514 0.930 . S
H1523 C1515 0.929 . S
H1524 C1532 0.929 . S
H1525 C1534 0.930 . S
H1526 C1536 0.930 . S
H1527 C1539 0.929 . S
H1528 C1542 0.930 . S
H1529 C1544 0.960 . S
H1530 C1544 0.960 . S
H1531 C1544 0.960 . S
C1532 H1524 0.929 . S
C1532 C1533 1.377 . S
C1532 C1534 1.384 . S
C1533 C1532 1.377 . S
C1533 C1539 1.390 . S
C1534 H1525 0.930 . S
C1534 C1532 1.384 . S
C1534 C1535 1.372 . S
C1535 C1534 1.372 . S
C1535 C1536 1.400 . S
C1535 C1540 1.490 . S
C1536 H1526 0.930 . S
C1536 C1535 1.400 . S
C1536 C1539 1.386 . S
H1537 C1553 0.930 . S
H1538 C1554 0.931 . S
C1539 H1527 0.929 . S
C1539 C1533 1.390 . S
C1539 C1536 1.386 . S
C1540 C1535 1.490 . S
C1540 C1542 1.395 . S
C1540 C1543 1.403 . S
H1541 C1547 0.930 . S
C1542 H1528 0.930 . S
C1542 C1540 1.395 . S
C1542 C1545 1.403 1_455 S
C1543 C1540 1.403 . S
C1543 C1544 1.524 . S
C1543 C1547 1.400 1_455 S
C1544 H1529 0.960 . S
C1544 H1530 0.960 . S
C1544 H1531 0.960 . S
C1544 C1543 1.524 . S
C1545 C1542 1.403 1_655 S
C1545 C1546 1.392 . S
C1545 C1549 1.495 . S
C1546 C1545 1.392 . S
C1546 C1547 1.385 . S
C1546 C1548 1.478 . S
C1547 H1541 0.930 . S
C1547 C1543 1.400 1_655 S
C1547 C1546 1.385 . S
C1548 C1546 1.478 . S
C1548 C1550 1.381 . S
C1548 C1554 1.383 . S
C1549 C1545 1.495 . S
C1549 H1555 0.959 . S
C1549 H1556 0.961 . S
C1549 H1557 0.960 . S
C1550 C1548 1.381 . S
C1550 C1551 1.394 . S
C1550 H1558 0.930 . S
C1551 C1550 1.394 . S
C1551 C1552 1.383 . S
C1551 H1559 0.929 . S
C1552 C1551 1.383 . S
C1552 C1553 1.377 . S
C1553 H1537 0.930 . S
C1553 C1552 1.377 . S
C1553 C1554 1.379 . S
C1554 H1538 0.931 . S
C1554 C1548 1.383 . S
C1554 C1553 1.379 . S
H1555 C1549 0.959 . S
H1556 C1549 0.961 . S
H1557 C1549 0.960 . S
H1558 C1550 0.930 . S
H1559 C1551 0.929 . S
H1560 C1568 0.929 . S
H1561 C1570 0.930 . S
H1562 C1572 0.930 . S
H1563 C1575 0.929 . S
H1564 C1578 0.930 . S
H1565 C1580 0.960 . S
H1566 C1580 0.960 . S
H1567 C1580 0.960 . S
C1568 H1560 0.929 . S
C1568 C1569 1.377 . S
C1568 C1570 1.384 . S
C1569 C1568 1.377 . S
C1569 C1575 1.390 . S
C1570 H1561 0.930 . S
C1570 C1568 1.384 . S
C1570 C1571 1.372 . S
C1571 C1570 1.372 . S
C1571 C1572 1.400 . S
C1571 C1576 1.490 . S
C1572 H1562 0.930 . S
C1572 C1571 1.400 . S
C1572 C1575 1.386 . S
H1573 C1589 0.930 . S
H1574 C1590 0.931 . S
C1575 H1563 0.929 . S
C1575 C1569 1.390 . S
C1575 C1572 1.386 . S
C1576 C1571 1.490 . S
C1576 C1578 1.395 . S
C1576 C1579 1.403 . S
H1577 C1583 0.930 . S
C1578 H1564 0.930 . S
C1578 C1576 1.395 . S
C1578 C1581 1.403 . S
C1579 C1576 1.403 . S
C1579 C1580 1.524 . S
C1579 C1583 1.400 . S
C1580 H1565 0.960 . S
C1580 H1566 0.960 . S
C1580 H1567 0.960 . S
C1580 C1579 1.524 . S
C1581 C1578 1.403 . S
C1581 C1582 1.392 . S
C1581 C1585 1.495 . S
C1582 C1581 1.392 . S
C1582 C1583 1.385 . S
C1582 C1584 1.478 . S
C1583 H1577 0.930 . S
C1583 C1579 1.400 . S
C1583 C1582 1.385 . S
C1584 C1582 1.478 . S
C1584 C1586 1.381 . S
C1584 C1590 1.383 . S
C1585 C1581 1.495 . S
C1585 H1591 0.959 . S
C1585 H1592 0.961 . S
C1585 H1593 0.960 . S
C1586 C1584 1.381 . S
C1586 C1587 1.394 . S
C1586 H1594 0.930 . S
C1587 C1586 1.394 . S
C1587 C1588 1.383 . S
C1587 H1595 0.929 . S
C1588 C1587 1.383 . S
C1588 C1589 1.377 . S
C1589 H1573 0.930 . S
C1589 C1588 1.377 . S
C1589 C1590 1.379 . S
C1590 H1574 0.931 . S
C1590 C1584 1.383 . S
C1590 C1589 1.379 . S
H1591 C1585 0.959 . S
H1592 C1585 0.961 . S
H1593 C1585 0.960 . S
H1594 C1586 0.930 . S
H1595 C1587 0.929 . S
H1596 C1604 0.929 . S
H1597 C1606 0.931 . S
H1598 C1608 0.930 . S
H1599 C1611 0.929 . S
H1600 C1614 0.930 . S
H1601 C1616 0.976 . S
H1602 C1616 0.967 . S
H1603 C1616 0.929 1_545 S
C1604 H1596 0.929 . S
C1604 C1605 1.377 . S
C1604 C1606 1.384 . S
C1605 C1604 1.377 . S
C1605 C1611 1.390 . S
C1606 H1597 0.931 . S
C1606 C1604 1.384 . S
C1606 C1607 1.372 . S
C1607 C1606 1.372 . S
C1607 C1608 1.400 . S
C1607 C1612 1.505 . S
C1608 H1598 0.930 . S
C1608 C1607 1.400 . S
C1608 C1611 1.386 . S
H1609 C1625 0.930 . S
H1610 C1626 0.931 . S
C1611 H1599 0.929 . S
C1611 C1605 1.390 . S
C1611 C1608 1.386 . S
C1612 C1607 1.505 . S
C1612 C1614 1.387 1_545 S
C1612 C1615 1.395 1_545 S
H1613 C1619 0.930 . S
C1614 H1600 0.930 . S
C1614 C1612 1.387 1_565 S
C1614 C1617 1.403 . S
C1615 C1612 1.395 1_565 S
C1615 C1616 1.533 . S
C1615 C1619 1.400 . S
C1616 H1601 0.976 . S
C1616 H1602 0.967 . S
C1616 H1603 0.929 1_565 S
C1616 C1615 1.533 . S
C1617 C1614 1.403 . S
C1617 C1618 1.392 . S
C1617 C1621 1.495 . S
C1618 C1617 1.392 . S
C1618 C1619 1.385 . S
C1618 C1620 1.478 . S
C1619 H1613 0.930 . S
C1619 C1615 1.400 . S
C1619 C1618 1.385 . S
C1620 C1618 1.478 . S
C1620 C1622 1.381 . S
C1620 C1626 1.383 . S
C1621 C1617 1.495 . S
C1621 H1627 0.959 . S
C1621 H1628 0.961 . S
C1621 H1629 0.960 . S
C1622 C1620 1.381 . S
C1622 C1623 1.394 . S
C1622 H1630 0.930 . S
C1623 C1622 1.394 . S
C1623 C1624 1.383 . S
C1623 H1631 0.929 . S
C1624 C1623 1.383 . S
C1624 C1625 1.377 . S
C1625 H1609 0.930 . S
C1625 C1624 1.377 . S
C1625 C1626 1.379 . S
C1626 H1610 0.931 . S
C1626 C1620 1.383 . S
C1626 C1625 1.379 . S
H1627 C1621 0.959 . S
H1628 C1621 0.961 . S
H1629 C1621 0.960 . S
H1630 C1622 0.930 . S
H1631 C1623 0.929 . S
H1632 C1640 0.929 . S
H1633 C1642 0.930 . S
H1634 C1644 0.930 . S
H1635 C1647 0.929 . S
H1636 C1650 0.930 . S
H1637 C1652 0.960 . S
H1638 C1652 0.960 . S
H1639 C1652 0.960 . S
C1640 H1632 0.929 . S
C1640 C1641 1.377 . S
C1640 C1642 1.384 . S
C1641 C1640 1.377 . S
C1641 C1647 1.390 . S
C1642 H1633 0.930 . S
C1642 C1640 1.384 . S
C1642 C1643 1.372 . S
C1643 C1642 1.372 . S
C1643 C1644 1.400 . S
C1643 C1648 1.490 . S
C1644 H1634 0.930 . S
C1644 C1643 1.400 . S
C1644 C1647 1.386 . S
H1645 C1661 0.930 . S
H1646 C1662 0.931 . S
C1647 H1635 0.929 . S
C1647 C1641 1.390 . S
C1647 C1644 1.386 . S
C1648 C1643 1.490 . S
C1648 C1650 1.395 . S
C1648 C1651 1.403 . S
H1649 C1655 0.930 . S
C1650 H1636 0.930 . S
C1650 C1648 1.395 . S
C1650 C1653 1.403 . S
C1651 C1648 1.403 . S
C1651 C1652 1.524 . S
C1651 C1655 1.400 . S
C1652 H1637 0.960 . S
C1652 H1638 0.960 . S
C1652 H1639 0.960 . S
C1652 C1651 1.524 . S
C1653 C1650 1.403 . S
C1653 C1654 1.392 . S
C1653 C1657 1.495 . S
C1654 C1653 1.392 . S
C1654 C1655 1.385 . S
C1654 C1656 1.478 1_545 S
C1655 H1649 0.930 . S
C1655 C1651 1.400 . S
C1655 C1654 1.385 . S
C1656 C1654 1.478 1_565 S
C1656 C1658 1.382 . S
C1656 C1662 1.383 . S
C1657 C1653 1.495 . S
C1657 H1663 0.959 . S
C1657 H1664 0.961 1_545 S
C1657 H1665 0.960 . S
C1658 C1656 1.382 . S
C1658 C1659 1.401 . S
C1658 H1666 0.923 1_565 S
C1659 C1658 1.401 . S
C1659 C1660 1.383 . S
C1659 H1667 0.929 . S
C1660 C1659 1.383 . S
C1660 C1661 1.377 . S
C1661 H1645 0.930 . S
C1661 C1660 1.377 . S
C1661 C1662 1.379 . S
C1662 H1646 0.931 . S
C1662 C1656 1.383 . S
C1662 C1661 1.379 . S
H1663 C1657 0.959 . S
H1664 C1657 0.961 1_565 S
H1665 C1657 0.960 . S
H1666 C1658 0.923 1_545 S
H1667 C1659 0.929 . S
H1668 C1676 0.929 . S
H1669 C1678 0.930 . S
H1670 C1680 0.930 . S
H1671 C1683 0.929 . S
H1672 C1686 0.930 . S
H1673 C1688 0.961 . S
H1674 C1688 0.960 1_545 S
H1675 C1688 0.960 1_545 S
C1676 H1668 0.929 . S
C1676 C1677 1.377 . S
C1676 C1678 1.384 . S
C1677 C1676 1.377 . S
C1677 C1683 1.390 . S
C1678 H1669 0.930 . S
C1678 C1676 1.384 . S
C1678 C1679 1.372 . S
C1679 C1678 1.372 . S
C1679 C1680 1.400 . S
C1679 C1684 1.490 . S
C1680 H1670 0.930 . S
C1680 C1679 1.400 . S
C1680 C1683 1.386 . S
H1681 C1697 0.930 . S
H1682 C1698 0.931 . S
C1683 H1671 0.929 . S
C1683 C1677 1.390 . S
C1683 C1680 1.386 . S
C1684 C1679 1.490 . S
C1684 C1686 1.395 . S
C1684 C1687 1.403 . S
H1685 C1691 0.930 . S
C1686 H1672 0.930 . S
C1686 C1684 1.395 . S
C1686 C1689 1.403 . S
C1687 C1684 1.403 . S
C1687 C1688 1.524 1_545 S
C1687 C1691 1.400 1_545 S
C1688 H1673 0.961 . S
C1688 H1674 0.960 1_565 S
C1688 H1675 0.960 1_565 S
C1688 C1687 1.524 1_565 S
C1689 C1686 1.403 . S
C1689 C1690 1.352 1_545 S
C1689 C1693 1.495 . S
C1690 C1689 1.352 1_565 S
C1690 C1691 1.399 . S
C1690 C1692 1.506 . S
C1691 H1685 0.930 . S
C1691 C1687 1.400 1_565 S
C1691 C1690 1.399 . S
C1692 C1690 1.506 . S
C1692 C1694 1.381 . S
C1692 C1698 1.383 . S
C1693 C1689 1.495 . S
C1693 H1699 0.959 . S
C1693 H1700 0.961 . S
C1693 H1701 0.960 . S
C1694 C1692 1.381 . S
C1694 C1695 1.394 . S
C1694 H1702 0.930 . S
C1695 C1694 1.394 . S
C1695 C1696 1.383 . S
C1695 H1703 0.929 . S
C1696 C1695 1.383 . S
C1696 C1697 1.377 . S
C1697 H1681 0.930 . S
C1697 C1696 1.377 . S
C1697 C1698 1.379 . S
C1698 H1682 0.931 . S
C1698 C1692 1.383 . S
C1698 C1697 1.379 . S
H1699 C1693 0.959 . S
H1700 C1693 0.961 . S
H1701 C1693 0.960 . S
H1702 C1694 0.930 . S
H1703 C1695 0.929 . S
H1704 C1712 0.929 . S
H1705 C1714 0.930 . S
H1706 C1716 0.930 . S
H1707 C1719 0.929 . S
H1708 C1722 0.930 . S
H1709 C1724 0.960 . S
H1710 C1724 0.960 . S
H1711 C1724 0.960 . S
C1712 H1704 0.929 . S
C1712 C1713 1.377 . S
C1712 C1714 1.384 . S
C1713 C1712 1.377 . S
C1713 C1719 1.390 . S
C1714 H1705 0.930 . S
C1714 C1712 1.384 . S
C1714 C1715 1.372 . S
C1715 C1714 1.372 . S
C1715 C1716 1.400 . S
C1715 C1720 1.490 . S
C1716 H1706 0.930 . S
C1716 C1715 1.400 . S
C1716 C1719 1.386 . S
H1717 C1733 0.930 . S
H1718 C1734 0.931 . S
C1719 H1707 0.929 . S
C1719 C1713 1.390 . S
C1719 C1716 1.386 . S
C1720 C1715 1.490 . S
C1720 C1722 1.395 . S
C1720 C1723 1.403 . S
H1721 C1727 0.930 . S
C1722 H1708 0.930 . S
C1722 C1720 1.395 . S
C1722 C1725 1.403 . S
C1723 C1720 1.403 . S
C1723 C1724 1.524 . S
C1723 C1727 1.400 . S
C1724 H1709 0.960 . S
C1724 H1710 0.960 . S
C1724 H1711 0.960 . S
C1724 C1723 1.524 . S
C1725 C1722 1.403 . S
C1725 C1726 1.392 . S
C1725 C1729 1.495 . S
C1726 C1725 1.392 . S
C1726 C1727 1.385 . S
C1726 C1728 1.478 . S
C1727 H1721 0.930 . S
C1727 C1723 1.400 . S
C1727 C1726 1.385 . S
C1728 C1726 1.478 . S
C1728 C1730 1.381 . S
C1728 C1734 1.383 . S
C1729 C1725 1.495 . S
C1729 H1735 0.959 . S
C1729 H1736 0.961 . S
C1729 H1737 0.960 . S
C1730 C1728 1.381 . S
C1730 C1731 1.394 . S
C1730 H1738 0.930 . S
C1731 C1730 1.394 . S
C1731 C1732 1.383 . S
C1731 H1739 0.929 . S
C1732 C1731 1.383 . S
C1732 C1733 1.377 . S
C1733 H1717 0.930 . S
C1733 C1732 1.377 . S
C1733 C1734 1.379 . S
C1734 H1718 0.931 . S
C1734 C1728 1.383 . S
C1734 C1733 1.379 . S
H1735 C1729 0.959 . S
H1736 C1729 0.961 . S
H1737 C1729 0.960 . S
H1738 C1730 0.930 . S
H1739 C1731 0.929 . S
H1740 C1748 0.929 . S
H1741 C1750 0.930 . S
H1742 C1752 0.930 . S
H1743 C1755 0.929 . S
H1744 C1758 0.930 . S
H1745 C1760 0.960 . S
H1746 C1760 0.960 . S
H1747 C1760 0.960 . S
C1748 H1740 0.929 . S
C1748 C1749 1.377 . S
C1748 C1750 1.384 . S
C1749 C1748 1.377 . S
C1749 C1755 1.390 . S
C1750 H1741 0.930 . S
C1750 C1748 1.384 . S
C1750 C1751 1.372 . S
C1751 C1750 1.372 . S
C1751 C1752 1.400 . S
C1751 C1756 1.490 . S
C1752 H1742 0.930 . S
C1752 C1751 1.400 . S
C1752 C1755 1.386 . S
H1753 C1769 0.930 . S
H1754 C1770 0.931 . S
C1755 H1743 0.929 . S
C1755 C1749 1.390 . S
C1755 C1752 1.386 . S
C1756 C1751 1.490 . S
C1756 C1758 1.395 . S
C1756 C1759 1.403 . S
H1757 C1763 0.930 . S
C1758 H1744 0.930 . S
C1758 C1756 1.395 . S
C1758 C1761 1.403 . S
C1759 C1756 1.403 . S
C1759 C1760 1.524 . S
C1759 C1763 1.400 . S
C1760 H1745 0.960 . S
C1760 H1746 0.960 . S
C1760 H1747 0.960 . S
C1760 C1759 1.524 . S
C1761 C1758 1.403 . S
C1761 C1762 1.392 . S
C1761 C1765 1.495 . S
C1762 C1761 1.392 . S
C1762 C1763 1.385 . S
C1762 C1764 1.478 . S
C1763 H1757 0.930 . S
C1763 C1759 1.400 . S
C1763 C1762 1.385 . S
C1764 C1762 1.478 . S
C1764 C1766 1.381 . S
C1764 C1770 1.383 . S
C1765 C1761 1.495 . S
C1765 H1771 0.959 . S
C1765 H1772 0.961 . S
C1765 H1773 0.960 . S
C1766 C1764 1.381 . S
C1766 C1767 1.394 . S
C1766 H1774 0.930 . S
C1767 C1766 1.394 . S
C1767 C1768 1.383 . S
C1767 H1775 0.929 . S
C1768 C1767 1.383 . S
C1768 C1769 1.377 . S
C1769 H1753 0.930 . S
C1769 C1768 1.377 . S
C1769 C1770 1.379 . S
C1770 H1754 0.931 . S
C1770 C1764 1.383 . S
C1770 C1769 1.379 . S
H1771 C1765 0.959 . S
H1772 C1765 0.961 . S
H1773 C1765 0.960 . S
H1774 C1766 0.930 . S
H1775 C1767 0.929 . S
H1776 C1784 0.929 . S
H1777 C1786 0.930 . S
H1778 C1788 0.930 . S
H1779 C1791 0.929 . S
H1780 C1794 0.930 . S
H1781 C1796 0.960 . S
H1782 C1796 0.960 . S
H1783 C1796 0.960 . S
C1784 H1776 0.929 . S
C1784 C1785 1.377 . S
C1784 C1786 1.384 . S
C1785 C1784 1.377 . S
C1785 C1791 1.390 . S
C1786 H1777 0.930 . S
C1786 C1784 1.384 . S
C1786 C1787 1.372 . S
C1787 C1786 1.372 . S
C1787 C1788 1.400 . S
C1787 C1792 1.490 . S
C1788 H1778 0.930 . S
C1788 C1787 1.400 . S
C1788 C1791 1.386 . S
H1789 C1805 0.930 . S
H1790 C1806 0.931 . S
C1791 H1779 0.929 . S
C1791 C1785 1.390 . S
C1791 C1788 1.386 . S
C1792 C1787 1.490 . S
C1792 C1794 1.395 . S
C1792 C1795 1.403 . S
H1793 C1799 0.930 . S
C1794 H1780 0.930 . S
C1794 C1792 1.395 . S
C1794 C1797 1.403 . S
C1795 C1792 1.403 . S
C1795 C1796 1.524 . S
C1795 C1799 1.400 . S
C1796 H1781 0.960 . S
C1796 H1782 0.960 . S
C1796 H1783 0.960 . S
C1796 C1795 1.524 . S
C1797 C1794 1.403 . S
C1797 C1798 1.392 . S
C1797 C1801 1.495 . S
C1798 C1797 1.392 . S
C1798 C1799 1.385 . S
C1798 C1800 1.478 . S
C1799 H1793 0.930 . S
C1799 C1795 1.400 . S
C1799 C1798 1.385 . S
C1800 C1798 1.478 . S
C1800 C1802 1.381 . S
C1800 C1806 1.383 . S
C1801 C1797 1.495 . S
C1801 H1807 0.959 . S
C1801 H1808 0.961 . S
C1801 H1809 0.960 . S
C1802 C1800 1.381 . S
C1802 C1803 1.394 . S
C1802 H1810 0.930 . S
C1803 C1802 1.394 . S
C1803 C1804 1.383 . S
C1803 H1811 0.929 . S
C1804 C1803 1.383 . S
C1804 C1805 1.377 . S
C1805 H1789 0.930 . S
C1805 C1804 1.377 . S
C1805 C1806 1.379 . S
C1806 H1790 0.931 . S
C1806 C1800 1.383 . S
C1806 C1805 1.379 . S
H1807 C1801 0.959 . S
H1808 C1801 0.961 . S
H1809 C1801 0.960 . S
H1810 C1802 0.930 . S
H1811 C1803 0.929 . S
H1812 C1820 0.929 . S
H1813 C1822 0.930 . S
H1814 C1824 0.930 . S
H1815 C1827 0.929 . S
H1816 C1830 0.930 . S
H1817 C1832 0.960 . S
H1818 C1832 0.960 1_556 S
H1819 C1832 0.960 . S
C1820 H1812 0.929 . S
C1820 C1821 1.377 . S
C1820 C1822 1.384 . S
C1821 C1820 1.377 . S
C1821 C1827 1.390 . S
C1822 H1813 0.930 . S
C1822 C1820 1.384 . S
C1822 C1823 1.372 . S
C1823 C1822 1.372 . S
C1823 C1824 1.400 . S
C1823 C1828 1.490 . S
C1824 H1814 0.930 . S
C1824 C1823 1.400 . S
C1824 C1827 1.386 . S
H1825 C1841 0.930 . S
H1826 C1842 0.931 . S
C1827 H1815 0.929 . S
C1827 C1821 1.390 . S
C1827 C1824 1.386 . S
C1828 C1823 1.490 . S
C1828 C1830 1.395 . S
C1828 C1831 1.363 1_556 S
H1829 C1835 0.930 . S
C1830 H1816 0.930 . S
C1830 C1828 1.395 . S
C1830 C1833 1.403 . S
C1831 C1828 1.363 1_554 S
C1831 C1832 1.532 . S
C1831 C1835 1.434 . S
C1832 H1817 0.960 . S
C1832 H1818 0.960 1_554 S
C1832 H1819 0.960 . S
C1832 C1831 1.532 . S
C1833 C1830 1.403 . S
C1833 C1834 1.392 1_556 S
C1833 C1837 1.495 . S
C1834 C1833 1.392 1_554 S
C1834 C1835 1.385 . S
C1834 C1836 1.478 . S
C1835 H1829 0.930 . S
C1835 C1831 1.434 . S
C1835 C1834 1.385 . S
C1836 C1834 1.478 . S
C1836 C1838 1.381 . S
C1836 C1842 1.383 . S
C1837 C1833 1.495 . S
C1837 H1843 0.959 . S
C1837 H1844 0.961 1_556 S
C1837 H1845 0.960 . S
C1838 C1836 1.381 . S
C1838 C1839 1.394 . S
C1838 H1846 0.930 . S
C1839 C1838 1.394 . S
C1839 C1840 1.383 . S
C1839 H1847 0.929 . S
C1840 C1839 1.383 . S
C1840 C1841 1.377 . S
C1841 H1825 0.930 . S
C1841 C1840 1.377 . S
C1841 C1842 1.379 . S
C1842 H1826 0.931 . S
C1842 C1836 1.383 . S
C1842 C1841 1.379 . S
H1843 C1837 0.959 . S
H1844 C1837 0.961 1_554 S
H1845 C1837 0.960 . S
H1846 C1838 0.930 . S
H1847 C1839 0.929 . S
H1848 C1856 0.929 . S
H1849 C1858 0.930 . S
H1850 C1860 0.930 . S
H1851 C1863 0.929 . S
H1852 C1866 0.930 . S
H1853 C1868 0.960 . S
H1854 C1868 0.960 . S
H1855 C1868 0.960 . S
C1856 H1848 0.929 . S
C1856 C1857 1.377 . S
C1856 C1858 1.384 . S
C1857 C1856 1.377 . S
C1857 C1863 1.390 . S
C1858 H1849 0.930 . S
C1858 C1856 1.384 . S
C1858 C1859 1.372 . S
C1859 C1858 1.372 . S
C1859 C1860 1.400 . S
C1859 C1864 1.490 . S
C1860 H1850 0.930 . S
C1860 C1859 1.400 . S
C1860 C1863 1.386 . S
H1861 C1877 0.930 . S
H1862 C1878 0.931 . S
C1863 H1851 0.929 . S
C1863 C1857 1.390 . S
C1863 C1860 1.386 . S
C1864 C1859 1.490 . S
C1864 C1866 1.395 . S
C1864 C1867 1.403 . S
H1865 C1871 0.930 . S
C1866 H1852 0.930 . S
C1866 C1864 1.395 . S
C1866 C1869 1.403 . S
C1867 C1864 1.403 . S
C1867 C1868 1.524 . S
C1867 C1871 1.400 . S
C1868 H1853 0.960 . S
C1868 H1854 0.960 . S
C1868 H1855 0.960 . S
C1868 C1867 1.524 . S
C1869 C1866 1.403 . S
C1869 C1870 1.392 . S
C1869 C1873 1.495 . S
C1870 C1869 1.392 . S
C1870 C1871 1.385 . S
C1870 C1872 1.478 . S
C1871 H1865 0.930 . S
C1871 C1867 1.400 . S
C1871 C1870 1.385 . S
C1872 C1870 1.478 . S
C1872 C1874 1.381 . S
C1872 C1878 1.383 . S
C1873 C1869 1.495 . S
C1873 H1879 0.959 . S
C1873 H1880 0.961 . S
C1873 H1881 0.960 . S
C1874 C1872 1.381 . S
C1874 C1875 1.394 . S
C1874 H1882 0.930 . S
C1875 C1874 1.394 . S
C1875 C1876 1.383 . S
C1875 H1883 0.929 . S
C1876 C1875 1.383 . S
C1876 C1877 1.377 . S
C1877 H1861 0.930 . S
C1877 C1876 1.377 . S
C1877 C1878 1.379 . S
C1878 H1862 0.931 . S
C1878 C1872 1.383 . S
C1878 C1877 1.379 . S
H1879 C1873 0.959 . S
H1880 C1873 0.961 . S
H1881 C1873 0.960 . S
H1882 C1874 0.930 . S
H1883 C1875 0.929 . S
H1884 C1892 0.929 . S
H1885 C1894 0.930 . S
H1886 C1896 0.930 . S
H1887 C1899 0.929 . S
H1888 C1902 0.930 . S
H1889 C1904 0.960 . S
H1890 C1904 0.960 . S
H1891 C1904 0.960 . S
C1892 H1884 0.929 . S
C1892 C1893 1.377 . S
C1892 C1894 1.384 . S
C1893 C1892 1.377 . S
C1893 C1899 1.390 . S
C1894 H1885 0.930 . S
C1894 C1892 1.384 . S
C1894 C1895 1.372 . S
C1895 C1894 1.372 . S
C1895 C1896 1.400 . S
C1895 C1900 1.490 . S
C1896 H1886 0.930 . S
C1896 C1895 1.400 . S
C1896 C1899 1.386 . S
H1897 C1913 0.930 . S
H1898 C1914 0.931 . S
C1899 H1887 0.929 . S
C1899 C1893 1.390 . S
C1899 C1896 1.386 . S
C1900 C1895 1.490 . S
C1900 C1902 1.395 . S
C1900 C1903 1.403 . S
H1901 C1907 0.930 . S
C1902 H1888 0.930 . S
C1902 C1900 1.395 . S
C1902 C1905 1.403 . S
C1903 C1900 1.403 . S
C1903 C1904 1.524 . S
C1903 C1907 1.400 . S
C1904 H1889 0.960 . S
C1904 H1890 0.960 . S
C1904 H1891 0.960 . S
C1904 C1903 1.524 . S
C1905 C1902 1.403 . S
C1905 C1906 1.392 . S
C1905 C1909 1.495 . S
C1906 C1905 1.392 . S
C1906 C1907 1.385 . S
C1906 C1908 1.478 . S
C1907 H1901 0.930 . S
C1907 C1903 1.400 . S
C1907 C1906 1.385 . S
C1908 C1906 1.478 . S
C1908 C1910 1.381 . S
C1908 C1914 1.383 . S
C1909 C1905 1.495 . S
C1909 H1915 0.959 . S
C1909 H1916 0.961 . S
C1909 H1917 0.960 . S
C1910 C1908 1.381 . S
C1910 C1911 1.394 . S
C1910 H1918 0.930 . S
C1911 C1910 1.394 . S
C1911 C1912 1.383 . S
C1911 H1919 0.929 . S
C1912 C1911 1.383 . S
C1912 C1913 1.377 . S
C1913 H1897 0.930 . S
C1913 C1912 1.377 . S
C1913 C1914 1.379 . S
C1914 H1898 0.931 . S
C1914 C1908 1.383 . S
C1914 C1913 1.379 . S
H1915 C1909 0.959 . S
H1916 C1909 0.961 . S
H1917 C1909 0.960 . S
H1918 C1910 0.930 . S
H1919 C1911 0.929 . S
H1920 C1928 0.929 . S
H1921 C1930 0.930 . S
H1922 C1932 0.930 . S
H1923 C1935 0.929 . S
H1924 C1938 0.930 . S
H1925 C1940 0.960 . S
H1926 C1940 0.960 . S
H1927 C1940 0.960 . S
C1928 H1920 0.929 . S
C1928 C1929 1.377 . S
C1928 C1930 1.384 . S
C1929 C1928 1.377 . S
C1929 C1935 1.390 . S
C1930 H1921 0.930 . S
C1930 C1928 1.384 . S
C1930 C1931 1.372 . S
C1931 C1930 1.372 . S
C1931 C1932 1.400 . S
C1931 C1936 1.490 . S
C1932 H1922 0.930 . S
C1932 C1931 1.400 . S
C1932 C1935 1.386 . S
H1933 C1949 0.930 . S
H1934 C1950 0.931 . S
C1935 H1923 0.929 . S
C1935 C1929 1.390 . S
C1935 C1932 1.386 . S
C1936 C1931 1.490 . S
C1936 C1938 1.395 . S
C1936 C1939 1.403 . S
H1937 C1943 0.930 . S
C1938 H1924 0.930 . S
C1938 C1936 1.395 . S
C1938 C1941 1.403 . S
C1939 C1936 1.403 . S
C1939 C1940 1.524 . S
C1939 C1943 1.400 . S
C1940 H1925 0.960 . S
C1940 H1926 0.960 . S
C1940 H1927 0.960 . S
C1940 C1939 1.524 . S
C1941 C1938 1.403 . S
C1941 C1942 1.392 . S
C1941 C1945 1.495 1_655 S
C1942 C1941 1.392 . S
C1942 C1943 1.385 . S
C1942 C1944 1.478 1_655 S
C1943 H1937 0.930 . S
C1943 C1939 1.400 . S
C1943 C1942 1.385 . S
C1944 C1942 1.478 1_455 S
C1944 C1946 1.381 . S
C1944 C1950 1.383 . S
C1945 C1941 1.495 1_455 S
C1945 H1951 0.959 . S
C1945 H1952 0.961 . S
C1945 H1953 0.960 . S
C1946 C1944 1.381 . S
C1946 C1947 1.394 . S
C1946 H1954 0.930 . S
C1947 C1946 1.394 . S
C1947 C1948 1.383 . S
C1947 H1955 0.929 . S
C1948 C1947 1.383 . S
C1948 C1949 1.377 . S
C1949 H1933 0.930 . S
C1949 C1948 1.377 . S
C1949 C1950 1.379 . S
C1950 H1934 0.931 . S
C1950 C1944 1.383 . S
C1950 C1949 1.379 . S
H1951 C1945 0.959 . S
H1952 C1945 0.961 . S
H1953 C1945 0.960 . S
H1954 C1946 0.930 . S
H1955 C1947 0.929 . S
H1956 C1964 0.929 . S
H1957 C1966 0.930 . S
H1958 C1968 0.930 . S
H1959 C1971 0.929 . S
H1960 C1974 0.930 . S
H1961 C1976 0.960 . S
H1962 C1976 0.960 . S
H1963 C1976 0.960 . S
C1964 H1956 0.929 . S
C1964 C1965 1.377 . S
C1964 C1966 1.384 . S
C1965 C1964 1.377 . S
C1965 C1971 1.390 . S
C1966 H1957 0.930 . S
C1966 C1964 1.384 . S
C1966 C1967 1.372 . S
C1967 C1966 1.372 . S
C1967 C1968 1.400 . S
C1967 C1972 1.490 . S
C1968 H1958 0.930 . S
C1968 C1967 1.400 . S
C1968 C1971 1.386 . S
H1969 C1985 0.930 . S
H1970 C1986 0.931 . S
C1971 H1959 0.929 . S
C1971 C1965 1.390 . S
C1971 C1968 1.386 . S
C1972 C1967 1.490 . S
C1972 C1974 1.395 . S
C1972 C1975 1.403 . S
H1973 C1979 0.930 . S
C1974 H1960 0.930 . S
C1974 C1972 1.395 . S
C1974 C1977 1.403 . S
C1975 C1972 1.403 . S
C1975 C1976 1.524 . S
C1975 C1979 1.400 . S
C1976 H1961 0.960 . S
C1976 H1962 0.960 . S
C1976 H1963 0.960 . S
C1976 C1975 1.524 . S
C1977 C1974 1.403 . S
C1977 C1978 1.392 . S
C1977 C1981 1.495 . S
C1978 C1977 1.392 . S
C1978 C1979 1.385 . S
C1978 C1980 1.478 . S
C1979 H1973 0.930 . S
C1979 C1975 1.400 . S
C1979 C1978 1.385 . S
C1980 C1978 1.478 . S
C1980 C1982 1.381 . S
C1980 C1986 1.383 . S
C1981 C1977 1.495 . S
C1981 H1987 0.959 . S
C1981 H1988 0.961 . S
C1981 H1989 0.960 . S
C1982 C1980 1.381 . S
C1982 C1983 1.394 . S
C1982 H1990 0.930 . S
C1983 C1982 1.394 . S
C1983 C1984 1.383 . S
C1983 H1991 0.929 . S
C1984 C1983 1.383 . S
C1984 C1985 1.377 . S
C1985 H1969 0.930 . S
C1985 C1984 1.377 . S
C1985 C1986 1.379 . S
C1986 H1970 0.931 . S
C1986 C1980 1.383 . S
C1986 C1985 1.379 . S
H1987 C1981 0.959 . S
H1988 C1981 0.961 . S
H1989 C1981 0.960 . S
H1990 C1982 0.930 . S
H1991 C1983 0.929 . S
H1992 C2000 0.929 . S
H1993 C2002 0.930 . S
H1994 C2004 0.930 . S
H1995 C2007 0.929 . S
H1996 C2010 0.930 . S
H1997 C2012 0.960 1_655 S
H1998 C2012 0.960 . S
H1999 C2012 0.960 . S
C2000 H1992 0.929 . S
C2000 C2001 1.377 . S
C2000 C2002 1.384 . S
C2001 C2000 1.377 . S
C2001 C2007 1.390 . S
C2002 H1993 0.930 . S
C2002 C2000 1.384 . S
C2002 C2003 1.372 . S
C2003 C2002 1.372 . S
C2003 C2004 1.400 . S
C2003 C2008 1.490 . S
C2004 H1994 0.930 . S
C2004 C2003 1.400 . S
C2004 C2007 1.386 . S
H2005 C2021 0.930 . S
H2006 C2022 0.931 . S
C2007 H1995 0.929 . S
C2007 C2001 1.390 . S
C2007 C2004 1.386 . S
C2008 C2003 1.490 . S
C2008 C2010 1.395 . S
C2008 C2011 1.403 . S
H2009 C2015 0.930 1_655 S
C2010 H1996 0.930 . S
C2010 C2008 1.395 . S
C2010 C2013 1.403 . S
C2011 C2008 1.403 . S
C2011 C2012 1.524 . S
C2011 C2015 1.400 . S
C2012 H1997 0.960 1_455 S
C2012 H1998 0.960 . S
C2012 H1999 0.960 . S
C2012 C2011 1.524 . S
C2013 C2010 1.403 . S
C2013 C2014 1.392 . S
C2013 C2017 1.495 . S
C2014 C2013 1.392 . S
C2014 C2015 1.385 . S
C2014 C2016 1.478 1_455 S
C2015 H2009 0.930 1_455 S
C2015 C2011 1.400 . S
C2015 C2014 1.385 . S
C2016 C2014 1.478 1_655 S
C2016 C2018 1.381 . S
C2016 C2022 1.383 . S
C2017 C2013 1.495 . S
C2017 H2023 0.959 . S
C2017 H2024 0.961 . S
C2017 H2025 0.960 . S
C2018 C2016 1.381 . S
C2018 C2019 1.394 . S
C2018 H2026 0.930 1_655 S
C2019 C2018 1.394 . S
C2019 C2020 1.383 . S
C2019 H2027 0.929 . S
C2020 C2019 1.383 . S
C2020 C2021 1.377 . S
C2021 H2005 0.930 . S
C2021 C2020 1.377 . S
C2021 C2022 1.379 . S
C2022 H2006 0.931 . S
C2022 C2016 1.383 . S
C2022 C2021 1.379 . S
H2023 C2017 0.959 . S
H2024 C2017 0.961 . S
H2025 C2017 0.960 . S
H2026 C2018 0.930 1_455 S
H2027 C2019 0.929 . S
H2028 C2036 0.929 . S
H2029 C2038 0.930 . S
H2030 C2040 0.930 . S
H2031 C2043 0.929 . S
H2032 C2046 0.930 . S
H2033 C2048 0.960 . S
H2034 C2048 0.960 . S
H2035 C2048 0.960 . S
C2036 H2028 0.929 . S
C2036 C2037 1.377 . S
C2036 C2038 1.384 . S
C2037 C2036 1.377 . S
C2037 C2043 1.390 . S
C2038 H2029 0.930 . S
C2038 C2036 1.384 . S
C2038 C2039 1.372 . S
C2039 C2038 1.372 . S
C2039 C2040 1.400 . S
C2039 C2044 1.490 . S
C2040 H2030 0.930 . S
C2040 C2039 1.400 . S
C2040 C2043 1.386 . S
H2041 C2057 0.930 . S
H2042 C2058 0.930 1_556 S
C2043 H2031 0.929 . S
C2043 C2037 1.390 . S
C2043 C2040 1.386 . S
C2044 C2039 1.490 . S
C2044 C2046 1.395 . S
C2044 C2047 1.403 . S
H2045 C2051 0.930 . S
C2046 H2032 0.930 . S
C2046 C2044 1.395 . S
C2046 C2049 1.431 . S
C2047 C2044 1.403 . S
C2047 C2048 1.524 . S
C2047 C2051 1.400 . S
C2048 H2033 0.960 . S
C2048 H2034 0.960 . S
C2048 H2035 0.960 . S
C2048 C2047 1.524 . S
C2049 C2046 1.431 . S
C2049 C2050 1.386 1_556 S
C2049 C2053 1.476 1_556 S
C2050 C2049 1.386 1_554 S
C2050 C2051 1.385 1_554 S
C2050 C2052 1.478 . S
C2051 H2045 0.930 . S
C2051 C2047 1.400 . S
C2051 C2050 1.385 1_556 S
C2052 C2050 1.478 . S
C2052 C2054 1.381 . S
C2052 C2058 1.383 . S
C2053 C2049 1.476 1_554 S
C2053 H2059 0.959 . S
C2053 H2060 0.961 . S
C2053 H2061 0.960 . S
C2054 C2052 1.381 . S
C2054 C2055 1.394 . S
C2054 H2062 0.930 . S
C2055 C2054 1.394 . S
C2055 C2056 1.383 . S
C2055 H2063 0.929 . S
C2056 C2055 1.383 . S
C2056 C2057 1.377 . S
C2057 H2041 0.930 . S
C2057 C2056 1.377 . S
C2057 C2058 1.379 . S
C2058 H2042 0.930 1_554 S
C2058 C2052 1.383 . S
C2058 C2057 1.379 . S
H2059 C2053 0.959 . S
H2060 C2053 0.961 . S
H2061 C2053 0.960 . S
H2062 C2054 0.930 . S
H2063 C2055 0.929 . S
H2064 C2072 0.929 . S
H2065 C2074 0.930 . S
H2066 C2076 0.930 . S
H2067 C2079 0.929 . S
H2068 C2082 0.930 . S
H2069 C2084 0.960 . S
H2070 C2084 0.960 . S
H2071 C2084 0.960 . S
C2072 H2064 0.929 . S
C2072 C2073 1.377 . S
C2072 C2074 1.384 . S
C2073 C2072 1.377 . S
C2073 C2079 1.390 . S
C2074 H2065 0.930 . S
C2074 C2072 1.384 . S
C2074 C2075 1.372 . S
C2075 C2074 1.372 . S
C2075 C2076 1.400 . S
C2075 C2080 1.490 . S
C2076 H2066 0.930 . S
C2076 C2075 1.400 . S
C2076 C2079 1.386 . S
H2077 C2093 0.930 . S
H2078 C2094 0.931 . S
C2079 H2067 0.929 . S
C2079 C2073 1.390 . S
C2079 C2076 1.386 . S
C2080 C2075 1.490 . S
C2080 C2082 1.395 . S
C2080 C2083 1.403 . S
H2081 C2087 0.930 . S
C2082 H2068 0.930 . S
C2082 C2080 1.395 . S
C2082 C2085 1.403 . S
C2083 C2080 1.403 . S
C2083 C2084 1.524 . S
C2083 C2087 1.400 . S
C2084 H2069 0.960 . S
C2084 H2070 0.960 . S
C2084 H2071 0.960 . S
C2084 C2083 1.524 . S
C2085 C2082 1.403 . S
C2085 C2086 1.392 . S
C2085 C2089 1.495 . S
C2086 C2085 1.392 . S
C2086 C2087 1.385 . S
C2086 C2088 1.478 . S
C2087 H2081 0.930 . S
C2087 C2083 1.400 . S
C2087 C2086 1.385 . S
C2088 C2086 1.478 . S
C2088 C2090 1.381 . S
C2088 C2094 1.383 . S
C2089 C2085 1.495 . S
C2089 H2095 0.959 . S
C2089 H2096 0.961 . S
C2089 H2097 0.960 . S
C2090 C2088 1.381 . S
C2090 C2091 1.394 . S
C2090 H2098 0.930 . S
C2091 C2090 1.394 . S
C2091 C2092 1.383 . S
C2091 H2099 0.929 . S
C2092 C2091 1.383 . S
C2092 C2093 1.377 . S
C2093 H2077 0.930 . S
C2093 C2092 1.377 . S
C2093 C2094 1.379 . S
C2094 H2078 0.931 . S
C2094 C2088 1.383 . S
C2094 C2093 1.379 . S
H2095 C2089 0.959 . S
H2096 C2089 0.961 . S
H2097 C2089 0.960 . S
H2098 C2090 0.930 . S
H2099 C2091 0.929 . S
H2100 C2108 0.929 . S
H2101 C2110 0.930 . S
H2102 C2112 0.930 . S
H2103 C2115 0.929 . S
H2104 C2118 0.930 . S
H2105 C2120 0.960 . S
H2106 C2120 0.960 . S
H2107 C2120 0.960 . S
C2108 H2100 0.929 . S
C2108 C2109 1.377 . S
C2108 C2110 1.384 . S
C2109 C2108 1.377 . S
C2109 C2115 1.390 . S
C2110 H2101 0.930 . S
C2110 C2108 1.384 . S
C2110 C2111 1.372 . S
C2111 C2110 1.372 . S
C2111 C2112 1.400 . S
C2111 C2116 1.490 . S
C2112 H2102 0.930 . S
C2112 C2111 1.400 . S
C2112 C2115 1.386 . S
H2113 C2129 0.930 . S
H2114 C2130 0.931 . S
C2115 H2103 0.929 . S
C2115 C2109 1.390 . S
C2115 C2112 1.386 . S
C2116 C2111 1.490 . S
C2116 C2118 1.395 . S
C2116 C2119 1.403 . S
H2117 C2123 0.930 . S
C2118 H2104 0.930 . S
C2118 C2116 1.395 . S
C2118 C2121 1.403 1_565 S
C2119 C2116 1.403 . S
C2119 C2120 1.524 . S
C2119 C2123 1.400 . S
C2120 H2105 0.960 . S
C2120 H2106 0.960 . S
C2120 H2107 0.960 . S
C2120 C2119 1.524 . S
C2121 C2118 1.403 1_545 S
C2121 C2122 1.392 . S
C2121 C2125 1.495 . S
C2122 C2121 1.392 . S
C2122 C2123 1.385 1_545 S
C2122 C2124 1.478 . S
C2123 H2117 0.930 . S
C2123 C2119 1.400 . S
C2123 C2122 1.385 1_565 S
C2124 C2122 1.478 . S
C2124 C2126 1.381 . S
C2124 C2130 1.383 . S
C2125 C2121 1.495 . S
C2125 H2131 0.959 . S
C2125 H2132 0.961 . S
C2125 H2133 0.960 . S
C2126 C2124 1.381 . S
C2126 C2127 1.394 . S
C2126 H2134 0.930 . S
C2127 C2126 1.394 . S
C2127 C2128 1.383 . S
C2127 H2135 0.929 . S
C2128 C2127 1.383 . S
C2128 C2129 1.377 . S
C2129 H2113 0.930 . S
C2129 C2128 1.377 . S
C2129 C2130 1.379 . S
C2130 H2114 0.931 . S
C2130 C2124 1.383 . S
C2130 C2129 1.379 . S
H2131 C2125 0.959 . S
H2132 C2125 0.961 . S
H2133 C2125 0.960 . S
H2134 C2126 0.930 . S
H2135 C2127 0.929 . S
H2136 C2144 0.929 . S
H2137 C2146 0.930 . S
H2138 C2148 0.930 . S
H2139 C2151 0.929 . S
H2140 C2154 0.930 . S
H2141 C2156 0.960 . S
H2142 C2156 0.960 . S
H2143 C2156 0.960 . S
C2144 H2136 0.929 . S
C2144 C2145 1.377 . S
C2144 C2146 1.384 . S
C2145 C2144 1.377 . S
C2145 C2151 1.390 . S
C2146 H2137 0.930 . S
C2146 C2144 1.384 . S
C2146 C2147 1.372 . S
C2147 C2146 1.372 . S
C2147 C2148 1.400 . S
C2147 C2152 1.490 . S
C2148 H2138 0.930 . S
C2148 C2147 1.400 . S
C2148 C2151 1.386 . S
H2149 C2165 0.930 . S
H2150 C2166 0.931 . S
C2151 H2139 0.929 . S
C2151 C2145 1.390 . S
C2151 C2148 1.386 . S
C2152 C2147 1.490 . S
C2152 C2154 1.395 . S
C2152 C2155 1.403 . S
H2153 C2159 0.930 . S
C2154 H2140 0.930 . S
C2154 C2152 1.395 . S
C2154 C2157 1.403 . S
C2155 C2152 1.403 . S
C2155 C2156 1.524 . S
C2155 C2159 1.400 . S
C2156 H2141 0.960 . S
C2156 H2142 0.960 . S
C2156 H2143 0.960 . S
C2156 C2155 1.524 . S
C2157 C2154 1.403 . S
C2157 C2158 1.392 . S
C2157 C2161 1.495 . S
C2158 C2157 1.392 . S
C2158 C2159 1.385 . S
C2158 C2160 1.478 . S
C2159 H2153 0.930 . S
C2159 C2155 1.400 . S
C2159 C2158 1.385 . S
C2160 C2158 1.478 . S
C2160 C2162 1.381 . S
C2160 C2166 1.383 . S
C2161 C2157 1.495 . S
C2161 H2167 0.959 . S
C2161 H2168 0.961 . S
C2161 H2169 0.960 . S
C2162 C2160 1.381 . S
C2162 C2163 1.394 . S
C2162 H2170 0.930 . S
C2163 C2162 1.394 . S
C2163 C2164 1.383 . S
C2163 H2171 0.929 . S
C2164 C2163 1.383 . S
C2164 C2165 1.377 . S
C2165 H2149 0.930 . S
C2165 C2164 1.377 . S
C2165 C2166 1.379 . S
C2166 H2150 0.931 . S
C2166 C2160 1.383 . S
C2166 C2165 1.379 . S
H2167 C2161 0.959 . S
H2168 C2161 0.961 . S
H2169 C2161 0.960 . S
H2170 C2162 0.930 . S
H2171 C2163 0.929 . S
H2172 C2180 0.929 . S
H2173 C2182 0.930 . S
H2174 C2184 0.930 . S
H2175 C2187 0.929 . S
H2176 C2190 0.930 . S
H2177 C2192 0.960 . S
H2178 C2192 0.960 . S
H2179 C2192 0.960 . S
C2180 H2172 0.929 . S
C2180 C2181 1.377 . S
C2180 C2182 1.384 . S
C2181 C2180 1.377 . S
C2181 C2187 1.390 . S
C2182 H2173 0.930 . S
C2182 C2180 1.384 . S
C2182 C2183 1.372 . S
C2183 C2182 1.372 . S
C2183 C2184 1.400 . S
C2183 C2188 1.490 . S
C2184 H2174 0.930 . S
C2184 C2183 1.400 . S
C2184 C2187 1.386 . S
H2185 C2201 0.930 . S
H2186 C2202 0.931 . S
C2187 H2175 0.929 . S
C2187 C2181 1.390 . S
C2187 C2184 1.386 . S
C2188 C2183 1.490 . S
C2188 C2190 1.395 . S
C2188 C2191 1.403 . S
H2189 C2195 0.930 . S
C2190 H2176 0.930 . S
C2190 C2188 1.395 . S
C2190 C2193 1.403 . S
C2191 C2188 1.403 . S
C2191 C2192 1.524 . S
C2191 C2195 1.400 . S
C2192 H2177 0.960 . S
C2192 H2178 0.960 . S
C2192 H2179 0.960 . S
C2192 C2191 1.524 . S
C2193 C2190 1.403 . S
C2193 C2194 1.392 . S
C2193 C2197 1.495 . S
C2194 C2193 1.392 . S
C2194 C2195 1.385 . S
C2194 C2196 1.478 . S
C2195 H2189 0.930 . S
C2195 C2191 1.400 . S
C2195 C2194 1.385 . S
C2196 C2194 1.478 . S
C2196 C2198 1.381 . S
C2196 C2202 1.383 . S
C2197 C2193 1.495 . S
C2197 H2203 0.959 . S
C2197 H2204 0.961 . S
C2197 H2205 0.960 . S
C2198 C2196 1.381 . S
C2198 C2199 1.394 . S
C2198 H2206 0.930 . S
C2199 C2198 1.394 . S
C2199 C2200 1.383 . S
C2199 H2207 0.929 . S
C2200 C2199 1.383 . S
C2200 C2201 1.377 . S
C2201 H2185 0.930 . S
C2201 C2200 1.377 . S
C2201 C2202 1.379 . S
C2202 H2186 0.931 . S
C2202 C2196 1.383 . S
C2202 C2201 1.379 . S
H2203 C2197 0.959 . S
H2204 C2197 0.961 . S
H2205 C2197 0.960 . S
H2206 C2198 0.930 . S
H2207 C2199 0.929 . S
H2208 C2216 0.929 . S
H2209 C2218 0.930 . S
H2210 C2220 0.930 . S
H2211 C2223 0.929 . S
H2212 C2226 0.930 . S
H2213 C2228 0.960 . S
H2214 C2228 0.960 . S
H2215 C2228 0.960 . S
C2216 H2208 0.929 . S
C2216 C2217 1.377 . S
C2216 C2218 1.384 . S
C2217 C2216 1.377 . S
C2217 C2223 1.390 . S
C2218 H2209 0.930 . S
C2218 C2216 1.384 . S
C2218 C2219 1.372 . S
C2219 C2218 1.372 . S
C2219 C2220 1.400 . S
C2219 C2224 1.490 . S
C2220 H2210 0.930 . S
C2220 C2219 1.400 . S
C2220 C2223 1.386 . S
H2221 C2237 0.930 . S
H2222 C2238 0.931 . S
C2223 H2211 0.929 . S
C2223 C2217 1.390 . S
C2223 C2220 1.386 . S
C2224 C2219 1.490 . S
C2224 C2226 1.395 . S
C2224 C2227 1.403 . S
H2225 C2231 0.930 . S
C2226 H2212 0.930 . S
C2226 C2224 1.395 . S
C2226 C2229 1.403 . S
C2227 C2224 1.403 . S
C2227 C2228 1.524 . S
C2227 C2231 1.400 . S
C2228 H2213 0.960 . S
C2228 H2214 0.960 . S
C2228 H2215 0.960 . S
C2228 C2227 1.524 . S
C2229 C2226 1.403 . S
C2229 C2230 1.392 . S
C2229 C2233 1.495 . S
C2230 C2229 1.392 . S
C2230 C2231 1.385 . S
C2230 C2232 1.478 . S
C2231 H2225 0.930 . S
C2231 C2227 1.400 . S
C2231 C2230 1.385 . S
C2232 C2230 1.478 . S
C2232 C2234 1.381 . S
C2232 C2238 1.383 . S
C2233 C2229 1.495 . S
C2233 H2239 0.959 . S
C2233 H2240 0.961 . S
C2233 H2241 0.960 . S
C2234 C2232 1.381 . S
C2234 C2235 1.394 . S
C2234 H2242 0.930 . S
C2235 C2234 1.394 . S
C2235 C2236 1.383 . S
C2235 H2243 0.929 . S
C2236 C2235 1.383 . S
C2236 C2237 1.377 . S
C2237 H2221 0.930 . S
C2237 C2236 1.377 . S
C2237 C2238 1.379 . S
C2238 H2222 0.931 . S
C2238 C2232 1.383 . S
C2238 C2237 1.379 . S
H2239 C2233 0.959 . S
H2240 C2233 0.961 . S
H2241 C2233 0.960 . S
H2242 C2234 0.930 . S
H2243 C2235 0.929 . S
H2244 C2252 0.929 . S
H2245 C2254 0.930 . S
H2246 C2256 0.930 . S
H2247 C2259 0.929 . S
H2248 C2262 0.930 . S
H2249 C2264 0.960 . S
H2250 C2264 0.960 . S
H2251 C2264 0.960 . S
C2252 H2244 0.929 . S
C2252 C2253 1.377 . S
C2252 C2254 1.384 . S
C2253 C2252 1.377 . S
C2253 C2259 1.390 . S
C2254 H2245 0.930 . S
C2254 C2252 1.384 . S
C2254 C2255 1.372 . S
C2255 C2254 1.372 . S
C2255 C2256 1.400 . S
C2255 C2260 1.490 . S
C2256 H2246 0.930 . S
C2256 C2255 1.400 . S
C2256 C2259 1.386 . S
H2257 C2273 0.930 . S
H2258 C2274 0.931 . S
C2259 H2247 0.929 . S
C2259 C2253 1.390 . S
C2259 C2256 1.386 . S
C2260 C2255 1.490 . S
C2260 C2262 1.395 . S
C2260 C2263 1.403 . S
H2261 C2267 0.930 . S
C2262 H2248 0.930 . S
C2262 C2260 1.395 . S
C2262 C2265 1.403 1_556 S
C2263 C2260 1.403 . S
C2263 C2264 1.524 . S
C2263 C2267 1.400 . S
C2264 H2249 0.960 . S
C2264 H2250 0.960 . S
C2264 H2251 0.960 . S
C2264 C2263 1.524 . S
C2265 C2262 1.403 1_554 S
C2265 C2266 1.392 . S
C2265 C2269 1.495 . S
C2266 C2265 1.392 . S
C2266 C2267 1.385 1_554 S
C2266 C2268 1.478 . S
C2267 H2261 0.930 . S
C2267 C2263 1.400 . S
C2267 C2266 1.385 1_556 S
C2268 C2266 1.478 . S
C2268 C2270 1.381 . S
C2268 C2274 1.383 . S
C2269 C2265 1.495 . S
C2269 H2275 0.959 . S
C2269 H2276 0.961 . S
C2269 H2277 0.960 . S
C2270 C2268 1.381 . S
C2270 C2271 1.394 . S
C2270 H2278 0.930 . S
C2271 C2270 1.394 . S
C2271 C2272 1.383 . S
C2271 H2279 0.929 . S
C2272 C2271 1.383 . S
C2272 C2273 1.377 . S
C2273 H2257 0.930 . S
C2273 C2272 1.377 . S
C2273 C2274 1.379 . S
C2274 H2258 0.931 . S
C2274 C2268 1.383 . S
C2274 C2273 1.379 . S
H2275 C2269 0.959 . S
H2276 C2269 0.961 . S
H2277 C2269 0.960 . S
H2278 C2270 0.930 . S
H2279 C2271 0.929 . S
H2280 C2288 0.929 . S
H2281 C2290 0.930 . S
H2282 C2292 0.930 . S
H2283 C2295 0.929 . S
H2284 C2298 0.930 . S
H2285 C2300 0.960 . S
H2286 C2300 0.960 . S
H2287 C2300 0.960 . S
C2288 H2280 0.929 . S
C2288 C2289 1.377 . S
C2288 C2290 1.384 . S
C2289 C2288 1.377 . S
C2289 C2295 1.390 . S
C2290 H2281 0.930 . S
C2290 C2288 1.384 . S
C2290 C2291 1.372 . S
C2291 C2290 1.372 . S
C2291 C2292 1.400 . S
C2291 C2296 1.490 . S
C2292 H2282 0.930 . S
C2292 C2291 1.400 . S
C2292 C2295 1.386 . S
H2293 C2309 0.930 . S
H2294 C2310 0.931 . S
C2295 H2283 0.929 . S
C2295 C2289 1.390 . S
C2295 C2292 1.386 . S
C2296 C2291 1.490 . S
C2296 C2298 1.395 . S
C2296 C2299 1.403 . S
H2297 C2303 0.930 . S
C2298 H2284 0.930 . S
C2298 C2296 1.395 . S
C2298 C2301 1.403 . S
C2299 C2296 1.403 . S
C2299 C2300 1.524 . S
C2299 C2303 1.400 . S
C2300 H2285 0.960 . S
C2300 H2286 0.960 . S
C2300 H2287 0.960 . S
C2300 C2299 1.524 . S
C2301 C2298 1.403 . S
C2301 C2302 1.392 . S
C2301 C2305 1.495 . S
C2302 C2301 1.392 . S
C2302 C2303 1.385 . S
C2302 C2304 1.478 . S
C2303 H2297 0.930 . S
C2303 C2299 1.400 . S
C2303 C2302 1.385 . S
C2304 C2302 1.478 . S
C2304 C2306 1.381 . S
C2304 C2310 1.383 . S
C2305 C2301 1.495 . S
C2305 H2311 0.959 . S
C2305 H2312 0.961 . S
C2305 H2313 0.960 . S
C2306 C2304 1.381 . S
C2306 C2307 1.394 . S
C2306 H2314 0.930 . S
C2307 C2306 1.394 . S
C2307 C2308 1.383 . S
C2307 H2315 0.929 . S
C2308 C2307 1.383 . S
C2308 C2309 1.377 . S
C2309 H2293 0.930 . S
C2309 C2308 1.377 . S
C2309 C2310 1.379 . S
C2310 H2294 0.931 . S
C2310 C2304 1.383 . S
C2310 C2309 1.379 . S
H2311 C2305 0.959 . S
H2312 C2305 0.961 . S
H2313 C2305 0.960 . S
H2314 C2306 0.930 . S
H2315 C2307 0.929 . S
H2316 C2324 0.929 . S
H2317 C2326 0.930 . S
H2318 C2328 0.930 1_565 S
H2319 C2331 0.929 . S
H2320 C2334 0.901 1_545 S
H2321 C2336 0.960 . S
H2322 C2336 0.960 . S
H2323 C2336 0.960 . S
C2324 H2316 0.929 . S
C2324 C2325 1.377 . S
C2324 C2326 1.384 . S
C2325 C2324 1.377 . S
C2325 C2331 1.390 . S
C2326 H2317 0.930 . S
C2326 C2324 1.384 . S
C2326 C2327 1.372 . S
C2327 C2326 1.372 . S
C2327 C2328 1.400 . S
C2327 C2332 1.490 1_545 S
C2328 H2318 0.930 1_545 S
C2328 C2327 1.400 . S
C2328 C2331 1.386 . S
H2329 C2345 0.930 . S
H2330 C2346 0.931 . S
C2331 H2319 0.929 . S
C2331 C2325 1.390 . S
C2331 C2328 1.386 . S
C2332 C2327 1.490 1_565 S
C2332 C2334 1.407 . S
C2332 C2335 1.403 . S
H2333 C2339 0.930 . S
C2334 H2320 0.901 1_565 S
C2334 C2332 1.407 . S
C2334 C2337 1.420 . S
C2335 C2332 1.403 . S
C2335 C2336 1.524 . S
C2335 C2339 1.400 . S
C2336 H2321 0.960 . S
C2336 H2322 0.960 . S
C2336 H2323 0.960 . S
C2336 C2335 1.524 . S
C2337 C2334 1.420 . S
C2337 C2338 1.392 . S
C2337 C2341 1.495 . S
C2338 C2337 1.392 . S
C2338 C2339 1.385 . S
C2338 C2340 1.478 . S
C2339 H2333 0.930 . S
C2339 C2335 1.400 . S
C2339 C2338 1.385 . S
C2340 C2338 1.478 . S
C2340 C2342 1.381 . S
C2340 C2346 1.383 . S
C2341 C2337 1.495 . S
C2341 H2347 0.959 1_565 S
C2341 H2348 0.961 . S
C2341 H2349 0.960 . S
C2342 C2340 1.381 . S
C2342 C2343 1.394 . S
C2342 H2350 0.930 . S
C2343 C2342 1.394 . S
C2343 C2344 1.383 . S
C2343 H2351 0.929 . S
C2344 C2343 1.383 . S
C2344 C2345 1.377 . S
C2345 H2329 0.930 . S
C2345 C2344 1.377 . S
C2345 C2346 1.379 . S
C2346 H2330 0.931 . S
C2346 C2340 1.383 . S
C2346 C2345 1.379 . S
H2347 C2341 0.959 1_545 S
H2348 C2341 0.961 . S
H2349 C2341 0.960 . S
H2350 C2342 0.930 . S
H2351 C2343 0.929 . S
H2352 C2360 0.929 . S
H2353 C2362 0.930 . S
H2354 C2364 0.930 . S
H2355 C2367 0.929 . S
H2356 C2370 0.930 . S
H2357 C2372 0.960 1_556 S
H2358 C2372 0.960 . S
H2359 C2372 0.960 . S
C2360 H2352 0.929 . S
C2360 C2361 1.377 . S
C2360 C2362 1.384 . S
C2361 C2360 1.377 . S
C2361 C2367 1.390 . S
C2362 H2353 0.930 . S
C2362 C2360 1.384 . S
C2362 C2363 1.372 . S
C2363 C2362 1.372 . S
C2363 C2364 1.400 . S
C2363 C2368 1.490 . S
C2364 H2354 0.930 . S
C2364 C2363 1.400 . S
C2364 C2367 1.386 . S
H2365 C2381 0.930 . S
H2366 C2382 0.931 . S
C2367 H2355 0.929 . S
C2367 C2361 1.390 . S
C2367 C2364 1.386 . S
C2368 C2363 1.490 . S
C2368 C2370 1.395 . S
C2368 C2371 1.403 . S
H2369 C2375 0.930 . S
C2370 H2356 0.930 . S
C2370 C2368 1.395 . S
C2370 C2373 1.403 . S
C2371 C2368 1.403 . S
C2371 C2372 1.524 . S
C2371 C2375 1.400 1_554 S
C2372 H2357 0.960 1_554 S
C2372 H2358 0.960 . S
C2372 H2359 0.960 . S
C2372 C2371 1.524 . S
C2373 C2370 1.403 . S
C2373 C2374 1.392 1_554 S
C2373 C2377 1.495 . S
C2374 C2373 1.392 1_556 S
C2374 C2375 1.385 . S
C2374 C2376 1.478 . S
C2375 H2369 0.930 . S
C2375 C2371 1.400 1_556 S
C2375 C2374 1.385 . S
C2376 C2374 1.478 . S
C2376 C2378 1.381 . S
C2376 C2382 1.383 . S
C2377 C2373 1.495 . S
C2377 H2383 0.959 . S
C2377 H2384 0.961 . S
C2377 H2385 0.960 . S
C2378 C2376 1.381 . S
C2378 C2379 1.394 . S
C2378 H2386 0.930 . S
C2379 C2378 1.394 . S
C2379 C2380 1.383 . S
C2379 H2387 0.929 . S
C2380 C2379 1.383 . S
C2380 C2381 1.377 . S
C2381 H2365 0.930 . S
C2381 C2380 1.377 . S
C2381 C2382 1.379 . S
C2382 H2366 0.931 . S
C2382 C2376 1.383 . S
C2382 C2381 1.379 . S
H2383 C2377 0.959 . S
H2384 C2377 0.961 . S
H2385 C2377 0.960 . S
H2386 C2378 0.930 . S
H2387 C2379 0.929 . S
H2388 C2396 0.929 . S
H2389 C2398 0.930 . S
H2390 C2400 0.930 1_565 S
H2391 C2403 0.929 . S
H2392 C2406 0.930 . S
H2393 C2408 0.960 . S
H2394 C2408 0.960 . S
H2395 C2408 0.960 . S
C2396 H2388 0.929 . S
C2396 C2397 1.377 . S
C2396 C2398 1.384 . S
C2397 C2396 1.377 . S
C2397 C2403 1.390 . S
C2398 H2389 0.930 . S
C2398 C2396 1.384 . S
C2398 C2399 1.372 . S
C2399 C2398 1.372 . S
C2399 C2400 1.400 . S
C2399 C2404 1.474 1_545 S
C2400 H2390 0.930 1_545 S
C2400 C2399 1.400 . S
C2400 C2403 1.386 . S
H2401 C2417 0.930 . S
H2402 C2418 0.931 . S
C2403 H2391 0.929 . S
C2403 C2397 1.390 . S
C2403 C2400 1.386 . S
C2404 C2399 1.474 1_565 S
C2404 C2406 1.390 1_565 S
C2404 C2407 1.422 . S
H2405 C2411 0.930 . S
C2406 H2392 0.930 . S
C2406 C2404 1.390 1_545 S
C2406 C2409 1.403 1_545 S
C2407 C2404 1.422 . S
C2407 C2408 1.524 . S
C2407 C2411 1.400 . S
C2408 H2393 0.960 . S
C2408 H2394 0.960 . S
C2408 H2395 0.960 . S
C2408 C2407 1.524 . S
C2409 C2406 1.403 1_565 S
C2409 C2410 1.392 . S
C2409 C2413 1.495 . S
C2410 C2409 1.392 . S
C2410 C2411 1.385 . S
C2410 C2412 1.478 . S
C2411 H2405 0.930 . S
C2411 C2407 1.400 . S
C2411 C2410 1.385 . S
C2412 C2410 1.478 . S
C2412 C2414 1.381 . S
C2412 C2418 1.383 . S
C2413 C2409 1.495 . S
C2413 H2419 0.959 1_565 S
C2413 H2420 0.961 . S
C2413 H2421 0.960 . S
C2414 C2412 1.381 . S
C2414 C2415 1.394 . S
C2414 H2422 0.930 . S
C2415 C2414 1.394 . S
C2415 C2416 1.383 . S
C2415 H2423 0.929 . S
C2416 C2415 1.383 . S
C2416 C2417 1.377 . S
C2417 H2401 0.930 . S
C2417 C2416 1.377 . S
C2417 C2418 1.379 . S
C2418 H2402 0.931 . S
C2418 C2412 1.383 . S
C2418 C2417 1.379 . S
H2419 C2413 0.959 1_545 S
H2420 C2413 0.961 . S
H2421 C2413 0.960 . S
H2422 C2414 0.930 . S
H2423 C2415 0.929 . S
H2424 C2432 0.929 . S
H2425 C2434 0.930 . S
H2426 C2436 0.930 . S
H2427 C2439 0.929 . S
H2428 C2442 0.930 . S
H2429 C2444 0.960 . S
H2430 C2444 0.960 . S
H2431 C2444 0.960 . S
C2432 H2424 0.929 . S
C2432 C2433 1.377 . S
C2432 C2434 1.384 . S
C2433 C2432 1.377 . S
C2433 C2439 1.390 . S
C2434 H2425 0.930 . S
C2434 C2432 1.384 . S
C2434 C2435 1.372 . S
C2435 C2434 1.372 . S
C2435 C2436 1.400 . S
C2435 C2440 1.490 . S
C2436 H2426 0.930 . S
C2436 C2435 1.400 . S
C2436 C2439 1.386 . S
H2437 C2453 0.930 . S
H2438 C2454 0.931 . S
C2439 H2427 0.929 . S
C2439 C2433 1.390 . S
C2439 C2436 1.386 . S
C2440 C2435 1.490 . S
C2440 C2442 1.395 . S
C2440 C2443 1.403 . S
H2441 C2447 0.930 . S
C2442 H2428 0.930 . S
C2442 C2440 1.395 . S
C2442 C2445 1.403 . S
C2443 C2440 1.403 . S
C2443 C2444 1.524 . S
C2443 C2447 1.400 . S
C2444 H2429 0.960 . S
C2444 H2430 0.960 . S
C2444 H2431 0.960 . S
C2444 C2443 1.524 . S
C2445 C2442 1.403 . S
C2445 C2446 1.392 . S
C2445 C2449 1.495 . S
C2446 C2445 1.392 . S
C2446 C2447 1.385 . S
C2446 C2448 1.478 . S
C2447 H2441 0.930 . S
C2447 C2443 1.400 . S
C2447 C2446 1.385 . S
C2448 C2446 1.478 . S
C2448 C2450 1.381 . S
C2448 C2454 1.383 . S
C2449 C2445 1.495 . S
C2449 H2455 0.959 . S
C2449 H2456 0.961 . S
C2449 H2457 0.960 . S
C2450 C2448 1.381 . S
C2450 C2451 1.394 . S
C2450 H2458 0.930 . S
C2451 C2450 1.394 . S
C2451 C2452 1.383 . S
C2451 H2459 0.929 . S
C2452 C2451 1.383 . S
C2452 C2453 1.377 . S
C2453 H2437 0.930 . S
C2453 C2452 1.377 . S
C2453 C2454 1.379 . S
C2454 H2438 0.931 . S
C2454 C2448 1.383 . S
C2454 C2453 1.379 . S
H2455 C2449 0.959 . S
H2456 C2449 0.961 . S
H2457 C2449 0.960 . S
H2458 C2450 0.930 . S
H2459 C2451 0.929 . S
H2460 C2468 0.929 . S
H2461 C2470 0.930 . S
H2462 C2472 0.930 . S
H2463 C2475 0.929 . S
H2464 C2478 0.930 . S
H2465 C2480 0.960 . S
H2466 C2480 0.960 . S
H2467 C2480 0.960 . S
C2468 H2460 0.929 . S
C2468 C2469 1.377 . S
C2468 C2470 1.384 . S
C2469 C2468 1.377 . S
C2469 C2475 1.390 . S
C2470 H2461 0.930 . S
C2470 C2468 1.384 . S
C2470 C2471 1.372 . S
C2471 C2470 1.372 . S
C2471 C2472 1.400 . S
C2471 C2476 1.490 . S
C2472 H2462 0.930 . S
C2472 C2471 1.400 . S
C2472 C2475 1.386 . S
H2473 C2489 0.930 . S
H2474 C2490 0.931 . S
C2475 H2463 0.929 . S
C2475 C2469 1.390 . S
C2475 C2472 1.386 . S
C2476 C2471 1.490 . S
C2476 C2478 1.395 1_655 S
C2476 C2479 1.403 . S
H2477 C2483 0.930 . S
C2478 H2464 0.930 . S
C2478 C2476 1.395 1_455 S
C2478 C2481 1.403 . S
C2479 C2476 1.403 . S
C2479 C2480 1.524 . S
C2479 C2483 1.400 1_655 S
C2480 H2465 0.960 . S
C2480 H2466 0.960 . S
C2480 H2467 0.960 . S
C2480 C2479 1.524 . S
C2481 C2478 1.403 . S
C2481 C2482 1.392 . S
C2481 C2485 1.495 . S
C2482 C2481 1.392 . S
C2482 C2483 1.385 . S
C2482 C2484 1.478 . S
C2483 H2477 0.930 . S
C2483 C2479 1.400 1_455 S
C2483 C2482 1.385 . S
C2484 C2482 1.478 . S
C2484 C2486 1.381 . S
C2484 C2490 1.383 . S
C2485 C2481 1.495 . S
C2485 H2491 0.959 . S
C2485 H2492 0.961 . S
C2485 H2493 0.960 . S
C2486 C2484 1.381 . S
C2486 C2487 1.394 . S
C2486 H2494 0.930 . S
C2487 C2486 1.394 . S
C2487 C2488 1.383 . S
C2487 H2495 0.929 . S
C2488 C2487 1.383 . S
C2488 C2489 1.377 . S
C2489 H2473 0.930 . S
C2489 C2488 1.377 . S
C2489 C2490 1.379 . S
C2490 H2474 0.931 . S
C2490 C2484 1.383 . S
C2490 C2489 1.379 . S
H2491 C2485 0.959 . S
H2492 C2485 0.961 . S
H2493 C2485 0.960 . S
H2494 C2486 0.930 . S
H2495 C2487 0.929 . S
H2496 C2504 0.929 . S
H2497 C2506 0.930 1_655 S
H2498 C2508 0.930 . S
H2499 C2511 0.929 . S
H2500 C2514 0.930 . S
H2501 C2516 0.960 . S
H2502 C2516 0.960 . S
H2503 C2516 0.960 . S
C2504 H2496 0.929 . S
C2504 C2505 1.377 . S
C2504 C2506 1.384 . S
C2505 C2504 1.377 . S
C2505 C2511 1.390 . S
C2506 H2497 0.930 1_455 S
C2506 C2504 1.384 . S
C2506 C2507 1.372 . S
C2507 C2506 1.372 . S
C2507 C2508 1.400 . S
C2507 C2512 1.490 1_455 S
C2508 H2498 0.930 . S
C2508 C2507 1.400 . S
C2508 C2511 1.386 . S
H2509 C2525 0.930 . S
H2510 C2526 0.931 . S
C2511 H2499 0.929 . S
C2511 C2505 1.390 . S
C2511 C2508 1.386 . S
C2512 C2507 1.490 1_655 S
C2512 C2514 1.395 . S
C2512 C2515 1.403 . S
H2513 C2519 0.930 . S
C2514 H2500 0.930 . S
C2514 C2512 1.395 . S
C2514 C2517 1.403 . S
C2515 C2512 1.403 . S
C2515 C2516 1.524 1_655 S
C2515 C2519 1.400 . S
C2516 H2501 0.960 . S
C2516 H2502 0.960 . S
C2516 H2503 0.960 . S
C2516 C2515 1.524 1_455 S
C2517 C2514 1.403 . S
C2517 C2518 1.392 . S
C2517 C2521 1.495 . S
C2518 C2517 1.392 . S
C2518 C2519 1.385 . S
C2518 C2520 1.478 . S
C2519 H2513 0.930 . S
C2519 C2515 1.400 . S
C2519 C2518 1.385 . S
C2520 C2518 1.478 . S
C2520 C2522 1.381 . S
C2520 C2526 1.383 . S
C2521 C2517 1.495 . S
C2521 H2527 0.959 . S
C2521 H2528 0.961 . S
C2521 H2529 0.960 . S
C2522 C2520 1.381 . S
C2522 C2523 1.394 . S
C2522 H2530 0.930 . S
C2523 C2522 1.394 . S
C2523 C2524 1.383 . S
C2523 H2531 0.929 . S
C2524 C2523 1.383 . S
C2524 C2525 1.377 . S
C2525 H2509 0.930 . S
C2525 C2524 1.377 . S
C2525 C2526 1.379 . S
C2526 H2510 0.931 . S
C2526 C2520 1.383 . S
C2526 C2525 1.379 . S
H2527 C2521 0.959 . S
H2528 C2521 0.961 . S
H2529 C2521 0.960 . S
H2530 C2522 0.930 . S
H2531 C2523 0.929 . S
H2532 C2540 0.929 . S
H2533 C2542 0.930 . S
H2534 C2544 0.930 . S
H2535 C2547 0.929 . S
H2536 C2550 0.930 . S
H2537 C2552 0.960 . S
H2538 C2552 0.960 . S
H2539 C2552 0.960 . S
C2540 H2532 0.929 . S
C2540 C2541 1.377 . S
C2540 C2542 1.384 . S
C2541 C2540 1.377 . S
C2541 C2547 1.390 . S
C2542 H2533 0.930 . S
C2542 C2540 1.384 . S
C2542 C2543 1.372 . S
C2543 C2542 1.372 . S
C2543 C2544 1.400 . S
C2543 C2548 1.490 . S
C2544 H2534 0.930 . S
C2544 C2543 1.400 . S
C2544 C2547 1.386 . S
H2545 C2561 0.930 . S
H2546 C2562 0.931 . S
C2547 H2535 0.929 . S
C2547 C2541 1.390 . S
C2547 C2544 1.386 . S
C2548 C2543 1.490 . S
C2548 C2550 1.395 . S
C2548 C2551 1.403 . S
H2549 C2555 0.930 . S
C2550 H2536 0.930 . S
C2550 C2548 1.395 . S
C2550 C2553 1.403 . S
C2551 C2548 1.403 . S
C2551 C2552 1.524 . S
C2551 C2555 1.400 . S
C2552 H2537 0.960 . S
C2552 H2538 0.960 . S
C2552 H2539 0.960 . S
C2552 C2551 1.524 . S
C2553 C2550 1.403 . S
C2553 C2554 1.392 . S
C2553 C2557 1.495 . S
C2554 C2553 1.392 . S
C2554 C2555 1.385 . S
C2554 C2556 1.478 . S
C2555 H2549 0.930 . S
C2555 C2551 1.400 . S
C2555 C2554 1.385 . S
C2556 C2554 1.478 . S
C2556 C2558 1.381 . S
C2556 C2562 1.383 . S
C2557 C2553 1.495 . S
C2557 H2563 0.959 . S
C2557 H2564 0.961 . S
C2557 H2565 0.960 . S
C2558 C2556 1.381 . S
C2558 C2559 1.394 . S
C2558 H2566 0.930 . S
C2559 C2558 1.394 . S
C2559 C2560 1.383 . S
C2559 H2567 0.929 . S
C2560 C2559 1.383 . S
C2560 C2561 1.377 . S
C2561 H2545 0.930 . S
C2561 C2560 1.377 . S
C2561 C2562 1.379 . S
C2562 H2546 0.931 . S
C2562 C2556 1.383 . S
C2562 C2561 1.379 . S
H2563 C2557 0.959 . S
H2564 C2557 0.961 . S
H2565 C2557 0.960 . S
H2566 C2558 0.930 . S
H2567 C2559 0.929 . S
H2568 C2576 0.929 . S
H2569 C2578 0.930 . S
H2570 C2580 0.930 . S
H2571 C2583 0.929 . S
H2572 C2586 0.930 . S
H2573 C2588 0.960 . S
H2574 C2588 0.960 1_455 S
H2575 C2588 0.960 . S
C2576 H2568 0.929 . S
C2576 C2577 1.377 . S
C2576 C2578 1.384 . S
C2577 C2576 1.377 . S
C2577 C2583 1.390 . S
C2578 H2569 0.930 . S
C2578 C2576 1.384 . S
C2578 C2579 1.372 . S
C2579 C2578 1.372 . S
C2579 C2580 1.400 . S
C2579 C2584 1.490 . S
C2580 H2570 0.930 . S
C2580 C2579 1.400 . S
C2580 C2583 1.386 . S
H2581 C2597 0.930 . S
H2582 C2598 0.931 . S
C2583 H2571 0.929 . S
C2583 C2577 1.390 . S
C2583 C2580 1.386 . S
C2584 C2579 1.490 . S
C2584 C2586 1.395 . S
C2584 C2587 1.403 1_455 S
H2585 C2591 0.930 . S
C2586 H2572 0.930 . S
C2586 C2584 1.395 . S
C2586 C2589 1.403 1_455 S
C2587 C2584 1.403 1_655 S
C2587 C2588 1.524 . S
C2587 C2591 1.400 . S
C2588 H2573 0.960 . S
C2588 H2574 0.960 1_655 S
C2588 H2575 0.960 . S
C2588 C2587 1.524 . S
C2589 C2586 1.403 1_655 S
C2589 C2590 1.392 . S
C2589 C2593 1.495 . S
C2590 C2589 1.392 . S
C2590 C2591 1.385 . S
C2590 C2592 1.478 . S
C2591 H2585 0.930 . S
C2591 C2587 1.400 . S
C2591 C2590 1.385 . S
C2592 C2590 1.478 . S
C2592 C2594 1.381 . S
C2592 C2598 1.383 . S
C2593 C2589 1.495 . S
C2593 H2599 0.959 1_655 S
C2593 H2600 0.961 . S
C2593 H2601 0.960 . S
C2594 C2592 1.381 . S
C2594 C2595 1.394 . S
C2594 H2602 0.930 . S
C2595 C2594 1.394 . S
C2595 C2596 1.383 . S
C2595 H2603 0.929 . S
C2596 C2595 1.383 . S
C2596 C2597 1.377 . S
C2597 H2581 0.930 . S
C2597 C2596 1.377 . S
C2597 C2598 1.379 . S
C2598 H2582 0.931 . S
C2598 C2592 1.383 . S
C2598 C2597 1.379 . S
H2599 C2593 0.959 1_455 S
H2600 C2593 0.961 . S
H2601 C2593 0.960 . S
H2602 C2594 0.930 . S
H2603 C2595 0.929 . S
H2604 C2612 0.929 . S
H2605 C2614 0.930 . S
H2606 C2616 0.930 . S
H2607 C2619 0.929 . S
H2608 C2622 0.930 . S
H2609 C2624 0.960 . S
H2610 C2624 0.960 . S
H2611 C2624 0.960 . S
C2612 H2604 0.929 . S
C2612 C2613 1.377 . S
C2612 C2614 1.384 . S
C2613 C2612 1.377 . S
C2613 C2619 1.390 . S
C2614 H2605 0.930 . S
C2614 C2612 1.384 . S
C2614 C2615 1.372 . S
C2615 C2614 1.372 . S
C2615 C2616 1.400 . S
C2615 C2620 1.490 . S
C2616 H2606 0.930 . S
C2616 C2615 1.400 . S
C2616 C2619 1.386 . S
H2617 C2633 0.930 . S
H2618 C2634 0.931 . S
C2619 H2607 0.929 . S
C2619 C2613 1.390 . S
C2619 C2616 1.386 . S
C2620 C2615 1.490 . S
C2620 C2622 1.395 . S
C2620 C2623 1.403 1_455 S
H2621 C2627 0.930 . S
C2622 H2608 0.930 . S
C2622 C2620 1.395 . S
C2622 C2625 1.403 . S
C2623 C2620 1.403 1_655 S
C2623 C2624 1.524 . S
C2623 C2627 1.400 . S
C2624 H2609 0.960 . S
C2624 H2610 0.960 . S
C2624 H2611 0.960 . S
C2624 C2623 1.524 . S
C2625 C2622 1.403 . S
C2625 C2626 1.392 1_455 S
C2625 C2629 1.495 . S
C2626 C2625 1.392 1_655 S
C2626 C2627 1.385 . S
C2626 C2628 1.478 . S
C2627 H2621 0.930 . S
C2627 C2623 1.400 . S
C2627 C2626 1.385 . S
C2628 C2626 1.478 . S
C2628 C2630 1.381 . S
C2628 C2634 1.383 . S
C2629 C2625 1.495 . S
C2629 H2635 0.959 . S
C2629 H2636 0.961 . S
C2629 H2637 0.960 . S
C2630 C2628 1.381 . S
C2630 C2631 1.394 . S
C2630 H2638 0.930 . S
C2631 C2630 1.394 . S
C2631 C2632 1.383 . S
C2631 H2639 0.929 . S
C2632 C2631 1.383 . S
C2632 C2633 1.377 . S
C2633 H2617 0.930 . S
C2633 C2632 1.377 . S
C2633 C2634 1.379 . S
C2634 H2618 0.931 . S
C2634 C2628 1.383 . S
C2634 C2633 1.379 . S
H2635 C2629 0.959 . S
H2636 C2629 0.961 . S
H2637 C2629 0.960 . S
H2638 C2630 0.930 . S
H2639 C2631 0.929 . S
H2640 C2648 0.929 . S
H2641 C2650 0.930 . S
H2642 C2652 0.930 . S
H2643 C2655 0.929 . S
H2644 C2658 0.930 . S
H2645 C2660 0.960 . S
H2646 C2660 0.960 . S
H2647 C2660 0.960 . S
C2648 H2640 0.929 . S
C2648 C2649 1.377 . S
C2648 C2650 1.384 . S
C2649 C2648 1.377 . S
C2649 C2655 1.390 . S
C2650 H2641 0.930 . S
C2650 C2648 1.384 . S
C2650 C2651 1.372 . S
C2651 C2650 1.372 . S
C2651 C2652 1.400 . S
C2651 C2656 1.490 . S
C2652 H2642 0.930 . S
C2652 C2651 1.400 . S
C2652 C2655 1.386 . S
H2653 C2669 0.930 . S
H2654 C2670 0.931 . S
C2655 H2643 0.929 . S
C2655 C2649 1.390 . S
C2655 C2652 1.386 . S
C2656 C2651 1.490 . S
C2656 C2658 1.395 . S
C2656 C2659 1.403 . S
H2657 C2663 0.930 . S
C2658 H2644 0.930 . S
C2658 C2656 1.395 . S
C2658 C2661 1.403 . S
C2659 C2656 1.403 . S
C2659 C2660 1.524 . S
C2659 C2663 1.400 . S
C2660 H2645 0.960 . S
C2660 H2646 0.960 . S
C2660 H2647 0.960 . S
C2660 C2659 1.524 . S
C2661 C2658 1.403 . S
C2661 C2662 1.392 . S
C2661 C2665 1.495 . S
C2662 C2661 1.392 . S
C2662 C2663 1.385 . S
C2662 C2664 1.478 . S
C2663 H2657 0.930 . S
C2663 C2659 1.400 . S
C2663 C2662 1.385 . S
C2664 C2662 1.478 . S
C2664 C2666 1.381 . S
C2664 C2670 1.383 . S
C2665 C2661 1.495 . S
C2665 H2671 0.959 . S
C2665 H2672 0.961 . S
C2665 H2673 0.960 . S
C2666 C2664 1.381 . S
C2666 C2667 1.394 . S
C2666 H2674 0.930 . S
C2667 C2666 1.394 . S
C2667 C2668 1.383 . S
C2667 H2675 0.929 . S
C2668 C2667 1.383 . S
C2668 C2669 1.377 . S
C2669 H2653 0.930 . S
C2669 C2668 1.377 . S
C2669 C2670 1.379 . S
C2670 H2654 0.931 . S
C2670 C2664 1.383 . S
C2670 C2669 1.379 . S
H2671 C2665 0.959 . S
H2672 C2665 0.961 . S
H2673 C2665 0.960 . S
H2674 C2666 0.930 . S
H2675 C2667 0.929 . S
H2676 C2684 0.929 . S
H2677 C2686 0.930 . S
H2678 C2688 0.930 . S
H2679 C2691 0.929 . S
H2680 C2694 0.930 . S
H2681 C2696 0.960 . S
H2682 C2696 0.960 . S
H2683 C2696 0.960 . S
C2684 H2676 0.929 . S
C2684 C2685 1.377 . S
C2684 C2686 1.384 . S
C2685 C2684 1.377 . S
C2685 C2691 1.390 . S
C2686 H2677 0.930 . S
C2686 C2684 1.384 . S
C2686 C2687 1.372 . S
C2687 C2686 1.372 . S
C2687 C2688 1.400 . S
C2687 C2692 1.490 . S
C2688 H2678 0.930 . S
C2688 C2687 1.400 . S
C2688 C2691 1.386 . S
H2689 C2705 0.930 . S
H2690 C2706 0.931 . S
C2691 H2679 0.929 . S
C2691 C2685 1.390 . S
C2691 C2688 1.386 . S
C2692 C2687 1.490 . S
C2692 C2694 1.395 . S
C2692 C2695 1.403 . S
H2693 C2699 0.930 1_545 S
C2694 H2680 0.930 . S
C2694 C2692 1.395 . S
C2694 C2697 1.403 . S
C2695 C2692 1.403 . S
C2695 C2696 1.524 . S
C2695 C2699 1.400 . S
C2696 H2681 0.960 . S
C2696 H2682 0.960 . S
C2696 H2683 0.960 . S
C2696 C2695 1.524 . S
C2697 C2694 1.403 . S
C2697 C2698 1.392 . S
C2697 C2701 1.495 . S
C2698 C2697 1.392 . S
C2698 C2699 1.385 . S
C2698 C2700 1.478 1_565 S
C2699 H2693 0.930 1_565 S
C2699 C2695 1.400 . S
C2699 C2698 1.385 . S
C2700 C2698 1.478 1_545 S
C2700 C2702 1.381 . S
C2700 C2706 1.383 . S
C2701 C2697 1.495 . S
C2701 H2707 0.959 . S
C2701 H2708 0.961 . S
C2701 H2709 0.960 . S
C2702 C2700 1.381 . S
C2702 C2703 1.394 . S
C2702 H2710 0.930 . S
C2703 C2702 1.394 . S
C2703 C2704 1.383 . S
C2703 H2711 0.929 . S
C2704 C2703 1.383 . S
C2704 C2705 1.377 . S
C2705 H2689 0.930 . S
C2705 C2704 1.377 . S
C2705 C2706 1.379 . S
C2706 H2690 0.931 . S
C2706 C2700 1.383 . S
C2706 C2705 1.379 . S
H2707 C2701 0.959 . S
H2708 C2701 0.961 . S
H2709 C2701 0.960 . S
H2710 C2702 0.930 . S
H2711 C2703 0.929 . S
H2712 C2720 0.929 . S
H2713 C2722 0.930 . S
H2714 C2724 0.930 . S
H2715 C2727 0.929 . S
H2716 C2730 0.930 . S
H2717 C2732 0.960 . S
H2718 C2732 0.960 . S
H2719 C2732 0.960 . S
C2720 H2712 0.929 . S
C2720 C2721 1.377 . S
C2720 C2722 1.384 . S
C2721 C2720 1.377 . S
C2721 C2727 1.390 . S
C2722 H2713 0.930 . S
C2722 C2720 1.384 . S
C2722 C2723 1.372 . S
C2723 C2722 1.372 . S
C2723 C2724 1.400 . S
C2723 C2728 1.490 . S
C2724 H2714 0.930 . S
C2724 C2723 1.400 . S
C2724 C2727 1.386 . S
H2725 C2741 0.930 . S
H2726 C2742 0.931 . S
C2727 H2715 0.929 . S
C2727 C2721 1.390 . S
C2727 C2724 1.386 . S
C2728 C2723 1.490 . S
C2728 C2730 1.395 . S
C2728 C2731 1.403 . S
H2729 C2735 0.930 . S
C2730 H2716 0.930 . S
C2730 C2728 1.395 . S
C2730 C2733 1.403 . S
C2731 C2728 1.403 . S
C2731 C2732 1.524 . S
C2731 C2735 1.401 1_556 S
C2732 H2717 0.960 . S
C2732 H2718 0.960 . S
C2732 H2719 0.960 . S
C2732 C2731 1.524 . S
C2733 C2730 1.403 . S
C2733 C2734 1.392 1_556 S
C2733 C2737 1.495 . S
C2734 C2733 1.392 1_554 S
C2734 C2735 1.385 . S
C2734 C2736 1.478 . S
C2735 H2729 0.930 . S
C2735 C2731 1.401 1_554 S
C2735 C2734 1.385 . S
C2736 C2734 1.478 . S
C2736 C2738 1.381 . S
C2736 C2742 1.383 . S
C2737 C2733 1.495 . S
C2737 H2743 0.959 . S
C2737 H2744 0.961 . S
C2737 H2745 0.960 1_556 S
C2738 C2736 1.381 . S
C2738 C2739 1.394 . S
C2738 H2746 0.930 . S
C2739 C2738 1.394 . S
C2739 C2740 1.383 . S
C2739 H2747 0.929 . S
C2740 C2739 1.383 . S
C2740 C2741 1.377 . S
C2741 H2725 0.930 . S
C2741 C2740 1.377 . S
C2741 C2742 1.379 . S
C2742 H2726 0.931 . S
C2742 C2736 1.383 . S
C2742 C2741 1.379 . S
H2743 C2737 0.959 . S
H2744 C2737 0.961 . S
H2745 C2737 0.960 1_554 S
H2746 C2738 0.930 . S
H2747 C2739 0.929 . S
H2748 C2756 0.929 . S
H2749 C2758 0.930 . S
H2750 C2760 0.930 . S
H2751 C2763 0.929 . S
H2752 C2766 0.930 . S
H2753 C2768 0.960 . S
H2754 C2768 0.960 . S
H2755 C2768 0.960 . S
C2756 H2748 0.929 . S
C2756 C2757 1.377 . S
C2756 C2758 1.384 . S
C2757 C2756 1.377 . S
C2757 C2763 1.390 . S
C2758 H2749 0.930 . S
C2758 C2756 1.384 . S
C2758 C2759 1.372 . S
C2759 C2758 1.372 . S
C2759 C2760 1.400 . S
C2759 C2764 1.490 . S
C2760 H2750 0.930 . S
C2760 C2759 1.400 . S
C2760 C2763 1.386 . S
H2761 C2777 0.930 . S
H2762 C2778 0.931 . S
C2763 H2751 0.929 . S
C2763 C2757 1.390 . S
C2763 C2760 1.386 . S
C2764 C2759 1.490 . S
C2764 C2766 1.395 . S
C2764 C2767 1.403 . S
H2765 C2771 0.930 1_565 S
C2766 H2752 0.930 . S
C2766 C2764 1.395 . S
C2766 C2769 1.403 . S
C2767 C2764 1.403 . S
C2767 C2768 1.524 . S
C2767 C2771 1.400 . S
C2768 H2753 0.960 . S
C2768 H2754 0.960 . S
C2768 H2755 0.960 . S
C2768 C2767 1.524 . S
C2769 C2766 1.403 . S
C2769 C2770 1.392 . S
C2769 C2773 1.495 . S
C2770 C2769 1.392 . S
C2770 C2771 1.385 . S
C2770 C2772 1.478 1_545 S
C2771 H2765 0.930 1_545 S
C2771 C2767 1.400 . S
C2771 C2770 1.385 . S
C2772 C2770 1.478 1_565 S
C2772 C2774 1.381 . S
C2772 C2778 1.383 . S
C2773 C2769 1.495 . S
C2773 H2779 0.959 . S
C2773 H2780 0.961 . S
C2773 H2781 0.960 . S
C2774 C2772 1.381 . S
C2774 C2775 1.394 . S
C2774 H2782 0.930 1_565 S
C2775 C2774 1.394 . S
C2775 C2776 1.383 . S
C2775 H2783 0.929 . S
C2776 C2775 1.383 . S
C2776 C2777 1.377 . S
C2777 H2761 0.930 . S
C2777 C2776 1.377 . S
C2777 C2778 1.379 . S
C2778 H2762 0.931 . S
C2778 C2772 1.383 . S
C2778 C2777 1.379 . S
H2779 C2773 0.959 . S
H2780 C2773 0.961 . S
H2781 C2773 0.960 . S
H2782 C2774 0.930 1_545 S
H2783 C2775 0.929 . S
H2784 C2792 0.929 . S
H2785 C2794 0.930 . S
H2786 C2796 0.930 . S
H2787 C2799 0.929 . S
H2788 C2802 0.930 . S
H2789 C2804 0.960 . S
H2790 C2804 0.960 . S
H2791 C2804 0.960 . S
C2792 H2784 0.929 . S
C2792 C2793 1.377 . S
C2792 C2794 1.384 . S
C2793 C2792 1.377 . S
C2793 C2799 1.390 . S
C2794 H2785 0.930 . S
C2794 C2792 1.384 . S
C2794 C2795 1.372 . S
C2795 C2794 1.372 . S
C2795 C2796 1.400 . S
C2795 C2800 1.490 . S
C2796 H2786 0.930 . S
C2796 C2795 1.400 . S
C2796 C2799 1.386 . S
H2797 C2813 0.930 . S
H2798 C2814 0.931 . S
C2799 H2787 0.929 . S
C2799 C2793 1.390 . S
C2799 C2796 1.386 . S
C2800 C2795 1.490 . S
C2800 C2802 1.395 . S
C2800 C2803 1.403 . S
H2801 C2807 0.930 . S
C2802 H2788 0.930 . S
C2802 C2800 1.395 . S
C2802 C2805 1.403 . S
C2803 C2800 1.403 . S
C2803 C2804 1.524 . S
C2803 C2807 1.400 . S
C2804 H2789 0.960 . S
C2804 H2790 0.960 . S
C2804 H2791 0.960 . S
C2804 C2803 1.524 . S
C2805 C2802 1.403 . S
C2805 C2806 1.392 . S
C2805 C2809 1.495 . S
C2806 C2805 1.392 . S
C2806 C2807 1.385 . S
C2806 C2808 1.478 . S
C2807 H2801 0.930 . S
C2807 C2803 1.400 . S
C2807 C2806 1.385 . S
C2808 C2806 1.478 . S
C2808 C2810 1.381 . S
C2808 C2814 1.383 . S
C2809 C2805 1.495 . S
C2809 H2815 0.959 . S
C2809 H2816 0.961 . S
C2809 H2817 0.960 . S
C2810 C2808 1.381 . S
C2810 C2811 1.394 . S
C2810 H2818 0.930 . S
C2811 C2810 1.394 . S
C2811 C2812 1.383 . S
C2811 H2819 0.929 . S
C2812 C2811 1.383 . S
C2812 C2813 1.377 . S
C2813 H2797 0.930 . S
C2813 C2812 1.377 . S
C2813 C2814 1.379 . S
C2814 H2798 0.931 . S
C2814 C2808 1.383 . S
C2814 C2813 1.379 . S
H2815 C2809 0.959 . S
H2816 C2809 0.961 . S
H2817 C2809 0.960 . S
H2818 C2810 0.930 . S
H2819 C2811 0.929 . S
H2820 C2828 0.929 . S
H2821 C2830 0.930 . S
H2822 C2832 0.968 . S
H2823 C2835 0.929 . S
H2824 C2838 0.930 1_554 S
H2825 C2840 0.960 . S
H2826 C2840 0.960 . S
H2827 C2840 0.960 . S
C2828 H2820 0.929 . S
C2828 C2829 1.377 . S
C2828 C2830 1.384 . S
C2829 C2828 1.377 . S
C2829 C2835 1.390 . S
C2830 H2821 0.930 . S
C2830 C2828 1.384 . S
C2830 C2831 1.372 . S
C2831 C2830 1.372 . S
C2831 C2832 1.400 . S
C2831 C2836 1.490 1_554 S
C2832 H2822 0.968 . S
C2832 C2831 1.400 . S
C2832 C2835 1.386 . S
H2833 C2849 0.930 . S
H2834 C2850 0.931 . S
C2835 H2823 0.929 . S
C2835 C2829 1.390 . S
C2835 C2832 1.386 . S
C2836 C2831 1.490 1_556 S
C2836 C2838 1.395 . S
C2836 C2839 1.403 . S
H2837 C2843 0.930 . S
C2838 H2824 0.930 1_556 S
C2838 C2836 1.395 . S
C2838 C2841 1.403 . S
C2839 C2836 1.403 . S
C2839 C2840 1.524 . S
C2839 C2843 1.400 . S
C2840 H2825 0.960 . S
C2840 H2826 0.960 . S
C2840 H2827 0.960 . S
C2840 C2839 1.524 . S
C2841 C2838 1.403 . S
C2841 C2842 1.392 . S
C2841 C2845 1.495 . S
C2842 C2841 1.392 . S
C2842 C2843 1.385 . S
C2842 C2844 1.478 . S
C2843 H2837 0.930 . S
C2843 C2839 1.400 . S
C2843 C2842 1.385 . S
C2844 C2842 1.478 . S
C2844 C2846 1.381 . S
C2844 C2850 1.383 . S
C2845 C2841 1.495 . S
C2845 H2851 0.959 . S
C2845 H2852 0.961 . S
C2845 H2853 0.960 . S
C2846 C2844 1.381 . S
C2846 C2847 1.394 . S
C2846 H2854 0.930 . S
C2847 C2846 1.394 . S
C2847 C2848 1.383 . S
C2847 H2855 0.929 . S
C2848 C2847 1.383 . S
C2848 C2849 1.377 . S
C2849 H2833 0.930 . S
C2849 C2848 1.377 . S
C2849 C2850 1.379 . S
C2850 H2834 0.931 . S
C2850 C2844 1.383 . S
C2850 C2849 1.379 . S
H2851 C2845 0.959 . S
H2852 C2845 0.961 . S
H2853 C2845 0.960 . S
H2854 C2846 0.930 . S
H2855 C2847 0.929 . S
H2856 C2864 0.929 . S
H2857 C2866 0.930 . S
H2858 C2868 0.930 . S
H2859 C2871 0.929 . S
H2860 C2874 0.930 . S
H2861 C2876 0.960 . S
H2862 C2876 0.960 . S
H2863 C2876 0.960 . S
C2864 H2856 0.929 . S
C2864 C2865 1.377 . S
C2864 C2866 1.384 . S
C2865 C2864 1.377 . S
C2865 C2871 1.390 . S
C2866 H2857 0.930 . S
C2866 C2864 1.384 . S
C2866 C2867 1.372 . S
C2867 C2866 1.372 . S
C2867 C2868 1.400 . S
C2867 C2872 1.490 . S
C2868 H2858 0.930 . S
C2868 C2867 1.400 . S
C2868 C2871 1.386 . S
H2869 C2885 0.930 . S
H2870 C2886 0.931 . S
C2871 H2859 0.929 . S
C2871 C2865 1.390 . S
C2871 C2868 1.386 . S
C2872 C2867 1.490 . S
C2872 C2874 1.395 . S
C2872 C2875 1.403 . S
H2873 C2879 0.930 . S
C2874 H2860 0.930 . S
C2874 C2872 1.395 . S
C2874 C2877 1.403 . S
C2875 C2872 1.403 . S
C2875 C2876 1.524 . S
C2875 C2879 1.400 . S
C2876 H2861 0.960 . S
C2876 H2862 0.960 . S
C2876 H2863 0.960 . S
C2876 C2875 1.524 . S
C2877 C2874 1.403 . S
C2877 C2878 1.392 . S
C2877 C2881 1.495 . S
C2878 C2877 1.392 . S
C2878 C2879 1.385 . S
C2878 C2880 1.478 . S
C2879 H2873 0.930 . S
C2879 C2875 1.400 . S
C2879 C2878 1.385 . S
C2880 C2878 1.478 . S
C2880 C2882 1.381 . S
C2880 C2886 1.383 . S
C2881 C2877 1.495 . S
C2881 H2887 0.959 . S
C2881 H2888 0.961 . S
C2881 H2889 0.960 . S
C2882 C2880 1.381 . S
C2882 C2883 1.394 . S
C2882 H2890 0.930 . S
C2883 C2882 1.394 . S
C2883 C2884 1.383 . S
C2883 H2891 0.929 . S
C2884 C2883 1.383 . S
C2884 C2885 1.377 . S
C2885 H2869 0.930 . S
C2885 C2884 1.377 . S
C2885 C2886 1.379 . S
C2886 H2870 0.931 . S
C2886 C2880 1.383 . S
C2886 C2885 1.379 . S
H2887 C2881 0.959 . S
H2888 C2881 0.961 . S
H2889 C2881 0.960 . S
H2890 C2882 0.930 . S
H2891 C2883 0.929 . S
H2892 C2900 0.929 . S
H2893 C2902 0.930 . S
H2894 C2904 0.930 . S
H2895 C2907 0.929 . S
H2896 C2910 0.930 . S
H2897 C2912 0.960 . S
H2898 C2912 0.960 . S
H2899 C2912 0.960 . S
C2900 H2892 0.929 . S
C2900 C2901 1.377 . S
C2900 C2902 1.384 . S
C2901 C2900 1.377 . S
C2901 C2907 1.390 . S
C2902 H2893 0.930 . S
C2902 C2900 1.384 . S
C2902 C2903 1.372 . S
C2903 C2902 1.372 . S
C2903 C2904 1.400 . S
C2903 C2908 1.490 . S
C2904 H2894 0.930 . S
C2904 C2903 1.400 . S
C2904 C2907 1.386 . S
H2905 C2921 0.930 . S
H2906 C2922 0.931 . S
C2907 H2895 0.929 . S
C2907 C2901 1.390 . S
C2907 C2904 1.386 . S
C2908 C2903 1.490 . S
C2908 C2910 1.395 . S
C2908 C2911 1.403 . S
H2909 C2915 0.930 . S
C2910 H2896 0.930 . S
C2910 C2908 1.395 . S
C2910 C2913 1.403 . S
C2911 C2908 1.403 . S
C2911 C2912 1.524 . S
C2911 C2915 1.400 . S
C2912 H2897 0.960 . S
C2912 H2898 0.960 . S
C2912 H2899 0.960 . S
C2912 C2911 1.524 . S
C2913 C2910 1.403 . S
C2913 C2914 1.392 . S
C2913 C2917 1.495 . S
C2914 C2913 1.392 . S
C2914 C2915 1.385 . S
C2914 C2916 1.478 . S
C2915 H2909 0.930 . S
C2915 C2911 1.400 . S
C2915 C2914 1.385 . S
C2916 C2914 1.478 . S
C2916 C2918 1.381 . S
C2916 C2922 1.383 . S
C2917 C2913 1.495 . S
C2917 H2923 0.959 . S
C2917 H2924 0.961 . S
C2917 H2925 0.960 . S
C2918 C2916 1.381 . S
C2918 C2919 1.394 . S
C2918 H2926 0.930 . S
C2919 C2918 1.394 . S
C2919 C2920 1.383 . S
C2919 H2927 0.929 . S
C2920 C2919 1.383 . S
C2920 C2921 1.377 . S
C2921 H2905 0.930 . S
C2921 C2920 1.377 . S
C2921 C2922 1.379 . S
C2922 H2906 0.931 . S
C2922 C2916 1.383 . S
C2922 C2921 1.379 . S
H2923 C2917 0.959 . S
H2924 C2917 0.961 . S
H2925 C2917 0.960 . S
H2926 C2918 0.930 . S
H2927 C2919 0.929 . S
H2928 C2936 0.929 . S
H2929 C2938 0.930 . S
H2930 C2940 0.930 . S
H2931 C2943 0.929 . S
H2932 C2946 0.930 . S
H2933 C2948 0.960 . S
H2934 C2948 0.960 . S
H2935 C2948 0.960 . S
C2936 H2928 0.929 . S
C2936 C2937 1.377 . S
C2936 C2938 1.384 . S
C2937 C2936 1.377 . S
C2937 C2943 1.390 . S
C2938 H2929 0.930 . S
C2938 C2936 1.384 . S
C2938 C2939 1.372 . S
C2939 C2938 1.372 . S
C2939 C2940 1.400 . S
C2939 C2944 1.490 . S
C2940 H2930 0.930 . S
C2940 C2939 1.400 . S
C2940 C2943 1.386 . S
H2941 C2957 0.930 . S
H2942 C2958 0.931 . S
C2943 H2931 0.929 . S
C2943 C2937 1.390 . S
C2943 C2940 1.386 . S
C2944 C2939 1.490 . S
C2944 C2946 1.395 . S
C2944 C2947 1.403 . S
H2945 C2951 0.930 . S
C2946 H2932 0.930 . S
C2946 C2944 1.395 . S
C2946 C2949 1.403 . S
C2947 C2944 1.403 . S
C2947 C2948 1.524 . S
C2947 C2951 1.400 . S
C2948 H2933 0.960 . S
C2948 H2934 0.960 . S
C2948 H2935 0.960 . S
C2948 C2947 1.524 . S
C2949 C2946 1.403 . S
C2949 C2950 1.392 . S
C2949 C2953 1.495 . S
C2950 C2949 1.392 . S
C2950 C2951 1.385 . S
C2950 C2952 1.478 . S
C2951 H2945 0.930 . S
C2951 C2947 1.400 . S
C2951 C2950 1.385 . S
C2952 C2950 1.478 . S
C2952 C2954 1.381 . S
C2952 C2958 1.383 . S
C2953 C2949 1.495 . S
C2953 H2959 0.959 . S
C2953 H2960 0.961 . S
C2953 H2961 0.960 . S
C2954 C2952 1.381 . S
C2954 C2955 1.394 . S
C2954 H2962 0.930 . S
C2955 C2954 1.394 . S
C2955 C2956 1.383 . S
C2955 H2963 0.929 . S
C2956 C2955 1.383 . S
C2956 C2957 1.377 . S
C2957 H2941 0.930 . S
C2957 C2956 1.377 . S
C2957 C2958 1.379 . S
C2958 H2942 0.931 . S
C2958 C2952 1.383 . S
C2958 C2957 1.379 . S
H2959 C2953 0.959 . S
H2960 C2953 0.961 . S
H2961 C2953 0.960 . S
H2962 C2954 0.930 . S
H2963 C2955 0.929 . S
H2964 C2972 0.929 . S
H2965 C2974 0.930 . S
H2966 C2976 0.930 . S
H2967 C2979 0.929 . S
H2968 C2982 0.930 . S
H2969 C2984 0.960 . S
H2970 C2984 0.960 . S
H2971 C2984 0.960 . S
C2972 H2964 0.929 . S
C2972 C2973 1.377 . S
C2972 C2974 1.384 . S
C2973 C2972 1.377 . S
C2973 C2979 1.390 . S
C2974 H2965 0.930 . S
C2974 C2972 1.384 . S
C2974 C2975 1.372 . S
C2975 C2974 1.372 . S
C2975 C2976 1.400 . S
C2975 C2980 1.490 . S
C2976 H2966 0.930 . S
C2976 C2975 1.400 . S
C2976 C2979 1.386 . S
H2977 C2993 0.930 . S
H2978 C2994 0.931 . S
C2979 H2967 0.929 . S
C2979 C2973 1.390 . S
C2979 C2976 1.386 . S
C2980 C2975 1.490 . S
C2980 C2982 1.395 . S
C2980 C2983 1.403 . S
H2981 C2987 0.930 . S
C2982 H2968 0.930 . S
C2982 C2980 1.395 . S
C2982 C2985 1.403 . S
C2983 C2980 1.403 . S
C2983 C2984 1.524 . S
C2983 C2987 1.400 . S
C2984 H2969 0.960 . S
C2984 H2970 0.960 . S
C2984 H2971 0.960 . S
C2984 C2983 1.524 . S
C2985 C2982 1.403 . S
C2985 C2986 1.392 . S
C2985 C2989 1.495 . S
C2986 C2985 1.392 . S
C2986 C2987 1.385 . S
C2986 C2988 1.478 . S
C2987 H2981 0.930 . S
C2987 C2983 1.400 . S
C2987 C2986 1.385 . S
C2988 C2986 1.478 . S
C2988 C2990 1.381 . S
C2988 C2994 1.383 . S
C2989 C2985 1.495 . S
C2989 H2995 0.959 . S
C2989 H2996 0.961 . S
C2989 H2997 0.960 . S
C2990 C2988 1.381 . S
C2990 C2991 1.394 . S
C2990 H2998 0.930 . S
C2991 C2990 1.394 . S
C2991 C2992 1.383 . S
C2991 H2999 0.929 . S
C2992 C2991 1.383 . S
C2992 C2993 1.377 . S
C2993 H2977 0.930 . S
C2993 C2992 1.377 . S
C2993 C2994 1.379 . S
C2994 H2978 0.931 . S
C2994 C2988 1.383 . S
C2994 C2993 1.379 . S
H2995 C2989 0.959 . S
H2996 C2989 0.961 . S
H2997 C2989 0.960 . S
H2998 C2990 0.930 . S
H2999 C2991 0.929 . S
C1281 C29 1.394 . S
C1300 C506 1.389 . S
C1317 C82 1.174 . S
C1336 C559 1.177 . S
C1353 C622 1.671 . S
C1372 C135 1.667 . S
C1389 C463 1.656 . S
C1408 C188 1.654 . S
C1425 C569 1.480 . S
C1444 C251 1.473 . S
C1461 C304 1.215 . S
C1480 C612 1.212 . S
C1497 C357 1.570 . S
C1516 C453 1.568 . S
C1533 C516 1.719 . S
C1552 C410 1.718 . S
C1569 C241 1.485 . S
C1588 C674 1.480 . S
C1605 C400 1.211 . S
C1624 C817 1.215 . S
C1641 C887 1.663 . S
C1660 C294 1.665 . S
C1677 C198 1.498 . S
C1696 C728 1.497 . S
C1713 C780 1.562 . S
C1732 C347 1.558 . S
C1749 C39 1.596 . S
C1768 C1036 1.588 . S
C1785 C145 1.202 . S
C1804 C983 1.197 . S
C1821 C833 1.425 . S
C1840 C1152 1.414 . S
C1857 C1205 1.554 . S
C1876 C658 1.551 . S
C1893 C1258 1.193 . S
C1912 C877 1.185 . S
C1929 C1099 1.221 . S
C1948 C764 1.217 . S
C1965 C1195 1.451 . S
C1984 C930 1.445 . S
C2001 C993 1.700 . S
C2020 C1248 1.700 . S
C2037 C1089 1.216 . S
C2056 C718 1.210 . S
C2073 C1046 1.340 . S
C2092 C1142 1.330 . S
C2109 C92 1.528 . S
C2128 C940 1.521 . S
C2145 C250 1.029 . S
C2164 C22 1.019 . S
C2181 C75 0.770 . S
C2200 C303 0.765 . S
C2217 C128 1.207 . S
C2236 C356 1.208 . S
C2253 C409 1.215 . S
C2272 C181 1.200 . S
C2289 C462 1.294 . S
C2308 C515 1.287 . S
C2325 C499 1.020 . S
C2344 C568 1.024 . S
C2361 C605 0.768 . S
C2380 C552 0.760 . S
C2397 C446 1.144 . S
C2416 C621 1.147 . S
C2433 C197 1.087 . S
C2452 C675 1.076 . S
C2469 C393 0.800 . S
C2488 C976 0.805 . S
C2505 C234 1.122 . S
C2524 C727 1.121 . S
C2541 C1029 1.101 . S
C2560 C287 1.092 . S
C2577 C781 1.062 . S
C2596 C91 1.063 . S
C2613 C38 1.143 . S
C2632 C886 1.145 . S
C2649 C144 0.688 . S
C2668 C824 0.673 . S
C2685 C834 1.015 . S
C2704 C923 1.007 . S
C2721 C992 1.091 . S
C2740 C665 1.096 . S
C2757 C870 0.758 . S
C2776 C711 0.751 . S
C2793 C771 0.888 . S
C2812 C1045 0.891 . S
C2829 C1135 0.848 . S
C2848 C1098 0.840 . S
C2865 C1188 1.017 . S
C2884 C1151 1.015 . S
C2901 C1241 1.213 . S
C2920 C1204 1.215 . S
C2937 C1082 0.795 . S
C2956 C1257 0.790 . S
C2973 C939 1.105 . S
C2992 C340 1.109 . S
